# Generated by pormake.
# Topology gan, (5)-cn, num edge types: 1
# Building blocks:
#     Node 0, Type 0, BuildingBlock: XOMCOT_clean_sbu_1, # of connection points: 5
#     Node 1, Type 0, BuildingBlock: XOMCOT_clean_sbu_1, # of connection points: 5
#     Node 2, Type 0, BuildingBlock: XOMCOT_clean_sbu_1, # of connection points: 5
#     Node 3, Type 0, BuildingBlock: XOMCOT_clean_sbu_1, # of connection points: 5
#     Node 4, Type 0, BuildingBlock: XOMCOT_clean_sbu_1, # of connection points: 5
#     Node 5, Type 0, BuildingBlock: XOMCOT_clean_sbu_1, # of connection points: 5
#     Node 6, Type 0, BuildingBlock: XOMCOT_clean_sbu_1, # of connection points: 5
#     Node 7, Type 0, BuildingBlock: XOMCOT_clean_sbu_1, # of connection points: 5
#     Node 8, Type 0, BuildingBlock: XOMCOT_clean_sbu_1, # of connection points: 5
#     Node 9, Type 0, BuildingBlock: XOMCOT_clean_sbu_1, # of connection points: 5
#     Node 10, Type 0, BuildingBlock: XOMCOT_clean_sbu_1, # of connection points: 5
#     Node 11, Type 0, BuildingBlock: XOMCOT_clean_sbu_1, # of connection points: 5
#     Node 12, Type 0, BuildingBlock: XOMCOT_clean_sbu_1, # of connection points: 5
#     Node 13, Type 0, BuildingBlock: XOMCOT_clean_sbu_1, # of connection points: 5
#     Node 14, Type 0, BuildingBlock: XOMCOT_clean_sbu_1, # of connection points: 5
#     Node 15, Type 0, BuildingBlock: XOMCOT_clean_sbu_1, # of connection points: 5
#     Edge 16, Type (0, 0), BuildingBlock: TEMPAE_clean_linker_10, # of connection points: 2
#     Edge 17, Type (0, 0), BuildingBlock: TEMPAE_clean_linker_10, # of connection points: 2
#     Edge 18, Type (0, 0), BuildingBlock: TEMPAE_clean_linker_10, # of connection points: 2
#     Edge 19, Type (0, 0), BuildingBlock: TEMPAE_clean_linker_10, # of connection points: 2
#     Edge 20, Type (0, 0), BuildingBlock: TEMPAE_clean_linker_10, # of connection points: 2
#     Edge 21, Type (0, 0), BuildingBlock: TEMPAE_clean_linker_10, # of connection points: 2
#     Edge 22, Type (0, 0), BuildingBlock: TEMPAE_clean_linker_10, # of connection points: 2
#     Edge 23, Type (0, 0), BuildingBlock: TEMPAE_clean_linker_10, # of connection points: 2
#     Edge 24, Type (0, 0), BuildingBlock: TEMPAE_clean_linker_10, # of connection points: 2
#     Edge 25, Type (0, 0), BuildingBlock: TEMPAE_clean_linker_10, # of connection points: 2
#     Edge 26, Type (0, 0), BuildingBlock: TEMPAE_clean_linker_10, # of connection points: 2
#     Edge 27, Type (0, 0), BuildingBlock: TEMPAE_clean_linker_10, # of connection points: 2
#     Edge 28, Type (0, 0), BuildingBlock: TEMPAE_clean_linker_10, # of connection points: 2
#     Edge 29, Type (0, 0), BuildingBlock: TEMPAE_clean_linker_10, # of connection points: 2
#     Edge 30, Type (0, 0), BuildingBlock: TEMPAE_clean_linker_10, # of connection points: 2
#     Edge 31, Type (0, 0), BuildingBlock: TEMPAE_clean_linker_10, # of connection points: 2
#     Edge 32, Type (0, 0), BuildingBlock: TEMPAE_clean_linker_10, # of connection points: 2
#     Edge 33, Type (0, 0), BuildingBlock: TEMPAE_clean_linker_10, # of connection points: 2
#     Edge 34, Type (0, 0), BuildingBlock: TEMPAE_clean_linker_10, # of connection points: 2
#     Edge 35, Type (0, 0), BuildingBlock: TEMPAE_clean_linker_10, # of connection points: 2
#     Edge 36, Type (0, 0), BuildingBlock: TEMPAE_clean_linker_10, # of connection points: 2
#     Edge 37, Type (0, 0), BuildingBlock: TEMPAE_clean_linker_10, # of connection points: 2
#     Edge 38, Type (0, 0), BuildingBlock: TEMPAE_clean_linker_10, # of connection points: 2
#     Edge 39, Type (0, 0), BuildingBlock: TEMPAE_clean_linker_10, # of connection points: 2
#     Edge 40, Type (0, 0), BuildingBlock: TEMPAE_clean_linker_10, # of connection points: 2
#     Edge 41, Type (0, 0), BuildingBlock: TEMPAE_clean_linker_10, # of connection points: 2
#     Edge 42, Type (0, 0), BuildingBlock: TEMPAE_clean_linker_10, # of connection points: 2
#     Edge 43, Type (0, 0), BuildingBlock: TEMPAE_clean_linker_10, # of connection points: 2
#     Edge 44, Type (0, 0), BuildingBlock: TEMPAE_clean_linker_10, # of connection points: 2
#     Edge 45, Type (0, 0), BuildingBlock: TEMPAE_clean_linker_10, # of connection points: 2
#     Edge 46, Type (0, 0), BuildingBlock: TEMPAE_clean_linker_10, # of connection points: 2
#     Edge 47, Type (0, 0), BuildingBlock: TEMPAE_clean_linker_10, # of connection points: 2
#     Edge 48, Type (0, 0), BuildingBlock: TEMPAE_clean_linker_10, # of connection points: 2
#     Edge 49, Type (0, 0), BuildingBlock: TEMPAE_clean_linker_10, # of connection points: 2
#     Edge 50, Type (0, 0), BuildingBlock: TEMPAE_clean_linker_10, # of connection points: 2
#     Edge 51, Type (0, 0), BuildingBlock: TEMPAE_clean_linker_10, # of connection points: 2
#     Edge 52, Type (0, 0), BuildingBlock: TEMPAE_clean_linker_10, # of connection points: 2
#     Edge 53, Type (0, 0), BuildingBlock: TEMPAE_clean_linker_10, # of connection points: 2
#     Edge 54, Type (0, 0), BuildingBlock: TEMPAE_clean_linker_10, # of connection points: 2
#     Edge 55, Type (0, 0), BuildingBlock: TEMPAE_clean_linker_10, # of connection points: 2
# Relax obj value: 0.083
# Max RMSD: 0.106
# Mean RMSD: 0.096
data_MOF--net-gan--node1-XOMCOT_clean_sbu_1--edge1-TEMPAE_clean_linker_10
_symmetry_space_group_name_H-M    P1
_symmetry_Int_Tables_number       1
_symmetry_cell_setting            triclinic
loop_
_symmetry_equiv_pos_as_xyz
'x, y, z'
_cell_length_a     43.339333
_cell_length_b     43.245635
_cell_length_c     42.329208
_cell_angle_alpha  90.505738
_cell_angle_beta   90.917803
_cell_angle_gamma 91.58101
loop_
_atom_site_label
_atom_site_type_symbol
_atom_site_fract_x
_atom_site_fract_y
_atom_site_fract_z
_atom_type_partial_charge
C0 C 0.11488 0.16123 0.20772 0.0
C1 C 0.09221 0.14295 0.19317 0.0
N2 N 0.09923 0.13882 0.16249 0.0
N3 N 0.13675 0.16915 0.18683 0.0
C4 C 0.12673 0.15467 0.15943 0.0
H5 H 0.11523 0.16862 0.2322 0.0
Co6 Co 0.17076 0.19683 0.19949 0.0
C7 C 0.17404 0.20698 0.1305 0.0
O8 O 0.14718 0.22034 0.13056 0.0
N9 N 0.20436 0.22478 0.2129 0.0
C10 C 0.24228 0.26069 0.21082 0.0
C11 C 0.22161 0.24248 0.19345 0.0
C12 C 0.21513 0.23326 0.2424 0.0
N13 N 0.23852 0.25509 0.24183 0.0
O14 O 0.14556 0.23118 0.19223 0.0
H15 H 0.21907 0.24294 0.16805 0.0
H16 H 0.20589 0.22368 0.26391 0.0
O17 O 0.18555 0.19701 0.1563 0.0
C18 C 0.13372 0.24094 0.21765 0.0
O19 O 0.1415 0.22781 0.24439 0.0
N20 N 0.19428 0.16324 0.20963 0.0
C21 C 0.22073 0.11035 0.23384 0.0
C22 C 0.22447 0.11828 0.20195 0.0
C23 C 0.21087 0.14491 0.19016 0.0
C24 C 0.1914 0.15655 0.24075 0.0
C25 C 0.20442 0.13031 0.25338 0.0
H26 H 0.21287 0.14997 0.16536 0.0
H27 H 0.17771 0.17116 0.25557 0.0
H28 H 0.13898 0.15601 0.13746 0.0
H29 H 0.07206 0.13336 0.20469 0.0
H30 H 0.25833 0.27755 0.20111 0.0
H31 H 0.23688 0.10354 0.18603 0.0
H32 H 0.2001 0.12488 0.27787 0.0
C33 C 0.21145 0.84692 0.2772 0.0
C34 C 0.23189 0.83103 0.25898 0.0
N35 N 0.23707 0.80311 0.27173 0.0
N36 N 0.20289 0.83008 0.30239 0.0
C37 C 0.21885 0.8031 0.29817 0.0
H38 H 0.20244 0.86926 0.27146 0.0
Co39 Co 0.1699 0.84577 0.33021 0.0
C40 C 0.18251 0.82513 0.39453 0.0
O41 O 0.1533 0.81704 0.39771 0.0
N42 N 0.13541 0.86243 0.35762 0.0
C43 C 0.0881 0.86559 0.37856 0.0
C44 C 0.10704 0.84869 0.35969 0.0
C45 C 0.13229 0.88843 0.37669 0.0
N46 N 0.10336 0.8911 0.38948 0.0
O47 O 0.19056 0.88503 0.33276 0.0
H48 H 0.09984 0.82706 0.34875 0.0
H49 H 0.1507 0.90552 0.38058 0.0
O50 O 0.1924 0.83391 0.36771 0.0
C51 C 0.17685 0.90597 0.31754 0.0
O52 O 0.15015 0.89918 0.30363 0.0
N53 N 0.14945 0.80799 0.32448 0.0
C54 C 0.11361 0.75696 0.30428 0.0
C55 C 0.13649 0.75394 0.32797 0.0
C56 C 0.15451 0.77983 0.33757 0.0
C57 C 0.12951 0.81068 0.29962 0.0
C58 C 0.11089 0.7858 0.28964 0.0
H59 H 0.17256 0.77703 0.35508 0.0
H60 H 0.12711 0.83294 0.28849 0.0
H61 H 0.21676 0.78358 0.31386 0.0
H62 H 0.24123 0.83934 0.23698 0.0
H63 H 0.06452 0.85907 0.38409 0.0
H64 H 0.14027 0.73193 0.33917 0.0
H65 H 0.09353 0.78979 0.27158 0.0
C66 C 0.36348 0.82557 0.65759 0.0
C67 C 0.34406 0.80433 0.67172 0.0
N68 N 0.33369 0.8163 0.69895 0.0
N69 N 0.36592 0.85169 0.67513 0.0
C70 C 0.34761 0.84521 0.70063 0.0
H71 H 0.37526 0.82214 0.63555 0.0
Co72 Co 0.39198 0.88561 0.65938 0.0
C73 C 0.36891 0.94283 0.68754 0.0
O74 O 0.37323 0.95638 0.66024 0.0
N75 N 0.41985 0.91911 0.6428 0.0
C76 C 0.4592 0.95405 0.64544 0.0
C77 C 0.43922 0.9355 0.66242 0.0
C78 C 0.42889 0.92899 0.61338 0.0
N79 N 0.45293 0.9502 0.61442 0.0
O80 O 0.42359 0.87475 0.68841 0.0
H81 H 0.43951 0.93346 0.68787 0.0
H82 H 0.41919 0.91997 0.59142 0.0
O83 O 0.37467 0.91413 0.69052 0.0
C84 C 0.44365 0.8602 0.67299 0.0
O85 O 0.4393 0.85554 0.64252 0.0
N86 N 0.36193 0.89323 0.62907 0.0
C87 C 0.31837 0.88314 0.58101 0.0
C88 C 0.30976 0.89641 0.60982 0.0
C89 C 0.33198 0.90079 0.634 0.0
C90 C 0.37057 0.88115 0.60091 0.0
C91 C 0.34933 0.87639 0.5764 0.0
H92 H 0.32458 0.90788 0.65713 0.0
H93 H 0.39369 0.87283 0.59831 0.0
H94 H 0.34418 0.86145 0.71976 0.0
H95 H 0.33835 0.78137 0.66264 0.0
H96 H 0.4774 0.96905 0.65527 0.0
H97 H 0.28582 0.90122 0.61434 0.0
H98 H 0.35676 0.86586 0.55457 0.0
C99 C 0.36828 0.15662 0.91122 0.0
C100 C 0.3898 0.14183 0.92948 0.0
N101 N 0.38196 0.11151 0.93155 0.0
N102 N 0.34605 0.13648 0.90084 0.0
C103 C 0.35492 0.10891 0.91399 0.0
H104 H 0.36877 0.18104 0.90587 0.0
Co105 Co 0.31262 0.15339 0.87421 0.0
C106 C 0.29034 0.10222 0.8319 0.0
O107 O 0.28245 0.12296 0.81103 0.0
N108 N 0.27864 0.17256 0.84848 0.0
C109 C 0.22931 0.18146 0.83485 0.0
C110 C 0.24887 0.16345 0.85241 0.0
C111 C 0.27586 0.19694 0.8277 0.0
N112 N 0.24589 0.20297 0.81909 0.0
O113 O 0.28537 0.14973 0.90916 0.0
H114 H 0.24153 0.14464 0.86745 0.0
H115 H 0.29522 0.2108 0.81963 0.0
O116 O 0.30121 0.11115 0.85893 0.0
C117 C 0.28575 0.17468 0.92541 0.0
O118 O 0.30314 0.19804 0.91581 0.0
N119 N 0.34081 0.15863 0.84171 0.0
C120 C 0.39548 0.17087 0.81014 0.0
C121 C 0.38401 0.14049 0.81281 0.0
C122 C 0.35693 0.1348 0.82925 0.0
C123 C 0.35081 0.18842 0.83779 0.0
C124 C 0.37787 0.19515 0.82159 0.0
H125 H 0.35119 0.11115 0.83473 0.0
H126 H 0.33949 0.20687 0.85005 0.0
H127 H 0.342 0.08735 0.91054 0.0
H128 H 0.40966 0.15304 0.94095 0.0
H129 H 0.20442 0.17867 0.83383 0.0
H130 H 0.39736 0.12114 0.80491 0.0
H131 H 0.38653 0.21887 0.82105 0.0
C132 C 0.67679 0.30967 0.77598 0.0
C133 C 0.69348 0.2896 0.75797 0.0
N134 N 0.72196 0.2868 0.77073 0.0
N135 N 0.69371 0.32023 0.80104 0.0
C136 C 0.72158 0.306 0.79693 0.0
H137 H 0.65334 0.31627 0.77096 0.0
Co138 Co 0.67445 0.34994 0.83086 0.0
C139 C 0.6907 0.33136 0.89388 0.0
O140 O 0.66099 0.33024 0.89967 0.0
N141 N 0.65537 0.38113 0.86099 0.0
C142 C 0.65927 0.42076 0.89591 0.0
C143 C 0.67473 0.40208 0.87544 0.0
C144 C 0.62727 0.38842 0.87424 0.0
N145 N 0.62908 0.41252 0.8959 0.0
O146 O 0.70501 0.38005 0.82039 0.0
H147 H 0.6994 0.40347 0.87217 0.0
H148 H 0.60592 0.37581 0.86903 0.0
O149 O 0.69993 0.33648 0.86581 0.0
C150 C 0.69905 0.39275 0.79414 0.0
O151 O 0.675 0.38234 0.77755 0.0
N152 N 0.64351 0.32059 0.83815 0.0
C153 C 0.59571 0.27692 0.83373 0.0
C154 C 0.62517 0.26813 0.84348 0.0
C155 C 0.649 0.29048 0.84544 0.0
C156 C 0.61518 0.32911 0.82771 0.0
C157 C 0.59066 0.30777 0.82613 0.0
H158 H 0.67213 0.28342 0.85126 0.0
H159 H 0.61202 0.35228 0.81908 0.0
H160 H 0.74108 0.30938 0.81299 0.0
H161 H 0.68516 0.27819 0.73649 0.0
H162 H 0.66998 0.43933 0.90981 0.0
H163 H 0.62979 0.24422 0.84874 0.0
H164 H 0.56832 0.31495 0.81751 0.0
C165 C 0.8535 0.33199 0.15678 0.0
C166 C 0.83289 0.31279 0.17205 0.0
N167 N 0.83212 0.32094 0.20275 0.0
N168 N 0.86603 0.35334 0.17704 0.0
C169 C 0.85271 0.34559 0.20532 0.0
H170 H 0.85917 0.33011 0.13211 0.0
Co171 Co 0.89663 0.38451 0.16215 0.0
C172 C 0.87706 0.44423 0.18789 0.0
O173 O 0.88408 0.45704 0.16081 0.0
N174 N 0.92832 0.41513 0.14685 0.0
C175 C 0.96849 0.44889 0.15148 0.0
C176 C 0.94783 0.43013 0.16737 0.0
C177 C 0.93829 0.42582 0.11801 0.0
N178 N 0.96292 0.44635 0.12013 0.0
O179 O 0.92527 0.37165 0.19325 0.0
H180 H 0.94708 0.42779 0.19276 0.0
H181 H 0.92823 0.41854 0.09561 0.0
O182 O 0.88021 0.41515 0.19149 0.0
C183 C 0.93675 0.34644 0.18403 0.0
O184 O 0.92581 0.33323 0.15795 0.0
N185 N 0.86969 0.39442 0.12975 0.0
C186 C 0.82975 0.38727 0.07824 0.0
C187 C 0.81971 0.40122 0.10621 0.0
C188 C 0.84014 0.40429 0.13213 0.0
C189 C 0.87981 0.38186 0.10239 0.0
C190 C 0.86052 0.37877 0.07613 0.0
H191 H 0.8315 0.41201 0.15457 0.0
H192 H 0.90233 0.37173 0.10183 0.0
H193 H 0.85775 0.35791 0.22724 0.0
H194 H 0.8197 0.2937 0.16133 0.0
H195 H 0.98613 0.46366 0.16259 0.0
H196 H 0.79584 0.40745 0.10877 0.0
H197 H 0.86906 0.36781 0.055 0.0
C198 C 0.87051 0.66171 0.41655 0.0
C199 C 0.89087 0.64642 0.43579 0.0
N200 N 0.88384 0.6158 0.43533 0.0
N201 N 0.84996 0.64158 0.40303 0.0
C202 C 0.85878 0.61348 0.41492 0.0
H203 H 0.87072 0.68639 0.41253 0.0
Co204 Co 0.81793 0.65851 0.37484 0.0
C205 C 0.80193 0.60908 0.32879 0.0
O206 O 0.79843 0.6309 0.30775 0.0
N207 N 0.7847 0.67726 0.34747 0.0
C208 C 0.7363 0.68129 0.32806 0.0
C209 C 0.75593 0.66431 0.34664 0.0
C210 C 0.78097 0.70334 0.32914 0.0
N211 N 0.7517 0.70616 0.31667 0.0
O212 O 0.78869 0.653 0.4079 0.0
H213 H 0.74937 0.64346 0.35908 0.0
H214 H 0.79909 0.72027 0.32486 0.0
O215 O 0.80857 0.61655 0.35754 0.0
C216 C 0.78404 0.67804 0.42296 0.0
O217 O 0.79731 0.70372 0.41285 0.0
N218 N 0.84826 0.66519 0.34432 0.0
C219 C 0.90293 0.67873 0.31227 0.0
C220 C 0.89426 0.64811 0.31945 0.0
C221 C 0.86702 0.64189 0.33542 0.0
C222 C 0.85618 0.69504 0.33767 0.0
C223 C 0.88255 0.70222 0.3204 0.0
H224 H 0.86278 0.61854 0.34325 0.0
H225 H 0.84351 0.71362 0.34795 0.0
H226 H 0.8468 0.59184 0.40912 0.0
H227 H 0.90987 0.65737 0.44892 0.0
H228 H 0.71204 0.67587 0.32395 0.0
H229 H 0.90939 0.62908 0.31523 0.0
H230 H 0.88767 0.72627 0.31537 0.0
C231 C 0.89561 0.87925 0.95572 0.0
C232 C 0.87989 0.85735 0.9373 0.0
N233 N 0.86647 0.87141 0.91251 0.0
N234 N 0.89279 0.90746 0.94284 0.0
C235 C 0.87454 0.90191 0.91664 0.0
H236 H 0.90802 0.87479 0.97749 0.0
Co237 Co 0.90983 0.94557 0.96065 0.0
C238 C 0.9358 0.97841 0.90464 0.0
O239 O 0.95793 0.99271 0.9211 0.0
N240 N 0.92675 0.98462 0.97908 0.0
C241 C 0.93133 0.0353 0.99039 0.0
C242 C 0.91453 1.01258 0.97402 0.0
C243 C 0.95133 0.99157 0.99903 0.0
N244 N 0.95473 0.02226 1.00633 0.0
O245 O 0.86966 0.96155 0.95794 0.0
H246 H 0.89455 0.01645 0.95909 0.0
H247 H 0.96707 0.97478 1.0079 0.0
O248 O 0.91701 0.95987 0.91822 0.0
C249 C 0.85355 0.95932 0.98263 0.0
O250 O 0.86734 0.95277 1.00952 0.0
N251 N 0.94821 0.9278 0.96459 0.0
C252 C 1.00265 0.89762 0.97859 0.0
C253 C 0.99489 0.90534 0.94727 0.0
C254 C 0.96742 0.92028 0.94071 0.0
C255 C 0.95447 0.91903 0.99477 0.0
C256 C 0.98198 0.90486 1.00251 0.0
H257 H 0.96122 0.92453 0.9164 0.0
H258 H 0.93812 0.92381 1.01313 0.0
H259 H 0.86712 0.91995 0.90096 0.0
H260 H 0.87794 0.83289 0.94233 0.0
H261 H 0.92618 0.05964 0.99075 0.0
H262 H 1.00917 0.89874 0.92771 0.0
H263 H 0.98668 0.89933 0.02697 0.0
C264 C 0.9232 0.11901 0.65876 0.0
C265 C 0.90575 0.13643 0.67887 0.0
N266 N 0.88129 0.14762 0.66298 0.0
N267 N 0.91044 0.11816 0.62951 0.0
C268 C 0.8849 0.13629 0.63276 0.0
H269 H 0.94421 0.10754 0.66521 0.0
Co270 Co 0.93056 0.09469 0.59523 0.0
C271 C 0.87922 0.06783 0.55771 0.0
O272 O 0.8931 0.04119 0.55856 0.0
N273 N 0.95166 0.07187 0.55988 0.0
C274 C 0.96444 0.06547 0.50895 0.0
C275 C 0.94719 0.08186 0.53003 0.0
C276 C 0.97248 0.04846 0.55549 0.0
N277 N 0.98087 0.04423 0.52447 0.0
O278 O 0.94017 0.13296 0.57576 0.0
H279 H 0.93218 0.10046 0.52369 0.0
H280 H 0.98207 0.0352 0.5746 0.0
O281 O 0.89146 0.09141 0.57195 0.0
C282 C 0.96783 0.14141 0.58264 0.0
O283 O 0.98561 0.12152 0.5969 0.0
N284 N 0.92308 0.05825 0.61753 0.0
C285 C 0.91935 0.0224 0.67183 0.0
C286 C 0.89246 0.03196 0.65624 0.0
C287 C 0.89481 0.05028 0.62932 0.0
C288 C 0.94927 0.04732 0.63106 0.0
C289 C 0.94794 0.02901 0.65799 0.0
H290 H 0.87418 0.06081 0.62035 0.0
H291 H 0.97152 0.056 0.62344 0.0
H292 H 0.86905 0.14081 0.61344 0.0
H293 H 0.91117 0.14089 0.70357 0.0
H294 H 0.96463 0.06905 0.48368 0.0
H295 H 0.86993 0.02749 0.66623 0.0
H296 H 0.96933 0.02294 0.66965 0.0
C297 C 0.57825 0.09815 0.40407 0.0
C298 C 0.55896 0.08013 0.42242 0.0
N299 N 0.57437 0.07187 0.44869 0.0
N300 N 0.60646 0.10134 0.41791 0.0
C301 C 0.60321 0.08509 0.44549 0.0
H302 H 0.5718 0.10846 0.38187 0.0
Co303 Co 0.63997 0.12521 0.39813 0.0
C304 C 0.69419 0.09045 0.41405 0.0
O305 O 0.69915 0.08811 0.38359 0.0
N306 N 0.67388 0.15018 0.37865 0.0
C307 C 0.71642 0.18115 0.38001 0.0
C308 C 0.69757 0.16156 0.39694 0.0
C309 C 0.67943 0.16388 0.34995 0.0
N310 N 0.70538 0.18285 0.35029 0.0
O311 O 0.64115 0.09424 0.36542 0.0
H312 H 0.70049 0.1569 0.42184 0.0
H313 H 0.66411 0.16114 0.32964 0.0
O314 O 0.67015 0.10389 0.42359 0.0
C315 C 0.62414 0.09949 0.34134 0.0
O316 O 0.61087 0.1264 0.33951 0.0
N317 N 0.63647 0.15591 0.42836 0.0
C318 C 0.62903 0.20803 0.46564 0.0
C319 C 0.63916 0.18061 0.47931 0.0
C320 C 0.64306 0.15456 0.45998 0.0
C321 C 0.62562 0.18205 0.41514 0.0
C322 C 0.62214 0.20852 0.43325 0.0
H323 H 0.65113 0.13348 0.47038 0.0
H324 H 0.61997 0.18231 0.39016 0.0
H325 H 0.62165 0.08274 0.46276 0.0
H326 H 0.53509 0.07384 0.41699 0.0
H327 H 0.73655 0.19389 0.38915 0.0
H328 H 0.64399 0.17944 0.50445 0.0
H329 H 0.61338 0.22908 0.42216 0.0
C330 C 0.64655 0.89917 0.13019 0.0
C331 C 0.66648 0.88232 0.1485 0.0
N332 N 0.65067 0.86751 0.1713 0.0
N333 N 0.61727 0.89541 0.14017 0.0
C334 C 0.62093 0.87702 0.16649 0.0
H335 H 0.65325 0.91285 0.11006 0.0
Co336 Co 0.58174 0.91336 0.11601 0.0
C337 C 0.56331 0.84539 0.12302 0.0
O338 O 0.59181 0.83665 0.12713 0.0
N339 N 0.54655 0.9313 0.0912 0.0
C340 C 0.51086 0.92864 0.05209 0.0
C341 C 0.53111 0.91247 0.0704 0.0
C342 C 0.53471 0.95989 0.08408 0.0
N343 N 0.51283 0.95882 0.05998 0.0
O344 O 0.56614 0.92833 0.15533 0.0
H345 H 0.53595 0.88844 0.06671 0.0
H346 H 0.5433 0.98125 0.09493 0.0
O347 O 0.55748 0.8739 0.11845 0.0
C348 C 0.58211 0.95353 0.15833 0.0
O349 O 0.59852 0.96259 0.1341 0.0
N350 N 0.5998 0.9031 0.07747 0.0
C351 C 0.63985 0.90313 0.02653 0.0
C352 C 0.62786 0.87511 0.03856 0.0
C353 C 0.60754 0.87558 0.06409 0.0
C354 C 0.60937 0.93028 0.06437 0.0
C355 C 0.62918 0.93087 0.03904 0.0
H356 H 0.59956 0.85394 0.07362 0.0
H357 H 0.60321 0.95195 0.07507 0.0
H358 H 0.60172 0.86895 0.18053 0.0
H359 H 0.69105 0.88087 0.14483 0.0
H360 H 0.49639 0.91875 0.03329 0.0
H361 H 0.63518 0.85311 0.02934 0.0
H362 H 0.638 0.95314 0.03122 0.0
C363 C 0.42244 0.61608 0.16148 0.0
C364 C 0.40599 0.6342 0.18179 0.0
N365 N 0.3824 0.64732 0.16605 0.0
N366 N 0.40983 0.61643 0.13221 0.0
C367 C 0.3853 0.63586 0.13574 0.0
H368 H 0.44273 0.60339 0.16783 0.0
Co369 Co 0.42936 0.59373 0.09707 0.0
C370 C 0.37758 0.56586 0.06059 0.0
O371 O 0.39257 0.53994 0.05841 0.0
N372 N 0.44984 0.57165 0.06078 0.0
C373 C 0.46153 0.5654 1.00953 0.0
C374 C 0.44454 0.58157 0.03104 0.0
C375 C 0.47081 0.54849 0.05588 0.0
N376 N 0.47852 0.54434 0.02466 0.0
O377 O 0.43579 0.63244 0.0771 0.0
H378 H 0.4291 0.59993 0.02506 0.0
H379 H 0.48099 0.53536 0.07477 0.0
O380 O 0.38958 0.58889 0.0759 0.0
C381 C 0.46338 0.64319 0.07712 0.0
O382 O 0.48591 0.62504 0.0853 0.0
N383 N 0.42431 0.55696 0.11953 0.0
C384 C 0.42277 0.52033 0.17339 0.0
C385 C 0.3953 0.52875 0.15815 0.0
C386 C 0.39654 0.54747 0.13147 0.0
C387 C 0.45116 0.547 0.13257 0.0
C388 C 0.45093 0.52836 0.15934 0.0
H389 H 0.37529 0.55706 0.12291 0.0
H390 H 0.47294 0.55661 0.12462 0.0
H391 H 0.37025 0.642 0.11628 0.0
H392 H 0.41134 0.63712 0.20668 0.0
H393 H 0.46122 0.569 0.98425 0.0
H394 H 0.37307 0.5231 0.16827 0.0
H395 H 0.47269 0.52307 0.1707 0.0
C396 C 0.08095 0.62326 0.92754 0.0
C397 C 0.06242 0.60836 0.94899 0.0
N398 N 0.07648 0.58295 0.95955 0.0
N399 N 0.10747 0.6081 0.9239 0.0
C400 C 0.10388 0.58316 0.94363 0.0
H401 H 0.07502 0.64387 0.9148 0.0
Co402 Co 0.138 0.62341 0.89332 0.0
C403 C 0.1979 0.62269 0.92501 0.0
O404 O 0.20332 0.65028 0.9133 0.0
N405 N 0.16858 0.63896 0.86149 0.0
C406 C 0.20684 0.63553 0.82649 0.0
C407 C 0.18639 0.61937 0.84526 0.0
C408 C 0.17935 0.66755 0.85139 0.0
N409 N 0.20285 0.66612 0.83021 0.0
O410 O 0.13478 0.58428 0.87176 0.0
H411 H 0.18544 0.59449 0.84744 0.0
H412 H 0.17142 0.6893 0.86034 0.0
O413 O 0.17178 0.60888 0.91996 0.0
C414 C 0.10888 0.58041 0.85736 0.0
O415 O 0.08881 0.6026 0.8587 0.0
N416 N 0.13804 0.66179 0.91321 0.0
C417 C 0.12301 0.71862 0.9389 0.0
C418 C 0.13732 0.69644 0.95772 0.0
C419 C 0.14436 0.66779 0.94443 0.0
C420 C 0.12387 0.68296 0.8949 0.0
C421 C 0.11722 0.71188 0.90687 0.0
H422 H 0.15308 0.64994 0.95958 0.0
H423 H 0.117 0.67695 0.87089 0.0
H424 H 0.12098 0.56556 0.94629 0.0
H425 H 0.03968 0.6155 0.9557 0.0
H426 H 0.22356 0.62518 0.81124 0.0
H427 H 0.14131 0.70044 0.98277 0.0
H428 H 0.10633 0.72832 0.89142 0.0
C429 C 0.13595 0.4128 0.65511 0.0
C430 C 0.15567 0.39598 0.67383 0.0
N431 N 0.14352 0.36728 0.6782 0.0
N432 N 0.11068 0.39554 0.64692 0.0
C433 C 0.11619 0.3676 0.66127 0.0
H434 H 0.13958 0.43667 0.64836 0.0
Co435 Co 0.07611 0.4144 0.62333 0.0
C436 C 0.04184 0.35631 0.63738 0.0
O437 O 0.03959 0.36417 0.66729 0.0
N438 N 0.0405 0.4333 0.60014 0.0
C439 C 0.9902 0.43914 0.589 0.0
C440 C 1.01153 0.42298 0.60608 0.0
C441 C 0.0354 0.45682 0.57884 0.0
N442 N 1.00465 0.461 0.57166 0.0
O443 O 0.05742 0.42308 0.66272 0.0
H444 H 1.00577 0.40489 0.62255 0.0
H445 H 0.05376 0.47116 0.5693 0.0
O446 O 0.05593 0.37426 0.61838 0.0
C447 C 0.06404 0.45148 0.66848 0.0
O448 O 0.07702 0.46792 0.64607 0.0
N449 N 0.09698 0.40946 0.58589 0.0
C450 C 0.1416 0.41149 0.5392 0.0
C451 C 0.12778 0.3831 0.54814 0.0
C452 C 0.10545 0.38254 0.57182 0.0
C453 C 0.10939 0.4371 0.57678 0.0
C454 C 0.13139 0.43871 0.55335 0.0
H455 H 0.09656 0.36052 0.58008 0.0
H456 H 0.10369 0.45795 0.5894 0.0
H457 H 0.10015 0.34805 0.66022 0.0
H458 H 0.17754 0.40455 0.68358 0.0
H459 H 0.96555 0.43467 0.58952 0.0
H460 H 0.13515 0.36149 0.53802 0.0
H461 H 0.14197 0.46105 0.54822 0.0
C462 C 0.61987 0.65325 0.70848 0.0
C463 C 0.59884 0.63337 0.69361 0.0
N464 N 0.60452 0.63246 0.66232 0.0
N465 N 0.6393 0.66545 0.6872 0.0
C466 C 0.62929 0.65246 0.65909 0.0
H467 H 0.62073 0.65886 0.73343 0.0
Co468 Co 0.67076 0.69529 0.70047 0.0
C469 C 0.71525 0.69551 0.648 0.0
O470 O 0.7381 0.69647 0.66883 0.0
N471 N 0.70183 0.72661 0.71473 0.0
C472 C 0.72977 0.77095 0.7133 0.0
C473 C 0.70985 0.75116 0.69678 0.0
C474 C 0.71681 0.73309 0.74294 0.0
N475 N 0.73432 0.75981 0.74255 0.0
O476 O 0.64384 0.72738 0.68939 0.0
H477 H 0.70106 0.755 0.67313 0.0
H478 H 0.71462 0.71905 0.76376 0.0
O479 O 0.68738 0.69514 0.65755 0.0
C480 C 0.63195 0.74085 0.71293 0.0
O481 O 0.64043 0.73294 0.74162 0.0
N482 N 0.69544 0.66287 0.71351 0.0
C483 C 0.72064 0.61022 0.73986 0.0
C484 C 0.71895 0.61368 0.70699 0.0
C485 C 0.70556 0.63987 0.69425 0.0
C486 C 0.69666 0.65966 0.74546 0.0
C487 C 0.70977 0.63387 0.75919 0.0
H488 H 0.70144 0.64039 0.66906 0.0
H489 H 0.68539 0.67614 0.76036 0.0
H490 H 0.63996 0.65756 0.63675 0.0
H491 H 0.58021 0.62113 0.70527 0.0
H492 H 0.73928 0.79263 0.70467 0.0
H493 H 0.72565 0.59523 0.69127 0.0
H494 H 0.70974 0.63163 0.78466 0.0
C495 C 0.39469 0.37463 0.45899 0.0
C496 C 0.37794 0.35293 0.44131 0.0
N497 N 0.36651 0.36645 0.41515 0.0
N498 N 0.39451 0.40215 0.44436 0.0
C499 C 0.37675 0.39651 0.41783 0.0
H500 H 0.4058 0.37061 0.48156 0.0
Co501 Co 0.41313 0.43965 0.4616 0.0
C502 C 0.4388 0.47219 0.40543 0.0
O503 O 0.46178 0.48505 0.42187 0.0
N504 N 0.43144 0.47807 0.47973 0.0
C505 C 0.43679 0.5287 0.49083 0.0
C506 C 0.42004 0.50629 0.47406 0.0
C507 C 0.45561 0.4845 0.50035 0.0
N508 N 0.45932 0.5152 0.50761 0.0
O509 O 0.3733 0.45664 0.46072 0.0
H510 H 0.40067 0.51051 0.45843 0.0
H511 H 0.47007 0.46717 0.5105 0.0
O512 O 0.41937 0.45418 0.4189 0.0
C513 C 0.35871 0.45532 0.48647 0.0
O514 O 0.37384 0.44854 0.51254 0.0
N515 N 0.45115 0.42069 0.46393 0.0
C516 C 0.50201 0.38404 0.47482 0.0
C517 C 0.49504 0.3946 0.4443 0.0
C518 C 0.46911 0.41246 0.43922 0.0
C519 C 0.45749 0.41051 0.49362 0.0
C520 C 0.48302 0.39252 0.49972 0.0
H521 H 0.4629 0.41818 0.41527 0.0
H522 H 0.442 0.41582 0.51259 0.0
H523 H 0.37109 0.41423 0.40104 0.0
H524 H 0.37385 0.32907 0.4479 0.0
H525 H 0.43273 0.55327 0.49032 0.0
H526 H 0.5089 0.38825 0.42432 0.0
H527 H 0.48692 0.3841 0.52343 0.0
C528 C 0.28579 0.28321 0.26269 0.0
C529 C 0.25602 0.27038 0.2678 0.0
C530 C 0.30276 0.29955 0.28659 0.0
C531 C 0.29015 0.30347 0.31703 0.0
C532 C 0.26024 0.29037 0.3226 0.0
C533 C 0.24366 0.27402 0.29812 0.0
C534 C 0.33451 0.31254 0.2792 0.0
C535 C 0.24566 0.29373 0.35451 0.0
C536 C 0.34806 0.31889 0.38577 0.0
C537 C 0.34731 0.3512 0.39043 0.0
C538 C 0.32934 0.30328 0.36269 0.0
C539 C 0.30897 0.32002 0.34312 0.0
C540 C 0.30801 0.35266 0.34758 0.0
C541 C 0.32709 0.36777 0.37095 0.0
C542 C 0.33173 0.26868 0.35899 0.0
C543 C 0.28684 0.37171 0.32749 0.0
H544 H 0.29617 0.28026 0.23982 0.0
H545 H 0.22076 0.26458 0.3026 0.0
H546 H 0.3356 0.33784 0.28386 0.0
H547 H 0.352 0.30195 0.29483 0.0
H548 H 0.34087 0.30831 0.25425 0.0
H549 H 0.22214 0.2829 0.35512 0.0
H550 H 0.26028 0.28287 0.37283 0.0
H551 H 0.2442 0.31859 0.36086 0.0
H552 H 0.36376 0.30556 0.39995 0.0
H553 H 0.32584 0.39256 0.3742 0.0
H554 H 0.34005 0.26301 0.33504 0.0
H555 H 0.30864 0.2573 0.36138 0.0
H556 H 0.34771 0.25871 0.37672 0.0
H557 H 0.29334 0.36976 0.30231 0.0
H558 H 0.28772 0.39654 0.33449 0.0
H559 H 0.26271 0.36274 0.32931 0.0
C560 C 1.00757 0.99266 0.51928 0.0
C561 C 1.00278 0.02319 0.50912 0.0
C562 C 0.02603 0.9716 0.50177 0.0
C563 C 0.04073 0.98077 0.47315 0.0
C564 C 0.03682 1.0119 0.46363 0.0
C565 C 0.01827 0.03227 0.48135 0.0
C566 C 0.02903 0.93902 0.51348 0.0
C567 C 0.05159 0.02366 0.43385 0.0
C568 C 0.10552 0.93223 0.43318 0.0
C569 C 0.08914 0.91509 0.40948 0.0
C570 C 0.09038 0.95311 0.45413 0.0
C571 C 0.05781 0.95763 0.45177 0.0
C572 C 0.0415 0.94074 0.42752 0.0
C573 C 0.05705 0.92018 0.40712 0.0
C574 C 0.10932 0.97022 0.47916 0.0
C575 C 1.00719 0.94435 0.42296 0.0
H576 H 0.99597 0.98478 0.54034 0.0
H577 H 1.01567 0.05567 0.47304 0.0
H578 H 0.01732 0.92266 0.49655 0.0
H579 H 0.05371 0.93289 0.51479 0.0
H580 H 0.01871 0.9358 0.53712 0.0
H581 H 0.04843 0.04884 0.43054 0.0
H582 H 0.07667 0.01917 0.43434 0.0
H583 H 0.04137 1.0111 0.41307 0.0
H584 H 0.13007 0.9288 0.43592 0.0
H585 H 0.04369 0.90794 0.38891 0.0
H586 H 0.10033 0.96453 0.50288 0.0
H587 H 0.10725 0.99553 0.47607 0.0
H588 H 0.13411 0.96443 0.47845 0.0
H589 H 0.99508 0.93865 0.44515 0.0
H590 H 0.99742 0.92928 0.40367 0.0
H591 H 1.00226 0.96875 0.41733 0.0
C592 C 0.20941 0.72061 0.80948 0.0
C593 C 0.22118 0.69103 0.8151 0.0
C594 C 0.22655 0.74377 0.79278 0.0
C595 C 0.25659 0.7378 0.78125 0.0
C596 C 0.26884 0.70834 0.78777 0.0
C597 C 0.25128 0.68571 0.80433 0.0
C598 C 0.21208 0.77449 0.7867 0.0
C599 C 0.30055 0.70033 0.77654 0.0
C600 C 0.2898 0.77872 0.70768 0.0
C601 C 0.31221 0.79998 0.72017 0.0
C602 C 0.27112 0.75957 0.72709 0.0
C603 C 0.2744 0.76101 0.76052 0.0
C604 C 0.2962 0.78322 0.77348 0.0
C605 C 0.31461 0.80238 0.75335 0.0
C606 C 0.24839 0.73691 0.71156 0.0
C607 C 0.30089 0.78603 0.80874 0.0
H608 H 0.18637 0.72545 0.81735 0.0
H609 H 0.26139 0.66354 0.80881 0.0
H610 H 0.22806 0.79368 0.79443 0.0
H611 H 0.20783 0.77717 0.76096 0.0
H612 H 0.18985 0.77677 0.79909 0.0
H613 H 0.30773 0.67728 0.78486 0.0
H614 H 0.30081 0.70034 0.75033 0.0
H615 H 0.31785 0.71802 0.78498 0.0
H616 H 0.28706 0.77669 0.68226 0.0
H617 H 0.33175 0.81835 0.7636 0.0
H618 H 0.22506 0.73975 0.72141 0.0
H619 H 0.25532 0.71292 0.71659 0.0
H620 H 0.24696 0.73981 0.68553 0.0
H621 H 0.27839 0.78866 0.82047 0.0
H622 H 0.31639 0.80599 0.81547 0.0
H623 H 0.31112 0.76456 0.81787 0.0
C624 C 0.38672 0.06235 0.96372 0.0
C625 C 0.40016 0.08862 0.94925 0.0
C626 C 0.40452 0.04198 0.98289 0.0
C627 C 0.43694 0.04737 0.98805 0.0
C628 C 0.45052 0.07356 0.97305 0.0
C629 C 0.43233 0.09342 0.9542 0.0
C630 C 0.38849 1.01462 0.9979 0.0
C631 C 0.48468 0.08069 0.97678 0.0
C632 C 0.4828 1.0085 0.0574 0.0
C633 C 0.49626 0.98301 0.04249 0.0
C634 C 0.46344 0.02926 0.04038 0.0
C635 C 0.45706 0.025 1.00732 0.0
C636 C 0.47124 0.99971 0.99223 0.0
C637 C 0.49027 0.97946 1.00967 0.0
C638 C 0.44933 0.05564 0.05799 0.0
C639 C 0.46619 0.99376 0.95732 0.0
H640 H 0.36212 0.05802 0.96064 0.0
H641 H 0.44369 0.11294 0.94301 0.0
H642 H 0.39871 0.99287 0.98943 0.0
H643 H 0.39202 1.01569 0.02392 0.0
H644 H 0.36331 1.01363 0.99252 0.0
H645 H 0.49189 0.10223 0.96448 0.0
H646 H 0.49101 0.08316 1.00219 0.0
H647 H 0.49795 0.06126 0.96716 0.0
H648 H 0.4866 1.01172 0.08258 0.0
H649 H 0.50053 0.96037 0.99732 0.0
H650 H 0.42378 0.05364 0.05602 0.0
H651 H 0.45646 0.07796 0.04721 0.0
H652 H 0.45616 0.05617 0.08339 0.0
H653 H 0.44117 0.99031 0.95201 0.0
H654 H 0.47844 0.97312 0.94887 0.0
H655 H 0.47434 1.01414 0.94373 0.0
C656 C 0.36682 0.68365 0.20981 0.0
C657 C 0.36034 0.66911 0.18018 0.0
C658 C 0.34598 0.70368 0.22493 0.0
C659 C 0.31715 0.71061 0.21057 0.0
C660 C 0.31038 0.69642 0.1805 0.0
C661 C 0.33171 0.6761 0.16585 0.0
C662 C 0.35517 0.71781 0.25656 0.0
C663 C 0.28041 0.70284 0.1636 0.0
C664 C 0.25373 0.74746 0.26362 0.0
C665 C 0.25722 0.77947 0.25774 0.0
C666 C 0.27237 0.72499 0.24833 0.0
C667 C 0.2955 0.73407 0.22624 0.0
C668 C 0.29917 0.76629 0.22053 0.0
C669 C 0.28052 0.78811 0.23614 0.0
C670 C 0.26727 0.69128 0.25587 0.0
C671 C 0.3232 0.778 0.1978 0.0
H672 H 0.38868 0.67979 0.22152 0.0
H673 H 0.32574 0.6655 0.14322 0.0
H674 H 0.3573 0.74333 0.25451 0.0
H675 H 0.33704 0.71271 0.27414 0.0
H676 H 0.37744 0.70911 0.2657 0.0
H677 H 0.27779 0.68977 0.14096 0.0
H678 H 0.2607 0.69664 0.17893 0.0
H679 H 0.27915 0.72793 0.15863 0.0
H680 H 0.23611 0.73982 0.27987 0.0
H681 H 0.28461 0.81239 0.23139 0.0
H682 H 0.28876 0.68183 0.26604 0.0
H683 H 0.26171 0.678 0.23386 0.0
H684 H 0.24829 0.68746 0.27285 0.0
H685 H 0.34656 0.77216 0.20658 0.0
H686 H 0.32252 0.80344 0.19455 0.0
H687 H 0.31972 0.76651 0.17443 0.0
C688 C 0.50311 0.96589 0.59016 0.0
C689 C 0.47057 0.96475 0.5889 0.0
C690 C 0.521 0.98219 0.56754 0.0
C691 C 0.50643 0.99905 0.54306 0.0
C692 C 0.47349 0.99794 0.54163 0.0
C693 C 0.45611 0.98061 0.5641 0.0
C694 C 0.55573 0.9814 0.57001 0.0
C695 C 0.45647 0.01586 0.51678 0.0
C696 C 0.55362 0.06566 0.50324 0.0
C697 C 0.56113 0.0528 0.47381 0.0
C698 C 0.53593 0.04871 0.5257 0.0
C699 C 0.52561 0.01766 0.51919 0.0
C700 C 0.53393 1.00443 0.48973 0.0
C701 C 0.5509 0.02217 0.46744 0.0
C702 C 0.52741 0.06448 0.55612 0.0
C703 C 0.5246 0.97145 0.48149 0.0
H704 H 0.51469 0.95384 0.60908 0.0
H705 H 0.43112 0.98046 0.56302 0.0
H706 H 0.56528 0.97337 0.54728 0.0
H707 H 0.56541 1.00503 0.57469 0.0
H708 H 0.5637 0.96594 0.58912 0.0
H709 H 0.43101 1.0132 0.51883 0.0
H710 H 0.46304 0.04079 0.51886 0.0
H711 H 0.46311 1.00802 0.49288 0.0
H712 H 0.56053 0.08951 0.50815 0.0
H713 H 0.55597 1.01215 0.44462 0.0
H714 H 0.53621 0.05134 0.5766 0.0
H715 H 0.5019 0.06484 0.55797 0.0
H716 H 0.5368 0.08861 0.55779 0.0
H717 H 0.53243 0.95574 0.50041 0.0
H718 H 0.53436 0.96378 0.4587 0.0
H719 H 0.49908 0.96905 0.47983 0.0
C720 C 0.20272 0.23827 0.80442 0.0
C721 C 0.23263 0.22727 0.79885 0.0
C722 C 0.18826 0.26022 0.78457 0.0
C723 C 0.20339 0.27211 0.7575 0.0
C724 C 0.2337 0.26132 0.75173 0.0
C725 C 0.24789 0.23947 0.77231 0.0
C726 C 0.1565 0.27087 0.79285 0.0
C727 C 0.25116 0.27267 0.7234 0.0
C728 C 0.15259 0.31112 0.69211 0.0
C729 C 0.15736 0.34307 0.69815 0.0
C730 C 0.16761 0.28808 0.71052 0.0
C731 C 0.1879 0.29652 0.73634 0.0
C732 C 0.19231 0.32871 0.74272 0.0
C733 C 0.17739 0.35115 0.72382 0.0
C734 C 0.16191 0.25446 0.70212 0.0
C735 C 0.21277 0.33967 0.76998 0.0
H736 H 0.19043 0.22987 0.82483 0.0
H737 H 0.27072 0.23141 0.76715 0.0
H738 H 0.15708 0.29631 0.79659 0.0
H739 H 0.14009 0.26569 0.77301 0.0
H740 H 0.14754 0.25966 0.81449 0.0
H741 H 0.274 0.26185 0.72137 0.0
H742 H 0.23743 0.26757 0.70153 0.0
H743 H 0.25473 0.29814 0.72495 0.0
H744 H 0.13757 0.30405 0.67251 0.0
H745 H 0.18125 0.37539 0.7296 0.0
H746 H 0.15133 0.2422 0.72233 0.0
H747 H 0.18418 0.24337 0.69736 0.0
H748 H 0.14648 0.25129 0.68106 0.0
H749 H 0.20383 0.33019 0.79243 0.0
H750 H 0.21422 0.3653 0.77202 0.0
H751 H 0.23641 0.33097 0.76709 0.0
C752 C 0.09249 0.11037 0.11046 0.0
C753 C 0.08011 0.12199 0.13863 0.0
C754 C 0.07389 0.09346 0.08789 0.0
C755 C 0.04185 0.08784 0.09316 0.0
C756 C 0.02927 0.09972 0.12137 0.0
C757 C 0.04827 0.11648 0.1434 0.0
C758 C 0.08861 0.08148 0.05833 0.0
C759 C 0.99543 0.09487 0.12833 0.0
C760 C 0.98388 0.07025 0.02462 0.0
C761 C 0.9779 0.03811 0.02696 0.0
C762 C 1.00501 0.08633 0.04521 0.0
C763 C 0.02114 0.07028 0.06918 0.0
C764 C 1.01584 0.03775 0.07127 0.0
C765 C 0.9945 0.02219 0.05034 0.0
C766 C 1.0096 0.12084 0.04163 0.0
C767 C 0.03223 0.01937 0.09623 0.0
H768 H 0.11686 0.1141 0.10617 0.0
H769 H 0.03779 0.12565 0.16439 0.0
H770 H 0.08567 0.05593 0.05697 0.0
H771 H 0.07694 0.091 0.03717 0.0
H772 H 0.11363 0.08766 0.05745 0.0
H773 H 0.98911 0.10501 0.15147 0.0
H774 H 0.98121 0.10551 0.10953 0.0
H775 H 0.98937 0.06978 0.1284 0.0
H776 H 0.97199 0.08311 1.00656 0.0
H777 H 0.99033 0.99756 0.05291 0.0
H778 H 0.03447 0.1268 0.03889 0.0
H779 H 1.00185 0.13284 0.06325 0.0
H780 H 0.99663 0.12987 0.02099 0.0
H781 H 0.05753 0.02372 0.09503 0.0
H782 H 0.02734 0.99411 0.09369 0.0
H783 H 0.0249 0.02695 0.12001 0.0
C784 C 0.8424 0.19067 0.66064 0.0
C785 C 0.85745 0.16712 0.67728 0.0
C786 C 0.82138 0.21097 0.67575 0.0
C787 C 0.81438 0.20799 0.70852 0.0
C788 C 0.82914 0.18388 0.72511 0.0
C789 C 0.85015 0.16424 0.70963 0.0
C790 C 0.80682 0.23603 0.65656 0.0
C791 C 0.82261 0.17858 0.75958 0.0
C792 C 0.77763 0.27485 0.75787 0.0
C793 C 0.74587 0.26668 0.75749 0.0
C794 C 0.79987 0.25653 0.74195 0.0
C795 C 0.79081 0.22877 0.72519 0.0
C796 C 0.75887 0.22024 0.72544 0.0
C797 C 0.73725 0.239 0.74115 0.0
C798 C 0.83326 0.2672 0.74269 0.0
C799 C 0.74731 0.19098 0.70896 0.0
H800 H 0.84762 0.19378 0.63592 0.0
H801 H 0.86086 0.14618 0.72313 0.0
H802 H 0.78133 0.23278 0.65634 0.0
H803 H 0.81228 0.25895 0.66759 0.0
H804 H 0.81488 0.23622 0.63178 0.0
H805 H 0.83583 0.15916 0.76948 0.0
H806 H 0.82851 0.19984 0.77349 0.0
H807 H 0.79762 0.17346 0.76267 0.0
H808 H 0.78506 0.29606 0.76985 0.0
H809 H 0.71314 0.23174 0.74066 0.0
H810 H 0.84146 0.27045 0.71821 0.0
H811 H 0.84764 0.24926 0.75369 0.0
H812 H 0.83696 0.28925 0.75606 0.0
H813 H 0.75295 0.19189 0.68351 0.0
H814 H 0.72198 0.18723 0.71116 0.0
H815 H 0.75906 0.17074 0.71903 0.0
C816 C 0.04291 0.57222 1.00596 0.0
C817 C 0.06314 0.56138 0.98276 0.0
C818 C 0.02714 0.55214 0.02697 0.0
C819 C 0.03117 0.51969 0.02542 0.0
C820 C 0.05199 0.50846 1.00244 0.0
C821 C 0.06769 0.52925 0.98163 0.0
C822 C 1.00591 0.56588 0.05094 0.0
C823 C 0.05736 0.47429 0.99952 0.0
C824 C 1.01078 0.47418 0.10117 0.0
C825 C 0.98041 0.46254 0.09523 0.0
C826 C 0.02758 0.49167 0.07862 0.0
C827 C 1.0143 0.49814 0.04859 0.0
C828 C 0.98402 0.48573 0.04195 0.0
C829 C 0.96761 0.46823 0.06506 0.0
C830 C 0.05954 0.50395 0.0874 0.0
C831 C 0.96852 0.49164 1.01053 0.0
H832 H 0.03931 0.59684 1.0078 0.0
H833 H 0.08286 0.52022 0.9639 0.0
H834 H 0.98222 0.55588 0.04762 0.0
H835 H 1.01378 0.56 0.07516 0.0
H836 H 1.00492 0.59145 0.04917 0.0
H837 H 0.0742 0.46895 0.98087 0.0
H838 H 0.06602 0.46528 0.02236 0.0
H839 H 0.03522 0.46179 0.9939 0.0
H840 H 0.02171 0.46971 0.12376 0.0
H841 H 0.94437 0.45972 0.05971 0.0
H842 H 0.05976 0.52961 0.08795 0.0
H843 H 0.07629 0.49688 0.06934 0.0
H844 H 0.06752 0.49566 0.11083 0.0
H845 H 0.96441 0.51673 1.00815 0.0
H846 H 0.94608 0.47878 1.00779 0.0
H847 H 0.98378 0.48489 0.99099 0.0
C848 C 0.71258 0.72253 0.27585 0.0
C849 C 0.73817 0.72994 0.29596 0.0
C850 C 0.69785 0.7449 0.25672 0.0
C851 C 0.70824 0.7764 0.25717 0.0
C852 C 0.73415 0.78415 0.27733 0.0
C853 C 0.74875 0.76111 0.29609 0.0
C854 C 0.67108 0.73457 0.23559 0.0
C855 C 0.74641 0.81706 0.27926 0.0
C856 C 0.68971 0.82719 0.18404 0.0
C857 C 0.66384 0.84435 0.19297 0.0
C858 C 0.70409 0.80568 0.20441 0.0
C859 C 0.69303 0.80046 0.2354 0.0
C860 C 0.66677 0.81749 0.24466 0.0
C861 C 0.6525 0.83881 0.22353 0.0
C862 C 0.73127 0.7882 0.19243 0.0
C863 C 0.6538 0.81336 0.27721 0.0
H864 H 0.70405 0.69878 0.27467 0.0
H865 H 0.76813 0.76772 0.31139 0.0
H866 H 0.65038 0.74795 0.24126 0.0
H867 H 0.67666 0.73922 0.21056 0.0
H868 H 0.66524 0.70953 0.238 0.0
H869 H 0.7658 0.81998 0.2966 0.0
H870 H 0.75453 0.82453 0.25573 0.0
H871 H 0.72766 0.83264 0.28608 0.0
H872 H 0.69874 0.83025 0.16055 0.0
H873 H 0.63281 0.85161 0.23125 0.0
H874 H 0.72593 0.76296 0.19281 0.0
H875 H 0.75167 0.7926 0.20815 0.0
H876 H 0.73748 0.79478 0.16799 0.0
H877 H 0.64598 0.78895 0.28036 0.0
H878 H 0.63405 0.82859 0.28153 0.0
H879 H 0.67208 0.81846 0.29531 0.0
C880 C 0.90219 0.56112 0.4443 0.0
C881 C 0.90046 0.59236 0.45389 0.0
C882 C 0.92008 0.53937 0.46165 0.0
C883 C 0.93694 0.54848 0.48969 0.0
C884 C 0.93492 0.57987 0.49948 0.0
C885 C 0.91701 0.60096 0.48186 0.0
C886 C 0.92097 0.50644 0.44986 0.0
C887 C 0.95164 0.59136 0.52905 0.0
C888 C 0.95697 0.48932 0.55508 0.0
C889 C 0.98873 0.48353 0.55119 0.0
C890 C 0.94019 0.50935 0.5351 0.0
C891 C 0.95492 0.52524 0.51003 0.0
C892 C 0.98708 0.52003 0.50604 0.0
C893 C 1.00342 0.49948 0.52637 0.0
C894 C 0.90635 0.51371 0.54119 0.0
C895 C 1.00435 0.53631 0.48014 0.0
H896 H 0.88999 0.55371 0.4229 0.0
H897 H 0.91581 0.62452 0.49046 0.0
H898 H 0.94523 0.49995 0.44605 0.0
H899 H 0.91137 0.49061 0.46794 0.0
H900 H 0.90765 0.50284 0.42743 0.0
H901 H 0.94904 0.61657 0.53305 0.0
H902 H 0.94263 0.57885 0.54988 0.0
H903 H 0.9766 0.58657 0.52758 0.0
H904 H 0.94478 0.47838 0.57425 0.0
H905 H 0.02767 0.49568 0.52253 0.0
H906 H 0.89253 0.50843 0.51941 0.0
H907 H 0.90242 0.53819 0.54764 0.0
H908 H 0.89762 0.49875 0.56047 0.0
H909 H 0.99311 0.53088 0.45694 0.0
H910 H 0.02889 0.52964 0.47929 0.0
H911 H 1.00351 0.56172 0.48372 0.0
C912 C 0.61486 0.44396 0.94387 0.0
C913 C 0.60571 0.4273 0.9161 0.0
C914 C 0.59399 0.46108 0.96241 0.0
C915 C 0.56211 0.46192 0.95413 0.0
C916 C 0.55228 0.44425 0.92684 0.0
C917 C 0.57387 0.42741 0.90835 0.0
C918 C 0.60651 0.47914 0.9907 0.0
C919 C 0.5188 0.44361 0.9167 0.0
C920 C 0.50515 0.49288 0.01808 0.0
C921 C 0.50052 0.52374 1.00885 0.0
C922 C 0.52428 0.47252 1.00048 0.0
C923 C 0.54002 0.4828 0.97283 0.0
C924 C 0.53576 0.51407 0.96394 0.0
C925 C 0.51634 0.53366 0.98159 0.0
C926 C 0.52734 0.43964 1.01131 0.0
C927 C 0.55202 0.52715 0.93556 0.0
H928 H 0.63882 0.44392 0.95137 0.0
H929 H 0.56584 0.41497 0.88734 0.0
H930 H 0.60298 0.5042 0.98715 0.0
H931 H 0.59381 0.47232 1.0122 0.0
H932 H 0.63151 0.47557 0.99495 0.0
H933 H 0.51393 0.42697 0.89698 0.0
H934 H 0.504 0.43728 0.93694 0.0
H935 H 0.51222 0.467 0.90898 0.0
H936 H 0.49313 0.48433 0.03861 0.0
H937 H 0.51368 0.55728 0.97394 0.0
H938 H 0.55187 0.43507 0.01694 0.0
H939 H 0.51993 0.42345 0.99199 0.0
H940 H 0.51334 0.43458 0.0325 0.0
H941 H 0.57737 0.5256 0.93893 0.0
H942 H 0.54643 0.5517 0.9313 0.0
H943 H 0.54548 0.51336 0.91415 0.0
C944 C 0.77944 0.79313 0.76006 0.0
C945 C 0.75322 0.77483 0.76761 0.0
C946 C 0.79739 0.80924 0.78344 0.0
C947 C 0.78911 0.80769 0.81571 0.0
C948 C 0.76267 0.78923 0.8236 0.0
C949 C 0.74529 0.77292 0.79966 0.0
C950 C 0.82551 0.82788 0.77351 0.0
C951 C 0.75252 0.78693 0.85742 0.0
C952 C 0.85231 0.82515 0.8791 0.0
C953 C 0.84745 0.85618 0.88768 0.0
C954 C 0.83363 0.80934 0.85609 0.0
C955 C 0.80881 0.82445 0.84104 0.0
C956 C 0.80373 0.85582 0.84954 0.0
C957 C 0.82316 0.8713 0.87238 0.0
C958 C 0.84074 0.77632 0.84768 0.0
C959 C 0.77748 0.87302 0.83472 0.0
H960 H 0.78622 0.79464 0.73559 0.0
H961 H 0.72503 0.75927 0.80599 0.0
H962 H 0.82333 0.85242 0.78078 0.0
H963 H 0.84641 0.81913 0.78556 0.0
H964 H 0.82897 0.82689 0.74758 0.0
H965 H 0.7311 0.77249 0.85981 0.0
H966 H 0.77104 0.7768 0.8721 0.0
H967 H 0.74843 0.81038 0.86707 0.0
H968 H 0.87116 0.81316 0.89017 0.0
H969 H 0.81889 0.89508 0.87875 0.0
H970 H 0.84584 0.77448 0.82214 0.0
H971 H 0.82035 0.761 0.8521 0.0
H972 H 0.86073 0.76769 0.86142 0.0
H973 H 0.77997 0.87353 0.80868 0.0
H974 H 0.77639 0.89717 0.8437 0.0
H975 H 0.75526 0.86076 0.83963 0.0
C976 C 0.72061 0.23562 0.33187 0.0
C977 C 0.71868 0.20343 0.32641 0.0
C978 C 0.73819 0.25591 0.31244 0.0
C979 C 0.7555 0.24409 0.28696 0.0
C980 C 0.75348 0.21152 0.28122 0.0
C981 C 0.73517 0.19179 0.30075 0.0
C982 C 0.73861 0.29014 0.31961 0.0
C983 C 0.77155 0.1973 0.25493 0.0
C984 C 0.78152 0.29726 0.21836 0.0
C985 C 0.81254 0.3052 0.22604 0.0
C986 C 0.76285 0.27829 0.23803 0.0
C987 C 0.77525 0.26572 0.26627 0.0
C988 C 0.80653 0.27397 0.27442 0.0
C989 C 0.82457 0.29365 0.25453 0.0
C990 C 0.72975 0.27134 0.2282 0.0
C991 C 0.82133 0.26112 0.30379 0.0
H992 H 0.70868 0.2449 0.35201 0.0
H993 H 0.73481 0.167 0.2968 0.0
H994 H 0.76234 0.29814 0.32644 0.0
H995 H 0.73184 0.30311 0.29819 0.0
H996 H 0.72279 0.29606 0.33902 0.0
H997 H 0.76769 0.17183 0.25322 0.0
H998 H 0.765 0.20768 0.232 0.0
H999 H 0.79657 0.20235 0.25888 0.0
H1000 H 0.77186 0.30576 0.19643 0.0
H1001 H 0.84854 0.2989 0.26059 0.0
H1002 H 0.7141 0.27762 0.24759 0.0
H1003 H 0.72633 0.24618 0.22359 0.0
H1004 H 0.72292 0.28404 0.20661 0.0
H1005 H 0.80793 0.26747 0.32486 0.0
H1006 H 0.84556 0.26969 0.30726 0.0
H1007 H 0.82109 0.23548 0.30227 0.0
C1008 C 0.51137 0.5194 0.53473 0.0
C1009 C 0.48175 0.53096 0.52903 0.0
C1010 C 0.53337 0.53536 0.55468 0.0
C1011 C 0.52578 0.56356 0.56997 0.0
C1012 C 0.49586 0.57513 0.56442 0.0
C1013 C 0.47453 0.55896 0.54416 0.0
C1014 C 0.56487 0.52201 0.55938 0.0
C1015 C 0.48605 0.60455 0.58035 0.0
C1016 C 0.56717 0.58924 0.64756 0.0
C1017 C 0.58672 0.61418 0.63846 0.0
C1018 C 0.54797 0.57254 0.62567 0.0
C1019 C 0.54815 0.5801 0.59314 0.0
C1020 C 0.56859 0.60445 0.58343 0.0
C1021 C 0.58741 0.62114 0.60601 0.0
C1022 C 0.5268 0.54708 0.63766 0.0
C1023 C 0.57016 0.61333 0.54912 0.0
H1024 H 0.5176 0.49809 0.52315 0.0
H1025 H 0.45177 0.56815 0.5406 0.0
H1026 H 0.58299 0.5394 0.55304 0.0
H1027 H 0.56858 0.51631 0.58463 0.0
H1028 H 0.56788 0.50077 0.54494 0.0
H1029 H 0.46234 0.61104 0.57317 0.0
H1030 H 0.48685 0.60174 0.60638 0.0
H1031 H 0.50228 0.62389 0.57458 0.0
H1032 H 0.56659 0.58259 0.6721 0.0
H1033 H 0.60217 0.64008 0.59821 0.0
H1034 H 0.53115 0.52506 0.62509 0.0
H1035 H 0.50241 0.55286 0.63276 0.0
H1036 H 0.52976 0.54335 0.66345 0.0
H1037 H 0.57403 0.59259 0.53425 0.0
H1038 H 0.58883 0.63082 0.54475 0.0
H1039 H 0.54782 0.62295 0.54142 0.0
C1040 C 0.22324 0.05295 0.22773 0.0
C1041 C 0.22949 0.07963 0.24605 0.0
C1042 C 0.22273 0.02362 0.24155 0.0
C1043 C 0.22814 0.02107 0.27449 0.0
C1044 C 0.23814 0.0474 0.29226 0.0
C1045 C 0.23895 0.07642 0.27772 0.0
C1046 C 0.21291 0.99588 0.22155 0.0
C1047 C 0.24464 0.04558 0.32731 0.0
C1048 C 0.17288 0.96211 0.30899 0.0
C1049 C 0.19153 0.93647 0.31237 0.0
C1050 C 0.18518 0.99041 0.29867 0.0
C1051 C 0.21683 0.99285 0.29086 0.0
C1052 C 0.23619 0.96746 0.29595 0.0
C1053 C 0.22328 0.93946 0.30694 0.0
C1054 C 0.16382 0.01715 0.29436 0.0
C1055 C 0.26994 0.96905 0.28774 0.0
H1056 H 0.21602 0.05504 0.20323 0.0
H1057 H 0.24479 0.09688 0.2918 0.0
H1058 H 0.22695 0.97563 0.22754 0.0
H1059 H 0.18842 0.98963 0.22632 0.0
H1060 H 0.21504 1.0006 0.19591 0.0
H1061 H 0.25829 0.06608 0.33615 0.0
H1062 H 0.22242 0.04458 0.34 0.0
H1063 H 0.25724 0.02436 0.33319 0.0
H1064 H 0.14836 0.95974 0.31349 0.0
H1065 H 0.23762 0.91944 0.30934 0.0
H1066 H 0.16092 0.02205 0.26881 0.0
H1067 H 0.17383 0.03834 0.3059 0.0
H1068 H 0.14064 1.0123 0.30432 0.0
H1069 H 0.27222 0.96605 0.26183 0.0
H1070 H 0.28299 0.95056 0.2996 0.0
H1071 H 0.28063 0.99184 0.29433 0.0
C1072 C 0.23258 0.84161 0.42037 0.0
C1073 C 0.20243 0.8294 0.42299 0.0
C1074 C 0.25026 0.84976 0.44734 0.0
C1075 C 0.2375 0.8455 0.47762 0.0
C1076 C 0.20746 0.83231 0.48049 0.0
C1077 C 0.19029 0.82437 0.45311 0.0
C1078 C 0.28235 0.86356 0.44341 0.0
C1079 C 0.19324 0.82724 0.51243 0.0
C1080 C 0.29542 0.8427 0.54515 0.0
C1081 C 0.29522 0.87314 0.5568 0.0
C1082 C 0.27597 0.83311 0.52005 0.0
C1083 C 0.25588 0.85456 0.50624 0.0
C1084 C 0.25464 0.88502 0.51874 0.0
C1085 C 0.27432 0.89395 0.54411 0.0
C1086 C 0.27769 0.80035 0.50764 0.0
C1087 C 0.23341 0.90845 0.50456 0.0
H1088 H 0.24214 0.84562 0.39721 0.0
H1089 H 0.16698 0.81501 0.45538 0.0
H1090 H 0.28375 0.88715 0.45396 0.0
H1091 H 0.29945 0.84943 0.45613 0.0
H1092 H 0.28899 0.86505 0.41821 0.0
H1093 H 0.16998 0.81585 0.5106 0.0
H1094 H 0.20833 0.81275 0.52726 0.0
H1095 H 0.19117 0.84975 0.52488 0.0
H1096 H 0.31129 0.82647 0.55541 0.0
H1097 H 0.27423 0.91746 0.5532 0.0
H1098 H 0.28652 0.8006 0.48319 0.0
H1099 H 0.25435 0.78916 0.50669 0.0
H1100 H 0.29305 0.78602 0.52241 0.0
H1101 H 0.2404 0.91348 0.47998 0.0
H1102 H 0.23382 0.9305 0.51825 0.0
H1103 H 0.20936 0.899 0.50342 0.0
C1104 C 0.3634 0.9932 0.71555 0.0
C1105 C 0.35717 0.96124 0.71431 0.0
C1106 C 0.3513 1.01181 0.73941 0.0
C1107 C 0.33175 0.99833 0.76234 0.0
C1108 C 0.32588 0.9659 0.76167 0.0
C1109 C 0.33895 0.94765 0.73782 0.0
C1110 C 0.35884 0.04614 0.73951 0.0
C1111 C 0.30482 0.95068 0.78531 0.0
C1112 C 0.31979 0.05295 0.8317 0.0
C1113 C 0.29518 0.07026 0.82012 0.0
C1114 C 0.33073 0.02767 0.81433 0.0
C1115 C 0.31608 0.01897 0.78527 0.0
C1116 C 0.28892 0.03402 0.77565 0.0
C1117 C 0.27902 0.05964 0.79299 0.0
C1118 C 0.35979 1.01246 0.82552 0.0
C1119 C 0.27193 0.02498 0.74542 0.0
H1120 H 0.37779 1.00379 0.69768 0.0
H1121 H 0.33397 0.92295 0.73688 0.0
H1122 H 0.33761 0.05908 0.73438 0.0
H1123 H 0.36763 0.05376 0.76317 0.0
H1124 H 0.37638 0.05257 0.72169 0.0
H1125 H 0.30531 0.92503 0.78387 0.0
H1126 H 0.31134 0.95819 0.8097 0.0
H1127 H 0.28079 0.9579 0.78085 0.0
H1128 H 0.33229 0.06076 0.8528 0.0
H1129 H 0.25968 0.07259 0.78414 0.0
H1130 H 0.37953 0.02132 0.81153 0.0
H1131 H 0.35807 0.98704 0.82191 0.0
H1132 H 0.36488 0.01747 0.85089 0.0
H1133 H 0.28536 0.03336 0.72494 0.0
H1134 H 0.24865 0.03507 0.74409 0.0
H1135 H 0.2694 0.99945 0.7432 0.0
C1136 C 0.26933 0.20602 0.97165 0.0
C1137 C 0.26787 0.17787 0.95484 0.0
C1138 C 0.25344 0.20981 0.99995 0.0
C1139 C 0.23551 0.18486 1.0119 0.0
C1140 C 0.23366 0.1564 0.99499 0.0
C1141 C 0.24989 0.15322 0.96662 0.0
C1142 C 0.25604 0.24056 0.01717 0.0
C1143 C 0.21472 0.12929 1.007 0.0
C1144 C 0.21932 0.18881 0.0999 0.0
C1145 C 0.18961 0.20092 0.10015 0.0
C1146 C 0.23416 0.18265 0.07135 0.0
C1147 C 0.219 0.18879 0.04227 0.0
C1148 C 0.18887 0.20065 0.04235 0.0
C1149 C 0.17457 0.20662 0.07125 0.0
C1150 C 0.26635 0.17014 0.07231 0.0
C1151 C 0.17193 0.20754 1.01188 0.0
H1152 H 0.28311 0.22526 0.9628 0.0
H1153 H 0.24863 0.13141 0.9538 0.0
H1154 H 0.23279 0.25022 0.02004 0.0
H1155 H 0.26599 0.23733 0.04119 0.0
H1156 H 0.27075 0.25774 1.00457 0.0
H1157 H 0.21525 0.10891 0.99088 0.0
H1158 H 0.22351 0.12248 0.03062 0.0
H1159 H 0.19037 0.13596 1.00986 0.0
H1160 H 0.2312 0.18443 0.12206 0.0
H1161 H 0.15154 0.21577 0.07115 0.0
H1162 H 0.28279 0.18724 0.06202 0.0
H1163 H 0.26723 0.1487 0.05781 0.0
H1164 H 0.27425 0.16495 0.09675 0.0
H1165 H 0.1846 0.22602 0.99899 0.0
H1166 H 0.14802 0.21513 1.01592 0.0
H1167 H 0.17091 0.18672 0.99635 0.0
C1168 C 0.09244 0.26951 0.24481 0.0
C1169 C 0.10857 0.2633 0.21706 0.0
C1170 C 0.06558 0.28679 0.24405 0.0
C1171 C 0.05479 0.29834 0.21489 0.0
C1172 C 0.07223 0.29414 0.18723 0.0
C1173 C 0.09889 0.2765 0.18861 0.0
C1174 C 0.04759 0.29071 0.27402 0.0
C1175 C 0.06167 0.30657 0.15576 0.0
C1176 C 0.96942 0.3024 0.19715 0.0
C1177 C 0.96483 0.33426 0.19857 0.0
C1178 C 0.99829 0.29033 0.2042 0.0
C1179 C 0.0233 0.31078 0.2123 0.0
C1180 C 0.01837 0.34289 0.21555 0.0
C1181 C 0.98895 0.3543 0.20884 0.0
C1182 C 1.0024 0.25585 0.20115 0.0
C1183 C 0.04453 0.36536 0.22398 0.0
H1184 H 0.09991 0.25962 0.26699 0.0
H1185 H 0.11145 0.27208 0.16716 0.0
H1186 H 0.04012 0.3149 0.2767 0.0
H1187 H 0.02645 0.27564 0.2728 0.0
H1188 H 0.06123 0.28443 0.29534 0.0
H1189 H 0.07971 0.30482 0.13752 0.0
H1190 H 0.04081 0.29329 0.14735 0.0
H1191 H 0.05528 0.33113 0.15817 0.0
H1192 H 0.95063 0.28697 0.18926 0.0
H1193 H 0.98543 0.37902 0.20951 0.0
H1194 H 1.01389 0.24685 0.22265 0.0
H1195 H 0.01745 0.25096 0.18084 0.0
H1196 H 0.98007 0.24299 0.1974 0.0
H1197 H 0.05828 0.35682 0.24427 0.0
H1198 H 0.03611 0.3887 0.22992 0.0
H1199 H 0.06025 0.3675 0.20363 0.0
C1200 C 0.57195 0.2314 0.80547 0.0
C1201 C 0.57041 0.25401 0.82922 0.0
C1202 C 0.54598 0.21266 0.79756 0.0
C1203 C 0.51827 0.21667 0.81415 0.0
C1204 C 0.51726 0.23854 0.83923 0.0
C1205 C 0.54335 0.25719 0.84624 0.0
C1206 C 0.54776 0.18981 0.77055 0.0
C1207 C 0.48829 0.24307 0.85794 0.0
C1208 C 0.43704 0.20231 0.78445 0.0
C1209 C 0.42828 0.17691 0.80285 0.0
C1210 C 0.46765 0.21359 0.78502 0.0
C1211 C 0.4896 0.19933 0.80486 0.0
C1212 C 0.48157 0.17172 0.82072 0.0
C1213 C 0.45092 0.16075 0.81944 0.0
C1214 C 0.47565 0.24266 0.7671 0.0
C1215 C 0.5043 0.15583 0.84208 0.0
H1216 H 0.59298 0.22943 0.79214 0.0
H1217 H 0.54243 0.27486 0.86453 0.0
H1218 H 0.53735 0.16708 0.77707 0.0
H1219 H 0.53439 0.19838 0.75001 0.0
H1220 H 0.57192 0.18643 0.76314 0.0
H1221 H 0.49205 0.25965 0.87791 0.0
H1222 H 0.46983 0.25191 0.84226 0.0
H1223 H 0.47982 0.22065 0.86753 0.0
H1224 H 0.41956 0.21457 0.77136 0.0
H1225 H 0.44421 0.1412 0.83392 0.0
H1226 H 0.49852 0.24092 0.75592 0.0
H1227 H 0.47696 0.26262 0.78378 0.0
H1228 H 0.45807 0.24746 0.74853 0.0
H1229 H 0.52745 0.15528 0.83134 0.0
H1230 H 0.49653 0.13177 0.84745 0.0
H1231 H 0.50669 0.16892 0.8647 0.0
C1232 C 0.94976 0.71421 0.31046 0.0
C1233 C 0.93487 0.68624 0.30124 0.0
C1234 C 0.98102 0.7199 0.30455 0.0
C1235 C 0.99858 0.69641 0.29065 0.0
C1236 C 0.98376 0.66858 0.28011 0.0
C1237 C 0.95189 0.66428 0.28461 0.0
C1238 C 0.99555 0.75066 0.3148 0.0
C1239 C 1.00114 0.64284 0.26472 0.0
C1240 C 0.07538 0.7302 0.26737 0.0
C1241 C 0.09008 0.732 0.29723 0.0
C1242 C 0.04635 0.71545 0.26353 0.0
C1243 C 0.0326 0.701 0.28978 0.0
C1244 C 0.04998 0.69763 0.31805 0.0
C1245 C 0.07831 0.71375 0.32175 0.0
C1246 C 0.02897 0.71846 0.2326 0.0
C1247 C 0.03703 0.68001 0.34568 0.0
H1248 H 0.93763 0.7314 0.32375 0.0
H1249 H 0.94069 0.64307 0.27603 0.0
H1250 H 1.01031 0.74744 0.3361 0.0
H1251 H 1.01041 0.76024 0.29593 0.0
H1252 H 0.97796 0.76796 0.3206 0.0
H1253 H 0.9916 0.61992 0.27197 0.0
H1254 H 0.99808 0.64431 0.2387 0.0
H1255 H 0.02621 0.64392 0.27046 0.0
H1256 H 0.08522 0.74264 0.24766 0.0
H1257 H 0.08958 0.71418 0.34478 0.0
H1258 H 1.00944 0.73421 0.23583 0.0
H1259 H 0.01915 0.69565 0.22486 0.0
H1260 H 0.0439 0.72782 0.21364 0.0
H1261 H 0.02058 0.69468 0.35841 0.0
H1262 H 0.05552 0.67347 0.36262 0.0
H1263 H 0.02428 0.65875 0.33743 0.0
C1264 C 0.60107 0.78462 0.73244 0.0
C1265 C 0.60699 0.76294 0.70862 0.0
C1266 C 0.57575 0.80402 0.73005 0.0
C1267 C 0.55552 0.80104 0.70359 0.0
C1268 C 0.56169 0.77948 0.67923 0.0
C1269 C 0.58762 0.76093 0.68187 0.0
C1270 C 0.57038 0.82735 0.756 0.0
C1271 C 0.54039 0.77533 0.65082 0.0
C1272 C 0.47182 0.82382 0.70687 0.0
C1273 C 0.47229 0.84985 0.68758 0.0
C1274 C 0.49921 0.80847 0.7138 0.0
C1275 C 0.52747 0.8199 0.7014 0.0
C1276 C 0.52816 0.84768 0.68397 0.0
C1277 C 0.50038 0.86209 0.67684 0.0
C1278 C 0.49749 0.77871 0.73214 0.0
C1279 C 0.55787 0.861 0.67099 0.0
H1280 H 0.61619 0.7863 0.75308 0.0
H1281 H 0.59202 0.74397 0.66358 0.0
H1282 H 0.56816 0.85077 0.74585 0.0
H1283 H 0.54842 0.82157 0.76797 0.0
H1284 H 0.58936 0.8281 0.77397 0.0
H1285 H 0.54838 0.75739 0.63412 0.0
H1286 H 0.51683 0.76859 0.65862 0.0
H1287 H 0.53863 0.79748 0.638 0.0
H1288 H 0.44985 0.81419 0.71454 0.0
H1289 H 0.50041 0.88213 0.66159 0.0
H1290 H 0.51527 0.7789 0.75126 0.0
H1291 H 0.50224 0.75901 0.71612 0.0
H1292 H 0.47445 0.77464 0.74271 0.0
H1293 H 0.57644 0.86124 0.68935 0.0
H1294 H 0.55515 0.88492 0.66218 0.0
H1295 H 0.56548 0.84631 0.65112 0.0
C1296 C 0.93825 0.98781 0.71504 0.0
C1297 C 0.91828 1.01079 0.70478 0.0
C1298 C 0.94073 0.98022 0.74718 0.0
C1299 C 0.92288 0.99607 0.76955 0.0
C1300 C 0.90178 0.01837 0.75917 0.0
C1301 C 0.89977 0.02548 0.72696 0.0
C1302 C 0.96327 0.95609 0.75733 0.0
C1303 C 0.88229 0.03576 0.78226 0.0
C1304 C 0.91194 0.96425 0.85204 0.0
C1305 C 0.93329 0.98241 0.86993 0.0
C1306 C 0.90869 0.968 0.81929 0.0
C1307 C 0.92722 0.99052 0.80396 0.0
C1308 C 0.94915 1.00864 0.82174 0.0
C1309 C 0.95195 1.00434 0.85451 0.0
C1310 C 0.8851 0.94817 0.8012 0.0
C1311 C 0.96931 0.03294 0.8062 0.0
H1312 H 0.95249 0.97627 0.698 0.0
H1313 H 0.88474 0.04372 0.71941 0.0
H1314 H 0.982 0.96712 0.77204 0.0
H1315 H 0.95157 0.93839 0.77209 0.0
H1316 H 0.9738 0.94435 0.73687 0.0
H1317 H 0.86566 0.05098 0.77019 0.0
H1318 H 0.86923 0.01931 0.79732 0.0
H1319 H 0.89744 0.05025 0.79813 0.0
H1320 H 0.89758 0.94706 0.86361 0.0
H1321 H 0.96853 0.01843 0.86809 0.0
H1322 H 0.8963 0.93584 0.78156 0.0
H1323 H 0.86733 0.96302 0.79052 0.0
H1324 H 0.87339 0.93083 0.81645 0.0
H1325 H 0.98252 0.02234 0.78686 0.0
H1326 H 0.98585 0.04443 0.82316 0.0
H1327 H 0.95469 0.05084 0.79546 0.0
C1328 C 0.83273 0.04352 0.5309 0.0
C1329 C 0.84972 0.07032 0.53995 0.0
C1330 C 0.80561 0.04528 0.51252 0.0
C1331 C 0.79552 0.0745 0.5025 0.0
C1332 C 0.81217 0.1017 0.5122 0.0
C1333 C 0.83895 0.09929 0.53104 0.0
C1334 C 0.78821 0.01579 0.50312 0.0
C1335 C 0.80235 0.13327 0.50168 0.0
C1336 C 0.74905 0.07812 0.42598 0.0
C1337 C 0.71922 0.08334 0.43686 0.0
C1338 C 0.77395 0.07494 0.44713 0.0
C1339 C 0.76888 0.0765 0.48004 0.0
C1340 C 0.73865 0.08062 0.49126 0.0
C1341 C 0.71418 0.08422 0.46952 0.0
C1342 C 0.80589 0.07086 0.43419 0.0
C1343 C 0.73227 0.08185 0.5262 0.0
H1344 H 0.84074 0.02106 0.53799 0.0
H1345 H 0.852 0.12008 0.53793 0.0
H1346 H 0.76343 0.01753 0.50887 0.0
H1347 H 0.7896 1.01216 0.47721 0.0
H1348 H 0.79753 0.99521 0.51512 0.0
H1349 H 0.81688 0.15221 0.51253 0.0
H1350 H 0.80391 0.13487 0.47559 0.0
H1351 H 0.77793 0.13688 0.50786 0.0
H1352 H 0.75324 0.07757 0.40081 0.0
H1353 H 0.69117 0.08816 0.47811 0.0
H1354 H 0.81588 0.04934 0.44347 0.0
H1355 H 0.82132 0.09042 0.4421 0.0
H1356 H 0.80587 0.06974 0.40796 0.0
H1357 H 0.74124 0.06101 0.53793 0.0
H1358 H 0.70723 0.08332 0.53106 0.0
H1359 H 0.74446 0.10226 0.53709 0.0
C1360 C 0.59559 0.0812 0.29263 0.0
C1361 C 0.61637 0.07502 0.31742 0.0
C1362 C 0.58744 0.05863 0.26975 0.0
C1363 C 0.60044 0.02901 0.27147 0.0
C1364 C 0.62071 0.02223 0.29696 0.0
C1365 C 0.62845 0.04532 0.31964 0.0
C1366 C 0.56593 0.06701 0.24292 0.0
C1367 C 0.63513 0.99098 0.29959 0.0
C1368 C 0.5667 0.96727 0.21427 0.0
C1369 C 0.58646 0.97094 0.18859 0.0
C1370 C 0.57134 0.98534 0.24204 0.0
C1371 C 0.59641 1.00719 0.24408 0.0
C1372 C 0.6169 1.01003 0.21859 0.0
C1373 C 0.61162 0.99206 0.19134 0.0
C1374 C 0.54902 0.9817 0.2688 0.0
C1375 C 0.64403 0.0328 0.21962 0.0
H1376 H 0.58582 0.10392 0.29079 0.0
H1377 H 0.64424 0.0402 0.33889 0.0
H1378 H 0.5789 0.06792 0.22055 0.0
H1379 H 0.54726 0.04911 0.23988 0.0
H1380 H 0.55528 0.08979 0.24675 0.0
H1381 H 0.64724 0.98805 0.32266 0.0
H1382 H 0.6173 0.97225 0.29657 0.0
H1383 H 0.65207 0.98819 0.28046 0.0
H1384 H 0.54737 0.95089 0.21242 0.0
H1385 H 0.62747 0.9948 0.17195 0.0
H1386 H 0.53586 1.00319 0.2715 0.0
H1387 H 0.56175 0.97815 0.29138 0.0
H1388 H 0.5324 0.96199 0.2648 0.0
H1389 H 0.63559 0.05675 0.221 0.0
H1390 H 0.65879 0.03089 0.19851 0.0
H1391 H 0.65853 0.02905 0.241 0.0
C1392 C 0.69209 0.88547 1.01126 0.0
C1393 C 0.66695 0.90448 1.00537 0.0
C1394 C 0.72142 0.89321 0.99963 0.0
C1395 C 0.72574 0.92096 0.98256 0.0
C1396 C 0.69982 0.93788 0.97307 0.0
C1397 C 0.67057 0.92908 0.98413 0.0
C1398 C 0.74831 0.87337 1.00829 0.0
C1399 C 0.70338 0.96705 0.95402 0.0
C1400 C 0.80135 0.96136 1.00584 0.0
C1401 C 0.81972 0.95513 0.97983 0.0
C1402 C 0.77015 0.95195 1.006 0.0
C1403 C 0.75733 0.93491 0.97993 0.0
C1404 C 0.77541 0.92985 0.95292 0.0
C1405 C 0.80633 0.94044 0.95305 0.0
C1406 C 0.75132 0.95901 0.03479 0.0
C1407 C 0.76331 0.91146 0.92465 0.0
H1408 H 0.68964 0.86618 0.02727 0.0
H1409 H 0.65098 0.94317 0.97842 0.0
H1410 H 0.76367 0.87062 0.98776 0.0
H1411 H 0.76209 0.88477 0.02764 0.0
H1412 H 0.74056 0.8501 1.01638 0.0
H1413 H 0.6808 0.97535 0.94523 0.0
H1414 H 0.71451 0.98551 0.96902 0.0
H1415 H 0.71853 0.9632 0.93356 0.0
H1416 H 0.81166 0.9728 0.02649 0.0
H1417 H 0.82048 0.93536 0.9329 0.0
H1418 H 0.74604 0.93728 0.04762 0.0
H1419 H 0.72902 0.96909 0.02765 0.0
H1420 H 0.76364 0.97537 0.05133 0.0
H1421 H 0.77162 0.88747 0.92631 0.0
H1422 H 0.77243 0.92148 0.90249 0.0
H1423 H 0.73775 0.9104 0.92298 0.0
C1424 C 0.12797 0.76524 0.97494 0.0
C1425 C 0.11087 0.7473 0.95273 0.0
C1426 C 0.11636 0.79301 0.98681 0.0
C1427 C 0.08741 0.80309 0.97557 0.0
C1428 C 0.0699 0.78462 0.95365 0.0
C1429 C 0.08162 0.75681 0.94302 0.0
C1430 C 0.13545 0.81164 1.01067 0.0
C1431 C 0.03877 0.79427 0.94099 0.0
C1432 C 0.0287 0.85504 1.00771 0.0
C1433 C 0.0302 0.87889 0.98539 0.0
C1434 C 0.05103 0.83228 1.00857 0.0
C1435 C 0.07454 0.83282 0.98584 0.0
C1436 C 0.07877 0.8591 0.96659 0.0
C1437 C 0.05662 0.88208 0.96683 0.0
C1438 C 0.04693 0.80545 0.0308 0.0
C1439 C 0.10419 0.86094 0.9427 0.0
H1440 H 0.15058 0.75789 0.9826 0.0
H1441 H 0.06776 0.74246 0.9268 0.0
H1442 H 0.14991 0.82898 0.99811 0.0
H1443 H 0.12074 0.82418 0.02745 0.0
H1444 H 0.15115 0.79665 0.0243 0.0
H1445 H 0.02901 0.77786 0.92288 0.0
H1446 H 0.02215 0.79565 0.96057 0.0
H1447 H 0.04078 0.81753 0.93022 0.0
H1448 H 1.00876 0.85234 0.02263 0.0
H1449 H 0.05882 0.90128 0.95066 0.0
H1450 H 0.06962 0.79703 0.03902 0.0
H1451 H 0.03452 0.78608 0.01824 0.0
H1452 H 0.03321 0.81193 0.05168 0.0
H1453 H 0.12618 0.85293 0.95307 0.0
H1454 H 0.10782 0.88484 0.93382 0.0
H1455 H 0.09799 0.84556 0.9223 0.0
C1456 C 0.49725 0.68849 0.06464 0.0
C1457 C 0.46951 0.67683 0.07679 0.0
C1458 C 0.50699 0.71921 0.07052 0.0
C1459 C 0.48903 0.73831 0.08997 0.0
C1460 C 0.46003 0.72718 0.10067 0.0
C1461 C 0.45041 0.69658 0.09358 0.0
C1462 C 0.53763 0.73046 0.05783 0.0
C1463 C 0.44045 0.7465 0.12193 0.0
C1464 C 0.54142 0.79374 0.13653 0.0
C1465 C 0.53913 0.8209 0.11898 0.0
C1466 C 0.5232 0.7674 0.12887 0.0
C1467 C 0.50283 0.76796 0.10239 0.0
C1468 C 0.49889 0.79594 0.08588 0.0
C1469 C 0.51686 0.82228 0.0947 0.0
C1470 C 0.52738 0.73834 0.14782 0.0
C1471 C 0.47769 0.79745 0.05735 0.0
H1472 H 0.51196 0.67315 0.05167 0.0
H1473 H 0.42911 0.68741 0.10339 0.0
H1474 H 0.53554 0.75378 0.04742 0.0
H1475 H 0.55488 0.73237 0.07745 0.0
H1476 H 0.54649 0.71452 0.03958 0.0
H1477 H 0.41655 0.73675 0.12366 0.0
H1478 H 0.45098 0.74733 0.14601 0.0
H1479 H 0.43944 0.77063 0.11341 0.0
H1480 H 0.55844 0.79272 0.15554 0.0
H1481 H 0.51495 0.84312 0.08105 0.0
H1482 H 0.5399 0.72123 0.13356 0.0
H1483 H 0.50463 0.72769 0.15374 0.0
H1484 H 0.54071 0.7429 0.17009 0.0
H1485 H 0.48844 0.78555 0.03713 0.0
H1486 H 0.47329 0.82169 0.05046 0.0
H1487 H 0.45529 0.78537 0.06176 0.0
C1488 C 1.00921 0.18219 0.58738 0.0
C1489 C 0.97806 0.17426 0.58146 0.0
C1490 C 0.0188 0.21296 0.59303 0.0
C1491 C 0.99668 0.23642 0.59264 0.0
C1492 C 0.96552 0.22887 0.58451 0.0
C1493 C 0.95654 0.19778 0.57898 0.0
C1494 C 0.05228 0.22005 0.60144 0.0
C1495 C 0.94134 0.25331 0.58359 0.0
C1496 C 1.01615 0.30478 0.64679 0.0
C1497 C 0.02865 0.32633 0.62566 0.0
C1498 C 1.00479 0.27577 0.63614 0.0
C1499 C 1.00586 0.26817 0.60356 0.0
C1500 C 0.01764 0.29014 0.58198 0.0
C1501 C 0.02897 0.31893 0.5933 0.0
C1502 C 0.99249 0.25289 0.65992 0.0
C1503 C 0.01898 0.28292 0.54707 0.0
H1504 H 0.026 0.16413 0.58908 0.0
H1505 H 0.9324 0.1918 0.57449 0.0
H1506 H 0.06143 0.23933 0.58689 0.0
H1507 H 0.05428 0.22754 0.62655 0.0
H1508 H 0.06698 0.19968 0.59801 0.0
H1509 H 0.91921 0.24443 0.5729 0.0
H1510 H 0.93687 0.26141 0.60799 0.0
H1511 H 0.9496 0.27365 0.57001 0.0
H1512 H 1.01573 0.31031 0.6718 0.0
H1513 H 0.03836 0.33555 0.57674 0.0
H1514 H 1.00723 0.23232 0.66046 0.0
H1515 H 0.96883 0.24476 0.65293 0.0
H1516 H 0.99183 0.26292 0.68414 0.0
H1517 H 0.03524 0.26398 0.543 0.0
H1518 H 0.02664 0.30331 0.53314 0.0
H1519 H 0.99597 0.27475 0.53806 0.0
C1520 C 0.5301 0.33712 0.45877 0.0
C1521 C 0.52682 0.36164 0.48015 0.0
C1522 C 0.5517 0.31429 0.46424 0.0
C1523 C 0.57052 0.31587 0.49194 0.0
C1524 C 0.5678 0.34084 0.51343 0.0
C1525 C 0.54584 0.36343 0.50733 0.0
C1526 C 0.5539 0.28811 0.44051 0.0
C1527 C 0.58741 0.34333 0.54318 0.0
C1528 C 0.59683 0.23525 0.50407 0.0
C1529 C 0.62249 0.23579 0.48445 0.0
C1530 C 0.58163 0.26266 0.51095 0.0
C1531 C 0.59255 0.2908 0.49773 0.0
C1532 C 0.62131 0.29192 0.48238 0.0
C1533 C 0.63594 0.2642 0.47574 0.0
C1534 C 0.55148 0.26067 0.52823 0.0
C1535 C 0.63425 0.32158 0.46875 0.0
H1536 H 0.51505 0.3352 0.4381 0.0
H1537 H 0.54344 0.38243 0.52391 0.0
H1538 H 0.57775 0.2871 0.43149 0.0
H1539 H 0.5485 0.26569 0.45202 0.0
H1540 H 0.53783 0.29061 0.42003 0.0
H1541 H 0.58703 0.36687 0.55386 0.0
H1542 H 0.57848 0.32658 0.56073 0.0
H1543 H 0.6117 0.33753 0.53845 0.0
H1544 H 0.58654 0.21319 0.51083 0.0
H1545 H 0.656 0.26445 0.46073 0.0
H1546 H 0.53209 0.26024 0.51077 0.0
H1547 H 0.54887 0.28112 0.54385 0.0
H1548 H 0.54965 0.23937 0.54264 0.0
H1549 H 0.6223 0.32613 0.44594 0.0
H1550 H 0.65936 0.32011 0.46428 0.0
H1551 H 0.63041 0.34149 0.48477 0.0
C1552 C 0.73506 0.43788 0.806 0.0
C1553 C 0.71477 0.42196 0.785 0.0
C1554 C 0.74465 0.46855 0.80006 0.0
C1555 C 0.73325 0.48348 0.77282 0.0
C1556 C 0.71518 0.46648 0.75018 0.0
C1557 C 0.70638 0.43584 0.75646 0.0
C1558 C 0.76489 0.4856 0.82414 0.0
C1559 C 0.70256 0.48145 0.72073 0.0
C1560 C 0.70796 0.56594 0.77474 0.0
C1561 C 0.7283 0.5799 0.75343 0.0
C1562 C 0.7109 0.53499 0.78327 0.0
C1563 C 0.73502 0.51767 0.77038 0.0
C1564 C 0.75729 0.53239 0.7511 0.0
C1565 C 0.75343 0.56335 0.74247 0.0
C1566 C 0.68648 0.52017 0.80376 0.0
C1567 C 0.78391 0.51497 0.73783 0.0
H1568 H 0.74203 0.4271 0.82792 0.0
H1569 H 0.69122 0.42344 0.73981 0.0
H1570 H 0.78161 0.5015 0.81248 0.0
H1571 H 0.75031 0.49975 0.83962 0.0
H1572 H 0.77778 0.46936 0.83929 0.0
H1573 H 0.69133 0.46433 0.7042 0.0
H1574 H 0.68521 0.49866 0.72742 0.0
H1575 H 0.72122 0.49396 0.70808 0.0
H1576 H 0.68831 0.57852 0.78301 0.0
H1577 H 0.7694 0.57427 0.72626 0.0
H1578 H 0.69731 0.50727 0.82334 0.0
H1579 H 0.67229 0.50333 0.78942 0.0
H1580 H 0.6709 0.53744 0.81403 0.0
H1581 H 0.79317 0.4986 0.75541 0.0
H1582 H 0.80288 0.53096 0.73037 0.0
H1583 H 0.77582 0.5013 0.71685 0.0
C1584 C 0.74271 0.34579 0.91651 0.0
C1585 C 0.71258 0.33416 0.92083 0.0
C1586 C 0.76177 0.35382 0.94253 0.0
C1587 C 0.75038 0.34997 0.97345 0.0
C1588 C 0.72053 0.33696 0.97795 0.0
C1589 C 0.70199 0.32914 0.95156 0.0
C1590 C 0.79368 0.36738 0.93695 0.0
C1591 C 0.70777 0.33225 1.01062 0.0
C1592 C 0.80849 0.34747 0.04068 0.0
C1593 C 0.80794 0.37783 0.05259 0.0
C1594 C 0.78971 0.33807 1.01505 0.0
C1595 C 0.76974 0.35951 1.00114 0.0
C1596 C 0.76838 0.38998 1.01357 0.0
C1597 C 0.78753 0.3988 0.03936 0.0
C1598 C 0.79156 0.30532 1.00262 0.0
C1599 C 0.74712 0.41334 0.99929 0.0
H1600 H 0.75098 0.34987 0.89283 0.0
H1601 H 0.67875 0.32005 0.95506 0.0
H1602 H 0.79538 0.39136 0.9465 0.0
H1603 H 0.81123 0.35378 0.94966 0.0
H1604 H 0.79943 0.36788 0.91148 0.0
H1605 H 0.68454 0.32072 1.01003 0.0
H1606 H 0.72357 0.31806 0.02497 0.0
H1607 H 0.70609 0.35493 0.02284 0.0
H1608 H 0.82385 0.33104 0.0514 0.0
H1609 H 0.78714 0.42223 0.04864 0.0
H1610 H 0.79896 0.30557 0.97765 0.0
H1611 H 0.76846 0.29364 1.0031 0.0
H1612 H 0.80802 0.29139 1.01653 0.0
H1613 H 0.75319 0.41733 0.97425 0.0
H1614 H 0.74839 0.43586 1.01214 0.0
H1615 H 0.72292 0.40429 0.99947 0.0
C1616 C 0.87374 0.49543 0.2149 0.0
C1617 C 0.86551 0.46387 0.21382 0.0
C1618 C 0.86212 0.51511 0.23812 0.0
C1619 C 0.84106 0.50317 0.26053 0.0
C1620 C 0.83313 0.47114 0.26001 0.0
C1621 C 0.84573 0.45176 0.23684 0.0
C1622 C 0.87183 0.54895 0.23812 0.0
C1623 C 0.81042 0.45758 0.28309 0.0
C1624 C 0.82955 0.55886 0.3292 0.0
C1625 C 0.80611 0.57717 0.31681 0.0
C1626 C 0.83993 0.53308 0.31221 0.0
C1627 C 0.82594 0.52505 0.28263 0.0
C1628 C 0.80004 0.5415 0.2719 0.0
C1629 C 0.79072 0.56756 0.2889 0.0
C1630 C 0.86773 0.51643 0.32451 0.0
C1631 C 0.7838 0.5333 0.24101 0.0
H1632 H 0.88934 0.50486 0.19744 0.0
H1633 H 0.83924 0.42737 0.23605 0.0
H1634 H 0.85167 0.56316 0.23208 0.0
H1635 H 0.88024 0.5563 0.26199 0.0
H1636 H 0.89031 0.55402 0.22088 0.0
H1637 H 0.80895 0.43192 0.28164 0.0
H1638 H 0.81693 0.46461 0.30762 0.0
H1639 H 0.78717 0.46667 0.27808 0.0
H1640 H 0.84156 0.56612 0.35078 0.0
H1641 H 0.77241 0.58149 0.27936 0.0
H1642 H 0.88832 0.52396 0.31103 0.0
H1643 H 0.86469 0.49106 0.32116 0.0
H1644 H 0.87234 0.52149 0.34996 0.0
H1645 H 0.79856 0.54066 0.22109 0.0
H1646 H 0.7613 0.54483 0.2386 0.0
H1647 H 0.77977 0.50793 0.23884 0.0
C1648 C 0.75273 0.6919 0.60388 0.0
C1649 C 0.72202 0.69187 0.61388 0.0
C1650 C 0.75987 0.68791 0.57191 0.0
C1651 C 0.73574 0.68371 0.54918 0.0
C1652 C 0.70466 0.68335 0.55908 0.0
C1653 C 0.69816 0.68754 0.5913 0.0
C1654 C 0.79334 0.68855 0.56241 0.0
C1655 C 0.67829 0.67889 0.53562 0.0
C1656 C 0.75924 0.7069 0.4666 0.0
C1657 C 0.76719 0.67846 0.4532 0.0
C1658 C 0.74736 0.70869 0.49717 0.0
C1659 C 0.74339 0.68138 0.51499 0.0
C1660 C 0.74975 0.65238 0.501 0.0
C1661 C 0.76153 0.65124 0.4702 0.0
C1662 C 0.74069 0.74008 0.51102 0.0
C1663 C 0.74571 0.62271 0.51916 0.0
H1664 H 0.77137 0.69515 0.62106 0.0
H1665 H 0.67436 0.68739 0.59876 0.0
H1666 H 0.79863 0.66698 0.54943 0.0
H1667 H 0.79783 0.70815 0.54622 0.0
H1668 H 0.80939 0.69102 0.58307 0.0
H1669 H 0.65555 0.67708 0.54732 0.0
H1670 H 0.67801 0.69865 0.51909 0.0
H1671 H 0.68145 0.65766 0.52126 0.0
H1672 H 0.76322 0.72804 0.45352 0.0
H1673 H 0.76762 0.62918 0.46003 0.0
H1674 H 0.75757 0.74573 0.53035 0.0
H1675 H 0.71736 0.73992 0.5214 0.0
H1676 H 0.74213 0.75869 0.49313 0.0
H1677 H 0.76337 0.62206 0.5384 0.0
H1678 H 0.74811 0.60194 0.50386 0.0
H1679 H 0.72274 0.62157 0.53035 0.0
C1680 C 0.44302 0.48579 0.21605 0.0
C1681 C 0.42238 0.50834 0.2062 0.0
C1682 C 0.44547 0.47748 0.24801 0.0
C1683 C 0.42701 0.49226 0.27063 0.0
C1684 C 0.40545 0.51428 0.26067 0.0
C1685 C 0.4034 0.52203 0.22864 0.0
C1686 C 0.4685 0.45365 0.25772 0.0
C1687 C 0.3854 0.53064 0.28403 0.0
C1688 C 0.41563 0.45859 0.35234 0.0
C1689 C 0.43647 0.47677 0.37081 0.0
C1690 C 0.41281 0.46284 0.31961 0.0
C1691 C 0.43117 0.48595 0.30493 0.0
C1692 C 0.45255 0.50412 0.32333 0.0
C1693 C 0.455 0.49925 0.35603 0.0
C1694 C 0.38986 0.44288 0.30082 0.0
C1695 C 0.47242 0.52913 0.30855 0.0
H1696 H 0.45766 0.47506 0.19882 0.0
H1697 H 0.38787 0.53997 0.22141 0.0
H1698 H 0.48685 0.46471 0.2729 0.0
H1699 H 0.45707 0.4353 0.27187 0.0
H1700 H 0.47951 0.44273 0.23705 0.0
H1701 H 0.36863 0.54592 0.27225 0.0
H1702 H 0.37244 0.51353 0.29843 0.0
H1703 H 0.40014 0.54491 0.3005 0.0
H1704 H 0.40146 0.44094 0.36343 0.0
H1705 H 0.47118 0.51338 0.37007 0.0
H1706 H 0.40159 0.43122 0.28109 0.0
H1707 H 0.37189 0.45754 0.29023 0.0
H1708 H 0.37834 0.42497 0.31556 0.0
H1709 H 0.48604 0.51924 0.28912 0.0
H1710 H 0.48858 0.54056 0.32593 0.0
H1711 H 0.45756 0.54697 0.29806 0.0
C1712 C 0.21467 0.5878 0.96872 0.0
C1713 C 0.22204 0.60886 0.94485 0.0
C1714 C 0.23775 0.57717 0.98937 0.0
C1715 C 0.26876 0.58756 0.98554 0.0
C1716 C 0.27634 0.6078 0.96058 0.0
C1717 C 0.25287 0.61834 0.94072 0.0
C1718 C 0.22885 0.5558 1.01589 0.0
C1719 C 0.30918 0.61904 0.95532 0.0
C1720 C 0.3286 0.5937 0.05141 0.0
C1721 C 0.34751 0.56892 0.04417 0.0
C1722 C 0.30152 0.59872 0.03386 0.0
C1723 C 0.29344 0.57873 1.00819 0.0
C1724 C 0.31158 0.55275 1.00182 0.0
C1725 C 0.33836 0.54805 0.02003 0.0
C1726 C 0.28255 0.62646 0.04168 0.0
C1727 C 0.30388 0.53108 0.97449 0.0
H1728 H 0.1908 0.58055 0.97199 0.0
H1729 H 0.25868 0.63434 0.922 0.0
H1730 H 0.24352 0.53518 1.01589 0.0
H1731 H 0.23282 0.56789 0.03889 0.0
H1732 H 0.20424 0.548 1.01419 0.0
H1733 H 0.31137 0.63327 0.9337 0.0
H1734 H 0.3175 0.63319 0.97588 0.0
H1735 H 0.32459 0.59909 0.95323 0.0
H1736 H 0.33533 0.60966 0.07034 0.0
H1737 H 0.35284 0.5288 1.01437 0.0
H1738 H 0.25767 0.61977 0.04245 0.0
H1739 H 0.28535 0.64406 0.02295 0.0
H1740 H 0.28958 0.63726 0.06469 0.0
H1741 H 0.27904 0.52417 0.97439 0.0
H1742 H 0.31779 0.50989 0.97522 0.0
H1743 H 0.30846 0.54313 0.95194 0.0
C1744 C 0.07039 0.5436 0.83285 0.0
C1745 C 0.1014 0.55283 0.83762 0.0
C1746 C 0.06175 0.52156 0.80966 0.0
C1747 C 0.08464 0.50899 0.7903 0.0
C1748 C 0.11624 0.51634 0.79678 0.0
C1749 C 0.1243 0.53807 0.82064 0.0
C1750 C 0.0279 0.51381 0.80413 0.0
C1751 C 0.14137 0.50346 0.77665 0.0
C1752 C 0.06603 0.44691 0.72763 0.0
C1753 C 0.0632 0.46513 0.70055 0.0
C1754 C 0.072 0.46075 0.75746 0.0
C1755 C 0.07536 0.4934 0.75996 0.0
C1756 C 0.07078 0.51178 0.73287 0.0
C1757 C 0.06462 0.49742 0.70364 0.0
C1758 C 0.07618 0.44043 0.7859 0.0
C1759 C 0.07386 0.54668 0.73438 0.0
H1760 H 0.05265 0.55464 0.84638 0.0
H1761 H 0.14828 0.54514 0.82435 0.0
H1762 H 0.01954 0.52625 0.78298 0.0
H1763 H 0.02415 0.48868 0.79955 0.0
H1764 H 1.01377 0.52067 0.82457 0.0
H1765 H 0.16467 0.50782 0.78735 0.0
H1766 H 0.13769 0.4782 0.77295 0.0
H1767 H 0.14067 0.51448 0.75307 0.0
H1768 H 0.06524 0.42192 0.72529 0.0
H1769 H 0.06223 0.5116 0.68278 0.0
H1770 H 0.06369 0.44969 0.80645 0.0
H1771 H 0.10103 0.44008 0.79257 0.0
H1772 H 0.06792 0.41626 0.78115 0.0
H1773 H 0.05772 0.55599 0.75192 0.0
H1774 H 0.06903 0.55755 0.71121 0.0
H1775 H 0.09761 0.55372 0.7422 0.0
C1776 C 0.30878 0.43837 0.46077 0.0
C1777 C 0.32469 0.4531 0.48609 0.0
C1778 C 0.27728 0.43019 0.46294 0.0
C1779 C 0.26131 0.43761 0.49081 0.0
C1780 C 0.27692 0.45429 0.51554 0.0
C1781 C 0.30853 0.46142 0.51305 0.0
C1782 C 0.26177 0.41188 0.43632 0.0
C1783 C 0.26058 0.46337 0.54535 0.0
C1784 C 0.17462 0.43848 0.49921 0.0
C1785 C 0.16959 0.41317 0.51926 0.0
C1786 C 0.20407 0.44554 0.48752 0.0
C1787 C 0.22893 0.42644 0.49553 0.0
C1788 C 0.22321 0.39888 0.51258 0.0
C1789 C 0.19364 0.39267 0.52446 0.0
C1790 C 0.20909 0.475 0.46922 0.0
C1791 C 0.24894 0.37738 0.52079 0.0
H1792 H 0.32136 0.43145 0.44005 0.0
H1793 H 0.32086 0.47276 0.53262 0.0
H1794 H 0.25849 0.38746 0.44367 0.0
H1795 H 0.2386 0.42087 0.43077 0.0
H1796 H 0.27572 0.41226 0.41452 0.0
H1797 H 0.27527 0.47858 0.56103 0.0
H1798 H 0.2391 0.47559 0.5394 0.0
H1799 H 0.25389 0.4423 0.55865 0.0
H1800 H 0.15594 0.45401 0.49439 0.0
H1801 H 0.19013 0.37306 0.53988 0.0
H1802 H 0.22421 0.47111 0.44876 0.0
H1803 H 0.22082 0.49262 0.48477 0.0
H1804 H 0.18698 0.48448 0.46055 0.0
H1805 H 0.23996 0.35471 0.52938 0.0
H1806 H 0.26386 0.38813 0.53965 0.0
H1807 H 0.26359 0.37335 0.49999 0.0
loop_
_geom_bond_atom_site_label_1
_geom_bond_atom_site_label_2
_geom_bond_distance
_geom_bond_site_symmetry_2
_ccdc_geom_bond_type
C0 C1 1.351 . S
C0 N3 1.368 . S
C0 H5 0.931 . S
C1 C0 1.351 . S
C1 N2 1.373 . S
C1 H29 0.930 . S
N2 C1 1.373 . S
N2 C4 1.340 . S
N3 C0 1.368 . S
N3 C4 1.321 . S
N3 Co6 2.135 . S
C4 N2 1.340 . S
C4 N3 1.321 . S
C4 H28 0.930 . S
H5 C0 0.931 . S
Co6 N3 2.135 . S
Co6 N9 2.121 . S
Co6 O14 2.055 . S
Co6 O17 2.039 . S
Co6 N20 2.140 . S
C7 O8 1.227 . S
C7 O17 1.265 . S
O8 C7 1.227 . S
N9 Co6 2.121 . S
N9 C11 1.375 . S
N9 C12 1.313 . S
C10 C11 1.338 . S
C10 N13 1.377 . S
C10 H30 0.930 . S
C11 N9 1.375 . S
C11 C10 1.338 . S
C11 H15 0.931 . S
C12 N9 1.313 . S
C12 N13 1.344 . S
C12 H16 0.930 . S
N13 C10 1.377 . S
N13 C12 1.344 . S
O14 Co6 2.055 . S
O14 C18 1.253 . S
H15 C11 0.931 . S
H16 C12 0.930 . S
O17 Co6 2.039 . S
O17 C7 1.265 . S
C18 O14 1.253 . S
C18 O19 1.227 . S
O19 C18 1.227 . S
N20 Co6 2.140 . S
N20 C23 1.346 . S
N20 C24 1.345 . S
C21 C22 1.387 . S
C21 C25 1.391 . S
C22 C21 1.387 . S
C22 C23 1.369 . S
C22 H31 0.929 . S
C23 N20 1.346 . S
C23 C22 1.369 . S
C23 H26 0.928 . S
C24 N20 1.345 . S
C24 C25 1.371 . S
C24 H27 0.931 . S
C25 C21 1.391 . S
C25 C24 1.371 . S
C25 H32 0.930 . S
H26 C23 0.928 . S
H27 C24 0.931 . S
H28 C4 0.930 . S
H29 C1 0.930 . S
H30 C10 0.930 . S
H31 C22 0.929 . S
H32 C25 0.930 . S
C33 C34 1.351 . S
C33 N36 1.368 . S
C33 H38 0.931 . S
C34 C33 1.351 . S
C34 N35 1.373 . S
C34 H62 0.930 . S
N35 C34 1.373 . S
N35 C37 1.340 . S
N36 C33 1.368 . S
N36 C37 1.321 . S
N36 Co39 2.135 . S
C37 N35 1.340 . S
C37 N36 1.321 . S
C37 H61 0.930 . S
H38 C33 0.931 . S
Co39 N36 2.135 . S
Co39 N42 2.121 . S
Co39 O47 2.055 . S
Co39 O50 2.039 . S
Co39 N53 2.140 . S
C40 O41 1.227 . S
C40 O50 1.265 . S
O41 C40 1.227 . S
N42 Co39 2.121 . S
N42 C44 1.375 . S
N42 C45 1.313 . S
C43 C44 1.338 . S
C43 N46 1.377 . S
C43 H63 0.930 . S
C44 N42 1.375 . S
C44 C43 1.338 . S
C44 H48 0.931 . S
C45 N42 1.313 . S
C45 N46 1.344 . S
C45 H49 0.930 . S
N46 C43 1.377 . S
N46 C45 1.344 . S
O47 Co39 2.055 . S
O47 C51 1.253 . S
H48 C44 0.931 . S
H49 C45 0.930 . S
O50 Co39 2.039 . S
O50 C40 1.265 . S
C51 O47 1.253 . S
C51 O52 1.227 . S
O52 C51 1.227 . S
N53 Co39 2.140 . S
N53 C56 1.346 . S
N53 C57 1.345 . S
C54 C55 1.387 . S
C54 C58 1.391 . S
C55 C54 1.387 . S
C55 C56 1.369 . S
C55 H64 0.929 . S
C56 N53 1.346 . S
C56 C55 1.369 . S
C56 H59 0.928 . S
C57 N53 1.345 . S
C57 C58 1.371 . S
C57 H60 0.931 . S
C58 C54 1.391 . S
C58 C57 1.371 . S
C58 H65 0.930 . S
H59 C56 0.928 . S
H60 C57 0.931 . S
H61 C37 0.930 . S
H62 C34 0.930 . S
H63 C43 0.930 . S
H64 C55 0.929 . S
H65 C58 0.930 . S
C66 C67 1.351 . S
C66 N69 1.368 . S
C66 H71 0.931 . S
C67 C66 1.351 . S
C67 N68 1.373 . S
C67 H95 0.930 . S
N68 C67 1.373 . S
N68 C70 1.340 . S
N69 C66 1.368 . S
N69 C70 1.321 . S
N69 Co72 2.135 . S
C70 N68 1.340 . S
C70 N69 1.321 . S
C70 H94 0.930 . S
H71 C66 0.931 . S
Co72 N69 2.135 . S
Co72 N75 2.121 . S
Co72 O80 2.055 . S
Co72 O83 2.039 . S
Co72 N86 2.140 . S
C73 O74 1.227 . S
C73 O83 1.265 . S
O74 C73 1.227 . S
N75 Co72 2.121 . S
N75 C77 1.375 . S
N75 C78 1.313 . S
C76 C77 1.338 . S
C76 N79 1.377 . S
C76 H96 0.930 . S
C77 N75 1.375 . S
C77 C76 1.338 . S
C77 H81 0.931 . S
C78 N75 1.313 . S
C78 N79 1.344 . S
C78 H82 0.930 . S
N79 C76 1.377 . S
N79 C78 1.344 . S
O80 Co72 2.055 . S
O80 C84 1.253 . S
H81 C77 0.931 . S
H82 C78 0.930 . S
O83 Co72 2.039 . S
O83 C73 1.265 . S
C84 O80 1.253 . S
C84 O85 1.227 . S
O85 C84 1.227 . S
N86 Co72 2.140 . S
N86 C89 1.346 . S
N86 C90 1.345 . S
C87 C88 1.387 . S
C87 C91 1.391 . S
C88 C87 1.387 . S
C88 C89 1.369 . S
C88 H97 0.929 . S
C89 N86 1.346 . S
C89 C88 1.369 . S
C89 H92 0.928 . S
C90 N86 1.345 . S
C90 C91 1.371 . S
C90 H93 0.931 . S
C91 C87 1.391 . S
C91 C90 1.371 . S
C91 H98 0.930 . S
H92 C89 0.928 . S
H93 C90 0.931 . S
H94 C70 0.930 . S
H95 C67 0.930 . S
H96 C76 0.930 . S
H97 C88 0.929 . S
H98 C91 0.930 . S
C99 C100 1.351 . S
C99 N102 1.368 . S
C99 H104 0.931 . S
C100 C99 1.351 . S
C100 N101 1.373 . S
C100 H128 0.930 . S
N101 C100 1.373 . S
N101 C103 1.340 . S
N102 C99 1.368 . S
N102 C103 1.321 . S
N102 Co105 2.135 . S
C103 N101 1.340 . S
C103 N102 1.321 . S
C103 H127 0.930 . S
H104 C99 0.931 . S
Co105 N102 2.135 . S
Co105 N108 2.121 . S
Co105 O113 2.055 . S
Co105 O116 2.039 . S
Co105 N119 2.140 . S
C106 O107 1.227 . S
C106 O116 1.265 . S
O107 C106 1.227 . S
N108 Co105 2.121 . S
N108 C110 1.375 . S
N108 C111 1.313 . S
C109 C110 1.338 . S
C109 N112 1.377 . S
C109 H129 0.930 . S
C110 N108 1.375 . S
C110 C109 1.338 . S
C110 H114 0.931 . S
C111 N108 1.313 . S
C111 N112 1.344 . S
C111 H115 0.930 . S
N112 C109 1.377 . S
N112 C111 1.344 . S
O113 Co105 2.055 . S
O113 C117 1.253 . S
H114 C110 0.931 . S
H115 C111 0.930 . S
O116 Co105 2.039 . S
O116 C106 1.265 . S
C117 O113 1.253 . S
C117 O118 1.227 . S
O118 C117 1.227 . S
N119 Co105 2.140 . S
N119 C122 1.346 . S
N119 C123 1.345 . S
C120 C121 1.387 . S
C120 C124 1.391 . S
C121 C120 1.387 . S
C121 C122 1.369 . S
C121 H130 0.929 . S
C122 N119 1.346 . S
C122 C121 1.369 . S
C122 H125 0.928 . S
C123 N119 1.345 . S
C123 C124 1.371 . S
C123 H126 0.931 . S
C124 C120 1.391 . S
C124 C123 1.371 . S
C124 H131 0.930 . S
H125 C122 0.928 . S
H126 C123 0.931 . S
H127 C103 0.930 . S
H128 C100 0.930 . S
H129 C109 0.930 . S
H130 C121 0.929 . S
H131 C124 0.930 . S
C132 C133 1.351 . S
C132 N135 1.368 . S
C132 H137 0.931 . S
C133 C132 1.351 . S
C133 N134 1.373 . S
C133 H161 0.930 . S
N134 C133 1.373 . S
N134 C136 1.340 . S
N135 C132 1.368 . S
N135 C136 1.321 . S
N135 Co138 2.135 . S
C136 N134 1.340 . S
C136 N135 1.321 . S
C136 H160 0.930 . S
H137 C132 0.931 . S
Co138 N135 2.135 . S
Co138 N141 2.121 . S
Co138 O146 2.055 . S
Co138 O149 2.039 . S
Co138 N152 2.140 . S
C139 O140 1.227 . S
C139 O149 1.265 . S
O140 C139 1.227 . S
N141 Co138 2.121 . S
N141 C143 1.375 . S
N141 C144 1.313 . S
C142 C143 1.338 . S
C142 N145 1.377 . S
C142 H162 0.930 . S
C143 N141 1.375 . S
C143 C142 1.338 . S
C143 H147 0.931 . S
C144 N141 1.313 . S
C144 N145 1.344 . S
C144 H148 0.930 . S
N145 C142 1.377 . S
N145 C144 1.344 . S
O146 Co138 2.055 . S
O146 C150 1.253 . S
H147 C143 0.931 . S
H148 C144 0.930 . S
O149 Co138 2.039 . S
O149 C139 1.265 . S
C150 O146 1.253 . S
C150 O151 1.227 . S
O151 C150 1.227 . S
N152 Co138 2.140 . S
N152 C155 1.346 . S
N152 C156 1.345 . S
C153 C154 1.387 . S
C153 C157 1.391 . S
C154 C153 1.387 . S
C154 C155 1.369 . S
C154 H163 0.929 . S
C155 N152 1.346 . S
C155 C154 1.369 . S
C155 H158 0.928 . S
C156 N152 1.345 . S
C156 C157 1.371 . S
C156 H159 0.931 . S
C157 C153 1.391 . S
C157 C156 1.371 . S
C157 H164 0.930 . S
H158 C155 0.928 . S
H159 C156 0.931 . S
H160 C136 0.930 . S
H161 C133 0.930 . S
H162 C142 0.930 . S
H163 C154 0.929 . S
H164 C157 0.930 . S
C165 C166 1.351 . S
C165 N168 1.368 . S
C165 H170 0.931 . S
C166 C165 1.351 . S
C166 N167 1.373 . S
C166 H194 0.930 . S
N167 C166 1.373 . S
N167 C169 1.340 . S
N168 C165 1.368 . S
N168 C169 1.321 . S
N168 Co171 2.135 . S
C169 N167 1.340 . S
C169 N168 1.321 . S
C169 H193 0.930 . S
H170 C165 0.931 . S
Co171 N168 2.135 . S
Co171 N174 2.121 . S
Co171 O179 2.055 . S
Co171 O182 2.039 . S
Co171 N185 2.140 . S
C172 O173 1.227 . S
C172 O182 1.265 . S
O173 C172 1.227 . S
N174 Co171 2.121 . S
N174 C176 1.375 . S
N174 C177 1.313 . S
C175 C176 1.338 . S
C175 N178 1.377 . S
C175 H195 0.930 . S
C176 N174 1.375 . S
C176 C175 1.338 . S
C176 H180 0.931 . S
C177 N174 1.313 . S
C177 N178 1.344 . S
C177 H181 0.930 . S
N178 C175 1.377 . S
N178 C177 1.344 . S
O179 Co171 2.055 . S
O179 C183 1.253 . S
H180 C176 0.931 . S
H181 C177 0.930 . S
O182 Co171 2.039 . S
O182 C172 1.265 . S
C183 O179 1.253 . S
C183 O184 1.227 . S
O184 C183 1.227 . S
N185 Co171 2.140 . S
N185 C188 1.346 . S
N185 C189 1.345 . S
C186 C187 1.387 . S
C186 C190 1.391 . S
C187 C186 1.387 . S
C187 C188 1.369 . S
C187 H196 0.929 . S
C188 N185 1.346 . S
C188 C187 1.369 . S
C188 H191 0.928 . S
C189 N185 1.345 . S
C189 C190 1.371 . S
C189 H192 0.931 . S
C190 C186 1.391 . S
C190 C189 1.371 . S
C190 H197 0.930 . S
H191 C188 0.928 . S
H192 C189 0.931 . S
H193 C169 0.930 . S
H194 C166 0.930 . S
H195 C175 0.930 . S
H196 C187 0.929 . S
H197 C190 0.930 . S
C198 C199 1.351 . S
C198 N201 1.368 . S
C198 H203 0.931 . S
C199 C198 1.351 . S
C199 N200 1.373 . S
C199 H227 0.930 . S
N200 C199 1.373 . S
N200 C202 1.340 . S
N201 C198 1.368 . S
N201 C202 1.321 . S
N201 Co204 2.135 . S
C202 N200 1.340 . S
C202 N201 1.321 . S
C202 H226 0.930 . S
H203 C198 0.931 . S
Co204 N201 2.135 . S
Co204 N207 2.121 . S
Co204 O212 2.055 . S
Co204 O215 2.039 . S
Co204 N218 2.140 . S
C205 O206 1.227 . S
C205 O215 1.265 . S
O206 C205 1.227 . S
N207 Co204 2.121 . S
N207 C209 1.375 . S
N207 C210 1.313 . S
C208 C209 1.338 . S
C208 N211 1.377 . S
C208 H228 0.930 . S
C209 N207 1.375 . S
C209 C208 1.338 . S
C209 H213 0.931 . S
C210 N207 1.313 . S
C210 N211 1.344 . S
C210 H214 0.930 . S
N211 C208 1.377 . S
N211 C210 1.344 . S
O212 Co204 2.055 . S
O212 C216 1.253 . S
H213 C209 0.931 . S
H214 C210 0.930 . S
O215 Co204 2.039 . S
O215 C205 1.265 . S
C216 O212 1.253 . S
C216 O217 1.227 . S
O217 C216 1.227 . S
N218 Co204 2.140 . S
N218 C221 1.346 . S
N218 C222 1.345 . S
C219 C220 1.387 . S
C219 C223 1.391 . S
C220 C219 1.387 . S
C220 C221 1.369 . S
C220 H229 0.929 . S
C221 N218 1.346 . S
C221 C220 1.369 . S
C221 H224 0.928 . S
C222 N218 1.345 . S
C222 C223 1.371 . S
C222 H225 0.931 . S
C223 C219 1.391 . S
C223 C222 1.371 . S
C223 H230 0.930 . S
H224 C221 0.928 . S
H225 C222 0.931 . S
H226 C202 0.930 . S
H227 C199 0.930 . S
H228 C208 0.930 . S
H229 C220 0.929 . S
H230 C223 0.930 . S
C231 C232 1.351 . S
C231 N234 1.368 . S
C231 H236 0.931 . S
C232 C231 1.351 . S
C232 N233 1.373 . S
C232 H260 0.930 . S
N233 C232 1.373 . S
N233 C235 1.340 . S
N234 C231 1.368 . S
N234 C235 1.321 . S
N234 Co237 2.135 . S
C235 N233 1.340 . S
C235 N234 1.321 . S
C235 H259 0.930 . S
H236 C231 0.931 . S
Co237 N234 2.135 . S
Co237 N240 2.121 . S
Co237 O245 2.055 . S
Co237 O248 2.039 . S
Co237 N251 2.140 . S
C238 O239 1.227 . S
C238 O248 1.265 . S
O239 C238 1.227 . S
N240 Co237 2.121 . S
N240 C242 1.375 . S
N240 C243 1.313 . S
C241 C242 1.338 . S
C241 N244 1.377 . S
C241 H261 0.930 . S
C242 N240 1.375 . S
C242 C241 1.338 . S
C242 H246 0.931 . S
C243 N240 1.313 . S
C243 N244 1.344 . S
C243 H247 0.930 . S
N244 C241 1.377 . S
N244 C243 1.344 . S
O245 Co237 2.055 . S
O245 C249 1.253 . S
H246 C242 0.931 . S
H247 C243 0.930 . S
O248 Co237 2.039 . S
O248 C238 1.265 . S
C249 O245 1.253 . S
C249 O250 1.227 . S
O250 C249 1.227 . S
N251 Co237 2.140 . S
N251 C254 1.346 . S
N251 C255 1.345 . S
C252 C253 1.387 . S
C252 C256 1.391 . S
C253 C252 1.387 . S
C253 C254 1.369 . S
C253 H262 0.929 . S
C254 N251 1.346 . S
C254 C253 1.369 . S
C254 H257 0.928 . S
C255 N251 1.345 . S
C255 C256 1.371 . S
C255 H258 0.931 . S
C256 C252 1.391 . S
C256 C255 1.371 . S
C256 H263 0.930 . S
H257 C254 0.928 . S
H258 C255 0.931 . S
H259 C235 0.930 . S
H260 C232 0.930 . S
H261 C241 0.930 . S
H262 C253 0.929 . S
H263 C256 0.930 . S
C264 C265 1.351 . S
C264 N267 1.368 . S
C264 H269 0.931 . S
C265 C264 1.351 . S
C265 N266 1.373 . S
C265 H293 0.930 . S
N266 C265 1.373 . S
N266 C268 1.340 . S
N267 C264 1.368 . S
N267 C268 1.321 . S
N267 Co270 2.135 . S
C268 N266 1.340 . S
C268 N267 1.321 . S
C268 H292 0.930 . S
H269 C264 0.931 . S
Co270 N267 2.135 . S
Co270 N273 2.121 . S
Co270 O278 2.055 . S
Co270 O281 2.039 . S
Co270 N284 2.140 . S
C271 O272 1.227 . S
C271 O281 1.265 . S
O272 C271 1.227 . S
N273 Co270 2.121 . S
N273 C275 1.375 . S
N273 C276 1.313 . S
C274 C275 1.338 . S
C274 N277 1.377 . S
C274 H294 0.930 . S
C275 N273 1.375 . S
C275 C274 1.338 . S
C275 H279 0.931 . S
C276 N273 1.313 . S
C276 N277 1.344 . S
C276 H280 0.930 . S
N277 C274 1.377 . S
N277 C276 1.344 . S
O278 Co270 2.055 . S
O278 C282 1.253 . S
H279 C275 0.931 . S
H280 C276 0.930 . S
O281 Co270 2.039 . S
O281 C271 1.265 . S
C282 O278 1.253 . S
C282 O283 1.227 . S
O283 C282 1.227 . S
N284 Co270 2.140 . S
N284 C287 1.346 . S
N284 C288 1.345 . S
C285 C286 1.387 . S
C285 C289 1.391 . S
C286 C285 1.387 . S
C286 C287 1.369 . S
C286 H295 0.929 . S
C287 N284 1.346 . S
C287 C286 1.369 . S
C287 H290 0.928 . S
C288 N284 1.345 . S
C288 C289 1.371 . S
C288 H291 0.931 . S
C289 C285 1.391 . S
C289 C288 1.371 . S
C289 H296 0.930 . S
H290 C287 0.928 . S
H291 C288 0.931 . S
H292 C268 0.930 . S
H293 C265 0.930 . S
H294 C274 0.930 . S
H295 C286 0.929 . S
H296 C289 0.930 . S
C297 C298 1.351 . S
C297 N300 1.368 . S
C297 H302 0.931 . S
C298 C297 1.351 . S
C298 N299 1.373 . S
C298 H326 0.930 . S
N299 C298 1.373 . S
N299 C301 1.340 . S
N300 C297 1.368 . S
N300 C301 1.321 . S
N300 Co303 2.135 . S
C301 N299 1.340 . S
C301 N300 1.321 . S
C301 H325 0.930 . S
H302 C297 0.931 . S
Co303 N300 2.135 . S
Co303 N306 2.121 . S
Co303 O311 2.055 . S
Co303 O314 2.039 . S
Co303 N317 2.140 . S
C304 O305 1.227 . S
C304 O314 1.265 . S
O305 C304 1.227 . S
N306 Co303 2.121 . S
N306 C308 1.375 . S
N306 C309 1.313 . S
C307 C308 1.338 . S
C307 N310 1.377 . S
C307 H327 0.930 . S
C308 N306 1.375 . S
C308 C307 1.338 . S
C308 H312 0.931 . S
C309 N306 1.313 . S
C309 N310 1.344 . S
C309 H313 0.930 . S
N310 C307 1.377 . S
N310 C309 1.344 . S
O311 Co303 2.055 . S
O311 C315 1.253 . S
H312 C308 0.931 . S
H313 C309 0.930 . S
O314 Co303 2.039 . S
O314 C304 1.265 . S
C315 O311 1.253 . S
C315 O316 1.227 . S
O316 C315 1.227 . S
N317 Co303 2.140 . S
N317 C320 1.346 . S
N317 C321 1.345 . S
C318 C319 1.387 . S
C318 C322 1.391 . S
C319 C318 1.387 . S
C319 C320 1.369 . S
C319 H328 0.929 . S
C320 N317 1.346 . S
C320 C319 1.369 . S
C320 H323 0.928 . S
C321 N317 1.345 . S
C321 C322 1.371 . S
C321 H324 0.931 . S
C322 C318 1.391 . S
C322 C321 1.371 . S
C322 H329 0.930 . S
H323 C320 0.928 . S
H324 C321 0.931 . S
H325 C301 0.930 . S
H326 C298 0.930 . S
H327 C307 0.930 . S
H328 C319 0.929 . S
H329 C322 0.930 . S
C330 C331 1.351 . S
C330 N333 1.368 . S
C330 H335 0.931 . S
C331 C330 1.351 . S
C331 N332 1.373 . S
C331 H359 0.930 . S
N332 C331 1.373 . S
N332 C334 1.340 . S
N333 C330 1.368 . S
N333 C334 1.321 . S
N333 Co336 2.135 . S
C334 N332 1.340 . S
C334 N333 1.321 . S
C334 H358 0.930 . S
H335 C330 0.931 . S
Co336 N333 2.135 . S
Co336 N339 2.121 . S
Co336 O344 2.055 . S
Co336 O347 2.039 . S
Co336 N350 2.140 . S
C337 O338 1.227 . S
C337 O347 1.265 . S
O338 C337 1.227 . S
N339 Co336 2.121 . S
N339 C341 1.375 . S
N339 C342 1.313 . S
C340 C341 1.338 . S
C340 N343 1.377 . S
C340 H360 0.930 . S
C341 N339 1.375 . S
C341 C340 1.338 . S
C341 H345 0.931 . S
C342 N339 1.313 . S
C342 N343 1.344 . S
C342 H346 0.930 . S
N343 C340 1.377 . S
N343 C342 1.344 . S
O344 Co336 2.055 . S
O344 C348 1.253 . S
H345 C341 0.931 . S
H346 C342 0.930 . S
O347 Co336 2.039 . S
O347 C337 1.265 . S
C348 O344 1.253 . S
C348 O349 1.227 . S
O349 C348 1.227 . S
N350 Co336 2.140 . S
N350 C353 1.346 . S
N350 C354 1.345 . S
C351 C352 1.387 . S
C351 C355 1.391 . S
C352 C351 1.387 . S
C352 C353 1.369 . S
C352 H361 0.929 . S
C353 N350 1.346 . S
C353 C352 1.369 . S
C353 H356 0.928 . S
C354 N350 1.345 . S
C354 C355 1.371 . S
C354 H357 0.931 . S
C355 C351 1.391 . S
C355 C354 1.371 . S
C355 H362 0.930 . S
H356 C353 0.928 . S
H357 C354 0.931 . S
H358 C334 0.930 . S
H359 C331 0.930 . S
H360 C340 0.930 . S
H361 C352 0.929 . S
H362 C355 0.930 . S
C363 C364 1.351 . S
C363 N366 1.368 . S
C363 H368 0.931 . S
C364 C363 1.351 . S
C364 N365 1.373 . S
C364 H392 0.930 . S
N365 C364 1.373 . S
N365 C367 1.340 . S
N366 C363 1.368 . S
N366 C367 1.321 . S
N366 Co369 2.135 . S
C367 N365 1.340 . S
C367 N366 1.321 . S
C367 H391 0.930 . S
H368 C363 0.931 . S
Co369 N366 2.135 . S
Co369 N372 2.121 . S
Co369 O377 2.055 . S
Co369 O380 2.039 . S
Co369 N383 2.140 . S
C370 O371 1.227 . S
C370 O380 1.265 . S
O371 C370 1.227 . S
N372 Co369 2.121 . S
N372 C374 1.375 . S
N372 C375 1.313 . S
C373 C374 1.338 . S
C373 N376 1.377 . S
C373 H393 0.930 . S
C374 N372 1.375 . S
C374 C373 1.338 . S
C374 H378 0.931 . S
C375 N372 1.313 . S
C375 N376 1.344 . S
C375 H379 0.930 . S
N376 C373 1.377 . S
N376 C375 1.344 . S
O377 Co369 2.055 . S
O377 C381 1.253 . S
H378 C374 0.931 . S
H379 C375 0.930 . S
O380 Co369 2.039 . S
O380 C370 1.265 . S
C381 O377 1.253 . S
C381 O382 1.227 . S
O382 C381 1.227 . S
N383 Co369 2.140 . S
N383 C386 1.346 . S
N383 C387 1.345 . S
C384 C385 1.387 . S
C384 C388 1.391 . S
C385 C384 1.387 . S
C385 C386 1.369 . S
C385 H394 0.929 . S
C386 N383 1.346 . S
C386 C385 1.369 . S
C386 H389 0.928 . S
C387 N383 1.345 . S
C387 C388 1.371 . S
C387 H390 0.931 . S
C388 C384 1.391 . S
C388 C387 1.371 . S
C388 H395 0.930 . S
H389 C386 0.928 . S
H390 C387 0.931 . S
H391 C367 0.930 . S
H392 C364 0.930 . S
H393 C373 0.930 . S
H394 C385 0.929 . S
H395 C388 0.930 . S
C396 C397 1.351 . S
C396 N399 1.368 . S
C396 H401 0.931 . S
C397 C396 1.351 . S
C397 N398 1.373 . S
C397 H425 0.930 . S
N398 C397 1.373 . S
N398 C400 1.340 . S
N399 C396 1.368 . S
N399 C400 1.321 . S
N399 Co402 2.135 . S
C400 N398 1.340 . S
C400 N399 1.321 . S
C400 H424 0.930 . S
H401 C396 0.931 . S
Co402 N399 2.135 . S
Co402 N405 2.121 . S
Co402 O410 2.055 . S
Co402 O413 2.039 . S
Co402 N416 2.140 . S
C403 O404 1.227 . S
C403 O413 1.265 . S
O404 C403 1.227 . S
N405 Co402 2.121 . S
N405 C407 1.375 . S
N405 C408 1.313 . S
C406 C407 1.338 . S
C406 N409 1.377 . S
C406 H426 0.930 . S
C407 N405 1.375 . S
C407 C406 1.338 . S
C407 H411 0.931 . S
C408 N405 1.313 . S
C408 N409 1.344 . S
C408 H412 0.930 . S
N409 C406 1.377 . S
N409 C408 1.344 . S
O410 Co402 2.055 . S
O410 C414 1.253 . S
H411 C407 0.931 . S
H412 C408 0.930 . S
O413 Co402 2.039 . S
O413 C403 1.265 . S
C414 O410 1.253 . S
C414 O415 1.227 . S
O415 C414 1.227 . S
N416 Co402 2.140 . S
N416 C419 1.346 . S
N416 C420 1.345 . S
C417 C418 1.387 . S
C417 C421 1.391 . S
C418 C417 1.387 . S
C418 C419 1.369 . S
C418 H427 0.929 . S
C419 N416 1.346 . S
C419 C418 1.369 . S
C419 H422 0.928 . S
C420 N416 1.345 . S
C420 C421 1.371 . S
C420 H423 0.931 . S
C421 C417 1.391 . S
C421 C420 1.371 . S
C421 H428 0.930 . S
H422 C419 0.928 . S
H423 C420 0.931 . S
H424 C400 0.930 . S
H425 C397 0.930 . S
H426 C406 0.930 . S
H427 C418 0.929 . S
H428 C421 0.930 . S
C429 C430 1.351 . S
C429 N432 1.368 . S
C429 H434 0.931 . S
C430 C429 1.351 . S
C430 N431 1.373 . S
C430 H458 0.930 . S
N431 C430 1.373 . S
N431 C433 1.340 . S
N432 C429 1.368 . S
N432 C433 1.321 . S
N432 Co435 2.135 . S
C433 N431 1.340 . S
C433 N432 1.321 . S
C433 H457 0.930 . S
H434 C429 0.931 . S
Co435 N432 2.135 . S
Co435 N438 2.121 . S
Co435 O443 2.055 . S
Co435 O446 2.039 . S
Co435 N449 2.140 . S
C436 O437 1.227 . S
C436 O446 1.265 . S
O437 C436 1.227 . S
N438 Co435 2.121 . S
N438 C440 1.375 . S
N438 C441 1.313 . S
C439 C440 1.338 . S
C439 N442 1.377 . S
C439 H459 0.930 . S
C440 N438 1.375 . S
C440 C439 1.338 . S
C440 H444 0.931 . S
C441 N438 1.313 . S
C441 N442 1.344 . S
C441 H445 0.930 . S
N442 C439 1.377 . S
N442 C441 1.344 . S
O443 Co435 2.055 . S
O443 C447 1.253 . S
H444 C440 0.931 . S
H445 C441 0.930 . S
O446 Co435 2.039 . S
O446 C436 1.265 . S
C447 O443 1.253 . S
C447 O448 1.227 . S
O448 C447 1.227 . S
N449 Co435 2.140 . S
N449 C452 1.346 . S
N449 C453 1.345 . S
C450 C451 1.387 . S
C450 C454 1.391 . S
C451 C450 1.387 . S
C451 C452 1.369 . S
C451 H460 0.929 . S
C452 N449 1.346 . S
C452 C451 1.369 . S
C452 H455 0.928 . S
C453 N449 1.345 . S
C453 C454 1.371 . S
C453 H456 0.931 . S
C454 C450 1.391 . S
C454 C453 1.371 . S
C454 H461 0.930 . S
H455 C452 0.928 . S
H456 C453 0.931 . S
H457 C433 0.930 . S
H458 C430 0.930 . S
H459 C439 0.930 . S
H460 C451 0.929 . S
H461 C454 0.930 . S
C462 C463 1.351 . S
C462 N465 1.368 . S
C462 H467 0.931 . S
C463 C462 1.351 . S
C463 N464 1.373 . S
C463 H491 0.930 . S
N464 C463 1.373 . S
N464 C466 1.340 . S
N465 C462 1.368 . S
N465 C466 1.321 . S
N465 Co468 2.135 . S
C466 N464 1.340 . S
C466 N465 1.321 . S
C466 H490 0.930 . S
H467 C462 0.931 . S
Co468 N465 2.135 . S
Co468 N471 2.121 . S
Co468 O476 2.055 . S
Co468 O479 2.039 . S
Co468 N482 2.140 . S
C469 O470 1.227 . S
C469 O479 1.265 . S
O470 C469 1.227 . S
N471 Co468 2.121 . S
N471 C473 1.375 . S
N471 C474 1.313 . S
C472 C473 1.338 . S
C472 N475 1.377 . S
C472 H492 0.930 . S
C473 N471 1.375 . S
C473 C472 1.338 . S
C473 H477 0.931 . S
C474 N471 1.313 . S
C474 N475 1.344 . S
C474 H478 0.930 . S
N475 C472 1.377 . S
N475 C474 1.344 . S
O476 Co468 2.055 . S
O476 C480 1.253 . S
H477 C473 0.931 . S
H478 C474 0.930 . S
O479 Co468 2.039 . S
O479 C469 1.265 . S
C480 O476 1.253 . S
C480 O481 1.227 . S
O481 C480 1.227 . S
N482 Co468 2.140 . S
N482 C485 1.346 . S
N482 C486 1.345 . S
C483 C484 1.387 . S
C483 C487 1.391 . S
C484 C483 1.387 . S
C484 C485 1.369 . S
C484 H493 0.929 . S
C485 N482 1.346 . S
C485 C484 1.369 . S
C485 H488 0.928 . S
C486 N482 1.345 . S
C486 C487 1.371 . S
C486 H489 0.931 . S
C487 C483 1.391 . S
C487 C486 1.371 . S
C487 H494 0.930 . S
H488 C485 0.928 . S
H489 C486 0.931 . S
H490 C466 0.930 . S
H491 C463 0.930 . S
H492 C472 0.930 . S
H493 C484 0.929 . S
H494 C487 0.930 . S
C495 C496 1.351 . S
C495 N498 1.368 . S
C495 H500 0.931 . S
C496 C495 1.351 . S
C496 N497 1.373 . S
C496 H524 0.930 . S
N497 C496 1.373 . S
N497 C499 1.340 . S
N498 C495 1.368 . S
N498 C499 1.321 . S
N498 Co501 2.135 . S
C499 N497 1.340 . S
C499 N498 1.321 . S
C499 H523 0.930 . S
H500 C495 0.931 . S
Co501 N498 2.135 . S
Co501 N504 2.121 . S
Co501 O509 2.055 . S
Co501 O512 2.039 . S
Co501 N515 2.140 . S
C502 O503 1.227 . S
C502 O512 1.265 . S
O503 C502 1.227 . S
N504 Co501 2.121 . S
N504 C506 1.375 . S
N504 C507 1.313 . S
C505 C506 1.338 . S
C505 N508 1.377 . S
C505 H525 0.930 . S
C506 N504 1.375 . S
C506 C505 1.338 . S
C506 H510 0.931 . S
C507 N504 1.313 . S
C507 N508 1.344 . S
C507 H511 0.930 . S
N508 C505 1.377 . S
N508 C507 1.344 . S
O509 Co501 2.055 . S
O509 C513 1.253 . S
H510 C506 0.931 . S
H511 C507 0.930 . S
O512 Co501 2.039 . S
O512 C502 1.265 . S
C513 O509 1.253 . S
C513 O514 1.227 . S
O514 C513 1.227 . S
N515 Co501 2.140 . S
N515 C518 1.346 . S
N515 C519 1.345 . S
C516 C517 1.387 . S
C516 C520 1.391 . S
C517 C516 1.387 . S
C517 C518 1.369 . S
C517 H526 0.929 . S
C518 N515 1.346 . S
C518 C517 1.369 . S
C518 H521 0.928 . S
C519 N515 1.345 . S
C519 C520 1.371 . S
C519 H522 0.931 . S
C520 C516 1.391 . S
C520 C519 1.371 . S
C520 H527 0.930 . S
H521 C518 0.928 . S
H522 C519 0.931 . S
H523 C499 0.930 . S
H524 C496 0.930 . S
H525 C505 0.930 . S
H526 C517 0.929 . S
H527 C520 0.930 . S
C528 C529 1.391 . S
C528 C530 1.394 . S
C528 H544 0.931 . S
C529 C528 1.391 . S
C529 C533 1.376 . S
C530 C528 1.394 . S
C530 C531 1.369 . S
C530 C534 1.531 . S
C531 C530 1.369 . S
C531 C532 1.410 . S
C531 C539 1.503 . S
C532 C531 1.410 . S
C532 C533 1.392 . S
C532 C535 1.511 . S
C533 C529 1.376 . S
C533 C532 1.392 . S
C533 H545 0.929 . S
C534 C530 1.531 . S
C534 H546 0.960 . S
C534 H547 0.962 . S
C534 H548 0.960 . S
C535 C532 1.511 . S
C535 H549 0.961 . S
C535 H550 0.961 . S
C535 H551 0.961 . S
C536 C537 1.370 . S
C536 C538 1.363 . S
C536 H552 0.931 . S
C537 C536 1.370 . S
C537 C541 1.408 . S
C538 C536 1.363 . S
C538 C539 1.370 . S
C538 C542 1.524 . S
C539 C531 1.503 . S
C539 C538 1.370 . S
C539 C540 1.403 . S
C540 C539 1.403 . S
C540 C541 1.404 . S
C540 C543 1.539 . S
C541 C537 1.408 . S
C541 C540 1.404 . S
C541 H553 0.930 . S
C542 C538 1.524 . S
C542 H554 0.956 . S
C542 H555 0.961 . S
C542 H556 0.961 . S
C543 C540 1.539 . S
C543 H557 0.958 . S
C543 H558 0.961 . S
C543 H559 0.960 . S
H544 C528 0.931 . S
H545 C533 0.929 . S
H546 C534 0.960 . S
H547 C534 0.962 . S
H548 C534 0.960 . S
H549 C535 0.961 . S
H550 C535 0.961 . S
H551 C535 0.961 . S
H552 C536 0.931 . S
H553 C541 0.930 . S
H554 C542 0.956 . S
H555 C542 0.961 . S
H556 C542 0.961 . S
H557 C543 0.958 . S
H558 C543 0.961 . S
H559 C543 0.960 . S
C560 C561 1.391 . S
C560 C562 1.394 1_655 S
C560 H576 0.931 . S
C561 C560 1.391 . S
C561 C565 1.376 . S
C562 C560 1.394 1_455 S
C562 C563 1.369 1_455 S
C562 C566 1.531 . S
C563 C562 1.369 1_655 S
C563 C564 1.410 . S
C563 C571 1.503 1_655 S
C564 C563 1.410 . S
C564 C565 1.392 . S
C564 C567 1.511 . S
C565 C561 1.376 . S
C565 C564 1.392 . S
C565 H577 0.929 . S
C566 C562 1.531 . S
C566 H578 0.960 1_545 S
C566 H579 0.962 . S
C566 H580 0.960 . S
C567 C564 1.511 . S
C567 H581 0.961 . S
C567 H582 0.961 . S
C567 H583 0.961 . S
C568 C569 1.370 1_545 S
C568 C570 1.363 . S
C568 H584 0.931 . S
C569 C568 1.370 1_565 S
C569 C573 1.408 . S
C570 C568 1.363 . S
C570 C571 1.370 . S
C570 C574 1.524 . S
C571 C563 1.503 1_455 S
C571 C570 1.370 . S
C571 C572 1.403 1_545 S
C572 C571 1.403 1_565 S
C572 C573 1.404 . S
C572 C575 1.539 1_455 S
C573 C569 1.408 . S
C573 C572 1.404 . S
C573 H585 0.930 . S
C574 C570 1.524 . S
C574 H586 0.956 . S
C574 H587 0.961 . S
C574 H588 0.961 . S
C575 C572 1.539 1_655 S
C575 H589 0.958 . S
C575 H590 0.961 . S
C575 H591 0.960 . S
H576 C560 0.931 . S
H577 C565 0.929 . S
H578 C566 0.960 1_565 S
H579 C566 0.962 . S
H580 C566 0.960 . S
H581 C567 0.961 . S
H582 C567 0.961 . S
H583 C567 0.961 . S
H584 C568 0.931 . S
H585 C573 0.930 . S
H586 C574 0.956 . S
H587 C574 0.961 . S
H588 C574 0.961 . S
H589 C575 0.958 . S
H590 C575 0.961 . S
H591 C575 0.960 . S
C592 C593 1.391 . S
C592 C594 1.394 . S
C592 H608 0.931 . S
C593 C592 1.391 . S
C593 C597 1.376 . S
C594 C592 1.394 . S
C594 C595 1.369 . S
C594 C598 1.531 . S
C595 C594 1.369 . S
C595 C596 1.410 . S
C595 C603 1.503 . S
C596 C595 1.410 . S
C596 C597 1.392 . S
C596 C599 1.511 . S
C597 C593 1.376 . S
C597 C596 1.392 . S
C597 H609 0.929 . S
C598 C594 1.531 . S
C598 H610 0.960 . S
C598 H611 0.962 . S
C598 H612 0.960 . S
C599 C596 1.511 . S
C599 H613 0.961 . S
C599 H614 0.961 . S
C599 H615 0.961 . S
C600 C601 1.370 . S
C600 C602 1.363 . S
C600 H616 0.931 . S
C601 C600 1.370 . S
C601 C605 1.408 . S
C602 C600 1.363 . S
C602 C603 1.370 . S
C602 C606 1.524 . S
C603 C595 1.503 . S
C603 C602 1.370 . S
C603 C604 1.403 . S
C604 C603 1.403 . S
C604 C605 1.404 . S
C604 C607 1.539 . S
C605 C601 1.408 . S
C605 C604 1.404 . S
C605 H617 0.930 . S
C606 C602 1.524 . S
C606 H618 0.956 . S
C606 H619 0.961 . S
C606 H620 0.961 . S
C607 C604 1.539 . S
C607 H621 0.958 . S
C607 H622 0.961 . S
C607 H623 0.960 . S
H608 C592 0.931 . S
H609 C597 0.929 . S
H610 C598 0.960 . S
H611 C598 0.962 . S
H612 C598 0.960 . S
H613 C599 0.961 . S
H614 C599 0.961 . S
H615 C599 0.961 . S
H616 C600 0.931 . S
H617 C605 0.930 . S
H618 C606 0.956 . S
H619 C606 0.961 . S
H620 C606 0.961 . S
H621 C607 0.958 . S
H622 C607 0.961 . S
H623 C607 0.960 . S
C624 C625 1.391 1_565 S
C624 C626 1.394 . S
C624 H640 0.931 . S
C625 C624 1.391 1_545 S
C625 C629 1.376 . S
C626 C624 1.394 . S
C626 C627 1.369 . S
C626 C630 1.531 . S
C627 C626 1.369 . S
C627 C628 1.410 1_565 S
C627 C635 1.503 1_556 S
C628 C627 1.410 1_545 S
C628 C629 1.392 . S
C628 C631 1.511 . S
C629 C625 1.376 . S
C629 C628 1.392 . S
C629 H641 0.929 . S
C630 C626 1.531 . S
C630 H642 0.960 . S
C630 H643 0.962 1_556 S
C630 H644 0.960 . S
C631 C628 1.511 . S
C631 H645 0.961 . S
C631 H646 0.961 1_556 S
C631 H647 0.961 . S
C632 C633 1.370 . S
C632 C634 1.363 . S
C632 H648 0.931 . S
C633 C632 1.370 . S
C633 C637 1.408 . S
C634 C632 1.363 . S
C634 C635 1.370 . S
C634 C638 1.524 1_565 S
C635 C627 1.503 1_554 S
C635 C634 1.370 . S
C635 C636 1.403 . S
C636 C635 1.403 . S
C636 C637 1.404 . S
C636 C639 1.539 1_554 S
C637 C633 1.408 . S
C637 C636 1.404 . S
C637 H649 0.930 . S
C638 C634 1.524 1_545 S
C638 H650 0.956 1_545 S
C638 H651 0.961 . S
C638 H652 0.961 . S
C639 C636 1.539 1_556 S
C639 H653 0.958 . S
C639 H654 0.961 . S
C639 H655 0.960 . S
H640 C624 0.931 . S
H641 C629 0.929 . S
H642 C630 0.960 . S
H643 C630 0.962 1_554 S
H644 C630 0.960 . S
H645 C631 0.961 . S
H646 C631 0.961 1_554 S
H647 C631 0.961 . S
H648 C632 0.931 . S
H649 C637 0.930 . S
H650 C638 0.956 1_565 S
H651 C638 0.961 . S
H652 C638 0.961 . S
H653 C639 0.958 . S
H654 C639 0.961 . S
H655 C639 0.960 . S
C656 C657 1.391 . S
C656 C658 1.394 . S
C656 H672 0.931 . S
C657 C656 1.391 . S
C657 C661 1.376 . S
C658 C656 1.394 . S
C658 C659 1.369 . S
C658 C662 1.531 . S
C659 C658 1.369 . S
C659 C660 1.410 . S
C659 C667 1.503 . S
C660 C659 1.410 . S
C660 C661 1.392 . S
C660 C663 1.511 . S
C661 C657 1.376 . S
C661 C660 1.392 . S
C661 H673 0.929 . S
C662 C658 1.531 . S
C662 H674 0.960 . S
C662 H675 0.962 . S
C662 H676 0.960 . S
C663 C660 1.511 . S
C663 H677 0.961 . S
C663 H678 0.961 . S
C663 H679 0.961 . S
C664 C665 1.370 . S
C664 C666 1.363 . S
C664 H680 0.931 . S
C665 C664 1.370 . S
C665 C669 1.408 . S
C666 C664 1.363 . S
C666 C667 1.370 . S
C666 C670 1.524 . S
C667 C659 1.503 . S
C667 C666 1.370 . S
C667 C668 1.403 . S
C668 C667 1.403 . S
C668 C669 1.404 . S
C668 C671 1.539 . S
C669 C665 1.408 . S
C669 C668 1.404 . S
C669 H681 0.930 . S
C670 C666 1.524 . S
C670 H682 0.956 . S
C670 H683 0.961 . S
C670 H684 0.961 . S
C671 C668 1.539 . S
C671 H685 0.958 . S
C671 H686 0.961 . S
C671 H687 0.960 . S
H672 C656 0.931 . S
H673 C661 0.929 . S
H674 C662 0.960 . S
H675 C662 0.962 . S
H676 C662 0.960 . S
H677 C663 0.961 . S
H678 C663 0.961 . S
H679 C663 0.961 . S
H680 C664 0.931 . S
H681 C669 0.930 . S
H682 C670 0.956 . S
H683 C670 0.961 . S
H684 C670 0.961 . S
H685 C671 0.958 . S
H686 C671 0.961 . S
H687 C671 0.960 . S
C688 C689 1.391 . S
C688 C690 1.394 . S
C688 H704 0.931 . S
C689 C688 1.391 . S
C689 C693 1.376 . S
C690 C688 1.394 . S
C690 C691 1.369 . S
C690 C694 1.531 . S
C691 C690 1.369 . S
C691 C692 1.410 . S
C691 C699 1.503 . S
C692 C691 1.410 . S
C692 C693 1.392 . S
C692 C695 1.511 1_565 S
C693 C689 1.376 . S
C693 C692 1.392 . S
C693 H705 0.929 . S
C694 C690 1.531 . S
C694 H706 0.960 . S
C694 H707 0.962 . S
C694 H708 0.960 . S
C695 C692 1.511 1_545 S
C695 H709 0.961 . S
C695 H710 0.961 . S
C695 H711 0.961 1_545 S
C696 C697 1.370 . S
C696 C698 1.363 . S
C696 H712 0.931 . S
C697 C696 1.370 . S
C697 C701 1.408 . S
C698 C696 1.363 . S
C698 C699 1.370 1_545 S
C698 C702 1.524 . S
C699 C691 1.503 . S
C699 C698 1.370 1_565 S
C699 C700 1.403 . S
C700 C699 1.403 . S
C700 C701 1.404 1_565 S
C700 C703 1.539 . S
C701 C697 1.408 . S
C701 C700 1.404 1_545 S
C701 H713 0.930 . S
C702 C698 1.524 . S
C702 H714 0.956 . S
C702 H715 0.961 . S
C702 H716 0.961 . S
C703 C700 1.539 . S
C703 H717 0.958 . S
C703 H718 0.961 . S
C703 H719 0.960 . S
H704 C688 0.931 . S
H705 C693 0.929 . S
H706 C694 0.960 . S
H707 C694 0.962 . S
H708 C694 0.960 . S
H709 C695 0.961 . S
H710 C695 0.961 . S
H711 C695 0.961 1_565 S
H712 C696 0.931 . S
H713 C701 0.930 . S
H714 C702 0.956 . S
H715 C702 0.961 . S
H716 C702 0.961 . S
H717 C703 0.958 . S
H718 C703 0.961 . S
H719 C703 0.960 . S
C720 C721 1.391 . S
C720 C722 1.394 . S
C720 H736 0.931 . S
C721 C720 1.391 . S
C721 C725 1.376 . S
C722 C720 1.394 . S
C722 C723 1.369 . S
C722 C726 1.531 . S
C723 C722 1.369 . S
C723 C724 1.410 . S
C723 C731 1.503 . S
C724 C723 1.410 . S
C724 C725 1.392 . S
C724 C727 1.511 . S
C725 C721 1.376 . S
C725 C724 1.392 . S
C725 H737 0.929 . S
C726 C722 1.531 . S
C726 H738 0.960 . S
C726 H739 0.962 . S
C726 H740 0.960 . S
C727 C724 1.511 . S
C727 H741 0.961 . S
C727 H742 0.961 . S
C727 H743 0.961 . S
C728 C729 1.370 . S
C728 C730 1.363 . S
C728 H744 0.931 . S
C729 C728 1.370 . S
C729 C733 1.408 . S
C730 C728 1.363 . S
C730 C731 1.370 . S
C730 C734 1.524 . S
C731 C723 1.503 . S
C731 C730 1.370 . S
C731 C732 1.403 . S
C732 C731 1.403 . S
C732 C733 1.404 . S
C732 C735 1.539 . S
C733 C729 1.408 . S
C733 C732 1.404 . S
C733 H745 0.930 . S
C734 C730 1.524 . S
C734 H746 0.956 . S
C734 H747 0.961 . S
C734 H748 0.961 . S
C735 C732 1.539 . S
C735 H749 0.958 . S
C735 H750 0.961 . S
C735 H751 0.960 . S
H736 C720 0.931 . S
H737 C725 0.929 . S
H738 C726 0.960 . S
H739 C726 0.962 . S
H740 C726 0.960 . S
H741 C727 0.961 . S
H742 C727 0.961 . S
H743 C727 0.961 . S
H744 C728 0.931 . S
H745 C733 0.930 . S
H746 C734 0.956 . S
H747 C734 0.961 . S
H748 C734 0.961 . S
H749 C735 0.958 . S
H750 C735 0.961 . S
H751 C735 0.960 . S
C752 C753 1.391 . S
C752 C754 1.394 . S
C752 H768 0.931 . S
C753 C752 1.391 . S
C753 C757 1.376 . S
C754 C752 1.394 . S
C754 C755 1.369 1_455 S
C754 C758 1.531 1_544 S
C755 C754 1.369 1_655 S
C755 C756 1.410 . S
C755 C763 1.503 1_554 S
C756 C755 1.410 . S
C756 C757 1.392 1_655 S
C756 C759 1.511 . S
C757 C753 1.376 . S
C757 C756 1.392 1_455 S
C757 H769 0.941 . S
C758 C754 1.531 1_566 S
C758 H770 0.960 . S
C758 H771 0.962 1_565 S
C758 H772 0.960 . S
C759 C756 1.511 . S
C759 H773 0.961 . S
C759 H774 0.961 . S
C759 H775 0.961 . S
C760 C761 1.370 . S
C760 C762 1.363 1_565 S
C760 H776 0.924 1_565 S
C761 C760 1.370 . S
C761 C765 1.408 . S
C762 C760 1.363 1_545 S
C762 C763 1.370 . S
C762 C766 1.524 . S
C763 C755 1.503 1_556 S
C763 C762 1.370 . S
C763 C764 1.403 1_546 S
C764 C763 1.403 1_564 S
C764 C765 1.404 1_554 S
C764 C767 1.539 . S
C765 C761 1.408 . S
C765 C764 1.404 1_556 S
C765 H777 0.930 . S
C766 C762 1.524 . S
C766 H778 0.956 . S
C766 H779 0.961 . S
C766 H780 0.961 . S
C767 C764 1.539 . S
C767 H781 0.958 . S
C767 H782 0.961 . S
C767 H783 0.960 . S
H768 C752 0.931 . S
H769 C757 0.941 . S
H770 C758 0.960 . S
H771 C758 0.962 1_545 S
H772 C758 0.960 . S
H773 C759 0.961 . S
H774 C759 0.961 . S
H775 C759 0.961 . S
H776 C760 0.924 1_545 S
H777 C765 0.930 . S
H778 C766 0.956 . S
H779 C766 0.961 . S
H780 C766 0.961 . S
H781 C767 0.958 . S
H782 C767 0.961 . S
H783 C767 0.960 . S
C784 C785 1.391 . S
C784 C786 1.394 . S
C784 H800 0.931 . S
C785 C784 1.391 . S
C785 C789 1.376 . S
C786 C784 1.394 . S
C786 C787 1.369 . S
C786 C790 1.531 . S
C787 C786 1.369 . S
C787 C788 1.410 . S
C787 C795 1.503 . S
C788 C787 1.410 . S
C788 C789 1.392 . S
C788 C791 1.511 . S
C789 C785 1.376 . S
C789 C788 1.392 . S
C789 H801 0.929 . S
C790 C786 1.531 . S
C790 H802 0.960 . S
C790 H803 0.962 . S
C790 H804 0.960 . S
C791 C788 1.511 . S
C791 H805 0.961 . S
C791 H806 0.961 . S
C791 H807 0.961 . S
C792 C793 1.370 . S
C792 C794 1.363 . S
C792 H808 0.931 . S
C793 C792 1.370 . S
C793 C797 1.408 . S
C794 C792 1.363 . S
C794 C795 1.370 . S
C794 C798 1.524 . S
C795 C787 1.503 . S
C795 C794 1.370 . S
C795 C796 1.403 . S
C796 C795 1.403 . S
C796 C797 1.404 . S
C796 C799 1.539 . S
C797 C793 1.408 . S
C797 C796 1.404 . S
C797 H809 0.930 . S
C798 C794 1.524 . S
C798 H810 0.956 . S
C798 H811 0.961 . S
C798 H812 0.961 . S
C799 C796 1.539 . S
C799 H813 0.958 . S
C799 H814 0.961 . S
C799 H815 0.960 . S
H800 C784 0.931 . S
H801 C789 0.929 . S
H802 C790 0.960 . S
H803 C790 0.962 . S
H804 C790 0.960 . S
H805 C791 0.961 . S
H806 C791 0.961 . S
H807 C791 0.961 . S
H808 C792 0.931 . S
H809 C797 0.930 . S
H810 C798 0.956 . S
H811 C798 0.961 . S
H812 C798 0.961 . S
H813 C799 0.958 . S
H814 C799 0.961 . S
H815 C799 0.960 . S
C816 C817 1.391 . S
C816 C818 1.394 . S
C816 H832 0.931 . S
C817 C816 1.391 . S
C817 C821 1.376 . S
C818 C816 1.394 . S
C818 C819 1.369 . S
C818 C822 1.531 1_456 S
C819 C818 1.369 . S
C819 C820 1.410 . S
C819 C827 1.503 1_556 S
C820 C819 1.410 . S
C820 C821 1.392 . S
C820 C823 1.511 . S
C821 C817 1.376 . S
C821 C820 1.392 . S
C821 H833 0.929 . S
C822 C818 1.531 1_654 S
C822 H834 0.960 . S
C822 H835 0.962 1_655 S
C822 H836 0.960 1_554 S
C823 C820 1.511 . S
C823 H837 0.961 . S
C823 H838 0.961 1_556 S
C823 H839 0.961 . S
C824 C825 1.370 1_455 S
C824 C826 1.363 . S
C824 H840 0.931 . S
C825 C824 1.370 1_655 S
C825 C829 1.408 . S
C826 C824 1.363 . S
C826 C827 1.370 . S
C826 C830 1.524 . S
C827 C819 1.503 1_554 S
C827 C826 1.370 . S
C827 C828 1.403 1_455 S
C828 C827 1.403 1_655 S
C828 C829 1.404 . S
C828 C831 1.539 1_554 S
C829 C825 1.408 . S
C829 C828 1.404 . S
C829 H841 0.930 . S
C830 C826 1.524 . S
C830 H842 0.956 . S
C830 H843 0.961 . S
C830 H844 0.961 . S
C831 C828 1.539 1_556 S
C831 H845 0.958 . S
C831 H846 0.961 . S
C831 H847 0.960 . S
H832 C816 0.931 . S
H833 C821 0.929 . S
H834 C822 0.960 . S
H835 C822 0.962 1_455 S
H836 C822 0.960 1_556 S
H837 C823 0.961 . S
H838 C823 0.961 1_554 S
H839 C823 0.961 . S
H840 C824 0.931 . S
H841 C829 0.930 . S
H842 C830 0.956 . S
H843 C830 0.961 . S
H844 C830 0.961 . S
H845 C831 0.958 . S
H846 C831 0.961 . S
H847 C831 0.960 . S
C848 C849 1.391 . S
C848 C850 1.394 . S
C848 H864 0.931 . S
C849 C848 1.391 . S
C849 C853 1.376 . S
C850 C848 1.394 . S
C850 C851 1.369 . S
C850 C854 1.531 . S
C851 C850 1.369 . S
C851 C852 1.410 . S
C851 C859 1.503 . S
C852 C851 1.410 . S
C852 C853 1.392 . S
C852 C855 1.511 . S
C853 C849 1.376 . S
C853 C852 1.392 . S
C853 H865 0.929 . S
C854 C850 1.531 . S
C854 H866 0.960 . S
C854 H867 0.962 . S
C854 H868 0.960 . S
C855 C852 1.511 . S
C855 H869 0.961 . S
C855 H870 0.961 . S
C855 H871 0.961 . S
C856 C857 1.370 . S
C856 C858 1.363 . S
C856 H872 0.931 . S
C857 C856 1.370 . S
C857 C861 1.408 . S
C858 C856 1.363 . S
C858 C859 1.370 . S
C858 C862 1.524 . S
C859 C851 1.503 . S
C859 C858 1.370 . S
C859 C860 1.403 . S
C860 C859 1.403 . S
C860 C861 1.404 . S
C860 C863 1.539 . S
C861 C857 1.408 . S
C861 C860 1.404 . S
C861 H873 0.930 . S
C862 C858 1.524 . S
C862 H874 0.956 . S
C862 H875 0.961 . S
C862 H876 0.961 . S
C863 C860 1.539 . S
C863 H877 0.958 . S
C863 H878 0.961 . S
C863 H879 0.960 . S
H864 C848 0.931 . S
H865 C853 0.929 . S
H866 C854 0.960 . S
H867 C854 0.962 . S
H868 C854 0.960 . S
H869 C855 0.961 . S
H870 C855 0.961 . S
H871 C855 0.961 . S
H872 C856 0.931 . S
H873 C861 0.930 . S
H874 C862 0.956 . S
H875 C862 0.961 . S
H876 C862 0.961 . S
H877 C863 0.958 . S
H878 C863 0.961 . S
H879 C863 0.960 . S
C880 C881 1.391 . S
C880 C882 1.394 . S
C880 H896 0.931 . S
C881 C880 1.391 . S
C881 C885 1.376 . S
C882 C880 1.394 . S
C882 C883 1.369 . S
C882 C886 1.531 1_655 S
C883 C882 1.369 . S
C883 C884 1.410 . S
C883 C891 1.503 . S
C884 C883 1.410 . S
C884 C885 1.392 . S
C884 C887 1.511 . S
C885 C881 1.376 . S
C885 C884 1.392 . S
C885 H897 0.929 . S
C886 C882 1.531 1_455 S
C886 H898 0.960 . S
C886 H899 0.962 . S
C886 H900 0.960 . S
C887 C884 1.511 . S
C887 H901 0.961 . S
C887 H902 0.961 . S
C887 H903 0.961 . S
C888 C889 1.370 . S
C888 C890 1.363 1_455 S
C888 H904 0.931 . S
C889 C888 1.370 . S
C889 C893 1.408 . S
C890 C888 1.363 1_655 S
C890 C891 1.370 . S
C890 C894 1.524 . S
C891 C883 1.503 . S
C891 C890 1.370 . S
C891 C892 1.403 1_655 S
C892 C891 1.403 1_455 S
C892 C893 1.404 . S
C892 C895 1.539 . S
C893 C889 1.408 . S
C893 C892 1.404 . S
C893 H905 0.930 . S
C894 C890 1.524 . S
C894 H906 0.956 . S
C894 H907 0.961 . S
C894 H908 0.961 . S
C895 C892 1.539 . S
C895 H909 0.958 . S
C895 H910 0.961 . S
C895 H911 0.960 1_455 S
H896 C880 0.931 . S
H897 C885 0.929 . S
H898 C886 0.960 . S
H899 C886 0.962 . S
H900 C886 0.960 . S
H901 C887 0.961 . S
H902 C887 0.961 . S
H903 C887 0.961 . S
H904 C888 0.931 . S
H905 C893 0.930 . S
H906 C894 0.956 . S
H907 C894 0.961 . S
H908 C894 0.961 . S
H909 C895 0.958 . S
H910 C895 0.961 . S
H911 C895 0.960 1_655 S
C912 C913 1.391 . S
C912 C914 1.394 . S
C912 H928 0.931 . S
C913 C912 1.391 . S
C913 C917 1.376 . S
C914 C912 1.394 . S
C914 C915 1.369 . S
C914 C918 1.531 1_556 S
C915 C914 1.369 . S
C915 C916 1.410 . S
C915 C923 1.503 . S
C916 C915 1.410 . S
C916 C917 1.392 . S
C916 C919 1.511 . S
C917 C913 1.376 . S
C917 C916 1.392 . S
C917 H929 0.929 . S
C918 C914 1.531 1_554 S
C918 H930 0.960 . S
C918 H931 0.962 . S
C918 H932 0.960 . S
C919 C916 1.511 . S
C919 H933 0.961 . S
C919 H934 0.961 . S
C919 H935 0.961 . S
C920 C921 1.370 . S
C920 C922 1.363 . S
C920 H936 0.931 . S
C921 C920 1.370 . S
C921 C925 1.408 . S
C922 C920 1.363 . S
C922 C923 1.370 1_554 S
C922 C926 1.524 . S
C923 C915 1.503 . S
C923 C922 1.370 1_556 S
C923 C924 1.403 . S
C924 C923 1.403 . S
C924 C925 1.404 1_556 S
C924 C927 1.539 . S
C925 C921 1.408 . S
C925 C924 1.404 1_554 S
C925 H937 0.930 . S
C926 C922 1.524 . S
C926 H938 0.956 . S
C926 H939 0.961 1_554 S
C926 H940 0.961 . S
C927 C924 1.539 . S
C927 H941 0.958 . S
C927 H942 0.961 . S
C927 H943 0.960 . S
H928 C912 0.931 . S
H929 C917 0.929 . S
H930 C918 0.960 . S
H931 C918 0.962 . S
H932 C918 0.960 . S
H933 C919 0.961 . S
H934 C919 0.961 . S
H935 C919 0.961 . S
H936 C920 0.931 . S
H937 C925 0.930 . S
H938 C926 0.956 . S
H939 C926 0.961 1_556 S
H940 C926 0.961 . S
H941 C927 0.958 . S
H942 C927 0.961 . S
H943 C927 0.960 . S
C944 C945 1.391 . S
C944 C946 1.394 . S
C944 H960 0.931 . S
C945 C944 1.391 . S
C945 C949 1.376 . S
C946 C944 1.394 . S
C946 C947 1.369 . S
C946 C950 1.531 . S
C947 C946 1.369 . S
C947 C948 1.410 . S
C947 C955 1.503 . S
C948 C947 1.410 . S
C948 C949 1.392 . S
C948 C951 1.511 . S
C949 C945 1.376 . S
C949 C948 1.392 . S
C949 H961 0.929 . S
C950 C946 1.531 . S
C950 H962 0.960 . S
C950 H963 0.962 . S
C950 H964 0.960 . S
C951 C948 1.511 . S
C951 H965 0.961 . S
C951 H966 0.961 . S
C951 H967 0.961 . S
C952 C953 1.370 . S
C952 C954 1.363 . S
C952 H968 0.931 . S
C953 C952 1.370 . S
C953 C957 1.408 . S
C954 C952 1.363 . S
C954 C955 1.370 . S
C954 C958 1.524 . S
C955 C947 1.503 . S
C955 C954 1.370 . S
C955 C956 1.403 . S
C956 C955 1.403 . S
C956 C957 1.404 . S
C956 C959 1.539 . S
C957 C953 1.408 . S
C957 C956 1.404 . S
C957 H969 0.930 . S
C958 C954 1.524 . S
C958 H970 0.956 . S
C958 H971 0.961 . S
C958 H972 0.961 . S
C959 C956 1.539 . S
C959 H973 0.958 . S
C959 H974 0.961 . S
C959 H975 0.960 . S
H960 C944 0.931 . S
H961 C949 0.929 . S
H962 C950 0.960 . S
H963 C950 0.962 . S
H964 C950 0.960 . S
H965 C951 0.961 . S
H966 C951 0.961 . S
H967 C951 0.961 . S
H968 C952 0.931 . S
H969 C957 0.930 . S
H970 C958 0.956 . S
H971 C958 0.961 . S
H972 C958 0.961 . S
H973 C959 0.958 . S
H974 C959 0.961 . S
H975 C959 0.960 . S
C976 C977 1.391 . S
C976 C978 1.394 . S
C976 H992 0.931 . S
C977 C976 1.391 . S
C977 C981 1.376 . S
C978 C976 1.394 . S
C978 C979 1.369 . S
C978 C982 1.531 . S
C979 C978 1.369 . S
C979 C980 1.410 . S
C979 C987 1.503 . S
C980 C979 1.410 . S
C980 C981 1.392 . S
C980 C983 1.511 . S
C981 C977 1.376 . S
C981 C980 1.392 . S
C981 H993 0.929 . S
C982 C978 1.531 . S
C982 H994 0.960 . S
C982 H995 0.962 . S
C982 H996 0.960 . S
C983 C980 1.511 . S
C983 H997 0.961 . S
C983 H998 0.961 . S
C983 H999 0.961 . S
C984 C985 1.370 . S
C984 C986 1.363 . S
C984 H1000 0.931 . S
C985 C984 1.370 . S
C985 C989 1.408 . S
C986 C984 1.363 . S
C986 C987 1.370 . S
C986 C990 1.524 . S
C987 C979 1.503 . S
C987 C986 1.370 . S
C987 C988 1.403 . S
C988 C987 1.403 . S
C988 C989 1.404 . S
C988 C991 1.539 . S
C989 C985 1.408 . S
C989 C988 1.404 . S
C989 H1001 0.930 . S
C990 C986 1.524 . S
C990 H1002 0.956 . S
C990 H1003 0.961 . S
C990 H1004 0.961 . S
C991 C988 1.539 . S
C991 H1005 0.958 . S
C991 H1006 0.961 . S
C991 H1007 0.960 . S
H992 C976 0.931 . S
H993 C981 0.929 . S
H994 C982 0.960 . S
H995 C982 0.962 . S
H996 C982 0.960 . S
H997 C983 0.961 . S
H998 C983 0.961 . S
H999 C983 0.961 . S
H1000 C984 0.931 . S
H1001 C989 0.930 . S
H1002 C990 0.956 . S
H1003 C990 0.961 . S
H1004 C990 0.961 . S
H1005 C991 0.958 . S
H1006 C991 0.961 . S
H1007 C991 0.960 . S
C1008 C1009 1.391 . S
C1008 C1010 1.394 . S
C1008 H1024 0.931 . S
C1009 C1008 1.391 . S
C1009 C1013 1.376 . S
C1010 C1008 1.394 . S
C1010 C1011 1.369 . S
C1010 C1014 1.531 . S
C1011 C1010 1.369 . S
C1011 C1012 1.410 . S
C1011 C1019 1.503 . S
C1012 C1011 1.410 . S
C1012 C1013 1.392 . S
C1012 C1015 1.511 . S
C1013 C1009 1.376 . S
C1013 C1012 1.392 . S
C1013 H1025 0.929 . S
C1014 C1010 1.531 . S
C1014 H1026 0.960 . S
C1014 H1027 0.962 . S
C1014 H1028 0.960 . S
C1015 C1012 1.511 . S
C1015 H1029 0.961 . S
C1015 H1030 0.961 . S
C1015 H1031 0.961 . S
C1016 C1017 1.370 . S
C1016 C1018 1.363 . S
C1016 H1032 0.931 . S
C1017 C1016 1.370 . S
C1017 C1021 1.408 . S
C1018 C1016 1.363 . S
C1018 C1019 1.370 . S
C1018 C1022 1.524 . S
C1019 C1011 1.503 . S
C1019 C1018 1.370 . S
C1019 C1020 1.403 . S
C1020 C1019 1.403 . S
C1020 C1021 1.404 . S
C1020 C1023 1.539 . S
C1021 C1017 1.408 . S
C1021 C1020 1.404 . S
C1021 H1033 0.930 . S
C1022 C1018 1.524 . S
C1022 H1034 0.956 . S
C1022 H1035 0.961 . S
C1022 H1036 0.961 . S
C1023 C1020 1.539 . S
C1023 H1037 0.958 . S
C1023 H1038 0.961 . S
C1023 H1039 0.960 . S
H1024 C1008 0.931 . S
H1025 C1013 0.929 . S
H1026 C1014 0.960 . S
H1027 C1014 0.962 . S
H1028 C1014 0.960 . S
H1029 C1015 0.961 . S
H1030 C1015 0.961 . S
H1031 C1015 0.961 . S
H1032 C1016 0.931 . S
H1033 C1021 0.930 . S
H1034 C1022 0.956 . S
H1035 C1022 0.961 . S
H1036 C1022 0.961 . S
H1037 C1023 0.958 . S
H1038 C1023 0.961 . S
H1039 C1023 0.960 . S
C1040 C1041 1.391 . S
C1040 C1042 1.394 . S
C1040 H1056 0.931 . S
C1041 C1040 1.391 . S
C1041 C1045 1.376 . S
C1042 C1040 1.394 . S
C1042 C1043 1.369 . S
C1042 C1046 1.531 1_545 S
C1043 C1042 1.369 . S
C1043 C1044 1.410 . S
C1043 C1051 1.503 1_545 S
C1044 C1043 1.410 . S
C1044 C1045 1.392 . S
C1044 C1047 1.511 . S
C1045 C1041 1.376 . S
C1045 C1044 1.392 . S
C1045 H1057 0.929 . S
C1046 C1042 1.531 1_565 S
C1046 H1058 0.960 . S
C1046 H1059 0.962 . S
C1046 H1060 0.960 . S
C1047 C1044 1.511 . S
C1047 H1061 0.961 . S
C1047 H1062 0.961 . S
C1047 H1063 0.961 . S
C1048 C1049 1.370 . S
C1048 C1050 1.363 . S
C1048 H1064 0.931 . S
C1049 C1048 1.370 . S
C1049 C1053 1.408 . S
C1050 C1048 1.363 . S
C1050 C1051 1.370 . S
C1050 C1054 1.524 1_565 S
C1051 C1043 1.503 1_565 S
C1051 C1050 1.370 . S
C1051 C1052 1.403 . S
C1052 C1051 1.403 . S
C1052 C1053 1.404 . S
C1052 C1055 1.539 . S
C1053 C1049 1.408 . S
C1053 C1052 1.404 . S
C1053 H1065 0.930 . S
C1054 C1050 1.524 1_545 S
C1054 H1066 0.956 . S
C1054 H1067 0.961 . S
C1054 H1068 0.961 . S
C1055 C1052 1.539 . S
C1055 H1069 0.958 . S
C1055 H1070 0.961 . S
C1055 H1071 0.960 . S
H1056 C1040 0.931 . S
H1057 C1045 0.929 . S
H1058 C1046 0.960 . S
H1059 C1046 0.962 . S
H1060 C1046 0.960 . S
H1061 C1047 0.961 . S
H1062 C1047 0.961 . S
H1063 C1047 0.961 . S
H1064 C1048 0.931 . S
H1065 C1053 0.930 . S
H1066 C1054 0.956 . S
H1067 C1054 0.961 . S
H1068 C1054 0.961 . S
H1069 C1055 0.958 . S
H1070 C1055 0.961 . S
H1071 C1055 0.960 . S
C1072 C1073 1.391 . S
C1072 C1074 1.394 . S
C1072 H1088 0.931 . S
C1073 C1072 1.391 . S
C1073 C1077 1.376 . S
C1074 C1072 1.394 . S
C1074 C1075 1.369 . S
C1074 C1078 1.531 . S
C1075 C1074 1.369 . S
C1075 C1076 1.410 . S
C1075 C1083 1.503 . S
C1076 C1075 1.410 . S
C1076 C1077 1.392 . S
C1076 C1079 1.511 . S
C1077 C1073 1.376 . S
C1077 C1076 1.392 . S
C1077 H1089 0.929 . S
C1078 C1074 1.531 . S
C1078 H1090 0.960 . S
C1078 H1091 0.962 . S
C1078 H1092 0.960 . S
C1079 C1076 1.511 . S
C1079 H1093 0.961 . S
C1079 H1094 0.961 . S
C1079 H1095 0.961 . S
C1080 C1081 1.370 . S
C1080 C1082 1.363 . S
C1080 H1096 0.931 . S
C1081 C1080 1.370 . S
C1081 C1085 1.408 . S
C1082 C1080 1.363 . S
C1082 C1083 1.370 . S
C1082 C1086 1.524 . S
C1083 C1075 1.503 . S
C1083 C1082 1.370 . S
C1083 C1084 1.403 . S
C1084 C1083 1.403 . S
C1084 C1085 1.404 . S
C1084 C1087 1.539 . S
C1085 C1081 1.408 . S
C1085 C1084 1.404 . S
C1085 H1097 0.930 . S
C1086 C1082 1.524 . S
C1086 H1098 0.956 . S
C1086 H1099 0.961 . S
C1086 H1100 0.961 . S
C1087 C1084 1.539 . S
C1087 H1101 0.958 . S
C1087 H1102 0.961 . S
C1087 H1103 0.960 . S
H1088 C1072 0.931 . S
H1089 C1077 0.929 . S
H1090 C1078 0.960 . S
H1091 C1078 0.962 . S
H1092 C1078 0.960 . S
H1093 C1079 0.961 . S
H1094 C1079 0.961 . S
H1095 C1079 0.961 . S
H1096 C1080 0.931 . S
H1097 C1085 0.930 . S
H1098 C1086 0.956 . S
H1099 C1086 0.961 . S
H1100 C1086 0.961 . S
H1101 C1087 0.958 . S
H1102 C1087 0.961 . S
H1103 C1087 0.960 . S
C1104 C1105 1.391 . S
C1104 C1106 1.394 . S
C1104 H1120 0.931 . S
C1105 C1104 1.391 . S
C1105 C1109 1.376 . S
C1106 C1104 1.394 . S
C1106 C1107 1.369 . S
C1106 C1110 1.531 1_565 S
C1107 C1106 1.369 . S
C1107 C1108 1.410 . S
C1107 C1115 1.503 . S
C1108 C1107 1.410 . S
C1108 C1109 1.392 . S
C1108 C1111 1.511 . S
C1109 C1105 1.376 . S
C1109 C1108 1.392 . S
C1109 H1121 0.929 . S
C1110 C1106 1.531 1_545 S
C1110 H1122 0.960 . S
C1110 H1123 0.962 . S
C1110 H1124 0.960 . S
C1111 C1108 1.511 . S
C1111 H1125 0.961 . S
C1111 H1126 0.961 . S
C1111 H1127 0.961 . S
C1112 C1113 1.370 . S
C1112 C1114 1.363 1_545 S
C1112 H1128 0.931 . S
C1113 C1112 1.370 . S
C1113 C1117 1.408 . S
C1114 C1112 1.363 1_565 S
C1114 C1115 1.370 . S
C1114 C1118 1.524 . S
C1115 C1107 1.503 . S
C1115 C1114 1.370 . S
C1115 C1116 1.403 1_565 S
C1116 C1115 1.403 1_545 S
C1116 C1117 1.404 . S
C1116 C1119 1.539 . S
C1117 C1113 1.408 . S
C1117 C1116 1.404 . S
C1117 H1129 0.930 . S
C1118 C1114 1.524 . S
C1118 H1130 0.956 . S
C1118 H1131 0.961 . S
C1118 H1132 0.961 . S
C1119 C1116 1.539 . S
C1119 H1133 0.958 . S
C1119 H1134 0.961 . S
C1119 H1135 0.960 1_545 S
H1120 C1104 0.931 . S
H1121 C1109 0.929 . S
H1122 C1110 0.960 . S
H1123 C1110 0.962 . S
H1124 C1110 0.960 . S
H1125 C1111 0.961 . S
H1126 C1111 0.961 . S
H1127 C1111 0.961 . S
H1128 C1112 0.931 . S
H1129 C1117 0.930 . S
H1130 C1118 0.956 . S
H1131 C1118 0.961 . S
H1132 C1118 0.961 . S
H1133 C1119 0.958 . S
H1134 C1119 0.961 . S
H1135 C1119 0.960 1_565 S
C1136 C1137 1.391 . S
C1136 C1138 1.394 . S
C1136 H1152 0.931 . S
C1137 C1136 1.391 . S
C1137 C1141 1.376 . S
C1138 C1136 1.394 . S
C1138 C1139 1.369 . S
C1138 C1142 1.531 1_556 S
C1139 C1138 1.369 . S
C1139 C1140 1.410 . S
C1139 C1147 1.503 1_556 S
C1140 C1139 1.410 . S
C1140 C1141 1.392 . S
C1140 C1143 1.511 . S
C1141 C1137 1.376 . S
C1141 C1140 1.392 . S
C1141 H1153 0.929 . S
C1142 C1138 1.531 1_554 S
C1142 H1154 0.960 . S
C1142 H1155 0.962 . S
C1142 H1156 0.960 . S
C1143 C1140 1.511 . S
C1143 H1157 0.961 . S
C1143 H1158 0.961 . S
C1143 H1159 0.961 . S
C1144 C1145 1.370 . S
C1144 C1146 1.363 . S
C1144 H1160 0.931 . S
C1145 C1144 1.370 . S
C1145 C1149 1.408 . S
C1146 C1144 1.363 . S
C1146 C1147 1.370 . S
C1146 C1150 1.524 1_554 S
C1147 C1139 1.503 1_554 S
C1147 C1146 1.370 . S
C1147 C1148 1.403 . S
C1148 C1147 1.403 . S
C1148 C1149 1.404 . S
C1148 C1151 1.539 . S
C1149 C1145 1.408 . S
C1149 C1148 1.404 . S
C1149 H1161 0.930 . S
C1150 C1146 1.524 1_556 S
C1150 H1162 0.956 1_556 S
C1150 H1163 0.961 . S
C1150 H1164 0.961 1_556 S
C1151 C1148 1.539 . S
C1151 H1165 0.958 . S
C1151 H1166 0.961 . S
C1151 H1167 0.960 1_554 S
H1152 C1136 0.931 . S
H1153 C1141 0.929 . S
H1154 C1142 0.960 . S
H1155 C1142 0.962 . S
H1156 C1142 0.960 . S
H1157 C1143 0.961 . S
H1158 C1143 0.961 . S
H1159 C1143 0.961 . S
H1160 C1144 0.931 . S
H1161 C1149 0.930 . S
H1162 C1150 0.956 1_554 S
H1163 C1150 0.961 . S
H1164 C1150 0.961 1_554 S
H1165 C1151 0.958 . S
H1166 C1151 0.961 . S
H1167 C1151 0.960 1_556 S
C1168 C1169 1.391 . S
C1168 C1170 1.394 . S
C1168 H1184 0.931 . S
C1169 C1168 1.391 . S
C1169 C1173 1.376 . S
C1170 C1168 1.394 . S
C1170 C1171 1.369 . S
C1170 C1174 1.531 1_455 S
C1171 C1170 1.369 . S
C1171 C1172 1.410 . S
C1171 C1179 1.503 1_455 S
C1172 C1171 1.410 . S
C1172 C1173 1.392 . S
C1172 C1175 1.511 . S
C1173 C1169 1.376 . S
C1173 C1172 1.392 . S
C1173 H1185 0.929 . S
C1174 C1170 1.531 1_655 S
C1174 H1186 0.960 . S
C1174 H1187 0.962 . S
C1174 H1188 0.960 . S
C1175 C1172 1.511 . S
C1175 H1189 0.961 . S
C1175 H1190 0.961 . S
C1175 H1191 0.961 . S
C1176 C1177 1.370 . S
C1176 C1178 1.363 . S
C1176 H1192 0.931 . S
C1177 C1176 1.370 . S
C1177 C1181 1.408 . S
C1178 C1176 1.363 . S
C1178 C1179 1.370 . S
C1178 C1182 1.524 . S
C1179 C1171 1.503 1_655 S
C1179 C1178 1.370 . S
C1179 C1180 1.403 . S
C1180 C1179 1.403 . S
C1180 C1181 1.404 . S
C1180 C1183 1.539 1_655 S
C1181 C1177 1.408 . S
C1181 C1180 1.404 . S
C1181 H1193 0.930 . S
C1182 C1178 1.524 . S
C1182 H1194 0.956 . S
C1182 H1195 0.961 1_655 S
C1182 H1196 0.961 . S
C1183 C1180 1.539 1_455 S
C1183 H1197 0.958 . S
C1183 H1198 0.961 . S
C1183 H1199 0.960 . S
H1184 C1168 0.931 . S
H1185 C1173 0.929 . S
H1186 C1174 0.960 . S
H1187 C1174 0.962 . S
H1188 C1174 0.960 . S
H1189 C1175 0.961 . S
H1190 C1175 0.961 . S
H1191 C1175 0.961 . S
H1192 C1176 0.931 . S
H1193 C1181 0.930 . S
H1194 C1182 0.956 . S
H1195 C1182 0.961 1_455 S
H1196 C1182 0.961 . S
H1197 C1183 0.958 . S
H1198 C1183 0.961 . S
H1199 C1183 0.960 . S
C1200 C1201 1.391 . S
C1200 C1202 1.394 . S
C1200 H1216 0.931 . S
C1201 C1200 1.391 . S
C1201 C1205 1.376 . S
C1202 C1200 1.394 . S
C1202 C1203 1.369 . S
C1202 C1206 1.531 . S
C1203 C1202 1.369 . S
C1203 C1204 1.410 . S
C1203 C1211 1.503 . S
C1204 C1203 1.410 . S
C1204 C1205 1.392 . S
C1204 C1207 1.511 . S
C1205 C1201 1.376 . S
C1205 C1204 1.392 . S
C1205 H1217 0.929 . S
C1206 C1202 1.531 . S
C1206 H1218 0.960 . S
C1206 H1219 0.962 . S
C1206 H1220 0.960 . S
C1207 C1204 1.511 . S
C1207 H1221 0.961 . S
C1207 H1222 0.961 . S
C1207 H1223 0.961 . S
C1208 C1209 1.370 . S
C1208 C1210 1.363 . S
C1208 H1224 0.931 . S
C1209 C1208 1.370 . S
C1209 C1213 1.408 . S
C1210 C1208 1.363 . S
C1210 C1211 1.370 . S
C1210 C1214 1.524 . S
C1211 C1203 1.503 . S
C1211 C1210 1.370 . S
C1211 C1212 1.403 . S
C1212 C1211 1.403 . S
C1212 C1213 1.404 . S
C1212 C1215 1.539 . S
C1213 C1209 1.408 . S
C1213 C1212 1.404 . S
C1213 H1225 0.930 . S
C1214 C1210 1.524 . S
C1214 H1226 0.956 . S
C1214 H1227 0.961 . S
C1214 H1228 0.961 . S
C1215 C1212 1.539 . S
C1215 H1229 0.958 . S
C1215 H1230 0.961 . S
C1215 H1231 0.960 . S
H1216 C1200 0.931 . S
H1217 C1205 0.929 . S
H1218 C1206 0.960 . S
H1219 C1206 0.962 . S
H1220 C1206 0.960 . S
H1221 C1207 0.961 . S
H1222 C1207 0.961 . S
H1223 C1207 0.961 . S
H1224 C1208 0.931 . S
H1225 C1213 0.930 . S
H1226 C1214 0.956 . S
H1227 C1214 0.961 . S
H1228 C1214 0.961 . S
H1229 C1215 0.958 . S
H1230 C1215 0.961 . S
H1231 C1215 0.960 . S
C1232 C1233 1.391 . S
C1232 C1234 1.394 . S
C1232 H1248 0.931 . S
C1233 C1232 1.391 . S
C1233 C1237 1.376 . S
C1234 C1232 1.394 . S
C1234 C1235 1.369 . S
C1234 C1238 1.531 . S
C1235 C1234 1.369 . S
C1235 C1236 1.410 . S
C1235 C1243 1.503 1_655 S
C1236 C1235 1.410 . S
C1236 C1237 1.392 . S
C1236 C1239 1.511 1_655 S
C1237 C1233 1.376 . S
C1237 C1236 1.392 . S
C1237 H1249 0.929 . S
C1238 C1234 1.531 . S
C1238 H1250 0.960 . S
C1238 H1251 0.962 . S
C1238 H1252 0.960 . S
C1239 C1236 1.511 1_455 S
C1239 H1253 0.961 . S
C1239 H1254 0.961 . S
C1239 H1255 0.961 . S
C1240 C1241 1.370 . S
C1240 C1242 1.363 . S
C1240 H1256 0.931 . S
C1241 C1240 1.370 . S
C1241 C1245 1.408 . S
C1242 C1240 1.363 . S
C1242 C1243 1.370 . S
C1242 C1246 1.524 1_455 S
C1243 C1235 1.503 1_455 S
C1243 C1242 1.370 . S
C1243 C1244 1.403 . S
C1244 C1243 1.403 . S
C1244 C1245 1.404 . S
C1244 C1247 1.539 . S
C1245 C1241 1.408 . S
C1245 C1244 1.404 . S
C1245 H1257 0.930 . S
C1246 C1242 1.524 1_655 S
C1246 H1258 0.956 . S
C1246 H1259 0.961 . S
C1246 H1260 0.961 . S
C1247 C1244 1.539 . S
C1247 H1261 0.958 . S
C1247 H1262 0.961 . S
C1247 H1263 0.960 . S
H1248 C1232 0.931 . S
H1249 C1237 0.929 . S
H1250 C1238 0.960 . S
H1251 C1238 0.962 . S
H1252 C1238 0.960 . S
H1253 C1239 0.961 . S
H1254 C1239 0.961 . S
H1255 C1239 0.961 . S
H1256 C1240 0.931 . S
H1257 C1245 0.930 . S
H1258 C1246 0.956 . S
H1259 C1246 0.961 . S
H1260 C1246 0.961 . S
H1261 C1247 0.958 . S
H1262 C1247 0.961 . S
H1263 C1247 0.960 . S
C1264 C1265 1.391 . S
C1264 C1266 1.394 . S
C1264 H1280 0.931 . S
C1265 C1264 1.391 . S
C1265 C1269 1.376 . S
C1266 C1264 1.394 . S
C1266 C1267 1.369 . S
C1266 C1270 1.531 . S
C1267 C1266 1.369 . S
C1267 C1268 1.410 . S
C1267 C1275 1.503 . S
C1268 C1267 1.410 . S
C1268 C1269 1.392 . S
C1268 C1271 1.511 . S
C1269 C1265 1.376 . S
C1269 C1268 1.392 . S
C1269 H1281 0.929 . S
C1270 C1266 1.531 . S
C1270 H1282 0.960 . S
C1270 H1283 0.962 . S
C1270 H1284 0.960 . S
C1271 C1268 1.511 . S
C1271 H1285 0.961 . S
C1271 H1286 0.961 . S
C1271 H1287 0.961 . S
C1272 C1273 1.370 . S
C1272 C1274 1.363 . S
C1272 H1288 0.931 . S
C1273 C1272 1.370 . S
C1273 C1277 1.408 . S
C1274 C1272 1.363 . S
C1274 C1275 1.370 . S
C1274 C1278 1.524 . S
C1275 C1267 1.503 . S
C1275 C1274 1.370 . S
C1275 C1276 1.403 . S
C1276 C1275 1.403 . S
C1276 C1277 1.404 . S
C1276 C1279 1.539 . S
C1277 C1273 1.408 . S
C1277 C1276 1.404 . S
C1277 H1289 0.930 . S
C1278 C1274 1.524 . S
C1278 H1290 0.956 . S
C1278 H1291 0.961 . S
C1278 H1292 0.961 . S
C1279 C1276 1.539 . S
C1279 H1293 0.958 . S
C1279 H1294 0.961 . S
C1279 H1295 0.960 . S
H1280 C1264 0.931 . S
H1281 C1269 0.929 . S
H1282 C1270 0.960 . S
H1283 C1270 0.962 . S
H1284 C1270 0.960 . S
H1285 C1271 0.961 . S
H1286 C1271 0.961 . S
H1287 C1271 0.961 . S
H1288 C1272 0.931 . S
H1289 C1277 0.930 . S
H1290 C1278 0.956 . S
H1291 C1278 0.961 . S
H1292 C1278 0.961 . S
H1293 C1279 0.958 . S
H1294 C1279 0.961 . S
H1295 C1279 0.960 . S
C1296 C1297 1.391 . S
C1296 C1298 1.394 . S
C1296 H1312 0.931 . S
C1297 C1296 1.391 . S
C1297 C1301 1.376 . S
C1298 C1296 1.394 . S
C1298 C1299 1.369 . S
C1298 C1302 1.531 1_545 S
C1299 C1298 1.369 . S
C1299 C1300 1.410 . S
C1299 C1307 1.503 1_545 S
C1300 C1299 1.410 . S
C1300 C1301 1.392 . S
C1300 C1303 1.511 . S
C1301 C1297 1.376 . S
C1301 C1300 1.392 . S
C1301 H1313 0.929 . S
C1302 C1298 1.531 1_565 S
C1302 H1314 0.960 . S
C1302 H1315 0.962 . S
C1302 H1316 0.960 . S
C1303 C1300 1.511 . S
C1303 H1317 0.961 . S
C1303 H1318 0.961 . S
C1303 H1319 0.961 . S
C1304 C1305 1.370 . S
C1304 C1306 1.363 . S
C1304 H1320 0.931 . S
C1305 C1304 1.370 . S
C1305 C1309 1.408 . S
C1306 C1304 1.363 . S
C1306 C1307 1.370 . S
C1306 C1310 1.524 . S
C1307 C1299 1.503 1_565 S
C1307 C1306 1.370 . S
C1307 C1308 1.403 . S
C1308 C1307 1.403 . S
C1308 C1309 1.404 . S
C1308 C1311 1.539 1_565 S
C1309 C1305 1.408 . S
C1309 C1308 1.404 . S
C1309 H1321 0.930 . S
C1310 C1306 1.524 . S
C1310 H1322 0.956 . S
C1310 H1323 0.961 . S
C1310 H1324 0.961 . S
C1311 C1308 1.539 1_545 S
C1311 H1325 0.958 . S
C1311 H1326 0.961 . S
C1311 H1327 0.960 . S
H1312 C1296 0.931 . S
H1313 C1301 0.929 . S
H1314 C1302 0.960 . S
H1315 C1302 0.962 . S
H1316 C1302 0.960 . S
H1317 C1303 0.961 . S
H1318 C1303 0.961 . S
H1319 C1303 0.961 . S
H1320 C1304 0.931 . S
H1321 C1309 0.930 . S
H1322 C1310 0.956 . S
H1323 C1310 0.961 . S
H1324 C1310 0.961 . S
H1325 C1311 0.958 . S
H1326 C1311 0.961 . S
H1327 C1311 0.960 . S
C1328 C1329 1.391 . S
C1328 C1330 1.394 . S
C1328 H1344 0.931 . S
C1329 C1328 1.391 . S
C1329 C1333 1.376 . S
C1330 C1328 1.394 . S
C1330 C1331 1.369 . S
C1330 C1334 1.531 . S
C1331 C1330 1.369 . S
C1331 C1332 1.410 . S
C1331 C1339 1.503 . S
C1332 C1331 1.410 . S
C1332 C1333 1.392 . S
C1332 C1335 1.511 . S
C1333 C1329 1.376 . S
C1333 C1332 1.392 . S
C1333 H1345 0.929 . S
C1334 C1330 1.531 . S
C1334 H1346 0.960 . S
C1334 H1347 0.962 . S
C1334 H1348 0.960 . S
C1335 C1332 1.511 . S
C1335 H1349 0.961 . S
C1335 H1350 0.961 . S
C1335 H1351 0.961 . S
C1336 C1337 1.370 . S
C1336 C1338 1.363 . S
C1336 H1352 0.931 . S
C1337 C1336 1.370 . S
C1337 C1341 1.408 . S
C1338 C1336 1.363 . S
C1338 C1339 1.370 . S
C1338 C1342 1.524 . S
C1339 C1331 1.503 . S
C1339 C1338 1.370 . S
C1339 C1340 1.403 . S
C1340 C1339 1.403 . S
C1340 C1341 1.404 . S
C1340 C1343 1.539 . S
C1341 C1337 1.408 . S
C1341 C1340 1.404 . S
C1341 H1353 0.930 . S
C1342 C1338 1.524 . S
C1342 H1354 0.956 . S
C1342 H1355 0.961 . S
C1342 H1356 0.961 . S
C1343 C1340 1.539 . S
C1343 H1357 0.958 . S
C1343 H1358 0.961 . S
C1343 H1359 0.960 . S
H1344 C1328 0.931 . S
H1345 C1333 0.929 . S
H1346 C1334 0.960 . S
H1347 C1334 0.962 . S
H1348 C1334 0.960 . S
H1349 C1335 0.961 . S
H1350 C1335 0.961 . S
H1351 C1335 0.961 . S
H1352 C1336 0.931 . S
H1353 C1341 0.930 . S
H1354 C1342 0.956 . S
H1355 C1342 0.961 . S
H1356 C1342 0.961 . S
H1357 C1343 0.958 . S
H1358 C1343 0.961 . S
H1359 C1343 0.960 . S
C1360 C1361 1.391 . S
C1360 C1362 1.394 . S
C1360 H1376 0.931 . S
C1361 C1360 1.391 . S
C1361 C1365 1.376 . S
C1362 C1360 1.394 . S
C1362 C1363 1.369 . S
C1362 C1366 1.531 . S
C1363 C1362 1.369 . S
C1363 C1364 1.410 . S
C1363 C1371 1.503 1_545 S
C1364 C1363 1.410 . S
C1364 C1365 1.392 . S
C1364 C1367 1.511 1_545 S
C1365 C1361 1.376 . S
C1365 C1364 1.392 . S
C1365 H1377 0.929 . S
C1366 C1362 1.531 . S
C1366 H1378 0.960 . S
C1366 H1379 0.962 . S
C1366 H1380 0.960 . S
C1367 C1364 1.511 1_565 S
C1367 H1381 0.961 . S
C1367 H1382 0.961 . S
C1367 H1383 0.961 . S
C1368 C1369 1.370 . S
C1368 C1370 1.363 . S
C1368 H1384 0.931 . S
C1369 C1368 1.370 . S
C1369 C1373 1.408 . S
C1370 C1368 1.363 . S
C1370 C1371 1.370 . S
C1370 C1374 1.524 . S
C1371 C1363 1.503 1_565 S
C1371 C1370 1.370 . S
C1371 C1372 1.403 . S
C1372 C1371 1.403 . S
C1372 C1373 1.404 . S
C1372 C1375 1.539 1_565 S
C1373 C1369 1.408 . S
C1373 C1372 1.404 . S
C1373 H1385 0.930 . S
C1374 C1370 1.524 . S
C1374 H1386 0.956 . S
C1374 H1387 0.961 . S
C1374 H1388 0.961 . S
C1375 C1372 1.539 1_545 S
C1375 H1389 0.958 . S
C1375 H1390 0.961 . S
C1375 H1391 0.960 . S
H1376 C1360 0.931 . S
H1377 C1365 0.929 . S
H1378 C1366 0.960 . S
H1379 C1366 0.962 . S
H1380 C1366 0.960 . S
H1381 C1367 0.961 . S
H1382 C1367 0.961 . S
H1383 C1367 0.961 . S
H1384 C1368 0.931 . S
H1385 C1373 0.930 . S
H1386 C1374 0.956 . S
H1387 C1374 0.961 . S
H1388 C1374 0.961 . S
H1389 C1375 0.958 . S
H1390 C1375 0.961 . S
H1391 C1375 0.960 . S
C1392 C1393 1.391 . S
C1392 C1394 1.394 . S
C1392 H1408 0.931 . S
C1393 C1392 1.391 . S
C1393 C1397 1.376 . S
C1394 C1392 1.394 . S
C1394 C1395 1.369 . S
C1394 C1398 1.531 . S
C1395 C1394 1.369 . S
C1395 C1396 1.410 . S
C1395 C1403 1.503 1_554 S
C1396 C1395 1.410 . S
C1396 C1397 1.392 . S
C1396 C1399 1.511 1_554 S
C1397 C1393 1.376 . S
C1397 C1396 1.392 . S
C1397 H1409 0.929 . S
C1398 C1394 1.531 . S
C1398 H1410 0.960 . S
C1398 H1411 0.962 . S
C1398 H1412 0.960 . S
C1399 C1396 1.511 1_556 S
C1399 H1413 0.961 . S
C1399 H1414 0.961 . S
C1399 H1415 0.961 . S
C1400 C1401 1.370 . S
C1400 C1402 1.363 . S
C1400 H1416 0.931 . S
C1401 C1400 1.370 . S
C1401 C1405 1.408 . S
C1402 C1400 1.363 . S
C1402 C1403 1.370 . S
C1402 C1406 1.524 . S
C1403 C1395 1.503 1_556 S
C1403 C1402 1.370 . S
C1403 C1404 1.403 . S
C1404 C1403 1.403 . S
C1404 C1405 1.404 . S
C1404 C1407 1.539 1_556 S
C1405 C1401 1.408 . S
C1405 C1404 1.404 . S
C1405 H1417 0.930 . S
C1406 C1402 1.524 . S
C1406 H1418 0.956 . S
C1406 H1419 0.961 . S
C1406 H1420 0.961 . S
C1407 C1404 1.539 1_554 S
C1407 H1421 0.958 . S
C1407 H1422 0.961 . S
C1407 H1423 0.960 . S
H1408 C1392 0.931 . S
H1409 C1397 0.929 . S
H1410 C1398 0.960 . S
H1411 C1398 0.962 . S
H1412 C1398 0.960 . S
H1413 C1399 0.961 . S
H1414 C1399 0.961 . S
H1415 C1399 0.961 . S
H1416 C1400 0.931 . S
H1417 C1405 0.930 . S
H1418 C1406 0.956 . S
H1419 C1406 0.961 . S
H1420 C1406 0.961 . S
H1421 C1407 0.958 . S
H1422 C1407 0.961 . S
H1423 C1407 0.960 . S
C1424 C1425 1.391 . S
C1424 C1426 1.394 . S
C1424 H1440 0.931 . S
C1425 C1424 1.391 . S
C1425 C1429 1.376 . S
C1426 C1424 1.394 . S
C1426 C1427 1.369 . S
C1426 C1430 1.531 . S
C1427 C1426 1.369 . S
C1427 C1428 1.410 . S
C1427 C1435 1.503 1_455 S
C1428 C1427 1.410 . S
C1428 C1429 1.392 . S
C1428 C1431 1.511 1_455 S
C1429 C1425 1.376 . S
C1429 C1428 1.392 . S
C1429 H1441 0.929 . S
C1430 C1426 1.531 . S
C1430 H1442 0.960 . S
C1430 H1443 0.962 . S
C1430 H1444 0.960 . S
C1431 C1428 1.511 1_655 S
C1431 H1445 0.961 . S
C1431 H1446 0.961 . S
C1431 H1447 0.961 . S
C1432 C1433 1.370 . S
C1432 C1434 1.363 . S
C1432 H1448 0.931 . S
C1433 C1432 1.370 . S
C1433 C1437 1.408 . S
C1434 C1432 1.363 . S
C1434 C1435 1.370 . S
C1434 C1438 1.524 1_655 S
C1435 C1427 1.503 1_655 S
C1435 C1434 1.370 . S
C1435 C1436 1.403 . S
C1436 C1435 1.403 . S
C1436 C1437 1.404 . S
C1436 C1439 1.539 . S
C1437 C1433 1.408 . S
C1437 C1436 1.404 . S
C1437 H1449 0.930 . S
C1438 C1434 1.524 1_455 S
C1438 H1450 0.956 . S
C1438 H1451 0.961 . S
C1438 H1452 0.961 1_455 S
C1439 C1436 1.539 . S
C1439 H1453 0.958 . S
C1439 H1454 0.961 . S
C1439 H1455 0.960 . S
H1440 C1424 0.931 . S
H1441 C1429 0.929 . S
H1442 C1430 0.960 . S
H1443 C1430 0.962 . S
H1444 C1430 0.960 . S
H1445 C1431 0.961 . S
H1446 C1431 0.961 . S
H1447 C1431 0.961 . S
H1448 C1432 0.931 . S
H1449 C1437 0.930 . S
H1450 C1438 0.956 . S
H1451 C1438 0.961 . S
H1452 C1438 0.961 1_655 S
H1453 C1439 0.958 . S
H1454 C1439 0.961 . S
H1455 C1439 0.960 . S
C1456 C1457 1.391 . S
C1456 C1458 1.394 . S
C1456 H1472 0.931 . S
C1457 C1456 1.391 . S
C1457 C1461 1.376 . S
C1458 C1456 1.394 . S
C1458 C1459 1.369 . S
C1458 C1462 1.531 . S
C1459 C1458 1.369 . S
C1459 C1460 1.410 . S
C1459 C1467 1.503 . S
C1460 C1459 1.410 . S
C1460 C1461 1.392 . S
C1460 C1463 1.511 . S
C1461 C1457 1.376 . S
C1461 C1460 1.392 . S
C1461 H1473 0.929 . S
C1462 C1458 1.531 . S
C1462 H1474 0.960 . S
C1462 H1475 0.962 . S
C1462 H1476 0.960 . S
C1463 C1460 1.511 . S
C1463 H1477 0.961 . S
C1463 H1478 0.961 . S
C1463 H1479 0.961 . S
C1464 C1465 1.370 . S
C1464 C1466 1.363 . S
C1464 H1480 0.931 . S
C1465 C1464 1.370 . S
C1465 C1469 1.408 . S
C1466 C1464 1.363 . S
C1466 C1467 1.370 . S
C1466 C1470 1.524 . S
C1467 C1459 1.503 . S
C1467 C1466 1.370 . S
C1467 C1468 1.403 . S
C1468 C1467 1.403 . S
C1468 C1469 1.404 . S
C1468 C1471 1.539 . S
C1469 C1465 1.408 . S
C1469 C1468 1.404 . S
C1469 H1481 0.930 . S
C1470 C1466 1.524 . S
C1470 H1482 0.956 . S
C1470 H1483 0.961 . S
C1470 H1484 0.961 . S
C1471 C1468 1.539 . S
C1471 H1485 0.958 . S
C1471 H1486 0.961 . S
C1471 H1487 0.960 . S
H1472 C1456 0.931 . S
H1473 C1461 0.929 . S
H1474 C1462 0.960 . S
H1475 C1462 0.962 . S
H1476 C1462 0.960 . S
H1477 C1463 0.961 . S
H1478 C1463 0.961 . S
H1479 C1463 0.961 . S
H1480 C1464 0.931 . S
H1481 C1469 0.930 . S
H1482 C1470 0.956 . S
H1483 C1470 0.961 . S
H1484 C1470 0.961 . S
H1485 C1471 0.958 . S
H1486 C1471 0.961 . S
H1487 C1471 0.960 . S
C1488 C1489 1.391 . S
C1488 C1490 1.394 . S
C1488 H1504 0.931 . S
C1489 C1488 1.391 . S
C1489 C1493 1.376 . S
C1490 C1488 1.394 . S
C1490 C1491 1.369 . S
C1490 C1494 1.531 1_655 S
C1491 C1490 1.369 . S
C1491 C1492 1.410 . S
C1491 C1499 1.503 1_655 S
C1492 C1491 1.410 . S
C1492 C1493 1.392 . S
C1492 C1495 1.511 . S
C1493 C1489 1.376 . S
C1493 C1492 1.392 . S
C1493 H1505 0.929 . S
C1494 C1490 1.531 1_455 S
C1494 H1506 0.960 . S
C1494 H1507 0.962 . S
C1494 H1508 0.960 1_455 S
C1495 C1492 1.511 . S
C1495 H1509 0.961 . S
C1495 H1510 0.961 . S
C1495 H1511 0.961 . S
C1496 C1497 1.370 . S
C1496 C1498 1.363 . S
C1496 H1512 0.931 . S
C1497 C1496 1.370 . S
C1497 C1501 1.408 . S
C1498 C1496 1.363 . S
C1498 C1499 1.370 . S
C1498 C1502 1.524 . S
C1499 C1491 1.503 1_455 S
C1499 C1498 1.370 . S
C1499 C1500 1.403 . S
C1500 C1499 1.403 . S
C1500 C1501 1.404 . S
C1500 C1503 1.539 1_455 S
C1501 C1497 1.408 . S
C1501 C1500 1.404 . S
C1501 H1513 0.930 . S
C1502 C1498 1.524 . S
C1502 H1514 0.956 . S
C1502 H1515 0.961 . S
C1502 H1516 0.961 . S
C1503 C1500 1.539 1_655 S
C1503 H1517 0.958 . S
C1503 H1518 0.961 . S
C1503 H1519 0.960 . S
H1504 C1488 0.931 . S
H1505 C1493 0.929 . S
H1506 C1494 0.960 . S
H1507 C1494 0.962 . S
H1508 C1494 0.960 1_655 S
H1509 C1495 0.961 . S
H1510 C1495 0.961 . S
H1511 C1495 0.961 . S
H1512 C1496 0.931 . S
H1513 C1501 0.930 . S
H1514 C1502 0.956 . S
H1515 C1502 0.961 . S
H1516 C1502 0.961 . S
H1517 C1503 0.958 . S
H1518 C1503 0.961 . S
H1519 C1503 0.960 . S
C1520 C1521 1.391 . S
C1520 C1522 1.394 . S
C1520 H1536 0.931 . S
C1521 C1520 1.391 . S
C1521 C1525 1.376 . S
C1522 C1520 1.394 . S
C1522 C1523 1.369 . S
C1522 C1526 1.531 . S
C1523 C1522 1.369 . S
C1523 C1524 1.410 . S
C1523 C1531 1.503 . S
C1524 C1523 1.410 . S
C1524 C1525 1.392 . S
C1524 C1527 1.511 . S
C1525 C1521 1.376 . S
C1525 C1524 1.392 . S
C1525 H1537 0.929 . S
C1526 C1522 1.531 . S
C1526 H1538 0.960 . S
C1526 H1539 0.962 . S
C1526 H1540 0.960 . S
C1527 C1524 1.511 . S
C1527 H1541 0.961 . S
C1527 H1542 0.961 . S
C1527 H1543 0.961 . S
C1528 C1529 1.370 . S
C1528 C1530 1.363 . S
C1528 H1544 0.931 . S
C1529 C1528 1.370 . S
C1529 C1533 1.408 . S
C1530 C1528 1.363 . S
C1530 C1531 1.370 . S
C1530 C1534 1.524 . S
C1531 C1523 1.503 . S
C1531 C1530 1.370 . S
C1531 C1532 1.403 . S
C1532 C1531 1.403 . S
C1532 C1533 1.404 . S
C1532 C1535 1.539 . S
C1533 C1529 1.408 . S
C1533 C1532 1.404 . S
C1533 H1545 0.930 . S
C1534 C1530 1.524 . S
C1534 H1546 0.956 . S
C1534 H1547 0.961 . S
C1534 H1548 0.961 . S
C1535 C1532 1.539 . S
C1535 H1549 0.958 . S
C1535 H1550 0.961 . S
C1535 H1551 0.960 . S
H1536 C1520 0.931 . S
H1537 C1525 0.929 . S
H1538 C1526 0.960 . S
H1539 C1526 0.962 . S
H1540 C1526 0.960 . S
H1541 C1527 0.961 . S
H1542 C1527 0.961 . S
H1543 C1527 0.961 . S
H1544 C1528 0.931 . S
H1545 C1533 0.930 . S
H1546 C1534 0.956 . S
H1547 C1534 0.961 . S
H1548 C1534 0.961 . S
H1549 C1535 0.958 . S
H1550 C1535 0.961 . S
H1551 C1535 0.960 . S
C1552 C1553 1.391 . S
C1552 C1554 1.394 . S
C1552 H1568 0.931 . S
C1553 C1552 1.391 . S
C1553 C1557 1.376 . S
C1554 C1552 1.394 . S
C1554 C1555 1.369 . S
C1554 C1558 1.531 . S
C1555 C1554 1.369 . S
C1555 C1556 1.410 . S
C1555 C1563 1.503 . S
C1556 C1555 1.410 . S
C1556 C1557 1.392 . S
C1556 C1559 1.511 . S
C1557 C1553 1.376 . S
C1557 C1556 1.392 . S
C1557 H1569 0.929 . S
C1558 C1554 1.531 . S
C1558 H1570 0.960 . S
C1558 H1571 0.962 . S
C1558 H1572 0.960 . S
C1559 C1556 1.511 . S
C1559 H1573 0.961 . S
C1559 H1574 0.961 . S
C1559 H1575 0.961 . S
C1560 C1561 1.370 . S
C1560 C1562 1.363 . S
C1560 H1576 0.931 . S
C1561 C1560 1.370 . S
C1561 C1565 1.408 . S
C1562 C1560 1.363 . S
C1562 C1563 1.370 . S
C1562 C1566 1.524 . S
C1563 C1555 1.503 . S
C1563 C1562 1.370 . S
C1563 C1564 1.403 . S
C1564 C1563 1.403 . S
C1564 C1565 1.404 . S
C1564 C1567 1.539 . S
C1565 C1561 1.408 . S
C1565 C1564 1.404 . S
C1565 H1577 0.930 . S
C1566 C1562 1.524 . S
C1566 H1578 0.956 . S
C1566 H1579 0.961 . S
C1566 H1580 0.961 . S
C1567 C1564 1.539 . S
C1567 H1581 0.958 . S
C1567 H1582 0.961 . S
C1567 H1583 0.960 . S
H1568 C1552 0.931 . S
H1569 C1557 0.929 . S
H1570 C1558 0.960 . S
H1571 C1558 0.962 . S
H1572 C1558 0.960 . S
H1573 C1559 0.961 . S
H1574 C1559 0.961 . S
H1575 C1559 0.961 . S
H1576 C1560 0.931 . S
H1577 C1565 0.930 . S
H1578 C1566 0.956 . S
H1579 C1566 0.961 . S
H1580 C1566 0.961 . S
H1581 C1567 0.958 . S
H1582 C1567 0.961 . S
H1583 C1567 0.960 . S
C1584 C1585 1.391 . S
C1584 C1586 1.394 . S
C1584 H1600 0.931 . S
C1585 C1584 1.391 . S
C1585 C1589 1.376 . S
C1586 C1584 1.394 . S
C1586 C1587 1.369 . S
C1586 C1590 1.531 . S
C1587 C1586 1.369 . S
C1587 C1588 1.410 . S
C1587 C1595 1.503 1_556 S
C1588 C1587 1.410 . S
C1588 C1589 1.392 . S
C1588 C1591 1.511 . S
C1589 C1585 1.376 . S
C1589 C1588 1.392 . S
C1589 H1601 0.929 . S
C1590 C1586 1.531 . S
C1590 H1602 0.960 . S
C1590 H1603 0.962 . S
C1590 H1604 0.960 . S
C1591 C1588 1.511 . S
C1591 H1605 0.961 . S
C1591 H1606 0.961 1_556 S
C1591 H1607 0.961 1_556 S
C1592 C1593 1.370 . S
C1592 C1594 1.363 1_554 S
C1592 H1608 0.931 . S
C1593 C1592 1.370 . S
C1593 C1597 1.408 . S
C1594 C1592 1.363 1_556 S
C1594 C1595 1.370 1_556 S
C1594 C1598 1.524 . S
C1595 C1587 1.503 1_554 S
C1595 C1594 1.370 1_554 S
C1595 C1596 1.403 . S
C1596 C1595 1.403 . S
C1596 C1597 1.404 . S
C1596 C1599 1.539 . S
C1597 C1593 1.408 . S
C1597 C1596 1.404 . S
C1597 H1609 0.930 . S
C1598 C1594 1.524 . S
C1598 H1610 0.956 . S
C1598 H1611 0.961 . S
C1598 H1612 0.961 . S
C1599 C1596 1.539 . S
C1599 H1613 0.958 . S
C1599 H1614 0.961 . S
C1599 H1615 0.960 . S
H1600 C1584 0.931 . S
H1601 C1589 0.929 . S
H1602 C1590 0.960 . S
H1603 C1590 0.962 . S
H1604 C1590 0.960 . S
H1605 C1591 0.961 . S
H1606 C1591 0.961 1_554 S
H1607 C1591 0.961 1_554 S
H1608 C1592 0.931 . S
H1609 C1597 0.930 . S
H1610 C1598 0.956 . S
H1611 C1598 0.961 . S
H1612 C1598 0.961 . S
H1613 C1599 0.958 . S
H1614 C1599 0.961 . S
H1615 C1599 0.960 . S
C1616 C1617 1.391 . S
C1616 C1618 1.394 . S
C1616 H1632 0.931 . S
C1617 C1616 1.391 . S
C1617 C1621 1.376 . S
C1618 C1616 1.394 . S
C1618 C1619 1.369 . S
C1618 C1622 1.531 . S
C1619 C1618 1.369 . S
C1619 C1620 1.410 . S
C1619 C1627 1.503 . S
C1620 C1619 1.410 . S
C1620 C1621 1.392 . S
C1620 C1623 1.511 . S
C1621 C1617 1.376 . S
C1621 C1620 1.392 . S
C1621 H1633 0.929 . S
C1622 C1618 1.531 . S
C1622 H1634 0.960 . S
C1622 H1635 0.962 . S
C1622 H1636 0.960 . S
C1623 C1620 1.511 . S
C1623 H1637 0.961 . S
C1623 H1638 0.961 . S
C1623 H1639 0.961 . S
C1624 C1625 1.370 . S
C1624 C1626 1.363 . S
C1624 H1640 0.931 . S
C1625 C1624 1.370 . S
C1625 C1629 1.408 . S
C1626 C1624 1.363 . S
C1626 C1627 1.370 . S
C1626 C1630 1.524 . S
C1627 C1619 1.503 . S
C1627 C1626 1.370 . S
C1627 C1628 1.403 . S
C1628 C1627 1.403 . S
C1628 C1629 1.404 . S
C1628 C1631 1.539 . S
C1629 C1625 1.408 . S
C1629 C1628 1.404 . S
C1629 H1641 0.930 . S
C1630 C1626 1.524 . S
C1630 H1642 0.956 . S
C1630 H1643 0.961 . S
C1630 H1644 0.961 . S
C1631 C1628 1.539 . S
C1631 H1645 0.958 . S
C1631 H1646 0.961 . S
C1631 H1647 0.960 . S
H1632 C1616 0.931 . S
H1633 C1621 0.929 . S
H1634 C1622 0.960 . S
H1635 C1622 0.962 . S
H1636 C1622 0.960 . S
H1637 C1623 0.961 . S
H1638 C1623 0.961 . S
H1639 C1623 0.961 . S
H1640 C1624 0.931 . S
H1641 C1629 0.930 . S
H1642 C1630 0.956 . S
H1643 C1630 0.961 . S
H1644 C1630 0.961 . S
H1645 C1631 0.958 . S
H1646 C1631 0.961 . S
H1647 C1631 0.960 . S
C1648 C1649 1.391 . S
C1648 C1650 1.394 . S
C1648 H1664 0.931 . S
C1649 C1648 1.391 . S
C1649 C1653 1.376 . S
C1650 C1648 1.394 . S
C1650 C1651 1.369 . S
C1650 C1654 1.531 . S
C1651 C1650 1.369 . S
C1651 C1652 1.410 . S
C1651 C1659 1.503 . S
C1652 C1651 1.410 . S
C1652 C1653 1.392 . S
C1652 C1655 1.511 . S
C1653 C1649 1.376 . S
C1653 C1652 1.392 . S
C1653 H1665 0.929 . S
C1654 C1650 1.531 . S
C1654 H1666 0.960 . S
C1654 H1667 0.962 . S
C1654 H1668 0.960 . S
C1655 C1652 1.511 . S
C1655 H1669 0.961 . S
C1655 H1670 0.961 . S
C1655 H1671 0.961 . S
C1656 C1657 1.370 . S
C1656 C1658 1.363 . S
C1656 H1672 0.931 . S
C1657 C1656 1.370 . S
C1657 C1661 1.408 . S
C1658 C1656 1.363 . S
C1658 C1659 1.370 . S
C1658 C1662 1.524 . S
C1659 C1651 1.503 . S
C1659 C1658 1.370 . S
C1659 C1660 1.403 . S
C1660 C1659 1.403 . S
C1660 C1661 1.404 . S
C1660 C1663 1.539 . S
C1661 C1657 1.408 . S
C1661 C1660 1.404 . S
C1661 H1673 0.930 . S
C1662 C1658 1.524 . S
C1662 H1674 0.956 . S
C1662 H1675 0.961 . S
C1662 H1676 0.961 . S
C1663 C1660 1.539 . S
C1663 H1677 0.958 . S
C1663 H1678 0.961 . S
C1663 H1679 0.960 . S
H1664 C1648 0.931 . S
H1665 C1653 0.929 . S
H1666 C1654 0.960 . S
H1667 C1654 0.962 . S
H1668 C1654 0.960 . S
H1669 C1655 0.961 . S
H1670 C1655 0.961 . S
H1671 C1655 0.961 . S
H1672 C1656 0.931 . S
H1673 C1661 0.930 . S
H1674 C1662 0.956 . S
H1675 C1662 0.961 . S
H1676 C1662 0.961 . S
H1677 C1663 0.958 . S
H1678 C1663 0.961 . S
H1679 C1663 0.960 . S
C1680 C1681 1.391 . S
C1680 C1682 1.394 . S
C1680 H1696 0.931 . S
C1681 C1680 1.391 . S
C1681 C1685 1.376 . S
C1682 C1680 1.394 . S
C1682 C1683 1.369 . S
C1682 C1686 1.531 . S
C1683 C1682 1.369 . S
C1683 C1684 1.410 . S
C1683 C1691 1.503 . S
C1684 C1683 1.410 . S
C1684 C1685 1.392 . S
C1684 C1687 1.511 . S
C1685 C1681 1.376 . S
C1685 C1684 1.392 . S
C1685 H1697 0.929 . S
C1686 C1682 1.531 . S
C1686 H1698 0.960 . S
C1686 H1699 0.962 . S
C1686 H1700 0.960 . S
C1687 C1684 1.511 . S
C1687 H1701 0.961 . S
C1687 H1702 0.961 . S
C1687 H1703 0.961 . S
C1688 C1689 1.370 . S
C1688 C1690 1.363 . S
C1688 H1704 0.931 . S
C1689 C1688 1.370 . S
C1689 C1693 1.408 . S
C1690 C1688 1.363 . S
C1690 C1691 1.370 . S
C1690 C1694 1.524 . S
C1691 C1683 1.503 . S
C1691 C1690 1.370 . S
C1691 C1692 1.403 . S
C1692 C1691 1.403 . S
C1692 C1693 1.404 . S
C1692 C1695 1.539 . S
C1693 C1689 1.408 . S
C1693 C1692 1.404 . S
C1693 H1705 0.930 . S
C1694 C1690 1.524 . S
C1694 H1706 0.956 . S
C1694 H1707 0.961 . S
C1694 H1708 0.961 . S
C1695 C1692 1.539 . S
C1695 H1709 0.958 . S
C1695 H1710 0.961 . S
C1695 H1711 0.960 . S
H1696 C1680 0.931 . S
H1697 C1685 0.929 . S
H1698 C1686 0.960 . S
H1699 C1686 0.962 . S
H1700 C1686 0.960 . S
H1701 C1687 0.961 . S
H1702 C1687 0.961 . S
H1703 C1687 0.961 . S
H1704 C1688 0.931 . S
H1705 C1693 0.930 . S
H1706 C1694 0.956 . S
H1707 C1694 0.961 . S
H1708 C1694 0.961 . S
H1709 C1695 0.958 . S
H1710 C1695 0.961 . S
H1711 C1695 0.960 . S
C1712 C1713 1.391 . S
C1712 C1714 1.418 . S
C1712 H1728 0.931 . S
C1713 C1712 1.391 . S
C1713 C1717 1.376 . S
C1714 C1712 1.418 . S
C1714 C1715 1.379 . S
C1714 C1718 1.497 1_556 S
C1715 C1714 1.379 . S
C1715 C1716 1.410 . S
C1715 C1723 1.503 1_556 S
C1716 C1715 1.410 . S
C1716 C1717 1.392 . S
C1716 C1719 1.511 . S
C1717 C1713 1.376 . S
C1717 C1716 1.392 . S
C1717 H1729 0.929 . S
C1718 C1714 1.497 1_554 S
C1718 H1730 0.960 . S
C1718 H1731 0.962 . S
C1718 H1732 0.960 . S
C1719 C1716 1.511 . S
C1719 H1733 0.961 . S
C1719 H1734 0.961 . S
C1719 H1735 0.961 . S
C1720 C1721 1.370 . S
C1720 C1722 1.363 . S
C1720 H1736 0.931 . S
C1721 C1720 1.370 . S
C1721 C1725 1.408 . S
C1722 C1720 1.363 . S
C1722 C1723 1.370 . S
C1722 C1726 1.524 . S
C1723 C1715 1.503 1_554 S
C1723 C1722 1.370 . S
C1723 C1724 1.403 . S
C1724 C1723 1.403 . S
C1724 C1725 1.404 . S
C1724 C1727 1.550 . S
C1725 C1721 1.408 . S
C1725 C1724 1.404 . S
C1725 H1737 0.930 . S
C1726 C1722 1.524 . S
C1726 H1738 0.956 . S
C1726 H1739 0.961 . S
C1726 H1740 0.961 . S
C1727 C1724 1.550 . S
C1727 H1741 0.966 . S
C1727 H1742 0.959 1_554 S
C1727 H1743 0.944 1_554 S
H1728 C1712 0.931 . S
H1729 C1717 0.929 . S
H1730 C1718 0.960 . S
H1731 C1718 0.962 . S
H1732 C1718 0.960 . S
H1733 C1719 0.961 . S
H1734 C1719 0.961 . S
H1735 C1719 0.961 . S
H1736 C1720 0.931 . S
H1737 C1725 0.930 . S
H1738 C1726 0.956 . S
H1739 C1726 0.961 . S
H1740 C1726 0.961 . S
H1741 C1727 0.966 . S
H1742 C1727 0.959 1_556 S
H1743 C1727 0.944 1_556 S
C1744 C1745 1.391 . S
C1744 C1746 1.394 . S
C1744 H1760 0.931 . S
C1745 C1744 1.391 . S
C1745 C1749 1.376 . S
C1746 C1744 1.394 . S
C1746 C1747 1.369 . S
C1746 C1750 1.531 . S
C1747 C1746 1.369 . S
C1747 C1748 1.410 . S
C1747 C1755 1.503 . S
C1748 C1747 1.410 . S
C1748 C1749 1.392 . S
C1748 C1751 1.511 . S
C1749 C1745 1.376 . S
C1749 C1748 1.392 . S
C1749 H1761 0.929 . S
C1750 C1746 1.531 . S
C1750 H1762 0.960 . S
C1750 H1763 0.962 . S
C1750 H1764 0.960 . S
C1751 C1748 1.511 . S
C1751 H1765 0.961 . S
C1751 H1766 0.961 . S
C1751 H1767 0.961 . S
C1752 C1753 1.370 . S
C1752 C1754 1.363 . S
C1752 H1768 0.931 . S
C1753 C1752 1.370 . S
C1753 C1757 1.408 . S
C1754 C1752 1.363 . S
C1754 C1755 1.370 . S
C1754 C1758 1.524 . S
C1755 C1747 1.503 . S
C1755 C1754 1.370 . S
C1755 C1756 1.403 . S
C1756 C1755 1.403 . S
C1756 C1757 1.404 . S
C1756 C1759 1.539 . S
C1757 C1753 1.408 . S
C1757 C1756 1.404 . S
C1757 H1769 0.930 . S
C1758 C1754 1.524 . S
C1758 H1770 0.956 . S
C1758 H1771 0.961 . S
C1758 H1772 0.961 . S
C1759 C1756 1.539 . S
C1759 H1773 0.958 . S
C1759 H1774 0.961 . S
C1759 H1775 0.960 . S
H1760 C1744 0.931 . S
H1761 C1749 0.929 . S
H1762 C1750 0.960 . S
H1763 C1750 0.962 . S
H1764 C1750 0.960 . S
H1765 C1751 0.961 . S
H1766 C1751 0.961 . S
H1767 C1751 0.961 . S
H1768 C1752 0.931 . S
H1769 C1757 0.930 . S
H1770 C1758 0.956 . S
H1771 C1758 0.961 . S
H1772 C1758 0.961 . S
H1773 C1759 0.958 . S
H1774 C1759 0.961 . S
H1775 C1759 0.960 . S
C1776 C1777 1.391 . S
C1776 C1778 1.394 . S
C1776 H1792 0.931 . S
C1777 C1776 1.391 . S
C1777 C1781 1.376 . S
C1778 C1776 1.394 . S
C1778 C1779 1.369 . S
C1778 C1782 1.531 . S
C1779 C1778 1.369 . S
C1779 C1780 1.410 . S
C1779 C1787 1.503 . S
C1780 C1779 1.410 . S
C1780 C1781 1.392 . S
C1780 C1783 1.511 . S
C1781 C1777 1.376 . S
C1781 C1780 1.392 . S
C1781 H1793 0.929 . S
C1782 C1778 1.531 . S
C1782 H1794 0.960 . S
C1782 H1795 0.962 . S
C1782 H1796 0.960 . S
C1783 C1780 1.511 . S
C1783 H1797 0.961 . S
C1783 H1798 0.961 . S
C1783 H1799 0.961 . S
C1784 C1785 1.370 . S
C1784 C1786 1.363 . S
C1784 H1800 0.931 . S
C1785 C1784 1.370 . S
C1785 C1789 1.408 . S
C1786 C1784 1.363 . S
C1786 C1787 1.370 . S
C1786 C1790 1.524 . S
C1787 C1779 1.503 . S
C1787 C1786 1.370 . S
C1787 C1788 1.403 . S
C1788 C1787 1.403 . S
C1788 C1789 1.404 . S
C1788 C1791 1.539 . S
C1789 C1785 1.408 . S
C1789 C1788 1.404 . S
C1789 H1801 0.930 . S
C1790 C1786 1.524 . S
C1790 H1802 0.956 . S
C1790 H1803 0.961 . S
C1790 H1804 0.961 . S
C1791 C1788 1.539 . S
C1791 H1805 0.958 . S
C1791 H1806 0.961 . S
C1791 H1807 0.960 . S
H1792 C1776 0.931 . S
H1793 C1781 0.929 . S
H1794 C1782 0.960 . S
H1795 C1782 0.962 . S
H1796 C1782 0.960 . S
H1797 C1783 0.961 . S
H1798 C1783 0.961 . S
H1799 C1783 0.961 . S
H1800 C1784 0.931 . S
H1801 C1789 0.930 . S
H1802 C1790 0.956 . S
H1803 C1790 0.961 . S
H1804 C1790 0.961 . S
H1805 C1791 0.958 . S
H1806 C1791 0.961 . S
H1807 C1791 0.960 . S
C529 N13 1.575 . S
C537 N497 1.578 . S
C561 N277 2.056 . S
C569 N46 2.077 . S
C593 N409 1.774 . S
C601 N68 1.817 . S
C625 N101 2.018 . S
C633 N343 1.960 . S
C657 N365 2.103 . S
C665 N35 2.103 . S
C689 N79 1.833 . S
C697 N299 1.823 . S
C721 N112 1.950 . S
C729 N431 1.953 . S
C753 N2 1.573 . S
C761 N244 1.574 . S
C785 N266 2.119 . S
C793 N134 2.115 . S
C817 N398 1.808 . S
C825 N178 1.830 . S
C849 N211 1.939 . S
C857 N332 1.965 . S
C881 N200 1.981 . S
C889 N442 1.975 . S
C913 N145 2.086 . S
C921 N376 2.082 . S
C945 N475 1.552 . S
C953 N233 1.584 . S
C977 N310 1.762 . S
C985 N167 1.807 . S
C1009 N508 1.526 . S
C1017 N464 1.582 . S
C1041 C21 0.982 . S
C1049 C51 0.986 . S
C1073 C40 1.015 . S
C1081 C87 1.007 . S
C1105 C73 1.216 . S
C1113 C106 1.236 . S
C1137 C117 1.209 . S
C1145 C7 1.222 . S
C1169 C18 0.717 . S
C1177 C183 0.715 . S
C1201 C153 0.663 . S
C1209 C120 0.664 . S
C1233 C219 0.670 . S
C1241 C54 0.659 . S
C1265 C480 0.716 . S
C1273 C84 0.714 . S
C1297 C285 0.607 . S
C1305 C238 0.608 . S
C1329 C271 1.056 . S
C1337 C304 1.069 . S
C1361 C315 1.321 . S
C1369 C348 1.318 . S
C1393 C351 0.805 . S
C1401 C249 0.801 . S
C1425 C417 0.785 . S
C1433 C252 0.801 . S
C1457 C381 1.098 . S
C1465 C337 1.105 . S
C1489 C282 1.098 . S
C1497 C436 1.105 . S
C1521 C516 0.805 . S
C1529 C318 0.794 . S
C1553 C150 0.982 . S
C1561 C483 0.986 . S
C1585 C139 1.010 . S
C1593 C186 1.008 . S
C1617 C172 1.210 . S
C1625 C205 1.236 . S
C1649 C469 1.201 . S
C1657 C216 1.224 . S
C1681 C384 0.603 . S
C1689 C502 0.605 . S
C1713 C403 1.067 . S
C1721 C370 1.071 . S
C1745 C414 1.321 . S
C1753 C447 1.319 . S
C1777 C513 0.794 . S
C1785 C450 0.805 . S
