# Generated by pormake.
# Topology mon, (4)-cn, num edge types: 1
# Building blocks:
#     Node 0, Type 0, BuildingBlock: QUQFOY_clean_sbu_3, # of connection points: 4
#     Node 1, Type 0, BuildingBlock: QUQFOY_clean_sbu_3, # of connection points: 4
#     Node 2, Type 0, BuildingBlock: QUQFOY_clean_sbu_3, # of connection points: 4
#     Node 3, Type 0, BuildingBlock: QUQFOY_clean_sbu_3, # of connection points: 4
#     Node 4, Type 0, BuildingBlock: QUQFOY_clean_sbu_3, # of connection points: 4
#     Node 5, Type 0, BuildingBlock: QUQFOY_clean_sbu_3, # of connection points: 4
#     Node 6, Type 0, BuildingBlock: QUQFOY_clean_sbu_3, # of connection points: 4
#     Node 7, Type 0, BuildingBlock: QUQFOY_clean_sbu_3, # of connection points: 4
#     Node 8, Type 0, BuildingBlock: QUQFOY_clean_sbu_3, # of connection points: 4
#     Node 9, Type 0, BuildingBlock: QUQFOY_clean_sbu_3, # of connection points: 4
#     Node 10, Type 0, BuildingBlock: QUQFOY_clean_sbu_3, # of connection points: 4
#     Node 11, Type 0, BuildingBlock: QUQFOY_clean_sbu_3, # of connection points: 4
#     Node 12, Type 0, BuildingBlock: QUQFOY_clean_sbu_3, # of connection points: 4
#     Node 13, Type 0, BuildingBlock: QUQFOY_clean_sbu_3, # of connection points: 4
#     Node 14, Type 0, BuildingBlock: QUQFOY_clean_sbu_3, # of connection points: 4
#     Node 15, Type 0, BuildingBlock: QUQFOY_clean_sbu_3, # of connection points: 4
#     Edge 16, Type (0, 0), BuildingBlock: XUDNAN_clean_linker_2, # of connection points: 2
#     Edge 17, Type (0, 0), BuildingBlock: XUDNAN_clean_linker_2, # of connection points: 2
#     Edge 18, Type (0, 0), BuildingBlock: XUDNAN_clean_linker_2, # of connection points: 2
#     Edge 19, Type (0, 0), BuildingBlock: XUDNAN_clean_linker_2, # of connection points: 2
#     Edge 20, Type (0, 0), BuildingBlock: XUDNAN_clean_linker_2, # of connection points: 2
#     Edge 21, Type (0, 0), BuildingBlock: XUDNAN_clean_linker_2, # of connection points: 2
#     Edge 22, Type (0, 0), BuildingBlock: XUDNAN_clean_linker_2, # of connection points: 2
#     Edge 23, Type (0, 0), BuildingBlock: XUDNAN_clean_linker_2, # of connection points: 2
#     Edge 24, Type (0, 0), BuildingBlock: XUDNAN_clean_linker_2, # of connection points: 2
#     Edge 25, Type (0, 0), BuildingBlock: XUDNAN_clean_linker_2, # of connection points: 2
#     Edge 26, Type (0, 0), BuildingBlock: XUDNAN_clean_linker_2, # of connection points: 2
#     Edge 27, Type (0, 0), BuildingBlock: XUDNAN_clean_linker_2, # of connection points: 2
#     Edge 28, Type (0, 0), BuildingBlock: XUDNAN_clean_linker_2, # of connection points: 2
#     Edge 29, Type (0, 0), BuildingBlock: XUDNAN_clean_linker_2, # of connection points: 2
#     Edge 30, Type (0, 0), BuildingBlock: XUDNAN_clean_linker_2, # of connection points: 2
#     Edge 31, Type (0, 0), BuildingBlock: XUDNAN_clean_linker_2, # of connection points: 2
#     Edge 32, Type (0, 0), BuildingBlock: XUDNAN_clean_linker_2, # of connection points: 2
#     Edge 33, Type (0, 0), BuildingBlock: XUDNAN_clean_linker_2, # of connection points: 2
#     Edge 34, Type (0, 0), BuildingBlock: XUDNAN_clean_linker_2, # of connection points: 2
#     Edge 35, Type (0, 0), BuildingBlock: XUDNAN_clean_linker_2, # of connection points: 2
#     Edge 36, Type (0, 0), BuildingBlock: XUDNAN_clean_linker_2, # of connection points: 2
#     Edge 37, Type (0, 0), BuildingBlock: XUDNAN_clean_linker_2, # of connection points: 2
#     Edge 38, Type (0, 0), BuildingBlock: XUDNAN_clean_linker_2, # of connection points: 2
#     Edge 39, Type (0, 0), BuildingBlock: XUDNAN_clean_linker_2, # of connection points: 2
#     Edge 40, Type (0, 0), BuildingBlock: XUDNAN_clean_linker_2, # of connection points: 2
#     Edge 41, Type (0, 0), BuildingBlock: XUDNAN_clean_linker_2, # of connection points: 2
#     Edge 42, Type (0, 0), BuildingBlock: XUDNAN_clean_linker_2, # of connection points: 2
#     Edge 43, Type (0, 0), BuildingBlock: XUDNAN_clean_linker_2, # of connection points: 2
#     Edge 44, Type (0, 0), BuildingBlock: XUDNAN_clean_linker_2, # of connection points: 2
#     Edge 45, Type (0, 0), BuildingBlock: XUDNAN_clean_linker_2, # of connection points: 2
#     Edge 46, Type (0, 0), BuildingBlock: XUDNAN_clean_linker_2, # of connection points: 2
#     Edge 47, Type (0, 0), BuildingBlock: XUDNAN_clean_linker_2, # of connection points: 2
# Relax obj value: 0.180
# Max RMSD: 0.173
# Mean RMSD: 0.173
data_MOF--net-mon--node1-QUQFOY_clean_sbu_3--edge1-XUDNAN_clean_linker_2
_symmetry_space_group_name_H-M    P1
_symmetry_Int_Tables_number       1
_symmetry_cell_setting            triclinic
loop_
_symmetry_equiv_pos_as_xyz
'x, y, z'
_cell_length_a     35.1937
_cell_length_b     34.840673
_cell_length_c     85.987366
_cell_angle_alpha  90.01229
_cell_angle_beta   889.888841
_cell_angle_gamma 90.141942
loop_
_atom_site_label
_atom_site_type_symbol
_atom_site_fract_x
_atom_site_fract_y
_atom_site_fract_z
_atom_type_partial_charge
C0 C 8.09935 0.99474 3.33608 0.0
O1 O 7.96129 0.96835 3.28342 0.0
Cd2 Cd 7.71766 0.97014 3.20677 0.0
O3 O 8.11419 0.0245 3.35065 0.0
Cd4 Cd 7.93786 0.05372 3.30261 0.0
C5 C 9.08665 0.97949 3.38536 0.0
O6 O 7.58924 0.03397 3.15319 0.0
O7 O 8.58374 0.0578 3.17397 0.0
O8 O 8.03653 0.11191 3.32835 0.0
C9 C 8.47865 0.04377 3.12025 0.0
O10 O 8.93878 0.95936 3.31922 0.0
C11 C 8.08032 0.13171 3.358 0.0
O12 O 9.12823 0.01368 3.39771 0.0
O13 O 9.05561 0.1154 3.36114 0.0
C14 C 11.65144 0.86814 4.73183 0.0
O15 O 11.48279 0.85962 4.65611 0.0
Cd16 Cd 11.29067 0.80005 4.58154 0.0
O17 O 11.72202 0.84528 4.77061 0.0
Cd18 Cd 11.6099 0.7831 4.73734 0.0
C19 C 11.70181 0.73589 4.74121 0.0
O20 O 11.22545 0.79289 4.58241 0.0
O21 O 11.3177 0.73364 4.62112 0.0
O22 O 11.67815 0.81045 4.7904 0.0
C23 C 11.17021 0.75839 4.56268 0.0
O24 O 11.51953 0.74878 4.66342 0.0
C25 C 11.78577 0.78247 4.83891 0.0
O26 O 11.78676 0.74649 4.78826 0.0
O27 O 11.82083 0.75517 4.8436 0.0
C28 C 1.55399 0.98848 0.48086 0.0
O29 O 1.38318 0.00565 0.40794 0.0
Cd30 Cd 1.21375 -0.00371 0.31477 0.0
O31 O 1.64094 0.96401 0.50695 0.0
Cd32 Cd 1.59726 0.93126 0.4642 0.0
C33 C 1.66285 0.01633 0.47254 0.0
O34 O 1.21033 0.92915 0.30928 0.0
O35 O 1.34385 0.91303 0.34101 0.0
O36 O 1.71336 0.87695 0.5261 0.0
C37 C 1.17662 0.91905 0.28176 0.0
O38 O 1.4712 0.02394 0.39976 0.0
C39 C 1.83377 0.86302 0.56416 0.0
O40 O 1.7574 0.98585 0.51496 0.0
O41 O 1.84711 0.88117 0.55673 0.0
C42 C 4.82475 0.17583 1.91035 0.0
O43 O 4.63403 0.17604 1.83901 0.0
Cd44 Cd 4.38548 0.22736 1.73569 0.0
O45 O 4.89169 0.20284 1.92847 0.0
Cd46 Cd 4.75356 0.26211 1.86066 0.0
C47 C 4.73039 0.30024 1.88717 0.0
O48 O 4.38019 0.24343 1.70688 0.0
O49 O 4.44315 0.30423 1.73101 0.0
O50 O 4.89908 0.24218 1.89446 0.0
C51 C 4.30675 0.27676 1.67519 0.0
O52 O 4.55617 0.2806 1.81869 0.0
C53 C 4.99452 0.27388 1.92994 0.0
O54 O 4.84682 0.29708 1.92193 0.0
O55 O 4.98565 0.29985 1.93672 0.0
C56 C 5.63505 0.03988 2.31312 0.0
O57 O 5.79989 0.05643 2.38547 0.0
Cd58 Cd 5.93353 0.04303 2.46473 0.0
O59 O 5.53325 0.01338 2.27942 0.0
Cd60 Cd 5.56694 0.97653 2.31762 0.0
C61 C 6.46827 0.05473 2.2991 0.0
O62 O 5.95438 0.97528 2.4734 0.0
O63 O 6.81611 0.96039 2.43977 0.0
O64 O 5.46307 0.92224 2.2596 0.0
C65 C 6.98479 0.9644 2.49948 0.0
O66 O 6.66361 0.06472 2.37495 0.0
C67 C 5.34947 0.90542 2.22413 0.0
O68 O 6.38185 0.02531 2.25789 0.0
O69 O 6.33151 0.92221 2.22993 0.0
C70 C 9.16364 0.86453 3.71309 0.0
O71 O 9.25735 0.85899 3.76379 0.0
Cd72 Cd 9.44206 0.8034 3.84655 0.0
O73 O 9.16709 0.83959 3.70361 0.0
Cd74 Cd 9.34498 0.77675 3.77043 0.0
C75 C 9.03746 0.73739 3.67566 0.0
O76 O 9.65706 0.79284 3.91111 0.0
O77 O 9.66417 0.73518 3.90534 0.0
O78 O 9.39903 0.79597 3.7651 0.0
C79 C 9.75439 0.76135 3.94973 0.0
O80 O 9.15991 0.75349 3.73507 0.0
C81 C 9.32214 0.76481 3.72854 0.0
O82 O 9.06445 0.74297 3.67203 0.0
O83 O 9.25725 0.73955 3.71205 0.0
C84 C 12.76856 1.01451 5.1347 0.0
O85 O 12.92882 0.99288 5.20163 0.0
Cd86 Cd 13.20483 0.98174 5.29425 0.0
O87 O 12.7596 0.03539 5.11891 0.0
Cd88 Cd 12.98256 0.05364 5.18558 0.0
C89 C 12.87824 0.96426 5.13014 0.0
O90 O 13.32627 0.04333 5.33553 0.0
O91 O 13.33488 0.0468 5.314 0.0
O92 O 12.99419 0.12179 5.19528 0.0
C93 C 13.43788 0.04281 5.36817 0.0
O94 O 12.99852 0.95279 5.18967 0.0
C95 C 12.87152 0.13132 5.13474 0.0
O96 O 12.84217 0.99983 5.1135 0.0
O97 O 12.79674 0.10456 5.09601 0.0
C98 C 2.32438 0.15133 0.86059 0.0
O99 O 2.49993 0.16135 0.92471 0.0
Cd100 Cd 2.65708 0.22356 0.99091 0.0
O101 O 2.23095 0.17336 0.83261 0.0
Cd102 Cd 2.29832 0.23567 0.87317 0.0
C103 C 2.20085 0.27683 0.79936 0.0
O104 O 2.67994 0.22803 1.0276 0.0
O105 O 2.58328 0.28548 0.99383 0.0
O106 O 2.15978 0.2005 0.8396 0.0
C107 C 2.73511 0.26156 1.05388 0.0
O108 O 2.39022 0.26683 0.87158 0.0
C109 C 2.06284 0.22873 0.80654 0.0
O110 O 2.12395 0.26766 0.7816 0.0
O111 O 2.07415 0.26055 0.80391 0.0
C112 C 2.68775 0.32296 0.81832 0.0
O113 O 2.80916 0.31493 0.87867 0.0
Cd114 Cd 3.02506 0.25871 0.96694 0.0
O115 O 2.67848 0.30101 0.80274 0.0
Cd116 Cd 2.85061 0.24074 0.86373 0.0
C117 C 2.61923 0.19255 0.8003 0.0
O118 O 3.21122 0.25768 1.01746 0.0
O119 O 3.16513 0.19778 0.99305 0.0
O120 O 2.84734 0.26464 0.83572 0.0
C121 C 3.29352 0.22543 1.04786 0.0
O122 O 2.7713 0.20525 0.87024 0.0
C123 C 2.76744 0.23396 0.79777 0.0
O124 O 2.60455 0.20324 0.78032 0.0
O125 O 2.72305 0.20693 0.78931 0.0
C126 C 9.73182 0.68288 3.72678 0.0
O127 O 9.91241 0.68861 3.79281 0.0
Cd128 Cd 10.15513 0.74089 3.89656 0.0
O129 O 9.67228 0.70456 3.71388 0.0
Cd130 Cd 9.80819 0.75997 3.78401 0.0
C131 C 9.79605 0.81521 3.74713 0.0
O132 O 10.18538 0.74292 3.93616 0.0
O133 O 10.12118 0.80093 3.91718 0.0
O134 O 9.66245 0.72494 3.74738 0.0
C135 C 10.25936 0.77499 3.97062 0.0
O136 O 9.9711 0.79885 3.81379 0.0
C137 C 9.58254 0.75392 3.72188 0.0
O138 O 9.68767 0.80445 3.71534 0.0
O139 O 9.60264 0.78606 3.7231 0.0
C140 C 5.37357 0.35018 1.9158 0.0
O141 O 5.27734 0.34025 1.86455 0.0
Cd142 Cd 5.06029 0.28384 1.77336 0.0
O143 O 5.3559 0.33013 1.92105 0.0
Cd144 Cd 5.16271 0.27198 1.85316 0.0
C145 C 5.43623 0.21754 1.93702 0.0
O146 O 4.85728 0.2858 1.71467 0.0
O147 O 4.81171 0.23448 1.70972 0.0
O148 O 5.15763 0.30982 1.87484 0.0
C149 C 4.73811 0.25729 1.66995 0.0
O150 O 5.31924 0.23147 1.87912 0.0
C151 C 5.19825 0.28196 1.90022 0.0
O152 O 5.41853 0.22865 1.94395 0.0
O153 O 5.21964 0.24912 1.90261 0.0
C154 C 12.2791 0.67674 4.78993 0.0
O155 O 12.08404 0.67642 4.71601 0.0
Cd156 Cd 11.86402 0.73168 4.62591 0.0
O157 O 12.35706 0.70559 4.81397 0.0
Cd158 Cd 12.25948 0.76827 4.76278 0.0
C159 C 12.24532 0.79835 4.79424 0.0
O160 O 11.88889 0.75077 4.60966 0.0
O161 O 11.95619 0.81097 4.63395 0.0
O162 O 12.44727 0.74035 4.81666 0.0
C163 C 11.81687 0.78388 4.57797 0.0
O164 O 12.07717 0.77686 4.72778 0.0
C165 C 12.53534 0.77131 4.8474 0.0
O166 O 12.34935 0.80098 4.82337 0.0
O167 O 12.49738 0.80163 4.83982 0.0
C168 C 1.61966 0.47689 0.43539 0.0
O169 O 1.42868 0.46295 0.35825 0.0
Cd170 Cd 1.18541 0.46848 0.28168 0.0
O171 O 1.68576 0.49742 0.47339 0.0
Cd172 Cd 1.54342 0.52602 0.44028 0.0
C173 C 1.5195 0.43797 0.44603 0.0
O174 O 1.17742 0.53487 0.28453 0.0
O175 O 1.21842 0.53588 0.32583 0.0
O176 O 1.70655 0.58626 0.49792 0.0
C177 C 1.09249 0.5393 0.26355 0.0
O178 O 1.34795 0.43285 0.36887 0.0
C179 C 1.7973 0.59369 0.54741 0.0
O180 O 1.63376 0.46851 0.49077 0.0
O181 O 1.77346 0.56899 0.54857 0.0
C182 C 8.86509 0.53449 3.30646 0.0
O183 O 8.69276 0.55102 3.23285 0.0
Cd184 Cd 8.53115 0.54682 3.14256 0.0
O185 O 8.96082 0.51114 3.33601 0.0
Cd186 Cd 7.89972 0.48104 3.28546 0.0
C187 C 7.9883 0.5674 3.30473 0.0
O188 O 8.51398 0.48057 3.13047 0.0
O189 O 7.64728 0.47207 3.16143 0.0
O190 O 8.97478 0.4185 3.32666 0.0
C191 C 7.48 0.4749 3.10246 0.0
O192 O 7.79626 0.57582 3.23142 0.0
C193 C 8.10587 0.40865 3.36888 0.0
O194 O 8.07434 0.53593 3.34344 0.0
O195 O 8.14856 0.43332 3.37559 0.0
C196 C 13.01038 0.54575 5.16246 0.0
O197 O 13.13103 0.57079 5.21762 0.0
Cd198 Cd 13.21539 0.57413 5.27859 0.0
O199 O 12.92651 0.51785 5.13631 0.0
Cd200 Cd 12.94092 0.49059 5.16895 0.0
C201 C 12.69721 0.56966 5.08549 0.0
O202 O 13.30364 0.5099 5.31876 0.0
O203 O 13.15949 0.48897 5.28181 0.0
O204 O 13.0085 0.42627 5.18686 0.0
C205 C 13.32572 0.50251 5.34191 0.0
O206 O 12.87457 0.58806 5.15471 0.0
C207 C 12.83484 0.41123 5.12208 0.0
O208 O 12.67415 0.53472 5.07201 0.0
O209 O 12.70581 0.43318 5.07723 0.0
C210 C 6.43895 0.50729 2.29988 0.0
O211 O 6.60341 0.48619 2.36466 0.0
Cd212 Cd 6.82663 0.48547 2.43208 0.0
O213 O 6.38995 0.53183 2.26974 0.0
Cd214 Cd 5.5446 0.55756 2.30736 0.0
C215 C 5.42491 0.47176 2.24298 0.0
O216 O 6.90863 0.55184 2.46215 0.0
O217 O 5.88091 0.55999 2.42638 0.0
O218 O 6.44451 0.62144 2.27552 0.0
C219 C 6.00323 0.55676 2.48742 0.0
O220 O 5.59394 0.45837 2.31748 0.0
C221 C 5.36428 0.63131 2.23022 0.0
O222 O 5.3661 0.50601 2.22174 0.0
O223 O 5.36663 0.60662 2.2203 0.0
H224 H 9.03664 0.18839 3.36206 0.0
H225 H 8.27452 0.16632 3.41136 0.0
H226 H 8.36532 0.23519 3.44483 0.0
H227 H 8.76801 0.27076 3.24431 0.0
H228 H 8.8228 0.29589 3.28432 0.0
H229 H 8.81605 0.24432 3.28133 0.0
H230 H 9.20349 0.24326 3.449 0.0
H231 H 9.21151 0.29501 3.4525 0.0
H232 H 9.41987 0.26899 3.52648 0.0
H233 H 8.39281 0.30665 3.45671 0.0
H234 H 8.32476 0.37566 3.43299 0.0
H235 H 9.05423 0.35152 3.36959 0.0
C236 C 9.11356 0.19797 3.38239 0.0
C237 C 8.15101 0.17216 3.38517 0.0
C238 C 8.24555 0.18575 3.40928 0.0
C239 C 8.29913 0.22471 3.42904 0.0
C240 C 8.25621 0.24966 3.424 0.0
C241 C 9.16459 0.23687 3.40085 0.0
C242 C 9.10853 0.27008 3.3888 0.0
C243 C 8.86443 0.27026 3.29408 0.0
C244 C 9.244 0.26928 3.45836 0.0
C245 C 9.17483 0.30355 3.40525 0.0
C246 C 8.26504 0.29117 3.42782 0.0
C247 C 8.32526 0.31674 3.44033 0.0
C248 C 8.28612 0.3559 3.42677 0.0
C249 C 8.1844 0.36892 3.39953 0.0
C250 C 9.13405 0.34245 3.39119 0.0
H251 H 12.5589 0.82868 4.83537 0.0
H252 H 12.78109 0.71394 4.93484 0.0
H253 H 12.93927 0.70998 4.97227 0.0
H254 H 11.36902 0.80772 4.72307 0.0
H255 H 11.43917 0.85274 4.74216 0.0
H256 H 12.39479 0.85093 4.7449 0.0
H257 H 12.77584 0.88072 4.90323 0.0
H258 H 11.82128 0.88279 4.90083 0.0
H259 H 12.01013 0.85835 4.9893 0.0
H260 H 12.01551 0.71368 4.9747 0.0
H261 H 11.98677 0.72334 4.93478 0.0
H262 H 11.70323 0.83482 4.82847 0.0
C263 C 12.6493 0.80348 4.86862 0.0
C264 C 12.66167 0.77187 4.88379 0.0
C265 C 12.77243 0.73859 4.92371 0.0
C266 C 12.86367 0.73618 4.9456 0.0
C267 C 11.84174 0.76726 4.92671 0.0
C268 C 12.7375 0.80036 4.88921 0.0
C269 C 11.70465 0.82695 4.86227 0.0
C270 C 11.46264 0.83501 4.76221 0.0
C271 C 11.83588 0.86442 4.91722 0.0
C272 C 11.79631 0.80279 4.8862 0.0
C273 C 11.88008 0.76895 4.92556 0.0
C274 C 11.95471 0.74042 4.94569 0.0
C275 C 11.93745 0.74613 4.92264 0.0
C276 C 11.84352 0.77988 4.87882 0.0
C277 C 11.77874 0.80898 4.86311 0.0
H278 H 1.8887 0.64901 0.56277 0.0
H279 H 1.93705 0.62356 0.63148 0.0
H280 H 2.04045 0.69101 0.6783 0.0
H281 H 2.33044 0.72848 0.73999 0.0
H282 H 2.17499 0.75533 0.66348 0.0
H283 H 2.16621 0.70356 0.6596 0.0
H284 H 1.74819 0.70477 0.49342 0.0
H285 H 1.75553 0.75619 0.49685 0.0
H286 H 1.62626 0.72986 0.46033 0.0
H287 H 2.03962 0.76184 0.6786 0.0
H288 H 1.95178 0.82992 0.63905 0.0
H289 H 1.91995 0.81032 0.57653 0.0
C290 C 1.92971 0.65732 0.59108 0.0
C291 C 1.90485 0.63118 0.59349 0.0
C292 C 1.95646 0.6431 0.62959 0.0
C293 C 2.01616 0.68136 0.65667 0.0
C294 C 2.02772 0.70701 0.6489 0.0
C295 C 1.99019 0.69531 0.61862 0.0
C296 C 1.98166 0.72922 0.60421 0.0
C297 C 2.1749 0.72914 0.67082 0.0
C298 C 1.76507 0.73004 0.50803 0.0
C299 C 2.0014 0.76194 0.62366 0.0
C300 C 2.03333 0.74856 0.6515 0.0
C301 C 2.02261 0.77282 0.66004 0.0
C302 C 1.97153 0.81138 0.63701 0.0
C303 C 1.93251 0.82524 0.6061 0.0
C304 C 1.95617 0.80059 0.60278 0.0
H305 H 5.16606 0.22718 1.90992 0.0
H306 H 5.26533 0.34945 1.94279 0.0
H307 H 5.27588 0.35935 1.97548 0.0
H308 H 4.80194 0.23598 1.79365 0.0
H309 H 4.89373 0.19485 1.84134 0.0
H310 H 4.92745 0.1967 1.83418 0.0
H311 H 5.33955 0.18625 2.00348 0.0
H312 H 5.30696 0.18451 2.01117 0.0
H313 H 5.49561 0.21831 2.0786 0.0
H314 H 5.24456 0.3567 1.99188 0.0
H315 H 5.14367 0.34252 1.97844 0.0
H316 H 5.05291 0.22229 1.92995 0.0
C317 C 5.19474 0.25591 1.92591 0.0
C318 C 5.21661 0.28753 1.92457 0.0
C319 C 5.24866 0.32483 1.94369 0.0
C320 C 5.25644 0.33069 1.96295 0.0
C321 C 5.23139 0.29895 1.96258 0.0
C322 C 5.20016 0.26231 1.94415 0.0
C323 C 5.15447 0.23371 1.93861 0.0
C324 C 4.93115 0.21419 1.84648 0.0
C325 C 5.33496 0.20394 2.01238 0.0
C326 C 5.15779 0.2602 1.9539 0.0
C327 C 5.20728 0.29756 1.9696 0.0
C328 C 5.20808 0.32748 1.98068 0.0
C329 C 5.15087 0.31914 1.97307 0.0
C330 C 5.09072 0.28131 1.95325 0.0
C331 C 5.09977 0.25143 1.94583 0.0
H332 H 6.28421 0.85 2.21962 0.0
H333 H 5.24174 0.87212 2.15303 0.0
H334 H 5.16969 0.8032 2.11922 0.0
H335 H 6.59127 0.77206 2.34002 0.0
H336 H 6.47597 0.74487 2.30945 0.0
H337 H 6.46349 0.7963 2.30455 0.0
H338 H 6.04606 0.79259 2.13912 0.0
H339 H 6.05726 0.74089 2.14369 0.0
H340 H 5.88864 0.76509 2.06186 0.0
H341 H 5.1663 0.73188 2.11798 0.0
H342 H 5.24669 0.66376 2.15519 0.0
H343 H 6.31168 0.68774 2.2307 0.0
C344 C 6.24984 0.8405 2.19402 0.0
C345 C 5.26467 0.86624 2.18739 0.0
C346 C 5.22838 0.85274 2.15746 0.0
C347 C 5.18643 0.81371 2.13775 0.0
C348 C 5.18233 0.78865 2.14873 0.0
C349 C 6.21233 0.80152 2.17591 0.0
C350 C 6.23614 0.76835 2.19671 0.0
C351 C 6.45467 0.77054 2.29339 0.0
C352 C 6.04562 0.76663 2.13143 0.0
C353 C 6.22697 0.73496 2.18178 0.0
C354 C 5.18926 0.74716 2.15155 0.0
C355 C 5.19164 0.72187 2.13995 0.0
C356 C 5.23814 0.68326 2.16154 0.0
C357 C 5.28548 0.67054 2.19586 0.0
C358 C 6.27446 0.69661 2.20394 0.0
H359 H 9.4223 0.81517 3.74533 0.0
H360 H 9.20418 0.69818 3.66635 0.0
H361 H 9.21007 0.68473 3.64057 0.0
H362 H 9.11972 0.82744 3.58656 0.0
H363 H 9.33528 0.85539 3.66466 0.0
H364 H 9.2942 0.85699 3.66885 0.0
H365 H 9.69211 0.83715 3.83359 0.0
H366 H 9.73437 0.83554 3.82993 0.0
H367 H 9.78943 0.79392 3.86384 0.0
H368 H 9.27994 0.6817 3.64021 0.0
H369 H 9.4007 0.68992 3.66167 0.0
H370 H 9.55716 0.80955 3.73397 0.0
C371 C 9.37275 0.7869 3.72137 0.0
C372 C 9.31294 0.75771 3.7079 0.0
C373 C 9.25022 0.72101 3.67696 0.0
C374 C 9.2524 0.71312 3.66187 0.0
C375 C 9.31492 0.74236 3.6769 0.0
C376 C 9.37217 0.77862 3.70521 0.0
C377 C 9.444 0.8043 3.72084 0.0
C378 C 9.289 0.83802 3.65636 0.0
C379 C 9.67889 0.81854 3.8178 0.0
C380 C 9.42548 0.77639 3.69993 0.0
C381 C 9.34925 0.74089 3.67411 0.0
C382 C 9.33566 0.70954 3.65861 0.0
C383 C 9.40502 0.71444 3.67116 0.0
C384 C 9.48536 0.75046 3.69832 0.0
C385 C 9.49138 0.78196 3.71107 0.0
H386 H 13.13093 0.3547 5.24108 0.0
H387 H 12.44137 0.37449 4.96027 0.0
H388 H 12.37492 0.30444 4.93032 0.0
H389 H 13.16198 0.27502 5.22668 0.0
H390 H 13.35651 0.24982 5.3167 0.0
H391 H 13.34903 0.30148 5.31424 0.0
H392 H 13.30139 0.29951 5.325 0.0
H393 H 13.31013 0.24793 5.32807 0.0
H394 H 13.08248 0.27146 5.24507 0.0
H395 H 12.38932 0.23149 4.93289 0.0
H396 H 12.47695 0.16215 4.96916 0.0
H397 H 13.15197 0.19156 5.24898 0.0
C398 C 12.96611 0.3443 5.17317 0.0
C399 C 12.79119 0.36978 5.10272 0.0
C400 C 12.57727 0.35522 5.01495 0.0
C401 C 12.53846 0.31561 4.99742 0.0
C402 C 12.71531 0.29115 5.06867 0.0
C403 C 12.92451 0.30499 5.15493 0.0
C404 C 13.08513 0.27281 5.22062 0.0
C405 C 13.24771 0.27492 5.2726 0.0
C406 C 13.20151 0.27294 5.28334 0.0
C407 C 12.93406 0.23856 5.15812 0.0
C408 C 12.72191 0.24957 5.07058 0.0
C409 C 12.55472 0.2226 5.00122 0.0
C410 C 12.60567 0.18341 5.02222 0.0
C411 C 12.82053 0.1719 5.11165 0.0
C412 C 12.98621 0.19981 5.18006 0.0
H413 H 2.01746 0.28387 0.81045 0.0
H414 H 1.87206 0.16438 0.74166 0.0
H415 H 1.72549 0.15571 0.70912 0.0
H416 H 3.22258 0.26726 0.92949 0.0
H417 H 3.12201 0.31019 0.89796 0.0
H418 H 2.17289 0.30936 0.89789 0.0
H419 H 1.77753 0.32934 0.73322 0.0
H420 H 2.72546 0.33039 0.73287 0.0
H421 H 1.55704 0.30127 0.65243 0.0
H422 H 2.63663 0.15782 0.70146 0.0
H423 H 2.6322 0.16925 0.72796 0.0
H424 H 2.85268 0.28667 0.8092 0.0
C425 C 1.94789 0.25628 0.78565 0.0
C426 C 1.95252 0.2249 0.77717 0.0
C427 C 1.86798 0.18879 0.74781 0.0
C428 C 1.78342 0.18369 0.72872 0.0
C429 C 1.78631 0.21493 0.74 0.0
C430 C 1.86689 0.25054 0.76803 0.0
C431 C 2.8788 0.27788 0.7865 0.0
C432 C 2.11294 0.29197 0.88371 0.0
C433 C 1.7255 0.31172 0.7224 0.0
C434 C 2.79989 0.25166 0.76762 0.0
C435 C 2.74248 0.21579 0.73884 0.0
C436 C 2.67808 0.18595 0.72271 0.0
C437 C 2.67653 0.19271 0.73814 0.0
C438 C 2.74201 0.22885 0.77059 0.0
C439 C 2.79992 0.25886 0.78363 0.0
H440 H 6.36654 0.9668 2.63792 0.0
H441 H 7.09067 0.97346 2.57305 0.0
H442 H 7.44952 0.99294 2.72812 0.0
H443 H 6.90291 0.9317 2.86574 0.0
H444 H 7.03704 0.95982 2.90494 0.0
H445 H 6.76527 0.94202 2.7923 0.0
H446 H 6.64137 0.01145 2.73677 0.0
H447 H 6.9112 0.02958 2.84894 0.0
H448 H 6.6876 0.0483 2.7698 0.0
H449 H 7.83369 0.01907 2.88754 0.0
H450 H 8.21409 0.04285 3.03952 0.0
H451 H 7.22441 0.01852 2.9942 0.0
C452 C 6.38251 0.97143 2.65676 0.0
C453 C 7.20169 0.96862 2.59384 0.0
C454 C 7.22823 0.97514 2.62069 0.0
C455 C 7.43092 0.98643 2.70838 0.0
C456 C 7.60437 0.99056 2.76799 0.0
C457 C 7.58224 0.98256 2.74339 0.0
C458 C 6.78865 0.99084 2.81773 0.0
C459 C 6.8788 0.95389 2.84691 0.0
C460 C 6.75505 0.02189 2.79171 0.0
C461 C 7.92998 1.00552 2.88774 0.0
C462 C 7.82224 1.00521 2.85842 0.0
C463 C 7.92027 0.01896 2.91149 0.0
C464 C 8.13532 0.03266 2.99728 0.0
C465 C 8.2484 0.03236 3.02852 0.0
C466 C 7.14279 0.01887 2.97246 0.0
H467 H 10.96235 0.71352 4.45765 0.0
H468 H 10.86472 0.78332 4.45928 0.0
H469 H 10.46989 0.77981 4.29612 0.0
H470 H 10.61605 0.75978 4.29569 0.0
H471 H 10.50662 0.71969 4.24074 0.0
H472 H 10.77219 0.7169 4.35611 0.0
H473 H 10.66079 0.65523 4.32618 0.0
H474 H 10.39468 0.65733 4.21039 0.0
H475 H 10.42431 0.65533 4.24317 0.0
H476 H 10.11371 0.78307 4.14109 0.0
H477 H 9.80469 0.78998 3.99908 0.0
H478 H 10.11382 0.7174 4.08951 0.0
C479 C 10.85567 0.72608 4.4232 0.0
C480 C 10.94055 0.74773 4.46991 0.0
C481 C 10.80013 0.76588 4.42385 0.0
C482 C 10.57627 0.76397 4.33142 0.0
C483 C 10.49657 0.74399 4.28642 0.0
C484 C 10.63106 0.7249 4.33044 0.0
C485 C 10.50731 0.7112 4.2663 0.0
C486 C 10.60646 0.72791 4.29122 0.0
C487 C 10.49608 0.66715 4.2612 0.0
C488 C 10.28655 0.72781 4.18063 0.0
C489 C 10.28401 0.74591 4.19393 0.0
C490 C 10.11057 0.76789 4.12885 0.0
C491 C 9.93584 0.77187 4.04834 0.0
C492 C 9.93378 0.75367 4.0328 0.0
C493 C 10.10931 0.73065 4.09908 0.0
H494 H 0.8045 0.94025 0.14619 0.0
H495 H 1.07092 0.91322 0.2082 0.0
H496 H 0.72766 0.93251 0.05752 0.0
H497 H 13.95742 0.94527 5.61156 0.0
H498 H 13.84386 0.98363 5.5771 0.0
H499 H 0.39716 0.92806 -0.00958 0.0
H500 H 0.56431 -0.00335 0.05591 0.0
H501 H 14.01246 0.05233 5.64292 0.0
H502 H 0.53611 0.02354 0.02678 0.0
H503 H 14.0676 0.996 5.59885 0.0
H504 H 13.69921 1.02296 5.44889 0.0
H505 H 13.68498 0.03249 5.49347 0.0
C506 C 0.78979 0.9377 0.12775 0.0
C507 C 0.96405 0.9252 0.18877 0.0
C508 C 0.93875 0.92257 0.16222 0.0
C509 C 0.7449 0.93361 0.07699 0.0
C510 C 0.57854 0.94699 0.01936 0.0
C511 C 0.59865 0.94861 0.04347 0.0
C512 C 0.39972 0.96504 -0.02916 0.0
C513 C 13.99666 0.97211 5.63385 0.0
C514 C 0.45472 0.00241 0.00181 0.0
C515 C 13.97196 1.00953 5.59891 0.0
C516 C 14.07703 0.99904 5.62776 0.0
C517 C 13.98331 1.00409 5.57539 0.0
C518 C 13.77491 1.0196 5.49065 0.0
C519 C 13.66373 0.02973 5.45962 0.0
C520 C 13.76549 1.02495 5.51517 0.0
H521 H 3.07837 0.21435 1.19069 0.0
H522 H 2.91153 0.33479 1.12541 0.0
H523 H 3.29898 0.35265 1.27814 0.0
H524 H 3.5862 0.22256 1.41599 0.0
H525 H 3.71334 0.1868 1.4553 0.0
H526 H 3.42572 0.18447 1.34272 0.0
H527 H 3.36079 0.18421 1.28675 0.0
H528 H 3.64802 0.18711 1.39908 0.0
H529 H 3.47279 0.22258 1.32018 0.0
H530 H 3.70713 0.35645 1.43787 0.0
H531 H 4.09923 0.34601 1.59208 0.0
H532 H 3.98442 0.22282 1.5467 0.0
C533 C 3.12288 0.24454 1.2085 0.0
C534 C 2.96542 0.27323 1.14639 0.0
C535 C 3.03032 0.31238 1.17234 0.0
C536 C 3.24945 0.32274 1.25863 0.0
C537 C 3.39994 0.29355 1.31757 0.0
C538 C 3.33893 0.25527 1.29357 0.0
C539 C 3.5292 0.22919 1.36798 0.0
C540 C 3.56575 0.2043 1.39723 0.0
C541 C 3.50091 0.20432 1.3419 0.0
C542 C 3.70793 0.25871 1.43796 0.0
C543 C 3.63125 0.2957 1.40803 0.0
C544 C 3.76872 0.3276 1.46194 0.0
C545 C 3.99074 0.32139 1.54919 0.0
C546 C 4.07194 0.2836 1.58123 0.0
C547 C 3.92743 0.25204 1.52417 0.0
H548 H 3.51865 0.19352 1.16238 0.0
H549 H 3.5885 0.25086 1.14611 0.0
H550 H 3.9831 0.25682 1.30923 0.0
H551 H 3.86078 0.25228 1.32015 0.0
H552 H 3.98115 0.21674 1.38104 0.0
H553 H 3.7138 0.20869 1.26562 0.0
H554 H 3.83338 0.14448 1.30158 0.0
H555 H 4.10116 0.15198 1.41736 0.0
H556 H 4.06583 0.14385 1.38257 0.0
H557 H 4.34319 0.26827 1.46515 0.0
H558 H 4.66435 0.2806 1.61065 0.0
H559 H 4.3772 0.21438 1.53261 0.0
C560 C 3.61989 0.20561 1.19407 0.0
C561 C 3.52737 0.22085 1.14318 0.0
C562 C 3.65977 0.2383 1.18511 0.0
C563 C 3.88317 0.24179 1.2774 0.0
C564 C 3.97014 0.2277 1.32622 0.0
C565 C 3.84391 0.20947 1.28649 0.0
C566 C 3.97461 0.20124 1.35369 0.0
C567 C 3.87671 0.22092 1.3286 0.0
C568 C 3.99498 0.1578 1.36444 0.0
C569 C 4.19044 0.21938 1.43622 0.0
C570 C 4.18381 0.23408 1.41862 0.0
C571 C 4.3532 0.25591 1.4807 0.0
C572 C 4.53465 0.26296 1.56311 0.0
C573 C 4.5469 0.24792 1.58331 0.0
C574 C 4.37368 0.2254 1.51942 0.0
H575 H 10.58834 0.72525 4.0981 0.0
H576 H 10.45484 0.84609 4.05099 0.0
H577 H 10.83865 0.86213 4.20022 0.0
H578 H 11.12166 0.72729 4.33076 0.0
H579 H 11.22854 0.693 4.36026 0.0
H580 H 10.9453 0.69152 4.25106 0.0
H581 H 10.84808 0.69656 4.18263 0.0
H582 H 11.13099 0.69871 4.29162 0.0
H583 H 10.95359 0.73629 4.21389 0.0
H584 H 11.23461 0.86493 4.35232 0.0
H585 H 11.61962 0.85365 4.50131 0.0
H586 H 11.48852 0.73093 4.44697 0.0
C587 C 10.64015 0.75506 4.11947 0.0
C588 C 10.49208 0.78443 4.06304 0.0
C589 C 10.56603 0.82311 4.09339 0.0
C590 C 10.78324 0.83252 4.17776 0.0
C591 C 10.92381 0.80288 4.23084 0.0
C592 C 10.85576 0.76491 4.20332 0.0
C593 C 11.03853 0.7384 4.27288 0.0
C594 C 11.08634 0.71095 4.30569 0.0
C595 C 10.9898 0.71619 4.23815 0.0
C596 C 11.22008 0.76739 4.34375 0.0
C597 C 11.15091 0.80446 4.31825 0.0
C598 C 11.29087 0.83601 4.37317 0.0
C599 C 11.50872 0.82935 4.45736 0.0
C600 C 11.58368 0.79143 4.48561 0.0
C601 C 11.436 0.76025 4.42722 0.0
H602 H 13.65331 0.54499 5.46172 0.0
H603 H 13.44508 0.48975 5.4206 0.0
H604 H 13.78858 0.51094 5.57165 0.0
H605 H 0.47873 0.48105 -0.01892 0.0
H606 H 0.58477 0.52506 0.01559 0.0
H607 H 14.02153 0.5461 5.59872 0.0
H608 H 13.87383 0.6112 5.54891 0.0
H609 H 0.43751 0.59027 -0.03388 0.0
H610 H 13.93638 0.6273 5.59355 0.0
H611 H 0.46741 0.49675 0.03729 0.0
H612 H 0.85717 0.51465 0.19414 0.0
H613 H 0.79545 0.55496 0.12182 0.0
C614 C 13.67757 0.53763 5.4836 0.0
C615 C 13.52288 0.51568 5.4296 0.0
C616 C 13.56185 0.50664 5.46109 0.0
C617 C 13.75566 0.51872 5.54644 0.0
C618 C 13.90586 0.54015 5.59828 0.0
C619 C 13.86739 0.54952 5.56743 0.0
C620 C 14.05804 0.57012 5.63692 0.0
C621 C 14.14446 0.54762 5.65767 0.0
C622 C 13.9997 0.61137 5.60886 0.0
C623 C 0.50737 0.53296 0.01671 0.0
C624 C 0.4168 0.51622 -0.00668 0.0
C625 C 0.53841 0.51041 0.05578 0.0
C626 C 0.7593 0.52081 0.14459 0.0
C627 C 0.85542 0.53627 0.16969 0.0
C628 C 0.7256 0.54349 0.10428 0.0
H629 H 8.12143 0.49644 2.97366 0.0
H630 H 7.35784 0.47364 3.02235 0.0
H631 H 7.00721 0.4948 2.87019 0.0
H632 H 7.57121 0.46612 2.74601 0.0
H633 H 7.4661 0.50351 2.71588 0.0
H634 H 7.73152 0.48495 2.82646 0.0
H635 H 7.89303 0.554 2.88963 0.0
H636 H 7.62848 0.57269 2.77912 0.0
H637 H 7.84745 0.58192 2.85395 0.0
H638 H 6.62375 0.51985 2.71024 0.0
H639 H 6.24472 0.5426 2.55829 0.0
H640 H 7.28482 0.55087 2.62471 0.0
C641 C 7.09962 0.49541 2.95238 0.0
C642 C 7.26635 0.48328 3.00962 0.0
C643 C 7.23126 0.48269 2.97919 0.0
C644 C 7.03339 0.49484 2.89319 0.0
C645 C 6.87421 0.50762 2.83925 0.0
C646 C 6.90603 0.50774 2.86799 0.0
C647 C 7.71373 0.52323 2.79911 0.0
C648 C 7.6148 0.49262 2.77014 0.0
C649 C 7.77439 0.56015 2.83247 0.0
C650 C 6.56652 0.53153 2.72628 0.0
C651 C 6.6604 0.52254 2.75001 0.0
C652 C 6.54931 0.52709 2.69123 0.0
C653 C 6.33498 0.54021 2.6054 0.0
C654 C 6.23589 0.54848 2.57992 0.0
C655 C 6.35595 0.54484 2.64214 0.0
H656 H 8.73299 0.86176 3.53583 0.0
H657 H 9.27409 0.93955 3.76138 0.0
H658 H 9.02358 0.99037 3.6684 0.0
H659 H 8.29311 0.93921 3.34973 0.0
H660 H 8.09904 0.91143 3.28263 0.0
H661 H 8.30307 0.88753 3.35356 0.0
H662 H 8.42267 0.85114 3.42646 0.0
H663 H 8.22435 0.87533 3.35795 0.0
H664 H 8.50552 0.87811 3.4768 0.0
H665 H 8.74095 0.02469 3.56855 0.0
H666 H 8.45431 0.03947 3.47193 0.0
H667 H 8.09461 0.93788 3.31227 0.0
C668 C 8.79566 0.89042 3.56335 0.0
C669 C 9.02034 0.89747 3.65433 0.0
C670 C 9.10117 0.93428 3.69089 0.0
C671 C 8.95975 0.96323 3.63844 0.0
C672 C 8.73865 0.95462 3.55001 0.0
C673 C 8.65622 0.91913 3.51221 0.0
C674 C 8.42315 0.9138 3.42345 0.0
C675 C 8.27057 0.91296 3.34786 0.0
C676 C 8.39254 0.87749 3.42121 0.0
C677 C 8.39446 0.95007 3.4213 0.0
C678 C 8.57458 0.97398 3.49285 0.0
C679 C 8.59651 1.00678 3.51089 0.0
C680 C 8.4333 0.01482 3.45591 0.0
C681 C 8.25256 0.98971 3.38479 0.0
C682 C 8.23022 0.95774 3.36579 0.0
H683 H 12.07231 0.8849 4.90864 0.0
H684 H 11.51289 0.93006 4.65935 0.0
H685 H 11.7369 0.98374 4.73958 0.0
H686 H 12.35933 0.98116 5.03198 0.0
H687 H 12.61848 0.96008 5.13253 0.0
H688 H 12.40477 0.93161 5.05516 0.0
H689 H 12.44019 0.88118 5.04744 0.0
H690 H 12.65263 0.90934 5.12429 0.0
H691 H 12.41624 0.8963 5.01782 0.0
H692 H 12.02934 0.02406 4.84583 0.0
H693 H 12.36508 0.04477 4.96788 0.0
H694 H 12.73673 0.97324 5.14876 0.0
C695 C 11.99514 0.90694 4.87072 0.0
C696 C 11.77526 0.90347 4.77786 0.0
C697 C 11.68123 0.93223 4.73063 0.0
C698 C 11.80685 0.96303 4.7756 0.0
C699 C 12.0258 0.96479 4.8677 0.0
C700 C 12.11897 0.93758 4.91475 0.0
C701 C 12.36283 0.94214 5.01336 0.0
C702 C 12.4409 0.95449 5.06106 0.0
C703 C 12.47426 0.90507 5.05293 0.0
C704 C 12.39328 0.97429 5.01397 0.0
C705 C 12.19691 0.98788 4.92969 0.0
C706 C 12.18418 1.01435 4.91244 0.0
C707 C 12.37607 0.02596 4.98228 0.0
C708 C 12.57729 1.01055 5.06789 0.0
C709 C 12.58579 0.98583 5.08431 0.0
H710 H 1.44221 0.0448 0.45645 0.0
H711 H 1.92195 0.95755 0.64115 0.0
H712 H 2.14306 0.98315 0.75175 0.0
H713 H 1.78657 0.11798 0.60024 0.0
H714 H 1.64433 0.14222 0.55828 0.0
H715 H 1.49776 0.11172 0.48597 0.0
H716 H 1.34697 0.07169 0.4483 0.0
H717 H 1.49286 0.10237 0.52049 0.0
H718 H 1.53139 0.0512 0.53646 0.0
H719 H 2.34936 0.02653 0.85209 0.0
H720 H 2.51551 0.08293 0.93204 0.0
H721 H 1.89921 0.14043 0.68273 0.0
C722 C 1.58976 0.03019 0.51892 0.0
C723 C 1.66486 -0.00073 0.54015 0.0
C724 C 1.86079 0.98131 0.62325 0.0
C725 C 1.98721 0.9955 0.68646 0.0
C726 C 1.91373 0.02719 0.66506 0.0
C727 C 1.71752 0.04394 0.58268 0.0
C728 C 1.68903 0.08063 0.58037 0.0
C729 C 1.65249 0.11514 0.55478 0.0
C730 C 1.50408 0.07618 0.51769 0.0
C731 C 1.90635 0.08335 0.67601 0.0
C732 C 2.03212 0.05185 0.72338 0.0
C733 C 2.25035 0.05064 0.81539 0.0
C734 C 2.34368 0.08278 0.86028 0.0
C735 C 2.21807 0.11536 0.81293 0.0
C736 C 1.99563 0.11513 0.71971 0.0
H737 H 5.22098 0.03653 2.13528 0.0
H738 H 5.87263 0.07339 2.38566 0.0
H739 H 5.73599 0.10127 2.30618 0.0
H740 H 5.0148 0.01934 2.01125 0.0
H741 H 4.75459 0.03878 1.91122 0.0
H742 H 4.90823 0.01387 1.98771 0.0
H743 H 4.88747 0.07319 1.99747 0.0
H744 H 4.73415 0.09811 1.92124 0.0
H745 H 4.98145 0.11926 2.0283 0.0
H746 H 5.52638 0.13342 2.20102 0.0
H747 H 5.25915 0.17186 2.0792 0.0
H748 H 4.74092 0.11597 1.89639 0.0
C749 C 5.33553 0.04929 2.17334 0.0
C750 C 5.55726 0.05253 2.26643 0.0
C751 C 5.70196 0.07055 2.31416 0.0
C752 C 5.62615 0.08614 2.26967 0.0
C753 C 5.4053 0.08349 2.1775 0.0
C754 C 5.26181 0.06555 2.12978 0.0
C755 C 5.02965 0.07176 2.03135 0.0
C756 C 4.92042 0.03366 1.98252 0.0
C757 C 4.90083 0.09178 1.99239 0.0
C758 C 5.06477 0.09775 2.0316 0.0
C759 C 5.28254 0.10318 2.11623 0.0
C760 C 5.35527 0.12885 2.13419 0.0
C761 C 5.202 0.15061 2.06446 0.0
C762 C 4.97893 0.147 1.9782 0.0
C763 C 4.90991 0.11913 1.96133 0.0
H764 H 6.03915 0.07133 2.12428 0.0
H765 H 6.61222 0.09024 2.38344 0.0
H766 H 6.39901 0.12921 2.3159 0.0
H767 H 5.85124 0.16636 2.05196 0.0
H768 H 5.56841 0.15289 1.93826 0.0
H769 H 5.75992 0.12304 2.00557 0.0
H770 H 5.63368 0.06475 1.97129 0.0
H771 H 5.44215 0.09452 1.90409 0.0
H772 H 5.63936 0.06816 1.9945 0.0
H773 H 6.12433 0.16658 2.22025 0.0
H774 H 5.82127 0.20663 2.10698 0.0
H775 H 5.43677 0.16758 1.91273 0.0
C776 C 6.11843 0.08326 2.16641 0.0
C777 C 6.34074 0.07757 2.25869 0.0
C778 C 6.44144 0.09433 2.31244 0.0
C779 C 6.32155 0.11622 2.27465 0.0
C780 C 6.10236 0.12147 2.18333 0.0
C781 C 6.00247 0.10594 2.13008 0.0
C782 C 5.77051 0.11887 2.03527 0.0
C783 C 5.7356 0.14165 2.0061 0.0
C784 C 5.6121 0.08452 1.9726 0.0
C785 C 5.75622 0.14441 2.0437 0.0
C786 C 5.94769 0.14484 2.12916 0.0
C787 C 5.97354 0.16649 2.15309 0.0
C788 C 5.80046 0.189 2.08831 0.0
C789 C 5.60643 0.19022 2.0014 0.0
C790 C 5.58371 0.16724 1.9788 0.0
H791 H 2.09404 0.03581 0.64585 0.0
H792 H 1.48124 0.05785 0.37623 0.0
H793 H 1.66413 0.10354 0.43212 0.0
H794 H 2.28174 0.13377 0.72053 0.0
H795 H 2.56121 0.12196 0.82992 0.0
H796 H 2.38572 0.08898 0.76951 0.0
H797 H 2.47886 0.03525 0.78741 0.0
H798 H 2.65466 0.06809 0.84787 0.0
H799 H 2.43868 0.04332 0.75071 0.0
H800 H 1.91125 0.14531 0.51615 0.0
H801 H 2.20288 0.18608 0.62271 0.0
H802 H 2.65236 0.14144 0.8379 0.0
C803 C 1.99948 0.05005 0.59891 0.0
C804 C 1.77444 0.04321 0.50692 0.0
C805 C 1.65406 0.06282 0.44699 0.0
C806 C 1.75646 0.08863 0.47808 0.0
C807 C 1.97839 0.09492 0.56911 0.0
C808 C 2.09836 0.07665 0.62873 0.0
C809 C 2.33221 0.09044 0.72276 0.0
C810 C 2.39374 0.10995 0.76302 0.0
C811 C 2.48509 0.05729 0.78058 0.0
C812 C 2.32465 0.1192 0.70653 0.0
C813 C 2.1195 0.12083 0.61751 0.0
C814 C 2.07238 0.14449 0.58599 0.0
C815 C 2.2392 0.16741 0.64705 0.0
C816 C 2.4495 0.16696 0.73833 0.0
C817 C 2.4925 0.14254 0.76835 0.0
H818 H 12.44602 0.8693 4.87684 0.0
H819 H 12.22551 0.77275 4.81598 0.0
H820 H 12.36447 0.80489 4.89559 0.0
H821 H 12.93211 0.89157 5.09399 0.0
H822 H 12.90433 0.94286 5.08129 0.0
H823 H 12.79258 0.912 5.02139 0.0
H824 H 12.41543 0.94191 4.87352 0.0
H825 H 12.52609 0.97289 4.93299 0.0
H826 H 12.29722 0.94198 4.84506 0.0
H827 H 12.54314 0.84522 4.98779 0.0
H828 H 12.72137 0.89471 5.07591 0.0
H829 H 12.79832 0.96828 5.06652 0.0
C830 C 12.42789 0.85501 4.88065 0.0
C831 C 12.32645 0.8185 4.84088 0.0
C832 C 12.30231 0.80079 4.84588 0.0
C833 C 12.38126 0.81873 4.89115 0.0
C834 C 12.48023 0.8547 4.92958 0.0
C835 C 12.50113 0.87299 4.92381 0.0
C836 C 12.607 0.91229 4.96833 0.0
C837 C 12.82177 0.91481 5.04586 0.0
C838 C 12.45215 0.94415 4.90094 0.0
C839 C 12.64477 0.91291 5.00098 0.0
C840 C 12.57246 0.87915 4.97865 0.0
C841 C 12.59823 0.87198 5.00485 0.0
C842 C 12.70018 0.90015 5.05506 0.0
C843 C 12.77149 0.93528 5.07715 0.0
C844 C 12.74219 0.94183 5.04927 0.0
H845 H 9.3858 0.82575 3.57098 0.0
H846 H 10.0353 0.87452 3.83202 0.0
H847 H 9.91439 0.92552 3.76542 0.0
H848 H 9.29503 0.83781 3.49432 0.0
H849 H 9.01159 0.84853 3.38187 0.0
H850 H 9.14018 0.81917 3.44809 0.0
H851 H 9.01642 0.86555 3.41993 0.0
H852 H 8.88656 0.89503 3.35325 0.0
H853 H 9.08494 0.91592 3.44616 0.0
H854 H 9.72766 0.9695 3.67184 0.0
H855 H 9.49643 1.00046 3.55907 0.0
H856 H 8.97545 0.91976 3.35992 0.0
C857 C 9.5005 0.84777 3.61354 0.0
C858 C 9.7185 0.84688 3.7062 0.0
C859 C 9.86707 0.87516 3.7607 0.0
C860 C 9.79975 0.90421 3.7235 0.0
C861 C 9.58426 0.90408 3.63191 0.0
C862 C 9.43714 0.8764 3.57762 0.0
C863 C 9.22112 0.88052 3.48245 0.0
C864 C 9.16375 0.84436 3.44982 0.0
C865 C 9.04167 0.88982 3.42188 0.0
C866 C 9.27084 0.91451 3.49203 0.0
C867 C 9.47976 0.92812 3.57845 0.0
C868 C 9.56358 0.95918 3.60387 0.0
C869 C 9.43098 0.9766 3.53937 0.0
C870 C 9.2186 0.9624 3.45097 0.0
C871 C 9.13759 0.93109 3.42712 0.0
H872 H 2.68857 0.37884 0.84092 0.0
H873 H 2.34716 0.34005 0.66201 0.0
H874 H 2.0601 0.3867 0.55151 0.0
H875 H 2.26132 0.38321 0.69207 0.0
H876 H 2.33996 0.42566 0.73447 0.0
H877 H 2.54312 0.39674 0.80743 0.0
H878 H 2.68987 0.45588 0.85138 0.0
H879 H 2.48716 0.48525 0.77869 0.0
H880 H 2.5085 0.48332 0.76639 0.0
H881 H 1.77539 0.42494 0.44961 0.0
H882 H 1.52576 0.45474 0.36776 0.0
H883 H 2.05626 0.47124 0.61395 0.0
C884 C 2.55736 0.38111 0.77977 0.0
C885 C 2.53995 0.35576 0.75999 0.0
C886 C 2.36456 0.3593 0.67884 0.0
C887 C 2.20086 0.38582 0.6157 0.0
C888 C 2.21746 0.40911 0.63553 0.0
C889 C 2.39368 0.40756 0.71642 0.0
C890 C 2.36063 0.43202 0.71743 0.0
C891 C 2.37707 0.40795 0.73904 0.0
C892 C 2.52107 0.46615 0.78232 0.0
C893 C 2.13204 0.44527 0.62251 0.0
C894 C 2.05356 0.43238 0.57672 0.0
C895 C 1.83688 0.43632 0.48526 0.0
C896 C 1.69603 0.45305 0.43925 0.0
C897 C 1.77292 0.46568 0.48489 0.0
C898 C 1.99483 0.46287 0.57788 0.0
H899 H 5.36932 0.40934 1.89345 0.0
H900 H 5.71348 0.36614 2.07226 0.0
H901 H 5.99921 0.41542 2.18345 0.0
H902 H 5.78771 0.41973 2.03876 0.0
H903 H 5.70897 0.46342 1.99749 0.0
H904 H 5.50635 0.43249 1.92424 0.0
H905 H 5.36716 0.48882 1.88492 0.0
H906 H 5.57041 0.52016 1.95838 0.0
H907 H 5.55282 0.515 1.97212 0.0
H908 H 6.28502 0.45539 2.2863 0.0
H909 H 6.53711 0.48532 2.369 0.0
H910 H 6.0022 0.50664 2.12228 0.0
C911 C 5.501 0.4112 1.9548 0.0
C912 C 5.52021 0.38396 1.97457 0.0
C913 C 5.69511 0.38695 2.05562 0.0
C914 C 5.85776 0.41496 2.11903 0.0
C915 C 5.83962 0.44029 2.09925 0.0
C916 C 5.66281 0.43923 2.01813 0.0
C917 C 5.69484 0.46588 2.01732 0.0
C918 C 5.67342 0.44406 1.99313 0.0
C919 C 5.53692 0.49947 1.95446 0.0
C920 C 5.92482 0.47948 2.11291 0.0
C921 C 6.00408 0.4651 2.1587 0.0
C922 C 6.22294 0.46814 2.25074 0.0
C923 C 6.36511 0.48502 2.29724 0.0
C924 C 6.28718 0.49886 2.25146 0.0
C925 C 6.06362 0.49758 2.15822 0.0
H926 H 9.29532 0.54118 3.48618 0.0
H927 H 8.65951 0.55581 3.25023 0.0
H928 H 8.82632 0.58578 3.34064 0.0
H929 H 9.60739 0.52845 3.64959 0.0
H930 H 9.83229 0.55645 3.73279 0.0
H931 H 9.6694 0.52761 3.6541 0.0
H932 H 9.59806 0.58777 3.60851 0.0
H933 H 9.75831 0.61678 3.68609 0.0
H934 H 9.48246 0.62956 3.57087 0.0
H935 H 9.05225 0.6231 3.45036 0.0
H936 H 9.3172 0.66716 3.56939 0.0
H937 H 9.80591 0.63101 3.73333 0.0
C938 C 9.19249 0.54919 3.45438 0.0
C939 C 8.96535 0.5457 3.36174 0.0
C940 C 8.83429 0.55796 3.32142 0.0
C941 C 8.92767 0.57481 3.37228 0.0
C942 C 9.15207 0.57932 3.4632 0.0
C943 C 9.28311 0.56677 3.50404 0.0
C944 C 9.51503 0.58034 3.59972 0.0
C945 C 9.66486 0.54617 3.66278 0.0
C946 C 9.59279 0.60508 3.61723 0.0
C947 C 9.49172 0.60404 3.60497 0.0
C948 C 9.2825 0.60223 3.52633 0.0
C949 C 9.21763 0.62419 3.51285 0.0
C950 C 9.36931 0.64925 3.58083 0.0
C951 C 9.58248 0.65258 3.66075 0.0
C952 C 9.64492 0.62891 3.67339 0.0
H953 H 12.1746 0.61419 4.76561 0.0
H954 H 12.71356 0.67051 4.95928 0.0
H955 H 12.96672 0.62853 5.07501 0.0
H956 H 12.38345 0.61416 4.88446 0.0
H957 H 12.28515 0.568 4.85148 0.0
H958 H 12.14293 0.59272 4.77915 0.0
H959 H 12.17925 0.53409 4.77549 0.0
H960 H 12.32054 0.50879 4.84755 0.0
H961 H 12.4427 0.51461 4.87786 0.0
H962 H 13.1586 0.59609 5.1734 0.0
H963 H 13.27266 0.5728 5.24512 0.0
H964 H 12.61611 0.53471 4.99026 0.0
C965 C 12.34515 0.61652 4.83155 0.0
C966 C 12.42421 0.64572 4.85342 0.0
C967 C 12.64883 0.64832 4.94077 0.0
C968 C 12.79412 0.62441 5.00702 0.0
C969 C 12.71204 0.5976 4.98453 0.0
C970 C 12.492 0.5929 4.89835 0.0
C971 C 12.44667 0.56671 4.8938 0.0
C972 C 12.30657 0.58662 4.84973 0.0
C973 C 12.34108 0.52879 4.84585 0.0
C974 C 12.67487 0.5604 4.9915 0.0
C975 C 12.82599 0.57758 5.04262 0.0
C976 C 13.04333 0.58124 5.13437 0.0
C977 C 13.10654 0.56816 5.17452 0.0
C978 C 12.95321 0.55148 5.123 0.0
C979 C 12.73707 0.54616 5.03107 0.0
H980 H 12.71816 0.62908 5.11466 0.0
H981 H 12.26483 0.55501 4.90721 0.0
H982 H 11.95922 0.59003 4.7957 0.0
H983 H 12.40442 0.63374 5.02366 0.0
H984 H 12.47975 0.68299 5.05792 0.0
H985 H 12.66157 0.65259 5.12063 0.0
H986 H 12.67202 0.70162 5.10218 0.0
H987 H 12.48964 0.7321 5.03914 0.0
H988 H 12.42206 0.71611 4.99255 0.0
H989 H 11.70479 0.63555 4.70643 0.0
H990 H 11.51823 0.68385 4.64729 0.0
H991 H 12.1381 0.72475 4.91467 0.0
C992 C 12.55449 0.62028 5.04571 0.0
C993 C 12.51454 0.58956 5.01924 0.0
C994 C 12.29848 0.57846 4.92872 0.0
C995 C 12.12422 0.59826 4.86499 0.0
C996 C 12.16924 0.6286 4.89326 0.0
C997 C 12.37899 0.63918 4.98162 0.0
C998 C 12.3835 0.67192 4.99502 0.0
C999 C 12.48848 0.65956 5.05271 0.0
C1000 C 12.49859 0.70754 5.03454 0.0
C1001 C 12.14344 0.67839 4.90025 0.0
C1002 C 12.02261 0.65343 4.84243 0.0
C1003 C 11.79755 0.65498 4.75113 0.0
C1004 C 11.69322 0.68257 4.71817 0.0
C1005 C 11.8139 0.70775 4.77653 0.0
C1006 C 12.04179 0.70551 4.86867 0.0
H1007 H 8.41672 0.58634 3.47981 0.0
H1008 H 7.83715 0.60973 3.2197 0.0
H1009 H 8.04661 0.65449 3.28731 0.0
H1010 H 8.61537 0.68413 3.55963 0.0
H1011 H 8.89586 0.67094 3.67146 0.0
H1012 H 8.70284 0.63927 3.60301 0.0
H1013 H 8.814 0.58413 3.62934 0.0
H1014 H 9.00694 0.61567 3.69767 0.0
H1015 H 8.80166 0.59125 3.60362 0.0
H1016 H 8.32264 0.69407 3.38402 0.0
H1017 H 8.63681 0.73238 3.50125 0.0
H1018 H 9.02709 0.68811 3.6962 0.0
C1019 C 8.3349 0.60078 3.43742 0.0
C1020 C 8.11225 0.59449 3.34494 0.0
C1021 C 8.00821 0.61432 3.29084 0.0
C1022 C 8.12577 0.63957 3.32861 0.0
C1023 C 8.34562 0.64515 3.4202 0.0
C1024 C 8.44842 0.62687 3.47375 0.0
C1025 C 8.68301 0.63962 3.56957 0.0
C1026 C 8.72674 0.65969 3.60284 0.0
C1027 C 8.83534 0.60564 3.6285 0.0
C1028 C 8.69661 0.66767 3.56164 0.0
C1029 C 8.50115 0.66996 3.47514 0.0
C1030 C 8.47597 0.69284 3.45185 0.0
C1031 C 8.65503 0.7143 3.51874 0.0
C1032 C 8.85445 0.71325 3.60716 0.0
C1033 C 8.87523 0.68966 3.62876 0.0
H1034 H 5.55172 0.41887 2.27237 0.0
H1035 H 4.98737 0.46972 2.0662 0.0
H1036 H 4.74882 0.42983 1.95341 0.0
H1037 H 5.33488 0.41788 2.14635 0.0
H1038 H 5.45672 0.37313 2.19002 0.0
H1039 H 5.58453 0.40345 2.25591 0.0
H1040 H 5.58004 0.34704 2.27374 0.0
H1041 H 5.45278 0.31651 2.20811 0.0
H1042 H 5.32758 0.32277 2.17641 0.0
H1043 H 4.57237 0.3843 1.86387 0.0
H1044 H 4.46598 0.33909 1.80015 0.0
H1045 H 5.14285 0.32152 2.06188 0.0
C1046 C 5.37789 0.42116 2.20353 0.0
C1047 C 5.28681 0.44698 2.17755 0.0
C1048 C 5.05924 0.45001 2.08697 0.0
C1049 C 4.92281 0.42743 2.02264 0.0
C1050 C 5.01698 0.40249 2.05001 0.0
C1051 C 5.23898 0.39946 2.13801 0.0
C1052 C 5.29729 0.37206 2.14853 0.0
C1053 C 5.42593 0.39289 2.18749 0.0
C1054 C 5.42175 0.33755 2.20504 0.0
C1055 C 5.07337 0.3602 2.05275 0.0
C1056 C 4.91437 0.3777 1.99733 0.0
C1057 C 4.69506 0.37056 1.90636 0.0
C1058 C 4.63633 0.34484 1.87087 0.0
C1059 C 4.79627 0.32718 1.92609 0.0
C1060 C 5.01748 0.33508 2.01813 0.0
H1061 H 1.92694 0.4233 0.62081 0.0
H1062 H 1.25474 0.38715 0.35461 0.0
H1063 H 1.35748 0.34144 0.41662 0.0
H1064 H 2.15137 0.32791 0.71684 0.0
H1065 H 2.3844 0.34597 0.82119 0.0
H1066 H 2.25762 0.37533 0.75557 0.0
H1067 H 2.21051 0.42944 0.75694 0.0
H1068 H 2.33558 0.40018 0.82196 0.0
H1069 H 2.06964 0.41912 0.7181 0.0
H1070 H 1.52857 0.30405 0.50702 0.0
H1071 H 1.76281 0.27146 0.62039 0.0
H1072 H 2.3274 0.32832 0.82792 0.0
C1073 C 1.80172 0.40559 0.57566 0.0
C1074 C 1.58284 0.4088 0.48301 0.0
C1075 C 1.42348 0.38495 0.42585 0.0
C1076 C 1.48011 0.35907 0.4604 0.0
C1077 C 1.69706 0.35699 0.55211 0.0
C1078 C 1.85597 0.37908 0.60901 0.0
C1079 C 2.07758 0.37086 0.70492 0.0
C1080 C 2.22648 0.354 0.75241 0.0
C1081 C 2.1792 0.40705 0.75329 0.0
C1082 C 2.01785 0.3412 0.69303 0.0
C1083 C 1.79726 0.33391 0.60434 0.0
C1084 C 1.70181 0.3091 0.57666 0.0
C1085 C 1.83578 0.29096 0.64142 0.0
C1086 C 2.06267 0.29731 0.73259 0.0
C1087 C 2.15458 0.32266 0.75858 0.0
loop_
_geom_bond_atom_site_label_1
_geom_bond_atom_site_label_2
_geom_bond_distance
_geom_bond_site_symmetry_2
_ccdc_geom_bond_type
C0 O1 1.306 . S
C0 O3 1.160 1_565 S
O1 C0 1.306 . S
O1 Cd2 2.228 . S
Cd2 O1 2.228 . S
Cd2 O6 2.273 1_565 S
Cd2 O10 2.277 1_455 S
O3 C0 1.160 1_545 S
O3 Cd4 2.203 1_455 S
Cd4 O3 2.203 1_655 S
Cd4 O6 2.411 1_655 S
Cd4 O7 2.333 . S
Cd4 O8 2.352 1_655 S
Cd4 O12 2.277 . S
Cd4 O13 2.356 . S
C5 O10 1.209 . S
C5 O12 1.226 1_565 S
O6 Cd2 2.273 1_545 S
O6 Cd4 2.411 1_455 S
O6 C9 1.320 1_455 S
O7 Cd4 2.333 . S
O7 C9 1.214 . S
O8 Cd4 2.352 1_455 S
O8 C11 1.258 . S
C9 O6 1.320 1_655 S
C9 O7 1.214 . S
O10 Cd2 2.277 1_655 S
O10 C5 1.209 . S
C11 O8 1.258 . S
C11 O13 1.282 1_455 S
O12 Cd4 2.277 . S
O12 C5 1.226 1_545 S
O13 Cd4 2.356 . S
O13 C11 1.282 1_655 S
C14 O15 1.306 . S
C14 O17 1.160 . S
O15 C14 1.306 . S
O15 Cd16 2.228 . S
Cd16 O15 2.228 . S
Cd16 O20 2.273 . S
Cd16 O24 2.277 . S
O17 C14 1.160 . S
O17 Cd18 2.203 . S
Cd18 O17 2.203 . S
Cd18 O20 2.411 . S
Cd18 O21 2.333 . S
Cd18 O22 2.352 . S
Cd18 O26 2.277 . S
Cd18 O27 2.356 . S
C19 O24 1.209 . S
C19 O26 1.226 . S
O20 Cd16 2.273 . S
O20 Cd18 2.411 . S
O20 C23 1.320 . S
O21 Cd18 2.333 . S
O21 C23 1.214 . S
O22 Cd18 2.352 . S
O22 C25 1.258 . S
C23 O20 1.320 . S
C23 O21 1.214 . S
O24 Cd16 2.277 . S
O24 C19 1.209 . S
C25 O22 1.258 . S
C25 O27 1.282 . S
O26 Cd18 2.277 . S
O26 C19 1.226 . S
O27 Cd18 2.356 . S
O27 C25 1.282 . S
C28 O29 1.306 . S
C28 O31 1.160 1_545 S
O29 C28 1.306 . S
O29 Cd30 2.228 . S
Cd30 O29 2.228 . S
Cd30 O34 2.273 1_545 S
Cd30 O38 2.277 . S
O31 C28 1.160 1_565 S
O31 Cd32 2.203 . S
Cd32 O31 2.203 . S
Cd32 O34 2.411 . S
Cd32 O35 2.333 . S
Cd32 O36 2.352 . S
Cd32 O40 2.277 . S
Cd32 O41 2.356 . S
C33 O38 1.209 . S
C33 O40 1.226 1_545 S
O34 Cd30 2.273 1_565 S
O34 Cd32 2.411 . S
O34 C37 1.320 . S
O35 Cd32 2.333 . S
O35 C37 1.214 . S
O36 Cd32 2.352 . S
O36 C39 1.258 . S
C37 O34 1.320 . S
C37 O35 1.214 . S
O38 Cd30 2.277 . S
O38 C33 1.209 . S
C39 O36 1.258 . S
C39 O41 1.282 . S
O40 Cd32 2.277 . S
O40 C33 1.226 1_565 S
O41 Cd32 2.356 . S
O41 C39 1.282 . S
C42 O43 1.306 . S
C42 O45 1.160 . S
O43 C42 1.306 . S
O43 Cd44 2.228 . S
Cd44 O43 2.228 . S
Cd44 O48 2.273 . S
Cd44 O52 2.277 . S
O45 C42 1.160 . S
O45 Cd46 2.203 . S
Cd46 O45 2.203 . S
Cd46 O48 2.411 . S
Cd46 O49 2.333 . S
Cd46 O50 2.352 . S
Cd46 O54 2.277 . S
Cd46 O55 2.356 . S
C47 O52 1.209 . S
C47 O54 1.226 . S
O48 Cd44 2.273 . S
O48 Cd46 2.411 . S
O48 C51 1.320 . S
O49 Cd46 2.333 . S
O49 C51 1.214 . S
O50 Cd46 2.352 . S
O50 C53 1.258 . S
C51 O48 1.320 . S
C51 O49 1.214 . S
O52 Cd44 2.277 . S
O52 C47 1.209 . S
C53 O50 1.258 . S
C53 O55 1.282 . S
O54 Cd46 2.277 . S
O54 C47 1.226 . S
O55 Cd46 2.356 . S
O55 C53 1.282 . S
C56 O57 1.306 . S
C56 O59 1.160 1_545 S
O57 C56 1.306 . S
O57 Cd58 2.228 . S
Cd58 O57 2.228 . S
Cd58 O62 2.273 1_545 S
Cd58 O66 2.277 1_455 S
O59 C56 1.160 1_565 S
O59 Cd60 2.203 1_455 S
Cd60 O59 2.203 1_655 S
Cd60 O62 2.411 1_655 S
Cd60 O63 2.333 . S
Cd60 O64 2.352 1_655 S
Cd60 O68 2.277 . S
Cd60 O69 2.356 . S
C61 O66 1.209 . S
C61 O68 1.226 1_545 S
O62 Cd58 2.273 1_565 S
O62 Cd60 2.411 1_455 S
O62 C65 1.320 1_455 S
O63 Cd60 2.333 . S
O63 C65 1.214 . S
O64 Cd60 2.352 1_455 S
O64 C67 1.258 . S
C65 O62 1.320 1_655 S
C65 O63 1.214 . S
O66 Cd58 2.277 1_655 S
O66 C61 1.209 . S
C67 O64 1.258 . S
C67 O69 1.282 1_455 S
O68 Cd60 2.277 . S
O68 C61 1.226 1_565 S
O69 Cd60 2.356 . S
O69 C67 1.282 1_655 S
C70 O71 1.306 . S
C70 O73 1.160 . S
O71 C70 1.306 . S
O71 Cd72 2.228 . S
Cd72 O71 2.228 . S
Cd72 O76 2.273 . S
Cd72 O80 2.277 . S
O73 C70 1.160 . S
O73 Cd74 2.203 . S
Cd74 O73 2.203 . S
Cd74 O76 2.411 . S
Cd74 O77 2.333 . S
Cd74 O78 2.352 . S
Cd74 O82 2.277 . S
Cd74 O83 2.356 . S
C75 O80 1.209 . S
C75 O82 1.226 . S
O76 Cd72 2.273 . S
O76 Cd74 2.411 . S
O76 C79 1.320 . S
O77 Cd74 2.333 . S
O77 C79 1.214 . S
O78 Cd74 2.352 . S
O78 C81 1.258 . S
C79 O76 1.320 . S
C79 O77 1.214 . S
O80 Cd72 2.277 . S
O80 C75 1.209 . S
C81 O78 1.258 . S
C81 O83 1.282 . S
O82 Cd74 2.277 . S
O82 C75 1.226 . S
O83 Cd74 2.356 . S
O83 C81 1.282 . S
C84 O85 1.306 . S
C84 O87 1.160 1_565 S
O85 C84 1.306 . S
O85 Cd86 2.228 . S
Cd86 O85 2.228 . S
Cd86 O90 2.273 1_565 S
Cd86 O94 2.277 . S
O87 C84 1.160 1_545 S
O87 Cd88 2.203 . S
Cd88 O87 2.203 . S
Cd88 O90 2.411 . S
Cd88 O91 2.333 . S
Cd88 O92 2.352 . S
Cd88 O96 2.277 . S
Cd88 O97 2.356 . S
C89 O94 1.209 . S
C89 O96 1.226 1_565 S
O90 Cd86 2.273 1_545 S
O90 Cd88 2.411 . S
O90 C93 1.320 . S
O91 Cd88 2.333 . S
O91 C93 1.214 . S
O92 Cd88 2.352 . S
O92 C95 1.258 . S
C93 O90 1.320 . S
C93 O91 1.214 . S
O94 Cd86 2.277 . S
O94 C89 1.209 . S
C95 O92 1.258 . S
C95 O97 1.282 . S
O96 Cd88 2.277 . S
O96 C89 1.226 1_545 S
O97 Cd88 2.356 . S
O97 C95 1.282 . S
C98 O99 1.306 . S
C98 O101 1.160 . S
O99 C98 1.306 . S
O99 Cd100 2.228 . S
Cd100 O99 2.228 . S
Cd100 O104 2.273 . S
Cd100 O108 2.277 . S
O101 C98 1.160 . S
O101 Cd102 2.203 . S
Cd102 O101 2.203 . S
Cd102 O104 2.411 . S
Cd102 O105 2.333 . S
Cd102 O106 2.352 . S
Cd102 O110 2.277 . S
Cd102 O111 2.356 . S
C103 O108 1.209 . S
C103 O110 1.226 . S
O104 Cd100 2.273 . S
O104 Cd102 2.411 . S
O104 C107 1.320 . S
O105 Cd102 2.333 . S
O105 C107 1.214 . S
O106 Cd102 2.352 . S
O106 C109 1.258 . S
C107 O104 1.320 . S
C107 O105 1.214 . S
O108 Cd100 2.277 . S
O108 C103 1.209 . S
C109 O106 1.258 . S
C109 O111 1.282 . S
O110 Cd102 2.277 . S
O110 C103 1.226 . S
O111 Cd102 2.356 . S
O111 C109 1.282 . S
C112 O113 1.306 . S
C112 O115 1.160 . S
O113 C112 1.306 . S
O113 Cd114 2.228 . S
Cd114 O113 2.228 . S
Cd114 O118 2.273 . S
Cd114 O122 2.277 . S
O115 C112 1.160 . S
O115 Cd116 2.203 . S
Cd116 O115 2.203 . S
Cd116 O118 2.411 . S
Cd116 O119 2.333 . S
Cd116 O120 2.352 . S
Cd116 O124 2.277 . S
Cd116 O125 2.356 . S
C117 O122 1.209 . S
C117 O124 1.226 . S
O118 Cd114 2.273 . S
O118 Cd116 2.411 . S
O118 C121 1.320 . S
O119 Cd116 2.333 . S
O119 C121 1.214 . S
O120 Cd116 2.352 . S
O120 C123 1.258 . S
C121 O118 1.320 . S
C121 O119 1.214 . S
O122 Cd114 2.277 . S
O122 C117 1.209 . S
C123 O120 1.258 . S
C123 O125 1.282 . S
O124 Cd116 2.277 . S
O124 C117 1.226 . S
O125 Cd116 2.356 . S
O125 C123 1.282 . S
C126 O127 1.306 . S
C126 O129 1.160 . S
O127 C126 1.306 . S
O127 Cd128 2.228 . S
Cd128 O127 2.228 . S
Cd128 O132 2.273 . S
Cd128 O136 2.277 . S
O129 C126 1.160 . S
O129 Cd130 2.203 . S
Cd130 O129 2.203 . S
Cd130 O132 2.411 . S
Cd130 O133 2.333 . S
Cd130 O134 2.352 . S
Cd130 O138 2.277 . S
Cd130 O139 2.356 . S
C131 O136 1.209 . S
C131 O138 1.226 . S
O132 Cd128 2.273 . S
O132 Cd130 2.411 . S
O132 C135 1.320 . S
O133 Cd130 2.333 . S
O133 C135 1.214 . S
O134 Cd130 2.352 . S
O134 C137 1.258 . S
C135 O132 1.320 . S
C135 O133 1.214 . S
O136 Cd128 2.277 . S
O136 C131 1.209 . S
C137 O134 1.258 . S
C137 O139 1.282 . S
O138 Cd130 2.277 . S
O138 C131 1.226 . S
O139 Cd130 2.356 . S
O139 C137 1.282 . S
C140 O141 1.306 . S
C140 O143 1.160 . S
O141 C140 1.306 . S
O141 Cd142 2.228 . S
Cd142 O141 2.228 . S
Cd142 O146 2.273 . S
Cd142 O150 2.277 . S
O143 C140 1.160 . S
O143 Cd144 2.203 . S
Cd144 O143 2.203 . S
Cd144 O146 2.411 . S
Cd144 O147 2.333 . S
Cd144 O148 2.352 . S
Cd144 O152 2.277 . S
Cd144 O153 2.356 . S
C145 O150 1.209 . S
C145 O152 1.226 . S
O146 Cd142 2.273 . S
O146 Cd144 2.411 . S
O146 C149 1.320 . S
O147 Cd144 2.333 . S
O147 C149 1.214 . S
O148 Cd144 2.352 . S
O148 C151 1.258 . S
C149 O146 1.320 . S
C149 O147 1.214 . S
O150 Cd142 2.277 . S
O150 C145 1.209 . S
C151 O148 1.258 . S
C151 O153 1.282 . S
O152 Cd144 2.277 . S
O152 C145 1.226 . S
O153 Cd144 2.356 . S
O153 C151 1.282 . S
C154 O155 1.306 . S
C154 O157 1.160 . S
O155 C154 1.306 . S
O155 Cd156 2.228 . S
Cd156 O155 2.228 . S
Cd156 O160 2.273 . S
Cd156 O164 2.277 . S
O157 C154 1.160 . S
O157 Cd158 2.203 . S
Cd158 O157 2.203 . S
Cd158 O160 2.411 . S
Cd158 O161 2.333 . S
Cd158 O162 2.352 . S
Cd158 O166 2.277 . S
Cd158 O167 2.356 . S
C159 O164 1.209 . S
C159 O166 1.226 . S
O160 Cd156 2.273 . S
O160 Cd158 2.411 . S
O160 C163 1.320 . S
O161 Cd158 2.333 . S
O161 C163 1.214 . S
O162 Cd158 2.352 . S
O162 C165 1.258 . S
C163 O160 1.320 . S
C163 O161 1.214 . S
O164 Cd156 2.277 . S
O164 C159 1.209 . S
C165 O162 1.258 . S
C165 O167 1.282 . S
O166 Cd158 2.277 . S
O166 C159 1.226 . S
O167 Cd158 2.356 . S
O167 C165 1.282 . S
C168 O169 1.306 . S
C168 O171 1.160 . S
O169 C168 1.306 . S
O169 Cd170 2.228 . S
Cd170 O169 2.228 . S
Cd170 O174 2.273 . S
Cd170 O178 2.277 . S
O171 C168 1.160 . S
O171 Cd172 2.203 . S
Cd172 O171 2.203 . S
Cd172 O174 2.411 . S
Cd172 O175 2.333 . S
Cd172 O176 2.352 . S
Cd172 O180 2.277 . S
Cd172 O181 2.356 . S
C173 O178 1.209 . S
C173 O180 1.226 . S
O174 Cd170 2.273 . S
O174 Cd172 2.411 . S
O174 C177 1.320 . S
O175 Cd172 2.333 . S
O175 C177 1.214 . S
O176 Cd172 2.352 . S
O176 C179 1.258 . S
C177 O174 1.320 . S
C177 O175 1.214 . S
O178 Cd170 2.277 . S
O178 C173 1.209 . S
C179 O176 1.258 . S
C179 O181 1.282 . S
O180 Cd172 2.277 . S
O180 C173 1.226 . S
O181 Cd172 2.356 . S
O181 C179 1.282 . S
C182 O183 1.306 . S
C182 O185 1.160 . S
O183 C182 1.306 . S
O183 Cd184 2.228 . S
Cd184 O183 2.228 . S
Cd184 O188 2.273 . S
Cd184 O192 2.277 1_655 S
O185 C182 1.160 . S
O185 Cd186 2.203 1_655 S
Cd186 O185 2.203 1_455 S
Cd186 O188 2.411 1_455 S
Cd186 O189 2.333 . S
Cd186 O190 2.352 1_455 S
Cd186 O194 2.277 . S
Cd186 O195 2.356 . S
C187 O192 1.209 . S
C187 O194 1.226 . S
O188 Cd184 2.273 . S
O188 Cd186 2.411 1_655 S
O188 C191 1.320 1_655 S
O189 Cd186 2.333 . S
O189 C191 1.214 . S
O190 Cd186 2.352 1_655 S
O190 C193 1.258 . S
C191 O188 1.320 1_455 S
C191 O189 1.214 . S
O192 Cd184 2.277 1_455 S
O192 C187 1.209 . S
C193 O190 1.258 . S
C193 O195 1.282 1_655 S
O194 Cd186 2.277 . S
O194 C187 1.226 . S
O195 Cd186 2.356 . S
O195 C193 1.282 1_455 S
C196 O197 1.306 . S
C196 O199 1.160 . S
O197 C196 1.306 . S
O197 Cd198 2.228 . S
Cd198 O197 2.228 . S
Cd198 O202 2.273 . S
Cd198 O206 2.277 . S
O199 C196 1.160 . S
O199 Cd200 2.203 . S
Cd200 O199 2.203 . S
Cd200 O202 2.411 . S
Cd200 O203 2.333 . S
Cd200 O204 2.352 . S
Cd200 O208 2.277 . S
Cd200 O209 2.356 . S
C201 O206 1.209 . S
C201 O208 1.226 . S
O202 Cd198 2.273 . S
O202 Cd200 2.411 . S
O202 C205 1.320 . S
O203 Cd200 2.333 . S
O203 C205 1.214 . S
O204 Cd200 2.352 . S
O204 C207 1.258 . S
C205 O202 1.320 . S
C205 O203 1.214 . S
O206 Cd198 2.277 . S
O206 C201 1.209 . S
C207 O204 1.258 . S
C207 O209 1.282 . S
O208 Cd200 2.277 . S
O208 C201 1.226 . S
O209 Cd200 2.356 . S
O209 C207 1.282 . S
C210 O211 1.306 . S
C210 O213 1.160 . S
O211 C210 1.306 . S
O211 Cd212 2.228 . S
Cd212 O211 2.228 . S
Cd212 O216 2.273 . S
Cd212 O220 2.277 1_655 S
O213 C210 1.160 . S
O213 Cd214 2.203 1_655 S
Cd214 O213 2.203 1_455 S
Cd214 O216 2.411 1_455 S
Cd214 O217 2.333 . S
Cd214 O218 2.352 1_455 S
Cd214 O222 2.277 . S
Cd214 O223 2.356 . S
C215 O220 1.209 . S
C215 O222 1.226 . S
O216 Cd212 2.273 . S
O216 Cd214 2.411 1_655 S
O216 C219 1.320 1_655 S
O217 Cd214 2.333 . S
O217 C219 1.214 . S
O218 Cd214 2.352 1_655 S
O218 C221 1.258 . S
C219 O216 1.320 1_455 S
C219 O217 1.214 . S
O220 Cd212 2.277 1_455 S
O220 C215 1.209 . S
C221 O218 1.258 . S
C221 O223 1.282 1_655 S
O222 Cd214 2.277 . S
O222 C215 1.226 . S
O223 Cd214 2.356 . S
O223 C221 1.282 1_455 S
H224 C236 0.930 . S
H225 C238 0.930 . S
H226 C239 0.930 . S
H227 C243 0.959 . S
H228 C243 0.959 . S
H229 C243 0.961 . S
H230 C244 0.960 . S
H231 C244 0.961 . S
H232 C244 0.959 . S
H233 C247 0.929 . S
H234 C248 0.931 . S
H235 C250 0.930 . S
C236 H224 0.930 . S
C236 C237 1.399 . S
C236 C241 1.399 . S
C237 C236 1.399 . S
C237 C238 1.376 . S
C238 H225 0.930 . S
C238 C237 1.376 . S
C238 C239 1.388 . S
C239 H226 0.930 . S
C239 C238 1.388 . S
C239 C240 1.390 . S
C240 C239 1.390 . S
C240 C241 1.394 . S
C240 C246 1.465 . S
C241 C236 1.399 . S
C241 C240 1.394 . S
C241 C242 1.516 . S
C242 C241 1.516 . S
C242 C243 1.502 1_455 S
C242 C244 1.561 . S
C242 C245 1.526 . S
C243 H227 0.959 . S
C243 H228 0.959 . S
C243 H229 0.961 . S
C243 C242 1.502 1_655 S
C244 H230 0.960 . S
C244 H231 0.961 . S
C244 H232 0.959 . S
C244 C242 1.561 . S
C245 C242 1.526 . S
C245 C246 1.396 . S
C245 C250 1.390 1_455 S
C246 C240 1.465 . S
C246 C245 1.396 . S
C246 C247 1.399 . S
C247 H233 0.929 . S
C247 C246 1.399 . S
C247 C248 1.385 1_455 S
C248 H234 0.931 . S
C248 C247 1.385 1_655 S
C248 C249 1.389 . S
C249 C248 1.389 . S
C249 C250 1.387 . S
C250 H235 0.930 . S
C250 C245 1.390 1_655 S
C250 C249 1.387 . S
H251 C263 0.930 . S
H252 C265 0.930 . S
H253 C266 0.930 . S
H254 C270 0.959 . S
H255 C270 0.959 . S
H256 C270 0.961 1_655 S
H257 C271 0.965 . S
H258 C271 0.956 1_455 S
H259 C271 0.959 . S
H260 C274 0.929 . S
H261 C275 0.931 . S
H262 C277 0.930 . S
C263 H251 0.930 . S
C263 C264 1.399 . S
C263 C268 1.399 . S
C264 C263 1.399 . S
C264 C265 1.376 . S
C265 H252 0.930 . S
C265 C264 1.376 . S
C265 C266 1.388 . S
C266 H253 0.930 . S
C266 C265 1.388 . S
C266 C267 1.390 . S
C267 C266 1.390 . S
C267 C268 1.394 . S
C267 C273 1.465 1_655 S
C268 C263 1.399 . S
C268 C267 1.394 . S
C268 C269 1.516 1_655 S
C269 C268 1.516 1_455 S
C269 C270 1.502 . S
C269 C271 1.561 1_455 S
C269 C272 1.526 . S
C270 H254 0.959 . S
C270 H255 0.959 . S
C270 H256 0.961 1_455 S
C270 C269 1.502 . S
C271 H257 0.965 . S
C271 H258 0.956 1_655 S
C271 H259 0.959 . S
C271 C269 1.561 1_655 S
C272 C269 1.526 . S
C272 C273 1.396 . S
C272 C277 1.390 . S
C273 C267 1.465 1_455 S
C273 C272 1.396 . S
C273 C274 1.399 . S
C274 H260 0.929 . S
C274 C273 1.399 . S
C274 C275 1.385 . S
C275 H261 0.931 . S
C275 C274 1.385 . S
C275 C276 1.389 . S
C276 C275 1.389 . S
C276 C277 1.387 . S
C277 H262 0.930 . S
C277 C272 1.390 . S
C277 C276 1.387 . S
H278 C290 0.930 . S
H279 C292 0.930 . S
H280 C293 0.930 . S
H281 C297 0.959 . S
H282 C297 0.959 . S
H283 C297 0.961 . S
H284 C298 0.960 . S
H285 C298 0.961 . S
H286 C298 0.959 . S
H287 C301 0.929 . S
H288 C302 0.931 . S
H289 C304 0.930 . S
C290 H278 0.930 . S
C290 C291 1.399 . S
C290 C295 1.399 . S
C291 C290 1.399 . S
C291 C292 1.376 . S
C292 H279 0.930 . S
C292 C291 1.376 . S
C292 C293 1.388 . S
C293 H280 0.930 . S
C293 C292 1.388 . S
C293 C294 1.390 . S
C294 C293 1.390 . S
C294 C295 1.394 . S
C294 C300 1.465 . S
C295 C290 1.399 . S
C295 C294 1.394 . S
C295 C296 1.516 . S
C296 C295 1.516 . S
C296 C297 1.502 . S
C296 C298 1.561 . S
C296 C299 1.526 . S
C297 H281 0.959 . S
C297 H282 0.959 . S
C297 H283 0.961 . S
C297 C296 1.502 . S
C298 H284 0.960 . S
C298 H285 0.961 . S
C298 H286 0.959 . S
C298 C296 1.561 . S
C299 C296 1.526 . S
C299 C300 1.396 . S
C299 C304 1.390 . S
C300 C294 1.465 . S
C300 C299 1.396 . S
C300 C301 1.399 . S
C301 H287 0.929 . S
C301 C300 1.399 . S
C301 C302 1.385 . S
C302 H288 0.931 . S
C302 C301 1.385 . S
C302 C303 1.389 . S
C303 C302 1.389 . S
C303 C304 1.387 . S
C304 H289 0.930 . S
C304 C299 1.390 . S
C304 C303 1.387 . S
H305 C317 0.930 . S
H306 C319 0.930 . S
H307 C320 0.930 . S
H308 C324 0.959 . S
H309 C324 0.959 . S
H310 C324 0.961 . S
H311 C325 0.960 . S
H312 C325 0.961 . S
H313 C325 0.959 . S
H314 C328 0.929 . S
H315 C329 0.931 . S
H316 C331 0.930 . S
C317 H305 0.930 . S
C317 C318 1.399 . S
C317 C322 1.399 . S
C318 C317 1.399 . S
C318 C319 1.376 . S
C319 H306 0.930 . S
C319 C318 1.376 . S
C319 C320 1.388 . S
C320 H307 0.930 . S
C320 C319 1.388 . S
C320 C321 1.390 . S
C321 C320 1.390 . S
C321 C322 1.394 . S
C321 C327 1.465 . S
C322 C317 1.399 . S
C322 C321 1.394 . S
C322 C323 1.516 . S
C323 C322 1.516 . S
C323 C324 1.502 . S
C323 C325 1.561 . S
C323 C326 1.526 . S
C324 H308 0.959 . S
C324 H309 0.959 . S
C324 H310 0.961 . S
C324 C323 1.502 . S
C325 H311 0.960 . S
C325 H312 0.961 . S
C325 H313 0.959 . S
C325 C323 1.561 . S
C326 C323 1.526 . S
C326 C327 1.396 . S
C326 C331 1.390 . S
C327 C321 1.465 . S
C327 C326 1.396 . S
C327 C328 1.399 . S
C328 H314 0.929 . S
C328 C327 1.399 . S
C328 C329 1.385 . S
C329 H315 0.931 . S
C329 C328 1.385 . S
C329 C330 1.389 . S
C330 C329 1.389 . S
C330 C331 1.387 . S
C331 H316 0.930 . S
C331 C326 1.390 . S
C331 C330 1.387 . S
H332 C344 0.930 1_655 S
H333 C346 0.930 . S
H334 C347 0.930 . S
H335 C351 0.959 . S
H336 C351 0.959 . S
H337 C351 0.961 . S
H338 C352 0.960 . S
H339 C352 0.961 . S
H340 C352 0.959 . S
H341 C355 0.929 . S
H342 C356 0.931 . S
H343 C358 0.930 . S
C344 H332 0.930 1_455 S
C344 C345 1.399 . S
C344 C349 1.399 . S
C345 C344 1.399 . S
C345 C346 1.376 . S
C346 H333 0.930 . S
C346 C345 1.376 . S
C346 C347 1.388 . S
C347 H334 0.930 . S
C347 C346 1.388 . S
C347 C348 1.390 . S
C348 C347 1.390 . S
C348 C349 1.394 . S
C348 C354 1.465 . S
C349 C344 1.399 . S
C349 C348 1.394 . S
C349 C350 1.516 1_455 S
C350 C349 1.516 1_655 S
C350 C351 1.502 . S
C350 C352 1.561 1_655 S
C350 C353 1.526 . S
C351 H335 0.959 . S
C351 H336 0.959 . S
C351 H337 0.961 . S
C351 C350 1.502 . S
C352 H338 0.960 . S
C352 H339 0.961 . S
C352 H340 0.959 . S
C352 C350 1.561 1_455 S
C353 C350 1.526 . S
C353 C354 1.396 1_655 S
C353 C358 1.390 . S
C354 C348 1.465 . S
C354 C353 1.396 1_455 S
C354 C355 1.399 . S
C355 H341 0.929 . S
C355 C354 1.399 . S
C355 C356 1.385 . S
C356 H342 0.931 . S
C356 C355 1.385 . S
C356 C357 1.389 1_455 S
C357 C356 1.389 1_655 S
C357 C358 1.387 . S
C358 H343 0.930 . S
C358 C353 1.390 . S
C358 C357 1.387 . S
H359 C371 0.930 . S
H360 C373 0.930 . S
H361 C374 0.930 . S
H362 C378 0.959 . S
H363 C378 0.959 . S
H364 C378 0.961 . S
H365 C379 0.960 . S
H366 C379 0.961 . S
H367 C379 0.959 . S
H368 C382 0.929 . S
H369 C383 0.931 . S
H370 C385 0.930 . S
C371 H359 0.930 . S
C371 C372 1.399 . S
C371 C376 1.399 . S
C372 C371 1.399 . S
C372 C373 1.376 . S
C373 H360 0.930 . S
C373 C372 1.376 . S
C373 C374 1.388 . S
C374 H361 0.930 . S
C374 C373 1.388 . S
C374 C375 1.390 . S
C375 C374 1.390 . S
C375 C376 1.394 . S
C375 C381 1.465 . S
C376 C371 1.399 . S
C376 C375 1.394 . S
C376 C377 1.516 . S
C377 C376 1.516 . S
C377 C378 1.502 . S
C377 C379 1.561 . S
C377 C380 1.526 . S
C378 H362 0.959 . S
C378 H363 0.959 . S
C378 H364 0.961 . S
C378 C377 1.502 . S
C379 H365 0.960 . S
C379 H366 0.961 . S
C379 H367 0.959 . S
C379 C377 1.561 . S
C380 C377 1.526 . S
C380 C381 1.396 . S
C380 C385 1.390 . S
C381 C375 1.465 . S
C381 C380 1.396 . S
C381 C382 1.399 . S
C382 H368 0.929 . S
C382 C381 1.399 . S
C382 C383 1.385 . S
C383 H369 0.931 . S
C383 C382 1.385 . S
C383 C384 1.389 . S
C384 C383 1.389 . S
C384 C385 1.387 . S
C385 H370 0.930 . S
C385 C380 1.390 . S
C385 C384 1.387 . S
H386 C398 0.930 . S
H387 C400 0.930 . S
H388 C401 0.930 . S
H389 C405 0.959 . S
H390 C405 0.959 . S
H391 C405 0.961 . S
H392 C406 0.960 . S
H393 C406 0.961 . S
H394 C406 0.959 . S
H395 C409 0.929 . S
H396 C410 0.931 . S
H397 C412 0.930 . S
C398 H386 0.930 . S
C398 C399 1.399 . S
C398 C403 1.399 . S
C399 C398 1.399 . S
C399 C400 1.376 . S
C400 H387 0.930 . S
C400 C399 1.376 . S
C400 C401 1.388 . S
C401 H388 0.930 . S
C401 C400 1.388 . S
C401 C402 1.390 . S
C402 C401 1.390 . S
C402 C403 1.394 . S
C402 C408 1.465 . S
C403 C398 1.399 . S
C403 C402 1.394 . S
C403 C404 1.516 . S
C404 C403 1.516 . S
C404 C405 1.502 . S
C404 C406 1.561 . S
C404 C407 1.526 . S
C405 H389 0.959 . S
C405 H390 0.959 . S
C405 H391 0.961 . S
C405 C404 1.502 . S
C406 H392 0.960 . S
C406 H393 0.961 . S
C406 H394 0.959 . S
C406 C404 1.561 . S
C407 C404 1.526 . S
C407 C408 1.396 . S
C407 C412 1.390 . S
C408 C402 1.465 . S
C408 C407 1.396 . S
C408 C409 1.399 . S
C409 H395 0.929 . S
C409 C408 1.399 . S
C409 C410 1.385 . S
C410 H396 0.931 . S
C410 C409 1.385 . S
C410 C411 1.389 . S
C411 C410 1.389 . S
C411 C412 1.387 . S
C412 H397 0.930 . S
C412 C407 1.390 . S
C412 C411 1.387 . S
H413 C425 0.930 . S
H414 C427 0.930 . S
H415 C428 0.930 . S
H416 C432 0.959 1_655 S
H417 C432 0.959 1_655 S
H418 C432 0.961 . S
H419 C433 0.960 . S
H420 C433 0.961 1_655 S
H421 C433 0.959 . S
H422 C436 0.929 . S
H423 C437 0.931 . S
H424 C439 0.930 . S
C425 H413 0.930 . S
C425 C426 1.399 . S
C425 C430 1.399 . S
C426 C425 1.399 . S
C426 C427 1.376 . S
C427 H414 0.930 . S
C427 C426 1.376 . S
C427 C428 1.388 . S
C428 H415 0.930 . S
C428 C427 1.388 . S
C428 C429 1.390 . S
C429 C428 1.390 . S
C429 C430 1.394 . S
C429 C435 1.465 1_455 S
C430 C425 1.399 . S
C430 C429 1.394 . S
C430 C431 1.516 . S
C431 C430 1.516 . S
C431 C432 1.502 . S
C431 C433 1.561 . S
C431 C434 1.526 1_455 S
C432 H416 0.959 1_455 S
C432 H417 0.959 1_455 S
C432 H418 0.961 . S
C432 C431 1.502 . S
C433 H419 0.960 . S
C433 H420 0.961 1_455 S
C433 H421 0.959 . S
C433 C431 1.561 . S
C434 C431 1.526 1_655 S
C434 C435 1.396 . S
C434 C439 1.390 . S
C435 C429 1.465 1_655 S
C435 C434 1.396 . S
C435 C436 1.399 . S
C436 H422 0.929 . S
C436 C435 1.399 . S
C436 C437 1.385 . S
C437 H423 0.931 . S
C437 C436 1.385 . S
C437 C438 1.389 . S
C438 C437 1.389 . S
C438 C439 1.387 . S
C439 H424 0.930 . S
C439 C434 1.390 . S
C439 C438 1.387 . S
H440 C452 0.930 . S
H441 C454 0.930 . S
H442 C455 0.930 . S
H443 C459 0.959 . S
H444 C459 0.959 . S
H445 C459 0.961 . S
H446 C460 0.960 . S
H447 C460 0.961 . S
H448 C460 0.959 . S
H449 C463 0.929 . S
H450 C464 0.931 . S
H451 C466 0.930 . S
C452 H440 0.930 . S
C452 C453 1.399 1_445 S
C452 C457 1.399 1_455 S
C453 C452 1.399 1_665 S
C453 C454 1.376 . S
C454 H441 0.930 . S
C454 C453 1.376 . S
C454 C455 1.388 . S
C455 H442 0.930 . S
C455 C454 1.388 . S
C455 C456 1.390 . S
C456 C455 1.390 . S
C456 C457 1.394 1_565 S
C456 C462 1.465 . S
C457 C452 1.399 1_655 S
C457 C456 1.394 1_545 S
C457 C458 1.516 1_655 S
C458 C457 1.516 1_455 S
C458 C459 1.502 . S
C458 C460 1.561 1_455 S
C458 C461 1.526 1_455 S
C459 H443 0.959 . S
C459 H444 0.959 . S
C459 H445 0.961 . S
C459 C458 1.502 . S
C460 H446 0.960 . S
C460 H447 0.961 . S
C460 H448 0.959 . S
C460 C458 1.561 1_655 S
C461 C458 1.526 1_655 S
C461 C462 1.396 1_545 S
C461 C466 1.390 1_655 S
C462 C456 1.465 . S
C462 C461 1.396 1_565 S
C462 C463 1.399 . S
C463 H449 0.929 . S
C463 C462 1.399 . S
C463 C464 1.385 . S
C464 H450 0.931 . S
C464 C463 1.385 . S
C464 C465 1.389 1_565 S
C465 C464 1.389 1_545 S
C465 C466 1.387 1_655 S
C466 H451 0.930 . S
C466 C461 1.390 1_455 S
C466 C465 1.387 1_455 S
H467 C479 0.930 . S
H468 C481 0.930 . S
H469 C482 0.930 . S
H470 C486 0.959 . S
H471 C486 0.959 . S
H472 C486 0.961 . S
H473 C487 0.960 . S
H474 C487 0.961 . S
H475 C487 0.959 . S
H476 C490 0.929 . S
H477 C491 0.931 . S
H478 C493 0.930 . S
C479 H467 0.930 . S
C479 C480 1.399 . S
C479 C484 1.399 . S
C480 C479 1.399 . S
C480 C481 1.376 . S
C481 H468 0.930 . S
C481 C480 1.376 . S
C481 C482 1.388 . S
C482 H469 0.930 . S
C482 C481 1.388 . S
C482 C483 1.390 . S
C483 C482 1.390 . S
C483 C484 1.394 . S
C483 C489 1.465 . S
C484 C479 1.399 . S
C484 C483 1.394 . S
C484 C485 1.516 . S
C485 C484 1.516 . S
C485 C486 1.502 . S
C485 C487 1.561 . S
C485 C488 1.526 . S
C486 H470 0.959 . S
C486 H471 0.959 . S
C486 H472 0.961 . S
C486 C485 1.502 . S
C487 H473 0.960 . S
C487 H474 0.961 . S
C487 H475 0.959 . S
C487 C485 1.561 . S
C488 C485 1.526 . S
C488 C489 1.396 . S
C488 C493 1.390 . S
C489 C483 1.465 . S
C489 C488 1.396 . S
C489 C490 1.399 . S
C490 H476 0.929 . S
C490 C489 1.399 . S
C490 C491 1.385 . S
C491 H477 0.931 . S
C491 C490 1.385 . S
C491 C492 1.389 . S
C492 C491 1.389 . S
C492 C493 1.387 . S
C493 H478 0.930 . S
C493 C488 1.390 . S
C493 C492 1.387 . S
H494 C506 0.930 . S
H495 C508 0.930 . S
H496 C509 0.930 . S
H497 C513 0.959 . S
H498 C513 0.959 1_556 S
H499 C513 0.961 . S
H500 C514 0.960 . S
H501 C514 0.961 1_556 S
H502 C514 0.959 . S
H503 C517 0.929 . S
H504 C518 0.931 . S
H505 C520 0.930 . S
C506 H494 0.930 . S
C506 C507 1.399 1_545 S
C506 C511 1.399 . S
C507 C506 1.399 1_565 S
C507 C508 1.376 . S
C508 H495 0.930 . S
C508 C507 1.376 . S
C508 C509 1.388 . S
C509 H496 0.930 . S
C509 C508 1.388 . S
C509 C510 1.390 . S
C510 C509 1.390 . S
C510 C511 1.394 1_565 S
C510 C516 1.465 1_554 S
C511 C506 1.399 . S
C511 C510 1.394 1_545 S
C511 C512 1.516 . S
C512 C511 1.516 . S
C512 C513 1.502 . S
C512 C514 1.561 . S
C512 C515 1.526 1_554 S
C513 H497 0.959 . S
C513 H498 0.959 1_554 S
C513 H499 0.961 . S
C513 C512 1.502 . S
C514 H500 0.960 . S
C514 H501 0.961 1_554 S
C514 H502 0.959 . S
C514 C512 1.561 . S
C515 C512 1.526 1_556 S
C515 C516 1.396 1_545 S
C515 C520 1.390 . S
C516 C510 1.465 1_556 S
C516 C515 1.396 1_565 S
C516 C517 1.399 . S
C517 H503 0.929 . S
C517 C516 1.399 . S
C517 C518 1.385 . S
C518 H504 0.931 . S
C518 C517 1.385 . S
C518 C519 1.389 1_565 S
C519 C518 1.389 1_545 S
C519 C520 1.387 . S
C520 H505 0.930 . S
C520 C515 1.390 . S
C520 C519 1.387 . S
H521 C533 0.930 . S
H522 C535 0.930 . S
H523 C536 0.930 . S
H524 C540 0.959 . S
H525 C540 0.959 . S
H526 C540 0.961 . S
H527 C541 0.960 . S
H528 C541 0.961 . S
H529 C541 0.959 . S
H530 C544 0.929 . S
H531 C545 0.931 . S
H532 C547 0.930 . S
C533 H521 0.930 . S
C533 C534 1.399 . S
C533 C538 1.399 . S
C534 C533 1.399 . S
C534 C535 1.376 . S
C535 H522 0.930 . S
C535 C534 1.376 . S
C535 C536 1.388 . S
C536 H523 0.930 . S
C536 C535 1.388 . S
C536 C537 1.390 . S
C537 C536 1.390 . S
C537 C538 1.394 . S
C537 C543 1.465 . S
C538 C533 1.399 . S
C538 C537 1.394 . S
C538 C539 1.516 . S
C539 C538 1.516 . S
C539 C540 1.502 . S
C539 C541 1.561 . S
C539 C542 1.526 . S
C540 H524 0.959 . S
C540 H525 0.959 . S
C540 H526 0.961 . S
C540 C539 1.502 . S
C541 H527 0.960 . S
C541 H528 0.961 . S
C541 H529 0.959 . S
C541 C539 1.561 . S
C542 C539 1.526 . S
C542 C543 1.396 . S
C542 C547 1.390 . S
C543 C537 1.465 . S
C543 C542 1.396 . S
C543 C544 1.399 . S
C544 H530 0.929 . S
C544 C543 1.399 . S
C544 C545 1.385 . S
C545 H531 0.931 . S
C545 C544 1.385 . S
C545 C546 1.389 . S
C546 C545 1.389 . S
C546 C547 1.387 . S
C547 H532 0.930 . S
C547 C542 1.390 . S
C547 C546 1.387 . S
H548 C560 0.930 . S
H549 C562 0.930 . S
H550 C563 0.930 . S
H551 C567 0.959 . S
H552 C567 0.959 . S
H553 C567 0.961 . S
H554 C568 0.960 . S
H555 C568 0.961 . S
H556 C568 0.959 . S
H557 C571 0.929 . S
H558 C572 0.931 . S
H559 C574 0.930 . S
C560 H548 0.930 . S
C560 C561 1.399 . S
C560 C565 1.399 . S
C561 C560 1.399 . S
C561 C562 1.376 . S
C562 H549 0.930 . S
C562 C561 1.376 . S
C562 C563 1.388 . S
C563 H550 0.930 . S
C563 C562 1.388 . S
C563 C564 1.390 . S
C564 C563 1.390 . S
C564 C565 1.394 . S
C564 C570 1.465 . S
C565 C560 1.399 . S
C565 C564 1.394 . S
C565 C566 1.516 . S
C566 C565 1.516 . S
C566 C567 1.502 . S
C566 C568 1.561 . S
C566 C569 1.526 . S
C567 H551 0.959 . S
C567 H552 0.959 . S
C567 H553 0.961 . S
C567 C566 1.502 . S
C568 H554 0.960 . S
C568 H555 0.961 . S
C568 H556 0.959 . S
C568 C566 1.561 . S
C569 C566 1.526 . S
C569 C570 1.396 . S
C569 C574 1.390 . S
C570 C564 1.465 . S
C570 C569 1.396 . S
C570 C571 1.399 . S
C571 H557 0.929 . S
C571 C570 1.399 . S
C571 C572 1.385 . S
C572 H558 0.931 . S
C572 C571 1.385 . S
C572 C573 1.389 . S
C573 C572 1.389 . S
C573 C574 1.387 . S
C574 H559 0.930 . S
C574 C569 1.390 . S
C574 C573 1.387 . S
H575 C587 0.930 . S
H576 C589 0.930 . S
H577 C590 0.930 . S
H578 C594 0.959 . S
H579 C594 0.959 . S
H580 C594 0.961 . S
H581 C595 0.960 . S
H582 C595 0.961 . S
H583 C595 0.959 . S
H584 C598 0.929 . S
H585 C599 0.931 . S
H586 C601 0.930 . S
C587 H575 0.930 . S
C587 C588 1.399 . S
C587 C592 1.399 . S
C588 C587 1.399 . S
C588 C589 1.376 . S
C589 H576 0.930 . S
C589 C588 1.376 . S
C589 C590 1.388 . S
C590 H577 0.930 . S
C590 C589 1.388 . S
C590 C591 1.390 . S
C591 C590 1.390 . S
C591 C592 1.394 . S
C591 C597 1.465 . S
C592 C587 1.399 . S
C592 C591 1.394 . S
C592 C593 1.516 . S
C593 C592 1.516 . S
C593 C594 1.502 . S
C593 C595 1.561 . S
C593 C596 1.526 . S
C594 H578 0.959 . S
C594 H579 0.959 . S
C594 H580 0.961 . S
C594 C593 1.502 . S
C595 H581 0.960 . S
C595 H582 0.961 . S
C595 H583 0.959 . S
C595 C593 1.561 . S
C596 C593 1.526 . S
C596 C597 1.396 . S
C596 C601 1.390 . S
C597 C591 1.465 . S
C597 C596 1.396 . S
C597 C598 1.399 . S
C598 H584 0.929 . S
C598 C597 1.399 . S
C598 C599 1.385 . S
C599 H585 0.931 . S
C599 C598 1.385 . S
C599 C600 1.389 . S
C600 C599 1.389 . S
C600 C601 1.387 . S
C601 H586 0.930 . S
C601 C596 1.390 . S
C601 C600 1.387 . S
H602 C614 0.930 . S
H603 C616 0.930 . S
H604 C617 0.930 . S
H605 C621 0.959 . S
H606 C621 0.959 1_554 S
H607 C621 0.961 . S
H608 C622 0.960 . S
H609 C622 0.961 1_554 S
H610 C622 0.959 . S
H611 C625 0.929 . S
H612 C626 0.931 . S
H613 C628 0.930 . S
C614 H602 0.930 . S
C614 C615 1.399 . S
C614 C619 1.399 . S
C615 C614 1.399 . S
C615 C616 1.376 . S
C616 H603 0.930 . S
C616 C615 1.376 . S
C616 C617 1.388 . S
C617 H604 0.930 . S
C617 C616 1.388 . S
C617 C618 1.390 . S
C618 C617 1.390 . S
C618 C619 1.394 . S
C618 C624 1.465 1_556 S
C619 C614 1.399 . S
C619 C618 1.394 . S
C619 C620 1.516 . S
C620 C619 1.516 . S
C620 C621 1.502 . S
C620 C622 1.561 . S
C620 C623 1.526 1_556 S
C621 H605 0.959 . S
C621 H606 0.959 1_556 S
C621 H607 0.961 . S
C621 C620 1.502 . S
C622 H608 0.960 . S
C622 H609 0.961 1_556 S
C622 H610 0.959 . S
C622 C620 1.561 . S
C623 C620 1.526 1_554 S
C623 C624 1.396 . S
C623 C628 1.390 . S
C624 C618 1.465 1_554 S
C624 C623 1.396 . S
C624 C625 1.399 . S
C625 H611 0.929 . S
C625 C624 1.399 . S
C625 C626 1.385 . S
C626 H612 0.931 . S
C626 C625 1.385 . S
C626 C627 1.389 . S
C627 C626 1.389 . S
C627 C628 1.387 . S
C628 H613 0.930 . S
C628 C623 1.390 . S
C628 C627 1.387 . S
H629 C641 0.930 . S
H630 C643 0.930 . S
H631 C644 0.930 . S
H632 C648 0.959 . S
H633 C648 0.959 . S
H634 C648 0.961 . S
H635 C649 0.960 . S
H636 C649 0.961 . S
H637 C649 0.959 . S
H638 C652 0.929 . S
H639 C653 0.931 . S
H640 C655 0.930 . S
C641 H629 0.930 . S
C641 C642 1.399 . S
C641 C646 1.399 . S
C642 C641 1.399 . S
C642 C643 1.376 . S
C643 H630 0.930 . S
C643 C642 1.376 . S
C643 C644 1.388 . S
C644 H631 0.930 . S
C644 C643 1.388 . S
C644 C645 1.390 . S
C645 C644 1.390 . S
C645 C646 1.394 . S
C645 C651 1.465 . S
C646 C641 1.399 . S
C646 C645 1.394 . S
C646 C647 1.516 . S
C647 C646 1.516 . S
C647 C648 1.502 1_455 S
C647 C649 1.561 . S
C647 C650 1.526 . S
C648 H632 0.959 . S
C648 H633 0.959 . S
C648 H634 0.961 . S
C648 C647 1.502 1_655 S
C649 H635 0.960 . S
C649 H636 0.961 . S
C649 H637 0.959 . S
C649 C647 1.561 . S
C650 C647 1.526 . S
C650 C651 1.396 . S
C650 C655 1.390 . S
C651 C645 1.465 . S
C651 C650 1.396 . S
C651 C652 1.399 . S
C652 H638 0.929 . S
C652 C651 1.399 . S
C652 C653 1.385 . S
C653 H639 0.931 . S
C653 C652 1.385 . S
C653 C654 1.389 . S
C654 C653 1.389 . S
C654 C655 1.387 . S
C655 H640 0.930 . S
C655 C650 1.390 . S
C655 C654 1.387 . S
H656 C668 0.930 . S
H657 C670 0.930 . S
H658 C671 0.930 . S
H659 C675 0.959 . S
H660 C675 0.959 . S
H661 C675 0.961 . S
H662 C676 0.960 . S
H663 C676 0.961 . S
H664 C676 0.959 . S
H665 C679 0.929 . S
H666 C680 0.931 1_545 S
H667 C682 0.930 . S
C668 H656 0.930 . S
C668 C669 1.399 . S
C668 C673 1.399 . S
C669 C668 1.399 . S
C669 C670 1.376 . S
C670 H657 0.930 . S
C670 C669 1.376 . S
C670 C671 1.388 . S
C671 H658 0.930 . S
C671 C670 1.388 . S
C671 C672 1.390 . S
C672 C671 1.390 . S
C672 C673 1.394 . S
C672 C678 1.465 . S
C673 C668 1.399 . S
C673 C672 1.394 . S
C673 C674 1.516 . S
C674 C673 1.516 . S
C674 C675 1.502 . S
C674 C676 1.561 . S
C674 C677 1.526 . S
C675 H659 0.959 . S
C675 H660 0.959 . S
C675 H661 0.961 . S
C675 C674 1.502 . S
C676 H662 0.960 . S
C676 H663 0.961 . S
C676 H664 0.959 . S
C676 C674 1.561 . S
C677 C674 1.526 . S
C677 C678 1.396 . S
C677 C682 1.390 . S
C678 C672 1.465 . S
C678 C677 1.396 . S
C678 C679 1.399 . S
C679 H665 0.929 . S
C679 C678 1.399 . S
C679 C680 1.385 . S
C680 H666 0.931 1_565 S
C680 C679 1.385 . S
C680 C681 1.389 . S
C681 C680 1.389 . S
C681 C682 1.387 . S
C682 H667 0.930 . S
C682 C677 1.390 . S
C682 C681 1.387 . S
H683 C695 0.930 . S
H684 C697 0.930 . S
H685 C698 0.930 . S
H686 C702 0.959 . S
H687 C702 0.959 . S
H688 C702 0.961 . S
H689 C703 0.960 . S
H690 C703 0.961 . S
H691 C703 0.959 . S
H692 C706 0.929 . S
H693 C707 0.919 1_545 S
H694 C709 0.930 . S
C695 H683 0.930 . S
C695 C696 1.399 . S
C695 C700 1.399 . S
C696 C695 1.399 . S
C696 C697 1.376 . S
C697 H684 0.930 . S
C697 C696 1.376 . S
C697 C698 1.388 . S
C698 H685 0.930 . S
C698 C697 1.388 . S
C698 C699 1.390 . S
C699 C698 1.390 . S
C699 C700 1.394 . S
C699 C705 1.465 . S
C700 C695 1.399 . S
C700 C699 1.394 . S
C700 C701 1.516 . S
C701 C700 1.516 . S
C701 C702 1.502 . S
C701 C703 1.561 . S
C701 C704 1.526 . S
C702 H686 0.959 . S
C702 H687 0.959 . S
C702 H688 0.961 . S
C702 C701 1.502 . S
C703 H689 0.960 . S
C703 H690 0.961 . S
C703 H691 0.959 . S
C703 C701 1.561 . S
C704 C701 1.526 . S
C704 C705 1.396 . S
C704 C709 1.390 . S
C705 C699 1.465 . S
C705 C704 1.396 . S
C705 C706 1.399 . S
C706 H692 0.929 . S
C706 C705 1.399 . S
C706 C707 1.385 . S
C707 H693 0.919 1_565 S
C707 C706 1.385 . S
C707 C708 1.389 . S
C708 C707 1.389 . S
C708 C709 1.387 . S
C709 H694 0.930 . S
C709 C704 1.390 . S
C709 C708 1.387 . S
H710 C722 0.930 . S
H711 C724 0.930 1_565 S
H712 C725 0.930 . S
H713 C729 0.959 . S
H714 C729 0.959 . S
H715 C729 0.961 . S
H716 C730 0.960 . S
H717 C730 0.961 . S
H718 C730 0.959 . S
H719 C733 0.929 . S
H720 C734 0.931 . S
H721 C736 0.930 . S
C722 H710 0.930 . S
C722 C723 1.399 . S
C722 C727 1.399 . S
C723 C722 1.399 . S
C723 C724 1.376 . S
C724 H711 0.930 1_545 S
C724 C723 1.376 . S
C724 C725 1.388 . S
C725 H712 0.930 . S
C725 C724 1.388 . S
C725 C726 1.390 . S
C726 C725 1.390 . S
C726 C727 1.394 . S
C726 C732 1.465 . S
C727 C722 1.399 . S
C727 C726 1.394 . S
C727 C728 1.516 . S
C728 C727 1.516 . S
C728 C729 1.502 . S
C728 C730 1.561 . S
C728 C731 1.526 . S
C729 H713 0.959 . S
C729 H714 0.959 . S
C729 H715 0.961 . S
C729 C728 1.502 . S
C730 H716 0.960 . S
C730 H717 0.961 . S
C730 H718 0.959 . S
C730 C728 1.561 . S
C731 C728 1.526 . S
C731 C732 1.396 . S
C731 C736 1.390 . S
C732 C726 1.465 . S
C732 C731 1.396 . S
C732 C733 1.399 . S
C733 H719 0.929 . S
C733 C732 1.399 . S
C733 C734 1.385 . S
C734 H720 0.931 . S
C734 C733 1.385 . S
C734 C735 1.389 . S
C735 C734 1.389 . S
C735 C736 1.387 . S
C736 H721 0.930 . S
C736 C731 1.390 . S
C736 C735 1.387 . S
H737 C749 0.930 . S
H738 C751 0.930 . S
H739 C752 0.930 . S
H740 C756 0.959 . S
H741 C756 0.959 . S
H742 C756 0.961 . S
H743 C757 0.960 . S
H744 C757 0.961 . S
H745 C757 0.959 . S
H746 C760 0.929 . S
H747 C761 0.931 . S
H748 C763 0.930 . S
C749 H737 0.930 . S
C749 C750 1.399 . S
C749 C754 1.399 . S
C750 C749 1.399 . S
C750 C751 1.376 . S
C751 H738 0.930 . S
C751 C750 1.376 . S
C751 C752 1.388 . S
C752 H739 0.930 . S
C752 C751 1.388 . S
C752 C753 1.390 . S
C753 C752 1.390 . S
C753 C754 1.394 . S
C753 C759 1.465 . S
C754 C749 1.399 . S
C754 C753 1.394 . S
C754 C755 1.516 . S
C755 C754 1.516 . S
C755 C756 1.502 . S
C755 C757 1.561 . S
C755 C758 1.526 . S
C756 H740 0.959 . S
C756 H741 0.959 . S
C756 H742 0.961 . S
C756 C755 1.502 . S
C757 H743 0.960 . S
C757 H744 0.961 . S
C757 H745 0.959 . S
C757 C755 1.561 . S
C758 C755 1.526 . S
C758 C759 1.396 . S
C758 C763 1.390 . S
C759 C753 1.465 . S
C759 C758 1.396 . S
C759 C760 1.399 . S
C760 H746 0.929 . S
C760 C759 1.399 . S
C760 C761 1.385 . S
C761 H747 0.931 . S
C761 C760 1.385 . S
C761 C762 1.389 . S
C762 C761 1.389 . S
C762 C763 1.387 . S
C763 H748 0.930 . S
C763 C758 1.390 . S
C763 C762 1.387 . S
H764 C776 0.930 . S
H765 C778 0.930 . S
H766 C779 0.930 . S
H767 C783 0.959 . S
H768 C783 0.959 . S
H769 C783 0.961 . S
H770 C784 0.960 . S
H771 C784 0.961 . S
H772 C784 0.959 . S
H773 C787 0.929 . S
H774 C788 0.931 . S
H775 C790 0.930 . S
C776 H764 0.930 . S
C776 C777 1.399 . S
C776 C781 1.399 . S
C777 C776 1.399 . S
C777 C778 1.376 . S
C778 H765 0.930 . S
C778 C777 1.376 . S
C778 C779 1.388 . S
C779 H766 0.930 . S
C779 C778 1.388 . S
C779 C780 1.390 . S
C780 C779 1.390 . S
C780 C781 1.394 . S
C780 C786 1.465 . S
C781 C776 1.399 . S
C781 C780 1.394 . S
C781 C782 1.516 . S
C782 C781 1.516 . S
C782 C783 1.502 . S
C782 C784 1.561 . S
C782 C785 1.526 . S
C783 H767 0.959 . S
C783 H768 0.959 . S
C783 H769 0.961 . S
C783 C782 1.502 . S
C784 H770 0.960 . S
C784 H771 0.961 . S
C784 H772 0.959 . S
C784 C782 1.561 . S
C785 C782 1.526 . S
C785 C786 1.396 . S
C785 C790 1.390 . S
C786 C780 1.465 . S
C786 C785 1.396 . S
C786 C787 1.399 . S
C787 H773 0.929 . S
C787 C786 1.399 . S
C787 C788 1.385 . S
C788 H774 0.931 . S
C788 C787 1.385 . S
C788 C789 1.389 . S
C789 C788 1.389 . S
C789 C790 1.387 . S
C790 H775 0.930 . S
C790 C785 1.390 . S
C790 C789 1.387 . S
H791 C803 0.930 . S
H792 C805 0.930 . S
H793 C806 0.930 . S
H794 C810 0.959 . S
H795 C810 0.959 . S
H796 C810 0.961 . S
H797 C811 0.960 . S
H798 C811 0.961 . S
H799 C811 0.959 . S
H800 C814 0.929 . S
H801 C815 0.931 . S
H802 C817 0.930 . S
C803 H791 0.930 . S
C803 C804 1.399 . S
C803 C808 1.399 . S
C804 C803 1.399 . S
C804 C805 1.376 . S
C805 H792 0.930 . S
C805 C804 1.376 . S
C805 C806 1.388 . S
C806 H793 0.930 . S
C806 C805 1.388 . S
C806 C807 1.390 . S
C807 C806 1.390 . S
C807 C808 1.394 . S
C807 C813 1.465 . S
C808 C803 1.399 . S
C808 C807 1.394 . S
C808 C809 1.516 . S
C809 C808 1.516 . S
C809 C810 1.502 . S
C809 C811 1.561 . S
C809 C812 1.526 . S
C810 H794 0.959 . S
C810 H795 0.959 . S
C810 H796 0.961 . S
C810 C809 1.502 . S
C811 H797 0.960 . S
C811 H798 0.961 . S
C811 H799 0.959 . S
C811 C809 1.561 . S
C812 C809 1.526 . S
C812 C813 1.396 . S
C812 C817 1.390 . S
C813 C807 1.465 . S
C813 C812 1.396 . S
C813 C814 1.399 . S
C814 H800 0.929 . S
C814 C813 1.399 . S
C814 C815 1.385 . S
C815 H801 0.931 . S
C815 C814 1.385 . S
C815 C816 1.389 . S
C816 C815 1.389 . S
C816 C817 1.387 . S
C817 H802 0.930 . S
C817 C812 1.390 . S
C817 C816 1.387 . S
H818 C830 0.930 . S
H819 C832 0.930 . S
H820 C833 0.930 . S
H821 C837 0.959 . S
H822 C837 0.959 . S
H823 C837 0.961 . S
H824 C838 0.960 . S
H825 C838 0.961 . S
H826 C838 0.959 . S
H827 C841 0.929 . S
H828 C842 0.931 . S
H829 C844 0.930 . S
C830 H818 0.930 . S
C830 C831 1.399 . S
C830 C835 1.399 . S
C831 C830 1.399 . S
C831 C832 1.376 . S
C832 H819 0.930 . S
C832 C831 1.376 . S
C832 C833 1.388 . S
C833 H820 0.930 . S
C833 C832 1.388 . S
C833 C834 1.390 . S
C834 C833 1.390 . S
C834 C835 1.394 . S
C834 C840 1.465 . S
C835 C830 1.399 . S
C835 C834 1.394 . S
C835 C836 1.516 . S
C836 C835 1.516 . S
C836 C837 1.502 . S
C836 C838 1.561 . S
C836 C839 1.526 . S
C837 H821 0.959 . S
C837 H822 0.959 . S
C837 H823 0.961 . S
C837 C836 1.502 . S
C838 H824 0.960 . S
C838 H825 0.961 . S
C838 H826 0.959 . S
C838 C836 1.561 . S
C839 C836 1.526 . S
C839 C840 1.396 . S
C839 C844 1.390 . S
C840 C834 1.465 . S
C840 C839 1.396 . S
C840 C841 1.399 . S
C841 H827 0.929 . S
C841 C840 1.399 . S
C841 C842 1.385 . S
C842 H828 0.931 . S
C842 C841 1.385 . S
C842 C843 1.389 . S
C843 C842 1.389 . S
C843 C844 1.387 . S
C844 H829 0.930 . S
C844 C839 1.390 . S
C844 C843 1.387 . S
H845 C857 0.930 . S
H846 C859 0.930 . S
H847 C860 0.930 . S
H848 C864 0.959 . S
H849 C864 0.959 . S
H850 C864 0.961 . S
H851 C865 0.960 . S
H852 C865 0.961 . S
H853 C865 0.959 . S
H854 C868 0.929 . S
H855 C869 0.931 . S
H856 C871 0.930 . S
C857 H845 0.930 . S
C857 C858 1.399 . S
C857 C862 1.399 . S
C858 C857 1.399 . S
C858 C859 1.376 . S
C859 H846 0.930 . S
C859 C858 1.376 . S
C859 C860 1.388 . S
C860 H847 0.930 . S
C860 C859 1.388 . S
C860 C861 1.390 . S
C861 C860 1.390 . S
C861 C862 1.394 . S
C861 C867 1.465 . S
C862 C857 1.399 . S
C862 C861 1.394 . S
C862 C863 1.516 . S
C863 C862 1.516 . S
C863 C864 1.502 . S
C863 C865 1.561 . S
C863 C866 1.526 . S
C864 H848 0.959 . S
C864 H849 0.959 . S
C864 H850 0.961 . S
C864 C863 1.502 . S
C865 H851 0.960 . S
C865 H852 0.961 . S
C865 H853 0.959 . S
C865 C863 1.561 . S
C866 C863 1.526 . S
C866 C867 1.396 . S
C866 C871 1.390 . S
C867 C861 1.465 . S
C867 C866 1.396 . S
C867 C868 1.399 . S
C868 H854 0.929 . S
C868 C867 1.399 . S
C868 C869 1.385 . S
C869 H855 0.931 . S
C869 C868 1.385 . S
C869 C870 1.389 . S
C870 C869 1.389 . S
C870 C871 1.387 . S
C871 H856 0.930 . S
C871 C866 1.390 . S
C871 C870 1.387 . S
H872 C884 0.930 . S
H873 C886 0.930 . S
H874 C887 0.930 . S
H875 C891 0.959 . S
H876 C891 0.959 . S
H877 C891 0.961 . S
H878 C892 0.960 . S
H879 C892 0.961 . S
H880 C892 0.959 . S
H881 C895 0.929 . S
H882 C896 0.931 . S
H883 C898 0.930 . S
C884 H872 0.930 . S
C884 C885 1.399 . S
C884 C889 1.399 . S
C885 C884 1.399 . S
C885 C886 1.376 . S
C886 H873 0.930 . S
C886 C885 1.376 . S
C886 C887 1.388 . S
C887 H874 0.930 . S
C887 C886 1.388 . S
C887 C888 1.390 . S
C888 C887 1.390 . S
C888 C889 1.394 . S
C888 C894 1.465 . S
C889 C884 1.399 . S
C889 C888 1.394 . S
C889 C890 1.516 . S
C890 C889 1.516 . S
C890 C891 1.502 . S
C890 C892 1.561 . S
C890 C893 1.526 . S
C891 H875 0.959 . S
C891 H876 0.959 . S
C891 H877 0.961 . S
C891 C890 1.502 . S
C892 H878 0.960 . S
C892 H879 0.961 . S
C892 H880 0.959 . S
C892 C890 1.561 . S
C893 C890 1.526 . S
C893 C894 1.396 . S
C893 C898 1.390 . S
C894 C888 1.465 . S
C894 C893 1.396 . S
C894 C895 1.399 . S
C895 H881 0.929 . S
C895 C894 1.399 . S
C895 C896 1.385 . S
C896 H882 0.931 . S
C896 C895 1.385 . S
C896 C897 1.389 . S
C897 C896 1.389 . S
C897 C898 1.387 . S
C898 H883 0.930 . S
C898 C893 1.390 . S
C898 C897 1.387 . S
H899 C911 0.930 . S
H900 C913 0.930 . S
H901 C914 0.930 . S
H902 C918 0.959 . S
H903 C918 0.959 . S
H904 C918 0.961 . S
H905 C919 0.960 . S
H906 C919 0.961 . S
H907 C919 0.959 . S
H908 C922 0.929 . S
H909 C923 0.931 . S
H910 C925 0.930 . S
C911 H899 0.930 . S
C911 C912 1.399 . S
C911 C916 1.399 . S
C912 C911 1.399 . S
C912 C913 1.376 . S
C913 H900 0.930 . S
C913 C912 1.376 . S
C913 C914 1.388 . S
C914 H901 0.930 . S
C914 C913 1.388 . S
C914 C915 1.390 . S
C915 C914 1.390 . S
C915 C916 1.394 . S
C915 C921 1.465 . S
C916 C911 1.399 . S
C916 C915 1.394 . S
C916 C917 1.516 . S
C917 C916 1.516 . S
C917 C918 1.502 . S
C917 C919 1.561 . S
C917 C920 1.526 . S
C918 H902 0.959 . S
C918 H903 0.959 . S
C918 H904 0.961 . S
C918 C917 1.502 . S
C919 H905 0.960 . S
C919 H906 0.961 . S
C919 H907 0.959 . S
C919 C917 1.561 . S
C920 C917 1.526 . S
C920 C921 1.396 . S
C920 C925 1.390 . S
C921 C915 1.465 . S
C921 C920 1.396 . S
C921 C922 1.399 . S
C922 H908 0.929 . S
C922 C921 1.399 . S
C922 C923 1.385 . S
C923 H909 0.931 . S
C923 C922 1.385 . S
C923 C924 1.389 . S
C924 C923 1.389 . S
C924 C925 1.387 . S
C925 H910 0.930 . S
C925 C920 1.390 . S
C925 C924 1.387 . S
H926 C938 0.930 . S
H927 C940 0.930 . S
H928 C941 0.930 . S
H929 C945 0.959 . S
H930 C945 0.959 . S
H931 C945 0.961 . S
H932 C946 0.960 . S
H933 C946 0.961 . S
H934 C946 0.959 . S
H935 C949 0.929 . S
H936 C950 0.931 . S
H937 C952 0.930 . S
C938 H926 0.930 . S
C938 C939 1.399 . S
C938 C943 1.399 . S
C939 C938 1.399 . S
C939 C940 1.376 . S
C940 H927 0.930 . S
C940 C939 1.376 . S
C940 C941 1.388 . S
C941 H928 0.930 . S
C941 C940 1.388 . S
C941 C942 1.390 . S
C942 C941 1.390 . S
C942 C943 1.394 . S
C942 C948 1.465 . S
C943 C938 1.399 . S
C943 C942 1.394 . S
C943 C944 1.516 . S
C944 C943 1.516 . S
C944 C945 1.502 . S
C944 C946 1.561 . S
C944 C947 1.526 . S
C945 H929 0.959 . S
C945 H930 0.959 . S
C945 H931 0.961 . S
C945 C944 1.502 . S
C946 H932 0.960 . S
C946 H933 0.961 . S
C946 H934 0.959 . S
C946 C944 1.561 . S
C947 C944 1.526 . S
C947 C948 1.396 . S
C947 C952 1.390 . S
C948 C942 1.465 . S
C948 C947 1.396 . S
C948 C949 1.399 . S
C949 H935 0.929 . S
C949 C948 1.399 . S
C949 C950 1.385 . S
C950 H936 0.931 . S
C950 C949 1.385 . S
C950 C951 1.389 . S
C951 C950 1.389 . S
C951 C952 1.387 . S
C952 H937 0.930 . S
C952 C947 1.390 . S
C952 C951 1.387 . S
H953 C965 0.930 . S
H954 C967 0.930 . S
H955 C968 0.930 . S
H956 C972 0.959 . S
H957 C972 0.959 . S
H958 C972 0.961 . S
H959 C973 0.960 . S
H960 C973 0.961 . S
H961 C973 0.959 . S
H962 C976 0.929 . S
H963 C977 0.931 . S
H964 C979 0.930 . S
C965 H953 0.930 . S
C965 C966 1.399 . S
C965 C970 1.399 . S
C966 C965 1.399 . S
C966 C967 1.376 . S
C967 H954 0.930 . S
C967 C966 1.376 . S
C967 C968 1.388 . S
C968 H955 0.930 . S
C968 C967 1.388 . S
C968 C969 1.390 . S
C969 C968 1.390 . S
C969 C970 1.394 . S
C969 C975 1.465 . S
C970 C965 1.399 . S
C970 C969 1.394 . S
C970 C971 1.516 . S
C971 C970 1.516 . S
C971 C972 1.502 . S
C971 C973 1.561 . S
C971 C974 1.526 . S
C972 H956 0.959 . S
C972 H957 0.959 . S
C972 H958 0.961 . S
C972 C971 1.502 . S
C973 H959 0.960 . S
C973 H960 0.961 . S
C973 H961 0.959 . S
C973 C971 1.561 . S
C974 C971 1.526 . S
C974 C975 1.396 . S
C974 C979 1.390 . S
C975 C969 1.465 . S
C975 C974 1.396 . S
C975 C976 1.399 . S
C976 H962 0.929 . S
C976 C975 1.399 . S
C976 C977 1.385 . S
C977 H963 0.931 . S
C977 C976 1.385 . S
C977 C978 1.389 . S
C978 C977 1.389 . S
C978 C979 1.387 . S
C979 H964 0.930 . S
C979 C974 1.390 . S
C979 C978 1.387 . S
H980 C992 0.930 . S
H981 C994 0.930 . S
H982 C995 0.930 . S
H983 C999 0.959 . S
H984 C999 0.959 . S
H985 C999 0.961 . S
H986 C1000 0.960 . S
H987 C1000 0.961 . S
H988 C1000 0.959 . S
H989 C1003 0.929 . S
H990 C1004 0.931 . S
H991 C1006 0.930 . S
C992 H980 0.930 . S
C992 C993 1.399 . S
C992 C997 1.399 . S
C993 C992 1.399 . S
C993 C994 1.376 . S
C994 H981 0.930 . S
C994 C993 1.376 . S
C994 C995 1.388 . S
C995 H982 0.930 . S
C995 C994 1.388 . S
C995 C996 1.390 . S
C996 C995 1.390 . S
C996 C997 1.394 . S
C996 C1002 1.465 . S
C997 C992 1.399 . S
C997 C996 1.394 . S
C997 C998 1.516 . S
C998 C997 1.516 . S
C998 C999 1.502 . S
C998 C1000 1.561 . S
C998 C1001 1.526 . S
C999 H983 0.959 . S
C999 H984 0.959 . S
C999 H985 0.961 . S
C999 C998 1.502 . S
C1000 H986 0.960 . S
C1000 H987 0.961 . S
C1000 H988 0.959 . S
C1000 C998 1.561 . S
C1001 C998 1.526 . S
C1001 C1002 1.396 . S
C1001 C1006 1.390 . S
C1002 C996 1.465 . S
C1002 C1001 1.396 . S
C1002 C1003 1.399 . S
C1003 H989 0.929 . S
C1003 C1002 1.399 . S
C1003 C1004 1.385 . S
C1004 H990 0.931 . S
C1004 C1003 1.385 . S
C1004 C1005 1.389 . S
C1005 C1004 1.389 . S
C1005 C1006 1.387 . S
C1006 H991 0.930 . S
C1006 C1001 1.390 . S
C1006 C1005 1.387 . S
H1007 C1019 0.930 . S
H1008 C1021 0.930 . S
H1009 C1022 0.930 . S
H1010 C1026 0.959 . S
H1011 C1026 0.959 . S
H1012 C1026 0.961 . S
H1013 C1027 0.960 . S
H1014 C1027 0.961 . S
H1015 C1027 0.959 . S
H1016 C1030 0.929 . S
H1017 C1031 0.931 . S
H1018 C1033 0.930 . S
C1019 H1007 0.930 . S
C1019 C1020 1.399 . S
C1019 C1024 1.399 . S
C1020 C1019 1.399 . S
C1020 C1021 1.376 . S
C1021 H1008 0.930 . S
C1021 C1020 1.376 . S
C1021 C1022 1.388 . S
C1022 H1009 0.930 . S
C1022 C1021 1.388 . S
C1022 C1023 1.390 . S
C1023 C1022 1.390 . S
C1023 C1024 1.394 . S
C1023 C1029 1.465 . S
C1024 C1019 1.399 . S
C1024 C1023 1.394 . S
C1024 C1025 1.516 . S
C1025 C1024 1.516 . S
C1025 C1026 1.502 . S
C1025 C1027 1.561 . S
C1025 C1028 1.526 . S
C1026 H1010 0.959 . S
C1026 H1011 0.959 . S
C1026 H1012 0.961 . S
C1026 C1025 1.502 . S
C1027 H1013 0.960 . S
C1027 H1014 0.961 . S
C1027 H1015 0.959 . S
C1027 C1025 1.561 . S
C1028 C1025 1.526 . S
C1028 C1029 1.396 . S
C1028 C1033 1.390 . S
C1029 C1023 1.465 . S
C1029 C1028 1.396 . S
C1029 C1030 1.399 . S
C1030 H1016 0.929 . S
C1030 C1029 1.399 . S
C1030 C1031 1.385 . S
C1031 H1017 0.931 . S
C1031 C1030 1.385 . S
C1031 C1032 1.389 . S
C1032 C1031 1.389 . S
C1032 C1033 1.387 . S
C1033 H1018 0.930 . S
C1033 C1028 1.390 . S
C1033 C1032 1.387 . S
H1034 C1046 0.930 . S
H1035 C1048 0.930 . S
H1036 C1049 0.930 . S
H1037 C1053 0.959 . S
H1038 C1053 0.959 . S
H1039 C1053 0.961 . S
H1040 C1054 0.960 . S
H1041 C1054 0.961 . S
H1042 C1054 0.959 . S
H1043 C1057 0.929 . S
H1044 C1058 0.931 . S
H1045 C1060 0.930 . S
C1046 H1034 0.930 . S
C1046 C1047 1.399 . S
C1046 C1051 1.399 . S
C1047 C1046 1.399 . S
C1047 C1048 1.376 . S
C1048 H1035 0.930 . S
C1048 C1047 1.376 . S
C1048 C1049 1.388 . S
C1049 H1036 0.930 . S
C1049 C1048 1.388 . S
C1049 C1050 1.390 . S
C1050 C1049 1.390 . S
C1050 C1051 1.394 . S
C1050 C1056 1.465 . S
C1051 C1046 1.399 . S
C1051 C1050 1.394 . S
C1051 C1052 1.516 . S
C1052 C1051 1.516 . S
C1052 C1053 1.502 . S
C1052 C1054 1.561 . S
C1052 C1055 1.526 . S
C1053 H1037 0.959 . S
C1053 H1038 0.959 . S
C1053 H1039 0.961 . S
C1053 C1052 1.502 . S
C1054 H1040 0.960 . S
C1054 H1041 0.961 . S
C1054 H1042 0.959 . S
C1054 C1052 1.561 . S
C1055 C1052 1.526 . S
C1055 C1056 1.396 . S
C1055 C1060 1.390 . S
C1056 C1050 1.465 . S
C1056 C1055 1.396 . S
C1056 C1057 1.399 . S
C1057 H1043 0.929 . S
C1057 C1056 1.399 . S
C1057 C1058 1.385 . S
C1058 H1044 0.931 . S
C1058 C1057 1.385 . S
C1058 C1059 1.389 . S
C1059 C1058 1.389 . S
C1059 C1060 1.387 . S
C1060 H1045 0.930 . S
C1060 C1055 1.390 . S
C1060 C1059 1.387 . S
H1061 C1073 0.930 . S
H1062 C1075 0.930 . S
H1063 C1076 0.930 . S
H1064 C1080 0.959 . S
H1065 C1080 0.959 . S
H1066 C1080 0.961 . S
H1067 C1081 0.960 . S
H1068 C1081 0.961 . S
H1069 C1081 0.959 . S
H1070 C1084 0.929 . S
H1071 C1085 0.931 . S
H1072 C1087 0.930 . S
C1073 H1061 0.930 . S
C1073 C1074 1.399 . S
C1073 C1078 1.399 . S
C1074 C1073 1.399 . S
C1074 C1075 1.376 . S
C1075 H1062 0.930 . S
C1075 C1074 1.376 . S
C1075 C1076 1.388 . S
C1076 H1063 0.930 . S
C1076 C1075 1.388 . S
C1076 C1077 1.390 . S
C1077 C1076 1.390 . S
C1077 C1078 1.394 . S
C1077 C1083 1.465 . S
C1078 C1073 1.399 . S
C1078 C1077 1.394 . S
C1078 C1079 1.516 . S
C1079 C1078 1.516 . S
C1079 C1080 1.502 . S
C1079 C1081 1.561 . S
C1079 C1082 1.526 . S
C1080 H1064 0.959 . S
C1080 H1065 0.959 . S
C1080 H1066 0.961 . S
C1080 C1079 1.502 . S
C1081 H1067 0.960 . S
C1081 H1068 0.961 . S
C1081 H1069 0.959 . S
C1081 C1079 1.561 . S
C1082 C1079 1.526 . S
C1082 C1083 1.396 . S
C1082 C1087 1.390 . S
C1083 C1077 1.465 . S
C1083 C1082 1.396 . S
C1083 C1084 1.399 . S
C1084 H1070 0.929 . S
C1084 C1083 1.399 . S
C1084 C1085 1.385 . S
C1085 H1071 0.931 . S
C1085 C1084 1.385 . S
C1085 C1086 1.389 . S
C1086 C1085 1.389 . S
C1086 C1087 1.387 . S
C1087 H1072 0.930 . S
C1087 C1082 1.390 . S
C1087 C1086 1.387 . S
C237 C11 1.249 . S
C249 C193 1.227 . S
C264 C165 1.234 . S
C276 C25 1.254 . S
C291 C179 1.227 . S
C303 C39 1.261 . S
C318 C151 1.239 . S
C330 C53 1.250 . S
C345 C67 1.258 . S
C357 C221 1.218 . S
C372 C81 1.215 . S
C384 C137 1.270 . S
C399 C207 1.227 . S
C411 C95 1.261 . S
C426 C109 1.242 . S
C438 C123 1.248 . S
C453 C65 1.637 . S
C465 C9 1.640 . S
C480 C23 1.628 . S
C492 C79 1.631 . S
C507 C37 1.636 . S
C519 C93 1.640 . S
C534 C107 1.640 . S
C546 C51 1.637 . S
C561 C121 1.628 . S
C573 C149 1.631 . S
C588 C135 1.640 . S
C600 C163 1.638 . S
C615 C205 1.635 . S
C627 C177 1.639 . S
C642 C191 1.636 . S
C654 C219 1.640 . S
C669 C70 1.382 . S
C681 C0 1.447 . S
C696 C14 1.375 . S
C708 C84 1.442 . S
C723 C28 1.451 . S
C735 C98 1.402 . S
C750 C56 1.368 . S
C762 C42 1.410 . S
C777 C61 1.249 . S
C789 C145 1.218 . S
C804 C33 1.246 . S
C816 C117 1.213 . S
C831 C159 1.219 . S
C843 C89 1.223 . S
C858 C131 1.239 . S
C870 C5 1.211 . S
C885 C112 1.450 . S
C897 C168 1.408 . S
C912 C140 1.445 . S
C924 C210 1.379 . S
C939 C182 1.367 . S
C951 C126 1.423 . S
C966 C154 1.441 . S
C978 C196 1.375 . S
C993 C201 1.225 . S
C1005 C19 1.248 . S
C1020 C187 1.249 . S
C1032 C75 1.217 . S
C1047 C215 1.215 . S
C1059 C47 1.248 . S
C1074 C173 1.243 . S
C1086 C103 1.211 . S
