# Generated by pormake.
# Topology som, (6)-cn, num edge types: 1
# Building blocks:
#     Node 0, Type 0, BuildingBlock: MIDCAF_clean_sbu_0, # of connection points: 6
#     Node 1, Type 0, BuildingBlock: MIDCAF_clean_sbu_0, # of connection points: 6
#     Node 2, Type 0, BuildingBlock: MIDCAF_clean_sbu_0, # of connection points: 6
#     Node 3, Type 0, BuildingBlock: MIDCAF_clean_sbu_0, # of connection points: 6
#     Node 4, Type 0, BuildingBlock: MIDCAF_clean_sbu_0, # of connection points: 6
#     Node 5, Type 0, BuildingBlock: MIDCAF_clean_sbu_0, # of connection points: 6
#     Node 6, Type 0, BuildingBlock: MIDCAF_clean_sbu_0, # of connection points: 6
#     Node 7, Type 0, BuildingBlock: MIDCAF_clean_sbu_0, # of connection points: 6
#     Node 8, Type 0, BuildingBlock: MIDCAF_clean_sbu_0, # of connection points: 6
#     Node 9, Type 0, BuildingBlock: MIDCAF_clean_sbu_0, # of connection points: 6
#     Node 10, Type 0, BuildingBlock: MIDCAF_clean_sbu_0, # of connection points: 6
#     Node 11, Type 0, BuildingBlock: MIDCAF_clean_sbu_0, # of connection points: 6
#     Node 12, Type 0, BuildingBlock: MIDCAF_clean_sbu_0, # of connection points: 6
#     Node 13, Type 0, BuildingBlock: MIDCAF_clean_sbu_0, # of connection points: 6
#     Node 14, Type 0, BuildingBlock: MIDCAF_clean_sbu_0, # of connection points: 6
#     Node 15, Type 0, BuildingBlock: MIDCAF_clean_sbu_0, # of connection points: 6
#     Node 16, Type 0, BuildingBlock: MIDCAF_clean_sbu_0, # of connection points: 6
#     Node 17, Type 0, BuildingBlock: MIDCAF_clean_sbu_0, # of connection points: 6
#     Node 18, Type 0, BuildingBlock: MIDCAF_clean_sbu_0, # of connection points: 6
#     Node 19, Type 0, BuildingBlock: MIDCAF_clean_sbu_0, # of connection points: 6
#     Node 20, Type 0, BuildingBlock: MIDCAF_clean_sbu_0, # of connection points: 6
#     Node 21, Type 0, BuildingBlock: MIDCAF_clean_sbu_0, # of connection points: 6
#     Node 22, Type 0, BuildingBlock: MIDCAF_clean_sbu_0, # of connection points: 6
#     Node 23, Type 0, BuildingBlock: MIDCAF_clean_sbu_0, # of connection points: 6
#     Node 24, Type 0, BuildingBlock: MIDCAF_clean_sbu_0, # of connection points: 6
#     Node 25, Type 0, BuildingBlock: MIDCAF_clean_sbu_0, # of connection points: 6
#     Node 26, Type 0, BuildingBlock: MIDCAF_clean_sbu_0, # of connection points: 6
#     Node 27, Type 0, BuildingBlock: MIDCAF_clean_sbu_0, # of connection points: 6
#     Node 28, Type 0, BuildingBlock: MIDCAF_clean_sbu_0, # of connection points: 6
#     Node 29, Type 0, BuildingBlock: MIDCAF_clean_sbu_0, # of connection points: 6
#     Node 30, Type 0, BuildingBlock: MIDCAF_clean_sbu_0, # of connection points: 6
#     Node 31, Type 0, BuildingBlock: MIDCAF_clean_sbu_0, # of connection points: 6
#     Edge 32, Type (0, 0), BuildingBlock: OJICUG_clean_linker_0, # of connection points: 2
#     Edge 33, Type (0, 0), BuildingBlock: OJICUG_clean_linker_0, # of connection points: 2
#     Edge 34, Type (0, 0), BuildingBlock: OJICUG_clean_linker_0, # of connection points: 2
#     Edge 35, Type (0, 0), BuildingBlock: OJICUG_clean_linker_0, # of connection points: 2
#     Edge 36, Type (0, 0), BuildingBlock: OJICUG_clean_linker_0, # of connection points: 2
#     Edge 37, Type (0, 0), BuildingBlock: OJICUG_clean_linker_0, # of connection points: 2
#     Edge 38, Type (0, 0), BuildingBlock: OJICUG_clean_linker_0, # of connection points: 2
#     Edge 39, Type (0, 0), BuildingBlock: OJICUG_clean_linker_0, # of connection points: 2
#     Edge 40, Type (0, 0), BuildingBlock: OJICUG_clean_linker_0, # of connection points: 2
#     Edge 41, Type (0, 0), BuildingBlock: OJICUG_clean_linker_0, # of connection points: 2
#     Edge 42, Type (0, 0), BuildingBlock: OJICUG_clean_linker_0, # of connection points: 2
#     Edge 43, Type (0, 0), BuildingBlock: OJICUG_clean_linker_0, # of connection points: 2
#     Edge 44, Type (0, 0), BuildingBlock: OJICUG_clean_linker_0, # of connection points: 2
#     Edge 45, Type (0, 0), BuildingBlock: OJICUG_clean_linker_0, # of connection points: 2
#     Edge 46, Type (0, 0), BuildingBlock: OJICUG_clean_linker_0, # of connection points: 2
#     Edge 47, Type (0, 0), BuildingBlock: OJICUG_clean_linker_0, # of connection points: 2
#     Edge 48, Type (0, 0), BuildingBlock: OJICUG_clean_linker_0, # of connection points: 2
#     Edge 49, Type (0, 0), BuildingBlock: OJICUG_clean_linker_0, # of connection points: 2
#     Edge 50, Type (0, 0), BuildingBlock: OJICUG_clean_linker_0, # of connection points: 2
#     Edge 51, Type (0, 0), BuildingBlock: OJICUG_clean_linker_0, # of connection points: 2
#     Edge 52, Type (0, 0), BuildingBlock: OJICUG_clean_linker_0, # of connection points: 2
#     Edge 53, Type (0, 0), BuildingBlock: OJICUG_clean_linker_0, # of connection points: 2
#     Edge 54, Type (0, 0), BuildingBlock: OJICUG_clean_linker_0, # of connection points: 2
#     Edge 55, Type (0, 0), BuildingBlock: OJICUG_clean_linker_0, # of connection points: 2
#     Edge 56, Type (0, 0), BuildingBlock: OJICUG_clean_linker_0, # of connection points: 2
#     Edge 57, Type (0, 0), BuildingBlock: OJICUG_clean_linker_0, # of connection points: 2
#     Edge 58, Type (0, 0), BuildingBlock: OJICUG_clean_linker_0, # of connection points: 2
#     Edge 59, Type (0, 0), BuildingBlock: OJICUG_clean_linker_0, # of connection points: 2
#     Edge 60, Type (0, 0), BuildingBlock: OJICUG_clean_linker_0, # of connection points: 2
#     Edge 61, Type (0, 0), BuildingBlock: OJICUG_clean_linker_0, # of connection points: 2
#     Edge 62, Type (0, 0), BuildingBlock: OJICUG_clean_linker_0, # of connection points: 2
#     Edge 63, Type (0, 0), BuildingBlock: OJICUG_clean_linker_0, # of connection points: 2
#     Edge 64, Type (0, 0), BuildingBlock: OJICUG_clean_linker_0, # of connection points: 2
#     Edge 65, Type (0, 0), BuildingBlock: OJICUG_clean_linker_0, # of connection points: 2
#     Edge 66, Type (0, 0), BuildingBlock: OJICUG_clean_linker_0, # of connection points: 2
#     Edge 67, Type (0, 0), BuildingBlock: OJICUG_clean_linker_0, # of connection points: 2
#     Edge 68, Type (0, 0), BuildingBlock: OJICUG_clean_linker_0, # of connection points: 2
#     Edge 69, Type (0, 0), BuildingBlock: OJICUG_clean_linker_0, # of connection points: 2
#     Edge 70, Type (0, 0), BuildingBlock: OJICUG_clean_linker_0, # of connection points: 2
#     Edge 71, Type (0, 0), BuildingBlock: OJICUG_clean_linker_0, # of connection points: 2
#     Edge 72, Type (0, 0), BuildingBlock: OJICUG_clean_linker_0, # of connection points: 2
#     Edge 73, Type (0, 0), BuildingBlock: OJICUG_clean_linker_0, # of connection points: 2
#     Edge 74, Type (0, 0), BuildingBlock: OJICUG_clean_linker_0, # of connection points: 2
#     Edge 75, Type (0, 0), BuildingBlock: OJICUG_clean_linker_0, # of connection points: 2
#     Edge 76, Type (0, 0), BuildingBlock: OJICUG_clean_linker_0, # of connection points: 2
#     Edge 77, Type (0, 0), BuildingBlock: OJICUG_clean_linker_0, # of connection points: 2
#     Edge 78, Type (0, 0), BuildingBlock: OJICUG_clean_linker_0, # of connection points: 2
#     Edge 79, Type (0, 0), BuildingBlock: OJICUG_clean_linker_0, # of connection points: 2
#     Edge 80, Type (0, 0), BuildingBlock: OJICUG_clean_linker_0, # of connection points: 2
#     Edge 81, Type (0, 0), BuildingBlock: OJICUG_clean_linker_0, # of connection points: 2
#     Edge 82, Type (0, 0), BuildingBlock: OJICUG_clean_linker_0, # of connection points: 2
#     Edge 83, Type (0, 0), BuildingBlock: OJICUG_clean_linker_0, # of connection points: 2
#     Edge 84, Type (0, 0), BuildingBlock: OJICUG_clean_linker_0, # of connection points: 2
#     Edge 85, Type (0, 0), BuildingBlock: OJICUG_clean_linker_0, # of connection points: 2
#     Edge 86, Type (0, 0), BuildingBlock: OJICUG_clean_linker_0, # of connection points: 2
#     Edge 87, Type (0, 0), BuildingBlock: OJICUG_clean_linker_0, # of connection points: 2
#     Edge 88, Type (0, 0), BuildingBlock: OJICUG_clean_linker_0, # of connection points: 2
#     Edge 89, Type (0, 0), BuildingBlock: OJICUG_clean_linker_0, # of connection points: 2
#     Edge 90, Type (0, 0), BuildingBlock: OJICUG_clean_linker_0, # of connection points: 2
#     Edge 91, Type (0, 0), BuildingBlock: OJICUG_clean_linker_0, # of connection points: 2
#     Edge 92, Type (0, 0), BuildingBlock: OJICUG_clean_linker_0, # of connection points: 2
#     Edge 93, Type (0, 0), BuildingBlock: OJICUG_clean_linker_0, # of connection points: 2
#     Edge 94, Type (0, 0), BuildingBlock: OJICUG_clean_linker_0, # of connection points: 2
#     Edge 95, Type (0, 0), BuildingBlock: OJICUG_clean_linker_0, # of connection points: 2
#     Edge 96, Type (0, 0), BuildingBlock: OJICUG_clean_linker_0, # of connection points: 2
#     Edge 97, Type (0, 0), BuildingBlock: OJICUG_clean_linker_0, # of connection points: 2
#     Edge 98, Type (0, 0), BuildingBlock: OJICUG_clean_linker_0, # of connection points: 2
#     Edge 99, Type (0, 0), BuildingBlock: OJICUG_clean_linker_0, # of connection points: 2
#     Edge 100, Type (0, 0), BuildingBlock: OJICUG_clean_linker_0, # of connection points: 2
#     Edge 101, Type (0, 0), BuildingBlock: OJICUG_clean_linker_0, # of connection points: 2
#     Edge 102, Type (0, 0), BuildingBlock: OJICUG_clean_linker_0, # of connection points: 2
#     Edge 103, Type (0, 0), BuildingBlock: OJICUG_clean_linker_0, # of connection points: 2
#     Edge 104, Type (0, 0), BuildingBlock: OJICUG_clean_linker_0, # of connection points: 2
#     Edge 105, Type (0, 0), BuildingBlock: OJICUG_clean_linker_0, # of connection points: 2
#     Edge 106, Type (0, 0), BuildingBlock: OJICUG_clean_linker_0, # of connection points: 2
#     Edge 107, Type (0, 0), BuildingBlock: OJICUG_clean_linker_0, # of connection points: 2
#     Edge 108, Type (0, 0), BuildingBlock: OJICUG_clean_linker_0, # of connection points: 2
#     Edge 109, Type (0, 0), BuildingBlock: OJICUG_clean_linker_0, # of connection points: 2
#     Edge 110, Type (0, 0), BuildingBlock: OJICUG_clean_linker_0, # of connection points: 2
#     Edge 111, Type (0, 0), BuildingBlock: OJICUG_clean_linker_0, # of connection points: 2
#     Edge 112, Type (0, 0), BuildingBlock: OJICUG_clean_linker_0, # of connection points: 2
#     Edge 113, Type (0, 0), BuildingBlock: OJICUG_clean_linker_0, # of connection points: 2
#     Edge 114, Type (0, 0), BuildingBlock: OJICUG_clean_linker_0, # of connection points: 2
#     Edge 115, Type (0, 0), BuildingBlock: OJICUG_clean_linker_0, # of connection points: 2
#     Edge 116, Type (0, 0), BuildingBlock: OJICUG_clean_linker_0, # of connection points: 2
#     Edge 117, Type (0, 0), BuildingBlock: OJICUG_clean_linker_0, # of connection points: 2
#     Edge 118, Type (0, 0), BuildingBlock: OJICUG_clean_linker_0, # of connection points: 2
#     Edge 119, Type (0, 0), BuildingBlock: OJICUG_clean_linker_0, # of connection points: 2
#     Edge 120, Type (0, 0), BuildingBlock: OJICUG_clean_linker_0, # of connection points: 2
#     Edge 121, Type (0, 0), BuildingBlock: OJICUG_clean_linker_0, # of connection points: 2
#     Edge 122, Type (0, 0), BuildingBlock: OJICUG_clean_linker_0, # of connection points: 2
#     Edge 123, Type (0, 0), BuildingBlock: OJICUG_clean_linker_0, # of connection points: 2
#     Edge 124, Type (0, 0), BuildingBlock: OJICUG_clean_linker_0, # of connection points: 2
#     Edge 125, Type (0, 0), BuildingBlock: OJICUG_clean_linker_0, # of connection points: 2
#     Edge 126, Type (0, 0), BuildingBlock: OJICUG_clean_linker_0, # of connection points: 2
#     Edge 127, Type (0, 0), BuildingBlock: OJICUG_clean_linker_0, # of connection points: 2
# Relax obj value: 0.165
# Max RMSD: 0.192
# Mean RMSD: 0.191
data_MOF--net-som--node1-MIDCAF_clean_sbu_0--edge1-OJICUG_clean_linker_0
_symmetry_space_group_name_H-M    P1
_symmetry_Int_Tables_number       1
_symmetry_cell_setting            triclinic
loop_
_symmetry_equiv_pos_as_xyz
'x, y, z'
_cell_length_a     11.316308
_cell_length_b     43.234035
_cell_length_c     88.933757
_cell_angle_alpha  90.006315
_cell_angle_beta   90.116705
_cell_angle_gamma 90.002696
loop_
_atom_site_label
_atom_site_type_symbol
_atom_site_fract_x
_atom_site_fract_y
_atom_site_fract_z
_atom_type_partial_charge
Zn0 Zn 0.83563 0.52843 0.09998 0.0
Zn1 Zn -0.01446 0.46524 0.06088 0.0
Zn2 Zn 0.98189 0.51084 0.075 0.0
C3 C 0.21668 0.48335 0.06591 0.0
C4 C 0.03298 0.50503 0.03952 0.0
O5 O 0.80306 0.50115 0.06733 0.0
O6 O 0.70979 0.50381 0.08925 0.0
C7 C 0.03943 0.49711 0.11108 0.0
O8 O 0.15622 0.50839 0.06465 0.0
O9 O 0.16091 0.45809 0.06726 0.0
O10 O 0.96701 0.48142 0.03995 0.0
O11 O 0.06507 0.51769 0.05204 0.0
O12 O 0.94589 0.5106 0.11522 0.0
O13 O 0.06115 0.49334 0.0969 0.0
O14 O 0.94358 0.55981 0.07806 0.0
O15 O 0.83515 0.57475 0.09715 0.0
C16 C 0.89309 0.58145 0.08548 0.0
O17 O 0.96479 0.46641 0.08823 0.0
O18 O 0.86035 0.44141 0.0714 0.0
C19 C 0.70971 0.49769 0.07531 0.0
C20 C 0.90082 0.44291 0.08462 0.0
Zn21 Zn 0.25863 0.7203 0.0714 0.0
Zn22 Zn 0.07497 0.81511 0.06231 0.0
Zn23 Zn 0.16984 0.76772 0.06981 0.0
C24 C 0.89219 0.78016 0.06711 0.0
C25 C 0.15782 0.78445 0.03643 0.0
O26 O 0.329 0.76317 0.05463 0.0
O27 O 0.40973 0.71928 0.06192 0.0
C28 C 0.27614 0.75167 0.09974 0.0
O29 O 0.97827 0.76074 0.06656 0.0
O30 O 0.91355 0.80839 0.06948 0.0
O31 O 0.08789 0.80573 0.04032 0.0
O32 O 0.22028 0.77056 0.04647 0.0
O33 O 0.27394 0.72502 0.09382 0.0
O34 O 0.24682 0.77527 0.09179 0.0
O35 O 0.03549 0.72866 0.07341 0.0
O36 O 0.14282 0.69233 0.06287 0.0
C37 C 0.046 0.70062 0.06847 0.0
O38 O 0.23669 0.80598 0.08518 0.0
O39 O 0.17281 0.84619 0.07222 0.0
C40 C 0.41883 0.74462 0.05512 0.0
C41 C 0.23441 0.83555 0.08286 0.0
Zn42 Zn 0.01755 0.71924 0.17441 0.0
Zn43 Zn 0.21459 0.78353 0.211 0.0
Zn44 Zn 0.10072 0.75414 0.19312 0.0
C45 C 0.37076 0.78427 0.18991 0.0
C46 C 0.13834 0.74255 0.2291 0.0
O47 O 0.92984 0.7749 0.18562 0.0
O48 O 0.87089 0.7399 0.16925 0.0
C49 C 0.21516 0.73788 0.16067 0.0
O50 O 0.2866 0.76653 0.18502 0.0
O51 O 0.35845 0.79819 0.2022 0.0
O52 O 0.23474 0.75698 0.22841 0.0
O53 O 0.08373 0.73597 0.21674 0.0
O54 O 0.13347 0.71872 0.15837 0.0
O55 O 0.22152 0.75247 0.17331 0.0
O56 O 0.07456 0.70805 0.20503 0.0
O57 O -0.00215 0.68189 0.18613 0.0
C58 C 0.03153 0.68265 0.19962 0.0
O59 O -0.00278 0.79611 0.19486 0.0
O60 O 0.09894 0.81673 0.21359 0.0
C61 C 0.85141 0.76456 0.17634 0.0
C62 C 0.01489 0.81811 0.20431 0.0
Zn63 Zn 0.17748 0.44145 0.21328 0.0
Zn64 Zn 0.3542 0.53375 0.18929 0.0
Zn65 Zn 0.25331 0.49188 0.20307 0.0
C66 C 0.17206 0.5618 0.20542 0.0
C67 C 0.27992 0.49762 0.1663 0.0
O68 O 0.2749 0.45314 0.18599 0.0
O69 O 0.2241 0.41068 0.19818 0.0
C70 C 0.32751 0.46282 0.23531 0.0
O71 O 0.1351 0.53354 0.20629 0.0
O72 O 0.26988 0.5675 0.19928 0.0
O73 O 0.32158 0.52451 0.16783 0.0
O74 O 0.25933 0.48105 0.17814 0.0
O75 O 0.25255 0.44165 0.23327 0.0
O76 O 0.35196 0.48166 0.22444 0.0
O77 O 0.07599 0.50344 0.21085 0.0
O78 O 0.01417 0.45543 0.21424 0.0
C79 C -0.00611 0.48413 0.21436 0.0
O80 O 0.42364 0.49909 0.2143 0.0
O81 O 0.51218 0.528 0.19717 0.0
C82 C 0.26619 0.42328 0.18658 0.0
C83 C 0.51594 0.51324 0.20938 0.0
Zn84 Zn 0.95009 0.56146 0.95843 0.0
Zn85 Zn 0.10724 0.46935 0.93904 0.0
Zn86 Zn 0.02225 0.51302 0.94653 0.0
C87 C 0.93719 0.44532 0.95201 0.0
C88 C 0.0345 0.49624 0.91292 0.0
O89 O 0.03764 0.5494 0.92871 0.0
O90 O 0.9701 0.58961 0.94139 0.0
C91 C 0.1078 0.54125 0.97902 0.0
O92 O 0.90241 0.47204 0.94724 0.0
O93 O 0.04506 0.44168 0.95491 0.0
O94 O 0.03673 0.46942 0.91855 0.0
O95 O 0.04859 0.51965 0.92178 0.0
O96 O 0.04727 0.56533 0.97681 0.0
O97 O 0.11719 0.52094 0.96838 0.0
O98 O 0.84303 0.50162 0.95327 0.0
O99 O 0.78948 0.54675 0.96258 0.0
C100 C 0.76538 0.51896 0.95957 0.0
O101 O 0.19351 0.50515 0.95815 0.0
O102 O 0.2743 0.47625 0.94053 0.0
C103 C 0.01102 0.57839 0.92938 0.0
C104 C 0.28444 0.49139 0.95256 0.0
Zn105 Zn 0.76679 0.21545 0.95014 0.0
Zn106 Zn 0.57898 0.2931 0.91717 0.0
Zn107 Zn 0.67885 0.26017 0.93633 0.0
C108 C 0.74701 0.3296 0.93202 0.0
C109 C 0.66135 0.25022 0.89908 0.0
O110 O 0.67802 0.21575 0.92296 0.0
O111 O 0.76834 0.18011 0.93655 0.0
C112 C 0.59774 0.23728 0.9692 0.0
O113 O 0.7816 0.30319 0.93711 0.0
O114 O 0.66057 0.33102 0.92309 0.0
O115 O 0.60979 0.27575 0.89716 0.0
O116 O 0.68303 0.24073 0.91262 0.0
O117 O 0.66113 0.21354 0.96758 0.0
O118 O 0.58315 0.25593 0.95801 0.0
O119 O 0.85279 0.27778 0.94318 0.0
O120 O 0.9186 0.23557 0.95438 0.0
C121 C 0.93482 0.2632 0.95032 0.0
O122 O 0.50515 0.2708 0.94626 0.0
O123 O 0.42224 0.29044 0.92586 0.0
C124 C 0.71344 0.18753 0.92476 0.0
C125 C 0.41477 0.28235 0.93946 0.0
Zn126 Zn 0.15126 0.2665 0.84146 0.0
Zn127 Zn 0.00247 0.19895 0.80359 0.0
Zn128 Zn 0.0569 0.2513 0.81801 0.0
C129 C 0.79948 0.22531 0.80881 0.0
C130 C -0.0144 0.24407 0.78306 0.0
O131 O 0.2266 0.23374 0.81246 0.0
O132 O 0.30579 0.26148 0.83059 0.0
C133 C 0.96192 0.23188 0.84974 0.0
O134 O 0.87573 0.2468 0.81089 0.0
O135 O 0.83199 0.19749 0.80793 0.0
O136 O 0.03178 0.21734 0.78305 0.0
O137 O 0.97432 0.25855 0.79562 0.0
O138 O 0.06685 0.23523 0.85442 0.0
O139 O 0.93695 0.23984 0.83625 0.0
O140 O 0.1183 0.30009 0.81907 0.0
O141 O 0.11735 0.31196 0.84306 0.0
C142 C 0.1299 0.32037 0.82952 0.0
O143 O 0.16129 0.20746 0.8255 0.0
O144 O 0.09562 0.16672 0.81318 0.0
C145 C 0.31631 0.24751 0.81817 0.0
C146 C 0.16107 0.1779 0.82328 0.0
Zn147 Zn 0.21736 0.56381 0.81505 0.0
Zn148 Zn 0.02056 0.4707 0.81744 0.0
Zn149 Zn 0.11841 0.51457 0.81853 0.0
C150 C 0.2094 0.44826 0.81466 0.0
C151 C 0.02446 0.49703 0.84777 0.0
O152 O -0.00426 0.54886 0.82901 0.0
O153 O 0.09149 0.59159 0.82266 0.0
C154 C 0.17502 0.53648 0.78645 0.0
O155 O 0.21872 0.47067 0.82416 0.0
O156 O 0.14286 0.45265 0.80348 0.0
O157 O 0.03669 0.47085 0.84139 0.0
O158 O 0.01662 0.52105 0.83917 0.0
O159 O 0.23273 0.55851 0.79231 0.0
O160 O 0.11651 0.51805 0.79481 0.0
O161 O 0.28247 0.5029 0.82832 0.0
O162 O 0.34904 0.55081 0.82856 0.0
C163 C 0.3631 0.52248 0.83165 0.0
O164 O 0.9272 0.5197 0.82482 0.0
O165 O 0.86467 0.48252 0.80985 0.0
C166 C 0.00131 0.57876 0.82818 0.0
C167 C 0.84158 0.50406 0.81898 0.0
Zn168 Zn 0.90178 0.96784 0.56116 0.0
Zn169 Zn 0.69682 0.05125 0.58799 0.0
Zn170 Zn 0.79708 0.01474 0.5701 0.0
C171 C 0.88022 0.08318 0.57397 0.0
C172 C 0.78136 1.00639 0.606 0.0
O173 O 0.76908 0.96932 0.58297 0.0
O174 O 0.88228 0.93183 0.57426 0.0
C175 C 0.72976 0.98759 0.53964 0.0
O176 O 0.91286 0.05568 0.57025 0.0
O177 O 0.78547 0.0875 0.58106 0.0
O178 O 0.73576 0.03274 0.60782 0.0
O179 O 0.79659 0.99572 0.59267 0.0
O180 O 0.8078 0.96761 0.54257 0.0
O181 O 0.7015 0.00789 0.54953 0.0
O182 O 0.97603 0.02987 0.56299 0.0
O183 O 0.05705 0.98469 0.55759 0.0
C184 C 0.06445 0.01374 0.55827 0.0
O185 O 0.62795 0.02728 0.55942 0.0
O186 O 0.54095 0.04848 0.57915 0.0
C187 C 0.80087 0.94048 0.58294 0.0
C188 C 0.53691 0.03978 0.56561 0.0
Zn189 Zn 0.27094 0.24392 0.58471 0.0
Zn190 Zn 0.07986 0.31148 0.54811 0.0
Zn191 Zn 0.16413 0.26917 0.56431 0.0
C192 C 0.90698 0.26525 0.55187 0.0
C193 C 0.24045 0.28167 0.52989 0.0
O194 O 0.33782 0.25615 0.55476 0.0
O195 O 0.42495 0.24171 0.57586 0.0
C196 C 0.18836 0.28852 0.60105 0.0
O197 O -0.00859 0.25047 0.55841 0.0
O198 O 0.92171 0.2929 0.54769 0.0
O199 O 0.16747 0.30369 0.52959 0.0
O200 O 0.26274 0.26791 0.5425 0.0
O201 O 0.25308 0.26556 0.60385 0.0
O202 O 0.15586 0.29383 0.58727 0.0
O203 O 0.05988 0.2262 0.56683 0.0
O204 O 0.18665 0.20493 0.58257 0.0
C205 C 0.09687 0.20248 0.57426 0.0
O206 O 0.17099 0.3158 0.57536 0.0
O207 O 0.10795 0.35029 0.55889 0.0
C208 C 0.4293 0.24603 0.56187 0.0
C209 C 0.15308 0.34427 0.57152 0.0
Zn210 Zn 0.84938 0.25763 0.67344 0.0
Zn211 Zn 0.0424 0.32075 0.70872 0.0
Zn212 Zn 0.96201 0.2808 0.69184 0.0
C213 C 0.20915 0.27193 0.70614 0.0
C214 C 0.87408 0.29659 0.72603 0.0
O215 O 0.78404 0.27018 0.70105 0.0
O216 O 0.69308 0.27052 0.67911 0.0
C217 C 0.95751 0.29401 0.65518 0.0
O218 O 0.12953 0.25956 0.69773 0.0
O219 O 0.19109 0.29803 0.71206 0.0
O220 O 0.93724 0.32059 0.72611 0.0
O221 O 0.86323 0.28091 0.71372 0.0
O222 O 0.90217 0.26904 0.65333 0.0
O223 O 0.97678 0.30396 0.66871 0.0
O224 O 0.05107 0.2357 0.69033 0.0
O225 O 0.88717 0.21602 0.68103 0.0
C226 C -0.01402 0.21204 0.68729 0.0
O227 O 0.97662 0.3268 0.67983 0.0
O228 O 0.05274 0.35846 0.69679 0.0
C229 C 0.68842 0.26828 0.69322 0.0
C230 C 0.01296 0.35402 0.68374 0.0
Zn231 Zn 0.23741 0.03983 0.66785 0.0
Zn232 Zn 0.04808 0.96952 0.70133 0.0
Zn233 Zn 0.14093 0.01557 0.68843 0.0
C234 C 0.88561 0.0189 0.69925 0.0
C235 C 0.22127 0.99517 0.72017 0.0
O236 O 0.3185 0.02663 0.69598 0.0
O237 O 0.39802 0.02843 0.67328 0.0
C238 C 0.09528 1.00267 0.65301 0.0
O239 O 0.97502 0.03502 0.69511 0.0
O240 O 0.89337 0.98987 0.70073 0.0
O241 O 0.13572 0.97647 0.72006 0.0
O242 O 0.24838 0.01032 0.70826 0.0
O243 O 0.15734 0.02562 0.64929 0.0
O244 O 0.09363 0.99369 0.6668 0.0
O245 O 0.05165 0.0605 0.68849 0.0
O246 O 0.19857 0.08112 0.67577 0.0
C247 C 0.10955 0.08446 0.68411 0.0
O248 O 0.16464 0.97137 0.67575 0.0
O249 O 0.09334 0.93289 0.68924 0.0
C250 C 0.40916 0.0296 0.68742 0.0
C251 C 0.15315 0.94206 0.67815 0.0
Zn252 Zn 0.77289 0.93248 0.43681 0.0
Zn253 Zn 0.56913 0.0277 0.4498 0.0
Zn254 Zn 0.67418 0.9789 0.44563 0.0
C255 C 0.39232 0.98966 0.45052 0.0
C256 C 0.68612 0.00808 0.47645 0.0
O257 O 0.83211 0.97307 0.46021 0.0
O258 O 0.91854 0.93472 0.44814 0.0
C259 C 0.7742 0.96897 0.41187 0.0
O260 O 0.4825 0.97131 0.45106 0.0
O261 O 0.40549 0.01721 0.44616 0.0
O262 O 0.60621 0.026 0.47172 0.0
O263 O 0.74171 0.99044 0.46724 0.0
O264 O 0.78887 0.94079 0.41508 0.0
O265 O 0.73522 0.98764 0.42205 0.0
O266 O 0.53969 0.94064 0.44756 0.0
O267 O 0.66393 0.90185 0.44419 0.0
C268 C 0.56342 0.91142 0.448 0.0
O269 O 0.73052 0.01624 0.42968 0.0
O270 O 0.64781 0.05926 0.4379 0.0
C271 C 0.92212 0.95524 0.45816 0.0
C272 C 0.72356 0.04612 0.42976 0.0
Zn273 Zn 0.62352 0.69759 0.4508 0.0
Zn274 Zn 0.41572 0.76109 0.42151 0.0
Zn275 Zn 0.53099 0.73006 0.43623 0.0
C276 C 0.40343 0.79208 0.447 0.0
C277 C 0.62444 0.7673 0.4082 0.0
O278 O 0.43728 0.68363 0.43501 0.0
O279 O 0.599 0.6582 0.44049 0.0
C280 C 0.56172 0.73312 0.47217 0.0
O281 O 0.49186 0.77364 0.44918 0.0
O282 O 0.331 0.7857 0.43669 0.0
O283 O 0.53524 0.78411 0.41028 0.0
O284 O 0.63925 0.74287 0.41628 0.0
O285 O 0.56047 0.70403 0.47101 0.0
O286 O 0.55734 0.74954 0.45999 0.0
O287 O 0.70891 0.72175 0.42609 0.0
O288 O 0.78496 0.7115 0.44826 0.0
C289 C 0.79949 0.71539 0.43435 0.0
O290 O 0.35742 0.70879 0.42978 0.0
O291 O 0.31141 0.73486 0.40932 0.0
C292 C 0.49587 0.65799 0.43524 0.0
C293 C 0.28488 0.71444 0.41882 0.0
Zn294 Zn 0.96114 0.82713 0.33048 0.0
Zn295 Zn 0.79958 0.73246 0.31103 0.0
Zn296 Zn 0.89282 0.77913 0.31779 0.0
C297 C 0.62664 0.75569 0.32466 0.0
C298 C 0.88298 0.75968 0.28467 0.0
O299 O 0.07219 0.77031 0.32553 0.0
O300 O 0.12869 0.81753 0.33165 0.0
C301 C 0.8125 0.8012 0.35087 0.0
O302 O 0.7183 0.77152 0.32859 0.0
O303 O 0.633 0.73654 0.31404 0.0
O304 O 0.85776 0.73362 0.29018 0.0
O305 O 0.88265 0.78392 0.29318 0.0
O306 O 0.88255 0.82382 0.35018 0.0
O307 O 0.79374 0.78445 0.33909 0.0
O308 O 0.86889 0.8167 0.30012 0.0
O309 O 0.90751 0.85625 0.31513 0.0
C310 C 0.8746 0.84625 0.30246 0.0
O311 O 0.01738 0.73987 0.31984 0.0
O312 O 0.88073 0.70574 0.32575 0.0
C313 C 0.15198 0.78919 0.33019 0.0
C314 C -0.01175 0.71269 0.32459 0.0
Zn315 Zn 0.57927 0.97119 0.33052 0.0
Zn316 Zn 0.72842 0.06507 0.30966 0.0
Zn317 Zn 0.66233 0.01975 0.31941 0.0
C318 C 0.91741 0.04153 0.32248 0.0
C319 C 0.66746 0.03494 0.2849 0.0
O320 O 0.48362 0.02932 0.32616 0.0
O321 O 0.41741 0.98413 0.33438 0.0
C322 C 0.75555 0.98929 0.35015 0.0
O323 O 0.83347 0.02849 0.32984 0.0
O324 O 0.89393 0.05665 0.31078 0.0
O325 O 0.66425 0.06276 0.28918 0.0
O326 O 0.68077 0.01313 0.29473 0.0
O327 O 0.67963 0.96829 0.34836 0.0
O328 O 0.76926 0.01041 0.34006 0.0
O329 O 0.68238 0.98168 0.30165 0.0
O330 O 0.6068 0.94215 0.31409 0.0
C331 C 0.65729 0.95244 0.3025 0.0
O332 O 0.53469 0.05983 0.32409 0.0
O333 O 0.67154 0.09578 0.3241 0.0
C334 C 0.4003 0.01224 0.33142 0.0
C335 C 0.56765 0.0878 0.32727 0.0
Zn336 Zn 0.4164 0.51959 0.60171 0.0
Zn337 Zn 0.64341 0.46129 0.57785 0.0
Zn338 Zn 0.5302 0.51137 0.57809 0.0
C339 C 0.79641 0.50829 0.57345 0.0
C340 C 0.61937 0.4798 0.54844 0.0
O341 O 0.36021 0.52912 0.57213 0.0
O342 O 0.2675 0.50662 0.59108 0.0
C343 C 0.62359 0.50259 0.6114 0.0
O344 O 0.70039 0.51965 0.5682 0.0
O345 O 0.79454 0.4841 0.58152 0.0
O346 O 0.61492 0.45404 0.55523 0.0
O347 O 0.60887 0.50482 0.55609 0.0
O348 O 0.52119 0.49445 0.6155 0.0
O349 O 0.63723 0.51385 0.59825 0.0
O350 O 0.4462 0.55735 0.57715 0.0
O351 O 0.43137 0.5669 0.60133 0.0
C352 C 0.42799 0.57666 0.58789 0.0
O353 O 0.42913 0.46897 0.581 0.0
O354 O 0.54786 0.4373 0.5929 0.0
C355 C 0.26509 0.51914 0.57817 0.0
C356 C 0.44494 0.4439 0.58835 0.0
Zn357 Zn 0.64731 0.73605 0.58539 0.0
Zn358 Zn 0.44839 0.81123 0.55117 0.0
Zn359 Zn 0.53222 0.76584 0.56677 0.0
C360 C 0.27164 0.76447 0.55411 0.0
C361 C 0.60575 0.78203 0.53225 0.0
O362 O 0.70368 0.75308 0.55589 0.0
O363 O 0.78381 0.72425 0.57364 0.0
C364 C 0.60417 0.78255 0.60273 0.0
O365 O 0.35388 0.74918 0.56088 0.0
O366 O 0.29025 0.79196 0.54991 0.0
O367 O 0.54249 0.80606 0.53259 0.0
O368 O 0.62047 0.76583 0.54434 0.0
O369 O 0.67658 0.76053 0.60357 0.0
O370 O 0.5485 0.78755 0.5902 0.0
O371 O 0.41709 0.72504 0.57011 0.0
O372 O 0.52789 0.70401 0.58784 0.0
C373 C 0.43712 0.70322 0.57962 0.0
O374 O 0.5436 0.81121 0.57869 0.0
O375 O 0.4726 0.8479 0.56399 0.0
C376 C 0.79028 0.73643 0.56081 0.0
C377 C 0.52156 0.84003 0.57615 0.0
Zn378 Zn 0.4313 0.74779 0.68647 0.0
Zn379 Zn 0.61634 0.84414 0.70946 0.0
Zn380 Zn 0.53748 0.79218 0.6991 0.0
C381 C 0.80341 0.80261 0.70884 0.0
C382 C 0.48059 0.8171 0.73223 0.0
O383 O 0.37132 0.78371 0.71141 0.0
O384 O 0.27994 0.75071 0.69635 0.0
C385 C 0.48042 0.78673 0.66306 0.0
O386 O 0.72041 0.78312 0.7059 0.0
O387 O 0.78272 0.83133 0.70856 0.0
O388 O 0.55056 0.83939 0.73005 0.0
O389 O 0.45116 0.79938 0.72114 0.0
O390 O 0.44192 0.75959 0.66485 0.0
O391 O 0.51185 0.80288 0.67462 0.0
O392 O 0.66601 0.75384 0.69932 0.0
O393 O 0.53829 0.71637 0.69448 0.0
C394 C 0.64035 0.72487 0.69837 0.0
O395 O 0.50142 0.8299 0.68297 0.0
O396 O 0.54685 0.87329 0.69474 0.0
C397 C 0.27887 0.76791 0.70778 0.0
C398 C 0.50145 0.85968 0.68358 0.0
Zn399 Zn 0.87041 0.50428 0.70917 0.0
Zn400 Zn 0.06181 0.57728 0.67331 0.0
Zn401 Zn 0.97011 0.54458 0.69359 0.0
C402 C 0.90569 0.61517 0.6891 0.0
C403 C 0.95754 0.53276 0.65714 0.0
O404 O 0.95124 0.49875 0.68135 0.0
O405 O 0.85198 0.46774 0.6965 0.0
C406 C 0.07497 0.52002 0.72466 0.0
O407 O 0.87254 0.5888 0.69441 0.0
O408 O -0.01009 0.61641 0.67986 0.0
O409 O 0.00617 0.55837 0.65438 0.0
O410 O 0.94959 0.5233 0.67087 0.0
O411 O -0.01166 0.50173 0.72503 0.0
O412 O 0.08886 0.53823 0.71331 0.0
O413 O 0.8006 0.56486 0.70075 0.0
O414 O 0.72696 0.52659 0.71424 0.0
C415 C 0.71618 0.55322 0.70866 0.0
O416 O 0.15031 0.55578 0.7014 0.0
O417 O 0.22477 0.57305 0.68001 0.0
C418 C 0.90493 0.47203 0.68425 0.0
C419 C 0.23809 0.56628 0.69372 0.0
Zn420 Zn 0.57071 0.42621 0.43921 0.0
Zn421 Zn 0.37802 0.50471 0.47072 0.0
Zn422 Zn 0.46434 0.46574 0.45484 0.0
C423 C 0.21386 0.45975 0.47217 0.0
C424 C 0.5736 0.49288 0.48592 0.0
O425 O 0.64192 0.45449 0.46509 0.0
O426 O 0.72149 0.42116 0.44928 0.0
C427 C 0.53873 0.47575 0.41984 0.0
O428 O 0.28437 0.44887 0.462 0.0
O429 O 0.2436 0.48337 0.47953 0.0
O430 O 0.50317 0.51535 0.485 0.0
O431 O 0.57234 0.47175 0.47567 0.0
O432 O 0.57586 0.44823 0.41986 0.0
O433 O 0.49329 0.48721 0.43197 0.0
O434 O 0.34736 0.4235 0.45446 0.0
O435 O 0.46504 0.39127 0.44225 0.0
C436 C 0.37157 0.39608 0.44954 0.0
O437 O 0.44281 0.51058 0.4416 0.0
O438 O 0.32944 0.53722 0.45699 0.0
C439 C 0.72935 0.43711 0.46107 0.0
C440 C 0.38186 0.53521 0.44458 0.0
Zn441 Zn 0.244 0.16358 0.45604 0.0
Zn442 Zn 0.08884 0.23793 0.42111 0.0
Zn443 Zn 0.18772 0.20541 0.43827 0.0
C444 C 0.17501 0.27797 0.44226 0.0
C445 C 0.26111 0.21153 0.40454 0.0
O446 O 0.06553 0.16394 0.43601 0.0
O447 O 0.14806 0.12775 0.44997 0.0
C448 C 0.22986 0.21548 0.47389 0.0
O449 O 0.1885 0.25208 0.44934 0.0
O450 O 0.14403 0.27771 0.42864 0.0
O451 O 0.1566 0.22074 0.40275 0.0
O452 O 0.30211 0.20775 0.41795 0.0
O453 O 0.22708 0.18637 0.47523 0.0
O454 O 0.21849 0.22784 0.46072 0.0
O455 O 0.35769 0.19021 0.42997 0.0
O456 O 0.40702 0.16047 0.44915 0.0
C457 C 0.43393 0.17341 0.43694 0.0
O458 O 0.00269 0.19105 0.43368 0.0
O459 O 0.92142 0.23192 0.42282 0.0
C460 C 0.07343 0.13525 0.44008 0.0
C461 C 0.91123 0.20544 0.42849 0.0
Zn462 Zn 0.42166 0.3062 0.33238 0.0
Zn463 Zn 0.2309 0.22851 0.30022 0.0
Zn464 Zn 0.33605 0.26986 0.31386 0.0
C465 C 0.06876 0.27444 0.30116 0.0
C466 C 0.4104 0.24946 0.28159 0.0
O467 O 0.50732 0.28311 0.30383 0.0
O468 O 0.57263 0.31252 0.32232 0.0
C469 C 0.40014 0.256 0.34941 0.0
O470 O 0.15604 0.28779 0.30796 0.0
O471 O 0.07834 0.24683 0.29688 0.0
O472 O 0.32857 0.22978 0.28231 0.0
O473 O 0.43561 0.26627 0.29309 0.0
O474 O 0.4306 0.28376 0.35126 0.0
O475 O 0.36367 0.24685 0.33635 0.0
O476 O 0.22746 0.31352 0.31348 0.0
O477 O 0.31875 0.34177 0.33066 0.0
C478 C 0.24294 0.33956 0.32034 0.0
O479 O 0.33926 0.22303 0.32575 0.0
O480 O 0.23545 0.19071 0.31176 0.0
C481 C 0.58891 0.30015 0.30966 0.0
C482 C 0.30017 0.19536 0.32306 0.0
Zn483 Zn 0.23464 0.50335 0.34708 0.0
Zn484 Zn 0.42815 0.56421 0.31035 0.0
Zn485 Zn 0.33861 0.53172 0.32884 0.0
C486 C 0.59849 0.56093 0.33199 0.0
C487 C 0.40272 0.51228 0.29416 0.0
O488 O 0.16258 0.55333 0.33455 0.0
O489 O 0.11273 0.52973 0.35555 0.0
C490 C 0.44003 0.50893 0.36105 0.0
O491 O 0.5192 0.54343 0.33809 0.0
O492 O 0.57695 0.57364 0.31959 0.0
O493 O 0.4433 0.53916 0.29264 0.0
O494 O 0.35688 0.50418 0.30692 0.0
O495 O 0.35287 0.49095 0.36154 0.0
O496 O 0.45314 0.52725 0.34969 0.0
O497 O 0.29527 0.48541 0.31803 0.0
O498 O 0.16708 0.47017 0.33504 0.0
C499 C 0.2179 0.46554 0.32268 0.0
O500 O 0.23714 0.57639 0.32682 0.0
O501 O 0.33186 0.6005 0.30865 0.0
C502 C 0.08835 0.549 0.34543 0.0
C503 C 0.25286 0.60063 0.31856 0.0
Zn504 Zn 0.69299 0.94987 0.05635 0.0
Zn505 Zn 0.4977 0.04499 0.07076 0.0
Zn506 Zn 0.60035 0.9979 0.06439 0.0
C507 C 0.71753 0.06635 0.06588 0.0
C508 C 0.48146 1.00634 0.096 0.0
O509 O 0.55233 0.95775 0.08016 0.0
O510 O 0.61647 0.91701 0.06764 0.0
C511 C 0.59254 0.97762 0.0311 0.0
O512 O 0.73699 0.03683 0.06561 0.0
O513 O 0.61392 0.07636 0.06728 0.0
O514 O 0.4618 0.03373 0.09177 0.0
O515 O 0.5322 0.98724 0.08695 0.0
O516 O 0.66252 0.95607 0.03458 0.0
O517 O 0.53911 0.99284 0.0415 0.0
O518 O 0.79042 1.00692 0.05981 0.0
O519 O 0.85793 0.95908 0.06078 0.0
C520 C 0.87709 0.98758 0.05898 0.0
O521 O 0.43873 1.00455 0.04997 0.0
O522 O 0.35982 0.04797 0.05822 0.0
C523 C 0.56004 0.92797 0.07862 0.0
C524 C 0.35165 0.02396 0.05032 0.0
Zn525 Zn 0.96984 0.23921 0.08583 0.0
Zn526 Zn 0.81161 0.30721 0.05007 0.0
Zn527 Zn 0.82156 0.25721 0.06228 0.0
C528 C 0.583 0.28764 0.05514 0.0
C529 C 0.75316 0.27076 0.02751 0.0
O530 O -0.00387 0.27022 0.05429 0.0
O531 O 0.09472 0.26461 0.07572 0.0
C532 C 0.7695 0.26826 0.09837 0.0
O533 O 0.64361 0.26282 0.05318 0.0
O534 O 0.63818 0.31279 0.05721 0.0
O535 O 0.81959 0.29433 0.02824 0.0
O536 O 0.73085 0.25568 0.0397 0.0
O537 O 0.86424 0.25479 0.1021 0.0
O538 O 0.74626 0.2732 0.08435 0.0
O539 O 0.8483 0.20701 0.06471 0.0
O540 O 0.97265 0.19344 0.08251 0.0
C541 C 0.90452 0.18586 0.07188 0.0
O542 O 0.85753 0.29857 0.07698 0.0
O543 O 0.93481 0.33161 0.06106 0.0
C544 C 0.09123 0.27279 0.06204 0.0
C545 C 0.91187 0.32414 0.07449 0.0
Zn546 Zn 0.48998 0.21905 0.1741 0.0
Zn547 Zn 0.67867 0.30664 0.19972 0.0
Zn548 Zn 0.5837 0.25922 0.18951 0.0
C549 C 0.85158 0.26358 0.20034 0.0
C550 C 0.52152 0.284 0.2212 0.0
O551 O 0.41519 0.24868 0.2006 0.0
O552 O 0.33273 0.22134 0.18242 0.0
C553 C 0.54777 0.261 0.15317 0.0
O554 O 0.76381 0.24614 0.19659 0.0
O555 O 0.84008 0.29257 0.20057 0.0
O556 O 0.60257 0.3037 0.21953 0.0
O557 O 0.4888 0.26698 0.21009 0.0
O558 O 0.51383 0.23322 0.15338 0.0
O559 O 0.57021 0.27512 0.16565 0.0
O560 O 0.69985 0.21718 0.19262 0.0
O561 O 0.57637 0.18384 0.18221 0.0
C562 C 0.66662 0.18901 0.19011 0.0
O563 O 0.55239 0.30197 0.17493 0.0
O564 O 0.6354 0.34117 0.18685 0.0
C565 C 0.32589 0.23399 0.19515 0.0
C566 C 0.57021 0.33148 0.17636 0.0
Zn567 Zn 0.76515 0.02213 0.16931 0.0
Zn568 Zn 0.56542 0.96167 0.20549 0.0
Zn569 Zn 0.66504 0.99421 0.18917 0.0
C570 C 0.41138 0.95661 0.18486 0.0
C571 C 0.5779 0.01225 0.22182 0.0
O572 O 0.84213 0.97264 0.18363 0.0
O573 O 0.90588 0.99892 0.16404 0.0
C574 C 0.55835 1.00699 0.15631 0.0
O575 O 0.4807 0.97918 0.181 0.0
O576 O 0.44305 0.93856 0.19518 0.0
O577 O 0.50088 0.99184 0.21946 0.0
O578 O 0.65213 0.01871 0.21129 0.0
O579 O 0.64669 0.02371 0.15361 0.0
O580 O 0.54671 0.9939 0.16923 0.0
O581 O 0.69425 0.04215 0.199 0.0
O582 O 0.79804 0.06024 0.18002 0.0
C583 C 0.75398 0.0643 0.19286 0.0
O584 O 0.77334 0.95286 0.19314 0.0
O585 O 0.68868 0.93523 0.21373 0.0
C586 C 0.92241 0.97796 0.17362 0.0
C587 C 0.76804 0.93303 0.20392 0.0
Zn588 Zn 0.45854 0.05081 0.95214 0.0
Zn589 Zn 0.65688 0.97347 0.91996 0.0
Zn590 Zn 0.55427 1.00625 0.93879 0.0
C591 C 0.47644 0.93767 0.93179 0.0
C592 C 0.60713 0.02007 0.9026 0.0
O593 O 0.54967 0.05146 0.92593 0.0
O594 O 0.45596 0.0871 0.93907 0.0
C595 C 0.6273 0.02769 0.97152 0.0
O596 O 0.44936 0.96332 0.93834 0.0
O597 O 0.56049 0.93682 0.92254 0.0
O598 O 0.65845 0.99458 0.90061 0.0
O599 O 0.56805 0.02731 0.91578 0.0
O600 O 0.55975 0.05069 0.96997 0.0
O601 O 0.64837 0.00994 0.9602 0.0
O602 O 0.37824 0.98824 0.94512 0.0
O603 O 0.30783 0.03046 0.95585 0.0
C604 C 0.29436 1.00262 0.95201 0.0
O605 O 0.72763 0.99468 0.94931 0.0
O606 O 0.8056 0.96953 0.93016 0.0
C607 C 0.5113 0.07949 0.92738 0.0
C608 C 0.81458 0.97981 0.94335 0.0
Zn609 Zn 0.24767 0.70758 0.95644 0.0
Zn610 Zn 0.07108 0.79425 0.93173 0.0
Zn611 Zn 0.17184 0.75434 0.94403 0.0
C612 C 0.2533 0.82278 0.94455 0.0
C613 C 0.14276 0.75821 0.90875 0.0
O614 O 0.16025 0.7128 0.92837 0.0
O615 O 0.23048 0.67421 0.94198 0.0
C616 C 0.10172 0.73223 0.97727 0.0
O617 O 0.29099 0.79473 0.94349 0.0
O618 O 0.14536 0.82844 0.94266 0.0
O619 O 0.11602 0.78626 0.91066 0.0
O620 O 0.15202 0.74027 0.92029 0.0
O621 O 0.15913 0.70757 0.9753 0.0
O622 O 0.08268 0.75043 0.96601 0.0
O623 O 0.35095 0.76756 0.95083 0.0
O624 O 0.40802 0.72253 0.95994 0.0
C625 C 0.43002 0.75049 0.95712 0.0
O626 O 0.00087 0.76419 0.95553 0.0
O627 O 0.90958 0.78878 0.93711 0.0
C628 C 0.18741 0.68387 0.92978 0.0
C629 C 0.90708 0.77684 0.95001 0.0
Zn630 Zn 0.46805 0.7005 0.80464 0.0
Zn631 Zn 0.63466 0.76851 0.84594 0.0
Zn632 Zn 0.53428 0.73997 0.82386 0.0
C633 C 0.60898 0.81112 0.82143 0.0
C634 C 0.41911 0.7492 0.85671 0.0
O635 O 0.64863 0.69682 0.82362 0.0
O636 O 0.57354 0.66494 0.80678 0.0
C637 C 0.48661 0.75677 0.78933 0.0
O638 O 0.56443 0.78767 0.81438 0.0
O639 O 0.63986 0.80835 0.83503 0.0
O640 O 0.51441 0.76094 0.86131 0.0
O641 O 0.40662 0.74115 0.84283 0.0
O642 O 0.47344 0.7281 0.78719 0.0
O643 O 0.51259 0.76702 0.80257 0.0
O644 O 0.35518 0.72432 0.83063 0.0
O645 O 0.30828 0.69303 0.81187 0.0
C646 C 0.28048 0.70639 0.82393 0.0
O647 O 0.71414 0.72267 0.82938 0.0
O648 O 0.78872 0.74902 0.84854 0.0
C649 C 0.64689 0.66999 0.81717 0.0
C650 C 0.80068 0.72895 0.83841 0.0
Zn651 Zn 0.56623 0.05406 0.79756 0.0
Zn652 Zn 0.3727 0.97305 0.82938 0.0
Zn653 Zn 0.47004 0.00773 0.8107 0.0
C654 C 0.5498 0.93774 0.81596 0.0
C655 C 0.43745 0.02036 0.84674 0.0
O656 O 0.4563 0.05404 0.82296 0.0
O657 O 0.54007 0.09136 0.80981 0.0
C658 C 0.39174 0.02895 0.77863 0.0
O659 O 0.57916 0.96411 0.81022 0.0
O660 O 0.4641 0.93597 0.82493 0.0
O661 O 0.39143 0.99415 0.84874 0.0
O662 O 0.46646 0.02919 0.83341 0.0
O663 O 0.47287 0.04894 0.77907 0.0
O664 O 0.36779 0.01258 0.79031 0.0
O665 O 0.64528 0.99086 0.80399 0.0
O666 O 0.72166 0.0352 0.79623 0.0
C667 C 0.73229 1.00656 0.79859 0.0
O668 O 0.29681 0.9953 0.80091 0.0
O669 O 0.21715 0.97142 0.82037 0.0
C670 C 0.47978 0.08314 0.82102 0.0
C671 C 0.20877 0.98133 0.80709 0.0
C672 C 0.80743 0.39472 0.09343 0.0
C673 C 0.91047 0.4128 0.09232 0.0
H674 H 0.72847 0.35053 0.08909 0.0
C675 C 0.01963 0.39753 0.09108 0.0
H676 H 0.72196 0.40587 0.0943 0.0
C677 C 0.02301 0.36596 0.08749 0.0
C678 C 0.91769 0.34908 0.08584 0.0
H679 H 0.10055 0.4108 0.09013 0.0
H680 H 0.10641 0.35586 0.08417 0.0
C681 C 0.81117 0.36293 0.09033 0.0
C682 C 0.36783 0.91271 0.09028 0.0
C683 C 0.48657 0.90576 0.08732 0.0
H684 H 0.19171 0.89477 0.09171 0.0
C685 C 0.5231 0.87458 0.08824 0.0
H686 H 0.33662 0.93636 0.08962 0.0
C687 C 0.44003 0.85063 0.08959 0.0
C688 C 0.31899 0.85751 0.08988 0.0
H689 H 0.61438 0.86847 0.08608 0.0
H690 H 0.46952 0.82694 0.08823 0.0
C691 C 0.28464 0.88874 0.09148 0.0
C692 C 0.87072 0.89077 0.19022 0.0
C693 C 0.84041 0.90505 0.20386 0.0
H694 H 0.9473 0.85088 0.17968 0.0
C695 C 0.86452 0.89007 0.2175 0.0
H696 H 0.85091 0.90177 0.17957 0.0
C697 C 0.91806 0.86119 0.21755 0.0
C698 C 0.94626 0.84662 0.20395 0.0
H699 H 0.84082 0.90059 0.22814 0.0
H700 H 0.9374 0.85017 0.22822 0.0
C701 C 0.92321 0.86157 0.19026 0.0
C702 C 0.28697 0.37235 0.17374 0.0
C703 C 0.32784 0.40285 0.17572 0.0
H704 H 0.3348 0.32473 0.17125 0.0
C705 C 0.44493 0.40969 0.17173 0.0
H706 H 0.19674 0.36643 0.17661 0.0
C707 C 0.52482 0.38561 0.16882 0.0
C708 C 0.4881 0.3545 0.16972 0.0
H709 H 0.47909 0.43294 0.17309 0.0
H710 H 0.61806 0.39111 0.1681 0.0
C711 C 0.36638 0.34835 0.17054 0.0
C712 C 0.97906 0.62714 0.91579 0.0
C713 C 0.05127 0.60102 0.91811 0.0
H714 H 0.96997 0.67652 0.91729 0.0
C715 C 0.1738 0.60445 0.91654 0.0
H716 H 0.88389 0.62501 0.91665 0.0
C717 C 0.22334 0.6341 0.91707 0.0
C718 C 0.15 0.66014 0.91885 0.0
H719 H 0.23167 0.5847 0.91801 0.0
H720 H 0.31785 0.63616 0.91879 0.0
C721 C 0.02856 0.65682 0.91619 0.0
C722 C 0.54096 0.16018 0.91468 0.0
C723 C 0.66452 0.16217 0.91565 0.0
H724 H 0.39144 0.13054 0.91778 0.0
C725 C 0.73173 0.13504 0.91404 0.0
H726 H 0.48703 0.18078 0.91574 0.0
C727 C 0.67661 0.10614 0.91483 0.0
C728 C 0.55469 0.10448 0.91758 0.0
H729 H 0.82733 0.13606 0.91458 0.0
H730 H 0.73154 0.08572 0.91587 0.0
C731 C 0.486 0.13134 0.91592 0.0
C732 C 0.21042 0.12559 0.83285 0.0
C733 C 0.24675 0.1563 0.83034 0.0
H734 H 0.25895 0.0778 0.83265 0.0
C735 C 0.36819 0.16268 0.83009 0.0
H736 H 0.11716 0.11999 0.83337 0.0
C737 C 0.44988 0.1383 0.82902 0.0
C738 C 0.41094 0.10731 0.82902 0.0
H739 H 0.39898 0.18616 0.82893 0.0
H740 H 0.54149 0.14371 0.82668 0.0
C741 C 0.29207 0.10131 0.83244 0.0
C742 C 0.73454 0.61764 0.81285 0.0
C743 C 0.72843 0.64461 0.82168 0.0
H744 H 0.82304 0.57482 0.80866 0.0
C745 C 0.79861 0.64631 0.83474 0.0
H746 H 0.6799 0.61495 0.80293 0.0
C747 C 0.88348 0.62348 0.8378 0.0
C748 C 0.8933 0.59753 0.82842 0.0
H749 H 0.79004 0.6655 0.84242 0.0
H750 H 0.94392 0.62661 0.84714 0.0
C751 C 0.81531 0.59432 0.81626 0.0
C752 C 0.76828 0.88656 0.59178 0.0
C753 C 0.72305 0.91644 0.58935 0.0
H754 H 0.73597 0.83796 0.58997 0.0
C755 C 0.60029 0.92017 0.58775 0.0
H756 H 0.86251 0.88306 0.59314 0.0
C757 C 0.52815 0.89429 0.58551 0.0
C758 C 0.57748 0.86447 0.58535 0.0
H759 H 0.5626 0.9429 0.58592 0.0
H760 H 0.43704 0.89782 0.58216 0.0
C761 C 0.69547 0.86067 0.58994 0.0
C762 C 0.17069 0.40061 0.57704 0.0
C763 C 0.20407 0.37004 0.58036 0.0
H764 H 0.22013 0.44827 0.57726 0.0
C765 C 0.30364 0.365 0.5895 0.0
H766 H 0.09341 0.40529 0.57019 0.0
C767 C 0.37686 0.38975 0.59352 0.0
C768 C 0.3515 0.41988 0.58847 0.0
H769 H 0.33189 0.34176 0.59227 0.0
H770 H 0.45845 0.3848 0.59944 0.0
C771 C 0.24361 0.42531 0.58108 0.0
C772 C 0.87119 0.39069 0.67283 0.0
C773 C -0.01056 0.38166 0.67458 0.0
H774 H 0.74948 0.42849 0.6744 0.0
C775 C 0.0785 0.4042 0.6735 0.0
H776 H 0.80097 0.37374 0.67369 0.0
C777 C 0.04901 0.43563 0.67352 0.0
C778 C 0.93048 0.44453 0.67505 0.0
H779 H 0.17041 0.39772 0.67486 0.0
H780 H 0.11912 0.45249 0.67488 0.0
C781 C 0.84164 0.4221 0.67328 0.0
C782 C 0.30323 0.86698 0.67261 0.0
C783 C 0.42033 0.87749 0.67395 0.0
H784 H 0.12095 0.88028 0.6728 0.0
C785 C 0.44556 0.90859 0.67083 0.0
H786 H 0.28145 0.84303 0.6749 0.0
C787 C 0.35343 0.9298 0.66905 0.0
C788 C 0.23576 0.92015 0.67103 0.0
H789 H 0.53532 0.91715 0.67169 0.0
H790 H 0.37538 0.95418 0.66861 0.0
C791 C 0.21094 0.88834 0.67141 0.0
C792 C 0.81595 0.09501 0.42067 0.0
C793 C 0.82866 0.06476 0.42621 0.0
H794 H 0.89072 0.1404 0.41934 0.0
C795 C 0.93382 0.05674 0.43361 0.0
H796 H 0.73585 0.10179 0.41484 0.0
C797 C 0.01523 0.07957 0.43761 0.0
C798 C -0.00401 0.1107 0.43364 0.0
H799 H 0.94616 0.03359 0.438 0.0
H800 H 0.09002 0.07298 0.44452 0.0
C801 C 0.90183 0.11748 0.42385 0.0
C802 C 0.5255 0.60373 0.42688 0.0
C803 C 0.44641 0.62722 0.43139 0.0
H804 H 0.56666 0.55536 0.42738 0.0
C805 C 0.33243 0.61877 0.43586 0.0
H806 H 0.6139 0.60959 0.42318 0.0
C807 C 0.30453 0.58748 0.43794 0.0
C808 C 0.39071 0.56426 0.43578 0.0
H809 H 0.26988 0.6361 0.43944 0.0
H810 H 0.22007 0.58177 0.44295 0.0
C811 C 0.49829 0.57251 0.42915 0.0
C812 C 0.12003 0.63521 0.33385 0.0
C813 C 0.18798 0.62991 0.32092 0.0
H814 H 0.00263 0.66634 0.34524 0.0
C815 C 0.2021 0.6541 0.31044 0.0
H816 H 0.1115 0.61762 0.34242 0.0
C817 C 0.14542 0.68234 0.31246 0.0
C818 C 0.07211 0.68692 0.32488 0.0
H819 H 0.25554 0.65113 0.30046 0.0
H820 H 0.15341 0.69993 0.30384 0.0
C821 C 0.06046 0.66332 0.33566 0.0
C822 C 0.53341 0.14136 0.33696 0.0
C823 C 0.48585 0.11288 0.33205 0.0
H824 H 0.51014 0.19045 0.33828 0.0
C825 C 0.36511 0.11152 0.32878 0.0
H826 H 0.62597 0.14321 0.33996 0.0
C827 C 0.29785 0.13862 0.32806 0.0
C828 C 0.35093 0.16768 0.3305 0.0
H829 H 0.32558 0.09028 0.32519 0.0
H830 H 0.20787 0.13707 0.32394 0.0
C831 C 0.46663 0.16857 0.33615 0.0
C832 C 0.23345 0.50006 0.12424 0.0
C833 C 0.12105 0.48661 0.12306 0.0
H834 H 0.37315 0.51405 0.13909 0.0
C835 C 0.07502 0.47073 0.13557 0.0
H836 H 0.27013 0.51284 0.11486 0.0
C837 C 0.13479 0.47092 0.1494 0.0
C838 C 0.23999 0.48781 0.15108 0.0
H839 H -0.0122 0.46045 0.13499 0.0
H840 H 0.09225 0.46068 0.1591 0.0
C841 C 0.29188 0.50093 0.13817 0.0
C842 C 0.25934 0.7787 0.12471 0.0
C843 C 0.30139 0.75388 0.11604 0.0
H844 H 0.20399 0.79334 0.14665 0.0
C845 C 0.35004 0.72804 0.12344 0.0
H846 H 0.2225 0.79902 0.11934 0.0
C847 C 0.33934 0.72483 0.13897 0.0
C848 C 0.28195 0.74764 0.14738 0.0
H849 H 0.38592 0.70881 0.1171 0.0
H850 H 0.36374 0.70303 0.14413 0.0
C851 C 0.25012 0.77559 0.14036 0.0
C852 C -0.01209 0.47195 0.87249 0.0
C853 C 0.01262 0.49896 0.86438 0.0
H854 H 0.97288 0.45027 0.89384 0.0
C855 C 0.03523 0.52649 0.8724 0.0
H856 H 0.96898 0.45042 0.86673 0.0
C857 C 0.03897 0.52643 0.88827 0.0
C858 C 0.01936 0.49885 0.8963 0.0
H859 H 0.05479 0.54771 0.86643 0.0
H860 H 0.06095 0.54757 0.89418 0.0
C861 C -0.00944 0.47193 0.88814 0.0
C862 C 0.89795 0.21432 0.87527 0.0
C863 C 0.86782 0.22608 0.861 0.0
H864 H 0.85386 0.21198 0.89862 0.0
C865 C 0.75431 0.23851 0.85888 0.0
H866 H -0.01573 0.20423 0.87722 0.0
C867 C 0.67966 0.24318 0.87122 0.0
C868 C 0.71657 0.2351 0.88585 0.0
H869 H 0.72785 0.24758 0.84802 0.0
H870 H 0.59761 0.2556 0.86949 0.0
C871 C 0.8227 0.21862 0.88757 0.0
C872 C 0.96326 0.98258 0.61599 0.0
C873 C 0.8465 0.99238 0.61857 0.0
H874 H 0.13767 0.97879 0.62527 0.0
C875 C 0.80791 0.99689 0.63339 0.0
H876 H -0.00462 0.9791 0.60464 0.0
C877 C 0.88874 0.99541 0.64525 0.0
C878 C 0.00909 0.99053 0.64227 0.0
H879 H 0.71845 1.00453 0.63562 0.0
H880 H 0.85979 1.00199 0.65641 0.0
C881 C 0.04498 0.98243 0.62775 0.0
C882 C 0.19771 0.30754 0.62753 0.0
C883 C 0.13387 0.30471 0.61399 0.0
H884 H 0.18965 0.30803 0.65164 0.0
C885 C 0.01056 0.30812 0.61437 0.0
H886 H 0.29293 0.30491 0.62756 0.0
C887 C 0.95136 0.30913 0.6282 0.0
C888 C 0.01478 0.30774 0.64181 0.0
H889 H 0.95893 0.30577 0.60416 0.0
H890 H 0.85578 0.3076 0.62825 0.0
C891 C 0.13854 0.30945 0.64135 0.0
C892 C 0.85985 0.95919 0.38647 0.0
C893 C 0.80052 0.97939 0.39633 0.0
H894 H 0.89715 0.9475 0.36359 0.0
C895 C 0.75817 0.00767 0.39068 0.0
H896 H 0.89625 0.93752 0.39048 0.0
C897 C 0.7622 0.01373 0.37518 0.0
C898 C 0.80792 0.99153 0.36521 0.0
H899 H 0.71322 0.02389 0.39796 0.0
H900 H 0.71689 0.03397 0.37088 0.0
C901 C 0.86296 0.96515 0.37107 0.0
C902 C 0.73675 0.76102 0.36873 0.0
C903 C 0.76516 0.79207 0.36568 0.0
H904 H 0.67584 0.72829 0.38517 0.0
C905 C 0.76156 0.81373 0.37744 0.0
H906 H 0.74138 0.74368 0.35995 0.0
C907 C 0.72551 0.80485 0.39178 0.0
C908 C 0.69489 0.77401 0.39477 0.0
H909 H 0.78459 0.83772 0.37549 0.0
H910 H 0.71704 0.82235 0.40044 0.0
C911 C 0.70267 0.75201 0.38322 0.0
C912 C 0.82953 0.51784 0.61871 0.0
C913 C 0.72205 0.50344 0.62242 0.0
H914 H -0.00953 0.53785 0.62683 0.0
C915 C 0.70483 0.4933 0.63728 0.0
H916 H 0.84642 0.52563 0.60735 0.0
C917 C 0.788 0.50014 0.64845 0.0
C918 C 0.89002 0.51727 0.64499 0.0
H919 H 0.62358 0.48186 0.64051 0.0
H920 H 0.76681 0.49434 0.65997 0.0
C921 C 0.91246 0.52477 0.62988 0.0
C922 C 0.44708 0.79387 0.62121 0.0
C923 C 0.566 0.79693 0.61697 0.0
H924 H 0.32621 0.78774 0.63954 0.0
C925 C 0.6504 0.80416 0.62805 0.0
H926 H 0.38064 0.78777 0.61293 0.0
C927 C 0.61844 0.80507 0.64326 0.0
C928 C 0.50259 0.79771 0.6476 0.0
H929 H 0.74288 0.80621 0.62508 0.0
H930 H 0.68699 0.80797 0.65167 0.0
C931 C 0.41598 0.79363 0.63644 0.0
C932 C 0.59479 0.49116 0.37866 0.0
C933 C 0.5048 0.51227 0.3753 0.0
H934 H 0.67869 0.46383 0.39561 0.0
C935 C 0.44319 0.52627 0.38724 0.0
H936 H 0.64141 0.47945 0.36968 0.0
C937 C 0.45989 0.51626 0.40208 0.0
C938 C 0.54134 0.49274 0.40529 0.0
H939 H 0.37063 0.54193 0.3849 0.0
H940 H 0.40057 0.52463 0.41066 0.0
C941 C 0.61395 0.48179 0.39353 0.0
C942 C 0.4272 0.2326 0.38987 0.0
C943 C 0.33465 0.21124 0.39098 0.0
H944 H 0.52348 0.26296 0.37546 0.0
C945 C 0.28446 0.19918 0.37774 0.0
H946 H 0.46481 0.24299 0.39989 0.0
C947 C 0.31374 0.21166 0.36376 0.0
C948 C 0.39592 0.23583 0.36282 0.0
H949 H 0.21129 0.18305 0.37837 0.0
H950 H 0.26227 0.20479 0.35408 0.0
C951 C 0.45858 0.24455 0.37586 0.0
C952 C 0.53019 0.97327 0.13451 0.0
C953 C 0.48811 0.99802 0.14324 0.0
H954 H 0.5616 0.95634 0.11223 0.0
C955 C 0.41572 0.02033 0.13658 0.0
H956 H 0.58759 0.95599 0.13949 0.0
C957 C 0.39991 0.02044 0.12103 0.0
C958 C 0.45929 0.99871 0.11196 0.0
H959 H 0.38333 0.03972 0.14311 0.0
H960 H 0.35231 0.03963 0.11605 0.0
C961 C 0.51637 0.97365 0.11888 0.0
C962 C 0.74092 0.29314 0.12317 0.0
C963 C 0.69106 0.27877 0.11048 0.0
H964 H 0.73038 0.29984 0.147 0.0
C965 C 0.57698 0.2664 0.11142 0.0
H966 H 0.82913 0.30284 0.12264 0.0
C967 C 0.52159 0.26407 0.12541 0.0
C968 C 0.57898 0.27464 0.1385 0.0
H969 H 0.5373 0.25506 0.10178 0.0
H970 H 0.43965 0.25121 0.12621 0.0
C971 C 0.68435 0.29145 0.13711 0.0
C972 C 0.40131 0.04036 0.87234 0.0
C973 C 0.47786 0.03734 0.86004 0.0
H974 H 0.38602 0.03929 0.8963 0.0
C975 C 0.6001 0.04004 0.86231 0.0
H976 H 0.30663 0.03832 0.87078 0.0
C977 C 0.64566 0.03943 0.87691 0.0
C978 C 0.5688 0.03721 0.88923 0.0
H979 H 0.66059 0.03766 0.85295 0.0
H980 H 0.74005 0.03664 0.87847 0.0
C981 C 0.44692 0.04095 0.88694 0.0
C982 C 0.22885 0.7649 0.86819 0.0
C983 C 0.32547 0.74472 0.86781 0.0
H984 H 0.09067 0.78423 0.88161 0.0
C985 C 0.345 0.72438 0.87985 0.0
H986 H 0.21305 0.78085 0.85901 0.0
C987 C 0.27482 0.72602 0.89272 0.0
C988 C 0.18593 0.74856 0.89381 0.0
H989 H 0.41998 0.70879 0.87974 0.0
H990 H 0.29836 0.71185 0.9023 0.0
C991 C 0.15915 0.76675 0.88111 0.0
C992 C 0.95565 0.65106 0.06094 0.0
C993 C 0.96167 0.67522 0.07153 0.0
H994 H 0.93287 0.60252 0.05711 0.0
C995 C 0.92489 0.66926 0.08633 0.0
H996 H -0.01574 0.65489 0.04946 0.0
C997 C 0.89521 0.63896 0.09075 0.0
C998 C 0.90355 0.6142 0.08048 0.0
H999 H 0.93089 0.68718 0.09482 0.0
H1000 H 0.8747 0.63459 0.10245 0.0
C1001 C 0.92848 0.62088 0.06538 0.0
C1002 C 0.96382 0.62805 0.20175 0.0
C1003 C 0.03601 0.65214 0.20739 0.0
H1004 H 0.95219 0.57995 0.19625 0.0
C1005 C 0.13215 0.64419 0.21655 0.0
H1006 H 0.88827 0.63338 0.1947 0.0
C1007 C 0.16547 0.61301 0.21802 0.0
C1008 C 0.10406 0.58938 0.21026 0.0
H1009 H 0.18979 0.66199 0.221 0.0
H1010 H 0.24801 0.60778 0.22367 0.0
C1011 C -0.00106 0.59708 0.20286 0.0
C1012 C 0.86493 0.36055 0.95069 0.0
C1013 C 0.79484 0.35921 0.93769 0.0
H1014 H 0.96108 0.38955 0.96594 0.0
C1015 C 0.75844 0.3871 0.93088 0.0
H1016 H 0.8914 0.33961 0.95646 0.0
C1017 C 0.79483 0.41559 0.93655 0.0
C1018 C 0.86919 0.41692 0.94913 0.0
H1019 H 0.70282 0.38701 0.92095 0.0
H1020 H 0.77081 0.43642 0.9305 0.0
C1021 C 0.90211 0.38916 0.95632 0.0
C1022 C 0.22222 0.39241 0.80786 0.0
C1023 C 0.22458 0.4153 0.81915 0.0
H1024 H 0.18826 0.34507 0.80213 0.0
C1025 C 0.20645 0.40605 0.83412 0.0
H1026 H 0.23485 0.39873 0.79618 0.0
C1027 C 0.17755 0.37519 0.83752 0.0
C1028 C 0.16626 0.35283 0.82603 0.0
H1029 H 0.20575 0.42301 0.84309 0.0
H1030 H 0.15975 0.36914 0.84911 0.0
C1031 C 0.19321 0.36167 0.81123 0.0
C1032 C 0.03808 0.11805 0.58221 0.0
C1033 C 0.95322 0.11056 0.57142 0.0
H1034 H 0.14665 0.1529 0.59179 0.0
C1035 C 0.91554 0.13331 0.56116 0.0
H1036 H 0.06477 0.10122 0.59059 0.0
C1037 C 0.96193 0.16338 0.5618 0.0
C1038 C 0.04371 0.17125 0.57305 0.0
H1039 H 0.84674 0.12812 0.55305 0.0
H1040 H 0.93281 0.18041 0.55368 0.0
C1041 C 0.08286 0.14796 0.58302 0.0
C1042 C 0.93306 0.1568 0.69151 0.0
C1043 C 0.02158 0.17971 0.69014 0.0
H1044 H 0.89106 0.10836 0.69091 0.0
C1045 C 0.13971 0.17058 0.68937 0.0
H1046 H 0.84079 0.16324 0.69239 0.0
C1047 C 0.16782 0.1392 0.68843 0.0
C1048 C 0.07836 0.11641 0.68837 0.0
H1049 H 0.2094 0.18753 0.68842 0.0
H1050 H 0.2597 0.13283 0.68697 0.0
C1051 C 0.96127 0.12536 0.69072 0.0
C1052 C 0.48614 0.83481 0.46308 0.0
C1053 C 0.40616 0.82494 0.45209 0.0
H1054 H 0.59478 0.87188 0.47101 0.0
C1055 C 0.34876 0.84774 0.44326 0.0
H1056 H 0.52859 0.81823 0.47028 0.0
C1057 C 0.38708 0.87855 0.4435 0.0
C1058 C 0.48039 0.88722 0.45293 0.0
H1059 H 0.28456 0.84127 0.43478 0.0
H1060 H 0.35392 0.89447 0.43508 0.0
C1061 C 0.5224 0.86573 0.46358 0.0
C1062 C 0.89008 0.89816 0.29086 0.0
C1063 C 0.82572 0.87029 0.29221 0.0
H1064 H 0.88472 0.94769 0.29249 0.0
C1065 C 0.70259 0.87175 0.29045 0.0
H1066 H -0.01473 0.89789 0.29222 0.0
C1067 C 0.64462 0.90054 0.29056 0.0
C1068 C 0.7088 0.92831 0.29249 0.0
H1069 H 0.64996 0.85093 0.29154 0.0
H1070 H 0.54924 0.90071 0.29161 0.0
C1071 C 0.83214 0.92696 0.291 0.0
C1072 C 0.40571 0.62139 0.56997 0.0
C1073 C 0.39486 0.6092 0.58459 0.0
H1074 H 0.41901 0.66251 0.55657 0.0
C1075 C 0.35795 0.62893 0.59622 0.0
H1076 H 0.43148 0.60668 0.56068 0.0
C1077 C 0.34715 0.66071 0.59371 0.0
C1078 C 0.37468 0.67343 0.5796 0.0
H1079 H 0.34547 0.62021 0.60752 0.0
H1080 H 0.33241 0.67574 0.60328 0.0
C1081 C 0.39535 0.65332 0.5675 0.0
C1082 C 0.88357 0.67249 0.68659 0.0
C1083 C 0.8486 0.64459 0.69352 0.0
H1084 H 0.84657 0.72063 0.68321 0.0
C1085 C 0.75998 0.6455 0.7045 0.0
H1086 H 0.95349 0.67286 0.67829 0.0
C1087 C 0.69953 0.67305 0.70734 0.0
C1088 C 0.72883 0.70027 0.69953 0.0
H1089 H 0.73419 0.6248 0.71048 0.0
H1090 H 0.62495 0.67269 0.71496 0.0
C1091 C 0.82416 0.70008 0.68957 0.0
C1092 C 0.19192 0.36449 0.44459 0.0
C1093 C 0.2977 0.36866 0.45248 0.0
H1094 H 0.06601 0.33214 0.436 0.0
C1095 C 0.35054 0.34292 0.45954 0.0
H1096 H 0.15161 0.38367 0.43864 0.0
C1097 C 0.30397 0.31311 0.45765 0.0
C1098 C 0.20296 0.30867 0.44878 0.0
H1099 H 0.43429 0.34548 0.46534 0.0
H1100 H 0.35315 0.29347 0.46189 0.0
C1101 C 0.14389 0.33487 0.44299 0.0
C1102 C 0.29045 0.38728 0.30676 0.0
C1103 C 0.20341 0.36932 0.31401 0.0
H1104 H 0.36641 0.43244 0.30413 0.0
C1105 C 0.10577 0.38434 0.32026 0.0
H1106 H 0.36824 0.37619 0.30214 0.0
C1107 C 0.10209 0.41667 0.32075 0.0
C1108 C 0.19915 0.43454 0.3158 0.0
H1109 H 0.03952 0.37139 0.32636 0.0
H1110 H 0.02986 0.42743 0.32679 0.0
C1111 C 0.28973 0.41964 0.30789 0.0
C1112 C 0.7922 0.1127 0.05311 0.0
C1113 C 0.80895 0.09051 0.06451 0.0
H1114 H 0.8066 0.16029 0.04658 0.0
C1115 C 0.87568 0.09877 0.07719 0.0
H1116 H 0.73887 0.10713 0.04334 0.0
C1117 C 0.91425 0.12943 0.07911 0.0
C1118 C 0.88497 0.15246 0.06848 0.0
H1119 H 0.88711 0.08247 0.08633 0.0
H1120 H 0.95861 0.13555 0.08949 0.0
C1121 C 0.82877 0.14337 0.05511 0.0
C1122 C 0.82324 0.14852 0.19105 0.0
C1123 C 0.72052 0.16132 0.19715 0.0
H1124 H 0.91969 0.10739 0.18622 0.0
C1125 C 0.64581 0.14198 0.20574 0.0
H1126 H 0.87924 0.16199 0.18372 0.0
C1127 C 0.66436 0.10983 0.20637 0.0
C1128 C 0.7595 0.09665 0.19861 0.0
H1129 H 0.56442 0.15116 0.21034 0.0
H1130 H 0.59708 0.09524 0.21133 0.0
C1131 C 0.84442 0.11672 0.19222 0.0
C1132 C 0.41028 0.85209 0.93205 0.0
C1133 C 0.33177 0.84956 0.94408 0.0
H1134 H 0.51216 0.88211 0.9183 0.0
C1135 C 0.30363 0.87598 0.95258 0.0
H1136 H 0.43034 0.8322 0.92509 0.0
C1137 C 0.35065 0.90482 0.94876 0.0
C1138 C 0.42278 0.90778 0.93603 0.0
H1139 H 0.24099 0.87449 0.96175 0.0
H1140 H 0.32908 0.92473 0.9556 0.0
C1141 C 0.45455 0.88091 0.92799 0.0
C1142 C 0.70551 0.86306 0.82088 0.0
C1143 C 0.61987 0.84272 0.81485 0.0
H1144 H 0.75244 0.91009 0.82572 0.0
C1145 C 0.53246 0.85504 0.80541 0.0
H1146 H 0.77458 0.85432 0.82819 0.0
C1147 C 0.52319 0.88723 0.80351 0.0
C1148 C 0.59968 0.90769 0.8112 0.0
H1149 H 0.46403 0.84026 0.80083 0.0
H1150 H 0.44691 0.89626 0.79757 0.0
C1151 C 0.6947 0.89518 0.81924 0.0
C1152 C 0.53597 0.46295 0.07381 0.0
C1153 C 0.59489 0.48947 0.06865 0.0
H1154 H 0.36982 0.43994 0.07672 0.0
C1155 C 0.53056 0.51223 0.06092 0.0
H1156 H 0.58345 0.44551 0.08015 0.0
C1157 C 0.4077 0.50961 0.05939 0.0
C1158 C 0.34756 0.48395 0.06538 0.0
H1159 H 0.57367 0.53327 0.05722 0.0
H1160 H 0.35923 0.52832 0.05412 0.0
C1161 C 0.41359 0.45998 0.07199 0.0
C1162 C 0.56643 0.78627 0.05776 0.0
C1163 C 0.54014 0.75606 0.05312 0.0
H1164 H 0.69659 0.81704 0.06658 0.0
C1165 C 0.6327 0.73443 0.05189 0.0
H1166 H 0.49692 0.80329 0.05912 0.0
C1167 C 0.74708 0.74203 0.05653 0.0
C1168 C 0.77118 0.77145 0.06244 0.0
H1169 H 0.61459 0.71084 0.04846 0.0
H1170 H 0.8156 0.72463 0.05581 0.0
C1171 C 0.68053 0.79382 0.06247 0.0
C1172 C 0.69467 0.80076 0.18559 0.0
C1173 C 0.72916 0.77667 0.17606 0.0
H1174 H 0.55241 0.82315 0.19686 0.0
C1175 C 0.64096 0.75962 0.16848 0.0
H1176 H 0.75938 0.81423 0.19161 0.0
C1177 C 0.5221 0.76355 0.17207 0.0
C1178 C 0.48847 0.78556 0.18276 0.0
H1179 H 0.66387 0.74095 0.1609 0.0
H1180 H 0.45902 0.74737 0.16752 0.0
C1181 C 0.57531 0.80554 0.18871 0.0
C1182 C 0.83732 0.52477 0.21546 0.0
C1183 C 0.87213 0.49406 0.21756 0.0
H1184 H 0.69229 0.55539 0.21148 0.0
C1185 C 0.7861 0.47172 0.22123 0.0
H1186 H 0.90186 0.54253 0.21337 0.0
C1187 C 0.66652 0.47906 0.22056 0.0
C1188 C 0.63208 0.50877 0.21621 0.0
H1189 H 0.81033 0.44791 0.22345 0.0
H1190 H 0.60192 0.46075 0.22187 0.0
C1191 C 0.71766 0.5321 0.21464 0.0
C1192 C 0.60797 0.47905 0.95693 0.0
C1193 C 0.64322 0.50836 0.96186 0.0
H1194 H 0.46338 0.45034 0.95048 0.0
C1195 C 0.5572 0.52919 0.96725 0.0
H1196 H 0.67181 0.46222 0.95315 0.0
C1197 C 0.43732 0.52238 0.96579 0.0
C1198 C 0.4029 0.4947 0.95895 0.0
H1199 H 0.58185 0.55177 0.97151 0.0
H1200 H 0.3727 0.53987 0.96868 0.0
C1201 C 0.4885 0.47226 0.95547 0.0
C1202 C 0.26137 0.26329 0.95737 0.0
C1203 C 0.2973 0.28454 0.94645 0.0
H1204 H 0.11476 0.24051 0.96759 0.0
C1205 C 0.21279 0.30446 0.93995 0.0
H1206 H 0.32468 0.24801 0.9627 0.0
C1207 C 0.09266 0.29997 0.94253 0.0
C1208 C 0.05561 0.27568 0.95177 0.0
H1209 H 0.23876 0.32172 0.93176 0.0
H1210 H 0.02962 0.31346 0.93612 0.0
C1211 C 0.14094 0.25899 0.96007 0.0
C1212 C 0.59082 0.21144 0.80288 0.0
C1213 C 0.67437 0.23311 0.80801 0.0
H1214 H 0.40695 0.19977 0.80145 0.0
C1215 C 0.63688 0.26177 0.81353 0.0
H1216 H 0.61834 0.18946 0.79821 0.0
C1217 C 0.51773 0.26725 0.81561 0.0
C1218 C 0.43472 0.24431 0.81204 0.0
H1219 H 0.69948 0.27913 0.81726 0.0
H1220 H 0.49101 0.28873 0.8209 0.0
C1221 C 0.47052 0.21735 0.80462 0.0
C1222 C 0.56997 0.53359 0.83888 0.0
C1223 C 0.48506 0.51219 0.83384 0.0
H1224 H 0.75089 0.54778 0.83814 0.0
C1225 C 0.52204 0.48567 0.82613 0.0
H1226 H 0.54349 0.55412 0.845 0.0
C1227 C 0.6386 0.48309 0.82147 0.0
C1228 C 0.7209 0.50643 0.8249 0.0
H1229 H 0.45912 0.46865 0.82216 0.0
H1230 H 0.66276 0.4633 0.81466 0.0
C1231 C 0.68774 0.53053 0.83455 0.0
C1232 C 0.21567 0.05475 0.56225 0.0
C1233 C 0.18071 0.02746 0.55512 0.0
H1234 H 0.36112 0.08089 0.57071 0.0
C1235 C 0.26567 0.00978 0.54733 0.0
H1236 H 0.15236 0.06895 0.56812 0.0
C1237 C 0.38568 0.01632 0.54891 0.0
C1238 C 0.42095 0.04065 0.55824 0.0
H1239 H 0.24035 0.98901 0.54131 0.0
H1240 H 0.44978 1.00025 0.54436 0.0
C1241 C 0.33547 0.06143 0.56375 0.0
C1242 C 0.58247 0.26253 0.54352 0.0
C1243 C 0.54551 0.24229 0.55482 0.0
H1244 H 0.73 0.28519 0.53345 0.0
C1245 C 0.62963 0.22358 0.56218 0.0
H1246 H 0.51941 0.27694 0.53759 0.0
C1247 C 0.74982 0.22887 0.5602 0.0
C1248 C 0.78715 0.25233 0.55051 0.0
H1249 H 0.60273 0.20724 0.57076 0.0
H1250 H 0.81185 0.21694 0.56743 0.0
C1251 C 0.70312 0.26743 0.54133 0.0
C1252 C 0.49324 0.24353 0.69088 0.0
C1253 C 0.57295 0.26072 0.69973 0.0
H1254 H 0.31302 0.23349 0.68603 0.0
C1255 C 0.53423 0.27379 0.71322 0.0
H1256 H 0.52212 0.23242 0.6806 0.0
C1257 C 0.41353 0.27351 0.71659 0.0
C1258 C 0.33147 0.2604 0.70642 0.0
H1259 H 0.59454 0.28667 0.72033 0.0
H1260 H 0.38338 0.28639 0.7263 0.0
C1261 C 0.37328 0.24348 0.69415 0.0
C1262 C 0.68494 0.01858 0.70987 0.0
C1263 C 0.76742 0.03213 0.70004 0.0
H1264 H 0.50321 1.00695 0.71344 0.0
C1265 C 0.72832 0.05085 0.68824 0.0
H1266 H 0.71424 1.00411 0.7191 0.0
C1267 C 0.60833 0.05215 0.68496 0.0
C1268 C 0.52715 0.03498 0.69353 0.0
H1269 H 0.79044 0.06124 0.68048 0.0
H1270 H 0.58011 0.06451 0.67497 0.0
C1271 C 0.56463 0.02005 0.70663 0.0
C1272 C 0.24699 0.94974 0.45955 0.0
C1273 C 0.27466 0.98055 0.45625 0.0
H1274 H 0.10882 0.91712 0.46376 0.0
C1275 C 0.18801 1.00345 0.45871 0.0
H1276 H 0.31286 0.93187 0.45859 0.0
C1277 C 0.07251 0.99528 0.46243 0.0
C1278 C 0.04097 0.96403 0.46327 0.0
H1279 H 0.20763 0.02772 0.45702 0.0
H1280 H 0.00568 0.0132 0.46277 0.0
C1281 C 0.13077 0.94147 0.46298 0.0
C1282 C 0.07453 0.71806 0.41004 0.0
C1283 C 0.15901 0.70576 0.42015 0.0
H1284 H 0.89322 0.73149 0.40666 0.0
C1285 C 0.11972 0.69257 0.43359 0.0
H1286 H 0.10192 0.7284 0.39952 0.0
C1287 C 0.00152 0.69446 0.4376 0.0
C1288 C 0.91921 0.70987 0.42835 0.0
H1289 H 0.18143 0.68347 0.44177 0.0
H1290 H 0.97622 0.68524 0.44845 0.0
C1291 C 0.95516 0.72019 0.41415 0.0
C1292 C 0.36274 0.80088 0.33585 0.0
C1293 C 0.2738 0.77894 0.33284 0.0
H1294 H 0.54824 0.81025 0.33595 0.0
C1295 C 0.30468 0.74785 0.33104 0.0
H1296 H 0.3415 0.825 0.33775 0.0
C1297 C 0.4227 0.73946 0.33006 0.0
C1298 C 0.51091 0.76215 0.33103 0.0
H1299 H 0.23837 0.73037 0.32943 0.0
H1300 H 0.44449 0.71569 0.32734 0.0
C1301 C 0.48116 0.79246 0.335 0.0
C1302 C 0.07716 0.02173 0.33948 0.0
C1303 C 0.04164 0.03678 0.32624 0.0
H1304 H 0.22335 1.00243 0.35174 0.0
C1305 C 0.12648 0.04553 0.31555 0.0
H1306 H 0.01324 0.01466 0.34783 0.0
C1307 C 0.24369 0.03815 0.31765 0.0
C1308 C 0.2796 0.02319 0.33076 0.0
H1309 H 0.10225 0.05691 0.30514 0.0
H1310 H 0.30621 0.04365 0.30881 0.0
C1311 C 0.19645 0.01487 0.34172 0.0
C1312 C 0.10438 0.50411 0.56141 0.0
C1313 C 0.15178 0.52563 0.57146 0.0
H1314 H 0.94569 0.48213 0.55393 0.0
C1315 C 0.07918 0.54755 0.57845 0.0
H1316 H 0.16032 0.487 0.55607 0.0
C1317 C 0.95723 0.54503 0.57711 0.0
C1318 C 0.90963 0.52039 0.56894 0.0
H1319 H 0.11592 0.56414 0.58633 0.0
H1320 H 0.9012 0.55959 0.584 0.0
C1321 C 0.98248 0.50139 0.56019 0.0
C1322 C 0.11594 0.72397 0.55853 0.0
C1323 C 0.15068 0.75197 0.55199 0.0
H1324 H 0.97111 0.69597 0.56567 0.0
C1325 C 0.06458 0.77006 0.54454 0.0
H1326 H 0.17985 0.7091 0.564 0.0
C1327 C 0.94467 0.76263 0.5455 0.0
C1328 C 0.90891 0.73691 0.55388 0.0
H1329 H 0.08858 0.7914 0.53894 0.0
H1330 H 0.88024 0.77878 0.54106 0.0
C1331 C -0.00396 0.71638 0.55936 0.0
C1332 C 0.95513 0.76107 0.71263 0.0
C1333 C 0.92476 0.79247 0.71245 0.0
H1334 H 0.09597 0.72813 0.71186 0.0
C1335 C 0.0133 0.81468 0.71527 0.0
H1336 H 0.88853 0.74343 0.71135 0.0
C1337 C 0.13154 0.80591 0.71625 0.0
C1338 C 0.16278 0.7749 0.71416 0.0
H1339 H -0.00747 0.83912 0.71575 0.0
H1340 H 0.19862 0.82377 0.71685 0.0
C1341 C 0.07359 0.75232 0.71335 0.0
C1342 C 0.38991 0.55486 0.71349 0.0
C1343 C 0.35707 0.57002 0.70023 0.0
H1344 H 0.53276 0.53923 0.72721 0.0
C1345 C 0.44305 0.58675 0.69218 0.0
H1346 H 0.32608 0.54202 0.71997 0.0
C1347 C 0.56186 0.5848 0.69613 0.0
C1348 C 0.59629 0.56635 0.70831 0.0
H1349 H 0.41992 0.5995 0.68211 0.0
H1350 H 0.62677 0.59506 0.68872 0.0
C1351 C 0.5087 0.55336 0.71762 0.0
C1352 C 0.88294 0.46584 0.47568 0.0
C1353 C 0.84653 0.43874 0.46841 0.0
H1354 H 0.02865 0.49353 0.48273 0.0
C1355 C 0.93123 0.41566 0.46534 0.0
H1356 H 0.82066 0.48414 0.4781 0.0
C1357 C 0.05137 0.42122 0.46782 0.0
C1358 C 0.08896 0.44979 0.47335 0.0
H1359 H 0.90558 0.39415 0.46 0.0
H1360 H 0.11509 0.4039 0.46478 0.0
C1361 C 0.00305 0.47125 0.4782 0.0
C1362 C 0.76196 0.17313 0.44136 0.0
C1363 C 0.7941 0.19161 0.42914 0.0
H1364 H 0.62073 0.15164 0.45315 0.0
C1365 C 0.71105 0.19855 0.41791 0.0
H1366 H 0.8256 0.16715 0.45 0.0
C1367 C 0.59415 0.18947 0.4196 0.0
C1368 C 0.55883 0.17402 0.43264 0.0
H1369 H 0.7355 0.21205 0.40813 0.0
H1370 H 0.53053 0.19612 0.41119 0.0
C1371 C 0.64487 0.16415 0.44306 0.0
C1372 C 0.8657 0.27446 0.29038 0.0
C1373 C 0.95117 0.28881 0.29962 0.0
H1374 H 0.68184 0.26671 0.28628 0.0
C1375 C 0.91614 0.31264 0.30922 0.0
H1376 H 0.89056 0.25641 0.28254 0.0
C1377 C 0.79631 0.31921 0.311 0.0
C1378 C 0.70979 0.30142 0.30348 0.0
H1379 H 0.97961 0.32399 0.31643 0.0
H1380 H 0.77155 0.33609 0.31943 0.0
C1381 C 0.74572 0.28051 0.29238 0.0
C1382 C 0.87899 0.54863 0.3546 0.0
C1383 C 0.96452 0.5599 0.3444 0.0
H1384 H 0.69523 0.53955 0.35866 0.0
C1385 C 0.92615 0.57581 0.33161 0.0
H1386 H 0.90532 0.53626 0.36466 0.0
C1387 C 0.80612 0.57838 0.32849 0.0
C1388 C 0.72095 0.56402 0.33775 0.0
H1389 H -0.01159 0.58427 0.32337 0.0
H1390 H 0.78126 0.58967 0.31808 0.0
C1391 C 0.75822 0.55031 0.3512 0.0
C1392 C 0.02343 0.02778 0.0505 0.0
C1393 C -0.00278 0.99707 0.05429 0.0
H1394 H 0.15889 0.06047 0.04514 0.0
C1395 C 0.08617 0.97447 0.05267 0.0
H1396 H 0.95615 0.0455 0.05097 0.0
C1397 C 0.20118 0.98279 0.04879 0.0
C1398 C 0.23036 0.01398 0.04673 0.0
H1399 H 0.0685 0.95031 0.05498 0.0
H1400 H 0.26915 0.96513 0.049 0.0
C1401 C 0.13898 0.03617 0.04673 0.0
C1402 C 0.27148 0.25904 0.04808 0.0
C1403 C 0.20454 0.28183 0.05537 0.0
H1404 H 0.44476 0.24283 0.04243 0.0
C1405 C 0.26144 0.30846 0.06075 0.0
H1406 H 0.22988 0.23789 0.04422 0.0
C1407 C 0.38436 0.31131 0.05984 0.0
C1408 C 0.45257 0.28717 0.05381 0.0
H1409 H 0.21184 0.32594 0.06672 0.0
H1410 H 0.42636 0.33138 0.06481 0.0
C1411 C 0.39463 0.26161 0.04735 0.0
C1412 C 0.00292 0.22222 0.19802 0.0
C1413 C 0.96951 0.25106 0.20358 0.0
H1414 H 0.14651 0.19322 0.1916 0.0
C1415 C 0.05506 0.2701 0.21047 0.0
H1416 H 0.93877 0.20726 0.19283 0.0
C1417 C 0.17445 0.26242 0.2097 0.0
C1418 C 0.20861 0.23568 0.20201 0.0
H1419 H 0.03092 0.29222 0.2153 0.0
H1420 H 0.23946 0.27903 0.21356 0.0
C1421 C 0.12195 0.21438 0.19733 0.0
C1422 C 0.2478 0.96752 0.16639 0.0
C1423 C 0.28603 0.95542 0.18014 0.0
H1424 H 0.10115 0.98254 0.15313 0.0
C1425 C 0.20079 0.94534 0.19059 0.0
H1426 H 0.31061 0.97481 0.15806 0.0
C1427 C 0.08066 0.95033 0.18801 0.0
C1428 C 0.04263 0.96459 0.17471 0.0
H1429 H 0.22708 0.93595 0.20138 0.0
H1430 H 0.01944 0.9454 0.19698 0.0
C1431 C 0.12723 0.97167 0.1636 0.0
C1432 C 0.97031 0.99975 0.9608 0.0
C1433 C 0.93294 0.97789 0.95024 0.0
H1434 H 0.11768 0.024 0.97007 0.0
C1435 C 0.01774 0.95853 0.9434 0.0
H1436 H 0.90723 0.01466 0.96639 0.0
C1437 C 0.13788 0.96464 0.94496 0.0
C1438 C 0.17526 0.98931 0.95392 0.0
H1439 H -0.00867 0.94082 0.93545 0.0
H1440 H 0.19958 0.95212 0.93796 0.0
C1441 C 0.09108 1.00522 0.96274 0.0
C1442 C 0.70654 0.79756 0.95366 0.0
C1443 C 0.79181 0.7751 0.95736 0.0
H1444 H 0.52325 0.80735 0.9507 0.0
C1445 C 0.75684 0.74783 0.96449 0.0
H1446 H 0.73227 0.81915 0.9484 0.0
C1447 C 0.63678 0.74109 0.96574 0.0
C1448 C 0.55127 0.76157 0.95983 0.0
H1449 H 0.82113 0.73033 0.96753 0.0
H1450 H 0.61182 0.71866 0.97013 0.0
C1451 C 0.58679 0.79078 0.95485 0.0
C1452 C 0.06816 0.70235 0.81744 0.0
C1453 C 0.15596 0.70517 0.82856 0.0
H1454 H 0.88566 0.70747 0.81196 0.0
C1455 C 0.12246 0.70977 0.84351 0.0
H1456 H 0.09112 0.69819 0.80579 0.0
C1457 C 0.00452 0.71571 0.84705 0.0
C1458 C 0.91853 0.716 0.83563 0.0
H1459 H 0.18757 0.70942 0.85233 0.0
H1460 H 0.9814 0.72122 0.85856 0.0
C1461 C 0.95028 0.70765 0.82096 0.0
C1462 C 0.88522 0.96677 0.80438 0.0
C1463 C 0.8504 0.9931 0.79641 0.0
H1464 H 0.03035 0.94154 0.81356 0.0
C1465 C 0.93589 0.01008 0.78836 0.0
H1466 H 0.82138 0.95305 0.81045 0.0
C1467 C 0.05576 1.00389 0.79028 0.0
C1468 C 0.09096 0.98043 0.80014 0.0
H1469 H 0.91097 0.03006 0.78172 0.0
H1470 H 0.11972 0.01953 0.78539 0.0
C1471 C 0.00508 0.96035 0.80616 0.0
C1472 C 0.10359 0.49239 0.01368 0.0
C1473 C 0.08244 0.51478 0.02484 0.0
H1474 H 0.13614 0.48324 0.99043 0.0
C1475 C 0.09951 0.54607 0.0213 0.0
H1476 H 0.09378 0.468 0.01619 0.0
C1477 C 0.12328 0.5549 0.00641 0.0
C1478 C 0.13235 0.53253 0.99489 0.0
H1479 H 0.08523 0.56376 0.02973 0.0
H1480 H 0.12475 0.57933 1.00369 0.0
C1481 C 0.12989 0.50113 0.99892 0.0
C1482 C 0.06758 0.77551 0.99557 0.0
C1483 C 0.09503 0.7443 0.99286 0.0
H1484 H 0.06962 0.81301 0.01134 0.0
C1485 C 0.14376 0.72667 1.00469 0.0
H1486 H 0.03153 0.78992 0.98671 0.0
C1487 C 0.17017 0.74021 0.01854 0.0
C1488 C 0.14609 0.77158 0.02109 0.0
H1489 H 0.16677 0.70258 1.00307 0.0
H1490 H 0.20759 0.72589 0.02735 0.0
C1491 C 0.09215 0.78894 0.00957 0.0
C1492 C 0.04284 0.77442 0.26697 0.0
C1493 C 0.93542 0.75934 0.26945 0.0
H1494 H 0.19345 0.7796 0.25293 0.0
C1495 C 0.8953 0.73776 0.25866 0.0
H1496 H 0.07791 0.79036 0.27526 0.0
C1497 C 0.96162 0.73136 0.24568 0.0
C1498 C 0.07153 0.74566 0.24347 0.0
H1499 H 0.81371 0.7252 0.26048 0.0
H1500 H 0.92753 0.7151 0.23748 0.0
C1501 C 0.11054 0.76742 0.2543 0.0
C1502 C 0.29432 0.45948 0.26312 0.0
C1503 C 0.36572 0.46933 0.25099 0.0
H1504 H 0.24671 0.46611 0.28625 0.0
C1505 C 0.46077 0.48906 0.25401 0.0
H1506 H 0.21917 0.44446 0.2612 0.0
C1507 C 0.47946 0.50023 0.26858 0.0
C1508 C 0.40122 0.49281 0.2804 0.0
H1509 H 0.51706 0.49718 0.24504 0.0
H1510 H 0.55083 0.51656 0.27033 0.0
C1511 C 0.31066 0.47151 0.27762 0.0
C1512 C 0.63022 0.27891 0.98789 0.0
C1513 C 0.59007 0.24877 0.98488 0.0
H1514 H 0.71719 0.30907 1.00347 0.0
C1515 C 0.58774 0.22728 0.9968 0.0
H1516 H 0.63515 0.29593 0.97897 0.0
C1517 C 0.6359 0.23476 0.01089 0.0
C1518 C 0.68893 0.26373 0.01329 0.0
H1519 H 0.55871 0.20375 0.9948 0.0
H1520 H 0.63845 0.21719 0.01957 0.0
C1521 C 0.6804 0.28618 1.00186 0.0
C1522 C 0.89639 0.28754 0.76786 0.0
C1523 C 0.93378 0.25662 0.76888 0.0
H1524 H 0.84157 0.32445 0.75333 0.0
C1525 C 0.92149 0.23758 0.7561 0.0
H1526 H 0.90203 0.3027 0.77753 0.0
C1527 C 0.88317 0.24981 0.74233 0.0
C1528 C 0.85815 0.28152 0.74091 0.0
H1529 H 0.94635 0.21341 0.75655 0.0
H1530 H 0.88479 0.23502 0.73249 0.0
C1531 C 0.85941 0.29987 0.75403 0.0
C1532 C 0.16066 0.50217 0.76408 0.0
C1533 C 0.17576 0.53195 0.76999 0.0
H1534 H 0.12537 0.47487 0.7446 0.0
C1535 C 0.18574 0.55716 0.76005 0.0
H1536 H 0.15578 0.48224 0.77144 0.0
C1537 C 0.16743 0.55298 0.74457 0.0
C1538 C 0.14105 0.52345 0.73888 0.0
H1539 H 0.19898 0.58036 0.76435 0.0
H1540 H 0.16343 0.5731 0.73732 0.0
C1541 C 0.14507 0.49793 0.74868 0.0
C1542 C 0.65417 0.01958 0.51833 0.0
C1543 C 0.69656 0.99119 0.52376 0.0
H1544 H 0.62129 0.04765 0.49892 0.0
C1545 C 0.7331 0.96843 0.51345 0.0
H1546 H 0.62667 0.03766 0.526 0.0
C1547 C 0.73483 0.97458 0.49813 0.0
C1548 C 0.69705 1.00333 0.49272 0.0
H1549 H 0.76589 0.94621 0.51726 0.0
H1550 H 0.76433 0.95659 0.49053 0.0
C1551 C 0.65383 0.02553 0.50289 0.0
C1552 C 0.2978 0.22014 0.50073 0.0
C1553 C 0.25102 0.23426 0.48768 0.0
H1554 H 0.33569 0.22427 0.52431 0.0
C1555 C 0.22234 0.26572 0.48828 0.0
H1556 H 0.32292 0.19597 0.50064 0.0
C1557 C 0.23355 0.28221 0.50175 0.0
C1558 C 0.27065 0.26744 0.51514 0.0
H1559 H 0.18455 0.27717 0.4786 0.0
H1560 H 0.20405 0.30605 0.50191 0.0
C1561 C 0.30743 0.2365 0.51429 0.0
C1562 C 0.28432 0.99279 0.76166 0.0
C1563 C 0.34089 0.02125 0.76388 0.0
H1564 H 0.20654 0.96165 0.74591 0.0
C1565 C 0.36433 0.04032 0.7514 0.0
H1566 H 0.26773 0.97724 0.77096 0.0
C1567 C 0.33152 0.03111 0.73698 0.0
C1568 C 0.27428 1.00274 0.73479 0.0
H1569 H 0.4092 0.06228 0.75275 0.0
H1570 H 0.34807 0.04659 0.72763 0.0
C1571 C 0.25143 0.98362 0.74725 0.0
C1572 C 0.55662 0.72757 0.50016 0.0
C1573 C 0.58053 0.74623 0.48752 0.0
H1574 H 0.5534 0.72365 0.52415 0.0
C1575 C 0.63432 0.77512 0.48994 0.0
H1576 H 0.51828 0.70478 0.49882 0.0
C1577 C 0.65209 0.78631 0.50465 0.0
C1578 C 0.6235 0.76797 0.51722 0.0
H1579 H 0.66388 0.78886 0.48053 0.0
H1580 H 0.68558 0.80957 0.50621 0.0
C1581 C 0.57924 0.7381 0.51475 0.0
C1582 C 0.56983 0.99726 0.24879 0.0
C1583 C 0.60174 0.01949 0.23784 0.0
H1584 H 0.56865 0.98419 0.27201 0.0
C1585 C 0.66197 0.04612 0.24249 0.0
H1586 H 0.52589 0.97595 0.24563 0.0
C1587 C 0.6851 0.05088 0.25784 0.0
C1588 C 0.65198 0.0286 0.26869 0.0
H1589 H 0.68958 0.06329 0.23436 0.0
H1590 H 0.72909 0.07201 0.26125 0.0
C1591 C 0.59579 1.00159 0.26395 0.0
C1592 C 0.65947 0.51047 0.52528 0.0
C1593 C 0.63994 0.48155 0.53205 0.0
H1594 H 0.6593 0.53654 0.50487 0.0
C1595 C 0.63101 0.45518 0.52286 0.0
H1596 H 0.67013 0.53115 0.53203 0.0
C1597 C 0.62712 0.45828 0.50718 0.0
C1598 C 0.63112 0.4878 0.50058 0.0
H1599 H 0.61814 0.4325 0.52776 0.0
H1600 H 0.60804 0.43805 0.50041 0.0
C1601 C 0.65519 0.51355 0.50969 0.0
C1602 C 0.53336 0.80396 0.77376 0.0
C1603 C 0.46667 0.77716 0.77618 0.0
H1604 H 0.58683 0.83849 0.75796 0.0
C1605 C 0.38771 0.7673 0.76486 0.0
H1606 H 0.59588 0.81183 0.78215 0.0
C1607 C 0.38333 0.78213 0.75093 0.0
C1608 C 0.45742 0.80735 0.74798 0.0
H1609 H 0.33344 0.74693 0.76649 0.0
H1610 H 0.32745 0.77256 0.74219 0.0
C1611 C 0.52803 0.8191 0.75982 0.0
C1612 C 0.42808 0.23702 0.25452 0.0
C1613 C 0.45436 0.2571 0.26652 0.0
H1614 H 0.42277 0.23035 0.23078 0.0
C1615 C 0.49894 0.28667 0.26343 0.0
H1616 H 0.39268 0.21411 0.25655 0.0
C1617 C 0.51496 0.29611 0.24858 0.0
C1618 C 0.486 0.2762 0.2366 0.0
H1619 H 0.51736 0.3029 0.27242 0.0
H1620 H 0.55062 0.31896 0.24647 0.0
C1621 C 0.44262 0.24656 0.23973 0.0
C1622 C 0.58041 0.02159 0.01315 0.0
C1623 C 0.59858 0.98993 0.01564 0.0
H1624 H 0.58512 0.05895 0.99754 0.0
C1625 C 0.644 0.9717 1.00387 0.0
H1626 H 0.5502 0.03656 0.02213 0.0
C1627 C 0.66542 0.98461 0.9897 0.0
C1628 C 0.6429 0.01611 0.98706 0.0
H1629 H 0.66231 0.94736 1.0056 0.0
H1630 H 0.69395 0.96958 0.98066 0.0
C1631 C 0.60373 0.03458 0.99912 0.0
loop_
_geom_bond_atom_site_label_1
_geom_bond_atom_site_label_2
_geom_bond_distance
_geom_bond_site_symmetry_2
_ccdc_geom_bond_type
Zn0 O6 1.920 . S
Zn0 O12 1.898 1_655 S
Zn0 O15 1.905 . S
Zn1 O9 1.905 . S
Zn1 O10 1.898 . S
Zn1 O18 1.920 . S
Zn2 O5 2.080 1_455 S
Zn2 O8 2.114 . S
Zn2 O11 2.120 . S
Zn2 O13 2.120 . S
Zn2 O14 2.114 . S
Zn2 O17 2.080 . S
C3 O8 1.166 . S
C3 O9 1.182 . S
C4 O10 1.167 . S
C4 O11 1.299 . S
O5 Zn2 2.080 1_655 S
O5 C19 1.305 . S
O6 Zn0 1.920 . S
O6 C19 1.234 . S
C7 O12 1.167 . S
C7 O13 1.299 . S
O8 Zn2 2.114 . S
O8 C3 1.166 . S
O9 Zn1 1.905 . S
O9 C3 1.182 . S
O10 Zn1 1.898 . S
O10 C4 1.167 . S
O11 Zn2 2.120 . S
O11 C4 1.299 . S
O12 Zn0 1.898 1_455 S
O12 C7 1.167 . S
O13 Zn2 2.120 . S
O13 C7 1.299 . S
O14 Zn2 2.114 . S
O14 C16 1.166 . S
O15 Zn0 1.905 . S
O15 C16 1.182 1_655 S
C16 O14 1.166 . S
C16 O15 1.182 1_455 S
O17 Zn2 2.080 . S
O17 C20 1.305 1_455 S
O18 Zn1 1.920 . S
O18 C20 1.234 1_455 S
C19 O5 1.305 . S
C19 O6 1.234 . S
C20 O17 1.305 1_655 S
C20 O18 1.234 1_655 S
Zn21 O27 1.920 . S
Zn21 O33 1.898 . S
Zn21 O36 1.905 . S
Zn22 O30 1.905 1_455 S
Zn22 O31 1.898 . S
Zn22 O39 1.920 . S
Zn23 O26 2.080 . S
Zn23 O29 2.114 . S
Zn23 O32 2.120 . S
Zn23 O34 2.120 . S
Zn23 O35 2.114 . S
Zn23 O38 2.080 . S
C24 O29 1.166 1_655 S
C24 O30 1.182 . S
C25 O31 1.167 . S
C25 O32 1.299 . S
O26 Zn23 2.080 . S
O26 C40 1.305 . S
O27 Zn21 1.920 . S
O27 C40 1.234 . S
C28 O33 1.167 . S
C28 O34 1.299 . S
O29 Zn23 2.114 . S
O29 C24 1.166 1_455 S
O30 Zn22 1.905 1_655 S
O30 C24 1.182 . S
O31 Zn22 1.898 . S
O31 C25 1.167 . S
O32 Zn23 2.120 . S
O32 C25 1.299 . S
O33 Zn21 1.898 . S
O33 C28 1.167 . S
O34 Zn23 2.120 . S
O34 C28 1.299 . S
O35 Zn23 2.114 . S
O35 C37 1.166 . S
O36 Zn21 1.905 . S
O36 C37 1.182 . S
C37 O35 1.166 . S
C37 O36 1.182 . S
O38 Zn23 2.080 . S
O38 C41 1.305 . S
O39 Zn22 1.920 . S
O39 C41 1.234 . S
C40 O26 1.305 . S
C40 O27 1.234 . S
C41 O38 1.305 . S
C41 O39 1.234 . S
Zn42 O48 1.920 . S
Zn42 O54 1.898 1_655 S
Zn42 O57 1.905 . S
Zn43 O51 1.905 . S
Zn43 O52 1.898 . S
Zn43 O60 1.920 . S
Zn44 O47 2.080 1_455 S
Zn44 O50 2.114 . S
Zn44 O53 2.120 . S
Zn44 O55 2.120 . S
Zn44 O56 2.114 . S
Zn44 O59 2.080 . S
C45 O50 1.166 . S
C45 O51 1.182 . S
C46 O52 1.167 . S
C46 O53 1.299 . S
O47 Zn44 2.080 1_655 S
O47 C61 1.305 . S
O48 Zn42 1.920 . S
O48 C61 1.234 . S
C49 O54 1.167 . S
C49 O55 1.299 . S
O50 Zn44 2.114 . S
O50 C45 1.166 . S
O51 Zn43 1.905 . S
O51 C45 1.182 . S
O52 Zn43 1.898 . S
O52 C46 1.167 . S
O53 Zn44 2.120 . S
O53 C46 1.299 . S
O54 Zn42 1.898 1_455 S
O54 C49 1.167 . S
O55 Zn44 2.120 . S
O55 C49 1.299 . S
O56 Zn44 2.114 . S
O56 C58 1.166 . S
O57 Zn42 1.905 . S
O57 C58 1.182 1_655 S
C58 O56 1.166 . S
C58 O57 1.182 1_455 S
O59 Zn44 2.080 . S
O59 C62 1.305 1_455 S
O60 Zn43 1.920 . S
O60 C62 1.234 1_455 S
C61 O47 1.305 . S
C61 O48 1.234 . S
C62 O59 1.305 1_655 S
C62 O60 1.234 1_655 S
Zn63 O69 1.920 . S
Zn63 O75 1.898 . S
Zn63 O78 1.905 1_455 S
Zn64 O72 1.905 . S
Zn64 O73 1.898 . S
Zn64 O81 1.920 . S
Zn65 O68 2.080 . S
Zn65 O71 2.114 . S
Zn65 O74 2.120 . S
Zn65 O76 2.120 . S
Zn65 O77 2.114 . S
Zn65 O80 2.080 . S
C66 O71 1.166 . S
C66 O72 1.182 . S
C67 O73 1.167 . S
C67 O74 1.299 . S
O68 Zn65 2.080 . S
O68 C82 1.305 . S
O69 Zn63 1.920 . S
O69 C82 1.234 . S
C70 O75 1.167 . S
C70 O76 1.299 . S
O71 Zn65 2.114 . S
O71 C66 1.166 . S
O72 Zn64 1.905 . S
O72 C66 1.182 . S
O73 Zn64 1.898 . S
O73 C67 1.167 . S
O74 Zn65 2.120 . S
O74 C67 1.299 . S
O75 Zn63 1.898 . S
O75 C70 1.167 . S
O76 Zn65 2.120 . S
O76 C70 1.299 . S
O77 Zn65 2.114 . S
O77 C79 1.166 1_455 S
O78 Zn63 1.905 1_655 S
O78 C79 1.182 . S
C79 O77 1.166 1_655 S
C79 O78 1.182 . S
O80 Zn65 2.080 . S
O80 C83 1.305 . S
O81 Zn64 1.920 . S
O81 C83 1.234 . S
C82 O68 1.305 . S
C82 O69 1.234 . S
C83 O80 1.305 . S
C83 O81 1.234 . S
Zn84 O90 1.920 . S
Zn84 O96 1.898 . S
Zn84 O99 1.905 . S
Zn85 O93 1.905 . S
Zn85 O94 1.898 1_455 S
Zn85 O102 1.920 . S
Zn86 O89 2.080 . S
Zn86 O92 2.114 . S
Zn86 O95 2.120 . S
Zn86 O97 2.120 . S
Zn86 O98 2.114 . S
Zn86 O101 2.080 1_655 S
C87 O92 1.166 . S
C87 O93 1.182 1_655 S
C88 O94 1.167 . S
C88 O95 1.299 . S
O89 Zn86 2.080 . S
O89 C103 1.305 1_655 S
O90 Zn84 1.920 . S
O90 C103 1.234 1_655 S
C91 O96 1.167 . S
C91 O97 1.299 . S
O92 Zn86 2.114 . S
O92 C87 1.166 . S
O93 Zn85 1.905 . S
O93 C87 1.182 1_455 S
O94 Zn85 1.898 1_655 S
O94 C88 1.167 . S
O95 Zn86 2.120 . S
O95 C88 1.299 . S
O96 Zn84 1.898 . S
O96 C91 1.167 . S
O97 Zn86 2.120 . S
O97 C91 1.299 . S
O98 Zn86 2.114 . S
O98 C100 1.166 . S
O99 Zn84 1.905 . S
O99 C100 1.182 . S
C100 O98 1.166 . S
C100 O99 1.182 . S
O101 Zn86 2.080 1_455 S
O101 C104 1.305 . S
O102 Zn85 1.920 . S
O102 C104 1.234 . S
C103 O89 1.305 1_455 S
C103 O90 1.234 1_455 S
C104 O101 1.305 . S
C104 O102 1.234 . S
Zn105 O111 1.920 . S
Zn105 O117 1.898 . S
Zn105 O120 1.905 1_655 S
Zn106 O114 1.905 . S
Zn106 O115 1.898 . S
Zn106 O123 1.920 . S
Zn107 O110 2.080 . S
Zn107 O113 2.114 . S
Zn107 O116 2.120 . S
Zn107 O118 2.120 . S
Zn107 O119 2.114 . S
Zn107 O122 2.080 . S
C108 O113 1.166 . S
C108 O114 1.182 . S
C109 O115 1.167 . S
C109 O116 1.299 . S
O110 Zn107 2.080 . S
O110 C124 1.305 . S
O111 Zn105 1.920 . S
O111 C124 1.234 . S
C112 O117 1.167 . S
C112 O118 1.299 . S
O113 Zn107 2.114 . S
O113 C108 1.166 . S
O114 Zn106 1.905 . S
O114 C108 1.182 . S
O115 Zn106 1.898 . S
O115 C109 1.167 . S
O116 Zn107 2.120 . S
O116 C109 1.299 . S
O117 Zn105 1.898 . S
O117 C112 1.167 . S
O118 Zn107 2.120 . S
O118 C112 1.299 . S
O119 Zn107 2.114 . S
O119 C121 1.166 1_655 S
O120 Zn105 1.905 1_455 S
O120 C121 1.182 . S
C121 O119 1.166 1_455 S
C121 O120 1.182 . S
O122 Zn107 2.080 . S
O122 C125 1.305 . S
O123 Zn106 1.920 . S
O123 C125 1.234 . S
C124 O110 1.305 . S
C124 O111 1.234 . S
C125 O122 1.305 . S
C125 O123 1.234 . S
Zn126 O132 1.920 . S
Zn126 O138 1.898 1_455 S
Zn126 O141 1.905 . S
Zn127 O135 1.905 . S
Zn127 O136 1.898 . S
Zn127 O144 1.920 . S
Zn128 O131 2.080 1_655 S
Zn128 O134 2.114 . S
Zn128 O137 2.120 . S
Zn128 O139 2.120 . S
Zn128 O140 2.114 . S
Zn128 O143 2.080 . S
C129 O134 1.166 . S
C129 O135 1.182 . S
C130 O136 1.167 . S
C130 O137 1.299 . S
O131 Zn128 2.080 1_455 S
O131 C145 1.305 . S
O132 Zn126 1.920 . S
O132 C145 1.234 . S
C133 O138 1.167 . S
C133 O139 1.299 . S
O134 Zn128 2.114 . S
O134 C129 1.166 . S
O135 Zn127 1.905 . S
O135 C129 1.182 . S
O136 Zn127 1.898 . S
O136 C130 1.167 . S
O137 Zn128 2.120 . S
O137 C130 1.299 . S
O138 Zn126 1.898 1_655 S
O138 C133 1.167 . S
O139 Zn128 2.120 . S
O139 C133 1.299 . S
O140 Zn128 2.114 . S
O140 C142 1.166 . S
O141 Zn126 1.905 . S
O141 C142 1.182 1_455 S
C142 O140 1.166 . S
C142 O141 1.182 1_655 S
O143 Zn128 2.080 . S
O143 C146 1.305 1_655 S
O144 Zn127 1.920 . S
O144 C146 1.234 1_655 S
C145 O131 1.305 . S
C145 O132 1.234 . S
C146 O143 1.305 1_455 S
C146 O144 1.234 1_455 S
Zn147 O153 1.920 . S
Zn147 O159 1.898 . S
Zn147 O162 1.905 1_655 S
Zn148 O156 1.905 . S
Zn148 O157 1.898 . S
Zn148 O165 1.920 . S
Zn149 O152 2.080 . S
Zn149 O155 2.114 . S
Zn149 O158 2.120 . S
Zn149 O160 2.120 . S
Zn149 O161 2.114 . S
Zn149 O164 2.080 . S
C150 O155 1.166 . S
C150 O156 1.182 . S
C151 O157 1.167 . S
C151 O158 1.299 . S
O152 Zn149 2.080 . S
O152 C166 1.305 . S
O153 Zn147 1.920 . S
O153 C166 1.234 . S
C154 O159 1.167 . S
C154 O160 1.299 . S
O155 Zn149 2.114 . S
O155 C150 1.166 . S
O156 Zn148 1.905 . S
O156 C150 1.182 . S
O157 Zn148 1.898 . S
O157 C151 1.167 . S
O158 Zn149 2.120 . S
O158 C151 1.299 . S
O159 Zn147 1.898 . S
O159 C154 1.167 . S
O160 Zn149 2.120 . S
O160 C154 1.299 . S
O161 Zn149 2.114 . S
O161 C163 1.166 1_655 S
O162 Zn147 1.905 1_455 S
O162 C163 1.182 . S
C163 O161 1.166 1_455 S
C163 O162 1.182 . S
O164 Zn149 2.080 . S
O164 C167 1.305 . S
O165 Zn148 1.920 . S
O165 C167 1.234 . S
C166 O152 1.305 . S
C166 O153 1.234 . S
C167 O164 1.305 . S
C167 O165 1.234 . S
Zn168 O174 1.920 . S
Zn168 O180 1.898 . S
Zn168 O183 1.905 . S
Zn169 O177 1.905 . S
Zn169 O178 1.898 1_655 S
Zn169 O186 1.920 . S
Zn170 O173 2.080 . S
Zn170 O176 2.114 1_565 S
Zn170 O179 2.120 . S
Zn170 O181 2.120 . S
Zn170 O182 2.114 . S
Zn170 O185 2.080 1_465 S
C171 O176 1.166 . S
C171 O177 1.182 1_455 S
C172 O178 1.167 . S
C172 O179 1.299 1_545 S
O173 Zn170 2.080 . S
O173 C187 1.305 1_455 S
O174 Zn168 1.920 . S
O174 C187 1.234 1_455 S
C175 O180 1.167 . S
C175 O181 1.299 . S
O176 Zn170 2.114 1_545 S
O176 C171 1.166 . S
O177 Zn169 1.905 . S
O177 C171 1.182 1_655 S
O178 Zn169 1.898 1_455 S
O178 C172 1.167 . S
O179 Zn170 2.120 . S
O179 C172 1.299 1_565 S
O180 Zn168 1.898 . S
O180 C175 1.167 . S
O181 Zn170 2.120 . S
O181 C175 1.299 . S
O182 Zn170 2.114 . S
O182 C184 1.166 . S
O183 Zn168 1.905 . S
O183 C184 1.182 . S
C184 O182 1.166 . S
C184 O183 1.182 . S
O185 Zn170 2.080 1_645 S
O185 C188 1.305 . S
O186 Zn169 1.920 . S
O186 C188 1.234 . S
C187 O173 1.305 1_655 S
C187 O174 1.234 1_655 S
C188 O185 1.305 . S
C188 O186 1.234 . S
Zn189 O195 1.920 . S
Zn189 O201 1.898 . S
Zn189 O204 1.905 . S
Zn190 O198 1.905 1_455 S
Zn190 O199 1.898 . S
Zn190 O207 1.920 . S
Zn191 O194 2.080 . S
Zn191 O197 2.114 . S
Zn191 O200 2.120 . S
Zn191 O202 2.120 . S
Zn191 O203 2.114 . S
Zn191 O206 2.080 . S
C192 O197 1.166 1_655 S
C192 O198 1.182 . S
C193 O199 1.167 . S
C193 O200 1.299 . S
O194 Zn191 2.080 . S
O194 C208 1.305 . S
O195 Zn189 1.920 . S
O195 C208 1.234 . S
C196 O201 1.167 . S
C196 O202 1.299 . S
O197 Zn191 2.114 . S
O197 C192 1.166 1_455 S
O198 Zn190 1.905 1_655 S
O198 C192 1.182 . S
O199 Zn190 1.898 . S
O199 C193 1.167 . S
O200 Zn191 2.120 . S
O200 C193 1.299 . S
O201 Zn189 1.898 . S
O201 C196 1.167 . S
O202 Zn191 2.120 . S
O202 C196 1.299 . S
O203 Zn191 2.114 . S
O203 C205 1.166 . S
O204 Zn189 1.905 . S
O204 C205 1.182 . S
C205 O203 1.166 . S
C205 O204 1.182 . S
O206 Zn191 2.080 . S
O206 C209 1.305 . S
O207 Zn190 1.920 . S
O207 C209 1.234 . S
C208 O194 1.305 . S
C208 O195 1.234 . S
C209 O206 1.305 . S
C209 O207 1.234 . S
Zn210 O216 1.920 . S
Zn210 O222 1.898 1_655 S
Zn210 O225 1.905 . S
Zn211 O219 1.905 . S
Zn211 O220 1.898 . S
Zn211 O228 1.920 . S
Zn212 O215 2.080 1_455 S
Zn212 O218 2.114 . S
Zn212 O221 2.120 . S
Zn212 O223 2.120 . S
Zn212 O224 2.114 . S
Zn212 O227 2.080 . S
C213 O218 1.166 . S
C213 O219 1.182 . S
C214 O220 1.167 . S
C214 O221 1.299 . S
O215 Zn212 2.080 1_655 S
O215 C229 1.305 . S
O216 Zn210 1.920 . S
O216 C229 1.234 . S
C217 O222 1.167 . S
C217 O223 1.299 . S
O218 Zn212 2.114 . S
O218 C213 1.166 . S
O219 Zn211 1.905 . S
O219 C213 1.182 . S
O220 Zn211 1.898 . S
O220 C214 1.167 . S
O221 Zn212 2.120 . S
O221 C214 1.299 . S
O222 Zn210 1.898 1_455 S
O222 C217 1.167 . S
O223 Zn212 2.120 . S
O223 C217 1.299 . S
O224 Zn212 2.114 . S
O224 C226 1.166 . S
O225 Zn210 1.905 . S
O225 C226 1.182 1_655 S
C226 O224 1.166 . S
C226 O225 1.182 1_455 S
O227 Zn212 2.080 . S
O227 C230 1.305 1_455 S
O228 Zn211 1.920 . S
O228 C230 1.234 1_455 S
C229 O215 1.305 . S
C229 O216 1.234 . S
C230 O227 1.305 1_655 S
C230 O228 1.234 1_655 S
Zn231 O237 1.920 . S
Zn231 O243 1.898 . S
Zn231 O246 1.905 . S
Zn232 O240 1.905 1_455 S
Zn232 O241 1.898 . S
Zn232 O249 1.920 . S
Zn233 O236 2.080 1_565 S
Zn233 O239 2.114 . S
Zn233 O242 2.120 . S
Zn233 O244 2.120 . S
Zn233 O245 2.114 1_565 S
Zn233 O248 2.080 . S
C234 O239 1.166 1_655 S
C234 O240 1.182 . S
C235 O241 1.167 . S
C235 O242 1.299 . S
O236 Zn233 2.080 1_545 S
O236 C250 1.305 . S
O237 Zn231 1.920 . S
O237 C250 1.234 . S
C238 O243 1.167 . S
C238 O244 1.299 1_545 S
O239 Zn233 2.114 . S
O239 C234 1.166 1_455 S
O240 Zn232 1.905 1_655 S
O240 C234 1.182 . S
O241 Zn232 1.898 . S
O241 C235 1.167 . S
O242 Zn233 2.120 . S
O242 C235 1.299 . S
O243 Zn231 1.898 . S
O243 C238 1.167 . S
O244 Zn233 2.120 . S
O244 C238 1.299 1_565 S
O245 Zn233 2.114 1_545 S
O245 C247 1.166 . S
O246 Zn231 1.905 . S
O246 C247 1.182 . S
C247 O245 1.166 . S
C247 O246 1.182 . S
O248 Zn233 2.080 . S
O248 C251 1.305 . S
O249 Zn232 1.920 . S
O249 C251 1.234 . S
C250 O236 1.305 . S
C250 O237 1.234 . S
C251 O248 1.305 . S
C251 O249 1.234 . S
Zn252 O258 1.920 . S
Zn252 O264 1.898 1_455 S
Zn252 O267 1.905 . S
Zn253 O261 1.905 . S
Zn253 O262 1.898 . S
Zn253 O270 1.920 . S
Zn254 O257 2.080 1_645 S
Zn254 O260 2.114 . S
Zn254 O263 2.120 . S
Zn254 O265 2.120 . S
Zn254 O266 2.114 1_545 S
Zn254 O269 2.080 . S
C255 O260 1.166 . S
C255 O261 1.182 . S
C256 O262 1.167 . S
C256 O263 1.299 . S
O257 Zn254 2.080 1_465 S
O257 C271 1.305 . S
O258 Zn252 1.920 . S
O258 C271 1.234 . S
C259 O264 1.167 . S
C259 O265 1.299 1_565 S
O260 Zn254 2.114 . S
O260 C255 1.166 . S
O261 Zn253 1.905 . S
O261 C255 1.182 . S
O262 Zn253 1.898 . S
O262 C256 1.167 . S
O263 Zn254 2.120 . S
O263 C256 1.299 . S
O264 Zn252 1.898 1_655 S
O264 C259 1.167 . S
O265 Zn254 2.120 . S
O265 C259 1.299 1_545 S
O266 Zn254 2.114 1_565 S
O266 C268 1.166 . S
O267 Zn252 1.905 . S
O267 C268 1.182 1_455 S
C268 O266 1.166 . S
C268 O267 1.182 1_655 S
O269 Zn254 2.080 . S
O269 C272 1.305 1_655 S
O270 Zn253 1.920 . S
O270 C272 1.234 1_655 S
C271 O257 1.305 . S
C271 O258 1.234 . S
C272 O269 1.305 1_455 S
C272 O270 1.234 1_455 S
Zn273 O279 1.920 . S
Zn273 O285 1.898 . S
Zn273 O288 1.905 1_655 S
Zn274 O282 1.905 . S
Zn274 O283 1.898 . S
Zn274 O291 1.920 . S
Zn275 O278 2.080 . S
Zn275 O281 2.114 . S
Zn275 O284 2.120 . S
Zn275 O286 2.120 . S
Zn275 O287 2.114 . S
Zn275 O290 2.080 . S
C276 O281 1.166 . S
C276 O282 1.182 . S
C277 O283 1.167 . S
C277 O284 1.299 . S
O278 Zn275 2.080 . S
O278 C292 1.305 . S
O279 Zn273 1.920 . S
O279 C292 1.234 . S
C280 O285 1.167 . S
C280 O286 1.299 . S
O281 Zn275 2.114 . S
O281 C276 1.166 . S
O282 Zn274 1.905 . S
O282 C276 1.182 . S
O283 Zn274 1.898 . S
O283 C277 1.167 . S
O284 Zn275 2.120 . S
O284 C277 1.299 . S
O285 Zn273 1.898 . S
O285 C280 1.167 . S
O286 Zn275 2.120 . S
O286 C280 1.299 . S
O287 Zn275 2.114 . S
O287 C289 1.166 1_655 S
O288 Zn273 1.905 1_455 S
O288 C289 1.182 . S
C289 O287 1.166 1_455 S
C289 O288 1.182 . S
O290 Zn275 2.080 . S
O290 C293 1.305 . S
O291 Zn274 1.920 . S
O291 C293 1.234 . S
C292 O278 1.305 . S
C292 O279 1.234 . S
C293 O290 1.305 . S
C293 O291 1.234 . S
Zn294 O300 1.920 . S
Zn294 O306 1.898 1_455 S
Zn294 O309 1.905 . S
Zn295 O303 1.905 . S
Zn295 O304 1.898 . S
Zn295 O312 1.920 . S
Zn296 O299 2.080 1_655 S
Zn296 O302 2.114 . S
Zn296 O305 2.120 . S
Zn296 O307 2.120 . S
Zn296 O308 2.114 . S
Zn296 O311 2.080 . S
C297 O302 1.166 . S
C297 O303 1.182 . S
C298 O304 1.167 . S
C298 O305 1.299 . S
O299 Zn296 2.080 1_455 S
O299 C313 1.305 . S
O300 Zn294 1.920 . S
O300 C313 1.234 . S
C301 O306 1.167 . S
C301 O307 1.299 . S
O302 Zn296 2.114 . S
O302 C297 1.166 . S
O303 Zn295 1.905 . S
O303 C297 1.182 . S
O304 Zn295 1.898 . S
O304 C298 1.167 . S
O305 Zn296 2.120 . S
O305 C298 1.299 . S
O306 Zn294 1.898 1_655 S
O306 C301 1.167 . S
O307 Zn296 2.120 . S
O307 C301 1.299 . S
O308 Zn296 2.114 . S
O308 C310 1.166 . S
O309 Zn294 1.905 . S
O309 C310 1.182 1_455 S
C310 O308 1.166 . S
C310 O309 1.182 1_655 S
O311 Zn296 2.080 . S
O311 C314 1.305 1_655 S
O312 Zn295 1.920 . S
O312 C314 1.234 1_655 S
C313 O299 1.305 . S
C313 O300 1.234 . S
C314 O311 1.305 1_455 S
C314 O312 1.234 1_455 S
Zn315 O321 1.920 . S
Zn315 O327 1.898 . S
Zn315 O330 1.905 . S
Zn316 O324 1.905 1_655 S
Zn316 O325 1.898 . S
Zn316 O333 1.920 . S
Zn317 O320 2.080 1_545 S
Zn317 O323 2.114 . S
Zn317 O326 2.120 . S
Zn317 O328 2.120 . S
Zn317 O329 2.114 1_545 S
Zn317 O332 2.080 . S
C318 O323 1.166 1_455 S
C318 O324 1.182 . S
C319 O325 1.167 . S
C319 O326 1.299 . S
O320 Zn317 2.080 1_565 S
O320 C334 1.305 . S
O321 Zn315 1.920 . S
O321 C334 1.234 . S
C322 O327 1.167 . S
C322 O328 1.299 1_565 S
O323 Zn317 2.114 . S
O323 C318 1.166 1_655 S
O324 Zn316 1.905 1_455 S
O324 C318 1.182 . S
O325 Zn316 1.898 . S
O325 C319 1.167 . S
O326 Zn317 2.120 . S
O326 C319 1.299 . S
O327 Zn315 1.898 . S
O327 C322 1.167 . S
O328 Zn317 2.120 . S
O328 C322 1.299 1_545 S
O329 Zn317 2.114 1_565 S
O329 C331 1.166 . S
O330 Zn315 1.905 . S
O330 C331 1.182 . S
C331 O329 1.166 . S
C331 O330 1.182 . S
O332 Zn317 2.080 . S
O332 C335 1.305 . S
O333 Zn316 1.920 . S
O333 C335 1.234 . S
C334 O320 1.305 . S
C334 O321 1.234 . S
C335 O332 1.305 . S
C335 O333 1.234 . S
Zn336 O342 1.920 . S
Zn336 O348 1.898 . S
Zn336 O351 1.905 . S
Zn337 O345 1.905 . S
Zn337 O346 1.898 . S
Zn337 O354 1.920 . S
Zn338 O341 2.080 . S
Zn338 O344 2.114 . S
Zn338 O347 2.120 . S
Zn338 O349 2.120 . S
Zn338 O350 2.114 . S
Zn338 O353 2.080 . S
C339 O344 1.166 . S
C339 O345 1.182 . S
C340 O346 1.167 . S
C340 O347 1.299 . S
O341 Zn338 2.080 . S
O341 C355 1.305 . S
O342 Zn336 1.920 . S
O342 C355 1.234 . S
C343 O348 1.167 . S
C343 O349 1.299 . S
O344 Zn338 2.114 . S
O344 C339 1.166 . S
O345 Zn337 1.905 . S
O345 C339 1.182 . S
O346 Zn337 1.898 . S
O346 C340 1.167 . S
O347 Zn338 2.120 . S
O347 C340 1.299 . S
O348 Zn336 1.898 . S
O348 C343 1.167 . S
O349 Zn338 2.120 . S
O349 C343 1.299 . S
O350 Zn338 2.114 . S
O350 C352 1.166 . S
O351 Zn336 1.905 . S
O351 C352 1.182 . S
C352 O350 1.166 . S
C352 O351 1.182 . S
O353 Zn338 2.080 . S
O353 C356 1.305 . S
O354 Zn337 1.920 . S
O354 C356 1.234 . S
C355 O341 1.305 . S
C355 O342 1.234 . S
C356 O353 1.305 . S
C356 O354 1.234 . S
Zn357 O363 1.920 1_655 S
Zn357 O369 1.898 . S
Zn357 O372 1.905 . S
Zn358 O366 1.905 . S
Zn358 O367 1.898 . S
Zn358 O375 1.920 . S
Zn359 O362 2.080 . S
Zn359 O365 2.114 . S
Zn359 O368 2.120 . S
Zn359 O370 2.120 . S
Zn359 O371 2.114 . S
Zn359 O374 2.080 . S
C360 O365 1.166 . S
C360 O366 1.182 . S
C361 O367 1.167 . S
C361 O368 1.299 . S
O362 Zn359 2.080 . S
O362 C376 1.305 . S
O363 Zn357 1.920 1_455 S
O363 C376 1.234 1_455 S
C364 O369 1.167 . S
C364 O370 1.299 . S
O365 Zn359 2.114 . S
O365 C360 1.166 . S
O366 Zn358 1.905 . S
O366 C360 1.182 . S
O367 Zn358 1.898 . S
O367 C361 1.167 . S
O368 Zn359 2.120 . S
O368 C361 1.299 . S
O369 Zn357 1.898 . S
O369 C364 1.167 . S
O370 Zn359 2.120 . S
O370 C364 1.299 . S
O371 Zn359 2.114 . S
O371 C373 1.166 . S
O372 Zn357 1.905 . S
O372 C373 1.182 . S
C373 O371 1.166 . S
C373 O372 1.182 . S
O374 Zn359 2.080 . S
O374 C377 1.305 . S
O375 Zn358 1.920 . S
O375 C377 1.234 . S
C376 O362 1.305 . S
C376 O363 1.234 1_655 S
C377 O374 1.305 . S
C377 O375 1.234 . S
Zn378 O384 1.920 . S
Zn378 O390 1.898 . S
Zn378 O393 1.905 . S
Zn379 O387 1.905 . S
Zn379 O388 1.898 . S
Zn379 O396 1.920 . S
Zn380 O383 2.080 . S
Zn380 O386 2.114 . S
Zn380 O389 2.120 . S
Zn380 O391 2.120 . S
Zn380 O392 2.114 . S
Zn380 O395 2.080 . S
C381 O386 1.166 . S
C381 O387 1.182 . S
C382 O388 1.167 . S
C382 O389 1.299 . S
O383 Zn380 2.080 . S
O383 C397 1.305 . S
O384 Zn378 1.920 . S
O384 C397 1.234 . S
C385 O390 1.167 . S
C385 O391 1.299 . S
O386 Zn380 2.114 . S
O386 C381 1.166 . S
O387 Zn379 1.905 . S
O387 C381 1.182 . S
O388 Zn379 1.898 . S
O388 C382 1.167 . S
O389 Zn380 2.120 . S
O389 C382 1.299 . S
O390 Zn378 1.898 . S
O390 C385 1.167 . S
O391 Zn380 2.120 . S
O391 C385 1.299 . S
O392 Zn380 2.114 . S
O392 C394 1.166 . S
O393 Zn378 1.905 . S
O393 C394 1.182 . S
C394 O392 1.166 . S
C394 O393 1.182 . S
O395 Zn380 2.080 . S
O395 C398 1.305 . S
O396 Zn379 1.920 . S
O396 C398 1.234 . S
C397 O383 1.305 . S
C397 O384 1.234 . S
C398 O395 1.305 . S
C398 O396 1.234 . S
Zn399 O405 1.920 . S
Zn399 O411 1.898 . S
Zn399 O414 1.905 . S
Zn400 O408 1.905 . S
Zn400 O409 1.898 . S
Zn400 O417 1.920 1_655 S
Zn401 O404 2.080 . S
Zn401 O407 2.114 . S
Zn401 O410 2.120 . S
Zn401 O412 2.120 . S
Zn401 O413 2.114 . S
Zn401 O416 2.080 . S
C402 O407 1.166 . S
C402 O408 1.182 . S
C403 O409 1.167 . S
C403 O410 1.299 . S
O404 Zn401 2.080 . S
O404 C418 1.305 . S
O405 Zn399 1.920 . S
O405 C418 1.234 . S
C406 O411 1.167 . S
C406 O412 1.299 . S
O407 Zn401 2.114 . S
O407 C402 1.166 . S
O408 Zn400 1.905 . S
O408 C402 1.182 . S
O409 Zn400 1.898 . S
O409 C403 1.167 . S
O410 Zn401 2.120 . S
O410 C403 1.299 . S
O411 Zn399 1.898 . S
O411 C406 1.167 . S
O412 Zn401 2.120 . S
O412 C406 1.299 . S
O413 Zn401 2.114 . S
O413 C415 1.166 . S
O414 Zn399 1.905 . S
O414 C415 1.182 . S
C415 O413 1.166 . S
C415 O414 1.182 . S
O416 Zn401 2.080 . S
O416 C419 1.305 . S
O417 Zn400 1.920 1_455 S
O417 C419 1.234 1_455 S
C418 O404 1.305 . S
C418 O405 1.234 . S
C419 O416 1.305 . S
C419 O417 1.234 1_655 S
Zn420 O426 1.920 . S
Zn420 O432 1.898 . S
Zn420 O435 1.905 . S
Zn421 O429 1.905 . S
Zn421 O430 1.898 . S
Zn421 O438 1.920 . S
Zn422 O425 2.080 . S
Zn422 O428 2.114 . S
Zn422 O431 2.120 . S
Zn422 O433 2.120 . S
Zn422 O434 2.114 . S
Zn422 O437 2.080 . S
C423 O428 1.166 . S
C423 O429 1.182 . S
C424 O430 1.167 . S
C424 O431 1.299 . S
O425 Zn422 2.080 . S
O425 C439 1.305 . S
O426 Zn420 1.920 . S
O426 C439 1.234 . S
C427 O432 1.167 . S
C427 O433 1.299 . S
O428 Zn422 2.114 . S
O428 C423 1.166 . S
O429 Zn421 1.905 . S
O429 C423 1.182 . S
O430 Zn421 1.898 . S
O430 C424 1.167 . S
O431 Zn422 2.120 . S
O431 C424 1.299 . S
O432 Zn420 1.898 . S
O432 C427 1.167 . S
O433 Zn422 2.120 . S
O433 C427 1.299 . S
O434 Zn422 2.114 . S
O434 C436 1.166 . S
O435 Zn420 1.905 . S
O435 C436 1.182 . S
C436 O434 1.166 . S
C436 O435 1.182 . S
O437 Zn422 2.080 . S
O437 C440 1.305 . S
O438 Zn421 1.920 . S
O438 C440 1.234 . S
C439 O425 1.305 . S
C439 O426 1.234 . S
C440 O437 1.305 . S
C440 O438 1.234 . S
Zn441 O447 1.920 . S
Zn441 O453 1.898 . S
Zn441 O456 1.905 . S
Zn442 O450 1.905 . S
Zn442 O451 1.898 . S
Zn442 O459 1.920 1_455 S
Zn443 O446 2.080 . S
Zn443 O449 2.114 . S
Zn443 O452 2.120 . S
Zn443 O454 2.120 . S
Zn443 O455 2.114 . S
Zn443 O458 2.080 . S
C444 O449 1.166 . S
C444 O450 1.182 . S
C445 O451 1.167 . S
C445 O452 1.299 . S
O446 Zn443 2.080 . S
O446 C460 1.305 . S
O447 Zn441 1.920 . S
O447 C460 1.234 . S
C448 O453 1.167 . S
C448 O454 1.299 . S
O449 Zn443 2.114 . S
O449 C444 1.166 . S
O450 Zn442 1.905 . S
O450 C444 1.182 . S
O451 Zn442 1.898 . S
O451 C445 1.167 . S
O452 Zn443 2.120 . S
O452 C445 1.299 . S
O453 Zn441 1.898 . S
O453 C448 1.167 . S
O454 Zn443 2.120 . S
O454 C448 1.299 . S
O455 Zn443 2.114 . S
O455 C457 1.166 . S
O456 Zn441 1.905 . S
O456 C457 1.182 . S
C457 O455 1.166 . S
C457 O456 1.182 . S
O458 Zn443 2.080 . S
O458 C461 1.305 . S
O459 Zn442 1.920 1_655 S
O459 C461 1.234 1_655 S
C460 O446 1.305 . S
C460 O447 1.234 . S
C461 O458 1.305 . S
C461 O459 1.234 1_455 S
Zn462 O468 1.920 . S
Zn462 O474 1.898 . S
Zn462 O477 1.905 . S
Zn463 O471 1.905 . S
Zn463 O472 1.898 . S
Zn463 O480 1.920 . S
Zn464 O467 2.080 . S
Zn464 O470 2.114 . S
Zn464 O473 2.120 . S
Zn464 O475 2.120 . S
Zn464 O476 2.114 . S
Zn464 O479 2.080 . S
C465 O470 1.166 . S
C465 O471 1.182 . S
C466 O472 1.167 . S
C466 O473 1.299 . S
O467 Zn464 2.080 . S
O467 C481 1.305 . S
O468 Zn462 1.920 . S
O468 C481 1.234 . S
C469 O474 1.167 . S
C469 O475 1.299 . S
O470 Zn464 2.114 . S
O470 C465 1.166 . S
O471 Zn463 1.905 . S
O471 C465 1.182 . S
O472 Zn463 1.898 . S
O472 C466 1.167 . S
O473 Zn464 2.120 . S
O473 C466 1.299 . S
O474 Zn462 1.898 . S
O474 C469 1.167 . S
O475 Zn464 2.120 . S
O475 C469 1.299 . S
O476 Zn464 2.114 . S
O476 C478 1.166 . S
O477 Zn462 1.905 . S
O477 C478 1.182 . S
C478 O476 1.166 . S
C478 O477 1.182 . S
O479 Zn464 2.080 . S
O479 C482 1.305 . S
O480 Zn463 1.920 . S
O480 C482 1.234 . S
C481 O467 1.305 . S
C481 O468 1.234 . S
C482 O479 1.305 . S
C482 O480 1.234 . S
Zn483 O489 1.920 1_455 S
Zn483 O495 1.898 . S
Zn483 O498 1.905 . S
Zn484 O492 1.905 . S
Zn484 O493 1.898 . S
Zn484 O501 1.920 . S
Zn485 O488 2.080 . S
Zn485 O491 2.114 . S
Zn485 O494 2.120 . S
Zn485 O496 2.120 . S
Zn485 O497 2.114 . S
Zn485 O500 2.080 . S
C486 O491 1.166 . S
C486 O492 1.182 . S
C487 O493 1.167 . S
C487 O494 1.299 . S
O488 Zn485 2.080 . S
O488 C502 1.305 . S
O489 Zn483 1.920 1_655 S
O489 C502 1.234 1_655 S
C490 O495 1.167 . S
C490 O496 1.299 . S
O491 Zn485 2.114 . S
O491 C486 1.166 . S
O492 Zn484 1.905 . S
O492 C486 1.182 . S
O493 Zn484 1.898 . S
O493 C487 1.167 . S
O494 Zn485 2.120 . S
O494 C487 1.299 . S
O495 Zn483 1.898 . S
O495 C490 1.167 . S
O496 Zn485 2.120 . S
O496 C490 1.299 . S
O497 Zn485 2.114 . S
O497 C499 1.166 . S
O498 Zn483 1.905 . S
O498 C499 1.182 . S
C499 O497 1.166 . S
C499 O498 1.182 . S
O500 Zn485 2.080 . S
O500 C503 1.305 . S
O501 Zn484 1.920 . S
O501 C503 1.234 . S
C502 O488 1.305 . S
C502 O489 1.234 1_455 S
C503 O500 1.305 . S
C503 O501 1.234 . S
Zn504 O510 1.920 . S
Zn504 O516 1.898 . S
Zn504 O519 1.905 . S
Zn505 O513 1.905 . S
Zn505 O514 1.898 . S
Zn505 O522 1.920 . S
Zn506 O509 2.080 . S
Zn506 O512 2.114 1_565 S
Zn506 O515 2.120 . S
Zn506 O517 2.120 . S
Zn506 O518 2.114 . S
Zn506 O521 2.080 1_565 S
C507 O512 1.166 . S
C507 O513 1.182 . S
C508 O514 1.167 . S
C508 O515 1.299 1_545 S
O509 Zn506 2.080 . S
O509 C523 1.305 . S
O510 Zn504 1.920 . S
O510 C523 1.234 . S
C511 O516 1.167 . S
C511 O517 1.299 . S
O512 Zn506 2.114 1_545 S
O512 C507 1.166 . S
O513 Zn505 1.905 . S
O513 C507 1.182 . S
O514 Zn505 1.898 . S
O514 C508 1.167 . S
O515 Zn506 2.120 . S
O515 C508 1.299 1_565 S
O516 Zn504 1.898 . S
O516 C511 1.167 . S
O517 Zn506 2.120 . S
O517 C511 1.299 . S
O518 Zn506 2.114 . S
O518 C520 1.166 . S
O519 Zn504 1.905 . S
O519 C520 1.182 . S
C520 O518 1.166 . S
C520 O519 1.182 . S
O521 Zn506 2.080 1_545 S
O521 C524 1.305 . S
O522 Zn505 1.920 . S
O522 C524 1.234 . S
C523 O509 1.305 . S
C523 O510 1.234 . S
C524 O521 1.305 . S
C524 O522 1.234 . S
Zn525 O531 1.920 1_655 S
Zn525 O537 1.898 . S
Zn525 O540 1.905 . S
Zn526 O534 1.905 . S
Zn526 O535 1.898 . S
Zn526 O543 1.920 . S
Zn527 O530 2.080 . S
Zn527 O533 2.114 . S
Zn527 O536 2.120 . S
Zn527 O538 2.120 . S
Zn527 O539 2.114 . S
Zn527 O542 2.080 . S
C528 O533 1.166 . S
C528 O534 1.182 . S
C529 O535 1.167 . S
C529 O536 1.299 . S
O530 Zn527 2.080 . S
O530 C544 1.305 . S
O531 Zn525 1.920 1_455 S
O531 C544 1.234 1_455 S
C532 O537 1.167 . S
C532 O538 1.299 . S
O533 Zn527 2.114 . S
O533 C528 1.166 . S
O534 Zn526 1.905 . S
O534 C528 1.182 . S
O535 Zn526 1.898 . S
O535 C529 1.167 . S
O536 Zn527 2.120 . S
O536 C529 1.299 . S
O537 Zn525 1.898 . S
O537 C532 1.167 . S
O538 Zn527 2.120 . S
O538 C532 1.299 . S
O539 Zn527 2.114 . S
O539 C541 1.166 . S
O540 Zn525 1.905 . S
O540 C541 1.182 . S
C541 O539 1.166 . S
C541 O540 1.182 . S
O542 Zn527 2.080 . S
O542 C545 1.305 . S
O543 Zn526 1.920 . S
O543 C545 1.234 . S
C544 O530 1.305 . S
C544 O531 1.234 1_655 S
C545 O542 1.305 . S
C545 O543 1.234 . S
Zn546 O552 1.920 . S
Zn546 O558 1.898 . S
Zn546 O561 1.905 . S
Zn547 O555 1.905 . S
Zn547 O556 1.898 . S
Zn547 O564 1.920 . S
Zn548 O551 2.080 . S
Zn548 O554 2.114 . S
Zn548 O557 2.120 . S
Zn548 O559 2.120 . S
Zn548 O560 2.114 . S
Zn548 O563 2.080 . S
C549 O554 1.166 . S
C549 O555 1.182 . S
C550 O556 1.167 . S
C550 O557 1.299 . S
O551 Zn548 2.080 . S
O551 C565 1.305 . S
O552 Zn546 1.920 . S
O552 C565 1.234 . S
C553 O558 1.167 . S
C553 O559 1.299 . S
O554 Zn548 2.114 . S
O554 C549 1.166 . S
O555 Zn547 1.905 . S
O555 C549 1.182 . S
O556 Zn547 1.898 . S
O556 C550 1.167 . S
O557 Zn548 2.120 . S
O557 C550 1.299 . S
O558 Zn546 1.898 . S
O558 C553 1.167 . S
O559 Zn548 2.120 . S
O559 C553 1.299 . S
O560 Zn548 2.114 . S
O560 C562 1.166 . S
O561 Zn546 1.905 . S
O561 C562 1.182 . S
C562 O560 1.166 . S
C562 O561 1.182 . S
O563 Zn548 2.080 . S
O563 C566 1.305 . S
O564 Zn547 1.920 . S
O564 C566 1.234 . S
C565 O551 1.305 . S
C565 O552 1.234 . S
C566 O563 1.305 . S
C566 O564 1.234 . S
Zn567 O573 1.920 1_655 S
Zn567 O579 1.898 . S
Zn567 O582 1.905 . S
Zn568 O576 1.905 . S
Zn568 O577 1.898 . S
Zn568 O585 1.920 . S
Zn569 O572 2.080 1_565 S
Zn569 O575 2.114 . S
Zn569 O578 2.120 . S
Zn569 O580 2.120 . S
Zn569 O581 2.114 1_565 S
Zn569 O584 2.080 . S
C570 O575 1.166 . S
C570 O576 1.182 . S
C571 O577 1.167 . S
C571 O578 1.299 . S
O572 Zn569 2.080 1_545 S
O572 C586 1.305 . S
O573 Zn567 1.920 1_455 S
O573 C586 1.234 1_455 S
C574 O579 1.167 . S
C574 O580 1.299 1_545 S
O575 Zn569 2.114 . S
O575 C570 1.166 . S
O576 Zn568 1.905 . S
O576 C570 1.182 . S
O577 Zn568 1.898 . S
O577 C571 1.167 . S
O578 Zn569 2.120 . S
O578 C571 1.299 . S
O579 Zn567 1.898 . S
O579 C574 1.167 . S
O580 Zn569 2.120 . S
O580 C574 1.299 1_565 S
O581 Zn569 2.114 1_545 S
O581 C583 1.166 . S
O582 Zn567 1.905 . S
O582 C583 1.182 . S
C583 O581 1.166 . S
C583 O582 1.182 . S
O584 Zn569 2.080 . S
O584 C587 1.305 . S
O585 Zn568 1.920 . S
O585 C587 1.234 . S
C586 O572 1.305 . S
C586 O573 1.234 1_655 S
C587 O584 1.305 . S
C587 O585 1.234 . S
Zn588 O594 1.920 . S
Zn588 O600 1.898 . S
Zn588 O603 1.905 . S
Zn589 O597 1.905 . S
Zn589 O598 1.898 . S
Zn589 O606 1.920 . S
Zn590 O593 2.080 . S
Zn590 O596 2.114 1_545 S
Zn590 O599 2.120 . S
Zn590 O601 2.120 . S
Zn590 O602 2.114 . S
Zn590 O605 2.080 1_545 S
C591 O596 1.166 . S
C591 O597 1.182 . S
C592 O598 1.167 . S
C592 O599 1.299 1_565 S
O593 Zn590 2.080 . S
O593 C607 1.305 . S
O594 Zn588 1.920 . S
O594 C607 1.234 . S
C595 O600 1.167 . S
C595 O601 1.299 . S
O596 Zn590 2.114 1_565 S
O596 C591 1.166 . S
O597 Zn589 1.905 . S
O597 C591 1.182 . S
O598 Zn589 1.898 . S
O598 C592 1.167 . S
O599 Zn590 2.120 . S
O599 C592 1.299 1_545 S
O600 Zn588 1.898 . S
O600 C595 1.167 . S
O601 Zn590 2.120 . S
O601 C595 1.299 . S
O602 Zn590 2.114 . S
O602 C604 1.166 . S
O603 Zn588 1.905 . S
O603 C604 1.182 . S
C604 O602 1.166 . S
C604 O603 1.182 . S
O605 Zn590 2.080 1_565 S
O605 C608 1.305 . S
O606 Zn589 1.920 . S
O606 C608 1.234 . S
C607 O593 1.305 . S
C607 O594 1.234 . S
C608 O605 1.305 . S
C608 O606 1.234 . S
Zn609 O615 1.920 . S
Zn609 O621 1.898 . S
Zn609 O624 1.905 . S
Zn610 O618 1.905 . S
Zn610 O619 1.898 . S
Zn610 O627 1.920 1_455 S
Zn611 O614 2.080 . S
Zn611 O617 2.114 . S
Zn611 O620 2.120 . S
Zn611 O622 2.120 . S
Zn611 O623 2.114 . S
Zn611 O626 2.080 . S
C612 O617 1.166 . S
C612 O618 1.182 . S
C613 O619 1.167 . S
C613 O620 1.299 . S
O614 Zn611 2.080 . S
O614 C628 1.305 . S
O615 Zn609 1.920 . S
O615 C628 1.234 . S
C616 O621 1.167 . S
C616 O622 1.299 . S
O617 Zn611 2.114 . S
O617 C612 1.166 . S
O618 Zn610 1.905 . S
O618 C612 1.182 . S
O619 Zn610 1.898 . S
O619 C613 1.167 . S
O620 Zn611 2.120 . S
O620 C613 1.299 . S
O621 Zn609 1.898 . S
O621 C616 1.167 . S
O622 Zn611 2.120 . S
O622 C616 1.299 . S
O623 Zn611 2.114 . S
O623 C625 1.166 . S
O624 Zn609 1.905 . S
O624 C625 1.182 . S
C625 O623 1.166 . S
C625 O624 1.182 . S
O626 Zn611 2.080 . S
O626 C629 1.305 . S
O627 Zn610 1.920 1_655 S
O627 C629 1.234 1_655 S
C628 O614 1.305 . S
C628 O615 1.234 . S
C629 O626 1.305 . S
C629 O627 1.234 1_455 S
Zn630 O636 1.920 . S
Zn630 O642 1.898 . S
Zn630 O645 1.905 . S
Zn631 O639 1.905 . S
Zn631 O640 1.898 . S
Zn631 O648 1.920 . S
Zn632 O635 2.080 . S
Zn632 O638 2.114 . S
Zn632 O641 2.120 . S
Zn632 O643 2.120 . S
Zn632 O644 2.114 . S
Zn632 O647 2.080 . S
C633 O638 1.166 . S
C633 O639 1.182 . S
C634 O640 1.167 . S
C634 O641 1.299 . S
O635 Zn632 2.080 . S
O635 C649 1.305 . S
O636 Zn630 1.920 . S
O636 C649 1.234 . S
C637 O642 1.167 . S
C637 O643 1.299 . S
O638 Zn632 2.114 . S
O638 C633 1.166 . S
O639 Zn631 1.905 . S
O639 C633 1.182 . S
O640 Zn631 1.898 . S
O640 C634 1.167 . S
O641 Zn632 2.120 . S
O641 C634 1.299 . S
O642 Zn630 1.898 . S
O642 C637 1.167 . S
O643 Zn632 2.120 . S
O643 C637 1.299 . S
O644 Zn632 2.114 . S
O644 C646 1.166 . S
O645 Zn630 1.905 . S
O645 C646 1.182 . S
C646 O644 1.166 . S
C646 O645 1.182 . S
O647 Zn632 2.080 . S
O647 C650 1.305 . S
O648 Zn631 1.920 . S
O648 C650 1.234 . S
C649 O635 1.305 . S
C649 O636 1.234 . S
C650 O647 1.305 . S
C650 O648 1.234 . S
Zn651 O657 1.920 . S
Zn651 O663 1.898 . S
Zn651 O666 1.905 . S
Zn652 O660 1.905 . S
Zn652 O661 1.898 . S
Zn652 O669 1.920 1_455 S
Zn653 O656 2.080 . S
Zn653 O659 2.114 1_545 S
Zn653 O662 2.120 . S
Zn653 O664 2.120 . S
Zn653 O665 2.114 . S
Zn653 O668 2.080 1_545 S
C654 O659 1.166 . S
C654 O660 1.182 . S
C655 O661 1.167 . S
C655 O662 1.299 1_565 S
O656 Zn653 2.080 . S
O656 C670 1.305 . S
O657 Zn651 1.920 . S
O657 C670 1.234 . S
C658 O663 1.167 . S
C658 O664 1.299 . S
O659 Zn653 2.114 1_565 S
O659 C654 1.166 . S
O660 Zn652 1.905 . S
O660 C654 1.182 . S
O661 Zn652 1.898 . S
O661 C655 1.167 . S
O662 Zn653 2.120 . S
O662 C655 1.299 1_545 S
O663 Zn651 1.898 . S
O663 C658 1.167 . S
O664 Zn653 2.120 . S
O664 C658 1.299 . S
O665 Zn653 2.114 . S
O665 C667 1.166 . S
O666 Zn651 1.905 . S
O666 C667 1.182 . S
C667 O665 1.166 . S
C667 O666 1.182 . S
O668 Zn653 2.080 1_565 S
O668 C671 1.305 . S
O669 Zn652 1.920 1_655 S
O669 C671 1.234 1_655 S
C670 O656 1.305 . S
C670 O657 1.234 . S
C671 O668 1.305 . S
C671 O669 1.234 1_455 S
C672 C673 1.387 . S
C672 H676 0.950 . S
C672 C681 1.390 . S
C673 C672 1.387 . S
C673 C675 1.387 . S
H674 C681 0.950 . S
C675 C673 1.387 . S
C675 C677 1.390 . S
C675 H679 0.950 . S
H676 C672 0.950 . S
C677 C675 1.390 . S
C677 C678 1.387 . S
C677 H680 0.950 . S
C678 C677 1.387 . S
C678 C681 1.387 . S
H679 C675 0.950 . S
H680 C677 0.950 . S
C681 C672 1.390 . S
C681 H674 0.950 . S
C681 C678 1.387 . S
C682 C683 1.387 . S
C682 H686 0.950 . S
C682 C691 1.390 . S
C683 C682 1.387 . S
C683 C685 1.387 . S
H684 C691 0.950 . S
C685 C683 1.387 . S
C685 C687 1.390 . S
C685 H689 0.950 . S
H686 C682 0.950 . S
C687 C685 1.390 . S
C687 C688 1.387 . S
C687 H690 0.950 . S
C688 C687 1.387 . S
C688 C691 1.387 . S
H689 C685 0.950 . S
H690 C687 0.950 . S
C691 C682 1.390 . S
C691 H684 0.950 . S
C691 C688 1.387 . S
C692 C693 1.387 . S
C692 H696 0.950 . S
C692 C701 1.390 . S
C693 C692 1.387 . S
C693 C695 1.387 . S
H694 C701 0.950 . S
C695 C693 1.387 . S
C695 C697 1.390 . S
C695 H699 0.950 . S
H696 C692 0.950 . S
C697 C695 1.390 . S
C697 C698 1.387 . S
C697 H700 0.950 . S
C698 C697 1.387 . S
C698 C701 1.387 . S
H699 C695 0.950 . S
H700 C697 0.950 . S
C701 C692 1.390 . S
C701 H694 0.950 . S
C701 C698 1.387 . S
C702 C703 1.387 . S
C702 H706 0.950 . S
C702 C711 1.390 . S
C703 C702 1.387 . S
C703 C705 1.387 . S
H704 C711 0.950 . S
C705 C703 1.387 . S
C705 C707 1.390 . S
C705 H709 0.950 . S
H706 C702 0.950 . S
C707 C705 1.390 . S
C707 C708 1.387 . S
C707 H710 0.950 . S
C708 C707 1.387 . S
C708 C711 1.387 . S
H709 C705 0.950 . S
H710 C707 0.950 . S
C711 C702 1.390 . S
C711 H704 0.950 . S
C711 C708 1.387 . S
C712 C713 1.387 . S
C712 H716 0.950 . S
C712 C721 1.390 . S
C713 C712 1.387 . S
C713 C715 1.387 . S
H714 C721 0.950 . S
C715 C713 1.387 . S
C715 C717 1.390 . S
C715 H719 0.950 . S
H716 C712 0.950 . S
C717 C715 1.390 . S
C717 C718 1.387 . S
C717 H720 0.950 . S
C718 C717 1.387 . S
C718 C721 1.387 . S
H719 C715 0.950 . S
H720 C717 0.950 . S
C721 C712 1.390 . S
C721 H714 0.950 . S
C721 C718 1.387 . S
C722 C723 1.387 . S
C722 H726 0.950 . S
C722 C731 1.390 . S
C723 C722 1.387 . S
C723 C725 1.387 . S
H724 C731 0.950 . S
C725 C723 1.387 . S
C725 C727 1.390 . S
C725 H729 0.950 . S
H726 C722 0.950 . S
C727 C725 1.390 . S
C727 C728 1.387 . S
C727 H730 0.950 . S
C728 C727 1.387 . S
C728 C731 1.387 . S
H729 C725 0.950 . S
H730 C727 0.950 . S
C731 C722 1.390 . S
C731 H724 0.950 . S
C731 C728 1.387 . S
C732 C733 1.387 . S
C732 H736 0.950 . S
C732 C741 1.390 . S
C733 C732 1.387 . S
C733 C735 1.387 . S
H734 C741 0.950 . S
C735 C733 1.387 . S
C735 C737 1.390 . S
C735 H739 0.950 . S
H736 C732 0.950 . S
C737 C735 1.390 . S
C737 C738 1.387 . S
C737 H740 0.950 . S
C738 C737 1.387 . S
C738 C741 1.387 . S
H739 C735 0.950 . S
H740 C737 0.950 . S
C741 C732 1.390 . S
C741 H734 0.950 . S
C741 C738 1.387 . S
C742 C743 1.387 . S
C742 H746 0.950 . S
C742 C751 1.390 . S
C743 C742 1.387 . S
C743 C745 1.387 . S
H744 C751 0.950 . S
C745 C743 1.387 . S
C745 C747 1.390 . S
C745 H749 0.950 . S
H746 C742 0.950 . S
C747 C745 1.390 . S
C747 C748 1.387 . S
C747 H750 0.950 . S
C748 C747 1.387 . S
C748 C751 1.387 . S
H749 C745 0.950 . S
H750 C747 0.950 . S
C751 C742 1.390 . S
C751 H744 0.950 . S
C751 C748 1.387 . S
C752 C753 1.387 . S
C752 H756 0.950 . S
C752 C761 1.390 . S
C753 C752 1.387 . S
C753 C755 1.387 . S
H754 C761 0.950 . S
C755 C753 1.387 . S
C755 C757 1.390 . S
C755 H759 0.950 . S
H756 C752 0.950 . S
C757 C755 1.390 . S
C757 C758 1.387 . S
C757 H760 0.950 . S
C758 C757 1.387 . S
C758 C761 1.387 . S
H759 C755 0.950 . S
H760 C757 0.950 . S
C761 C752 1.390 . S
C761 H754 0.950 . S
C761 C758 1.387 . S
C762 C763 1.387 . S
C762 H766 0.950 . S
C762 C771 1.390 . S
C763 C762 1.387 . S
C763 C765 1.387 . S
H764 C771 0.950 . S
C765 C763 1.387 . S
C765 C767 1.390 . S
C765 H769 0.950 . S
H766 C762 0.950 . S
C767 C765 1.390 . S
C767 C768 1.387 . S
C767 H770 0.950 . S
C768 C767 1.387 . S
C768 C771 1.387 . S
H769 C765 0.950 . S
H770 C767 0.950 . S
C771 C762 1.390 . S
C771 H764 0.950 . S
C771 C768 1.387 . S
C772 C773 1.387 . S
C772 H776 0.950 . S
C772 C781 1.390 . S
C773 C772 1.387 . S
C773 C775 1.387 . S
H774 C781 0.950 . S
C775 C773 1.387 . S
C775 C777 1.390 . S
C775 H779 0.950 . S
H776 C772 0.950 . S
C777 C775 1.390 . S
C777 C778 1.387 . S
C777 H780 0.950 . S
C778 C777 1.387 . S
C778 C781 1.387 . S
H779 C775 0.950 . S
H780 C777 0.950 . S
C781 C772 1.390 . S
C781 H774 0.950 . S
C781 C778 1.387 . S
C782 C783 1.387 . S
C782 H786 0.950 . S
C782 C791 1.390 . S
C783 C782 1.387 . S
C783 C785 1.387 . S
H784 C791 0.950 . S
C785 C783 1.387 . S
C785 C787 1.390 . S
C785 H789 0.950 . S
H786 C782 0.950 . S
C787 C785 1.390 . S
C787 C788 1.387 . S
C787 H790 0.950 . S
C788 C787 1.387 . S
C788 C791 1.387 . S
H789 C785 0.950 . S
H790 C787 0.950 . S
C791 C782 1.390 . S
C791 H784 0.950 . S
C791 C788 1.387 . S
C792 C793 1.387 . S
C792 H796 0.950 . S
C792 C801 1.390 . S
C793 C792 1.387 . S
C793 C795 1.387 . S
H794 C801 0.950 . S
C795 C793 1.387 . S
C795 C797 1.390 . S
C795 H799 0.950 . S
H796 C792 0.950 . S
C797 C795 1.390 . S
C797 C798 1.387 . S
C797 H800 0.950 . S
C798 C797 1.387 . S
C798 C801 1.387 . S
H799 C795 0.950 . S
H800 C797 0.950 . S
C801 C792 1.390 . S
C801 H794 0.950 . S
C801 C798 1.387 . S
C802 C803 1.387 . S
C802 H806 0.950 . S
C802 C811 1.390 . S
C803 C802 1.387 . S
C803 C805 1.387 . S
H804 C811 0.950 . S
C805 C803 1.387 . S
C805 C807 1.390 . S
C805 H809 0.950 . S
H806 C802 0.950 . S
C807 C805 1.390 . S
C807 C808 1.387 . S
C807 H810 0.950 . S
C808 C807 1.387 . S
C808 C811 1.387 . S
H809 C805 0.950 . S
H810 C807 0.950 . S
C811 C802 1.390 . S
C811 H804 0.950 . S
C811 C808 1.387 . S
C812 C813 1.387 . S
C812 H816 0.950 . S
C812 C821 1.390 . S
C813 C812 1.387 . S
C813 C815 1.387 . S
H814 C821 0.950 . S
C815 C813 1.387 . S
C815 C817 1.390 . S
C815 H819 0.950 . S
H816 C812 0.950 . S
C817 C815 1.390 . S
C817 C818 1.387 . S
C817 H820 0.950 . S
C818 C817 1.387 . S
C818 C821 1.387 . S
H819 C815 0.950 . S
H820 C817 0.950 . S
C821 C812 1.390 . S
C821 H814 0.950 . S
C821 C818 1.387 . S
C822 C823 1.387 . S
C822 H826 0.950 . S
C822 C831 1.390 . S
C823 C822 1.387 . S
C823 C825 1.387 . S
H824 C831 0.950 . S
C825 C823 1.387 . S
C825 C827 1.390 . S
C825 H829 0.950 . S
H826 C822 0.950 . S
C827 C825 1.390 . S
C827 C828 1.387 . S
C827 H830 0.950 . S
C828 C827 1.387 . S
C828 C831 1.387 . S
H829 C825 0.950 . S
H830 C827 0.950 . S
C831 C822 1.390 . S
C831 H824 0.950 . S
C831 C828 1.387 . S
C832 C833 1.387 . S
C832 H836 0.950 . S
C832 C841 1.390 . S
C833 C832 1.387 . S
C833 C835 1.387 . S
H834 C841 0.950 . S
C835 C833 1.387 . S
C835 C837 1.390 . S
C835 H839 0.950 . S
H836 C832 0.950 . S
C837 C835 1.390 . S
C837 C838 1.387 . S
C837 H840 0.950 . S
C838 C837 1.387 . S
C838 C841 1.387 . S
H839 C835 0.950 . S
H840 C837 0.950 . S
C841 C832 1.390 . S
C841 H834 0.950 . S
C841 C838 1.387 . S
C842 C843 1.387 . S
C842 H846 0.950 . S
C842 C851 1.390 . S
C843 C842 1.387 . S
C843 C845 1.387 . S
H844 C851 0.950 . S
C845 C843 1.387 . S
C845 C847 1.390 . S
C845 H849 0.950 . S
H846 C842 0.950 . S
C847 C845 1.390 . S
C847 C848 1.387 . S
C847 H850 0.950 . S
C848 C847 1.387 . S
C848 C851 1.387 . S
H849 C845 0.950 . S
H850 C847 0.950 . S
C851 C842 1.390 . S
C851 H844 0.950 . S
C851 C848 1.387 . S
C852 C853 1.387 . S
C852 H856 0.950 . S
C852 C861 1.390 . S
C853 C852 1.387 . S
C853 C855 1.387 . S
H854 C861 0.950 . S
C855 C853 1.387 . S
C855 C857 1.390 . S
C855 H859 0.950 . S
H856 C852 0.950 . S
C857 C855 1.390 . S
C857 C858 1.387 . S
C857 H860 0.950 . S
C858 C857 1.387 . S
C858 C861 1.387 . S
H859 C855 0.950 . S
H860 C857 0.950 . S
C861 C852 1.390 . S
C861 H854 0.950 . S
C861 C858 1.387 . S
C862 C863 1.387 . S
C862 H866 0.950 . S
C862 C871 1.390 . S
C863 C862 1.387 . S
C863 C865 1.387 . S
H864 C871 0.950 . S
C865 C863 1.387 . S
C865 C867 1.390 . S
C865 H869 0.950 . S
H866 C862 0.950 . S
C867 C865 1.390 . S
C867 C868 1.387 . S
C867 H870 0.950 . S
C868 C867 1.387 . S
C868 C871 1.387 . S
H869 C865 0.950 . S
H870 C867 0.950 . S
C871 C862 1.390 . S
C871 H864 0.950 . S
C871 C868 1.387 . S
C872 C873 1.387 1_565 S
C872 H876 0.950 . S
C872 C881 1.390 . S
C873 C872 1.387 1_545 S
C873 C875 1.387 . S
H874 C881 0.950 . S
C875 C873 1.387 . S
C875 C877 1.390 . S
C875 H879 0.950 . S
H876 C872 0.950 . S
C877 C875 1.390 . S
C877 C878 1.387 . S
C877 H880 0.950 . S
C878 C877 1.387 . S
C878 C881 1.387 1_545 S
H879 C875 0.950 . S
H880 C877 0.950 . S
C881 C872 1.390 . S
C881 H874 0.950 . S
C881 C878 1.387 1_565 S
C882 C883 1.387 . S
C882 H886 0.950 . S
C882 C891 1.390 . S
C883 C882 1.387 . S
C883 C885 1.387 . S
H884 C891 0.950 . S
C885 C883 1.387 . S
C885 C887 1.390 . S
C885 H889 0.950 . S
H886 C882 0.950 . S
C887 C885 1.390 . S
C887 C888 1.387 . S
C887 H890 0.950 . S
C888 C887 1.387 . S
C888 C891 1.387 . S
H889 C885 0.950 . S
H890 C887 0.950 . S
C891 C882 1.390 . S
C891 H884 0.950 . S
C891 C888 1.387 . S
C892 C893 1.387 . S
C892 H896 0.950 . S
C892 C901 1.390 . S
C893 C892 1.387 . S
C893 C895 1.387 1_565 S
H894 C901 0.950 . S
C895 C893 1.387 1_545 S
C895 C897 1.390 . S
C895 H899 0.950 . S
H896 C892 0.950 . S
C897 C895 1.390 . S
C897 C898 1.387 1_545 S
C897 H900 0.950 . S
C898 C897 1.387 1_565 S
C898 C901 1.387 . S
H899 C895 0.950 . S
H900 C897 0.950 . S
C901 C892 1.390 . S
C901 H894 0.950 . S
C901 C898 1.387 . S
C902 C903 1.387 . S
C902 H906 0.950 . S
C902 C911 1.390 . S
C903 C902 1.387 . S
C903 C905 1.387 . S
H904 C911 0.950 . S
C905 C903 1.387 . S
C905 C907 1.390 . S
C905 H909 0.950 . S
H906 C902 0.950 . S
C907 C905 1.390 . S
C907 C908 1.387 . S
C907 H910 0.950 . S
C908 C907 1.387 . S
C908 C911 1.387 . S
H909 C905 0.950 . S
H910 C907 0.950 . S
C911 C902 1.390 . S
C911 H904 0.950 . S
C911 C908 1.387 . S
C912 C913 1.387 . S
C912 H916 0.950 . S
C912 C921 1.390 . S
C913 C912 1.387 . S
C913 C915 1.387 . S
H914 C921 0.950 . S
C915 C913 1.387 . S
C915 C917 1.390 . S
C915 H919 0.950 . S
H916 C912 0.950 . S
C917 C915 1.390 . S
C917 C918 1.387 . S
C917 H920 0.950 . S
C918 C917 1.387 . S
C918 C921 1.387 . S
H919 C915 0.950 . S
H920 C917 0.950 . S
C921 C912 1.390 . S
C921 H914 0.950 . S
C921 C918 1.387 . S
C922 C923 1.387 . S
C922 H926 0.950 . S
C922 C931 1.390 . S
C923 C922 1.387 . S
C923 C925 1.387 . S
H924 C931 0.950 . S
C925 C923 1.387 . S
C925 C927 1.390 . S
C925 H929 0.950 . S
H926 C922 0.950 . S
C927 C925 1.390 . S
C927 C928 1.387 . S
C927 H930 0.950 . S
C928 C927 1.387 . S
C928 C931 1.387 . S
H929 C925 0.950 . S
H930 C927 0.950 . S
C931 C922 1.390 . S
C931 H924 0.950 . S
C931 C928 1.387 . S
C932 C933 1.387 . S
C932 H936 0.950 . S
C932 C941 1.390 . S
C933 C932 1.387 . S
C933 C935 1.387 . S
H934 C941 0.950 . S
C935 C933 1.387 . S
C935 C937 1.390 . S
C935 H939 0.950 . S
H936 C932 0.950 . S
C937 C935 1.390 . S
C937 C938 1.387 . S
C937 H940 0.950 . S
C938 C937 1.387 . S
C938 C941 1.387 . S
H939 C935 0.950 . S
H940 C937 0.950 . S
C941 C932 1.390 . S
C941 H934 0.950 . S
C941 C938 1.387 . S
C942 C943 1.387 . S
C942 H946 0.950 . S
C942 C951 1.390 . S
C943 C942 1.387 . S
C943 C945 1.387 . S
H944 C951 0.950 . S
C945 C943 1.387 . S
C945 C947 1.390 . S
C945 H949 0.950 . S
H946 C942 0.950 . S
C947 C945 1.390 . S
C947 C948 1.387 . S
C947 H950 0.950 . S
C948 C947 1.387 . S
C948 C951 1.387 . S
H949 C945 0.950 . S
H950 C947 0.950 . S
C951 C942 1.390 . S
C951 H944 0.950 . S
C951 C948 1.387 . S
C952 C953 1.387 1_565 S
C952 H956 0.950 . S
C952 C961 1.390 . S
C953 C952 1.387 1_545 S
C953 C955 1.387 . S
H954 C961 0.950 . S
C955 C953 1.387 . S
C955 C957 1.390 . S
C955 H959 0.950 . S
H956 C952 0.950 . S
C957 C955 1.390 . S
C957 C958 1.387 . S
C957 H960 0.950 . S
C958 C957 1.387 . S
C958 C961 1.387 1_545 S
H959 C955 0.950 . S
H960 C957 0.950 . S
C961 C952 1.390 . S
C961 H954 0.950 . S
C961 C958 1.387 1_565 S
C962 C963 1.387 . S
C962 H966 0.950 . S
C962 C971 1.390 . S
C963 C962 1.387 . S
C963 C965 1.387 . S
H964 C971 0.950 . S
C965 C963 1.387 . S
C965 C967 1.390 . S
C965 H969 0.950 . S
H966 C962 0.950 . S
C967 C965 1.390 . S
C967 C968 1.387 . S
C967 H970 0.950 . S
C968 C967 1.387 . S
C968 C971 1.387 . S
H969 C965 0.950 . S
H970 C967 0.950 . S
C971 C962 1.390 . S
C971 H964 0.950 . S
C971 C968 1.387 . S
C972 C973 1.387 . S
C972 H976 0.950 . S
C972 C981 1.390 . S
C973 C972 1.387 . S
C973 C975 1.387 1_565 S
H974 C981 0.950 . S
C975 C973 1.387 1_545 S
C975 C977 1.390 . S
C975 H979 0.950 . S
H976 C972 0.950 . S
C977 C975 1.390 . S
C977 C978 1.387 1_545 S
C977 H980 0.950 . S
C978 C977 1.387 1_565 S
C978 C981 1.387 . S
H979 C975 0.950 . S
H980 C977 0.950 . S
C981 C972 1.390 . S
C981 H974 0.950 . S
C981 C978 1.387 . S
C982 C983 1.387 . S
C982 H986 0.950 . S
C982 C991 1.390 . S
C983 C982 1.387 . S
C983 C985 1.387 . S
H984 C991 0.950 . S
C985 C983 1.387 . S
C985 C987 1.390 . S
C985 H989 0.950 . S
H986 C982 0.950 . S
C987 C985 1.390 . S
C987 C988 1.387 . S
C987 H990 0.950 . S
C988 C987 1.387 . S
C988 C991 1.387 . S
H989 C985 0.950 . S
H990 C987 0.950 . S
C991 C982 1.390 . S
C991 H984 0.950 . S
C991 C988 1.387 . S
C992 C993 1.387 . S
C992 H996 0.950 . S
C992 C1001 1.390 . S
C993 C992 1.387 . S
C993 C995 1.387 . S
H994 C1001 0.950 . S
C995 C993 1.387 . S
C995 C997 1.390 . S
C995 H999 0.950 . S
H996 C992 0.950 . S
C997 C995 1.390 . S
C997 C998 1.387 . S
C997 H1000 0.950 . S
C998 C997 1.387 . S
C998 C1001 1.387 . S
H999 C995 0.950 . S
H1000 C997 0.950 . S
C1001 C992 1.390 . S
C1001 H994 0.950 . S
C1001 C998 1.387 . S
C1002 C1003 1.387 . S
C1002 H1006 0.950 . S
C1002 C1011 1.390 . S
C1003 C1002 1.387 . S
C1003 C1005 1.387 . S
H1004 C1011 0.950 . S
C1005 C1003 1.387 . S
C1005 C1007 1.390 . S
C1005 H1009 0.950 . S
H1006 C1002 0.950 . S
C1007 C1005 1.390 . S
C1007 C1008 1.387 . S
C1007 H1010 0.950 . S
C1008 C1007 1.387 . S
C1008 C1011 1.387 . S
H1009 C1005 0.950 . S
H1010 C1007 0.950 . S
C1011 C1002 1.390 . S
C1011 H1004 0.950 . S
C1011 C1008 1.387 . S
C1012 C1013 1.387 . S
C1012 H1016 0.950 . S
C1012 C1021 1.390 . S
C1013 C1012 1.387 . S
C1013 C1015 1.387 . S
H1014 C1021 0.950 . S
C1015 C1013 1.387 . S
C1015 C1017 1.390 . S
C1015 H1019 0.950 . S
H1016 C1012 0.950 . S
C1017 C1015 1.390 . S
C1017 C1018 1.387 . S
C1017 H1020 0.950 . S
C1018 C1017 1.387 . S
C1018 C1021 1.387 . S
H1019 C1015 0.950 . S
H1020 C1017 0.950 . S
C1021 C1012 1.390 . S
C1021 H1014 0.950 . S
C1021 C1018 1.387 . S
C1022 C1023 1.387 . S
C1022 H1026 0.950 . S
C1022 C1031 1.390 . S
C1023 C1022 1.387 . S
C1023 C1025 1.387 . S
H1024 C1031 0.950 . S
C1025 C1023 1.387 . S
C1025 C1027 1.390 . S
C1025 H1029 0.950 . S
H1026 C1022 0.950 . S
C1027 C1025 1.390 . S
C1027 C1028 1.387 . S
C1027 H1030 0.950 . S
C1028 C1027 1.387 . S
C1028 C1031 1.387 . S
H1029 C1025 0.950 . S
H1030 C1027 0.950 . S
C1031 C1022 1.390 . S
C1031 H1024 0.950 . S
C1031 C1028 1.387 . S
C1032 C1033 1.387 . S
C1032 H1036 0.950 . S
C1032 C1041 1.390 . S
C1033 C1032 1.387 . S
C1033 C1035 1.387 . S
H1034 C1041 0.950 . S
C1035 C1033 1.387 . S
C1035 C1037 1.390 . S
C1035 H1039 0.950 . S
H1036 C1032 0.950 . S
C1037 C1035 1.390 . S
C1037 C1038 1.387 . S
C1037 H1040 0.950 . S
C1038 C1037 1.387 . S
C1038 C1041 1.387 . S
H1039 C1035 0.950 . S
H1040 C1037 0.950 . S
C1041 C1032 1.390 . S
C1041 H1034 0.950 . S
C1041 C1038 1.387 . S
C1042 C1043 1.387 . S
C1042 H1046 0.950 . S
C1042 C1051 1.390 . S
C1043 C1042 1.387 . S
C1043 C1045 1.387 . S
H1044 C1051 0.950 . S
C1045 C1043 1.387 . S
C1045 C1047 1.390 . S
C1045 H1049 0.950 . S
H1046 C1042 0.950 . S
C1047 C1045 1.390 . S
C1047 C1048 1.387 . S
C1047 H1050 0.950 . S
C1048 C1047 1.387 . S
C1048 C1051 1.387 . S
H1049 C1045 0.950 . S
H1050 C1047 0.950 . S
C1051 C1042 1.390 . S
C1051 H1044 0.950 . S
C1051 C1048 1.387 . S
C1052 C1053 1.387 . S
C1052 H1056 0.950 . S
C1052 C1061 1.390 . S
C1053 C1052 1.387 . S
C1053 C1055 1.387 . S
H1054 C1061 0.950 . S
C1055 C1053 1.387 . S
C1055 C1057 1.390 . S
C1055 H1059 0.950 . S
H1056 C1052 0.950 . S
C1057 C1055 1.390 . S
C1057 C1058 1.387 . S
C1057 H1060 0.950 . S
C1058 C1057 1.387 . S
C1058 C1061 1.387 . S
H1059 C1055 0.950 . S
H1060 C1057 0.950 . S
C1061 C1052 1.390 . S
C1061 H1054 0.950 . S
C1061 C1058 1.387 . S
C1062 C1063 1.387 . S
C1062 H1066 0.950 . S
C1062 C1071 1.390 . S
C1063 C1062 1.387 . S
C1063 C1065 1.387 . S
H1064 C1071 0.950 . S
C1065 C1063 1.387 . S
C1065 C1067 1.390 . S
C1065 H1069 0.950 . S
H1066 C1062 0.950 . S
C1067 C1065 1.390 . S
C1067 C1068 1.387 . S
C1067 H1070 0.950 . S
C1068 C1067 1.387 . S
C1068 C1071 1.387 . S
H1069 C1065 0.950 . S
H1070 C1067 0.950 . S
C1071 C1062 1.390 . S
C1071 H1064 0.950 . S
C1071 C1068 1.387 . S
C1072 C1073 1.387 . S
C1072 H1076 0.950 . S
C1072 C1081 1.390 . S
C1073 C1072 1.387 . S
C1073 C1075 1.387 . S
H1074 C1081 0.950 . S
C1075 C1073 1.387 . S
C1075 C1077 1.390 . S
C1075 H1079 0.950 . S
H1076 C1072 0.950 . S
C1077 C1075 1.390 . S
C1077 C1078 1.387 . S
C1077 H1080 0.950 . S
C1078 C1077 1.387 . S
C1078 C1081 1.387 . S
H1079 C1075 0.950 . S
H1080 C1077 0.950 . S
C1081 C1072 1.390 . S
C1081 H1074 0.950 . S
C1081 C1078 1.387 . S
C1082 C1083 1.387 . S
C1082 H1086 0.950 . S
C1082 C1091 1.390 . S
C1083 C1082 1.387 . S
C1083 C1085 1.387 . S
H1084 C1091 0.950 . S
C1085 C1083 1.387 . S
C1085 C1087 1.390 . S
C1085 H1089 0.950 . S
H1086 C1082 0.950 . S
C1087 C1085 1.390 . S
C1087 C1088 1.387 . S
C1087 H1090 0.950 . S
C1088 C1087 1.387 . S
C1088 C1091 1.387 . S
H1089 C1085 0.950 . S
H1090 C1087 0.950 . S
C1091 C1082 1.390 . S
C1091 H1084 0.950 . S
C1091 C1088 1.387 . S
C1092 C1093 1.387 . S
C1092 H1096 0.950 . S
C1092 C1101 1.390 . S
C1093 C1092 1.387 . S
C1093 C1095 1.387 . S
H1094 C1101 0.950 . S
C1095 C1093 1.387 . S
C1095 C1097 1.390 . S
C1095 H1099 0.950 . S
H1096 C1092 0.950 . S
C1097 C1095 1.390 . S
C1097 C1098 1.387 . S
C1097 H1100 0.950 . S
C1098 C1097 1.387 . S
C1098 C1101 1.387 . S
H1099 C1095 0.950 . S
H1100 C1097 0.950 . S
C1101 C1092 1.390 . S
C1101 H1094 0.950 . S
C1101 C1098 1.387 . S
C1102 C1103 1.387 . S
C1102 H1106 0.950 . S
C1102 C1111 1.390 . S
C1103 C1102 1.387 . S
C1103 C1105 1.387 . S
H1104 C1111 0.950 . S
C1105 C1103 1.387 . S
C1105 C1107 1.390 . S
C1105 H1109 0.950 . S
H1106 C1102 0.950 . S
C1107 C1105 1.390 . S
C1107 C1108 1.387 . S
C1107 H1110 0.950 . S
C1108 C1107 1.387 . S
C1108 C1111 1.387 . S
H1109 C1105 0.950 . S
H1110 C1107 0.950 . S
C1111 C1102 1.390 . S
C1111 H1104 0.950 . S
C1111 C1108 1.387 . S
C1112 C1113 1.387 . S
C1112 H1116 0.950 . S
C1112 C1121 1.390 . S
C1113 C1112 1.387 . S
C1113 C1115 1.387 . S
H1114 C1121 0.950 . S
C1115 C1113 1.387 . S
C1115 C1117 1.390 . S
C1115 H1119 0.950 . S
H1116 C1112 0.950 . S
C1117 C1115 1.390 . S
C1117 C1118 1.387 . S
C1117 H1120 0.950 . S
C1118 C1117 1.387 . S
C1118 C1121 1.387 . S
H1119 C1115 0.950 . S
H1120 C1117 0.950 . S
C1121 C1112 1.390 . S
C1121 H1114 0.950 . S
C1121 C1118 1.387 . S
C1122 C1123 1.387 . S
C1122 H1126 0.950 . S
C1122 C1131 1.390 . S
C1123 C1122 1.387 . S
C1123 C1125 1.387 . S
H1124 C1131 0.950 . S
C1125 C1123 1.387 . S
C1125 C1127 1.390 . S
C1125 H1129 0.950 . S
H1126 C1122 0.950 . S
C1127 C1125 1.390 . S
C1127 C1128 1.387 . S
C1127 H1130 0.950 . S
C1128 C1127 1.387 . S
C1128 C1131 1.387 . S
H1129 C1125 0.950 . S
H1130 C1127 0.950 . S
C1131 C1122 1.390 . S
C1131 H1124 0.950 . S
C1131 C1128 1.387 . S
C1132 C1133 1.387 . S
C1132 H1136 0.950 . S
C1132 C1141 1.390 . S
C1133 C1132 1.387 . S
C1133 C1135 1.387 . S
H1134 C1141 0.950 . S
C1135 C1133 1.387 . S
C1135 C1137 1.390 . S
C1135 H1139 0.950 . S
H1136 C1132 0.950 . S
C1137 C1135 1.390 . S
C1137 C1138 1.387 . S
C1137 H1140 0.950 . S
C1138 C1137 1.387 . S
C1138 C1141 1.387 . S
H1139 C1135 0.950 . S
H1140 C1137 0.950 . S
C1141 C1132 1.390 . S
C1141 H1134 0.950 . S
C1141 C1138 1.387 . S
C1142 C1143 1.387 . S
C1142 H1146 0.950 . S
C1142 C1151 1.390 . S
C1143 C1142 1.387 . S
C1143 C1145 1.387 . S
H1144 C1151 0.950 . S
C1145 C1143 1.387 . S
C1145 C1147 1.390 . S
C1145 H1149 0.950 . S
H1146 C1142 0.950 . S
C1147 C1145 1.390 . S
C1147 C1148 1.387 . S
C1147 H1150 0.950 . S
C1148 C1147 1.387 . S
C1148 C1151 1.387 . S
H1149 C1145 0.950 . S
H1150 C1147 0.950 . S
C1151 C1142 1.390 . S
C1151 H1144 0.950 . S
C1151 C1148 1.387 . S
C1152 C1153 1.387 . S
C1152 H1156 0.950 . S
C1152 C1161 1.390 . S
C1153 C1152 1.387 . S
C1153 C1155 1.387 . S
H1154 C1161 0.950 . S
C1155 C1153 1.387 . S
C1155 C1157 1.390 . S
C1155 H1159 0.950 . S
H1156 C1152 0.950 . S
C1157 C1155 1.390 . S
C1157 C1158 1.387 . S
C1157 H1160 0.950 . S
C1158 C1157 1.387 . S
C1158 C1161 1.387 . S
H1159 C1155 0.950 . S
H1160 C1157 0.950 . S
C1161 C1152 1.390 . S
C1161 H1154 0.950 . S
C1161 C1158 1.387 . S
C1162 C1163 1.387 . S
C1162 H1166 0.950 . S
C1162 C1171 1.390 . S
C1163 C1162 1.387 . S
C1163 C1165 1.387 . S
H1164 C1171 0.950 . S
C1165 C1163 1.387 . S
C1165 C1167 1.390 . S
C1165 H1169 0.950 . S
H1166 C1162 0.950 . S
C1167 C1165 1.390 . S
C1167 C1168 1.387 . S
C1167 H1170 0.950 . S
C1168 C1167 1.387 . S
C1168 C1171 1.387 . S
H1169 C1165 0.950 . S
H1170 C1167 0.950 . S
C1171 C1162 1.390 . S
C1171 H1164 0.950 . S
C1171 C1168 1.387 . S
C1172 C1173 1.387 . S
C1172 H1176 0.950 . S
C1172 C1181 1.390 . S
C1173 C1172 1.387 . S
C1173 C1175 1.387 . S
H1174 C1181 0.950 . S
C1175 C1173 1.387 . S
C1175 C1177 1.390 . S
C1175 H1179 0.950 . S
H1176 C1172 0.950 . S
C1177 C1175 1.390 . S
C1177 C1178 1.387 . S
C1177 H1180 0.950 . S
C1178 C1177 1.387 . S
C1178 C1181 1.387 . S
H1179 C1175 0.950 . S
H1180 C1177 0.950 . S
C1181 C1172 1.390 . S
C1181 H1174 0.950 . S
C1181 C1178 1.387 . S
C1182 C1183 1.387 . S
C1182 H1186 0.950 . S
C1182 C1191 1.390 . S
C1183 C1182 1.387 . S
C1183 C1185 1.387 . S
H1184 C1191 0.950 . S
C1185 C1183 1.387 . S
C1185 C1187 1.390 . S
C1185 H1189 0.950 . S
H1186 C1182 0.950 . S
C1187 C1185 1.390 . S
C1187 C1188 1.387 . S
C1187 H1190 0.950 . S
C1188 C1187 1.387 . S
C1188 C1191 1.387 . S
H1189 C1185 0.950 . S
H1190 C1187 0.950 . S
C1191 C1182 1.390 . S
C1191 H1184 0.950 . S
C1191 C1188 1.387 . S
C1192 C1193 1.387 . S
C1192 H1196 0.950 . S
C1192 C1201 1.390 . S
C1193 C1192 1.387 . S
C1193 C1195 1.387 . S
H1194 C1201 0.950 . S
C1195 C1193 1.387 . S
C1195 C1197 1.390 . S
C1195 H1199 0.950 . S
H1196 C1192 0.950 . S
C1197 C1195 1.390 . S
C1197 C1198 1.387 . S
C1197 H1200 0.950 . S
C1198 C1197 1.387 . S
C1198 C1201 1.387 . S
H1199 C1195 0.950 . S
H1200 C1197 0.950 . S
C1201 C1192 1.390 . S
C1201 H1194 0.950 . S
C1201 C1198 1.387 . S
C1202 C1203 1.387 . S
C1202 H1206 0.950 . S
C1202 C1211 1.390 . S
C1203 C1202 1.387 . S
C1203 C1205 1.387 . S
H1204 C1211 0.950 . S
C1205 C1203 1.387 . S
C1205 C1207 1.390 . S
C1205 H1209 0.950 . S
H1206 C1202 0.950 . S
C1207 C1205 1.390 . S
C1207 C1208 1.387 . S
C1207 H1210 0.950 . S
C1208 C1207 1.387 . S
C1208 C1211 1.387 . S
H1209 C1205 0.950 . S
H1210 C1207 0.950 . S
C1211 C1202 1.390 . S
C1211 H1204 0.950 . S
C1211 C1208 1.387 . S
C1212 C1213 1.387 . S
C1212 H1216 0.950 . S
C1212 C1221 1.390 . S
C1213 C1212 1.387 . S
C1213 C1215 1.387 . S
H1214 C1221 0.950 . S
C1215 C1213 1.387 . S
C1215 C1217 1.390 . S
C1215 H1219 0.950 . S
H1216 C1212 0.950 . S
C1217 C1215 1.390 . S
C1217 C1218 1.387 . S
C1217 H1220 0.950 . S
C1218 C1217 1.387 . S
C1218 C1221 1.387 . S
H1219 C1215 0.950 . S
H1220 C1217 0.950 . S
C1221 C1212 1.390 . S
C1221 H1214 0.950 . S
C1221 C1218 1.387 . S
C1222 C1223 1.387 . S
C1222 H1226 0.950 . S
C1222 C1231 1.390 . S
C1223 C1222 1.387 . S
C1223 C1225 1.387 . S
H1224 C1231 0.950 . S
C1225 C1223 1.387 . S
C1225 C1227 1.390 . S
C1225 H1229 0.950 . S
H1226 C1222 0.950 . S
C1227 C1225 1.390 . S
C1227 C1228 1.387 . S
C1227 H1230 0.950 . S
C1228 C1227 1.387 . S
C1228 C1231 1.387 . S
H1229 C1225 0.950 . S
H1230 C1227 0.950 . S
C1231 C1222 1.390 . S
C1231 H1224 0.950 . S
C1231 C1228 1.387 . S
C1232 C1233 1.387 . S
C1232 H1236 0.950 1_565 S
C1232 C1241 1.390 1_565 S
C1233 C1232 1.387 . S
C1233 C1235 1.387 . S
H1234 C1241 0.950 . S
C1235 C1233 1.387 . S
C1235 C1237 1.390 . S
C1235 H1239 0.950 . S
H1236 C1232 0.950 1_545 S
C1237 C1235 1.390 . S
C1237 C1238 1.387 . S
C1237 H1240 0.950 . S
C1238 C1237 1.387 . S
C1238 C1241 1.387 1_565 S
H1239 C1235 0.950 . S
H1240 C1237 0.950 . S
C1241 C1232 1.390 1_545 S
C1241 H1234 0.950 . S
C1241 C1238 1.387 1_545 S
C1242 C1243 1.387 . S
C1242 H1246 0.950 . S
C1242 C1251 1.390 . S
C1243 C1242 1.387 . S
C1243 C1245 1.387 . S
H1244 C1251 0.950 . S
C1245 C1243 1.387 . S
C1245 C1247 1.390 . S
C1245 H1249 0.950 . S
H1246 C1242 0.950 . S
C1247 C1245 1.390 . S
C1247 C1248 1.387 . S
C1247 H1250 0.950 . S
C1248 C1247 1.387 . S
C1248 C1251 1.387 . S
H1249 C1245 0.950 . S
H1250 C1247 0.950 . S
C1251 C1242 1.390 . S
C1251 H1244 0.950 . S
C1251 C1248 1.387 . S
C1252 C1253 1.387 . S
C1252 H1256 0.950 . S
C1252 C1261 1.390 . S
C1253 C1252 1.387 . S
C1253 C1255 1.387 . S
H1254 C1261 0.950 . S
C1255 C1253 1.387 . S
C1255 C1257 1.390 . S
C1255 H1259 0.950 . S
H1256 C1252 0.950 . S
C1257 C1255 1.390 . S
C1257 C1258 1.387 . S
C1257 H1260 0.950 . S
C1258 C1257 1.387 . S
C1258 C1261 1.387 . S
H1259 C1255 0.950 . S
H1260 C1257 0.950 . S
C1261 C1252 1.390 . S
C1261 H1254 0.950 . S
C1261 C1258 1.387 . S
C1262 C1263 1.387 . S
C1262 H1266 0.950 . S
C1262 C1271 1.390 . S
C1263 C1262 1.387 . S
C1263 C1265 1.387 . S
H1264 C1271 0.950 . S
C1265 C1263 1.387 . S
C1265 C1267 1.390 . S
C1265 H1269 0.943 1_565 S
H1266 C1262 0.950 . S
C1267 C1265 1.390 . S
C1267 C1268 1.387 . S
C1267 H1270 0.950 1_565 S
C1268 C1267 1.387 . S
C1268 C1271 1.387 . S
H1269 C1265 0.943 1_545 S
H1270 C1267 0.950 1_545 S
C1271 C1262 1.390 . S
C1271 H1264 0.950 . S
C1271 C1268 1.387 . S
C1272 C1273 1.387 . S
C1272 H1276 0.950 1_545 S
C1272 C1281 1.390 1_545 S
C1273 C1272 1.387 . S
C1273 C1275 1.387 . S
H1274 C1281 0.950 . S
C1275 C1273 1.387 . S
C1275 C1277 1.390 . S
C1275 H1279 0.950 . S
H1276 C1272 0.950 1_565 S
C1277 C1275 1.390 . S
C1277 C1278 1.387 . S
C1277 H1280 0.950 . S
C1278 C1277 1.387 . S
C1278 C1281 1.387 1_545 S
H1279 C1275 0.950 . S
H1280 C1277 0.950 . S
C1281 C1272 1.390 1_565 S
C1281 H1274 0.950 . S
C1281 C1278 1.387 1_565 S
C1282 C1283 1.387 . S
C1282 H1286 0.950 . S
C1282 C1291 1.390 . S
C1283 C1282 1.387 . S
C1283 C1285 1.387 . S
H1284 C1291 0.950 . S
C1285 C1283 1.387 . S
C1285 C1287 1.390 . S
C1285 H1289 0.950 . S
H1286 C1282 0.950 . S
C1287 C1285 1.390 . S
C1287 C1288 1.387 . S
C1287 H1290 0.950 . S
C1288 C1287 1.387 . S
C1288 C1291 1.387 . S
H1289 C1285 0.950 . S
H1290 C1287 0.950 . S
C1291 C1282 1.390 . S
C1291 H1284 0.950 . S
C1291 C1288 1.387 . S
C1292 C1293 1.387 . S
C1292 H1296 0.950 . S
C1292 C1301 1.390 . S
C1293 C1292 1.387 . S
C1293 C1295 1.387 . S
H1294 C1301 0.950 . S
C1295 C1293 1.387 . S
C1295 C1297 1.390 . S
C1295 H1299 0.950 . S
H1296 C1292 0.950 . S
C1297 C1295 1.390 . S
C1297 C1298 1.387 . S
C1297 H1300 0.950 . S
C1298 C1297 1.387 . S
C1298 C1301 1.387 . S
H1299 C1295 0.950 . S
H1300 C1297 0.950 . S
C1301 C1292 1.390 . S
C1301 H1294 0.950 . S
C1301 C1298 1.387 . S
C1302 C1303 1.387 . S
C1302 H1306 0.950 . S
C1302 C1311 1.390 . S
C1303 C1302 1.387 . S
C1303 C1305 1.387 . S
H1304 C1311 0.950 . S
C1305 C1303 1.387 . S
C1305 C1307 1.391 1_545 S
C1305 H1309 0.950 1_545 S
H1306 C1302 0.950 . S
C1307 C1305 1.391 1_565 S
C1307 C1308 1.388 1_565 S
C1307 H1310 0.948 . S
C1308 C1307 1.388 1_545 S
C1308 C1311 1.387 . S
H1309 C1305 0.950 1_565 S
H1310 C1307 0.948 . S
C1311 C1302 1.390 . S
C1311 H1304 0.950 . S
C1311 C1308 1.387 . S
C1312 C1313 1.387 . S
C1312 H1316 0.950 . S
C1312 C1321 1.390 1_455 S
C1313 C1312 1.387 . S
C1313 C1315 1.387 . S
H1314 C1321 0.950 . S
C1315 C1313 1.387 . S
C1315 C1317 1.390 1_455 S
C1315 H1319 0.950 . S
H1316 C1312 0.950 . S
C1317 C1315 1.390 1_655 S
C1317 C1318 1.387 . S
C1317 H1320 0.950 . S
C1318 C1317 1.387 . S
C1318 C1321 1.387 . S
H1319 C1315 0.950 . S
H1320 C1317 0.950 . S
C1321 C1312 1.390 1_655 S
C1321 H1314 0.950 . S
C1321 C1318 1.387 . S
C1322 C1323 1.387 . S
C1322 H1326 0.950 . S
C1322 C1331 1.390 . S
C1323 C1322 1.387 . S
C1323 C1325 1.387 . S
H1324 C1331 0.950 . S
C1325 C1323 1.387 . S
C1325 C1327 1.390 . S
C1325 H1329 0.950 . S
H1326 C1322 0.950 . S
C1327 C1325 1.390 . S
C1327 C1328 1.387 . S
C1327 H1330 0.950 . S
C1328 C1327 1.387 . S
C1328 C1331 1.387 . S
H1329 C1325 0.950 . S
H1330 C1327 0.950 . S
C1331 C1322 1.390 . S
C1331 H1324 0.950 . S
C1331 C1328 1.387 . S
C1332 C1333 1.387 . S
C1332 H1336 0.950 . S
C1332 C1341 1.390 1_655 S
C1333 C1332 1.387 . S
C1333 C1335 1.387 . S
H1334 C1341 0.950 . S
C1335 C1333 1.387 . S
C1335 C1337 1.390 1_655 S
C1335 H1339 0.950 . S
H1336 C1332 0.950 . S
C1337 C1335 1.390 1_455 S
C1337 C1338 1.387 . S
C1337 H1340 0.950 . S
C1338 C1337 1.387 . S
C1338 C1341 1.387 . S
H1339 C1335 0.950 . S
H1340 C1337 0.950 . S
C1341 C1332 1.390 1_455 S
C1341 H1334 0.950 . S
C1341 C1338 1.387 . S
C1342 C1343 1.387 . S
C1342 H1346 0.950 . S
C1342 C1351 1.390 . S
C1343 C1342 1.387 . S
C1343 C1345 1.387 . S
H1344 C1351 0.950 . S
C1345 C1343 1.387 . S
C1345 C1347 1.390 . S
C1345 H1349 0.950 . S
H1346 C1342 0.950 . S
C1347 C1345 1.390 . S
C1347 C1348 1.387 . S
C1347 H1350 0.950 . S
C1348 C1347 1.387 . S
C1348 C1351 1.387 . S
H1349 C1345 0.950 . S
H1350 C1347 0.950 . S
C1351 C1342 1.390 . S
C1351 H1344 0.950 . S
C1351 C1348 1.387 . S
C1352 C1353 1.387 . S
C1352 H1356 0.950 . S
C1352 C1361 1.390 1_655 S
C1353 C1352 1.387 . S
C1353 C1355 1.387 . S
H1354 C1361 0.950 . S
C1355 C1353 1.387 . S
C1355 C1357 1.390 1_655 S
C1355 H1359 0.950 . S
H1356 C1352 0.950 . S
C1357 C1355 1.390 1_455 S
C1357 C1358 1.387 . S
C1357 H1360 0.950 . S
C1358 C1357 1.387 . S
C1358 C1361 1.387 . S
H1359 C1355 0.950 . S
H1360 C1357 0.950 . S
C1361 C1352 1.390 1_455 S
C1361 H1354 0.950 . S
C1361 C1358 1.387 . S
C1362 C1363 1.387 . S
C1362 H1366 0.950 . S
C1362 C1371 1.390 . S
C1363 C1362 1.387 . S
C1363 C1365 1.387 . S
H1364 C1371 0.950 . S
C1365 C1363 1.387 . S
C1365 C1367 1.390 . S
C1365 H1369 0.950 . S
H1366 C1362 0.950 . S
C1367 C1365 1.390 . S
C1367 C1368 1.387 . S
C1367 H1370 0.950 . S
C1368 C1367 1.387 . S
C1368 C1371 1.387 . S
H1369 C1365 0.950 . S
H1370 C1367 0.950 . S
C1371 C1362 1.390 . S
C1371 H1364 0.950 . S
C1371 C1368 1.387 . S
C1372 C1373 1.387 . S
C1372 H1376 0.950 . S
C1372 C1381 1.390 1_455 S
C1373 C1372 1.387 . S
C1373 C1375 1.387 . S
H1374 C1381 0.950 . S
C1375 C1373 1.387 . S
C1375 C1377 1.390 1_455 S
C1375 H1379 0.950 . S
H1376 C1372 0.950 . S
C1377 C1375 1.390 1_655 S
C1377 C1378 1.387 . S
C1377 H1380 0.950 . S
C1378 C1377 1.387 . S
C1378 C1381 1.387 . S
H1379 C1375 0.950 . S
H1380 C1377 0.950 . S
C1381 C1372 1.390 1_655 S
C1381 H1374 0.950 . S
C1381 C1378 1.387 . S
C1382 C1383 1.387 . S
C1382 H1386 0.950 . S
C1382 C1391 1.390 . S
C1383 C1382 1.387 . S
C1383 C1385 1.387 . S
H1384 C1391 0.950 . S
C1385 C1383 1.387 . S
C1385 C1387 1.390 . S
C1385 H1389 0.950 . S
H1386 C1382 0.950 . S
C1387 C1385 1.390 . S
C1387 C1388 1.387 . S
C1387 H1390 0.950 . S
C1388 C1387 1.387 . S
C1388 C1391 1.387 . S
H1389 C1385 0.950 . S
H1390 C1387 0.950 . S
C1391 C1382 1.390 . S
C1391 H1384 0.950 . S
C1391 C1388 1.387 . S
C1392 C1393 1.387 . S
C1392 H1396 0.950 . S
C1392 C1401 1.390 1_655 S
C1393 C1392 1.387 . S
C1393 C1395 1.387 . S
H1394 C1401 0.950 1_545 S
C1395 C1393 1.387 . S
C1395 C1397 1.390 1_655 S
C1395 H1399 0.950 . S
H1396 C1392 0.950 . S
C1397 C1395 1.390 1_455 S
C1397 C1398 1.387 . S
C1397 H1400 0.950 . S
C1398 C1397 1.387 . S
C1398 C1401 1.387 . S
H1399 C1395 0.950 . S
H1400 C1397 0.950 . S
C1401 C1392 1.390 1_455 S
C1401 H1394 0.950 1_565 S
C1401 C1398 1.387 . S
C1402 C1403 1.387 . S
C1402 H1406 0.950 . S
C1402 C1411 1.390 . S
C1403 C1402 1.387 . S
C1403 C1405 1.387 . S
H1404 C1411 0.950 . S
C1405 C1403 1.387 . S
C1405 C1407 1.390 . S
C1405 H1409 0.950 . S
H1406 C1402 0.950 . S
C1407 C1405 1.390 . S
C1407 C1408 1.387 . S
C1407 H1410 0.950 . S
C1408 C1407 1.387 . S
C1408 C1411 1.387 . S
H1409 C1405 0.950 . S
H1410 C1407 0.950 . S
C1411 C1402 1.390 . S
C1411 H1404 0.950 . S
C1411 C1408 1.387 . S
C1412 C1413 1.387 . S
C1412 H1416 0.950 . S
C1412 C1421 1.390 1_655 S
C1413 C1412 1.387 . S
C1413 C1415 1.387 . S
H1414 C1421 0.950 . S
C1415 C1413 1.387 . S
C1415 C1417 1.390 1_655 S
C1415 H1419 0.950 . S
H1416 C1412 0.950 . S
C1417 C1415 1.390 1_455 S
C1417 C1418 1.387 . S
C1417 H1420 0.950 . S
C1418 C1417 1.387 . S
C1418 C1421 1.387 . S
H1419 C1415 0.950 . S
H1420 C1417 0.950 . S
C1421 C1412 1.390 1_455 S
C1421 H1414 0.950 . S
C1421 C1418 1.387 . S
C1422 C1423 1.387 1_545 S
C1422 H1426 0.950 . S
C1422 C1431 1.390 . S
C1423 C1422 1.387 1_565 S
C1423 C1425 1.387 . S
H1424 C1431 0.950 . S
C1425 C1423 1.387 . S
C1425 C1427 1.390 . S
C1425 H1429 0.950 . S
H1426 C1422 0.950 . S
C1427 C1425 1.390 . S
C1427 C1428 1.387 . S
C1427 H1430 0.950 . S
C1428 C1427 1.387 . S
C1428 C1431 1.387 1_565 S
H1429 C1425 0.950 . S
H1430 C1427 0.950 . S
C1431 C1422 1.390 . S
C1431 H1424 0.950 . S
C1431 C1428 1.387 1_545 S
C1432 C1433 1.387 . S
C1432 H1436 0.950 . S
C1432 C1441 1.390 1_655 S
C1433 C1432 1.387 . S
C1433 C1435 1.387 1_545 S
H1434 C1441 0.950 . S
C1435 C1433 1.387 1_565 S
C1435 C1437 1.390 1_665 S
C1435 H1439 0.950 . S
H1436 C1432 0.950 . S
C1437 C1435 1.390 1_445 S
C1437 C1438 1.387 . S
C1437 H1440 0.950 1_545 S
C1438 C1437 1.387 . S
C1438 C1441 1.387 . S
H1439 C1435 0.950 . S
H1440 C1437 0.950 1_565 S
C1441 C1432 1.390 1_455 S
C1441 H1434 0.950 . S
C1441 C1438 1.387 . S
C1442 C1443 1.387 . S
C1442 H1446 0.950 . S
C1442 C1451 1.390 . S
C1443 C1442 1.387 . S
C1443 C1445 1.387 . S
H1444 C1451 0.950 . S
C1445 C1443 1.387 . S
C1445 C1447 1.390 . S
C1445 H1449 0.950 . S
H1446 C1442 0.950 . S
C1447 C1445 1.390 . S
C1447 C1448 1.387 . S
C1447 H1450 0.950 . S
C1448 C1447 1.387 . S
C1448 C1451 1.387 . S
H1449 C1445 0.950 . S
H1450 C1447 0.950 . S
C1451 C1442 1.390 . S
C1451 H1444 0.950 . S
C1451 C1448 1.387 . S
C1452 C1453 1.387 . S
C1452 H1456 0.950 . S
C1452 C1461 1.390 1_455 S
C1453 C1452 1.387 . S
C1453 C1455 1.387 . S
H1454 C1461 0.950 . S
C1455 C1453 1.387 . S
C1455 C1457 1.390 1_455 S
C1455 H1459 0.950 . S
H1456 C1452 0.950 . S
C1457 C1455 1.390 1_655 S
C1457 C1458 1.387 . S
C1457 H1460 0.950 . S
C1458 C1457 1.387 . S
C1458 C1461 1.387 . S
H1459 C1455 0.950 . S
H1460 C1457 0.950 . S
C1461 C1452 1.390 1_655 S
C1461 H1454 0.950 . S
C1461 C1458 1.387 . S
C1462 C1463 1.387 . S
C1462 H1466 0.950 1_545 S
C1462 C1471 1.391 . S
C1463 C1462 1.387 . S
C1463 C1465 1.387 . S
H1464 C1471 0.946 1_565 S
C1465 C1463 1.387 . S
C1465 C1467 1.390 . S
C1465 H1469 0.950 . S
H1466 C1462 0.950 1_565 S
C1467 C1465 1.390 . S
C1467 C1468 1.387 . S
C1467 H1470 0.950 . S
C1468 C1467 1.387 . S
C1468 C1471 1.390 . S
H1469 C1465 0.950 . S
H1470 C1467 0.950 . S
C1471 C1462 1.391 . S
C1471 H1464 0.946 1_545 S
C1471 C1468 1.390 . S
C1472 C1473 1.387 . S
C1472 H1476 0.950 . S
C1472 C1481 1.390 1_554 S
C1473 C1472 1.387 . S
C1473 C1475 1.387 1_455 S
H1474 C1481 0.950 . S
C1475 C1473 1.387 1_655 S
C1475 C1477 1.390 1_554 S
C1475 H1479 0.950 . S
H1476 C1472 0.950 . S
C1477 C1475 1.390 1_556 S
C1477 C1478 1.387 . S
C1477 H1480 0.950 . S
C1478 C1477 1.387 . S
C1478 C1481 1.387 1_655 S
H1479 C1475 0.950 . S
H1480 C1477 0.950 . S
C1481 C1472 1.390 1_556 S
C1481 H1474 0.950 . S
C1481 C1478 1.387 1_455 S
C1482 C1483 1.387 . S
C1482 H1486 0.950 . S
C1482 C1491 1.390 1_556 S
C1483 C1482 1.387 . S
C1483 C1485 1.387 . S
H1484 C1491 0.950 . S
C1485 C1483 1.387 . S
C1485 C1487 1.390 1_556 S
C1485 H1489 0.950 . S
H1486 C1482 0.950 . S
C1487 C1485 1.390 1_554 S
C1487 C1488 1.387 . S
C1487 H1490 0.950 . S
C1488 C1487 1.387 . S
C1488 C1491 1.387 . S
H1489 C1485 0.950 . S
H1490 C1487 0.950 . S
C1491 C1482 1.390 1_554 S
C1491 H1484 0.950 . S
C1491 C1488 1.387 . S
C1492 C1493 1.389 . S
C1492 H1496 0.950 . S
C1492 C1501 1.389 1_655 S
C1493 C1492 1.389 . S
C1493 C1495 1.387 . S
H1494 C1501 0.950 . S
C1495 C1493 1.387 . S
C1495 C1497 1.389 1_655 S
C1495 H1499 0.950 . S
H1496 C1492 0.950 . S
C1497 C1495 1.389 1_455 S
C1497 C1498 1.389 . S
C1497 H1500 0.950 . S
C1498 C1497 1.389 . S
C1498 C1501 1.387 . S
H1499 C1495 0.950 . S
H1500 C1497 0.950 . S
C1501 C1492 1.389 1_455 S
C1501 H1494 0.950 . S
C1501 C1498 1.387 . S
C1502 C1503 1.387 . S
C1502 H1506 0.950 . S
C1502 C1511 1.390 . S
C1503 C1502 1.387 . S
C1503 C1505 1.387 . S
H1504 C1511 0.950 . S
C1505 C1503 1.387 . S
C1505 C1507 1.390 . S
C1505 H1509 0.950 . S
H1506 C1502 0.950 . S
C1507 C1505 1.390 . S
C1507 C1508 1.387 . S
C1507 H1510 0.950 . S
C1508 C1507 1.387 . S
C1508 C1511 1.387 . S
H1509 C1505 0.950 . S
H1510 C1507 0.950 . S
C1511 C1502 1.390 . S
C1511 H1504 0.950 . S
C1511 C1508 1.387 . S
C1512 C1513 1.387 . S
C1512 H1516 0.950 . S
C1512 C1521 1.390 1_556 S
C1513 C1512 1.387 . S
C1513 C1515 1.387 . S
H1514 C1521 0.950 . S
C1515 C1513 1.387 . S
C1515 C1517 1.390 1_556 S
C1515 H1519 0.950 . S
H1516 C1512 0.950 . S
C1517 C1515 1.390 1_554 S
C1517 C1518 1.387 . S
C1517 H1520 0.950 . S
C1518 C1517 1.387 . S
C1518 C1521 1.387 . S
H1519 C1515 0.950 . S
H1520 C1517 0.950 . S
C1521 C1512 1.390 1_554 S
C1521 H1514 0.950 . S
C1521 C1518 1.387 . S
C1522 C1523 1.387 . S
C1522 H1526 0.950 . S
C1522 C1531 1.390 1_655 S
C1523 C1522 1.387 . S
C1523 C1525 1.387 . S
H1524 C1531 0.950 . S
C1525 C1523 1.387 . S
C1525 C1527 1.390 1_655 S
C1525 H1529 0.950 . S
H1526 C1522 0.950 . S
C1527 C1525 1.390 1_455 S
C1527 C1528 1.387 . S
C1527 H1530 0.950 . S
C1528 C1527 1.387 . S
C1528 C1531 1.387 . S
H1529 C1525 0.950 . S
H1530 C1527 0.950 . S
C1531 C1522 1.390 1_455 S
C1531 H1524 0.950 . S
C1531 C1528 1.387 . S
C1532 C1533 1.387 . S
C1532 H1536 0.950 . S
C1532 C1541 1.390 . S
C1533 C1532 1.387 . S
C1533 C1535 1.387 . S
H1534 C1541 0.950 . S
C1535 C1533 1.387 . S
C1535 C1537 1.390 . S
C1535 H1539 0.950 . S
H1536 C1532 0.950 . S
C1537 C1535 1.390 . S
C1537 C1538 1.387 . S
C1537 H1540 0.950 . S
C1538 C1537 1.387 . S
C1538 C1541 1.387 . S
H1539 C1535 0.950 . S
H1540 C1537 0.950 . S
C1541 C1532 1.390 . S
C1541 H1534 0.950 . S
C1541 C1538 1.387 . S
C1542 C1543 1.387 1_565 S
C1542 H1546 0.950 . S
C1542 C1551 1.390 1_455 S
C1543 C1542 1.387 1_545 S
C1543 C1545 1.387 . S
H1544 C1551 0.950 . S
C1545 C1543 1.387 . S
C1545 C1547 1.390 1_455 S
C1545 H1549 0.950 . S
H1546 C1542 0.950 . S
C1547 C1545 1.390 1_655 S
C1547 C1548 1.387 1_545 S
C1547 H1550 0.950 . S
C1548 C1547 1.387 1_565 S
C1548 C1551 1.387 . S
H1549 C1545 0.950 . S
H1550 C1547 0.950 . S
C1551 C1542 1.390 1_655 S
C1551 H1544 0.950 . S
C1551 C1548 1.387 . S
C1552 C1553 1.387 . S
C1552 H1556 0.950 . S
C1552 C1561 1.390 . S
C1553 C1552 1.387 . S
C1553 C1555 1.387 . S
H1554 C1561 0.950 . S
C1555 C1553 1.387 . S
C1555 C1557 1.390 . S
C1555 H1559 0.950 . S
H1556 C1552 0.950 . S
C1557 C1555 1.390 . S
C1557 C1558 1.387 . S
C1557 H1560 0.950 . S
C1558 C1557 1.387 . S
C1558 C1561 1.387 . S
H1559 C1555 0.950 . S
H1560 C1557 0.950 . S
C1561 C1552 1.390 . S
C1561 H1554 0.950 . S
C1561 C1558 1.387 . S
C1562 C1563 1.387 1_545 S
C1562 H1566 0.950 . S
C1562 C1571 1.390 . S
C1563 C1562 1.387 1_565 S
C1563 C1565 1.387 . S
H1564 C1571 0.950 . S
C1565 C1563 1.387 . S
C1565 C1567 1.390 . S
C1565 H1569 0.950 . S
H1566 C1562 0.950 . S
C1567 C1565 1.390 . S
C1567 C1568 1.387 1_565 S
C1567 H1570 0.950 . S
C1568 C1567 1.387 1_545 S
C1568 C1571 1.387 . S
H1569 C1565 0.950 . S
H1570 C1567 0.950 . S
C1571 C1562 1.390 . S
C1571 H1564 0.950 . S
C1571 C1568 1.387 . S
C1572 C1573 1.387 . S
C1572 H1576 0.950 . S
C1572 C1581 1.390 . S
C1573 C1572 1.387 . S
C1573 C1575 1.387 . S
H1574 C1581 0.950 . S
C1575 C1573 1.387 . S
C1575 C1577 1.390 . S
C1575 H1579 0.950 . S
H1576 C1572 0.950 . S
C1577 C1575 1.390 . S
C1577 C1578 1.387 . S
C1577 H1580 0.950 . S
C1578 C1577 1.387 . S
C1578 C1581 1.387 . S
H1579 C1575 0.950 . S
H1580 C1577 0.950 . S
C1581 C1572 1.390 . S
C1581 H1574 0.950 . S
C1581 C1578 1.387 . S
C1582 C1583 1.387 1_565 S
C1582 H1586 0.950 . S
C1582 C1591 1.390 . S
C1583 C1582 1.387 1_545 S
C1583 C1585 1.387 . S
H1584 C1591 0.950 . S
C1585 C1583 1.387 . S
C1585 C1587 1.390 . S
C1585 H1589 0.950 . S
H1586 C1582 0.950 . S
C1587 C1585 1.390 . S
C1587 C1588 1.387 1_545 S
C1587 H1590 0.950 . S
C1588 C1587 1.387 1_565 S
C1588 C1591 1.387 . S
H1589 C1585 0.950 . S
H1590 C1587 0.950 . S
C1591 C1582 1.390 . S
C1591 H1584 0.950 . S
C1591 C1588 1.387 . S
C1592 C1593 1.387 . S
C1592 H1596 0.950 . S
C1592 C1601 1.390 . S
C1593 C1592 1.387 . S
C1593 C1595 1.387 . S
H1594 C1601 0.950 . S
C1595 C1593 1.387 . S
C1595 C1597 1.390 . S
C1595 H1599 0.950 . S
H1596 C1592 0.950 . S
C1597 C1595 1.390 . S
C1597 C1598 1.387 . S
C1597 H1600 0.950 . S
C1598 C1597 1.387 . S
C1598 C1601 1.387 . S
H1599 C1595 0.950 . S
H1600 C1597 0.950 . S
C1601 C1592 1.390 . S
C1601 H1594 0.950 . S
C1601 C1598 1.387 . S
C1602 C1603 1.387 . S
C1602 H1606 0.950 . S
C1602 C1611 1.390 . S
C1603 C1602 1.387 . S
C1603 C1605 1.387 . S
H1604 C1611 0.950 . S
C1605 C1603 1.387 . S
C1605 C1607 1.390 . S
C1605 H1609 0.950 . S
H1606 C1602 0.950 . S
C1607 C1605 1.390 . S
C1607 C1608 1.387 . S
C1607 H1610 0.950 . S
C1608 C1607 1.387 . S
C1608 C1611 1.387 . S
H1609 C1605 0.950 . S
H1610 C1607 0.950 . S
C1611 C1602 1.390 . S
C1611 H1604 0.950 . S
C1611 C1608 1.387 . S
C1612 C1613 1.387 . S
C1612 H1616 0.950 . S
C1612 C1621 1.390 . S
C1613 C1612 1.387 . S
C1613 C1615 1.387 . S
H1614 C1621 0.950 . S
C1615 C1613 1.387 . S
C1615 C1617 1.390 . S
C1615 H1619 0.950 . S
H1616 C1612 0.950 . S
C1617 C1615 1.390 . S
C1617 C1618 1.387 . S
C1617 H1620 0.950 . S
C1618 C1617 1.387 . S
C1618 C1621 1.387 . S
H1619 C1615 0.950 . S
H1620 C1617 0.950 . S
C1621 C1612 1.390 . S
C1621 H1614 0.950 . S
C1621 C1618 1.387 . S
C1622 C1623 1.387 1_565 S
C1622 H1626 0.950 . S
C1622 C1631 1.390 1_554 S
C1623 C1622 1.387 1_545 S
C1623 C1625 1.387 . S
H1624 C1631 0.950 . S
C1625 C1623 1.387 . S
C1625 C1627 1.390 1_554 S
C1625 H1629 0.950 . S
H1626 C1622 0.950 . S
C1627 C1625 1.390 1_556 S
C1627 C1628 1.387 1_545 S
C1627 H1630 0.950 . S
C1628 C1627 1.387 1_565 S
C1628 C1631 1.387 . S
H1629 C1625 0.950 . S
H1630 C1627 0.950 . S
C1631 C1622 1.390 1_556 S
C1631 H1624 0.950 . S
C1631 C1628 1.387 . S
C673 C20 1.168 . S
C678 C545 1.168 . S
C683 C523 1.168 . S
C688 C41 1.168 . S
C693 C587 1.164 . S
C698 C62 1.164 . S
C703 C82 1.164 . S
C708 C566 1.164 . S
C713 C103 1.168 . S
C718 C628 1.168 . S
C723 C124 1.164 . S
C728 C607 1.164 . S
C733 C146 1.164 . S
C738 C670 1.164 . S
C743 C649 1.164 . S
C748 C166 1.164 . S
C753 C187 1.164 . S
C758 C377 1.164 . S
C763 C209 1.164 . S
C768 C356 1.164 . S
C773 C230 1.164 . S
C778 C418 1.164 . S
C783 C398 1.164 . S
C788 C251 1.164 . S
C793 C272 1.164 . S
C798 C460 1.164 . S
C803 C292 1.164 . S
C808 C440 1.164 . S
C813 C503 1.168 . S
C818 C314 1.168 . S
C823 C335 1.164 . S
C828 C482 1.164 . S
C833 C7 1.302 . S
C838 C67 1.302 . S
C843 C28 1.302 . S
C848 C49 1.302 . S
C853 C151 1.302 . S
C858 C88 1.302 . S
C863 C133 1.302 . S
C868 C109 1.302 . S
C873 C172 1.302 . S
C878 C238 1.302 . S
C883 C196 1.307 . S
C888 C217 1.307 . S
C893 C259 1.302 . S
C898 C322 1.302 . S
C903 C301 1.307 . S
C908 C277 1.307 . S
C913 C343 1.307 . S
C918 C403 1.307 . S
C923 C364 1.302 . S
C928 C385 1.302 . S
C933 C490 1.302 . S
C938 C427 1.302 . S
C943 C445 1.302 . S
C948 C469 1.302 . S
C953 C574 1.302 . S
C958 C508 1.302 . S
C963 C532 1.302 . S
C968 C553 1.302 . S
C973 C655 1.302 . S
C978 C592 1.302 . S
C983 C634 1.302 . S
C988 C613 1.302 . S
C993 C37 1.694 . S
C998 C16 1.694 . S
C1003 C58 1.693 . S
C1008 C66 1.693 . S
C1013 C108 1.693 . S
C1018 C87 1.693 . S
C1023 C150 1.693 . S
C1028 C142 1.693 . S
C1033 C171 1.693 . S
C1038 C205 1.693 . S
C1043 C226 1.694 . S
C1048 C247 1.694 . S
C1053 C276 1.693 . S
C1058 C268 1.693 . S
C1063 C310 1.694 . S
C1068 C331 1.694 . S
C1073 C352 1.693 . S
C1078 C373 1.693 . S
C1083 C402 1.694 . S
C1088 C394 1.694 . S
C1093 C436 1.694 . S
C1098 C444 1.694 . S
C1103 C478 1.694 . S
C1108 C499 1.694 . S
C1113 C507 1.694 . S
C1118 C541 1.694 . S
C1123 C562 1.694 . S
C1128 C583 1.694 . S
C1133 C612 1.694 . S
C1138 C591 1.694 . S
C1143 C633 1.694 . S
C1148 C654 1.694 . S
C1153 C19 1.336 . S
C1158 C3 1.315 . S
C1163 C40 1.336 . S
C1168 C24 1.315 . S
C1173 C61 1.332 . S
C1178 C45 1.313 . S
C1183 C79 1.312 . S
C1188 C83 1.332 . S
C1193 C100 1.315 . S
C1198 C104 1.336 . S
C1203 C125 1.332 . S
C1208 C121 1.312 . S
C1213 C129 1.313 . S
C1218 C145 1.332 . S
C1223 C163 1.313 . S
C1228 C167 1.332 . S
C1233 C184 1.312 . S
C1238 C188 1.332 1_565 S
C1243 C208 1.332 . S
C1248 C192 1.313 . S
C1253 C229 1.332 . S
C1258 C213 1.313 . S
C1263 C234 1.315 . S
C1268 C250 1.336 1_565 S
C1273 C255 1.315 . S
C1278 C271 1.336 1_545 S
C1283 C293 1.332 . S
C1288 C289 1.313 . S
C1293 C313 1.335 . S
C1298 C297 1.316 . S
C1303 C318 1.313 . S
C1308 C334 1.332 1_545 S
C1313 C355 1.336 . S
C1318 C339 1.315 . S
C1323 C360 1.315 . S
C1328 C376 1.336 1_455 S
C1333 C381 1.312 . S
C1338 C397 1.333 . S
C1343 C419 1.332 1_455 S
C1348 C415 1.313 . S
C1353 C439 1.332 . S
C1358 C423 1.313 . S
C1363 C461 1.336 1_655 S
C1368 C457 1.315 . S
C1373 C465 1.313 . S
C1378 C481 1.332 . S
C1383 C502 1.332 1_655 S
C1388 C486 1.313 . S
C1393 C520 1.313 . S
C1398 C524 1.332 1_565 S
C1403 C544 1.332 1_455 S
C1408 C528 1.312 . S
C1413 C549 1.313 . S
C1418 C565 1.332 . S
C1423 C570 1.312 . S
C1428 C586 1.333 1_465 S
C1433 C608 1.332 1_545 S
C1438 C604 1.312 . S
C1443 C629 1.336 1_655 S
C1448 C625 1.315 . S
C1453 C646 1.314 . S
C1458 C650 1.336 . S
C1463 C667 1.315 . S
C1468 C671 1.336 1_645 S
C1473 C4 1.390 . S
C1478 C91 1.390 . S
C1483 C616 1.387 . S
C1488 C25 1.387 . S
C1493 C298 1.387 . S
C1498 C46 1.387 . S
C1503 C70 1.388 . S
C1508 C487 1.388 . S
C1513 C112 1.388 . S
C1518 C529 1.388 . S
C1523 C130 1.388 . S
C1528 C214 1.388 . S
C1533 C154 1.386 . S
C1538 C406 1.386 . S
C1543 C175 1.386 1_545 S
C1548 C256 1.386 1_565 S
C1553 C448 1.388 . S
C1558 C193 1.388 . S
C1563 C658 1.388 1_565 S
C1568 C235 1.388 1_545 S
C1573 C280 1.387 . S
C1578 C361 1.387 . S
C1583 C571 1.388 1_545 S
C1588 C319 1.388 1_565 S
C1593 C340 1.386 . S
C1598 C424 1.386 . S
C1603 C637 1.388 . S
C1608 C382 1.388 . S
C1613 C466 1.386 . S
C1618 C550 1.386 . S
C1623 C511 1.386 1_545 S
C1628 C595 1.386 1_565 S
