# Generated by pormake.
# Topology umq, (4)-cn, num edge types: 1
# Building blocks:
#     Node 0, Type 0, BuildingBlock: KUFVIS_clean_sbu_0, # of connection points: 4
#     Node 1, Type 0, BuildingBlock: KUFVIS_clean_sbu_0, # of connection points: 4
#     Node 2, Type 0, BuildingBlock: KUFVIS_clean_sbu_0, # of connection points: 4
#     Node 3, Type 0, BuildingBlock: KUFVIS_clean_sbu_0, # of connection points: 4
#     Node 4, Type 0, BuildingBlock: KUFVIS_clean_sbu_0, # of connection points: 4
#     Node 5, Type 0, BuildingBlock: KUFVIS_clean_sbu_0, # of connection points: 4
#     Node 6, Type 0, BuildingBlock: KUFVIS_clean_sbu_0, # of connection points: 4
#     Node 7, Type 0, BuildingBlock: KUFVIS_clean_sbu_0, # of connection points: 4
#     Node 8, Type 0, BuildingBlock: KUFVIS_clean_sbu_0, # of connection points: 4
#     Node 9, Type 0, BuildingBlock: KUFVIS_clean_sbu_0, # of connection points: 4
#     Node 10, Type 0, BuildingBlock: KUFVIS_clean_sbu_0, # of connection points: 4
#     Node 11, Type 0, BuildingBlock: KUFVIS_clean_sbu_0, # of connection points: 4
#     Node 12, Type 0, BuildingBlock: KUFVIS_clean_sbu_0, # of connection points: 4
#     Node 13, Type 0, BuildingBlock: KUFVIS_clean_sbu_0, # of connection points: 4
#     Node 14, Type 0, BuildingBlock: KUFVIS_clean_sbu_0, # of connection points: 4
#     Node 15, Type 0, BuildingBlock: KUFVIS_clean_sbu_0, # of connection points: 4
#     Node 16, Type 0, BuildingBlock: KUFVIS_clean_sbu_0, # of connection points: 4
#     Node 17, Type 0, BuildingBlock: KUFVIS_clean_sbu_0, # of connection points: 4
#     Node 18, Type 0, BuildingBlock: KUFVIS_clean_sbu_0, # of connection points: 4
#     Node 19, Type 0, BuildingBlock: KUFVIS_clean_sbu_0, # of connection points: 4
#     Node 20, Type 0, BuildingBlock: KUFVIS_clean_sbu_0, # of connection points: 4
#     Node 21, Type 0, BuildingBlock: KUFVIS_clean_sbu_0, # of connection points: 4
#     Node 22, Type 0, BuildingBlock: KUFVIS_clean_sbu_0, # of connection points: 4
#     Node 23, Type 0, BuildingBlock: KUFVIS_clean_sbu_0, # of connection points: 4
#     Node 24, Type 0, BuildingBlock: KUFVIS_clean_sbu_0, # of connection points: 4
#     Node 25, Type 0, BuildingBlock: KUFVIS_clean_sbu_0, # of connection points: 4
#     Node 26, Type 0, BuildingBlock: KUFVIS_clean_sbu_0, # of connection points: 4
#     Node 27, Type 0, BuildingBlock: KUFVIS_clean_sbu_0, # of connection points: 4
#     Node 28, Type 0, BuildingBlock: KUFVIS_clean_sbu_0, # of connection points: 4
#     Node 29, Type 0, BuildingBlock: KUFVIS_clean_sbu_0, # of connection points: 4
#     Node 30, Type 0, BuildingBlock: KUFVIS_clean_sbu_0, # of connection points: 4
#     Node 31, Type 0, BuildingBlock: KUFVIS_clean_sbu_0, # of connection points: 4
#     Edge 32, Type (0, 0), BuildingBlock: EZIPEK_clean_linker_0, # of connection points: 2
#     Edge 33, Type (0, 0), BuildingBlock: EZIPEK_clean_linker_0, # of connection points: 2
#     Edge 34, Type (0, 0), BuildingBlock: EZIPEK_clean_linker_0, # of connection points: 2
#     Edge 35, Type (0, 0), BuildingBlock: EZIPEK_clean_linker_0, # of connection points: 2
#     Edge 36, Type (0, 0), BuildingBlock: EZIPEK_clean_linker_0, # of connection points: 2
#     Edge 37, Type (0, 0), BuildingBlock: EZIPEK_clean_linker_0, # of connection points: 2
#     Edge 38, Type (0, 0), BuildingBlock: EZIPEK_clean_linker_0, # of connection points: 2
#     Edge 39, Type (0, 0), BuildingBlock: EZIPEK_clean_linker_0, # of connection points: 2
#     Edge 40, Type (0, 0), BuildingBlock: EZIPEK_clean_linker_0, # of connection points: 2
#     Edge 41, Type (0, 0), BuildingBlock: EZIPEK_clean_linker_0, # of connection points: 2
#     Edge 42, Type (0, 0), BuildingBlock: EZIPEK_clean_linker_0, # of connection points: 2
#     Edge 43, Type (0, 0), BuildingBlock: EZIPEK_clean_linker_0, # of connection points: 2
#     Edge 44, Type (0, 0), BuildingBlock: EZIPEK_clean_linker_0, # of connection points: 2
#     Edge 45, Type (0, 0), BuildingBlock: EZIPEK_clean_linker_0, # of connection points: 2
#     Edge 46, Type (0, 0), BuildingBlock: EZIPEK_clean_linker_0, # of connection points: 2
#     Edge 47, Type (0, 0), BuildingBlock: EZIPEK_clean_linker_0, # of connection points: 2
#     Edge 48, Type (0, 0), BuildingBlock: EZIPEK_clean_linker_0, # of connection points: 2
#     Edge 49, Type (0, 0), BuildingBlock: EZIPEK_clean_linker_0, # of connection points: 2
#     Edge 50, Type (0, 0), BuildingBlock: EZIPEK_clean_linker_0, # of connection points: 2
#     Edge 51, Type (0, 0), BuildingBlock: EZIPEK_clean_linker_0, # of connection points: 2
#     Edge 52, Type (0, 0), BuildingBlock: EZIPEK_clean_linker_0, # of connection points: 2
#     Edge 53, Type (0, 0), BuildingBlock: EZIPEK_clean_linker_0, # of connection points: 2
#     Edge 54, Type (0, 0), BuildingBlock: EZIPEK_clean_linker_0, # of connection points: 2
#     Edge 55, Type (0, 0), BuildingBlock: EZIPEK_clean_linker_0, # of connection points: 2
#     Edge 56, Type (0, 0), BuildingBlock: EZIPEK_clean_linker_0, # of connection points: 2
#     Edge 57, Type (0, 0), BuildingBlock: EZIPEK_clean_linker_0, # of connection points: 2
#     Edge 58, Type (0, 0), BuildingBlock: EZIPEK_clean_linker_0, # of connection points: 2
#     Edge 59, Type (0, 0), BuildingBlock: EZIPEK_clean_linker_0, # of connection points: 2
#     Edge 60, Type (0, 0), BuildingBlock: EZIPEK_clean_linker_0, # of connection points: 2
#     Edge 61, Type (0, 0), BuildingBlock: EZIPEK_clean_linker_0, # of connection points: 2
#     Edge 62, Type (0, 0), BuildingBlock: EZIPEK_clean_linker_0, # of connection points: 2
#     Edge 63, Type (0, 0), BuildingBlock: EZIPEK_clean_linker_0, # of connection points: 2
#     Edge 64, Type (0, 0), BuildingBlock: EZIPEK_clean_linker_0, # of connection points: 2
#     Edge 65, Type (0, 0), BuildingBlock: EZIPEK_clean_linker_0, # of connection points: 2
#     Edge 66, Type (0, 0), BuildingBlock: EZIPEK_clean_linker_0, # of connection points: 2
#     Edge 67, Type (0, 0), BuildingBlock: EZIPEK_clean_linker_0, # of connection points: 2
#     Edge 68, Type (0, 0), BuildingBlock: EZIPEK_clean_linker_0, # of connection points: 2
#     Edge 69, Type (0, 0), BuildingBlock: EZIPEK_clean_linker_0, # of connection points: 2
#     Edge 70, Type (0, 0), BuildingBlock: EZIPEK_clean_linker_0, # of connection points: 2
#     Edge 71, Type (0, 0), BuildingBlock: EZIPEK_clean_linker_0, # of connection points: 2
#     Edge 72, Type (0, 0), BuildingBlock: EZIPEK_clean_linker_0, # of connection points: 2
#     Edge 73, Type (0, 0), BuildingBlock: EZIPEK_clean_linker_0, # of connection points: 2
#     Edge 74, Type (0, 0), BuildingBlock: EZIPEK_clean_linker_0, # of connection points: 2
#     Edge 75, Type (0, 0), BuildingBlock: EZIPEK_clean_linker_0, # of connection points: 2
#     Edge 76, Type (0, 0), BuildingBlock: EZIPEK_clean_linker_0, # of connection points: 2
#     Edge 77, Type (0, 0), BuildingBlock: EZIPEK_clean_linker_0, # of connection points: 2
#     Edge 78, Type (0, 0), BuildingBlock: EZIPEK_clean_linker_0, # of connection points: 2
#     Edge 79, Type (0, 0), BuildingBlock: EZIPEK_clean_linker_0, # of connection points: 2
#     Edge 80, Type (0, 0), BuildingBlock: EZIPEK_clean_linker_0, # of connection points: 2
#     Edge 81, Type (0, 0), BuildingBlock: EZIPEK_clean_linker_0, # of connection points: 2
#     Edge 82, Type (0, 0), BuildingBlock: EZIPEK_clean_linker_0, # of connection points: 2
#     Edge 83, Type (0, 0), BuildingBlock: EZIPEK_clean_linker_0, # of connection points: 2
#     Edge 84, Type (0, 0), BuildingBlock: EZIPEK_clean_linker_0, # of connection points: 2
#     Edge 85, Type (0, 0), BuildingBlock: EZIPEK_clean_linker_0, # of connection points: 2
#     Edge 86, Type (0, 0), BuildingBlock: EZIPEK_clean_linker_0, # of connection points: 2
#     Edge 87, Type (0, 0), BuildingBlock: EZIPEK_clean_linker_0, # of connection points: 2
#     Edge 88, Type (0, 0), BuildingBlock: EZIPEK_clean_linker_0, # of connection points: 2
#     Edge 89, Type (0, 0), BuildingBlock: EZIPEK_clean_linker_0, # of connection points: 2
#     Edge 90, Type (0, 0), BuildingBlock: EZIPEK_clean_linker_0, # of connection points: 2
#     Edge 91, Type (0, 0), BuildingBlock: EZIPEK_clean_linker_0, # of connection points: 2
#     Edge 92, Type (0, 0), BuildingBlock: EZIPEK_clean_linker_0, # of connection points: 2
#     Edge 93, Type (0, 0), BuildingBlock: EZIPEK_clean_linker_0, # of connection points: 2
#     Edge 94, Type (0, 0), BuildingBlock: EZIPEK_clean_linker_0, # of connection points: 2
#     Edge 95, Type (0, 0), BuildingBlock: EZIPEK_clean_linker_0, # of connection points: 2
# Relax obj value: 0.074
# Max RMSD: 0.055
# Mean RMSD: 0.055
data_MOF--net-umq--node1-KUFVIS_clean_sbu_0--edge1-EZIPEK_clean_linker_0
_symmetry_space_group_name_H-M    P1
_symmetry_Int_Tables_number       1
_symmetry_cell_setting            triclinic
loop_
_symmetry_equiv_pos_as_xyz
'x, y, z'
_cell_length_a     48.389203
_cell_length_b     48.420513
_cell_length_c     31.600738
_cell_angle_alpha  89.997132
_cell_angle_beta   89.950872
_cell_angle_gamma 90.133093
loop_
_atom_site_label
_atom_site_type_symbol
_atom_site_fract_x
_atom_site_fract_y
_atom_site_fract_z
_atom_type_partial_charge
Mn0 Mn 0.24505 0.1063 0.18912 0.0
Mn1 Mn 0.21527 0.155 0.12694 0.0
C2 C 0.21813 0.14085 0.21921 0.0
C3 C 0.24377 0.06273 0.22144 0.0
C4 C 0.27528 0.15774 0.15446 0.0
O5 O 0.24899 0.0894 0.13017 0.0
O6 O 0.22851 0.12323 0.09282 0.0
C7 C 0.1669 0.12042 0.10449 0.0
N8 N 0.17741 0.14412 0.1212 0.0
C9 C 0.13193 0.16008 0.13993 0.0
C10 C 0.12065 0.13583 0.12286 0.0
C11 C 0.13822 0.1159 0.10509 0.0
C12 C 0.1607 0.16323 0.13895 0.0
H13 H 0.1803 0.10504 0.091 0.0
C14 C 0.24085 0.09998 0.09543 0.0
O15 O 0.267 0.07548 0.21458 0.0
O16 O 0.22146 0.0749 0.2086 0.0
N17 N 0.2011 0.18748 0.15368 0.0
C18 C 0.2148 0.21161 0.16122 0.0
C19 C 0.20007 0.23477 0.17556 0.0
C20 C 0.17131 0.23309 0.18101 0.0
C21 C 0.15742 0.20864 0.17028 0.0
C22 C 0.17319 0.18647 0.15527 0.0
H23 H 0.23685 0.21317 0.15641 0.0
O24 O 0.23541 0.12693 0.24206 0.0
O25 O 0.21651 0.13373 0.17962 0.0
O26 O 0.27541 0.13468 0.17436 0.0
O27 O 0.25408 0.16728 0.135 0.0
C28 C 0.12847 0.20578 0.17225 0.0
C29 C 0.11575 0.18138 0.15747 0.0
H30 H 0.09852 0.13237 0.12302 0.0
H31 H 0.12969 0.09712 0.09184 0.0
H32 H 0.21088 0.25383 0.18251 0.0
H33 H 0.16004 0.2509 0.19245 0.0
H34 H 0.11577 0.2224 0.18437 0.0
H35 H 0.09345 0.17949 0.15881 0.0
Mn36 Mn 0.9133 0.23995 0.19121 0.0
Mn37 Mn 0.85847 0.2178 0.13391 0.0
C38 C 0.88361 0.20698 0.22159 0.0
C39 C 0.95913 0.23753 0.21482 0.0
C40 C 0.86089 0.27371 0.17649 0.0
O41 O 0.92511 0.24975 0.13093 0.0
O42 O 0.8881 0.23289 0.09609 0.0
C43 C 0.88132 0.17243 0.08182 0.0
N44 N 0.8622 0.18181 0.10993 0.0
C45 C 0.83324 0.14202 0.09818 0.0
C46 C 0.85284 0.13177 0.06951 0.0
C47 C 0.87706 0.14698 0.06149 0.0
C48 C 0.83884 0.1673 0.11791 0.0
H49 H 0.89937 0.18451 0.07446 0.0
C50 C 0.91199 0.24443 0.0969 0.0
O51 O 0.94533 0.26041 0.21567 0.0
O52 O 0.94681 0.21614 0.19865 0.0
N53 N 0.82833 0.20252 0.16521 0.0
C54 C 0.81274 0.21432 0.19619 0.0
C55 C 0.78851 0.20098 0.20983 0.0
C56 C 0.78032 0.17602 0.19081 0.0
C57 C 0.79674 0.16432 0.15899 0.0
C58 C 0.82097 0.17821 0.14746 0.0
H59 H 0.81862 0.2339 0.20994 0.0
O60 O 0.89744 0.22469 0.24379 0.0
O61 O 0.88565 0.21034 0.18035 0.0
O62 O 0.88492 0.27157 0.19229 0.0
O63 O 0.84976 0.25493 0.15438 0.0
C64 C 0.79017 0.13929 0.1385 0.0
C65 C 0.80841 0.12815 0.10807 0.0
H66 H 0.8495 0.11229 0.05345 0.0
H67 H 0.89215 0.13935 0.03908 0.0
H68 H 0.77589 0.21017 0.23433 0.0
H69 H 0.76145 0.16594 0.20083 0.0
H70 H 0.77143 0.12816 0.14651 0.0
H71 H 0.80338 0.10867 0.09306 0.0
Mn72 Mn 0.77513 0.90872 0.1896 0.0
Mn73 Mn 0.80465 0.85956 0.12814 0.0
C74 C 0.80146 0.87403 0.22011 0.0
C75 C 0.77648 0.9523 0.22124 0.0
C76 C 0.74485 0.85694 0.15599 0.0
O77 O 0.77152 0.92555 0.13086 0.0
O78 O 0.79048 0.89079 0.0937 0.0
C79 C 0.85213 0.89482 0.10355 0.0
N80 N 0.84223 0.87109 0.12111 0.0
C81 C 0.88819 0.85615 0.13895 0.0
C82 C 0.89884 0.88043 0.12103 0.0
C83 C 0.88072 0.89986 0.10328 0.0
C84 C 0.85947 0.85248 0.13886 0.0
H85 H 0.83832 0.90981 0.09001 0.0
C86 C 0.77873 0.91435 0.09617 0.0
O87 O 0.75321 0.93965 0.21447 0.0
O88 O 0.79886 0.94 0.20899 0.0
N89 N 0.8197 0.82756 0.15501 0.0
C90 C 0.80655 0.80317 0.16298 0.0
C91 C 0.82187 0.78034 0.17702 0.0
C92 C 0.85063 0.78264 0.18192 0.0
C93 C 0.86393 0.80734 0.17075 0.0
C94 C 0.84759 0.82914 0.15593 0.0
H95 H 0.7845 0.80115 0.15861 0.0
O96 O 0.78419 0.88816 0.24271 0.0
O97 O 0.80355 0.88111 0.18054 0.0
O98 O 0.74467 0.88052 0.17438 0.0
O99 O 0.76622 0.84676 0.13772 0.0
C100 C 0.89284 0.81076 0.17192 0.0
C101 C 0.90495 0.83529 0.15641 0.0
H102 H 0.9209 0.88429 0.12049 0.0
H103 H 0.88876 0.91865 0.08936 0.0
H104 H 0.81153 0.76106 0.18421 0.0
H105 H 0.86236 0.76508 0.19315 0.0
H106 H 0.90598 0.79445 0.18389 0.0
H107 H 0.92721 0.83759 0.15708 0.0
Mn108 Mn 0.10565 0.77449 0.19051 0.0
Mn109 Mn 0.15886 0.79838 0.13077 0.0
C110 C 0.13524 0.80779 0.21985 0.0
C111 C 0.05996 0.7761 0.21601 0.0
C112 C 0.15759 0.74138 0.16959 0.0
O113 O 0.09298 0.76523 0.13069 0.0
O114 O 0.1282 0.78466 0.09425 0.0
C115 C 0.135 0.84596 0.08483 0.0
N116 N 0.15525 0.83493 0.10932 0.0
C117 C 0.18524 0.8738 0.09651 0.0
C118 C 0.16455 0.88576 0.07146 0.0
C119 C 0.13912 0.87203 0.06636 0.0
C120 C 0.17948 0.84834 0.11552 0.0
H121 H 0.11595 0.83493 0.0796 0.0
C122 C 0.10487 0.7721 0.09622 0.0
O123 O 0.07415 0.75344 0.21596 0.0
O124 O 0.07188 0.79775 0.19995 0.0
N125 N 0.18995 0.81229 0.16117 0.0
C126 C 0.20566 0.79974 0.19125 0.0
C127 C 0.2306 0.81215 0.20394 0.0
C128 C 0.23941 0.83684 0.18467 0.0
C129 C 0.22284 0.84927 0.15364 0.0
C130 C 0.19783 0.83639 0.14334 0.0
H131 H 0.19929 0.78031 0.20502 0.0
O132 O 0.12236 0.78964 0.24267 0.0
O133 O 0.13254 0.80458 0.17877 0.0
O134 O 0.1345 0.74319 0.18868 0.0
O135 O 0.16767 0.76076 0.14766 0.0
C136 C 0.22982 0.87418 0.13303 0.0
C137 C 0.21104 0.88642 0.10439 0.0
H138 H 0.16778 0.90566 0.05658 0.0
H139 H 0.12282 0.88138 0.04798 0.0
H140 H 0.24324 0.80246 0.22794 0.0
H141 H 0.25879 0.84618 0.19421 0.0
H142 H 0.24919 0.8845 0.13991 0.0
H143 H 0.21626 0.90598 0.08974 0.0
Mn144 Mn 0.24212 0.91032 0.33136 0.0
Mn145 Mn 0.21842 0.85583 0.38834 0.0
C146 C 0.20954 0.8806 0.30059 0.0
C147 C 0.2401 0.95593 0.30586 0.0
C148 C 0.27558 0.85808 0.35072 0.0
O149 O 0.25017 0.9228 0.39147 0.0
O150 O 0.23322 0.88552 0.42592 0.0
C151 C 0.17178 0.88017 0.43614 0.0
N152 N 0.18214 0.85999 0.41081 0.0
C153 C 0.14243 0.83099 0.42294 0.0
C154 C 0.13119 0.8516 0.44894 0.0
C155 C 0.14569 0.87651 0.45481 0.0
C156 C 0.16797 0.83631 0.40382 0.0
H157 H 0.18337 0.89882 0.4419 0.0
C158 C 0.24462 0.90947 0.42522 0.0
O159 O 0.26304 0.94219 0.30685 0.0
O160 O 0.21841 0.94364 0.32115 0.0
N161 N 0.20345 0.82557 0.35714 0.0
C162 C 0.21543 0.80991 0.32643 0.0
C163 C 0.20231 0.78547 0.31319 0.0
C164 C 0.17748 0.77709 0.33254 0.0
C165 C 0.16563 0.79359 0.3642 0.0
C166 C 0.17925 0.81808 0.37512 0.0
H167 H 0.23497 0.81593 0.31258 0.0
O168 O 0.22803 0.89353 0.27847 0.0
O169 O 0.21226 0.88301 0.34173 0.0
O170 O 0.27405 0.88219 0.33484 0.0
O171 O 0.2556 0.84659 0.36963 0.0
C172 C 0.14061 0.78702 0.38486 0.0
C173 C 0.12902 0.80571 0.41428 0.0
H174 H 0.11126 0.84871 0.46396 0.0
H175 H 0.13688 0.89278 0.4739 0.0
H176 H 0.21156 0.77286 0.28873 0.0
H177 H 0.16758 0.75809 0.32263 0.0
H178 H 0.12971 0.76807 0.37746 0.0
H179 H 0.10938 0.80085 0.42898 0.0
Mn180 Mn 0.10866 0.24301 0.33259 0.0
Mn181 Mn 0.15674 0.21439 0.39702 0.0
C182 C 0.1436 0.21579 0.30434 0.0
C183 C 0.06551 0.24114 0.29944 0.0
C184 C 0.15971 0.27384 0.36706 0.0
O185 O 0.09105 0.2478 0.39087 0.0
O186 O 0.12464 0.2283 0.42991 0.0
C187 C 0.12176 0.16658 0.42094 0.0
N188 N 0.14563 0.17671 0.40413 0.0
C189 C 0.16131 0.13092 0.38683 0.0
C190 C 0.13688 0.12003 0.404 0.0
C191 C 0.11702 0.13796 0.42113 0.0
C192 C 0.1647 0.15965 0.38706 0.0
H193 H 0.10642 0.18025 0.43392 0.0
C194 C 0.10132 0.24041 0.4262 0.0
O195 O 0.07813 0.26449 0.30567 0.0
O196 O 0.07758 0.21905 0.31329 0.0
N197 N 0.1894 0.19964 0.37153 0.0
C198 C 0.21373 0.21303 0.36404 0.0
C199 C 0.23682 0.19798 0.35023 0.0
C200 C 0.23488 0.1692 0.34537 0.0
C201 C 0.21025 0.15565 0.35623 0.0
C202 C 0.18815 0.17175 0.37065 0.0
H203 H 0.21545 0.2351 0.36837 0.0
O204 O 0.12988 0.23269 0.28055 0.0
O205 O 0.13604 0.21471 0.3438 0.0
O206 O 0.13678 0.27362 0.34686 0.0
O207 O 0.1692 0.25299 0.38747 0.0
C208 C 0.20713 0.12673 0.35494 0.0
C209 C 0.18255 0.11438 0.36987 0.0
H210 H 0.13323 0.09796 0.40442 0.0
H211 H 0.09811 0.12974 0.43446 0.0
H212 H 0.25602 0.20854 0.34321 0.0
H213 H 0.25264 0.15767 0.33433 0.0
H214 H 0.22368 0.11376 0.34325 0.0
H215 H 0.18046 0.09211 0.36909 0.0
Mn216 Mn 0.77474 0.10428 0.33048 0.0
Mn217 Mn 0.79578 0.15821 0.39063 0.0
C218 C 0.80814 0.13431 0.30262 0.0
C219 C 0.7771 0.05917 0.30425 0.0
C220 C 0.74036 0.15599 0.34683 0.0
O221 O 0.76469 0.09114 0.39008 0.0
O222 O 0.78048 0.12793 0.42671 0.0
C223 C 0.84051 0.13533 0.44392 0.0
N224 N 0.83138 0.15464 0.41598 0.0
C225 C 0.87005 0.18441 0.43128 0.0
C226 C 0.88008 0.16461 0.45978 0.0
C227 C 0.86533 0.13989 0.46591 0.0
C228 C 0.84547 0.17847 0.40978 0.0
H229 H 0.8287 0.11688 0.4499 0.0
C230 C 0.76943 0.10386 0.42472 0.0
O231 O 0.75428 0.07307 0.30408 0.0
O232 O 0.79858 0.07097 0.32109 0.0
N233 N 0.81119 0.18889 0.36091 0.0
C234 C 0.79982 0.20457 0.32971 0.0
C235 C 0.81295 0.22923 0.31755 0.0
C236 C 0.83715 0.2378 0.33845 0.0
C237 C 0.84837 0.2213 0.37055 0.0
C238 C 0.83485 0.19654 0.3803 0.0
H239 H 0.78072 0.19841 0.31469 0.0
O240 O 0.79046 0.12136 0.27903 0.0
O241 O 0.80421 0.13161 0.34364 0.0
O242 O 0.7429 0.13227 0.33029 0.0
O243 O 0.75888 0.16701 0.36948 0.0
C244 C 0.8726 0.22824 0.39296 0.0
C245 C 0.88344 0.20979 0.42332 0.0
H246 H 0.89903 0.1682 0.47718 0.0
H247 H 0.87277 0.12464 0.48818 0.0
H248 H 0.80415 0.24187 0.29277 0.0
H249 H 0.84703 0.25701 0.32958 0.0
H250 H 0.88338 0.2474 0.38643 0.0
H251 H 0.90235 0.21509 0.43977 0.0
Mn252 Mn 0.90942 0.77011 0.33284 0.0
Mn253 Mn 0.86145 0.79929 0.39713 0.0
C254 C 0.87453 0.79743 0.30448 0.0
C255 C 0.95278 0.77166 0.29968 0.0
C256 C 0.85826 0.73964 0.36805 0.0
O257 O 0.92697 0.76551 0.3912 0.0
O258 O 0.89356 0.78562 0.42996 0.0
C259 C 0.89653 0.84724 0.41986 0.0
N260 N 0.87257 0.83701 0.40358 0.0
C261 C 0.85661 0.88272 0.38644 0.0
C262 C 0.88112 0.89371 0.4031 0.0
C263 C 0.90118 0.87588 0.41985 0.0
C264 C 0.85334 0.85398 0.38677 0.0
H265 H 0.91202 0.83365 0.43257 0.0
C266 C 0.91678 0.77333 0.4264 0.0
O267 O 0.94001 0.74842 0.3061 0.0
O268 O 0.94069 0.79384 0.31323 0.0
N269 N 0.82873 0.81387 0.37168 0.0
C270 C 0.80442 0.80036 0.36452 0.0
C271 C 0.78117 0.81532 0.35116 0.0
C272 C 0.78292 0.84411 0.3464 0.0
C273 C 0.80757 0.85777 0.35682 0.0
C274 C 0.82985 0.84176 0.37078 0.0
H275 H 0.80282 0.77829 0.36886 0.0
O276 O 0.88819 0.78043 0.28074 0.0
O277 O 0.88213 0.79856 0.34387 0.0
O278 O 0.8811 0.73969 0.3475 0.0
O279 O 0.84895 0.76063 0.38834 0.0
C280 C 0.81053 0.8867 0.35556 0.0
C281 C 0.83517 0.89916 0.36995 0.0
H282 H 0.88469 0.9158 0.40339 0.0
H283 H 0.92017 0.88418 0.43276 0.0
H284 H 0.76198 0.80467 0.34444 0.0
H285 H 0.76503 0.85557 0.33575 0.0
H286 H 0.79379 0.89958 0.34435 0.0
H287 H 0.83716 0.92144 0.36918 0.0
Mn288 Mn 0.77405 0.91032 0.83264 0.0
Mn289 Mn 0.80447 0.86114 0.8931 0.0
C290 C 0.80051 0.87588 0.80129 0.0
C291 C 0.77443 0.95415 0.80142 0.0
C292 C 0.74447 0.85818 0.86652 0.0
O293 O 0.77072 0.92691 0.89163 0.0
O294 O 0.79027 0.89213 0.92796 0.0
C295 C 0.85179 0.89683 0.91679 0.0
N296 N 0.84199 0.87299 0.89949 0.0
C297 C 0.88798 0.85839 0.88105 0.0
C298 C 0.89853 0.88278 0.89872 0.0
C299 C 0.88034 0.9021 0.91663 0.0
C300 C 0.85929 0.8545 0.88152 0.0
H301 H 0.83793 0.91175 0.93043 0.0
C302 C 0.77829 0.91558 0.92603 0.0
O303 O 0.75146 0.94105 0.80859 0.0
O304 O 0.79711 0.94209 0.81293 0.0
N305 N 0.81963 0.82927 0.86597 0.0
C306 C 0.80667 0.80471 0.8586 0.0
C307 C 0.82208 0.78196 0.84443 0.0
C308 C 0.8508 0.78446 0.83911 0.0
C309 C 0.86395 0.80931 0.84988 0.0
C310 C 0.84751 0.83105 0.86468 0.0
H311 H 0.78467 0.8025 0.86345 0.0
O312 O 0.78295 0.88995 0.77916 0.0
O313 O 0.80284 0.8829 0.84086 0.0
O314 O 0.74402 0.88183 0.84838 0.0
O315 O 0.76607 0.84802 0.88414 0.0
C316 C 0.89283 0.81294 0.84833 0.0
C317 C 0.90482 0.83761 0.8635 0.0
H318 H 0.92056 0.88681 0.89896 0.0
H319 H 0.8883 0.92098 0.93035 0.0
H320 H 0.81185 0.76259 0.8375 0.0
H321 H 0.86261 0.76696 0.82786 0.0
H322 H 0.90604 0.79668 0.83633 0.0
H323 H 0.92706 0.84007 0.86255 0.0
Mn324 Mn 0.10513 0.77488 0.832 0.0
Mn325 Mn 0.15886 0.79845 0.89086 0.0
C326 C 0.13452 0.80812 0.80214 0.0
C327 C 0.05935 0.77682 0.80717 0.0
C328 C 0.15699 0.74147 0.85197 0.0
O329 O 0.09286 0.7656 0.89201 0.0
O330 O 0.12834 0.7849 0.92799 0.0
C331 C 0.13589 0.84611 0.93776 0.0
N332 N 0.15571 0.83505 0.91243 0.0
C333 C 0.18549 0.87439 0.92276 0.0
C334 C 0.16518 0.88641 0.94848 0.0
C335 C 0.14007 0.87242 0.95532 0.0
C336 C 0.17972 0.84859 0.90487 0.0
H337 H 0.11706 0.83497 0.94419 0.0
C338 C 0.10495 0.77241 0.92632 0.0
O339 O 0.07337 0.75405 0.80698 0.0
O340 O 0.07145 0.79834 0.82329 0.0
N341 N 0.18973 0.81217 0.85961 0.0
C342 C 0.20504 0.79948 0.82914 0.0
C343 C 0.22964 0.81196 0.81511 0.0
C344 C 0.23847 0.83699 0.83325 0.0
C345 C 0.22231 0.84961 0.86464 0.0
C346 C 0.1977 0.83651 0.87655 0.0
H347 H 0.1986 0.77989 0.81601 0.0
O348 O 0.12144 0.79001 0.77956 0.0
O349 O 0.1322 0.80484 0.8433 0.0
O350 O 0.13385 0.74345 0.83315 0.0
O351 O 0.16727 0.76077 0.87384 0.0
C352 C 0.22927 0.87493 0.88397 0.0
C353 C 0.2109 0.88729 0.91311 0.0
H354 H 0.16844 0.90655 0.96257 0.0
H355 H 0.12405 0.88182 0.97425 0.0
H356 H 0.24198 0.80213 0.79085 0.0
H357 H 0.25755 0.84645 0.82256 0.0
H358 H 0.24831 0.88545 0.87575 0.0
H359 H 0.21609 0.90714 0.9268 0.0
Mn360 Mn 0.24344 0.10685 0.83175 0.0
Mn361 Mn 0.21364 0.15554 0.89384 0.0
C362 C 0.21646 0.14141 0.80171 0.0
C363 C 0.2425 0.06334 0.79919 0.0
C364 C 0.27342 0.15871 0.8658 0.0
O365 O 0.24727 0.08976 0.89048 0.0
O366 O 0.22803 0.12425 0.92793 0.0
C367 C 0.16641 0.11986 0.91816 0.0
N368 N 0.17614 0.14376 0.90094 0.0
C369 C 0.13005 0.1586 0.88369 0.0
C370 C 0.11957 0.13414 0.90129 0.0
C371 C 0.13785 0.11468 0.91856 0.0
C372 C 0.15875 0.1624 0.88359 0.0
H373 H 0.18034 0.10483 0.93131 0.0
C374 C 0.23996 0.10079 0.92531 0.0
O375 O 0.26563 0.07618 0.80626 0.0
O376 O 0.22007 0.07541 0.81183 0.0
N377 N 0.19835 0.18758 0.8674 0.0
C378 C 0.21135 0.21208 0.85962 0.0
C379 C 0.1959 0.23486 0.84569 0.0
C380 C 0.16712 0.23247 0.84113 0.0
C381 C 0.15398 0.20769 0.85231 0.0
C382 C 0.17046 0.18589 0.86671 0.0
H383 H 0.2334 0.21419 0.86387 0.0
O384 O 0.23393 0.12765 0.77891 0.0
O385 O 0.2147 0.13415 0.84124 0.0
O386 O 0.27369 0.13521 0.84719 0.0
O387 O 0.25199 0.16866 0.88422 0.0
C388 C 0.12508 0.20419 0.85151 0.0
C389 C 0.11313 0.17951 0.86674 0.0
H390 H 0.09753 0.13018 0.90196 0.0
H391 H 0.12994 0.09574 0.93221 0.0
H392 H 0.20615 0.25417 0.83841 0.0
H393 H 0.15528 0.25 0.83009 0.0
H394 H 0.11185 0.22057 0.84006 0.0
H395 H 0.09087 0.17713 0.86632 0.0
Mn396 Mn 0.90964 0.24474 0.83103 0.0
Mn397 Mn 0.85925 0.21743 0.89341 0.0
C398 C 0.87559 0.21637 0.80161 0.0
C399 C 0.95415 0.24328 0.80168 0.0
C400 C 0.85738 0.27606 0.85901 0.0
O401 O 0.92505 0.2513 0.89063 0.0
O402 O 0.8903 0.23207 0.92771 0.0
C403 C 0.89296 0.17032 0.92332 0.0
N404 N 0.86987 0.17997 0.90374 0.0
C405 C 0.85414 0.13372 0.88929 0.0
C406 C 0.87783 0.12333 0.90918 0.0
C407 C 0.89731 0.14173 0.92629 0.0
C408 C 0.85119 0.16244 0.88665 0.0
H409 H 0.90794 0.18432 0.9365 0.0
C410 C 0.91362 0.24436 0.92544 0.0
O411 O 0.9407 0.26629 0.80549 0.0
O412 O 0.94208 0.22111 0.81564 0.0
N413 N 0.82716 0.20197 0.86713 0.0
C414 C 0.80278 0.21507 0.8593 0.0
C415 C 0.77965 0.19966 0.84635 0.0
C416 C 0.78153 0.17081 0.84303 0.0
C417 C 0.80608 0.15757 0.85476 0.0
C418 C 0.82825 0.17407 0.86815 0.0
H419 H 0.80103 0.23719 0.86278 0.0
O420 O 0.89031 0.2326 0.77799 0.0
O421 O 0.88179 0.21634 0.84168 0.0
O422 O 0.8809 0.27536 0.84054 0.0
O423 O 0.84735 0.25581 0.88041 0.0
C424 C 0.8089 0.12864 0.85596 0.0
C425 C 0.83307 0.11671 0.87282 0.0
H426 H 0.88111 0.10128 0.91191 0.0
H427 H 0.9156 0.1339 0.94188 0.0
H428 H 0.76045 0.21 0.83894 0.0
H429 H 0.76371 0.15898 0.83282 0.0
H430 H 0.79231 0.11537 0.84505 0.0
H431 H 0.83484 0.09443 0.87422 0.0
Mn432 Mn 0.7723 0.10582 0.68983 0.0
Mn433 Mn 0.79963 0.1563 0.62777 0.0
C434 C 0.80069 0.13961 0.71942 0.0
C435 C 0.77365 0.06143 0.71896 0.0
C436 C 0.74109 0.15817 0.66233 0.0
O437 O 0.76564 0.09058 0.63029 0.0
O438 O 0.78456 0.1255 0.59327 0.0
C439 C 0.84642 0.12259 0.59655 0.0
N440 N 0.83699 0.14554 0.61679 0.0
C441 C 0.88343 0.16098 0.6307 0.0
C442 C 0.89359 0.13742 0.61017 0.0
C443 C 0.87499 0.11816 0.59299 0.0
C444 C 0.85473 0.16403 0.63389 0.0
H445 H 0.83225 0.10779 0.58325 0.0
C446 C 0.77228 0.10217 0.59552 0.0
O447 O 0.75063 0.07488 0.71521 0.0
O448 O 0.79588 0.0734 0.70497 0.0
N449 N 0.81541 0.18815 0.65428 0.0
C450 C 0.80247 0.21253 0.66273 0.0
C451 C 0.81807 0.23545 0.67596 0.0
C452 C 0.84695 0.23339 0.67889 0.0
C453 C 0.86 0.20887 0.66649 0.0
C454 C 0.84331 0.1869 0.65291 0.0
H455 H 0.78033 0.21442 0.65958 0.0
O456 O 0.78438 0.12492 0.74295 0.0
O457 O 0.80079 0.13356 0.67927 0.0
O458 O 0.74173 0.13457 0.68043 0.0
O459 O 0.76144 0.1684 0.64137 0.0
C460 C 0.88893 0.20592 0.6648 0.0
C461 C 0.90065 0.18185 0.64728 0.0
H462 H 0.91562 0.13409 0.60697 0.0
H463 H 0.88265 0.1 0.57687 0.0
H464 H 0.80787 0.25463 0.68392 0.0
H465 H 0.85893 0.25104 0.68932 0.0
H466 H 0.90235 0.22235 0.67581 0.0
H467 H 0.92292 0.18 0.64546 0.0
Mn468 Mn 0.90946 0.77242 0.68887 0.0
Mn469 Mn 0.8614 0.80189 0.62538 0.0
C470 C 0.87452 0.79945 0.71775 0.0
C471 C 0.95264 0.77351 0.72245 0.0
C472 C 0.85779 0.74241 0.65426 0.0
O473 O 0.9272 0.76827 0.63066 0.0
O474 O 0.89288 0.78693 0.59221 0.0
C475 C 0.89769 0.84857 0.60079 0.0
N476 N 0.87357 0.8392 0.61781 0.0
C477 C 0.85913 0.88552 0.63436 0.0
C478 C 0.88382 0.89563 0.61696 0.0
C479 C 0.90319 0.87706 0.60012 0.0
C480 C 0.855 0.85688 0.6347 0.0
H481 H 0.91267 0.83443 0.588 0.0
C482 C 0.91637 0.77511 0.59549 0.0
O483 O 0.93986 0.75036 0.7153 0.0
O484 O 0.94067 0.79586 0.70936 0.0
N485 N 0.82926 0.81767 0.65092 0.0
C486 C 0.80454 0.805 0.65839 0.0
C487 C 0.78184 0.82075 0.67188 0.0
C488 C 0.78454 0.8495 0.67628 0.0
C489 C 0.80955 0.86231 0.66532 0.0
C490 C 0.83126 0.84552 0.65137 0.0
H491 H 0.80221 0.78297 0.65428 0.0
O492 O 0.88805 0.78213 0.74107 0.0
O493 O 0.88227 0.80109 0.67842 0.0
O494 O 0.88125 0.74215 0.673 0.0
O495 O 0.84792 0.76375 0.63557 0.0
C496 C 0.81339 0.89115 0.66594 0.0
C497 C 0.83831 0.90274 0.6509 0.0
H498 H 0.88804 0.9176 0.61612 0.0
H499 H 0.9223 0.88469 0.58663 0.0
H500 H 0.76235 0.81076 0.67896 0.0
H501 H 0.76707 0.86158 0.68698 0.0
H502 H 0.7971 0.90461 0.6771 0.0
H503 H 0.84094 0.92496 0.65118 0.0
Mn504 Mn 0.24164 0.91051 0.69031 0.0
Mn505 Mn 0.21798 0.85608 0.63316 0.0
C506 C 0.20902 0.88073 0.72099 0.0
C507 C 0.23955 0.95616 0.71573 0.0
C508 C 0.27503 0.85817 0.67098 0.0
O509 O 0.24986 0.92302 0.63025 0.0
O510 O 0.23306 0.88573 0.59576 0.0
C511 C 0.17164 0.88086 0.58536 0.0
N512 N 0.18182 0.86049 0.61048 0.0
C513 C 0.142 0.83176 0.5979 0.0
C514 C 0.13094 0.85254 0.57208 0.0
C515 C 0.14558 0.87742 0.56655 0.0
C516 C 0.16752 0.83685 0.61718 0.0
H517 H 0.18333 0.89949 0.5799 0.0
C518 C 0.24446 0.90967 0.59649 0.0
O519 O 0.2625 0.94241 0.71488 0.0
O520 O 0.21791 0.94383 0.70042 0.0
N521 N 0.20275 0.8258 0.66404 0.0
C522 C 0.21456 0.80994 0.69464 0.0
C523 C 0.20129 0.78549 0.70753 0.0
C524 C 0.17649 0.7773 0.68796 0.0
C525 C 0.16484 0.79399 0.65638 0.0
C526 C 0.1786 0.81847 0.64579 0.0
H527 H 0.23408 0.8158 0.70864 0.0
O528 O 0.2274 0.89372 0.74321 0.0
O529 O 0.21182 0.88319 0.67986 0.0
O530 O 0.27355 0.88231 0.68678 0.0
O531 O 0.25503 0.84667 0.65216 0.0
C532 C 0.13987 0.78762 0.6355 0.0
C533 C 0.12845 0.8065 0.60624 0.0
H534 H 0.11105 0.84983 0.55694 0.0
H535 H 0.13691 0.89382 0.54761 0.0
H536 H 0.2104 0.77273 0.73191 0.0
H537 H 0.16648 0.7583 0.69762 0.0
H538 H 0.12886 0.76868 0.64264 0.0
H539 H 0.10883 0.8018 0.59139 0.0
Mn540 Mn 0.10612 0.24386 0.68912 0.0
Mn541 Mn 0.15471 0.2145 0.62598 0.0
C542 C 0.14063 0.21635 0.71857 0.0
C543 C 0.06211 0.24291 0.72028 0.0
C544 C 0.15783 0.27414 0.65536 0.0
O545 O 0.08946 0.24882 0.63024 0.0
O546 O 0.12292 0.22817 0.59235 0.0
C547 C 0.11974 0.16657 0.60276 0.0
N548 N 0.1436 0.17678 0.61944 0.0
C549 C 0.1593 0.13107 0.63715 0.0
C550 C 0.1349 0.1201 0.6201 0.0
C551 C 0.11503 0.13794 0.60285 0.0
C552 C 0.16264 0.15981 0.63673 0.0
H553 H 0.1044 0.18017 0.58969 0.0
C554 C 0.09984 0.24079 0.59531 0.0
O555 O 0.07543 0.26592 0.71467 0.0
O556 O 0.07409 0.22049 0.70738 0.0
N557 N 0.18727 0.19989 0.65189 0.0
C558 C 0.21168 0.21329 0.65868 0.0
C559 C 0.23484 0.19831 0.6724 0.0
C560 C 0.23294 0.16956 0.67759 0.0
C561 C 0.20825 0.15596 0.66723 0.0
C562 C 0.18606 0.172 0.65301 0.0
H563 H 0.21342 0.23531 0.6539 0.0
O564 O 0.12656 0.23326 0.74191 0.0
O565 O 0.13351 0.21526 0.67892 0.0
O566 O 0.13488 0.27408 0.67558 0.0
O567 O 0.16719 0.25319 0.635 0.0
C568 C 0.20518 0.12704 0.66872 0.0
C569 C 0.18058 0.11461 0.65409 0.0
H570 H 0.13128 0.09802 0.61985 0.0
H571 H 0.09612 0.12965 0.58962 0.0
H572 H 0.25407 0.20891 0.67903 0.0
H573 H 0.25076 0.15808 0.68846 0.0
H574 H 0.2218 0.11413 0.6803 0.0
H575 H 0.17853 0.09234 0.65501 0.0
Mn576 Mn 0.74325 0.60644 0.69214 0.0
Mn577 Mn 0.71381 0.65439 0.62818 0.0
C578 C 0.71608 0.64128 0.72093 0.0
C579 C 0.74188 0.5632 0.72543 0.0
C580 C 0.77365 0.6575 0.65651 0.0
O581 O 0.74758 0.58888 0.63373 0.0
O582 O 0.72731 0.62225 0.59521 0.0
C583 C 0.66567 0.61941 0.60605 0.0
N584 N 0.67602 0.64335 0.62219 0.0
C585 C 0.63039 0.65941 0.63982 0.0
C586 C 0.61927 0.63492 0.62331 0.0
C587 C 0.63701 0.61482 0.60638 0.0
C588 C 0.65916 0.66262 0.63918 0.0
H589 H 0.67919 0.6039 0.59321 0.0
C590 C 0.73963 0.59905 0.59861 0.0
O591 O 0.76511 0.57594 0.71865 0.0
O592 O 0.71961 0.57522 0.71207 0.0
N593 N 0.6994 0.68719 0.65365 0.0
C594 C 0.71295 0.71153 0.66029 0.0
C595 C 0.6981 0.73477 0.67399 0.0
C596 C 0.66932 0.73305 0.67924 0.0
C597 C 0.65557 0.70842 0.66904 0.0
C598 C 0.67149 0.6861 0.65497 0.0
H599 H 0.73499 0.71313 0.65547 0.0
O600 O 0.73324 0.62765 0.74438 0.0
O601 O 0.71473 0.63374 0.6815 0.0
O602 O 0.77365 0.63469 0.67706 0.0
O603 O 0.75256 0.66684 0.6365 0.0
C604 C 0.62662 0.70552 0.67059 0.0
C605 C 0.61405 0.6809 0.6564 0.0
H606 H 0.59716 0.6314 0.62324 0.0
H607 H 0.62861 0.59585 0.59358 0.0
H608 H 0.70881 0.75395 0.68052 0.0
H609 H 0.65794 0.75095 0.69005 0.0
H610 H 0.61382 0.72231 0.68184 0.0
H611 H 0.59176 0.67897 0.65738 0.0
Mn612 Mn 0.41169 0.74421 0.69047 0.0
Mn613 Mn 0.36188 0.71741 0.62679 0.0
C614 C 0.37738 0.71573 0.71894 0.0
C615 C 0.45584 0.74275 0.72045 0.0
C616 C 0.35976 0.77577 0.66226 0.0
O617 O 0.42766 0.75113 0.63124 0.0
O618 O 0.39332 0.73213 0.59316 0.0
C619 C 0.39604 0.67034 0.59783 0.0
N620 N 0.37259 0.67996 0.61647 0.0
C621 C 0.357 0.63369 0.63126 0.0
C622 C 0.38102 0.62333 0.61225 0.0
C623 C 0.40063 0.64176 0.59546 0.0
C624 C 0.35381 0.6624 0.63332 0.0
H625 H 0.41118 0.68437 0.58506 0.0
C626 C 0.41666 0.74435 0.59607 0.0
O627 O 0.44237 0.76574 0.71671 0.0
O628 O 0.44399 0.72056 0.70607 0.0
N629 N 0.3295 0.70189 0.65223 0.0
C630 C 0.30501 0.71493 0.65955 0.0
C631 C 0.28186 0.69948 0.67236 0.0
C632 C 0.28381 0.67063 0.6759 0.0
C633 C 0.30849 0.65746 0.66458 0.0
C634 C 0.33067 0.67399 0.65132 0.0
H635 H 0.30324 0.73704 0.65594 0.0
O636 O 0.39194 0.73179 0.74303 0.0
O637 O 0.3839 0.71594 0.67897 0.0
O638 O 0.3831 0.77485 0.68108 0.0
O639 O 0.34989 0.75579 0.64008 0.0
C640 C 0.31149 0.62853 0.66384 0.0
C641 C 0.33588 0.61665 0.64761 0.0
H642 H 0.38451 0.60129 0.61004 0.0
H643 H 0.41921 0.63395 0.58066 0.0
H644 H 0.26259 0.70978 0.67953 0.0
H645 H 0.26598 0.65878 0.68605 0.0
H646 H 0.2949 0.61523 0.6747 0.0
H647 H 0.33783 0.59437 0.64667 0.0
Mn648 Mn 0.2723 0.41078 0.68821 0.0
Mn649 Mn 0.30211 0.36198 0.62632 0.0
C650 C 0.29955 0.37654 0.71832 0.0
C651 C 0.27306 0.45455 0.71945 0.0
C652 C 0.24245 0.35866 0.65494 0.0
O653 O 0.26797 0.42745 0.62946 0.0
O654 O 0.28766 0.39316 0.59214 0.0
C655 C 0.34926 0.3976 0.60152 0.0
N656 N 0.33958 0.37374 0.61892 0.0
C657 C 0.38572 0.35875 0.63544 0.0
C658 C 0.39616 0.38316 0.61763 0.0
C659 C 0.37783 0.40269 0.60066 0.0
C660 C 0.35701 0.35506 0.63606 0.0
H661 H 0.33529 0.41267 0.58854 0.0
C662 C 0.27548 0.41648 0.59474 0.0
O663 O 0.25001 0.44135 0.71337 0.0
O664 O 0.29558 0.44259 0.70693 0.0
N665 N 0.31743 0.33003 0.65292 0.0
C666 C 0.30439 0.30559 0.66105 0.0
C667 C 0.31987 0.28274 0.67457 0.0
C668 C 0.34868 0.28503 0.67865 0.0
C669 C 0.36183 0.30977 0.66727 0.0
C670 C 0.34532 0.33163 0.65317 0.0
H671 H 0.28231 0.30355 0.6572 0.0
O672 O 0.28225 0.39043 0.74123 0.0
O673 O 0.30109 0.38358 0.67868 0.0
O674 O 0.24215 0.38211 0.67369 0.0
O675 O 0.2638 0.34887 0.63615 0.0
C676 C 0.39074 0.31313 0.66745 0.0
C677 C 0.40268 0.33776 0.65202 0.0
H678 H 0.41821 0.38704 0.61658 0.0
H679 H 0.38571 0.42159 0.58685 0.0
H680 H 0.30962 0.26344 0.68192 0.0
H681 H 0.36055 0.26744 0.6894 0.0
H682 H 0.40398 0.29665 0.6785 0.0
H683 H 0.42495 0.34004 0.65195 0.0
Mn684 Mn 0.6059 0.27529 0.68854 0.0
Mn685 Mn 0.65908 0.299 0.6287 0.0
C686 C 0.63519 0.3088 0.71752 0.0
C687 C 0.56055 0.27649 0.71508 0.0
C688 C 0.65773 0.24208 0.66773 0.0
O689 O 0.59319 0.26598 0.62854 0.0
O690 O 0.62849 0.28524 0.59193 0.0
C691 C 0.63559 0.34683 0.58278 0.0
N692 N 0.65576 0.33557 0.60716 0.0
C693 C 0.68589 0.37445 0.59511 0.0
C694 C 0.66528 0.38666 0.57021 0.0
C695 C 0.6398 0.37306 0.56488 0.0
C696 C 0.68001 0.34889 0.6137 0.0
H697 H 0.6165 0.33592 0.57739 0.0
C698 C 0.60517 0.27262 0.59395 0.0
O699 O 0.57484 0.2539 0.71429 0.0
O700 O 0.57209 0.29833 0.69893 0.0
N701 N 0.69007 0.3128 0.65946 0.0
C702 C 0.70548 0.30023 0.68988 0.0
C703 C 0.73034 0.31257 0.70305 0.0
C704 C 0.73939 0.33722 0.68392 0.0
C705 C 0.7231 0.34969 0.65256 0.0
C706 C 0.69816 0.33687 0.64177 0.0
H707 H 0.69893 0.28084 0.70358 0.0
O708 O 0.62264 0.29052 0.74061 0.0
O709 O 0.63255 0.30547 0.67644 0.0
O710 O 0.63469 0.24404 0.68679 0.0
O711 O 0.66783 0.26135 0.64561 0.0
C712 C 0.73028 0.37461 0.63217 0.0
C713 C 0.71168 0.38699 0.60341 0.0
H714 H 0.66856 0.40668 0.55576 0.0
H715 H 0.62352 0.38271 0.54681 0.0
H716 H 0.74274 0.30287 0.72735 0.0
H717 H 0.7587 0.34652 0.69384 0.0
H718 H 0.74961 0.38489 0.63941 0.0
H719 H 0.71698 0.40661 0.58905 0.0
Mn720 Mn 0.73915 0.41081 0.8351 0.0
Mn721 Mn 0.71425 0.35578 0.8894 0.0
C722 C 0.70684 0.38173 0.80224 0.0
C723 C 0.73772 0.45665 0.81057 0.0
C724 C 0.77181 0.35784 0.85322 0.0
O725 O 0.74672 0.42237 0.89575 0.0
O726 O 0.72959 0.38453 0.9285 0.0
C727 C 0.66765 0.38076 0.9366 0.0
N728 N 0.67782 0.36056 0.91112 0.0
C729 C 0.63663 0.33311 0.91966 0.0
C730 C 0.62563 0.35371 0.9459 0.0
C731 C 0.64099 0.37786 0.95368 0.0
C732 C 0.66289 0.3376 0.90237 0.0
H733 H 0.6798 0.39885 0.94366 0.0
C734 C 0.74125 0.40839 0.9289 0.0
O735 O 0.76059 0.4428 0.812 0.0
O736 O 0.71581 0.4444 0.82515 0.0
N737 N 0.69884 0.32635 0.85683 0.0
C738 C 0.7108 0.31079 0.82597 0.0
C739 C 0.69703 0.28715 0.81107 0.0
C740 C 0.67146 0.27946 0.82876 0.0
C741 C 0.65961 0.29585 0.86055 0.0
C742 C 0.67403 0.31947 0.87341 0.0
H743 H 0.73079 0.31631 0.81318 0.0
O744 O 0.72574 0.39487 0.78129 0.0
O745 O 0.7089 0.38363 0.84356 0.0
O746 O 0.77073 0.38233 0.83871 0.0
O747 O 0.75143 0.34608 0.87081 0.0
C748 C 0.6338 0.29006 0.87936 0.0
C749 C 0.62231 0.3087 0.90892 0.0
H750 H 0.60522 0.35143 0.95959 0.0
H751 H 0.63236 0.39413 0.97299 0.0
H752 H 0.70627 0.27463 0.7865 0.0
H753 H 0.66098 0.26112 0.81744 0.0
H754 H 0.62223 0.27181 0.87035 0.0
H755 H 0.60207 0.30449 0.92215 0.0
Mn756 Mn 0.60699 0.74462 0.83388 0.0
Mn757 Mn 0.65581 0.71521 0.89625 0.0
C758 C 0.64134 0.71725 0.80394 0.0
C759 C 0.5631 0.74346 0.80293 0.0
C760 C 0.65873 0.77493 0.86725 0.0
O761 O 0.59042 0.74929 0.8928 0.0
O762 O 0.62416 0.72885 0.93032 0.0
C763 C 0.62099 0.66725 0.91992 0.0
N764 N 0.64474 0.67748 0.90289 0.0
C765 C 0.6604 0.6318 0.88493 0.0
C766 C 0.6361 0.6208 0.90235 0.0
C767 C 0.6163 0.63862 0.91989 0.0
C768 C 0.66372 0.66053 0.88532 0.0
H769 H 0.6057 0.68083 0.93324 0.0
C770 C 0.60098 0.74133 0.92759 0.0
O771 O 0.57621 0.76659 0.80864 0.0
O772 O 0.57517 0.7211 0.81574 0.0
N773 N 0.68821 0.70064 0.86974 0.0
C774 C 0.71252 0.71409 0.86226 0.0
C775 C 0.73559 0.69914 0.8481 0.0
C776 C 0.73371 0.67037 0.84309 0.0
C777 C 0.70914 0.65674 0.85401 0.0
C778 C 0.68703 0.67275 0.86867 0.0
H779 H 0.71424 0.73613 0.86686 0.0
O780 O 0.62729 0.7343 0.78086 0.0
O781 O 0.63438 0.71604 0.84366 0.0
O782 O 0.63562 0.77492 0.84751 0.0
O783 O 0.66825 0.75388 0.88717 0.0
C784 C 0.7061 0.62781 0.8526 0.0
C785 C 0.6816 0.61536 0.86765 0.0
H786 H 0.6325 0.59871 0.90264 0.0
H787 H 0.59748 0.63031 0.9334 0.0
H788 H 0.75475 0.70976 0.841 0.0
H789 H 0.75147 0.65892 0.83186 0.0
H790 H 0.72265 0.61492 0.84073 0.0
H791 H 0.67957 0.59308 0.86676 0.0
Mn792 Mn 0.27257 0.60619 0.83048 0.0
Mn793 Mn 0.29977 0.65688 0.89197 0.0
C794 C 0.30068 0.64018 0.80042 0.0
C795 C 0.27402 0.5618 0.80157 0.0
C796 C 0.24105 0.65832 0.85811 0.0
O797 O 0.26636 0.5909 0.89019 0.0
O798 O 0.28506 0.62605 0.92686 0.0
C799 C 0.34687 0.62303 0.92157 0.0
N800 N 0.33724 0.64623 0.90228 0.0
C801 C 0.38353 0.66172 0.88721 0.0
C802 C 0.3939 0.63796 0.9069 0.0
C803 C 0.37547 0.61853 0.92413 0.0
C804 C 0.3548 0.66482 0.88494 0.0
H805 H 0.33284 0.60804 0.93475 0.0
C806 C 0.27305 0.60257 0.92487 0.0
O807 O 0.25094 0.57509 0.80564 0.0
O808 O 0.29628 0.57393 0.81508 0.0
N809 N 0.31527 0.68879 0.86518 0.0
C810 C 0.30217 0.71307 0.85675 0.0
C811 C 0.31762 0.7361 0.84349 0.0
C812 C 0.3465 0.7342 0.84029 0.0
C813 C 0.35971 0.70972 0.85242 0.0
C814 C 0.34319 0.68769 0.86624 0.0
H815 H 0.28002 0.71483 0.86006 0.0
O816 O 0.28434 0.62539 0.77712 0.0
O817 O 0.30089 0.63412 0.84055 0.0
O818 O 0.24184 0.63468 0.84022 0.0
O819 O 0.2614 0.66877 0.87881 0.0
C820 C 0.38867 0.70683 0.85347 0.0
C821 C 0.40057 0.68268 0.87042 0.0
H822 H 0.41596 0.63455 0.90929 0.0
H823 H 0.38329 0.60015 0.93945 0.0
H824 H 0.3073 0.75523 0.83568 0.0
H825 H 0.35836 0.75192 0.82974 0.0
H826 H 0.40197 0.72331 0.84226 0.0
H827 H 0.42286 0.68081 0.87157 0.0
Mn828 Mn 0.40944 0.27388 0.83031 0.0
Mn829 Mn 0.36104 0.30271 0.89434 0.0
C830 C 0.37456 0.30119 0.80168 0.0
C831 C 0.4532 0.27549 0.79832 0.0
C832 C 0.35819 0.24309 0.86485 0.0
O833 O 0.42654 0.26894 0.88885 0.0
O834 O 0.39313 0.28922 0.92737 0.0
C835 C 0.39571 0.35088 0.91741 0.0
N836 N 0.37186 0.3405 0.90095 0.0
C837 C 0.35559 0.38611 0.88393 0.0
C838 C 0.37998 0.39726 0.90077 0.0
C839 C 0.40014 0.37955 0.91755 0.0
C840 C 0.35254 0.35735 0.88411 0.0
H841 H 0.41126 0.33737 0.93014 0.0
C842 C 0.4163 0.27681 0.92396 0.0
O843 O 0.44023 0.25228 0.80402 0.0
O844 O 0.44106 0.29768 0.81169 0.0
N845 N 0.32824 0.31708 0.86884 0.0
C846 C 0.30398 0.30343 0.86193 0.0
C847 C 0.28059 0.31824 0.8488 0.0
C848 C 0.28214 0.34704 0.844 0.0
C849 C 0.30674 0.36085 0.85421 0.0
C850 C 0.32916 0.34499 0.86802 0.0
H851 H 0.30252 0.28135 0.86632 0.0
O852 O 0.38855 0.28445 0.77795 0.0
O853 O 0.38192 0.30219 0.8412 0.0
O854 O 0.38101 0.24334 0.84421 0.0
O855 O 0.34883 0.26396 0.88538 0.0
C856 C 0.3095 0.38981 0.85299 0.0
C857 C 0.33404 0.40243 0.86745 0.0
H858 H 0.38338 0.41938 0.9012 0.0
H859 H 0.41903 0.38797 0.93061 0.0
H860 H 0.26143 0.30748 0.84231 0.0
H861 H 0.26414 0.35839 0.83352 0.0
H862 H 0.29268 0.4026 0.84177 0.0
H863 H 0.33585 0.42472 0.86674 0.0
Mn864 Mn 0.27365 0.41037 0.33187 0.0
Mn865 Mn 0.30377 0.36205 0.39419 0.0
C866 C 0.30081 0.37597 0.30192 0.0
C867 C 0.27414 0.45403 0.30032 0.0
C868 C 0.24413 0.35834 0.366 0.0
O869 O 0.26933 0.42733 0.39041 0.0
O870 O 0.28906 0.39327 0.42807 0.0
C871 C 0.35067 0.39812 0.4184 0.0
N872 N 0.34115 0.37412 0.40126 0.0
C873 C 0.38739 0.35945 0.38458 0.0
C874 C 0.39766 0.38401 0.40211 0.0
C875 C 0.3792 0.40345 0.41903 0.0
C876 C 0.35871 0.35553 0.38418 0.0
H877 H 0.33659 0.41312 0.43133 0.0
C878 C 0.27677 0.41652 0.42525 0.0
O879 O 0.25117 0.44075 0.30665 0.0
O880 O 0.29676 0.44218 0.31262 0.0
N881 N 0.31932 0.33005 0.368 0.0
C882 C 0.3065 0.30542 0.36051 0.0
C883 C 0.32212 0.28269 0.34682 0.0
C884 C 0.35089 0.28524 0.34236 0.0
C885 C 0.36385 0.31013 0.35342 0.0
C886 C 0.34719 0.33192 0.36741 0.0
H887 H 0.28446 0.30317 0.36478 0.0
O888 O 0.28345 0.38976 0.27902 0.0
O889 O 0.30256 0.38329 0.34144 0.0
O890 O 0.24368 0.38171 0.34705 0.0
O891 O 0.26556 0.34865 0.38465 0.0
C892 C 0.39273 0.31372 0.35303 0.0
C893 C 0.40449 0.33852 0.36813 0.0
H894 H 0.41968 0.38807 0.403 0.0
H895 H 0.38695 0.42246 0.43263 0.0
H896 H 0.31201 0.26328 0.33971 0.0
H897 H 0.36288 0.26772 0.3316 0.0
H898 H 0.40608 0.29728 0.34213 0.0
H899 H 0.42675 0.34097 0.36804 0.0
Mn900 Mn 0.60536 0.27293 0.32915 0.0
Mn901 Mn 0.65961 0.29501 0.3879 0.0
C902 C 0.6351 0.30615 0.30057 0.0
C903 C 0.56022 0.27504 0.30289 0.0
C904 C 0.65742 0.23904 0.34594 0.0
O905 O 0.59252 0.26361 0.389 0.0
O906 O 0.62961 0.27986 0.42461 0.0
C907 C 0.63499 0.34093 0.43685 0.0
N908 N 0.65545 0.33089 0.41171 0.0
C909 C 0.68381 0.37098 0.4241 0.0
C910 C 0.66294 0.38185 0.45003 0.0
C911 C 0.6382 0.36699 0.45563 0.0
C912 C 0.67895 0.34539 0.40491 0.0
H913 H 0.61639 0.32917 0.44219 0.0
C914 C 0.60556 0.26872 0.42323 0.0
O915 O 0.57407 0.25219 0.30337 0.0
O916 O 0.57205 0.29664 0.31928 0.0
N917 N 0.69012 0.31042 0.35761 0.0
C918 C 0.70617 0.29872 0.32711 0.0
C919 C 0.7306 0.31211 0.3144 0.0
C920 C 0.73848 0.33704 0.33382 0.0
C921 C 0.72162 0.3486 0.36525 0.0
C922 C 0.69731 0.33457 0.376 0.0
H923 H 0.70051 0.27915 0.3131 0.0
O924 O 0.6223 0.28822 0.27722 0.0
O925 O 0.63257 0.30248 0.34152 0.0
O926 O 0.63343 0.24117 0.33009 0.0
O927 O 0.66868 0.25803 0.36743 0.0
C928 C 0.72774 0.37368 0.38597 0.0
C929 C 0.70883 0.38487 0.41541 0.0
H930 H 0.66545 0.40181 0.46505 0.0
H931 H 0.62165 0.37553 0.47445 0.0
H932 H 0.7436 0.30299 0.2903 0.0
H933 H 0.75743 0.34719 0.32429 0.0
H934 H 0.74653 0.38491 0.37861 0.0
H935 H 0.71333 0.40457 0.43014 0.0
Mn936 Mn 0.7427 0.60406 0.33519 0.0
Mn937 Mn 0.71323 0.65353 0.39609 0.0
C938 C 0.71639 0.63872 0.30416 0.0
C939 C 0.74144 0.56034 0.30373 0.0
C940 C 0.77314 0.6558 0.36868 0.0
O941 O 0.74616 0.58742 0.39421 0.0
O942 O 0.72713 0.62234 0.43092 0.0
C943 C 0.66549 0.61862 0.42059 0.0
N944 N 0.67557 0.64225 0.403 0.0
C945 C 0.62974 0.65761 0.38531 0.0
C946 C 0.61889 0.63343 0.40328 0.0
C947 C 0.63686 0.61383 0.42094 0.0
C948 C 0.65848 0.661 0.38524 0.0
H949 H 0.67919 0.6035 0.43408 0.0
C950 C 0.73885 0.59876 0.42878 0.0
O951 O 0.76467 0.57301 0.31065 0.0
O952 O 0.71903 0.57267 0.3158 0.0
N953 N 0.69846 0.68555 0.36893 0.0
C954 C 0.7118 0.70983 0.36087 0.0
C955 C 0.69669 0.73273 0.34654 0.0
C956 C 0.6679 0.73069 0.34185 0.0
C957 C 0.6544 0.70616 0.35331 0.0
C958 C 0.67056 0.68422 0.36806 0.0
H959 H 0.73386 0.71169 0.36525 0.0
O960 O 0.73373 0.62449 0.28183 0.0
O961 O 0.71428 0.63179 0.34381 0.0
O962 O 0.77321 0.6322 0.35037 0.0
O963 O 0.75175 0.66612 0.38671 0.0
C964 C 0.62546 0.70308 0.35253 0.0
C965 C 0.61314 0.67866 0.36806 0.0
H966 H 0.5968 0.62978 0.40394 0.0
H967 H 0.62866 0.59511 0.43488 0.0
H968 H 0.70721 0.75187 0.33907 0.0
H969 H 0.65632 0.74833 0.33054 0.0
H970 H 0.61249 0.71961 0.34092 0.0
H971 H 0.59085 0.67661 0.36768 0.0
Mn972 Mn 0.41201 0.74377 0.33132 0.0
Mn973 Mn 0.36185 0.7173 0.39481 0.0
C974 C 0.37771 0.71536 0.30271 0.0
C975 C 0.45632 0.74199 0.30187 0.0
C976 C 0.36018 0.77565 0.35919 0.0
O977 O 0.42772 0.75076 0.39063 0.0
O978 O 0.3933 0.73177 0.42864 0.0
C979 C 0.39548 0.66993 0.42396 0.0
N980 N 0.37219 0.67975 0.40516 0.0
C981 C 0.35626 0.63362 0.39024 0.0
C982 C 0.38011 0.62305 0.40941 0.0
C983 C 0.39981 0.6413 0.42635 0.0
C984 C 0.35332 0.66236 0.38818 0.0
H985 H 0.41067 0.68382 0.43686 0.0
C986 C 0.41666 0.74398 0.42577 0.0
O987 O 0.44295 0.76506 0.30528 0.0
O988 O 0.44425 0.7199 0.31621 0.0
N989 N 0.32943 0.70206 0.36914 0.0
C990 C 0.3051 0.71533 0.36157 0.0
C991 C 0.28188 0.70008 0.34855 0.0
C992 C 0.28358 0.67122 0.34506 0.0
C993 C 0.3081 0.65782 0.35659 0.0
C994 C 0.33036 0.67416 0.37005 0.0
H995 H 0.30351 0.73745 0.36513 0.0
O996 O 0.39246 0.7313 0.27866 0.0
O997 O 0.38404 0.71567 0.34275 0.0
O998 O 0.38351 0.77456 0.34029 0.0
O999 O 0.35021 0.75578 0.38152 0.0
C1000 C 0.31084 0.62887 0.35734 0.0
C1001 C 0.33506 0.61677 0.37373 0.0
H1002 H 0.3834 0.60098 0.41163 0.0
H1003 H 0.41826 0.63333 0.44128 0.0
H1004 H 0.26274 0.71055 0.34119 0.0
H1005 H 0.2657 0.65952 0.33476 0.0
H1006 H 0.29419 0.61571 0.34633 0.0
H1007 H 0.33681 0.59448 0.37467 0.0
Mn1008 Mn 0.27313 0.60601 0.19047 0.0
Mn1009 Mn 0.30054 0.65663 0.12908 0.0
C1010 C 0.30125 0.63993 0.22064 0.0
C1011 C 0.2745 0.56159 0.21921 0.0
C1012 C 0.24183 0.65832 0.16299 0.0
O1013 O 0.2669 0.59077 0.13078 0.0
O1014 O 0.28556 0.62597 0.09414 0.0
C1015 C 0.34734 0.62242 0.09922 0.0
N1016 N 0.33792 0.64569 0.1186 0.0
C1017 C 0.38433 0.6607 0.13372 0.0
C1018 C 0.3945 0.63688 0.11393 0.0
C1019 C 0.3759 0.61765 0.09662 0.0
C1020 C 0.35563 0.66407 0.13601 0.0
H1021 H 0.33318 0.60758 0.086 0.0
C1022 C 0.27351 0.60251 0.09611 0.0
O1023 O 0.25143 0.57491 0.21525 0.0
O1024 O 0.29678 0.57373 0.20575 0.0
N1025 N 0.31632 0.68838 0.15586 0.0
C1026 C 0.30344 0.7128 0.16428 0.0
C1027 C 0.3191 0.73566 0.1776 0.0
C1028 C 0.34795 0.73346 0.18087 0.0
C1029 C 0.36094 0.70887 0.1687 0.0
C1030 C 0.34422 0.68701 0.15481 0.0
H1031 H 0.28132 0.71477 0.16093 0.0
O1032 O 0.28484 0.62514 0.24389 0.0
O1033 O 0.30153 0.63389 0.1805 0.0
O1034 O 0.24249 0.6346 0.18071 0.0
O1035 O 0.26227 0.66877 0.14244 0.0
C1036 C 0.38987 0.7057 0.16765 0.0
C1037 C 0.40156 0.68146 0.1506 0.0
H1038 H 0.41653 0.63327 0.11151 0.0
H1039 H 0.38356 0.59923 0.08123 0.0
H1040 H 0.30895 0.75489 0.18541 0.0
H1041 H 0.35996 0.75106 0.19146 0.0
H1042 H 0.40331 0.72203 0.17892 0.0
H1043 H 0.42383 0.67939 0.14943 0.0
Mn1044 Mn 0.41004 0.27398 0.18688 0.0
Mn1045 Mn 0.3609 0.30343 0.12542 0.0
C1046 C 0.37528 0.30043 0.21742 0.0
C1047 C 0.45365 0.27521 0.21864 0.0
C1048 C 0.35828 0.24367 0.15323 0.0
O1049 O 0.42696 0.27032 0.12813 0.0
O1050 O 0.39215 0.28914 0.09097 0.0
C1051 C 0.39632 0.35075 0.10074 0.0
N1052 N 0.37253 0.34094 0.11829 0.0
C1053 C 0.35774 0.38693 0.13619 0.0
C1054 C 0.38209 0.39749 0.11826 0.0
C1055 C 0.40146 0.3793 0.10048 0.0
C1056 C 0.35397 0.35825 0.13608 0.0
H1057 H 0.41129 0.33689 0.0872 0.0
C1058 C 0.41574 0.27743 0.09342 0.0
O1059 O 0.44092 0.252 0.21181 0.0
O1060 O 0.44142 0.2976 0.20636 0.0
N1061 N 0.32889 0.31859 0.15223 0.0
C1062 C 0.30442 0.30556 0.1601 0.0
C1063 C 0.28165 0.32094 0.17434 0.0
C1064 C 0.28405 0.34968 0.17922 0.0
C1065 C 0.30881 0.36287 0.16799 0.0
C1066 C 0.33057 0.34646 0.15316 0.0
H1067 H 0.30232 0.28354 0.15565 0.0
O1068 O 0.38936 0.28313 0.23999 0.0
O1069 O 0.38244 0.30244 0.17785 0.0
O1070 O 0.38189 0.24356 0.17152 0.0
O1071 O 0.34799 0.26503 0.13513 0.0
C1072 C 0.31233 0.39175 0.16917 0.0
C1073 C 0.33693 0.40376 0.15367 0.0
H1074 H 0.38603 0.41951 0.11774 0.0
H1075 H 0.4203 0.38727 0.08657 0.0
H1076 H 0.26235 0.31065 0.18166 0.0
H1077 H 0.26653 0.36146 0.19054 0.0
H1078 H 0.29605 0.40494 0.18116 0.0
H1079 H 0.33931 0.426 0.15435 0.0
Mn1080 Mn 0.74297 0.40813 0.19452 0.0
Mn1081 Mn 0.72078 0.35369 0.13624 0.0
C1082 C 0.70936 0.3788 0.22301 0.0
C1083 C 0.74109 0.45342 0.22042 0.0
C1084 C 0.77661 0.35566 0.17862 0.0
O1085 O 0.75249 0.42067 0.13465 0.0
O1086 O 0.73669 0.3832 0.09954 0.0
C1087 C 0.6759 0.37846 0.08527 0.0
N1088 N 0.6852 0.35822 0.11144 0.0
C1089 C 0.6449 0.3303 0.09824 0.0
C1090 C 0.6348 0.35094 0.07124 0.0
C1091 C 0.65017 0.37533 0.06538 0.0
C1092 C 0.67026 0.335 0.11824 0.0
H1093 H 0.68804 0.39677 0.07973 0.0
C1094 C 0.74772 0.40728 0.10063 0.0
O1095 O 0.76384 0.43939 0.22022 0.0
O1096 O 0.71944 0.44165 0.20404 0.0
N1097 N 0.70458 0.32362 0.16655 0.0
C1098 C 0.71575 0.30758 0.19748 0.0
C1099 C 0.70186 0.28342 0.21013 0.0
C1100 C 0.67701 0.27581 0.1902 0.0
C1101 C 0.66602 0.29265 0.15833 0.0
C1102 C 0.6805 0.3167 0.14768 0.0
H1103 H 0.73527 0.31301 0.21184 0.0
O1104 O 0.72735 0.39146 0.24645 0.0
O1105 O 0.71325 0.38111 0.18209 0.0
O1106 O 0.77464 0.37987 0.19376 0.0
O1107 O 0.75745 0.34424 0.15765 0.0
C1108 C 0.64109 0.28674 0.13702 0.0
C1109 C 0.63053 0.30557 0.10697 0.0
H1110 H 0.6151 0.34848 0.0554 0.0
H1111 H 0.64231 0.39163 0.04544 0.0
H1112 H 0.71054 0.27042 0.23457 0.0
H1113 H 0.66649 0.25705 0.19961 0.0
H1114 H 0.62953 0.26816 0.14431 0.0
H1115 H 0.61099 0.30119 0.09167 0.0
Mn1116 Mn 0.60827 0.74271 0.19048 0.0
Mn1117 Mn 0.65636 0.71324 0.12678 0.0
C1118 C 0.64252 0.71482 0.21951 0.0
C1119 C 0.56436 0.74179 0.2215 0.0
C1120 C 0.66003 0.77275 0.15659 0.0
O1121 O 0.59152 0.7481 0.13188 0.0
O1122 O 0.62458 0.72728 0.09341 0.0
C1123 C 0.62101 0.66566 0.10324 0.0
N1124 N 0.64494 0.67563 0.12 0.0
C1125 C 0.66029 0.62976 0.13739 0.0
C1126 C 0.6358 0.61902 0.12028 0.0
C1127 C 0.61607 0.63707 0.10315 0.0
C1128 C 0.66386 0.65846 0.13716 0.0
H1129 H 0.60578 0.67942 0.09024 0.0
C1130 C 0.60165 0.74013 0.09678 0.0
O1131 O 0.57776 0.7648 0.21631 0.0
O1132 O 0.57622 0.71939 0.20836 0.0
N1133 N 0.68882 0.6983 0.15253 0.0
C1134 C 0.71331 0.71151 0.1596 0.0
C1135 C 0.73629 0.69632 0.17344 0.0
C1136 C 0.73416 0.66757 0.17838 0.0
C1137 C 0.70941 0.65418 0.16772 0.0
C1138 C 0.68737 0.67042 0.15351 0.0
H1139 H 0.71521 0.73353 0.15501 0.0
O1140 O 0.62865 0.73176 0.24307 0.0
O1141 O 0.63535 0.71397 0.17986 0.0
O1142 O 0.63718 0.77278 0.17711 0.0
O1143 O 0.66915 0.7518 0.13598 0.0
C1144 C 0.70613 0.62528 0.16893 0.0
C1145 C 0.68145 0.61308 0.15419 0.0
H1146 H 0.63201 0.59697 0.11988 0.0
H1147 H 0.5971 0.62897 0.08987 0.0
H1148 H 0.75557 0.70675 0.18031 0.0
H1149 H 0.75186 0.65592 0.1893 0.0
H1150 H 0.72268 0.61223 0.18033 0.0
H1151 H 0.67923 0.59083 0.1549 0.0
C1152 C 0.33455 0.2043 0.19211 0.0
C1153 C 0.34128 0.21781 0.15331 0.0
C1154 C 0.31098 0.18533 0.11506 0.0
C1155 C 0.30086 0.17512 0.15424 0.0
N1156 N 0.3033 0.17457 0.23081 0.0
N1157 N 0.33759 0.2199 0.07717 0.0
C1158 C 0.31316 0.18402 0.19287 0.0
C1159 C 0.33007 0.2078 0.11457 0.0
N1160 N 0.34834 0.21074 0.22862 0.0
N1161 N 0.30301 0.17274 0.07827 0.0
H1162 H 0.3537 0.23413 0.07468 0.0
H1163 H 0.32735 0.21657 0.04866 0.0
H1164 H 0.28942 0.15601 0.07765 0.0
H1165 H 0.31164 0.17698 0.04881 0.0
H1166 H 0.34751 0.1986 0.25579 0.0
H1167 H 0.3621 0.22707 0.23185 0.0
H1168 H 0.30757 0.18398 0.25971 0.0
H1169 H 0.28953 0.15821 0.23398 0.0
C1170 C 0.83163 0.30657 0.21928 0.0
C1171 C 0.84505 0.29981 0.18069 0.0
C1172 C 0.81733 0.33421 0.14294 0.0
C1173 C 0.80312 0.34034 0.18116 0.0
N1174 N 0.80003 0.33694 0.25701 0.0
N1175 N 0.85553 0.31107 0.10833 0.0
C1176 C 0.81161 0.32821 0.21991 0.0
C1177 C 0.83952 0.3151 0.14342 0.0
N1178 N 0.83674 0.29109 0.25456 0.0
N1179 N 0.80866 0.3457 0.10572 0.0
H1180 H 0.87127 0.29645 0.1075 0.0
H1181 H 0.8548 0.32342 0.08141 0.0
H1182 H 0.79323 0.36062 0.1043 0.0
H1183 H 0.81558 0.33955 0.076 0.0
H1184 H 0.82543 0.29264 0.28246 0.0
H1185 H 0.85161 0.27554 0.25525 0.0
H1186 H 0.80682 0.33078 0.28678 0.0
H1187 H 0.78479 0.35209 0.25819 0.0
C1188 C 0.68657 0.8102 0.19555 0.0
C1189 C 0.67748 0.79827 0.15675 0.0
C1190 C 0.70908 0.82873 0.11727 0.0
C1191 C 0.71911 0.83977 0.15608 0.0
N1192 N 0.71226 0.84601 0.2316 0.0
N1193 N 0.6743 0.8014 0.0809 0.0
C1194 C 0.70611 0.83227 0.19494 0.0
C1195 C 0.68706 0.80913 0.11766 0.0
N1196 N 0.67802 0.79942 0.2334 0.0
N1197 N 0.72077 0.8369 0.07987 0.0
H1198 H 0.65791 0.7874 0.08011 0.0
H1199 H 0.67806 0.81058 0.0517 0.0
H1200 H 0.73467 0.85331 0.07761 0.0
H1201 H 0.71745 0.82689 0.05118 0.0
H1202 H 0.68768 0.80364 0.26212 0.0
H1203 H 0.6623 0.78493 0.23657 0.0
H1204 H 0.70049 0.84428 0.25907 0.0
H1205 H 0.72773 0.86076 0.23458 0.0
C1206 C 0.20539 0.68351 0.20597 0.0
C1207 C 0.21592 0.67488 0.16588 0.0
C1208 C 0.18064 0.70304 0.1306 0.0
C1209 C 0.1738 0.71536 0.17003 0.0
N1210 N 0.18136 0.71924 0.24513 0.0
N1211 N 0.21284 0.67563 0.08964 0.0
C1212 C 0.18624 0.7058 0.20782 0.0
C1213 C 0.20314 0.68427 0.12809 0.0
N1214 N 0.21356 0.6707 0.2424 0.0
N1215 N 0.16537 0.70929 0.09553 0.0
H1216 H 0.22773 0.66028 0.08633 0.0
H1217 H 0.20706 0.68444 0.06094 0.0
H1218 H 0.14912 0.72334 0.09631 0.0
H1219 H 0.16715 0.69903 0.06671 0.0
H1220 H 0.20425 0.67427 0.27161 0.0
H1221 H 0.22786 0.65473 0.24341 0.0
H1222 H 0.19273 0.71576 0.27258 0.0
H1223 H 0.16734 0.73545 0.24795 0.0
C1224 C 0.31288 0.83426 0.39146 0.0
C1225 C 0.30216 0.84269 0.35154 0.0
C1226 C 0.33441 0.81141 0.31535 0.0
C1227 C 0.34351 0.80147 0.35558 0.0
N1228 N 0.34759 0.80879 0.43061 0.0
N1229 N 0.30582 0.8436 0.27556 0.0
C1230 C 0.33463 0.81464 0.39322 0.0
C1231 C 0.31416 0.83284 0.31347 0.0
N1232 N 0.30148 0.84439 0.42792 0.0
N1233 N 0.34395 0.79944 0.27897 0.0
H1234 H 0.29004 0.85809 0.27282 0.0
H1235 H 0.31549 0.83968 0.2468 0.0
H1236 H 0.36015 0.7854 0.2781 0.0
H1237 H 0.33532 0.80253 0.24923 0.0
H1238 H 0.30539 0.83644 0.45791 0.0
H1239 H 0.28696 0.86023 0.42816 0.0
H1240 H 0.34439 0.81964 0.4586 0.0
H1241 H 0.36357 0.79448 0.43291 0.0
C1242 C 0.20858 0.33018 0.40528 0.0
C1243 C 0.21861 0.3409 0.36623 0.0
C1244 C 0.18593 0.31118 0.32739 0.0
C1245 C 0.17694 0.29948 0.36644 0.0
N1246 N 0.174 0.30288 0.44227 0.0
N1247 N 0.21209 0.34633 0.29052 0.0
C1248 C 0.18662 0.31052 0.40532 0.0
C1249 C 0.20565 0.33308 0.32752 0.0
N1250 N 0.22022 0.3387 0.4425 0.0
N1251 N 0.17712 0.3003 0.28976 0.0
H1252 H 0.22796 0.36063 0.28711 0.0
H1253 H 0.20032 0.34458 0.26308 0.0
H1254 H 0.16124 0.28596 0.28695 0.0
H1255 H 0.18667 0.30427 0.26085 0.0
H1256 H 0.21697 0.32891 0.47138 0.0
H1257 H 0.23402 0.35521 0.44446 0.0
H1258 H 0.17783 0.31215 0.47137 0.0
H1259 H 0.15767 0.28881 0.44334 0.0
C1260 C 0.69841 0.17627 0.37994 0.0
C1261 C 0.71407 0.17148 0.34277 0.0
C1262 C 0.68538 0.20481 0.30407 0.0
C1263 C 0.67287 0.21267 0.34289 0.0
N1264 N 0.66702 0.20617 0.41804 0.0
N1265 N 0.7232 0.18079 0.2693 0.0
C1266 C 0.67894 0.19812 0.38078 0.0
C1267 C 0.70736 0.1852 0.30446 0.0
N1268 N 0.70245 0.15989 0.41459 0.0
N1269 N 0.67666 0.21657 0.26714 0.0
H1270 H 0.73896 0.16616 0.26851 0.0
H1271 H 0.72176 0.19243 0.24172 0.0
H1272 H 0.66121 0.23151 0.26611 0.0
H1273 H 0.68313 0.21016 0.23731 0.0
H1274 H 0.68992 0.16012 0.44136 0.0
H1275 H 0.71728 0.14434 0.41512 0.0
H1276 H 0.67303 0.19896 0.44765 0.0
H1277 H 0.65186 0.22136 0.41963 0.0
C1278 C 0.81234 0.67995 0.32997 0.0
C1279 C 0.79899 0.67282 0.36872 0.0
C1280 C 0.83108 0.70346 0.40711 0.0
C1281 C 0.84089 0.71408 0.36801 0.0
N1282 N 0.84045 0.71269 0.29136 0.0
N1283 N 0.79678 0.67646 0.44488 0.0
C1284 C 0.83188 0.70202 0.32927 0.0
C1285 C 0.80884 0.68411 0.4075 0.0
N1286 N 0.80652 0.66592 0.29345 0.0
N1287 N 0.84381 0.71118 0.4439 0.0
H1288 H 0.78266 0.66025 0.4473 0.0
H1289 H 0.79997 0.68679 0.47335 0.0
H1290 H 0.86039 0.72496 0.44464 0.0
H1291 H 0.83987 0.7021 0.47314 0.0
H1292 H 0.81857 0.66741 0.26623 0.0
H1293 H 0.79104 0.65118 0.29037 0.0
H1294 H 0.83086 0.70828 0.26264 0.0
H1295 H 0.85601 0.72735 0.28814 0.0
C1296 C 0.70486 0.83435 0.82847 0.0
C1297 C 0.71871 0.84105 0.86696 0.0
C1298 C 0.68666 0.81065 0.90593 0.0
C1299 C 0.67609 0.80054 0.86699 0.0
N1300 N 0.67445 0.80342 0.79045 0.0
N1301 N 0.72146 0.8374 0.94303 0.0
C1302 C 0.68449 0.81301 0.82817 0.0
C1303 C 0.70907 0.82981 0.90591 0.0
N1304 N 0.71108 0.8481 0.79182 0.0
N1305 N 0.67442 0.80266 0.943 0.0
H1306 H 0.73559 0.85361 0.94521 0.0
H1307 H 0.71845 0.82713 0.97159 0.0
H1308 H 0.65766 0.7891 0.94405 0.0
H1309 H 0.67895 0.81126 0.97235 0.0
H1310 H 0.69871 0.84741 0.7649 0.0
H1311 H 0.72751 0.86173 0.78824 0.0
H1312 H 0.68344 0.80781 0.76127 0.0
H1313 H 0.65804 0.7897 0.78763 0.0
C1314 C 0.18554 0.70591 0.81349 0.0
C1315 C 0.17304 0.71535 0.85133 0.0
C1316 C 0.20217 0.684 0.89308 0.0
C1317 C 0.21509 0.67481 0.85525 0.0
N1318 N 0.21295 0.67093 0.7787 0.0
N1319 N 0.1644 0.70903 0.92574 0.0
C1320 C 0.20468 0.68361 0.81521 0.0
C1321 C 0.17974 0.70285 0.89066 0.0
N1322 N 0.18073 0.71948 0.77628 0.0
N1323 N 0.21169 0.6751 0.93146 0.0
H1324 H 0.1482 0.72314 0.925 0.0
H1325 H 0.16607 0.69869 0.95449 0.0
H1326 H 0.22652 0.65967 0.93463 0.0
H1327 H 0.20582 0.68372 0.96026 0.0
H1328 H 0.19214 0.71609 0.74881 0.0
H1329 H 0.16669 0.73567 0.77355 0.0
H1330 H 0.20374 0.67464 0.74947 0.0
H1331 H 0.2272 0.65493 0.77763 0.0
C1332 C 0.33126 0.20668 0.90394 0.0
C1333 C 0.34095 0.2174 0.8648 0.0
C1334 C 0.3122 0.18339 0.82679 0.0
C1335 C 0.29908 0.17605 0.86566 0.0
N1336 N 0.29732 0.1793 0.94187 0.0
N1337 N 0.34046 0.216 0.78816 0.0
C1338 C 0.30911 0.18722 0.90442 0.0
C1339 C 0.33184 0.20537 0.82608 0.0
N1340 N 0.34407 0.21442 0.94066 0.0
N1341 N 0.30603 0.16961 0.79017 0.0
H1342 H 0.35625 0.23041 0.78492 0.0
H1343 H 0.33079 0.21174 0.75946 0.0
H1344 H 0.2903 0.15514 0.78706 0.0
H1345 H 0.31794 0.17111 0.76281 0.0
H1346 H 0.34023 0.20534 0.96994 0.0
H1347 H 0.3606 0.22826 0.94133 0.0
H1348 H 0.30062 0.18946 0.97045 0.0
H1349 H 0.28333 0.16297 0.9443 0.0
C1350 C 0.83192 0.31291 0.81668 0.0
C1351 C 0.84056 0.30187 0.85647 0.0
C1352 C 0.80854 0.33275 0.89354 0.0
C1353 C 0.79832 0.34227 0.85389 0.0
N1354 N 0.80311 0.34557 0.77818 0.0
N1355 N 0.84335 0.30705 0.93205 0.0
C1356 C 0.81117 0.33389 0.8156 0.0
C1357 C 0.83076 0.31366 0.89466 0.0
N1358 N 0.84242 0.30241 0.77986 0.0
N1359 N 0.7963 0.34132 0.9303 0.0
H1360 H 0.85968 0.29312 0.93392 0.0
H1361 H 0.83952 0.31705 0.9606 0.0
H1362 H 0.78143 0.35681 0.93136 0.0
H1363 H 0.79987 0.33233 0.9597 0.0
H1364 H 0.83433 0.30635 0.75001 0.0
H1365 H 0.8589 0.2887 0.77863 0.0
H1366 H 0.81337 0.34286 0.74957 0.0
H1367 H 0.78684 0.35953 0.77577 0.0
C1368 C 0.68637 0.20679 0.70655 0.0
C1369 C 0.67382 0.21601 0.66862 0.0
C1370 C 0.7024 0.18393 0.62726 0.0
C1371 C 0.71533 0.17492 0.66515 0.0
N1372 N 0.71383 0.17204 0.7418 0.0
N1373 N 0.66492 0.20921 0.5944 0.0
C1374 C 0.70531 0.18431 0.70512 0.0
C1375 C 0.68025 0.20311 0.62948 0.0
N1376 N 0.68176 0.22073 0.74351 0.0
N1377 N 0.71171 0.1746 0.58897 0.0
H1378 H 0.649 0.22364 0.59489 0.0
H1379 H 0.66633 0.19855 0.56588 0.0
H1380 H 0.7264 0.15901 0.58598 0.0
H1381 H 0.70585 0.18303 0.56006 0.0
H1382 H 0.69319 0.2175 0.77098 0.0
H1383 H 0.66788 0.23707 0.746 0.0
H1384 H 0.70496 0.17618 0.77115 0.0
H1385 H 0.72795 0.15591 0.74297 0.0
C1386 C 0.81136 0.68407 0.69479 0.0
C1387 C 0.79927 0.67481 0.65621 0.0
C1388 C 0.82925 0.70657 0.61613 0.0
C1389 C 0.84039 0.71683 0.65475 0.0
N1390 N 0.84674 0.7106 0.73039 0.0
N1391 N 0.80196 0.67148 0.58035 0.0
C1392 C 0.83312 0.70394 0.69382 0.0
C1393 C 0.80982 0.6844 0.61692 0.0
N1394 N 0.80097 0.67536 0.73283 0.0
N1395 N 0.83716 0.71815 0.57853 0.0
H1396 H 0.78811 0.65496 0.57992 0.0
H1397 H 0.81093 0.67522 0.55097 0.0
H1398 H 0.85352 0.73209 0.5759 0.0
H1399 H 0.82699 0.7147 0.55001 0.0
H1400 H 0.80519 0.6851 0.76149 0.0
H1401 H 0.78679 0.65938 0.73624 0.0
H1402 H 0.84549 0.69881 0.75789 0.0
H1403 H 0.86075 0.72674 0.73343 0.0
C1404 C 0.31376 0.83303 0.708 0.0
C1405 C 0.30161 0.84274 0.67 0.0
C1406 C 0.33392 0.81454 0.62819 0.0
C1407 C 0.34296 0.80151 0.66583 0.0
N1408 N 0.34355 0.79966 0.74247 0.0
N1409 N 0.30061 0.84409 0.59359 0.0
C1410 C 0.33396 0.81156 0.70608 0.0
C1411 C 0.31216 0.83414 0.63002 0.0
N1412 N 0.3056 0.84397 0.74591 0.0
N1413 N 0.34675 0.80858 0.5907 0.0
H1414 H 0.2861 0.85994 0.59334 0.0
H1415 H 0.30437 0.83597 0.56366 0.0
H1416 H 0.36272 0.79427 0.5883 0.0
H1417 H 0.34346 0.81937 0.56268 0.0
H1418 H 0.31543 0.84018 0.77457 0.0
H1419 H 0.28985 0.85848 0.74872 0.0
H1420 H 0.33495 0.80284 0.77224 0.0
H1421 H 0.3597 0.78557 0.74332 0.0
C1422 C 0.18481 0.31061 0.61654 0.0
C1423 C 0.17515 0.29977 0.6556 0.0
C1424 C 0.2039 0.33365 0.69392 0.0
C1425 C 0.21686 0.34124 0.65507 0.0
N1426 N 0.21839 0.33857 0.57882 0.0
N1427 N 0.17528 0.30115 0.73223 0.0
C1428 C 0.20679 0.33027 0.61621 0.0
C1429 C 0.18415 0.31174 0.69443 0.0
N1430 N 0.17213 0.30282 0.57975 0.0
N1431 N 0.2103 0.34715 0.7307 0.0
H1432 H 0.15928 0.28695 0.73527 0.0
H1433 H 0.18484 0.30526 0.76106 0.0
H1434 H 0.2261 0.36154 0.73383 0.0
H1435 H 0.19856 0.34553 0.75821 0.0
H1436 H 0.17591 0.31196 0.55053 0.0
H1437 H 0.15576 0.28879 0.57893 0.0
H1438 H 0.21512 0.32859 0.55011 0.0
H1439 H 0.23216 0.35509 0.57656 0.0
C1440 C 0.22564 0.07262 0.03275 0.0
C1441 C 0.24717 0.08634 0.05461 0.0
C1442 C 0.2708 0.09619 0.98788 0.0
C1443 C 0.24679 0.08735 0.96608 0.0
N1444 N 0.20592 0.05937 0.9646 0.0
N1445 N 0.2942 0.10187 0.05562 0.0
C1446 C 0.22582 0.07257 0.98763 0.0
C1447 C 0.27133 0.09468 0.03285 0.0
N1448 N 0.20473 0.06084 0.0555 0.0
N1449 N 0.29212 0.1076 0.96548 0.0
H1450 H 0.29455 0.10066 0.08861 0.0
H1451 H 0.31315 0.10713 0.04227 0.0
H1452 H 0.29231 0.10784 0.93244 0.0
H1453 H 0.30922 0.1171 0.97914 0.0
H1454 H 0.18711 0.05206 0.0423 0.0
H1455 H 0.2054 0.05986 0.08852 0.0
H1456 H 0.18998 0.04771 0.97762 0.0
H1457 H 0.2065 0.05899 0.93156 0.0
C1458 C 0.91941 0.27479 0.98865 0.0
C1459 C 0.92703 0.25051 0.96661 0.0
C1460 C 0.9382 0.22764 0.03349 0.0
C1461 C 0.92535 0.24976 0.05523 0.0
N1462 N 0.91548 0.29816 0.05671 0.0
N1463 N 0.95319 0.20864 0.9657 0.0
C1464 C 0.9199 0.27475 0.03374 0.0
C1465 C 0.93993 0.22857 0.98847 0.0
N1466 N 0.9106 0.29718 0.96627 0.0
N1467 N 0.94774 0.20559 0.05604 0.0
H1468 H 0.95471 0.20977 0.93276 0.0
H1469 H 0.96396 0.19224 0.979 0.0
H1470 H 0.94768 0.20544 0.08908 0.0
H1471 H 0.95532 0.18755 0.04251 0.0
H1472 H 0.90207 0.31474 0.97998 0.0
H1473 H 0.91152 0.29773 0.93326 0.0
H1474 H 0.91242 0.31758 0.04348 0.0
H1475 H 0.91754 0.29824 0.0896 0.0
C1476 C 0.74775 0.91898 0.98883 0.0
C1477 C 0.77152 0.92851 0.96711 0.0
C1478 C 0.79271 0.94269 0.0339 0.0
C1479 C 0.77188 0.92771 0.05545 0.0
N1480 N 0.72605 0.90879 0.05679 0.0
N1481 N 0.81238 0.95647 0.96592 0.0
C1482 C 0.74789 0.91868 0.03386 0.0
C1483 C 0.79246 0.94317 0.98883 0.0
N1484 N 0.72595 0.909 0.96598 0.0
N1485 N 0.81299 0.95532 0.05689 0.0
H1486 H 0.81158 0.95738 0.93291 0.0
H1487 H 0.82892 0.96723 0.97896 0.0
H1488 H 0.81252 0.95564 0.08993 0.0
H1489 H 0.82964 0.96596 0.0439 0.0
H1490 H 0.70813 0.90051 0.97903 0.0
H1491 H 0.72561 0.90985 0.93297 0.0
H1492 H 0.70781 0.90125 0.04381 0.0
H1493 H 0.726 0.90907 0.08983 0.0
C1494 C 0.07947 0.79 0.98899 0.0
C1495 C 0.09106 0.76726 0.96729 0.0
C1496 C 0.09576 0.74191 0.0337 0.0
C1497 C 0.09087 0.76697 0.0554 0.0
N1498 N 0.06877 0.81116 0.05711 0.0
N1499 N 0.10034 0.71871 0.96549 0.0
C1500 C 0.0792 0.78976 0.03398 0.0
C1501 C 0.09565 0.74202 0.98862 0.0
N1502 N 0.0697 0.81185 0.96619 0.0
N1503 N 0.10118 0.71862 0.05648 0.0
H1504 H 0.09893 0.71875 0.93252 0.0
H1505 H 0.10433 0.69937 0.97837 0.0
H1506 H 0.09977 0.71842 0.08946 0.0
H1507 H 0.1063 0.69962 0.04334 0.0
H1508 H 0.06187 0.82989 0.97934 0.0
H1509 H 0.06907 0.81146 0.93315 0.0
H1510 H 0.06017 0.82892 0.04424 0.0
H1511 H 0.06798 0.81044 0.09013 0.0
C1512 C 0.22812 0.9353 0.48833 0.0
C1513 C 0.25019 0.92232 0.46676 0.0
C1514 C 0.27483 0.91552 0.53337 0.0
C1515 C 0.25019 0.92246 0.55495 0.0
N1516 N 0.2073 0.94713 0.55627 0.0
N1517 N 0.29776 0.90876 0.46536 0.0
C1518 C 0.2282 0.9355 0.53335 0.0
C1519 C 0.27487 0.91558 0.48832 0.0
N1520 N 0.20694 0.94635 0.46542 0.0
N1521 N 0.29756 0.90823 0.55631 0.0
H1522 H 0.29794 0.90992 0.43236 0.0
H1523 H 0.31662 0.90303 0.47837 0.0
H1524 H 0.29775 0.90944 0.58931 0.0
H1525 H 0.31618 0.90173 0.5433 0.0
H1526 H 0.18936 0.95526 0.47845 0.0
H1527 H 0.20739 0.94699 0.43239 0.0
H1528 H 0.19014 0.95677 0.54324 0.0
H1529 H 0.20781 0.94787 0.58928 0.0
C1530 C 0.07237 0.2257 0.53287 0.0
C1531 C 0.08598 0.24727 0.55473 0.0
C1532 C 0.09455 0.27146 0.48802 0.0
C1533 C 0.08692 0.24703 0.46631 0.0
N1534 N 0.06077 0.20503 0.46465 0.0
N1535 N 0.10191 0.29415 0.55608 0.0
C1536 C 0.07277 0.22562 0.48778 0.0
C1537 C 0.09392 0.27162 0.5331 0.0
N1538 N 0.06012 0.20509 0.55568 0.0
N1539 N 0.10358 0.29367 0.46522 0.0
H1540 H 0.10095 0.29432 0.58909 0.0
H1541 H 0.10848 0.31276 0.5431 0.0
H1542 H 0.10337 0.29371 0.43218 0.0
H1543 H 0.11066 0.31206 0.47833 0.0
H1544 H 0.05047 0.18791 0.54257 0.0
H1545 H 0.05912 0.20587 0.58869 0.0
H1546 H 0.05048 0.18814 0.47752 0.0
H1547 H 0.06048 0.20562 0.4316 0.0
C1548 C 0.78671 0.07564 0.53182 0.0
C1549 C 0.76538 0.08906 0.55444 0.0
C1550 C 0.7399 0.0959 0.4884 0.0
C1551 C 0.76433 0.08984 0.46584 0.0
N1552 N 0.8083 0.06711 0.46332 0.0
N1553 N 0.71912 0.10678 0.55652 0.0
C1554 C 0.78673 0.07692 0.48675 0.0
C1555 C 0.74081 0.09698 0.5334 0.0
N1556 N 0.807 0.0624 0.55385 0.0
N1557 N 0.71611 0.10043 0.46643 0.0
H1558 H 0.71918 0.10645 0.58956 0.0
H1559 H 0.70156 0.11565 0.54329 0.0
H1560 H 0.71541 0.09807 0.43359 0.0
H1561 H 0.69697 0.10382 0.48051 0.0
H1562 H 0.82296 0.05128 0.53993 0.0
H1563 H 0.80659 0.06122 0.58686 0.0
H1564 H 0.82655 0.05951 0.47611 0.0
H1565 H 0.80782 0.06702 0.43028 0.0
C1566 C 0.94507 0.78841 0.53329 0.0
C1567 C 0.93004 0.76775 0.55513 0.0
C1568 C 0.92241 0.7429 0.48873 0.0
C1569 C 0.93094 0.76684 0.46668 0.0
N1570 N 0.95697 0.80892 0.46509 0.0
N1571 N 0.90942 0.72263 0.55643 0.0
C1572 C 0.94499 0.78829 0.48819 0.0
C1573 C 0.92099 0.74369 0.5337 0.0
N1574 N 0.9584 0.80835 0.55604 0.0
N1575 N 0.91484 0.72005 0.46622 0.0
H1576 H 0.90921 0.72268 0.58947 0.0
H1577 H 0.89984 0.70548 0.54306 0.0
H1578 H 0.91598 0.71957 0.43323 0.0
H1579 H 0.90931 0.70125 0.47977 0.0
H1580 H 0.97016 0.82413 0.54279 0.0
H1581 H 0.95873 0.80799 0.58909 0.0
H1582 H 0.96609 0.82645 0.47802 0.0
H1583 H 0.95775 0.80809 0.43207 0.0
C1584 C 0.77022 0.59309 0.53637 0.0
C1585 C 0.74605 0.58493 0.55824 0.0
C1586 C 0.7245 0.57101 0.49151 0.0
C1587 C 0.74556 0.58555 0.46976 0.0
N1588 N 0.79116 0.60517 0.46871 0.0
N1589 N 0.70373 0.55928 0.55963 0.0
C1590 C 0.7697 0.59426 0.49137 0.0
C1591 C 0.72449 0.57112 0.53662 0.0
N1592 N 0.79305 0.60051 0.55906 0.0
N1593 N 0.70435 0.55806 0.46867 0.0
H1594 H 0.7045 0.55847 0.59265 0.0
H1595 H 0.68621 0.55015 0.54666 0.0
H1596 H 0.70486 0.55755 0.43563 0.0
H1597 H 0.68815 0.54684 0.48183 0.0
H1598 H 0.81196 0.60589 0.54571 0.0
H1599 H 0.79337 0.59952 0.59207 0.0
H1600 H 0.80851 0.61437 0.48211 0.0
H1601 H 0.79131 0.60517 0.43567 0.0
C1602 C 0.44429 0.72916 0.48849 0.0
C1603 C 0.43048 0.75056 0.46656 0.0
C1604 C 0.42262 0.77507 0.53331 0.0
C1605 C 0.43054 0.75087 0.55527 0.0
N1606 N 0.45696 0.70916 0.55673 0.0
N1607 N 0.41492 0.79745 0.46507 0.0
C1608 C 0.44447 0.72942 0.53364 0.0
C1609 C 0.4228 0.77498 0.48815 0.0
N1610 N 0.45621 0.70839 0.46573 0.0
N1611 N 0.414 0.79743 0.55601 0.0
H1612 H 0.41582 0.79747 0.43205 0.0
H1613 H 0.40865 0.81616 0.47796 0.0
H1614 H 0.41484 0.79771 0.58903 0.0
H1615 H 0.40664 0.81565 0.54282 0.0
H1616 H 0.46581 0.69125 0.47889 0.0
H1617 H 0.45686 0.70888 0.43269 0.0
H1618 H 0.46733 0.69238 0.54382 0.0
H1619 H 0.45763 0.70994 0.58975 0.0
C1620 C 0.29 0.44485 0.48774 0.0
C1621 C 0.26941 0.42985 0.46577 0.0
C1622 C 0.24505 0.42043 0.53201 0.0
C1623 C 0.26869 0.42988 0.55406 0.0
N1624 N 0.30939 0.45807 0.55612 0.0
N1625 N 0.22378 0.41051 0.46371 0.0
C1626 C 0.2896 0.44491 0.53281 0.0
C1627 C 0.24539 0.42048 0.48699 0.0
N1628 N 0.31023 0.4579 0.46512 0.0
N1629 N 0.22319 0.41021 0.55453 0.0
H1630 H 0.22388 0.41104 0.43068 0.0
H1631 H 0.2056 0.40259 0.47641 0.0
H1632 H 0.22276 0.41076 0.58756 0.0
H1633 H 0.20539 0.4019 0.54121 0.0
H1634 H 0.32666 0.46868 0.47841 0.0
H1635 H 0.30987 0.45845 0.43208 0.0
H1636 H 0.32594 0.469 0.5434 0.0
H1637 H 0.30851 0.4586 0.58914 0.0
C1638 C 0.57996 0.28856 0.52971 0.0
C1639 C 0.59164 0.26649 0.55293 0.0
C1640 C 0.59788 0.23989 0.48788 0.0
C1641 C 0.59187 0.26408 0.4646 0.0
N1642 N 0.56749 0.30703 0.46053 0.0
N1643 N 0.60085 0.21798 0.55721 0.0
C1644 C 0.57931 0.28692 0.48476 0.0
C1645 C 0.59683 0.2409 0.53291 0.0
N1646 N 0.57064 0.31125 0.55095 0.0
N1647 N 0.6054 0.21657 0.46666 0.0
H1648 H 0.59914 0.21868 0.59013 0.0
H1649 H 0.60393 0.19824 0.54515 0.0
H1650 H 0.60418 0.21538 0.43371 0.0
H1651 H 0.61263 0.1987 0.48115 0.0
H1652 H 0.56391 0.3293 0.53646 0.0
H1653 H 0.56985 0.31182 0.58398 0.0
H1654 H 0.55715 0.32409 0.47261 0.0
H1655 H 0.56676 0.30555 0.42757 0.0
C1656 C 0.72731 0.43329 0.99471 0.0
C1657 C 0.74822 0.42001 0.97092 0.0
C1658 C 0.7757 0.41319 0.03499 0.0
C1659 C 0.75227 0.42065 0.05906 0.0
N1660 N 0.71021 0.44645 0.06451 0.0
N1661 N 0.79548 0.40563 0.96492 0.0
C1662 C 0.72961 0.43398 0.03961 0.0
C1663 C 0.77372 0.41296 0.99002 0.0
N1664 N 0.70505 0.44421 0.97413 0.0
N1665 N 0.79935 0.40596 0.05566 0.0
H1666 H 0.79433 0.40652 0.93195 0.0
H1667 H 0.81474 0.39962 0.97613 0.0
H1668 H 0.80104 0.40792 0.08848 0.0
H1669 H 0.81727 0.39907 0.04096 0.0
H1670 H 0.68796 0.45279 0.98905 0.0
H1671 H 0.70396 0.44487 0.94114 0.0
H1672 H 0.693 0.45686 0.05315 0.0
H1673 H 0.71223 0.44731 0.09738 0.0
C1674 C 0.59535 0.77149 0.03526 0.0
C1675 C 0.58757 0.74696 0.05655 0.0
C1676 C 0.57324 0.72605 0.98964 0.0
C1677 C 0.58714 0.74764 0.96822 0.0
N1678 N 0.60381 0.79427 0.96756 0.0
N1679 N 0.56133 0.70501 0.05747 0.0
C1680 C 0.59518 0.77182 0.99018 0.0
C1681 C 0.57348 0.7257 0.03471 0.0
N1682 N 0.60396 0.79369 0.05845 0.0
N1683 N 0.56091 0.70569 0.96645 0.0
H1684 H 0.5608 0.70547 0.09052 0.0
H1685 H 0.5512 0.68812 0.0443 0.0
H1686 H 0.5601 0.70663 0.93345 0.0
H1687 H 0.55093 0.68859 0.97927 0.0
H1688 H 0.61064 0.81232 0.04567 0.0
H1689 H 0.60353 0.79356 0.09148 0.0
H1690 H 0.61097 0.81258 0.98082 0.0
H1691 H 0.60306 0.79463 0.93455 0.0
C1692 C 0.28757 0.5749 0.03296 0.0
C1693 C 0.26666 0.58949 0.05485 0.0
C1694 C 0.24253 0.59828 0.98807 0.0
C1695 C 0.26644 0.58943 0.96614 0.0
N1696 N 0.30779 0.56236 0.96478 0.0
N1697 N 0.22083 0.60806 0.0562 0.0
C1698 C 0.28753 0.57497 0.9878 0.0
C1699 C 0.24269 0.59846 0.03321 0.0
N1700 N 0.30766 0.5619 0.05575 0.0
N1701 N 0.22035 0.60733 0.96531 0.0
H1702 H 0.22067 0.60734 0.08923 0.0
H1703 H 0.20282 0.61609 0.04325 0.0
H1704 H 0.22007 0.6065 0.93229 0.0
H1705 H 0.20208 0.61463 0.97845 0.0
H1706 H 0.3241 0.5511 0.04262 0.0
H1707 H 0.30711 0.56126 0.08878 0.0
H1708 H 0.32468 0.5522 0.97773 0.0
H1709 H 0.30712 0.56169 0.93176 0.0
C1710 C 0.42202 0.24608 0.98593 0.0
C1711 C 0.43034 0.27025 0.96428 0.0
C1712 C 0.44404 0.29158 0.03124 0.0
C1713 C 0.42918 0.27064 0.05268 0.0
N1714 N 0.4091 0.22525 0.05326 0.0
N1715 N 0.45592 0.31261 0.96342 0.0
C1716 C 0.42045 0.2466 0.03088 0.0
C1717 C 0.44409 0.29173 0.98616 0.0
N1718 N 0.41483 0.22326 0.96306 0.0
N1719 N 0.45716 0.3115 0.05433 0.0
H1720 H 0.45685 0.31195 0.9304 0.0
H1721 H 0.46477 0.33019 0.97663 0.0
H1722 H 0.45746 0.31094 0.08738 0.0
H1723 H 0.46882 0.32745 0.04136 0.0
H1724 H 0.40949 0.20432 0.97632 0.0
H1725 H 0.41609 0.22297 0.93007 0.0
H1726 H 0.39975 0.20808 0.03958 0.0
H1727 H 0.40882 0.22508 0.08629 0.0
C1728 C 0.25457 0.03252 0.28451 0.0
C1729 C 0.24251 0.03562 0.24378 0.0
C1730 C 0.22372 0.98856 0.24879 0.0
C1731 C 0.23891 0.98412 0.28668 0.0
N1732 N 0.27035 1.00146 0.33966 0.0
N1733 N 0.21981 0.01477 0.18378 0.0
C1734 C 0.25493 1.00596 0.3041 0.0
C1735 C 0.2281 0.01318 0.22508 0.0
N1736 N 0.26428 0.05521 0.3056 0.0
N1737 N 0.20488 0.96943 0.2354 0.0
H1738 H 0.22342 0.03202 0.16477 0.0
H1739 H 0.21194 0.99799 0.16702 0.0
H1740 H 0.20078 0.95131 0.25184 0.0
H1741 H 0.19126 0.97286 0.21045 0.0
H1742 H 0.27058 0.0548 0.33709 0.0
H1743 H 0.26356 0.07512 0.29309 0.0
H1744 H 0.28514 0.01534 0.35073 0.0
H1745 H 0.26937 0.98316 0.35703 0.0
C1746 C 0.00935 0.25141 0.21584 0.0
C1747 C 0.98727 0.23597 0.23376 0.0
C1748 C 0.01591 0.22565 0.29588 0.0
C1749 C 0.03858 0.23954 0.2768 0.0
N1750 N 0.05872 0.26014 0.21438 0.0
N1751 N 0.97163 0.20322 0.28626 0.0
C1752 C 0.03582 0.25099 0.2356 0.0
C1753 C 0.99128 0.22134 0.27222 0.0
N1754 N 1.00506 0.26645 0.17984 0.0
N1755 N 0.01729 0.2179 0.33745 0.0
H1756 H 0.95336 0.19944 0.26996 0.0
H1757 H 0.97465 0.18992 0.31174 0.0
H1758 H 0.03454 0.22153 0.35643 0.0
H1759 H 1.00037 0.21044 0.35439 0.0
H1760 H 0.01922 0.28081 0.16822 0.0
H1761 H 0.98665 0.26566 0.16272 0.0
H1762 H 0.0585 0.26599 0.18268 0.0
H1763 H 0.07858 0.25937 0.22711 0.0
C1764 C 0.77173 0.02999 0.23923 0.0
C1765 C 0.77874 0.03188 0.28281 0.0
C1766 C 0.78755 0.98192 0.28447 0.0
C1767 C 0.77755 0.9797 0.24231 0.0
N1768 N 0.75771 1.00098 0.18044 0.0
N1769 N 0.7903 0.0095 0.34856 0.0
C1770 C 0.76884 1.00356 0.22001 0.0
C1771 C 0.78609 1.00783 0.30584 0.0
N1772 N 0.76922 0.05355 0.21563 0.0
N1773 N 0.79845 0.95927 0.30409 0.0
H1774 H 0.7893 0.02803 0.36531 0.0
H1775 H 0.79265 0.99234 0.36805 0.0
H1776 H 0.79867 0.93969 0.29036 0.0
H1777 H 0.80896 0.96017 0.33279 0.0
H1778 H 0.76706 0.05359 0.18286 0.0
H1779 H 0.77203 0.07328 0.22815 0.0
H1780 H 0.74786 0.01708 0.16469 0.0
H1781 H 0.75666 0.98223 0.16426 0.0
C1782 C 0.01003 0.76071 0.21749 0.0
C1783 C 0.03165 0.77704 0.23493 0.0
C1784 C 1.00227 0.7877 0.29626 0.0
C1785 C 0.97998 0.77309 0.27746 0.0
N1786 N 0.96083 0.75103 0.21554 0.0
N1787 N 0.0457 0.81151 0.28587 0.0
C1788 C 0.98336 0.76095 0.23682 0.0
C1789 C 0.02689 0.79233 0.27262 0.0
N1790 N 0.01487 0.74513 0.18221 0.0
N1791 N 1.00058 0.79593 0.33759 0.0
H1792 H 0.06371 0.8159 0.26924 0.0
H1793 H 0.04204 0.82514 0.31075 0.0
H1794 H 0.98341 0.79201 0.35665 0.0
H1795 H 0.01728 0.804 0.35433 0.0
H1796 H 1.00114 0.73019 0.17115 0.0
H1797 H 0.03331 0.7461 0.16513 0.0
H1798 H 0.96147 0.74463 0.18411 0.0
H1799 H 0.94083 0.75171 0.22781 0.0
C1800 C 0.76414 1.00506 0.8022 0.0
C1801 C 0.77478 0.98169 0.78053 0.0
C1802 C 0.7837 0.01037 0.71764 0.0
C1803 C 0.77458 0.03401 0.74021 0.0
N1804 N 0.76136 0.05502 0.80637 0.0
N1805 N 0.79809 0.96238 0.71984 0.0
C1806 C 0.76611 0.03166 0.78312 0.0
C1807 C 0.78575 0.98449 0.73898 0.0
N1808 N 0.75218 1.00187 0.84112 0.0
N1809 N 0.78909 0.01235 0.67524 0.0
H1810 H 0.79859 0.94271 0.73322 0.0
H1811 H 0.80941 0.96384 0.6919 0.0
H1812 H 0.7876 0.03083 0.65845 0.0
H1813 H 0.79283 0.9954 0.65584 0.0
H1814 H 0.74097 0.01734 0.8562 0.0
H1815 H 0.75197 0.98316 0.85748 0.0
H1816 H 0.75812 0.05496 0.83893 0.0
H1817 H 0.76317 0.07489 0.7939 0.0
C1818 C 1.00213 0.78933 0.72667 0.0
C1819 C 0.9797 0.77465 0.74496 0.0
C1820 C 0.00937 0.76169 0.80501 0.0
C1821 C 0.03114 0.77808 0.78809 0.0
N1822 N 0.04558 0.81292 0.73791 0.0
N1823 N 0.96013 0.75211 0.80622 0.0
C1824 C 0.02664 0.7937 0.75064 0.0
C1825 C 0.98281 0.76216 0.7854 0.0
N1826 N 1.00069 0.7979 0.68548 0.0
N1827 N 0.01396 0.74582 0.84006 0.0
H1828 H 0.94022 0.75293 0.79373 0.0
H1829 H 0.96056 0.74543 0.83753 0.0
H1830 H 0.03229 0.74662 0.85737 0.0
H1831 H 1.00013 0.73084 0.85071 0.0
H1832 H 0.01752 0.80603 0.66906 0.0
H1833 H 0.98361 0.79421 0.66619 0.0
H1834 H 0.04206 0.82676 0.71327 0.0
H1835 H 0.06354 0.81711 0.75471 0.0
C1836 C 0.25436 1.00622 0.71725 0.0
C1837 C 0.2383 0.9844 0.73474 0.0
C1838 C 0.22709 0.0137 0.79594 0.0
C1839 C 0.24148 0.03612 0.77712 0.0
N1840 N 0.26359 0.05549 0.71536 0.0
N1841 N 0.20405 0.96985 0.78586 0.0
C1842 C 0.25381 0.03287 0.73656 0.0
C1843 C 0.2229 0.98896 0.77244 0.0
N1844 N 0.26998 1.00161 0.68191 0.0
N1845 N 0.21863 0.01541 0.83716 0.0
H1846 H 0.20008 0.95164 0.76958 0.0
H1847 H 0.19029 0.97335 0.81065 0.0
H1848 H 0.22213 0.03273 0.85604 0.0
H1849 H 0.21076 0.99866 0.85403 0.0
H1850 H 0.28479 0.01548 0.67085 0.0
H1851 H 0.26915 0.98323 0.66472 0.0
H1852 H 0.2701 0.05496 0.68396 0.0
H1853 H 0.26276 0.07545 0.72768 0.0
C1854 C 1.00521 0.2326 0.80298 0.0
C1855 C 0.98172 0.24233 0.78059 0.0
C1856 C 0.01117 0.25349 0.71933 0.0
C1857 C 0.03435 0.24225 0.74075 0.0
N1858 N 0.05301 0.2175 0.80048 0.0
N1859 N 0.96122 0.2567 0.71466 0.0
C1860 C 0.03118 0.23056 0.78175 0.0
C1861 C 0.98441 0.25143 0.73802 0.0
N1862 N 1.00303 0.22666 0.84517 0.0
N1863 N 0.01468 0.26614 0.681 0.0
H1864 H 0.94125 0.25476 0.72677 0.0
H1865 H 0.96152 0.26045 0.68222 0.0
H1866 H 0.0335 0.26649 0.66489 0.0
H1867 H 0.99937 0.27775 0.66627 0.0
H1868 H 0.01991 0.22244 0.8645 0.0
H1869 H 0.98453 0.2282 0.86193 0.0
H1870 H 0.05123 0.20573 0.82792 0.0
H1871 H 0.07269 0.21681 0.78711 0.0
C1872 C 0.75238 0.53318 0.78885 0.0
C1873 C 0.74056 0.53615 0.74793 0.0
C1874 C 0.72189 0.48905 0.75285 0.0
C1875 C 0.73677 0.48476 0.79109 0.0
N1876 N 0.76786 0.50227 0.84441 0.0
N1877 N 0.71849 0.51505 0.68759 0.0
C1878 C 0.75266 0.50667 0.80862 0.0
C1879 C 0.7264 0.51362 0.72908 0.0
N1880 N 0.76196 0.55594 0.8099 0.0
N1881 N 0.70327 0.46981 0.73914 0.0
H1882 H 0.72223 0.53225 0.66853 0.0
H1883 H 0.71084 0.49819 0.67077 0.0
H1884 H 0.69915 0.45162 0.75541 0.0
H1885 H 0.68982 0.47317 0.71394 0.0
H1886 H 0.76808 0.55562 0.84148 0.0
H1887 H 0.76133 0.5758 0.79721 0.0
H1888 H 0.78255 0.51621 0.85563 0.0
H1889 H 0.76683 0.484 0.86183 0.0
C1890 C 0.51206 0.75323 0.80355 0.0
C1891 C 0.53554 0.74257 0.78216 0.0
C1892 C 0.50695 0.73272 0.71955 0.0
C1893 C 0.4832 0.74188 0.74187 0.0
N1894 N 0.46204 0.7555 0.80775 0.0
N1895 N 0.55499 0.71852 0.72229 0.0
C1896 C 0.48546 0.75077 0.78458 0.0
C1897 C 0.53282 0.73105 0.74098 0.0
N1898 N 0.51515 0.76571 0.84208 0.0
N1899 N 0.5051 0.72699 0.67725 0.0
H1900 H 0.57463 0.71815 0.7358 0.0
H1901 H 0.55356 0.70686 0.6947 0.0
H1902 H 0.48664 0.72823 0.66035 0.0
H1903 H 0.52215 0.72323 0.65801 0.0
H1904 H 0.49955 0.77691 0.85687 0.0
H1905 H 0.53391 0.76639 0.85829 0.0
H1906 H 0.46209 0.75909 0.84022 0.0
H1907 H 0.44219 0.75327 0.79537 0.0
C1908 C 0.28397 0.5054 0.71864 0.0
C1909 C 0.27377 0.48194 0.74072 0.0
C1910 C 0.26317 0.51099 0.80242 0.0
C1911 C 0.27485 0.53412 0.78128 0.0
N1912 N 0.29965 0.55305 0.72162 0.0
N1913 N 0.25855 0.46112 0.80605 0.0
C1914 C 0.28641 0.53117 0.74018 0.0
C1915 C 0.26459 0.48439 0.78325 0.0
N1916 N 0.29001 0.50337 0.67645 0.0
N1917 N 0.25062 0.51445 0.84085 0.0
H1918 H 0.25974 0.44126 0.7934 0.0
H1919 H 0.25473 0.46117 0.83847 0.0
H1920 H 0.25071 0.53316 0.85721 0.0
H1921 H 0.23872 0.49926 0.85546 0.0
H1922 H 0.29463 0.52024 0.6573 0.0
H1923 H 0.28817 0.48499 0.65947 0.0
H1924 H 0.31132 0.55143 0.69405 0.0
H1925 H 0.30056 0.57265 0.7352 0.0
C1926 C 0.50444 0.26659 0.79883 0.0
C1927 C 0.48077 0.27663 0.77733 0.0
C1928 C 0.50918 0.28609 0.71423 0.0
C1929 C 0.53311 0.27753 0.7366 0.0
N1930 N 0.55447 0.26577 0.80319 0.0
N1931 N 0.46108 0.30013 0.71722 0.0
C1932 C 0.531 0.26937 0.77973 0.0
C1933 C 0.48334 0.28781 0.7359 0.0
N1934 N 0.5016 0.25437 0.83761 0.0
N1935 N 0.51083 0.29123 0.67175 0.0
H1936 H 0.44158 0.30078 0.73121 0.0
H1937 H 0.46238 0.31145 0.68928 0.0
H1938 H 0.52925 0.28992 0.65471 0.0
H1939 H 0.49366 0.29455 0.65261 0.0
H1940 H 0.51746 0.24362 0.85252 0.0
H1941 H 0.48285 0.25341 0.85384 0.0
H1942 H 0.55439 0.26275 0.8358 0.0
H1943 H 0.57429 0.26857 0.79092 0.0
C1944 C 0.28693 0.53082 0.28035 0.0
C1945 C 0.27533 0.53387 0.23932 0.0
C1946 C 0.26534 0.48409 0.2369 0.0
C1947 C 0.27464 0.48151 0.27932 0.0
N1948 N 0.29078 0.50275 0.34375 0.0
N1949 N 0.25113 0.51433 0.17969 0.0
C1950 C 0.2847 0.50493 0.30161 0.0
C1951 C 0.26374 0.51077 0.21801 0.0
N1952 N 0.30004 0.55269 0.29908 0.0
N1953 N 0.25936 0.46089 0.21393 0.0
H1954 H 0.25107 0.53312 0.16355 0.0
H1955 H 0.2393 0.49913 0.16498 0.0
H1956 H 0.26065 0.44099 0.2264 0.0
H1957 H 0.25546 0.46104 0.18154 0.0
H1958 H 0.31176 0.55102 0.32656 0.0
H1959 H 0.30078 0.57237 0.28574 0.0
H1960 H 0.29529 0.51957 0.36306 0.0
H1961 H 0.28909 0.48428 0.36055 0.0
C1962 C 0.53121 0.26892 0.23777 0.0
C1963 C 0.53303 0.27663 0.28109 0.0
C1964 C 0.48334 0.28695 0.28158 0.0
C1965 C 0.48104 0.27616 0.23987 0.0
N1966 N 0.50218 0.25461 0.17918 0.0
N1967 N 0.51049 0.28984 0.34603 0.0
C1968 C 0.5048 0.26636 0.21832 0.0
C1969 C 0.50904 0.28504 0.30344 0.0
N1970 N 0.55483 0.26548 0.21454 0.0
N1971 N 0.46096 0.29905 0.30032 0.0
H1972 H 0.52884 0.28844 0.36318 0.0
H1973 H 0.49324 0.293 0.3651 0.0
H1974 H 0.4415 0.29973 0.28625 0.0
H1975 H 0.4621 0.31013 0.3285 0.0
H1976 H 0.55496 0.26277 0.18186 0.0
H1977 H 0.57457 0.2681 0.22713 0.0
H1978 H 0.5181 0.24399 0.16415 0.0
H1979 H 0.48354 0.2539 0.16266 0.0
C1980 C 0.73032 0.53064 0.24052 0.0
C1981 C 0.74046 0.53291 0.28261 0.0
C1982 C 0.74685 0.48266 0.2854 0.0
C1983 C 0.73964 0.48074 0.2419 0.0
N1984 N 0.72757 0.50311 0.17636 0.0
N1985 N 0.76082 0.51173 0.34416 0.0
C1986 C 0.73196 0.50476 0.21904 0.0
C1987 C 0.74955 0.50911 0.30469 0.0
N1988 N 0.71914 0.55321 0.22105 0.0
N1989 N 0.74969 0.45911 0.30892 0.0
H1990 H 0.76169 0.53045 0.36045 0.0
H1991 H 0.77094 0.49572 0.35971 0.0
H1992 H 0.74703 0.43936 0.2964 0.0
H1993 H 0.75198 0.45906 0.34168 0.0
H1994 H 0.70852 0.55225 0.19246 0.0
H1995 H 0.7188 0.57278 0.23482 0.0
H1996 H 0.72494 0.52027 0.15695 0.0
H1997 H 0.72873 0.48462 0.15954 0.0
C1998 C 0.48666 0.75004 0.23843 0.0
C1999 C 0.48387 0.74091 0.28096 0.0
C2000 C 0.53329 0.72925 0.28255 0.0
C2001 C 0.53658 0.74109 0.24169 0.0
N2002 N 0.5171 0.76501 0.18182 0.0
N2003 N 0.50501 0.72537 0.34577 0.0
C2004 C 0.51347 0.75227 0.22005 0.0
C2005 C 0.50728 0.73125 0.30357 0.0
N2006 N 0.46354 0.75519 0.21485 0.0
N2007 N 0.55501 0.71605 0.30131 0.0
H2008 H 0.48647 0.72691 0.36244 0.0
H2009 H 0.52186 0.72122 0.3652 0.0
H2010 H 0.57471 0.71528 0.288 0.0
H2011 H 0.55309 0.7042 0.32864 0.0
H2012 H 0.46396 0.75899 0.18243 0.0
H2013 H 0.44353 0.75307 0.22674 0.0
H2014 H 0.50179 0.77656 0.16696 0.0
H2015 H 0.53601 0.76553 0.16596 0.0
C2016 C 0.17158 0.15173 0.24971 0.0
C2017 C 0.19886 0.16045 0.2398 0.0
C2018 C 0.18981 0.20555 0.27202 0.0
C2019 C 0.16332 0.19621 0.28477 0.0
N2020 N 0.12983 0.15945 0.2906 0.0
N2021 N 0.2355 0.19384 0.24661 0.0
C2022 C 0.15445 0.16898 0.27503 0.0
C2023 C 0.20846 0.18677 0.25277 0.0
N2024 N 0.16187 0.12719 0.23422 0.0
N2025 N 0.19711 0.2325 0.27821 0.0
H2026 H 0.24897 0.18156 0.22932 0.0
H2027 H 0.24475 0.21138 0.2594 0.0
H2028 H 0.18493 0.24604 0.29558 0.0
H2029 H 0.21478 0.24161 0.26555 0.0
H2030 H 0.14123 0.12119 0.23584 0.0
H2031 H 0.17402 0.11358 0.21673 0.0
H2032 H 0.12367 0.13887 0.28901 0.0
H2033 H 0.11634 0.17167 0.3082 0.0
C2034 C 0.86167 0.15885 0.22012 0.0
C2035 C 0.87143 0.18174 0.24338 0.0
C2036 C 0.85605 0.15638 0.3066 0.0
C2037 C 0.83422 0.14565 0.28238 0.0
N2038 N 0.83054 0.11958 0.21711 0.0
N2039 N 0.8934 0.1892 0.31195 0.0
C2040 C 0.84086 0.14166 0.23875 0.0
C2041 C 0.87332 0.17704 0.28811 0.0
N2042 N 0.87628 0.15044 0.18559 0.0
N2043 N 0.86408 0.14232 0.34182 0.0
H2044 H 0.91042 0.19934 0.29944 0.0
H2045 H 0.89442 0.18697 0.3446 0.0
H2046 H 0.85391 0.12439 0.35161 0.0
H2047 H 0.88257 0.14611 0.35768 0.0
H2048 H 0.87293 0.13173 0.17017 0.0
H2049 H 0.89408 0.16079 0.17566 0.0
H2050 H 0.83361 0.11669 0.18487 0.0
H2051 H 0.82104 0.10287 0.23197 0.0
C2052 C 0.86453 0.84452 0.27559 0.0
C2053 C 0.85519 0.81739 0.28493 0.0
C2054 C 0.81005 0.82796 0.25375 0.0
C2055 C 0.8202 0.85413 0.24096 0.0
N2056 N 0.85779 0.88674 0.23561 0.0
N2057 N 0.8207 0.78177 0.2781 0.0
C2058 C 0.84766 0.86226 0.25075 0.0
C2059 C 0.82845 0.80864 0.27235 0.0
N2060 N 0.88936 0.85351 0.29108 0.0
N2061 N 0.78278 0.82157 0.24805 0.0
H2062 H 0.83282 0.76778 0.29469 0.0
H2063 H 0.80276 0.77313 0.26562 0.0
H2064 H 0.7691 0.83468 0.2326 0.0
H2065 H 0.77335 0.80393 0.26019 0.0
H2066 H 0.89584 0.874 0.28989 0.0
H2067 H 0.90275 0.84091 0.30819 0.0
H2068 H 0.87856 0.8923 0.23701 0.0
H2069 H 0.84583 0.90079 0.21867 0.0
C2070 C 0.16109 0.86015 0.30289 0.0
C2071 C 0.18388 0.8695 0.27915 0.0
C2072 C 0.15697 0.85573 0.21699 0.0
C2073 C 0.1469 0.83336 0.24084 0.0
N2074 N 0.12274 0.8283 0.30794 0.0
N2075 N 0.19012 0.89293 0.21163 0.0
C2076 C 0.14385 0.8393 0.2849 0.0
C2077 C 0.1783 0.8724 0.23494 0.0
N2078 N 0.15252 0.87549 0.33654 0.0
N2079 N 0.14172 0.86478 0.18361 0.0
H2080 H 0.20208 0.90864 0.22431 0.0
H2081 H 0.18625 0.89548 0.17958 0.0
H2082 H 0.12346 0.85483 0.17469 0.0
H2083 H 0.14504 0.88368 0.16869 0.0
H2084 H 0.1336 0.87258 0.35165 0.0
H2085 H 0.16289 0.89346 0.3456 0.0
H2086 H 0.12016 0.83212 0.34001 0.0
H2087 H 0.1066 0.81712 0.29485 0.0
C2088 C 0.82835 0.81068 0.74998 0.0
C2089 C 0.85523 0.81927 0.73778 0.0
C2090 C 0.84691 0.86464 0.77031 0.0
C2091 C 0.81946 0.85633 0.77998 0.0
N2092 N 0.78297 0.8224 0.77491 0.0
N2093 N 0.88938 0.85545 0.73188 0.0
C2094 C 0.80984 0.82985 0.76802 0.0
C2095 C 0.86432 0.84659 0.74668 0.0
N2096 N 0.81946 0.78424 0.74431 0.0
N2097 N 0.85655 0.88953 0.78455 0.0
H2098 H 0.9032 0.84263 0.71599 0.0
H2099 H 0.89579 0.87598 0.73259 0.0
H2100 H 0.84415 0.90378 0.80037 0.0
H2101 H 0.87724 0.89539 0.78337 0.0
H2102 H 0.83145 0.76864 0.73095 0.0
H2103 H 0.83145 0.76864 0.73095 0.0
H2104 H 0.77516 0.80305 0.76643 0.0
H2105 H 0.76864 0.83552 0.78895 0.0
C2106 C 0.16062 0.86009 0.71863 0.0
C2107 C 0.18344 0.8694 0.74236 0.0
C2108 C 0.1565 0.85596 0.80445 0.0
C2109 C 0.14596 0.8337 0.78088 0.0
N2110 N 0.12219 0.82829 0.71361 0.0
N2111 N 0.18833 0.89378 0.80945 0.0
C2112 C 0.14319 0.83938 0.73672 0.0
C2113 C 0.17769 0.87249 0.78645 0.0
N2114 N 0.15209 0.87545 0.68501 0.0
N2115 N 0.14248 0.8656 0.83855 0.0
H2116 H 0.201 0.90906 0.79714 0.0
H2117 H 0.18213 0.89746 0.84052 0.0
H2118 H 0.12382 0.85702 0.84881 0.0
H2119 H 0.12382 0.85702 0.84881 0.0
H2120 H 0.13314 0.87259 0.66999 0.0
H2121 H 0.16248 0.89341 0.67592 0.0
H2122 H 0.11978 0.83202 0.68148 0.0
H2123 H 0.106 0.81711 0.72663 0.0
C2124 C 0.15172 0.16951 0.74819 0.0
C2125 C 0.16032 0.19686 0.73856 0.0
C2126 C 0.20592 0.18737 0.76854 0.0
C2127 C 0.19694 0.16073 0.78107 0.0
N2128 N 0.16031 0.12705 0.78692 0.0
N2129 N 0.19492 0.2327 0.74318 0.0
C2130 C 0.16952 0.15195 0.77201 0.0
C2131 C 0.18702 0.20604 0.75031 0.0
N2132 N 0.12677 0.16014 0.73375 0.0
N2133 N 0.2325 0.19591 0.77411 0.0
H2134 H 0.18231 0.24675 0.72765 0.0
H2135 H 0.21426 0.24037 0.75199 0.0
H2136 H 0.24793 0.18381 0.78762 0.0
H2137 H 0.24793 0.18381 0.78762 0.0
H2138 H 0.12062 0.13955 0.73512 0.0
H2139 H 0.11284 0.17261 0.71743 0.0
H2140 H 0.13971 0.12088 0.78606 0.0
H2141 H 0.17295 0.11318 0.80303 0.0
C2142 C 0.86504 0.16917 0.77262 0.0
C2143 C 0.85611 0.19646 0.78177 0.0
C2144 C 0.81062 0.18581 0.75186 0.0
C2145 C 0.8201 0.15945 0.73939 0.0
N2146 N 0.85738 0.12679 0.73308 0.0
N2147 N 0.82063 0.23149 0.77455 0.0
C2148 C 0.84765 0.15131 0.74842 0.0
C2149 C 0.82931 0.20502 0.76942 0.0
N2150 N 0.88987 0.16014 0.7878 0.0
N2151 N 0.78366 0.1931 0.74604 0.0
H2152 H 0.83273 0.24704 0.78781 0.0
H2153 H 0.83273 0.24704 0.78781 0.0
H2154 H 0.76924 0.17989 0.73241 0.0
H2155 H 0.77593 0.21239 0.75476 0.0
H2156 H 0.89618 0.13962 0.78652 0.0
H2157 H 0.90339 0.17278 0.80473 0.0
H2158 H 0.87808 0.12107 0.73424 0.0
H2159 H 0.84508 0.11295 0.71617 0.0
C2160 C 0.7059 0.6876 0.75242 0.0
C2161 C 0.69659 0.66099 0.74074 0.0
C2162 C 0.65174 0.67027 0.77443 0.0
C2163 C 0.66066 0.69761 0.78356 0.0
N2164 N 0.69608 0.73291 0.77673 0.0
N2165 N 0.65976 0.62752 0.73609 0.0
C2166 C 0.68735 0.70647 0.77092 0.0
C2167 C 0.66921 0.65244 0.75049 0.0
N2168 N 0.73258 0.69544 0.74503 0.0
N2169 N 0.6268 0.66119 0.78942 0.0
H2170 H 0.67218 0.61358 0.71969 0.0
H2171 H 0.63915 0.62141 0.73759 0.0
H2172 H 0.61305 0.67386 0.80576 0.0
H2173 H 0.62047 0.64064 0.78841 0.0
H2174 H 0.74034 0.71475 0.75378 0.0
H2175 H 0.74657 0.68285 0.72929 0.0
H2176 H 0.68421 0.74817 0.79109 0.0
H2177 H 0.68421 0.74817 0.79109 0.0
C2178 C 0.34792 0.65104 0.77152 0.0
C2179 C 0.32044 0.65966 0.7802 0.0
C2180 C 0.33071 0.7051 0.74988 0.0
C2181 C 0.35741 0.69602 0.73819 0.0
N2182 N 0.39061 0.65918 0.73281 0.0
N2183 N 0.28492 0.69456 0.77192 0.0
C2184 C 0.3658 0.6686 0.74758 0.0
C2185 C 0.31159 0.68625 0.76737 0.0
N2186 N 0.3571 0.62633 0.7869 0.0
N2187 N 0.32303 0.73185 0.74344 0.0
H2188 H 0.26935 0.68228 0.78479 0.0
H2189 H 0.26935 0.68228 0.78479 0.0
H2190 H 0.33592 0.74613 0.72886 0.0
H2191 H 0.30361 0.7394 0.75197 0.0
H2192 H 0.37771 0.62025 0.78605 0.0
H2193 H 0.34444 0.61262 0.80348 0.0
H2194 H 0.39661 0.63857 0.73425 0.0
H2195 H 0.40443 0.6716 0.71603 0.0
C2196 C 0.3636 0.34804 0.77256 0.0
C2197 C 0.35477 0.32077 0.78216 0.0
C2198 C 0.30923 0.33058 0.75169 0.0
C2199 C 0.31882 0.35693 0.73876 0.0
N2200 N 0.35589 0.39006 0.7325 0.0
N2201 N 0.32085 0.28459 0.77591 0.0
C2202 C 0.34625 0.36547 0.74796 0.0
C2203 C 0.32811 0.31157 0.76998 0.0
N2204 N 0.38839 0.35744 0.78762 0.0
N2205 N 0.28202 0.32374 0.74648 0.0
H2206 H 0.33333 0.27084 0.79231 0.0
H2207 H 0.30295 0.27564 0.76379 0.0
H2208 H 0.26799 0.33663 0.73133 0.0
H2209 H 0.273 0.3059 0.75866 0.0
H2210 H 0.39454 0.37803 0.78621 0.0
H2211 H 0.40207 0.34508 0.8046 0.0
H2212 H 0.37659 0.39593 0.73351 0.0
H2213 H 0.34359 0.40387 0.71567 0.0
C2214 C 0.64084 0.34126 0.78167 0.0
C2215 C 0.64596 0.33472 0.7384 0.0
C2216 C 0.67771 0.3734 0.73449 0.0
C2217 C 0.68168 0.37076 0.7792 0.0
N2218 N 0.64895 0.37667 0.83498 0.0
N2219 N 0.64252 0.36603 0.68098 0.0
C2220 C 0.65798 0.36166 0.80128 0.0
C2221 C 0.65694 0.35678 0.71507 0.0
N2222 N 0.61783 0.33144 0.80159 0.0
N2223 N 0.69042 0.39367 0.71177 0.0
H2224 H 0.62439 0.35622 0.67113 0.0
H2225 H 0.64631 0.38498 0.66645 0.0
H2226 H 0.70174 0.40964 0.72504 0.0
H2227 H 0.68772 0.39584 0.67936 0.0
H2228 H 0.61364 0.3351 0.83333 0.0
H2229 H 0.6018 0.3216 0.78554 0.0
H2230 H 0.62975 0.37382 0.84922 0.0
H2231 H 0.65948 0.39428 0.84524 0.0
C2232 C 0.32938 0.31089 0.25115 0.0
C2233 C 0.35605 0.31985 0.23847 0.0
C2234 C 0.34752 0.36491 0.27185 0.0
C2235 C 0.32011 0.35639 0.28143 0.0
N2236 N 0.28395 0.3221 0.27639 0.0
N2237 N 0.38988 0.35634 0.23281 0.0
C2238 C 0.31074 0.32982 0.26946 0.0
C2239 C 0.36496 0.34717 0.24775 0.0
N2240 N 0.32079 0.28435 0.2455 0.0
N2241 N 0.35704 0.38973 0.28652 0.0
H2242 H 0.40373 0.34373 0.21658 0.0
H2243 H 0.39611 0.37692 0.2338 0.0
H2244 H 0.34464 0.40371 0.30288 0.0
H2245 H 0.37769 0.39573 0.28527 0.0
H2246 H 0.33288 0.26892 0.23191 0.0
H2247 H 0.33288 0.26892 0.23191 0.0
H2248 H 0.27632 0.3027 0.26785 0.0
H2249 H 0.26954 0.33505 0.29062 0.0
C2250 C 0.65584 0.35459 0.30465 0.0
C2251 C 0.64618 0.33217 0.28044 0.0
C2252 C 0.66068 0.35865 0.21842 0.0
C2253 C 0.68303 0.36823 0.24287 0.0
N2254 N 0.687 0.39381 0.3085 0.0
N2255 N 0.62112 0.32794 0.21435 0.0
C2256 C 0.67664 0.37189 0.28655 0.0
C2257 C 0.64297 0.33823 0.23657 0.0
N2258 N 0.64072 0.36285 0.33869 0.0
N2259 N 0.65287 0.37358 0.18395 0.0
H2260 H 0.60429 0.31835 0.22877 0.0
H2261 H 0.61858 0.33117 0.1821 0.0
H2262 H 0.66364 0.39129 0.17472 0.0
H2263 H 0.6343 0.37051 0.168 0.0
H2264 H 0.64386 0.38151 0.35434 0.0
H2265 H 0.6228 0.35236 0.34779 0.0
H2266 H 0.68347 0.39674 0.34061 0.0
H2267 H 0.69698 0.41035 0.29392 0.0
C2268 C 0.66994 0.64996 0.27332 0.0
C2269 C 0.69742 0.65829 0.28288 0.0
C2270 C 0.68861 0.70365 0.2515 0.0
C2271 C 0.66184 0.69493 0.23939 0.0
N2272 N 0.62771 0.65876 0.23406 0.0
N2273 N 0.73374 0.69271 0.27596 0.0
C2274 C 0.65268 0.66775 0.24897 0.0
C2275 C 0.70703 0.68468 0.27013 0.0
N2276 N 0.66017 0.6253 0.28826 0.0
N2277 N 0.69701 0.73017 0.24447 0.0
H2278 H 0.74885 0.68035 0.28978 0.0
H2279 H 0.74885 0.68035 0.28978 0.0
H2280 H 0.68476 0.74445 0.22872 0.0
H2281 H 0.71643 0.7375 0.25359 0.0
H2282 H 0.63947 0.61948 0.28701 0.0
H2283 H 0.67241 0.61126 0.30475 0.0
H2284 H 0.62119 0.63829 0.23547 0.0
H2285 H 0.61418 0.6714 0.21728 0.0
C2286 C 0.34836 0.65072 0.24997 0.0
C2287 C 0.32095 0.6594 0.24096 0.0
C2288 C 0.33118 0.70482 0.27136 0.0
C2289 C 0.35777 0.69568 0.28338 0.0
N2290 N 0.39082 0.65874 0.28921 0.0
N2291 N 0.28548 0.69438 0.24892 0.0
C2292 C 0.36614 0.66823 0.27412 0.0
C2293 C 0.31211 0.68601 0.25371 0.0
N2294 N 0.35757 0.62598 0.23468 0.0
N2295 N 0.32355 0.73161 0.27762 0.0
H2296 H 0.26994 0.68213 0.23593 0.0
H2297 H 0.26994 0.68213 0.23593 0.0
H2298 H 0.3364 0.74587 0.29233 0.0
H2299 H 0.30421 0.73922 0.26883 0.0
H2300 H 0.37816 0.61985 0.23579 0.0
H2301 H 0.34499 0.61233 0.21791 0.0
H2302 H 0.39677 0.63811 0.28785 0.0
H2303 H 0.40456 0.67112 0.30618 0.0
loop_
_geom_bond_atom_site_label_1
_geom_bond_atom_site_label_2
_geom_bond_distance
_geom_bond_site_symmetry_2
_ccdc_geom_bond_type
Mn0 O5 2.095 . S
Mn0 O15 2.162 . S
Mn0 O16 2.297 . S
Mn0 O24 2.385 . S
Mn0 O25 2.209 . S
Mn0 O26 2.094 . S
Mn1 O6 2.121 . S
Mn1 N8 2.257 . S
Mn1 N17 2.282 . S
Mn1 O25 2.215 . S
Mn1 O27 2.117 . S
C2 O24 1.234 . S
C2 O25 1.283 . S
C3 O15 1.281 . S
C3 O16 1.236 . S
C4 O26 1.240 . S
C4 O27 1.264 . S
O5 Mn0 2.095 . S
O5 C14 1.250 . S
O6 Mn1 2.121 . S
O6 C14 1.258 . S
C7 N8 1.326 . S
C7 C11 1.460 . S
C7 H13 0.929 . S
N8 Mn1 2.257 . S
N8 C7 1.326 . S
N8 C12 1.362 . S
C9 C10 1.258 . S
C9 C12 1.431 . S
C9 C29 1.449 . S
C10 C9 1.258 . S
C10 C11 1.477 . S
C10 H30 0.931 . S
C11 C7 1.460 . S
C11 C10 1.477 . S
C11 H31 0.930 . S
C12 N8 1.362 . S
C12 C9 1.431 . S
C12 C22 1.476 . S
H13 C7 0.929 . S
C14 O5 1.250 . S
C14 O6 1.258 . S
O15 Mn0 2.162 . S
O15 C3 1.281 . S
O16 Mn0 2.297 . S
O16 C3 1.236 . S
N17 Mn1 2.282 . S
N17 C18 1.328 . S
N17 C22 1.318 . S
C18 N17 1.328 . S
C18 C19 1.457 . S
C18 H23 0.929 . S
C19 C18 1.457 . S
C19 C20 1.291 . S
C19 H32 0.931 . S
C20 C19 1.291 . S
C20 C21 1.373 . S
C20 H33 0.929 . S
C21 C20 1.373 . S
C21 C22 1.396 . S
C21 C28 1.403 . S
C22 C12 1.476 . S
C22 N17 1.318 . S
C22 C21 1.396 . S
H23 C18 0.929 . S
O24 Mn0 2.385 . S
O24 C2 1.234 . S
O25 Mn0 2.209 . S
O25 Mn1 2.215 . S
O25 C2 1.283 . S
O26 Mn0 2.094 . S
O26 C4 1.240 . S
O27 Mn1 2.117 . S
O27 C4 1.264 . S
C28 C21 1.403 . S
C28 C29 1.399 . S
C28 H34 0.929 . S
C29 C9 1.449 . S
C29 C28 1.399 . S
C29 H35 0.930 . S
H30 C10 0.931 . S
H31 C11 0.930 . S
H32 C19 0.931 . S
H33 C20 0.929 . S
H34 C28 0.929 . S
H35 C29 0.930 . S
Mn36 O41 2.095 . S
Mn36 O51 2.162 . S
Mn36 O52 2.297 . S
Mn36 O60 2.385 . S
Mn36 O61 2.209 . S
Mn36 O62 2.094 . S
Mn37 O42 2.121 . S
Mn37 N44 2.257 . S
Mn37 N53 2.282 . S
Mn37 O61 2.215 . S
Mn37 O63 2.117 . S
C38 O60 1.234 . S
C38 O61 1.283 . S
C39 O51 1.281 . S
C39 O52 1.236 . S
C40 O62 1.240 . S
C40 O63 1.264 . S
O41 Mn36 2.095 . S
O41 C50 1.250 . S
O42 Mn37 2.121 . S
O42 C50 1.258 . S
C43 N44 1.326 . S
C43 C47 1.460 . S
C43 H49 0.929 . S
N44 Mn37 2.257 . S
N44 C43 1.326 . S
N44 C48 1.362 . S
C45 C46 1.258 . S
C45 C48 1.431 . S
C45 C65 1.449 . S
C46 C45 1.258 . S
C46 C47 1.477 . S
C46 H66 0.931 . S
C47 C43 1.460 . S
C47 C46 1.477 . S
C47 H67 0.930 . S
C48 N44 1.362 . S
C48 C45 1.431 . S
C48 C58 1.476 . S
H49 C43 0.929 . S
C50 O41 1.250 . S
C50 O42 1.258 . S
O51 Mn36 2.162 . S
O51 C39 1.281 . S
O52 Mn36 2.297 . S
O52 C39 1.236 . S
N53 Mn37 2.282 . S
N53 C54 1.328 . S
N53 C58 1.318 . S
C54 N53 1.328 . S
C54 C55 1.457 . S
C54 H59 0.929 . S
C55 C54 1.457 . S
C55 C56 1.291 . S
C55 H68 0.931 . S
C56 C55 1.291 . S
C56 C57 1.373 . S
C56 H69 0.929 . S
C57 C56 1.373 . S
C57 C58 1.396 . S
C57 C64 1.403 . S
C58 C48 1.476 . S
C58 N53 1.318 . S
C58 C57 1.396 . S
H59 C54 0.929 . S
O60 Mn36 2.385 . S
O60 C38 1.234 . S
O61 Mn36 2.209 . S
O61 Mn37 2.215 . S
O61 C38 1.283 . S
O62 Mn36 2.094 . S
O62 C40 1.240 . S
O63 Mn37 2.117 . S
O63 C40 1.264 . S
C64 C57 1.403 . S
C64 C65 1.399 . S
C64 H70 0.929 . S
C65 C45 1.449 . S
C65 C64 1.399 . S
C65 H71 0.930 . S
H66 C46 0.931 . S
H67 C47 0.930 . S
H68 C55 0.931 . S
H69 C56 0.929 . S
H70 C64 0.929 . S
H71 C65 0.930 . S
Mn72 O77 2.095 . S
Mn72 O87 2.162 . S
Mn72 O88 2.297 . S
Mn72 O96 2.385 . S
Mn72 O97 2.209 . S
Mn72 O98 2.094 . S
Mn73 O78 2.121 . S
Mn73 N80 2.257 . S
Mn73 N89 2.282 . S
Mn73 O97 2.215 . S
Mn73 O99 2.117 . S
C74 O96 1.234 . S
C74 O97 1.283 . S
C75 O87 1.281 . S
C75 O88 1.236 . S
C76 O98 1.240 . S
C76 O99 1.264 . S
O77 Mn72 2.095 . S
O77 C86 1.250 . S
O78 Mn73 2.121 . S
O78 C86 1.258 . S
C79 N80 1.326 . S
C79 C83 1.460 . S
C79 H85 0.929 . S
N80 Mn73 2.257 . S
N80 C79 1.326 . S
N80 C84 1.362 . S
C81 C82 1.258 . S
C81 C84 1.431 . S
C81 C101 1.449 . S
C82 C81 1.258 . S
C82 C83 1.477 . S
C82 H102 0.931 . S
C83 C79 1.460 . S
C83 C82 1.477 . S
C83 H103 0.930 . S
C84 N80 1.362 . S
C84 C81 1.431 . S
C84 C94 1.476 . S
H85 C79 0.929 . S
C86 O77 1.250 . S
C86 O78 1.258 . S
O87 Mn72 2.162 . S
O87 C75 1.281 . S
O88 Mn72 2.297 . S
O88 C75 1.236 . S
N89 Mn73 2.282 . S
N89 C90 1.328 . S
N89 C94 1.318 . S
C90 N89 1.328 . S
C90 C91 1.457 . S
C90 H95 0.929 . S
C91 C90 1.457 . S
C91 C92 1.291 . S
C91 H104 0.931 . S
C92 C91 1.291 . S
C92 C93 1.373 . S
C92 H105 0.929 . S
C93 C92 1.373 . S
C93 C94 1.396 . S
C93 C100 1.403 . S
C94 C84 1.476 . S
C94 N89 1.318 . S
C94 C93 1.396 . S
H95 C90 0.929 . S
O96 Mn72 2.385 . S
O96 C74 1.234 . S
O97 Mn72 2.209 . S
O97 Mn73 2.215 . S
O97 C74 1.283 . S
O98 Mn72 2.094 . S
O98 C76 1.240 . S
O99 Mn73 2.117 . S
O99 C76 1.264 . S
C100 C93 1.403 . S
C100 C101 1.399 . S
C100 H106 0.929 . S
C101 C81 1.449 . S
C101 C100 1.399 . S
C101 H107 0.930 . S
H102 C82 0.931 . S
H103 C83 0.930 . S
H104 C91 0.931 . S
H105 C92 0.929 . S
H106 C100 0.929 . S
H107 C101 0.930 . S
Mn108 O113 2.095 . S
Mn108 O123 2.162 . S
Mn108 O124 2.297 . S
Mn108 O132 2.385 . S
Mn108 O133 2.209 . S
Mn108 O134 2.094 . S
Mn109 O114 2.121 . S
Mn109 N116 2.257 . S
Mn109 N125 2.282 . S
Mn109 O133 2.215 . S
Mn109 O135 2.117 . S
C110 O132 1.234 . S
C110 O133 1.283 . S
C111 O123 1.281 . S
C111 O124 1.236 . S
C112 O134 1.240 . S
C112 O135 1.264 . S
O113 Mn108 2.095 . S
O113 C122 1.250 . S
O114 Mn109 2.121 . S
O114 C122 1.258 . S
C115 N116 1.326 . S
C115 C119 1.460 . S
C115 H121 0.929 . S
N116 Mn109 2.257 . S
N116 C115 1.326 . S
N116 C120 1.362 . S
C117 C118 1.258 . S
C117 C120 1.431 . S
C117 C137 1.449 . S
C118 C117 1.258 . S
C118 C119 1.477 . S
C118 H138 0.931 . S
C119 C115 1.460 . S
C119 C118 1.477 . S
C119 H139 0.930 . S
C120 N116 1.362 . S
C120 C117 1.431 . S
C120 C130 1.476 . S
H121 C115 0.929 . S
C122 O113 1.250 . S
C122 O114 1.258 . S
O123 Mn108 2.162 . S
O123 C111 1.281 . S
O124 Mn108 2.297 . S
O124 C111 1.236 . S
N125 Mn109 2.282 . S
N125 C126 1.328 . S
N125 C130 1.318 . S
C126 N125 1.328 . S
C126 C127 1.457 . S
C126 H131 0.929 . S
C127 C126 1.457 . S
C127 C128 1.291 . S
C127 H140 0.931 . S
C128 C127 1.291 . S
C128 C129 1.373 . S
C128 H141 0.929 . S
C129 C128 1.373 . S
C129 C130 1.396 . S
C129 C136 1.403 . S
C130 C120 1.476 . S
C130 N125 1.318 . S
C130 C129 1.396 . S
H131 C126 0.929 . S
O132 Mn108 2.385 . S
O132 C110 1.234 . S
O133 Mn108 2.209 . S
O133 Mn109 2.215 . S
O133 C110 1.283 . S
O134 Mn108 2.094 . S
O134 C112 1.240 . S
O135 Mn109 2.117 . S
O135 C112 1.264 . S
C136 C129 1.403 . S
C136 C137 1.399 . S
C136 H142 0.929 . S
C137 C117 1.449 . S
C137 C136 1.399 . S
C137 H143 0.930 . S
H138 C118 0.931 . S
H139 C119 0.930 . S
H140 C127 0.931 . S
H141 C128 0.929 . S
H142 C136 0.929 . S
H143 C137 0.930 . S
Mn144 O149 2.095 . S
Mn144 O159 2.162 . S
Mn144 O160 2.297 . S
Mn144 O168 2.385 . S
Mn144 O169 2.209 . S
Mn144 O170 2.094 . S
Mn145 O150 2.121 . S
Mn145 N152 2.257 . S
Mn145 N161 2.282 . S
Mn145 O169 2.215 . S
Mn145 O171 2.117 . S
C146 O168 1.234 . S
C146 O169 1.283 . S
C147 O159 1.281 . S
C147 O160 1.236 . S
C148 O170 1.240 . S
C148 O171 1.264 . S
O149 Mn144 2.095 . S
O149 C158 1.250 . S
O150 Mn145 2.121 . S
O150 C158 1.258 . S
C151 N152 1.326 . S
C151 C155 1.460 . S
C151 H157 0.929 . S
N152 Mn145 2.257 . S
N152 C151 1.326 . S
N152 C156 1.362 . S
C153 C154 1.258 . S
C153 C156 1.431 . S
C153 C173 1.449 . S
C154 C153 1.258 . S
C154 C155 1.477 . S
C154 H174 0.931 . S
C155 C151 1.460 . S
C155 C154 1.477 . S
C155 H175 0.930 . S
C156 N152 1.362 . S
C156 C153 1.431 . S
C156 C166 1.476 . S
H157 C151 0.929 . S
C158 O149 1.250 . S
C158 O150 1.258 . S
O159 Mn144 2.162 . S
O159 C147 1.281 . S
O160 Mn144 2.297 . S
O160 C147 1.236 . S
N161 Mn145 2.282 . S
N161 C162 1.328 . S
N161 C166 1.318 . S
C162 N161 1.328 . S
C162 C163 1.457 . S
C162 H167 0.929 . S
C163 C162 1.457 . S
C163 C164 1.291 . S
C163 H176 0.931 . S
C164 C163 1.291 . S
C164 C165 1.373 . S
C164 H177 0.929 . S
C165 C164 1.373 . S
C165 C166 1.396 . S
C165 C172 1.403 . S
C166 C156 1.476 . S
C166 N161 1.318 . S
C166 C165 1.396 . S
H167 C162 0.929 . S
O168 Mn144 2.385 . S
O168 C146 1.234 . S
O169 Mn144 2.209 . S
O169 Mn145 2.215 . S
O169 C146 1.283 . S
O170 Mn144 2.094 . S
O170 C148 1.240 . S
O171 Mn145 2.117 . S
O171 C148 1.264 . S
C172 C165 1.403 . S
C172 C173 1.399 . S
C172 H178 0.929 . S
C173 C153 1.449 . S
C173 C172 1.399 . S
C173 H179 0.930 . S
H174 C154 0.931 . S
H175 C155 0.930 . S
H176 C163 0.931 . S
H177 C164 0.929 . S
H178 C172 0.929 . S
H179 C173 0.930 . S
Mn180 O185 2.095 . S
Mn180 O195 2.162 . S
Mn180 O196 2.297 . S
Mn180 O204 2.385 . S
Mn180 O205 2.209 . S
Mn180 O206 2.094 . S
Mn181 O186 2.121 . S
Mn181 N188 2.257 . S
Mn181 N197 2.282 . S
Mn181 O205 2.215 . S
Mn181 O207 2.117 . S
C182 O204 1.234 . S
C182 O205 1.283 . S
C183 O195 1.281 . S
C183 O196 1.236 . S
C184 O206 1.240 . S
C184 O207 1.264 . S
O185 Mn180 2.095 . S
O185 C194 1.250 . S
O186 Mn181 2.121 . S
O186 C194 1.258 . S
C187 N188 1.326 . S
C187 C191 1.460 . S
C187 H193 0.929 . S
N188 Mn181 2.257 . S
N188 C187 1.326 . S
N188 C192 1.362 . S
C189 C190 1.258 . S
C189 C192 1.431 . S
C189 C209 1.449 . S
C190 C189 1.258 . S
C190 C191 1.477 . S
C190 H210 0.931 . S
C191 C187 1.460 . S
C191 C190 1.477 . S
C191 H211 0.930 . S
C192 N188 1.362 . S
C192 C189 1.431 . S
C192 C202 1.476 . S
H193 C187 0.929 . S
C194 O185 1.250 . S
C194 O186 1.258 . S
O195 Mn180 2.162 . S
O195 C183 1.281 . S
O196 Mn180 2.297 . S
O196 C183 1.236 . S
N197 Mn181 2.282 . S
N197 C198 1.328 . S
N197 C202 1.318 . S
C198 N197 1.328 . S
C198 C199 1.457 . S
C198 H203 0.929 . S
C199 C198 1.457 . S
C199 C200 1.291 . S
C199 H212 0.931 . S
C200 C199 1.291 . S
C200 C201 1.373 . S
C200 H213 0.929 . S
C201 C200 1.373 . S
C201 C202 1.396 . S
C201 C208 1.403 . S
C202 C192 1.476 . S
C202 N197 1.318 . S
C202 C201 1.396 . S
H203 C198 0.929 . S
O204 Mn180 2.385 . S
O204 C182 1.234 . S
O205 Mn180 2.209 . S
O205 Mn181 2.215 . S
O205 C182 1.283 . S
O206 Mn180 2.094 . S
O206 C184 1.240 . S
O207 Mn181 2.117 . S
O207 C184 1.264 . S
C208 C201 1.403 . S
C208 C209 1.399 . S
C208 H214 0.929 . S
C209 C189 1.449 . S
C209 C208 1.399 . S
C209 H215 0.930 . S
H210 C190 0.931 . S
H211 C191 0.930 . S
H212 C199 0.931 . S
H213 C200 0.929 . S
H214 C208 0.929 . S
H215 C209 0.930 . S
Mn216 O221 2.095 . S
Mn216 O231 2.162 . S
Mn216 O232 2.297 . S
Mn216 O240 2.385 . S
Mn216 O241 2.209 . S
Mn216 O242 2.094 . S
Mn217 O222 2.121 . S
Mn217 N224 2.257 . S
Mn217 N233 2.282 . S
Mn217 O241 2.215 . S
Mn217 O243 2.117 . S
C218 O240 1.234 . S
C218 O241 1.283 . S
C219 O231 1.281 . S
C219 O232 1.236 . S
C220 O242 1.240 . S
C220 O243 1.264 . S
O221 Mn216 2.095 . S
O221 C230 1.250 . S
O222 Mn217 2.121 . S
O222 C230 1.258 . S
C223 N224 1.326 . S
C223 C227 1.460 . S
C223 H229 0.929 . S
N224 Mn217 2.257 . S
N224 C223 1.326 . S
N224 C228 1.362 . S
C225 C226 1.258 . S
C225 C228 1.431 . S
C225 C245 1.449 . S
C226 C225 1.258 . S
C226 C227 1.477 . S
C226 H246 0.931 . S
C227 C223 1.460 . S
C227 C226 1.477 . S
C227 H247 0.930 . S
C228 N224 1.362 . S
C228 C225 1.431 . S
C228 C238 1.476 . S
H229 C223 0.929 . S
C230 O221 1.250 . S
C230 O222 1.258 . S
O231 Mn216 2.162 . S
O231 C219 1.281 . S
O232 Mn216 2.297 . S
O232 C219 1.236 . S
N233 Mn217 2.282 . S
N233 C234 1.328 . S
N233 C238 1.318 . S
C234 N233 1.328 . S
C234 C235 1.457 . S
C234 H239 0.929 . S
C235 C234 1.457 . S
C235 C236 1.291 . S
C235 H248 0.931 . S
C236 C235 1.291 . S
C236 C237 1.373 . S
C236 H249 0.929 . S
C237 C236 1.373 . S
C237 C238 1.396 . S
C237 C244 1.403 . S
C238 C228 1.476 . S
C238 N233 1.318 . S
C238 C237 1.396 . S
H239 C234 0.929 . S
O240 Mn216 2.385 . S
O240 C218 1.234 . S
O241 Mn216 2.209 . S
O241 Mn217 2.215 . S
O241 C218 1.283 . S
O242 Mn216 2.094 . S
O242 C220 1.240 . S
O243 Mn217 2.117 . S
O243 C220 1.264 . S
C244 C237 1.403 . S
C244 C245 1.399 . S
C244 H250 0.929 . S
C245 C225 1.449 . S
C245 C244 1.399 . S
C245 H251 0.930 . S
H246 C226 0.931 . S
H247 C227 0.930 . S
H248 C235 0.931 . S
H249 C236 0.929 . S
H250 C244 0.929 . S
H251 C245 0.930 . S
Mn252 O257 2.095 . S
Mn252 O267 2.162 . S
Mn252 O268 2.297 . S
Mn252 O276 2.385 . S
Mn252 O277 2.209 . S
Mn252 O278 2.094 . S
Mn253 O258 2.121 . S
Mn253 N260 2.257 . S
Mn253 N269 2.282 . S
Mn253 O277 2.215 . S
Mn253 O279 2.117 . S
C254 O276 1.234 . S
C254 O277 1.283 . S
C255 O267 1.281 . S
C255 O268 1.236 . S
C256 O278 1.240 . S
C256 O279 1.264 . S
O257 Mn252 2.095 . S
O257 C266 1.250 . S
O258 Mn253 2.121 . S
O258 C266 1.258 . S
C259 N260 1.326 . S
C259 C263 1.460 . S
C259 H265 0.929 . S
N260 Mn253 2.257 . S
N260 C259 1.326 . S
N260 C264 1.362 . S
C261 C262 1.258 . S
C261 C264 1.431 . S
C261 C281 1.449 . S
C262 C261 1.258 . S
C262 C263 1.477 . S
C262 H282 0.931 . S
C263 C259 1.460 . S
C263 C262 1.477 . S
C263 H283 0.930 . S
C264 N260 1.362 . S
C264 C261 1.431 . S
C264 C274 1.476 . S
H265 C259 0.929 . S
C266 O257 1.250 . S
C266 O258 1.258 . S
O267 Mn252 2.162 . S
O267 C255 1.281 . S
O268 Mn252 2.297 . S
O268 C255 1.236 . S
N269 Mn253 2.282 . S
N269 C270 1.328 . S
N269 C274 1.318 . S
C270 N269 1.328 . S
C270 C271 1.457 . S
C270 H275 0.929 . S
C271 C270 1.457 . S
C271 C272 1.291 . S
C271 H284 0.931 . S
C272 C271 1.291 . S
C272 C273 1.373 . S
C272 H285 0.929 . S
C273 C272 1.373 . S
C273 C274 1.396 . S
C273 C280 1.403 . S
C274 C264 1.476 . S
C274 N269 1.318 . S
C274 C273 1.396 . S
H275 C270 0.929 . S
O276 Mn252 2.385 . S
O276 C254 1.234 . S
O277 Mn252 2.209 . S
O277 Mn253 2.215 . S
O277 C254 1.283 . S
O278 Mn252 2.094 . S
O278 C256 1.240 . S
O279 Mn253 2.117 . S
O279 C256 1.264 . S
C280 C273 1.403 . S
C280 C281 1.399 . S
C280 H286 0.929 . S
C281 C261 1.449 . S
C281 C280 1.399 . S
C281 H287 0.930 . S
H282 C262 0.931 . S
H283 C263 0.930 . S
H284 C271 0.931 . S
H285 C272 0.929 . S
H286 C280 0.929 . S
H287 C281 0.930 . S
Mn288 O293 2.095 . S
Mn288 O303 2.162 . S
Mn288 O304 2.297 . S
Mn288 O312 2.385 . S
Mn288 O313 2.209 . S
Mn288 O314 2.094 . S
Mn289 O294 2.121 . S
Mn289 N296 2.257 . S
Mn289 N305 2.282 . S
Mn289 O313 2.215 . S
Mn289 O315 2.117 . S
C290 O312 1.234 . S
C290 O313 1.283 . S
C291 O303 1.281 . S
C291 O304 1.236 . S
C292 O314 1.240 . S
C292 O315 1.264 . S
O293 Mn288 2.095 . S
O293 C302 1.250 . S
O294 Mn289 2.121 . S
O294 C302 1.258 . S
C295 N296 1.326 . S
C295 C299 1.460 . S
C295 H301 0.929 . S
N296 Mn289 2.257 . S
N296 C295 1.326 . S
N296 C300 1.362 . S
C297 C298 1.258 . S
C297 C300 1.431 . S
C297 C317 1.449 . S
C298 C297 1.258 . S
C298 C299 1.477 . S
C298 H318 0.931 . S
C299 C295 1.460 . S
C299 C298 1.477 . S
C299 H319 0.930 . S
C300 N296 1.362 . S
C300 C297 1.431 . S
C300 C310 1.476 . S
H301 C295 0.929 . S
C302 O293 1.250 . S
C302 O294 1.258 . S
O303 Mn288 2.162 . S
O303 C291 1.281 . S
O304 Mn288 2.297 . S
O304 C291 1.236 . S
N305 Mn289 2.282 . S
N305 C306 1.328 . S
N305 C310 1.318 . S
C306 N305 1.328 . S
C306 C307 1.457 . S
C306 H311 0.929 . S
C307 C306 1.457 . S
C307 C308 1.291 . S
C307 H320 0.931 . S
C308 C307 1.291 . S
C308 C309 1.373 . S
C308 H321 0.929 . S
C309 C308 1.373 . S
C309 C310 1.396 . S
C309 C316 1.403 . S
C310 C300 1.476 . S
C310 N305 1.318 . S
C310 C309 1.396 . S
H311 C306 0.929 . S
O312 Mn288 2.385 . S
O312 C290 1.234 . S
O313 Mn288 2.209 . S
O313 Mn289 2.215 . S
O313 C290 1.283 . S
O314 Mn288 2.094 . S
O314 C292 1.240 . S
O315 Mn289 2.117 . S
O315 C292 1.264 . S
C316 C309 1.403 . S
C316 C317 1.399 . S
C316 H322 0.929 . S
C317 C297 1.449 . S
C317 C316 1.399 . S
C317 H323 0.930 . S
H318 C298 0.931 . S
H319 C299 0.930 . S
H320 C307 0.931 . S
H321 C308 0.929 . S
H322 C316 0.929 . S
H323 C317 0.930 . S
Mn324 O329 2.095 . S
Mn324 O339 2.162 . S
Mn324 O340 2.297 . S
Mn324 O348 2.385 . S
Mn324 O349 2.209 . S
Mn324 O350 2.094 . S
Mn325 O330 2.121 . S
Mn325 N332 2.257 . S
Mn325 N341 2.282 . S
Mn325 O349 2.215 . S
Mn325 O351 2.117 . S
C326 O348 1.234 . S
C326 O349 1.283 . S
C327 O339 1.281 . S
C327 O340 1.236 . S
C328 O350 1.240 . S
C328 O351 1.264 . S
O329 Mn324 2.095 . S
O329 C338 1.250 . S
O330 Mn325 2.121 . S
O330 C338 1.258 . S
C331 N332 1.326 . S
C331 C335 1.460 . S
C331 H337 0.929 . S
N332 Mn325 2.257 . S
N332 C331 1.326 . S
N332 C336 1.362 . S
C333 C334 1.258 . S
C333 C336 1.431 . S
C333 C353 1.449 . S
C334 C333 1.258 . S
C334 C335 1.477 . S
C334 H354 0.931 . S
C335 C331 1.460 . S
C335 C334 1.477 . S
C335 H355 0.930 . S
C336 N332 1.362 . S
C336 C333 1.431 . S
C336 C346 1.476 . S
H337 C331 0.929 . S
C338 O329 1.250 . S
C338 O330 1.258 . S
O339 Mn324 2.162 . S
O339 C327 1.281 . S
O340 Mn324 2.297 . S
O340 C327 1.236 . S
N341 Mn325 2.282 . S
N341 C342 1.328 . S
N341 C346 1.318 . S
C342 N341 1.328 . S
C342 C343 1.457 . S
C342 H347 0.929 . S
C343 C342 1.457 . S
C343 C344 1.291 . S
C343 H356 0.931 . S
C344 C343 1.291 . S
C344 C345 1.373 . S
C344 H357 0.929 . S
C345 C344 1.373 . S
C345 C346 1.396 . S
C345 C352 1.403 . S
C346 C336 1.476 . S
C346 N341 1.318 . S
C346 C345 1.396 . S
H347 C342 0.929 . S
O348 Mn324 2.385 . S
O348 C326 1.234 . S
O349 Mn324 2.209 . S
O349 Mn325 2.215 . S
O349 C326 1.283 . S
O350 Mn324 2.094 . S
O350 C328 1.240 . S
O351 Mn325 2.117 . S
O351 C328 1.264 . S
C352 C345 1.403 . S
C352 C353 1.399 . S
C352 H358 0.929 . S
C353 C333 1.449 . S
C353 C352 1.399 . S
C353 H359 0.930 . S
H354 C334 0.931 . S
H355 C335 0.930 . S
H356 C343 0.931 . S
H357 C344 0.929 . S
H358 C352 0.929 . S
H359 C353 0.930 . S
Mn360 O365 2.095 . S
Mn360 O375 2.162 . S
Mn360 O376 2.297 . S
Mn360 O384 2.385 . S
Mn360 O385 2.209 . S
Mn360 O386 2.094 . S
Mn361 O366 2.121 . S
Mn361 N368 2.257 . S
Mn361 N377 2.282 . S
Mn361 O385 2.215 . S
Mn361 O387 2.117 . S
C362 O384 1.234 . S
C362 O385 1.283 . S
C363 O375 1.281 . S
C363 O376 1.236 . S
C364 O386 1.240 . S
C364 O387 1.264 . S
O365 Mn360 2.095 . S
O365 C374 1.250 . S
O366 Mn361 2.121 . S
O366 C374 1.258 . S
C367 N368 1.326 . S
C367 C371 1.460 . S
C367 H373 0.929 . S
N368 Mn361 2.257 . S
N368 C367 1.326 . S
N368 C372 1.362 . S
C369 C370 1.258 . S
C369 C372 1.431 . S
C369 C389 1.449 . S
C370 C369 1.258 . S
C370 C371 1.477 . S
C370 H390 0.931 . S
C371 C367 1.460 . S
C371 C370 1.477 . S
C371 H391 0.930 . S
C372 N368 1.362 . S
C372 C369 1.431 . S
C372 C382 1.476 . S
H373 C367 0.929 . S
C374 O365 1.250 . S
C374 O366 1.258 . S
O375 Mn360 2.162 . S
O375 C363 1.281 . S
O376 Mn360 2.297 . S
O376 C363 1.236 . S
N377 Mn361 2.282 . S
N377 C378 1.328 . S
N377 C382 1.318 . S
C378 N377 1.328 . S
C378 C379 1.457 . S
C378 H383 0.929 . S
C379 C378 1.457 . S
C379 C380 1.291 . S
C379 H392 0.931 . S
C380 C379 1.291 . S
C380 C381 1.373 . S
C380 H393 0.929 . S
C381 C380 1.373 . S
C381 C382 1.396 . S
C381 C388 1.403 . S
C382 C372 1.476 . S
C382 N377 1.318 . S
C382 C381 1.396 . S
H383 C378 0.929 . S
O384 Mn360 2.385 . S
O384 C362 1.234 . S
O385 Mn360 2.209 . S
O385 Mn361 2.215 . S
O385 C362 1.283 . S
O386 Mn360 2.094 . S
O386 C364 1.240 . S
O387 Mn361 2.117 . S
O387 C364 1.264 . S
C388 C381 1.403 . S
C388 C389 1.399 . S
C388 H394 0.929 . S
C389 C369 1.449 . S
C389 C388 1.399 . S
C389 H395 0.930 . S
H390 C370 0.931 . S
H391 C371 0.930 . S
H392 C379 0.931 . S
H393 C380 0.929 . S
H394 C388 0.929 . S
H395 C389 0.930 . S
Mn396 O401 2.095 . S
Mn396 O411 2.162 . S
Mn396 O412 2.297 . S
Mn396 O420 2.385 . S
Mn396 O421 2.209 . S
Mn396 O422 2.094 . S
Mn397 O402 2.121 . S
Mn397 N404 2.257 . S
Mn397 N413 2.282 . S
Mn397 O421 2.215 . S
Mn397 O423 2.117 . S
C398 O420 1.234 . S
C398 O421 1.283 . S
C399 O411 1.281 . S
C399 O412 1.236 . S
C400 O422 1.240 . S
C400 O423 1.264 . S
O401 Mn396 2.095 . S
O401 C410 1.250 . S
O402 Mn397 2.121 . S
O402 C410 1.258 . S
C403 N404 1.326 . S
C403 C407 1.460 . S
C403 H409 0.929 . S
N404 Mn397 2.257 . S
N404 C403 1.326 . S
N404 C408 1.362 . S
C405 C406 1.258 . S
C405 C408 1.431 . S
C405 C425 1.449 . S
C406 C405 1.258 . S
C406 C407 1.477 . S
C406 H426 0.931 . S
C407 C403 1.460 . S
C407 C406 1.477 . S
C407 H427 0.930 . S
C408 N404 1.362 . S
C408 C405 1.431 . S
C408 C418 1.476 . S
H409 C403 0.929 . S
C410 O401 1.250 . S
C410 O402 1.258 . S
O411 Mn396 2.162 . S
O411 C399 1.281 . S
O412 Mn396 2.297 . S
O412 C399 1.236 . S
N413 Mn397 2.282 . S
N413 C414 1.328 . S
N413 C418 1.318 . S
C414 N413 1.328 . S
C414 C415 1.457 . S
C414 H419 0.929 . S
C415 C414 1.457 . S
C415 C416 1.291 . S
C415 H428 0.931 . S
C416 C415 1.291 . S
C416 C417 1.373 . S
C416 H429 0.929 . S
C417 C416 1.373 . S
C417 C418 1.396 . S
C417 C424 1.403 . S
C418 C408 1.476 . S
C418 N413 1.318 . S
C418 C417 1.396 . S
H419 C414 0.929 . S
O420 Mn396 2.385 . S
O420 C398 1.234 . S
O421 Mn396 2.209 . S
O421 Mn397 2.215 . S
O421 C398 1.283 . S
O422 Mn396 2.094 . S
O422 C400 1.240 . S
O423 Mn397 2.117 . S
O423 C400 1.264 . S
C424 C417 1.403 . S
C424 C425 1.399 . S
C424 H430 0.929 . S
C425 C405 1.449 . S
C425 C424 1.399 . S
C425 H431 0.930 . S
H426 C406 0.931 . S
H427 C407 0.930 . S
H428 C415 0.931 . S
H429 C416 0.929 . S
H430 C424 0.929 . S
H431 C425 0.930 . S
Mn432 O437 2.095 . S
Mn432 O447 2.162 . S
Mn432 O448 2.297 . S
Mn432 O456 2.385 . S
Mn432 O457 2.209 . S
Mn432 O458 2.094 . S
Mn433 O438 2.121 . S
Mn433 N440 2.257 . S
Mn433 N449 2.282 . S
Mn433 O457 2.215 . S
Mn433 O459 2.117 . S
C434 O456 1.234 . S
C434 O457 1.283 . S
C435 O447 1.281 . S
C435 O448 1.236 . S
C436 O458 1.240 . S
C436 O459 1.264 . S
O437 Mn432 2.095 . S
O437 C446 1.250 . S
O438 Mn433 2.121 . S
O438 C446 1.258 . S
C439 N440 1.326 . S
C439 C443 1.460 . S
C439 H445 0.929 . S
N440 Mn433 2.257 . S
N440 C439 1.326 . S
N440 C444 1.362 . S
C441 C442 1.258 . S
C441 C444 1.431 . S
C441 C461 1.449 . S
C442 C441 1.258 . S
C442 C443 1.477 . S
C442 H462 0.931 . S
C443 C439 1.460 . S
C443 C442 1.477 . S
C443 H463 0.930 . S
C444 N440 1.362 . S
C444 C441 1.431 . S
C444 C454 1.476 . S
H445 C439 0.929 . S
C446 O437 1.250 . S
C446 O438 1.258 . S
O447 Mn432 2.162 . S
O447 C435 1.281 . S
O448 Mn432 2.297 . S
O448 C435 1.236 . S
N449 Mn433 2.282 . S
N449 C450 1.328 . S
N449 C454 1.318 . S
C450 N449 1.328 . S
C450 C451 1.457 . S
C450 H455 0.929 . S
C451 C450 1.457 . S
C451 C452 1.291 . S
C451 H464 0.931 . S
C452 C451 1.291 . S
C452 C453 1.373 . S
C452 H465 0.929 . S
C453 C452 1.373 . S
C453 C454 1.396 . S
C453 C460 1.403 . S
C454 C444 1.476 . S
C454 N449 1.318 . S
C454 C453 1.396 . S
H455 C450 0.929 . S
O456 Mn432 2.385 . S
O456 C434 1.234 . S
O457 Mn432 2.209 . S
O457 Mn433 2.215 . S
O457 C434 1.283 . S
O458 Mn432 2.094 . S
O458 C436 1.240 . S
O459 Mn433 2.117 . S
O459 C436 1.264 . S
C460 C453 1.403 . S
C460 C461 1.399 . S
C460 H466 0.929 . S
C461 C441 1.449 . S
C461 C460 1.399 . S
C461 H467 0.930 . S
H462 C442 0.931 . S
H463 C443 0.930 . S
H464 C451 0.931 . S
H465 C452 0.929 . S
H466 C460 0.929 . S
H467 C461 0.930 . S
Mn468 O473 2.095 . S
Mn468 O483 2.162 . S
Mn468 O484 2.297 . S
Mn468 O492 2.385 . S
Mn468 O493 2.209 . S
Mn468 O494 2.094 . S
Mn469 O474 2.121 . S
Mn469 N476 2.257 . S
Mn469 N485 2.282 . S
Mn469 O493 2.215 . S
Mn469 O495 2.117 . S
C470 O492 1.234 . S
C470 O493 1.283 . S
C471 O483 1.281 . S
C471 O484 1.236 . S
C472 O494 1.240 . S
C472 O495 1.264 . S
O473 Mn468 2.095 . S
O473 C482 1.250 . S
O474 Mn469 2.121 . S
O474 C482 1.258 . S
C475 N476 1.326 . S
C475 C479 1.460 . S
C475 H481 0.929 . S
N476 Mn469 2.257 . S
N476 C475 1.326 . S
N476 C480 1.362 . S
C477 C478 1.258 . S
C477 C480 1.431 . S
C477 C497 1.449 . S
C478 C477 1.258 . S
C478 C479 1.477 . S
C478 H498 0.931 . S
C479 C475 1.460 . S
C479 C478 1.477 . S
C479 H499 0.930 . S
C480 N476 1.362 . S
C480 C477 1.431 . S
C480 C490 1.476 . S
H481 C475 0.929 . S
C482 O473 1.250 . S
C482 O474 1.258 . S
O483 Mn468 2.162 . S
O483 C471 1.281 . S
O484 Mn468 2.297 . S
O484 C471 1.236 . S
N485 Mn469 2.282 . S
N485 C486 1.328 . S
N485 C490 1.318 . S
C486 N485 1.328 . S
C486 C487 1.457 . S
C486 H491 0.929 . S
C487 C486 1.457 . S
C487 C488 1.291 . S
C487 H500 0.931 . S
C488 C487 1.291 . S
C488 C489 1.373 . S
C488 H501 0.929 . S
C489 C488 1.373 . S
C489 C490 1.396 . S
C489 C496 1.403 . S
C490 C480 1.476 . S
C490 N485 1.318 . S
C490 C489 1.396 . S
H491 C486 0.929 . S
O492 Mn468 2.385 . S
O492 C470 1.234 . S
O493 Mn468 2.209 . S
O493 Mn469 2.215 . S
O493 C470 1.283 . S
O494 Mn468 2.094 . S
O494 C472 1.240 . S
O495 Mn469 2.117 . S
O495 C472 1.264 . S
C496 C489 1.403 . S
C496 C497 1.399 . S
C496 H502 0.929 . S
C497 C477 1.449 . S
C497 C496 1.399 . S
C497 H503 0.930 . S
H498 C478 0.931 . S
H499 C479 0.930 . S
H500 C487 0.931 . S
H501 C488 0.929 . S
H502 C496 0.929 . S
H503 C497 0.930 . S
Mn504 O509 2.095 . S
Mn504 O519 2.162 . S
Mn504 O520 2.297 . S
Mn504 O528 2.385 . S
Mn504 O529 2.209 . S
Mn504 O530 2.094 . S
Mn505 O510 2.121 . S
Mn505 N512 2.257 . S
Mn505 N521 2.282 . S
Mn505 O529 2.215 . S
Mn505 O531 2.117 . S
C506 O528 1.234 . S
C506 O529 1.283 . S
C507 O519 1.281 . S
C507 O520 1.236 . S
C508 O530 1.240 . S
C508 O531 1.264 . S
O509 Mn504 2.095 . S
O509 C518 1.250 . S
O510 Mn505 2.121 . S
O510 C518 1.258 . S
C511 N512 1.326 . S
C511 C515 1.460 . S
C511 H517 0.929 . S
N512 Mn505 2.257 . S
N512 C511 1.326 . S
N512 C516 1.362 . S
C513 C514 1.258 . S
C513 C516 1.431 . S
C513 C533 1.449 . S
C514 C513 1.258 . S
C514 C515 1.477 . S
C514 H534 0.931 . S
C515 C511 1.460 . S
C515 C514 1.477 . S
C515 H535 0.930 . S
C516 N512 1.362 . S
C516 C513 1.431 . S
C516 C526 1.476 . S
H517 C511 0.929 . S
C518 O509 1.250 . S
C518 O510 1.258 . S
O519 Mn504 2.162 . S
O519 C507 1.281 . S
O520 Mn504 2.297 . S
O520 C507 1.236 . S
N521 Mn505 2.282 . S
N521 C522 1.328 . S
N521 C526 1.318 . S
C522 N521 1.328 . S
C522 C523 1.457 . S
C522 H527 0.929 . S
C523 C522 1.457 . S
C523 C524 1.291 . S
C523 H536 0.931 . S
C524 C523 1.291 . S
C524 C525 1.373 . S
C524 H537 0.929 . S
C525 C524 1.373 . S
C525 C526 1.396 . S
C525 C532 1.403 . S
C526 C516 1.476 . S
C526 N521 1.318 . S
C526 C525 1.396 . S
H527 C522 0.929 . S
O528 Mn504 2.385 . S
O528 C506 1.234 . S
O529 Mn504 2.209 . S
O529 Mn505 2.215 . S
O529 C506 1.283 . S
O530 Mn504 2.094 . S
O530 C508 1.240 . S
O531 Mn505 2.117 . S
O531 C508 1.264 . S
C532 C525 1.403 . S
C532 C533 1.399 . S
C532 H538 0.929 . S
C533 C513 1.449 . S
C533 C532 1.399 . S
C533 H539 0.930 . S
H534 C514 0.931 . S
H535 C515 0.930 . S
H536 C523 0.931 . S
H537 C524 0.929 . S
H538 C532 0.929 . S
H539 C533 0.930 . S
Mn540 O545 2.095 . S
Mn540 O555 2.162 . S
Mn540 O556 2.297 . S
Mn540 O564 2.385 . S
Mn540 O565 2.209 . S
Mn540 O566 2.094 . S
Mn541 O546 2.121 . S
Mn541 N548 2.257 . S
Mn541 N557 2.282 . S
Mn541 O565 2.215 . S
Mn541 O567 2.117 . S
C542 O564 1.234 . S
C542 O565 1.283 . S
C543 O555 1.281 . S
C543 O556 1.236 . S
C544 O566 1.240 . S
C544 O567 1.264 . S
O545 Mn540 2.095 . S
O545 C554 1.250 . S
O546 Mn541 2.121 . S
O546 C554 1.258 . S
C547 N548 1.326 . S
C547 C551 1.460 . S
C547 H553 0.929 . S
N548 Mn541 2.257 . S
N548 C547 1.326 . S
N548 C552 1.362 . S
C549 C550 1.258 . S
C549 C552 1.431 . S
C549 C569 1.449 . S
C550 C549 1.258 . S
C550 C551 1.477 . S
C550 H570 0.931 . S
C551 C547 1.460 . S
C551 C550 1.477 . S
C551 H571 0.930 . S
C552 N548 1.362 . S
C552 C549 1.431 . S
C552 C562 1.476 . S
H553 C547 0.929 . S
C554 O545 1.250 . S
C554 O546 1.258 . S
O555 Mn540 2.162 . S
O555 C543 1.281 . S
O556 Mn540 2.297 . S
O556 C543 1.236 . S
N557 Mn541 2.282 . S
N557 C558 1.328 . S
N557 C562 1.318 . S
C558 N557 1.328 . S
C558 C559 1.457 . S
C558 H563 0.929 . S
C559 C558 1.457 . S
C559 C560 1.291 . S
C559 H572 0.931 . S
C560 C559 1.291 . S
C560 C561 1.373 . S
C560 H573 0.929 . S
C561 C560 1.373 . S
C561 C562 1.396 . S
C561 C568 1.403 . S
C562 C552 1.476 . S
C562 N557 1.318 . S
C562 C561 1.396 . S
H563 C558 0.929 . S
O564 Mn540 2.385 . S
O564 C542 1.234 . S
O565 Mn540 2.209 . S
O565 Mn541 2.215 . S
O565 C542 1.283 . S
O566 Mn540 2.094 . S
O566 C544 1.240 . S
O567 Mn541 2.117 . S
O567 C544 1.264 . S
C568 C561 1.403 . S
C568 C569 1.399 . S
C568 H574 0.929 . S
C569 C549 1.449 . S
C569 C568 1.399 . S
C569 H575 0.930 . S
H570 C550 0.931 . S
H571 C551 0.930 . S
H572 C559 0.931 . S
H573 C560 0.929 . S
H574 C568 0.929 . S
H575 C569 0.930 . S
Mn576 O581 2.095 . S
Mn576 O591 2.162 . S
Mn576 O592 2.297 . S
Mn576 O600 2.385 . S
Mn576 O601 2.209 . S
Mn576 O602 2.094 . S
Mn577 O582 2.121 . S
Mn577 N584 2.257 . S
Mn577 N593 2.282 . S
Mn577 O601 2.215 . S
Mn577 O603 2.117 . S
C578 O600 1.234 . S
C578 O601 1.283 . S
C579 O591 1.281 . S
C579 O592 1.236 . S
C580 O602 1.240 . S
C580 O603 1.264 . S
O581 Mn576 2.095 . S
O581 C590 1.250 . S
O582 Mn577 2.121 . S
O582 C590 1.258 . S
C583 N584 1.326 . S
C583 C587 1.460 . S
C583 H589 0.929 . S
N584 Mn577 2.257 . S
N584 C583 1.326 . S
N584 C588 1.362 . S
C585 C586 1.258 . S
C585 C588 1.431 . S
C585 C605 1.449 . S
C586 C585 1.258 . S
C586 C587 1.477 . S
C586 H606 0.931 . S
C587 C583 1.460 . S
C587 C586 1.477 . S
C587 H607 0.930 . S
C588 N584 1.362 . S
C588 C585 1.431 . S
C588 C598 1.476 . S
H589 C583 0.929 . S
C590 O581 1.250 . S
C590 O582 1.258 . S
O591 Mn576 2.162 . S
O591 C579 1.281 . S
O592 Mn576 2.297 . S
O592 C579 1.236 . S
N593 Mn577 2.282 . S
N593 C594 1.328 . S
N593 C598 1.318 . S
C594 N593 1.328 . S
C594 C595 1.457 . S
C594 H599 0.929 . S
C595 C594 1.457 . S
C595 C596 1.291 . S
C595 H608 0.931 . S
C596 C595 1.291 . S
C596 C597 1.373 . S
C596 H609 0.929 . S
C597 C596 1.373 . S
C597 C598 1.396 . S
C597 C604 1.403 . S
C598 C588 1.476 . S
C598 N593 1.318 . S
C598 C597 1.396 . S
H599 C594 0.929 . S
O600 Mn576 2.385 . S
O600 C578 1.234 . S
O601 Mn576 2.209 . S
O601 Mn577 2.215 . S
O601 C578 1.283 . S
O602 Mn576 2.094 . S
O602 C580 1.240 . S
O603 Mn577 2.117 . S
O603 C580 1.264 . S
C604 C597 1.403 . S
C604 C605 1.399 . S
C604 H610 0.929 . S
C605 C585 1.449 . S
C605 C604 1.399 . S
C605 H611 0.930 . S
H606 C586 0.931 . S
H607 C587 0.930 . S
H608 C595 0.931 . S
H609 C596 0.929 . S
H610 C604 0.929 . S
H611 C605 0.930 . S
Mn612 O617 2.095 . S
Mn612 O627 2.162 . S
Mn612 O628 2.297 . S
Mn612 O636 2.385 . S
Mn612 O637 2.209 . S
Mn612 O638 2.094 . S
Mn613 O618 2.121 . S
Mn613 N620 2.257 . S
Mn613 N629 2.282 . S
Mn613 O637 2.215 . S
Mn613 O639 2.117 . S
C614 O636 1.234 . S
C614 O637 1.283 . S
C615 O627 1.281 . S
C615 O628 1.236 . S
C616 O638 1.240 . S
C616 O639 1.264 . S
O617 Mn612 2.095 . S
O617 C626 1.250 . S
O618 Mn613 2.121 . S
O618 C626 1.258 . S
C619 N620 1.326 . S
C619 C623 1.460 . S
C619 H625 0.929 . S
N620 Mn613 2.257 . S
N620 C619 1.326 . S
N620 C624 1.362 . S
C621 C622 1.258 . S
C621 C624 1.431 . S
C621 C641 1.449 . S
C622 C621 1.258 . S
C622 C623 1.477 . S
C622 H642 0.931 . S
C623 C619 1.460 . S
C623 C622 1.477 . S
C623 H643 0.930 . S
C624 N620 1.362 . S
C624 C621 1.431 . S
C624 C634 1.476 . S
H625 C619 0.929 . S
C626 O617 1.250 . S
C626 O618 1.258 . S
O627 Mn612 2.162 . S
O627 C615 1.281 . S
O628 Mn612 2.297 . S
O628 C615 1.236 . S
N629 Mn613 2.282 . S
N629 C630 1.328 . S
N629 C634 1.318 . S
C630 N629 1.328 . S
C630 C631 1.457 . S
C630 H635 0.929 . S
C631 C630 1.457 . S
C631 C632 1.291 . S
C631 H644 0.931 . S
C632 C631 1.291 . S
C632 C633 1.373 . S
C632 H645 0.929 . S
C633 C632 1.373 . S
C633 C634 1.396 . S
C633 C640 1.403 . S
C634 C624 1.476 . S
C634 N629 1.318 . S
C634 C633 1.396 . S
H635 C630 0.929 . S
O636 Mn612 2.385 . S
O636 C614 1.234 . S
O637 Mn612 2.209 . S
O637 Mn613 2.215 . S
O637 C614 1.283 . S
O638 Mn612 2.094 . S
O638 C616 1.240 . S
O639 Mn613 2.117 . S
O639 C616 1.264 . S
C640 C633 1.403 . S
C640 C641 1.399 . S
C640 H646 0.929 . S
C641 C621 1.449 . S
C641 C640 1.399 . S
C641 H647 0.930 . S
H642 C622 0.931 . S
H643 C623 0.930 . S
H644 C631 0.931 . S
H645 C632 0.929 . S
H646 C640 0.929 . S
H647 C641 0.930 . S
Mn648 O653 2.095 . S
Mn648 O663 2.162 . S
Mn648 O664 2.297 . S
Mn648 O672 2.385 . S
Mn648 O673 2.209 . S
Mn648 O674 2.094 . S
Mn649 O654 2.121 . S
Mn649 N656 2.257 . S
Mn649 N665 2.282 . S
Mn649 O673 2.215 . S
Mn649 O675 2.117 . S
C650 O672 1.234 . S
C650 O673 1.283 . S
C651 O663 1.281 . S
C651 O664 1.236 . S
C652 O674 1.240 . S
C652 O675 1.264 . S
O653 Mn648 2.095 . S
O653 C662 1.250 . S
O654 Mn649 2.121 . S
O654 C662 1.258 . S
C655 N656 1.326 . S
C655 C659 1.460 . S
C655 H661 0.929 . S
N656 Mn649 2.257 . S
N656 C655 1.326 . S
N656 C660 1.362 . S
C657 C658 1.258 . S
C657 C660 1.431 . S
C657 C677 1.449 . S
C658 C657 1.258 . S
C658 C659 1.477 . S
C658 H678 0.931 . S
C659 C655 1.460 . S
C659 C658 1.477 . S
C659 H679 0.930 . S
C660 N656 1.362 . S
C660 C657 1.431 . S
C660 C670 1.476 . S
H661 C655 0.929 . S
C662 O653 1.250 . S
C662 O654 1.258 . S
O663 Mn648 2.162 . S
O663 C651 1.281 . S
O664 Mn648 2.297 . S
O664 C651 1.236 . S
N665 Mn649 2.282 . S
N665 C666 1.328 . S
N665 C670 1.318 . S
C666 N665 1.328 . S
C666 C667 1.457 . S
C666 H671 0.929 . S
C667 C666 1.457 . S
C667 C668 1.291 . S
C667 H680 0.931 . S
C668 C667 1.291 . S
C668 C669 1.373 . S
C668 H681 0.929 . S
C669 C668 1.373 . S
C669 C670 1.396 . S
C669 C676 1.403 . S
C670 C660 1.476 . S
C670 N665 1.318 . S
C670 C669 1.396 . S
H671 C666 0.929 . S
O672 Mn648 2.385 . S
O672 C650 1.234 . S
O673 Mn648 2.209 . S
O673 Mn649 2.215 . S
O673 C650 1.283 . S
O674 Mn648 2.094 . S
O674 C652 1.240 . S
O675 Mn649 2.117 . S
O675 C652 1.264 . S
C676 C669 1.403 . S
C676 C677 1.399 . S
C676 H682 0.929 . S
C677 C657 1.449 . S
C677 C676 1.399 . S
C677 H683 0.930 . S
H678 C658 0.931 . S
H679 C659 0.930 . S
H680 C667 0.931 . S
H681 C668 0.929 . S
H682 C676 0.929 . S
H683 C677 0.930 . S
Mn684 O689 2.095 . S
Mn684 O699 2.162 . S
Mn684 O700 2.297 . S
Mn684 O708 2.385 . S
Mn684 O709 2.209 . S
Mn684 O710 2.094 . S
Mn685 O690 2.121 . S
Mn685 N692 2.257 . S
Mn685 N701 2.282 . S
Mn685 O709 2.215 . S
Mn685 O711 2.117 . S
C686 O708 1.234 . S
C686 O709 1.283 . S
C687 O699 1.281 . S
C687 O700 1.236 . S
C688 O710 1.240 . S
C688 O711 1.264 . S
O689 Mn684 2.095 . S
O689 C698 1.250 . S
O690 Mn685 2.121 . S
O690 C698 1.258 . S
C691 N692 1.326 . S
C691 C695 1.460 . S
C691 H697 0.929 . S
N692 Mn685 2.257 . S
N692 C691 1.326 . S
N692 C696 1.362 . S
C693 C694 1.258 . S
C693 C696 1.431 . S
C693 C713 1.449 . S
C694 C693 1.258 . S
C694 C695 1.477 . S
C694 H714 0.931 . S
C695 C691 1.460 . S
C695 C694 1.477 . S
C695 H715 0.930 . S
C696 N692 1.362 . S
C696 C693 1.431 . S
C696 C706 1.476 . S
H697 C691 0.929 . S
C698 O689 1.250 . S
C698 O690 1.258 . S
O699 Mn684 2.162 . S
O699 C687 1.281 . S
O700 Mn684 2.297 . S
O700 C687 1.236 . S
N701 Mn685 2.282 . S
N701 C702 1.328 . S
N701 C706 1.318 . S
C702 N701 1.328 . S
C702 C703 1.457 . S
C702 H707 0.929 . S
C703 C702 1.457 . S
C703 C704 1.291 . S
C703 H716 0.931 . S
C704 C703 1.291 . S
C704 C705 1.373 . S
C704 H717 0.929 . S
C705 C704 1.373 . S
C705 C706 1.396 . S
C705 C712 1.403 . S
C706 C696 1.476 . S
C706 N701 1.318 . S
C706 C705 1.396 . S
H707 C702 0.929 . S
O708 Mn684 2.385 . S
O708 C686 1.234 . S
O709 Mn684 2.209 . S
O709 Mn685 2.215 . S
O709 C686 1.283 . S
O710 Mn684 2.094 . S
O710 C688 1.240 . S
O711 Mn685 2.117 . S
O711 C688 1.264 . S
C712 C705 1.403 . S
C712 C713 1.399 . S
C712 H718 0.929 . S
C713 C693 1.449 . S
C713 C712 1.399 . S
C713 H719 0.930 . S
H714 C694 0.931 . S
H715 C695 0.930 . S
H716 C703 0.931 . S
H717 C704 0.929 . S
H718 C712 0.929 . S
H719 C713 0.930 . S
Mn720 O725 2.095 . S
Mn720 O735 2.162 . S
Mn720 O736 2.297 . S
Mn720 O744 2.385 . S
Mn720 O745 2.209 . S
Mn720 O746 2.094 . S
Mn721 O726 2.121 . S
Mn721 N728 2.257 . S
Mn721 N737 2.282 . S
Mn721 O745 2.215 . S
Mn721 O747 2.117 . S
C722 O744 1.234 . S
C722 O745 1.283 . S
C723 O735 1.281 . S
C723 O736 1.236 . S
C724 O746 1.240 . S
C724 O747 1.264 . S
O725 Mn720 2.095 . S
O725 C734 1.250 . S
O726 Mn721 2.121 . S
O726 C734 1.258 . S
C727 N728 1.326 . S
C727 C731 1.460 . S
C727 H733 0.929 . S
N728 Mn721 2.257 . S
N728 C727 1.326 . S
N728 C732 1.362 . S
C729 C730 1.258 . S
C729 C732 1.431 . S
C729 C749 1.449 . S
C730 C729 1.258 . S
C730 C731 1.477 . S
C730 H750 0.931 . S
C731 C727 1.460 . S
C731 C730 1.477 . S
C731 H751 0.930 . S
C732 N728 1.362 . S
C732 C729 1.431 . S
C732 C742 1.476 . S
H733 C727 0.929 . S
C734 O725 1.250 . S
C734 O726 1.258 . S
O735 Mn720 2.162 . S
O735 C723 1.281 . S
O736 Mn720 2.297 . S
O736 C723 1.236 . S
N737 Mn721 2.282 . S
N737 C738 1.328 . S
N737 C742 1.318 . S
C738 N737 1.328 . S
C738 C739 1.457 . S
C738 H743 0.929 . S
C739 C738 1.457 . S
C739 C740 1.291 . S
C739 H752 0.931 . S
C740 C739 1.291 . S
C740 C741 1.373 . S
C740 H753 0.929 . S
C741 C740 1.373 . S
C741 C742 1.396 . S
C741 C748 1.403 . S
C742 C732 1.476 . S
C742 N737 1.318 . S
C742 C741 1.396 . S
H743 C738 0.929 . S
O744 Mn720 2.385 . S
O744 C722 1.234 . S
O745 Mn720 2.209 . S
O745 Mn721 2.215 . S
O745 C722 1.283 . S
O746 Mn720 2.094 . S
O746 C724 1.240 . S
O747 Mn721 2.117 . S
O747 C724 1.264 . S
C748 C741 1.403 . S
C748 C749 1.399 . S
C748 H754 0.929 . S
C749 C729 1.449 . S
C749 C748 1.399 . S
C749 H755 0.930 . S
H750 C730 0.931 . S
H751 C731 0.930 . S
H752 C739 0.931 . S
H753 C740 0.929 . S
H754 C748 0.929 . S
H755 C749 0.930 . S
Mn756 O761 2.095 . S
Mn756 O771 2.162 . S
Mn756 O772 2.297 . S
Mn756 O780 2.385 . S
Mn756 O781 2.209 . S
Mn756 O782 2.094 . S
Mn757 O762 2.121 . S
Mn757 N764 2.257 . S
Mn757 N773 2.282 . S
Mn757 O781 2.215 . S
Mn757 O783 2.117 . S
C758 O780 1.234 . S
C758 O781 1.283 . S
C759 O771 1.281 . S
C759 O772 1.236 . S
C760 O782 1.240 . S
C760 O783 1.264 . S
O761 Mn756 2.095 . S
O761 C770 1.250 . S
O762 Mn757 2.121 . S
O762 C770 1.258 . S
C763 N764 1.326 . S
C763 C767 1.460 . S
C763 H769 0.929 . S
N764 Mn757 2.257 . S
N764 C763 1.326 . S
N764 C768 1.362 . S
C765 C766 1.258 . S
C765 C768 1.431 . S
C765 C785 1.449 . S
C766 C765 1.258 . S
C766 C767 1.477 . S
C766 H786 0.931 . S
C767 C763 1.460 . S
C767 C766 1.477 . S
C767 H787 0.930 . S
C768 N764 1.362 . S
C768 C765 1.431 . S
C768 C778 1.476 . S
H769 C763 0.929 . S
C770 O761 1.250 . S
C770 O762 1.258 . S
O771 Mn756 2.162 . S
O771 C759 1.281 . S
O772 Mn756 2.297 . S
O772 C759 1.236 . S
N773 Mn757 2.282 . S
N773 C774 1.328 . S
N773 C778 1.318 . S
C774 N773 1.328 . S
C774 C775 1.457 . S
C774 H779 0.929 . S
C775 C774 1.457 . S
C775 C776 1.291 . S
C775 H788 0.931 . S
C776 C775 1.291 . S
C776 C777 1.373 . S
C776 H789 0.929 . S
C777 C776 1.373 . S
C777 C778 1.396 . S
C777 C784 1.403 . S
C778 C768 1.476 . S
C778 N773 1.318 . S
C778 C777 1.396 . S
H779 C774 0.929 . S
O780 Mn756 2.385 . S
O780 C758 1.234 . S
O781 Mn756 2.209 . S
O781 Mn757 2.215 . S
O781 C758 1.283 . S
O782 Mn756 2.094 . S
O782 C760 1.240 . S
O783 Mn757 2.117 . S
O783 C760 1.264 . S
C784 C777 1.403 . S
C784 C785 1.399 . S
C784 H790 0.929 . S
C785 C765 1.449 . S
C785 C784 1.399 . S
C785 H791 0.930 . S
H786 C766 0.931 . S
H787 C767 0.930 . S
H788 C775 0.931 . S
H789 C776 0.929 . S
H790 C784 0.929 . S
H791 C785 0.930 . S
Mn792 O797 2.095 . S
Mn792 O807 2.162 . S
Mn792 O808 2.297 . S
Mn792 O816 2.385 . S
Mn792 O817 2.209 . S
Mn792 O818 2.094 . S
Mn793 O798 2.121 . S
Mn793 N800 2.257 . S
Mn793 N809 2.282 . S
Mn793 O817 2.215 . S
Mn793 O819 2.117 . S
C794 O816 1.234 . S
C794 O817 1.283 . S
C795 O807 1.281 . S
C795 O808 1.236 . S
C796 O818 1.240 . S
C796 O819 1.264 . S
O797 Mn792 2.095 . S
O797 C806 1.250 . S
O798 Mn793 2.121 . S
O798 C806 1.258 . S
C799 N800 1.326 . S
C799 C803 1.460 . S
C799 H805 0.929 . S
N800 Mn793 2.257 . S
N800 C799 1.326 . S
N800 C804 1.362 . S
C801 C802 1.258 . S
C801 C804 1.431 . S
C801 C821 1.449 . S
C802 C801 1.258 . S
C802 C803 1.477 . S
C802 H822 0.931 . S
C803 C799 1.460 . S
C803 C802 1.477 . S
C803 H823 0.930 . S
C804 N800 1.362 . S
C804 C801 1.431 . S
C804 C814 1.476 . S
H805 C799 0.929 . S
C806 O797 1.250 . S
C806 O798 1.258 . S
O807 Mn792 2.162 . S
O807 C795 1.281 . S
O808 Mn792 2.297 . S
O808 C795 1.236 . S
N809 Mn793 2.282 . S
N809 C810 1.328 . S
N809 C814 1.318 . S
C810 N809 1.328 . S
C810 C811 1.457 . S
C810 H815 0.929 . S
C811 C810 1.457 . S
C811 C812 1.291 . S
C811 H824 0.931 . S
C812 C811 1.291 . S
C812 C813 1.373 . S
C812 H825 0.929 . S
C813 C812 1.373 . S
C813 C814 1.396 . S
C813 C820 1.403 . S
C814 C804 1.476 . S
C814 N809 1.318 . S
C814 C813 1.396 . S
H815 C810 0.929 . S
O816 Mn792 2.385 . S
O816 C794 1.234 . S
O817 Mn792 2.209 . S
O817 Mn793 2.215 . S
O817 C794 1.283 . S
O818 Mn792 2.094 . S
O818 C796 1.240 . S
O819 Mn793 2.117 . S
O819 C796 1.264 . S
C820 C813 1.403 . S
C820 C821 1.399 . S
C820 H826 0.929 . S
C821 C801 1.449 . S
C821 C820 1.399 . S
C821 H827 0.930 . S
H822 C802 0.931 . S
H823 C803 0.930 . S
H824 C811 0.931 . S
H825 C812 0.929 . S
H826 C820 0.929 . S
H827 C821 0.930 . S
Mn828 O833 2.095 . S
Mn828 O843 2.162 . S
Mn828 O844 2.297 . S
Mn828 O852 2.385 . S
Mn828 O853 2.209 . S
Mn828 O854 2.094 . S
Mn829 O834 2.121 . S
Mn829 N836 2.257 . S
Mn829 N845 2.282 . S
Mn829 O853 2.215 . S
Mn829 O855 2.117 . S
C830 O852 1.234 . S
C830 O853 1.283 . S
C831 O843 1.281 . S
C831 O844 1.236 . S
C832 O854 1.240 . S
C832 O855 1.264 . S
O833 Mn828 2.095 . S
O833 C842 1.250 . S
O834 Mn829 2.121 . S
O834 C842 1.258 . S
C835 N836 1.326 . S
C835 C839 1.460 . S
C835 H841 0.929 . S
N836 Mn829 2.257 . S
N836 C835 1.326 . S
N836 C840 1.362 . S
C837 C838 1.258 . S
C837 C840 1.431 . S
C837 C857 1.449 . S
C838 C837 1.258 . S
C838 C839 1.477 . S
C838 H858 0.931 . S
C839 C835 1.460 . S
C839 C838 1.477 . S
C839 H859 0.930 . S
C840 N836 1.362 . S
C840 C837 1.431 . S
C840 C850 1.476 . S
H841 C835 0.929 . S
C842 O833 1.250 . S
C842 O834 1.258 . S
O843 Mn828 2.162 . S
O843 C831 1.281 . S
O844 Mn828 2.297 . S
O844 C831 1.236 . S
N845 Mn829 2.282 . S
N845 C846 1.328 . S
N845 C850 1.318 . S
C846 N845 1.328 . S
C846 C847 1.457 . S
C846 H851 0.929 . S
C847 C846 1.457 . S
C847 C848 1.291 . S
C847 H860 0.931 . S
C848 C847 1.291 . S
C848 C849 1.373 . S
C848 H861 0.929 . S
C849 C848 1.373 . S
C849 C850 1.396 . S
C849 C856 1.403 . S
C850 C840 1.476 . S
C850 N845 1.318 . S
C850 C849 1.396 . S
H851 C846 0.929 . S
O852 Mn828 2.385 . S
O852 C830 1.234 . S
O853 Mn828 2.209 . S
O853 Mn829 2.215 . S
O853 C830 1.283 . S
O854 Mn828 2.094 . S
O854 C832 1.240 . S
O855 Mn829 2.117 . S
O855 C832 1.264 . S
C856 C849 1.403 . S
C856 C857 1.399 . S
C856 H862 0.929 . S
C857 C837 1.449 . S
C857 C856 1.399 . S
C857 H863 0.930 . S
H858 C838 0.931 . S
H859 C839 0.930 . S
H860 C847 0.931 . S
H861 C848 0.929 . S
H862 C856 0.929 . S
H863 C857 0.930 . S
Mn864 O869 2.095 . S
Mn864 O879 2.162 . S
Mn864 O880 2.297 . S
Mn864 O888 2.385 . S
Mn864 O889 2.209 . S
Mn864 O890 2.094 . S
Mn865 O870 2.121 . S
Mn865 N872 2.257 . S
Mn865 N881 2.282 . S
Mn865 O889 2.215 . S
Mn865 O891 2.117 . S
C866 O888 1.234 . S
C866 O889 1.283 . S
C867 O879 1.281 . S
C867 O880 1.236 . S
C868 O890 1.240 . S
C868 O891 1.264 . S
O869 Mn864 2.095 . S
O869 C878 1.250 . S
O870 Mn865 2.121 . S
O870 C878 1.258 . S
C871 N872 1.326 . S
C871 C875 1.460 . S
C871 H877 0.929 . S
N872 Mn865 2.257 . S
N872 C871 1.326 . S
N872 C876 1.362 . S
C873 C874 1.258 . S
C873 C876 1.431 . S
C873 C893 1.449 . S
C874 C873 1.258 . S
C874 C875 1.477 . S
C874 H894 0.931 . S
C875 C871 1.460 . S
C875 C874 1.477 . S
C875 H895 0.930 . S
C876 N872 1.362 . S
C876 C873 1.431 . S
C876 C886 1.476 . S
H877 C871 0.929 . S
C878 O869 1.250 . S
C878 O870 1.258 . S
O879 Mn864 2.162 . S
O879 C867 1.281 . S
O880 Mn864 2.297 . S
O880 C867 1.236 . S
N881 Mn865 2.282 . S
N881 C882 1.328 . S
N881 C886 1.318 . S
C882 N881 1.328 . S
C882 C883 1.457 . S
C882 H887 0.929 . S
C883 C882 1.457 . S
C883 C884 1.291 . S
C883 H896 0.931 . S
C884 C883 1.291 . S
C884 C885 1.373 . S
C884 H897 0.929 . S
C885 C884 1.373 . S
C885 C886 1.396 . S
C885 C892 1.403 . S
C886 C876 1.476 . S
C886 N881 1.318 . S
C886 C885 1.396 . S
H887 C882 0.929 . S
O888 Mn864 2.385 . S
O888 C866 1.234 . S
O889 Mn864 2.209 . S
O889 Mn865 2.215 . S
O889 C866 1.283 . S
O890 Mn864 2.094 . S
O890 C868 1.240 . S
O891 Mn865 2.117 . S
O891 C868 1.264 . S
C892 C885 1.403 . S
C892 C893 1.399 . S
C892 H898 0.929 . S
C893 C873 1.449 . S
C893 C892 1.399 . S
C893 H899 0.930 . S
H894 C874 0.931 . S
H895 C875 0.930 . S
H896 C883 0.931 . S
H897 C884 0.929 . S
H898 C892 0.929 . S
H899 C893 0.930 . S
Mn900 O905 2.095 . S
Mn900 O915 2.162 . S
Mn900 O916 2.297 . S
Mn900 O924 2.385 . S
Mn900 O925 2.209 . S
Mn900 O926 2.094 . S
Mn901 O906 2.121 . S
Mn901 N908 2.257 . S
Mn901 N917 2.282 . S
Mn901 O925 2.215 . S
Mn901 O927 2.117 . S
C902 O924 1.234 . S
C902 O925 1.283 . S
C903 O915 1.281 . S
C903 O916 1.236 . S
C904 O926 1.240 . S
C904 O927 1.264 . S
O905 Mn900 2.095 . S
O905 C914 1.250 . S
O906 Mn901 2.121 . S
O906 C914 1.258 . S
C907 N908 1.326 . S
C907 C911 1.460 . S
C907 H913 0.929 . S
N908 Mn901 2.257 . S
N908 C907 1.326 . S
N908 C912 1.362 . S
C909 C910 1.258 . S
C909 C912 1.431 . S
C909 C929 1.449 . S
C910 C909 1.258 . S
C910 C911 1.477 . S
C910 H930 0.931 . S
C911 C907 1.460 . S
C911 C910 1.477 . S
C911 H931 0.930 . S
C912 N908 1.362 . S
C912 C909 1.431 . S
C912 C922 1.476 . S
H913 C907 0.929 . S
C914 O905 1.250 . S
C914 O906 1.258 . S
O915 Mn900 2.162 . S
O915 C903 1.281 . S
O916 Mn900 2.297 . S
O916 C903 1.236 . S
N917 Mn901 2.282 . S
N917 C918 1.328 . S
N917 C922 1.318 . S
C918 N917 1.328 . S
C918 C919 1.457 . S
C918 H923 0.929 . S
C919 C918 1.457 . S
C919 C920 1.291 . S
C919 H932 0.931 . S
C920 C919 1.291 . S
C920 C921 1.373 . S
C920 H933 0.929 . S
C921 C920 1.373 . S
C921 C922 1.396 . S
C921 C928 1.403 . S
C922 C912 1.476 . S
C922 N917 1.318 . S
C922 C921 1.396 . S
H923 C918 0.929 . S
O924 Mn900 2.385 . S
O924 C902 1.234 . S
O925 Mn900 2.209 . S
O925 Mn901 2.215 . S
O925 C902 1.283 . S
O926 Mn900 2.094 . S
O926 C904 1.240 . S
O927 Mn901 2.117 . S
O927 C904 1.264 . S
C928 C921 1.403 . S
C928 C929 1.399 . S
C928 H934 0.929 . S
C929 C909 1.449 . S
C929 C928 1.399 . S
C929 H935 0.930 . S
H930 C910 0.931 . S
H931 C911 0.930 . S
H932 C919 0.931 . S
H933 C920 0.929 . S
H934 C928 0.929 . S
H935 C929 0.930 . S
Mn936 O941 2.095 . S
Mn936 O951 2.162 . S
Mn936 O952 2.297 . S
Mn936 O960 2.385 . S
Mn936 O961 2.209 . S
Mn936 O962 2.094 . S
Mn937 O942 2.121 . S
Mn937 N944 2.257 . S
Mn937 N953 2.282 . S
Mn937 O961 2.215 . S
Mn937 O963 2.117 . S
C938 O960 1.234 . S
C938 O961 1.283 . S
C939 O951 1.281 . S
C939 O952 1.236 . S
C940 O962 1.240 . S
C940 O963 1.264 . S
O941 Mn936 2.095 . S
O941 C950 1.250 . S
O942 Mn937 2.121 . S
O942 C950 1.258 . S
C943 N944 1.326 . S
C943 C947 1.460 . S
C943 H949 0.929 . S
N944 Mn937 2.257 . S
N944 C943 1.326 . S
N944 C948 1.362 . S
C945 C946 1.258 . S
C945 C948 1.431 . S
C945 C965 1.449 . S
C946 C945 1.258 . S
C946 C947 1.477 . S
C946 H966 0.931 . S
C947 C943 1.460 . S
C947 C946 1.477 . S
C947 H967 0.930 . S
C948 N944 1.362 . S
C948 C945 1.431 . S
C948 C958 1.476 . S
H949 C943 0.929 . S
C950 O941 1.250 . S
C950 O942 1.258 . S
O951 Mn936 2.162 . S
O951 C939 1.281 . S
O952 Mn936 2.297 . S
O952 C939 1.236 . S
N953 Mn937 2.282 . S
N953 C954 1.328 . S
N953 C958 1.318 . S
C954 N953 1.328 . S
C954 C955 1.457 . S
C954 H959 0.929 . S
C955 C954 1.457 . S
C955 C956 1.291 . S
C955 H968 0.931 . S
C956 C955 1.291 . S
C956 C957 1.373 . S
C956 H969 0.929 . S
C957 C956 1.373 . S
C957 C958 1.396 . S
C957 C964 1.403 . S
C958 C948 1.476 . S
C958 N953 1.318 . S
C958 C957 1.396 . S
H959 C954 0.929 . S
O960 Mn936 2.385 . S
O960 C938 1.234 . S
O961 Mn936 2.209 . S
O961 Mn937 2.215 . S
O961 C938 1.283 . S
O962 Mn936 2.094 . S
O962 C940 1.240 . S
O963 Mn937 2.117 . S
O963 C940 1.264 . S
C964 C957 1.403 . S
C964 C965 1.399 . S
C964 H970 0.929 . S
C965 C945 1.449 . S
C965 C964 1.399 . S
C965 H971 0.930 . S
H966 C946 0.931 . S
H967 C947 0.930 . S
H968 C955 0.931 . S
H969 C956 0.929 . S
H970 C964 0.929 . S
H971 C965 0.930 . S
Mn972 O977 2.095 . S
Mn972 O987 2.162 . S
Mn972 O988 2.297 . S
Mn972 O996 2.385 . S
Mn972 O997 2.209 . S
Mn972 O998 2.094 . S
Mn973 O978 2.121 . S
Mn973 N980 2.257 . S
Mn973 N989 2.282 . S
Mn973 O997 2.215 . S
Mn973 O999 2.117 . S
C974 O996 1.234 . S
C974 O997 1.283 . S
C975 O987 1.281 . S
C975 O988 1.236 . S
C976 O998 1.240 . S
C976 O999 1.264 . S
O977 Mn972 2.095 . S
O977 C986 1.250 . S
O978 Mn973 2.121 . S
O978 C986 1.258 . S
C979 N980 1.326 . S
C979 C983 1.460 . S
C979 H985 0.929 . S
N980 Mn973 2.257 . S
N980 C979 1.326 . S
N980 C984 1.362 . S
C981 C982 1.258 . S
C981 C984 1.431 . S
C981 C1001 1.449 . S
C982 C981 1.258 . S
C982 C983 1.477 . S
C982 H1002 0.931 . S
C983 C979 1.460 . S
C983 C982 1.477 . S
C983 H1003 0.930 . S
C984 N980 1.362 . S
C984 C981 1.431 . S
C984 C994 1.476 . S
H985 C979 0.929 . S
C986 O977 1.250 . S
C986 O978 1.258 . S
O987 Mn972 2.162 . S
O987 C975 1.281 . S
O988 Mn972 2.297 . S
O988 C975 1.236 . S
N989 Mn973 2.282 . S
N989 C990 1.328 . S
N989 C994 1.318 . S
C990 N989 1.328 . S
C990 C991 1.457 . S
C990 H995 0.929 . S
C991 C990 1.457 . S
C991 C992 1.291 . S
C991 H1004 0.931 . S
C992 C991 1.291 . S
C992 C993 1.373 . S
C992 H1005 0.929 . S
C993 C992 1.373 . S
C993 C994 1.396 . S
C993 C1000 1.403 . S
C994 C984 1.476 . S
C994 N989 1.318 . S
C994 C993 1.396 . S
H995 C990 0.929 . S
O996 Mn972 2.385 . S
O996 C974 1.234 . S
O997 Mn972 2.209 . S
O997 Mn973 2.215 . S
O997 C974 1.283 . S
O998 Mn972 2.094 . S
O998 C976 1.240 . S
O999 Mn973 2.117 . S
O999 C976 1.264 . S
C1000 C993 1.403 . S
C1000 C1001 1.399 . S
C1000 H1006 0.929 . S
C1001 C981 1.449 . S
C1001 C1000 1.399 . S
C1001 H1007 0.930 . S
H1002 C982 0.931 . S
H1003 C983 0.930 . S
H1004 C991 0.931 . S
H1005 C992 0.929 . S
H1006 C1000 0.929 . S
H1007 C1001 0.930 . S
Mn1008 O1013 2.095 . S
Mn1008 O1023 2.162 . S
Mn1008 O1024 2.297 . S
Mn1008 O1032 2.385 . S
Mn1008 O1033 2.209 . S
Mn1008 O1034 2.094 . S
Mn1009 O1014 2.121 . S
Mn1009 N1016 2.257 . S
Mn1009 N1025 2.282 . S
Mn1009 O1033 2.215 . S
Mn1009 O1035 2.117 . S
C1010 O1032 1.234 . S
C1010 O1033 1.283 . S
C1011 O1023 1.281 . S
C1011 O1024 1.236 . S
C1012 O1034 1.240 . S
C1012 O1035 1.264 . S
O1013 Mn1008 2.095 . S
O1013 C1022 1.250 . S
O1014 Mn1009 2.121 . S
O1014 C1022 1.258 . S
C1015 N1016 1.326 . S
C1015 C1019 1.460 . S
C1015 H1021 0.929 . S
N1016 Mn1009 2.257 . S
N1016 C1015 1.326 . S
N1016 C1020 1.362 . S
C1017 C1018 1.258 . S
C1017 C1020 1.431 . S
C1017 C1037 1.449 . S
C1018 C1017 1.258 . S
C1018 C1019 1.477 . S
C1018 H1038 0.931 . S
C1019 C1015 1.460 . S
C1019 C1018 1.477 . S
C1019 H1039 0.930 . S
C1020 N1016 1.362 . S
C1020 C1017 1.431 . S
C1020 C1030 1.476 . S
H1021 C1015 0.929 . S
C1022 O1013 1.250 . S
C1022 O1014 1.258 . S
O1023 Mn1008 2.162 . S
O1023 C1011 1.281 . S
O1024 Mn1008 2.297 . S
O1024 C1011 1.236 . S
N1025 Mn1009 2.282 . S
N1025 C1026 1.328 . S
N1025 C1030 1.318 . S
C1026 N1025 1.328 . S
C1026 C1027 1.457 . S
C1026 H1031 0.929 . S
C1027 C1026 1.457 . S
C1027 C1028 1.291 . S
C1027 H1040 0.931 . S
C1028 C1027 1.291 . S
C1028 C1029 1.373 . S
C1028 H1041 0.929 . S
C1029 C1028 1.373 . S
C1029 C1030 1.396 . S
C1029 C1036 1.403 . S
C1030 C1020 1.476 . S
C1030 N1025 1.318 . S
C1030 C1029 1.396 . S
H1031 C1026 0.929 . S
O1032 Mn1008 2.385 . S
O1032 C1010 1.234 . S
O1033 Mn1008 2.209 . S
O1033 Mn1009 2.215 . S
O1033 C1010 1.283 . S
O1034 Mn1008 2.094 . S
O1034 C1012 1.240 . S
O1035 Mn1009 2.117 . S
O1035 C1012 1.264 . S
C1036 C1029 1.403 . S
C1036 C1037 1.399 . S
C1036 H1042 0.929 . S
C1037 C1017 1.449 . S
C1037 C1036 1.399 . S
C1037 H1043 0.930 . S
H1038 C1018 0.931 . S
H1039 C1019 0.930 . S
H1040 C1027 0.931 . S
H1041 C1028 0.929 . S
H1042 C1036 0.929 . S
H1043 C1037 0.930 . S
Mn1044 O1049 2.095 . S
Mn1044 O1059 2.162 . S
Mn1044 O1060 2.297 . S
Mn1044 O1068 2.385 . S
Mn1044 O1069 2.209 . S
Mn1044 O1070 2.094 . S
Mn1045 O1050 2.121 . S
Mn1045 N1052 2.257 . S
Mn1045 N1061 2.282 . S
Mn1045 O1069 2.215 . S
Mn1045 O1071 2.117 . S
C1046 O1068 1.234 . S
C1046 O1069 1.283 . S
C1047 O1059 1.281 . S
C1047 O1060 1.236 . S
C1048 O1070 1.240 . S
C1048 O1071 1.264 . S
O1049 Mn1044 2.095 . S
O1049 C1058 1.250 . S
O1050 Mn1045 2.121 . S
O1050 C1058 1.258 . S
C1051 N1052 1.326 . S
C1051 C1055 1.460 . S
C1051 H1057 0.929 . S
N1052 Mn1045 2.257 . S
N1052 C1051 1.326 . S
N1052 C1056 1.362 . S
C1053 C1054 1.258 . S
C1053 C1056 1.431 . S
C1053 C1073 1.449 . S
C1054 C1053 1.258 . S
C1054 C1055 1.477 . S
C1054 H1074 0.931 . S
C1055 C1051 1.460 . S
C1055 C1054 1.477 . S
C1055 H1075 0.930 . S
C1056 N1052 1.362 . S
C1056 C1053 1.431 . S
C1056 C1066 1.476 . S
H1057 C1051 0.929 . S
C1058 O1049 1.250 . S
C1058 O1050 1.258 . S
O1059 Mn1044 2.162 . S
O1059 C1047 1.281 . S
O1060 Mn1044 2.297 . S
O1060 C1047 1.236 . S
N1061 Mn1045 2.282 . S
N1061 C1062 1.328 . S
N1061 C1066 1.318 . S
C1062 N1061 1.328 . S
C1062 C1063 1.457 . S
C1062 H1067 0.929 . S
C1063 C1062 1.457 . S
C1063 C1064 1.291 . S
C1063 H1076 0.931 . S
C1064 C1063 1.291 . S
C1064 C1065 1.373 . S
C1064 H1077 0.929 . S
C1065 C1064 1.373 . S
C1065 C1066 1.396 . S
C1065 C1072 1.403 . S
C1066 C1056 1.476 . S
C1066 N1061 1.318 . S
C1066 C1065 1.396 . S
H1067 C1062 0.929 . S
O1068 Mn1044 2.385 . S
O1068 C1046 1.234 . S
O1069 Mn1044 2.209 . S
O1069 Mn1045 2.215 . S
O1069 C1046 1.283 . S
O1070 Mn1044 2.094 . S
O1070 C1048 1.240 . S
O1071 Mn1045 2.117 . S
O1071 C1048 1.264 . S
C1072 C1065 1.403 . S
C1072 C1073 1.399 . S
C1072 H1078 0.929 . S
C1073 C1053 1.449 . S
C1073 C1072 1.399 . S
C1073 H1079 0.930 . S
H1074 C1054 0.931 . S
H1075 C1055 0.930 . S
H1076 C1063 0.931 . S
H1077 C1064 0.929 . S
H1078 C1072 0.929 . S
H1079 C1073 0.930 . S
Mn1080 O1085 2.095 . S
Mn1080 O1095 2.162 . S
Mn1080 O1096 2.297 . S
Mn1080 O1104 2.385 . S
Mn1080 O1105 2.209 . S
Mn1080 O1106 2.094 . S
Mn1081 O1086 2.121 . S
Mn1081 N1088 2.257 . S
Mn1081 N1097 2.282 . S
Mn1081 O1105 2.215 . S
Mn1081 O1107 2.117 . S
C1082 O1104 1.234 . S
C1082 O1105 1.283 . S
C1083 O1095 1.281 . S
C1083 O1096 1.236 . S
C1084 O1106 1.240 . S
C1084 O1107 1.264 . S
O1085 Mn1080 2.095 . S
O1085 C1094 1.250 . S
O1086 Mn1081 2.121 . S
O1086 C1094 1.258 . S
C1087 N1088 1.326 . S
C1087 C1091 1.460 . S
C1087 H1093 0.929 . S
N1088 Mn1081 2.257 . S
N1088 C1087 1.326 . S
N1088 C1092 1.362 . S
C1089 C1090 1.258 . S
C1089 C1092 1.431 . S
C1089 C1109 1.449 . S
C1090 C1089 1.258 . S
C1090 C1091 1.477 . S
C1090 H1110 0.931 . S
C1091 C1087 1.460 . S
C1091 C1090 1.477 . S
C1091 H1111 0.930 . S
C1092 N1088 1.362 . S
C1092 C1089 1.431 . S
C1092 C1102 1.476 . S
H1093 C1087 0.929 . S
C1094 O1085 1.250 . S
C1094 O1086 1.258 . S
O1095 Mn1080 2.162 . S
O1095 C1083 1.281 . S
O1096 Mn1080 2.297 . S
O1096 C1083 1.236 . S
N1097 Mn1081 2.282 . S
N1097 C1098 1.328 . S
N1097 C1102 1.318 . S
C1098 N1097 1.328 . S
C1098 C1099 1.457 . S
C1098 H1103 0.929 . S
C1099 C1098 1.457 . S
C1099 C1100 1.291 . S
C1099 H1112 0.931 . S
C1100 C1099 1.291 . S
C1100 C1101 1.373 . S
C1100 H1113 0.929 . S
C1101 C1100 1.373 . S
C1101 C1102 1.396 . S
C1101 C1108 1.403 . S
C1102 C1092 1.476 . S
C1102 N1097 1.318 . S
C1102 C1101 1.396 . S
H1103 C1098 0.929 . S
O1104 Mn1080 2.385 . S
O1104 C1082 1.234 . S
O1105 Mn1080 2.209 . S
O1105 Mn1081 2.215 . S
O1105 C1082 1.283 . S
O1106 Mn1080 2.094 . S
O1106 C1084 1.240 . S
O1107 Mn1081 2.117 . S
O1107 C1084 1.264 . S
C1108 C1101 1.403 . S
C1108 C1109 1.399 . S
C1108 H1114 0.929 . S
C1109 C1089 1.449 . S
C1109 C1108 1.399 . S
C1109 H1115 0.930 . S
H1110 C1090 0.931 . S
H1111 C1091 0.930 . S
H1112 C1099 0.931 . S
H1113 C1100 0.929 . S
H1114 C1108 0.929 . S
H1115 C1109 0.930 . S
Mn1116 O1121 2.095 . S
Mn1116 O1131 2.162 . S
Mn1116 O1132 2.297 . S
Mn1116 O1140 2.385 . S
Mn1116 O1141 2.209 . S
Mn1116 O1142 2.094 . S
Mn1117 O1122 2.121 . S
Mn1117 N1124 2.257 . S
Mn1117 N1133 2.282 . S
Mn1117 O1141 2.215 . S
Mn1117 O1143 2.117 . S
C1118 O1140 1.234 . S
C1118 O1141 1.283 . S
C1119 O1131 1.281 . S
C1119 O1132 1.236 . S
C1120 O1142 1.240 . S
C1120 O1143 1.264 . S
O1121 Mn1116 2.095 . S
O1121 C1130 1.250 . S
O1122 Mn1117 2.121 . S
O1122 C1130 1.258 . S
C1123 N1124 1.326 . S
C1123 C1127 1.460 . S
C1123 H1129 0.929 . S
N1124 Mn1117 2.257 . S
N1124 C1123 1.326 . S
N1124 C1128 1.362 . S
C1125 C1126 1.258 . S
C1125 C1128 1.431 . S
C1125 C1145 1.449 . S
C1126 C1125 1.258 . S
C1126 C1127 1.477 . S
C1126 H1146 0.931 . S
C1127 C1123 1.460 . S
C1127 C1126 1.477 . S
C1127 H1147 0.930 . S
C1128 N1124 1.362 . S
C1128 C1125 1.431 . S
C1128 C1138 1.476 . S
H1129 C1123 0.929 . S
C1130 O1121 1.250 . S
C1130 O1122 1.258 . S
O1131 Mn1116 2.162 . S
O1131 C1119 1.281 . S
O1132 Mn1116 2.297 . S
O1132 C1119 1.236 . S
N1133 Mn1117 2.282 . S
N1133 C1134 1.328 . S
N1133 C1138 1.318 . S
C1134 N1133 1.328 . S
C1134 C1135 1.457 . S
C1134 H1139 0.929 . S
C1135 C1134 1.457 . S
C1135 C1136 1.291 . S
C1135 H1148 0.931 . S
C1136 C1135 1.291 . S
C1136 C1137 1.373 . S
C1136 H1149 0.929 . S
C1137 C1136 1.373 . S
C1137 C1138 1.396 . S
C1137 C1144 1.403 . S
C1138 C1128 1.476 . S
C1138 N1133 1.318 . S
C1138 C1137 1.396 . S
H1139 C1134 0.929 . S
O1140 Mn1116 2.385 . S
O1140 C1118 1.234 . S
O1141 Mn1116 2.209 . S
O1141 Mn1117 2.215 . S
O1141 C1118 1.283 . S
O1142 Mn1116 2.094 . S
O1142 C1120 1.240 . S
O1143 Mn1117 2.117 . S
O1143 C1120 1.264 . S
C1144 C1137 1.403 . S
C1144 C1145 1.399 . S
C1144 H1150 0.929 . S
C1145 C1125 1.449 . S
C1145 C1144 1.399 . S
C1145 H1151 0.930 . S
H1146 C1126 0.931 . S
H1147 C1127 0.930 . S
H1148 C1135 0.931 . S
H1149 C1136 0.929 . S
H1150 C1144 0.929 . S
H1151 C1145 0.930 . S
C1152 C1153 1.363 . S
C1152 C1158 1.379 . S
C1152 N1160 1.356 . S
C1153 C1152 1.363 . S
C1153 C1159 1.363 . S
C1154 C1155 1.363 . S
C1154 C1159 1.379 . S
C1154 N1161 1.356 . S
C1155 C1154 1.363 . S
C1155 C1158 1.363 . S
N1156 C1158 1.356 . S
N1156 H1168 0.984 . S
N1156 H1169 0.985 . S
N1157 C1159 1.356 . S
N1157 H1162 0.984 . S
N1157 H1163 0.985 . S
C1158 C1152 1.379 . S
C1158 C1155 1.363 . S
C1158 N1156 1.356 . S
C1159 C1153 1.363 . S
C1159 C1154 1.379 . S
C1159 N1157 1.356 . S
N1160 C1152 1.356 . S
N1160 H1166 0.984 . S
N1160 H1167 0.984 . S
N1161 C1154 1.356 . S
N1161 H1164 0.984 . S
N1161 H1165 0.985 . S
H1162 N1157 0.984 . S
H1163 N1157 0.985 . S
H1164 N1161 0.984 . S
H1165 N1161 0.985 . S
H1166 N1160 0.984 . S
H1167 N1160 0.984 . S
H1168 N1156 0.984 . S
H1169 N1156 0.985 . S
C1170 C1171 1.363 . S
C1170 C1176 1.379 . S
C1170 N1178 1.356 . S
C1171 C1170 1.363 . S
C1171 C1177 1.363 . S
C1172 C1173 1.363 . S
C1172 C1177 1.379 . S
C1172 N1179 1.356 . S
C1173 C1172 1.363 . S
C1173 C1176 1.363 . S
N1174 C1176 1.356 . S
N1174 H1186 0.984 . S
N1174 H1187 0.985 . S
N1175 C1177 1.356 . S
N1175 H1180 0.984 . S
N1175 H1181 0.985 . S
C1176 C1170 1.379 . S
C1176 C1173 1.363 . S
C1176 N1174 1.356 . S
C1177 C1171 1.363 . S
C1177 C1172 1.379 . S
C1177 N1175 1.356 . S
N1178 C1170 1.356 . S
N1178 H1184 0.984 . S
N1178 H1185 0.984 . S
N1179 C1172 1.356 . S
N1179 H1182 0.984 . S
N1179 H1183 0.985 . S
H1180 N1175 0.984 . S
H1181 N1175 0.985 . S
H1182 N1179 0.984 . S
H1183 N1179 0.985 . S
H1184 N1178 0.984 . S
H1185 N1178 0.984 . S
H1186 N1174 0.984 . S
H1187 N1174 0.985 . S
C1188 C1189 1.363 . S
C1188 C1194 1.379 . S
C1188 N1196 1.356 . S
C1189 C1188 1.363 . S
C1189 C1195 1.363 . S
C1190 C1191 1.363 . S
C1190 C1195 1.379 . S
C1190 N1197 1.356 . S
C1191 C1190 1.363 . S
C1191 C1194 1.363 . S
N1192 C1194 1.356 . S
N1192 H1204 0.984 . S
N1192 H1205 0.985 . S
N1193 C1195 1.356 . S
N1193 H1198 0.984 . S
N1193 H1199 0.985 . S
C1194 C1188 1.379 . S
C1194 C1191 1.363 . S
C1194 N1192 1.356 . S
C1195 C1189 1.363 . S
C1195 C1190 1.379 . S
C1195 N1193 1.356 . S
N1196 C1188 1.356 . S
N1196 H1202 0.984 . S
N1196 H1203 0.984 . S
N1197 C1190 1.356 . S
N1197 H1200 0.984 . S
N1197 H1201 0.985 . S
H1198 N1193 0.984 . S
H1199 N1193 0.985 . S
H1200 N1197 0.984 . S
H1201 N1197 0.985 . S
H1202 N1196 0.984 . S
H1203 N1196 0.984 . S
H1204 N1192 0.984 . S
H1205 N1192 0.985 . S
C1206 C1207 1.363 . S
C1206 C1212 1.379 . S
C1206 N1214 1.356 . S
C1207 C1206 1.363 . S
C1207 C1213 1.363 . S
C1208 C1209 1.363 . S
C1208 C1213 1.379 . S
C1208 N1215 1.356 . S
C1209 C1208 1.363 . S
C1209 C1212 1.363 . S
N1210 C1212 1.356 . S
N1210 H1222 0.984 . S
N1210 H1223 0.985 . S
N1211 C1213 1.356 . S
N1211 H1216 0.984 . S
N1211 H1217 0.985 . S
C1212 C1206 1.379 . S
C1212 C1209 1.363 . S
C1212 N1210 1.356 . S
C1213 C1207 1.363 . S
C1213 C1208 1.379 . S
C1213 N1211 1.356 . S
N1214 C1206 1.356 . S
N1214 H1220 0.984 . S
N1214 H1221 0.984 . S
N1215 C1208 1.356 . S
N1215 H1218 0.984 . S
N1215 H1219 0.985 . S
H1216 N1211 0.984 . S
H1217 N1211 0.985 . S
H1218 N1215 0.984 . S
H1219 N1215 0.985 . S
H1220 N1214 0.984 . S
H1221 N1214 0.984 . S
H1222 N1210 0.984 . S
H1223 N1210 0.985 . S
C1224 C1225 1.363 . S
C1224 C1230 1.379 . S
C1224 N1232 1.356 . S
C1225 C1224 1.363 . S
C1225 C1231 1.363 . S
C1226 C1227 1.363 . S
C1226 C1231 1.379 . S
C1226 N1233 1.356 . S
C1227 C1226 1.363 . S
C1227 C1230 1.363 . S
N1228 C1230 1.356 . S
N1228 H1240 0.984 . S
N1228 H1241 0.985 . S
N1229 C1231 1.356 . S
N1229 H1234 0.984 . S
N1229 H1235 0.985 . S
C1230 C1224 1.379 . S
C1230 C1227 1.363 . S
C1230 N1228 1.356 . S
C1231 C1225 1.363 . S
C1231 C1226 1.379 . S
C1231 N1229 1.356 . S
N1232 C1224 1.356 . S
N1232 H1238 0.984 . S
N1232 H1239 0.984 . S
N1233 C1226 1.356 . S
N1233 H1236 0.984 . S
N1233 H1237 0.985 . S
H1234 N1229 0.984 . S
H1235 N1229 0.985 . S
H1236 N1233 0.984 . S
H1237 N1233 0.985 . S
H1238 N1232 0.984 . S
H1239 N1232 0.984 . S
H1240 N1228 0.984 . S
H1241 N1228 0.985 . S
C1242 C1243 1.363 . S
C1242 C1248 1.379 . S
C1242 N1250 1.356 . S
C1243 C1242 1.363 . S
C1243 C1249 1.363 . S
C1244 C1245 1.363 . S
C1244 C1249 1.379 . S
C1244 N1251 1.356 . S
C1245 C1244 1.363 . S
C1245 C1248 1.363 . S
N1246 C1248 1.356 . S
N1246 H1258 0.984 . S
N1246 H1259 0.985 . S
N1247 C1249 1.356 . S
N1247 H1252 0.984 . S
N1247 H1253 0.985 . S
C1248 C1242 1.379 . S
C1248 C1245 1.363 . S
C1248 N1246 1.356 . S
C1249 C1243 1.363 . S
C1249 C1244 1.379 . S
C1249 N1247 1.356 . S
N1250 C1242 1.356 . S
N1250 H1256 0.984 . S
N1250 H1257 0.984 . S
N1251 C1244 1.356 . S
N1251 H1254 0.984 . S
N1251 H1255 0.985 . S
H1252 N1247 0.984 . S
H1253 N1247 0.985 . S
H1254 N1251 0.984 . S
H1255 N1251 0.985 . S
H1256 N1250 0.984 . S
H1257 N1250 0.984 . S
H1258 N1246 0.984 . S
H1259 N1246 0.985 . S
C1260 C1261 1.363 . S
C1260 C1266 1.379 . S
C1260 N1268 1.356 . S
C1261 C1260 1.363 . S
C1261 C1267 1.363 . S
C1262 C1263 1.363 . S
C1262 C1267 1.379 . S
C1262 N1269 1.356 . S
C1263 C1262 1.363 . S
C1263 C1266 1.363 . S
N1264 C1266 1.356 . S
N1264 H1276 0.984 . S
N1264 H1277 0.985 . S
N1265 C1267 1.356 . S
N1265 H1270 0.984 . S
N1265 H1271 0.985 . S
C1266 C1260 1.379 . S
C1266 C1263 1.363 . S
C1266 N1264 1.356 . S
C1267 C1261 1.363 . S
C1267 C1262 1.379 . S
C1267 N1265 1.356 . S
N1268 C1260 1.356 . S
N1268 H1274 0.984 . S
N1268 H1275 0.984 . S
N1269 C1262 1.356 . S
N1269 H1272 0.984 . S
N1269 H1273 0.985 . S
H1270 N1265 0.984 . S
H1271 N1265 0.985 . S
H1272 N1269 0.984 . S
H1273 N1269 0.985 . S
H1274 N1268 0.984 . S
H1275 N1268 0.984 . S
H1276 N1264 0.984 . S
H1277 N1264 0.985 . S
C1278 C1279 1.363 . S
C1278 C1284 1.379 . S
C1278 N1286 1.356 . S
C1279 C1278 1.363 . S
C1279 C1285 1.363 . S
C1280 C1281 1.363 . S
C1280 C1285 1.379 . S
C1280 N1287 1.356 . S
C1281 C1280 1.363 . S
C1281 C1284 1.363 . S
N1282 C1284 1.356 . S
N1282 H1294 0.984 . S
N1282 H1295 0.985 . S
N1283 C1285 1.356 . S
N1283 H1288 0.984 . S
N1283 H1289 0.985 . S
C1284 C1278 1.379 . S
C1284 C1281 1.363 . S
C1284 N1282 1.356 . S
C1285 C1279 1.363 . S
C1285 C1280 1.379 . S
C1285 N1283 1.356 . S
N1286 C1278 1.356 . S
N1286 H1292 0.984 . S
N1286 H1293 0.984 . S
N1287 C1280 1.356 . S
N1287 H1290 0.984 . S
N1287 H1291 0.985 . S
H1288 N1283 0.984 . S
H1289 N1283 0.985 . S
H1290 N1287 0.984 . S
H1291 N1287 0.985 . S
H1292 N1286 0.984 . S
H1293 N1286 0.984 . S
H1294 N1282 0.984 . S
H1295 N1282 0.985 . S
C1296 C1297 1.363 . S
C1296 C1302 1.379 . S
C1296 N1304 1.356 . S
C1297 C1296 1.363 . S
C1297 C1303 1.363 . S
C1298 C1299 1.363 . S
C1298 C1303 1.379 . S
C1298 N1305 1.356 . S
C1299 C1298 1.363 . S
C1299 C1302 1.363 . S
N1300 C1302 1.356 . S
N1300 H1312 0.984 . S
N1300 H1313 0.985 . S
N1301 C1303 1.356 . S
N1301 H1306 0.984 . S
N1301 H1307 0.985 . S
C1302 C1296 1.379 . S
C1302 C1299 1.363 . S
C1302 N1300 1.356 . S
C1303 C1297 1.363 . S
C1303 C1298 1.379 . S
C1303 N1301 1.356 . S
N1304 C1296 1.356 . S
N1304 H1310 0.984 . S
N1304 H1311 0.984 . S
N1305 C1298 1.356 . S
N1305 H1308 0.984 . S
N1305 H1309 0.985 . S
H1306 N1301 0.984 . S
H1307 N1301 0.985 . S
H1308 N1305 0.984 . S
H1309 N1305 0.985 . S
H1310 N1304 0.984 . S
H1311 N1304 0.984 . S
H1312 N1300 0.984 . S
H1313 N1300 0.985 . S
C1314 C1315 1.363 . S
C1314 C1320 1.379 . S
C1314 N1322 1.356 . S
C1315 C1314 1.363 . S
C1315 C1321 1.363 . S
C1316 C1317 1.363 . S
C1316 C1321 1.379 . S
C1316 N1323 1.356 . S
C1317 C1316 1.363 . S
C1317 C1320 1.363 . S
N1318 C1320 1.356 . S
N1318 H1330 0.984 . S
N1318 H1331 0.985 . S
N1319 C1321 1.356 . S
N1319 H1324 0.984 . S
N1319 H1325 0.985 . S
C1320 C1314 1.379 . S
C1320 C1317 1.363 . S
C1320 N1318 1.356 . S
C1321 C1315 1.363 . S
C1321 C1316 1.379 . S
C1321 N1319 1.356 . S
N1322 C1314 1.356 . S
N1322 H1328 0.984 . S
N1322 H1329 0.984 . S
N1323 C1316 1.356 . S
N1323 H1326 0.984 . S
N1323 H1327 0.985 . S
H1324 N1319 0.984 . S
H1325 N1319 0.985 . S
H1326 N1323 0.984 . S
H1327 N1323 0.985 . S
H1328 N1322 0.984 . S
H1329 N1322 0.984 . S
H1330 N1318 0.984 . S
H1331 N1318 0.985 . S
C1332 C1333 1.363 . S
C1332 C1338 1.379 . S
C1332 N1340 1.356 . S
C1333 C1332 1.363 . S
C1333 C1339 1.363 . S
C1334 C1335 1.363 . S
C1334 C1339 1.379 . S
C1334 N1341 1.356 . S
C1335 C1334 1.363 . S
C1335 C1338 1.363 . S
N1336 C1338 1.356 . S
N1336 H1348 0.984 . S
N1336 H1349 0.985 . S
N1337 C1339 1.356 . S
N1337 H1342 0.984 . S
N1337 H1343 0.985 . S
C1338 C1332 1.379 . S
C1338 C1335 1.363 . S
C1338 N1336 1.356 . S
C1339 C1333 1.363 . S
C1339 C1334 1.379 . S
C1339 N1337 1.356 . S
N1340 C1332 1.356 . S
N1340 H1346 0.984 . S
N1340 H1347 0.984 . S
N1341 C1334 1.356 . S
N1341 H1344 0.984 . S
N1341 H1345 0.985 . S
H1342 N1337 0.984 . S
H1343 N1337 0.985 . S
H1344 N1341 0.984 . S
H1345 N1341 0.985 . S
H1346 N1340 0.984 . S
H1347 N1340 0.984 . S
H1348 N1336 0.984 . S
H1349 N1336 0.985 . S
C1350 C1351 1.363 . S
C1350 C1356 1.379 . S
C1350 N1358 1.356 . S
C1351 C1350 1.363 . S
C1351 C1357 1.363 . S
C1352 C1353 1.363 . S
C1352 C1357 1.379 . S
C1352 N1359 1.356 . S
C1353 C1352 1.363 . S
C1353 C1356 1.363 . S
N1354 C1356 1.356 . S
N1354 H1366 0.984 . S
N1354 H1367 0.985 . S
N1355 C1357 1.356 . S
N1355 H1360 0.984 . S
N1355 H1361 0.985 . S
C1356 C1350 1.379 . S
C1356 C1353 1.363 . S
C1356 N1354 1.356 . S
C1357 C1351 1.363 . S
C1357 C1352 1.379 . S
C1357 N1355 1.356 . S
N1358 C1350 1.356 . S
N1358 H1364 0.984 . S
N1358 H1365 0.984 . S
N1359 C1352 1.356 . S
N1359 H1362 0.984 . S
N1359 H1363 0.985 . S
H1360 N1355 0.984 . S
H1361 N1355 0.985 . S
H1362 N1359 0.984 . S
H1363 N1359 0.985 . S
H1364 N1358 0.984 . S
H1365 N1358 0.984 . S
H1366 N1354 0.984 . S
H1367 N1354 0.985 . S
C1368 C1369 1.363 . S
C1368 C1374 1.379 . S
C1368 N1376 1.356 . S
C1369 C1368 1.363 . S
C1369 C1375 1.363 . S
C1370 C1371 1.363 . S
C1370 C1375 1.379 . S
C1370 N1377 1.356 . S
C1371 C1370 1.363 . S
C1371 C1374 1.363 . S
N1372 C1374 1.356 . S
N1372 H1384 0.984 . S
N1372 H1385 0.985 . S
N1373 C1375 1.356 . S
N1373 H1378 0.984 . S
N1373 H1379 0.985 . S
C1374 C1368 1.379 . S
C1374 C1371 1.363 . S
C1374 N1372 1.356 . S
C1375 C1369 1.363 . S
C1375 C1370 1.379 . S
C1375 N1373 1.356 . S
N1376 C1368 1.356 . S
N1376 H1382 0.984 . S
N1376 H1383 0.984 . S
N1377 C1370 1.356 . S
N1377 H1380 0.984 . S
N1377 H1381 0.985 . S
H1378 N1373 0.984 . S
H1379 N1373 0.985 . S
H1380 N1377 0.984 . S
H1381 N1377 0.985 . S
H1382 N1376 0.984 . S
H1383 N1376 0.984 . S
H1384 N1372 0.984 . S
H1385 N1372 0.985 . S
C1386 C1387 1.363 . S
C1386 C1392 1.379 . S
C1386 N1394 1.356 . S
C1387 C1386 1.363 . S
C1387 C1393 1.363 . S
C1388 C1389 1.363 . S
C1388 C1393 1.379 . S
C1388 N1395 1.356 . S
C1389 C1388 1.363 . S
C1389 C1392 1.363 . S
N1390 C1392 1.356 . S
N1390 H1402 0.984 . S
N1390 H1403 0.985 . S
N1391 C1393 1.356 . S
N1391 H1396 0.984 . S
N1391 H1397 0.985 . S
C1392 C1386 1.379 . S
C1392 C1389 1.363 . S
C1392 N1390 1.356 . S
C1393 C1387 1.363 . S
C1393 C1388 1.379 . S
C1393 N1391 1.356 . S
N1394 C1386 1.356 . S
N1394 H1400 0.984 . S
N1394 H1401 0.984 . S
N1395 C1388 1.356 . S
N1395 H1398 0.984 . S
N1395 H1399 0.985 . S
H1396 N1391 0.984 . S
H1397 N1391 0.985 . S
H1398 N1395 0.984 . S
H1399 N1395 0.985 . S
H1400 N1394 0.984 . S
H1401 N1394 0.984 . S
H1402 N1390 0.984 . S
H1403 N1390 0.985 . S
C1404 C1405 1.363 . S
C1404 C1410 1.379 . S
C1404 N1412 1.356 . S
C1405 C1404 1.363 . S
C1405 C1411 1.363 . S
C1406 C1407 1.363 . S
C1406 C1411 1.379 . S
C1406 N1413 1.356 . S
C1407 C1406 1.363 . S
C1407 C1410 1.363 . S
N1408 C1410 1.356 . S
N1408 H1420 0.984 . S
N1408 H1421 0.985 . S
N1409 C1411 1.356 . S
N1409 H1414 0.984 . S
N1409 H1415 0.985 . S
C1410 C1404 1.379 . S
C1410 C1407 1.363 . S
C1410 N1408 1.356 . S
C1411 C1405 1.363 . S
C1411 C1406 1.379 . S
C1411 N1409 1.356 . S
N1412 C1404 1.356 . S
N1412 H1418 0.984 . S
N1412 H1419 0.984 . S
N1413 C1406 1.356 . S
N1413 H1416 0.984 . S
N1413 H1417 0.985 . S
H1414 N1409 0.984 . S
H1415 N1409 0.985 . S
H1416 N1413 0.984 . S
H1417 N1413 0.985 . S
H1418 N1412 0.984 . S
H1419 N1412 0.984 . S
H1420 N1408 0.984 . S
H1421 N1408 0.985 . S
C1422 C1423 1.363 . S
C1422 C1428 1.379 . S
C1422 N1430 1.356 . S
C1423 C1422 1.363 . S
C1423 C1429 1.363 . S
C1424 C1425 1.363 . S
C1424 C1429 1.379 . S
C1424 N1431 1.356 . S
C1425 C1424 1.363 . S
C1425 C1428 1.363 . S
N1426 C1428 1.356 . S
N1426 H1438 0.984 . S
N1426 H1439 0.985 . S
N1427 C1429 1.356 . S
N1427 H1432 0.984 . S
N1427 H1433 0.985 . S
C1428 C1422 1.379 . S
C1428 C1425 1.363 . S
C1428 N1426 1.356 . S
C1429 C1423 1.363 . S
C1429 C1424 1.379 . S
C1429 N1427 1.356 . S
N1430 C1422 1.356 . S
N1430 H1436 0.984 . S
N1430 H1437 0.984 . S
N1431 C1424 1.356 . S
N1431 H1434 0.984 . S
N1431 H1435 0.985 . S
H1432 N1427 0.984 . S
H1433 N1427 0.985 . S
H1434 N1431 0.984 . S
H1435 N1431 0.985 . S
H1436 N1430 0.984 . S
H1437 N1430 0.984 . S
H1438 N1426 0.984 . S
H1439 N1426 0.985 . S
C1440 C1441 1.363 . S
C1440 C1446 1.379 1_554 S
C1440 N1448 1.356 . S
C1441 C1440 1.363 . S
C1441 C1447 1.363 . S
C1442 C1443 1.363 . S
C1442 C1447 1.379 1_556 S
C1442 N1449 1.356 . S
C1443 C1442 1.363 . S
C1443 C1446 1.363 . S
N1444 C1446 1.356 . S
N1444 H1456 0.984 . S
N1444 H1457 0.985 . S
N1445 C1447 1.356 . S
N1445 H1450 0.984 . S
N1445 H1451 0.985 . S
C1446 C1440 1.379 1_556 S
C1446 C1443 1.363 . S
C1446 N1444 1.356 . S
C1447 C1441 1.363 . S
C1447 C1442 1.379 1_554 S
C1447 N1445 1.356 . S
N1448 C1440 1.356 . S
N1448 H1454 0.984 . S
N1448 H1455 0.984 . S
N1449 C1442 1.356 . S
N1449 H1452 0.984 . S
N1449 H1453 0.985 . S
H1450 N1445 0.984 . S
H1451 N1445 0.985 . S
H1452 N1449 0.984 . S
H1453 N1449 0.985 . S
H1454 N1448 0.984 . S
H1455 N1448 0.984 . S
H1456 N1444 0.984 . S
H1457 N1444 0.985 . S
C1458 C1459 1.363 . S
C1458 C1464 1.379 1_556 S
C1458 N1466 1.356 . S
C1459 C1458 1.363 . S
C1459 C1465 1.363 . S
C1460 C1461 1.363 . S
C1460 C1465 1.379 1_554 S
C1460 N1467 1.356 . S
C1461 C1460 1.363 . S
C1461 C1464 1.363 . S
N1462 C1464 1.356 . S
N1462 H1474 0.984 . S
N1462 H1475 0.985 . S
N1463 C1465 1.356 . S
N1463 H1468 0.984 . S
N1463 H1469 0.985 . S
C1464 C1458 1.379 1_554 S
C1464 C1461 1.363 . S
C1464 N1462 1.356 . S
C1465 C1459 1.363 . S
C1465 C1460 1.379 1_556 S
C1465 N1463 1.356 . S
N1466 C1458 1.356 . S
N1466 H1472 0.984 . S
N1466 H1473 0.984 . S
N1467 C1460 1.356 . S
N1467 H1470 0.984 . S
N1467 H1471 0.985 . S
H1468 N1463 0.984 . S
H1469 N1463 0.985 . S
H1470 N1467 0.984 . S
H1471 N1467 0.985 . S
H1472 N1466 0.984 . S
H1473 N1466 0.984 . S
H1474 N1462 0.984 . S
H1475 N1462 0.985 . S
C1476 C1477 1.363 . S
C1476 C1482 1.379 1_556 S
C1476 N1484 1.356 . S
C1477 C1476 1.363 . S
C1477 C1483 1.363 . S
C1478 C1479 1.363 . S
C1478 C1483 1.379 1_554 S
C1478 N1485 1.356 . S
C1479 C1478 1.363 . S
C1479 C1482 1.363 . S
N1480 C1482 1.356 . S
N1480 H1492 0.984 . S
N1480 H1493 0.985 . S
N1481 C1483 1.356 . S
N1481 H1486 0.984 . S
N1481 H1487 0.985 . S
C1482 C1476 1.379 1_554 S
C1482 C1479 1.363 . S
C1482 N1480 1.356 . S
C1483 C1477 1.363 . S
C1483 C1478 1.379 1_556 S
C1483 N1481 1.356 . S
N1484 C1476 1.356 . S
N1484 H1490 0.984 . S
N1484 H1491 0.984 . S
N1485 C1478 1.356 . S
N1485 H1488 0.984 . S
N1485 H1489 0.985 . S
H1486 N1481 0.984 . S
H1487 N1481 0.985 . S
H1488 N1485 0.984 . S
H1489 N1485 0.985 . S
H1490 N1484 0.984 . S
H1491 N1484 0.984 . S
H1492 N1480 0.984 . S
H1493 N1480 0.985 . S
C1494 C1495 1.363 . S
C1494 C1500 1.379 1_556 S
C1494 N1502 1.356 . S
C1495 C1494 1.363 . S
C1495 C1501 1.363 . S
C1496 C1497 1.363 . S
C1496 C1501 1.379 1_554 S
C1496 N1503 1.356 . S
C1497 C1496 1.363 . S
C1497 C1500 1.363 . S
N1498 C1500 1.356 . S
N1498 H1510 0.984 . S
N1498 H1511 0.985 . S
N1499 C1501 1.356 . S
N1499 H1504 0.984 . S
N1499 H1505 0.985 . S
C1500 C1494 1.379 1_554 S
C1500 C1497 1.363 . S
C1500 N1498 1.356 . S
C1501 C1495 1.363 . S
C1501 C1496 1.379 1_556 S
C1501 N1499 1.356 . S
N1502 C1494 1.356 . S
N1502 H1508 0.984 . S
N1502 H1509 0.984 . S
N1503 C1496 1.356 . S
N1503 H1506 0.984 . S
N1503 H1507 0.985 . S
H1504 N1499 0.984 . S
H1505 N1499 0.985 . S
H1506 N1503 0.984 . S
H1507 N1503 0.985 . S
H1508 N1502 0.984 . S
H1509 N1502 0.984 . S
H1510 N1498 0.984 . S
H1511 N1498 0.985 . S
C1512 C1513 1.363 . S
C1512 C1518 1.379 . S
C1512 N1520 1.356 . S
C1513 C1512 1.363 . S
C1513 C1519 1.363 . S
C1514 C1515 1.363 . S
C1514 C1519 1.379 . S
C1514 N1521 1.356 . S
C1515 C1514 1.363 . S
C1515 C1518 1.363 . S
N1516 C1518 1.356 . S
N1516 H1528 0.984 . S
N1516 H1529 0.985 . S
N1517 C1519 1.356 . S
N1517 H1522 0.984 . S
N1517 H1523 0.985 . S
C1518 C1512 1.379 . S
C1518 C1515 1.363 . S
C1518 N1516 1.356 . S
C1519 C1513 1.363 . S
C1519 C1514 1.379 . S
C1519 N1517 1.356 . S
N1520 C1512 1.356 . S
N1520 H1526 0.984 . S
N1520 H1527 0.984 . S
N1521 C1514 1.356 . S
N1521 H1524 0.984 . S
N1521 H1525 0.985 . S
H1522 N1517 0.984 . S
H1523 N1517 0.985 . S
H1524 N1521 0.984 . S
H1525 N1521 0.985 . S
H1526 N1520 0.984 . S
H1527 N1520 0.984 . S
H1528 N1516 0.984 . S
H1529 N1516 0.985 . S
C1530 C1531 1.363 . S
C1530 C1536 1.379 . S
C1530 N1538 1.356 . S
C1531 C1530 1.363 . S
C1531 C1537 1.363 . S
C1532 C1533 1.363 . S
C1532 C1537 1.379 . S
C1532 N1539 1.356 . S
C1533 C1532 1.363 . S
C1533 C1536 1.363 . S
N1534 C1536 1.356 . S
N1534 H1546 0.984 . S
N1534 H1547 0.985 . S
N1535 C1537 1.356 . S
N1535 H1540 0.984 . S
N1535 H1541 0.985 . S
C1536 C1530 1.379 . S
C1536 C1533 1.363 . S
C1536 N1534 1.356 . S
C1537 C1531 1.363 . S
C1537 C1532 1.379 . S
C1537 N1535 1.356 . S
N1538 C1530 1.356 . S
N1538 H1544 0.984 . S
N1538 H1545 0.984 . S
N1539 C1532 1.356 . S
N1539 H1542 0.984 . S
N1539 H1543 0.985 . S
H1540 N1535 0.984 . S
H1541 N1535 0.985 . S
H1542 N1539 0.984 . S
H1543 N1539 0.985 . S
H1544 N1538 0.984 . S
H1545 N1538 0.984 . S
H1546 N1534 0.984 . S
H1547 N1534 0.985 . S
C1548 C1549 1.363 . S
C1548 C1554 1.379 . S
C1548 N1556 1.356 . S
C1549 C1548 1.363 . S
C1549 C1555 1.363 . S
C1550 C1551 1.363 . S
C1550 C1555 1.379 . S
C1550 N1557 1.356 . S
C1551 C1550 1.363 . S
C1551 C1554 1.363 . S
N1552 C1554 1.356 . S
N1552 H1564 0.984 . S
N1552 H1565 0.985 . S
N1553 C1555 1.356 . S
N1553 H1558 0.984 . S
N1553 H1559 0.985 . S
C1554 C1548 1.379 . S
C1554 C1551 1.363 . S
C1554 N1552 1.356 . S
C1555 C1549 1.363 . S
C1555 C1550 1.379 . S
C1555 N1553 1.356 . S
N1556 C1548 1.356 . S
N1556 H1562 0.984 . S
N1556 H1563 0.984 . S
N1557 C1550 1.356 . S
N1557 H1560 0.984 . S
N1557 H1561 0.985 . S
H1558 N1553 0.984 . S
H1559 N1553 0.985 . S
H1560 N1557 0.984 . S
H1561 N1557 0.985 . S
H1562 N1556 0.984 . S
H1563 N1556 0.984 . S
H1564 N1552 0.984 . S
H1565 N1552 0.985 . S
C1566 C1567 1.363 . S
C1566 C1572 1.379 . S
C1566 N1574 1.356 . S
C1567 C1566 1.363 . S
C1567 C1573 1.363 . S
C1568 C1569 1.363 . S
C1568 C1573 1.379 . S
C1568 N1575 1.356 . S
C1569 C1568 1.363 . S
C1569 C1572 1.363 . S
N1570 C1572 1.356 . S
N1570 H1582 0.984 . S
N1570 H1583 0.985 . S
N1571 C1573 1.356 . S
N1571 H1576 0.984 . S
N1571 H1577 0.985 . S
C1572 C1566 1.379 . S
C1572 C1569 1.363 . S
C1572 N1570 1.356 . S
C1573 C1567 1.363 . S
C1573 C1568 1.379 . S
C1573 N1571 1.356 . S
N1574 C1566 1.356 . S
N1574 H1580 0.984 . S
N1574 H1581 0.984 . S
N1575 C1568 1.356 . S
N1575 H1578 0.984 . S
N1575 H1579 0.985 . S
H1576 N1571 0.984 . S
H1577 N1571 0.985 . S
H1578 N1575 0.984 . S
H1579 N1575 0.985 . S
H1580 N1574 0.984 . S
H1581 N1574 0.984 . S
H1582 N1570 0.984 . S
H1583 N1570 0.985 . S
C1584 C1585 1.363 . S
C1584 C1590 1.379 . S
C1584 N1592 1.356 . S
C1585 C1584 1.363 . S
C1585 C1591 1.363 . S
C1586 C1587 1.363 . S
C1586 C1591 1.379 . S
C1586 N1593 1.356 . S
C1587 C1586 1.363 . S
C1587 C1590 1.363 . S
N1588 C1590 1.356 . S
N1588 H1600 0.984 . S
N1588 H1601 0.985 . S
N1589 C1591 1.356 . S
N1589 H1594 0.984 . S
N1589 H1595 0.985 . S
C1590 C1584 1.379 . S
C1590 C1587 1.363 . S
C1590 N1588 1.356 . S
C1591 C1585 1.363 . S
C1591 C1586 1.379 . S
C1591 N1589 1.356 . S
N1592 C1584 1.356 . S
N1592 H1598 0.984 . S
N1592 H1599 0.984 . S
N1593 C1586 1.356 . S
N1593 H1596 0.984 . S
N1593 H1597 0.985 . S
H1594 N1589 0.984 . S
H1595 N1589 0.985 . S
H1596 N1593 0.984 . S
H1597 N1593 0.985 . S
H1598 N1592 0.984 . S
H1599 N1592 0.984 . S
H1600 N1588 0.984 . S
H1601 N1588 0.985 . S
C1602 C1603 1.363 . S
C1602 C1608 1.379 . S
C1602 N1610 1.356 . S
C1603 C1602 1.363 . S
C1603 C1609 1.363 . S
C1604 C1605 1.363 . S
C1604 C1609 1.379 . S
C1604 N1611 1.356 . S
C1605 C1604 1.363 . S
C1605 C1608 1.363 . S
N1606 C1608 1.356 . S
N1606 H1618 0.984 . S
N1606 H1619 0.985 . S
N1607 C1609 1.356 . S
N1607 H1612 0.984 . S
N1607 H1613 0.985 . S
C1608 C1602 1.379 . S
C1608 C1605 1.363 . S
C1608 N1606 1.356 . S
C1609 C1603 1.363 . S
C1609 C1604 1.379 . S
C1609 N1607 1.356 . S
N1610 C1602 1.356 . S
N1610 H1616 0.984 . S
N1610 H1617 0.984 . S
N1611 C1604 1.356 . S
N1611 H1614 0.984 . S
N1611 H1615 0.985 . S
H1612 N1607 0.984 . S
H1613 N1607 0.985 . S
H1614 N1611 0.984 . S
H1615 N1611 0.985 . S
H1616 N1610 0.984 . S
H1617 N1610 0.984 . S
H1618 N1606 0.984 . S
H1619 N1606 0.985 . S
C1620 C1621 1.363 . S
C1620 C1626 1.379 . S
C1620 N1628 1.356 . S
C1621 C1620 1.363 . S
C1621 C1627 1.363 . S
C1622 C1623 1.363 . S
C1622 C1627 1.379 . S
C1622 N1629 1.356 . S
C1623 C1622 1.363 . S
C1623 C1626 1.363 . S
N1624 C1626 1.356 . S
N1624 H1636 0.984 . S
N1624 H1637 0.985 . S
N1625 C1627 1.356 . S
N1625 H1630 0.984 . S
N1625 H1631 0.985 . S
C1626 C1620 1.379 . S
C1626 C1623 1.363 . S
C1626 N1624 1.356 . S
C1627 C1621 1.363 . S
C1627 C1622 1.379 . S
C1627 N1625 1.356 . S
N1628 C1620 1.356 . S
N1628 H1634 0.984 . S
N1628 H1635 0.984 . S
N1629 C1622 1.356 . S
N1629 H1632 0.984 . S
N1629 H1633 0.985 . S
H1630 N1625 0.984 . S
H1631 N1625 0.985 . S
H1632 N1629 0.984 . S
H1633 N1629 0.985 . S
H1634 N1628 0.984 . S
H1635 N1628 0.984 . S
H1636 N1624 0.984 . S
H1637 N1624 0.985 . S
C1638 C1639 1.363 . S
C1638 C1644 1.379 . S
C1638 N1646 1.356 . S
C1639 C1638 1.363 . S
C1639 C1645 1.363 . S
C1640 C1641 1.363 . S
C1640 C1645 1.379 . S
C1640 N1647 1.356 . S
C1641 C1640 1.363 . S
C1641 C1644 1.363 . S
N1642 C1644 1.356 . S
N1642 H1654 0.984 . S
N1642 H1655 0.985 . S
N1643 C1645 1.356 . S
N1643 H1648 0.984 . S
N1643 H1649 0.985 . S
C1644 C1638 1.379 . S
C1644 C1641 1.363 . S
C1644 N1642 1.356 . S
C1645 C1639 1.363 . S
C1645 C1640 1.379 . S
C1645 N1643 1.356 . S
N1646 C1638 1.356 . S
N1646 H1652 0.984 . S
N1646 H1653 0.984 . S
N1647 C1640 1.356 . S
N1647 H1650 0.984 . S
N1647 H1651 0.985 . S
H1648 N1643 0.984 . S
H1649 N1643 0.985 . S
H1650 N1647 0.984 . S
H1651 N1647 0.985 . S
H1652 N1646 0.984 . S
H1653 N1646 0.984 . S
H1654 N1642 0.984 . S
H1655 N1642 0.985 . S
C1656 C1657 1.363 . S
C1656 C1662 1.379 1_556 S
C1656 N1664 1.356 . S
C1657 C1656 1.363 . S
C1657 C1663 1.363 . S
C1658 C1659 1.363 . S
C1658 C1663 1.379 1_554 S
C1658 N1665 1.356 . S
C1659 C1658 1.363 . S
C1659 C1662 1.363 . S
N1660 C1662 1.356 . S
N1660 H1672 0.984 . S
N1660 H1673 0.985 . S
N1661 C1663 1.356 . S
N1661 H1666 0.984 . S
N1661 H1667 0.985 . S
C1662 C1656 1.379 1_554 S
C1662 C1659 1.363 . S
C1662 N1660 1.356 . S
C1663 C1657 1.363 . S
C1663 C1658 1.379 1_556 S
C1663 N1661 1.356 . S
N1664 C1656 1.356 . S
N1664 H1670 0.984 . S
N1664 H1671 0.984 . S
N1665 C1658 1.356 . S
N1665 H1668 0.984 . S
N1665 H1669 0.985 . S
H1666 N1661 0.984 . S
H1667 N1661 0.985 . S
H1668 N1665 0.984 . S
H1669 N1665 0.985 . S
H1670 N1664 0.984 . S
H1671 N1664 0.984 . S
H1672 N1660 0.984 . S
H1673 N1660 0.985 . S
C1674 C1675 1.363 . S
C1674 C1680 1.379 1_554 S
C1674 N1682 1.356 . S
C1675 C1674 1.363 . S
C1675 C1681 1.363 . S
C1676 C1677 1.363 . S
C1676 C1681 1.379 1_556 S
C1676 N1683 1.356 . S
C1677 C1676 1.363 . S
C1677 C1680 1.363 . S
N1678 C1680 1.356 . S
N1678 H1690 0.984 . S
N1678 H1691 0.985 . S
N1679 C1681 1.356 . S
N1679 H1684 0.984 . S
N1679 H1685 0.985 . S
C1680 C1674 1.379 1_556 S
C1680 C1677 1.363 . S
C1680 N1678 1.356 . S
C1681 C1675 1.363 . S
C1681 C1676 1.379 1_554 S
C1681 N1679 1.356 . S
N1682 C1674 1.356 . S
N1682 H1688 0.984 . S
N1682 H1689 0.984 . S
N1683 C1676 1.356 . S
N1683 H1686 0.984 . S
N1683 H1687 0.985 . S
H1684 N1679 0.984 . S
H1685 N1679 0.985 . S
H1686 N1683 0.984 . S
H1687 N1683 0.985 . S
H1688 N1682 0.984 . S
H1689 N1682 0.984 . S
H1690 N1678 0.984 . S
H1691 N1678 0.985 . S
C1692 C1693 1.363 . S
C1692 C1698 1.379 1_554 S
C1692 N1700 1.356 . S
C1693 C1692 1.363 . S
C1693 C1699 1.363 . S
C1694 C1695 1.363 . S
C1694 C1699 1.379 1_556 S
C1694 N1701 1.356 . S
C1695 C1694 1.363 . S
C1695 C1698 1.363 . S
N1696 C1698 1.356 . S
N1696 H1708 0.984 . S
N1696 H1709 0.985 . S
N1697 C1699 1.356 . S
N1697 H1702 0.984 . S
N1697 H1703 0.985 . S
C1698 C1692 1.379 1_556 S
C1698 C1695 1.363 . S
C1698 N1696 1.356 . S
C1699 C1693 1.363 . S
C1699 C1694 1.379 1_554 S
C1699 N1697 1.356 . S
N1700 C1692 1.356 . S
N1700 H1706 0.984 . S
N1700 H1707 0.984 . S
N1701 C1694 1.356 . S
N1701 H1704 0.984 . S
N1701 H1705 0.985 . S
H1702 N1697 0.984 . S
H1703 N1697 0.985 . S
H1704 N1701 0.984 . S
H1705 N1701 0.985 . S
H1706 N1700 0.984 . S
H1707 N1700 0.984 . S
H1708 N1696 0.984 . S
H1709 N1696 0.985 . S
C1710 C1711 1.363 . S
C1710 C1716 1.379 1_556 S
C1710 N1718 1.356 . S
C1711 C1710 1.363 . S
C1711 C1717 1.363 . S
C1712 C1713 1.363 . S
C1712 C1717 1.379 1_554 S
C1712 N1719 1.356 . S
C1713 C1712 1.363 . S
C1713 C1716 1.363 . S
N1714 C1716 1.356 . S
N1714 H1726 0.984 . S
N1714 H1727 0.985 . S
N1715 C1717 1.356 . S
N1715 H1720 0.984 . S
N1715 H1721 0.985 . S
C1716 C1710 1.379 1_554 S
C1716 C1713 1.363 . S
C1716 N1714 1.356 . S
C1717 C1711 1.363 . S
C1717 C1712 1.379 1_556 S
C1717 N1715 1.356 . S
N1718 C1710 1.356 . S
N1718 H1724 0.984 . S
N1718 H1725 0.984 . S
N1719 C1712 1.356 . S
N1719 H1722 0.984 . S
N1719 H1723 0.985 . S
H1720 N1715 0.984 . S
H1721 N1715 0.985 . S
H1722 N1719 0.984 . S
H1723 N1719 0.985 . S
H1724 N1718 0.984 . S
H1725 N1718 0.984 . S
H1726 N1714 0.984 . S
H1727 N1714 0.985 . S
C1728 C1729 1.363 . S
C1728 C1734 1.355 1_545 S
C1728 N1736 1.356 . S
C1729 C1728 1.363 . S
C1729 C1735 1.387 . S
C1730 C1731 1.363 . S
C1730 C1735 1.355 1_565 S
C1730 N1737 1.356 . S
C1731 C1730 1.363 . S
C1731 C1734 1.387 . S
N1732 C1734 1.365 . S
N1732 H1744 0.984 1_565 S
N1732 H1745 0.985 . S
N1733 C1735 1.365 . S
N1733 H1738 0.984 . S
N1733 H1739 0.985 1_545 S
C1734 C1728 1.355 1_565 S
C1734 C1731 1.387 . S
C1734 N1732 1.365 . S
C1735 C1729 1.387 . S
C1735 C1730 1.355 1_545 S
C1735 N1733 1.365 . S
N1736 C1728 1.356 . S
N1736 H1742 0.984 . S
N1736 H1743 0.984 . S
N1737 C1730 1.356 . S
N1737 H1740 0.984 . S
N1737 H1741 0.985 . S
H1738 N1733 0.984 . S
H1739 N1733 0.985 1_565 S
H1740 N1737 0.984 . S
H1741 N1737 0.985 . S
H1742 N1736 0.984 . S
H1743 N1736 0.984 . S
H1744 N1732 0.984 1_545 S
H1745 N1732 0.985 . S
C1746 C1747 1.363 . S
C1746 C1752 1.379 1_655 S
C1746 N1754 1.356 . S
C1747 C1746 1.363 . S
C1747 C1753 1.363 . S
C1748 C1749 1.363 . S
C1748 C1753 1.379 1_455 S
C1748 N1755 1.356 . S
C1749 C1748 1.363 . S
C1749 C1752 1.363 . S
N1750 C1752 1.356 . S
N1750 H1762 0.984 . S
N1750 H1763 0.985 . S
N1751 C1753 1.356 . S
N1751 H1756 0.984 . S
N1751 H1757 0.985 . S
C1752 C1746 1.379 1_455 S
C1752 C1749 1.363 . S
C1752 N1750 1.356 . S
C1753 C1747 1.363 . S
C1753 C1748 1.379 1_655 S
C1753 N1751 1.356 . S
N1754 C1746 1.356 . S
N1754 H1760 0.984 . S
N1754 H1761 0.984 . S
N1755 C1748 1.356 . S
N1755 H1758 0.984 . S
N1755 H1759 0.985 . S
H1756 N1751 0.984 . S
H1757 N1751 0.985 . S
H1758 N1755 0.984 . S
H1759 N1755 0.985 . S
H1760 N1754 0.984 . S
H1761 N1754 0.984 . S
H1762 N1750 0.984 . S
H1763 N1750 0.985 . S
C1764 C1765 1.363 . S
C1764 C1770 1.379 . S
C1764 N1772 1.356 . S
C1765 C1764 1.363 . S
C1765 C1771 1.363 1_545 S
C1766 C1767 1.363 . S
C1766 C1771 1.379 . S
C1766 N1773 1.356 . S
C1767 C1766 1.363 . S
C1767 C1770 1.363 1_565 S
N1768 C1770 1.356 1_565 S
N1768 H1780 0.984 1_565 S
N1768 H1781 0.985 . S
N1769 C1771 1.356 1_545 S
N1769 H1774 0.984 . S
N1769 H1775 0.985 1_545 S
C1770 C1764 1.379 . S
C1770 C1767 1.363 1_545 S
C1770 N1768 1.356 1_545 S
C1771 C1765 1.363 1_565 S
C1771 C1766 1.379 . S
C1771 N1769 1.356 1_565 S
N1772 C1764 1.356 . S
N1772 H1778 0.984 . S
N1772 H1779 0.984 . S
N1773 C1766 1.356 . S
N1773 H1776 0.984 . S
N1773 H1777 0.985 . S
H1774 N1769 0.984 . S
H1775 N1769 0.985 1_565 S
H1776 N1773 0.984 . S
H1777 N1773 0.985 . S
H1778 N1772 0.984 . S
H1779 N1772 0.984 . S
H1780 N1768 0.984 1_545 S
H1781 N1768 0.985 . S
C1782 C1783 1.363 . S
C1782 C1788 1.379 1_455 S
C1782 N1790 1.356 . S
C1783 C1782 1.363 . S
C1783 C1789 1.363 . S
C1784 C1785 1.363 . S
C1784 C1789 1.379 1_655 S
C1784 N1791 1.356 . S
C1785 C1784 1.363 . S
C1785 C1788 1.363 . S
N1786 C1788 1.356 . S
N1786 H1798 0.984 . S
N1786 H1799 0.985 . S
N1787 C1789 1.356 . S
N1787 H1792 0.984 . S
N1787 H1793 0.985 . S
C1788 C1782 1.379 1_655 S
C1788 C1785 1.363 . S
C1788 N1786 1.356 . S
C1789 C1783 1.363 . S
C1789 C1784 1.379 1_455 S
C1789 N1787 1.356 . S
N1790 C1782 1.356 . S
N1790 H1796 0.984 . S
N1790 H1797 0.984 . S
N1791 C1784 1.356 . S
N1791 H1794 0.984 . S
N1791 H1795 0.985 . S
H1792 N1787 0.984 . S
H1793 N1787 0.985 . S
H1794 N1791 0.984 . S
H1795 N1791 0.985 . S
H1796 N1790 0.984 . S
H1797 N1790 0.984 . S
H1798 N1786 0.984 . S
H1799 N1786 0.985 . S
C1800 C1801 1.363 . S
C1800 C1806 1.379 1_565 S
C1800 N1808 1.356 . S
C1801 C1800 1.363 . S
C1801 C1807 1.363 . S
C1802 C1803 1.363 . S
C1802 C1807 1.379 1_545 S
C1802 N1809 1.356 . S
C1803 C1802 1.363 . S
C1803 C1806 1.363 . S
N1804 C1806 1.356 . S
N1804 H1816 0.984 . S
N1804 H1817 0.985 . S
N1805 C1807 1.356 . S
N1805 H1810 0.984 . S
N1805 H1811 0.985 . S
C1806 C1800 1.379 1_545 S
C1806 C1803 1.363 . S
C1806 N1804 1.356 . S
C1807 C1801 1.363 . S
C1807 C1802 1.379 1_565 S
C1807 N1805 1.356 . S
N1808 C1800 1.356 . S
N1808 H1814 0.985 1_565 S
N1808 H1815 0.984 . S
N1809 C1802 1.356 . S
N1809 H1812 0.984 . S
N1809 H1813 0.985 1_545 S
H1810 N1805 0.984 . S
H1811 N1805 0.985 . S
H1812 N1809 0.984 . S
H1813 N1809 0.985 1_565 S
H1814 N1808 0.985 1_545 S
H1815 N1808 0.984 . S
H1816 N1804 0.984 . S
H1817 N1804 0.985 . S
C1818 C1819 1.363 . S
C1818 C1824 1.379 1_655 S
C1818 N1826 1.356 . S
C1819 C1818 1.363 . S
C1819 C1825 1.363 . S
C1820 C1821 1.363 . S
C1820 C1825 1.379 1_455 S
C1820 N1827 1.356 . S
C1821 C1820 1.363 . S
C1821 C1824 1.363 . S
N1822 C1824 1.356 . S
N1822 H1834 0.984 . S
N1822 H1835 0.985 . S
N1823 C1825 1.356 . S
N1823 H1828 0.984 . S
N1823 H1829 0.985 . S
C1824 C1818 1.379 1_455 S
C1824 C1821 1.363 . S
C1824 N1822 1.356 . S
C1825 C1819 1.363 . S
C1825 C1820 1.379 1_655 S
C1825 N1823 1.356 . S
N1826 C1818 1.356 . S
N1826 H1832 0.984 . S
N1826 H1833 0.984 . S
N1827 C1820 1.356 . S
N1827 H1830 0.984 . S
N1827 H1831 0.985 . S
H1828 N1823 0.984 . S
H1829 N1823 0.985 . S
H1830 N1827 0.984 . S
H1831 N1827 0.985 . S
H1832 N1826 0.984 . S
H1833 N1826 0.984 . S
H1834 N1822 0.984 . S
H1835 N1822 0.985 . S
C1836 C1837 1.367 1_545 S
C1836 C1842 1.375 . S
C1836 N1844 1.357 1_545 S
C1837 C1836 1.367 1_565 S
C1837 C1843 1.363 . S
C1838 C1839 1.367 1_565 S
C1838 C1843 1.375 . S
C1838 N1845 1.357 1_565 S
C1839 C1838 1.367 1_545 S
C1839 C1842 1.363 . S
N1840 C1842 1.356 . S
N1840 H1852 0.984 . S
N1840 H1853 0.985 . S
N1841 C1843 1.356 . S
N1841 H1846 0.984 . S
N1841 H1847 0.985 . S
C1842 C1836 1.375 . S
C1842 C1839 1.363 . S
C1842 N1840 1.356 . S
C1843 C1837 1.363 . S
C1843 C1838 1.375 . S
C1843 N1841 1.356 . S
N1844 C1836 1.357 1_565 S
N1844 H1850 0.984 1_565 S
N1844 H1851 0.984 . S
N1845 C1838 1.357 1_545 S
N1845 H1848 0.984 . S
N1845 H1849 0.985 1_545 S
H1846 N1841 0.984 . S
H1847 N1841 0.985 . S
H1848 N1845 0.984 . S
H1849 N1845 0.985 1_565 S
H1850 N1844 0.984 1_545 S
H1851 N1844 0.984 . S
H1852 N1840 0.984 . S
H1853 N1840 0.985 . S
C1854 C1855 1.363 . S
C1854 C1860 1.379 1_655 S
C1854 N1862 1.356 . S
C1855 C1854 1.363 . S
C1855 C1861 1.363 . S
C1856 C1857 1.363 . S
C1856 C1861 1.379 1_455 S
C1856 N1863 1.356 . S
C1857 C1856 1.363 . S
C1857 C1860 1.363 . S
N1858 C1860 1.356 . S
N1858 H1870 0.984 . S
N1858 H1871 0.985 . S
N1859 C1861 1.356 . S
N1859 H1864 0.984 . S
N1859 H1865 0.985 . S
C1860 C1854 1.379 1_455 S
C1860 C1857 1.363 . S
C1860 N1858 1.356 . S
C1861 C1855 1.363 . S
C1861 C1856 1.379 1_655 S
C1861 N1859 1.356 . S
N1862 C1854 1.356 . S
N1862 H1868 0.984 . S
N1862 H1869 0.984 . S
N1863 C1856 1.356 . S
N1863 H1866 0.984 . S
N1863 H1867 0.985 . S
H1864 N1859 0.984 . S
H1865 N1859 0.985 . S
H1866 N1863 0.984 . S
H1867 N1863 0.985 . S
H1868 N1862 0.984 . S
H1869 N1862 0.984 . S
H1870 N1858 0.984 . S
H1871 N1858 0.985 . S
C1872 C1873 1.363 . S
C1872 C1878 1.379 . S
C1872 N1880 1.356 . S
C1873 C1872 1.363 . S
C1873 C1879 1.363 . S
C1874 C1875 1.363 . S
C1874 C1879 1.379 . S
C1874 N1881 1.356 . S
C1875 C1874 1.363 . S
C1875 C1878 1.363 . S
N1876 C1878 1.356 . S
N1876 H1888 0.984 . S
N1876 H1889 0.985 . S
N1877 C1879 1.356 . S
N1877 H1882 0.984 . S
N1877 H1883 0.985 . S
C1878 C1872 1.379 . S
C1878 C1875 1.363 . S
C1878 N1876 1.356 . S
C1879 C1873 1.363 . S
C1879 C1874 1.379 . S
C1879 N1877 1.356 . S
N1880 C1872 1.356 . S
N1880 H1886 0.984 . S
N1880 H1887 0.984 . S
N1881 C1874 1.356 . S
N1881 H1884 0.984 . S
N1881 H1885 0.985 . S
H1882 N1877 0.984 . S
H1883 N1877 0.985 . S
H1884 N1881 0.984 . S
H1885 N1881 0.985 . S
H1886 N1880 0.984 . S
H1887 N1880 0.984 . S
H1888 N1876 0.984 . S
H1889 N1876 0.985 . S
C1890 C1891 1.363 . S
C1890 C1896 1.379 . S
C1890 N1898 1.356 . S
C1891 C1890 1.363 . S
C1891 C1897 1.363 . S
C1892 C1893 1.363 . S
C1892 C1897 1.379 . S
C1892 N1899 1.356 . S
C1893 C1892 1.363 . S
C1893 C1896 1.363 . S
N1894 C1896 1.356 . S
N1894 H1906 0.984 . S
N1894 H1907 0.985 . S
N1895 C1897 1.356 . S
N1895 H1900 0.984 . S
N1895 H1901 0.985 . S
C1896 C1890 1.379 . S
C1896 C1893 1.363 . S
C1896 N1894 1.356 . S
C1897 C1891 1.363 . S
C1897 C1892 1.379 . S
C1897 N1895 1.356 . S
N1898 C1890 1.356 . S
N1898 H1904 0.984 . S
N1898 H1905 0.984 . S
N1899 C1892 1.356 . S
N1899 H1902 0.984 . S
N1899 H1903 0.985 . S
H1900 N1895 0.984 . S
H1901 N1895 0.985 . S
H1902 N1899 0.984 . S
H1903 N1899 0.985 . S
H1904 N1898 0.984 . S
H1905 N1898 0.984 . S
H1906 N1894 0.984 . S
H1907 N1894 0.985 . S
C1908 C1909 1.363 . S
C1908 C1914 1.379 . S
C1908 N1916 1.356 . S
C1909 C1908 1.363 . S
C1909 C1915 1.363 . S
C1910 C1911 1.363 . S
C1910 C1915 1.379 . S
C1910 N1917 1.356 . S
C1911 C1910 1.363 . S
C1911 C1914 1.363 . S
N1912 C1914 1.356 . S
N1912 H1924 0.984 . S
N1912 H1925 0.985 . S
N1913 C1915 1.356 . S
N1913 H1918 0.984 . S
N1913 H1919 0.985 . S
C1914 C1908 1.379 . S
C1914 C1911 1.363 . S
C1914 N1912 1.356 . S
C1915 C1909 1.363 . S
C1915 C1910 1.379 . S
C1915 N1913 1.356 . S
N1916 C1908 1.356 . S
N1916 H1922 0.984 . S
N1916 H1923 0.984 . S
N1917 C1910 1.356 . S
N1917 H1920 0.984 . S
N1917 H1921 0.985 . S
H1918 N1913 0.984 . S
H1919 N1913 0.985 . S
H1920 N1917 0.984 . S
H1921 N1917 0.985 . S
H1922 N1916 0.984 . S
H1923 N1916 0.984 . S
H1924 N1912 0.984 . S
H1925 N1912 0.985 . S
C1926 C1927 1.363 . S
C1926 C1932 1.379 . S
C1926 N1934 1.356 . S
C1927 C1926 1.363 . S
C1927 C1933 1.363 . S
C1928 C1929 1.363 . S
C1928 C1933 1.379 . S
C1928 N1935 1.356 . S
C1929 C1928 1.363 . S
C1929 C1932 1.363 . S
N1930 C1932 1.356 . S
N1930 H1942 0.984 . S
N1930 H1943 0.985 . S
N1931 C1933 1.356 . S
N1931 H1936 0.984 . S
N1931 H1937 0.985 . S
C1932 C1926 1.379 . S
C1932 C1929 1.363 . S
C1932 N1930 1.356 . S
C1933 C1927 1.363 . S
C1933 C1928 1.379 . S
C1933 N1931 1.356 . S
N1934 C1926 1.356 . S
N1934 H1940 0.984 . S
N1934 H1941 0.984 . S
N1935 C1928 1.356 . S
N1935 H1938 0.984 . S
N1935 H1939 0.985 . S
H1936 N1931 0.984 . S
H1937 N1931 0.985 . S
H1938 N1935 0.984 . S
H1939 N1935 0.985 . S
H1940 N1934 0.984 . S
H1941 N1934 0.984 . S
H1942 N1930 0.984 . S
H1943 N1930 0.985 . S
C1944 C1945 1.363 . S
C1944 C1950 1.379 . S
C1944 N1952 1.356 . S
C1945 C1944 1.363 . S
C1945 C1951 1.363 . S
C1946 C1947 1.363 . S
C1946 C1951 1.379 . S
C1946 N1953 1.356 . S
C1947 C1946 1.363 . S
C1947 C1950 1.363 . S
N1948 C1950 1.356 . S
N1948 H1960 0.984 . S
N1948 H1961 0.985 . S
N1949 C1951 1.356 . S
N1949 H1954 0.984 . S
N1949 H1955 0.985 . S
C1950 C1944 1.379 . S
C1950 C1947 1.363 . S
C1950 N1948 1.356 . S
C1951 C1945 1.363 . S
C1951 C1946 1.379 . S
C1951 N1949 1.356 . S
N1952 C1944 1.356 . S
N1952 H1958 0.984 . S
N1952 H1959 0.984 . S
N1953 C1946 1.356 . S
N1953 H1956 0.984 . S
N1953 H1957 0.985 . S
H1954 N1949 0.984 . S
H1955 N1949 0.985 . S
H1956 N1953 0.984 . S
H1957 N1953 0.985 . S
H1958 N1952 0.984 . S
H1959 N1952 0.984 . S
H1960 N1948 0.984 . S
H1961 N1948 0.985 . S
C1962 C1963 1.363 . S
C1962 C1968 1.379 . S
C1962 N1970 1.356 . S
C1963 C1962 1.363 . S
C1963 C1969 1.363 . S
C1964 C1965 1.363 . S
C1964 C1969 1.379 . S
C1964 N1971 1.356 . S
C1965 C1964 1.363 . S
C1965 C1968 1.363 . S
N1966 C1968 1.356 . S
N1966 H1978 0.984 . S
N1966 H1979 0.985 . S
N1967 C1969 1.356 . S
N1967 H1972 0.984 . S
N1967 H1973 0.985 . S
C1968 C1962 1.379 . S
C1968 C1965 1.363 . S
C1968 N1966 1.356 . S
C1969 C1963 1.363 . S
C1969 C1964 1.379 . S
C1969 N1967 1.356 . S
N1970 C1962 1.356 . S
N1970 H1976 0.984 . S
N1970 H1977 0.984 . S
N1971 C1964 1.356 . S
N1971 H1974 0.984 . S
N1971 H1975 0.985 . S
H1972 N1967 0.984 . S
H1973 N1967 0.985 . S
H1974 N1971 0.984 . S
H1975 N1971 0.985 . S
H1976 N1970 0.984 . S
H1977 N1970 0.984 . S
H1978 N1966 0.984 . S
H1979 N1966 0.985 . S
C1980 C1981 1.363 . S
C1980 C1986 1.379 . S
C1980 N1988 1.356 . S
C1981 C1980 1.363 . S
C1981 C1987 1.363 . S
C1982 C1983 1.363 . S
C1982 C1987 1.379 . S
C1982 N1989 1.356 . S
C1983 C1982 1.363 . S
C1983 C1986 1.363 . S
N1984 C1986 1.356 . S
N1984 H1996 0.984 . S
N1984 H1997 0.985 . S
N1985 C1987 1.356 . S
N1985 H1990 0.984 . S
N1985 H1991 0.985 . S
C1986 C1980 1.379 . S
C1986 C1983 1.363 . S
C1986 N1984 1.356 . S
C1987 C1981 1.363 . S
C1987 C1982 1.379 . S
C1987 N1985 1.356 . S
N1988 C1980 1.356 . S
N1988 H1994 0.984 . S
N1988 H1995 0.984 . S
N1989 C1982 1.356 . S
N1989 H1992 0.984 . S
N1989 H1993 0.985 . S
H1990 N1985 0.984 . S
H1991 N1985 0.985 . S
H1992 N1989 0.984 . S
H1993 N1989 0.985 . S
H1994 N1988 0.984 . S
H1995 N1988 0.984 . S
H1996 N1984 0.984 . S
H1997 N1984 0.985 . S
C1998 C1999 1.363 . S
C1998 C2004 1.379 . S
C1998 N2006 1.356 . S
C1999 C1998 1.363 . S
C1999 C2005 1.363 . S
C2000 C2001 1.363 . S
C2000 C2005 1.379 . S
C2000 N2007 1.356 . S
C2001 C2000 1.363 . S
C2001 C2004 1.363 . S
N2002 C2004 1.356 . S
N2002 H2014 0.984 . S
N2002 H2015 0.985 . S
N2003 C2005 1.356 . S
N2003 H2008 0.984 . S
N2003 H2009 0.985 . S
C2004 C1998 1.379 . S
C2004 C2001 1.363 . S
C2004 N2002 1.356 . S
C2005 C1999 1.363 . S
C2005 C2000 1.379 . S
C2005 N2003 1.356 . S
N2006 C1998 1.356 . S
N2006 H2012 0.984 . S
N2006 H2013 0.984 . S
N2007 C2000 1.356 . S
N2007 H2010 0.984 . S
N2007 H2011 0.985 . S
H2008 N2003 0.984 . S
H2009 N2003 0.985 . S
H2010 N2007 0.984 . S
H2011 N2007 0.985 . S
H2012 N2006 0.984 . S
H2013 N2006 0.984 . S
H2014 N2002 0.984 . S
H2015 N2002 0.985 . S
C2016 C2017 1.363 . S
C2016 C2022 1.379 . S
C2016 N2024 1.356 . S
C2017 C2016 1.363 . S
C2017 C2023 1.363 . S
C2018 C2019 1.363 . S
C2018 C2023 1.379 . S
C2018 N2025 1.356 . S
C2019 C2018 1.363 . S
C2019 C2022 1.363 . S
N2020 C2022 1.356 . S
N2020 H2032 0.984 . S
N2020 H2033 0.985 . S
N2021 C2023 1.356 . S
N2021 H2026 0.984 . S
N2021 H2027 0.985 . S
C2022 C2016 1.379 . S
C2022 C2019 1.363 . S
C2022 N2020 1.356 . S
C2023 C2017 1.363 . S
C2023 C2018 1.379 . S
C2023 N2021 1.356 . S
N2024 C2016 1.356 . S
N2024 H2030 0.984 . S
N2024 H2031 0.984 . S
N2025 C2018 1.356 . S
N2025 H2028 0.984 . S
N2025 H2029 0.985 . S
H2026 N2021 0.984 . S
H2027 N2021 0.985 . S
H2028 N2025 0.984 . S
H2029 N2025 0.985 . S
H2030 N2024 0.984 . S
H2031 N2024 0.984 . S
H2032 N2020 0.984 . S
H2033 N2020 0.985 . S
C2034 C2035 1.363 . S
C2034 C2040 1.379 . S
C2034 N2042 1.356 . S
C2035 C2034 1.363 . S
C2035 C2041 1.363 . S
C2036 C2037 1.363 . S
C2036 C2041 1.379 . S
C2036 N2043 1.356 . S
C2037 C2036 1.363 . S
C2037 C2040 1.363 . S
N2038 C2040 1.356 . S
N2038 H2050 0.984 . S
N2038 H2051 0.985 . S
N2039 C2041 1.356 . S
N2039 H2044 0.984 . S
N2039 H2045 0.985 . S
C2040 C2034 1.379 . S
C2040 C2037 1.363 . S
C2040 N2038 1.356 . S
C2041 C2035 1.363 . S
C2041 C2036 1.379 . S
C2041 N2039 1.356 . S
N2042 C2034 1.356 . S
N2042 H2048 0.984 . S
N2042 H2049 0.984 . S
N2043 C2036 1.356 . S
N2043 H2046 0.984 . S
N2043 H2047 0.985 . S
H2044 N2039 0.984 . S
H2045 N2039 0.985 . S
H2046 N2043 0.984 . S
H2047 N2043 0.985 . S
H2048 N2042 0.984 . S
H2049 N2042 0.984 . S
H2050 N2038 0.984 . S
H2051 N2038 0.985 . S
C2052 C2053 1.363 . S
C2052 C2058 1.379 . S
C2052 N2060 1.356 . S
C2053 C2052 1.363 . S
C2053 C2059 1.363 . S
C2054 C2055 1.363 . S
C2054 C2059 1.379 . S
C2054 N2061 1.356 . S
C2055 C2054 1.363 . S
C2055 C2058 1.363 . S
N2056 C2058 1.356 . S
N2056 H2068 0.984 . S
N2056 H2069 0.985 . S
N2057 C2059 1.356 . S
N2057 H2062 0.984 . S
N2057 H2063 0.985 . S
C2058 C2052 1.379 . S
C2058 C2055 1.363 . S
C2058 N2056 1.356 . S
C2059 C2053 1.363 . S
C2059 C2054 1.379 . S
C2059 N2057 1.356 . S
N2060 C2052 1.356 . S
N2060 H2066 0.984 . S
N2060 H2067 0.984 . S
N2061 C2054 1.356 . S
N2061 H2064 0.984 . S
N2061 H2065 0.985 . S
H2062 N2057 0.984 . S
H2063 N2057 0.985 . S
H2064 N2061 0.984 . S
H2065 N2061 0.985 . S
H2066 N2060 0.984 . S
H2067 N2060 0.984 . S
H2068 N2056 0.984 . S
H2069 N2056 0.985 . S
C2070 C2071 1.363 . S
C2070 C2076 1.379 . S
C2070 N2078 1.356 . S
C2071 C2070 1.363 . S
C2071 C2077 1.363 . S
C2072 C2073 1.363 . S
C2072 C2077 1.379 . S
C2072 N2079 1.356 . S
C2073 C2072 1.363 . S
C2073 C2076 1.363 . S
N2074 C2076 1.356 . S
N2074 H2086 0.984 . S
N2074 H2087 0.985 . S
N2075 C2077 1.356 . S
N2075 H2080 0.984 . S
N2075 H2081 0.985 . S
C2076 C2070 1.379 . S
C2076 C2073 1.363 . S
C2076 N2074 1.356 . S
C2077 C2071 1.363 . S
C2077 C2072 1.379 . S
C2077 N2075 1.356 . S
N2078 C2070 1.356 . S
N2078 H2084 0.984 . S
N2078 H2085 0.984 . S
N2079 C2072 1.356 . S
N2079 H2082 0.984 . S
N2079 H2083 0.985 . S
H2080 N2075 0.984 . S
H2081 N2075 0.985 . S
H2082 N2079 0.984 . S
H2083 N2079 0.985 . S
H2084 N2078 0.984 . S
H2085 N2078 0.984 . S
H2086 N2074 0.984 . S
H2087 N2074 0.985 . S
C2088 C2089 1.363 . S
C2088 C2094 1.379 . S
C2088 N2096 1.356 . S
C2089 C2088 1.363 . S
C2089 C2095 1.363 . S
C2090 C2091 1.363 . S
C2090 C2095 1.379 . S
C2090 N2097 1.356 . S
C2091 C2090 1.363 . S
C2091 C2094 1.363 . S
N2092 C2094 1.356 . S
N2092 H2104 0.984 . S
N2092 H2105 0.985 . S
N2093 C2095 1.356 . S
N2093 H2098 0.984 . S
N2093 H2099 0.985 . S
C2094 C2088 1.379 . S
C2094 C2091 1.363 . S
C2094 N2092 1.356 . S
C2095 C2089 1.363 . S
C2095 C2090 1.379 . S
C2095 N2093 1.356 . S
N2096 C2088 1.356 . S
N2096 H2102 0.984 . S
N2096 H2103 0.984 . S
N2097 C2090 1.356 . S
N2097 H2100 0.984 . S
N2097 H2101 0.985 . S
H2098 N2093 0.984 . S
H2099 N2093 0.985 . S
H2100 N2097 0.984 . S
H2101 N2097 0.985 . S
H2102 N2096 0.984 . S
H2103 N2096 0.984 . S
H2104 N2092 0.984 . S
H2105 N2092 0.985 . S
C2106 C2107 1.363 . S
C2106 C2112 1.379 . S
C2106 N2114 1.356 . S
C2107 C2106 1.363 . S
C2107 C2113 1.363 . S
C2108 C2109 1.363 . S
C2108 C2113 1.379 . S
C2108 N2115 1.356 . S
C2109 C2108 1.363 . S
C2109 C2112 1.363 . S
N2110 C2112 1.356 . S
N2110 H2122 0.984 . S
N2110 H2123 0.985 . S
N2111 C2113 1.356 . S
N2111 H2116 0.984 . S
N2111 H2117 0.985 . S
C2112 C2106 1.379 . S
C2112 C2109 1.363 . S
C2112 N2110 1.356 . S
C2113 C2107 1.363 . S
C2113 C2108 1.379 . S
C2113 N2111 1.356 . S
N2114 C2106 1.356 . S
N2114 H2120 0.984 . S
N2114 H2121 0.984 . S
N2115 C2108 1.356 . S
N2115 H2118 0.984 . S
N2115 H2119 0.985 . S
H2116 N2111 0.984 . S
H2117 N2111 0.985 . S
H2118 N2115 0.984 . S
H2119 N2115 0.985 . S
H2120 N2114 0.984 . S
H2121 N2114 0.984 . S
H2122 N2110 0.984 . S
H2123 N2110 0.985 . S
C2124 C2125 1.363 . S
C2124 C2130 1.379 . S
C2124 N2132 1.356 . S
C2125 C2124 1.363 . S
C2125 C2131 1.363 . S
C2126 C2127 1.363 . S
C2126 C2131 1.379 . S
C2126 N2133 1.356 . S
C2127 C2126 1.363 . S
C2127 C2130 1.363 . S
N2128 C2130 1.356 . S
N2128 H2140 0.984 . S
N2128 H2141 0.985 . S
N2129 C2131 1.356 . S
N2129 H2134 0.984 . S
N2129 H2135 0.985 . S
C2130 C2124 1.379 . S
C2130 C2127 1.363 . S
C2130 N2128 1.356 . S
C2131 C2125 1.363 . S
C2131 C2126 1.379 . S
C2131 N2129 1.356 . S
N2132 C2124 1.356 . S
N2132 H2138 0.984 . S
N2132 H2139 0.984 . S
N2133 C2126 1.356 . S
N2133 H2136 0.984 . S
N2133 H2137 0.985 . S
H2134 N2129 0.984 . S
H2135 N2129 0.985 . S
H2136 N2133 0.984 . S
H2137 N2133 0.985 . S
H2138 N2132 0.984 . S
H2139 N2132 0.984 . S
H2140 N2128 0.984 . S
H2141 N2128 0.985 . S
C2142 C2143 1.363 . S
C2142 C2148 1.379 . S
C2142 N2150 1.356 . S
C2143 C2142 1.363 . S
C2143 C2149 1.363 . S
C2144 C2145 1.363 . S
C2144 C2149 1.379 . S
C2144 N2151 1.356 . S
C2145 C2144 1.363 . S
C2145 C2148 1.363 . S
N2146 C2148 1.356 . S
N2146 H2158 0.984 . S
N2146 H2159 0.985 . S
N2147 C2149 1.356 . S
N2147 H2152 0.984 . S
N2147 H2153 0.985 . S
C2148 C2142 1.379 . S
C2148 C2145 1.363 . S
C2148 N2146 1.356 . S
C2149 C2143 1.363 . S
C2149 C2144 1.379 . S
C2149 N2147 1.356 . S
N2150 C2142 1.356 . S
N2150 H2156 0.984 . S
N2150 H2157 0.984 . S
N2151 C2144 1.356 . S
N2151 H2154 0.984 . S
N2151 H2155 0.985 . S
H2152 N2147 0.984 . S
H2153 N2147 0.985 . S
H2154 N2151 0.984 . S
H2155 N2151 0.985 . S
H2156 N2150 0.984 . S
H2157 N2150 0.984 . S
H2158 N2146 0.984 . S
H2159 N2146 0.985 . S
C2160 C2161 1.363 . S
C2160 C2166 1.379 . S
C2160 N2168 1.356 . S
C2161 C2160 1.363 . S
C2161 C2167 1.363 . S
C2162 C2163 1.363 . S
C2162 C2167 1.379 . S
C2162 N2169 1.356 . S
C2163 C2162 1.363 . S
C2163 C2166 1.363 . S
N2164 C2166 1.356 . S
N2164 H2176 0.984 . S
N2164 H2177 0.985 . S
N2165 C2167 1.356 . S
N2165 H2170 0.984 . S
N2165 H2171 0.985 . S
C2166 C2160 1.379 . S
C2166 C2163 1.363 . S
C2166 N2164 1.356 . S
C2167 C2161 1.363 . S
C2167 C2162 1.379 . S
C2167 N2165 1.356 . S
N2168 C2160 1.356 . S
N2168 H2174 0.984 . S
N2168 H2175 0.984 . S
N2169 C2162 1.356 . S
N2169 H2172 0.984 . S
N2169 H2173 0.985 . S
H2170 N2165 0.984 . S
H2171 N2165 0.985 . S
H2172 N2169 0.984 . S
H2173 N2169 0.985 . S
H2174 N2168 0.984 . S
H2175 N2168 0.984 . S
H2176 N2164 0.984 . S
H2177 N2164 0.985 . S
C2178 C2179 1.363 . S
C2178 C2184 1.379 . S
C2178 N2186 1.356 . S
C2179 C2178 1.363 . S
C2179 C2185 1.363 . S
C2180 C2181 1.363 . S
C2180 C2185 1.379 . S
C2180 N2187 1.356 . S
C2181 C2180 1.363 . S
C2181 C2184 1.363 . S
N2182 C2184 1.356 . S
N2182 H2194 0.984 . S
N2182 H2195 0.985 . S
N2183 C2185 1.356 . S
N2183 H2188 0.984 . S
N2183 H2189 0.985 . S
C2184 C2178 1.379 . S
C2184 C2181 1.363 . S
C2184 N2182 1.356 . S
C2185 C2179 1.363 . S
C2185 C2180 1.379 . S
C2185 N2183 1.356 . S
N2186 C2178 1.356 . S
N2186 H2192 0.984 . S
N2186 H2193 0.984 . S
N2187 C2180 1.356 . S
N2187 H2190 0.984 . S
N2187 H2191 0.985 . S
H2188 N2183 0.984 . S
H2189 N2183 0.985 . S
H2190 N2187 0.984 . S
H2191 N2187 0.985 . S
H2192 N2186 0.984 . S
H2193 N2186 0.984 . S
H2194 N2182 0.984 . S
H2195 N2182 0.985 . S
C2196 C2197 1.363 . S
C2196 C2202 1.379 . S
C2196 N2204 1.356 . S
C2197 C2196 1.363 . S
C2197 C2203 1.363 . S
C2198 C2199 1.363 . S
C2198 C2203 1.379 . S
C2198 N2205 1.356 . S
C2199 C2198 1.363 . S
C2199 C2202 1.363 . S
N2200 C2202 1.356 . S
N2200 H2212 0.984 . S
N2200 H2213 0.985 . S
N2201 C2203 1.356 . S
N2201 H2206 0.984 . S
N2201 H2207 0.985 . S
C2202 C2196 1.379 . S
C2202 C2199 1.363 . S
C2202 N2200 1.356 . S
C2203 C2197 1.363 . S
C2203 C2198 1.379 . S
C2203 N2201 1.356 . S
N2204 C2196 1.356 . S
N2204 H2210 0.984 . S
N2204 H2211 0.984 . S
N2205 C2198 1.356 . S
N2205 H2208 0.984 . S
N2205 H2209 0.985 . S
H2206 N2201 0.984 . S
H2207 N2201 0.985 . S
H2208 N2205 0.984 . S
H2209 N2205 0.985 . S
H2210 N2204 0.984 . S
H2211 N2204 0.984 . S
H2212 N2200 0.984 . S
H2213 N2200 0.985 . S
C2214 C2215 1.363 . S
C2214 C2220 1.379 . S
C2214 N2222 1.356 . S
C2215 C2214 1.363 . S
C2215 C2221 1.363 . S
C2216 C2217 1.363 . S
C2216 C2221 1.379 . S
C2216 N2223 1.356 . S
C2217 C2216 1.363 . S
C2217 C2220 1.363 . S
N2218 C2220 1.356 . S
N2218 H2230 0.984 . S
N2218 H2231 0.985 . S
N2219 C2221 1.356 . S
N2219 H2224 0.984 . S
N2219 H2225 0.985 . S
C2220 C2214 1.379 . S
C2220 C2217 1.363 . S
C2220 N2218 1.356 . S
C2221 C2215 1.363 . S
C2221 C2216 1.379 . S
C2221 N2219 1.356 . S
N2222 C2214 1.356 . S
N2222 H2228 0.984 . S
N2222 H2229 0.984 . S
N2223 C2216 1.356 . S
N2223 H2226 0.984 . S
N2223 H2227 0.985 . S
H2224 N2219 0.984 . S
H2225 N2219 0.985 . S
H2226 N2223 0.984 . S
H2227 N2223 0.985 . S
H2228 N2222 0.984 . S
H2229 N2222 0.984 . S
H2230 N2218 0.984 . S
H2231 N2218 0.985 . S
C2232 C2233 1.363 . S
C2232 C2238 1.379 . S
C2232 N2240 1.356 . S
C2233 C2232 1.363 . S
C2233 C2239 1.363 . S
C2234 C2235 1.363 . S
C2234 C2239 1.379 . S
C2234 N2241 1.356 . S
C2235 C2234 1.363 . S
C2235 C2238 1.363 . S
N2236 C2238 1.356 . S
N2236 H2248 0.984 . S
N2236 H2249 0.985 . S
N2237 C2239 1.356 . S
N2237 H2242 0.984 . S
N2237 H2243 0.985 . S
C2238 C2232 1.379 . S
C2238 C2235 1.363 . S
C2238 N2236 1.356 . S
C2239 C2233 1.363 . S
C2239 C2234 1.379 . S
C2239 N2237 1.356 . S
N2240 C2232 1.356 . S
N2240 H2246 0.984 . S
N2240 H2247 0.984 . S
N2241 C2234 1.356 . S
N2241 H2244 0.984 . S
N2241 H2245 0.985 . S
H2242 N2237 0.984 . S
H2243 N2237 0.985 . S
H2244 N2241 0.984 . S
H2245 N2241 0.985 . S
H2246 N2240 0.984 . S
H2247 N2240 0.984 . S
H2248 N2236 0.984 . S
H2249 N2236 0.985 . S
C2250 C2251 1.363 . S
C2250 C2256 1.379 . S
C2250 N2258 1.356 . S
C2251 C2250 1.363 . S
C2251 C2257 1.363 . S
C2252 C2253 1.363 . S
C2252 C2257 1.379 . S
C2252 N2259 1.356 . S
C2253 C2252 1.363 . S
C2253 C2256 1.363 . S
N2254 C2256 1.356 . S
N2254 H2266 0.984 . S
N2254 H2267 0.985 . S
N2255 C2257 1.356 . S
N2255 H2260 0.984 . S
N2255 H2261 0.985 . S
C2256 C2250 1.379 . S
C2256 C2253 1.363 . S
C2256 N2254 1.356 . S
C2257 C2251 1.363 . S
C2257 C2252 1.379 . S
C2257 N2255 1.356 . S
N2258 C2250 1.356 . S
N2258 H2264 0.984 . S
N2258 H2265 0.984 . S
N2259 C2252 1.356 . S
N2259 H2262 0.984 . S
N2259 H2263 0.985 . S
H2260 N2255 0.984 . S
H2261 N2255 0.985 . S
H2262 N2259 0.984 . S
H2263 N2259 0.985 . S
H2264 N2258 0.984 . S
H2265 N2258 0.984 . S
H2266 N2254 0.984 . S
H2267 N2254 0.985 . S
C2268 C2269 1.363 . S
C2268 C2274 1.379 . S
C2268 N2276 1.356 . S
C2269 C2268 1.363 . S
C2269 C2275 1.363 . S
C2270 C2271 1.363 . S
C2270 C2275 1.379 . S
C2270 N2277 1.356 . S
C2271 C2270 1.363 . S
C2271 C2274 1.363 . S
N2272 C2274 1.356 . S
N2272 H2284 0.984 . S
N2272 H2285 0.985 . S
N2273 C2275 1.356 . S
N2273 H2278 0.984 . S
N2273 H2279 0.985 . S
C2274 C2268 1.379 . S
C2274 C2271 1.363 . S
C2274 N2272 1.356 . S
C2275 C2269 1.363 . S
C2275 C2270 1.379 . S
C2275 N2273 1.356 . S
N2276 C2268 1.356 . S
N2276 H2282 0.984 . S
N2276 H2283 0.984 . S
N2277 C2270 1.356 . S
N2277 H2280 0.984 . S
N2277 H2281 0.985 . S
H2278 N2273 0.984 . S
H2279 N2273 0.985 . S
H2280 N2277 0.984 . S
H2281 N2277 0.985 . S
H2282 N2276 0.984 . S
H2283 N2276 0.984 . S
H2284 N2272 0.984 . S
H2285 N2272 0.985 . S
C2286 C2287 1.363 . S
C2286 C2292 1.379 . S
C2286 N2294 1.356 . S
C2287 C2286 1.363 . S
C2287 C2293 1.363 . S
C2288 C2289 1.363 . S
C2288 C2293 1.379 . S
C2288 N2295 1.356 . S
C2289 C2288 1.363 . S
C2289 C2292 1.363 . S
N2290 C2292 1.356 . S
N2290 H2302 0.984 . S
N2290 H2303 0.985 . S
N2291 C2293 1.356 . S
N2291 H2296 0.984 . S
N2291 H2297 0.985 . S
C2292 C2286 1.379 . S
C2292 C2289 1.363 . S
C2292 N2290 1.356 . S
C2293 C2287 1.363 . S
C2293 C2288 1.379 . S
C2293 N2291 1.356 . S
N2294 C2286 1.356 . S
N2294 H2300 0.984 . S
N2294 H2301 0.984 . S
N2295 C2288 1.356 . S
N2295 H2298 0.984 . S
N2295 H2299 0.985 . S
H2296 N2291 0.984 . S
H2297 N2291 0.985 . S
H2298 N2295 0.984 . S
H2299 N2295 0.985 . S
H2300 N2294 0.984 . S
H2301 N2294 0.984 . S
H2302 N2290 0.984 . S
H2303 N2290 0.985 . S
C1153 C1048 1.515 . S
C1155 C4 1.515 . S
C1171 C40 1.515 . S
C1173 C1084 1.515 . S
C1189 C1120 1.515 . S
C1191 C76 1.515 . S
C1207 C1012 1.515 . S
C1209 C112 1.515 . S
C1225 C148 1.515 . S
C1227 C976 1.515 . S
C1243 C868 1.515 . S
C1245 C184 1.515 . S
C1261 C220 1.515 . S
C1263 C904 1.515 . S
C1279 C940 1.515 . S
C1281 C256 1.515 . S
C1297 C292 1.515 . S
C1299 C760 1.515 . S
C1315 C328 1.515 . S
C1317 C796 1.515 . S
C1333 C832 1.515 . S
C1335 C364 1.515 . S
C1351 C400 1.515 . S
C1353 C724 1.515 . S
C1369 C688 1.515 . S
C1371 C436 1.515 . S
C1387 C580 1.515 . S
C1389 C472 1.515 . S
C1405 C508 1.515 . S
C1407 C616 1.515 . S
C1423 C544 1.515 . S
C1425 C652 1.515 . S
C1441 C14 1.347 . S
C1443 C374 1.347 . S
C1459 C410 1.347 . S
C1461 C50 1.347 . S
C1477 C302 1.347 . S
C1479 C86 1.347 . S
C1495 C338 1.347 . S
C1497 C122 1.347 . S
C1513 C158 1.347 . S
C1515 C518 1.347 . S
C1531 C554 1.347 . S
C1533 C194 1.347 . S
C1549 C446 1.347 . S
C1551 C230 1.347 . S
C1567 C482 1.347 . S
C1569 C266 1.347 . S
C1585 C590 1.347 . S
C1587 C950 1.347 . S
C1603 C986 1.347 . S
C1605 C626 1.347 . S
C1621 C878 1.347 . S
C1623 C662 1.347 . S
C1639 C698 1.347 . S
C1641 C914 1.347 . S
C1657 C734 1.347 . S
C1659 C1094 1.347 . S
C1675 C1130 1.347 . S
C1677 C770 1.347 . S
C1693 C1022 1.347 . S
C1695 C806 1.347 . S
C1711 C842 1.347 . S
C1713 C1058 1.347 . S
C1729 C3 1.463 . S
C1731 C147 1.463 . S
C1747 C39 1.463 . S
C1749 C183 1.463 . S
C1765 C219 1.463 . S
C1767 C75 1.463 . S
C1783 C111 1.463 . S
C1785 C255 1.463 . S
C1801 C291 1.463 . S
C1803 C435 1.463 . S
C1819 C471 1.463 . S
C1821 C327 1.463 . S
C1837 C507 1.463 . S
C1839 C363 1.463 . S
C1855 C399 1.463 . S
C1857 C543 1.463 . S
C1873 C579 1.463 . S
C1875 C723 1.463 . S
C1891 C759 1.463 . S
C1893 C615 1.463 . S
C1909 C651 1.463 . S
C1911 C795 1.463 . S
C1927 C831 1.463 . S
C1929 C687 1.463 . S
C1945 C1011 1.463 . S
C1947 C867 1.463 . S
C1963 C903 1.463 . S
C1965 C1047 1.463 . S
C1981 C939 1.463 . S
C1983 C1083 1.463 . S
C1999 C975 1.463 . S
C2001 C1119 1.463 . S
C2017 C2 1.403 . S
C2019 C182 1.403 . S
C2035 C38 1.403 . S
C2037 C218 1.403 . S
C2053 C254 1.403 . S
C2055 C74 1.403 . S
C2071 C146 1.403 . S
C2073 C110 1.403 . S
C2089 C470 1.403 . S
C2091 C290 1.403 . S
C2107 C506 1.403 . S
C2109 C326 1.403 . S
C2125 C542 1.403 . S
C2127 C362 1.403 . S
C2143 C398 1.403 . S
C2145 C434 1.403 . S
C2161 C578 1.403 . S
C2163 C758 1.403 . S
C2179 C794 1.403 . S
C2181 C614 1.403 . S
C2197 C830 1.403 . S
C2199 C650 1.403 . S
C2215 C686 1.403 . S
C2217 C722 1.403 . S
C2233 C1046 1.403 . S
C2235 C866 1.403 . S
C2251 C902 1.403 . S
C2253 C1082 1.403 . S
C2269 C938 1.403 . S
C2271 C1118 1.403 . S
C2287 C1010 1.403 . S
C2289 C974 1.403 . S
