# Generated by pormake.
# Topology rob, (6)-cn, num edge types: 1
# Building blocks:
#     Node 0, Type 0, BuildingBlock: CUKXOW_clean_sbu_0, # of connection points: 6
#     Node 1, Type 0, BuildingBlock: CUKXOW_clean_sbu_0, # of connection points: 6
#     Node 2, Type 0, BuildingBlock: CUKXOW_clean_sbu_0, # of connection points: 6
#     Node 3, Type 0, BuildingBlock: CUKXOW_clean_sbu_0, # of connection points: 6
#     Edge 4, Type (0, 0), BuildingBlock: UVAHIK_clean_linker_0, # of connection points: 2
#     Edge 5, Type (0, 0), BuildingBlock: UVAHIK_clean_linker_0, # of connection points: 2
#     Edge 6, Type (0, 0), BuildingBlock: UVAHIK_clean_linker_0, # of connection points: 2
#     Edge 7, Type (0, 0), BuildingBlock: UVAHIK_clean_linker_0, # of connection points: 2
#     Edge 8, Type (0, 0), BuildingBlock: UVAHIK_clean_linker_0, # of connection points: 2
#     Edge 9, Type (0, 0), BuildingBlock: UVAHIK_clean_linker_0, # of connection points: 2
#     Edge 10, Type (0, 0), BuildingBlock: UVAHIK_clean_linker_0, # of connection points: 2
#     Edge 11, Type (0, 0), BuildingBlock: UVAHIK_clean_linker_0, # of connection points: 2
#     Edge 12, Type (0, 0), BuildingBlock: UVAHIK_clean_linker_0, # of connection points: 2
#     Edge 13, Type (0, 0), BuildingBlock: UVAHIK_clean_linker_0, # of connection points: 2
#     Edge 14, Type (0, 0), BuildingBlock: UVAHIK_clean_linker_0, # of connection points: 2
#     Edge 15, Type (0, 0), BuildingBlock: UVAHIK_clean_linker_0, # of connection points: 2
# Relax obj value: 0.015
# Max RMSD: 0.092
# Mean RMSD: 0.092
data_MOF--net-rob--node1-CUKXOW_clean_sbu_0--edge1-UVAHIK_clean_linker_0
_symmetry_space_group_name_H-M    P1
_symmetry_Int_Tables_number       1
_symmetry_cell_setting            triclinic
loop_
_symmetry_equiv_pos_as_xyz
'x, y, z'
_cell_length_a     16.244461
_cell_length_b     36.137905
_cell_length_c     37.05287
_cell_angle_alpha  103.04503
_cell_angle_beta   89.979953
_cell_angle_gamma 89.910416
loop_
_atom_site_label
_atom_site_type_symbol
_atom_site_fract_x
_atom_site_fract_y
_atom_site_fract_z
_atom_type_partial_charge
Tb0 Tb 0.30394 0.23872 0.03319 0.0
C1 C 0.33279 0.30951 1.00075 0.0
Tb2 Tb 0.19006 0.25106 0.9699 0.0
O3 O 0.4097 0.22701 0.99546 0.0
O4 O 0.29037 0.21561 0.97571 0.0
O5 O 0.33482 0.2968 0.03171 0.0
C6 C 0.12832 0.25911 0.90516 0.0
O7 O 0.2896 0.29226 0.97124 0.0
C8 C 0.13018 0.27322 0.03704 0.0
C9 C 0.16483 0.17753 1.00076 0.0
O10 O 0.13504 0.28612 0.93479 0.0
O11 O 0.15579 0.22779 0.91216 0.0
O12 O 0.0846 0.26292 0.00768 0.0
O13 O 0.20414 0.27456 0.02726 0.0
O14 O 0.14802 0.19487 0.97357 0.0
O15 O 0.22029 0.19038 0.02697 0.0
C16 C 0.35966 0.23101 0.09917 0.0
O17 O 0.28457 0.23863 0.09163 0.0
O18 O 0.40394 0.22753 0.06941 0.0
C19 C 0.36439 0.21692 0.96599 0.0
Tb20 Tb 0.81149 0.74147 0.03584 0.0
C21 C 0.79684 0.81768 0.00825 0.0
Tb22 Tb 0.69516 0.74353 0.96956 0.0
O23 O 0.91955 0.74382 1.00089 0.0
O24 O 0.80959 0.71927 0.97822 0.0
O25 O 0.8227 0.80111 0.03475 0.0
C26 C 0.64879 0.74709 0.90144 0.0
O27 O 0.7492 0.8004 0.98035 0.0
C28 C 0.62277 0.75574 0.03426 0.0
C29 C 0.70653 0.6689 0.99807 0.0
O30 O 0.72168 0.75467 0.91524 0.0
O31 O 0.60126 0.73765 0.92612 0.0
O32 O 0.58267 0.74562 0.00323 0.0
O33 O 0.69539 0.764 0.02729 0.0
O34 O 0.69692 0.68309 0.9682 0.0
O35 O 0.74035 0.68874 0.02917 0.0
C36 C 0.87524 0.74092 0.10189 0.0
O37 O 0.88878 0.71528 0.07172 0.0
O38 O 0.82652 0.76679 0.09477 0.0
C39 C 0.88017 0.72923 0.9705 0.0
Tb40 Tb 0.3077 0.74372 0.46984 0.0
C41 C 0.29436 0.67018 0.50003 0.0
Tb42 Tb 0.19076 0.74393 0.53637 0.0
O43 O 0.42004 0.74549 0.50337 0.0
O44 O 0.30783 0.76532 0.52751 0.0
O45 O 0.30488 0.68354 0.46972 0.0
C46 C 0.12562 0.74428 0.6024 0.0
O47 O 0.26058 0.69087 0.53078 0.0
C48 C 0.12252 0.731 0.47092 0.0
C49 C 0.2087 0.81929 0.50765 0.0
O50 O 0.1122 0.71852 0.57234 0.0
O51 O 0.17495 0.76983 0.59518 0.0
O52 O 0.0833 0.74655 0.50113 0.0
O53 O 0.19252 0.72063 0.479 0.0
O54 O 0.18171 0.80346 0.53447 0.0
O55 O 0.25597 0.80112 0.47993 0.0
C56 C 0.35389 0.7459 0.40132 0.0
O57 O 0.28125 0.75414 0.41524 0.0
O58 O 0.4013 0.73655 0.4261 0.0
C59 C 0.38022 0.75652 0.53441 0.0
Tb60 Tb 0.80645 0.2516 0.47001 0.0
C61 C 0.83625 0.1777 0.4999 0.0
Tb62 Tb 0.69384 0.23712 0.53291 0.0
O63 O 0.91171 0.26392 0.50775 0.0
O64 O 0.7917 0.27409 0.52756 0.0
O65 O 0.85191 0.19574 0.47313 0.0
C66 C 0.63893 0.22828 0.59864 0.0
O67 O 0.78 0.18947 0.52609 0.0
C68 C 0.63409 0.21594 0.46554 0.0
C69 C 0.66188 0.30882 0.50198 0.0
O70 O 0.71371 0.23636 0.59115 0.0
O71 O 0.59453 0.22489 0.56894 0.0
O72 O 0.5884 0.22513 0.49502 0.0
O73 O 0.7081 0.21511 0.47536 0.0
O74 O 0.66049 0.29523 0.53244 0.0
O75 O 0.70557 0.29249 0.47223 0.0
C76 C 0.86715 0.26027 0.40528 0.0
O77 O 0.86025 0.28713 0.43504 0.0
O78 O 0.84034 0.22882 0.41214 0.0
C79 C 0.8659 0.2733 0.53718 0.0
C80 C 0.68032 0.61472 0.02853 0.0
C81 C 0.67824 0.6297 0.99666 0.0
C82 C 0.64958 0.57841 0.02758 0.0
C83 C 0.50379 0.50843 0.97583 0.0
H84 H 0.61028 0.43934 0.0275 0.0
C85 C 0.38296 0.35686 0.96584 0.0
C86 C 0.37904 0.34432 0.99906 0.0
C87 C 0.4247 0.39024 0.96439 0.0
C88 C 0.57952 0.45847 0.01319 0.0
H89 H 0.6444 0.61774 0.93849 0.0
H90 H 0.59155 0.5544 0.93684 0.0
H91 H 0.67467 0.50026 0.02693 0.0
H92 H 0.4173 0.35671 0.05666 0.0
H93 H 0.48926 0.41521 0.05417 0.0
H94 H 0.40828 0.467 0.96241 0.0
C95 C 0.61576 0.57097 0.9627 0.0
C96 C 0.61639 0.49332 0.01286 0.0
C97 C 0.64643 0.60724 0.96364 0.0
C98 C 0.41907 0.36555 0.03062 0.0
C99 C 0.46078 0.39898 0.02916 0.0
C100 C 0.46699 0.47365 0.97617 0.0
C101 C 0.61608 0.55632 0.99476 0.0
C102 C 0.57873 0.51875 0.99428 0.0
C103 C 0.46344 0.41187 0.9961 0.0
C104 C 0.50422 0.44832 0.99496 0.0
H105 H 0.70421 0.63128 0.05446 0.0
H106 H 0.64993 0.56809 0.05284 0.0
H107 H 0.47246 0.52766 0.96182 0.0
H108 H 0.35356 0.34101 0.94089 0.0
H109 H 0.42675 0.39907 0.93835 0.0
C110 C 0.35808 0.60829 0.46782 0.0
C111 C 0.32146 0.63095 0.49964 0.0
C112 C 0.38701 0.57191 0.46798 0.0
C113 C 0.45882 0.51419 0.53185 0.0
H114 H 0.43523 0.43046 0.44621 0.0
C115 C 0.57131 0.363 0.53285 0.0
C116 C 0.61492 0.34381 0.50136 0.0
C117 C 0.52909 0.39666 0.53261 0.0
C118 C 0.4428 0.45365 0.47023 0.0
H119 H 0.28493 0.63271 0.55638 0.0
H120 H 0.33474 0.56912 0.55648 0.0
H121 H 0.3722 0.49175 0.44585 0.0
H122 H 0.64683 0.34461 0.44463 0.0
H123 H 0.57391 0.40347 0.44441 0.0
H124 H 0.53015 0.47631 0.55609 0.0
C125 C 0.34205 0.57973 0.53156 0.0
C126 C 0.40671 0.48874 0.47003 0.0
C127 C 0.31309 0.61612 0.53141 0.0
C128 C 0.61407 0.35868 0.46942 0.0
C129 C 0.57174 0.3923 0.46918 0.0
C130 C 0.49483 0.47913 0.53206 0.0
C131 C 0.38003 0.55734 0.49996 0.0
C132 C 0.41487 0.5195 0.50073 0.0
C133 C 0.52935 0.41185 0.50087 0.0
C134 C 0.48779 0.44854 0.50116 0.0
H135 H 0.36564 0.61881 0.44286 0.0
H136 H 0.41683 0.55558 0.44332 0.0
H137 H 0.46739 0.53746 0.55571 0.0
H138 H 0.57021 0.35225 0.55786 0.0
H139 H 0.49607 0.41078 0.5573 0.0
C140 C 0.06628 0.12511 0.9735 0.0
C141 C 0.12156 0.14173 0.00171 0.0
C142 C 0.02655 0.09102 0.97449 0.0
C143 C 0.04708 0.00715 0.01491 0.0
H144 H 0.81634 0.99111 0.98939 0.0
C145 C 0.87417 0.87638 0.03855 0.0
C146 C 0.8242 0.857 0.00941 0.0
C147 C 0.9056 0.91222 0.03822 0.0
C148 C 0.88099 -0.0049 0.99629 0.0
H149 H 0.17682 0.13588 0.05353 0.0
H150 H 0.10731 0.0769 0.05528 0.0
H151 H 0.88126 0.05156 0.98707 0.0
H152 H 0.76603 0.86078 0.95759 0.0
H153 H 0.8214 0.92332 0.95703 0.0
H154 H 0.04718 0.95085 0.02407 0.0
C155 C 0.09569 0.08981 0.03208 0.0
C156 C 0.91816 0.02965 0.99491 0.0
C157 C 0.13533 0.12377 0.03111 0.0
C158 C 0.80428 0.87487 0.98051 0.0
C159 C 0.83573 0.9108 0.98023 0.0
C160 C 0.01 0.97273 0.01633 0.0
C161 C 0.04134 0.07288 0.00367 0.0
C162 C 0.00156 0.03609 0.00439 0.0
C163 C 0.88786 0.92956 0.00877 0.0
C164 C 0.92648 0.96635 0.00721 0.0
H165 H 0.05415 0.13818 0.95046 0.0
H166 H 0.98551 0.07851 0.95203 0.0
H167 H 0.11185 0.01091 0.02166 0.0
H168 H 0.89037 0.86365 0.0614 0.0
H169 H 0.94443 0.92627 0.06095 0.0
C170 C 0.87086 0.12386 0.52956 0.0
C171 C 0.88266 0.14253 0.50053 0.0
C172 C 0.91476 0.09086 0.53048 0.0
C173 C 0.0254 0.01141 0.47069 0.0
H174 H 0.10916 -0.00463 0.564 0.0
C175 C 0.20698 0.87631 0.47955 0.0
C176 C 0.18383 0.8589 0.50835 0.0
C177 C 0.17886 0.91275 0.47899 0.0
C178 C 0.08571 -0.00066 0.53777 0.0
H179 H 0.95059 0.14114 0.44976 0.0
H180 H 0.02732 0.08346 0.45147 0.0
H181 H 0.04335 0.05559 0.56194 0.0
H182 H 0.11441 0.86669 0.55962 0.0
H183 H 0.06501 0.92993 0.5584 0.0
H184 H 0.06644 0.95495 0.44662 0.0
C185 C 0.98348 0.0943 0.47335 0.0
C186 C 0.04801 0.03381 0.53659 0.0
C187 C 0.93969 0.12743 0.47247 0.0
C188 C 0.1336 0.87917 0.53701 0.0
C189 C 0.10561 0.91559 0.53645 0.0
C190 C 0.06305 0.97691 0.47187 0.0
C191 C 0.97149 0.07566 0.50239 0.0
C192 C 0.01643 0.04004 0.50314 0.0
C193 C 0.1271 0.93263 0.50722 0.0
C194 C 0.09266 0.9703 0.50552 0.0
H195 H 0.82756 0.13464 0.55168 0.0
H196 H 0.9032 0.07688 0.55294 0.0
H197 H 0.00087 0.01517 0.44457 0.0
H198 H 0.24578 0.86161 0.45706 0.0
H199 H 0.19738 0.92531 0.45634 0.0
C200 C 0.52762 0.22871 0.42133 0.0
C201 C 0.60529 0.21424 0.4274 0.0
C202 C 0.50193 0.22933 0.38546 0.0
C203 C 0.54719 0.18855 0.28574 0.0
H204 H 0.42017 0.27529 0.27207 0.0
C205 C 0.47074 0.21694 0.14108 0.0
C206 C 0.38937 0.22789 0.13601 0.0
C207 C 0.4984 0.21448 0.17628 0.0
C208 C 0.45507 0.25074 0.27547 0.0
H209 H 0.71481 0.18686 0.40075 0.0
H210 H 0.6723 0.18957 0.33817 0.0
H211 H 0.46616 0.27237 0.33388 0.0
H212 H 0.27297 0.24472 0.16349 0.0
H213 H 0.32127 0.24072 0.22488 0.0
H214 H 0.53698 0.1674 0.22699 0.0
C215 C 0.63063 0.20027 0.36096 0.0
C216 C 0.48125 0.24895 0.31097 0.0
C217 C 0.65582 0.19932 0.39687 0.0
C218 C 0.33612 0.23629 0.16664 0.0
C219 C 0.36389 0.23418 0.20181 0.0
C220 C 0.52159 0.19054 0.25014 0.0
C221 C 0.55354 0.21563 0.35478 0.0
C222 C 0.52711 0.21769 0.31669 0.0
C223 C 0.44537 0.22331 0.20707 0.0
C224 C 0.4747 0.22153 0.24466 0.0
H225 H 0.48707 0.24014 0.44439 0.0
H226 H 0.4414 0.24054 0.38183 0.0
H227 H 0.58138 0.16379 0.28903 0.0
H228 H 0.51302 0.21035 0.11789 0.0
H229 H 0.56167 0.20631 0.17952 0.0
C230 C 0.50805 0.76601 0.08057 0.0
C231 C 0.58969 0.75518 0.07115 0.0
C232 C 0.47799 0.76614 0.11607 0.0
C233 C 0.55115 0.76948 0.2111 0.0
H234 H 0.33655 0.72857 0.22606 0.0
C235 C 0.45851 0.73809 0.35084 0.0
C236 C 0.37794 0.74715 0.36333 0.0
C237 C 0.48123 0.73981 0.3149 0.0
C238 C 0.39622 0.74053 0.22239 0.0
H239 H 0.70005 0.73204 0.08977 0.0
H240 H 0.64992 0.73329 0.15163 0.0
H241 H 0.38056 0.73098 0.16355 0.0
H242 H 0.25747 0.76469 0.34828 0.0
H243 H 0.29726 0.76813 0.28558 0.0
H244 H 0.56725 0.77904 0.2697 0.0
C245 C 0.60981 0.74317 0.13239 0.0
C246 C 0.42134 0.74193 0.18659 0.0
C247 C 0.63929 0.74297 0.09707 0.0
C248 C 0.32014 0.75761 0.33926 0.0
C249 C 0.34281 0.75935 0.30331 0.0
C250 C 0.52606 0.76819 0.24679 0.0
C251 C 0.52918 0.75521 0.14252 0.0
C252 C 0.49954 0.75596 0.18055 0.0
C253 C 0.42379 0.75069 0.29077 0.0
C254 C 0.44875 0.75327 0.25284 0.0
H255 H 0.46811 0.77502 0.06075 0.0
H256 H 0.41541 0.77545 0.12305 0.0
H257 H 0.61121 0.7811 0.20741 0.0
H258 H 0.50401 0.72973 0.36885 0.0
H259 H 0.54372 0.73231 0.3059 0.0
C260 C 0.54397 0.74035 0.85121 0.0
C261 C 0.62475 0.7488 0.86358 0.0
C262 C 0.52137 0.74228 0.81531 0.0
C263 C 0.60646 0.7418 0.72266 0.0
H264 H 0.39324 0.7844 0.70785 0.0
C265 C 0.49552 0.7662 0.58036 0.0
C266 C 0.4133 0.75634 0.57138 0.0
C267 C 0.52564 0.7666 0.6159 0.0
C268 C 0.45278 0.7722 0.71149 0.0
H269 H 0.74569 0.76556 0.84841 0.0
H270 H 0.70616 0.76928 0.78573 0.0
H271 H 0.43711 0.78243 0.77018 0.0
H272 H 0.30167 0.73523 0.59088 0.0
H273 H 0.35201 0.73685 0.65275 0.0
H274 H 0.62163 0.73145 0.66374 0.0
C275 C 0.66034 0.76084 0.80354 0.0
C276 C 0.47783 0.77099 0.7472 0.0
C277 C 0.68286 0.75893 0.83946 0.0
C278 C 0.36305 0.74539 0.5978 0.0
C279 C 0.39261 0.74582 0.63315 0.0
C280 C 0.58136 0.74307 0.68684 0.0
C281 C 0.57919 0.75273 0.79112 0.0
C282 C 0.55447 0.75533 0.75318 0.0
C283 C 0.47393 0.75688 0.64281 0.0
C284 C 0.50374 0.75782 0.68086 0.0
H285 H 0.49822 0.73225 0.86926 0.0
H286 H 0.45872 0.73523 0.80639 0.0
H287 H 0.66562 0.72927 0.72631 0.0
H288 H 0.53592 0.77423 0.56016 0.0
H289 H 0.58873 0.77515 0.62251 0.0
C290 C 0.66264 0.23361 0.66609 0.0
C291 C 0.60944 0.22505 0.63549 0.0
C292 C 0.6349 0.23174 0.70134 0.0
C293 C 0.47732 0.18883 0.75028 0.0
H294 H 0.53207 0.2715 0.83325 0.0
C295 C 0.34284 0.19948 0.89733 0.0
C296 C 0.39325 0.21474 0.92776 0.0
C297 C 0.36806 0.19997 0.86131 0.0
C298 C 0.51718 0.24785 0.81056 0.0
H299 H 0.48596 0.20735 0.61749 0.0
H300 H 0.43735 0.20371 0.67925 0.0
H301 H 0.57819 0.2736 0.77125 0.0
H302 H 0.51124 0.24082 0.94446 0.0
H303 H 0.55696 0.24041 0.88172 0.0
H304 H 0.41759 0.16267 0.78961 0.0
C305 C 0.50057 0.21184 0.67593 0.0
C306 C 0.54344 0.24917 0.77495 0.0
C307 C 0.5282 0.21407 0.64066 0.0
C308 C 0.4708 0.22912 0.92149 0.0
C309 C 0.49651 0.22928 0.8855 0.0
C310 C 0.45165 0.18732 0.78601 0.0
C311 C 0.55349 0.22095 0.70671 0.0
C312 C 0.52407 0.21964 0.74442 0.0
C313 C 0.44504 0.2152 0.85491 0.0
C314 C 0.4715 0.21676 0.81668 0.0
H315 H 0.72568 0.24208 0.66288 0.0
H316 H 0.67744 0.23848 0.72439 0.0
H317 H 0.46211 0.16547 0.72734 0.0
H318 H 0.28391 0.18714 0.90138 0.0
H319 H 0.32648 0.18901 0.8386 0.0
C320 C 0.8732 0.76559 0.17006 0.0
C321 C 0.9045 0.73964 0.13908 0.0
C322 C 0.89751 0.76366 0.20566 0.0
C323 C 0.06076 0.72933 0.25785 0.0
H324 H 0.8914 0.73524 0.3328 0.0
C325 C 0.132 0.70485 0.40298 0.0
C326 C 0.09369 0.72936 0.43307 0.0
C327 C 0.10851 0.70493 0.36679 0.0
C328 C 0.93953 0.734 0.31233 0.0
H329 H 0.98624 0.69169 0.12058 0.0
H330 H 0.02968 0.68848 0.18315 0.0
H331 H 0.8529 0.73822 0.26997 0.0
H332 H 1.00003 0.77256 0.44946 0.0
H333 H 0.95909 0.77308 0.38616 0.0
H334 H 0.14759 0.72566 0.30027 0.0
C335 C 0.98644 0.71031 0.17982 0.0
C336 C 0.91744 0.73563 0.27635 0.0
C337 C 0.96147 0.71204 0.14414 0.0
C338 C 0.03012 0.75329 0.4266 0.0
C339 C 0.0067 0.75348 0.39039 0.0
C340 C 0.08297 0.72794 0.29392 0.0
C341 C 0.95402 0.7359 0.21091 0.0
C342 C 0.97782 0.73344 0.24882 0.0
C343 C 0.04606 0.72949 0.36007 0.0
C344 C 0.02256 0.73036 0.32159 0.0
H345 H 0.82898 0.78709 0.16685 0.0
H346 H 0.87228 0.78399 0.22912 0.0
H347 H 0.1086 0.72799 0.23721 0.0
H348 H 0.18085 0.68592 0.40742 0.0
H349 H 0.13913 0.68568 0.3441 0.0
C350 C 0.90778 0.30041 0.36117 0.0
C351 C 0.89798 0.26444 0.36897 0.0
C352 C 0.93318 0.30378 0.3259 0.0
C353 C 0.949 0.24684 0.22865 0.0
H354 H 0.08369 0.33103 0.21501 0.0
C355 C 0.02134 0.26583 0.08228 0.0
C356 C 0.1004 0.27823 0.0755 0.0
C357 C 0.99495 0.2674 0.11849 0.0
C358 C 0.04678 0.30708 0.21825 0.0
H359 H 0.90938 0.20388 0.34672 0.0
H360 H 0.95701 0.20957 0.28602 0.0
H361 H 0.04576 0.32614 0.27731 0.0
H362 H 0.21153 0.30483 0.10117 0.0
H363 H 0.16787 0.3056 0.16438 0.0
H364 H 0.95345 0.22655 0.17002 0.0
C365 C 0.94244 0.23531 0.30636 0.0
C366 C 0.0239 0.30458 0.25409 0.0
C367 C 0.91582 0.23198 0.34132 0.0
C368 C 0.15108 0.29407 0.10567 0.0
C369 C 0.1254 0.295 0.14194 0.0
C370 C 0.97281 0.24902 0.19299 0.0
C371 C 0.95032 0.27122 0.29788 0.0
C372 C 0.97472 0.27436 0.2598 0.0
C373 C 0.04742 0.281 0.14884 0.0
C374 C 0.02179 0.27923 0.18716 0.0
H375 H 0.894 0.32588 0.38203 0.0
H376 H 0.93745 0.3319 0.32042 0.0
H377 H 0.90984 0.22351 0.23164 0.0
H378 H 0.98036 0.25408 0.05953 0.0
H379 H 0.9335 0.25753 0.12256 0.0
C380 C 0.97515 0.26586 0.58226 0.0
C381 C 0.8957 0.27796 0.57558 0.0
C382 C 0.00146 0.26712 0.61842 0.0
C383 C 0.9484 0.3058 0.71823 0.0
H384 H 0.08745 0.2226 0.7313 0.0
C385 C 0.08701 0.2991 0.86104 0.0
C386 C 0.09757 0.26314 0.8688 0.0
C387 C 0.06179 0.30246 0.82576 0.0
C388 C 0.04772 0.24582 0.72838 0.0
H389 H 0.78357 0.30357 0.60138 0.0
H390 H 0.82725 0.30389 0.66444 0.0
H391 H 0.04407 0.22589 0.66968 0.0
H392 H 0.08785 0.20256 0.84642 0.0
H393 H 0.04053 0.20821 0.78563 0.0
H394 H 0.94866 0.32451 0.7773 0.0
C395 C 0.87009 0.29378 0.64199 0.0
C396 C 0.02401 0.24814 0.69274 0.0
C397 C 0.84444 0.29313 0.60579 0.0
C398 C 0.08074 0.23065 0.84106 0.0
C399 C 0.05432 0.23396 0.80606 0.0
C400 C 0.97119 0.30316 0.75402 0.0
C401 C 0.94855 0.28014 0.64879 0.0
C402 C 0.97424 0.27821 0.68705 0.0
C403 C 0.04557 0.26988 0.79767 0.0
C404 C 0.02116 0.27308 0.75961 0.0
H405 H 0.01649 0.25458 0.55947 0.0
H406 H 0.06321 0.2575 0.62245 0.0
H407 H 0.91087 0.32964 0.71509 0.0
H408 H 0.10006 0.32461 0.88197 0.0
H409 H 0.0569 0.33059 0.82035 0.0
C410 C 0.12761 0.76896 0.6706 0.0
C411 C 0.0961 0.74318 0.6396 0.0
C412 C 0.10347 0.76694 0.70621 0.0
C413 C 0.94071 0.73234 0.75848 0.0
H414 H 0.11085 0.7368 0.83279 0.0
C415 C 0.87065 0.70463 0.90237 0.0
C416 C 0.9092 0.72838 0.93282 0.0
C417 C 0.89401 0.70557 0.86636 0.0
C418 C 0.06249 0.73598 0.81251 0.0
H419 H 0.01408 0.69548 0.62109 0.0
H420 H 0.97094 0.69211 0.68364 0.0
H421 H 0.14864 0.74091 0.77017 0.0
H422 H 0.00316 0.77112 0.95001 0.0
H423 H 0.04381 0.77319 0.88702 0.0
H424 H 0.85438 0.7279 0.80083 0.0
C425 C 0.01419 0.7139 0.68033 0.0
C426 C 0.08418 0.73826 0.77665 0.0
C427 C 0.03898 0.71572 0.64465 0.0
C428 C 0.97292 0.75241 0.92686 0.0
C429 C 0.99615 0.75349 0.89082 0.0
C430 C 0.91891 0.7303 0.79443 0.0
C431 C 0.04692 0.73926 0.71144 0.0
C432 C 0.02352 0.73653 0.74933 0.0
C433 C 0.95648 0.73029 0.86016 0.0
C434 C 0.97959 0.73213 0.82187 0.0
H435 H 0.17198 0.79035 0.66738 0.0
H436 H 0.12896 0.78709 0.72969 0.0
H437 H 0.89266 0.73135 0.73801 0.0
H438 H 0.82167 0.68564 0.9064 0.0
H439 H 0.86318 0.68687 0.8434 0.0
loop_
_geom_bond_atom_site_label_1
_geom_bond_atom_site_label_2
_geom_bond_distance
_geom_bond_site_symmetry_2
_ccdc_geom_bond_type
Tb0 O3 2.453 1_554 S
Tb0 O4 2.596 1_554 S
Tb0 O5 2.374 . S
Tb0 O13 2.343 . S
Tb0 O15 2.353 1_554 S
Tb0 O17 2.427 . S
Tb0 O18 2.513 . S
C1 O5 1.251 . S
C1 O7 1.263 . S
Tb2 O4 2.343 . S
Tb2 O7 2.353 1_556 S
Tb2 O10 2.427 . S
Tb2 O11 2.513 . S
Tb2 O12 2.453 1_556 S
Tb2 O13 2.596 1_556 S
Tb2 O14 2.374 . S
O3 Tb0 2.453 1_556 S
O3 C19 1.245 . S
O4 Tb0 2.596 1_556 S
O4 Tb2 2.343 . S
O4 C19 1.259 . S
O5 Tb0 2.374 . S
O5 C1 1.251 . S
C6 O10 1.275 . S
C6 O11 1.246 . S
O7 C1 1.263 . S
O7 Tb2 2.353 1_554 S
C8 O12 1.245 . S
C8 O13 1.259 . S
C9 O14 1.250 . S
C9 O15 1.263 . S
O10 Tb2 2.427 . S
O10 C6 1.275 . S
O11 Tb2 2.513 . S
O11 C6 1.246 . S
O12 Tb2 2.453 1_554 S
O12 C8 1.245 . S
O13 Tb0 2.343 . S
O13 Tb2 2.596 1_554 S
O13 C8 1.259 . S
O14 Tb2 2.374 . S
O14 C9 1.250 . S
O15 Tb0 2.353 1_556 S
O15 C9 1.263 . S
C16 O17 1.275 . S
C16 O18 1.246 . S
O17 Tb0 2.427 . S
O17 C16 1.275 . S
O18 Tb0 2.513 . S
O18 C16 1.246 . S
C19 O3 1.245 . S
C19 O4 1.259 . S
Tb20 O23 2.453 1_554 S
Tb20 O24 2.596 1_554 S
Tb20 O25 2.374 . S
Tb20 O33 2.343 . S
Tb20 O35 2.353 1_554 S
Tb20 O37 2.427 . S
Tb20 O38 2.513 . S
C21 O25 1.251 . S
C21 O27 1.263 . S
Tb22 O24 2.343 . S
Tb22 O27 2.353 1_556 S
Tb22 O30 2.427 . S
Tb22 O31 2.513 . S
Tb22 O32 2.453 1_556 S
Tb22 O33 2.596 1_556 S
Tb22 O34 2.374 . S
O23 Tb20 2.453 1_556 S
O23 C39 1.245 . S
O24 Tb20 2.596 1_556 S
O24 Tb22 2.343 . S
O24 C39 1.259 . S
O25 Tb20 2.374 . S
O25 C21 1.251 . S
C26 O30 1.275 . S
C26 O31 1.246 . S
O27 C21 1.263 . S
O27 Tb22 2.353 1_554 S
C28 O32 1.245 . S
C28 O33 1.259 . S
C29 O34 1.250 . S
C29 O35 1.263 . S
O30 Tb22 2.427 . S
O30 C26 1.275 . S
O31 Tb22 2.513 . S
O31 C26 1.246 . S
O32 Tb22 2.453 1_554 S
O32 C28 1.245 . S
O33 Tb20 2.343 . S
O33 Tb22 2.596 1_554 S
O33 C28 1.259 . S
O34 Tb22 2.374 . S
O34 C29 1.250 . S
O35 Tb20 2.353 1_556 S
O35 C29 1.263 . S
C36 O37 1.275 . S
C36 O38 1.246 . S
O37 Tb20 2.427 . S
O37 C36 1.275 . S
O38 Tb20 2.513 . S
O38 C36 1.246 . S
C39 O23 1.245 . S
C39 O24 1.259 . S
Tb40 O43 2.453 . S
Tb40 O44 2.596 . S
Tb40 O45 2.374 . S
Tb40 O53 2.343 . S
Tb40 O55 2.353 . S
Tb40 O57 2.427 . S
Tb40 O58 2.513 . S
C41 O45 1.251 . S
C41 O47 1.263 . S
Tb42 O44 2.343 . S
Tb42 O47 2.353 . S
Tb42 O50 2.427 . S
Tb42 O51 2.513 . S
Tb42 O52 2.453 . S
Tb42 O53 2.596 . S
Tb42 O54 2.374 . S
O43 Tb40 2.453 . S
O43 C59 1.245 . S
O44 Tb40 2.596 . S
O44 Tb42 2.343 . S
O44 C59 1.259 . S
O45 Tb40 2.374 . S
O45 C41 1.251 . S
C46 O50 1.275 . S
C46 O51 1.246 . S
O47 C41 1.263 . S
O47 Tb42 2.353 . S
C48 O52 1.245 . S
C48 O53 1.259 . S
C49 O54 1.250 . S
C49 O55 1.263 . S
O50 Tb42 2.427 . S
O50 C46 1.275 . S
O51 Tb42 2.513 . S
O51 C46 1.246 . S
O52 Tb42 2.453 . S
O52 C48 1.245 . S
O53 Tb40 2.343 . S
O53 Tb42 2.596 . S
O53 C48 1.259 . S
O54 Tb42 2.374 . S
O54 C49 1.250 . S
O55 Tb40 2.353 . S
O55 C49 1.263 . S
C56 O57 1.275 . S
C56 O58 1.246 . S
O57 Tb40 2.427 . S
O57 C56 1.275 . S
O58 Tb40 2.513 . S
O58 C56 1.246 . S
C59 O43 1.245 . S
C59 O44 1.259 . S
Tb60 O63 2.453 . S
Tb60 O64 2.596 . S
Tb60 O65 2.374 . S
Tb60 O73 2.343 . S
Tb60 O75 2.353 . S
Tb60 O77 2.427 . S
Tb60 O78 2.513 . S
C61 O65 1.251 . S
C61 O67 1.263 . S
Tb62 O64 2.343 . S
Tb62 O67 2.353 . S
Tb62 O70 2.427 . S
Tb62 O71 2.513 . S
Tb62 O72 2.453 . S
Tb62 O73 2.596 . S
Tb62 O74 2.374 . S
O63 Tb60 2.453 . S
O63 C79 1.245 . S
O64 Tb60 2.596 . S
O64 Tb62 2.343 . S
O64 C79 1.259 . S
O65 Tb60 2.374 . S
O65 C61 1.251 . S
C66 O70 1.275 . S
C66 O71 1.246 . S
O67 C61 1.263 . S
O67 Tb62 2.353 . S
C68 O72 1.245 . S
C68 O73 1.259 . S
C69 O74 1.250 . S
C69 O75 1.263 . S
O70 Tb62 2.427 . S
O70 C66 1.275 . S
O71 Tb62 2.513 . S
O71 C66 1.246 . S
O72 Tb62 2.453 . S
O72 C68 1.245 . S
O73 Tb60 2.343 . S
O73 Tb62 2.596 . S
O73 C68 1.259 . S
O74 Tb62 2.374 . S
O74 C69 1.250 . S
O75 Tb60 2.353 . S
O75 C69 1.263 . S
C76 O77 1.275 . S
C76 O78 1.246 . S
O77 Tb60 2.427 . S
O77 C76 1.275 . S
O78 Tb60 2.513 . S
O78 C76 1.246 . S
C79 O63 1.245 . S
C79 O64 1.259 . S
C80 C81 1.348 . S
C80 C82 1.327 . S
C80 H105 0.950 . S
C81 C80 1.348 . S
C81 C97 1.349 1_554 S
C82 C80 1.327 . S
C82 C101 1.432 . S
C82 H106 0.950 . S
C83 C100 1.574 . S
C83 C102 1.363 1_556 S
C83 H107 0.949 . S
H84 C88 0.949 . S
C85 C86 1.330 1_556 S
C85 C87 1.327 . S
C85 H108 0.950 . S
C86 C85 1.330 1_554 S
C86 C98 1.363 . S
C87 C85 1.327 . S
C87 C103 1.419 1_556 S
C87 H109 0.950 . S
C88 H84 0.949 . S
C88 C96 1.574 . S
C88 C104 1.378 . S
H89 C97 0.950 . S
H90 C95 0.950 . S
H91 C96 0.949 . S
H92 C98 0.950 . S
H93 C99 0.950 . S
H94 C100 0.949 . S
C95 H90 0.950 . S
C95 C97 1.327 . S
C95 C101 1.424 1_556 S
C96 C88 1.574 . S
C96 H91 0.949 . S
C96 C102 1.376 . S
C97 C81 1.349 1_556 S
C97 H89 0.950 . S
C97 C95 1.327 . S
C98 C86 1.363 . S
C98 H92 0.950 . S
C98 C99 1.327 . S
C99 H93 0.950 . S
C99 C98 1.327 . S
C99 C103 1.443 . S
C100 C83 1.574 . S
C100 H94 0.949 . S
C100 C104 1.356 1_556 S
C101 C82 1.432 . S
C101 C95 1.424 1_554 S
C101 C102 1.522 . S
C102 C83 1.363 1_554 S
C102 C96 1.376 . S
C102 C101 1.522 . S
C103 C87 1.419 1_554 S
C103 C99 1.443 . S
C103 C104 1.522 . S
C104 C88 1.378 . S
C104 C100 1.356 1_554 S
C104 C103 1.522 . S
H105 C80 0.950 . S
H106 C82 0.950 . S
H107 C83 0.949 . S
H108 C85 0.950 . S
H109 C87 0.950 . S
C110 C111 1.349 . S
C110 C112 1.327 . S
C110 H135 0.950 . S
C111 C110 1.349 . S
C111 C127 1.349 . S
C112 C110 1.327 . S
C112 C131 1.429 . S
C112 H136 0.950 . S
C113 C130 1.574 . S
C113 C132 1.368 . S
C113 H137 0.949 . S
H114 C118 0.949 . S
C115 C116 1.349 . S
C115 C117 1.327 . S
C115 H138 0.950 . S
C116 C115 1.349 . S
C116 C128 1.349 . S
C117 C115 1.327 . S
C117 C133 1.429 . S
C117 H139 0.950 . S
C118 H114 0.949 . S
C118 C126 1.574 . S
C118 C134 1.368 . S
H119 C127 0.950 . S
H120 C125 0.950 . S
H121 C126 0.949 . S
H122 C128 0.950 . S
H123 C129 0.950 . S
H124 C130 0.949 . S
C125 H120 0.950 . S
C125 C127 1.327 . S
C125 C131 1.429 . S
C126 C118 1.574 . S
C126 H121 0.949 . S
C126 C132 1.368 . S
C127 C111 1.349 . S
C127 H119 0.950 . S
C127 C125 1.327 . S
C128 C116 1.349 . S
C128 H122 0.950 . S
C128 C129 1.327 . S
C129 H123 0.950 . S
C129 C128 1.327 . S
C129 C133 1.429 . S
C130 C113 1.574 . S
C130 H124 0.949 . S
C130 C134 1.368 . S
C131 C112 1.429 . S
C131 C125 1.429 . S
C131 C132 1.523 . S
C132 C113 1.368 . S
C132 C126 1.368 . S
C132 C131 1.523 . S
C133 C117 1.429 . S
C133 C129 1.429 . S
C133 C134 1.523 . S
C134 C118 1.368 . S
C134 C130 1.368 . S
C134 C133 1.523 . S
H135 C110 0.950 . S
H136 C112 0.950 . S
H137 C113 0.949 . S
H138 C115 0.950 . S
H139 C117 0.950 . S
C140 C141 1.349 . S
C140 C142 1.327 . S
C140 H165 0.950 . S
C141 C140 1.349 . S
C141 C157 1.349 1_554 S
C142 C140 1.327 . S
C142 C161 1.430 . S
C142 H166 0.950 1_455 S
C143 C160 1.574 1_545 S
C143 C162 1.365 1_556 S
C143 H167 0.949 . S
H144 C148 0.949 . S
C145 C146 1.336 1_556 S
C145 C147 1.327 . S
C145 H168 0.950 . S
C146 C145 1.336 1_554 S
C146 C158 1.356 . S
C147 C145 1.327 . S
C147 C163 1.424 1_556 S
C147 H169 0.950 1_655 S
C148 H144 0.949 . S
C148 C156 1.574 1_565 S
C148 C164 1.374 . S
H149 C157 0.950 . S
H150 C155 0.950 . S
H151 C156 0.949 . S
H152 C158 0.950 . S
H153 C159 0.950 . S
H154 C160 0.949 . S
C155 H150 0.950 . S
C155 C157 1.327 . S
C155 C161 1.426 1_556 S
C156 C148 1.574 1_545 S
C156 H151 0.949 . S
C156 C162 1.373 1_655 S
C157 C141 1.349 1_556 S
C157 H149 0.950 . S
C157 C155 1.327 . S
C158 C146 1.356 . S
C158 H152 0.950 . S
C158 C159 1.327 . S
C159 H153 0.950 . S
C159 C158 1.327 . S
C159 C163 1.438 . S
C160 C143 1.574 1_565 S
C160 H154 0.949 . S
C160 C164 1.361 1_456 S
C161 C142 1.430 . S
C161 C155 1.426 1_554 S
C161 C162 1.522 . S
C162 C143 1.365 1_554 S
C162 C156 1.373 1_455 S
C162 C161 1.522 . S
C163 C147 1.424 1_554 S
C163 C159 1.438 . S
C163 C164 1.522 . S
C164 C148 1.374 . S
C164 C160 1.361 1_654 S
C164 C163 1.522 . S
H165 C140 0.950 . S
H166 C142 0.950 1_655 S
H167 C143 0.949 . S
H168 C145 0.950 . S
H169 C147 0.950 1_455 S
C170 C171 1.349 . S
C170 C172 1.327 . S
C170 H195 0.950 . S
C171 C170 1.349 . S
C171 C187 1.349 . S
C172 C170 1.327 . S
C172 C191 1.429 . S
C172 H196 0.950 . S
C173 C190 1.574 1_545 S
C173 C192 1.368 1_455 S
C173 H197 0.949 . S
H174 C178 0.949 . S
C175 C176 1.349 . S
C175 C177 1.327 . S
C175 H198 0.950 . S
C176 C175 1.349 . S
C176 C188 1.349 . S
C177 C175 1.327 . S
C177 C193 1.429 . S
C177 H199 0.950 . S
C178 H174 0.949 . S
C178 C186 1.574 1_565 S
C178 C194 1.368 1_655 S
H179 C187 0.950 . S
H180 C185 0.950 . S
H181 C186 0.949 . S
H182 C188 0.950 . S
H183 C189 0.950 . S
H184 C190 0.949 . S
C185 H180 0.950 . S
C185 C187 1.327 . S
C185 C191 1.429 . S
C186 C178 1.574 1_545 S
C186 H181 0.949 . S
C186 C192 1.368 . S
C187 C171 1.349 . S
C187 H179 0.950 . S
C187 C185 1.327 . S
C188 C176 1.349 . S
C188 H182 0.950 . S
C188 C189 1.327 . S
C189 H183 0.950 . S
C189 C188 1.327 . S
C189 C193 1.429 . S
C190 C173 1.574 1_565 S
C190 H184 0.949 . S
C190 C194 1.368 . S
C191 C172 1.429 . S
C191 C185 1.429 . S
C191 C192 1.523 . S
C192 C173 1.368 1_655 S
C192 C186 1.368 . S
C192 C191 1.523 . S
C193 C177 1.429 . S
C193 C189 1.429 . S
C193 C194 1.523 . S
C194 C178 1.368 1_455 S
C194 C190 1.368 . S
C194 C193 1.523 . S
H195 C170 0.950 . S
H196 C172 0.950 . S
H197 C173 0.949 . S
H198 C175 0.950 . S
H199 C177 0.950 . S
C200 C201 1.349 . S
C200 C202 1.327 . S
C200 H225 0.950 . S
C201 C200 1.349 . S
C201 C217 1.349 . S
C202 C200 1.327 . S
C202 C221 1.429 . S
C202 H226 0.950 . S
C203 C220 1.574 . S
C203 C222 1.368 . S
C203 H227 0.949 . S
H204 C208 0.949 . S
C205 C206 1.349 . S
C205 C207 1.327 . S
C205 H228 0.950 . S
C206 C205 1.349 . S
C206 C218 1.349 . S
C207 C205 1.327 . S
C207 C223 1.429 . S
C207 H229 0.950 . S
C208 H204 0.949 . S
C208 C216 1.574 . S
C208 C224 1.368 . S
H209 C217 0.950 . S
H210 C215 0.950 . S
H211 C216 0.949 . S
H212 C218 0.950 . S
H213 C219 0.950 . S
H214 C220 0.949 . S
C215 H210 0.950 . S
C215 C217 1.327 . S
C215 C221 1.429 . S
C216 C208 1.574 . S
C216 H211 0.949 . S
C216 C222 1.368 . S
C217 C201 1.349 . S
C217 H209 0.950 . S
C217 C215 1.327 . S
C218 C206 1.349 . S
C218 H212 0.950 . S
C218 C219 1.327 . S
C219 H213 0.950 . S
C219 C218 1.327 . S
C219 C223 1.429 . S
C220 C203 1.574 . S
C220 H214 0.949 . S
C220 C224 1.368 . S
C221 C202 1.429 . S
C221 C215 1.429 . S
C221 C222 1.523 . S
C222 C203 1.368 . S
C222 C216 1.368 . S
C222 C221 1.523 . S
C223 C207 1.429 . S
C223 C219 1.429 . S
C223 C224 1.523 . S
C224 C208 1.368 . S
C224 C220 1.368 . S
C224 C223 1.523 . S
H225 C200 0.950 . S
H226 C202 0.950 . S
H227 C203 0.949 . S
H228 C205 0.950 . S
H229 C207 0.950 . S
C230 C231 1.349 . S
C230 C232 1.327 . S
C230 H255 0.950 . S
C231 C230 1.349 . S
C231 C247 1.349 . S
C232 C230 1.327 . S
C232 C251 1.429 . S
C232 H256 0.950 . S
C233 C250 1.574 . S
C233 C252 1.368 . S
C233 H257 0.949 . S
H234 C238 0.949 . S
C235 C236 1.349 . S
C235 C237 1.327 . S
C235 H258 0.950 . S
C236 C235 1.349 . S
C236 C248 1.349 . S
C237 C235 1.327 . S
C237 C253 1.429 . S
C237 H259 0.950 . S
C238 H234 0.949 . S
C238 C246 1.574 . S
C238 C254 1.368 . S
H239 C247 0.950 . S
H240 C245 0.950 . S
H241 C246 0.949 . S
H242 C248 0.950 . S
H243 C249 0.950 . S
H244 C250 0.949 . S
C245 H240 0.950 . S
C245 C247 1.327 . S
C245 C251 1.429 . S
C246 C238 1.574 . S
C246 H241 0.949 . S
C246 C252 1.368 . S
C247 C231 1.349 . S
C247 H239 0.950 . S
C247 C245 1.327 . S
C248 C236 1.349 . S
C248 H242 0.950 . S
C248 C249 1.327 . S
C249 H243 0.950 . S
C249 C248 1.327 . S
C249 C253 1.429 . S
C250 C233 1.574 . S
C250 H244 0.949 . S
C250 C254 1.368 . S
C251 C232 1.429 . S
C251 C245 1.429 . S
C251 C252 1.523 . S
C252 C233 1.368 . S
C252 C246 1.368 . S
C252 C251 1.523 . S
C253 C237 1.429 . S
C253 C249 1.429 . S
C253 C254 1.523 . S
C254 C238 1.368 . S
C254 C250 1.368 . S
C254 C253 1.523 . S
H255 C230 0.950 . S
H256 C232 0.950 . S
H257 C233 0.949 . S
H258 C235 0.950 . S
H259 C237 0.950 . S
C260 C261 1.349 . S
C260 C262 1.327 . S
C260 H285 0.950 . S
C261 C260 1.349 . S
C261 C277 1.349 . S
C262 C260 1.327 . S
C262 C281 1.429 . S
C262 H286 0.950 . S
C263 C280 1.574 . S
C263 C282 1.368 . S
C263 H287 0.949 . S
H264 C268 0.949 . S
C265 C266 1.349 . S
C265 C267 1.327 . S
C265 H288 0.950 . S
C266 C265 1.349 . S
C266 C278 1.349 . S
C267 C265 1.327 . S
C267 C283 1.429 . S
C267 H289 0.950 . S
C268 H264 0.949 . S
C268 C276 1.574 . S
C268 C284 1.368 . S
H269 C277 0.950 . S
H270 C275 0.950 . S
H271 C276 0.949 . S
H272 C278 0.950 . S
H273 C279 0.950 . S
H274 C280 0.949 . S
C275 H270 0.950 . S
C275 C277 1.327 . S
C275 C281 1.429 . S
C276 C268 1.574 . S
C276 H271 0.949 . S
C276 C282 1.368 . S
C277 C261 1.349 . S
C277 H269 0.950 . S
C277 C275 1.327 . S
C278 C266 1.349 . S
C278 H272 0.950 . S
C278 C279 1.327 . S
C279 H273 0.950 . S
C279 C278 1.327 . S
C279 C283 1.429 . S
C280 C263 1.574 . S
C280 H274 0.949 . S
C280 C284 1.368 . S
C281 C262 1.429 . S
C281 C275 1.429 . S
C281 C282 1.523 . S
C282 C263 1.368 . S
C282 C276 1.368 . S
C282 C281 1.523 . S
C283 C267 1.429 . S
C283 C279 1.429 . S
C283 C284 1.523 . S
C284 C268 1.368 . S
C284 C280 1.368 . S
C284 C283 1.523 . S
H285 C260 0.950 . S
H286 C262 0.950 . S
H287 C263 0.949 . S
H288 C265 0.950 . S
H289 C267 0.950 . S
C290 C291 1.349 . S
C290 C292 1.327 . S
C290 H315 0.950 . S
C291 C290 1.349 . S
C291 C307 1.349 . S
C292 C290 1.327 . S
C292 C311 1.429 . S
C292 H316 0.950 . S
C293 C310 1.574 . S
C293 C312 1.368 . S
C293 H317 0.949 . S
H294 C298 0.949 . S
C295 C296 1.349 . S
C295 C297 1.327 . S
C295 H318 0.950 . S
C296 C295 1.349 . S
C296 C308 1.349 . S
C297 C295 1.327 . S
C297 C313 1.429 . S
C297 H319 0.950 . S
C298 H294 0.949 . S
C298 C306 1.574 . S
C298 C314 1.368 . S
H299 C307 0.950 . S
H300 C305 0.950 . S
H301 C306 0.949 . S
H302 C308 0.950 . S
H303 C309 0.950 . S
H304 C310 0.949 . S
C305 H300 0.950 . S
C305 C307 1.327 . S
C305 C311 1.429 . S
C306 C298 1.574 . S
C306 H301 0.949 . S
C306 C312 1.368 . S
C307 C291 1.349 . S
C307 H299 0.950 . S
C307 C305 1.327 . S
C308 C296 1.349 . S
C308 H302 0.950 . S
C308 C309 1.327 . S
C309 H303 0.950 . S
C309 C308 1.327 . S
C309 C313 1.429 . S
C310 C293 1.574 . S
C310 H304 0.949 . S
C310 C314 1.368 . S
C311 C292 1.429 . S
C311 C305 1.429 . S
C311 C312 1.523 . S
C312 C293 1.368 . S
C312 C306 1.368 . S
C312 C311 1.523 . S
C313 C297 1.429 . S
C313 C309 1.429 . S
C313 C314 1.523 . S
C314 C298 1.368 . S
C314 C310 1.368 . S
C314 C313 1.523 . S
H315 C290 0.950 . S
H316 C292 0.950 . S
H317 C293 0.949 . S
H318 C295 0.950 . S
H319 C297 0.950 . S
C320 C321 1.349 . S
C320 C322 1.327 . S
C320 H345 0.950 . S
C321 C320 1.349 . S
C321 C337 1.349 . S
C322 C320 1.327 . S
C322 C341 1.429 . S
C322 H346 0.950 . S
C323 C340 1.574 . S
C323 C342 1.368 1_455 S
C323 H347 0.949 . S
H324 C328 0.949 . S
C325 C326 1.349 . S
C325 C327 1.327 . S
C325 H348 0.950 . S
C326 C325 1.349 . S
C326 C338 1.349 . S
C327 C325 1.327 . S
C327 C343 1.429 . S
C327 H349 0.950 . S
C328 H324 0.949 . S
C328 C336 1.574 . S
C328 C344 1.368 1_655 S
H329 C337 0.950 . S
H330 C335 0.950 1_455 S
H331 C336 0.949 . S
H332 C338 0.950 . S
H333 C339 0.950 . S
H334 C340 0.949 . S
C335 H330 0.950 1_655 S
C335 C337 1.327 . S
C335 C341 1.429 . S
C336 C328 1.574 . S
C336 H331 0.949 . S
C336 C342 1.368 . S
C337 C321 1.349 . S
C337 H329 0.950 . S
C337 C335 1.327 . S
C338 C326 1.349 . S
C338 H332 0.950 . S
C338 C339 1.327 . S
C339 H333 0.950 . S
C339 C338 1.327 . S
C339 C343 1.429 . S
C340 C323 1.574 . S
C340 H334 0.949 . S
C340 C344 1.368 . S
C341 C322 1.429 . S
C341 C335 1.429 . S
C341 C342 1.523 . S
C342 C323 1.368 1_655 S
C342 C336 1.368 . S
C342 C341 1.523 . S
C343 C327 1.429 . S
C343 C339 1.429 . S
C343 C344 1.523 . S
C344 C328 1.368 1_455 S
C344 C340 1.368 . S
C344 C343 1.523 . S
H345 C320 0.950 . S
H346 C322 0.950 . S
H347 C323 0.949 . S
H348 C325 0.950 . S
H349 C327 0.950 . S
C350 C351 1.349 . S
C350 C352 1.327 . S
C350 H375 0.950 . S
C351 C350 1.349 . S
C351 C367 1.349 . S
C352 C350 1.327 . S
C352 C371 1.429 . S
C352 H376 0.950 1_655 S
C353 C370 1.574 . S
C353 C372 1.368 . S
C353 H377 0.949 . S
H354 C358 0.949 . S
C355 C356 1.349 . S
C355 C357 1.327 . S
C355 H378 0.950 . S
C356 C355 1.349 . S
C356 C368 1.349 . S
C357 C355 1.327 . S
C357 C373 1.429 . S
C357 H379 0.950 . S
C358 H354 0.949 . S
C358 C366 1.574 . S
C358 C374 1.368 . S
H359 C367 0.950 . S
H360 C365 0.950 . S
H361 C366 0.949 . S
H362 C368 0.950 . S
H363 C369 0.950 . S
H364 C370 0.949 . S
C365 H360 0.950 . S
C365 C367 1.327 . S
C365 C371 1.429 . S
C366 C358 1.574 . S
C366 H361 0.949 . S
C366 C372 1.368 1_455 S
C367 C351 1.349 . S
C367 H359 0.950 . S
C367 C365 1.327 . S
C368 C356 1.349 . S
C368 H362 0.950 . S
C368 C369 1.327 . S
C369 H363 0.950 . S
C369 C368 1.327 . S
C369 C373 1.429 . S
C370 C353 1.574 . S
C370 H364 0.949 . S
C370 C374 1.368 1_655 S
C371 C352 1.429 . S
C371 C365 1.429 . S
C371 C372 1.523 . S
C372 C353 1.368 . S
C372 C366 1.368 1_655 S
C372 C371 1.523 . S
C373 C357 1.429 . S
C373 C369 1.429 . S
C373 C374 1.523 . S
C374 C358 1.368 . S
C374 C370 1.368 1_455 S
C374 C373 1.523 . S
H375 C350 0.950 . S
H376 C352 0.950 1_455 S
H377 C353 0.949 . S
H378 C355 0.950 . S
H379 C357 0.950 . S
C380 C381 1.349 . S
C380 C382 1.327 . S
C380 H405 0.950 . S
C381 C380 1.349 . S
C381 C397 1.349 . S
C382 C380 1.327 . S
C382 C401 1.429 . S
C382 H406 0.950 . S
C383 C400 1.574 . S
C383 C402 1.368 . S
C383 H407 0.949 . S
H384 C388 0.949 . S
C385 C386 1.349 . S
C385 C387 1.327 . S
C385 H408 0.950 . S
C386 C385 1.349 . S
C386 C398 1.349 . S
C387 C385 1.327 . S
C387 C403 1.429 . S
C387 H409 0.950 1_455 S
C388 H384 0.949 . S
C388 C396 1.574 1_455 S
C388 C404 1.368 . S
H389 C397 0.950 . S
H390 C395 0.950 . S
H391 C396 0.949 1_455 S
H392 C398 0.950 . S
H393 C399 0.950 . S
H394 C400 0.949 . S
C395 H390 0.950 . S
C395 C397 1.327 . S
C395 C401 1.429 . S
C396 C388 1.574 1_655 S
C396 H391 0.949 1_655 S
C396 C402 1.368 . S
C397 C381 1.349 . S
C397 H389 0.950 . S
C397 C395 1.327 . S
C398 C386 1.349 . S
C398 H392 0.950 . S
C398 C399 1.327 . S
C399 H393 0.950 . S
C399 C398 1.327 . S
C399 C403 1.429 . S
C400 C383 1.574 . S
C400 H394 0.949 . S
C400 C404 1.368 1_655 S
C401 C382 1.429 . S
C401 C395 1.429 . S
C401 C402 1.523 . S
C402 C383 1.368 . S
C402 C396 1.368 . S
C402 C401 1.523 . S
C403 C387 1.429 . S
C403 C399 1.429 . S
C403 C404 1.523 . S
C404 C388 1.368 . S
C404 C400 1.368 1_455 S
C404 C403 1.523 . S
H405 C380 0.950 . S
H406 C382 0.950 . S
H407 C383 0.949 . S
H408 C385 0.950 . S
H409 C387 0.950 1_655 S
C410 C411 1.349 . S
C410 C412 1.327 . S
C410 H435 0.950 . S
C411 C410 1.349 . S
C411 C427 1.349 . S
C412 C410 1.327 . S
C412 C431 1.429 . S
C412 H436 0.950 . S
C413 C430 1.574 . S
C413 C432 1.368 1_655 S
C413 H437 0.949 . S
H414 C418 0.949 . S
C415 C416 1.349 . S
C415 C417 1.327 . S
C415 H438 0.950 . S
C416 C415 1.349 . S
C416 C428 1.349 . S
C417 C415 1.327 . S
C417 C433 1.429 . S
C417 H439 0.950 . S
C418 H414 0.949 . S
C418 C426 1.574 1_655 S
C418 C434 1.368 . S
H419 C427 0.950 . S
H420 C425 0.950 . S
H421 C426 0.949 . S
H422 C428 0.950 . S
H423 C429 0.950 . S
H424 C430 0.949 . S
C425 H420 0.950 . S
C425 C427 1.327 . S
C425 C431 1.429 . S
C426 C418 1.574 1_455 S
C426 H421 0.949 . S
C426 C432 1.368 . S
C427 C411 1.349 . S
C427 H419 0.950 . S
C427 C425 1.327 . S
C428 C416 1.349 . S
C428 H422 0.950 . S
C428 C429 1.327 . S
C429 H423 0.950 . S
C429 C428 1.327 . S
C429 C433 1.429 . S
C430 C413 1.574 . S
C430 H424 0.949 . S
C430 C434 1.368 . S
C431 C412 1.429 . S
C431 C425 1.429 . S
C431 C432 1.523 . S
C432 C413 1.368 1_455 S
C432 C426 1.368 . S
C432 C431 1.523 . S
C433 C417 1.429 . S
C433 C429 1.429 . S
C433 C434 1.523 . S
C434 C418 1.368 . S
C434 C430 1.368 . S
C434 C433 1.523 . S
H435 C410 0.950 . S
H436 C412 0.950 . S
H437 C413 0.949 . S
H438 C415 0.950 . S
H439 C417 0.950 . S
C81 C29 1.501 1_554 S
C86 C1 1.510 . S
C111 C41 1.501 . S
C116 C69 1.501 . S
C141 C9 1.501 1_554 S
C146 C21 1.509 . S
C171 C61 1.501 . S
C176 C49 1.501 . S
C201 C68 1.246 . S
C206 C16 1.262 . S
C231 C28 1.246 . S
C236 C56 1.262 . S
C261 C26 1.262 . S
C266 C59 1.246 . S
C291 C66 1.262 . S
C296 C19 1.246 . S
C321 C36 1.262 . S
C326 C48 1.246 . S
C351 C76 1.262 . S
C356 C8 1.246 . S
C381 C79 1.246 . S
C386 C6 1.262 . S
C411 C46 1.262 . S
C416 C39 1.246 . S
