# Generated by pormake.
# Topology zfg, (5)-cn, num edge types: 1
# Building blocks:
#     Node 0, Type 0, BuildingBlock: XOMCOT_clean_sbu_1, # of connection points: 5
#     Node 1, Type 0, BuildingBlock: XOMCOT_clean_sbu_1, # of connection points: 5
#     Node 2, Type 0, BuildingBlock: XOMCOT_clean_sbu_1, # of connection points: 5
#     Node 3, Type 0, BuildingBlock: XOMCOT_clean_sbu_1, # of connection points: 5
#     Node 4, Type 0, BuildingBlock: XOMCOT_clean_sbu_1, # of connection points: 5
#     Node 5, Type 0, BuildingBlock: XOMCOT_clean_sbu_1, # of connection points: 5
#     Node 6, Type 0, BuildingBlock: XOMCOT_clean_sbu_1, # of connection points: 5
#     Node 7, Type 0, BuildingBlock: XOMCOT_clean_sbu_1, # of connection points: 5
#     Node 8, Type 0, BuildingBlock: XOMCOT_clean_sbu_1, # of connection points: 5
#     Node 9, Type 0, BuildingBlock: XOMCOT_clean_sbu_1, # of connection points: 5
#     Node 10, Type 0, BuildingBlock: XOMCOT_clean_sbu_1, # of connection points: 5
#     Node 11, Type 0, BuildingBlock: XOMCOT_clean_sbu_1, # of connection points: 5
#     Node 12, Type 0, BuildingBlock: XOMCOT_clean_sbu_1, # of connection points: 5
#     Node 13, Type 0, BuildingBlock: XOMCOT_clean_sbu_1, # of connection points: 5
#     Node 14, Type 0, BuildingBlock: XOMCOT_clean_sbu_1, # of connection points: 5
#     Node 15, Type 0, BuildingBlock: XOMCOT_clean_sbu_1, # of connection points: 5
#     Edge 16, Type (0, 0), BuildingBlock: MIFKUJ_clean_linker_0, # of connection points: 2
#     Edge 17, Type (0, 0), BuildingBlock: MIFKUJ_clean_linker_0, # of connection points: 2
#     Edge 18, Type (0, 0), BuildingBlock: MIFKUJ_clean_linker_0, # of connection points: 2
#     Edge 19, Type (0, 0), BuildingBlock: MIFKUJ_clean_linker_0, # of connection points: 2
#     Edge 20, Type (0, 0), BuildingBlock: MIFKUJ_clean_linker_0, # of connection points: 2
#     Edge 21, Type (0, 0), BuildingBlock: MIFKUJ_clean_linker_0, # of connection points: 2
#     Edge 22, Type (0, 0), BuildingBlock: MIFKUJ_clean_linker_0, # of connection points: 2
#     Edge 23, Type (0, 0), BuildingBlock: MIFKUJ_clean_linker_0, # of connection points: 2
#     Edge 24, Type (0, 0), BuildingBlock: MIFKUJ_clean_linker_0, # of connection points: 2
#     Edge 25, Type (0, 0), BuildingBlock: MIFKUJ_clean_linker_0, # of connection points: 2
#     Edge 26, Type (0, 0), BuildingBlock: MIFKUJ_clean_linker_0, # of connection points: 2
#     Edge 27, Type (0, 0), BuildingBlock: MIFKUJ_clean_linker_0, # of connection points: 2
#     Edge 28, Type (0, 0), BuildingBlock: MIFKUJ_clean_linker_0, # of connection points: 2
#     Edge 29, Type (0, 0), BuildingBlock: MIFKUJ_clean_linker_0, # of connection points: 2
#     Edge 30, Type (0, 0), BuildingBlock: MIFKUJ_clean_linker_0, # of connection points: 2
#     Edge 31, Type (0, 0), BuildingBlock: MIFKUJ_clean_linker_0, # of connection points: 2
#     Edge 32, Type (0, 0), BuildingBlock: MIFKUJ_clean_linker_0, # of connection points: 2
#     Edge 33, Type (0, 0), BuildingBlock: MIFKUJ_clean_linker_0, # of connection points: 2
#     Edge 34, Type (0, 0), BuildingBlock: MIFKUJ_clean_linker_0, # of connection points: 2
#     Edge 35, Type (0, 0), BuildingBlock: MIFKUJ_clean_linker_0, # of connection points: 2
#     Edge 36, Type (0, 0), BuildingBlock: MIFKUJ_clean_linker_0, # of connection points: 2
#     Edge 37, Type (0, 0), BuildingBlock: MIFKUJ_clean_linker_0, # of connection points: 2
#     Edge 38, Type (0, 0), BuildingBlock: MIFKUJ_clean_linker_0, # of connection points: 2
#     Edge 39, Type (0, 0), BuildingBlock: MIFKUJ_clean_linker_0, # of connection points: 2
#     Edge 40, Type (0, 0), BuildingBlock: MIFKUJ_clean_linker_0, # of connection points: 2
#     Edge 41, Type (0, 0), BuildingBlock: MIFKUJ_clean_linker_0, # of connection points: 2
#     Edge 42, Type (0, 0), BuildingBlock: MIFKUJ_clean_linker_0, # of connection points: 2
#     Edge 43, Type (0, 0), BuildingBlock: MIFKUJ_clean_linker_0, # of connection points: 2
#     Edge 44, Type (0, 0), BuildingBlock: MIFKUJ_clean_linker_0, # of connection points: 2
#     Edge 45, Type (0, 0), BuildingBlock: MIFKUJ_clean_linker_0, # of connection points: 2
#     Edge 46, Type (0, 0), BuildingBlock: MIFKUJ_clean_linker_0, # of connection points: 2
#     Edge 47, Type (0, 0), BuildingBlock: MIFKUJ_clean_linker_0, # of connection points: 2
#     Edge 48, Type (0, 0), BuildingBlock: MIFKUJ_clean_linker_0, # of connection points: 2
#     Edge 49, Type (0, 0), BuildingBlock: MIFKUJ_clean_linker_0, # of connection points: 2
#     Edge 50, Type (0, 0), BuildingBlock: MIFKUJ_clean_linker_0, # of connection points: 2
#     Edge 51, Type (0, 0), BuildingBlock: MIFKUJ_clean_linker_0, # of connection points: 2
#     Edge 52, Type (0, 0), BuildingBlock: MIFKUJ_clean_linker_0, # of connection points: 2
#     Edge 53, Type (0, 0), BuildingBlock: MIFKUJ_clean_linker_0, # of connection points: 2
#     Edge 54, Type (0, 0), BuildingBlock: MIFKUJ_clean_linker_0, # of connection points: 2
#     Edge 55, Type (0, 0), BuildingBlock: MIFKUJ_clean_linker_0, # of connection points: 2
# Relax obj value: 0.105
# Max RMSD: 0.143
# Mean RMSD: 0.143
data_MOF--net-zfg--node1-XOMCOT_clean_sbu_1--edge1-MIFKUJ_clean_linker_0
_symmetry_space_group_name_H-M    P1
_symmetry_Int_Tables_number       1
_symmetry_cell_setting            triclinic
loop_
_symmetry_equiv_pos_as_xyz
'x, y, z'
_cell_length_a     53.145394
_cell_length_b     53.123792
_cell_length_c     68.477522
_cell_angle_alpha  90.010704
_cell_angle_beta   90.178026
_cell_angle_gamma 89.856901
loop_
_atom_site_label
_atom_site_type_symbol
_atom_site_fract_x
_atom_site_fract_y
_atom_site_fract_z
_atom_type_partial_charge
C0 C 0.04036 0.25386 0.18135 0.0
C1 C 0.05394 0.23187 0.18179 0.0
N2 N 0.07266 0.2335 0.1686 0.0
N3 N 0.05038 0.2694 0.16796 0.0
C4 C 0.07011 0.25658 0.16046 0.0
H5 H 0.02361 0.25794 0.18971 0.0
Co6 Co 0.03608 0.30006 0.16091 0.0
C7 C 0.0657 0.3154 0.12644 0.0
O8 O 0.07121 0.33671 0.1352 0.0
N9 N 0.02137 0.33076 0.15382 0.0
C10 C 1.00042 0.35984 0.137 0.0
C11 C 0.00843 0.33527 0.13716 0.0
C12 C 0.02116 0.35296 0.16347 0.0
N13 N 0.0085 0.37093 0.15352 0.0
O14 O 0.0637 0.3176 0.17351 0.0
H15 H 0.00529 0.32161 0.1257 0.0
H16 H 0.03007 0.356 0.17749 0.0
O17 O 0.0528 0.2989 0.1355 0.0
C18 C 0.06018 0.31727 0.19199 0.0
O19 O 0.03979 0.30637 0.19869 0.0
N20 N 0.00836 0.28264 0.15081 0.0
C21 C 0.96661 0.25243 0.14331 0.0
C22 C 0.98913 0.24886 0.13298 0.0
C23 C 0.00988 0.26421 0.13696 0.0
C24 C 0.9865 0.28673 0.16066 0.0
C25 C 0.96529 0.27206 0.15697 0.0
H26 H 0.02749 0.26031 0.12973 0.0
H27 H 0.98586 0.30083 0.17205 0.0
H28 H 0.08201 0.26386 0.14901 0.0
H29 H 0.04956 0.21554 0.19058 0.0
H30 H 0.99012 0.36907 0.12536 0.0
H31 H 0.99093 0.23382 0.12239 0.0
H32 H 0.94848 0.27513 0.16555 0.0
C33 C 0.74737 0.043 0.18284 0.0
C34 C 0.76942 0.05645 0.18319 0.0
N35 N 0.76722 0.07576 0.17054 0.0
N36 N 0.73138 0.05367 0.16995 0.0
C37 C 0.74389 0.07377 0.16281 0.0
H38 H 0.74344 0.0261 0.19108 0.0
Co39 Co 0.70023 0.04044 0.16303 0.0
C40 C 0.68633 0.07095 0.12844 0.0
O41 O 0.66541 0.07786 0.13711 0.0
N42 N 0.66905 0.02677 0.15591 0.0
C43 C 0.63954 0.00709 0.13869 0.0
C44 C 0.66393 0.0155 0.13867 0.0
C45 C 0.64745 0.02494 0.16618 0.0
N46 N 0.62918 0.01302 0.15601 0.0
O47 O 0.68384 0.06871 0.17569 0.0
H48 H 0.67713 0.01358 0.12676 0.0
H49 H 0.64518 0.03193 0.1809 0.0
O50 O 0.702 0.05698 0.13758 0.0
C51 C 0.68351 0.06284 0.19382 0.0
O52 O 0.69242 0.04061 0.19877 0.0
N53 N 0.71645 0.01193 0.15332 0.0
C54 C 0.74545 0.96884 0.14804 0.0
C55 C 0.74834 0.98961 0.13559 0.0
C56 C 0.73376 0.01127 0.13863 0.0
C57 C 0.7126 0.99146 0.16487 0.0
C58 C 0.72688 0.96971 0.16249 0.0
H59 H 0.73747 0.02786 0.13002 0.0
H60 H 0.69924 0.99258 0.17673 0.0
H61 H 0.73644 0.08617 0.15166 0.0
H62 H 0.78587 0.05225 0.19198 0.0
H63 H 0.63002 0.99782 0.1267 0.0
H64 H 0.76278 0.98968 0.12446 0.0
H65 H 0.72413 0.95402 0.17236 0.0
C66 C 0.96542 0.75698 0.15813 0.0
C67 C 0.94965 0.77664 0.16263 0.0
N68 N 0.92592 0.7695 0.15867 0.0
N69 N 0.95179 0.73762 0.15097 0.0
C70 C 0.92764 0.74557 0.15217 0.0
H71 H 0.98563 0.7569 0.15993 0.0
Co72 Co 0.96517 0.70613 0.14416 0.0
C73 C 0.93214 0.71711 0.10767 0.0
O74 O 0.92515 0.73987 0.11274 0.0
N75 N 0.97888 0.67473 0.13803 0.0
C76 C 0.99713 0.64348 0.12181 0.0
C77 C 0.98876 0.6679 0.12069 0.0
C78 C 0.98157 0.65419 0.1495 0.0
N79 N 0.9926 0.63484 0.13996 0.0
O80 O 0.93827 0.68995 0.15846 0.0
H81 H 0.98991 0.67998 0.10802 0.0
H82 H 0.97574 0.65346 0.16459 0.0
O83 O 0.94648 0.70422 0.11899 0.0
C84 C 0.94327 0.69096 0.17673 0.0
O85 O 0.96443 0.70176 0.18209 0.0
N86 N 0.99267 0.72202 0.13193 0.0
C87 C 0.03542 0.74857 0.12036 0.0
C88 C 0.01231 0.75214 0.11078 0.0
C89 C 0.99112 0.73875 0.11683 0.0
C90 C 0.01513 0.71781 0.14106 0.0
C91 C 0.03676 0.73073 0.13543 0.0
H92 H 0.9734 0.74299 0.11 0.0
H93 H 0.01601 0.70505 0.15336 0.0
H94 H 0.9116 0.73415 0.14814 0.0
H95 H 0.95525 0.79509 0.16775 0.0
H96 H 0.00536 0.63276 0.11 0.0
H97 H 0.01043 0.76579 0.09911 0.0
H98 H 0.05404 0.72775 0.14354 0.0
C99 C 0.25071 0.94077 0.1777 0.0
C100 C 0.2304 0.92613 0.17297 0.0
N101 N 0.23416 0.91656 0.15504 0.0
N102 N 0.26721 0.94059 0.16279 0.0
C103 C 0.25667 0.92546 0.14912 0.0
H104 H 0.25277 0.95184 0.19084 0.0
Co105 Co 0.29489 0.96178 0.16281 0.0
C106 C 0.31437 0.96318 0.12217 0.0
O107 O 0.32047 0.98679 0.12525 0.0
N108 N 0.32312 0.98368 0.16384 0.0
C109 C 0.34832 0.01685 0.16741 0.0
C110 C 0.32386 0.00907 0.16548 0.0
C111 C 0.34764 0.97666 0.16469 0.0
N112 N 0.3633 0.99643 0.16707 0.0
O113 O 0.3149 0.9356 0.17489 0.0
H114 H 0.30794 0.02163 0.16529 0.0
H115 H 0.35392 0.9573 0.16406 0.0
O116 O 0.30416 0.95052 0.13599 0.0
C117 C 0.31354 0.93864 0.19338 0.0
O118 O 0.30016 0.95761 0.20002 0.0
N119 N 0.27371 0.98751 0.15348 0.0
C120 C 0.23775 0.02515 0.14737 0.0
C121 C 0.24589 0.00993 0.13184 0.0
C122 C 0.26353 0.99074 0.13529 0.0
C123 C 0.26509 0.00139 0.1688 0.0
C124 C 0.2476 0.02057 0.16604 0.0
H125 H 0.26804 0.97811 0.12349 0.0
H126 H 0.27224 0.99768 0.18332 0.0
H127 H 0.26454 0.92211 0.1348 0.0
H128 H 0.21381 0.92319 0.18182 0.0
H129 H 0.35454 0.03614 0.16887 0.0
H130 H 0.23804 0.01223 0.11733 0.0
H131 H 0.24191 0.03176 0.1785 0.0
C132 C 0.53831 0.2547 0.36743 0.0
C133 C 0.55226 0.27646 0.36718 0.0
N134 N 0.57323 0.27264 0.37789 0.0
N135 N 0.55031 0.23734 0.37841 0.0
C136 C 0.57168 0.24871 0.38443 0.0
H137 H 0.52036 0.2518 0.3603 0.0
Co138 Co 0.53821 0.20534 0.38426 0.0
C139 C 0.56784 0.19151 0.41938 0.0
O140 O 0.57589 0.17114 0.41045 0.0
N141 N 0.52594 0.17324 0.39032 0.0
C142 C 0.50919 0.1417 0.40708 0.0
C143 C 0.51426 0.16699 0.40711 0.0
C144 C 0.52748 0.15143 0.38018 0.0
N145 N 0.5176 0.13188 0.39017 0.0
O146 O 0.56754 0.1906 0.37194 0.0
H147 H 0.51019 0.17994 0.41889 0.0
H148 H 0.53648 0.14966 0.36611 0.0
O149 O 0.55378 0.20702 0.41015 0.0
C150 C 0.56359 0.19175 0.35351 0.0
O151 O 0.5422 0.20152 0.34745 0.0
N152 N 0.50866 0.21993 0.39385 0.0
C153 C 0.46405 0.24674 0.39913 0.0
C154 C 0.48506 0.25141 0.4111 0.0
C155 C 0.50737 0.23782 0.40815 0.0
C156 C 0.48811 0.21434 0.38278 0.0
C157 C 0.46556 0.22729 0.38532 0.0
H158 H 0.52396 0.24284 0.41641 0.0
H159 H 0.48963 0.20054 0.37123 0.0
H160 H 0.58553 0.23982 0.39378 0.0
H161 H 0.54743 0.29371 0.35962 0.0
H162 H 0.50023 0.13128 0.41871 0.0
H163 H 0.48478 0.26644 0.42178 0.0
H164 H 0.44973 0.22278 0.37596 0.0
C165 C 0.74572 0.54775 0.35552 0.0
C166 C 0.7254 0.56176 0.36137 0.0
N167 N 0.73335 0.57891 0.3745 0.0
N168 N 0.76644 0.55584 0.36496 0.0
C169 C 0.75844 0.5751 0.37629 0.0
H170 H 0.74546 0.53241 0.34514 0.0
Co171 Co 0.7976 0.54067 0.36134 0.0
C172 C 0.8188 0.53855 0.40135 0.0
O173 O 0.82515 0.5151 0.39767 0.0
N174 N 0.82907 0.52574 0.35606 0.0
C175 C 0.85887 0.50933 0.33702 0.0
C176 C 0.83356 0.51355 0.3391 0.0
C177 C 0.85238 0.52994 0.36349 0.0
N178 N 0.87072 0.51963 0.35242 0.0
O179 O 0.81024 0.57082 0.34916 0.0
H180 H 0.81957 0.50971 0.32803 0.0
H181 H 0.85616 0.54201 0.37585 0.0
O182 O 0.80844 0.55182 0.38785 0.0
C183 C 0.80424 0.5709 0.33107 0.0
O184 O 0.78917 0.55309 0.32472 0.0
N185 N 0.78404 0.51021 0.37182 0.0
C186 C 0.75661 0.46753 0.38286 0.0
C187 C 0.75696 0.48902 0.39472 0.0
C188 C 0.77063 0.51018 0.38889 0.0
C189 C 0.78354 0.48943 0.3601 0.0
C190 C 0.77045 0.4678 0.36551 0.0
H191 H 0.76933 0.52701 0.39769 0.0
H192 H 0.79181 0.48981 0.34584 0.0
H193 H 0.77062 0.58579 0.38587 0.0
H194 H 0.70628 0.55968 0.35614 0.0
H195 H 0.86789 0.50019 0.32476 0.0
H196 H 0.74617 0.48974 0.4081 0.0
H197 H 0.7699 0.45196 0.35554 0.0
C198 C 0.46731 0.75074 0.36049 0.0
C199 C 0.45384 0.72867 0.36005 0.0
N200 N 0.43469 0.73063 0.37282 0.0
N201 N 0.45677 0.76655 0.3735 0.0
C202 C 0.4368 0.75388 0.38068 0.0
H203 H 0.48415 0.75479 0.35225 0.0
Co204 Co 0.4702 0.79757 0.3806 0.0
C205 C 0.43787 0.81375 0.41323 0.0
O206 O 0.43281 0.83471 0.40379 0.0
N207 N 0.48396 0.82879 0.38789 0.0
C208 C 0.50215 0.85831 0.40599 0.0
C209 C 0.49485 0.83362 0.40532 0.0
C210 C 0.48491 0.85098 0.37819 0.0
N211 N 0.49574 0.86938 0.38897 0.0
O212 O 0.44339 0.81431 0.36652 0.0
H213 H 0.49711 0.82005 0.41697 0.0
H214 H 0.47726 0.85381 0.36373 0.0
O215 O 0.45162 0.79703 0.40515 0.0
C216 C 0.45004 0.81543 0.34861 0.0
O217 O 0.47212 0.80605 0.34392 0.0
N218 N 0.49739 0.78086 0.39223 0.0
C219 C 0.54002 0.75383 0.4036 0.0
C220 C 0.51675 0.74966 0.41271 0.0
C221 C 0.49555 0.76341 0.40678 0.0
C222 C 0.51981 0.78519 0.38328 0.0
C223 C 0.54142 0.77212 0.38889 0.0
H224 H 0.47757 0.75932 0.41334 0.0
H225 H 0.52075 0.79849 0.37134 0.0
H226 H 0.42461 0.76115 0.39198 0.0
H227 H 0.45798 0.71239 0.35111 0.0
H228 H 0.51151 0.86731 0.41817 0.0
H229 H 0.51485 0.73557 0.42404 0.0
H230 H 0.55882 0.77552 0.38114 0.0
C231 C 0.24705 0.45659 0.35872 0.0
C232 C 0.26713 0.44022 0.35789 0.0
N233 N 0.2648 0.42341 0.37251 0.0
N234 N 0.23208 0.45004 0.37371 0.0
C235 C 0.24335 0.42973 0.38182 0.0
H236 H 0.24379 0.47256 0.34924 0.0
Co237 Co 0.20317 0.46721 0.38121 0.0
C238 C 0.18564 0.43823 0.41523 0.0
O239 O 0.16398 0.43476 0.40633 0.0
N240 N 0.17399 0.48466 0.38895 0.0
C241 C 0.14661 0.50569 0.4073 0.0
C242 C 0.17071 0.49641 0.40626 0.0
C243 C 0.15165 0.48731 0.37967 0.0
N244 N 0.1346 0.49987 0.39057 0.0
O245 O 0.18301 0.44162 0.3684 0.0
H246 H 0.18482 0.49764 0.41764 0.0
H247 H 0.14755 0.47945 0.36548 0.0
O248 O 0.20319 0.44997 0.40642 0.0
C249 C 0.18113 0.44807 0.35044 0.0
O250 O 0.19177 0.46928 0.34509 0.0
N251 N 0.22325 0.49302 0.39131 0.0
C252 C 0.25593 0.53277 0.39912 0.0
C253 C 0.25862 0.50968 0.40892 0.0
C254 C 0.24193 0.48995 0.40485 0.0
C255 C 0.22032 0.51534 0.38179 0.0
C256 C 0.2362 0.53557 0.38568 0.0
H257 H 0.24475 0.47195 0.41187 0.0
H258 H 0.20599 0.51718 0.37062 0.0
H259 H 0.23606 0.41975 0.39434 0.0
H260 H 0.28262 0.44108 0.34769 0.0
H261 H 0.13854 0.51576 0.41952 0.0
H262 H 0.27376 0.50677 0.4193 0.0
H263 H 0.23379 0.55287 0.3775 0.0
C264 C 0.94783 0.74647 0.84521 0.0
C265 C 0.93124 0.76595 0.84778 0.0
N266 N 0.91869 0.76212 0.86457 0.0
N267 N 0.94582 0.73023 0.86023 0.0
C268 C 0.92796 0.74034 0.87194 0.0
H269 H 0.96089 0.74447 0.83324 0.0
Co270 Co 0.96587 0.70154 0.86157 0.0
C271 C 0.96546 0.68392 0.90281 0.0
O272 O 0.98867 0.67597 0.90052 0.0
N273 N 0.98641 0.67217 0.86188 0.0
C274 C 0.01792 0.64459 0.85922 0.0
C275 C 0.01159 0.66963 0.85958 0.0
C276 C 0.97804 0.6481 0.86296 0.0
N277 N 0.99678 0.63103 0.86125 0.0
O278 O 0.93903 0.68205 0.85016 0.0
H279 H 0.02501 0.68464 0.85821 0.0
H280 H 0.95844 0.64315 0.86465 0.0
O281 O 0.95394 0.69453 0.8885 0.0
C282 C 0.94042 0.68333 0.83158 0.0
O283 O 0.95848 0.69678 0.82377 0.0
N284 N 0.99229 0.72197 0.8705 0.0
C285 C 0.03059 0.75727 0.87634 0.0
C286 C 0.01374 0.75128 0.89145 0.0
C287 C 0.99446 0.73379 0.88815 0.0
C288 C 0.00763 0.72856 0.85548 0.0
C289 C 0.02731 0.7454 0.85821 0.0
H290 H 0.98079 0.73083 0.89951 0.0
H291 H 0.00465 0.72031 0.84121 0.0
H292 H 0.92177 0.73194 0.88547 0.0
H293 H 0.92904 0.78207 0.83826 0.0
H294 H 0.03673 0.637 0.85773 0.0
H295 H 0.01478 0.76067 0.90546 0.0
H296 H 0.03975 0.74905 0.84606 0.0
C297 C 0.25447 0.96656 0.86715 0.0
C298 C 0.2317 0.95441 0.86765 0.0
N299 N 0.23505 0.93226 0.8768 0.0
N300 N 0.27197 0.95231 0.87629 0.0
C301 C 0.25962 0.93125 0.88174 0.0
H302 H 0.25795 0.98496 0.86098 0.0
Co303 Co 0.30493 0.96271 0.88111 0.0
C304 C 0.30906 0.92555 0.91513 0.0
O305 O 0.31473 0.90554 0.90476 0.0
N306 N 0.33779 0.97325 0.88604 0.0
C307 C 0.3717 0.98614 0.90217 0.0
C308 C 0.34622 0.9824 0.90324 0.0
C309 C 0.35845 0.97201 0.87458 0.0
N310 N 0.37935 0.97954 0.88417 0.0
O311 O 0.31768 0.93328 0.86751 0.0
H312 H 0.33464 0.98568 0.91594 0.0
H313 H 0.35842 0.96478 0.85981 0.0
O314 O 0.30501 0.94656 0.90666 0.0
C315 C 0.31525 0.93716 0.84916 0.0
O316 O 0.30495 0.95847 0.84348 0.0
N317 N 0.2923 0.99234 0.89238 0.0
C318 C 0.26582 0.03638 0.9008 0.0
C319 C 0.26217 0.01453 0.91196 0.0
C320 C 0.27556 0.99261 0.90749 0.0
C321 C 0.29716 0.01373 0.88212 0.0
C322 C 0.28424 0.03604 0.88616 0.0
H323 H 0.27104 0.97549 0.91521 0.0
H324 H 0.30996 0.01303 0.86987 0.0
H325 H 0.26816 0.91583 0.88965 0.0
H326 H 0.21401 0.96129 0.86181 0.0
H327 H 0.38376 0.9929 0.9138 0.0
H328 H 0.24819 0.01401 0.92343 0.0
H329 H 0.2874 0.05231 0.87698 0.0
C330 C 0.04712 0.24804 0.8638 0.0
C331 C 0.0619 0.22679 0.86338 0.0
N332 N 0.08193 0.23056 0.87513 0.0
N333 N 0.05768 0.26511 0.87583 0.0
C334 C 0.07902 0.25404 0.88239 0.0
H335 H 0.02944 0.25071 0.8562 0.0
Co336 Co 0.04301 0.29581 0.88239 0.0
C337 C 0.07323 0.31217 0.91647 0.0
O338 O 0.0786 0.33333 0.90749 0.0
N339 N 0.02805 0.32653 0.88904 0.0
C340 C 0.00786 0.35616 0.90573 0.0
C341 C 0.01675 0.33189 0.90619 0.0
C342 C 0.02582 0.34784 0.87839 0.0
N343 N 0.01358 0.36619 0.88824 0.0
O344 O 0.07007 0.31335 0.86927 0.0
H345 H 0.01524 0.31899 0.91835 0.0
H346 H 0.03285 0.34987 0.86368 0.0
O347 O 0.06023 0.2955 0.90763 0.0
C348 C 0.06617 0.31216 0.85085 0.0
O349 O 0.046 0.3003 0.84464 0.0
N350 N 0.01567 0.27846 0.89306 0.0
C351 C 0.97371 0.24939 0.9022 0.0
C352 C 0.99665 0.2457 0.91205 0.0
C353 C 0.0175 0.2605 0.90726 0.0
C354 C 0.99348 0.2825 0.88355 0.0
C355 C 0.97219 0.26841 0.88805 0.0
H356 H 0.03535 0.25664 0.91423 0.0
H357 H 0.99256 0.29621 0.87188 0.0
H358 H 0.09169 0.26264 0.89283 0.0
H359 H 0.05811 0.20981 0.85516 0.0
H360 H 0.99846 0.36587 0.91755 0.0
H361 H 0.99861 0.23111 0.923 0.0
H362 H 0.95504 0.27152 0.8798 0.0
C363 C 0.75559 0.03998 0.86566 0.0
C364 C 0.7774 0.05385 0.8659 0.0
N365 N 0.7744 0.07313 0.87848 0.0
N366 N 0.73895 0.05037 0.87811 0.0
C367 C 0.75083 0.0707 0.88557 0.0
H368 H 0.75224 0.02302 0.85733 0.0
Co369 Co 0.70773 0.0367 0.8841 0.0
C370 C 0.69256 0.0676 0.91818 0.0
O371 O 0.67249 0.07524 0.90861 0.0
N372 N 0.67639 0.02271 0.89013 0.0
C373 C 0.64536 0.00455 0.90645 0.0
C374 C 0.6695 0.01347 0.90765 0.0
C375 C 0.65625 0.01879 0.87842 0.0
N376 N 0.63694 0.00781 0.88801 0.0
O377 O 0.69136 0.06481 0.87118 0.0
H378 H 0.68132 0.01323 0.92054 0.0
H379 H 0.65591 0.02357 0.8631 0.0
O380 O 0.70832 0.0531 0.9097 0.0
C381 C 0.69089 0.05933 0.85298 0.0
O382 O 0.70105 0.03784 0.84759 0.0
N383 N 0.72386 0.00828 0.89433 0.0
C384 C 0.75288 0.9652 0.90059 0.0
C385 C 0.75664 0.98688 0.912 0.0
C386 C 0.74195 0.00841 0.90855 0.0
C387 C 0.71922 0.98706 0.8838 0.0
C388 C 0.73328 0.96527 0.88683 0.0
H389 H 0.74623 0.02555 0.91635 0.0
H390 H 0.70532 0.98745 0.87223 0.0
H391 H 0.74272 0.08297 0.89649 0.0
H392 H 0.7942 0.04995 0.85753 0.0
H393 H 0.63482 0.99664 0.91844 0.0
H394 H 0.77179 0.98772 0.92259 0.0
H395 H 0.72952 0.9489 0.87786 0.0
C396 C 0.45568 0.75447 0.6758 0.0
C397 C 0.4417 0.73276 0.67667 0.0
N398 N 0.42263 0.73467 0.66373 0.0
N399 N 0.44556 0.77001 0.66236 0.0
C400 C 0.42531 0.75753 0.65534 0.0
H401 H 0.4726 0.75843 0.68406 0.0
Co402 Co 0.45982 0.80036 0.65462 0.0
C403 C 0.42717 0.81698 0.62211 0.0
O404 O 0.42342 0.83863 0.63093 0.0
N405 N 0.47456 0.83089 0.64657 0.0
C406 C 0.49366 0.85902 0.62775 0.0
C407 C 0.48579 0.83454 0.62915 0.0
C408 C 0.47581 0.85361 0.65549 0.0
N409 N 0.48726 0.87121 0.64428 0.0
O410 O 0.43402 0.81834 0.66901 0.0
H411 H 0.4878 0.82039 0.61791 0.0
H412 H 0.46786 0.85734 0.6697 0.0
O413 O 0.4403 0.80001 0.63053 0.0
C414 C 0.44102 0.81922 0.6869 0.0
O415 O 0.46324 0.80985 0.69132 0.0
N416 N 0.48595 0.78225 0.64277 0.0
C417 C 0.5271 0.75284 0.63142 0.0
C418 C 0.50431 0.75203 0.62092 0.0
C419 C 0.48382 0.76669 0.62698 0.0
C420 C 0.50794 0.78361 0.65294 0.0
C421 C 0.52869 0.76911 0.64756 0.0
H422 H 0.46617 0.76492 0.61929 0.0
H423 H 0.50906 0.79552 0.66573 0.0
H424 H 0.41332 0.76459 0.64377 0.0
H425 H 0.44543 0.71672 0.686 0.0
H426 H 0.50332 0.86705 0.61537 0.0
H427 H 0.50215 0.73992 0.60831 0.0
H428 H 0.5455 0.77001 0.65649 0.0
C429 C 0.23879 0.46403 0.68192 0.0
C430 C 0.26048 0.45011 0.68387 0.0
N431 N 0.25983 0.43101 0.67088 0.0
N432 N 0.22445 0.45388 0.66775 0.0
C433 C 0.23762 0.43371 0.66136 0.0
H434 H 0.23412 0.48102 0.68985 0.0
Co435 Co 0.19452 0.46798 0.65869 0.0
C436 C 0.1808 0.43645 0.62491 0.0
O437 O 0.15897 0.4319 0.63314 0.0
N438 N 0.16431 0.48243 0.64934 0.0
C439 C 0.13715 0.50095 0.62915 0.0
C440 C 0.16176 0.49399 0.63187 0.0
C441 C 0.14081 0.48259 0.65695 0.0
N442 N 0.1239 0.49374 0.6449 0.0
O443 O 0.1761 0.44155 0.67191 0.0
H444 H 0.17674 0.49646 0.6214 0.0
H445 H 0.13601 0.47436 0.67086 0.0
O446 O 0.19721 0.44935 0.63415 0.0
C447 C 0.17351 0.44906 0.68955 0.0
O448 O 0.18169 0.47172 0.69391 0.0
N449 N 0.21299 0.49474 0.64822 0.0
C450 C 0.2441 0.53572 0.64044 0.0
C451 C 0.24827 0.51241 0.63131 0.0
C452 C 0.23243 0.49207 0.63538 0.0
C453 C 0.20842 0.51732 0.65695 0.0
C454 C 0.22353 0.53815 0.65308 0.0
H455 H 0.23662 0.47392 0.62904 0.0
H456 H 0.19349 0.51889 0.66759 0.0
H457 H 0.23121 0.42151 0.64974 0.0
H458 H 0.27595 0.45444 0.6936 0.0
H459 H 0.12943 0.50963 0.61614 0.0
H460 H 0.26403 0.50976 0.62152 0.0
H461 H 0.21992 0.55562 0.66075 0.0
C462 C 0.55477 0.25345 0.68364 0.0
C463 C 0.57117 0.27281 0.68036 0.0
N464 N 0.58266 0.26878 0.66315 0.0
N465 N 0.5558 0.23708 0.66863 0.0
C466 C 0.57291 0.247 0.65621 0.0
H467 H 0.54267 0.25148 0.6962 0.0
Co468 Co 0.53615 0.20816 0.66864 0.0
C469 C 0.53379 0.18975 0.62759 0.0
O470 O 0.51055 0.18268 0.63101 0.0
N471 N 0.51625 0.17866 0.66991 0.0
C472 C 0.48734 0.15064 0.67883 0.0
C473 C 0.49328 0.17574 0.67805 0.0
C474 C 0.52388 0.15479 0.66601 0.0
N475 N 0.50659 0.1375 0.67126 0.0
O476 O 0.56394 0.1893 0.67974 0.0
H477 H 0.48168 0.19049 0.68398 0.0
H478 H 0.54221 0.15011 0.66015 0.0
O479 O 0.54655 0.20026 0.64131 0.0
C480 C 0.56207 0.1909 0.69832 0.0
O481 O 0.54296 0.20351 0.70557 0.0
N482 N 0.50865 0.22804 0.66026 0.0
C483 C 0.46926 0.26264 0.65546 0.0
C484 C 0.4843 0.25552 0.63954 0.0
C485 C 0.50434 0.23861 0.64234 0.0
C486 C 0.49487 0.23569 0.67592 0.0
C487 C 0.47485 0.2524 0.67383 0.0
H488 H 0.51683 0.23516 0.63027 0.0
H489 H 0.49976 0.22895 0.69035 0.0
H490 H 0.57839 0.23835 0.64257 0.0
H491 H 0.57411 0.2889 0.6898 0.0
H492 H 0.47034 0.14261 0.68485 0.0
H493 H 0.4813 0.26374 0.62525 0.0
H494 H 0.46398 0.2574 0.68661 0.0
C495 C 0.76654 0.57516 0.66626 0.0
C496 C 0.74775 0.59284 0.66473 0.0
N497 N 0.73849 0.59206 0.64642 0.0
N498 N 0.76941 0.56348 0.64892 0.0
C499 C 0.75182 0.574 0.63712 0.0
H500 H 0.77739 0.57105 0.67925 0.0
Co501 Co 0.79332 0.53857 0.64411 0.0
C502 C 0.8137 0.56783 0.60992 0.0
O503 O 0.83074 0.57974 0.62029 0.0
N504 N 0.8175 0.51362 0.63957 0.0
C505 C 0.83867 0.47759 0.64132 0.0
C506 C 0.8155 0.48882 0.64348 0.0
C507 C 0.84196 0.51699 0.635 0.0
N508 N 0.85539 0.49541 0.63617 0.0
O509 O 0.81876 0.55962 0.65634 0.0
H510 H 0.7986 0.4797 0.64862 0.0
H511 H 0.85018 0.53529 0.63251 0.0
O512 O 0.79893 0.55224 0.61815 0.0
C513 C 0.82582 0.55112 0.67296 0.0
O514 O 0.81636 0.52968 0.67903 0.0
N515 N 0.76826 0.51733 0.63412 0.0
C516 C 0.73382 0.47942 0.62504 0.0
C517 C 0.75108 0.48795 0.61101 0.0
C518 C 0.76824 0.50695 0.61586 0.0
C519 C 0.75127 0.50977 0.64773 0.0
C520 C 0.73383 0.49097 0.64348 0.0
H521 H 0.78232 0.51225 0.6053 0.0
H522 H 0.75203 0.5176 0.6623 0.0
H523 H 0.74903 0.56872 0.622 0.0
H524 H 0.74107 0.60504 0.67628 0.0
H525 H 0.84303 0.45802 0.64419 0.0
H526 H 0.75178 0.47958 0.59661 0.0
H527 H 0.72136 0.48467 0.65495 0.0
H528 H 0.06502 0.27097 0.93977 0.0
H529 H 0.06803 0.26854 0.97534 0.0
H530 H 0.09529 0.34487 0.9773 0.0
H531 H 0.09258 0.34738 0.94168 0.0
H532 H 0.11955 0.31547 1.00405 0.0
H533 H 0.03359 0.33185 0.98516 0.0
H534 H 0.99451 0.32307 0.96691 0.0
H535 H 0.98848 0.25123 0.99523 0.0
H536 H 0.02781 0.25941 1.0134 0.0
H537 H 0.0876 0.34916 0.10147 0.0
H538 H 0.09272 0.34552 0.06616 0.0
H539 H 0.06124 0.27081 0.06779 0.0
H540 H 0.05575 0.27444 0.10313 0.0
H541 H 0.04021 0.2969 0.03917 0.0
H542 H 0.12476 0.28101 0.05942 0.0
H543 H 0.16457 0.28877 0.07697 0.0
H544 H 0.17377 0.35851 0.04615 0.0
H545 H 0.13382 0.35134 0.0286 0.0
C546 C 0.07191 0.28718 0.9477 0.0
C547 C 0.07826 0.30949 0.93779 0.0
C548 C 0.07357 0.28577 0.9681 0.0
C549 C 0.08144 0.30669 0.9791 0.0
C550 C 0.08907 0.32851 0.96919 0.0
C551 C 0.08747 0.32992 0.94877 0.0
C552 C 0.08032 0.30635 1.0009 0.0
C553 C 0.10216 0.31165 1.01174 0.0
C554 C 0.05777 0.3008 1.01101 0.0
C555 C 0.03376 0.29614 1.0005 0.0
C556 C 0.024 0.31413 0.98742 0.0
C557 C 0.00181 0.30926 0.97709 0.0
C558 C 0.98905 0.28658 0.97988 0.0
C559 C 0.99841 0.26877 0.99307 0.0
C560 C 0.02064 0.27352 1.00339 0.0
C561 C 0.08204 0.3318 0.0944 0.0
C562 C 0.07121 0.31211 0.10525 0.0
C563 C 0.08505 0.32971 0.07413 0.0
C564 C 0.07754 0.3078 0.06419 0.0
C565 C 0.06716 0.28793 0.07504 0.0
C566 C 0.06411 0.29001 0.09532 0.0
C567 C 0.07947 0.30613 0.04243 0.0
C568 C 0.0577 0.30054 0.03156 0.0
C569 C 0.10211 0.31136 0.03232 0.0
C570 C 0.12616 0.31574 0.04282 0.0
C571 C 0.13517 0.2981 0.0565 0.0
C572 C 0.15778 0.30238 0.06643 0.0
C573 C 0.17166 0.32415 0.06271 0.0
C574 C 0.16298 0.34166 0.04903 0.0
C575 C 0.14037 0.33749 0.03907 0.0
H576 H 0.18916 0.32742 0.07041 0.0
H577 H 0.9719 0.28283 0.97184 0.0
H578 H 0.65969 0.09299 0.94197 0.0
H579 H 0.6613 0.09704 0.9775 0.0
H580 H 0.73196 0.05698 0.97861 0.0
H581 H 0.73033 0.05258 0.94309 0.0
H582 H 0.70153 0.03849 1.00546 0.0
H583 H 0.72827 0.12111 0.98762 0.0
H584 H 0.72614 0.16199 0.97066 0.0
H585 H 0.65608 0.17865 0.999 0.0
H586 H 0.65761 0.13769 1.01594 0.0
H587 H 0.72698 0.05886 0.10559 0.0
H588 H 0.73043 0.06199 0.07011 0.0
H589 H 0.65719 0.0969 0.06734 0.0
H590 H 0.65358 0.09386 0.1029 0.0
H591 H 0.69036 0.11875 0.04152 0.0
H592 H 0.66335 0.03521 0.0584 0.0
H593 H 0.66642 0.99483 0.07601 0.0
H594 H 0.73806 0.98024 0.04942 0.0
H595 H 0.73562 0.02078 0.03191 0.0
C596 C 0.67576 0.0853 0.94971 0.0
C597 C 0.69487 0.07242 0.93957 0.0
C598 C 0.67669 0.08769 0.97009 0.0
C599 C 0.69683 0.07745 0.98085 0.0
C600 C 0.71618 0.06502 0.97072 0.0
C601 C 0.71526 0.0626 0.95034 0.0
C602 C 0.69715 0.07867 1.00269 0.0
C603 C 0.69951 0.05613 1.01329 0.0
C604 C 0.69393 0.10156 1.01306 0.0
C605 C 0.69294 0.12621 1.00291 0.0
C606 C 0.7123 0.13339 0.99012 0.0
C607 C 0.71122 0.1566 0.98053 0.0
C608 C 0.69095 0.17288 0.98371 0.0
C609 C 0.67175 0.16601 0.99653 0.0
C610 C 0.67273 0.14281 1.00614 0.0
C611 C 0.71165 0.06739 0.09752 0.0
C612 C 0.68984 0.07579 0.10718 0.0
C613 C 0.71366 0.06915 0.07717 0.0
C614 C 0.69389 0.0793 0.06596 0.0
C615 C 0.67266 0.08891 0.07563 0.0
C616 C 0.67062 0.08712 0.096 0.0
C617 C 0.69478 0.07862 0.04417 0.0
C618 C 0.69253 0.10118 0.03361 0.0
C619 C 0.69816 0.05577 0.03381 0.0
C620 C 0.69942 0.03114 0.04399 0.0
C621 C 0.67983 0.02346 0.0564 0.0
C622 C 0.68145 1.00055 0.06636 0.0
C623 C 0.70245 0.98501 0.06387 0.0
C624 C 0.72183 0.99232 0.05136 0.0
C625 C 0.72033 0.01526 0.0414 0.0
H626 H 0.70369 0.96728 0.07161 0.0
H627 H 0.69016 0.19085 0.97628 0.0
H628 H 0.97918 0.65368 0.93303 0.0
H629 H 0.96646 0.65671 0.96714 0.0
H630 H 0.91546 0.71715 0.95254 0.0
H631 H 0.92825 0.71423 0.91817 0.0
H632 H 0.94622 0.729 0.98339 0.0
H633 H 0.89269 0.66026 0.96617 0.0
H634 H 0.88211 0.61889 0.95209 0.0
H635 H 0.93306 0.58277 0.99206 0.0
H636 H 0.94423 0.62397 1.00621 0.0
H637 H 0.90337 0.74034 0.07981 0.0
H638 H 0.90232 0.73175 0.04484 0.0
H639 H 0.95142 0.66791 0.0533 0.0
H640 H 0.95193 0.67592 0.08849 0.0
H641 H 0.91776 0.65815 0.02498 0.0
H642 H 0.97465 0.72542 0.03984 0.0
H643 H 0.98721 0.76613 0.05412 0.0
H644 H 0.93257 0.80425 0.01841 0.0
H645 H 0.91939 0.76368 1.00415 0.0
C646 C 0.96494 0.66738 0.93698 0.0
C647 C 0.95473 0.68372 0.92283 0.0
C648 C 0.9576 0.66901 0.95652 0.0
C649 C 0.93988 0.68706 0.96247 0.0
C650 C 0.92911 0.70301 0.94831 0.0
C651 C 0.9363 0.70122 0.92863 0.0
C652 C 0.93419 0.69034 0.98365 0.0
C653 C 0.93944 0.71366 0.99239 0.0
C654 C 0.92618 0.6701 0.99557 0.0
C655 C 0.91944 0.64526 0.98715 0.0
C656 C 0.90179 0.64352 0.97186 0.0
C657 C 0.89566 0.62009 0.96388 0.0
C658 C 0.90695 0.59822 0.97115 0.0
C659 C 0.92434 0.59973 0.98644 0.0
C660 C 0.93056 0.62312 0.99446 0.0
C661 C 0.91367 0.7242 0.07434 0.0
C662 C 0.92821 0.70915 0.08702 0.0
C663 C 0.91312 0.71939 0.05426 0.0
C664 C 0.92734 0.69959 0.04629 0.0
C665 C 0.94048 0.68347 0.05903 0.0
C666 C 0.94086 0.68815 0.0792 0.0
C667 C 0.92981 0.6968 0.02468 0.0
C668 C 0.92416 0.67358 1.01591 0.0
C669 C 0.93776 0.71704 1.0127 0.0
C670 C 0.94585 0.74149 0.02108 0.0
C671 C 0.96519 0.74247 0.03513 0.0
C672 C 0.97244 0.76551 0.04322 0.0
C673 C 0.96065 0.78776 0.03721 0.0
C674 C 0.94165 0.787 0.02307 0.0
C675 C 0.93429 0.76399 1.01498 0.0
H676 H 0.96628 0.80558 0.04348 0.0
H677 H 0.90218 0.5801 0.96495 0.0
H678 H 0.30828 0.88378 0.93915 0.0
H679 H 0.30905 0.883 0.97512 0.0
H680 H 0.31052 0.96407 0.97617 0.0
H681 H 0.30893 0.9651 0.94061 0.0
H682 H 0.35038 0.93557 0.99915 0.0
H683 H 0.26006 0.94112 0.98642 0.0
H684 H 0.21977 0.92553 0.9733 0.0
H685 H 0.22696 0.85833 1.00774 0.0
H686 H 0.2676 0.8733 0.02075 0.0
H687 H 0.33014 0.98838 0.08993 0.0
H688 H 0.32975 0.9748 0.05622 0.0
H689 H 0.30151 0.90214 0.07357 0.0
H690 H 0.30092 0.91617 0.10786 0.0
H691 H 0.27767 0.9166 0.04192 0.0
H692 H 0.36387 0.9104 0.05765 0.0
H693 H 0.405 0.92284 0.07126 0.0
H694 H 0.40785 0.98565 0.03188 0.0
H695 H 0.36656 0.97383 0.01822 0.0
C696 C 0.3086 0.90143 0.94706 0.0
C697 C 0.30867 0.9245 0.9369 0.0
C698 C 0.30899 0.90094 0.9676 0.0
C699 C 0.30988 0.92349 0.97832 0.0
C700 C 0.30987 0.94645 0.96821 0.0
C701 C 0.30896 0.94697 0.94781 0.0
C702 C 0.3118 0.92361 1.00003 0.0
C703 C 0.33449 0.93148 1.00853 0.0
C704 C 0.29141 0.91717 1.0123 0.0
C705 C 0.26712 0.90813 1.00428 0.0
C706 C 0.25327 0.92284 0.99096 0.0
C707 C 0.23032 0.91415 0.98359 0.0
C708 C 0.22088 0.89089 0.9896 0.0
C709 C 0.23434 0.8763 1.00303 0.0
C710 C 0.25735 0.88487 1.01039 0.0
C711 C 0.324 0.96938 0.08678 0.0
C712 C 0.3157 0.95334 0.10179 0.0
C713 C 0.32395 0.96155 0.06733 0.0
C714 C 0.31615 0.9372 0.06219 0.0
C715 C 0.30781 0.92098 0.0771 0.0
C716 C 0.30761 0.92896 0.09673 0.0
C717 C 0.31608 0.92953 0.04113 0.0
C718 C 0.2938 0.92022 0.03268 0.0
C719 C 0.33707 0.93408 0.02888 0.0
C720 C 0.36202 0.94127 0.03697 0.0
C721 C 0.37319 0.92696 0.05197 0.0
C722 C 0.39655 0.93389 0.05968 0.0
C723 C 0.40901 0.95504 0.05246 0.0
C724 C 0.39817 0.96927 0.03746 0.0
C725 C 0.3748 0.96243 0.0297 0.0
H726 H 0.4271 0.96038 0.05845 0.0
H727 H 0.20308 0.88422 0.98391 0.0
H728 H 0.58812 0.15737 0.44511 0.0
H729 H 0.5874 0.15903 0.4808 0.0
H730 H 0.55424 0.23311 0.47835 0.0
H731 H 0.55455 0.23146 0.44267 0.0
H732 H 0.60565 0.18828 0.51016 0.0
H733 H 0.50888 0.2372 0.51289 0.0
H734 H 0.4718 0.24329 0.4916 0.0
H735 H 0.48745 0.17328 0.46267 0.0
H736 H 0.52433 0.16657 0.48402 0.0
H737 H 0.57242 0.21667 0.61042 0.0
H738 H 0.58283 0.21847 0.57551 0.0
H739 H 0.52599 0.16273 0.56344 0.0
H740 H 0.51534 0.16118 0.59797 0.0
H741 H 0.52075 0.19958 0.53883 0.0
H742 H 0.59052 0.1496 0.56172 0.0
H743 H 0.62771 0.14015 0.58209 0.0
H744 H 0.66524 0.20536 0.55945 0.0
H745 H 0.62813 0.21537 0.53911 0.0
C746 C 0.58103 0.17421 0.45212 0.0
C747 C 0.57106 0.19414 0.44093 0.0
C748 C 0.5807 0.17515 0.4726 0.0
C749 C 0.57039 0.19601 0.48236 0.0
C750 C 0.56191 0.21661 0.47121 0.0
C751 C 0.56212 0.21564 0.45076 0.0
C752 C 0.5665 0.19528 0.50398 0.0
C753 C 0.58712 0.19091 0.51645 0.0
C754 C 0.54228 0.19824 0.51227 0.0
C755 C 0.5195 0.20154 0.49993 0.0
C756 C 0.50429 0.22303 0.50209 0.0
C757 C 0.48332 0.2266 0.48999 0.0
C758 C 0.47732 0.20873 0.47575 0.0
C759 C 0.49215 0.18714 0.47367 0.0
C760 C 0.51307 0.18344 0.48577 0.0
C761 C 0.56244 0.20452 0.60036 0.0
C762 C 0.54297 0.18885 0.60705 0.0
C763 C 0.56838 0.20558 0.58035 0.0
C764 C 0.55515 0.19078 0.56669 0.0
C765 C 0.53634 0.17454 0.57354 0.0
C766 C 0.53033 0.1736 0.59338 0.0
C767 C 0.55993 0.19265 0.54518 0.0
C768 C 0.53939 0.19722 0.53265 0.0
C769 C 0.58413 0.18939 0.53688 0.0
C770 C 0.60646 0.18338 0.54906 0.0
C771 C 0.60663 0.16203 0.5612 0.0
C772 C 0.62771 0.15655 0.57272 0.0
C773 C 0.6488 0.17219 0.57211 0.0
C774 C 0.64888 0.19329 0.55993 0.0
C775 C 0.62784 0.19886 0.54839 0.0
H776 H 0.6651 0.16792 0.58103 0.0
H777 H 0.46116 0.21159 0.46634 0.0
H778 H 0.79226 0.57675 0.41939 0.0
H779 H 0.79145 0.5864 0.45448 0.0
H780 H 0.84876 0.53022 0.46464 0.0
H781 H 0.84929 0.52029 0.42991 0.0
H782 H 0.81233 0.52327 0.48916 0.0
H783 H 0.86025 0.59499 0.46816 0.0
H784 H 0.8686 0.63321 0.44882 0.0
H785 H 0.80272 0.66848 0.47268 0.0
H786 H 0.7938 0.63033 0.49198 0.0
H787 H 0.84919 0.58879 0.5858 0.0
H788 H 0.84961 0.58871 0.55 0.0
H789 H 0.77661 0.55347 0.54931 0.0
H790 H 0.77626 0.55305 0.58497 0.0
H791 H 0.82107 0.60719 0.5202 0.0
H792 H 0.77479 0.50959 0.51411 0.0
H793 H 0.76913 0.47154 0.53429 0.0
H794 H 0.838 0.48739 0.56481 0.0
H795 H 0.84425 0.52529 0.54461 0.0
C796 C 0.80503 0.56685 0.42907 0.0
C797 C 0.82079 0.54769 0.42183 0.0
C798 C 0.80454 0.57234 0.44917 0.0
C799 C 0.82 0.55898 0.46234 0.0
C800 C 0.83646 0.54065 0.45491 0.0
C801 C 0.83682 0.53506 0.43497 0.0
C802 C 0.81828 0.56283 0.48395 0.0
C803 C 0.8142 0.54168 0.49586 0.0
C804 C 0.82086 0.58676 0.4929 0.0
C805 C 0.82622 0.60971 0.48136 0.0
C806 C 0.84744 0.61082 0.46916 0.0
C807 C 0.8523 0.63249 0.45824 0.0
C808 C 0.83617 0.65324 0.45948 0.0
C809 C 0.81518 0.65239 0.47171 0.0
C810 C 0.81023 0.63076 0.48266 0.0
C811 C 0.8331 0.58128 0.57803 0.0
C812 C 0.81288 0.57056 0.58829 0.0
C813 C 0.83333 0.58133 0.55753 0.0
C814 C 0.81334 0.5707 0.54689 0.0
C815 C 0.79249 0.56134 0.55714 0.0
C816 C 0.79234 0.56109 0.57757 0.0
C817 C 0.81507 0.56765 0.52524 0.0
C818 C 0.81908 0.58886 0.51339 0.0
C819 C 0.81287 0.54371 0.51629 0.0
C820 C 0.80985 0.52038 0.52796 0.0
C821 C 0.78881 0.50484 0.52503 0.0
C822 C 0.78548 0.48333 0.53649 0.0
C823 C 0.80315 0.4771 0.55086 0.0
C824 C 0.82429 0.49227 0.55371 0.0
C825 C 0.82774 0.51376 0.54225 0.0
H826 H 0.80048 0.4605 0.55978 0.0
H827 H 0.83996 0.66999 0.45101 0.0
H828 H 0.42865 0.77397 0.60002 0.0
H829 H 0.42495 0.77059 0.56453 0.0
H830 H 0.40767 0.84979 0.5609 0.0
H831 H 0.41125 0.85333 0.59643 0.0
H832 H 0.38008 0.82177 0.53427 0.0
H833 H 0.46688 0.82978 0.55459 0.0
H834 H 0.50361 0.81698 0.57435 0.0
H835 H 0.50275 0.74395 0.54746 0.0
H836 H 0.46567 0.75618 0.52781 0.0
H837 H 0.41731 0.84957 0.43718 0.0
H838 H 0.41072 0.84717 0.47238 0.0
H839 H 0.43676 0.7702 0.47234 0.0
H840 H 0.44391 0.77265 0.43712 0.0
H841 H 0.45836 0.79442 0.50102 0.0
H842 H 0.37342 0.7863 0.4793 0.0
H843 H 0.33501 0.7973 0.46088 0.0
H844 H 0.33115 0.86841 0.49055 0.0
H845 H 0.36976 0.85799 0.50897 0.0
C846 C 0.42379 0.79063 0.59173 0.0
C847 C 0.42069 0.81402 0.60109 0.0
C848 C 0.42165 0.78866 0.57141 0.0
C849 C 0.41652 0.81004 0.55998 0.0
C850 C 0.41175 0.83305 0.56938 0.0
C851 C 0.41383 0.83504 0.58973 0.0
C852 C 0.41815 0.80888 0.53827 0.0
C853 C 0.39724 0.81601 0.52696 0.0
C854 C 0.44036 0.80079 0.52873 0.0
C855 C 0.46337 0.79382 0.53985 0.0
C856 C 0.47448 0.81097 0.55293 0.0
C857 C 0.49534 0.80381 0.56413 0.0
C858 C 0.50547 0.77964 0.5622 0.0
C859 C 0.49486 0.76265 0.54897 0.0
C860 C 0.47392 0.76969 0.53779 0.0
C861 C 0.42132 0.83199 0.44457 0.0
C862 C 0.43117 0.81131 0.43424 0.0
C863 C 0.41747 0.83061 0.46477 0.0
C864 C 0.42302 0.80842 0.47513 0.0
C865 C 0.43235 0.78756 0.46476 0.0
C866 C 0.43635 0.78896 0.44457 0.0
C867 C 0.42025 0.80743 0.49684 0.0
C868 C 0.44106 0.79999 0.50821 0.0
C869 C 0.39787 0.8151 0.50642 0.0
C870 C 0.37462 0.82145 0.49539 0.0
C871 C 0.3645 0.80437 0.48179 0.0
C872 C 0.34267 0.81049 0.47137 0.0
C873 C 0.33068 0.83357 0.47451 0.0
C874 C 0.34047 0.85055 0.48812 0.0
C875 C 0.36231 0.84454 0.49857 0.0
H876 H 0.31378 0.83827 0.46642 0.0
H877 H 0.52157 0.7741 0.57094 0.0
H878 H 0.14562 0.42037 0.59846 0.0
H879 H 0.1501 0.41639 0.56319 0.0
H880 H 0.22858 0.43612 0.56785 0.0
H881 H 0.22402 0.44085 0.60324 0.0
H882 H 0.20862 0.46152 0.53939 0.0
H883 H 0.20766 0.37444 0.55645 0.0
H884 H 0.19199 0.33583 0.5722 0.0
H885 H 0.12286 0.3417 0.53988 0.0
H886 H 0.13798 0.38055 0.52411 0.0
H887 H 0.22818 0.44035 0.43808 0.0
H888 H 0.23115 0.4351 0.47353 0.0
H889 H 0.15179 0.41861 0.47593 0.0
H890 H 0.14883 0.42316 0.44052 0.0
H891 H 0.1763 0.38939 0.50084 0.0
H892 H 0.17665 0.47853 0.48595 0.0
H893 H 0.1931 0.51651 0.46971 0.0
H894 H 0.26455 0.50592 0.49802 0.0
H895 H 0.24864 0.46765 0.5142 0.0
C896 C 0.16397 0.42348 0.59208 0.0
C897 C 0.18447 0.4309 0.60378 0.0
C898 C 0.16653 0.42112 0.57181 0.0
C899 C 0.18977 0.42566 0.5627 0.0
C900 C 0.21043 0.4325 0.57443 0.0
C901 C 0.20782 0.4351 0.59471 0.0
C902 C 0.19206 0.42458 0.54093 0.0
C903 C 0.20198 0.4455 0.53103 0.0
C904 C 0.18303 0.40394 0.52981 0.0
C905 C 0.1739 0.38052 0.53921 0.0
C906 C 0.18905 0.3676 0.5528 0.0
C907 C 0.18027 0.34565 0.56171 0.0
C908 C 0.15642 0.33635 0.55707 0.0
C909 C 0.14132 0.34894 0.54347 0.0
C910 C 0.15 0.3709 0.53452 0.0
C911 C 0.2114 0.43533 0.44612 0.0
C912 C 0.18821 0.43238 0.43641 0.0
C913 C 0.21311 0.43245 0.46644 0.0
C914 C 0.19159 0.42696 0.47756 0.0
C915 C 0.16867 0.42294 0.46777 0.0
C916 C 0.167 0.42558 0.44746 0.0
C917 C 0.19254 0.42642 0.49939 0.0
C918 C 0.18319 0.40525 0.50927 0.0
C919 C 0.20216 0.44678 0.5105 0.0
C920 C 0.21153 0.47011 0.50114 0.0
C921 C 0.19591 0.48425 0.48864 0.0
C922 C 0.20513 0.50581 0.47944 0.0
C923 C 0.22987 0.51358 0.48279 0.0
C924 C 0.24541 0.49986 0.49542 0.0
C925 C 0.23629 0.47823 0.50461 0.0
H926 H 0.237 0.53026 0.47564 0.0
H927 H 0.14966 0.31936 0.564 0.0
H928 H 0.1981 0.03648 0.17099 0.0
H929 H 0.16938 0.07202 0.16855 0.0
H930 H 0.2045 0.09483 0.11467 0.0
H931 H 0.23428 0.05957 0.11751 0.0
H932 H 0.19844 0.13428 0.1378 0.0
H933 H 0.14451 0.07014 0.11479 0.0
H934 H 0.12368 0.02875 0.11396 0.0
H935 H 0.08823 0.04445 0.1689 0.0
H936 H 0.10913 0.0858 0.17023 0.0
H937 H 0.09851 0.22821 0.13444 0.0
H938 H 0.1262 0.19327 0.1253 0.0
H939 H 0.11362 0.15861 0.18132 0.0
H940 H 0.08671 0.19361 0.19083 0.0
H941 H 0.10673 0.12579 0.14928 0.0
H942 H 0.16709 0.18753 0.17337 0.0
H943 H 0.18777 0.22904 0.17314 0.0
H944 H 0.2101 0.21763 0.11357 0.0
H945 H 0.18925 0.17615 0.11339 0.0
C946 C 0.19979 0.04903 0.1586 0.0
C947 C 0.21865 0.04533 0.14454 0.0
C948 C 0.1831 0.06921 0.15709 0.0
C949 C 0.18453 0.08598 0.14129 0.0
C950 C 0.20298 0.08207 0.12694 0.0
C951 C 0.21984 0.06183 0.1285 0.0
C952 C 0.16758 0.10827 0.14067 0.0
C953 C 0.1783 0.1324 0.13983 0.0
C954 C 0.14128 0.1059 0.14338 0.0
C955 C 0.12851 0.08107 0.14264 0.0
C956 C 0.1324 0.06472 0.12676 0.0
C957 C 0.12056 0.04126 0.12619 0.0
C958 C 0.10466 0.03396 0.14137 0.0
C959 C 0.10054 0.05013 0.15714 0.0
C960 C 0.11235 0.07361 0.15779 0.0
C961 C 0.10191 0.2134 0.14496 0.0
C962 C 0.09014 0.21375 0.16337 0.0
C963 C 0.11763 0.19335 0.13964 0.0
C964 C 0.12179 0.17331 0.1526 0.0
C965 C 0.11041 0.17378 0.17103 0.0
C966 C 0.09493 0.19382 0.17641 0.0
C967 C 0.13778 0.15154 0.14716 0.0
C968 C 0.1268 0.12756 0.14682 0.0
C969 C 0.16372 0.15407 0.14312 0.0
C970 C 0.17635 0.17891 0.14329 0.0
C971 C 0.17622 0.19398 0.16017 0.0
C972 C 0.18801 0.21747 0.16013 0.0
C973 C 0.20017 0.22601 0.14333 0.0
C974 C 0.20063 0.21102 0.12656 0.0
C975 C 0.18885 0.18751 0.12652 0.0
H976 H 0.20929 0.2442 0.14332 0.0
H977 H 0.09552 0.01579 0.14091 0.0
H978 H 0.81735 0.06754 0.1695 0.0
H979 H 0.85017 0.0981 0.16215 0.0
H980 H 0.79365 0.15541 0.15304 0.0
H981 H 0.7606 0.12453 0.16002 0.0
H982 H 0.82953 0.15986 0.1265 0.0
H983 H 0.82796 0.15222 0.19594 0.0
H984 H 0.82832 0.13024 0.22765 0.0
H985 H 0.90163 0.1002 0.21525 0.0
H986 H 0.90157 0.12172 0.18333 0.0
H987 H 0.9162 0.26286 0.14048 0.0
H988 H 0.8813 0.23283 0.14199 0.0
H989 H 0.93434 0.17131 0.14411 0.0
H990 H 0.96924 0.20118 0.14273 0.0
H991 H 0.8993 0.17038 0.17409 0.0
H992 H 0.90006 0.17978 0.10419 0.0
H993 H 0.89886 0.20344 0.07323 0.0
H994 H 0.82596 0.23283 0.08782 0.0
H995 H 0.82688 0.2096 0.11901 0.0
C996 C 0.81191 0.08667 0.16603 0.0
C997 C 0.78642 0.09374 0.16559 0.0
C998 C 0.83069 0.10414 0.16181 0.0
C999 C 0.82444 0.12922 0.15743 0.0
C1000 C 0.79895 0.1362 0.15644 0.0
C1001 C 0.78008 0.11858 0.16044 0.0
C1002 C 0.84463 0.14812 0.1543 0.0
C1003 C 0.8446 0.16241 0.13704 0.0
C1004 C 0.86449 0.15129 0.16793 0.0
C1005 C 0.86465 0.1384 0.18716 0.0
C1006 C 0.84408 0.14078 0.19991 0.0
C1007 C 0.84425 0.12843 0.21794 0.0
C1008 C 0.86496 0.11378 0.22344 0.0
C1009 C 0.88559 0.11152 0.21096 0.0
C1010 C 0.88551 0.12381 0.1929 0.0
C1011 C 0.92037 0.24291 0.141 0.0
C1012 C 0.94545 0.23437 0.14148 0.0
C1013 C 0.90044 0.22578 0.14177 0.0
C1014 C 0.90525 0.19985 0.14314 0.0
C1015 C 0.93024 0.19125 0.14303 0.0
C1016 C 0.95015 0.20832 0.14207 0.0
C1017 C 0.88438 0.1818 0.1462 0.0
C1018 C 0.88424 0.16779 0.16356 0.0
C1019 C 0.86426 0.17919 0.13279 0.0
C1020 C 0.86366 0.19315 0.11404 0.0
C1021 C 0.88387 0.19147 0.10088 0.0
C1022 C 0.88322 0.20476 0.08327 0.0
C1023 C 0.86237 0.21969 0.07859 0.0
C1024 C 0.84211 0.22129 0.09148 0.0
C1025 C 0.84268 0.20804 0.10912 0.0
H1026 H 0.8619 0.22996 0.06494 0.0
H1027 H 0.86505 0.10424 0.23741 0.0
H1028 H 0.75827 0.93894 0.1169 0.0
H1029 H 0.78755 0.90285 0.11711 0.0
H1030 H 0.80233 0.9153 0.17831 0.0
H1031 H 0.77299 0.95083 0.17825 0.0
H1032 H 0.8463 0.90902 0.15371 0.0
H1033 H 0.76549 0.87053 0.16807 0.0
H1034 H 0.72114 0.86056 0.16083 0.0
H1035 H 0.74314 0.82459 0.10736 0.0
H1036 H 0.78762 0.83469 0.11415 0.0
H1037 H 0.91364 0.80436 0.18557 0.0
H1038 H 0.88059 0.83633 0.18275 0.0
H1039 H 0.85728 0.80431 0.12766 0.0
H1040 H 0.88965 0.77164 0.131 0.0
H1041 H 0.81767 0.82076 0.14568 0.0
H1042 H 0.89739 0.85634 0.13044 0.0
H1043 H 0.94215 0.86673 0.1354 0.0
H1044 H 0.9234 0.90922 0.1867 0.0
H1045 H 0.87855 0.89877 0.18221 0.0
C1046 C 0.76784 0.93388 0.13034 0.0
C1047 C 0.76331 0.94745 0.14759 0.0
C1048 C 0.78442 0.91332 0.13046 0.0
C1049 C 0.79696 0.90643 0.14776 0.0
C1050 C 0.79278 0.92031 0.16485 0.0
C1051 C 0.77597 0.94049 0.16481 0.0
C1052 C 0.81463 0.88487 0.14828 0.0
C1053 C 0.84008 0.88969 0.1521 0.0
C1054 C 0.80653 0.85979 0.14552 0.0
C1055 C 0.77983 0.85364 0.1415 0.0
C1056 C 0.76084 0.86072 0.15467 0.0
C1057 C 0.73569 0.855 0.15068 0.0
C1058 C 0.72931 0.84203 0.13362 0.0
C1059 C 0.7481 0.83468 0.12055 0.0
C1060 C 0.77328 0.84039 0.12447 0.0
C1061 C 0.90113 0.80397 0.17306 0.0
C1062 C 0.90424 0.78573 0.15844 0.0
C1063 C 0.88239 0.8223 0.17135 0.0
C1064 C 0.86692 0.82323 0.15468 0.0
C1065 C 0.86908 0.80412 0.14059 0.0
C1066 C 0.88752 0.78543 0.14251 0.0
C1067 C 0.84945 0.8448 0.15155 0.0
C1068 C 0.82406 0.84005 0.14717 0.0
C1069 C 0.85768 0.87006 0.15341 0.0
C1070 C 0.88463 0.87659 0.15607 0.0
C1071 C 0.90283 0.86777 0.14285 0.0
C1072 C 0.92822 0.87368 0.14557 0.0
C1073 C 0.93562 0.88858 0.16138 0.0
C1074 C 0.91764 0.89766 0.17447 0.0
C1075 C 0.89223 0.89177 0.17184 0.0
H1076 H 0.95529 0.89313 0.16346 0.0
H1077 H 0.70983 0.83761 0.13055 0.0
H1078 H 0.24276 0.87257 0.13636 0.0
H1079 H 0.21039 0.84375 0.12369 0.0
H1080 H 0.15311 0.89896 0.13683 0.0
H1081 H 0.18528 0.92702 0.15007 0.0
H1082 H 0.14136 0.85706 0.15278 0.0
H1083 H 0.16931 0.88092 0.08902 0.0
H1084 H 0.19982 0.88756 0.06247 0.0
H1085 H 0.21759 0.80868 0.06235 0.0
H1086 H 0.18742 0.8016 0.0891 0.0
H1087 H 0.03486 0.79939 0.11479 0.0
H1088 H 0.07091 0.82773 0.11365 0.0
H1089 H 0.12144 0.76423 0.11637 0.0
H1090 H 0.08532 0.73555 0.11734 0.0
H1091 H 0.13757 0.80832 0.09102 0.0
H1092 H 0.11016 0.78639 0.15649 0.0
H1093 H 0.07786 0.78092 0.1819 0.0
H1094 H 0.05801 0.85912 0.17738 0.0
H1095 H 0.08992 0.86493 0.15167 0.0
C1096 C 0.22329 0.8786 0.13605 0.0
C1097 C 0.21632 0.90176 0.14429 0.0
C1098 C 0.20481 0.86222 0.1288 0.0
C1099 C 0.17923 0.86912 0.12937 0.0
C1100 C 0.17264 0.89307 0.1364 0.0
C1101 C 0.19096 0.90912 0.14391 0.0
C1102 C 0.15901 0.85066 0.12486 0.0
C1103 C 0.14047 0.84676 0.1391 0.0
C1104 C 0.15808 0.83658 0.10728 0.0
C1105 C 0.17628 0.84078 0.09122 0.0
C1106 C 0.17988 0.86502 0.08346 0.0
C1107 C 0.19708 0.86886 0.06834 0.0
C1108 C 0.21069 0.84857 0.06076 0.0
C1109 C 0.20707 0.82439 0.06825 0.0
C1110 C 0.1899 0.82045 0.08338 0.0
C1111 C 0.0536 0.79134 0.1145 0.0
C1112 C 0.05723 0.76521 0.1163 0.0
C1113 C 0.07419 0.80759 0.11389 0.0
C1114 C 0.09879 0.79805 0.11501 0.0
C1115 C 0.10258 0.77192 0.1154 0.0
C1116 C 0.08195 0.75561 0.11616 0.0
C1117 C 0.12 0.81542 0.11876 0.0
C1118 C 0.13868 0.81886 0.10456 0.0
C1119 C 0.12108 0.82938 0.1363 0.0
C1120 C 0.10224 0.82603 0.15203 0.0
C1121 C 0.09877 0.80237 0.16081 0.0
C1122 C 0.08055 0.79921 0.17528 0.0
C1123 C 0.06584 0.81965 0.18122 0.0
C1124 C 0.06939 0.8433 0.17275 0.0
C1125 C 0.08754 0.84654 0.15823 0.0
H1126 H 0.05174 0.81717 0.19242 0.0
H1127 H 0.22399 0.85158 0.04906 0.0
H1128 H 0.70739 0.46888 0.394 0.0
H1129 H 0.67853 0.43347 0.39726 0.0
H1130 H 0.73924 0.3818 0.38492 0.0
H1131 H 0.76807 0.41735 0.38114 0.0
H1132 H 0.70112 0.37007 0.36365 0.0
H1133 H 0.71109 0.38707 0.4315 0.0
H1134 H 0.71231 0.41262 0.46155 0.0
H1135 H 0.63438 0.43185 0.45393 0.0
H1136 H 0.63277 0.40669 0.42367 0.0
H1137 H 0.62305 0.26322 0.38205 0.0
H1138 H 0.65657 0.29439 0.38685 0.0
H1139 H 0.6012 0.35387 0.38724 0.0
H1140 H 0.56775 0.32286 0.38242 0.0
H1141 H 0.63894 0.35859 0.41677 0.0
H1142 H 0.63128 0.34439 0.34716 0.0
H1143 H 0.63051 0.31812 0.31747 0.0
H1144 H 0.70564 0.29251 0.32963 0.0
H1145 H 0.70671 0.31837 0.35957 0.0
C1146 C 0.7147 0.44994 0.39242 0.0
C1147 C 0.74 0.44587 0.38736 0.0
C1148 C 0.69818 0.42966 0.39431 0.0
C1149 C 0.7067 0.40484 0.39154 0.0
C1150 C 0.73218 0.40073 0.3871 0.0
C1151 C 0.74864 0.42104 0.38497 0.0
C1152 C 0.68865 0.38345 0.39176 0.0
C1153 C 0.68793 0.3673 0.37551 0.0
C1154 C 0.67101 0.37999 0.40701 0.0
C1155 C 0.67187 0.39513 0.42522 0.0
C1156 C 0.69426 0.39689 0.43615 0.0
C1157 C 0.69501 0.41128 0.45323 0.0
C1158 C 0.67345 0.42389 0.45962 0.0
C1159 C 0.65107 0.42208 0.44896 0.0
C1160 C 0.65022 0.40774 0.43185 0.0
C1161 C 0.61807 0.28292 0.38339 0.0
C1162 C 0.59284 0.29066 0.38172 0.0
C1163 C 0.63718 0.30068 0.38605 0.0
C1164 C 0.63133 0.32643 0.38731 0.0
C1165 C 0.6061 0.3341 0.38631 0.0
C1166 C 0.58705 0.31641 0.38339 0.0
C1167 C 0.65152 0.34557 0.38869 0.0
C1168 C 0.6525 0.36127 0.40515 0.0
C1169 C 0.66955 0.34852 0.37374 0.0
C1170 C 0.66896 0.33306 0.35572 0.0
C1171 C 0.64755 0.33297 0.3436 0.0
C1172 C 0.64707 0.3182 0.32671 0.0
C1173 C 0.66798 0.30359 0.3217 0.0
C1174 C 0.68944 0.30379 0.33355 0.0
C1175 C 0.68999 0.31851 0.35047 0.0
H1176 H 0.66758 0.29217 0.30861 0.0
H1177 H 0.67407 0.43501 0.47286 0.0
H1178 H 0.54168 0.70279 0.40805 0.0
H1179 H 0.57895 0.67609 0.41064 0.0
H1180 H 0.62623 0.74201 0.41147 0.0
H1181 H 0.58888 0.76885 0.4086 0.0
H1182 H 0.64282 0.71046 0.38557 0.0
H1183 H 0.62022 0.7028 0.45227 0.0
H1184 H 0.5924 0.69571 0.48046 0.0
H1185 H 0.57844 0.62015 0.46107 0.0
H1186 H 0.6059 0.62688 0.43259 0.0
H1187 H 0.74692 0.62574 0.3865 0.0
H1188 H 0.71877 0.65856 0.39925 0.0
H1189 H 0.65648 0.60674 0.39646 0.0
H1190 H 0.68449 0.57396 0.38431 0.0
H1191 H 0.65325 0.636 0.42855 0.0
H1192 H 0.66893 0.6477 0.35896 0.0
H1193 H 0.69619 0.6549 0.33041 0.0
H1194 H 0.723 0.72364 0.356 0.0
H1195 H 0.69609 0.71665 0.38482 0.0
C1196 C 0.55995 0.71163 0.4093 0.0
C1197 C 0.56234 0.73792 0.40808 0.0
C1198 C 0.5813 0.69633 0.41081 0.0
C1199 C 0.60547 0.707 0.41143 0.0
C1200 C 0.60782 0.73332 0.41101 0.0
C1201 C 0.58647 0.74863 0.40934 0.0
C1202 C 0.62818 0.6906 0.41052 0.0
C1203 C 0.64541 0.69457 0.39532 0.0
C1204 C 0.6315 0.66962 0.42304 0.0
C1205 C 0.61504 0.66541 0.44021 0.0
C1206 C 0.61109 0.68472 0.45393 0.0
C1207 C 0.5954 0.68076 0.46998 0.0
C1208 C 0.58363 0.65751 0.47254 0.0
C1209 C 0.58758 0.63815 0.45907 0.0
C1210 C 0.60324 0.64202 0.44298 0.0
C1211 C 0.72734 0.62127 0.389 0.0
C1212 C 0.71782 0.59741 0.38408 0.0
C1213 C 0.71125 0.64004 0.39618 0.0
C1214 C 0.68542 0.63521 0.39853 0.0
C1215 C 0.67628 0.61096 0.39471 0.0
C1216 C 0.69227 0.59231 0.38755 0.0
C1217 C 0.6673 0.6556 0.40335 0.0
C1218 C 0.65093 0.65233 0.4192 0.0
C1219 C 0.66474 0.67726 0.39147 0.0
C1220 C 0.68077 0.6815 0.37412 0.0
C1221 C 0.68078 0.66425 0.35854 0.0
C1222 C 0.69614 0.6683 0.34231 0.0
C1223 C 0.71138 0.68967 0.34142 0.0
C1224 C 0.71123 0.70707 0.35673 0.0
C1225 C 0.69593 0.70308 0.37301 0.0
H1226 H 0.72326 0.69277 0.32884 0.0
H1227 H 0.57149 0.65448 0.48497 0.0
H1228 H 0.30712 0.52922 0.39769 0.0
H1229 H 0.33744 0.56374 0.39669 0.0
H1230 H 0.27712 0.61728 0.40473 0.0
H1231 H 0.2467 0.58276 0.40512 0.0
H1232 H 0.30481 0.63213 0.37631 0.0
H1233 H 0.32304 0.60375 0.44111 0.0
H1234 H 0.3337 0.573 0.46682 0.0
H1235 H 0.40348 0.55626 0.4381 0.0
H1236 H 0.39308 0.58667 0.41206 0.0
H1237 H 0.38698 0.73729 0.38592 0.0
H1238 H 0.35643 0.70441 0.39387 0.0
H1239 H 0.41097 0.64742 0.37886 0.0
H1240 H 0.44166 0.68011 0.37125 0.0
H1241 H 0.38559 0.63589 0.41265 0.0
H1242 H 0.36557 0.66255 0.34705 0.0
H1243 H 0.35478 0.69351 0.32152 0.0
H1244 H 0.28778 0.71387 0.35271 0.0
H1245 H 0.29836 0.68324 0.37858 0.0
C1246 C 0.30043 0.54832 0.39968 0.0
C1247 C 0.27457 0.55332 0.40151 0.0
C1248 C 0.31778 0.56808 0.39912 0.0
C1249 C 0.30967 0.59322 0.40079 0.0
C1250 C 0.28389 0.59811 0.40335 0.0
C1251 C 0.26652 0.57839 0.40363 0.0
C1252 C 0.32773 0.61442 0.39846 0.0
C1253 C 0.32222 0.63315 0.38458 0.0
C1254 C 0.35081 0.61558 0.40885 0.0
C1255 C 0.35718 0.59736 0.42454 0.0
C1256 C 0.34058 0.59339 0.4402 0.0
C1257 C 0.34659 0.57604 0.45485 0.0
C1258 C 0.36923 0.56265 0.45407 0.0
C1259 C 0.38594 0.56663 0.43867 0.0
C1260 C 0.38001 0.58395 0.42398 0.0
C1261 C 0.39253 0.71777 0.38448 0.0
C1262 C 0.41671 0.71135 0.37779 0.0
C1263 C 0.37501 0.699 0.38892 0.0
C1264 C 0.38136 0.67345 0.38681 0.0
C1265 C 0.40565 0.667 0.38056 0.0
C1266 C 0.42309 0.68573 0.37602 0.0
C1267 C 0.36255 0.6534 0.39058 0.0
C1268 C 0.36799 0.6349 0.40462 0.0
C1269 C 0.33934 0.65249 0.38044 0.0
C1270 C 0.3329 0.67081 0.36485 0.0
C1271 C 0.34864 0.67377 0.34854 0.0
C1272 C 0.34255 0.69124 0.334 0.0
C1273 C 0.32064 0.7057 0.33552 0.0
C1274 C 0.30476 0.70268 0.35157 0.0
C1275 C 0.31079 0.68527 0.36617 0.0
H1276 H 0.31595 0.71921 0.32424 0.0
H1277 H 0.37384 0.54922 0.46542 0.0
H1278 H 0.27514 0.40538 0.40872 0.0
H1279 H 0.30611 0.37287 0.4173 0.0
H1280 H 0.32512 0.36447 0.35646 0.0
H1281 H 0.29411 0.39673 0.34782 0.0
H1282 H 0.31939 0.31857 0.37577 0.0
H1283 H 0.36179 0.39865 0.38551 0.0
H1284 H 0.36653 0.44071 0.4003 0.0
H1285 H 0.36814 0.40761 0.45749 0.0
H1286 H 0.36306 0.36535 0.44303 0.0
H1287 H 0.4385 0.26569 0.36794 0.0
H1288 H 0.40168 0.29291 0.36785 0.0
H1289 H 0.4019 0.29385 0.43084 0.0
H1290 H 0.43915 0.26625 0.43105 0.0
H1291 H 0.39398 0.34043 0.41608 0.0
H1292 H 0.35759 0.26007 0.40673 0.0
H1293 H 0.35244 0.21769 0.39265 0.0
H1294 H 0.33813 0.25006 0.33624 0.0
H1295 H 0.34358 0.29265 0.34991 0.0
C1296 C 0.28573 0.39639 0.39717 0.0
C1297 C 0.28226 0.40365 0.37758 0.0
C1298 C 0.30351 0.37795 0.40211 0.0
C1299 C 0.31801 0.36638 0.38752 0.0
C1300 C 0.31414 0.37319 0.36794 0.0
C1301 C 0.29657 0.39174 0.36303 0.0
C1302 C 0.33766 0.34756 0.39251 0.0
C1303 C 0.33576 0.32334 0.38451 0.0
C1304 C 0.35851 0.35353 0.40455 0.0
C1305 C 0.36174 0.3789 0.41321 0.0
C1306 C 0.36294 0.40037 0.40125 0.0
C1307 C 0.36573 0.42424 0.40957 0.0
C1308 C 0.36756 0.42684 0.42983 0.0
C1309 C 0.36668 0.40557 0.44181 0.0
C1310 C 0.36385 0.38166 0.43356 0.0
C1311 C 0.43054 0.27129 0.38183 0.0
C1312 C 0.44152 0.26341 0.39952 0.0
C1313 C 0.40947 0.28694 0.38174 0.0
C1314 C 0.39867 0.29501 0.39933 0.0
C1315 C 0.40982 0.28767 0.41709 0.0
C1316 C 0.43109 0.27196 0.41719 0.0
C1317 C 0.37613 0.31161 0.3988 0.0
C1318 C 0.37742 0.33542 0.40764 0.0
C1319 C 0.35456 0.30518 0.38767 0.0
C1320 C 0.35114 0.27958 0.37935 0.0
C1321 C 0.35352 0.25816 0.3913 0.0
C1322 C 0.35052 0.23409 0.38339 0.0
C1323 C 0.34499 0.23118 0.36356 0.0
C1324 C 0.34241 0.25234 0.3516 0.0
C1325 C 0.34542 0.27646 0.35943 0.0
H1326 H 0.34268 0.21253 0.35746 0.0
H1327 H 0.36972 0.44534 0.43624 0.0
H1328 H 0.88511 0.79005 0.84459 0.0
H1329 H 0.8582 0.82328 0.85749 0.0
H1330 H 0.88292 0.80582 0.91598 0.0
H1331 H 0.9103 0.77227 0.90298 0.0
H1332 H 0.82898 0.81862 0.91177 0.0
H1333 H 0.90995 0.85242 0.89747 0.0
H1334 H 0.94817 0.85864 0.87776 0.0
H1335 H 0.90389 0.89186 0.83193 0.0
H1336 H 0.86533 0.88546 0.85123 0.0
H1337 H 0.77331 0.94161 0.93291 0.0
H1338 H 0.8031 0.90601 0.93321 0.0
H1339 H 0.80233 0.90489 0.87023 0.0
H1340 H 0.77328 0.94031 0.86982 0.0
H1341 H 0.84974 0.90271 0.88474 0.0
H1342 H 0.76882 0.86257 0.89681 0.0
H1343 H 0.73009 0.85527 0.91573 0.0
H1344 H 0.77429 0.83416 0.96574 0.0
H1345 H 0.8133 0.84166 0.94716 0.0
C1346 C 0.88472 0.79312 0.86022 0.0
C1347 C 0.90015 0.77888 0.87274 0.0
C1348 C 0.86926 0.81204 0.86758 0.0
C1349 C 0.86892 0.81729 0.88764 0.0
C1350 C 0.88302 0.80209 0.90043 0.0
C1351 C 0.89858 0.78296 0.89301 0.0
C1352 C 0.85524 0.83995 0.89458 0.0
C1353 C 0.83381 0.83714 0.90629 0.0
C1354 C 0.86152 0.86407 0.88734 0.0
C1355 C 0.88472 0.86835 0.87578 0.0
C1356 C 0.90834 0.86092 0.88314 0.0
C1357 C 0.93007 0.86449 0.87204 0.0
C1358 C 0.92846 0.87561 0.85359 0.0
C1359 C 0.90511 0.88325 0.84622 0.0
C1360 C 0.88331 0.87969 0.85725 0.0
C1361 C 0.77959 0.93374 0.91918 0.0
C1362 C 0.77071 0.94359 0.90135 0.0
C1363 C 0.79647 0.91336 0.91936 0.0
C1364 C 0.80483 0.90271 0.90173 0.0
C1365 C 0.79614 0.91276 0.88401 0.0
C1366 C 0.77931 0.93289 0.88381 0.0
C1367 C 0.82282 0.88128 0.90124 0.0
C1368 C 0.84521 0.88435 0.89071 0.0
C1369 C 0.81737 0.85753 0.90959 0.0
C1370 C 0.79395 0.85299 0.9207 0.0
C1371 C 0.77027 0.85659 0.9119 0.0
C1372 C 0.74827 0.85237 0.92254 0.0
C1373 C 0.74973 0.84434 0.94194 0.0
C1374 C 0.77319 0.84044 0.95072 0.0
C1375 C 0.79524 0.84466 0.94015 0.0
H1376 H 0.73268 0.84108 0.95016 0.0
H1377 H 0.94531 0.87835 0.84502 0.0
H1378 H 0.23696 0.88241 0.86976 0.0
H1379 H 0.20207 0.85245 0.87293 0.0
H1380 H 0.15569 0.91129 0.89747 0.0
H1381 H 0.19005 0.94136 0.89305 0.0
H1382 H 0.17459 0.83249 0.89906 0.0
H1383 H 0.09587 0.90592 0.88416 0.0
H1384 H 0.09014 0.94635 0.86694 0.0
H1385 H 0.15113 0.92798 0.82845 0.0
H1386 H 0.15699 0.88733 0.84528 0.0
H1387 H 0.05835 0.7677 0.90954 0.0
H1388 H 0.09237 0.79821 0.9132 0.0
H1389 H 0.08423 0.81901 0.85258 0.0
H1390 H 0.04889 0.79065 0.84934 0.0
H1391 H 0.09252 0.85826 0.87064 0.0
H1392 H 0.13238 0.777 0.87178 0.0
H1393 H 0.14035 0.73386 0.88365 0.0
H1394 H 0.16082 0.76289 0.94002 0.0
H1395 H 0.15266 0.80619 0.92854 0.0
C1396 C 0.21931 0.88871 0.87594 0.0
C1397 C 0.21587 0.91409 0.8809 0.0
C1398 C 0.19942 0.87166 0.87782 0.0
C1399 C 0.17597 0.8797 0.88502 0.0
C1400 C 0.17326 0.90476 0.89129 0.0
C1401 C 0.19287 0.9219 0.88888 0.0
C1402 C 0.15399 0.86236 0.88489 0.0
C1403 C 0.15663 0.83814 0.89287 0.0
C1404 C 0.13062 0.86945 0.8765 0.0
C1405 C 0.12704 0.89373 0.86613 0.0
C1406 C 0.10799 0.91049 0.87198 0.0
C1407 C 0.10473 0.93344 0.8623 0.0
C1408 C 0.12032 0.93977 0.84666 0.0
C1409 C 0.13913 0.9231 0.84061 0.0
C1410 C 0.14244 0.90011 0.85022 0.0
C1411 C 0.06347 0.77909 0.89708 0.0
C1412 C 0.05097 0.77628 0.87904 0.0
C1413 C 0.08325 0.7963 0.89912 0.0
C1414 C 0.09136 0.8106 0.88305 0.0
C1415 C 0.07854 0.80818 0.86521 0.0
C1416 C 0.05847 0.79152 0.86329 0.0
C1417 C 0.11313 0.82815 0.88454 0.0
C1418 C 0.11042 0.85256 0.87692 0.0
C1419 C 0.13671 0.82078 0.89244 0.0
C1420 C 0.14164 0.79479 0.89937 0.0
C1421 C 0.13841 0.77416 0.88675 0.0
C1422 C 0.14298 0.74969 0.89339 0.0
C1423 C 0.15101 0.74563 0.91259 0.0
C1424 C 0.15455 0.76605 0.92516 0.0
C1425 C 0.14996 0.79056 0.91859 0.0
H1426 H 0.15455 0.72667 0.91771 0.0
H1427 H 0.11779 0.95756 0.8392 0.0
H1428 H 0.21483 0.03534 0.9049 0.0
H1429 H 0.18553 0.07071 0.90328 0.0
H1430 H 0.24769 0.12226 0.89825 0.0
H1431 H 0.27735 0.08682 0.90011 0.0
H1432 H 0.2064 0.13981 0.92278 0.0
H1433 H 0.22165 0.10637 0.85846 0.0
H1434 H 0.22496 0.07238 0.83407 0.0
H1435 H 0.14725 0.05371 0.84289 0.0
H1436 H 0.1436 0.08735 0.86758 0.0
H1437 H 0.13084 0.24023 0.88362 0.0
H1438 H 0.16405 0.20921 0.89025 0.0
H1439 H 0.10994 0.14925 0.88415 0.0
H1440 H 0.07703 0.18006 0.87717 0.0
H1441 H 0.15004 0.13767 0.86489 0.0
H1442 H 0.13405 0.16928 0.92945 0.0
H1443 H 0.12986 0.20187 0.95489 0.0
H1444 H 0.20712 0.22284 0.94689 0.0
H1445 H 0.21167 0.19059 0.92119 0.0
C1446 C 0.22237 0.05422 0.90399 0.0
C1447 C 0.24846 0.05826 0.90261 0.0
C1448 C 0.20557 0.07441 0.90292 0.0
C1449 C 0.21445 0.09904 0.90046 0.0
C1450 C 0.24048 0.10337 0.90014 0.0
C1451 C 0.25737 0.08311 0.90108 0.0
C1452 C 0.19643 0.1198 0.89656 0.0
C1453 C 0.19428 0.13961 0.91 0.0
C1454 C 0.18037 0.11922 0.88006 0.0
C1455 C 0.18242 0.09924 0.86499 0.0
C1456 C 0.20532 0.0949 0.8553 0.0
C1457 C 0.20725 0.07571 0.84141 0.0
C1458 C 0.18634 0.06086 0.83696 0.0
C1459 C 0.16344 0.06521 0.84636 0.0
C1460 C 0.16142 0.08435 0.86029 0.0
C1461 C 0.12607 0.22043 0.88386 0.0
C1462 C 0.10138 0.21256 0.87976 0.0
C1463 C 0.14503 0.20272 0.88769 0.0
C1464 C 0.13951 0.17684 0.88784 0.0
C1465 C 0.11475 0.16906 0.884 0.0
C1466 C 0.09594 0.18669 0.87997 0.0
C1467 C 0.15948 0.15764 0.89132 0.0
C1468 C 0.16213 0.13807 0.87768 0.0
C1469 C 0.17577 0.15839 0.90774 0.0
C1470 C 0.17312 0.17771 0.92325 0.0
C1471 C 0.15009 0.18097 0.93301 0.0
C1472 C 0.14766 0.19936 0.94749 0.0
C1473 C 0.16819 0.21446 0.95246 0.0
C1474 C 0.19122 0.21115 0.943 0.0
C1475 C 0.19374 0.19281 0.92848 0.0
H1476 H 0.16627 0.22869 0.96368 0.0
H1477 H 0.18788 0.046 0.82621 0.0
H1478 H 0.7662 0.12141 0.88972 0.0
H1479 H 0.79817 0.15292 0.89805 0.0
H1480 H 0.85664 0.09808 0.88784 0.0
H1481 H 0.82486 0.06656 0.87972 0.0
H1482 H 0.86479 0.1264 0.92154 0.0
H1483 H 0.84345 0.13991 0.8535 0.0
H1484 H 0.81438 0.14841 0.82613 0.0
H1485 H 0.7923 0.21819 0.85277 0.0
H1486 H 0.82102 0.20993 0.88045 0.0
H1487 H 0.97445 0.1981 0.90415 0.0
H1488 H 0.93847 0.16963 0.9046 0.0
H1489 H 0.88797 0.23329 0.9072 0.0
H1490 H 0.92401 0.26188 0.90634 0.0
H1491 H 0.87271 0.20271 0.88031 0.0
H1492 H 0.89681 0.19202 0.94674 0.0
H1493 H 0.92541 0.18403 0.97448 0.0
H1494 H 0.94137 0.11012 0.9523 0.0
H1495 H 0.91314 0.11778 0.92425 0.0
C1496 C 0.78586 0.11605 0.88943 0.0
C1497 C 0.79302 0.09157 0.8839 0.0
C1498 C 0.80409 0.13407 0.8941 0.0
C1499 C 0.82979 0.12786 0.89344 0.0
C1500 C 0.83693 0.10327 0.88843 0.0
C1501 C 0.81876 0.08535 0.8836 0.0
C1502 C 0.84939 0.1471 0.89727 0.0
C1503 C 0.86667 0.14304 0.91249 0.0
C1504 C 0.85133 0.16915 0.8858 0.0
C1505 C 0.83415 0.17416 0.86914 0.0
C1506 C 0.83223 0.15696 0.8536 0.0
C1507 C 0.81585 0.16175 0.83802 0.0
C1508 C 0.80144 0.18379 0.83774 0.0
C1509 C 0.80344 0.20111 0.85303 0.0
C1510 C 0.81977 0.19639 0.86866 0.0
C1511 C 0.95571 0.20602 0.90528 0.0
C1512 C 0.95205 0.23223 0.90523 0.0
C1513 C 0.93511 0.18971 0.90555 0.0
C1514 C 0.91042 0.19925 0.9061 0.0
C1515 C 0.90679 0.22544 0.90672 0.0
C1516 C 0.92739 0.24177 0.90626 0.0
C1517 C 0.88849 0.18197 0.90451 0.0
C1518 C 0.87073 0.18634 0.88964 0.0
C1519 C 0.88603 0.16031 0.91642 0.0
C1520 C 0.90299 0.15557 0.9333 0.0
C1521 C 0.90656 0.17413 0.94769 0.0
C1522 C 0.92268 0.16964 0.96349 0.0
C1523 C 0.93523 0.1466 0.96513 0.0
C1524 C 0.93164 0.12796 0.951 0.0
C1525 C 0.91556 0.13236 0.93516 0.0
H1526 H 0.94771 0.14316 0.97737 0.0
H1527 H 0.78877 0.18747 0.82566 0.0
H1528 H 0.37485 0.74187 0.65076 0.0
H1529 H 0.34364 0.70929 0.64333 0.0
H1530 H 0.39757 0.65177 0.6587 0.0
H1531 H 0.42885 0.68414 0.66587 0.0
H1532 H 0.37146 0.64048 0.62478 0.0
H1533 H 0.35326 0.66809 0.69052 0.0
H1534 H 0.34323 0.69963 0.71578 0.0
H1535 H 0.27555 0.71963 0.68501 0.0
H1536 H 0.28538 0.68844 0.65941 0.0
H1537 H 0.29537 0.53361 0.64228 0.0
H1538 H 0.32486 0.56878 0.6427 0.0
H1539 H 0.26326 0.62083 0.63444 0.0
H1540 H 0.2336 0.58562 0.63447 0.0
H1541 H 0.29185 0.63714 0.6623 0.0
H1542 H 0.30779 0.60776 0.5977 0.0
H1543 H 0.31756 0.57677 0.57198 0.0
H1544 H 0.38865 0.56087 0.59932 0.0
H1545 H 0.37917 0.59152 0.62536 0.0
C1546 C 0.38009 0.72228 0.6524 0.0
C1547 C 0.40427 0.71561 0.65905 0.0
C1548 C 0.36222 0.7037 0.64825 0.0
C1549 C 0.36823 0.67811 0.65059 0.0
C1550 C 0.39251 0.6714 0.65681 0.0
C1551 C 0.41029 0.68994 0.6611 0.0
C1552 C 0.34913 0.65823 0.64707 0.0
C1553 C 0.35412 0.6396 0.63306 0.0
C1554 C 0.32621 0.65752 0.6575 0.0
C1555 C 0.3202 0.67614 0.67294 0.0
C1556 C 0.33635 0.67936 0.68906 0.0
C1557 C 0.33068 0.69715 0.70345 0.0
C1558 C 0.30881 0.71168 0.70197 0.0
C1559 C 0.29251 0.70839 0.68612 0.0
C1560 C 0.29812 0.69066 0.67167 0.0
C1561 C 0.28817 0.55251 0.64014 0.0
C1562 C 0.26217 0.55685 0.63828 0.0
C1563 C 0.30506 0.57264 0.64037 0.0
C1564 C 0.29638 0.59754 0.6384 0.0
C1565 C 0.27046 0.60184 0.63602 0.0
C1566 C 0.25352 0.58172 0.63601 0.0
C1567 C 0.31416 0.61909 0.64006 0.0
C1568 C 0.30899 0.63808 0.65378 0.0
C1569 C 0.33684 0.6202 0.62925 0.0
C1570 C 0.34267 0.60181 0.61357 0.0
C1571 C 0.32543 0.59753 0.59831 0.0
C1572 C 0.33093 0.58004 0.58366 0.0
C1573 C 0.35369 0.56682 0.58404 0.0
C1574 C 0.37102 0.57111 0.59905 0.0
C1575 C 0.36561 0.58857 0.61375 0.0
H1576 H 0.35791 0.55329 0.57269 0.0
H1577 H 0.30445 0.72544 0.71312 0.0
H1578 H 0.29771 0.41726 0.69541 0.0
H1579 H 0.33285 0.38928 0.68831 0.0
H1580 H 0.30233 0.37468 0.63106 0.0
H1581 H 0.26729 0.40333 0.63776 0.0
H1582 H 0.31999 0.33081 0.65099 0.0
H1583 H 0.34935 0.41263 0.63324 0.0
H1584 H 0.35704 0.45799 0.63792 0.0
H1585 H 0.40413 0.4419 0.68746 0.0
H1586 H 0.3964 0.39644 0.68326 0.0
H1587 H 0.43425 0.26676 0.62592 0.0
H1588 H 0.39852 0.29601 0.62407 0.0
H1589 H 0.42131 0.32936 0.67877 0.0
H1590 H 0.45737 0.30109 0.68028 0.0
H1591 H 0.40678 0.36478 0.65467 0.0
H1592 H 0.37359 0.28433 0.67529 0.0
H1593 H 0.36523 0.23886 0.67207 0.0
H1594 H 0.32511 0.25216 0.61851 0.0
H1595 H 0.33352 0.2977 0.6213 0.0
C1596 C 0.29843 0.40835 0.68123 0.0
C1597 C 0.27965 0.41293 0.66711 0.0
C1598 C 0.31854 0.39222 0.67723 0.0
C1599 C 0.32036 0.38016 0.65907 0.0
C1600 C 0.30129 0.38387 0.64516 0.0
C1601 C 0.28119 0.40021 0.64908 0.0
C1602 C 0.34253 0.36408 0.6547 0.0
C1603 C 0.33897 0.33827 0.6514 0.0
C1604 C 0.36727 0.3738 0.65553 0.0
C1605 C 0.37214 0.40113 0.65802 0.0
C1606 C 0.36119 0.41877 0.64523 0.0
C1607 C 0.36558 0.4445 0.64778 0.0
C1608 C 0.38103 0.45282 0.663 0.0
C1609 C 0.39216 0.43542 0.67568 0.0
C1610 C 0.3878 0.40967 0.67321 0.0
C1611 C 0.43181 0.28058 0.63739 0.0
C1612 C 0.44848 0.28132 0.65339 0.0
C1613 C 0.41125 0.29714 0.63641 0.0
C1614 C 0.40694 0.31464 0.65146 0.0
C1615 C 0.4241 0.31597 0.66703 0.0
C1616 C 0.44461 0.29957 0.66798 0.0
C1617 C 0.38436 0.33128 0.65148 0.0
C1618 C 0.38782 0.35729 0.65395 0.0
C1619 C 0.35955 0.32169 0.65003 0.0
C1620 C 0.35445 0.29435 0.64837 0.0
C1621 C 0.36315 0.27752 0.66275 0.0
C1622 C 0.35838 0.25175 0.66102 0.0
C1623 C 0.34472 0.24262 0.64506 0.0
C1624 C 0.33574 0.25926 0.63084 0.0
C1625 C 0.3405 0.28505 0.63249 0.0
H1626 H 0.34103 0.22266 0.64375 0.0
H1627 H 0.3844 0.47275 0.66495 0.0
H1628 H 0.61766 0.29603 0.6821 0.0
H1629 H 0.64492 0.3282 0.66838 0.0
H1630 H 0.61741 0.31079 0.61059 0.0
H1631 H 0.58939 0.27866 0.62453 0.0
H1632 H 0.68239 0.32975 0.64333 0.0
H1633 H 0.61442 0.36778 0.58535 0.0
H1634 H 0.569 0.36802 0.57761 0.0
H1635 H 0.55157 0.36208 0.63863 0.0
H1636 H 0.59684 0.36212 0.64671 0.0
H1637 H 0.7455 0.43577 0.60552 0.0
H1638 H 0.72067 0.39713 0.60396 0.0
H1639 H 0.66071 0.43365 0.63554 0.0
H1640 H 0.6849 0.47262 0.63638 0.0
H1641 H 0.64134 0.4018 0.60977 0.0
H1642 H 0.70702 0.39921 0.65912 0.0
H1643 H 0.75095 0.40117 0.67076 0.0
H1644 H 0.77057 0.33926 0.6334 0.0
H1645 H 0.72679 0.33717 0.62136 0.0
C1646 C 0.61747 0.29895 0.66646 0.0
C1647 C 0.60111 0.28511 0.65443 0.0
C1648 C 0.63325 0.3172 0.65859 0.0
C1649 C 0.63306 0.32216 0.63848 0.0
C1650 C 0.61769 0.30748 0.6262 0.0
C1651 C 0.60183 0.28903 0.63413 0.0
C1652 C 0.6478 0.34387 0.63098 0.0
C1653 C 0.67349 0.34531 0.63568 0.0
C1654 C 0.63622 0.36437 0.62121 0.0
C1655 C 0.60898 0.36461 0.61658 0.0
C1656 C 0.60086 0.36657 0.59709 0.0
C1657 C 0.57516 0.36666 0.59265 0.0
C1658 C 0.55742 0.36496 0.60761 0.0
C1659 C 0.56533 0.36328 0.62705 0.0
C1660 C 0.591 0.36323 0.63156 0.0
C1661 C 0.72673 0.43584 0.61162 0.0
C1662 C 0.71735 0.45725 0.62132 0.0
C1663 C 0.71263 0.41362 0.61087 0.0
C1664 C 0.68901 0.41229 0.61998 0.0
C1665 C 0.67893 0.43413 0.62849 0.0
C1666 C 0.69291 0.45635 0.62914 0.0
C1667 C 0.6758 0.38783 0.62246 0.0
C1668 C 0.65043 0.38591 0.61684 0.0
C1669 C 0.6875 0.3671 0.63186 0.0
C1670 C 0.71375 0.36824 0.63917 0.0
C1671 C 0.72075 0.38613 0.6533 0.0
C1672 C 0.74561 0.38725 0.65998 0.0
C1673 C 0.76356 0.3704 0.65278 0.0
C1674 C 0.75666 0.35234 0.63893 0.0
C1675 C 0.73184 0.35118 0.63217 0.0
H1676 H 0.78279 0.3713 0.65797 0.0
H1677 H 0.53753 0.365 0.60415 0.0
H1678 H 0.52553 0.70407 0.61777 0.0
H1679 H 0.56075 0.67516 0.61308 0.0
H1680 H 0.61254 0.73343 0.63058 0.0
H1681 H 0.57768 0.76292 0.63392 0.0
H1682 H 0.63358 0.70706 0.60365 0.0
H1683 H 0.58906 0.68664 0.6629 0.0
H1684 H 0.55209 0.67481 0.68252 0.0
H1685 H 0.54418 0.60667 0.64934 0.0
H1686 H 0.58095 0.61827 0.62935 0.0
H1687 H 0.73088 0.64131 0.65329 0.0
H1688 H 0.69438 0.66658 0.6435 0.0
H1689 H 0.66318 0.60242 0.61348 0.0
H1690 H 0.70014 0.5771 0.62305 0.0
H1691 H 0.63017 0.62746 0.64143 0.0
H1692 H 0.68118 0.64675 0.58612 0.0
H1693 H 0.71994 0.65963 0.5692 0.0
H1694 H 0.71756 0.73132 0.5981 0.0
H1695 H 0.67898 0.71874 0.61544 0.0
C1696 C 0.54444 0.711 0.62014 0.0
C1697 C 0.54862 0.73585 0.62653 0.0
C1698 C 0.56459 0.69428 0.61769 0.0
C1699 C 0.58933 0.70185 0.62197 0.0
C1700 C 0.59366 0.72698 0.62735 0.0
C1701 C 0.5736 0.74379 0.6295 0.0
C1702 C 0.6106 0.68349 0.62194 0.0
C1703 C 0.63281 0.6897 0.61197 0.0
C1704 C 0.60957 0.6605 0.63245 0.0
C1705 C 0.58754 0.65347 0.64448 0.0
C1706 C 0.57932 0.66922 0.6597 0.0
C1707 C 0.55842 0.66255 0.6709 0.0
C1708 C 0.54574 0.64005 0.66714 0.0
C1709 C 0.55399 0.62413 0.6522 0.0
C1710 C 0.57485 0.63074 0.64094 0.0
C1711 C 0.71636 0.63272 0.64441 0.0
C1712 C 0.71823 0.6073 0.63893 0.0
C1713 C 0.69561 0.64716 0.63875 0.0
C1714 C 0.67614 0.63638 0.62772 0.0
C1715 C 0.67809 0.61108 0.62193 0.0
C1716 C 0.69918 0.59671 0.62729 0.0
C1717 C 0.65315 0.65136 0.62351 0.0
C1718 C 0.63069 0.64455 0.63277 0.0
C1719 C 0.65412 0.674 0.61268 0.0
C1720 C 0.67725 0.68172 0.60219 0.0
C1721 C 0.68902 0.66519 0.58899 0.0
C1722 C 0.71094 0.67245 0.5793 0.0
C1723 C 0.72123 0.69626 0.5826 0.0
C1724 C 0.70957 0.71288 0.59556 0.0
C1725 C 0.68765 0.70571 0.60531 0.0
H1726 H 0.73821 0.70185 0.57508 0.0
H1727 H 0.52957 0.63491 0.67582 0.0
H1728 H 0.16559 0.46469 0.31502 0.0
H1729 H 0.14505 0.44144 0.28901 0.0
H1730 H 0.14328 0.37517 0.32534 0.0
H1731 H 0.16437 0.39865 0.3518 0.0
H1732 H 0.15977 0.3641 0.28893 0.0
H1733 H 0.08979 0.40774 0.31512 0.0
H1734 H 0.0646 0.44344 0.32732 0.0
H1735 H 0.06836 0.47883 0.27106 0.0
H1736 H 0.09392 0.44356 0.25857 0.0
H1737 H 0.07353 0.2987 0.2271 0.0
H1738 H 0.09542 0.32027 0.25363 0.0
H1739 H 0.10612 0.38499 0.2166 0.0
H1740 H 0.08431 0.36305 0.18967 0.0
H1741 H 0.0844 0.39603 0.2538 0.0
H1742 H 0.15568 0.35119 0.22842 0.0
H1743 H 0.17882 0.31377 0.21691 0.0
H1744 H 0.16984 0.27884 0.27299 0.0
H1745 H 0.14631 0.31592 0.28476 0.0
C1746 C 0.16075 0.4452 0.31767 0.0
C1747 C 0.16674 0.43353 0.33557 0.0
C1748 C 0.14879 0.43194 0.30272 0.0
C1749 C 0.14233 0.40658 0.30517 0.0
C1750 C 0.14801 0.39478 0.3231 0.0
C1751 C 0.15994 0.4082 0.33825 0.0
C1752 C 0.13076 0.39247 0.28854 0.0
C1753 C 0.14303 0.37087 0.28148 0.0
C1754 C 0.10921 0.40158 0.27845 0.0
C1755 C 0.09408 0.42307 0.28596 0.0
C1756 C 0.08551 0.42326 0.30539 0.0
C1757 C 0.07109 0.44339 0.31235 0.0
C1758 C 0.06494 0.46341 0.29999 0.0
C1759 C 0.07317 0.46332 0.28063 0.0
C1760 C 0.08762 0.44325 0.27359 0.0
C1761 C 0.08107 0.31732 0.22445 0.0
C1762 C 0.07745 0.32912 0.20627 0.0
C1763 C 0.09355 0.32965 0.23965 0.0
C1764 C 0.10247 0.35425 0.23716 0.0
C1765 C 0.09945 0.36596 0.21884 0.0
C1766 C 0.08726 0.35337 0.20341 0.0
C1767 C 0.1136 0.36793 0.25413 0.0
C1768 C 0.10117 0.38938 0.26127 0.0
C1769 C 0.13478 0.35854 0.26443 0.0
C1770 C 0.14903 0.33626 0.25742 0.0
C1771 C 0.15845 0.33545 0.23825 0.0
C1772 C 0.17168 0.31431 0.23169 0.0
C1773 C 0.17574 0.29391 0.2442 0.0
C1774 C 0.16665 0.29465 0.26331 0.0
C1775 C 0.15339 0.31573 0.26995 0.0
H1776 H 0.18598 0.27757 0.23909 0.0
H1777 H 0.05376 0.47896 0.3054 0.0
H1778 H 0.65602 0.10739 0.19087 0.0
H1779 H 0.63821 0.13211 0.21807 0.0
H1780 H 0.67107 0.08014 0.25932 0.0
H1781 H 0.68841 0.05566 0.23273 0.0
H1782 H 0.62365 0.08828 0.2683 0.0
H1783 H 0.69525 0.13952 0.25184 0.0
H1784 H 0.72183 0.16501 0.23004 0.0
H1785 H 0.66034 0.21606 0.22013 0.0
H1786 H 0.63327 0.19066 0.24168 0.0
H1787 H 0.59925 0.15389 0.35704 0.0
H1788 H 0.62314 0.13423 0.33024 0.0
H1789 H 0.59059 0.18713 0.28953 0.0
H1790 H 0.56723 0.20676 0.31597 0.0
H1791 H 0.63816 0.17916 0.28015 0.0
H1792 H 0.56633 0.12791 0.29527 0.0
H1793 H 0.53843 0.10169 0.31553 0.0
H1794 H 0.59938 0.05052 0.32695 0.0
H1795 H 0.62776 0.07663 0.30697 0.0
C1796 C 0.65953 0.10142 0.20575 0.0
C1797 C 0.67351 0.07942 0.20954 0.0
C1798 C 0.64941 0.11556 0.2213 0.0
C1799 C 0.65325 0.10798 0.24084 0.0
C1800 C 0.6676 0.08633 0.24447 0.0
C1801 C 0.67757 0.07232 0.22912 0.0
C1802 C 0.64192 0.12174 0.25771 0.0
C1803 C 0.62714 0.1081 0.27099 0.0
C1804 C 0.64591 0.14772 0.26111 0.0
C1805 C 0.66216 0.16303 0.2482 0.0
C1806 C 0.68734 0.15606 0.24488 0.0
C1807 C 0.7025 0.17052 0.2326 0.0
C1808 C 0.69276 0.1921 0.22366 0.0
C1809 C 0.66785 0.19931 0.22704 0.0
C1810 C 0.65259 0.1849 0.2393 0.0
C1811 C 0.59767 0.16158 0.34243 0.0
C1812 C 0.58123 0.18175 0.33861 0.0
C1813 C 0.61114 0.15023 0.32709 0.0
C1814 C 0.60841 0.15896 0.30773 0.0
C1815 C 0.59305 0.17996 0.30422 0.0
C1816 C 0.57958 0.19111 0.31942 0.0
C1817 C 0.62017 0.14558 0.29084 0.0
C1818 C 0.63487 0.15931 0.27751 0.0
C1819 C 0.61605 0.11965 0.28732 0.0
C1820 C 0.59922 0.10434 0.29978 0.0
C1821 C 0.57385 0.11121 0.30228 0.0
C1822 C 0.55794 0.09635 0.31367 0.0
C1823 C 0.56714 0.07445 0.32247 0.0
C1824 C 0.5923 0.06748 0.32008 0.0
C1825 C 0.6083 0.0823 0.30874 0.0
H1826 H 0.55473 0.06277 0.331 0.0
H1827 H 0.70453 0.20327 0.21416 0.0
H1828 H 0.79137 0.57637 0.29293 0.0
H1829 H 0.81381 0.59891 0.26749 0.0
H1830 H 0.86686 0.62644 0.31012 0.0
H1831 H 0.8444 0.60347 0.33599 0.0
H1832 H 0.85165 0.66316 0.28117 0.0
H1833 H 0.88451 0.57951 0.28442 0.0
H1834 H 0.88197 0.53322 0.2858 0.0
H1835 H 0.8462 0.53209 0.22948 0.0
H1836 H 0.84809 0.57845 0.22794 0.0
H1837 H 0.94882 0.69546 0.21599 0.0
H1838 H 0.92343 0.6773 0.24177 0.0
H1839 H 0.87458 0.64364 0.19875 0.0
H1840 H 0.90041 0.66178 0.17246 0.0
H1841 H 0.88713 0.61044 0.22803 0.0
H1842 H 0.85536 0.69473 0.22474 0.0
H1843 H 0.85819 0.74104 0.22389 0.0
H1844 H 0.8927 0.74103 0.28067 0.0
H1845 H 0.89044 0.69467 0.28174 0.0
C1846 C 0.80765 0.5874 0.29706 0.0
C1847 C 0.81618 0.58791 0.31655 0.0
C1848 C 0.82049 0.60027 0.28241 0.0
C1849 C 0.84223 0.61407 0.2868 0.0
C1850 C 0.85015 0.61582 0.30639 0.0
C1851 C 0.83729 0.60274 0.32116 0.0
C1852 C 0.8571 0.62541 0.27064 0.0
C1853 C 0.85973 0.65164 0.2697 0.0
C1854 C 0.86713 0.6104 0.2554 0.0
C1855 C 0.86622 0.58249 0.25615 0.0
C1856 C 0.8759 0.56941 0.2724 0.0
C1857 C 0.87461 0.54315 0.2732 0.0
C1858 C 0.86388 0.52972 0.25775 0.0
C1859 C 0.85448 0.54252 0.24145 0.0
C1860 C 0.85567 0.5688 0.2406 0.0
C1861 C 0.93264 0.68428 0.21185 0.0
C1862 C 0.92666 0.68016 0.19205 0.0
C1863 C 0.91802 0.67398 0.22672 0.0
C1864 C 0.89685 0.65935 0.2223 0.0
C1865 C 0.89078 0.65498 0.20254 0.0
C1866 C 0.90547 0.66542 0.18753 0.0
C1867 C 0.88165 0.64828 0.23846 0.0
C1868 C 0.879 0.62203 0.23944 0.0
C1869 C 0.8717 0.66329 0.25377 0.0
C1870 C 0.87292 0.69119 0.25324 0.0
C1871 C 0.86373 0.70458 0.23698 0.0
C1872 C 0.8652 0.73085 0.23647 0.0
C1873 C 0.87567 0.74396 0.2522 0.0
C1874 C 0.88462 0.73084 0.26849 0.0
C1875 C 0.88322 0.70457 0.26907 0.0
H1876 H 0.8768 0.76429 0.25177 0.0
H1877 H 0.8629 0.50939 0.25839 0.0
H1878 H 0.4627 0.82156 0.31056 0.0
H1879 H 0.43891 0.84175 0.28462 0.0
H1880 H 0.37881 0.85796 0.3249 0.0
H1881 H 0.40278 0.83737 0.35135 0.0
H1882 H 0.36139 0.83956 0.28965 0.0
H1883 H 0.41852 0.90268 0.31095 0.0
H1884 H 0.45975 0.92059 0.31976 0.0
H1885 H 0.48515 0.91096 0.26077 0.0
H1886 H 0.44453 0.89182 0.2518 0.0
H1887 H 0.29917 0.92937 0.23042 0.0
H1888 H 0.32202 0.90693 0.2559 0.0
H1889 H 0.38097 0.88906 0.21499 0.0
H1890 H 0.35783 0.91176 0.18908 0.0
H1891 H 0.39896 0.90844 0.25051 0.0
H1892 H 0.34258 0.84346 0.22993 0.0
H1893 H 0.30148 0.82504 0.22131 0.0
H1894 H 0.27436 0.83997 0.27917 0.0
H1895 H 0.31518 0.85883 0.28807 0.0
C1896 C 0.44444 0.82939 0.31407 0.0
C1897 C 0.4347 0.82787 0.33315 0.0
C1898 C 0.43088 0.84107 0.29913 0.0
C1899 C 0.40721 0.8517 0.3028 0.0
C1900 C 0.39712 0.84997 0.32175 0.0
C1901 C 0.41082 0.83826 0.33685 0.0
C1902 C 0.39317 0.86425 0.28661 0.0
C1903 C 0.36944 0.85489 0.28131 0.0
C1904 C 0.40399 0.88385 0.27534 0.0
C1905 C 0.42847 0.89551 0.28073 0.0
C1906 C 0.43297 0.90405 0.29989 0.0
C1907 C 0.45625 0.91445 0.30492 0.0
C1908 C 0.47502 0.91698 0.29083 0.0
C1909 C 0.4706 0.90898 0.27169 0.0
C1910 C 0.44748 0.89825 0.26664 0.0
C1911 C 0.31686 0.92042 0.22671 0.0
C1912 C 0.32665 0.92225 0.2077 0.0
C1913 C 0.32989 0.90752 0.24133 0.0
C1914 C 0.35315 0.89614 0.23739 0.0
C1915 C 0.36297 0.89762 0.21834 0.0
C1916 C 0.34969 0.91038 0.20352 0.0
C1917 C 0.36729 0.88362 0.25354 0.0
C1918 C 0.39099 0.89306 0.25886 0.0
C1919 C 0.35645 0.86418 0.26489 0.0
C1920 C 0.33189 0.85276 0.25961 0.0
C1921 C 0.32779 0.843 0.24077 0.0
C1922 C 0.30455 0.83245 0.23584 0.0
C1923 C 0.2853 0.83138 0.24967 0.0
C1924 C 0.28928 0.84082 0.26847 0.0
C1925 C 0.31247 0.85142 0.27347 0.0
H1926 H 0.26733 0.8232 0.24582 0.0
H1927 H 0.49297 0.92515 0.29475 0.0
H1928 H 0.91611 0.70252 0.8004 0.0
H1929 H 0.89514 0.67929 0.77417 0.0
H1930 H 0.90724 0.60984 0.80546 0.0
H1931 H 0.92781 0.63333 0.83214 0.0
H1932 H 0.9259 0.61094 0.76589 0.0
H1933 H 0.84982 0.62827 0.80067 0.0
H1934 H 0.81891 0.65492 0.81779 0.0
H1935 H 0.8078 0.69869 0.76575 0.0
H1936 H 0.83894 0.67252 0.74838 0.0
H1937 H 0.85574 0.53228 0.70158 0.0
H1938 H 0.87632 0.55519 0.728 0.0
H1939 H 0.8527 0.62554 0.70226 0.0
H1940 H 0.8319 0.60245 0.67561 0.0
H1941 H 0.83976 0.6238 0.73966 0.0
H1942 H 0.91496 0.60858 0.70464 0.0
H1943 H 0.94958 0.58696 0.68756 0.0
H1944 H 0.9651 0.543 0.73881 0.0
H1945 H 0.9303 0.56402 0.75614 0.0
C1946 C 0.91356 0.68238 0.80195 0.0
C1947 C 0.92322 0.66971 0.81835 0.0
C1948 C 0.90166 0.66913 0.78694 0.0
C1949 C 0.89961 0.64284 0.78784 0.0
C1950 C 0.90854 0.63015 0.80453 0.0
C1951 C 0.92002 0.64355 0.81982 0.0
C1952 C 0.89008 0.62876 0.77056 0.0
C1953 C 0.90689 0.61322 0.76034 0.0
C1954 C 0.86567 0.63279 0.76288 0.0
C1955 C 0.8469 0.64856 0.77327 0.0
C1956 C 0.84096 0.64372 0.79292 0.0
C1957 C 0.82336 0.65871 0.80266 0.0
C1958 C 0.81145 0.67852 0.79288 0.0
C1959 C 0.81707 0.68335 0.77332 0.0
C1960 C 0.83467 0.66842 0.76351 0.0
C1961 C 0.85534 0.55267 0.70131 0.0
C1962 C 0.8421 0.56557 0.68654 0.0
C1963 C 0.86724 0.56577 0.71642 0.0
C1964 C 0.86611 0.59215 0.71722 0.0
C1965 C 0.85384 0.60518 0.70199 0.0
C1966 C 0.84211 0.59201 0.68668 0.0
C1967 C 0.87557 0.60571 0.73487 0.0
C1968 C 0.85875 0.62124 0.74518 0.0
C1969 C 0.90013 0.60188 0.7425 0.0
C1970 C 0.9198 0.58776 0.73165 0.0
C1971 C 0.92547 0.59402 0.71219 0.0
C1972 C 0.94527 0.58201 0.70251 0.0
C1973 C 0.95967 0.5638 0.71216 0.0
C1974 C 0.95407 0.55727 0.73142 0.0
C1975 C 0.93425 0.56918 0.74116 0.0
H1976 H 0.97502 0.55455 0.70464 0.0
H1977 H 0.79782 0.6901 0.80045 0.0
H1978 H 0.45121 0.81796 0.72571 0.0
H1979 H 0.42706 0.83532 0.75254 0.0
H1980 H 0.37105 0.86251 0.71198 0.0
H1981 H 0.39557 0.84504 0.68458 0.0
H1982 H 0.38397 0.89814 0.73974 0.0
H1983 H 0.35861 0.81189 0.74036 0.0
H1984 H 0.36487 0.76589 0.74017 0.0
H1985 H 0.4057 0.77055 0.79425 0.0
H1986 H 0.39999 0.81664 0.79463 0.0
H1987 H 0.29801 0.93265 0.81219 0.0
H1988 H 0.31704 0.91012 0.78501 0.0
H1989 H 0.37417 0.88058 0.82361 0.0
H1990 H 0.35473 0.90309 0.85126 0.0
H1991 H 0.35923 0.84541 0.79633 0.0
H1992 H 0.38639 0.93116 0.79528 0.0
H1993 H 0.38139 0.97731 0.79555 0.0
H1994 H 0.33865 0.97373 0.74231 0.0
H1995 H 0.34304 0.92749 0.74189 0.0
C1996 C 0.43374 0.82756 0.72232 0.0
C1997 C 0.42535 0.83002 0.70287 0.0
C1998 C 0.41983 0.83738 0.73781 0.0
C1999 C 0.39701 0.84992 0.73441 0.0
C2000 C 0.38856 0.85275 0.715 0.0
C2001 C 0.40253 0.84273 0.69935 0.0
C2002 C 0.38265 0.86051 0.75127 0.0
C2003 C 0.3781 0.88652 0.75192 0.0
C2004 C 0.37572 0.84552 0.76753 0.0
C2005 C 0.37902 0.81776 0.76744 0.0
C2006 C 0.36907 0.80313 0.75214 0.0
C2007 C 0.3725 0.77703 0.75201 0.0
C2008 C 0.38572 0.76531 0.76717 0.0
C2009 C 0.39548 0.77966 0.78252 0.0
C2010 C 0.39212 0.80577 0.78271 0.0
C2011 C 0.31445 0.92109 0.81503 0.0
C2012 C 0.32496 0.91981 0.83389 0.0
C2013 C 0.32539 0.90829 0.79939 0.0
C2014 C 0.34742 0.8941 0.80208 0.0
C2015 C 0.35726 0.89155 0.82113 0.0
C2016 C 0.3461 0.90432 0.83694 0.0
C2017 C 0.36051 0.88304 0.78478 0.0
C2018 C 0.36492 0.85699 0.78408 0.0
C2019 C 0.36744 0.898 0.76849 0.0
C2020 C 0.36482 0.92582 0.76867 0.0
C2021 C 0.37574 0.94019 0.78372 0.0
C2022 C 0.37304 0.96637 0.78389 0.0
C2023 C 0.35965 0.97844 0.76898 0.0
C2024 C 0.34898 0.96435 0.75386 0.0
C2025 C 0.35158 0.93816 0.75365 0.0
H2026 H 0.35759 0.99871 0.76913 0.0
H2027 H 0.38836 0.7451 0.76704 0.0
H2028 H 0.09247 0.3568 0.85357 0.0
H2029 H 0.11293 0.3794 0.8265 0.0
H2030 H 0.09607 0.31765 0.78774 0.0
H2031 H 0.07575 0.29531 0.81448 0.0
H2032 H 0.14257 0.33624 0.78047 0.0
H2033 H 0.05855 0.36813 0.78919 0.0
H2034 H 0.02329 0.38764 0.80702 0.0
H2035 H 0.0674 0.4541 0.8167 0.0
H2036 H 0.10314 0.43479 0.79922 0.0
H2037 H 0.15584 0.39984 0.68828 0.0
H2038 H 0.13882 0.37522 0.71571 0.0
H2039 H 0.14942 0.4388 0.75403 0.0
H2040 H 0.16564 0.46328 0.72706 0.0
H2041 H 0.10616 0.41879 0.76159 0.0
H2042 H 0.19041 0.387 0.75308 0.0
H2043 H 0.22548 0.36772 0.73486 0.0
H2044 H 0.1811 0.30152 0.72476 0.0
H2045 H 0.14563 0.32056 0.7427 0.0
C2046 C 0.09372 0.34789 0.83938 0.0
C2047 C 0.08252 0.32432 0.83613 0.0
C2048 C 0.10519 0.36087 0.82388 0.0
C2049 C 0.1058 0.35035 0.80497 0.0
C2050 C 0.09585 0.32621 0.80211 0.0
C2051 C 0.08419 0.31347 0.81743 0.0
C2052 C 0.11533 0.36477 0.78781 0.0
C2053 C 0.1345 0.35423 0.77628 0.0
C2054 C 0.10499 0.38835 0.78235 0.0
C2055 C 0.08364 0.39989 0.79309 0.0
C2056 C 0.06085 0.38679 0.79531 0.0
C2057 C 0.04076 0.39783 0.80532 0.0
C2058 C 0.04312 0.42208 0.813 0.0
C2059 C 0.06562 0.4353 0.81075 0.0
C2060 C 0.0858 0.42432 0.80081 0.0
C2061 C 0.15437 0.40853 0.70254 0.0
C2062 C 0.1622 0.43354 0.70538 0.0
C2063 C 0.14478 0.39443 0.71826 0.0
C2064 C 0.14301 0.40504 0.73711 0.0
C2065 C 0.15047 0.43009 0.73975 0.0
C2066 C 0.15989 0.44409 0.72418 0.0
C2067 C 0.13365 0.39043 0.75429 0.0
C2068 C 0.11439 0.40088 0.76581 0.0
C2069 C 0.14396 0.36683 0.75977 0.0
C2070 C 0.16528 0.35531 0.74905 0.0
C2071 C 0.18807 0.36841 0.74685 0.0
C2072 C 0.20802 0.35751 0.73659 0.0
C2073 C 0.20549 0.33344 0.72861 0.0
C2074 C 0.18302 0.32018 0.73092 0.0
C2075 C 0.16299 0.33101 0.74114 0.0
H2076 H 0.22096 0.32504 0.72067 0.0
H2077 H 0.02747 0.43066 0.82059 0.0
H2078 H 0.57566 0.20904 0.73355 0.0
H2079 H 0.59994 0.18816 0.7591 0.0
H2080 H 0.61288 0.125 0.72082 0.0
H2081 H 0.58841 0.14618 0.69486 0.0
H2082 H 0.59458 0.11116 0.75765 0.0
H2083 H 0.66082 0.16267 0.73251 0.0
H2084 H 0.68063 0.20212 0.72158 0.0
H2085 H 0.67069 0.23404 0.77866 0.0
H2086 H 0.65047 0.19489 0.78987 0.0
H2087 H 0.68263 0.04673 0.81518 0.0
H2088 H 0.66226 0.07098 0.78965 0.0
H2089 H 0.64984 0.13201 0.83001 0.0
H2090 H 0.67055 0.10746 0.85616 0.0
H2091 H 0.66765 0.14786 0.79277 0.0
H2092 H 0.60244 0.09685 0.81841 0.0
H2093 H 0.58263 0.05779 0.82991 0.0
H2094 H 0.58893 0.0258 0.77255 0.0
H2095 H 0.60962 0.06443 0.7608 0.0
C2096 C 0.58403 0.19088 0.7304 0.0
C2097 C 0.58019 0.17927 0.71217 0.0
C2098 C 0.59798 0.17898 0.74505 0.0
C2099 C 0.60835 0.15503 0.74193 0.0
C2100 C 0.6051 0.14353 0.72354 0.0
C2101 C 0.59134 0.15569 0.70867 0.0
C2102 C 0.62113 0.14166 0.75839 0.0
C2103 C 0.61084 0.11896 0.7651 0.0
C2104 C 0.6417 0.15236 0.76866 0.0
C2105 C 0.65391 0.17591 0.76198 0.0
C2106 C 0.66266 0.17818 0.74269 0.0
C2107 C 0.674 0.20047 0.73645 0.0
C2108 C 0.67687 0.2206 0.7494 0.0
C2109 C 0.66844 0.21844 0.76864 0.0
C2110 C 0.65706 0.19619 0.77495 0.0
C2111 C 0.67565 0.06532 0.81882 0.0
C2112 C 0.67824 0.07509 0.83785 0.0
C2113 C 0.66389 0.07916 0.8041 0.0
C2114 C 0.65428 0.10323 0.80788 0.0
C2115 C 0.65708 0.11341 0.82676 0.0
C2116 C 0.66882 0.09936 0.8417 0.0
C2117 C 0.64125 0.11724 0.79188 0.0
C2118 C 0.6514 0.14007 0.78531 0.0
C2119 C 0.62041 0.10676 0.7818 0.0
C2120 C 0.60782 0.0835 0.78876 0.0
C2121 C 0.59985 0.08141 0.80827 0.0
C2122 C 0.58842 0.05933 0.81484 0.0
C2123 C 0.58445 0.03932 0.80196 0.0
C2124 C 0.59201 0.04132 0.7825 0.0
C2125 C 0.60364 0.0633 0.77589 0.0
H2126 H 0.5755 0.02227 0.80704 0.0
H2127 H 0.68566 0.23784 0.74454 0.0
H2128 H 0.02838 0.6023 0.12751 0.0
H2129 H 0.03198 0.55775 0.13578 0.0
H2130 H 0.971 0.56535 0.17674 0.0
H2131 H 0.96696 0.60999 0.16832 0.0
H2132 H 0.01146 0.53114 0.1891 0.0
H2133 H 0.95498 0.54697 0.13493 0.0
H2134 H 0.94339 0.56569 0.10319 0.0
H2135 H 0.00438 0.52632 0.07565 0.0
H2136 H 0.01658 0.50768 0.10732 0.0
H2137 H 0.96759 0.39969 0.14722 0.0
H2138 H 0.96434 0.44526 0.15137 0.0
H2139 H 0.04012 0.44707 0.17421 0.0
H2140 H 0.04303 0.40121 0.17059 0.0
H2141 H 0.99035 0.47743 0.13208 0.0
H2142 H 0.04905 0.50106 0.20083 0.0
H2143 H 0.05946 0.48243 0.23286 0.0
H2144 H 0.98972 0.44181 0.23244 0.0
H2145 H 0.97878 0.46037 0.2005 0.0
C2146 C 0.01584 0.5946 0.13839 0.0
C2147 C 0.99705 0.60962 0.14696 0.0
C2148 C 0.01809 0.56919 0.14323 0.0
C2149 C 0.00161 0.55827 0.15673 0.0
C2150 C 0.98397 0.5735 0.16634 0.0
C2151 C 0.98166 0.599 0.16148 0.0
C2152 C 1.00073 0.53055 0.15876 0.0
C2153 C 0.00683 0.51929 0.17671 0.0
C2154 C 0.99434 0.51524 0.14262 0.0
C2155 C 0.98682 0.52612 0.12351 0.0
C2156 C 0.96602 0.54245 0.12213 0.0
C2157 C 0.95933 0.55303 0.10415 0.0
C2158 C 0.97318 0.54724 0.08742 0.0
C2159 C 0.9937 0.53081 0.08862 0.0
C2160 C 1.0005 0.52022 0.10658 0.0
C2161 C 0.98336 0.40982 0.15343 0.0
C2162 C 0.0056 0.39706 0.15845 0.0
C2163 C 0.98151 0.43581 0.15582 0.0
C2164 C 0.00198 0.44966 0.16307 0.0
C2165 C 0.02392 0.4368 0.16887 0.0
C2166 C 0.02561 0.41063 0.16676 0.0
C2167 C 1.00113 0.47761 0.16248 0.0
C2168 C 0.99485 0.48906 0.14464 0.0
C2169 C 0.00706 0.49292 0.17881 0.0
C2170 C 0.01321 0.48197 0.19819 0.0
C2171 C 0.03588 0.48825 0.20762 0.0
C2172 C 0.04189 0.47767 0.22575 0.0
C2173 C 0.02529 0.4609 0.23466 0.0
C2174 C 0.0026 0.45473 0.22549 0.0
C2175 C 0.99651 0.46524 0.20735 0.0
H2176 H 0.02999 0.45271 0.24869 0.0
H2177 H 0.96797 0.55545 0.07351 0.0
H2178 H 0.39606 0.96133 0.15335 0.0
H2179 H 0.44197 0.96199 0.15624 0.0
H2180 H 0.43761 0.03123 0.18898 0.0
H2181 H 0.39188 0.03058 0.18632 0.0
H2182 H 0.47073 0.03488 0.15999 0.0
H2183 H 0.45408 0.97678 0.21154 0.0
H2184 H 0.43556 0.93911 0.22683 0.0
H2185 H 0.47564 0.89167 0.18675 0.0
H2186 H 0.4942 0.92906 0.17107 0.0
H2187 H 0.60074 0.04159 0.18028 0.0
H2188 H 0.55582 0.03643 0.18703 0.0
H2189 H 0.55442 0.96968 0.15119 0.0
H2190 H 0.59936 0.97447 0.1447 0.0
H2191 H 0.52446 0.96507 0.18442 0.0
H2192 H 0.5379 0.0238 0.13148 0.0
H2193 H 0.55614 0.06163 0.11626 0.0
H2194 H 0.52123 0.10822 0.15974 0.0
H2195 H 0.50307 0.07059 0.17539 0.0
C2196 C 0.40485 0.97648 0.16141 0.0
C2197 C 0.39027 0.99602 0.16944 0.0
C2198 C 0.43109 0.97683 0.16307 0.0
C2199 C 0.4432 0.99662 0.17291 0.0
C2200 C 0.42867 0.01584 0.18126 0.0
C2201 C 0.40251 0.01551 0.1796 0.0
C2202 C 0.47106 0.99821 0.17344 0.0
C2203 C 0.48244 0.01979 0.16568 0.0
C2204 C 0.48634 0.97832 0.18052 0.0
C2205 C 0.47536 0.95576 0.19 0.0
C2206 C 0.45881 0.95833 0.20589 0.0
C2207 C 0.44833 0.93702 0.21465 0.0
C2208 C 0.45435 0.91303 0.20772 0.0
C2209 C 0.47097 0.91028 0.19208 0.0
C2210 C 0.48151 0.93151 0.18327 0.0
C2211 C 0.59099 0.02553 0.17419 0.0
C2212 C 0.60351 0.00861 0.16175 0.0
C2213 C 0.56531 0.02266 0.17798 0.0
C2214 C 0.55175 0.00283 0.16942 0.0
C2215 C 0.56451 0.98514 0.1579 0.0
C2216 C 0.59012 0.98805 0.15404 0.0
C2217 C 0.52397 0.00173 0.17098 0.0
C2218 C 0.51265 0.98024 0.179 0.0
C2219 C 0.50864 0.02173 0.16421 0.0
C2220 C 0.51937 0.04437 0.15473 0.0
C2221 C 0.53428 0.0421 0.13788 0.0
C2222 C 0.54458 0.0635 0.12916 0.0
C2223 C 0.53991 0.08731 0.13706 0.0
C2224 C 0.52487 0.08976 0.15366 0.0
C2225 C 0.51456 0.06841 0.16245 0.0
H2226 H 0.5479 0.10386 0.13029 0.0
H2227 H 0.44616 0.89656 0.21446 0.0
H2228 H 0.52225 0.09255 0.41474 0.0
H2229 H 0.52179 0.04805 0.40648 0.0
H2230 H 0.51304 0.06657 0.3455 0.0
H2231 H 0.5135 0.11167 0.35382 0.0
H2232 H 0.4821 0.02805 0.35614 0.0
H2233 H 0.56919 0.04382 0.36067 0.0
H2234 H 0.60853 0.06128 0.37405 0.0
H2235 H 0.59893 0.01786 0.42638 0.0
H2236 H 0.55931 1.00044 0.41339 0.0
H2237 H 0.4969 0.8905 0.35255 0.0
H2238 H 0.50341 0.93512 0.34473 0.0
H2239 H 0.50847 0.9522 0.40618 0.0
H2240 H 0.5014 0.90836 0.4141 0.0
H2241 H 0.5478 0.97236 0.38445 0.0
H2242 H 0.4558 0.96355 0.38042 0.0
H2243 H 0.41703 0.9464 0.36573 0.0
H2244 H 0.43803 0.97652 0.30994 0.0
H2245 H 0.47717 0.99346 0.32425 0.0
C2246 C 0.52017 0.08723 0.39957 0.0
C2247 C 0.51787 0.10562 0.38494 0.0
C2248 C 0.52018 0.06175 0.39482 0.0
C2249 C 0.51797 0.05394 0.37532 0.0
C2250 C 0.51524 0.07219 0.36061 0.0
C2251 C 0.51554 0.09788 0.36536 0.0
C2252 C 0.518 0.02659 0.37083 0.0
C2253 C 0.49677 0.01587 0.36186 0.0
C2254 C 0.53725 0.01066 0.37811 0.0
C2255 C 0.56119 0.02091 0.38604 0.0
C2256 C 0.57538 0.03813 0.37507 0.0
C2257 C 0.59775 0.04801 0.38259 0.0
C2258 C 0.60622 0.04071 0.40108 0.0
C2259 C 0.59235 0.02349 0.41206 0.0
C2260 C 0.56995 0.01357 0.4046 0.0
C2261 C 0.49919 0.90378 0.36439 0.0
C2262 C 0.49895 0.89562 0.38399 0.0
C2263 C 0.503 0.92926 0.35988 0.0
C2264 C 0.50664 0.9469 0.37489 0.0
C2265 C 0.50605 0.93884 0.39436 0.0
C2266 C 0.50213 0.91361 0.39886 0.0
C2267 C 0.51125 0.97392 0.37089 0.0
C2268 C 0.5335 0.98456 0.37819 0.0
C2269 C 0.49311 0.98964 0.36184 0.0
C2270 C 0.46956 0.97948 0.35334 0.0
C2271 C 0.45227 0.96631 0.36498 0.0
C2272 C 0.4302 0.95667 0.35673 0.0
C2273 C 0.42508 0.96035 0.33691 0.0
C2274 C 0.442 0.97372 0.3253 0.0
C2275 C 0.46415 0.98329 0.33346 0.0
H2276 H 0.40802 0.95283 0.33054 0.0
H2277 H 0.62355 0.04837 0.40688 0.0
H2278 H 0.90726 0.52111 0.32494 0.0
H2279 H 0.95268 0.52011 0.33043 0.0
H2280 H 0.94045 0.51915 0.39269 0.0
H2281 H 0.89488 0.52042 0.38722 0.0
H2282 H 0.97798 0.54997 0.38375 0.0
H2283 H 0.95469 0.4653 0.36617 0.0
H2284 H 0.93645 0.43199 0.34547 0.0
H2285 H 0.98728 0.45117 0.2992 0.0
H2286 H 0.00553 0.48489 0.31951 0.0
H2287 H 0.09603 0.50473 0.41609 0.0
H2288 H 0.05169 0.51101 0.40832 0.0
H2289 H 0.06913 0.511 0.34683 0.0
H2290 H 0.11369 0.50468 0.35453 0.0
H2291 H 0.02961 0.48236 0.3538 0.0
H2292 H 0.05387 0.56591 0.37118 0.0
H2293 H 0.07288 0.599 0.39167 0.0
H2294 H 0.0211 0.58205 0.43782 0.0
H2295 H 0.00199 0.5486 0.4177 0.0
C2296 C 0.91424 0.52058 0.33979 0.0
C2297 C 0.8975 0.52056 0.35567 0.0
C2298 C 0.94021 0.52002 0.34292 0.0
C2299 C 0.94999 0.51906 0.36197 0.0
C2300 C 0.93333 0.5198 0.37786 0.0
C2301 C 0.90732 0.52057 0.37474 0.0
C2302 C 0.97754 0.51709 0.36535 0.0
C2303 C 0.98922 0.53501 0.37738 0.0
C2304 C 0.99238 0.49801 0.35655 0.0
C2305 C 0.98125 0.47785 0.34428 0.0
C2306 C 0.9618 0.46259 0.35151 0.0
C2307 C 0.95148 0.44361 0.33986 0.0
C2308 C 0.96063 0.43953 0.321 0.0
C2309 C 0.98015 0.4544 0.31378 0.0
C2310 C 0.99049 0.47345 0.32536 0.0
C2311 C 0.09055 0.50646 0.40092 0.0
C2312 C 0.10848 0.50434 0.38594 0.0
C2313 C 0.06514 0.51004 0.39649 0.0
C2314 C 0.0571 0.51187 0.377 0.0
C2315 C 0.07491 0.50972 0.36198 0.0
C2316 C 0.10036 0.50603 0.3664 0.0
C2317 C 0.02998 0.51509 0.37235 0.0
C2318 C 0.01839 0.49741 0.36008 0.0
C2319 C 0.01526 0.53442 0.38086 0.0
C2320 C 0.02663 0.5546 0.39298 0.0
C2321 C 0.04665 0.56911 0.38575 0.0
C2322 C 0.05743 0.58796 0.39729 0.0
C2323 C 0.04824 0.59259 0.41605 0.0
C2324 C 0.02821 0.57842 0.42329 0.0
C2325 C 0.01738 0.55954 0.41181 0.0
H2326 H 0.05661 0.60718 0.42496 0.0
H2327 H 0.95264 0.4248 0.31202 0.0
H2328 H 0.02757 0.59801 0.84291 0.0
H2329 H 0.02633 0.5522 0.84477 0.0
H2330 H 0.96025 0.55648 0.88105 0.0
H2331 H 0.96181 0.60254 0.87968 0.0
H2332 H 0.99498 0.52574 0.89646 0.0
H2333 H 0.95663 0.53618 0.83396 0.0
H2334 H 0.95219 0.55166 0.80018 0.0
H2335 H 0.01998 0.51292 0.78397 0.0
H2336 H 0.02509 0.49752 0.81773 0.0
H2337 H 0.97409 0.39529 0.89856 0.0
H2338 H 0.96785 0.43981 0.89102 0.0
H2339 H 0.03577 0.43963 0.85671 0.0
H2340 H 0.04192 0.39483 0.86399 0.0
H2341 H 0.99779 0.4679 0.83957 0.0
H2342 H 0.03765 0.46054 0.90246 0.0
H2343 H 0.04222 0.44493 0.93621 0.0
H2344 H 0.97122 0.47825 0.9514 0.0
H2345 H 0.96605 0.49374 0.91764 0.0
C2346 C 0.01278 0.58925 0.85131 0.0
C2347 C 0.9949 0.60395 0.86129 0.0
C2348 C 0.01191 0.56301 0.85215 0.0
C2349 C 0.99307 0.55088 0.86289 0.0
C2350 C 0.9749 0.56547 0.8726 0.0
C2351 C 0.97572 0.59177 0.87172 0.0
C2352 C 0.99347 0.52308 0.86508 0.0
C2353 C 0.99508 0.51309 0.88401 0.0
C2354 C 0.99435 0.50661 0.84881 0.0
C2355 C 0.99138 0.5159 0.82847 0.0
C2356 C 0.97074 0.53115 0.82325 0.0
C2357 C 0.96807 0.53987 0.80409 0.0
C2358 C 0.98583 0.53333 0.78996 0.0
C2359 C 0.00626 0.518 0.79495 0.0
C2360 C 0.00905 0.50926 0.81409 0.0
C2361 C 0.98762 0.40469 0.88932 0.0
C2362 C 0.00867 0.39166 0.88208 0.0
C2363 C 0.984 0.4301 0.88498 0.0
C2364 C 0.00152 0.4431 0.87352 0.0
C2365 C 0.02197 0.42991 0.86553 0.0
C2366 C 0.02549 0.40434 0.86971 0.0
C2367 C 0.99923 0.47072 0.87091 0.0
C2368 C 0.99742 0.48063 0.85196 0.0
C2369 C 0.99819 0.4872 0.88714 0.0
C2370 C 0.00135 0.47807 0.90748 0.0
C2371 C 0.02292 0.46437 0.91296 0.0
C2372 C 0.02563 0.45557 0.93209 0.0
C2373 C 0.00699 0.46054 0.94592 0.0
C2374 C 0.98563 0.47438 0.94066 0.0
C2375 C 0.9828 0.48318 0.92154 0.0
H2376 H 0.00913 0.45371 0.96073 0.0
H2377 H 0.98372 0.5401 0.77513 0.0
H2378 H 0.61459 0.02443 0.85428 0.0
H2379 H 0.57182 0.0155 0.8432 0.0
H2380 H 0.55984 0.96907 0.89391 0.0
H2381 H 0.60274 0.97628 0.90439 0.0
H2382 H 0.53747 0.94864 0.8642 0.0
H2383 H 0.54286 0.03497 0.89004 0.0
H2384 H 0.55874 0.07858 0.88962 0.0
H2385 H 0.53134 0.08802 0.83101 0.0
H2386 H 0.51566 0.04431 0.831 0.0
H2387 H 0.41953 0.96452 0.90498 0.0
H2388 H 0.46354 0.9656 0.89497 0.0
H2389 H 0.44148 0.99404 0.83843 0.0
H2390 H 0.39693 0.99262 0.84847 0.0
H2391 H 0.48045 0.02238 0.85852 0.0
H2392 H 0.46453 0.93939 0.83742 0.0
H2393 H 0.44741 0.89638 0.83908 0.0
H2394 H 0.4936 0.8807 0.88919 0.0
H2395 H 0.51071 0.92376 0.88806 0.0
C2396 C 0.60312 0.01193 0.86294 0.0
C2397 C 0.61225 0.00149 0.88053 0.0
C2398 C 0.57852 0.00704 0.85661 0.0
C2399 C 0.56239 0.99207 0.86789 0.0
C2400 C 0.57181 0.98081 0.88495 0.0
C2401 C 0.5964 0.9853 0.89111 0.0
C2402 C 0.53529 0.98912 0.86296 0.0
C2403 C 0.52502 0.96477 0.86289 0.0
C2404 C 0.51905 0.01008 0.86034 0.0
C2405 C 0.52837 0.03634 0.86044 0.0
C2406 C 0.54037 0.04632 0.87703 0.0
C2407 C 0.54933 0.07104 0.87687 0.0
C2408 C 0.5461 0.08604 0.86028 0.0
C2409 C 0.53382 0.07638 0.84385 0.0
C2410 C 0.52494 0.05163 0.8439 0.0
C2411 C 0.42405 0.97085 0.89038 0.0
C2412 C 0.40496 0.97866 0.87753 0.0
C2413 C 0.44914 0.9713 0.88462 0.0
C2414 C 0.45572 0.97977 0.86593 0.0
C2415 C 0.43671 0.98733 0.85289 0.0
C2416 C 0.41139 0.98645 0.85858 0.0
C2417 C 0.48272 0.98205 0.86099 0.0
C2418 C 0.49296 0.00622 0.85916 0.0
C2419 C 0.49893 0.96095 0.86195 0.0
C2420 C 0.48888 0.93489 0.86266 0.0
C2421 C 0.47094 0.92684 0.84887 0.0
C2422 C 0.46124 0.90243 0.84971 0.0
C2423 C 0.4694 0.88582 0.86424 0.0
C2424 C 0.48731 0.89358 0.87794 0.0
C2425 C 0.49705 0.91799 0.87718 0.0
H2426 H 0.46187 0.86693 0.86486 0.0
H2427 H 0.55308 0.10517 0.86018 0.0
H2428 H 0.48454 0.89481 0.67971 0.0
H2429 H 0.49012 0.93969 0.68626 0.0
H2430 H 0.50457 0.95286 0.62523 0.0
H2431 H 0.49837 0.90851 0.61837 0.0
H2432 H 0.53884 0.97732 0.64998 0.0
H2433 H 0.44852 0.96642 0.64296 0.0
H2434 H 0.40773 0.94728 0.65136 0.0
H2435 H 0.41548 0.97318 0.71047 0.0
H2436 H 0.4565 0.9922 0.70247 0.0
H2437 H 0.52417 0.10986 0.64111 0.0
H2438 H 0.52332 0.06384 0.63817 0.0
H2439 H 0.49295 0.05841 0.69645 0.0
H2440 H 0.49269 0.10433 0.69887 0.0
H2441 H 0.46815 0.02888 0.67524 0.0
H2442 H 0.55636 0.04155 0.68355 0.0
H2443 H 0.59811 0.05981 0.67704 0.0
H2444 H 0.59645 0.02984 0.61881 0.0
H2445 H 0.55451 0.01168 0.62488 0.0
C2446 C 0.48871 0.90716 0.66761 0.0
C2447 C 0.49097 0.89769 0.64847 0.0
C2448 C 0.49203 0.93286 0.67143 0.0
C2449 C 0.49776 0.9496 0.65622 0.0
C2450 C 0.50036 0.94025 0.63721 0.0
C2451 C 0.49685 0.91469 0.63335 0.0
C2452 C 0.50044 0.97702 0.65985 0.0
C2453 C 0.52337 0.9887 0.65538 0.0
C2454 C 0.48048 0.99166 0.66743 0.0
C2455 C 0.45569 0.9805 0.67216 0.0
C2456 C 0.44161 0.96788 0.65778 0.0
C2457 C 0.41844 0.95708 0.66246 0.0
C2458 C 0.40905 0.95895 0.68145 0.0
C2459 C 0.42279 0.97171 0.69578 0.0
C2460 C 0.44599 0.98252 0.69117 0.0
C2461 C 0.51763 0.0987 0.65331 0.0
C2462 C 0.50843 0.11052 0.67018 0.0
C2463 C 0.51721 0.07241 0.6517 0.0
C2464 C 0.5083 0.05745 0.66718 0.0
C2465 C 0.49978 0.06939 0.68424 0.0
C2466 C 0.49968 0.09562 0.68566 0.0
C2467 C 0.50666 0.02951 0.66532 0.0
C2468 C 0.48384 0.01765 0.67005 0.0
C2469 C 0.52691 0.01465 0.65832 0.0
C2470 C 0.55218 0.02544 0.65463 0.0
C2471 C 0.56482 0.039 0.66931 0.0
C2472 C 0.58853 0.04931 0.66571 0.0
C2473 C 0.5999 0.04603 0.64751 0.0
C2474 C 0.5876 0.03238 0.6329 0.0
C2475 C 0.56387 0.02205 0.63642 0.0
H2476 H 0.61825 0.05403 0.64475 0.0
H2477 H 0.39112 0.95056 0.68505 0.0
H2478 H 0.88437 0.46107 0.65526 0.0
H2479 H 0.9302 0.45999 0.65696 0.0
H2480 H 0.93396 0.524 0.61836 0.0
H2481 H 0.88801 0.52474 0.6161 0.0
H2482 H 0.97004 0.48887 0.61004 0.0
H2483 H 0.93701 0.53074 0.66617 0.0
H2484 H 0.90965 0.53398 0.695 0.0
H2485 H 0.94996 0.47345 0.72252 0.0
H2486 H 0.97685 0.46898 0.69342 0.0
H2487 H 0.09312 0.529 0.6292 0.0
H2488 H 0.04721 0.52898 0.62911 0.0
H2489 H 0.04719 0.46278 0.66551 0.0
H2490 H 0.09333 0.46247 0.66547 0.0
H2491 H 0.00927 0.49831 0.67554 0.0
H2492 H 0.04004 0.45482 0.61874 0.0
H2493 H 0.06591 0.44998 0.58914 0.0
H2494 H 0.0297 0.51433 0.56342 0.0
H2495 H 0.00388 0.5198 0.59302 0.0
C2496 C 0.89487 0.4746 0.64678 0.0
C2497 C 0.88244 0.49314 0.63564 0.0
C2498 C 0.92111 0.47408 0.64792 0.0
C2499 C 0.93546 0.49218 0.63806 0.0
C2500 C 0.92322 0.50996 0.6262 0.0
C2501 C 0.89696 0.51048 0.62504 0.0
C2502 C 0.96314 0.49328 0.64081 0.0
C2503 C 0.97859 0.49121 0.62433 0.0
C2504 C 0.97427 0.49592 0.65955 0.0
C2505 C 0.95875 0.49925 0.67742 0.0
C2506 C 0.93985 0.51784 0.67822 0.0
C2507 C 0.9243 0.51981 0.69458 0.0
C2508 C 0.92795 0.50382 0.71053 0.0
C2509 C 0.9471 0.48577 0.71012 0.0
C2510 C 0.96243 0.48342 0.69364 0.0
C2511 C 0.0834 0.51447 0.63725 0.0
C2512 C 0.09694 0.4955 0.64708 0.0
C2513 C 0.05714 0.51456 0.63726 0.0
C2514 C 0.0438 0.49566 0.64705 0.0
C2515 C 0.05715 0.47752 0.65784 0.0
C2516 C 0.08353 0.4774 0.65783 0.0
C2517 C 0.01608 0.49391 0.64475 0.0
C2518 C 1.00066 0.49592 0.66128 0.0
C2519 C 0.00489 0.49126 0.62606 0.0
C2520 C 0.0202 0.48786 0.60817 0.0
C2521 C 0.03773 0.46805 0.60683 0.0
C2522 C 0.05237 0.46518 0.59004 0.0
C2523 C 0.0495 0.48187 0.57443 0.0
C2524 C 0.03193 0.50143 0.57554 0.0
C2525 C 0.01728 0.50442 0.59231 0.0
H2526 H 0.06084 0.47962 0.56144 0.0
H2527 H 0.91605 0.50556 0.72326 0.0
loop_
_geom_bond_atom_site_label_1
_geom_bond_atom_site_label_2
_geom_bond_distance
_geom_bond_site_symmetry_2
_ccdc_geom_bond_type
C0 C1 1.351 . S
C0 N3 1.368 . S
C0 H5 0.931 . S
C1 C0 1.351 . S
C1 N2 1.373 . S
C1 H29 0.930 . S
N2 C1 1.373 . S
N2 C4 1.340 . S
N3 C0 1.368 . S
N3 C4 1.321 . S
N3 Co6 2.135 . S
C4 N2 1.340 . S
C4 N3 1.321 . S
C4 H28 0.930 . S
H5 C0 0.931 . S
Co6 N3 2.135 . S
Co6 N9 2.121 . S
Co6 O14 2.055 . S
Co6 O17 2.039 . S
Co6 N20 2.140 . S
C7 O8 1.227 . S
C7 O17 1.265 . S
O8 C7 1.227 . S
N9 Co6 2.121 . S
N9 C11 1.375 . S
N9 C12 1.313 . S
C10 C11 1.338 . S
C10 N13 1.377 . S
C10 H30 0.930 . S
C11 N9 1.375 . S
C11 C10 1.338 . S
C11 H15 0.931 . S
C12 N9 1.313 . S
C12 N13 1.344 . S
C12 H16 0.930 . S
N13 C10 1.377 . S
N13 C12 1.344 . S
O14 Co6 2.055 . S
O14 C18 1.253 . S
H15 C11 0.931 . S
H16 C12 0.930 . S
O17 Co6 2.039 . S
O17 C7 1.265 . S
C18 O14 1.253 . S
C18 O19 1.227 . S
O19 C18 1.227 . S
N20 Co6 2.140 . S
N20 C23 1.346 . S
N20 C24 1.345 . S
C21 C22 1.383 1_655 S
C21 C25 1.390 1_655 S
C22 C21 1.383 1_455 S
C22 C23 1.369 . S
C22 H31 0.929 . S
C23 N20 1.346 . S
C23 C22 1.369 . S
C23 H26 0.928 . S
C24 N20 1.345 . S
C24 C25 1.371 . S
C24 H27 0.931 . S
C25 C21 1.390 1_455 S
C25 C24 1.371 . S
C25 H32 0.930 1_455 S
H26 C23 0.928 . S
H27 C24 0.931 . S
H28 C4 0.930 . S
H29 C1 0.930 . S
H30 C10 0.930 . S
H31 C22 0.929 . S
H32 C25 0.930 1_655 S
C33 C34 1.351 . S
C33 N36 1.368 . S
C33 H38 0.931 . S
C34 C33 1.351 . S
C34 N35 1.373 . S
C34 H62 0.930 . S
N35 C34 1.373 . S
N35 C37 1.340 . S
N36 C33 1.368 . S
N36 C37 1.321 . S
N36 Co39 2.135 . S
C37 N35 1.340 . S
C37 N36 1.321 . S
C37 H61 0.930 . S
H38 C33 0.931 . S
Co39 N36 2.135 . S
Co39 N42 2.121 . S
Co39 O47 2.055 . S
Co39 O50 2.039 . S
Co39 N53 2.140 . S
C40 O41 1.227 . S
C40 O50 1.265 . S
O41 C40 1.227 . S
N42 Co39 2.121 . S
N42 C44 1.375 . S
N42 C45 1.313 . S
C43 C44 1.338 . S
C43 N46 1.377 . S
C43 H63 0.930 . S
C44 N42 1.375 . S
C44 C43 1.338 . S
C44 H48 0.931 . S
C45 N42 1.313 . S
C45 N46 1.344 . S
C45 H49 0.930 . S
N46 C43 1.377 . S
N46 C45 1.344 . S
O47 Co39 2.055 . S
O47 C51 1.253 . S
H48 C44 0.931 . S
H49 C45 0.930 . S
O50 Co39 2.039 . S
O50 C40 1.265 . S
C51 O47 1.253 . S
C51 O52 1.227 . S
O52 C51 1.227 . S
N53 Co39 2.140 . S
N53 C56 1.346 . S
N53 C57 1.345 . S
C54 C55 1.383 1_565 S
C54 C58 1.390 1_565 S
C55 C54 1.383 1_545 S
C55 C56 1.369 . S
C55 H64 0.929 . S
C56 N53 1.346 . S
C56 C55 1.369 . S
C56 H59 0.928 . S
C57 N53 1.345 . S
C57 C58 1.371 . S
C57 H60 0.931 . S
C58 C54 1.390 1_545 S
C58 C57 1.371 . S
C58 H65 0.930 1_545 S
H59 C56 0.928 . S
H60 C57 0.931 . S
H61 C37 0.930 . S
H62 C34 0.930 . S
H63 C43 0.930 . S
H64 C55 0.929 . S
H65 C58 0.930 1_565 S
C66 C67 1.351 . S
C66 N69 1.368 . S
C66 H71 0.931 . S
C67 C66 1.351 . S
C67 N68 1.373 . S
C67 H95 0.930 . S
N68 C67 1.373 . S
N68 C70 1.340 . S
N69 C66 1.368 . S
N69 C70 1.321 . S
N69 Co72 2.135 . S
C70 N68 1.340 . S
C70 N69 1.321 . S
C70 H94 0.930 . S
H71 C66 0.931 . S
Co72 N69 2.135 . S
Co72 N75 2.121 . S
Co72 O80 2.055 . S
Co72 O83 2.039 . S
Co72 N86 2.140 . S
C73 O74 1.227 . S
C73 O83 1.265 . S
O74 C73 1.227 . S
N75 Co72 2.121 . S
N75 C77 1.375 . S
N75 C78 1.313 . S
C76 C77 1.338 . S
C76 N79 1.377 . S
C76 H96 0.930 . S
C77 N75 1.375 . S
C77 C76 1.338 . S
C77 H81 0.931 . S
C78 N75 1.313 . S
C78 N79 1.344 . S
C78 H82 0.930 . S
N79 C76 1.377 . S
N79 C78 1.344 . S
O80 Co72 2.055 . S
O80 C84 1.253 . S
H81 C77 0.931 . S
H82 C78 0.930 . S
O83 Co72 2.039 . S
O83 C73 1.265 . S
C84 O80 1.253 . S
C84 O85 1.227 . S
O85 C84 1.227 . S
N86 Co72 2.140 . S
N86 C89 1.346 . S
N86 C90 1.345 . S
C87 C88 1.383 1_455 S
C87 C91 1.390 1_455 S
C88 C87 1.383 1_655 S
C88 C89 1.369 . S
C88 H97 0.929 . S
C89 N86 1.346 . S
C89 C88 1.369 . S
C89 H92 0.928 . S
C90 N86 1.345 . S
C90 C91 1.371 . S
C90 H93 0.931 . S
C91 C87 1.390 1_655 S
C91 C90 1.371 . S
C91 H98 0.930 1_655 S
H92 C89 0.928 . S
H93 C90 0.931 . S
H94 C70 0.930 . S
H95 C67 0.930 . S
H96 C76 0.930 . S
H97 C88 0.929 . S
H98 C91 0.930 1_455 S
C99 C100 1.351 . S
C99 N102 1.368 . S
C99 H104 0.931 . S
C100 C99 1.351 . S
C100 N101 1.373 . S
C100 H128 0.930 . S
N101 C100 1.373 . S
N101 C103 1.340 . S
N102 C99 1.368 . S
N102 C103 1.321 . S
N102 Co105 2.135 . S
C103 N101 1.340 . S
C103 N102 1.321 . S
C103 H127 0.930 . S
H104 C99 0.931 . S
Co105 N102 2.135 . S
Co105 N108 2.121 . S
Co105 O113 2.055 . S
Co105 O116 2.039 . S
Co105 N119 2.140 . S
C106 O107 1.227 . S
C106 O116 1.265 . S
O107 C106 1.227 . S
N108 Co105 2.121 . S
N108 C110 1.375 . S
N108 C111 1.313 . S
C109 C110 1.338 . S
C109 N112 1.377 . S
C109 H129 0.930 . S
C110 N108 1.375 . S
C110 C109 1.338 . S
C110 H114 0.931 . S
C111 N108 1.313 . S
C111 N112 1.344 . S
C111 H115 0.930 . S
N112 C109 1.377 . S
N112 C111 1.344 . S
O113 Co105 2.055 . S
O113 C117 1.253 . S
H114 C110 0.931 . S
H115 C111 0.930 . S
O116 Co105 2.039 . S
O116 C106 1.265 . S
C117 O113 1.253 . S
C117 O118 1.227 . S
O118 C117 1.227 . S
N119 Co105 2.140 . S
N119 C122 1.346 . S
N119 C123 1.345 . S
C120 C121 1.383 1_545 S
C120 C124 1.390 1_545 S
C121 C120 1.383 1_565 S
C121 C122 1.369 . S
C121 H130 0.929 . S
C122 N119 1.346 . S
C122 C121 1.369 . S
C122 H125 0.928 . S
C123 N119 1.345 . S
C123 C124 1.371 . S
C123 H126 0.931 . S
C124 C120 1.390 1_565 S
C124 C123 1.371 . S
C124 H131 0.930 1_565 S
H125 C122 0.928 . S
H126 C123 0.931 . S
H127 C103 0.930 . S
H128 C100 0.930 . S
H129 C109 0.930 . S
H130 C121 0.929 . S
H131 C124 0.930 1_545 S
C132 C133 1.351 . S
C132 N135 1.368 . S
C132 H137 0.931 . S
C133 C132 1.351 . S
C133 N134 1.373 . S
C133 H161 0.930 . S
N134 C133 1.373 . S
N134 C136 1.340 . S
N135 C132 1.368 . S
N135 C136 1.321 . S
N135 Co138 2.135 . S
C136 N134 1.340 . S
C136 N135 1.321 . S
C136 H160 0.930 . S
H137 C132 0.931 . S
Co138 N135 2.135 . S
Co138 N141 2.121 . S
Co138 O146 2.055 . S
Co138 O149 2.039 . S
Co138 N152 2.140 . S
C139 O140 1.227 . S
C139 O149 1.265 . S
O140 C139 1.227 . S
N141 Co138 2.121 . S
N141 C143 1.375 . S
N141 C144 1.313 . S
C142 C143 1.338 . S
C142 N145 1.377 . S
C142 H162 0.930 . S
C143 N141 1.375 . S
C143 C142 1.338 . S
C143 H147 0.931 . S
C144 N141 1.313 . S
C144 N145 1.344 . S
C144 H148 0.930 . S
N145 C142 1.377 . S
N145 C144 1.344 . S
O146 Co138 2.055 . S
O146 C150 1.253 . S
H147 C143 0.931 . S
H148 C144 0.930 . S
O149 Co138 2.039 . S
O149 C139 1.265 . S
C150 O146 1.253 . S
C150 O151 1.227 . S
O151 C150 1.227 . S
N152 Co138 2.140 . S
N152 C155 1.346 . S
N152 C156 1.345 . S
C153 C154 1.387 . S
C153 C157 1.391 . S
C154 C153 1.387 . S
C154 C155 1.369 . S
C154 H163 0.929 . S
C155 N152 1.346 . S
C155 C154 1.369 . S
C155 H158 0.928 . S
C156 N152 1.345 . S
C156 C157 1.371 . S
C156 H159 0.931 . S
C157 C153 1.391 . S
C157 C156 1.371 . S
C157 H164 0.930 . S
H158 C155 0.928 . S
H159 C156 0.931 . S
H160 C136 0.930 . S
H161 C133 0.930 . S
H162 C142 0.930 . S
H163 C154 0.929 . S
H164 C157 0.930 . S
C165 C166 1.351 . S
C165 N168 1.368 . S
C165 H170 0.931 . S
C166 C165 1.351 . S
C166 N167 1.373 . S
C166 H194 0.930 . S
N167 C166 1.373 . S
N167 C169 1.340 . S
N168 C165 1.368 . S
N168 C169 1.321 . S
N168 Co171 2.135 . S
C169 N167 1.340 . S
C169 N168 1.321 . S
C169 H193 0.930 . S
H170 C165 0.931 . S
Co171 N168 2.135 . S
Co171 N174 2.121 . S
Co171 O179 2.055 . S
Co171 O182 2.039 . S
Co171 N185 2.140 . S
C172 O173 1.227 . S
C172 O182 1.265 . S
O173 C172 1.227 . S
N174 Co171 2.121 . S
N174 C176 1.375 . S
N174 C177 1.313 . S
C175 C176 1.338 . S
C175 N178 1.377 . S
C175 H195 0.930 . S
C176 N174 1.375 . S
C176 C175 1.338 . S
C176 H180 0.931 . S
C177 N174 1.313 . S
C177 N178 1.344 . S
C177 H181 0.930 . S
N178 C175 1.377 . S
N178 C177 1.344 . S
O179 Co171 2.055 . S
O179 C183 1.253 . S
H180 C176 0.931 . S
H181 C177 0.930 . S
O182 Co171 2.039 . S
O182 C172 1.265 . S
C183 O179 1.253 . S
C183 O184 1.227 . S
O184 C183 1.227 . S
N185 Co171 2.140 . S
N185 C188 1.346 . S
N185 C189 1.345 . S
C186 C187 1.387 . S
C186 C190 1.391 . S
C187 C186 1.387 . S
C187 C188 1.369 . S
C187 H196 0.929 . S
C188 N185 1.346 . S
C188 C187 1.369 . S
C188 H191 0.928 . S
C189 N185 1.345 . S
C189 C190 1.371 . S
C189 H192 0.931 . S
C190 C186 1.391 . S
C190 C189 1.371 . S
C190 H197 0.930 . S
H191 C188 0.928 . S
H192 C189 0.931 . S
H193 C169 0.930 . S
H194 C166 0.930 . S
H195 C175 0.930 . S
H196 C187 0.929 . S
H197 C190 0.930 . S
C198 C199 1.351 . S
C198 N201 1.368 . S
C198 H203 0.931 . S
C199 C198 1.351 . S
C199 N200 1.373 . S
C199 H227 0.930 . S
N200 C199 1.373 . S
N200 C202 1.340 . S
N201 C198 1.368 . S
N201 C202 1.321 . S
N201 Co204 2.135 . S
C202 N200 1.340 . S
C202 N201 1.321 . S
C202 H226 0.930 . S
H203 C198 0.931 . S
Co204 N201 2.135 . S
Co204 N207 2.121 . S
Co204 O212 2.055 . S
Co204 O215 2.039 . S
Co204 N218 2.140 . S
C205 O206 1.227 . S
C205 O215 1.265 . S
O206 C205 1.227 . S
N207 Co204 2.121 . S
N207 C209 1.375 . S
N207 C210 1.313 . S
C208 C209 1.338 . S
C208 N211 1.377 . S
C208 H228 0.930 . S
C209 N207 1.375 . S
C209 C208 1.338 . S
C209 H213 0.931 . S
C210 N207 1.313 . S
C210 N211 1.344 . S
C210 H214 0.930 . S
N211 C208 1.377 . S
N211 C210 1.344 . S
O212 Co204 2.055 . S
O212 C216 1.253 . S
H213 C209 0.931 . S
H214 C210 0.930 . S
O215 Co204 2.039 . S
O215 C205 1.265 . S
C216 O212 1.253 . S
C216 O217 1.227 . S
O217 C216 1.227 . S
N218 Co204 2.140 . S
N218 C221 1.346 . S
N218 C222 1.345 . S
C219 C220 1.387 . S
C219 C223 1.391 . S
C220 C219 1.387 . S
C220 C221 1.369 . S
C220 H229 0.929 . S
C221 N218 1.346 . S
C221 C220 1.369 . S
C221 H224 0.928 . S
C222 N218 1.345 . S
C222 C223 1.371 . S
C222 H225 0.931 . S
C223 C219 1.391 . S
C223 C222 1.371 . S
C223 H230 0.930 . S
H224 C221 0.928 . S
H225 C222 0.931 . S
H226 C202 0.930 . S
H227 C199 0.930 . S
H228 C208 0.930 . S
H229 C220 0.929 . S
H230 C223 0.930 . S
C231 C232 1.351 . S
C231 N234 1.368 . S
C231 H236 0.931 . S
C232 C231 1.351 . S
C232 N233 1.373 . S
C232 H260 0.930 . S
N233 C232 1.373 . S
N233 C235 1.340 . S
N234 C231 1.368 . S
N234 C235 1.321 . S
N234 Co237 2.135 . S
C235 N233 1.340 . S
C235 N234 1.321 . S
C235 H259 0.930 . S
H236 C231 0.931 . S
Co237 N234 2.135 . S
Co237 N240 2.121 . S
Co237 O245 2.055 . S
Co237 O248 2.039 . S
Co237 N251 2.140 . S
C238 O239 1.227 . S
C238 O248 1.265 . S
O239 C238 1.227 . S
N240 Co237 2.121 . S
N240 C242 1.375 . S
N240 C243 1.313 . S
C241 C242 1.338 . S
C241 N244 1.377 . S
C241 H261 0.930 . S
C242 N240 1.375 . S
C242 C241 1.338 . S
C242 H246 0.931 . S
C243 N240 1.313 . S
C243 N244 1.344 . S
C243 H247 0.930 . S
N244 C241 1.377 . S
N244 C243 1.344 . S
O245 Co237 2.055 . S
O245 C249 1.253 . S
H246 C242 0.931 . S
H247 C243 0.930 . S
O248 Co237 2.039 . S
O248 C238 1.265 . S
C249 O245 1.253 . S
C249 O250 1.227 . S
O250 C249 1.227 . S
N251 Co237 2.140 . S
N251 C254 1.346 . S
N251 C255 1.345 . S
C252 C253 1.387 . S
C252 C256 1.391 . S
C253 C252 1.387 . S
C253 C254 1.369 . S
C253 H262 0.929 . S
C254 N251 1.346 . S
C254 C253 1.369 . S
C254 H257 0.928 . S
C255 N251 1.345 . S
C255 C256 1.371 . S
C255 H258 0.931 . S
C256 C252 1.391 . S
C256 C255 1.371 . S
C256 H263 0.930 . S
H257 C254 0.928 . S
H258 C255 0.931 . S
H259 C235 0.930 . S
H260 C232 0.930 . S
H261 C241 0.930 . S
H262 C253 0.929 . S
H263 C256 0.930 . S
C264 C265 1.351 . S
C264 N267 1.368 . S
C264 H269 0.931 . S
C265 C264 1.351 . S
C265 N266 1.373 . S
C265 H293 0.930 . S
N266 C265 1.373 . S
N266 C268 1.340 . S
N267 C264 1.368 . S
N267 C268 1.321 . S
N267 Co270 2.135 . S
C268 N266 1.340 . S
C268 N267 1.321 . S
C268 H292 0.930 . S
H269 C264 0.931 . S
Co270 N267 2.135 . S
Co270 N273 2.121 . S
Co270 O278 2.055 . S
Co270 O281 2.039 . S
Co270 N284 2.140 . S
C271 O272 1.227 . S
C271 O281 1.265 . S
O272 C271 1.227 . S
N273 Co270 2.121 . S
N273 C275 1.375 . S
N273 C276 1.313 . S
C274 C275 1.338 . S
C274 N277 1.377 . S
C274 H294 0.930 . S
C275 N273 1.375 . S
C275 C274 1.338 . S
C275 H279 0.931 . S
C276 N273 1.313 . S
C276 N277 1.344 . S
C276 H280 0.930 . S
N277 C274 1.377 . S
N277 C276 1.344 . S
O278 Co270 2.055 . S
O278 C282 1.253 . S
H279 C275 0.931 . S
H280 C276 0.930 . S
O281 Co270 2.039 . S
O281 C271 1.265 . S
C282 O278 1.253 . S
C282 O283 1.227 . S
O283 C282 1.227 . S
N284 Co270 2.140 . S
N284 C287 1.346 . S
N284 C288 1.345 . S
C285 C286 1.383 1_455 S
C285 C289 1.390 1_455 S
C286 C285 1.383 1_655 S
C286 C287 1.369 . S
C286 H295 0.929 . S
C287 N284 1.346 . S
C287 C286 1.369 . S
C287 H290 0.928 . S
C288 N284 1.345 . S
C288 C289 1.371 . S
C288 H291 0.931 . S
C289 C285 1.390 1_655 S
C289 C288 1.371 . S
C289 H296 0.930 1_655 S
H290 C287 0.928 . S
H291 C288 0.931 . S
H292 C268 0.930 . S
H293 C265 0.930 . S
H294 C274 0.930 . S
H295 C286 0.929 . S
H296 C289 0.930 1_455 S
C297 C298 1.351 . S
C297 N300 1.368 . S
C297 H302 0.931 . S
C298 C297 1.351 . S
C298 N299 1.373 . S
C298 H326 0.930 . S
N299 C298 1.373 . S
N299 C301 1.340 . S
N300 C297 1.368 . S
N300 C301 1.321 . S
N300 Co303 2.135 . S
C301 N299 1.340 . S
C301 N300 1.321 . S
C301 H325 0.930 . S
H302 C297 0.931 . S
Co303 N300 2.135 . S
Co303 N306 2.121 . S
Co303 O311 2.055 . S
Co303 O314 2.039 . S
Co303 N317 2.140 . S
C304 O305 1.227 . S
C304 O314 1.265 . S
O305 C304 1.227 . S
N306 Co303 2.121 . S
N306 C308 1.375 . S
N306 C309 1.313 . S
C307 C308 1.338 . S
C307 N310 1.377 . S
C307 H327 0.930 . S
C308 N306 1.375 . S
C308 C307 1.338 . S
C308 H312 0.931 . S
C309 N306 1.313 . S
C309 N310 1.344 . S
C309 H313 0.930 . S
N310 C307 1.377 . S
N310 C309 1.344 . S
O311 Co303 2.055 . S
O311 C315 1.253 . S
H312 C308 0.931 . S
H313 C309 0.930 . S
O314 Co303 2.039 . S
O314 C304 1.265 . S
C315 O311 1.253 . S
C315 O316 1.227 . S
O316 C315 1.227 . S
N317 Co303 2.140 . S
N317 C320 1.346 . S
N317 C321 1.345 . S
C318 C319 1.383 1_545 S
C318 C322 1.390 1_545 S
C319 C318 1.383 1_565 S
C319 C320 1.369 . S
C319 H328 0.929 . S
C320 N317 1.346 . S
C320 C319 1.369 . S
C320 H323 0.928 . S
C321 N317 1.345 . S
C321 C322 1.371 . S
C321 H324 0.931 . S
C322 C318 1.390 1_565 S
C322 C321 1.371 . S
C322 H329 0.930 1_565 S
H323 C320 0.928 . S
H324 C321 0.931 . S
H325 C301 0.930 . S
H326 C298 0.930 . S
H327 C307 0.930 . S
H328 C319 0.929 . S
H329 C322 0.930 1_545 S
C330 C331 1.351 . S
C330 N333 1.368 . S
C330 H335 0.931 . S
C331 C330 1.351 . S
C331 N332 1.373 . S
C331 H359 0.930 . S
N332 C331 1.373 . S
N332 C334 1.340 . S
N333 C330 1.368 . S
N333 C334 1.321 . S
N333 Co336 2.135 . S
C334 N332 1.340 . S
C334 N333 1.321 . S
C334 H358 0.930 . S
H335 C330 0.931 . S
Co336 N333 2.135 . S
Co336 N339 2.121 . S
Co336 O344 2.055 . S
Co336 O347 2.039 . S
Co336 N350 2.140 . S
C337 O338 1.227 . S
C337 O347 1.265 . S
O338 C337 1.227 . S
N339 Co336 2.121 . S
N339 C341 1.375 . S
N339 C342 1.313 . S
C340 C341 1.338 . S
C340 N343 1.377 . S
C340 H360 0.930 . S
C341 N339 1.375 . S
C341 C340 1.338 . S
C341 H345 0.931 . S
C342 N339 1.313 . S
C342 N343 1.344 . S
C342 H346 0.930 . S
N343 C340 1.377 . S
N343 C342 1.344 . S
O344 Co336 2.055 . S
O344 C348 1.253 . S
H345 C341 0.931 . S
H346 C342 0.930 . S
O347 Co336 2.039 . S
O347 C337 1.265 . S
C348 O344 1.253 . S
C348 O349 1.227 . S
O349 C348 1.227 . S
N350 Co336 2.140 . S
N350 C353 1.346 . S
N350 C354 1.345 . S
C351 C352 1.383 1_655 S
C351 C355 1.390 1_655 S
C352 C351 1.383 1_455 S
C352 C353 1.369 . S
C352 H361 0.929 . S
C353 N350 1.346 . S
C353 C352 1.369 . S
C353 H356 0.928 . S
C354 N350 1.345 . S
C354 C355 1.371 . S
C354 H357 0.931 . S
C355 C351 1.390 1_455 S
C355 C354 1.371 . S
C355 H362 0.930 1_455 S
H356 C353 0.928 . S
H357 C354 0.931 . S
H358 C334 0.930 . S
H359 C331 0.930 . S
H360 C340 0.930 . S
H361 C352 0.929 . S
H362 C355 0.930 1_655 S
C363 C364 1.351 . S
C363 N366 1.368 . S
C363 H368 0.931 . S
C364 C363 1.351 . S
C364 N365 1.373 . S
C364 H392 0.930 . S
N365 C364 1.373 . S
N365 C367 1.340 . S
N366 C363 1.368 . S
N366 C367 1.321 . S
N366 Co369 2.135 . S
C367 N365 1.340 . S
C367 N366 1.321 . S
C367 H391 0.930 . S
H368 C363 0.931 . S
Co369 N366 2.135 . S
Co369 N372 2.121 . S
Co369 O377 2.055 . S
Co369 O380 2.039 . S
Co369 N383 2.140 . S
C370 O371 1.227 . S
C370 O380 1.265 . S
O371 C370 1.227 . S
N372 Co369 2.121 . S
N372 C374 1.375 . S
N372 C375 1.313 . S
C373 C374 1.338 . S
C373 N376 1.377 . S
C373 H393 0.930 . S
C374 N372 1.375 . S
C374 C373 1.338 . S
C374 H378 0.931 . S
C375 N372 1.313 . S
C375 N376 1.344 . S
C375 H379 0.930 . S
N376 C373 1.377 . S
N376 C375 1.344 . S
O377 Co369 2.055 . S
O377 C381 1.253 . S
H378 C374 0.931 . S
H379 C375 0.930 . S
O380 Co369 2.039 . S
O380 C370 1.265 . S
C381 O377 1.253 . S
C381 O382 1.227 . S
O382 C381 1.227 . S
N383 Co369 2.140 . S
N383 C386 1.346 . S
N383 C387 1.345 . S
C384 C385 1.383 1_565 S
C384 C388 1.390 1_565 S
C385 C384 1.383 1_545 S
C385 C386 1.369 . S
C385 H394 0.929 . S
C386 N383 1.346 . S
C386 C385 1.369 . S
C386 H389 0.928 . S
C387 N383 1.345 . S
C387 C388 1.371 . S
C387 H390 0.931 . S
C388 C384 1.390 1_545 S
C388 C387 1.371 . S
C388 H395 0.930 1_545 S
H389 C386 0.928 . S
H390 C387 0.931 . S
H391 C367 0.930 . S
H392 C364 0.930 . S
H393 C373 0.930 . S
H394 C385 0.929 . S
H395 C388 0.930 1_565 S
C396 C397 1.351 . S
C396 N399 1.368 . S
C396 H401 0.931 . S
C397 C396 1.351 . S
C397 N398 1.373 . S
C397 H425 0.930 . S
N398 C397 1.373 . S
N398 C400 1.340 . S
N399 C396 1.368 . S
N399 C400 1.321 . S
N399 Co402 2.135 . S
C400 N398 1.340 . S
C400 N399 1.321 . S
C400 H424 0.930 . S
H401 C396 0.931 . S
Co402 N399 2.135 . S
Co402 N405 2.121 . S
Co402 O410 2.055 . S
Co402 O413 2.039 . S
Co402 N416 2.140 . S
C403 O404 1.227 . S
C403 O413 1.265 . S
O404 C403 1.227 . S
N405 Co402 2.121 . S
N405 C407 1.375 . S
N405 C408 1.313 . S
C406 C407 1.338 . S
C406 N409 1.377 . S
C406 H426 0.930 . S
C407 N405 1.375 . S
C407 C406 1.338 . S
C407 H411 0.931 . S
C408 N405 1.313 . S
C408 N409 1.344 . S
C408 H412 0.930 . S
N409 C406 1.377 . S
N409 C408 1.344 . S
O410 Co402 2.055 . S
O410 C414 1.253 . S
H411 C407 0.931 . S
H412 C408 0.930 . S
O413 Co402 2.039 . S
O413 C403 1.265 . S
C414 O410 1.253 . S
C414 O415 1.227 . S
O415 C414 1.227 . S
N416 Co402 2.140 . S
N416 C419 1.346 . S
N416 C420 1.345 . S
C417 C418 1.387 . S
C417 C421 1.391 . S
C418 C417 1.387 . S
C418 C419 1.369 . S
C418 H427 0.929 . S
C419 N416 1.346 . S
C419 C418 1.369 . S
C419 H422 0.928 . S
C420 N416 1.345 . S
C420 C421 1.371 . S
C420 H423 0.931 . S
C421 C417 1.391 . S
C421 C420 1.371 . S
C421 H428 0.930 . S
H422 C419 0.928 . S
H423 C420 0.931 . S
H424 C400 0.930 . S
H425 C397 0.930 . S
H426 C406 0.930 . S
H427 C418 0.929 . S
H428 C421 0.930 . S
C429 C430 1.351 . S
C429 N432 1.368 . S
C429 H434 0.931 . S
C430 C429 1.351 . S
C430 N431 1.373 . S
C430 H458 0.930 . S
N431 C430 1.373 . S
N431 C433 1.340 . S
N432 C429 1.368 . S
N432 C433 1.321 . S
N432 Co435 2.135 . S
C433 N431 1.340 . S
C433 N432 1.321 . S
C433 H457 0.930 . S
H434 C429 0.931 . S
Co435 N432 2.135 . S
Co435 N438 2.121 . S
Co435 O443 2.055 . S
Co435 O446 2.039 . S
Co435 N449 2.140 . S
C436 O437 1.227 . S
C436 O446 1.265 . S
O437 C436 1.227 . S
N438 Co435 2.121 . S
N438 C440 1.375 . S
N438 C441 1.313 . S
C439 C440 1.338 . S
C439 N442 1.377 . S
C439 H459 0.930 . S
C440 N438 1.375 . S
C440 C439 1.338 . S
C440 H444 0.931 . S
C441 N438 1.313 . S
C441 N442 1.344 . S
C441 H445 0.930 . S
N442 C439 1.377 . S
N442 C441 1.344 . S
O443 Co435 2.055 . S
O443 C447 1.253 . S
H444 C440 0.931 . S
H445 C441 0.930 . S
O446 Co435 2.039 . S
O446 C436 1.265 . S
C447 O443 1.253 . S
C447 O448 1.227 . S
O448 C447 1.227 . S
N449 Co435 2.140 . S
N449 C452 1.346 . S
N449 C453 1.345 . S
C450 C451 1.387 . S
C450 C454 1.391 . S
C451 C450 1.387 . S
C451 C452 1.369 . S
C451 H460 0.929 . S
C452 N449 1.346 . S
C452 C451 1.369 . S
C452 H455 0.928 . S
C453 N449 1.345 . S
C453 C454 1.371 . S
C453 H456 0.931 . S
C454 C450 1.391 . S
C454 C453 1.371 . S
C454 H461 0.930 . S
H455 C452 0.928 . S
H456 C453 0.931 . S
H457 C433 0.930 . S
H458 C430 0.930 . S
H459 C439 0.930 . S
H460 C451 0.929 . S
H461 C454 0.930 . S
C462 C463 1.351 . S
C462 N465 1.368 . S
C462 H467 0.931 . S
C463 C462 1.351 . S
C463 N464 1.373 . S
C463 H491 0.930 . S
N464 C463 1.373 . S
N464 C466 1.340 . S
N465 C462 1.368 . S
N465 C466 1.321 . S
N465 Co468 2.135 . S
C466 N464 1.340 . S
C466 N465 1.321 . S
C466 H490 0.930 . S
H467 C462 0.931 . S
Co468 N465 2.135 . S
Co468 N471 2.121 . S
Co468 O476 2.055 . S
Co468 O479 2.039 . S
Co468 N482 2.140 . S
C469 O470 1.227 . S
C469 O479 1.265 . S
O470 C469 1.227 . S
N471 Co468 2.121 . S
N471 C473 1.375 . S
N471 C474 1.313 . S
C472 C473 1.338 . S
C472 N475 1.377 . S
C472 H492 0.930 . S
C473 N471 1.375 . S
C473 C472 1.338 . S
C473 H477 0.931 . S
C474 N471 1.313 . S
C474 N475 1.344 . S
C474 H478 0.930 . S
N475 C472 1.377 . S
N475 C474 1.344 . S
O476 Co468 2.055 . S
O476 C480 1.253 . S
H477 C473 0.931 . S
H478 C474 0.930 . S
O479 Co468 2.039 . S
O479 C469 1.265 . S
C480 O476 1.253 . S
C480 O481 1.227 . S
O481 C480 1.227 . S
N482 Co468 2.140 . S
N482 C485 1.346 . S
N482 C486 1.345 . S
C483 C484 1.387 . S
C483 C487 1.391 . S
C484 C483 1.387 . S
C484 C485 1.369 . S
C484 H493 0.929 . S
C485 N482 1.346 . S
C485 C484 1.369 . S
C485 H488 0.928 . S
C486 N482 1.345 . S
C486 C487 1.371 . S
C486 H489 0.931 . S
C487 C483 1.391 . S
C487 C486 1.371 . S
C487 H494 0.930 . S
H488 C485 0.928 . S
H489 C486 0.931 . S
H490 C466 0.930 . S
H491 C463 0.930 . S
H492 C472 0.930 . S
H493 C484 0.929 . S
H494 C487 0.930 . S
C495 C496 1.351 . S
C495 N498 1.368 . S
C495 H500 0.931 . S
C496 C495 1.351 . S
C496 N497 1.373 . S
C496 H524 0.930 . S
N497 C496 1.373 . S
N497 C499 1.340 . S
N498 C495 1.368 . S
N498 C499 1.321 . S
N498 Co501 2.135 . S
C499 N497 1.340 . S
C499 N498 1.321 . S
C499 H523 0.930 . S
H500 C495 0.931 . S
Co501 N498 2.135 . S
Co501 N504 2.121 . S
Co501 O509 2.055 . S
Co501 O512 2.039 . S
Co501 N515 2.140 . S
C502 O503 1.227 . S
C502 O512 1.265 . S
O503 C502 1.227 . S
N504 Co501 2.121 . S
N504 C506 1.375 . S
N504 C507 1.313 . S
C505 C506 1.338 . S
C505 N508 1.377 . S
C505 H525 0.930 . S
C506 N504 1.375 . S
C506 C505 1.338 . S
C506 H510 0.931 . S
C507 N504 1.313 . S
C507 N508 1.344 . S
C507 H511 0.930 . S
N508 C505 1.377 . S
N508 C507 1.344 . S
O509 Co501 2.055 . S
O509 C513 1.253 . S
H510 C506 0.931 . S
H511 C507 0.930 . S
O512 Co501 2.039 . S
O512 C502 1.265 . S
C513 O509 1.253 . S
C513 O514 1.227 . S
O514 C513 1.227 . S
N515 Co501 2.140 . S
N515 C518 1.346 . S
N515 C519 1.345 . S
C516 C517 1.387 . S
C516 C520 1.391 . S
C517 C516 1.387 . S
C517 C518 1.369 . S
C517 H526 0.929 . S
C518 N515 1.346 . S
C518 C517 1.369 . S
C518 H521 0.928 . S
C519 N515 1.345 . S
C519 C520 1.371 . S
C519 H522 0.931 . S
C520 C516 1.391 . S
C520 C519 1.371 . S
C520 H527 0.930 . S
H521 C518 0.928 . S
H522 C519 0.931 . S
H523 C499 0.930 . S
H524 C496 0.930 . S
H525 C505 0.930 . S
H526 C517 0.929 . S
H527 C520 0.930 . S
H528 C546 0.951 . S
H529 C548 0.951 . S
H530 C550 0.950 . S
H531 C551 0.950 . S
H532 C553 0.950 . S
H533 C556 0.950 . S
H534 C557 0.950 . S
H535 C559 0.943 1_655 S
H536 C560 0.950 . S
H537 C561 0.951 . S
H538 C563 0.951 . S
H539 C565 0.950 . S
H540 C566 0.950 . S
H541 C568 0.950 . S
H542 C571 0.950 . S
H543 C572 0.950 . S
H544 C574 0.950 . S
H545 C575 0.950 . S
C546 H528 0.951 . S
C546 C547 1.366 . S
C546 C548 1.388 . S
C547 C546 1.366 . S
C547 C551 1.385 . S
C548 H529 0.951 . S
C548 C546 1.388 . S
C548 C549 1.366 . S
C549 C548 1.366 . S
C549 C550 1.414 . S
C549 C552 1.499 . S
C550 H530 0.950 . S
C550 C549 1.414 . S
C550 C551 1.374 . S
C551 H531 0.950 . S
C551 C547 1.385 . S
C551 C550 1.374 . S
C552 C549 1.499 . S
C552 C553 1.373 . S
C552 C554 1.389 . S
C553 H532 0.950 . S
C553 C552 1.373 . S
C553 C569 1.377 1_556 S
C554 C552 1.389 . S
C554 C555 1.524 . S
C554 C568 1.377 1_556 S
C555 C554 1.524 . S
C555 C556 1.397 . S
C555 C560 1.363 . S
C556 H533 0.950 . S
C556 C555 1.397 . S
C556 C557 1.334 . S
C557 H534 0.950 . S
C557 C556 1.334 . S
C557 C558 1.287 1_455 S
C558 C557 1.287 1_655 S
C558 C559 1.522 1_655 S
C558 H577 0.913 . S
C559 H535 0.943 1_455 S
C559 C558 1.522 1_455 S
C559 C560 1.424 . S
C560 H536 0.950 . S
C560 C555 1.363 . S
C560 C559 1.424 . S
C561 H537 0.951 . S
C561 C562 1.366 . S
C561 C563 1.388 . S
C562 C561 1.366 . S
C562 C566 1.385 . S
C563 H538 0.951 . S
C563 C561 1.388 . S
C563 C564 1.366 . S
C564 C563 1.366 . S
C564 C565 1.414 . S
C564 C567 1.499 . S
C565 H539 0.950 . S
C565 C564 1.414 . S
C565 C566 1.374 . S
C566 H540 0.950 . S
C566 C562 1.385 . S
C566 C565 1.374 . S
C567 C564 1.499 . S
C567 C568 1.373 . S
C567 C569 1.389 . S
C568 H541 0.950 . S
C568 C554 1.377 1_554 S
C568 C567 1.373 . S
C569 C553 1.377 1_554 S
C569 C567 1.389 . S
C569 C570 1.524 . S
C570 C569 1.524 . S
C570 C571 1.397 . S
C570 C575 1.363 . S
C571 H542 0.950 . S
C571 C570 1.397 . S
C571 C572 1.334 . S
C572 H543 0.950 . S
C572 C571 1.334 . S
C572 C573 1.287 . S
C573 C572 1.287 . S
C573 C574 1.524 . S
C573 H576 0.999 . S
C574 H544 0.950 . S
C574 C573 1.524 . S
C574 C575 1.415 . S
C575 H545 0.950 . S
C575 C570 1.363 . S
C575 C574 1.415 . S
H576 C573 0.999 . S
H577 C558 0.913 . S
H578 C596 0.951 . S
H579 C598 0.951 . S
H580 C600 0.950 . S
H581 C601 0.950 . S
H582 C603 0.950 . S
H583 C606 0.950 . S
H584 C607 0.950 . S
H585 C609 0.950 . S
H586 C610 0.950 . S
H587 C611 0.951 . S
H588 C613 0.951 . S
H589 C615 0.950 . S
H590 C616 0.950 . S
H591 C618 0.950 . S
H592 C621 0.950 . S
H593 C622 0.950 . S
H594 C624 0.950 1_565 S
H595 C625 0.950 . S
C596 H578 0.951 . S
C596 C597 1.366 . S
C596 C598 1.388 . S
C597 C596 1.366 . S
C597 C601 1.385 . S
C598 H579 0.951 . S
C598 C596 1.388 . S
C598 C599 1.366 . S
C599 C598 1.366 . S
C599 C600 1.414 . S
C599 C602 1.499 . S
C600 H580 0.950 . S
C600 C599 1.414 . S
C600 C601 1.374 . S
C601 H581 0.950 . S
C601 C597 1.385 . S
C601 C600 1.374 . S
C602 C599 1.499 . S
C602 C603 1.373 . S
C602 C604 1.389 . S
C603 H582 0.950 . S
C603 C602 1.373 . S
C603 C619 1.377 1_556 S
C604 C602 1.389 . S
C604 C605 1.524 . S
C604 C618 1.377 1_556 S
C605 C604 1.524 . S
C605 C606 1.397 . S
C605 C610 1.363 . S
C606 H583 0.950 . S
C606 C605 1.397 . S
C606 C607 1.334 . S
C607 H584 0.950 . S
C607 C606 1.334 . S
C607 C608 1.287 . S
C608 C607 1.287 . S
C608 C609 1.524 . S
C608 H627 0.913 . S
C609 H585 0.950 . S
C609 C608 1.524 . S
C609 C610 1.415 . S
C610 H586 0.950 . S
C610 C605 1.363 . S
C610 C609 1.415 . S
C611 H587 0.951 . S
C611 C612 1.366 . S
C611 C613 1.388 . S
C612 C611 1.366 . S
C612 C616 1.385 . S
C613 H588 0.951 . S
C613 C611 1.388 . S
C613 C614 1.366 . S
C614 C613 1.366 . S
C614 C615 1.414 . S
C614 C617 1.499 . S
C615 H589 0.950 . S
C615 C614 1.414 . S
C615 C616 1.374 . S
C616 H590 0.950 . S
C616 C612 1.385 . S
C616 C615 1.374 . S
C617 C614 1.499 . S
C617 C618 1.373 . S
C617 C619 1.389 . S
C618 H591 0.950 . S
C618 C604 1.377 1_554 S
C618 C617 1.373 . S
C619 C603 1.377 1_554 S
C619 C617 1.389 . S
C619 C620 1.524 . S
C620 C619 1.524 . S
C620 C621 1.397 . S
C620 C625 1.363 . S
C621 H592 0.950 . S
C621 C620 1.397 . S
C621 C622 1.334 . S
C622 H593 0.950 . S
C622 C621 1.334 . S
C622 C623 1.287 . S
C623 C622 1.287 . S
C623 C624 1.524 . S
C623 H626 0.999 . S
C624 H594 0.950 1_545 S
C624 C623 1.524 . S
C624 C625 1.415 . S
C625 H595 0.950 . S
C625 C620 1.363 . S
C625 C624 1.415 . S
H626 C623 0.999 . S
H627 C608 0.913 . S
H628 C646 0.951 . S
H629 C648 0.951 . S
H630 C650 0.950 . S
H631 C651 0.950 . S
H632 C653 0.950 . S
H633 C656 0.950 . S
H634 C657 0.950 . S
H635 C659 0.957 . S
H636 C660 0.950 . S
H637 C661 0.951 . S
H638 C663 0.951 . S
H639 C665 0.950 . S
H640 C666 0.950 . S
H641 C668 0.950 . S
H642 C671 0.950 . S
H643 C672 0.950 . S
H644 C674 0.950 . S
H645 C675 0.950 . S
C646 H628 0.951 . S
C646 C647 1.366 . S
C646 C648 1.388 . S
C647 C646 1.366 . S
C647 C651 1.385 . S
C648 H629 0.951 . S
C648 C646 1.388 . S
C648 C649 1.366 . S
C649 C648 1.366 . S
C649 C650 1.414 . S
C649 C652 1.499 . S
C650 H630 0.950 . S
C650 C649 1.414 . S
C650 C651 1.374 . S
C651 H631 0.950 . S
C651 C647 1.385 . S
C651 C650 1.374 . S
C652 C649 1.499 . S
C652 C653 1.373 . S
C652 C654 1.389 . S
C653 H632 0.950 . S
C653 C652 1.373 . S
C653 C669 1.377 1_556 S
C654 C652 1.389 . S
C654 C655 1.524 . S
C654 C668 1.377 1_556 S
C655 C654 1.524 . S
C655 C656 1.397 . S
C655 C660 1.363 . S
C656 H633 0.950 . S
C656 C655 1.397 . S
C656 C657 1.334 . S
C657 H634 0.950 . S
C657 C656 1.334 . S
C657 C658 1.287 . S
C658 C657 1.287 . S
C658 C659 1.524 . S
C658 H677 0.913 . S
C659 H635 0.957 . S
C659 C658 1.524 . S
C659 C660 1.415 . S
C660 H636 0.950 . S
C660 C655 1.363 . S
C660 C659 1.415 . S
C661 H637 0.951 . S
C661 C662 1.366 . S
C661 C663 1.388 . S
C662 C661 1.366 . S
C662 C666 1.385 . S
C663 H638 0.951 . S
C663 C661 1.388 . S
C663 C664 1.366 . S
C664 C663 1.366 . S
C664 C665 1.414 . S
C664 C667 1.499 . S
C665 H639 0.950 . S
C665 C664 1.414 . S
C665 C666 1.374 . S
C666 H640 0.950 . S
C666 C662 1.385 . S
C666 C665 1.374 . S
C667 C664 1.499 . S
C667 C668 1.373 . S
C667 C669 1.389 . S
C668 H641 0.950 . S
C668 C654 1.377 1_554 S
C668 C667 1.373 . S
C669 C653 1.377 1_554 S
C669 C667 1.389 . S
C669 C670 1.524 . S
C670 C669 1.524 . S
C670 C671 1.397 . S
C670 C675 1.363 . S
C671 H642 0.950 . S
C671 C670 1.397 . S
C671 C672 1.334 . S
C672 H643 0.950 . S
C672 C671 1.334 . S
C672 C673 1.287 . S
C673 C672 1.287 . S
C673 C674 1.524 . S
C673 H676 0.999 . S
C674 H644 0.950 . S
C674 C673 1.524 . S
C674 C675 1.415 . S
C675 H645 0.950 . S
C675 C670 1.363 . S
C675 C674 1.415 . S
H676 C673 0.999 . S
H677 C658 0.913 . S
H678 C696 0.951 . S
H679 C698 0.951 . S
H680 C700 0.950 . S
H681 C701 0.950 . S
H682 C703 0.950 . S
H683 C706 0.950 . S
H684 C707 0.950 . S
H685 C709 0.950 . S
H686 C710 0.950 . S
H687 C711 0.951 . S
H688 C713 0.951 . S
H689 C715 0.950 . S
H690 C716 0.950 . S
H691 C718 0.950 . S
H692 C721 0.950 . S
H693 C722 0.950 . S
H694 C724 0.950 . S
H695 C725 0.950 . S
C696 H678 0.951 . S
C696 C697 1.366 . S
C696 C698 1.388 . S
C697 C696 1.366 . S
C697 C701 1.385 . S
C698 H679 0.951 . S
C698 C696 1.388 . S
C698 C699 1.366 . S
C699 C698 1.366 . S
C699 C700 1.414 . S
C699 C702 1.499 . S
C700 H680 0.950 . S
C700 C699 1.414 . S
C700 C701 1.374 . S
C701 H681 0.950 . S
C701 C697 1.385 . S
C701 C700 1.374 . S
C702 C699 1.499 . S
C702 C703 1.373 . S
C702 C704 1.389 . S
C703 H682 0.950 . S
C703 C702 1.373 . S
C703 C719 1.377 1_556 S
C704 C702 1.389 . S
C704 C705 1.524 . S
C704 C718 1.377 1_556 S
C705 C704 1.524 . S
C705 C706 1.397 . S
C705 C710 1.363 . S
C706 H683 0.950 . S
C706 C705 1.397 . S
C706 C707 1.334 . S
C707 H684 0.950 . S
C707 C706 1.334 . S
C707 C708 1.287 . S
C708 C707 1.287 . S
C708 C709 1.524 . S
C708 H727 0.913 . S
C709 H685 0.950 . S
C709 C708 1.524 . S
C709 C710 1.415 . S
C710 H686 0.950 . S
C710 C705 1.363 . S
C710 C709 1.415 . S
C711 H687 0.951 . S
C711 C712 1.366 . S
C711 C713 1.388 . S
C712 C711 1.366 . S
C712 C716 1.385 . S
C713 H688 0.951 . S
C713 C711 1.388 . S
C713 C714 1.366 . S
C714 C713 1.366 . S
C714 C715 1.414 . S
C714 C717 1.499 . S
C715 H689 0.950 . S
C715 C714 1.414 . S
C715 C716 1.374 . S
C716 H690 0.950 . S
C716 C712 1.385 . S
C716 C715 1.374 . S
C717 C714 1.499 . S
C717 C718 1.373 . S
C717 C719 1.389 . S
C718 H691 0.950 . S
C718 C704 1.377 1_554 S
C718 C717 1.373 . S
C719 C703 1.377 1_554 S
C719 C717 1.389 . S
C719 C720 1.524 . S
C720 C719 1.524 . S
C720 C721 1.397 . S
C720 C725 1.363 . S
C721 H692 0.950 . S
C721 C720 1.397 . S
C721 C722 1.334 . S
C722 H693 0.950 . S
C722 C721 1.334 . S
C722 C723 1.287 . S
C723 C722 1.287 . S
C723 C724 1.524 . S
C723 H726 0.999 . S
C724 H694 0.950 . S
C724 C723 1.524 . S
C724 C725 1.415 . S
C725 H695 0.950 . S
C725 C720 1.363 . S
C725 C724 1.415 . S
H726 C723 0.999 . S
H727 C708 0.913 . S
H728 C746 0.951 . S
H729 C748 0.951 . S
H730 C750 0.950 . S
H731 C751 0.950 . S
H732 C753 0.950 . S
H733 C756 0.950 . S
H734 C757 0.950 . S
H735 C759 0.950 . S
H736 C760 0.950 . S
H737 C761 0.951 . S
H738 C763 0.951 . S
H739 C765 0.950 . S
H740 C766 0.950 . S
H741 C768 0.950 . S
H742 C771 0.950 . S
H743 C772 0.950 . S
H744 C774 0.950 . S
H745 C775 0.950 . S
C746 H728 0.951 . S
C746 C747 1.366 . S
C746 C748 1.388 . S
C747 C746 1.366 . S
C747 C751 1.385 . S
C748 H729 0.951 . S
C748 C746 1.388 . S
C748 C749 1.366 . S
C749 C748 1.366 . S
C749 C750 1.414 . S
C749 C752 1.499 . S
C750 H730 0.950 . S
C750 C749 1.414 . S
C750 C751 1.374 . S
C751 H731 0.950 . S
C751 C747 1.385 . S
C751 C750 1.374 . S
C752 C749 1.499 . S
C752 C753 1.373 . S
C752 C754 1.389 . S
C753 H732 0.950 . S
C753 C752 1.373 . S
C753 C769 1.377 . S
C754 C752 1.389 . S
C754 C755 1.524 . S
C754 C768 1.377 . S
C755 C754 1.524 . S
C755 C756 1.397 . S
C755 C760 1.363 . S
C756 H733 0.950 . S
C756 C755 1.397 . S
C756 C757 1.334 . S
C757 H734 0.950 . S
C757 C756 1.334 . S
C757 C758 1.287 . S
C758 C757 1.287 . S
C758 C759 1.524 . S
C758 H777 0.913 . S
C759 H735 0.950 . S
C759 C758 1.524 . S
C759 C760 1.415 . S
C760 H736 0.950 . S
C760 C755 1.363 . S
C760 C759 1.415 . S
C761 H737 0.951 . S
C761 C762 1.366 . S
C761 C763 1.388 . S
C762 C761 1.366 . S
C762 C766 1.385 . S
C763 H738 0.951 . S
C763 C761 1.388 . S
C763 C764 1.366 . S
C764 C763 1.366 . S
C764 C765 1.414 . S
C764 C767 1.499 . S
C765 H739 0.950 . S
C765 C764 1.414 . S
C765 C766 1.374 . S
C766 H740 0.950 . S
C766 C762 1.385 . S
C766 C765 1.374 . S
C767 C764 1.499 . S
C767 C768 1.373 . S
C767 C769 1.389 . S
C768 H741 0.950 . S
C768 C754 1.377 . S
C768 C767 1.373 . S
C769 C753 1.377 . S
C769 C767 1.389 . S
C769 C770 1.524 . S
C770 C769 1.524 . S
C770 C771 1.397 . S
C770 C775 1.363 . S
C771 H742 0.950 . S
C771 C770 1.397 . S
C771 C772 1.334 . S
C772 H743 0.950 . S
C772 C771 1.334 . S
C772 C773 1.287 . S
C773 C772 1.287 . S
C773 C774 1.524 . S
C773 H776 0.999 . S
C774 H744 0.950 . S
C774 C773 1.524 . S
C774 C775 1.415 . S
C775 H745 0.950 . S
C775 C770 1.363 . S
C775 C774 1.415 . S
H776 C773 0.999 . S
H777 C758 0.913 . S
H778 C796 0.951 . S
H779 C798 0.951 . S
H780 C800 0.950 . S
H781 C801 0.950 . S
H782 C803 0.950 . S
H783 C806 0.950 . S
H784 C807 0.950 . S
H785 C809 0.950 . S
H786 C810 0.950 . S
H787 C811 0.951 . S
H788 C813 0.951 . S
H789 C815 0.950 . S
H790 C816 0.950 . S
H791 C818 0.950 . S
H792 C821 0.950 . S
H793 C822 0.950 . S
H794 C824 0.950 . S
H795 C825 0.950 . S
C796 H778 0.951 . S
C796 C797 1.366 . S
C796 C798 1.388 . S
C797 C796 1.366 . S
C797 C801 1.385 . S
C798 H779 0.951 . S
C798 C796 1.388 . S
C798 C799 1.366 . S
C799 C798 1.366 . S
C799 C800 1.414 . S
C799 C802 1.499 . S
C800 H780 0.950 . S
C800 C799 1.414 . S
C800 C801 1.374 . S
C801 H781 0.950 . S
C801 C797 1.385 . S
C801 C800 1.374 . S
C802 C799 1.499 . S
C802 C803 1.373 . S
C802 C804 1.389 . S
C803 H782 0.950 . S
C803 C802 1.373 . S
C803 C819 1.377 . S
C804 C802 1.389 . S
C804 C805 1.524 . S
C804 C818 1.377 . S
C805 C804 1.524 . S
C805 C806 1.397 . S
C805 C810 1.363 . S
C806 H783 0.950 . S
C806 C805 1.397 . S
C806 C807 1.334 . S
C807 H784 0.950 . S
C807 C806 1.334 . S
C807 C808 1.287 . S
C808 C807 1.287 . S
C808 C809 1.524 . S
C808 H827 0.913 . S
C809 H785 0.950 . S
C809 C808 1.524 . S
C809 C810 1.415 . S
C810 H786 0.950 . S
C810 C805 1.363 . S
C810 C809 1.415 . S
C811 H787 0.951 . S
C811 C812 1.366 . S
C811 C813 1.388 . S
C812 C811 1.366 . S
C812 C816 1.385 . S
C813 H788 0.951 . S
C813 C811 1.388 . S
C813 C814 1.366 . S
C814 C813 1.366 . S
C814 C815 1.414 . S
C814 C817 1.499 . S
C815 H789 0.950 . S
C815 C814 1.414 . S
C815 C816 1.374 . S
C816 H790 0.950 . S
C816 C812 1.385 . S
C816 C815 1.374 . S
C817 C814 1.499 . S
C817 C818 1.373 . S
C817 C819 1.389 . S
C818 H791 0.950 . S
C818 C804 1.377 . S
C818 C817 1.373 . S
C819 C803 1.377 . S
C819 C817 1.389 . S
C819 C820 1.524 . S
C820 C819 1.524 . S
C820 C821 1.397 . S
C820 C825 1.363 . S
C821 H792 0.950 . S
C821 C820 1.397 . S
C821 C822 1.334 . S
C822 H793 0.950 . S
C822 C821 1.334 . S
C822 C823 1.287 . S
C823 C822 1.287 . S
C823 C824 1.524 . S
C823 H826 0.999 . S
C824 H794 0.950 . S
C824 C823 1.524 . S
C824 C825 1.415 . S
C825 H795 0.950 . S
C825 C820 1.363 . S
C825 C824 1.415 . S
H826 C823 0.999 . S
H827 C808 0.913 . S
H828 C846 0.951 . S
H829 C848 0.951 . S
H830 C850 0.950 . S
H831 C851 0.950 . S
H832 C853 0.950 . S
H833 C856 0.950 . S
H834 C857 0.950 . S
H835 C859 0.950 . S
H836 C860 0.950 . S
H837 C861 0.951 . S
H838 C863 0.951 . S
H839 C865 0.950 . S
H840 C866 0.950 . S
H841 C868 0.950 . S
H842 C871 0.950 . S
H843 C872 0.950 . S
H844 C874 0.950 . S
H845 C875 0.950 . S
C846 H828 0.951 . S
C846 C847 1.366 . S
C846 C848 1.388 . S
C847 C846 1.366 . S
C847 C851 1.385 . S
C848 H829 0.951 . S
C848 C846 1.388 . S
C848 C849 1.366 . S
C849 C848 1.366 . S
C849 C850 1.414 . S
C849 C852 1.499 . S
C850 H830 0.950 . S
C850 C849 1.414 . S
C850 C851 1.374 . S
C851 H831 0.950 . S
C851 C847 1.385 . S
C851 C850 1.374 . S
C852 C849 1.499 . S
C852 C853 1.373 . S
C852 C854 1.389 . S
C853 H832 0.950 . S
C853 C852 1.373 . S
C853 C869 1.377 . S
C854 C852 1.389 . S
C854 C855 1.524 . S
C854 C868 1.377 . S
C855 C854 1.524 . S
C855 C856 1.397 . S
C855 C860 1.363 . S
C856 H833 0.950 . S
C856 C855 1.397 . S
C856 C857 1.334 . S
C857 H834 0.950 . S
C857 C856 1.334 . S
C857 C858 1.287 . S
C858 C857 1.287 . S
C858 C859 1.524 . S
C858 H877 0.913 . S
C859 H835 0.950 . S
C859 C858 1.524 . S
C859 C860 1.415 . S
C860 H836 0.950 . S
C860 C855 1.363 . S
C860 C859 1.415 . S
C861 H837 0.951 . S
C861 C862 1.366 . S
C861 C863 1.388 . S
C862 C861 1.366 . S
C862 C866 1.385 . S
C863 H838 0.951 . S
C863 C861 1.388 . S
C863 C864 1.366 . S
C864 C863 1.366 . S
C864 C865 1.414 . S
C864 C867 1.499 . S
C865 H839 0.950 . S
C865 C864 1.414 . S
C865 C866 1.374 . S
C866 H840 0.950 . S
C866 C862 1.385 . S
C866 C865 1.374 . S
C867 C864 1.499 . S
C867 C868 1.373 . S
C867 C869 1.389 . S
C868 H841 0.950 . S
C868 C854 1.377 . S
C868 C867 1.373 . S
C869 C853 1.377 . S
C869 C867 1.389 . S
C869 C870 1.524 . S
C870 C869 1.524 . S
C870 C871 1.397 . S
C870 C875 1.363 . S
C871 H842 0.950 . S
C871 C870 1.397 . S
C871 C872 1.334 . S
C872 H843 0.950 . S
C872 C871 1.334 . S
C872 C873 1.287 . S
C873 C872 1.287 . S
C873 C874 1.524 . S
C873 H876 0.999 . S
C874 H844 0.950 . S
C874 C873 1.524 . S
C874 C875 1.415 . S
C875 H845 0.950 . S
C875 C870 1.363 . S
C875 C874 1.415 . S
H876 C873 0.999 . S
H877 C858 0.913 . S
H878 C896 0.951 . S
H879 C898 0.951 . S
H880 C900 0.950 . S
H881 C901 0.950 . S
H882 C903 0.950 . S
H883 C906 0.950 . S
H884 C907 0.950 . S
H885 C909 0.950 . S
H886 C910 0.950 . S
H887 C911 0.951 . S
H888 C913 0.951 . S
H889 C915 0.950 . S
H890 C916 0.950 . S
H891 C918 0.950 . S
H892 C921 0.950 . S
H893 C922 0.950 . S
H894 C924 0.950 . S
H895 C925 0.950 . S
C896 H878 0.951 . S
C896 C897 1.366 . S
C896 C898 1.388 . S
C897 C896 1.366 . S
C897 C901 1.385 . S
C898 H879 0.951 . S
C898 C896 1.388 . S
C898 C899 1.366 . S
C899 C898 1.366 . S
C899 C900 1.414 . S
C899 C902 1.499 . S
C900 H880 0.950 . S
C900 C899 1.414 . S
C900 C901 1.374 . S
C901 H881 0.950 . S
C901 C897 1.385 . S
C901 C900 1.374 . S
C902 C899 1.499 . S
C902 C903 1.373 . S
C902 C904 1.389 . S
C903 H882 0.950 . S
C903 C902 1.373 . S
C903 C919 1.377 . S
C904 C902 1.389 . S
C904 C905 1.524 . S
C904 C918 1.377 . S
C905 C904 1.524 . S
C905 C906 1.397 . S
C905 C910 1.363 . S
C906 H883 0.950 . S
C906 C905 1.397 . S
C906 C907 1.334 . S
C907 H884 0.950 . S
C907 C906 1.334 . S
C907 C908 1.287 . S
C908 C907 1.287 . S
C908 C909 1.524 . S
C908 H927 0.913 . S
C909 H885 0.950 . S
C909 C908 1.524 . S
C909 C910 1.415 . S
C910 H886 0.950 . S
C910 C905 1.363 . S
C910 C909 1.415 . S
C911 H887 0.951 . S
C911 C912 1.366 . S
C911 C913 1.388 . S
C912 C911 1.366 . S
C912 C916 1.385 . S
C913 H888 0.951 . S
C913 C911 1.388 . S
C913 C914 1.366 . S
C914 C913 1.366 . S
C914 C915 1.414 . S
C914 C917 1.499 . S
C915 H889 0.950 . S
C915 C914 1.414 . S
C915 C916 1.374 . S
C916 H890 0.950 . S
C916 C912 1.385 . S
C916 C915 1.374 . S
C917 C914 1.499 . S
C917 C918 1.373 . S
C917 C919 1.389 . S
C918 H891 0.950 . S
C918 C904 1.377 . S
C918 C917 1.373 . S
C919 C903 1.377 . S
C919 C917 1.389 . S
C919 C920 1.524 . S
C920 C919 1.524 . S
C920 C921 1.397 . S
C920 C925 1.363 . S
C921 H892 0.950 . S
C921 C920 1.397 . S
C921 C922 1.334 . S
C922 H893 0.950 . S
C922 C921 1.334 . S
C922 C923 1.287 . S
C923 C922 1.287 . S
C923 C924 1.524 . S
C923 H926 0.999 . S
C924 H894 0.950 . S
C924 C923 1.524 . S
C924 C925 1.415 . S
C925 H895 0.950 . S
C925 C920 1.363 . S
C925 C924 1.415 . S
H926 C923 0.999 . S
H927 C908 0.913 . S
H928 C946 0.951 . S
H929 C948 0.951 . S
H930 C950 0.950 . S
H931 C951 0.950 . S
H932 C953 0.950 . S
H933 C956 0.950 . S
H934 C957 0.950 . S
H935 C959 0.950 . S
H936 C960 0.950 . S
H937 C961 0.951 . S
H938 C963 0.951 . S
H939 C965 0.950 . S
H940 C966 0.950 . S
H941 C968 0.950 . S
H942 C971 0.950 . S
H943 C972 0.950 . S
H944 C974 0.950 . S
H945 C975 0.950 . S
C946 H928 0.951 . S
C946 C947 1.366 . S
C946 C948 1.388 . S
C947 C946 1.366 . S
C947 C951 1.385 . S
C948 H929 0.951 . S
C948 C946 1.388 . S
C948 C949 1.366 . S
C949 C948 1.366 . S
C949 C950 1.414 . S
C949 C952 1.499 . S
C950 H930 0.950 . S
C950 C949 1.414 . S
C950 C951 1.374 . S
C951 H931 0.950 . S
C951 C947 1.385 . S
C951 C950 1.374 . S
C952 C949 1.499 . S
C952 C953 1.373 . S
C952 C954 1.389 . S
C953 H932 0.950 . S
C953 C952 1.373 . S
C953 C969 1.377 . S
C954 C952 1.389 . S
C954 C955 1.524 . S
C954 C968 1.377 . S
C955 C954 1.524 . S
C955 C956 1.397 . S
C955 C960 1.363 . S
C956 H933 0.950 . S
C956 C955 1.397 . S
C956 C957 1.334 . S
C957 H934 0.950 . S
C957 C956 1.334 . S
C957 C958 1.287 . S
C958 C957 1.287 . S
C958 C959 1.524 . S
C958 H977 0.913 . S
C959 H935 0.950 . S
C959 C958 1.524 . S
C959 C960 1.415 . S
C960 H936 0.950 . S
C960 C955 1.363 . S
C960 C959 1.415 . S
C961 H937 0.951 . S
C961 C962 1.366 . S
C961 C963 1.388 . S
C962 C961 1.366 . S
C962 C966 1.385 . S
C963 H938 0.951 . S
C963 C961 1.388 . S
C963 C964 1.366 . S
C964 C963 1.366 . S
C964 C965 1.414 . S
C964 C967 1.499 . S
C965 H939 0.950 . S
C965 C964 1.414 . S
C965 C966 1.374 . S
C966 H940 0.950 . S
C966 C962 1.385 . S
C966 C965 1.374 . S
C967 C964 1.499 . S
C967 C968 1.373 . S
C967 C969 1.389 . S
C968 H941 0.950 . S
C968 C954 1.377 . S
C968 C967 1.373 . S
C969 C953 1.377 . S
C969 C967 1.389 . S
C969 C970 1.524 . S
C970 C969 1.524 . S
C970 C971 1.397 . S
C970 C975 1.363 . S
C971 H942 0.950 . S
C971 C970 1.397 . S
C971 C972 1.334 . S
C972 H943 0.950 . S
C972 C971 1.334 . S
C972 C973 1.287 . S
C973 C972 1.287 . S
C973 C974 1.524 . S
C973 H976 0.999 . S
C974 H944 0.950 . S
C974 C973 1.524 . S
C974 C975 1.415 . S
C975 H945 0.950 . S
C975 C970 1.363 . S
C975 C974 1.415 . S
H976 C973 0.999 . S
H977 C958 0.913 . S
H978 C996 0.951 . S
H979 C998 0.951 . S
H980 C1000 0.950 . S
H981 C1001 0.950 . S
H982 C1003 0.950 . S
H983 C1006 0.950 . S
H984 C1007 0.950 . S
H985 C1009 0.950 . S
H986 C1010 0.950 . S
H987 C1011 0.951 . S
H988 C1013 0.951 . S
H989 C1015 0.950 . S
H990 C1016 0.950 . S
H991 C1018 0.950 . S
H992 C1021 0.950 . S
H993 C1022 0.950 . S
H994 C1024 0.950 . S
H995 C1025 0.950 . S
C996 H978 0.951 . S
C996 C997 1.366 . S
C996 C998 1.388 . S
C997 C996 1.366 . S
C997 C1001 1.385 . S
C998 H979 0.951 . S
C998 C996 1.388 . S
C998 C999 1.366 . S
C999 C998 1.366 . S
C999 C1000 1.414 . S
C999 C1002 1.499 . S
C1000 H980 0.950 . S
C1000 C999 1.414 . S
C1000 C1001 1.374 . S
C1001 H981 0.950 . S
C1001 C997 1.385 . S
C1001 C1000 1.374 . S
C1002 C999 1.499 . S
C1002 C1003 1.373 . S
C1002 C1004 1.389 . S
C1003 H982 0.950 . S
C1003 C1002 1.373 . S
C1003 C1019 1.377 . S
C1004 C1002 1.389 . S
C1004 C1005 1.524 . S
C1004 C1018 1.377 . S
C1005 C1004 1.524 . S
C1005 C1006 1.397 . S
C1005 C1010 1.363 . S
C1006 H983 0.950 . S
C1006 C1005 1.397 . S
C1006 C1007 1.334 . S
C1007 H984 0.950 . S
C1007 C1006 1.334 . S
C1007 C1008 1.287 . S
C1008 C1007 1.287 . S
C1008 C1009 1.524 . S
C1008 H1027 0.913 . S
C1009 H985 0.950 . S
C1009 C1008 1.524 . S
C1009 C1010 1.415 . S
C1010 H986 0.950 . S
C1010 C1005 1.363 . S
C1010 C1009 1.415 . S
C1011 H987 0.951 . S
C1011 C1012 1.366 . S
C1011 C1013 1.388 . S
C1012 C1011 1.366 . S
C1012 C1016 1.385 . S
C1013 H988 0.951 . S
C1013 C1011 1.388 . S
C1013 C1014 1.366 . S
C1014 C1013 1.366 . S
C1014 C1015 1.414 . S
C1014 C1017 1.499 . S
C1015 H989 0.950 . S
C1015 C1014 1.414 . S
C1015 C1016 1.374 . S
C1016 H990 0.950 . S
C1016 C1012 1.385 . S
C1016 C1015 1.374 . S
C1017 C1014 1.499 . S
C1017 C1018 1.373 . S
C1017 C1019 1.389 . S
C1018 H991 0.950 . S
C1018 C1004 1.377 . S
C1018 C1017 1.373 . S
C1019 C1003 1.377 . S
C1019 C1017 1.389 . S
C1019 C1020 1.524 . S
C1020 C1019 1.524 . S
C1020 C1021 1.397 . S
C1020 C1025 1.363 . S
C1021 H992 0.950 . S
C1021 C1020 1.397 . S
C1021 C1022 1.334 . S
C1022 H993 0.950 . S
C1022 C1021 1.334 . S
C1022 C1023 1.287 . S
C1023 C1022 1.287 . S
C1023 C1024 1.524 . S
C1023 H1026 0.999 . S
C1024 H994 0.950 . S
C1024 C1023 1.524 . S
C1024 C1025 1.415 . S
C1025 H995 0.950 . S
C1025 C1020 1.363 . S
C1025 C1024 1.415 . S
H1026 C1023 0.999 . S
H1027 C1008 0.913 . S
H1028 C1046 0.951 . S
H1029 C1048 0.951 . S
H1030 C1050 0.950 . S
H1031 C1051 0.950 . S
H1032 C1053 0.950 . S
H1033 C1056 0.950 . S
H1034 C1057 0.950 . S
H1035 C1059 0.950 . S
H1036 C1060 0.950 . S
H1037 C1061 0.951 . S
H1038 C1063 0.951 . S
H1039 C1065 0.950 . S
H1040 C1066 0.950 . S
H1041 C1068 0.950 . S
H1042 C1071 0.950 . S
H1043 C1072 0.950 . S
H1044 C1074 0.950 . S
H1045 C1075 0.950 . S
C1046 H1028 0.951 . S
C1046 C1047 1.366 . S
C1046 C1048 1.388 . S
C1047 C1046 1.366 . S
C1047 C1051 1.385 . S
C1048 H1029 0.951 . S
C1048 C1046 1.388 . S
C1048 C1049 1.366 . S
C1049 C1048 1.366 . S
C1049 C1050 1.414 . S
C1049 C1052 1.499 . S
C1050 H1030 0.950 . S
C1050 C1049 1.414 . S
C1050 C1051 1.374 . S
C1051 H1031 0.950 . S
C1051 C1047 1.385 . S
C1051 C1050 1.374 . S
C1052 C1049 1.499 . S
C1052 C1053 1.373 . S
C1052 C1054 1.389 . S
C1053 H1032 0.950 . S
C1053 C1052 1.373 . S
C1053 C1069 1.377 . S
C1054 C1052 1.389 . S
C1054 C1055 1.524 . S
C1054 C1068 1.377 . S
C1055 C1054 1.524 . S
C1055 C1056 1.397 . S
C1055 C1060 1.363 . S
C1056 H1033 0.950 . S
C1056 C1055 1.397 . S
C1056 C1057 1.334 . S
C1057 H1034 0.950 . S
C1057 C1056 1.334 . S
C1057 C1058 1.287 . S
C1058 C1057 1.287 . S
C1058 C1059 1.524 . S
C1058 H1077 0.913 . S
C1059 H1035 0.950 . S
C1059 C1058 1.524 . S
C1059 C1060 1.415 . S
C1060 H1036 0.950 . S
C1060 C1055 1.363 . S
C1060 C1059 1.415 . S
C1061 H1037 0.951 . S
C1061 C1062 1.366 . S
C1061 C1063 1.388 . S
C1062 C1061 1.366 . S
C1062 C1066 1.385 . S
C1063 H1038 0.951 . S
C1063 C1061 1.388 . S
C1063 C1064 1.366 . S
C1064 C1063 1.366 . S
C1064 C1065 1.414 . S
C1064 C1067 1.499 . S
C1065 H1039 0.950 . S
C1065 C1064 1.414 . S
C1065 C1066 1.374 . S
C1066 H1040 0.950 . S
C1066 C1062 1.385 . S
C1066 C1065 1.374 . S
C1067 C1064 1.499 . S
C1067 C1068 1.373 . S
C1067 C1069 1.389 . S
C1068 H1041 0.950 . S
C1068 C1054 1.377 . S
C1068 C1067 1.373 . S
C1069 C1053 1.377 . S
C1069 C1067 1.389 . S
C1069 C1070 1.524 . S
C1070 C1069 1.524 . S
C1070 C1071 1.397 . S
C1070 C1075 1.363 . S
C1071 H1042 0.950 . S
C1071 C1070 1.397 . S
C1071 C1072 1.334 . S
C1072 H1043 0.950 . S
C1072 C1071 1.334 . S
C1072 C1073 1.287 . S
C1073 C1072 1.287 . S
C1073 C1074 1.524 . S
C1073 H1076 0.999 . S
C1074 H1044 0.950 . S
C1074 C1073 1.524 . S
C1074 C1075 1.415 . S
C1075 H1045 0.950 . S
C1075 C1070 1.363 . S
C1075 C1074 1.415 . S
H1076 C1073 0.999 . S
H1077 C1058 0.913 . S
H1078 C1096 0.951 . S
H1079 C1098 0.951 . S
H1080 C1100 0.950 . S
H1081 C1101 0.950 . S
H1082 C1103 0.950 . S
H1083 C1106 0.950 . S
H1084 C1107 0.950 . S
H1085 C1109 0.950 . S
H1086 C1110 0.950 . S
H1087 C1111 0.951 . S
H1088 C1113 0.951 . S
H1089 C1115 0.950 . S
H1090 C1116 0.950 . S
H1091 C1118 0.950 . S
H1092 C1121 0.950 . S
H1093 C1122 0.950 . S
H1094 C1124 0.950 . S
H1095 C1125 0.950 . S
C1096 H1078 0.951 . S
C1096 C1097 1.366 . S
C1096 C1098 1.388 . S
C1097 C1096 1.366 . S
C1097 C1101 1.385 . S
C1098 H1079 0.951 . S
C1098 C1096 1.388 . S
C1098 C1099 1.366 . S
C1099 C1098 1.366 . S
C1099 C1100 1.414 . S
C1099 C1102 1.499 . S
C1100 H1080 0.950 . S
C1100 C1099 1.414 . S
C1100 C1101 1.374 . S
C1101 H1081 0.950 . S
C1101 C1097 1.385 . S
C1101 C1100 1.374 . S
C1102 C1099 1.499 . S
C1102 C1103 1.373 . S
C1102 C1104 1.389 . S
C1103 H1082 0.950 . S
C1103 C1102 1.373 . S
C1103 C1119 1.377 . S
C1104 C1102 1.389 . S
C1104 C1105 1.524 . S
C1104 C1118 1.377 . S
C1105 C1104 1.524 . S
C1105 C1106 1.397 . S
C1105 C1110 1.363 . S
C1106 H1083 0.950 . S
C1106 C1105 1.397 . S
C1106 C1107 1.334 . S
C1107 H1084 0.950 . S
C1107 C1106 1.334 . S
C1107 C1108 1.287 . S
C1108 C1107 1.287 . S
C1108 C1109 1.524 . S
C1108 H1127 0.913 . S
C1109 H1085 0.950 . S
C1109 C1108 1.524 . S
C1109 C1110 1.415 . S
C1110 H1086 0.950 . S
C1110 C1105 1.363 . S
C1110 C1109 1.415 . S
C1111 H1087 0.951 . S
C1111 C1112 1.366 . S
C1111 C1113 1.388 . S
C1112 C1111 1.366 . S
C1112 C1116 1.385 . S
C1113 H1088 0.951 . S
C1113 C1111 1.388 . S
C1113 C1114 1.366 . S
C1114 C1113 1.366 . S
C1114 C1115 1.414 . S
C1114 C1117 1.499 . S
C1115 H1089 0.950 . S
C1115 C1114 1.414 . S
C1115 C1116 1.374 . S
C1116 H1090 0.950 . S
C1116 C1112 1.385 . S
C1116 C1115 1.374 . S
C1117 C1114 1.499 . S
C1117 C1118 1.373 . S
C1117 C1119 1.389 . S
C1118 H1091 0.950 . S
C1118 C1104 1.377 . S
C1118 C1117 1.373 . S
C1119 C1103 1.377 . S
C1119 C1117 1.389 . S
C1119 C1120 1.524 . S
C1120 C1119 1.524 . S
C1120 C1121 1.397 . S
C1120 C1125 1.363 . S
C1121 H1092 0.950 . S
C1121 C1120 1.397 . S
C1121 C1122 1.334 . S
C1122 H1093 0.950 . S
C1122 C1121 1.334 . S
C1122 C1123 1.287 . S
C1123 C1122 1.287 . S
C1123 C1124 1.524 . S
C1123 H1126 0.999 . S
C1124 H1094 0.950 . S
C1124 C1123 1.524 . S
C1124 C1125 1.415 . S
C1125 H1095 0.950 . S
C1125 C1120 1.363 . S
C1125 C1124 1.415 . S
H1126 C1123 0.999 . S
H1127 C1108 0.913 . S
H1128 C1146 0.951 . S
H1129 C1148 0.951 . S
H1130 C1150 0.950 . S
H1131 C1151 0.950 . S
H1132 C1153 0.950 . S
H1133 C1156 0.950 . S
H1134 C1157 0.950 . S
H1135 C1159 0.950 . S
H1136 C1160 0.950 . S
H1137 C1161 0.951 . S
H1138 C1163 0.951 . S
H1139 C1165 0.950 . S
H1140 C1166 0.950 . S
H1141 C1168 0.950 . S
H1142 C1171 0.950 . S
H1143 C1172 0.950 . S
H1144 C1174 0.950 . S
H1145 C1175 0.950 . S
C1146 H1128 0.951 . S
C1146 C1147 1.366 . S
C1146 C1148 1.388 . S
C1147 C1146 1.366 . S
C1147 C1151 1.385 . S
C1148 H1129 0.951 . S
C1148 C1146 1.388 . S
C1148 C1149 1.366 . S
C1149 C1148 1.366 . S
C1149 C1150 1.414 . S
C1149 C1152 1.499 . S
C1150 H1130 0.950 . S
C1150 C1149 1.414 . S
C1150 C1151 1.374 . S
C1151 H1131 0.950 . S
C1151 C1147 1.385 . S
C1151 C1150 1.374 . S
C1152 C1149 1.499 . S
C1152 C1153 1.373 . S
C1152 C1154 1.389 . S
C1153 H1132 0.950 . S
C1153 C1152 1.373 . S
C1153 C1169 1.377 . S
C1154 C1152 1.389 . S
C1154 C1155 1.524 . S
C1154 C1168 1.377 . S
C1155 C1154 1.524 . S
C1155 C1156 1.397 . S
C1155 C1160 1.363 . S
C1156 H1133 0.950 . S
C1156 C1155 1.397 . S
C1156 C1157 1.334 . S
C1157 H1134 0.950 . S
C1157 C1156 1.334 . S
C1157 C1158 1.287 . S
C1158 C1157 1.287 . S
C1158 C1159 1.524 . S
C1158 H1177 0.913 . S
C1159 H1135 0.950 . S
C1159 C1158 1.524 . S
C1159 C1160 1.415 . S
C1160 H1136 0.950 . S
C1160 C1155 1.363 . S
C1160 C1159 1.415 . S
C1161 H1137 0.951 . S
C1161 C1162 1.366 . S
C1161 C1163 1.388 . S
C1162 C1161 1.366 . S
C1162 C1166 1.385 . S
C1163 H1138 0.951 . S
C1163 C1161 1.388 . S
C1163 C1164 1.366 . S
C1164 C1163 1.366 . S
C1164 C1165 1.414 . S
C1164 C1167 1.499 . S
C1165 H1139 0.950 . S
C1165 C1164 1.414 . S
C1165 C1166 1.374 . S
C1166 H1140 0.950 . S
C1166 C1162 1.385 . S
C1166 C1165 1.374 . S
C1167 C1164 1.499 . S
C1167 C1168 1.373 . S
C1167 C1169 1.389 . S
C1168 H1141 0.950 . S
C1168 C1154 1.377 . S
C1168 C1167 1.373 . S
C1169 C1153 1.377 . S
C1169 C1167 1.389 . S
C1169 C1170 1.524 . S
C1170 C1169 1.524 . S
C1170 C1171 1.397 . S
C1170 C1175 1.363 . S
C1171 H1142 0.950 . S
C1171 C1170 1.397 . S
C1171 C1172 1.334 . S
C1172 H1143 0.950 . S
C1172 C1171 1.334 . S
C1172 C1173 1.287 . S
C1173 C1172 1.287 . S
C1173 C1174 1.524 . S
C1173 H1176 0.999 . S
C1174 H1144 0.950 . S
C1174 C1173 1.524 . S
C1174 C1175 1.415 . S
C1175 H1145 0.950 . S
C1175 C1170 1.363 . S
C1175 C1174 1.415 . S
H1176 C1173 0.999 . S
H1177 C1158 0.913 . S
H1178 C1196 0.951 . S
H1179 C1198 0.951 . S
H1180 C1200 0.950 . S
H1181 C1201 0.950 . S
H1182 C1203 0.950 . S
H1183 C1206 0.950 . S
H1184 C1207 0.950 . S
H1185 C1209 0.950 . S
H1186 C1210 0.950 . S
H1187 C1211 0.951 . S
H1188 C1213 0.951 . S
H1189 C1215 0.950 . S
H1190 C1216 0.950 . S
H1191 C1218 0.950 . S
H1192 C1221 0.950 . S
H1193 C1222 0.950 . S
H1194 C1224 0.950 . S
H1195 C1225 0.950 . S
C1196 H1178 0.951 . S
C1196 C1197 1.366 . S
C1196 C1198 1.388 . S
C1197 C1196 1.366 . S
C1197 C1201 1.385 . S
C1198 H1179 0.951 . S
C1198 C1196 1.388 . S
C1198 C1199 1.366 . S
C1199 C1198 1.366 . S
C1199 C1200 1.414 . S
C1199 C1202 1.499 . S
C1200 H1180 0.950 . S
C1200 C1199 1.414 . S
C1200 C1201 1.374 . S
C1201 H1181 0.950 . S
C1201 C1197 1.385 . S
C1201 C1200 1.374 . S
C1202 C1199 1.499 . S
C1202 C1203 1.373 . S
C1202 C1204 1.389 . S
C1203 H1182 0.950 . S
C1203 C1202 1.373 . S
C1203 C1219 1.377 . S
C1204 C1202 1.389 . S
C1204 C1205 1.524 . S
C1204 C1218 1.377 . S
C1205 C1204 1.524 . S
C1205 C1206 1.397 . S
C1205 C1210 1.363 . S
C1206 H1183 0.950 . S
C1206 C1205 1.397 . S
C1206 C1207 1.334 . S
C1207 H1184 0.950 . S
C1207 C1206 1.334 . S
C1207 C1208 1.287 . S
C1208 C1207 1.287 . S
C1208 C1209 1.524 . S
C1208 H1227 0.913 . S
C1209 H1185 0.950 . S
C1209 C1208 1.524 . S
C1209 C1210 1.415 . S
C1210 H1186 0.950 . S
C1210 C1205 1.363 . S
C1210 C1209 1.415 . S
C1211 H1187 0.951 . S
C1211 C1212 1.366 . S
C1211 C1213 1.388 . S
C1212 C1211 1.366 . S
C1212 C1216 1.385 . S
C1213 H1188 0.951 . S
C1213 C1211 1.388 . S
C1213 C1214 1.366 . S
C1214 C1213 1.366 . S
C1214 C1215 1.414 . S
C1214 C1217 1.499 . S
C1215 H1189 0.950 . S
C1215 C1214 1.414 . S
C1215 C1216 1.374 . S
C1216 H1190 0.950 . S
C1216 C1212 1.385 . S
C1216 C1215 1.374 . S
C1217 C1214 1.499 . S
C1217 C1218 1.373 . S
C1217 C1219 1.389 . S
C1218 H1191 0.950 . S
C1218 C1204 1.377 . S
C1218 C1217 1.373 . S
C1219 C1203 1.377 . S
C1219 C1217 1.389 . S
C1219 C1220 1.524 . S
C1220 C1219 1.524 . S
C1220 C1221 1.397 . S
C1220 C1225 1.363 . S
C1221 H1192 0.950 . S
C1221 C1220 1.397 . S
C1221 C1222 1.334 . S
C1222 H1193 0.950 . S
C1222 C1221 1.334 . S
C1222 C1223 1.287 . S
C1223 C1222 1.287 . S
C1223 C1224 1.524 . S
C1223 H1226 0.999 . S
C1224 H1194 0.950 . S
C1224 C1223 1.524 . S
C1224 C1225 1.415 . S
C1225 H1195 0.950 . S
C1225 C1220 1.363 . S
C1225 C1224 1.415 . S
H1226 C1223 0.999 . S
H1227 C1208 0.913 . S
H1228 C1246 0.951 . S
H1229 C1248 0.951 . S
H1230 C1250 0.950 . S
H1231 C1251 0.950 . S
H1232 C1253 0.950 . S
H1233 C1256 0.950 . S
H1234 C1257 0.950 . S
H1235 C1259 0.950 . S
H1236 C1260 0.950 . S
H1237 C1261 0.951 . S
H1238 C1263 0.951 . S
H1239 C1265 0.950 . S
H1240 C1266 0.950 . S
H1241 C1268 0.950 . S
H1242 C1271 0.950 . S
H1243 C1272 0.950 . S
H1244 C1274 0.950 . S
H1245 C1275 0.950 . S
C1246 H1228 0.951 . S
C1246 C1247 1.366 . S
C1246 C1248 1.388 . S
C1247 C1246 1.366 . S
C1247 C1251 1.385 . S
C1248 H1229 0.951 . S
C1248 C1246 1.388 . S
C1248 C1249 1.366 . S
C1249 C1248 1.366 . S
C1249 C1250 1.414 . S
C1249 C1252 1.499 . S
C1250 H1230 0.950 . S
C1250 C1249 1.414 . S
C1250 C1251 1.374 . S
C1251 H1231 0.950 . S
C1251 C1247 1.385 . S
C1251 C1250 1.374 . S
C1252 C1249 1.499 . S
C1252 C1253 1.373 . S
C1252 C1254 1.389 . S
C1253 H1232 0.950 . S
C1253 C1252 1.373 . S
C1253 C1269 1.377 . S
C1254 C1252 1.389 . S
C1254 C1255 1.524 . S
C1254 C1268 1.377 . S
C1255 C1254 1.524 . S
C1255 C1256 1.397 . S
C1255 C1260 1.363 . S
C1256 H1233 0.950 . S
C1256 C1255 1.397 . S
C1256 C1257 1.334 . S
C1257 H1234 0.950 . S
C1257 C1256 1.334 . S
C1257 C1258 1.287 . S
C1258 C1257 1.287 . S
C1258 C1259 1.524 . S
C1258 H1277 0.913 . S
C1259 H1235 0.950 . S
C1259 C1258 1.524 . S
C1259 C1260 1.415 . S
C1260 H1236 0.950 . S
C1260 C1255 1.363 . S
C1260 C1259 1.415 . S
C1261 H1237 0.951 . S
C1261 C1262 1.366 . S
C1261 C1263 1.388 . S
C1262 C1261 1.366 . S
C1262 C1266 1.385 . S
C1263 H1238 0.951 . S
C1263 C1261 1.388 . S
C1263 C1264 1.366 . S
C1264 C1263 1.366 . S
C1264 C1265 1.414 . S
C1264 C1267 1.499 . S
C1265 H1239 0.950 . S
C1265 C1264 1.414 . S
C1265 C1266 1.374 . S
C1266 H1240 0.950 . S
C1266 C1262 1.385 . S
C1266 C1265 1.374 . S
C1267 C1264 1.499 . S
C1267 C1268 1.373 . S
C1267 C1269 1.389 . S
C1268 H1241 0.950 . S
C1268 C1254 1.377 . S
C1268 C1267 1.373 . S
C1269 C1253 1.377 . S
C1269 C1267 1.389 . S
C1269 C1270 1.524 . S
C1270 C1269 1.524 . S
C1270 C1271 1.397 . S
C1270 C1275 1.363 . S
C1271 H1242 0.950 . S
C1271 C1270 1.397 . S
C1271 C1272 1.334 . S
C1272 H1243 0.950 . S
C1272 C1271 1.334 . S
C1272 C1273 1.287 . S
C1273 C1272 1.287 . S
C1273 C1274 1.524 . S
C1273 H1276 0.999 . S
C1274 H1244 0.950 . S
C1274 C1273 1.524 . S
C1274 C1275 1.415 . S
C1275 H1245 0.950 . S
C1275 C1270 1.363 . S
C1275 C1274 1.415 . S
H1276 C1273 0.999 . S
H1277 C1258 0.913 . S
H1278 C1296 0.951 . S
H1279 C1298 0.951 . S
H1280 C1300 0.950 . S
H1281 C1301 0.950 . S
H1282 C1303 0.950 . S
H1283 C1306 0.950 . S
H1284 C1307 0.950 . S
H1285 C1309 0.950 . S
H1286 C1310 0.950 . S
H1287 C1311 0.951 . S
H1288 C1313 0.951 . S
H1289 C1315 0.950 . S
H1290 C1316 0.950 . S
H1291 C1318 0.950 . S
H1292 C1321 0.950 . S
H1293 C1322 0.950 . S
H1294 C1324 0.950 . S
H1295 C1325 0.950 . S
C1296 H1278 0.951 . S
C1296 C1297 1.366 . S
C1296 C1298 1.388 . S
C1297 C1296 1.366 . S
C1297 C1301 1.385 . S
C1298 H1279 0.951 . S
C1298 C1296 1.388 . S
C1298 C1299 1.366 . S
C1299 C1298 1.366 . S
C1299 C1300 1.414 . S
C1299 C1302 1.499 . S
C1300 H1280 0.950 . S
C1300 C1299 1.414 . S
C1300 C1301 1.374 . S
C1301 H1281 0.950 . S
C1301 C1297 1.385 . S
C1301 C1300 1.374 . S
C1302 C1299 1.499 . S
C1302 C1303 1.373 . S
C1302 C1304 1.389 . S
C1303 H1282 0.950 . S
C1303 C1302 1.373 . S
C1303 C1319 1.377 . S
C1304 C1302 1.389 . S
C1304 C1305 1.524 . S
C1304 C1318 1.377 . S
C1305 C1304 1.524 . S
C1305 C1306 1.397 . S
C1305 C1310 1.363 . S
C1306 H1283 0.950 . S
C1306 C1305 1.397 . S
C1306 C1307 1.334 . S
C1307 H1284 0.950 . S
C1307 C1306 1.334 . S
C1307 C1308 1.287 . S
C1308 C1307 1.287 . S
C1308 C1309 1.524 . S
C1308 H1327 0.913 . S
C1309 H1285 0.950 . S
C1309 C1308 1.524 . S
C1309 C1310 1.415 . S
C1310 H1286 0.950 . S
C1310 C1305 1.363 . S
C1310 C1309 1.415 . S
C1311 H1287 0.951 . S
C1311 C1312 1.366 . S
C1311 C1313 1.388 . S
C1312 C1311 1.366 . S
C1312 C1316 1.385 . S
C1313 H1288 0.951 . S
C1313 C1311 1.388 . S
C1313 C1314 1.366 . S
C1314 C1313 1.366 . S
C1314 C1315 1.414 . S
C1314 C1317 1.499 . S
C1315 H1289 0.950 . S
C1315 C1314 1.414 . S
C1315 C1316 1.374 . S
C1316 H1290 0.950 . S
C1316 C1312 1.385 . S
C1316 C1315 1.374 . S
C1317 C1314 1.499 . S
C1317 C1318 1.373 . S
C1317 C1319 1.389 . S
C1318 H1291 0.950 . S
C1318 C1304 1.377 . S
C1318 C1317 1.373 . S
C1319 C1303 1.377 . S
C1319 C1317 1.389 . S
C1319 C1320 1.524 . S
C1320 C1319 1.524 . S
C1320 C1321 1.397 . S
C1320 C1325 1.363 . S
C1321 H1292 0.950 . S
C1321 C1320 1.397 . S
C1321 C1322 1.334 . S
C1322 H1293 0.950 . S
C1322 C1321 1.334 . S
C1322 C1323 1.287 . S
C1323 C1322 1.287 . S
C1323 C1324 1.524 . S
C1323 H1326 0.999 . S
C1324 H1294 0.950 . S
C1324 C1323 1.524 . S
C1324 C1325 1.415 . S
C1325 H1295 0.950 . S
C1325 C1320 1.363 . S
C1325 C1324 1.415 . S
H1326 C1323 0.999 . S
H1327 C1308 0.913 . S
H1328 C1346 0.951 . S
H1329 C1348 0.951 . S
H1330 C1350 0.950 . S
H1331 C1351 0.950 . S
H1332 C1353 0.950 . S
H1333 C1356 0.950 . S
H1334 C1357 0.950 . S
H1335 C1359 0.950 . S
H1336 C1360 0.950 . S
H1337 C1361 0.951 . S
H1338 C1363 0.951 . S
H1339 C1365 0.950 . S
H1340 C1366 0.950 . S
H1341 C1368 0.950 . S
H1342 C1371 0.950 . S
H1343 C1372 0.950 . S
H1344 C1374 0.950 . S
H1345 C1375 0.950 . S
C1346 H1328 0.951 . S
C1346 C1347 1.366 . S
C1346 C1348 1.388 . S
C1347 C1346 1.366 . S
C1347 C1351 1.385 . S
C1348 H1329 0.951 . S
C1348 C1346 1.388 . S
C1348 C1349 1.366 . S
C1349 C1348 1.366 . S
C1349 C1350 1.414 . S
C1349 C1352 1.499 . S
C1350 H1330 0.950 . S
C1350 C1349 1.414 . S
C1350 C1351 1.374 . S
C1351 H1331 0.950 . S
C1351 C1347 1.385 . S
C1351 C1350 1.374 . S
C1352 C1349 1.499 . S
C1352 C1353 1.373 . S
C1352 C1354 1.389 . S
C1353 H1332 0.950 . S
C1353 C1352 1.373 . S
C1353 C1369 1.377 . S
C1354 C1352 1.389 . S
C1354 C1355 1.524 . S
C1354 C1368 1.377 . S
C1355 C1354 1.524 . S
C1355 C1356 1.397 . S
C1355 C1360 1.363 . S
C1356 H1333 0.950 . S
C1356 C1355 1.397 . S
C1356 C1357 1.334 . S
C1357 H1334 0.950 . S
C1357 C1356 1.334 . S
C1357 C1358 1.287 . S
C1358 C1357 1.287 . S
C1358 C1359 1.524 . S
C1358 H1377 0.913 . S
C1359 H1335 0.950 . S
C1359 C1358 1.524 . S
C1359 C1360 1.415 . S
C1360 H1336 0.950 . S
C1360 C1355 1.363 . S
C1360 C1359 1.415 . S
C1361 H1337 0.951 . S
C1361 C1362 1.366 . S
C1361 C1363 1.388 . S
C1362 C1361 1.366 . S
C1362 C1366 1.385 . S
C1363 H1338 0.951 . S
C1363 C1361 1.388 . S
C1363 C1364 1.366 . S
C1364 C1363 1.366 . S
C1364 C1365 1.414 . S
C1364 C1367 1.499 . S
C1365 H1339 0.950 . S
C1365 C1364 1.414 . S
C1365 C1366 1.374 . S
C1366 H1340 0.950 . S
C1366 C1362 1.385 . S
C1366 C1365 1.374 . S
C1367 C1364 1.499 . S
C1367 C1368 1.373 . S
C1367 C1369 1.389 . S
C1368 H1341 0.950 . S
C1368 C1354 1.377 . S
C1368 C1367 1.373 . S
C1369 C1353 1.377 . S
C1369 C1367 1.389 . S
C1369 C1370 1.524 . S
C1370 C1369 1.524 . S
C1370 C1371 1.397 . S
C1370 C1375 1.363 . S
C1371 H1342 0.950 . S
C1371 C1370 1.397 . S
C1371 C1372 1.334 . S
C1372 H1343 0.950 . S
C1372 C1371 1.334 . S
C1372 C1373 1.287 . S
C1373 C1372 1.287 . S
C1373 C1374 1.524 . S
C1373 H1376 0.999 . S
C1374 H1344 0.950 . S
C1374 C1373 1.524 . S
C1374 C1375 1.415 . S
C1375 H1345 0.950 . S
C1375 C1370 1.363 . S
C1375 C1374 1.415 . S
H1376 C1373 0.999 . S
H1377 C1358 0.913 . S
H1378 C1396 0.951 . S
H1379 C1398 0.951 . S
H1380 C1400 0.950 . S
H1381 C1401 0.950 . S
H1382 C1403 0.950 . S
H1383 C1406 0.950 . S
H1384 C1407 0.950 . S
H1385 C1409 0.950 . S
H1386 C1410 0.950 . S
H1387 C1411 0.951 . S
H1388 C1413 0.951 . S
H1389 C1415 0.950 . S
H1390 C1416 0.950 . S
H1391 C1418 0.950 . S
H1392 C1421 0.950 . S
H1393 C1422 0.950 . S
H1394 C1424 0.950 . S
H1395 C1425 0.950 . S
C1396 H1378 0.951 . S
C1396 C1397 1.366 . S
C1396 C1398 1.388 . S
C1397 C1396 1.366 . S
C1397 C1401 1.385 . S
C1398 H1379 0.951 . S
C1398 C1396 1.388 . S
C1398 C1399 1.366 . S
C1399 C1398 1.366 . S
C1399 C1400 1.414 . S
C1399 C1402 1.499 . S
C1400 H1380 0.950 . S
C1400 C1399 1.414 . S
C1400 C1401 1.374 . S
C1401 H1381 0.950 . S
C1401 C1397 1.385 . S
C1401 C1400 1.374 . S
C1402 C1399 1.499 . S
C1402 C1403 1.373 . S
C1402 C1404 1.389 . S
C1403 H1382 0.950 . S
C1403 C1402 1.373 . S
C1403 C1419 1.377 . S
C1404 C1402 1.389 . S
C1404 C1405 1.524 . S
C1404 C1418 1.377 . S
C1405 C1404 1.524 . S
C1405 C1406 1.397 . S
C1405 C1410 1.363 . S
C1406 H1383 0.950 . S
C1406 C1405 1.397 . S
C1406 C1407 1.334 . S
C1407 H1384 0.950 . S
C1407 C1406 1.334 . S
C1407 C1408 1.287 . S
C1408 C1407 1.287 . S
C1408 C1409 1.524 . S
C1408 H1427 0.913 . S
C1409 H1385 0.950 . S
C1409 C1408 1.524 . S
C1409 C1410 1.415 . S
C1410 H1386 0.950 . S
C1410 C1405 1.363 . S
C1410 C1409 1.415 . S
C1411 H1387 0.951 . S
C1411 C1412 1.366 . S
C1411 C1413 1.388 . S
C1412 C1411 1.366 . S
C1412 C1416 1.385 . S
C1413 H1388 0.951 . S
C1413 C1411 1.388 . S
C1413 C1414 1.366 . S
C1414 C1413 1.366 . S
C1414 C1415 1.414 . S
C1414 C1417 1.499 . S
C1415 H1389 0.950 . S
C1415 C1414 1.414 . S
C1415 C1416 1.374 . S
C1416 H1390 0.950 . S
C1416 C1412 1.385 . S
C1416 C1415 1.374 . S
C1417 C1414 1.499 . S
C1417 C1418 1.373 . S
C1417 C1419 1.389 . S
C1418 H1391 0.950 . S
C1418 C1404 1.377 . S
C1418 C1417 1.373 . S
C1419 C1403 1.377 . S
C1419 C1417 1.389 . S
C1419 C1420 1.524 . S
C1420 C1419 1.524 . S
C1420 C1421 1.397 . S
C1420 C1425 1.363 . S
C1421 H1392 0.950 . S
C1421 C1420 1.397 . S
C1421 C1422 1.334 . S
C1422 H1393 0.950 . S
C1422 C1421 1.334 . S
C1422 C1423 1.287 . S
C1423 C1422 1.287 . S
C1423 C1424 1.524 . S
C1423 H1426 0.999 . S
C1424 H1394 0.950 . S
C1424 C1423 1.524 . S
C1424 C1425 1.415 . S
C1425 H1395 0.950 . S
C1425 C1420 1.363 . S
C1425 C1424 1.415 . S
H1426 C1423 0.999 . S
H1427 C1408 0.913 . S
H1428 C1446 0.951 . S
H1429 C1448 0.951 . S
H1430 C1450 0.950 . S
H1431 C1451 0.950 . S
H1432 C1453 0.950 . S
H1433 C1456 0.950 . S
H1434 C1457 0.950 . S
H1435 C1459 0.950 . S
H1436 C1460 0.950 . S
H1437 C1461 0.951 . S
H1438 C1463 0.951 . S
H1439 C1465 0.950 . S
H1440 C1466 0.950 . S
H1441 C1468 0.950 . S
H1442 C1471 0.950 . S
H1443 C1472 0.950 . S
H1444 C1474 0.950 . S
H1445 C1475 0.950 . S
C1446 H1428 0.951 . S
C1446 C1447 1.366 . S
C1446 C1448 1.388 . S
C1447 C1446 1.366 . S
C1447 C1451 1.385 . S
C1448 H1429 0.951 . S
C1448 C1446 1.388 . S
C1448 C1449 1.366 . S
C1449 C1448 1.366 . S
C1449 C1450 1.414 . S
C1449 C1452 1.499 . S
C1450 H1430 0.950 . S
C1450 C1449 1.414 . S
C1450 C1451 1.374 . S
C1451 H1431 0.950 . S
C1451 C1447 1.385 . S
C1451 C1450 1.374 . S
C1452 C1449 1.499 . S
C1452 C1453 1.373 . S
C1452 C1454 1.389 . S
C1453 H1432 0.950 . S
C1453 C1452 1.373 . S
C1453 C1469 1.377 . S
C1454 C1452 1.389 . S
C1454 C1455 1.524 . S
C1454 C1468 1.377 . S
C1455 C1454 1.524 . S
C1455 C1456 1.397 . S
C1455 C1460 1.363 . S
C1456 H1433 0.950 . S
C1456 C1455 1.397 . S
C1456 C1457 1.334 . S
C1457 H1434 0.950 . S
C1457 C1456 1.334 . S
C1457 C1458 1.287 . S
C1458 C1457 1.287 . S
C1458 C1459 1.524 . S
C1458 H1477 0.913 . S
C1459 H1435 0.950 . S
C1459 C1458 1.524 . S
C1459 C1460 1.415 . S
C1460 H1436 0.950 . S
C1460 C1455 1.363 . S
C1460 C1459 1.415 . S
C1461 H1437 0.951 . S
C1461 C1462 1.366 . S
C1461 C1463 1.388 . S
C1462 C1461 1.366 . S
C1462 C1466 1.385 . S
C1463 H1438 0.951 . S
C1463 C1461 1.388 . S
C1463 C1464 1.366 . S
C1464 C1463 1.366 . S
C1464 C1465 1.414 . S
C1464 C1467 1.499 . S
C1465 H1439 0.950 . S
C1465 C1464 1.414 . S
C1465 C1466 1.374 . S
C1466 H1440 0.950 . S
C1466 C1462 1.385 . S
C1466 C1465 1.374 . S
C1467 C1464 1.499 . S
C1467 C1468 1.373 . S
C1467 C1469 1.389 . S
C1468 H1441 0.950 . S
C1468 C1454 1.377 . S
C1468 C1467 1.373 . S
C1469 C1453 1.377 . S
C1469 C1467 1.389 . S
C1469 C1470 1.524 . S
C1470 C1469 1.524 . S
C1470 C1471 1.397 . S
C1470 C1475 1.363 . S
C1471 H1442 0.950 . S
C1471 C1470 1.397 . S
C1471 C1472 1.334 . S
C1472 H1443 0.950 . S
C1472 C1471 1.334 . S
C1472 C1473 1.287 . S
C1473 C1472 1.287 . S
C1473 C1474 1.524 . S
C1473 H1476 0.999 . S
C1474 H1444 0.950 . S
C1474 C1473 1.524 . S
C1474 C1475 1.415 . S
C1475 H1445 0.950 . S
C1475 C1470 1.363 . S
C1475 C1474 1.415 . S
H1476 C1473 0.999 . S
H1477 C1458 0.913 . S
H1478 C1496 0.951 . S
H1479 C1498 0.951 . S
H1480 C1500 0.950 . S
H1481 C1501 0.950 . S
H1482 C1503 0.950 . S
H1483 C1506 0.950 . S
H1484 C1507 0.950 . S
H1485 C1509 0.950 . S
H1486 C1510 0.950 . S
H1487 C1511 0.951 . S
H1488 C1513 0.951 . S
H1489 C1515 0.950 . S
H1490 C1516 0.950 . S
H1491 C1518 0.950 . S
H1492 C1521 0.950 . S
H1493 C1522 0.950 . S
H1494 C1524 0.950 . S
H1495 C1525 0.950 . S
C1496 H1478 0.951 . S
C1496 C1497 1.366 . S
C1496 C1498 1.388 . S
C1497 C1496 1.366 . S
C1497 C1501 1.385 . S
C1498 H1479 0.951 . S
C1498 C1496 1.388 . S
C1498 C1499 1.366 . S
C1499 C1498 1.366 . S
C1499 C1500 1.414 . S
C1499 C1502 1.499 . S
C1500 H1480 0.950 . S
C1500 C1499 1.414 . S
C1500 C1501 1.374 . S
C1501 H1481 0.950 . S
C1501 C1497 1.385 . S
C1501 C1500 1.374 . S
C1502 C1499 1.499 . S
C1502 C1503 1.373 . S
C1502 C1504 1.389 . S
C1503 H1482 0.950 . S
C1503 C1502 1.373 . S
C1503 C1519 1.377 . S
C1504 C1502 1.389 . S
C1504 C1505 1.524 . S
C1504 C1518 1.377 . S
C1505 C1504 1.524 . S
C1505 C1506 1.397 . S
C1505 C1510 1.363 . S
C1506 H1483 0.950 . S
C1506 C1505 1.397 . S
C1506 C1507 1.334 . S
C1507 H1484 0.950 . S
C1507 C1506 1.334 . S
C1507 C1508 1.287 . S
C1508 C1507 1.287 . S
C1508 C1509 1.524 . S
C1508 H1527 0.913 . S
C1509 H1485 0.950 . S
C1509 C1508 1.524 . S
C1509 C1510 1.415 . S
C1510 H1486 0.950 . S
C1510 C1505 1.363 . S
C1510 C1509 1.415 . S
C1511 H1487 0.951 . S
C1511 C1512 1.366 . S
C1511 C1513 1.388 . S
C1512 C1511 1.366 . S
C1512 C1516 1.385 . S
C1513 H1488 0.951 . S
C1513 C1511 1.388 . S
C1513 C1514 1.366 . S
C1514 C1513 1.366 . S
C1514 C1515 1.414 . S
C1514 C1517 1.499 . S
C1515 H1489 0.950 . S
C1515 C1514 1.414 . S
C1515 C1516 1.374 . S
C1516 H1490 0.950 . S
C1516 C1512 1.385 . S
C1516 C1515 1.374 . S
C1517 C1514 1.499 . S
C1517 C1518 1.373 . S
C1517 C1519 1.389 . S
C1518 H1491 0.950 . S
C1518 C1504 1.377 . S
C1518 C1517 1.373 . S
C1519 C1503 1.377 . S
C1519 C1517 1.389 . S
C1519 C1520 1.524 . S
C1520 C1519 1.524 . S
C1520 C1521 1.397 . S
C1520 C1525 1.363 . S
C1521 H1492 0.950 . S
C1521 C1520 1.397 . S
C1521 C1522 1.334 . S
C1522 H1493 0.950 . S
C1522 C1521 1.334 . S
C1522 C1523 1.287 . S
C1523 C1522 1.287 . S
C1523 C1524 1.524 . S
C1523 H1526 0.999 . S
C1524 H1494 0.950 . S
C1524 C1523 1.524 . S
C1524 C1525 1.415 . S
C1525 H1495 0.950 . S
C1525 C1520 1.363 . S
C1525 C1524 1.415 . S
H1526 C1523 0.999 . S
H1527 C1508 0.913 . S
H1528 C1546 0.951 . S
H1529 C1548 0.951 . S
H1530 C1550 0.950 . S
H1531 C1551 0.950 . S
H1532 C1553 0.950 . S
H1533 C1556 0.950 . S
H1534 C1557 0.950 . S
H1535 C1559 0.950 . S
H1536 C1560 0.950 . S
H1537 C1561 0.951 . S
H1538 C1563 0.951 . S
H1539 C1565 0.950 . S
H1540 C1566 0.950 . S
H1541 C1568 0.950 . S
H1542 C1571 0.950 . S
H1543 C1572 0.950 . S
H1544 C1574 0.950 . S
H1545 C1575 0.950 . S
C1546 H1528 0.951 . S
C1546 C1547 1.366 . S
C1546 C1548 1.388 . S
C1547 C1546 1.366 . S
C1547 C1551 1.385 . S
C1548 H1529 0.951 . S
C1548 C1546 1.388 . S
C1548 C1549 1.366 . S
C1549 C1548 1.366 . S
C1549 C1550 1.414 . S
C1549 C1552 1.499 . S
C1550 H1530 0.950 . S
C1550 C1549 1.414 . S
C1550 C1551 1.374 . S
C1551 H1531 0.950 . S
C1551 C1547 1.385 . S
C1551 C1550 1.374 . S
C1552 C1549 1.499 . S
C1552 C1553 1.373 . S
C1552 C1554 1.389 . S
C1553 H1532 0.950 . S
C1553 C1552 1.373 . S
C1553 C1569 1.377 . S
C1554 C1552 1.389 . S
C1554 C1555 1.524 . S
C1554 C1568 1.377 . S
C1555 C1554 1.524 . S
C1555 C1556 1.397 . S
C1555 C1560 1.363 . S
C1556 H1533 0.950 . S
C1556 C1555 1.397 . S
C1556 C1557 1.334 . S
C1557 H1534 0.950 . S
C1557 C1556 1.334 . S
C1557 C1558 1.287 . S
C1558 C1557 1.287 . S
C1558 C1559 1.524 . S
C1558 H1577 0.913 . S
C1559 H1535 0.950 . S
C1559 C1558 1.524 . S
C1559 C1560 1.415 . S
C1560 H1536 0.950 . S
C1560 C1555 1.363 . S
C1560 C1559 1.415 . S
C1561 H1537 0.951 . S
C1561 C1562 1.366 . S
C1561 C1563 1.388 . S
C1562 C1561 1.366 . S
C1562 C1566 1.385 . S
C1563 H1538 0.951 . S
C1563 C1561 1.388 . S
C1563 C1564 1.366 . S
C1564 C1563 1.366 . S
C1564 C1565 1.414 . S
C1564 C1567 1.499 . S
C1565 H1539 0.950 . S
C1565 C1564 1.414 . S
C1565 C1566 1.374 . S
C1566 H1540 0.950 . S
C1566 C1562 1.385 . S
C1566 C1565 1.374 . S
C1567 C1564 1.499 . S
C1567 C1568 1.373 . S
C1567 C1569 1.389 . S
C1568 H1541 0.950 . S
C1568 C1554 1.377 . S
C1568 C1567 1.373 . S
C1569 C1553 1.377 . S
C1569 C1567 1.389 . S
C1569 C1570 1.524 . S
C1570 C1569 1.524 . S
C1570 C1571 1.397 . S
C1570 C1575 1.363 . S
C1571 H1542 0.950 . S
C1571 C1570 1.397 . S
C1571 C1572 1.334 . S
C1572 H1543 0.950 . S
C1572 C1571 1.334 . S
C1572 C1573 1.287 . S
C1573 C1572 1.287 . S
C1573 C1574 1.524 . S
C1573 H1576 0.999 . S
C1574 H1544 0.950 . S
C1574 C1573 1.524 . S
C1574 C1575 1.415 . S
C1575 H1545 0.950 . S
C1575 C1570 1.363 . S
C1575 C1574 1.415 . S
H1576 C1573 0.999 . S
H1577 C1558 0.913 . S
H1578 C1596 0.951 . S
H1579 C1598 0.951 . S
H1580 C1600 0.950 . S
H1581 C1601 0.950 . S
H1582 C1603 0.950 . S
H1583 C1606 0.950 . S
H1584 C1607 0.950 . S
H1585 C1609 0.950 . S
H1586 C1610 0.950 . S
H1587 C1611 0.951 . S
H1588 C1613 0.951 . S
H1589 C1615 0.950 . S
H1590 C1616 0.950 . S
H1591 C1618 0.950 . S
H1592 C1621 0.950 . S
H1593 C1622 0.950 . S
H1594 C1624 0.950 . S
H1595 C1625 0.950 . S
C1596 H1578 0.951 . S
C1596 C1597 1.366 . S
C1596 C1598 1.388 . S
C1597 C1596 1.366 . S
C1597 C1601 1.385 . S
C1598 H1579 0.951 . S
C1598 C1596 1.388 . S
C1598 C1599 1.366 . S
C1599 C1598 1.366 . S
C1599 C1600 1.414 . S
C1599 C1602 1.499 . S
C1600 H1580 0.950 . S
C1600 C1599 1.414 . S
C1600 C1601 1.374 . S
C1601 H1581 0.950 . S
C1601 C1597 1.385 . S
C1601 C1600 1.374 . S
C1602 C1599 1.499 . S
C1602 C1603 1.373 . S
C1602 C1604 1.389 . S
C1603 H1582 0.950 . S
C1603 C1602 1.373 . S
C1603 C1619 1.377 . S
C1604 C1602 1.389 . S
C1604 C1605 1.524 . S
C1604 C1618 1.377 . S
C1605 C1604 1.524 . S
C1605 C1606 1.397 . S
C1605 C1610 1.363 . S
C1606 H1583 0.950 . S
C1606 C1605 1.397 . S
C1606 C1607 1.334 . S
C1607 H1584 0.950 . S
C1607 C1606 1.334 . S
C1607 C1608 1.287 . S
C1608 C1607 1.287 . S
C1608 C1609 1.524 . S
C1608 H1627 0.913 . S
C1609 H1585 0.950 . S
C1609 C1608 1.524 . S
C1609 C1610 1.415 . S
C1610 H1586 0.950 . S
C1610 C1605 1.363 . S
C1610 C1609 1.415 . S
C1611 H1587 0.951 . S
C1611 C1612 1.366 . S
C1611 C1613 1.388 . S
C1612 C1611 1.366 . S
C1612 C1616 1.385 . S
C1613 H1588 0.951 . S
C1613 C1611 1.388 . S
C1613 C1614 1.366 . S
C1614 C1613 1.366 . S
C1614 C1615 1.414 . S
C1614 C1617 1.499 . S
C1615 H1589 0.950 . S
C1615 C1614 1.414 . S
C1615 C1616 1.374 . S
C1616 H1590 0.950 . S
C1616 C1612 1.385 . S
C1616 C1615 1.374 . S
C1617 C1614 1.499 . S
C1617 C1618 1.373 . S
C1617 C1619 1.389 . S
C1618 H1591 0.950 . S
C1618 C1604 1.377 . S
C1618 C1617 1.373 . S
C1619 C1603 1.377 . S
C1619 C1617 1.389 . S
C1619 C1620 1.524 . S
C1620 C1619 1.524 . S
C1620 C1621 1.397 . S
C1620 C1625 1.363 . S
C1621 H1592 0.950 . S
C1621 C1620 1.397 . S
C1621 C1622 1.334 . S
C1622 H1593 0.950 . S
C1622 C1621 1.334 . S
C1622 C1623 1.287 . S
C1623 C1622 1.287 . S
C1623 C1624 1.524 . S
C1623 H1626 0.999 . S
C1624 H1594 0.950 . S
C1624 C1623 1.524 . S
C1624 C1625 1.415 . S
C1625 H1595 0.950 . S
C1625 C1620 1.363 . S
C1625 C1624 1.415 . S
H1626 C1623 0.999 . S
H1627 C1608 0.913 . S
H1628 C1646 0.951 . S
H1629 C1648 0.951 . S
H1630 C1650 0.950 . S
H1631 C1651 0.950 . S
H1632 C1653 0.950 . S
H1633 C1656 0.950 . S
H1634 C1657 0.950 . S
H1635 C1659 0.950 . S
H1636 C1660 0.950 . S
H1637 C1661 0.951 . S
H1638 C1663 0.951 . S
H1639 C1665 0.950 . S
H1640 C1666 0.950 . S
H1641 C1668 0.950 . S
H1642 C1671 0.950 . S
H1643 C1672 0.950 . S
H1644 C1674 0.950 . S
H1645 C1675 0.950 . S
C1646 H1628 0.951 . S
C1646 C1647 1.366 . S
C1646 C1648 1.388 . S
C1647 C1646 1.366 . S
C1647 C1651 1.385 . S
C1648 H1629 0.951 . S
C1648 C1646 1.388 . S
C1648 C1649 1.366 . S
C1649 C1648 1.366 . S
C1649 C1650 1.414 . S
C1649 C1652 1.499 . S
C1650 H1630 0.950 . S
C1650 C1649 1.414 . S
C1650 C1651 1.374 . S
C1651 H1631 0.950 . S
C1651 C1647 1.385 . S
C1651 C1650 1.374 . S
C1652 C1649 1.499 . S
C1652 C1653 1.373 . S
C1652 C1654 1.389 . S
C1653 H1632 0.950 . S
C1653 C1652 1.373 . S
C1653 C1669 1.377 . S
C1654 C1652 1.389 . S
C1654 C1655 1.524 . S
C1654 C1668 1.377 . S
C1655 C1654 1.524 . S
C1655 C1656 1.397 . S
C1655 C1660 1.363 . S
C1656 H1633 0.950 . S
C1656 C1655 1.397 . S
C1656 C1657 1.334 . S
C1657 H1634 0.950 . S
C1657 C1656 1.334 . S
C1657 C1658 1.287 . S
C1658 C1657 1.287 . S
C1658 C1659 1.524 . S
C1658 H1677 0.913 . S
C1659 H1635 0.950 . S
C1659 C1658 1.524 . S
C1659 C1660 1.415 . S
C1660 H1636 0.950 . S
C1660 C1655 1.363 . S
C1660 C1659 1.415 . S
C1661 H1637 0.951 . S
C1661 C1662 1.366 . S
C1661 C1663 1.388 . S
C1662 C1661 1.366 . S
C1662 C1666 1.385 . S
C1663 H1638 0.951 . S
C1663 C1661 1.388 . S
C1663 C1664 1.366 . S
C1664 C1663 1.366 . S
C1664 C1665 1.414 . S
C1664 C1667 1.499 . S
C1665 H1639 0.950 . S
C1665 C1664 1.414 . S
C1665 C1666 1.374 . S
C1666 H1640 0.950 . S
C1666 C1662 1.385 . S
C1666 C1665 1.374 . S
C1667 C1664 1.499 . S
C1667 C1668 1.373 . S
C1667 C1669 1.389 . S
C1668 H1641 0.950 . S
C1668 C1654 1.377 . S
C1668 C1667 1.373 . S
C1669 C1653 1.377 . S
C1669 C1667 1.389 . S
C1669 C1670 1.524 . S
C1670 C1669 1.524 . S
C1670 C1671 1.397 . S
C1670 C1675 1.363 . S
C1671 H1642 0.950 . S
C1671 C1670 1.397 . S
C1671 C1672 1.334 . S
C1672 H1643 0.950 . S
C1672 C1671 1.334 . S
C1672 C1673 1.287 . S
C1673 C1672 1.287 . S
C1673 C1674 1.524 . S
C1673 H1676 0.999 . S
C1674 H1644 0.950 . S
C1674 C1673 1.524 . S
C1674 C1675 1.415 . S
C1675 H1645 0.950 . S
C1675 C1670 1.363 . S
C1675 C1674 1.415 . S
H1676 C1673 0.999 . S
H1677 C1658 0.913 . S
H1678 C1696 0.951 . S
H1679 C1698 0.951 . S
H1680 C1700 0.950 . S
H1681 C1701 0.950 . S
H1682 C1703 0.950 . S
H1683 C1706 0.950 . S
H1684 C1707 0.950 . S
H1685 C1709 0.950 . S
H1686 C1710 0.950 . S
H1687 C1711 0.951 . S
H1688 C1713 0.951 . S
H1689 C1715 0.950 . S
H1690 C1716 0.950 . S
H1691 C1718 0.950 . S
H1692 C1721 0.950 . S
H1693 C1722 0.950 . S
H1694 C1724 0.950 . S
H1695 C1725 0.950 . S
C1696 H1678 0.951 . S
C1696 C1697 1.366 . S
C1696 C1698 1.388 . S
C1697 C1696 1.366 . S
C1697 C1701 1.385 . S
C1698 H1679 0.951 . S
C1698 C1696 1.388 . S
C1698 C1699 1.366 . S
C1699 C1698 1.366 . S
C1699 C1700 1.414 . S
C1699 C1702 1.499 . S
C1700 H1680 0.950 . S
C1700 C1699 1.414 . S
C1700 C1701 1.374 . S
C1701 H1681 0.950 . S
C1701 C1697 1.385 . S
C1701 C1700 1.374 . S
C1702 C1699 1.499 . S
C1702 C1703 1.373 . S
C1702 C1704 1.389 . S
C1703 H1682 0.950 . S
C1703 C1702 1.373 . S
C1703 C1719 1.377 . S
C1704 C1702 1.389 . S
C1704 C1705 1.524 . S
C1704 C1718 1.377 . S
C1705 C1704 1.524 . S
C1705 C1706 1.397 . S
C1705 C1710 1.363 . S
C1706 H1683 0.950 . S
C1706 C1705 1.397 . S
C1706 C1707 1.334 . S
C1707 H1684 0.950 . S
C1707 C1706 1.334 . S
C1707 C1708 1.287 . S
C1708 C1707 1.287 . S
C1708 C1709 1.524 . S
C1708 H1727 0.913 . S
C1709 H1685 0.950 . S
C1709 C1708 1.524 . S
C1709 C1710 1.415 . S
C1710 H1686 0.950 . S
C1710 C1705 1.363 . S
C1710 C1709 1.415 . S
C1711 H1687 0.951 . S
C1711 C1712 1.366 . S
C1711 C1713 1.388 . S
C1712 C1711 1.366 . S
C1712 C1716 1.385 . S
C1713 H1688 0.951 . S
C1713 C1711 1.388 . S
C1713 C1714 1.366 . S
C1714 C1713 1.366 . S
C1714 C1715 1.414 . S
C1714 C1717 1.499 . S
C1715 H1689 0.950 . S
C1715 C1714 1.414 . S
C1715 C1716 1.374 . S
C1716 H1690 0.950 . S
C1716 C1712 1.385 . S
C1716 C1715 1.374 . S
C1717 C1714 1.499 . S
C1717 C1718 1.373 . S
C1717 C1719 1.389 . S
C1718 H1691 0.950 . S
C1718 C1704 1.377 . S
C1718 C1717 1.373 . S
C1719 C1703 1.377 . S
C1719 C1717 1.389 . S
C1719 C1720 1.524 . S
C1720 C1719 1.524 . S
C1720 C1721 1.397 . S
C1720 C1725 1.363 . S
C1721 H1692 0.950 . S
C1721 C1720 1.397 . S
C1721 C1722 1.334 . S
C1722 H1693 0.950 . S
C1722 C1721 1.334 . S
C1722 C1723 1.287 . S
C1723 C1722 1.287 . S
C1723 C1724 1.524 . S
C1723 H1726 0.999 . S
C1724 H1694 0.950 . S
C1724 C1723 1.524 . S
C1724 C1725 1.415 . S
C1725 H1695 0.950 . S
C1725 C1720 1.363 . S
C1725 C1724 1.415 . S
H1726 C1723 0.999 . S
H1727 C1708 0.913 . S
H1728 C1746 0.951 . S
H1729 C1748 0.951 . S
H1730 C1750 0.950 . S
H1731 C1751 0.950 . S
H1732 C1753 0.950 . S
H1733 C1756 0.950 . S
H1734 C1757 0.950 . S
H1735 C1759 0.950 . S
H1736 C1760 0.950 . S
H1737 C1761 0.951 . S
H1738 C1763 0.951 . S
H1739 C1765 0.950 . S
H1740 C1766 0.950 . S
H1741 C1768 0.950 . S
H1742 C1771 0.950 . S
H1743 C1772 0.950 . S
H1744 C1774 0.950 . S
H1745 C1775 0.950 . S
C1746 H1728 0.951 . S
C1746 C1747 1.366 . S
C1746 C1748 1.388 . S
C1747 C1746 1.366 . S
C1747 C1751 1.385 . S
C1748 H1729 0.951 . S
C1748 C1746 1.388 . S
C1748 C1749 1.366 . S
C1749 C1748 1.366 . S
C1749 C1750 1.414 . S
C1749 C1752 1.499 . S
C1750 H1730 0.950 . S
C1750 C1749 1.414 . S
C1750 C1751 1.374 . S
C1751 H1731 0.950 . S
C1751 C1747 1.385 . S
C1751 C1750 1.374 . S
C1752 C1749 1.499 . S
C1752 C1753 1.373 . S
C1752 C1754 1.389 . S
C1753 H1732 0.950 . S
C1753 C1752 1.373 . S
C1753 C1769 1.377 . S
C1754 C1752 1.389 . S
C1754 C1755 1.524 . S
C1754 C1768 1.377 . S
C1755 C1754 1.524 . S
C1755 C1756 1.397 . S
C1755 C1760 1.363 . S
C1756 H1733 0.950 . S
C1756 C1755 1.397 . S
C1756 C1757 1.334 . S
C1757 H1734 0.950 . S
C1757 C1756 1.334 . S
C1757 C1758 1.287 . S
C1758 C1757 1.287 . S
C1758 C1759 1.524 . S
C1758 H1777 0.913 . S
C1759 H1735 0.950 . S
C1759 C1758 1.524 . S
C1759 C1760 1.415 . S
C1760 H1736 0.950 . S
C1760 C1755 1.363 . S
C1760 C1759 1.415 . S
C1761 H1737 0.951 . S
C1761 C1762 1.366 . S
C1761 C1763 1.388 . S
C1762 C1761 1.366 . S
C1762 C1766 1.385 . S
C1763 H1738 0.951 . S
C1763 C1761 1.388 . S
C1763 C1764 1.366 . S
C1764 C1763 1.366 . S
C1764 C1765 1.414 . S
C1764 C1767 1.499 . S
C1765 H1739 0.950 . S
C1765 C1764 1.414 . S
C1765 C1766 1.374 . S
C1766 H1740 0.950 . S
C1766 C1762 1.385 . S
C1766 C1765 1.374 . S
C1767 C1764 1.499 . S
C1767 C1768 1.373 . S
C1767 C1769 1.389 . S
C1768 H1741 0.950 . S
C1768 C1754 1.377 . S
C1768 C1767 1.373 . S
C1769 C1753 1.377 . S
C1769 C1767 1.389 . S
C1769 C1770 1.524 . S
C1770 C1769 1.524 . S
C1770 C1771 1.397 . S
C1770 C1775 1.363 . S
C1771 H1742 0.950 . S
C1771 C1770 1.397 . S
C1771 C1772 1.334 . S
C1772 H1743 0.950 . S
C1772 C1771 1.334 . S
C1772 C1773 1.287 . S
C1773 C1772 1.287 . S
C1773 C1774 1.524 . S
C1773 H1776 0.999 . S
C1774 H1744 0.950 . S
C1774 C1773 1.524 . S
C1774 C1775 1.415 . S
C1775 H1745 0.950 . S
C1775 C1770 1.363 . S
C1775 C1774 1.415 . S
H1776 C1773 0.999 . S
H1777 C1758 0.913 . S
H1778 C1796 0.951 . S
H1779 C1798 0.951 . S
H1780 C1800 0.950 . S
H1781 C1801 0.950 . S
H1782 C1803 0.950 . S
H1783 C1806 0.950 . S
H1784 C1807 0.950 . S
H1785 C1809 0.950 . S
H1786 C1810 0.950 . S
H1787 C1811 0.951 . S
H1788 C1813 0.951 . S
H1789 C1815 0.950 . S
H1790 C1816 0.950 . S
H1791 C1818 0.950 . S
H1792 C1821 0.950 . S
H1793 C1822 0.950 . S
H1794 C1824 0.950 . S
H1795 C1825 0.950 . S
C1796 H1778 0.951 . S
C1796 C1797 1.366 . S
C1796 C1798 1.388 . S
C1797 C1796 1.366 . S
C1797 C1801 1.385 . S
C1798 H1779 0.951 . S
C1798 C1796 1.388 . S
C1798 C1799 1.366 . S
C1799 C1798 1.366 . S
C1799 C1800 1.414 . S
C1799 C1802 1.499 . S
C1800 H1780 0.950 . S
C1800 C1799 1.414 . S
C1800 C1801 1.374 . S
C1801 H1781 0.950 . S
C1801 C1797 1.385 . S
C1801 C1800 1.374 . S
C1802 C1799 1.499 . S
C1802 C1803 1.373 . S
C1802 C1804 1.389 . S
C1803 H1782 0.950 . S
C1803 C1802 1.373 . S
C1803 C1819 1.377 . S
C1804 C1802 1.389 . S
C1804 C1805 1.524 . S
C1804 C1818 1.377 . S
C1805 C1804 1.524 . S
C1805 C1806 1.397 . S
C1805 C1810 1.363 . S
C1806 H1783 0.950 . S
C1806 C1805 1.397 . S
C1806 C1807 1.334 . S
C1807 H1784 0.950 . S
C1807 C1806 1.334 . S
C1807 C1808 1.287 . S
C1808 C1807 1.287 . S
C1808 C1809 1.524 . S
C1808 H1827 0.913 . S
C1809 H1785 0.950 . S
C1809 C1808 1.524 . S
C1809 C1810 1.415 . S
C1810 H1786 0.950 . S
C1810 C1805 1.363 . S
C1810 C1809 1.415 . S
C1811 H1787 0.951 . S
C1811 C1812 1.366 . S
C1811 C1813 1.388 . S
C1812 C1811 1.366 . S
C1812 C1816 1.385 . S
C1813 H1788 0.951 . S
C1813 C1811 1.388 . S
C1813 C1814 1.366 . S
C1814 C1813 1.366 . S
C1814 C1815 1.414 . S
C1814 C1817 1.499 . S
C1815 H1789 0.950 . S
C1815 C1814 1.414 . S
C1815 C1816 1.374 . S
C1816 H1790 0.950 . S
C1816 C1812 1.385 . S
C1816 C1815 1.374 . S
C1817 C1814 1.499 . S
C1817 C1818 1.373 . S
C1817 C1819 1.389 . S
C1818 H1791 0.950 . S
C1818 C1804 1.377 . S
C1818 C1817 1.373 . S
C1819 C1803 1.377 . S
C1819 C1817 1.389 . S
C1819 C1820 1.524 . S
C1820 C1819 1.524 . S
C1820 C1821 1.397 . S
C1820 C1825 1.363 . S
C1821 H1792 0.950 . S
C1821 C1820 1.397 . S
C1821 C1822 1.334 . S
C1822 H1793 0.950 . S
C1822 C1821 1.334 . S
C1822 C1823 1.287 . S
C1823 C1822 1.287 . S
C1823 C1824 1.524 . S
C1823 H1826 0.999 . S
C1824 H1794 0.950 . S
C1824 C1823 1.524 . S
C1824 C1825 1.415 . S
C1825 H1795 0.950 . S
C1825 C1820 1.363 . S
C1825 C1824 1.415 . S
H1826 C1823 0.999 . S
H1827 C1808 0.913 . S
H1828 C1846 0.951 . S
H1829 C1848 0.951 . S
H1830 C1850 0.950 . S
H1831 C1851 0.950 . S
H1832 C1853 0.950 . S
H1833 C1856 0.950 . S
H1834 C1857 0.950 . S
H1835 C1859 0.950 . S
H1836 C1860 0.950 . S
H1837 C1861 0.951 . S
H1838 C1863 0.951 . S
H1839 C1865 0.950 . S
H1840 C1866 0.950 . S
H1841 C1868 0.950 . S
H1842 C1871 0.950 . S
H1843 C1872 0.950 . S
H1844 C1874 0.950 . S
H1845 C1875 0.950 . S
C1846 H1828 0.951 . S
C1846 C1847 1.366 . S
C1846 C1848 1.388 . S
C1847 C1846 1.366 . S
C1847 C1851 1.385 . S
C1848 H1829 0.951 . S
C1848 C1846 1.388 . S
C1848 C1849 1.366 . S
C1849 C1848 1.366 . S
C1849 C1850 1.414 . S
C1849 C1852 1.499 . S
C1850 H1830 0.950 . S
C1850 C1849 1.414 . S
C1850 C1851 1.374 . S
C1851 H1831 0.950 . S
C1851 C1847 1.385 . S
C1851 C1850 1.374 . S
C1852 C1849 1.499 . S
C1852 C1853 1.373 . S
C1852 C1854 1.389 . S
C1853 H1832 0.950 . S
C1853 C1852 1.373 . S
C1853 C1869 1.377 . S
C1854 C1852 1.389 . S
C1854 C1855 1.524 . S
C1854 C1868 1.377 . S
C1855 C1854 1.524 . S
C1855 C1856 1.397 . S
C1855 C1860 1.363 . S
C1856 H1833 0.950 . S
C1856 C1855 1.397 . S
C1856 C1857 1.334 . S
C1857 H1834 0.950 . S
C1857 C1856 1.334 . S
C1857 C1858 1.287 . S
C1858 C1857 1.287 . S
C1858 C1859 1.524 . S
C1858 H1877 0.913 . S
C1859 H1835 0.950 . S
C1859 C1858 1.524 . S
C1859 C1860 1.415 . S
C1860 H1836 0.950 . S
C1860 C1855 1.363 . S
C1860 C1859 1.415 . S
C1861 H1837 0.951 . S
C1861 C1862 1.366 . S
C1861 C1863 1.388 . S
C1862 C1861 1.366 . S
C1862 C1866 1.385 . S
C1863 H1838 0.951 . S
C1863 C1861 1.388 . S
C1863 C1864 1.366 . S
C1864 C1863 1.366 . S
C1864 C1865 1.414 . S
C1864 C1867 1.499 . S
C1865 H1839 0.950 . S
C1865 C1864 1.414 . S
C1865 C1866 1.374 . S
C1866 H1840 0.950 . S
C1866 C1862 1.385 . S
C1866 C1865 1.374 . S
C1867 C1864 1.499 . S
C1867 C1868 1.373 . S
C1867 C1869 1.389 . S
C1868 H1841 0.950 . S
C1868 C1854 1.377 . S
C1868 C1867 1.373 . S
C1869 C1853 1.377 . S
C1869 C1867 1.389 . S
C1869 C1870 1.524 . S
C1870 C1869 1.524 . S
C1870 C1871 1.397 . S
C1870 C1875 1.363 . S
C1871 H1842 0.950 . S
C1871 C1870 1.397 . S
C1871 C1872 1.334 . S
C1872 H1843 0.950 . S
C1872 C1871 1.334 . S
C1872 C1873 1.287 . S
C1873 C1872 1.287 . S
C1873 C1874 1.524 . S
C1873 H1876 0.999 . S
C1874 H1844 0.950 . S
C1874 C1873 1.524 . S
C1874 C1875 1.415 . S
C1875 H1845 0.950 . S
C1875 C1870 1.363 . S
C1875 C1874 1.415 . S
H1876 C1873 0.999 . S
H1877 C1858 0.913 . S
H1878 C1896 0.951 . S
H1879 C1898 0.951 . S
H1880 C1900 0.950 . S
H1881 C1901 0.950 . S
H1882 C1903 0.950 . S
H1883 C1906 0.950 . S
H1884 C1907 0.950 . S
H1885 C1909 0.950 . S
H1886 C1910 0.950 . S
H1887 C1911 0.951 . S
H1888 C1913 0.951 . S
H1889 C1915 0.950 . S
H1890 C1916 0.950 . S
H1891 C1918 0.950 . S
H1892 C1921 0.950 . S
H1893 C1922 0.950 . S
H1894 C1924 0.950 . S
H1895 C1925 0.950 . S
C1896 H1878 0.951 . S
C1896 C1897 1.366 . S
C1896 C1898 1.388 . S
C1897 C1896 1.366 . S
C1897 C1901 1.385 . S
C1898 H1879 0.951 . S
C1898 C1896 1.388 . S
C1898 C1899 1.366 . S
C1899 C1898 1.366 . S
C1899 C1900 1.414 . S
C1899 C1902 1.499 . S
C1900 H1880 0.950 . S
C1900 C1899 1.414 . S
C1900 C1901 1.374 . S
C1901 H1881 0.950 . S
C1901 C1897 1.385 . S
C1901 C1900 1.374 . S
C1902 C1899 1.499 . S
C1902 C1903 1.373 . S
C1902 C1904 1.389 . S
C1903 H1882 0.950 . S
C1903 C1902 1.373 . S
C1903 C1919 1.377 . S
C1904 C1902 1.389 . S
C1904 C1905 1.524 . S
C1904 C1918 1.377 . S
C1905 C1904 1.524 . S
C1905 C1906 1.397 . S
C1905 C1910 1.363 . S
C1906 H1883 0.950 . S
C1906 C1905 1.397 . S
C1906 C1907 1.334 . S
C1907 H1884 0.950 . S
C1907 C1906 1.334 . S
C1907 C1908 1.287 . S
C1908 C1907 1.287 . S
C1908 C1909 1.524 . S
C1908 H1927 0.913 . S
C1909 H1885 0.950 . S
C1909 C1908 1.524 . S
C1909 C1910 1.415 . S
C1910 H1886 0.950 . S
C1910 C1905 1.363 . S
C1910 C1909 1.415 . S
C1911 H1887 0.951 . S
C1911 C1912 1.366 . S
C1911 C1913 1.388 . S
C1912 C1911 1.366 . S
C1912 C1916 1.385 . S
C1913 H1888 0.951 . S
C1913 C1911 1.388 . S
C1913 C1914 1.366 . S
C1914 C1913 1.366 . S
C1914 C1915 1.414 . S
C1914 C1917 1.499 . S
C1915 H1889 0.950 . S
C1915 C1914 1.414 . S
C1915 C1916 1.374 . S
C1916 H1890 0.950 . S
C1916 C1912 1.385 . S
C1916 C1915 1.374 . S
C1917 C1914 1.499 . S
C1917 C1918 1.373 . S
C1917 C1919 1.389 . S
C1918 H1891 0.950 . S
C1918 C1904 1.377 . S
C1918 C1917 1.373 . S
C1919 C1903 1.377 . S
C1919 C1917 1.389 . S
C1919 C1920 1.524 . S
C1920 C1919 1.524 . S
C1920 C1921 1.397 . S
C1920 C1925 1.363 . S
C1921 H1892 0.950 . S
C1921 C1920 1.397 . S
C1921 C1922 1.334 . S
C1922 H1893 0.950 . S
C1922 C1921 1.334 . S
C1922 C1923 1.287 . S
C1923 C1922 1.287 . S
C1923 C1924 1.524 . S
C1923 H1926 0.999 . S
C1924 H1894 0.950 . S
C1924 C1923 1.524 . S
C1924 C1925 1.415 . S
C1925 H1895 0.950 . S
C1925 C1920 1.363 . S
C1925 C1924 1.415 . S
H1926 C1923 0.999 . S
H1927 C1908 0.913 . S
H1928 C1946 0.951 . S
H1929 C1948 0.951 . S
H1930 C1950 0.950 . S
H1931 C1951 0.950 . S
H1932 C1953 0.950 . S
H1933 C1956 0.950 . S
H1934 C1957 0.950 . S
H1935 C1959 0.950 . S
H1936 C1960 0.950 . S
H1937 C1961 0.951 . S
H1938 C1963 0.951 . S
H1939 C1965 0.950 . S
H1940 C1966 0.950 . S
H1941 C1968 0.950 . S
H1942 C1971 0.950 . S
H1943 C1972 0.950 . S
H1944 C1974 0.950 . S
H1945 C1975 0.950 . S
C1946 H1928 0.951 . S
C1946 C1947 1.366 . S
C1946 C1948 1.388 . S
C1947 C1946 1.366 . S
C1947 C1951 1.385 . S
C1948 H1929 0.951 . S
C1948 C1946 1.388 . S
C1948 C1949 1.366 . S
C1949 C1948 1.366 . S
C1949 C1950 1.414 . S
C1949 C1952 1.499 . S
C1950 H1930 0.950 . S
C1950 C1949 1.414 . S
C1950 C1951 1.374 . S
C1951 H1931 0.950 . S
C1951 C1947 1.385 . S
C1951 C1950 1.374 . S
C1952 C1949 1.499 . S
C1952 C1953 1.373 . S
C1952 C1954 1.389 . S
C1953 H1932 0.950 . S
C1953 C1952 1.373 . S
C1953 C1969 1.377 . S
C1954 C1952 1.389 . S
C1954 C1955 1.524 . S
C1954 C1968 1.377 . S
C1955 C1954 1.524 . S
C1955 C1956 1.397 . S
C1955 C1960 1.363 . S
C1956 H1933 0.950 . S
C1956 C1955 1.397 . S
C1956 C1957 1.334 . S
C1957 H1934 0.950 . S
C1957 C1956 1.334 . S
C1957 C1958 1.287 . S
C1958 C1957 1.287 . S
C1958 C1959 1.524 . S
C1958 H1977 0.913 . S
C1959 H1935 0.950 . S
C1959 C1958 1.524 . S
C1959 C1960 1.415 . S
C1960 H1936 0.950 . S
C1960 C1955 1.363 . S
C1960 C1959 1.415 . S
C1961 H1937 0.951 . S
C1961 C1962 1.366 . S
C1961 C1963 1.388 . S
C1962 C1961 1.366 . S
C1962 C1966 1.385 . S
C1963 H1938 0.951 . S
C1963 C1961 1.388 . S
C1963 C1964 1.366 . S
C1964 C1963 1.366 . S
C1964 C1965 1.414 . S
C1964 C1967 1.499 . S
C1965 H1939 0.950 . S
C1965 C1964 1.414 . S
C1965 C1966 1.374 . S
C1966 H1940 0.950 . S
C1966 C1962 1.385 . S
C1966 C1965 1.374 . S
C1967 C1964 1.499 . S
C1967 C1968 1.373 . S
C1967 C1969 1.389 . S
C1968 H1941 0.950 . S
C1968 C1954 1.377 . S
C1968 C1967 1.373 . S
C1969 C1953 1.377 . S
C1969 C1967 1.389 . S
C1969 C1970 1.524 . S
C1970 C1969 1.524 . S
C1970 C1971 1.397 . S
C1970 C1975 1.363 . S
C1971 H1942 0.950 . S
C1971 C1970 1.397 . S
C1971 C1972 1.334 . S
C1972 H1943 0.950 . S
C1972 C1971 1.334 . S
C1972 C1973 1.287 . S
C1973 C1972 1.287 . S
C1973 C1974 1.524 . S
C1973 H1976 0.999 . S
C1974 H1944 0.950 . S
C1974 C1973 1.524 . S
C1974 C1975 1.415 . S
C1975 H1945 0.950 . S
C1975 C1970 1.363 . S
C1975 C1974 1.415 . S
H1976 C1973 0.999 . S
H1977 C1958 0.913 . S
H1978 C1996 0.951 . S
H1979 C1998 0.951 . S
H1980 C2000 0.950 . S
H1981 C2001 0.950 . S
H1982 C2003 0.950 . S
H1983 C2006 0.950 . S
H1984 C2007 0.950 . S
H1985 C2009 0.950 . S
H1986 C2010 0.950 . S
H1987 C2011 0.951 . S
H1988 C2013 0.951 . S
H1989 C2015 0.950 . S
H1990 C2016 0.950 . S
H1991 C2018 0.950 . S
H1992 C2021 0.950 . S
H1993 C2022 0.950 . S
H1994 C2024 0.950 . S
H1995 C2025 0.950 . S
C1996 H1978 0.951 . S
C1996 C1997 1.366 . S
C1996 C1998 1.388 . S
C1997 C1996 1.366 . S
C1997 C2001 1.385 . S
C1998 H1979 0.951 . S
C1998 C1996 1.388 . S
C1998 C1999 1.366 . S
C1999 C1998 1.366 . S
C1999 C2000 1.414 . S
C1999 C2002 1.499 . S
C2000 H1980 0.950 . S
C2000 C1999 1.414 . S
C2000 C2001 1.374 . S
C2001 H1981 0.950 . S
C2001 C1997 1.385 . S
C2001 C2000 1.374 . S
C2002 C1999 1.499 . S
C2002 C2003 1.373 . S
C2002 C2004 1.389 . S
C2003 H1982 0.950 . S
C2003 C2002 1.373 . S
C2003 C2019 1.377 . S
C2004 C2002 1.389 . S
C2004 C2005 1.524 . S
C2004 C2018 1.377 . S
C2005 C2004 1.524 . S
C2005 C2006 1.397 . S
C2005 C2010 1.363 . S
C2006 H1983 0.950 . S
C2006 C2005 1.397 . S
C2006 C2007 1.334 . S
C2007 H1984 0.950 . S
C2007 C2006 1.334 . S
C2007 C2008 1.287 . S
C2008 C2007 1.287 . S
C2008 C2009 1.524 . S
C2008 H2027 0.913 . S
C2009 H1985 0.950 . S
C2009 C2008 1.524 . S
C2009 C2010 1.415 . S
C2010 H1986 0.950 . S
C2010 C2005 1.363 . S
C2010 C2009 1.415 . S
C2011 H1987 0.951 . S
C2011 C2012 1.366 . S
C2011 C2013 1.388 . S
C2012 C2011 1.366 . S
C2012 C2016 1.385 . S
C2013 H1988 0.951 . S
C2013 C2011 1.388 . S
C2013 C2014 1.366 . S
C2014 C2013 1.366 . S
C2014 C2015 1.414 . S
C2014 C2017 1.499 . S
C2015 H1989 0.950 . S
C2015 C2014 1.414 . S
C2015 C2016 1.374 . S
C2016 H1990 0.950 . S
C2016 C2012 1.385 . S
C2016 C2015 1.374 . S
C2017 C2014 1.499 . S
C2017 C2018 1.373 . S
C2017 C2019 1.389 . S
C2018 H1991 0.950 . S
C2018 C2004 1.377 . S
C2018 C2017 1.373 . S
C2019 C2003 1.377 . S
C2019 C2017 1.389 . S
C2019 C2020 1.524 . S
C2020 C2019 1.524 . S
C2020 C2021 1.397 . S
C2020 C2025 1.363 . S
C2021 H1992 0.950 . S
C2021 C2020 1.397 . S
C2021 C2022 1.334 . S
C2022 H1993 0.950 . S
C2022 C2021 1.334 . S
C2022 C2023 1.287 . S
C2023 C2022 1.287 . S
C2023 C2024 1.524 . S
C2023 H2026 0.999 . S
C2024 H1994 0.950 . S
C2024 C2023 1.524 . S
C2024 C2025 1.415 . S
C2025 H1995 0.950 . S
C2025 C2020 1.363 . S
C2025 C2024 1.415 . S
H2026 C2023 0.999 . S
H2027 C2008 0.913 . S
H2028 C2046 0.951 . S
H2029 C2048 0.951 . S
H2030 C2050 0.950 . S
H2031 C2051 0.950 . S
H2032 C2053 0.950 . S
H2033 C2056 0.950 . S
H2034 C2057 0.950 . S
H2035 C2059 0.950 . S
H2036 C2060 0.950 . S
H2037 C2061 0.951 . S
H2038 C2063 0.951 . S
H2039 C2065 0.950 . S
H2040 C2066 0.950 . S
H2041 C2068 0.950 . S
H2042 C2071 0.950 . S
H2043 C2072 0.950 . S
H2044 C2074 0.950 . S
H2045 C2075 0.950 . S
C2046 H2028 0.951 . S
C2046 C2047 1.366 . S
C2046 C2048 1.388 . S
C2047 C2046 1.366 . S
C2047 C2051 1.385 . S
C2048 H2029 0.951 . S
C2048 C2046 1.388 . S
C2048 C2049 1.366 . S
C2049 C2048 1.366 . S
C2049 C2050 1.414 . S
C2049 C2052 1.499 . S
C2050 H2030 0.950 . S
C2050 C2049 1.414 . S
C2050 C2051 1.374 . S
C2051 H2031 0.950 . S
C2051 C2047 1.385 . S
C2051 C2050 1.374 . S
C2052 C2049 1.499 . S
C2052 C2053 1.373 . S
C2052 C2054 1.389 . S
C2053 H2032 0.950 . S
C2053 C2052 1.373 . S
C2053 C2069 1.377 . S
C2054 C2052 1.389 . S
C2054 C2055 1.524 . S
C2054 C2068 1.377 . S
C2055 C2054 1.524 . S
C2055 C2056 1.397 . S
C2055 C2060 1.363 . S
C2056 H2033 0.950 . S
C2056 C2055 1.397 . S
C2056 C2057 1.334 . S
C2057 H2034 0.950 . S
C2057 C2056 1.334 . S
C2057 C2058 1.287 . S
C2058 C2057 1.287 . S
C2058 C2059 1.524 . S
C2058 H2077 0.913 . S
C2059 H2035 0.950 . S
C2059 C2058 1.524 . S
C2059 C2060 1.415 . S
C2060 H2036 0.950 . S
C2060 C2055 1.363 . S
C2060 C2059 1.415 . S
C2061 H2037 0.951 . S
C2061 C2062 1.366 . S
C2061 C2063 1.388 . S
C2062 C2061 1.366 . S
C2062 C2066 1.385 . S
C2063 H2038 0.951 . S
C2063 C2061 1.388 . S
C2063 C2064 1.366 . S
C2064 C2063 1.366 . S
C2064 C2065 1.414 . S
C2064 C2067 1.499 . S
C2065 H2039 0.950 . S
C2065 C2064 1.414 . S
C2065 C2066 1.374 . S
C2066 H2040 0.950 . S
C2066 C2062 1.385 . S
C2066 C2065 1.374 . S
C2067 C2064 1.499 . S
C2067 C2068 1.373 . S
C2067 C2069 1.389 . S
C2068 H2041 0.950 . S
C2068 C2054 1.377 . S
C2068 C2067 1.373 . S
C2069 C2053 1.377 . S
C2069 C2067 1.389 . S
C2069 C2070 1.524 . S
C2070 C2069 1.524 . S
C2070 C2071 1.397 . S
C2070 C2075 1.363 . S
C2071 H2042 0.950 . S
C2071 C2070 1.397 . S
C2071 C2072 1.334 . S
C2072 H2043 0.950 . S
C2072 C2071 1.334 . S
C2072 C2073 1.287 . S
C2073 C2072 1.287 . S
C2073 C2074 1.524 . S
C2073 H2076 0.999 . S
C2074 H2044 0.950 . S
C2074 C2073 1.524 . S
C2074 C2075 1.415 . S
C2075 H2045 0.950 . S
C2075 C2070 1.363 . S
C2075 C2074 1.415 . S
H2076 C2073 0.999 . S
H2077 C2058 0.913 . S
H2078 C2096 0.951 . S
H2079 C2098 0.951 . S
H2080 C2100 0.950 . S
H2081 C2101 0.950 . S
H2082 C2103 0.950 . S
H2083 C2106 0.950 . S
H2084 C2107 0.950 . S
H2085 C2109 0.950 . S
H2086 C2110 0.950 . S
H2087 C2111 0.951 . S
H2088 C2113 0.951 . S
H2089 C2115 0.950 . S
H2090 C2116 0.950 . S
H2091 C2118 0.950 . S
H2092 C2121 0.950 . S
H2093 C2122 0.950 . S
H2094 C2124 0.950 . S
H2095 C2125 0.950 . S
C2096 H2078 0.951 . S
C2096 C2097 1.366 . S
C2096 C2098 1.388 . S
C2097 C2096 1.366 . S
C2097 C2101 1.385 . S
C2098 H2079 0.951 . S
C2098 C2096 1.388 . S
C2098 C2099 1.366 . S
C2099 C2098 1.366 . S
C2099 C2100 1.414 . S
C2099 C2102 1.499 . S
C2100 H2080 0.950 . S
C2100 C2099 1.414 . S
C2100 C2101 1.374 . S
C2101 H2081 0.950 . S
C2101 C2097 1.385 . S
C2101 C2100 1.374 . S
C2102 C2099 1.499 . S
C2102 C2103 1.373 . S
C2102 C2104 1.389 . S
C2103 H2082 0.950 . S
C2103 C2102 1.373 . S
C2103 C2119 1.377 . S
C2104 C2102 1.389 . S
C2104 C2105 1.524 . S
C2104 C2118 1.377 . S
C2105 C2104 1.524 . S
C2105 C2106 1.397 . S
C2105 C2110 1.363 . S
C2106 H2083 0.950 . S
C2106 C2105 1.397 . S
C2106 C2107 1.334 . S
C2107 H2084 0.950 . S
C2107 C2106 1.334 . S
C2107 C2108 1.287 . S
C2108 C2107 1.287 . S
C2108 C2109 1.524 . S
C2108 H2127 0.913 . S
C2109 H2085 0.950 . S
C2109 C2108 1.524 . S
C2109 C2110 1.415 . S
C2110 H2086 0.950 . S
C2110 C2105 1.363 . S
C2110 C2109 1.415 . S
C2111 H2087 0.951 . S
C2111 C2112 1.366 . S
C2111 C2113 1.388 . S
C2112 C2111 1.366 . S
C2112 C2116 1.385 . S
C2113 H2088 0.951 . S
C2113 C2111 1.388 . S
C2113 C2114 1.366 . S
C2114 C2113 1.366 . S
C2114 C2115 1.414 . S
C2114 C2117 1.499 . S
C2115 H2089 0.950 . S
C2115 C2114 1.414 . S
C2115 C2116 1.374 . S
C2116 H2090 0.950 . S
C2116 C2112 1.385 . S
C2116 C2115 1.374 . S
C2117 C2114 1.499 . S
C2117 C2118 1.373 . S
C2117 C2119 1.389 . S
C2118 H2091 0.950 . S
C2118 C2104 1.377 . S
C2118 C2117 1.373 . S
C2119 C2103 1.377 . S
C2119 C2117 1.389 . S
C2119 C2120 1.524 . S
C2120 C2119 1.524 . S
C2120 C2121 1.397 . S
C2120 C2125 1.363 . S
C2121 H2092 0.950 . S
C2121 C2120 1.397 . S
C2121 C2122 1.334 . S
C2122 H2093 0.950 . S
C2122 C2121 1.334 . S
C2122 C2123 1.287 . S
C2123 C2122 1.287 . S
C2123 C2124 1.524 . S
C2123 H2126 0.999 . S
C2124 H2094 0.950 . S
C2124 C2123 1.524 . S
C2124 C2125 1.415 . S
C2125 H2095 0.950 . S
C2125 C2120 1.363 . S
C2125 C2124 1.415 . S
H2126 C2123 0.999 . S
H2127 C2108 0.913 . S
H2128 C2146 0.951 1_455 S
H2129 C2148 0.916 1_455 S
H2130 C2150 0.950 . S
H2131 C2151 0.950 . S
H2132 C2153 0.950 . S
H2133 C2156 0.950 . S
H2134 C2157 0.950 . S
H2135 C2159 0.950 . S
H2136 C2160 0.950 . S
H2137 C2161 0.951 1_655 S
H2138 C2163 0.916 1_655 S
H2139 C2165 0.950 . S
H2140 C2166 0.950 . S
H2141 C2168 0.950 . S
H2142 C2171 0.950 . S
H2143 C2172 0.950 . S
H2144 C2174 0.950 . S
H2145 C2175 0.950 . S
C2146 H2128 0.951 1_655 S
C2146 C2147 1.366 . S
C2146 C2148 1.399 . S
C2147 C2146 1.366 . S
C2147 C2151 1.385 . S
C2148 H2129 0.916 1_655 S
C2148 C2146 1.399 . S
C2148 C2149 1.389 . S
C2149 C2148 1.389 . S
C2149 C2150 1.414 . S
C2149 C2152 1.499 . S
C2150 H2130 0.950 . S
C2150 C2149 1.414 . S
C2150 C2151 1.374 . S
C2151 H2131 0.950 . S
C2151 C2147 1.385 . S
C2151 C2150 1.374 . S
C2152 C2149 1.499 . S
C2152 C2153 1.373 . S
C2152 C2154 1.389 1_655 S
C2153 H2132 0.950 . S
C2153 C2152 1.373 . S
C2153 C2169 1.377 . S
C2154 C2152 1.389 1_455 S
C2154 C2155 1.524 . S
C2154 C2168 1.377 . S
C2155 C2154 1.524 . S
C2155 C2156 1.397 1_455 S
C2155 C2160 1.363 . S
C2156 H2133 0.950 . S
C2156 C2155 1.397 1_655 S
C2156 C2157 1.334 . S
C2157 H2134 0.950 . S
C2157 C2156 1.334 . S
C2157 C2158 1.287 . S
C2158 C2157 1.287 . S
C2158 C2159 1.524 1_655 S
C2158 H2177 0.913 . S
C2159 H2135 0.950 . S
C2159 C2158 1.524 1_455 S
C2159 C2160 1.415 . S
C2160 H2136 0.950 . S
C2160 C2155 1.363 . S
C2160 C2159 1.415 . S
C2161 H2137 0.951 1_455 S
C2161 C2162 1.366 . S
C2161 C2163 1.399 . S
C2162 C2161 1.366 . S
C2162 C2166 1.385 . S
C2163 H2138 0.916 1_455 S
C2163 C2161 1.399 . S
C2163 C2164 1.390 . S
C2164 C2163 1.390 . S
C2164 C2165 1.414 . S
C2164 C2167 1.499 . S
C2165 H2139 0.950 . S
C2165 C2164 1.414 . S
C2165 C2166 1.374 . S
C2166 H2140 0.950 . S
C2166 C2162 1.385 . S
C2166 C2165 1.374 . S
C2167 C2164 1.499 . S
C2167 C2168 1.373 . S
C2167 C2169 1.389 1_455 S
C2168 H2141 0.950 . S
C2168 C2154 1.377 . S
C2168 C2167 1.373 . S
C2169 C2153 1.377 . S
C2169 C2167 1.389 1_655 S
C2169 C2170 1.524 . S
C2170 C2169 1.524 . S
C2170 C2171 1.397 1_655 S
C2170 C2175 1.363 . S
C2171 H2142 0.950 . S
C2171 C2170 1.397 1_455 S
C2171 C2172 1.334 . S
C2172 H2143 0.950 . S
C2172 C2171 1.334 . S
C2172 C2173 1.287 . S
C2173 C2172 1.287 . S
C2173 C2174 1.524 1_455 S
C2173 H2176 0.999 . S
C2174 H2144 0.950 . S
C2174 C2173 1.524 1_655 S
C2174 C2175 1.415 . S
C2175 H2145 0.950 . S
C2175 C2170 1.363 . S
C2175 C2174 1.415 . S
H2176 C2173 0.999 . S
H2177 C2158 0.913 . S
H2178 C2196 0.951 . S
H2179 C2198 0.951 . S
H2180 C2200 0.955 . S
H2181 C2201 0.950 1_545 S
H2182 C2203 0.950 . S
H2183 C2206 0.950 . S
H2184 C2207 0.950 . S
H2185 C2209 0.950 . S
H2186 C2210 0.950 . S
H2187 C2211 0.951 . S
H2188 C2213 0.951 . S
H2189 C2215 0.955 . S
H2190 C2216 0.950 1_565 S
H2191 C2218 0.950 . S
H2192 C2221 0.950 . S
H2193 C2222 0.950 . S
H2194 C2224 0.950 . S
H2195 C2225 0.950 . S
C2196 H2178 0.951 . S
C2196 C2197 1.366 . S
C2196 C2198 1.388 . S
C2197 C2196 1.366 . S
C2197 C2201 1.385 . S
C2198 H2179 0.951 . S
C2198 C2196 1.388 . S
C2198 C2199 1.366 . S
C2199 C2198 1.366 . S
C2199 C2200 1.411 1_565 S
C2199 C2202 1.499 . S
C2200 H2180 0.955 . S
C2200 C2199 1.411 1_545 S
C2200 C2201 1.372 1_545 S
C2201 H2181 0.950 1_565 S
C2201 C2197 1.385 . S
C2201 C2200 1.372 1_565 S
C2202 C2199 1.499 . S
C2202 C2203 1.373 1_565 S
C2202 C2204 1.389 . S
C2203 H2182 0.950 . S
C2203 C2202 1.373 1_545 S
C2203 C2219 1.377 . S
C2204 C2202 1.389 . S
C2204 C2205 1.524 . S
C2204 C2218 1.377 . S
C2205 C2204 1.524 . S
C2205 C2206 1.397 . S
C2205 C2210 1.363 . S
C2206 H2183 0.950 . S
C2206 C2205 1.397 . S
C2206 C2207 1.334 . S
C2207 H2184 0.950 . S
C2207 C2206 1.334 . S
C2207 C2208 1.287 . S
C2208 C2207 1.287 . S
C2208 C2209 1.524 . S
C2208 H2227 0.913 . S
C2209 H2185 0.950 . S
C2209 C2208 1.524 . S
C2209 C2210 1.415 . S
C2210 H2186 0.950 . S
C2210 C2205 1.363 . S
C2210 C2209 1.415 . S
C2211 H2187 0.951 . S
C2211 C2212 1.366 . S
C2211 C2213 1.388 . S
C2212 C2211 1.366 . S
C2212 C2216 1.385 . S
C2213 H2188 0.951 . S
C2213 C2211 1.388 . S
C2213 C2214 1.366 . S
C2214 C2213 1.366 . S
C2214 C2215 1.411 1_545 S
C2214 C2217 1.499 . S
C2215 H2189 0.955 . S
C2215 C2214 1.411 1_565 S
C2215 C2216 1.372 1_565 S
C2216 H2190 0.950 1_545 S
C2216 C2212 1.385 . S
C2216 C2215 1.372 1_545 S
C2217 C2214 1.499 . S
C2217 C2218 1.373 1_545 S
C2217 C2219 1.389 . S
C2218 H2191 0.950 . S
C2218 C2204 1.377 . S
C2218 C2217 1.373 1_565 S
C2219 C2203 1.377 . S
C2219 C2217 1.389 . S
C2219 C2220 1.524 . S
C2220 C2219 1.524 . S
C2220 C2221 1.397 . S
C2220 C2225 1.363 . S
C2221 H2192 0.950 . S
C2221 C2220 1.397 . S
C2221 C2222 1.334 . S
C2222 H2193 0.950 . S
C2222 C2221 1.334 . S
C2222 C2223 1.287 . S
C2223 C2222 1.287 . S
C2223 C2224 1.524 . S
C2223 H2226 0.999 . S
C2224 H2194 0.950 . S
C2224 C2223 1.524 . S
C2224 C2225 1.415 . S
C2225 H2195 0.950 . S
C2225 C2220 1.363 . S
C2225 C2224 1.415 . S
H2226 C2223 0.999 . S
H2227 C2208 0.913 . S
H2228 C2246 0.951 . S
H2229 C2248 0.951 . S
H2230 C2250 0.950 . S
H2231 C2251 0.950 . S
H2232 C2253 0.950 . S
H2233 C2256 0.950 . S
H2234 C2257 0.950 . S
H2235 C2259 0.945 1_565 S
H2236 C2260 0.950 1_565 S
H2237 C2261 0.951 . S
H2238 C2263 0.951 . S
H2239 C2265 0.950 . S
H2240 C2266 0.950 . S
H2241 C2268 0.950 . S
H2242 C2271 0.950 . S
H2243 C2272 0.950 . S
H2244 C2274 0.945 1_545 S
H2245 C2275 0.950 1_545 S
C2246 H2228 0.951 . S
C2246 C2247 1.366 . S
C2246 C2248 1.388 . S
C2247 C2246 1.366 . S
C2247 C2251 1.385 . S
C2248 H2229 0.951 . S
C2248 C2246 1.388 . S
C2248 C2249 1.366 . S
C2249 C2248 1.366 . S
C2249 C2250 1.414 . S
C2249 C2252 1.499 . S
C2250 H2230 0.950 . S
C2250 C2249 1.414 . S
C2250 C2251 1.374 . S
C2251 H2231 0.950 . S
C2251 C2247 1.385 . S
C2251 C2250 1.374 . S
C2252 C2249 1.499 . S
C2252 C2253 1.373 . S
C2252 C2254 1.389 . S
C2253 H2232 0.950 . S
C2253 C2252 1.373 . S
C2253 C2269 1.377 1_545 S
C2254 C2252 1.389 . S
C2254 C2255 1.524 . S
C2254 C2268 1.377 1_545 S
C2255 C2254 1.524 . S
C2255 C2256 1.397 . S
C2255 C2260 1.363 . S
C2256 H2233 0.950 . S
C2256 C2255 1.397 . S
C2256 C2257 1.334 . S
C2257 H2234 0.950 . S
C2257 C2256 1.334 . S
C2257 C2258 1.287 . S
C2258 C2257 1.287 . S
C2258 C2259 1.524 . S
C2258 H2277 0.913 . S
C2259 H2235 0.945 1_545 S
C2259 C2258 1.524 . S
C2259 C2260 1.415 . S
C2260 H2236 0.950 1_545 S
C2260 C2255 1.363 . S
C2260 C2259 1.415 . S
C2261 H2237 0.951 . S
C2261 C2262 1.366 . S
C2261 C2263 1.388 . S
C2262 C2261 1.366 . S
C2262 C2266 1.385 . S
C2263 H2238 0.951 . S
C2263 C2261 1.388 . S
C2263 C2264 1.366 . S
C2264 C2263 1.366 . S
C2264 C2265 1.414 . S
C2264 C2267 1.499 . S
C2265 H2239 0.950 . S
C2265 C2264 1.414 . S
C2265 C2266 1.374 . S
C2266 H2240 0.950 . S
C2266 C2262 1.385 . S
C2266 C2265 1.374 . S
C2267 C2264 1.499 . S
C2267 C2268 1.373 . S
C2267 C2269 1.389 . S
C2268 H2241 0.950 . S
C2268 C2254 1.377 1_565 S
C2268 C2267 1.373 . S
C2269 C2253 1.377 1_565 S
C2269 C2267 1.389 . S
C2269 C2270 1.524 . S
C2270 C2269 1.524 . S
C2270 C2271 1.397 . S
C2270 C2275 1.363 . S
C2271 H2242 0.950 . S
C2271 C2270 1.397 . S
C2271 C2272 1.334 . S
C2272 H2243 0.950 . S
C2272 C2271 1.334 . S
C2272 C2273 1.287 . S
C2273 C2272 1.287 . S
C2273 C2274 1.524 . S
C2273 H2276 0.999 . S
C2274 H2244 0.945 1_565 S
C2274 C2273 1.524 . S
C2274 C2275 1.415 . S
C2275 H2245 0.950 1_565 S
C2275 C2270 1.363 . S
C2275 C2274 1.415 . S
H2276 C2273 0.999 . S
H2277 C2258 0.913 . S
H2278 C2296 0.951 . S
H2279 C2298 0.951 . S
H2280 C2300 0.950 . S
H2281 C2301 0.950 . S
H2282 C2303 0.950 . S
H2283 C2306 0.950 . S
H2284 C2307 0.950 . S
H2285 C2309 0.950 . S
H2286 C2310 0.950 . S
H2287 C2311 0.951 . S
H2288 C2313 0.951 . S
H2289 C2315 0.950 . S
H2290 C2316 0.950 . S
H2291 C2318 0.950 . S
H2292 C2321 0.950 . S
H2293 C2322 0.950 . S
H2294 C2324 0.950 . S
H2295 C2325 0.950 . S
C2296 H2278 0.951 . S
C2296 C2297 1.366 . S
C2296 C2298 1.388 . S
C2297 C2296 1.366 . S
C2297 C2301 1.385 . S
C2298 H2279 0.951 . S
C2298 C2296 1.388 . S
C2298 C2299 1.366 . S
C2299 C2298 1.366 . S
C2299 C2300 1.414 . S
C2299 C2302 1.499 . S
C2300 H2280 0.950 . S
C2300 C2299 1.414 . S
C2300 C2301 1.374 . S
C2301 H2281 0.950 . S
C2301 C2297 1.385 . S
C2301 C2300 1.374 . S
C2302 C2299 1.499 . S
C2302 C2303 1.373 . S
C2302 C2304 1.389 . S
C2303 H2282 0.950 . S
C2303 C2302 1.373 . S
C2303 C2319 1.377 1_655 S
C2304 C2302 1.389 . S
C2304 C2305 1.524 . S
C2304 C2318 1.377 1_655 S
C2305 C2304 1.524 . S
C2305 C2306 1.397 . S
C2305 C2310 1.363 . S
C2306 H2283 0.950 . S
C2306 C2305 1.397 . S
C2306 C2307 1.334 . S
C2307 H2284 0.950 . S
C2307 C2306 1.334 . S
C2307 C2308 1.287 . S
C2308 C2307 1.287 . S
C2308 C2309 1.524 . S
C2308 H2327 0.913 . S
C2309 H2285 0.950 . S
C2309 C2308 1.524 . S
C2309 C2310 1.415 . S
C2310 H2286 0.950 . S
C2310 C2305 1.363 . S
C2310 C2309 1.415 . S
C2311 H2287 0.951 . S
C2311 C2312 1.366 . S
C2311 C2313 1.388 . S
C2312 C2311 1.366 . S
C2312 C2316 1.385 . S
C2313 H2288 0.951 . S
C2313 C2311 1.388 . S
C2313 C2314 1.366 . S
C2314 C2313 1.366 . S
C2314 C2315 1.414 . S
C2314 C2317 1.499 . S
C2315 H2289 0.950 . S
C2315 C2314 1.414 . S
C2315 C2316 1.374 . S
C2316 H2290 0.950 . S
C2316 C2312 1.385 . S
C2316 C2315 1.374 . S
C2317 C2314 1.499 . S
C2317 C2318 1.373 . S
C2317 C2319 1.389 . S
C2318 H2291 0.950 . S
C2318 C2304 1.377 1_455 S
C2318 C2317 1.373 . S
C2319 C2303 1.377 1_455 S
C2319 C2317 1.389 . S
C2319 C2320 1.524 . S
C2320 C2319 1.524 . S
C2320 C2321 1.397 . S
C2320 C2325 1.363 . S
C2321 H2292 0.950 . S
C2321 C2320 1.397 . S
C2321 C2322 1.334 . S
C2322 H2293 0.950 . S
C2322 C2321 1.334 . S
C2322 C2323 1.287 . S
C2323 C2322 1.287 . S
C2323 C2324 1.524 . S
C2323 H2326 0.999 . S
C2324 H2294 0.950 . S
C2324 C2323 1.524 . S
C2324 C2325 1.415 . S
C2325 H2295 0.950 . S
C2325 C2320 1.363 . S
C2325 C2324 1.415 . S
H2326 C2323 0.999 . S
H2327 C2308 0.913 . S
H2328 C2346 0.951 1_455 S
H2329 C2348 0.959 . S
H2330 C2350 0.950 . S
H2331 C2351 0.950 . S
H2332 C2353 0.950 . S
H2333 C2356 0.950 . S
H2334 C2357 0.950 . S
H2335 C2359 0.950 . S
H2336 C2360 0.950 . S
H2337 C2361 0.951 1_655 S
H2338 C2363 0.959 . S
H2339 C2365 0.950 . S
H2340 C2366 0.950 . S
H2341 C2368 0.950 . S
H2342 C2371 0.950 . S
H2343 C2372 0.950 . S
H2344 C2374 0.950 . S
H2345 C2375 0.950 . S
C2346 H2328 0.951 1_655 S
C2346 C2347 1.366 . S
C2346 C2348 1.385 1_655 S
C2347 C2346 1.366 . S
C2347 C2351 1.385 . S
C2348 H2329 0.959 . S
C2348 C2346 1.385 1_455 S
C2348 C2349 1.360 1_455 S
C2349 C2348 1.360 1_655 S
C2349 C2350 1.414 . S
C2349 C2352 1.499 . S
C2350 H2330 0.950 . S
C2350 C2349 1.414 . S
C2350 C2351 1.374 . S
C2351 H2331 0.950 . S
C2351 C2347 1.385 . S
C2351 C2350 1.374 . S
C2352 C2349 1.499 . S
C2352 C2353 1.373 . S
C2352 C2354 1.389 1_655 S
C2353 H2332 0.950 . S
C2353 C2352 1.373 . S
C2353 C2369 1.377 . S
C2354 C2352 1.389 1_455 S
C2354 C2355 1.524 . S
C2354 C2368 1.377 . S
C2355 C2354 1.524 . S
C2355 C2356 1.397 . S
C2355 C2360 1.363 . S
C2356 H2333 0.950 . S
C2356 C2355 1.397 . S
C2356 C2357 1.334 . S
C2357 H2334 0.950 . S
C2357 C2356 1.334 . S
C2357 C2358 1.287 . S
C2358 C2357 1.287 . S
C2358 C2359 1.524 . S
C2358 H2377 0.913 . S
C2359 H2335 0.950 . S
C2359 C2358 1.524 . S
C2359 C2360 1.415 . S
C2360 H2336 0.950 . S
C2360 C2355 1.363 . S
C2360 C2359 1.415 . S
C2361 H2337 0.951 1_455 S
C2361 C2362 1.366 . S
C2361 C2363 1.385 1_455 S
C2362 C2361 1.366 . S
C2362 C2366 1.385 . S
C2363 H2338 0.959 . S
C2363 C2361 1.385 1_655 S
C2363 C2364 1.360 1_655 S
C2364 C2363 1.360 1_455 S
C2364 C2365 1.414 . S
C2364 C2367 1.499 . S
C2365 H2339 0.950 . S
C2365 C2364 1.414 . S
C2365 C2366 1.374 . S
C2366 H2340 0.950 . S
C2366 C2362 1.385 . S
C2366 C2365 1.374 . S
C2367 C2364 1.499 . S
C2367 C2368 1.373 . S
C2367 C2369 1.389 1_455 S
C2368 H2341 0.950 . S
C2368 C2354 1.377 . S
C2368 C2367 1.373 . S
C2369 C2353 1.377 . S
C2369 C2367 1.389 1_655 S
C2369 C2370 1.524 . S
C2370 C2369 1.524 . S
C2370 C2371 1.397 . S
C2370 C2375 1.363 . S
C2371 H2342 0.950 . S
C2371 C2370 1.397 . S
C2371 C2372 1.334 . S
C2372 H2343 0.950 . S
C2372 C2371 1.334 . S
C2372 C2373 1.287 . S
C2373 C2372 1.287 . S
C2373 C2374 1.524 . S
C2373 H2376 0.999 . S
C2374 H2344 0.950 . S
C2374 C2373 1.524 . S
C2374 C2375 1.415 . S
C2375 H2345 0.950 . S
C2375 C2370 1.363 . S
C2375 C2374 1.415 . S
H2376 C2373 0.999 . S
H2377 C2358 0.913 . S
H2378 C2396 0.951 . S
H2379 C2398 0.951 . S
H2380 C2400 0.950 1_565 S
H2381 C2401 0.950 . S
H2382 C2403 0.950 . S
H2383 C2406 0.950 . S
H2384 C2407 0.950 . S
H2385 C2409 0.950 . S
H2386 C2410 0.950 . S
H2387 C2411 0.951 . S
H2388 C2413 0.951 . S
H2389 C2415 0.950 1_545 S
H2390 C2416 0.950 . S
H2391 C2418 0.950 . S
H2392 C2421 0.950 . S
H2393 C2422 0.950 . S
H2394 C2424 0.950 . S
H2395 C2425 0.950 . S
C2396 H2378 0.951 . S
C2396 C2397 1.366 . S
C2396 C2398 1.388 . S
C2397 C2396 1.366 . S
C2397 C2401 1.385 . S
C2398 H2379 0.951 . S
C2398 C2396 1.388 . S
C2398 C2399 1.366 . S
C2399 C2398 1.366 . S
C2399 C2400 1.414 . S
C2399 C2402 1.499 . S
C2400 H2380 0.950 1_545 S
C2400 C2399 1.414 . S
C2400 C2401 1.374 . S
C2401 H2381 0.950 . S
C2401 C2397 1.385 . S
C2401 C2400 1.374 . S
C2402 C2399 1.499 . S
C2402 C2403 1.373 1_545 S
C2402 C2404 1.389 . S
C2403 H2382 0.950 . S
C2403 C2402 1.373 1_565 S
C2403 C2419 1.377 . S
C2404 C2402 1.389 . S
C2404 C2405 1.524 . S
C2404 C2418 1.377 . S
C2405 C2404 1.524 . S
C2405 C2406 1.397 . S
C2405 C2410 1.363 . S
C2406 H2383 0.950 . S
C2406 C2405 1.397 . S
C2406 C2407 1.334 . S
C2407 H2384 0.950 . S
C2407 C2406 1.334 . S
C2407 C2408 1.287 . S
C2408 C2407 1.287 . S
C2408 C2409 1.524 . S
C2408 H2427 0.913 . S
C2409 H2385 0.950 . S
C2409 C2408 1.524 . S
C2409 C2410 1.415 . S
C2410 H2386 0.950 . S
C2410 C2405 1.363 . S
C2410 C2409 1.415 . S
C2411 H2387 0.951 . S
C2411 C2412 1.366 . S
C2411 C2413 1.388 . S
C2412 C2411 1.366 . S
C2412 C2416 1.385 . S
C2413 H2388 0.951 . S
C2413 C2411 1.388 . S
C2413 C2414 1.366 . S
C2414 C2413 1.366 . S
C2414 C2415 1.414 . S
C2414 C2417 1.499 . S
C2415 H2389 0.950 1_565 S
C2415 C2414 1.414 . S
C2415 C2416 1.374 . S
C2416 H2390 0.950 . S
C2416 C2412 1.385 . S
C2416 C2415 1.374 . S
C2417 C2414 1.499 . S
C2417 C2418 1.373 1_565 S
C2417 C2419 1.389 . S
C2418 H2391 0.950 . S
C2418 C2404 1.377 . S
C2418 C2417 1.373 1_545 S
C2419 C2403 1.377 . S
C2419 C2417 1.389 . S
C2419 C2420 1.524 . S
C2420 C2419 1.524 . S
C2420 C2421 1.397 . S
C2420 C2425 1.363 . S
C2421 H2392 0.950 . S
C2421 C2420 1.397 . S
C2421 C2422 1.334 . S
C2422 H2393 0.950 . S
C2422 C2421 1.334 . S
C2422 C2423 1.287 . S
C2423 C2422 1.287 . S
C2423 C2424 1.524 . S
C2423 H2426 0.999 . S
C2424 H2394 0.950 . S
C2424 C2423 1.524 . S
C2424 C2425 1.415 . S
C2425 H2395 0.950 . S
C2425 C2420 1.363 . S
C2425 C2424 1.415 . S
H2426 C2423 0.999 . S
H2427 C2408 0.913 . S
H2428 C2446 0.951 . S
H2429 C2448 0.951 . S
H2430 C2450 0.950 . S
H2431 C2451 0.950 . S
H2432 C2453 0.950 . S
H2433 C2456 0.950 . S
H2434 C2457 0.950 . S
H2435 C2459 0.950 1_545 S
H2436 C2460 0.952 1_545 S
H2437 C2461 0.951 . S
H2438 C2463 0.951 . S
H2439 C2465 0.950 . S
H2440 C2466 0.950 . S
H2441 C2468 0.950 . S
H2442 C2471 0.950 . S
H2443 C2472 0.950 . S
H2444 C2474 0.950 1_565 S
H2445 C2475 0.952 1_565 S
C2446 H2428 0.951 . S
C2446 C2447 1.366 . S
C2446 C2448 1.388 . S
C2447 C2446 1.366 . S
C2447 C2451 1.385 . S
C2448 H2429 0.951 . S
C2448 C2446 1.388 . S
C2448 C2449 1.366 . S
C2449 C2448 1.366 . S
C2449 C2450 1.414 . S
C2449 C2452 1.499 . S
C2450 H2430 0.950 . S
C2450 C2449 1.414 . S
C2450 C2451 1.374 . S
C2451 H2431 0.950 . S
C2451 C2447 1.385 . S
C2451 C2450 1.374 . S
C2452 C2449 1.499 . S
C2452 C2453 1.373 . S
C2452 C2454 1.389 . S
C2453 H2432 0.950 . S
C2453 C2452 1.373 . S
C2453 C2469 1.377 1_565 S
C2454 C2452 1.389 . S
C2454 C2455 1.524 . S
C2454 C2468 1.377 1_565 S
C2455 C2454 1.524 . S
C2455 C2456 1.397 . S
C2455 C2460 1.361 . S
C2456 H2433 0.950 . S
C2456 C2455 1.397 . S
C2456 C2457 1.334 . S
C2457 H2434 0.950 . S
C2457 C2456 1.334 . S
C2457 C2458 1.287 . S
C2458 C2457 1.287 . S
C2458 C2459 1.524 . S
C2458 H2477 0.913 . S
C2459 H2435 0.950 1_565 S
C2459 C2458 1.524 . S
C2459 C2460 1.414 . S
C2460 H2436 0.952 1_565 S
C2460 C2455 1.361 . S
C2460 C2459 1.414 . S
C2461 H2437 0.951 . S
C2461 C2462 1.366 . S
C2461 C2463 1.388 . S
C2462 C2461 1.366 . S
C2462 C2466 1.385 . S
C2463 H2438 0.951 . S
C2463 C2461 1.388 . S
C2463 C2464 1.366 . S
C2464 C2463 1.366 . S
C2464 C2465 1.414 . S
C2464 C2467 1.499 . S
C2465 H2439 0.950 . S
C2465 C2464 1.414 . S
C2465 C2466 1.374 . S
C2466 H2440 0.950 . S
C2466 C2462 1.385 . S
C2466 C2465 1.374 . S
C2467 C2464 1.499 . S
C2467 C2468 1.373 . S
C2467 C2469 1.389 . S
C2468 H2441 0.950 . S
C2468 C2454 1.377 1_545 S
C2468 C2467 1.373 . S
C2469 C2453 1.377 1_545 S
C2469 C2467 1.389 . S
C2469 C2470 1.524 . S
C2470 C2469 1.524 . S
C2470 C2471 1.397 . S
C2470 C2475 1.361 . S
C2471 H2442 0.950 . S
C2471 C2470 1.397 . S
C2471 C2472 1.334 . S
C2472 H2443 0.950 . S
C2472 C2471 1.334 . S
C2472 C2473 1.287 . S
C2473 C2472 1.287 . S
C2473 C2474 1.524 . S
C2473 H2476 0.999 . S
C2474 H2444 0.950 1_545 S
C2474 C2473 1.524 . S
C2474 C2475 1.414 . S
C2475 H2445 0.952 1_545 S
C2475 C2470 1.361 . S
C2475 C2474 1.414 . S
H2476 C2473 0.999 . S
H2477 C2458 0.913 . S
H2478 C2496 0.951 . S
H2479 C2498 0.951 . S
H2480 C2500 0.950 . S
H2481 C2501 0.950 . S
H2482 C2503 0.950 . S
H2483 C2506 0.950 . S
H2484 C2507 0.950 . S
H2485 C2509 0.950 . S
H2486 C2510 0.950 . S
H2487 C2511 0.951 . S
H2488 C2513 0.951 . S
H2489 C2515 0.950 . S
H2490 C2516 0.950 . S
H2491 C2518 0.950 . S
H2492 C2521 0.950 . S
H2493 C2522 0.950 . S
H2494 C2524 0.950 . S
H2495 C2525 0.950 . S
C2496 H2478 0.951 . S
C2496 C2497 1.366 . S
C2496 C2498 1.388 . S
C2497 C2496 1.366 . S
C2497 C2501 1.385 . S
C2498 H2479 0.951 . S
C2498 C2496 1.388 . S
C2498 C2499 1.366 . S
C2499 C2498 1.366 . S
C2499 C2500 1.414 . S
C2499 C2502 1.499 . S
C2500 H2480 0.950 . S
C2500 C2499 1.414 . S
C2500 C2501 1.374 . S
C2501 H2481 0.950 . S
C2501 C2497 1.385 . S
C2501 C2500 1.374 . S
C2502 C2499 1.499 . S
C2502 C2503 1.373 . S
C2502 C2504 1.389 . S
C2503 H2482 0.950 . S
C2503 C2502 1.373 . S
C2503 C2519 1.377 1_655 S
C2504 C2502 1.389 . S
C2504 C2505 1.524 . S
C2504 C2518 1.377 1_655 S
C2505 C2504 1.524 . S
C2505 C2506 1.397 . S
C2505 C2510 1.363 . S
C2506 H2483 0.950 . S
C2506 C2505 1.397 . S
C2506 C2507 1.334 . S
C2507 H2484 0.950 . S
C2507 C2506 1.334 . S
C2507 C2508 1.287 . S
C2508 C2507 1.287 . S
C2508 C2509 1.524 . S
C2508 H2527 0.913 . S
C2509 H2485 0.950 . S
C2509 C2508 1.524 . S
C2509 C2510 1.415 . S
C2510 H2486 0.950 . S
C2510 C2505 1.363 . S
C2510 C2509 1.415 . S
C2511 H2487 0.951 . S
C2511 C2512 1.366 . S
C2511 C2513 1.388 . S
C2512 C2511 1.366 . S
C2512 C2516 1.385 . S
C2513 H2488 0.951 . S
C2513 C2511 1.388 . S
C2513 C2514 1.366 . S
C2514 C2513 1.366 . S
C2514 C2515 1.414 . S
C2514 C2517 1.499 . S
C2515 H2489 0.950 . S
C2515 C2514 1.414 . S
C2515 C2516 1.374 . S
C2516 H2490 0.950 . S
C2516 C2512 1.385 . S
C2516 C2515 1.374 . S
C2517 C2514 1.499 . S
C2517 C2518 1.373 . S
C2517 C2519 1.389 . S
C2518 H2491 0.950 . S
C2518 C2504 1.377 1_455 S
C2518 C2517 1.373 . S
C2519 C2503 1.377 1_455 S
C2519 C2517 1.389 . S
C2519 C2520 1.524 . S
C2520 C2519 1.524 . S
C2520 C2521 1.397 . S
C2520 C2525 1.363 . S
C2521 H2492 0.950 . S
C2521 C2520 1.397 . S
C2521 C2522 1.334 . S
C2522 H2493 0.950 . S
C2522 C2521 1.334 . S
C2522 C2523 1.287 . S
C2523 C2522 1.287 . S
C2523 C2524 1.524 . S
C2523 H2526 0.999 . S
C2524 H2494 0.950 . S
C2524 C2523 1.524 . S
C2524 C2525 1.415 . S
C2525 H2495 0.950 . S
C2525 C2520 1.363 . S
C2525 C2524 1.415 . S
H2526 C2523 0.999 . S
H2527 C2508 0.913 . S
C547 C337 1.211 . S
C562 C7 1.210 . S
C597 C370 1.210 . S
C612 C40 1.210 . S
C647 C271 1.210 . S
C662 C73 1.210 . S
C697 C304 1.211 . S
C712 C106 1.210 . S
C747 C139 1.211 . S
C762 C469 1.210 . S
C797 C172 1.210 . S
C812 C502 1.211 . S
C847 C403 1.211 . S
C862 C205 1.210 . S
C897 C436 1.210 . S
C912 C238 1.211 . S
C947 C120 1.501 . S
C962 N2 1.444 . S
C997 N35 1.445 . S
C1012 C21 1.502 . S
C1047 C54 1.502 . S
C1062 N68 1.445 . S
C1097 N101 1.444 . S
C1112 C87 1.501 . S
C1147 C186 1.497 . S
C1162 N134 1.445 . S
C1197 C219 1.497 . S
C1212 N167 1.445 . S
C1247 C252 1.497 . S
C1262 N200 1.445 . S
C1297 N233 1.444 . S
C1312 C153 1.497 . S
C1347 N266 1.445 . S
C1362 C384 1.502 . S
C1397 N299 1.445 . S
C1412 C285 1.502 . S
C1447 C318 1.501 . S
C1462 N332 1.444 . S
C1497 N365 1.445 . S
C1512 C351 1.502 . S
C1547 N398 1.445 . S
C1562 C450 1.497 . S
C1597 N431 1.445 . S
C1612 C483 1.497 . S
C1647 N464 1.444 . S
C1662 C516 1.497 . S
C1697 C417 1.497 . S
C1712 N497 1.444 . S
C1747 C249 0.895 . S
C1762 C18 0.895 . S
C1797 C51 0.895 . S
C1812 C150 0.895 . S
C1847 C183 0.896 . S
C1862 C84 0.895 . S
C1897 C216 0.895 . S
C1912 C117 0.895 . S
C1947 C282 0.895 . S
C1962 C513 0.895 . S
C1997 C414 0.895 . S
C2012 C315 0.896 . S
C2047 C348 0.895 . S
C2062 C447 0.895 . S
C2097 C480 0.895 . S
C2112 C381 0.895 . S
C2147 N79 1.584 . S
C2162 N13 1.583 . S
C2197 N112 1.584 . S
C2212 N46 1.584 . S
C2247 N145 1.584 . S
C2262 N211 1.584 . S
C2297 N178 1.584 . S
C2312 N244 1.584 . S
C2347 N277 1.584 . S
C2362 N343 1.584 . S
C2397 N376 1.584 . S
C2412 N310 1.584 . S
C2447 N409 1.584 . S
C2462 N475 1.584 . S
C2497 N508 1.584 . S
C2512 N442 1.584 . S
