# Generated by pormake.
# Topology yfl, (5)-cn, num edge types: 1
# Building blocks:
#     Node 0, Type 0, BuildingBlock: XOMCOT_clean_sbu_1, # of connection points: 5
#     Node 1, Type 0, BuildingBlock: XOMCOT_clean_sbu_1, # of connection points: 5
#     Node 2, Type 0, BuildingBlock: XOMCOT_clean_sbu_1, # of connection points: 5
#     Node 3, Type 0, BuildingBlock: XOMCOT_clean_sbu_1, # of connection points: 5
#     Node 4, Type 0, BuildingBlock: XOMCOT_clean_sbu_1, # of connection points: 5
#     Node 5, Type 0, BuildingBlock: XOMCOT_clean_sbu_1, # of connection points: 5
#     Node 6, Type 0, BuildingBlock: XOMCOT_clean_sbu_1, # of connection points: 5
#     Node 7, Type 0, BuildingBlock: XOMCOT_clean_sbu_1, # of connection points: 5
#     Node 8, Type 0, BuildingBlock: XOMCOT_clean_sbu_1, # of connection points: 5
#     Node 9, Type 0, BuildingBlock: XOMCOT_clean_sbu_1, # of connection points: 5
#     Node 10, Type 0, BuildingBlock: XOMCOT_clean_sbu_1, # of connection points: 5
#     Node 11, Type 0, BuildingBlock: XOMCOT_clean_sbu_1, # of connection points: 5
#     Node 12, Type 0, BuildingBlock: XOMCOT_clean_sbu_1, # of connection points: 5
#     Node 13, Type 0, BuildingBlock: XOMCOT_clean_sbu_1, # of connection points: 5
#     Node 14, Type 0, BuildingBlock: XOMCOT_clean_sbu_1, # of connection points: 5
#     Node 15, Type 0, BuildingBlock: XOMCOT_clean_sbu_1, # of connection points: 5
#     Edge 16, Type (0, 0), BuildingBlock: AJUNOK_clean_linker_0, # of connection points: 2
#     Edge 17, Type (0, 0), BuildingBlock: AJUNOK_clean_linker_0, # of connection points: 2
#     Edge 18, Type (0, 0), BuildingBlock: AJUNOK_clean_linker_0, # of connection points: 2
#     Edge 19, Type (0, 0), BuildingBlock: AJUNOK_clean_linker_0, # of connection points: 2
#     Edge 20, Type (0, 0), BuildingBlock: AJUNOK_clean_linker_0, # of connection points: 2
#     Edge 21, Type (0, 0), BuildingBlock: AJUNOK_clean_linker_0, # of connection points: 2
#     Edge 22, Type (0, 0), BuildingBlock: AJUNOK_clean_linker_0, # of connection points: 2
#     Edge 23, Type (0, 0), BuildingBlock: AJUNOK_clean_linker_0, # of connection points: 2
#     Edge 24, Type (0, 0), BuildingBlock: AJUNOK_clean_linker_0, # of connection points: 2
#     Edge 25, Type (0, 0), BuildingBlock: AJUNOK_clean_linker_0, # of connection points: 2
#     Edge 26, Type (0, 0), BuildingBlock: AJUNOK_clean_linker_0, # of connection points: 2
#     Edge 27, Type (0, 0), BuildingBlock: AJUNOK_clean_linker_0, # of connection points: 2
#     Edge 28, Type (0, 0), BuildingBlock: AJUNOK_clean_linker_0, # of connection points: 2
#     Edge 29, Type (0, 0), BuildingBlock: AJUNOK_clean_linker_0, # of connection points: 2
#     Edge 30, Type (0, 0), BuildingBlock: AJUNOK_clean_linker_0, # of connection points: 2
#     Edge 31, Type (0, 0), BuildingBlock: AJUNOK_clean_linker_0, # of connection points: 2
#     Edge 32, Type (0, 0), BuildingBlock: AJUNOK_clean_linker_0, # of connection points: 2
#     Edge 33, Type (0, 0), BuildingBlock: AJUNOK_clean_linker_0, # of connection points: 2
#     Edge 34, Type (0, 0), BuildingBlock: AJUNOK_clean_linker_0, # of connection points: 2
#     Edge 35, Type (0, 0), BuildingBlock: AJUNOK_clean_linker_0, # of connection points: 2
#     Edge 36, Type (0, 0), BuildingBlock: AJUNOK_clean_linker_0, # of connection points: 2
#     Edge 37, Type (0, 0), BuildingBlock: AJUNOK_clean_linker_0, # of connection points: 2
#     Edge 38, Type (0, 0), BuildingBlock: AJUNOK_clean_linker_0, # of connection points: 2
#     Edge 39, Type (0, 0), BuildingBlock: AJUNOK_clean_linker_0, # of connection points: 2
#     Edge 40, Type (0, 0), BuildingBlock: AJUNOK_clean_linker_0, # of connection points: 2
#     Edge 41, Type (0, 0), BuildingBlock: AJUNOK_clean_linker_0, # of connection points: 2
#     Edge 42, Type (0, 0), BuildingBlock: AJUNOK_clean_linker_0, # of connection points: 2
#     Edge 43, Type (0, 0), BuildingBlock: AJUNOK_clean_linker_0, # of connection points: 2
#     Edge 44, Type (0, 0), BuildingBlock: AJUNOK_clean_linker_0, # of connection points: 2
#     Edge 45, Type (0, 0), BuildingBlock: AJUNOK_clean_linker_0, # of connection points: 2
#     Edge 46, Type (0, 0), BuildingBlock: AJUNOK_clean_linker_0, # of connection points: 2
#     Edge 47, Type (0, 0), BuildingBlock: AJUNOK_clean_linker_0, # of connection points: 2
#     Edge 48, Type (0, 0), BuildingBlock: AJUNOK_clean_linker_0, # of connection points: 2
#     Edge 49, Type (0, 0), BuildingBlock: AJUNOK_clean_linker_0, # of connection points: 2
#     Edge 50, Type (0, 0), BuildingBlock: AJUNOK_clean_linker_0, # of connection points: 2
#     Edge 51, Type (0, 0), BuildingBlock: AJUNOK_clean_linker_0, # of connection points: 2
#     Edge 52, Type (0, 0), BuildingBlock: AJUNOK_clean_linker_0, # of connection points: 2
#     Edge 53, Type (0, 0), BuildingBlock: AJUNOK_clean_linker_0, # of connection points: 2
#     Edge 54, Type (0, 0), BuildingBlock: AJUNOK_clean_linker_0, # of connection points: 2
#     Edge 55, Type (0, 0), BuildingBlock: AJUNOK_clean_linker_0, # of connection points: 2
# Relax obj value: 0.516
# Max RMSD: 0.268
# Mean RMSD: 0.268
data_MOF--net-yfl--node1-XOMCOT_clean_sbu_1--edge1-AJUNOK_clean_linker_0
_symmetry_space_group_name_H-M    P1
_symmetry_Int_Tables_number       1
_symmetry_cell_setting            triclinic
loop_
_symmetry_equiv_pos_as_xyz
'x, y, z'
_cell_length_a     20.53747
_cell_length_b     20.605374
_cell_length_c     87.647445
_cell_angle_alpha  89.95505
_cell_angle_beta   90.07949
_cell_angle_gamma 89.969819
loop_
_atom_site_label
_atom_site_type_symbol
_atom_site_fract_x
_atom_site_fract_y
_atom_site_fract_z
_atom_type_partial_charge
C0 C 0.03151 0.19406 0.26637 0.0
C1 C 0.98593 0.19472 0.2549 0.0
N2 N 0.95808 0.25393 0.25459 0.0
N3 N 0.03253 0.25265 0.27315 0.0
C4 C 0.98662 0.28778 0.26592 0.0
H5 H 0.06391 0.1544 0.26916 0.0
Co6 Co 0.09095 0.27495 0.28809 0.0
C7 C 0.07173 0.41423 0.2959 0.0
O8 O 0.13558 0.41701 0.29528 0.0
N9 N 0.14888 0.29497 0.30375 0.0
C10 C 0.17719 0.32499 0.3271 0.0
C11 C 0.12622 0.31396 0.31751 0.0
C12 C 0.21419 0.29151 0.30554 0.0
N13 N 0.2323 0.3111 0.31956 0.0
O14 O 0.04241 0.21943 0.30209 0.0
H15 H 0.0753 0.31865 0.32045 0.0
H16 H 0.24762 0.27236 0.29718 0.0
O17 O 0.04235 0.3597 0.29309 0.0
C18 C 0.07433 0.16585 0.30325 0.0
O19 O 0.13333 0.16416 0.29748 0.0
N20 N 0.14121 0.31776 0.27312 0.0
C21 C 0.20542 0.35088 0.24627 0.0
C22 C 0.15153 0.38649 0.2511 0.0
C23 C 0.11944 0.36861 0.26442 0.0
C24 C 0.19356 0.28229 0.26839 0.0
C25 C 0.2273 0.29874 0.25509 0.0
H26 H 0.07482 0.39356 0.26701 0.0
H27 H 0.20655 0.23829 0.27438 0.0
H28 H 0.97757 0.33856 0.26815 0.0
H29 H 0.97654 0.15595 0.24687 0.0
H30 H 0.17406 0.33759 0.33907 0.0
H31 H 0.13264 0.4261 0.24425 0.0
H32 H 0.26785 0.26917 0.25134 0.0
C33 C 0.22357 0.06194 0.67444 0.0
C34 C 0.23606 0.1065 0.68576 0.0
N35 N 0.30113 0.11296 0.68719 0.0
N36 N 0.28051 0.04072 0.66871 0.0
C37 C 0.32663 0.07418 0.67632 0.0
H38 H 0.17658 0.04103 0.67183 0.0
Co39 Co 0.29195 0.96254 0.65866 0.0
C40 C 0.40818 0.03674 0.64355 0.0
O41 O 0.37911 0.09221 0.64067 0.0
N42 N 0.30434 0.88354 0.64866 0.0
C43 C 0.32593 0.78136 0.64246 0.0
C44 C 0.31748 0.82403 0.65433 0.0
C45 C 0.30473 0.87563 0.63342 0.0
N46 N 0.31691 0.81381 0.62925 0.0
O47 O 0.23613 0.99392 0.64216 0.0
H48 H 0.32186 0.81206 0.66629 0.0
H49 H 0.29558 0.91484 0.6255 0.0
O50 O 0.37565 0.99082 0.64972 0.0
C51 C 0.18127 0.96439 0.64359 0.0
O52 O 0.17752 0.91756 0.65374 0.0
N53 N 0.33517 0.931 0.67575 0.0
C54 C 0.37764 0.88453 0.70377 0.0
C55 C 0.4227 0.90318 0.69256 0.0
C56 C 0.40041 0.92629 0.67852 0.0
C57 C 0.29095 0.91341 0.68654 0.0
C58 C 0.31108 0.8901 0.70065 0.0
H59 H 0.43561 0.94082 0.6701 0.0
H60 H 0.23949 0.91767 0.68409 0.0
H61 H 0.37805 0.06557 0.6748 0.0
H62 H 0.20027 0.127 0.69343 0.0
H63 H 0.33949 0.73096 0.64365 0.0
H64 H 0.47459 0.90079 0.6947 0.0
H65 H 0.27487 0.87568 0.70896 0.0
C66 C 0.04788 0.88872 0.26566 0.0
C67 C 0.09922 0.88597 0.25563 0.0
N68 N 0.11961 0.82392 0.25473 0.0
N69 N 0.03584 0.82865 0.27103 0.0
C70 C 0.0813 0.79062 0.26446 0.0
H71 H 1.0179 0.9308 0.26786 0.0
Co72 Co 0.96147 0.80476 0.28161 0.0
C73 C 1.00311 0.68753 0.30027 0.0
O74 O 0.9892 0.71611 0.31324 0.0
N75 N 0.8856 0.7798 0.2924 0.0
C76 C 0.79716 0.72589 0.30001 0.0
C77 C 0.83863 0.73741 0.28804 0.0
C78 C 0.87135 0.79259 0.30714 0.0
N79 N 0.81825 0.76057 0.31197 0.0
O80 O 0.99349 0.85565 0.2988 0.0
H81 H 0.8361 0.71281 0.27719 0.0
H82 H 0.9011 0.82182 0.31463 0.0
O83 O 1.00016 0.72013 0.28784 0.0
C84 C 0.96409 0.91066 0.29765 0.0
O85 O 0.9149 0.91433 0.28807 0.0
N86 N 0.92945 0.76702 0.26383 0.0
C87 C 0.87667 0.72819 0.23612 0.0
C88 C 0.925 0.69094 0.24327 0.0
C89 C 0.95091 0.71122 0.25713 0.0
C90 C 0.88402 0.80491 0.25682 0.0
C91 C 0.85612 0.78592 0.24303 0.0
H92 H 0.989 0.68253 0.26217 0.0
H93 H 0.8687 0.84972 0.26214 0.0
H94 H 0.08213 0.73843 0.26553 0.0
H95 H 0.11633 0.92545 0.24854 0.0
H96 H 0.75736 0.69147 0.3002 0.0
H97 H 0.94291 0.64659 0.23813 0.0
H98 H 0.81813 0.8155 0.23801 0.0
C99 C 0.87079 0.95908 0.67078 0.0
C100 C 0.85575 0.91559 0.68214 0.0
N101 N 0.7931 0.92458 0.68604 0.0
N102 N 0.81786 0.99566 0.66772 0.0
C103 C 0.7712 0.97281 0.6771 0.0
H104 H 0.91892 0.96776 0.66627 0.0
Co105 Co 0.81647 0.07356 0.65717 0.0
C106 C 0.69391 1.00508 0.64454 0.0
O107 O 0.71887 0.94639 0.64498 0.0
N108 N 0.81518 0.15079 0.64672 0.0
C109 C 0.83599 0.25056 0.6387 0.0
C110 C 0.83923 0.20897 0.65096 0.0
C111 C 0.79724 0.15786 0.63206 0.0
N112 N 0.80997 0.21776 0.6269 0.0
O113 O 0.86846 0.03484 0.64088 0.0
H114 H 0.85975 0.2197 0.66204 0.0
H115 H 0.77754 0.11912 0.62511 0.0
O116 O 0.72944 0.05346 0.64835 0.0
C117 C 0.92558 0.05882 0.64312 0.0
O118 O 0.93301 0.09983 0.65446 0.0
N119 N 0.77737 0.11353 0.67384 0.0
C120 C 0.73935 0.166 0.70152 0.0
C121 C 0.69333 0.1555 0.68996 0.0
C122 C 0.71358 0.12984 0.67598 0.0
C123 C 0.82256 0.12466 0.68492 0.0
C124 C 0.80465 0.15124 0.69887 0.0
H125 H 0.67785 0.12205 0.66715 0.0
H126 H 0.87286 0.11164 0.68294 0.0
H127 H 0.72433 0.99586 0.67864 0.0
H128 H 0.88988 0.88494 0.68822 0.0
H129 H 0.85141 0.30078 0.63844 0.0
H130 H 0.64243 0.16701 0.69174 0.0
H131 H 0.84117 0.15879 0.70762 0.0
C132 C 0.05742 0.36522 0.92924 0.0
C133 C 1.01718 0.37267 0.9416 0.0
N134 N 0.9755 0.32224 0.94189 0.0
N135 N 0.04158 0.31014 0.92187 0.0
C136 C 0.99065 0.28562 0.92964 0.0
H137 H 0.0973 0.39673 0.92609 0.0
Co138 Co 0.0872 0.28223 0.90505 0.0
C139 C 0.05607 0.1443 0.8991 0.0
O140 O 0.11928 0.13935 0.89705 0.0
N141 N 0.13217 0.25891 0.88737 0.0
C142 C 0.14008 0.23761 0.8626 0.0
C143 C 0.0994 0.23853 0.87485 0.0
C144 C 0.19253 0.27292 0.88219 0.0
N145 N 0.19832 0.25933 0.86723 0.0
O146 O 0.03303 0.33873 0.89275 0.0
H147 H 0.04757 0.22959 0.87436 0.0
H148 H 0.22896 0.29901 0.88861 0.0
O149 O 0.03112 0.20065 0.90233 0.0
C150 C 0.06454 0.39165 0.8905 0.0
O151 O 0.12592 0.39332 0.89473 0.0
N152 N 0.143 0.23461 0.91831 0.0
C153 C 0.21808 0.18024 0.9417 0.0
C154 C 0.153 0.16275 0.9398 0.0
C155 C 0.11639 0.19084 0.92829 0.0
C156 C 0.20573 0.2547 0.92044 0.0
C157 C 0.24458 0.22751 0.932 0.0
H158 H 0.06551 0.17865 0.92796 0.0
H159 H 0.22482 0.2944 0.91381 0.0
H160 H 0.96807 0.23968 0.92701 0.0
H161 H 1.02039 0.41046 0.95014 0.0
H162 H 0.12657 0.22759 0.85089 0.0
H163 H 0.12938 0.12943 0.9476 0.0
H164 H 0.2941 0.2443 0.93356 0.0
C165 C 0.37135 1.01324 0.01374 0.0
C166 C 0.37848 0.0468 0.00028 0.0
N167 N 0.32195 0.07704 -0.00272 0.0
N168 N 0.31033 1.02183 0.01907 0.0
C169 C 0.28137 0.06105 0.00875 0.0
H170 H 0.40721 0.98148 0.01884 0.0
Co171 Co 0.27699 0.97795 0.03582 0.0
C172 C 0.15587 0.08046 0.03928 0.0
O173 O 0.17029 0.14257 0.03943 0.0
N174 N 0.24535 0.93424 0.05284 0.0
C175 C 0.20639 0.91901 0.07614 0.0
C176 C 0.21488 0.9631 0.06468 0.0
C177 C 0.25707 0.87301 0.05767 0.0
N178 N 0.23294 0.8625 0.07175 0.0
O179 O 0.33572 1.02724 0.04878 0.0
H180 H 0.20349 1.01415 0.06546 0.0
H181 H 0.28764 0.83881 0.05165 0.0
O182 O 0.20313 0.03993 0.03793 0.0
C183 C 0.38678 0.99299 0.05141 0.0
O184 O 0.38541 0.93172 0.0473 0.0
N185 N 0.22837 0.92617 0.02256 0.0
C186 C 0.18776 0.85441 -0.00258 0.0
C187 C 0.15428 0.91056 0.00175 0.0
C188 C 0.17586 0.94631 0.01421 0.0
C189 C 0.26026 0.87044 0.01878 0.0
C190 C 0.2406 0.83348 0.00625 0.0
H191 H 0.15244 0.99204 0.01633 0.0
H192 H 0.30392 0.85692 0.02491 0.0
H193 H 0.2304 0.07423 0.00902 0.0
H194 H 0.42015 0.0454 -0.00727 0.0
H195 H 0.18823 0.92937 0.08748 0.0
H196 H 0.11391 0.92879 -0.00498 0.0
H197 H 0.26757 0.79018 0.00324 0.0
C198 C 0.03645 0.67168 0.92944 0.0
C199 C 0.08677 0.67634 0.9397 0.0
N200 N 0.10201 0.73938 0.94134 0.0
N201 N 1.01947 0.73163 0.92472 0.0
C202 C 0.06151 0.77166 0.93188 0.0
H203 H 1.00967 0.62795 0.92681 0.0
Co204 Co 0.94241 0.74715 0.9143 0.0
C205 C 0.93921 0.88665 0.90515 0.0
O206 O 0.87679 0.8837 0.90832 0.0
N207 N 0.86471 0.75928 0.90345 0.0
C208 C 0.76455 0.75632 0.89375 0.0
C209 C 0.80141 0.74731 0.90671 0.0
C210 C 0.86486 0.77488 0.88852 0.0
N211 N 0.805 0.77415 0.88249 0.0
O212 O 0.97622 0.6964 0.89741 0.0
H213 H 0.78284 0.7298 0.91745 0.0
H214 H 0.90864 0.78411 0.882 0.0
O215 O 0.97456 0.83467 0.90634 0.0
C216 C 0.94781 0.64094 0.89806 0.0
O217 O 0.90042 0.63383 0.90798 0.0
N218 N 0.90828 0.78671 0.93186 0.0
C219 C 0.84425 0.83427 0.95723 0.0
C220 C 0.89408 0.87022 0.95049 0.0
C221 C 0.92641 0.84506 0.93795 0.0
C222 C 0.86651 0.74755 0.93968 0.0
C223 C 0.83251 0.77092 0.95229 0.0
H224 H 0.9648 0.87388 0.93314 0.0
H225 H 0.85779 0.69862 0.93572 0.0
H226 H 0.05856 0.82391 0.93149 0.0
H227 H 0.10488 0.63745 0.94686 0.0
H228 H 0.71274 0.74814 0.89252 0.0
H229 H 0.90668 0.91817 0.95462 0.0
H230 H 0.79592 0.74095 0.95772 0.0
C231 C 0.66185 0.05327 0.01527 0.0
C232 C 0.65607 1.00531 0.00448 0.0
N233 N 0.71249 0.97221 0.00414 0.0
N234 N 0.72179 0.05032 0.02153 0.0
C235 C 0.75129 1.00004 0.01462 0.0
H236 H 0.62616 0.09041 0.0177 0.0
Co237 Co 0.75455 0.11035 0.03492 0.0
C238 C 0.87467 1.01485 0.04394 0.0
O239 O 0.85494 0.95794 0.04884 0.0
N240 N 0.78821 0.17142 0.04873 0.0
C241 C 0.85252 0.24293 0.06036 0.0
C242 C 0.83665 0.21504 0.04665 0.0
C243 C 0.77543 0.17451 0.06381 0.0
N244 N 0.81413 0.21689 0.07116 0.0
O245 O 0.69856 0.07212 0.05031 0.0
H246 H 0.86116 0.22495 0.03601 0.0
H247 H 0.73801 0.14669 0.06936 0.0
O248 O 0.83158 0.05678 0.04002 0.0
C249 C 0.64543 0.10507 0.05042 0.0
O250 O 0.64583 0.16183 0.04355 0.0
N251 N 0.79878 0.14898 0.01889 0.0
C252 C 0.846 0.21231 -0.00662 0.0
C253 C 0.87778 0.15721 -0.00102 0.0
C254 C 0.85271 0.12537 0.01168 0.0
C255 C 0.76664 0.20188 0.01335 0.0
C256 C 0.78964 0.23467 0.00054 0.0
H257 H 0.87612 0.08134 0.0154 0.0
H258 H 0.72271 0.21836 0.01893 0.0
H259 H 0.80203 0.98759 0.01618 0.0
H260 H 0.61571 0.99844 -0.00331 0.0
H261 H 0.89011 0.27883 0.06225 0.0
H262 H 0.92104 0.13854 -0.00656 0.0
H263 H 0.76407 0.27707 -0.00367 0.0
C264 C 0.5015 0.70748 0.77683 0.0
C265 C 0.45558 0.71517 0.76556 0.0
N266 N 0.45375 0.77834 0.76169 0.0
N267 N 0.52848 0.7656 0.77997 0.0
C268 C 0.49743 0.80794 0.77074 0.0
H269 H 0.51921 0.66152 0.78107 0.0
Co270 Co 0.60714 0.77789 0.78985 0.0
C271 C 0.5303 0.89712 0.80281 0.0
O272 O 0.4723 0.87047 0.80349 0.0
N273 N 0.6855 0.79061 0.79965 0.0
C274 C 0.78851 0.78588 0.80719 0.0
C275 C 0.74705 0.77978 0.79489 0.0
C276 C 0.69059 0.80434 0.81456 0.0
N277 N 0.75243 0.80166 0.81942 0.0
O278 O 0.5763 0.72298 0.80666 0.0
H279 H 0.76031 0.76356 0.78359 0.0
H280 H 0.64908 0.81025 0.82204 0.0
O281 O 0.57857 0.86274 0.79835 0.0
C282 C 0.6068 0.66852 0.80545 0.0
O283 O 0.65384 0.66486 0.79534 0.0
N284 N 0.63936 0.81924 0.77271 0.0
C285 C 0.68539 0.85937 0.74447 0.0
C286 C 0.66736 0.90501 0.75558 0.0
C287 C 0.64517 0.88396 0.76977 0.0
C288 C 0.65638 0.77431 0.76207 0.0
C289 C 0.67977 0.79322 0.7479 0.0
H290 H 0.63167 0.91977 0.77811 0.0
H291 H 0.65144 0.72323 0.76469 0.0
H292 H 0.51246 0.85785 0.76922 0.0
H293 H 0.43121 0.67654 0.75943 0.0
H294 H 0.83991 0.77426 0.80743 0.0
H295 H 0.66976 0.95648 0.75336 0.0
H296 H 0.69389 0.75626 0.73977 0.0
C297 C 0.68176 0.57001 0.17047 0.0
C298 C 0.69293 0.62324 0.17957 0.0
N299 N 0.75752 0.62848 0.18178 0.0
N300 N 0.73921 0.54173 0.16715 0.0
C301 C 0.78434 0.57913 0.17397 0.0
H302 H 0.6346 0.54975 0.16778 0.0
Co303 Co 0.75087 0.46026 0.15892 0.0
C304 C 0.88748 0.46028 0.14483 0.0
O305 O 0.88847 0.39665 0.14523 0.0
N306 N 0.76111 0.37744 0.15058 0.0
C307 C 0.78279 0.27362 0.1459 0.0
C308 C 0.7726 0.31909 0.15713 0.0
C309 C 0.76217 0.3656 0.13549 0.0
N310 N 0.77649 0.30339 0.1323 0.0
O311 O 0.69493 0.48583 0.14194 0.0
H312 H 0.77672 0.31006 0.16922 0.0
H313 H 0.75609 0.40303 0.12695 0.0
O314 O 0.83524 0.49055 0.14903 0.0
C315 C 0.63948 0.4581 0.14383 0.0
O316 O 0.63441 0.41532 0.1549 0.0
N317 N 0.79456 0.43471 0.17666 0.0
C318 C 0.83841 0.38238 0.20391 0.0
C319 C 0.88221 0.41116 0.19377 0.0
C320 C 0.8592 0.43812 0.18026 0.0
C321 C 0.75087 0.41127 0.18698 0.0
C322 C 0.77179 0.38429 0.20072 0.0
H323 H 0.89382 0.46207 0.17308 0.0
H324 H 0.69957 0.41105 0.18417 0.0
H325 H 0.83529 0.56636 0.17476 0.0
H326 H 0.65627 0.65095 0.18559 0.0
H327 H 0.79762 0.22382 0.14769 0.0
H328 H 0.93395 0.41216 0.19622 0.0
H329 H 0.73669 0.36279 0.20842 0.0
C330 C 0.61922 0.35403 0.77408 0.0
C331 C 0.66425 0.33749 0.76317 0.0
N332 N 0.65443 0.2751 0.75888 0.0
N333 N 0.58122 0.3024 0.7769 0.0
C334 C 0.60444 0.25515 0.76779 0.0
H335 H 0.61141 0.40212 0.77865 0.0
Co336 Co 0.50104 0.30198 0.78671 0.0
C337 C 0.56737 0.18133 0.80112 0.0
O338 O 0.62672 0.20506 0.80086 0.0
N339 N 0.4215 0.30144 0.7963 0.0
C340 C 0.31733 0.31386 0.80193 0.0
C341 C 0.36228 0.31414 0.79036 0.0
C342 C 0.41175 0.29363 0.81137 0.0
N343 N 0.34877 0.30123 0.8151 0.0
O344 O 0.53663 0.3567 0.80304 0.0
H345 H 0.35257 0.32459 0.77849 0.0
H346 H 0.45067 0.28544 0.81948 0.0
O347 O 0.51996 0.21691 0.7966 0.0
C348 C 0.51188 0.41352 0.80099 0.0
O349 O 0.4699 0.42091 0.78979 0.0
N350 N 0.46434 0.25949 0.76997 0.0
C351 C 0.41426 0.21404 0.74253 0.0
C352 C 0.42149 0.17208 0.75505 0.0
C353 C 0.44616 0.19596 0.7688 0.0
C354 C 0.45641 0.301 0.758 0.0
C355 C 0.43121 0.27935 0.74416 0.0
H356 H 0.45095 0.16323 0.77832 0.0
H357 H 0.47037 0.35134 0.75925 0.0
H358 H 0.58027 0.20917 0.76697 0.0
H359 H 0.69817 0.37123 0.75812 0.0
H360 H 0.26559 0.32272 0.80077 0.0
H361 H 0.40769 0.12146 0.75423 0.0
H362 H 0.42602 0.31308 0.73475 0.0
C363 C 0.36637 0.49731 0.17353 0.0
C364 C 0.36627 0.45249 0.18509 0.0
N365 N 0.30409 0.44094 0.18901 0.0
N366 N 0.30454 0.51412 0.17012 0.0
C367 C 0.26747 0.47837 0.17967 0.0
H368 H 0.40917 0.52055 0.16891 0.0
Co369 Co 0.28665 0.58707 0.15844 0.0
C370 C 0.1461 0.58425 0.14872 0.0
O371 O 0.14837 0.64759 0.15007 0.0
N372 N 0.2727 0.66198 0.14658 0.0
C373 C 0.27126 0.76378 0.13823 0.0
C374 C 0.27491 0.72497 0.15089 0.0
C375 C 0.26707 0.66409 0.13119 0.0
N376 N 0.26677 0.72539 0.1259 0.0
O377 O 0.33539 0.5477 0.14176 0.0
H378 H 0.28088 0.74264 0.16236 0.0
H379 H 0.26627 0.62154 0.12396 0.0
O380 O 0.1984 0.55106 0.15155 0.0
C381 C 0.39109 0.5756 0.14045 0.0
O382 O 0.40016 0.6304 0.14781 0.0
N383 N 0.25041 0.62624 0.17584 0.0
C384 C 0.2211 0.68838 0.20308 0.0
C385 C 0.17416 0.65048 0.19573 0.0
C386 C 0.19023 0.61839 0.18223 0.0
C387 C 0.29776 0.65915 0.18356 0.0
C388 C 0.28392 0.69166 0.19711 0.0
H389 H 0.15463 0.58615 0.1774 0.0
H390 H 0.34641 0.66145 0.17886 0.0
H391 H 0.21544 0.48454 0.18088 0.0
H392 H 0.40866 0.43392 0.19102 0.0
H393 H 0.27329 0.81629 0.13804 0.0
H394 H 0.12569 0.64543 0.20045 0.0
H395 H 0.32148 0.7198 0.20273 0.0
C396 C 0.54006 0.87466 0.4272 0.0
C397 C 0.49325 0.87585 0.43836 0.0
N398 N 0.46383 0.81756 0.43863 0.0
N399 N 0.54052 0.81561 0.42059 0.0
C400 C 0.49272 0.78222 0.42763 0.0
H401 H 0.57524 0.91249 0.425 0.0
Co402 Co 0.60612 0.78755 0.40776 0.0
C403 C 0.553 0.6715 0.39057 0.0
O404 O 0.56749 0.69734 0.37731 0.0
N405 N 0.67355 0.75906 0.39474 0.0
C406 C 0.75154 0.69893 0.38406 0.0
C407 C 0.71481 0.70854 0.39695 0.0
C408 C 0.68627 0.77878 0.38034 0.0
N409 N 0.7326 0.74276 0.37363 0.0
O410 O 0.56737 0.84096 0.39185 0.0
H411 H 0.71641 0.67811 0.40699 0.0
H412 H 0.66058 0.81708 0.37448 0.0
O413 O 0.55903 0.7056 0.40273 0.0
C414 C 0.59845 0.89512 0.39258 0.0
O415 O 0.6523 0.89637 0.4007 0.0
N416 N 0.64526 0.74667 0.42428 0.0
C417 C 0.70785 0.70255 0.45025 0.0
C418 C 0.65373 0.66942 0.44456 0.0
C419 C 0.6222 0.69301 0.43165 0.0
C420 C 0.69729 0.78008 0.42988 0.0
C421 C 0.7296 0.75875 0.44294 0.0
H422 H 0.57848 0.66891 0.42797 0.0
H423 H 0.71335 0.82379 0.42418 0.0
H424 H 0.48378 0.73101 0.42592 0.0
H425 H 0.48572 0.9142 0.44661 0.0
H426 H 0.78688 0.66076 0.38219 0.0
H427 H 0.63521 0.62654 0.45025 0.0
H428 H 0.77106 0.78555 0.44726 0.0
C429 C 0.86726 0.52081 0.51898 0.0
C430 C 0.87243 0.55771 0.50599 0.0
N431 N 0.81589 0.58961 0.50406 0.0
N432 N 0.80747 0.52908 0.52501 0.0
C433 C 0.77727 0.57143 0.51569 0.0
H434 H 0.90336 0.4872 0.52327 0.0
Co435 Co 0.77579 0.48117 0.54102 0.0
C436 C 0.6537 0.58118 0.54565 0.0
O437 O 0.66974 0.64278 0.54652 0.0
N438 N 0.74531 0.43332 0.55728 0.0
C439 C 0.7074 0.4105 0.5803 0.0
C440 C 0.71445 0.45801 0.56957 0.0
C441 C 0.75854 0.37126 0.56103 0.0
N442 N 0.73567 0.35628 0.57499 0.0
O443 O 0.83321 0.52944 0.55449 0.0
H444 H 0.70189 0.50846 0.57116 0.0
H445 H 0.78966 0.3398 0.55436 0.0
O446 O 0.69956 0.53952 0.54382 0.0
C447 C 0.88556 0.49618 0.5564 0.0
O448 O 0.88446 0.43498 0.55222 0.0
N449 N 0.72959 0.43063 0.52707 0.0
C450 C 0.69424 0.3667 0.50021 0.0
C451 C 0.65292 0.41301 0.50687 0.0
C452 C 0.67253 0.44609 0.51994 0.0
C453 C 0.76867 0.38324 0.52131 0.0
C454 C 0.7528 0.35174 0.50773 0.0
H455 H 0.64348 0.48661 0.52349 0.0
H456 H 0.81544 0.37407 0.52658 0.0
H457 H 0.72645 0.58467 0.51665 0.0
H458 H 0.913 0.55842 0.49811 0.0
H459 H 0.68984 0.41725 0.59184 0.0
H460 H 0.60705 0.42622 0.50161 0.0
H461 H 0.78816 0.31898 0.50282 0.0
C462 C 0.5371 0.19124 0.43081 0.0
C463 C 0.57804 0.19569 0.44307 0.0
N464 N 0.60292 0.25626 0.44355 0.0
N465 N 0.53507 0.24869 0.42357 0.0
C466 C 0.57619 0.28735 0.43141 0.0
H467 H 0.50607 0.1504 0.42818 0.0
Co468 Co 0.47113 0.26289 0.40925 0.0
C469 C 0.48239 0.39786 0.39683 0.0
O470 O 0.41847 0.3978 0.39708 0.0
N471 N 0.40585 0.27258 0.3947 0.0
C472 C 0.31413 0.26755 0.38135 0.0
C473 C 0.34057 0.26523 0.39573 0.0
C474 C 0.41782 0.27885 0.37962 0.0
N475 N 0.36304 0.27574 0.37139 0.0
O476 O 0.51724 0.20469 0.39532 0.0
H477 H 0.3135 0.25653 0.40605 0.0
H478 H 0.46594 0.2843 0.37475 0.0
O479 O 0.51383 0.34688 0.4015 0.0
C480 C 0.48702 0.14997 0.39524 0.0
O481 O 0.43151 0.14642 0.40264 0.0
N482 N 0.42402 0.3091 0.42412 0.0
C483 C 0.35851 0.35367 0.44989 0.0
C484 C 0.40565 0.39227 0.4428 0.0
C485 C 0.43918 0.3684 0.43017 0.0
C486 C 0.38006 0.27014 0.43132 0.0
C487 C 0.3459 0.29177 0.44408 0.0
H488 H 0.47934 0.39661 0.42595 0.0
H489 H 0.37273 0.22103 0.42733 0.0
H490 H 0.58252 0.33837 0.42894 0.0
H491 H 0.58296 0.15892 0.45179 0.0
H492 H 0.26316 0.26291 0.37836 0.0
H493 H 0.41839 0.43941 0.44739 0.0
H494 H 0.31056 0.26015 0.44944 0.0
C495 C 0.16914 0.52356 0.51585 0.0
C496 C 0.17185 0.47774 0.50447 0.0
N497 N 0.234 0.45808 0.50309 0.0
N498 N 0.22959 0.53328 0.52141 0.0
C499 C 0.26796 0.49218 0.5135 0.0
H500 H 0.127 0.55231 0.51883 0.0
Co501 Co 0.25353 0.60322 0.53336 0.0
C502 C 0.37191 0.5183 0.54646 0.0
O503 O 0.34905 0.46229 0.55119 0.0
N504 N 0.27917 0.67409 0.54556 0.0
C505 C 0.33329 0.75886 0.55481 0.0
C506 C 0.31619 0.72596 0.54182 0.0
C507 C 0.27412 0.67745 0.5609 0.0
N508 N 0.30704 0.72812 0.56689 0.0
O509 O 0.19678 0.56989 0.54938 0.0
H510 H 0.33279 0.73831 0.53051 0.0
H511 H 0.247 0.64285 0.56753 0.0
O512 O 0.33254 0.55982 0.54074 0.0
C513 C 0.14366 0.60284 0.5491 0.0
O514 O 0.14197 0.65469 0.54036 0.0
N515 N 0.29858 0.63686 0.51676 0.0
C516 C 0.34653 0.69399 0.4904 0.0
C517 C 0.38593 0.65257 0.49912 0.0
C518 C 0.36087 0.62392 0.51225 0.0
C519 C 0.25923 0.67584 0.50822 0.0
C520 C 0.28233 0.70531 0.49499 0.0
H521 H 0.39154 0.59104 0.51853 0.0
H522 H 0.20968 0.68447 0.51186 0.0
H523 H 0.32058 0.49238 0.51412 0.0
H524 H 0.13255 0.46443 0.49685 0.0
H525 H 0.36463 0.80099 0.55528 0.0
H526 H 0.43559 0.64219 0.49574 0.0
H527 H 0.25077 0.73757 0.4886 0.0
C528 C 0.29133 0.40451 0.23082 0.0
C529 C 0.23509 0.3661 0.23145 0.0
C530 C 0.31508 0.4269 0.2168 0.0
C531 C 0.283 0.41179 0.20304 0.0
H532 H 0.31557 0.41923 0.24124 0.0
H533 H 0.35716 0.45853 0.21677 0.0
S534 S 0.13704 0.30819 0.19868 0.0
N535 N 0.15015 0.31044 0.21729 0.0
N536 N 0.19496 0.35281 0.19086 0.0
C537 C 0.22806 0.37159 0.20353 0.0
C538 C 0.20405 0.34859 0.21778 0.0
C539 C 0.38891 0.85447 0.74639 0.0
C540 C 0.43369 0.8033 0.74722 0.0
C541 C 0.37144 0.88115 0.73225 0.0
C542 C 0.3992 0.85798 0.7186 0.0
H543 H 0.36738 0.87359 0.75672 0.0
H544 H 0.33631 0.92039 0.732 0.0
S545 S 0.52249 0.72729 0.71513 0.0
N546 N 0.50816 0.73268 0.73362 0.0
N547 N 0.47498 0.78193 0.70697 0.0
C548 C 0.44524 0.80767 0.71942 0.0
C549 C 0.46257 0.78048 0.73377 0.0
C550 C 0.79733 0.61518 0.20779 0.0
C551 C 0.78639 0.65544 0.19515 0.0
C552 C 0.82642 0.6394 0.22099 0.0
C553 C 0.84592 0.7047 0.22192 0.0
H554 H 0.78302 0.56459 0.20741 0.0
H555 H 0.83316 0.60683 0.23058 0.0
S556 S 0.83004 0.82851 0.19135 0.0
N557 N 0.79751 0.76225 0.18395 0.0
N558 N 0.85402 0.80861 0.20875 0.0
C559 C 0.83546 0.74537 0.20922 0.0
C560 C 0.80528 0.72046 0.1958 0.0
C561 C 0.72183 0.27812 0.73533 0.0
C562 C 0.6807 0.24332 0.74536 0.0
C563 C 0.74099 0.25259 0.72124 0.0
C564 C 0.71955 0.19144 0.71649 0.0
H565 H 0.73885 0.32627 0.73802 0.0
H566 H 0.77178 0.2815 0.71386 0.0
S567 S 0.62324 0.0736 0.73878 0.0
N568 N 0.62864 0.13791 0.74989 0.0
N569 N 0.66248 0.09281 0.72303 0.0
C570 C 0.6818 0.15423 0.72643 0.0
C571 C 0.66309 0.17932 0.74097 0.0
C572 C 0.30794 0.16825 -0.02058 0.0
C573 C 0.30255 0.10186 -0.01726 0.0
C574 C 0.2843 0.19326 0.96556 0.0
C575 C 0.25469 0.15231 0.95472 0.0
H576 H 0.32865 0.20095 -0.01221 0.0
H577 H 0.2862 0.24518 0.96366 0.0
S578 S 0.23426 0.97391 0.95791 0.0
N579 N 0.26926 0.99536 -0.02588 0.0
N580 N 0.22598 0.04141 0.94793 0.0
C581 C 0.25213 0.08527 0.95776 0.0
C582 C 0.27569 0.06026 0.97184 0.0
C583 C 0.08157 0.7784 0.96715 0.0
C584 C 0.12572 0.76602 0.95531 0.0
C585 C 0.10256 0.80517 -0.01907 0.0
C586 C 0.16851 0.82028 -0.01669 0.0
H587 H 1.03034 0.76764 0.96562 0.0
H588 H 0.06685 0.8147 -0.01026 0.0
S589 S 0.30277 0.79746 0.95552 0.0
N590 N 0.23737 0.77035 0.94655 0.0
N591 N 0.27783 0.82129 -0.02745 0.0
C592 C 0.21334 0.80723 0.97155 0.0
C593 C 0.19163 0.78003 0.95748 0.0
C594 C 0.79876 0.83922 -0.01643 0.0
C595 C 0.80293 0.86507 0.96877 0.0
C596 C 0.76608 0.87322 -0.00492 0.0
C597 C 0.73571 0.93282 -0.00806 0.0
H598 H 0.82342 0.79428 -0.01361 0.0
H599 H 0.76617 0.85415 0.0066 0.0
S600 S 0.73142 1.01947 0.95493 0.0
N601 N 0.77257 0.95224 0.95145 0.0
N602 N 0.71116 1.01587 -0.02687 0.0
C603 C 0.73755 0.95771 -0.02293 0.0
C604 C 0.77121 0.92375 0.96545 0.0
C605 C 0.93005 0.28327 -0.01787 0.0
C606 C 0.87313 0.24677 -0.01977 0.0
C607 C 0.96131 0.31083 0.96957 0.0
C608 C 0.937 0.30203 0.9547 0.0
H609 H 0.9515 0.2889 -0.00664 0.0
H610 H 1.00666 0.33634 0.97146 0.0
S611 S 0.78616 0.21417 0.94405 0.0
N612 N 0.79106 0.2059 0.96277 0.0
N613 N 0.85005 0.25784 0.93896 0.0
C614 C 0.87852 0.26757 0.95276 0.0
C615 C 0.84643 0.23988 0.96561 0.0
C616 C 0.69111 0.84645 0.7161 0.0
C617 C 0.71099 0.87962 0.7294 0.0
C618 C 0.71818 0.86113 0.70186 0.0
C619 C 0.76581 0.90924 0.70054 0.0
H620 H 0.65451 0.80873 0.71671 0.0
H621 H 0.70228 0.8347 0.69186 0.0
S622 S 0.83156 1.01369 0.73118 0.0
N623 N 0.7801 0.96475 0.73996 0.0
N624 N 0.82895 0.9931 0.713 0.0
C625 C 0.78458 0.94427 0.71349 0.0
C626 C 0.75755 0.92935 0.72799 0.0
C627 C 0.90816 0.29628 0.21485 0.0
C628 C 0.86338 0.34673 0.21719 0.0
C629 C 0.9364 0.2639 0.22717 0.0
C630 C 0.92114 0.28121 0.24225 0.0
H631 H 0.92236 0.28259 0.20339 0.0
H632 H 0.9727 0.22714 0.22484 0.0
S633 S 0.80396 0.40806 0.25434 0.0
N634 N 0.80278 0.41121 0.2355 0.0
N635 N 0.85583 0.34976 0.25885 0.0
C636 C 0.87472 0.33025 0.24474 0.0
C637 C 0.84569 0.36311 0.23214 0.0
C638 C 0.30779 0.19592 0.70742 0.0
C639 C 0.33429 0.14107 0.70014 0.0
C640 C 0.33464 0.2201 0.72098 0.0
C641 C 0.38872 0.18998 0.72782 0.0
H642 H 0.26529 0.21972 0.7027 0.0
H643 H 0.31191 0.26162 0.72637 0.0
S644 S 0.47911 0.04745 0.71324 0.0
N645 N 0.41954 0.05847 0.70086 0.0
N646 N 0.47042 0.10539 0.72605 0.0
C647 C 0.41702 0.13652 0.72051 0.0
C648 C 0.38982 0.11175 0.70673 0.0
C649 C 0.16876 0.78448 0.21472 0.0
C650 C 0.2033 0.72636 0.21661 0.0
C651 C 0.14525 0.81861 0.22734 0.0
C652 C 0.15505 0.79534 0.24228 0.0
H653 H 0.15811 0.80252 0.20336 0.0
H654 H 0.116 0.86147 0.22531 0.0
S655 S 0.24741 0.64766 0.25316 0.0
N656 N 0.2501 0.64863 0.23431 0.0
N657 N 0.20577 0.71285 0.25821 0.0
C658 C 0.19217 0.73859 0.24429 0.0
C659 C 0.21636 0.70401 0.2314 0.0
C660 C 0.8018 0.59168 0.47632 0.0
C661 C 0.79478 0.62219 0.49054 0.0
C662 C 0.77463 0.61899 0.46318 0.0
C663 C 0.74084 0.67809 0.4639 0.0
H664 H 0.82605 0.54514 0.4755 0.0
H665 H 0.77894 0.59328 0.45245 0.0
S666 S 0.71156 0.778 0.49829 0.0
N667 N 0.75318 0.71472 0.5046 0.0
N668 N 0.70307 0.76723 0.47971 0.0
C669 C 0.73519 0.71007 0.47795 0.0
C670 C 0.76193 0.6817 0.49136 0.0
C671 C 0.62501 0.35079 0.46011 0.0
C672 C 0.63542 0.2851 0.45651 0.0
C673 C 0.64639 0.37688 0.47396 0.0
C674 C 0.67761 0.33817 0.48505 0.0
H675 H 0.59775 0.38206 0.45252 0.0
H676 H 0.63704 0.42782 0.47607 0.0
S677 S 0.72478 0.1652 0.48033 0.0
N678 N 0.68831 0.18443 0.46417 0.0
N679 N 0.72203 0.23134 0.4909 0.0
C680 C 0.69125 0.27312 0.48129 0.0
C681 C 0.67164 0.24719 0.46689 0.0
C682 C 0.26065 0.4628 0.4759 0.0
C683 C 0.26167 0.42894 0.4898 0.0
C684 C 0.29178 0.43777 0.46299 0.0
C685 C 0.32418 0.37771 0.46356 0.0
H686 H 0.23688 0.50964 0.47517 0.0
H687 H 0.29069 0.46562 0.4525 0.0
S688 S 0.34098 0.27117 0.49747 0.0
N689 N 0.29785 0.33366 0.50361 0.0
N690 N 0.35582 0.28535 0.47924 0.0
C691 C 0.32489 0.34314 0.47741 0.0
C692 C 0.29387 0.36921 0.49059 0.0
C693 C 0.43228 0.76198 0.47846 0.0
C694 C 0.37368 0.72741 0.47696 0.0
C695 C 0.46014 0.79329 0.46594 0.0
C696 C 0.43067 0.7906 0.45149 0.0
H697 H 0.45683 0.7647 0.48939 0.0
H698 H 0.5061 0.81825 0.46744 0.0
S699 S 0.27728 0.70677 0.44149 0.0
N700 N 0.28672 0.69271 0.45993 0.0
N701 N 0.34031 0.75139 0.43626 0.0
C702 C 0.3721 0.75661 0.4498 0.0
C703 C 0.34313 0.72522 0.4626 0.0
C704 C 0.97632 0.09251 0.30422 0.0
C705 C 0.04307 0.10202 0.30684 0.0
C706 C 0.95025 0.02958 0.30282 0.0
C707 C 0.98969 0.97333 0.3039 0.0
H708 H 0.94491 0.13368 0.30197 0.0
H709 H 0.89929 1.02532 0.29978 0.0
S710 S 0.16507 0.97169 0.31385 0.0
N711 N 0.14612 0.04953 0.31305 0.0
N712 N 0.09717 0.93193 0.31005 0.0
C713 C 0.05503 0.9821 0.30811 0.0
C714 C 0.08161 0.04622 0.30964 0.0
C715 C 0.06478 0.9448 0.63663 0.0
C716 C 0.11845 0.98791 0.63698 0.0
C717 C 1.00007 0.96747 0.6362 0.0
C718 C 0.98668 0.03422 0.6361 0.0
H719 H 0.07258 0.8932 0.63817 0.0
H720 H 0.96087 0.93293 0.63774 0.0
S721 S 0.10866 0.16668 0.63329 0.0
N722 N 0.15303 0.09996 0.63446 0.0
N723 N 0.03195 0.14261 0.63348 0.0
C724 C 0.03973 0.07719 0.63433 0.0
C725 C 0.10555 0.05412 0.63481 0.0
C726 C 0.9365 0.5234 0.89174 0.0
C727 C 0.9743 0.58067 0.89102 0.0
C728 C 0.96453 0.46168 0.89 0.0
C729 C 0.03151 0.45473 0.88732 0.0
H730 H 0.88554 0.52582 0.89488 0.0
H731 H 0.93446 0.41937 0.89202 0.0
S732 S 0.1486 0.58933 0.88043 0.0
N733 N 0.0797 0.62644 0.88468 0.0
N734 N 0.13236 0.51087 0.88093 0.0
C735 C 0.06808 0.51177 0.88459 0.0
C736 C 0.03951 0.57468 0.88653 0.0
C737 C 0.52445 0.11618 0.05352 0.0
C738 C 0.58075 0.07682 0.05463 0.0
C739 C 0.46134 0.08965 0.05371 0.0
C740 C 0.45154 1.02248 0.05514 0.0
H741 H 0.52895 0.16789 0.05157 0.0
H742 H 0.42033 0.12169 0.05177 0.0
S743 S 0.58162 0.89918 0.06133 0.0
N744 N 0.62168 0.96802 0.05921 0.0
N745 N 0.50369 0.91806 0.05998 0.0
C746 C 0.50716 0.98325 0.05772 0.0
C747 C 0.57151 1.01035 0.05739 0.0
C748 C 0.49165 0.52768 0.80932 0.0
C749 C 0.53478 0.47415 0.80863 0.0
C750 C 0.51445 0.59194 0.81067 0.0
C751 C 0.58146 0.60517 0.81123 0.0
H752 H 0.44006 0.52039 0.80738 0.0
H753 H 0.47986 0.63134 0.80949 0.0
S754 S 0.71361 0.4821 0.81344 0.0
N755 N 0.64664 0.43857 0.81144 0.0
N756 N 0.68983 0.55867 0.8139 0.0
C757 C 0.62427 0.55163 0.81261 0.0
C758 C 0.60093 0.48624 0.81132 0.0
C759 C 0.57046 0.54921 0.13374 0.0
C760 C 0.57766 0.48292 0.13705 0.0
C761 C 0.50826 0.57764 0.13284 0.0
C762 C 0.45092 0.54103 0.13524 0.0
H763 H 0.61278 0.58053 0.13338 0.0
H764 H 0.5054 0.62991 0.13165 0.0
S765 S 0.4435 0.36276 0.14048 0.0
N766 N 0.52213 0.37919 0.13973 0.0
N767 N 0.4058 0.43291 0.13823 0.0
C768 C 0.45744 0.47345 0.13652 0.0
C769 C 0.52073 0.44442 0.13742 0.0
C770 C 0.5024 0.96865 0.3883 0.0
C771 C 0.57002 0.95899 0.388 0.0
C772 C 0.47598 0.0316 0.38913 0.0
C773 C 0.51595 0.08754 0.38978 0.0
H774 H 0.46984 0.9275 0.38922 0.0
H775 H 0.42369 0.03601 0.39036 0.0
S776 S 0.69553 0.08882 0.38596 0.0
N777 N 0.67599 1.01108 0.3857 0.0
N778 N 0.62615 0.12876 0.38758 0.0
C779 C 0.58312 0.07873 0.38779 0.0
C780 C 0.61009 1.01464 0.38685 0.0
C781 C 0.0703 0.51146 0.55748 0.0
C782 C 0.08055 0.57823 0.55535 0.0
C783 C 1.00702 0.48624 0.55925 0.0
C784 C 0.95109 0.52652 0.55885 0.0
H785 H 0.11075 0.47789 0.55666 0.0
H786 H 1.00187 0.434 0.55992 0.0
S787 S 0.95281 0.70617 0.55682 0.0
N788 N 1.03025 0.68529 0.55556 0.0
N789 N 0.91188 0.63762 0.55852 0.0
C790 C 0.96133 0.59382 0.55826 0.0
C791 C 1.02581 0.61962 0.55657 0.0
C792 C 0.99401 0.5772 0.28744 0.0
C793 C 1.01462 0.61541 0.29995 0.0
C794 C 1.00594 0.50964 0.28678 0.0
C795 C 0.03834 0.47724 0.29871 0.0
H796 H 0.9686 0.59944 0.278 0.0
H797 H 0.993 0.48343 0.2765 0.0
S798 S 0.09737 0.5524 0.3346 0.0
N799 N 0.06495 0.61353 0.32504 0.0
N800 N 0.08765 0.48769 0.32374 0.0
C801 C 0.05611 0.5141 0.31158 0.0
C802 C 0.04396 0.58261 0.31226 0.0
C803 C 0.51071 0.96815 0.64346 0.0
C804 C 0.48106 0.02964 0.64187 0.0
C805 C 0.579 0.96053 0.64371 0.0
C806 C 0.62156 1.01396 0.64232 0.0
H807 H 0.48088 0.92522 0.64485 0.0
H808 H 0.59844 0.91225 0.6455 0.0
S809 S 0.57008 0.1848 0.63594 0.0
N810 N 0.50085 0.14466 0.63757 0.0
N811 N 0.62837 0.13017 0.63781 0.0
C812 C 0.59275 0.07534 0.6399 0.0
C813 C 0.52303 0.08317 0.63969 0.0
C814 C 0.04511 1.02759 0.89157 0.0
C815 C 1.01939 0.08177 0.89949 0.0
C816 C 1.02011 0.96451 0.89353 0.0
C817 C 0.96782 0.95287 0.9034 0.0
H818 H 0.08619 0.03371 0.88396 0.0
H819 H 0.04163 0.92479 0.8872 0.0
S820 S 0.88469 0.07651 0.9275 0.0
N821 N 0.93972 0.11837 0.91794 0.0
N822 N 0.89218 1.00075 0.92164 0.0
C823 C 0.94118 1.00663 0.91132 0.0
C824 C 0.96685 0.07078 0.90933 0.0
C825 C 0.96895 0.09326 0.04023 0.0
C826 C 0.94675 1.02945 0.04269 0.0
C827 C 0.0358 0.10832 0.03914 0.0
C828 C 0.08485 0.06041 0.04036 0.0
H829 H 0.93445 0.13244 0.03919 0.0
H830 H 0.04891 0.15859 0.03726 0.0
S831 S 0.05358 0.88444 0.04658 0.0
N832 N 0.98024 0.91714 0.04616 0.0
N833 N 0.10478 0.94513 0.04406 0.0
C834 C 0.06334 0.99603 0.04272 0.0
C835 C 0.99498 0.98073 0.04391 0.0
C836 C 0.61004 0.06609 0.80332 0.0
C837 C 0.55696 0.10962 0.80382 0.0
C838 C 0.60113 0.99814 0.80378 0.0
C839 C 0.53862 0.96976 0.80461 0.0
H840 H 0.65912 0.08444 0.80204 0.0
H841 H 0.64393 0.96758 0.80304 0.0
S842 S 0.3837 0.06195 0.80864 0.0
N843 N 0.43989 0.11885 0.80718 0.0
N844 N 0.42291 0.99209 0.8076 0.0
C845 C 0.48535 1.01283 0.80606 0.0
C846 C 0.49453 0.08217 0.80573 0.0
C847 C 1.01067 0.45741 0.14326 0.0
C848 C 0.95236 0.49424 0.14397 0.0
C849 C 0.07281 0.48627 0.14455 0.0
C850 C 0.08002 0.55362 0.14644 0.0
H851 H 1.00862 0.40512 0.14217 0.0
H852 H 0.11543 0.45531 0.1443 0.0
S853 S 0.94325 0.67298 0.14828 0.0
N854 N 0.90673 0.60229 0.14618 0.0
N855 N 1.02196 0.65691 0.14841 0.0
C856 C 1.022 0.59134 0.14667 0.0
C857 C 0.95885 0.56173 0.14547 0.0
C858 C 0.56414 0.56144 0.40354 0.0
C859 C 0.539 0.59992 0.39152 0.0
C860 C 0.55142 0.49404 0.40457 0.0
C861 C 0.51321 0.46212 0.39354 0.0
H862 H 0.59421 0.58326 0.41224 0.0
H863 H 0.56887 0.4676 0.41444 0.0
S864 S 0.44113 0.53824 0.35901 0.0
N865 N 0.47841 0.59882 0.36772 0.0
N866 N 0.45396 0.47349 0.36972 0.0
C867 C 0.49059 0.49937 0.38111 0.0
C868 C 0.50378 0.56762 0.38004 0.0
C869 C 0.467 0.59654 0.54523 0.0
C870 C 0.44398 0.53246 0.54691 0.0
C871 C 0.53413 0.61106 0.54496 0.0
C872 C 0.58233 0.56242 0.54637 0.0
H873 H 0.4328 0.63623 0.54403 0.0
H874 H 0.54818 0.6613 0.54345 0.0
S875 S 0.54824 0.38637 0.55173 0.0
N876 N 0.47538 0.41972 0.55041 0.0
N877 N 0.60045 0.44678 0.55015 0.0
C878 C 0.55981 0.49812 0.5484 0.0
C879 C 0.49126 0.4833 0.54863 0.0
C880 C 0.3519 0.344 0.34893 0.0
C881 C 0.35635 0.28186 0.35531 0.0
C882 C 0.32025 0.35312 0.33497 0.0
C883 C 0.29235 0.30027 0.32726 0.0
H884 H 0.36559 0.38602 0.3556 0.0
H885 H 0.30922 0.40214 0.33131 0.0
S886 S 0.30494 0.12712 0.33786 0.0
N887 N 0.34169 0.16621 0.3519 0.0
N888 N 0.28222 0.18332 0.32548 0.0
C889 C 0.30591 0.23733 0.33241 0.0
C890 C 0.33748 0.22812 0.34666 0.0
C891 C 0.33035 0.8322 0.60162 0.0
C892 C 0.31818 0.7894 0.61381 0.0
C893 C 0.32684 0.81165 0.58648 0.0
C894 C 0.31273 0.74681 0.58274 0.0
H895 H 0.34231 0.88252 0.6037 0.0
H896 H 0.33414 0.84762 0.57766 0.0
S897 S 0.28279 0.61314 0.61043 0.0
N898 N 0.29231 0.67833 0.62109 0.0
N899 N 0.29253 0.6381 0.59271 0.0
C900 C 0.30349 0.70246 0.59483 0.0
C901 C 0.30486 0.72404 0.61031 0.0
C902 C 0.84072 0.74895 0.33939 0.0
C903 C 0.79576 0.75623 0.32739 0.0
C904 C 0.81966 0.74372 0.3545 0.0
C905 C 0.75317 0.74669 0.35806 0.0
H906 H 0.89239 0.74642 0.33703 0.0
H907 H 0.85544 0.73825 0.3635 0.0
S908 S 0.61634 0.76433 0.33071 0.0
N909 N 0.68232 0.76554 0.31996 0.0
N910 N 0.64238 0.75564 0.34843 0.0
C911 C 0.70777 0.75373 0.34616 0.0
C912 C 0.7292 0.7584 0.33078 0.0
C913 C 0.73307 0.23441 0.6059 0.0
C914 C 0.7958 0.24213 0.61202 0.0
C915 C 0.71488 0.26731 0.5926 0.0
C916 C 0.75953 0.30705 0.58494 0.0
H917 H 0.69674 0.20669 0.61203 0.0
H918 H 0.66463 0.26548 0.58886 0.0
S919 S 0.9321 0.33507 0.59523 0.0
N920 N 0.90437 0.28632 0.60871 0.0
N921 N 0.87035 0.34746 0.58348 0.0
C922 C 0.82391 0.31037 0.59023 0.0
C923 C 0.84203 0.27807 0.60389 0.0
C924 C 0.23187 0.33126 0.84677 0.0
C925 C 0.24729 0.28121 0.85699 0.0
C926 C 0.26796 0.34006 0.83348 0.0
C927 C 0.32041 0.29887 0.83002 0.0
H928 H 0.18865 0.36044 0.84856 0.0
H929 H 0.25281 0.37723 0.82549 0.0
S930 S 0.38446 0.16595 0.85437 0.0
N931 N 0.32127 0.19463 0.86388 0.0
N932 N 0.39002 0.21045 0.83874 0.0
C933 C 0.33965 0.25218 0.84086 0.0
C934 C 0.30269 0.24351 0.85443 0.0
C935 C 0.31175 0.79618 0.10615 0.0
C936 C 0.26793 0.74708 0.11037 0.0
C937 C 0.3047 0.82906 0.09233 0.0
C938 C 0.25327 0.81418 0.08239 0.0
H939 H 0.34918 0.81188 0.11404 0.0
H940 H 0.33584 0.87028 0.08997 0.0
S941 S 0.13172 0.68353 0.08707 0.0
N942 N 0.17667 0.67948 0.10271 0.0
N943 N 0.16263 0.74303 0.07669 0.0
C944 C 0.21281 0.7615 0.08579 0.0
C945 C 0.22041 0.72731 0.09984 0.0
C946 C 0.8069 0.83879 0.85903 0.0
C947 C 0.79063 0.78107 0.86668 0.0
C948 C 0.79609 0.84505 0.84332 0.0
C949 C 0.77022 0.79317 0.83498 0.0
H950 H 0.82733 0.8792 0.86532 0.0
H951 H 0.80693 0.89057 0.83769 0.0
S952 S 0.72528 0.63073 0.84952 0.0
N953 N 0.75102 0.67053 0.86474 0.0
N954 N 0.73132 0.68207 0.8351 0.0
C955 C 0.75546 0.73489 0.84243 0.0
C956 C 0.76559 0.72884 0.85837 0.0
C957 C 0.82578 0.29874 0.09127 0.0
C958 C 0.81081 0.2349 0.08698 0.0
C959 C 0.81641 0.3198 0.10619 0.0
C960 C 0.79058 0.27825 0.1174 0.0
H961 H 0.84286 0.33356 0.08295 0.0
H962 H 0.82889 0.3695 0.10889 0.0
S963 S 0.75055 0.10408 0.11253 0.0
N964 N 0.77657 0.12768 0.0956 0.0
N965 N 0.75404 0.16909 0.12348 0.0
C966 C 0.77787 0.21346 0.11348 0.0
C967 C 0.78894 0.19142 0.09829 0.0
loop_
_geom_bond_atom_site_label_1
_geom_bond_atom_site_label_2
_geom_bond_distance
_geom_bond_site_symmetry_2
_ccdc_geom_bond_type
C0 C1 1.351 . S
C0 N3 1.368 . S
C0 H5 0.931 . S
C1 C0 1.351 . S
C1 N2 1.373 . S
C1 H29 0.930 . S
N2 C1 1.373 . S
N2 C4 1.340 . S
N3 C0 1.368 . S
N3 C4 1.321 . S
N3 Co6 2.135 1_655 S
C4 N2 1.340 . S
C4 N3 1.321 . S
C4 H28 0.930 . S
H5 C0 0.931 . S
Co6 N3 2.135 1_455 S
Co6 N9 2.121 . S
Co6 O14 2.055 1_455 S
Co6 O17 2.039 1_455 S
Co6 N20 2.140 . S
C7 O8 1.227 . S
C7 O17 1.265 . S
O8 C7 1.227 . S
N9 Co6 2.121 . S
N9 C11 1.375 . S
N9 C12 1.313 . S
C10 C11 1.338 . S
C10 N13 1.377 . S
C10 H30 0.930 . S
C11 N9 1.375 . S
C11 C10 1.338 . S
C11 H15 0.931 . S
C12 N9 1.313 . S
C12 N13 1.344 . S
C12 H16 0.930 . S
N13 C10 1.377 . S
N13 C12 1.344 . S
O14 Co6 2.055 1_655 S
O14 C18 1.256 . S
H15 C11 0.931 . S
H16 C12 0.930 . S
O17 Co6 2.039 1_655 S
O17 C7 1.265 . S
C18 O14 1.256 . S
C18 O19 1.222 1_655 S
O19 C18 1.222 1_455 S
N20 Co6 2.140 . S
N20 C23 1.346 . S
N20 C24 1.345 . S
C21 C22 1.387 . S
C21 C25 1.391 . S
C22 C21 1.387 . S
C22 C23 1.369 . S
C22 H31 0.929 . S
C23 N20 1.346 . S
C23 C22 1.369 . S
C23 H26 0.928 . S
C24 N20 1.345 . S
C24 C25 1.371 . S
C24 H27 0.931 . S
C25 C21 1.391 . S
C25 C24 1.371 . S
C25 H32 0.930 . S
H26 C23 0.928 . S
H27 C24 0.931 . S
H28 C4 0.930 . S
H29 C1 0.930 . S
H30 C10 0.930 . S
H31 C22 0.929 . S
H32 C25 0.930 . S
C33 C34 1.351 . S
C33 N36 1.368 . S
C33 H38 0.931 . S
C34 C33 1.351 . S
C34 N35 1.373 . S
C34 H62 0.930 . S
N35 C34 1.373 . S
N35 C37 1.340 . S
N36 C33 1.368 . S
N36 C37 1.321 . S
N36 Co39 2.135 1_545 S
C37 N35 1.340 . S
C37 N36 1.321 . S
C37 H61 0.930 . S
H38 C33 0.931 . S
Co39 N36 2.135 1_565 S
Co39 N42 2.121 . S
Co39 O47 2.055 1_565 S
Co39 O50 2.039 1_565 S
Co39 N53 2.140 . S
C40 O41 1.227 . S
C40 O50 1.265 . S
O41 C40 1.227 . S
N42 Co39 2.121 . S
N42 C44 1.375 . S
N42 C45 1.313 . S
C43 C44 1.338 . S
C43 N46 1.377 . S
C43 H63 0.930 . S
C44 N42 1.375 . S
C44 C43 1.338 . S
C44 H48 0.931 . S
C45 N42 1.313 . S
C45 N46 1.344 . S
C45 H49 0.930 . S
N46 C43 1.377 . S
N46 C45 1.344 . S
O47 Co39 2.055 1_545 S
O47 C51 1.256 . S
H48 C44 0.931 . S
H49 C45 0.930 . S
O50 Co39 2.039 1_545 S
O50 C40 1.265 . S
C51 O47 1.256 . S
C51 O52 1.222 1_545 S
O52 C51 1.222 1_565 S
N53 Co39 2.140 . S
N53 C56 1.346 . S
N53 C57 1.345 . S
C54 C55 1.387 . S
C54 C58 1.391 . S
C55 C54 1.387 . S
C55 C56 1.369 . S
C55 H64 0.929 . S
C56 N53 1.346 . S
C56 C55 1.369 . S
C56 H59 0.928 . S
C57 N53 1.345 . S
C57 C58 1.371 . S
C57 H60 0.931 . S
C58 C54 1.391 . S
C58 C57 1.371 . S
C58 H65 0.930 . S
H59 C56 0.928 . S
H60 C57 0.931 . S
H61 C37 0.930 . S
H62 C34 0.930 . S
H63 C43 0.930 . S
H64 C55 0.929 . S
H65 C58 0.930 . S
C66 C67 1.351 . S
C66 N69 1.368 . S
C66 H71 0.931 . S
C67 C66 1.351 . S
C67 N68 1.373 . S
C67 H95 0.930 . S
N68 C67 1.373 . S
N68 C70 1.340 . S
N69 C66 1.368 . S
N69 C70 1.321 . S
N69 Co72 2.135 1_455 S
C70 N68 1.340 . S
C70 N69 1.321 . S
C70 H94 0.930 . S
H71 C66 0.931 . S
Co72 N69 2.135 1_655 S
Co72 N75 2.121 . S
Co72 O80 2.055 1_655 S
Co72 O83 2.039 1_655 S
Co72 N86 2.140 . S
C73 O74 1.227 . S
C73 O83 1.265 . S
O74 C73 1.227 . S
N75 Co72 2.121 . S
N75 C77 1.375 . S
N75 C78 1.313 . S
C76 C77 1.338 . S
C76 N79 1.377 . S
C76 H96 0.930 . S
C77 N75 1.375 . S
C77 C76 1.338 . S
C77 H81 0.931 . S
C78 N75 1.313 . S
C78 N79 1.344 . S
C78 H82 0.930 . S
N79 C76 1.377 . S
N79 C78 1.344 . S
O80 Co72 2.055 1_455 S
O80 C84 1.256 . S
H81 C77 0.931 . S
H82 C78 0.930 . S
O83 Co72 2.039 1_455 S
O83 C73 1.265 . S
C84 O80 1.256 . S
C84 O85 1.222 1_455 S
O85 C84 1.222 1_655 S
N86 Co72 2.140 . S
N86 C89 1.346 . S
N86 C90 1.345 . S
C87 C88 1.387 . S
C87 C91 1.391 . S
C88 C87 1.387 . S
C88 C89 1.369 . S
C88 H97 0.929 . S
C89 N86 1.346 . S
C89 C88 1.369 . S
C89 H92 0.928 . S
C90 N86 1.345 . S
C90 C91 1.371 . S
C90 H93 0.931 . S
C91 C87 1.391 . S
C91 C90 1.371 . S
C91 H98 0.930 . S
H92 C89 0.928 . S
H93 C90 0.931 . S
H94 C70 0.930 . S
H95 C67 0.930 . S
H96 C76 0.930 . S
H97 C88 0.929 . S
H98 C91 0.930 . S
C99 C100 1.351 . S
C99 N102 1.368 . S
C99 H104 0.931 . S
C100 C99 1.351 . S
C100 N101 1.373 . S
C100 H128 0.930 . S
N101 C100 1.373 . S
N101 C103 1.340 . S
N102 C99 1.368 . S
N102 C103 1.321 . S
N102 Co105 2.135 1_565 S
C103 N101 1.340 . S
C103 N102 1.321 . S
C103 H127 0.930 . S
H104 C99 0.931 . S
Co105 N102 2.135 1_545 S
Co105 N108 2.121 . S
Co105 O113 2.055 1_545 S
Co105 O116 2.039 1_545 S
Co105 N119 2.140 . S
C106 O107 1.227 . S
C106 O116 1.265 . S
O107 C106 1.227 . S
N108 Co105 2.121 . S
N108 C110 1.375 . S
N108 C111 1.313 . S
C109 C110 1.338 . S
C109 N112 1.377 . S
C109 H129 0.930 . S
C110 N108 1.375 . S
C110 C109 1.338 . S
C110 H114 0.931 . S
C111 N108 1.313 . S
C111 N112 1.344 . S
C111 H115 0.930 . S
N112 C109 1.377 . S
N112 C111 1.344 . S
O113 Co105 2.055 1_565 S
O113 C117 1.256 . S
H114 C110 0.931 . S
H115 C111 0.930 . S
O116 Co105 2.039 1_565 S
O116 C106 1.265 . S
C117 O113 1.256 . S
C117 O118 1.222 1_565 S
O118 C117 1.222 1_545 S
N119 Co105 2.140 . S
N119 C122 1.346 . S
N119 C123 1.345 . S
C120 C121 1.387 . S
C120 C124 1.391 . S
C121 C120 1.387 . S
C121 C122 1.369 . S
C121 H130 0.929 . S
C122 N119 1.346 . S
C122 C121 1.369 . S
C122 H125 0.928 . S
C123 N119 1.345 . S
C123 C124 1.371 . S
C123 H126 0.931 . S
C124 C120 1.391 . S
C124 C123 1.371 . S
C124 H131 0.930 . S
H125 C122 0.928 . S
H126 C123 0.931 . S
H127 C103 0.930 . S
H128 C100 0.930 . S
H129 C109 0.930 . S
H130 C121 0.929 . S
H131 C124 0.930 . S
C132 C133 1.351 . S
C132 N135 1.368 . S
C132 H137 0.931 . S
C133 C132 1.351 . S
C133 N134 1.373 . S
C133 H161 0.930 . S
N134 C133 1.373 . S
N134 C136 1.340 . S
N135 C132 1.368 . S
N135 C136 1.321 . S
N135 Co138 2.135 1_655 S
C136 N134 1.340 . S
C136 N135 1.321 . S
C136 H160 0.930 . S
H137 C132 0.931 . S
Co138 N135 2.135 1_455 S
Co138 N141 2.121 . S
Co138 O146 2.055 1_455 S
Co138 O149 2.039 1_455 S
Co138 N152 2.140 . S
C139 O140 1.227 . S
C139 O149 1.265 . S
O140 C139 1.227 . S
N141 Co138 2.121 . S
N141 C143 1.375 . S
N141 C144 1.313 . S
C142 C143 1.338 . S
C142 N145 1.377 . S
C142 H162 0.930 . S
C143 N141 1.375 . S
C143 C142 1.338 . S
C143 H147 0.931 . S
C144 N141 1.313 . S
C144 N145 1.344 . S
C144 H148 0.930 . S
N145 C142 1.377 . S
N145 C144 1.344 . S
O146 Co138 2.055 1_655 S
O146 C150 1.256 . S
H147 C143 0.931 . S
H148 C144 0.930 . S
O149 Co138 2.039 1_655 S
O149 C139 1.265 . S
C150 O146 1.256 . S
C150 O151 1.222 1_655 S
O151 C150 1.222 1_455 S
N152 Co138 2.140 . S
N152 C155 1.346 . S
N152 C156 1.345 . S
C153 C154 1.387 . S
C153 C157 1.391 . S
C154 C153 1.387 . S
C154 C155 1.369 . S
C154 H163 0.929 . S
C155 N152 1.346 . S
C155 C154 1.369 . S
C155 H158 0.928 . S
C156 N152 1.345 . S
C156 C157 1.371 . S
C156 H159 0.931 . S
C157 C153 1.391 . S
C157 C156 1.371 . S
C157 H164 0.930 . S
H158 C155 0.928 . S
H159 C156 0.931 . S
H160 C136 0.930 . S
H161 C133 0.930 . S
H162 C142 0.930 . S
H163 C154 0.929 . S
H164 C157 0.930 . S
C165 C166 1.351 . S
C165 N168 1.368 . S
C165 H170 0.931 . S
C166 C165 1.351 . S
C166 N167 1.373 . S
C166 H194 0.930 . S
N167 C166 1.373 . S
N167 C169 1.340 . S
N168 C165 1.368 . S
N168 C169 1.321 . S
N168 Co171 2.135 1_545 S
C169 N167 1.340 . S
C169 N168 1.321 . S
C169 H193 0.930 . S
H170 C165 0.931 . S
Co171 N168 2.135 1_565 S
Co171 N174 2.121 . S
Co171 O179 2.055 1_565 S
Co171 O182 2.039 1_565 S
Co171 N185 2.140 . S
C172 O173 1.227 . S
C172 O182 1.265 . S
O173 C172 1.227 . S
N174 Co171 2.121 . S
N174 C176 1.375 . S
N174 C177 1.313 . S
C175 C176 1.338 . S
C175 N178 1.377 . S
C175 H195 0.930 . S
C176 N174 1.375 . S
C176 C175 1.338 . S
C176 H180 0.931 . S
C177 N174 1.313 . S
C177 N178 1.344 . S
C177 H181 0.930 . S
N178 C175 1.377 . S
N178 C177 1.344 . S
O179 Co171 2.055 1_545 S
O179 C183 1.256 . S
H180 C176 0.931 . S
H181 C177 0.930 . S
O182 Co171 2.039 1_545 S
O182 C172 1.265 . S
C183 O179 1.256 . S
C183 O184 1.222 1_545 S
O184 C183 1.222 1_565 S
N185 Co171 2.140 . S
N185 C188 1.346 . S
N185 C189 1.345 . S
C186 C187 1.387 . S
C186 C190 1.391 . S
C187 C186 1.387 . S
C187 C188 1.369 . S
C187 H196 0.929 . S
C188 N185 1.346 . S
C188 C187 1.369 . S
C188 H191 0.928 . S
C189 N185 1.345 . S
C189 C190 1.371 . S
C189 H192 0.931 . S
C190 C186 1.391 . S
C190 C189 1.371 . S
C190 H197 0.930 . S
H191 C188 0.928 . S
H192 C189 0.931 . S
H193 C169 0.930 . S
H194 C166 0.930 . S
H195 C175 0.930 . S
H196 C187 0.929 . S
H197 C190 0.930 . S
C198 C199 1.351 . S
C198 N201 1.368 . S
C198 H203 0.931 . S
C199 C198 1.351 . S
C199 N200 1.373 . S
C199 H227 0.930 . S
N200 C199 1.373 . S
N200 C202 1.340 . S
N201 C198 1.368 . S
N201 C202 1.321 . S
N201 Co204 2.135 1_455 S
C202 N200 1.340 . S
C202 N201 1.321 . S
C202 H226 0.930 . S
H203 C198 0.931 . S
Co204 N201 2.135 1_655 S
Co204 N207 2.121 . S
Co204 O212 2.055 1_655 S
Co204 O215 2.039 1_655 S
Co204 N218 2.140 . S
C205 O206 1.227 . S
C205 O215 1.265 . S
O206 C205 1.227 . S
N207 Co204 2.121 . S
N207 C209 1.375 . S
N207 C210 1.313 . S
C208 C209 1.338 . S
C208 N211 1.377 . S
C208 H228 0.930 . S
C209 N207 1.375 . S
C209 C208 1.338 . S
C209 H213 0.931 . S
C210 N207 1.313 . S
C210 N211 1.344 . S
C210 H214 0.930 . S
N211 C208 1.377 . S
N211 C210 1.344 . S
O212 Co204 2.055 1_455 S
O212 C216 1.256 . S
H213 C209 0.931 . S
H214 C210 0.930 . S
O215 Co204 2.039 1_455 S
O215 C205 1.265 . S
C216 O212 1.256 . S
C216 O217 1.222 1_455 S
O217 C216 1.222 1_655 S
N218 Co204 2.140 . S
N218 C221 1.346 . S
N218 C222 1.345 . S
C219 C220 1.387 . S
C219 C223 1.391 . S
C220 C219 1.387 . S
C220 C221 1.369 . S
C220 H229 0.929 . S
C221 N218 1.346 . S
C221 C220 1.369 . S
C221 H224 0.928 . S
C222 N218 1.345 . S
C222 C223 1.371 . S
C222 H225 0.931 . S
C223 C219 1.391 . S
C223 C222 1.371 . S
C223 H230 0.930 . S
H224 C221 0.928 . S
H225 C222 0.931 . S
H226 C202 0.930 . S
H227 C199 0.930 . S
H228 C208 0.930 . S
H229 C220 0.929 . S
H230 C223 0.930 . S
C231 C232 1.351 . S
C231 N234 1.368 . S
C231 H236 0.931 . S
C232 C231 1.351 . S
C232 N233 1.373 . S
C232 H260 0.930 . S
N233 C232 1.373 . S
N233 C235 1.340 . S
N234 C231 1.368 . S
N234 C235 1.321 . S
N234 Co237 2.135 1_565 S
C235 N233 1.340 . S
C235 N234 1.321 . S
C235 H259 0.930 . S
H236 C231 0.931 . S
Co237 N234 2.135 1_545 S
Co237 N240 2.121 . S
Co237 O245 2.055 1_545 S
Co237 O248 2.039 1_545 S
Co237 N251 2.140 . S
C238 O239 1.227 . S
C238 O248 1.265 . S
O239 C238 1.227 . S
N240 Co237 2.121 . S
N240 C242 1.375 . S
N240 C243 1.313 . S
C241 C242 1.338 . S
C241 N244 1.377 . S
C241 H261 0.930 . S
C242 N240 1.375 . S
C242 C241 1.338 . S
C242 H246 0.931 . S
C243 N240 1.313 . S
C243 N244 1.344 . S
C243 H247 0.930 . S
N244 C241 1.377 . S
N244 C243 1.344 . S
O245 Co237 2.055 1_565 S
O245 C249 1.256 . S
H246 C242 0.931 . S
H247 C243 0.930 . S
O248 Co237 2.039 1_565 S
O248 C238 1.265 . S
C249 O245 1.256 . S
C249 O250 1.222 1_565 S
O250 C249 1.222 1_545 S
N251 Co237 2.140 . S
N251 C254 1.346 . S
N251 C255 1.345 . S
C252 C253 1.387 . S
C252 C256 1.391 . S
C253 C252 1.387 . S
C253 C254 1.369 . S
C253 H262 0.929 . S
C254 N251 1.346 . S
C254 C253 1.369 . S
C254 H257 0.928 . S
C255 N251 1.345 . S
C255 C256 1.371 . S
C255 H258 0.931 . S
C256 C252 1.391 . S
C256 C255 1.371 . S
C256 H263 0.930 . S
H257 C254 0.928 . S
H258 C255 0.931 . S
H259 C235 0.930 . S
H260 C232 0.930 . S
H261 C241 0.930 . S
H262 C253 0.929 . S
H263 C256 0.930 . S
C264 C265 1.351 . S
C264 N267 1.368 . S
C264 H269 0.931 . S
C265 C264 1.351 . S
C265 N266 1.373 . S
C265 H293 0.930 . S
N266 C265 1.373 . S
N266 C268 1.340 . S
N267 C264 1.368 . S
N267 C268 1.321 . S
N267 Co270 2.135 . S
C268 N266 1.340 . S
C268 N267 1.321 . S
C268 H292 0.930 . S
H269 C264 0.931 . S
Co270 N267 2.135 . S
Co270 N273 2.121 . S
Co270 O278 2.055 . S
Co270 O281 2.039 . S
Co270 N284 2.140 . S
C271 O272 1.227 . S
C271 O281 1.265 . S
O272 C271 1.227 . S
N273 Co270 2.121 . S
N273 C275 1.375 . S
N273 C276 1.313 . S
C274 C275 1.338 . S
C274 N277 1.377 . S
C274 H294 0.930 . S
C275 N273 1.375 . S
C275 C274 1.338 . S
C275 H279 0.931 . S
C276 N273 1.313 . S
C276 N277 1.344 . S
C276 H280 0.930 . S
N277 C274 1.377 . S
N277 C276 1.344 . S
O278 Co270 2.055 . S
O278 C282 1.253 . S
H279 C275 0.931 . S
H280 C276 0.930 . S
O281 Co270 2.039 . S
O281 C271 1.265 . S
C282 O278 1.253 . S
C282 O283 1.227 . S
O283 C282 1.227 . S
N284 Co270 2.140 . S
N284 C287 1.346 . S
N284 C288 1.345 . S
C285 C286 1.387 . S
C285 C289 1.391 . S
C286 C285 1.387 . S
C286 C287 1.369 . S
C286 H295 0.929 . S
C287 N284 1.346 . S
C287 C286 1.369 . S
C287 H290 0.928 . S
C288 N284 1.345 . S
C288 C289 1.371 . S
C288 H291 0.931 . S
C289 C285 1.391 . S
C289 C288 1.371 . S
C289 H296 0.930 . S
H290 C287 0.928 . S
H291 C288 0.931 . S
H292 C268 0.930 . S
H293 C265 0.930 . S
H294 C274 0.930 . S
H295 C286 0.929 . S
H296 C289 0.930 . S
C297 C298 1.351 . S
C297 N300 1.368 . S
C297 H302 0.931 . S
C298 C297 1.351 . S
C298 N299 1.373 . S
C298 H326 0.930 . S
N299 C298 1.373 . S
N299 C301 1.340 . S
N300 C297 1.368 . S
N300 C301 1.321 . S
N300 Co303 2.135 . S
C301 N299 1.340 . S
C301 N300 1.321 . S
C301 H325 0.930 . S
H302 C297 0.931 . S
Co303 N300 2.135 . S
Co303 N306 2.121 . S
Co303 O311 2.055 . S
Co303 O314 2.039 . S
Co303 N317 2.140 . S
C304 O305 1.227 . S
C304 O314 1.265 . S
O305 C304 1.227 . S
N306 Co303 2.121 . S
N306 C308 1.375 . S
N306 C309 1.313 . S
C307 C308 1.338 . S
C307 N310 1.377 . S
C307 H327 0.930 . S
C308 N306 1.375 . S
C308 C307 1.338 . S
C308 H312 0.931 . S
C309 N306 1.313 . S
C309 N310 1.344 . S
C309 H313 0.930 . S
N310 C307 1.377 . S
N310 C309 1.344 . S
O311 Co303 2.055 . S
O311 C315 1.253 . S
H312 C308 0.931 . S
H313 C309 0.930 . S
O314 Co303 2.039 . S
O314 C304 1.265 . S
C315 O311 1.253 . S
C315 O316 1.227 . S
O316 C315 1.227 . S
N317 Co303 2.140 . S
N317 C320 1.346 . S
N317 C321 1.345 . S
C318 C319 1.387 . S
C318 C322 1.391 . S
C319 C318 1.387 . S
C319 C320 1.369 . S
C319 H328 0.929 . S
C320 N317 1.346 . S
C320 C319 1.369 . S
C320 H323 0.928 . S
C321 N317 1.345 . S
C321 C322 1.371 . S
C321 H324 0.931 . S
C322 C318 1.391 . S
C322 C321 1.371 . S
C322 H329 0.930 . S
H323 C320 0.928 . S
H324 C321 0.931 . S
H325 C301 0.930 . S
H326 C298 0.930 . S
H327 C307 0.930 . S
H328 C319 0.929 . S
H329 C322 0.930 . S
C330 C331 1.351 . S
C330 N333 1.368 . S
C330 H335 0.931 . S
C331 C330 1.351 . S
C331 N332 1.373 . S
C331 H359 0.930 . S
N332 C331 1.373 . S
N332 C334 1.340 . S
N333 C330 1.368 . S
N333 C334 1.321 . S
N333 Co336 2.135 . S
C334 N332 1.340 . S
C334 N333 1.321 . S
C334 H358 0.930 . S
H335 C330 0.931 . S
Co336 N333 2.135 . S
Co336 N339 2.121 . S
Co336 O344 2.055 . S
Co336 O347 2.039 . S
Co336 N350 2.140 . S
C337 O338 1.227 . S
C337 O347 1.265 . S
O338 C337 1.227 . S
N339 Co336 2.121 . S
N339 C341 1.375 . S
N339 C342 1.313 . S
C340 C341 1.338 . S
C340 N343 1.377 . S
C340 H360 0.930 . S
C341 N339 1.375 . S
C341 C340 1.338 . S
C341 H345 0.931 . S
C342 N339 1.313 . S
C342 N343 1.344 . S
C342 H346 0.930 . S
N343 C340 1.377 . S
N343 C342 1.344 . S
O344 Co336 2.055 . S
O344 C348 1.253 . S
H345 C341 0.931 . S
H346 C342 0.930 . S
O347 Co336 2.039 . S
O347 C337 1.265 . S
C348 O344 1.253 . S
C348 O349 1.227 . S
O349 C348 1.227 . S
N350 Co336 2.140 . S
N350 C353 1.346 . S
N350 C354 1.345 . S
C351 C352 1.387 . S
C351 C355 1.391 . S
C352 C351 1.387 . S
C352 C353 1.369 . S
C352 H361 0.929 . S
C353 N350 1.346 . S
C353 C352 1.369 . S
C353 H356 0.928 . S
C354 N350 1.345 . S
C354 C355 1.371 . S
C354 H357 0.931 . S
C355 C351 1.391 . S
C355 C354 1.371 . S
C355 H362 0.930 . S
H356 C353 0.928 . S
H357 C354 0.931 . S
H358 C334 0.930 . S
H359 C331 0.930 . S
H360 C340 0.930 . S
H361 C352 0.929 . S
H362 C355 0.930 . S
C363 C364 1.351 . S
C363 N366 1.368 . S
C363 H368 0.931 . S
C364 C363 1.351 . S
C364 N365 1.373 . S
C364 H392 0.930 . S
N365 C364 1.373 . S
N365 C367 1.340 . S
N366 C363 1.368 . S
N366 C367 1.321 . S
N366 Co369 2.135 . S
C367 N365 1.340 . S
C367 N366 1.321 . S
C367 H391 0.930 . S
H368 C363 0.931 . S
Co369 N366 2.135 . S
Co369 N372 2.121 . S
Co369 O377 2.055 . S
Co369 O380 2.039 . S
Co369 N383 2.140 . S
C370 O371 1.227 . S
C370 O380 1.265 . S
O371 C370 1.227 . S
N372 Co369 2.121 . S
N372 C374 1.375 . S
N372 C375 1.313 . S
C373 C374 1.338 . S
C373 N376 1.377 . S
C373 H393 0.930 . S
C374 N372 1.375 . S
C374 C373 1.338 . S
C374 H378 0.931 . S
C375 N372 1.313 . S
C375 N376 1.344 . S
C375 H379 0.930 . S
N376 C373 1.377 . S
N376 C375 1.344 . S
O377 Co369 2.055 . S
O377 C381 1.253 . S
H378 C374 0.931 . S
H379 C375 0.930 . S
O380 Co369 2.039 . S
O380 C370 1.265 . S
C381 O377 1.253 . S
C381 O382 1.227 . S
O382 C381 1.227 . S
N383 Co369 2.140 . S
N383 C386 1.346 . S
N383 C387 1.345 . S
C384 C385 1.387 . S
C384 C388 1.391 . S
C385 C384 1.387 . S
C385 C386 1.369 . S
C385 H394 0.929 . S
C386 N383 1.346 . S
C386 C385 1.369 . S
C386 H389 0.928 . S
C387 N383 1.345 . S
C387 C388 1.371 . S
C387 H390 0.931 . S
C388 C384 1.391 . S
C388 C387 1.371 . S
C388 H395 0.930 . S
H389 C386 0.928 . S
H390 C387 0.931 . S
H391 C367 0.930 . S
H392 C364 0.930 . S
H393 C373 0.930 . S
H394 C385 0.929 . S
H395 C388 0.930 . S
C396 C397 1.351 . S
C396 N399 1.368 . S
C396 H401 0.931 . S
C397 C396 1.351 . S
C397 N398 1.373 . S
C397 H425 0.930 . S
N398 C397 1.373 . S
N398 C400 1.340 . S
N399 C396 1.368 . S
N399 C400 1.321 . S
N399 Co402 2.135 . S
C400 N398 1.340 . S
C400 N399 1.321 . S
C400 H424 0.930 . S
H401 C396 0.931 . S
Co402 N399 2.135 . S
Co402 N405 2.121 . S
Co402 O410 2.055 . S
Co402 O413 2.039 . S
Co402 N416 2.140 . S
C403 O404 1.227 . S
C403 O413 1.265 . S
O404 C403 1.227 . S
N405 Co402 2.121 . S
N405 C407 1.375 . S
N405 C408 1.313 . S
C406 C407 1.338 . S
C406 N409 1.377 . S
C406 H426 0.930 . S
C407 N405 1.375 . S
C407 C406 1.338 . S
C407 H411 0.931 . S
C408 N405 1.313 . S
C408 N409 1.344 . S
C408 H412 0.930 . S
N409 C406 1.377 . S
N409 C408 1.344 . S
O410 Co402 2.055 . S
O410 C414 1.253 . S
H411 C407 0.931 . S
H412 C408 0.930 . S
O413 Co402 2.039 . S
O413 C403 1.265 . S
C414 O410 1.253 . S
C414 O415 1.227 . S
O415 C414 1.227 . S
N416 Co402 2.140 . S
N416 C419 1.346 . S
N416 C420 1.345 . S
C417 C418 1.387 . S
C417 C421 1.391 . S
C418 C417 1.387 . S
C418 C419 1.369 . S
C418 H427 0.929 . S
C419 N416 1.346 . S
C419 C418 1.369 . S
C419 H422 0.928 . S
C420 N416 1.345 . S
C420 C421 1.371 . S
C420 H423 0.931 . S
C421 C417 1.391 . S
C421 C420 1.371 . S
C421 H428 0.930 . S
H422 C419 0.928 . S
H423 C420 0.931 . S
H424 C400 0.930 . S
H425 C397 0.930 . S
H426 C406 0.930 . S
H427 C418 0.929 . S
H428 C421 0.930 . S
C429 C430 1.351 . S
C429 N432 1.368 . S
C429 H434 0.931 . S
C430 C429 1.351 . S
C430 N431 1.373 . S
C430 H458 0.930 . S
N431 C430 1.373 . S
N431 C433 1.340 . S
N432 C429 1.368 . S
N432 C433 1.321 . S
N432 Co435 2.135 . S
C433 N431 1.340 . S
C433 N432 1.321 . S
C433 H457 0.930 . S
H434 C429 0.931 . S
Co435 N432 2.135 . S
Co435 N438 2.121 . S
Co435 O443 2.055 . S
Co435 O446 2.039 . S
Co435 N449 2.140 . S
C436 O437 1.227 . S
C436 O446 1.265 . S
O437 C436 1.227 . S
N438 Co435 2.121 . S
N438 C440 1.375 . S
N438 C441 1.313 . S
C439 C440 1.338 . S
C439 N442 1.377 . S
C439 H459 0.930 . S
C440 N438 1.375 . S
C440 C439 1.338 . S
C440 H444 0.931 . S
C441 N438 1.313 . S
C441 N442 1.344 . S
C441 H445 0.930 . S
N442 C439 1.377 . S
N442 C441 1.344 . S
O443 Co435 2.055 . S
O443 C447 1.253 . S
H444 C440 0.931 . S
H445 C441 0.930 . S
O446 Co435 2.039 . S
O446 C436 1.265 . S
C447 O443 1.253 . S
C447 O448 1.227 . S
O448 C447 1.227 . S
N449 Co435 2.140 . S
N449 C452 1.346 . S
N449 C453 1.345 . S
C450 C451 1.387 . S
C450 C454 1.391 . S
C451 C450 1.387 . S
C451 C452 1.369 . S
C451 H460 0.929 . S
C452 N449 1.346 . S
C452 C451 1.369 . S
C452 H455 0.928 . S
C453 N449 1.345 . S
C453 C454 1.371 . S
C453 H456 0.931 . S
C454 C450 1.391 . S
C454 C453 1.371 . S
C454 H461 0.930 . S
H455 C452 0.928 . S
H456 C453 0.931 . S
H457 C433 0.930 . S
H458 C430 0.930 . S
H459 C439 0.930 . S
H460 C451 0.929 . S
H461 C454 0.930 . S
C462 C463 1.351 . S
C462 N465 1.368 . S
C462 H467 0.931 . S
C463 C462 1.351 . S
C463 N464 1.373 . S
C463 H491 0.930 . S
N464 C463 1.373 . S
N464 C466 1.340 . S
N465 C462 1.368 . S
N465 C466 1.321 . S
N465 Co468 2.135 . S
C466 N464 1.340 . S
C466 N465 1.321 . S
C466 H490 0.930 . S
H467 C462 0.931 . S
Co468 N465 2.135 . S
Co468 N471 2.121 . S
Co468 O476 2.055 . S
Co468 O479 2.039 . S
Co468 N482 2.140 . S
C469 O470 1.227 . S
C469 O479 1.265 . S
O470 C469 1.227 . S
N471 Co468 2.121 . S
N471 C473 1.375 . S
N471 C474 1.313 . S
C472 C473 1.338 . S
C472 N475 1.377 . S
C472 H492 0.930 . S
C473 N471 1.375 . S
C473 C472 1.338 . S
C473 H477 0.931 . S
C474 N471 1.313 . S
C474 N475 1.344 . S
C474 H478 0.930 . S
N475 C472 1.377 . S
N475 C474 1.344 . S
O476 Co468 2.055 . S
O476 C480 1.253 . S
H477 C473 0.931 . S
H478 C474 0.930 . S
O479 Co468 2.039 . S
O479 C469 1.265 . S
C480 O476 1.253 . S
C480 O481 1.227 . S
O481 C480 1.227 . S
N482 Co468 2.140 . S
N482 C485 1.346 . S
N482 C486 1.345 . S
C483 C484 1.387 . S
C483 C487 1.391 . S
C484 C483 1.387 . S
C484 C485 1.369 . S
C484 H493 0.929 . S
C485 N482 1.346 . S
C485 C484 1.369 . S
C485 H488 0.928 . S
C486 N482 1.345 . S
C486 C487 1.371 . S
C486 H489 0.931 . S
C487 C483 1.391 . S
C487 C486 1.371 . S
C487 H494 0.930 . S
H488 C485 0.928 . S
H489 C486 0.931 . S
H490 C466 0.930 . S
H491 C463 0.930 . S
H492 C472 0.930 . S
H493 C484 0.929 . S
H494 C487 0.930 . S
C495 C496 1.351 . S
C495 N498 1.368 . S
C495 H500 0.931 . S
C496 C495 1.351 . S
C496 N497 1.373 . S
C496 H524 0.930 . S
N497 C496 1.373 . S
N497 C499 1.340 . S
N498 C495 1.368 . S
N498 C499 1.321 . S
N498 Co501 2.135 . S
C499 N497 1.340 . S
C499 N498 1.321 . S
C499 H523 0.930 . S
H500 C495 0.931 . S
Co501 N498 2.135 . S
Co501 N504 2.121 . S
Co501 O509 2.055 . S
Co501 O512 2.039 . S
Co501 N515 2.140 . S
C502 O503 1.227 . S
C502 O512 1.265 . S
O503 C502 1.227 . S
N504 Co501 2.121 . S
N504 C506 1.375 . S
N504 C507 1.313 . S
C505 C506 1.338 . S
C505 N508 1.377 . S
C505 H525 0.930 . S
C506 N504 1.375 . S
C506 C505 1.338 . S
C506 H510 0.931 . S
C507 N504 1.313 . S
C507 N508 1.344 . S
C507 H511 0.930 . S
N508 C505 1.377 . S
N508 C507 1.344 . S
O509 Co501 2.055 . S
O509 C513 1.253 . S
H510 C506 0.931 . S
H511 C507 0.930 . S
O512 Co501 2.039 . S
O512 C502 1.265 . S
C513 O509 1.253 . S
C513 O514 1.227 . S
O514 C513 1.227 . S
N515 Co501 2.140 . S
N515 C518 1.346 . S
N515 C519 1.345 . S
C516 C517 1.387 . S
C516 C520 1.391 . S
C517 C516 1.387 . S
C517 C518 1.369 . S
C517 H526 0.929 . S
C518 N515 1.346 . S
C518 C517 1.369 . S
C518 H521 0.928 . S
C519 N515 1.345 . S
C519 C520 1.371 . S
C519 H522 0.931 . S
C520 C516 1.391 . S
C520 C519 1.371 . S
C520 H527 0.930 . S
H521 C518 0.928 . S
H522 C519 0.931 . S
H523 C499 0.930 . S
H524 C496 0.930 . S
H525 C505 0.930 . S
H526 C517 0.929 . S
H527 C520 0.930 . S
C528 C529 1.369 . S
C528 C530 1.419 . S
C528 H532 0.930 . S
C529 C528 1.369 . S
C529 C538 1.429 . S
C530 C528 1.419 . S
C530 C531 1.363 . S
C530 H533 0.929 . S
C531 C530 1.363 . S
C531 C537 1.428 . S
H532 C528 0.930 . S
H533 C530 0.929 . S
S534 N535 1.613 . S
S534 N536 1.610 . S
N535 S534 1.613 . S
N535 C538 1.350 . S
N536 S534 1.610 . S
N536 C537 1.351 . S
C537 C531 1.428 . S
C537 N536 1.351 . S
C537 C538 1.434 . S
C538 C529 1.429 . S
C538 N535 1.350 . S
C538 C537 1.434 . S
C539 C540 1.369 . S
C539 C541 1.419 . S
C539 H543 0.930 . S
C540 C539 1.369 . S
C540 C549 1.429 . S
C541 C539 1.419 . S
C541 C542 1.363 . S
C541 H544 0.929 . S
C542 C541 1.363 . S
C542 C548 1.428 . S
H543 C539 0.930 . S
H544 C541 0.929 . S
S545 N546 1.613 . S
S545 N547 1.610 . S
N546 S545 1.613 . S
N546 C549 1.350 . S
N547 S545 1.610 . S
N547 C548 1.351 . S
C548 C542 1.428 . S
C548 N547 1.351 . S
C548 C549 1.434 . S
C549 C540 1.429 . S
C549 N546 1.350 . S
C549 C548 1.434 . S
C550 C551 1.369 . S
C550 C552 1.419 . S
C550 H554 0.930 . S
C551 C550 1.369 . S
C551 C560 1.429 . S
C552 C550 1.419 . S
C552 C553 1.363 . S
C552 H555 0.929 . S
C553 C552 1.363 . S
C553 C559 1.428 . S
H554 C550 0.930 . S
H555 C552 0.929 . S
S556 N557 1.613 . S
S556 N558 1.610 . S
N557 S556 1.613 . S
N557 C560 1.350 . S
N558 S556 1.610 . S
N558 C559 1.351 . S
C559 C553 1.428 . S
C559 N558 1.351 . S
C559 C560 1.434 . S
C560 C551 1.429 . S
C560 N557 1.350 . S
C560 C559 1.434 . S
C561 C562 1.369 . S
C561 C563 1.419 . S
C561 H565 0.930 . S
C562 C561 1.369 . S
C562 C571 1.429 . S
C563 C561 1.419 . S
C563 C564 1.363 . S
C563 H566 0.929 . S
C564 C563 1.363 . S
C564 C570 1.428 . S
H565 C561 0.930 . S
H566 C563 0.929 . S
S567 N568 1.613 . S
S567 N569 1.610 . S
N568 S567 1.613 . S
N568 C571 1.350 . S
N569 S567 1.610 . S
N569 C570 1.351 . S
C570 C564 1.428 . S
C570 N569 1.351 . S
C570 C571 1.434 . S
C571 C562 1.429 . S
C571 N568 1.350 . S
C571 C570 1.434 . S
C572 C573 1.369 . S
C572 C574 1.419 1_554 S
C572 H576 0.930 . S
C573 C572 1.369 . S
C573 C582 1.429 . S
C574 C572 1.419 1_556 S
C574 C575 1.363 . S
C574 H577 0.929 . S
C575 C574 1.363 . S
C575 C581 1.428 . S
H576 C572 0.930 . S
H577 C574 0.929 . S
S578 N579 1.613 1_556 S
S578 N580 1.610 . S
N579 S578 1.613 1_554 S
N579 C582 1.350 . S
N580 S578 1.610 . S
N580 C581 1.351 . S
C581 C575 1.428 . S
C581 N580 1.351 . S
C581 C582 1.434 1_556 S
C582 C573 1.429 . S
C582 N579 1.350 . S
C582 C581 1.434 1_554 S
C583 C584 1.369 . S
C583 C585 1.419 1_556 S
C583 H587 0.930 . S
C584 C583 1.369 . S
C584 C593 1.429 . S
C585 C583 1.419 1_554 S
C585 C586 1.363 . S
C585 H588 0.929 . S
C586 C585 1.363 . S
C586 C592 1.428 . S
H587 C583 0.930 . S
H588 C585 0.929 . S
S589 N590 1.613 . S
S589 N591 1.610 1_556 S
N590 S589 1.613 . S
N590 C593 1.350 . S
N591 S589 1.610 1_554 S
N591 C592 1.351 . S
C592 C586 1.428 . S
C592 N591 1.351 . S
C592 C593 1.434 1_554 S
C593 C584 1.429 . S
C593 N590 1.350 . S
C593 C592 1.434 1_556 S
C594 C595 1.369 . S
C594 C596 1.419 1_556 S
C594 H598 0.930 . S
C595 C594 1.369 . S
C595 C604 1.429 . S
C596 C594 1.419 1_554 S
C596 C597 1.363 . S
C596 H599 0.929 . S
C597 C596 1.363 . S
C597 C603 1.428 . S
H598 C594 0.930 . S
H599 C596 0.929 . S
S600 N601 1.606 1_554 S
S600 N602 1.618 . S
N601 S600 1.606 1_556 S
N601 C604 1.350 . S
N602 S600 1.618 . S
N602 C603 1.351 . S
C603 C597 1.428 . S
C603 N602 1.351 . S
C603 C604 1.434 1_554 S
C604 C595 1.429 . S
C604 N601 1.350 . S
C604 C603 1.434 1_556 S
C605 C606 1.369 . S
C605 C607 1.419 1_554 S
C605 H609 0.930 . S
C606 C605 1.369 . S
C606 C615 1.454 . S
C607 C605 1.419 1_556 S
C607 C608 1.363 . S
C607 H610 0.929 . S
C608 C607 1.363 . S
C608 C614 1.428 . S
H609 C605 0.930 . S
H610 C607 0.929 . S
S611 N612 1.613 1_556 S
S611 N613 1.610 . S
N612 S611 1.613 1_554 S
N612 C615 1.353 . S
N613 S611 1.610 . S
N613 C614 1.351 . S
C614 C608 1.428 . S
C614 N613 1.351 . S
C614 C615 1.403 1_556 S
C615 C606 1.454 . S
C615 N612 1.353 . S
C615 C614 1.403 1_554 S
C616 C617 1.369 . S
C616 C618 1.419 . S
C616 H620 0.930 . S
C617 C616 1.369 . S
C617 C626 1.429 . S
C618 C616 1.419 . S
C618 C619 1.363 . S
C618 H621 0.929 . S
C619 C618 1.363 . S
C619 C625 1.428 . S
H620 C616 0.930 . S
H621 C618 0.929 . S
S622 N623 1.613 . S
S622 N624 1.610 . S
N623 S622 1.613 . S
N623 C626 1.350 . S
N624 S622 1.610 . S
N624 C625 1.351 . S
C625 C619 1.428 . S
C625 N624 1.351 . S
C625 C626 1.434 . S
C626 C617 1.429 . S
C626 N623 1.350 . S
C626 C625 1.434 . S
C627 C628 1.369 . S
C627 C629 1.419 . S
C627 H631 0.930 . S
C628 C627 1.369 . S
C628 C637 1.429 . S
C629 C627 1.419 . S
C629 C630 1.363 . S
C629 H632 0.929 . S
C630 C629 1.363 . S
C630 C636 1.428 . S
H631 C627 0.930 . S
H632 C629 0.929 . S
S633 N634 1.613 . S
S633 N635 1.610 . S
N634 S633 1.613 . S
N634 C637 1.350 . S
N635 S633 1.610 . S
N635 C636 1.351 . S
C636 C630 1.428 . S
C636 N635 1.351 . S
C636 C637 1.434 . S
C637 C628 1.429 . S
C637 N634 1.350 . S
C637 C636 1.434 . S
C638 C639 1.369 . S
C638 C640 1.419 . S
C638 H642 0.930 . S
C639 C638 1.369 . S
C639 C648 1.429 . S
C640 C638 1.419 . S
C640 C641 1.363 . S
C640 H643 0.929 . S
C641 C640 1.363 . S
C641 C647 1.428 . S
H642 C638 0.930 . S
H643 C640 0.929 . S
S644 N645 1.613 . S
S644 N646 1.610 . S
N645 S644 1.613 . S
N645 C648 1.350 . S
N646 S644 1.610 . S
N646 C647 1.351 . S
C647 C641 1.428 . S
C647 N646 1.351 . S
C647 C648 1.434 . S
C648 C639 1.429 . S
C648 N645 1.350 . S
C648 C647 1.434 . S
C649 C650 1.369 . S
C649 C651 1.419 . S
C649 H653 0.930 . S
C650 C649 1.369 . S
C650 C659 1.429 . S
C651 C649 1.419 . S
C651 C652 1.363 . S
C651 H654 0.929 . S
C652 C651 1.363 . S
C652 C658 1.428 . S
H653 C649 0.930 . S
H654 C651 0.929 . S
S655 N656 1.613 . S
S655 N657 1.610 . S
N656 S655 1.613 . S
N656 C659 1.350 . S
N657 S655 1.610 . S
N657 C658 1.351 . S
C658 C652 1.428 . S
C658 N657 1.351 . S
C658 C659 1.434 . S
C659 C650 1.429 . S
C659 N656 1.350 . S
C659 C658 1.434 . S
C660 C661 1.369 . S
C660 C662 1.419 . S
C660 H664 0.930 . S
C661 C660 1.369 . S
C661 C670 1.429 . S
C662 C660 1.419 . S
C662 C663 1.363 . S
C662 H665 0.929 . S
C663 C662 1.363 . S
C663 C669 1.428 . S
H664 C660 0.930 . S
H665 C662 0.929 . S
S666 N667 1.613 . S
S666 N668 1.610 . S
N667 S666 1.613 . S
N667 C670 1.350 . S
N668 S666 1.610 . S
N668 C669 1.351 . S
C669 C663 1.428 . S
C669 N668 1.351 . S
C669 C670 1.434 . S
C670 C661 1.429 . S
C670 N667 1.350 . S
C670 C669 1.434 . S
C671 C672 1.369 . S
C671 C673 1.419 . S
C671 H675 0.930 . S
C672 C671 1.369 . S
C672 C681 1.429 . S
C673 C671 1.419 . S
C673 C674 1.363 . S
C673 H676 0.929 . S
C674 C673 1.363 . S
C674 C680 1.428 . S
H675 C671 0.930 . S
H676 C673 0.929 . S
S677 N678 1.613 . S
S677 N679 1.610 . S
N678 S677 1.613 . S
N678 C681 1.350 . S
N679 S677 1.610 . S
N679 C680 1.351 . S
C680 C674 1.428 . S
C680 N679 1.351 . S
C680 C681 1.434 . S
C681 C672 1.429 . S
C681 N678 1.350 . S
C681 C680 1.434 . S
C682 C683 1.369 . S
C682 C684 1.419 . S
C682 H686 0.930 . S
C683 C682 1.369 . S
C683 C692 1.429 . S
C684 C682 1.419 . S
C684 C685 1.363 . S
C684 H687 0.929 . S
C685 C684 1.363 . S
C685 C691 1.428 . S
H686 C682 0.930 . S
H687 C684 0.929 . S
S688 N689 1.613 . S
S688 N690 1.610 . S
N689 S688 1.613 . S
N689 C692 1.350 . S
N690 S688 1.610 . S
N690 C691 1.351 . S
C691 C685 1.428 . S
C691 N690 1.351 . S
C691 C692 1.434 . S
C692 C683 1.429 . S
C692 N689 1.350 . S
C692 C691 1.434 . S
C693 C694 1.369 . S
C693 C695 1.419 . S
C693 H697 0.930 . S
C694 C693 1.369 . S
C694 C703 1.429 . S
C695 C693 1.419 . S
C695 C696 1.363 . S
C695 H698 0.929 . S
C696 C695 1.363 . S
C696 C702 1.428 . S
H697 C693 0.930 . S
H698 C695 0.929 . S
S699 N700 1.613 . S
S699 N701 1.610 . S
N700 S699 1.613 . S
N700 C703 1.350 . S
N701 S699 1.610 . S
N701 C702 1.351 . S
C702 C696 1.428 . S
C702 N701 1.351 . S
C702 C703 1.434 . S
C703 C694 1.429 . S
C703 N700 1.350 . S
C703 C702 1.434 . S
C704 C705 1.369 . S
C704 C706 1.419 1_545 S
C704 H708 0.930 . S
C705 C704 1.369 . S
C705 C714 1.429 1_655 S
C706 C704 1.419 1_565 S
C706 C707 1.363 1_655 S
C706 H709 0.929 . S
C707 C706 1.363 1_455 S
C707 C713 1.428 . S
H708 C704 0.930 . S
H709 C706 0.929 . S
S710 N711 1.613 . S
S710 N712 1.610 1_545 S
N711 S710 1.613 . S
N711 C714 1.350 . S
N712 S710 1.610 1_565 S
N712 C713 1.351 . S
C713 C707 1.428 . S
C713 N712 1.351 . S
C713 C714 1.434 1_565 S
C714 C705 1.429 1_455 S
C714 N711 1.350 . S
C714 C713 1.434 1_545 S
C715 C716 1.369 1_565 S
C715 C717 1.419 1_455 S
C715 H719 0.930 . S
C716 C715 1.369 1_545 S
C716 C725 1.429 . S
C717 C715 1.419 1_655 S
C717 C718 1.363 . S
C717 H720 0.929 . S
C718 C717 1.363 . S
C718 C724 1.428 1_565 S
H719 C715 0.930 . S
H720 C717 0.929 . S
S721 N722 1.613 1_655 S
S721 N723 1.610 . S
N722 S721 1.613 1_455 S
N722 C725 1.350 . S
N723 S721 1.610 . S
N723 C724 1.351 . S
C724 C718 1.428 1_545 S
C724 N723 1.351 . S
C724 C725 1.434 1_655 S
C725 C716 1.429 . S
C725 N722 1.350 . S
C725 C724 1.434 1_455 S
C726 C727 1.369 1_655 S
C726 C728 1.419 . S
C726 H730 0.930 . S
C727 C726 1.369 1_455 S
C727 C736 1.429 . S
C728 C726 1.419 . S
C728 C729 1.363 . S
C728 H731 0.929 . S
C729 C728 1.363 . S
C729 C735 1.428 1_655 S
H730 C726 0.930 . S
H731 C728 0.929 . S
S732 N733 1.613 . S
S732 N734 1.610 . S
N733 S732 1.613 . S
N733 C736 1.350 . S
N734 S732 1.610 . S
N734 C735 1.351 . S
C735 C729 1.428 1_455 S
C735 N734 1.351 . S
C735 C736 1.434 . S
C736 C727 1.429 . S
C736 N733 1.350 . S
C736 C735 1.434 . S
C737 C738 1.369 1_545 S
C737 C739 1.419 . S
C737 H741 0.930 . S
C738 C737 1.369 1_565 S
C738 C747 1.429 . S
C739 C737 1.419 . S
C739 C740 1.363 . S
C739 H742 0.929 . S
C740 C739 1.363 . S
C740 C746 1.428 1_545 S
H741 C737 0.930 . S
H742 C739 0.929 . S
S743 N744 1.613 . S
S743 N745 1.610 . S
N744 S743 1.613 . S
N744 C747 1.350 . S
N745 S743 1.610 . S
N745 C746 1.351 . S
C746 C740 1.428 1_565 S
C746 N745 1.351 . S
C746 C747 1.434 . S
C747 C738 1.429 . S
C747 N744 1.350 . S
C747 C746 1.434 . S
C748 C749 1.369 . S
C748 C750 1.419 . S
C748 H752 0.930 . S
C749 C748 1.369 . S
C749 C758 1.429 . S
C750 C748 1.419 . S
C750 C751 1.363 . S
C750 H753 0.929 . S
C751 C750 1.363 . S
C751 C757 1.428 . S
H752 C748 0.930 . S
H753 C750 0.929 . S
S754 N755 1.613 . S
S754 N756 1.610 . S
N755 S754 1.613 . S
N755 C758 1.350 . S
N756 S754 1.610 . S
N756 C757 1.351 . S
C757 C751 1.428 . S
C757 N756 1.351 . S
C757 C758 1.434 . S
C758 C749 1.429 . S
C758 N755 1.350 . S
C758 C757 1.434 . S
C759 C760 1.369 . S
C759 C761 1.419 . S
C759 H763 0.930 . S
C760 C759 1.369 . S
C760 C769 1.429 . S
C761 C759 1.419 . S
C761 C762 1.363 . S
C761 H764 0.929 . S
C762 C761 1.363 . S
C762 C768 1.428 . S
H763 C759 0.930 . S
H764 C761 0.929 . S
S765 N766 1.613 . S
S765 N767 1.610 . S
N766 S765 1.613 . S
N766 C769 1.350 . S
N767 S765 1.610 . S
N767 C768 1.351 . S
C768 C762 1.428 . S
C768 N767 1.351 . S
C768 C769 1.434 . S
C769 C760 1.429 . S
C769 N766 1.350 . S
C769 C768 1.434 . S
C770 C771 1.369 . S
C770 C772 1.419 1_565 S
C770 H774 0.930 . S
C771 C770 1.369 . S
C771 C780 1.429 . S
C772 C770 1.419 1_545 S
C772 C773 1.363 . S
C772 H775 0.929 . S
C773 C772 1.363 . S
C773 C779 1.428 . S
H774 C770 0.930 . S
H775 C772 0.929 . S
S776 N777 1.616 . S
S776 N778 1.608 1_565 S
N777 S776 1.616 . S
N777 C780 1.350 . S
N778 S776 1.608 1_545 S
N778 C779 1.351 . S
C779 C773 1.428 . S
C779 N778 1.351 . S
C779 C780 1.434 1_545 S
C780 C771 1.429 . S
C780 N777 1.350 . S
C780 C779 1.434 1_565 S
C781 C782 1.369 . S
C781 C783 1.419 1_455 S
C781 H785 0.930 . S
C782 C781 1.369 . S
C782 C791 1.429 . S
C783 C781 1.419 1_655 S
C783 C784 1.363 . S
C783 H786 0.929 . S
C784 C783 1.363 . S
C784 C790 1.428 . S
H785 C781 0.930 . S
H786 C783 0.929 . S
S787 N788 1.613 . S
S787 N789 1.610 1_455 S
N788 S787 1.613 . S
N788 C791 1.350 . S
N789 S787 1.610 1_655 S
N789 C790 1.351 . S
C790 C784 1.428 . S
C790 N789 1.351 . S
C790 C791 1.434 1_655 S
C791 C782 1.429 . S
C791 N788 1.350 . S
C791 C790 1.434 1_455 S
C792 C793 1.372 . S
C792 C794 1.415 1_455 S
C792 H796 0.930 1_455 S
C793 C792 1.372 . S
C793 C802 1.429 . S
C794 C792 1.415 1_655 S
C794 C795 1.363 . S
C794 H797 0.929 . S
C795 C794 1.363 . S
C795 C801 1.428 1_655 S
H796 C792 0.930 1_655 S
H797 C794 0.929 . S
S798 N799 1.613 . S
S798 N800 1.610 . S
N799 S798 1.613 . S
N799 C802 1.350 . S
N800 S798 1.610 . S
N800 C801 1.351 . S
C801 C795 1.428 1_455 S
C801 N800 1.351 . S
C801 C802 1.434 . S
C802 C793 1.429 . S
C802 N799 1.350 . S
C802 C801 1.434 . S
C803 C804 1.369 1_565 S
C803 C805 1.419 . S
C803 H807 0.930 . S
C804 C803 1.369 1_545 S
C804 C813 1.429 . S
C805 C803 1.419 . S
C805 C806 1.363 . S
C805 H808 0.929 . S
C806 C805 1.363 . S
C806 C812 1.428 1_565 S
H807 C803 0.930 . S
H808 C805 0.929 . S
S809 N810 1.613 . S
S809 N811 1.610 . S
N810 S809 1.613 . S
N810 C813 1.350 . S
N811 S809 1.610 . S
N811 C812 1.351 . S
C812 C806 1.428 1_545 S
C812 N811 1.351 . S
C812 C813 1.434 . S
C813 C804 1.429 . S
C813 N810 1.350 . S
C813 C812 1.434 . S
C814 C815 1.369 . S
C814 C816 1.419 1_645 S
C814 H818 0.930 . S
C815 C814 1.369 . S
C815 C824 1.429 . S
C816 C814 1.419 1_465 S
C816 C817 1.363 . S
C816 H819 0.929 . S
C817 C816 1.363 . S
C817 C823 1.428 . S
H818 C814 0.930 . S
H819 C816 0.929 . S
S820 N821 1.613 1_565 S
S820 N822 1.610 1_655 S
N821 S820 1.613 1_545 S
N821 C824 1.350 . S
N822 S820 1.610 1_455 S
N822 C823 1.351 . S
C823 C817 1.428 . S
C823 N822 1.351 . S
C823 C824 1.434 1_465 S
C824 C815 1.429 . S
C824 N821 1.350 . S
C824 C823 1.434 1_645 S
C825 C826 1.369 1_545 S
C825 C827 1.419 1_655 S
C825 H829 0.930 . S
C826 C825 1.369 1_565 S
C826 C835 1.429 . S
C827 C825 1.419 1_455 S
C827 C828 1.363 . S
C827 H830 0.929 . S
C828 C827 1.363 . S
C828 C834 1.428 1_545 S
H829 C825 0.930 . S
H830 C827 0.929 . S
S831 N832 1.613 1_455 S
S831 N833 1.610 . S
N832 S831 1.613 1_655 S
N832 C835 1.350 . S
N833 S831 1.610 . S
N833 C834 1.351 . S
C834 C828 1.428 1_565 S
C834 N833 1.351 . S
C834 C835 1.434 1_455 S
C835 C826 1.429 . S
C835 N832 1.350 . S
C835 C834 1.434 1_655 S
C836 C837 1.369 . S
C836 C838 1.419 1_545 S
C836 H840 0.930 . S
C837 C836 1.369 . S
C837 C846 1.429 . S
C838 C836 1.419 1_565 S
C838 C839 1.363 . S
C838 H841 0.929 . S
C839 C838 1.363 . S
C839 C845 1.428 . S
H840 C836 0.930 . S
H841 C838 0.929 . S
S842 N843 1.613 . S
S842 N844 1.610 1_545 S
N843 S842 1.613 . S
N843 C846 1.350 . S
N844 S842 1.610 1_565 S
N844 C845 1.351 . S
C845 C839 1.428 . S
C845 N844 1.351 . S
C845 C846 1.434 1_565 S
C846 C837 1.429 . S
C846 N843 1.350 . S
C846 C845 1.434 1_545 S
C847 C848 1.369 . S
C847 C849 1.419 1_655 S
C847 H851 0.930 . S
C848 C847 1.369 . S
C848 C857 1.429 . S
C849 C847 1.419 1_455 S
C849 C850 1.363 . S
C849 H852 0.929 . S
C850 C849 1.363 . S
C850 C856 1.428 . S
H851 C847 0.930 . S
H852 C849 0.929 . S
S853 N854 1.613 1_455 S
S853 N855 1.610 . S
N854 S853 1.613 1_655 S
N854 C857 1.350 . S
N855 S853 1.610 . S
N855 C856 1.351 . S
C856 C850 1.428 . S
C856 N855 1.351 . S
C856 C857 1.434 1_455 S
C857 C848 1.429 . S
C857 N854 1.350 . S
C857 C856 1.434 1_655 S
C858 C859 1.369 . S
C858 C860 1.419 . S
C858 H862 0.930 . S
C859 C858 1.369 . S
C859 C868 1.429 . S
C860 C858 1.419 . S
C860 C861 1.363 . S
C860 H863 0.929 . S
C861 C860 1.363 . S
C861 C867 1.428 . S
H862 C858 0.930 . S
H863 C860 0.929 . S
S864 N865 1.613 . S
S864 N866 1.610 . S
N865 S864 1.613 . S
N865 C868 1.350 . S
N866 S864 1.610 . S
N866 C867 1.351 . S
C867 C861 1.428 . S
C867 N866 1.351 . S
C867 C868 1.434 . S
C868 C859 1.429 . S
C868 N865 1.350 . S
C868 C867 1.434 . S
C869 C870 1.369 . S
C869 C871 1.419 . S
C869 H873 0.930 . S
C870 C869 1.369 . S
C870 C879 1.429 . S
C871 C869 1.419 . S
C871 C872 1.363 . S
C871 H874 0.929 . S
C872 C871 1.363 . S
C872 C878 1.428 . S
H873 C869 0.930 . S
H874 C871 0.929 . S
S875 N876 1.613 . S
S875 N877 1.610 . S
N876 S875 1.613 . S
N876 C879 1.350 . S
N877 S875 1.610 . S
N877 C878 1.351 . S
C878 C872 1.428 . S
C878 N877 1.351 . S
C878 C879 1.434 . S
C879 C870 1.429 . S
C879 N876 1.350 . S
C879 C878 1.434 . S
C880 C881 1.369 . S
C880 C882 1.419 . S
C880 H884 0.930 . S
C881 C880 1.369 . S
C881 C890 1.429 . S
C882 C880 1.419 . S
C882 C883 1.363 . S
C882 H885 0.929 . S
C883 C882 1.363 . S
C883 C889 1.428 . S
H884 C880 0.930 . S
H885 C882 0.929 . S
S886 N887 1.613 . S
S886 N888 1.610 . S
N887 S886 1.613 . S
N887 C890 1.350 . S
N888 S886 1.610 . S
N888 C889 1.351 . S
C889 C883 1.428 . S
C889 N888 1.351 . S
C889 C890 1.434 . S
C890 C881 1.429 . S
C890 N887 1.350 . S
C890 C889 1.434 . S
C891 C892 1.369 . S
C891 C893 1.419 . S
C891 H895 0.930 . S
C892 C891 1.369 . S
C892 C901 1.429 . S
C893 C891 1.419 . S
C893 C894 1.363 . S
C893 H896 0.929 . S
C894 C893 1.363 . S
C894 C900 1.428 . S
H895 C891 0.930 . S
H896 C893 0.929 . S
S897 N898 1.613 . S
S897 N899 1.610 . S
N898 S897 1.613 . S
N898 C901 1.350 . S
N899 S897 1.610 . S
N899 C900 1.351 . S
C900 C894 1.428 . S
C900 N899 1.351 . S
C900 C901 1.434 . S
C901 C892 1.429 . S
C901 N898 1.350 . S
C901 C900 1.434 . S
C902 C903 1.369 . S
C902 C904 1.419 . S
C902 H906 0.930 . S
C903 C902 1.369 . S
C903 C912 1.429 . S
C904 C902 1.419 . S
C904 C905 1.363 . S
C904 H907 0.929 . S
C905 C904 1.363 . S
C905 C911 1.428 . S
H906 C902 0.930 . S
H907 C904 0.929 . S
S908 N909 1.613 . S
S908 N910 1.610 . S
N909 S908 1.613 . S
N909 C912 1.350 . S
N910 S908 1.610 . S
N910 C911 1.351 . S
C911 C905 1.428 . S
C911 N910 1.351 . S
C911 C912 1.434 . S
C912 C903 1.429 . S
C912 N909 1.350 . S
C912 C911 1.434 . S
C913 C914 1.369 . S
C913 C915 1.419 . S
C913 H917 0.930 . S
C914 C913 1.369 . S
C914 C923 1.429 . S
C915 C913 1.419 . S
C915 C916 1.363 . S
C915 H918 0.929 . S
C916 C915 1.363 . S
C916 C922 1.428 . S
H917 C913 0.930 . S
H918 C915 0.929 . S
S919 N920 1.613 . S
S919 N921 1.610 . S
N920 S919 1.613 . S
N920 C923 1.350 . S
N921 S919 1.610 . S
N921 C922 1.351 . S
C922 C916 1.428 . S
C922 N921 1.351 . S
C922 C923 1.434 . S
C923 C914 1.429 . S
C923 N920 1.350 . S
C923 C922 1.434 . S
C924 C925 1.369 . S
C924 C926 1.419 . S
C924 H928 0.930 . S
C925 C924 1.369 . S
C925 C934 1.429 . S
C926 C924 1.419 . S
C926 C927 1.363 . S
C926 H929 0.929 . S
C927 C926 1.363 . S
C927 C933 1.428 . S
H928 C924 0.930 . S
H929 C926 0.929 . S
S930 N931 1.613 . S
S930 N932 1.610 . S
N931 S930 1.613 . S
N931 C934 1.350 . S
N932 S930 1.610 . S
N932 C933 1.351 . S
C933 C927 1.428 . S
C933 N932 1.351 . S
C933 C934 1.434 . S
C934 C925 1.429 . S
C934 N931 1.350 . S
C934 C933 1.434 . S
C935 C936 1.369 . S
C935 C937 1.419 . S
C935 H939 0.930 . S
C936 C935 1.369 . S
C936 C945 1.429 . S
C937 C935 1.419 . S
C937 C938 1.363 . S
C937 H940 0.929 . S
C938 C937 1.363 . S
C938 C944 1.428 . S
H939 C935 0.930 . S
H940 C937 0.929 . S
S941 N942 1.613 . S
S941 N943 1.610 . S
N942 S941 1.613 . S
N942 C945 1.350 . S
N943 S941 1.610 . S
N943 C944 1.351 . S
C944 C938 1.428 . S
C944 N943 1.351 . S
C944 C945 1.434 . S
C945 C936 1.429 . S
C945 N942 1.350 . S
C945 C944 1.434 . S
C946 C947 1.369 . S
C946 C948 1.419 . S
C946 H950 0.930 . S
C947 C946 1.369 . S
C947 C956 1.429 . S
C948 C946 1.419 . S
C948 C949 1.363 . S
C948 H951 0.929 . S
C949 C948 1.363 . S
C949 C955 1.428 . S
H950 C946 0.930 . S
H951 C948 0.929 . S
S952 N953 1.613 . S
S952 N954 1.610 . S
N953 S952 1.613 . S
N953 C956 1.350 . S
N954 S952 1.610 . S
N954 C955 1.351 . S
C955 C949 1.428 . S
C955 N954 1.351 . S
C955 C956 1.434 . S
C956 C947 1.429 . S
C956 N953 1.350 . S
C956 C955 1.434 . S
C957 C958 1.369 . S
C957 C959 1.419 . S
C957 H961 0.930 . S
C958 C957 1.369 . S
C958 C967 1.429 . S
C959 C957 1.419 . S
C959 C960 1.363 . S
C959 H962 0.929 . S
C960 C959 1.363 . S
C960 C966 1.428 . S
H961 C957 0.930 . S
H962 C959 0.929 . S
S963 N964 1.613 . S
S963 N965 1.610 . S
N964 S963 1.613 . S
N964 C967 1.350 . S
N965 S963 1.610 . S
N965 C966 1.351 . S
C966 C960 1.428 . S
C966 N965 1.351 . S
C966 C967 1.434 . S
C967 C958 1.429 . S
C967 N964 1.350 . S
C967 C966 1.434 . S
C529 C21 0.992 . S
C531 N365 0.995 . S
C540 N266 0.984 . S
C542 C54 0.993 . S
C551 N299 0.996 . S
C553 C87 0.992 . S
C562 N332 0.995 . S
C564 C120 0.988 . S
C573 N167 0.983 . S
C575 C153 0.994 . S
C584 N200 0.997 . S
C586 C186 0.989 . S
C595 C219 0.986 . S
C597 N233 0.992 . S
C606 C252 0.986 . S
C608 N134 0.995 . S
C617 C285 0.997 . S
C619 N101 0.984 . S
C628 C318 0.995 . S
C630 N2 0.992 . S
C639 N35 0.994 . S
C641 C351 0.988 . S
C650 C384 0.988 . S
C652 N68 0.995 . S
C661 N431 0.997 . S
C663 C417 0.992 . S
C672 N464 0.983 . S
C674 C450 0.999 . S
C683 N497 0.991 . S
C685 C483 0.997 . S
C694 C516 0.992 . S
C696 N398 0.994 . S
C705 C18 1.339 . S
C707 C84 1.341 . S
C716 C51 1.346 . S
C718 C117 1.339 . S
C727 C216 1.344 . S
C729 C150 1.338 . S
C738 C249 1.346 . S
C740 C183 1.340 . S
C749 C348 1.345 . S
C751 C282 1.340 . S
C760 C315 1.340 . S
C762 C381 1.344 . S
C771 C414 1.340 . S
C773 C480 1.339 . S
C782 C513 1.344 . S
C784 C447 1.342 . S
C793 C73 1.586 . S
C795 C7 1.581 . S
C804 C40 1.586 . S
C806 C106 1.578 . S
C815 C139 1.574 . S
C817 C205 1.577 . S
C826 C238 1.585 . S
C828 C172 1.576 . S
C837 C337 1.579 . S
C839 C271 1.585 . S
C848 C304 1.586 . S
C850 C370 1.577 . S
C859 C403 1.586 . S
C861 C469 1.578 . S
C870 C502 1.585 . S
C872 C436 1.576 . S
C881 N475 1.619 . S
C883 N13 1.618 . S
C892 N46 1.616 . S
C894 N508 1.616 . S
C903 N79 1.618 . S
C905 N409 1.618 . S
C914 N112 1.616 . S
C916 N442 1.616 . S
C925 N145 1.618 . S
C927 N343 1.617 . S
C936 N376 1.615 . S
C938 N178 1.614 . S
C947 N211 1.619 . S
C949 N277 1.618 . S
C958 N244 1.618 . S
C960 N310 1.617 . S
