# Generated by pormake.
# Topology yfu, (5)-cn, num edge types: 1
# Building blocks:
#     Node 0, Type 0, BuildingBlock: XOMCOT_clean_sbu_0, # of connection points: 5
#     Node 1, Type 0, BuildingBlock: XOMCOT_clean_sbu_0, # of connection points: 5
#     Node 2, Type 0, BuildingBlock: XOMCOT_clean_sbu_0, # of connection points: 5
#     Node 3, Type 0, BuildingBlock: XOMCOT_clean_sbu_0, # of connection points: 5
#     Node 4, Type 0, BuildingBlock: XOMCOT_clean_sbu_0, # of connection points: 5
#     Node 5, Type 0, BuildingBlock: XOMCOT_clean_sbu_0, # of connection points: 5
#     Node 6, Type 0, BuildingBlock: XOMCOT_clean_sbu_0, # of connection points: 5
#     Node 7, Type 0, BuildingBlock: XOMCOT_clean_sbu_0, # of connection points: 5
#     Node 8, Type 0, BuildingBlock: XOMCOT_clean_sbu_0, # of connection points: 5
#     Node 9, Type 0, BuildingBlock: XOMCOT_clean_sbu_0, # of connection points: 5
#     Node 10, Type 0, BuildingBlock: XOMCOT_clean_sbu_0, # of connection points: 5
#     Node 11, Type 0, BuildingBlock: XOMCOT_clean_sbu_0, # of connection points: 5
#     Node 12, Type 0, BuildingBlock: XOMCOT_clean_sbu_0, # of connection points: 5
#     Node 13, Type 0, BuildingBlock: XOMCOT_clean_sbu_0, # of connection points: 5
#     Node 14, Type 0, BuildingBlock: XOMCOT_clean_sbu_0, # of connection points: 5
#     Node 15, Type 0, BuildingBlock: XOMCOT_clean_sbu_0, # of connection points: 5
#     Node 16, Type 0, BuildingBlock: XOMCOT_clean_sbu_0, # of connection points: 5
#     Node 17, Type 0, BuildingBlock: XOMCOT_clean_sbu_0, # of connection points: 5
#     Node 18, Type 0, BuildingBlock: XOMCOT_clean_sbu_0, # of connection points: 5
#     Node 19, Type 0, BuildingBlock: XOMCOT_clean_sbu_0, # of connection points: 5
#     Node 20, Type 0, BuildingBlock: XOMCOT_clean_sbu_0, # of connection points: 5
#     Node 21, Type 0, BuildingBlock: XOMCOT_clean_sbu_0, # of connection points: 5
#     Node 22, Type 0, BuildingBlock: XOMCOT_clean_sbu_0, # of connection points: 5
#     Node 23, Type 0, BuildingBlock: XOMCOT_clean_sbu_0, # of connection points: 5
#     Node 24, Type 0, BuildingBlock: XOMCOT_clean_sbu_0, # of connection points: 5
#     Node 25, Type 0, BuildingBlock: XOMCOT_clean_sbu_0, # of connection points: 5
#     Node 26, Type 0, BuildingBlock: XOMCOT_clean_sbu_0, # of connection points: 5
#     Node 27, Type 0, BuildingBlock: XOMCOT_clean_sbu_0, # of connection points: 5
#     Node 28, Type 0, BuildingBlock: XOMCOT_clean_sbu_0, # of connection points: 5
#     Node 29, Type 0, BuildingBlock: XOMCOT_clean_sbu_0, # of connection points: 5
#     Node 30, Type 0, BuildingBlock: XOMCOT_clean_sbu_0, # of connection points: 5
#     Node 31, Type 0, BuildingBlock: XOMCOT_clean_sbu_0, # of connection points: 5
#     Edge 32, Type (0, 0), BuildingBlock: OJICUG_clean_linker_0, # of connection points: 2
#     Edge 33, Type (0, 0), BuildingBlock: OJICUG_clean_linker_0, # of connection points: 2
#     Edge 34, Type (0, 0), BuildingBlock: OJICUG_clean_linker_0, # of connection points: 2
#     Edge 35, Type (0, 0), BuildingBlock: OJICUG_clean_linker_0, # of connection points: 2
#     Edge 36, Type (0, 0), BuildingBlock: OJICUG_clean_linker_0, # of connection points: 2
#     Edge 37, Type (0, 0), BuildingBlock: OJICUG_clean_linker_0, # of connection points: 2
#     Edge 38, Type (0, 0), BuildingBlock: OJICUG_clean_linker_0, # of connection points: 2
#     Edge 39, Type (0, 0), BuildingBlock: OJICUG_clean_linker_0, # of connection points: 2
#     Edge 40, Type (0, 0), BuildingBlock: OJICUG_clean_linker_0, # of connection points: 2
#     Edge 41, Type (0, 0), BuildingBlock: OJICUG_clean_linker_0, # of connection points: 2
#     Edge 42, Type (0, 0), BuildingBlock: OJICUG_clean_linker_0, # of connection points: 2
#     Edge 43, Type (0, 0), BuildingBlock: OJICUG_clean_linker_0, # of connection points: 2
#     Edge 44, Type (0, 0), BuildingBlock: OJICUG_clean_linker_0, # of connection points: 2
#     Edge 45, Type (0, 0), BuildingBlock: OJICUG_clean_linker_0, # of connection points: 2
#     Edge 46, Type (0, 0), BuildingBlock: OJICUG_clean_linker_0, # of connection points: 2
#     Edge 47, Type (0, 0), BuildingBlock: OJICUG_clean_linker_0, # of connection points: 2
#     Edge 48, Type (0, 0), BuildingBlock: OJICUG_clean_linker_0, # of connection points: 2
#     Edge 49, Type (0, 0), BuildingBlock: OJICUG_clean_linker_0, # of connection points: 2
#     Edge 50, Type (0, 0), BuildingBlock: OJICUG_clean_linker_0, # of connection points: 2
#     Edge 51, Type (0, 0), BuildingBlock: OJICUG_clean_linker_0, # of connection points: 2
#     Edge 52, Type (0, 0), BuildingBlock: OJICUG_clean_linker_0, # of connection points: 2
#     Edge 53, Type (0, 0), BuildingBlock: OJICUG_clean_linker_0, # of connection points: 2
#     Edge 54, Type (0, 0), BuildingBlock: OJICUG_clean_linker_0, # of connection points: 2
#     Edge 55, Type (0, 0), BuildingBlock: OJICUG_clean_linker_0, # of connection points: 2
#     Edge 56, Type (0, 0), BuildingBlock: OJICUG_clean_linker_0, # of connection points: 2
#     Edge 57, Type (0, 0), BuildingBlock: OJICUG_clean_linker_0, # of connection points: 2
#     Edge 58, Type (0, 0), BuildingBlock: OJICUG_clean_linker_0, # of connection points: 2
#     Edge 59, Type (0, 0), BuildingBlock: OJICUG_clean_linker_0, # of connection points: 2
#     Edge 60, Type (0, 0), BuildingBlock: OJICUG_clean_linker_0, # of connection points: 2
#     Edge 61, Type (0, 0), BuildingBlock: OJICUG_clean_linker_0, # of connection points: 2
#     Edge 62, Type (0, 0), BuildingBlock: OJICUG_clean_linker_0, # of connection points: 2
#     Edge 63, Type (0, 0), BuildingBlock: OJICUG_clean_linker_0, # of connection points: 2
#     Edge 64, Type (0, 0), BuildingBlock: OJICUG_clean_linker_0, # of connection points: 2
#     Edge 65, Type (0, 0), BuildingBlock: OJICUG_clean_linker_0, # of connection points: 2
#     Edge 66, Type (0, 0), BuildingBlock: OJICUG_clean_linker_0, # of connection points: 2
#     Edge 67, Type (0, 0), BuildingBlock: OJICUG_clean_linker_0, # of connection points: 2
#     Edge 68, Type (0, 0), BuildingBlock: OJICUG_clean_linker_0, # of connection points: 2
#     Edge 69, Type (0, 0), BuildingBlock: OJICUG_clean_linker_0, # of connection points: 2
#     Edge 70, Type (0, 0), BuildingBlock: OJICUG_clean_linker_0, # of connection points: 2
#     Edge 71, Type (0, 0), BuildingBlock: OJICUG_clean_linker_0, # of connection points: 2
#     Edge 72, Type (0, 0), BuildingBlock: OJICUG_clean_linker_0, # of connection points: 2
#     Edge 73, Type (0, 0), BuildingBlock: OJICUG_clean_linker_0, # of connection points: 2
#     Edge 74, Type (0, 0), BuildingBlock: OJICUG_clean_linker_0, # of connection points: 2
#     Edge 75, Type (0, 0), BuildingBlock: OJICUG_clean_linker_0, # of connection points: 2
#     Edge 76, Type (0, 0), BuildingBlock: OJICUG_clean_linker_0, # of connection points: 2
#     Edge 77, Type (0, 0), BuildingBlock: OJICUG_clean_linker_0, # of connection points: 2
#     Edge 78, Type (0, 0), BuildingBlock: OJICUG_clean_linker_0, # of connection points: 2
#     Edge 79, Type (0, 0), BuildingBlock: OJICUG_clean_linker_0, # of connection points: 2
#     Edge 80, Type (0, 0), BuildingBlock: OJICUG_clean_linker_0, # of connection points: 2
#     Edge 81, Type (0, 0), BuildingBlock: OJICUG_clean_linker_0, # of connection points: 2
#     Edge 82, Type (0, 0), BuildingBlock: OJICUG_clean_linker_0, # of connection points: 2
#     Edge 83, Type (0, 0), BuildingBlock: OJICUG_clean_linker_0, # of connection points: 2
#     Edge 84, Type (0, 0), BuildingBlock: OJICUG_clean_linker_0, # of connection points: 2
#     Edge 85, Type (0, 0), BuildingBlock: OJICUG_clean_linker_0, # of connection points: 2
#     Edge 86, Type (0, 0), BuildingBlock: OJICUG_clean_linker_0, # of connection points: 2
#     Edge 87, Type (0, 0), BuildingBlock: OJICUG_clean_linker_0, # of connection points: 2
#     Edge 88, Type (0, 0), BuildingBlock: OJICUG_clean_linker_0, # of connection points: 2
#     Edge 89, Type (0, 0), BuildingBlock: OJICUG_clean_linker_0, # of connection points: 2
#     Edge 90, Type (0, 0), BuildingBlock: OJICUG_clean_linker_0, # of connection points: 2
#     Edge 91, Type (0, 0), BuildingBlock: OJICUG_clean_linker_0, # of connection points: 2
#     Edge 92, Type (0, 0), BuildingBlock: OJICUG_clean_linker_0, # of connection points: 2
#     Edge 93, Type (0, 0), BuildingBlock: OJICUG_clean_linker_0, # of connection points: 2
#     Edge 94, Type (0, 0), BuildingBlock: OJICUG_clean_linker_0, # of connection points: 2
#     Edge 95, Type (0, 0), BuildingBlock: OJICUG_clean_linker_0, # of connection points: 2
#     Edge 96, Type (0, 0), BuildingBlock: OJICUG_clean_linker_0, # of connection points: 2
#     Edge 97, Type (0, 0), BuildingBlock: OJICUG_clean_linker_0, # of connection points: 2
#     Edge 98, Type (0, 0), BuildingBlock: OJICUG_clean_linker_0, # of connection points: 2
#     Edge 99, Type (0, 0), BuildingBlock: OJICUG_clean_linker_0, # of connection points: 2
#     Edge 100, Type (0, 0), BuildingBlock: OJICUG_clean_linker_0, # of connection points: 2
#     Edge 101, Type (0, 0), BuildingBlock: OJICUG_clean_linker_0, # of connection points: 2
#     Edge 102, Type (0, 0), BuildingBlock: OJICUG_clean_linker_0, # of connection points: 2
#     Edge 103, Type (0, 0), BuildingBlock: OJICUG_clean_linker_0, # of connection points: 2
#     Edge 104, Type (0, 0), BuildingBlock: OJICUG_clean_linker_0, # of connection points: 2
#     Edge 105, Type (0, 0), BuildingBlock: OJICUG_clean_linker_0, # of connection points: 2
#     Edge 106, Type (0, 0), BuildingBlock: OJICUG_clean_linker_0, # of connection points: 2
#     Edge 107, Type (0, 0), BuildingBlock: OJICUG_clean_linker_0, # of connection points: 2
#     Edge 108, Type (0, 0), BuildingBlock: OJICUG_clean_linker_0, # of connection points: 2
#     Edge 109, Type (0, 0), BuildingBlock: OJICUG_clean_linker_0, # of connection points: 2
#     Edge 110, Type (0, 0), BuildingBlock: OJICUG_clean_linker_0, # of connection points: 2
#     Edge 111, Type (0, 0), BuildingBlock: OJICUG_clean_linker_0, # of connection points: 2
# Relax obj value: 0.353
# Max RMSD: 0.253
# Mean RMSD: 0.253
data_MOF--net-yfu--node1-XOMCOT_clean_sbu_0--edge1-OJICUG_clean_linker_0
_symmetry_space_group_name_H-M    P1
_symmetry_Int_Tables_number       1
_symmetry_cell_setting            triclinic
loop_
_symmetry_equiv_pos_as_xyz
'x, y, z'
_cell_length_a     34.024513
_cell_length_b     34.041066
_cell_length_c     73.614938
_cell_angle_alpha  90.011496
_cell_angle_beta   89.99457
_cell_angle_gamma 90.035868
loop_
_atom_site_label
_atom_site_type_symbol
_atom_site_fract_x
_atom_site_fract_y
_atom_site_fract_z
_atom_type_partial_charge
Co0 Co 0.06485 0.06896 0.36128 0.0
C1 C 0.09427 0.99075 0.3716 0.0
C2 C 0.05913 0.01606 0.3927 0.0
C3 C 0.07497 0.98147 0.39902 0.0
N4 N 0.07068 0.02146 0.37537 0.0
N5 N 0.09732 0.96565 0.38574 0.0
H6 H 0.11132 0.98837 0.35931 0.0
H7 H 0.04155 0.03661 0.40042 0.0
C8 C 0.9794 0.04552 0.3701 0.0
O9 O 0.98764 0.00872 0.37376 0.0
N10 N 0.05987 0.11635 0.34745 0.0
C11 C 0.08073 0.12748 0.33275 0.0
C12 C 0.06767 0.16387 0.32731 0.0
C13 C 0.03511 0.14602 0.35099 0.0
N14 N 0.03917 0.17529 0.33887 0.0
C15 C 0.09824 0.03151 0.32983 0.0
C16 C 0.02864 0.021 0.31117 0.0
C17 C 0.06409 0.01482 0.30188 0.0
C18 C 0.09923 0.01917 0.31167 0.0
C19 C 0.02892 0.03359 0.32925 0.0
N20 N 0.06346 0.03953 0.33837 0.0
H21 H 0.12577 0.03697 0.33667 0.0
H22 H 0.00104 0.04042 0.3353 0.0
H23 H 0.10419 0.11081 0.32658 0.0
H24 H 0.01454 0.14615 0.36221 0.0
O25 O 0.12118 0.07964 0.36379 0.0
O26 O 0.07494 0.09968 0.38269 0.0
O27 O 0.00576 0.06906 0.36421 0.0
C28 C 0.11177 0.09984 0.37822 0.0
H29 H 0.07136 0.9698 0.41259 0.0
H30 H 0.07887 0.18102 0.31606 0.0
H31 H 0.00064 0.01728 0.30439 0.0
H32 H 0.12746 0.01517 0.30515 0.0
Co33 Co 0.17512 0.81579 0.61113 0.0
C34 C 0.25353 0.8447 0.62172 0.0
C35 C 0.22749 0.80985 0.64273 0.0
C36 C 0.2623 0.82515 0.64914 0.0
N37 N 0.22239 0.82161 0.62541 0.0
N38 N 0.27857 0.84727 0.6359 0.0
H39 H 0.25642 0.8617 0.60945 0.0
H40 H 0.20669 0.79236 0.65037 0.0
C41 C 0.19955 0.73063 0.61945 0.0
O42 O 0.23636 0.73936 0.62294 0.0
N43 N 0.12791 0.81065 0.59716 0.0
C44 C 0.117 0.83103 0.58229 0.0
C45 C 0.08058 0.81787 0.57686 0.0
C46 C 0.09813 0.78606 0.60079 0.0
N47 N 0.06894 0.7898 0.58859 0.0
C48 C 0.21337 0.85031 0.58019 0.0
C49 C 0.22416 0.78152 0.56093 0.0
C50 C 0.23148 0.81736 0.55219 0.0
C51 C 0.22669 0.85205 0.56222 0.0
C52 C 0.21059 0.78105 0.57886 0.0
N53 N 0.20485 0.81519 0.58832 0.0
H54 H 0.208 0.87754 0.58728 0.0
H55 H 0.20269 0.75302 0.58449 0.0
H56 H 0.13386 0.8542 0.57598 0.0
H57 H 0.09787 0.76582 0.61213 0.0
O58 O 0.16412 0.87194 0.61381 0.0
O59 O 0.14403 0.82529 0.63249 0.0
O60 O 0.1755 0.75672 0.6138 0.0
C61 C 0.14382 0.86219 0.62817 0.0
H62 H 0.27386 0.82131 0.66271 0.0
H63 H 0.06356 0.82872 0.56549 0.0
H64 H 0.22679 0.75397 0.55367 0.0
H65 H 0.23225 0.88044 0.55609 0.0
Co66 Co 0.42957 0.9249 0.86126 0.0
C67 C 0.4004 0.0033 0.87158 0.0
C68 C 0.436 0.97813 0.89254 0.0
C69 C 0.42043 0.01285 0.89887 0.0
N70 N 0.42398 0.97255 0.87529 0.0
N71 N 0.39781 0.02858 0.88568 0.0
H72 H 0.38306 0.00566 0.85939 0.0
H73 H 0.45376 0.95765 0.9002 0.0
C74 C 0.51501 0.94881 0.86959 0.0
O75 O 0.50668 0.98577 0.87287 0.0
N76 N 0.43435 0.87734 0.84751 0.0
C77 C 0.41338 0.86622 0.83284 0.0
C78 C 0.4262 0.82971 0.82744 0.0
C79 C 0.45898 0.84756 0.85106 0.0
N80 N 0.45469 0.8182 0.83898 0.0
C81 C 0.39568 0.96264 0.83003 0.0
C82 C 0.46475 0.97159 0.81077 0.0
C83 C 0.42906 0.97865 0.80182 0.0
C84 C 0.39424 0.97505 0.8119 0.0
C85 C 0.46492 0.95905 0.82886 0.0
N86 N 0.43063 0.95404 0.83829 0.0
H87 H 0.36831 0.95767 0.83709 0.0
H88 H 0.49286 0.95144 0.83466 0.0
H89 H 0.38999 0.883 0.82667 0.0
H90 H 0.4796 0.84741 0.86225 0.0
O91 O 0.37327 0.91434 0.86393 0.0
O92 O 0.41974 0.89445 0.88275 0.0
O93 O 0.48866 0.92489 0.86403 0.0
C94 C 0.38284 0.89433 0.87839 0.0
H95 H 0.42441 0.02468 0.91238 0.0
H96 H 0.41481 0.81253 0.81623 0.0
H97 H 0.49252 0.97456 0.80371 0.0
H98 H 0.36586 0.97968 0.80561 0.0
Co99 Co 0.3197 0.17711 0.11166 0.0
C100 C 0.24067 0.14872 0.12179 0.0
C101 C 0.26641 0.18356 0.1429 0.0
C102 C 0.23116 0.16887 0.14907 0.0
N103 N 0.27198 0.17148 0.12566 0.0
N104 N 0.21505 0.14674 0.13579 0.0
H105 H 0.23795 0.13169 0.10952 0.0
H106 H 0.28711 0.20099 0.15062 0.0
C107 C 0.29556 0.26243 0.11994 0.0
O108 O 0.25856 0.25402 0.12313 0.0
N109 N 0.36735 0.18209 0.09798 0.0
C110 C 0.37856 0.16167 0.08317 0.0
C111 C 0.41517 0.17468 0.07794 0.0
C112 C 0.39716 0.20654 0.10179 0.0
N113 N 0.42663 0.2027 0.08975 0.0
C114 C 0.282 0.14304 0.08046 0.0
C115 C 0.27204 0.21205 0.06128 0.0
C116 C 0.26458 0.17633 0.05245 0.0
C117 C 0.26901 0.14153 0.06242 0.0
C118 C 0.28532 0.21229 0.07925 0.0
N119 N 0.2906 0.17804 0.08868 0.0
H120 H 0.28702 0.11573 0.08753 0.0
H121 H 0.29333 0.24022 0.08496 0.0
H122 H 0.36174 0.13861 0.07675 0.0
H123 H 0.39719 0.22682 0.11312 0.0
O124 O 0.33038 0.1209 0.11431 0.0
O125 O 0.35013 0.16736 0.13318 0.0
O126 O 0.31958 0.23615 0.11443 0.0
C127 C 0.35041 0.1305 0.12877 0.0
H128 H 0.21912 0.17326 0.16251 0.0
H129 H 0.43238 0.16385 0.06664 0.0
H130 H 0.26969 0.23967 0.05405 0.0
H131 H 0.26335 0.11323 0.05622 0.0
Co132 Co 0.06234 0.9276 0.16458 0.0
C133 C 0.09108 0.00633 0.1547 0.0
C134 C 0.05478 0.98198 0.13378 0.0
C135 C 0.07046 0.0168 0.12757 0.0
N136 N 0.06723 0.97581 0.15092 0.0
N137 N 0.09351 0.03199 0.14075 0.0
H138 H 0.10891 0.00818 0.16675 0.0
H139 H 0.03682 0.96175 0.12606 0.0
C140 C 0.97642 0.95097 0.15703 0.0
O141 O 0.98436 0.98811 0.15397 0.0
N142 N 0.05845 0.87958 0.178 0.0
C143 C 0.08019 0.86843 0.19242 0.0
C144 C 0.06837 0.83149 0.19763 0.0
C145 C 0.03435 0.84938 0.17439 0.0
N146 N 0.03973 0.81975 0.18621 0.0
C147 C 0.0963 0.96498 0.19593 0.0
C148 C 0.02755 0.97287 0.21553 0.0
C149 C 0.06333 0.98087 0.22422 0.0
C150 C 0.09798 0.97747 0.21403 0.0
C151 C 0.02716 0.96012 0.19746 0.0
N152 N 0.06129 0.95593 0.1878 0.0
H153 H 0.1236 0.96062 0.18873 0.0
H154 H -0.00073 0.9516 0.19186 0.0
H155 H 0.10349 0.88548 0.19852 0.0
H156 H 0.01335 0.84911 0.16334 0.0
O157 O 0.11857 0.91779 0.16186 0.0
O158 O 0.07247 0.89805 0.14273 0.0
O159 O 0.0032 0.927 0.16204 0.0
C160 C 0.10929 0.89836 0.14721 0.0
H161 H 0.0664 0.029 0.11414 0.0
H162 H 0.08051 0.8142 0.20862 0.0
H163 H 6e-05 0.9744 0.22292 0.0
H164 H 0.12632 0.98354 0.22012 0.0
Co165 Co 0.32013 0.81619 0.4152 0.0
C166 C 0.24172 0.84567 0.405 0.0
C167 C 0.26672 0.81007 0.38399 0.0
C168 C 0.23192 0.8256 0.37773 0.0
N169 N 0.27245 0.82211 0.40122 0.0
N170 N 0.21628 0.84822 0.39096 0.0
H171 H 0.23943 0.86294 0.41722 0.0
H172 H 0.28711 0.79224 0.3763 0.0
C173 C 0.29566 0.73084 0.40694 0.0
O174 O 0.25876 0.73932 0.40357 0.0
N175 N 0.36772 0.81102 0.4289 0.0
C176 C 0.37911 0.83175 0.44359 0.0
C177 C 0.41546 0.81841 0.44898 0.0
C178 C 0.39719 0.78604 0.42532 0.0
N179 N 0.4266 0.78985 0.4374 0.0
C180 C 0.28283 0.85022 0.44653 0.0
C181 C 0.27319 0.78113 0.46567 0.0
C182 C 0.2666 0.81679 0.4747 0.0
C183 C 0.27054 0.85165 0.46468 0.0
C184 C 0.28567 0.78097 0.44758 0.0
N185 N 0.29104 0.81526 0.4382 0.0
H186 H 0.288 0.87757 0.43951 0.0
H187 H 0.29292 0.753 0.44173 0.0
H188 H 0.36259 0.85526 0.44982 0.0
H189 H 0.39704 0.76542 0.41412 0.0
O190 O 0.33108 0.87237 0.41258 0.0
O191 O 0.35062 0.8259 0.39369 0.0
O192 O 0.31972 0.75713 0.41242 0.0
C193 C 0.35105 0.86275 0.39811 0.0
H194 H 0.21992 0.82152 0.36426 0.0
H195 H 0.43275 0.82943 0.46023 0.0
H196 H 0.2699 0.75334 0.47267 0.0
H197 H 0.26626 0.88001 0.47103 0.0
Co198 Co 0.42861 0.06927 0.66524 0.0
C199 C 0.39951 0.99083 0.65501 0.0
C200 C 0.43429 0.01631 0.63382 0.0
C201 C 0.41888 0.98139 0.62761 0.0
N202 N 0.42271 0.02179 0.65113 0.0
N203 N 0.39676 0.96545 0.64095 0.0
H204 H 0.3826 0.98837 0.66732 0.0
H205 H 0.45173 0.0369 0.62605 0.0
C206 C 0.51395 0.04533 0.65662 0.0
O207 O 0.50542 0.00859 0.65292 0.0
N208 N 0.43371 0.11664 0.67908 0.0
C209 C 0.41288 0.12787 0.69378 0.0
C210 C 0.42617 0.16419 0.69924 0.0
C211 C 0.45868 0.14618 0.67557 0.0
N212 N 0.45477 0.17546 0.6877 0.0
C213 C 0.39426 0.03197 0.69646 0.0
C214 C 0.46337 0.02017 0.71536 0.0
C215 C 0.42761 0.01362 0.72433 0.0
C216 C 0.39275 0.01891 0.71448 0.0
C217 C 0.46362 0.03353 0.69739 0.0
N218 N 0.42933 0.03985 0.68814 0.0
H219 H 0.36694 0.03765 0.6895 0.0
H220 H 0.49167 0.04069 0.69157 0.0
H221 H 0.38931 0.1113 0.69993 0.0
H222 H 0.47931 0.14619 0.66438 0.0
O223 O 0.37242 0.0802 0.66256 0.0
O224 O 0.41904 0.10004 0.6438 0.0
O225 O 0.48775 0.06901 0.66252 0.0
C226 C 0.38214 0.10035 0.64816 0.0
H227 H 0.42267 0.96958 0.61409 0.0
H228 H 0.41505 0.18139 0.71049 0.0
H229 H 0.49107 0.01705 0.72247 0.0
H230 H 0.36441 0.0139 0.72077 0.0
Co231 Co 0.17545 0.17808 0.91554 0.0
C232 C 0.25385 0.14876 0.90519 0.0
C233 C 0.22858 0.18426 0.88422 0.0
C234 C 0.26336 0.16879 0.87789 0.0
N235 N 0.22302 0.17224 0.90147 0.0
N236 N 0.27916 0.14624 0.8911 0.0
H237 H 0.25628 0.13151 0.9174 0.0
H238 H 0.20808 0.20202 0.87656 0.0
C239 C 0.1999 0.26332 0.90721 0.0
O240 O 0.23685 0.25472 0.90401 0.0
N241 N 0.12796 0.18309 0.92934 0.0
C242 C 0.11686 0.16222 0.94404 0.0
C243 C 0.08033 0.17504 0.94943 0.0
C244 C 0.09813 0.20765 0.92575 0.0
N245 N 0.06877 0.20341 0.93784 0.0
C246 C 0.21322 0.14419 0.94677 0.0
C247 C 0.22261 0.21326 0.96596 0.0
C248 C 0.22949 0.17759 0.97495 0.0
C249 C 0.22567 0.14276 0.96489 0.0
C250 C 0.20997 0.21341 0.94788 0.0
N251 N 0.20475 0.17913 0.93848 0.0
H252 H 0.20813 0.11683 0.93974 0.0
H253 H 0.20246 0.24135 0.94207 0.0
H254 H 0.13366 0.13889 0.95024 0.0
H255 H 0.09796 0.2282 0.91453 0.0
O256 O 0.16464 0.12185 0.91297 0.0
O257 O 0.1448 0.16822 0.8941 0.0
O258 O 0.17571 0.23715 0.91271 0.0
C259 C 0.14452 0.13138 0.89853 0.0
H260 H 0.27522 0.17285 0.86439 0.0
H261 H 0.06318 0.16376 0.96066 0.0
H262 H 0.2258 0.24104 0.97297 0.0
H263 H 0.23014 0.11439 0.9712 0.0
Co264 Co 0.92854 0.92481 0.66542 0.0
C265 C 0.89921 0.00319 0.65516 0.0
C266 C 0.93459 0.97799 0.63412 0.0
C267 C 0.91912 0.0128 0.62785 0.0
N268 N 0.92265 0.97238 0.65138 0.0
N269 N 0.89664 0.02856 0.6411 0.0
H270 H 0.882 0.00558 0.66739 0.0
H271 H 0.95231 0.95752 0.62643 0.0
C272 C 0.0139 0.94901 0.65698 0.0
O273 O 0.00547 0.98592 0.65361 0.0
N274 N 0.93371 0.87733 0.67918 0.0
C275 C 0.91322 0.8661 0.69397 0.0
C276 C 0.92658 0.82977 0.69936 0.0
C277 C 0.95855 0.84779 0.67553 0.0
N278 N 0.9549 0.81848 0.68767 0.0
C279 C 0.89457 0.96242 0.69666 0.0
C280 C 0.96373 0.97291 0.7157 0.0
C281 C 0.92803 0.98006 0.7246 0.0
C282 C 0.89315 0.9754 0.71469 0.0
C283 C 0.96388 0.95965 0.69771 0.0
N284 N 0.92955 0.95406 0.68837 0.0
H285 H 0.8672 0.95715 0.68965 0.0
H286 H 0.99182 0.95189 0.69195 0.0
H287 H 0.88989 0.88274 0.70028 0.0
H288 H 0.97897 0.84782 0.66426 0.0
O289 O 0.87231 0.91395 0.66286 0.0
O290 O 0.9187 0.89421 0.64396 0.0
O291 O 0.98761 0.92509 0.66259 0.0
C292 C 0.88184 0.89391 0.6484 0.0
H293 H 0.92314 0.0247 0.61436 0.0
H294 H 0.91576 0.81259 0.71068 0.0
H295 H 0.99141 0.97547 0.72286 0.0
H296 H 0.86485 0.98083 0.72095 0.0
Co297 Co 0.81873 0.1806 0.41514 0.0
C298 C 0.74038 0.15122 0.40485 0.0
C299 C 0.7658 0.18626 0.38374 0.0
C300 C 0.73109 0.17055 0.37743 0.0
N301 N 0.7712 0.17468 0.40106 0.0
N302 N 0.71521 0.14827 0.39072 0.0
H303 H 0.73791 0.13418 0.41712 0.0
H304 H 0.78639 0.2038 0.37602 0.0
C305 C 0.79497 0.26587 0.40637 0.0
O306 O 0.75809 0.25744 0.4029 0.0
N307 N 0.86618 0.18571 0.42895 0.0
C308 C 0.87724 0.16513 0.44373 0.0
C309 C 0.91372 0.17818 0.44911 0.0
C310 C 0.89596 0.2103 0.4253 0.0
N311 N 0.92526 0.20638 0.43743 0.0
C312 C 0.78093 0.14713 0.44645 0.0
C313 C 0.77164 0.21642 0.46548 0.0
C314 C 0.76481 0.18084 0.47457 0.0
C315 C 0.76858 0.14591 0.4646 0.0
C316 C 0.78415 0.21637 0.44738 0.0
N317 N 0.78938 0.18197 0.43807 0.0
H318 H 0.786 0.11969 0.4395 0.0
H319 H 0.79155 0.24425 0.44146 0.0
H320 H 0.86045 0.14188 0.45001 0.0
H321 H 0.89614 0.23066 0.414 0.0
O322 O 0.82936 0.12432 0.41273 0.0
O323 O 0.84945 0.17036 0.39374 0.0
O324 O 0.81874 0.23964 0.41217 0.0
C325 C 0.84957 0.13358 0.39828 0.0
H326 H 0.7194 0.17418 0.36387 0.0
H327 H 0.93085 0.16716 0.4604 0.0
H328 H 0.76849 0.24427 0.47243 0.0
H329 H 0.76416 0.1176 0.47098 0.0
Co330 Co 0.5666 0.06842 0.16533 0.0
C331 C 0.59434 0.98958 0.1548 0.0
C332 C 0.55996 0.01612 0.13375 0.0
C333 C 0.57438 0.98091 0.12742 0.0
N334 N 0.57196 0.02116 0.15104 0.0
N335 N 0.59619 0.9643 0.14068 0.0
H336 H 0.61122 0.98642 0.16709 0.0
H337 H 0.54277 0.03713 0.12612 0.0
C338 C 0.4812 0.04441 0.15707 0.0
O339 O 0.48969 0.0075 0.15376 0.0
N340 N 0.5619 0.11558 0.17934 0.0
C341 C 0.58282 0.12645 0.19406 0.0
C342 C 0.56982 0.16279 0.19963 0.0
C343 C 0.53716 0.1453 0.17592 0.0
N344 N 0.54131 0.1744 0.18813 0.0
C345 C 0.60055 0.03008 0.19639 0.0
C346 C 0.53152 0.02094 0.21565 0.0
C347 C 0.56723 0.01401 0.22461 0.0
C348 C 0.60204 0.01765 0.21452 0.0
C349 C 0.53132 0.03357 0.19759 0.0
N350 N 0.56558 0.03874 0.18816 0.0
H351 H 0.6279 0.03504 0.18931 0.0
H352 H 0.50335 0.04119 0.19182 0.0
H353 H 0.60625 0.10961 0.20016 0.0
H354 H 0.5165 0.14558 0.16474 0.0
O355 O 0.62289 0.07906 0.16269 0.0
O356 O 0.57643 0.09947 0.144 0.0
O357 O 0.50749 0.06845 0.16259 0.0
C358 C 0.61332 0.09955 0.14837 0.0
H359 H 0.57005 0.96922 0.11391 0.0
H360 H 0.58105 0.17976 0.21094 0.0
H361 H 0.50375 0.01785 0.2227 0.0
H362 H 0.63044 0.01307 0.2208 0.0
Co363 Co 0.67511 0.81519 0.91582 0.0
C364 C 0.7535 0.84444 0.90554 0.0
C365 C 0.72831 0.80899 0.88452 0.0
C366 C 0.763 0.82471 0.8782 0.0
N367 N 0.72277 0.82081 0.9018 0.0
N368 N 0.77873 0.84726 0.89143 0.0
H369 H 0.7558 0.8617 0.91776 0.0
H370 H 0.70779 0.7913 0.87682 0.0
C371 C 0.69825 0.72957 0.90724 0.0
O372 O 0.7351 0.73758 0.90349 0.0
N373 N 0.62752 0.81031 0.92954 0.0
C374 C 0.61621 0.83086 0.9443 0.0
C375 C 0.57971 0.81765 0.94959 0.0
C376 C 0.59788 0.78561 0.92582 0.0
N377 N 0.56842 0.78937 0.93788 0.0
C378 C 0.7124 0.84929 0.94711 0.0
C379 C 0.7239 0.78014 0.966 0.0
C380 C 0.73059 0.81584 0.97498 0.0
C381 C 0.72544 0.85073 0.96515 0.0
C382 C 0.71054 0.77998 0.94803 0.0
N383 N 0.70436 0.8143 0.93877 0.0
H384 H 0.70684 0.87664 0.94016 0.0
H385 H 0.70329 0.75199 0.94218 0.0
H386 H 0.63287 0.85414 0.95064 0.0
H387 H 0.59795 0.76521 0.91454 0.0
O388 O 0.66452 0.87142 0.91311 0.0
O389 O 0.6446 0.82492 0.89431 0.0
O390 O 0.67495 0.7561 0.91312 0.0
C391 C 0.64448 0.86181 0.89866 0.0
H392 H 0.77477 0.8209 0.86467 0.0
H393 H 0.56243 0.82855 0.96086 0.0
H394 H 0.72694 0.75244 0.9731 0.0
H395 H 0.73055 0.87902 0.97145 0.0
Co396 Co 0.9287 0.06964 0.86139 0.0
C397 C 0.89881 0.99149 0.87187 0.0
C398 C 0.9342 0.01694 0.89286 0.0
C399 C 0.9186 0.98226 0.89923 0.0
N400 N 0.92233 0.02232 0.87557 0.0
N401 N 0.89612 0.96634 0.88601 0.0
H402 H 0.8817 0.98891 0.85962 0.0
H403 H 0.95199 0.03747 0.90049 0.0
C404 C 0.01381 0.04512 0.87011 0.0
O405 O 0.00516 0.00822 0.87339 0.0
N406 N 0.93438 0.1169 0.84752 0.0
C407 C 0.9143 0.12794 0.83258 0.0
C408 C 0.9278 0.16425 0.8272 0.0
C409 C 0.95911 0.14651 0.85125 0.0
N410 N 0.95578 0.1757 0.83903 0.0
C411 C 0.89534 0.03142 0.83018 0.0
C412 C 0.96469 0.02221 0.81117 0.0
C413 C 0.92913 0.01509 0.80211 0.0
C414 C 0.89416 0.01884 0.81207 0.0
C415 C 0.9646 0.03497 0.82923 0.0
N416 N 0.93017 0.04009 0.83854 0.0
H417 H 0.86786 0.03649 0.83712 0.0
H418 H 0.99245 0.04271 0.8351 0.0
H419 H 0.89115 0.11121 0.82618 0.0
H420 H 0.9792 0.14662 0.86265 0.0
O421 O 0.87248 0.08065 0.86358 0.0
O422 O 0.91834 0.10063 0.88271 0.0
O423 O 0.98769 0.06922 0.86453 0.0
C424 C 0.88162 0.10096 0.87801 0.0
H425 H 0.92257 0.97052 0.91275 0.0
H426 H 0.91726 0.18131 0.81579 0.0
H427 H 0.99257 0.01914 0.80422 0.0
H428 H 0.86585 0.01421 0.8057 0.0
Co429 Co 0.67544 0.17947 0.61135 0.0
C430 C 0.75365 0.14991 0.62178 0.0
C431 C 0.72812 0.18492 0.64287 0.0
C432 C 0.76279 0.16925 0.64921 0.0
N433 N 0.72281 0.17334 0.62554 0.0
N434 N 0.77875 0.147 0.63594 0.0
H435 H 0.75623 0.13293 0.60949 0.0
H436 H 0.70753 0.20251 0.65056 0.0
C437 C 0.6997 0.26463 0.62014 0.0
O438 O 0.73651 0.25602 0.62365 0.0
N439 N 0.62817 0.18483 0.59745 0.0
C440 C 0.61713 0.16444 0.5826 0.0
C441 C 0.58078 0.17772 0.57718 0.0
C442 C 0.59852 0.20954 0.60109 0.0
N443 N 0.56931 0.20588 0.5889 0.0
C444 C 0.71339 0.14576 0.58014 0.0
C445 C 0.72379 0.21502 0.5612 0.0
C446 C 0.73084 0.17941 0.55221 0.0
C447 C 0.72629 0.14448 0.56209 0.0
C448 C 0.71063 0.21504 0.5792 0.0
N449 N 0.70502 0.18066 0.58849 0.0
H450 H 0.70811 0.11835 0.5871 0.0
H451 H 0.70291 0.24292 0.58503 0.0
H452 H 0.63385 0.14118 0.5763 0.0
H453 H 0.59837 0.22981 0.61243 0.0
O454 O 0.6644 0.12325 0.61378 0.0
O455 O 0.64447 0.16948 0.63271 0.0
O456 O 0.67579 0.23852 0.61432 0.0
C457 C 0.64415 0.13267 0.62819 0.0
H458 H 0.77444 0.17295 0.66277 0.0
H459 H 0.56369 0.1669 0.56583 0.0
H460 H 0.72629 0.24275 0.55408 0.0
H461 H 0.73169 0.11624 0.55578 0.0
Co462 Co 0.56705 0.92464 0.36141 0.0
C463 C 0.59601 0.00328 0.3716 0.0
C464 C 0.56064 0.97797 0.39263 0.0
C465 C 0.57581 0.01297 0.39886 0.0
N466 N 0.57277 0.9723 0.3754 0.0
N467 N 0.59827 0.0288 0.38562 0.0
H468 H 0.61325 0.00574 0.35939 0.0
H469 H 0.54295 0.95746 0.40032 0.0
C470 C 0.48166 0.949 0.36956 0.0
O471 O 0.49017 0.98594 0.37282 0.0
N472 N 0.56201 0.87705 0.34771 0.0
C473 C 0.58257 0.86574 0.33296 0.0
C474 C 0.56945 0.82921 0.3277 0.0
C475 C 0.53736 0.84738 0.35146 0.0
N476 N 0.54122 0.8179 0.33942 0.0
C477 C 0.60141 0.96211 0.33022 0.0
C478 C 0.53249 0.97233 0.31097 0.0
C479 C 0.56829 0.97954 0.30216 0.0
C480 C 0.60305 0.97499 0.31217 0.0
C481 C 0.53212 0.95915 0.32896 0.0
N482 N 0.56632 0.95373 0.33842 0.0
H483 H 0.62869 0.95696 0.33731 0.0
H484 H 0.50411 0.95132 0.33465 0.0
H485 H 0.60582 0.88243 0.32661 0.0
H486 H 0.51695 0.84744 0.36274 0.0
O487 O 0.62325 0.91385 0.36411 0.0
O488 O 0.57666 0.89419 0.38294 0.0
O489 O 0.50794 0.92493 0.3641 0.0
C490 C 0.61357 0.89388 0.37856 0.0
H491 H 0.57157 0.02499 0.41232 0.0
H492 H 0.58039 0.81192 0.31644 0.0
H493 H 0.50489 0.97478 0.30373 0.0
H494 H 0.63141 0.98046 0.30598 0.0
Co495 Co 0.81748 0.81579 0.11249 0.0
C496 C 0.7378 0.84231 0.12185 0.0
C497 C 0.76222 0.80621 0.14281 0.0
C498 C 0.72681 0.82087 0.1488 0.0
N499 N 0.7687 0.81913 0.12577 0.0
N500 N 0.71157 0.84382 0.13561 0.0
H501 H 0.73609 0.86038 0.10987 0.0
H502 H 0.78265 0.7887 0.15063 0.0
C503 C 0.79749 0.72884 0.12021 0.0
O504 O 0.76001 0.73498 0.12329 0.0
N505 N 0.86617 0.81317 0.09957 0.0
C506 C 0.87743 0.83302 0.08459 0.0
C507 C 0.91521 0.8219 0.08029 0.0
C508 C 0.89704 0.79116 0.10443 0.0
N509 N 0.92724 0.79587 0.0929 0.0
C510 C 0.78056 0.84853 0.08078 0.0
C511 C 0.7739 0.77929 0.06148 0.0
C512 C 0.76591 0.81474 0.0525 0.0
C513 C 0.7685 0.84963 0.06259 0.0
C514 C 0.78612 0.77947 0.07963 0.0
N515 N 0.7899 0.81386 0.08909 0.0
H516 H 0.78451 0.87601 0.08786 0.0
H517 H 0.79426 0.75175 0.08549 0.0
H518 H 0.85978 0.85423 0.07736 0.0
H519 H 0.8972 0.77167 0.11606 0.0
O520 O 0.82567 0.87238 0.11538 0.0
O521 O 0.84603 0.82666 0.13446 0.0
O522 O 0.82007 0.7567 0.11505 0.0
C523 C 0.84539 0.8635 0.13002 0.0
H524 H 0.71427 0.81627 0.16213 0.0
H525 H 0.93263 0.83233 0.06897 0.0
H526 H 0.77172 0.75144 0.05444 0.0
H527 H 0.7632 0.87788 0.0563 0.0
Co528 Co 0.56282 0.56814 0.86209 0.0
C529 C 0.59094 0.48969 0.87338 0.0
C530 C 0.55897 0.51863 0.8946 0.0
C531 C 0.57484 0.48461 0.90152 0.0
N532 N 0.56879 0.52163 0.8769 0.0
N533 N 0.59501 0.46658 0.88815 0.0
H534 H 0.60653 0.48488 0.86083 0.0
H535 H 0.54281 0.54056 0.90216 0.0
C536 C 0.47805 0.5437 0.8711 0.0
O537 O 0.48748 0.50758 0.87553 0.0
N538 N 0.55747 0.61467 0.84767 0.0
C539 C 0.57782 0.62507 0.83271 0.0
C540 C 0.56497 0.66147 0.82714 0.0
C541 C 0.53319 0.64473 0.85121 0.0
N542 N 0.53711 0.67362 0.83888 0.0
C543 C 0.59749 0.52869 0.83155 0.0
C544 C 0.52887 0.51818 0.81209 0.0
C545 C 0.56482 0.511 0.8034 0.0
C546 C 0.59941 0.51553 0.81354 0.0
C547 C 0.52822 0.53162 0.83006 0.0
N548 N 0.5623 0.53741 0.83957 0.0
H549 H 0.62466 0.53392 0.83872 0.0
H550 H 0.50013 0.53949 0.83565 0.0
H551 H 0.6009 0.60797 0.82647 0.0
H552 H 0.51315 0.64546 0.86263 0.0
O553 O 0.61899 0.57943 0.86462 0.0
O554 O 0.57238 0.60037 0.88312 0.0
O555 O 0.5037 0.5675 0.86477 0.0
C556 C 0.60931 0.60036 0.87878 0.0
H557 H 0.57318 0.47487 0.91549 0.0
H558 H 0.57599 0.6782 0.81572 0.0
H559 H 0.50139 0.51563 0.80476 0.0
H560 H 0.62787 0.50998 0.80748 0.0
Co561 Co 0.67569 0.31598 0.11201 0.0
C562 C 0.75458 0.34541 0.12167 0.0
C563 C 0.72989 0.31046 0.143 0.0
C564 C 0.76502 0.32588 0.14896 0.0
N565 N 0.72374 0.32214 0.12575 0.0
N566 N 0.78047 0.3481 0.13554 0.0
H567 H 0.75668 0.36234 0.10936 0.0
H568 H 0.70962 0.29289 0.15089 0.0
C569 C 0.70005 0.23061 0.12044 0.0
O570 O 0.73693 0.23907 0.12391 0.0
N571 N 0.62781 0.31065 0.09853 0.0
C572 C 0.61619 0.33135 0.08388 0.0
C573 C 0.57986 0.31782 0.07855 0.0
C574 C 0.59847 0.2855 0.10216 0.0
N575 N 0.56894 0.28916 0.09013 0.0
C576 C 0.71249 0.34993 0.08054 0.0
C577 C 0.72164 0.28083 0.06135 0.0
C578 C 0.72852 0.31649 0.05235 0.0
C579 C 0.72479 0.35134 0.06239 0.0
C580 C 0.70932 0.28069 0.07947 0.0
N581 N 0.70426 0.31499 0.08888 0.0
H582 H 0.70747 0.3773 0.08757 0.0
H583 H 0.70197 0.25275 0.08534 0.0
H584 H 0.63259 0.35491 0.07762 0.0
H585 H 0.59882 0.26483 0.11333 0.0
O586 O 0.66468 0.37215 0.11463 0.0
O587 O 0.64563 0.32573 0.13366 0.0
O588 O 0.67615 0.2569 0.11484 0.0
C589 C 0.64497 0.36254 0.12918 0.0
H590 H 0.77737 0.32195 0.16237 0.0
H591 H 0.56245 0.32873 0.06733 0.0
H592 H 0.72466 0.25307 0.0543 0.0
H593 H 0.72928 0.37968 0.05605 0.0
Co594 Co 0.93001 0.42555 0.36061 0.0
C595 C 0.90072 0.50385 0.37096 0.0
C596 C 0.93669 0.47884 0.39182 0.0
C597 C 0.92106 0.51349 0.3982 0.0
N598 N 0.92448 0.47322 0.37461 0.0
N599 N 0.89819 0.52911 0.38507 0.0
H600 H 0.88319 0.50609 0.35881 0.0
H601 H 0.95459 0.45841 0.39945 0.0
C602 C 0.01556 0.44895 0.36912 0.0
O603 O 0.00755 0.48606 0.3722 0.0
N604 N 0.93474 0.37797 0.34691 0.0
C605 C 0.91412 0.36694 0.33212 0.0
C606 C 0.92687 0.33034 0.32682 0.0
C607 C 0.95905 0.34805 0.35064 0.0
N608 N 0.95492 0.31869 0.33856 0.0
C609 C 0.89718 0.46348 0.32915 0.0
C610 C 0.96684 0.4717 0.31028 0.0
C611 C 0.93148 0.47884 0.30107 0.0
C612 C 0.89634 0.47564 0.31096 0.0
C613 C 0.96641 0.45935 0.32838 0.0
N614 N 0.93183 0.45466 0.33763 0.0
H615 H 0.86959 0.45877 0.33606 0.0
H616 H 0.99414 0.45157 0.33433 0.0
H617 H 0.89106 0.38388 0.32578 0.0
H618 H 0.97938 0.34783 0.36195 0.0
O619 O 0.87358 0.41529 0.36304 0.0
O620 O 0.91954 0.3952 0.38208 0.0
O621 O 0.98903 0.42513 0.36366 0.0
C622 C 0.88273 0.39523 0.37755 0.0
H623 H 0.92516 0.52532 0.4117 0.0
H624 H 0.91578 0.31322 0.31553 0.0
H625 H 0.99485 0.47442 0.30339 0.0
H626 H 0.86817 0.48036 0.30449 0.0
Co627 Co 0.81985 0.67834 0.61157 0.0
C628 C 0.74159 0.64904 0.62216 0.0
C629 C 0.76727 0.6844 0.64309 0.0
C630 C 0.73254 0.66896 0.64951 0.0
N631 N 0.77254 0.67244 0.62581 0.0
N632 N 0.71648 0.64651 0.63633 0.0
H633 H 0.73891 0.63186 0.60993 0.0
H634 H 0.78792 0.70213 0.65069 0.0
C635 C 0.79533 0.76354 0.61988 0.0
O636 O 0.7585 0.75485 0.62333 0.0
N637 N 0.86709 0.68353 0.59761 0.0
C638 C 0.87819 0.66279 0.58288 0.0
C639 C 0.91447 0.67613 0.57735 0.0
C640 C 0.89663 0.70852 0.60108 0.0
N641 N 0.92584 0.70469 0.58889 0.0
C642 C 0.78187 0.64388 0.58053 0.0
C643 C 0.77105 0.71277 0.56136 0.0
C644 C 0.76399 0.67697 0.55253 0.0
C645 C 0.7688 0.64222 0.56251 0.0
C646 C 0.78443 0.71316 0.57932 0.0
N647 N 0.7902 0.67897 0.58873 0.0
H648 H 0.78727 0.61662 0.58759 0.0
H649 H 0.79216 0.74118 0.585 0.0
H650 H 0.86155 0.63926 0.57673 0.0
H651 H 0.89671 0.7291 0.61229 0.0
O652 O 0.8309 0.6222 0.61424 0.0
O653 O 0.85087 0.66887 0.63294 0.0
O654 O 0.8194 0.73741 0.61427 0.0
C655 C 0.85115 0.63197 0.6286 0.0
H656 H 0.72087 0.67298 0.66305 0.0
H657 H 0.93159 0.66506 0.56607 0.0
H658 H 0.76837 0.74036 0.55414 0.0
H659 H 0.76344 0.61386 0.55631 0.0
Co660 Co 0.5658 0.42503 0.66604 0.0
C661 C 0.59523 0.50342 0.65586 0.0
C662 C 0.55961 0.47838 0.63485 0.0
C663 C 0.57518 0.51316 0.62858 0.0
N664 N 0.57163 0.4727 0.65209 0.0
N665 N 0.59783 0.5288 0.6418 0.0
H666 H 0.61254 0.50568 0.66806 0.0
H667 H 0.54182 0.45795 0.62715 0.0
C668 C 0.48047 0.44908 0.65753 0.0
O669 O 0.48888 0.48609 0.65441 0.0
N670 N 0.56076 0.37744 0.67972 0.0
C671 C 0.58146 0.36618 0.69444 0.0
C672 C 0.56843 0.32965 0.69973 0.0
C673 C 0.53614 0.34773 0.67601 0.0
N674 N 0.54014 0.31829 0.68805 0.0
C675 C 0.59921 0.46246 0.6975 0.0
C676 C 0.52979 0.47118 0.71651 0.0
C677 C 0.56532 0.47785 0.72568 0.0
C678 C 0.60033 0.47442 0.71571 0.0
C679 C 0.52995 0.45903 0.69836 0.0
N680 N 0.5644 0.45406 0.68906 0.0
H681 H 0.6267 0.45759 0.69053 0.0
H682 H 0.50209 0.45163 0.69242 0.0
H683 H 0.60476 0.38289 0.70074 0.0
H684 H 0.51568 0.34771 0.66475 0.0
O685 O 0.62212 0.4144 0.66354 0.0
O686 O 0.57592 0.39464 0.64454 0.0
O687 O 0.50672 0.42505 0.66307 0.0
C688 C 0.61275 0.39442 0.64903 0.0
H689 H 0.57115 0.52508 0.61509 0.0
H690 H 0.57951 0.31238 0.71096 0.0
H691 H 0.50188 0.47412 0.72344 0.0
H692 H 0.62861 0.47879 0.72215 0.0
Co693 Co 0.81971 0.31643 0.91585 0.0
C694 C 0.73968 0.34345 0.90648 0.0
C695 C 0.76951 0.3195 0.88341 0.0
C696 C 0.73485 0.33606 0.87763 0.0
N697 N 0.7725 0.324 0.90155 0.0
N698 N 0.71612 0.35151 0.89215 0.0
H699 H 0.73408 0.35326 0.92011 0.0
H700 H 0.79187 0.30673 0.8748 0.0
C701 C 0.7951 0.23282 0.90513 0.0
O702 O 0.76076 0.24371 0.8988 0.0
N703 N 0.86675 0.30985 0.92984 0.0
C704 C 0.87837 0.33025 0.94459 0.0
C705 C 0.91456 0.31645 0.94995 0.0
C706 C 0.89597 0.2846 0.92619 0.0
N707 N 0.92542 0.28795 0.93828 0.0
C708 C 0.78335 0.3513 0.94716 0.0
C709 C 0.76864 0.28221 0.96563 0.0
C710 C 0.76361 0.31794 0.97484 0.0
C711 C 0.77023 0.35283 0.96517 0.0
C712 C 0.78194 0.28194 0.94765 0.0
N713 N 0.78994 0.3162 0.93866 0.0
H714 H 0.78979 0.37855 0.94028 0.0
H715 H 0.78754 0.2538 0.94154 0.0
H716 H 0.8623 0.35406 0.95081 0.0
H717 H 0.89574 0.26435 0.91485 0.0
O718 O 0.83214 0.37233 0.91337 0.0
O719 O 0.85137 0.32548 0.89461 0.0
O720 O 0.81776 0.25736 0.91309 0.0
C721 C 0.85232 0.36233 0.89902 0.0
H722 H 0.72573 0.33867 0.86362 0.0
H723 H 0.93206 0.32729 0.96116 0.0
H724 H 0.76432 0.25446 0.97254 0.0
H725 H 0.76617 0.38117 0.97159 0.0
Co726 Co 0.93457 0.56743 0.16421 0.0
C727 C 0.90478 0.4893 0.15388 0.0
C728 C 0.9392 0.51479 0.13258 0.0
C729 C 0.92291 0.48032 0.12628 0.0
N730 N 0.92834 0.52003 0.15002 0.0
N731 N 0.90103 0.4644 0.1397 0.0
H732 H 0.88816 0.48675 0.16627 0.0
H733 H 0.95656 0.53538 0.12477 0.0
C734 C 0.01996 0.54318 0.15561 0.0
O735 O 0.01094 0.50685 0.15134 0.0
N736 N 0.93976 0.61465 0.17815 0.0
C737 C 0.91884 0.62564 0.19285 0.0
C738 C 0.93135 0.66231 0.19817 0.0
C739 C 0.96403 0.64468 0.17448 0.0
N740 N 0.95954 0.67406 0.18652 0.0
C741 C 0.89985 0.52994 0.19528 0.0
C742 C 0.96857 0.51876 0.21455 0.0
C743 C 0.93263 0.5123 0.22338 0.0
C744 C 0.89798 0.51719 0.21334 0.0
C745 C 0.96917 0.53178 0.19652 0.0
N746 N 0.93505 0.53785 0.18708 0.0
H747 H 0.87263 0.53548 0.18821 0.0
H748 H 0.9973 0.53896 0.19077 0.0
H749 H 0.89552 0.6088 0.19905 0.0
H750 H 0.98439 0.64509 0.16318 0.0
O751 O 0.87843 0.57855 0.16159 0.0
O752 O 0.92492 0.5986 0.14283 0.0
O753 O 0.99388 0.56694 0.1616 0.0
C754 C 0.88805 0.59903 0.14729 0.0
H755 H 0.92583 0.46883 0.11264 0.0
H756 H 0.91984 0.6795 0.20934 0.0
H757 H 0.99611 0.51589 0.2218 0.0
H758 H 0.86952 0.5122 0.21951 0.0
Co759 Co 0.67589 0.67835 0.41554 0.0
C760 C 0.75422 0.64897 0.40508 0.0
C761 C 0.72897 0.68486 0.38424 0.0
C762 C 0.76368 0.6694 0.37784 0.0
N763 N 0.72345 0.6726 0.40146 0.0
N764 N 0.77946 0.6466 0.39095 0.0
H765 H 0.75666 0.63152 0.41723 0.0
H766 H 0.70848 0.70278 0.37666 0.0
C767 C 0.70006 0.76372 0.40723 0.0
O768 O 0.73709 0.75537 0.40407 0.0
N769 N 0.62837 0.68341 0.4293 0.0
C770 C 0.61725 0.66301 0.44413 0.0
C771 C 0.58074 0.67608 0.44944 0.0
C772 C 0.59859 0.7079 0.42555 0.0
N773 N 0.56923 0.70411 0.43766 0.0
C774 C 0.71384 0.64466 0.44674 0.0
C775 C 0.72252 0.71373 0.466 0.0
C776 C 0.7296 0.67808 0.47498 0.0
C777 C 0.72615 0.64326 0.46489 0.0
C778 C 0.71003 0.71385 0.44791 0.0
N779 N 0.70515 0.67955 0.43848 0.0
H780 H 0.70898 0.61728 0.43969 0.0
H781 H 0.7023 0.74174 0.44211 0.0
H782 H 0.63407 0.63993 0.45051 0.0
H783 H 0.5985 0.72816 0.41422 0.0
O784 O 0.6652 0.6221 0.41304 0.0
O785 O 0.64528 0.66831 0.39409 0.0
O786 O 0.676 0.73737 0.41266 0.0
C787 C 0.64507 0.6315 0.39859 0.0
H788 H 0.7755 0.67364 0.36434 0.0
H789 H 0.56359 0.66525 0.46077 0.0
H790 H 0.7254 0.74151 0.47305 0.0
H791 H 0.73079 0.6149 0.47119 0.0
Co792 Co 0.42881 0.423 0.16644 0.0
C793 C 0.39912 0.5012 0.15628 0.0
C794 C 0.43343 0.47567 0.13491 0.0
C795 C 0.41751 0.51032 0.12867 0.0
N796 N 0.42243 0.47037 0.15235 0.0
N797 N 0.39573 0.52605 0.14212 0.0
H798 H 0.38334 0.50466 0.16887 0.0
H799 H 0.45055 0.45497 0.12707 0.0
C800 C 0.51379 0.44792 0.15774 0.0
O801 O 0.50471 0.48451 0.15402 0.0
N802 N 0.43435 0.37572 0.18028 0.0
C803 C 0.41384 0.36433 0.19504 0.0
C804 C 0.42734 0.32804 0.2004 0.0
C805 C 0.45936 0.34634 0.17663 0.0
N806 N 0.45577 0.31696 0.18873 0.0
C807 C 0.39435 0.46028 0.19762 0.0
C808 C 0.46341 0.47221 0.21656 0.0
C809 C 0.42763 0.47888 0.22547 0.0
C810 C 0.39278 0.4735 0.21562 0.0
C811 C 0.46371 0.45873 0.19862 0.0
N812 N 0.42944 0.45242 0.18933 0.0
H813 H 0.36705 0.45457 0.19064 0.0
H814 H 0.49176 0.45146 0.19283 0.0
H815 H 0.39032 0.38076 0.2013 0.0
H816 H 0.47977 0.34649 0.16535 0.0
O817 O 0.37267 0.41163 0.16383 0.0
O818 O 0.41933 0.39215 0.14501 0.0
O819 O 0.48793 0.42386 0.16365 0.0
C820 C 0.38243 0.39167 0.14938 0.0
H821 H 0.41971 0.52173 0.11498 0.0
H822 H 0.41647 0.31069 0.21166 0.0
H823 H 0.49108 0.47534 0.22369 0.0
H824 H 0.36443 0.47859 0.22187 0.0
Co825 Co 0.31859 0.6794 0.91541 0.0
C826 C 0.23965 0.65101 0.90503 0.0
C827 C 0.2647 0.68771 0.88446 0.0
C828 C 0.22978 0.67263 0.87803 0.0
N829 N 0.27053 0.67462 0.90153 0.0
N830 N 0.21413 0.64941 0.89101 0.0
H831 H 0.23725 0.63279 0.91689 0.0
H832 H 0.28521 0.70576 0.87694 0.0
C833 C 0.29562 0.76516 0.90755 0.0
O834 O 0.25806 0.75762 0.90547 0.0
N835 N 0.36648 0.68352 0.92892 0.0
C836 C 0.37696 0.6633 0.9439 0.0
C837 C 0.41358 0.67594 0.94928 0.0
C838 C 0.39667 0.70751 0.92518 0.0
N839 N 0.42574 0.70357 0.93743 0.0
C840 C 0.27717 0.64869 0.94651 0.0
C841 C 0.2774 0.7175 0.96635 0.0
C842 C 0.26354 0.68317 0.97478 0.0
C843 C 0.26295 0.64854 0.96437 0.0
C844 C 0.29046 0.71657 0.94836 0.0
N845 N 0.29016 0.68251 0.93851 0.0
H846 H 0.27945 0.62102 0.93942 0.0
H847 H 0.30332 0.74303 0.94302 0.0
H848 H 0.35935 0.64093 0.9504 0.0
H849 H 0.39714 0.72775 0.91384 0.0
O850 O 0.32768 0.6228 0.91332 0.0
O851 O 0.3483 0.66784 0.8939 0.0
O852 O 0.31984 0.73824 0.91209 0.0
C853 C 0.34773 0.63121 0.8987 0.0
H854 H 0.21775 0.67727 0.8646 0.0
H855 H 0.43023 0.66529 0.9608 0.0
H856 H 0.28015 0.74479 0.97379 0.0
H857 H 0.25251 0.62111 0.97002 0.0
Co858 Co 0.06673 0.56963 0.66546 0.0
C859 C 0.09563 0.49115 0.65509 0.0
C860 C 0.06013 0.51655 0.63415 0.0
C861 C 0.07537 0.48168 0.62782 0.0
N862 N 0.07231 0.52208 0.65138 0.0
N863 N 0.09791 0.4658 0.64101 0.0
H864 H 0.11297 0.48864 0.66727 0.0
H865 H 0.0424 0.5371 0.62651 0.0
C866 C 0.98128 0.5454 0.65734 0.0
O867 O 0.9897 0.50848 0.65401 0.0
N868 N 0.06184 0.61712 0.67924 0.0
C869 C 0.08248 0.62831 0.694 0.0
C870 C 0.06934 0.66475 0.69937 0.0
C871 C 0.03714 0.64677 0.67561 0.0
N872 N 0.04103 0.67613 0.6877 0.0
C873 C 0.10125 0.53191 0.69653 0.0
C874 C 0.03245 0.5214 0.71584 0.0
C875 C 0.06831 0.51408 0.72458 0.0
C876 C 0.103 0.51878 0.71453 0.0
C877 C 0.03197 0.5348 0.69789 0.0
N878 N 0.06612 0.54036 0.6884 0.0
H879 H 0.12849 0.53716 0.68941 0.0
H880 H 0.00393 0.54267 0.69225 0.0
H881 H 0.10576 0.61159 0.70029 0.0
H882 H 0.01666 0.64679 0.66435 0.0
O883 O 0.12293 0.58043 0.66269 0.0
O884 O 0.07625 0.60024 0.64397 0.0
O885 O 0.00761 0.56939 0.66285 0.0
C886 C 0.11319 0.60048 0.64828 0.0
H887 H 0.07117 0.4698 0.61433 0.0
H888 H 0.08032 0.68193 0.71066 0.0
H889 H 0.0049 0.51883 0.72312 0.0
H890 H 0.13141 0.51323 0.72065 0.0
Co891 Co 0.17576 0.31521 0.41514 0.0
C892 C 0.25454 0.34361 0.40498 0.0
C893 C 0.22893 0.30889 0.38381 0.0
C894 C 0.26395 0.3241 0.3776 0.0
N895 N 0.22344 0.32059 0.40111 0.0
N896 N 0.27996 0.34616 0.39093 0.0
H897 H 0.2571 0.36062 0.41726 0.0
H898 H 0.20824 0.29155 0.37604 0.0
C899 C 0.19932 0.22971 0.40681 0.0
O900 O 0.23618 0.23804 0.40325 0.0
N901 N 0.12819 0.31064 0.4289 0.0
C902 C 0.11704 0.33167 0.44354 0.0
C903 C 0.08045 0.31893 0.4489 0.0
C904 C 0.09834 0.28608 0.42531 0.0
N905 N 0.06892 0.29046 0.43735 0.0
C906 C 0.21327 0.34965 0.44629 0.0
C907 C 0.22387 0.28083 0.46553 0.0
C908 C 0.23095 0.31666 0.47433 0.0
C909 C 0.22625 0.35137 0.46432 0.0
C910 C 0.21063 0.28038 0.44754 0.0
N911 N 0.20496 0.31454 0.4381 0.0
H912 H 0.20803 0.37689 0.4392 0.0
H913 H 0.20301 0.25235 0.44183 0.0
H914 H 0.13385 0.35503 0.44972 0.0
H915 H 0.0982 0.26543 0.41413 0.0
O916 O 0.1653 0.37142 0.41233 0.0
O917 O 0.14524 0.32481 0.39362 0.0
O918 O 0.17563 0.25607 0.41255 0.0
C919 C 0.14518 0.36174 0.39792 0.0
H920 H 0.2758 0.32029 0.36408 0.0
H921 H 0.06323 0.33032 0.46009 0.0
H922 H 0.22649 0.25326 0.47278 0.0
H923 H 0.23166 0.37975 0.47048 0.0
Co924 Co 0.42901 0.56903 0.3622 0.0
C925 C 0.4001 0.49037 0.37232 0.0
C926 C 0.43503 0.51577 0.39348 0.0
C927 C 0.41987 0.48071 0.39964 0.0
N928 N 0.42317 0.52142 0.37621 0.0
N929 N 0.39769 0.46482 0.38631 0.0
H930 H 0.38307 0.48788 0.36004 0.0
H931 H 0.45253 0.53633 0.40124 0.0
C932 C 0.51434 0.54481 0.37056 0.0
O933 O 0.50585 0.50789 0.37388 0.0
N934 N 0.43412 0.61653 0.34846 0.0
C935 C 0.41345 0.62773 0.33372 0.0
C936 C 0.42677 0.66405 0.32828 0.0
C937 C 0.45904 0.64609 0.35202 0.0
N938 N 0.45525 0.67537 0.33988 0.0
C939 C 0.39523 0.53133 0.33094 0.0
C940 C 0.46441 0.52192 0.31182 0.0
C941 C 0.42875 0.51486 0.30284 0.0
C942 C 0.39387 0.51872 0.31284 0.0
C943 C 0.4645 0.53466 0.32988 0.0
N944 N 0.43016 0.53985 0.33924 0.0
H945 H 0.36783 0.53641 0.33794 0.0
H946 H 0.49243 0.54226 0.33569 0.0
H947 H 0.39003 0.61107 0.32749 0.0
H948 H 0.47961 0.64609 0.36324 0.0
O949 O 0.37276 0.57972 0.36471 0.0
O950 O 0.41902 0.59959 0.38366 0.0
O951 O 0.48806 0.56884 0.36506 0.0
C952 C 0.38219 0.59984 0.37916 0.0
H953 H 0.42389 0.46869 0.41311 0.0
H954 H 0.41581 0.6812 0.31699 0.0
H955 H 0.49221 0.51877 0.30482 0.0
H956 H 0.36551 0.51411 0.30651 0.0
Co957 Co 0.17709 0.68054 0.11337 0.0
C958 C 0.24808 0.64463 0.12957 0.0
C959 C 0.2583 0.70471 0.12233 0.0
C960 C 0.29334 0.68853 0.12787 0.0
N961 N 0.22987 0.67711 0.12326 0.0
N962 N 0.28679 0.65075 0.13234 0.0
H963 H 0.23422 0.61617 0.13075 0.0
H964 H 0.25488 0.73388 0.11694 0.0
C965 C 0.18738 0.77148 0.11155 0.0
O966 O 0.20778 0.77246 0.09644 0.0
N967 N 0.12486 0.68324 0.10359 0.0
C968 C 0.10985 0.6593 0.09074 0.0
C969 C 0.07304 0.67254 0.08621 0.0
C970 C 0.09696 0.71004 0.10708 0.0
N971 N 0.06526 0.70434 0.09649 0.0
C972 C 0.22728 0.66135 0.08293 0.0
C973 C 0.19068 0.70997 0.05808 0.0
C974 C 0.22109 0.68551 0.0519 0.0
C975 C 0.23974 0.66126 0.06476 0.0
C976 C 0.17985 0.70983 0.07637 0.0
N977 N 0.19803 0.68584 0.08867 0.0
H978 H 0.24063 0.64091 0.09227 0.0
H979 H 0.15595 0.72868 0.08053 0.0
H980 H 0.12525 0.63483 0.08465 0.0
H981 H 0.10029 0.73405 0.1166 0.0
O982 O 0.1698 0.6236 0.11459 0.0
O983 O 0.15506 0.66581 0.1364 0.0
O984 O 0.17599 0.73907 0.11857 0.0
C985 C 0.15346 0.62998 0.13041 0.0
H986 H 0.32171 0.70293 0.12784 0.0
H987 H 0.05368 0.66015 0.07604 0.0
H988 H 0.17427 0.72846 0.04885 0.0
H989 H 0.26359 0.64198 0.06091 0.0
Co990 Co 0.06762 0.42478 0.86148 0.0
C991 C 0.09612 0.50368 0.87159 0.0
C992 C 0.06097 0.47818 0.89265 0.0
C993 C 0.07569 0.5134 0.89881 0.0
N994 N 0.0732 0.47249 0.87545 0.0
N995 N 0.09804 0.52937 0.88556 0.0
H996 H 0.11332 0.50622 0.85936 0.0
H997 H 0.04341 0.45757 0.90036 0.0
C998 C 0.98222 0.44876 0.86977 0.0
O999 O 0.99051 0.4858 0.8729 0.0
N1000 N 0.06274 0.37717 0.84778 0.0
C1001 C 0.08357 0.36589 0.8331 0.0
C1002 C 0.07043 0.32946 0.82772 0.0
C1003 C 0.03789 0.34757 0.85136 0.0
N1004 N 0.04189 0.31817 0.83929 0.0
C1005 C 0.1015 0.46227 0.83016 0.0
C1006 C 0.03231 0.47169 0.81106 0.0
C1007 C 0.06796 0.47853 0.80202 0.0
C1008 C 0.10286 0.47468 0.81202 0.0
C1009 C 0.03224 0.45908 0.82912 0.0
N1010 N 0.06657 0.45383 0.83848 0.0
H1011 H 0.12889 0.45723 0.83718 0.0
H1012 H 0.00429 0.45165 0.83497 0.0
H1013 H 0.10701 0.38255 0.82688 0.0
H1014 H 0.01724 0.34762 0.86255 0.0
O1015 O 0.12389 0.41414 0.86415 0.0
O1016 O 0.07737 0.3944 0.88299 0.0
O1017 O 0.00855 0.4248 0.86427 0.0
C1018 C 0.11426 0.39412 0.87861 0.0
H1019 H 0.0712 0.52549 0.91224 0.0
H1020 H 0.08155 0.31222 0.81648 0.0
H1021 H 0.00449 0.4749 0.80408 0.0
H1022 H 0.13122 0.47916 0.80568 0.0
Co1023 Co 0.31965 0.31609 0.61131 0.0
C1024 C 0.24116 0.34505 0.62158 0.0
C1025 C 0.26643 0.30962 0.64258 0.0
C1026 C 0.23157 0.32498 0.64887 0.0
N1027 N 0.27203 0.32167 0.62534 0.0
N1028 N 0.21577 0.3475 0.63565 0.0
H1029 H 0.23878 0.36234 0.60938 0.0
H1030 H 0.28695 0.29194 0.65026 0.0
C1031 C 0.29565 0.23069 0.61961 0.0
O1032 O 0.25868 0.23904 0.62289 0.0
N1033 N 0.36717 0.31131 0.59754 0.0
C1034 C 0.37839 0.33226 0.58289 0.0
C1035 C 0.41488 0.31932 0.57749 0.0
C1036 C 0.39686 0.28659 0.60109 0.0
N1037 N 0.42626 0.29079 0.58903 0.0
C1038 C 0.28211 0.34997 0.58 0.0
C1039 C 0.27253 0.28079 0.56091 0.0
C1040 C 0.26585 0.3164 0.55186 0.0
C1041 C 0.26974 0.35131 0.56185 0.0
C1042 C 0.28508 0.28073 0.57899 0.0
N1043 N 0.29044 0.31506 0.58834 0.0
H1044 H 0.28725 0.37736 0.58701 0.0
H1045 H 0.29239 0.25279 0.58485 0.0
H1046 H 0.36169 0.3557 0.57672 0.0
H1047 H 0.39691 0.26593 0.61227 0.0
O1048 O 0.33034 0.37235 0.61401 0.0
O1049 O 0.35018 0.32583 0.6328 0.0
O1050 O 0.31961 0.25702 0.61406 0.0
C1051 C 0.3504 0.36272 0.62845 0.0
H1052 H 0.21967 0.32091 0.66236 0.0
H1053 H 0.43211 0.3306 0.56629 0.0
H1054 H 0.26926 0.25297 0.55394 0.0
H1055 H 0.26537 0.37964 0.55549 0.0
C1056 C 0.19742 0.16885 0.38729 0.0
C1057 C 0.18253 0.19085 0.40196 0.0
H1058 H 0.18666 0.12232 0.36812 0.0
C1059 C 0.14756 0.1784 0.4103 0.0
H1060 H 0.22421 0.17786 0.38052 0.0
C1061 C 0.1264 0.14666 0.40335 0.0
C1062 C 0.13937 0.12668 0.38773 0.0
H1063 H 0.13546 0.19447 0.42171 0.0
H1064 H 0.09858 0.13927 0.40964 0.0
C1065 C 0.17591 0.13707 0.38018 0.0
C1066 C 0.06531 0.89746 0.66036 0.0
C1067 C 0.05282 0.93246 0.6521 0.0
H1068 H 0.10445 0.84854 0.65956 0.0
C1069 C 0.07477 0.94755 0.63746 0.0
H1070 H 0.04928 0.88522 0.67176 0.0
C1071 C 0.10655 0.92617 0.63029 0.0
C1072 C 0.11695 0.88958 0.63775 0.0
H1073 H 0.06572 0.97437 0.63075 0.0
H1074 H 0.12128 0.93707 0.61825 0.0
C1075 C 0.09703 0.87641 0.65334 0.0
C1076 C 0.34744 0.81625 0.91073 0.0
C1077 C 0.31221 0.80397 0.9026 0.0
H1078 H 0.39658 0.85512 0.90978 0.0
C1079 C 0.29699 0.82593 0.88801 0.0
H1080 H 0.35977 0.80012 0.92207 0.0
C1081 C 0.3185 0.85754 0.88073 0.0
C1082 C 0.3553 0.86776 0.88808 0.0
H1083 H 0.27 0.81695 0.8814 0.0
H1084 H 0.30753 0.87227 0.86872 0.0
C1085 C 0.36856 0.84784 0.90364 0.0
C1086 C 0.39739 0.11632 0.15385 0.0
C1087 C 0.37739 0.10314 0.13828 0.0
H1088 H 0.44553 0.10779 0.17209 0.0
C1089 C 0.38801 0.06671 0.13071 0.0
H1090 H 0.38982 0.14406 0.16016 0.0
C1091 C 0.42007 0.04555 0.13774 0.0
C1092 C 0.44211 0.06072 0.15234 0.0
H1093 H 0.37324 0.05582 0.11869 0.0
H1094 H 0.42927 0.01887 0.13095 0.0
C1095 C 0.42942 0.09551 0.16072 0.0
C1096 C 0.15475 0.83712 0.11002 0.0
C1097 C 0.17442 0.8084 0.12023 0.0
H1098 H 0.11808 0.88846 0.11076 0.0
C1099 C 0.17708 0.8129 0.13917 0.0
H1100 H 0.15186 0.83399 0.09544 0.0
C1101 C 0.15907 0.84481 0.14785 0.0
C1102 C 0.13696 0.87195 0.13777 0.0
H1103 H 0.19188 0.79093 0.14733 0.0
H1104 H 0.15985 0.84651 0.16254 0.0
C1105 C 0.13552 0.86825 0.11877 0.0
C1106 C 0.4299 0.89777 0.36603 0.0
C1107 C 0.44259 0.93266 0.37435 0.0
H1108 H 0.39039 0.84911 0.36671 0.0
C1109 C 0.42063 0.94783 0.38897 0.0
H1110 H 0.44595 0.88548 0.35466 0.0
C1111 C 0.38865 0.9266 0.39608 0.0
C1112 C 0.37803 0.89011 0.38856 0.0
H1113 H 0.42983 0.97456 0.39572 0.0
H1114 H 0.37393 0.93752 0.40811 0.0
C1115 C 0.39796 0.8769 0.37297 0.0
C1116 C 0.36807 0.14736 0.62307 0.0
C1117 C 0.3548 0.12733 0.63862 0.0
H1118 H 0.35945 0.19534 0.60478 0.0
C1119 C 0.31822 0.13777 0.6461 0.0
H1120 H 0.39593 0.13992 0.61684 0.0
C1121 C 0.29694 0.16967 0.63899 0.0
C1122 C 0.31214 0.19173 0.62442 0.0
H1123 H 0.30725 0.12296 0.6581 0.0
H1124 H 0.27012 0.17874 0.64572 0.0
C1125 C 0.34713 0.17922 0.61613 0.0
C1126 C 0.09779 0.11691 0.87337 0.0
C1127 C 0.11755 0.10392 0.88904 0.0
H1128 H 0.0499 0.10818 0.85502 0.0
C1129 C 0.10673 0.06761 0.89668 0.0
H1130 H 0.10553 0.14455 0.86701 0.0
C1131 C 0.0747 0.04639 0.88962 0.0
C1132 C 0.05291 0.06138 0.87491 0.0
H1133 H 0.12131 0.05688 0.90878 0.0
H1134 H 0.06532 0.01983 0.89646 0.0
C1135 C 0.06582 0.09604 0.86647 0.0
C1136 C 0.79666 0.8244 0.63938 0.0
C1137 C 0.81164 0.80261 0.62467 0.0
H1138 H 0.80721 0.8709 0.65858 0.0
C1139 C 0.84637 0.81544 0.61624 0.0
H1140 H 0.77005 0.81509 0.64621 0.0
C1141 C 0.86733 0.84732 0.62319 0.0
C1142 C 0.85434 0.86704 0.63886 0.0
H1143 H 0.85851 0.79953 0.60479 0.0
H1144 H 0.89502 0.85499 0.61684 0.0
C1145 C 0.81796 0.85633 0.64648 0.0
C1146 C 0.92821 0.09726 0.36639 0.0
C1147 C 0.94054 0.06243 0.37486 0.0
H1148 H 0.88919 0.14629 0.36685 0.0
C1149 C 0.91843 0.04778 0.38955 0.0
H1150 H 0.94435 0.10915 0.35495 0.0
C1151 C 0.88665 0.06944 0.39655 0.0
C1152 C 0.8764 0.10586 0.38887 0.0
H1153 H 0.92734 0.0211 0.39642 0.0
H1154 H 0.8718 0.05889 0.40862 0.0
C1155 C 0.89648 0.11857 0.37324 0.0
C1156 C 0.67724 0.1372 0.14661 0.0
C1157 C 0.64079 0.12672 0.13898 0.0
H1158 H 0.72524 0.17835 0.14651 0.0
C1159 C 0.62772 0.14696 0.12346 0.0
H1160 H 0.68805 0.12226 0.1586 0.0
C1161 C 0.64869 0.179 0.11668 0.0
C1162 C 0.68353 0.19152 0.12511 0.0
H1163 H 0.59997 0.13951 0.11712 0.0
H1164 H 0.63651 0.19522 0.10534 0.0
C1165 C 0.69855 0.1693 0.13967 0.0
C1166 C 0.6074 0.92589 0.89645 0.0
C1167 C 0.61783 0.88929 0.889 0.0
H1168 H 0.5666 0.97412 0.89592 0.0
C1169 C 0.59807 0.87617 0.87335 0.0
H1170 H 0.62199 0.93675 0.90852 0.0
C1171 C 0.56643 0.89724 0.86628 0.0
C1172 C 0.55388 0.93224 0.87453 0.0
H1173 H 0.60553 0.8483 0.86713 0.0
H1174 H 0.55048 0.88501 0.85485 0.0
C1175 C 0.57571 0.9473 0.88921 0.0
C1176 C 0.86595 0.14767 0.90306 0.0
C1177 C 0.85394 0.12824 0.88714 0.0
H1178 H 0.85641 0.19541 0.92139 0.0
C1179 C 0.81851 0.13969 0.87886 0.0
H1180 H 0.89291 0.13941 0.90989 0.0
C1181 C 0.79732 0.17204 0.88556 0.0
C1182 C 0.81136 0.19352 0.90058 0.0
H1183 H 0.80853 0.12538 0.86656 0.0
H1184 H 0.77152 0.18179 0.87822 0.0
C1185 C 0.845 0.17989 0.90967 0.0
C1186 C 0.59727 0.11798 0.65329 0.0
C1187 C 0.61716 0.10512 0.63763 0.0
H1188 H 0.54951 0.10884 0.67168 0.0
C1189 C 0.6066 0.06875 0.62998 0.0
H1190 H 0.60481 0.14567 0.65966 0.0
C1191 C 0.57475 0.04727 0.63705 0.0
C1192 C 0.55287 0.06204 0.65178 0.0
H1193 H 0.62128 0.0581 0.61789 0.0
H1194 H 0.56562 0.02062 0.63021 0.0
C1195 C 0.56548 0.09684 0.66022 0.0
C1196 C 0.69882 0.82468 0.38781 0.0
C1197 C 0.68363 0.80269 0.40241 0.0
H1198 H 0.68848 0.87129 0.36866 0.0
C1199 C 0.64865 0.81524 0.41069 0.0
H1200 H 0.72563 0.81558 0.38109 0.0
C1201 C 0.62771 0.84707 0.40372 0.0
C1202 C 0.64095 0.86702 0.38815 0.0
H1203 H 0.63634 0.79916 0.42206 0.0
H1204 H 0.59985 0.85452 0.40995 0.0
C1205 C 0.67753 0.85655 0.38068 0.0
C1206 C 0.9249 0.89981 0.16137 0.0
C1207 C 0.93715 0.93447 0.15273 0.0
H1208 H 0.88547 0.85106 0.16134 0.0
C1209 C 0.91444 0.9493 0.1383 0.0
H1210 H 0.94156 0.8878 0.17262 0.0
C1211 C 0.88218 0.92784 0.13161 0.0
C1212 C 0.87201 0.89149 0.13941 0.0
H1213 H 0.92329 0.97588 0.13131 0.0
H1214 H 0.86698 0.93839 0.11965 0.0
C1215 C 0.89263 0.87875 0.15488 0.0
C1216 C 0.64556 0.67917 0.91065 0.0
C1217 C 0.6809 0.69092 0.90241 0.0
H1218 H 0.59591 0.64087 0.9099 0.0
C1219 C 0.69567 0.6685 0.88786 0.0
H1220 H 0.63354 0.69554 0.92198 0.0
C1221 C 0.67377 0.63697 0.88076 0.0
C1222 C 0.63692 0.6273 0.88821 0.0
H1223 H 0.72273 0.67695 0.88116 0.0
H1224 H 0.68453 0.62181 0.86883 0.0
C1225 C 0.62396 0.64773 0.90369 0.0
C1226 C 0.60679 0.42602 0.1311 0.0
C1227 C 0.61785 0.38978 0.13872 0.0
H1228 H 0.56513 0.4735 0.13136 0.0
C1229 C 0.59819 0.37661 0.15439 0.0
H1230 H 0.62128 0.4369 0.119 0.0
C1231 C 0.56608 0.39724 0.16132 0.0
C1232 C 0.55295 0.43183 0.1529 0.0
H1233 H 0.60609 0.34902 0.16074 0.0
H1234 H 0.55027 0.38496 0.17278 0.0
C1235 C 0.57465 0.44699 0.13819 0.0
C1236 C 0.84638 0.31747 0.40987 0.0
C1237 C 0.81167 0.3047 0.40142 0.0
H1238 H 0.89525 0.35675 0.40926 0.0
C1239 C 0.79702 0.3263 0.38658 0.0
H1240 H 0.85828 0.30171 0.42142 0.0
C1241 C 0.81859 0.35798 0.37941 0.0
C1242 C 0.85493 0.36866 0.38709 0.0
H1243 H 0.77043 0.31702 0.37972 0.0
H1244 H 0.80809 0.37239 0.36723 0.0
C1245 C 0.8676 0.34912 0.40287 0.0
C1246 C 0.88846 0.56802 0.63075 0.0
C1247 C 0.87807 0.60463 0.63819 0.0
H1248 H 0.92934 0.51986 0.6312 0.0
C1249 C 0.89804 0.61789 0.65375 0.0
H1250 H 0.87369 0.55705 0.61874 0.0
C1251 C 0.92982 0.59691 0.66075 0.0
C1252 C 0.94231 0.56188 0.6525 0.0
H1253 H 0.89062 0.64577 0.65996 0.0
H1254 H 0.94591 0.60923 0.67211 0.0
C1255 C 0.92029 0.5467 0.63791 0.0
C1256 C 0.69805 0.32512 0.63991 0.0
C1257 C 0.6832 0.30353 0.6251 0.0
H1258 H 0.68733 0.37131 0.65926 0.0
C1259 C 0.64848 0.3164 0.61669 0.0
H1260 H 0.72464 0.31577 0.64674 0.0
C1261 C 0.62746 0.34814 0.62372 0.0
C1262 C 0.64034 0.36768 0.63947 0.0
H1263 H 0.63643 0.30065 0.60517 0.0
H1264 H 0.5998 0.35585 0.61736 0.0
C1265 C 0.67667 0.3569 0.6471 0.0
C1266 C 0.92154 0.44749 0.8894 0.0
C1267 C 0.9434 0.43217 0.87479 0.0
H1268 H 0.87513 0.43731 0.9087 0.0
C1269 C 0.93093 0.39695 0.8667 0.0
H1270 H 0.93059 0.47448 0.89598 0.0
C1271 C 0.89929 0.37596 0.87385 0.0
C1272 C 0.87944 0.38942 0.88941 0.0
H1273 H 0.94691 0.38453 0.85533 0.0
H1274 H 0.89184 0.34798 0.86774 0.0
C1275 C 0.88984 0.42618 0.89671 0.0
C1276 C 0.85233 0.68073 0.11683 0.0
C1277 C 0.81597 0.69051 0.12467 0.0
H1278 H 0.9029 0.6437 0.11751 0.0
C1279 C 0.80075 0.66612 0.13842 0.0
H1280 H 0.86478 0.69868 0.10612 0.0
C1281 C 0.82297 0.63446 0.14514 0.0
C1282 C 0.86057 0.6265 0.13809 0.0
H1283 H 0.7729 0.67301 0.1448 0.0
H1284 H 0.81165 0.61768 0.15649 0.0
C1285 C 0.87421 0.64908 0.12338 0.0
C1286 C 0.60752 0.56761 0.39685 0.0
C1287 C 0.61812 0.60393 0.38915 0.0
H1288 H 0.56626 0.51971 0.39677 0.0
C1289 C 0.59815 0.61682 0.37353 0.0
H1290 H 0.62227 0.55695 0.40891 0.0
C1291 C 0.56616 0.59583 0.36672 0.0
C1292 C 0.55346 0.56117 0.37523 0.0
H1293 H 0.60573 0.64446 0.36713 0.0
H1294 H 0.55006 0.60789 0.35531 0.0
C1295 C 0.57547 0.54627 0.38988 0.0
C1296 C 0.31837 0.3545 0.14703 0.0
C1297 C 0.35507 0.36498 0.13967 0.0
H1298 H 0.27005 0.31376 0.14631 0.0
C1299 C 0.36831 0.34537 0.12401 0.0
H1300 H 0.30741 0.369 0.1591 0.0
C1301 C 0.34723 0.31384 0.11682 0.0
C1302 C 0.31212 0.30125 0.12498 0.0
H1303 H 0.39625 0.35288 0.11786 0.0
H1304 H 0.35954 0.298 0.10538 0.0
C1305 C 0.29695 0.32292 0.13968 0.0
C1306 C 0.41753 0.54594 0.89083 0.0
C1307 C 0.4388 0.55984 0.87573 0.0
H1308 H 0.37143 0.5577 0.91009 0.0
C1309 C 0.42525 0.59349 0.86667 0.0
H1310 H 0.42738 0.52017 0.89815 0.0
C1311 C 0.39323 0.6146 0.87336 0.0
C1312 C 0.37412 0.60289 0.88942 0.0
H1313 H 0.44074 0.60477 0.8549 0.0
H1314 H 0.38505 0.64157 0.86653 0.0
C1315 C 0.38548 0.56742 0.89768 0.0
C1316 C 0.14834 0.67882 0.61599 0.0
C1317 C 0.18322 0.6916 0.6243 0.0
H1318 H 0.09961 0.63937 0.61676 0.0
C1319 C 0.19836 0.66981 0.63897 0.0
H1320 H 0.13607 0.69473 0.60457 0.0
C1321 C 0.1771 0.63794 0.64614 0.0
C1322 C 0.14058 0.62728 0.63865 0.0
H1323 H 0.22509 0.67907 0.64572 0.0
H1324 H 0.18799 0.62337 0.65821 0.0
C1325 C 0.12741 0.647 0.62301 0.0
C1326 C 0.10829 0.42591 0.39571 0.0
C1327 C 0.11845 0.38919 0.3883 0.0
H1328 H 0.06768 0.4743 0.39522 0.0
C1329 C 0.09834 0.37596 0.37277 0.0
H1330 H 0.12316 0.43686 0.40769 0.0
C1331 C 0.06665 0.39707 0.36577 0.0
C1332 C 0.0544 0.43222 0.37399 0.0
H1333 H 0.10558 0.348 0.36659 0.0
H1334 H 0.05045 0.38479 0.35443 0.0
C1335 C 0.07655 0.44737 0.38855 0.0
C1336 C 0.36761 0.64702 0.40413 0.0
C1337 C 0.35466 0.62689 0.38855 0.0
H1338 H 0.35877 0.69528 0.42225 0.0
C1339 C 0.31833 0.63742 0.38085 0.0
H1340 H 0.39527 0.63951 0.41053 0.0
C1341 C 0.29704 0.66952 0.38775 0.0
C1342 C 0.31199 0.69169 0.40235 0.0
H1343 H 0.30762 0.62255 0.36882 0.0
H1344 H 0.27046 0.67866 0.38085 0.0
C1345 C 0.34667 0.67908 0.41087 0.0
C1346 C 0.10654 0.61264 0.15521 0.0
C1347 C 0.12642 0.60142 0.13926 0.0
H1348 H 0.05741 0.60306 0.17283 0.0
C1349 C 0.11455 0.56673 0.13041 0.0
H1350 H 0.11486 0.63907 0.16246 0.0
C1351 C 0.08159 0.54562 0.13659 0.0
C1352 C 0.05966 0.55917 0.15156 0.0
H1353 H 0.12902 0.55738 0.11804 0.0
H1354 H 0.07162 0.52045 0.12885 0.0
C1355 C 0.07343 0.59204 0.16117 0.0
C1356 C 0.199 0.32421 0.88772 0.0
C1357 C 0.18375 0.30241 0.90237 0.0
H1358 H 0.1889 0.37085 0.86855 0.0
C1359 C 0.149 0.31534 0.91073 0.0
H1360 H 0.22564 0.31482 0.88094 0.0
C1361 C 0.12833 0.34738 0.9038 0.0
C1362 C 0.14158 0.36715 0.88817 0.0
H1363 H 0.13665 0.29942 0.92213 0.0
H1364 H 0.10062 0.35514 0.9101 0.0
C1365 C 0.17796 0.35628 0.88061 0.0
C1366 C 0.38796 0.4266 0.63062 0.0
C1367 C 0.37723 0.3901 0.63809 0.0
H1368 H 0.42913 0.47458 0.63115 0.0
C1369 C 0.3969 0.37689 0.65374 0.0
H1370 H 0.37345 0.43751 0.61854 0.0
C1371 C 0.42872 0.39776 0.66081 0.0
C1372 C 0.44153 0.43266 0.65255 0.0
H1373 H 0.38923 0.3491 0.65998 0.0
H1374 H 0.44458 0.38546 0.67224 0.0
C1375 C 0.41982 0.44783 0.63785 0.0
C1376 C 0.13662 0.919 0.40414 0.0
C1377 C 0.12385 0.93266 0.38711 0.0
H1378 H 0.17499 0.88081 0.41874 0.0
C1379 C 0.13941 0.91511 0.37137 0.0
H1380 H 0.12541 0.93151 0.4166 0.0
C1381 C 0.1687 0.88651 0.3726 0.0
C1382 C 0.18297 0.87436 0.38963 0.0
H1383 H 0.12965 0.92401 0.35801 0.0
H1384 H 0.18103 0.87512 0.36014 0.0
C1385 C 0.16562 0.89011 0.40538 0.0
C1386 C 0.35901 0.91712 0.62274 0.0
C1387 C 0.37069 0.93202 0.63973 0.0
H1388 H 0.32161 0.87777 0.60822 0.0
C1389 C 0.35442 0.91525 0.65551 0.0
H1390 H 0.37085 0.92885 0.61024 0.0
C1391 C 0.3253 0.88644 0.65431 0.0
C1392 C 0.312 0.87325 0.6373 0.0
H1393 H 0.36337 0.92498 0.66887 0.0
H1394 H 0.31226 0.87578 0.66677 0.0
C1395 C 0.33022 0.88799 0.62156 0.0
C1396 C 0.32998 0.10441 0.90543 0.0
C1397 C 0.31247 0.12011 0.88971 0.0
H1398 H 0.37025 0.06296 0.91658 0.0
C1399 C 0.32654 0.10788 0.87266 0.0
H1400 H 0.32078 0.11379 0.9188 0.0
C1401 C 0.35575 0.07922 0.87138 0.0
C1402 C 0.37144 0.06169 0.88709 0.0
H1403 H 0.31408 0.11923 0.86021 0.0
H1404 H 0.36535 0.07022 0.858 0.0
C1405 C 0.35892 0.07546 0.90414 0.0
C1406 C 0.16614 0.10984 0.15401 0.0
C1407 C 0.18096 0.12154 0.13702 0.0
H1408 H 0.12602 0.07323 0.1685 0.0
C1409 C 0.16338 0.10622 0.12122 0.0
H1410 H 0.17859 0.12094 0.1665 0.0
C1411 C 0.13364 0.07802 0.1224 0.0
C1412 C 0.12042 0.06467 0.1394 0.0
H1413 H 0.17316 0.11525 0.10788 0.0
H1414 H 0.12227 0.06566 0.10993 0.0
C1415 C 0.13615 0.08194 0.15517 0.0
C1416 C 0.85477 0.0792 0.65553 0.0
C1417 C 0.8705 0.06187 0.63978 0.0
H1418 H 0.81321 0.11923 0.66678 0.0
C1419 C 0.85828 0.07608 0.62276 0.0
H1420 H 0.86415 0.0699 0.66889 0.0
C1421 C 0.82956 0.10525 0.62154 0.0
C1422 C 0.81195 0.12071 0.63729 0.0
H1423 H 0.86968 0.06379 0.61029 0.0
H1424 H 0.82059 0.11497 0.60819 0.0
C1425 C 0.82574 0.10806 0.65432 0.0
C1426 C 0.6646 0.10629 0.40512 0.0
C1427 C 0.68215 0.12179 0.38937 0.0
H1428 H 0.62479 0.06452 0.4164 0.0
C1429 C 0.66849 0.10892 0.37235 0.0
H1430 H 0.67347 0.11617 0.41847 0.0
C1431 C 0.63971 0.07977 0.37115 0.0
C1432 C 0.62408 0.06239 0.38692 0.0
H1433 H 0.68098 0.12011 0.35988 0.0
H1434 H 0.63044 0.07029 0.3578 0.0
C1435 C 0.63612 0.07685 0.40393 0.0
C1436 C 0.6359 0.91199 0.1551 0.0
C1437 C 0.6212 0.93018 0.13934 0.0
H1438 H 0.67621 0.87076 0.16638 0.0
C1439 C 0.63356 0.91609 0.12232 0.0
H1440 H 0.62629 0.9212 0.16844 0.0
C1441 C 0.66165 0.88633 0.12112 0.0
C1442 C 0.67845 0.87016 0.1369 0.0
H1443 H 0.62291 0.92904 0.10985 0.0
H1444 H 0.67097 0.87682 0.10778 0.0
C1445 C 0.66429 0.88251 0.1539 0.0
C1446 C 0.82556 0.8863 0.87298 0.0
C1447 C 0.81175 0.87379 0.89003 0.0
H1448 H 0.86384 0.9245 0.85832 0.0
C1449 C 0.82918 0.88963 0.90574 0.0
H1450 H 0.81316 0.87486 0.86053 0.0
C1451 C 0.85776 0.91896 0.90446 0.0
C1452 C 0.87002 0.93298 0.88741 0.0
H1453 H 0.82017 0.88005 0.91912 0.0
H1454 H 0.86902 0.93151 0.9169 0.0
C1455 C 0.85443 0.91534 0.87169 0.0
C1456 C 0.6729 0.40078 0.90705 0.0
C1457 C 0.68215 0.37713 0.89192 0.0
H1458 H 0.63808 0.44764 0.91769 0.0
C1459 C 0.65908 0.38104 0.87612 0.0
H1460 H 0.68952 0.39915 0.91952 0.0
C1461 C 0.62952 0.40944 0.87512 0.0
C1462 C 0.62185 0.43418 0.88995 0.0
H1463 H 0.66428 0.36289 0.86432 0.0
H1464 H 0.61307 0.41258 0.86261 0.0
C1465 C 0.64308 0.4288 0.90608 0.0
C1466 C 0.83077 0.38983 0.12062 0.0
C1467 C 0.81417 0.37394 0.13652 0.0
H1468 H 0.87082 0.43107 0.10906 0.0
C1469 C 0.82966 0.38559 0.1534 0.0
H1470 H 0.82053 0.3809 0.10734 0.0
C1471 C 0.85937 0.41384 0.15436 0.0
C1472 C 0.87416 0.43159 0.13851 0.0
H1473 H 0.81802 0.37409 0.16598 0.0
H1474 H 0.87007 0.42236 0.16763 0.0
C1475 C 0.8602 0.4184 0.1216 0.0
C1476 C 0.85573 0.57962 0.37093 0.0
C1477 C 0.87169 0.56209 0.38658 0.0
H1478 H 0.81385 0.61963 0.35993 0.0
C1479 C 0.85938 0.57577 0.40369 0.0
H1480 H 0.86514 0.57067 0.35752 0.0
C1481 C 0.83043 0.60468 0.40508 0.0
C1482 C 0.81271 0.62043 0.38943 0.0
H1483 H 0.8709 0.56325 0.41608 0.0
H1484 H 0.82139 0.614 0.41849 0.0
C1485 C 0.82651 0.60825 0.37233 0.0
C1486 C 0.63632 0.57609 0.62337 0.0
C1487 C 0.62419 0.56196 0.64042 0.0
H1488 H 0.67415 0.61473 0.6087 0.0
C1489 C 0.64023 0.57919 0.65613 0.0
H1490 H 0.62471 0.56386 0.61092 0.0
C1491 C 0.66944 0.60789 0.65484 0.0
C1492 C 0.68313 0.62044 0.63777 0.0
H1493 H 0.63094 0.56993 0.66952 0.0
H1494 H 0.68222 0.61899 0.66727 0.0
C1495 C 0.66524 0.60508 0.62208 0.0
C1496 C 0.30643 0.58926 0.14738 0.0
C1497 C 0.31572 0.6211 0.13607 0.0
H1498 H 0.32469 0.53397 0.15819 0.0
C1499 C 0.35261 0.62216 0.12748 0.0
H1500 H 0.27825 0.58788 0.15418 0.0
C1501 C 0.37917 0.59125 0.1297 0.0
C1502 C 0.36953 0.55902 0.14073 0.0
H1503 H 0.36034 0.64614 0.11852 0.0
H1504 H 0.4071 0.59231 0.12268 0.0
C1505 C 0.33314 0.55863 0.14978 0.0
C1506 C 0.13954 0.58045 0.87111 0.0
C1507 C 0.12349 0.56326 0.88685 0.0
H1508 H 0.18106 0.62092 0.86001 0.0
C1509 C 0.13477 0.57823 0.90388 0.0
H1510 H 0.13085 0.57059 0.85774 0.0
C1511 C 0.16298 0.60787 0.90515 0.0
C1512 C 0.18102 0.62309 0.88947 0.0
H1513 H 0.12312 0.56613 0.91634 0.0
H1514 H 0.1714 0.61809 0.91851 0.0
C1515 C 0.16807 0.60986 0.8724 0.0
C1516 C 0.16847 0.38595 0.65407 0.0
C1517 C 0.18249 0.37365 0.63702 0.0
H1518 H 0.12988 0.42387 0.6687 0.0
C1519 C 0.16507 0.38939 0.6213 0.0
H1520 H 0.18085 0.37455 0.66652 0.0
C1521 C 0.13633 0.41853 0.62256 0.0
C1522 C 0.12392 0.43243 0.63961 0.0
H1523 H 0.17424 0.37994 0.60792 0.0
H1524 H 0.12509 0.43109 0.61012 0.0
C1525 C 0.13943 0.41479 0.65533 0.0
C1526 C 0.35955 0.41673 0.40445 0.0
C1527 C 0.37186 0.43122 0.38749 0.0
H1528 H 0.32175 0.37759 0.41884 0.0
C1529 C 0.35639 0.41396 0.37166 0.0
H1530 H 0.37078 0.42893 0.41697 0.0
C1531 C 0.32739 0.38501 0.37274 0.0
C1532 C 0.31338 0.37221 0.38971 0.0
H1533 H 0.3659 0.42344 0.35834 0.0
H1534 H 0.31499 0.37395 0.36023 0.0
C1535 C 0.33087 0.38747 0.40553 0.0
C1536 C 0.09246 0.98089 0.27423 0.0
C1537 C 0.06429 0.00616 0.28193 0.0
H1538 H 0.11417 0.95299 0.25011 0.0
C1539 C 0.03651 0.02383 0.27033 0.0
H1540 H 0.11406 0.96639 0.28269 0.0
C1541 C 0.03649 0.01599 0.25166 0.0
C1542 C 0.06444 0.99053 0.244 0.0
H1543 H 0.01495 0.04424 0.2756 0.0
H1544 H 0.01472 0.0302 0.24318 0.0
C1545 C 0.09258 0.97324 0.25551 0.0
C1546 C 0.22396 0.84581 0.52076 0.0
C1547 C 0.24171 0.8184 0.53248 0.0
H1548 H 0.217 0.86633 0.49343 0.0
C1549 C 0.26801 0.7909 0.52508 0.0
H1550 H 0.20307 0.86702 0.52596 0.0
C1551 C 0.2761 0.79056 0.50644 0.0
C1552 C 0.25788 0.81753 0.49462 0.0
H1553 H 0.28261 0.76971 0.53373 0.0
H1554 H 0.29706 0.76933 0.50135 0.0
C1555 C 0.23189 0.84535 0.50207 0.0
C1556 C 0.40002 0.02182 0.75589 0.0
C1557 C 0.42689 0.00356 0.74406 0.0
H1558 H 0.38011 0.02915 0.78331 0.0
C1559 C 0.45412 0.97685 0.75136 0.0
H1560 H 0.37905 0.04304 0.75078 0.0
C1561 C 0.45468 0.96881 0.77 0.0
C1562 C 0.42821 0.98746 0.78192 0.0
H1563 H 0.47488 0.96187 0.74262 0.0
H1564 H 0.47566 0.94751 0.77502 0.0
C1565 C 0.4007 0.01392 0.77458 0.0
C1566 C 0.22016 0.20368 1.00673 0.0
C1567 C 0.23834 0.17678 0.99486 0.0
H1568 H 0.21365 0.22429 0.03407 0.0
C1569 C 0.26433 0.1489 1.00226 0.0
H1570 H 0.1992 0.22496 1.00169 0.0
C1571 C 0.27223 0.14825 0.02095 0.0
C1572 C 0.25447 0.17555 0.03273 0.0
H1573 H 0.27921 0.12797 0.99358 0.0
H1574 H 0.29306 0.12695 0.02611 0.0
C1575 C 0.22824 0.20317 0.02537 0.0
C1576 C 0.95489 0.01637 0.7517 0.0
C1577 C 0.92734 0.99004 0.74434 0.0
H1578 H 0.97657 0.04549 0.7754 0.0
C1579 C 0.90013 0.97209 0.75611 0.0
H1580 H 0.97594 0.03109 0.74301 0.0
C1581 C 0.90075 0.97997 0.7748 0.0
C1582 C 0.92851 0.00613 0.78221 0.0
H1583 H 0.87891 0.95115 0.75095 0.0
H1584 H 0.87987 0.96498 0.78348 0.0
C1585 C 0.95537 0.02442 0.77035 0.0
C1586 C 0.72258 0.15158 0.52069 0.0
C1587 C 0.74056 0.17884 0.53243 0.0
H1588 H 0.7152 0.13134 0.49334 0.0
C1589 C 0.76663 0.20655 0.525 0.0
H1590 H 0.70182 0.13024 0.5259 0.0
C1591 C 0.7744 0.20713 0.50632 0.0
C1592 C 0.7561 0.18019 0.4945 0.0
H1593 H 0.78136 0.22766 0.53365 0.0
H1594 H 0.79528 0.22845 0.50121 0.0
C1595 C 0.73019 0.15228 0.50198 0.0
C1596 C 0.54127 0.02379 0.25639 0.0
C1597 C 0.56806 0.00536 0.24454 0.0
H1598 H 0.52067 0.03061 0.28371 0.0
C1599 C 0.59584 0.97931 0.25198 0.0
H1600 H 0.52009 0.04481 0.25131 0.0
C1601 C 0.59644 0.97155 0.27069 0.0
C1602 C 0.56919 0.98952 0.28243 0.0
H1603 H 0.6167 0.96427 0.24333 0.0
H1604 H 0.61762 0.95065 0.27588 0.0
C1605 C 0.54172 0.01585 0.27504 0.0
C1606 C 0.73023 0.84264 0.02524 0.0
C1607 C 0.75696 0.81537 0.03259 0.0
H1608 H 0.70091 0.86411 1.00146 0.0
C1609 C 0.77569 0.78898 0.02065 0.0
H1610 H 0.71485 0.86312 0.03396 0.0
C1611 C 0.76752 0.78944 1.00201 0.0
C1612 C 0.74065 0.81652 0.99472 0.0
H1613 H 0.79717 0.76817 0.02564 0.0
H1614 H 0.78256 0.76874 0.99326 0.0
C1615 C 0.72226 0.84326 1.00656 0.0
C1616 C 0.53866 0.47519 0.77599 0.0
C1617 C 0.5661 0.50128 0.78363 0.0
H1618 H 0.51741 0.44674 0.75204 0.0
C1619 C 0.59369 0.51935 0.77208 0.0
H1620 H 0.51733 0.46038 0.78451 0.0
C1621 C 0.59348 0.51192 0.75334 0.0
C1622 C 0.56575 0.4861 0.74565 0.0
H1623 H 0.61485 0.54009 0.77745 0.0
H1624 H 0.6146 0.52704 0.74485 0.0
C1625 C 0.53859 0.46758 0.75731 0.0
C1626 C 0.71845 0.29105 0.02052 0.0
C1627 C 0.73737 0.31729 0.03246 0.0
H1628 H 0.7112 0.27112 0.99312 0.0
C1629 C 0.76418 0.34453 0.02515 0.0
H1630 H 0.69693 0.27027 0.02554 0.0
C1631 C 0.77217 0.34516 1.00647 0.0
C1632 C 0.75358 0.31858 0.99459 0.0
H1633 H 0.7796 0.36492 0.03391 0.0
H1634 H 0.79369 0.36589 1.00141 0.0
C1635 C 0.72649 0.29163 1.00187 0.0
C1636 C 0.95832 0.46855 0.26947 0.0
C1637 C 0.93133 0.4873 0.28112 0.0
H1638 H 0.97958 0.46122 0.24227 0.0
C1639 C 0.90404 0.51355 0.27345 0.0
H1640 H 0.97916 0.44739 0.27472 0.0
C1641 C 0.90403 0.52112 0.25473 0.0
C1642 C 0.93139 0.50274 0.24317 0.0
H1643 H 0.88308 0.52887 0.28195 0.0
H1644 H 0.88317 0.54216 0.24938 0.0
C1645 C 0.95845 0.47629 0.25079 0.0
C1646 C 0.77215 0.64899 0.52104 0.0
C1647 C 0.75399 0.67608 0.5328 0.0
H1648 H 0.7796 0.62889 0.49367 0.0
C1649 C 0.72753 0.70344 0.52542 0.0
H1650 H 0.79316 0.62791 0.52623 0.0
C1651 C 0.71964 0.70393 0.50676 0.0
C1652 C 0.73822 0.67727 0.4949 0.0
H1653 H 0.71265 0.72438 0.5341 0.0
H1654 H 0.69851 0.72501 0.50168 0.0
C1655 C 0.76442 0.64962 0.50234 0.0
C1656 C 0.40045 0.47927 0.27567 0.0
C1657 C 0.42801 0.50577 0.28297 0.0
H1658 H 0.37883 0.44988 0.25193 0.0
C1659 C 0.45462 0.52421 0.27104 0.0
H1660 H 0.37976 0.46421 0.28442 0.0
C1661 C 0.45413 0.51592 0.25243 0.0
C1662 C 0.42685 0.48917 0.24517 0.0
H1663 H 0.47564 0.54553 0.27603 0.0
H1664 H 0.47499 0.53075 0.24367 0.0
C1665 C 0.39985 0.47112 0.25701 0.0
C1666 C 0.25705 0.64984 1.00547 0.0
C1667 C 0.2519 0.68333 0.99447 0.0
H1668 H 0.25059 0.62364 0.03167 0.0
C1669 C 0.23664 0.71747 1.00265 0.0
H1670 H 0.26936 0.62307 0.99996 0.0
C1671 C 0.22757 0.71836 0.02118 0.0
C1672 C 0.2323 0.68479 0.03216 0.0
H1673 H 0.23146 0.7438 0.99477 0.0
H1674 H 0.21708 0.74574 0.02684 0.0
C1675 C 0.24703 0.65043 0.02394 0.0
C1676 C 0.09679 0.52157 0.75601 0.0
C1677 C 0.06936 0.50382 0.74428 0.0
H1678 H 0.11739 0.5284 0.78334 0.0
C1679 C 0.04189 0.47743 0.75166 0.0
H1680 H 0.11798 0.54251 0.75083 0.0
C1681 C 0.04162 0.46922 0.77028 0.0
C1682 C 0.06862 0.48741 0.78212 0.0
H1683 H 0.02069 0.46285 0.74299 0.0
H1684 H 0.02043 0.44817 0.77535 0.0
C1685 C 0.09639 0.51352 0.77469 0.0
C1686 C 0.26732 0.29026 0.5015 0.0
C1687 C 0.241 0.31769 0.49407 0.0
H1688 H 0.29639 0.26887 0.52525 0.0
C1689 C 0.22316 0.34511 0.50577 0.0
H1690 H 0.28199 0.26909 0.49286 0.0
C1691 C 0.23106 0.34475 0.52446 0.0
C1692 C 0.25711 0.31702 0.53194 0.0
H1693 H 0.20226 0.36627 0.50055 0.0
H1694 H 0.21613 0.36575 0.53308 0.0
C1695 C 0.27538 0.29003 0.52014 0.0
C1696 C 0.00702 0.22934 0.35514 0.0
C1697 C 0.018 0.21157 0.33871 0.0
H1698 H 0.97802 0.27767 0.3679 0.0
C1699 C 0.00773 0.22935 0.32219 0.0
H1700 H 0.01493 0.21629 0.36804 0.0
C1701 C 0.98647 0.26435 0.32211 0.0
C1702 C 0.9758 0.28225 0.33855 0.0
H1703 H 0.01568 0.21589 0.30938 0.0
H1704 H 0.97891 0.27777 0.30925 0.0
C1705 C 0.98626 0.26452 0.35506 0.0
C1706 C 0.97989 0.73631 0.5722 0.0
C1707 C 0.96206 0.72606 0.58871 0.0
H1708 H 0.02828 0.76533 0.55926 0.0
C1709 C 0.9797 0.7373 0.60514 0.0
H1710 H 0.96654 0.72817 0.55939 0.0
C1711 C 0.01477 0.75828 0.60506 0.0
C1712 C 0.03257 0.76871 0.58856 0.0
H1713 H 0.96664 0.72942 0.61804 0.0
H1714 H 0.02779 0.76672 0.61791 0.0
C1715 C 0.01481 0.75779 0.57212 0.0
C1716 C 0.48654 0.76404 0.85532 0.0
C1717 C 0.47551 0.78169 0.83887 0.0
H1718 H 0.51507 0.71556 0.86816 0.0
C1719 C 0.48525 0.76344 0.82238 0.0
H1720 H 0.47904 0.77743 0.8682 0.0
C1721 C 0.50599 0.72812 0.82235 0.0
C1722 C 0.51669 0.71035 0.83882 0.0
H1723 H 0.47726 0.77677 0.80956 0.0
H1724 H 0.51314 0.71436 0.80951 0.0
C1725 C 0.50678 0.72856 0.85529 0.0
C1726 C 0.48062 0.23505 0.07334 0.0
C1727 C 0.4629 0.22397 0.08977 0.0
H1728 H 0.5286 0.26514 0.06064 0.0
C1729 C 0.48058 0.23454 0.10629 0.0
H1730 H 0.46725 0.22742 0.06047 0.0
C1731 C 0.51549 0.25584 0.10638 0.0
C1732 C 0.53302 0.2673 0.08997 0.0
H1733 H 0.46757 0.22601 0.11912 0.0
H1734 H 0.52849 0.26384 0.11929 0.0
C1735 C 0.51532 0.25686 0.07344 0.0
C1736 C 0.99016 0.72892 0.20291 0.0
C1737 C 0.97971 0.71089 0.18647 0.0
H1738 H 0.01808 0.77812 0.21563 0.0
C1739 C 0.98931 0.72909 0.16995 0.0
H1740 H 0.98321 0.71514 0.21577 0.0
C1741 C 0.00889 0.76498 0.16988 0.0
C1742 C 0.01962 0.78288 0.18632 0.0
H1743 H 0.98119 0.71581 0.15712 0.0
H1744 H 0.0161 0.77851 0.15699 0.0
C1745 C 0.01029 0.76456 0.20283 0.0
C1746 C 0.51524 0.73589 0.42118 0.0
C1747 C 0.53295 0.72532 0.43768 0.0
H1748 H 0.46722 0.76499 0.40822 0.0
C1749 C 0.51523 0.73628 0.45412 0.0
H1750 H 0.52824 0.72745 0.40833 0.0
C1751 C 0.48045 0.75791 0.45405 0.0
C1752 C 0.46268 0.7683 0.43754 0.0
H1753 H 0.52864 0.72866 0.46698 0.0
H1754 H 0.46714 0.76607 0.46687 0.0
C1755 C 0.48026 0.75702 0.42111 0.0
C1756 C 0.48667 0.22928 0.7044 0.0
C1757 C 0.47619 0.21161 0.68788 0.0
H1758 H 0.51594 0.27747 0.71735 0.0
C1759 C 0.48727 0.22935 0.67145 0.0
H1760 H 0.47865 0.21584 0.7172 0.0
C1761 C 0.50831 0.26438 0.67154 0.0
C1762 C 0.51897 0.28199 0.68805 0.0
H1763 H 0.47922 0.21637 0.65855 0.0
H1764 H 0.51661 0.2775 0.6587 0.0
C1765 C 0.50822 0.26413 0.70448 0.0
C1766 C 0.0146 0.23466 0.95454 0.0
C1767 C 0.03236 0.22438 0.93801 0.0
H1768 H 0.96627 0.26357 0.96752 0.0
C1769 C 0.01442 0.2352 0.92159 0.0
H1770 H 0.02816 0.22682 0.96733 0.0
C1771 C 0.97918 0.25591 0.9217 0.0
C1772 C 0.96158 0.26653 0.93823 0.0
H1773 H 0.02746 0.22727 0.90869 0.0
H1774 H 0.96598 0.26412 0.90887 0.0
C1775 C 0.97958 0.25589 0.95465 0.0
C1776 C 0.9872 0.76475 0.70425 0.0
C1777 C 0.97645 0.78241 0.68777 0.0
H1778 H 0.0169 0.71673 0.7171 0.0
C1779 C 0.98744 0.76478 0.67131 0.0
H1780 H 0.97927 0.77811 0.71709 0.0
C1781 C 0.00869 0.7299 0.67132 0.0
C1782 C 0.01966 0.71231 0.68779 0.0
H1783 H 0.97917 0.77773 0.65843 0.0
H1784 H 0.01693 0.71688 0.65845 0.0
C1785 C 0.00896 0.73005 0.70426 0.0
C1786 C 0.0145 0.25931 0.45393 0.0
C1787 C 0.03246 0.26953 0.43744 0.0
H1788 H 0.96591 0.23051 0.46679 0.0
C1789 C 0.01475 0.25864 0.42099 0.0
H1790 H 0.02791 0.26721 0.46676 0.0
C1791 C 0.9795 0.23794 0.42101 0.0
C1792 C 0.96164 0.22744 0.43748 0.0
H1793 H 0.02795 0.26652 0.40811 0.0
H1794 H 0.96643 0.22972 0.40814 0.0
C1795 C 0.97944 0.2381 0.45395 0.0
C1796 C 0.48797 0.26345 0.17215 0.0
C1797 C 0.47719 0.28085 0.18869 0.0
H1798 H 0.51718 0.21569 0.15907 0.0
C1799 C 0.488 0.26291 0.20509 0.0
H1800 H 0.47963 0.27661 0.15933 0.0
C1801 C 0.50963 0.22814 0.20495 0.0
C1802 C 0.52012 0.21064 0.18839 0.0
H1803 H 0.4802 0.2761 0.21798 0.0
H1804 H 0.51762 0.21457 0.21772 0.0
C1805 C 0.5091 0.22852 0.172 0.0
C1806 C 0.51499 0.75673 0.92134 0.0
C1807 C 0.53225 0.76794 0.93786 0.0
H1808 H 0.46736 0.72708 0.90832 0.0
C1809 C 0.51417 0.75741 0.95428 0.0
H1810 H 0.52825 0.76481 0.90851 0.0
C1811 C 0.47941 0.73569 0.95418 0.0
C1812 C 0.46205 0.72475 0.93764 0.0
H1813 H 0.52723 0.76551 0.96716 0.0
H1814 H 0.46575 0.72799 0.96697 0.0
C1815 C 0.48008 0.73547 0.92123 0.0
C1816 C 0.9884 0.22944 0.82256 0.0
C1817 C 0.97725 0.21184 0.83901 0.0
H1818 H 0.01838 0.27743 0.80982 0.0
C1819 C 0.98779 0.2296 0.85551 0.0
H1820 H 0.9808 0.216 0.80971 0.0
C1821 C 0.00903 0.26451 0.85557 0.0
C1822 C 0.02043 0.28202 0.83914 0.0
H1823 H 0.9792 0.2167 0.86835 0.0
H1824 H 0.01695 0.2776 0.86847 0.0
C1825 C 0.01013 0.26418 0.82263 0.0
C1826 C 0.51524 0.23762 0.60532 0.0
C1827 C 0.53306 0.22711 0.58884 0.0
H1828 H 0.46701 0.26645 0.61824 0.0
C1829 C 0.51538 0.23798 0.57238 0.0
H1830 H 0.52821 0.22925 0.61818 0.0
C1831 C 0.48048 0.25941 0.57241 0.0
C1832 C 0.46256 0.26965 0.58891 0.0
H1833 H 0.52888 0.23038 0.55953 0.0
H1834 H 0.46715 0.26746 0.55959 0.0
C1835 C 0.48016 0.25855 0.60536 0.0
C1836 C 0.50908 0.76377 0.32304 0.0
C1837 C 0.51992 0.78166 0.33946 0.0
H1838 H 0.47932 0.71555 0.31036 0.0
C1839 C 0.50915 0.76416 0.35598 0.0
H1840 H 0.51686 0.77701 0.31016 0.0
C1841 C 0.48795 0.72922 0.35609 0.0
C1842 C 0.47681 0.71145 0.33968 0.0
H1843 H 0.5175 0.77731 0.36881 0.0
H1844 H 0.47984 0.71634 0.36901 0.0
C1845 C 0.48738 0.72901 0.32315 0.0
C1846 C 0.98135 0.76752 0.11049 0.0
C1847 C 0.96372 0.7753 0.09364 0.0
H1848 H 0.02813 0.73849 0.12453 0.0
C1849 C 0.98059 0.7605 0.07769 0.0
H1850 H 0.96875 0.77893 0.12293 0.0
C1851 C 0.01403 0.73706 0.07863 0.0
C1852 C 0.03129 0.72878 0.0955 0.0
H1853 H 0.96712 0.76599 0.06461 0.0
H1854 H 0.02649 0.72545 0.06621 0.0
C1855 C 0.01515 0.74465 0.1114 0.0
loop_
_geom_bond_atom_site_label_1
_geom_bond_atom_site_label_2
_geom_bond_distance
_geom_bond_site_symmetry_2
_ccdc_geom_bond_type
Co0 N4 2.148 . S
Co0 N10 2.128 . S
Co0 N20 2.194 . S
Co0 O25 2.351 . S
Co0 O26 2.155 . S
Co0 O27 2.096 . S
C1 N4 1.301 . S
C1 N5 1.328 1_545 S
C1 H6 0.930 . S
C2 C3 1.325 1_545 S
C2 N4 1.323 . S
C2 H7 0.932 . S
C3 C2 1.325 1_565 S
C3 N5 1.350 . S
C3 H29 0.931 . S
N4 Co0 2.148 . S
N4 C1 1.301 . S
N4 C2 1.323 . S
N5 C1 1.328 1_565 S
N5 C3 1.350 . S
H6 C1 0.930 . S
H7 C2 0.932 . S
C8 O9 1.224 . S
C8 O27 1.247 1_655 S
O9 C8 1.224 . S
N10 Co0 2.128 . S
N10 C11 1.355 . S
N10 C13 1.309 1_455 S
C11 N10 1.355 . S
C11 C12 1.363 . S
C11 H23 0.929 . S
C12 C11 1.363 . S
C12 N14 1.375 1_455 S
C12 H30 0.931 . S
C13 N10 1.309 1_655 S
C13 N14 1.348 . S
C13 H24 0.930 . S
N14 C12 1.375 1_655 S
N14 C13 1.348 . S
C15 C18 1.365 . S
C15 N20 1.328 . S
C15 H21 0.929 . S
C16 C17 1.362 . S
C16 C19 1.378 . S
C16 H31 0.931 . S
C17 C16 1.362 . S
C17 C18 1.366 . S
C18 C15 1.365 . S
C18 C17 1.366 . S
C18 H32 0.930 . S
C19 C16 1.378 . S
C19 N20 1.315 . S
C19 H22 0.934 . S
N20 Co0 2.194 . S
N20 C15 1.328 . S
N20 C19 1.315 . S
H21 C15 0.929 . S
H22 C19 0.934 . S
H23 C11 0.929 . S
H24 C13 0.930 . S
O25 Co0 2.351 . S
O25 C28 1.244 . S
O26 Co0 2.155 . S
O26 C28 1.240 . S
O27 Co0 2.096 . S
O27 C8 1.247 1_455 S
C28 O25 1.244 . S
C28 O26 1.240 . S
H29 C3 0.931 . S
H30 C12 0.931 . S
H31 C16 0.931 . S
H32 C18 0.930 . S
Co33 N37 2.148 . S
Co33 N43 2.128 . S
Co33 N53 2.194 . S
Co33 O58 2.351 . S
Co33 O59 2.155 . S
Co33 O60 2.096 . S
C34 N37 1.301 . S
C34 N38 1.328 . S
C34 H39 0.930 . S
C35 C36 1.333 . S
C35 N37 1.317 . S
C35 H40 0.930 . S
C36 C35 1.333 . S
C36 N38 1.350 . S
C36 H62 0.931 . S
N37 Co33 2.148 . S
N37 C34 1.301 . S
N37 C35 1.317 . S
N38 C34 1.328 . S
N38 C36 1.350 . S
H39 C34 0.930 . S
H40 C35 0.930 . S
C41 O42 1.224 . S
C41 O60 1.247 . S
O42 C41 1.224 . S
N43 Co33 2.128 . S
N43 C44 1.355 . S
N43 C46 1.311 . S
C44 N43 1.355 . S
C44 C45 1.363 . S
C44 H56 0.929 . S
C45 C44 1.363 . S
C45 N47 1.375 . S
C45 H63 0.931 . S
C46 N43 1.311 . S
C46 N47 1.347 . S
C46 H57 0.929 . S
N47 C45 1.375 . S
N47 C46 1.347 . S
C48 C51 1.365 . S
C48 N53 1.328 . S
C48 H54 0.929 . S
C49 C50 1.362 . S
C49 C52 1.378 . S
C49 H64 0.929 . S
C50 C49 1.362 . S
C50 C51 1.366 . S
C51 C48 1.365 . S
C51 C50 1.366 . S
C51 H65 0.930 . S
C52 C49 1.378 . S
C52 N53 1.315 . S
C52 H55 0.930 . S
N53 Co33 2.194 . S
N53 C48 1.328 . S
N53 C52 1.315 . S
H54 C48 0.929 . S
H55 C52 0.930 . S
H56 C44 0.929 . S
H57 C46 0.929 . S
O58 Co33 2.351 . S
O58 C61 1.244 . S
O59 Co33 2.155 . S
O59 C61 1.240 . S
O60 Co33 2.096 . S
O60 C41 1.247 . S
C61 O58 1.244 . S
C61 O59 1.240 . S
H62 C36 0.931 . S
H63 C45 0.931 . S
H64 C49 0.929 . S
H65 C51 0.930 . S
Co66 N70 2.148 . S
Co66 N76 2.128 . S
Co66 N86 2.194 . S
Co66 O91 2.351 . S
Co66 O92 2.155 . S
Co66 O93 2.096 . S
C67 N70 1.301 . S
C67 N71 1.328 1_565 S
C67 H72 0.930 . S
C68 C69 1.325 1_565 S
C68 N70 1.323 . S
C68 H73 0.932 . S
C69 C68 1.325 1_545 S
C69 N71 1.350 . S
C69 H95 0.931 . S
N70 Co66 2.148 . S
N70 C67 1.301 . S
N70 C68 1.323 . S
N71 C67 1.328 1_545 S
N71 C69 1.350 . S
H72 C67 0.930 . S
H73 C68 0.932 . S
C74 O75 1.224 . S
C74 O93 1.247 . S
O75 C74 1.224 . S
N76 Co66 2.128 . S
N76 C77 1.355 . S
N76 C79 1.311 . S
C77 N76 1.355 . S
C77 C78 1.363 . S
C77 H89 0.929 . S
C78 C77 1.363 . S
C78 N80 1.375 . S
C78 H96 0.931 . S
C79 N76 1.311 . S
C79 N80 1.347 . S
C79 H90 0.929 . S
N80 C78 1.375 . S
N80 C79 1.347 . S
C81 C84 1.365 . S
C81 N86 1.328 . S
C81 H87 0.929 . S
C82 C83 1.362 . S
C82 C85 1.378 . S
C82 H97 0.929 . S
C83 C82 1.362 . S
C83 C84 1.366 . S
C84 C81 1.365 . S
C84 C83 1.366 . S
C84 H98 0.930 . S
C85 C82 1.378 . S
C85 N86 1.315 . S
C85 H88 0.930 . S
N86 Co66 2.194 . S
N86 C81 1.328 . S
N86 C85 1.315 . S
H87 C81 0.929 . S
H88 C85 0.930 . S
H89 C77 0.929 . S
H90 C79 0.929 . S
O91 Co66 2.351 . S
O91 C94 1.244 . S
O92 Co66 2.155 . S
O92 C94 1.240 . S
O93 Co66 2.096 . S
O93 C74 1.247 . S
C94 O91 1.244 . S
C94 O92 1.240 . S
H95 C69 0.931 . S
H96 C78 0.931 . S
H97 C82 0.929 . S
H98 C84 0.930 . S
Co99 N103 2.148 . S
Co99 N109 2.128 . S
Co99 N119 2.194 . S
Co99 O124 2.351 . S
Co99 O125 2.155 . S
Co99 O126 2.096 . S
C100 N103 1.301 . S
C100 N104 1.328 . S
C100 H105 0.930 . S
C101 C102 1.333 . S
C101 N103 1.317 . S
C101 H106 0.930 . S
C102 C101 1.333 . S
C102 N104 1.350 . S
C102 H128 0.931 . S
N103 Co99 2.148 . S
N103 C100 1.301 . S
N103 C101 1.317 . S
N104 C100 1.328 . S
N104 C102 1.350 . S
H105 C100 0.930 . S
H106 C101 0.930 . S
C107 O108 1.224 . S
C107 O126 1.247 . S
O108 C107 1.224 . S
N109 Co99 2.128 . S
N109 C110 1.355 . S
N109 C112 1.311 . S
C110 N109 1.355 . S
C110 C111 1.363 . S
C110 H122 0.929 . S
C111 C110 1.363 . S
C111 N113 1.375 . S
C111 H129 0.931 . S
C112 N109 1.311 . S
C112 N113 1.347 . S
C112 H123 0.929 . S
N113 C111 1.375 . S
N113 C112 1.347 . S
C114 C117 1.365 . S
C114 N119 1.328 . S
C114 H120 0.929 . S
C115 C116 1.362 . S
C115 C118 1.378 . S
C115 H130 0.929 . S
C116 C115 1.362 . S
C116 C117 1.366 . S
C117 C114 1.365 . S
C117 C116 1.366 . S
C117 H131 0.930 . S
C118 C115 1.378 . S
C118 N119 1.315 . S
C118 H121 0.930 . S
N119 Co99 2.194 . S
N119 C114 1.328 . S
N119 C118 1.315 . S
H120 C114 0.929 . S
H121 C118 0.930 . S
H122 C110 0.929 . S
H123 C112 0.929 . S
O124 Co99 2.351 . S
O124 C127 1.244 . S
O125 Co99 2.155 . S
O125 C127 1.240 . S
O126 Co99 2.096 . S
O126 C107 1.247 . S
C127 O124 1.244 . S
C127 O125 1.240 . S
H128 C102 0.931 . S
H129 C111 0.931 . S
H130 C115 0.929 . S
H131 C117 0.930 . S
Co132 N136 2.148 . S
Co132 N142 2.128 . S
Co132 N152 2.194 . S
Co132 O157 2.351 . S
Co132 O158 2.155 . S
Co132 O159 2.096 . S
C133 N136 1.301 . S
C133 N137 1.328 1_565 S
C133 H138 0.930 . S
C134 C135 1.325 1_565 S
C134 N136 1.323 . S
C134 H139 0.932 . S
C135 C134 1.325 1_545 S
C135 N137 1.350 . S
C135 H161 0.931 . S
N136 Co132 2.148 . S
N136 C133 1.301 . S
N136 C134 1.323 . S
N137 C133 1.328 1_545 S
N137 C135 1.350 . S
H138 C133 0.930 . S
H139 C134 0.932 . S
C140 O141 1.224 . S
C140 O159 1.247 1_655 S
O141 C140 1.224 . S
N142 Co132 2.128 . S
N142 C143 1.355 . S
N142 C145 1.309 1_455 S
C143 N142 1.355 . S
C143 C144 1.363 . S
C143 H155 0.929 . S
C144 C143 1.363 . S
C144 N146 1.375 1_455 S
C144 H162 0.931 . S
C145 N142 1.309 1_655 S
C145 N146 1.348 . S
C145 H156 0.930 . S
N146 C144 1.375 1_655 S
N146 C145 1.348 . S
C147 C150 1.365 . S
C147 N152 1.328 . S
C147 H153 0.929 . S
C148 C149 1.362 . S
C148 C151 1.378 . S
C148 H163 0.931 . S
C149 C148 1.362 . S
C149 C150 1.366 . S
C150 C147 1.365 . S
C150 C149 1.366 . S
C150 H164 0.930 . S
C151 C148 1.378 . S
C151 N152 1.315 . S
C151 H154 0.934 . S
N152 Co132 2.194 . S
N152 C147 1.328 . S
N152 C151 1.315 . S
H153 C147 0.929 . S
H154 C151 0.934 . S
H155 C143 0.929 . S
H156 C145 0.930 . S
O157 Co132 2.351 . S
O157 C160 1.244 . S
O158 Co132 2.155 . S
O158 C160 1.240 . S
O159 Co132 2.096 . S
O159 C140 1.247 1_455 S
C160 O157 1.244 . S
C160 O158 1.240 . S
H161 C135 0.931 . S
H162 C144 0.931 . S
H163 C148 0.931 . S
H164 C150 0.930 . S
Co165 N169 2.148 . S
Co165 N175 2.128 . S
Co165 N185 2.194 . S
Co165 O190 2.351 . S
Co165 O191 2.155 . S
Co165 O192 2.096 . S
C166 N169 1.301 . S
C166 N170 1.328 . S
C166 H171 0.930 . S
C167 C168 1.333 . S
C167 N169 1.317 . S
C167 H172 0.930 . S
C168 C167 1.333 . S
C168 N170 1.350 . S
C168 H194 0.931 . S
N169 Co165 2.148 . S
N169 C166 1.301 . S
N169 C167 1.317 . S
N170 C166 1.328 . S
N170 C168 1.350 . S
H171 C166 0.930 . S
H172 C167 0.930 . S
C173 O174 1.224 . S
C173 O192 1.247 . S
O174 C173 1.224 . S
N175 Co165 2.128 . S
N175 C176 1.355 . S
N175 C178 1.311 . S
C176 N175 1.355 . S
C176 C177 1.363 . S
C176 H188 0.929 . S
C177 C176 1.363 . S
C177 N179 1.375 . S
C177 H195 0.931 . S
C178 N175 1.311 . S
C178 N179 1.347 . S
C178 H189 0.929 . S
N179 C177 1.375 . S
N179 C178 1.347 . S
C180 C183 1.365 . S
C180 N185 1.328 . S
C180 H186 0.929 . S
C181 C182 1.362 . S
C181 C184 1.378 . S
C181 H196 0.929 . S
C182 C181 1.362 . S
C182 C183 1.366 . S
C183 C180 1.365 . S
C183 C182 1.366 . S
C183 H197 0.930 . S
C184 C181 1.378 . S
C184 N185 1.315 . S
C184 H187 0.930 . S
N185 Co165 2.194 . S
N185 C180 1.328 . S
N185 C184 1.315 . S
H186 C180 0.929 . S
H187 C184 0.930 . S
H188 C176 0.929 . S
H189 C178 0.929 . S
O190 Co165 2.351 . S
O190 C193 1.244 . S
O191 Co165 2.155 . S
O191 C193 1.240 . S
O192 Co165 2.096 . S
O192 C173 1.247 . S
C193 O190 1.244 . S
C193 O191 1.240 . S
H194 C168 0.931 . S
H195 C177 0.931 . S
H196 C181 0.929 . S
H197 C183 0.930 . S
Co198 N202 2.148 . S
Co198 N208 2.128 . S
Co198 N218 2.194 . S
Co198 O223 2.351 . S
Co198 O224 2.155 . S
Co198 O225 2.096 . S
C199 N202 1.301 . S
C199 N203 1.328 1_545 S
C199 H204 0.930 . S
C200 C201 1.325 1_545 S
C200 N202 1.323 . S
C200 H205 0.932 . S
C201 C200 1.325 1_565 S
C201 N203 1.350 . S
C201 H227 0.931 . S
N202 Co198 2.148 . S
N202 C199 1.301 . S
N202 C200 1.323 . S
N203 C199 1.328 1_565 S
N203 C201 1.350 . S
H204 C199 0.930 . S
H205 C200 0.932 . S
C206 O207 1.224 . S
C206 O225 1.247 . S
O207 C206 1.224 . S
N208 Co198 2.128 . S
N208 C209 1.355 . S
N208 C211 1.311 . S
C209 N208 1.355 . S
C209 C210 1.363 . S
C209 H221 0.929 . S
C210 C209 1.363 . S
C210 N212 1.375 . S
C210 H228 0.931 . S
C211 N208 1.311 . S
C211 N212 1.347 . S
C211 H222 0.929 . S
N212 C210 1.375 . S
N212 C211 1.347 . S
C213 C216 1.365 . S
C213 N218 1.328 . S
C213 H219 0.929 . S
C214 C215 1.362 . S
C214 C217 1.378 . S
C214 H229 0.929 . S
C215 C214 1.362 . S
C215 C216 1.366 . S
C216 C213 1.365 . S
C216 C215 1.366 . S
C216 H230 0.930 . S
C217 C214 1.378 . S
C217 N218 1.315 . S
C217 H220 0.930 . S
N218 Co198 2.194 . S
N218 C213 1.328 . S
N218 C217 1.315 . S
H219 C213 0.929 . S
H220 C217 0.930 . S
H221 C209 0.929 . S
H222 C211 0.929 . S
O223 Co198 2.351 . S
O223 C226 1.244 . S
O224 Co198 2.155 . S
O224 C226 1.240 . S
O225 Co198 2.096 . S
O225 C206 1.247 . S
C226 O223 1.244 . S
C226 O224 1.240 . S
H227 C201 0.931 . S
H228 C210 0.931 . S
H229 C214 0.929 . S
H230 C216 0.930 . S
Co231 N235 2.148 . S
Co231 N241 2.128 . S
Co231 N251 2.194 . S
Co231 O256 2.351 . S
Co231 O257 2.155 . S
Co231 O258 2.096 . S
C232 N235 1.301 . S
C232 N236 1.328 . S
C232 H237 0.930 . S
C233 C234 1.333 . S
C233 N235 1.317 . S
C233 H238 0.930 . S
C234 C233 1.333 . S
C234 N236 1.350 . S
C234 H260 0.931 . S
N235 Co231 2.148 . S
N235 C232 1.301 . S
N235 C233 1.317 . S
N236 C232 1.328 . S
N236 C234 1.350 . S
H237 C232 0.930 . S
H238 C233 0.930 . S
C239 O240 1.224 . S
C239 O258 1.247 . S
O240 C239 1.224 . S
N241 Co231 2.128 . S
N241 C242 1.355 . S
N241 C244 1.311 . S
C242 N241 1.355 . S
C242 C243 1.363 . S
C242 H254 0.929 . S
C243 C242 1.363 . S
C243 N245 1.375 . S
C243 H261 0.931 . S
C244 N241 1.311 . S
C244 N245 1.347 . S
C244 H255 0.929 . S
N245 C243 1.375 . S
N245 C244 1.347 . S
C246 C249 1.365 . S
C246 N251 1.328 . S
C246 H252 0.929 . S
C247 C248 1.362 . S
C247 C250 1.378 . S
C247 H262 0.929 . S
C248 C247 1.362 . S
C248 C249 1.366 . S
C249 C246 1.365 . S
C249 C248 1.366 . S
C249 H263 0.930 . S
C250 C247 1.378 . S
C250 N251 1.315 . S
C250 H253 0.930 . S
N251 Co231 2.194 . S
N251 C246 1.328 . S
N251 C250 1.315 . S
H252 C246 0.929 . S
H253 C250 0.930 . S
H254 C242 0.929 . S
H255 C244 0.929 . S
O256 Co231 2.351 . S
O256 C259 1.244 . S
O257 Co231 2.155 . S
O257 C259 1.240 . S
O258 Co231 2.096 . S
O258 C239 1.247 . S
C259 O256 1.244 . S
C259 O257 1.240 . S
H260 C234 0.931 . S
H261 C243 0.931 . S
H262 C247 0.929 . S
H263 C249 0.930 . S
Co264 N268 2.148 . S
Co264 N274 2.128 . S
Co264 N284 2.194 . S
Co264 O289 2.351 . S
Co264 O290 2.155 . S
Co264 O291 2.096 . S
C265 N268 1.301 . S
C265 N269 1.328 1_565 S
C265 H270 0.930 . S
C266 C267 1.325 1_565 S
C266 N268 1.323 . S
C266 H271 0.932 . S
C267 C266 1.325 1_545 S
C267 N269 1.350 . S
C267 H293 0.931 . S
N268 Co264 2.148 . S
N268 C265 1.301 . S
N268 C266 1.323 . S
N269 C265 1.328 1_545 S
N269 C267 1.350 . S
H270 C265 0.930 . S
H271 C266 0.932 . S
C272 O273 1.224 . S
C272 O291 1.247 1_455 S
O273 C272 1.224 . S
N274 Co264 2.128 . S
N274 C275 1.355 . S
N274 C277 1.309 1_655 S
C275 N274 1.355 . S
C275 C276 1.363 . S
C275 H287 0.929 . S
C276 C275 1.363 . S
C276 N278 1.375 1_655 S
C276 H294 0.931 . S
C277 N274 1.309 1_455 S
C277 N278 1.348 . S
C277 H288 0.930 . S
N278 C276 1.375 1_455 S
N278 C277 1.348 . S
C279 C282 1.365 . S
C279 N284 1.328 . S
C279 H285 0.929 . S
C280 C281 1.362 . S
C280 C283 1.378 . S
C280 H295 0.931 . S
C281 C280 1.362 . S
C281 C282 1.366 . S
C282 C279 1.365 . S
C282 C281 1.366 . S
C282 H296 0.930 . S
C283 C280 1.378 . S
C283 N284 1.315 . S
C283 H286 0.934 . S
N284 Co264 2.194 . S
N284 C279 1.328 . S
N284 C283 1.315 . S
H285 C279 0.929 . S
H286 C283 0.934 . S
H287 C275 0.929 . S
H288 C277 0.930 . S
O289 Co264 2.351 . S
O289 C292 1.244 . S
O290 Co264 2.155 . S
O290 C292 1.240 . S
O291 Co264 2.096 . S
O291 C272 1.247 1_655 S
C292 O289 1.244 . S
C292 O290 1.240 . S
H293 C267 0.931 . S
H294 C276 0.931 . S
H295 C280 0.931 . S
H296 C282 0.930 . S
Co297 N301 2.148 . S
Co297 N307 2.128 . S
Co297 N317 2.194 . S
Co297 O322 2.351 . S
Co297 O323 2.155 . S
Co297 O324 2.096 . S
C298 N301 1.301 . S
C298 N302 1.328 . S
C298 H303 0.930 . S
C299 C300 1.333 . S
C299 N301 1.317 . S
C299 H304 0.930 . S
C300 C299 1.333 . S
C300 N302 1.350 . S
C300 H326 0.931 . S
N301 Co297 2.148 . S
N301 C298 1.301 . S
N301 C299 1.317 . S
N302 C298 1.328 . S
N302 C300 1.350 . S
H303 C298 0.930 . S
H304 C299 0.930 . S
C305 O306 1.224 . S
C305 O324 1.247 . S
O306 C305 1.224 . S
N307 Co297 2.128 . S
N307 C308 1.355 . S
N307 C310 1.311 . S
C308 N307 1.355 . S
C308 C309 1.363 . S
C308 H320 0.929 . S
C309 C308 1.363 . S
C309 N311 1.375 . S
C309 H327 0.931 . S
C310 N307 1.311 . S
C310 N311 1.347 . S
C310 H321 0.929 . S
N311 C309 1.375 . S
N311 C310 1.347 . S
C312 C315 1.365 . S
C312 N317 1.328 . S
C312 H318 0.929 . S
C313 C314 1.362 . S
C313 C316 1.378 . S
C313 H328 0.929 . S
C314 C313 1.362 . S
C314 C315 1.366 . S
C315 C312 1.365 . S
C315 C314 1.366 . S
C315 H329 0.930 . S
C316 C313 1.378 . S
C316 N317 1.315 . S
C316 H319 0.930 . S
N317 Co297 2.194 . S
N317 C312 1.328 . S
N317 C316 1.315 . S
H318 C312 0.929 . S
H319 C316 0.930 . S
H320 C308 0.929 . S
H321 C310 0.929 . S
O322 Co297 2.351 . S
O322 C325 1.244 . S
O323 Co297 2.155 . S
O323 C325 1.240 . S
O324 Co297 2.096 . S
O324 C305 1.247 . S
C325 O322 1.244 . S
C325 O323 1.240 . S
H326 C300 0.931 . S
H327 C309 0.931 . S
H328 C313 0.929 . S
H329 C315 0.930 . S
Co330 N334 2.148 . S
Co330 N340 2.128 . S
Co330 N350 2.194 . S
Co330 O355 2.351 . S
Co330 O356 2.155 . S
Co330 O357 2.096 . S
C331 N334 1.301 . S
C331 N335 1.328 1_545 S
C331 H336 0.930 . S
C332 C333 1.325 1_545 S
C332 N334 1.323 . S
C332 H337 0.932 . S
C333 C332 1.325 1_565 S
C333 N335 1.350 . S
C333 H359 0.931 . S
N334 Co330 2.148 . S
N334 C331 1.301 . S
N334 C332 1.323 . S
N335 C331 1.328 1_565 S
N335 C333 1.350 . S
H336 C331 0.930 . S
H337 C332 0.932 . S
C338 O339 1.224 . S
C338 O357 1.247 . S
O339 C338 1.224 . S
N340 Co330 2.128 . S
N340 C341 1.355 . S
N340 C343 1.311 . S
C341 N340 1.355 . S
C341 C342 1.363 . S
C341 H353 0.929 . S
C342 C341 1.363 . S
C342 N344 1.375 . S
C342 H360 0.931 . S
C343 N340 1.311 . S
C343 N344 1.347 . S
C343 H354 0.929 . S
N344 C342 1.375 . S
N344 C343 1.347 . S
C345 C348 1.365 . S
C345 N350 1.328 . S
C345 H351 0.929 . S
C346 C347 1.362 . S
C346 C349 1.378 . S
C346 H361 0.929 . S
C347 C346 1.362 . S
C347 C348 1.366 . S
C348 C345 1.365 . S
C348 C347 1.366 . S
C348 H362 0.930 . S
C349 C346 1.378 . S
C349 N350 1.315 . S
C349 H352 0.930 . S
N350 Co330 2.194 . S
N350 C345 1.328 . S
N350 C349 1.315 . S
H351 C345 0.929 . S
H352 C349 0.930 . S
H353 C341 0.929 . S
H354 C343 0.929 . S
O355 Co330 2.351 . S
O355 C358 1.244 . S
O356 Co330 2.155 . S
O356 C358 1.240 . S
O357 Co330 2.096 . S
O357 C338 1.247 . S
C358 O355 1.244 . S
C358 O356 1.240 . S
H359 C333 0.931 . S
H360 C342 0.931 . S
H361 C346 0.929 . S
H362 C348 0.930 . S
Co363 N367 2.148 . S
Co363 N373 2.128 . S
Co363 N383 2.194 . S
Co363 O388 2.351 . S
Co363 O389 2.155 . S
Co363 O390 2.096 . S
C364 N367 1.301 . S
C364 N368 1.328 . S
C364 H369 0.930 . S
C365 C366 1.333 . S
C365 N367 1.317 . S
C365 H370 0.930 . S
C366 C365 1.333 . S
C366 N368 1.350 . S
C366 H392 0.931 . S
N367 Co363 2.148 . S
N367 C364 1.301 . S
N367 C365 1.317 . S
N368 C364 1.328 . S
N368 C366 1.350 . S
H369 C364 0.930 . S
H370 C365 0.930 . S
C371 O372 1.224 . S
C371 O390 1.247 . S
O372 C371 1.224 . S
N373 Co363 2.128 . S
N373 C374 1.355 . S
N373 C376 1.311 . S
C374 N373 1.355 . S
C374 C375 1.363 . S
C374 H386 0.929 . S
C375 C374 1.363 . S
C375 N377 1.375 . S
C375 H393 0.931 . S
C376 N373 1.311 . S
C376 N377 1.347 . S
C376 H387 0.929 . S
N377 C375 1.375 . S
N377 C376 1.347 . S
C378 C381 1.365 . S
C378 N383 1.328 . S
C378 H384 0.929 . S
C379 C380 1.362 . S
C379 C382 1.378 . S
C379 H394 0.929 . S
C380 C379 1.362 . S
C380 C381 1.366 . S
C381 C378 1.365 . S
C381 C380 1.366 . S
C381 H395 0.930 . S
C382 C379 1.378 . S
C382 N383 1.315 . S
C382 H385 0.930 . S
N383 Co363 2.194 . S
N383 C378 1.328 . S
N383 C382 1.315 . S
H384 C378 0.929 . S
H385 C382 0.930 . S
H386 C374 0.929 . S
H387 C376 0.929 . S
O388 Co363 2.351 . S
O388 C391 1.244 . S
O389 Co363 2.155 . S
O389 C391 1.240 . S
O390 Co363 2.096 . S
O390 C371 1.247 . S
C391 O388 1.244 . S
C391 O389 1.240 . S
H392 C366 0.931 . S
H393 C375 0.931 . S
H394 C379 0.929 . S
H395 C381 0.930 . S
Co396 N400 2.148 . S
Co396 N406 2.128 . S
Co396 N416 2.194 . S
Co396 O421 2.351 . S
Co396 O422 2.155 . S
Co396 O423 2.096 . S
C397 N400 1.301 . S
C397 N401 1.328 1_545 S
C397 H402 0.930 . S
C398 C399 1.325 1_545 S
C398 N400 1.323 . S
C398 H403 0.932 . S
C399 C398 1.325 1_565 S
C399 N401 1.350 . S
C399 H425 0.931 . S
N400 Co396 2.148 . S
N400 C397 1.301 . S
N400 C398 1.323 . S
N401 C397 1.328 1_565 S
N401 C399 1.350 . S
H402 C397 0.930 . S
H403 C398 0.932 . S
C404 O405 1.224 . S
C404 O423 1.247 1_455 S
O405 C404 1.224 . S
N406 Co396 2.128 . S
N406 C407 1.355 . S
N406 C409 1.309 1_655 S
C407 N406 1.355 . S
C407 C408 1.363 . S
C407 H419 0.929 . S
C408 C407 1.363 . S
C408 N410 1.375 1_655 S
C408 H426 0.931 . S
C409 N406 1.309 1_455 S
C409 N410 1.348 . S
C409 H420 0.930 . S
N410 C408 1.375 1_455 S
N410 C409 1.348 . S
C411 C414 1.365 . S
C411 N416 1.328 . S
C411 H417 0.929 . S
C412 C413 1.362 . S
C412 C415 1.378 . S
C412 H427 0.931 . S
C413 C412 1.362 . S
C413 C414 1.366 . S
C414 C411 1.365 . S
C414 C413 1.366 . S
C414 H428 0.930 . S
C415 C412 1.378 . S
C415 N416 1.315 . S
C415 H418 0.934 . S
N416 Co396 2.194 . S
N416 C411 1.328 . S
N416 C415 1.315 . S
H417 C411 0.929 . S
H418 C415 0.934 . S
H419 C407 0.929 . S
H420 C409 0.930 . S
O421 Co396 2.351 . S
O421 C424 1.244 . S
O422 Co396 2.155 . S
O422 C424 1.240 . S
O423 Co396 2.096 . S
O423 C404 1.247 1_655 S
C424 O421 1.244 . S
C424 O422 1.240 . S
H425 C399 0.931 . S
H426 C408 0.931 . S
H427 C412 0.931 . S
H428 C414 0.930 . S
Co429 N433 2.148 . S
Co429 N439 2.128 . S
Co429 N449 2.194 . S
Co429 O454 2.351 . S
Co429 O455 2.155 . S
Co429 O456 2.096 . S
C430 N433 1.301 . S
C430 N434 1.328 . S
C430 H435 0.930 . S
C431 C432 1.333 . S
C431 N433 1.317 . S
C431 H436 0.930 . S
C432 C431 1.333 . S
C432 N434 1.350 . S
C432 H458 0.931 . S
N433 Co429 2.148 . S
N433 C430 1.301 . S
N433 C431 1.317 . S
N434 C430 1.328 . S
N434 C432 1.350 . S
H435 C430 0.930 . S
H436 C431 0.930 . S
C437 O438 1.224 . S
C437 O456 1.247 . S
O438 C437 1.224 . S
N439 Co429 2.128 . S
N439 C440 1.355 . S
N439 C442 1.311 . S
C440 N439 1.355 . S
C440 C441 1.363 . S
C440 H452 0.929 . S
C441 C440 1.363 . S
C441 N443 1.375 . S
C441 H459 0.931 . S
C442 N439 1.311 . S
C442 N443 1.347 . S
C442 H453 0.929 . S
N443 C441 1.375 . S
N443 C442 1.347 . S
C444 C447 1.365 . S
C444 N449 1.328 . S
C444 H450 0.929 . S
C445 C446 1.362 . S
C445 C448 1.378 . S
C445 H460 0.929 . S
C446 C445 1.362 . S
C446 C447 1.366 . S
C447 C444 1.365 . S
C447 C446 1.366 . S
C447 H461 0.930 . S
C448 C445 1.378 . S
C448 N449 1.315 . S
C448 H451 0.930 . S
N449 Co429 2.194 . S
N449 C444 1.328 . S
N449 C448 1.315 . S
H450 C444 0.929 . S
H451 C448 0.930 . S
H452 C440 0.929 . S
H453 C442 0.929 . S
O454 Co429 2.351 . S
O454 C457 1.244 . S
O455 Co429 2.155 . S
O455 C457 1.240 . S
O456 Co429 2.096 . S
O456 C437 1.247 . S
C457 O454 1.244 . S
C457 O455 1.240 . S
H458 C432 0.931 . S
H459 C441 0.931 . S
H460 C445 0.929 . S
H461 C447 0.930 . S
Co462 N466 2.148 . S
Co462 N472 2.128 . S
Co462 N482 2.194 . S
Co462 O487 2.351 . S
Co462 O488 2.155 . S
Co462 O489 2.096 . S
C463 N466 1.301 . S
C463 N467 1.328 1_565 S
C463 H468 0.930 . S
C464 C465 1.325 1_565 S
C464 N466 1.323 . S
C464 H469 0.932 . S
C465 C464 1.325 1_545 S
C465 N467 1.350 . S
C465 H491 0.931 . S
N466 Co462 2.148 . S
N466 C463 1.301 . S
N466 C464 1.323 . S
N467 C463 1.328 1_545 S
N467 C465 1.350 . S
H468 C463 0.930 . S
H469 C464 0.932 . S
C470 O471 1.224 . S
C470 O489 1.247 . S
O471 C470 1.224 . S
N472 Co462 2.128 . S
N472 C473 1.355 . S
N472 C475 1.311 . S
C473 N472 1.355 . S
C473 C474 1.363 . S
C473 H485 0.929 . S
C474 C473 1.363 . S
C474 N476 1.375 . S
C474 H492 0.931 . S
C475 N472 1.311 . S
C475 N476 1.347 . S
C475 H486 0.929 . S
N476 C474 1.375 . S
N476 C475 1.347 . S
C477 C480 1.365 . S
C477 N482 1.328 . S
C477 H483 0.929 . S
C478 C479 1.362 . S
C478 C481 1.378 . S
C478 H493 0.929 . S
C479 C478 1.362 . S
C479 C480 1.366 . S
C480 C477 1.365 . S
C480 C479 1.366 . S
C480 H494 0.930 . S
C481 C478 1.378 . S
C481 N482 1.315 . S
C481 H484 0.930 . S
N482 Co462 2.194 . S
N482 C477 1.328 . S
N482 C481 1.315 . S
H483 C477 0.929 . S
H484 C481 0.930 . S
H485 C473 0.929 . S
H486 C475 0.929 . S
O487 Co462 2.351 . S
O487 C490 1.244 . S
O488 Co462 2.155 . S
O488 C490 1.240 . S
O489 Co462 2.096 . S
O489 C470 1.247 . S
C490 O487 1.244 . S
C490 O488 1.240 . S
H491 C465 0.931 . S
H492 C474 0.931 . S
H493 C478 0.929 . S
H494 C480 0.930 . S
Co495 N499 2.148 . S
Co495 N505 2.128 . S
Co495 N515 2.194 . S
Co495 O520 2.351 . S
Co495 O521 2.155 . S
Co495 O522 2.096 . S
C496 N499 1.301 . S
C496 N500 1.328 . S
C496 H501 0.930 . S
C497 C498 1.333 . S
C497 N499 1.317 . S
C497 H502 0.930 . S
C498 C497 1.333 . S
C498 N500 1.350 . S
C498 H524 0.931 . S
N499 Co495 2.148 . S
N499 C496 1.301 . S
N499 C497 1.317 . S
N500 C496 1.328 . S
N500 C498 1.350 . S
H501 C496 0.930 . S
H502 C497 0.930 . S
C503 O504 1.224 . S
C503 O522 1.247 . S
O504 C503 1.224 . S
N505 Co495 2.128 . S
N505 C506 1.355 . S
N505 C508 1.311 . S
C506 N505 1.355 . S
C506 C507 1.363 . S
C506 H518 0.929 . S
C507 C506 1.363 . S
C507 N509 1.375 . S
C507 H525 0.931 . S
C508 N505 1.311 . S
C508 N509 1.347 . S
C508 H519 0.929 . S
N509 C507 1.375 . S
N509 C508 1.347 . S
C510 C513 1.365 . S
C510 N515 1.328 . S
C510 H516 0.929 . S
C511 C512 1.362 . S
C511 C514 1.378 . S
C511 H526 0.929 . S
C512 C511 1.362 . S
C512 C513 1.366 . S
C513 C510 1.365 . S
C513 C512 1.366 . S
C513 H527 0.930 . S
C514 C511 1.378 . S
C514 N515 1.315 . S
C514 H517 0.930 . S
N515 Co495 2.194 . S
N515 C510 1.328 . S
N515 C514 1.315 . S
H516 C510 0.929 . S
H517 C514 0.930 . S
H518 C506 0.929 . S
H519 C508 0.929 . S
O520 Co495 2.351 . S
O520 C523 1.244 . S
O521 Co495 2.155 . S
O521 C523 1.240 . S
O522 Co495 2.096 . S
O522 C503 1.247 . S
C523 O520 1.244 . S
C523 O521 1.240 . S
H524 C498 0.931 . S
H525 C507 0.931 . S
H526 C511 0.929 . S
H527 C513 0.930 . S
Co528 N532 2.148 . S
Co528 N538 2.128 . S
Co528 N548 2.194 . S
Co528 O553 2.351 . S
Co528 O554 2.155 . S
Co528 O555 2.096 . S
C529 N532 1.301 . S
C529 N533 1.328 . S
C529 H534 0.930 . S
C530 C531 1.333 . S
C530 N532 1.317 . S
C530 H535 0.930 . S
C531 C530 1.333 . S
C531 N533 1.350 . S
C531 H557 0.931 . S
N532 Co528 2.148 . S
N532 C529 1.301 . S
N532 C530 1.317 . S
N533 C529 1.328 . S
N533 C531 1.350 . S
H534 C529 0.930 . S
H535 C530 0.930 . S
C536 O537 1.224 . S
C536 O555 1.247 . S
O537 C536 1.224 . S
N538 Co528 2.128 . S
N538 C539 1.355 . S
N538 C541 1.311 . S
C539 N538 1.355 . S
C539 C540 1.363 . S
C539 H551 0.929 . S
C540 C539 1.363 . S
C540 N542 1.375 . S
C540 H558 0.931 . S
C541 N538 1.311 . S
C541 N542 1.347 . S
C541 H552 0.929 . S
N542 C540 1.375 . S
N542 C541 1.347 . S
C543 C546 1.365 . S
C543 N548 1.328 . S
C543 H549 0.929 . S
C544 C545 1.362 . S
C544 C547 1.378 . S
C544 H559 0.929 . S
C545 C544 1.362 . S
C545 C546 1.366 . S
C546 C543 1.365 . S
C546 C545 1.366 . S
C546 H560 0.930 . S
C547 C544 1.378 . S
C547 N548 1.315 . S
C547 H550 0.930 . S
N548 Co528 2.194 . S
N548 C543 1.328 . S
N548 C547 1.315 . S
H549 C543 0.929 . S
H550 C547 0.930 . S
H551 C539 0.929 . S
H552 C541 0.929 . S
O553 Co528 2.351 . S
O553 C556 1.244 . S
O554 Co528 2.155 . S
O554 C556 1.240 . S
O555 Co528 2.096 . S
O555 C536 1.247 . S
C556 O553 1.244 . S
C556 O554 1.240 . S
H557 C531 0.931 . S
H558 C540 0.931 . S
H559 C544 0.929 . S
H560 C546 0.930 . S
Co561 N565 2.148 . S
Co561 N571 2.128 . S
Co561 N581 2.194 . S
Co561 O586 2.351 . S
Co561 O587 2.155 . S
Co561 O588 2.096 . S
C562 N565 1.301 . S
C562 N566 1.328 . S
C562 H567 0.930 . S
C563 C564 1.333 . S
C563 N565 1.317 . S
C563 H568 0.930 . S
C564 C563 1.333 . S
C564 N566 1.350 . S
C564 H590 0.931 . S
N565 Co561 2.148 . S
N565 C562 1.301 . S
N565 C563 1.317 . S
N566 C562 1.328 . S
N566 C564 1.350 . S
H567 C562 0.930 . S
H568 C563 0.930 . S
C569 O570 1.224 . S
C569 O588 1.247 . S
O570 C569 1.224 . S
N571 Co561 2.128 . S
N571 C572 1.355 . S
N571 C574 1.311 . S
C572 N571 1.355 . S
C572 C573 1.363 . S
C572 H584 0.929 . S
C573 C572 1.363 . S
C573 N575 1.375 . S
C573 H591 0.931 . S
C574 N571 1.311 . S
C574 N575 1.347 . S
C574 H585 0.929 . S
N575 C573 1.375 . S
N575 C574 1.347 . S
C576 C579 1.365 . S
C576 N581 1.328 . S
C576 H582 0.929 . S
C577 C578 1.362 . S
C577 C580 1.378 . S
C577 H592 0.929 . S
C578 C577 1.362 . S
C578 C579 1.366 . S
C579 C576 1.365 . S
C579 C578 1.366 . S
C579 H593 0.930 . S
C580 C577 1.378 . S
C580 N581 1.315 . S
C580 H583 0.930 . S
N581 Co561 2.194 . S
N581 C576 1.328 . S
N581 C580 1.315 . S
H582 C576 0.929 . S
H583 C580 0.930 . S
H584 C572 0.929 . S
H585 C574 0.929 . S
O586 Co561 2.351 . S
O586 C589 1.244 . S
O587 Co561 2.155 . S
O587 C589 1.240 . S
O588 Co561 2.096 . S
O588 C569 1.247 . S
C589 O586 1.244 . S
C589 O587 1.240 . S
H590 C564 0.931 . S
H591 C573 0.931 . S
H592 C577 0.929 . S
H593 C579 0.930 . S
Co594 N598 2.148 . S
Co594 N604 2.128 . S
Co594 N614 2.194 . S
Co594 O619 2.351 . S
Co594 O620 2.155 . S
Co594 O621 2.096 . S
C595 N598 1.301 . S
C595 N599 1.328 . S
C595 H600 0.930 . S
C596 C597 1.333 . S
C596 N598 1.317 . S
C596 H601 0.930 . S
C597 C596 1.333 . S
C597 N599 1.350 . S
C597 H623 0.931 . S
N598 Co594 2.148 . S
N598 C595 1.301 . S
N598 C596 1.317 . S
N599 C595 1.328 . S
N599 C597 1.350 . S
H600 C595 0.930 . S
H601 C596 0.930 . S
C602 O603 1.224 . S
C602 O621 1.247 1_455 S
O603 C602 1.224 . S
N604 Co594 2.128 . S
N604 C605 1.355 . S
N604 C607 1.309 1_655 S
C605 N604 1.355 . S
C605 C606 1.363 . S
C605 H617 0.929 . S
C606 C605 1.363 . S
C606 N608 1.375 1_655 S
C606 H624 0.931 . S
C607 N604 1.309 1_455 S
C607 N608 1.348 . S
C607 H618 0.930 . S
N608 C606 1.375 1_455 S
N608 C607 1.348 . S
C609 C612 1.365 . S
C609 N614 1.328 . S
C609 H615 0.929 . S
C610 C611 1.362 . S
C610 C613 1.378 . S
C610 H625 0.931 . S
C611 C610 1.362 . S
C611 C612 1.366 . S
C612 C609 1.365 . S
C612 C611 1.366 . S
C612 H626 0.930 . S
C613 C610 1.378 . S
C613 N614 1.315 . S
C613 H616 0.934 . S
N614 Co594 2.194 . S
N614 C609 1.328 . S
N614 C613 1.315 . S
H615 C609 0.929 . S
H616 C613 0.934 . S
H617 C605 0.929 . S
H618 C607 0.930 . S
O619 Co594 2.351 . S
O619 C622 1.244 . S
O620 Co594 2.155 . S
O620 C622 1.240 . S
O621 Co594 2.096 . S
O621 C602 1.247 1_655 S
C622 O619 1.244 . S
C622 O620 1.240 . S
H623 C597 0.931 . S
H624 C606 0.931 . S
H625 C610 0.931 . S
H626 C612 0.930 . S
Co627 N631 2.148 . S
Co627 N637 2.128 . S
Co627 N647 2.194 . S
Co627 O652 2.351 . S
Co627 O653 2.155 . S
Co627 O654 2.096 . S
C628 N631 1.301 . S
C628 N632 1.328 . S
C628 H633 0.930 . S
C629 C630 1.333 . S
C629 N631 1.317 . S
C629 H634 0.930 . S
C630 C629 1.333 . S
C630 N632 1.350 . S
C630 H656 0.931 . S
N631 Co627 2.148 . S
N631 C628 1.301 . S
N631 C629 1.317 . S
N632 C628 1.328 . S
N632 C630 1.350 . S
H633 C628 0.930 . S
H634 C629 0.930 . S
C635 O636 1.224 . S
C635 O654 1.247 . S
O636 C635 1.224 . S
N637 Co627 2.128 . S
N637 C638 1.355 . S
N637 C640 1.311 . S
C638 N637 1.355 . S
C638 C639 1.363 . S
C638 H650 0.929 . S
C639 C638 1.363 . S
C639 N641 1.375 . S
C639 H657 0.931 . S
C640 N637 1.311 . S
C640 N641 1.347 . S
C640 H651 0.929 . S
N641 C639 1.375 . S
N641 C640 1.347 . S
C642 C645 1.365 . S
C642 N647 1.328 . S
C642 H648 0.929 . S
C643 C644 1.362 . S
C643 C646 1.378 . S
C643 H658 0.929 . S
C644 C643 1.362 . S
C644 C645 1.366 . S
C645 C642 1.365 . S
C645 C644 1.366 . S
C645 H659 0.930 . S
C646 C643 1.378 . S
C646 N647 1.315 . S
C646 H649 0.930 . S
N647 Co627 2.194 . S
N647 C642 1.328 . S
N647 C646 1.315 . S
H648 C642 0.929 . S
H649 C646 0.930 . S
H650 C638 0.929 . S
H651 C640 0.929 . S
O652 Co627 2.351 . S
O652 C655 1.244 . S
O653 Co627 2.155 . S
O653 C655 1.240 . S
O654 Co627 2.096 . S
O654 C635 1.247 . S
C655 O652 1.244 . S
C655 O653 1.240 . S
H656 C630 0.931 . S
H657 C639 0.931 . S
H658 C643 0.929 . S
H659 C645 0.930 . S
Co660 N664 2.148 . S
Co660 N670 2.128 . S
Co660 N680 2.194 . S
Co660 O685 2.351 . S
Co660 O686 2.155 . S
Co660 O687 2.096 . S
C661 N664 1.301 . S
C661 N665 1.328 . S
C661 H666 0.930 . S
C662 C663 1.333 . S
C662 N664 1.317 . S
C662 H667 0.930 . S
C663 C662 1.333 . S
C663 N665 1.350 . S
C663 H689 0.931 . S
N664 Co660 2.148 . S
N664 C661 1.301 . S
N664 C662 1.317 . S
N665 C661 1.328 . S
N665 C663 1.350 . S
H666 C661 0.930 . S
H667 C662 0.930 . S
C668 O669 1.224 . S
C668 O687 1.247 . S
O669 C668 1.224 . S
N670 Co660 2.128 . S
N670 C671 1.355 . S
N670 C673 1.311 . S
C671 N670 1.355 . S
C671 C672 1.363 . S
C671 H683 0.929 . S
C672 C671 1.363 . S
C672 N674 1.375 . S
C672 H690 0.931 . S
C673 N670 1.311 . S
C673 N674 1.347 . S
C673 H684 0.929 . S
N674 C672 1.375 . S
N674 C673 1.347 . S
C675 C678 1.365 . S
C675 N680 1.328 . S
C675 H681 0.929 . S
C676 C677 1.362 . S
C676 C679 1.378 . S
C676 H691 0.929 . S
C677 C676 1.362 . S
C677 C678 1.366 . S
C678 C675 1.365 . S
C678 C677 1.366 . S
C678 H692 0.930 . S
C679 C676 1.378 . S
C679 N680 1.315 . S
C679 H682 0.930 . S
N680 Co660 2.194 . S
N680 C675 1.328 . S
N680 C679 1.315 . S
H681 C675 0.929 . S
H682 C679 0.930 . S
H683 C671 0.929 . S
H684 C673 0.929 . S
O685 Co660 2.351 . S
O685 C688 1.244 . S
O686 Co660 2.155 . S
O686 C688 1.240 . S
O687 Co660 2.096 . S
O687 C668 1.247 . S
C688 O685 1.244 . S
C688 O686 1.240 . S
H689 C663 0.931 . S
H690 C672 0.931 . S
H691 C676 0.929 . S
H692 C678 0.930 . S
Co693 N697 2.148 . S
Co693 N703 2.128 . S
Co693 N713 2.194 . S
Co693 O718 2.351 . S
Co693 O719 2.155 . S
Co693 O720 2.096 . S
C694 N697 1.301 . S
C694 N698 1.328 . S
C694 H699 0.930 . S
C695 C696 1.333 . S
C695 N697 1.317 . S
C695 H700 0.930 . S
C696 C695 1.333 . S
C696 N698 1.350 . S
C696 H722 0.931 . S
N697 Co693 2.148 . S
N697 C694 1.301 . S
N697 C695 1.317 . S
N698 C694 1.328 . S
N698 C696 1.350 . S
H699 C694 0.930 . S
H700 C695 0.930 . S
C701 O702 1.224 . S
C701 O720 1.247 . S
O702 C701 1.224 . S
N703 Co693 2.128 . S
N703 C704 1.355 . S
N703 C706 1.311 . S
C704 N703 1.355 . S
C704 C705 1.363 . S
C704 H716 0.929 . S
C705 C704 1.363 . S
C705 N707 1.375 . S
C705 H723 0.931 . S
C706 N703 1.311 . S
C706 N707 1.347 . S
C706 H717 0.929 . S
N707 C705 1.375 . S
N707 C706 1.347 . S
C708 C711 1.365 . S
C708 N713 1.328 . S
C708 H714 0.929 . S
C709 C710 1.362 . S
C709 C712 1.378 . S
C709 H724 0.929 . S
C710 C709 1.362 . S
C710 C711 1.366 . S
C711 C708 1.365 . S
C711 C710 1.366 . S
C711 H725 0.930 . S
C712 C709 1.378 . S
C712 N713 1.315 . S
C712 H715 0.930 . S
N713 Co693 2.194 . S
N713 C708 1.328 . S
N713 C712 1.315 . S
H714 C708 0.929 . S
H715 C712 0.930 . S
H716 C704 0.929 . S
H717 C706 0.929 . S
O718 Co693 2.351 . S
O718 C721 1.244 . S
O719 Co693 2.155 . S
O719 C721 1.240 . S
O720 Co693 2.096 . S
O720 C701 1.247 . S
C721 O718 1.244 . S
C721 O719 1.240 . S
H722 C696 0.931 . S
H723 C705 0.931 . S
H724 C709 0.929 . S
H725 C711 0.930 . S
Co726 N730 2.148 . S
Co726 N736 2.128 . S
Co726 N746 2.194 . S
Co726 O751 2.351 . S
Co726 O752 2.155 . S
Co726 O753 2.096 . S
C727 N730 1.301 . S
C727 N731 1.328 . S
C727 H732 0.930 . S
C728 C729 1.333 . S
C728 N730 1.317 . S
C728 H733 0.930 . S
C729 C728 1.333 . S
C729 N731 1.350 . S
C729 H755 0.931 . S
N730 Co726 2.148 . S
N730 C727 1.301 . S
N730 C728 1.317 . S
N731 C727 1.328 . S
N731 C729 1.350 . S
H732 C727 0.930 . S
H733 C728 0.930 . S
C734 O735 1.224 . S
C734 O753 1.247 1_455 S
O735 C734 1.224 . S
N736 Co726 2.128 . S
N736 C737 1.355 . S
N736 C739 1.309 1_655 S
C737 N736 1.355 . S
C737 C738 1.363 . S
C737 H749 0.929 . S
C738 C737 1.363 . S
C738 N740 1.375 1_655 S
C738 H756 0.931 . S
C739 N736 1.309 1_455 S
C739 N740 1.348 . S
C739 H750 0.931 . S
N740 C738 1.375 1_455 S
N740 C739 1.348 . S
C741 C744 1.365 . S
C741 N746 1.328 . S
C741 H747 0.929 . S
C742 C743 1.362 . S
C742 C745 1.378 . S
C742 H757 0.931 . S
C743 C742 1.362 . S
C743 C744 1.366 . S
C744 C741 1.365 . S
C744 C743 1.366 . S
C744 H758 0.930 . S
C745 C742 1.378 . S
C745 N746 1.315 . S
C745 H748 0.934 . S
N746 Co726 2.194 . S
N746 C741 1.328 . S
N746 C745 1.315 . S
H747 C741 0.929 . S
H748 C745 0.934 . S
H749 C737 0.929 . S
H750 C739 0.931 . S
O751 Co726 2.351 . S
O751 C754 1.244 . S
O752 Co726 2.155 . S
O752 C754 1.240 . S
O753 Co726 2.096 . S
O753 C734 1.247 1_655 S
C754 O751 1.244 . S
C754 O752 1.240 . S
H755 C729 0.931 . S
H756 C738 0.931 . S
H757 C742 0.931 . S
H758 C744 0.930 . S
Co759 N763 2.148 . S
Co759 N769 2.128 . S
Co759 N779 2.194 . S
Co759 O784 2.351 . S
Co759 O785 2.155 . S
Co759 O786 2.096 . S
C760 N763 1.301 . S
C760 N764 1.328 . S
C760 H765 0.930 . S
C761 C762 1.333 . S
C761 N763 1.317 . S
C761 H766 0.930 . S
C762 C761 1.333 . S
C762 N764 1.350 . S
C762 H788 0.931 . S
N763 Co759 2.148 . S
N763 C760 1.301 . S
N763 C761 1.317 . S
N764 C760 1.328 . S
N764 C762 1.350 . S
H765 C760 0.930 . S
H766 C761 0.930 . S
C767 O768 1.224 . S
C767 O786 1.247 . S
O768 C767 1.224 . S
N769 Co759 2.128 . S
N769 C770 1.355 . S
N769 C772 1.311 . S
C770 N769 1.355 . S
C770 C771 1.363 . S
C770 H782 0.929 . S
C771 C770 1.363 . S
C771 N773 1.375 . S
C771 H789 0.931 . S
C772 N769 1.311 . S
C772 N773 1.347 . S
C772 H783 0.929 . S
N773 C771 1.375 . S
N773 C772 1.347 . S
C774 C777 1.365 . S
C774 N779 1.328 . S
C774 H780 0.929 . S
C775 C776 1.362 . S
C775 C778 1.378 . S
C775 H790 0.929 . S
C776 C775 1.362 . S
C776 C777 1.366 . S
C777 C774 1.365 . S
C777 C776 1.366 . S
C777 H791 0.930 . S
C778 C775 1.378 . S
C778 N779 1.315 . S
C778 H781 0.930 . S
N779 Co759 2.194 . S
N779 C774 1.328 . S
N779 C778 1.315 . S
H780 C774 0.929 . S
H781 C778 0.930 . S
H782 C770 0.929 . S
H783 C772 0.929 . S
O784 Co759 2.351 . S
O784 C787 1.244 . S
O785 Co759 2.155 . S
O785 C787 1.240 . S
O786 Co759 2.096 . S
O786 C767 1.247 . S
C787 O784 1.244 . S
C787 O785 1.240 . S
H788 C762 0.931 . S
H789 C771 0.931 . S
H790 C775 0.929 . S
H791 C777 0.930 . S
Co792 N796 2.148 . S
Co792 N802 2.128 . S
Co792 N812 2.194 . S
Co792 O817 2.351 . S
Co792 O818 2.155 . S
Co792 O819 2.096 . S
C793 N796 1.301 . S
C793 N797 1.328 . S
C793 H798 0.930 . S
C794 C795 1.333 . S
C794 N796 1.317 . S
C794 H799 0.930 . S
C795 C794 1.333 . S
C795 N797 1.350 . S
C795 H821 0.931 . S
N796 Co792 2.148 . S
N796 C793 1.301 . S
N796 C794 1.317 . S
N797 C793 1.328 . S
N797 C795 1.350 . S
H798 C793 0.930 . S
H799 C794 0.930 . S
C800 O801 1.224 . S
C800 O819 1.247 . S
O801 C800 1.224 . S
N802 Co792 2.128 . S
N802 C803 1.355 . S
N802 C805 1.311 . S
C803 N802 1.355 . S
C803 C804 1.363 . S
C803 H815 0.929 . S
C804 C803 1.363 . S
C804 N806 1.375 . S
C804 H822 0.931 . S
C805 N802 1.311 . S
C805 N806 1.347 . S
C805 H816 0.929 . S
N806 C804 1.375 . S
N806 C805 1.347 . S
C807 C810 1.365 . S
C807 N812 1.328 . S
C807 H813 0.929 . S
C808 C809 1.362 . S
C808 C811 1.378 . S
C808 H823 0.929 . S
C809 C808 1.362 . S
C809 C810 1.366 . S
C810 C807 1.365 . S
C810 C809 1.366 . S
C810 H824 0.930 . S
C811 C808 1.378 . S
C811 N812 1.315 . S
C811 H814 0.930 . S
N812 Co792 2.194 . S
N812 C807 1.328 . S
N812 C811 1.315 . S
H813 C807 0.929 . S
H814 C811 0.930 . S
H815 C803 0.929 . S
H816 C805 0.929 . S
O817 Co792 2.351 . S
O817 C820 1.244 . S
O818 Co792 2.155 . S
O818 C820 1.240 . S
O819 Co792 2.096 . S
O819 C800 1.247 . S
C820 O817 1.244 . S
C820 O818 1.240 . S
H821 C795 0.931 . S
H822 C804 0.931 . S
H823 C808 0.929 . S
H824 C810 0.930 . S
Co825 N829 2.148 . S
Co825 N835 2.128 . S
Co825 N845 2.194 . S
Co825 O850 2.351 . S
Co825 O851 2.155 . S
Co825 O852 2.096 . S
C826 N829 1.301 . S
C826 N830 1.328 . S
C826 H831 0.930 . S
C827 C828 1.333 . S
C827 N829 1.317 . S
C827 H832 0.930 . S
C828 C827 1.333 . S
C828 N830 1.350 . S
C828 H854 0.931 . S
N829 Co825 2.148 . S
N829 C826 1.301 . S
N829 C827 1.317 . S
N830 C826 1.328 . S
N830 C828 1.350 . S
H831 C826 0.930 . S
H832 C827 0.930 . S
C833 O834 1.224 . S
C833 O852 1.247 . S
O834 C833 1.224 . S
N835 Co825 2.128 . S
N835 C836 1.355 . S
N835 C838 1.311 . S
C836 N835 1.355 . S
C836 C837 1.363 . S
C836 H848 0.929 . S
C837 C836 1.363 . S
C837 N839 1.375 . S
C837 H855 0.931 . S
C838 N835 1.311 . S
C838 N839 1.347 . S
C838 H849 0.929 . S
N839 C837 1.375 . S
N839 C838 1.347 . S
C840 C843 1.365 . S
C840 N845 1.328 . S
C840 H846 0.929 . S
C841 C842 1.362 . S
C841 C844 1.378 . S
C841 H856 0.929 . S
C842 C841 1.362 . S
C842 C843 1.366 . S
C843 C840 1.365 . S
C843 C842 1.366 . S
C843 H857 0.930 . S
C844 C841 1.378 . S
C844 N845 1.315 . S
C844 H847 0.930 . S
N845 Co825 2.194 . S
N845 C840 1.328 . S
N845 C844 1.315 . S
H846 C840 0.929 . S
H847 C844 0.930 . S
H848 C836 0.929 . S
H849 C838 0.929 . S
O850 Co825 2.351 . S
O850 C853 1.244 . S
O851 Co825 2.155 . S
O851 C853 1.240 . S
O852 Co825 2.096 . S
O852 C833 1.247 . S
C853 O850 1.244 . S
C853 O851 1.240 . S
H854 C828 0.931 . S
H855 C837 0.931 . S
H856 C841 0.929 . S
H857 C843 0.930 . S
Co858 N862 2.148 . S
Co858 N868 2.128 . S
Co858 N878 2.194 . S
Co858 O883 2.351 . S
Co858 O884 2.155 . S
Co858 O885 2.096 . S
C859 N862 1.301 . S
C859 N863 1.328 . S
C859 H864 0.930 . S
C860 C861 1.333 . S
C860 N862 1.317 . S
C860 H865 0.930 . S
C861 C860 1.333 . S
C861 N863 1.350 . S
C861 H887 0.931 . S
N862 Co858 2.148 . S
N862 C859 1.301 . S
N862 C860 1.317 . S
N863 C859 1.328 . S
N863 C861 1.350 . S
H864 C859 0.930 . S
H865 C860 0.930 . S
C866 O867 1.224 . S
C866 O885 1.247 1_655 S
O867 C866 1.224 . S
N868 Co858 2.128 . S
N868 C869 1.355 . S
N868 C871 1.309 1_455 S
C869 N868 1.355 . S
C869 C870 1.363 . S
C869 H881 0.929 . S
C870 C869 1.363 . S
C870 N872 1.375 1_455 S
C870 H888 0.931 . S
C871 N868 1.309 1_655 S
C871 N872 1.348 . S
C871 H882 0.930 . S
N872 C870 1.375 1_655 S
N872 C871 1.348 . S
C873 C876 1.365 . S
C873 N878 1.328 . S
C873 H879 0.929 . S
C874 C875 1.362 . S
C874 C877 1.378 . S
C874 H889 0.931 . S
C875 C874 1.362 . S
C875 C876 1.366 . S
C876 C873 1.365 . S
C876 C875 1.366 . S
C876 H890 0.930 . S
C877 C874 1.378 . S
C877 N878 1.315 . S
C877 H880 0.934 . S
N878 Co858 2.194 . S
N878 C873 1.328 . S
N878 C877 1.315 . S
H879 C873 0.929 . S
H880 C877 0.934 . S
H881 C869 0.929 . S
H882 C871 0.930 . S
O883 Co858 2.351 . S
O883 C886 1.244 . S
O884 Co858 2.155 . S
O884 C886 1.240 . S
O885 Co858 2.096 . S
O885 C866 1.247 1_455 S
C886 O883 1.244 . S
C886 O884 1.240 . S
H887 C861 0.931 . S
H888 C870 0.931 . S
H889 C874 0.931 . S
H890 C876 0.930 . S
Co891 N895 2.148 . S
Co891 N901 2.128 . S
Co891 N911 2.194 . S
Co891 O916 2.351 . S
Co891 O917 2.155 . S
Co891 O918 2.096 . S
C892 N895 1.301 . S
C892 N896 1.328 . S
C892 H897 0.930 . S
C893 C894 1.333 . S
C893 N895 1.317 . S
C893 H898 0.930 . S
C894 C893 1.333 . S
C894 N896 1.350 . S
C894 H920 0.931 . S
N895 Co891 2.148 . S
N895 C892 1.301 . S
N895 C893 1.317 . S
N896 C892 1.328 . S
N896 C894 1.350 . S
H897 C892 0.930 . S
H898 C893 0.930 . S
C899 O900 1.224 . S
C899 O918 1.247 . S
O900 C899 1.224 . S
N901 Co891 2.128 . S
N901 C902 1.355 . S
N901 C904 1.311 . S
C902 N901 1.355 . S
C902 C903 1.363 . S
C902 H914 0.929 . S
C903 C902 1.363 . S
C903 N905 1.375 . S
C903 H921 0.931 . S
C904 N901 1.311 . S
C904 N905 1.347 . S
C904 H915 0.929 . S
N905 C903 1.375 . S
N905 C904 1.347 . S
C906 C909 1.365 . S
C906 N911 1.328 . S
C906 H912 0.929 . S
C907 C908 1.362 . S
C907 C910 1.378 . S
C907 H922 0.929 . S
C908 C907 1.362 . S
C908 C909 1.366 . S
C909 C906 1.365 . S
C909 C908 1.366 . S
C909 H923 0.930 . S
C910 C907 1.378 . S
C910 N911 1.315 . S
C910 H913 0.930 . S
N911 Co891 2.194 . S
N911 C906 1.328 . S
N911 C910 1.315 . S
H912 C906 0.929 . S
H913 C910 0.930 . S
H914 C902 0.929 . S
H915 C904 0.929 . S
O916 Co891 2.351 . S
O916 C919 1.244 . S
O917 Co891 2.155 . S
O917 C919 1.240 . S
O918 Co891 2.096 . S
O918 C899 1.247 . S
C919 O916 1.244 . S
C919 O917 1.240 . S
H920 C894 0.931 . S
H921 C903 0.931 . S
H922 C907 0.929 . S
H923 C909 0.930 . S
Co924 N928 2.148 . S
Co924 N934 2.128 . S
Co924 N944 2.194 . S
Co924 O949 2.351 . S
Co924 O950 2.155 . S
Co924 O951 2.096 . S
C925 N928 1.301 . S
C925 N929 1.328 . S
C925 H930 0.930 . S
C926 C927 1.333 . S
C926 N928 1.317 . S
C926 H931 0.930 . S
C927 C926 1.333 . S
C927 N929 1.350 . S
C927 H953 0.931 . S
N928 Co924 2.148 . S
N928 C925 1.301 . S
N928 C926 1.317 . S
N929 C925 1.328 . S
N929 C927 1.350 . S
H930 C925 0.930 . S
H931 C926 0.930 . S
C932 O933 1.224 . S
C932 O951 1.247 . S
O933 C932 1.224 . S
N934 Co924 2.128 . S
N934 C935 1.355 . S
N934 C937 1.311 . S
C935 N934 1.355 . S
C935 C936 1.363 . S
C935 H947 0.929 . S
C936 C935 1.363 . S
C936 N938 1.375 . S
C936 H954 0.931 . S
C937 N934 1.311 . S
C937 N938 1.347 . S
C937 H948 0.929 . S
N938 C936 1.375 . S
N938 C937 1.347 . S
C939 C942 1.365 . S
C939 N944 1.328 . S
C939 H945 0.929 . S
C940 C941 1.362 . S
C940 C943 1.378 . S
C940 H955 0.929 . S
C941 C940 1.362 . S
C941 C942 1.366 . S
C942 C939 1.365 . S
C942 C941 1.366 . S
C942 H956 0.930 . S
C943 C940 1.378 . S
C943 N944 1.315 . S
C943 H946 0.930 . S
N944 Co924 2.194 . S
N944 C939 1.328 . S
N944 C943 1.315 . S
H945 C939 0.929 . S
H946 C943 0.930 . S
H947 C935 0.929 . S
H948 C937 0.929 . S
O949 Co924 2.351 . S
O949 C952 1.244 . S
O950 Co924 2.155 . S
O950 C952 1.240 . S
O951 Co924 2.096 . S
O951 C932 1.247 . S
C952 O949 1.244 . S
C952 O950 1.240 . S
H953 C927 0.931 . S
H954 C936 0.931 . S
H955 C940 0.929 . S
H956 C942 0.930 . S
Co957 N961 2.148 . S
Co957 N967 2.128 . S
Co957 N977 2.194 . S
Co957 O982 2.351 . S
Co957 O983 2.155 . S
Co957 O984 2.096 . S
C958 N961 1.301 . S
C958 N962 1.328 . S
C958 H963 0.930 . S
C959 C960 1.333 . S
C959 N961 1.317 . S
C959 H964 0.930 . S
C960 C959 1.333 . S
C960 N962 1.350 . S
C960 H986 0.931 . S
N961 Co957 2.148 . S
N961 C958 1.301 . S
N961 C959 1.317 . S
N962 C958 1.328 . S
N962 C960 1.350 . S
H963 C958 0.930 . S
H964 C959 0.930 . S
C965 O966 1.224 . S
C965 O984 1.247 . S
O966 C965 1.224 . S
N967 Co957 2.128 . S
N967 C968 1.355 . S
N967 C970 1.311 . S
C968 N967 1.355 . S
C968 C969 1.363 . S
C968 H980 0.929 . S
C969 C968 1.363 . S
C969 N971 1.375 . S
C969 H987 0.931 . S
C970 N967 1.311 . S
C970 N971 1.347 . S
C970 H981 0.929 . S
N971 C969 1.375 . S
N971 C970 1.347 . S
C972 C975 1.365 . S
C972 N977 1.328 . S
C972 H978 0.929 . S
C973 C974 1.362 . S
C973 C976 1.378 . S
C973 H988 0.929 . S
C974 C973 1.362 . S
C974 C975 1.366 . S
C975 C972 1.365 . S
C975 C974 1.366 . S
C975 H989 0.930 . S
C976 C973 1.378 . S
C976 N977 1.315 . S
C976 H979 0.930 . S
N977 Co957 2.194 . S
N977 C972 1.328 . S
N977 C976 1.315 . S
H978 C972 0.929 . S
H979 C976 0.930 . S
H980 C968 0.929 . S
H981 C970 0.929 . S
O982 Co957 2.351 . S
O982 C985 1.244 . S
O983 Co957 2.155 . S
O983 C985 1.240 . S
O984 Co957 2.096 . S
O984 C965 1.247 . S
C985 O982 1.244 . S
C985 O983 1.240 . S
H986 C960 0.931 . S
H987 C969 0.931 . S
H988 C973 0.929 . S
H989 C975 0.930 . S
Co990 N994 2.148 . S
Co990 N1000 2.128 . S
Co990 N1010 2.194 . S
Co990 O1015 2.351 . S
Co990 O1016 2.155 . S
Co990 O1017 2.096 . S
C991 N994 1.301 . S
C991 N995 1.328 . S
C991 H996 0.930 . S
C992 C993 1.333 . S
C992 N994 1.317 . S
C992 H997 0.930 . S
C993 C992 1.333 . S
C993 N995 1.350 . S
C993 H1019 0.931 . S
N994 Co990 2.148 . S
N994 C991 1.301 . S
N994 C992 1.317 . S
N995 C991 1.328 . S
N995 C993 1.350 . S
H996 C991 0.930 . S
H997 C992 0.930 . S
C998 O999 1.224 . S
C998 O1017 1.247 1_655 S
O999 C998 1.224 . S
N1000 Co990 2.128 . S
N1000 C1001 1.355 . S
N1000 C1003 1.309 1_455 S
C1001 N1000 1.355 . S
C1001 C1002 1.363 . S
C1001 H1013 0.929 . S
C1002 C1001 1.363 . S
C1002 N1004 1.375 1_455 S
C1002 H1020 0.931 . S
C1003 N1000 1.309 1_655 S
C1003 N1004 1.348 . S
C1003 H1014 0.931 . S
N1004 C1002 1.375 1_655 S
N1004 C1003 1.348 . S
C1005 C1008 1.365 . S
C1005 N1010 1.328 . S
C1005 H1011 0.929 . S
C1006 C1007 1.362 . S
C1006 C1009 1.378 . S
C1006 H1021 0.931 . S
C1007 C1006 1.362 . S
C1007 C1008 1.366 . S
C1008 C1005 1.365 . S
C1008 C1007 1.366 . S
C1008 H1022 0.930 . S
C1009 C1006 1.378 . S
C1009 N1010 1.315 . S
C1009 H1012 0.934 . S
N1010 Co990 2.194 . S
N1010 C1005 1.328 . S
N1010 C1009 1.315 . S
H1011 C1005 0.929 . S
H1012 C1009 0.934 . S
H1013 C1001 0.929 . S
H1014 C1003 0.931 . S
O1015 Co990 2.351 . S
O1015 C1018 1.244 . S
O1016 Co990 2.155 . S
O1016 C1018 1.240 . S
O1017 Co990 2.096 . S
O1017 C998 1.247 1_455 S
C1018 O1015 1.244 . S
C1018 O1016 1.240 . S
H1019 C993 0.931 . S
H1020 C1002 0.931 . S
H1021 C1006 0.931 . S
H1022 C1008 0.930 . S
Co1023 N1027 2.148 . S
Co1023 N1033 2.128 . S
Co1023 N1043 2.194 . S
Co1023 O1048 2.351 . S
Co1023 O1049 2.155 . S
Co1023 O1050 2.096 . S
C1024 N1027 1.301 . S
C1024 N1028 1.328 . S
C1024 H1029 0.930 . S
C1025 C1026 1.333 . S
C1025 N1027 1.317 . S
C1025 H1030 0.930 . S
C1026 C1025 1.333 . S
C1026 N1028 1.350 . S
C1026 H1052 0.931 . S
N1027 Co1023 2.148 . S
N1027 C1024 1.301 . S
N1027 C1025 1.317 . S
N1028 C1024 1.328 . S
N1028 C1026 1.350 . S
H1029 C1024 0.930 . S
H1030 C1025 0.930 . S
C1031 O1032 1.224 . S
C1031 O1050 1.247 . S
O1032 C1031 1.224 . S
N1033 Co1023 2.128 . S
N1033 C1034 1.355 . S
N1033 C1036 1.311 . S
C1034 N1033 1.355 . S
C1034 C1035 1.363 . S
C1034 H1046 0.929 . S
C1035 C1034 1.363 . S
C1035 N1037 1.375 . S
C1035 H1053 0.931 . S
C1036 N1033 1.311 . S
C1036 N1037 1.347 . S
C1036 H1047 0.929 . S
N1037 C1035 1.375 . S
N1037 C1036 1.347 . S
C1038 C1041 1.365 . S
C1038 N1043 1.328 . S
C1038 H1044 0.929 . S
C1039 C1040 1.362 . S
C1039 C1042 1.378 . S
C1039 H1054 0.929 . S
C1040 C1039 1.362 . S
C1040 C1041 1.366 . S
C1041 C1038 1.365 . S
C1041 C1040 1.366 . S
C1041 H1055 0.930 . S
C1042 C1039 1.378 . S
C1042 N1043 1.315 . S
C1042 H1045 0.930 . S
N1043 Co1023 2.194 . S
N1043 C1038 1.328 . S
N1043 C1042 1.315 . S
H1044 C1038 0.929 . S
H1045 C1042 0.930 . S
H1046 C1034 0.929 . S
H1047 C1036 0.929 . S
O1048 Co1023 2.351 . S
O1048 C1051 1.244 . S
O1049 Co1023 2.155 . S
O1049 C1051 1.240 . S
O1050 Co1023 2.096 . S
O1050 C1031 1.247 . S
C1051 O1048 1.244 . S
C1051 O1049 1.240 . S
H1052 C1026 0.931 . S
H1053 C1035 0.931 . S
H1054 C1039 0.929 . S
H1055 C1041 0.930 . S
C1056 C1057 1.387 . S
C1056 H1060 0.950 . S
C1056 C1065 1.390 . S
C1057 C1056 1.387 . S
C1057 C1059 1.387 . S
H1058 C1065 0.950 . S
C1059 C1057 1.387 . S
C1059 C1061 1.390 . S
C1059 H1063 0.950 . S
H1060 C1056 0.950 . S
C1061 C1059 1.390 . S
C1061 C1062 1.387 . S
C1061 H1064 0.950 . S
C1062 C1061 1.387 . S
C1062 C1065 1.387 . S
H1063 C1059 0.950 . S
H1064 C1061 0.950 . S
C1065 C1056 1.390 . S
C1065 H1058 0.950 . S
C1065 C1062 1.387 . S
C1066 C1067 1.387 . S
C1066 H1070 0.950 . S
C1066 C1075 1.390 . S
C1067 C1066 1.387 . S
C1067 C1069 1.387 . S
H1068 C1075 0.950 . S
C1069 C1067 1.387 . S
C1069 C1071 1.390 . S
C1069 H1073 0.950 . S
H1070 C1066 0.950 . S
C1071 C1069 1.390 . S
C1071 C1072 1.387 . S
C1071 H1074 0.950 . S
C1072 C1071 1.387 . S
C1072 C1075 1.387 . S
H1073 C1069 0.950 . S
H1074 C1071 0.950 . S
C1075 C1066 1.390 . S
C1075 H1068 0.950 . S
C1075 C1072 1.387 . S
C1076 C1077 1.387 . S
C1076 H1080 0.950 . S
C1076 C1085 1.390 . S
C1077 C1076 1.387 . S
C1077 C1079 1.387 . S
H1078 C1085 0.950 . S
C1079 C1077 1.387 . S
C1079 C1081 1.390 . S
C1079 H1083 0.950 . S
H1080 C1076 0.950 . S
C1081 C1079 1.390 . S
C1081 C1082 1.387 . S
C1081 H1084 0.950 . S
C1082 C1081 1.387 . S
C1082 C1085 1.387 . S
H1083 C1079 0.950 . S
H1084 C1081 0.950 . S
C1085 C1076 1.390 . S
C1085 H1078 0.950 . S
C1085 C1082 1.387 . S
C1086 C1087 1.387 . S
C1086 H1090 0.950 . S
C1086 C1095 1.390 . S
C1087 C1086 1.387 . S
C1087 C1089 1.387 . S
H1088 C1095 0.950 . S
C1089 C1087 1.387 . S
C1089 C1091 1.390 . S
C1089 H1093 0.950 . S
H1090 C1086 0.950 . S
C1091 C1089 1.390 . S
C1091 C1092 1.387 . S
C1091 H1094 0.950 . S
C1092 C1091 1.387 . S
C1092 C1095 1.387 . S
H1093 C1089 0.950 . S
H1094 C1091 0.950 . S
C1095 C1086 1.390 . S
C1095 H1088 0.950 . S
C1095 C1092 1.387 . S
C1096 C1097 1.387 . S
C1096 H1100 0.950 . S
C1096 C1105 1.390 . S
C1097 C1096 1.387 . S
C1097 C1099 1.387 . S
H1098 C1105 0.950 . S
C1099 C1097 1.387 . S
C1099 C1101 1.390 . S
C1099 H1103 0.950 . S
H1100 C1096 0.950 . S
C1101 C1099 1.390 . S
C1101 C1102 1.387 . S
C1101 H1104 0.950 . S
C1102 C1101 1.387 . S
C1102 C1105 1.387 . S
H1103 C1099 0.950 . S
H1104 C1101 0.950 . S
C1105 C1096 1.390 . S
C1105 H1098 0.950 . S
C1105 C1102 1.387 . S
C1106 C1107 1.387 . S
C1106 H1110 0.950 . S
C1106 C1115 1.390 . S
C1107 C1106 1.387 . S
C1107 C1109 1.387 . S
H1108 C1115 0.950 . S
C1109 C1107 1.387 . S
C1109 C1111 1.390 . S
C1109 H1113 0.950 . S
H1110 C1106 0.950 . S
C1111 C1109 1.390 . S
C1111 C1112 1.387 . S
C1111 H1114 0.950 . S
C1112 C1111 1.387 . S
C1112 C1115 1.387 . S
H1113 C1109 0.950 . S
H1114 C1111 0.950 . S
C1115 C1106 1.390 . S
C1115 H1108 0.950 . S
C1115 C1112 1.387 . S
C1116 C1117 1.387 . S
C1116 H1120 0.950 . S
C1116 C1125 1.390 . S
C1117 C1116 1.387 . S
C1117 C1119 1.387 . S
H1118 C1125 0.950 . S
C1119 C1117 1.387 . S
C1119 C1121 1.390 . S
C1119 H1123 0.950 . S
H1120 C1116 0.950 . S
C1121 C1119 1.390 . S
C1121 C1122 1.387 . S
C1121 H1124 0.950 . S
C1122 C1121 1.387 . S
C1122 C1125 1.387 . S
H1123 C1119 0.950 . S
H1124 C1121 0.950 . S
C1125 C1116 1.390 . S
C1125 H1118 0.950 . S
C1125 C1122 1.387 . S
C1126 C1127 1.387 . S
C1126 H1130 0.950 . S
C1126 C1135 1.390 . S
C1127 C1126 1.387 . S
C1127 C1129 1.387 . S
H1128 C1135 0.950 . S
C1129 C1127 1.387 . S
C1129 C1131 1.390 . S
C1129 H1133 0.950 . S
H1130 C1126 0.950 . S
C1131 C1129 1.390 . S
C1131 C1132 1.387 . S
C1131 H1134 0.950 . S
C1132 C1131 1.387 . S
C1132 C1135 1.387 . S
H1133 C1129 0.950 . S
H1134 C1131 0.950 . S
C1135 C1126 1.390 . S
C1135 H1128 0.950 . S
C1135 C1132 1.387 . S
C1136 C1137 1.387 . S
C1136 H1140 0.950 . S
C1136 C1145 1.390 . S
C1137 C1136 1.387 . S
C1137 C1139 1.387 . S
H1138 C1145 0.950 . S
C1139 C1137 1.387 . S
C1139 C1141 1.390 . S
C1139 H1143 0.950 . S
H1140 C1136 0.950 . S
C1141 C1139 1.390 . S
C1141 C1142 1.387 . S
C1141 H1144 0.950 . S
C1142 C1141 1.387 . S
C1142 C1145 1.387 . S
H1143 C1139 0.950 . S
H1144 C1141 0.950 . S
C1145 C1136 1.390 . S
C1145 H1138 0.950 . S
C1145 C1142 1.387 . S
C1146 C1147 1.387 . S
C1146 H1150 0.950 . S
C1146 C1155 1.390 . S
C1147 C1146 1.387 . S
C1147 C1149 1.387 . S
H1148 C1155 0.950 . S
C1149 C1147 1.387 . S
C1149 C1151 1.390 . S
C1149 H1153 0.950 . S
H1150 C1146 0.950 . S
C1151 C1149 1.390 . S
C1151 C1152 1.387 . S
C1151 H1154 0.950 . S
C1152 C1151 1.387 . S
C1152 C1155 1.387 . S
H1153 C1149 0.950 . S
H1154 C1151 0.950 . S
C1155 C1146 1.390 . S
C1155 H1148 0.950 . S
C1155 C1152 1.387 . S
C1156 C1157 1.387 . S
C1156 H1160 0.950 . S
C1156 C1165 1.390 . S
C1157 C1156 1.387 . S
C1157 C1159 1.387 . S
H1158 C1165 0.950 . S
C1159 C1157 1.387 . S
C1159 C1161 1.390 . S
C1159 H1163 0.950 . S
H1160 C1156 0.950 . S
C1161 C1159 1.390 . S
C1161 C1162 1.387 . S
C1161 H1164 0.950 . S
C1162 C1161 1.387 . S
C1162 C1165 1.387 . S
H1163 C1159 0.950 . S
H1164 C1161 0.950 . S
C1165 C1156 1.390 . S
C1165 H1158 0.950 . S
C1165 C1162 1.387 . S
C1166 C1167 1.387 . S
C1166 H1170 0.950 . S
C1166 C1175 1.390 . S
C1167 C1166 1.387 . S
C1167 C1169 1.387 . S
H1168 C1175 0.950 . S
C1169 C1167 1.387 . S
C1169 C1171 1.390 . S
C1169 H1173 0.950 . S
H1170 C1166 0.950 . S
C1171 C1169 1.390 . S
C1171 C1172 1.387 . S
C1171 H1174 0.950 . S
C1172 C1171 1.387 . S
C1172 C1175 1.387 . S
H1173 C1169 0.950 . S
H1174 C1171 0.950 . S
C1175 C1166 1.390 . S
C1175 H1168 0.950 . S
C1175 C1172 1.387 . S
C1176 C1177 1.387 . S
C1176 H1180 0.950 . S
C1176 C1185 1.390 . S
C1177 C1176 1.387 . S
C1177 C1179 1.387 . S
H1178 C1185 0.950 . S
C1179 C1177 1.387 . S
C1179 C1181 1.390 . S
C1179 H1183 0.950 . S
H1180 C1176 0.950 . S
C1181 C1179 1.390 . S
C1181 C1182 1.387 . S
C1181 H1184 0.950 . S
C1182 C1181 1.387 . S
C1182 C1185 1.387 . S
H1183 C1179 0.950 . S
H1184 C1181 0.950 . S
C1185 C1176 1.390 . S
C1185 H1178 0.950 . S
C1185 C1182 1.387 . S
C1186 C1187 1.387 . S
C1186 H1190 0.950 . S
C1186 C1195 1.390 . S
C1187 C1186 1.387 . S
C1187 C1189 1.387 . S
H1188 C1195 0.950 . S
C1189 C1187 1.387 . S
C1189 C1191 1.390 . S
C1189 H1193 0.950 . S
H1190 C1186 0.950 . S
C1191 C1189 1.390 . S
C1191 C1192 1.387 . S
C1191 H1194 0.950 . S
C1192 C1191 1.387 . S
C1192 C1195 1.387 . S
H1193 C1189 0.950 . S
H1194 C1191 0.950 . S
C1195 C1186 1.390 . S
C1195 H1188 0.950 . S
C1195 C1192 1.387 . S
C1196 C1197 1.387 . S
C1196 H1200 0.950 . S
C1196 C1205 1.390 . S
C1197 C1196 1.387 . S
C1197 C1199 1.387 . S
H1198 C1205 0.950 . S
C1199 C1197 1.387 . S
C1199 C1201 1.390 . S
C1199 H1203 0.950 . S
H1200 C1196 0.950 . S
C1201 C1199 1.390 . S
C1201 C1202 1.387 . S
C1201 H1204 0.950 . S
C1202 C1201 1.387 . S
C1202 C1205 1.387 . S
H1203 C1199 0.950 . S
H1204 C1201 0.950 . S
C1205 C1196 1.390 . S
C1205 H1198 0.950 . S
C1205 C1202 1.387 . S
C1206 C1207 1.387 . S
C1206 H1210 0.950 . S
C1206 C1215 1.390 . S
C1207 C1206 1.387 . S
C1207 C1209 1.387 . S
H1208 C1215 0.950 . S
C1209 C1207 1.387 . S
C1209 C1211 1.390 . S
C1209 H1213 0.950 . S
H1210 C1206 0.950 . S
C1211 C1209 1.390 . S
C1211 C1212 1.387 . S
C1211 H1214 0.950 . S
C1212 C1211 1.387 . S
C1212 C1215 1.387 . S
H1213 C1209 0.950 . S
H1214 C1211 0.950 . S
C1215 C1206 1.390 . S
C1215 H1208 0.950 . S
C1215 C1212 1.387 . S
C1216 C1217 1.387 . S
C1216 H1220 0.950 . S
C1216 C1225 1.390 . S
C1217 C1216 1.387 . S
C1217 C1219 1.387 . S
H1218 C1225 0.950 . S
C1219 C1217 1.387 . S
C1219 C1221 1.390 . S
C1219 H1223 0.950 . S
H1220 C1216 0.950 . S
C1221 C1219 1.390 . S
C1221 C1222 1.387 . S
C1221 H1224 0.950 . S
C1222 C1221 1.387 . S
C1222 C1225 1.387 . S
H1223 C1219 0.950 . S
H1224 C1221 0.950 . S
C1225 C1216 1.390 . S
C1225 H1218 0.950 . S
C1225 C1222 1.387 . S
C1226 C1227 1.387 . S
C1226 H1230 0.950 . S
C1226 C1235 1.390 . S
C1227 C1226 1.387 . S
C1227 C1229 1.387 . S
H1228 C1235 0.950 . S
C1229 C1227 1.387 . S
C1229 C1231 1.390 . S
C1229 H1233 0.950 . S
H1230 C1226 0.950 . S
C1231 C1229 1.390 . S
C1231 C1232 1.387 . S
C1231 H1234 0.950 . S
C1232 C1231 1.387 . S
C1232 C1235 1.387 . S
H1233 C1229 0.950 . S
H1234 C1231 0.950 . S
C1235 C1226 1.390 . S
C1235 H1228 0.950 . S
C1235 C1232 1.387 . S
C1236 C1237 1.387 . S
C1236 H1240 0.950 . S
C1236 C1245 1.390 . S
C1237 C1236 1.387 . S
C1237 C1239 1.387 . S
H1238 C1245 0.950 . S
C1239 C1237 1.387 . S
C1239 C1241 1.390 . S
C1239 H1243 0.950 . S
H1240 C1236 0.950 . S
C1241 C1239 1.390 . S
C1241 C1242 1.387 . S
C1241 H1244 0.950 . S
C1242 C1241 1.387 . S
C1242 C1245 1.387 . S
H1243 C1239 0.950 . S
H1244 C1241 0.950 . S
C1245 C1236 1.390 . S
C1245 H1238 0.950 . S
C1245 C1242 1.387 . S
C1246 C1247 1.387 . S
C1246 H1250 0.950 . S
C1246 C1255 1.390 . S
C1247 C1246 1.387 . S
C1247 C1249 1.387 . S
H1248 C1255 0.950 . S
C1249 C1247 1.387 . S
C1249 C1251 1.390 . S
C1249 H1253 0.950 . S
H1250 C1246 0.950 . S
C1251 C1249 1.390 . S
C1251 C1252 1.387 . S
C1251 H1254 0.950 . S
C1252 C1251 1.387 . S
C1252 C1255 1.387 . S
H1253 C1249 0.950 . S
H1254 C1251 0.950 . S
C1255 C1246 1.390 . S
C1255 H1248 0.950 . S
C1255 C1252 1.387 . S
C1256 C1257 1.387 . S
C1256 H1260 0.950 . S
C1256 C1265 1.390 . S
C1257 C1256 1.387 . S
C1257 C1259 1.387 . S
H1258 C1265 0.950 . S
C1259 C1257 1.387 . S
C1259 C1261 1.390 . S
C1259 H1263 0.950 . S
H1260 C1256 0.950 . S
C1261 C1259 1.390 . S
C1261 C1262 1.387 . S
C1261 H1264 0.950 . S
C1262 C1261 1.387 . S
C1262 C1265 1.387 . S
H1263 C1259 0.950 . S
H1264 C1261 0.950 . S
C1265 C1256 1.390 . S
C1265 H1258 0.950 . S
C1265 C1262 1.387 . S
C1266 C1267 1.387 . S
C1266 H1270 0.950 . S
C1266 C1275 1.390 . S
C1267 C1266 1.387 . S
C1267 C1269 1.387 . S
H1268 C1275 0.950 . S
C1269 C1267 1.387 . S
C1269 C1271 1.390 . S
C1269 H1273 0.950 . S
H1270 C1266 0.950 . S
C1271 C1269 1.390 . S
C1271 C1272 1.387 . S
C1271 H1274 0.950 . S
C1272 C1271 1.387 . S
C1272 C1275 1.387 . S
H1273 C1269 0.950 . S
H1274 C1271 0.950 . S
C1275 C1266 1.390 . S
C1275 H1268 0.950 . S
C1275 C1272 1.387 . S
C1276 C1277 1.387 . S
C1276 H1280 0.950 . S
C1276 C1285 1.390 . S
C1277 C1276 1.387 . S
C1277 C1279 1.387 . S
H1278 C1285 0.950 . S
C1279 C1277 1.387 . S
C1279 C1281 1.390 . S
C1279 H1283 0.950 . S
H1280 C1276 0.950 . S
C1281 C1279 1.390 . S
C1281 C1282 1.387 . S
C1281 H1284 0.950 . S
C1282 C1281 1.387 . S
C1282 C1285 1.387 . S
H1283 C1279 0.950 . S
H1284 C1281 0.950 . S
C1285 C1276 1.390 . S
C1285 H1278 0.950 . S
C1285 C1282 1.387 . S
C1286 C1287 1.387 . S
C1286 H1290 0.950 . S
C1286 C1295 1.390 . S
C1287 C1286 1.387 . S
C1287 C1289 1.387 . S
H1288 C1295 0.950 . S
C1289 C1287 1.387 . S
C1289 C1291 1.390 . S
C1289 H1293 0.950 . S
H1290 C1286 0.950 . S
C1291 C1289 1.390 . S
C1291 C1292 1.387 . S
C1291 H1294 0.950 . S
C1292 C1291 1.387 . S
C1292 C1295 1.387 . S
H1293 C1289 0.950 . S
H1294 C1291 0.950 . S
C1295 C1286 1.390 . S
C1295 H1288 0.950 . S
C1295 C1292 1.387 . S
C1296 C1297 1.387 . S
C1296 H1300 0.950 . S
C1296 C1305 1.390 . S
C1297 C1296 1.387 . S
C1297 C1299 1.387 . S
H1298 C1305 0.950 . S
C1299 C1297 1.387 . S
C1299 C1301 1.390 . S
C1299 H1303 0.950 . S
H1300 C1296 0.950 . S
C1301 C1299 1.390 . S
C1301 C1302 1.387 . S
C1301 H1304 0.950 . S
C1302 C1301 1.387 . S
C1302 C1305 1.387 . S
H1303 C1299 0.950 . S
H1304 C1301 0.950 . S
C1305 C1296 1.390 . S
C1305 H1298 0.950 . S
C1305 C1302 1.387 . S
C1306 C1307 1.387 . S
C1306 H1310 0.950 . S
C1306 C1315 1.390 . S
C1307 C1306 1.387 . S
C1307 C1309 1.387 . S
H1308 C1315 0.950 . S
C1309 C1307 1.387 . S
C1309 C1311 1.390 . S
C1309 H1313 0.950 . S
H1310 C1306 0.950 . S
C1311 C1309 1.390 . S
C1311 C1312 1.387 . S
C1311 H1314 0.950 . S
C1312 C1311 1.387 . S
C1312 C1315 1.387 . S
H1313 C1309 0.950 . S
H1314 C1311 0.950 . S
C1315 C1306 1.390 . S
C1315 H1308 0.950 . S
C1315 C1312 1.387 . S
C1316 C1317 1.387 . S
C1316 H1320 0.950 . S
C1316 C1325 1.390 . S
C1317 C1316 1.387 . S
C1317 C1319 1.387 . S
H1318 C1325 0.950 . S
C1319 C1317 1.387 . S
C1319 C1321 1.390 . S
C1319 H1323 0.950 . S
H1320 C1316 0.950 . S
C1321 C1319 1.390 . S
C1321 C1322 1.387 . S
C1321 H1324 0.950 . S
C1322 C1321 1.387 . S
C1322 C1325 1.387 . S
H1323 C1319 0.950 . S
H1324 C1321 0.950 . S
C1325 C1316 1.390 . S
C1325 H1318 0.950 . S
C1325 C1322 1.387 . S
C1326 C1327 1.387 . S
C1326 H1330 0.950 . S
C1326 C1335 1.390 . S
C1327 C1326 1.387 . S
C1327 C1329 1.387 . S
H1328 C1335 0.950 . S
C1329 C1327 1.387 . S
C1329 C1331 1.390 . S
C1329 H1333 0.950 . S
H1330 C1326 0.950 . S
C1331 C1329 1.390 . S
C1331 C1332 1.387 . S
C1331 H1334 0.950 . S
C1332 C1331 1.387 . S
C1332 C1335 1.387 . S
H1333 C1329 0.950 . S
H1334 C1331 0.950 . S
C1335 C1326 1.390 . S
C1335 H1328 0.950 . S
C1335 C1332 1.387 . S
C1336 C1337 1.387 . S
C1336 H1340 0.950 . S
C1336 C1345 1.390 . S
C1337 C1336 1.387 . S
C1337 C1339 1.387 . S
H1338 C1345 0.950 . S
C1339 C1337 1.387 . S
C1339 C1341 1.390 . S
C1339 H1343 0.950 . S
H1340 C1336 0.950 . S
C1341 C1339 1.390 . S
C1341 C1342 1.387 . S
C1341 H1344 0.950 . S
C1342 C1341 1.387 . S
C1342 C1345 1.387 . S
H1343 C1339 0.950 . S
H1344 C1341 0.950 . S
C1345 C1336 1.390 . S
C1345 H1338 0.950 . S
C1345 C1342 1.387 . S
C1346 C1347 1.387 . S
C1346 H1350 0.950 . S
C1346 C1355 1.390 . S
C1347 C1346 1.387 . S
C1347 C1349 1.387 . S
H1348 C1355 0.950 . S
C1349 C1347 1.387 . S
C1349 C1351 1.390 . S
C1349 H1353 0.950 . S
H1350 C1346 0.950 . S
C1351 C1349 1.390 . S
C1351 C1352 1.387 . S
C1351 H1354 0.950 . S
C1352 C1351 1.387 . S
C1352 C1355 1.387 . S
H1353 C1349 0.950 . S
H1354 C1351 0.950 . S
C1355 C1346 1.390 . S
C1355 H1348 0.950 . S
C1355 C1352 1.387 . S
C1356 C1357 1.387 . S
C1356 H1360 0.950 . S
C1356 C1365 1.390 . S
C1357 C1356 1.387 . S
C1357 C1359 1.387 . S
H1358 C1365 0.950 . S
C1359 C1357 1.387 . S
C1359 C1361 1.390 . S
C1359 H1363 0.950 . S
H1360 C1356 0.950 . S
C1361 C1359 1.390 . S
C1361 C1362 1.387 . S
C1361 H1364 0.950 . S
C1362 C1361 1.387 . S
C1362 C1365 1.387 . S
H1363 C1359 0.950 . S
H1364 C1361 0.950 . S
C1365 C1356 1.390 . S
C1365 H1358 0.950 . S
C1365 C1362 1.387 . S
C1366 C1367 1.387 . S
C1366 H1370 0.950 . S
C1366 C1375 1.390 . S
C1367 C1366 1.387 . S
C1367 C1369 1.387 . S
H1368 C1375 0.950 . S
C1369 C1367 1.387 . S
C1369 C1371 1.390 . S
C1369 H1373 0.950 . S
H1370 C1366 0.950 . S
C1371 C1369 1.390 . S
C1371 C1372 1.387 . S
C1371 H1374 0.950 . S
C1372 C1371 1.387 . S
C1372 C1375 1.387 . S
H1373 C1369 0.950 . S
H1374 C1371 0.950 . S
C1375 C1366 1.390 . S
C1375 H1368 0.950 . S
C1375 C1372 1.387 . S
C1376 C1377 1.387 . S
C1376 H1380 0.950 . S
C1376 C1385 1.390 . S
C1377 C1376 1.387 . S
C1377 C1379 1.387 . S
H1378 C1385 0.950 . S
C1379 C1377 1.387 . S
C1379 C1381 1.390 . S
C1379 H1383 0.950 . S
H1380 C1376 0.950 . S
C1381 C1379 1.390 . S
C1381 C1382 1.387 . S
C1381 H1384 0.950 . S
C1382 C1381 1.387 . S
C1382 C1385 1.387 . S
H1383 C1379 0.950 . S
H1384 C1381 0.950 . S
C1385 C1376 1.390 . S
C1385 H1378 0.950 . S
C1385 C1382 1.387 . S
C1386 C1387 1.387 . S
C1386 H1390 0.950 . S
C1386 C1395 1.390 . S
C1387 C1386 1.387 . S
C1387 C1389 1.387 . S
H1388 C1395 0.950 . S
C1389 C1387 1.387 . S
C1389 C1391 1.390 . S
C1389 H1393 0.950 . S
H1390 C1386 0.950 . S
C1391 C1389 1.390 . S
C1391 C1392 1.387 . S
C1391 H1394 0.950 . S
C1392 C1391 1.387 . S
C1392 C1395 1.387 . S
H1393 C1389 0.950 . S
H1394 C1391 0.950 . S
C1395 C1386 1.390 . S
C1395 H1388 0.950 . S
C1395 C1392 1.387 . S
C1396 C1397 1.387 . S
C1396 H1400 0.950 . S
C1396 C1405 1.390 . S
C1397 C1396 1.387 . S
C1397 C1399 1.387 . S
H1398 C1405 0.950 . S
C1399 C1397 1.387 . S
C1399 C1401 1.390 . S
C1399 H1403 0.950 . S
H1400 C1396 0.950 . S
C1401 C1399 1.390 . S
C1401 C1402 1.387 . S
C1401 H1404 0.950 . S
C1402 C1401 1.387 . S
C1402 C1405 1.387 . S
H1403 C1399 0.950 . S
H1404 C1401 0.950 . S
C1405 C1396 1.390 . S
C1405 H1398 0.950 . S
C1405 C1402 1.387 . S
C1406 C1407 1.387 . S
C1406 H1410 0.950 . S
C1406 C1415 1.390 . S
C1407 C1406 1.387 . S
C1407 C1409 1.387 . S
H1408 C1415 0.950 . S
C1409 C1407 1.387 . S
C1409 C1411 1.390 . S
C1409 H1413 0.950 . S
H1410 C1406 0.950 . S
C1411 C1409 1.390 . S
C1411 C1412 1.387 . S
C1411 H1414 0.950 . S
C1412 C1411 1.387 . S
C1412 C1415 1.387 . S
H1413 C1409 0.950 . S
H1414 C1411 0.950 . S
C1415 C1406 1.390 . S
C1415 H1408 0.950 . S
C1415 C1412 1.387 . S
C1416 C1417 1.387 . S
C1416 H1420 0.950 . S
C1416 C1425 1.390 . S
C1417 C1416 1.387 . S
C1417 C1419 1.387 . S
H1418 C1425 0.950 . S
C1419 C1417 1.387 . S
C1419 C1421 1.390 . S
C1419 H1423 0.950 . S
H1420 C1416 0.950 . S
C1421 C1419 1.390 . S
C1421 C1422 1.387 . S
C1421 H1424 0.950 . S
C1422 C1421 1.387 . S
C1422 C1425 1.387 . S
H1423 C1419 0.950 . S
H1424 C1421 0.950 . S
C1425 C1416 1.390 . S
C1425 H1418 0.950 . S
C1425 C1422 1.387 . S
C1426 C1427 1.387 . S
C1426 H1430 0.950 . S
C1426 C1435 1.390 . S
C1427 C1426 1.387 . S
C1427 C1429 1.387 . S
H1428 C1435 0.950 . S
C1429 C1427 1.387 . S
C1429 C1431 1.390 . S
C1429 H1433 0.950 . S
H1430 C1426 0.950 . S
C1431 C1429 1.390 . S
C1431 C1432 1.387 . S
C1431 H1434 0.950 . S
C1432 C1431 1.387 . S
C1432 C1435 1.387 . S
H1433 C1429 0.950 . S
H1434 C1431 0.950 . S
C1435 C1426 1.390 . S
C1435 H1428 0.950 . S
C1435 C1432 1.387 . S
C1436 C1437 1.387 . S
C1436 H1440 0.950 . S
C1436 C1445 1.390 . S
C1437 C1436 1.387 . S
C1437 C1439 1.387 . S
H1438 C1445 0.950 . S
C1439 C1437 1.387 . S
C1439 C1441 1.390 . S
C1439 H1443 0.950 . S
H1440 C1436 0.950 . S
C1441 C1439 1.390 . S
C1441 C1442 1.387 . S
C1441 H1444 0.950 . S
C1442 C1441 1.387 . S
C1442 C1445 1.387 . S
H1443 C1439 0.950 . S
H1444 C1441 0.950 . S
C1445 C1436 1.390 . S
C1445 H1438 0.950 . S
C1445 C1442 1.387 . S
C1446 C1447 1.387 . S
C1446 H1450 0.950 . S
C1446 C1455 1.390 . S
C1447 C1446 1.387 . S
C1447 C1449 1.387 . S
H1448 C1455 0.950 . S
C1449 C1447 1.387 . S
C1449 C1451 1.390 . S
C1449 H1453 0.950 . S
H1450 C1446 0.950 . S
C1451 C1449 1.390 . S
C1451 C1452 1.387 . S
C1451 H1454 0.950 . S
C1452 C1451 1.387 . S
C1452 C1455 1.387 . S
H1453 C1449 0.950 . S
H1454 C1451 0.950 . S
C1455 C1446 1.390 . S
C1455 H1448 0.950 . S
C1455 C1452 1.387 . S
C1456 C1457 1.387 . S
C1456 H1460 0.950 . S
C1456 C1465 1.390 . S
C1457 C1456 1.387 . S
C1457 C1459 1.387 . S
H1458 C1465 0.950 . S
C1459 C1457 1.387 . S
C1459 C1461 1.390 . S
C1459 H1463 0.950 . S
H1460 C1456 0.950 . S
C1461 C1459 1.390 . S
C1461 C1462 1.387 . S
C1461 H1464 0.950 . S
C1462 C1461 1.387 . S
C1462 C1465 1.387 . S
H1463 C1459 0.950 . S
H1464 C1461 0.950 . S
C1465 C1456 1.390 . S
C1465 H1458 0.950 . S
C1465 C1462 1.387 . S
C1466 C1467 1.387 . S
C1466 H1470 0.950 . S
C1466 C1475 1.390 . S
C1467 C1466 1.387 . S
C1467 C1469 1.387 . S
H1468 C1475 0.950 . S
C1469 C1467 1.387 . S
C1469 C1471 1.390 . S
C1469 H1473 0.950 . S
H1470 C1466 0.950 . S
C1471 C1469 1.390 . S
C1471 C1472 1.387 . S
C1471 H1474 0.950 . S
C1472 C1471 1.387 . S
C1472 C1475 1.387 . S
H1473 C1469 0.950 . S
H1474 C1471 0.950 . S
C1475 C1466 1.390 . S
C1475 H1468 0.950 . S
C1475 C1472 1.387 . S
C1476 C1477 1.387 . S
C1476 H1480 0.950 . S
C1476 C1485 1.390 . S
C1477 C1476 1.387 . S
C1477 C1479 1.387 . S
H1478 C1485 0.950 . S
C1479 C1477 1.387 . S
C1479 C1481 1.390 . S
C1479 H1483 0.950 . S
H1480 C1476 0.950 . S
C1481 C1479 1.390 . S
C1481 C1482 1.387 . S
C1481 H1484 0.950 . S
C1482 C1481 1.387 . S
C1482 C1485 1.387 . S
H1483 C1479 0.950 . S
H1484 C1481 0.950 . S
C1485 C1476 1.390 . S
C1485 H1478 0.950 . S
C1485 C1482 1.387 . S
C1486 C1487 1.387 . S
C1486 H1490 0.950 . S
C1486 C1495 1.390 . S
C1487 C1486 1.387 . S
C1487 C1489 1.387 . S
H1488 C1495 0.950 . S
C1489 C1487 1.387 . S
C1489 C1491 1.390 . S
C1489 H1493 0.950 . S
H1490 C1486 0.950 . S
C1491 C1489 1.390 . S
C1491 C1492 1.387 . S
C1491 H1494 0.950 . S
C1492 C1491 1.387 . S
C1492 C1495 1.387 . S
H1493 C1489 0.950 . S
H1494 C1491 0.950 . S
C1495 C1486 1.390 . S
C1495 H1488 0.950 . S
C1495 C1492 1.387 . S
C1496 C1497 1.387 . S
C1496 H1500 0.950 . S
C1496 C1505 1.390 . S
C1497 C1496 1.387 . S
C1497 C1499 1.387 . S
H1498 C1505 0.950 . S
C1499 C1497 1.387 . S
C1499 C1501 1.390 . S
C1499 H1503 0.950 . S
H1500 C1496 0.950 . S
C1501 C1499 1.390 . S
C1501 C1502 1.387 . S
C1501 H1504 0.950 . S
C1502 C1501 1.387 . S
C1502 C1505 1.387 . S
H1503 C1499 0.950 . S
H1504 C1501 0.950 . S
C1505 C1496 1.390 . S
C1505 H1498 0.950 . S
C1505 C1502 1.387 . S
C1506 C1507 1.387 . S
C1506 H1510 0.950 . S
C1506 C1515 1.390 . S
C1507 C1506 1.387 . S
C1507 C1509 1.387 . S
H1508 C1515 0.950 . S
C1509 C1507 1.387 . S
C1509 C1511 1.390 . S
C1509 H1513 0.950 . S
H1510 C1506 0.950 . S
C1511 C1509 1.390 . S
C1511 C1512 1.387 . S
C1511 H1514 0.950 . S
C1512 C1511 1.387 . S
C1512 C1515 1.387 . S
H1513 C1509 0.950 . S
H1514 C1511 0.950 . S
C1515 C1506 1.390 . S
C1515 H1508 0.950 . S
C1515 C1512 1.387 . S
C1516 C1517 1.387 . S
C1516 H1520 0.950 . S
C1516 C1525 1.390 . S
C1517 C1516 1.387 . S
C1517 C1519 1.387 . S
H1518 C1525 0.950 . S
C1519 C1517 1.387 . S
C1519 C1521 1.390 . S
C1519 H1523 0.950 . S
H1520 C1516 0.950 . S
C1521 C1519 1.390 . S
C1521 C1522 1.387 . S
C1521 H1524 0.950 . S
C1522 C1521 1.387 . S
C1522 C1525 1.387 . S
H1523 C1519 0.950 . S
H1524 C1521 0.950 . S
C1525 C1516 1.390 . S
C1525 H1518 0.950 . S
C1525 C1522 1.387 . S
C1526 C1527 1.387 . S
C1526 H1530 0.950 . S
C1526 C1535 1.390 . S
C1527 C1526 1.387 . S
C1527 C1529 1.387 . S
H1528 C1535 0.950 . S
C1529 C1527 1.387 . S
C1529 C1531 1.390 . S
C1529 H1533 0.950 . S
H1530 C1526 0.950 . S
C1531 C1529 1.390 . S
C1531 C1532 1.387 . S
C1531 H1534 0.950 . S
C1532 C1531 1.387 . S
C1532 C1535 1.387 . S
H1533 C1529 0.950 . S
H1534 C1531 0.950 . S
C1535 C1526 1.390 . S
C1535 H1528 0.950 . S
C1535 C1532 1.387 . S
C1536 C1537 1.387 . S
C1536 H1540 0.950 . S
C1536 C1545 1.390 1_545 S
C1537 C1536 1.387 . S
C1537 C1539 1.387 . S
H1538 C1545 0.950 . S
C1539 C1537 1.387 . S
C1539 C1541 1.390 1_545 S
C1539 H1543 0.950 1_455 S
H1540 C1536 0.950 . S
C1541 C1539 1.390 1_565 S
C1541 C1542 1.387 . S
C1541 H1544 0.950 1_455 S
C1542 C1541 1.387 . S
C1542 C1545 1.387 . S
H1543 C1539 0.950 1_655 S
H1544 C1541 0.950 1_655 S
C1545 C1536 1.390 1_565 S
C1545 H1538 0.950 . S
C1545 C1542 1.387 . S
C1546 C1547 1.387 . S
C1546 H1550 0.950 . S
C1546 C1555 1.390 . S
C1547 C1546 1.387 . S
C1547 C1549 1.387 . S
H1548 C1555 0.950 . S
C1549 C1547 1.387 . S
C1549 C1551 1.390 . S
C1549 H1553 0.950 . S
H1550 C1546 0.950 . S
C1551 C1549 1.390 . S
C1551 C1552 1.387 . S
C1551 H1554 0.950 . S
C1552 C1551 1.387 . S
C1552 C1555 1.387 . S
H1553 C1549 0.950 . S
H1554 C1551 0.950 . S
C1555 C1546 1.390 . S
C1555 H1548 0.950 . S
C1555 C1552 1.387 . S
C1556 C1557 1.387 . S
C1556 H1560 0.950 . S
C1556 C1565 1.390 1_545 S
C1557 C1556 1.387 . S
C1557 C1559 1.387 . S
H1558 C1565 0.950 . S
C1559 C1557 1.387 . S
C1559 C1561 1.390 1_545 S
C1559 H1563 0.950 . S
H1560 C1556 0.950 . S
C1561 C1559 1.390 1_565 S
C1561 C1562 1.387 . S
C1561 H1564 0.950 . S
C1562 C1561 1.387 . S
C1562 C1565 1.387 . S
H1563 C1559 0.950 . S
H1564 C1561 0.950 . S
C1565 C1556 1.390 1_565 S
C1565 H1558 0.950 . S
C1565 C1562 1.387 . S
C1566 C1567 1.387 . S
C1566 H1570 0.950 . S
C1566 C1575 1.390 1_556 S
C1567 C1566 1.387 . S
C1567 C1569 1.387 . S
H1568 C1575 0.950 . S
C1569 C1567 1.387 . S
C1569 C1571 1.390 1_556 S
C1569 H1573 0.950 . S
H1570 C1566 0.950 . S
C1571 C1569 1.390 1_554 S
C1571 C1572 1.387 . S
C1571 H1574 0.950 . S
C1572 C1571 1.387 . S
C1572 C1575 1.387 . S
H1573 C1569 0.950 . S
H1574 C1571 0.950 . S
C1575 C1566 1.390 1_554 S
C1575 H1568 0.950 . S
C1575 C1572 1.387 . S
C1576 C1577 1.387 . S
C1576 H1580 0.950 1_655 S
C1576 C1585 1.390 1_565 S
C1577 C1576 1.387 . S
C1577 C1579 1.387 . S
H1578 C1585 0.950 1_455 S
C1579 C1577 1.387 . S
C1579 C1581 1.390 1_565 S
C1579 H1583 0.950 . S
H1580 C1576 0.950 1_455 S
C1581 C1579 1.390 1_545 S
C1581 C1582 1.387 . S
C1581 H1584 0.950 . S
C1582 C1581 1.387 . S
C1582 C1585 1.387 . S
H1583 C1579 0.950 . S
H1584 C1581 0.950 . S
C1585 C1576 1.390 1_545 S
C1585 H1578 0.950 1_655 S
C1585 C1582 1.387 . S
C1586 C1587 1.387 . S
C1586 H1590 0.950 . S
C1586 C1595 1.390 . S
C1587 C1586 1.387 . S
C1587 C1589 1.387 . S
H1588 C1595 0.950 . S
C1589 C1587 1.387 . S
C1589 C1591 1.390 . S
C1589 H1593 0.950 . S
H1590 C1586 0.950 . S
C1591 C1589 1.390 . S
C1591 C1592 1.387 . S
C1591 H1594 0.950 . S
C1592 C1591 1.387 . S
C1592 C1595 1.387 . S
H1593 C1589 0.950 . S
H1594 C1591 0.950 . S
C1595 C1586 1.390 . S
C1595 H1588 0.950 . S
C1595 C1592 1.387 . S
C1596 C1597 1.387 . S
C1596 H1600 0.950 . S
C1596 C1605 1.390 1_545 S
C1597 C1596 1.387 . S
C1597 C1599 1.387 . S
H1598 C1605 0.950 . S
C1599 C1597 1.387 . S
C1599 C1601 1.390 1_545 S
C1599 H1603 0.950 . S
H1600 C1596 0.950 . S
C1601 C1599 1.390 1_565 S
C1601 C1602 1.387 . S
C1601 H1604 0.950 . S
C1602 C1601 1.387 . S
C1602 C1605 1.387 . S
H1603 C1599 0.950 . S
H1604 C1601 0.950 . S
C1605 C1596 1.390 1_565 S
C1605 H1598 0.950 . S
C1605 C1602 1.387 . S
C1606 C1607 1.387 . S
C1606 H1610 0.950 . S
C1606 C1615 1.390 1_554 S
C1607 C1606 1.387 . S
C1607 C1609 1.387 . S
H1608 C1615 0.950 . S
C1609 C1607 1.387 . S
C1609 C1611 1.390 1_554 S
C1609 H1613 0.950 . S
H1610 C1606 0.950 . S
C1611 C1609 1.390 1_556 S
C1611 C1612 1.387 . S
C1611 H1614 0.950 . S
C1612 C1611 1.387 . S
C1612 C1615 1.387 . S
H1613 C1609 0.950 . S
H1614 C1611 0.950 . S
C1615 C1606 1.390 1_556 S
C1615 H1608 0.950 . S
C1615 C1612 1.387 . S
C1616 C1617 1.387 . S
C1616 H1620 0.950 . S
C1616 C1625 1.390 . S
C1617 C1616 1.387 . S
C1617 C1619 1.387 . S
H1618 C1625 0.950 . S
C1619 C1617 1.387 . S
C1619 C1621 1.390 . S
C1619 H1623 0.950 . S
H1620 C1616 0.950 . S
C1621 C1619 1.390 . S
C1621 C1622 1.387 . S
C1621 H1624 0.950 . S
C1622 C1621 1.387 . S
C1622 C1625 1.387 . S
H1623 C1619 0.950 . S
H1624 C1621 0.950 . S
C1625 C1616 1.390 . S
C1625 H1618 0.950 . S
C1625 C1622 1.387 . S
C1626 C1627 1.387 . S
C1626 H1630 0.950 . S
C1626 C1635 1.390 1_554 S
C1627 C1626 1.387 . S
C1627 C1629 1.387 . S
H1628 C1635 0.950 . S
C1629 C1627 1.387 . S
C1629 C1631 1.390 1_554 S
C1629 H1633 0.950 . S
H1630 C1626 0.950 . S
C1631 C1629 1.390 1_556 S
C1631 C1632 1.387 . S
C1631 H1634 0.950 . S
C1632 C1631 1.387 . S
C1632 C1635 1.387 . S
H1633 C1629 0.950 . S
H1634 C1631 0.950 . S
C1635 C1626 1.390 1_556 S
C1635 H1628 0.950 . S
C1635 C1632 1.387 . S
C1636 C1637 1.387 . S
C1636 H1640 0.950 1_655 S
C1636 C1645 1.390 . S
C1637 C1636 1.387 . S
C1637 C1639 1.387 . S
H1638 C1645 0.950 1_455 S
C1639 C1637 1.387 . S
C1639 C1641 1.390 . S
C1639 H1643 0.950 . S
H1640 C1636 0.950 1_455 S
C1641 C1639 1.390 . S
C1641 C1642 1.387 . S
C1641 H1644 0.950 . S
C1642 C1641 1.387 . S
C1642 C1645 1.387 . S
H1643 C1639 0.950 . S
H1644 C1641 0.950 . S
C1645 C1636 1.390 . S
C1645 H1638 0.950 1_655 S
C1645 C1642 1.387 . S
C1646 C1647 1.387 . S
C1646 H1650 0.950 . S
C1646 C1655 1.390 . S
C1647 C1646 1.387 . S
C1647 C1649 1.387 . S
H1648 C1655 0.950 . S
C1649 C1647 1.387 . S
C1649 C1651 1.390 . S
C1649 H1653 0.950 . S
H1650 C1646 0.950 . S
C1651 C1649 1.390 . S
C1651 C1652 1.387 . S
C1651 H1654 0.950 . S
C1652 C1651 1.387 . S
C1652 C1655 1.387 . S
H1653 C1649 0.950 . S
H1654 C1651 0.950 . S
C1655 C1646 1.390 . S
C1655 H1648 0.950 . S
C1655 C1652 1.387 . S
C1656 C1657 1.387 . S
C1656 H1660 0.950 . S
C1656 C1665 1.390 . S
C1657 C1656 1.387 . S
C1657 C1659 1.387 . S
H1658 C1665 0.950 . S
C1659 C1657 1.387 . S
C1659 C1661 1.390 . S
C1659 H1663 0.950 . S
H1660 C1656 0.950 . S
C1661 C1659 1.390 . S
C1661 C1662 1.387 . S
C1661 H1664 0.950 . S
C1662 C1661 1.387 . S
C1662 C1665 1.387 . S
H1663 C1659 0.950 . S
H1664 C1661 0.950 . S
C1665 C1656 1.390 . S
C1665 H1658 0.950 . S
C1665 C1662 1.387 . S
C1666 C1667 1.387 . S
C1666 H1670 0.950 . S
C1666 C1675 1.390 1_556 S
C1667 C1666 1.387 . S
C1667 C1669 1.387 . S
H1668 C1675 0.950 . S
C1669 C1667 1.387 . S
C1669 C1671 1.390 1_556 S
C1669 H1673 0.950 . S
H1670 C1666 0.950 . S
C1671 C1669 1.390 1_554 S
C1671 C1672 1.387 . S
C1671 H1674 0.950 . S
C1672 C1671 1.387 . S
C1672 C1675 1.387 . S
H1673 C1669 0.950 . S
H1674 C1671 0.950 . S
C1675 C1666 1.390 1_554 S
C1675 H1668 0.950 . S
C1675 C1672 1.387 . S
C1676 C1677 1.387 . S
C1676 H1680 0.950 . S
C1676 C1685 1.390 . S
C1677 C1676 1.387 . S
C1677 C1679 1.387 . S
H1678 C1685 0.950 . S
C1679 C1677 1.387 . S
C1679 C1681 1.390 . S
C1679 H1683 0.950 1_455 S
H1680 C1676 0.950 . S
C1681 C1679 1.390 . S
C1681 C1682 1.387 . S
C1681 H1684 0.950 1_455 S
C1682 C1681 1.387 . S
C1682 C1685 1.387 . S
H1683 C1679 0.950 1_655 S
H1684 C1681 0.950 1_655 S
C1685 C1676 1.390 . S
C1685 H1678 0.950 . S
C1685 C1682 1.387 . S
C1686 C1687 1.387 . S
C1686 H1690 0.950 . S
C1686 C1695 1.390 . S
C1687 C1686 1.387 . S
C1687 C1689 1.387 . S
H1688 C1695 0.950 . S
C1689 C1687 1.387 . S
C1689 C1691 1.390 . S
C1689 H1693 0.950 . S
H1690 C1686 0.950 . S
C1691 C1689 1.390 . S
C1691 C1692 1.387 . S
C1691 H1694 0.950 . S
C1692 C1691 1.387 . S
C1692 C1695 1.387 . S
H1693 C1689 0.950 . S
H1694 C1691 0.950 . S
C1695 C1686 1.390 . S
C1695 H1688 0.950 . S
C1695 C1692 1.387 . S
C1696 C1697 1.387 . S
C1696 H1700 0.950 . S
C1696 C1705 1.390 1_655 S
C1697 C1696 1.387 . S
C1697 C1699 1.387 . S
H1698 C1705 0.950 . S
C1699 C1697 1.387 . S
C1699 C1701 1.390 1_655 S
C1699 H1703 0.950 . S
H1700 C1696 0.950 . S
C1701 C1699 1.390 1_455 S
C1701 C1702 1.387 . S
C1701 H1704 0.950 . S
C1702 C1701 1.387 . S
C1702 C1705 1.387 . S
H1703 C1699 0.950 . S
H1704 C1701 0.950 . S
C1705 C1696 1.390 1_455 S
C1705 H1698 0.950 . S
C1705 C1702 1.387 . S
C1706 C1707 1.387 . S
C1706 H1710 0.950 . S
C1706 C1715 1.390 1_655 S
C1707 C1706 1.387 . S
C1707 C1709 1.387 . S
H1708 C1715 0.950 . S
C1709 C1707 1.387 . S
C1709 C1711 1.390 1_655 S
C1709 H1713 0.950 . S
H1710 C1706 0.950 . S
C1711 C1709 1.390 1_455 S
C1711 C1712 1.387 . S
C1711 H1714 0.950 . S
C1712 C1711 1.387 . S
C1712 C1715 1.387 . S
H1713 C1709 0.950 . S
H1714 C1711 0.950 . S
C1715 C1706 1.390 1_455 S
C1715 H1708 0.950 . S
C1715 C1712 1.387 . S
C1716 C1717 1.387 . S
C1716 H1720 0.950 . S
C1716 C1725 1.390 . S
C1717 C1716 1.387 . S
C1717 C1719 1.387 . S
H1718 C1725 0.950 . S
C1719 C1717 1.387 . S
C1719 C1721 1.390 . S
C1719 H1723 0.950 . S
H1720 C1716 0.950 . S
C1721 C1719 1.390 . S
C1721 C1722 1.387 . S
C1721 H1724 0.950 . S
C1722 C1721 1.387 . S
C1722 C1725 1.387 . S
H1723 C1719 0.950 . S
H1724 C1721 0.950 . S
C1725 C1716 1.390 . S
C1725 H1718 0.950 . S
C1725 C1722 1.387 . S
C1726 C1727 1.387 . S
C1726 H1730 0.950 . S
C1726 C1735 1.390 . S
C1727 C1726 1.387 . S
C1727 C1729 1.387 . S
H1728 C1735 0.950 . S
C1729 C1727 1.387 . S
C1729 C1731 1.390 . S
C1729 H1733 0.950 . S
H1730 C1726 0.950 . S
C1731 C1729 1.390 . S
C1731 C1732 1.387 . S
C1731 H1734 0.950 . S
C1732 C1731 1.387 . S
C1732 C1735 1.387 . S
H1733 C1729 0.950 . S
H1734 C1731 0.950 . S
C1735 C1726 1.390 . S
C1735 H1728 0.950 . S
C1735 C1732 1.387 . S
C1736 C1737 1.387 . S
C1736 H1740 0.950 . S
C1736 C1745 1.390 1_455 S
C1737 C1736 1.387 . S
C1737 C1739 1.387 . S
H1738 C1745 0.950 . S
C1739 C1737 1.387 . S
C1739 C1741 1.390 1_455 S
C1739 H1743 0.950 . S
H1740 C1736 0.950 . S
C1741 C1739 1.390 1_655 S
C1741 C1742 1.387 . S
C1741 H1744 0.950 . S
C1742 C1741 1.387 . S
C1742 C1745 1.387 . S
H1743 C1739 0.950 . S
H1744 C1741 0.950 . S
C1745 C1736 1.390 1_655 S
C1745 H1738 0.950 . S
C1745 C1742 1.387 . S
C1746 C1747 1.387 . S
C1746 H1750 0.950 . S
C1746 C1755 1.390 . S
C1747 C1746 1.387 . S
C1747 C1749 1.387 . S
H1748 C1755 0.950 . S
C1749 C1747 1.387 . S
C1749 C1751 1.390 . S
C1749 H1753 0.950 . S
H1750 C1746 0.950 . S
C1751 C1749 1.390 . S
C1751 C1752 1.387 . S
C1751 H1754 0.950 . S
C1752 C1751 1.387 . S
C1752 C1755 1.387 . S
H1753 C1749 0.950 . S
H1754 C1751 0.950 . S
C1755 C1746 1.390 . S
C1755 H1748 0.950 . S
C1755 C1752 1.387 . S
C1756 C1757 1.387 . S
C1756 H1760 0.950 . S
C1756 C1765 1.390 . S
C1757 C1756 1.387 . S
C1757 C1759 1.387 . S
H1758 C1765 0.950 . S
C1759 C1757 1.387 . S
C1759 C1761 1.390 . S
C1759 H1763 0.950 . S
H1760 C1756 0.950 . S
C1761 C1759 1.390 . S
C1761 C1762 1.387 . S
C1761 H1764 0.950 . S
C1762 C1761 1.387 . S
C1762 C1765 1.387 . S
H1763 C1759 0.950 . S
H1764 C1761 0.950 . S
C1765 C1756 1.390 . S
C1765 H1758 0.950 . S
C1765 C1762 1.387 . S
C1766 C1767 1.387 . S
C1766 H1770 0.950 . S
C1766 C1775 1.390 1_455 S
C1767 C1766 1.387 . S
C1767 C1769 1.387 . S
H1768 C1775 0.950 . S
C1769 C1767 1.387 . S
C1769 C1771 1.390 1_455 S
C1769 H1773 0.950 . S
H1770 C1766 0.950 . S
C1771 C1769 1.390 1_655 S
C1771 C1772 1.387 . S
C1771 H1774 0.950 . S
C1772 C1771 1.387 . S
C1772 C1775 1.387 . S
H1773 C1769 0.950 . S
H1774 C1771 0.950 . S
C1775 C1766 1.390 1_655 S
C1775 H1768 0.950 . S
C1775 C1772 1.387 . S
C1776 C1777 1.387 . S
C1776 H1780 0.950 . S
C1776 C1785 1.390 1_455 S
C1777 C1776 1.387 . S
C1777 C1779 1.387 . S
H1778 C1785 0.950 . S
C1779 C1777 1.387 . S
C1779 C1781 1.390 1_455 S
C1779 H1783 0.950 . S
H1780 C1776 0.950 . S
C1781 C1779 1.390 1_655 S
C1781 C1782 1.387 . S
C1781 H1784 0.950 . S
C1782 C1781 1.387 . S
C1782 C1785 1.387 . S
H1783 C1779 0.950 . S
H1784 C1781 0.950 . S
C1785 C1776 1.390 1_655 S
C1785 H1778 0.950 . S
C1785 C1782 1.387 . S
C1786 C1787 1.387 . S
C1786 H1790 0.950 . S
C1786 C1795 1.390 1_455 S
C1787 C1786 1.387 . S
C1787 C1789 1.387 . S
H1788 C1795 0.950 . S
C1789 C1787 1.387 . S
C1789 C1791 1.390 1_455 S
C1789 H1793 0.950 . S
H1790 C1786 0.950 . S
C1791 C1789 1.390 1_655 S
C1791 C1792 1.387 . S
C1791 H1794 0.950 . S
C1792 C1791 1.387 . S
C1792 C1795 1.387 . S
H1793 C1789 0.950 . S
H1794 C1791 0.950 . S
C1795 C1786 1.390 1_655 S
C1795 H1788 0.950 . S
C1795 C1792 1.387 . S
C1796 C1797 1.387 . S
C1796 H1800 0.950 . S
C1796 C1805 1.390 . S
C1797 C1796 1.387 . S
C1797 C1799 1.387 . S
H1798 C1805 0.950 . S
C1799 C1797 1.387 . S
C1799 C1801 1.390 . S
C1799 H1803 0.950 . S
H1800 C1796 0.950 . S
C1801 C1799 1.390 . S
C1801 C1802 1.387 . S
C1801 H1804 0.950 . S
C1802 C1801 1.387 . S
C1802 C1805 1.387 . S
H1803 C1799 0.950 . S
H1804 C1801 0.950 . S
C1805 C1796 1.390 . S
C1805 H1798 0.950 . S
C1805 C1802 1.387 . S
C1806 C1807 1.387 . S
C1806 H1810 0.950 . S
C1806 C1815 1.390 . S
C1807 C1806 1.387 . S
C1807 C1809 1.387 . S
H1808 C1815 0.950 . S
C1809 C1807 1.387 . S
C1809 C1811 1.390 . S
C1809 H1813 0.950 . S
H1810 C1806 0.950 . S
C1811 C1809 1.390 . S
C1811 C1812 1.387 . S
C1811 H1814 0.950 . S
C1812 C1811 1.387 . S
C1812 C1815 1.387 . S
H1813 C1809 0.950 . S
H1814 C1811 0.950 . S
C1815 C1806 1.390 . S
C1815 H1808 0.950 . S
C1815 C1812 1.387 . S
C1816 C1817 1.387 . S
C1816 H1820 0.950 . S
C1816 C1825 1.390 1_455 S
C1817 C1816 1.387 . S
C1817 C1819 1.387 . S
H1818 C1825 0.950 . S
C1819 C1817 1.387 . S
C1819 C1821 1.390 1_455 S
C1819 H1823 0.950 . S
H1820 C1816 0.950 . S
C1821 C1819 1.390 1_655 S
C1821 C1822 1.387 . S
C1821 H1824 0.950 . S
C1822 C1821 1.387 . S
C1822 C1825 1.387 . S
H1823 C1819 0.950 . S
H1824 C1821 0.950 . S
C1825 C1816 1.390 1_655 S
C1825 H1818 0.950 . S
C1825 C1822 1.387 . S
C1826 C1827 1.387 . S
C1826 H1830 0.950 . S
C1826 C1835 1.390 . S
C1827 C1826 1.387 . S
C1827 C1829 1.387 . S
H1828 C1835 0.950 . S
C1829 C1827 1.387 . S
C1829 C1831 1.390 . S
C1829 H1833 0.950 . S
H1830 C1826 0.950 . S
C1831 C1829 1.390 . S
C1831 C1832 1.387 . S
C1831 H1834 0.950 . S
C1832 C1831 1.387 . S
C1832 C1835 1.387 . S
H1833 C1829 0.950 . S
H1834 C1831 0.950 . S
C1835 C1826 1.390 . S
C1835 H1828 0.950 . S
C1835 C1832 1.387 . S
C1836 C1837 1.387 . S
C1836 H1840 0.950 . S
C1836 C1845 1.390 . S
C1837 C1836 1.387 . S
C1837 C1839 1.387 . S
H1838 C1845 0.950 . S
C1839 C1837 1.387 . S
C1839 C1841 1.390 . S
C1839 H1843 0.950 . S
H1840 C1836 0.950 . S
C1841 C1839 1.390 . S
C1841 C1842 1.387 . S
C1841 H1844 0.950 . S
C1842 C1841 1.387 . S
C1842 C1845 1.387 . S
H1843 C1839 0.950 . S
H1844 C1841 0.950 . S
C1845 C1836 1.390 . S
C1845 H1838 0.950 . S
C1845 C1842 1.387 . S
C1846 C1847 1.387 . S
C1846 H1850 0.950 . S
C1846 C1855 1.390 1_655 S
C1847 C1846 1.387 . S
C1847 C1849 1.387 . S
H1848 C1855 0.950 . S
C1849 C1847 1.387 . S
C1849 C1851 1.390 1_655 S
C1849 H1853 0.950 . S
H1850 C1846 0.950 . S
C1851 C1849 1.390 1_455 S
C1851 C1852 1.387 . S
C1851 H1854 0.950 . S
C1852 C1851 1.387 . S
C1852 C1855 1.387 . S
H1853 C1849 0.950 . S
H1854 C1851 0.950 . S
C1855 C1846 1.390 1_455 S
C1855 H1848 0.950 . S
C1855 C1852 1.387 . S
C1057 C899 1.294 . S
C1062 C28 1.277 . S
C1067 C272 1.298 . S
C1072 C61 1.274 . S
C1077 C833 1.295 . S
C1082 C94 1.277 . S
C1087 C127 1.274 . S
C1092 C338 1.297 . S
C1097 C965 1.298 . S
C1102 C160 1.274 . S
C1107 C470 1.297 . S
C1112 C193 1.274 . S
C1117 C226 1.277 . S
C1122 C1031 1.295 . S
C1127 C259 1.275 . S
C1132 C404 1.297 . S
C1137 C635 1.298 . S
C1142 C292 1.273 . S
C1147 C8 1.295 . S
C1152 C325 1.276 . S
C1157 C358 1.275 . S
C1162 C569 1.296 . S
C1167 C391 1.277 . S
C1172 C74 1.295 . S
C1177 C424 1.277 . S
C1182 C701 1.295 . S
C1187 C457 1.276 . S
C1192 C206 1.295 . S
C1197 C767 1.297 . S
C1202 C490 1.274 . S
C1207 C140 1.295 . S
C1212 C523 1.277 . S
C1217 C371 1.298 . S
C1222 C556 1.273 . S
C1227 C589 1.277 . S
C1232 C800 1.295 . S
C1237 C305 1.297 . S
C1242 C622 1.274 . S
C1247 C655 1.277 . S
C1252 C866 1.294 . S
C1257 C437 1.295 . S
C1262 C688 1.277 . S
C1267 C998 1.296 . S
C1272 C721 1.276 . S
C1277 C503 1.298 . S
C1282 C754 1.274 . S
C1287 C787 1.274 . S
C1292 C932 1.297 . S
C1297 C820 1.273 . S
C1302 C107 1.298 . S
C1307 C536 1.297 . S
C1312 C853 1.274 . S
C1317 C41 1.294 . S
C1322 C886 1.277 . S
C1327 C919 1.275 . S
C1332 C602 1.297 . S
C1337 C952 1.277 . S
C1342 C173 1.295 . S
C1347 C985 1.277 . S
C1352 C734 1.295 . S
C1357 C239 1.298 . S
C1362 C1018 1.274 . S
C1367 C1051 1.276 . S
C1372 C668 1.296 . S
C1377 N5 1.561 . S
C1382 N170 1.560 . S
C1387 N203 1.560 . S
C1392 N38 1.560 . S
C1397 N236 1.560 . S
C1402 N71 1.560 . S
C1407 N104 1.560 . S
C1412 N137 1.560 . S
C1417 N269 1.561 . S
C1422 N434 1.560 . S
C1427 N302 1.561 . S
C1432 N467 1.560 . S
C1437 N335 1.561 . S
C1442 N500 1.560 . S
C1447 N368 1.560 . S
C1452 N401 1.561 . S
C1457 N698 1.561 . S
C1462 N533 1.561 . S
C1467 N566 1.560 . S
C1472 N731 1.561 . S
C1477 N599 1.560 . S
C1482 N764 1.560 . S
C1487 N665 1.561 . S
C1492 N632 1.560 . S
C1497 N962 1.560 . S
C1502 N797 1.560 . S
C1507 N995 1.561 . S
C1512 N830 1.560 . S
C1517 N1028 1.560 . S
C1522 N863 1.561 . S
C1527 N929 1.560 . S
C1532 N896 1.561 . S
C1537 C17 1.367 . S
C1542 C149 1.367 . S
C1547 C50 1.367 . S
C1552 C182 1.367 . S
C1557 C215 1.367 . S
C1562 C83 1.367 . S
C1567 C248 1.368 . S
C1572 C116 1.368 . S
C1577 C281 1.367 . S
C1582 C413 1.367 . S
C1587 C446 1.368 . S
C1592 C314 1.368 . S
C1597 C347 1.367 . S
C1602 C479 1.367 . S
C1607 C512 1.368 . S
C1612 C380 1.368 . S
C1617 C545 1.368 . S
C1622 C677 1.368 . S
C1627 C578 1.368 . S
C1632 C710 1.368 . S
C1637 C611 1.368 . S
C1642 C743 1.368 . S
C1647 C644 1.367 . S
C1652 C776 1.367 . S
C1657 C941 1.368 . S
C1662 C809 1.368 . S
C1667 C842 1.368 . S
C1672 C974 1.368 . S
C1677 C875 1.368 . S
C1682 C1007 1.368 . S
C1687 C908 1.367 . S
C1692 C1040 1.367 . S
C1697 N14 1.160 . S
C1702 N608 1.160 . S
C1707 N641 1.153 . S
C1712 N47 1.153 . S
C1717 N80 1.160 . S
C1722 N542 1.160 . S
C1727 N113 1.153 . S
C1732 N575 1.153 . S
C1737 N740 1.153 . S
C1742 N146 1.153 . S
C1747 N773 1.160 . S
C1752 N179 1.160 . S
C1757 N212 1.153 . S
C1762 N674 1.153 . S
C1767 N245 1.153 . S
C1772 N707 1.153 . S
C1777 N278 1.160 . S
C1782 N872 1.160 . S
C1787 N905 1.160 . S
C1792 N311 1.160 . S
C1797 N806 1.153 . S
C1802 N344 1.153 . S
C1807 N377 1.153 . S
C1812 N839 1.153 . S
C1817 N410 1.160 . S
C1822 N1004 1.160 . S
C1827 N443 1.153 . S
C1832 N1037 1.153 . S
C1837 N476 1.160 . S
C1842 N938 1.160 . S
C1847 N509 1.153 . S
C1852 N971 1.153 . S
