# Generated by pormake.
# Topology xfk, (7)-cn, num edge types: 1
# Building blocks:
#     Node 0, Type 0, BuildingBlock: HICVOG_clean_sbu_0, # of connection points: 7
#     Node 1, Type 0, BuildingBlock: HICVOG_clean_sbu_0, # of connection points: 7
#     Node 2, Type 0, BuildingBlock: HICVOG_clean_sbu_0, # of connection points: 7
#     Node 3, Type 0, BuildingBlock: HICVOG_clean_sbu_0, # of connection points: 7
#     Node 4, Type 0, BuildingBlock: HICVOG_clean_sbu_0, # of connection points: 7
#     Node 5, Type 0, BuildingBlock: HICVOG_clean_sbu_0, # of connection points: 7
#     Node 6, Type 0, BuildingBlock: HICVOG_clean_sbu_0, # of connection points: 7
#     Node 7, Type 0, BuildingBlock: HICVOG_clean_sbu_0, # of connection points: 7
#     Node 8, Type 0, BuildingBlock: HICVOG_clean_sbu_0, # of connection points: 7
#     Node 9, Type 0, BuildingBlock: HICVOG_clean_sbu_0, # of connection points: 7
#     Node 10, Type 0, BuildingBlock: HICVOG_clean_sbu_0, # of connection points: 7
#     Node 11, Type 0, BuildingBlock: HICVOG_clean_sbu_0, # of connection points: 7
#     Node 12, Type 0, BuildingBlock: HICVOG_clean_sbu_0, # of connection points: 7
#     Node 13, Type 0, BuildingBlock: HICVOG_clean_sbu_0, # of connection points: 7
#     Node 14, Type 0, BuildingBlock: HICVOG_clean_sbu_0, # of connection points: 7
#     Node 15, Type 0, BuildingBlock: HICVOG_clean_sbu_0, # of connection points: 7
#     Edge 16, Type (0, 0), BuildingBlock: KIFKEQ_clean_linker_1, # of connection points: 2
#     Edge 17, Type (0, 0), BuildingBlock: KIFKEQ_clean_linker_1, # of connection points: 2
#     Edge 18, Type (0, 0), BuildingBlock: KIFKEQ_clean_linker_1, # of connection points: 2
#     Edge 19, Type (0, 0), BuildingBlock: KIFKEQ_clean_linker_1, # of connection points: 2
#     Edge 20, Type (0, 0), BuildingBlock: KIFKEQ_clean_linker_1, # of connection points: 2
#     Edge 21, Type (0, 0), BuildingBlock: KIFKEQ_clean_linker_1, # of connection points: 2
#     Edge 22, Type (0, 0), BuildingBlock: KIFKEQ_clean_linker_1, # of connection points: 2
#     Edge 23, Type (0, 0), BuildingBlock: KIFKEQ_clean_linker_1, # of connection points: 2
#     Edge 24, Type (0, 0), BuildingBlock: KIFKEQ_clean_linker_1, # of connection points: 2
#     Edge 25, Type (0, 0), BuildingBlock: KIFKEQ_clean_linker_1, # of connection points: 2
#     Edge 26, Type (0, 0), BuildingBlock: KIFKEQ_clean_linker_1, # of connection points: 2
#     Edge 27, Type (0, 0), BuildingBlock: KIFKEQ_clean_linker_1, # of connection points: 2
#     Edge 28, Type (0, 0), BuildingBlock: KIFKEQ_clean_linker_1, # of connection points: 2
#     Edge 29, Type (0, 0), BuildingBlock: KIFKEQ_clean_linker_1, # of connection points: 2
#     Edge 30, Type (0, 0), BuildingBlock: KIFKEQ_clean_linker_1, # of connection points: 2
#     Edge 31, Type (0, 0), BuildingBlock: KIFKEQ_clean_linker_1, # of connection points: 2
#     Edge 32, Type (0, 0), BuildingBlock: KIFKEQ_clean_linker_1, # of connection points: 2
#     Edge 33, Type (0, 0), BuildingBlock: KIFKEQ_clean_linker_1, # of connection points: 2
#     Edge 34, Type (0, 0), BuildingBlock: KIFKEQ_clean_linker_1, # of connection points: 2
#     Edge 35, Type (0, 0), BuildingBlock: KIFKEQ_clean_linker_1, # of connection points: 2
#     Edge 36, Type (0, 0), BuildingBlock: KIFKEQ_clean_linker_1, # of connection points: 2
#     Edge 37, Type (0, 0), BuildingBlock: KIFKEQ_clean_linker_1, # of connection points: 2
#     Edge 38, Type (0, 0), BuildingBlock: KIFKEQ_clean_linker_1, # of connection points: 2
#     Edge 39, Type (0, 0), BuildingBlock: KIFKEQ_clean_linker_1, # of connection points: 2
#     Edge 40, Type (0, 0), BuildingBlock: KIFKEQ_clean_linker_1, # of connection points: 2
#     Edge 41, Type (0, 0), BuildingBlock: KIFKEQ_clean_linker_1, # of connection points: 2
#     Edge 42, Type (0, 0), BuildingBlock: KIFKEQ_clean_linker_1, # of connection points: 2
#     Edge 43, Type (0, 0), BuildingBlock: KIFKEQ_clean_linker_1, # of connection points: 2
#     Edge 44, Type (0, 0), BuildingBlock: KIFKEQ_clean_linker_1, # of connection points: 2
#     Edge 45, Type (0, 0), BuildingBlock: KIFKEQ_clean_linker_1, # of connection points: 2
#     Edge 46, Type (0, 0), BuildingBlock: KIFKEQ_clean_linker_1, # of connection points: 2
#     Edge 47, Type (0, 0), BuildingBlock: KIFKEQ_clean_linker_1, # of connection points: 2
#     Edge 48, Type (0, 0), BuildingBlock: KIFKEQ_clean_linker_1, # of connection points: 2
#     Edge 49, Type (0, 0), BuildingBlock: KIFKEQ_clean_linker_1, # of connection points: 2
#     Edge 50, Type (0, 0), BuildingBlock: KIFKEQ_clean_linker_1, # of connection points: 2
#     Edge 51, Type (0, 0), BuildingBlock: KIFKEQ_clean_linker_1, # of connection points: 2
#     Edge 52, Type (0, 0), BuildingBlock: KIFKEQ_clean_linker_1, # of connection points: 2
#     Edge 53, Type (0, 0), BuildingBlock: KIFKEQ_clean_linker_1, # of connection points: 2
#     Edge 54, Type (0, 0), BuildingBlock: KIFKEQ_clean_linker_1, # of connection points: 2
#     Edge 55, Type (0, 0), BuildingBlock: KIFKEQ_clean_linker_1, # of connection points: 2
#     Edge 56, Type (0, 0), BuildingBlock: KIFKEQ_clean_linker_1, # of connection points: 2
#     Edge 57, Type (0, 0), BuildingBlock: KIFKEQ_clean_linker_1, # of connection points: 2
#     Edge 58, Type (0, 0), BuildingBlock: KIFKEQ_clean_linker_1, # of connection points: 2
#     Edge 59, Type (0, 0), BuildingBlock: KIFKEQ_clean_linker_1, # of connection points: 2
#     Edge 60, Type (0, 0), BuildingBlock: KIFKEQ_clean_linker_1, # of connection points: 2
#     Edge 61, Type (0, 0), BuildingBlock: KIFKEQ_clean_linker_1, # of connection points: 2
#     Edge 62, Type (0, 0), BuildingBlock: KIFKEQ_clean_linker_1, # of connection points: 2
#     Edge 63, Type (0, 0), BuildingBlock: KIFKEQ_clean_linker_1, # of connection points: 2
#     Edge 64, Type (0, 0), BuildingBlock: KIFKEQ_clean_linker_1, # of connection points: 2
#     Edge 65, Type (0, 0), BuildingBlock: KIFKEQ_clean_linker_1, # of connection points: 2
#     Edge 66, Type (0, 0), BuildingBlock: KIFKEQ_clean_linker_1, # of connection points: 2
#     Edge 67, Type (0, 0), BuildingBlock: KIFKEQ_clean_linker_1, # of connection points: 2
#     Edge 68, Type (0, 0), BuildingBlock: KIFKEQ_clean_linker_1, # of connection points: 2
#     Edge 69, Type (0, 0), BuildingBlock: KIFKEQ_clean_linker_1, # of connection points: 2
#     Edge 70, Type (0, 0), BuildingBlock: KIFKEQ_clean_linker_1, # of connection points: 2
#     Edge 71, Type (0, 0), BuildingBlock: KIFKEQ_clean_linker_1, # of connection points: 2
# Relax obj value: 0.473
# Max RMSD: 0.280
# Mean RMSD: 0.280
data_MOF--net-xfk--node1-HICVOG_clean_sbu_0--edge1-KIFKEQ_clean_linker_1
_symmetry_space_group_name_H-M    P1
_symmetry_Int_Tables_number       1
_symmetry_cell_setting            triclinic
loop_
_symmetry_equiv_pos_as_xyz
'x, y, z'
_cell_length_a     38.19575
_cell_length_b     38.241158
_cell_length_c     37.937686
_cell_angle_alpha  89.899184
_cell_angle_beta   90.10269
_cell_angle_gamma 89.942002
loop_
_atom_site_label
_atom_site_type_symbol
_atom_site_fract_x
_atom_site_fract_y
_atom_site_fract_z
_atom_type_partial_charge
Zn0 Zn 0.3598 0.09386 0.15826 0.0
C1 C 0.33733 0.10888 1.05616 0.0
N2 N 0.36452 0.12956 1.04927 0.0
C3 C 0.38039 0.13406 0.08037 0.0
N4 N 0.36263 0.11471 0.1068 0.0
N5 N 0.3355 0.09996 0.09059 0.0
C6 C 0.27162 0.03683 1.06255 0.0
O7 O 0.30391 1.02584 0.06717 0.0
O8 O 0.3866 0.12771 0.18781 0.0
Zn9 Zn 0.29456 0.07942 0.11639 0.0
N10 N 0.38367 0.05007 0.15642 0.0
C11 C 0.39226 0.99441 0.13027 0.0
C12 C 0.38169 0.02918 0.12759 0.0
C13 C 0.39541 0.0378 0.18779 0.0
N14 N 0.4042 0.98209 0.16167 0.0
C15 C 0.40596 1.0027 0.19093 0.0
O16 O 0.29592 0.03731 0.15196 0.0
C17 C 0.29562 0.04654 0.18419 0.0
O18 O 0.31323 0.07471 0.19116 0.0
H19 H 0.37076 0.03901 0.10322 0.0
H20 H 0.39592 0.05568 0.20974 0.0
C21 C 0.23805 0.1169 0.14686 0.0
C22 C 0.22175 0.14411 0.16561 0.0
C23 C 0.27757 0.16949 0.17605 0.0
C24 C 0.29329 0.14328 0.15621 0.0
N25 N 0.27324 0.11746 0.1421 0.0
N26 N 0.2423 0.16952 0.17992 0.0
H27 H 0.22327 0.09544 0.13588 0.0
C28 C 0.41611 0.13926 0.17765 0.0
O29 O 0.43158 0.12442 0.15064 0.0
O30 O 0.26028 0.06202 0.08096 0.0
H31 H 0.32127 0.14333 0.15266 0.0
H32 H 0.39074 0.97724 0.10769 0.0
H33 H 0.29318 0.19002 0.18775 0.0
Zn34 Zn 0.09047 0.69742 0.97543 0.0
C35 C 0.10895 0.72399 0.07615 0.0
N36 N 0.12863 0.69605 0.0833 0.0
C37 C 0.13175 0.67947 1.05242 0.0
N38 N 0.11225 0.69747 1.02618 0.0
N39 N 0.09925 0.72563 1.04202 0.0
C40 C 0.03635 0.78836 0.06949 0.0
O41 O 0.02752 0.75597 1.06224 0.0
O42 O 0.12454 0.66722 0.94983 0.0
Zn43 Zn 0.0815 0.76858 1.01731 0.0
N44 N 0.04714 0.67323 0.97963 0.0
C45 C 0.99089 0.66585 1.00506 0.0
C46 C 1.02491 0.67891 1.00691 0.0
C47 C 0.03696 0.65551 0.95059 0.0
N48 N 0.98066 0.64778 0.97599 0.0
C49 C 1.00271 0.64238 0.9483 0.0
O50 O 0.0412 0.77071 0.98054 0.0
C51 C 0.04658 0.76528 0.94791 0.0
O52 O 0.07033 0.74209 0.94042 0.0
H53 H 0.03323 0.6942 1.02931 0.0
H54 H 0.05591 0.65186 0.92984 0.0
C55 C 0.12838 0.82205 0.99092 0.0
C56 C 0.15715 0.83384 0.97101 0.0
C57 C 0.16983 0.77528 0.95487 0.0
C58 C 0.1418 0.76378 0.97502 0.0
N59 N 0.12147 0.78725 0.99246 0.0
N60 N 0.17695 0.80989 0.95351 0.0
H61 H 0.11219 0.83991 1.00581 0.0
C62 C 0.14462 0.67773 0.92547 0.0
O63 O 0.13736 0.70723 0.90922 0.0
O64 O 0.06219 0.80194 1.05342 0.0
H65 H 0.13621 0.73631 0.97642 0.0
H66 H 0.97271 0.6701 1.02646 0.0
H67 H 0.1861 0.75685 0.94075 0.0
Zn68 Zn 0.75163 0.96908 0.10506 0.0
C69 C 0.65449 0.93699 0.07249 0.0
N70 N 0.6688 0.94458 1.04118 0.0
C71 C 0.69814 0.96182 1.04894 0.0
N72 N 0.70331 0.96493 0.08392 0.0
N73 N 0.67519 0.95169 0.09983 0.0
C74 C 0.7031 0.90542 0.19264 0.0
O75 O 0.73194 0.92375 0.19627 0.0
O76 O 0.78418 0.98757 0.068 0.0
Zn77 Zn 0.67912 0.96472 0.15342 0.0
N78 N 0.76668 0.92208 0.11659 0.0
C79 C 0.75421 0.86152 0.12269 0.0
C80 C 0.74331 0.89534 0.1151 0.0
C81 C 0.80085 0.91626 0.1249 0.0
N82 N 0.78822 0.85568 0.13097 0.0
C83 C 0.81233 0.88191 0.13224 0.0
O84 O 0.7197 0.99788 0.18146 0.0
C85 C 0.7509 1.00993 0.17612 0.0
O86 O 0.76536 1.00172 0.1471 0.0
H87 H 0.71634 0.90001 0.10814 0.0
H88 H 0.81842 0.93826 0.12472 0.0
C89 C 0.62422 0.98669 0.1976 0.0
C90 C 0.59715 1.00903 0.20832 0.0
C91 C 0.60078 0.03868 0.15321 0.0
C92 C 0.6273 1.01609 0.14261 0.0
N93 N 0.63827 0.9906 0.16498 0.0
N94 N 0.58628 0.03452 0.18558 0.0
H95 H 0.63468 0.96681 0.215 0.0
C96 C 0.77739 1.01847 1.05782 0.0
O97 O 0.74969 0.03444 0.07057 0.0
O98 O 0.67677 0.91917 0.17768 0.0
H99 H 0.63979 1.01937 0.11726 0.0
H100 H 0.73591 0.84 0.12181 0.0
H101 H 0.59174 0.05935 0.13592 0.0
Zn102 Zn 0.96936 0.34743 0.96823 0.0
C103 C 0.96956 0.3315 0.07358 0.0
N104 N 0.95059 0.35987 0.08079 0.0
C105 C 0.94207 0.37321 1.04928 0.0
N106 N 0.95767 0.35291 1.02223 0.0
N107 N 0.97337 0.32633 1.03854 0.0
C108 C 0.03258 0.25944 0.06668 0.0
O109 O 0.04697 0.28914 1.05697 0.0
O110 O 0.92545 0.36552 0.94668 0.0
Zn111 Zn 0.98776 0.28205 1.01418 0.0
N112 N 1.00588 0.37984 0.95782 0.0
C113 C 0.06683 0.39167 0.95568 0.0
C114 C 0.03882 0.37266 0.96923 0.0
C115 C 0.99962 0.40517 0.93363 0.0
N116 N 0.06064 0.41689 0.93119 0.0
C117 C 0.02769 0.42419 0.91937 0.0
O118 O 0.02754 0.27978 0.97613 0.0
C119 C 1.0191 0.2822 0.94371 0.0
O120 O 0.99182 0.30136 0.93677 0.0
H121 H 0.0433 0.35155 0.98771 0.0
H122 H 0.97294 0.41002 0.92587 0.0
C123 C 0.94226 0.22645 0.99052 0.0
C124 C 0.91196 0.21252 0.97461 0.0
C125 C 0.89162 0.27014 0.96341 0.0
C126 C 0.92092 0.28366 0.9803 0.0
N127 N 0.94603 0.26176 0.99296 0.0
N128 N 0.88772 0.23504 0.96118 0.0
H129 H 0.96256 0.20964 1.00102 0.0
C130 C 0.91086 0.37047 0.91709 0.0
O131 O 0.92668 0.3612 0.88785 0.0
O132 O 1.00498 0.24927 1.05117 0.0
H133 H 0.92342 0.31138 0.98329 0.0
H134 H 0.09332 0.38624 0.96425 0.0
H135 H 0.87174 0.28739 0.9528 0.0
Zn136 Zn 0.28978 0.47932 0.26672 0.0
C137 C 0.3797 0.42903 0.3028 0.0
N138 N 0.3639 0.43457 0.33376 0.0
C139 C 0.33542 0.45319 0.32573 0.0
N140 N 0.3326 0.45977 0.29084 0.0
N141 N 0.36073 0.44593 0.27551 0.0
C142 C 0.36801 0.38678 0.21232 0.0
O143 O 0.34689 0.38777 0.23952 0.0
O144 O 0.2594 0.5002 0.30402 0.0
Zn145 Zn 0.36114 0.45995 0.22227 0.0
N146 N 0.26498 0.44221 0.2428 0.0
C147 C 0.26532 0.4 0.19681 0.0
C148 C 0.28254 0.42458 0.21736 0.0
C149 C 0.23016 0.4371 0.24779 0.0
N150 N 0.23074 0.39452 0.20199 0.0
C151 C 0.21234 0.41245 0.22681 0.0
O152 O 0.31866 0.48899 0.18966 0.0
C153 C 0.29596 0.5133 0.19705 0.0
O154 O 0.29009 0.51886 0.22959 0.0
H155 H 0.3094 0.43043 0.21226 0.0
H156 H 0.21664 0.45297 0.267 0.0
C157 C 0.40831 0.50236 0.18572 0.0
C158 C 0.43122 0.53063 0.18107 0.0
C159 C 0.42887 0.54164 0.24278 0.0
C160 C 0.40652 0.51328 0.24718 0.0
N161 N 0.39699 0.4942 0.21859 0.0
N162 N 0.44079 0.54946 0.21003 0.0
H163 H 0.39875 0.48724 0.16369 0.0
C164 C 0.27333 0.52649 0.31883 0.0
O165 O 0.30459 0.53654 0.30853 0.0
O166 O 0.37793 0.41528 0.19801 0.0
H167 H 0.39607 0.50718 0.27293 0.0
H168 H 0.27919 0.38575 0.17653 0.0
H169 H 0.43671 0.55733 0.26513 0.0
Zn170 Zn 0.45428 0.69402 0.901 0.0
C171 C 0.44354 0.71677 0.79869 0.0
N172 N 0.4238 0.68924 0.79049 0.0
C173 C 0.41782 0.67332 0.82139 0.0
N174 N 0.43557 0.69139 0.84877 0.0
N175 N 0.45015 0.71901 0.83346 0.0
C176 C 0.50905 0.78766 0.81088 0.0
O177 O 0.52246 0.75824 0.82278 0.0
O178 O 0.41924 0.66458 0.92611 0.0
Zn179 Zn 0.46367 0.76264 0.85888 0.0
N180 N 0.49825 0.67049 0.90029 0.0
C181 C 0.55588 0.66502 0.87768 0.0
C182 C 0.52132 0.67598 0.87367 0.0
C183 C 0.50813 0.65491 0.9308 0.0
N184 N 0.56582 0.64921 0.90818 0.0
C185 C 0.54298 0.64392 0.93526 0.0
O186 O 0.50375 0.76728 0.89574 0.0
C187 C 0.49705 0.76283 0.92828 0.0
O188 O 0.47286 0.73996 0.9354 0.0
H189 H 0.5133 0.68986 0.85017 0.0
H190 H 0.48862 0.65163 0.95106 0.0
C191 C 0.41941 0.81314 0.89122 0.0
C192 C 0.39122 0.82473 0.91198 0.0
C193 C 0.37131 0.76618 0.91709 0.0
C194 C 0.39898 0.75499 0.89621 0.0
N195 N 0.42257 0.77859 0.88378 0.0
N196 N 0.36797 0.80068 0.92429 0.0
H197 H 0.43834 0.83111 0.88032 0.0
C198 C 0.39889 0.67565 0.94996 0.0
O199 O 0.40632 0.70514 0.96602 0.0
O200 O 0.47945 0.79747 0.82251 0.0
H201 H 0.40173 0.72759 0.89067 0.0
H202 H 0.57474 0.66926 0.85687 0.0
H203 H 0.35248 0.74766 0.92731 0.0
Zn204 Zn 0.70607 0.58293 0.21945 0.0
C205 C 0.72242 0.58431 0.32412 0.0
N206 N 0.69328 0.6021 0.33127 0.0
C207 C 0.68035 0.61107 0.29974 0.0
N208 N 0.70163 0.59664 0.27278 0.0
N209 N 0.72879 0.58208 0.28922 0.0
C210 C 0.80146 0.53074 0.3165 0.0
O211 O 0.77508 0.51455 0.30136 0.0
O212 O 0.69719 0.62715 0.19442 0.0
Zn213 Zn 0.77691 0.57748 0.26804 0.0
N214 N 0.66807 0.55222 0.2109 0.0
C215 C 0.63563 0.50199 0.22743 0.0
C216 C 0.66014 0.52765 0.23548 0.0
C217 C 0.65301 0.55223 0.17851 0.0
N218 N 0.61996 0.50235 0.19531 0.0
C219 C 0.62783 0.52684 0.17038 0.0
O220 O 0.7911 0.54311 0.22736 0.0
C221 C 0.7783 0.5381 0.19677 0.0
O222 O 0.74832 0.55264 0.19029 0.0
H223 H 0.67348 0.52751 0.26066 0.0
H224 H 0.66122 0.57153 0.15939 0.0
C225 C 0.82268 0.6284 0.23845 0.0
C226 C 0.83327 0.66204 0.22798 0.0
C227 C 0.77864 0.68468 0.24707 0.0
C228 C 0.76877 0.65154 0.25844 0.0
N229 N 0.79074 0.62394 0.2535 0.0
N230 N 0.81062 0.6892 0.23236 0.0
H231 H 0.83968 0.60599 0.23527 0.0
C232 C 0.72176 0.6449 0.18095 0.0
O233 O 0.75305 0.63089 0.17811 0.0
O234 O 0.80906 0.56147 0.30648 0.0
H235 H 0.74374 0.6481 0.27095 0.0
H236 H 0.629 0.48203 0.24651 0.0
H237 H 0.76126 0.70678 0.25041 0.0
Zn238 Zn 0.5986 0.35908 0.90869 0.0
C239 C 0.59892 0.34153 0.80396 0.0
N240 N 0.61851 0.36928 0.79613 0.0
C241 C 0.62765 0.38261 0.82741 0.0
N242 N 0.61182 0.363 0.85487 0.0
N243 N 0.59562 0.33657 0.83902 0.0
C244 C 0.53958 0.2656 0.81214 0.0
O245 O 0.52328 0.29379 0.82326 0.0
O246 O 0.6423 0.37367 0.93339 0.0
Zn247 Zn 0.5835 0.29151 0.86298 0.0
N248 N 0.56424 0.39421 0.91638 0.0
C249 C 0.51081 0.42186 0.9009 0.0
C250 C 0.53766 0.39855 0.893 0.0
C251 C 0.56496 0.41144 0.94757 0.0
N252 N 0.51224 0.44025 0.93145 0.0
C253 C 0.53876 0.43596 0.95522 0.0
O254 O 0.5439 0.28542 0.89985 0.0
C255 C 0.54851 0.29199 0.93241 0.0
O256 O 0.57188 0.31547 0.93993 0.0
H257 H 0.53707 0.3835 0.86889 0.0
H258 H 0.58588 0.40575 0.96587 0.0
C259 C 0.6265 0.2388 0.89259 0.0
C260 C 0.65608 0.22459 0.90951 0.0
C261 C 0.68027 0.28163 0.91384 0.0
C262 C 0.65154 0.29524 0.89585 0.0
N263 N 0.62513 0.27364 0.88578 0.0
N264 N 0.68203 0.24672 0.91993 0.0
H265 H 0.60468 0.22262 0.88469 0.0
C266 C 0.65514 0.40282 0.92382 0.0
O267 O 0.63656 0.42342 0.90329 0.0
O268 O 0.56891 0.25768 0.82571 0.0
H269 H 0.65045 0.32275 0.89014 0.0
H270 H 0.48926 0.42569 0.88276 0.0
H271 H 0.70133 0.29855 0.92232 0.0
Zn272 Zn 0.86638 0.58588 0.65367 0.0
C273 C 0.84872 0.58838 0.5492 0.0
N274 N 0.87735 0.60679 0.54174 0.0
C275 C 0.89089 0.61511 0.57318 0.0
N276 N 0.87039 0.59989 0.60034 0.0
N277 N 0.84326 0.58512 0.58414 0.0
C278 C 0.77193 0.53069 0.55704 0.0
O279 O 0.79934 0.51502 0.57093 0.0
O280 O 0.87698 0.62965 0.6789 0.0
Zn281 Zn 0.79593 0.57759 0.60579 0.0
N282 N 0.90318 0.5535 0.66167 0.0
C283 C 0.93786 0.50542 0.64333 0.0
C284 C 0.91483 0.53254 0.63533 0.0
C285 C 0.91301 0.54843 0.69565 0.0
N286 N 0.94835 0.50076 0.67722 0.0
C287 C 0.93662 0.52157 0.70388 0.0
O288 O 0.78351 0.54215 0.64573 0.0
C289 C 0.79495 0.54037 0.67719 0.0
O290 O 0.82359 0.55722 0.68389 0.0
H291 H 0.90549 0.53622 0.60865 0.0
H292 H 0.90179 0.5649 0.71583 0.0
C293 C 0.74635 0.62438 0.63429 0.0
C294 C 0.73319 0.65656 0.64616 0.0
C295 C 0.78824 0.6828 0.6343 0.0
C296 C 0.8008 0.65105 0.62163 0.0
N297 N 0.77969 0.62243 0.62209 0.0
N298 N 0.75479 0.68487 0.64604 0.0
H299 H 0.73033 0.60107 0.6342 0.0
C300 C 0.85322 0.64555 0.69577 0.0
O301 O 0.8231 0.62988 0.70114 0.0
O302 O 0.76384 0.56108 0.56767 0.0
H303 H 0.82716 0.64944 0.61173 0.0
H304 H 0.94739 0.48825 0.62284 0.0
H305 H 0.80474 0.70578 0.63426 0.0
Zn306 Zn 0.587 0.19704 0.47714 0.0
C307 C 0.60084 0.22247 0.57847 0.0
N308 N 0.62022 0.19457 0.58655 0.0
C309 C 0.62515 0.17825 0.55572 0.0
N310 N 0.60717 0.19642 0.52855 0.0
N311 N 0.59345 0.22449 0.54382 0.0
C312 C 0.53296 0.29213 0.56882 0.0
O313 O 0.51994 0.26142 0.56053 0.0
O314 O 0.62056 0.16628 0.45175 0.0
Zn315 Zn 0.57756 0.2673 0.51829 0.0
N316 N 0.54271 0.17416 0.48014 0.0
C317 C 0.48647 0.16878 0.50615 0.0
C318 C 0.52119 0.17974 0.50803 0.0
C319 C 0.53103 0.15856 0.45032 0.0
N320 N 0.47478 0.15285 0.47641 0.0
C321 C 0.496 0.14756 0.44806 0.0
O322 O 0.53726 0.26948 0.48167 0.0
C323 C 0.54378 0.26454 0.44916 0.0
O324 O 0.56828 0.24201 0.44216 0.0
H325 H 0.53056 0.19356 0.53099 0.0
H326 H 0.54923 0.15499 0.42887 0.0
C327 C 0.62083 0.32076 0.48997 0.0
C328 C 0.64945 0.33457 0.47129 0.0
C329 C 0.66872 0.27672 0.45911 0.0
C330 C 0.64093 0.26334 0.47855 0.0
N331 N 0.6176 0.2856 0.4936 0.0
N332 N 0.67248 0.31187 0.4562 0.0
H333 H 0.60105 0.33739 0.5015 0.0
C334 C 0.6391 0.17521 0.42558 0.0
O335 O 0.63236 0.20485 0.40936 0.0
O336 O 0.56105 0.30206 0.55405 0.0
H337 H 0.63778 0.23546 0.48112 0.0
H338 H 0.46887 0.17305 0.52803 0.0
H339 H 0.68737 0.25936 0.44673 0.0
Zn340 Zn 0.25104 0.47965 0.60151 0.0
C341 C 0.15822 0.43221 0.57143 0.0
N342 N 0.16976 0.44101 0.53933 0.0
C343 C 0.19833 0.46019 0.54517 0.0
N344 N 0.20531 0.46399 0.5799 0.0
N345 N 0.17986 0.44778 0.59747 0.0
C346 C 0.1451 0.40196 0.67145 0.0
O347 O 0.12134 0.41802 0.65225 0.0
O348 O 0.28185 0.50004 0.56399 0.0
Zn349 Zn 0.18598 0.46039 0.65122 0.0
N350 N 0.27341 0.43859 0.62107 0.0
C351 C 0.26904 0.38422 0.65132 0.0
C352 C 0.25329 0.41241 0.63434 0.0
C353 C 0.30889 0.43742 0.62358 0.0
N354 N 0.30442 0.38293 0.65371 0.0
C355 C 0.32502 0.40865 0.64009 0.0
O356 O 0.23068 0.4866 0.681 0.0
C357 C 0.25284 0.51107 0.67321 0.0
O358 O 0.25702 0.51752 0.64054 0.0
H359 H 0.22526 0.41348 0.6322 0.0
H360 H 0.32416 0.4589 0.6132 0.0
C361 C 0.14128 0.4977 0.69561 0.0
C362 C 0.11898 0.52518 0.70527 0.0
C363 C 0.11806 0.54435 0.6455 0.0
C364 C 0.13983 0.51671 0.6361 0.0
N365 N 0.15072 0.49397 0.66135 0.0
N366 N 0.10805 0.54778 0.67963 0.0
H367 H 0.15182 0.4797 0.71491 0.0
C368 C 0.27 0.5262 0.54707 0.0
O369 O 0.23817 0.53748 0.55367 0.0
O370 O 0.1744 0.41668 0.67677 0.0
H371 H 0.1488 0.51395 0.60923 0.0
H372 H 0.2533 0.36338 0.66232 0.0
H373 H 0.10916 0.56293 0.62589 0.0
Zn374 Zn 0.48207 0.78498 0.51966 0.0
C375 C 0.45549 0.88402 0.55073 0.0
N376 N 0.46355 0.87032 0.58219 0.0
C377 C 0.47926 0.84005 0.57503 0.0
N378 N 0.48115 0.83377 0.54008 0.0
N379 N 0.46868 0.862 0.52368 0.0
C380 C 0.41969 0.83301 0.43483 0.0
O381 O 0.4362 0.80292 0.43318 0.0
O382 O 0.5004 0.75388 0.55803 0.0
Zn383 Zn 0.48125 0.85591 0.47017 0.0
N384 N 0.43363 0.77318 0.50977 0.0
C385 C 0.37356 0.78956 0.51042 0.0
C386 C 0.40838 0.79707 0.51753 0.0
C387 C 0.42527 0.74167 0.49547 0.0
N388 N 0.36517 0.75802 0.49671 0.0
C389 C 0.38981 0.73339 0.48908 0.0
O390 O 0.51231 0.8135 0.44242 0.0
C391 C 0.52242 0.78164 0.44791 0.0
O392 O 0.51331 0.76794 0.47713 0.0
H393 H 0.41495 0.82183 0.52921 0.0
H394 H 0.44621 0.72364 0.48966 0.0
C395 C 0.50013 0.91366 0.42811 0.0
C396 C 0.52181 0.94113 0.41699 0.0
C397 C 0.56091 0.92809 0.4642 0.0
C398 C 0.53863 0.90168 0.47567 0.0
N399 N 0.5087 0.89529 0.45748 0.0
N400 N 0.55181 0.94735 0.43553 0.0
H401 H 0.47675 0.9065 0.41384 0.0
C402 C 0.53142 0.76274 0.56605 0.0
O403 O 0.54598 0.78886 0.54893 0.0
O404 O 0.43553 0.8596 0.4467 0.0
H405 H 0.54536 0.88583 0.49835 0.0
H406 H 0.35325 0.80844 0.51612 0.0
H407 H 0.58501 0.93356 0.47815 0.0
Zn408 Zn 0.78659 0.97499 0.77594 0.0
C409 C 0.88195 0.93427 0.80638 0.0
N410 N 0.86837 0.94096 0.83819 0.0
C411 C 0.83937 0.95921 0.83153 0.0
N412 N 0.83381 0.96405 0.79678 0.0
N413 N 0.86098 0.95019 0.77988 0.0
C414 C 0.8461 0.90559 0.68288 0.0
O415 O 0.81551 0.92009 0.67662 0.0
O416 O 0.75651 0.99343 0.8148 0.0
Zn417 Zn 0.85616 0.965 0.72689 0.0
N418 N 0.76714 0.93144 0.75961 0.0
C419 C 0.77392 0.87243 0.74112 0.0
C420 C 0.7882 0.90328 0.75418 0.0
C421 C 0.73223 0.9299 0.75287 0.0
N422 N 0.73908 0.87082 0.73446 0.0
C423 C 0.7176 0.89869 0.74013 0.0
O424 O 0.81276 0.99285 0.6969 0.0
C425 C 0.78552 1.01159 0.70439 0.0
O426 O 0.77561 1.01143 0.73639 0.0
H427 H 0.81587 0.90469 0.75955 0.0
H428 H 0.71623 0.95282 0.75742 0.0
C429 C 0.91028 0.99691 0.68934 0.0
C430 C 0.93192 1.02482 0.67983 0.0
C431 C 0.91381 0.05563 0.73093 0.0
C432 C 0.89253 0.02758 0.74044 0.0
N433 N 0.89141 0.99889 0.71943 0.0
N434 N 0.93308 0.05358 0.70095 0.0
H435 H 0.90768 0.97415 0.67263 0.0
C436 C 0.76728 1.0226 0.82644 0.0
O437 O 0.79583 0.03626 0.81289 0.0
O438 O 0.86852 0.92204 0.70103 0.0
H439 H 0.87607 0.02908 0.76357 0.0
H440 H 0.79031 0.84979 0.73669 0.0
H441 H 0.91491 0.07887 0.7471 0.0
Zn442 Zn 0.94363 0.2008 0.40425 0.0
C443 C 0.94636 0.21407 0.29944 0.0
N444 N 0.92505 0.18758 0.29158 0.0
C445 C 0.91433 0.17538 0.3229 0.0
N446 N 0.93067 0.19442 0.3504 0.0
N447 N 0.94941 0.21905 0.33453 0.0
C448 C 1.01359 0.28497 0.31042 0.0
O449 O 1.02699 0.25418 0.31796 0.0
O450 O 0.9022 0.18103 0.42948 0.0
Zn451 Zn 0.9669 0.26087 0.36029 0.0
N452 N 0.98285 0.17108 0.41175 0.0
C453 C 0.0413 0.1553 0.39761 0.0
C454 C 1.00987 0.17151 0.38852 0.0
C455 C 0.98587 0.15556 0.44374 0.0
N456 N 0.04417 0.13915 0.42939 0.0
C457 C 1.01719 0.13874 0.45283 0.0
O458 O 1.00691 0.25974 0.39799 0.0
C459 C 0.99567 0.26237 0.42945 0.0
O460 O 0.96577 0.24733 0.4354 0.0
H461 H 1.00746 0.18548 0.36383 0.0
H462 H 0.96426 0.15708 0.46207 0.0
C463 C 0.93058 0.31746 0.39125 0.0
C464 C 0.90319 0.33469 0.40881 0.0
C465 C 0.8715 0.2813 0.41069 0.0
C466 C 0.89813 0.26479 0.39207 0.0
N467 N 0.92729 0.28307 0.38298 0.0
N468 N 0.87448 0.31579 0.41828 0.0
H469 H 0.95439 0.33094 0.38407 0.0
C470 C 0.89225 0.15084 0.41971 0.0
O471 O 0.91228 0.13274 0.39832 0.0
O472 O 0.98551 0.29446 0.32535 0.0
H473 H 0.89554 0.23757 0.38549 0.0
H474 H 0.06325 0.15559 0.37964 0.0
H475 H 0.84835 0.267 0.4185 0.0
Zn476 Zn 0.21657 0.09253 0.71818 0.0
C477 C 0.22418 0.09155 0.82434 0.0
N478 N 0.19509 0.11016 0.82932 0.0
C479 C 0.18476 0.11982 0.79711 0.0
N480 N 0.20762 0.10509 0.77165 0.0
N481 N 0.23271 0.08883 0.78976 0.0
C482 C 0.29972 0.03111 0.82078 0.0
O483 O 0.26903 1.01824 0.81203 0.0
O484 O 0.19985 0.13465 0.69228 0.0
Zn485 Zn 0.27872 0.07498 0.76727 0.0
N486 N 0.18567 0.05499 0.70846 0.0
C487 C 0.16649 0.99693 0.71915 0.0
C488 C 0.18545 1.02629 0.72957 0.0
C489 C 0.16862 0.05549 0.67716 0.0
N490 N 0.14808 0.99797 0.68849 0.0
C491 C 0.14846 0.02668 0.66717 0.0
O492 O 0.28603 0.03588 0.72923 0.0
C493 C 0.28396 0.04348 0.69655 0.0
O494 O 0.26308 0.06911 0.68856 0.0
H495 H 0.20064 1.02594 0.75366 0.0
H496 H 0.17084 0.07822 0.66034 0.0
C497 C 0.33356 0.11677 0.74001 0.0
C498 C 0.34882 0.14562 0.72294 0.0
C499 C 0.2925 0.17128 0.71683 0.0
C500 C 0.27777 0.14321 0.73482 0.0
N501 N 0.29849 0.11638 0.74584 0.0
N502 N 0.32758 0.17198 0.71158 0.0
H503 H 0.34912 0.0947 0.7486 0.0
C504 C 0.16882 0.14507 0.6982 0.0
O505 O 0.148 0.12565 0.71759 0.0
O506 O 0.31106 0.05804 0.80498 0.0
H507 H 0.25004 0.14289 0.73949 0.0
H508 H 0.16606 0.97368 0.73543 0.0
H509 H 0.27627 0.19261 0.70756 0.0
Zn510 Zn 0.08149 0.79163 0.35151 0.0
C511 C 0.12057 0.88888 0.32706 0.0
N512 N 0.10869 0.88022 0.29502 0.0
C513 C 0.0903 0.85095 0.29992 0.0
N514 N 0.09001 0.84074 0.33402 0.0
N515 N 0.10738 0.86483 0.35224 0.0
C516 C 0.15786 0.83491 0.44203 0.0
O517 O 0.14123 0.80493 0.44391 0.0
O518 O 0.06133 0.76412 0.31145 0.0
Zn519 Zn 0.0969 0.85515 0.40559 0.0
N520 N 0.12697 0.77317 0.36411 0.0
C521 C 0.18839 0.78074 0.37161 0.0
C522 C 0.15614 0.79317 0.35996 0.0
C523 C 0.12901 0.74065 0.37844 0.0
N524 N 0.19045 0.74826 0.38578 0.0
C525 C 0.16168 0.72755 0.38925 0.0
O526 O 0.06814 0.81116 0.43328 0.0
C527 C 0.04875 0.78469 0.42502 0.0
O528 O 0.0475 0.77668 0.39246 0.0
H529 H 0.15465 0.81867 0.34798 0.0
H530 H 0.10542 0.72521 0.38111 0.0
C531 C 0.0693 0.90906 0.44868 0.0
C532 C 0.04145 0.92935 0.46116 0.0
C533 C 1.00677 0.91142 0.41244 0.0
C534 C 0.03456 0.89143 0.40004 0.0
N535 N 0.06509 0.89073 0.41844 0.0
N536 N 1.01087 0.92994 0.44261 0.0
H537 H 0.09362 0.90701 0.46323 0.0
C538 C 0.03191 0.77587 0.30119 0.0
O539 O 1.01862 0.80324 0.31729 0.0
O540 O 0.14222 0.86141 0.42945 0.0
H541 H 0.03146 0.87536 0.37681 0.0
H542 H 0.2117 0.79658 0.36902 0.0
H543 H 0.9821 0.91207 0.39841 0.0
H544 H 0.56123 0.05753 0.24628 0.0
H545 H 0.58782 0.94766 0.24658 0.0
H546 H 0.5085 0.04483 0.27831 0.0
H547 H 0.5356 0.93519 0.28031 0.0
H548 H 0.40672 0.0303 0.25953 0.0
H549 H 0.45557 1.0234 0.29895 0.0
H550 H 0.48997 0.93339 0.23945 0.0
H551 H 0.44286 0.94193 0.19865 0.0
C552 C 0.55661 0.03078 0.25453 0.0
C553 C 0.5772 1.00338 0.24135 0.0
C554 C 0.52633 1.02335 0.27351 0.0
C555 C 0.51595 0.98831 0.27843 0.0
C556 C 0.54165 0.96224 0.27438 0.0
C557 C 0.57179 0.96948 0.25483 0.0
C558 C 0.42458 1.00892 0.25473 0.0
C559 C 0.42328 0.98919 0.22342 0.0
C560 C 0.45223 1.00423 0.27835 0.0
C561 C 0.47857 0.97957 0.27111 0.0
C562 C 0.4715 0.95407 0.24523 0.0
C563 C 0.44434 0.95917 0.22122 0.0
H564 H 0.07375 0.47618 0.90337 0.0
H565 H 0.96908 0.44076 0.87793 0.0
H566 H 0.0584 0.53422 0.88387 0.0
H567 H 0.95334 0.49981 0.86044 0.0
H568 H 0.95028 0.5941 0.94846 0.0
H569 H 0.9498 0.54141 0.9135 0.0
H570 H 0.03157 0.58334 0.8474 0.0
H571 H 0.02991 0.63757 0.88032 0.0
C572 C 0.04772 0.48035 0.89282 0.0
C573 C 1.02182 0.45443 0.89537 0.0
C574 C 0.03897 0.51378 0.88121 0.0
C575 C 1.00413 0.52178 0.87234 0.0
C576 C 0.98006 0.49444 0.86844 0.0
C577 C 0.98901 0.46075 0.87939 0.0
C578 C 0.96689 0.59303 0.92537 0.0
C579 C 0.99231 0.61878 0.91911 0.0
C580 C 0.96641 0.56276 0.90501 0.0
C581 C 0.99174 0.55777 0.87865 0.0
C582 C 1.01231 0.58625 0.86811 0.0
C583 C 1.012 0.61697 0.88778 0.0
H584 H 0.44018 0.4873 0.12252 0.0
H585 H 0.46099 0.59186 0.16026 0.0
H586 H 0.4883 0.49228 0.08176 0.0
H587 H 0.51027 0.59584 0.1215 0.0
H588 H 0.61343 0.58377 0.12696 0.0
H589 H 0.56086 0.58963 0.09229 0.0
H590 H 0.54069 0.47906 0.10552 0.0
H591 H 0.59406 0.473 0.13833 0.0
C592 C 0.45417 0.51183 0.12165 0.0
C593 C 0.4485 0.53822 0.14687 0.0
C594 C 0.48216 0.51461 0.09815 0.0
C595 C 0.50586 0.5426 0.10134 0.0
C596 C 0.49445 0.57248 0.11982 0.0
C597 C 0.46612 0.57012 0.14272 0.0
C598 C 0.59875 0.5603 0.1212 0.0
C599 C 0.60656 0.52823 0.1377 0.0
C600 C 0.56814 0.56377 0.10134 0.0
C601 C 0.54435 0.53573 0.0993 0.0
C602 C 0.55681 0.50212 0.10829 0.0
C603 C 0.5876 0.4985 0.12763 0.0
H604 H 0.48691 0.4757 0.98389 0.0
H605 H 0.59736 0.45303 0.99598 0.0
H606 H 0.49613 0.53249 1.00955 0.0
H607 H 0.60594 0.5092 1.02325 0.0
H608 H 0.51144 0.63711 1.00164 0.0
H609 H 0.51603 0.58502 1.03766 0.0
H610 H 0.60717 0.55311 0.97846 0.0
H611 H 0.60163 0.60379 0.94155 0.0
C612 C 0.51289 0.48208 0.99337 0.0
C613 C 0.54168 0.46073 0.98523 0.0
C614 C 0.51819 0.51472 1.00869 0.0
C615 C 0.55242 0.52631 1.01591 0.0
C616 C 0.57958 0.50157 1.01603 0.0
C617 C 0.57447 0.46908 1.00017 0.0
C618 C 0.53263 0.61915 0.9963 0.0
C619 C 0.55403 0.62275 0.96626 0.0
C620 C 0.53574 0.58961 1.01772 0.0
C621 C 0.56057 0.56374 1.00963 0.0
C622 C 0.58688 0.57179 0.98496 0.0
C623 C 0.58346 0.60096 0.96325 0.0
H624 H 0.96516 0.46306 0.73334 0.0
H625 H 0.94379 0.57158 0.75649 0.0
H626 H 1.01309 0.46379 0.77427 0.0
H627 H 0.99099 0.57212 0.79818 0.0
H628 H 0.09221 0.58346 0.73643 0.0
H629 H 0.04433 0.58259 0.77716 0.0
H630 H 0.06489 0.47389 0.80021 0.0
H631 H 0.11174 0.47406 0.75753 0.0
C632 C 0.96992 0.48681 0.74812 0.0
C633 C 0.95255 0.51795 0.73936 0.0
C634 C 0.99756 0.48735 0.77213 0.0
C635 C 1.00891 0.51946 0.78648 0.0
C636 C 0.98518 0.54767 0.78523 0.0
C637 C 0.95763 0.54731 0.76106 0.0
C638 C 0.08707 0.55943 0.75068 0.0
C639 C 0.10363 0.52812 0.74108 0.0
C640 C 0.05951 0.55886 0.77468 0.0
C641 C 0.04749 0.52658 0.78808 0.0
C642 C 0.07107 0.49827 0.78708 0.0
C643 C 0.0983 0.49845 0.76248 0.0
H644 H 0.45525 0.9533 0.38885 0.0
H645 H 0.56304 0.98727 0.38134 0.0
H646 H 0.43601 1.00907 0.36676 0.0
H647 H 0.54352 0.04362 0.36091 0.0
H648 H 0.52011 0.14547 0.37861 0.0
H649 H 0.51508 0.09455 0.3406 0.0
H650 H 0.43605 0.05222 0.41007 0.0
H651 H 0.44137 0.10215 0.44771 0.0
C652 C 0.47518 0.97191 0.38143 0.0
C653 C 0.51083 0.96657 0.38947 0.0
C654 C 0.4639 1.00424 0.36872 0.0
C655 C 0.48791 0.03177 0.36479 0.0
C656 C 0.52388 1.02365 0.36502 0.0
C657 C 0.53523 0.9912 0.37728 0.0
C658 C 0.5013 0.12547 0.38549 0.0
C659 C 0.48343 0.12621 0.41795 0.0
C660 C 0.49801 0.09654 0.36328 0.0
C661 C 0.47707 0.06809 0.37354 0.0
C662 C 0.4535 0.07288 0.40166 0.0
C663 C 0.4568 0.10166 0.42379 0.0
H664 H 0.95036 0.07583 0.63303 0.0
H665 H 0.96824 0.96733 0.659 0.0
H666 H 1.00311 0.07598 0.59716 0.0
H667 H 1.02134 0.96771 0.62596 0.0
H668 H 0.11324 0.0847 0.64416 0.0
H669 H 0.05679 0.08354 0.61777 0.0
H670 H 0.06966 0.97358 0.59395 0.0
H671 H 0.12641 0.97445 0.62324 0.0
C672 C 0.96525 0.05185 0.63043 0.0
C673 C 0.95616 1.02205 0.64989 0.0
C674 C 0.99567 0.05189 0.61011 0.0
C675 C 1.01834 1.02277 0.61078 0.0
C676 C 1.00569 0.99127 0.62532 0.0
C677 C 0.97488 0.99095 0.64471 0.0
C678 C 0.10488 0.06041 0.63221 0.0
C679 C 0.12334 0.0291 0.63771 0.0
C680 C 0.07191 0.05967 0.61672 0.0
C681 C 0.05692 0.02753 0.60677 0.0
C682 C 0.07913 0.99817 0.60432 0.0
C683 C 0.11184 0.99865 0.62075 0.0
H684 H 0.99399 0.94375 0.51254 0.0
H685 H 0.09813 0.96938 0.47718 0.0
H686 H 0.99071 0.99895 0.54368 0.0
H687 H 0.09462 1.02483 0.50608 0.0
H688 H 0.96577 0.09987 0.48371 0.0
H689 H 0.97548 0.04812 0.5173 0.0
H690 H 0.08442 0.07643 0.53101 0.0
H691 H 0.07468 0.12806 0.49458 0.0
C692 C 1.01662 0.96082 0.51242 0.0
C693 C 0.04555 0.95331 0.4911 0.0
C694 C 1.01471 0.99273 0.52996 0.0
C695 C 0.04099 1.01808 0.52484 0.0
C696 C 0.07289 1.00712 0.50969 0.0
C697 C 0.0751 0.9749 0.49284 0.0
C698 C 0.9916 0.09591 0.49484 0.0
C699 C 1.01997 0.1169 0.48478 0.0
C700 C 0.99738 0.06578 0.51455 0.0
C701 C 0.03172 0.05605 0.52419 0.0
C702 C 0.05822 0.08151 0.52136 0.0
C703 C 0.05267 0.11128 0.50071 0.0
H704 H 0.39957 0.17205 0.23876 0.0
H705 H 0.45381 0.18752 0.14018 0.0
H706 H 0.39575 0.23508 0.24654 0.0
H707 H 0.44833 0.25088 0.14714 0.0
H708 H 0.43387 0.36891 0.18908 0.0
H709 H 0.45694 0.30882 0.184 0.0
H710 H 0.35392 0.2682 0.20675 0.0
H711 H 0.33137 0.32724 0.21201 0.0
C712 C 0.41161 0.18893 0.21928 0.0
C713 C 0.4258 0.17501 0.18827 0.0
C714 C 0.40922 0.22498 0.22359 0.0
C715 C 0.42051 0.24766 0.19673 0.0
C716 C 0.43904 0.23391 0.16801 0.0
C717 C 0.44202 0.19764 0.164 0.0
C718 C 0.41621 0.34696 0.19208 0.0
C719 C 0.38097 0.35243 0.20114 0.0
C720 C 0.42942 0.31277 0.18956 0.0
C721 C 0.40742 0.28405 0.19621 0.0
C722 C 0.37174 0.28988 0.20276 0.0
C723 C 0.35873 0.32364 0.20533 0.0
H724 H 0.19593 0.69116 0.87705 0.0
H725 H 0.17527 0.63362 0.97304 0.0
H726 H 0.25856 0.67955 0.88429 0.0
H727 H 0.23778 0.62338 0.98069 0.0
H728 H 0.34754 0.68868 0.9984 0.0
H729 H 0.28478 0.678 0.99077 0.0
H730 H 0.30521 0.62436 0.893 0.0
H731 H 0.3678 0.63366 0.90101 0.0
C732 C 0.20459 0.67531 0.8991 0.0
C733 C 0.18066 0.66367 0.92459 0.0
C734 C 0.24035 0.66869 0.90324 0.0
C735 C 0.2527 0.65089 0.93322 0.0
C736 C 0.22873 0.63725 0.95746 0.0
C737 C 0.19296 0.6431 0.95291 0.0
C738 C 0.33875 0.67358 0.97594 0.0
C739 C 0.36261 0.66229 0.95026 0.0
C740 C 0.30292 0.66749 0.97158 0.0
C741 C 0.29047 0.65063 0.94117 0.0
C742 C 0.31435 0.63745 0.9166 0.0
C743 C 0.35016 0.64275 0.92136 0.0
H744 H 0.75717 0.86436 0.21613 0.0
H745 H 0.6508 0.85995 0.17698 0.0
H746 H 0.76119 0.80072 0.21176 0.0
H747 H 0.6553 0.79717 0.17149 0.0
H748 H 0.76937 0.69369 0.15864 0.0
H749 H 0.76425 0.75717 0.16428 0.0
H750 H 0.65943 0.74495 0.20528 0.0
H751 H 0.66392 0.68231 0.19852 0.0
C752 C 0.73451 0.84982 0.20722 0.0
C753 C 0.70374 0.86716 0.19681 0.0
C754 C 0.737 0.81351 0.20418 0.0
C755 C 0.70872 0.79408 0.19081 0.0
C756 C 0.67746 0.81135 0.18209 0.0
C757 C 0.6749 0.84743 0.1853 0.0
C758 C 0.745 0.70471 0.16808 0.0
C759 C 0.7171 0.68301 0.17812 0.0
C760 C 0.74227 0.74094 0.17184 0.0
C761 C 0.7116 0.75593 0.18564 0.0
C762 C 0.6833 0.73424 0.19432 0.0
C763 C 0.68591 0.69824 0.19036 0.0
H764 H 0.69629 0.44806 0.88663 0.0
H765 H 0.69947 0.3703 0.96948 0.0
H766 H 0.76028 0.44763 0.88399 0.0
H767 H 0.76322 0.37094 0.96759 0.0
H768 H 0.8765 0.39801 0.97303 0.0
H769 H 0.81534 0.41461 0.97659 0.0
H770 H 0.80278 0.3941 0.86545 0.0
H771 H 0.86459 0.37682 0.86164 0.0
C772 C 0.71062 0.43157 0.90488 0.0
C773 C 0.69296 0.40881 0.92795 0.0
C774 C 0.74714 0.43127 0.90318 0.0
C775 C 0.76639 0.4091 0.92539 0.0
C776 C 0.74882 0.38835 0.95027 0.0
C777 C 0.7124 0.38801 0.95138 0.0
C778 C 0.86097 0.39732 0.94912 0.0
C779 C 0.8752 0.38532 0.91711 0.0
C780 C 0.82599 0.40701 0.95127 0.0
C781 C 0.80453 0.4053 0.92141 0.0
C782 C 0.81908 0.39573 0.88879 0.0
C783 C 0.85427 0.38569 0.88665 0.0
H784 H 0.90856 0.68666 0.67776 0.0
H785 H 0.804 0.69077 0.72127 0.0
H786 H 0.90839 0.74979 0.67113 0.0
H787 H 0.80424 0.7543 0.71516 0.0
H788 H 0.90406 0.86728 0.69895 0.0
H789 H 0.90743 0.80418 0.705 0.0
H790 H 0.80256 0.79466 0.66323 0.0
H791 H 0.79877 0.85814 0.65774 0.0
C792 C 0.88584 0.70109 0.68671 0.0
C793 C 0.8561 0.68371 0.69968 0.0
C794 C 0.88576 0.73726 0.68279 0.0
C795 C 0.85603 0.75674 0.69194 0.0
C796 C 0.82717 0.73968 0.7071 0.0
C797 C 0.82725 0.70342 0.71108 0.0
C798 C 0.88192 0.85176 0.69038 0.0
C799 C 0.85094 0.8677 0.67829 0.0
C800 C 0.88388 0.81561 0.69394 0.0
C801 C 0.85499 0.79471 0.6853 0.0
C802 C 0.82489 0.81038 0.6709 0.0
C803 C 0.82293 0.84662 0.66726 0.0
H804 H 0.85358 0.10642 0.37911 0.0
H805 H 0.84741 0.1735 0.47048 0.0
H806 H 0.78967 0.10213 0.37793 0.0
H807 H 0.78371 0.16751 0.47028 0.0
H808 H 0.67121 0.1297 0.4706 0.0
H809 H 0.73272 0.11291 0.4703 0.0
H810 H 0.74633 0.16421 0.36994 0.0
H811 H 0.68477 0.18227 0.37048 0.0
C812 C 0.8387 0.11933 0.39957 0.0
C813 C 0.85535 0.14083 0.42456 0.0
C814 C 0.80222 0.11681 0.39882 0.0
C815 C 0.78214 0.13457 0.42394 0.0
C816 C 0.79889 0.15348 0.45076 0.0
C817 C 0.83522 0.15691 0.45087 0.0
C818 C 0.68692 0.13661 0.44788 0.0
C819 C 0.67324 0.15775 0.42068 0.0
C820 C 0.7221 0.12693 0.44784 0.0
C821 C 0.74392 0.13737 0.42017 0.0
C822 C 0.7297 0.15571 0.39141 0.0
C823 C 0.6946 0.16611 0.39179 0.0
H824 H 0.10759 0.17893 0.71385 0.0
H825 H 0.20813 0.19325 0.66345 0.0
H826 H 0.09632 0.24184 0.70869 0.0
H827 H 0.19678 0.25568 0.65877 0.0
H828 H 0.18969 0.3621 0.71027 0.0
H829 H 0.19029 0.29868 0.71463 0.0
H830 H 0.09323 0.29337 0.65653 0.0
H831 H 0.09254 0.35732 0.6516 0.0
C832 C 0.12691 0.1953 0.70104 0.0
C833 C 0.15893 0.18126 0.68939 0.0
C834 C 0.12041 0.23117 0.69816 0.0
C835 C 0.14598 0.25328 0.6839 0.0
C836 C 0.17695 0.23898 0.67033 0.0
C837 C 0.18333 0.20327 0.67289 0.0
C838 C 0.16809 0.3476 0.69892 0.0
C839 C 0.14129 0.36465 0.6802 0.0
C840 C 0.16856 0.31134 0.70132 0.0
C841 C 0.14213 0.29148 0.68535 0.0
C842 C 0.1139 0.30839 0.66889 0.0
C843 C 0.11353 0.34486 0.6662 0.0
H844 H 0.20065 0.88936 0.42634 0.0
H845 H 0.2016 0.78256 0.46418 0.0
H846 H 0.26372 0.88841 0.42178 0.0
H847 H 0.26547 0.78217 0.46102 0.0
H848 H 0.37769 0.88764 0.45176 0.0
H849 H 0.31473 0.88762 0.45684 0.0
H850 H 0.3112 0.78198 0.41649 0.0
H851 H 0.37509 0.7814 0.41279 0.0
C852 C 0.21439 0.86591 0.43454 0.0
C853 C 0.19616 0.836 0.44564 0.0
C854 C 0.25063 0.86538 0.4319 0.0
C855 C 0.26954 0.83515 0.44085 0.0
C856 C 0.25148 0.80563 0.45332 0.0
C857 C 0.21501 0.80603 0.45565 0.0
C858 C 0.3636 0.86451 0.44341 0.0
C859 C 0.38136 0.8345 0.43176 0.0
C860 C 0.32741 0.86453 0.44636 0.0
C861 C 0.30801 0.83479 0.43716 0.0
C862 C 0.32558 0.80511 0.4243 0.0
C863 C 0.36204 0.80495 0.42166 0.0
H864 H 0.27717 0.97576 0.18372 0.0
H865 H 0.26046 0.06673 0.24782 0.0
H866 H 0.2403 0.94108 0.22333 0.0
H867 H 0.22223 0.03209 0.28715 0.0
H868 H 0.12192 0.96229 0.32668 0.0
H869 H 0.16405 1.00002 0.29575 0.0
H870 H 0.23165 0.91149 0.28057 0.0
H871 H 0.19011 0.8744 0.31255 0.0
C872 C 0.26591 0.98876 0.20636 0.0
C873 C 0.27321 1.0249 0.21166 0.0
C874 C 0.24429 0.96837 0.22966 0.0
C875 C 0.22719 0.98264 0.2597 0.0
C876 C 0.23412 1.01901 0.26491 0.0
C877 C 0.2567 0.03928 0.24204 0.0
C878 C 0.14676 0.95097 0.31903 0.0
C879 C 0.15234 0.91456 0.32532 0.0
C880 C 0.17111 0.97293 0.30004 0.0
C881 C 0.20239 0.95988 0.28433 0.0
C882 C 0.20849 0.92376 0.29135 0.0
C883 C 0.1846 0.90216 0.31111 0.0
H884 H 1.02332 0.75256 0.8766 0.0
H885 H 1.02108 0.83292 0.9556 0.0
H886 H 0.98788 0.79033 0.83708 0.0
H887 H 0.98719 0.87064 0.91625 0.0
H888 H 0.94761 0.94803 0.8323 0.0
H889 H 0.98668 0.90788 0.86343 0.0
H890 H 0.92743 0.82064 0.82447 0.0
H891 H 0.88737 0.86147 0.79404 0.0
C892 C 1.01591 0.7783 0.88577 0.0
C893 C 1.02618 0.78876 0.92033 0.0
C894 C 0.99499 0.80034 0.86278 0.0
C895 C 0.98381 0.83476 0.87229 0.0
C896 C 0.99474 0.84511 0.90658 0.0
C897 C 1.01458 0.8229 0.92973 0.0
C898 C 0.9436 0.92027 0.8284 0.0
C899 C 0.91429 0.9093 0.8079 0.0
C900 C 0.96595 0.89669 0.84758 0.0
C901 C 0.9612 0.85981 0.84777 0.0
C902 C 0.93321 0.84831 0.82566 0.0
C903 C 0.91022 0.8722 0.80703 0.0
H904 H 0.92596 0.10654 0.30499 0.0
H905 H 0.84075 0.17694 0.32423 0.0
H906 H 0.88683 0.06766 0.27251 0.0
H907 H 0.80091 0.13766 0.2921 0.0
H908 H 0.73007 0.04826 0.23795 0.0
H909 H 0.76584 0.0842 0.27844 0.0
H910 H 0.85771 0.05972 0.21782 0.0
H911 H 0.8223 1.02478 0.17765 0.0
C912 C 0.89837 0.1131 0.30431 0.0
C913 C 0.88734 0.145 0.3201 0.0
C914 C 0.87556 0.09082 0.28427 0.0
C915 C 0.83959 0.09857 0.27816 0.0
C916 C 0.82785 0.12951 0.29548 0.0
C917 C 0.85101 0.15217 0.31507 0.0
C918 C 0.7579 0.05033 0.23305 0.0
C919 C 0.77232 0.03262 0.20341 0.0
C920 C 0.77886 0.07146 0.25664 0.0
C921 C 0.81584 0.07572 0.25275 0.0
C922 C 0.82999 0.05766 0.22328 0.0
C923 C 0.8091 0.03728 0.1995 0.0
H924 H 0.19392 0.19025 0.80946 0.0
H925 H 0.11123 0.11544 0.79826 0.0
H926 H 0.15473 0.22889 0.84245 0.0
H927 H 0.07119 0.15485 0.83 0.0
H928 H 0.99995 0.24929 0.8785 0.0
H929 H 0.03579 0.21361 0.83781 0.0
H930 H 0.12636 0.2319 0.90257 0.0
H931 H 0.09048 0.26593 0.94366 0.0
C932 C 0.16671 0.18262 0.8117 0.0
C933 C 0.15652 0.14936 0.79816 0.0
C934 C 0.14397 0.20485 0.83203 0.0
C935 C 0.10869 0.19604 0.84016 0.0
C936 C 0.09756 0.16386 0.82488 0.0
C937 C 0.12078 0.14112 0.8054 0.0
C938 C 0.02753 0.24608 0.88424 0.0
C939 C 0.04143 0.2617 0.91535 0.0
C940 C 0.04849 0.22502 0.86058 0.0
C941 C 0.08509 0.219 0.86566 0.0
C942 C 0.09889 0.23529 0.89639 0.0
C943 C 0.07782 0.25525 0.92051 0.0
H944 H 0.11468 0.61659 0.0831 0.0
H945 H 0.20307 0.66826 1.03709 0.0
H946 H 0.1538 0.57701 0.11493 0.0
H947 H 0.24274 0.62775 0.06825 0.0
H948 H 0.30791 0.53272 0.12434 0.0
H949 H 0.27053 0.56779 0.08412 0.0
H950 H 0.1929 0.57658 0.16559 0.0
H951 H 0.23016 0.54297 0.20545 0.0
C952 C 0.14245 0.61844 0.07768 0.0
C953 C 0.15429 0.64554 1.05481 0.0
C954 C 0.16551 0.59588 0.09725 0.0
C955 C 0.20264 0.59825 0.09551 0.0
C956 C 0.21482 0.62387 0.07107 0.0
C957 C 0.19154 0.64708 1.05205 0.0
C958 C 0.28288 0.54193 0.1339 0.0
C959 C 0.27305 0.53403 0.16926 0.0
C960 C 0.26105 0.56259 0.11048 0.0
C961 C 0.22745 0.57585 0.12042 0.0
C962 C 0.21774 0.56733 0.15555 0.0
C963 C 0.23975 0.54769 0.17902 0.0
H964 H 0.58959 0.9488 1.04365 0.0
H965 H 0.65051 0.86386 0.08499 0.0
H966 H 0.55237 0.90758 1.0119 0.0
H967 H 0.61222 0.82193 1.05394 0.0
H968 H 0.51874 0.75153 1.0004 0.0
H969 H 0.55255 0.79034 1.04014 0.0
H970 H 0.55378 0.86963 0.95968 0.0
H971 H 0.52151 0.83086 0.92012 0.0
C972 C 0.59411 0.92116 1.04804 0.0
C973 C 0.62298 0.91102 0.06968 0.0
C974 C 0.57284 0.89695 1.02853 0.0
C975 C 0.57829 0.86016 1.02905 0.0
C976 C 0.60591 0.84947 1.05216 0.0
C977 C 0.62785 0.87401 0.07114 0.0
C978 C 0.52591 0.77727 0.99098 0.0
C979 C 0.51627 0.78709 0.95599 0.0
C980 C 0.5459 0.79992 1.01411 0.0
C981 C 0.55675 0.8344 1.00433 0.0
C982 C 0.54645 0.84411 0.96959 0.0
C983 C 0.52755 0.82128 0.94632 0.0
H984 H 0.75905 0.50433 0.13167 0.0
H985 H 0.84906 0.51982 0.19795 0.0
H986 H 0.79514 0.46887 0.09106 0.0
H987 H 0.88486 0.48545 0.15761 0.0
H988 H 0.9553 0.44056 0.07106 0.0
H989 H 0.91629 0.47921 0.10383 0.0
H990 H 0.82873 0.4143 0.07603 0.0
H991 H 0.86845 0.37511 1.04362 0.0
C992 C 0.78648 0.50063 0.13788 0.0
C993 C 0.80014 0.51598 0.16924 0.0
C994 C 0.80763 0.47975 0.1142 0.0
C995 C 0.84415 0.47342 0.11967 0.0
C996 C 0.85757 0.48915 0.15087 0.0
C997 C 0.83643 0.50923 0.17473 0.0
C998 C 0.92748 0.43518 0.06992 0.0
C999 C 0.91607 0.40464 1.05174 0.0
C1000 C 0.90465 0.45728 0.09018 0.0
C1001 C 0.86816 0.45086 0.09412 0.0
C1002 C 0.85608 0.42145 0.07441 0.0
C1003 C 0.87925 0.3989 1.05458 0.0
H1004 H 0.38944 0.2062 0.09054 0.0
H1005 H 0.44496 0.1159 1.05384 0.0
H1006 H 0.43046 0.2443 1.05841 0.0
H1007 H 0.48504 0.15346 1.02081 0.0
H1008 H 0.52022 0.22524 0.92618 0.0
H1009 H 0.48596 0.18956 0.96699 0.0
H1010 H 0.49114 0.27146 1.04434 0.0
H1011 H 0.52688 0.30708 1.0034 0.0
C1012 C 0.4115 0.19408 0.07744 0.0
C1013 C 0.41403 0.15685 0.07769 0.0
C1014 C 0.43503 0.21637 1.05787 0.0
C1015 C 0.46194 0.20301 1.03565 0.0
C1016 C 0.46519 0.16595 1.03676 0.0
C1017 C 0.44232 0.14392 1.05703 0.0
C1018 C 0.51456 0.23603 0.95192 0.0
C1019 C 0.52742 0.26993 0.96041 0.0
C1020 C 0.49456 0.21502 0.97592 0.0
C1021 C 0.48483 0.22651 1.01015 0.0
C1022 C 0.49729 0.26068 1.01873 0.0
C1023 C 0.51833 0.28146 0.9949 0.0
H1024 H 0.61624 0.45019 0.80513 0.0
H1025 H 0.70119 0.38201 0.83255 0.0
H1026 H 0.65627 0.48739 0.77177 0.0
H1027 H 0.74198 0.41991 0.79984 0.0
H1028 H 0.81313 0.50962 0.74421 0.0
H1029 H 0.77632 0.47565 0.78559 0.0
H1030 H 0.68786 0.48952 0.71666 0.0
H1031 H 0.7244 0.5222 0.67547 0.0
C1032 C 0.64388 0.44392 0.80614 0.0
C1033 C 0.65451 0.41311 0.8244 0.0
C1034 C 0.66726 0.46518 0.78563 0.0
C1035 C 0.7035 0.45754 0.78166 0.0
C1036 C 0.71484 0.42787 0.80149 0.0
C1037 C 0.69109 0.40609 0.82143 0.0
C1038 C 0.78584 0.50563 0.73765 0.0
C1039 C 0.77272 0.51958 0.70536 0.0
C1040 C 0.7643 0.48564 0.76175 0.0
C1041 C 0.72793 0.47906 0.75576 0.0
C1042 C 0.71503 0.49352 0.72369 0.0
C1043 C 0.73658 0.51257 0.6994 0.0
H1044 H 0.44335 0.44523 0.33207 0.0
H1045 H 0.38868 0.35675 0.28992 0.0
H1046 H 0.48264 0.40621 0.36442 0.0
H1047 H 0.42898 0.31722 0.32143 0.0
H1048 H 0.52436 0.25213 0.37686 0.0
H1049 H 0.48952 0.28928 0.33627 0.0
H1050 H 0.48222 0.3682 0.41654 0.0
H1051 H 0.5156 0.33107 0.45688 0.0
C1052 C 0.44073 0.41738 0.32761 0.0
C1053 C 0.41291 0.40547 0.30564 0.0
C1054 C 0.46315 0.39445 0.34744 0.0
C1055 C 0.45991 0.35743 0.34683 0.0
C1056 C 0.43352 0.34509 0.32329 0.0
C1057 C 0.41044 0.36827 0.30402 0.0
C1058 C 0.51561 0.27745 0.38604 0.0
C1059 C 0.52383 0.28772 0.42117 0.0
C1060 C 0.49506 0.2991 0.36243 0.0
C1061 C 0.48225 0.33292 0.37197 0.0
C1062 C 0.49114 0.34313 0.40687 0.0
C1063 C 0.51065 0.32126 0.43057 0.0
H1064 H 0.31855 0.54155 0.66468 0.0
H1065 H 0.24142 0.52875 0.74601 0.0
H1066 H 0.35584 0.5744 0.70527 0.0
H1067 H 0.27857 0.56314 0.78676 0.0
H1068 H 0.34561 0.66383 0.83468 0.0
H1069 H 0.30588 0.62432 0.80243 0.0
H1070 H 0.39482 0.57212 0.75745 0.0
H1071 H 0.43398 0.61047 0.79054 0.0
C1072 C 0.30912 0.54557 0.69126 0.0
C1073 C 0.27603 0.53141 0.70095 0.0
C1074 C 0.33108 0.56477 0.71513 0.0
C1075 C 0.32139 0.57237 0.75049 0.0
C1076 C 0.28799 0.55865 0.76026 0.0
C1077 C 0.26632 0.53839 0.73651 0.0
C1078 C 0.35706 0.64252 0.81988 0.0
C1079 C 0.39431 0.64014 0.81799 0.0
C1080 C 0.33378 0.61991 0.80022 0.0
C1081 C 0.34603 0.5942 0.77593 0.0
C1082 C 0.38311 0.59108 0.775 0.0
C1083 C 0.40613 0.61294 0.79526 0.0
H1084 H 0.68207 0.68456 0.29481 0.0
H1085 H 0.61214 0.60097 0.32112 0.0
H1086 H 0.64492 0.72577 0.32772 0.0
H1087 H 0.5753 0.64147 0.35412 0.0
H1088 H 0.53516 0.70961 0.44742 0.0
H1089 H 0.56808 0.67245 0.40714 0.0
H1090 H 0.59407 0.76242 0.34423 0.0
H1091 H 0.56029 0.79992 0.38488 0.0
C1092 C 0.65768 0.67488 0.30559 0.0
C1093 C 0.65011 0.63847 0.30232 0.0
C1094 C 0.63631 0.6989 0.32574 0.0
C1095 C 0.60618 0.68818 0.34523 0.0
C1096 C 0.5979 0.65214 0.34076 0.0
C1097 C 0.61894 0.62846 0.32031 0.0
C1098 C 0.54759 0.72203 0.42505 0.0
C1099 C 0.54399 0.75887 0.42063 0.0
C1100 C 0.56681 0.70009 0.40117 0.0
C1101 C 0.58468 0.71309 0.37093 0.0
C1102 C 0.58147 0.75013 0.36655 0.0
C1103 C 0.56156 0.77215 0.39029 0.0
H1104 H 0.80154 0.03661 0.63462 0.0
H1105 H 0.71744 0.03721 0.70975 0.0
H1106 H 0.76525 0.07174 0.59366 0.0
H1107 H 0.68135 0.07125 0.66915 0.0
H1108 H 0.60754 0.11465 0.58463 0.0
H1109 H 0.64571 0.0751 0.61762 0.0
H1110 H 0.73595 0.1283 0.57648 0.0
H1111 H 0.69718 0.16842 0.54381 0.0
C1112 C 0.77535 0.0438 0.64272 0.0
C1113 C 0.76338 0.0331 0.67661 0.0
C1114 C 0.75413 0.06448 0.61884 0.0
C1115 C 0.71914 0.07515 0.6268 0.0
C1116 C 0.70735 0.064 0.66054 0.0
C1117 C 0.72866 0.04415 0.6845 0.0
C1118 C 0.63551 0.11704 0.58067 0.0
C1119 C 0.64803 0.14466 0.55884 0.0
C1120 C 0.65797 0.09453 0.60097 0.0
C1121 C 0.6951 0.09762 0.60121 0.0
C1122 C 0.70801 0.12384 0.57782 0.0
C1123 C 0.68531 0.14685 0.55791 0.0
H1124 H 0.08512 0.43747 0.56611 0.0
H1125 H 0.16705 0.36088 0.56375 0.0
H1126 H 0.04577 0.39663 0.53544 0.0
H1127 H 0.12848 0.32051 0.53209 0.0
H1128 H 0.06767 0.27464 0.43327 0.0
H1129 H 0.10263 0.311 0.47309 0.0
H1130 H 1.00918 0.34076 0.52853 0.0
H1131 H 0.97412 0.30305 0.48905 0.0
C1132 C 0.09454 0.41123 0.56115 0.0
C1133 C 0.1298 0.40294 0.57048 0.0
C1134 C 0.07175 0.38756 0.54233 0.0
C1135 C 0.08292 0.35421 0.52993 0.0
C1136 C 0.11773 0.34543 0.54019 0.0
C1137 C 0.14007 0.36872 0.55975 0.0
C1138 C 0.05415 0.2884 0.45413 0.0
C1139 C 1.01719 0.28452 0.45712 0.0
C1140 C 0.07468 0.30971 0.47754 0.0
C1141 C 0.05984 0.32986 0.50527 0.0
C1142 C 1.02269 0.32637 0.50812 0.0
C1143 C 1.00217 0.30411 0.48521 0.0
H1144 H 0.27384 1.02521 0.62366 0.0
H1145 H 0.3502 1.01368 0.70616 0.0
H1146 H 0.31175 0.99081 0.58367 0.0
H1147 H 0.38843 0.98102 0.66614 0.0
H1148 H 0.46809 0.94846 0.5796 0.0
H1149 H 0.42754 0.9856 0.61232 0.0
H1150 H 0.34077 0.92756 0.57051 0.0
H1151 H 0.38202 0.88902 0.53877 0.0
C1152 C 0.29876 1.0159 0.63358 0.0
C1153 C 0.30796 1.02328 0.66927 0.0
C1154 C 0.32088 0.99559 0.61025 0.0
C1155 C 0.35437 0.98224 0.62048 0.0
C1156 C 0.3636 0.99027 0.65594 0.0
C1157 C 0.34112 1.00941 0.67946 0.0
C1158 C 0.44033 0.9443 0.57546 0.0
C1159 C 0.42971 0.91577 0.55372 0.0
C1160 C 0.41654 0.96555 0.59553 0.0
C1161 C 0.37967 0.96061 0.59534 0.0
C1162 C 0.36844 0.93345 0.57207 0.0
C1163 C 0.39257 0.91139 0.55265 0.0
H1164 H 1.0231 0.79931 0.49467 0.0
H1165 H 1.02585 0.71556 0.41936 0.0
H1166 H 0.98927 0.76174 0.53542 0.0
H1167 H 0.99341 0.67801 0.46005 0.0
H1168 H 0.95685 0.60276 0.54744 0.0
H1169 H 0.99382 0.64304 0.51418 0.0
H1170 H 0.93133 0.72945 0.54986 0.0
H1171 H 0.89342 0.68843 0.58245 0.0
C1172 C 1.01696 0.77291 0.48651 0.0
C1173 C 0.02816 0.76147 0.45259 0.0
C1174 C 0.99704 0.75095 0.51027 0.0
C1175 C 0.9878 0.71562 0.50229 0.0
C1176 C 0.99951 0.70431 0.46857 0.0
C1177 C 1.01844 0.72642 0.44461 0.0
C1178 C 0.95171 0.63049 0.55016 0.0
C1179 C 0.92219 0.64116 0.57046 0.0
C1180 C 0.9728 0.65407 0.52971 0.0
C1181 C 0.96646 0.69069 0.52793 0.0
C1182 C 0.93827 0.702 0.54982 0.0
C1183 C 0.91657 0.67807 0.56973 0.0
H1184 H 0.20214 0.05312 0.87878 0.0
H1185 H 0.28985 0.11373 0.84172 0.0
H1186 H 0.2274 0.05194 0.93815 0.0
H1187 H 0.3164 0.11047 0.90069 0.0
H1188 H 0.26938 0.12316 1.03818 0.0
H1189 H 0.24256 0.11142 0.9803 0.0
H1190 H 0.3358 0.05645 0.94802 0.0
H1191 H 0.36168 0.06656 1.00616 0.0
C1192 C 0.22768 0.06473 0.88304 0.0
C1193 C 0.24503 0.08197 0.85536 0.0
C1194 C 0.24177 0.06443 0.917 0.0
C1195 C 0.27379 0.08088 0.92366 0.0
C1196 C 0.29187 0.0971 0.89582 0.0
C1197 C 0.27712 0.09843 0.86205 0.0
C1198 C 0.28327 0.10718 1.01923 0.0
C1199 C 0.31694 0.09464 1.02681 0.0
C1200 C 0.26823 0.10081 0.98615 0.0
C1201 C 0.28737 0.08318 0.95996 0.0
C1202 C 0.32069 0.07009 0.96787 0.0
C1203 C 0.3352 0.07553 1.00113 0.0
H1204 H 0.0653 0.70411 0.12713 0.0
H1205 H 0.12723 0.79137 0.09108 0.0
H1206 H 0.05392 0.73445 0.18277 0.0
H1207 H 0.11471 0.8224 0.14656 0.0
H1208 H 0.12423 0.79176 0.28201 0.0
H1209 H 0.12137 0.76196 0.22485 0.0
H1210 H 0.04155 0.83415 0.19014 0.0
H1211 H 0.0437 0.86343 0.24786 0.0
C1212 C 0.07535 0.73036 0.13075 0.0
C1213 C 0.09628 0.74603 0.10478 0.0
C1214 C 0.06892 0.74751 0.16242 0.0
C1215 C 0.08313 0.78066 0.16833 0.0
C1216 C 0.10305 0.797 0.14194 0.0
C1217 C 0.11008 0.77948 0.1104 0.0
C1218 C 0.10517 0.80028 0.26262 0.0
C1219 C 0.08314 0.82878 0.2695 0.0
C1220 C 0.10376 0.78358 0.23003 0.0
C1221 C 0.08123 0.79601 0.20361 0.0
C1222 C 0.05891 0.82424 0.21046 0.0
C1223 C 0.05995 0.84064 0.24332 0.0
H1224 H 0.78206 0.92223 0.84968 0.0
H1225 H 0.84481 1.01132 0.87893 0.0
H1226 H 0.74951 0.92726 0.90525 0.0
H1227 H 0.81169 1.01692 0.9342 0.0
H1228 H 0.70022 1.01726 1.0049 0.0
H1229 H 0.73443 1.02164 0.95017 0.0
H1230 H 0.78432 0.92316 0.97435 0.0
H1231 H 0.75083 0.91928 1.02941 0.0
C1232 C 0.78796 0.94352 0.86755 0.0
C1233 C 0.81501 0.96701 0.85999 0.0
C1234 C 0.7697 0.94623 0.89923 0.0
C1235 C 0.77839 0.97242 0.92361 0.0
C1236 C 0.80462 0.9967 0.91552 0.0
C1237 C 0.82327 0.99362 0.88405 0.0
C1238 C 0.71946 0.99729 0.99894 0.0
C1239 C 0.72392 0.96845 1.02146 0.0
C1240 C 0.7387 0.99968 0.96775 0.0
C1241 C 0.76161 0.97263 0.95838 0.0
C1242 C 0.76669 0.94425 0.98134 0.0
C1243 C 0.74793 0.94218 1.01277 0.0
H1244 H 0.94336 0.26736 0.08964 0.0
H1245 H 1.01591 0.34642 0.12455 0.0
H1246 H 0.94782 0.23849 0.14742 0.0
H1247 H 1.0194 0.31829 0.18262 0.0
H1248 H 0.99657 0.19177 0.25545 0.0
H1249 H 1.01194 0.2176 0.1982 0.0
H1250 H 0.94567 0.30609 0.22077 0.0
H1251 H 0.92934 0.27965 0.27752 0.0
C1252 C 0.96142 0.27755 0.10913 0.0
C1253 C 0.98022 0.30832 0.10246 0.0
C1254 C 0.96375 0.26133 0.14213 0.0
C1255 C 0.984 0.27634 0.16909 0.0
C1256 C 1.00395 0.30621 0.16199 0.0
C1257 C 1.00211 0.32204 0.12884 0.0
C1258 C 0.98636 0.21736 0.24862 0.0
C1259 C 0.96272 0.23441 0.27116 0.0
C1260 C 0.99496 0.23189 0.21595 0.0
C1261 C 0.98008 0.26373 0.20553 0.0
C1262 C 0.95774 0.28165 0.22871 0.0
C1263 C 0.94863 0.26678 0.26113 0.0
H1264 H 0.35153 0.49624 0.37887 0.0
H1265 H 0.26795 0.43269 0.33722 0.0
H1266 H 0.31849 0.50479 0.43353 0.0
H1267 H 0.23429 0.44217 0.39169 0.0
H1268 H 0.18069 0.49997 0.48954 0.0
H1269 H 0.21217 0.50478 0.4334 0.0
H1270 H 0.2968 0.44337 0.4766 0.0
H1271 H 0.26451 0.43718 0.53229 0.0
C1272 C 0.32552 0.48516 0.38106 0.0
C1273 C 0.31172 0.46458 0.35375 0.0
C1274 C 0.30684 0.48991 0.41224 0.0
C1275 C 0.27406 0.47416 0.41646 0.0
C1276 C 0.25948 0.45481 0.38861 0.0
C1277 C 0.2785 0.44953 0.35757 0.0
C1278 C 0.20647 0.48834 0.48723 0.0
C1279 C 0.22098 0.46939 0.51546 0.0
C1280 C 0.22421 0.49091 0.4552 0.0
C1281 C 0.25681 0.47468 0.4511 0.0
C1282 C 0.27183 0.45649 0.47958 0.0
C1283 C 0.25365 0.45321 0.51136 0.0
H1284 H 0.53087 0.83763 0.62354 0.0
H1285 H 0.43397 0.7889 0.59214 0.0
H1286 H 0.52771 0.80793 0.68096 0.0
H1287 H 0.43035 0.75988 0.64964 0.0
H1288 H 0.4112 0.77272 0.77 0.0
H1289 H 0.42561 0.79961 0.71306 0.0
H1290 H 0.51864 0.73587 0.70635 0.0
H1291 H 0.50381 0.70856 0.76311 0.0
C1292 C 0.5097 0.81945 0.62853 0.0
C1293 C 0.48319 0.81451 0.60335 0.0
C1294 C 0.50776 0.80282 0.66129 0.0
C1295 C 0.47864 0.7821 0.66945 0.0
C1296 C 0.45298 0.7759 0.64369 0.0
C1297 C 0.45524 0.79203 0.6108 0.0
C1298 C 0.43532 0.7655 0.75688 0.0
C1299 C 0.45703 0.73956 0.77107 0.0
C1300 C 0.44333 0.78045 0.72432 0.0
C1301 C 0.47305 0.76945 0.7056 0.0
C1302 C 0.49569 0.7447 0.72055 0.0
C1303 C 0.48742 0.72943 0.75295 0.0
H1304 H 0.71901 0.52926 0.36827 0.0
H1305 H 0.77641 0.62382 0.3462 0.0
H1306 H 0.74817 0.52459 0.42594 0.0
H1307 H 0.80519 0.61948 0.40392 0.0
H1308 H 0.79407 0.6266 0.52615 0.0
H1309 H 0.76497 0.62021 0.4688 0.0
H1310 H 0.82293 0.52521 0.44974 0.0
H1311 H 0.85253 0.53202 0.50694 0.0
C1312 C 0.73886 0.54822 0.37536 0.0
C1313 C 0.74661 0.57621 0.35269 0.0
C1314 C 0.75518 0.54572 0.40824 0.0
C1315 C 0.77858 0.57178 0.41899 0.0
C1316 C 0.78717 0.59913 0.39586 0.0
C1317 C 0.77116 0.6014 0.36289 0.0
C1318 C 0.79951 0.60376 0.51019 0.0
C1319 C 0.82453 0.57921 0.52102 0.0
C1320 C 0.78329 0.6003 0.47745 0.0
C1321 C 0.79206 0.57234 0.45522 0.0
C1322 C 0.81581 0.54682 0.46674 0.0
C1323 C 0.8324 0.55055 0.49934 0.0
H1324 H 0.62912 0.28404 0.59904 0.0
H1325 H 0.54716 0.21008 0.62227 0.0
H1326 H 0.61981 0.31183 0.65663 0.0
H1327 H 0.53784 0.23787 0.67983 0.0
H1328 H 0.63023 0.28225 0.7817 0.0
H1329 H 0.62183 0.25519 0.72365 0.0
H1330 H 0.53589 0.32538 0.70241 0.0
H1331 H 0.5442 0.35237 0.76061 0.0
C1332 C 0.60812 0.27486 0.61584 0.0
C1333 C 0.58825 0.24565 0.60622 0.0
C1334 C 0.60298 0.29045 0.64869 0.0
C1335 C 0.57817 0.27674 0.67221 0.0
C1336 C 0.55685 0.24888 0.66179 0.0
C1337 C 0.56204 0.23325 0.62897 0.0
C1338 C 0.6086 0.29071 0.76523 0.0
C1339 C 0.58711 0.31847 0.77576 0.0
C1340 C 0.60402 0.27559 0.73209 0.0
C1341 C 0.57829 0.28847 0.70901 0.0
C1342 C 0.55567 0.31505 0.7201 0.0
C1343 C 0.56023 0.33015 0.75331 0.0
H1344 H 0.22349 0.85666 0.96391 0.0
H1345 H 0.11778 0.89435 0.97888 0.0
H1346 H 0.24589 0.91421 0.97436 0.0
H1347 H 0.1404 0.95326 0.98849 0.0
H1348 H 0.20247 1.02254 0.06984 0.0
H1349 H 0.16919 0.98028 1.03563 0.0
H1350 H 0.25516 0.97194 0.96202 0.0
H1351 H 0.28973 1.01077 0.99885 0.0
C1352 C 0.20485 0.87753 0.96853 0.0
C1353 C 0.16894 0.87061 0.97168 0.0
C1354 C 0.21774 0.91095 0.9742 0.0
C1355 C 0.19502 0.93864 0.98269 0.0
C1356 C 0.15871 0.93238 0.98288 0.0
C1357 C 0.14576 0.89859 0.97754 0.0
C1358 C 0.21386 1.01205 1.04595 0.0
C1359 C 0.2488 1.01904 1.03729 0.0
C1360 C 0.19468 0.98809 1.02603 0.0
C1361 C 0.20998 0.97169 0.99661 0.0
C1362 C 0.24321 0.98286 0.98537 0.0
C1363 C 0.26291 1.00541 1.00619 0.0
H1364 H 1.01823 0.85706 0.06444 0.0
H1365 H 1.00401 0.76477 0.12833 0.0
H1366 H 0.96819 0.88435 0.09313 0.0
H1367 H 0.95605 0.7929 0.15929 0.0
H1368 H 0.83966 0.8165 0.13871 0.0
H1369 H 0.89984 0.799 0.13661 0.0
H1370 H 0.93217 0.90726 0.13858 0.0
H1371 H 0.87143 0.9253 0.14003 0.0
C1372 C 1.00543 0.84334 0.08584 0.0
C1373 C 1.01436 0.80865 0.09374 0.0
C1374 C 0.97681 0.85901 0.10251 0.0
C1375 C 0.95728 0.84037 0.12782 0.0
C1376 C 0.96963 0.80751 0.13902 0.0
C1377 C 0.99738 0.79149 0.12156 0.0
C1378 C 0.85928 0.8369 0.13918 0.0
C1379 C 0.84989 0.87249 0.13797 0.0
C1380 C 0.89424 0.8267 0.13844 0.0
C1381 C 0.92112 0.85172 0.13685 0.0
C1382 C 0.91209 0.8873 0.13886 0.0
C1383 C 0.8769 0.89761 0.1395 0.0
H1384 H 0.84702 1.00674 1.04625 0.0
H1385 H 0.76034 0.07214 1.01429 0.0
H1386 H 0.88749 0.04541 1.0148 0.0
H1387 H 0.80034 0.11035 0.98284 0.0
H1388 H 0.8725 0.17671 0.92714 0.0
H1389 H 0.84467 0.12008 0.93622 0.0
H1390 H 0.90323 0.1066 1.03276 0.0
H1391 H 0.93089 0.16298 1.02395 0.0
C1392 C 0.83657 0.02882 1.03173 0.0
C1393 C 0.80076 0.03705 1.03334 0.0
C1394 C 0.85968 0.05091 1.0138 0.0
C1395 C 0.84715 0.08108 0.99671 0.0
C1396 C 0.81087 0.08725 0.9956 0.0
C1397 C 0.78794 0.06559 1.01396 0.0
C1398 C 0.88023 0.16118 0.94977 0.0
C1399 C 0.90353 0.17469 0.97507 0.0
C1400 C 0.86431 0.12875 0.95489 0.0
C1401 C 0.87135 0.10921 0.98546 0.0
C1402 C 0.89744 0.12094 1.00879 0.0
C1403 C 0.91337 0.15343 1.0037 0.0
H1404 H 1.01885 0.1915 0.08444 0.0
H1405 H 0.08004 0.28143 0.11508 0.0
H1406 H 0.05301 0.15492 0.12474 0.0
H1407 H 0.11409 0.24522 0.15482 0.0
H1408 H 0.18343 0.18179 0.21287 0.0
H1409 H 0.12439 0.20431 0.20366 0.0
H1410 H 0.11395 0.13942 0.1112 0.0
H1411 H 0.17213 0.11735 0.1198 0.0
C1412 C 0.03905 0.20357 0.10037 0.0
C1413 C 0.04791 0.23889 0.09564 0.0
C1414 C 0.05841 0.1827 0.12356 0.0
C1415 C 0.08667 0.19702 0.14241 0.0
C1416 C 0.09252 0.23328 0.14074 0.0
C1417 C 0.07342 0.25398 0.11743 0.0
C1418 C 0.16809 0.17147 0.19122 0.0
C1419 C 0.18315 0.14846 0.1666 0.0
C1420 C 0.13421 0.18426 0.18611 0.0
C1421 C 0.11489 0.17427 0.15627 0.0
C1422 C 0.12806 0.14764 0.13454 0.0
C1423 C 0.1619 0.13496 0.13952 0.0
H1424 H 0.20689 0.51571 0.34401 0.0
H1425 H 0.29813 0.58116 0.35688 0.0
H1426 H 0.17311 0.55577 0.38082 0.0
H1427 H 0.26458 0.62146 0.39206 0.0
H1428 H 0.12863 0.67009 0.36252 0.0
H1429 H 0.15193 0.61144 0.36269 0.0
H1430 H 0.23008 0.64203 0.43925 0.0
H1431 H 0.20729 0.70162 0.43793 0.0
C1432 C 0.21986 0.53833 0.35515 0.0
C1433 C 0.25471 0.54616 0.34643 0.0
C1434 C 0.20055 0.5612 0.3763 0.0
C1435 C 0.2158 0.5923 0.3888 0.0
C1436 C 0.25178 0.59781 0.38318 0.0
C1437 C 0.27102 0.57492 0.36236 0.0
C1438 C 0.14973 0.66406 0.38065 0.0
C1439 C 0.16677 0.69064 0.39951 0.0
C1440 C 0.16316 0.63014 0.38086 0.0
C1441 C 0.19373 0.62226 0.40007 0.0
C1442 C 0.20721 0.64758 0.42326 0.0
C1443 C 0.19412 0.68167 0.42261 0.0
H1444 H 0.66521 0.92614 0.78083 0.0
H1445 H 0.68383 0.85971 0.69079 0.0
H1446 H 0.60539 0.90555 0.78387 0.0
H1447 H 0.62326 0.83966 0.69319 0.0
H1448 H 0.50318 0.85781 0.79648 0.0
H1449 H 0.54606 0.89351 0.76464 0.0
H1450 H 0.60298 0.7997 0.73692 0.0
H1451 H 0.56054 0.7647 0.76805 0.0
C1452 C 0.6561 0.90835 0.76064 0.0
C1453 C 0.67941 0.89405 0.73593 0.0
C1454 C 0.62157 0.89658 0.76228 0.0
C1455 C 0.6097 0.87038 0.7392 0.0
C1456 C 0.63187 0.85928 0.71185 0.0
C1457 C 0.66653 0.87073 0.71047 0.0
C1458 C 0.52435 0.84496 0.78262 0.0
C1459 C 0.52919 0.80868 0.78549 0.0
C1460 C 0.54889 0.86533 0.76447 0.0
C1461 C 0.57831 0.84957 0.74876 0.0
C1462 C 0.58071 0.81289 0.74851 0.0
C1463 C 0.55654 0.79273 0.76682 0.0
H1464 H 0.7773 0.47954 0.35909 0.0
H1465 H 0.86819 0.54373 0.33956 0.0
H1466 H 0.81086 0.44361 0.39931 0.0
H1467 H 0.90258 0.50681 0.37973 0.0
H1468 H 0.86706 0.37202 0.45793 0.0
H1469 H 0.84859 0.43276 0.45181 0.0
H1470 H 0.91821 0.44504 0.36315 0.0
H1471 H 0.93645 0.38502 0.36883 0.0
C1472 C 0.80439 0.48637 0.36403 0.0
C1473 C 0.8205 0.51368 0.34551 0.0
C1474 C 0.82356 0.46611 0.38759 0.0
C1475 C 0.85953 0.47218 0.39243 0.0
C1476 C 0.87493 0.50153 0.37634 0.0
C1477 C 0.85537 0.52243 0.35324 0.0
C1478 C 0.87943 0.38808 0.43798 0.0
C1479 C 0.90236 0.3732 0.4132 0.0
C1480 C 0.86902 0.42293 0.43468 0.0
C1481 C 0.88124 0.44326 0.40642 0.0
C1482 C 0.90826 0.43003 0.3852 0.0
C1483 C 0.91866 0.39522 0.38844 0.0
H1484 H 0.48999 0.28548 0.76513 0.0
H1485 H 0.55393 0.19736 0.796 0.0
H1486 H 0.45501 0.24781 0.72799 0.0
H1487 H 0.51856 0.15911 0.75846 0.0
H1488 H 0.39974 0.11995 0.76746 0.0
H1489 H 0.4581 0.14287 0.77402 0.0
H1490 H 0.44408 0.20602 0.68053 0.0
H1491 H 0.38495 0.18295 0.67379 0.0
C1492 C 0.49703 0.25809 0.7633 0.0
C1493 C 0.52379 0.24402 0.78431 0.0
C1494 C 0.47731 0.2365 0.74151 0.0
C1495 C 0.48367 0.2003 0.74072 0.0
C1496 C 0.51285 0.18686 0.75892 0.0
C1497 C 0.53296 0.20867 0.78047 0.0
C1498 C 0.40939 0.13736 0.74719 0.0
C1499 C 0.38722 0.15027 0.72053 0.0
C1500 C 0.4432 0.15051 0.75093 0.0
C1501 C 0.45538 0.17691 0.72826 0.0
C1502 C 0.43505 0.18619 0.6988 0.0
C1503 C 0.40116 0.17308 0.69506 0.0
H1504 H 0.68998 0.36931 0.42357 0.0
H1505 H 0.62749 0.3864 0.51712 0.0
H1506 H 0.71503 0.42754 0.43019 0.0
H1507 H 0.65194 0.44404 0.523 0.0
H1508 H 0.7039 0.5431 0.5382 0.0
H1509 H 0.6667 0.50463 0.50271 0.0
H1510 H 0.75664 0.44019 0.47907 0.0
H1511 H 0.79334 0.47813 0.51446 0.0
C1512 C 0.68072 0.3857 0.44487 0.0
C1513 C 0.65714 0.37262 0.47012 0.0
C1514 C 0.69494 0.41913 0.44846 0.0
C1515 C 0.68575 0.44011 0.47732 0.0
C1516 C 0.65931 0.42864 0.50024 0.0
C1517 C 0.64527 0.3952 0.49683 0.0
C1518 C 0.71575 0.52122 0.52457 0.0
C1519 C 0.75114 0.5128 0.52989 0.0
C1520 C 0.69453 0.49934 0.50422 0.0
C1521 C 0.70867 0.46918 0.48858 0.0
C1522 C 0.74492 0.46325 0.49069 0.0
C1523 C 0.7659 0.48471 0.51141 0.0
H1524 H 0.36376 0.37646 0.69087 0.0
H1525 H 0.37306 0.42915 0.59046 0.0
H1526 H 0.42401 0.35597 0.68569 0.0
H1527 H 0.43272 0.40835 0.58507 0.0
H1528 H 0.53653 0.36343 0.57355 0.0
H1529 H 0.49385 0.40147 0.60255 0.0
H1530 H 0.44255 0.3104 0.64606 0.0
H1531 H 0.48512 0.2729 0.61767 0.0
C1532 C 0.37895 0.38442 0.66815 0.0
C1533 C 0.36347 0.404 0.64088 0.0
C1534 C 0.41344 0.37271 0.66521 0.0
C1535 C 0.43295 0.38 0.63471 0.0
C1536 C 0.41859 0.40249 0.60909 0.0
C1537 C 0.38418 0.4144 0.61214 0.0
C1538 C 0.51673 0.35176 0.59025 0.0
C1539 C 0.51338 0.31528 0.59263 0.0
C1540 C 0.49227 0.37349 0.60673 0.0
C1541 C 0.46442 0.35896 0.62605 0.0
C1542 C 0.46363 0.32259 0.63149 0.0
C1543 C 0.48782 0.30098 0.61485 0.0
H1544 H 0.25064 0.55967 0.48672 0.0
H1545 H 0.33988 0.53663 0.55259 0.0
H1546 H 0.28517 0.60217 0.45397 0.0
H1547 H 0.37359 0.58097 0.52242 0.0
H1548 H 0.42718 0.67032 0.48408 0.0
H1549 H 0.40233 0.6125 0.48064 0.0
H1550 H 0.29921 0.65778 0.46782 0.0
H1551 H 0.32418 0.71521 0.46813 0.0
C1552 C 0.27785 0.56348 0.49382 0.0
C1553 C 0.29249 0.54571 0.52264 0.0
C1554 C 0.29764 0.58801 0.47525 0.0
C1555 C 0.3319 0.59632 0.48623 0.0
C1556 C 0.34744 0.57566 0.51285 0.0
C1557 C 0.32799 0.5503 0.53057 0.0
C1558 C 0.39938 0.66829 0.47936 0.0
C1559 C 0.3776 0.69803 0.478 0.0
C1560 C 0.38498 0.63472 0.47774 0.0
C1561 C 0.34848 0.63007 0.47564 0.0
C1562 C 0.3274 0.65973 0.46982 0.0
C1563 C 0.34183 0.69314 0.4706 0.0
H1564 H 0.52008 0.69774 0.59454 0.0
H1565 H 0.58607 0.78899 0.60267 0.0
H1566 H 0.56027 0.66556 0.63324 0.0
H1567 H 0.62589 0.75739 0.64058 0.0
H1568 H 0.70456 0.70264 0.6926 0.0
H1569 H 0.64455 0.7245 0.6912 0.0
H1570 H 0.61765 0.64527 0.61475 0.0
H1571 H 0.67674 0.62322 0.61662 0.0
C1572 C 0.54268 0.71112 0.60528 0.0
C1573 C 0.55082 0.74532 0.59465 0.0
C1574 C 0.56558 0.69279 0.62748 0.0
C1575 C 0.59663 0.70864 0.63949 0.0
C1576 C 0.60229 0.74422 0.63201 0.0
C1577 C 0.57973 0.76226 0.60967 0.0
C1578 C 0.6854 0.68909 0.67657 0.0
C1579 C 0.69565 0.66177 0.65412 0.0
C1580 C 0.65104 0.70156 0.67582 0.0
C1581 C 0.62663 0.68732 0.65206 0.0
C1582 C 0.63569 0.65692 0.63339 0.0
C1583 C 0.66991 0.64426 0.63437 0.0
H1584 H 0.79223 0.07417 0.86844 0.0
H1585 H 0.69945 1.0131 0.84752 0.0
H1586 H 0.75825 0.11399 0.9043 0.0
H1587 H 0.66504 0.05323 0.88384 0.0
H1588 H 0.69732 0.19058 0.95733 0.0
H1589 H 0.71955 0.13096 0.95258 0.0
H1590 H 0.65068 0.11285 0.86407 0.0
H1591 H 0.62876 0.17167 0.86845 0.0
C1592 C 0.76462 0.06886 0.8722 0.0
C1593 C 0.74813 0.04143 0.85418 0.0
C1594 C 0.74518 0.09139 0.89326 0.0
C1595 C 0.70875 0.08715 0.89632 0.0
C1596 C 0.69298 0.0574 0.88144 0.0
C1597 C 0.71262 0.03454 0.86061 0.0
C1598 C 0.68616 0.1735 0.93753 0.0
C1599 C 0.66172 0.18633 0.9129 0.0
C1600 C 0.69881 0.13932 0.93495 0.0
C1601 C 0.68733 0.11743 0.90758 0.0
C1602 C 0.65993 0.1289 0.88566 0.0
C1603 C 0.64733 0.16301 0.88817 0.0
H1604 H 0.16845 0.38411 0.17811 0.0
H1605 H 0.17085 0.42165 0.28575 0.0
H1606 H 0.11046 0.35968 0.18831 0.0
H1607 H 0.11288 0.39819 0.29516 0.0
H1608 H 0.06075 0.26787 0.25987 0.0
H1609 H 0.10043 0.30774 0.2298 0.0
H1610 H 0.04788 0.39583 0.27747 0.0
H1611 H 1.00782 0.35583 0.30741 0.0
C1612 C 0.15638 0.38799 0.20363 0.0
C1613 C 0.17469 0.40449 0.23122 0.0
C1614 C 0.1231 0.37421 0.20926 0.0
C1615 C 0.10739 0.37704 0.24246 0.0
C1616 C 0.12425 0.39614 0.2691 0.0
C1617 C 0.15769 0.40959 0.26364 0.0
C1618 C 0.05716 0.29578 0.26321 0.0
C1619 C 0.03206 0.30887 0.28665 0.0
C1620 C 0.07955 0.31861 0.24568 0.0
C1621 C 0.07738 0.35477 0.2518 0.0
C1622 C 0.05012 0.368 0.27264 0.0
C1623 C 0.02734 0.34515 0.28975 0.0
H1624 H 0.36869 1.01433 0.81959 0.0
H1625 H 0.27618 1.00948 0.8842 0.0
H1626 H 0.39738 0.97216 0.8581 0.0
H1627 H 0.30633 0.97177 0.92581 0.0
H1628 H 0.32774 0.8537 0.92317 0.0
H1629 H 0.31155 0.91366 0.91608 0.0
H1630 H 0.42074 0.94253 0.90638 0.0
H1631 H 0.43705 0.88122 0.91281 0.0
C1632 C 0.35525 1.0056 0.84314 0.0
C1633 C 0.32012 1.01437 0.84875 0.0
C1634 C 0.37179 0.98174 0.86559 0.0
C1635 C 0.3536 0.96735 0.8945 0.0
C1636 C 0.32045 0.98095 0.90292 0.0
C1637 C 0.30329 1.00302 0.87941 0.0
C1638 C 0.34853 0.87276 0.92043 0.0
C1639 C 0.38353 0.86234 0.91676 0.0
C1640 C 0.33923 0.90765 0.91669 0.0
C1641 C 0.36479 0.93322 0.90959 0.0
C1642 C 0.40028 0.92339 0.9105 0.0
C1643 C 0.4096 0.88818 0.91396 0.0
H1644 H 0.8554 0.71229 0.18217 0.0
H1645 H 0.89355 0.63043 0.25091 0.0
H1646 H 0.91385 0.73786 0.18058 0.0
H1647 H 0.95104 0.65619 0.25021 0.0
H1648 H 0.04503 0.71277 0.26953 0.0
H1649 H 1.00507 0.6806 0.23105 0.0
H1650 H 0.93547 0.76991 0.22917 0.0
H1651 H 0.97546 0.80182 0.26644 0.0
C1652 C 0.87651 0.69908 0.19594 0.0
C1653 C 0.86966 0.66984 0.21731 0.0
C1654 C 0.90997 0.71374 0.19508 0.0
C1655 C 0.93688 0.69982 0.21624 0.0
C1656 C 0.93109 0.66778 0.23357 0.0
C1657 C 0.89779 0.65291 0.23408 0.0
C1658 C 1.02156 0.72569 0.26008 0.0
C1659 C 1.01246 0.75916 0.27219 0.0
C1660 C 0.99873 0.70732 0.23799 0.0
C1661 C 0.96653 0.7222 0.22782 0.0
C1662 C 0.95986 0.75735 0.23644 0.0
C1663 C 0.98258 0.77559 0.25842 0.0
loop_
_geom_bond_atom_site_label_1
_geom_bond_atom_site_label_2
_geom_bond_distance
_geom_bond_site_symmetry_2
_ccdc_geom_bond_type
Zn0 N4 2.020 . S
Zn0 O8 2.019 . S
Zn0 N10 2.119 . S
Zn0 O18 1.975 . S
C1 N2 1.334 . S
C1 N5 1.336 1_556 S
N2 C1 1.334 . S
N2 C3 1.334 1_556 S
C3 N2 1.334 1_554 S
C3 N4 1.336 . S
N4 Zn0 2.020 . S
N4 C3 1.336 . S
N4 N5 1.354 . S
N5 C1 1.336 1_554 S
N5 N4 1.354 . S
N5 Zn9 2.020 . S
C6 O7 1.244 . S
C6 O30 1.257 . S
O7 C6 1.244 . S
O8 Zn0 2.019 . S
O8 C28 1.257 . S
Zn9 N5 2.020 . S
Zn9 O16 1.975 . S
Zn9 N25 2.119 . S
Zn9 O30 2.019 . S
N10 Zn0 2.119 . S
N10 C12 1.334 . S
N10 C13 1.328 . S
C11 C12 1.391 . S
C11 N14 1.329 . S
C11 H32 0.930 1_545 S
C12 N10 1.334 . S
C12 C11 1.391 . S
C12 H19 0.930 . S
C13 N10 1.328 . S
C13 C15 1.392 . S
C13 H20 0.930 . S
N14 C11 1.329 . S
N14 C15 1.331 . S
C15 C13 1.392 . S
C15 N14 1.331 . S
O16 Zn9 1.975 . S
O16 C17 1.252 . S
C17 O16 1.252 . S
C17 O18 1.252 . S
O18 Zn0 1.975 . S
O18 C17 1.252 . S
H19 C12 0.930 . S
H20 C13 0.930 . S
C21 C22 1.392 . S
C21 N25 1.328 . S
C21 H27 0.930 . S
C22 C21 1.392 . S
C22 N26 1.331 . S
C23 C24 1.391 . S
C23 N26 1.329 . S
C23 H33 0.930 . S
C24 C23 1.391 . S
C24 N25 1.334 . S
C24 H31 0.930 . S
N25 Zn9 2.119 . S
N25 C21 1.328 . S
N25 C24 1.334 . S
N26 C22 1.331 . S
N26 C23 1.329 . S
H27 C21 0.930 . S
C28 O8 1.257 . S
C28 O29 1.244 . S
O29 C28 1.244 . S
O30 C6 1.257 . S
O30 Zn9 2.019 . S
H31 C24 0.930 . S
H32 C11 0.930 1_565 S
H33 C23 0.930 . S
Zn34 N38 2.020 . S
Zn34 O42 2.019 . S
Zn34 N44 2.119 . S
Zn34 O52 1.975 . S
C35 N36 1.334 . S
C35 N39 1.336 1_554 S
N36 C35 1.334 . S
N36 C37 1.334 1_554 S
C37 N36 1.334 1_556 S
C37 N38 1.336 . S
N38 Zn34 2.020 . S
N38 C37 1.336 . S
N38 N39 1.354 . S
N39 C35 1.336 1_556 S
N39 N38 1.354 . S
N39 Zn43 2.020 . S
C40 O41 1.244 . S
C40 O64 1.257 . S
O41 C40 1.244 . S
O42 Zn34 2.019 . S
O42 C62 1.257 . S
Zn43 N39 2.020 . S
Zn43 O50 1.975 . S
Zn43 N59 2.119 . S
Zn43 O64 2.019 . S
N44 Zn34 2.119 . S
N44 C46 1.334 . S
N44 C47 1.328 . S
C45 C46 1.391 . S
C45 N48 1.329 . S
C45 H66 0.930 1_455 S
C46 N44 1.334 . S
C46 C45 1.391 . S
C46 H53 0.930 . S
C47 N44 1.328 . S
C47 C49 1.392 . S
C47 H54 0.930 . S
N48 C45 1.329 . S
N48 C49 1.331 . S
C49 C47 1.392 . S
C49 N48 1.331 . S
O50 Zn43 1.975 . S
O50 C51 1.252 . S
C51 O50 1.252 . S
C51 O52 1.252 . S
O52 Zn34 1.975 . S
O52 C51 1.252 . S
H53 C46 0.930 . S
H54 C47 0.930 . S
C55 C56 1.392 . S
C55 N59 1.328 . S
C55 H61 0.930 . S
C56 C55 1.392 . S
C56 N60 1.331 . S
C57 C58 1.391 . S
C57 N60 1.329 . S
C57 H67 0.930 . S
C58 C57 1.391 . S
C58 N59 1.334 . S
C58 H65 0.930 . S
N59 Zn43 2.119 . S
N59 C55 1.328 . S
N59 C58 1.334 . S
N60 C56 1.331 . S
N60 C57 1.329 . S
H61 C55 0.930 . S
C62 O42 1.257 . S
C62 O63 1.244 . S
O63 C62 1.244 . S
O64 C40 1.257 . S
O64 Zn43 2.019 . S
H65 C58 0.930 . S
H66 C45 0.930 1_655 S
H67 C57 0.930 . S
Zn68 N72 2.020 . S
Zn68 O76 2.019 . S
Zn68 N78 2.119 . S
Zn68 O86 1.975 . S
C69 N70 1.334 1_554 S
C69 N73 1.336 . S
N70 C69 1.334 1_556 S
N70 C71 1.334 . S
C71 N70 1.334 . S
C71 N72 1.336 1_556 S
N72 Zn68 2.020 . S
N72 C71 1.336 1_554 S
N72 N73 1.354 . S
N73 C69 1.336 . S
N73 N72 1.354 . S
N73 Zn77 2.020 . S
C74 O75 1.244 . S
C74 O98 1.257 . S
O75 C74 1.244 . S
O76 Zn68 2.019 . S
O76 C96 1.257 . S
Zn77 N73 2.020 . S
Zn77 O84 1.975 . S
Zn77 N93 2.119 . S
Zn77 O98 2.019 . S
N78 Zn68 2.119 . S
N78 C80 1.334 . S
N78 C81 1.328 . S
C79 C80 1.391 . S
C79 N82 1.329 . S
C79 H100 0.930 . S
C80 N78 1.334 . S
C80 C79 1.391 . S
C80 H87 0.930 . S
C81 N78 1.328 . S
C81 C83 1.392 . S
C81 H88 0.930 . S
N82 C79 1.329 . S
N82 C83 1.331 . S
C83 C81 1.392 . S
C83 N82 1.331 . S
O84 Zn77 1.975 . S
O84 C85 1.252 . S
C85 O84 1.252 . S
C85 O86 1.252 . S
O86 Zn68 1.975 . S
O86 C85 1.252 . S
H87 C80 0.930 . S
H88 C81 0.930 . S
C89 C90 1.392 . S
C89 N93 1.328 . S
C89 H95 0.930 . S
C90 C89 1.392 . S
C90 N94 1.331 . S
C91 C92 1.391 . S
C91 N94 1.329 . S
C91 H101 0.930 1_565 S
C92 C91 1.391 . S
C92 N93 1.334 . S
C92 H99 0.930 . S
N93 Zn77 2.119 . S
N93 C89 1.328 . S
N93 C92 1.334 . S
N94 C90 1.331 . S
N94 C91 1.329 . S
H95 C89 0.930 . S
C96 O76 1.257 . S
C96 O97 1.244 . S
O97 C96 1.244 . S
O98 C74 1.257 . S
O98 Zn77 2.019 . S
H99 C92 0.930 . S
H100 C79 0.930 . S
H101 C91 0.930 1_545 S
Zn102 N106 2.020 . S
Zn102 O110 2.019 . S
Zn102 N112 2.119 . S
Zn102 O120 1.975 . S
C103 N104 1.334 . S
C103 N107 1.336 1_554 S
N104 C103 1.334 . S
N104 C105 1.334 1_554 S
C105 N104 1.334 1_556 S
C105 N106 1.336 . S
N106 Zn102 2.020 . S
N106 C105 1.336 . S
N106 N107 1.354 . S
N107 C103 1.336 1_556 S
N107 N106 1.354 . S
N107 Zn111 2.020 . S
C108 O109 1.244 . S
C108 O132 1.257 . S
O109 C108 1.244 . S
O110 Zn102 2.019 . S
O110 C130 1.257 . S
Zn111 N107 2.020 . S
Zn111 O118 1.975 . S
Zn111 N127 2.119 . S
Zn111 O132 2.019 . S
N112 Zn102 2.119 . S
N112 C114 1.334 . S
N112 C115 1.328 . S
C113 C114 1.391 . S
C113 N116 1.329 . S
C113 H134 0.930 1_655 S
C114 N112 1.334 . S
C114 C113 1.391 . S
C114 H121 0.930 . S
C115 N112 1.328 . S
C115 C117 1.392 . S
C115 H122 0.930 . S
N116 C113 1.329 . S
N116 C117 1.331 . S
C117 C115 1.392 . S
C117 N116 1.331 . S
O118 Zn111 1.975 . S
O118 C119 1.252 . S
C119 O118 1.252 . S
C119 O120 1.252 . S
O120 Zn102 1.975 . S
O120 C119 1.252 . S
H121 C114 0.930 . S
H122 C115 0.930 . S
C123 C124 1.392 . S
C123 N127 1.328 . S
C123 H129 0.930 . S
C124 C123 1.392 . S
C124 N128 1.331 . S
C125 C126 1.391 . S
C125 N128 1.329 . S
C125 H135 0.930 . S
C126 C125 1.391 . S
C126 N127 1.334 . S
C126 H133 0.930 . S
N127 Zn111 2.119 . S
N127 C123 1.328 . S
N127 C126 1.334 . S
N128 C124 1.331 . S
N128 C125 1.329 . S
H129 C123 0.930 . S
C130 O110 1.257 . S
C130 O131 1.244 . S
O131 C130 1.244 . S
O132 C108 1.257 . S
O132 Zn111 2.019 . S
H133 C126 0.930 . S
H134 C113 0.930 1_455 S
H135 C125 0.930 . S
Zn136 N140 2.020 . S
Zn136 O144 2.019 . S
Zn136 N146 2.119 . S
Zn136 O154 1.975 . S
C137 N138 1.334 . S
C137 N141 1.336 . S
N138 C137 1.334 . S
N138 C139 1.334 . S
C139 N138 1.334 . S
C139 N140 1.336 . S
N140 Zn136 2.020 . S
N140 C139 1.336 . S
N140 N141 1.354 . S
N141 C137 1.336 . S
N141 N140 1.354 . S
N141 Zn145 2.020 . S
C142 O143 1.244 . S
C142 O166 1.257 . S
O143 C142 1.244 . S
O144 Zn136 2.019 . S
O144 C164 1.257 . S
Zn145 N141 2.020 . S
Zn145 O152 1.975 . S
Zn145 N161 2.119 . S
Zn145 O166 2.019 . S
N146 Zn136 2.119 . S
N146 C148 1.334 . S
N146 C149 1.328 . S
C147 C148 1.391 . S
C147 N150 1.329 . S
C147 H168 0.930 . S
C148 N146 1.334 . S
C148 C147 1.391 . S
C148 H155 0.930 . S
C149 N146 1.328 . S
C149 C151 1.392 . S
C149 H156 0.930 . S
N150 C147 1.329 . S
N150 C151 1.331 . S
C151 C149 1.392 . S
C151 N150 1.331 . S
O152 Zn145 1.975 . S
O152 C153 1.252 . S
C153 O152 1.252 . S
C153 O154 1.252 . S
O154 Zn136 1.975 . S
O154 C153 1.252 . S
H155 C148 0.930 . S
H156 C149 0.930 . S
C157 C158 1.392 . S
C157 N161 1.328 . S
C157 H163 0.930 . S
C158 C157 1.392 . S
C158 N162 1.331 . S
C159 C160 1.391 . S
C159 N162 1.329 . S
C159 H169 0.930 . S
C160 C159 1.391 . S
C160 N161 1.334 . S
C160 H167 0.930 . S
N161 Zn145 2.119 . S
N161 C157 1.328 . S
N161 C160 1.334 . S
N162 C158 1.331 . S
N162 C159 1.329 . S
H163 C157 0.930 . S
C164 O144 1.257 . S
C164 O165 1.244 . S
O165 C164 1.244 . S
O166 C142 1.257 . S
O166 Zn145 2.019 . S
H167 C160 0.930 . S
H168 C147 0.930 . S
H169 C159 0.930 . S
Zn170 N174 2.020 . S
Zn170 O178 2.019 . S
Zn170 N180 2.119 . S
Zn170 O188 1.975 . S
C171 N172 1.334 . S
C171 N175 1.336 . S
N172 C171 1.334 . S
N172 C173 1.334 . S
C173 N172 1.334 . S
C173 N174 1.336 . S
N174 Zn170 2.020 . S
N174 C173 1.336 . S
N174 N175 1.354 . S
N175 C171 1.336 . S
N175 N174 1.354 . S
N175 Zn179 2.020 . S
C176 O177 1.244 . S
C176 O200 1.257 . S
O177 C176 1.244 . S
O178 Zn170 2.019 . S
O178 C198 1.257 . S
Zn179 N175 2.020 . S
Zn179 O186 1.975 . S
Zn179 N195 2.119 . S
Zn179 O200 2.019 . S
N180 Zn170 2.119 . S
N180 C182 1.334 . S
N180 C183 1.328 . S
C181 C182 1.391 . S
C181 N184 1.329 . S
C181 H202 0.930 . S
C182 N180 1.334 . S
C182 C181 1.391 . S
C182 H189 0.930 . S
C183 N180 1.328 . S
C183 C185 1.392 . S
C183 H190 0.930 . S
N184 C181 1.329 . S
N184 C185 1.331 . S
C185 C183 1.392 . S
C185 N184 1.331 . S
O186 Zn179 1.975 . S
O186 C187 1.252 . S
C187 O186 1.252 . S
C187 O188 1.252 . S
O188 Zn170 1.975 . S
O188 C187 1.252 . S
H189 C182 0.930 . S
H190 C183 0.930 . S
C191 C192 1.392 . S
C191 N195 1.328 . S
C191 H197 0.930 . S
C192 C191 1.392 . S
C192 N196 1.331 . S
C193 C194 1.391 . S
C193 N196 1.329 . S
C193 H203 0.930 . S
C194 C193 1.391 . S
C194 N195 1.334 . S
C194 H201 0.930 . S
N195 Zn179 2.119 . S
N195 C191 1.328 . S
N195 C194 1.334 . S
N196 C192 1.331 . S
N196 C193 1.329 . S
H197 C191 0.930 . S
C198 O178 1.257 . S
C198 O199 1.244 . S
O199 C198 1.244 . S
O200 C176 1.257 . S
O200 Zn179 2.019 . S
H201 C194 0.930 . S
H202 C181 0.930 . S
H203 C193 0.930 . S
Zn204 N208 2.020 . S
Zn204 O212 2.019 . S
Zn204 N214 2.119 . S
Zn204 O222 1.975 . S
C205 N206 1.334 . S
C205 N209 1.336 . S
N206 C205 1.334 . S
N206 C207 1.334 . S
C207 N206 1.334 . S
C207 N208 1.336 . S
N208 Zn204 2.020 . S
N208 C207 1.336 . S
N208 N209 1.354 . S
N209 C205 1.336 . S
N209 N208 1.354 . S
N209 Zn213 2.020 . S
C210 O211 1.244 . S
C210 O234 1.257 . S
O211 C210 1.244 . S
O212 Zn204 2.019 . S
O212 C232 1.257 . S
Zn213 N209 2.020 . S
Zn213 O220 1.975 . S
Zn213 N229 2.119 . S
Zn213 O234 2.019 . S
N214 Zn204 2.119 . S
N214 C216 1.334 . S
N214 C217 1.328 . S
C215 C216 1.391 . S
C215 N218 1.329 . S
C215 H236 0.930 . S
C216 N214 1.334 . S
C216 C215 1.391 . S
C216 H223 0.930 . S
C217 N214 1.328 . S
C217 C219 1.392 . S
C217 H224 0.930 . S
N218 C215 1.329 . S
N218 C219 1.331 . S
C219 C217 1.392 . S
C219 N218 1.331 . S
O220 Zn213 1.975 . S
O220 C221 1.252 . S
C221 O220 1.252 . S
C221 O222 1.252 . S
O222 Zn204 1.975 . S
O222 C221 1.252 . S
H223 C216 0.930 . S
H224 C217 0.930 . S
C225 C226 1.392 . S
C225 N229 1.328 . S
C225 H231 0.930 . S
C226 C225 1.392 . S
C226 N230 1.331 . S
C227 C228 1.391 . S
C227 N230 1.329 . S
C227 H237 0.930 . S
C228 C227 1.391 . S
C228 N229 1.334 . S
C228 H235 0.930 . S
N229 Zn213 2.119 . S
N229 C225 1.328 . S
N229 C228 1.334 . S
N230 C226 1.331 . S
N230 C227 1.329 . S
H231 C225 0.930 . S
C232 O212 1.257 . S
C232 O233 1.244 . S
O233 C232 1.244 . S
O234 C210 1.257 . S
O234 Zn213 2.019 . S
H235 C228 0.930 . S
H236 C215 0.930 . S
H237 C227 0.930 . S
Zn238 N242 2.020 . S
Zn238 O246 2.019 . S
Zn238 N248 2.119 . S
Zn238 O256 1.975 . S
C239 N240 1.334 . S
C239 N243 1.336 . S
N240 C239 1.334 . S
N240 C241 1.334 . S
C241 N240 1.334 . S
C241 N242 1.336 . S
N242 Zn238 2.020 . S
N242 C241 1.336 . S
N242 N243 1.354 . S
N243 C239 1.336 . S
N243 N242 1.354 . S
N243 Zn247 2.020 . S
C244 O245 1.244 . S
C244 O268 1.257 . S
O245 C244 1.244 . S
O246 Zn238 2.019 . S
O246 C266 1.257 . S
Zn247 N243 2.020 . S
Zn247 O254 1.975 . S
Zn247 N263 2.119 . S
Zn247 O268 2.019 . S
N248 Zn238 2.119 . S
N248 C250 1.334 . S
N248 C251 1.328 . S
C249 C250 1.391 . S
C249 N252 1.329 . S
C249 H270 0.930 . S
C250 N248 1.334 . S
C250 C249 1.391 . S
C250 H257 0.930 . S
C251 N248 1.328 . S
C251 C253 1.392 . S
C251 H258 0.930 . S
N252 C249 1.329 . S
N252 C253 1.331 . S
C253 C251 1.392 . S
C253 N252 1.331 . S
O254 Zn247 1.975 . S
O254 C255 1.252 . S
C255 O254 1.252 . S
C255 O256 1.252 . S
O256 Zn238 1.975 . S
O256 C255 1.252 . S
H257 C250 0.930 . S
H258 C251 0.930 . S
C259 C260 1.392 . S
C259 N263 1.328 . S
C259 H265 0.930 . S
C260 C259 1.392 . S
C260 N264 1.331 . S
C261 C262 1.391 . S
C261 N264 1.329 . S
C261 H271 0.930 . S
C262 C261 1.391 . S
C262 N263 1.334 . S
C262 H269 0.930 . S
N263 Zn247 2.119 . S
N263 C259 1.328 . S
N263 C262 1.334 . S
N264 C260 1.331 . S
N264 C261 1.329 . S
H265 C259 0.930 . S
C266 O246 1.257 . S
C266 O267 1.244 . S
O267 C266 1.244 . S
O268 C244 1.257 . S
O268 Zn247 2.019 . S
H269 C262 0.930 . S
H270 C249 0.930 . S
H271 C261 0.930 . S
Zn272 N276 2.020 . S
Zn272 O280 2.019 . S
Zn272 N282 2.119 . S
Zn272 O290 1.975 . S
C273 N274 1.334 . S
C273 N277 1.336 . S
N274 C273 1.334 . S
N274 C275 1.334 . S
C275 N274 1.334 . S
C275 N276 1.336 . S
N276 Zn272 2.020 . S
N276 C275 1.336 . S
N276 N277 1.354 . S
N277 C273 1.336 . S
N277 N276 1.354 . S
N277 Zn281 2.020 . S
C278 O279 1.244 . S
C278 O302 1.257 . S
O279 C278 1.244 . S
O280 Zn272 2.019 . S
O280 C300 1.257 . S
Zn281 N277 2.020 . S
Zn281 O288 1.975 . S
Zn281 N297 2.119 . S
Zn281 O302 2.019 . S
N282 Zn272 2.119 . S
N282 C284 1.334 . S
N282 C285 1.328 . S
C283 C284 1.391 . S
C283 N286 1.329 . S
C283 H304 0.930 . S
C284 N282 1.334 . S
C284 C283 1.391 . S
C284 H291 0.930 . S
C285 N282 1.328 . S
C285 C287 1.392 . S
C285 H292 0.930 . S
N286 C283 1.329 . S
N286 C287 1.331 . S
C287 C285 1.392 . S
C287 N286 1.331 . S
O288 Zn281 1.975 . S
O288 C289 1.252 . S
C289 O288 1.252 . S
C289 O290 1.252 . S
O290 Zn272 1.975 . S
O290 C289 1.252 . S
H291 C284 0.930 . S
H292 C285 0.930 . S
C293 C294 1.392 . S
C293 N297 1.328 . S
C293 H299 0.930 . S
C294 C293 1.392 . S
C294 N298 1.331 . S
C295 C296 1.391 . S
C295 N298 1.329 . S
C295 H305 0.930 . S
C296 C295 1.391 . S
C296 N297 1.334 . S
C296 H303 0.930 . S
N297 Zn281 2.119 . S
N297 C293 1.328 . S
N297 C296 1.334 . S
N298 C294 1.331 . S
N298 C295 1.329 . S
H299 C293 0.930 . S
C300 O280 1.257 . S
C300 O301 1.244 . S
O301 C300 1.244 . S
O302 C278 1.257 . S
O302 Zn281 2.019 . S
H303 C296 0.930 . S
H304 C283 0.930 . S
H305 C295 0.930 . S
Zn306 N310 2.020 . S
Zn306 O314 2.019 . S
Zn306 N316 2.119 . S
Zn306 O324 1.975 . S
C307 N308 1.334 . S
C307 N311 1.336 . S
N308 C307 1.334 . S
N308 C309 1.334 . S
C309 N308 1.334 . S
C309 N310 1.336 . S
N310 Zn306 2.020 . S
N310 C309 1.336 . S
N310 N311 1.354 . S
N311 C307 1.336 . S
N311 N310 1.354 . S
N311 Zn315 2.020 . S
C312 O313 1.244 . S
C312 O336 1.257 . S
O313 C312 1.244 . S
O314 Zn306 2.019 . S
O314 C334 1.257 . S
Zn315 N311 2.020 . S
Zn315 O322 1.975 . S
Zn315 N331 2.119 . S
Zn315 O336 2.019 . S
N316 Zn306 2.119 . S
N316 C318 1.334 . S
N316 C319 1.328 . S
C317 C318 1.391 . S
C317 N320 1.329 . S
C317 H338 0.930 . S
C318 N316 1.334 . S
C318 C317 1.391 . S
C318 H325 0.930 . S
C319 N316 1.328 . S
C319 C321 1.392 . S
C319 H326 0.930 . S
N320 C317 1.329 . S
N320 C321 1.331 . S
C321 C319 1.392 . S
C321 N320 1.331 . S
O322 Zn315 1.975 . S
O322 C323 1.252 . S
C323 O322 1.252 . S
C323 O324 1.252 . S
O324 Zn306 1.975 . S
O324 C323 1.252 . S
H325 C318 0.930 . S
H326 C319 0.930 . S
C327 C328 1.392 . S
C327 N331 1.328 . S
C327 H333 0.930 . S
C328 C327 1.392 . S
C328 N332 1.331 . S
C329 C330 1.391 . S
C329 N332 1.329 . S
C329 H339 0.930 . S
C330 C329 1.391 . S
C330 N331 1.334 . S
C330 H337 0.930 . S
N331 Zn315 2.119 . S
N331 C327 1.328 . S
N331 C330 1.334 . S
N332 C328 1.331 . S
N332 C329 1.329 . S
H333 C327 0.930 . S
C334 O314 1.257 . S
C334 O335 1.244 . S
O335 C334 1.244 . S
O336 C312 1.257 . S
O336 Zn315 2.019 . S
H337 C330 0.930 . S
H338 C317 0.930 . S
H339 C329 0.930 . S
Zn340 N344 2.020 . S
Zn340 O348 2.019 . S
Zn340 N350 2.119 . S
Zn340 O358 1.975 . S
C341 N342 1.334 . S
C341 N345 1.336 . S
N342 C341 1.334 . S
N342 C343 1.334 . S
C343 N342 1.334 . S
C343 N344 1.336 . S
N344 Zn340 2.020 . S
N344 C343 1.336 . S
N344 N345 1.354 . S
N345 C341 1.336 . S
N345 N344 1.354 . S
N345 Zn349 2.020 . S
C346 O347 1.244 . S
C346 O370 1.257 . S
O347 C346 1.244 . S
O348 Zn340 2.019 . S
O348 C368 1.257 . S
Zn349 N345 2.020 . S
Zn349 O356 1.975 . S
Zn349 N365 2.119 . S
Zn349 O370 2.019 . S
N350 Zn340 2.119 . S
N350 C352 1.334 . S
N350 C353 1.328 . S
C351 C352 1.391 . S
C351 N354 1.329 . S
C351 H372 0.930 . S
C352 N350 1.334 . S
C352 C351 1.391 . S
C352 H359 0.930 . S
C353 N350 1.328 . S
C353 C355 1.392 . S
C353 H360 0.930 . S
N354 C351 1.329 . S
N354 C355 1.331 . S
C355 C353 1.392 . S
C355 N354 1.331 . S
O356 Zn349 1.975 . S
O356 C357 1.252 . S
C357 O356 1.252 . S
C357 O358 1.252 . S
O358 Zn340 1.975 . S
O358 C357 1.252 . S
H359 C352 0.930 . S
H360 C353 0.930 . S
C361 C362 1.392 . S
C361 N365 1.328 . S
C361 H367 0.930 . S
C362 C361 1.392 . S
C362 N366 1.331 . S
C363 C364 1.391 . S
C363 N366 1.329 . S
C363 H373 0.930 . S
C364 C363 1.391 . S
C364 N365 1.334 . S
C364 H371 0.930 . S
N365 Zn349 2.119 . S
N365 C361 1.328 . S
N365 C364 1.334 . S
N366 C362 1.331 . S
N366 C363 1.329 . S
H367 C361 0.930 . S
C368 O348 1.257 . S
C368 O369 1.244 . S
O369 C368 1.244 . S
O370 C346 1.257 . S
O370 Zn349 2.019 . S
H371 C364 0.930 . S
H372 C351 0.930 . S
H373 C363 0.930 . S
Zn374 N378 2.020 . S
Zn374 O382 2.019 . S
Zn374 N384 2.119 . S
Zn374 O392 1.975 . S
C375 N376 1.334 . S
C375 N379 1.336 . S
N376 C375 1.334 . S
N376 C377 1.334 . S
C377 N376 1.334 . S
C377 N378 1.336 . S
N378 Zn374 2.020 . S
N378 C377 1.336 . S
N378 N379 1.354 . S
N379 C375 1.336 . S
N379 N378 1.354 . S
N379 Zn383 2.020 . S
C380 O381 1.244 . S
C380 O404 1.257 . S
O381 C380 1.244 . S
O382 Zn374 2.019 . S
O382 C402 1.257 . S
Zn383 N379 2.020 . S
Zn383 O390 1.975 . S
Zn383 N399 2.119 . S
Zn383 O404 2.019 . S
N384 Zn374 2.119 . S
N384 C386 1.334 . S
N384 C387 1.328 . S
C385 C386 1.391 . S
C385 N388 1.329 . S
C385 H406 0.930 . S
C386 N384 1.334 . S
C386 C385 1.391 . S
C386 H393 0.930 . S
C387 N384 1.328 . S
C387 C389 1.392 . S
C387 H394 0.930 . S
N388 C385 1.329 . S
N388 C389 1.331 . S
C389 C387 1.392 . S
C389 N388 1.331 . S
O390 Zn383 1.975 . S
O390 C391 1.252 . S
C391 O390 1.252 . S
C391 O392 1.252 . S
O392 Zn374 1.975 . S
O392 C391 1.252 . S
H393 C386 0.930 . S
H394 C387 0.930 . S
C395 C396 1.392 . S
C395 N399 1.328 . S
C395 H401 0.930 . S
C396 C395 1.392 . S
C396 N400 1.331 . S
C397 C398 1.391 . S
C397 N400 1.329 . S
C397 H407 0.930 . S
C398 C397 1.391 . S
C398 N399 1.334 . S
C398 H405 0.930 . S
N399 Zn383 2.119 . S
N399 C395 1.328 . S
N399 C398 1.334 . S
N400 C396 1.331 . S
N400 C397 1.329 . S
H401 C395 0.930 . S
C402 O382 1.257 . S
C402 O403 1.244 . S
O403 C402 1.244 . S
O404 C380 1.257 . S
O404 Zn383 2.019 . S
H405 C398 0.930 . S
H406 C385 0.930 . S
H407 C397 0.930 . S
Zn408 N412 2.020 . S
Zn408 O416 2.019 . S
Zn408 N418 2.119 . S
Zn408 O426 1.975 . S
C409 N410 1.334 . S
C409 N413 1.336 . S
N410 C409 1.334 . S
N410 C411 1.334 . S
C411 N410 1.334 . S
C411 N412 1.336 . S
N412 Zn408 2.020 . S
N412 C411 1.336 . S
N412 N413 1.354 . S
N413 C409 1.336 . S
N413 N412 1.354 . S
N413 Zn417 2.020 . S
C414 O415 1.244 . S
C414 O438 1.257 . S
O415 C414 1.244 . S
O416 Zn408 2.019 . S
O416 C436 1.257 . S
Zn417 N413 2.020 . S
Zn417 O424 1.975 . S
Zn417 N433 2.119 . S
Zn417 O438 2.019 . S
N418 Zn408 2.119 . S
N418 C420 1.334 . S
N418 C421 1.328 . S
C419 C420 1.391 . S
C419 N422 1.329 . S
C419 H440 0.930 . S
C420 N418 1.334 . S
C420 C419 1.391 . S
C420 H427 0.930 . S
C421 N418 1.328 . S
C421 C423 1.392 . S
C421 H428 0.930 . S
N422 C419 1.329 . S
N422 C423 1.331 . S
C423 C421 1.392 . S
C423 N422 1.331 . S
O424 Zn417 1.975 . S
O424 C425 1.252 . S
C425 O424 1.252 . S
C425 O426 1.252 . S
O426 Zn408 1.975 . S
O426 C425 1.252 . S
H427 C420 0.930 . S
H428 C421 0.930 . S
C429 C430 1.392 . S
C429 N433 1.328 . S
C429 H435 0.930 . S
C430 C429 1.392 . S
C430 N434 1.331 . S
C431 C432 1.391 . S
C431 N434 1.329 . S
C431 H441 0.930 1_565 S
C432 C431 1.391 . S
C432 N433 1.334 . S
C432 H439 0.930 . S
N433 Zn417 2.119 . S
N433 C429 1.328 . S
N433 C432 1.334 . S
N434 C430 1.331 . S
N434 C431 1.329 . S
H435 C429 0.930 . S
C436 O416 1.257 . S
C436 O437 1.244 . S
O437 C436 1.244 . S
O438 C414 1.257 . S
O438 Zn417 2.019 . S
H439 C432 0.930 . S
H440 C419 0.930 . S
H441 C431 0.930 1_545 S
Zn442 N446 2.020 . S
Zn442 O450 2.019 . S
Zn442 N452 2.119 . S
Zn442 O460 1.975 . S
C443 N444 1.334 . S
C443 N447 1.336 . S
N444 C443 1.334 . S
N444 C445 1.334 . S
C445 N444 1.334 . S
C445 N446 1.336 . S
N446 Zn442 2.020 . S
N446 C445 1.336 . S
N446 N447 1.354 . S
N447 C443 1.336 . S
N447 N446 1.354 . S
N447 Zn451 2.020 . S
C448 O449 1.244 . S
C448 O472 1.257 . S
O449 C448 1.244 . S
O450 Zn442 2.019 . S
O450 C470 1.257 . S
Zn451 N447 2.020 . S
Zn451 O458 1.975 . S
Zn451 N467 2.119 . S
Zn451 O472 2.019 . S
N452 Zn442 2.119 . S
N452 C454 1.334 . S
N452 C455 1.328 . S
C453 C454 1.391 . S
C453 N456 1.329 . S
C453 H474 0.930 1_655 S
C454 N452 1.334 . S
C454 C453 1.391 . S
C454 H461 0.930 . S
C455 N452 1.328 . S
C455 C457 1.392 . S
C455 H462 0.930 . S
N456 C453 1.329 . S
N456 C457 1.331 . S
C457 C455 1.392 . S
C457 N456 1.331 . S
O458 Zn451 1.975 . S
O458 C459 1.252 . S
C459 O458 1.252 . S
C459 O460 1.252 . S
O460 Zn442 1.975 . S
O460 C459 1.252 . S
H461 C454 0.930 . S
H462 C455 0.930 . S
C463 C464 1.392 . S
C463 N467 1.328 . S
C463 H469 0.930 . S
C464 C463 1.392 . S
C464 N468 1.331 . S
C465 C466 1.391 . S
C465 N468 1.329 . S
C465 H475 0.930 . S
C466 C465 1.391 . S
C466 N467 1.334 . S
C466 H473 0.930 . S
N467 Zn451 2.119 . S
N467 C463 1.328 . S
N467 C466 1.334 . S
N468 C464 1.331 . S
N468 C465 1.329 . S
H469 C463 0.930 . S
C470 O450 1.257 . S
C470 O471 1.244 . S
O471 C470 1.244 . S
O472 C448 1.257 . S
O472 Zn451 2.019 . S
H473 C466 0.930 . S
H474 C453 0.930 1_455 S
H475 C465 0.930 . S
Zn476 N480 2.020 . S
Zn476 O484 2.019 . S
Zn476 N486 2.119 . S
Zn476 O494 1.975 . S
C477 N478 1.334 . S
C477 N481 1.336 . S
N478 C477 1.334 . S
N478 C479 1.334 . S
C479 N478 1.334 . S
C479 N480 1.336 . S
N480 Zn476 2.020 . S
N480 C479 1.336 . S
N480 N481 1.354 . S
N481 C477 1.336 . S
N481 N480 1.354 . S
N481 Zn485 2.020 . S
C482 O483 1.244 . S
C482 O506 1.257 . S
O483 C482 1.244 . S
O484 Zn476 2.019 . S
O484 C504 1.257 . S
Zn485 N481 2.020 . S
Zn485 O492 1.975 . S
Zn485 N501 2.119 . S
Zn485 O506 2.019 . S
N486 Zn476 2.119 . S
N486 C488 1.334 . S
N486 C489 1.328 . S
C487 C488 1.391 . S
C487 N490 1.329 . S
C487 H508 0.930 1_545 S
C488 N486 1.334 . S
C488 C487 1.391 . S
C488 H495 0.930 . S
C489 N486 1.328 . S
C489 C491 1.392 . S
C489 H496 0.930 . S
N490 C487 1.329 . S
N490 C491 1.331 . S
C491 C489 1.392 . S
C491 N490 1.331 . S
O492 Zn485 1.975 . S
O492 C493 1.252 . S
C493 O492 1.252 . S
C493 O494 1.252 . S
O494 Zn476 1.975 . S
O494 C493 1.252 . S
H495 C488 0.930 . S
H496 C489 0.930 . S
C497 C498 1.392 . S
C497 N501 1.328 . S
C497 H503 0.930 . S
C498 C497 1.392 . S
C498 N502 1.331 . S
C499 C500 1.391 . S
C499 N502 1.329 . S
C499 H509 0.930 . S
C500 C499 1.391 . S
C500 N501 1.334 . S
C500 H507 0.930 . S
N501 Zn485 2.119 . S
N501 C497 1.328 . S
N501 C500 1.334 . S
N502 C498 1.331 . S
N502 C499 1.329 . S
H503 C497 0.930 . S
C504 O484 1.257 . S
C504 O505 1.244 . S
O505 C504 1.244 . S
O506 C482 1.257 . S
O506 Zn485 2.019 . S
H507 C500 0.930 . S
H508 C487 0.930 1_565 S
H509 C499 0.930 . S
Zn510 N514 2.020 . S
Zn510 O518 2.019 . S
Zn510 N520 2.119 . S
Zn510 O528 1.975 . S
C511 N512 1.334 . S
C511 N515 1.336 . S
N512 C511 1.334 . S
N512 C513 1.334 . S
C513 N512 1.334 . S
C513 N514 1.336 . S
N514 Zn510 2.020 . S
N514 C513 1.336 . S
N514 N515 1.354 . S
N515 C511 1.336 . S
N515 N514 1.354 . S
N515 Zn519 2.020 . S
C516 O517 1.244 . S
C516 O540 1.257 . S
O517 C516 1.244 . S
O518 Zn510 2.019 . S
O518 C538 1.257 . S
Zn519 N515 2.020 . S
Zn519 O526 1.975 . S
Zn519 N535 2.119 . S
Zn519 O540 2.019 . S
N520 Zn510 2.119 . S
N520 C522 1.334 . S
N520 C523 1.328 . S
C521 C522 1.391 . S
C521 N524 1.329 . S
C521 H542 0.930 . S
C522 N520 1.334 . S
C522 C521 1.391 . S
C522 H529 0.930 . S
C523 N520 1.328 . S
C523 C525 1.392 . S
C523 H530 0.930 . S
N524 C521 1.329 . S
N524 C525 1.331 . S
C525 C523 1.392 . S
C525 N524 1.331 . S
O526 Zn519 1.975 . S
O526 C527 1.252 . S
C527 O526 1.252 . S
C527 O528 1.252 . S
O528 Zn510 1.975 . S
O528 C527 1.252 . S
H529 C522 0.930 . S
H530 C523 0.930 . S
C531 C532 1.392 . S
C531 N535 1.328 . S
C531 H537 0.930 . S
C532 C531 1.392 . S
C532 N536 1.331 . S
C533 C534 1.391 . S
C533 N536 1.329 . S
C533 H543 0.930 1_455 S
C534 C533 1.391 . S
C534 N535 1.334 . S
C534 H541 0.930 . S
N535 Zn519 2.119 . S
N535 C531 1.328 . S
N535 C534 1.334 . S
N536 C532 1.331 . S
N536 C533 1.329 . S
H537 C531 0.930 . S
C538 O518 1.257 . S
C538 O539 1.244 . S
O539 C538 1.244 . S
O540 C516 1.257 . S
O540 Zn519 2.019 . S
H541 C534 0.930 . S
H542 C521 0.930 . S
H543 C533 0.930 1_655 S
H544 C552 0.950 . S
H545 C557 0.950 . S
H546 C554 0.950 . S
H547 C556 0.950 . S
H548 C558 0.950 . S
H549 C560 0.950 . S
H550 C562 0.950 . S
H551 C563 0.950 . S
C552 H544 0.950 . S
C552 C553 1.386 . S
C552 C554 1.391 . S
C553 C552 1.386 . S
C553 C557 1.393 . S
C554 H546 0.950 . S
C554 C552 1.391 . S
C554 C555 1.400 . S
C555 C554 1.400 . S
C555 C556 1.398 . S
C555 C561 1.491 1_565 S
C556 H547 0.950 . S
C556 C555 1.398 . S
C556 C557 1.391 . S
C557 H545 0.950 . S
C557 C553 1.393 . S
C557 C556 1.391 . S
C558 H548 0.950 . S
C558 C559 1.386 . S
C558 C560 1.391 . S
C559 C558 1.386 . S
C559 C563 1.393 . S
C560 H549 0.950 . S
C560 C558 1.391 . S
C560 C561 1.400 . S
C561 C555 1.491 1_545 S
C561 C560 1.400 . S
C561 C562 1.398 . S
C562 H550 0.950 . S
C562 C561 1.398 . S
C562 C563 1.391 . S
C563 H551 0.950 . S
C563 C559 1.393 . S
C563 C562 1.391 . S
H564 C572 0.950 . S
H565 C577 0.950 . S
H566 C574 0.949 1_455 S
H567 C576 0.950 . S
H568 C578 0.950 . S
H569 C580 0.949 1_655 S
H570 C582 0.950 . S
H571 C583 0.950 . S
C572 H564 0.950 . S
C572 C573 1.386 . S
C572 C574 1.392 . S
C573 C572 1.386 . S
C573 C577 1.393 . S
C574 H566 0.949 1_655 S
C574 C572 1.392 . S
C574 C575 1.401 . S
C575 C574 1.401 . S
C575 C576 1.398 . S
C575 C581 1.491 1_655 S
C576 H567 0.950 . S
C576 C575 1.398 . S
C576 C577 1.391 . S
C577 H565 0.950 . S
C577 C573 1.393 . S
C577 C576 1.391 . S
C578 H568 0.950 . S
C578 C579 1.386 . S
C578 C580 1.392 . S
C579 C578 1.386 . S
C579 C583 1.393 . S
C580 H569 0.949 1_455 S
C580 C578 1.392 . S
C580 C581 1.401 . S
C581 C575 1.491 1_455 S
C581 C580 1.401 . S
C581 C582 1.398 . S
C582 H570 0.950 . S
C582 C581 1.398 . S
C582 C583 1.391 . S
C583 H571 0.950 . S
C583 C579 1.393 . S
C583 C582 1.391 . S
H584 C592 0.950 . S
H585 C597 0.950 . S
H586 C594 0.950 . S
H587 C596 0.950 . S
H588 C598 0.950 . S
H589 C600 0.950 . S
H590 C602 0.950 . S
H591 C603 0.950 . S
C592 H584 0.950 . S
C592 C593 1.386 . S
C592 C594 1.391 . S
C593 C592 1.386 . S
C593 C597 1.393 . S
C594 H586 0.950 . S
C594 C592 1.391 . S
C594 C595 1.400 . S
C595 C594 1.400 . S
C595 C596 1.398 . S
C595 C601 1.491 . S
C596 H587 0.950 . S
C596 C595 1.398 . S
C596 C597 1.391 . S
C597 H585 0.950 . S
C597 C593 1.393 . S
C597 C596 1.391 . S
C598 H588 0.950 . S
C598 C599 1.386 . S
C598 C600 1.391 . S
C599 C598 1.386 . S
C599 C603 1.393 . S
C600 H589 0.950 . S
C600 C598 1.391 . S
C600 C601 1.400 . S
C601 C595 1.491 . S
C601 C600 1.400 . S
C601 C602 1.398 . S
C602 H590 0.950 . S
C602 C601 1.398 . S
C602 C603 1.391 . S
C603 H591 0.950 . S
C603 C599 1.393 . S
C603 C602 1.391 . S
H604 C612 0.950 . S
H605 C617 0.950 . S
H606 C614 0.950 . S
H607 C616 0.950 . S
H608 C618 0.950 . S
H609 C620 0.950 . S
H610 C622 0.950 . S
H611 C623 0.950 . S
C612 H604 0.950 . S
C612 C613 1.386 . S
C612 C614 1.391 . S
C613 C612 1.386 . S
C613 C617 1.393 . S
C614 H606 0.950 . S
C614 C612 1.391 . S
C614 C615 1.400 . S
C615 C614 1.400 . S
C615 C616 1.398 . S
C615 C621 1.491 . S
C616 H607 0.950 . S
C616 C615 1.398 . S
C616 C617 1.391 . S
C617 H605 0.950 . S
C617 C613 1.393 . S
C617 C616 1.391 . S
C618 H608 0.950 . S
C618 C619 1.386 . S
C618 C620 1.391 . S
C619 C618 1.386 . S
C619 C623 1.393 . S
C620 H609 0.950 . S
C620 C618 1.391 . S
C620 C621 1.400 . S
C621 C615 1.491 . S
C621 C620 1.400 . S
C621 C622 1.398 . S
C622 H610 0.950 . S
C622 C621 1.398 . S
C622 C623 1.391 . S
C623 H611 0.950 . S
C623 C619 1.393 . S
C623 C622 1.391 . S
H624 C632 0.950 . S
H625 C637 0.950 . S
H626 C634 0.950 . S
H627 C636 0.928 1_455 S
H628 C638 0.950 . S
H629 C640 0.950 . S
H630 C642 0.928 1_655 S
H631 C643 0.950 . S
C632 H624 0.950 . S
C632 C633 1.386 . S
C632 C634 1.391 . S
C633 C632 1.386 . S
C633 C637 1.393 . S
C634 H626 0.950 . S
C634 C632 1.391 . S
C634 C635 1.400 . S
C635 C634 1.400 . S
C635 C636 1.398 . S
C635 C641 1.491 1_655 S
C636 H627 0.928 1_655 S
C636 C635 1.398 . S
C636 C637 1.391 . S
C637 H625 0.950 . S
C637 C633 1.393 . S
C637 C636 1.391 . S
C638 H628 0.950 . S
C638 C639 1.386 . S
C638 C640 1.391 . S
C639 C638 1.386 . S
C639 C643 1.393 . S
C640 H629 0.950 . S
C640 C638 1.391 . S
C640 C641 1.400 . S
C641 C635 1.491 1_455 S
C641 C640 1.400 . S
C641 C642 1.398 . S
C642 H630 0.928 1_455 S
C642 C641 1.398 . S
C642 C643 1.391 . S
C643 H631 0.950 . S
C643 C639 1.393 . S
C643 C642 1.391 . S
H644 C652 0.950 . S
H645 C657 0.950 . S
H646 C654 0.950 1_545 S
H647 C656 0.950 . S
H648 C658 0.950 . S
H649 C660 0.950 1_565 S
H650 C662 0.950 . S
H651 C663 0.950 . S
C652 H644 0.950 . S
C652 C653 1.386 . S
C652 C654 1.391 . S
C653 C652 1.386 . S
C653 C657 1.393 . S
C654 H646 0.950 1_565 S
C654 C652 1.391 . S
C654 C655 1.400 . S
C655 C654 1.400 . S
C655 C656 1.398 . S
C655 C661 1.491 1_565 S
C656 H647 0.950 . S
C656 C655 1.398 . S
C656 C657 1.391 . S
C657 H645 0.950 . S
C657 C653 1.393 . S
C657 C656 1.391 . S
C658 H648 0.950 . S
C658 C659 1.386 . S
C658 C660 1.391 . S
C659 C658 1.386 . S
C659 C663 1.393 . S
C660 H649 0.950 1_545 S
C660 C658 1.391 . S
C660 C661 1.400 . S
C661 C655 1.491 1_545 S
C661 C660 1.400 . S
C661 C662 1.398 . S
C662 H650 0.950 . S
C662 C661 1.398 . S
C662 C663 1.391 . S
C663 H651 0.950 . S
C663 C659 1.393 . S
C663 C662 1.391 . S
H664 C672 0.950 . S
H665 C677 0.950 . S
H666 C674 0.950 . S
H667 C676 0.950 . S
H668 C678 0.950 . S
H669 C680 0.950 . S
H670 C682 0.950 . S
H671 C683 0.950 . S
C672 H664 0.950 . S
C672 C673 1.386 . S
C672 C674 1.391 . S
C673 C672 1.386 . S
C673 C677 1.393 . S
C674 H666 0.950 . S
C674 C672 1.391 . S
C674 C675 1.400 . S
C675 C674 1.400 . S
C675 C676 1.398 . S
C675 C681 1.491 1_665 S
C676 H667 0.950 . S
C676 C675 1.398 . S
C676 C677 1.391 . S
C677 H665 0.950 . S
C677 C673 1.393 . S
C677 C676 1.391 . S
C678 H668 0.950 . S
C678 C679 1.386 . S
C678 C680 1.391 . S
C679 C678 1.386 . S
C679 C683 1.393 . S
C680 H669 0.950 . S
C680 C678 1.391 . S
C680 C681 1.400 . S
C681 C675 1.491 1_445 S
C681 C680 1.400 . S
C681 C682 1.398 . S
C682 H670 0.950 . S
C682 C681 1.398 . S
C682 C683 1.391 . S
C683 H671 0.950 . S
C683 C679 1.393 . S
C683 C682 1.391 . S
H684 C692 0.950 . S
H685 C697 0.950 . S
H686 C694 0.950 1_655 S
H687 C696 0.950 . S
H688 C698 0.950 . S
H689 C700 0.950 1_455 S
H690 C702 0.950 . S
H691 C703 0.950 . S
C692 H684 0.950 . S
C692 C693 1.386 . S
C692 C694 1.391 . S
C693 C692 1.386 . S
C693 C697 1.393 . S
C694 H686 0.950 1_455 S
C694 C692 1.391 . S
C694 C695 1.400 . S
C695 C694 1.400 . S
C695 C696 1.398 . S
C695 C701 1.491 1_465 S
C696 H687 0.950 . S
C696 C695 1.398 . S
C696 C697 1.391 . S
C697 H685 0.950 . S
C697 C693 1.393 . S
C697 C696 1.391 . S
C698 H688 0.950 . S
C698 C699 1.386 . S
C698 C700 1.391 . S
C699 C698 1.386 . S
C699 C703 1.393 . S
C700 H689 0.950 1_655 S
C700 C698 1.391 . S
C700 C701 1.400 . S
C701 C695 1.491 1_645 S
C701 C700 1.400 . S
C701 C702 1.398 . S
C702 H690 0.950 . S
C702 C701 1.398 . S
C702 C703 1.391 . S
C703 H691 0.950 . S
C703 C699 1.393 . S
C703 C702 1.391 . S
H704 C712 0.950 . S
H705 C717 0.950 . S
H706 C714 0.950 . S
H707 C716 0.950 . S
H708 C718 0.950 . S
H709 C720 0.950 . S
H710 C722 0.950 . S
H711 C723 0.950 . S
C712 H704 0.950 . S
C712 C713 1.386 . S
C712 C714 1.391 . S
C713 C712 1.386 . S
C713 C717 1.393 . S
C714 H706 0.950 . S
C714 C712 1.391 . S
C714 C715 1.400 . S
C715 C714 1.400 . S
C715 C716 1.398 . S
C715 C721 1.491 . S
C716 H707 0.950 . S
C716 C715 1.398 . S
C716 C717 1.391 . S
C717 H705 0.950 . S
C717 C713 1.393 . S
C717 C716 1.391 . S
C718 H708 0.950 . S
C718 C719 1.386 . S
C718 C720 1.391 . S
C719 C718 1.386 . S
C719 C723 1.393 . S
C720 H709 0.950 . S
C720 C718 1.391 . S
C720 C721 1.400 . S
C721 C715 1.491 . S
C721 C720 1.400 . S
C721 C722 1.398 . S
C722 H710 0.950 . S
C722 C721 1.398 . S
C722 C723 1.391 . S
C723 H711 0.950 . S
C723 C719 1.393 . S
C723 C722 1.391 . S
H724 C732 0.950 . S
H725 C737 0.950 . S
H726 C734 0.950 . S
H727 C736 0.950 . S
H728 C738 0.950 . S
H729 C740 0.950 . S
H730 C742 0.950 . S
H731 C743 0.950 . S
C732 H724 0.950 . S
C732 C733 1.386 . S
C732 C734 1.391 . S
C733 C732 1.386 . S
C733 C737 1.393 . S
C734 H726 0.950 . S
C734 C732 1.391 . S
C734 C735 1.400 . S
C735 C734 1.400 . S
C735 C736 1.398 . S
C735 C741 1.491 . S
C736 H727 0.950 . S
C736 C735 1.398 . S
C736 C737 1.391 . S
C737 H725 0.950 . S
C737 C733 1.393 . S
C737 C736 1.391 . S
C738 H728 0.950 . S
C738 C739 1.386 . S
C738 C740 1.391 . S
C739 C738 1.386 . S
C739 C743 1.393 . S
C740 H729 0.950 . S
C740 C738 1.391 . S
C740 C741 1.400 . S
C741 C735 1.491 . S
C741 C740 1.400 . S
C741 C742 1.398 . S
C742 H730 0.950 . S
C742 C741 1.398 . S
C742 C743 1.391 . S
C743 H731 0.950 . S
C743 C739 1.393 . S
C743 C742 1.391 . S
H744 C752 0.950 . S
H745 C757 0.950 . S
H746 C754 0.950 . S
H747 C756 0.950 . S
H748 C758 0.950 . S
H749 C760 0.950 . S
H750 C762 0.950 . S
H751 C763 0.950 . S
C752 H744 0.950 . S
C752 C753 1.386 . S
C752 C754 1.391 . S
C753 C752 1.386 . S
C753 C757 1.393 . S
C754 H746 0.950 . S
C754 C752 1.391 . S
C754 C755 1.400 . S
C755 C754 1.400 . S
C755 C756 1.398 . S
C755 C761 1.491 . S
C756 H747 0.950 . S
C756 C755 1.398 . S
C756 C757 1.391 . S
C757 H745 0.950 . S
C757 C753 1.393 . S
C757 C756 1.391 . S
C758 H748 0.950 . S
C758 C759 1.386 . S
C758 C760 1.391 . S
C759 C758 1.386 . S
C759 C763 1.393 . S
C760 H749 0.950 . S
C760 C758 1.391 . S
C760 C761 1.400 . S
C761 C755 1.491 . S
C761 C760 1.400 . S
C761 C762 1.398 . S
C762 H750 0.950 . S
C762 C761 1.398 . S
C762 C763 1.391 . S
C763 H751 0.950 . S
C763 C759 1.393 . S
C763 C762 1.391 . S
H764 C772 0.950 . S
H765 C777 0.950 . S
H766 C774 0.950 . S
H767 C776 0.950 . S
H768 C778 0.950 . S
H769 C780 0.950 . S
H770 C782 0.950 . S
H771 C783 0.950 . S
C772 H764 0.950 . S
C772 C773 1.386 . S
C772 C774 1.391 . S
C773 C772 1.386 . S
C773 C777 1.393 . S
C774 H766 0.950 . S
C774 C772 1.391 . S
C774 C775 1.400 . S
C775 C774 1.400 . S
C775 C776 1.398 . S
C775 C781 1.491 . S
C776 H767 0.950 . S
C776 C775 1.398 . S
C776 C777 1.391 . S
C777 H765 0.950 . S
C777 C773 1.393 . S
C777 C776 1.391 . S
C778 H768 0.950 . S
C778 C779 1.386 . S
C778 C780 1.391 . S
C779 C778 1.386 . S
C779 C783 1.393 . S
C780 H769 0.950 . S
C780 C778 1.391 . S
C780 C781 1.400 . S
C781 C775 1.491 . S
C781 C780 1.400 . S
C781 C782 1.398 . S
C782 H770 0.950 . S
C782 C781 1.398 . S
C782 C783 1.391 . S
C783 H771 0.950 . S
C783 C779 1.393 . S
C783 C782 1.391 . S
H784 C792 0.950 . S
H785 C797 0.950 . S
H786 C794 0.950 . S
H787 C796 0.950 . S
H788 C798 0.950 . S
H789 C800 0.950 . S
H790 C802 0.950 . S
H791 C803 0.950 . S
C792 H784 0.950 . S
C792 C793 1.386 . S
C792 C794 1.391 . S
C793 C792 1.386 . S
C793 C797 1.393 . S
C794 H786 0.950 . S
C794 C792 1.391 . S
C794 C795 1.400 . S
C795 C794 1.400 . S
C795 C796 1.398 . S
C795 C801 1.491 . S
C796 H787 0.950 . S
C796 C795 1.398 . S
C796 C797 1.391 . S
C797 H785 0.950 . S
C797 C793 1.393 . S
C797 C796 1.391 . S
C798 H788 0.950 . S
C798 C799 1.386 . S
C798 C800 1.391 . S
C799 C798 1.386 . S
C799 C803 1.393 . S
C800 H789 0.950 . S
C800 C798 1.391 . S
C800 C801 1.400 . S
C801 C795 1.491 . S
C801 C800 1.400 . S
C801 C802 1.398 . S
C802 H790 0.950 . S
C802 C801 1.398 . S
C802 C803 1.391 . S
C803 H791 0.950 . S
C803 C799 1.393 . S
C803 C802 1.391 . S
H804 C812 0.950 . S
H805 C817 0.950 . S
H806 C814 0.950 . S
H807 C816 0.950 . S
H808 C818 0.950 . S
H809 C820 0.950 . S
H810 C822 0.950 . S
H811 C823 0.950 . S
C812 H804 0.950 . S
C812 C813 1.386 . S
C812 C814 1.391 . S
C813 C812 1.386 . S
C813 C817 1.393 . S
C814 H806 0.950 . S
C814 C812 1.391 . S
C814 C815 1.400 . S
C815 C814 1.400 . S
C815 C816 1.398 . S
C815 C821 1.491 . S
C816 H807 0.950 . S
C816 C815 1.398 . S
C816 C817 1.391 . S
C817 H805 0.950 . S
C817 C813 1.393 . S
C817 C816 1.391 . S
C818 H808 0.950 . S
C818 C819 1.386 . S
C818 C820 1.391 . S
C819 C818 1.386 . S
C819 C823 1.393 . S
C820 H809 0.950 . S
C820 C818 1.391 . S
C820 C821 1.400 . S
C821 C815 1.491 . S
C821 C820 1.400 . S
C821 C822 1.398 . S
C822 H810 0.950 . S
C822 C821 1.398 . S
C822 C823 1.391 . S
C823 H811 0.950 . S
C823 C819 1.393 . S
C823 C822 1.391 . S
H824 C832 0.950 . S
H825 C837 0.950 . S
H826 C834 0.950 . S
H827 C836 0.950 . S
H828 C838 0.950 . S
H829 C840 0.950 . S
H830 C842 0.950 . S
H831 C843 0.950 . S
C832 H824 0.950 . S
C832 C833 1.386 . S
C832 C834 1.391 . S
C833 C832 1.386 . S
C833 C837 1.393 . S
C834 H826 0.950 . S
C834 C832 1.391 . S
C834 C835 1.400 . S
C835 C834 1.400 . S
C835 C836 1.398 . S
C835 C841 1.491 . S
C836 H827 0.950 . S
C836 C835 1.398 . S
C836 C837 1.391 . S
C837 H825 0.950 . S
C837 C833 1.393 . S
C837 C836 1.391 . S
C838 H828 0.950 . S
C838 C839 1.386 . S
C838 C840 1.391 . S
C839 C838 1.386 . S
C839 C843 1.393 . S
C840 H829 0.950 . S
C840 C838 1.391 . S
C840 C841 1.400 . S
C841 C835 1.491 . S
C841 C840 1.400 . S
C841 C842 1.398 . S
C842 H830 0.950 . S
C842 C841 1.398 . S
C842 C843 1.391 . S
C843 H831 0.950 . S
C843 C839 1.393 . S
C843 C842 1.391 . S
H844 C852 0.950 . S
H845 C857 0.950 . S
H846 C854 0.950 . S
H847 C856 0.950 . S
H848 C858 0.950 . S
H849 C860 0.950 . S
H850 C862 0.950 . S
H851 C863 0.950 . S
C852 H844 0.950 . S
C852 C853 1.386 . S
C852 C854 1.391 . S
C853 C852 1.386 . S
C853 C857 1.393 . S
C854 H846 0.950 . S
C854 C852 1.391 . S
C854 C855 1.400 . S
C855 C854 1.400 . S
C855 C856 1.398 . S
C855 C861 1.491 . S
C856 H847 0.950 . S
C856 C855 1.398 . S
C856 C857 1.391 . S
C857 H845 0.950 . S
C857 C853 1.393 . S
C857 C856 1.391 . S
C858 H848 0.950 . S
C858 C859 1.386 . S
C858 C860 1.391 . S
C859 C858 1.386 . S
C859 C863 1.393 . S
C860 H849 0.950 . S
C860 C858 1.391 . S
C860 C861 1.400 . S
C861 C855 1.491 . S
C861 C860 1.400 . S
C861 C862 1.398 . S
C862 H850 0.950 . S
C862 C861 1.398 . S
C862 C863 1.391 . S
C863 H851 0.950 . S
C863 C859 1.393 . S
C863 C862 1.391 . S
H864 C872 0.950 . S
H865 C877 0.950 . S
H866 C874 0.950 . S
H867 C876 0.950 1_545 S
H868 C878 0.950 . S
H869 C880 0.950 . S
H870 C882 0.950 . S
H871 C883 0.950 . S
C872 H864 0.950 . S
C872 C873 1.386 1_565 S
C872 C874 1.391 . S
C873 C872 1.386 1_545 S
C873 C877 1.393 . S
C874 H866 0.950 . S
C874 C872 1.391 . S
C874 C875 1.400 . S
C875 C874 1.400 . S
C875 C876 1.398 . S
C875 C881 1.491 . S
C876 H867 0.950 1_565 S
C876 C875 1.398 . S
C876 C877 1.391 1_565 S
C877 H865 0.950 . S
C877 C873 1.393 . S
C877 C876 1.391 1_545 S
C878 H868 0.950 . S
C878 C879 1.386 . S
C878 C880 1.391 . S
C879 C878 1.386 . S
C879 C883 1.393 . S
C880 H869 0.950 . S
C880 C878 1.391 . S
C880 C881 1.400 . S
C881 C875 1.491 . S
C881 C880 1.400 . S
C881 C882 1.398 . S
C882 H870 0.950 . S
C882 C881 1.398 . S
C882 C883 1.391 . S
C883 H871 0.950 . S
C883 C879 1.393 . S
C883 C882 1.391 . S
H884 C892 0.950 . S
H885 C897 0.950 . S
H886 C894 0.950 . S
H887 C896 0.950 . S
H888 C898 0.950 . S
H889 C900 0.950 . S
H890 C902 0.950 . S
H891 C903 0.950 . S
C892 H884 0.950 . S
C892 C893 1.386 . S
C892 C894 1.391 1_455 S
C893 C892 1.386 . S
C893 C897 1.393 1_455 S
C894 H886 0.950 . S
C894 C892 1.391 1_655 S
C894 C895 1.400 . S
C895 C894 1.400 . S
C895 C896 1.398 . S
C895 C901 1.491 . S
C896 H887 0.950 . S
C896 C895 1.398 . S
C896 C897 1.391 . S
C897 H885 0.950 . S
C897 C893 1.393 1_655 S
C897 C896 1.391 . S
C898 H888 0.950 . S
C898 C899 1.386 . S
C898 C900 1.391 . S
C899 C898 1.386 . S
C899 C903 1.393 . S
C900 H889 0.950 . S
C900 C898 1.391 . S
C900 C901 1.400 . S
C901 C895 1.491 . S
C901 C900 1.400 . S
C901 C902 1.398 . S
C902 H890 0.950 . S
C902 C901 1.398 . S
C902 C903 1.391 . S
C903 H891 0.950 . S
C903 C899 1.393 . S
C903 C902 1.391 . S
H904 C912 0.950 . S
H905 C917 0.950 . S
H906 C914 0.950 . S
H907 C916 0.950 . S
H908 C918 0.950 . S
H909 C920 0.950 . S
H910 C922 0.950 . S
H911 C923 0.950 . S
C912 H904 0.950 . S
C912 C913 1.386 . S
C912 C914 1.391 . S
C913 C912 1.386 . S
C913 C917 1.393 . S
C914 H906 0.950 . S
C914 C912 1.391 . S
C914 C915 1.400 . S
C915 C914 1.400 . S
C915 C916 1.398 . S
C915 C921 1.491 . S
C916 H907 0.950 . S
C916 C915 1.398 . S
C916 C917 1.391 . S
C917 H905 0.950 . S
C917 C913 1.393 . S
C917 C916 1.391 . S
C918 H908 0.950 . S
C918 C919 1.386 . S
C918 C920 1.391 1_565 S
C919 C918 1.386 . S
C919 C923 1.393 1_565 S
C920 H909 0.950 . S
C920 C918 1.391 1_545 S
C920 C921 1.400 . S
C921 C915 1.491 . S
C921 C920 1.400 . S
C921 C922 1.398 . S
C922 H910 0.950 . S
C922 C921 1.398 . S
C922 C923 1.391 . S
C923 H911 0.950 . S
C923 C919 1.393 1_545 S
C923 C922 1.391 . S
H924 C932 0.950 . S
H925 C937 0.950 . S
H926 C934 0.950 . S
H927 C936 0.950 . S
H928 C938 0.950 . S
H929 C940 0.945 1_655 S
H930 C942 0.950 . S
H931 C943 0.950 . S
C932 H924 0.950 . S
C932 C933 1.386 . S
C932 C934 1.391 . S
C933 C932 1.386 . S
C933 C937 1.393 . S
C934 H926 0.950 . S
C934 C932 1.391 . S
C934 C935 1.400 . S
C935 C934 1.400 . S
C935 C936 1.398 . S
C935 C941 1.491 . S
C936 H927 0.950 . S
C936 C935 1.398 . S
C936 C937 1.391 . S
C937 H925 0.950 . S
C937 C933 1.393 . S
C937 C936 1.391 . S
C938 H928 0.950 . S
C938 C939 1.386 . S
C938 C940 1.391 1_655 S
C939 C938 1.386 . S
C939 C943 1.393 1_655 S
C940 H929 0.945 1_455 S
C940 C938 1.391 1_455 S
C940 C941 1.400 . S
C941 C935 1.491 . S
C941 C940 1.400 . S
C941 C942 1.398 . S
C942 H930 0.950 . S
C942 C941 1.398 . S
C942 C943 1.391 . S
C943 H931 0.950 . S
C943 C939 1.393 1_455 S
C943 C942 1.391 . S
H944 C952 0.950 . S
H945 C957 0.950 . S
H946 C954 0.950 . S
H947 C956 0.950 . S
H948 C958 0.950 . S
H949 C960 0.950 . S
H950 C962 0.950 . S
H951 C963 0.950 . S
C952 H944 0.950 . S
C952 C953 1.386 . S
C952 C954 1.391 . S
C953 C952 1.386 . S
C953 C957 1.393 . S
C954 H946 0.950 . S
C954 C952 1.391 . S
C954 C955 1.400 . S
C955 C954 1.400 . S
C955 C956 1.398 . S
C955 C961 1.491 . S
C956 H947 0.950 . S
C956 C955 1.398 . S
C956 C957 1.391 . S
C957 H945 0.950 . S
C957 C953 1.393 . S
C957 C956 1.391 . S
C958 H948 0.950 . S
C958 C959 1.386 . S
C958 C960 1.391 . S
C959 C958 1.386 . S
C959 C963 1.393 . S
C960 H949 0.950 . S
C960 C958 1.391 . S
C960 C961 1.400 . S
C961 C955 1.491 . S
C961 C960 1.400 . S
C961 C962 1.398 . S
C962 H950 0.950 . S
C962 C961 1.398 . S
C962 C963 1.391 . S
C963 H951 0.950 . S
C963 C959 1.393 . S
C963 C962 1.391 . S
H964 C972 0.950 . S
H965 C977 0.950 . S
H966 C974 0.950 . S
H967 C976 0.950 . S
H968 C978 0.950 . S
H969 C980 0.950 . S
H970 C982 0.950 . S
H971 C983 0.950 . S
C972 H964 0.950 . S
C972 C973 1.386 . S
C972 C974 1.391 . S
C973 C972 1.386 . S
C973 C977 1.393 . S
C974 H966 0.950 . S
C974 C972 1.391 . S
C974 C975 1.400 . S
C975 C974 1.400 . S
C975 C976 1.398 . S
C975 C981 1.491 . S
C976 H967 0.950 . S
C976 C975 1.398 . S
C976 C977 1.391 . S
C977 H965 0.950 . S
C977 C973 1.393 . S
C977 C976 1.391 . S
C978 H968 0.950 . S
C978 C979 1.386 . S
C978 C980 1.391 . S
C979 C978 1.386 . S
C979 C983 1.393 . S
C980 H969 0.950 . S
C980 C978 1.391 . S
C980 C981 1.400 . S
C981 C975 1.491 . S
C981 C980 1.400 . S
C981 C982 1.398 . S
C982 H970 0.950 . S
C982 C981 1.398 . S
C982 C983 1.391 . S
C983 H971 0.950 . S
C983 C979 1.393 . S
C983 C982 1.391 . S
H984 C992 0.950 . S
H985 C997 0.950 . S
H986 C994 0.950 . S
H987 C996 0.950 . S
H988 C998 0.950 . S
H989 C1000 0.950 . S
H990 C1002 0.950 . S
H991 C1003 0.950 . S
C992 H984 0.950 . S
C992 C993 1.386 . S
C992 C994 1.391 . S
C993 C992 1.386 . S
C993 C997 1.393 . S
C994 H986 0.950 . S
C994 C992 1.391 . S
C994 C995 1.400 . S
C995 C994 1.400 . S
C995 C996 1.398 . S
C995 C1001 1.491 . S
C996 H987 0.950 . S
C996 C995 1.398 . S
C996 C997 1.391 . S
C997 H985 0.950 . S
C997 C993 1.393 . S
C997 C996 1.391 . S
C998 H988 0.950 . S
C998 C999 1.386 . S
C998 C1000 1.391 . S
C999 C998 1.386 . S
C999 C1003 1.393 . S
C1000 H989 0.950 . S
C1000 C998 1.391 . S
C1000 C1001 1.400 . S
C1001 C995 1.491 . S
C1001 C1000 1.400 . S
C1001 C1002 1.398 . S
C1002 H990 0.950 . S
C1002 C1001 1.398 . S
C1002 C1003 1.391 . S
C1003 H991 0.950 . S
C1003 C999 1.393 . S
C1003 C1002 1.391 . S
H1004 C1012 0.950 1_554 S
H1005 C1017 0.950 . S
H1006 C1014 0.950 . S
H1007 C1016 0.950 . S
H1008 C1018 0.950 . S
H1009 C1020 0.950 . S
H1010 C1022 0.950 . S
H1011 C1023 0.950 . S
C1012 H1004 0.950 1_556 S
C1012 C1013 1.386 . S
C1012 C1014 1.391 . S
C1013 C1012 1.386 . S
C1013 C1017 1.393 . S
C1014 H1006 0.950 . S
C1014 C1012 1.391 . S
C1014 C1015 1.400 . S
C1015 C1014 1.400 . S
C1015 C1016 1.398 . S
C1015 C1021 1.491 . S
C1016 H1007 0.950 . S
C1016 C1015 1.398 . S
C1016 C1017 1.391 . S
C1017 H1005 0.950 . S
C1017 C1013 1.393 . S
C1017 C1016 1.391 . S
C1018 H1008 0.950 . S
C1018 C1019 1.386 . S
C1018 C1020 1.391 . S
C1019 C1018 1.386 . S
C1019 C1023 1.393 . S
C1020 H1009 0.950 . S
C1020 C1018 1.391 . S
C1020 C1021 1.400 . S
C1021 C1015 1.491 . S
C1021 C1020 1.400 . S
C1021 C1022 1.398 . S
C1022 H1010 0.950 . S
C1022 C1021 1.398 . S
C1022 C1023 1.391 . S
C1023 H1011 0.950 . S
C1023 C1019 1.393 . S
C1023 C1022 1.391 . S
H1024 C1032 0.950 . S
H1025 C1037 0.950 . S
H1026 C1034 0.950 . S
H1027 C1036 0.950 . S
H1028 C1038 0.950 . S
H1029 C1040 0.950 . S
H1030 C1042 0.950 . S
H1031 C1043 0.950 . S
C1032 H1024 0.950 . S
C1032 C1033 1.386 . S
C1032 C1034 1.391 . S
C1033 C1032 1.386 . S
C1033 C1037 1.393 . S
C1034 H1026 0.950 . S
C1034 C1032 1.391 . S
C1034 C1035 1.400 . S
C1035 C1034 1.400 . S
C1035 C1036 1.398 . S
C1035 C1041 1.491 . S
C1036 H1027 0.950 . S
C1036 C1035 1.398 . S
C1036 C1037 1.391 . S
C1037 H1025 0.950 . S
C1037 C1033 1.393 . S
C1037 C1036 1.391 . S
C1038 H1028 0.950 . S
C1038 C1039 1.386 . S
C1038 C1040 1.391 . S
C1039 C1038 1.386 . S
C1039 C1043 1.393 . S
C1040 H1029 0.950 . S
C1040 C1038 1.391 . S
C1040 C1041 1.400 . S
C1041 C1035 1.491 . S
C1041 C1040 1.400 . S
C1041 C1042 1.398 . S
C1042 H1030 0.950 . S
C1042 C1041 1.398 . S
C1042 C1043 1.391 . S
C1043 H1031 0.950 . S
C1043 C1039 1.393 . S
C1043 C1042 1.391 . S
H1044 C1052 0.950 . S
H1045 C1057 0.950 . S
H1046 C1054 0.950 . S
H1047 C1056 0.950 . S
H1048 C1058 0.950 . S
H1049 C1060 0.950 . S
H1050 C1062 0.950 . S
H1051 C1063 0.950 . S
C1052 H1044 0.950 . S
C1052 C1053 1.386 . S
C1052 C1054 1.391 . S
C1053 C1052 1.386 . S
C1053 C1057 1.393 . S
C1054 H1046 0.950 . S
C1054 C1052 1.391 . S
C1054 C1055 1.400 . S
C1055 C1054 1.400 . S
C1055 C1056 1.398 . S
C1055 C1061 1.491 . S
C1056 H1047 0.950 . S
C1056 C1055 1.398 . S
C1056 C1057 1.391 . S
C1057 H1045 0.950 . S
C1057 C1053 1.393 . S
C1057 C1056 1.391 . S
C1058 H1048 0.950 . S
C1058 C1059 1.386 . S
C1058 C1060 1.391 . S
C1059 C1058 1.386 . S
C1059 C1063 1.393 . S
C1060 H1049 0.950 . S
C1060 C1058 1.391 . S
C1060 C1061 1.400 . S
C1061 C1055 1.491 . S
C1061 C1060 1.400 . S
C1061 C1062 1.398 . S
C1062 H1050 0.950 . S
C1062 C1061 1.398 . S
C1062 C1063 1.391 . S
C1063 H1051 0.950 . S
C1063 C1059 1.393 . S
C1063 C1062 1.391 . S
H1064 C1072 0.950 . S
H1065 C1077 0.950 . S
H1066 C1074 0.950 . S
H1067 C1076 0.950 . S
H1068 C1078 0.950 . S
H1069 C1080 0.950 . S
H1070 C1082 0.950 . S
H1071 C1083 0.950 . S
C1072 H1064 0.950 . S
C1072 C1073 1.386 . S
C1072 C1074 1.391 . S
C1073 C1072 1.386 . S
C1073 C1077 1.393 . S
C1074 H1066 0.950 . S
C1074 C1072 1.391 . S
C1074 C1075 1.400 . S
C1075 C1074 1.400 . S
C1075 C1076 1.398 . S
C1075 C1081 1.491 . S
C1076 H1067 0.950 . S
C1076 C1075 1.398 . S
C1076 C1077 1.391 . S
C1077 H1065 0.950 . S
C1077 C1073 1.393 . S
C1077 C1076 1.391 . S
C1078 H1068 0.950 . S
C1078 C1079 1.386 . S
C1078 C1080 1.391 . S
C1079 C1078 1.386 . S
C1079 C1083 1.393 . S
C1080 H1069 0.950 . S
C1080 C1078 1.391 . S
C1080 C1081 1.400 . S
C1081 C1075 1.491 . S
C1081 C1080 1.400 . S
C1081 C1082 1.398 . S
C1082 H1070 0.950 . S
C1082 C1081 1.398 . S
C1082 C1083 1.391 . S
C1083 H1071 0.950 . S
C1083 C1079 1.393 . S
C1083 C1082 1.391 . S
H1084 C1092 0.950 . S
H1085 C1097 0.950 . S
H1086 C1094 0.950 . S
H1087 C1096 0.950 . S
H1088 C1098 0.950 . S
H1089 C1100 0.950 . S
H1090 C1102 0.950 . S
H1091 C1103 0.950 . S
C1092 H1084 0.950 . S
C1092 C1093 1.386 . S
C1092 C1094 1.391 . S
C1093 C1092 1.386 . S
C1093 C1097 1.393 . S
C1094 H1086 0.950 . S
C1094 C1092 1.391 . S
C1094 C1095 1.400 . S
C1095 C1094 1.400 . S
C1095 C1096 1.398 . S
C1095 C1101 1.491 . S
C1096 H1087 0.950 . S
C1096 C1095 1.398 . S
C1096 C1097 1.391 . S
C1097 H1085 0.950 . S
C1097 C1093 1.393 . S
C1097 C1096 1.391 . S
C1098 H1088 0.950 . S
C1098 C1099 1.386 . S
C1098 C1100 1.391 . S
C1099 C1098 1.386 . S
C1099 C1103 1.393 . S
C1100 H1089 0.950 . S
C1100 C1098 1.391 . S
C1100 C1101 1.400 . S
C1101 C1095 1.491 . S
C1101 C1100 1.400 . S
C1101 C1102 1.398 . S
C1102 H1090 0.950 . S
C1102 C1101 1.398 . S
C1102 C1103 1.391 . S
C1103 H1091 0.950 . S
C1103 C1099 1.393 . S
C1103 C1102 1.391 . S
H1104 C1112 0.950 . S
H1105 C1117 0.950 . S
H1106 C1114 0.950 . S
H1107 C1116 0.950 . S
H1108 C1118 0.950 . S
H1109 C1120 0.950 . S
H1110 C1122 0.950 . S
H1111 C1123 0.950 . S
C1112 H1104 0.950 . S
C1112 C1113 1.386 . S
C1112 C1114 1.391 1_565 S
C1113 C1112 1.386 . S
C1113 C1117 1.393 1_565 S
C1114 H1106 0.950 . S
C1114 C1112 1.391 1_545 S
C1114 C1115 1.400 . S
C1115 C1114 1.400 . S
C1115 C1116 1.398 . S
C1115 C1121 1.491 . S
C1116 H1107 0.950 . S
C1116 C1115 1.398 . S
C1116 C1117 1.391 . S
C1117 H1105 0.950 . S
C1117 C1113 1.393 1_545 S
C1117 C1116 1.391 . S
C1118 H1108 0.950 . S
C1118 C1119 1.386 . S
C1118 C1120 1.391 . S
C1119 C1118 1.386 . S
C1119 C1123 1.393 . S
C1120 H1109 0.950 . S
C1120 C1118 1.391 . S
C1120 C1121 1.400 . S
C1121 C1115 1.491 . S
C1121 C1120 1.400 . S
C1121 C1122 1.398 . S
C1122 H1110 0.950 . S
C1122 C1121 1.398 . S
C1122 C1123 1.391 . S
C1123 H1111 0.950 . S
C1123 C1119 1.393 . S
C1123 C1122 1.391 . S
H1124 C1132 0.950 . S
H1125 C1137 0.950 . S
H1126 C1134 0.950 . S
H1127 C1136 0.950 . S
H1128 C1138 0.950 . S
H1129 C1140 0.950 . S
H1130 C1142 0.950 1_655 S
H1131 C1143 0.950 . S
C1132 H1124 0.950 . S
C1132 C1133 1.386 . S
C1132 C1134 1.391 . S
C1133 C1132 1.386 . S
C1133 C1137 1.393 . S
C1134 H1126 0.950 . S
C1134 C1132 1.391 . S
C1134 C1135 1.400 . S
C1135 C1134 1.400 . S
C1135 C1136 1.398 . S
C1135 C1141 1.491 . S
C1136 H1127 0.950 . S
C1136 C1135 1.398 . S
C1136 C1137 1.391 . S
C1137 H1125 0.950 . S
C1137 C1133 1.393 . S
C1137 C1136 1.391 . S
C1138 H1128 0.950 . S
C1138 C1139 1.386 1_455 S
C1138 C1140 1.391 . S
C1139 C1138 1.386 1_655 S
C1139 C1143 1.393 . S
C1140 H1129 0.950 . S
C1140 C1138 1.391 . S
C1140 C1141 1.400 . S
C1141 C1135 1.491 . S
C1141 C1140 1.400 . S
C1141 C1142 1.398 . S
C1142 H1130 0.950 1_455 S
C1142 C1141 1.398 . S
C1142 C1143 1.391 1_455 S
C1143 H1131 0.950 . S
C1143 C1139 1.393 . S
C1143 C1142 1.391 1_655 S
H1144 C1152 0.950 1_545 S
H1145 C1157 0.950 . S
H1146 C1154 0.950 . S
H1147 C1156 0.950 . S
H1148 C1158 0.950 . S
H1149 C1160 0.950 . S
H1150 C1162 0.950 . S
H1151 C1163 0.950 . S
C1152 H1144 0.950 1_565 S
C1152 C1153 1.386 1_565 S
C1152 C1154 1.391 . S
C1153 C1152 1.386 1_545 S
C1153 C1157 1.393 . S
C1154 H1146 0.950 . S
C1154 C1152 1.391 . S
C1154 C1155 1.400 . S
C1155 C1154 1.400 . S
C1155 C1156 1.398 . S
C1155 C1161 1.491 . S
C1156 H1147 0.950 . S
C1156 C1155 1.398 . S
C1156 C1157 1.391 1_565 S
C1157 H1145 0.950 . S
C1157 C1153 1.393 . S
C1157 C1156 1.391 1_545 S
C1158 H1148 0.950 . S
C1158 C1159 1.386 . S
C1158 C1160 1.391 . S
C1159 C1158 1.386 . S
C1159 C1163 1.393 . S
C1160 H1149 0.950 . S
C1160 C1158 1.391 . S
C1160 C1161 1.400 . S
C1161 C1155 1.491 . S
C1161 C1160 1.400 . S
C1161 C1162 1.398 . S
C1162 H1150 0.950 . S
C1162 C1161 1.398 . S
C1162 C1163 1.391 . S
C1163 H1151 0.950 . S
C1163 C1159 1.393 . S
C1163 C1162 1.391 . S
H1164 C1172 0.950 . S
H1165 C1177 0.950 . S
H1166 C1174 0.950 . S
H1167 C1176 0.950 . S
H1168 C1178 0.950 . S
H1169 C1180 0.950 . S
H1170 C1182 0.950 . S
H1171 C1183 0.950 . S
C1172 H1164 0.950 . S
C1172 C1173 1.386 . S
C1172 C1174 1.391 1_455 S
C1173 C1172 1.386 . S
C1173 C1177 1.393 1_455 S
C1174 H1166 0.950 . S
C1174 C1172 1.391 1_655 S
C1174 C1175 1.400 . S
C1175 C1174 1.400 . S
C1175 C1176 1.398 . S
C1175 C1181 1.491 . S
C1176 H1167 0.950 . S
C1176 C1175 1.398 . S
C1176 C1177 1.391 . S
C1177 H1165 0.950 . S
C1177 C1173 1.393 1_655 S
C1177 C1176 1.391 . S
C1178 H1168 0.950 . S
C1178 C1179 1.386 . S
C1178 C1180 1.391 . S
C1179 C1178 1.386 . S
C1179 C1183 1.393 . S
C1180 H1169 0.950 . S
C1180 C1178 1.391 . S
C1180 C1181 1.400 . S
C1181 C1175 1.491 . S
C1181 C1180 1.400 . S
C1181 C1182 1.398 . S
C1182 H1170 0.950 . S
C1182 C1181 1.398 . S
C1182 C1183 1.391 . S
C1183 H1171 0.950 . S
C1183 C1179 1.393 . S
C1183 C1182 1.391 . S
H1184 C1192 0.950 . S
H1185 C1197 0.950 . S
H1186 C1194 0.950 . S
H1187 C1196 0.950 . S
H1188 C1198 0.950 . S
H1189 C1200 0.950 . S
H1190 C1202 0.950 . S
H1191 C1203 0.950 . S
C1192 H1184 0.950 . S
C1192 C1193 1.386 . S
C1192 C1194 1.391 . S
C1193 C1192 1.386 . S
C1193 C1197 1.393 . S
C1194 H1186 0.950 . S
C1194 C1192 1.391 . S
C1194 C1195 1.400 . S
C1195 C1194 1.400 . S
C1195 C1196 1.398 . S
C1195 C1201 1.491 . S
C1196 H1187 0.950 . S
C1196 C1195 1.398 . S
C1196 C1197 1.391 . S
C1197 H1185 0.950 . S
C1197 C1193 1.393 . S
C1197 C1196 1.391 . S
C1198 H1188 0.950 . S
C1198 C1199 1.386 . S
C1198 C1200 1.391 . S
C1199 C1198 1.386 . S
C1199 C1203 1.393 . S
C1200 H1189 0.950 . S
C1200 C1198 1.391 . S
C1200 C1201 1.400 . S
C1201 C1195 1.491 . S
C1201 C1200 1.400 . S
C1201 C1202 1.398 . S
C1202 H1190 0.950 . S
C1202 C1201 1.398 . S
C1202 C1203 1.391 . S
C1203 H1191 0.950 . S
C1203 C1199 1.393 . S
C1203 C1202 1.391 . S
H1204 C1212 0.950 . S
H1205 C1217 0.950 . S
H1206 C1214 0.950 . S
H1207 C1216 0.950 . S
H1208 C1218 0.950 . S
H1209 C1220 0.950 . S
H1210 C1222 0.950 . S
H1211 C1223 0.950 . S
C1212 H1204 0.950 . S
C1212 C1213 1.386 . S
C1212 C1214 1.391 . S
C1213 C1212 1.386 . S
C1213 C1217 1.393 . S
C1214 H1206 0.950 . S
C1214 C1212 1.391 . S
C1214 C1215 1.400 . S
C1215 C1214 1.400 . S
C1215 C1216 1.398 . S
C1215 C1221 1.491 . S
C1216 H1207 0.950 . S
C1216 C1215 1.398 . S
C1216 C1217 1.391 . S
C1217 H1205 0.950 . S
C1217 C1213 1.393 . S
C1217 C1216 1.391 . S
C1218 H1208 0.950 . S
C1218 C1219 1.386 . S
C1218 C1220 1.391 . S
C1219 C1218 1.386 . S
C1219 C1223 1.393 . S
C1220 H1209 0.950 . S
C1220 C1218 1.391 . S
C1220 C1221 1.400 . S
C1221 C1215 1.491 . S
C1221 C1220 1.400 . S
C1221 C1222 1.398 . S
C1222 H1210 0.950 . S
C1222 C1221 1.398 . S
C1222 C1223 1.391 . S
C1223 H1211 0.950 . S
C1223 C1219 1.393 . S
C1223 C1222 1.391 . S
H1224 C1232 0.950 . S
H1225 C1237 0.950 . S
H1226 C1234 0.950 . S
H1227 C1236 0.950 . S
H1228 C1238 0.950 . S
H1229 C1240 0.950 . S
H1230 C1242 0.950 . S
H1231 C1243 0.950 . S
C1232 H1224 0.950 . S
C1232 C1233 1.386 . S
C1232 C1234 1.391 . S
C1233 C1232 1.386 . S
C1233 C1237 1.393 . S
C1234 H1226 0.950 . S
C1234 C1232 1.391 . S
C1234 C1235 1.400 . S
C1235 C1234 1.400 . S
C1235 C1236 1.398 . S
C1235 C1241 1.491 . S
C1236 H1227 0.950 . S
C1236 C1235 1.398 . S
C1236 C1237 1.391 . S
C1237 H1225 0.950 . S
C1237 C1233 1.393 . S
C1237 C1236 1.391 . S
C1238 H1228 0.950 . S
C1238 C1239 1.386 . S
C1238 C1240 1.391 . S
C1239 C1238 1.386 . S
C1239 C1243 1.393 . S
C1240 H1229 0.950 . S
C1240 C1238 1.391 . S
C1240 C1241 1.400 . S
C1241 C1235 1.491 . S
C1241 C1240 1.400 . S
C1241 C1242 1.398 . S
C1242 H1230 0.950 . S
C1242 C1241 1.398 . S
C1242 C1243 1.391 . S
C1243 H1231 0.950 . S
C1243 C1239 1.393 . S
C1243 C1242 1.391 . S
H1244 C1252 0.950 . S
H1245 C1257 0.950 . S
H1246 C1254 0.950 . S
H1247 C1256 0.950 . S
H1248 C1258 0.950 . S
H1249 C1260 0.950 . S
H1250 C1262 0.950 . S
H1251 C1263 0.950 . S
C1252 H1244 0.950 . S
C1252 C1253 1.386 . S
C1252 C1254 1.391 . S
C1253 C1252 1.386 . S
C1253 C1257 1.393 . S
C1254 H1246 0.950 . S
C1254 C1252 1.391 . S
C1254 C1255 1.400 . S
C1255 C1254 1.400 . S
C1255 C1256 1.398 . S
C1255 C1261 1.491 . S
C1256 H1247 0.950 . S
C1256 C1255 1.398 . S
C1256 C1257 1.391 . S
C1257 H1245 0.950 . S
C1257 C1253 1.393 . S
C1257 C1256 1.391 . S
C1258 H1248 0.950 . S
C1258 C1259 1.386 . S
C1258 C1260 1.391 . S
C1259 C1258 1.386 . S
C1259 C1263 1.393 . S
C1260 H1249 0.950 . S
C1260 C1258 1.391 . S
C1260 C1261 1.400 . S
C1261 C1255 1.491 . S
C1261 C1260 1.400 . S
C1261 C1262 1.398 . S
C1262 H1250 0.950 . S
C1262 C1261 1.398 . S
C1262 C1263 1.391 . S
C1263 H1251 0.950 . S
C1263 C1259 1.393 . S
C1263 C1262 1.391 . S
H1264 C1272 0.950 . S
H1265 C1277 0.950 . S
H1266 C1274 0.950 . S
H1267 C1276 0.950 . S
H1268 C1278 0.950 . S
H1269 C1280 0.950 . S
H1270 C1282 0.950 . S
H1271 C1283 0.950 . S
C1272 H1264 0.950 . S
C1272 C1273 1.386 . S
C1272 C1274 1.391 . S
C1273 C1272 1.386 . S
C1273 C1277 1.393 . S
C1274 H1266 0.950 . S
C1274 C1272 1.391 . S
C1274 C1275 1.400 . S
C1275 C1274 1.400 . S
C1275 C1276 1.398 . S
C1275 C1281 1.491 . S
C1276 H1267 0.950 . S
C1276 C1275 1.398 . S
C1276 C1277 1.391 . S
C1277 H1265 0.950 . S
C1277 C1273 1.393 . S
C1277 C1276 1.391 . S
C1278 H1268 0.950 . S
C1278 C1279 1.386 . S
C1278 C1280 1.391 . S
C1279 C1278 1.386 . S
C1279 C1283 1.393 . S
C1280 H1269 0.950 . S
C1280 C1278 1.391 . S
C1280 C1281 1.400 . S
C1281 C1275 1.491 . S
C1281 C1280 1.400 . S
C1281 C1282 1.398 . S
C1282 H1270 0.950 . S
C1282 C1281 1.398 . S
C1282 C1283 1.391 . S
C1283 H1271 0.950 . S
C1283 C1279 1.393 . S
C1283 C1282 1.391 . S
H1284 C1292 0.950 . S
H1285 C1297 0.950 . S
H1286 C1294 0.950 . S
H1287 C1296 0.950 . S
H1288 C1298 0.950 . S
H1289 C1300 0.950 . S
H1290 C1302 0.950 . S
H1291 C1303 0.950 . S
C1292 H1284 0.950 . S
C1292 C1293 1.386 . S
C1292 C1294 1.391 . S
C1293 C1292 1.386 . S
C1293 C1297 1.393 . S
C1294 H1286 0.950 . S
C1294 C1292 1.391 . S
C1294 C1295 1.400 . S
C1295 C1294 1.400 . S
C1295 C1296 1.398 . S
C1295 C1301 1.491 . S
C1296 H1287 0.950 . S
C1296 C1295 1.398 . S
C1296 C1297 1.391 . S
C1297 H1285 0.950 . S
C1297 C1293 1.393 . S
C1297 C1296 1.391 . S
C1298 H1288 0.950 . S
C1298 C1299 1.386 . S
C1298 C1300 1.391 . S
C1299 C1298 1.386 . S
C1299 C1303 1.393 . S
C1300 H1289 0.950 . S
C1300 C1298 1.391 . S
C1300 C1301 1.400 . S
C1301 C1295 1.491 . S
C1301 C1300 1.400 . S
C1301 C1302 1.398 . S
C1302 H1290 0.950 . S
C1302 C1301 1.398 . S
C1302 C1303 1.391 . S
C1303 H1291 0.950 . S
C1303 C1299 1.393 . S
C1303 C1302 1.391 . S
H1304 C1312 0.950 . S
H1305 C1317 0.950 . S
H1306 C1314 0.950 . S
H1307 C1316 0.950 . S
H1308 C1318 0.950 . S
H1309 C1320 0.950 . S
H1310 C1322 0.950 . S
H1311 C1323 0.950 . S
C1312 H1304 0.950 . S
C1312 C1313 1.386 . S
C1312 C1314 1.391 . S
C1313 C1312 1.386 . S
C1313 C1317 1.393 . S
C1314 H1306 0.950 . S
C1314 C1312 1.391 . S
C1314 C1315 1.400 . S
C1315 C1314 1.400 . S
C1315 C1316 1.398 . S
C1315 C1321 1.491 . S
C1316 H1307 0.950 . S
C1316 C1315 1.398 . S
C1316 C1317 1.391 . S
C1317 H1305 0.950 . S
C1317 C1313 1.393 . S
C1317 C1316 1.391 . S
C1318 H1308 0.950 . S
C1318 C1319 1.386 . S
C1318 C1320 1.391 . S
C1319 C1318 1.386 . S
C1319 C1323 1.393 . S
C1320 H1309 0.950 . S
C1320 C1318 1.391 . S
C1320 C1321 1.400 . S
C1321 C1315 1.491 . S
C1321 C1320 1.400 . S
C1321 C1322 1.398 . S
C1322 H1310 0.950 . S
C1322 C1321 1.398 . S
C1322 C1323 1.391 . S
C1323 H1311 0.950 . S
C1323 C1319 1.393 . S
C1323 C1322 1.391 . S
H1324 C1332 0.950 . S
H1325 C1337 0.950 . S
H1326 C1334 0.950 . S
H1327 C1336 0.950 . S
H1328 C1338 0.950 . S
H1329 C1340 0.950 . S
H1330 C1342 0.950 . S
H1331 C1343 0.950 . S
C1332 H1324 0.950 . S
C1332 C1333 1.386 . S
C1332 C1334 1.391 . S
C1333 C1332 1.386 . S
C1333 C1337 1.393 . S
C1334 H1326 0.950 . S
C1334 C1332 1.391 . S
C1334 C1335 1.400 . S
C1335 C1334 1.400 . S
C1335 C1336 1.398 . S
C1335 C1341 1.491 . S
C1336 H1327 0.950 . S
C1336 C1335 1.398 . S
C1336 C1337 1.391 . S
C1337 H1325 0.950 . S
C1337 C1333 1.393 . S
C1337 C1336 1.391 . S
C1338 H1328 0.950 . S
C1338 C1339 1.386 . S
C1338 C1340 1.391 . S
C1339 C1338 1.386 . S
C1339 C1343 1.393 . S
C1340 H1329 0.950 . S
C1340 C1338 1.391 . S
C1340 C1341 1.400 . S
C1341 C1335 1.491 . S
C1341 C1340 1.400 . S
C1341 C1342 1.398 . S
C1342 H1330 0.950 . S
C1342 C1341 1.398 . S
C1342 C1343 1.391 . S
C1343 H1331 0.950 . S
C1343 C1339 1.393 . S
C1343 C1342 1.391 . S
H1344 C1352 0.950 . S
H1345 C1357 0.950 . S
H1346 C1354 0.950 . S
H1347 C1356 0.950 1_554 S
H1348 C1358 0.950 1_545 S
H1349 C1360 0.950 . S
H1350 C1362 0.950 . S
H1351 C1363 0.950 . S
C1352 H1344 0.950 . S
C1352 C1353 1.386 . S
C1352 C1354 1.391 . S
C1353 C1352 1.386 . S
C1353 C1357 1.393 . S
C1354 H1346 0.950 . S
C1354 C1352 1.391 . S
C1354 C1355 1.400 . S
C1355 C1354 1.400 . S
C1355 C1356 1.398 . S
C1355 C1361 1.491 . S
C1356 H1347 0.950 1_556 S
C1356 C1355 1.398 . S
C1356 C1357 1.391 . S
C1357 H1345 0.950 . S
C1357 C1353 1.393 . S
C1357 C1356 1.391 . S
C1358 H1348 0.950 1_565 S
C1358 C1359 1.386 . S
C1358 C1360 1.391 . S
C1359 C1358 1.386 . S
C1359 C1363 1.393 1_554 S
C1360 H1349 0.950 . S
C1360 C1358 1.391 . S
C1360 C1361 1.400 1_554 S
C1361 C1355 1.491 . S
C1361 C1360 1.400 1_556 S
C1361 C1362 1.398 . S
C1362 H1350 0.950 . S
C1362 C1361 1.398 . S
C1362 C1363 1.391 . S
C1363 H1351 0.950 . S
C1363 C1359 1.393 1_556 S
C1363 C1362 1.391 . S
H1364 C1372 0.950 1_455 S
H1365 C1377 0.950 . S
H1366 C1374 0.950 . S
H1367 C1376 0.950 . S
H1368 C1378 0.950 . S
H1369 C1380 0.950 . S
H1370 C1382 0.950 1_556 S
H1371 C1383 0.950 . S
C1372 H1364 0.950 1_655 S
C1372 C1373 1.386 . S
C1372 C1374 1.391 . S
C1373 C1372 1.386 . S
C1373 C1377 1.393 1_556 S
C1374 H1366 0.950 . S
C1374 C1372 1.391 . S
C1374 C1375 1.400 1_556 S
C1375 C1374 1.400 1_554 S
C1375 C1376 1.398 . S
C1375 C1381 1.491 . S
C1376 H1367 0.950 . S
C1376 C1375 1.398 . S
C1376 C1377 1.391 . S
C1377 H1365 0.950 . S
C1377 C1373 1.393 1_554 S
C1377 C1376 1.391 . S
C1378 H1368 0.950 . S
C1378 C1379 1.386 . S
C1378 C1380 1.391 . S
C1379 C1378 1.386 . S
C1379 C1383 1.393 . S
C1380 H1369 0.950 . S
C1380 C1378 1.391 . S
C1380 C1381 1.400 . S
C1381 C1375 1.491 . S
C1381 C1380 1.400 . S
C1381 C1382 1.398 . S
C1382 H1370 0.950 1_554 S
C1382 C1381 1.398 . S
C1382 C1383 1.391 . S
C1383 H1371 0.950 . S
C1383 C1379 1.393 . S
C1383 C1382 1.391 . S
H1384 C1392 0.967 . S
H1385 C1397 0.950 . S
H1386 C1394 0.950 . S
H1387 C1396 0.950 . S
H1388 C1398 0.950 . S
H1389 C1400 0.950 . S
H1390 C1402 0.956 . S
H1391 C1403 0.950 1_554 S
C1392 H1384 0.967 . S
C1392 C1393 1.386 . S
C1392 C1394 1.391 . S
C1393 C1392 1.386 . S
C1393 C1397 1.393 1_554 S
C1394 H1386 0.950 . S
C1394 C1392 1.391 . S
C1394 C1395 1.400 1_554 S
C1395 C1394 1.400 1_556 S
C1395 C1396 1.398 . S
C1395 C1401 1.491 . S
C1396 H1387 0.950 . S
C1396 C1395 1.398 . S
C1396 C1397 1.391 . S
C1397 H1385 0.950 . S
C1397 C1393 1.393 1_556 S
C1397 C1396 1.391 . S
C1398 H1388 0.950 . S
C1398 C1399 1.386 . S
C1398 C1400 1.391 . S
C1399 C1398 1.386 . S
C1399 C1403 1.393 . S
C1400 H1389 0.950 . S
C1400 C1398 1.391 . S
C1400 C1401 1.400 . S
C1401 C1395 1.491 . S
C1401 C1400 1.400 . S
C1401 C1402 1.395 1_556 S
C1402 H1390 0.956 . S
C1402 C1401 1.395 1_554 S
C1402 C1403 1.389 1_554 S
C1403 H1391 0.950 1_556 S
C1403 C1399 1.393 . S
C1403 C1402 1.389 1_556 S
H1404 C1412 0.950 . S
H1405 C1417 0.950 . S
H1406 C1414 0.950 . S
H1407 C1416 0.950 . S
H1408 C1418 0.950 . S
H1409 C1420 0.950 . S
H1410 C1422 0.950 1_556 S
H1411 C1423 0.950 1_556 S
C1412 H1404 0.950 . S
C1412 C1413 1.386 . S
C1412 C1414 1.391 . S
C1413 C1412 1.386 . S
C1413 C1417 1.393 1_556 S
C1414 H1406 0.950 . S
C1414 C1412 1.391 . S
C1414 C1415 1.400 1_556 S
C1415 C1414 1.400 1_554 S
C1415 C1416 1.398 . S
C1415 C1421 1.491 . S
C1416 H1407 0.950 . S
C1416 C1415 1.398 . S
C1416 C1417 1.391 . S
C1417 H1405 0.950 . S
C1417 C1413 1.393 1_554 S
C1417 C1416 1.391 . S
C1418 H1408 0.950 . S
C1418 C1419 1.386 . S
C1418 C1420 1.391 . S
C1419 C1418 1.386 . S
C1419 C1423 1.393 . S
C1420 H1409 0.950 . S
C1420 C1418 1.391 . S
C1420 C1421 1.400 . S
C1421 C1415 1.491 . S
C1421 C1420 1.400 . S
C1421 C1422 1.398 . S
C1422 H1410 0.950 1_554 S
C1422 C1421 1.398 . S
C1422 C1423 1.391 . S
C1423 H1411 0.950 1_554 S
C1423 C1419 1.393 . S
C1423 C1422 1.391 . S
H1424 C1432 0.950 . S
H1425 C1437 0.950 . S
H1426 C1434 0.950 . S
H1427 C1436 0.950 . S
H1428 C1438 0.950 . S
H1429 C1440 0.950 . S
H1430 C1442 0.950 . S
H1431 C1443 0.950 . S
C1432 H1424 0.950 . S
C1432 C1433 1.386 . S
C1432 C1434 1.391 . S
C1433 C1432 1.386 . S
C1433 C1437 1.393 . S
C1434 H1426 0.950 . S
C1434 C1432 1.391 . S
C1434 C1435 1.400 . S
C1435 C1434 1.400 . S
C1435 C1436 1.398 . S
C1435 C1441 1.491 . S
C1436 H1427 0.950 . S
C1436 C1435 1.398 . S
C1436 C1437 1.391 . S
C1437 H1425 0.950 . S
C1437 C1433 1.393 . S
C1437 C1436 1.391 . S
C1438 H1428 0.950 . S
C1438 C1439 1.386 . S
C1438 C1440 1.391 . S
C1439 C1438 1.386 . S
C1439 C1443 1.393 . S
C1440 H1429 0.950 . S
C1440 C1438 1.391 . S
C1440 C1441 1.400 . S
C1441 C1435 1.491 . S
C1441 C1440 1.400 . S
C1441 C1442 1.398 . S
C1442 H1430 0.950 . S
C1442 C1441 1.398 . S
C1442 C1443 1.391 . S
C1443 H1431 0.950 . S
C1443 C1439 1.393 . S
C1443 C1442 1.391 . S
H1444 C1452 0.950 . S
H1445 C1457 0.950 . S
H1446 C1454 0.950 . S
H1447 C1456 0.950 . S
H1448 C1458 0.950 . S
H1449 C1460 0.950 . S
H1450 C1462 0.950 . S
H1451 C1463 0.950 . S
C1452 H1444 0.950 . S
C1452 C1453 1.386 . S
C1452 C1454 1.391 . S
C1453 C1452 1.386 . S
C1453 C1457 1.393 . S
C1454 H1446 0.950 . S
C1454 C1452 1.391 . S
C1454 C1455 1.400 . S
C1455 C1454 1.400 . S
C1455 C1456 1.398 . S
C1455 C1461 1.491 . S
C1456 H1447 0.950 . S
C1456 C1455 1.398 . S
C1456 C1457 1.391 . S
C1457 H1445 0.950 . S
C1457 C1453 1.393 . S
C1457 C1456 1.391 . S
C1458 H1448 0.950 . S
C1458 C1459 1.386 . S
C1458 C1460 1.391 . S
C1459 C1458 1.386 . S
C1459 C1463 1.393 . S
C1460 H1449 0.950 . S
C1460 C1458 1.391 . S
C1460 C1461 1.400 . S
C1461 C1455 1.491 . S
C1461 C1460 1.400 . S
C1461 C1462 1.398 . S
C1462 H1450 0.950 . S
C1462 C1461 1.398 . S
C1462 C1463 1.391 . S
C1463 H1451 0.950 . S
C1463 C1459 1.393 . S
C1463 C1462 1.391 . S
H1464 C1472 0.950 . S
H1465 C1477 0.950 . S
H1466 C1474 0.950 . S
H1467 C1476 0.950 . S
H1468 C1478 0.950 . S
H1469 C1480 0.950 . S
H1470 C1482 0.950 . S
H1471 C1483 0.950 . S
C1472 H1464 0.950 . S
C1472 C1473 1.386 . S
C1472 C1474 1.391 . S
C1473 C1472 1.386 . S
C1473 C1477 1.393 . S
C1474 H1466 0.950 . S
C1474 C1472 1.391 . S
C1474 C1475 1.400 . S
C1475 C1474 1.400 . S
C1475 C1476 1.398 . S
C1475 C1481 1.491 . S
C1476 H1467 0.950 . S
C1476 C1475 1.398 . S
C1476 C1477 1.391 . S
C1477 H1465 0.950 . S
C1477 C1473 1.393 . S
C1477 C1476 1.391 . S
C1478 H1468 0.950 . S
C1478 C1479 1.386 . S
C1478 C1480 1.391 . S
C1479 C1478 1.386 . S
C1479 C1483 1.393 . S
C1480 H1469 0.950 . S
C1480 C1478 1.391 . S
C1480 C1481 1.400 . S
C1481 C1475 1.491 . S
C1481 C1480 1.400 . S
C1481 C1482 1.398 . S
C1482 H1470 0.950 . S
C1482 C1481 1.398 . S
C1482 C1483 1.391 . S
C1483 H1471 0.950 . S
C1483 C1479 1.393 . S
C1483 C1482 1.391 . S
H1484 C1492 0.950 . S
H1485 C1497 0.950 . S
H1486 C1494 0.950 . S
H1487 C1496 0.950 . S
H1488 C1498 0.950 . S
H1489 C1500 0.950 . S
H1490 C1502 0.950 . S
H1491 C1503 0.950 . S
C1492 H1484 0.950 . S
C1492 C1493 1.386 . S
C1492 C1494 1.391 . S
C1493 C1492 1.386 . S
C1493 C1497 1.393 . S
C1494 H1486 0.950 . S
C1494 C1492 1.391 . S
C1494 C1495 1.400 . S
C1495 C1494 1.400 . S
C1495 C1496 1.398 . S
C1495 C1501 1.491 . S
C1496 H1487 0.950 . S
C1496 C1495 1.398 . S
C1496 C1497 1.391 . S
C1497 H1485 0.950 . S
C1497 C1493 1.393 . S
C1497 C1496 1.391 . S
C1498 H1488 0.950 . S
C1498 C1499 1.386 . S
C1498 C1500 1.391 . S
C1499 C1498 1.386 . S
C1499 C1503 1.393 . S
C1500 H1489 0.950 . S
C1500 C1498 1.391 . S
C1500 C1501 1.400 . S
C1501 C1495 1.491 . S
C1501 C1500 1.400 . S
C1501 C1502 1.398 . S
C1502 H1490 0.950 . S
C1502 C1501 1.398 . S
C1502 C1503 1.391 . S
C1503 H1491 0.950 . S
C1503 C1499 1.393 . S
C1503 C1502 1.391 . S
H1504 C1512 0.950 . S
H1505 C1517 0.950 . S
H1506 C1514 0.950 . S
H1507 C1516 0.950 . S
H1508 C1518 0.950 . S
H1509 C1520 0.950 . S
H1510 C1522 0.950 . S
H1511 C1523 0.950 . S
C1512 H1504 0.950 . S
C1512 C1513 1.386 . S
C1512 C1514 1.391 . S
C1513 C1512 1.386 . S
C1513 C1517 1.393 . S
C1514 H1506 0.950 . S
C1514 C1512 1.391 . S
C1514 C1515 1.400 . S
C1515 C1514 1.400 . S
C1515 C1516 1.398 . S
C1515 C1521 1.491 . S
C1516 H1507 0.950 . S
C1516 C1515 1.398 . S
C1516 C1517 1.391 . S
C1517 H1505 0.950 . S
C1517 C1513 1.393 . S
C1517 C1516 1.391 . S
C1518 H1508 0.950 . S
C1518 C1519 1.386 . S
C1518 C1520 1.391 . S
C1519 C1518 1.386 . S
C1519 C1523 1.393 . S
C1520 H1509 0.950 . S
C1520 C1518 1.391 . S
C1520 C1521 1.400 . S
C1521 C1515 1.491 . S
C1521 C1520 1.400 . S
C1521 C1522 1.398 . S
C1522 H1510 0.950 . S
C1522 C1521 1.398 . S
C1522 C1523 1.391 . S
C1523 H1511 0.950 . S
C1523 C1519 1.393 . S
C1523 C1522 1.391 . S
H1524 C1532 0.950 . S
H1525 C1537 0.950 . S
H1526 C1534 0.950 . S
H1527 C1536 0.950 . S
H1528 C1538 0.950 . S
H1529 C1540 0.950 . S
H1530 C1542 0.950 . S
H1531 C1543 0.950 . S
C1532 H1524 0.950 . S
C1532 C1533 1.386 . S
C1532 C1534 1.391 . S
C1533 C1532 1.386 . S
C1533 C1537 1.393 . S
C1534 H1526 0.950 . S
C1534 C1532 1.391 . S
C1534 C1535 1.400 . S
C1535 C1534 1.400 . S
C1535 C1536 1.398 . S
C1535 C1541 1.491 . S
C1536 H1527 0.950 . S
C1536 C1535 1.398 . S
C1536 C1537 1.391 . S
C1537 H1525 0.950 . S
C1537 C1533 1.393 . S
C1537 C1536 1.391 . S
C1538 H1528 0.950 . S
C1538 C1539 1.386 . S
C1538 C1540 1.391 . S
C1539 C1538 1.386 . S
C1539 C1543 1.393 . S
C1540 H1529 0.950 . S
C1540 C1538 1.391 . S
C1540 C1541 1.400 . S
C1541 C1535 1.491 . S
C1541 C1540 1.400 . S
C1541 C1542 1.398 . S
C1542 H1530 0.950 . S
C1542 C1541 1.398 . S
C1542 C1543 1.391 . S
C1543 H1531 0.950 . S
C1543 C1539 1.393 . S
C1543 C1542 1.391 . S
H1544 C1552 0.950 . S
H1545 C1557 0.950 . S
H1546 C1554 0.950 . S
H1547 C1556 0.950 . S
H1548 C1558 0.950 . S
H1549 C1560 0.950 . S
H1550 C1562 0.950 . S
H1551 C1563 0.950 . S
C1552 H1544 0.950 . S
C1552 C1553 1.386 . S
C1552 C1554 1.391 . S
C1553 C1552 1.386 . S
C1553 C1557 1.393 . S
C1554 H1546 0.950 . S
C1554 C1552 1.391 . S
C1554 C1555 1.400 . S
C1555 C1554 1.400 . S
C1555 C1556 1.398 . S
C1555 C1561 1.491 . S
C1556 H1547 0.950 . S
C1556 C1555 1.398 . S
C1556 C1557 1.391 . S
C1557 H1545 0.950 . S
C1557 C1553 1.393 . S
C1557 C1556 1.391 . S
C1558 H1548 0.950 . S
C1558 C1559 1.386 . S
C1558 C1560 1.391 . S
C1559 C1558 1.386 . S
C1559 C1563 1.393 . S
C1560 H1549 0.950 . S
C1560 C1558 1.391 . S
C1560 C1561 1.400 . S
C1561 C1555 1.491 . S
C1561 C1560 1.400 . S
C1561 C1562 1.398 . S
C1562 H1550 0.950 . S
C1562 C1561 1.398 . S
C1562 C1563 1.391 . S
C1563 H1551 0.950 . S
C1563 C1559 1.393 . S
C1563 C1562 1.391 . S
H1564 C1572 0.950 . S
H1565 C1577 0.950 . S
H1566 C1574 0.950 . S
H1567 C1576 0.950 . S
H1568 C1578 0.950 . S
H1569 C1580 0.950 . S
H1570 C1582 0.950 . S
H1571 C1583 0.950 . S
C1572 H1564 0.950 . S
C1572 C1573 1.386 . S
C1572 C1574 1.391 . S
C1573 C1572 1.386 . S
C1573 C1577 1.393 . S
C1574 H1566 0.950 . S
C1574 C1572 1.391 . S
C1574 C1575 1.400 . S
C1575 C1574 1.400 . S
C1575 C1576 1.398 . S
C1575 C1581 1.491 . S
C1576 H1567 0.950 . S
C1576 C1575 1.398 . S
C1576 C1577 1.391 . S
C1577 H1565 0.950 . S
C1577 C1573 1.393 . S
C1577 C1576 1.391 . S
C1578 H1568 0.950 . S
C1578 C1579 1.386 . S
C1578 C1580 1.391 . S
C1579 C1578 1.386 . S
C1579 C1583 1.393 . S
C1580 H1569 0.950 . S
C1580 C1578 1.391 . S
C1580 C1581 1.400 . S
C1581 C1575 1.491 . S
C1581 C1580 1.400 . S
C1581 C1582 1.398 . S
C1582 H1570 0.950 . S
C1582 C1581 1.398 . S
C1582 C1583 1.391 . S
C1583 H1571 0.950 . S
C1583 C1579 1.393 . S
C1583 C1582 1.391 . S
H1584 C1592 0.950 . S
H1585 C1597 0.950 1_565 S
H1586 C1594 0.950 . S
H1587 C1596 0.950 . S
H1588 C1598 0.950 . S
H1589 C1600 0.950 . S
H1590 C1602 0.950 . S
H1591 C1603 0.950 . S
C1592 H1584 0.950 . S
C1592 C1593 1.386 . S
C1592 C1594 1.391 . S
C1593 C1592 1.386 . S
C1593 C1597 1.393 . S
C1594 H1586 0.950 . S
C1594 C1592 1.391 . S
C1594 C1595 1.400 . S
C1595 C1594 1.400 . S
C1595 C1596 1.398 . S
C1595 C1601 1.491 . S
C1596 H1587 0.950 . S
C1596 C1595 1.398 . S
C1596 C1597 1.391 . S
C1597 H1585 0.950 1_545 S
C1597 C1593 1.393 . S
C1597 C1596 1.391 . S
C1598 H1588 0.950 . S
C1598 C1599 1.386 . S
C1598 C1600 1.391 . S
C1599 C1598 1.386 . S
C1599 C1603 1.393 . S
C1600 H1589 0.950 . S
C1600 C1598 1.391 . S
C1600 C1601 1.400 . S
C1601 C1595 1.491 . S
C1601 C1600 1.400 . S
C1601 C1602 1.398 . S
C1602 H1590 0.950 . S
C1602 C1601 1.398 . S
C1602 C1603 1.391 . S
C1603 H1591 0.950 . S
C1603 C1599 1.393 . S
C1603 C1602 1.391 . S
H1604 C1612 0.950 . S
H1605 C1617 0.950 . S
H1606 C1614 0.950 . S
H1607 C1616 0.950 . S
H1608 C1618 0.950 . S
H1609 C1620 0.950 . S
H1610 C1622 0.950 . S
H1611 C1623 0.950 1_655 S
C1612 H1604 0.950 . S
C1612 C1613 1.386 . S
C1612 C1614 1.391 . S
C1613 C1612 1.386 . S
C1613 C1617 1.393 . S
C1614 H1606 0.950 . S
C1614 C1612 1.391 . S
C1614 C1615 1.400 . S
C1615 C1614 1.400 . S
C1615 C1616 1.398 . S
C1615 C1621 1.491 . S
C1616 H1607 0.950 . S
C1616 C1615 1.398 . S
C1616 C1617 1.391 . S
C1617 H1605 0.950 . S
C1617 C1613 1.393 . S
C1617 C1616 1.391 . S
C1618 H1608 0.950 . S
C1618 C1619 1.386 . S
C1618 C1620 1.391 . S
C1619 C1618 1.386 . S
C1619 C1623 1.393 . S
C1620 H1609 0.950 . S
C1620 C1618 1.391 . S
C1620 C1621 1.400 . S
C1621 C1615 1.491 . S
C1621 C1620 1.400 . S
C1621 C1622 1.398 . S
C1622 H1610 0.950 . S
C1622 C1621 1.398 . S
C1622 C1623 1.391 . S
C1623 H1611 0.950 1_455 S
C1623 C1619 1.393 . S
C1623 C1622 1.391 . S
H1624 C1632 0.950 1_545 S
H1625 C1637 0.950 . S
H1626 C1634 0.950 . S
H1627 C1636 0.950 . S
H1628 C1638 0.950 . S
H1629 C1640 0.950 . S
H1630 C1642 0.950 . S
H1631 C1643 0.950 . S
C1632 H1624 0.950 1_565 S
C1632 C1633 1.386 . S
C1632 C1634 1.391 . S
C1633 C1632 1.386 . S
C1633 C1637 1.393 . S
C1634 H1626 0.950 . S
C1634 C1632 1.391 . S
C1634 C1635 1.400 . S
C1635 C1634 1.400 . S
C1635 C1636 1.398 . S
C1635 C1641 1.491 . S
C1636 H1627 0.950 . S
C1636 C1635 1.398 . S
C1636 C1637 1.391 . S
C1637 H1625 0.950 . S
C1637 C1633 1.393 . S
C1637 C1636 1.391 . S
C1638 H1628 0.950 . S
C1638 C1639 1.386 . S
C1638 C1640 1.391 . S
C1639 C1638 1.386 . S
C1639 C1643 1.393 . S
C1640 H1629 0.950 . S
C1640 C1638 1.391 . S
C1640 C1641 1.400 . S
C1641 C1635 1.491 . S
C1641 C1640 1.400 . S
C1641 C1642 1.398 . S
C1642 H1630 0.950 . S
C1642 C1641 1.398 . S
C1642 C1643 1.391 . S
C1643 H1631 0.950 . S
C1643 C1639 1.393 . S
C1643 C1642 1.391 . S
H1644 C1652 0.950 . S
H1645 C1657 0.950 . S
H1646 C1654 0.950 . S
H1647 C1656 0.950 . S
H1648 C1658 0.950 . S
H1649 C1660 0.950 . S
H1650 C1662 0.950 . S
H1651 C1663 0.950 . S
C1652 H1644 0.950 . S
C1652 C1653 1.386 . S
C1652 C1654 1.391 . S
C1653 C1652 1.386 . S
C1653 C1657 1.393 . S
C1654 H1646 0.950 . S
C1654 C1652 1.391 . S
C1654 C1655 1.400 . S
C1655 C1654 1.400 . S
C1655 C1656 1.398 . S
C1655 C1661 1.491 . S
C1656 H1647 0.950 . S
C1656 C1655 1.398 . S
C1656 C1657 1.391 . S
C1657 H1645 0.950 . S
C1657 C1653 1.393 . S
C1657 C1656 1.391 . S
C1658 H1648 0.950 . S
C1658 C1659 1.386 . S
C1658 C1660 1.391 . S
C1659 C1658 1.386 . S
C1659 C1663 1.393 . S
C1660 H1649 0.950 . S
C1660 C1658 1.391 . S
C1660 C1661 1.400 . S
C1661 C1655 1.491 . S
C1661 C1660 1.400 . S
C1661 C1662 1.398 . S
C1662 H1650 0.950 . S
C1662 C1661 1.398 . S
C1662 C1663 1.391 . S
C1663 H1651 0.950 . S
C1663 C1659 1.393 . S
C1663 C1662 1.391 . S
C553 C90 0.624 . S
C559 C15 0.618 . S
C573 C117 0.695 . S
C579 C49 0.663 . S
C593 C158 0.670 . S
C599 C219 0.623 . S
C613 C253 0.695 . S
C619 C185 0.676 . S
C633 C287 0.662 . S
C639 C362 0.695 . S
C653 C396 0.621 . S
C659 C321 0.667 . S
C673 C430 0.621 . S
C679 C491 0.620 . S
C693 C532 0.694 . S
C699 C457 0.679 . S
C713 C28 0.580 . S
C719 C142 0.575 . S
C733 C62 0.506 . S
C739 C198 0.554 . S
C753 C74 0.568 . S
C759 C232 0.519 . S
C773 C266 0.583 . S
C779 C130 0.546 . S
C793 C300 0.525 . S
C799 C414 0.572 . S
C813 C470 0.583 . S
C819 C334 0.546 . S
C833 C504 0.496 . S
C839 C346 0.522 . S
C853 C516 0.576 . S
C859 C380 0.531 . S
C873 C17 3.037 . S
C879 C511 2.942 . S
C893 C51 3.031 . S
C899 C409 2.949 . S
C913 C445 2.949 . S
C919 C85 3.032 . S
C933 C479 2.957 . S
C939 C119 3.027 . S
C953 C37 2.957 1_554 S
C959 C153 3.027 . S
C973 C69 2.940 1_556 S
C979 C187 3.039 . S
C993 C221 3.039 . S
C999 C105 2.940 1_554 S
C1013 C3 2.955 1_556 S
C1019 C255 3.028 . S
C1033 C241 2.951 . S
C1039 C289 3.030 . S
C1053 C137 2.944 . S
C1059 C323 3.037 . S
C1073 C357 3.027 . S
C1079 C173 2.957 . S
C1093 C207 2.957 . S
C1099 C391 3.027 . S
C1113 C425 3.035 . S
C1119 C309 2.947 . S
C1133 C341 2.940 . S
C1139 C459 3.038 . S
C1153 C493 3.037 . S
C1159 C375 2.943 . S
C1173 C527 3.030 . S
C1179 C275 2.951 . S
C1193 C477 1.683 . S
C1199 C1 1.674 . S
C1213 C35 1.665 . S
C1219 C513 1.659 . S
C1233 C411 1.660 . S
C1239 C71 1.664 . S
C1253 C103 1.675 . S
C1259 C443 1.683 . S
C1273 C139 1.681 . S
C1279 C343 1.667 . S
C1293 C377 1.665 . S
C1299 C171 1.659 . S
C1313 C205 1.670 . S
C1319 C273 1.682 . S
C1333 C307 1.671 . S
C1339 C239 1.659 . S
C1353 C56 0.804 . S
C1359 C6 0.813 1_565 S
C1373 C40 0.813 1_655 S
C1379 C83 0.805 . S
C1393 C96 0.809 1_545 S
C1399 C124 0.777 . S
C1413 C108 0.817 1_455 S
C1419 C22 0.815 . S
C1433 C164 0.823 . S
C1439 C525 0.827 . S
C1453 C423 0.817 . S
C1459 C176 0.822 . S
C1473 C210 0.800 . S
C1479 C464 0.764 . S
C1493 C244 0.799 . S
C1499 C498 0.755 . S
C1513 C328 0.816 . S
C1519 C278 0.817 . S
C1533 C355 0.763 . S
C1539 C312 0.804 . S
C1553 C368 0.809 . S
C1559 C389 0.794 . S
C1573 C402 0.823 . S
C1579 C294 0.827 . S
C1593 C436 0.799 1_545 S
C1599 C260 0.760 . S
C1613 C151 0.776 . S
C1619 C448 0.804 1_455 S
C1633 C482 0.811 1_565 S
C1639 C192 0.784 . S
C1653 C226 0.769 . S
C1659 C538 0.806 1_655 S
