# Generated by pormake.
# Topology whk, (6)-cn, num edge types: 1
# Building blocks:
#     Node 0, Type 0, BuildingBlock: PAMTOO_clean_sbu_0, # of connection points: 6
#     Node 1, Type 0, BuildingBlock: PAMTOO_clean_sbu_0, # of connection points: 6
#     Node 2, Type 0, BuildingBlock: PAMTOO_clean_sbu_0, # of connection points: 6
#     Node 3, Type 0, BuildingBlock: PAMTOO_clean_sbu_0, # of connection points: 6
#     Node 4, Type 0, BuildingBlock: PAMTOO_clean_sbu_0, # of connection points: 6
#     Node 5, Type 0, BuildingBlock: PAMTOO_clean_sbu_0, # of connection points: 6
#     Node 6, Type 0, BuildingBlock: PAMTOO_clean_sbu_0, # of connection points: 6
#     Node 7, Type 0, BuildingBlock: PAMTOO_clean_sbu_0, # of connection points: 6
#     Node 8, Type 0, BuildingBlock: PAMTOO_clean_sbu_0, # of connection points: 6
#     Node 9, Type 0, BuildingBlock: PAMTOO_clean_sbu_0, # of connection points: 6
#     Node 10, Type 0, BuildingBlock: PAMTOO_clean_sbu_0, # of connection points: 6
#     Node 11, Type 0, BuildingBlock: PAMTOO_clean_sbu_0, # of connection points: 6
#     Node 12, Type 0, BuildingBlock: PAMTOO_clean_sbu_0, # of connection points: 6
#     Node 13, Type 0, BuildingBlock: PAMTOO_clean_sbu_0, # of connection points: 6
#     Node 14, Type 0, BuildingBlock: PAMTOO_clean_sbu_0, # of connection points: 6
#     Node 15, Type 0, BuildingBlock: PAMTOO_clean_sbu_0, # of connection points: 6
#     Edge 16, Type (0, 0), BuildingBlock: XIVTED_clean_linker_0, # of connection points: 2
#     Edge 17, Type (0, 0), BuildingBlock: XIVTED_clean_linker_0, # of connection points: 2
#     Edge 18, Type (0, 0), BuildingBlock: XIVTED_clean_linker_0, # of connection points: 2
#     Edge 19, Type (0, 0), BuildingBlock: XIVTED_clean_linker_0, # of connection points: 2
#     Edge 20, Type (0, 0), BuildingBlock: XIVTED_clean_linker_0, # of connection points: 2
#     Edge 21, Type (0, 0), BuildingBlock: XIVTED_clean_linker_0, # of connection points: 2
#     Edge 22, Type (0, 0), BuildingBlock: XIVTED_clean_linker_0, # of connection points: 2
#     Edge 23, Type (0, 0), BuildingBlock: XIVTED_clean_linker_0, # of connection points: 2
#     Edge 24, Type (0, 0), BuildingBlock: XIVTED_clean_linker_0, # of connection points: 2
#     Edge 25, Type (0, 0), BuildingBlock: XIVTED_clean_linker_0, # of connection points: 2
#     Edge 26, Type (0, 0), BuildingBlock: XIVTED_clean_linker_0, # of connection points: 2
#     Edge 27, Type (0, 0), BuildingBlock: XIVTED_clean_linker_0, # of connection points: 2
#     Edge 28, Type (0, 0), BuildingBlock: XIVTED_clean_linker_0, # of connection points: 2
#     Edge 29, Type (0, 0), BuildingBlock: XIVTED_clean_linker_0, # of connection points: 2
#     Edge 30, Type (0, 0), BuildingBlock: XIVTED_clean_linker_0, # of connection points: 2
#     Edge 31, Type (0, 0), BuildingBlock: XIVTED_clean_linker_0, # of connection points: 2
#     Edge 32, Type (0, 0), BuildingBlock: XIVTED_clean_linker_0, # of connection points: 2
#     Edge 33, Type (0, 0), BuildingBlock: XIVTED_clean_linker_0, # of connection points: 2
#     Edge 34, Type (0, 0), BuildingBlock: XIVTED_clean_linker_0, # of connection points: 2
#     Edge 35, Type (0, 0), BuildingBlock: XIVTED_clean_linker_0, # of connection points: 2
#     Edge 36, Type (0, 0), BuildingBlock: XIVTED_clean_linker_0, # of connection points: 2
#     Edge 37, Type (0, 0), BuildingBlock: XIVTED_clean_linker_0, # of connection points: 2
#     Edge 38, Type (0, 0), BuildingBlock: XIVTED_clean_linker_0, # of connection points: 2
#     Edge 39, Type (0, 0), BuildingBlock: XIVTED_clean_linker_0, # of connection points: 2
#     Edge 40, Type (0, 0), BuildingBlock: XIVTED_clean_linker_0, # of connection points: 2
#     Edge 41, Type (0, 0), BuildingBlock: XIVTED_clean_linker_0, # of connection points: 2
#     Edge 42, Type (0, 0), BuildingBlock: XIVTED_clean_linker_0, # of connection points: 2
#     Edge 43, Type (0, 0), BuildingBlock: XIVTED_clean_linker_0, # of connection points: 2
#     Edge 44, Type (0, 0), BuildingBlock: XIVTED_clean_linker_0, # of connection points: 2
#     Edge 45, Type (0, 0), BuildingBlock: XIVTED_clean_linker_0, # of connection points: 2
#     Edge 46, Type (0, 0), BuildingBlock: XIVTED_clean_linker_0, # of connection points: 2
#     Edge 47, Type (0, 0), BuildingBlock: XIVTED_clean_linker_0, # of connection points: 2
#     Edge 48, Type (0, 0), BuildingBlock: XIVTED_clean_linker_0, # of connection points: 2
#     Edge 49, Type (0, 0), BuildingBlock: XIVTED_clean_linker_0, # of connection points: 2
#     Edge 50, Type (0, 0), BuildingBlock: XIVTED_clean_linker_0, # of connection points: 2
#     Edge 51, Type (0, 0), BuildingBlock: XIVTED_clean_linker_0, # of connection points: 2
#     Edge 52, Type (0, 0), BuildingBlock: XIVTED_clean_linker_0, # of connection points: 2
#     Edge 53, Type (0, 0), BuildingBlock: XIVTED_clean_linker_0, # of connection points: 2
#     Edge 54, Type (0, 0), BuildingBlock: XIVTED_clean_linker_0, # of connection points: 2
#     Edge 55, Type (0, 0), BuildingBlock: XIVTED_clean_linker_0, # of connection points: 2
#     Edge 56, Type (0, 0), BuildingBlock: XIVTED_clean_linker_0, # of connection points: 2
#     Edge 57, Type (0, 0), BuildingBlock: XIVTED_clean_linker_0, # of connection points: 2
#     Edge 58, Type (0, 0), BuildingBlock: XIVTED_clean_linker_0, # of connection points: 2
#     Edge 59, Type (0, 0), BuildingBlock: XIVTED_clean_linker_0, # of connection points: 2
#     Edge 60, Type (0, 0), BuildingBlock: XIVTED_clean_linker_0, # of connection points: 2
#     Edge 61, Type (0, 0), BuildingBlock: XIVTED_clean_linker_0, # of connection points: 2
#     Edge 62, Type (0, 0), BuildingBlock: XIVTED_clean_linker_0, # of connection points: 2
#     Edge 63, Type (0, 0), BuildingBlock: XIVTED_clean_linker_0, # of connection points: 2
# Relax obj value: 0.601
# Max RMSD: 0.319
# Mean RMSD: 0.319
data_MOF--net-whk--node1-PAMTOO_clean_sbu_0--edge1-XIVTED_clean_linker_0
_symmetry_space_group_name_H-M    P1
_symmetry_Int_Tables_number       1
_symmetry_cell_setting            triclinic
loop_
_symmetry_equiv_pos_as_xyz
'x, y, z'
_cell_length_a     45.855629
_cell_length_b     45.882475
_cell_length_c     39.574041
_cell_angle_alpha  90.361778
_cell_angle_beta   89.92463
_cell_angle_gamma 90.124444
loop_
_atom_site_label
_atom_site_type_symbol
_atom_site_fract_x
_atom_site_fract_y
_atom_site_fract_z
_atom_type_partial_charge
Dy0 Dy 0.57096 0.20686 0.44732 0.0
Dy1 Dy 0.61909 0.23445 0.3969 0.0
C2 C 0.58698 0.18023 0.37636 0.0
O3 O 0.61282 0.19838 0.47368 0.0
O4 O 0.64029 0.19745 0.42533 0.0
O5 O 0.52889 0.20914 0.47241 0.0
O6 O 0.55238 0.16846 0.47036 0.0
O7 O 0.62241 0.26447 0.44091 0.0
O8 O 0.58968 0.24396 0.47902 0.0
O9 O 0.58614 0.26986 0.40122 0.0
O10 O 0.54855 0.23874 0.41287 0.0
O11 O 0.66205 0.24931 0.38282 0.0
O12 O 0.6295 0.24118 0.34417 0.0
C13 C 0.63693 0.19136 0.45765 0.0
O14 O 0.58593 0.17369 0.4084 0.0
O15 O 0.58659 0.20772 0.36929 0.0
C16 C 0.50089 0.16586 0.46665 0.0
C17 C 0.44985 0.13517 0.44649 0.0
C18 C 0.47307 0.13955 0.42368 0.0
C19 C 0.49824 0.15478 0.43362 0.0
C20 C 0.47771 0.1619 0.48935 0.0
C21 C 0.45246 0.14679 0.4794 0.0
C22 C 0.52776 0.18116 0.47776 0.0
C23 C 0.60927 0.26401 0.47055 0.0
C24 C 0.55818 0.26511 0.40575 0.0
C25 C 0.67641 0.22246 0.33443 0.0
C26 C 0.71249 0.18001 0.30368 0.0
C27 C 0.71012 0.18196 0.33909 0.0
C28 C 0.69224 0.20275 0.35421 0.0
C29 C 0.67741 0.21973 0.29911 0.0
C30 C 0.69521 0.19862 0.28384 0.0
C31 C 0.6572 0.24411 0.3508 0.0
H32 H 0.47175 0.13133 0.39802 0.0
H33 H 0.51575 0.15774 0.41554 0.0
H34 H 0.47925 0.17026 0.51495 0.0
H35 H 0.43525 0.14363 0.4978 0.0
H36 H 0.72326 0.16853 0.35548 0.0
H37 H 0.69132 0.20368 0.38154 0.0
H38 H 0.66464 0.2341 0.28336 0.0
H39 H 0.69602 0.19743 0.25652 0.0
Dy40 Dy 0.35741 0.56116 0.4428 0.0
Dy41 Dy 0.32657 0.60596 0.39078 0.0
C42 C 0.38023 0.57363 0.36905 0.0
O43 O 0.36825 0.60451 0.46534 0.0
O44 O 0.36433 0.62942 0.41549 0.0
O45 O 0.35719 0.52006 0.46978 0.0
O46 O 0.39697 0.54496 0.46556 0.0
O47 O 0.29852 0.61063 0.43621 0.0
O48 O 0.32143 0.58072 0.47528 0.0
O49 O 0.29222 0.57216 0.39688 0.0
O50 O 0.32391 0.53605 0.41226 0.0
O51 O 0.30684 0.64652 0.37578 0.0
O52 O 0.32137 0.61576 0.33767 0.0
C53 C 0.37336 0.6278 0.44704 0.0
O54 O 0.3883 0.5738 0.40068 0.0
O55 O 0.3524 0.57256 0.36353 0.0
C56 C 0.40132 0.49349 0.46406 0.0
C57 C 0.43312 0.44267 0.44581 0.0
C58 C 0.43061 0.46619 0.42327 0.0
C59 C 0.41481 0.49124 0.43224 0.0
C60 C 0.40348 0.47001 0.48647 0.0
C61 C 0.41913 0.44487 0.47745 0.0
C62 C 0.38533 0.5202 0.47431 0.0
C63 C 0.30052 0.59916 0.46655 0.0
C64 C 0.29744 0.54475 0.40393 0.0
C65 C 0.33642 0.66448 0.33147 0.0
C66 C 0.38358 0.70005 0.31142 0.0
C67 C 0.371 0.70326 0.34358 0.0
C68 C 0.34769 0.68589 0.35339 0.0
C69 C 0.34881 0.66128 0.29908 0.0
C70 C 0.37207 0.67915 0.28899 0.0
C71 C 0.31522 0.64292 0.34446 0.0
H72 H 0.44069 0.46517 0.39853 0.0
H73 H 0.41327 0.50895 0.41434 0.0
H74 H 0.39327 0.47122 0.51114 0.0
H75 H 0.42079 0.42741 0.49562 0.0
H76 H 0.37871 0.71984 0.36105 0.0
H77 H 0.33892 0.689 0.37857 0.0
H78 H 0.34087 0.64462 0.28187 0.0
H79 H 0.38113 0.67658 0.26386 0.0
Dy80 Dy 0.99985 0.3435 0.44235 0.0
Dy81 Dy 0.95286 0.31102 0.3927 0.0
C82 C 0.98261 0.36712 0.36997 0.0
O83 O 0.9568 0.35323 0.46602 0.0
O84 O 0.92921 0.34864 0.41778 0.0
O85 O 0.04132 0.34379 0.46891 0.0
O86 O 1.01695 0.38364 0.4634 0.0
O87 O 0.94996 0.28452 0.43932 0.0
O88 O 0.98164 0.30809 0.47641 0.0
O89 O 0.98741 0.27787 0.40101 0.0
O90 O 1.024 0.31074 0.40998 0.0
O91 O 0.94516 0.29703 0.34145 0.0
O92 O 0.91035 0.29463 0.37861 0.0
C93 C 0.93257 0.3581 0.44915 0.0
O94 O 0.98494 0.37458 0.40179 0.0
O95 O 0.98223 0.33948 0.36274 0.0
C96 C 0.06858 0.38755 0.46228 0.0
C97 C 0.11981 0.41891 0.44417 0.0
C98 C 0.09662 0.41546 0.42111 0.0
C99 C 0.07137 0.39991 0.43001 0.0
C100 C 0.09174 0.39061 0.48519 0.0
C101 C 0.11705 0.40603 0.47627 0.0
C102 C 0.04158 0.37203 0.47261 0.0
C103 C 0.96263 0.28714 0.46906 0.0
C104 C 1.01523 0.28374 0.40446 0.0
C105 C 0.91055 0.25988 0.3342 0.0
C106 C 0.89134 0.20581 0.30837 0.0
C107 C 0.90862 0.20707 0.33777 0.0
C108 C 0.91819 0.23398 0.35061 0.0
C109 C 0.89475 0.25864 0.30409 0.0
C110 C 0.88522 0.23195 0.29128 0.0
C111 C 0.9186 0.28853 0.34777 0.0
H112 H 0.09803 0.42466 0.39603 0.0
H113 H 0.05391 0.39771 0.41174 0.0
H114 H 0.09011 0.38131 0.51022 0.0
H115 H 0.1342 0.40843 0.49487 0.0
H116 H 0.91389 0.18742 0.35146 0.0
H117 H 0.93085 0.23464 0.3737 0.0
H118 H 0.88893 0.27847 0.29099 0.0
H119 H 0.87147 0.23216 0.26907 0.0
Dy120 Dy 0.2188 0.98728 0.43276 0.0
Dy121 Dy 0.25335 0.94113 0.38238 0.0
C122 C 0.196 0.97075 0.35829 0.0
O123 O 0.20786 0.94353 0.45401 0.0
O124 O 0.21591 0.91631 0.40572 0.0
O125 O 0.2182 1.02832 0.4605 0.0
O126 O 0.1785 1.00362 0.45406 0.0
O127 O 0.2787 0.93836 0.42983 0.0
O128 O 0.25497 0.97021 0.46653 0.0
O129 O 0.28472 0.97709 0.39272 0.0
O130 O 0.25065 1.0125 0.40079 0.0
O131 O 0.27377 0.93447 0.3339 0.0
O132 O 0.26871 0.89823 0.36849 0.0
C133 C 0.20479 0.91925 0.43638 0.0
O134 O 0.18863 0.97458 0.39004 0.0
O135 O 0.22338 0.96717 0.35034 0.0
C136 C 0.17422 0.05529 0.45468 0.0
C137 C 0.14259 0.10669 0.43853 0.0
C138 C 0.14505 0.08354 0.41507 0.0
C139 C 0.16073 0.05821 0.423 0.0
C140 C 0.17217 0.07841 0.47796 0.0
C141 C 0.15662 0.1038 0.47 0.0
C142 C 0.18994 1.02822 0.46407 0.0
C143 C 0.27609 0.95144 0.45934 0.0
C144 C 0.27794 1.00465 0.39599 0.0
C145 C 0.30959 0.89794 0.3321 0.0
C146 C 0.36577 0.87644 0.31766 0.0
C147 C 0.34186 0.8691 0.297 0.0
C148 C 0.31411 0.87973 0.30416 0.0
C149 C 0.33339 0.90634 0.35226 0.0
C150 C 0.36134 0.89553 0.34516 0.0
C151 C 0.27978 0.90725 0.33998 0.0
H152 H 0.13497 0.08503 0.39042 0.0
H153 H 0.16213 0.04082 0.40443 0.0
H154 H 0.18235 0.07671 0.50255 0.0
H155 H 0.15503 0.12089 0.4889 0.0
H156 H 0.3442 0.85365 0.27644 0.0
H157 H 0.29598 0.87288 0.28846 0.0
H158 H 0.3302 0.92055 0.37391 0.0
H159 H 0.37925 0.90132 0.36172 0.0
Dy160 Dy 0.06558 0.84986 0.10719 0.0
Dy161 Dy 0.11422 0.82427 0.158 0.0
C162 C 0.07827 0.87689 0.17919 0.0
O163 O 0.10768 0.85994 0.08169 0.0
O164 O 0.13355 0.86294 0.13079 0.0
O165 O 1.02263 0.84675 0.08445 0.0
O166 O 0.04769 0.88646 0.08015 0.0
O167 O 0.11916 0.79484 0.11363 0.0
O168 O 0.08474 0.81279 0.07606 0.0
O169 O 0.08251 0.78757 0.15391 0.0
O170 O 0.04393 0.81707 0.14141 0.0
O171 O 0.15856 0.813 0.17064 0.0
O172 O 0.12581 0.8158 0.20997 0.0
C173 C 0.13098 0.86843 0.09832 0.0
O174 O 0.07694 0.88351 0.14715 0.0
O175 O 0.08099 0.84951 0.18655 0.0
C176 C 0.99658 0.89127 0.08658 0.0
C177 C 0.94731 0.92466 0.10622 0.0
C178 C 0.97282 0.92467 0.12602 0.0
C179 C 0.99712 0.90808 0.11639 0.0
C180 C 0.97114 0.89093 0.06694 0.0
C181 C 0.94675 0.90739 0.07665 0.0
C182 C 1.02233 0.87412 0.07581 0.0
C183 C 0.10551 0.79406 0.08435 0.0
C184 C 0.0544 0.79125 0.14937 0.0
C185 C 0.17006 0.84027 0.21844 0.0
C186 C 0.20694 0.88774 0.23298 0.0
C187 C 0.21487 0.85915 0.24228 0.0
C188 C 0.19657 0.83552 0.23484 0.0
C189 C 0.16118 0.86891 0.21165 0.0
C190 C 0.17939 0.89244 0.21888 0.0
C191 C 0.15362 0.81624 0.20293 0.0
H192 H 0.97394 0.93734 0.14916 0.0
H193 H 1.01639 0.90847 0.1322 0.0
H194 H 0.9702 0.87809 0.0439 0.0
H195 H 0.92765 0.90705 0.06059 0.0
H196 H 0.23623 0.8547 0.25266 0.0
H197 H 0.20394 0.81355 0.23986 0.0
H198 H 0.14105 0.87286 0.19837 0.0
H199 H 0.17282 0.91406 0.21127 0.0
Dy200 Dy 0.71678 0.06886 0.11288 0.0
Dy201 Dy 0.75229 0.12365 0.14627 0.0
C202 C 0.70493 0.09253 0.18945 0.0
O203 O 0.6986 0.10871 0.08779 0.0
O204 O 0.70866 0.14098 0.13057 0.0
O205 O 0.71609 1.02519 0.09127 0.0
O206 O 0.67599 0.04925 0.09749 0.0
O207 O 0.75508 0.12862 0.09063 0.0
O208 O 0.75376 0.08042 0.07692 0.0
O209 O 0.78339 0.08628 0.14374 0.0
O210 O 0.75037 0.04911 0.14668 0.0
O211 O 0.79319 0.14708 0.14963 0.0
O212 O 0.75508 0.16344 0.17574 0.0
C213 C 0.69431 0.13402 0.10293 0.0
O214 O 0.69367 0.08262 0.16093 0.0
O215 O 0.73193 0.10201 0.19059 0.0
C216 C 0.67285 0.99755 0.10095 0.0
C217 C 0.64118 0.94681 0.11943 0.0
C218 C 0.64088 0.97191 0.14017 0.0
C219 C 0.65659 0.99698 0.13107 0.0
C220 C 0.67371 0.97239 0.08063 0.0
C221 C 0.65814 0.94732 0.08974 0.0
C222 C 0.68775 1.02438 0.08922 0.0
C223 C 0.76241 0.10725 0.07047 0.0
C224 C 0.77743 0.05855 0.14791 0.0
C225 C 0.77876 0.19526 0.13794 0.0
C226 C 0.76055 0.22863 0.08242 0.0
C227 C 0.78527 0.21098 0.0795 0.0
C228 C 0.79431 0.19431 0.10707 0.0
C229 C 0.75612 0.2156 0.1416 0.0
C230 C 0.7469 0.23184 0.11401 0.0
C231 C 0.77985 0.17016 0.16128 0.0
H232 H 0.62843 0.97224 0.16343 0.0
H233 H 0.65566 1.01603 0.14734 0.0
H234 H 0.68599 0.97233 0.05721 0.0
H235 H 0.65867 0.92863 0.07291 0.0
H236 H 0.79652 0.20886 0.05552 0.0
H237 H 0.81199 0.17901 0.1033 0.0
H238 H 0.74381 0.2171 0.16494 0.0
H239 H 0.72833 0.2462 0.11703 0.0
Dy240 Dy 0.49386 0.71446 0.11468 0.0
Dy241 Dy 0.44218 0.75015 0.15535 0.0
C242 C 0.4709 0.69559 0.18828 0.0
O243 O 0.45226 0.70244 0.08869 0.0
O244 O 0.42136 0.70963 0.13368 0.0
O245 O 0.5371 0.71351 0.09206 0.0
O246 O 0.51229 0.67371 0.09713 0.0
O247 O 0.44095 0.77056 0.10478 0.0
O248 O 0.4799 0.74884 0.0768 0.0
O249 O 0.47857 0.78147 0.14711 0.0
O250 O 0.51513 0.74807 0.14823 0.0
O251 O 0.43079 0.7748 0.19984 0.0
O252 O 0.39767 0.76436 0.16247 0.0
C253 C 0.42697 0.69821 0.1037 0.0
O254 O 0.47835 0.68641 0.15798 0.0
O255 O 0.46518 0.72311 0.1934 0.0
C256 C 0.56414 0.66976 0.10035 0.0
C257 C 0.61492 0.63775 0.11828 0.0
C258 C 0.58947 0.63657 0.13831 0.0
C259 C 0.56443 0.6524 0.12951 0.0
C260 C 0.58963 0.67148 0.08073 0.0
C261 C 0.61469 0.65575 0.08957 0.0
C262 C 0.53738 0.68521 0.08912 0.0
C263 C 0.45807 0.76772 0.07836 0.0
C264 C 0.50631 0.7753 0.14975 0.0
C265 C 0.39444 0.80976 0.19024 0.0
C266 C 0.37456 0.86756 0.19186 0.0
C267 C 0.35738 0.84492 0.20505 0.0
C268 C 0.36734 0.81629 0.20449 0.0
C269 C 0.41164 0.83226 0.17653 0.0
C270 C 0.40169 0.86114 0.17734 0.0
C271 C 0.40418 0.77935 0.18958 0.0
H272 H 0.58884 0.62336 0.16088 0.0
H273 H 0.54519 0.65078 0.14531 0.0
H274 H 0.58999 0.68463 0.05808 0.0
H275 H 0.63362 0.65705 0.07326 0.0
H276 H 0.33606 0.84948 0.21566 0.0
H277 H 0.35379 0.79921 0.21499 0.0
H278 H 0.4326 0.82745 0.16516 0.0
H279 H 0.41499 0.87831 0.16663 0.0
Dy280 Dy 0.84981 0.49105 0.11784 0.0
Dy281 Dy 0.80981 0.43972 0.15286 0.0
C282 C 0.86438 0.46459 0.1922 0.0
O283 O 0.86192 0.44909 0.09167 0.0
O284 O 0.85048 0.41729 0.13437 0.0
O285 O 0.85369 0.53361 0.0945 0.0
O286 O 0.89223 0.50798 0.1039 0.0
O287 O 0.79823 0.43683 0.09852 0.0
O288 O 0.81389 0.48174 0.0798 0.0
O289 O 0.78202 0.4786 0.14306 0.0
O290 O 0.81639 0.5137 0.15029 0.0
O291 O 0.77445 0.43041 0.18742 0.0
O292 O 0.79517 0.39535 0.15957 0.0
C293 C 0.86411 0.42319 0.10582 0.0
O294 O 0.87448 0.47507 0.16356 0.0
O295 O 0.83708 0.45653 0.19526 0.0
C296 C 0.89773 0.55984 0.10486 0.0
C297 C 0.92975 0.61101 0.122 0.0
C298 C 0.9311 0.58596 0.14243 0.0
C299 C 0.91525 0.56069 0.13401 0.0
C300 C 0.89605 0.58486 0.08473 0.0
C301 C 0.91178 0.6101 0.09317 0.0
C302 C 0.88207 0.53299 0.09393 0.0
C303 C 0.79836 0.45764 0.07604 0.0
C304 C 0.78883 0.50583 0.14911 0.0
C305 C 0.74438 0.39614 0.15975 0.0
C306 C 0.70536 0.37611 0.11006 0.0
C307 C 0.71309 0.40566 0.11149 0.0
C308 C 0.73248 0.41562 0.13616 0.0
C309 C 0.73382 0.36754 0.16099 0.0
C310 C 0.71419 0.35763 0.13644 0.0
C311 C 0.7721 0.40365 0.17637 0.0
H312 H 0.94436 0.58589 0.16505 0.0
H313 H 0.91691 0.54178 0.15012 0.0
H314 H 0.88286 0.58473 0.06203 0.0
H315 H 0.91042 0.62867 0.07651 0.0
H316 H 0.7066 0.42027 0.09151 0.0
H317 H 0.74036 0.43783 0.13458 0.0
H318 H 0.74287 0.35215 0.17876 0.0
H319 H 0.70887 0.33461 0.13578 0.0
Dy320 Dy 0.44466 0.80538 0.64334 0.0
Dy321 Dy 0.49991 0.84224 0.61236 0.0
C322 C 0.46351 0.79597 0.56824 0.0
O323 O 0.48302 0.77545 0.64171 0.0
O324 O 0.51991 0.80871 0.64619 0.0
O325 O 0.42461 0.76293 0.64854 0.0
O326 O 0.40246 0.80127 0.66747 0.0
O327 O 0.48438 0.86519 0.65985 0.0
O328 O 0.46356 0.82728 0.68869 0.0
O329 O 0.46018 0.85959 0.58571 0.0
O330 O 0.42655 0.84824 0.62652 0.0
O331 O 0.54327 0.84376 0.59014 0.0
O332 O 0.51972 0.88363 0.59998 0.0
C333 C 0.51056 0.78162 0.64721 0.0
O334 O 0.44148 0.80286 0.58749 0.0
O335 O 0.49 0.80501 0.57588 0.0
C336 C 0.37584 0.77006 0.63205 0.0
C337 C 0.33518 0.78342 0.58157 0.0
C338 C 0.36276 0.77312 0.57251 0.0
C339 C 0.38279 0.76589 0.5976 0.0
C340 C 0.34728 0.77767 0.64096 0.0
C341 C 0.32698 0.7841 0.61582 0.0
C342 C 0.39958 0.77446 0.65667 0.0
C343 C 0.4731 0.85427 0.68775 0.0
C344 C 0.4341 0.86286 0.59939 0.0
C345 C 0.57163 0.88622 0.60199 0.0
C346 C 0.62342 0.9163 0.62087 0.0
C347 C 0.59896 0.91581 0.64251 0.0
C348 C 0.57337 0.90091 0.63321 0.0
C349 C 0.59611 0.88621 0.58068 0.0
C350 C 0.62167 0.901 0.58997 0.0
C351 C 0.54429 0.87213 0.59017 0.0
H352 H 0.3694 0.77246 0.54623 0.0
H353 H 0.40453 0.75959 0.58986 0.0
H354 H 0.34147 0.78125 0.6672 0.0
H355 H 0.30573 0.79225 0.62322 0.0
H356 H 0.59956 0.92697 0.66669 0.0
H357 H 0.55485 0.90119 0.65023 0.0
H358 H 0.59526 0.87518 0.5564 0.0
H359 H 0.63978 0.90113 0.57238 0.0
Dy360 Dy 0.75346 0.43829 0.66382 0.0
Dy361 Dy 0.72034 0.48807 0.61928 0.0
C362 C 0.7758 0.45204 0.58773 0.0
O363 O 0.78655 0.47346 0.65737 0.0
O364 O 0.754 0.51068 0.65168 0.0
O365 O 0.76774 0.39407 0.67093 0.0
O366 O 0.77278 0.4259 0.71127 0.0
O367 O 0.69051 0.47358 0.66175 0.0
O368 O 0.72631 0.46458 0.69912 0.0
O369 O 0.70996 0.44609 0.59326 0.0
O370 O 0.71364 0.41757 0.64028 0.0
O371 O 0.68007 0.50524 0.59884 0.0
O372 O 0.7197 0.53067 0.59596 0.0
C373 C 0.78092 0.50143 0.6559 0.0
O374 O 0.77849 0.43723 0.61587 0.0
O375 O 0.75541 0.47206 0.58302 0.0
C376 C 0.75806 0.37878 0.72581 0.0
C377 C 0.72764 0.33761 0.76478 0.0
C378 C 0.7584 0.33742 0.76332 0.0
C379 C 0.77346 0.35792 0.74407 0.0
C380 C 0.72755 0.37992 0.72812 0.0
C381 C 0.71247 0.35967 0.74768 0.0
C382 C 0.77342 0.39837 0.70287 0.0
C383 C 0.69872 0.46841 0.6929 0.0
C384 C 0.70433 0.42166 0.60918 0.0
C385 C 0.67469 0.55681 0.6016 0.0
C386 C 0.64163 0.60731 0.61843 0.0
C387 C 0.67074 0.60443 0.62931 0.0
C388 C 0.68705 0.57945 0.62108 0.0
C389 C 0.64573 0.55973 0.59067 0.0
C390 C 0.62941 0.58455 0.599 0.0
C391 C 0.69152 0.53044 0.59146 0.0
H392 H 0.77092 0.32056 0.77557 0.0
H393 H 0.79703 0.35686 0.7425 0.0
H394 H 0.71538 0.39623 0.71437 0.0
H395 H 0.68892 0.36099 0.74882 0.0
H396 H 0.68083 0.62133 0.64455 0.0
H397 H 0.70933 0.57794 0.62994 0.0
H398 H 0.6357 0.5428 0.57538 0.0
H399 H 0.60729 0.58609 0.58965 0.0
Dy400 Dy 0.12496 0.75026 0.6472 0.0
Dy401 Dy 0.07417 0.71119 0.60962 0.0
C402 C 0.11198 0.76019 0.56867 0.0
O403 O 0.08741 0.77832 0.63337 0.0
O404 O 0.05178 0.74501 0.64153 0.0
O405 O 0.13237 0.78497 0.68337 0.0
O406 O 0.16882 0.76552 0.65661 0.0
O407 O 0.08756 0.6865 0.65622 0.0
O408 O 0.10559 0.72384 0.68863 0.0
O409 O 0.11676 0.69717 0.58684 0.0
O410 O 0.14733 0.7089 0.63099 0.0
O411 O 1.03144 0.70832 0.5861 0.0
O412 O 0.05691 0.66939 0.59369 0.0
C413 C 0.0601 0.7723 0.63962 0.0
O414 O 0.13132 0.7606 0.59299 0.0
O415 O 0.08705 0.74565 0.57104 0.0
C416 C 0.16775 0.81633 0.66031 0.0
C417 C 0.18994 0.85895 0.61644 0.0
C418 C 0.16032 0.85117 0.6151 0.0
C419 C 0.14937 0.82984 0.63672 0.0
C420 C 0.19609 0.8269 0.66484 0.0
C421 C 0.20706 0.84828 0.64328 0.0
C422 C 0.15956 0.78784 0.6742 0.0
C423 C 0.09689 0.69677 0.6854 0.0
C424 C 0.14201 0.69471 0.60253 0.0
C425 C 1.00515 0.66438 0.59629 0.0
C426 C 0.95448 0.63265 0.61568 0.0
C427 C 0.97949 0.63321 0.6364 0.0
C428 C 1.00448 0.64894 0.62687 0.0
C429 C 0.98016 0.66419 0.57583 0.0
C430 C 0.95515 0.6486 0.58538 0.0
C431 C 1.03176 0.67995 0.58462 0.0
H432 H 0.14652 0.85911 0.59496 0.0
H433 H 0.12735 0.82201 0.63274 0.0
H434 H 0.21059 0.81672 0.68285 0.0
H435 H 0.23003 0.85357 0.64512 0.0
H436 H 0.97973 0.62158 0.66011 0.0
H437 H 1.02336 0.64882 0.6433 0.0
H438 H 0.98013 0.67583 0.55209 0.0
H439 H 0.93658 0.64847 0.56851 0.0
Dy440 Dy 0.82936 0.10628 0.66772 0.0
Dy441 Dy 0.85568 0.06149 0.61199 0.0
C442 C 0.79857 0.10132 0.59412 0.0
O443 O 0.79449 0.07293 0.66075 0.0
O444 O 0.82557 0.03627 0.64612 0.0
O445 O 0.82388 0.11165 0.72143 0.0
O446 O 0.81296 0.14702 0.68761 0.0
O447 O 0.89023 0.07298 0.6506 0.0
O448 O 0.85734 0.07291 0.69168 0.0
O449 O 0.86444 0.10525 0.5905 0.0
O450 O 0.86567 0.13048 0.64076 0.0
O451 O 0.89348 0.04484 0.58538 0.0
O452 O 0.85224 1.02214 0.58181 0.0
C453 C 0.7994 0.04519 0.6551 0.0
O454 O 0.79914 0.1129 0.62467 0.0
O455 O 0.81792 0.08181 0.58359 0.0
C456 C 0.78528 0.14181 0.73755 0.0
C457 C 0.73369 0.15636 0.7722 0.0
C458 C 0.76123 0.16274 0.78629 0.0
C459 C 0.78672 0.15556 0.76905 0.0
C460 C 0.75818 0.13295 0.7246 0.0
C461 C 0.7325 0.14012 0.74189 0.0
C462 C 0.81229 0.13736 0.71857 0.0
C463 C 0.88459 0.07265 0.68295 0.0
C464 C 0.87206 0.12836 0.60825 0.0
C465 C 0.89545 0.99346 0.58266 0.0
C466 C 0.92748 0.94246 0.59794 0.0
C467 C 0.90128 0.94876 0.61503 0.0
C468 C 0.88551 0.9741 0.60762 0.0
C469 C 0.9212 0.98686 0.56509 0.0
C470 C 0.93706 0.96171 0.57266 0.0
C471 C 0.88016 1.02116 0.57558 0.0
H472 H 0.76332 0.17552 0.80925 0.0
H473 H 0.80757 0.16204 0.77961 0.0
H474 H 0.75684 0.12161 0.70055 0.0
H475 H 0.71174 0.13456 0.73051 0.0
H476 H 0.89343 0.93456 0.63483 0.0
H477 H 0.86582 0.97877 0.62179 0.0
H478 H 0.92929 1.00142 0.54576 0.0
H479 H 0.95693 0.95735 0.5587 0.0
Dy480 Dy 0.95066 0.24163 0.88709 0.0
Dy481 Dy 0.99588 0.20909 0.93884 0.0
C482 C 0.9574 0.2654 0.96443 0.0
O483 O 0.9848 0.2744 0.89884 0.0
O484 O 1.02113 0.24165 0.90768 0.0
O485 O 0.9455 0.25992 0.83748 0.0
O486 O 0.90813 0.25604 0.87087 0.0
O487 O 0.98442 0.17818 0.89619 0.0
O488 O 0.97988 0.21297 0.85685 0.0
O489 O 0.95186 0.19745 0.9592 0.0
O490 O 0.92596 0.20406 0.90994 0.0
O491 O 0.03667 0.20942 0.96679 0.0
O492 O 1.01256 0.16935 0.96064 0.0
C493 C 1.01251 0.2686 0.90249 0.0
O494 O 0.94557 0.26763 0.93425 0.0
O495 O 0.97648 0.24478 0.97231 0.0
C496 C 0.91027 0.29672 0.83513 0.0
C497 C 0.89094 0.35412 0.82434 0.0
C498 C 0.91378 0.34859 0.84715 0.0
C499 C 0.92332 0.32006 0.85257 0.0
C500 C 0.88871 0.3022 0.81111 0.0
C501 C 0.8791 0.3306 0.80574 0.0
C502 C 0.91822 0.26655 0.84256 0.0
C503 C 0.98246 0.18553 0.86436 0.0
C504 C 0.9281 0.19375 0.94093 0.0
C505 C 0.06425 0.16586 0.96022 0.0
C506 C 0.11588 0.135 0.94218 0.0
C507 C 0.09307 0.13874 0.91873 0.0
C508 C 0.06764 0.15403 0.9276 0.0
C509 C 0.08704 0.16255 0.98355 0.0
C510 C 0.11254 0.14738 0.97466 0.0
C511 C 0.03703 0.1812 0.97035 0.0
H512 H 0.92349 0.36614 0.86173 0.0
H513 H 0.94022 0.31611 0.87108 0.0
H514 H 0.87852 0.28438 0.7974 0.0
H515 H 0.86107 0.33375 0.78852 0.0
H516 H 0.09491 0.12997 0.89335 0.0
H517 H 0.05052 0.15645 0.90899 0.0
H518 H 0.08498 0.17145 1.00886 0.0
H519 H 0.12937 0.14477 0.99356 0.0
Dy520 Dy 0.32046 0.94721 0.8853 0.0
Dy521 Dy 0.35185 0.99243 0.93801 0.0
C522 C 0.29407 0.95529 0.96111 0.0
O523 O 0.28725 0.98167 0.89452 0.0
O524 O 0.32026 1.01765 0.90568 0.0
O525 O 0.30716 0.94163 0.83348 0.0
O526 O 0.30527 0.9051 0.86807 0.0
O527 O 0.38404 0.97739 0.89822 0.0
O528 O 0.35031 0.97705 0.85799 0.0
O529 O 0.36058 0.94882 0.96033 0.0
O530 O 0.35683 0.92237 0.9109 0.0
O531 O 0.39192 1.00869 0.96038 0.0
O532 O 0.35205 0.03307 0.96632 0.0
C533 C 0.29326 1.0093 0.89944 0.0
O534 O 0.29256 0.94315 0.93088 0.0
O535 O 0.31489 0.97403 0.96993 0.0
C536 C 0.27126 0.9062 0.82325 0.0
C537 C 0.21847 0.88484 0.79645 0.0
C538 C 0.24499 0.88079 0.77902 0.0
C539 C 0.27106 0.89137 0.79233 0.0
C540 C 0.24486 0.91213 0.83983 0.0
C541 C 0.21858 0.90154 0.82648 0.0
C542 C 0.2994 0.91459 0.83778 0.0
C543 C 0.37769 0.97607 0.86608 0.0
C544 C 0.3656 0.92494 0.94262 0.0
C545 C 0.39657 0.06032 0.9614 0.0
C546 C 0.42901 0.11145 0.94528 0.0
C547 C 0.39983 0.10818 0.93471 0.0
C548 C 0.38384 0.0829 0.94255 0.0
C549 C 0.42556 0.06368 0.97218 0.0
C550 C 0.44157 0.0888 0.96419 0.0
C551 C 0.3803 0.03321 0.97015 0.0
H552 H 0.24611 0.86765 0.75624 0.0
H553 H 0.29129 0.88692 0.77908 0.0
H554 H 0.24469 0.92405 0.86356 0.0
H555 H 0.19859 0.90533 0.84039 0.0
H556 H 0.38945 0.12495 0.91985 0.0
H557 H 0.36157 0.08103 0.9337 0.0
H558 H 0.43591 0.04676 0.98687 0.0
H559 H 0.46377 0.09061 0.97327 0.0
Dy560 Dy 0.61286 0.32284 0.8994 0.0
Dy561 Dy 0.56508 0.35225 0.94854 0.0
C562 C 0.60229 0.2961 0.97412 0.0
O563 O 0.57971 0.28754 0.90207 0.0
O564 O 0.54201 0.31773 0.91721 0.0
O565 O 0.65516 0.3039 0.89047 0.0
O566 O 0.62911 0.31851 0.8482 0.0
O567 O 0.57757 0.38259 0.90575 0.0
O568 O 0.58049 0.34635 0.86848 0.0
O569 O 0.60733 0.36429 0.97329 0.0
O570 O 0.63239 0.3627 0.92357 0.0
O571 O 0.52289 0.35129 0.97339 0.0
O572 O 0.54729 0.39148 0.97092 0.0
C573 C 0.5519 0.29172 0.90842 0.0
O574 O 0.61595 0.29514 0.9449 0.0
O575 O 0.58277 0.31633 0.98186 0.0
C576 C 0.67775 0.33583 0.85234 0.0
C577 C 0.7172 0.38302 0.84743 0.0
C578 C 0.72291 0.3595 0.86904 0.0
C579 C 0.70347 0.33632 0.87152 0.0
C580 C 0.67208 0.35918 0.83033 0.0
C581 C 0.69171 0.38248 0.8278 0.0
C582 C 0.65537 0.31342 0.85946 0.0
C583 C 0.57926 0.37421 0.8741 0.0
C584 C 0.63056 0.37079 0.95536 0.0
C585 C 0.49592 0.39484 0.96709 0.0
C586 C 0.44536 0.4254 0.94641 0.0
C587 C 0.46892 0.4212 0.92402 0.0
C588 C 0.49387 0.406 0.93421 0.0
C589 C 0.47241 0.39866 0.98937 0.0
C590 C 0.44738 0.41372 0.97916 0.0
C591 C 0.52241 0.37937 0.97842 0.0
H592 H 0.74284 0.3586 0.88365 0.0
H593 H 0.70851 0.31878 0.88875 0.0
H594 H 0.65232 0.35968 0.8154 0.0
H595 H 0.68697 0.40002 0.81053 0.0
H596 H 0.46802 0.42951 0.89849 0.0
H597 H 0.51165 0.40309 0.91645 0.0
H598 H 0.47351 0.39019 1.01484 0.0
H599 H 0.42986 0.41677 0.99721 0.0
Dy600 Dy 0.24257 0.61296 0.89023 0.0
Dy601 Dy 0.21221 0.56588 0.94056 0.0
C602 C 0.26897 0.60407 0.96541 0.0
O603 O 0.27632 0.57888 0.89788 0.0
O604 O 0.24351 0.54228 0.90624 0.0
O605 O 0.25511 0.65654 0.87604 0.0
O606 O 0.25917 0.62094 0.84008 0.0
O607 O 0.17995 0.57987 0.90057 0.0
O608 O 0.21436 0.58276 0.86082 0.0
O609 O 0.2033 0.60868 0.96491 0.0
O610 O 0.20466 0.63544 0.91621 0.0
O611 O 0.17282 0.54831 0.96295 0.0
O612 O 0.21355 0.52509 0.96775 0.0
C613 C 0.27044 0.55104 0.90078 0.0
O614 O 0.27024 0.61717 0.93593 0.0
O615 O 0.24881 0.58436 0.97307 0.0
C616 C 0.24141 0.66547 0.82035 0.0
C617 C 0.20519 0.70269 0.78296 0.0
C618 C 0.23569 0.70691 0.78354 0.0
C619 C 0.25364 0.68845 0.80216 0.0
C620 C 0.21137 0.65995 0.81808 0.0
C621 C 0.19342 0.67833 0.79945 0.0
C622 C 0.25907 0.64913 0.84447 0.0
C623 C 0.18686 0.58161 0.86855 0.0
C624 C 0.19698 0.63249 0.94819 0.0
C625 C 0.16991 0.49659 0.96289 0.0
C626 C 0.13903 0.44474 0.94591 0.0
C627 C 0.16854 0.44817 0.93683 0.0
C628 C 0.18378 0.47383 0.9451 0.0
C629 C 0.14059 0.493 0.97232 0.0
C630 C 0.12533 0.4675 0.96388 0.0
C631 C 0.18534 0.52411 0.972 0.0
H632 H 0.2456 0.72572 0.77174 0.0
H633 H 0.27678 0.69305 0.80381 0.0
H634 H 0.20162 0.64233 0.83222 0.0
H635 H 0.1702 0.67439 0.79953 0.0
H636 H 0.17973 0.43123 0.92276 0.0
H637 H 0.20636 0.47586 0.93737 0.0
H638 H 0.1294 0.51004 0.98625 0.0
H639 H 0.1028 0.46552 0.97178 0.0
H640 H 0.6321 0.14194 0.38577 0.0
H641 H 0.64568 0.09987 0.18936 0.0
H642 H 0.5745 0.17519 0.30929 0.0
H643 H 0.71972 0.09972 0.25634 0.0
H644 H 0.615 0.11708 0.23606 0.0
H645 H 0.66017 0.11658 0.34149 0.0
C646 C 0.62481 0.14315 0.35979 0.0
C647 C 0.60059 0.16028 0.35122 0.0
C648 C 0.63791 0.11299 0.24064 0.0
C649 C 0.63264 0.13143 0.30049 0.0
C650 C 0.65542 0.1029 0.21405 0.0
C651 C 0.68543 0.09844 0.21886 0.0
C652 C 0.65027 0.11826 0.27257 0.0
C653 C 0.69677 0.10309 0.25145 0.0
C654 C 0.64104 0.12896 0.33451 0.0
C655 C 0.59275 0.16188 0.31701 0.0
N656 N 0.67923 0.11275 0.27704 0.0
N657 N 0.60861 0.14759 0.29297 0.0
H658 H 0.47053 0.70552 0.25671 0.0
H659 H 0.3755 0.56695 0.30058 0.0
H660 H 0.45416 0.63824 0.18252 0.0
H661 H 0.42687 0.6109 0.37658 0.0
H662 H 0.40168 0.59413 0.25672 0.0
H663 H 0.45281 0.67272 0.30098 0.0
C664 C 0.46361 0.6837 0.24976 0.0
C665 C 0.4641 0.67457 0.21579 0.0
C666 C 0.40758 0.59745 0.28296 0.0
C667 C 0.44271 0.63729 0.26635 0.0
C668 C 0.3927 0.58189 0.308 0.0
C669 C 0.39924 0.5863 0.34233 0.0
C670 C 0.42872 0.61821 0.29223 0.0
C671 C 0.42141 0.60637 0.35046 0.0
C672 C 0.45343 0.66503 0.27507 0.0
C673 C 0.45452 0.64612 0.20835 0.0
N674 N 0.43502 0.62187 0.32568 0.0
N675 N 0.4438 0.62869 0.2333 0.0
H676 H 0.99084 0.36588 0.30151 0.0
H677 H 0.85263 0.46013 0.26006 0.0
H678 H 0.94677 0.41424 0.38001 0.0
H679 H 0.92263 0.45144 0.18787 0.0
H680 H 0.88499 0.44134 0.3042 0.0
H681 H 0.96498 0.39469 0.25896 0.0
C682 C 0.97616 0.38296 0.30979 0.0
C683 C 0.97122 0.38784 0.34439 0.0
C684 C 0.89339 0.44398 0.27882 0.0
C685 C 0.9407 0.4202 0.29577 0.0
C686 C 0.87493 0.45469 0.25358 0.0
C687 C 0.88491 0.45752 0.22017 0.0
C688 C 0.92186 0.43517 0.27048 0.0
C689 C 0.91403 0.44992 0.2133 0.0
C690 C 0.96136 0.39936 0.28549 0.0
C691 C 0.95159 0.41002 0.35365 0.0
N692 N 0.93128 0.43863 0.23803 0.0
N693 N 0.93667 0.42499 0.32952 0.0
H694 H 0.13918 0.95347 0.36736 0.0
H695 H 0.10568 0.92975 0.17027 0.0
H696 H 0.20163 0.97348 0.2892 0.0
H697 H 0.07248 0.87284 0.24768 0.0
H698 H 0.13065 0.95859 0.21416 0.0
H699 H 0.1051 0.93618 0.3238 0.0
C700 C 0.1455 0.95492 0.34104 0.0
C701 C 0.17339 0.96497 0.33201 0.0
C702 C 0.11733 0.94016 0.22151 0.0
C703 C 0.1343 0.94536 0.28202 0.0
C704 C 0.10279 0.92387 0.19653 0.0
C705 C 0.08697 0.89875 0.20528 0.0
C706 C 0.11571 0.93152 0.25548 0.0
C707 C 0.0845 0.89195 0.23976 0.0
C708 C 0.12608 0.94486 0.31623 0.0
C709 C 0.1804 0.96591 0.29739 0.0
N710 N 0.09885 0.90807 0.26353 0.0
N711 N 0.16105 0.95621 0.27371 0.0
H712 H 0.38061 0.98594 0.79813 0.0
H713 H 0.46323 0.84041 0.75446 0.0
H714 H 0.42046 0.93546 0.87701 0.0
H715 H 0.46568 0.9135 0.68652 0.0
H716 H 0.445 0.87292 0.79932 0.0
H717 H 0.40887 0.95836 0.75602 0.0
C718 C 0.39576 0.96945 0.80661 0.0
C719 C 0.39844 0.96328 0.84117 0.0
C720 C 0.44996 0.88188 0.77472 0.0
C721 C 0.43001 0.93081 0.793 0.0
C722 C 0.46035 0.86334 0.74908 0.0
C723 C 0.46614 0.87419 0.71661 0.0
C724 C 0.44448 0.91136 0.76764 0.0
C725 C 0.46178 0.90414 0.71116 0.0
C726 C 0.41182 0.95366 0.78258 0.0
C727 C 0.41807 0.94129 0.85069 0.0
N728 N 0.45077 0.92151 0.73615 0.0
N729 N 0.43268 0.92551 0.82674 0.0
H730 H 0.61429 0.4223 0.88292 0.0
H731 H 0.64253 0.44837 0.68511 0.0
H732 H 0.57373 0.36988 0.80531 0.0
H733 H 0.70615 0.46927 0.76171 0.0
H734 H 0.6103 0.42878 0.72918 0.0
H735 H 0.64112 0.44889 0.83905 0.0
C736 C 0.61037 0.41691 0.85662 0.0
C737 C 0.59142 0.39398 0.8478 0.0
C738 C 0.63116 0.43804 0.73635 0.0
C739 C 0.62224 0.42436 0.79739 0.0
C740 C 0.64948 0.44948 0.71124 0.0
C741 C 0.6771 0.46068 0.71965 0.0
C742 C 0.6402 0.43828 0.77029 0.0
C743 C 0.68505 0.46099 0.75399 0.0
C744 C 0.62595 0.43191 0.83161 0.0
C745 C 0.5879 0.38753 0.81326 0.0
N746 N 0.66672 0.45007 0.77797 0.0
N747 N 0.60308 0.40262 0.78937 0.0
H748 H 0.09883 0.70973 0.75323 0.0
H749 H 0.18686 0.56971 0.80098 0.0
H750 H 0.10749 0.63802 0.68299 0.0
H751 H 0.14012 0.61821 0.87722 0.0
H752 H 0.15875 0.59463 0.7572 0.0
H753 H 0.11404 0.67746 0.79913 0.0
C754 C 0.1035 0.68709 0.74753 0.0
C755 C 0.10177 0.67658 0.71415 0.0
C756 C 0.15413 0.59936 0.78352 0.0
C757 C 0.12027 0.63978 0.76647 0.0
C758 C 0.17011 0.58506 0.80852 0.0
C759 C 0.16559 0.5916 0.84282 0.0
C760 C 0.13403 0.62108 0.79273 0.0
C761 C 0.14396 0.61212 0.85112 0.0
C762 C 0.11217 0.66868 0.77376 0.0
C763 C 0.10829 0.64705 0.70831 0.0
N764 N 0.12941 0.62654 0.82626 0.0
N765 N 0.11779 0.62988 0.73403 0.0
H766 H 0.93466 0.10472 0.67325 0.0
H767 H 0.96214 0.12951 0.87185 0.0
H768 H 0.88362 0.0634 0.75105 0.0
H769 H 0.98762 0.19143 0.79571 0.0
H770 H 0.94361 0.09712 0.82715 0.0
H771 H 0.96436 0.12835 0.71724 0.0
C772 C 0.9302 0.09995 0.69953 0.0
C773 C 0.90657 0.08203 0.70846 0.0
C774 C 0.95369 0.1176 0.82022 0.0
C775 C 0.94039 0.10917 0.75894 0.0
C776 C 0.9645 0.13602 0.84572 0.0
C777 C 0.97636 0.16335 0.83759 0.0
C778 C 0.95509 0.12633 0.78625 0.0
C779 C 0.97852 0.17066 0.80321 0.0
C780 C 0.94699 0.11368 0.72464 0.0
C781 C 0.90157 0.07707 0.74301 0.0
N782 N 0.96788 0.15238 0.77888 0.0
N783 N 0.91819 0.09063 0.76693 0.0
H784 H 0.39203 0.14542 0.46225 0.0
H785 H 0.33472 0.99731 0.3767 0.0
H786 H 0.44714 0.08534 0.40752 0.0
H787 H 0.27675 0.06121 0.42041 0.0
H788 H 0.37569 1.03024 0.38649 0.0
H789 H 0.34951 0.11573 0.44681 0.0
C790 C 0.39526 0.126 0.44702 0.0
C791 C 0.42341 0.11795 0.43629 0.0
C792 C 0.35401 0.03727 0.39368 0.0
C793 C 0.37455 0.08382 0.41829 0.0
C794 C 0.3305 1.01845 0.388 0.0
C795 C 0.3021 1.02642 0.3977 0.0
C796 C 0.3494 0.06434 0.40958 0.0
C797 C 0.29817 0.05416 0.41231 0.0
C798 C 0.37089 0.10915 0.43802 0.0
C799 C 0.42599 0.09272 0.41614 0.0
N800 N 0.32156 0.07198 0.41809 0.0
N801 N 0.40201 0.07657 0.40803 0.0
H802 H 0.48577 0.43998 0.41241 0.0
H803 H 0.50005 0.26577 0.42331 0.0
H804 H 0.42069 0.38485 0.45832 0.0
H805 H 0.56964 0.32231 0.39019 0.0
H806 H 0.46868 0.30849 0.43066 0.0
H807 H 0.51467 0.3967 0.39889 0.0
C808 C 0.47738 0.41878 0.41942 0.0
C809 C 0.45066 0.41623 0.43664 0.0
C810 C 0.49074 0.31152 0.42152 0.0
C811 C 0.48395 0.36629 0.42133 0.0
C812 C 0.50865 0.28707 0.41707 0.0
C813 C 0.53764 0.2903 0.40605 0.0
C814 C 0.50175 0.33954 0.41482 0.0
C815 C 0.5475 0.31862 0.3987 0.0
C816 C 0.49403 0.39403 0.41184 0.0
C817 C 0.44127 0.38805 0.44543 0.0
N818 N 0.52968 0.34204 0.40332 0.0
N819 N 0.45784 0.36428 0.4377 0.0
H820 H 0.12311 0.47003 0.40817 0.0
H821 H 0.29687 0.48791 0.42625 0.0
H822 H 0.17748 0.40783 0.45957 0.0
H823 H 0.2406 0.55391 0.38484 0.0
H824 H 0.25428 0.45622 0.43385 0.0
H825 H 0.16652 0.49883 0.39496 0.0
C826 C 0.14417 0.46222 0.41645 0.0
C827 C 0.14642 0.43634 0.43513 0.0
C828 C 0.25129 0.47755 0.42285 0.0
C829 C 0.19658 0.46962 0.42019 0.0
C830 C 0.27569 0.49564 0.41828 0.0
C831 C 0.2725 0.52374 0.40481 0.0
C832 C 0.22338 0.4875 0.41384 0.0
C833 C 0.2443 0.5325 0.3953 0.0
C834 C 0.16901 0.47884 0.40905 0.0
C835 C 0.17447 0.42776 0.44553 0.0
N836 N 0.22095 0.51456 0.40008 0.0
N837 N 0.19833 0.4443 0.43796 0.0
H838 H 0.09024 0.11004 0.40472 0.0
H839 H 0.07304 0.28383 0.42424 0.0
H840 H 0.15429 0.16438 0.45431 0.0
H841 H 1.00545 0.22675 0.38654 0.0
H842 H 0.10513 0.2414 0.43057 0.0
H843 H 0.06109 0.15335 0.39324 0.0
C844 C 0.09839 0.13108 0.41296 0.0
C845 C 0.12491 0.13333 0.43059 0.0
C846 C 0.08334 0.23822 0.42067 0.0
C847 C 0.09119 0.18344 0.41767 0.0
C848 C 0.06504 0.2625 0.41682 0.0
C849 C 0.0364 0.25901 0.40479 0.0
C850 C 0.07305 0.21016 0.41229 0.0
C851 C 1.02728 0.23066 0.39595 0.0
C852 C 0.08156 0.15588 0.40656 0.0
C853 C 0.13388 0.16136 0.44103 0.0
N854 N 0.04543 0.20748 0.39993 0.0
N855 N 0.11712 0.18521 0.43443 0.0
H856 H 0.88883 0.91084 0.10277 0.0
H857 H 0.83534 0.07026 0.15798 0.0
H858 H 0.94713 0.98049 0.13191 0.0
H859 H 0.77604 0.99894 0.1387 0.0
H860 H 0.87633 0.03695 0.151 0.0
H861 H 0.84727 0.94203 0.11717 0.0
C862 C 0.89294 0.93269 0.11214 0.0
C863 C 0.92166 0.943 0.11599 0.0
C864 C 0.85438 1.02844 0.14862 0.0
C865 C 0.87399 0.97887 0.13279 0.0
C866 C 0.83087 0.04749 0.15273 0.0
C867 C 0.80207 0.03748 0.14889 0.0
C868 C 0.84925 0.99907 0.14027 0.0
C869 C 0.7978 1.00767 0.14204 0.0
C870 C 0.86916 0.95043 0.12059 0.0
C871 C 0.9255 0.9714 0.1288 0.0
N872 N 0.8211 0.98961 0.13762 0.0
N873 N 0.90202 0.98832 0.13651 0.0
H874 H 0.49516 0.83281 0.1625 0.0
H875 H 0.65501 0.88854 0.11227 0.0
H876 H 0.56589 0.77413 0.13917 0.0
H877 H 0.58558 0.94522 0.14559 0.0
H878 H 0.62361 0.84635 0.12317 0.0
H879 H 0.52876 0.87385 0.15831 0.0
C880 C 0.51786 0.82847 0.15682 0.0
C881 C 0.52763 0.79983 0.15116 0.0
C882 C 0.61533 0.86801 0.12831 0.0
C883 C 0.56644 0.84717 0.14586 0.0
C884 C 0.6332 0.89218 0.1219 0.0
C885 C 0.62301 0.92066 0.12788 0.0
C886 C 0.58687 0.8722 0.14061 0.0
C887 C 0.59463 0.9238 0.14089 0.0
C888 C 0.53709 0.85202 0.15438 0.0
C889 C 0.55737 0.79575 0.1439 0.0
N890 N 0.57759 0.89998 0.14657 0.0
N891 N 0.57565 0.81915 0.14117 0.0
H892 H 0.61627 0.58163 0.14229 0.0
H893 H 0.79108 0.56582 0.1406 0.0
H894 H 0.67356 0.65173 0.11272 0.0
H895 H 0.73096 0.49518 0.15879 0.0
H896 H 0.74929 0.5992 0.1356 0.0
H897 H 0.65877 0.55139 0.15362 0.0
C898 C 0.63777 0.59086 0.1385 0.0
C899 C 0.64109 0.61945 0.12648 0.0
C900 C 0.74533 0.57642 0.14096 0.0
C901 C 0.69038 0.58443 0.13913 0.0
C902 C 0.76921 0.5574 0.14406 0.0
C903 C 0.76465 0.52757 0.15011 0.0
C904 C 0.71668 0.56559 0.14413 0.0
C905 C 0.73569 0.51791 0.15399 0.0
C906 C 0.66215 0.57342 0.14477 0.0
C907 C 0.66976 0.62977 0.12154 0.0
N908 N 0.713 0.53674 0.15086 0.0
N909 N 0.69321 0.61233 0.12783 0.0
H910 H 0.99529 0.78906 0.13727 0.0
H911 H 0.98591 0.61438 0.14666 0.0
H912 H 0.06811 0.73428 0.16354 0.0
H913 H 0.91428 0.66881 0.1156 0.0
H914 H 1.01513 0.65817 0.15717 0.0
H915 H 0.96431 0.74566 0.13352 0.0
C916 C 1.00475 0.76799 0.14268 0.0
C917 C 0.03448 0.76549 0.15078 0.0
C918 C 0.99298 0.66056 0.14817 0.0
C919 C 0.99897 0.71541 0.14614 0.0
C920 C 0.97615 0.6355 0.14235 0.0
C921 C 0.94747 0.63769 0.13006 0.0
C922 C 0.98117 0.68825 0.14178 0.0
C923 C 0.93636 0.66585 0.12454 0.0
C924 C 0.98701 0.74314 0.14037 0.0
C925 C 0.04537 0.73743 0.15728 0.0
N926 N 0.95318 0.68989 0.13035 0.0
N927 N 1.02771 0.71358 0.15467 0.0
H928 H 0.74325 0.0556 0.67575 0.0
H929 H 0.68109 0.90196 0.60967 0.0
H930 H 0.79806 0.98745 0.63521 0.0
H931 H 0.62729 0.96998 0.65224 0.0
H932 H 0.72434 0.93168 0.62134 0.0
H933 H 0.70114 1.02325 0.67057 0.0
C934 C 0.74656 0.03371 0.66609 0.0
C935 C 0.7744 1.02435 0.65587 0.0
C936 C 0.70309 0.94004 0.62831 0.0
C937 C 0.72583 0.98706 0.64945 0.0
C938 C 0.67829 0.92313 0.62146 0.0
C939 C 0.65027 0.93341 0.62978 0.0
C940 C 0.70006 0.96764 0.64352 0.0
C941 C 0.6483 0.96088 0.64562 0.0
C942 C 0.72239 1.01522 0.66304 0.0
C943 C 0.77711 0.99567 0.64351 0.0
N944 N 0.67273 0.97701 0.65176 0.0
N945 N 0.75315 0.97817 0.64043 0.0
H946 H 0.65894 0.6651 0.62001 0.0
H947 H 0.49785 0.72446 0.65923 0.0
H948 H 0.58381 0.61023 0.63658 0.0
H949 H 0.57072 0.78179 0.64049 0.0
H950 H 0.5305 0.6828 0.65575 0.0
H951 H 0.62865 0.70807 0.63168 0.0
C952 C 0.63618 0.662 0.62639 0.0
C953 C 0.62397 0.63383 0.62701 0.0
C954 C 0.53952 0.70445 0.65266 0.0
C955 C 0.58904 0.68313 0.64025 0.0
C956 C 0.52083 0.72839 0.65476 0.0
C957 C 0.53142 0.75684 0.65006 0.0
C958 C 0.56925 0.70868 0.64555 0.0
C959 C 0.56153 0.76032 0.64442 0.0
C960 C 0.61885 0.68661 0.63289 0.0
C961 C 0.5942 0.63139 0.63514 0.0
N962 N 0.57933 0.73654 0.64203 0.0
N963 N 0.57787 0.65559 0.64131 0.0
H964 H 0.89624 0.6463 0.6077 0.0
H965 H 0.83838 0.49048 0.66993 0.0
H966 H 0.9523 0.5783 0.64492 0.0
H967 H 0.78084 0.56009 0.64043 0.0
H968 H 0.87996 0.52316 0.66296 0.0
H969 H 0.85376 0.61592 0.62075 0.0
C970 C 0.8997 0.62499 0.61858 0.0
C971 C 0.92813 0.61494 0.62505 0.0
C972 C 0.85826 0.53145 0.65828 0.0
C973 C 0.87923 0.57994 0.64033 0.0
C974 C 0.83438 0.51275 0.66236 0.0
C975 C 0.80587 0.52243 0.65581 0.0
C976 C 0.85389 0.56016 0.64724 0.0
C977 C 0.80231 0.55161 0.64595 0.0
C978 C 0.87534 0.6077 0.62623 0.0
C979 C 0.93097 0.58725 0.63975 0.0
N980 N 0.82599 0.56932 0.64172 0.0
N981 N 0.90695 0.57075 0.64666 0.0
H982 H 0.90942 0.88614 0.61106 0.0
H983 H 0.07218 0.83011 0.64493 0.0
H984 H 0.98659 0.9399 0.60619 0.0
H985 H 0.9998 0.7706 0.63342 0.0
H986 H 0.03919 0.87084 0.6376 0.0
H987 H 0.94022 0.8441 0.62517 0.0
C988 C 0.93279 0.88915 0.61312 0.0
C989 C 0.94544 0.91661 0.60714 0.0
C990 C 1.03034 0.84895 0.63681 0.0
C991 C 0.98072 0.86866 0.62339 0.0
C992 C 0.04923 0.82555 0.64111 0.0
C993 C 0.03886 0.79674 0.63954 0.0
C994 C 1.00061 0.84381 0.63079 0.0
C995 C 1.00877 0.79242 0.63483 0.0
C996 C 0.95034 0.86513 0.62104 0.0
C997 C 0.97585 0.91914 0.60999 0.0
N998 N 0.99069 0.81572 0.63038 0.0
N999 N 0.99234 0.89558 0.61789 0.0
H1000 H 0.11963 0.0846 0.90422 0.0
H1001 H 0.29331 0.06608 0.92333 0.0
H1002 H 0.17345 0.14565 0.95943 0.0
H1003 H 0.23646 1.0007 0.88023 0.0
H1004 H 0.25085 0.09789 0.93188 0.0
H1005 H 0.16309 0.05611 0.89066 0.0
C1006 C 0.14059 0.09224 0.91328 0.0
C1007 C 0.14263 0.11773 0.93309 0.0
C1008 C 0.24773 0.07667 0.9203 0.0
C1009 C 0.19292 0.08473 0.91773 0.0
C1010 C 0.27204 0.05855 0.91517 0.0
C1011 C 0.26861 1.03057 0.90098 0.0
C1012 C 0.21972 0.06689 0.91103 0.0
C1013 C 0.24033 1.022 0.89129 0.0
C1014 C 0.16547 0.07578 0.90567 0.0
C1015 C 0.17057 0.12603 0.94446 0.0
N1016 N 0.21712 0.03997 0.89655 0.0
N1017 N 0.19451 0.10965 0.93664 0.0
H1018 H 0.48663 0.11504 0.92617 0.0
H1019 H 0.49281 0.28995 0.92222 0.0
H1020 H 0.4113 0.16905 0.94453 0.0
H1021 H 0.56524 0.23434 0.89582 0.0
H1022 H 0.46208 0.2465 0.92876 0.0
H1023 H 0.51522 0.15873 0.91411 0.0
C1024 C 0.47605 0.13608 0.9278 0.0
C1025 C 0.44641 0.13817 0.93666 0.0
C1026 C 0.48462 0.24384 0.92122 0.0
C1027 C 0.47928 0.18873 0.92248 0.0
C1028 C 0.50221 0.2687 0.91732 0.0
C1029 C 0.53178 0.26601 0.90833 0.0
C1030 C 0.49665 0.21593 0.91636 0.0
C1031 C 0.54262 0.23772 0.90264 0.0
C1032 C 0.49242 0.1611 0.92066 0.0
C1033 C 0.43396 0.1662 0.93762 0.0
N1034 N 0.52519 0.21394 0.90695 0.0
N1035 N 0.45044 0.1903 0.93085 0.0
H1036 H 0.44341 0.47569 0.90913 0.0
H1037 H 0.26947 0.49354 0.92035 0.0
H1038 H 0.38739 0.41423 0.95992 0.0
H1039 H 0.3277 0.56051 0.88424 0.0
H1040 H 0.31153 0.46146 0.92867 0.0
H1041 H 0.40053 0.50422 0.89383 0.0
C1042 C 0.42209 0.468 0.91682 0.0
C1043 C 0.41915 0.44247 0.93597 0.0
C1044 C 0.31505 0.48309 0.91865 0.0
C1045 C 0.3697 0.47535 0.91865 0.0
C1046 C 0.291 0.50137 0.91365 0.0
C1047 C 0.29497 0.52986 0.9016 0.0
C1048 C 0.34332 0.49326 0.9114 0.0
C1049 C 0.3235 0.5388 0.89366 0.0
C1050 C 0.39757 0.48444 0.90823 0.0
C1051 C 0.39084 0.43393 0.94555 0.0
N1052 N 0.34649 0.52066 0.8988 0.0
N1053 N 0.36728 0.45031 0.93683 0.0
H1054 H 0.15692 0.38726 0.94771 0.0
H1055 H 1.00179 0.32534 0.88655 0.0
H1056 H 0.08291 0.44069 0.92237 0.0
H1057 H 0.07072 0.26916 0.92144 0.0
H1058 H 0.0336 0.36725 0.89444 0.0
H1059 H 0.12811 0.34363 0.93367 0.0
C1060 C 0.13472 0.38988 0.93898 0.0
C1061 C 0.12232 0.41782 0.93649 0.0
C1062 C 0.04196 0.3458 0.90022 0.0
C1063 C 0.08918 0.36786 0.9204 0.0
C1064 C 1.02377 0.3217 0.89559 0.0
C1065 C 0.03346 0.2935 0.90343 0.0
C1066 C 0.07026 0.34202 0.91293 0.0
C1067 C 0.06228 0.29042 0.91497 0.0
C1068 C 0.11824 0.36492 0.93112 0.0
C1069 C 0.09332 0.41971 0.92528 0.0
N1070 N 0.07961 0.31439 0.91958 0.0
N1071 N 0.07785 0.3952 0.91772 0.0
H1072 H 0.73447 0.12687 0.3245 0.0
H1073 H 0.86728 0.1647 0.3501 0.0
H1074 H 0.74584 0.19232 0.24765 0.0
H1075 H 0.87772 0.18523 0.24452 0.0
H1076 H 0.82486 0.13587 0.33638 0.0
H1077 H 0.78465 0.11102 0.31494 0.0
C1078 C 0.74725 0.13759 0.30517 0.0
C1079 C 0.73653 0.1624 0.28859 0.0
C1080 C 0.83697 0.14549 0.31577 0.0
C1081 C 0.79377 0.14442 0.27774 0.0
C1082 C 0.86151 0.16215 0.32372 0.0
C1083 C 0.87516 0.17888 0.29867 0.0
C1084 C 0.82565 0.14633 0.28275 0.0
C1085 C 0.86675 0.17407 0.26494 0.0
C1086 C 0.77587 0.1284 0.29966 0.0
C1087 C 0.75335 0.17392 0.26216 0.0
N1088 N 0.84173 0.1593 0.25809 0.0
N1089 N 0.78147 0.16542 0.25828 0.0
H1090 H 0.43291 0.7175 0.34512 0.0
H1091 H 0.39842 0.85059 0.36675 0.0
H1092 H 0.38426 0.73242 0.25381 0.0
H1093 H 0.39582 0.86353 0.25915 0.0
H1094 H 0.42755 0.80735 0.35791 0.0
H1095 H 0.45336 0.76664 0.34108 0.0
C1096 C 0.42736 0.7308 0.32354 0.0
C1097 C 0.40567 0.72165 0.30076 0.0
C1098 C 0.42192 0.8202 0.33605 0.0
C1099 C 0.42785 0.77786 0.29683 0.0
C1100 C 0.40512 0.84516 0.34122 0.0
C1101 C 0.39331 0.85983 0.31349 0.0
C1102 C 0.42617 0.80963 0.3029 0.0
C1103 C 0.40316 0.85191 0.28111 0.0
C1104 C 0.43883 0.7589 0.32142 0.0
C1105 C 0.4001 0.73907 0.27261 0.0
N1106 N 0.418 0.82664 0.27653 0.0
N1107 N 0.4103 0.76684 0.27209 0.0
H1108 H 0.34606 0.89489 0.14142 0.0
H1109 H 0.21743 0.92646 0.18176 0.0
H1110 H 0.37366 0.90652 0.24444 0.0
H1111 H 0.24799 0.90196 0.28037 0.0
H1112 H 0.26442 0.94895 0.17022 0.0
H1113 H 0.30488 0.92653 0.1521 0.0
C1114 C 0.34426 0.9055 0.16588 0.0
C1115 C 0.36239 0.89719 0.19248 0.0
C1116 C 0.26084 0.93912 0.19466 0.0
C1117 C 0.31449 0.93236 0.20579 0.0
C1118 C 0.23374 0.92659 0.20153 0.0
C1119 C 0.22951 0.91086 0.23151 0.0
C1120 C 0.28388 0.93482 0.21746 0.0
C1121 C 0.25109 0.91259 0.25634 0.0
C1122 C 0.32045 0.92358 0.17226 0.0
C1123 C 0.35934 0.91152 0.22363 0.0
N1124 N 0.27775 0.92346 0.24841 0.0
N1125 N 0.33508 0.92758 0.22988 0.0
H1126 H 0.7322 0.38344 0.05009 0.0
H1127 H 0.7067 0.22273 0.05448 0.0
H1128 H 0.66124 0.33671 0.0962 0.0
H1129 H 0.78684 0.27084 0.04471 0.0
H1130 H 0.68059 0.26286 0.02761 0.0
H1131 H 0.73635 0.3455 1.00748 0.0
C1132 C 0.71617 0.36612 0.05 0.0
C1133 C 0.69701 0.3627 0.07738 0.0
C1134 C 0.70404 0.26409 0.02995 0.0
C1135 C 0.70335 0.31808 0.03038 0.0
C1136 C 0.71891 0.2413 0.04536 0.0
C1137 C 0.74852 0.24448 0.05337 0.0
C1138 C 0.71885 0.29035 0.02403 0.0
C1139 C 0.76372 0.26823 0.04009 0.0
C1140 C 0.71876 0.34418 0.02574 0.0
C1141 C 0.6771 0.33955 0.0762 0.0
N1142 N 0.74851 0.29085 0.02698 0.0
N1143 N 0.68142 0.31747 0.05372 0.0
H1144 H 0.23557 0.89818 0.61047 0.0
H1145 H 0.34672 0.83513 0.55164 0.0
H1146 H 0.17972 0.84232 0.55128 0.0
H1147 H 0.2819 0.76729 0.55735 0.0
H1148 H 0.30923 0.86892 0.5316 0.0
H1149 H 0.27498 0.88878 0.57097 0.0
C1150 C 0.23107 0.88521 0.5881 0.0
C1151 C 0.20502 0.86929 0.58548 0.0
C1152 C 0.30348 0.84638 0.53593 0.0
C1153 C 0.25005 0.85782 0.54061 0.0
C1154 C 0.32483 0.82706 0.54714 0.0
C1155 C 0.31692 0.79879 0.55696 0.0
C1156 C 0.27427 0.83719 0.53518 0.0
C1157 C 0.28854 0.78917 0.55065 0.0
C1158 C 0.25369 0.87981 0.56525 0.0
C1159 C 0.19997 0.85392 0.55523 0.0
N1160 N 0.26803 0.80855 0.54077 0.0
N1161 N 0.22274 0.84737 0.53468 0.0
H1162 H 0.71779 0.17059 0.83792 0.0
H1163 H 0.74284 0.30649 0.82124 0.0
H1164 H 0.69002 0.18106 0.73463 0.0
H1165 H 0.67583 0.31233 0.74501 0.0
H1166 H 0.72318 0.2599 0.83833 0.0
H1167 H 0.69711 0.21829 0.85146 0.0
C1168 C 0.70644 0.18238 0.81832 0.0
C1169 C 0.70795 0.17303 0.78445 0.0
C1170 C 0.71191 0.27174 0.81875 0.0
C1171 C 0.68501 0.22738 0.79953 0.0
C1172 C 0.72367 0.29823 0.80841 0.0
C1173 C 0.71171 0.31304 0.78081 0.0
C1174 C 0.68858 0.25936 0.80059 0.0
C1175 C 0.68612 0.30171 0.76618 0.0
C1176 C 0.69485 0.20974 0.82604 0.0
C1177 C 0.69107 0.18812 0.76074 0.0
N1178 N 0.67598 0.27513 0.77554 0.0
N1179 N 0.68129 0.21522 0.7684 0.0
H1180 H 0.88019 0.3908 0.878 0.0
H1181 H 0.73598 0.40831 0.78856 0.0
H1182 H 0.86649 0.38312 0.77044 0.0
H1183 H 0.75023 0.41057 0.89602 0.0
H1184 H 0.78557 0.42592 0.77976 0.0
H1185 H 0.83956 0.4244 0.88148 0.0
C1186 C 0.86942 0.39695 0.85479 0.0
C1187 C 0.87571 0.38271 0.82412 0.0
C1188 C 0.7776 0.42349 0.80535 0.0
C1189 C 0.82817 0.42019 0.82838 0.0
C1190 C 0.74923 0.41332 0.81035 0.0
C1191 C 0.73994 0.40571 0.84288 0.0
C1192 C 0.79657 0.42566 0.83314 0.0
C1193 C 0.75736 0.41434 0.87031 0.0
C1194 C 0.84593 0.41613 0.85687 0.0
C1195 C 0.86124 0.39227 0.79497 0.0
N1196 N 0.78529 0.42288 0.86483 0.0
N1197 N 0.83739 0.40957 0.79796 0.0
H1198 H 0.17945 0.85748 0.8382 0.0
H1199 H 0.15369 0.72215 0.8108 0.0
H1200 H 0.19876 0.87006 0.73252 0.0
H1201 H 0.2124 0.73799 0.72754 0.0
H1202 H 0.13396 0.77092 0.80415 0.0
H1203 H 0.15426 0.81296 0.82424 0.0
C1204 C 0.17732 0.85166 0.81176 0.0
C1205 C 0.1928 0.86677 0.78672 0.0
C1206 C 0.15088 0.76361 0.78702 0.0
C1207 C 0.16441 0.81482 0.77047 0.0
C1208 C 0.16195 0.73547 0.79042 0.0
C1209 C 0.18598 0.72648 0.77086 0.0
C1210 C 0.16459 0.78295 0.76467 0.0
C1211 C 0.19503 0.74461 0.74445 0.0
C1212 C 0.16278 0.82585 0.80367 0.0
C1213 C 0.18859 0.85814 0.75293 0.0
N1214 N 0.1851 0.77238 0.74295 0.0
N1215 N 0.17589 0.83205 0.74591 0.0
H1216 H 0.63844 0.17862 0.52496 0.0
H1217 H 0.79516 0.10042 0.52393 0.0
H1218 H 0.68892 0.16857 0.4335 0.0
H1219 H 0.74677 0.12477 0.6133 0.0
H1220 H 0.75554 0.12066 0.48902 0.0
H1221 H 0.67684 0.15443 0.55627 0.0
C1222 C 0.65758 0.17127 0.51133 0.0
C1223 C 0.66035 0.17586 0.47644 0.0
C1224 C 0.75368 0.12141 0.51629 0.0
C1225 C 0.70496 0.14786 0.51257 0.0
C1226 C 0.7762 0.10974 0.5362 0.0
C1227 C 0.77448 0.11106 0.57165 0.0
C1228 C 0.7292 0.13415 0.53202 0.0
C1229 C 0.74938 0.1235 0.58614 0.0
C1230 C 0.67965 0.15742 0.52934 0.0
C1231 C 0.68585 0.16569 0.46039 0.0
N1232 N 0.72794 0.13448 0.56638 0.0
N1233 N 0.70719 0.15221 0.47857 0.0
H1234 H 0.42334 0.79869 0.51806 0.0
H1235 H 0.40928 0.62785 0.50272 0.0
H1236 H 0.48801 0.7421 0.5611 0.0
H1237 H 0.37637 0.6843 0.42488 0.0
H1238 H 0.4361 0.66933 0.52698 0.0
H1239 H 0.40426 0.75752 0.48497 0.0
C1240 C 0.43417 0.77777 0.51957 0.0
C1241 C 0.45777 0.77394 0.54162 0.0
C1242 C 0.42318 0.67254 0.50443 0.0
C1243 C 0.43501 0.72631 0.50533 0.0
C1244 C 0.40768 0.64892 0.49069 0.0
C1245 C 0.39036 0.65254 0.46174 0.0
C1246 C 0.42091 0.7002 0.48962 0.0
C1247 C 0.38937 0.68041 0.44718 0.0
C1248 C 0.4231 0.75422 0.50095 0.0
C1249 C 0.47031 0.74612 0.54365 0.0
N1250 N 0.40408 0.70318 0.46148 0.0
N1251 N 0.45845 0.72324 0.52623 0.0
H1252 H 0.87627 0.36882 0.4271 0.0
H1253 H 0.83375 0.4557 0.59684 0.0
H1254 H 0.9349 0.38683 0.50989 0.0
H1255 H 0.76976 0.4332 0.52146 0.0
H1256 H 0.87198 0.436 0.56054 0.0
H1257 H 0.83792 0.39626 0.45698 0.0
C1258 C 0.88118 0.37859 0.45142 0.0
C1259 C 0.90895 0.37526 0.466 0.0
C1260 C 0.84971 0.43563 0.55151 0.0
C1261 C 0.86515 0.40692 0.50019 0.0
C1262 C 0.82788 0.44714 0.57216 0.0
C1263 C 0.79861 0.4463 0.56201 0.0
C1264 C 0.84237 0.42259 0.52043 0.0
C1265 C 0.79215 0.43465 0.52997 0.0
C1266 C 0.85924 0.39428 0.46844 0.0
C1267 C 0.91391 0.38852 0.49758 0.0
N1268 N 0.81384 0.42291 0.51041 0.0
N1269 N 0.89234 0.40361 0.51348 0.0
H1270 H 0.08625 0.81216 0.55525 0.0
H1271 H 0.20763 0.86091 0.42022 0.0
H1272 H 0.15421 0.75471 0.52057 0.0
H1273 H 0.16357 0.92119 0.48684 0.0
H1274 H 0.18085 0.82058 0.44663 0.0
H1275 H 0.1062 0.85088 0.51917 0.0
C1276 C 0.10461 0.80734 0.53889 0.0
C1277 C 0.11811 0.77996 0.5401 0.0
C1278 C 0.17689 0.84268 0.45524 0.0
C1279 C 0.14155 0.82431 0.49945 0.0
C1280 C 0.19215 0.86574 0.44016 0.0
C1281 C 0.18799 0.89457 0.45137 0.0
C1282 C 0.15679 0.84843 0.48127 0.0
C1283 C 0.16769 0.89936 0.47749 0.0
C1284 C 0.11626 0.82955 0.51872 0.0
C1285 C 0.14272 0.77528 0.51964 0.0
N1286 N 0.15282 0.87662 0.49141 0.0
N1287 N 0.15366 0.79719 0.50019 0.0
H1288 H 0.29426 0.95109 0.03143 0.0
H1289 H 0.13128 0.88571 0.03238 0.0
H1290 H 0.23864 0.94148 0.94423 0.0
H1291 H 0.18432 0.88809 0.1224 0.0
H1292 H 0.17004 0.91012 1.00165 0.0
H1293 H 0.25409 0.93238 0.06712 0.0
C1294 C 0.27359 0.94545 0.01988 0.0
C1295 C 0.26996 0.94759 0.98472 0.0
C1296 C 0.17335 0.90545 0.02815 0.0
C1297 C 0.22414 0.9262 0.02514 0.0
C1298 C 0.15107 0.89143 0.04581 0.0
C1299 C 0.15443 0.88459 0.08009 0.0
C1300 C 0.19956 0.91279 0.04459 0.0
C1301 C 0.18073 0.89281 0.09596 0.0
C1302 C 0.25075 0.93461 0.04019 0.0
C1303 C 0.24272 0.93984 0.9711 0.0
N1304 N 0.20235 0.90633 0.07806 0.0
N1305 N 0.22111 0.92949 0.99118 0.0
H1306 H 0.66488 0.13038 0.04273 0.0
H1307 H 0.60999 0.29684 0.04386 0.0
H1308 H 0.68022 0.18886 0.12673 0.0
H1309 H 0.60999 0.23977 0.9569 0.0
H1310 H 0.62792 0.25597 0.07853 0.0
H1311 H 0.63718 0.16861 1.01481 0.0
C1312 C 0.66222 0.15114 0.05551 0.0
C1313 C 0.67516 0.15632 0.08708 0.0
C1314 C 0.62355 0.25239 0.05194 0.0
C1315 C 0.64329 0.20058 0.05502 0.0
C1316 C 0.61318 0.27564 0.03226 0.0
C1317 C 0.60872 0.27172 0.99743 0.0
C1318 C 0.62925 0.22515 0.03658 0.0
C1319 C 0.6135 0.24388 0.98357 0.0
C1320 C 0.64638 0.17308 0.03949 0.0
C1321 C 0.67077 0.18382 0.10233 0.0
N1322 N 0.62358 0.22186 1.00304 0.0
N1323 N 0.65535 0.20494 0.08612 0.0
H1324 H 0.26597 0.61241 0.03493 0.0
H1325 H 0.43119 0.67131 0.04201 0.0
H1326 H 0.32546 0.61451 0.95055 0.0
H1327 H 0.37079 0.68473 0.12438 0.0
H1328 H 0.39369 0.64452 1.01148 0.0
H1329 H 0.30495 0.63267 0.07134 0.0
C1330 C 0.28732 0.61661 0.02426 0.0
C1331 C 0.29245 0.61193 0.98965 0.0
C1332 C 0.38853 0.6532 0.03627 0.0
C1333 C 0.33689 0.63512 0.03082 0.0
C1334 C 0.41006 0.66858 0.05384 0.0
C1335 C 0.40424 0.68059 0.08585 0.0
C1336 C 0.36068 0.64962 0.05058 0.0
C1337 C 0.3763 0.67601 0.09971 0.0
C1338 C 0.30946 0.62839 0.04491 0.0
C1339 C 0.32042 0.61803 0.97701 0.0
N1340 N 0.35552 0.66102 0.08195 0.0
N1341 N 0.34139 0.62931 0.99745 0.0
H1342 H 0.87408 0.36626 0.12568 0.0
H1343 H 0.95083 0.32251 0.95065 0.0
H1344 H 0.89312 0.42647 0.04525 0.0
H1345 H 0.94452 0.26202 0.03321 0.0
H1346 H 0.93098 0.36073 0.9867 0.0
H1347 H 0.90026 0.32799 0.09424 0.0
C1348 C 0.88386 0.37156 0.10156 0.0
C1349 C 0.88118 0.39981 0.08816 0.0
C1350 C 0.93408 0.33926 0.99728 0.0
C1351 C 0.91121 0.35587 0.05194 0.0
C1352 C 0.94551 0.31733 0.97663 0.0
C1353 C 0.94935 0.28892 0.98885 0.0
C1354 C 0.92584 0.33297 0.03063 0.0
C1355 C 0.94213 0.28364 0.02281 0.0
C1356 C 0.89886 0.34964 0.08364 0.0
C1357 C 0.89441 0.40517 0.05674 0.0
N1358 N 0.93038 0.30537 0.04243 0.0
N1359 N 0.9086 0.3835 0.0398 0.0
H1360 H 0.37734 0.87276 0.61913 0.0
H1361 H 0.33333 0.9469 0.44494 0.0
H1362 H 0.43876 0.8936 0.54011 0.0
H1363 H 0.27324 0.94116 0.52851 0.0
H1364 H 0.37231 0.92942 0.48108 0.0
H1365 H 0.33939 0.89889 0.58823 0.0
C1366 C 0.38303 0.8831 0.59549 0.0
C1367 C 0.41148 0.88085 0.58226 0.0
C1368 C 0.35078 0.93226 0.49185 0.0
C1369 C 0.3678 0.91085 0.54663 0.0
C1370 C 0.32842 0.94227 0.47118 0.0
C1371 C 0.29991 0.94539 0.48368 0.0
C1372 C 0.34476 0.92478 0.52546 0.0
C1373 C 0.29493 0.93923 0.51791 0.0
C1374 C 0.36125 0.89808 0.57789 0.0
C1375 C 0.41728 0.89465 0.5514 0.0
N1376 N 0.31709 0.92886 0.53756 0.0
N1377 N 0.39565 0.90881 0.53463 0.0
H1378 H 0.68836 0.36706 0.63225 0.0
H1379 H 0.61879 0.32025 0.45433 0.0
H1380 H 0.68066 0.42338 0.54579 0.0
H1381 H 0.61863 0.26256 0.53985 0.0
H1382 H 0.63888 0.35884 0.48971 0.0
H1383 H 0.66124 0.32913 0.6012 0.0
C1384 C 0.6809 0.37155 0.60686 0.0
C1385 C 0.68702 0.39854 0.59162 0.0
C1386 C 0.63431 0.33791 0.50106 0.0
C1387 C 0.65591 0.35516 0.55599 0.0
C1388 C 0.62274 0.31581 0.4808 0.0
C1389 C 0.61711 0.28809 0.49411 0.0
C1390 C 0.64085 0.33239 0.53508 0.0
C1391 C 0.6225 0.28368 0.52865 0.0
C1392 C 0.66537 0.34987 0.58918 0.0
C1393 C 0.67669 0.40301 0.55867 0.0
N1394 N 0.63443 0.30552 0.54791 0.0
N1395 N 0.66185 0.38162 0.54207 0.0
H1396 H 0.24322 0.60354 0.45242 0.0
H1397 H 0.19896 0.68611 0.62358 0.0
H1398 H 0.30396 0.61408 0.5346 0.0
H1399 H 0.13876 0.66252 0.54418 0.0
H1400 H 0.23748 0.65896 0.59374 0.0
H1401 H 0.20464 0.62351 0.4878 0.0
C1402 C 0.24835 0.60982 0.47819 0.0
C1403 C 0.27688 0.60718 0.49054 0.0
C1404 C 0.21576 0.65957 0.58307 0.0
C1405 C 0.23257 0.63082 0.53144 0.0
C1406 C 0.19371 0.67509 0.60007 0.0
C1407 C 0.16545 0.67684 0.58637 0.0
C1408 C 0.20956 0.64576 0.55206 0.0
C1409 C 0.16011 0.66205 0.5558 0.0
C1410 C 0.22625 0.62129 0.49845 0.0
C1411 C 0.2822 0.61556 0.52419 0.0
N1412 N 0.18188 0.64739 0.53973 0.0
N1413 N 0.26032 0.62739 0.54339 0.0
H1414 H 0.89537 0.12622 0.54498 0.0
H1415 H 0.95333 0.29151 0.53852 0.0
H1416 H 0.88713 0.184 0.63095 0.0
H1417 H 0.95413 0.23012 0.45561 0.0
H1418 H 0.93366 0.25275 0.57545 0.0
H1419 H 0.92097 0.16407 0.51464 0.0
C1420 C 0.8989 0.14694 0.55762 0.0
C1421 C 0.88872 0.15182 0.59065 0.0
C1422 C 0.93847 0.24781 0.54924 0.0
C1423 C 0.91847 0.19602 0.55541 0.0
C1424 C 0.9499 0.26983 0.52828 0.0
C1425 C 0.95521 0.26407 0.49389 0.0
C1426 C 0.93264 0.21993 0.53563 0.0
C1427 C 0.95009 0.23569 0.48184 0.0
C1428 C 0.91369 0.16869 0.54015 0.0
C1429 C 0.89446 0.17923 0.60551 0.0
N1430 N 0.93908 0.21492 0.50251 0.0
N1431 N 0.90879 0.20039 0.58772 0.0
H1432 H 0.87025 0.19845 0.9244 0.0
H1433 H 0.81247 0.07775 0.0539 0.0
H1434 H 0.92819 0.15275 0.99141 0.0
H1435 H 0.76246 0.15389 0.02843 0.0
H1436 H 0.85306 0.09644 0.01922 0.0
H1437 H 0.82862 0.174 0.95118 0.0
C1438 C 0.87428 0.18305 0.94448 0.0
C1439 C 0.90282 0.1778 0.95577 0.0
C1440 C 0.83294 0.1087 0.02073 0.0
C1441 C 0.85519 0.14933 0.98612 0.0
C1442 C 0.80965 0.09785 0.04006 0.0
C1443 C 0.78392 0.1141 0.04361 0.0
C1444 C 0.83019 0.13568 1.00434 0.0
C1445 C 0.78179 0.14052 0.02601 0.0
C1446 C 0.85049 0.16918 0.9598 0.0
C1447 C 0.90659 0.15766 0.98206 0.0
N1448 N 0.80454 0.15045 1.00714 0.0
N1449 N 0.88311 0.14408 0.99624 0.0
H1450 H 0.37297 0.86797 0.92076 0.0
H1451 H 0.47057 0.82497 0.08138 0.0
H1452 H 0.39699 0.927 1.00139 0.0
H1453 H 0.43172 0.76015 1.01639 0.0
H1454 H 0.45096 0.86326 0.04529 0.0
H1455 H 0.40011 0.82897 0.94927 0.0
C1456 C 0.38401 0.87282 0.94432 0.0
C1457 C 0.38244 0.9009 0.95874 0.0
C1458 C 0.44711 0.8407 0.03839 0.0
C1459 C 0.41387 0.85638 0.99126 0.0
C1460 C 0.45868 0.81883 0.05876 0.0
C1461 C 0.45331 0.78939 0.0514 0.0
C1462 C 0.42958 0.83323 1.01052 0.0
C1463 C 0.43695 0.78261 0.02241 0.0
C1464 C 0.39949 0.85051 0.96057 0.0
C1465 C 0.39727 0.90576 0.98933 0.0
N1466 N 0.42546 0.80437 1.00312 0.0
N1467 N 0.41227 0.88386 1.00442 0.0
H1468 H 0.80172 0.42561 1.01784 0.0
H1469 H 0.63137 0.40306 1.0145 0.0
H1470 H 0.74392 0.48001 0.07615 0.0
H1471 H 0.68541 0.37857 0.92966 0.0
H1472 H 0.67241 0.43112 0.03779 0.0
H1473 H 0.75999 0.40896 0.98387 0.0
C1474 C 0.78039 0.43493 0.02251 0.0
C1475 C 0.77629 0.45479 0.04913 0.0
C1476 C 0.67513 0.41989 1.01385 0.0
C1477 C 0.72823 0.43461 1.01189 0.0
C1478 C 0.65177 0.40364 1.0007 0.0
C1479 C 0.65486 0.38834 0.97008 0.0
C1480 C 0.70203 0.42036 0.99667 0.0
C1481 C 0.68192 0.38999 0.95332 0.0
C1482 C 0.75653 0.42525 1.00337 0.0
C1483 C 0.74803 0.46527 0.0552 0.0
N1484 N 0.70448 0.40535 0.967 0.0
N1485 N 0.725 0.4547 0.03715 0.0
H1486 H 0.10837 0.79315 1.01409 0.0
H1487 H 0.17723 0.63223 1.0132 0.0
H1488 H 0.12262 0.73999 0.10198 0.0
H1489 H 0.17891 0.68636 0.92438 0.0
H1490 H 0.15175 0.67047 0.0436 0.0
H1491 H 0.12849 0.75346 0.97848 0.0
C1492 C 0.11531 0.77306 0.0258 0.0
C1493 C 0.11402 0.76996 0.06109 0.0
C1494 C 0.15759 0.67416 1.01745 0.0
C1495 C 0.13696 0.72474 0.02079 0.0
C1496 C 0.17223 0.65218 0.99994 0.0
C1497 C 0.18053 0.65599 0.96609 0.0
C1498 C 0.151 0.70051 1.0013 0.0
C1499 C 0.17311 0.68247 0.95049 0.0
C1500 C 0.12697 0.75054 1.00555 0.0
C1501 C 0.12351 0.74356 0.07497 0.0
N1502 N 0.15885 0.70379 0.96824 0.0
N1503 N 0.13452 0.72218 0.05491 0.0
loop_
_geom_bond_atom_site_label_1
_geom_bond_atom_site_label_2
_geom_bond_distance
_geom_bond_site_symmetry_2
_ccdc_geom_bond_type
Dy0 O3 2.307 . S
Dy0 O5 2.395 . S
Dy0 O6 2.379 . S
Dy0 O8 2.339 . S
Dy0 O10 2.298 . S
Dy0 O14 2.275 . S
Dy0 C22 2.738 . S
Dy1 O4 2.298 . S
Dy1 O7 2.275 . S
Dy1 O9 2.307 . S
Dy1 O11 2.395 . S
Dy1 O12 2.379 . S
Dy1 O15 2.339 . S
Dy1 C31 2.738 . S
C2 O14 1.254 . S
C2 O15 1.257 . S
O3 Dy0 2.307 . S
O3 C13 1.266 . S
O4 Dy1 2.298 . S
O4 C13 1.236 . S
O5 Dy0 2.395 . S
O5 C22 1.255 . S
O6 Dy0 2.379 . S
O6 C22 1.249 . S
O7 Dy1 2.275 . S
O7 C23 1.254 . S
O8 Dy0 2.339 . S
O8 C23 1.257 . S
O9 Dy1 2.307 . S
O9 C24 1.266 . S
O10 Dy0 2.298 . S
O10 C24 1.236 . S
O11 Dy1 2.395 . S
O11 C31 1.255 . S
O12 Dy1 2.379 . S
O12 C31 1.249 . S
C13 O3 1.266 . S
C13 O4 1.236 . S
O14 Dy0 2.275 . S
O14 C2 1.254 . S
O15 Dy1 2.339 . S
O15 C2 1.257 . S
C16 C19 1.344 . S
C16 C20 1.328 . S
C16 C22 1.516 . S
C17 C18 1.304 . S
C17 C21 1.323 . S
C18 C17 1.304 . S
C18 C19 1.371 . S
C18 H32 0.930 . S
C19 C16 1.344 . S
C19 C18 1.371 . S
C19 H33 0.931 . S
C20 C16 1.328 . S
C20 C21 1.433 . S
C20 H34 0.931 . S
C21 C17 1.323 . S
C21 C20 1.433 . S
C21 H35 0.933 . S
C22 Dy0 2.738 . S
C22 O5 1.255 . S
C22 O6 1.249 . S
C22 C16 1.516 . S
C23 O7 1.254 . S
C23 O8 1.257 . S
C24 O9 1.266 . S
C24 O10 1.236 . S
C25 C28 1.344 . S
C25 C29 1.328 . S
C25 C31 1.516 . S
C26 C27 1.304 . S
C26 C30 1.323 . S
C27 C26 1.304 . S
C27 C28 1.371 . S
C27 H36 0.930 . S
C28 C25 1.344 . S
C28 C27 1.371 . S
C28 H37 0.931 . S
C29 C25 1.328 . S
C29 C30 1.433 . S
C29 H38 0.931 . S
C30 C26 1.323 . S
C30 C29 1.433 . S
C30 H39 0.933 . S
C31 Dy1 2.738 . S
C31 O11 1.255 . S
C31 O12 1.249 . S
C31 C25 1.516 . S
H32 C18 0.930 . S
H33 C19 0.931 . S
H34 C20 0.931 . S
H35 C21 0.933 . S
H36 C27 0.930 . S
H37 C28 0.931 . S
H38 C29 0.931 . S
H39 C30 0.933 . S
Dy40 O43 2.307 . S
Dy40 O45 2.395 . S
Dy40 O46 2.379 . S
Dy40 O48 2.339 . S
Dy40 O50 2.298 . S
Dy40 O54 2.275 . S
Dy40 C62 2.738 . S
Dy41 O44 2.298 . S
Dy41 O47 2.275 . S
Dy41 O49 2.307 . S
Dy41 O51 2.395 . S
Dy41 O52 2.379 . S
Dy41 O55 2.339 . S
Dy41 C71 2.738 . S
C42 O54 1.254 . S
C42 O55 1.257 . S
O43 Dy40 2.307 . S
O43 C53 1.266 . S
O44 Dy41 2.298 . S
O44 C53 1.236 . S
O45 Dy40 2.395 . S
O45 C62 1.255 . S
O46 Dy40 2.379 . S
O46 C62 1.249 . S
O47 Dy41 2.275 . S
O47 C63 1.254 . S
O48 Dy40 2.339 . S
O48 C63 1.257 . S
O49 Dy41 2.307 . S
O49 C64 1.266 . S
O50 Dy40 2.298 . S
O50 C64 1.236 . S
O51 Dy41 2.395 . S
O51 C71 1.255 . S
O52 Dy41 2.379 . S
O52 C71 1.249 . S
C53 O43 1.266 . S
C53 O44 1.236 . S
O54 Dy40 2.275 . S
O54 C42 1.254 . S
O55 Dy41 2.339 . S
O55 C42 1.257 . S
C56 C59 1.344 . S
C56 C60 1.328 . S
C56 C62 1.516 . S
C57 C58 1.304 . S
C57 C61 1.323 . S
C58 C57 1.304 . S
C58 C59 1.371 . S
C58 H72 0.930 . S
C59 C56 1.344 . S
C59 C58 1.371 . S
C59 H73 0.931 . S
C60 C56 1.328 . S
C60 C61 1.433 . S
C60 H74 0.931 . S
C61 C57 1.323 . S
C61 C60 1.433 . S
C61 H75 0.933 . S
C62 Dy40 2.738 . S
C62 O45 1.255 . S
C62 O46 1.249 . S
C62 C56 1.516 . S
C63 O47 1.254 . S
C63 O48 1.257 . S
C64 O49 1.266 . S
C64 O50 1.236 . S
C65 C68 1.344 . S
C65 C69 1.328 . S
C65 C71 1.516 . S
C66 C67 1.304 . S
C66 C70 1.323 . S
C67 C66 1.304 . S
C67 C68 1.371 . S
C67 H76 0.930 . S
C68 C65 1.344 . S
C68 C67 1.371 . S
C68 H77 0.931 . S
C69 C65 1.328 . S
C69 C70 1.433 . S
C69 H78 0.931 . S
C70 C66 1.323 . S
C70 C69 1.433 . S
C70 H79 0.933 . S
C71 Dy41 2.738 . S
C71 O51 1.255 . S
C71 O52 1.249 . S
C71 C65 1.516 . S
H72 C58 0.930 . S
H73 C59 0.931 . S
H74 C60 0.931 . S
H75 C61 0.933 . S
H76 C67 0.930 . S
H77 C68 0.931 . S
H78 C69 0.931 . S
H79 C70 0.933 . S
Dy80 O83 2.307 . S
Dy80 O85 2.395 1_655 S
Dy80 O86 2.379 1_655 S
Dy80 O88 2.339 . S
Dy80 O90 2.298 1_655 S
Dy80 O94 2.275 . S
Dy80 C102 2.738 1_655 S
Dy81 O84 2.298 . S
Dy81 O87 2.275 . S
Dy81 O89 2.307 . S
Dy81 O91 2.395 . S
Dy81 O92 2.379 . S
Dy81 O95 2.339 . S
Dy81 C111 2.738 . S
C82 O94 1.254 . S
C82 O95 1.257 . S
O83 Dy80 2.307 . S
O83 C93 1.266 . S
O84 Dy81 2.298 . S
O84 C93 1.236 . S
O85 Dy80 2.395 1_455 S
O85 C102 1.255 . S
O86 Dy80 2.379 1_455 S
O86 C102 1.249 . S
O87 Dy81 2.275 . S
O87 C103 1.254 . S
O88 Dy80 2.339 . S
O88 C103 1.257 . S
O89 Dy81 2.307 . S
O89 C104 1.266 . S
O90 Dy80 2.298 1_455 S
O90 C104 1.236 1_455 S
O91 Dy81 2.395 . S
O91 C111 1.255 . S
O92 Dy81 2.379 . S
O92 C111 1.249 . S
C93 O83 1.266 . S
C93 O84 1.236 . S
O94 Dy80 2.275 . S
O94 C82 1.254 . S
O95 Dy81 2.339 . S
O95 C82 1.257 . S
C96 C99 1.344 . S
C96 C100 1.328 . S
C96 C102 1.516 . S
C97 C98 1.304 . S
C97 C101 1.323 . S
C98 C97 1.304 . S
C98 C99 1.371 . S
C98 H112 0.930 . S
C99 C96 1.344 . S
C99 C98 1.371 . S
C99 H113 0.931 . S
C100 C96 1.328 . S
C100 C101 1.433 . S
C100 H114 0.931 . S
C101 C97 1.323 . S
C101 C100 1.433 . S
C101 H115 0.933 . S
C102 Dy80 2.738 1_455 S
C102 O85 1.255 . S
C102 O86 1.249 . S
C102 C96 1.516 . S
C103 O87 1.254 . S
C103 O88 1.257 . S
C104 O89 1.266 . S
C104 O90 1.236 1_655 S
C105 C108 1.344 . S
C105 C109 1.328 . S
C105 C111 1.516 . S
C106 C107 1.304 . S
C106 C110 1.323 . S
C107 C106 1.304 . S
C107 C108 1.371 . S
C107 H116 0.930 . S
C108 C105 1.344 . S
C108 C107 1.371 . S
C108 H117 0.931 . S
C109 C105 1.328 . S
C109 C110 1.433 . S
C109 H118 0.931 . S
C110 C106 1.323 . S
C110 C109 1.433 . S
C110 H119 0.933 . S
C111 Dy81 2.738 . S
C111 O91 1.255 . S
C111 O92 1.249 . S
C111 C105 1.516 . S
H112 C98 0.930 . S
H113 C99 0.931 . S
H114 C100 0.931 . S
H115 C101 0.933 . S
H116 C107 0.930 . S
H117 C108 0.931 . S
H118 C109 0.931 . S
H119 C110 0.933 . S
Dy120 O123 2.307 . S
Dy120 O125 2.395 1_565 S
Dy120 O126 2.379 1_565 S
Dy120 O128 2.339 . S
Dy120 O130 2.298 1_565 S
Dy120 O134 2.275 . S
Dy120 C142 2.738 1_565 S
Dy121 O124 2.298 . S
Dy121 O127 2.275 . S
Dy121 O129 2.307 . S
Dy121 O131 2.395 . S
Dy121 O132 2.379 . S
Dy121 O135 2.339 . S
Dy121 C151 2.738 . S
C122 O134 1.254 . S
C122 O135 1.257 . S
O123 Dy120 2.307 . S
O123 C133 1.266 . S
O124 Dy121 2.298 . S
O124 C133 1.236 . S
O125 Dy120 2.395 1_545 S
O125 C142 1.255 . S
O126 Dy120 2.379 1_545 S
O126 C142 1.249 . S
O127 Dy121 2.275 . S
O127 C143 1.254 . S
O128 Dy120 2.339 . S
O128 C143 1.257 . S
O129 Dy121 2.307 . S
O129 C144 1.266 . S
O130 Dy120 2.298 1_545 S
O130 C144 1.236 1_545 S
O131 Dy121 2.395 . S
O131 C151 1.255 . S
O132 Dy121 2.379 . S
O132 C151 1.249 . S
C133 O123 1.266 . S
C133 O124 1.236 . S
O134 Dy120 2.275 . S
O134 C122 1.254 . S
O135 Dy121 2.339 . S
O135 C122 1.257 . S
C136 C139 1.344 . S
C136 C140 1.328 . S
C136 C142 1.516 . S
C137 C138 1.304 . S
C137 C141 1.323 . S
C138 C137 1.304 . S
C138 C139 1.371 . S
C138 H152 0.930 . S
C139 C136 1.344 . S
C139 C138 1.371 . S
C139 H153 0.931 . S
C140 C136 1.328 . S
C140 C141 1.433 . S
C140 H154 0.931 . S
C141 C137 1.323 . S
C141 C140 1.433 . S
C141 H155 0.933 . S
C142 Dy120 2.738 1_545 S
C142 O125 1.255 . S
C142 O126 1.249 . S
C142 C136 1.516 . S
C143 O127 1.254 . S
C143 O128 1.257 . S
C144 O129 1.266 . S
C144 O130 1.236 1_565 S
C145 C148 1.344 . S
C145 C149 1.328 . S
C145 C151 1.516 . S
C146 C147 1.304 . S
C146 C150 1.323 . S
C147 C146 1.304 . S
C147 C148 1.371 . S
C147 H156 0.930 . S
C148 C145 1.344 . S
C148 C147 1.371 . S
C148 H157 0.931 . S
C149 C145 1.328 . S
C149 C150 1.433 . S
C149 H158 0.931 . S
C150 C146 1.323 . S
C150 C149 1.433 . S
C150 H159 0.933 . S
C151 Dy121 2.738 . S
C151 O131 1.255 . S
C151 O132 1.249 . S
C151 C145 1.516 . S
H152 C138 0.930 . S
H153 C139 0.931 . S
H154 C140 0.931 . S
H155 C141 0.933 . S
H156 C147 0.930 . S
H157 C148 0.931 . S
H158 C149 0.931 . S
H159 C150 0.933 . S
Dy160 O163 2.307 . S
Dy160 O165 2.395 1_455 S
Dy160 O166 2.379 1_455 S
Dy160 O168 2.339 . S
Dy160 O170 2.298 1_455 S
Dy160 O174 2.275 . S
Dy160 C182 2.738 1_455 S
Dy161 O164 2.298 . S
Dy161 O167 2.275 . S
Dy161 O169 2.307 . S
Dy161 O171 2.395 . S
Dy161 O172 2.379 . S
Dy161 O175 2.339 . S
Dy161 C191 2.738 . S
C162 O174 1.254 . S
C162 O175 1.257 . S
O163 Dy160 2.307 . S
O163 C173 1.266 . S
O164 Dy161 2.298 . S
O164 C173 1.236 . S
O165 Dy160 2.395 1_655 S
O165 C182 1.255 . S
O166 Dy160 2.379 1_655 S
O166 C182 1.249 . S
O167 Dy161 2.275 . S
O167 C183 1.254 . S
O168 Dy160 2.339 . S
O168 C183 1.257 . S
O169 Dy161 2.307 . S
O169 C184 1.266 . S
O170 Dy160 2.298 1_655 S
O170 C184 1.236 1_655 S
O171 Dy161 2.395 . S
O171 C191 1.255 . S
O172 Dy161 2.379 . S
O172 C191 1.249 . S
C173 O163 1.266 . S
C173 O164 1.236 . S
O174 Dy160 2.275 . S
O174 C162 1.254 . S
O175 Dy161 2.339 . S
O175 C162 1.257 . S
C176 C179 1.344 . S
C176 C180 1.328 . S
C176 C182 1.516 . S
C177 C178 1.304 . S
C177 C181 1.323 . S
C178 C177 1.304 . S
C178 C179 1.371 . S
C178 H192 0.930 . S
C179 C176 1.344 . S
C179 C178 1.371 . S
C179 H193 0.931 . S
C180 C176 1.328 . S
C180 C181 1.433 . S
C180 H194 0.931 . S
C181 C177 1.323 . S
C181 C180 1.433 . S
C181 H195 0.933 . S
C182 Dy160 2.738 1_655 S
C182 O165 1.255 . S
C182 O166 1.249 . S
C182 C176 1.516 . S
C183 O167 1.254 . S
C183 O168 1.257 . S
C184 O169 1.266 . S
C184 O170 1.236 1_455 S
C185 C188 1.344 . S
C185 C189 1.328 . S
C185 C191 1.516 . S
C186 C187 1.304 . S
C186 C190 1.323 . S
C187 C186 1.304 . S
C187 C188 1.371 . S
C187 H196 0.930 . S
C188 C185 1.344 . S
C188 C187 1.371 . S
C188 H197 0.931 . S
C189 C185 1.328 . S
C189 C190 1.433 . S
C189 H198 0.931 . S
C190 C186 1.323 . S
C190 C189 1.433 . S
C190 H199 0.933 . S
C191 Dy161 2.738 . S
C191 O171 1.255 . S
C191 O172 1.249 . S
C191 C185 1.516 . S
H192 C178 0.930 . S
H193 C179 0.931 . S
H194 C180 0.931 . S
H195 C181 0.933 . S
H196 C187 0.930 . S
H197 C188 0.931 . S
H198 C189 0.931 . S
H199 C190 0.933 . S
Dy200 O203 2.307 . S
Dy200 O205 2.395 1_545 S
Dy200 O206 2.379 1_545 S
Dy200 O208 2.339 . S
Dy200 O210 2.298 1_545 S
Dy200 O214 2.275 . S
Dy200 C222 2.738 1_545 S
Dy201 O204 2.298 . S
Dy201 O207 2.275 . S
Dy201 O209 2.307 . S
Dy201 O211 2.395 . S
Dy201 O212 2.379 . S
Dy201 O215 2.339 . S
Dy201 C231 2.738 . S
C202 O214 1.254 . S
C202 O215 1.257 . S
O203 Dy200 2.307 . S
O203 C213 1.266 . S
O204 Dy201 2.298 . S
O204 C213 1.236 . S
O205 Dy200 2.395 1_565 S
O205 C222 1.255 . S
O206 Dy200 2.379 1_565 S
O206 C222 1.249 . S
O207 Dy201 2.275 . S
O207 C223 1.254 . S
O208 Dy200 2.339 . S
O208 C223 1.257 . S
O209 Dy201 2.307 . S
O209 C224 1.266 . S
O210 Dy200 2.298 1_565 S
O210 C224 1.236 1_565 S
O211 Dy201 2.395 . S
O211 C231 1.255 . S
O212 Dy201 2.379 . S
O212 C231 1.249 . S
C213 O203 1.266 . S
C213 O204 1.236 . S
O214 Dy200 2.275 . S
O214 C202 1.254 . S
O215 Dy201 2.339 . S
O215 C202 1.257 . S
C216 C219 1.344 . S
C216 C220 1.328 . S
C216 C222 1.516 . S
C217 C218 1.304 . S
C217 C221 1.323 . S
C218 C217 1.304 . S
C218 C219 1.371 . S
C218 H232 0.930 . S
C219 C216 1.344 . S
C219 C218 1.371 . S
C219 H233 0.931 . S
C220 C216 1.328 . S
C220 C221 1.433 . S
C220 H234 0.931 . S
C221 C217 1.323 . S
C221 C220 1.433 . S
C221 H235 0.933 . S
C222 Dy200 2.738 1_565 S
C222 O205 1.255 . S
C222 O206 1.249 . S
C222 C216 1.516 . S
C223 O207 1.254 . S
C223 O208 1.257 . S
C224 O209 1.266 . S
C224 O210 1.236 1_545 S
C225 C228 1.344 . S
C225 C229 1.328 . S
C225 C231 1.516 . S
C226 C227 1.304 . S
C226 C230 1.323 . S
C227 C226 1.304 . S
C227 C228 1.371 . S
C227 H236 0.930 . S
C228 C225 1.344 . S
C228 C227 1.371 . S
C228 H237 0.931 . S
C229 C225 1.328 . S
C229 C230 1.433 . S
C229 H238 0.931 . S
C230 C226 1.323 . S
C230 C229 1.433 . S
C230 H239 0.933 . S
C231 Dy201 2.738 . S
C231 O211 1.255 . S
C231 O212 1.249 . S
C231 C225 1.516 . S
H232 C218 0.930 . S
H233 C219 0.931 . S
H234 C220 0.931 . S
H235 C221 0.933 . S
H236 C227 0.930 . S
H237 C228 0.931 . S
H238 C229 0.931 . S
H239 C230 0.933 . S
Dy240 O243 2.307 . S
Dy240 O245 2.395 . S
Dy240 O246 2.379 . S
Dy240 O248 2.339 . S
Dy240 O250 2.298 . S
Dy240 O254 2.275 . S
Dy240 C262 2.738 . S
Dy241 O244 2.298 . S
Dy241 O247 2.275 . S
Dy241 O249 2.307 . S
Dy241 O251 2.395 . S
Dy241 O252 2.379 . S
Dy241 O255 2.339 . S
Dy241 C271 2.738 . S
C242 O254 1.254 . S
C242 O255 1.257 . S
O243 Dy240 2.307 . S
O243 C253 1.266 . S
O244 Dy241 2.298 . S
O244 C253 1.236 . S
O245 Dy240 2.395 . S
O245 C262 1.255 . S
O246 Dy240 2.379 . S
O246 C262 1.249 . S
O247 Dy241 2.275 . S
O247 C263 1.254 . S
O248 Dy240 2.339 . S
O248 C263 1.257 . S
O249 Dy241 2.307 . S
O249 C264 1.266 . S
O250 Dy240 2.298 . S
O250 C264 1.236 . S
O251 Dy241 2.395 . S
O251 C271 1.255 . S
O252 Dy241 2.379 . S
O252 C271 1.249 . S
C253 O243 1.266 . S
C253 O244 1.236 . S
O254 Dy240 2.275 . S
O254 C242 1.254 . S
O255 Dy241 2.339 . S
O255 C242 1.257 . S
C256 C259 1.344 . S
C256 C260 1.328 . S
C256 C262 1.516 . S
C257 C258 1.304 . S
C257 C261 1.323 . S
C258 C257 1.304 . S
C258 C259 1.371 . S
C258 H272 0.930 . S
C259 C256 1.344 . S
C259 C258 1.371 . S
C259 H273 0.931 . S
C260 C256 1.328 . S
C260 C261 1.433 . S
C260 H274 0.931 . S
C261 C257 1.323 . S
C261 C260 1.433 . S
C261 H275 0.933 . S
C262 Dy240 2.738 . S
C262 O245 1.255 . S
C262 O246 1.249 . S
C262 C256 1.516 . S
C263 O247 1.254 . S
C263 O248 1.257 . S
C264 O249 1.266 . S
C264 O250 1.236 . S
C265 C268 1.344 . S
C265 C269 1.328 . S
C265 C271 1.516 . S
C266 C267 1.304 . S
C266 C270 1.323 . S
C267 C266 1.304 . S
C267 C268 1.371 . S
C267 H276 0.930 . S
C268 C265 1.344 . S
C268 C267 1.371 . S
C268 H277 0.931 . S
C269 C265 1.328 . S
C269 C270 1.433 . S
C269 H278 0.931 . S
C270 C266 1.323 . S
C270 C269 1.433 . S
C270 H279 0.933 . S
C271 Dy241 2.738 . S
C271 O251 1.255 . S
C271 O252 1.249 . S
C271 C265 1.516 . S
H272 C258 0.930 . S
H273 C259 0.931 . S
H274 C260 0.931 . S
H275 C261 0.933 . S
H276 C267 0.930 . S
H277 C268 0.931 . S
H278 C269 0.931 . S
H279 C270 0.933 . S
Dy280 O283 2.307 . S
Dy280 O285 2.395 . S
Dy280 O286 2.379 . S
Dy280 O288 2.339 . S
Dy280 O290 2.298 . S
Dy280 O294 2.275 . S
Dy280 C302 2.738 . S
Dy281 O284 2.298 . S
Dy281 O287 2.275 . S
Dy281 O289 2.307 . S
Dy281 O291 2.395 . S
Dy281 O292 2.379 . S
Dy281 O295 2.339 . S
Dy281 C311 2.738 . S
C282 O294 1.254 . S
C282 O295 1.257 . S
O283 Dy280 2.307 . S
O283 C293 1.266 . S
O284 Dy281 2.298 . S
O284 C293 1.236 . S
O285 Dy280 2.395 . S
O285 C302 1.255 . S
O286 Dy280 2.379 . S
O286 C302 1.249 . S
O287 Dy281 2.275 . S
O287 C303 1.254 . S
O288 Dy280 2.339 . S
O288 C303 1.257 . S
O289 Dy281 2.307 . S
O289 C304 1.266 . S
O290 Dy280 2.298 . S
O290 C304 1.236 . S
O291 Dy281 2.395 . S
O291 C311 1.255 . S
O292 Dy281 2.379 . S
O292 C311 1.249 . S
C293 O283 1.266 . S
C293 O284 1.236 . S
O294 Dy280 2.275 . S
O294 C282 1.254 . S
O295 Dy281 2.339 . S
O295 C282 1.257 . S
C296 C299 1.344 . S
C296 C300 1.328 . S
C296 C302 1.516 . S
C297 C298 1.304 . S
C297 C301 1.323 . S
C298 C297 1.304 . S
C298 C299 1.371 . S
C298 H312 0.930 . S
C299 C296 1.344 . S
C299 C298 1.371 . S
C299 H313 0.931 . S
C300 C296 1.328 . S
C300 C301 1.433 . S
C300 H314 0.931 . S
C301 C297 1.323 . S
C301 C300 1.433 . S
C301 H315 0.933 . S
C302 Dy280 2.738 . S
C302 O285 1.255 . S
C302 O286 1.249 . S
C302 C296 1.516 . S
C303 O287 1.254 . S
C303 O288 1.257 . S
C304 O289 1.266 . S
C304 O290 1.236 . S
C305 C308 1.344 . S
C305 C309 1.328 . S
C305 C311 1.516 . S
C306 C307 1.304 . S
C306 C310 1.323 . S
C307 C306 1.304 . S
C307 C308 1.371 . S
C307 H316 0.930 . S
C308 C305 1.344 . S
C308 C307 1.371 . S
C308 H317 0.931 . S
C309 C305 1.328 . S
C309 C310 1.433 . S
C309 H318 0.931 . S
C310 C306 1.323 . S
C310 C309 1.433 . S
C310 H319 0.933 . S
C311 Dy281 2.738 . S
C311 O291 1.255 . S
C311 O292 1.249 . S
C311 C305 1.516 . S
H312 C298 0.930 . S
H313 C299 0.931 . S
H314 C300 0.931 . S
H315 C301 0.933 . S
H316 C307 0.930 . S
H317 C308 0.931 . S
H318 C309 0.931 . S
H319 C310 0.933 . S
Dy320 O323 2.307 . S
Dy320 O325 2.395 . S
Dy320 O326 2.379 . S
Dy320 O328 2.339 . S
Dy320 O330 2.298 . S
Dy320 O334 2.275 . S
Dy320 C342 2.738 . S
Dy321 O324 2.298 . S
Dy321 O327 2.275 . S
Dy321 O329 2.307 . S
Dy321 O331 2.395 . S
Dy321 O332 2.379 . S
Dy321 O335 2.339 . S
Dy321 C351 2.738 . S
C322 O334 1.254 . S
C322 O335 1.257 . S
O323 Dy320 2.307 . S
O323 C333 1.266 . S
O324 Dy321 2.298 . S
O324 C333 1.236 . S
O325 Dy320 2.395 . S
O325 C342 1.255 . S
O326 Dy320 2.379 . S
O326 C342 1.249 . S
O327 Dy321 2.275 . S
O327 C343 1.254 . S
O328 Dy320 2.339 . S
O328 C343 1.257 . S
O329 Dy321 2.307 . S
O329 C344 1.266 . S
O330 Dy320 2.298 . S
O330 C344 1.236 . S
O331 Dy321 2.395 . S
O331 C351 1.255 . S
O332 Dy321 2.379 . S
O332 C351 1.249 . S
C333 O323 1.266 . S
C333 O324 1.236 . S
O334 Dy320 2.275 . S
O334 C322 1.254 . S
O335 Dy321 2.339 . S
O335 C322 1.257 . S
C336 C339 1.344 . S
C336 C340 1.328 . S
C336 C342 1.516 . S
C337 C338 1.304 . S
C337 C341 1.323 . S
C338 C337 1.304 . S
C338 C339 1.371 . S
C338 H352 0.930 . S
C339 C336 1.344 . S
C339 C338 1.371 . S
C339 H353 0.931 . S
C340 C336 1.328 . S
C340 C341 1.433 . S
C340 H354 0.931 . S
C341 C337 1.323 . S
C341 C340 1.433 . S
C341 H355 0.933 . S
C342 Dy320 2.738 . S
C342 O325 1.255 . S
C342 O326 1.249 . S
C342 C336 1.516 . S
C343 O327 1.254 . S
C343 O328 1.257 . S
C344 O329 1.266 . S
C344 O330 1.236 . S
C345 C348 1.344 . S
C345 C349 1.328 . S
C345 C351 1.516 . S
C346 C347 1.304 . S
C346 C350 1.323 . S
C347 C346 1.304 . S
C347 C348 1.371 . S
C347 H356 0.930 . S
C348 C345 1.344 . S
C348 C347 1.371 . S
C348 H357 0.931 . S
C349 C345 1.328 . S
C349 C350 1.433 . S
C349 H358 0.931 . S
C350 C346 1.323 . S
C350 C349 1.433 . S
C350 H359 0.933 . S
C351 Dy321 2.738 . S
C351 O331 1.255 . S
C351 O332 1.249 . S
C351 C345 1.516 . S
H352 C338 0.930 . S
H353 C339 0.931 . S
H354 C340 0.931 . S
H355 C341 0.933 . S
H356 C347 0.930 . S
H357 C348 0.931 . S
H358 C349 0.931 . S
H359 C350 0.933 . S
Dy360 O363 2.307 . S
Dy360 O365 2.395 . S
Dy360 O366 2.379 . S
Dy360 O368 2.339 . S
Dy360 O370 2.298 . S
Dy360 O374 2.275 . S
Dy360 C382 2.738 . S
Dy361 O364 2.298 . S
Dy361 O367 2.275 . S
Dy361 O369 2.307 . S
Dy361 O371 2.395 . S
Dy361 O372 2.379 . S
Dy361 O375 2.339 . S
Dy361 C391 2.738 . S
C362 O374 1.254 . S
C362 O375 1.257 . S
O363 Dy360 2.307 . S
O363 C373 1.266 . S
O364 Dy361 2.298 . S
O364 C373 1.236 . S
O365 Dy360 2.395 . S
O365 C382 1.255 . S
O366 Dy360 2.379 . S
O366 C382 1.249 . S
O367 Dy361 2.275 . S
O367 C383 1.254 . S
O368 Dy360 2.339 . S
O368 C383 1.257 . S
O369 Dy361 2.307 . S
O369 C384 1.266 . S
O370 Dy360 2.298 . S
O370 C384 1.236 . S
O371 Dy361 2.395 . S
O371 C391 1.255 . S
O372 Dy361 2.379 . S
O372 C391 1.249 . S
C373 O363 1.266 . S
C373 O364 1.236 . S
O374 Dy360 2.275 . S
O374 C362 1.254 . S
O375 Dy361 2.339 . S
O375 C362 1.257 . S
C376 C379 1.344 . S
C376 C380 1.328 . S
C376 C382 1.516 . S
C377 C378 1.304 . S
C377 C381 1.323 . S
C378 C377 1.304 . S
C378 C379 1.371 . S
C378 H392 0.930 . S
C379 C376 1.344 . S
C379 C378 1.371 . S
C379 H393 0.931 . S
C380 C376 1.328 . S
C380 C381 1.433 . S
C380 H394 0.931 . S
C381 C377 1.323 . S
C381 C380 1.433 . S
C381 H395 0.933 . S
C382 Dy360 2.738 . S
C382 O365 1.255 . S
C382 O366 1.249 . S
C382 C376 1.516 . S
C383 O367 1.254 . S
C383 O368 1.257 . S
C384 O369 1.266 . S
C384 O370 1.236 . S
C385 C388 1.344 . S
C385 C389 1.328 . S
C385 C391 1.516 . S
C386 C387 1.304 . S
C386 C390 1.323 . S
C387 C386 1.304 . S
C387 C388 1.371 . S
C387 H396 0.930 . S
C388 C385 1.344 . S
C388 C387 1.371 . S
C388 H397 0.931 . S
C389 C385 1.328 . S
C389 C390 1.433 . S
C389 H398 0.931 . S
C390 C386 1.323 . S
C390 C389 1.433 . S
C390 H399 0.933 . S
C391 Dy361 2.738 . S
C391 O371 1.255 . S
C391 O372 1.249 . S
C391 C385 1.516 . S
H392 C378 0.930 . S
H393 C379 0.931 . S
H394 C380 0.931 . S
H395 C381 0.933 . S
H396 C387 0.930 . S
H397 C388 0.931 . S
H398 C389 0.931 . S
H399 C390 0.933 . S
Dy400 O403 2.307 . S
Dy400 O405 2.395 . S
Dy400 O406 2.379 . S
Dy400 O408 2.339 . S
Dy400 O410 2.298 . S
Dy400 O414 2.275 . S
Dy400 C422 2.738 . S
Dy401 O404 2.298 1_455 S
Dy401 O407 2.275 . S
Dy401 O409 2.307 . S
Dy401 O411 2.395 1_455 S
Dy401 O412 2.379 1_455 S
Dy401 O415 2.339 . S
Dy401 C431 2.738 1_455 S
C402 O414 1.254 . S
C402 O415 1.257 . S
O403 Dy400 2.307 . S
O403 C413 1.266 . S
O404 Dy401 2.298 1_655 S
O404 C413 1.236 1_655 S
O405 Dy400 2.395 . S
O405 C422 1.255 . S
O406 Dy400 2.379 . S
O406 C422 1.249 . S
O407 Dy401 2.275 . S
O407 C423 1.254 . S
O408 Dy400 2.339 . S
O408 C423 1.257 . S
O409 Dy401 2.307 . S
O409 C424 1.266 . S
O410 Dy400 2.298 . S
O410 C424 1.236 . S
O411 Dy401 2.395 1_655 S
O411 C431 1.255 . S
O412 Dy401 2.379 1_655 S
O412 C431 1.249 . S
C413 O403 1.266 . S
C413 O404 1.236 1_455 S
O414 Dy400 2.275 . S
O414 C402 1.254 . S
O415 Dy401 2.339 . S
O415 C402 1.257 . S
C416 C419 1.344 . S
C416 C420 1.328 . S
C416 C422 1.516 . S
C417 C418 1.304 . S
C417 C421 1.323 . S
C418 C417 1.304 . S
C418 C419 1.371 . S
C418 H432 0.930 . S
C419 C416 1.344 . S
C419 C418 1.371 . S
C419 H433 0.931 . S
C420 C416 1.328 . S
C420 C421 1.433 . S
C420 H434 0.931 . S
C421 C417 1.323 . S
C421 C420 1.433 . S
C421 H435 0.933 . S
C422 Dy400 2.738 . S
C422 O405 1.255 . S
C422 O406 1.249 . S
C422 C416 1.516 . S
C423 O407 1.254 . S
C423 O408 1.257 . S
C424 O409 1.266 . S
C424 O410 1.236 . S
C425 C428 1.344 . S
C425 C429 1.328 . S
C425 C431 1.516 . S
C426 C427 1.304 . S
C426 C430 1.323 . S
C427 C426 1.304 . S
C427 C428 1.371 . S
C427 H436 0.930 . S
C428 C425 1.344 . S
C428 C427 1.371 . S
C428 H437 0.931 . S
C429 C425 1.328 . S
C429 C430 1.433 . S
C429 H438 0.931 . S
C430 C426 1.323 . S
C430 C429 1.433 . S
C430 H439 0.933 . S
C431 Dy401 2.738 1_655 S
C431 O411 1.255 . S
C431 O412 1.249 . S
C431 C425 1.516 . S
H432 C418 0.930 . S
H433 C419 0.931 . S
H434 C420 0.931 . S
H435 C421 0.933 . S
H436 C427 0.930 . S
H437 C428 0.931 . S
H438 C429 0.931 . S
H439 C430 0.933 . S
Dy440 O443 2.307 . S
Dy440 O445 2.395 . S
Dy440 O446 2.379 . S
Dy440 O448 2.339 . S
Dy440 O450 2.298 . S
Dy440 O454 2.275 . S
Dy440 C462 2.738 . S
Dy441 O444 2.298 1_545 S
Dy441 O447 2.275 . S
Dy441 O449 2.307 . S
Dy441 O451 2.395 1_545 S
Dy441 O452 2.379 1_545 S
Dy441 O455 2.339 . S
Dy441 C471 2.738 1_545 S
C442 O454 1.254 . S
C442 O455 1.257 . S
O443 Dy440 2.307 . S
O443 C453 1.266 . S
O444 Dy441 2.298 1_565 S
O444 C453 1.236 1_565 S
O445 Dy440 2.395 . S
O445 C462 1.255 . S
O446 Dy440 2.379 . S
O446 C462 1.249 . S
O447 Dy441 2.275 . S
O447 C463 1.254 . S
O448 Dy440 2.339 . S
O448 C463 1.257 . S
O449 Dy441 2.307 . S
O449 C464 1.266 . S
O450 Dy440 2.298 . S
O450 C464 1.236 . S
O451 Dy441 2.395 1_565 S
O451 C471 1.255 . S
O452 Dy441 2.379 1_565 S
O452 C471 1.249 . S
C453 O443 1.266 . S
C453 O444 1.236 1_545 S
O454 Dy440 2.275 . S
O454 C442 1.254 . S
O455 Dy441 2.339 . S
O455 C442 1.257 . S
C456 C459 1.344 . S
C456 C460 1.328 . S
C456 C462 1.516 . S
C457 C458 1.304 . S
C457 C461 1.323 . S
C458 C457 1.304 . S
C458 C459 1.371 . S
C458 H472 0.930 . S
C459 C456 1.344 . S
C459 C458 1.371 . S
C459 H473 0.931 . S
C460 C456 1.328 . S
C460 C461 1.433 . S
C460 H474 0.931 . S
C461 C457 1.323 . S
C461 C460 1.433 . S
C461 H475 0.933 . S
C462 Dy440 2.738 . S
C462 O445 1.255 . S
C462 O446 1.249 . S
C462 C456 1.516 . S
C463 O447 1.254 . S
C463 O448 1.257 . S
C464 O449 1.266 . S
C464 O450 1.236 . S
C465 C468 1.344 . S
C465 C469 1.328 . S
C465 C471 1.516 . S
C466 C467 1.304 . S
C466 C470 1.323 . S
C467 C466 1.304 . S
C467 C468 1.371 . S
C467 H476 0.930 . S
C468 C465 1.344 . S
C468 C467 1.371 . S
C468 H477 0.931 . S
C469 C465 1.328 . S
C469 C470 1.433 . S
C469 H478 0.931 . S
C470 C466 1.323 . S
C470 C469 1.433 . S
C470 H479 0.933 . S
C471 Dy441 2.738 1_565 S
C471 O451 1.255 . S
C471 O452 1.249 . S
C471 C465 1.516 . S
H472 C458 0.930 . S
H473 C459 0.931 . S
H474 C460 0.931 . S
H475 C461 0.933 . S
H476 C467 0.930 . S
H477 C468 0.931 . S
H478 C469 0.931 . S
H479 C470 0.933 . S
Dy480 O483 2.307 . S
Dy480 O485 2.395 . S
Dy480 O486 2.379 . S
Dy480 O488 2.339 . S
Dy480 O490 2.298 . S
Dy480 O494 2.275 . S
Dy480 C502 2.738 . S
Dy481 O484 2.298 1_655 S
Dy481 O487 2.275 . S
Dy481 O489 2.307 . S
Dy481 O491 2.395 1_655 S
Dy481 O492 2.379 1_655 S
Dy481 O495 2.339 . S
Dy481 C511 2.738 1_655 S
C482 O494 1.254 . S
C482 O495 1.257 . S
O483 Dy480 2.307 . S
O483 C493 1.266 . S
O484 Dy481 2.298 1_455 S
O484 C493 1.236 1_455 S
O485 Dy480 2.395 . S
O485 C502 1.255 . S
O486 Dy480 2.379 . S
O486 C502 1.249 . S
O487 Dy481 2.275 . S
O487 C503 1.254 . S
O488 Dy480 2.339 . S
O488 C503 1.257 . S
O489 Dy481 2.307 . S
O489 C504 1.266 . S
O490 Dy480 2.298 . S
O490 C504 1.236 . S
O491 Dy481 2.395 1_455 S
O491 C511 1.255 . S
O492 Dy481 2.379 1_455 S
O492 C511 1.249 . S
C493 O483 1.266 . S
C493 O484 1.236 1_655 S
O494 Dy480 2.275 . S
O494 C482 1.254 . S
O495 Dy481 2.339 . S
O495 C482 1.257 . S
C496 C499 1.344 . S
C496 C500 1.328 . S
C496 C502 1.516 . S
C497 C498 1.304 . S
C497 C501 1.323 . S
C498 C497 1.304 . S
C498 C499 1.371 . S
C498 H512 0.930 . S
C499 C496 1.344 . S
C499 C498 1.371 . S
C499 H513 0.931 . S
C500 C496 1.328 . S
C500 C501 1.433 . S
C500 H514 0.931 . S
C501 C497 1.323 . S
C501 C500 1.433 . S
C501 H515 0.933 . S
C502 Dy480 2.738 . S
C502 O485 1.255 . S
C502 O486 1.249 . S
C502 C496 1.516 . S
C503 O487 1.254 . S
C503 O488 1.257 . S
C504 O489 1.266 . S
C504 O490 1.236 . S
C505 C508 1.344 . S
C505 C509 1.328 . S
C505 C511 1.516 . S
C506 C507 1.304 . S
C506 C510 1.323 . S
C507 C506 1.304 . S
C507 C508 1.371 . S
C507 H516 0.930 . S
C508 C505 1.344 . S
C508 C507 1.371 . S
C508 H517 0.931 . S
C509 C505 1.328 . S
C509 C510 1.433 . S
C509 H518 0.931 . S
C510 C506 1.323 . S
C510 C509 1.433 . S
C510 H519 0.933 . S
C511 Dy481 2.738 1_455 S
C511 O491 1.255 . S
C511 O492 1.249 . S
C511 C505 1.516 . S
H512 C498 0.930 . S
H513 C499 0.931 . S
H514 C500 0.931 . S
H515 C501 0.933 . S
H516 C507 0.930 . S
H517 C508 0.931 . S
H518 C509 0.931 . S
H519 C510 0.933 . S
Dy520 O523 2.307 . S
Dy520 O525 2.395 . S
Dy520 O526 2.379 . S
Dy520 O528 2.339 . S
Dy520 O530 2.298 . S
Dy520 O534 2.275 . S
Dy520 C542 2.738 . S
Dy521 O524 2.298 1_565 S
Dy521 O527 2.275 . S
Dy521 O529 2.307 . S
Dy521 O531 2.395 1_565 S
Dy521 O532 2.379 1_565 S
Dy521 O535 2.339 . S
Dy521 C551 2.738 1_565 S
C522 O534 1.254 . S
C522 O535 1.257 . S
O523 Dy520 2.307 . S
O523 C533 1.266 . S
O524 Dy521 2.298 1_545 S
O524 C533 1.236 1_545 S
O525 Dy520 2.395 . S
O525 C542 1.255 . S
O526 Dy520 2.379 . S
O526 C542 1.249 . S
O527 Dy521 2.275 . S
O527 C543 1.254 . S
O528 Dy520 2.339 . S
O528 C543 1.257 . S
O529 Dy521 2.307 . S
O529 C544 1.266 . S
O530 Dy520 2.298 . S
O530 C544 1.236 . S
O531 Dy521 2.395 1_545 S
O531 C551 1.255 . S
O532 Dy521 2.379 1_545 S
O532 C551 1.249 . S
C533 O523 1.266 . S
C533 O524 1.236 1_565 S
O534 Dy520 2.275 . S
O534 C522 1.254 . S
O535 Dy521 2.339 . S
O535 C522 1.257 . S
C536 C539 1.344 . S
C536 C540 1.328 . S
C536 C542 1.516 . S
C537 C538 1.304 . S
C537 C541 1.323 . S
C538 C537 1.304 . S
C538 C539 1.371 . S
C538 H552 0.930 . S
C539 C536 1.344 . S
C539 C538 1.371 . S
C539 H553 0.931 . S
C540 C536 1.328 . S
C540 C541 1.433 . S
C540 H554 0.931 . S
C541 C537 1.323 . S
C541 C540 1.433 . S
C541 H555 0.933 . S
C542 Dy520 2.738 . S
C542 O525 1.255 . S
C542 O526 1.249 . S
C542 C536 1.516 . S
C543 O527 1.254 . S
C543 O528 1.257 . S
C544 O529 1.266 . S
C544 O530 1.236 . S
C545 C548 1.344 . S
C545 C549 1.328 . S
C545 C551 1.516 . S
C546 C547 1.304 . S
C546 C550 1.323 . S
C547 C546 1.304 . S
C547 C548 1.371 . S
C547 H556 0.930 . S
C548 C545 1.344 . S
C548 C547 1.371 . S
C548 H557 0.931 . S
C549 C545 1.328 . S
C549 C550 1.433 . S
C549 H558 0.931 . S
C550 C546 1.323 . S
C550 C549 1.433 . S
C550 H559 0.933 . S
C551 Dy521 2.738 1_545 S
C551 O531 1.255 . S
C551 O532 1.249 . S
C551 C545 1.516 . S
H552 C538 0.930 . S
H553 C539 0.931 . S
H554 C540 0.931 . S
H555 C541 0.933 . S
H556 C547 0.930 . S
H557 C548 0.931 . S
H558 C549 0.931 . S
H559 C550 0.933 . S
Dy560 O563 2.307 . S
Dy560 O565 2.395 . S
Dy560 O566 2.379 . S
Dy560 O568 2.339 . S
Dy560 O570 2.298 . S
Dy560 O574 2.275 . S
Dy560 C582 2.738 . S
Dy561 O564 2.298 . S
Dy561 O567 2.275 . S
Dy561 O569 2.307 . S
Dy561 O571 2.395 . S
Dy561 O572 2.379 . S
Dy561 O575 2.339 . S
Dy561 C591 2.738 . S
C562 O574 1.254 . S
C562 O575 1.257 . S
O563 Dy560 2.307 . S
O563 C573 1.266 . S
O564 Dy561 2.298 . S
O564 C573 1.236 . S
O565 Dy560 2.395 . S
O565 C582 1.255 . S
O566 Dy560 2.379 . S
O566 C582 1.249 . S
O567 Dy561 2.275 . S
O567 C583 1.254 . S
O568 Dy560 2.339 . S
O568 C583 1.257 . S
O569 Dy561 2.307 . S
O569 C584 1.266 . S
O570 Dy560 2.298 . S
O570 C584 1.236 . S
O571 Dy561 2.395 . S
O571 C591 1.255 . S
O572 Dy561 2.379 . S
O572 C591 1.249 . S
C573 O563 1.266 . S
C573 O564 1.236 . S
O574 Dy560 2.275 . S
O574 C562 1.254 . S
O575 Dy561 2.339 . S
O575 C562 1.257 . S
C576 C579 1.344 . S
C576 C580 1.328 . S
C576 C582 1.516 . S
C577 C578 1.304 . S
C577 C581 1.323 . S
C578 C577 1.304 . S
C578 C579 1.371 . S
C578 H592 0.930 . S
C579 C576 1.344 . S
C579 C578 1.371 . S
C579 H593 0.931 . S
C580 C576 1.328 . S
C580 C581 1.433 . S
C580 H594 0.931 . S
C581 C577 1.323 . S
C581 C580 1.433 . S
C581 H595 0.933 . S
C582 Dy560 2.738 . S
C582 O565 1.255 . S
C582 O566 1.249 . S
C582 C576 1.516 . S
C583 O567 1.254 . S
C583 O568 1.257 . S
C584 O569 1.266 . S
C584 O570 1.236 . S
C585 C588 1.344 . S
C585 C589 1.328 . S
C585 C591 1.516 . S
C586 C587 1.304 . S
C586 C590 1.323 . S
C587 C586 1.304 . S
C587 C588 1.371 . S
C587 H596 0.930 . S
C588 C585 1.344 . S
C588 C587 1.371 . S
C588 H597 0.931 . S
C589 C585 1.328 . S
C589 C590 1.433 . S
C589 H598 0.931 . S
C590 C586 1.323 . S
C590 C589 1.433 . S
C590 H599 0.933 . S
C591 Dy561 2.738 . S
C591 O571 1.255 . S
C591 O572 1.249 . S
C591 C585 1.516 . S
H592 C578 0.930 . S
H593 C579 0.931 . S
H594 C580 0.931 . S
H595 C581 0.933 . S
H596 C587 0.930 . S
H597 C588 0.931 . S
H598 C589 0.931 . S
H599 C590 0.933 . S
Dy600 O603 2.307 . S
Dy600 O605 2.395 . S
Dy600 O606 2.379 . S
Dy600 O608 2.339 . S
Dy600 O610 2.298 . S
Dy600 O614 2.275 . S
Dy600 C622 2.738 . S
Dy601 O604 2.298 . S
Dy601 O607 2.275 . S
Dy601 O609 2.307 . S
Dy601 O611 2.395 . S
Dy601 O612 2.379 . S
Dy601 O615 2.339 . S
Dy601 C631 2.738 . S
C602 O614 1.254 . S
C602 O615 1.257 . S
O603 Dy600 2.307 . S
O603 C613 1.266 . S
O604 Dy601 2.298 . S
O604 C613 1.236 . S
O605 Dy600 2.395 . S
O605 C622 1.255 . S
O606 Dy600 2.379 . S
O606 C622 1.249 . S
O607 Dy601 2.275 . S
O607 C623 1.254 . S
O608 Dy600 2.339 . S
O608 C623 1.257 . S
O609 Dy601 2.307 . S
O609 C624 1.266 . S
O610 Dy600 2.298 . S
O610 C624 1.236 . S
O611 Dy601 2.395 . S
O611 C631 1.255 . S
O612 Dy601 2.379 . S
O612 C631 1.249 . S
C613 O603 1.266 . S
C613 O604 1.236 . S
O614 Dy600 2.275 . S
O614 C602 1.254 . S
O615 Dy601 2.339 . S
O615 C602 1.257 . S
C616 C619 1.344 . S
C616 C620 1.328 . S
C616 C622 1.516 . S
C617 C618 1.304 . S
C617 C621 1.323 . S
C618 C617 1.304 . S
C618 C619 1.371 . S
C618 H632 0.930 . S
C619 C616 1.344 . S
C619 C618 1.371 . S
C619 H633 0.931 . S
C620 C616 1.328 . S
C620 C621 1.433 . S
C620 H634 0.931 . S
C621 C617 1.323 . S
C621 C620 1.433 . S
C621 H635 0.933 . S
C622 Dy600 2.738 . S
C622 O605 1.255 . S
C622 O606 1.249 . S
C622 C616 1.516 . S
C623 O607 1.254 . S
C623 O608 1.257 . S
C624 O609 1.266 . S
C624 O610 1.236 . S
C625 C628 1.344 . S
C625 C629 1.328 . S
C625 C631 1.516 . S
C626 C627 1.304 . S
C626 C630 1.323 . S
C627 C626 1.304 . S
C627 C628 1.371 . S
C627 H636 0.930 . S
C628 C625 1.344 . S
C628 C627 1.371 . S
C628 H637 0.931 . S
C629 C625 1.328 . S
C629 C630 1.433 . S
C629 H638 0.931 . S
C630 C626 1.323 . S
C630 C629 1.433 . S
C630 H639 0.933 . S
C631 Dy601 2.738 . S
C631 O611 1.255 . S
C631 O612 1.249 . S
C631 C625 1.516 . S
H632 C618 0.930 . S
H633 C619 0.931 . S
H634 C620 0.931 . S
H635 C621 0.933 . S
H636 C627 0.930 . S
H637 C628 0.931 . S
H638 C629 0.931 . S
H639 C630 0.933 . S
H640 C646 0.930 . S
H641 C650 0.930 . S
H642 C655 0.929 . S
H643 C653 0.929 . S
H644 C648 0.929 . S
H645 C654 0.929 . S
C646 H640 0.930 . S
C646 C647 1.367 . S
C646 C654 1.378 . S
C647 C646 1.367 . S
C647 C655 1.433 . S
C648 H644 0.929 . S
C648 C650 1.378 . S
C648 C652 1.350 . S
C649 C652 1.463 . S
C649 C654 1.350 . S
C649 N657 1.427 . S
C650 H641 0.930 . S
C650 C648 1.378 . S
C650 C651 1.367 . S
C651 C650 1.367 . S
C651 C653 1.433 . S
C652 C648 1.350 . S
C652 C649 1.463 . S
C652 N656 1.427 . S
C653 H643 0.929 . S
C653 C651 1.433 . S
C653 N656 1.384 . S
C654 H645 0.929 . S
C654 C646 1.378 . S
C654 C649 1.350 . S
C655 H642 0.929 . S
C655 C647 1.433 . S
C655 N657 1.384 . S
N656 C652 1.427 . S
N656 C653 1.384 . S
N657 C649 1.427 . S
N657 C655 1.384 . S
H658 C664 0.930 . S
H659 C668 0.930 . S
H660 C673 0.929 . S
H661 C671 0.929 . S
H662 C666 0.929 . S
H663 C672 0.929 . S
C664 H658 0.930 . S
C664 C665 1.367 . S
C664 C672 1.378 . S
C665 C664 1.367 . S
C665 C673 1.433 . S
C666 H662 0.929 . S
C666 C668 1.378 . S
C666 C670 1.350 . S
C667 C670 1.463 . S
C667 C672 1.350 . S
C667 N675 1.427 . S
C668 H659 0.930 . S
C668 C666 1.378 . S
C668 C669 1.367 . S
C669 C668 1.367 . S
C669 C671 1.433 . S
C670 C666 1.350 . S
C670 C667 1.463 . S
C670 N674 1.427 . S
C671 H661 0.929 . S
C671 C669 1.433 . S
C671 N674 1.384 . S
C672 H663 0.929 . S
C672 C664 1.378 . S
C672 C667 1.350 . S
C673 H660 0.929 . S
C673 C665 1.433 . S
C673 N675 1.384 . S
N674 C670 1.427 . S
N674 C671 1.384 . S
N675 C667 1.427 . S
N675 C673 1.384 . S
H676 C682 0.930 . S
H677 C686 0.930 . S
H678 C691 0.929 . S
H679 C689 0.929 . S
H680 C684 0.929 . S
H681 C690 0.929 . S
C682 H676 0.930 . S
C682 C683 1.367 . S
C682 C690 1.378 . S
C683 C682 1.367 . S
C683 C691 1.433 . S
C684 H680 0.929 . S
C684 C686 1.378 . S
C684 C688 1.350 . S
C685 C688 1.463 . S
C685 C690 1.350 . S
C685 N693 1.427 . S
C686 H677 0.930 . S
C686 C684 1.378 . S
C686 C687 1.367 . S
C687 C686 1.367 . S
C687 C689 1.433 . S
C688 C684 1.350 . S
C688 C685 1.463 . S
C688 N692 1.427 . S
C689 H679 0.929 . S
C689 C687 1.433 . S
C689 N692 1.384 . S
C690 H681 0.929 . S
C690 C682 1.378 . S
C690 C685 1.350 . S
C691 H678 0.929 . S
C691 C683 1.433 . S
C691 N693 1.384 . S
N692 C688 1.427 . S
N692 C689 1.384 . S
N693 C685 1.427 . S
N693 C691 1.384 . S
H694 C700 0.930 . S
H695 C704 0.930 . S
H696 C709 0.929 . S
H697 C707 0.929 . S
H698 C702 0.929 . S
H699 C708 0.929 . S
C700 H694 0.930 . S
C700 C701 1.367 . S
C700 C708 1.378 . S
C701 C700 1.367 . S
C701 C709 1.433 . S
C702 H698 0.929 . S
C702 C704 1.378 . S
C702 C706 1.350 . S
C703 C706 1.463 . S
C703 C708 1.350 . S
C703 N711 1.427 . S
C704 H695 0.930 . S
C704 C702 1.378 . S
C704 C705 1.367 . S
C705 C704 1.367 . S
C705 C707 1.433 . S
C706 C702 1.350 . S
C706 C703 1.463 . S
C706 N710 1.427 . S
C707 H697 0.929 . S
C707 C705 1.433 . S
C707 N710 1.384 . S
C708 H699 0.929 . S
C708 C700 1.378 . S
C708 C703 1.350 . S
C709 H696 0.929 . S
C709 C701 1.433 . S
C709 N711 1.384 . S
N710 C706 1.427 . S
N710 C707 1.384 . S
N711 C703 1.427 . S
N711 C709 1.384 . S
H712 C718 0.930 . S
H713 C722 0.930 . S
H714 C727 0.929 . S
H715 C725 0.929 . S
H716 C720 0.929 . S
H717 C726 0.929 . S
C718 H712 0.930 . S
C718 C719 1.367 . S
C718 C726 1.378 . S
C719 C718 1.367 . S
C719 C727 1.433 . S
C720 H716 0.929 . S
C720 C722 1.378 . S
C720 C724 1.350 . S
C721 C724 1.463 . S
C721 C726 1.350 . S
C721 N729 1.427 . S
C722 H713 0.930 . S
C722 C720 1.378 . S
C722 C723 1.367 . S
C723 C722 1.367 . S
C723 C725 1.433 . S
C724 C720 1.350 . S
C724 C721 1.463 . S
C724 N728 1.427 . S
C725 H715 0.929 . S
C725 C723 1.433 . S
C725 N728 1.384 . S
C726 H717 0.929 . S
C726 C718 1.378 . S
C726 C721 1.350 . S
C727 H714 0.929 . S
C727 C719 1.433 . S
C727 N729 1.384 . S
N728 C724 1.427 . S
N728 C725 1.384 . S
N729 C721 1.427 . S
N729 C727 1.384 . S
H730 C736 0.930 . S
H731 C740 0.930 . S
H732 C745 0.929 . S
H733 C743 0.929 . S
H734 C738 0.929 . S
H735 C744 0.929 . S
C736 H730 0.930 . S
C736 C737 1.367 . S
C736 C744 1.378 . S
C737 C736 1.367 . S
C737 C745 1.433 . S
C738 H734 0.929 . S
C738 C740 1.378 . S
C738 C742 1.350 . S
C739 C742 1.463 . S
C739 C744 1.350 . S
C739 N747 1.427 . S
C740 H731 0.930 . S
C740 C738 1.378 . S
C740 C741 1.367 . S
C741 C740 1.367 . S
C741 C743 1.433 . S
C742 C738 1.350 . S
C742 C739 1.463 . S
C742 N746 1.427 . S
C743 H733 0.929 . S
C743 C741 1.433 . S
C743 N746 1.384 . S
C744 H735 0.929 . S
C744 C736 1.378 . S
C744 C739 1.350 . S
C745 H732 0.929 . S
C745 C737 1.433 . S
C745 N747 1.384 . S
N746 C742 1.427 . S
N746 C743 1.384 . S
N747 C739 1.427 . S
N747 C745 1.384 . S
H748 C754 0.930 . S
H749 C758 0.930 . S
H750 C763 0.929 . S
H751 C761 0.929 . S
H752 C756 0.929 . S
H753 C762 0.929 . S
C754 H748 0.930 . S
C754 C755 1.367 . S
C754 C762 1.378 . S
C755 C754 1.367 . S
C755 C763 1.433 . S
C756 H752 0.929 . S
C756 C758 1.378 . S
C756 C760 1.350 . S
C757 C760 1.463 . S
C757 C762 1.350 . S
C757 N765 1.427 . S
C758 H749 0.930 . S
C758 C756 1.378 . S
C758 C759 1.367 . S
C759 C758 1.367 . S
C759 C761 1.433 . S
C760 C756 1.350 . S
C760 C757 1.463 . S
C760 N764 1.427 . S
C761 H751 0.929 . S
C761 C759 1.433 . S
C761 N764 1.384 . S
C762 H753 0.929 . S
C762 C754 1.378 . S
C762 C757 1.350 . S
C763 H750 0.929 . S
C763 C755 1.433 . S
C763 N765 1.384 . S
N764 C760 1.427 . S
N764 C761 1.384 . S
N765 C757 1.427 . S
N765 C763 1.384 . S
H766 C772 0.930 . S
H767 C776 0.930 . S
H768 C781 0.929 . S
H769 C779 0.929 . S
H770 C774 0.929 . S
H771 C780 0.929 . S
C772 H766 0.930 . S
C772 C773 1.367 . S
C772 C780 1.378 . S
C773 C772 1.367 . S
C773 C781 1.433 . S
C774 H770 0.929 . S
C774 C776 1.378 . S
C774 C778 1.350 . S
C775 C778 1.463 . S
C775 C780 1.350 . S
C775 N783 1.427 . S
C776 H767 0.930 . S
C776 C774 1.378 . S
C776 C777 1.367 . S
C777 C776 1.367 . S
C777 C779 1.433 . S
C778 C774 1.350 . S
C778 C775 1.463 . S
C778 N782 1.427 . S
C779 H769 0.929 . S
C779 C777 1.433 . S
C779 N782 1.384 . S
C780 H771 0.929 . S
C780 C772 1.378 . S
C780 C775 1.350 . S
C781 H768 0.929 . S
C781 C773 1.433 . S
C781 N783 1.384 . S
N782 C778 1.427 . S
N782 C779 1.384 . S
N783 C775 1.427 . S
N783 C781 1.384 . S
H784 C790 0.930 . S
H785 C794 0.930 . S
H786 C799 0.929 . S
H787 C797 0.929 . S
H788 C792 0.929 . S
H789 C798 0.929 . S
C790 H784 0.930 . S
C790 C791 1.367 . S
C790 C798 1.378 . S
C791 C790 1.367 . S
C791 C799 1.433 . S
C792 H788 0.929 . S
C792 C794 1.378 . S
C792 C796 1.350 . S
C793 C796 1.463 . S
C793 C798 1.350 . S
C793 N801 1.427 . S
C794 H785 0.930 . S
C794 C792 1.378 . S
C794 C795 1.367 . S
C795 C794 1.367 . S
C795 C797 1.433 . S
C796 C792 1.350 . S
C796 C793 1.463 . S
C796 N800 1.427 . S
C797 H787 0.929 . S
C797 C795 1.433 . S
C797 N800 1.384 . S
C798 H789 0.929 . S
C798 C790 1.378 . S
C798 C793 1.350 . S
C799 H786 0.929 . S
C799 C791 1.433 . S
C799 N801 1.384 . S
N800 C796 1.427 . S
N800 C797 1.384 . S
N801 C793 1.427 . S
N801 C799 1.384 . S
H802 C808 0.930 . S
H803 C812 0.930 . S
H804 C817 0.929 . S
H805 C815 0.929 . S
H806 C810 0.929 . S
H807 C816 0.929 . S
C808 H802 0.930 . S
C808 C809 1.367 . S
C808 C816 1.378 . S
C809 C808 1.367 . S
C809 C817 1.433 . S
C810 H806 0.929 . S
C810 C812 1.378 . S
C810 C814 1.350 . S
C811 C814 1.463 . S
C811 C816 1.350 . S
C811 N819 1.427 . S
C812 H803 0.930 . S
C812 C810 1.378 . S
C812 C813 1.367 . S
C813 C812 1.367 . S
C813 C815 1.433 . S
C814 C810 1.350 . S
C814 C811 1.463 . S
C814 N818 1.427 . S
C815 H805 0.929 . S
C815 C813 1.433 . S
C815 N818 1.384 . S
C816 H807 0.929 . S
C816 C808 1.378 . S
C816 C811 1.350 . S
C817 H804 0.929 . S
C817 C809 1.433 . S
C817 N819 1.384 . S
N818 C814 1.427 . S
N818 C815 1.384 . S
N819 C811 1.427 . S
N819 C817 1.384 . S
H820 C826 0.930 . S
H821 C830 0.930 . S
H822 C835 0.929 . S
H823 C833 0.929 . S
H824 C828 0.929 . S
H825 C834 0.929 . S
C826 H820 0.930 . S
C826 C827 1.367 . S
C826 C834 1.378 . S
C827 C826 1.367 . S
C827 C835 1.433 . S
C828 H824 0.929 . S
C828 C830 1.378 . S
C828 C832 1.350 . S
C829 C832 1.463 . S
C829 C834 1.350 . S
C829 N837 1.427 . S
C830 H821 0.930 . S
C830 C828 1.378 . S
C830 C831 1.367 . S
C831 C830 1.367 . S
C831 C833 1.433 . S
C832 C828 1.350 . S
C832 C829 1.463 . S
C832 N836 1.427 . S
C833 H823 0.929 . S
C833 C831 1.433 . S
C833 N836 1.384 . S
C834 H825 0.929 . S
C834 C826 1.378 . S
C834 C829 1.350 . S
C835 H822 0.929 . S
C835 C827 1.433 . S
C835 N837 1.384 . S
N836 C832 1.427 . S
N836 C833 1.384 . S
N837 C829 1.427 . S
N837 C835 1.384 . S
H838 C844 0.930 . S
H839 C848 0.930 . S
H840 C853 0.929 . S
H841 C851 0.929 . S
H842 C846 0.929 . S
H843 C852 0.929 . S
C844 H838 0.930 . S
C844 C845 1.367 . S
C844 C852 1.378 . S
C845 C844 1.367 . S
C845 C853 1.433 . S
C846 H842 0.929 . S
C846 C848 1.378 . S
C846 C850 1.350 . S
C847 C850 1.463 . S
C847 C852 1.350 . S
C847 N855 1.427 . S
C848 H839 0.930 . S
C848 C846 1.378 . S
C848 C849 1.367 . S
C849 C848 1.367 . S
C849 C851 1.433 . S
C850 C846 1.350 . S
C850 C847 1.463 . S
C850 N854 1.427 . S
C851 H841 0.929 . S
C851 C849 1.433 . S
C851 N854 1.384 . S
C852 H843 0.929 . S
C852 C844 1.378 . S
C852 C847 1.350 . S
C853 H840 0.929 . S
C853 C845 1.433 . S
C853 N855 1.384 . S
N854 C850 1.427 . S
N854 C851 1.384 . S
N855 C847 1.427 . S
N855 C853 1.384 . S
H856 C862 0.930 . S
H857 C866 0.930 . S
H858 C871 0.929 . S
H859 C869 0.929 . S
H860 C864 0.929 . S
H861 C870 0.929 . S
C862 H856 0.930 . S
C862 C863 1.367 . S
C862 C870 1.378 . S
C863 C862 1.367 . S
C863 C871 1.433 . S
C864 H860 0.929 . S
C864 C866 1.378 . S
C864 C868 1.350 . S
C865 C868 1.463 . S
C865 C870 1.350 . S
C865 N873 1.427 . S
C866 H857 0.930 . S
C866 C864 1.378 . S
C866 C867 1.367 . S
C867 C866 1.367 . S
C867 C869 1.433 . S
C868 C864 1.350 . S
C868 C865 1.463 . S
C868 N872 1.427 . S
C869 H859 0.929 . S
C869 C867 1.433 . S
C869 N872 1.384 . S
C870 H861 0.929 . S
C870 C862 1.378 . S
C870 C865 1.350 . S
C871 H858 0.929 . S
C871 C863 1.433 . S
C871 N873 1.384 . S
N872 C868 1.427 . S
N872 C869 1.384 . S
N873 C865 1.427 . S
N873 C871 1.384 . S
H874 C880 0.930 . S
H875 C884 0.930 . S
H876 C889 0.929 . S
H877 C887 0.929 . S
H878 C882 0.929 . S
H879 C888 0.929 . S
C880 H874 0.930 . S
C880 C881 1.367 . S
C880 C888 1.378 . S
C881 C880 1.367 . S
C881 C889 1.433 . S
C882 H878 0.929 . S
C882 C884 1.378 . S
C882 C886 1.350 . S
C883 C886 1.463 . S
C883 C888 1.350 . S
C883 N891 1.427 . S
C884 H875 0.930 . S
C884 C882 1.378 . S
C884 C885 1.367 . S
C885 C884 1.367 . S
C885 C887 1.433 . S
C886 C882 1.350 . S
C886 C883 1.463 . S
C886 N890 1.427 . S
C887 H877 0.929 . S
C887 C885 1.433 . S
C887 N890 1.384 . S
C888 H879 0.929 . S
C888 C880 1.378 . S
C888 C883 1.350 . S
C889 H876 0.929 . S
C889 C881 1.433 . S
C889 N891 1.384 . S
N890 C886 1.427 . S
N890 C887 1.384 . S
N891 C883 1.427 . S
N891 C889 1.384 . S
H892 C898 0.930 . S
H893 C902 0.930 . S
H894 C907 0.929 . S
H895 C905 0.929 . S
H896 C900 0.929 . S
H897 C906 0.929 . S
C898 H892 0.930 . S
C898 C899 1.367 . S
C898 C906 1.378 . S
C899 C898 1.367 . S
C899 C907 1.433 . S
C900 H896 0.929 . S
C900 C902 1.378 . S
C900 C904 1.350 . S
C901 C904 1.463 . S
C901 C906 1.350 . S
C901 N909 1.427 . S
C902 H893 0.930 . S
C902 C900 1.378 . S
C902 C903 1.367 . S
C903 C902 1.367 . S
C903 C905 1.433 . S
C904 C900 1.350 . S
C904 C901 1.463 . S
C904 N908 1.427 . S
C905 H895 0.929 . S
C905 C903 1.433 . S
C905 N908 1.384 . S
C906 H897 0.929 . S
C906 C898 1.378 . S
C906 C901 1.350 . S
C907 H894 0.929 . S
C907 C899 1.433 . S
C907 N909 1.384 . S
N908 C904 1.427 . S
N908 C905 1.384 . S
N909 C901 1.427 . S
N909 C907 1.384 . S
H910 C916 0.930 . S
H911 C920 0.930 . S
H912 C925 0.929 . S
H913 C923 0.929 . S
H914 C918 0.929 . S
H915 C924 0.929 . S
C916 H910 0.930 . S
C916 C917 1.367 . S
C916 C924 1.378 . S
C917 C916 1.367 . S
C917 C925 1.433 . S
C918 H914 0.929 . S
C918 C920 1.378 . S
C918 C922 1.350 . S
C919 C922 1.463 . S
C919 C924 1.350 . S
C919 N927 1.427 . S
C920 H911 0.930 . S
C920 C918 1.378 . S
C920 C921 1.367 . S
C921 C920 1.367 . S
C921 C923 1.433 . S
C922 C918 1.350 . S
C922 C919 1.463 . S
C922 N926 1.427 . S
C923 H913 0.929 . S
C923 C921 1.433 . S
C923 N926 1.384 . S
C924 H915 0.929 . S
C924 C916 1.378 . S
C924 C919 1.350 . S
C925 H912 0.929 . S
C925 C917 1.433 . S
C925 N927 1.384 . S
N926 C922 1.427 . S
N926 C923 1.384 . S
N927 C919 1.427 . S
N927 C925 1.384 . S
H928 C934 0.930 . S
H929 C938 0.930 . S
H930 C943 0.929 . S
H931 C941 0.929 . S
H932 C936 0.929 . S
H933 C942 0.929 . S
C934 H928 0.930 . S
C934 C935 1.367 . S
C934 C942 1.378 . S
C935 C934 1.367 . S
C935 C943 1.433 . S
C936 H932 0.929 . S
C936 C938 1.378 . S
C936 C940 1.350 . S
C937 C940 1.463 . S
C937 C942 1.350 . S
C937 N945 1.427 . S
C938 H929 0.930 . S
C938 C936 1.378 . S
C938 C939 1.367 . S
C939 C938 1.367 . S
C939 C941 1.433 . S
C940 C936 1.350 . S
C940 C937 1.463 . S
C940 N944 1.427 . S
C941 H931 0.929 . S
C941 C939 1.433 . S
C941 N944 1.384 . S
C942 H933 0.929 . S
C942 C934 1.378 . S
C942 C937 1.350 . S
C943 H930 0.929 . S
C943 C935 1.433 . S
C943 N945 1.384 . S
N944 C940 1.427 . S
N944 C941 1.384 . S
N945 C937 1.427 . S
N945 C943 1.384 . S
H946 C952 0.930 . S
H947 C956 0.930 . S
H948 C961 0.929 . S
H949 C959 0.929 . S
H950 C954 0.929 . S
H951 C960 0.929 . S
C952 H946 0.930 . S
C952 C953 1.367 . S
C952 C960 1.378 . S
C953 C952 1.367 . S
C953 C961 1.433 . S
C954 H950 0.929 . S
C954 C956 1.378 . S
C954 C958 1.350 . S
C955 C958 1.463 . S
C955 C960 1.350 . S
C955 N963 1.427 . S
C956 H947 0.930 . S
C956 C954 1.378 . S
C956 C957 1.367 . S
C957 C956 1.367 . S
C957 C959 1.433 . S
C958 C954 1.350 . S
C958 C955 1.463 . S
C958 N962 1.427 . S
C959 H949 0.929 . S
C959 C957 1.433 . S
C959 N962 1.384 . S
C960 H951 0.929 . S
C960 C952 1.378 . S
C960 C955 1.350 . S
C961 H948 0.929 . S
C961 C953 1.433 . S
C961 N963 1.384 . S
N962 C958 1.427 . S
N962 C959 1.384 . S
N963 C955 1.427 . S
N963 C961 1.384 . S
H964 C970 0.930 . S
H965 C974 0.930 . S
H966 C979 0.929 . S
H967 C977 0.929 . S
H968 C972 0.929 . S
H969 C978 0.929 . S
C970 H964 0.930 . S
C970 C971 1.367 . S
C970 C978 1.378 . S
C971 C970 1.367 . S
C971 C979 1.433 . S
C972 H968 0.929 . S
C972 C974 1.378 . S
C972 C976 1.350 . S
C973 C976 1.463 . S
C973 C978 1.350 . S
C973 N981 1.427 . S
C974 H965 0.930 . S
C974 C972 1.378 . S
C974 C975 1.367 . S
C975 C974 1.367 . S
C975 C977 1.433 . S
C976 C972 1.350 . S
C976 C973 1.463 . S
C976 N980 1.427 . S
C977 H967 0.929 . S
C977 C975 1.433 . S
C977 N980 1.384 . S
C978 H969 0.929 . S
C978 C970 1.378 . S
C978 C973 1.350 . S
C979 H966 0.929 . S
C979 C971 1.433 . S
C979 N981 1.384 . S
N980 C976 1.427 . S
N980 C977 1.384 . S
N981 C973 1.427 . S
N981 C979 1.384 . S
H982 C988 0.930 . S
H983 C992 0.930 1_455 S
H984 C997 0.929 . S
H985 C995 0.929 . S
H986 C990 0.929 . S
H987 C996 0.929 . S
C988 H982 0.930 . S
C988 C989 1.367 . S
C988 C996 1.378 . S
C989 C988 1.367 . S
C989 C997 1.433 . S
C990 H986 0.929 . S
C990 C992 1.378 . S
C990 C994 1.350 . S
C991 C994 1.463 . S
C991 C996 1.350 . S
C991 N999 1.427 . S
C992 H983 0.930 1_655 S
C992 C990 1.378 . S
C992 C993 1.367 . S
C993 C992 1.367 . S
C993 C995 1.433 . S
C994 C990 1.350 . S
C994 C991 1.463 . S
C994 N998 1.427 . S
C995 H985 0.929 . S
C995 C993 1.433 . S
C995 N998 1.384 . S
C996 H987 0.929 . S
C996 C988 1.378 . S
C996 C991 1.350 . S
C997 H984 0.929 . S
C997 C989 1.433 . S
C997 N999 1.384 . S
N998 C994 1.427 . S
N998 C995 1.384 . S
N999 C991 1.427 . S
N999 C997 1.384 . S
H1000 C1006 0.930 . S
H1001 C1010 0.930 . S
H1002 C1015 0.929 . S
H1003 C1013 0.929 1_565 S
H1004 C1008 0.929 . S
H1005 C1014 0.929 . S
C1006 H1000 0.930 . S
C1006 C1007 1.367 . S
C1006 C1014 1.378 . S
C1007 C1006 1.367 . S
C1007 C1015 1.433 . S
C1008 H1004 0.929 . S
C1008 C1010 1.378 . S
C1008 C1012 1.350 . S
C1009 C1012 1.463 . S
C1009 C1014 1.350 . S
C1009 N1017 1.427 . S
C1010 H1001 0.930 . S
C1010 C1008 1.378 . S
C1010 C1011 1.367 . S
C1011 C1010 1.367 . S
C1011 C1013 1.433 . S
C1012 C1008 1.350 . S
C1012 C1009 1.463 . S
C1012 N1016 1.427 . S
C1013 H1003 0.929 1_545 S
C1013 C1011 1.433 . S
C1013 N1016 1.384 . S
C1014 H1005 0.929 . S
C1014 C1006 1.378 . S
C1014 C1009 1.350 . S
C1015 H1002 0.929 . S
C1015 C1007 1.433 . S
C1015 N1017 1.384 . S
N1016 C1012 1.427 . S
N1016 C1013 1.384 . S
N1017 C1009 1.427 . S
N1017 C1015 1.384 . S
H1018 C1024 0.930 . S
H1019 C1028 0.930 . S
H1020 C1033 0.929 . S
H1021 C1031 0.929 . S
H1022 C1026 0.929 . S
H1023 C1032 0.929 . S
C1024 H1018 0.930 . S
C1024 C1025 1.367 . S
C1024 C1032 1.378 . S
C1025 C1024 1.367 . S
C1025 C1033 1.433 . S
C1026 H1022 0.929 . S
C1026 C1028 1.378 . S
C1026 C1030 1.350 . S
C1027 C1030 1.463 . S
C1027 C1032 1.350 . S
C1027 N1035 1.427 . S
C1028 H1019 0.930 . S
C1028 C1026 1.378 . S
C1028 C1029 1.367 . S
C1029 C1028 1.367 . S
C1029 C1031 1.433 . S
C1030 C1026 1.350 . S
C1030 C1027 1.463 . S
C1030 N1034 1.427 . S
C1031 H1021 0.929 . S
C1031 C1029 1.433 . S
C1031 N1034 1.384 . S
C1032 H1023 0.929 . S
C1032 C1024 1.378 . S
C1032 C1027 1.350 . S
C1033 H1020 0.929 . S
C1033 C1025 1.433 . S
C1033 N1035 1.384 . S
N1034 C1030 1.427 . S
N1034 C1031 1.384 . S
N1035 C1027 1.427 . S
N1035 C1033 1.384 . S
H1036 C1042 0.930 . S
H1037 C1046 0.930 . S
H1038 C1051 0.929 . S
H1039 C1049 0.929 . S
H1040 C1044 0.929 . S
H1041 C1050 0.929 . S
C1042 H1036 0.930 . S
C1042 C1043 1.367 . S
C1042 C1050 1.378 . S
C1043 C1042 1.367 . S
C1043 C1051 1.433 . S
C1044 H1040 0.929 . S
C1044 C1046 1.378 . S
C1044 C1048 1.350 . S
C1045 C1048 1.463 . S
C1045 C1050 1.350 . S
C1045 N1053 1.427 . S
C1046 H1037 0.930 . S
C1046 C1044 1.378 . S
C1046 C1047 1.367 . S
C1047 C1046 1.367 . S
C1047 C1049 1.433 . S
C1048 C1044 1.350 . S
C1048 C1045 1.463 . S
C1048 N1052 1.427 . S
C1049 H1039 0.929 . S
C1049 C1047 1.433 . S
C1049 N1052 1.384 . S
C1050 H1041 0.929 . S
C1050 C1042 1.378 . S
C1050 C1045 1.350 . S
C1051 H1038 0.929 . S
C1051 C1043 1.433 . S
C1051 N1053 1.384 . S
N1052 C1048 1.427 . S
N1052 C1049 1.384 . S
N1053 C1045 1.427 . S
N1053 C1051 1.384 . S
H1054 C1060 0.930 . S
H1055 C1064 0.930 1_655 S
H1056 C1069 0.929 . S
H1057 C1067 0.929 . S
H1058 C1062 0.929 . S
H1059 C1068 0.929 . S
C1060 H1054 0.930 . S
C1060 C1061 1.367 . S
C1060 C1068 1.378 . S
C1061 C1060 1.367 . S
C1061 C1069 1.433 . S
C1062 H1058 0.929 . S
C1062 C1064 1.378 . S
C1062 C1066 1.350 . S
C1063 C1066 1.463 . S
C1063 C1068 1.350 . S
C1063 N1071 1.427 . S
C1064 H1055 0.930 1_455 S
C1064 C1062 1.378 . S
C1064 C1065 1.367 . S
C1065 C1064 1.367 . S
C1065 C1067 1.433 . S
C1066 C1062 1.350 . S
C1066 C1063 1.463 . S
C1066 N1070 1.427 . S
C1067 H1057 0.929 . S
C1067 C1065 1.433 . S
C1067 N1070 1.384 . S
C1068 H1059 0.929 . S
C1068 C1060 1.378 . S
C1068 C1063 1.350 . S
C1069 H1056 0.929 . S
C1069 C1061 1.433 . S
C1069 N1071 1.384 . S
N1070 C1066 1.427 . S
N1070 C1067 1.384 . S
N1071 C1063 1.427 . S
N1071 C1069 1.384 . S
H1072 C1078 0.930 . S
H1073 C1082 0.930 . S
H1074 C1087 0.929 . S
H1075 C1085 0.929 . S
H1076 C1080 0.929 . S
H1077 C1086 0.929 . S
C1078 H1072 0.930 . S
C1078 C1079 1.367 . S
C1078 C1086 1.378 . S
C1079 C1078 1.367 . S
C1079 C1087 1.433 . S
C1080 H1076 0.929 . S
C1080 C1082 1.378 . S
C1080 C1084 1.350 . S
C1081 C1084 1.463 . S
C1081 C1086 1.350 . S
C1081 N1089 1.427 . S
C1082 H1073 0.930 . S
C1082 C1080 1.378 . S
C1082 C1083 1.367 . S
C1083 C1082 1.367 . S
C1083 C1085 1.433 . S
C1084 C1080 1.350 . S
C1084 C1081 1.463 . S
C1084 N1088 1.427 . S
C1085 H1075 0.929 . S
C1085 C1083 1.433 . S
C1085 N1088 1.384 . S
C1086 H1077 0.929 . S
C1086 C1078 1.378 . S
C1086 C1081 1.350 . S
C1087 H1074 0.929 . S
C1087 C1079 1.433 . S
C1087 N1089 1.384 . S
N1088 C1084 1.427 . S
N1088 C1085 1.384 . S
N1089 C1081 1.427 . S
N1089 C1087 1.384 . S
H1090 C1096 0.930 . S
H1091 C1100 0.930 . S
H1092 C1105 0.929 . S
H1093 C1103 0.929 . S
H1094 C1098 0.929 . S
H1095 C1104 0.929 . S
C1096 H1090 0.930 . S
C1096 C1097 1.367 . S
C1096 C1104 1.378 . S
C1097 C1096 1.367 . S
C1097 C1105 1.433 . S
C1098 H1094 0.929 . S
C1098 C1100 1.378 . S
C1098 C1102 1.350 . S
C1099 C1102 1.463 . S
C1099 C1104 1.350 . S
C1099 N1107 1.427 . S
C1100 H1091 0.930 . S
C1100 C1098 1.378 . S
C1100 C1101 1.367 . S
C1101 C1100 1.367 . S
C1101 C1103 1.433 . S
C1102 C1098 1.350 . S
C1102 C1099 1.463 . S
C1102 N1106 1.427 . S
C1103 H1093 0.929 . S
C1103 C1101 1.433 . S
C1103 N1106 1.384 . S
C1104 H1095 0.929 . S
C1104 C1096 1.378 . S
C1104 C1099 1.350 . S
C1105 H1092 0.929 . S
C1105 C1097 1.433 . S
C1105 N1107 1.384 . S
N1106 C1102 1.427 . S
N1106 C1103 1.384 . S
N1107 C1099 1.427 . S
N1107 C1105 1.384 . S
H1108 C1114 0.930 . S
H1109 C1118 0.930 . S
H1110 C1123 0.929 . S
H1111 C1121 0.929 . S
H1112 C1116 0.929 . S
H1113 C1122 0.929 . S
C1114 H1108 0.930 . S
C1114 C1115 1.367 . S
C1114 C1122 1.378 . S
C1115 C1114 1.367 . S
C1115 C1123 1.433 . S
C1116 H1112 0.929 . S
C1116 C1118 1.378 . S
C1116 C1120 1.350 . S
C1117 C1120 1.463 . S
C1117 C1122 1.350 . S
C1117 N1125 1.427 . S
C1118 H1109 0.930 . S
C1118 C1116 1.378 . S
C1118 C1119 1.367 . S
C1119 C1118 1.367 . S
C1119 C1121 1.433 . S
C1120 C1116 1.350 . S
C1120 C1117 1.463 . S
C1120 N1124 1.427 . S
C1121 H1111 0.929 . S
C1121 C1119 1.433 . S
C1121 N1124 1.384 . S
C1122 H1113 0.929 . S
C1122 C1114 1.378 . S
C1122 C1117 1.350 . S
C1123 H1110 0.929 . S
C1123 C1115 1.433 . S
C1123 N1125 1.384 . S
N1124 C1120 1.427 . S
N1124 C1121 1.384 . S
N1125 C1117 1.427 . S
N1125 C1123 1.384 . S
H1126 C1132 0.930 . S
H1127 C1136 0.930 . S
H1128 C1141 0.929 . S
H1129 C1139 0.929 . S
H1130 C1134 0.929 . S
H1131 C1140 0.929 . S
C1132 H1126 0.930 . S
C1132 C1133 1.367 . S
C1132 C1140 1.378 . S
C1133 C1132 1.367 . S
C1133 C1141 1.433 . S
C1134 H1130 0.929 . S
C1134 C1136 1.378 . S
C1134 C1138 1.350 . S
C1135 C1138 1.463 . S
C1135 C1140 1.350 . S
C1135 N1143 1.427 . S
C1136 H1127 0.930 . S
C1136 C1134 1.378 . S
C1136 C1137 1.367 . S
C1137 C1136 1.367 . S
C1137 C1139 1.433 . S
C1138 C1134 1.350 . S
C1138 C1135 1.463 . S
C1138 N1142 1.427 . S
C1139 H1129 0.929 . S
C1139 C1137 1.433 . S
C1139 N1142 1.384 . S
C1140 H1131 0.929 . S
C1140 C1132 1.378 . S
C1140 C1135 1.350 . S
C1141 H1128 0.929 . S
C1141 C1133 1.433 . S
C1141 N1143 1.384 . S
N1142 C1138 1.427 . S
N1142 C1139 1.384 . S
N1143 C1135 1.427 . S
N1143 C1141 1.384 . S
H1144 C1150 0.930 . S
H1145 C1154 0.930 . S
H1146 C1159 0.929 . S
H1147 C1157 0.929 . S
H1148 C1152 0.929 . S
H1149 C1158 0.929 . S
C1150 H1144 0.930 . S
C1150 C1151 1.367 . S
C1150 C1158 1.378 . S
C1151 C1150 1.367 . S
C1151 C1159 1.433 . S
C1152 H1148 0.929 . S
C1152 C1154 1.378 . S
C1152 C1156 1.350 . S
C1153 C1156 1.463 . S
C1153 C1158 1.350 . S
C1153 N1161 1.427 . S
C1154 H1145 0.930 . S
C1154 C1152 1.378 . S
C1154 C1155 1.367 . S
C1155 C1154 1.367 . S
C1155 C1157 1.433 . S
C1156 C1152 1.350 . S
C1156 C1153 1.463 . S
C1156 N1160 1.427 . S
C1157 H1147 0.929 . S
C1157 C1155 1.433 . S
C1157 N1160 1.384 . S
C1158 H1149 0.929 . S
C1158 C1150 1.378 . S
C1158 C1153 1.350 . S
C1159 H1146 0.929 . S
C1159 C1151 1.433 . S
C1159 N1161 1.384 . S
N1160 C1156 1.427 . S
N1160 C1157 1.384 . S
N1161 C1153 1.427 . S
N1161 C1159 1.384 . S
H1162 C1168 0.930 . S
H1163 C1172 0.930 . S
H1164 C1177 0.929 . S
H1165 C1175 0.929 . S
H1166 C1170 0.929 . S
H1167 C1176 0.929 . S
C1168 H1162 0.930 . S
C1168 C1169 1.367 . S
C1168 C1176 1.378 . S
C1169 C1168 1.367 . S
C1169 C1177 1.433 . S
C1170 H1166 0.929 . S
C1170 C1172 1.378 . S
C1170 C1174 1.350 . S
C1171 C1174 1.463 . S
C1171 C1176 1.350 . S
C1171 N1179 1.427 . S
C1172 H1163 0.930 . S
C1172 C1170 1.378 . S
C1172 C1173 1.367 . S
C1173 C1172 1.367 . S
C1173 C1175 1.433 . S
C1174 C1170 1.350 . S
C1174 C1171 1.463 . S
C1174 N1178 1.427 . S
C1175 H1165 0.929 . S
C1175 C1173 1.433 . S
C1175 N1178 1.384 . S
C1176 H1167 0.929 . S
C1176 C1168 1.378 . S
C1176 C1171 1.350 . S
C1177 H1164 0.929 . S
C1177 C1169 1.433 . S
C1177 N1179 1.384 . S
N1178 C1174 1.427 . S
N1178 C1175 1.384 . S
N1179 C1171 1.427 . S
N1179 C1177 1.384 . S
H1180 C1186 0.930 . S
H1181 C1190 0.930 . S
H1182 C1195 0.929 . S
H1183 C1193 0.929 . S
H1184 C1188 0.929 . S
H1185 C1194 0.929 . S
C1186 H1180 0.930 . S
C1186 C1187 1.367 . S
C1186 C1194 1.378 . S
C1187 C1186 1.367 . S
C1187 C1195 1.433 . S
C1188 H1184 0.929 . S
C1188 C1190 1.378 . S
C1188 C1192 1.350 . S
C1189 C1192 1.463 . S
C1189 C1194 1.350 . S
C1189 N1197 1.427 . S
C1190 H1181 0.930 . S
C1190 C1188 1.378 . S
C1190 C1191 1.367 . S
C1191 C1190 1.367 . S
C1191 C1193 1.433 . S
C1192 C1188 1.350 . S
C1192 C1189 1.463 . S
C1192 N1196 1.427 . S
C1193 H1183 0.929 . S
C1193 C1191 1.433 . S
C1193 N1196 1.384 . S
C1194 H1185 0.929 . S
C1194 C1186 1.378 . S
C1194 C1189 1.350 . S
C1195 H1182 0.929 . S
C1195 C1187 1.433 . S
C1195 N1197 1.384 . S
N1196 C1192 1.427 . S
N1196 C1193 1.384 . S
N1197 C1189 1.427 . S
N1197 C1195 1.384 . S
H1198 C1204 0.930 . S
H1199 C1208 0.930 . S
H1200 C1213 0.929 . S
H1201 C1211 0.929 . S
H1202 C1206 0.929 . S
H1203 C1212 0.929 . S
C1204 H1198 0.930 . S
C1204 C1205 1.367 . S
C1204 C1212 1.378 . S
C1205 C1204 1.367 . S
C1205 C1213 1.433 . S
C1206 H1202 0.929 . S
C1206 C1208 1.378 . S
C1206 C1210 1.350 . S
C1207 C1210 1.463 . S
C1207 C1212 1.350 . S
C1207 N1215 1.427 . S
C1208 H1199 0.930 . S
C1208 C1206 1.378 . S
C1208 C1209 1.367 . S
C1209 C1208 1.367 . S
C1209 C1211 1.433 . S
C1210 C1206 1.350 . S
C1210 C1207 1.463 . S
C1210 N1214 1.427 . S
C1211 H1201 0.929 . S
C1211 C1209 1.433 . S
C1211 N1214 1.384 . S
C1212 H1203 0.929 . S
C1212 C1204 1.378 . S
C1212 C1207 1.350 . S
C1213 H1200 0.929 . S
C1213 C1205 1.433 . S
C1213 N1215 1.384 . S
N1214 C1210 1.427 . S
N1214 C1211 1.384 . S
N1215 C1207 1.427 . S
N1215 C1213 1.384 . S
H1216 C1222 0.930 . S
H1217 C1226 0.930 . S
H1218 C1231 0.929 . S
H1219 C1229 0.929 . S
H1220 C1224 0.929 . S
H1221 C1230 0.929 . S
C1222 H1216 0.930 . S
C1222 C1223 1.367 . S
C1222 C1230 1.378 . S
C1223 C1222 1.367 . S
C1223 C1231 1.433 . S
C1224 H1220 0.929 . S
C1224 C1226 1.378 . S
C1224 C1228 1.350 . S
C1225 C1228 1.463 . S
C1225 C1230 1.350 . S
C1225 N1233 1.427 . S
C1226 H1217 0.930 . S
C1226 C1224 1.378 . S
C1226 C1227 1.367 . S
C1227 C1226 1.367 . S
C1227 C1229 1.433 . S
C1228 C1224 1.350 . S
C1228 C1225 1.463 . S
C1228 N1232 1.427 . S
C1229 H1219 0.929 . S
C1229 C1227 1.433 . S
C1229 N1232 1.384 . S
C1230 H1221 0.929 . S
C1230 C1222 1.378 . S
C1230 C1225 1.350 . S
C1231 H1218 0.929 . S
C1231 C1223 1.433 . S
C1231 N1233 1.384 . S
N1232 C1228 1.427 . S
N1232 C1229 1.384 . S
N1233 C1225 1.427 . S
N1233 C1231 1.384 . S
H1234 C1240 0.930 . S
H1235 C1244 0.930 . S
H1236 C1249 0.929 . S
H1237 C1247 0.929 . S
H1238 C1242 0.929 . S
H1239 C1248 0.929 . S
C1240 H1234 0.930 . S
C1240 C1241 1.367 . S
C1240 C1248 1.378 . S
C1241 C1240 1.367 . S
C1241 C1249 1.433 . S
C1242 H1238 0.929 . S
C1242 C1244 1.378 . S
C1242 C1246 1.350 . S
C1243 C1246 1.463 . S
C1243 C1248 1.350 . S
C1243 N1251 1.427 . S
C1244 H1235 0.930 . S
C1244 C1242 1.378 . S
C1244 C1245 1.367 . S
C1245 C1244 1.367 . S
C1245 C1247 1.433 . S
C1246 C1242 1.350 . S
C1246 C1243 1.463 . S
C1246 N1250 1.427 . S
C1247 H1237 0.929 . S
C1247 C1245 1.433 . S
C1247 N1250 1.384 . S
C1248 H1239 0.929 . S
C1248 C1240 1.378 . S
C1248 C1243 1.350 . S
C1249 H1236 0.929 . S
C1249 C1241 1.433 . S
C1249 N1251 1.384 . S
N1250 C1246 1.427 . S
N1250 C1247 1.384 . S
N1251 C1243 1.427 . S
N1251 C1249 1.384 . S
H1252 C1258 0.930 . S
H1253 C1262 0.930 . S
H1254 C1267 0.929 . S
H1255 C1265 0.929 . S
H1256 C1260 0.929 . S
H1257 C1266 0.929 . S
C1258 H1252 0.930 . S
C1258 C1259 1.367 . S
C1258 C1266 1.378 . S
C1259 C1258 1.367 . S
C1259 C1267 1.433 . S
C1260 H1256 0.929 . S
C1260 C1262 1.378 . S
C1260 C1264 1.350 . S
C1261 C1264 1.463 . S
C1261 C1266 1.350 . S
C1261 N1269 1.427 . S
C1262 H1253 0.930 . S
C1262 C1260 1.378 . S
C1262 C1263 1.367 . S
C1263 C1262 1.367 . S
C1263 C1265 1.433 . S
C1264 C1260 1.350 . S
C1264 C1261 1.463 . S
C1264 N1268 1.427 . S
C1265 H1255 0.929 . S
C1265 C1263 1.433 . S
C1265 N1268 1.384 . S
C1266 H1257 0.929 . S
C1266 C1258 1.378 . S
C1266 C1261 1.350 . S
C1267 H1254 0.929 . S
C1267 C1259 1.433 . S
C1267 N1269 1.384 . S
N1268 C1264 1.427 . S
N1268 C1265 1.384 . S
N1269 C1261 1.427 . S
N1269 C1267 1.384 . S
H1270 C1276 0.930 . S
H1271 C1280 0.930 . S
H1272 C1285 0.929 . S
H1273 C1283 0.929 . S
H1274 C1278 0.929 . S
H1275 C1284 0.929 . S
C1276 H1270 0.930 . S
C1276 C1277 1.367 . S
C1276 C1284 1.378 . S
C1277 C1276 1.367 . S
C1277 C1285 1.433 . S
C1278 H1274 0.929 . S
C1278 C1280 1.378 . S
C1278 C1282 1.350 . S
C1279 C1282 1.463 . S
C1279 C1284 1.350 . S
C1279 N1287 1.427 . S
C1280 H1271 0.930 . S
C1280 C1278 1.378 . S
C1280 C1281 1.367 . S
C1281 C1280 1.367 . S
C1281 C1283 1.433 . S
C1282 C1278 1.350 . S
C1282 C1279 1.463 . S
C1282 N1286 1.427 . S
C1283 H1273 0.929 . S
C1283 C1281 1.433 . S
C1283 N1286 1.384 . S
C1284 H1275 0.929 . S
C1284 C1276 1.378 . S
C1284 C1279 1.350 . S
C1285 H1272 0.929 . S
C1285 C1277 1.433 . S
C1285 N1287 1.384 . S
N1286 C1282 1.427 . S
N1286 C1283 1.384 . S
N1287 C1279 1.427 . S
N1287 C1285 1.384 . S
H1288 C1294 0.930 . S
H1289 C1298 0.930 1_556 S
H1290 C1303 0.929 . S
H1291 C1301 0.929 . S
H1292 C1296 0.929 . S
H1293 C1302 0.929 . S
C1294 H1288 0.930 . S
C1294 C1295 1.367 1_554 S
C1294 C1302 1.378 . S
C1295 C1294 1.367 1_556 S
C1295 C1303 1.433 . S
C1296 H1292 0.929 . S
C1296 C1298 1.378 1_556 S
C1296 C1300 1.350 1_556 S
C1297 C1300 1.463 . S
C1297 C1302 1.350 . S
C1297 N1305 1.427 1_554 S
C1298 H1289 0.930 1_554 S
C1298 C1296 1.378 1_554 S
C1298 C1299 1.367 . S
C1299 C1298 1.367 . S
C1299 C1301 1.433 . S
C1300 C1296 1.350 1_554 S
C1300 C1297 1.463 . S
C1300 N1304 1.427 . S
C1301 H1291 0.929 . S
C1301 C1299 1.433 . S
C1301 N1304 1.384 . S
C1302 H1293 0.929 . S
C1302 C1294 1.378 . S
C1302 C1297 1.350 . S
C1303 H1290 0.929 . S
C1303 C1295 1.433 . S
C1303 N1305 1.384 . S
N1304 C1300 1.427 . S
N1304 C1301 1.384 . S
N1305 C1297 1.427 1_556 S
N1305 C1303 1.384 . S
H1306 C1312 0.930 1_556 S
H1307 C1316 0.930 . S
H1308 C1321 0.929 . S
H1309 C1319 0.929 . S
H1310 C1314 0.929 . S
H1311 C1320 0.929 . S
C1312 H1306 0.930 1_554 S
C1312 C1313 1.367 . S
C1312 C1320 1.378 1_554 S
C1313 C1312 1.367 . S
C1313 C1321 1.433 . S
C1314 H1310 0.929 . S
C1314 C1316 1.378 . S
C1314 C1318 1.350 . S
C1315 C1318 1.463 . S
C1315 C1320 1.350 1_554 S
C1315 N1323 1.427 . S
C1316 H1307 0.930 . S
C1316 C1314 1.378 . S
C1316 C1317 1.367 1_554 S
C1317 C1316 1.367 1_556 S
C1317 C1319 1.433 . S
C1318 C1314 1.350 . S
C1318 C1315 1.463 . S
C1318 N1322 1.427 1_554 S
C1319 H1309 0.929 . S
C1319 C1317 1.433 . S
C1319 N1322 1.384 . S
C1320 H1311 0.929 . S
C1320 C1312 1.378 1_556 S
C1320 C1315 1.350 1_556 S
C1321 H1308 0.929 . S
C1321 C1313 1.433 . S
C1321 N1323 1.384 . S
N1322 C1318 1.427 1_556 S
N1322 C1319 1.384 . S
N1323 C1315 1.427 . S
N1323 C1321 1.384 . S
H1324 C1330 0.930 . S
H1325 C1334 0.930 . S
H1326 C1339 0.929 . S
H1327 C1337 0.929 . S
H1328 C1332 0.929 1_556 S
H1329 C1338 0.929 . S
C1330 H1324 0.930 . S
C1330 C1331 1.367 1_554 S
C1330 C1338 1.378 . S
C1331 C1330 1.367 1_556 S
C1331 C1339 1.433 . S
C1332 H1328 0.929 1_554 S
C1332 C1334 1.378 . S
C1332 C1336 1.350 . S
C1333 C1336 1.463 . S
C1333 C1338 1.350 . S
C1333 N1341 1.427 1_554 S
C1334 H1325 0.930 . S
C1334 C1332 1.378 . S
C1334 C1335 1.367 . S
C1335 C1334 1.367 . S
C1335 C1337 1.433 . S
C1336 C1332 1.350 . S
C1336 C1333 1.463 . S
C1336 N1340 1.427 . S
C1337 H1327 0.929 . S
C1337 C1335 1.433 . S
C1337 N1340 1.384 . S
C1338 H1329 0.929 . S
C1338 C1330 1.378 . S
C1338 C1333 1.350 . S
C1339 H1326 0.929 . S
C1339 C1331 1.433 . S
C1339 N1341 1.384 . S
N1340 C1336 1.427 . S
N1340 C1337 1.384 . S
N1341 C1333 1.427 1_556 S
N1341 C1339 1.384 . S
H1342 C1348 0.930 . S
H1343 C1352 0.930 . S
H1344 C1357 0.929 . S
H1345 C1355 0.929 . S
H1346 C1350 0.929 . S
H1347 C1356 0.929 . S
C1348 H1342 0.930 . S
C1348 C1349 1.367 . S
C1348 C1356 1.378 . S
C1349 C1348 1.367 . S
C1349 C1357 1.433 . S
C1350 H1346 0.929 . S
C1350 C1352 1.378 . S
C1350 C1354 1.350 1_556 S
C1351 C1354 1.463 . S
C1351 C1356 1.350 . S
C1351 N1359 1.427 . S
C1352 H1343 0.930 . S
C1352 C1350 1.378 . S
C1352 C1353 1.367 . S
C1353 C1352 1.367 . S
C1353 C1355 1.433 1_556 S
C1354 C1350 1.350 1_554 S
C1354 C1351 1.463 . S
C1354 N1358 1.427 . S
C1355 H1345 0.929 . S
C1355 C1353 1.433 1_554 S
C1355 N1358 1.384 . S
C1356 H1347 0.929 . S
C1356 C1348 1.378 . S
C1356 C1351 1.350 . S
C1357 H1344 0.929 . S
C1357 C1349 1.433 . S
C1357 N1359 1.384 . S
N1358 C1354 1.427 . S
N1358 C1355 1.384 . S
N1359 C1351 1.427 . S
N1359 C1357 1.384 . S
H1360 C1366 0.930 . S
H1361 C1370 0.930 . S
H1362 C1375 0.929 . S
H1363 C1373 0.929 . S
H1364 C1368 0.929 . S
H1365 C1374 0.929 . S
C1366 H1360 0.930 . S
C1366 C1367 1.367 . S
C1366 C1374 1.378 . S
C1367 C1366 1.367 . S
C1367 C1375 1.433 . S
C1368 H1364 0.929 . S
C1368 C1370 1.378 . S
C1368 C1372 1.350 . S
C1369 C1372 1.463 . S
C1369 C1374 1.350 . S
C1369 N1377 1.427 . S
C1370 H1361 0.930 . S
C1370 C1368 1.378 . S
C1370 C1371 1.367 . S
C1371 C1370 1.367 . S
C1371 C1373 1.433 . S
C1372 C1368 1.350 . S
C1372 C1369 1.463 . S
C1372 N1376 1.427 . S
C1373 H1363 0.929 . S
C1373 C1371 1.433 . S
C1373 N1376 1.384 . S
C1374 H1365 0.929 . S
C1374 C1366 1.378 . S
C1374 C1369 1.350 . S
C1375 H1362 0.929 . S
C1375 C1367 1.433 . S
C1375 N1377 1.384 . S
N1376 C1372 1.427 . S
N1376 C1373 1.384 . S
N1377 C1369 1.427 . S
N1377 C1375 1.384 . S
H1378 C1384 0.930 . S
H1379 C1388 0.930 . S
H1380 C1393 0.929 . S
H1381 C1391 0.929 . S
H1382 C1386 0.929 . S
H1383 C1392 0.929 . S
C1384 H1378 0.930 . S
C1384 C1385 1.367 . S
C1384 C1392 1.378 . S
C1385 C1384 1.367 . S
C1385 C1393 1.433 . S
C1386 H1382 0.929 . S
C1386 C1388 1.378 . S
C1386 C1390 1.350 . S
C1387 C1390 1.463 . S
C1387 C1392 1.350 . S
C1387 N1395 1.427 . S
C1388 H1379 0.930 . S
C1388 C1386 1.378 . S
C1388 C1389 1.367 . S
C1389 C1388 1.367 . S
C1389 C1391 1.433 . S
C1390 C1386 1.350 . S
C1390 C1387 1.463 . S
C1390 N1394 1.427 . S
C1391 H1381 0.929 . S
C1391 C1389 1.433 . S
C1391 N1394 1.384 . S
C1392 H1383 0.929 . S
C1392 C1384 1.378 . S
C1392 C1387 1.350 . S
C1393 H1380 0.929 . S
C1393 C1385 1.433 . S
C1393 N1395 1.384 . S
N1394 C1390 1.427 . S
N1394 C1391 1.384 . S
N1395 C1387 1.427 . S
N1395 C1393 1.384 . S
H1396 C1402 0.930 . S
H1397 C1406 0.930 . S
H1398 C1411 0.929 . S
H1399 C1409 0.929 . S
H1400 C1404 0.929 . S
H1401 C1410 0.929 . S
C1402 H1396 0.930 . S
C1402 C1403 1.367 . S
C1402 C1410 1.378 . S
C1403 C1402 1.367 . S
C1403 C1411 1.433 . S
C1404 H1400 0.929 . S
C1404 C1406 1.378 . S
C1404 C1408 1.350 . S
C1405 C1408 1.463 . S
C1405 C1410 1.350 . S
C1405 N1413 1.427 . S
C1406 H1397 0.930 . S
C1406 C1404 1.378 . S
C1406 C1407 1.367 . S
C1407 C1406 1.367 . S
C1407 C1409 1.433 . S
C1408 C1404 1.350 . S
C1408 C1405 1.463 . S
C1408 N1412 1.427 . S
C1409 H1399 0.929 . S
C1409 C1407 1.433 . S
C1409 N1412 1.384 . S
C1410 H1401 0.929 . S
C1410 C1402 1.378 . S
C1410 C1405 1.350 . S
C1411 H1398 0.929 . S
C1411 C1403 1.433 . S
C1411 N1413 1.384 . S
N1412 C1408 1.427 . S
N1412 C1409 1.384 . S
N1413 C1405 1.427 . S
N1413 C1411 1.384 . S
H1414 C1420 0.930 . S
H1415 C1424 0.930 . S
H1416 C1429 0.929 . S
H1417 C1427 0.929 . S
H1418 C1422 0.929 . S
H1419 C1428 0.929 . S
C1420 H1414 0.930 . S
C1420 C1421 1.367 . S
C1420 C1428 1.378 . S
C1421 C1420 1.367 . S
C1421 C1429 1.433 . S
C1422 H1418 0.929 . S
C1422 C1424 1.378 . S
C1422 C1426 1.350 . S
C1423 C1426 1.463 . S
C1423 C1428 1.350 . S
C1423 N1431 1.427 . S
C1424 H1415 0.930 . S
C1424 C1422 1.378 . S
C1424 C1425 1.367 . S
C1425 C1424 1.367 . S
C1425 C1427 1.433 . S
C1426 C1422 1.350 . S
C1426 C1423 1.463 . S
C1426 N1430 1.427 . S
C1427 H1417 0.929 . S
C1427 C1425 1.433 . S
C1427 N1430 1.384 . S
C1428 H1419 0.929 . S
C1428 C1420 1.378 . S
C1428 C1423 1.350 . S
C1429 H1416 0.929 . S
C1429 C1421 1.433 . S
C1429 N1431 1.384 . S
N1430 C1426 1.427 . S
N1430 C1427 1.384 . S
N1431 C1423 1.427 . S
N1431 C1429 1.384 . S
H1432 C1438 0.930 . S
H1433 C1442 0.930 . S
H1434 C1447 0.929 1_554 S
H1435 C1445 0.929 . S
H1436 C1440 0.929 . S
H1437 C1446 0.929 . S
C1438 H1432 0.930 . S
C1438 C1439 1.367 . S
C1438 C1446 1.378 . S
C1439 C1438 1.367 . S
C1439 C1447 1.433 . S
C1440 H1436 0.929 . S
C1440 C1442 1.378 . S
C1440 C1444 1.350 1_554 S
C1441 C1444 1.463 . S
C1441 C1446 1.350 . S
C1441 N1449 1.417 1_556 S
C1442 H1433 0.930 . S
C1442 C1440 1.378 . S
C1442 C1443 1.367 . S
C1443 C1442 1.367 . S
C1443 C1445 1.433 1_554 S
C1444 C1440 1.350 1_556 S
C1444 C1441 1.463 . S
C1444 N1448 1.427 . S
C1445 H1435 0.929 . S
C1445 C1443 1.433 1_556 S
C1445 N1448 1.384 . S
C1446 H1437 0.929 . S
C1446 C1438 1.378 . S
C1446 C1441 1.350 . S
C1447 H1434 0.929 1_556 S
C1447 C1439 1.433 . S
C1447 N1449 1.379 1_556 S
N1448 C1444 1.427 . S
N1448 C1445 1.384 . S
N1449 C1441 1.417 1_554 S
N1449 C1447 1.379 1_554 S
H1450 C1456 0.930 . S
H1451 C1460 0.930 . S
H1452 C1465 0.929 . S
H1453 C1463 0.929 . S
H1454 C1458 0.929 . S
H1455 C1464 0.929 . S
C1456 H1450 0.930 . S
C1456 C1457 1.367 . S
C1456 C1464 1.378 . S
C1457 C1456 1.367 . S
C1457 C1465 1.433 . S
C1458 H1454 0.929 . S
C1458 C1460 1.378 . S
C1458 C1462 1.350 1_554 S
C1459 C1462 1.463 . S
C1459 C1464 1.350 . S
C1459 N1467 1.427 . S
C1460 H1451 0.930 . S
C1460 C1458 1.378 . S
C1460 C1461 1.367 . S
C1461 C1460 1.367 . S
C1461 C1463 1.433 1_554 S
C1462 C1458 1.350 1_556 S
C1462 C1459 1.463 . S
C1462 N1466 1.427 . S
C1463 H1453 0.929 . S
C1463 C1461 1.433 1_556 S
C1463 N1466 1.384 . S
C1464 H1455 0.929 . S
C1464 C1456 1.378 . S
C1464 C1459 1.350 . S
C1465 H1452 0.929 . S
C1465 C1457 1.433 . S
C1465 N1467 1.384 . S
N1466 C1462 1.427 . S
N1466 C1463 1.384 . S
N1467 C1459 1.427 . S
N1467 C1465 1.384 . S
H1468 C1474 0.930 . S
H1469 C1478 0.930 1_554 S
H1470 C1483 0.929 . S
H1471 C1481 0.929 . S
H1472 C1476 0.929 . S
H1473 C1482 0.929 . S
C1474 H1468 0.930 . S
C1474 C1475 1.367 1_556 S
C1474 C1482 1.378 . S
C1475 C1474 1.367 1_554 S
C1475 C1483 1.433 . S
C1476 H1472 0.929 . S
C1476 C1478 1.378 1_554 S
C1476 C1480 1.350 1_554 S
C1477 C1480 1.463 . S
C1477 C1482 1.350 . S
C1477 N1485 1.427 1_556 S
C1478 H1469 0.930 1_556 S
C1478 C1476 1.378 1_556 S
C1478 C1479 1.367 . S
C1479 C1478 1.367 . S
C1479 C1481 1.433 . S
C1480 C1476 1.350 1_556 S
C1480 C1477 1.463 . S
C1480 N1484 1.427 . S
C1481 H1471 0.929 . S
C1481 C1479 1.433 . S
C1481 N1484 1.384 . S
C1482 H1473 0.929 . S
C1482 C1474 1.378 . S
C1482 C1477 1.350 . S
C1483 H1470 0.929 . S
C1483 C1475 1.433 . S
C1483 N1485 1.384 . S
N1484 C1480 1.427 . S
N1484 C1481 1.384 . S
N1485 C1477 1.427 1_554 S
N1485 C1483 1.384 . S
H1486 C1492 0.930 . S
H1487 C1496 0.930 . S
H1488 C1501 0.929 . S
H1489 C1499 0.929 . S
H1490 C1494 0.929 . S
H1491 C1500 0.929 . S
C1492 H1486 0.930 . S
C1492 C1493 1.367 . S
C1492 C1500 1.378 . S
C1493 C1492 1.367 . S
C1493 C1501 1.433 1_554 S
C1494 H1490 0.929 . S
C1494 C1496 1.378 . S
C1494 C1498 1.350 . S
C1495 C1498 1.463 . S
C1495 C1500 1.350 1_556 S
C1495 N1503 1.427 . S
C1496 H1487 0.930 . S
C1496 C1494 1.378 . S
C1496 C1497 1.367 . S
C1497 C1496 1.367 . S
C1497 C1499 1.433 . S
C1498 C1494 1.350 . S
C1498 C1495 1.463 . S
C1498 N1502 1.427 . S
C1499 H1489 0.929 . S
C1499 C1497 1.433 . S
C1499 N1502 1.384 . S
C1500 H1491 0.929 . S
C1500 C1492 1.378 . S
C1500 C1495 1.350 1_554 S
C1501 H1488 0.929 . S
C1501 C1493 1.433 1_556 S
C1501 N1503 1.384 . S
N1502 C1498 1.427 . S
N1502 C1499 1.384 . S
N1503 C1495 1.427 . S
N1503 C1501 1.384 . S
C647 C2 2.350 . S
C651 C202 2.344 . S
C665 C242 2.344 . S
C669 C42 2.357 . S
C683 C82 2.343 . S
C687 C282 2.357 . S
C701 C122 2.345 . S
C705 C162 2.350 . S
C719 C543 2.356 . S
C723 C343 2.346 . S
C737 C583 2.347 . S
C741 C383 2.347 . S
C755 C423 2.354 . S
C759 C623 2.350 . S
C773 C463 2.344 . S
C777 C503 2.352 . S
C791 C17 1.891 . S
C795 C144 1.783 1_545 S
C809 C57 1.879 . S
C813 C24 1.771 . S
C827 C97 1.879 . S
C831 C64 1.770 . S
C845 C137 1.879 . S
C849 C104 1.770 1_455 S
C863 C177 1.888 . S
C867 C224 1.786 1_565 S
C881 C264 1.786 . S
C885 C217 1.889 . S
C899 C257 1.879 . S
C903 C304 1.771 . S
C917 C184 1.771 1_655 S
C921 C297 1.879 . S
C935 C453 1.785 1_565 S
C939 C346 1.890 . S
C953 C386 1.885 . S
C957 C333 1.769 . S
C971 C426 1.887 . S
C975 C373 1.786 . S
C989 C466 1.886 . S
C993 C413 1.769 1_655 S
C1007 C506 1.881 . S
C1011 C533 1.780 1_545 S
C1025 C546 1.884 . S
C1029 C573 1.784 . S
C1043 C586 1.880 . S
C1047 C613 1.768 . S
C1061 C626 1.886 . S
C1065 C493 1.770 1_455 S
C1079 C26 1.394 . S
C1083 C106 1.399 . S
C1097 C66 1.394 . S
C1101 C146 1.399 . S
C1115 C266 1.398 . S
C1119 C186 1.392 . S
C1133 C306 1.393 . S
C1137 C226 1.399 . S
C1151 C417 1.393 . S
C1155 C337 1.398 . S
C1169 C457 1.391 . S
C1173 C377 1.396 . S
C1187 C497 1.393 . S
C1191 C577 1.399 . S
C1205 C537 1.399 . S
C1209 C617 1.395 . S
C1223 C13 2.705 . S
C1227 C442 2.683 . S
C1241 C322 2.684 . S
C1245 C53 2.706 . S
C1259 C93 2.702 . S
C1263 C362 2.678 . S
C1277 C402 2.678 . S
C1281 C133 2.702 . S
C1295 C522 2.683 . S
C1299 C173 2.706 . S
C1313 C213 2.706 . S
C1317 C562 2.684 . S
C1331 C602 2.683 . S
C1335 C253 2.705 . S
C1349 C293 2.702 . S
C1353 C482 2.678 . S
C1367 C344 2.703 . S
C1371 C143 2.679 . S
C1385 C384 2.704 . S
C1389 C23 2.681 . S
C1403 C63 2.678 . S
C1407 C424 2.702 . S
C1421 C464 2.706 . S
C1425 C103 2.683 . S
C1439 C504 2.702 . S
C1443 C223 2.678 . S
C1457 C544 2.702 . S
C1461 C263 2.678 . S
C1475 C303 2.683 . S
C1479 C584 2.706 . S
C1493 C183 2.680 . S
C1497 C624 2.704 . S
