# Generated by pormake.
# Topology eta, (3)-cn, num edge types: 1
# Building blocks:
#     Node 0, Type 0, BuildingBlock: WUSLED_clean_sbu_0, # of connection points: 3
#     Node 1, Type 0, BuildingBlock: WUSLED_clean_sbu_0, # of connection points: 3
#     Node 2, Type 0, BuildingBlock: WUSLED_clean_sbu_0, # of connection points: 3
#     Node 3, Type 0, BuildingBlock: WUSLED_clean_sbu_0, # of connection points: 3
#     Node 4, Type 0, BuildingBlock: WUSLED_clean_sbu_0, # of connection points: 3
#     Node 5, Type 0, BuildingBlock: WUSLED_clean_sbu_0, # of connection points: 3
#     Edge 6, Type (0, 0), BuildingBlock: ZUJKAS_clean_linker_0, # of connection points: 2
#     Edge 7, Type (0, 0), BuildingBlock: ZUJKAS_clean_linker_0, # of connection points: 2
#     Edge 8, Type (0, 0), BuildingBlock: ZUJKAS_clean_linker_0, # of connection points: 2
#     Edge 9, Type (0, 0), BuildingBlock: ZUJKAS_clean_linker_0, # of connection points: 2
#     Edge 10, Type (0, 0), BuildingBlock: ZUJKAS_clean_linker_0, # of connection points: 2
#     Edge 11, Type (0, 0), BuildingBlock: ZUJKAS_clean_linker_0, # of connection points: 2
#     Edge 12, Type (0, 0), BuildingBlock: ZUJKAS_clean_linker_0, # of connection points: 2
#     Edge 13, Type (0, 0), BuildingBlock: ZUJKAS_clean_linker_0, # of connection points: 2
#     Edge 14, Type (0, 0), BuildingBlock: ZUJKAS_clean_linker_0, # of connection points: 2
# Relax obj value: 0.000
# Max RMSD: 0.005
# Mean RMSD: 0.005
data_MOF--net-eta--node1-WUSLED_clean_sbu_0--edge1-ZUJKAS_clean_linker_0
_symmetry_space_group_name_H-M    P1
_symmetry_Int_Tables_number       1
_symmetry_cell_setting            triclinic
loop_
_symmetry_equiv_pos_as_xyz
'x, y, z'
_cell_length_a     79.9004
_cell_length_b     80.818922
_cell_length_c     65.458951
_cell_angle_alpha  89.512167
_cell_angle_beta   89.948331
_cell_angle_gamma 121.07773
loop_
_atom_site_label
_atom_site_type_symbol
_atom_site_fract_x
_atom_site_fract_y
_atom_site_fract_z
_atom_type_partial_charge
C0 C 0.2423 0.60647 0.13274 0.0
C1 C 0.26241 0.61991 0.13416 0.0
C2 C 0.26807 0.60931 0.10143 0.0
C3 C 0.27518 0.62135 0.11862 0.0
C4 C 0.24791 0.59573 0.10027 0.0
C5 C 0.23517 0.59435 0.11577 0.0
U6 U 0.23106 0.61859 0.18556 0.0
O7 O 0.20907 0.62589 0.19456 0.0
O8 O 0.20792 0.60022 0.20763 0.0
C9 C 0.19924 0.61025 0.20594 0.0
C10 C 0.22853 0.60504 0.14861 0.0
C11 C 0.17795 0.59903 0.20274 0.0
C12 C 0.14897 0.57307 0.18646 0.0
C13 C 0.16933 0.58387 0.18867 0.0
C14 C 0.1457 0.59273 0.21203 0.0
C15 C 0.13687 0.57727 0.19825 0.0
C16 C 0.166 0.60344 0.21426 0.0
C17 C 0.27341 0.65088 0.2214 0.0
C18 C 0.26884 0.65893 0.25587 0.0
C19 C 0.30152 0.67224 0.24208 0.0
C20 C 0.29367 0.66249 0.22379 0.0
C21 C 0.28923 0.67056 0.2584 0.0
C22 C 0.261 0.64916 0.23752 0.0
C23 C 0.26559 0.64067 0.20202 0.0
O24 O 0.22774 0.59548 0.16528 0.0
O25 O 0.22871 0.62108 0.15235 0.0
O26 O 0.25708 0.64738 0.19023 0.0
O27 O 0.25593 0.6217 0.20323 0.0
H28 H 0.26819 0.62934 0.14723 0.0
H29 H 0.29063 0.63181 0.12012 0.0
H30 H 0.24188 0.58641 0.08715 0.0
H31 H 0.21969 0.58391 0.1144 0.0
H32 H 0.1427 0.56119 0.17583 0.0
H33 H 0.17833 0.58027 0.17957 0.0
H34 H 0.13693 0.59665 0.22107 0.0
H35 H 0.17239 0.61517 0.22509 0.0
H36 H 0.25896 0.65717 0.26816 0.0
H37 H 0.31724 0.6813 0.24333 0.0
H38 H 0.30346 0.66404 0.21147 0.0
H39 H 0.24529 0.64022 0.23593 0.0
C40 C 0.61681 0.2271 0.57692 0.0
C41 C 0.62759 0.24717 0.57368 0.0
C42 C 0.61868 0.25228 0.60773 0.0
C43 C 0.62854 0.25966 0.58896 0.0
C44 C 0.60806 0.23213 0.61087 0.0
C45 C 0.60715 0.21969 0.59561 0.0
U46 U 0.6287 0.21658 0.52359 0.0
O47 O 0.63523 0.19455 0.51378 0.0
O48 O 0.60951 0.19429 0.50166 0.0
C49 C 0.61931 0.18533 0.50273 0.0
C50 C 0.61524 0.21367 0.56093 0.0
C51 C 0.6075 0.16424 0.50587 0.0
C52 C 0.59087 0.13588 0.52804 0.0
C53 C 0.60169 0.15601 0.52548 0.0
C54 C 0.59132 0.13206 0.49142 0.0
C55 C 0.58564 0.12363 0.51102 0.0
C56 C 0.60215 0.15214 0.4889 0.0
C57 C 0.66172 0.25874 0.4874 0.0
C58 C 0.66644 0.25512 0.45136 0.0
C59 C 0.68613 0.2862 0.4675 0.0
C60 C 0.67647 0.27825 0.48605 0.0
C61 C 0.68119 0.27477 0.44988 0.0
C62 C 0.65682 0.24716 0.46998 0.0
C63 C 0.65151 0.25088 0.50703 0.0
O64 O 0.60558 0.21327 0.54452 0.0
O65 O 0.63136 0.21373 0.55674 0.0
O66 O 0.65809 0.24198 0.51839 0.0
O67 O 0.63233 0.24175 0.50643 0.0
H68 H 0.63512 0.25314 0.55928 0.0
H69 H 0.63668 0.27508 0.58594 0.0
H70 H 0.60056 0.22595 0.62522 0.0
H71 H 0.59882 0.20423 0.5984 0.0
H72 H 0.58692 0.12992 0.54336 0.0
H73 H 0.60567 0.16514 0.53879 0.0
H74 H 0.58728 0.12314 0.47794 0.0
H75 H 0.60641 0.15824 0.47364 0.0
H76 H 0.66243 0.24586 0.43816 0.0
H77 H 0.6972 0.30142 0.46688 0.0
H78 H 0.68042 0.28741 0.49933 0.0
H79 H 0.64552 0.23201 0.47077 0.0
C80 C 0.44759 0.64185 0.79834 0.0
C81 C 0.43284 0.6464 0.79862 0.0
C82 C 0.44481 0.66393 0.76624 0.0
C83 C 0.43145 0.65732 0.7827 0.0
C84 C 0.45977 0.65961 0.76632 0.0
C85 C 0.46111 0.64866 0.78219 0.0
U86 U 0.43575 0.61899 0.85197 0.0
O87 O 0.42799 0.5897 0.86172 0.0
O88 O 0.45441 0.61497 0.87362 0.0
C89 C 0.44399 0.59602 0.8725 0.0
C90 C 0.44894 0.62978 0.81448 0.0
C91 C 0.45505 0.5863 0.86889 0.0
C92 C 0.47998 0.58341 0.85069 0.0
C93 C 0.46934 0.59262 0.85346 0.0
C94 C 0.4619 0.56127 0.87847 0.0
C95 C 0.47642 0.56764 0.86321 0.0
C96 C 0.45136 0.57053 0.88127 0.0
C97 C 0.40434 0.62923 0.88834 0.0
C98 C 0.39265 0.61394 0.92167 0.0
C99 C 0.38701 0.63934 0.91064 0.0
C100 C 0.39663 0.64102 0.89221 0.0
C101 C 0.38488 0.62578 0.92563 0.0
C102 C 0.40235 0.61568 0.90319 0.0
C103 C 0.41431 0.63134 0.86873 0.0
O104 O 0.45899 0.63901 0.83072 0.0
O105 O 0.43261 0.61361 0.81894 0.0
O106 O 0.40702 0.61574 0.85749 0.0
O107 O 0.4335 0.64101 0.8693 0.0
H108 H 0.42228 0.6413 0.81102 0.0
H109 H 0.41964 0.66021 0.78307 0.0
H110 H 0.47053 0.66474 0.75413 0.0
H111 H 0.47267 0.6454 0.78178 0.0
H112 H 0.49089 0.58855 0.83865 0.0
H113 H 0.47232 0.60472 0.84364 0.0
H114 H 0.45895 0.54936 0.88855 0.0
H115 H 0.4404 0.56546 0.89327 0.0
H116 H 0.39143 0.60348 0.93295 0.0
H117 H 0.38096 0.64847 0.91301 0.0
H118 H 0.39799 0.65152 0.88089 0.0
H119 H 0.40828 0.60649 0.90048 0.0
C120 C 0.82122 0.43168 0.13141 0.0
C121 C 0.80212 0.42713 0.13597 0.0
C122 C 0.79561 0.42811 0.09969 0.0
C123 C 0.78944 0.42545 0.12024 0.0
C124 C 0.81474 0.43255 0.09527 0.0
C125 C 0.8274 0.43433 0.11098 0.0
U126 U 0.83224 0.42148 0.18551 0.0
O127 O 0.85441 0.41487 0.19585 0.0
O128 O 0.85507 0.44073 0.20699 0.0
C129 C 0.86392 0.43082 0.20647 0.0
C130 C 0.83491 0.43369 0.14764 0.0
C131 C 0.88523 0.44223 0.20328 0.0
C132 C 0.91394 0.46524 0.18365 0.0
C133 C 0.89357 0.45408 0.18594 0.0
C134 C 0.91776 0.45259 0.21585 0.0
C135 C 0.9263 0.46476 0.19869 0.0
C136 C 0.89745 0.44147 0.21811 0.0
C137 C 0.78966 0.39016 0.22235 0.0
C138 C 0.7923 0.376 0.25425 0.0
C139 C 0.7625 0.37565 0.24643 0.0
C140 C 0.77068 0.38521 0.22791 0.0
C141 C 0.77312 0.37078 0.2598 0.0
C142 C 0.8005 0.38563 0.2357 0.0
C143 C 0.79765 0.39979 0.2025 0.0
O144 O 0.83565 0.44382 0.1636 0.0
O145 O 0.83481 0.41785 0.15256 0.0
O146 O 0.80634 0.39283 0.19146 0.0
O147 O 0.80713 0.41876 0.20256 0.0
H148 H 0.79701 0.42489 0.15166 0.0
H149 H 0.77474 0.4218 0.12416 0.0
H150 H 0.82005 0.43493 0.07966 0.0
H151 H 0.84209 0.43785 0.10717 0.0
H152 H 0.92 0.47456 0.17034 0.0
H153 H 0.88433 0.45483 0.17432 0.0
H154 H 0.92677 0.45157 0.22754 0.0
H155 H 0.89127 0.43234 0.23155 0.0
H156 H 0.80085 0.37234 0.26405 0.0
H157 H 0.74786 0.37222 0.25034 0.0
H158 H 0.76213 0.38869 0.21787 0.0
H159 H 0.81522 0.38938 0.23169 0.0
C160 C 0.40825 0.81126 0.46687 0.0
C161 C 0.40575 0.79276 0.46593 0.0
C162 C 0.38604 0.78581 0.43518 0.0
C163 C 0.3948 0.78018 0.45017 0.0
C164 C 0.38842 0.80429 0.43641 0.0
C165 C 0.39944 0.81688 0.45208 0.0
U166 U 0.43176 0.82271 0.51988 0.0
O167 O 0.4608 0.84598 0.52947 0.0
O168 O 0.43452 0.84418 0.54228 0.0
C169 C 0.45368 0.85428 0.54083 0.0
C170 C 0.42009 0.82495 0.48299 0.0
C171 C 0.46254 0.87526 0.5377 0.0
C172 C 0.47437 0.90344 0.51544 0.0
C173 C 0.46533 0.88338 0.51803 0.0
C174 C 0.47756 0.90741 0.55214 0.0
C175 C 0.48067 0.91571 0.53248 0.0
C176 C 0.46861 0.88739 0.55469 0.0
C177 C 0.42426 0.78069 0.55463 0.0
C178 C 0.4352 0.78414 0.58985 0.0
C179 C 0.42084 0.75303 0.57339 0.0
C180 C 0.41836 0.76109 0.55552 0.0
C181 C 0.42931 0.76443 0.5908 0.0
C182 C 0.43274 0.79222 0.57189 0.0
C183 C 0.42133 0.78865 0.53558 0.0
O184 O 0.41056 0.82425 0.49965 0.0
O185 O 0.43701 0.82651 0.48673 0.0
O186 O 0.43692 0.79864 0.524 0.0
O187 O 0.41065 0.79666 0.5371 0.0
H188 H 0.41232 0.78809 0.47731 0.0
H189 H 0.39306 0.76598 0.44982 0.0
H190 H 0.38209 0.80919 0.425 0.0
H191 H 0.40121 0.83109 0.45255 0.0
H192 H 0.47633 0.90933 0.50011 0.0
H193 H 0.46063 0.87423 0.50471 0.0
H194 H 0.48242 0.91641 0.56557 0.0
H195 H 0.4666 0.88139 0.56998 0.0
H196 H 0.44193 0.79337 0.6029 0.0
H197 H 0.41584 0.73777 0.57365 0.0
H198 H 0.41173 0.75197 0.54236 0.0
H199 H 0.43745 0.80742 0.57145 0.0
C200 C 0.61565 0.39667 0.79877 0.0
C201 C 0.63116 0.3932 0.79855 0.0
C202 C 0.61763 0.37307 0.76838 0.0
C203 C 0.63218 0.38157 0.78343 0.0
C204 C 0.60205 0.37649 0.76884 0.0
C205 C 0.60111 0.38819 0.78386 0.0
U206 U 0.6273 0.42024 0.85152 0.0
O207 O 0.63537 0.44976 0.86017 0.0
O208 O 0.60867 0.42477 0.87266 0.0
C209 C 0.61931 0.4437 0.87094 0.0
C210 C 0.61442 0.40916 0.81424 0.0
C211 C 0.60854 0.4537 0.86698 0.0
C212 C 0.5823 0.4557 0.85058 0.0
C213 C 0.59274 0.44627 0.8534 0.0
C214 C 0.6036 0.48029 0.8745 0.0
C215 C 0.58756 0.4728 0.86117 0.0
C216 C 0.61394 0.47082 0.87739 0.0
C217 C 0.65785 0.40949 0.88902 0.0
C218 C 0.67638 0.42831 0.91837 0.0
C219 C 0.66896 0.39542 0.91464 0.0
C220 C 0.65907 0.39385 0.89649 0.0
C221 C 0.67797 0.41274 0.92572 0.0
C222 C 0.6664 0.4267 0.90019 0.0
C223 C 0.64807 0.40754 0.86932 0.0
O224 O 0.60409 0.40028 0.83067 0.0
O225 O 0.63085 0.42525 0.81831 0.0
O226 O 0.65571 0.42299 0.85747 0.0
O227 O 0.62887 0.39809 0.86987 0.0
H228 H 0.64248 0.39951 0.81002 0.0
H229 H 0.64424 0.37905 0.78366 0.0
H230 H 0.59073 0.37037 0.75736 0.0
H231 H 0.58904 0.39071 0.78377 0.0
H232 H 0.57016 0.44967 0.84003 0.0
H233 H 0.58839 0.43312 0.84511 0.0
H234 H 0.60791 0.49328 0.8831 0.0
H235 H 0.62606 0.47676 0.88796 0.0
H236 H 0.68325 0.44191 0.92639 0.0
H237 H 0.66952 0.383 0.92001 0.0
H238 H 0.65247 0.3804 0.88817 0.0
H239 H 0.66558 0.43895 0.89474 0.0
H240 H 0.38731 0.65483 0.94915 0.0
H241 H 0.36881 0.65185 0.98014 0.0
H242 H 0.34009 0.58979 0.9773 0.0
H243 H 0.35852 0.59263 0.94623 0.0
H244 H 0.3288 0.63372 0.98422 0.0
H245 H 0.35773 0.60019 0.03664 0.0
H246 H 0.3695 0.61146 1.01269 0.0
H247 H 0.34832 0.58748 1.01311 0.0
C248 C 0.37707 0.64053 0.95511 0.0
C249 C 0.3744 0.62396 0.94515 0.0
C250 C 0.36657 0.63886 0.97289 0.0
C251 C 0.35323 0.62061 0.98121 0.0
C252 C 0.35062 0.60404 0.97144 0.0
H253 H 0.26806 0.58023 0.08008 0.0
H254 H 0.28894 0.58328 0.05115 0.0
C255 C 0.36116 0.60569 0.95365 0.0
C256 C 0.34135 0.61897 0.99946 0.0
H257 H 0.33025 0.60144 0.04843 0.0
C258 C 0.32921 0.62677 0.9983 0.0
C259 C 0.34184 0.60984 1.01781 0.0
C260 C 0.35517 0.60191 1.02029 0.0
C261 C 0.31732 0.6254 1.01483 0.0
C262 C 0.3178 0.61626 0.03318 0.0
C263 C 0.32991 0.60845 0.03436 0.0
C264 C 0.30565 0.61452 0.0512 0.0
C265 C 0.30399 0.63335 1.01236 0.0
C266 C 0.30834 0.63107 0.06109 0.0
C267 C 0.29637 0.62938 0.07757 0.0
C268 C 0.28148 0.6111 0.08455 0.0
C269 C 0.27916 0.59454 0.0749 0.0
C270 C 0.29117 0.59625 0.05845 0.0
H271 H 0.30183 0.63558 0.99602 0.0
H272 H 0.28949 0.62351 1.01947 0.0
H273 H 0.31057 0.64752 1.02006 0.0
H274 H 0.31964 0.64532 0.05595 0.0
H275 H 0.2985 0.64244 0.08454 0.0
H276 H 0.66485 0.26874 0.41181 0.0
H277 H 0.68111 0.28399 0.37945 0.0
H278 H 0.73614 0.31633 0.41069 0.0
H279 H 0.72012 0.30076 0.443 0.0
H280 H 0.70129 0.3234 0.37007 0.0
H281 H 0.74998 0.2937 0.36242 0.0
H282 H 0.72947 0.28358 0.37989 0.0
H283 H 0.75195 0.30518 0.3864 0.0
C284 C 0.68048 0.27883 0.41176 0.0
C285 C 0.69118 0.28348 0.43003 0.0
C286 C 0.68973 0.28764 0.39326 0.0
C287 C 0.70989 0.30113 0.39259 0.0
C288 C 0.72064 0.30572 0.41076 0.0
H289 H 0.79041 0.37614 0.29743 0.0
H290 H 0.77518 0.35916 0.32953 0.0
C291 C 0.7114 0.29696 0.42927 0.0
C292 C 0.71947 0.31106 0.37306 0.0
H293 H 0.75543 0.31876 0.33915 0.0
C294 C 0.71305 0.32229 0.36325 0.0
C295 C 0.73489 0.3097 0.36423 0.0
C296 C 0.7419 0.29726 0.37365 0.0
C297 C 0.7218 0.33241 0.34501 0.0
C298 C 0.73717 0.33101 0.33615 0.0
C299 C 0.74366 0.31983 0.34598 0.0
C300 C 0.74654 0.34088 0.31654 0.0
C301 C 0.71477 0.34483 0.33558 0.0
C302 C 0.73559 0.33596 0.29851 0.0
C303 C 0.74426 0.34553 0.28013 0.0
C304 C 0.76411 0.36022 0.27934 0.0
C305 C 0.77514 0.36482 0.2974 0.0
C306 C 0.76645 0.35519 0.3158 0.0
H307 H 0.70648 0.34821 0.34674 0.0
H308 H 0.72723 0.35861 0.32956 0.0
H309 H 0.70492 0.33702 0.32266 0.0
H310 H 0.72031 0.32466 0.29864 0.0
H311 H 0.73541 0.34128 0.26647 0.0
H312 H 0.43521 0.69208 0.76749 0.0
H313 H 0.43181 0.70966 0.73867 0.0
H314 H 0.44759 0.67889 0.69693 0.0
H315 H 0.4503 0.66078 0.72545 0.0
H316 H 0.45932 0.7337 0.70959 0.0
H317 H 0.39706 0.67058 0.67248 0.0
H318 H 0.40443 0.66962 0.69831 0.0
H319 H 0.41741 0.66747 0.67702 0.0
C320 C 0.43771 0.68887 0.75216 0.0
C321 C 0.44296 0.67493 0.74883 0.0
C322 C 0.4359 0.69904 0.73572 0.0
C323 C 0.43915 0.69539 0.71561 0.0
C324 C 0.44463 0.68169 0.71227 0.0
H325 H 0.44124 0.73827 0.59409 0.0
H326 H 0.44372 0.72253 0.62501 0.0
C327 C 0.44642 0.67152 0.72865 0.0
C328 C 0.43716 0.70608 0.6981 0.0
H329 H 0.41353 0.69967 0.65274 0.0
C330 C 0.44919 0.7263 0.69724 0.0
C331 C 0.42388 0.69641 0.68202 0.0
C332 C 0.40982 0.67485 0.68254 0.0
C333 C 0.4488 0.73702 0.68039 0.0
C334 C 0.43583 0.72727 0.66411 0.0
C335 C 0.42355 0.70711 0.66517 0.0
C336 C 0.43502 0.73759 0.64558 0.0
C337 C 0.4627 0.7586 0.67984 0.0
C338 C 0.42928 0.75131 0.64685 0.0
C339 C 0.42777 0.76031 0.62914 0.0
C340 C 0.43182 0.75565 0.6098 0.0
C341 C 0.43774 0.74202 0.60867 0.0
C342 C 0.43925 0.73306 0.62635 0.0
H343 H 0.47467 0.76324 0.6911 0.0
H344 H 0.46922 0.76353 0.66438 0.0
H345 H 0.45455 0.76591 0.68358 0.0
H346 H 0.42557 0.75476 0.66148 0.0
H347 H 0.4229 0.77052 0.63055 0.0
H348 H 0.79028 0.41023 0.0629 0.0
H349 H 0.76913 0.40817 0.03481 0.0
H350 H 0.74909 0.43935 0.07034 0.0
H351 H 0.77055 0.44184 0.0984 0.0
H352 H 0.72787 0.39157 0.03503 0.0
H353 H 0.76729 0.47001 1.01587 0.0
H354 H 0.77797 0.45931 0.03142 0.0
H355 H 0.76002 0.46381 0.04215 0.0
C356 C 0.78152 0.41681 0.06469 0.0
C357 C 0.78223 0.42633 0.08286 0.0
C358 C 0.76934 0.41551 0.04866 0.0
C359 C 0.75774 0.42383 0.05037 0.0
C360 C 0.75816 0.43309 0.06858 0.0
H361 H 0.6795 0.43102 0.96159 0.0
H362 H 0.69799 0.43362 0.99249 0.0
C363 C 0.77028 0.43432 0.08468 0.0
C364 C 0.74511 0.4226 0.03309 0.0
H365 H 0.73859 0.4498 0.99731 0.0
C366 C 0.73019 0.40429 0.0268 0.0
C367 C 0.7481 0.43924 0.02244 0.0
C368 C 0.76429 0.45923 0.02814 0.0
C369 C 0.71819 0.40216 1.01012 0.0
C370 C 0.72146 0.41876 0.99918 0.0
C371 C 0.73613 0.4371 1.00571 0.0
C372 C 0.7103 0.41732 0.98044 0.0
C373 C 0.70201 0.38215 1.00448 0.0
C374 C 0.71138 0.40762 0.96327 0.0
C375 C 0.70096 0.40622 0.94558 0.0
C376 C 0.68925 0.41455 0.94459 0.0
C377 C 0.68846 0.42455 0.96173 0.0
C378 C 0.69894 0.42596 0.97945 0.0
H379 H 0.69791 0.37183 1.0175 0.0
H380 H 0.6888 0.38225 0.9994 0.0
H381 H 0.70702 0.37678 0.99172 0.0
H382 H 0.72044 0.40126 0.96349 0.0
H383 H 0.70231 0.39881 0.93255 0.0
H384 H 0.39509 0.763 0.41265 0.0
H385 H 0.37716 0.74249 0.38372 0.0
H386 H 0.33347 0.75825 0.39021 0.0
H387 H 0.35132 0.77882 0.41912 0.0
H388 H 0.33929 0.71109 0.38083 0.0
H389 H 0.34931 0.77118 0.33042 0.0
H390 H 0.36298 0.77523 0.35366 0.0
H391 H 0.33821 0.76998 0.35467 0.0
C392 C 0.38158 0.76198 0.40804 0.0
C393 C 0.37473 0.77268 0.41812 0.0
C394 C 0.37139 0.75031 0.39144 0.0
C395 C 0.35416 0.74911 0.38454 0.0
C396 C 0.34699 0.75934 0.39491 0.0
H397 H 0.27642 0.68964 0.28232 0.0
H398 H 0.2911 0.70753 0.31374 0.0
C399 C 0.35721 0.77108 0.41146 0.0
C400 C 0.34373 0.73715 0.3665 0.0
H401 H 0.32852 0.73944 0.31833 0.0
C402 C 0.33697 0.71729 0.36715 0.0
C403 C 0.34067 0.74524 0.34865 0.0
C404 C 0.34831 0.7666 0.34665 0.0
C405 C 0.32706 0.70528 0.35054 0.0
C406 C 0.32411 0.7134 0.33265 0.0
C407 C 0.33073 0.73322 0.33207 0.0
C408 C 0.31468 0.70174 0.31415 0.0
C409 C 0.31957 0.68395 0.35241 0.0
C410 C 0.32309 0.69259 0.30388 0.0
C411 C 0.31468 0.68227 0.28599 0.0
C412 C 0.29774 0.68098 0.27787 0.0
C413 C 0.2893 0.69011 0.28827 0.0
C414 C 0.29775 0.70045 0.30616 0.0
H415 H 0.31806 0.67923 0.36865 0.0
H416 H 0.30519 0.67527 0.34484 0.0
H417 H 0.33008 0.68082 0.34489 0.0
H418 H 0.33636 0.69368 0.30951 0.0
H419 H 0.32147 0.67529 0.27853 0.0
H420 H 0.58784 0.3389 0.75351 0.0
H421 H 0.58937 0.31921 0.72623 0.0
H422 H 0.65113 0.35981 0.71902 0.0
H423 H 0.64974 0.37954 0.74638 0.0
H424 H 0.60006 0.32909 0.68613 0.0
H425 H 0.64947 0.30885 0.72335 0.0
H426 H 0.6378 0.3194 0.73726 0.0
H427 H 0.65913 0.33441 0.72187 0.0
C428 C 0.60176 0.34365 0.74612 0.0
C429 C 0.61868 0.36079 0.75218 0.0
C430 C 0.60262 0.33235 0.73057 0.0
C431 C 0.62041 0.33786 0.72074 0.0
C432 C 0.63733 0.35499 0.7267 0.0
H433 H 0.64999 0.28695 0.61995 0.0
H434 H 0.65068 0.30839 0.64663 0.0
C435 C 0.6365 0.36627 0.74233 0.0
C436 C 0.62101 0.326 0.70382 0.0
H437 H 0.64166 0.30009 0.68865 0.0
C438 C 0.60912 0.32271 0.68672 0.0
C439 C 0.63291 0.31775 0.70453 0.0
C440 C 0.64543 0.3201 0.7228 0.0
C441 C 0.60886 0.3115 0.67029 0.0
C442 C 0.6206 0.30309 0.6711 0.0
C443 C 0.63268 0.30656 0.68806 0.0
C444 C 0.62013 0.29023 0.65473 0.0
C445 C 0.59621 0.30898 0.65209 0.0
C446 C 0.60278 0.27282 0.65055 0.0
C447 C 0.60232 0.2606 0.63527 0.0
C448 C 0.61924 0.26545 0.62389 0.0
C449 C 0.63664 0.28288 0.62821 0.0
C450 C 0.6371 0.29509 0.64355 0.0
H451 H 0.59238 0.32037 0.65133 0.0
H452 H 0.60363 0.30929 0.63761 0.0
H453 H 0.58241 0.29478 0.65333 0.0
H454 H 0.58959 0.26861 0.6592 0.0
H455 H 0.58863 0.2474 0.63226 0.0
H456 H 0.10962 0.56536 0.22899 0.0
H457 H 0.07406 0.5468 0.22616 0.0
H458 H 0.07908 0.54355 0.16095 0.0
H459 H 0.11478 0.56245 0.16355 0.0
H460 H 0.05014 0.55652 0.20268 0.0
H461 H 0.04172 0.48666 0.17901 0.0
H462 H 0.06388 0.50567 0.19038 0.0
H463 H 0.05852 0.50759 0.16415 0.0
C464 C 0.10322 0.56086 0.21399 0.0
C465 C 0.11514 0.56549 0.19649 0.0
C466 C 0.08286 0.55013 0.21243 0.0
C467 C 0.07391 0.54363 0.19339 0.0
C468 C 0.08568 0.54814 0.17585 0.0
H469 H 0.94911 0.47257 0.16429 0.0
H470 H 0.98481 0.49262 0.16156 0.0
C471 C 0.1061 0.55893 0.17738 0.0
C472 C 0.05225 0.53254 0.192 0.0
H473 H 1.01299 0.48801 0.18121 0.0
C474 C 0.04201 0.54155 0.19794 0.0
C475 C 0.04168 0.51307 0.18565 0.0
C476 C 0.05192 0.50255 0.17955 0.0
C477 C 1.02149 0.5316 0.19784 0.0
C478 C 1.01088 0.51195 0.19209 0.0
C479 C 1.02112 0.50306 0.18566 0.0
C480 C 0.9892 0.50015 0.19355 0.0
C481 C 1.01138 0.5423 0.20376 0.0
C482 C 0.97981 0.49757 0.21245 0.0
C483 C 0.95946 0.48625 0.21403 0.0
C484 C 0.94799 0.47707 0.19677 0.0
C485 C 0.95745 0.47961 0.17784 0.0
C486 C 0.97786 0.49096 0.17627 0.0
H487 H 1.02112 0.55815 0.2016 0.0
H488 H 0.99791 0.53741 0.19469 0.0
H489 H 1.00722 0.53951 0.22016 0.0
H490 H 0.98825 0.50419 0.22607 0.0
H491 H 0.95271 0.48481 0.22881 0.0
H492 H 0.59077 0.09714 0.49046 0.0
H493 H 0.57205 0.06198 0.49405 0.0
H494 H 0.53717 0.06623 0.54166 0.0
H495 H 0.55533 0.10142 0.53762 0.0
H496 H 0.56776 0.0393 0.52736 0.0
H497 H 0.49555 0.02704 0.50375 0.0
H498 H 0.51799 0.04982 0.49966 0.0
H499 H 0.5065 0.04366 0.52444 0.0
C500 C 0.57893 0.09062 0.5015 0.0
C501 C 0.57447 0.10217 0.51361 0.0
C502 C 0.56833 0.07049 0.50364 0.0
C503 C 0.55298 0.06141 0.51789 0.0
C504 C 0.54867 0.07287 0.53026 0.0
H505 H 0.47558 0.94137 0.55483 0.0
H506 H 0.49326 0.97663 0.55139 0.0
C507 C 0.55925 0.09303 0.5281 0.0
C508 C 0.54186 0.03999 0.52005 0.0
H509 H 0.4961 0.99988 0.51694 0.0
C510 C 0.5521 0.03068 0.525 0.0
C511 C 0.52141 0.02873 0.51699 0.0
C512 C 0.5097 0.03777 0.51073 0.0
C513 C 0.54245 1.01049 0.52723 0.0
C514 C 0.52203 0.99925 0.52415 0.0
C515 C 0.51175 1.00853 0.5193 0.0
C516 C 0.5111 0.97783 0.52589 0.0
C517 C 0.55414 1.00137 0.53325 0.0
C518 C 0.51503 0.96677 0.51248 0.0
C519 C 0.50499 0.94662 0.51443 0.0
C520 C 0.49078 0.9371 0.52983 0.0
C521 C 0.48663 0.94824 0.543 0.0
C522 C 0.49663 0.96838 0.54098 0.0
H523 H 0.56853 1.0121 0.53979 0.0
H524 H 0.54602 0.98954 0.54459 0.0
H525 H 0.55685 0.99511 0.51951 0.0
H526 H 0.52593 0.97374 0.50052 0.0
H527 H 0.50864 0.93853 0.50412 0.0
H528 H 0.46324 0.52888 0.86449 0.0
H529 H 0.48256 0.5133 0.8623 0.0
H530 H 0.53495 0.56893 0.85367 0.0
H531 H 0.51582 0.58468 0.85627 0.0
H532 H 0.50799 0.5149 0.83022 0.0
H533 H 0.54736 0.54485 0.90312 0.0
H534 H 0.52545 0.5449 0.89653 0.0
H535 H 0.54848 0.56235 0.88518 0.0
C536 C 0.47889 0.53782 0.86223 0.0
C537 C 0.48799 0.55806 0.86072 0.0
C538 C 0.48989 0.52888 0.86086 0.0
C539 C 0.51022 0.53997 0.85811 0.0
C540 C 0.51931 0.56012 0.85609 0.0
H541 H 0.60158 0.51164 0.85763 0.0
H542 H 0.58284 0.5278 0.85553 0.0
C543 C 0.50832 0.56908 0.85739 0.0
C544 C 0.52191 0.53045 0.85761 0.0
H545 H 0.55712 0.52693 0.88338 0.0
C546 C 0.51873 0.5175 0.84183 0.0
C547 C 0.53592 0.53388 0.87277 0.0
C548 C 0.53947 0.54712 0.89048 0.0
C549 C 0.52939 0.50809 0.84065 0.0
C550 C 0.5433 0.51139 0.85592 0.0
C551 C 0.5465 0.52441 0.87165 0.0
C552 C 0.55457 0.50139 0.8561 0.0
C553 C 0.52592 0.49501 0.82282 0.0
C554 C 0.54494 0.48114 0.85716 0.0
C555 C 0.55563 0.47184 0.85835 0.0
C556 C 0.57619 0.48262 0.85875 0.0
C557 C 0.58578 0.5029 0.85757 0.0
C558 C 0.57508 0.51217 0.85629 0.0
H559 H 0.51933 0.49838 0.80969 0.0
H560 H 0.53975 0.49621 0.81763 0.0
H561 H 0.51564 0.47981 0.82756 0.0
H562 H 0.52913 0.4725 0.85757 0.0
H563 H 0.54778 0.45623 0.85959 0.0
loop_
_geom_bond_atom_site_label_1
_geom_bond_atom_site_label_2
_geom_bond_distance
_geom_bond_site_symmetry_2
_ccdc_geom_bond_type
C0 C1 1.264 . S
C0 C5 1.479 . S
C0 C10 1.465 . S
C1 C0 1.264 . S
C1 C3 1.339 . S
C1 H28 0.931 . S
C2 C3 1.395 . S
C2 C4 1.320 . S
C3 C1 1.339 . S
C3 C2 1.395 . S
C3 H29 0.929 . S
C4 C2 1.320 . S
C4 C5 1.405 . S
C4 H30 0.930 . S
C5 C0 1.479 . S
C5 C4 1.405 . S
C5 H31 0.931 . S
U6 O7 2.454 . S
U6 O8 2.458 . S
U6 C9 2.984 . S
U6 C10 2.847 . S
U6 C23 2.882 . S
U6 O24 2.441 . S
U6 O25 2.420 . S
U6 O26 2.455 . S
U6 O27 2.449 . S
O7 U6 2.454 . S
O7 C9 1.353 . S
O8 U6 2.458 . S
O8 C9 1.286 . S
C9 U6 2.984 . S
C9 O7 1.353 . S
C9 O8 1.286 . S
C9 C11 1.363 . S
C10 C0 1.465 . S
C10 U6 2.847 . S
C10 O24 1.249 . S
C10 O25 1.202 . S
C11 C9 1.363 . S
C11 C13 1.408 . S
C11 C16 1.342 . S
C12 C13 1.310 . S
C12 C15 1.461 . S
C12 H32 0.932 . S
C13 C11 1.408 . S
C13 C12 1.310 . S
C13 H33 0.930 . S
C14 C15 1.474 . S
C14 C16 1.285 . S
C14 H34 0.929 . S
C15 C12 1.461 . S
C15 C14 1.474 . S
C16 C11 1.342 . S
C16 C14 1.285 . S
C16 H35 0.930 . S
C17 C20 1.424 . S
C17 C22 1.245 . S
C17 C23 1.428 . S
C18 C21 1.260 . S
C18 C22 1.477 . S
C18 H36 0.932 . S
C19 C20 1.384 . S
C19 C21 1.479 . S
C19 H37 0.929 . S
C20 C17 1.424 . S
C20 C19 1.384 . S
C20 H38 0.928 . S
C21 C18 1.260 . S
C21 C19 1.479 . S
C22 C17 1.245 . S
C22 C18 1.477 . S
C22 H39 0.932 . S
C23 U6 2.882 . S
C23 C17 1.428 . S
C23 O26 1.301 . S
C23 O27 1.282 . S
O24 U6 2.441 . S
O24 C10 1.249 . S
O25 U6 2.420 . S
O25 C10 1.202 . S
O26 U6 2.455 . S
O26 C23 1.301 . S
O27 U6 2.449 . S
O27 C23 1.282 . S
H28 C1 0.931 . S
H29 C3 0.929 . S
H30 C4 0.930 . S
H31 C5 0.931 . S
H32 C12 0.932 . S
H33 C13 0.930 . S
H34 C14 0.929 . S
H35 C16 0.930 . S
H36 C18 0.932 . S
H37 C19 0.929 . S
H38 C20 0.928 . S
H39 C22 0.932 . S
C40 C41 1.264 . S
C40 C45 1.479 . S
C40 C50 1.465 . S
C41 C40 1.264 . S
C41 C43 1.339 . S
C41 H68 0.931 . S
C42 C43 1.395 . S
C42 C44 1.320 . S
C43 C41 1.339 . S
C43 C42 1.395 . S
C43 H69 0.929 . S
C44 C42 1.320 . S
C44 C45 1.405 . S
C44 H70 0.930 . S
C45 C40 1.479 . S
C45 C44 1.405 . S
C45 H71 0.931 . S
U46 O47 2.454 . S
U46 O48 2.458 . S
U46 C49 2.984 . S
U46 C50 2.847 . S
U46 C63 2.882 . S
U46 O64 2.441 . S
U46 O65 2.420 . S
U46 O66 2.455 . S
U46 O67 2.449 . S
O47 U46 2.454 . S
O47 C49 1.353 . S
O48 U46 2.458 . S
O48 C49 1.286 . S
C49 U46 2.984 . S
C49 O47 1.353 . S
C49 O48 1.286 . S
C49 C51 1.363 . S
C50 C40 1.465 . S
C50 U46 2.847 . S
C50 O64 1.249 . S
C50 O65 1.202 . S
C51 C49 1.363 . S
C51 C53 1.408 . S
C51 C56 1.342 . S
C52 C53 1.310 . S
C52 C55 1.461 . S
C52 H72 0.932 . S
C53 C51 1.408 . S
C53 C52 1.310 . S
C53 H73 0.930 . S
C54 C55 1.474 . S
C54 C56 1.285 . S
C54 H74 0.929 . S
C55 C52 1.461 . S
C55 C54 1.474 . S
C56 C51 1.342 . S
C56 C54 1.285 . S
C56 H75 0.930 . S
C57 C60 1.424 . S
C57 C62 1.245 . S
C57 C63 1.428 . S
C58 C61 1.260 . S
C58 C62 1.477 . S
C58 H76 0.932 . S
C59 C60 1.384 . S
C59 C61 1.479 . S
C59 H77 0.929 . S
C60 C57 1.424 . S
C60 C59 1.384 . S
C60 H78 0.928 . S
C61 C58 1.260 . S
C61 C59 1.479 . S
C62 C57 1.245 . S
C62 C58 1.477 . S
C62 H79 0.932 . S
C63 U46 2.882 . S
C63 C57 1.428 . S
C63 O66 1.301 . S
C63 O67 1.282 . S
O64 U46 2.441 . S
O64 C50 1.249 . S
O65 U46 2.420 . S
O65 C50 1.202 . S
O66 U46 2.455 . S
O66 C63 1.301 . S
O67 U46 2.449 . S
O67 C63 1.282 . S
H68 C41 0.931 . S
H69 C43 0.929 . S
H70 C44 0.930 . S
H71 C45 0.931 . S
H72 C52 0.932 . S
H73 C53 0.930 . S
H74 C54 0.929 . S
H75 C56 0.930 . S
H76 C58 0.932 . S
H77 C59 0.929 . S
H78 C60 0.928 . S
H79 C62 0.932 . S
C80 C81 1.264 . S
C80 C85 1.479 . S
C80 C90 1.465 . S
C81 C80 1.264 . S
C81 C83 1.339 . S
C81 H108 0.931 . S
C82 C83 1.395 . S
C82 C84 1.320 . S
C83 C81 1.339 . S
C83 C82 1.395 . S
C83 H109 0.929 . S
C84 C82 1.320 . S
C84 C85 1.405 . S
C84 H110 0.930 . S
C85 C80 1.479 . S
C85 C84 1.405 . S
C85 H111 0.931 . S
U86 O87 2.454 . S
U86 O88 2.458 . S
U86 C89 2.984 . S
U86 C90 2.847 . S
U86 C103 2.882 . S
U86 O104 2.441 . S
U86 O105 2.420 . S
U86 O106 2.455 . S
U86 O107 2.449 . S
O87 U86 2.454 . S
O87 C89 1.353 . S
O88 U86 2.458 . S
O88 C89 1.286 . S
C89 U86 2.984 . S
C89 O87 1.353 . S
C89 O88 1.286 . S
C89 C91 1.363 . S
C90 C80 1.465 . S
C90 U86 2.847 . S
C90 O104 1.249 . S
C90 O105 1.202 . S
C91 C89 1.363 . S
C91 C93 1.408 . S
C91 C96 1.342 . S
C92 C93 1.310 . S
C92 C95 1.461 . S
C92 H112 0.932 . S
C93 C91 1.408 . S
C93 C92 1.310 . S
C93 H113 0.930 . S
C94 C95 1.474 . S
C94 C96 1.285 . S
C94 H114 0.929 . S
C95 C92 1.461 . S
C95 C94 1.474 . S
C96 C91 1.342 . S
C96 C94 1.285 . S
C96 H115 0.930 . S
C97 C100 1.424 . S
C97 C102 1.245 . S
C97 C103 1.428 . S
C98 C101 1.260 . S
C98 C102 1.477 . S
C98 H116 0.932 . S
C99 C100 1.384 . S
C99 C101 1.479 . S
C99 H117 0.929 . S
C100 C97 1.424 . S
C100 C99 1.384 . S
C100 H118 0.928 . S
C101 C98 1.260 . S
C101 C99 1.479 . S
C102 C97 1.245 . S
C102 C98 1.477 . S
C102 H119 0.932 . S
C103 U86 2.882 . S
C103 C97 1.428 . S
C103 O106 1.301 . S
C103 O107 1.282 . S
O104 U86 2.441 . S
O104 C90 1.249 . S
O105 U86 2.420 . S
O105 C90 1.202 . S
O106 U86 2.455 . S
O106 C103 1.301 . S
O107 U86 2.449 . S
O107 C103 1.282 . S
H108 C81 0.931 . S
H109 C83 0.929 . S
H110 C84 0.930 . S
H111 C85 0.931 . S
H112 C92 0.932 . S
H113 C93 0.930 . S
H114 C94 0.929 . S
H115 C96 0.930 . S
H116 C98 0.932 . S
H117 C99 0.929 . S
H118 C100 0.928 . S
H119 C102 0.932 . S
C120 C121 1.264 . S
C120 C125 1.479 . S
C120 C130 1.465 . S
C121 C120 1.264 . S
C121 C123 1.339 . S
C121 H148 0.931 . S
C122 C123 1.395 . S
C122 C124 1.320 . S
C123 C121 1.339 . S
C123 C122 1.395 . S
C123 H149 0.929 . S
C124 C122 1.320 . S
C124 C125 1.405 . S
C124 H150 0.930 . S
C125 C120 1.479 . S
C125 C124 1.405 . S
C125 H151 0.931 . S
U126 O127 2.454 . S
U126 O128 2.458 . S
U126 C129 2.984 . S
U126 C130 2.847 . S
U126 C143 2.882 . S
U126 O144 2.441 . S
U126 O145 2.420 . S
U126 O146 2.455 . S
U126 O147 2.449 . S
O127 U126 2.454 . S
O127 C129 1.353 . S
O128 U126 2.458 . S
O128 C129 1.286 . S
C129 U126 2.984 . S
C129 O127 1.353 . S
C129 O128 1.286 . S
C129 C131 1.363 . S
C130 C120 1.465 . S
C130 U126 2.847 . S
C130 O144 1.249 . S
C130 O145 1.202 . S
C131 C129 1.363 . S
C131 C133 1.408 . S
C131 C136 1.342 . S
C132 C133 1.310 . S
C132 C135 1.461 . S
C132 H152 0.932 . S
C133 C131 1.408 . S
C133 C132 1.310 . S
C133 H153 0.930 . S
C134 C135 1.474 . S
C134 C136 1.285 . S
C134 H154 0.929 . S
C135 C132 1.461 . S
C135 C134 1.474 . S
C136 C131 1.342 . S
C136 C134 1.285 . S
C136 H155 0.930 . S
C137 C140 1.424 . S
C137 C142 1.245 . S
C137 C143 1.428 . S
C138 C141 1.260 . S
C138 C142 1.477 . S
C138 H156 0.932 . S
C139 C140 1.384 . S
C139 C141 1.479 . S
C139 H157 0.929 . S
C140 C137 1.424 . S
C140 C139 1.384 . S
C140 H158 0.928 . S
C141 C138 1.260 . S
C141 C139 1.479 . S
C142 C137 1.245 . S
C142 C138 1.477 . S
C142 H159 0.932 . S
C143 U126 2.882 . S
C143 C137 1.428 . S
C143 O146 1.301 . S
C143 O147 1.282 . S
O144 U126 2.441 . S
O144 C130 1.249 . S
O145 U126 2.420 . S
O145 C130 1.202 . S
O146 U126 2.455 . S
O146 C143 1.301 . S
O147 U126 2.449 . S
O147 C143 1.282 . S
H148 C121 0.931 . S
H149 C123 0.929 . S
H150 C124 0.930 . S
H151 C125 0.931 . S
H152 C132 0.932 . S
H153 C133 0.930 . S
H154 C134 0.929 . S
H155 C136 0.930 . S
H156 C138 0.932 . S
H157 C139 0.929 . S
H158 C140 0.928 . S
H159 C142 0.932 . S
C160 C161 1.264 . S
C160 C165 1.479 . S
C160 C170 1.465 . S
C161 C160 1.264 . S
C161 C163 1.339 . S
C161 H188 0.931 . S
C162 C163 1.395 . S
C162 C164 1.320 . S
C163 C161 1.339 . S
C163 C162 1.395 . S
C163 H189 0.929 . S
C164 C162 1.320 . S
C164 C165 1.405 . S
C164 H190 0.930 . S
C165 C160 1.479 . S
C165 C164 1.405 . S
C165 H191 0.931 . S
U166 O167 2.454 . S
U166 O168 2.458 . S
U166 C169 2.984 . S
U166 C170 2.847 . S
U166 C183 2.882 . S
U166 O184 2.441 . S
U166 O185 2.420 . S
U166 O186 2.455 . S
U166 O187 2.449 . S
O167 U166 2.454 . S
O167 C169 1.353 . S
O168 U166 2.458 . S
O168 C169 1.286 . S
C169 U166 2.984 . S
C169 O167 1.353 . S
C169 O168 1.286 . S
C169 C171 1.363 . S
C170 C160 1.465 . S
C170 U166 2.847 . S
C170 O184 1.249 . S
C170 O185 1.202 . S
C171 C169 1.363 . S
C171 C173 1.408 . S
C171 C176 1.342 . S
C172 C173 1.310 . S
C172 C175 1.461 . S
C172 H192 0.932 . S
C173 C171 1.408 . S
C173 C172 1.310 . S
C173 H193 0.930 . S
C174 C175 1.474 . S
C174 C176 1.285 . S
C174 H194 0.929 . S
C175 C172 1.461 . S
C175 C174 1.474 . S
C176 C171 1.342 . S
C176 C174 1.285 . S
C176 H195 0.930 . S
C177 C180 1.424 . S
C177 C182 1.245 . S
C177 C183 1.428 . S
C178 C181 1.260 . S
C178 C182 1.477 . S
C178 H196 0.932 . S
C179 C180 1.384 . S
C179 C181 1.479 . S
C179 H197 0.929 . S
C180 C177 1.424 . S
C180 C179 1.384 . S
C180 H198 0.928 . S
C181 C178 1.260 . S
C181 C179 1.479 . S
C182 C177 1.245 . S
C182 C178 1.477 . S
C182 H199 0.932 . S
C183 U166 2.882 . S
C183 C177 1.428 . S
C183 O186 1.301 . S
C183 O187 1.282 . S
O184 U166 2.441 . S
O184 C170 1.249 . S
O185 U166 2.420 . S
O185 C170 1.202 . S
O186 U166 2.455 . S
O186 C183 1.301 . S
O187 U166 2.449 . S
O187 C183 1.282 . S
H188 C161 0.931 . S
H189 C163 0.929 . S
H190 C164 0.930 . S
H191 C165 0.931 . S
H192 C172 0.932 . S
H193 C173 0.930 . S
H194 C174 0.929 . S
H195 C176 0.930 . S
H196 C178 0.932 . S
H197 C179 0.929 . S
H198 C180 0.928 . S
H199 C182 0.932 . S
C200 C201 1.264 . S
C200 C205 1.479 . S
C200 C210 1.465 . S
C201 C200 1.264 . S
C201 C203 1.339 . S
C201 H228 0.931 . S
C202 C203 1.395 . S
C202 C204 1.320 . S
C203 C201 1.339 . S
C203 C202 1.395 . S
C203 H229 0.929 . S
C204 C202 1.320 . S
C204 C205 1.405 . S
C204 H230 0.930 . S
C205 C200 1.479 . S
C205 C204 1.405 . S
C205 H231 0.931 . S
U206 O207 2.454 . S
U206 O208 2.458 . S
U206 C209 2.984 . S
U206 C210 2.847 . S
U206 C223 2.882 . S
U206 O224 2.441 . S
U206 O225 2.420 . S
U206 O226 2.455 . S
U206 O227 2.449 . S
O207 U206 2.454 . S
O207 C209 1.353 . S
O208 U206 2.458 . S
O208 C209 1.286 . S
C209 U206 2.984 . S
C209 O207 1.353 . S
C209 O208 1.286 . S
C209 C211 1.363 . S
C210 C200 1.465 . S
C210 U206 2.847 . S
C210 O224 1.249 . S
C210 O225 1.202 . S
C211 C209 1.363 . S
C211 C213 1.408 . S
C211 C216 1.342 . S
C212 C213 1.310 . S
C212 C215 1.461 . S
C212 H232 0.932 . S
C213 C211 1.408 . S
C213 C212 1.310 . S
C213 H233 0.930 . S
C214 C215 1.474 . S
C214 C216 1.285 . S
C214 H234 0.929 . S
C215 C212 1.461 . S
C215 C214 1.474 . S
C216 C211 1.342 . S
C216 C214 1.285 . S
C216 H235 0.930 . S
C217 C220 1.424 . S
C217 C222 1.245 . S
C217 C223 1.428 . S
C218 C221 1.260 . S
C218 C222 1.477 . S
C218 H236 0.932 . S
C219 C220 1.384 . S
C219 C221 1.479 . S
C219 H237 0.929 . S
C220 C217 1.424 . S
C220 C219 1.384 . S
C220 H238 0.928 . S
C221 C218 1.260 . S
C221 C219 1.479 . S
C222 C217 1.245 . S
C222 C218 1.477 . S
C222 H239 0.932 . S
C223 U206 2.882 . S
C223 C217 1.428 . S
C223 O226 1.301 . S
C223 O227 1.282 . S
O224 U206 2.441 . S
O224 C210 1.249 . S
O225 U206 2.420 . S
O225 C210 1.202 . S
O226 U206 2.455 . S
O226 C223 1.301 . S
O227 U206 2.449 . S
O227 C223 1.282 . S
H228 C201 0.931 . S
H229 C203 0.929 . S
H230 C204 0.930 . S
H231 C205 0.931 . S
H232 C212 0.932 . S
H233 C213 0.930 . S
H234 C214 0.929 . S
H235 C216 0.930 . S
H236 C218 0.932 . S
H237 C219 0.929 . S
H238 C220 0.928 . S
H239 C222 0.932 . S
H240 C248 0.929 . S
H241 C250 0.930 . S
H242 C252 0.930 . S
H243 C255 0.929 . S
H244 C258 0.930 . S
H245 C260 0.960 . S
H246 C260 0.960 . S
H247 C260 0.960 1_556 S
C248 H240 0.929 . S
C248 C249 1.377 . S
C248 C250 1.384 . S
C249 C248 1.377 . S
C249 C255 1.390 . S
C250 H241 0.930 . S
C250 C248 1.384 . S
C250 C251 1.372 . S
C251 C250 1.372 . S
C251 C252 1.400 . S
C251 C256 1.490 . S
C252 H242 0.930 . S
C252 C251 1.400 . S
C252 C255 1.386 . S
H253 C269 0.930 . S
H254 C270 0.931 . S
C255 H243 0.929 . S
C255 C249 1.390 . S
C255 C252 1.386 . S
C256 C251 1.490 . S
C256 C258 1.395 . S
C256 C259 1.350 1_556 S
H257 C263 0.930 . S
C258 H244 0.930 . S
C258 C256 1.395 . S
C258 C261 1.403 . S
C259 C256 1.350 1_554 S
C259 C260 1.536 . S
C259 C263 1.444 . S
C260 H245 0.960 . S
C260 H246 0.960 . S
C260 H247 0.960 1_554 S
C260 C259 1.536 . S
C261 C258 1.403 . S
C261 C262 1.392 1_556 S
C261 C265 1.495 . S
C262 C261 1.392 1_554 S
C262 C263 1.385 . S
C262 C264 1.478 . S
C263 H257 0.930 . S
C263 C259 1.444 . S
C263 C262 1.385 . S
C264 C262 1.478 . S
C264 C266 1.381 . S
C264 C270 1.383 . S
C265 C261 1.495 . S
C265 H271 0.959 . S
C265 H272 0.961 . S
C265 H273 0.981 . S
C266 C264 1.381 . S
C266 C267 1.394 . S
C266 H274 0.930 . S
C267 C266 1.394 . S
C267 C268 1.383 . S
C267 H275 0.929 . S
C268 C267 1.383 . S
C268 C269 1.377 . S
C269 H253 0.930 . S
C269 C268 1.377 . S
C269 C270 1.379 . S
C270 H254 0.931 . S
C270 C264 1.383 . S
C270 C269 1.379 . S
H271 C265 0.959 . S
H272 C265 0.961 . S
H273 C265 0.981 . S
H274 C266 0.930 . S
H275 C267 0.929 . S
H276 C284 0.929 . S
H277 C286 0.930 . S
H278 C288 0.930 . S
H279 C291 0.929 . S
H280 C294 0.930 . S
H281 C296 0.960 . S
H282 C296 0.960 . S
H283 C296 0.960 . S
C284 H276 0.929 . S
C284 C285 1.377 . S
C284 C286 1.384 . S
C285 C284 1.377 . S
C285 C291 1.390 . S
C286 H277 0.930 . S
C286 C284 1.384 . S
C286 C287 1.372 . S
C287 C286 1.372 . S
C287 C288 1.400 . S
C287 C292 1.490 . S
C288 H278 0.930 . S
C288 C287 1.400 . S
C288 C291 1.386 . S
H289 C305 0.930 . S
H290 C306 0.931 . S
C291 H279 0.929 . S
C291 C285 1.390 . S
C291 C288 1.386 . S
C292 C287 1.490 . S
C292 C294 1.395 . S
C292 C295 1.403 . S
H293 C299 0.930 . S
C294 H280 0.930 . S
C294 C292 1.395 . S
C294 C297 1.403 . S
C295 C292 1.403 . S
C295 C296 1.524 . S
C295 C299 1.400 . S
C296 H281 0.960 . S
C296 H282 0.960 . S
C296 H283 0.960 . S
C296 C295 1.524 . S
C297 C294 1.403 . S
C297 C298 1.392 . S
C297 C301 1.495 . S
C298 C297 1.392 . S
C298 C299 1.385 . S
C298 C300 1.478 . S
C299 H293 0.930 . S
C299 C295 1.400 . S
C299 C298 1.385 . S
C300 C298 1.478 . S
C300 C302 1.381 . S
C300 C306 1.383 . S
C301 C297 1.495 . S
C301 H307 0.959 . S
C301 H308 0.961 . S
C301 H309 0.960 . S
C302 C300 1.381 . S
C302 C303 1.394 . S
C302 H310 0.930 . S
C303 C302 1.394 . S
C303 C304 1.383 . S
C303 H311 0.929 . S
C304 C303 1.383 . S
C304 C305 1.377 . S
C305 H289 0.930 . S
C305 C304 1.377 . S
C305 C306 1.379 . S
C306 H290 0.931 . S
C306 C300 1.383 . S
C306 C305 1.379 . S
H307 C301 0.959 . S
H308 C301 0.961 . S
H309 C301 0.960 . S
H310 C302 0.930 . S
H311 C303 0.929 . S
H312 C320 0.929 . S
H313 C322 0.930 . S
H314 C324 0.930 . S
H315 C327 0.929 . S
H316 C330 0.930 . S
H317 C332 0.960 . S
H318 C332 0.960 . S
H319 C332 0.960 . S
C320 H312 0.929 . S
C320 C321 1.377 . S
C320 C322 1.384 . S
C321 C320 1.377 . S
C321 C327 1.390 . S
C322 H313 0.930 . S
C322 C320 1.384 . S
C322 C323 1.372 . S
C323 C322 1.372 . S
C323 C324 1.400 . S
C323 C328 1.490 . S
C324 H314 0.930 . S
C324 C323 1.400 . S
C324 C327 1.386 . S
H325 C341 0.930 . S
H326 C342 0.931 . S
C327 H315 0.929 . S
C327 C321 1.390 . S
C327 C324 1.386 . S
C328 C323 1.490 . S
C328 C330 1.395 . S
C328 C331 1.403 . S
H329 C335 0.930 . S
C330 H316 0.930 . S
C330 C328 1.395 . S
C330 C333 1.403 . S
C331 C328 1.403 . S
C331 C332 1.524 . S
C331 C335 1.400 . S
C332 H317 0.960 . S
C332 H318 0.960 . S
C332 H319 0.960 . S
C332 C331 1.524 . S
C333 C330 1.403 . S
C333 C334 1.392 . S
C333 C337 1.495 . S
C334 C333 1.392 . S
C334 C335 1.385 . S
C334 C336 1.478 . S
C335 H329 0.930 . S
C335 C331 1.400 . S
C335 C334 1.385 . S
C336 C334 1.478 . S
C336 C338 1.381 . S
C336 C342 1.383 . S
C337 C333 1.495 . S
C337 H343 0.959 . S
C337 H344 0.961 . S
C337 H345 0.960 . S
C338 C336 1.381 . S
C338 C339 1.394 . S
C338 H346 0.930 . S
C339 C338 1.394 . S
C339 C340 1.383 . S
C339 H347 0.929 . S
C340 C339 1.383 . S
C340 C341 1.377 . S
C341 H325 0.930 . S
C341 C340 1.377 . S
C341 C342 1.379 . S
C342 H326 0.931 . S
C342 C336 1.383 . S
C342 C341 1.379 . S
H343 C337 0.959 . S
H344 C337 0.961 . S
H345 C337 0.960 . S
H346 C338 0.930 . S
H347 C339 0.929 . S
H348 C356 0.929 . S
H349 C358 0.930 . S
H350 C360 0.930 . S
H351 C363 0.929 . S
H352 C366 0.930 . S
H353 C368 0.990 . S
H354 C368 0.960 . S
H355 C368 0.960 . S
C356 H348 0.929 . S
C356 C357 1.377 . S
C356 C358 1.384 . S
C357 C356 1.377 . S
C357 C363 1.390 . S
C358 H349 0.930 . S
C358 C356 1.384 . S
C358 C359 1.372 . S
C359 C358 1.372 . S
C359 C360 1.400 . S
C359 C364 1.490 . S
C360 H350 0.930 . S
C360 C359 1.400 . S
C360 C363 1.386 . S
H361 C377 0.930 . S
H362 C378 0.931 . S
C363 H351 0.929 . S
C363 C357 1.390 . S
C363 C360 1.386 . S
C364 C359 1.490 . S
C364 C366 1.395 . S
C364 C367 1.403 . S
H365 C371 0.930 . S
C366 H352 0.930 . S
C366 C364 1.395 . S
C366 C369 1.403 1_554 S
C367 C364 1.403 . S
C367 C368 1.524 . S
C367 C371 1.400 1_554 S
C368 H353 0.990 . S
C368 H354 0.960 . S
C368 H355 0.960 . S
C368 C367 1.524 . S
C369 C366 1.403 1_556 S
C369 C370 1.392 . S
C369 C373 1.495 . S
C370 C369 1.392 . S
C370 C371 1.385 . S
C370 C372 1.478 . S
C371 H365 0.930 . S
C371 C367 1.400 1_556 S
C371 C370 1.385 . S
C372 C370 1.478 . S
C372 C374 1.381 . S
C372 C378 1.383 . S
C373 C369 1.495 . S
C373 H379 0.956 . S
C373 H380 0.961 . S
C373 H381 0.960 . S
C374 C372 1.381 . S
C374 C375 1.394 . S
C374 H382 0.930 . S
C375 C374 1.394 . S
C375 C376 1.383 . S
C375 H383 0.929 . S
C376 C375 1.383 . S
C376 C377 1.377 . S
C377 H361 0.930 . S
C377 C376 1.377 . S
C377 C378 1.379 . S
C378 H362 0.931 . S
C378 C372 1.383 . S
C378 C377 1.379 . S
H379 C373 0.956 . S
H380 C373 0.961 . S
H381 C373 0.960 . S
H382 C374 0.930 . S
H383 C375 0.929 . S
H384 C392 0.929 . S
H385 C394 0.930 . S
H386 C396 0.930 . S
H387 C399 0.929 . S
H388 C402 0.930 . S
H389 C404 0.960 . S
H390 C404 0.960 . S
H391 C404 0.960 . S
C392 H384 0.929 . S
C392 C393 1.377 . S
C392 C394 1.384 . S
C393 C392 1.377 . S
C393 C399 1.390 . S
C394 H385 0.930 . S
C394 C392 1.384 . S
C394 C395 1.372 . S
C395 C394 1.372 . S
C395 C396 1.400 . S
C395 C400 1.490 . S
C396 H386 0.930 . S
C396 C395 1.400 . S
C396 C399 1.386 . S
H397 C413 0.930 . S
H398 C414 0.931 . S
C399 H387 0.929 . S
C399 C393 1.390 . S
C399 C396 1.386 . S
C400 C395 1.490 . S
C400 C402 1.395 . S
C400 C403 1.403 . S
H401 C407 0.930 . S
C402 H388 0.930 . S
C402 C400 1.395 . S
C402 C405 1.403 . S
C403 C400 1.403 . S
C403 C404 1.524 . S
C403 C407 1.400 . S
C404 H389 0.960 . S
C404 H390 0.960 . S
C404 H391 0.960 . S
C404 C403 1.524 . S
C405 C402 1.403 . S
C405 C406 1.392 . S
C405 C409 1.495 . S
C406 C405 1.392 . S
C406 C407 1.385 . S
C406 C408 1.478 . S
C407 H401 0.930 . S
C407 C403 1.400 . S
C407 C406 1.385 . S
C408 C406 1.478 . S
C408 C410 1.381 . S
C408 C414 1.383 . S
C409 C405 1.495 . S
C409 H415 0.959 . S
C409 H416 0.961 . S
C409 H417 0.960 . S
C410 C408 1.381 . S
C410 C411 1.394 . S
C410 H418 0.930 . S
C411 C410 1.394 . S
C411 C412 1.383 . S
C411 H419 0.929 . S
C412 C411 1.383 . S
C412 C413 1.377 . S
C413 H397 0.930 . S
C413 C412 1.377 . S
C413 C414 1.379 . S
C414 H398 0.931 . S
C414 C408 1.383 . S
C414 C413 1.379 . S
H415 C409 0.959 . S
H416 C409 0.961 . S
H417 C409 0.960 . S
H418 C410 0.930 . S
H419 C411 0.929 . S
H420 C428 0.929 . S
H421 C430 0.930 . S
H422 C432 0.930 . S
H423 C435 0.929 . S
H424 C438 0.930 . S
H425 C440 0.960 . S
H426 C440 0.960 . S
H427 C440 0.960 . S
C428 H420 0.929 . S
C428 C429 1.377 . S
C428 C430 1.384 . S
C429 C428 1.377 . S
C429 C435 1.390 . S
C430 H421 0.930 . S
C430 C428 1.384 . S
C430 C431 1.372 . S
C431 C430 1.372 . S
C431 C432 1.400 . S
C431 C436 1.490 . S
C432 H422 0.930 . S
C432 C431 1.400 . S
C432 C435 1.386 . S
H433 C449 0.930 . S
H434 C450 0.931 . S
C435 H423 0.929 . S
C435 C429 1.390 . S
C435 C432 1.386 . S
C436 C431 1.490 . S
C436 C438 1.395 . S
C436 C439 1.403 . S
H437 C443 0.930 . S
C438 H424 0.930 . S
C438 C436 1.395 . S
C438 C441 1.403 . S
C439 C436 1.403 . S
C439 C440 1.524 . S
C439 C443 1.400 . S
C440 H425 0.960 . S
C440 H426 0.960 . S
C440 H427 0.960 . S
C440 C439 1.524 . S
C441 C438 1.403 . S
C441 C442 1.392 . S
C441 C445 1.495 . S
C442 C441 1.392 . S
C442 C443 1.385 . S
C442 C444 1.478 . S
C443 H437 0.930 . S
C443 C439 1.400 . S
C443 C442 1.385 . S
C444 C442 1.478 . S
C444 C446 1.381 . S
C444 C450 1.383 . S
C445 C441 1.495 . S
C445 H451 0.959 . S
C445 H452 0.961 . S
C445 H453 0.960 . S
C446 C444 1.381 . S
C446 C447 1.394 . S
C446 H454 0.930 . S
C447 C446 1.394 . S
C447 C448 1.383 . S
C447 H455 0.929 . S
C448 C447 1.383 . S
C448 C449 1.377 . S
C449 H433 0.930 . S
C449 C448 1.377 . S
C449 C450 1.379 . S
C450 H434 0.931 . S
C450 C444 1.383 . S
C450 C449 1.379 . S
H451 C445 0.959 . S
H452 C445 0.961 . S
H453 C445 0.960 . S
H454 C446 0.930 . S
H455 C447 0.929 . S
H456 C464 0.929 . S
H457 C466 0.930 . S
H458 C468 0.930 . S
H459 C471 0.929 . S
H460 C474 0.930 . S
H461 C476 0.960 . S
H462 C476 0.960 . S
H463 C476 0.960 . S
C464 H456 0.929 . S
C464 C465 1.377 . S
C464 C466 1.384 . S
C465 C464 1.377 . S
C465 C471 1.390 . S
C466 H457 0.930 . S
C466 C464 1.384 . S
C466 C467 1.372 . S
C467 C466 1.372 . S
C467 C468 1.400 . S
C467 C472 1.490 . S
C468 H458 0.930 . S
C468 C467 1.400 . S
C468 C471 1.386 . S
H469 C485 0.930 . S
H470 C486 0.931 . S
C471 H459 0.929 . S
C471 C465 1.390 . S
C471 C468 1.386 . S
C472 C467 1.490 . S
C472 C474 1.395 . S
C472 C475 1.403 . S
H473 C479 0.930 . S
C474 H460 0.930 . S
C474 C472 1.395 . S
C474 C477 1.403 1_455 S
C475 C472 1.403 . S
C475 C476 1.524 . S
C475 C479 1.400 1_455 S
C476 H461 0.960 . S
C476 H462 0.960 . S
C476 H463 0.960 . S
C476 C475 1.524 . S
C477 C474 1.403 1_655 S
C477 C478 1.392 . S
C477 C481 1.495 . S
C478 C477 1.392 . S
C478 C479 1.385 . S
C478 C480 1.478 . S
C479 H473 0.930 . S
C479 C475 1.400 1_655 S
C479 C478 1.385 . S
C480 C478 1.478 . S
C480 C482 1.381 . S
C480 C486 1.383 . S
C481 C477 1.495 . S
C481 H487 0.959 . S
C481 H488 0.961 . S
C481 H489 0.960 . S
C482 C480 1.381 . S
C482 C483 1.394 . S
C482 H490 0.930 . S
C483 C482 1.394 . S
C483 C484 1.383 . S
C483 H491 0.929 . S
C484 C483 1.383 . S
C484 C485 1.377 . S
C485 H469 0.930 . S
C485 C484 1.377 . S
C485 C486 1.379 . S
C486 H470 0.931 . S
C486 C480 1.383 . S
C486 C485 1.379 . S
H487 C481 0.959 . S
H488 C481 0.961 . S
H489 C481 0.960 . S
H490 C482 0.930 . S
H491 C483 0.929 . S
H492 C500 0.929 . S
H493 C502 0.930 . S
H494 C504 0.930 . S
H495 C507 0.929 . S
H496 C510 0.930 . S
H497 C512 0.960 . S
H498 C512 0.960 . S
H499 C512 0.960 . S
C500 H492 0.929 . S
C500 C501 1.377 . S
C500 C502 1.384 . S
C501 C500 1.377 . S
C501 C507 1.390 . S
C502 H493 0.930 . S
C502 C500 1.384 . S
C502 C503 1.372 . S
C503 C502 1.372 . S
C503 C504 1.400 . S
C503 C508 1.490 . S
C504 H494 0.930 . S
C504 C503 1.400 . S
C504 C507 1.386 . S
H505 C521 0.930 . S
H506 C522 0.931 . S
C507 H495 0.929 . S
C507 C501 1.390 . S
C507 C504 1.386 . S
C508 C503 1.490 . S
C508 C510 1.395 . S
C508 C511 1.403 . S
H509 C515 0.930 . S
C510 H496 0.930 . S
C510 C508 1.395 . S
C510 C513 1.403 1_545 S
C511 C508 1.403 . S
C511 C512 1.524 . S
C511 C515 1.400 1_545 S
C512 H497 0.960 . S
C512 H498 0.960 . S
C512 H499 0.960 . S
C512 C511 1.524 . S
C513 C510 1.403 1_565 S
C513 C514 1.392 . S
C513 C517 1.495 . S
C514 C513 1.392 . S
C514 C515 1.385 . S
C514 C516 1.478 . S
C515 H509 0.930 . S
C515 C511 1.400 1_565 S
C515 C514 1.385 . S
C516 C514 1.478 . S
C516 C518 1.381 . S
C516 C522 1.383 . S
C517 C513 1.495 . S
C517 H523 0.959 . S
C517 H524 0.961 . S
C517 H525 0.960 . S
C518 C516 1.381 . S
C518 C519 1.394 . S
C518 H526 0.930 . S
C519 C518 1.394 . S
C519 C520 1.383 . S
C519 H527 0.929 . S
C520 C519 1.383 . S
C520 C521 1.377 . S
C521 H505 0.930 . S
C521 C520 1.377 . S
C521 C522 1.379 . S
C522 H506 0.931 . S
C522 C516 1.383 . S
C522 C521 1.379 . S
H523 C517 0.959 . S
H524 C517 0.961 . S
H525 C517 0.960 . S
H526 C518 0.930 . S
H527 C519 0.929 . S
H528 C536 0.929 . S
H529 C538 0.930 . S
H530 C540 0.930 . S
H531 C543 0.929 . S
H532 C546 0.930 . S
H533 C548 0.960 . S
H534 C548 0.960 . S
H535 C548 0.960 . S
C536 H528 0.929 . S
C536 C537 1.377 . S
C536 C538 1.384 . S
C537 C536 1.377 . S
C537 C543 1.390 . S
C538 H529 0.930 . S
C538 C536 1.384 . S
C538 C539 1.372 . S
C539 C538 1.372 . S
C539 C540 1.400 . S
C539 C544 1.490 . S
C540 H530 0.930 . S
C540 C539 1.400 . S
C540 C543 1.386 . S
H541 C557 0.930 . S
H542 C558 0.931 . S
C543 H531 0.929 . S
C543 C537 1.390 . S
C543 C540 1.386 . S
C544 C539 1.490 . S
C544 C546 1.395 . S
C544 C547 1.403 . S
H545 C551 0.930 . S
C546 H532 0.930 . S
C546 C544 1.395 . S
C546 C549 1.403 . S
C547 C544 1.403 . S
C547 C548 1.524 . S
C547 C551 1.400 . S
C548 H533 0.960 . S
C548 H534 0.960 . S
C548 H535 0.960 . S
C548 C547 1.524 . S
C549 C546 1.403 . S
C549 C550 1.392 . S
C549 C553 1.495 . S
C550 C549 1.392 . S
C550 C551 1.385 . S
C550 C552 1.478 . S
C551 H545 0.930 . S
C551 C547 1.400 . S
C551 C550 1.385 . S
C552 C550 1.478 . S
C552 C554 1.381 . S
C552 C558 1.383 . S
C553 C549 1.495 . S
C553 H559 0.959 . S
C553 H560 0.961 . S
C553 H561 0.960 . S
C554 C552 1.381 . S
C554 C555 1.394 . S
C554 H562 0.930 . S
C555 C554 1.394 . S
C555 C556 1.383 . S
C555 H563 0.929 . S
C556 C555 1.383 . S
C556 C557 1.377 . S
C557 H541 0.930 . S
C557 C556 1.377 . S
C557 C558 1.379 . S
C558 H542 0.931 . S
C558 C552 1.383 . S
C558 C557 1.379 . S
H559 C553 0.959 . S
H560 C553 0.961 . S
H561 C553 0.960 . S
H562 C554 0.930 . S
H563 C555 0.929 . S
C249 C101 1.492 . S
C268 C2 1.471 . S
C285 C61 1.491 . S
C304 C141 1.493 . S
C321 C82 1.486 . S
C340 C181 1.483 . S
C357 C122 1.486 . S
C376 C221 1.498 . S
C393 C162 1.486 . S
C412 C21 1.498 . S
C429 C202 1.489 . S
C448 C42 1.497 . S
C465 C15 1.503 . S
C484 C135 1.503 . S
C501 C55 1.500 . S
C520 C175 1.496 . S
C537 C95 1.503 . S
C556 C215 1.500 . S
