# Generated by pormake.
# Topology qtz-x, (6)-cn, num edge types: 1
# Building blocks:
#     Node 0, Type 0, BuildingBlock: KUMBUR_clean_sbu_1, # of connection points: 6
#     Node 1, Type 0, BuildingBlock: KUMBUR_clean_sbu_1, # of connection points: 6
#     Node 2, Type 0, BuildingBlock: KUMBUR_clean_sbu_1, # of connection points: 6
#     Edge 3, Type (0, 0), BuildingBlock: EZIPEK_clean_linker_0, # of connection points: 2
#     Edge 4, Type (0, 0), BuildingBlock: EZIPEK_clean_linker_0, # of connection points: 2
#     Edge 5, Type (0, 0), BuildingBlock: EZIPEK_clean_linker_0, # of connection points: 2
#     Edge 6, Type (0, 0), BuildingBlock: EZIPEK_clean_linker_0, # of connection points: 2
#     Edge 7, Type (0, 0), BuildingBlock: EZIPEK_clean_linker_0, # of connection points: 2
#     Edge 8, Type (0, 0), BuildingBlock: EZIPEK_clean_linker_0, # of connection points: 2
#     Edge 9, Type (0, 0), BuildingBlock: EZIPEK_clean_linker_0, # of connection points: 2
#     Edge 10, Type (0, 0), BuildingBlock: EZIPEK_clean_linker_0, # of connection points: 2
#     Edge 11, Type (0, 0), BuildingBlock: EZIPEK_clean_linker_0, # of connection points: 2
# Relax obj value: 0.204
# Max RMSD: 0.285
# Mean RMSD: 0.285
data_MOF--net-qtz-x--node1-KUMBUR_clean_sbu_1--edge1-EZIPEK_clean_linker_0
_symmetry_space_group_name_H-M    P1
_symmetry_Int_Tables_number       1
_symmetry_cell_setting            triclinic
loop_
_symmetry_equiv_pos_as_xyz
'x, y, z'
_cell_length_a     11.492033
_cell_length_b     11.568
_cell_length_c     41.797868
_cell_angle_alpha  89.318623
_cell_angle_beta   90.681741
_cell_angle_gamma 120.41498
loop_
_atom_site_label
_atom_site_type_symbol
_atom_site_fract_x
_atom_site_fract_y
_atom_site_fract_z
_atom_type_partial_charge
Tb0 Tb 0.84162 0.32126 0.14277 0.0
C1 C 0.46005 0.53788 0.19056 0.0
N2 N 0.34499 0.44887 0.20532 0.0
C3 C 0.45772 0.3508 0.23287 0.0
C4 C 0.57521 0.52793 0.194 0.0
C5 C 0.34072 0.35466 0.22593 0.0
C6 C 0.57538 0.43664 0.21631 0.0
C7 C 0.57775 0.7259 0.15409 0.0
C8 C 0.46248 0.63933 0.17189 0.0
C9 C 0.68575 0.70346 0.15395 0.0
C10 C 0.68319 0.60441 0.17391 0.0
Tb11 Tb 0.17267 0.48262 0.1968 0.0
N12 N 0.3524 0.65322 0.17136 0.0
C13 C 0.58 0.8305 0.13668 0.0
C14 C 0.35879 0.76306 0.15711 0.0
C15 C 0.47157 0.85164 0.1391 0.0
H16 H 0.24654 0.28052 0.23623 0.0
H17 H 0.47384 0.93568 0.127 0.0
H18 H 0.7926 0.52435 0.09535 0.0
H19 H 0.52095 0.9094 0.22045 0.0
H20 H 0.27754 0.7832 0.15832 0.0
H21 H 0.66676 0.89829 0.12246 0.0
H22 H 0.72183 0.0421 0.18641 0.0
H23 H 0.45533 0.27736 0.24955 0.0
H24 H 0.76943 0.76037 0.13811 0.0
H25 H 0.7608 0.58124 0.17284 0.0
H26 H 0.59838 0.55161 0.08089 0.0
H27 H 0.66447 0.43024 0.22068 0.0
H28 H 0.3327 0.95548 0.2179 0.0
N29 N 0.68387 0.37402 0.13065 0.0
C30 C 0.56457 0.29445 0.14509 0.0
C31 C 0.58824 0.48014 0.09919 0.0
C32 C 0.45441 0.31043 0.13846 0.0
C33 C 0.69786 0.46527 0.10764 0.0
C34 C 0.46615 0.40346 0.11506 0.0
N35 N 0.65756 0.1752 0.17022 0.0
C36 C 0.64464 0.06859 0.18735 0.0
C37 C 0.43232 0.11595 0.18306 0.0
C38 C 0.55203 0.19477 0.16625 0.0
C39 C 0.42332 0.01685 0.20416 0.0
C40 C 0.52963 -0.0086 0.2059 0.0
H41 H 0.38203 0.41676 0.10913 0.0
H42 H 0.26074 0.26036 0.15368 0.0
H43 H 0.24154 0.09174 0.19415 0.0
O44 O 0.71331 0.15518 0.11389 0.0
O45 O 0.8051 0.35815 0.19307 0.0
O46 O 0.9713 0.32872 0.20801 0.0
O47 O 0.85852 0.34289 0.09292 0.0
O48 O 0.91951 0.17929 0.15263 0.0
O49 O 0.10524 0.26657 0.18777 0.0
O50 O 0.29967 0.62131 0.2328 0.0
O51 O 0.20776 0.44646 0.14617 0.0
O52 O 0.03998 0.47096 0.12821 0.0
O53 O 0.12364 0.43664 0.24478 0.0
O54 O 0.09421 0.62394 0.18663 0.0
O55 O 0.91789 0.53996 0.14901 0.0
C56 C 0.87997 0.35575 0.21658 0.0
C57 C 0.65446 0.22124 0.06482 0.0
C58 C 0.61321 0.29755 0.0138 0.0
C59 C 0.47508 0.23388 0.02051 0.0
C60 C 0.51534 0.15496 0.07123 0.0
C61 C 0.42648 0.16265 0.04924 0.0
C62 C 0.70199 0.29247 0.03615 0.0
C63 C 0.01164 0.16686 0.16978 0.0
C64 C 0.75493 0.22489 0.08764 0.0
C65 C 0.33816 0.23681 0.15628 0.0
C66 C 0.3272 0.14105 0.17879 0.0
C67 C 0.13285 0.44338 0.12173 0.0
C68 C 0.29006 0.52371 0.28495 0.0
C69 C 0.40262 0.60858 0.33632 0.0
C70 C 0.37281 0.47938 0.34508 0.0
C71 C 0.25365 0.39333 0.29545 0.0
C72 C 0.36615 0.63199 0.30565 0.0
C73 C 0.29999 0.37248 0.32457 0.0
C74 C 0.00685 0.6381 0.16794 0.0
C75 C 0.22652 0.54332 0.25595 0.0
H76 H 0.40532 0.23712 1.00337 0.0
H77 H 0.47548 0.09982 0.0933 0.0
H78 H 0.31974 0.11273 0.05441 0.0
H79 H 0.80901 0.34282 0.03082 0.0
H80 H 0.39908 0.46018 0.36857 0.0
H81 H 0.18265 0.30562 0.28226 0.0
H82 H 0.38676 0.73161 0.29916 0.0
H83 H 0.27159 0.27185 0.33219 0.0
Tb84 Tb 0.73595 0.18869 0.48848 0.0
C85 C 0.51796 0.61285 0.47302 0.0
N86 N 0.44761 0.65356 0.49091 0.0
C87 C 0.24533 0.50434 0.46248 0.0
C88 C 0.45606 0.52067 0.44801 0.0
C89 C 0.31136 0.59689 0.48686 0.0
C90 C 0.31791 0.46709 0.44265 0.0
C91 C 0.72502 0.61153 0.46515 0.0
C92 C 0.65041 0.65861 0.48129 0.0
C93 C 0.66936 0.53218 0.43783 0.0
C94 C 0.53373 0.48339 0.42983 0.0
Tb95 Tb 0.57243 0.82615 0.52539 0.0
N96 N 0.69925 0.73463 0.50788 0.0
C97 C 0.84754 0.63615 0.47854 0.0
C98 C 0.80411 0.73485 0.52413 0.0
C99 C 0.88389 0.69229 0.50899 0.0
H100 H 0.25604 0.63004 0.50117 0.0
H101 H 0.97309 0.70289 0.5208 0.0
H102 H 0.05343 0.33208 0.51341 0.0
H103 H 0.36232 0.339 0.50819 0.0
H104 H 0.83271 0.77718 0.54784 0.0
H105 H 0.90913 0.60317 0.46685 0.0
H106 H 0.48285 0.25977 0.47495 0.0
H107 H 0.13963 0.46624 0.45853 0.0
H108 H 0.72735 0.50154 0.42387 0.0
H109 H 0.48894 0.41207 0.41059 0.0
H110 H 0.18183 0.4623 0.56079 0.0
H111 H 0.26664 0.39617 0.42359 0.0
H112 H 0.45559 0.43949 0.56091 0.0
N113 N 0.88059 0.3458 0.52416 0.0
C114 C 0.82618 0.40056 0.54319 0.0
C115 C 0.08316 0.44824 0.55565 0.0
C116 C 0.89602 0.47662 0.57013 0.0
C117 C 0.0105 0.37478 0.52887 0.0
C118 C 0.02439 0.49698 0.57662 0.0
N119 N 0.63264 0.2966 0.51061 0.0
C120 C 0.52304 0.29987 0.49833 0.0
C121 C 0.63588 0.42694 0.55558 0.0
C122 C 0.69675 0.37268 0.53653 0.0
C123 C 0.50959 0.40626 0.54625 0.0
C124 C 0.45557 0.34747 0.51677 0.0
H125 H 0.07664 0.54723 0.59817 0.0
H126 H 0.88527 0.58282 0.61136 0.0
H127 H 0.65774 0.54131 0.5982 0.0
O128 O 0.89054 0.35598 0.46472 0.0
O129 O 0.77306 0.1488 0.53829 0.0
O130 O 0.57204 0.98052 0.55469 0.0
O131 O 0.69134 0.25081 0.44478 0.0
O132 O 0.50992 0.07416 0.4868 0.0
O133 O 0.42039 0.89783 0.52327 0.0
O134 O 0.42199 0.65576 0.5493 0.0
O135 O 0.51427 0.84469 0.47647 0.0
O136 O 0.70718 0.02115 0.45923 0.0
O137 O 0.6146 0.77747 0.57112 0.0
O138 O 0.80204 0.95475 0.52471 0.0
O139 O 0.87694 0.1086 0.48325 0.0
C140 C 0.6824 0.09245 0.56076 0.0
C141 C 0.87006 0.32511 0.4086 0.0
C142 C 0.85639 0.31271 0.35041 0.0
C143 C 0.96435 0.28828 0.35035 0.0
C144 C 0.97567 0.29721 0.40786 0.0
C145 C 0.02323 0.2803 0.37889 0.0
C146 C 0.80904 0.33097 0.37967 0.0
C147 C 0.40805 0.98766 0.50498 0.0
C148 C 0.81698 0.33823 0.43943 0.0
C149 C 0.83363 0.52539 0.59026 0.0
C150 C 0.70373 0.50088 0.58293 0.0
C151 C 0.59039 0.91629 0.45272 0.0
C152 C 0.42894 0.68161 0.60527 0.0
C153 C 0.41119 0.65247 0.66307 0.0
C154 C 0.31321 0.69104 0.66311 0.0
C155 C 0.33646 0.72683 0.60588 0.0
C156 C 0.46733 0.646 0.634 0.0
C157 C 0.27788 0.73015 0.63467 0.0
C158 C 0.89577 0.0281 0.50295 0.0
C159 C 0.49268 0.67934 0.57527 0.0
H160 H 0.00147 0.27313 0.32804 0.0
H161 H 0.01699 0.28116 0.42967 0.0
H162 H 0.10344 0.25724 0.37863 0.0
H163 H 0.72451 0.34788 0.37991 0.0
H164 H 0.26924 0.69702 0.68537 0.0
H165 H 0.30783 0.75736 0.58403 0.0
H166 H 0.54422 0.61807 0.63396 0.0
H167 H 0.20532 0.76357 0.63492 0.0
Tb168 Tb 0.82009 0.5081 0.81397 0.0
C169 C 0.60339 0.90022 0.86036 0.0
N170 N 0.69031 0.86814 0.87393 0.0
C171 C 0.8102 0.0821 0.89886 0.0
C172 C 0.61868 0.02624 0.86483 0.0
C173 C 0.7952 0.9582 0.89257 0.0
C174 C 0.72096 0.11648 0.88496 0.0
C175 C 0.41398 0.84009 0.82489 0.0
C176 C 0.49931 0.80646 0.84185 0.0
C177 C 0.43562 0.96958 0.82731 0.0
C178 C 0.53586 0.06081 0.848 0.0
Tb179 Tb 0.64666 0.65795 0.86527 0.0
N180 N 0.48658 0.68455 0.83904 0.0
C181 C 0.31445 0.74471 0.80486 0.0
C182 C 0.38291 0.5872 0.82146 0.0
C183 C 0.2995 0.61773 0.80314 0.0
H184 H 0.8649 0.93264 0.90356 0.0
H185 H 0.22564 0.54441 0.78739 0.0
H186 H 0.66376 0.2323 0.77464 0.0
H187 H 0.26899 0.73061 0.8871 0.0
H188 H 0.36781 0.48793 0.82047 0.0
H189 H 0.24961 0.76829 0.79065 0.0
H190 H 0.09643 0.73129 0.85468 0.0
H191 H 0.89463 0.1513 0.91322 0.0
H192 H 0.37717 -0.00034 0.81289 0.0
H193 H 0.55481 0.16024 0.85027 0.0
H194 H 0.71818 0.06069 0.7619 0.0
H195 H 0.73453 0.21438 0.88828 0.0
H196 H 0.27726 0.51893 0.89254 0.0
N197 N 0.80809 0.31033 0.81225 0.0
C198 C 0.90521 0.30192 0.82889 0.0
C199 C 0.75569 0.11417 0.78372 0.0
C200 C 0.91917 0.18942 0.82634 0.0
C201 C 0.73167 0.21767 0.78996 0.0
C202 C 0.8429 0.09372 0.80332 0.0
N203 N -0.00857 0.52425 0.84499 0.0
C204 C 0.09035 0.63843 0.85869 0.0
C205 C 0.10139 0.40604 0.86359 0.0
C206 C -0.00179 0.41098 0.84634 0.0
C207 C 0.19703 0.52032 0.87956 0.0
C208 C 0.19212 0.63794 0.87681 0.0
H209 H 0.85902 0.01096 0.79876 0.0
H210 H 0.00558 0.08587 0.84858 0.0
H211 H 0.17787 0.27808 0.87918 0.0
O212 O -0.01144 0.5544 0.78501 0.0
O213 O 0.78304 0.44383 0.86566 0.0
O214 O 0.81609 0.64059 0.8795 0.0
O215 O 0.79664 0.48516 0.76385 0.0
O216 O 0.93089 0.73145 0.81432 0.0
O217 O 0.87167 0.79645 0.86027 0.0
O218 O 0.49926 0.51525 0.89776 0.0
O219 O 0.651 0.69182 0.81227 0.0
O220 O 0.64832 0.50957 0.7938 0.0
O221 O 0.64126 0.71323 0.91207 0.0
O222 O 0.50905 0.44031 0.85617 0.0
O223 O 0.59844 0.35362 0.81978 0.0
C224 C 0.79879 0.5267 0.88883 0.0
C225 C 0.93538 0.41961 0.73807 0.0
C226 C 0.87517 0.28334 0.68953 0.0
C227 C 0.93096 0.21083 0.70353 0.0
C228 C -6e-05 0.3521 0.7499 0.0
C229 C -0.00336 0.24804 0.73288 0.0
C230 C 0.87756 0.38835 0.70705 0.0
C231 C 0.95775 0.82309 0.8363 0.0
C232 C 0.91901 0.51437 0.75868 0.0
C233 C 0.013 0.17987 0.84579 0.0
C234 C 0.10527 0.28755 0.86433 0.0
C235 C 0.63223 0.61036 0.78823 0.0
C236 C 0.44172 0.6154 0.94089 0.0
C237 C 0.31304 0.56836 0.99028 0.0
C238 C 0.28022 0.66621 0.98156 0.0
C239 C 0.4177 0.72107 0.93455 0.0
C240 C 0.38889 0.53862 0.96909 0.0
C241 C 0.33316 0.74267 0.95398 0.0
C242 C 0.49717 0.34145 0.83808 0.0
C243 C 0.53963 0.60134 0.92103 0.0
H244 H 0.92723 0.12715 0.69119 0.0
H245 H 0.04352 0.37119 0.77346 0.0
H246 H 0.04036 0.19225 0.74308 0.0
H247 H 0.83262 0.44344 0.69689 0.0
H248 H 0.22056 0.68936 0.9973 0.0
H249 H 0.46412 0.78717 0.91439 0.0
H250 H 0.41293 0.46209 0.97546 0.0
H251 H 0.31278 0.82229 0.94825 0.0
C252 C 0.9758 0.82182 0.19625 0.0
C253 C 0.00887 0.77474 0.16811 0.0
C254 C 0.03813 0.98152 0.14056 0.0
C255 C 0.00892 0.0302 0.16908 0.0
N256 N -0.01301 0.00487 0.22644 0.0
N257 N 0.0352 0.80022 0.11092 0.0
C258 C -0.01254 0.95195 0.19747 0.0
C259 C 0.03031 0.85253 0.13964 0.0
N260 N 0.9135 0.73404 0.22072 0.0
N261 N 0.0891 0.06561 0.11494 0.0
H262 H 0.02872 0.70788 0.10873 0.0
H263 H 0.03079 0.84096 0.08891 0.0
H264 H 0.11409 0.16475 0.11645 0.0
H265 H 0.12749 0.0459 0.09464 0.0
H266 H 0.87315 0.75465 0.24056 0.0
H267 H 0.87915 0.63274 0.21796 0.0
H268 H -0.0105 0.96099 0.24816 0.0
H269 H 0.00101 0.10025 0.22905 0.0
C270 C 0.21219 0.00675 0.53215 0.0
C271 C 0.27296 -0.00692 0.5037 0.0
C272 C 0.07969 -0.00608 0.47436 0.0
C273 C 0.03111 0.02471 0.50235 0.0
N274 N 0.1027 0.11949 0.5544 0.0
N275 N 0.27479 0.02382 0.44569 0.0
C276 C 0.11133 0.04655 0.53035 0.0
C277 C 0.21024 0.00209 0.47421 0.0
N278 N 0.25097 0.98531 0.56145 0.0
N279 N -0.00068 0.95098 0.44783 0.0
H280 H 0.37096 0.03808 0.4433 0.0
H281 H 0.23784 0.04278 0.42458 0.0
H282 H 0.9017 0.93501 0.44793 0.0
H283 H 0.02336 0.91555 0.4276 0.0
H284 H 0.20258 0.98535 0.58242 0.0
H285 H 0.3217 0.95557 0.56458 0.0
H286 H 0.16805 0.15108 0.57409 0.0
H287 H 0.04433 0.16453 0.55181 0.0
C288 C 0.17878 0.00385 0.86561 0.0
C289 C 0.10121 0.95233 0.83651 0.0
C290 C 0.27568 0.16443 0.8097 0.0
C291 C 0.35794 0.20944 0.83785 0.0
N292 N 0.38629 0.16657 0.89298 0.0
N293 N 0.08927 0.98766 0.77963 0.0
C294 C 0.30724 0.12835 0.86599 0.0
C295 C 0.15516 0.03314 0.8082 0.0
N296 N 0.13025 0.93333 0.89338 0.0
N297 N 0.30649 0.25251 0.78493 0.0
H298 H -0.00716 0.90468 0.77738 0.0
H299 H 0.1332 0.02946 0.75768 0.0
H300 H 0.38496 0.35098 0.78648 0.0
H301 H 0.24717 0.23423 0.76455 0.0
H302 H 0.16363 0.97348 0.91605 0.0
H303 H 0.05509 0.83345 0.89375 0.0
H304 H 0.36709 0.1061 0.91314 0.0
H305 H 0.47884 0.25562 0.89447 0.0
C306 C 0.34708 0.61373 0.0482 0.0
C307 C 0.28513 0.51741 0.02391 0.0
C308 C 0.12736 0.36059 0.0641 0.0
C309 C 0.18344 0.46464 0.08759 0.0
N310 N 0.27902 0.703 0.08985 0.0
N311 N 0.10521 0.30142 0.00749 0.0
C312 C 0.2772 0.59535 0.07686 0.0
C313 C 0.17286 0.39014 0.03155 0.0
N314 N 0.46626 0.72945 0.04288 0.0
N315 N 0.02511 0.23643 0.07222 0.0
H316 H 0.13887 0.31972 0.98389 0.0
H317 H 0.01294 0.2134 0.01036 0.0
H318 H 0.97965 0.21636 0.09449 0.0
H319 H -0.01093 0.1527 0.05764 0.0
H320 H 0.51485 0.80061 0.06083 0.0
H321 H 0.52031 0.74726 0.02171 0.0
H322 H 0.33369 0.79896 0.07983 0.0
H323 H 0.21053 0.69192 0.10725 0.0
C324 C 0.7423 0.20263 0.30018 0.0
C325 C 0.79798 0.31858 0.31897 0.0
C326 C 0.88635 0.45806 0.2714 0.0
C327 C 0.84022 0.34207 0.25169 0.0
N328 N 0.77082 0.10643 0.2528 0.0
N329 N 0.87327 0.55226 0.32179 0.0
C330 C 0.77676 0.21383 0.26732 0.0
C331 C 0.85071 0.44426 0.30414 0.0
N332 N 0.66355 0.08108 0.31458 0.0
N333 N 0.98511 0.57986 0.26097 0.0
H334 H 0.84995 0.54416 0.34604 0.0
H335 H 0.90018 0.64509 0.31156 0.0
H336 H 0.02874 0.59251 0.23884 0.0
H337 H 0.03552 0.66394 0.27551 0.0
H338 H 0.60971 -0.00814 0.30192 0.0
H339 H 0.64189 0.07328 0.33899 0.0
H340 H 0.7372 0.01393 0.26395 0.0
H341 H 0.819 0.11582 0.23144 0.0
C342 C 0.56308 0.73161 0.74602 0.0
C343 C 0.57177 0.61674 0.75549 0.0
C344 C 0.45484 0.5153 0.70369 0.0
C345 C 0.46852 0.63814 0.69388 0.0
N346 N 0.57156 0.87465 0.7026 0.0
N347 N 0.53567 0.39876 0.73556 0.0
C348 C 0.53366 0.74913 0.71403 0.0
C349 C 0.52153 0.50873 0.73214 0.0
N350 N 0.57301 0.8231 0.76723 0.0
N351 N 0.37303 0.40195 0.68661 0.0
H352 H 0.55238 0.36061 0.75641 0.0
H353 H 0.52673 0.33927 0.7161 0.0
H354 H 0.32392 0.40284 0.66555 0.0
H355 H 0.34413 0.30583 0.69496 0.0
H356 H 0.5256 0.87837 0.76247 0.0
H357 H 0.62623 0.84587 0.78838 0.0
H358 H 0.62811 0.96087 0.71608 0.0
H359 H 0.559 0.89442 0.67879 0.0
C360 C 0.79791 0.3829 0.93541 0.0
C361 C 0.78272 0.4892 0.92416 0.0
C362 C 0.6953 0.49473 0.97706 0.0
C363 C 0.66812 0.36297 0.98261 0.0
N364 N 0.70911 0.18497 0.9685 0.0
N365 N 0.82989 0.69967 0.94687 0.0
C366 C 0.72343 0.30742 0.96211 0.0
C367 C 0.76401 0.56338 0.94851 0.0
N368 N 0.90881 0.3793 0.92662 0.0
N369 N 0.65702 0.55185 0.99981 0.0
H370 H 0.89418 0.7529 0.92828 0.0
H371 H 0.83316 0.7605 0.96542 0.0
H372 H 0.66591 0.64584 0.99753 0.0
H373 H 0.66591 0.64584 0.99753 0.0
H374 H 0.94575 0.32852 0.94024 0.0
H375 H 0.97495 0.44906 0.91037 0.0
H376 H 0.75073 0.14299 0.95406 0.0
H377 H 0.6499 0.12279 0.9871 0.0
C378 C 0.36316 0.72769 0.38038 0.0
C379 C 0.45554 0.71273 0.36144 0.0
C380 C 0.6412 0.87043 0.39581 0.0
C381 C 0.54678 0.86416 0.41891 0.0
N382 N 0.31032 0.7818 0.43139 0.0
N383 N 0.68108 0.75918 0.35209 0.0
C384 C 0.40584 0.79268 0.41048 0.0
C385 C 0.59405 0.78137 0.36938 0.0
N386 N 0.23325 0.67791 0.3698 0.0
N387 N 0.77524 0.96325 0.39782 0.0
H388 H 0.65191 0.70098 0.33144 0.0
H389 H 0.77956 0.79078 0.35954 0.0
H390 H 0.81731 0.03722 0.4149 0.0
H391 H 0.84359 0.9784 0.37982 0.0
H392 H 0.16541 0.70046 0.38027 0.0
H393 H 0.19573 0.62333 0.34876 0.0
H394 H 0.20746 0.71428 0.42865 0.0
H395 H 0.33161 0.83343 0.45266 0.0
C396 C 0.90428 0.2334 0.63343 0.0
C397 C 0.82303 0.24991 0.65588 0.0
C398 C 0.64538 0.17306 0.6145 0.0
C399 C 0.72113 0.13631 0.59472 0.0
N400 N 0.887 0.06844 0.59728 0.0
N401 N 0.59885 0.20317 0.6693 0.0
C402 C 0.84161 0.14961 0.60719 0.0
C403 C 0.68811 0.21136 0.64692 0.0
N404 N 0.04067 0.29378 0.6374 0.0
N405 N 0.5351 0.17365 0.60249 0.0
H406 H 0.62385 0.22085 0.69348 0.0
H407 H 0.49682 0.16511 0.66426 0.0
H408 H 0.50634 0.15197 0.5786 0.0
H409 H 0.48252 0.20944 0.61523 0.0
H410 H 0.10166 0.28477 0.62045 0.0
H411 H 0.09197 0.36303 0.65554 0.0
H412 H 0.96603 0.06528 0.60905 0.0
H413 H 0.8341 -0.00676 0.58069 0.0
loop_
_geom_bond_atom_site_label_1
_geom_bond_atom_site_label_2
_geom_bond_distance
_geom_bond_site_symmetry_2
_ccdc_geom_bond_type
Tb0 N29 2.617 . S
Tb0 N35 2.572 . S
Tb0 O44 2.465 . S
Tb0 O45 2.387 . S
Tb0 O47 2.428 . S
Tb0 O48 2.308 . S
Tb0 O52 2.349 1_655 S
Tb0 O55 2.393 . S
Tb0 C64 2.802 . S
C1 N2 1.379 . S
C1 C4 1.416 . S
C1 C8 1.424 . S
N2 C1 1.379 . S
N2 C5 1.334 . S
N2 Tb11 2.617 . S
C3 C5 1.390 . S
C3 C6 1.339 . S
C3 H23 0.930 . S
C4 C1 1.416 . S
C4 C6 1.416 . S
C4 C10 1.448 . S
C5 N2 1.334 . S
C5 C3 1.390 . S
C5 H16 0.930 . S
C6 C3 1.339 . S
C6 C4 1.416 . S
C6 H27 0.930 . S
C7 C8 1.413 . S
C7 C9 1.427 . S
C7 C13 1.416 . S
C8 C1 1.424 . S
C8 C7 1.413 . S
C8 N12 1.361 . S
C9 C7 1.427 . S
C9 C10 1.328 . S
C9 H24 0.929 . S
C10 C4 1.448 . S
C10 C9 1.328 . S
C10 H25 0.930 . S
Tb11 N2 2.617 . S
Tb11 N12 2.572 . S
Tb11 O46 2.349 1_455 S
Tb11 O49 2.393 . S
Tb11 O50 2.465 . S
Tb11 O51 2.387 . S
Tb11 O53 2.428 . S
Tb11 O54 2.308 . S
Tb11 C75 2.802 . S
N12 C8 1.361 . S
N12 Tb11 2.572 . S
N12 C14 1.340 . S
C13 C7 1.416 . S
C13 C15 1.332 . S
C13 H21 0.931 . S
C14 N12 1.340 . S
C14 C15 1.407 . S
C14 H20 0.930 . S
C15 C13 1.332 . S
C15 C14 1.407 . S
C15 H17 0.929 1_565 S
H16 C5 0.930 . S
H17 C15 0.929 1_545 S
H18 C33 0.930 . S
H19 C40 0.929 . S
H20 C14 0.930 . S
H21 C13 0.931 . S
H22 C36 0.930 . S
H23 C3 0.930 . S
H24 C9 0.929 . S
H25 C10 0.930 . S
H26 C31 0.930 . S
H27 C6 0.930 . S
H28 C39 0.931 . S
N29 Tb0 2.617 . S
N29 C30 1.379 . S
N29 C33 1.334 . S
C30 N29 1.379 . S
C30 C32 1.416 . S
C30 C38 1.424 . S
C31 H26 0.930 . S
C31 C33 1.390 . S
C31 C34 1.339 . S
C32 C30 1.416 . S
C32 C34 1.416 . S
C32 C65 1.448 . S
C33 H18 0.930 . S
C33 N29 1.334 . S
C33 C31 1.390 . S
C34 C31 1.339 . S
C34 C32 1.416 . S
C34 H41 0.930 . S
N35 Tb0 2.572 . S
N35 C36 1.340 . S
N35 C38 1.361 . S
C36 H22 0.930 . S
C36 N35 1.340 . S
C36 C40 1.407 1_545 S
C37 C38 1.413 . S
C37 C39 1.416 1_545 S
C37 C66 1.427 . S
C38 C30 1.424 . S
C38 N35 1.361 . S
C38 C37 1.413 . S
C39 H28 0.931 . S
C39 C37 1.416 1_565 S
C39 C40 1.332 . S
C40 H19 0.929 . S
C40 C36 1.407 1_565 S
C40 C39 1.332 . S
H41 C34 0.930 . S
H42 C65 0.930 . S
H43 C66 0.929 . S
O44 Tb0 2.465 . S
O44 C64 1.264 . S
O45 Tb0 2.387 . S
O45 C56 1.264 . S
O46 Tb11 2.349 1_655 S
O46 C56 1.243 . S
O47 Tb0 2.428 . S
O47 C64 1.256 . S
O48 Tb0 2.308 . S
O48 C63 1.266 . S
O49 Tb11 2.393 . S
O49 C63 1.248 1_455 S
O50 Tb11 2.465 . S
O50 C75 1.264 . S
O51 Tb11 2.387 . S
O51 C67 1.264 . S
O52 Tb0 2.349 1_455 S
O52 C67 1.243 . S
O53 Tb11 2.428 . S
O53 C75 1.256 . S
O54 Tb11 2.308 . S
O54 C74 1.266 . S
O55 Tb0 2.393 . S
O55 C74 1.248 1_655 S
C56 O45 1.264 . S
C56 O46 1.243 . S
C57 C60 1.399 . S
C57 C62 1.383 . S
C57 C64 1.496 . S
C58 C59 1.399 1_554 S
C58 C62 1.389 . S
C59 C58 1.399 1_556 S
C59 C61 1.380 1_556 S
C59 H76 0.929 . S
C60 C57 1.399 . S
C60 C61 1.392 . S
C60 H77 0.929 . S
C61 C59 1.380 1_554 S
C61 C60 1.392 . S
C61 H78 0.929 1_554 S
C62 C57 1.383 . S
C62 C58 1.389 . S
C62 H79 0.931 . S
C63 O48 1.266 . S
C63 O49 1.248 1_655 S
C64 Tb0 2.802 . S
C64 O44 1.264 . S
C64 O47 1.256 . S
C64 C57 1.496 . S
C65 C32 1.448 . S
C65 H42 0.930 . S
C65 C66 1.328 . S
C66 C37 1.427 . S
C66 H43 0.929 . S
C66 C65 1.328 . S
C67 O51 1.264 . S
C67 O52 1.243 . S
C68 C71 1.399 . S
C68 C72 1.383 . S
C68 C75 1.496 . S
C69 C70 1.399 . S
C69 C72 1.389 . S
C70 C69 1.399 . S
C70 C73 1.380 . S
C70 H80 0.929 . S
C71 C68 1.399 . S
C71 C73 1.392 . S
C71 H81 0.929 . S
C72 C68 1.383 . S
C72 C69 1.389 . S
C72 H82 0.931 . S
C73 C70 1.380 . S
C73 C71 1.392 . S
C73 H83 0.929 . S
C74 O54 1.266 . S
C74 O55 1.248 1_455 S
C75 Tb11 2.802 . S
C75 O50 1.264 . S
C75 O53 1.256 . S
C75 C68 1.496 . S
H76 C59 0.929 . S
H77 C60 0.929 . S
H78 C61 0.929 1_556 S
H79 C62 0.931 . S
H80 C70 0.929 . S
H81 C71 0.929 . S
H82 C72 0.931 . S
H83 C73 0.929 . S
Tb84 N113 2.617 1_655 S
Tb84 N119 2.572 . S
Tb84 O128 2.465 . S
Tb84 O129 2.387 . S
Tb84 O131 2.428 . S
Tb84 O132 2.308 . S
Tb84 O136 2.349 . S
Tb84 O139 2.393 . S
Tb84 C148 2.802 . S
C85 N86 1.379 . S
C85 C88 1.416 . S
C85 C92 1.424 . S
N86 C85 1.379 . S
N86 C89 1.334 . S
N86 Tb95 2.617 . S
C87 C89 1.390 . S
C87 C90 1.339 . S
C87 H107 0.930 . S
C88 C85 1.416 . S
C88 C90 1.416 . S
C88 C94 1.448 . S
C89 N86 1.334 . S
C89 C87 1.390 . S
C89 H100 0.930 . S
C90 C87 1.339 . S
C90 C88 1.416 . S
C90 H111 0.930 1_455 S
C91 C92 1.413 . S
C91 C93 1.427 . S
C91 C97 1.416 . S
C92 C85 1.424 . S
C92 C91 1.413 . S
C92 N96 1.361 . S
C93 C91 1.427 . S
C93 C94 1.328 . S
C93 H108 0.929 . S
C94 C88 1.448 . S
C94 C93 1.328 . S
C94 H109 0.930 . S
Tb95 N86 2.617 . S
Tb95 N96 2.572 . S
Tb95 O130 2.349 1_565 S
Tb95 O133 2.393 1_565 S
Tb95 O134 2.465 . S
Tb95 O135 2.387 . S
Tb95 O137 2.428 . S
Tb95 O138 2.308 1_565 S
Tb95 C159 2.802 . S
N96 C92 1.361 . S
N96 Tb95 2.572 . S
N96 C98 1.340 . S
C97 C91 1.416 . S
C97 C99 1.332 . S
C97 H105 0.931 . S
C98 N96 1.340 . S
C98 C99 1.407 . S
C98 H104 0.930 . S
C99 C97 1.332 . S
C99 C98 1.407 . S
C99 H101 0.929 . S
H100 C89 0.930 . S
H101 C99 0.929 . S
H102 C117 0.930 . S
H103 C124 0.929 . S
H104 C98 0.930 . S
H105 C97 0.931 . S
H106 C120 0.930 . S
H107 C87 0.930 . S
H108 C93 0.929 . S
H109 C94 0.930 . S
H110 C115 0.930 . S
H111 C90 0.930 1_655 S
H112 C123 0.931 . S
N113 Tb84 2.617 1_455 S
N113 C114 1.379 . S
N113 C117 1.334 . S
C114 N113 1.379 . S
C114 C116 1.416 . S
C114 C122 1.424 1_455 S
C115 H110 0.930 . S
C115 C117 1.390 . S
C115 C118 1.339 . S
C116 C114 1.416 . S
C116 C118 1.416 . S
C116 C149 1.448 . S
C117 H102 0.930 . S
C117 N113 1.334 . S
C117 C115 1.390 . S
C118 C115 1.339 . S
C118 C116 1.416 . S
C118 H125 0.930 . S
N119 Tb84 2.572 . S
N119 C120 1.340 . S
N119 C122 1.361 . S
C120 H106 0.930 . S
C120 N119 1.340 . S
C120 C124 1.407 . S
C121 C122 1.413 . S
C121 C123 1.416 . S
C121 C150 1.427 1_655 S
C122 C114 1.424 1_655 S
C122 N119 1.361 . S
C122 C121 1.413 . S
C123 H112 0.931 . S
C123 C121 1.416 . S
C123 C124 1.332 . S
C124 H103 0.929 . S
C124 C120 1.407 . S
C124 C123 1.332 . S
H125 C118 0.930 . S
H126 C149 0.930 . S
H127 C150 0.929 . S
O128 Tb84 2.465 . S
O128 C148 1.264 . S
O129 Tb84 2.387 . S
O129 C140 1.264 . S
O130 Tb95 2.349 1_545 S
O130 C140 1.243 . S
O131 Tb84 2.428 . S
O131 C148 1.256 . S
O132 Tb84 2.308 . S
O132 C147 1.266 . S
O133 Tb95 2.393 1_545 S
O133 C147 1.248 . S
O134 Tb95 2.465 . S
O134 C159 1.264 . S
O135 Tb95 2.387 . S
O135 C151 1.264 . S
O136 Tb84 2.349 . S
O136 C151 1.243 1_545 S
O137 Tb95 2.428 . S
O137 C159 1.256 . S
O138 Tb95 2.308 1_545 S
O138 C158 1.266 . S
O139 Tb84 2.393 . S
O139 C158 1.248 . S
C140 O129 1.264 . S
C140 O130 1.243 . S
C141 C144 1.399 . S
C141 C146 1.383 . S
C141 C148 1.496 . S
C142 C143 1.399 . S
C142 C146 1.389 . S
C143 C142 1.399 . S
C143 C145 1.380 . S
C143 H160 0.929 . S
C144 C141 1.399 . S
C144 C145 1.392 . S
C144 H161 0.929 1_655 S
C145 C143 1.380 . S
C145 C144 1.392 . S
C145 H162 0.929 1_655 S
C146 C141 1.383 . S
C146 C142 1.389 . S
C146 H163 0.931 . S
C147 O132 1.266 . S
C147 O133 1.248 . S
C148 Tb84 2.802 . S
C148 O128 1.264 . S
C148 O131 1.256 . S
C148 C141 1.496 . S
C149 C116 1.448 . S
C149 H126 0.930 . S
C149 C150 1.328 . S
C150 C121 1.427 1_455 S
C150 H127 0.929 . S
C150 C149 1.328 . S
C151 O135 1.264 . S
C151 O136 1.243 1_565 S
C152 C155 1.399 . S
C152 C156 1.383 . S
C152 C159 1.496 . S
C153 C154 1.399 . S
C153 C156 1.389 . S
C154 C153 1.399 . S
C154 C157 1.380 . S
C154 H164 0.929 . S
C155 C152 1.399 . S
C155 C157 1.392 . S
C155 H165 0.929 . S
C156 C152 1.383 . S
C156 C153 1.389 . S
C156 H166 0.931 . S
C157 C154 1.380 . S
C157 C155 1.392 . S
C157 H167 0.929 . S
C158 O138 1.266 . S
C158 O139 1.248 . S
C159 Tb95 2.802 . S
C159 O134 1.264 . S
C159 O137 1.256 . S
C159 C152 1.496 . S
H160 C143 0.929 . S
H161 C144 0.929 1_455 S
H162 C145 0.929 1_455 S
H163 C146 0.931 . S
H164 C154 0.929 . S
H165 C155 0.929 . S
H166 C156 0.931 . S
H167 C157 0.929 . S
Tb168 N197 2.617 . S
Tb168 N203 2.572 . S
Tb168 O212 2.465 . S
Tb168 O213 2.387 . S
Tb168 O215 2.428 . S
Tb168 O216 2.308 . S
Tb168 O220 2.349 . S
Tb168 O223 2.393 . S
Tb168 C232 2.802 . S
C169 N170 1.379 . S
C169 C172 1.416 . S
C169 C176 1.424 . S
N170 C169 1.379 . S
N170 C173 1.334 . S
N170 Tb179 2.617 . S
C171 C173 1.390 1_545 S
C171 C174 1.339 . S
C171 H191 0.930 . S
C172 C169 1.416 . S
C172 C174 1.416 1_565 S
C172 C178 1.448 . S
C173 N170 1.334 . S
C173 C171 1.390 1_565 S
C173 H184 0.930 . S
C174 C171 1.339 . S
C174 C172 1.416 1_545 S
C174 H195 0.930 . S
C175 C176 1.413 . S
C175 C177 1.427 . S
C175 C181 1.416 . S
C176 C169 1.424 . S
C176 C175 1.413 . S
C176 N180 1.361 . S
C177 C175 1.427 . S
C177 C178 1.328 . S
C177 H192 0.929 . S
C178 C172 1.448 . S
C178 C177 1.328 . S
C178 H193 0.930 1_565 S
Tb179 N170 2.617 . S
Tb179 N180 2.572 . S
Tb179 O214 2.349 . S
Tb179 O217 2.393 . S
Tb179 O218 2.465 . S
Tb179 O219 2.387 . S
Tb179 O221 2.428 . S
Tb179 O222 2.308 . S
Tb179 C243 2.802 . S
N180 C176 1.361 . S
N180 Tb179 2.572 . S
N180 C182 1.340 . S
C181 C175 1.416 . S
C181 C183 1.332 . S
C181 H189 0.931 . S
C182 N180 1.340 . S
C182 C183 1.407 . S
C182 H188 0.930 . S
C183 C181 1.332 . S
C183 C182 1.407 . S
C183 H185 0.929 . S
H184 C173 0.930 . S
H185 C183 0.929 . S
H186 C201 0.930 . S
H187 C208 0.929 . S
H188 C182 0.930 . S
H189 C181 0.931 . S
H190 C204 0.930 . S
H191 C171 0.930 . S
H192 C177 0.929 . S
H193 C178 0.930 1_545 S
H194 C199 0.930 . S
H195 C174 0.930 . S
H196 C207 0.931 . S
N197 Tb168 2.617 . S
N197 C198 1.379 . S
N197 C201 1.334 1_545 S
C198 N197 1.379 . S
C198 C200 1.416 1_545 S
C198 C206 1.424 . S
C199 H194 0.930 . S
C199 C201 1.390 . S
C199 C202 1.339 . S
C200 C198 1.416 1_565 S
C200 C202 1.416 . S
C200 C233 1.448 . S
C201 H186 0.930 . S
C201 N197 1.334 1_565 S
C201 C199 1.390 . S
C202 C199 1.339 . S
C202 C200 1.416 . S
C202 H209 0.930 . S
N203 Tb168 2.572 . S
N203 C204 1.340 1_655 S
N203 C206 1.361 . S
C204 H190 0.930 . S
C204 N203 1.340 1_455 S
C204 C208 1.407 . S
C205 C206 1.413 1_455 S
C205 C207 1.416 . S
C205 C234 1.427 . S
C206 C198 1.424 . S
C206 N203 1.361 . S
C206 C205 1.413 1_655 S
C207 H196 0.931 . S
C207 C205 1.416 . S
C207 C208 1.332 . S
C208 H187 0.929 . S
C208 C204 1.407 . S
C208 C207 1.332 . S
H209 C202 0.930 . S
H210 C233 0.930 . S
H211 C234 0.929 1_565 S
O212 Tb168 2.465 . S
O212 C232 1.264 . S
O213 Tb168 2.387 . S
O213 C224 1.264 . S
O214 Tb179 2.349 . S
O214 C224 1.243 . S
O215 Tb168 2.428 . S
O215 C232 1.256 . S
O216 Tb168 2.308 . S
O216 C231 1.266 . S
O217 Tb179 2.393 . S
O217 C231 1.248 . S
O218 Tb179 2.465 . S
O218 C243 1.264 . S
O219 Tb179 2.387 . S
O219 C235 1.264 . S
O220 Tb168 2.349 . S
O220 C235 1.243 . S
O221 Tb179 2.428 . S
O221 C243 1.256 . S
O222 Tb179 2.308 . S
O222 C242 1.266 . S
O223 Tb168 2.393 . S
O223 C242 1.248 . S
C224 O213 1.264 . S
C224 O214 1.243 . S
C225 C228 1.399 . S
C225 C230 1.383 1_655 S
C225 C232 1.496 . S
C226 C227 1.399 1_455 S
C226 C230 1.389 . S
C227 C226 1.399 1_655 S
C227 C229 1.380 . S
C227 H244 0.929 1_655 S
C228 C225 1.399 . S
C228 C229 1.392 . S
C228 H245 0.929 . S
C229 C227 1.380 . S
C229 C228 1.392 . S
C229 H246 0.929 . S
C230 C225 1.383 1_455 S
C230 C226 1.389 . S
C230 H247 0.931 . S
C231 O216 1.266 . S
C231 O217 1.248 . S
C232 Tb168 2.802 . S
C232 O212 1.264 . S
C232 O215 1.256 . S
C232 C225 1.496 . S
C233 C200 1.448 . S
C233 H210 0.930 . S
C233 C234 1.328 1_665 S
C234 C205 1.427 . S
C234 H211 0.929 1_545 S
C234 C233 1.328 1_445 S
C235 O219 1.264 . S
C235 O220 1.243 . S
C236 C239 1.399 . S
C236 C240 1.383 . S
C236 C243 1.496 . S
C237 C238 1.399 1_556 S
C237 C240 1.389 . S
C238 C237 1.399 1_554 S
C238 C241 1.380 1_554 S
C238 H248 0.929 . S
C239 C236 1.399 . S
C239 C241 1.392 . S
C239 H249 0.929 . S
C240 C236 1.383 . S
C240 C237 1.389 . S
C240 H250 0.931 . S
C241 C238 1.380 1_556 S
C241 C239 1.392 . S
C241 H251 0.929 1_556 S
C242 O222 1.266 . S
C242 O223 1.248 . S
C243 Tb179 2.802 . S
C243 O218 1.264 . S
C243 O221 1.256 . S
C243 C236 1.496 . S
H244 C227 0.929 1_455 S
H245 C228 0.929 . S
H246 C229 0.929 . S
H247 C230 0.931 . S
H248 C238 0.929 . S
H249 C239 0.929 . S
H250 C240 0.931 . S
H251 C241 0.929 1_554 S
C252 C253 1.363 1_655 S
C252 C258 1.379 . S
C252 N260 1.356 . S
C253 C252 1.363 1_455 S
C253 C259 1.363 . S
C254 C255 1.363 1_455 S
C254 C259 1.379 1_545 S
C254 N261 1.356 . S
C255 C254 1.363 1_655 S
C255 C258 1.363 1_545 S
N256 C258 1.356 1_545 S
N256 H268 0.984 1_545 S
N256 H269 0.985 . S
N257 C259 1.356 . S
N257 H262 0.984 . S
N257 H263 0.985 . S
C258 C252 1.379 . S
C258 C255 1.363 1_565 S
C258 N256 1.356 1_565 S
C259 C253 1.363 . S
C259 C254 1.379 1_565 S
C259 N257 1.356 . S
N260 C252 1.356 . S
N260 H266 0.984 . S
N260 H267 0.984 . S
N261 C254 1.356 . S
N261 H264 0.984 . S
N261 H265 0.985 . S
H262 N257 0.984 . S
H263 N257 0.985 . S
H264 N261 0.984 . S
H265 N261 0.985 . S
H266 N260 0.984 . S
H267 N260 0.984 . S
H268 N256 0.984 1_565 S
H269 N256 0.985 . S
C270 C271 1.363 . S
C270 C276 1.379 . S
C270 N278 1.356 . S
C271 C270 1.363 . S
C271 C277 1.363 . S
C272 C273 1.363 . S
C272 C277 1.379 . S
C272 N279 1.356 1_445 S
C273 C272 1.363 . S
C273 C276 1.363 . S
N274 C276 1.356 . S
N274 H286 0.984 . S
N274 H287 0.985 . S
N275 C277 1.356 . S
N275 H280 0.984 . S
N275 H281 0.985 1_545 S
C276 C270 1.379 . S
C276 C273 1.363 . S
C276 N274 1.356 . S
C277 C271 1.363 . S
C277 C272 1.379 . S
C277 N275 1.356 . S
N278 C270 1.356 . S
N278 H284 0.984 . S
N278 H285 0.984 . S
N279 C272 1.356 1_665 S
N279 H282 0.984 1_565 S
N279 H283 0.985 . S
H280 N275 0.984 . S
H281 N275 0.985 1_565 S
H282 N279 0.984 1_545 S
H283 N279 0.985 . S
H284 N278 0.984 . S
H285 N278 0.984 . S
H286 N274 0.984 . S
H287 N274 0.985 . S
C288 C289 1.363 . S
C288 C294 1.379 1_565 S
C288 N296 1.356 1_455 S
C289 C288 1.363 . S
C289 C295 1.363 . S
C290 C291 1.363 1_565 S
C290 C295 1.379 . S
C290 N297 1.356 1_565 S
C291 C290 1.363 1_545 S
C291 C294 1.363 . S
N292 C294 1.356 . S
N292 H304 0.984 . S
N292 H305 0.985 . S
N293 C295 1.356 . S
N293 H298 0.984 . S
N293 H299 0.985 . S
C294 C288 1.379 1_545 S
C294 C291 1.363 . S
C294 N292 1.356 . S
C295 C289 1.363 . S
C295 C290 1.379 . S
C295 N293 1.356 . S
N296 C288 1.356 1_655 S
N296 H302 0.984 . S
N296 H303 0.984 . S
N297 C290 1.356 1_545 S
N297 H300 0.984 . S
N297 H301 0.985 . S
H298 N293 0.984 . S
H299 N293 0.985 . S
H300 N297 0.984 . S
H301 N297 0.985 . S
H302 N296 0.984 . S
H303 N296 0.984 . S
H304 N292 0.984 . S
H305 N292 0.985 . S
C306 C307 1.363 . S
C306 C312 1.379 . S
C306 N314 1.356 . S
C307 C306 1.363 . S
C307 C313 1.363 . S
C308 C309 1.363 . S
C308 C313 1.379 . S
C308 N315 1.356 . S
C309 C308 1.363 . S
C309 C312 1.363 . S
N310 C312 1.356 . S
N310 H322 0.984 . S
N310 H323 0.985 . S
N311 C313 1.356 . S
N311 H316 0.984 1_554 S
N311 H317 0.985 1_455 S
C312 C306 1.379 . S
C312 C309 1.363 . S
C312 N310 1.356 . S
C313 C307 1.363 . S
C313 C308 1.379 . S
C313 N311 1.356 . S
N314 C306 1.356 . S
N314 H320 0.984 . S
N314 H321 0.984 1_554 S
N315 C308 1.356 . S
N315 H318 0.984 . S
N315 H319 0.985 1_455 S
H316 N311 0.984 1_556 S
H317 N311 0.985 1_655 S
H318 N315 0.984 . S
H319 N315 0.985 1_655 S
H320 N314 0.984 . S
H321 N314 0.984 1_556 S
H322 N310 0.984 . S
H323 N310 0.985 . S
C324 C325 1.363 . S
C324 C330 1.379 . S
C324 N332 1.356 . S
C325 C324 1.363 . S
C325 C331 1.363 . S
C326 C327 1.363 . S
C326 C331 1.379 . S
C326 N333 1.356 . S
C327 C326 1.363 . S
C327 C330 1.363 . S
N328 C330 1.356 . S
N328 H340 0.984 . S
N328 H341 0.985 . S
N329 C331 1.356 . S
N329 H334 0.984 . S
N329 H335 0.985 . S
C330 C324 1.379 . S
C330 C327 1.363 . S
C330 N328 1.356 . S
C331 C325 1.363 . S
C331 C326 1.379 . S
C331 N329 1.356 . S
N332 C324 1.356 . S
N332 H338 0.984 . S
N332 H339 0.984 . S
N333 C326 1.356 . S
N333 H336 0.984 . S
N333 H337 0.985 . S
H334 N329 0.984 . S
H335 N329 0.985 . S
H336 N333 0.984 . S
H337 N333 0.985 . S
H338 N332 0.984 . S
H339 N332 0.984 . S
H340 N328 0.984 . S
H341 N328 0.985 . S
C342 C343 1.363 . S
C342 C348 1.379 . S
C342 N350 1.356 . S
C343 C342 1.363 . S
C343 C349 1.363 . S
C344 C345 1.363 . S
C344 C349 1.379 . S
C344 N351 1.356 . S
C345 C344 1.363 . S
C345 C348 1.363 . S
N346 C348 1.356 . S
N346 H358 0.984 . S
N346 H359 0.985 . S
N347 C349 1.356 . S
N347 H352 0.984 . S
N347 H353 0.985 . S
C348 C342 1.379 . S
C348 C345 1.363 . S
C348 N346 1.356 . S
C349 C343 1.363 . S
C349 C344 1.379 . S
C349 N347 1.356 . S
N350 C342 1.356 . S
N350 H356 0.984 . S
N350 H357 0.984 . S
N351 C344 1.356 . S
N351 H354 0.984 . S
N351 H355 0.985 . S
H352 N347 0.984 . S
H353 N347 0.985 . S
H354 N351 0.984 . S
H355 N351 0.985 . S
H356 N350 0.984 . S
H357 N350 0.984 . S
H358 N346 0.984 . S
H359 N346 0.985 . S
C360 C361 1.363 . S
C360 C366 1.379 . S
C360 N368 1.356 . S
C361 C360 1.363 . S
C361 C367 1.363 . S
C362 C363 1.363 . S
C362 C367 1.379 . S
C362 N369 1.356 1_556 S
C363 C362 1.363 . S
C363 C366 1.363 . S
N364 C366 1.356 1_565 S
N364 H376 0.984 . S
N364 H377 0.985 . S
N365 C367 1.356 . S
N365 H370 0.984 . S
N365 H371 0.985 . S
C366 C360 1.379 . S
C366 C363 1.363 . S
C366 N364 1.356 1_545 S
C367 C361 1.363 . S
C367 C362 1.379 . S
C367 N365 1.356 . S
N368 C360 1.356 . S
N368 H374 0.984 . S
N368 H375 0.984 . S
N369 C362 1.356 1_554 S
N369 H372 0.984 . S
N369 H373 0.985 . S
H370 N365 0.984 . S
H371 N365 0.985 . S
H372 N369 0.984 . S
H373 N369 0.985 . S
H374 N368 0.984 . S
H375 N368 0.984 . S
H376 N364 0.984 . S
H377 N364 0.985 . S
C378 C379 1.363 . S
C378 C384 1.379 . S
C378 N386 1.356 . S
C379 C378 1.363 . S
C379 C385 1.363 . S
C380 C381 1.363 1_545 S
C380 C385 1.379 1_545 S
C380 N387 1.356 . S
C381 C380 1.363 1_565 S
C381 C384 1.363 . S
N382 C384 1.356 . S
N382 H394 0.984 . S
N382 H395 0.985 . S
N383 C385 1.356 1_545 S
N383 H388 0.984 1_545 S
N383 H389 0.985 . S
C384 C378 1.379 . S
C384 C381 1.363 . S
C384 N382 1.356 . S
C385 C379 1.363 . S
C385 C380 1.379 1_565 S
C385 N383 1.356 1_565 S
N386 C378 1.356 . S
N386 H392 0.984 . S
N386 H393 0.984 . S
N387 C380 1.356 . S
N387 H390 0.984 . S
N387 H391 0.985 . S
H388 N383 0.984 1_565 S
H389 N383 0.985 . S
H390 N387 0.984 . S
H391 N387 0.985 . S
H392 N386 0.984 . S
H393 N386 0.984 . S
H394 N382 0.984 . S
H395 N382 0.985 . S
C396 C397 1.363 1_655 S
C396 C402 1.379 . S
C396 N404 1.356 1_655 S
C397 C396 1.363 1_455 S
C397 C403 1.363 . S
C398 C399 1.363 . S
C398 C403 1.379 1_655 S
C398 N405 1.356 . S
C399 C398 1.363 . S
C399 C402 1.363 . S
N400 C402 1.356 . S
N400 H412 0.984 . S
N400 H413 0.985 . S
N401 C403 1.356 . S
N401 H406 0.984 . S
N401 H407 0.985 . S
C402 C396 1.379 . S
C402 C399 1.363 . S
C402 N400 1.356 . S
C403 C397 1.363 . S
C403 C398 1.379 1_455 S
C403 N401 1.356 . S
N404 C396 1.356 1_455 S
N404 H410 0.984 1_455 S
N404 H411 0.984 . S
N405 C398 1.356 . S
N405 H408 0.984 . S
N405 H409 0.985 . S
H406 N401 0.984 . S
H407 N401 0.985 . S
H408 N405 0.984 . S
H409 N405 0.985 . S
H410 N404 0.984 1_655 S
H411 N404 0.984 . S
H412 N400 0.984 . S
H413 N400 0.985 . S
C253 C74 1.658 . S
C255 C63 1.658 . S
C271 C147 1.659 . S
C273 C158 1.659 1_455 S
C289 C231 1.659 1_455 S
C291 C242 1.659 . S
C307 C237 1.331 1_554 S
C309 C67 1.502 . S
C325 C142 1.360 . S
C327 C56 1.851 . S
C343 C235 1.503 . S
C345 C153 1.332 . S
C361 C224 1.851 . S
C363 C58 1.359 1_556 S
C379 C69 1.331 . S
C381 C151 1.503 . S
C397 C226 1.359 . S
C399 C140 1.851 . S
