# Generated by pormake.
# Topology ecc, (8)-cn, num edge types: 1
# Building blocks:
#     Node 0, Type 0, BuildingBlock: EBIMEJ_clean_sbu_0, # of connection points: 8
#     Node 1, Type 0, BuildingBlock: EBIMEJ_clean_sbu_0, # of connection points: 8
#     Node 2, Type 0, BuildingBlock: EBIMEJ_clean_sbu_0, # of connection points: 8
#     Node 3, Type 0, BuildingBlock: EBIMEJ_clean_sbu_0, # of connection points: 8
#     Node 4, Type 0, BuildingBlock: EBIMEJ_clean_sbu_0, # of connection points: 8
#     Node 5, Type 0, BuildingBlock: EBIMEJ_clean_sbu_0, # of connection points: 8
#     Node 6, Type 0, BuildingBlock: EBIMEJ_clean_sbu_0, # of connection points: 8
#     Node 7, Type 0, BuildingBlock: EBIMEJ_clean_sbu_0, # of connection points: 8
#     Node 8, Type 0, BuildingBlock: EBIMEJ_clean_sbu_0, # of connection points: 8
#     Node 9, Type 0, BuildingBlock: EBIMEJ_clean_sbu_0, # of connection points: 8
#     Node 10, Type 0, BuildingBlock: EBIMEJ_clean_sbu_0, # of connection points: 8
#     Node 11, Type 0, BuildingBlock: EBIMEJ_clean_sbu_0, # of connection points: 8
#     Node 12, Type 0, BuildingBlock: EBIMEJ_clean_sbu_0, # of connection points: 8
#     Node 13, Type 0, BuildingBlock: EBIMEJ_clean_sbu_0, # of connection points: 8
#     Node 14, Type 0, BuildingBlock: EBIMEJ_clean_sbu_0, # of connection points: 8
#     Node 15, Type 0, BuildingBlock: EBIMEJ_clean_sbu_0, # of connection points: 8
#     Node 16, Type 0, BuildingBlock: EBIMEJ_clean_sbu_0, # of connection points: 8
#     Node 17, Type 0, BuildingBlock: EBIMEJ_clean_sbu_0, # of connection points: 8
#     Edge 18, Type (0, 0), BuildingBlock: KIFKEQ_clean_linker_1, # of connection points: 2
#     Edge 19, Type (0, 0), BuildingBlock: KIFKEQ_clean_linker_1, # of connection points: 2
#     Edge 20, Type (0, 0), BuildingBlock: KIFKEQ_clean_linker_1, # of connection points: 2
#     Edge 21, Type (0, 0), BuildingBlock: KIFKEQ_clean_linker_1, # of connection points: 2
#     Edge 22, Type (0, 0), BuildingBlock: KIFKEQ_clean_linker_1, # of connection points: 2
#     Edge 23, Type (0, 0), BuildingBlock: KIFKEQ_clean_linker_1, # of connection points: 2
#     Edge 24, Type (0, 0), BuildingBlock: KIFKEQ_clean_linker_1, # of connection points: 2
#     Edge 25, Type (0, 0), BuildingBlock: KIFKEQ_clean_linker_1, # of connection points: 2
#     Edge 26, Type (0, 0), BuildingBlock: KIFKEQ_clean_linker_1, # of connection points: 2
#     Edge 27, Type (0, 0), BuildingBlock: KIFKEQ_clean_linker_1, # of connection points: 2
#     Edge 28, Type (0, 0), BuildingBlock: KIFKEQ_clean_linker_1, # of connection points: 2
#     Edge 29, Type (0, 0), BuildingBlock: KIFKEQ_clean_linker_1, # of connection points: 2
#     Edge 30, Type (0, 0), BuildingBlock: KIFKEQ_clean_linker_1, # of connection points: 2
#     Edge 31, Type (0, 0), BuildingBlock: KIFKEQ_clean_linker_1, # of connection points: 2
#     Edge 32, Type (0, 0), BuildingBlock: KIFKEQ_clean_linker_1, # of connection points: 2
#     Edge 33, Type (0, 0), BuildingBlock: KIFKEQ_clean_linker_1, # of connection points: 2
#     Edge 34, Type (0, 0), BuildingBlock: KIFKEQ_clean_linker_1, # of connection points: 2
#     Edge 35, Type (0, 0), BuildingBlock: KIFKEQ_clean_linker_1, # of connection points: 2
#     Edge 36, Type (0, 0), BuildingBlock: KIFKEQ_clean_linker_1, # of connection points: 2
#     Edge 37, Type (0, 0), BuildingBlock: KIFKEQ_clean_linker_1, # of connection points: 2
#     Edge 38, Type (0, 0), BuildingBlock: KIFKEQ_clean_linker_1, # of connection points: 2
#     Edge 39, Type (0, 0), BuildingBlock: KIFKEQ_clean_linker_1, # of connection points: 2
#     Edge 40, Type (0, 0), BuildingBlock: KIFKEQ_clean_linker_1, # of connection points: 2
#     Edge 41, Type (0, 0), BuildingBlock: KIFKEQ_clean_linker_1, # of connection points: 2
#     Edge 42, Type (0, 0), BuildingBlock: KIFKEQ_clean_linker_1, # of connection points: 2
#     Edge 43, Type (0, 0), BuildingBlock: KIFKEQ_clean_linker_1, # of connection points: 2
#     Edge 44, Type (0, 0), BuildingBlock: KIFKEQ_clean_linker_1, # of connection points: 2
#     Edge 45, Type (0, 0), BuildingBlock: KIFKEQ_clean_linker_1, # of connection points: 2
#     Edge 46, Type (0, 0), BuildingBlock: KIFKEQ_clean_linker_1, # of connection points: 2
#     Edge 47, Type (0, 0), BuildingBlock: KIFKEQ_clean_linker_1, # of connection points: 2
#     Edge 48, Type (0, 0), BuildingBlock: KIFKEQ_clean_linker_1, # of connection points: 2
#     Edge 49, Type (0, 0), BuildingBlock: KIFKEQ_clean_linker_1, # of connection points: 2
#     Edge 50, Type (0, 0), BuildingBlock: KIFKEQ_clean_linker_1, # of connection points: 2
#     Edge 51, Type (0, 0), BuildingBlock: KIFKEQ_clean_linker_1, # of connection points: 2
#     Edge 52, Type (0, 0), BuildingBlock: KIFKEQ_clean_linker_1, # of connection points: 2
#     Edge 53, Type (0, 0), BuildingBlock: KIFKEQ_clean_linker_1, # of connection points: 2
#     Edge 54, Type (0, 0), BuildingBlock: KIFKEQ_clean_linker_1, # of connection points: 2
#     Edge 55, Type (0, 0), BuildingBlock: KIFKEQ_clean_linker_1, # of connection points: 2
#     Edge 56, Type (0, 0), BuildingBlock: KIFKEQ_clean_linker_1, # of connection points: 2
#     Edge 57, Type (0, 0), BuildingBlock: KIFKEQ_clean_linker_1, # of connection points: 2
#     Edge 58, Type (0, 0), BuildingBlock: KIFKEQ_clean_linker_1, # of connection points: 2
#     Edge 59, Type (0, 0), BuildingBlock: KIFKEQ_clean_linker_1, # of connection points: 2
#     Edge 60, Type (0, 0), BuildingBlock: KIFKEQ_clean_linker_1, # of connection points: 2
#     Edge 61, Type (0, 0), BuildingBlock: KIFKEQ_clean_linker_1, # of connection points: 2
#     Edge 62, Type (0, 0), BuildingBlock: KIFKEQ_clean_linker_1, # of connection points: 2
#     Edge 63, Type (0, 0), BuildingBlock: KIFKEQ_clean_linker_1, # of connection points: 2
#     Edge 64, Type (0, 0), BuildingBlock: KIFKEQ_clean_linker_1, # of connection points: 2
#     Edge 65, Type (0, 0), BuildingBlock: KIFKEQ_clean_linker_1, # of connection points: 2
#     Edge 66, Type (0, 0), BuildingBlock: KIFKEQ_clean_linker_1, # of connection points: 2
#     Edge 67, Type (0, 0), BuildingBlock: KIFKEQ_clean_linker_1, # of connection points: 2
#     Edge 68, Type (0, 0), BuildingBlock: KIFKEQ_clean_linker_1, # of connection points: 2
#     Edge 69, Type (0, 0), BuildingBlock: KIFKEQ_clean_linker_1, # of connection points: 2
#     Edge 70, Type (0, 0), BuildingBlock: KIFKEQ_clean_linker_1, # of connection points: 2
#     Edge 71, Type (0, 0), BuildingBlock: KIFKEQ_clean_linker_1, # of connection points: 2
#     Edge 72, Type (0, 0), BuildingBlock: KIFKEQ_clean_linker_1, # of connection points: 2
#     Edge 73, Type (0, 0), BuildingBlock: KIFKEQ_clean_linker_1, # of connection points: 2
#     Edge 74, Type (0, 0), BuildingBlock: KIFKEQ_clean_linker_1, # of connection points: 2
#     Edge 75, Type (0, 0), BuildingBlock: KIFKEQ_clean_linker_1, # of connection points: 2
#     Edge 76, Type (0, 0), BuildingBlock: KIFKEQ_clean_linker_1, # of connection points: 2
#     Edge 77, Type (0, 0), BuildingBlock: KIFKEQ_clean_linker_1, # of connection points: 2
#     Edge 78, Type (0, 0), BuildingBlock: KIFKEQ_clean_linker_1, # of connection points: 2
#     Edge 79, Type (0, 0), BuildingBlock: KIFKEQ_clean_linker_1, # of connection points: 2
#     Edge 80, Type (0, 0), BuildingBlock: KIFKEQ_clean_linker_1, # of connection points: 2
#     Edge 81, Type (0, 0), BuildingBlock: KIFKEQ_clean_linker_1, # of connection points: 2
#     Edge 82, Type (0, 0), BuildingBlock: KIFKEQ_clean_linker_1, # of connection points: 2
#     Edge 83, Type (0, 0), BuildingBlock: KIFKEQ_clean_linker_1, # of connection points: 2
#     Edge 84, Type (0, 0), BuildingBlock: KIFKEQ_clean_linker_1, # of connection points: 2
#     Edge 85, Type (0, 0), BuildingBlock: KIFKEQ_clean_linker_1, # of connection points: 2
#     Edge 86, Type (0, 0), BuildingBlock: KIFKEQ_clean_linker_1, # of connection points: 2
#     Edge 87, Type (0, 0), BuildingBlock: KIFKEQ_clean_linker_1, # of connection points: 2
#     Edge 88, Type (0, 0), BuildingBlock: KIFKEQ_clean_linker_1, # of connection points: 2
#     Edge 89, Type (0, 0), BuildingBlock: KIFKEQ_clean_linker_1, # of connection points: 2
# Relax obj value: 0.327
# Max RMSD: 0.288
# Mean RMSD: 0.288
data_MOF--net-ecc--node1-EBIMEJ_clean_sbu_0--edge1-KIFKEQ_clean_linker_1
_symmetry_space_group_name_H-M    P1
_symmetry_Int_Tables_number       1
_symmetry_cell_setting            triclinic
loop_
_symmetry_equiv_pos_as_xyz
'x, y, z'
_cell_length_a     60.577678
_cell_length_b     60.531211
_cell_length_c     26.469158
_cell_angle_alpha  89.858762
_cell_angle_beta   90.037772
_cell_angle_gamma 120.09715
loop_
_atom_site_label
_atom_site_type_symbol
_atom_site_fract_x
_atom_site_fract_y
_atom_site_fract_z
_atom_type_partial_charge
Co0 Co 0.14908 1.01051 0.71643 0.0
Co1 Co 0.18813 0.036 0.80819 0.0
Co2 Co 0.19868 1.0066 0.73125 0.0
H3 H 0.17372 1.00786 0.73792 0.0
O4 O 0.16844 1.00505 0.76863 0.0
H5 H 0.21208 0.032 0.80923 0.0
O6 O 0.21872 0.03471 0.77944 0.0
Co7 Co 0.23436 0.02805 0.84013 0.0
O8 O 0.23152 0.05286 0.89257 0.0
O9 O 0.20876 0.06633 0.84952 0.0
O10 O 0.24904 0.01252 0.78685 0.0
O11 O 0.22956 1.00646 0.7107 0.0
O12 O 0.11149 0.99139 0.69466 0.0
O13 O 0.12135 0.99307 0.77051 0.0
O14 O 0.20369 0.99653 0.86959 0.0
O15 O 0.17761 0.01248 0.86886 0.0
C16 C 0.15772 0.97419 0.65445 0.0
C17 C 0.15185 0.05021 0.78325 0.0
C18 C 0.27515 0.04423 0.88908 0.0
C19 C 0.1953 0.04603 0.66079 0.0
C20 C 0.22205 0.0677 0.88783 0.0
C21 C 0.24672 1.00662 0.73917 0.0
C22 C 0.10351 0.98523 0.73917 0.0
C23 C 0.18307 0.99558 0.88341 0.0
O24 O 0.1459 0.9864 0.66107 0.0
O25 O 0.17738 0.97836 0.68073 0.0
O26 O 0.15837 0.0409 0.81985 0.0
O27 O 0.15303 0.04422 0.73761 0.0
O28 O 0.25442 0.04042 0.90738 0.0
O29 O 0.27271 0.03861 0.84294 0.0
O30 O 0.17274 0.03988 0.67339 0.0
O31 O 0.2066 0.03436 0.67796 0.0
Co32 Co 0.03531 0.16586 0.71849 0.0
Co33 Co 1.01228 0.18114 0.81264 0.0
Co34 Co 0.04007 0.21983 0.73162 0.0
H35 H 0.0386 0.19351 0.73929 0.0
O36 O 0.04211 0.19152 0.76984 0.0
H37 H 0.01616 0.20906 0.81146 0.0
O38 O 1.01281 0.2124 0.78166 0.0
Co39 Co 0.0209 0.23602 0.84057 0.0
O40 O 0.99622 0.20962 0.89458 0.0
O41 O 0.98263 0.17206 0.85633 0.0
O42 O 0.03691 0.26584 0.78674 0.0
O43 O 0.04026 0.25097 0.71019 0.0
O44 O 0.04526 0.13879 0.70429 0.0
O45 O 0.05984 0.16246 0.76722 0.0
O46 O 0.05271 0.23776 0.87037 0.0
O47 O 0.03702 0.19573 0.87102 0.0
C48 C 0.06888 0.20953 0.6502 0.0
C49 C 1.00157 0.12977 0.79601 0.0
C50 C 1.00352 0.26046 0.88623 0.0
C51 C 1.00271 0.17819 0.65663 0.0
C52 C 0.98094 0.18532 0.8917 0.0
C53 C 0.04158 0.2687 0.73859 0.0
C54 C 0.05929 0.1445 0.74263 0.0
C55 C 0.05387 0.21825 0.88475 0.0
O56 O 0.05537 0.18551 0.65742 0.0
O57 O 0.06736 0.22589 0.679 0.0
O58 O 1.00878 0.14743 0.8289 0.0
O59 O 1.00549 0.13442 0.74887 0.0
O60 O 0.0244 0.26174 0.89647 0.0
O61 O 0.9928 0.24562 0.84977 0.0
O62 O 1.0107 0.16278 0.6653 0.0
O63 O 1.01149 0.19959 0.68007 0.0
Co64 Co 0.88068 0.8993 0.71848 0.0
Co65 Co 0.86628 0.86018 0.81039 0.0
Co66 Co 0.82724 0.84869 0.73039 0.0
H67 H 0.85315 0.8741 0.7382 0.0
O68 O 0.85498 0.87931 0.7689 0.0
H69 H 0.83839 0.836 0.81013 0.0
O70 O 0.83505 0.82917 0.78049 0.0
Co71 Co 0.8115 0.81392 0.83962 0.0
O72 O 0.83847 0.81579 0.89234 0.0
O73 O 0.87593 0.83979 0.85337 0.0
O74 O 0.78163 0.79967 0.78582 0.0
O75 O 0.79674 0.81735 0.70885 0.0
O76 O 0.91 0.93575 0.70658 0.0
O77 O 0.88358 0.92791 0.76415 0.0
O78 O 0.81023 0.84436 0.86856 0.0
O79 O 0.85233 0.87025 0.86989 0.0
C80 C 0.83558 0.89053 0.65564 0.0
C81 C 0.917 0.89791 0.78843 0.0
C82 C 0.78635 0.77329 0.88908 0.0
C83 C 0.87129 0.85369 0.66181 0.0
C84 C 0.86277 0.82491 0.8891 0.0
C85 C 0.7789 0.80113 0.73747 0.0
C86 C 0.9034 0.94466 0.74258 0.0
C87 C 0.82985 0.86484 0.8833 0.0
O88 O 0.85932 0.90365 0.6655 0.0
O89 O 0.82039 0.86936 0.67822 0.0
O90 O 0.90044 0.89054 0.82373 0.0
O91 O 0.91065 0.89629 0.74216 0.0
O92 O 0.782 0.77618 0.8438 0.0
O93 O 0.80469 0.79349 0.90621 0.0
O94 O 0.88696 0.87654 0.67429 0.0
O95 O 0.84827 0.84155 0.67885 0.0
Co96 Co 0.80994 0.02253 0.19587 0.0
Co97 Co 0.8446 0.04364 0.3057 0.0
Co98 Co 0.85881 0.01815 0.22586 0.0
H99 H 0.83345 0.01996 0.22559 0.0
O100 O 0.82659 0.0161 0.25525 0.0
H101 H 0.87058 0.04444 0.29895 0.0
O102 O 0.8762 0.0483 0.26855 0.0
Co103 Co 0.89609 0.0433 0.32003 0.0
O104 O 0.89696 0.06559 0.37707 0.0
O105 O 0.86409 0.07154 0.35794 0.0
O106 O 0.89841 0.01345 0.29361 0.0
O107 O 0.89053 0.01661 0.21244 0.0
O108 O 0.7882 0.02454 0.13718 0.0
O109 O 0.77153 0.99553 0.19015 0.0
O110 O 0.87372 0.01321 0.36245 0.0
O111 O 0.83809 0.01559 0.35757 0.0
C112 C 0.82445 0.98485 0.14638 0.0
C113 C 0.79633 0.04257 0.29679 0.0
C114 C 0.94157 0.06888 0.29785 0.0
C115 C 0.86041 0.05714 0.1492 0.0
C116 C 0.88391 0.07648 0.38443 0.0
C117 C 0.90097 1.01012 0.24699 0.0
C118 C 0.76798 1.00489 0.15063 0.0
C119 C 0.85068 1.00519 0.37456 0.0
O120 O 0.81264 0.9976 0.14407 0.0
O121 O 0.84033 0.98855 0.18142 0.0
O122 O 0.81238 0.04113 0.32608 0.0
O123 O 0.79535 0.0384 0.24848 0.0
O124 O 0.93338 0.05584 0.33758 0.0
O125 O 0.92396 0.06794 0.27131 0.0
O126 O 0.83828 0.05347 0.15978 0.0
O127 O 0.86864 0.0431 0.16784 0.0
Co128 Co 0.02408 0.8166 0.19512 0.0
Co129 Co 1.00301 0.83098 0.30488 0.0
Co130 Co 0.02965 0.87036 0.22512 0.0
H131 H 0.02696 0.84278 0.22484 0.0
O132 O 0.03047 0.83961 0.25465 0.0
H133 H 1.00302 0.85675 0.29782 0.0
O134 O 0.9994 0.85848 0.26724 0.0
Co135 Co 1.00473 0.88386 0.31832 0.0
O136 O 0.97841 0.86152 0.36934 0.0
O137 O 0.97525 0.82321 0.35724 0.0
O138 O 0.03843 0.91338 0.2945 0.0
O139 O 0.03287 0.90426 0.21267 0.0
O140 O 0.03836 0.81015 0.12911 0.0
O141 O 0.03272 0.78738 0.19159 0.0
O142 O 0.02601 0.88536 0.37715 0.0
O143 O 0.03107 0.8523 0.35653 0.0
C144 C 0.06255 0.86889 0.14594 0.0
C145 C 1.00351 0.7833 0.29725 0.0
C146 C 0.98531 0.90902 0.28926 0.0
C147 C 0.99045 0.83365 0.1485 0.0
C148 C 0.96838 0.8378 0.3792 0.0
C149 C 0.04322 0.92034 0.2484 0.0
C150 C 0.04022 0.79184 0.14645 0.0
C151 C 0.03646 0.87192 0.38395 0.0
O152 O 0.04924 0.84432 0.1431 0.0
O153 O 0.05946 0.881 0.18176 0.0
O154 O 1.00459 0.80083 0.32585 0.0
O155 O 1.00836 0.78645 0.24907 0.0
O156 O 1.00511 0.9179 0.31579 0.0
O157 O 0.97606 0.88567 0.28041 0.0
O158 O 0.9934 0.8148 0.15992 0.0
O159 O 1.00503 0.856 0.16644 0.0
Co160 Co 0.23247 0.23741 0.19537 0.0
Co161 Co 0.21787 0.20248 0.30615 0.0
Co162 Co 0.17827 0.19103 0.22753 0.0
H163 H 0.20621 0.2151 0.22639 0.0
O164 O 0.21002 0.22198 0.25597 0.0
H165 H 0.19174 0.17734 0.29939 0.0
O166 O 0.18947 0.17179 0.2689 0.0
Co167 Co 0.16427 0.15286 0.32088 0.0
O168 O 0.18421 0.15271 0.38132 0.0
O169 O 0.22437 0.1817 0.35904 0.0
O170 O 0.13455 0.15638 0.29798 0.0
O171 O 0.14364 0.16109 0.21594 0.0
O172 O 0.24001 0.25783 0.12841 0.0
O173 O 0.2607 0.27572 0.19257 0.0
O174 O 0.15863 0.17618 0.36479 0.0
O175 O 0.1976 0.21069 0.3579 0.0
C176 C 0.18059 0.22511 0.1473 0.0
C177 C 0.26597 0.25043 0.29699 0.0
C178 C 0.14386 0.10724 0.29803 0.0
C179 C 0.21376 0.18608 0.15221 0.0
C180 C 0.20824 0.16374 0.38821 0.0
C181 C 0.12765 0.15499 0.2521 0.0
C182 C 0.25728 0.27843 0.14664 0.0
C183 C 0.1748 0.19905 0.37615 0.0
O184 O 0.20497 0.23492 0.14296 0.0
O185 O 0.16851 0.21123 0.18495 0.0
O186 O 0.24886 0.23379 0.3263 0.0
O187 O 0.2625 0.25199 0.24894 0.0
O188 O 0.14434 0.11515 0.34206 0.0
O189 O 0.15533 0.12519 0.2672 0.0
O190 O 0.2334 0.20697 0.1653 0.0
O191 O 0.19143 0.18021 0.16768 0.0
Co192 Co 0.81547 0.34234 0.04914 0.0
Co193 Co 0.85416 0.3688 0.14161 0.0
Co194 Co 0.86623 0.3407 0.06408 0.0
H195 H 0.84075 0.34091 0.07081 0.0
O196 O 0.83543 0.33788 0.1015 0.0
H197 H 0.87877 0.36582 0.14211 0.0
O198 O 0.88548 0.36896 0.11236 0.0
Co199 Co 0.90145 0.36218 0.17241 0.0
O200 O 0.89932 0.38786 0.22352 0.0
O201 O 0.87401 0.39917 0.1833 0.0
O202 O 0.9163 0.34651 0.11989 0.0
O203 O 0.89768 0.34174 0.04328 0.0
O204 O 0.77775 0.32362 0.02847 0.0
O205 O 0.78838 0.32136 0.10237 0.0
O206 O 0.87145 0.33019 0.20235 0.0
O207 O 0.84468 0.34528 0.20193 0.0
C208 C 0.82693 0.30875 0.98504 0.0
C209 C 0.81159 0.37692 0.1217 0.0
C210 C 0.94214 0.37793 0.22135 0.0
C211 C 0.86141 0.37944 0.99452 0.0
C212 C 0.8889 0.40191 0.21967 0.0
C213 C 0.91447 0.3413 0.07194 0.0
C214 C 0.77023 0.31492 0.07218 0.0
C215 C 0.85061 0.32872 0.21629 0.0
O216 O 0.81513 0.32108 0.99042 0.0
O217 O 0.84565 0.31228 1.01361 0.0
O218 O 0.82328 0.37169 0.15572 0.0
O219 O 0.81188 0.37157 0.07525 0.0
O220 O 0.92178 0.37535 0.23916 0.0
O221 O 0.93939 0.37137 0.17571 0.0
O222 O 0.83871 0.37257 1.00745 0.0
O223 O 0.87326 0.36822 1.01092 0.0
Co224 Co 0.70467 0.50154 0.04937 0.0
Co225 Co 0.67847 0.51434 0.14301 0.0
Co226 Co 0.70695 0.55426 0.06429 0.0
H227 H 0.70631 0.52833 0.07125 0.0
O228 O 0.7092 0.52591 0.10195 0.0
H229 H 0.68233 0.54231 0.14338 0.0
O230 O 0.67917 0.54591 0.11363 0.0
Co231 Co 0.68678 0.56899 0.17316 0.0
O232 O 0.66257 0.54187 0.22653 0.0
O233 O 0.64844 0.50467 0.18617 0.0
O234 O 0.70267 0.5993 0.1203 0.0
O235 O 0.70634 0.58497 0.04342 0.0
O236 O 0.71484 0.47492 0.03186 0.0
O237 O 0.72525 0.49382 0.10097 0.0
O238 O 0.71848 0.57007 0.20195 0.0
O239 O 0.70253 0.52796 0.20265 0.0
C240 C 0.74179 0.54722 0.98998 0.0
C241 C 0.66711 0.46472 0.117 0.0
C242 C 0.6689 0.59313 0.21848 0.0
C243 C 0.6729 0.51377 0.98491 0.0
C244 C 0.64715 0.51763 0.22274 0.0
C245 C 0.70736 0.60244 0.07216 0.0
C246 C 0.72596 0.4774 0.0733 0.0
C247 C 0.71952 0.55047 0.21626 0.0
O248 O 0.73131 0.52341 0.99888 0.0
O249 O 0.73509 0.56184 1.01252 0.0
O250 O 0.67438 0.47989 0.15475 0.0
O251 O 0.67019 0.47351 0.07226 0.0
O252 O 0.68931 0.59376 0.23032 0.0
O253 O 0.65893 0.57911 0.18063 0.0
O254 O 0.68269 0.49975 0.9917 0.0
O255 O 0.67905 0.53369 1.01195 0.0
Co256 Co 0.55003 0.23162 0.05147 0.0
Co257 Co 0.53358 0.19409 0.146 0.0
Co258 Co 0.49517 0.18344 0.06485 0.0
H259 H 0.52178 0.20802 0.07206 0.0
O260 O 0.52378 0.21377 0.10238 0.0
H261 H 0.50546 0.17013 0.14529 0.0
O262 O 0.50209 0.16348 0.11549 0.0
Co263 Co 0.4785 0.14752 0.17429 0.0
O264 O 0.50454 0.14902 0.22843 0.0
O265 O 0.5422 0.17342 0.19061 0.0
O266 O 0.44882 0.13403 0.12029 0.0
O267 O 0.46377 0.15273 0.04393 0.0
O268 O 0.58308 0.26622 0.04916 0.0
O269 O 0.55194 0.26179 0.09076 0.0
O270 O 0.47785 0.17687 0.20954 0.0
O271 O 0.51944 0.20536 0.20353 0.0
C272 C 0.50652 0.22273 0.98343 0.0
C273 C 0.58477 0.22966 0.12518 0.0
C274 C 0.45329 0.10538 0.21882 0.0
C275 C 0.53747 0.18549 0.99421 0.0
C276 C 0.52883 0.15824 0.22576 0.0
C277 C 0.44598 0.13621 0.07225 0.0
C278 C 0.57466 0.27669 0.07809 0.0
C279 C 0.49717 0.1983 0.22112 0.0
O280 O 0.53046 0.23305 0.99119 0.0
O281 O 0.4898 0.2048 1.01181 0.0
O282 O 0.56805 0.22381 0.15976 0.0
O283 O 0.5788 0.22743 0.07859 0.0
O284 O 0.45504 0.12593 0.23353 0.0
O285 O 0.46546 0.10872 0.17841 0.0
O286 O 0.55412 0.20828 1.00482 0.0
O287 O 0.51493 0.17433 1.01364 0.0
Co288 Co 0.47735 0.35709 0.52885 0.0
Co289 Co 0.51198 0.37779 0.63834 0.0
Co290 Co 0.52477 0.3503 0.56018 0.0
H291 H 0.50012 0.35341 0.559 0.0
O292 O 0.49321 0.35003 0.58863 0.0
H293 H 0.53742 0.37751 0.63235 0.0
O294 O 0.54312 0.38082 0.60193 0.0
Co295 Co 0.56224 0.37558 0.65501 0.0
O296 O 0.56432 0.39905 0.71054 0.0
O297 O 0.53213 0.40585 0.69004 0.0
O298 O 0.55826 0.34222 0.63181 0.0
O299 O 0.5557 0.34702 0.5494 0.0
O300 O 0.44069 0.35173 0.52191 0.0
O301 O 0.45553 0.33941 0.46556 0.0
O302 O 0.53966 0.34724 0.70108 0.0
O303 O 0.50426 0.34972 0.69081 0.0
C304 C 0.4902 0.31788 0.48079 0.0
C305 C 0.4639 0.37748 0.62934 0.0
C306 C 0.60771 0.39906 0.63088 0.0
C307 C 0.52841 0.39003 0.48341 0.0
C308 C 0.55177 0.41053 0.71689 0.0
C309 C 0.56372 0.3395 0.58671 0.0
C310 C 0.43653 0.34082 0.47973 0.0
C311 C 0.51647 0.33963 0.71099 0.0
O312 O 0.48019 0.33226 0.47731 0.0
O313 O 0.50532 0.32027 0.51651 0.0
O314 O 0.48037 0.37665 0.65833 0.0
O315 O 0.46244 0.37272 0.58124 0.0
O316 O 0.59928 0.38551 0.66992 0.0
O317 O 0.59042 0.39988 0.60636 0.0
O318 O 0.50693 0.38772 0.49507 0.0
O319 O 0.53556 0.37487 0.501 0.0
Co320 Co 0.69144 0.14967 0.52746 0.0
Co321 Co 0.67113 0.16416 0.63879 0.0
Co322 Co 0.69622 0.2031 0.55738 0.0
H323 H 0.69411 0.17577 0.55738 0.0
O324 O 0.69801 0.17278 0.58699 0.0
H325 H 0.67149 0.19015 0.63244 0.0
O326 O 0.66707 0.19166 0.60237 0.0
Co327 Co 0.67456 0.21774 0.65346 0.0
O328 O 0.65315 0.19679 0.71226 0.0
O329 O 0.64414 0.15692 0.69272 0.0
O330 O 0.7061 0.24806 0.62372 0.0
O331 O 0.6981 0.23619 0.5433 0.0
O332 O 0.69892 0.11965 0.52326 0.0
O333 O 0.70684 0.14389 0.4623 0.0
O334 O 0.69735 0.21964 0.70951 0.0
O335 O 0.69996 0.1851 0.68944 0.0
C336 C 0.72915 0.20171 0.47708 0.0
C337 C 0.67163 0.11644 0.62955 0.0
C338 C 0.6545 0.24287 0.62777 0.0
C339 C 0.65653 0.1654 0.48223 0.0
C340 C 0.64107 0.17276 0.72021 0.0
C341 C 0.70862 0.25349 0.57675 0.0
C342 C 0.70754 0.12481 0.47893 0.0
C343 C 0.7069 0.20538 0.71584 0.0
O344 O 0.71666 0.17711 0.47532 0.0
O345 O 0.72525 0.21383 0.51171 0.0
O346 O 0.67266 0.13374 0.65882 0.0
O347 O 0.67607 0.11972 0.58131 0.0
O348 O 0.67313 0.25078 0.65743 0.0
O349 O 0.64689 0.22045 0.61336 0.0
O350 O 0.66041 0.147 0.4922 0.0
O351 O 0.67048 0.18766 0.50094 0.0
Co352 Co 0.89778 0.57047 0.52938 0.0
Co353 Co 0.88203 0.53443 0.63862 0.0
Co354 Co 0.8435 0.52292 0.55774 0.0
H355 H 0.87117 0.54749 0.55875 0.0
O356 O 0.87433 0.55405 0.58859 0.0
H357 H 0.85587 0.50927 0.63097 0.0
O358 O 0.85419 0.50377 0.6005 0.0
Co359 Co 0.828 0.48481 0.65109 0.0
O360 O 0.84765 0.48538 0.71296 0.0
O361 O 0.88818 0.5134 0.69119 0.0
O362 O 0.7963 0.48221 0.62058 0.0
O363 O 0.81002 0.49232 0.54103 0.0
O364 O 0.92471 0.59365 0.47575 0.0
O365 O 0.90546 0.60752 0.51742 0.0
O366 O 0.82177 0.50871 0.69176 0.0
O367 O 0.86145 0.54223 0.6903 0.0
C368 C 0.84638 0.55779 0.47846 0.0
C369 C 0.93063 0.58215 0.63137 0.0
C370 C 0.80701 0.43891 0.63064 0.0
C371 C 0.88112 0.51998 0.4846 0.0
C372 C 0.87163 0.49581 0.72038 0.0
C373 C 0.79205 0.48171 0.57336 0.0
C374 C 0.92174 0.61249 0.48335 0.0
C375 C 0.83811 0.53112 0.70554 0.0
O376 O 0.87087 0.56818 0.47549 0.0
O377 O 0.83396 0.54305 0.5148 0.0
O378 O 0.91286 0.56563 0.65978 0.0
O379 O 0.92771 0.5842 0.58324 0.0
O380 O 0.79797 0.44842 0.66055 0.0
O381 O 0.82823 0.4554 0.61316 0.0
O382 O 0.90031 0.54099 0.49865 0.0
O383 O 0.85852 0.5135 0.49918 0.0
Co384 Co 0.48063 0.67734 0.38588 0.0
Co385 Co 0.52015 0.70189 0.47653 0.0
Co386 Co 0.53143 0.67448 0.3963 0.0
H387 H 0.50598 0.67499 0.40455 0.0
O388 O 0.50095 0.67148 0.43536 0.0
H389 H 0.54461 0.69881 0.47537 0.0
O390 O 0.55113 0.70218 0.44544 0.0
Co391 Co 0.56734 0.69503 0.50469 0.0
O392 O 0.56485 0.7195 0.55859 0.0
O393 O 0.54044 0.73192 0.51856 0.0
O394 O 0.5812 0.67902 0.45094 0.0
O395 O 0.56277 0.67536 0.37438 0.0
O396 O 0.44512 0.67376 0.38454 0.0
O397 O 0.45076 0.64604 0.41925 0.0
O398 O 0.53756 0.66266 0.53412 0.0
O399 O 0.51092 0.67786 0.53599 0.0
C400 C 0.48938 0.64092 0.32269 0.0
C401 C 0.48054 0.71332 0.45919 0.0
C402 C 0.60911 0.71269 0.55063 0.0
C403 C 0.52623 0.71373 0.32864 0.0
C404 C 0.55468 0.73378 0.55546 0.0
C405 C 0.57932 0.67423 0.40279 0.0
C406 C 0.43509 0.65322 0.40913 0.0
C407 C 0.51685 0.66115 0.54915 0.0
O408 O 0.47654 0.65183 0.33264 0.0
O409 O 0.51051 0.6467 0.345 0.0
O410 O 0.48972 0.70497 0.4926 0.0
O411 O 0.48091 0.70872 0.41236 0.0
O412 O 0.58915 0.69239 0.56254 0.0
O413 O 0.60539 0.72271 0.51238 0.0
O414 O 0.50376 0.70709 0.34297 0.0
O415 O 0.53812 0.70232 0.34404 0.0
Co416 Co 0.37054 0.83424 0.38175 0.0
Co417 Co 0.34814 0.84833 0.47763 0.0
Co418 Co 0.37397 0.88756 0.39653 0.0
H419 H 0.37349 0.86165 0.40314 0.0
O420 O 0.3776 0.85985 0.43331 0.0
H421 H 0.35047 0.87576 0.47737 0.0
O422 O 0.34681 0.87889 0.44768 0.0
Co423 Co 0.35329 0.90202 0.50703 0.0
O424 O 0.32778 0.87473 0.55898 0.0
O425 O 0.31892 0.83787 0.52284 0.0
O426 O 0.36858 0.93201 0.45327 0.0
O427 O 0.37271 0.91803 0.37627 0.0
O428 O 0.37966 0.8065 0.3673 0.0
O429 O 0.39954 0.83417 0.42192 0.0
O430 O 0.38433 0.90463 0.54192 0.0
O431 O 0.37363 0.86373 0.53454 0.0
C432 C 0.40188 0.87824 0.31258 0.0
C433 C 0.33908 0.79742 0.45982 0.0
C434 C 0.33761 0.92705 0.55597 0.0
C435 C 0.33353 0.84388 0.32927 0.0
C436 C 0.31502 0.85014 0.5572 0.0
C437 C 0.37333 0.93526 0.40515 0.0
C438 C 0.39693 0.8146 0.40017 0.0
C439 C 0.38786 0.88609 0.55265 0.0
O440 O 0.38855 0.8542 0.31949 0.0
O441 O 0.40089 0.89447 0.34268 0.0
O442 O 0.34612 0.81507 0.49277 0.0
O443 O 0.34216 0.80214 0.41264 0.0
O444 O 0.34061 0.90953 0.57401 0.0
O445 O 0.34369 0.93054 0.50999 0.0
O446 O 0.3401 0.82771 0.34134 0.0
O447 O 0.34531 0.86697 0.34568 0.0
Co448 Co 0.21318 0.56811 0.38638 0.0
Co449 Co 0.19937 0.5282 0.47704 0.0
Co450 Co 0.16062 0.51608 0.39665 0.0
H451 H 0.18609 0.54202 0.40519 0.0
O452 O 0.18746 0.54688 0.43605 0.0
H453 H 0.17193 0.50342 0.4764 0.0
O454 O 0.16891 0.49681 0.44657 0.0
Co455 Co 0.14557 0.48058 0.50602 0.0
O456 O 0.17304 0.48242 0.55784 0.0
O457 O 0.20989 0.5085 0.51902 0.0
O458 O 0.11597 0.46637 0.45153 0.0
O459 O 0.13081 0.48436 0.37458 0.0
O460 O 0.24698 0.60188 0.39093 0.0
O461 O 0.21365 0.5987 0.42085 0.0
O462 O 0.1431 0.51001 0.53753 0.0
O463 O 0.18489 0.53732 0.53685 0.0
C464 C 0.16745 0.55857 0.32481 0.0
C465 C 0.24937 0.56584 0.45659 0.0
C466 C 0.1208 0.43972 0.55512 0.0
C467 C 0.20288 0.5253 0.31913 0.0
C468 C 0.19757 0.49323 0.5548 0.0
C469 C 0.11312 0.46795 0.40322 0.0
C470 C 0.23722 0.61285 0.41445 0.0
C471 C 0.16237 0.53097 0.55159 0.0
O472 O 0.19092 0.57258 0.33607 0.0
O473 O 0.15301 0.53647 0.34495 0.0
O474 O 0.23274 0.55895 0.49148 0.0
O475 O 0.24317 0.56469 0.41022 0.0
O476 O 0.11608 0.44281 0.51023 0.0
O477 O 0.13933 0.45983 0.57205 0.0
O478 O 0.21609 0.54901 0.32841 0.0
O479 O 0.18265 0.51035 0.34468 0.0
Co480 Co 0.14317 0.69015 0.86288 0.0
Co481 Co 0.17822 0.71097 0.97282 0.0
Co482 Co 0.19046 0.68343 0.89406 0.0
H483 H 0.16596 0.68665 0.89319 0.0
O484 O 0.15914 0.68339 0.92287 0.0
H485 H 0.20355 0.71054 0.96606 0.0
O486 O 0.20916 0.71395 0.93559 0.0
Co487 Co 0.22814 0.708 0.98778 0.0
O488 O 0.22844 0.72843 0.04746 0.0
O489 O 0.1986 0.73844 0.02567 0.0
O490 O 0.22298 0.67427 0.96434 0.0
O491 O 0.22121 0.67994 0.8823 0.0
O492 O 0.11987 0.69391 0.80969 0.0
O493 O 0.10645 0.66037 0.85023 0.0
O494 O 0.20517 0.67876 0.0315 0.0
O495 O 0.17038 0.68257 0.02478 0.0
C496 C 0.15634 0.65127 0.8141 0.0
C497 C 0.13032 0.71102 0.96385 0.0
C498 C 0.27368 0.73184 0.96372 0.0
C499 C 0.19439 0.72376 0.81943 0.0
C500 C 0.2169 0.74088 0.05447 0.0
C501 C 0.22871 0.67179 0.91938 0.0
C502 C 0.10129 0.6718 0.8167 0.0
C503 C 0.1822 0.67156 0.04278 0.0
O504 O 0.14593 0.66533 0.81046 0.0
O505 O 0.17078 0.65352 0.85101 0.0
O506 O 0.14671 0.71005 0.99295 0.0
O507 O 0.12879 0.70616 0.91573 0.0
O508 O 0.26482 0.71565 0.9987 0.0
O509 O 0.25681 0.7351 0.94341 0.0
O510 O 0.1733 0.72198 0.83259 0.0
O511 O 0.20067 0.70755 0.83459 0.0
Co512 Co 0.35763 0.48264 0.86175 0.0
Co513 Co 0.33755 0.4985 0.97117 0.0
Co514 Co 0.36432 0.5368 0.88947 0.0
H515 H 0.36124 0.5092 0.89087 0.0
O516 O 0.36471 0.50609 0.92075 0.0
H517 H 0.33862 0.52469 0.96291 0.0
O518 O 0.33458 0.52613 0.93245 0.0
Co519 Co 0.34264 0.55294 0.98176 0.0
O520 O 0.32241 0.53323 0.04291 0.0
O521 O 0.31062 0.49255 0.02414 0.0
O522 O 0.3738 0.58352 0.95244 0.0
O523 O 0.36719 0.57021 0.87274 0.0
O524 O 0.35494 0.45825 0.80376 0.0
O525 O 0.38502 0.47192 0.85414 0.0
O526 O 0.37187 0.55879 0.02478 0.0
O527 O 0.36621 0.51932 0.02232 0.0
C528 C 0.39688 0.53401 0.81107 0.0
C529 C 0.33682 0.45006 0.96443 0.0
C530 C 0.32144 0.57709 0.95714 0.0
C531 C 0.32362 0.49905 0.81686 0.0
C532 C 0.30925 0.50931 0.0519 0.0
C533 C 0.37682 0.5881 0.90523 0.0
C534 C 0.37505 0.45831 0.81576 0.0
C535 C 0.37813 0.54257 0.03815 0.0
O536 O 0.38294 0.50949 0.80844 0.0
O537 O 0.39395 0.54649 0.84634 0.0
O538 O 0.33796 0.46774 0.99279 0.0
O539 O 0.34172 0.45301 0.9163 0.0
O540 O 0.34007 0.58527 0.98682 0.0
O541 O 0.31426 0.55478 0.94252 0.0
O542 O 0.32559 0.47991 0.83064 0.0
O543 O 0.33974 0.52167 0.83131 0.0
Co544 Co 0.56576 0.90435 0.8615 0.0
Co545 Co 0.54922 0.86879 0.97032 0.0
Co546 Co 0.51066 0.85796 0.88951 0.0
H547 H 0.53865 0.8821 0.89051 0.0
O548 O 0.5419 0.88874 0.9203 0.0
H549 H 0.5229 0.84366 0.96235 0.0
O550 O 0.52123 0.83846 0.93166 0.0
Co551 Co 0.49489 0.81877 0.98147 0.0
O552 O 0.51587 0.81414 0.03499 0.0
O553 O 0.55537 0.84759 0.02236 0.0
O554 O 0.46421 0.81972 0.95459 0.0
O555 O 0.47669 0.82771 0.87414 0.0
O556 O 0.59714 0.94118 0.85516 0.0
O557 O 0.5707 0.92613 0.79752 0.0
O558 O 0.48935 0.84214 0.02565 0.0
O559 O 0.5286 0.87644 0.02174 0.0
C560 C 0.51482 0.8938 0.81132 0.0
C561 C 0.59801 0.91623 0.96388 0.0
C562 C 0.47234 0.77341 0.95658 0.0
C563 C 0.54767 0.85347 0.81764 0.0
C564 C 0.53967 0.82659 0.04489 0.0
C565 C 0.45917 0.81876 0.90766 0.0
C566 C 0.59089 0.94528 0.81235 0.0
C567 C 0.50556 0.86476 0.03853 0.0
O568 O 0.53913 0.90297 0.80856 0.0
O569 O 0.50145 0.8786 0.84642 0.0
O570 O 0.5801 0.89983 0.99218 0.0
O571 O 0.59539 0.91808 0.91563 0.0
O572 O 0.46356 0.78284 0.98733 0.0
O573 O 0.49412 0.78959 0.94097 0.0
O574 O 0.56721 0.874 0.83248 0.0
O575 O 0.52513 0.848 0.83067 0.0
H576 H 0.08717 0.15121 0.82849 0.0
H577 H 0.06184 0.10748 0.69041 0.0
H578 H 0.11166 0.13009 0.84998 0.0
H579 H 0.08628 0.08678 0.71177 0.0
H580 H 0.16182 0.09009 0.7239 0.0
H581 H 0.13969 0.11425 0.72315 0.0
H582 H 0.09938 0.07586 0.85923 0.0
H583 H 0.12175 0.0512 0.8601 0.0
C584 C 0.08675 0.13704 0.80299 0.0
C585 C 0.073 0.1312 0.75741 0.0
C586 C 0.10054 0.12491 0.8155 0.0
C587 C 0.10081 0.10706 0.78229 0.0
C588 C 0.08637 0.10065 0.73772 0.0
C589 C 0.0725 0.11253 0.72546 0.0
C590 C 0.14869 0.08719 0.75441 0.0
C591 C 0.14307 0.06852 0.79159 0.0
C592 C 0.13611 0.10102 0.75394 0.0
C593 C 0.11769 0.0965 0.79065 0.0
C594 C 0.11359 0.07952 0.8306 0.0
C595 C 0.12635 0.06554 0.83114 0.0
H596 H 0.95171 0.10012 0.81968 0.0
H597 H 0.02208 0.09942 0.8021 0.0
H598 H 0.92774 0.05342 0.81602 0.0
H599 H 0.99844 0.05284 0.79938 0.0
H600 H 0.94716 0.98259 0.7017 0.0
H601 H 0.97173 0.02678 0.72923 0.0
H602 H 0.91772 1.01108 0.84984 0.0
H603 H 0.8928 0.9667 0.82162 0.0
C604 C 0.96203 0.08981 0.8174 0.0
C605 C 0.98857 0.10302 0.81131 0.0
C606 C 0.94838 0.06316 0.81513 0.0
C607 C 0.96123 0.04956 0.80646 0.0
C608 C 0.98803 0.06288 0.80512 0.0
C609 C 1.00159 0.08945 0.8072 0.0
C610 C 0.94057 0.98856 0.73414 0.0
C611 C 0.91806 0.97135 0.75937 0.0
C612 C 0.95478 0.01378 0.75031 0.0
C613 C 0.9468 0.02229 0.79212 0.0
C614 C 0.92428 1.00502 0.81751 0.0
C615 C 0.91005 0.9797 0.80133 0.0
H616 H 0.95081 0.93927 0.8433 0.0
H617 H 0.94322 0.87633 0.75399 0.0
H618 H 0.99753 0.95959 0.83814 0.0
H619 H 0.9895 0.89617 0.74939 0.0
H620 H 0.06303 0.95953 0.67662 0.0
H621 H 0.01798 0.93608 0.69948 0.0
H622 H 0.03764 0.95566 0.85632 0.0
H623 H 0.08299 0.97918 0.83336 0.0
C624 C 0.9592 0.92935 0.82456 0.0
C625 C 0.94374 0.90635 0.79913 0.0
C626 C 0.98581 0.94096 0.82134 0.0
C627 C 0.99699 0.92959 0.79256 0.0
C628 C 0.98133 0.9055 0.77101 0.0
C629 C 0.95493 0.89406 0.77402 0.0
C630 C 0.05774 0.95874 0.71596 0.0
C631 C 0.07639 0.97096 0.75325 0.0
C632 C 0.03202 0.94522 0.72912 0.0
C633 C 0.02443 0.94384 0.77978 0.0
C634 C 0.04305 0.95639 0.81709 0.0
C635 C 0.0689 0.9697 0.80395 0.0
H636 H 0.93662 0.89296 0.25854 0.0
H637 H 1.0111 0.96005 0.27311 0.0
H638 H 0.91892 0.91973 0.23269 0.0
H639 H 0.99395 0.98669 0.24444 0.0
H640 H 0.94559 0.0225 0.29081 0.0
H641 H 0.96807 0.9991 0.28799 0.0
H642 H 0.91565 0.94905 0.17419 0.0
H643 H 0.89264 0.97285 0.17799 0.0
C644 C 0.94925 0.9134 0.25515 0.0
C645 C 0.97501 0.92461 0.26892 0.0
C646 C 0.93922 0.92871 0.23973 0.0
C647 C 0.95497 0.95541 0.23701 0.0
C648 C 0.98117 0.96626 0.24728 0.0
C649 C 0.99101 0.95105 0.26376 0.0
C650 C 0.93925 1.00697 0.26413 0.0
C651 C 0.91734 0.99938 0.23479 0.0
C652 C 0.95226 0.99356 0.26223 0.0
C653 C 0.94364 0.97206 0.231 0.0
C654 C 0.92262 0.9654 0.199 0.0
C655 C 0.90961 0.97912 0.20068 0.0
H656 H 0.13253 0.08688 0.20311 0.0
H657 H 0.12517 0.06647 0.3612 0.0
H658 H 0.11023 0.04145 0.18034 0.0
H659 H 0.10317 0.02141 0.33856 0.0
H660 H 0.08987 0.94663 0.28876 0.0
H661 H 0.11647 0.99289 0.2935 0.0
H662 H 0.06447 1.00123 0.19426 0.0
H663 H 0.03786 0.95444 0.18892 0.0
C664 C 0.12627 0.07268 0.23287 0.0
C665 C 0.13071 0.08008 0.28391 0.0
C666 C 0.11344 0.04679 0.21983 0.0
C667 C 0.1053 0.02803 0.25766 0.0
C668 C 0.10965 0.03553 0.30861 0.0
C669 C 0.12212 0.06128 0.32161 0.0
C670 C 0.0846 0.95837 0.26664 0.0
C671 C 0.06192 0.94721 0.23859 0.0
C672 C 0.09967 0.98478 0.26965 0.0
C673 C 0.0922 1.00054 0.24512 0.0
C674 C 0.07062 0.98942 0.21347 0.0
C675 C 0.05551 0.96277 0.21017 0.0
H676 H 0.09958 0.16867 0.30757 0.0
H677 H 0.09545 0.12354 0.1779 0.0
H678 H 0.05335 0.14815 0.3093 0.0
H679 H 0.04846 0.10279 0.17972 0.0
H680 H 0.96238 0.09477 0.20976 0.0
H681 H 1.0078 0.11757 0.18613 0.0
H682 H 0.02621 0.09476 0.32725 0.0
H683 H 0.98125 0.07205 0.35085 0.0
C684 C 0.08873 0.15482 0.27853 0.0
C685 C 0.10087 0.14729 0.24308 0.0
C686 C 0.06235 0.14316 0.27956 0.0
C687 C 0.04763 0.12379 0.24513 0.0
C688 C 0.05967 0.11778 0.20656 0.0
C689 C 0.08637 0.12961 0.20544 0.0
C690 C 0.9762 0.09462 0.23554 0.0
C691 C 0.9685 0.08212 0.28255 0.0
C692 C 1.00199 0.1074 0.22178 0.0
C693 C 0.02019 0.10786 0.2551 0.0
C694 C 1.01235 0.09469 0.30123 0.0
C695 C 0.98673 0.08187 0.31479 0.0
H696 H 0.76188 0.3576 0.10149 0.0
H697 H 0.82698 0.42258 0.16803 0.0
H698 H 0.73897 0.38103 0.09918 0.0
H699 H 0.8043 0.44665 0.16442 0.0
H700 H 0.74835 0.47815 0.16352 0.0
H701 H 0.76684 0.45178 0.18824 0.0
H702 H 0.74815 0.41614 0.04116 0.0
H703 H 0.72948 0.44199 1.01702 0.0
C704 C 0.77094 0.37669 0.11708 0.0
C705 C 0.79609 0.3884 0.13486 0.0
C706 C 0.75797 0.3902 0.11529 0.0
C707 C 0.77011 0.41587 0.13037 0.0
C708 C 0.79449 0.42688 0.15251 0.0
C709 C 0.80744 0.41315 0.15481 0.0
C710 C 0.74823 0.46462 0.13665 0.0
C711 C 0.73751 0.46204 0.08837 0.0
C712 C 0.75879 0.44959 0.15079 0.0
C713 C 0.75861 0.43168 0.11693 0.0
C714 C 0.748 0.42933 0.06858 0.0
C715 C 0.73752 0.44429 0.05452 0.0
H716 H 0.64177 0.43331 0.19847 0.0
H717 H 0.6683 0.43331 0.04687 0.0
H718 H 0.62106 0.38629 0.20027 0.0
H719 H 0.64808 0.38755 0.04867 0.0
H720 H 0.62564 0.30788 0.06725 0.0
H721 H 0.65085 0.35281 0.08986 0.0
H722 H 0.58363 0.35026 0.15179 0.0
H723 H 0.55842 0.30485 0.1303 0.0
C724 C 0.64352 0.42338 0.16609 0.0
C725 C 0.65654 0.43695 0.12252 0.0
C726 C 0.63164 0.3966 0.16699 0.0
C727 C 0.63316 0.38331 0.12474 0.0
C728 C 0.64695 0.39716 0.08221 0.0
C729 C 0.6584 0.42352 0.08108 0.0
C730 C 0.6163 0.31683 0.08621 0.0
C731 C 0.59001 0.30316 0.09593 0.0
C732 C 0.63074 0.34249 0.09938 0.0
C733 C 0.61912 0.35509 0.122 0.0
C734 C 0.59311 0.34099 0.13467 0.0
C735 C 0.57865 0.31515 0.12183 0.0
H736 H 0.72899 0.29141 1.01076 0.0
H737 H 0.75094 0.307 0.16768 0.0
H738 H 0.68413 0.26851 0.03559 0.0
H739 H 0.70579 0.28426 0.19252 0.0
H740 H 0.61877 0.27115 0.17968 0.0
H741 H 0.66548 0.29103 0.1742 0.0
H742 H 0.65662 0.22668 0.08771 0.0
H743 H 0.61039 0.20709 0.09309 0.0
C744 C 0.72417 0.28981 0.05053 0.0
C745 C 0.74329 0.30062 0.08734 0.0
C746 C 0.69859 0.27669 0.06475 0.0
C747 C 0.69167 0.27446 0.11599 0.0
C748 C 0.71075 0.28567 0.15287 0.0
C749 C 0.73645 0.29847 0.13865 0.0
C750 C 0.62697 0.26086 0.16165 0.0
C751 C 0.61129 0.23766 0.137 0.0
C752 C 0.65356 0.27224 0.15818 0.0
C753 C 0.66443 0.26046 0.12986 0.0
C754 C 0.64861 0.23621 0.1092 0.0
C755 C 0.62225 0.22494 0.11265 0.0
H756 H 0.59789 0.34197 0.65433 0.0
H757 H 0.56756 0.31241 0.50619 0.0
H758 H 0.62219 0.32064 0.65306 0.0
H759 H 0.59278 0.29063 0.50464 0.0
H760 H 0.61014 0.22766 0.57575 0.0
H761 H 0.59133 0.25397 0.55318 0.0
H762 H 0.65764 0.32037 0.61363 0.0
H763 H 0.67563 0.29398 0.63834 0.0
C764 C 0.59679 0.33126 0.62081 0.0
C765 C 0.5807 0.32882 0.58037 0.0
C766 C 0.61099 0.31913 0.61995 0.0
C767 C 0.60962 0.30408 0.5786 0.0
C768 C 0.59416 0.30213 0.53706 0.0
C769 C 0.57991 0.31466 0.53774 0.0
C770 C 0.62066 0.24792 0.58387 0.0
C771 C 0.64397 0.25873 0.60994 0.0
C772 C 0.61008 0.26302 0.57033 0.0
C773 C 0.62287 0.28917 0.58219 0.0
C774 C 0.64708 0.30017 0.60492 0.0
C775 C 0.65734 0.28506 0.61928 0.0
H776 H 0.82375 0.41512 0.56677 0.0
H777 H 0.7589 0.40245 0.65669 0.0
H778 H 0.80021 0.37069 0.53831 0.0
H779 H 0.73542 0.35822 0.62811 0.0
H780 H 0.69217 0.28511 0.54363 0.0
H781 H 0.7167 0.33191 0.54784 0.0
H782 H 0.78444 0.32861 0.58523 0.0
H783 H 0.75967 0.28201 0.58237 0.0
C784 C 0.80449 0.40284 0.5804 0.0
C785 C 0.79319 0.41208 0.61427 0.0
C786 C 0.79102 0.37752 0.56394 0.0
C787 C 0.76595 0.36117 0.58061 0.0
C788 C 0.75456 0.37057 0.61393 0.0
C789 C 0.76811 0.39575 0.63082 0.0
C790 C 0.71247 0.29458 0.55104 0.0
C791 C 0.72422 0.28033 0.56268 0.0
C792 C 0.72644 0.32122 0.55378 0.0
C793 C 0.75238 0.33378 0.56735 0.0
C794 C 0.76453 0.31943 0.5744 0.0
C795 C 0.75045 0.29284 0.57264 0.0
H796 H 0.76349 0.50287 0.5477 0.0
H797 H 0.76072 0.43089 0.56813 0.0
H798 H 0.71687 0.48114 0.55216 0.0
H799 H 0.71419 0.40896 0.57236 0.0
H800 H 0.64559 0.39366 0.67298 0.0
H801 H 0.68943 0.41197 0.64384 0.0
H802 H 0.67366 0.44838 0.5195 0.0
H803 H 0.62956 0.43006 0.54904 0.0
C804 C 0.75275 0.48223 0.55071 0.0
C805 C 0.76538 0.46838 0.55748 0.0
C806 C 0.72613 0.4698 0.55355 0.0
C807 C 0.71198 0.44343 0.56362 0.0
C808 C 0.72466 0.42936 0.5655 0.0
C809 C 0.75119 0.4418 0.56264 0.0
C810 C 0.65147 0.40559 0.63947 0.0
C811 C 0.63431 0.41066 0.61353 0.0
C812 C 0.67648 0.41581 0.62237 0.0
C813 C 0.68487 0.43137 0.57902 0.0
C814 C 0.66768 0.43645 0.55299 0.0
C815 C 0.64253 0.42604 0.56996 0.0
H816 H 0.50449 0.76464 0.46504 0.0
H817 H 0.43103 0.69646 0.47985 0.0
H818 H 0.48379 0.79043 0.4592 0.0
H819 H 0.4101 0.72205 0.47375 0.0
H820 H 0.38877 0.76897 0.36519 0.0
H821 H 0.40848 0.74469 0.39436 0.0
H822 H 0.45465 0.80474 0.49971 0.0
H823 H 0.43457 0.82904 0.47086 0.0
C824 C 0.48395 0.7554 0.4693 0.0
C825 C 0.4692 0.72876 0.47324 0.0
C826 C 0.47211 0.77007 0.46572 0.0
C827 C 0.44535 0.75816 0.46528 0.0
C828 C 0.43075 0.73165 0.47337 0.0
C829 C 0.44264 0.71705 0.47732 0.0
C830 C 0.40315 0.77702 0.3945 0.0
C831 C 0.4102 0.80089 0.41568 0.0
C832 C 0.4142 0.763 0.41164 0.0
C833 C 0.43281 0.7727 0.44981 0.0
C834 C 0.44025 0.7968 0.47042 0.0
C835 C 0.42887 0.81071 0.45376 0.0
H836 H 0.35455 0.76507 0.43135 0.0
H837 H 0.29682 0.76932 0.51847 0.0
H838 H 0.33015 0.71916 0.43335 0.0
H839 H 0.27206 0.72257 0.52266 0.0
H840 H 0.22096 0.64646 0.43492 0.0
H841 H 0.24707 0.69067 0.46262 0.0
H842 H 0.31254 0.68015 0.47317 0.0
H843 H 0.28692 0.63701 0.44097 0.0
C844 C 0.33702 0.75602 0.45279 0.0
C845 C 0.32759 0.7706 0.47485 0.0
C846 C 0.32293 0.72956 0.45427 0.0
C847 C 0.29892 0.71697 0.47792 0.0
C848 C 0.29034 0.73166 0.50355 0.0
C849 C 0.30463 0.75838 0.50197 0.0
C850 C 0.24093 0.65374 0.44343 0.0
C851 C 0.25214 0.63868 0.4351 0.0
C852 C 0.25584 0.67892 0.46001 0.0
C853 C 0.28204 0.68913 0.46978 0.0
C854 C 0.29263 0.67321 0.46476 0.0
C855 C 0.27796 0.64844 0.44654 0.0
H856 H 0.27768 0.54653 0.42151 0.0
H857 H 0.28118 0.60646 0.51503 0.0
H858 H 0.32413 0.56731 0.42209 0.0
H859 H 0.32807 0.62799 0.51421 0.0
H860 H 0.40127 0.6703 0.40505 0.0
H861 H 0.35676 0.64781 0.43259 0.0
H862 H 0.3643 0.58355 0.47957 0.0
H863 H 0.40904 0.60623 0.45285 0.0
C864 C 0.28851 0.56381 0.44341 0.0
C865 C 0.27617 0.57504 0.4682 0.0
C866 C 0.31501 0.57567 0.4438 0.0
C867 C 0.32957 0.59927 0.46794 0.0
C868 C 0.31715 0.60977 0.49534 0.0
C869 C 0.29048 0.59747 0.49608 0.0
C870 C 0.39347 0.65148 0.42171 0.0
C871 C 0.40844 0.63986 0.42646 0.0
C872 C 0.36815 0.63877 0.438 0.0
C873 C 0.35729 0.61409 0.45853 0.0
C874 C 0.37236 0.60264 0.46405 0.0
C875 C 0.39783 0.61552 0.44853 0.0
H876 H 0.34131 0.62785 0.97037 0.0
H877 H 0.27783 0.56173 0.90211 0.0
H878 H 0.32256 0.65369 0.94651 0.0
H879 H 0.25843 0.5876 0.87973 0.0
H880 H 0.23595 0.6487 0.83536 0.0
H881 H 0.26158 0.6273 0.83252 0.0
H882 H 0.28384 0.64881 0.9878 0.0
H883 H 0.259 0.66951 0.99078 0.0
C884 C 0.32335 0.61887 0.9501 0.0
C885 C 0.31063 0.59269 0.93926 0.0
C886 C 0.31274 0.6337 0.93606 0.0
C887 C 0.2889 0.62255 0.91184 0.0
C888 C 0.2769 0.59668 0.89808 0.0
C889 C 0.28778 0.58184 0.91154 0.0
C890 C 0.24671 0.64909 0.86836 0.0
C891 C 0.24544 0.66078 0.9132 0.0
C892 C 0.26122 0.63682 0.86683 0.0
C893 C 0.27491 0.6367 0.90979 0.0
C894 C 0.27402 0.64904 0.95373 0.0
C895 C 0.25952 0.66081 0.95544 0.0
H896 H 0.4278 0.61791 0.90701 0.0
H897 H 0.35834 0.61818 0.8733 0.0
H898 H 0.45129 0.6645 0.90861 0.0
H899 H 0.38165 0.665 0.87554 0.0
H900 H 0.42352 0.73726 0.97957 0.0
H901 H 0.40038 0.69296 0.95126 0.0
H902 H 0.46587 0.70562 0.86356 0.0
H903 H 0.48912 0.74994 0.89228 0.0
C904 C 0.41786 0.62811 0.89789 0.0
C905 C 0.39148 0.6148 0.88969 0.0
C906 C 0.43121 0.65473 0.89895 0.0
C907 C 0.41823 0.66835 0.89275 0.0
C908 C 0.39206 0.65494 0.88089 0.0
C909 C 0.37879 0.62827 0.87914 0.0
C910 C 0.43292 0.73057 0.95413 0.0
C911 C 0.45819 0.74685 0.93865 0.0
C912 C 0.41957 0.70534 0.93738 0.0
C913 C 0.43131 0.6959 0.90501 0.0
C914 C 0.45642 0.71238 0.88866 0.0
C915 C 0.46971 0.73767 0.9052 0.0
H916 H 0.43027 0.84098 0.90372 0.0
H917 H 0.42779 0.76905 0.88535 0.0
H918 H 0.38369 0.81876 0.90779 0.0
H919 H 0.38111 0.74657 0.88918 0.0
H920 H 0.30991 0.72043 0.99217 0.0
H921 H 0.35413 0.74076 0.96402 0.0
H922 H 0.3417 0.79089 0.86661 0.0
H923 H 0.2973 0.77053 0.89515 0.0
C924 C 0.41957 0.82047 0.8983 0.0
C925 C 0.43229 0.80661 0.89357 0.0
C926 C 0.39297 0.80773 0.90081 0.0
C927 C 0.37878 0.7809 0.89936 0.0
C928 C 0.39158 0.76724 0.89097 0.0
C929 C 0.41819 0.78003 0.88817 0.0
C930 C 0.31662 0.73578 0.96473 0.0
C931 C 0.30034 0.74416 0.94629 0.0
C932 C 0.34184 0.7472 0.94809 0.0
C933 C 0.35133 0.76732 0.91283 0.0
C934 C 0.33491 0.77548 0.8939 0.0
C935 C 0.30957 0.76388 0.91027 0.0
H936 H 0.20598 0.09432 0.67724 0.0
H937 H 0.21159 0.04653 0.56371 0.0
H938 H 0.2169 0.12785 0.61476 0.0
H939 H 0.2214 0.07968 0.49981 0.0
H940 H 0.24298 0.14679 0.39252 0.0
H941 H 0.24698 0.12155 0.46135 0.0
H942 H 0.19322 0.13225 0.55012 0.0
H943 H 0.18988 0.15749 0.48266 0.0
C944 C 0.21025 0.09131 0.63897 0.0
C945 C 0.20826 0.06796 0.62549 0.0
C946 C 0.21616 0.1104 0.60281 0.0
C947 C 0.21958 0.10648 0.55161 0.0
C948 C 0.21914 0.08363 0.53874 0.0
C949 C 0.21357 0.06458 0.57535 0.0
C950 C 0.23288 0.1445 0.42765 0.0
C951 C 0.2164 0.15444 0.43249 0.0
C952 C 0.2348 0.12968 0.46682 0.0
C953 C 0.22043 0.12468 0.51172 0.0
C954 C 0.20504 0.13589 0.51699 0.0
C955 C 0.20305 0.15043 0.47809 0.0
H956 H 1.01023 0.17189 0.55881 0.0
H957 H 0.95236 0.16588 0.66153 0.0
H958 H 0.97835 0.15133 0.49282 0.0
H959 H 0.91988 0.1449 0.59508 0.0
H960 H 0.87264 0.07288 0.48514 0.0
H961 H 0.9 0.10241 0.55104 0.0
H962 H 0.94861 0.1549 0.4359 0.0
H963 H 0.92132 0.12529 0.3706 0.0
C964 C 0.99072 0.16688 0.56668 0.0
C965 C 0.98392 0.17103 0.61496 0.0
C966 C 0.97234 0.15502 0.52881 0.0
C967 C 0.94641 0.14647 0.53827 0.0
C968 C 0.93964 0.15121 0.58638 0.0
C969 C 0.95824 0.16351 0.62427 0.0
C970 C 0.8885 0.09128 0.47412 0.0
C971 C 0.89445 0.09709 0.42273 0.0
C972 C 0.90433 0.10817 0.51186 0.0
C973 C 0.92675 0.13104 0.49897 0.0
C974 C 0.9317 0.13743 0.44739 0.0
C975 C 0.91583 0.12065 0.40986 0.0
H976 H 0.84625 0.82174 0.5814 0.0
H977 H 0.91871 0.85979 0.65842 0.0
H978 H 0.86574 0.80976 0.51313 0.0
H979 H 0.93805 0.84799 0.59106 0.0
H980 H 0.96846 0.81821 0.47264 0.0
H981 H 0.94123 0.81479 0.54446 0.0
H982 H 0.89688 0.83476 0.44642 0.0
H983 H 0.92403 0.83812 0.37539 0.0
C984 C 0.8661 0.82691 0.58446 0.0
C985 C 0.88091 0.84175 0.62529 0.0
C986 C 0.87737 0.82026 0.54517 0.0
C987 C 0.90357 0.82793 0.54631 0.0
C988 C 0.91784 0.84142 0.58886 0.0
C989 C 0.90673 0.84834 0.62749 0.0
C990 C 0.95219 0.82073 0.4662 0.0
C991 C 0.94805 0.82793 0.41823 0.0
C992 C 0.93678 0.81916 0.50743 0.0
C993 C 0.91682 0.82461 0.50148 0.0
C994 C 0.91173 0.83006 0.45258 0.0
C995 C 0.92728 0.83193 0.4117 0.0
H996 H 0.06155 0.18063 0.92335 0.0
H997 H 0.09394 0.2625 0.92555 0.0
H998 H 0.09402 0.18439 0.9822 0.0
H999 H 0.12672 0.26617 0.98531 0.0
H1000 H 0.19433 0.25832 0.06396 0.0
H1001 H 0.16558 0.25855 0.99778 0.0
H1002 H 0.10146 0.19576 0.07244 0.0
H1003 H 0.12927 0.19544 0.13704 0.0
C1004 C 0.0756 0.19952 0.93622 0.0
C1005 C 0.07474 0.22122 0.91974 0.0
C1006 C 0.09433 0.20167 0.9702 0.0
C1007 C 0.113 0.22559 0.98899 0.0
C1008 C 0.11277 0.24747 0.97145 0.0
C1009 C 0.09383 0.24531 0.93742 0.0
C1010 C 0.1741 0.24467 0.06615 0.0
C1011 C 0.16436 0.22696 0.10631 0.0
C1012 C 0.15759 0.24484 0.02835 0.0
C1013 C 0.13114 0.22698 0.02939 0.0
C1014 C 0.12165 0.20956 0.0697 0.0
C1015 C 0.13782 0.20959 0.1073 0.0
H1016 H 0.85354 0.96264 0.13567 0.0
H1017 H 0.79035 0.96475 0.06472 0.0
H1018 H 0.8529 0.93457 0.07088 0.0
H1019 H 0.7897 0.93572 0.99838 0.0
H1020 H 0.78577 0.86044 0.925 0.0
H1021 H 0.78224 0.88938 0.98519 0.0
H1022 H 0.86391 0.93887 0.98041 0.0
H1023 H 0.86754 0.91027 0.92117 0.0
C1024 C 0.83929 0.95709 0.10634 0.0
C1025 C 0.82202 0.96632 0.10594 0.0
C1026 C 0.8391 0.94094 0.06865 0.0
C1027 C 0.82151 0.93302 0.02881 0.0
C1028 C 0.80359 0.94149 0.02853 0.0
C1029 C 0.80399 0.95818 0.06646 0.0
C1030 C 0.80297 0.87757 0.93659 0.0
C1031 C 0.827 0.88271 0.9184 0.0
C1032 C 0.80089 0.89427 0.97087 0.0
C1033 C 0.82278 0.91642 0.98809 0.0
C1034 C 0.84664 0.92184 0.96869 0.0
C1035 C 0.84871 0.90533 0.9345 0.0
H1036 H 0.13754 0.98779 0.92082 0.0
H1037 H 0.18723 0.95583 0.92558 0.0
H1038 H 0.10862 0.95527 0.97974 0.0
H1039 H 0.15801 0.9231 0.98538 0.0
H1040 H 0.08295 0.85534 0.06423 0.0
H1041 H 0.11198 0.88411 0.99798 0.0
H1042 H 0.11205 0.94799 0.07002 0.0
H1043 H 0.08388 0.9202 0.13464 0.0
C1044 C 0.14238 0.97384 0.9343 0.0
C1045 C 0.16504 0.97481 0.91853 0.0
C1046 C 0.1257 0.95509 0.96829 0.0
C1047 C 0.13098 0.93655 0.98779 0.0
C1048 C 0.15321 0.93692 0.97096 0.0
C1049 C 0.17007 0.95585 0.93692 0.0
C1050 C 0.08927 0.87553 0.06585 0.0
C1051 C 0.08088 0.88518 0.10524 0.0
C1052 C 0.10596 0.89205 0.02799 0.0
C1053 C 0.11417 0.91842 0.02822 0.0
C1054 C 0.10591 0.92785 0.06784 0.0
C1055 C 0.08974 0.91167 0.10548 0.0
H1056 H 0.81846 0.87214 0.56072 0.0
H1057 H 0.83436 0.93453 0.66036 0.0
H1058 H 0.81506 0.89625 0.48935 0.0
H1059 H 0.8309 0.95864 0.58965 0.0
H1060 H 0.81714 0.99592 0.45357 0.0
H1061 H 0.80576 0.96407 0.52138 0.0
H1062 H 0.84815 0.93406 0.44544 0.0
H1063 H 0.85932 0.96548 0.37862 0.0
C1064 C 0.82015 0.89055 0.56768 0.0
C1065 C 0.82619 0.90126 0.61622 0.0
C1066 C 0.81854 0.90456 0.52674 0.0
C1067 C 0.82281 0.92954 0.53351 0.0
C1068 C 0.82716 0.93943 0.58288 0.0
C1069 C 0.82911 0.92559 0.62353 0.0
C1070 C 0.82338 0.98204 0.45084 0.0
C1071 C 0.83916 0.98329 0.41071 0.0
C1072 C 0.81708 0.96393 0.48988 0.0
C1073 C 0.82605 0.94642 0.48912 0.0
C1074 C 0.84056 0.94687 0.44729 0.0
C1075 C 0.84711 0.96507 0.40895 0.0
H1076 H 0.03014 0.88337 0.47926 0.0
H1077 H 0.08583 0.88056 0.38239 0.0
H1078 H 0.06217 0.90386 0.54496 0.0
H1079 H 0.11848 0.90158 0.44863 0.0
H1080 H 0.16955 0.97523 0.55437 0.0
H1081 H 0.14135 0.94576 0.48912 0.0
H1082 H 0.08933 0.89757 0.60521 0.0
H1083 H 0.11742 0.92708 0.66978 0.0
C1084 C 0.04919 0.88663 0.47251 0.0
C1085 C 0.05533 0.88002 0.42588 0.0
C1086 C 0.06763 0.89838 0.51029 0.0
C1087 C 0.09301 0.90435 0.50244 0.0
C1088 C 0.09913 0.89726 0.45604 0.0
C1089 C 0.0804 0.88497 0.41831 0.0
C1090 C 0.15267 0.95771 0.56585 0.0
C1091 C 0.146 0.95311 0.61723 0.0
C1092 C 0.13638 0.94088 0.52847 0.0
C1093 C 0.11286 0.91933 0.54172 0.0
C1094 C 0.10712 0.91403 0.59345 0.0
C1095 C 0.1234 0.93075 0.6306 0.0
H1096 H 0.1907 0.21509 0.47335 0.0
H1097 H 0.13675 0.20918 0.36056 0.0
H1098 H 0.16705 0.22394 0.53794 0.0
H1099 H 0.11369 0.2189 0.42387 0.0
H1100 H 0.05724 0.18986 0.55653 0.0
H1101 H 0.086 0.19378 0.48914 0.0
H1102 H 0.15004 0.24939 0.57656 0.0
H1103 H 0.12059 0.24503 0.64519 0.0
C1104 C 0.17445 0.21683 0.46199 0.0
C1105 C 0.16576 0.21177 0.41177 0.0
C1106 C 0.16077 0.2218 0.49904 0.0
C1107 C 0.13808 0.22179 0.48661 0.0
C1108 C 0.13067 0.21856 0.43543 0.0
C1109 C 0.1441 0.21334 0.39881 0.0
C1110 C 0.07737 0.20353 0.56088 0.0
C1111 C 0.0865 0.21739 0.60601 0.0
C1112 C 0.09402 0.20584 0.52201 0.0
C1113 C 0.12057 0.222 0.52683 0.0
C1114 C 0.12977 0.23667 0.57139 0.0
C1115 C 0.11288 0.2345 0.61047 0.0
H1116 H 0.96739 0.797 0.07495 0.0
H1117 H 0.96616 0.86154 0.14072 0.0
H1118 H 0.93427 0.79163 1.01485 0.0
H1119 H 0.93265 0.85578 0.08132 0.0
H1120 H 0.85601 0.82269 0.99255 0.0
H1121 H 0.8854 0.8232 0.05751 0.0
H1122 H 0.93246 0.81821 0.94105 0.0
H1123 H 0.90364 0.81831 0.87664 0.0
C1124 C 0.95991 0.8099 0.07697 0.0
C1125 C 0.96961 0.82977 0.11272 0.0
C1126 C 0.94093 0.80685 0.04239 0.0
C1127 C 0.93063 0.82318 0.04329 0.0
C1128 C 0.93991 0.84268 0.07979 0.0
C1129 C 0.9593 0.8461 0.11363 0.0
C1130 C 0.8723 0.8211 0.981 0.0
C1131 C 0.87731 0.82023 0.92935 0.0
C1132 C 0.88932 0.8217 0.01815 0.0
C1133 C 0.91139 0.8208 1.00458 0.0
C1134 C 0.91563 0.81873 0.95303 0.0
C1135 C 0.89904 0.81875 0.91605 0.0
H1136 H 0.25783 0.18989 0.11202 0.0
H1137 H 0.17588 0.14127 0.11193 0.0
H1138 H 0.26149 0.16102 0.052 0.0
H1139 H 0.17962 0.1127 0.05259 0.0
H1140 H 0.19199 0.08889 0.89788 0.0
H1141 H 0.19155 0.11641 0.96293 0.0
H1142 H 0.25384 0.11497 0.03884 0.0
H1143 H 0.25436 0.08661 0.97231 0.0
C1144 C 0.2406 0.17304 0.09954 0.0
C1145 C 0.21651 0.16821 0.11678 0.0
C1146 C 0.24275 0.15636 0.06534 0.0
C1147 C 0.22088 0.13451 0.04704 0.0
C1148 C 0.19691 0.12946 0.06521 0.0
C1149 C 0.19477 0.14593 0.09949 0.0
C1150 C 0.20587 0.09434 0.92802 0.0
C1151 C 0.22336 0.08536 0.92918 0.0
C1152 C 0.20538 0.11011 0.96589 0.0
C1153 C 0.22246 0.11787 1.00664 0.0
C1154 C 0.24038 0.1094 1.00794 0.0
C1155 C 0.24065 0.09308 0.96991 0.0
H1156 H 0.93379 0.14399 0.87838 0.0
H1157 H 0.98433 0.19268 0.99517 0.0
H1158 H 0.90435 0.11521 0.94226 0.0
H1159 H 0.95483 0.16337 0.05972 0.0
H1160 H 0.9127 0.08311 0.14479 0.0
H1161 H 0.94065 0.11682 0.08579 0.0
H1162 H 0.8748 0.11254 1.01344 0.0
H1163 H 0.84679 0.07913 0.07319 0.0
C1164 C 0.93839 0.14884 0.91785 0.0
C1165 C 0.96139 0.17084 0.93153 0.0
C1166 C 0.92145 0.13227 0.95455 0.0
C1167 C 0.92716 0.13683 1.00628 0.0
C1168 C 0.94987 0.15919 0.02021 0.0
C1169 C 0.96665 0.17616 0.98327 0.0
C1170 C 0.90413 0.08944 0.11651 0.0
C1171 C 0.87739 0.07827 0.11382 0.0
C1172 C 0.92022 0.10895 0.0829 0.0
C1173 C 0.91006 0.11754 0.04484 0.0
C1174 C 0.88332 0.10643 0.04222 0.0
C1175 C 0.86724 0.0873 0.07658 0.0
H1176 H 0.86926 0.42684 1.01002 0.0
H1177 H 0.8793 0.38097 0.89835 0.0
H1178 H 0.87918 0.45998 0.94716 0.0
H1179 H 0.88818 0.41376 0.83403 0.0
H1180 H 0.90835 0.48143 0.72745 0.0
H1181 H 0.91287 0.45664 0.79664 0.0
H1182 H 0.8545 0.46183 0.88065 0.0
H1183 H 0.85054 0.48653 0.81292 0.0
C1184 C 0.87426 0.42418 0.9721 0.0
C1185 C 0.87373 0.40145 0.9592 0.0
C1186 C 0.87963 0.44305 0.93575 0.0
C1187 C 0.88398 0.43948 0.88492 0.0
C1188 C 0.88511 0.41737 0.87269 0.0
C1189 C 0.88008 0.39855 0.90954 0.0
C1190 C 0.89721 0.47795 0.76157 0.0
C1191 C 0.87928 0.48617 0.76495 0.0
C1192 C 0.89949 0.46342 0.80093 0.0
C1193 C 0.88409 0.45712 0.84464 0.0
C1194 C 0.86711 0.46653 0.84845 0.0
C1195 C 0.86473 0.48073 0.80934 0.0
H1196 H 0.54149 0.4073 0.81786 0.0
H1197 H 0.58889 0.45937 0.70161 0.0
H1198 H 0.56945 0.43711 0.88278 0.0
H1199 H 0.61687 0.48921 0.76601 0.0
H1200 H 0.67948 0.50576 0.8873 0.0
H1201 H 0.64699 0.4849 0.82232 0.0
H1202 H 0.58972 0.48059 0.92532 0.0
H1203 H 0.62276 0.50202 0.99058 0.0
C1204 C 0.55718 0.4257 0.8063 0.0
C1205 C 0.56259 0.43134 0.7547 0.0
C1206 C 0.57335 0.44273 0.84346 0.0
C1207 C 0.59561 0.46556 0.82976 0.0
C1208 C 0.60005 0.47178 0.77804 0.0
C1209 C 0.5838 0.45488 0.74106 0.0
C1210 C 0.66008 0.50107 0.89556 0.0
C1211 C 0.65377 0.50595 0.94369 0.0
C1212 C 0.64139 0.48908 0.85829 0.0
C1213 C 0.61563 0.48109 0.8683 0.0
C1214 C 0.60934 0.48651 0.91624 0.0
C1215 C 0.62828 0.49904 0.95343 0.0
H1216 H 0.6532 0.18954 0.81566 0.0
H1217 H 0.58909 0.13918 0.72301 0.0
H1218 H 0.62466 0.18598 0.88331 0.0
H1219 H 0.55985 0.13512 0.79171 0.0
H1220 H 0.5222 0.17157 0.89618 0.0
H1221 H 0.54508 0.16176 0.8316 0.0
H1222 H 0.59543 0.16132 0.94679 0.0
H1223 H 0.57316 0.17205 1.0102 0.0
C1224 C 0.6329 0.17686 0.81058 0.0
C1225 C 0.62349 0.16425 0.76434 0.0
C1226 C 0.61638 0.17479 0.84952 0.0
C1227 C 0.58971 0.16018 0.84352 0.0
C1228 C 0.58022 0.14664 0.79782 0.0
C1229 C 0.59695 0.14859 0.75869 0.0
C1230 C 0.53756 0.1684 0.90773 0.0
C1231 C 0.54565 0.17216 0.95833 0.0
C1232 C 0.5508 0.16287 0.8707 0.0
C1233 C 0.57247 0.16105 0.88352 0.0
C1234 C 0.57924 0.16305 0.93497 0.0
C1235 C 0.56623 0.16882 0.97163 0.0
H1236 H 0.72576 0.51276 0.25932 0.0
H1237 H 0.76115 0.5949 0.25211 0.0
H1238 H 0.75849 0.51686 0.31797 0.0
H1239 H 0.79418 0.59891 0.31151 0.0
H1240 H 0.86075 0.58891 0.39154 0.0
H1241 H 0.83207 0.58903 0.32499 0.0
H1242 H 0.76705 0.53155 0.40729 0.0
H1243 H 0.79464 0.53137 0.4722 0.0
C1244 C 0.74055 0.53176 0.26999 0.0
C1245 C 0.74045 0.55347 0.25105 0.0
C1246 C 0.75942 0.53411 0.3038 0.0
C1247 C 0.779 0.55823 0.31982 0.0
C1248 C 0.77952 0.58005 0.29977 0.0
C1249 C 0.76042 0.57771 0.266 0.0
C1250 C 0.84034 0.57645 0.3954 0.0
C1251 C 0.83033 0.56015 0.43767 0.0
C1252 C 0.82389 0.57654 0.35735 0.0
C1253 C 0.79719 0.56 0.36039 0.0
C1254 C 0.78742 0.54421 0.40298 0.0
C1255 C 0.80353 0.54433 0.44072 0.0
H1256 H 0.48646 0.27152 0.4938 0.0
H1257 H 0.4858 0.32126 0.37758 0.0
H1258 H 0.4861 0.24252 0.42941 0.0
H1259 H 0.48615 0.29235 0.31263 0.0
H1260 H 0.52515 0.25065 0.22711 0.0
H1261 H 0.52008 0.2787 0.28692 0.0
H1262 H 0.45714 0.21299 0.35734 0.0
H1263 H 0.46171 0.18498 0.29677 0.0
C1264 C 0.48584 0.27608 0.4544 0.0
C1265 C 0.48594 0.29866 0.44096 0.0
C1266 C 0.48565 0.25942 0.41745 0.0
C1267 C 0.48621 0.2651 0.36578 0.0
C1268 C 0.48583 0.28745 0.35211 0.0
C1269 C 0.48536 0.30388 0.38928 0.0
C1270 C 0.51013 0.24218 0.25517 0.0
C1271 C 0.49386 0.21549 0.25706 0.0
C1272 C 0.50711 0.25829 0.28922 0.0
C1273 C 0.48815 0.24814 0.32691 0.0
C1274 C 0.47192 0.22146 0.32882 0.0
C1275 C 0.47452 0.20541 0.294 0.0
H1276 H 0.74859 0.25257 0.46271 0.0
H1277 H 0.75196 0.18858 0.39914 0.0
H1278 H 0.77734 0.28037 0.39884 0.0
H1279 H 0.78154 0.21737 0.3335 0.0
H1280 H 0.8564 0.29065 0.26245 0.0
H1281 H 0.82713 0.25773 0.32208 0.0
H1282 H 0.7748 0.28612 0.30764 0.0
H1283 H 0.8037 0.31877 0.24912 0.0
C1284 C 0.7555 0.24424 0.4352 0.0
C1285 C 0.74767 0.21799 0.43663 0.0
C1286 C 0.77202 0.26041 0.39799 0.0
C1287 C 0.78165 0.25122 0.36043 0.0
C1288 C 0.77446 0.22511 0.3619 0.0
C1289 C 0.75743 0.20858 0.39936 0.0
C1290 C 0.83859 0.28978 0.27184 0.0
C1291 C 0.83272 0.30775 0.25121 0.0
C1292 C 0.82172 0.27075 0.30578 0.0
C1293 C 0.79863 0.26931 0.32013 0.0
C1294 C 0.79254 0.2868 0.29823 0.0
C1295 C 0.80923 0.30564 0.26447 0.0
H1296 H 0.4988 0.33807 0.80729 0.0
H1297 H 0.50793 0.29209 0.69452 0.0
H1298 H 0.48999 0.30514 0.87126 0.0
H1299 H 0.49831 0.2589 0.7572 0.0
H1300 H 0.5281 0.23297 0.89121 0.0
H1301 H 0.52382 0.25766 0.82371 0.0
H1302 H 0.46484 0.26167 0.90781 0.0
H1303 H 0.46954 0.23679 0.9766 0.0
C1304 C 0.49779 0.32042 0.79579 0.0
C1305 C 0.50377 0.31749 0.74587 0.0
C1306 C 0.49283 0.30154 0.83243 0.0
C1307 C 0.49381 0.2794 0.81981 0.0
C1308 C 0.49788 0.27583 0.76881 0.0
C1309 C 0.50306 0.29471 0.73259 0.0
C1310 C 0.51374 0.23855 0.89488 0.0
C1311 C 0.49905 0.23274 0.93915 0.0
C1312 C 0.51118 0.25271 0.85592 0.0
C1313 C 0.49392 0.26178 0.85985 0.0
C1314 C 0.47843 0.25516 0.90346 0.0
C1315 C 0.48084 0.24061 0.9426 0.0
H1316 H 0.83697 0.31238 0.88391 0.0
H1317 H 0.7901 0.25971 0.9999 0.0
H1318 H 0.8095 0.28232 0.81881 0.0
H1319 H 0.76258 0.22963 0.93531 0.0
H1320 H 0.69997 0.21246 0.81361 0.0
H1321 H 0.73217 0.23329 0.8789 0.0
H1322 H 0.79006 0.23896 0.77596 0.0
H1323 H 0.75723 0.21751 0.71025 0.0
C1324 C 0.82146 0.29386 0.89537 0.0
C1325 C 0.81606 0.28809 0.94693 0.0
C1326 C 0.8056 0.27666 0.85811 0.0
C1327 C 0.78365 0.25354 0.87167 0.0
C1328 C 0.77919 0.24726 0.92338 0.0
C1329 C 0.79516 0.26433 0.96047 0.0
C1330 C 0.71942 0.21735 0.80543 0.0
C1331 C 0.72595 0.21287 0.75715 0.0
C1332 C 0.73797 0.22936 0.84289 0.0
C1333 C 0.76382 0.23779 0.83299 0.0
C1334 C 0.77035 0.23271 0.78495 0.0
C1335 C 0.75154 0.22017 0.7475 0.0
H1336 H 0.78493 0.54461 0.99341 0.0
H1337 H 0.74358 0.56905 0.89789 0.0
H1338 H 0.81205 0.54778 0.92252 0.0
H1339 H 0.77084 0.57236 0.8262 0.0
H1340 H 0.79182 0.52783 0.70808 0.0
H1341 H 0.77291 0.53953 0.77648 0.0
H1342 H 0.8442 0.57259 0.8579 0.0
H1343 H 0.86322 0.56069 0.78863 0.0
C1344 C 0.78239 0.55176 0.95758 0.0
C1345 C 0.76245 0.5571 0.95153 0.0
C1346 C 0.79793 0.55351 0.91674 0.0
C1347 C 0.79369 0.56022 0.86825 0.0
C1348 C 0.77462 0.56698 0.86285 0.0
C1349 C 0.75921 0.5655 0.90407 0.0
C1350 C 0.80371 0.53819 0.74 0.0
C1351 C 0.82908 0.54336 0.74275 0.0
C1352 C 0.79285 0.54504 0.77929 0.0
C1353 C 0.8069 0.55701 0.8231 0.0
C1354 C 0.83272 0.56327 0.82492 0.0
C1355 C 0.84375 0.55671 0.78501 0.0
H1356 H 0.56991 0.1522 0.21231 0.0
H1357 H 0.52132 0.15412 0.32915 0.0
H1358 H 0.5985 0.15133 0.27615 0.0
H1359 H 0.55044 0.15371 0.39367 0.0
H1360 H 0.63063 0.19174 0.47818 0.0
H1361 H 0.59694 0.18602 0.41944 0.0
H1362 H 0.60094 0.12429 0.34734 0.0
H1363 H 0.63434 0.12967 0.40675 0.0
C1364 C 0.56504 0.15191 0.25178 0.0
C1365 C 0.54314 0.153 0.26552 0.0
C1366 C 0.58149 0.15141 0.28845 0.0
C1367 C 0.5769 0.15253 0.34017 0.0
C1368 C 0.55462 0.15294 0.35416 0.0
C1369 C 0.53777 0.15288 0.31726 0.0
C1370 C 0.62423 0.17681 0.45003 0.0
C1371 C 0.63532 0.1612 0.44727 0.0
C1372 C 0.60473 0.1734 0.41657 0.0
C1373 C 0.5961 0.15463 0.37865 0.0
C1374 C 0.60711 0.13894 0.37602 0.0
C1375 C 0.62623 0.14198 0.4102 0.0
H1376 H 0.84385 0.47621 0.44053 0.0
H1377 H 0.92585 0.52382 0.44748 0.0
H1378 H 0.84825 0.44838 0.3805 0.0
H1379 H 0.93017 0.49549 0.38671 0.0
H1380 H 0.91991 0.41857 0.30629 0.0
H1381 H 0.92016 0.44732 0.37283 0.0
H1382 H 0.86324 0.45553 0.29049 0.0
H1383 H 0.86306 0.42782 0.22527 0.0
C1384 C 0.8629 0.48079 0.42952 0.0
C1385 C 0.88447 0.5026 0.44887 0.0
C1386 C 0.86542 0.46472 0.39487 0.0
C1387 C 0.88957 0.46968 0.37839 0.0
C1388 C 0.91128 0.49099 0.39875 0.0
C1389 C 0.90877 0.50734 0.43333 0.0
C1390 C 0.90765 0.42672 0.3023 0.0
C1391 C 0.89147 0.4206 0.25996 0.0
C1392 C 0.90781 0.44323 0.34039 0.0
C1393 C 0.89146 0.45355 0.33738 0.0
C1394 C 0.87581 0.44774 0.29468 0.0
C1395 C 0.87589 0.43178 0.25681 0.0
H1396 H 0.51517 0.41358 0.41039 0.0
H1397 H 0.5806 0.41344 0.47466 0.0
H1398 H 0.54304 0.44659 0.35007 0.0
H1399 H 0.60852 0.44688 0.41491 0.0
H1400 H 0.65251 0.52391 0.32615 0.0
H1401 H 0.62383 0.49443 0.39141 0.0
H1402 H 0.57071 0.44797 0.27564 0.0
H1403 H 0.59942 0.47689 0.21092 0.0
C1404 C 0.53552 0.42074 0.412 0.0
C1405 C 0.54555 0.4107 0.4474 0.0
C1406 C 0.55151 0.43964 0.37729 0.0
C1407 C 0.57809 0.44953 0.37767 0.0
C1408 C 0.58821 0.43992 0.4138 0.0
C1409 C 0.57215 0.42058 0.4478 0.0
C1410 C 0.63446 0.50771 0.31483 0.0
C1411 C 0.62821 0.5029 0.26328 0.0
C1412 C 0.61815 0.49065 0.35214 0.0
C1413 C 0.59494 0.46874 0.33882 0.0
C1414 C 0.58828 0.46467 0.28741 0.0
C1415 C 0.60477 0.48131 0.25025 0.0
H1416 H 0.55501 0.71853 0.24414 0.0
H1417 H 0.52243 0.75647 0.32734 0.0
H1418 H 0.56579 0.74938 0.17471 0.0
H1419 H 0.53324 0.78716 0.25887 0.0
H1420 H 0.56282 0.84648 0.13605 0.0
H1421 H 0.5667 0.82245 0.20725 0.0
H1422 H 0.5382 0.7556 0.11283 0.0
H1423 H 0.53416 0.7795 0.04255 0.0
C1424 C 0.55087 0.73389 0.24827 0.0
C1425 C 0.53787 0.73503 0.29125 0.0
C1426 C 0.55682 0.75144 0.20835 0.0
C1427 C 0.55034 0.7708 0.21099 0.0
C1428 C 0.53882 0.7728 0.25551 0.0
C1429 C 0.53251 0.75508 0.29479 0.0
C1430 C 0.55831 0.82694 0.1302 0.0
C1431 C 0.54852 0.81496 0.08359 0.0
C1432 C 0.56024 0.81306 0.17107 0.0
C1433 C 0.55271 0.78699 0.16596 0.0
C1434 C 0.5445 0.77564 0.1182 0.0
C1435 C 0.54218 0.78935 0.07782 0.0
H1436 H 0.33374 0.85991 0.23223 0.0
H1437 H 0.28495 0.80617 0.34494 0.0
H1438 H 0.30095 0.8371 0.16778 0.0
H1439 H 0.25167 0.78413 0.28191 0.0
H1440 H 0.22132 0.72804 0.14939 0.0
H1441 H 0.24641 0.75609 0.21738 0.0
H1442 H 0.26 0.82161 0.12797 0.0
H1443 H 0.23499 0.79286 0.05859 0.0
C1444 C 0.31554 0.84387 0.24356 0.0
C1445 C 0.31178 0.83494 0.29365 0.0
C1446 C 0.29669 0.83069 0.20661 0.0
C1447 C 0.27359 0.80835 0.21907 0.0
C1448 C 0.26932 0.80076 0.27022 0.0
C1449 C 0.28826 0.81362 0.30671 0.0
C1450 C 0.22892 0.7484 0.14484 0.0
C1451 C 0.22576 0.75816 0.09892 0.0
C1452 C 0.24342 0.76465 0.18405 0.0
C1453 C 0.25542 0.79138 0.1788 0.0
C1454 C 0.25126 0.80119 0.13352 0.0
C1455 C 0.23654 0.78474 0.094 0.0
H1456 H 0.32071 0.53223 0.1428 0.0
H1457 H 0.25837 0.47138 0.06092 0.0
H1458 H 0.2912 0.5301 0.20757 0.0
H1459 H 0.22844 0.46922 0.12685 0.0
H1460 H 0.19799 0.47723 0.30447 0.0
H1461 H 0.22151 0.46645 0.24188 0.0
H1462 H 0.25386 0.54198 0.17812 0.0
H1463 H 0.23066 0.55256 0.23869 0.0
C1464 C 0.30074 0.51777 0.13948 0.0
C1465 C 0.29193 0.50205 0.09651 0.0
C1466 C 0.28382 0.51659 0.17665 0.0
C1467 C 0.25748 0.49965 0.17219 0.0
C1468 C 0.24868 0.48236 0.13145 0.0
C1469 C 0.26581 0.48353 0.09382 0.0
C1470 C 0.20963 0.49123 0.27623 0.0
C1471 C 0.21262 0.51589 0.27721 0.0
C1472 C 0.22313 0.48509 0.24054 0.0
C1473 C 0.23978 0.50353 0.20551 0.0
C1474 C 0.24144 0.52747 0.20489 0.0
C1475 C 0.22807 0.5335 0.23986 0.0
H1476 H 0.41008 0.92216 0.6274 0.0
H1477 H 0.41337 0.85939 0.5582 0.0
H1478 H 0.44328 0.92763 0.68742 0.0
H1479 H 0.44691 0.86523 0.61753 0.0
H1480 H 0.52271 0.898 0.70817 0.0
H1481 H 0.49371 0.89815 0.64308 0.0
H1482 H 0.44506 0.90028 0.75959 0.0
H1483 H 0.4735 0.89957 0.82406 0.0
C1484 C 0.41807 0.90971 0.62458 0.0
C1485 C 0.40892 0.89027 0.58797 0.0
C1486 C 0.43707 0.91281 0.65909 0.0
C1487 C 0.44791 0.89696 0.65723 0.0
C1488 C 0.43922 0.87796 0.61978 0.0
C1489 C 0.41982 0.87448 0.586 0.0
C1490 C 0.50614 0.89911 0.71973 0.0
C1491 C 0.50055 0.89895 0.77135 0.0
C1492 C 0.48937 0.89891 0.6825 0.0
C1493 C 0.46698 0.89918 0.69606 0.0
C1494 C 0.46217 0.90028 0.74766 0.0
C1495 C 0.47853 0.89989 0.78467 0.0
H1496 H 0.11832 0.52522 0.59701 0.0
H1497 H 0.19948 0.57743 0.58635 0.0
H1498 H 0.11472 0.55429 0.65694 0.0
H1499 H 0.19579 0.6061 0.64507 0.0
H1500 H 0.18796 0.63227 0.79965 0.0
H1501 H 0.1872 0.60373 0.73565 0.0
H1502 H 0.12031 0.59982 0.66912 0.0
H1503 H 0.12095 0.62914 0.73488 0.0
C1504 C 0.13535 0.54287 0.60707 0.0
C1505 C 0.15926 0.54865 0.58697 0.0
C1506 C 0.13324 0.55964 0.6412 0.0
C1507 C 0.15498 0.58254 0.65636 0.0
C1508 C 0.17865 0.58852 0.6351 0.0
C1509 C 0.18075 0.57195 0.60115 0.0
C1510 C 0.17283 0.62543 0.77183 0.0
C1511 C 0.15442 0.63321 0.77306 0.0
C1512 C 0.17259 0.60905 0.73454 0.0
C1513 C 0.15387 0.5995 0.69665 0.0
C1514 C 0.13503 0.60678 0.69778 0.0
C1515 C 0.13545 0.62368 0.73529 0.0
H1516 H 0.42516 0.58585 0.80783 0.0
H1517 H 0.41241 0.51945 0.72307 0.0
H1518 H 0.45329 0.61346 0.74306 0.0
H1519 H 0.44172 0.54814 0.65691 0.0
H1520 H 0.51983 0.61933 0.58393 0.0
H1521 H 0.49108 0.5861 0.64379 0.0
H1522 H 0.44521 0.62206 0.65329 0.0
H1523 H 0.47344 0.65487 0.59419 0.0
C1524 C 0.4284 0.57689 0.77553 0.0
C1525 C 0.41602 0.55001 0.77112 0.0
C1526 C 0.44465 0.59301 0.73797 0.0
C1527 C 0.4496 0.58316 0.69433 0.0
C1528 C 0.43824 0.55637 0.69012 0.0
C1529 C 0.42143 0.53992 0.72797 0.0
C1530 C 0.50353 0.62006 0.5986 0.0
C1531 C 0.49926 0.64011 0.58433 0.0
C1532 C 0.48694 0.60087 0.63261 0.0
C1533 C 0.46585 0.60141 0.65358 0.0
C1534 C 0.46135 0.6211 0.63832 0.0
C1535 C 0.47766 0.64002 0.60427 0.0
H1536 H 0.18639 0.62915 0.04432 0.0
H1537 H 0.15149 0.66564 0.12475 0.0
H1538 H 0.17477 0.59801 0.11202 0.0
H1539 H 0.13971 0.6342 0.19339 0.0
H1540 H 0.1697 0.6042 0.32815 0.0
H1541 H 0.16568 0.62788 0.25757 0.0
H1542 H 0.14175 0.56224 0.16134 0.0
H1543 H 0.14579 0.53848 0.23278 0.0
C1544 C 0.17556 0.63007 0.07602 0.0
C1545 C 0.16982 0.64986 0.07908 0.0
C1546 C 0.16877 0.61208 0.11488 0.0
C1547 C 0.15631 0.6135 0.15848 0.0
C1548 C 0.1494 0.63257 0.16049 0.0
C1549 C 0.15591 0.65045 0.12099 0.0
C1550 C 0.16259 0.59449 0.29239 0.0
C1551 C 0.15768 0.56935 0.28621 0.0
C1552 C 0.16029 0.6081 0.2518 0.0
C1553 C 0.15348 0.59711 0.20346 0.0
C1554 C 0.14716 0.57138 0.19795 0.0
C1555 C 0.14912 0.5576 0.23897 0.0
H1556 H 0.42123 0.5888 0.03934 0.0
H1557 H 0.38252 0.51792 0.12227 0.0
H1558 H 0.45154 0.60842 0.1081 0.0
H1559 H 0.41314 0.53769 0.19194 0.0
H1560 H 0.44269 0.59867 0.32471 0.0
H1561 H 0.41931 0.57085 0.25413 0.0
H1562 H 0.48632 0.61072 0.16015 0.0
H1563 H 0.50977 0.63853 0.23162 0.0
C1564 C 0.41965 0.57716 0.07184 0.0
C1565 C 0.39945 0.55175 0.07523 0.0
C1566 C 0.43716 0.58843 0.11133 0.0
C1567 C 0.43486 0.57476 0.1559 0.0
C1568 C 0.41542 0.54886 0.15831 0.0
C1569 C 0.39801 0.53741 0.11822 0.0
C1570 C 0.45269 0.60085 0.28946 0.0
C1571 C 0.47817 0.62052 0.28389 0.0
C1572 C 0.43928 0.58488 0.24889 0.0
C1573 C 0.4508 0.58848 0.20116 0.0
C1574 C 0.47677 0.60742 0.19628 0.0
C1575 C 0.49035 0.62318 0.23732 0.0
H1576 H 0.46677 0.87376 0.02279 0.0
H1577 H 0.52208 0.88228 0.13484 0.0
H1578 H 0.44438 0.88477 0.08519 0.0
H1579 H 0.49892 0.89212 0.1988 0.0
H1580 H 0.45347 0.91365 0.30598 0.0
H1581 H 0.48226 0.91731 0.23666 0.0
H1582 H 0.41721 0.86175 0.15125 0.0
H1583 H 0.3891 0.85882 0.21902 0.0
C1584 C 0.47446 0.8786 0.06073 0.0
C1585 C 0.49629 0.8774 0.0738 0.0
C1586 C 0.46142 0.88459 0.09686 0.0
C1587 C 0.46936 0.88884 0.14773 0.0
C1588 C 0.49221 0.88917 0.16014 0.0
C1589 C 0.50557 0.88357 0.12348 0.0
C1590 C 0.44542 0.90308 0.27143 0.0
C1591 C 0.41897 0.88623 0.26767 0.0
C1592 C 0.46191 0.9048 0.23199 0.0
C1593 C 0.45226 0.88984 0.18788 0.0
C1594 C 0.42561 0.87405 0.18367 0.0
C1595 C 0.40934 0.8723 0.22279 0.0
H1596 H 0.28563 0.45482 0.7714 0.0
H1597 H 0.31343 0.53575 0.78339 0.0
H1598 H 0.25274 0.45091 0.71154 0.0
H1599 H 0.2809 0.53173 0.72463 0.0
H1600 H 0.24853 0.52385 0.56827 0.0
H1601 H 0.27596 0.52277 0.63272 0.0
H1602 H 0.21212 0.45675 0.70033 0.0
H1603 H 0.18371 0.45773 0.63421 0.0
C1604 C 0.28469 0.47172 0.7617 0.0
C1605 C 0.30257 0.49568 0.78202 0.0
C1606 C 0.26569 0.46941 0.72764 0.0
C1607 C 0.26422 0.49102 0.71287 0.0
C1608 C 0.2816 0.51471 0.73448 0.0
C1609 C 0.30037 0.517 0.76836 0.0
C1610 C 0.23995 0.50882 0.59636 0.0
C1611 C 0.21358 0.49079 0.59545 0.0
C1612 C 0.2559 0.50839 0.63386 0.0
C1613 C 0.24636 0.48987 0.6722 0.0
C1614 C 0.22012 0.47132 0.67128 0.0
C1615 C 0.20381 0.47193 0.63354 0.0
H1616 H 0.59172 0.85862 0.77396 0.0
H1617 H 0.51039 0.807 0.78296 0.0
H1618 H 0.5954 0.82943 0.71468 0.0
H1619 H 0.51416 0.77811 0.72481 0.0
H1620 H 0.52288 0.75251 0.57013 0.0
H1621 H 0.52323 0.78057 0.63462 0.0
H1622 H 0.58976 0.78411 0.70214 0.0
H1623 H 0.58958 0.75527 0.63576 0.0
C1624 C 0.57466 0.84104 0.76372 0.0
C1625 C 0.55069 0.83549 0.78306 0.0
C1626 C 0.57683 0.8242 0.72996 0.0
C1627 C 0.55508 0.80142 0.71445 0.0
C1628 C 0.53132 0.79561 0.73508 0.0
C1629 C 0.52916 0.81229 0.76866 0.0
C1630 C 0.53785 0.75915 0.59828 0.0
C1631 C 0.55632 0.75144 0.59709 0.0
C1632 C 0.53783 0.77524 0.63589 0.0
C1633 C 0.55632 0.78455 0.67418 0.0
C1634 C 0.5752 0.77731 0.67318 0.0
C1635 C 0.57505 0.76069 0.63531 0.0
H1636 H 0.18986 0.7636 0.77837 0.0
H1637 H 0.2398 0.73189 0.781 0.0
H1638 H 0.21886 0.79656 0.71847 0.0
H1639 H 0.26835 0.76451 0.72198 0.0
H1640 H 0.29098 0.79858 0.56617 0.0
H1641 H 0.26269 0.77107 0.63084 0.0
H1642 H 0.26644 0.83594 0.70623 0.0
H1643 H 0.29581 0.86445 0.63999 0.0
C1644 C 0.20701 0.76367 0.76656 0.0
C1645 C 0.21219 0.74472 0.78438 0.0
C1646 C 0.22373 0.78273 0.7325 0.0
C1647 C 0.24591 0.78317 0.71509 0.0
C1648 C 0.25134 0.76465 0.73403 0.0
C1649 C 0.23485 0.74584 0.76806 0.0
C1650 C 0.28597 0.80739 0.59606 0.0
C1651 C 0.29609 0.83407 0.59734 0.0
C1652 C 0.26966 0.79137 0.63366 0.0
C1653 C 0.26245 0.80117 0.6743 0.0
C1654 C 0.27169 0.82774 0.67542 0.0
C1655 C 0.28855 0.84409 0.63754 0.0
H1656 H 0.25027 0.99892 0.63869 0.0
H1657 H 0.28094 0.99418 0.78312 0.0
H1658 H 0.27316 0.981 0.59752 0.0
H1659 H 0.30497 0.97673 0.74083 0.0
H1660 H 0.31937 0.91823 0.65307 0.0
H1661 H 0.29993 0.93916 0.699 0.0
H1662 H 0.31297 0.98836 0.5704 0.0
H1663 H 0.3316 0.96683 0.52424 0.0
C1664 C 0.26222 0.99441 0.6619 0.0
C1665 C 0.26356 0.99809 0.71468 0.0
C1666 C 0.27565 0.98421 0.63786 0.0
C1667 C 0.2912 0.9774 0.6654 0.0
C1668 C 0.29303 0.98148 0.71819 0.0
C1669 C 0.27944 0.99175 0.74251 0.0
C1670 C 0.31818 0.93361 0.63474 0.0
C1671 C 0.32698 0.94077 0.58483 0.0
C1672 C 0.30716 0.94579 0.66128 0.0
C1673 C 0.30466 0.96553 0.6387 0.0
C1674 C 0.31405 0.97299 0.58905 0.0
C1675 C 0.32493 0.96074 0.5625 0.0
H1676 H 0.04622 0.27934 0.63744 0.0
H1677 H 0.05751 0.31592 0.78264 0.0
H1678 H 0.06412 0.32033 0.59561 0.0
H1679 H 0.07501 0.3574 0.74012 0.0
H1680 H 0.13246 0.42912 0.64874 0.0
H1681 H 0.11188 0.38852 0.69433 0.0
H1682 H 0.05766 0.35427 0.57252 0.0
H1683 H 0.07882 0.39473 0.52647 0.0
C1684 C 0.05223 0.29612 0.66066 0.0
C1685 C 0.05035 0.29408 0.71377 0.0
C1686 C 0.06241 0.3198 0.63637 0.0
C1687 C 0.07108 0.34245 0.66413 0.0
C1688 C 0.06881 0.34048 0.71729 0.0
C1689 C 0.05852 0.31661 0.74177 0.0
C1690 C 0.11605 0.41294 0.63183 0.0
C1691 C 0.10733 0.4152 0.58384 0.0
C1692 C 0.1041 0.38962 0.65819 0.0
C1693 C 0.083 0.36785 0.6374 0.0
C1694 C 0.07406 0.37036 0.58966 0.0
C1695 C 0.0861 0.39365 0.56323 0.0
H1696 H 0.62067 0.69415 0.6356 0.0
H1697 H 0.65273 0.75781 0.5319 0.0
H1698 H 0.66096 0.71361 0.6827 0.0
H1699 H 0.69256 0.77748 0.57917 0.0
H1700 H 0.76895 0.7941 0.6364 0.0
H1701 H 0.7282 0.77197 0.59385 0.0
H1702 H 0.6897 0.74897 0.73788 0.0
H1703 H 0.73111 0.77111 0.78119 0.0
C1704 C 0.63631 0.7123 0.62286 0.0
C1705 C 0.63353 0.72427 0.57959 0.0
C1706 C 0.65937 0.72357 0.65012 0.0
C1707 C 0.68029 0.74708 0.63471 0.0
C1708 C 0.67722 0.75913 0.59177 0.0
C1709 C 0.65425 0.74789 0.56464 0.0
C1710 C 0.75192 0.78423 0.65943 0.0
C1711 C 0.75355 0.7847 0.7126 0.0
C1712 C 0.72836 0.77163 0.63476 0.0
C1713 C 0.70541 0.75898 0.66215 0.0
C1714 C 0.70692 0.75846 0.71536 0.0
C1715 C 0.73071 0.77117 0.74029 0.0
H1716 H 0.94652 0.32601 0.11611 0.0
H1717 H 0.92009 0.33636 0.97112 0.0
H1718 H 0.96897 0.30689 0.07339 0.0
H1719 H 0.94233 0.3178 0.92933 0.0
H1720 H 0.95703 0.25634 0.87172 0.0
H1721 H 0.93736 0.27638 0.91913 0.0
H1722 H 1.00388 0.31368 1.01485 0.0
H1723 H 0.02344 0.29302 0.96755 0.0
C1724 C 0.94574 0.32459 0.0753 0.0
C1725 C 0.93116 0.33261 0.04744 0.0
C1726 C 0.95861 0.31359 0.05072 0.0
C1727 C 0.95714 0.31028 0.99776 0.0
C1728 C 0.94345 0.31931 0.97012 0.0
C1729 C 0.93076 0.33023 0.99438 0.0
C1730 C 0.96756 0.26888 0.90274 0.0
C1731 C 0.99196 0.27325 0.91538 0.0
C1732 C 0.95629 0.28051 0.92997 0.0
C1733 C 0.96908 0.29701 0.97072 0.0
C1734 C 0.99337 0.30106 0.98397 0.0
C1735 C 1.00468 0.28936 0.95658 0.0
H1736 H 0.71204 0.61323 0.97121 0.0
H1737 H 0.72288 0.64951 0.11666 0.0
H1738 H 0.7299 0.65422 0.92968 0.0
H1739 H 0.74029 0.69105 0.07432 0.0
H1740 H 0.79778 0.76291 0.98306 0.0
H1741 H 0.77715 0.72234 0.0288 0.0
H1742 H 0.72329 0.68791 0.90647 0.0
H1743 H 0.74451 0.72829 0.86027 0.0
C1744 C 0.71791 0.62994 0.99456 0.0
C1745 C 0.71594 0.62782 0.04765 0.0
C1746 C 0.72807 0.65363 0.97041 0.0
C1747 C 0.73657 0.67621 0.99829 0.0
C1748 C 0.7342 0.67417 0.05143 0.0
C1749 C 0.72395 0.65028 0.0758 0.0
C1750 C 0.78142 0.74669 0.9661 0.0
C1751 C 0.77281 0.74886 0.91793 0.0
C1752 C 0.76944 0.7234 0.99254 0.0
C1753 C 0.74845 0.7016 0.97162 0.0
C1754 C 0.73961 0.70403 0.92371 0.0
C1755 C 0.75168 0.72727 0.8972 0.0
H1756 H 0.28428 0.0614 0.98686 0.0
H1757 H 0.32148 0.05232 0.8562 0.0
H1758 H 0.32483 0.08157 0.03249 0.0
H1759 H 0.36184 0.07174 0.90198 0.0
H1760 H 0.43448 0.1349 0.97202 0.0
H1761 H 0.3936 0.11187 0.93063 0.0
H1762 H 0.358 0.07695 0.07266 0.0
H1763 H 0.39944 0.10096 0.11513 0.0
C1764 C 0.30109 0.06344 0.96805 0.0
C1765 C 0.29962 0.05529 0.91776 0.0
C1766 C 0.32438 0.07489 0.99438 0.0
C1767 C 0.34689 0.0785 0.97118 0.0
C1768 C 0.34516 0.0698 0.92111 0.0
C1769 C 0.32192 0.05846 0.89478 0.0
C1770 C 0.4181 0.12224 0.99486 0.0
C1771 C 0.42057 0.11994 0.04734 0.0
C1772 C 0.39446 0.10876 0.97071 0.0
C1773 C 0.37223 0.09226 0.99787 0.0
C1774 C 0.37458 0.08962 0.05035 0.0
C1775 C 0.39843 0.10325 0.07476 0.0
H1776 H 0.78845 0.04542 0.39756 0.0
H1777 H 0.76685 0.06055 0.25161 0.0
H1778 H 0.76625 0.06418 0.43886 0.0
H1779 H 0.74359 0.07887 0.29361 0.0
H1780 H 0.73084 0.13681 0.3862 0.0
H1781 H 0.74986 0.1154 0.34063 0.0
H1782 H 0.72676 0.05965 0.46073 0.0
H1783 H 0.70852 0.08162 0.50677 0.0
C1784 C 0.77861 0.0524 0.37401 0.0
C1785 C 0.77962 0.05137 0.32086 0.0
C1786 C 0.7656 0.0631 0.39802 0.0
C1787 C 0.75289 0.07313 0.36998 0.0
C1788 C 0.75333 0.07162 0.31672 0.0
C1789 C 0.76645 0.06083 0.2925 0.0
C1790 C 0.72975 0.11991 0.40277 0.0
C1791 C 0.71818 0.111 0.4503 0.0
C1792 C 0.74052 0.10746 0.37637 0.0
C1793 C 0.74002 0.08565 0.39665 0.0
C1794 C 0.72801 0.07656 0.44394 0.0
C1795 C 0.71735 0.08909 0.4704 0.0
H1796 H 0.99093 0.73628 0.2543 0.0
H1797 H 0.99461 0.77196 0.39773 0.0
H1798 H 0.97153 0.69449 0.29697 0.0
H1799 H 0.97573 0.73099 0.43933 0.0
H1800 H 0.91454 0.65332 0.49251 0.0
H1801 H 0.93465 0.6932 0.445 0.0
H1802 H 0.97797 0.66724 0.35949 0.0
H1803 H 0.95732 0.62686 0.4069 0.0
C1804 C 0.98793 0.73538 0.29476 0.0
C1805 C 0.99429 0.75775 0.3221 0.0
C1806 C 0.97679 0.71138 0.3193 0.0
C1807 C 0.97158 0.70915 0.37169 0.0
C1808 C 0.97879 0.73166 0.39891 0.0
C1809 C 0.98991 0.7554 0.37474 0.0
C1810 C 0.9284 0.65608 0.46371 0.0
C1811 C 0.93446 0.63692 0.45401 0.0
C1812 C 0.94006 0.67907 0.43642 0.0
C1813 C 0.95826 0.68376 0.39851 0.0
C1814 C 0.964 0.66436 0.3881 0.0
C1815 C 0.95229 0.64127 0.41558 0.0
H1816 H 0.42365 0.31246 0.39319 0.0
H1817 H 0.39409 0.34445 0.50093 0.0
H1818 H 0.38329 0.29323 0.34717 0.0
H1819 H 0.35387 0.32581 0.45426 0.0
H1820 H 0.27619 0.2624 0.39676 0.0
H1821 H 0.31726 0.28542 0.43845 0.0
H1822 H 0.35517 0.30059 0.29382 0.0
H1823 H 0.31359 0.27687 0.25175 0.0
C1824 C 0.4086 0.31564 0.40675 0.0
C1825 C 0.41213 0.33 0.45085 0.0
C1826 C 0.38545 0.30473 0.38008 0.0
C1827 C 0.36511 0.30789 0.39665 0.0
C1828 C 0.36885 0.3226 0.4405 0.0
C1829 C 0.392 0.33343 0.46726 0.0
C1830 C 0.29322 0.27081 0.37353 0.0
C1831 C 0.29141 0.26763 0.32066 0.0
C1832 C 0.31692 0.28425 0.39762 0.0
C1833 C 0.33979 0.29497 0.36982 0.0
C1834 C 0.33805 0.2924 0.31671 0.0
C1835 C 0.31417 0.27903 0.29242 0.0
H1836 H 0.06124 0.80252 0.05158 0.0
H1837 H 0.04374 0.75029 0.17622 0.0
H1838 H 0.08062 0.78148 1.00586 0.0
H1839 H 0.06233 0.72866 0.13014 0.0
H1840 H 0.12451 0.71618 0.06465 0.0
H1841 H 0.10199 0.73455 0.10586 0.0
H1842 H 0.07513 0.74458 0.96117 0.0
H1843 H 0.09876 0.72667 0.91906 0.0
C1844 C 0.06127 0.78633 0.06903 0.0
C1845 C 0.05098 0.77816 0.11773 0.0
C1846 C 0.07226 0.7741 0.04257 0.0
C1847 C 0.07324 0.75326 0.06398 0.0
C1848 C 0.06244 0.74486 0.11243 0.0
C1849 C 0.05158 0.75717 0.13893 0.0
C1850 C 0.11371 0.72207 0.04116 0.0
C1851 C 0.11364 0.71983 0.98809 0.0
C1852 C 0.1005 0.73253 0.06518 0.0
C1853 C 0.08646 0.7411 0.03729 0.0
C1854 C 0.08589 0.73846 0.98415 0.0
C1855 C 0.09925 0.72792 0.95989 0.0
H1856 H 0.32448 0.40343 0.92109 0.0
H1857 H 0.32789 0.43854 0.065 0.0
H1858 H 0.30686 0.36184 0.96336 0.0
H1859 H 0.30981 0.39749 0.10628 0.0
H1860 H 0.29627 0.3245 0.17926 0.0
H1861 H 0.3174 0.36507 0.1338 0.0
H1862 H 0.2692 0.32894 1.00434 0.0
H1863 H 0.24864 0.28819 0.0496 0.0
C1864 C 0.32168 0.40241 0.96161 0.0
C1865 C 0.32779 0.4246 0.98929 0.0
C1866 C 0.31132 0.37847 0.98591 0.0
C1867 C 0.30686 0.37606 0.03858 0.0
C1868 C 0.31332 0.39836 0.06602 0.0
C1869 C 0.32362 0.4221 0.04196 0.0
C1870 C 0.29032 0.32518 0.14097 0.0
C1871 C 0.27076 0.30305 0.11817 0.0
C1872 C 0.30233 0.34855 0.11483 0.0
C1873 C 0.29505 0.35059 0.06513 0.0
C1874 C 0.27568 0.32826 0.04213 0.0
C1875 C 0.26373 0.30484 0.06826 0.0
H1876 H 0.60768 0.92415 0.06496 0.0
H1877 H 0.64598 0.94514 0.92048 0.0
H1878 H 0.64837 0.94641 0.10789 0.0
H1879 H 0.68727 0.96722 0.96404 0.0
H1880 H 0.75687 0.0221 0.06328 0.0
H1881 H 0.7165 1.00262 1.01663 0.0
H1882 H 0.68363 0.94123 0.12585 0.0
H1883 H 0.72358 0.96104 0.17274 0.0
C1884 C 0.62481 0.93358 0.04211 0.0
C1885 C 0.62332 0.93257 0.98894 0.0
C1886 C 0.64833 0.94625 0.06698 0.0
C1887 C 0.67139 0.95834 0.03977 0.0
C1888 C 0.67 0.95823 0.98648 0.0
C1889 C 0.64627 0.94553 0.96139 0.0
C1890 C 0.74093 1.00451 0.0774 0.0
C1891 C 0.74342 0.99328 0.12209 0.0
C1892 C 0.7178 0.9932 0.05039 0.0
C1893 C 0.6965 0.97036 0.06741 0.0
C1894 C 0.69925 0.95908 0.1119 0.0
C1895 C 0.72229 0.97038 0.13882 0.0
H1896 H 0.68736 0.62412 0.3023 0.0
H1897 H 0.62344 0.59077 0.19984 0.0
H1898 H 0.66759 0.64484 0.3485 0.0
H1899 H 0.60344 0.61079 0.24624 0.0
H1900 H 0.58528 0.66978 0.3017 0.0
H1901 H 0.60764 0.65133 0.25969 0.0
H1902 H 0.63268 0.63857 0.40399 0.0
H1903 H 0.61033 0.65771 0.4467 0.0
C1904 C 0.66909 0.62119 0.28963 0.0
C1905 C 0.65715 0.60597 0.24695 0.0
C1906 C 0.65762 0.63293 0.31639 0.0
C1907 C 0.63391 0.62981 0.30112 0.0
C1908 C 0.62193 0.61424 0.25875 0.0
C1909 C 0.63337 0.60259 0.23211 0.0
C1910 C 0.59564 0.66326 0.3249 0.0
C1911 C 0.59571 0.66522 0.378 0.0
C1912 C 0.60839 0.65238 0.30054 0.0
C1913 C 0.62173 0.64291 0.32815 0.0
C1914 C 0.62269 0.64566 0.38123 0.0
C1915 C 0.60984 0.65666 0.40584 0.0
H1916 H 0.42677 0.09477 0.30832 0.0
H1917 H 0.45093 0.06045 0.19463 0.0
H1918 H 0.40601 0.05437 0.35527 0.0
H1919 H 0.43095 0.02047 0.24175 0.0
H1920 H 0.37227 0.94501 0.30489 0.0
H1921 H 0.39032 0.98581 0.26212 0.0
H1922 H 0.41254 0.02458 0.4058 0.0
H1923 H 0.3937 0.98315 0.44924 0.0
C1924 C 0.42762 0.07858 0.29331 0.0
C1925 C 0.44027 0.08079 0.24735 0.0
C1926 C 0.41589 0.05544 0.32047 0.0
C1927 C 0.41647 0.03386 0.30234 0.0
C1928 C 0.42946 0.03633 0.25659 0.0
C1929 C 0.44109 0.05937 0.22951 0.0
C1930 C 0.38077 0.96215 0.32773 0.0
C1931 C 0.3816 0.9606 0.38077 0.0
C1932 C 0.3914 0.98572 0.30295 0.0
C1933 C 0.40346 1.00875 0.33012 0.0
C1934 C 0.4034 1.00732 0.38341 0.0
C1935 C 0.39256 0.98352 0.40844 0.0
H1936 H 0.06635 0.43432 0.4472 0.0
H1937 H 0.10191 0.46459 0.30255 0.0
H1938 H 0.02477 0.41068 0.40513 0.0
H1939 H 0.06091 0.44198 0.26149 0.0
H1940 H 0.98756 0.38326 0.18969 0.0
H1941 H 0.02793 0.40194 0.23534 0.0
H1942 H 0.99269 0.41642 0.36316 0.0
H1943 H 0.95209 0.39696 0.31773 0.0
C1944 C 0.06543 0.43582 0.40656 0.0
C1945 C 0.08772 0.45143 0.37859 0.0
C1946 C 0.0415 0.42244 0.38239 0.0
C1947 C 0.03926 0.42424 0.3296 0.0
C1948 C 0.06166 0.43955 0.30187 0.0
C1949 C 0.08538 0.45278 0.3258 0.0
C1950 C 0.98839 0.39026 0.22767 0.0
C1951 C 0.96658 0.3886 0.24997 0.0
C1952 C 1.01164 0.40117 0.2539 0.0
C1953 C 1.01385 0.41094 0.30317 0.0
C1954 C 0.99182 0.40887 0.32571 0.0
C1955 C 0.96851 0.39784 0.29949 0.0
H1956 H 0.43412 0.39541 0.5849 0.0
H1957 H 0.45587 0.37959 0.73009 0.0
H1958 H 0.41182 0.41457 0.62795 0.0
H1959 H 0.43369 0.39814 0.77228 0.0
H1960 H 0.41996 0.45955 0.83452 0.0
H1961 H 0.43961 0.4395 0.78706 0.0
H1962 H 0.37618 0.40789 0.68301 0.0
H1963 H 0.35672 0.42861 0.73034 0.0
C1964 C 0.43386 0.39562 0.6258 0.0
C1965 C 0.44712 0.38609 0.6537 0.0
C1966 C 0.42108 0.40665 0.65058 0.0
C1967 C 0.42128 0.40844 0.70383 0.0
C1968 C 0.4336 0.39786 0.73137 0.0
C1969 C 0.44625 0.38694 0.70688 0.0
C1970 C 0.41012 0.44827 0.80164 0.0
C1971 C 0.38661 0.44552 0.78664 0.0
C1972 C 0.42135 0.43661 0.77438 0.0
C1973 C 0.40943 0.4217 0.73124 0.0
C1974 C 0.38605 0.41927 0.71575 0.0
C1975 C 0.37477 0.431 0.74314 0.0
H1976 H 0.67375 0.10614 0.72935 0.0
H1977 H 0.64971 0.06875 0.5847 0.0
H1978 H 0.6555 0.065 0.77126 0.0
H1979 H 0.63167 0.02714 0.62691 0.0
H1980 H 0.57535 0.95846 0.72613 0.0
H1981 H 0.59647 0.99899 0.6804 0.0
H1982 H 0.65871 0.02817 0.78722 0.0
H1983 H 0.63709 0.98777 0.8337 0.0
C1984 C 0.66486 0.08911 0.70624 0.0
C1985 C 0.66326 0.09095 0.6534 0.0
C1986 C 0.65446 0.06535 0.73045 0.0
C1987 C 0.64196 0.04247 0.70281 0.0
C1988 C 0.64088 0.04425 0.64972 0.0
C1989 C 0.6515 0.06816 0.62532 0.0
C1990 C 0.59364 0.97348 0.73969 0.0
C1991 C 0.60452 0.96982 0.78365 0.0
C1992 C 0.60588 0.99675 0.71318 0.0
C1993 C 0.62946 0.01708 0.72972 0.0
C1994 C 0.64046 0.01321 0.77348 0.0
C1995 C 0.62813 0.98996 0.80012 0.0
H1996 H 0.97749 0.6175 0.58891 0.0
H1997 H 0.94203 0.58318 0.73155 0.0
H1998 H 0.01917 0.64003 0.63146 0.0
H1999 H 0.98293 0.60548 0.77312 0.0
H2000 H 0.06107 0.62324 0.82485 0.0
H2001 H 0.0212 0.60323 0.77771 0.0
H2002 H 0.04593 0.67327 0.69464 0.0
H2003 H 0.08632 0.69325 0.74167 0.0
C2004 C 0.97842 0.6149 0.62919 0.0
C2005 C 0.95613 0.59824 0.65633 0.0
C2006 C 1.00236 0.62786 0.65368 0.0
C2007 C 1.00464 0.62434 0.70581 0.0
C2008 C 0.98223 0.60831 0.73287 0.0
C2009 C 0.95853 0.59558 0.70874 0.0
C2010 C 0.05805 0.63446 0.79666 0.0
C2011 C 0.07687 0.65996 0.78752 0.0
C2012 C 0.03505 0.62298 0.7696 0.0
C2013 C 0.03002 0.63663 0.73247 0.0
C2014 C 0.04908 0.66207 0.72263 0.0
C2015 C 0.07218 0.6736 0.74988 0.0
loop_
_geom_bond_atom_site_label_1
_geom_bond_atom_site_label_2
_geom_bond_distance
_geom_bond_site_symmetry_2
_ccdc_geom_bond_type
Co0 H3 2.400 1_545 S
Co0 O4 1.994 1_545 S
Co0 O12 2.115 . S
Co0 O13 2.315 1_545 S
Co0 O24 2.053 1_545 S
Co0 O27 2.094 . S
Co0 O30 2.122 . S
Co1 O4 2.108 1_545 S
Co1 H5 2.388 . S
Co1 O6 2.053 . S
Co1 O9 2.047 . S
Co1 O15 2.099 1_545 S
Co1 O26 2.063 . S
Co2 H3 2.388 . S
Co2 O4 2.071 . S
Co2 O6 2.126 1_565 S
Co2 O11 2.063 . S
Co2 O25 2.047 . S
Co2 O31 2.113 1_565 S
H3 Co0 2.400 1_565 S
H3 Co2 2.388 . S
H3 O4 0.781 . S
O4 Co0 1.994 1_565 S
O4 Co1 2.108 1_565 S
O4 Co2 2.071 . S
O4 H3 0.781 . S
H5 Co1 2.388 . S
H5 O6 0.760 . S
H5 Co7 2.400 . S
O6 Co1 2.053 . S
O6 Co2 2.126 1_545 S
O6 H5 0.760 . S
O6 Co7 2.009 . S
Co7 H5 2.400 . S
Co7 O6 2.009 . S
Co7 O8 2.053 . S
Co7 O10 2.094 1_545 S
Co7 O14 2.122 1_545 S
Co7 O28 2.115 . S
Co7 O29 2.315 . S
O8 Co7 2.053 . S
O8 C20 1.259 . S
O9 Co1 2.047 . S
O9 C20 1.257 . S
O10 Co7 2.094 1_565 S
O10 C21 1.253 . S
O11 Co2 2.063 . S
O11 C21 1.268 . S
O12 Co0 2.115 . S
O12 C22 1.281 1_545 S
O13 Co0 2.315 1_565 S
O13 C22 1.252 . S
O14 Co7 2.122 1_565 S
O14 C23 1.272 . S
O15 Co1 2.099 1_565 S
O15 C23 1.262 . S
C16 O24 1.259 . S
C16 O25 1.257 . S
C17 O26 1.268 . S
C17 O27 1.253 . S
C18 O28 1.281 . S
C18 O29 1.252 . S
C19 O30 1.272 . S
C19 O31 1.245 . S
C20 O8 1.259 . S
C20 O9 1.257 . S
C21 O10 1.253 . S
C21 O11 1.268 . S
C22 O12 1.281 1_565 S
C22 O13 1.252 . S
C23 O14 1.272 . S
C23 O15 1.262 . S
O24 Co0 2.053 1_565 S
O24 C16 1.259 . S
O25 Co2 2.047 . S
O25 C16 1.257 . S
O26 Co1 2.063 . S
O26 C17 1.268 . S
O27 Co0 2.094 . S
O27 C17 1.253 . S
O28 Co7 2.115 . S
O28 C18 1.281 . S
O29 Co7 2.315 . S
O29 C18 1.252 . S
O30 Co0 2.122 . S
O30 C19 1.272 . S
O31 Co2 2.113 1_545 S
O31 C19 1.245 . S
Co32 H35 2.400 . S
Co32 O36 2.009 . S
Co32 O44 2.115 . S
Co32 O45 2.315 . S
Co32 O56 2.053 . S
Co32 O59 2.094 1_455 S
Co32 O62 2.122 1_455 S
Co33 O36 2.126 1_655 S
Co33 H37 2.388 . S
Co33 O38 2.053 . S
Co33 O41 2.047 . S
Co33 O47 2.113 1_655 S
Co33 O58 2.063 . S
Co34 H35 2.388 . S
Co34 O36 2.053 . S
Co34 O38 2.126 1_455 S
Co34 O43 2.063 . S
Co34 O57 2.047 . S
Co34 O63 2.113 1_455 S
H35 Co32 2.400 . S
H35 Co34 2.388 . S
H35 O36 0.760 . S
O36 Co32 2.009 . S
O36 Co33 2.126 1_455 S
O36 Co34 2.053 . S
O36 H35 0.760 . S
H37 Co33 2.388 . S
H37 O38 0.760 . S
H37 Co39 2.399 1_655 S
O38 Co33 2.053 . S
O38 Co34 2.126 1_655 S
O38 H37 0.760 . S
O38 Co39 2.014 1_655 S
Co39 H37 2.399 1_455 S
Co39 O38 2.014 1_455 S
Co39 O40 2.046 1_455 S
Co39 O42 2.099 . S
Co39 O46 2.139 . S
Co39 O60 2.106 1_455 S
Co39 O61 2.297 1_455 S
O40 Co39 2.046 1_655 S
O40 C52 1.259 . S
O41 Co33 2.047 . S
O41 C52 1.257 . S
O42 Co39 2.099 . S
O42 C53 1.253 . S
O43 Co34 2.063 . S
O43 C53 1.268 . S
O44 Co32 2.115 . S
O44 C54 1.281 . S
O45 Co32 2.315 . S
O45 C54 1.252 . S
O46 Co39 2.139 . S
O46 C55 1.272 . S
O47 Co33 2.113 1_455 S
O47 C55 1.245 . S
C48 O56 1.259 . S
C48 O57 1.257 . S
C49 O58 1.268 . S
C49 O59 1.253 . S
C50 O60 1.281 . S
C50 O61 1.252 . S
C51 O62 1.272 . S
C51 O63 1.245 . S
C52 O40 1.259 . S
C52 O41 1.257 . S
C53 O42 1.253 . S
C53 O43 1.268 . S
C54 O44 1.281 . S
C54 O45 1.252 . S
C55 O46 1.272 . S
C55 O47 1.245 . S
O56 Co32 2.053 . S
O56 C48 1.259 . S
O57 Co34 2.047 . S
O57 C48 1.257 . S
O58 Co33 2.063 . S
O58 C49 1.268 . S
O59 Co32 2.094 1_655 S
O59 C49 1.253 . S
O60 Co39 2.106 1_655 S
O60 C50 1.281 . S
O61 Co39 2.297 1_655 S
O61 C50 1.252 . S
O62 Co32 2.122 1_655 S
O62 C51 1.272 . S
O63 Co34 2.113 1_655 S
O63 C51 1.245 . S
Co64 H67 2.400 . S
Co64 O68 2.009 . S
Co64 O76 2.115 . S
Co64 O77 2.315 . S
Co64 O88 2.053 . S
Co64 O91 2.094 . S
Co64 O94 2.122 . S
Co65 O68 2.126 . S
Co65 H69 2.388 . S
Co65 O70 2.053 . S
Co65 O73 2.047 . S
Co65 O79 2.113 . S
Co65 O90 2.063 . S
Co66 H67 2.388 . S
Co66 O68 2.053 . S
Co66 O70 2.126 . S
Co66 O75 2.063 . S
Co66 O89 2.047 . S
Co66 O95 2.113 . S
H67 Co64 2.400 . S
H67 Co66 2.388 . S
H67 O68 0.760 . S
O68 Co64 2.009 . S
O68 Co65 2.126 . S
O68 Co66 2.053 . S
O68 H67 0.760 . S
H69 Co65 2.388 . S
H69 O70 0.760 . S
H69 Co71 2.400 . S
O70 Co65 2.053 . S
O70 Co66 2.126 . S
O70 H69 0.760 . S
O70 Co71 2.009 . S
Co71 H69 2.400 . S
Co71 O70 2.009 . S
Co71 O72 2.053 . S
Co71 O74 2.094 . S
Co71 O78 2.122 . S
Co71 O92 2.115 . S
Co71 O93 2.315 . S
O72 Co71 2.053 . S
O72 C84 1.259 . S
O73 Co65 2.047 . S
O73 C84 1.257 . S
O74 Co71 2.094 . S
O74 C85 1.253 . S
O75 Co66 2.063 . S
O75 C85 1.268 . S
O76 Co64 2.115 . S
O76 C86 1.281 . S
O77 Co64 2.315 . S
O77 C86 1.252 . S
O78 Co71 2.122 . S
O78 C87 1.272 . S
O79 Co65 2.113 . S
O79 C87 1.245 . S
C80 O88 1.259 . S
C80 O89 1.257 . S
C81 O90 1.268 . S
C81 O91 1.253 . S
C82 O92 1.281 . S
C82 O93 1.252 . S
C83 O94 1.272 . S
C83 O95 1.245 . S
C84 O72 1.259 . S
C84 O73 1.257 . S
C85 O74 1.253 . S
C85 O75 1.268 . S
C86 O76 1.281 . S
C86 O77 1.252 . S
C87 O78 1.272 . S
C87 O79 1.245 . S
O88 Co64 2.053 . S
O88 C80 1.259 . S
O89 Co66 2.047 . S
O89 C80 1.257 . S
O90 Co65 2.063 . S
O90 C81 1.268 . S
O91 Co64 2.094 . S
O91 C81 1.253 . S
O92 Co71 2.115 . S
O92 C82 1.281 . S
O93 Co71 2.315 . S
O93 C82 1.252 . S
O94 Co64 2.122 . S
O94 C83 1.272 . S
O95 Co66 2.113 . S
O95 C83 1.245 . S
Co96 H99 2.400 1_545 S
Co96 O100 2.009 . S
Co96 O108 2.115 . S
Co96 O109 2.315 1_545 S
Co96 O120 2.053 1_545 S
Co96 O123 2.094 . S
Co96 O126 2.122 . S
Co97 O100 2.126 . S
Co97 H101 2.388 . S
Co97 O102 2.053 . S
Co97 O105 2.047 . S
Co97 O111 2.113 . S
Co97 O122 2.063 . S
Co98 H99 2.388 1_545 S
Co98 O100 2.053 . S
Co98 O102 2.126 . S
Co98 O107 2.063 . S
Co98 O121 2.047 1_545 S
Co98 O127 2.113 . S
H99 Co96 2.400 1_565 S
H99 Co98 2.388 1_565 S
H99 O100 0.760 1_565 S
O100 Co96 2.009 . S
O100 Co97 2.126 . S
O100 Co98 2.053 . S
O100 H99 0.760 1_545 S
H101 Co97 2.388 . S
H101 O102 0.760 . S
H101 Co103 2.400 . S
O102 Co97 2.053 . S
O102 Co98 2.126 . S
O102 H101 0.760 . S
O102 Co103 2.009 . S
Co103 H101 2.400 . S
Co103 O102 2.009 . S
Co103 O104 2.053 . S
Co103 O106 2.094 . S
Co103 O110 2.122 1_545 S
Co103 O124 2.115 . S
Co103 O125 2.315 . S
O104 Co103 2.053 . S
O104 C116 1.259 . S
O105 Co97 2.047 . S
O105 C116 1.257 . S
O106 Co103 2.094 . S
O106 C117 1.253 1_545 S
O107 Co98 2.063 . S
O107 C117 1.268 1_545 S
O108 Co96 2.115 . S
O108 C118 1.281 1_545 S
O109 Co96 2.315 1_565 S
O109 C118 1.252 . S
O110 Co103 2.122 1_565 S
O110 C119 1.272 . S
O111 Co97 2.113 . S
O111 C119 1.245 1_545 S
C112 O120 1.259 . S
C112 O121 1.257 . S
C113 O122 1.268 . S
C113 O123 1.253 . S
C114 O124 1.281 . S
C114 O125 1.252 . S
C115 O126 1.272 . S
C115 O127 1.245 . S
C116 O104 1.259 . S
C116 O105 1.257 . S
C117 O106 1.253 1_565 S
C117 O107 1.268 1_565 S
C118 O108 1.281 1_565 S
C118 O109 1.252 . S
C119 O110 1.272 . S
C119 O111 1.245 1_565 S
O120 Co96 2.053 1_565 S
O120 C112 1.259 . S
O121 Co98 2.047 1_565 S
O121 C112 1.257 . S
O122 Co97 2.063 . S
O122 C113 1.268 . S
O123 Co96 2.094 . S
O123 C113 1.253 . S
O124 Co103 2.115 . S
O124 C114 1.281 . S
O125 Co103 2.315 . S
O125 C114 1.252 . S
O126 Co96 2.122 . S
O126 C115 1.272 . S
O127 Co98 2.113 . S
O127 C115 1.245 . S
Co128 H131 2.400 . S
Co128 O132 2.009 . S
Co128 O140 2.115 . S
Co128 O141 2.315 . S
Co128 O152 2.053 . S
Co128 O155 2.094 1_455 S
Co128 O158 2.122 1_455 S
Co129 O132 2.126 1_655 S
Co129 H133 2.388 . S
Co129 O134 2.053 . S
Co129 O137 2.047 . S
Co129 O143 2.113 1_655 S
Co129 O154 2.063 . S
Co130 H131 2.388 . S
Co130 O132 2.053 . S
Co130 O134 2.126 1_455 S
Co130 O139 2.063 . S
Co130 O153 2.047 . S
Co130 O159 2.113 1_455 S
H131 Co128 2.400 . S
H131 Co130 2.388 . S
H131 O132 0.760 . S
O132 Co128 2.009 . S
O132 Co129 2.126 1_455 S
O132 Co130 2.053 . S
O132 H131 0.760 . S
H133 Co129 2.388 . S
H133 O134 0.760 . S
H133 Co135 2.400 . S
O134 Co129 2.053 . S
O134 Co130 2.126 1_655 S
O134 H133 0.760 . S
O134 Co135 2.009 . S
Co135 H133 2.400 . S
Co135 O134 2.009 . S
Co135 O136 2.053 . S
Co135 O138 2.094 1_655 S
Co135 O142 2.122 1_655 S
Co135 O156 2.115 . S
Co135 O157 2.315 . S
O136 Co135 2.053 . S
O136 C148 1.259 . S
O137 Co129 2.047 . S
O137 C148 1.257 . S
O138 Co135 2.094 1_455 S
O138 C149 1.253 . S
O139 Co130 2.063 . S
O139 C149 1.268 . S
O140 Co128 2.115 . S
O140 C150 1.281 . S
O141 Co128 2.315 . S
O141 C150 1.252 . S
O142 Co135 2.122 1_455 S
O142 C151 1.272 . S
O143 Co129 2.113 1_455 S
O143 C151 1.245 . S
C144 O152 1.259 . S
C144 O153 1.257 . S
C145 O154 1.268 . S
C145 O155 1.253 . S
C146 O156 1.281 . S
C146 O157 1.252 . S
C147 O158 1.272 . S
C147 O159 1.245 . S
C148 O136 1.259 . S
C148 O137 1.257 . S
C149 O138 1.253 . S
C149 O139 1.268 . S
C150 O140 1.281 . S
C150 O141 1.252 . S
C151 O142 1.272 . S
C151 O143 1.245 . S
O152 Co128 2.053 . S
O152 C144 1.259 . S
O153 Co130 2.047 . S
O153 C144 1.257 . S
O154 Co129 2.063 . S
O154 C145 1.268 . S
O155 Co128 2.094 1_655 S
O155 C145 1.253 . S
O156 Co135 2.115 . S
O156 C146 1.281 . S
O157 Co135 2.315 . S
O157 C146 1.252 . S
O158 Co128 2.122 1_655 S
O158 C147 1.272 . S
O159 Co130 2.113 1_655 S
O159 C147 1.245 . S
Co160 H163 2.400 . S
Co160 O164 2.009 . S
Co160 O172 2.115 . S
Co160 O173 2.315 . S
Co160 O184 2.053 . S
Co160 O187 2.094 . S
Co160 O190 2.122 . S
Co161 O164 2.126 . S
Co161 H165 2.388 . S
Co161 O166 2.053 . S
Co161 O169 2.047 . S
Co161 O175 2.113 . S
Co161 O186 2.063 . S
Co162 H163 2.388 . S
Co162 O164 2.053 . S
Co162 O166 2.126 . S
Co162 O171 2.063 . S
Co162 O185 2.047 . S
Co162 O191 2.113 . S
H163 Co160 2.400 . S
H163 Co162 2.388 . S
H163 O164 0.760 . S
O164 Co160 2.009 . S
O164 Co161 2.126 . S
O164 Co162 2.053 . S
O164 H163 0.760 . S
H165 Co161 2.388 . S
H165 O166 0.760 . S
H165 Co167 2.400 . S
O166 Co161 2.053 . S
O166 Co162 2.126 . S
O166 H165 0.760 . S
O166 Co167 2.009 . S
Co167 H165 2.400 . S
Co167 O166 2.009 . S
Co167 O168 2.053 . S
Co167 O170 2.094 . S
Co167 O174 2.122 . S
Co167 O188 2.115 . S
Co167 O189 2.315 . S
O168 Co167 2.053 . S
O168 C180 1.259 . S
O169 Co161 2.047 . S
O169 C180 1.257 . S
O170 Co167 2.094 . S
O170 C181 1.253 . S
O171 Co162 2.063 . S
O171 C181 1.268 . S
O172 Co160 2.115 . S
O172 C182 1.281 . S
O173 Co160 2.315 . S
O173 C182 1.252 . S
O174 Co167 2.122 . S
O174 C183 1.272 . S
O175 Co161 2.113 . S
O175 C183 1.245 . S
C176 O184 1.259 . S
C176 O185 1.257 . S
C177 O186 1.268 . S
C177 O187 1.253 . S
C178 O188 1.281 . S
C178 O189 1.252 . S
C179 O190 1.272 . S
C179 O191 1.245 . S
C180 O168 1.259 . S
C180 O169 1.257 . S
C181 O170 1.253 . S
C181 O171 1.268 . S
C182 O172 1.281 . S
C182 O173 1.252 . S
C183 O174 1.272 . S
C183 O175 1.245 . S
O184 Co160 2.053 . S
O184 C176 1.259 . S
O185 Co162 2.047 . S
O185 C176 1.257 . S
O186 Co161 2.063 . S
O186 C177 1.268 . S
O187 Co160 2.094 . S
O187 C177 1.253 . S
O188 Co167 2.115 . S
O188 C178 1.281 . S
O189 Co167 2.315 . S
O189 C178 1.252 . S
O190 Co160 2.122 . S
O190 C179 1.272 . S
O191 Co162 2.113 . S
O191 C179 1.245 . S
Co192 H195 2.400 . S
Co192 O196 2.009 . S
Co192 O204 2.115 1_554 S
Co192 O205 2.315 . S
Co192 O216 2.053 1_554 S
Co192 O219 2.094 . S
Co192 O222 2.122 1_554 S
Co193 O196 2.126 . S
Co193 H197 2.388 . S
Co193 O198 2.053 . S
Co193 O201 2.047 . S
Co193 O207 2.113 . S
Co193 O218 2.063 . S
Co194 H195 2.388 . S
Co194 O196 2.053 . S
Co194 O198 2.126 . S
Co194 O203 2.063 . S
Co194 O217 2.047 1_554 S
Co194 O223 2.113 1_554 S
H195 Co192 2.400 . S
H195 Co194 2.388 . S
H195 O196 0.760 . S
O196 Co192 2.009 . S
O196 Co193 2.126 . S
O196 Co194 2.053 . S
O196 H195 0.760 . S
H197 Co193 2.388 . S
H197 O198 0.760 . S
H197 Co199 2.400 . S
O198 Co193 2.053 . S
O198 Co194 2.126 . S
O198 H197 0.760 . S
O198 Co199 2.009 . S
Co199 H197 2.400 . S
Co199 O198 2.009 . S
Co199 O200 2.053 . S
Co199 O202 2.094 . S
Co199 O206 2.122 . S
Co199 O220 2.115 . S
Co199 O221 2.315 . S
O200 Co199 2.053 . S
O200 C212 1.259 . S
O201 Co193 2.047 . S
O201 C212 1.257 . S
O202 Co199 2.094 . S
O202 C213 1.253 . S
O203 Co194 2.063 . S
O203 C213 1.268 . S
O204 Co192 2.115 1_556 S
O204 C214 1.281 1_556 S
O205 Co192 2.315 . S
O205 C214 1.252 . S
O206 Co199 2.122 . S
O206 C215 1.272 . S
O207 Co193 2.113 . S
O207 C215 1.245 . S
C208 O216 1.259 . S
C208 O217 1.257 . S
C209 O218 1.268 . S
C209 O219 1.253 . S
C210 O220 1.281 . S
C210 O221 1.252 . S
C211 O222 1.272 . S
C211 O223 1.245 . S
C212 O200 1.259 . S
C212 O201 1.257 . S
C213 O202 1.253 . S
C213 O203 1.268 . S
C214 O204 1.281 1_554 S
C214 O205 1.252 . S
C215 O206 1.272 . S
C215 O207 1.245 . S
O216 Co192 2.053 1_556 S
O216 C208 1.259 . S
O217 Co194 2.047 1_556 S
O217 C208 1.257 . S
O218 Co193 2.063 . S
O218 C209 1.268 . S
O219 Co192 2.094 . S
O219 C209 1.253 . S
O220 Co199 2.115 . S
O220 C210 1.281 . S
O221 Co199 2.315 . S
O221 C210 1.252 . S
O222 Co192 2.122 1_556 S
O222 C211 1.272 . S
O223 Co194 2.113 1_556 S
O223 C211 1.245 . S
Co224 H227 2.400 . S
Co224 O228 2.009 . S
Co224 O236 2.115 1_554 S
Co224 O237 2.315 . S
Co224 O248 2.053 1_554 S
Co224 O251 2.094 . S
Co224 O254 2.122 1_554 S
Co225 O228 2.126 . S
Co225 H229 2.388 . S
Co225 O230 2.053 . S
Co225 O233 2.047 . S
Co225 O239 2.113 . S
Co225 O250 2.063 . S
Co226 H227 2.388 . S
Co226 O228 2.053 . S
Co226 O230 2.126 . S
Co226 O235 2.063 . S
Co226 O249 2.047 1_554 S
Co226 O255 2.113 1_554 S
H227 Co224 2.400 . S
H227 Co226 2.388 . S
H227 O228 0.760 . S
O228 Co224 2.009 . S
O228 Co225 2.126 . S
O228 Co226 2.053 . S
O228 H227 0.760 . S
H229 Co225 2.388 . S
H229 O230 0.760 . S
H229 Co231 2.400 . S
O230 Co225 2.053 . S
O230 Co226 2.126 . S
O230 H229 0.760 . S
O230 Co231 2.009 . S
Co231 H229 2.400 . S
Co231 O230 2.009 . S
Co231 O232 2.053 . S
Co231 O234 2.094 . S
Co231 O238 2.122 . S
Co231 O252 2.115 . S
Co231 O253 2.315 . S
O232 Co231 2.053 . S
O232 C244 1.259 . S
O233 Co225 2.047 . S
O233 C244 1.257 . S
O234 Co231 2.094 . S
O234 C245 1.253 . S
O235 Co226 2.063 . S
O235 C245 1.268 . S
O236 Co224 2.115 1_556 S
O236 C246 1.281 1_556 S
O237 Co224 2.315 . S
O237 C246 1.252 . S
O238 Co231 2.122 . S
O238 C247 1.272 . S
O239 Co225 2.113 . S
O239 C247 1.245 . S
C240 O248 1.259 . S
C240 O249 1.257 . S
C241 O250 1.268 . S
C241 O251 1.253 . S
C242 O252 1.281 . S
C242 O253 1.252 . S
C243 O254 1.272 . S
C243 O255 1.245 . S
C244 O232 1.259 . S
C244 O233 1.257 . S
C245 O234 1.253 . S
C245 O235 1.268 . S
C246 O236 1.281 1_554 S
C246 O237 1.252 . S
C247 O238 1.272 . S
C247 O239 1.245 . S
O248 Co224 2.053 1_556 S
O248 C240 1.259 . S
O249 Co226 2.047 1_556 S
O249 C240 1.257 . S
O250 Co225 2.063 . S
O250 C241 1.268 . S
O251 Co224 2.094 . S
O251 C241 1.253 . S
O252 Co231 2.115 . S
O252 C242 1.281 . S
O253 Co231 2.315 . S
O253 C242 1.252 . S
O254 Co224 2.122 1_556 S
O254 C243 1.272 . S
O255 Co226 2.113 1_556 S
O255 C243 1.245 . S
Co256 H259 2.400 . S
Co256 O260 2.009 . S
Co256 O268 2.115 1_554 S
Co256 O269 2.315 . S
Co256 O280 2.053 1_554 S
Co256 O283 2.094 . S
Co256 O286 2.122 1_554 S
Co257 O260 2.126 . S
Co257 H261 2.388 . S
Co257 O262 2.053 . S
Co257 O265 2.047 . S
Co257 O271 2.113 . S
Co257 O282 2.063 . S
Co258 H259 2.388 . S
Co258 O260 2.053 . S
Co258 O262 2.126 . S
Co258 O267 2.063 . S
Co258 O281 2.047 1_554 S
Co258 O287 2.113 1_554 S
H259 Co256 2.400 . S
H259 Co258 2.388 . S
H259 O260 0.760 . S
O260 Co256 2.009 . S
O260 Co257 2.126 . S
O260 Co258 2.053 . S
O260 H259 0.760 . S
H261 Co257 2.388 . S
H261 O262 0.760 . S
H261 Co263 2.400 . S
O262 Co257 2.053 . S
O262 Co258 2.126 . S
O262 H261 0.760 . S
O262 Co263 2.009 . S
Co263 H261 2.400 . S
Co263 O262 2.009 . S
Co263 O264 2.053 . S
Co263 O266 2.094 . S
Co263 O270 2.122 . S
Co263 O284 2.115 . S
Co263 O285 2.315 . S
O264 Co263 2.053 . S
O264 C276 1.259 . S
O265 Co257 2.047 . S
O265 C276 1.257 . S
O266 Co263 2.094 . S
O266 C277 1.253 . S
O267 Co258 2.063 . S
O267 C277 1.268 . S
O268 Co256 2.115 1_556 S
O268 C278 1.281 1_556 S
O269 Co256 2.315 . S
O269 C278 1.252 . S
O270 Co263 2.122 . S
O270 C279 1.272 . S
O271 Co257 2.113 . S
O271 C279 1.245 . S
C272 O280 1.259 . S
C272 O281 1.257 . S
C273 O282 1.268 . S
C273 O283 1.253 . S
C274 O284 1.281 . S
C274 O285 1.252 . S
C275 O286 1.272 . S
C275 O287 1.245 . S
C276 O264 1.259 . S
C276 O265 1.257 . S
C277 O266 1.253 . S
C277 O267 1.268 . S
C278 O268 1.281 1_554 S
C278 O269 1.252 . S
C279 O270 1.272 . S
C279 O271 1.245 . S
O280 Co256 2.053 1_556 S
O280 C272 1.259 . S
O281 Co258 2.047 1_556 S
O281 C272 1.257 . S
O282 Co257 2.063 . S
O282 C273 1.268 . S
O283 Co256 2.094 . S
O283 C273 1.253 . S
O284 Co263 2.115 . S
O284 C274 1.281 . S
O285 Co263 2.315 . S
O285 C274 1.252 . S
O286 Co256 2.122 1_556 S
O286 C275 1.272 . S
O287 Co258 2.113 1_556 S
O287 C275 1.245 . S
Co288 H291 2.400 . S
Co288 O292 2.009 . S
Co288 O300 2.115 . S
Co288 O301 2.315 . S
Co288 O312 2.053 . S
Co288 O315 2.094 . S
Co288 O318 2.122 . S
Co289 O292 2.126 . S
Co289 H293 2.388 . S
Co289 O294 2.053 . S
Co289 O297 2.047 . S
Co289 O303 2.113 . S
Co289 O314 2.063 . S
Co290 H291 2.388 . S
Co290 O292 2.053 . S
Co290 O294 2.126 . S
Co290 O299 2.063 . S
Co290 O313 2.047 . S
Co290 O319 2.113 . S
H291 Co288 2.400 . S
H291 Co290 2.388 . S
H291 O292 0.760 . S
O292 Co288 2.009 . S
O292 Co289 2.126 . S
O292 Co290 2.053 . S
O292 H291 0.760 . S
H293 Co289 2.388 . S
H293 O294 0.760 . S
H293 Co295 2.400 . S
O294 Co289 2.053 . S
O294 Co290 2.126 . S
O294 H293 0.760 . S
O294 Co295 2.009 . S
Co295 H293 2.400 . S
Co295 O294 2.009 . S
Co295 O296 2.053 . S
Co295 O298 2.094 . S
Co295 O302 2.122 . S
Co295 O316 2.115 . S
Co295 O317 2.315 . S
O296 Co295 2.053 . S
O296 C308 1.259 . S
O297 Co289 2.047 . S
O297 C308 1.257 . S
O298 Co295 2.094 . S
O298 C309 1.253 . S
O299 Co290 2.063 . S
O299 C309 1.268 . S
O300 Co288 2.115 . S
O300 C310 1.281 . S
O301 Co288 2.315 . S
O301 C310 1.252 . S
O302 Co295 2.122 . S
O302 C311 1.272 . S
O303 Co289 2.113 . S
O303 C311 1.245 . S
C304 O312 1.259 . S
C304 O313 1.257 . S
C305 O314 1.268 . S
C305 O315 1.253 . S
C306 O316 1.281 . S
C306 O317 1.252 . S
C307 O318 1.272 . S
C307 O319 1.245 . S
C308 O296 1.259 . S
C308 O297 1.257 . S
C309 O298 1.253 . S
C309 O299 1.268 . S
C310 O300 1.281 . S
C310 O301 1.252 . S
C311 O302 1.272 . S
C311 O303 1.245 . S
O312 Co288 2.053 . S
O312 C304 1.259 . S
O313 Co290 2.047 . S
O313 C304 1.257 . S
O314 Co289 2.063 . S
O314 C305 1.268 . S
O315 Co288 2.094 . S
O315 C305 1.253 . S
O316 Co295 2.115 . S
O316 C306 1.281 . S
O317 Co295 2.315 . S
O317 C306 1.252 . S
O318 Co288 2.122 . S
O318 C307 1.272 . S
O319 Co290 2.113 . S
O319 C307 1.245 . S
Co320 H323 2.400 . S
Co320 O324 2.009 . S
Co320 O332 2.115 . S
Co320 O333 2.315 . S
Co320 O344 2.053 . S
Co320 O347 2.094 . S
Co320 O350 2.122 . S
Co321 O324 2.126 . S
Co321 H325 2.388 . S
Co321 O326 2.053 . S
Co321 O329 2.047 . S
Co321 O335 2.113 . S
Co321 O346 2.063 . S
Co322 H323 2.388 . S
Co322 O324 2.053 . S
Co322 O326 2.126 . S
Co322 O331 2.063 . S
Co322 O345 2.047 . S
Co322 O351 2.113 . S
H323 Co320 2.400 . S
H323 Co322 2.388 . S
H323 O324 0.760 . S
O324 Co320 2.009 . S
O324 Co321 2.126 . S
O324 Co322 2.053 . S
O324 H323 0.760 . S
H325 Co321 2.388 . S
H325 O326 0.760 . S
H325 Co327 2.400 . S
O326 Co321 2.053 . S
O326 Co322 2.126 . S
O326 H325 0.760 . S
O326 Co327 2.009 . S
Co327 H325 2.400 . S
Co327 O326 2.009 . S
Co327 O328 2.053 . S
Co327 O330 2.094 . S
Co327 O334 2.122 . S
Co327 O348 2.115 . S
Co327 O349 2.315 . S
O328 Co327 2.053 . S
O328 C340 1.259 . S
O329 Co321 2.047 . S
O329 C340 1.257 . S
O330 Co327 2.094 . S
O330 C341 1.253 . S
O331 Co322 2.063 . S
O331 C341 1.268 . S
O332 Co320 2.115 . S
O332 C342 1.281 . S
O333 Co320 2.315 . S
O333 C342 1.252 . S
O334 Co327 2.122 . S
O334 C343 1.272 . S
O335 Co321 2.113 . S
O335 C343 1.245 . S
C336 O344 1.259 . S
C336 O345 1.257 . S
C337 O346 1.268 . S
C337 O347 1.253 . S
C338 O348 1.281 . S
C338 O349 1.252 . S
C339 O350 1.272 . S
C339 O351 1.245 . S
C340 O328 1.259 . S
C340 O329 1.257 . S
C341 O330 1.253 . S
C341 O331 1.268 . S
C342 O332 1.281 . S
C342 O333 1.252 . S
C343 O334 1.272 . S
C343 O335 1.245 . S
O344 Co320 2.053 . S
O344 C336 1.259 . S
O345 Co322 2.047 . S
O345 C336 1.257 . S
O346 Co321 2.063 . S
O346 C337 1.268 . S
O347 Co320 2.094 . S
O347 C337 1.253 . S
O348 Co327 2.115 . S
O348 C338 1.281 . S
O349 Co327 2.315 . S
O349 C338 1.252 . S
O350 Co320 2.122 . S
O350 C339 1.272 . S
O351 Co322 2.113 . S
O351 C339 1.245 . S
Co352 H355 2.400 . S
Co352 O356 2.009 . S
Co352 O364 2.115 . S
Co352 O365 2.315 . S
Co352 O376 2.053 . S
Co352 O379 2.094 . S
Co352 O382 2.122 . S
Co353 O356 2.126 . S
Co353 H357 2.388 . S
Co353 O358 2.053 . S
Co353 O361 2.047 . S
Co353 O367 2.113 . S
Co353 O378 2.063 . S
Co354 H355 2.388 . S
Co354 O356 2.053 . S
Co354 O358 2.126 . S
Co354 O363 2.063 . S
Co354 O377 2.047 . S
Co354 O383 2.113 . S
H355 Co352 2.400 . S
H355 Co354 2.388 . S
H355 O356 0.760 . S
O356 Co352 2.009 . S
O356 Co353 2.126 . S
O356 Co354 2.053 . S
O356 H355 0.760 . S
H357 Co353 2.388 . S
H357 O358 0.760 . S
H357 Co359 2.400 . S
O358 Co353 2.053 . S
O358 Co354 2.126 . S
O358 H357 0.760 . S
O358 Co359 2.009 . S
Co359 H357 2.400 . S
Co359 O358 2.009 . S
Co359 O360 2.053 . S
Co359 O362 2.094 . S
Co359 O366 2.122 . S
Co359 O380 2.115 . S
Co359 O381 2.315 . S
O360 Co359 2.053 . S
O360 C372 1.259 . S
O361 Co353 2.047 . S
O361 C372 1.257 . S
O362 Co359 2.094 . S
O362 C373 1.253 . S
O363 Co354 2.063 . S
O363 C373 1.268 . S
O364 Co352 2.115 . S
O364 C374 1.281 . S
O365 Co352 2.315 . S
O365 C374 1.252 . S
O366 Co359 2.122 . S
O366 C375 1.272 . S
O367 Co353 2.113 . S
O367 C375 1.245 . S
C368 O376 1.259 . S
C368 O377 1.257 . S
C369 O378 1.268 . S
C369 O379 1.253 . S
C370 O380 1.281 . S
C370 O381 1.252 . S
C371 O382 1.272 . S
C371 O383 1.245 . S
C372 O360 1.259 . S
C372 O361 1.257 . S
C373 O362 1.253 . S
C373 O363 1.268 . S
C374 O364 1.281 . S
C374 O365 1.252 . S
C375 O366 1.272 . S
C375 O367 1.245 . S
O376 Co352 2.053 . S
O376 C368 1.259 . S
O377 Co354 2.047 . S
O377 C368 1.257 . S
O378 Co353 2.063 . S
O378 C369 1.268 . S
O379 Co352 2.094 . S
O379 C369 1.253 . S
O380 Co359 2.115 . S
O380 C370 1.281 . S
O381 Co359 2.315 . S
O381 C370 1.252 . S
O382 Co352 2.122 . S
O382 C371 1.272 . S
O383 Co354 2.113 . S
O383 C371 1.245 . S
Co384 H387 2.400 . S
Co384 O388 2.009 . S
Co384 O396 2.115 . S
Co384 O397 2.315 . S
Co384 O408 2.053 . S
Co384 O411 2.094 . S
Co384 O414 2.122 . S
Co385 O388 2.126 . S
Co385 H389 2.388 . S
Co385 O390 2.053 . S
Co385 O393 2.047 . S
Co385 O399 2.113 . S
Co385 O410 2.063 . S
Co386 H387 2.388 . S
Co386 O388 2.053 . S
Co386 O390 2.126 . S
Co386 O395 2.063 . S
Co386 O409 2.047 . S
Co386 O415 2.113 . S
H387 Co384 2.400 . S
H387 Co386 2.388 . S
H387 O388 0.760 . S
O388 Co384 2.009 . S
O388 Co385 2.126 . S
O388 Co386 2.053 . S
O388 H387 0.760 . S
H389 Co385 2.388 . S
H389 O390 0.760 . S
H389 Co391 2.400 . S
O390 Co385 2.053 . S
O390 Co386 2.126 . S
O390 H389 0.760 . S
O390 Co391 2.009 . S
Co391 H389 2.400 . S
Co391 O390 2.009 . S
Co391 O392 2.053 . S
Co391 O394 2.094 . S
Co391 O398 2.122 . S
Co391 O412 2.115 . S
Co391 O413 2.315 . S
O392 Co391 2.053 . S
O392 C404 1.259 . S
O393 Co385 2.047 . S
O393 C404 1.257 . S
O394 Co391 2.094 . S
O394 C405 1.253 . S
O395 Co386 2.063 . S
O395 C405 1.268 . S
O396 Co384 2.115 . S
O396 C406 1.281 . S
O397 Co384 2.315 . S
O397 C406 1.252 . S
O398 Co391 2.122 . S
O398 C407 1.272 . S
O399 Co385 2.113 . S
O399 C407 1.245 . S
C400 O408 1.259 . S
C400 O409 1.257 . S
C401 O410 1.268 . S
C401 O411 1.253 . S
C402 O412 1.281 . S
C402 O413 1.252 . S
C403 O414 1.272 . S
C403 O415 1.245 . S
C404 O392 1.259 . S
C404 O393 1.257 . S
C405 O394 1.253 . S
C405 O395 1.268 . S
C406 O396 1.281 . S
C406 O397 1.252 . S
C407 O398 1.272 . S
C407 O399 1.245 . S
O408 Co384 2.053 . S
O408 C400 1.259 . S
O409 Co386 2.047 . S
O409 C400 1.257 . S
O410 Co385 2.063 . S
O410 C401 1.268 . S
O411 Co384 2.094 . S
O411 C401 1.253 . S
O412 Co391 2.115 . S
O412 C402 1.281 . S
O413 Co391 2.315 . S
O413 C402 1.252 . S
O414 Co384 2.122 . S
O414 C403 1.272 . S
O415 Co386 2.113 . S
O415 C403 1.245 . S
Co416 H419 2.400 . S
Co416 O420 2.009 . S
Co416 O428 2.115 . S
Co416 O429 2.315 . S
Co416 O440 2.053 . S
Co416 O443 2.094 . S
Co416 O446 2.122 . S
Co417 O420 2.126 . S
Co417 H421 2.388 . S
Co417 O422 2.053 . S
Co417 O425 2.047 . S
Co417 O431 2.113 . S
Co417 O442 2.063 . S
Co418 H419 2.388 . S
Co418 O420 2.053 . S
Co418 O422 2.126 . S
Co418 O427 2.063 . S
Co418 O441 2.047 . S
Co418 O447 2.113 . S
H419 Co416 2.400 . S
H419 Co418 2.388 . S
H419 O420 0.760 . S
O420 Co416 2.009 . S
O420 Co417 2.126 . S
O420 Co418 2.053 . S
O420 H419 0.760 . S
H421 Co417 2.388 . S
H421 O422 0.760 . S
H421 Co423 2.400 . S
O422 Co417 2.053 . S
O422 Co418 2.126 . S
O422 H421 0.760 . S
O422 Co423 2.009 . S
Co423 H421 2.400 . S
Co423 O422 2.009 . S
Co423 O424 2.053 . S
Co423 O426 2.094 . S
Co423 O430 2.122 . S
Co423 O444 2.115 . S
Co423 O445 2.315 . S
O424 Co423 2.053 . S
O424 C436 1.259 . S
O425 Co417 2.047 . S
O425 C436 1.257 . S
O426 Co423 2.094 . S
O426 C437 1.253 . S
O427 Co418 2.063 . S
O427 C437 1.268 . S
O428 Co416 2.115 . S
O428 C438 1.281 . S
O429 Co416 2.315 . S
O429 C438 1.252 . S
O430 Co423 2.122 . S
O430 C439 1.272 . S
O431 Co417 2.113 . S
O431 C439 1.245 . S
C432 O440 1.259 . S
C432 O441 1.257 . S
C433 O442 1.268 . S
C433 O443 1.253 . S
C434 O444 1.281 . S
C434 O445 1.252 . S
C435 O446 1.272 . S
C435 O447 1.245 . S
C436 O424 1.259 . S
C436 O425 1.257 . S
C437 O426 1.253 . S
C437 O427 1.268 . S
C438 O428 1.281 . S
C438 O429 1.252 . S
C439 O430 1.272 . S
C439 O431 1.245 . S
O440 Co416 2.053 . S
O440 C432 1.259 . S
O441 Co418 2.047 . S
O441 C432 1.257 . S
O442 Co417 2.063 . S
O442 C433 1.268 . S
O443 Co416 2.094 . S
O443 C433 1.253 . S
O444 Co423 2.115 . S
O444 C434 1.281 . S
O445 Co423 2.315 . S
O445 C434 1.252 . S
O446 Co416 2.122 . S
O446 C435 1.272 . S
O447 Co418 2.113 . S
O447 C435 1.245 . S
Co448 H451 2.400 . S
Co448 O452 2.009 . S
Co448 O460 2.115 . S
Co448 O461 2.315 . S
Co448 O472 2.053 . S
Co448 O475 2.094 . S
Co448 O478 2.122 . S
Co449 O452 2.126 . S
Co449 H453 2.388 . S
Co449 O454 2.053 . S
Co449 O457 2.047 . S
Co449 O463 2.113 . S
Co449 O474 2.063 . S
Co450 H451 2.388 . S
Co450 O452 2.053 . S
Co450 O454 2.126 . S
Co450 O459 2.063 . S
Co450 O473 2.047 . S
Co450 O479 2.113 . S
H451 Co448 2.400 . S
H451 Co450 2.388 . S
H451 O452 0.760 . S
O452 Co448 2.009 . S
O452 Co449 2.126 . S
O452 Co450 2.053 . S
O452 H451 0.760 . S
H453 Co449 2.388 . S
H453 O454 0.760 . S
H453 Co455 2.400 . S
O454 Co449 2.053 . S
O454 Co450 2.126 . S
O454 H453 0.760 . S
O454 Co455 2.009 . S
Co455 H453 2.400 . S
Co455 O454 2.009 . S
Co455 O456 2.053 . S
Co455 O458 2.094 . S
Co455 O462 2.122 . S
Co455 O476 2.115 . S
Co455 O477 2.315 . S
O456 Co455 2.053 . S
O456 C468 1.259 . S
O457 Co449 2.047 . S
O457 C468 1.257 . S
O458 Co455 2.094 . S
O458 C469 1.253 . S
O459 Co450 2.063 . S
O459 C469 1.268 . S
O460 Co448 2.115 . S
O460 C470 1.281 . S
O461 Co448 2.315 . S
O461 C470 1.252 . S
O462 Co455 2.122 . S
O462 C471 1.272 . S
O463 Co449 2.113 . S
O463 C471 1.245 . S
C464 O472 1.259 . S
C464 O473 1.257 . S
C465 O474 1.268 . S
C465 O475 1.253 . S
C466 O476 1.281 . S
C466 O477 1.252 . S
C467 O478 1.272 . S
C467 O479 1.245 . S
C468 O456 1.259 . S
C468 O457 1.257 . S
C469 O458 1.253 . S
C469 O459 1.268 . S
C470 O460 1.281 . S
C470 O461 1.252 . S
C471 O462 1.272 . S
C471 O463 1.245 . S
O472 Co448 2.053 . S
O472 C464 1.259 . S
O473 Co450 2.047 . S
O473 C464 1.257 . S
O474 Co449 2.063 . S
O474 C465 1.268 . S
O475 Co448 2.094 . S
O475 C465 1.253 . S
O476 Co455 2.115 . S
O476 C466 1.281 . S
O477 Co455 2.315 . S
O477 C466 1.252 . S
O478 Co448 2.122 . S
O478 C467 1.272 . S
O479 Co450 2.113 . S
O479 C467 1.245 . S
Co480 H483 2.400 . S
Co480 O484 2.009 . S
Co480 O492 2.115 . S
Co480 O493 2.315 . S
Co480 O504 2.053 . S
Co480 O507 2.094 . S
Co480 O510 2.122 . S
Co481 O484 2.126 . S
Co481 H485 2.388 . S
Co481 O486 2.053 . S
Co481 O489 2.047 1_556 S
Co481 O495 2.113 1_556 S
Co481 O506 2.063 . S
Co482 H483 2.388 . S
Co482 O484 2.053 . S
Co482 O486 2.126 . S
Co482 O491 2.063 . S
Co482 O505 2.047 . S
Co482 O511 2.113 . S
H483 Co480 2.400 . S
H483 Co482 2.388 . S
H483 O484 0.760 . S
O484 Co480 2.009 . S
O484 Co481 2.126 . S
O484 Co482 2.053 . S
O484 H483 0.760 . S
H485 Co481 2.388 . S
H485 O486 0.760 . S
H485 Co487 2.400 . S
O486 Co481 2.053 . S
O486 Co482 2.126 . S
O486 H485 0.760 . S
O486 Co487 2.009 . S
Co487 H485 2.400 . S
Co487 O486 2.009 . S
Co487 O488 2.053 1_556 S
Co487 O490 2.094 . S
Co487 O494 2.122 1_556 S
Co487 O508 2.115 1_556 S
Co487 O509 2.315 . S
O488 Co487 2.053 1_554 S
O488 C500 1.259 . S
O489 Co481 2.047 1_554 S
O489 C500 1.257 . S
O490 Co487 2.094 . S
O490 C501 1.253 . S
O491 Co482 2.063 . S
O491 C501 1.268 . S
O492 Co480 2.115 . S
O492 C502 1.281 . S
O493 Co480 2.315 . S
O493 C502 1.252 . S
O494 Co487 2.122 1_554 S
O494 C503 1.272 . S
O495 Co481 2.113 1_554 S
O495 C503 1.245 . S
C496 O504 1.259 . S
C496 O505 1.257 . S
C497 O506 1.268 . S
C497 O507 1.253 . S
C498 O508 1.281 1_556 S
C498 O509 1.252 . S
C499 O510 1.272 . S
C499 O511 1.245 . S
C500 O488 1.259 . S
C500 O489 1.257 . S
C501 O490 1.253 . S
C501 O491 1.268 . S
C502 O492 1.281 . S
C502 O493 1.252 . S
C503 O494 1.272 . S
C503 O495 1.245 . S
O504 Co480 2.053 . S
O504 C496 1.259 . S
O505 Co482 2.047 . S
O505 C496 1.257 . S
O506 Co481 2.063 . S
O506 C497 1.268 . S
O507 Co480 2.094 . S
O507 C497 1.253 . S
O508 Co487 2.115 1_554 S
O508 C498 1.281 1_554 S
O509 Co487 2.315 . S
O509 C498 1.252 . S
O510 Co480 2.122 . S
O510 C499 1.272 . S
O511 Co482 2.113 . S
O511 C499 1.245 . S
Co512 H515 2.400 . S
Co512 O516 2.009 . S
Co512 O524 2.115 . S
Co512 O525 2.315 . S
Co512 O536 2.053 . S
Co512 O539 2.094 . S
Co512 O542 2.122 . S
Co513 O516 2.126 . S
Co513 H517 2.388 . S
Co513 O518 2.053 . S
Co513 O521 2.047 1_556 S
Co513 O527 2.113 1_556 S
Co513 O538 2.063 . S
Co514 H515 2.388 . S
Co514 O516 2.053 . S
Co514 O518 2.126 . S
Co514 O523 2.063 . S
Co514 O537 2.047 . S
Co514 O543 2.113 . S
H515 Co512 2.400 . S
H515 Co514 2.388 . S
H515 O516 0.760 . S
O516 Co512 2.009 . S
O516 Co513 2.126 . S
O516 Co514 2.053 . S
O516 H515 0.760 . S
H517 Co513 2.388 . S
H517 O518 0.760 . S
H517 Co519 2.400 . S
O518 Co513 2.053 . S
O518 Co514 2.126 . S
O518 H517 0.760 . S
O518 Co519 2.009 . S
Co519 H517 2.400 . S
Co519 O518 2.009 . S
Co519 O520 2.053 1_556 S
Co519 O522 2.094 . S
Co519 O526 2.122 1_556 S
Co519 O540 2.115 1_556 S
Co519 O541 2.315 . S
O520 Co519 2.053 1_554 S
O520 C532 1.259 . S
O521 Co513 2.047 1_554 S
O521 C532 1.257 . S
O522 Co519 2.094 . S
O522 C533 1.253 . S
O523 Co514 2.063 . S
O523 C533 1.268 . S
O524 Co512 2.115 . S
O524 C534 1.281 . S
O525 Co512 2.315 . S
O525 C534 1.252 . S
O526 Co519 2.122 1_554 S
O526 C535 1.272 . S
O527 Co513 2.113 1_554 S
O527 C535 1.245 . S
C528 O536 1.259 . S
C528 O537 1.257 . S
C529 O538 1.268 . S
C529 O539 1.253 . S
C530 O540 1.281 1_556 S
C530 O541 1.252 . S
C531 O542 1.272 . S
C531 O543 1.245 . S
C532 O520 1.259 . S
C532 O521 1.257 . S
C533 O522 1.253 . S
C533 O523 1.268 . S
C534 O524 1.281 . S
C534 O525 1.252 . S
C535 O526 1.272 . S
C535 O527 1.245 . S
O536 Co512 2.053 . S
O536 C528 1.259 . S
O537 Co514 2.047 . S
O537 C528 1.257 . S
O538 Co513 2.063 . S
O538 C529 1.268 . S
O539 Co512 2.094 . S
O539 C529 1.253 . S
O540 Co519 2.115 1_554 S
O540 C530 1.281 1_554 S
O541 Co519 2.315 . S
O541 C530 1.252 . S
O542 Co512 2.122 . S
O542 C531 1.272 . S
O543 Co514 2.113 . S
O543 C531 1.245 . S
Co544 H547 2.400 . S
Co544 O548 2.009 . S
Co544 O556 2.115 . S
Co544 O557 2.315 . S
Co544 O568 2.053 . S
Co544 O571 2.094 . S
Co544 O574 2.122 . S
Co545 O548 2.126 . S
Co545 H549 2.388 . S
Co545 O550 2.053 . S
Co545 O553 2.047 1_556 S
Co545 O559 2.113 1_556 S
Co545 O570 2.063 . S
Co546 H547 2.388 . S
Co546 O548 2.053 . S
Co546 O550 2.126 . S
Co546 O555 2.063 . S
Co546 O569 2.047 . S
Co546 O575 2.113 . S
H547 Co544 2.400 . S
H547 Co546 2.388 . S
H547 O548 0.760 . S
O548 Co544 2.009 . S
O548 Co545 2.126 . S
O548 Co546 2.053 . S
O548 H547 0.760 . S
H549 Co545 2.388 . S
H549 O550 0.760 . S
H549 Co551 2.400 . S
O550 Co545 2.053 . S
O550 Co546 2.126 . S
O550 H549 0.760 . S
O550 Co551 2.009 . S
Co551 H549 2.400 . S
Co551 O550 2.009 . S
Co551 O552 2.053 1_556 S
Co551 O554 2.094 . S
Co551 O558 2.122 1_556 S
Co551 O572 2.115 1_556 S
Co551 O573 2.315 . S
O552 Co551 2.053 1_554 S
O552 C564 1.259 . S
O553 Co545 2.047 1_554 S
O553 C564 1.257 . S
O554 Co551 2.094 . S
O554 C565 1.253 . S
O555 Co546 2.063 . S
O555 C565 1.268 . S
O556 Co544 2.115 . S
O556 C566 1.281 . S
O557 Co544 2.315 . S
O557 C566 1.252 . S
O558 Co551 2.122 1_554 S
O558 C567 1.272 . S
O559 Co545 2.113 1_554 S
O559 C567 1.245 . S
C560 O568 1.259 . S
C560 O569 1.257 . S
C561 O570 1.268 . S
C561 O571 1.253 . S
C562 O572 1.281 1_556 S
C562 O573 1.252 . S
C563 O574 1.272 . S
C563 O575 1.245 . S
C564 O552 1.259 . S
C564 O553 1.257 . S
C565 O554 1.253 . S
C565 O555 1.268 . S
C566 O556 1.281 . S
C566 O557 1.252 . S
C567 O558 1.272 . S
C567 O559 1.245 . S
O568 Co544 2.053 . S
O568 C560 1.259 . S
O569 Co546 2.047 . S
O569 C560 1.257 . S
O570 Co545 2.063 . S
O570 C561 1.268 . S
O571 Co544 2.094 . S
O571 C561 1.253 . S
O572 Co551 2.115 1_554 S
O572 C562 1.281 1_554 S
O573 Co551 2.315 . S
O573 C562 1.252 . S
O574 Co544 2.122 . S
O574 C563 1.272 . S
O575 Co546 2.113 . S
O575 C563 1.245 . S
H576 C584 0.950 . S
H577 C589 0.950 . S
H578 C586 0.950 . S
H579 C588 0.950 . S
H580 C590 0.950 . S
H581 C592 0.950 . S
H582 C594 0.950 . S
H583 C595 0.950 . S
C584 H576 0.950 . S
C584 C585 1.386 . S
C584 C586 1.391 . S
C585 C584 1.386 . S
C585 C589 1.393 . S
C586 H578 0.950 . S
C586 C584 1.391 . S
C586 C587 1.400 . S
C587 C586 1.400 . S
C587 C588 1.398 . S
C587 C593 1.491 . S
C588 H579 0.950 . S
C588 C587 1.398 . S
C588 C589 1.391 . S
C589 H577 0.950 . S
C589 C585 1.393 . S
C589 C588 1.391 . S
C590 H580 0.950 . S
C590 C591 1.386 . S
C590 C592 1.391 . S
C591 C590 1.386 . S
C591 C595 1.393 . S
C592 H581 0.950 . S
C592 C590 1.391 . S
C592 C593 1.400 . S
C593 C587 1.491 . S
C593 C592 1.400 . S
C593 C594 1.398 . S
C594 H582 0.950 . S
C594 C593 1.398 . S
C594 C595 1.391 . S
C595 H583 0.950 . S
C595 C591 1.393 . S
C595 C594 1.391 . S
H596 C604 0.950 . S
H597 C609 0.950 1_455 S
H598 C606 0.950 . S
H599 C608 0.950 . S
H600 C610 0.950 . S
H601 C612 0.950 . S
H602 C614 0.950 . S
H603 C615 0.950 . S
C604 H596 0.950 . S
C604 C605 1.386 . S
C604 C606 1.391 . S
C605 C604 1.386 . S
C605 C609 1.393 . S
C606 H598 0.950 . S
C606 C604 1.391 . S
C606 C607 1.400 . S
C607 C606 1.400 . S
C607 C608 1.398 . S
C607 C613 1.491 . S
C608 H599 0.950 . S
C608 C607 1.398 . S
C608 C609 1.391 . S
C609 H597 0.950 1_655 S
C609 C605 1.393 . S
C609 C608 1.391 . S
C610 H600 0.950 . S
C610 C611 1.386 . S
C610 C612 1.391 1_565 S
C611 C610 1.386 . S
C611 C615 1.393 . S
C612 H601 0.950 . S
C612 C610 1.391 1_545 S
C612 C613 1.400 . S
C613 C607 1.491 . S
C613 C612 1.400 . S
C613 C614 1.398 1_545 S
C614 H602 0.950 . S
C614 C613 1.398 1_565 S
C614 C615 1.391 . S
C615 H603 0.950 . S
C615 C611 1.393 . S
C615 C614 1.391 . S
H616 C624 0.950 . S
H617 C629 0.950 . S
H618 C626 0.950 . S
H619 C628 0.950 . S
H620 C630 0.950 . S
H621 C632 0.946 1_655 S
H622 C634 0.950 . S
H623 C635 0.950 1_545 S
C624 H616 0.950 . S
C624 C625 1.386 . S
C624 C626 1.391 . S
C625 C624 1.386 . S
C625 C629 1.393 . S
C626 H618 0.950 . S
C626 C624 1.391 . S
C626 C627 1.400 . S
C627 C626 1.400 . S
C627 C628 1.398 . S
C627 C633 1.491 1_655 S
C628 H619 0.950 . S
C628 C627 1.398 . S
C628 C629 1.391 . S
C629 H617 0.950 . S
C629 C625 1.393 . S
C629 C628 1.391 . S
C630 H620 0.950 . S
C630 C631 1.386 . S
C630 C632 1.391 . S
C631 C630 1.386 . S
C631 C635 1.393 . S
C632 H621 0.946 1_455 S
C632 C630 1.391 . S
C632 C633 1.400 . S
C633 C627 1.491 1_455 S
C633 C632 1.400 . S
C633 C634 1.398 . S
C634 H622 0.950 . S
C634 C633 1.398 . S
C634 C635 1.391 . S
C635 H623 0.950 1_565 S
C635 C631 1.393 . S
C635 C634 1.391 . S
H636 C644 0.950 . S
H637 C649 0.950 1_455 S
H638 C646 0.950 . S
H639 C648 0.950 . S
H640 C650 0.950 . S
H641 C652 0.950 1_545 S
H642 C654 0.950 . S
H643 C655 0.950 . S
C644 H636 0.950 . S
C644 C645 1.386 . S
C644 C646 1.391 . S
C645 C644 1.386 . S
C645 C649 1.393 . S
C646 H638 0.950 . S
C646 C644 1.391 . S
C646 C647 1.400 . S
C647 C646 1.400 . S
C647 C648 1.398 . S
C647 C653 1.491 . S
C648 H639 0.950 . S
C648 C647 1.398 . S
C648 C649 1.391 . S
C649 H637 0.950 1_655 S
C649 C645 1.393 . S
C649 C648 1.391 . S
C650 H640 0.950 . S
C650 C651 1.386 1_545 S
C650 C652 1.391 1_545 S
C651 C650 1.386 1_565 S
C651 C655 1.393 . S
C652 H641 0.950 1_565 S
C652 C650 1.391 1_565 S
C652 C653 1.400 . S
C653 C647 1.491 . S
C653 C652 1.400 . S
C653 C654 1.398 . S
C654 H642 0.950 . S
C654 C653 1.398 . S
C654 C655 1.391 . S
C655 H643 0.950 . S
C655 C651 1.393 . S
C655 C654 1.391 . S
H656 C664 0.950 . S
H657 C669 0.950 . S
H658 C666 0.950 . S
H659 C668 0.950 . S
H660 C670 0.950 . S
H661 C672 0.950 . S
H662 C674 0.950 . S
H663 C675 0.950 . S
C664 H656 0.950 . S
C664 C665 1.386 . S
C664 C666 1.391 . S
C665 C664 1.386 . S
C665 C669 1.393 . S
C666 H658 0.950 . S
C666 C664 1.391 . S
C666 C667 1.400 . S
C667 C666 1.400 . S
C667 C668 1.398 . S
C667 C673 1.491 1_545 S
C668 H659 0.950 . S
C668 C667 1.398 . S
C668 C669 1.391 . S
C669 H657 0.950 . S
C669 C665 1.393 . S
C669 C668 1.391 . S
C670 H660 0.950 . S
C670 C671 1.386 . S
C670 C672 1.391 . S
C671 C670 1.386 . S
C671 C675 1.393 . S
C672 H661 0.950 . S
C672 C670 1.391 . S
C672 C673 1.400 . S
C673 C667 1.491 1_565 S
C673 C672 1.400 . S
C673 C674 1.398 . S
C674 H662 0.950 . S
C674 C673 1.398 . S
C674 C675 1.391 . S
C675 H663 0.950 . S
C675 C671 1.393 . S
C675 C674 1.391 . S
H676 C684 0.950 . S
H677 C689 0.950 . S
H678 C686 0.950 . S
H679 C688 0.950 . S
H680 C690 0.950 . S
H681 C692 0.950 . S
H682 C694 0.950 . S
H683 C695 0.950 . S
C684 H676 0.950 . S
C684 C685 1.386 . S
C684 C686 1.391 . S
C685 C684 1.386 . S
C685 C689 1.393 . S
C686 H678 0.950 . S
C686 C684 1.391 . S
C686 C687 1.400 . S
C687 C686 1.400 . S
C687 C688 1.398 . S
C687 C693 1.491 . S
C688 H679 0.950 . S
C688 C687 1.398 . S
C688 C689 1.391 . S
C689 H677 0.950 . S
C689 C685 1.393 . S
C689 C688 1.391 . S
C690 H680 0.950 . S
C690 C691 1.386 . S
C690 C692 1.391 . S
C691 C690 1.386 . S
C691 C695 1.393 . S
C692 H681 0.950 . S
C692 C690 1.391 . S
C692 C693 1.400 1_655 S
C693 C687 1.491 . S
C693 C692 1.400 1_455 S
C693 C694 1.398 . S
C694 H682 0.950 . S
C694 C693 1.398 . S
C694 C695 1.391 1_455 S
C695 H683 0.950 . S
C695 C691 1.393 . S
C695 C694 1.391 1_655 S
H696 C704 0.950 . S
H697 C709 0.950 . S
H698 C706 0.950 . S
H699 C708 0.950 . S
H700 C710 0.950 . S
H701 C712 0.950 . S
H702 C714 0.950 1_556 S
H703 C715 0.950 . S
C704 H696 0.950 . S
C704 C705 1.386 . S
C704 C706 1.391 . S
C705 C704 1.386 . S
C705 C709 1.393 . S
C706 H698 0.950 . S
C706 C704 1.391 . S
C706 C707 1.400 . S
C707 C706 1.400 . S
C707 C708 1.398 . S
C707 C713 1.491 . S
C708 H699 0.950 . S
C708 C707 1.398 . S
C708 C709 1.391 . S
C709 H697 0.950 . S
C709 C705 1.393 . S
C709 C708 1.391 . S
C710 H700 0.950 . S
C710 C711 1.386 . S
C710 C712 1.391 . S
C711 C710 1.386 . S
C711 C715 1.393 1_554 S
C712 H701 0.950 . S
C712 C710 1.391 . S
C712 C713 1.400 . S
C713 C707 1.491 . S
C713 C712 1.400 . S
C713 C714 1.399 . S
C714 H702 0.950 1_554 S
C714 C713 1.399 . S
C714 C715 1.391 1_554 S
C715 H703 0.950 . S
C715 C711 1.393 1_556 S
C715 C714 1.391 1_556 S
H716 C724 0.950 . S
H717 C729 0.950 . S
H718 C726 0.950 . S
H719 C728 0.950 . S
H720 C730 0.950 . S
H721 C732 0.950 1_556 S
H722 C734 0.950 . S
H723 C735 0.950 . S
C724 H716 0.950 . S
C724 C725 1.386 . S
C724 C726 1.391 . S
C725 C724 1.386 . S
C725 C729 1.393 . S
C726 H718 0.950 . S
C726 C724 1.391 . S
C726 C727 1.400 . S
C727 C726 1.400 . S
C727 C728 1.398 . S
C727 C733 1.491 . S
C728 H719 0.950 . S
C728 C727 1.398 . S
C728 C729 1.391 . S
C729 H717 0.950 . S
C729 C725 1.393 . S
C729 C728 1.391 . S
C730 H720 0.950 . S
C730 C731 1.386 1_556 S
C730 C732 1.391 1_556 S
C731 C730 1.386 1_554 S
C731 C735 1.393 . S
C732 H721 0.950 1_554 S
C732 C730 1.391 1_554 S
C732 C733 1.400 . S
C733 C727 1.491 . S
C733 C732 1.400 . S
C733 C734 1.398 . S
C734 H722 0.950 . S
C734 C733 1.398 . S
C734 C735 1.391 . S
C735 H723 0.950 . S
C735 C731 1.393 . S
C735 C734 1.391 . S
H736 C744 0.950 . S
H737 C749 0.950 . S
H738 C746 0.950 . S
H739 C748 0.950 . S
H740 C750 0.950 . S
H741 C752 0.950 . S
H742 C754 0.950 . S
H743 C755 0.950 . S
C744 H736 0.950 . S
C744 C745 1.386 1_556 S
C744 C746 1.391 1_556 S
C745 C744 1.386 1_554 S
C745 C749 1.393 . S
C746 H738 0.950 . S
C746 C744 1.391 1_554 S
C746 C747 1.400 . S
C747 C746 1.400 . S
C747 C748 1.398 . S
C747 C753 1.491 . S
C748 H739 0.950 . S
C748 C747 1.398 . S
C748 C749 1.391 . S
C749 H737 0.950 . S
C749 C745 1.393 . S
C749 C748 1.391 . S
C750 H740 0.950 . S
C750 C751 1.386 . S
C750 C752 1.391 . S
C751 C750 1.386 . S
C751 C755 1.393 . S
C752 H741 0.950 . S
C752 C750 1.391 . S
C752 C753 1.400 . S
C753 C747 1.491 . S
C753 C752 1.400 . S
C753 C754 1.398 . S
C754 H742 0.950 . S
C754 C753 1.398 . S
C754 C755 1.391 . S
C755 H743 0.950 . S
C755 C751 1.393 . S
C755 C754 1.391 . S
H756 C764 0.950 . S
H757 C769 0.950 . S
H758 C766 0.950 . S
H759 C768 0.950 . S
H760 C770 0.950 . S
H761 C772 0.950 . S
H762 C774 0.950 . S
H763 C775 0.950 . S
C764 H756 0.950 . S
C764 C765 1.386 . S
C764 C766 1.391 . S
C765 C764 1.386 . S
C765 C769 1.393 . S
C766 H758 0.950 . S
C766 C764 1.391 . S
C766 C767 1.400 . S
C767 C766 1.400 . S
C767 C768 1.398 . S
C767 C773 1.491 . S
C768 H759 0.950 . S
C768 C767 1.398 . S
C768 C769 1.391 . S
C769 H757 0.950 . S
C769 C765 1.393 . S
C769 C768 1.391 . S
C770 H760 0.950 . S
C770 C771 1.386 . S
C770 C772 1.391 . S
C771 C770 1.386 . S
C771 C775 1.393 . S
C772 H761 0.950 . S
C772 C770 1.391 . S
C772 C773 1.400 . S
C773 C767 1.491 . S
C773 C772 1.400 . S
C773 C774 1.398 . S
C774 H762 0.950 . S
C774 C773 1.398 . S
C774 C775 1.391 . S
C775 H763 0.950 . S
C775 C771 1.393 . S
C775 C774 1.391 . S
H776 C784 0.950 . S
H777 C789 0.950 . S
H778 C786 0.950 . S
H779 C788 0.950 . S
H780 C790 0.950 . S
H781 C792 0.950 . S
H782 C794 0.950 . S
H783 C795 0.950 . S
C784 H776 0.950 . S
C784 C785 1.386 . S
C784 C786 1.391 . S
C785 C784 1.386 . S
C785 C789 1.393 . S
C786 H778 0.950 . S
C786 C784 1.391 . S
C786 C787 1.400 . S
C787 C786 1.400 . S
C787 C788 1.398 . S
C787 C793 1.491 . S
C788 H779 0.950 . S
C788 C787 1.398 . S
C788 C789 1.391 . S
C789 H777 0.950 . S
C789 C785 1.393 . S
C789 C788 1.391 . S
C790 H780 0.950 . S
C790 C791 1.386 . S
C790 C792 1.391 . S
C791 C790 1.386 . S
C791 C795 1.393 . S
C792 H781 0.950 . S
C792 C790 1.391 . S
C792 C793 1.400 . S
C793 C787 1.491 . S
C793 C792 1.400 . S
C793 C794 1.398 . S
C794 H782 0.950 . S
C794 C793 1.398 . S
C794 C795 1.391 . S
C795 H783 0.950 . S
C795 C791 1.393 . S
C795 C794 1.391 . S
H796 C804 0.950 . S
H797 C809 0.950 . S
H798 C806 0.950 . S
H799 C808 0.950 . S
H800 C810 0.950 . S
H801 C812 0.950 . S
H802 C814 0.950 . S
H803 C815 0.950 . S
C804 H796 0.950 . S
C804 C805 1.386 . S
C804 C806 1.391 . S
C805 C804 1.386 . S
C805 C809 1.393 . S
C806 H798 0.950 . S
C806 C804 1.391 . S
C806 C807 1.400 . S
C807 C806 1.400 . S
C807 C808 1.398 . S
C807 C813 1.491 . S
C808 H799 0.950 . S
C808 C807 1.398 . S
C808 C809 1.391 . S
C809 H797 0.950 . S
C809 C805 1.393 . S
C809 C808 1.391 . S
C810 H800 0.950 . S
C810 C811 1.386 . S
C810 C812 1.391 . S
C811 C810 1.386 . S
C811 C815 1.393 . S
C812 H801 0.950 . S
C812 C810 1.391 . S
C812 C813 1.400 . S
C813 C807 1.491 . S
C813 C812 1.400 . S
C813 C814 1.398 . S
C814 H802 0.950 . S
C814 C813 1.398 . S
C814 C815 1.391 . S
C815 H803 0.950 . S
C815 C811 1.393 . S
C815 C814 1.391 . S
H816 C824 0.950 . S
H817 C829 0.950 . S
H818 C826 0.950 . S
H819 C828 0.950 . S
H820 C830 0.950 . S
H821 C832 0.950 . S
H822 C834 0.950 . S
H823 C835 0.950 . S
C824 H816 0.950 . S
C824 C825 1.386 . S
C824 C826 1.391 . S
C825 C824 1.386 . S
C825 C829 1.393 . S
C826 H818 0.950 . S
C826 C824 1.391 . S
C826 C827 1.400 . S
C827 C826 1.400 . S
C827 C828 1.398 . S
C827 C833 1.491 . S
C828 H819 0.950 . S
C828 C827 1.398 . S
C828 C829 1.391 . S
C829 H817 0.950 . S
C829 C825 1.393 . S
C829 C828 1.391 . S
C830 H820 0.950 . S
C830 C831 1.386 . S
C830 C832 1.391 . S
C831 C830 1.386 . S
C831 C835 1.393 . S
C832 H821 0.950 . S
C832 C830 1.391 . S
C832 C833 1.400 . S
C833 C827 1.491 . S
C833 C832 1.400 . S
C833 C834 1.398 . S
C834 H822 0.950 . S
C834 C833 1.398 . S
C834 C835 1.391 . S
C835 H823 0.950 . S
C835 C831 1.393 . S
C835 C834 1.391 . S
H836 C844 0.950 . S
H837 C849 0.950 . S
H838 C846 0.950 . S
H839 C848 0.950 . S
H840 C850 0.950 . S
H841 C852 0.950 . S
H842 C854 0.950 . S
H843 C855 0.950 . S
C844 H836 0.950 . S
C844 C845 1.386 . S
C844 C846 1.391 . S
C845 C844 1.386 . S
C845 C849 1.393 . S
C846 H838 0.950 . S
C846 C844 1.391 . S
C846 C847 1.400 . S
C847 C846 1.400 . S
C847 C848 1.398 . S
C847 C853 1.491 . S
C848 H839 0.950 . S
C848 C847 1.398 . S
C848 C849 1.391 . S
C849 H837 0.950 . S
C849 C845 1.393 . S
C849 C848 1.391 . S
C850 H840 0.950 . S
C850 C851 1.386 . S
C850 C852 1.391 . S
C851 C850 1.386 . S
C851 C855 1.393 . S
C852 H841 0.950 . S
C852 C850 1.391 . S
C852 C853 1.400 . S
C853 C847 1.491 . S
C853 C852 1.400 . S
C853 C854 1.398 . S
C854 H842 0.950 . S
C854 C853 1.398 . S
C854 C855 1.391 . S
C855 H843 0.950 . S
C855 C851 1.393 . S
C855 C854 1.391 . S
H856 C864 0.950 . S
H857 C869 0.950 . S
H858 C866 0.950 . S
H859 C868 0.950 . S
H860 C870 0.950 . S
H861 C872 0.950 . S
H862 C874 0.950 . S
H863 C875 0.950 . S
C864 H856 0.950 . S
C864 C865 1.386 . S
C864 C866 1.391 . S
C865 C864 1.386 . S
C865 C869 1.393 . S
C866 H858 0.950 . S
C866 C864 1.391 . S
C866 C867 1.400 . S
C867 C866 1.400 . S
C867 C868 1.398 . S
C867 C873 1.491 . S
C868 H859 0.950 . S
C868 C867 1.398 . S
C868 C869 1.391 . S
C869 H857 0.950 . S
C869 C865 1.393 . S
C869 C868 1.391 . S
C870 H860 0.950 . S
C870 C871 1.386 . S
C870 C872 1.391 . S
C871 C870 1.386 . S
C871 C875 1.393 . S
C872 H861 0.950 . S
C872 C870 1.391 . S
C872 C873 1.400 . S
C873 C867 1.491 . S
C873 C872 1.400 . S
C873 C874 1.398 . S
C874 H862 0.950 . S
C874 C873 1.398 . S
C874 C875 1.391 . S
C875 H863 0.950 . S
C875 C871 1.393 . S
C875 C874 1.391 . S
H876 C884 0.950 . S
H877 C889 0.950 . S
H878 C886 0.950 1_554 S
H879 C888 0.950 . S
H880 C890 0.950 . S
H881 C892 0.950 . S
H882 C894 0.950 . S
H883 C895 0.950 . S
C884 H876 0.950 . S
C884 C885 1.386 1_554 S
C884 C886 1.391 1_554 S
C885 C884 1.386 1_556 S
C885 C889 1.393 . S
C886 H878 0.950 1_556 S
C886 C884 1.391 1_556 S
C886 C887 1.400 . S
C887 C886 1.400 . S
C887 C888 1.398 . S
C887 C893 1.491 . S
C888 H879 0.950 . S
C888 C887 1.398 . S
C888 C889 1.391 . S
C889 H877 0.950 . S
C889 C885 1.393 . S
C889 C888 1.391 . S
C890 H880 0.950 . S
C890 C891 1.386 . S
C890 C892 1.391 . S
C891 C890 1.386 . S
C891 C895 1.393 . S
C892 H881 0.950 . S
C892 C890 1.391 . S
C892 C893 1.400 . S
C893 C887 1.491 . S
C893 C892 1.400 . S
C893 C894 1.398 . S
C894 H882 0.950 . S
C894 C893 1.398 . S
C894 C895 1.391 . S
C895 H883 0.950 . S
C895 C891 1.393 . S
C895 C894 1.391 . S
H896 C904 0.950 . S
H897 C909 0.950 . S
H898 C906 0.950 . S
H899 C908 0.950 . S
H900 C910 0.950 . S
H901 C912 0.950 . S
H902 C914 0.950 1_554 S
H903 C915 0.950 . S
C904 H896 0.950 . S
C904 C905 1.386 . S
C904 C906 1.391 . S
C905 C904 1.386 . S
C905 C909 1.393 . S
C906 H898 0.950 . S
C906 C904 1.391 . S
C906 C907 1.400 . S
C907 C906 1.400 . S
C907 C908 1.398 . S
C907 C913 1.491 . S
C908 H899 0.950 . S
C908 C907 1.398 . S
C908 C909 1.391 . S
C909 H897 0.950 . S
C909 C905 1.393 . S
C909 C908 1.391 . S
C910 H900 0.950 . S
C910 C911 1.386 . S
C910 C912 1.391 . S
C911 C910 1.386 . S
C911 C915 1.393 1_556 S
C912 H901 0.950 . S
C912 C910 1.391 . S
C912 C913 1.400 . S
C913 C907 1.491 . S
C913 C912 1.400 . S
C913 C914 1.398 . S
C914 H902 0.950 1_556 S
C914 C913 1.398 . S
C914 C915 1.391 1_556 S
C915 H903 0.950 . S
C915 C911 1.393 1_554 S
C915 C914 1.391 1_554 S
H916 C924 0.950 . S
H917 C929 0.950 . S
H918 C926 0.950 . S
H919 C928 0.950 . S
H920 C930 0.950 . S
H921 C932 0.950 . S
H922 C934 0.950 . S
H923 C935 0.950 . S
C924 H916 0.950 . S
C924 C925 1.386 . S
C924 C926 1.391 . S
C925 C924 1.386 . S
C925 C929 1.393 . S
C926 H918 0.950 . S
C926 C924 1.391 . S
C926 C927 1.400 . S
C927 C926 1.400 . S
C927 C928 1.398 . S
C927 C933 1.491 . S
C928 H919 0.950 . S
C928 C927 1.398 . S
C928 C929 1.391 . S
C929 H917 0.950 . S
C929 C925 1.393 . S
C929 C928 1.391 . S
C930 H920 0.950 . S
C930 C931 1.386 . S
C930 C932 1.391 . S
C931 C930 1.386 . S
C931 C935 1.393 . S
C932 H921 0.950 . S
C932 C930 1.391 . S
C932 C933 1.400 . S
C933 C927 1.491 . S
C933 C932 1.400 . S
C933 C934 1.398 . S
C934 H922 0.950 . S
C934 C933 1.398 . S
C934 C935 1.391 . S
C935 H923 0.950 . S
C935 C931 1.393 . S
C935 C934 1.391 . S
H936 C944 0.950 . S
H937 C949 0.950 . S
H938 C946 0.950 . S
H939 C948 0.950 . S
H940 C950 0.950 . S
H941 C952 0.950 . S
H942 C954 0.950 . S
H943 C955 0.950 . S
C944 H936 0.950 . S
C944 C945 1.386 . S
C944 C946 1.391 . S
C945 C944 1.386 . S
C945 C949 1.393 . S
C946 H938 0.950 . S
C946 C944 1.391 . S
C946 C947 1.400 . S
C947 C946 1.400 . S
C947 C948 1.398 . S
C947 C953 1.491 . S
C948 H939 0.950 . S
C948 C947 1.398 . S
C948 C949 1.391 . S
C949 H937 0.950 . S
C949 C945 1.393 . S
C949 C948 1.391 . S
C950 H940 0.950 . S
C950 C951 1.386 . S
C950 C952 1.391 . S
C951 C950 1.386 . S
C951 C955 1.393 . S
C952 H941 0.950 . S
C952 C950 1.391 . S
C952 C953 1.400 . S
C953 C947 1.491 . S
C953 C952 1.400 . S
C953 C954 1.398 . S
C954 H942 0.950 . S
C954 C953 1.398 . S
C954 C955 1.391 . S
C955 H943 0.950 . S
C955 C951 1.393 . S
C955 C954 1.391 . S
H956 C964 0.950 . S
H957 C969 0.950 . S
H958 C966 0.950 . S
H959 C968 0.950 . S
H960 C970 0.950 . S
H961 C972 0.950 . S
H962 C974 0.950 . S
H963 C975 0.950 . S
C964 H956 0.950 . S
C964 C965 1.386 . S
C964 C966 1.391 . S
C965 C964 1.386 . S
C965 C969 1.393 . S
C966 H958 0.950 . S
C966 C964 1.391 . S
C966 C967 1.400 . S
C967 C966 1.400 . S
C967 C968 1.398 . S
C967 C973 1.491 . S
C968 H959 0.950 . S
C968 C967 1.398 . S
C968 C969 1.391 . S
C969 H957 0.950 . S
C969 C965 1.393 . S
C969 C968 1.391 . S
C970 H960 0.950 . S
C970 C971 1.386 . S
C970 C972 1.391 . S
C971 C970 1.386 . S
C971 C975 1.393 . S
C972 H961 0.950 . S
C972 C970 1.391 . S
C972 C973 1.400 . S
C973 C967 1.491 . S
C973 C972 1.400 . S
C973 C974 1.398 . S
C974 H962 0.950 . S
C974 C973 1.398 . S
C974 C975 1.391 . S
C975 H963 0.950 . S
C975 C971 1.393 . S
C975 C974 1.391 . S
H976 C984 0.950 . S
H977 C989 0.950 . S
H978 C986 0.950 . S
H979 C988 0.950 . S
H980 C990 0.950 . S
H981 C992 0.950 . S
H982 C994 0.950 . S
H983 C995 0.950 . S
C984 H976 0.950 . S
C984 C985 1.386 . S
C984 C986 1.391 . S
C985 C984 1.386 . S
C985 C989 1.393 . S
C986 H978 0.950 . S
C986 C984 1.391 . S
C986 C987 1.400 . S
C987 C986 1.400 . S
C987 C988 1.398 . S
C987 C993 1.491 . S
C988 H979 0.950 . S
C988 C987 1.398 . S
C988 C989 1.391 . S
C989 H977 0.950 . S
C989 C985 1.393 . S
C989 C988 1.391 . S
C990 H980 0.950 . S
C990 C991 1.386 . S
C990 C992 1.391 . S
C991 C990 1.386 . S
C991 C995 1.393 . S
C992 H981 0.950 . S
C992 C990 1.391 . S
C992 C993 1.400 . S
C993 C987 1.491 . S
C993 C992 1.400 . S
C993 C994 1.398 . S
C994 H982 0.950 . S
C994 C993 1.398 . S
C994 C995 1.391 . S
C995 H983 0.950 . S
C995 C991 1.393 . S
C995 C994 1.391 . S
H996 C1004 0.950 . S
H997 C1009 0.950 . S
H998 C1006 0.950 . S
H999 C1008 0.950 . S
H1000 C1010 0.950 . S
H1001 C1012 0.950 . S
H1002 C1014 0.950 . S
H1003 C1015 0.950 . S
C1004 H996 0.950 . S
C1004 C1005 1.386 . S
C1004 C1006 1.391 . S
C1005 C1004 1.386 . S
C1005 C1009 1.393 . S
C1006 H998 0.950 . S
C1006 C1004 1.391 . S
C1006 C1007 1.400 . S
C1007 C1006 1.400 . S
C1007 C1008 1.398 . S
C1007 C1013 1.491 1_556 S
C1008 H999 0.950 . S
C1008 C1007 1.398 . S
C1008 C1009 1.391 . S
C1009 H997 0.950 . S
C1009 C1005 1.393 . S
C1009 C1008 1.391 . S
C1010 H1000 0.950 . S
C1010 C1011 1.386 . S
C1010 C1012 1.391 . S
C1011 C1010 1.386 . S
C1011 C1015 1.393 . S
C1012 H1001 0.950 . S
C1012 C1010 1.391 . S
C1012 C1013 1.400 . S
C1013 C1007 1.491 1_554 S
C1013 C1012 1.400 . S
C1013 C1014 1.398 . S
C1014 H1002 0.950 . S
C1014 C1013 1.398 . S
C1014 C1015 1.391 . S
C1015 H1003 0.950 . S
C1015 C1011 1.393 . S
C1015 C1014 1.391 . S
H1016 C1024 0.950 . S
H1017 C1029 0.950 . S
H1018 C1026 0.950 . S
H1019 C1028 0.950 1_556 S
H1020 C1030 0.950 . S
H1021 C1032 0.950 . S
H1022 C1034 0.950 . S
H1023 C1035 0.950 . S
C1024 H1016 0.950 . S
C1024 C1025 1.386 . S
C1024 C1026 1.391 . S
C1025 C1024 1.386 . S
C1025 C1029 1.393 . S
C1026 H1018 0.950 . S
C1026 C1024 1.391 . S
C1026 C1027 1.400 . S
C1027 C1026 1.400 . S
C1027 C1028 1.398 . S
C1027 C1033 1.491 1_554 S
C1028 H1019 0.950 1_554 S
C1028 C1027 1.398 . S
C1028 C1029 1.391 . S
C1029 H1017 0.950 . S
C1029 C1025 1.393 . S
C1029 C1028 1.391 . S
C1030 H1020 0.950 . S
C1030 C1031 1.386 . S
C1030 C1032 1.391 . S
C1031 C1030 1.386 . S
C1031 C1035 1.393 . S
C1032 H1021 0.950 . S
C1032 C1030 1.391 . S
C1032 C1033 1.400 . S
C1033 C1027 1.491 1_556 S
C1033 C1032 1.400 . S
C1033 C1034 1.398 . S
C1034 H1022 0.950 . S
C1034 C1033 1.398 . S
C1034 C1035 1.391 . S
C1035 H1023 0.950 . S
C1035 C1031 1.393 . S
C1035 C1034 1.391 . S
H1036 C1044 0.950 . S
H1037 C1049 0.950 . S
H1038 C1046 0.950 . S
H1039 C1048 0.950 . S
H1040 C1050 0.950 . S
H1041 C1052 0.950 . S
H1042 C1054 0.950 . S
H1043 C1055 0.950 . S
C1044 H1036 0.950 . S
C1044 C1045 1.386 . S
C1044 C1046 1.391 . S
C1045 C1044 1.386 . S
C1045 C1049 1.393 . S
C1046 H1038 0.950 . S
C1046 C1044 1.391 . S
C1046 C1047 1.400 . S
C1047 C1046 1.400 . S
C1047 C1048 1.398 . S
C1047 C1053 1.491 1_556 S
C1048 H1039 0.950 . S
C1048 C1047 1.398 . S
C1048 C1049 1.391 . S
C1049 H1037 0.950 . S
C1049 C1045 1.393 . S
C1049 C1048 1.391 . S
C1050 H1040 0.950 . S
C1050 C1051 1.386 . S
C1050 C1052 1.391 . S
C1051 C1050 1.386 . S
C1051 C1055 1.393 . S
C1052 H1041 0.950 . S
C1052 C1050 1.391 . S
C1052 C1053 1.400 . S
C1053 C1047 1.491 1_554 S
C1053 C1052 1.400 . S
C1053 C1054 1.398 . S
C1054 H1042 0.950 . S
C1054 C1053 1.398 . S
C1054 C1055 1.391 . S
C1055 H1043 0.950 . S
C1055 C1051 1.393 . S
C1055 C1054 1.391 . S
H1056 C1064 0.950 . S
H1057 C1069 0.950 . S
H1058 C1066 0.950 . S
H1059 C1068 0.950 . S
H1060 C1070 0.950 . S
H1061 C1072 0.950 . S
H1062 C1074 0.950 . S
H1063 C1075 0.950 . S
C1064 H1056 0.950 . S
C1064 C1065 1.386 . S
C1064 C1066 1.391 . S
C1065 C1064 1.386 . S
C1065 C1069 1.393 . S
C1066 H1058 0.950 . S
C1066 C1064 1.391 . S
C1066 C1067 1.400 . S
C1067 C1066 1.400 . S
C1067 C1068 1.398 . S
C1067 C1073 1.491 . S
C1068 H1059 0.950 . S
C1068 C1067 1.398 . S
C1068 C1069 1.391 . S
C1069 H1057 0.950 . S
C1069 C1065 1.393 . S
C1069 C1068 1.391 . S
C1070 H1060 0.950 . S
C1070 C1071 1.386 . S
C1070 C1072 1.391 . S
C1071 C1070 1.386 . S
C1071 C1075 1.393 . S
C1072 H1061 0.950 . S
C1072 C1070 1.391 . S
C1072 C1073 1.400 . S
C1073 C1067 1.491 . S
C1073 C1072 1.400 . S
C1073 C1074 1.398 . S
C1074 H1062 0.950 . S
C1074 C1073 1.398 . S
C1074 C1075 1.391 . S
C1075 H1063 0.950 . S
C1075 C1071 1.393 . S
C1075 C1074 1.391 . S
H1076 C1084 0.950 . S
H1077 C1089 0.950 . S
H1078 C1086 0.950 . S
H1079 C1088 0.950 . S
H1080 C1090 0.950 . S
H1081 C1092 0.950 . S
H1082 C1094 0.950 . S
H1083 C1095 0.950 . S
C1084 H1076 0.950 . S
C1084 C1085 1.386 . S
C1084 C1086 1.391 . S
C1085 C1084 1.386 . S
C1085 C1089 1.393 . S
C1086 H1078 0.950 . S
C1086 C1084 1.391 . S
C1086 C1087 1.400 . S
C1087 C1086 1.400 . S
C1087 C1088 1.398 . S
C1087 C1093 1.491 . S
C1088 H1079 0.950 . S
C1088 C1087 1.398 . S
C1088 C1089 1.391 . S
C1089 H1077 0.950 . S
C1089 C1085 1.393 . S
C1089 C1088 1.391 . S
C1090 H1080 0.950 . S
C1090 C1091 1.386 . S
C1090 C1092 1.391 . S
C1091 C1090 1.386 . S
C1091 C1095 1.393 . S
C1092 H1081 0.950 . S
C1092 C1090 1.391 . S
C1092 C1093 1.400 . S
C1093 C1087 1.491 . S
C1093 C1092 1.400 . S
C1093 C1094 1.398 . S
C1094 H1082 0.950 . S
C1094 C1093 1.398 . S
C1094 C1095 1.391 . S
C1095 H1083 0.950 . S
C1095 C1091 1.393 . S
C1095 C1094 1.391 . S
H1096 C1104 0.950 . S
H1097 C1109 0.950 . S
H1098 C1106 0.950 . S
H1099 C1108 0.950 . S
H1100 C1110 0.950 . S
H1101 C1112 0.950 . S
H1102 C1114 0.950 . S
H1103 C1115 0.950 . S
C1104 H1096 0.950 . S
C1104 C1105 1.386 . S
C1104 C1106 1.391 . S
C1105 C1104 1.386 . S
C1105 C1109 1.393 . S
C1106 H1098 0.950 . S
C1106 C1104 1.391 . S
C1106 C1107 1.400 . S
C1107 C1106 1.400 . S
C1107 C1108 1.398 . S
C1107 C1113 1.491 . S
C1108 H1099 0.950 . S
C1108 C1107 1.398 . S
C1108 C1109 1.391 . S
C1109 H1097 0.950 . S
C1109 C1105 1.393 . S
C1109 C1108 1.391 . S
C1110 H1100 0.950 . S
C1110 C1111 1.386 . S
C1110 C1112 1.391 . S
C1111 C1110 1.386 . S
C1111 C1115 1.393 . S
C1112 H1101 0.950 . S
C1112 C1110 1.391 . S
C1112 C1113 1.400 . S
C1113 C1107 1.491 . S
C1113 C1112 1.400 . S
C1113 C1114 1.398 . S
C1114 H1102 0.950 . S
C1114 C1113 1.398 . S
C1114 C1115 1.391 . S
C1115 H1103 0.950 . S
C1115 C1111 1.393 . S
C1115 C1114 1.391 . S
H1116 C1124 0.950 . S
H1117 C1129 0.950 . S
H1118 C1126 0.950 1_556 S
H1119 C1128 0.950 . S
H1120 C1130 0.950 . S
H1121 C1132 0.950 1_554 S
H1122 C1134 0.950 . S
H1123 C1135 0.950 . S
C1124 H1116 0.950 . S
C1124 C1125 1.386 . S
C1124 C1126 1.391 . S
C1125 C1124 1.386 . S
C1125 C1129 1.393 . S
C1126 H1118 0.950 1_554 S
C1126 C1124 1.391 . S
C1126 C1127 1.400 . S
C1127 C1126 1.400 . S
C1127 C1128 1.398 . S
C1127 C1133 1.491 1_554 S
C1128 H1119 0.950 . S
C1128 C1127 1.398 . S
C1128 C1129 1.391 . S
C1129 H1117 0.950 . S
C1129 C1125 1.393 . S
C1129 C1128 1.391 . S
C1130 H1120 0.950 . S
C1130 C1131 1.386 . S
C1130 C1132 1.391 . S
C1131 C1130 1.386 . S
C1131 C1135 1.393 . S
C1132 H1121 0.950 1_556 S
C1132 C1130 1.391 . S
C1132 C1133 1.400 . S
C1133 C1127 1.491 1_556 S
C1133 C1132 1.400 . S
C1133 C1134 1.398 . S
C1134 H1122 0.950 . S
C1134 C1133 1.398 . S
C1134 C1135 1.391 . S
C1135 H1123 0.950 . S
C1135 C1131 1.393 . S
C1135 C1134 1.391 . S
H1136 C1144 0.950 . S
H1137 C1149 0.950 . S
H1138 C1146 0.950 . S
H1139 C1148 0.950 . S
H1140 C1150 0.950 . S
H1141 C1152 0.950 . S
H1142 C1154 0.950 1_554 S
H1143 C1155 0.950 . S
C1144 H1136 0.950 . S
C1144 C1145 1.386 . S
C1144 C1146 1.391 . S
C1145 C1144 1.386 . S
C1145 C1149 1.393 . S
C1146 H1138 0.950 . S
C1146 C1144 1.391 . S
C1146 C1147 1.400 . S
C1147 C1146 1.400 . S
C1147 C1148 1.398 . S
C1147 C1153 1.491 1_554 S
C1148 H1139 0.950 . S
C1148 C1147 1.398 . S
C1148 C1149 1.391 . S
C1149 H1137 0.950 . S
C1149 C1145 1.393 . S
C1149 C1148 1.391 . S
C1150 H1140 0.950 . S
C1150 C1151 1.386 . S
C1150 C1152 1.391 . S
C1151 C1150 1.386 . S
C1151 C1155 1.393 . S
C1152 H1141 0.950 . S
C1152 C1150 1.391 . S
C1152 C1153 1.400 . S
C1153 C1147 1.491 1_556 S
C1153 C1152 1.400 . S
C1153 C1154 1.398 . S
C1154 H1142 0.950 1_556 S
C1154 C1153 1.398 . S
C1154 C1155 1.391 . S
C1155 H1143 0.950 . S
C1155 C1151 1.393 . S
C1155 C1154 1.391 . S
H1156 C1164 0.950 . S
H1157 C1169 0.950 . S
H1158 C1166 0.950 . S
H1159 C1168 0.950 1_554 S
H1160 C1170 0.950 . S
H1161 C1172 0.950 . S
H1162 C1174 0.950 1_556 S
H1163 C1175 0.950 . S
C1164 H1156 0.950 . S
C1164 C1165 1.386 . S
C1164 C1166 1.391 . S
C1165 C1164 1.386 . S
C1165 C1169 1.393 . S
C1166 H1158 0.950 . S
C1166 C1164 1.391 . S
C1166 C1167 1.400 . S
C1167 C1166 1.400 . S
C1167 C1168 1.398 . S
C1167 C1173 1.491 1_556 S
C1168 H1159 0.950 1_556 S
C1168 C1167 1.398 . S
C1168 C1169 1.391 . S
C1169 H1157 0.950 . S
C1169 C1165 1.393 . S
C1169 C1168 1.391 . S
C1170 H1160 0.950 . S
C1170 C1171 1.386 . S
C1170 C1172 1.391 . S
C1171 C1170 1.386 . S
C1171 C1175 1.393 . S
C1172 H1161 0.950 . S
C1172 C1170 1.391 . S
C1172 C1173 1.400 . S
C1173 C1167 1.491 1_554 S
C1173 C1172 1.400 . S
C1173 C1174 1.398 . S
C1174 H1162 0.950 1_554 S
C1174 C1173 1.398 . S
C1174 C1175 1.391 . S
C1175 H1163 0.950 . S
C1175 C1171 1.393 . S
C1175 C1174 1.391 . S
H1176 C1184 0.950 . S
H1177 C1189 0.950 . S
H1178 C1186 0.950 . S
H1179 C1188 0.950 . S
H1180 C1190 0.950 . S
H1181 C1192 0.950 . S
H1182 C1194 0.950 . S
H1183 C1195 0.950 . S
C1184 H1176 0.950 . S
C1184 C1185 1.386 . S
C1184 C1186 1.391 . S
C1185 C1184 1.386 . S
C1185 C1189 1.393 . S
C1186 H1178 0.950 . S
C1186 C1184 1.391 . S
C1186 C1187 1.400 . S
C1187 C1186 1.400 . S
C1187 C1188 1.398 . S
C1187 C1193 1.491 . S
C1188 H1179 0.950 . S
C1188 C1187 1.398 . S
C1188 C1189 1.391 . S
C1189 H1177 0.950 . S
C1189 C1185 1.393 . S
C1189 C1188 1.391 . S
C1190 H1180 0.950 . S
C1190 C1191 1.386 . S
C1190 C1192 1.391 . S
C1191 C1190 1.386 . S
C1191 C1195 1.393 . S
C1192 H1181 0.950 . S
C1192 C1190 1.391 . S
C1192 C1193 1.400 . S
C1193 C1187 1.491 . S
C1193 C1192 1.400 . S
C1193 C1194 1.398 . S
C1194 H1182 0.950 . S
C1194 C1193 1.398 . S
C1194 C1195 1.391 . S
C1195 H1183 0.950 . S
C1195 C1191 1.393 . S
C1195 C1194 1.391 . S
H1196 C1204 0.950 . S
H1197 C1209 0.950 . S
H1198 C1206 0.950 . S
H1199 C1208 0.950 . S
H1200 C1210 0.950 . S
H1201 C1212 0.950 . S
H1202 C1214 0.950 . S
H1203 C1215 0.950 . S
C1204 H1196 0.950 . S
C1204 C1205 1.386 . S
C1204 C1206 1.391 . S
C1205 C1204 1.386 . S
C1205 C1209 1.393 . S
C1206 H1198 0.950 . S
C1206 C1204 1.391 . S
C1206 C1207 1.400 . S
C1207 C1206 1.400 . S
C1207 C1208 1.398 . S
C1207 C1213 1.491 . S
C1208 H1199 0.950 . S
C1208 C1207 1.398 . S
C1208 C1209 1.391 . S
C1209 H1197 0.950 . S
C1209 C1205 1.393 . S
C1209 C1208 1.391 . S
C1210 H1200 0.950 . S
C1210 C1211 1.386 . S
C1210 C1212 1.391 . S
C1211 C1210 1.386 . S
C1211 C1215 1.393 . S
C1212 H1201 0.950 . S
C1212 C1210 1.391 . S
C1212 C1213 1.400 . S
C1213 C1207 1.491 . S
C1213 C1212 1.400 . S
C1213 C1214 1.398 . S
C1214 H1202 0.950 . S
C1214 C1213 1.398 . S
C1214 C1215 1.391 . S
C1215 H1203 0.950 . S
C1215 C1211 1.393 . S
C1215 C1214 1.391 . S
H1216 C1224 0.950 . S
H1217 C1229 0.950 . S
H1218 C1226 0.950 . S
H1219 C1228 0.950 . S
H1220 C1230 0.950 . S
H1221 C1232 0.950 . S
H1222 C1234 0.950 . S
H1223 C1235 0.950 . S
C1224 H1216 0.950 . S
C1224 C1225 1.386 . S
C1224 C1226 1.391 . S
C1225 C1224 1.386 . S
C1225 C1229 1.393 . S
C1226 H1218 0.950 . S
C1226 C1224 1.391 . S
C1226 C1227 1.400 . S
C1227 C1226 1.400 . S
C1227 C1228 1.398 . S
C1227 C1233 1.491 . S
C1228 H1219 0.950 . S
C1228 C1227 1.398 . S
C1228 C1229 1.391 . S
C1229 H1217 0.950 . S
C1229 C1225 1.393 . S
C1229 C1228 1.391 . S
C1230 H1220 0.950 . S
C1230 C1231 1.386 . S
C1230 C1232 1.391 . S
C1231 C1230 1.386 . S
C1231 C1235 1.393 . S
C1232 H1221 0.950 . S
C1232 C1230 1.391 . S
C1232 C1233 1.400 . S
C1233 C1227 1.491 . S
C1233 C1232 1.400 . S
C1233 C1234 1.398 . S
C1234 H1222 0.950 . S
C1234 C1233 1.398 . S
C1234 C1235 1.391 . S
C1235 H1223 0.950 . S
C1235 C1231 1.393 . S
C1235 C1234 1.391 . S
H1236 C1244 0.950 . S
H1237 C1249 0.950 . S
H1238 C1246 0.950 . S
H1239 C1248 0.950 . S
H1240 C1250 0.950 . S
H1241 C1252 0.950 . S
H1242 C1254 0.950 . S
H1243 C1255 0.950 . S
C1244 H1236 0.950 . S
C1244 C1245 1.386 . S
C1244 C1246 1.391 . S
C1245 C1244 1.386 . S
C1245 C1249 1.393 . S
C1246 H1238 0.950 . S
C1246 C1244 1.391 . S
C1246 C1247 1.400 . S
C1247 C1246 1.400 . S
C1247 C1248 1.398 . S
C1247 C1253 1.491 . S
C1248 H1239 0.950 . S
C1248 C1247 1.398 . S
C1248 C1249 1.391 . S
C1249 H1237 0.950 . S
C1249 C1245 1.393 . S
C1249 C1248 1.391 . S
C1250 H1240 0.950 . S
C1250 C1251 1.386 . S
C1250 C1252 1.391 . S
C1251 C1250 1.386 . S
C1251 C1255 1.393 . S
C1252 H1241 0.950 . S
C1252 C1250 1.391 . S
C1252 C1253 1.400 . S
C1253 C1247 1.491 . S
C1253 C1252 1.400 . S
C1253 C1254 1.398 . S
C1254 H1242 0.950 . S
C1254 C1253 1.398 . S
C1254 C1255 1.391 . S
C1255 H1243 0.950 . S
C1255 C1251 1.393 . S
C1255 C1254 1.391 . S
H1256 C1264 0.950 . S
H1257 C1269 0.950 . S
H1258 C1266 0.950 . S
H1259 C1268 0.950 . S
H1260 C1270 0.950 . S
H1261 C1272 0.950 . S
H1262 C1274 0.950 . S
H1263 C1275 0.950 . S
C1264 H1256 0.950 . S
C1264 C1265 1.386 . S
C1264 C1266 1.391 . S
C1265 C1264 1.386 . S
C1265 C1269 1.393 . S
C1266 H1258 0.950 . S
C1266 C1264 1.391 . S
C1266 C1267 1.400 . S
C1267 C1266 1.400 . S
C1267 C1268 1.398 . S
C1267 C1273 1.491 . S
C1268 H1259 0.950 . S
C1268 C1267 1.398 . S
C1268 C1269 1.391 . S
C1269 H1257 0.950 . S
C1269 C1265 1.393 . S
C1269 C1268 1.391 . S
C1270 H1260 0.950 . S
C1270 C1271 1.386 . S
C1270 C1272 1.391 . S
C1271 C1270 1.386 . S
C1271 C1275 1.393 . S
C1272 H1261 0.950 . S
C1272 C1270 1.391 . S
C1272 C1273 1.400 . S
C1273 C1267 1.491 . S
C1273 C1272 1.400 . S
C1273 C1274 1.398 . S
C1274 H1262 0.950 . S
C1274 C1273 1.398 . S
C1274 C1275 1.391 . S
C1275 H1263 0.950 . S
C1275 C1271 1.393 . S
C1275 C1274 1.391 . S
H1276 C1284 0.950 . S
H1277 C1289 0.950 . S
H1278 C1286 0.950 . S
H1279 C1288 0.950 . S
H1280 C1290 0.950 . S
H1281 C1292 0.950 . S
H1282 C1294 0.950 . S
H1283 C1295 0.950 . S
C1284 H1276 0.950 . S
C1284 C1285 1.386 . S
C1284 C1286 1.391 . S
C1285 C1284 1.386 . S
C1285 C1289 1.393 . S
C1286 H1278 0.950 . S
C1286 C1284 1.391 . S
C1286 C1287 1.400 . S
C1287 C1286 1.400 . S
C1287 C1288 1.398 . S
C1287 C1293 1.491 . S
C1288 H1279 0.950 . S
C1288 C1287 1.398 . S
C1288 C1289 1.391 . S
C1289 H1277 0.950 . S
C1289 C1285 1.393 . S
C1289 C1288 1.391 . S
C1290 H1280 0.950 . S
C1290 C1291 1.386 . S
C1290 C1292 1.391 . S
C1291 C1290 1.386 . S
C1291 C1295 1.393 . S
C1292 H1281 0.950 . S
C1292 C1290 1.391 . S
C1292 C1293 1.400 . S
C1293 C1287 1.491 . S
C1293 C1292 1.400 . S
C1293 C1294 1.398 . S
C1294 H1282 0.950 . S
C1294 C1293 1.398 . S
C1294 C1295 1.391 . S
C1295 H1283 0.950 . S
C1295 C1291 1.393 . S
C1295 C1294 1.391 . S
H1296 C1304 0.950 . S
H1297 C1309 0.950 . S
H1298 C1306 0.950 . S
H1299 C1308 0.950 . S
H1300 C1310 0.950 . S
H1301 C1312 0.950 . S
H1302 C1314 0.950 . S
H1303 C1315 0.950 . S
C1304 H1296 0.950 . S
C1304 C1305 1.386 . S
C1304 C1306 1.391 . S
C1305 C1304 1.386 . S
C1305 C1309 1.393 . S
C1306 H1298 0.950 . S
C1306 C1304 1.391 . S
C1306 C1307 1.400 . S
C1307 C1306 1.400 . S
C1307 C1308 1.398 . S
C1307 C1313 1.491 . S
C1308 H1299 0.950 . S
C1308 C1307 1.398 . S
C1308 C1309 1.391 . S
C1309 H1297 0.950 . S
C1309 C1305 1.393 . S
C1309 C1308 1.391 . S
C1310 H1300 0.950 . S
C1310 C1311 1.386 . S
C1310 C1312 1.391 . S
C1311 C1310 1.386 . S
C1311 C1315 1.393 . S
C1312 H1301 0.950 . S
C1312 C1310 1.391 . S
C1312 C1313 1.400 . S
C1313 C1307 1.491 . S
C1313 C1312 1.400 . S
C1313 C1314 1.398 . S
C1314 H1302 0.950 . S
C1314 C1313 1.398 . S
C1314 C1315 1.391 . S
C1315 H1303 0.950 . S
C1315 C1311 1.393 . S
C1315 C1314 1.391 . S
H1316 C1324 0.950 . S
H1317 C1329 0.950 . S
H1318 C1326 0.950 . S
H1319 C1328 0.950 . S
H1320 C1330 0.950 . S
H1321 C1332 0.950 . S
H1322 C1334 0.950 . S
H1323 C1335 0.950 . S
C1324 H1316 0.950 . S
C1324 C1325 1.386 . S
C1324 C1326 1.391 . S
C1325 C1324 1.386 . S
C1325 C1329 1.393 . S
C1326 H1318 0.950 . S
C1326 C1324 1.391 . S
C1326 C1327 1.400 . S
C1327 C1326 1.400 . S
C1327 C1328 1.398 . S
C1327 C1333 1.491 . S
C1328 H1319 0.950 . S
C1328 C1327 1.398 . S
C1328 C1329 1.391 . S
C1329 H1317 0.950 . S
C1329 C1325 1.393 . S
C1329 C1328 1.391 . S
C1330 H1320 0.950 . S
C1330 C1331 1.386 . S
C1330 C1332 1.391 . S
C1331 C1330 1.386 . S
C1331 C1335 1.393 . S
C1332 H1321 0.950 . S
C1332 C1330 1.391 . S
C1332 C1333 1.400 . S
C1333 C1327 1.491 . S
C1333 C1332 1.400 . S
C1333 C1334 1.398 . S
C1334 H1322 0.950 . S
C1334 C1333 1.398 . S
C1334 C1335 1.391 . S
C1335 H1323 0.950 . S
C1335 C1331 1.393 . S
C1335 C1334 1.391 . S
H1336 C1344 0.950 . S
H1337 C1349 0.950 . S
H1338 C1346 0.950 . S
H1339 C1348 0.950 . S
H1340 C1350 0.950 . S
H1341 C1352 0.950 . S
H1342 C1354 0.950 . S
H1343 C1355 0.950 . S
C1344 H1336 0.950 . S
C1344 C1345 1.386 . S
C1344 C1346 1.391 . S
C1345 C1344 1.386 . S
C1345 C1349 1.393 . S
C1346 H1338 0.950 . S
C1346 C1344 1.391 . S
C1346 C1347 1.400 . S
C1347 C1346 1.400 . S
C1347 C1348 1.398 . S
C1347 C1353 1.491 . S
C1348 H1339 0.950 . S
C1348 C1347 1.398 . S
C1348 C1349 1.391 . S
C1349 H1337 0.950 . S
C1349 C1345 1.393 . S
C1349 C1348 1.391 . S
C1350 H1340 0.950 . S
C1350 C1351 1.386 . S
C1350 C1352 1.391 . S
C1351 C1350 1.386 . S
C1351 C1355 1.393 . S
C1352 H1341 0.950 . S
C1352 C1350 1.391 . S
C1352 C1353 1.400 . S
C1353 C1347 1.491 . S
C1353 C1352 1.400 . S
C1353 C1354 1.398 . S
C1354 H1342 0.950 . S
C1354 C1353 1.398 . S
C1354 C1355 1.391 . S
C1355 H1343 0.950 . S
C1355 C1351 1.393 . S
C1355 C1354 1.391 . S
H1356 C1364 0.950 . S
H1357 C1369 0.950 . S
H1358 C1366 0.950 . S
H1359 C1368 0.950 . S
H1360 C1370 0.950 . S
H1361 C1372 0.950 . S
H1362 C1374 0.950 . S
H1363 C1375 0.950 . S
C1364 H1356 0.950 . S
C1364 C1365 1.386 . S
C1364 C1366 1.391 . S
C1365 C1364 1.386 . S
C1365 C1369 1.393 . S
C1366 H1358 0.950 . S
C1366 C1364 1.391 . S
C1366 C1367 1.400 . S
C1367 C1366 1.400 . S
C1367 C1368 1.398 . S
C1367 C1373 1.491 . S
C1368 H1359 0.950 . S
C1368 C1367 1.398 . S
C1368 C1369 1.391 . S
C1369 H1357 0.950 . S
C1369 C1365 1.393 . S
C1369 C1368 1.391 . S
C1370 H1360 0.950 . S
C1370 C1371 1.386 . S
C1370 C1372 1.391 . S
C1371 C1370 1.386 . S
C1371 C1375 1.393 . S
C1372 H1361 0.950 . S
C1372 C1370 1.391 . S
C1372 C1373 1.400 . S
C1373 C1367 1.491 . S
C1373 C1372 1.400 . S
C1373 C1374 1.398 . S
C1374 H1362 0.950 . S
C1374 C1373 1.398 . S
C1374 C1375 1.391 . S
C1375 H1363 0.950 . S
C1375 C1371 1.393 . S
C1375 C1374 1.391 . S
H1376 C1384 0.950 . S
H1377 C1389 0.950 . S
H1378 C1386 0.950 . S
H1379 C1388 0.950 . S
H1380 C1390 0.950 . S
H1381 C1392 0.950 . S
H1382 C1394 0.950 . S
H1383 C1395 0.950 . S
C1384 H1376 0.950 . S
C1384 C1385 1.386 . S
C1384 C1386 1.391 . S
C1385 C1384 1.386 . S
C1385 C1389 1.393 . S
C1386 H1378 0.950 . S
C1386 C1384 1.391 . S
C1386 C1387 1.400 . S
C1387 C1386 1.400 . S
C1387 C1388 1.398 . S
C1387 C1393 1.491 . S
C1388 H1379 0.950 . S
C1388 C1387 1.398 . S
C1388 C1389 1.391 . S
C1389 H1377 0.950 . S
C1389 C1385 1.393 . S
C1389 C1388 1.391 . S
C1390 H1380 0.950 . S
C1390 C1391 1.386 . S
C1390 C1392 1.391 . S
C1391 C1390 1.386 . S
C1391 C1395 1.393 . S
C1392 H1381 0.950 . S
C1392 C1390 1.391 . S
C1392 C1393 1.400 . S
C1393 C1387 1.491 . S
C1393 C1392 1.400 . S
C1393 C1394 1.398 . S
C1394 H1382 0.950 . S
C1394 C1393 1.398 . S
C1394 C1395 1.391 . S
C1395 H1383 0.950 . S
C1395 C1391 1.393 . S
C1395 C1394 1.391 . S
H1396 C1404 0.950 . S
H1397 C1409 0.950 . S
H1398 C1406 0.950 . S
H1399 C1408 0.950 . S
H1400 C1410 0.950 . S
H1401 C1412 0.950 . S
H1402 C1414 0.950 . S
H1403 C1415 0.950 . S
C1404 H1396 0.950 . S
C1404 C1405 1.386 . S
C1404 C1406 1.391 . S
C1405 C1404 1.386 . S
C1405 C1409 1.393 . S
C1406 H1398 0.950 . S
C1406 C1404 1.391 . S
C1406 C1407 1.400 . S
C1407 C1406 1.400 . S
C1407 C1408 1.398 . S
C1407 C1413 1.491 . S
C1408 H1399 0.950 . S
C1408 C1407 1.398 . S
C1408 C1409 1.391 . S
C1409 H1397 0.950 . S
C1409 C1405 1.393 . S
C1409 C1408 1.391 . S
C1410 H1400 0.950 . S
C1410 C1411 1.386 . S
C1410 C1412 1.391 . S
C1411 C1410 1.386 . S
C1411 C1415 1.393 . S
C1412 H1401 0.950 . S
C1412 C1410 1.391 . S
C1412 C1413 1.400 . S
C1413 C1407 1.491 . S
C1413 C1412 1.400 . S
C1413 C1414 1.398 . S
C1414 H1402 0.950 . S
C1414 C1413 1.398 . S
C1414 C1415 1.391 . S
C1415 H1403 0.950 . S
C1415 C1411 1.393 . S
C1415 C1414 1.391 . S
H1416 C1424 0.950 . S
H1417 C1429 0.950 . S
H1418 C1426 0.950 . S
H1419 C1428 0.950 . S
H1420 C1430 0.950 . S
H1421 C1432 0.950 . S
H1422 C1434 0.950 . S
H1423 C1435 0.950 . S
C1424 H1416 0.950 . S
C1424 C1425 1.386 . S
C1424 C1426 1.391 . S
C1425 C1424 1.386 . S
C1425 C1429 1.393 . S
C1426 H1418 0.950 . S
C1426 C1424 1.391 . S
C1426 C1427 1.400 . S
C1427 C1426 1.400 . S
C1427 C1428 1.398 . S
C1427 C1433 1.491 . S
C1428 H1419 0.950 . S
C1428 C1427 1.398 . S
C1428 C1429 1.391 . S
C1429 H1417 0.950 . S
C1429 C1425 1.393 . S
C1429 C1428 1.391 . S
C1430 H1420 0.950 . S
C1430 C1431 1.386 . S
C1430 C1432 1.391 . S
C1431 C1430 1.386 . S
C1431 C1435 1.393 . S
C1432 H1421 0.950 . S
C1432 C1430 1.391 . S
C1432 C1433 1.400 . S
C1433 C1427 1.491 . S
C1433 C1432 1.400 . S
C1433 C1434 1.398 . S
C1434 H1422 0.950 . S
C1434 C1433 1.398 . S
C1434 C1435 1.391 . S
C1435 H1423 0.950 . S
C1435 C1431 1.393 . S
C1435 C1434 1.391 . S
H1436 C1444 0.950 . S
H1437 C1449 0.950 . S
H1438 C1446 0.950 . S
H1439 C1448 0.950 . S
H1440 C1450 0.950 . S
H1441 C1452 0.950 . S
H1442 C1454 0.950 . S
H1443 C1455 0.950 . S
C1444 H1436 0.950 . S
C1444 C1445 1.386 . S
C1444 C1446 1.391 . S
C1445 C1444 1.386 . S
C1445 C1449 1.393 . S
C1446 H1438 0.950 . S
C1446 C1444 1.391 . S
C1446 C1447 1.400 . S
C1447 C1446 1.400 . S
C1447 C1448 1.398 . S
C1447 C1453 1.491 . S
C1448 H1439 0.950 . S
C1448 C1447 1.398 . S
C1448 C1449 1.391 . S
C1449 H1437 0.950 . S
C1449 C1445 1.393 . S
C1449 C1448 1.391 . S
C1450 H1440 0.950 . S
C1450 C1451 1.386 . S
C1450 C1452 1.391 . S
C1451 C1450 1.386 . S
C1451 C1455 1.393 . S
C1452 H1441 0.950 . S
C1452 C1450 1.391 . S
C1452 C1453 1.400 . S
C1453 C1447 1.491 . S
C1453 C1452 1.400 . S
C1453 C1454 1.398 . S
C1454 H1442 0.950 . S
C1454 C1453 1.398 . S
C1454 C1455 1.391 . S
C1455 H1443 0.950 . S
C1455 C1451 1.393 . S
C1455 C1454 1.391 . S
H1456 C1464 0.950 . S
H1457 C1469 0.950 . S
H1458 C1466 0.950 . S
H1459 C1468 0.950 . S
H1460 C1470 0.950 . S
H1461 C1472 0.950 . S
H1462 C1474 0.950 . S
H1463 C1475 0.950 . S
C1464 H1456 0.950 . S
C1464 C1465 1.386 . S
C1464 C1466 1.391 . S
C1465 C1464 1.386 . S
C1465 C1469 1.393 . S
C1466 H1458 0.950 . S
C1466 C1464 1.391 . S
C1466 C1467 1.400 . S
C1467 C1466 1.400 . S
C1467 C1468 1.398 . S
C1467 C1473 1.491 . S
C1468 H1459 0.950 . S
C1468 C1467 1.398 . S
C1468 C1469 1.391 . S
C1469 H1457 0.950 . S
C1469 C1465 1.393 . S
C1469 C1468 1.391 . S
C1470 H1460 0.950 . S
C1470 C1471 1.386 . S
C1470 C1472 1.391 . S
C1471 C1470 1.386 . S
C1471 C1475 1.393 . S
C1472 H1461 0.950 . S
C1472 C1470 1.391 . S
C1472 C1473 1.400 . S
C1473 C1467 1.491 . S
C1473 C1472 1.400 . S
C1473 C1474 1.398 . S
C1474 H1462 0.950 . S
C1474 C1473 1.398 . S
C1474 C1475 1.391 . S
C1475 H1463 0.950 . S
C1475 C1471 1.393 . S
C1475 C1474 1.391 . S
H1476 C1484 0.950 . S
H1477 C1489 0.950 . S
H1478 C1486 0.950 . S
H1479 C1488 0.950 . S
H1480 C1490 0.950 . S
H1481 C1492 0.950 . S
H1482 C1494 0.950 . S
H1483 C1495 0.950 . S
C1484 H1476 0.950 . S
C1484 C1485 1.386 . S
C1484 C1486 1.391 . S
C1485 C1484 1.386 . S
C1485 C1489 1.393 . S
C1486 H1478 0.950 . S
C1486 C1484 1.391 . S
C1486 C1487 1.400 . S
C1487 C1486 1.400 . S
C1487 C1488 1.398 . S
C1487 C1493 1.491 . S
C1488 H1479 0.950 . S
C1488 C1487 1.398 . S
C1488 C1489 1.391 . S
C1489 H1477 0.950 . S
C1489 C1485 1.393 . S
C1489 C1488 1.391 . S
C1490 H1480 0.950 . S
C1490 C1491 1.386 . S
C1490 C1492 1.391 . S
C1491 C1490 1.386 . S
C1491 C1495 1.393 . S
C1492 H1481 0.950 . S
C1492 C1490 1.391 . S
C1492 C1493 1.400 . S
C1493 C1487 1.491 . S
C1493 C1492 1.400 . S
C1493 C1494 1.398 . S
C1494 H1482 0.950 . S
C1494 C1493 1.398 . S
C1494 C1495 1.391 . S
C1495 H1483 0.950 . S
C1495 C1491 1.393 . S
C1495 C1494 1.391 . S
H1496 C1504 0.950 . S
H1497 C1509 0.950 . S
H1498 C1506 0.950 . S
H1499 C1508 0.950 . S
H1500 C1510 0.950 . S
H1501 C1512 0.950 . S
H1502 C1514 0.950 . S
H1503 C1515 0.950 . S
C1504 H1496 0.950 . S
C1504 C1505 1.386 . S
C1504 C1506 1.391 . S
C1505 C1504 1.386 . S
C1505 C1509 1.393 . S
C1506 H1498 0.950 . S
C1506 C1504 1.391 . S
C1506 C1507 1.400 . S
C1507 C1506 1.400 . S
C1507 C1508 1.398 . S
C1507 C1513 1.491 . S
C1508 H1499 0.950 . S
C1508 C1507 1.398 . S
C1508 C1509 1.391 . S
C1509 H1497 0.950 . S
C1509 C1505 1.393 . S
C1509 C1508 1.391 . S
C1510 H1500 0.950 . S
C1510 C1511 1.386 . S
C1510 C1512 1.391 . S
C1511 C1510 1.386 . S
C1511 C1515 1.393 . S
C1512 H1501 0.950 . S
C1512 C1510 1.391 . S
C1512 C1513 1.400 . S
C1513 C1507 1.491 . S
C1513 C1512 1.400 . S
C1513 C1514 1.398 . S
C1514 H1502 0.950 . S
C1514 C1513 1.398 . S
C1514 C1515 1.391 . S
C1515 H1503 0.950 . S
C1515 C1511 1.393 . S
C1515 C1514 1.391 . S
H1516 C1524 0.950 . S
H1517 C1529 0.950 . S
H1518 C1526 0.950 . S
H1519 C1528 0.950 . S
H1520 C1530 0.950 . S
H1521 C1532 0.950 . S
H1522 C1534 0.950 . S
H1523 C1535 0.950 . S
C1524 H1516 0.950 . S
C1524 C1525 1.386 . S
C1524 C1526 1.391 . S
C1525 C1524 1.386 . S
C1525 C1529 1.393 . S
C1526 H1518 0.950 . S
C1526 C1524 1.391 . S
C1526 C1527 1.400 . S
C1527 C1526 1.400 . S
C1527 C1528 1.398 . S
C1527 C1533 1.491 . S
C1528 H1519 0.950 . S
C1528 C1527 1.398 . S
C1528 C1529 1.391 . S
C1529 H1517 0.950 . S
C1529 C1525 1.393 . S
C1529 C1528 1.391 . S
C1530 H1520 0.950 . S
C1530 C1531 1.386 . S
C1530 C1532 1.391 . S
C1531 C1530 1.386 . S
C1531 C1535 1.393 . S
C1532 H1521 0.950 . S
C1532 C1530 1.391 . S
C1532 C1533 1.400 . S
C1533 C1527 1.491 . S
C1533 C1532 1.400 . S
C1533 C1534 1.398 . S
C1534 H1522 0.950 . S
C1534 C1533 1.398 . S
C1534 C1535 1.391 . S
C1535 H1523 0.950 . S
C1535 C1531 1.393 . S
C1535 C1534 1.391 . S
H1536 C1544 0.950 . S
H1537 C1549 0.950 . S
H1538 C1546 0.950 . S
H1539 C1548 0.950 . S
H1540 C1550 0.950 . S
H1541 C1552 0.950 . S
H1542 C1554 0.950 . S
H1543 C1555 0.950 . S
C1544 H1536 0.950 . S
C1544 C1545 1.386 . S
C1544 C1546 1.391 . S
C1545 C1544 1.386 . S
C1545 C1549 1.393 . S
C1546 H1538 0.950 . S
C1546 C1544 1.391 . S
C1546 C1547 1.400 . S
C1547 C1546 1.400 . S
C1547 C1548 1.398 . S
C1547 C1553 1.491 . S
C1548 H1539 0.950 . S
C1548 C1547 1.398 . S
C1548 C1549 1.391 . S
C1549 H1537 0.950 . S
C1549 C1545 1.393 . S
C1549 C1548 1.391 . S
C1550 H1540 0.950 . S
C1550 C1551 1.386 . S
C1550 C1552 1.391 . S
C1551 C1550 1.386 . S
C1551 C1555 1.393 . S
C1552 H1541 0.950 . S
C1552 C1550 1.391 . S
C1552 C1553 1.400 . S
C1553 C1547 1.491 . S
C1553 C1552 1.400 . S
C1553 C1554 1.398 . S
C1554 H1542 0.950 . S
C1554 C1553 1.398 . S
C1554 C1555 1.391 . S
C1555 H1543 0.950 . S
C1555 C1551 1.393 . S
C1555 C1554 1.391 . S
H1556 C1564 0.950 . S
H1557 C1569 0.950 . S
H1558 C1566 0.950 . S
H1559 C1568 0.950 . S
H1560 C1570 0.950 . S
H1561 C1572 0.950 . S
H1562 C1574 0.950 . S
H1563 C1575 0.950 . S
C1564 H1556 0.950 . S
C1564 C1565 1.386 . S
C1564 C1566 1.391 . S
C1565 C1564 1.386 . S
C1565 C1569 1.393 . S
C1566 H1558 0.950 . S
C1566 C1564 1.391 . S
C1566 C1567 1.400 . S
C1567 C1566 1.400 . S
C1567 C1568 1.398 . S
C1567 C1573 1.491 . S
C1568 H1559 0.950 . S
C1568 C1567 1.398 . S
C1568 C1569 1.391 . S
C1569 H1557 0.950 . S
C1569 C1565 1.393 . S
C1569 C1568 1.391 . S
C1570 H1560 0.950 . S
C1570 C1571 1.386 . S
C1570 C1572 1.391 . S
C1571 C1570 1.386 . S
C1571 C1575 1.393 . S
C1572 H1561 0.950 . S
C1572 C1570 1.391 . S
C1572 C1573 1.400 . S
C1573 C1567 1.491 . S
C1573 C1572 1.400 . S
C1573 C1574 1.398 . S
C1574 H1562 0.950 . S
C1574 C1573 1.398 . S
C1574 C1575 1.391 . S
C1575 H1563 0.950 . S
C1575 C1571 1.393 . S
C1575 C1574 1.391 . S
H1576 C1584 0.950 . S
H1577 C1589 0.950 . S
H1578 C1586 0.950 . S
H1579 C1588 0.950 . S
H1580 C1590 0.950 . S
H1581 C1592 0.950 . S
H1582 C1594 0.950 . S
H1583 C1595 0.950 . S
C1584 H1576 0.950 . S
C1584 C1585 1.386 . S
C1584 C1586 1.391 . S
C1585 C1584 1.386 . S
C1585 C1589 1.393 . S
C1586 H1578 0.950 . S
C1586 C1584 1.391 . S
C1586 C1587 1.400 . S
C1587 C1586 1.400 . S
C1587 C1588 1.398 . S
C1587 C1593 1.491 . S
C1588 H1579 0.950 . S
C1588 C1587 1.398 . S
C1588 C1589 1.391 . S
C1589 H1577 0.950 . S
C1589 C1585 1.393 . S
C1589 C1588 1.391 . S
C1590 H1580 0.950 . S
C1590 C1591 1.386 . S
C1590 C1592 1.391 . S
C1591 C1590 1.386 . S
C1591 C1595 1.393 . S
C1592 H1581 0.950 . S
C1592 C1590 1.391 . S
C1592 C1593 1.400 . S
C1593 C1587 1.491 . S
C1593 C1592 1.400 . S
C1593 C1594 1.398 . S
C1594 H1582 0.950 . S
C1594 C1593 1.398 . S
C1594 C1595 1.391 . S
C1595 H1583 0.950 . S
C1595 C1591 1.393 . S
C1595 C1594 1.391 . S
H1596 C1604 0.950 . S
H1597 C1609 0.950 . S
H1598 C1606 0.950 . S
H1599 C1608 0.950 . S
H1600 C1610 0.950 . S
H1601 C1612 0.950 . S
H1602 C1614 0.950 . S
H1603 C1615 0.950 . S
C1604 H1596 0.950 . S
C1604 C1605 1.386 . S
C1604 C1606 1.391 . S
C1605 C1604 1.386 . S
C1605 C1609 1.393 . S
C1606 H1598 0.950 . S
C1606 C1604 1.391 . S
C1606 C1607 1.400 . S
C1607 C1606 1.400 . S
C1607 C1608 1.398 . S
C1607 C1613 1.491 . S
C1608 H1599 0.950 . S
C1608 C1607 1.398 . S
C1608 C1609 1.391 . S
C1609 H1597 0.950 . S
C1609 C1605 1.393 . S
C1609 C1608 1.391 . S
C1610 H1600 0.950 . S
C1610 C1611 1.386 . S
C1610 C1612 1.391 . S
C1611 C1610 1.386 . S
C1611 C1615 1.393 . S
C1612 H1601 0.950 . S
C1612 C1610 1.391 . S
C1612 C1613 1.400 . S
C1613 C1607 1.491 . S
C1613 C1612 1.400 . S
C1613 C1614 1.398 . S
C1614 H1602 0.950 . S
C1614 C1613 1.398 . S
C1614 C1615 1.391 . S
C1615 H1603 0.950 . S
C1615 C1611 1.393 . S
C1615 C1614 1.391 . S
H1616 C1624 0.950 . S
H1617 C1629 0.950 . S
H1618 C1626 0.950 . S
H1619 C1628 0.950 . S
H1620 C1630 0.950 . S
H1621 C1632 0.950 . S
H1622 C1634 0.950 . S
H1623 C1635 0.950 . S
C1624 H1616 0.950 . S
C1624 C1625 1.386 . S
C1624 C1626 1.391 . S
C1625 C1624 1.386 . S
C1625 C1629 1.393 . S
C1626 H1618 0.950 . S
C1626 C1624 1.391 . S
C1626 C1627 1.400 . S
C1627 C1626 1.400 . S
C1627 C1628 1.398 . S
C1627 C1633 1.491 . S
C1628 H1619 0.950 . S
C1628 C1627 1.398 . S
C1628 C1629 1.391 . S
C1629 H1617 0.950 . S
C1629 C1625 1.393 . S
C1629 C1628 1.391 . S
C1630 H1620 0.950 . S
C1630 C1631 1.386 . S
C1630 C1632 1.391 . S
C1631 C1630 1.386 . S
C1631 C1635 1.393 . S
C1632 H1621 0.950 . S
C1632 C1630 1.391 . S
C1632 C1633 1.400 . S
C1633 C1627 1.491 . S
C1633 C1632 1.400 . S
C1633 C1634 1.398 . S
C1634 H1622 0.950 . S
C1634 C1633 1.398 . S
C1634 C1635 1.391 . S
C1635 H1623 0.950 . S
C1635 C1631 1.393 . S
C1635 C1634 1.391 . S
H1636 C1644 0.950 . S
H1637 C1649 0.950 . S
H1638 C1646 0.950 . S
H1639 C1648 0.950 . S
H1640 C1650 0.950 . S
H1641 C1652 0.950 . S
H1642 C1654 0.950 . S
H1643 C1655 0.950 . S
C1644 H1636 0.950 . S
C1644 C1645 1.386 . S
C1644 C1646 1.391 . S
C1645 C1644 1.386 . S
C1645 C1649 1.393 . S
C1646 H1638 0.950 . S
C1646 C1644 1.391 . S
C1646 C1647 1.400 . S
C1647 C1646 1.400 . S
C1647 C1648 1.398 . S
C1647 C1653 1.491 . S
C1648 H1639 0.950 . S
C1648 C1647 1.398 . S
C1648 C1649 1.391 . S
C1649 H1637 0.950 . S
C1649 C1645 1.393 . S
C1649 C1648 1.391 . S
C1650 H1640 0.950 . S
C1650 C1651 1.386 . S
C1650 C1652 1.391 . S
C1651 C1650 1.386 . S
C1651 C1655 1.393 . S
C1652 H1641 0.950 . S
C1652 C1650 1.391 . S
C1652 C1653 1.400 . S
C1653 C1647 1.491 . S
C1653 C1652 1.400 . S
C1653 C1654 1.398 . S
C1654 H1642 0.950 . S
C1654 C1653 1.398 . S
C1654 C1655 1.391 . S
C1655 H1643 0.950 . S
C1655 C1651 1.393 . S
C1655 C1654 1.391 . S
H1656 C1664 0.950 1_545 S
H1657 C1669 0.950 . S
H1658 C1666 0.950 . S
H1659 C1668 0.950 . S
H1660 C1670 0.950 . S
H1661 C1672 0.950 . S
H1662 C1674 0.950 . S
H1663 C1675 0.950 . S
C1664 H1656 0.950 1_565 S
C1664 C1665 1.386 . S
C1664 C1666 1.391 . S
C1665 C1664 1.386 . S
C1665 C1669 1.393 . S
C1666 H1658 0.950 . S
C1666 C1664 1.391 . S
C1666 C1667 1.400 . S
C1667 C1666 1.400 . S
C1667 C1668 1.398 . S
C1667 C1673 1.491 . S
C1668 H1659 0.950 . S
C1668 C1667 1.398 . S
C1668 C1669 1.391 . S
C1669 H1657 0.950 . S
C1669 C1665 1.393 . S
C1669 C1668 1.391 . S
C1670 H1660 0.950 . S
C1670 C1671 1.386 . S
C1670 C1672 1.391 . S
C1671 C1670 1.386 . S
C1671 C1675 1.393 . S
C1672 H1661 0.950 . S
C1672 C1670 1.391 . S
C1672 C1673 1.400 . S
C1673 C1667 1.491 . S
C1673 C1672 1.400 . S
C1673 C1674 1.398 . S
C1674 H1662 0.950 . S
C1674 C1673 1.398 . S
C1674 C1675 1.391 . S
C1675 H1663 0.950 . S
C1675 C1671 1.393 . S
C1675 C1674 1.391 . S
H1676 C1684 0.950 . S
H1677 C1689 0.950 . S
H1678 C1686 0.950 . S
H1679 C1688 0.950 . S
H1680 C1690 0.950 . S
H1681 C1692 0.950 . S
H1682 C1694 0.950 . S
H1683 C1695 0.950 . S
C1684 H1676 0.950 . S
C1684 C1685 1.386 . S
C1684 C1686 1.391 . S
C1685 C1684 1.386 . S
C1685 C1689 1.393 . S
C1686 H1678 0.950 . S
C1686 C1684 1.391 . S
C1686 C1687 1.400 . S
C1687 C1686 1.400 . S
C1687 C1688 1.398 . S
C1687 C1693 1.491 . S
C1688 H1679 0.950 . S
C1688 C1687 1.398 . S
C1688 C1689 1.391 . S
C1689 H1677 0.950 . S
C1689 C1685 1.393 . S
C1689 C1688 1.391 . S
C1690 H1680 0.950 . S
C1690 C1691 1.386 . S
C1690 C1692 1.391 . S
C1691 C1690 1.386 . S
C1691 C1695 1.393 . S
C1692 H1681 0.950 . S
C1692 C1690 1.391 . S
C1692 C1693 1.400 . S
C1693 C1687 1.491 . S
C1693 C1692 1.400 . S
C1693 C1694 1.398 . S
C1694 H1682 0.950 . S
C1694 C1693 1.398 . S
C1694 C1695 1.391 . S
C1695 H1683 0.950 . S
C1695 C1691 1.393 . S
C1695 C1694 1.391 . S
H1696 C1704 0.950 . S
H1697 C1709 0.950 . S
H1698 C1706 0.950 . S
H1699 C1708 0.950 . S
H1700 C1710 0.950 . S
H1701 C1712 0.950 . S
H1702 C1714 0.950 . S
H1703 C1715 0.950 . S
C1704 H1696 0.950 . S
C1704 C1705 1.386 . S
C1704 C1706 1.391 . S
C1705 C1704 1.386 . S
C1705 C1709 1.393 . S
C1706 H1698 0.950 . S
C1706 C1704 1.391 . S
C1706 C1707 1.400 . S
C1707 C1706 1.400 . S
C1707 C1708 1.398 . S
C1707 C1713 1.491 . S
C1708 H1699 0.950 . S
C1708 C1707 1.398 . S
C1708 C1709 1.391 . S
C1709 H1697 0.950 . S
C1709 C1705 1.393 . S
C1709 C1708 1.391 . S
C1710 H1700 0.950 . S
C1710 C1711 1.386 . S
C1710 C1712 1.391 . S
C1711 C1710 1.386 . S
C1711 C1715 1.393 . S
C1712 H1701 0.950 . S
C1712 C1710 1.391 . S
C1712 C1713 1.400 . S
C1713 C1707 1.491 . S
C1713 C1712 1.400 . S
C1713 C1714 1.398 . S
C1714 H1702 0.950 . S
C1714 C1713 1.398 . S
C1714 C1715 1.391 . S
C1715 H1703 0.950 . S
C1715 C1711 1.393 . S
C1715 C1714 1.391 . S
H1716 C1724 0.950 . S
H1717 C1729 0.950 . S
H1718 C1726 0.950 . S
H1719 C1728 0.950 . S
H1720 C1730 0.950 . S
H1721 C1732 0.950 . S
H1722 C1734 0.950 . S
H1723 C1735 0.950 . S
C1724 H1716 0.950 . S
C1724 C1725 1.386 . S
C1724 C1726 1.391 1_554 S
C1725 C1724 1.386 . S
C1725 C1729 1.393 1_554 S
C1726 H1718 0.950 . S
C1726 C1724 1.391 1_556 S
C1726 C1727 1.400 . S
C1727 C1726 1.400 . S
C1727 C1728 1.398 . S
C1727 C1733 1.491 . S
C1728 H1719 0.950 . S
C1728 C1727 1.398 . S
C1728 C1729 1.391 . S
C1729 H1717 0.950 . S
C1729 C1725 1.393 1_556 S
C1729 C1728 1.391 . S
C1730 H1720 0.950 . S
C1730 C1731 1.386 . S
C1730 C1732 1.391 . S
C1731 C1730 1.386 . S
C1731 C1735 1.393 . S
C1732 H1721 0.950 . S
C1732 C1730 1.391 . S
C1732 C1733 1.400 . S
C1733 C1727 1.491 . S
C1733 C1732 1.400 . S
C1733 C1734 1.398 . S
C1734 H1722 0.950 . S
C1734 C1733 1.398 . S
C1734 C1735 1.391 . S
C1735 H1723 0.950 . S
C1735 C1731 1.393 . S
C1735 C1734 1.391 . S
H1736 C1744 0.950 . S
H1737 C1749 0.950 . S
H1738 C1746 0.950 . S
H1739 C1748 0.950 . S
H1740 C1750 0.950 . S
H1741 C1752 0.950 . S
H1742 C1754 0.950 . S
H1743 C1755 0.950 . S
C1744 H1736 0.950 . S
C1744 C1745 1.386 1_556 S
C1744 C1746 1.391 . S
C1745 C1744 1.386 1_554 S
C1745 C1749 1.393 . S
C1746 H1738 0.950 . S
C1746 C1744 1.391 . S
C1746 C1747 1.400 . S
C1747 C1746 1.400 . S
C1747 C1748 1.398 . S
C1747 C1753 1.491 . S
C1748 H1739 0.950 . S
C1748 C1747 1.398 . S
C1748 C1749 1.391 1_556 S
C1749 H1737 0.950 . S
C1749 C1745 1.393 . S
C1749 C1748 1.391 1_554 S
C1750 H1740 0.950 . S
C1750 C1751 1.386 . S
C1750 C1752 1.391 . S
C1751 C1750 1.386 . S
C1751 C1755 1.393 . S
C1752 H1741 0.950 . S
C1752 C1750 1.391 . S
C1752 C1753 1.400 . S
C1753 C1747 1.491 . S
C1753 C1752 1.400 . S
C1753 C1754 1.398 . S
C1754 H1742 0.950 . S
C1754 C1753 1.398 . S
C1754 C1755 1.391 . S
C1755 H1743 0.950 . S
C1755 C1751 1.393 . S
C1755 C1754 1.391 . S
H1756 C1764 0.950 . S
H1757 C1769 0.950 . S
H1758 C1766 0.950 . S
H1759 C1768 0.950 . S
H1760 C1770 0.950 . S
H1761 C1772 0.950 . S
H1762 C1774 0.950 . S
H1763 C1775 0.950 . S
C1764 H1756 0.950 . S
C1764 C1765 1.386 . S
C1764 C1766 1.391 . S
C1765 C1764 1.386 . S
C1765 C1769 1.393 . S
C1766 H1758 0.950 . S
C1766 C1764 1.391 . S
C1766 C1767 1.400 . S
C1767 C1766 1.400 . S
C1767 C1768 1.398 . S
C1767 C1773 1.491 . S
C1768 H1759 0.950 . S
C1768 C1767 1.398 . S
C1768 C1769 1.391 . S
C1769 H1757 0.950 . S
C1769 C1765 1.393 . S
C1769 C1768 1.391 . S
C1770 H1760 0.950 . S
C1770 C1771 1.386 1_556 S
C1770 C1772 1.391 . S
C1771 C1770 1.386 1_554 S
C1771 C1775 1.393 . S
C1772 H1761 0.950 . S
C1772 C1770 1.391 . S
C1772 C1773 1.400 . S
C1773 C1767 1.491 . S
C1773 C1772 1.400 . S
C1773 C1774 1.398 1_556 S
C1774 H1762 0.950 . S
C1774 C1773 1.398 1_554 S
C1774 C1775 1.391 . S
C1775 H1763 0.950 . S
C1775 C1771 1.393 . S
C1775 C1774 1.391 . S
H1776 C1784 0.950 . S
H1777 C1789 0.950 . S
H1778 C1786 0.950 . S
H1779 C1788 0.950 . S
H1780 C1790 0.950 . S
H1781 C1792 0.950 . S
H1782 C1794 0.950 . S
H1783 C1795 0.950 . S
C1784 H1776 0.950 . S
C1784 C1785 1.386 . S
C1784 C1786 1.391 . S
C1785 C1784 1.386 . S
C1785 C1789 1.393 . S
C1786 H1778 0.950 . S
C1786 C1784 1.391 . S
C1786 C1787 1.400 . S
C1787 C1786 1.400 . S
C1787 C1788 1.398 . S
C1787 C1793 1.491 . S
C1788 H1779 0.950 . S
C1788 C1787 1.398 . S
C1788 C1789 1.391 . S
C1789 H1777 0.950 . S
C1789 C1785 1.393 . S
C1789 C1788 1.391 . S
C1790 H1780 0.950 . S
C1790 C1791 1.386 . S
C1790 C1792 1.391 . S
C1791 C1790 1.386 . S
C1791 C1795 1.393 . S
C1792 H1781 0.950 . S
C1792 C1790 1.391 . S
C1792 C1793 1.400 . S
C1793 C1787 1.491 . S
C1793 C1792 1.400 . S
C1793 C1794 1.398 . S
C1794 H1782 0.950 . S
C1794 C1793 1.398 . S
C1794 C1795 1.391 . S
C1795 H1783 0.950 . S
C1795 C1791 1.393 . S
C1795 C1794 1.391 . S
H1796 C1804 0.950 . S
H1797 C1809 0.950 . S
H1798 C1806 0.950 . S
H1799 C1808 0.950 . S
H1800 C1810 0.950 . S
H1801 C1812 0.950 . S
H1802 C1814 0.950 . S
H1803 C1815 0.950 . S
C1804 H1796 0.950 . S
C1804 C1805 1.386 . S
C1804 C1806 1.391 . S
C1805 C1804 1.386 . S
C1805 C1809 1.393 . S
C1806 H1798 0.950 . S
C1806 C1804 1.391 . S
C1806 C1807 1.400 . S
C1807 C1806 1.400 . S
C1807 C1808 1.398 . S
C1807 C1813 1.491 . S
C1808 H1799 0.950 . S
C1808 C1807 1.398 . S
C1808 C1809 1.391 . S
C1809 H1797 0.950 . S
C1809 C1805 1.393 . S
C1809 C1808 1.391 . S
C1810 H1800 0.950 . S
C1810 C1811 1.386 . S
C1810 C1812 1.391 . S
C1811 C1810 1.386 . S
C1811 C1815 1.393 . S
C1812 H1801 0.950 . S
C1812 C1810 1.391 . S
C1812 C1813 1.400 . S
C1813 C1807 1.491 . S
C1813 C1812 1.400 . S
C1813 C1814 1.398 . S
C1814 H1802 0.950 . S
C1814 C1813 1.398 . S
C1814 C1815 1.391 . S
C1815 H1803 0.950 . S
C1815 C1811 1.393 . S
C1815 C1814 1.391 . S
H1816 C1824 0.950 . S
H1817 C1829 0.950 . S
H1818 C1826 0.950 . S
H1819 C1828 0.950 . S
H1820 C1830 0.950 . S
H1821 C1832 0.950 . S
H1822 C1834 0.950 . S
H1823 C1835 0.950 . S
C1824 H1816 0.950 . S
C1824 C1825 1.386 . S
C1824 C1826 1.391 . S
C1825 C1824 1.386 . S
C1825 C1829 1.393 . S
C1826 H1818 0.950 . S
C1826 C1824 1.391 . S
C1826 C1827 1.400 . S
C1827 C1826 1.400 . S
C1827 C1828 1.398 . S
C1827 C1833 1.491 . S
C1828 H1819 0.950 . S
C1828 C1827 1.398 . S
C1828 C1829 1.391 . S
C1829 H1817 0.950 . S
C1829 C1825 1.393 . S
C1829 C1828 1.391 . S
C1830 H1820 0.950 . S
C1830 C1831 1.386 . S
C1830 C1832 1.391 . S
C1831 C1830 1.386 . S
C1831 C1835 1.393 . S
C1832 H1821 0.950 . S
C1832 C1830 1.391 . S
C1832 C1833 1.400 . S
C1833 C1827 1.491 . S
C1833 C1832 1.400 . S
C1833 C1834 1.398 . S
C1834 H1822 0.950 . S
C1834 C1833 1.398 . S
C1834 C1835 1.391 . S
C1835 H1823 0.950 . S
C1835 C1831 1.393 . S
C1835 C1834 1.391 . S
H1836 C1844 0.950 . S
H1837 C1849 0.950 . S
H1838 C1846 0.950 . S
H1839 C1848 0.950 . S
H1840 C1850 0.950 . S
H1841 C1852 0.950 . S
H1842 C1854 0.950 1_556 S
H1843 C1855 0.950 . S
C1844 H1836 0.950 . S
C1844 C1845 1.386 . S
C1844 C1846 1.391 . S
C1845 C1844 1.386 . S
C1845 C1849 1.393 . S
C1846 H1838 0.950 . S
C1846 C1844 1.391 . S
C1846 C1847 1.400 . S
C1847 C1846 1.400 . S
C1847 C1848 1.398 . S
C1847 C1853 1.491 . S
C1848 H1839 0.950 . S
C1848 C1847 1.398 . S
C1848 C1849 1.391 . S
C1849 H1837 0.950 . S
C1849 C1845 1.393 . S
C1849 C1848 1.391 . S
C1850 H1840 0.950 . S
C1850 C1851 1.386 1_554 S
C1850 C1852 1.391 . S
C1851 C1850 1.386 1_556 S
C1851 C1855 1.393 . S
C1852 H1841 0.950 . S
C1852 C1850 1.391 . S
C1852 C1853 1.400 . S
C1853 C1847 1.491 . S
C1853 C1852 1.400 . S
C1853 C1854 1.398 . S
C1854 H1842 0.950 1_554 S
C1854 C1853 1.398 . S
C1854 C1855 1.391 1_554 S
C1855 H1843 0.950 . S
C1855 C1851 1.393 . S
C1855 C1854 1.391 1_556 S
H1856 C1864 0.950 . S
H1857 C1869 0.950 . S
H1858 C1866 0.955 . S
H1859 C1868 0.950 . S
H1860 C1870 0.950 . S
H1861 C1872 0.950 . S
H1862 C1874 0.950 . S
H1863 C1875 0.950 . S
C1864 H1856 0.950 . S
C1864 C1865 1.386 . S
C1864 C1866 1.401 . S
C1865 C1864 1.386 . S
C1865 C1869 1.393 1_556 S
C1866 H1858 0.955 . S
C1866 C1864 1.401 . S
C1866 C1867 1.385 1_556 S
C1867 C1866 1.385 1_554 S
C1867 C1868 1.398 . S
C1867 C1873 1.491 . S
C1868 H1859 0.950 . S
C1868 C1867 1.398 . S
C1868 C1869 1.391 . S
C1869 H1857 0.950 . S
C1869 C1865 1.393 1_554 S
C1869 C1868 1.391 . S
C1870 H1860 0.950 . S
C1870 C1871 1.386 . S
C1870 C1872 1.391 . S
C1871 C1870 1.386 . S
C1871 C1875 1.393 . S
C1872 H1861 0.950 . S
C1872 C1870 1.391 . S
C1872 C1873 1.400 . S
C1873 C1867 1.491 . S
C1873 C1872 1.400 . S
C1873 C1874 1.398 . S
C1874 H1862 0.950 . S
C1874 C1873 1.398 . S
C1874 C1875 1.391 . S
C1875 H1863 0.950 . S
C1875 C1871 1.393 . S
C1875 C1874 1.391 . S
H1876 C1884 0.950 . S
H1877 C1889 0.950 . S
H1878 C1886 0.950 . S
H1879 C1888 0.950 . S
H1880 C1890 0.950 . S
H1881 C1892 0.950 . S
H1882 C1894 0.950 . S
H1883 C1895 0.950 . S
C1884 H1876 0.950 . S
C1884 C1885 1.386 1_554 S
C1884 C1886 1.391 . S
C1885 C1884 1.386 1_556 S
C1885 C1889 1.393 . S
C1886 H1878 0.950 . S
C1886 C1884 1.391 . S
C1886 C1887 1.400 . S
C1887 C1886 1.400 . S
C1887 C1888 1.398 1_554 S
C1887 C1893 1.491 . S
C1888 H1879 0.950 . S
C1888 C1887 1.398 1_556 S
C1888 C1889 1.391 . S
C1889 H1877 0.950 . S
C1889 C1885 1.393 . S
C1889 C1888 1.391 . S
C1890 H1880 0.950 . S
C1890 C1891 1.386 . S
C1890 C1892 1.391 . S
C1891 C1890 1.386 . S
C1891 C1895 1.393 . S
C1892 H1881 0.950 . S
C1892 C1890 1.391 . S
C1892 C1893 1.400 . S
C1893 C1887 1.491 . S
C1893 C1892 1.400 . S
C1893 C1894 1.398 . S
C1894 H1882 0.950 . S
C1894 C1893 1.398 . S
C1894 C1895 1.391 . S
C1895 H1883 0.950 . S
C1895 C1891 1.393 . S
C1895 C1894 1.391 . S
H1896 C1904 0.950 . S
H1897 C1909 0.950 . S
H1898 C1906 0.950 . S
H1899 C1908 0.950 . S
H1900 C1910 0.950 . S
H1901 C1912 0.950 . S
H1902 C1914 0.950 . S
H1903 C1915 0.950 . S
C1904 H1896 0.950 . S
C1904 C1905 1.386 . S
C1904 C1906 1.391 . S
C1905 C1904 1.386 . S
C1905 C1909 1.393 . S
C1906 H1898 0.950 . S
C1906 C1904 1.391 . S
C1906 C1907 1.400 . S
C1907 C1906 1.400 . S
C1907 C1908 1.398 . S
C1907 C1913 1.491 . S
C1908 H1899 0.950 . S
C1908 C1907 1.398 . S
C1908 C1909 1.391 . S
C1909 H1897 0.950 . S
C1909 C1905 1.393 . S
C1909 C1908 1.391 . S
C1910 H1900 0.950 . S
C1910 C1911 1.386 . S
C1910 C1912 1.391 . S
C1911 C1910 1.386 . S
C1911 C1915 1.393 . S
C1912 H1901 0.950 . S
C1912 C1910 1.391 . S
C1912 C1913 1.400 . S
C1913 C1907 1.491 . S
C1913 C1912 1.400 . S
C1913 C1914 1.398 . S
C1914 H1902 0.950 . S
C1914 C1913 1.398 . S
C1914 C1915 1.391 . S
C1915 H1903 0.950 . S
C1915 C1911 1.393 . S
C1915 C1914 1.391 . S
H1916 C1924 0.950 . S
H1917 C1929 0.950 . S
H1918 C1926 0.950 . S
H1919 C1928 0.950 1_565 S
H1920 C1930 0.950 . S
H1921 C1932 0.950 . S
H1922 C1934 0.950 1_545 S
H1923 C1935 0.950 . S
C1924 H1916 0.950 . S
C1924 C1925 1.386 . S
C1924 C1926 1.391 . S
C1925 C1924 1.386 . S
C1925 C1929 1.393 . S
C1926 H1918 0.950 . S
C1926 C1924 1.391 . S
C1926 C1927 1.400 . S
C1927 C1926 1.400 . S
C1927 C1928 1.398 . S
C1927 C1933 1.491 1_545 S
C1928 H1919 0.950 1_545 S
C1928 C1927 1.398 . S
C1928 C1929 1.391 . S
C1929 H1917 0.950 . S
C1929 C1925 1.393 . S
C1929 C1928 1.391 . S
C1930 H1920 0.950 . S
C1930 C1931 1.386 . S
C1930 C1932 1.391 . S
C1931 C1930 1.386 . S
C1931 C1935 1.393 . S
C1932 H1921 0.950 . S
C1932 C1930 1.391 . S
C1932 C1933 1.400 . S
C1933 C1927 1.491 1_565 S
C1933 C1932 1.400 . S
C1933 C1934 1.398 . S
C1934 H1922 0.950 1_565 S
C1934 C1933 1.398 . S
C1934 C1935 1.391 . S
C1935 H1923 0.950 . S
C1935 C1931 1.393 . S
C1935 C1934 1.391 . S
H1936 C1944 0.950 . S
H1937 C1949 0.950 . S
H1938 C1946 0.950 . S
H1939 C1948 0.950 . S
H1940 C1950 0.950 . S
H1941 C1952 0.950 . S
H1942 C1954 0.950 . S
H1943 C1955 0.950 . S
C1944 H1936 0.950 . S
C1944 C1945 1.386 . S
C1944 C1946 1.391 . S
C1945 C1944 1.386 . S
C1945 C1949 1.393 . S
C1946 H1938 0.950 . S
C1946 C1944 1.391 . S
C1946 C1947 1.400 . S
C1947 C1946 1.400 . S
C1947 C1948 1.398 . S
C1947 C1953 1.491 . S
C1948 H1939 0.950 . S
C1948 C1947 1.398 . S
C1948 C1949 1.391 . S
C1949 H1937 0.950 . S
C1949 C1945 1.393 . S
C1949 C1948 1.391 . S
C1950 H1940 0.950 . S
C1950 C1951 1.386 . S
C1950 C1952 1.391 1_655 S
C1951 C1950 1.386 . S
C1951 C1955 1.393 . S
C1952 H1941 0.950 . S
C1952 C1950 1.391 1_455 S
C1952 C1953 1.400 . S
C1953 C1947 1.491 . S
C1953 C1952 1.400 . S
C1953 C1954 1.398 1_455 S
C1954 H1942 0.950 . S
C1954 C1953 1.398 1_655 S
C1954 C1955 1.391 . S
C1955 H1943 0.950 . S
C1955 C1951 1.393 . S
C1955 C1954 1.391 . S
H1956 C1964 0.950 . S
H1957 C1969 0.950 . S
H1958 C1966 0.950 . S
H1959 C1968 0.950 . S
H1960 C1970 0.950 . S
H1961 C1972 0.950 . S
H1962 C1974 0.950 . S
H1963 C1975 0.950 . S
C1964 H1956 0.950 . S
C1964 C1965 1.386 . S
C1964 C1966 1.391 . S
C1965 C1964 1.386 . S
C1965 C1969 1.393 . S
C1966 H1958 0.950 . S
C1966 C1964 1.391 . S
C1966 C1967 1.400 . S
C1967 C1966 1.400 . S
C1967 C1968 1.398 . S
C1967 C1973 1.491 . S
C1968 H1959 0.950 . S
C1968 C1967 1.398 . S
C1968 C1969 1.391 . S
C1969 H1957 0.950 . S
C1969 C1965 1.393 . S
C1969 C1968 1.391 . S
C1970 H1960 0.950 . S
C1970 C1971 1.386 . S
C1970 C1972 1.391 . S
C1971 C1970 1.386 . S
C1971 C1975 1.393 . S
C1972 H1961 0.950 . S
C1972 C1970 1.391 . S
C1972 C1973 1.400 . S
C1973 C1967 1.491 . S
C1973 C1972 1.400 . S
C1973 C1974 1.398 . S
C1974 H1962 0.950 . S
C1974 C1973 1.398 . S
C1974 C1975 1.391 . S
C1975 H1963 0.950 . S
C1975 C1971 1.393 . S
C1975 C1974 1.391 . S
H1976 C1984 0.950 . S
H1977 C1989 0.950 . S
H1978 C1986 0.950 . S
H1979 C1988 0.950 . S
H1980 C1990 0.950 . S
H1981 C1992 0.935 1_545 S
H1982 C1994 0.950 . S
H1983 C1995 0.950 . S
C1984 H1976 0.950 . S
C1984 C1985 1.386 . S
C1984 C1986 1.391 . S
C1985 C1984 1.386 . S
C1985 C1989 1.393 . S
C1986 H1978 0.950 . S
C1986 C1984 1.391 . S
C1986 C1987 1.400 . S
C1987 C1986 1.400 . S
C1987 C1988 1.398 . S
C1987 C1993 1.491 . S
C1988 H1979 0.950 . S
C1988 C1987 1.398 . S
C1988 C1989 1.391 . S
C1989 H1977 0.950 . S
C1989 C1985 1.393 . S
C1989 C1988 1.391 . S
C1990 H1980 0.950 . S
C1990 C1991 1.386 . S
C1990 C1992 1.391 . S
C1991 C1990 1.386 . S
C1991 C1995 1.393 . S
C1992 H1981 0.935 1_565 S
C1992 C1990 1.391 . S
C1992 C1993 1.400 1_565 S
C1993 C1987 1.491 . S
C1993 C1992 1.400 1_545 S
C1993 C1994 1.398 . S
C1994 H1982 0.950 . S
C1994 C1993 1.398 . S
C1994 C1995 1.391 1_545 S
C1995 H1983 0.950 . S
C1995 C1991 1.393 . S
C1995 C1994 1.391 1_565 S
H1996 C2004 0.950 . S
H1997 C2009 0.950 . S
H1998 C2006 0.950 . S
H1999 C2008 0.950 . S
H2000 C2010 0.950 . S
H2001 C2012 0.950 . S
H2002 C2014 0.950 . S
H2003 C2015 0.950 . S
C2004 H1996 0.950 . S
C2004 C2005 1.386 . S
C2004 C2006 1.391 . S
C2005 C2004 1.386 . S
C2005 C2009 1.393 . S
C2006 H1998 0.950 . S
C2006 C2004 1.391 . S
C2006 C2007 1.400 . S
C2007 C2006 1.400 . S
C2007 C2008 1.398 . S
C2007 C2013 1.491 1_655 S
C2008 H1999 0.950 . S
C2008 C2007 1.398 . S
C2008 C2009 1.391 . S
C2009 H1997 0.950 . S
C2009 C2005 1.393 . S
C2009 C2008 1.391 . S
C2010 H2000 0.950 . S
C2010 C2011 1.386 . S
C2010 C2012 1.391 . S
C2011 C2010 1.386 . S
C2011 C2015 1.393 . S
C2012 H2001 0.950 . S
C2012 C2010 1.391 . S
C2012 C2013 1.400 . S
C2013 C2007 1.491 1_455 S
C2013 C2012 1.400 . S
C2013 C2014 1.398 . S
C2014 H2002 0.950 . S
C2014 C2013 1.398 . S
C2014 C2015 1.391 . S
C2015 H2003 0.950 . S
C2015 C2011 1.393 . S
C2015 C2014 1.391 . S
C585 C54 1.117 . S
C591 C17 1.063 . S
C605 C49 1.054 . S
C611 C86 1.108 . S
C625 C81 1.080 . S
C631 C22 1.126 . S
C645 C146 1.126 . S
C651 C117 1.096 . S
C665 C178 1.091 . S
C671 C149 1.058 . S
C685 C181 1.065 . S
C691 C114 1.119 . S
C705 C209 1.088 . S
C711 C246 1.103 . S
C725 C241 1.059 . S
C731 C278 1.114 . S
C745 C214 1.091 . S
C751 C273 1.060 . S
C765 C309 1.062 . S
C771 C338 1.116 . S
C785 C370 1.119 . S
C791 C341 1.099 . S
C805 C373 1.089 . S
C811 C306 1.104 . S
C825 C401 1.055 . S
C831 C438 1.092 . S
C845 C433 1.088 . S
C851 C470 1.127 . S
C865 C465 1.072 . S
C871 C406 1.093 . S
C885 C530 1.111 . S
C891 C501 1.057 . S
C905 C533 1.087 . S
C911 C562 1.127 . S
C925 C565 1.098 . S
C931 C498 1.124 . S
C945 C19 1.341 . S
C951 C180 1.339 . S
C965 C51 1.313 . S
C971 C116 1.355 . S
C985 C83 1.311 . S
C991 C148 1.361 . S
C1005 C55 1.637 . S
C1011 C176 1.609 . S
C1025 C112 1.613 . S
C1031 C87 1.637 . S
C1045 C23 1.636 . S
C1051 C144 1.609 . S
C1065 C80 1.363 . S
C1071 C119 1.319 . S
C1085 C151 1.341 . S
C1091 C16 1.345 . S
C1105 C183 1.340 . S
C1111 C48 1.339 . S
C1125 C147 1.637 . S
C1131 C84 1.606 . S
C1145 C179 1.637 . S
C1151 C20 1.613 . S
C1165 C52 1.608 . S
C1171 C115 1.637 . S
C1185 C211 1.341 . S
C1191 C372 1.339 . S
C1205 C308 1.344 . S
C1211 C243 1.342 . S
C1225 C340 1.339 . S
C1231 C275 1.340 . S
C1245 C247 1.637 . S
C1251 C368 1.616 . S
C1265 C304 1.619 . S
C1271 C279 1.637 . S
C1285 C336 1.607 . S
C1291 C215 1.636 . S
C1305 C311 1.339 . S
C1311 C272 1.339 . S
C1325 C208 1.357 . S
C1331 C343 1.312 . S
C1345 C240 1.352 . S
C1351 C375 1.336 . S
C1365 C276 1.607 . S
C1371 C339 1.637 . S
C1385 C371 1.637 . S
C1391 C212 1.608 . S
C1405 C307 1.636 . S
C1411 C244 1.605 . S
C1425 C403 1.311 . S
C1431 C564 1.359 . S
C1445 C435 1.311 . S
C1451 C500 1.363 . S
C1465 C532 1.348 . S
C1471 C467 1.320 . S
C1485 C439 1.637 . S
C1491 C560 1.620 . S
C1505 C471 1.637 . S
C1511 C496 1.619 . S
C1525 C528 1.617 . S
C1531 C407 1.637 . S
C1545 C503 1.311 . S
C1551 C464 1.362 . S
C1565 C535 1.322 . S
C1571 C400 1.362 . S
C1585 C567 1.313 . S
C1591 C432 1.364 . S
C1605 C531 1.637 . S
C1611 C468 1.608 . S
C1625 C563 1.637 . S
C1631 C404 1.608 . S
C1645 C499 1.637 . S
C1651 C436 1.617 . S
C1665 C21 2.353 . S
C1671 C434 2.271 . S
C1685 C53 2.353 . S
C1691 C466 2.276 . S
C1705 C402 2.282 . S
C1711 C85 2.349 . S
C1725 C213 2.350 . S
C1731 C50 2.282 . S
C1745 C245 2.353 . S
C1751 C82 2.276 . S
C1765 C18 2.278 . S
C1771 C277 2.345 . S
C1785 C113 2.344 . S
C1791 C342 2.271 . S
C1805 C145 2.345 . S
C1811 C374 2.263 . S
C1825 C310 2.278 . S
C1831 C177 2.353 . S
C1845 C150 2.275 . S
C1851 C497 2.354 . S
C1865 C529 2.352 . S
C1871 C182 2.270 . S
C1885 C561 2.347 . S
C1891 C118 2.280 . S
C1905 C242 2.282 . S
C1911 C405 2.350 . S
C1925 C274 2.280 . S
C1931 C437 2.347 . S
C1945 C469 2.344 . S
C1951 C210 2.272 . S
C1965 C305 2.348 . S
C1971 C534 2.263 . S
C1985 C337 2.343 . S
C1991 C566 2.267 . S
C2005 C369 2.345 . S
C2011 C502 2.264 . S
