# Generated by pormake.
# Topology vby, (6)-cn, num edge types: 1
# Building blocks:
#     Node 0, Type 0, BuildingBlock: CUKXOW_clean_sbu_0, # of connection points: 6
#     Node 1, Type 0, BuildingBlock: CUKXOW_clean_sbu_0, # of connection points: 6
#     Node 2, Type 0, BuildingBlock: CUKXOW_clean_sbu_0, # of connection points: 6
#     Node 3, Type 0, BuildingBlock: CUKXOW_clean_sbu_0, # of connection points: 6
#     Node 4, Type 0, BuildingBlock: CUKXOW_clean_sbu_0, # of connection points: 6
#     Node 5, Type 0, BuildingBlock: CUKXOW_clean_sbu_0, # of connection points: 6
#     Node 6, Type 0, BuildingBlock: CUKXOW_clean_sbu_0, # of connection points: 6
#     Node 7, Type 0, BuildingBlock: CUKXOW_clean_sbu_0, # of connection points: 6
#     Edge 8, Type (0, 0), BuildingBlock: KIFKEQ_clean_linker_1, # of connection points: 2
#     Edge 9, Type (0, 0), BuildingBlock: KIFKEQ_clean_linker_1, # of connection points: 2
#     Edge 10, Type (0, 0), BuildingBlock: KIFKEQ_clean_linker_1, # of connection points: 2
#     Edge 11, Type (0, 0), BuildingBlock: KIFKEQ_clean_linker_1, # of connection points: 2
#     Edge 12, Type (0, 0), BuildingBlock: KIFKEQ_clean_linker_1, # of connection points: 2
#     Edge 13, Type (0, 0), BuildingBlock: KIFKEQ_clean_linker_1, # of connection points: 2
#     Edge 14, Type (0, 0), BuildingBlock: KIFKEQ_clean_linker_1, # of connection points: 2
#     Edge 15, Type (0, 0), BuildingBlock: KIFKEQ_clean_linker_1, # of connection points: 2
#     Edge 16, Type (0, 0), BuildingBlock: KIFKEQ_clean_linker_1, # of connection points: 2
#     Edge 17, Type (0, 0), BuildingBlock: KIFKEQ_clean_linker_1, # of connection points: 2
#     Edge 18, Type (0, 0), BuildingBlock: KIFKEQ_clean_linker_1, # of connection points: 2
#     Edge 19, Type (0, 0), BuildingBlock: KIFKEQ_clean_linker_1, # of connection points: 2
#     Edge 20, Type (0, 0), BuildingBlock: KIFKEQ_clean_linker_1, # of connection points: 2
#     Edge 21, Type (0, 0), BuildingBlock: KIFKEQ_clean_linker_1, # of connection points: 2
#     Edge 22, Type (0, 0), BuildingBlock: KIFKEQ_clean_linker_1, # of connection points: 2
#     Edge 23, Type (0, 0), BuildingBlock: KIFKEQ_clean_linker_1, # of connection points: 2
#     Edge 24, Type (0, 0), BuildingBlock: KIFKEQ_clean_linker_1, # of connection points: 2
#     Edge 25, Type (0, 0), BuildingBlock: KIFKEQ_clean_linker_1, # of connection points: 2
#     Edge 26, Type (0, 0), BuildingBlock: KIFKEQ_clean_linker_1, # of connection points: 2
#     Edge 27, Type (0, 0), BuildingBlock: KIFKEQ_clean_linker_1, # of connection points: 2
#     Edge 28, Type (0, 0), BuildingBlock: KIFKEQ_clean_linker_1, # of connection points: 2
#     Edge 29, Type (0, 0), BuildingBlock: KIFKEQ_clean_linker_1, # of connection points: 2
#     Edge 30, Type (0, 0), BuildingBlock: KIFKEQ_clean_linker_1, # of connection points: 2
#     Edge 31, Type (0, 0), BuildingBlock: KIFKEQ_clean_linker_1, # of connection points: 2
# Relax obj value: 0.105
# Max RMSD: 0.176
# Mean RMSD: 0.176
data_MOF--net-vby--node1-CUKXOW_clean_sbu_0--edge1-KIFKEQ_clean_linker_1
_symmetry_space_group_name_H-M    P1
_symmetry_Int_Tables_number       1
_symmetry_cell_setting            triclinic
loop_
_symmetry_equiv_pos_as_xyz
'x, y, z'
_cell_length_a     18.350667
_cell_length_b     53.523648
_cell_length_c     30.519827
_cell_angle_alpha  105.06214
_cell_angle_beta   90.216629
_cell_angle_gamma 90.196485
loop_
_atom_site_label
_atom_site_type_symbol
_atom_site_fract_x
_atom_site_fract_y
_atom_site_fract_z
_atom_type_partial_charge
Tb0 Tb 0.99741 0.39161 0.01344 0.0
C1 C 0.08971 0.40594 0.10034 0.0
Tb2 Tb 0.16479 0.39763 1.00306 0.0
O3 O 0.02247 0.35711 0.03741 0.0
O4 O 0.08817 0.3673 0.98952 0.0
O5 O 0.026 0.40953 0.08264 0.0
C6 C 0.30659 0.38764 0.99366 0.0
O7 O 0.14887 0.39805 0.0752 0.0
C8 C 0.10365 0.44345 0.02119 0.0
C9 C 0.06044 0.39065 0.91732 0.0
O10 O 0.26332 0.37907 0.02012 0.0
O11 O 0.26977 0.40146 0.97225 0.0
O12 O 0.17335 0.43977 0.01714 0.0
O13 O 0.07359 0.42171 0.01674 0.0
O14 O 0.12809 0.38811 0.93177 0.0
O15 O 1.00342 0.39475 0.9446 0.0
C16 C 0.85252 0.39012 0.0114 0.0
O17 O 0.895 0.37075 0.99446 0.0
O18 O 0.89158 0.41053 0.02954 0.0
C19 C 0.08098 0.35145 0.01317 0.0
Tb20 Tb 0.84756 0.66415 0.02784 0.0
C21 C 0.93817 0.66769 0.11831 0.0
Tb22 Tb 0.01313 0.67258 0.02859 0.0
O23 O 0.83928 0.62284 0.02001 0.0
O24 O 0.94093 0.64049 0.02214 0.0
O25 O 0.87206 0.66808 0.10005 0.0
C26 C 0.158 0.67346 0.03118 0.0
O27 O 0.99966 0.66721 0.09561 0.0
C28 C 0.93028 0.71289 0.02603 0.0
C29 C 0.93749 0.65788 0.9375 0.0
O30 O 0.1161 0.6846 0.06467 0.0
O31 O 0.11847 0.66164 0.99674 0.0
O32 O 0.99442 0.70903 0.0081 0.0
O33 O 0.91911 0.69584 0.04645 0.0
O34 O 0.99297 0.6517 0.95985 0.0
O35 O 0.87675 0.66748 0.95908 0.0
C36 C 0.70483 0.67247 0.02647 0.0
O37 O 0.74265 0.65907 0.99282 0.0
O38 O 0.74731 0.68134 0.06112 0.0
C39 C 0.90905 0.61902 0.01891 0.0
Tb40 Tb 0.97508 0.67419 0.53119 0.0
C41 C 0.04766 0.65912 0.43795 0.0
Tb42 Tb 0.13647 0.66388 0.52855 0.0
O43 O 0.99743 0.70875 0.5059 0.0
O44 O 0.0713 0.69692 0.54753 0.0
O45 O 0.98972 0.65549 0.46076 0.0
C46 C 0.28144 0.66899 0.53524 0.0
O47 O 0.11101 0.66646 0.45884 0.0
C48 C 0.05727 0.62128 0.5062 0.0
C49 C 0.05135 0.67343 0.62275 0.0
O50 O 0.23857 0.68215 0.51581 0.0
O51 O 0.2427 0.65294 0.55097 0.0
O52 O 0.12107 0.62399 0.48969 0.0
O53 O 0.04203 0.64201 0.53569 0.0
O54 O 0.11585 0.67031 0.60195 0.0
O55 O 0.98905 0.67443 0.60138 0.0
C56 C 0.82962 0.67419 0.53598 0.0
O57 O 0.87241 0.6916 0.56102 0.0
O58 O 0.86876 0.65684 0.5086 0.0
C59 C 0.06117 0.71301 0.52488 0.0
Tb60 Tb 0.88557 0.39649 0.50283 0.0
C61 C 0.98259 0.38866 0.41377 0.0
Tb62 Tb 0.04643 0.38868 0.50959 0.0
O63 O 0.89344 0.43535 0.54643 0.0
O64 O 0.97919 0.4204 0.50307 0.0
O65 O 0.91569 0.39245 0.43128 0.0
C66 C 0.19198 0.38928 0.5066 0.0
O67 O 0.04052 0.38626 0.43822 0.0
C68 C 0.9622 0.34826 0.50844 0.0
C69 C 0.96026 0.40015 0.59769 0.0
O70 O 0.15134 0.36871 0.49658 0.0
O71 O 0.15083 0.40955 0.51859 0.0
O72 O 0.02088 0.3538 0.53295 0.0
O73 O 0.95502 0.36454 0.48575 0.0
O74 O 0.02171 0.40542 0.57969 0.0
O75 O 0.90143 0.39186 0.57226 0.0
C76 C 0.74158 0.39198 0.48961 0.0
O77 O 0.78099 0.41167 0.48687 0.0
O78 O 0.78337 0.37456 0.49911 0.0
C79 C 0.9579 0.44009 0.53319 0.0
Tb80 Tb 0.47117 0.88754 1.00001 0.0
C81 C 0.5549 0.90092 0.09149 0.0
Tb82 Tb 0.63657 0.90173 1.00131 0.0
O83 O 0.48775 0.84629 1.00263 0.0
O84 O 0.57143 0.87017 0.99897 0.0
O85 O 0.49272 0.90352 0.07113 0.0
C86 C 0.78071 0.90047 0.99112 0.0
O87 O 0.61762 0.89548 0.06902 0.0
C88 C 0.54756 0.94144 0.02172 0.0
C89 C 0.5451 0.89044 0.90803 0.0
O90 O 0.74368 0.92032 0.01314 0.0
O91 O 0.7366 0.88139 0.9743 0.0
O92 O 0.61291 0.94117 0.03802 0.0
O93 O 0.5361 0.92 0.99282 0.0
O94 O 0.61028 0.89578 0.92822 0.0
O95 O 0.48494 0.88799 0.93035 0.0
C96 C 0.32675 0.88942 0.99953 0.0
O97 O 0.36612 0.8731 0.97029 0.0
O98 O 0.36868 0.90463 0.02938 0.0
C99 C 0.55839 0.8478 1.00168 0.0
Tb100 Tb 0.37759 0.16316 0.00529 0.0
C101 C 0.44993 0.17011 0.10398 0.0
Tb102 Tb 0.53671 0.17412 0.02058 0.0
O103 O 0.39724 0.1242 0.9666 0.0
O104 O 0.46763 0.14138 0.02043 0.0
O105 O 0.3892 0.17128 0.08041 0.0
C106 C 0.68257 0.17315 0.01863 0.0
O107 O 0.51471 0.167 0.08502 0.0
C108 C 0.45035 0.21481 0.03016 0.0
C109 C 0.47488 0.1629 0.92041 0.0
O110 O 0.64332 0.19211 0.04166 0.0
O111 O 0.63973 0.15474 0.9969 0.0
O112 O 0.50933 0.2152 0.05384 0.0
O113 O 0.44668 0.19343 1.00169 0.0
O114 O 0.53249 0.16374 0.94698 0.0
O115 O 0.40726 0.16553 0.93676 0.0
C116 C 0.23205 0.16647 0.00696 0.0
O117 O 0.2693 0.14526 0.99949 0.0
O118 O 0.27674 0.18594 0.0134 0.0
C119 C 0.45577 0.12107 0.98858 0.0
Tb120 Tb 0.49851 0.16931 0.50891 0.0
C121 C 0.57532 0.15745 0.41639 0.0
Tb122 Tb 0.66571 0.1606 0.50708 0.0
O123 O 0.51971 0.2075 0.49565 0.0
O124 O 0.59423 0.19161 0.53122 0.0
O125 O 0.51544 0.15387 0.43775 0.0
C126 C 0.80827 0.1702 0.51374 0.0
O127 O 0.63878 0.1641 0.43792 0.0
C128 C 0.59969 0.11543 0.48819 0.0
C129 C 0.57405 0.16063 0.59501 0.0
O130 O 0.76498 0.17636 0.48446 0.0
O131 O 0.77133 0.1587 0.53898 0.0
O132 O 0.66998 0.11829 0.48807 0.0
O133 O 0.57143 0.13763 0.49621 0.0
O134 O 0.63819 0.1663 0.57938 0.0
O135 O 0.51377 0.15751 0.57035 0.0
C136 C 0.35394 0.17054 0.51448 0.0
O137 O 0.39823 0.18387 0.54512 0.0
O138 O 0.39107 0.15634 0.48116 0.0
C139 C 0.58377 0.21024 0.51433 0.0
Tb140 Tb 0.35171 0.89586 0.49622 0.0
C141 C 0.45238 0.89304 0.4112 0.0
Tb142 Tb 0.51818 0.89064 0.50402 0.0
O143 O 0.33983 0.93754 0.5088 0.0
O144 O 0.44207 0.92127 0.50923 0.0
O145 O 0.38661 0.88746 0.42476 0.0
C146 C 0.66308 0.88943 0.49921 0.0
O147 O 0.50832 0.89912 0.43932 0.0
C148 C 0.43732 0.84876 0.50047 0.0
C149 C 0.43206 0.9031 0.59174 0.0
O150 O 0.61893 0.87477 0.47029 0.0
O151 O 0.62567 0.90499 0.53084 0.0
O152 O 0.49804 0.85387 0.52288 0.0
O153 O 0.42774 0.86581 0.47972 0.0
O154 O 0.4933 0.90831 0.57352 0.0
O155 O 0.37313 0.89405 0.56686 0.0
C156 C 0.20962 0.88479 0.48996 0.0
O157 O 0.25213 0.88273 0.5229 0.0
O158 O 0.24738 0.89265 0.46022 0.0
C159 C 0.40912 0.94243 0.51272 0.0
H160 H 0.40171 0.41378 0.95426 0.0
H161 H 0.39083 0.35695 0.03192 0.0
H162 H 0.53451 0.41377 0.95901 0.0
H163 H 0.5244 0.35675 0.03626 0.0
H164 H 0.76741 0.34714 0.98644 0.0
H165 H 0.6343 0.34506 0.98113 0.0
H166 H 0.62476 0.42843 0.02597 0.0
H167 H 0.75789 0.43049 0.03177 0.0
C168 C 0.42787 0.40107 0.9719 0.0
C169 C 0.38637 0.38543 0.99287 0.0
C170 C 0.5037 0.40122 0.97489 0.0
C171 C 0.53939 0.38546 0.99836 0.0
C172 C 0.49798 0.36906 0.01795 0.0
C173 C 0.42186 0.36919 0.01551 0.0
C174 C 0.73672 0.36499 0.99533 0.0
C175 C 0.77253 0.38899 0.00942 0.0
C176 C 0.66077 0.36377 0.99246 0.0
C177 C 0.61959 0.38658 1.00297 0.0
C178 C 0.65549 0.41059 0.01729 0.0
C179 C 0.7314 0.41177 0.02079 0.0
H180 H 0.24485 0.66478 0.95761 0.0
H181 H 0.24989 0.6861 0.104 0.0
H182 H 0.37694 0.66757 0.95589 0.0
H183 H 0.38296 0.68728 0.10271 0.0
H184 H 0.62056 0.70658 0.08705 0.0
H185 H 0.48751 0.70906 0.08781 0.0
H186 H 0.4786 0.64477 0.96768 0.0
H187 H 0.61068 0.64355 0.96575 0.0
C188 C 0.27463 0.66978 0.98945 0.0
C189 C 0.23775 0.67507 0.03092 0.0
C190 C 0.35038 0.67125 0.98855 0.0
C191 C 0.39103 0.67738 0.02916 0.0
C192 C 0.35361 0.68287 0.07076 0.0
C193 C 0.2775 0.68197 0.07161 0.0
C194 C 0.58966 0.69324 0.06069 0.0
C195 C 0.6253 0.67492 0.02632 0.0
C196 C 0.51358 0.69448 0.06125 0.0
C197 C 0.47199 0.67709 0.02785 0.0
C198 C 0.50845 0.65887 0.99341 0.0
C199 C 0.58425 0.65801 0.9924 0.0
H200 H 0.73691 0.6482 0.47017 0.0
H201 H 0.74146 0.70037 0.60441 0.0
H202 H 0.60331 0.64847 0.4713 0.0
H203 H 0.60743 0.69986 0.60602 0.0
H204 H 0.3739 0.65137 0.59052 0.0
H205 H 0.5076 0.65406 0.59254 0.0
H206 H 0.50325 0.69332 0.48578 0.0
H207 H 0.36955 0.69148 0.48474 0.0
C208 C 0.70927 0.6596 0.49997 0.0
C209 C 0.74925 0.67429 0.53721 0.0
C210 C 0.63309 0.6598 0.50051 0.0
C211 C 0.59565 0.67418 0.53873 0.0
C212 C 0.63545 0.68863 0.57624 0.0
C213 C 0.71178 0.68895 0.57525 0.0
C214 C 0.40156 0.66075 0.56779 0.0
C215 C 0.36164 0.6712 0.53745 0.0
C216 C 0.47775 0.66234 0.56906 0.0
C217 C 0.51513 0.67388 0.53931 0.0
C218 C 0.47531 0.68434 0.50901 0.0
C219 C 0.3991 0.68331 0.50848 0.0
H220 H 0.65331 0.34939 0.46881 0.0
H221 H 0.64974 0.43276 0.50872 0.0
H222 H 0.52051 0.34833 0.46934 0.0
H223 H 0.51797 0.43209 0.51368 0.0
H224 H 0.27701 0.42694 0.48858 0.0
H225 H 0.40857 0.42679 0.47956 0.0
H226 H 0.4186 0.35261 0.51164 0.0
H227 H 0.2863 0.35204 0.51618 0.0
C228 C 0.62376 0.36749 0.47797 0.0
C229 C 0.66136 0.39114 0.48836 0.0
C230 C 0.54748 0.36698 0.4789 0.0
C231 C 0.50716 0.39014 0.49182 0.0
C232 C 0.54583 0.41379 0.50237 0.0
C233 C 0.62179 0.41425 0.49993 0.0
C234 C 0.30777 0.41063 0.4935 0.0
C235 C 0.27195 0.38954 0.5031 0.0
C236 C 0.38353 0.41056 0.48874 0.0
C237 C 0.42566 0.38974 0.49509 0.0
C238 C 0.38895 0.36876 0.50533 0.0
C239 C 0.31294 0.3685 0.50851 0.0
H240 H 0.86377 0.85765 0.96023 0.0
H241 H 0.87688 0.94015 0.01883 0.0
H242 H 0.99633 0.85487 0.96243 0.0
H243 H 0.00959 0.93765 0.01962 0.0
H244 H 0.23748 0.91953 0.06243 0.0
H245 H 0.10485 0.92212 0.05926 0.0
H246 H 0.10468 0.86601 0.92854 0.0
H247 H 0.23687 0.86282 0.93272 0.0
C248 C 0.89526 0.87523 0.97294 0.0
C249 C 0.86054 0.89911 0.98933 0.0
C250 C 0.97112 0.87368 0.97408 0.0
C251 C 0.0136 0.89604 0.99132 0.0
C252 C 0.97848 0.92001 0.00689 0.0
C253 C 0.90261 0.9215 0.00609 0.0
C254 C 0.20882 0.90773 0.03317 0.0
C255 C 0.24697 0.89094 0.99789 0.0
C256 C 0.13301 0.90933 0.03114 0.0
C257 C 0.09414 0.89432 0.99356 0.0
C258 C 0.13277 0.87755 0.95826 0.0
C259 C 0.20845 0.87581 0.96051 0.0
H260 H 0.13645 0.12688 1.00057 0.0
H261 H 0.14702 0.20938 0.01717 0.0
H262 H 1.00397 0.12891 0.0041 0.0
H263 H 0.01386 0.21145 0.01927 0.0
H264 H 0.77789 0.20885 0.06796 0.0
H265 H 0.91098 0.2076 0.06546 0.0
H266 H 0.9007 0.13539 0.96121 0.0
H267 H 0.76803 0.13635 0.96499 0.0
C268 C 0.11023 0.14544 0.00466 0.0
C269 C 0.15181 0.16797 0.00856 0.0
C270 C 0.03423 0.14661 0.00639 0.0
C271 C 0.99795 0.17033 0.01175 0.0
C272 C 0.03989 0.1929 0.01567 0.0
C273 C 0.1161 0.19173 0.01418 0.0
C274 C 0.80433 0.19273 0.04461 0.0
C275 C 0.76288 0.17264 0.01682 0.0
C276 C 0.88054 0.19208 0.04292 0.0
C277 C 0.9168 0.17136 0.01319 0.0
C278 C 0.87483 0.15141 0.98509 0.0
C279 C 0.79876 0.15201 0.98703 0.0
H280 H 0.25932 0.14987 0.44615 0.0
H281 H 0.26907 0.19525 0.58554 0.0
H282 H 0.12655 0.15299 0.44742 0.0
H283 H 0.13578 0.19822 0.58694 0.0
H284 H 0.89901 0.16293 0.57954 0.0
H285 H 0.03196 0.16542 0.58112 0.0
H286 H 0.02929 0.18811 0.45526 0.0
H287 H 0.89586 0.18579 0.45387 0.0
C288 C 0.23293 0.1605 0.47704 0.0
C289 C 0.27406 0.17225 0.51581 0.0
C290 C 0.15714 0.16247 0.47764 0.0
C291 C 0.12116 0.17596 0.5172 0.0
C292 C 0.16236 0.18766 0.55607 0.0
C293 C 0.23835 0.18597 0.55527 0.0
C294 C 0.92688 0.16873 0.55251 0.0
C295 C 0.88761 0.174 0.51641 0.0
C296 C 1.00279 0.17028 0.55354 0.0
C297 C 0.04068 0.17682 0.5182 0.0
C298 C 1.00121 0.18279 0.4827 0.0
C299 C 0.92512 0.18157 0.48198 0.0
H300 H 0.74511 0.86084 0.43051 0.0
H301 H 0.76083 0.91421 0.56334 0.0
H302 H 0.87794 0.85739 0.42733 0.0
H303 H 0.89376 0.91075 0.56023 0.0
H304 H 0.12306 0.87664 0.55712 0.0
H305 H 0.98974 0.87662 0.55899 0.0
H306 H 0.98363 0.88697 0.42331 0.0
H307 H 0.1168 0.88706 0.42154 0.0
C308 C 0.7771 0.87184 0.45897 0.0
C309 C 0.74305 0.88782 0.49714 0.0
C310 C 0.85296 0.8699 0.45711 0.0
C311 C 0.89601 0.88372 0.4936 0.0
C312 C 0.86178 0.89964 0.53186 0.0
C313 C 0.78591 0.90178 0.53351 0.0
C314 C 0.09308 0.87861 0.52756 0.0
C315 C 0.12987 0.88193 0.48924 0.0
C316 C 0.01697 0.87878 0.52876 0.0
C317 C 0.97649 0.88199 0.49143 0.0
C318 C 0.01348 0.88434 0.45246 0.0
C319 C 0.08956 0.88443 0.45147 0.0
H320 H 0.05255 0.60251 0.0083 0.0
H321 H 0.83525 0.57889 0.0343 0.0
H322 H 0.09786 0.55959 0.01001 0.0
H323 H 0.87988 0.53719 0.03821 0.0
H324 H 0.96647 0.45481 0.99606 0.0
H325 H 0.92171 0.49758 0.99437 0.0
H326 H 0.12182 0.53229 0.05785 0.0
H327 H 0.16702 0.48958 0.05737 0.0
C328 C 0.01482 0.58826 0.01468 0.0
C329 C 0.94051 0.59396 0.02082 0.0
C330 C 0.04052 0.56373 0.01595 0.0
C331 C 0.99237 0.5447 0.02397 0.0
C332 C 0.91841 0.55089 0.03081 0.0
C333 C 0.8929 0.57503 0.02893 0.0
C334 C 0.99996 0.4717 0.0103 0.0
C335 C 0.06983 0.469 0.027 0.0
C336 C 0.97469 0.49625 0.00929 0.0
C337 C 0.01847 0.51855 0.02562 0.0
C338 C 0.08727 0.51566 0.04392 0.0
C339 C 0.11275 0.49119 0.04427 0.0
H340 H 0.07251 0.45699 0.49036 0.0
H341 H 0.8891 0.4841 0.57768 0.0
H342 H 0.09506 0.50114 0.48483 0.0
H343 H 0.90817 0.52753 0.57009 0.0
H344 H 0.99311 0.60834 0.57801 0.0
H345 H 0.97556 0.56503 0.58787 0.0
H346 H 0.05047 0.53225 0.45074 0.0
H347 H 0.07188 0.57575 0.44229 0.0
C348 C 0.0374 0.47241 0.5086 0.0
C349 C 0.979 0.46702 0.53433 0.0
C350 C 0.04948 0.4977 0.50494 0.0
C351 C 1.00284 0.51812 0.52647 0.0
C352 C 0.946 0.51265 0.5534 0.0
C353 C 0.93475 0.48756 0.5576 0.0
C354 C 1.00457 0.59184 0.54976 0.0
C355 C 0.03343 0.59538 0.50927 0.0
C356 C 0.99468 0.56689 0.55536 0.0
C357 C 0.01216 0.54483 0.52027 0.0
C358 C 0.03818 0.54857 0.47906 0.0
C359 C 0.0493 0.57352 0.47383 0.0
H360 H 0.53408 0.98553 0.0886 0.0
H361 H 0.50267 0.95375 0.94482 0.0
H362 H 0.5131 1.02899 0.08 0.0
H363 H 0.48686 0.99708 0.93515 0.0
H364 H 0.40477 0.07614 0.93432 0.0
H365 H 0.41766 0.03303 0.94376 0.0
H366 H 0.56723 0.06206 0.05555 0.0
H367 H 0.54926 0.10604 0.04796 0.0
C368 C 0.52131 0.98792 0.05523 0.0
C369 C 0.51865 0.96635 0.01753 0.0
C370 C 0.51086 1.01287 0.05004 0.0
C371 C 0.49939 1.01691 0.00674 0.0
C372 C 0.49435 0.99501 0.96921 0.0
C373 C 0.50309 0.97002 0.97464 0.0
C374 C 0.44087 0.07339 0.96083 0.0
C375 C 0.47566 0.0946 0.99062 0.0
C376 C 0.4487 0.04843 0.96609 0.0
C377 C 0.49319 0.04371 1.00064 0.0
C378 C 0.53091 0.06486 0.02923 0.0
C379 C 0.52176 0.09008 0.0245 0.0
H380 H 0.4718 0.10684 0.52847 0.0
H381 H 0.65117 0.06795 0.44854 0.0
H382 H 0.42913 0.06553 0.53909 0.0
H383 H 0.60698 1.0265 0.45665 0.0
H384 H 0.55347 0.95795 0.51249 0.0
H385 H 0.59758 1.00046 0.50727 0.0
H386 H 0.37475 1.02633 0.50547 0.0
H387 H 0.33209 0.98503 0.51319 0.0
C388 C 0.50075 0.08933 0.51207 0.0
C389 C 0.56439 0.09052 0.48748 0.0
C390 C 0.47662 0.06557 0.5182 0.0
C391 C 0.51497 0.04245 0.49913 0.0
C392 C 0.57701 0.04378 0.47296 0.0
C393 C 0.60167 0.06752 0.46758 0.0
C394 C 0.51446 0.97297 0.51173 0.0
C395 C 0.43951 0.96816 0.51333 0.0
C396 C 0.5394 0.99726 0.5082 0.0
C397 C 0.48975 1.01702 0.50566 0.0
C398 C 0.41496 1.01204 0.50813 0.0
C399 C 0.39039 0.9881 0.51223 0.0
H400 H 0.09846 0.32818 0.08266 0.0
H401 H 0.19117 0.33256 0.95513 0.0
H402 H 0.19263 0.2969 0.08989 0.0
H403 H 0.2844 0.3013 0.96211 0.0
H404 H 0.36039 0.21887 0.96226 0.0
H405 H 0.27405 0.25299 0.96074 0.0
H406 H 0.33796 0.29386 0.09677 0.0
H407 H 0.42634 0.2594 0.09812 0.0
C408 C 0.13888 0.32243 0.05622 0.0
C409 C 0.13726 0.3326 0.01814 0.0
C410 C 0.19308 0.30475 0.06057 0.0
C411 C 0.24577 0.29664 0.02653 0.0
C412 C 0.24427 0.30706 0.98873 0.0
C413 C 0.19089 0.32493 0.98471 0.0
C414 C 0.35651 0.23516 0.99187 0.0
C415 C 0.40031 0.2365 0.03031 0.0
C416 C 0.30713 0.25476 0.99088 0.0
C417 C 0.29937 0.27614 0.02853 0.0
C418 C 0.34276 0.27754 0.0673 0.0
C419 C 0.39349 0.25797 0.068 0.0
H420 H 0.70222 0.85489 0.02438 0.0
H421 H 0.53531 0.79611 0.99187 0.0
H422 H 0.79346 0.82214 0.02651 0.0
H423 H 0.62601 0.7633 0.99704 0.0
H424 H 0.80328 0.72477 0.07178 0.0
H425 H 0.71121 0.75608 0.06366 0.0
H426 H 0.84825 0.7802 0.96747 0.0
H427 H 0.93886 0.74747 0.97357 0.0
C428 C 0.68537 0.8349 0.0166 0.0
C429 C 0.61224 0.82798 0.00608 0.0
C430 C 0.73746 0.81617 0.01843 0.0
C431 C 0.71706 0.79012 0.01126 0.0
C432 C 0.64331 0.78324 1.0024 0.0
C433 C 0.59146 0.80199 0.99956 0.0
C434 C 0.81282 0.73616 0.04788 0.0
C435 C 0.87724 0.7331 0.02233 0.0
C436 C 0.76039 0.75427 0.04356 0.0
C437 C 0.77222 0.77039 0.01461 0.0
C438 C 0.83768 0.76793 0.98994 0.0
C439 C 0.8895 0.74928 0.99347 0.0
H440 H 0.17023 0.73356 0.58349 0.0
H441 H 0.07481 0.73684 0.45592 0.0
H442 H 0.2597 0.76602 0.57763 0.0
H443 H 0.16784 0.76795 0.44763 0.0
H444 H 0.30357 0.84028 0.46038 0.0
H445 H 0.21197 0.80874 0.46727 0.0
H446 H 0.36314 0.77661 0.54716 0.0
H447 H 0.45136 0.81018 0.54387 0.0
C448 C 0.16899 0.74115 0.55386 0.0
C449 C 0.11517 0.73286 0.52037 0.0
C450 C 0.22111 0.75964 0.55008 0.0
C451 C 0.22238 0.76994 0.51198 0.0
C452 C 0.16852 0.76121 0.47811 0.0
C453 C 0.1151 0.74317 0.48257 0.0
C454 C 0.31651 0.82675 0.48012 0.0
C455 C 0.384 0.82813 0.50247 0.0
C456 C 0.26426 0.80819 0.48346 0.0
C457 C 0.27889 0.78975 0.50798 0.0
C458 C 0.348 0.79071 0.52904 0.0
C459 C 0.39939 0.80983 0.52677 0.0
H460 H 0.94167 0.32339 0.57535 0.0
H461 H 0.85911 0.32773 0.44514 0.0
H462 H 0.84816 0.29135 0.57867 0.0
H463 H 0.76803 0.29484 0.44688 0.0
H464 H 0.57025 0.25135 0.47692 0.0
H465 H 0.65979 0.28531 0.47751 0.0
H466 H 0.81002 0.24901 0.55137 0.0
H467 H 0.71824 0.21652 0.55359 0.0
C468 C 0.90402 0.31718 0.54715 0.0
C469 C 0.90767 0.32801 0.51 0.0
C470 C 0.8504 0.29868 0.54883 0.0
C471 C 0.79981 0.29022 0.51299 0.0
C472 C 0.80449 0.30104 0.47564 0.0
C473 C 0.85732 0.31978 0.47435 0.0
C474 C 0.62232 0.25082 0.49348 0.0
C475 C 0.63755 0.23108 0.51467 0.0
C476 C 0.67421 0.27016 0.49349 0.0
C477 C 0.74316 0.27005 0.51418 0.0
C478 C 0.75767 0.25023 0.53563 0.0
C479 C 0.7053 0.23125 0.53632 0.0
H480 H 0.15841 0.37328 0.14192 0.0
H481 H 0.01394 0.43884 0.16681 0.0
H482 H 0.12984 0.36727 0.21652 0.0
H483 H 0.98742 0.43368 0.24212 0.0
H484 H 0.88876 0.40078 0.35138 0.0
H485 H 0.92006 0.40556 0.27606 0.0
H486 H 0.14204 0.38357 0.29513 0.0
H487 H 0.11044 0.37761 0.36829 0.0
C488 C 0.12275 0.387 0.16411 0.0
C489 C 0.08875 0.4066 0.14884 0.0
C490 C 0.10576 0.38347 0.20677 0.0
C491 C 0.05518 0.39974 0.2352 0.0
C492 C 0.02485 0.42033 0.22074 0.0
C493 C 0.04108 0.4236 0.17794 0.0
C494 C 0.94378 0.39656 0.33904 0.0
C495 C 0.99689 0.38894 0.3661 0.0
C496 C 0.96213 0.39961 0.29613 0.0
C497 C 0.03399 0.39524 0.27962 0.0
C498 C 0.08613 0.38688 0.30628 0.0
C499 C 0.0678 0.38363 0.34866 0.0
H500 H 0.87212 0.63563 0.16259 0.0
H501 H 0.02753 0.69804 0.18003 0.0
H502 H 0.90461 0.63039 0.2374 0.0
H503 H 0.05713 0.69421 0.25579 0.0
H504 H 0.14511 0.66887 0.37527 0.0
H505 H 0.11808 0.66963 0.29699 0.0
H506 H 0.89486 0.64781 0.31405 0.0
H507 H 0.92271 0.64539 0.38972 0.0
C508 C 0.9115 0.64874 0.1832 0.0
C509 C 0.94664 0.66742 0.16609 0.0
C510 C 0.93058 0.64576 0.22603 0.0
C511 C 0.98412 0.66179 0.25294 0.0
C512 C 0.01723 0.68104 0.23592 0.0
C513 C 0.99932 0.68359 0.19283 0.0
C514 C 0.09082 0.66376 0.3618 0.0
C515 C 0.03632 0.6572 0.38901 0.0
C516 C 0.07484 0.6645 0.31711 0.0
C517 C 1.0038 0.65903 0.29899 0.0
C518 C 0.95035 0.65176 0.32606 0.0
C519 C 0.96649 0.65062 0.37006 0.0
H520 H 0.84393 0.67107 0.87591 0.0
H521 H 0.06329 0.64505 0.89056 0.0
H522 H 0.87406 0.67465 0.79972 0.0
H523 H 0.09438 0.65023 0.81705 0.0
H524 H 0.11699 0.64089 0.66585 0.0
H525 H 0.08502 0.63488 0.73993 0.0
H526 H 0.93836 0.70008 0.76158 0.0
H527 H 0.96738 0.70476 0.68632 0.0
C528 C 0.89824 0.66602 0.86291 0.0
C529 C 0.95084 0.65776 0.8895 0.0
C530 C 0.91604 0.6684 0.81946 0.0
C531 C 0.98715 0.66296 0.80202 0.0
C532 C 0.03884 0.65419 0.82851 0.0
C533 C 0.02082 0.65139 0.87123 0.0
C534 C 0.07929 0.65423 0.68706 0.0
C535 C 0.04529 0.67345 0.6708 0.0
C536 C 0.06046 0.65078 0.72952 0.0
C537 C 0.00831 0.66685 0.757 0.0
C538 C 0.97707 0.68685 0.74118 0.0
C539 C 0.99471 0.68988 0.69839 0.0
H540 H 0.88422 0.36997 0.64215 0.0
H541 H 0.04591 0.43074 0.66211 0.0
H542 H 0.90933 0.3655 0.7187 0.0
H543 H 0.07024 0.42659 0.73822 0.0
H544 H 0.15779 0.39364 0.8503 0.0
H545 H 0.12869 0.39559 0.77289 0.0
H546 H 0.89965 0.38755 0.79875 0.0
H547 H 0.92839 0.38498 0.87496 0.0
C548 C 0.92361 0.3828 0.66331 0.0
C549 C 0.96312 0.40067 0.64624 0.0
C550 C 0.93852 0.38013 0.70697 0.0
C551 C 0.99299 0.39534 0.73421 0.0
C552 C 0.02957 0.41406 0.71772 0.0
C553 C 0.0149 0.41666 0.6743 0.0
C554 C 0.10144 0.39195 0.83919 0.0
C555 C 0.04559 0.3894 0.86902 0.0
C556 C 0.0846 0.3933 0.79502 0.0
C557 C 0.01164 0.39201 0.77981 0.0
C558 C 0.9563 0.38846 0.80917 0.0
C559 C 0.97301 0.38719 0.85312 0.0
H560 H 0.63715 0.87501 0.14066 0.0
H561 H 0.45815 0.9284 0.1513 0.0
H562 H 0.6109 0.87108 0.2173 0.0
H563 H 0.43263 0.92481 0.22747 0.0
H564 H 0.35438 0.89125 0.34153 0.0
H565 H 0.38315 0.89285 0.26388 0.0
H566 H 0.61298 0.8955 0.2961 0.0
H567 H 0.58496 0.89326 0.37224 0.0
C568 C 0.59348 0.88634 0.15978 0.0
C569 C 0.54968 0.90195 0.1401 0.0
C570 C 0.57797 0.88398 0.20345 0.0
C571 C 0.51866 0.89727 0.22809 0.0
C572 C 0.47726 0.91375 0.20896 0.0
C573 C 0.49255 0.91604 0.16552 0.0
C574 C 0.41089 0.89192 0.33177 0.0
C575 C 0.46708 0.89238 0.36325 0.0
C576 C 0.42748 0.89302 0.28749 0.0
C577 C 0.50049 0.89447 0.27396 0.0
C578 C 0.55636 0.89417 0.30517 0.0
C579 C 0.53993 0.89313 0.34913 0.0
H580 H 0.4776 0.20928 0.17814 0.0
H581 H 0.42866 0.12781 0.13444 0.0
H582 H 0.51315 0.20471 0.25303 0.0
H583 H 0.46665 0.1227 0.20826 0.0
H584 H 0.47814 0.12759 0.3594 0.0
H585 H 0.43965 0.13137 0.28556 0.0
H586 H 0.61127 0.18726 0.28793 0.0
H587 H 0.64792 0.18423 0.36381 0.0
C588 C 0.47202 0.19058 0.18531 0.0
C589 C 0.44785 0.16907 0.15142 0.0
C590 C 0.49415 0.18777 0.22771 0.0
C591 C 0.49383 0.16326 0.23668 0.0
C592 C 0.46686 0.14194 0.20299 0.0
C593 C 0.44415 0.14484 0.16082 0.0
C594 C 0.50853 0.14044 0.34396 0.0
C595 C 0.56591 0.15573 0.36755 0.0
C596 C 0.48645 0.14255 0.30137 0.0
C597 C 0.52152 0.15988 0.2808 0.0
C598 C 0.58189 0.17414 0.30323 0.0
C599 C 0.60394 0.17207 0.34628 0.0
H600 H 0.60463 0.15293 0.87656 0.0
H601 H 0.37811 0.16836 0.8545 0.0
H602 H 0.63155 0.15141 0.7982 0.0
H603 H 0.4057 0.16715 0.77564 0.0
H604 H 0.46548 0.13623 0.62757 0.0
H605 H 0.44206 0.1361 0.70558 0.0
H606 H 0.63938 0.18021 0.74775 0.0
H607 H 0.66356 0.18013 0.66874 0.0
C608 C 0.56038 0.15605 0.85503 0.0
C609 C 0.48901 0.16082 0.8719 0.0
C610 C 0.57616 0.15533 0.81009 0.0
C611 C 0.52101 0.1593 0.78078 0.0
C612 C 0.44935 0.16377 0.79737 0.0
C613 C 0.43346 0.1645 0.84251 0.0
C614 C 0.50422 0.14589 0.65336 0.0
C615 C 0.56614 0.15847 0.64205 0.0
C616 C 0.49038 0.14592 0.69817 0.0
C617 C 0.53808 0.1585 0.73294 0.0
C618 C 0.60161 0.17029 0.72159 0.0
C619 C 0.61562 0.17023 0.67644 0.0
H620 H 0.50125 0.93825 0.65909 0.0
H621 H 0.37846 0.86697 0.63138 0.0
H622 H 0.53198 0.93383 0.73448 0.0
H623 H 0.41218 0.86156 0.70564 0.0
H624 H 0.42679 0.87162 0.85666 0.0
H625 H 0.39532 0.87599 0.7826 0.0
H626 H 0.60631 0.9103 0.77258 0.0
H627 H 0.6364 0.90743 0.84947 0.0
C628 C 0.47989 0.92183 0.66961 0.0
C629 C 0.43645 0.90317 0.6399 0.0
C630 C 0.4987 0.919 0.71243 0.0
C631 C 0.47567 0.89715 0.7262 0.0
C632 C 0.43025 0.87886 0.69671 0.0
C633 C 0.41028 0.88199 0.65419 0.0
C634 C 0.46705 0.88009 0.8389 0.0
C635 C 0.53402 0.88952 0.85948 0.0
C636 C 0.44897 0.88235 0.79585 0.0
C637 C 0.4978 0.89365 0.77133 0.0
C638 C 0.56654 0.90199 0.79086 0.0
C639 C 0.58442 0.90002 0.83465 0.0
loop_
_geom_bond_atom_site_label_1
_geom_bond_atom_site_label_2
_geom_bond_distance
_geom_bond_site_symmetry_2
_ccdc_geom_bond_type
Tb0 O3 2.453 1_655 S
Tb0 O4 2.596 1_656 S
Tb0 O5 2.374 1_656 S
Tb0 O13 2.343 1_656 S
Tb0 O15 2.353 1_655 S
Tb0 O17 2.427 . S
Tb0 O18 2.513 1_556 S
C1 O5 1.251 . S
C1 O7 1.263 . S
Tb2 O4 2.343 . S
Tb2 O7 2.353 . S
Tb2 O10 2.427 . S
Tb2 O11 2.513 1_554 S
Tb2 O12 2.453 . S
Tb2 O13 2.596 . S
Tb2 O14 2.374 1_554 S
O3 Tb0 2.453 1_455 S
O3 C19 1.245 . S
O4 Tb0 2.596 1_454 S
O4 Tb2 2.343 . S
O4 C19 1.259 1_554 S
O5 Tb0 2.374 1_454 S
O5 C1 1.251 . S
C6 O10 1.275 . S
C6 O11 1.246 1_554 S
O7 C1 1.263 . S
O7 Tb2 2.353 . S
C8 O12 1.245 . S
C8 O13 1.259 . S
C9 O14 1.250 . S
C9 O15 1.263 . S
O10 Tb2 2.427 . S
O10 C6 1.275 . S
O11 Tb2 2.513 1_556 S
O11 C6 1.246 1_556 S
O12 Tb2 2.453 . S
O12 C8 1.245 . S
O13 Tb0 2.343 1_454 S
O13 Tb2 2.596 . S
O13 C8 1.259 . S
O14 Tb2 2.374 1_556 S
O14 C9 1.250 . S
O15 Tb0 2.353 1_455 S
O15 C9 1.263 . S
C16 O17 1.256 1_554 S
C16 O18 1.267 . S
O17 Tb0 2.427 . S
O17 C16 1.256 1_556 S
O18 Tb0 2.513 1_554 S
O18 C16 1.267 . S
C19 O3 1.245 . S
C19 O4 1.259 1_556 S
Tb20 O23 2.453 1_554 S
Tb20 O24 2.596 . S
Tb20 O25 2.374 . S
Tb20 O33 2.343 . S
Tb20 O35 2.353 1_554 S
Tb20 O37 2.427 1_554 S
Tb20 O38 2.513 . S
C21 O25 1.251 . S
C21 O27 1.263 . S
Tb22 O24 2.343 1_455 S
Tb22 O27 2.353 1_455 S
Tb22 O30 2.427 . S
Tb22 O31 2.513 1_554 S
Tb22 O32 2.453 1_455 S
Tb22 O33 2.596 1_455 S
Tb22 O34 2.374 1_454 S
O23 Tb20 2.453 1_556 S
O23 C39 1.245 1_556 S
O24 Tb20 2.596 . S
O24 Tb22 2.343 1_655 S
O24 C39 1.259 . S
O25 Tb20 2.374 . S
O25 C21 1.251 . S
C26 O30 1.275 . S
C26 O31 1.246 1_554 S
O27 C21 1.263 . S
O27 Tb22 2.353 1_655 S
C28 O32 1.245 . S
C28 O33 1.259 . S
C29 O34 1.250 . S
C29 O35 1.263 . S
O30 Tb22 2.427 . S
O30 C26 1.275 . S
O31 Tb22 2.513 1_556 S
O31 C26 1.246 1_556 S
O32 Tb22 2.453 1_655 S
O32 C28 1.245 . S
O33 Tb20 2.343 . S
O33 Tb22 2.596 1_655 S
O33 C28 1.259 . S
O34 Tb22 2.374 1_656 S
O34 C29 1.250 . S
O35 Tb20 2.353 1_556 S
O35 C29 1.263 . S
C36 O37 1.275 1_554 S
C36 O38 1.246 . S
O37 Tb20 2.427 1_556 S
O37 C36 1.275 1_556 S
O38 Tb20 2.513 . S
O38 C36 1.246 . S
C39 O23 1.245 1_554 S
C39 O24 1.259 . S
Tb40 O43 2.453 1_655 S
Tb40 O44 2.596 1_655 S
Tb40 O45 2.374 1_655 S
Tb40 O53 2.343 1_655 S
Tb40 O55 2.353 1_655 S
Tb40 O57 2.427 . S
Tb40 O58 2.513 . S
C41 O45 1.251 . S
C41 O47 1.263 . S
Tb42 O44 2.343 . S
Tb42 O47 2.353 . S
Tb42 O50 2.427 . S
Tb42 O51 2.513 . S
Tb42 O52 2.453 . S
Tb42 O53 2.596 . S
Tb42 O54 2.374 . S
O43 Tb40 2.453 1_455 S
O43 C59 1.245 . S
O44 Tb40 2.596 1_455 S
O44 Tb42 2.343 . S
O44 C59 1.259 . S
O45 Tb40 2.374 1_455 S
O45 C41 1.251 . S
C46 O50 1.275 . S
C46 O51 1.246 . S
O47 C41 1.263 . S
O47 Tb42 2.353 . S
C48 O52 1.245 . S
C48 O53 1.259 . S
C49 O54 1.250 . S
C49 O55 1.263 . S
O50 Tb42 2.427 . S
O50 C46 1.275 . S
O51 Tb42 2.513 . S
O51 C46 1.246 . S
O52 Tb42 2.453 . S
O52 C48 1.245 . S
O53 Tb40 2.343 1_455 S
O53 Tb42 2.596 . S
O53 C48 1.259 . S
O54 Tb42 2.374 . S
O54 C49 1.250 . S
O55 Tb40 2.353 1_455 S
O55 C49 1.263 . S
C56 O57 1.275 . S
C56 O58 1.246 . S
O57 Tb40 2.427 . S
O57 C56 1.275 . S
O58 Tb40 2.513 . S
O58 C56 1.246 . S
C59 O43 1.245 . S
C59 O44 1.259 . S
Tb60 O63 2.453 . S
Tb60 O64 2.596 . S
Tb60 O65 2.374 . S
Tb60 O73 2.343 . S
Tb60 O75 2.353 . S
Tb60 O77 2.427 . S
Tb60 O78 2.513 . S
C61 O65 1.251 . S
C61 O67 1.263 . S
Tb62 O64 2.343 1_455 S
Tb62 O67 2.353 1_455 S
Tb62 O70 2.427 . S
Tb62 O71 2.513 . S
Tb62 O72 2.453 1_455 S
Tb62 O73 2.596 1_455 S
Tb62 O74 2.374 1_455 S
O63 Tb60 2.453 . S
O63 C79 1.245 . S
O64 Tb60 2.596 . S
O64 Tb62 2.343 1_655 S
O64 C79 1.259 . S
O65 Tb60 2.374 . S
O65 C61 1.251 . S
C66 O70 1.275 . S
C66 O71 1.246 . S
O67 C61 1.263 . S
O67 Tb62 2.353 1_655 S
C68 O72 1.245 . S
C68 O73 1.259 . S
C69 O74 1.250 . S
C69 O75 1.263 . S
O70 Tb62 2.427 . S
O70 C66 1.275 . S
O71 Tb62 2.513 . S
O71 C66 1.246 . S
O72 Tb62 2.453 1_655 S
O72 C68 1.245 . S
O73 Tb60 2.343 . S
O73 Tb62 2.596 1_655 S
O73 C68 1.259 . S
O74 Tb62 2.374 1_655 S
O74 C69 1.250 . S
O75 Tb60 2.353 . S
O75 C69 1.263 . S
C76 O77 1.275 . S
C76 O78 1.246 . S
O77 Tb60 2.427 . S
O77 C76 1.275 . S
O78 Tb60 2.513 . S
O78 C76 1.246 . S
C79 O63 1.245 . S
C79 O64 1.259 . S
Tb80 O83 2.453 . S
Tb80 O84 2.596 1_556 S
Tb80 O85 2.374 1_556 S
Tb80 O93 2.343 1_556 S
Tb80 O95 2.353 . S
Tb80 O97 2.427 . S
Tb80 O98 2.513 1_556 S
C81 O85 1.251 . S
C81 O87 1.263 . S
Tb82 O84 2.343 . S
Tb82 O87 2.353 . S
Tb82 O90 2.427 . S
Tb82 O91 2.513 1_554 S
Tb82 O92 2.453 . S
Tb82 O93 2.596 . S
Tb82 O94 2.374 1_554 S
O83 Tb80 2.453 . S
O83 C99 1.245 . S
O84 Tb80 2.596 1_554 S
O84 Tb82 2.343 . S
O84 C99 1.259 1_554 S
O85 Tb80 2.374 1_554 S
O85 C81 1.251 . S
C86 O90 1.275 . S
C86 O91 1.246 1_554 S
O87 C81 1.263 . S
O87 Tb82 2.353 . S
C88 O92 1.245 . S
C88 O93 1.259 . S
C89 O94 1.250 . S
C89 O95 1.263 . S
O90 Tb82 2.427 . S
O90 C86 1.275 . S
O91 Tb82 2.513 1_556 S
O91 C86 1.246 1_556 S
O92 Tb82 2.453 . S
O92 C88 1.245 . S
O93 Tb80 2.343 1_554 S
O93 Tb82 2.596 . S
O93 C88 1.259 . S
O94 Tb82 2.374 1_556 S
O94 C89 1.250 . S
O95 Tb80 2.353 . S
O95 C89 1.263 . S
C96 O97 1.256 1_554 S
C96 O98 1.267 . S
O97 Tb80 2.427 . S
O97 C96 1.256 1_556 S
O98 Tb80 2.513 1_554 S
O98 C96 1.267 . S
C99 O83 1.245 . S
C99 O84 1.259 1_556 S
Tb100 O103 2.453 1_554 S
Tb100 O104 2.596 . S
Tb100 O105 2.374 . S
Tb100 O113 2.343 . S
Tb100 O115 2.353 1_554 S
Tb100 O117 2.427 1_554 S
Tb100 O118 2.513 . S
C101 O105 1.251 . S
C101 O107 1.263 . S
Tb102 O104 2.343 . S
Tb102 O107 2.353 . S
Tb102 O110 2.427 . S
Tb102 O111 2.513 1_554 S
Tb102 O112 2.453 . S
Tb102 O113 2.596 . S
Tb102 O114 2.374 1_554 S
O103 Tb100 2.453 1_556 S
O103 C119 1.245 1_556 S
O104 Tb100 2.596 . S
O104 Tb102 2.343 . S
O104 C119 1.259 . S
O105 Tb100 2.374 . S
O105 C101 1.251 . S
C106 O110 1.275 . S
C106 O111 1.246 1_554 S
O107 C101 1.263 . S
O107 Tb102 2.353 . S
C108 O112 1.245 . S
C108 O113 1.259 . S
C109 O114 1.250 . S
C109 O115 1.263 . S
O110 Tb102 2.427 . S
O110 C106 1.275 . S
O111 Tb102 2.513 1_556 S
O111 C106 1.246 1_556 S
O112 Tb102 2.453 . S
O112 C108 1.245 . S
O113 Tb100 2.343 . S
O113 Tb102 2.596 . S
O113 C108 1.259 . S
O114 Tb102 2.374 1_556 S
O114 C109 1.250 . S
O115 Tb100 2.353 1_556 S
O115 C109 1.263 . S
C116 O117 1.275 1_554 S
C116 O118 1.246 . S
O117 Tb100 2.427 1_556 S
O117 C116 1.275 1_556 S
O118 Tb100 2.513 . S
O118 C116 1.246 . S
C119 O103 1.245 1_554 S
C119 O104 1.259 . S
Tb120 O123 2.453 . S
Tb120 O124 2.596 . S
Tb120 O125 2.374 . S
Tb120 O133 2.343 . S
Tb120 O135 2.353 . S
Tb120 O137 2.427 . S
Tb120 O138 2.513 . S
C121 O125 1.251 . S
C121 O127 1.263 . S
Tb122 O124 2.343 . S
Tb122 O127 2.353 . S
Tb122 O130 2.427 . S
Tb122 O131 2.513 . S
Tb122 O132 2.453 . S
Tb122 O133 2.596 . S
Tb122 O134 2.374 . S
O123 Tb120 2.453 . S
O123 C139 1.245 . S
O124 Tb120 2.596 . S
O124 Tb122 2.343 . S
O124 C139 1.259 . S
O125 Tb120 2.374 . S
O125 C121 1.251 . S
C126 O130 1.275 . S
C126 O131 1.246 . S
O127 C121 1.263 . S
O127 Tb122 2.353 . S
C128 O132 1.245 . S
C128 O133 1.259 . S
C129 O134 1.250 . S
C129 O135 1.263 . S
O130 Tb122 2.427 . S
O130 C126 1.275 . S
O131 Tb122 2.513 . S
O131 C126 1.246 . S
O132 Tb122 2.453 . S
O132 C128 1.245 . S
O133 Tb120 2.343 . S
O133 Tb122 2.596 . S
O133 C128 1.259 . S
O134 Tb122 2.374 . S
O134 C129 1.250 . S
O135 Tb120 2.353 . S
O135 C129 1.263 . S
C136 O137 1.275 . S
C136 O138 1.246 . S
O137 Tb120 2.427 . S
O137 C136 1.275 . S
O138 Tb120 2.513 . S
O138 C136 1.246 . S
C139 O123 1.245 . S
C139 O124 1.259 . S
Tb140 O143 2.453 . S
Tb140 O144 2.596 . S
Tb140 O145 2.374 . S
Tb140 O153 2.343 . S
Tb140 O155 2.353 . S
Tb140 O157 2.427 . S
Tb140 O158 2.513 . S
C141 O145 1.251 . S
C141 O147 1.263 . S
Tb142 O144 2.343 . S
Tb142 O147 2.353 . S
Tb142 O150 2.427 . S
Tb142 O151 2.513 . S
Tb142 O152 2.453 . S
Tb142 O153 2.596 . S
Tb142 O154 2.374 . S
O143 Tb140 2.453 . S
O143 C159 1.245 . S
O144 Tb140 2.596 . S
O144 Tb142 2.343 . S
O144 C159 1.259 . S
O145 Tb140 2.374 . S
O145 C141 1.251 . S
C146 O150 1.275 . S
C146 O151 1.246 . S
O147 C141 1.263 . S
O147 Tb142 2.353 . S
C148 O152 1.245 . S
C148 O153 1.259 . S
C149 O154 1.250 . S
C149 O155 1.263 . S
O150 Tb142 2.427 . S
O150 C146 1.275 . S
O151 Tb142 2.513 . S
O151 C146 1.246 . S
O152 Tb142 2.453 . S
O152 C148 1.245 . S
O153 Tb140 2.343 . S
O153 Tb142 2.596 . S
O153 C148 1.259 . S
O154 Tb142 2.374 . S
O154 C149 1.250 . S
O155 Tb140 2.353 . S
O155 C149 1.263 . S
C156 O157 1.275 . S
C156 O158 1.246 . S
O157 Tb140 2.427 . S
O157 C156 1.275 . S
O158 Tb140 2.513 . S
O158 C156 1.246 . S
C159 O143 1.245 . S
C159 O144 1.259 . S
H160 C168 0.950 . S
H161 C173 0.950 . S
H162 C170 0.950 . S
H163 C172 0.950 . S
H164 C174 0.950 . S
H165 C176 0.950 . S
H166 C178 0.950 . S
H167 C179 0.950 . S
C168 H160 0.950 . S
C168 C169 1.386 1_556 S
C168 C170 1.391 . S
C169 C168 1.386 1_554 S
C169 C173 1.393 . S
C170 H162 0.950 . S
C170 C168 1.391 . S
C170 C171 1.400 1_556 S
C171 C170 1.400 1_554 S
C171 C172 1.398 . S
C171 C177 1.491 . S
C172 H163 0.950 . S
C172 C171 1.398 . S
C172 C173 1.391 . S
C173 H161 0.950 . S
C173 C169 1.393 . S
C173 C172 1.391 . S
C174 H164 0.950 . S
C174 C175 1.383 1_554 S
C174 C176 1.391 . S
C175 C174 1.383 1_556 S
C175 C179 1.395 . S
C176 H165 0.950 . S
C176 C174 1.391 . S
C176 C177 1.400 . S
C177 C171 1.491 . S
C177 C176 1.400 . S
C177 C178 1.398 1_554 S
C178 H166 0.950 . S
C178 C177 1.398 1_556 S
C178 C179 1.391 . S
C179 H167 0.950 . S
C179 C175 1.395 . S
C179 C178 1.391 . S
H180 C188 0.950 . S
H181 C193 0.950 . S
H182 C190 0.950 . S
H183 C192 0.950 . S
H184 C194 0.950 . S
H185 C196 0.950 . S
H186 C198 0.950 . S
H187 C199 0.950 . S
C188 H180 0.950 . S
C188 C189 1.386 1_556 S
C188 C190 1.391 . S
C189 C188 1.386 1_554 S
C189 C193 1.393 . S
C190 H182 0.950 . S
C190 C188 1.391 . S
C190 C191 1.400 1_556 S
C191 C190 1.400 1_554 S
C191 C192 1.398 . S
C191 C197 1.491 . S
C192 H183 0.950 . S
C192 C191 1.398 . S
C192 C193 1.391 . S
C193 H181 0.950 . S
C193 C189 1.393 . S
C193 C192 1.391 . S
C194 H184 0.950 . S
C194 C195 1.386 . S
C194 C196 1.391 . S
C195 C194 1.386 . S
C195 C199 1.393 1_554 S
C196 H185 0.950 . S
C196 C194 1.391 . S
C196 C197 1.400 . S
C197 C191 1.491 . S
C197 C196 1.400 . S
C197 C198 1.398 1_554 S
C198 H186 0.950 . S
C198 C197 1.398 1_556 S
C198 C199 1.391 . S
C199 H187 0.950 . S
C199 C195 1.393 1_556 S
C199 C198 1.391 . S
H200 C208 0.950 . S
H201 C213 0.950 . S
H202 C210 0.950 . S
H203 C212 0.950 . S
H204 C214 0.950 . S
H205 C216 0.950 . S
H206 C218 0.950 . S
H207 C219 0.950 . S
C208 H200 0.950 . S
C208 C209 1.386 . S
C208 C210 1.391 . S
C209 C208 1.386 . S
C209 C213 1.393 . S
C210 H202 0.950 . S
C210 C208 1.391 . S
C210 C211 1.400 . S
C211 C210 1.400 . S
C211 C212 1.398 . S
C211 C217 1.491 . S
C212 H203 0.950 . S
C212 C211 1.398 . S
C212 C213 1.391 . S
C213 H201 0.950 . S
C213 C209 1.393 . S
C213 C212 1.391 . S
C214 H204 0.950 . S
C214 C215 1.386 . S
C214 C216 1.391 . S
C215 C214 1.386 . S
C215 C219 1.393 . S
C216 H205 0.950 . S
C216 C214 1.391 . S
C216 C217 1.400 . S
C217 C211 1.491 . S
C217 C216 1.400 . S
C217 C218 1.398 . S
C218 H206 0.950 . S
C218 C217 1.398 . S
C218 C219 1.391 . S
C219 H207 0.950 . S
C219 C215 1.393 . S
C219 C218 1.391 . S
H220 C228 0.950 . S
H221 C233 0.950 . S
H222 C230 0.950 . S
H223 C232 0.950 . S
H224 C234 0.950 . S
H225 C236 0.950 . S
H226 C238 0.950 . S
H227 C239 0.950 . S
C228 H220 0.950 . S
C228 C229 1.386 . S
C228 C230 1.391 . S
C229 C228 1.386 . S
C229 C233 1.393 . S
C230 H222 0.950 . S
C230 C228 1.391 . S
C230 C231 1.400 . S
C231 C230 1.400 . S
C231 C232 1.398 . S
C231 C237 1.491 . S
C232 H223 0.950 . S
C232 C231 1.398 . S
C232 C233 1.391 . S
C233 H221 0.950 . S
C233 C229 1.393 . S
C233 C232 1.391 . S
C234 H224 0.950 . S
C234 C235 1.386 . S
C234 C236 1.391 . S
C235 C234 1.386 . S
C235 C239 1.393 . S
C236 H225 0.950 . S
C236 C234 1.391 . S
C236 C237 1.400 . S
C237 C231 1.491 . S
C237 C236 1.400 . S
C237 C238 1.398 . S
C238 H226 0.950 . S
C238 C237 1.398 . S
C238 C239 1.391 . S
C239 H227 0.950 . S
C239 C235 1.393 . S
C239 C238 1.391 . S
H240 C248 0.950 . S
H241 C253 0.950 . S
H242 C250 0.950 1_455 S
H243 C252 0.950 . S
H244 C254 0.950 . S
H245 C256 0.950 . S
H246 C258 0.950 . S
H247 C259 0.950 . S
C248 H240 0.950 . S
C248 C249 1.386 1_556 S
C248 C250 1.391 . S
C249 C248 1.386 1_554 S
C249 C253 1.393 . S
C250 H242 0.950 1_655 S
C250 C248 1.391 . S
C250 C251 1.400 1_656 S
C251 C250 1.400 1_454 S
C251 C252 1.398 1_455 S
C251 C257 1.491 . S
C252 H243 0.950 . S
C252 C251 1.398 1_655 S
C252 C253 1.391 . S
C253 H241 0.950 . S
C253 C249 1.393 . S
C253 C252 1.391 . S
C254 H244 0.950 . S
C254 C255 1.386 . S
C254 C256 1.391 . S
C255 C254 1.386 . S
C255 C259 1.393 1_554 S
C256 H245 0.950 . S
C256 C254 1.391 . S
C256 C257 1.400 . S
C257 C251 1.491 . S
C257 C256 1.400 . S
C257 C258 1.398 1_554 S
C258 H246 0.950 . S
C258 C257 1.398 1_556 S
C258 C259 1.391 . S
C259 H247 0.950 . S
C259 C255 1.393 1_556 S
C259 C258 1.391 . S
H260 C268 0.950 . S
H261 C273 0.950 . S
H262 C270 0.950 . S
H263 C272 0.950 1_655 S
H264 C274 0.950 . S
H265 C276 0.950 . S
H266 C278 0.950 . S
H267 C279 0.950 . S
C268 H260 0.950 . S
C268 C269 1.386 1_556 S
C268 C270 1.391 . S
C269 C268 1.386 1_554 S
C269 C273 1.393 . S
C270 H262 0.950 . S
C270 C268 1.391 . S
C270 C271 1.400 1_456 S
C271 C270 1.400 1_654 S
C271 C272 1.398 1_655 S
C271 C277 1.491 . S
C272 H263 0.950 1_455 S
C272 C271 1.398 1_455 S
C272 C273 1.391 . S
C273 H261 0.950 . S
C273 C269 1.393 . S
C273 C272 1.391 . S
C274 H264 0.950 . S
C274 C275 1.386 . S
C274 C276 1.391 . S
C275 C274 1.386 . S
C275 C279 1.393 1_554 S
C276 H265 0.950 . S
C276 C274 1.391 . S
C276 C277 1.400 . S
C277 C271 1.491 . S
C277 C276 1.400 . S
C277 C278 1.398 1_554 S
C278 H266 0.950 . S
C278 C277 1.398 1_556 S
C278 C279 1.391 . S
C279 H267 0.950 . S
C279 C275 1.393 1_556 S
C279 C278 1.391 . S
H280 C288 0.950 . S
H281 C293 0.950 . S
H282 C290 0.950 . S
H283 C292 0.950 . S
H284 C294 0.950 . S
H285 C296 0.950 . S
H286 C298 0.950 1_455 S
H287 C299 0.950 . S
C288 H280 0.950 . S
C288 C289 1.386 . S
C288 C290 1.391 . S
C289 C288 1.386 . S
C289 C293 1.393 . S
C290 H282 0.950 . S
C290 C288 1.391 . S
C290 C291 1.400 . S
C291 C290 1.400 . S
C291 C292 1.398 . S
C291 C297 1.491 . S
C292 H283 0.950 . S
C292 C291 1.398 . S
C292 C293 1.391 . S
C293 H281 0.950 . S
C293 C289 1.393 . S
C293 C292 1.391 . S
C294 H284 0.950 . S
C294 C295 1.386 . S
C294 C296 1.391 . S
C295 C294 1.386 . S
C295 C299 1.393 . S
C296 H285 0.950 . S
C296 C294 1.391 . S
C296 C297 1.400 1_655 S
C297 C291 1.491 . S
C297 C296 1.400 1_455 S
C297 C298 1.398 1_455 S
C298 H286 0.950 1_655 S
C298 C297 1.398 1_655 S
C298 C299 1.391 . S
C299 H287 0.950 . S
C299 C295 1.393 . S
C299 C298 1.391 . S
H300 C308 0.950 . S
H301 C313 0.950 . S
H302 C310 0.950 . S
H303 C312 0.950 . S
H304 C314 0.950 . S
H305 C316 0.950 . S
H306 C318 0.950 1_655 S
H307 C319 0.950 . S
C308 H300 0.950 . S
C308 C309 1.386 . S
C308 C310 1.391 . S
C309 C308 1.386 . S
C309 C313 1.393 . S
C310 H302 0.950 . S
C310 C308 1.391 . S
C310 C311 1.400 . S
C311 C310 1.400 . S
C311 C312 1.398 . S
C311 C317 1.491 . S
C312 H303 0.950 . S
C312 C311 1.398 . S
C312 C313 1.391 . S
C313 H301 0.950 . S
C313 C309 1.393 . S
C313 C312 1.391 . S
C314 H304 0.950 . S
C314 C315 1.386 . S
C314 C316 1.391 . S
C315 C314 1.386 . S
C315 C319 1.393 . S
C316 H305 0.950 . S
C316 C314 1.391 . S
C316 C317 1.400 1_455 S
C317 C311 1.491 . S
C317 C316 1.400 1_655 S
C317 C318 1.398 1_655 S
C318 H306 0.950 1_455 S
C318 C317 1.398 1_455 S
C318 C319 1.391 . S
C319 H307 0.950 . S
C319 C315 1.393 . S
C319 C318 1.391 . S
H320 C328 0.950 . S
H321 C333 0.950 . S
H322 C330 0.950 . S
H323 C332 0.950 . S
H324 C334 0.950 . S
H325 C336 0.950 . S
H326 C338 0.950 . S
H327 C339 0.950 . S
C328 H320 0.950 . S
C328 C329 1.386 1_655 S
C328 C330 1.391 . S
C329 C328 1.386 1_455 S
C329 C333 1.393 1_554 S
C330 H322 0.950 . S
C330 C328 1.391 . S
C330 C331 1.400 1_655 S
C331 C330 1.400 1_455 S
C331 C332 1.398 1_554 S
C331 C337 1.491 1_455 S
C332 H323 0.950 . S
C332 C331 1.398 1_556 S
C332 C333 1.391 . S
C333 H321 0.950 . S
C333 C329 1.393 1_556 S
C333 C332 1.391 . S
C334 H324 0.950 . S
C334 C335 1.386 1_456 S
C334 C336 1.391 . S
C335 C334 1.386 1_654 S
C335 C339 1.393 . S
C336 H325 0.950 . S
C336 C334 1.391 . S
C336 C337 1.400 1_456 S
C337 C331 1.491 1_655 S
C337 C336 1.400 1_654 S
C337 C338 1.398 . S
C338 H326 0.950 . S
C338 C337 1.398 . S
C338 C339 1.391 . S
C339 H327 0.950 . S
C339 C335 1.393 . S
C339 C338 1.391 . S
H340 C348 0.950 . S
H341 C353 0.950 . S
H342 C350 0.950 . S
H343 C352 0.950 . S
H344 C354 0.950 . S
H345 C356 0.950 . S
H346 C358 0.950 . S
H347 C359 0.950 . S
C348 H340 0.950 . S
C348 C349 1.386 . S
C348 C350 1.391 . S
C349 C348 1.386 . S
C349 C353 1.393 1_455 S
C350 H342 0.950 . S
C350 C348 1.391 . S
C350 C351 1.400 . S
C351 C350 1.400 . S
C351 C352 1.398 1_455 S
C351 C357 1.491 1_455 S
C352 H343 0.950 . S
C352 C351 1.398 1_655 S
C352 C353 1.391 . S
C353 H341 0.950 . S
C353 C349 1.393 1_655 S
C353 C352 1.391 . S
C354 H344 0.950 . S
C354 C355 1.386 . S
C354 C356 1.391 . S
C355 C354 1.386 . S
C355 C359 1.393 1_655 S
C356 H345 0.950 . S
C356 C354 1.391 . S
C356 C357 1.400 . S
C357 C351 1.491 1_655 S
C357 C356 1.400 . S
C357 C358 1.398 1_655 S
C358 H346 0.950 . S
C358 C357 1.398 1_455 S
C358 C359 1.391 . S
C359 H347 0.950 . S
C359 C355 1.393 1_455 S
C359 C358 1.391 . S
H360 C368 0.950 . S
H361 C373 0.950 . S
H362 C370 0.950 . S
H363 C372 0.950 . S
H364 C374 0.950 . S
H365 C376 0.950 . S
H366 C378 0.950 . S
H367 C379 0.950 . S
C368 H360 0.950 . S
C368 C369 1.386 . S
C368 C370 1.391 . S
C369 C368 1.386 . S
C369 C373 1.393 1_554 S
C370 H362 0.950 . S
C370 C368 1.391 . S
C370 C371 1.400 . S
C371 C370 1.400 . S
C371 C372 1.398 1_554 S
C371 C377 1.491 1_565 S
C372 H363 0.950 . S
C372 C371 1.398 1_556 S
C372 C373 1.391 . S
C373 H361 0.950 . S
C373 C369 1.393 1_556 S
C373 C372 1.391 . S
C374 H364 0.950 . S
C374 C375 1.386 1_556 S
C374 C376 1.391 . S
C375 C374 1.386 1_554 S
C375 C379 1.393 . S
C376 H365 0.950 . S
C376 C374 1.391 . S
C376 C377 1.400 1_556 S
C377 C371 1.491 1_545 S
C377 C376 1.400 1_554 S
C377 C378 1.398 . S
C378 H366 0.950 . S
C378 C377 1.398 . S
C378 C379 1.391 . S
C379 H367 0.950 . S
C379 C375 1.393 . S
C379 C378 1.391 . S
H380 C388 0.950 . S
H381 C393 0.950 . S
H382 C390 0.950 . S
H383 C392 0.950 . S
H384 C394 0.950 . S
H385 C396 0.950 . S
H386 C398 0.950 . S
H387 C399 0.950 . S
C388 H380 0.950 . S
C388 C389 1.386 . S
C388 C390 1.391 . S
C389 C388 1.386 . S
C389 C393 1.393 . S
C390 H382 0.950 . S
C390 C388 1.391 . S
C390 C391 1.400 . S
C391 C390 1.400 . S
C391 C392 1.398 . S
C391 C397 1.491 1_545 S
C392 H383 0.950 . S
C392 C391 1.398 . S
C392 C393 1.391 . S
C393 H381 0.950 . S
C393 C389 1.393 . S
C393 C392 1.391 . S
C394 H384 0.950 . S
C394 C395 1.386 . S
C394 C396 1.391 . S
C395 C394 1.386 . S
C395 C399 1.393 . S
C396 H385 0.950 . S
C396 C394 1.391 . S
C396 C397 1.400 . S
C397 C391 1.491 1_565 S
C397 C396 1.400 . S
C397 C398 1.398 . S
C398 H386 0.950 . S
C398 C397 1.398 . S
C398 C399 1.391 . S
C399 H387 0.950 . S
C399 C395 1.393 . S
C399 C398 1.391 . S
H400 C408 0.950 . S
H401 C413 0.950 . S
H402 C410 0.950 . S
H403 C412 0.950 . S
H404 C414 0.950 . S
H405 C416 0.950 . S
H406 C418 0.950 . S
H407 C419 0.950 . S
C408 H400 0.950 . S
C408 C409 1.386 . S
C408 C410 1.391 . S
C409 C408 1.386 . S
C409 C413 1.393 1_554 S
C410 H402 0.950 . S
C410 C408 1.391 . S
C410 C411 1.400 . S
C411 C410 1.400 . S
C411 C412 1.398 1_554 S
C411 C417 1.491 . S
C412 H403 0.950 . S
C412 C411 1.398 1_556 S
C412 C413 1.391 . S
C413 H401 0.950 . S
C413 C409 1.393 1_556 S
C413 C412 1.391 . S
C414 H404 0.950 . S
C414 C415 1.386 1_556 S
C414 C416 1.391 . S
C415 C414 1.386 1_554 S
C415 C419 1.393 . S
C416 H405 0.950 . S
C416 C414 1.391 . S
C416 C417 1.400 1_556 S
C417 C411 1.491 . S
C417 C416 1.400 1_554 S
C417 C418 1.398 . S
C418 H406 0.950 . S
C418 C417 1.398 . S
C418 C419 1.391 . S
C419 H407 0.950 . S
C419 C415 1.393 . S
C419 C418 1.391 . S
H420 C428 0.950 . S
H421 C433 0.950 . S
H422 C430 0.950 . S
H423 C432 0.950 . S
H424 C434 0.950 . S
H425 C436 0.950 . S
H426 C438 0.950 . S
H427 C439 0.950 . S
C428 H420 0.950 . S
C428 C429 1.386 . S
C428 C430 1.391 . S
C429 C428 1.386 . S
C429 C433 1.393 1_554 S
C430 H422 0.950 . S
C430 C428 1.391 . S
C430 C431 1.400 . S
C431 C430 1.400 . S
C431 C432 1.398 1_554 S
C431 C437 1.491 . S
C432 H423 0.950 . S
C432 C431 1.398 1_556 S
C432 C433 1.391 . S
C433 H421 0.950 . S
C433 C429 1.393 1_556 S
C433 C432 1.391 . S
C434 H424 0.950 . S
C434 C435 1.386 1_556 S
C434 C436 1.391 . S
C435 C434 1.386 1_554 S
C435 C439 1.393 . S
C436 H425 0.950 . S
C436 C434 1.391 . S
C436 C437 1.400 1_556 S
C437 C431 1.491 . S
C437 C436 1.400 1_554 S
C437 C438 1.398 . S
C438 H426 0.950 . S
C438 C437 1.398 . S
C438 C439 1.391 . S
C439 H427 0.950 . S
C439 C435 1.393 . S
C439 C438 1.391 . S
H440 C448 0.950 . S
H441 C453 0.950 . S
H442 C450 0.950 . S
H443 C452 0.950 . S
H444 C454 0.950 . S
H445 C456 0.950 . S
H446 C458 0.950 . S
H447 C459 0.950 . S
C448 H440 0.950 . S
C448 C449 1.386 . S
C448 C450 1.391 . S
C449 C448 1.386 . S
C449 C453 1.393 . S
C450 H442 0.950 . S
C450 C448 1.391 . S
C450 C451 1.400 . S
C451 C450 1.400 . S
C451 C452 1.398 . S
C451 C457 1.491 . S
C452 H443 0.950 . S
C452 C451 1.398 . S
C452 C453 1.391 . S
C453 H441 0.950 . S
C453 C449 1.393 . S
C453 C452 1.391 . S
C454 H444 0.950 . S
C454 C455 1.386 . S
C454 C456 1.391 . S
C455 C454 1.386 . S
C455 C459 1.393 . S
C456 H445 0.950 . S
C456 C454 1.391 . S
C456 C457 1.400 . S
C457 C451 1.491 . S
C457 C456 1.400 . S
C457 C458 1.398 . S
C458 H446 0.950 . S
C458 C457 1.398 . S
C458 C459 1.391 . S
C459 H447 0.950 . S
C459 C455 1.393 . S
C459 C458 1.391 . S
H460 C468 0.950 . S
H461 C473 0.950 . S
H462 C470 0.950 . S
H463 C472 0.950 . S
H464 C474 0.950 . S
H465 C476 0.950 . S
H466 C478 0.950 . S
H467 C479 0.950 . S
C468 H460 0.950 . S
C468 C469 1.386 . S
C468 C470 1.391 . S
C469 C468 1.386 . S
C469 C473 1.393 . S
C470 H462 0.950 . S
C470 C468 1.391 . S
C470 C471 1.400 . S
C471 C470 1.400 . S
C471 C472 1.398 . S
C471 C477 1.491 . S
C472 H463 0.950 . S
C472 C471 1.398 . S
C472 C473 1.391 . S
C473 H461 0.950 . S
C473 C469 1.393 . S
C473 C472 1.391 . S
C474 H464 0.950 . S
C474 C475 1.386 . S
C474 C476 1.391 . S
C475 C474 1.386 . S
C475 C479 1.393 . S
C476 H465 0.950 . S
C476 C474 1.391 . S
C476 C477 1.400 . S
C477 C471 1.491 . S
C477 C476 1.400 . S
C477 C478 1.398 . S
C478 H466 0.950 . S
C478 C477 1.398 . S
C478 C479 1.391 . S
C479 H467 0.950 . S
C479 C475 1.393 . S
C479 C478 1.391 . S
H480 C488 0.950 . S
H481 C493 0.950 . S
H482 C490 0.950 . S
H483 C492 0.950 . S
H484 C494 0.950 . S
H485 C496 0.950 . S
H486 C498 0.950 1_455 S
H487 C499 0.950 . S
C488 H480 0.950 . S
C488 C489 1.386 . S
C488 C490 1.391 . S
C489 C488 1.386 . S
C489 C493 1.393 . S
C490 H482 0.950 . S
C490 C488 1.391 . S
C490 C491 1.400 . S
C491 C490 1.400 . S
C491 C492 1.398 . S
C491 C497 1.491 1_455 S
C492 H483 0.950 . S
C492 C491 1.398 . S
C492 C493 1.391 . S
C493 H481 0.950 . S
C493 C489 1.393 . S
C493 C492 1.391 . S
C494 H484 0.950 . S
C494 C495 1.386 . S
C494 C496 1.391 . S
C495 C494 1.386 . S
C495 C499 1.393 . S
C496 H485 0.950 . S
C496 C494 1.391 . S
C496 C497 1.400 . S
C497 C491 1.491 1_655 S
C497 C496 1.400 . S
C497 C498 1.398 . S
C498 H486 0.950 1_655 S
C498 C497 1.398 . S
C498 C499 1.391 . S
C499 H487 0.950 . S
C499 C495 1.393 . S
C499 C498 1.391 . S
H500 C508 0.950 . S
H501 C513 0.950 . S
H502 C510 0.950 . S
H503 C512 0.950 . S
H504 C514 0.950 . S
H505 C516 0.950 . S
H506 C518 0.950 . S
H507 C519 0.950 . S
C508 H500 0.950 . S
C508 C509 1.386 . S
C508 C510 1.391 . S
C509 C508 1.386 . S
C509 C513 1.393 1_655 S
C510 H502 0.950 . S
C510 C508 1.391 . S
C510 C511 1.400 . S
C511 C510 1.400 . S
C511 C512 1.398 1_655 S
C511 C517 1.491 1_655 S
C512 H503 0.950 . S
C512 C511 1.398 1_455 S
C512 C513 1.391 . S
C513 H501 0.950 . S
C513 C509 1.393 1_455 S
C513 C512 1.391 . S
C514 H504 0.950 . S
C514 C515 1.386 . S
C514 C516 1.391 . S
C515 C514 1.386 . S
C515 C519 1.393 1_455 S
C516 H505 0.950 . S
C516 C514 1.391 . S
C516 C517 1.400 . S
C517 C511 1.491 1_455 S
C517 C516 1.400 . S
C517 C518 1.398 1_455 S
C518 H506 0.950 . S
C518 C517 1.398 1_655 S
C518 C519 1.391 . S
C519 H507 0.950 . S
C519 C515 1.393 1_655 S
C519 C518 1.391 . S
H520 C528 0.950 . S
H521 C533 0.950 . S
H522 C530 0.950 . S
H523 C532 0.950 . S
H524 C534 0.950 . S
H525 C536 0.950 . S
H526 C538 0.950 . S
H527 C539 0.950 . S
C528 H520 0.950 . S
C528 C529 1.386 . S
C528 C530 1.391 . S
C529 C528 1.386 . S
C529 C533 1.393 1_655 S
C530 H522 0.950 . S
C530 C528 1.391 . S
C530 C531 1.400 . S
C531 C530 1.400 . S
C531 C532 1.398 1_655 S
C531 C537 1.491 1_655 S
C532 H523 0.950 . S
C532 C531 1.398 1_455 S
C532 C533 1.391 . S
C533 H521 0.950 . S
C533 C529 1.393 1_455 S
C533 C532 1.391 . S
C534 H524 0.950 . S
C534 C535 1.386 . S
C534 C536 1.391 . S
C535 C534 1.386 . S
C535 C539 1.393 1_455 S
C536 H525 0.950 . S
C536 C534 1.391 . S
C536 C537 1.400 . S
C537 C531 1.491 1_455 S
C537 C536 1.400 . S
C537 C538 1.398 1_455 S
C538 H526 0.950 . S
C538 C537 1.398 1_655 S
C538 C539 1.391 . S
C539 H527 0.950 . S
C539 C535 1.393 1_655 S
C539 C538 1.391 . S
H540 C548 0.950 . S
H541 C553 0.950 . S
H542 C550 0.950 . S
H543 C552 0.950 . S
H544 C554 0.950 . S
H545 C556 0.950 . S
H546 C558 0.950 . S
H547 C559 0.950 . S
C548 H540 0.950 . S
C548 C549 1.386 . S
C548 C550 1.391 . S
C549 C548 1.386 . S
C549 C553 1.393 1_655 S
C550 H542 0.950 . S
C550 C548 1.391 . S
C550 C551 1.400 . S
C551 C550 1.400 . S
C551 C552 1.398 1_655 S
C551 C557 1.491 1_655 S
C552 H543 0.950 . S
C552 C551 1.398 1_455 S
C552 C553 1.391 . S
C553 H541 0.950 . S
C553 C549 1.393 1_455 S
C553 C552 1.391 . S
C554 H544 0.950 . S
C554 C555 1.386 . S
C554 C556 1.391 . S
C555 C554 1.386 . S
C555 C559 1.393 1_455 S
C556 H545 0.950 . S
C556 C554 1.391 . S
C556 C557 1.400 . S
C557 C551 1.491 1_455 S
C557 C556 1.400 . S
C557 C558 1.398 1_455 S
C558 H546 0.950 . S
C558 C557 1.398 1_655 S
C558 C559 1.391 . S
C559 H547 0.950 . S
C559 C555 1.393 1_655 S
C559 C558 1.391 . S
H560 C568 0.950 . S
H561 C573 0.950 . S
H562 C570 0.950 . S
H563 C572 0.950 . S
H564 C574 0.950 . S
H565 C576 0.950 . S
H566 C578 0.950 . S
H567 C579 0.950 . S
C568 H560 0.950 . S
C568 C569 1.386 . S
C568 C570 1.391 . S
C569 C568 1.386 . S
C569 C573 1.393 . S
C570 H562 0.950 . S
C570 C568 1.391 . S
C570 C571 1.400 . S
C571 C570 1.400 . S
C571 C572 1.398 . S
C571 C577 1.491 . S
C572 H563 0.950 . S
C572 C571 1.398 . S
C572 C573 1.391 . S
C573 H561 0.950 . S
C573 C569 1.393 . S
C573 C572 1.391 . S
C574 H564 0.950 . S
C574 C575 1.386 . S
C574 C576 1.391 . S
C575 C574 1.386 . S
C575 C579 1.393 . S
C576 H565 0.950 . S
C576 C574 1.391 . S
C576 C577 1.400 . S
C577 C571 1.491 . S
C577 C576 1.400 . S
C577 C578 1.398 . S
C578 H566 0.950 . S
C578 C577 1.398 . S
C578 C579 1.391 . S
C579 H567 0.950 . S
C579 C575 1.393 . S
C579 C578 1.391 . S
H580 C588 0.950 . S
H581 C593 0.950 . S
H582 C590 0.950 . S
H583 C592 0.950 . S
H584 C594 0.950 . S
H585 C596 0.950 . S
H586 C598 0.950 . S
H587 C599 0.950 . S
C588 H580 0.950 . S
C588 C589 1.386 . S
C588 C590 1.391 . S
C589 C588 1.386 . S
C589 C593 1.393 . S
C590 H582 0.950 . S
C590 C588 1.391 . S
C590 C591 1.400 . S
C591 C590 1.400 . S
C591 C592 1.398 . S
C591 C597 1.491 . S
C592 H583 0.950 . S
C592 C591 1.398 . S
C592 C593 1.391 . S
C593 H581 0.950 . S
C593 C589 1.393 . S
C593 C592 1.391 . S
C594 H584 0.950 . S
C594 C595 1.386 . S
C594 C596 1.391 . S
C595 C594 1.386 . S
C595 C599 1.393 . S
C596 H585 0.950 . S
C596 C594 1.391 . S
C596 C597 1.400 . S
C597 C591 1.491 . S
C597 C596 1.400 . S
C597 C598 1.398 . S
C598 H586 0.950 . S
C598 C597 1.398 . S
C598 C599 1.391 . S
C599 H587 0.950 . S
C599 C595 1.393 . S
C599 C598 1.391 . S
H600 C608 0.950 . S
H601 C613 0.950 . S
H602 C610 0.950 . S
H603 C612 0.950 . S
H604 C614 0.950 . S
H605 C616 0.950 . S
H606 C618 0.950 . S
H607 C619 0.950 . S
C608 H600 0.950 . S
C608 C609 1.386 . S
C608 C610 1.391 . S
C609 C608 1.386 . S
C609 C613 1.393 . S
C610 H602 0.950 . S
C610 C608 1.391 . S
C610 C611 1.400 . S
C611 C610 1.400 . S
C611 C612 1.398 . S
C611 C617 1.491 . S
C612 H603 0.950 . S
C612 C611 1.398 . S
C612 C613 1.391 . S
C613 H601 0.950 . S
C613 C609 1.393 . S
C613 C612 1.391 . S
C614 H604 0.950 . S
C614 C615 1.386 . S
C614 C616 1.391 . S
C615 C614 1.386 . S
C615 C619 1.393 . S
C616 H605 0.950 . S
C616 C614 1.391 . S
C616 C617 1.400 . S
C617 C611 1.491 . S
C617 C616 1.400 . S
C617 C618 1.398 . S
C618 H606 0.950 . S
C618 C617 1.398 . S
C618 C619 1.391 . S
C619 H607 0.950 . S
C619 C615 1.393 . S
C619 C618 1.391 . S
H620 C628 0.950 . S
H621 C633 0.950 . S
H622 C630 0.950 . S
H623 C632 0.950 . S
H624 C634 0.950 . S
H625 C636 0.950 . S
H626 C638 0.950 . S
H627 C639 0.950 . S
C628 H620 0.950 . S
C628 C629 1.386 . S
C628 C630 1.391 . S
C629 C628 1.386 . S
C629 C633 1.393 . S
C630 H622 0.950 . S
C630 C628 1.391 . S
C630 C631 1.400 . S
C631 C630 1.400 . S
C631 C632 1.398 . S
C631 C637 1.491 . S
C632 H623 0.950 . S
C632 C631 1.398 . S
C632 C633 1.391 . S
C633 H621 0.950 . S
C633 C629 1.393 . S
C633 C632 1.391 . S
C634 H624 0.950 . S
C634 C635 1.386 . S
C634 C636 1.391 . S
C635 C634 1.386 . S
C635 C639 1.393 . S
C636 H625 0.950 . S
C636 C634 1.391 . S
C636 C637 1.400 . S
C637 C631 1.491 . S
C637 C636 1.400 . S
C637 C638 1.398 . S
C638 H626 0.950 . S
C638 C637 1.398 . S
C638 C639 1.391 . S
C639 H627 0.950 . S
C639 C635 1.393 . S
C639 C638 1.391 . S
C169 C6 1.639 . S
C175 C16 1.638 1_556 S
C189 C26 1.629 . S
C195 C36 1.629 . S
C209 C56 1.652 . S
C215 C46 1.652 . S
C229 C76 1.655 . S
C235 C66 1.655 . S
C249 C86 1.633 . S
C255 C96 1.633 . S
C269 C116 1.633 . S
C275 C106 1.633 . S
C289 C136 1.653 . S
C295 C126 1.653 . S
C309 C146 1.654 . S
C315 C156 1.654 . S
C329 C39 1.565 1_455 S
C335 C8 1.565 1_655 S
C349 C79 1.586 1_455 S
C355 C48 1.586 1_655 S
C369 C88 1.565 . S
C375 C119 1.565 . S
C389 C128 1.565 . S
C395 C159 1.565 . S
C409 C19 1.522 1_554 S
C415 C108 1.522 . S
C429 C99 1.529 1_554 S
C435 C28 1.529 . S
C449 C59 1.533 . S
C455 C148 1.533 . S
C469 C68 1.541 . S
C475 C139 1.541 . S
C489 C1 1.581 . S
C495 C61 1.611 . S
C509 C21 1.615 . S
C515 C41 1.575 . S
C529 C29 1.578 . S
C535 C49 1.615 . S
C549 C69 1.576 . S
C555 C9 1.615 . S
C569 C81 1.582 . S
C575 C141 1.612 . S
C589 C101 1.615 . S
C595 C121 1.583 . S
C609 C109 1.562 . S
C615 C129 1.608 . S
C629 C149 1.583 . S
C635 C89 1.613 . S
