# Generated by pormake.
# Topology fob, (5)-cn, num edge types: 1
# Building blocks:
#     Node 0, Type 0, BuildingBlock: XOMCOT_clean_sbu_1, # of connection points: 5
#     Node 1, Type 0, BuildingBlock: XOMCOT_clean_sbu_1, # of connection points: 5
#     Node 2, Type 0, BuildingBlock: XOMCOT_clean_sbu_1, # of connection points: 5
#     Node 3, Type 0, BuildingBlock: XOMCOT_clean_sbu_1, # of connection points: 5
#     Node 4, Type 0, BuildingBlock: XOMCOT_clean_sbu_1, # of connection points: 5
#     Node 5, Type 0, BuildingBlock: XOMCOT_clean_sbu_1, # of connection points: 5
#     Node 6, Type 0, BuildingBlock: XOMCOT_clean_sbu_1, # of connection points: 5
#     Node 7, Type 0, BuildingBlock: XOMCOT_clean_sbu_1, # of connection points: 5
#     Node 8, Type 0, BuildingBlock: XOMCOT_clean_sbu_1, # of connection points: 5
#     Node 9, Type 0, BuildingBlock: XOMCOT_clean_sbu_1, # of connection points: 5
#     Node 10, Type 0, BuildingBlock: XOMCOT_clean_sbu_1, # of connection points: 5
#     Node 11, Type 0, BuildingBlock: XOMCOT_clean_sbu_1, # of connection points: 5
#     Node 12, Type 0, BuildingBlock: XOMCOT_clean_sbu_1, # of connection points: 5
#     Node 13, Type 0, BuildingBlock: XOMCOT_clean_sbu_1, # of connection points: 5
#     Node 14, Type 0, BuildingBlock: XOMCOT_clean_sbu_1, # of connection points: 5
#     Node 15, Type 0, BuildingBlock: XOMCOT_clean_sbu_1, # of connection points: 5
#     Edge 16, Type (0, 0), BuildingBlock: UVAHIK_clean_linker_0, # of connection points: 2
#     Edge 17, Type (0, 0), BuildingBlock: UVAHIK_clean_linker_0, # of connection points: 2
#     Edge 18, Type (0, 0), BuildingBlock: UVAHIK_clean_linker_0, # of connection points: 2
#     Edge 19, Type (0, 0), BuildingBlock: UVAHIK_clean_linker_0, # of connection points: 2
#     Edge 20, Type (0, 0), BuildingBlock: UVAHIK_clean_linker_0, # of connection points: 2
#     Edge 21, Type (0, 0), BuildingBlock: UVAHIK_clean_linker_0, # of connection points: 2
#     Edge 22, Type (0, 0), BuildingBlock: UVAHIK_clean_linker_0, # of connection points: 2
#     Edge 23, Type (0, 0), BuildingBlock: UVAHIK_clean_linker_0, # of connection points: 2
#     Edge 24, Type (0, 0), BuildingBlock: UVAHIK_clean_linker_0, # of connection points: 2
#     Edge 25, Type (0, 0), BuildingBlock: UVAHIK_clean_linker_0, # of connection points: 2
#     Edge 26, Type (0, 0), BuildingBlock: UVAHIK_clean_linker_0, # of connection points: 2
#     Edge 27, Type (0, 0), BuildingBlock: UVAHIK_clean_linker_0, # of connection points: 2
#     Edge 28, Type (0, 0), BuildingBlock: UVAHIK_clean_linker_0, # of connection points: 2
#     Edge 29, Type (0, 0), BuildingBlock: UVAHIK_clean_linker_0, # of connection points: 2
#     Edge 30, Type (0, 0), BuildingBlock: UVAHIK_clean_linker_0, # of connection points: 2
#     Edge 31, Type (0, 0), BuildingBlock: UVAHIK_clean_linker_0, # of connection points: 2
#     Edge 32, Type (0, 0), BuildingBlock: UVAHIK_clean_linker_0, # of connection points: 2
#     Edge 33, Type (0, 0), BuildingBlock: UVAHIK_clean_linker_0, # of connection points: 2
#     Edge 34, Type (0, 0), BuildingBlock: UVAHIK_clean_linker_0, # of connection points: 2
#     Edge 35, Type (0, 0), BuildingBlock: UVAHIK_clean_linker_0, # of connection points: 2
#     Edge 36, Type (0, 0), BuildingBlock: UVAHIK_clean_linker_0, # of connection points: 2
#     Edge 37, Type (0, 0), BuildingBlock: UVAHIK_clean_linker_0, # of connection points: 2
#     Edge 38, Type (0, 0), BuildingBlock: UVAHIK_clean_linker_0, # of connection points: 2
#     Edge 39, Type (0, 0), BuildingBlock: UVAHIK_clean_linker_0, # of connection points: 2
#     Edge 40, Type (0, 0), BuildingBlock: UVAHIK_clean_linker_0, # of connection points: 2
#     Edge 41, Type (0, 0), BuildingBlock: UVAHIK_clean_linker_0, # of connection points: 2
#     Edge 42, Type (0, 0), BuildingBlock: UVAHIK_clean_linker_0, # of connection points: 2
#     Edge 43, Type (0, 0), BuildingBlock: UVAHIK_clean_linker_0, # of connection points: 2
#     Edge 44, Type (0, 0), BuildingBlock: UVAHIK_clean_linker_0, # of connection points: 2
#     Edge 45, Type (0, 0), BuildingBlock: UVAHIK_clean_linker_0, # of connection points: 2
#     Edge 46, Type (0, 0), BuildingBlock: UVAHIK_clean_linker_0, # of connection points: 2
#     Edge 47, Type (0, 0), BuildingBlock: UVAHIK_clean_linker_0, # of connection points: 2
#     Edge 48, Type (0, 0), BuildingBlock: UVAHIK_clean_linker_0, # of connection points: 2
#     Edge 49, Type (0, 0), BuildingBlock: UVAHIK_clean_linker_0, # of connection points: 2
#     Edge 50, Type (0, 0), BuildingBlock: UVAHIK_clean_linker_0, # of connection points: 2
#     Edge 51, Type (0, 0), BuildingBlock: UVAHIK_clean_linker_0, # of connection points: 2
#     Edge 52, Type (0, 0), BuildingBlock: UVAHIK_clean_linker_0, # of connection points: 2
#     Edge 53, Type (0, 0), BuildingBlock: UVAHIK_clean_linker_0, # of connection points: 2
#     Edge 54, Type (0, 0), BuildingBlock: UVAHIK_clean_linker_0, # of connection points: 2
#     Edge 55, Type (0, 0), BuildingBlock: UVAHIK_clean_linker_0, # of connection points: 2
# Relax obj value: 0.102
# Max RMSD: 0.151
# Mean RMSD: 0.151
data_MOF--net-fob--node1-XOMCOT_clean_sbu_1--edge1-UVAHIK_clean_linker_0
_symmetry_space_group_name_H-M    P1
_symmetry_Int_Tables_number       1
_symmetry_cell_setting            triclinic
loop_
_symmetry_equiv_pos_as_xyz
'x, y, z'
_cell_length_a     31.710503
_cell_length_b     81.448452
_cell_length_c     64.959441
_cell_angle_alpha  100.47431
_cell_angle_beta   90.001456
_cell_angle_gamma 90.005685
loop_
_atom_site_label
_atom_site_type_symbol
_atom_site_fract_x
_atom_site_fract_y
_atom_site_fract_z
_atom_type_partial_charge
C0 C 0.06804 0.16038 0.48652 0.0
C1 C 0.07985 0.17691 0.49096 0.0
N2 N 0.12169 0.17785 0.48767 0.0
N3 N 0.10216 0.15091 0.48034 0.0
C4 C 0.13447 0.16188 0.48138 0.0
H5 H 0.03644 0.15556 0.48738 0.0
Co6 Co 0.1005 0.12788 0.4713 0.0
C7 C 0.18905 0.12039 0.46168 0.0
O8 O 0.18819 0.1089 0.47349 0.0
N9 N 0.09777 0.10472 0.4622 0.0
C10 C 0.10067 0.07936 0.44259 0.0
C11 C 0.11141 0.09587 0.4438 0.0
C12 C 0.07844 0.09336 0.47176 0.0
N13 N 0.07985 0.07777 0.46022 0.0
O14 O 0.1251 0.12493 0.49693 0.0
H15 H 0.12753 0.10114 0.43185 0.0
H16 H 0.06229 0.09653 0.48659 0.0
O17 O 0.15571 0.12853 0.45912 0.0
C18 C 0.09915 0.12499 0.51182 0.0
O19 O 0.05877 0.12686 0.5083 0.0
N20 N 0.07398 0.13107 0.44694 0.0
C21 C 0.02256 0.13809 0.41507 0.0
C22 C 0.06625 0.1406 0.41434 0.0
C23 C 0.0916 0.13717 0.43068 0.0
C24 C 0.03184 0.12814 0.44755 0.0
C25 C 0.00548 0.13158 0.43178 0.0
H26 H 0.12491 0.13989 0.43049 0.0
H27 H 0.01858 0.12352 0.46075 0.0
H28 H 0.16656 0.15833 0.47706 0.0
H29 H 0.05917 0.18741 0.49619 0.0
H30 H 0.10766 0.06932 0.42969 0.0
H31 H 0.08035 0.14573 0.4017 0.0
H32 H 0.97192 0.12936 0.43277 0.0
C33 C 0.06222 0.1243 0.76436 0.0
C34 C 0.0707 0.10745 0.76056 0.0
N35 N 0.11268 0.10533 0.75802 0.0
N36 N 0.09866 0.1328 0.76437 0.0
C37 C 0.12883 0.12092 0.7603 0.0
H38 H 0.03147 0.13004 0.767 0.0
Co39 Co 0.10362 0.15597 0.76904 0.0
C40 C 0.19492 0.15988 0.77477 0.0
O41 O 0.19672 0.16921 0.76029 0.0
N42 N 0.10781 0.17922 0.77375 0.0
C43 C 0.11857 0.20555 0.78908 0.0
C44 C 0.12712 0.18914 0.7899 0.0
C45 C 0.08744 0.18985 0.76344 0.0
N46 N 0.09336 0.20601 0.77249 0.0
O47 O 0.12545 0.15454 0.74166 0.0
H48 H 0.14499 0.18473 0.80199 0.0
H49 H 0.06691 0.18574 0.7502 0.0
O50 O 0.15964 0.15422 0.77977 0.0
C51 C 0.0981 0.15151 0.72721 0.0
O52 O 0.05814 0.15086 0.73239 0.0
N53 N 0.08 0.15711 0.79543 0.0
C54 C 0.03324 0.15675 0.83159 0.0
C55 C 0.07431 0.15019 0.82963 0.0
C56 C 0.09721 0.15041 0.8113 0.0
C57 C 0.04054 0.16375 0.79716 0.0
C58 C 0.01666 0.16377 0.81513 0.0
H59 H 0.12798 0.14464 0.80962 0.0
H60 H 0.02701 0.16854 0.78415 0.0
H61 H 0.16206 0.12367 0.75931 0.0
H62 H 0.04762 0.09755 0.7595 0.0
H63 H 0.12952 0.21627 0.80013 0.0
H64 H 0.08828 0.14464 0.84195 0.0
H65 H 0.98476 0.16858 0.81568 0.0
C66 C 0.90976 0.84613 0.48783 0.0
C67 C 0.89825 0.82959 0.48377 0.0
N68 N 0.85785 0.82838 0.48982 0.0
N69 N 0.87691 0.85539 0.49639 0.0
C70 C 0.84566 0.84425 0.49742 0.0
H71 H 0.94032 0.85114 0.48489 0.0
Co72 Co 0.87927 0.87847 0.50442 0.0
C73 C 0.79207 0.88657 0.51646 0.0
O74 O 0.79108 0.89677 0.50294 0.0
N75 N 0.88286 0.90176 0.51248 0.0
C76 C 0.8813 0.92745 0.53127 0.0
C77 C 0.87021 0.91107 0.53078 0.0
C78 C 0.90206 0.91274 0.50224 0.0
N79 N 0.90146 0.92851 0.51329 0.0
O80 O 0.85118 0.88092 0.47944 0.0
H81 H 0.85463 0.90622 0.54323 0.0
H82 H 0.91764 0.90916 0.48731 0.0
O83 O 0.82568 0.87847 0.51868 0.0
C84 C 0.8744 0.88147 0.46368 0.0
O85 O 0.91519 0.87909 0.46517 0.0
N86 N 0.90921 0.8761 0.52821 0.0
C87 C 0.96294 0.87687 0.5622 0.0
C88 C 0.92001 0.87302 0.56381 0.0
C89 C 0.89352 0.87262 0.5465 0.0
C90 C 0.95101 0.87907 0.52607 0.0
C91 C 0.97848 0.87949 0.54283 0.0
H92 H 0.8605 0.86991 0.54806 0.0
H93 H 0.96278 0.88157 0.51131 0.0
H94 H 0.81447 0.84769 0.50344 0.0
H95 H 0.91845 0.81923 0.47726 0.0
H96 H 0.87507 0.93774 0.54396 0.0
H97 H 0.90673 0.87087 0.57844 0.0
H98 H 0.01156 0.88202 0.54066 0.0
C99 C 0.91411 0.93479 0.22371 0.0
C100 C 0.90145 0.95095 0.22397 0.0
N101 N 0.8592 0.95171 0.22623 0.0
N102 N 0.88004 0.92528 0.22559 0.0
C103 C 0.84698 0.93593 0.22706 0.0
H104 H 0.94633 0.93039 0.22296 0.0
Co105 Co 0.88148 0.90309 0.22916 0.0
C106 C 0.81853 0.88557 0.19994 0.0
O107 O 0.84549 0.87325 0.19471 0.0
N108 N 0.88269 0.88069 0.23375 0.0
C109 C 0.85886 0.85725 0.24289 0.0
C110 C 0.84849 0.87308 0.24022 0.0
C111 C 0.91392 0.86924 0.23331 0.0
N112 N 0.90007 0.85485 0.23855 0.0
O113 O 0.84916 0.90887 0.25397 0.0
H114 H 0.81763 0.87872 0.24288 0.0
H115 H 0.94628 0.87118 0.22934 0.0
O116 O 0.82923 0.8985 0.2132 0.0
C117 C 0.86781 0.91669 0.2701 0.0
O118 O 0.90742 0.92106 0.26851 0.0
N119 N 0.91544 0.89799 0.20505 0.0
C120 C 0.97327 0.89376 0.1721 0.0
C121 C 0.9308 0.89725 0.1687 0.0
C122 C 0.90264 0.89975 0.18547 0.0
C123 C 0.95705 0.89564 0.20883 0.0
C124 C 0.98636 0.89311 0.19255 0.0
H125 H 0.87102 0.90373 0.18271 0.0
H126 H 0.96787 0.89637 0.22476 0.0
H127 H 0.81493 0.93233 0.22986 0.0
H128 H 0.92199 0.96139 0.22299 0.0
H129 H 0.83793 0.84833 0.24809 0.0
H130 H 0.91947 0.89832 0.15327 0.0
H131 H 0.01923 0.89133 0.1961 0.0
C132 C 0.08815 0.65547 0.98833 0.0
C133 C 0.09854 0.67215 -0.00732 0.0
N134 N 0.13855 0.67389 0.98636 0.0
N135 N 0.12134 0.64669 0.97929 0.0
C136 C 0.15167 0.65822 0.97838 0.0
H137 H 0.05812 0.65006 0.99132 0.0
Co138 Co 0.12122 0.62368 0.97033 0.0
C139 C 0.20739 0.61772 0.95482 0.0
O140 O 0.21242 0.6064 0.96667 0.0
N141 N 0.11999 0.6005 0.96144 0.0
C142 C 0.12163 0.57512 0.94184 0.0
C143 C 0.13106 0.5917 0.94256 0.0
C144 C 0.10333 0.58905 0.97176 0.0
N145 N 0.10403 0.57345 0.96024 0.0
O146 O 0.15411 0.6214 -0.00607 0.0
H147 H 0.14416 0.59705 0.92989 0.0
H148 H 0.08921 0.59221 0.9871 0.0
O149 O 0.17215 0.62521 0.95458 0.0
C150 C 0.13528 0.62056 0.01093 0.0
O151 O 0.09385 0.62068 0.01138 0.0
N152 N 0.08739 0.62626 0.94783 0.0
C153 C 0.02864 0.63095 0.91769 0.0
C154 C 0.07088 0.63558 0.91586 0.0
C155 C 0.09984 0.63329 0.93127 0.0
C156 C 0.04659 0.6216 0.9498 0.0
C157 C 0.01661 0.62383 0.93488 0.0
H158 H 0.13182 0.63755 0.93008 0.0
H159 H 0.03726 0.61635 0.96326 0.0
H160 H 0.18288 0.65519 0.97215 0.0
H161 H 0.07781 0.68223 -0.0005 0.0
H162 H 0.12702 0.56514 0.92867 0.0
H163 H 0.08115 0.64138 0.90298 0.0
H164 H 0.98432 0.62003 0.93679 0.0
C165 C 0.09187 0.62401 0.23377 0.0
C166 C 0.10049 0.60721 0.22873 0.0
N167 N 0.13701 0.60418 0.23803 0.0
N168 N 0.12273 0.63164 0.24615 0.0
C169 C 0.14979 0.61928 0.24851 0.0
H170 H 0.06489 0.63032 0.22865 0.0
Co171 Co 0.12373 0.65451 0.25627 0.0
C172 C 0.21118 0.65966 0.27003 0.0
O173 O 0.21513 0.67113 0.2583 0.0
N174 N 0.12333 0.67756 0.26623 0.0
C175 C 0.12829 0.70274 0.28622 0.0
C176 C 0.13771 0.68606 0.2847 0.0
C177 C 0.10437 0.68925 0.2571 0.0
N178 N 0.10715 0.7047 0.26885 0.0
O179 O 0.1551 0.6574 0.23239 0.0
H180 H 0.153 0.68046 0.29659 0.0
H181 H 0.08813 0.68647 0.24226 0.0
O182 O 0.17594 0.65227 0.27091 0.0
C183 C 0.13628 0.65925 0.21574 0.0
O184 O 0.09487 0.65979 0.21549 0.0
N185 N 0.09132 0.65136 0.27897 0.0
C186 C 0.03376 0.64603 0.30934 0.0
C187 C 0.07654 0.64218 0.31123 0.0
C188 C 0.10493 0.6448 0.2957 0.0
C189 C 0.05003 0.6553 0.27698 0.0
C190 C 0.02063 0.65275 0.29201 0.0
H191 H 0.13744 0.64121 0.29702 0.0
H192 H 0.03989 0.66027 0.26344 0.0
H193 H 0.1781 0.62128 0.25787 0.0
H194 H 0.08149 0.59804 0.21867 0.0
H195 H 0.135 0.71255 0.29944 0.0
H196 H 0.08771 0.63675 0.32426 0.0
H197 H 0.98793 0.65599 0.29007 0.0
C198 C 0.9196 0.34487 -0.00096 0.0
C199 C 0.90638 0.32857 -0.00345 0.0
N200 N 0.86634 0.32839 0.00348 0.0
N201 N 0.88816 0.35503 0.00746 0.0
C202 C 0.856 0.34464 0.00998 0.0
H203 H 0.95042 0.34907 -0.00488 0.0
Co204 Co 0.89371 0.37815 0.01406 0.0
C205 C 0.80599 0.38883 0.01974 0.0
O206 O 0.81125 0.39787 0.00512 0.0
N207 N 0.90043 0.40139 0.02073 0.0
C208 C 0.89863 0.42781 0.03724 0.0
C209 C 0.88509 0.41184 0.03761 0.0
C210 C 0.92352 0.4113 0.01046 0.0
N211 N 0.92283 0.42747 0.02014 0.0
O212 O 0.87362 0.37986 0.98699 0.0
H213 H 0.86538 0.40812 0.04954 0.0
H214 H 0.94141 0.40673 -0.00356 0.0
O215 O 0.83662 0.38022 0.02489 0.0
C216 C 0.90079 0.37875 0.97244 0.0
O217 O 0.94035 0.37588 0.97666 0.0
N218 N 0.91626 0.37625 0.03991 0.0
C219 C 0.96241 0.37449 0.07582 0.0
C220 C 0.91843 0.3763 0.07684 0.0
C221 C 0.89567 0.37697 0.05853 0.0
C222 C 0.95886 0.37448 0.03872 0.0
C223 C 0.98257 0.37343 0.05644 0.0
H224 H 0.86189 0.3784 0.05953 0.0
H225 H 0.97452 0.37409 0.02384 0.0
H226 H 0.82593 0.34884 0.01683 0.0
H227 H 0.92484 0.31771 0.98996 0.0
H228 H 0.8909 0.43883 0.04862 0.0
H229 H 0.90192 0.37715 0.09159 0.0
H230 H 0.01653 0.37226 0.0551 0.0
C231 C 0.9177 0.43507 0.73481 0.0
C232 C 0.90699 0.45167 0.73744 0.0
N233 N 0.86542 0.45281 0.73355 0.0
N234 N 0.88316 0.42568 0.72931 0.0
C235 C 0.85173 0.43683 0.72874 0.0
H236 H 0.94886 0.43014 0.73662 0.0
Co237 Co 0.8835 0.40238 0.72335 0.0
C238 C 0.7938 0.39495 0.71718 0.0
O239 O 0.79583 0.38525 0.73126 0.0
N240 N 0.88494 0.37903 0.71723 0.0
C241 C 0.87888 0.35277 0.70064 0.0
C242 C 0.86773 0.36904 0.70048 0.0
C243 C 0.90684 0.36856 0.72719 0.0
N244 N 0.90367 0.35245 0.71742 0.0
O245 O 0.86215 0.4019 0.75055 0.0
H246 H 0.84898 0.37332 0.6886 0.0
H247 H 0.92604 0.37277 0.74088 0.0
O248 O 0.82685 0.40236 0.7124 0.0
C249 C 0.89037 0.40389 0.76466 0.0
O250 O 0.92973 0.40575 0.75918 0.0
N251 N 0.90748 0.40303 0.69752 0.0
C252 C 0.95627 0.40382 0.66222 0.0
C253 C 0.91218 0.40498 0.66121 0.0
C254 C 0.88812 0.40475 0.67925 0.0
C255 C 0.9501 0.40168 0.69863 0.0
C256 C 0.97514 0.40213 0.68121 0.0
H257 H 0.85427 0.40593 0.67845 0.0
H258 H 0.96463 0.40028 0.71328 0.0
H259 H 0.8196 0.43333 0.72446 0.0
H260 H 0.9283 0.46208 0.742 0.0
H261 H 0.86955 0.34204 0.68916 0.0
H262 H 0.89666 0.4063 0.64674 0.0
H263 H 0.00903 0.40095 0.68252 0.0
C264 C 0.57205 0.15948 0.99053 0.0
C265 C 0.5825 0.17612 -0.00439 0.0
N266 N 0.6236 0.17784 0.9911 0.0
N267 N 0.60627 0.15068 0.9828 0.0
C268 C 0.63728 0.16217 0.98347 0.0
H269 H 0.54131 0.1541 -0.00784 0.0
Co270 Co 0.60608 0.12772 0.973 0.0
C271 C 0.69486 0.12154 0.96193 0.0
O272 O 0.69642 0.10967 0.97317 0.0
N273 N 0.60463 0.10463 0.96321 0.0
C274 C 0.6083 0.07943 0.94322 0.0
C275 C 0.61853 0.09604 0.94473 0.0
C276 C 0.58553 0.09305 0.97249 0.0
N277 N 0.58739 0.07756 0.96072 0.0
O278 O 0.63248 0.12447 -0.00192 0.0
H279 H 0.63417 0.10155 0.93284 0.0
H280 H 0.57007 0.09595 0.98751 0.0
O281 O 0.66044 0.12927 0.96033 0.0
C282 C 0.6074 0.12385 0.01314 0.0
O283 O 0.56669 0.12538 0.01018 0.0
N284 N 0.57799 0.13113 0.94914 0.0
C285 C 0.52507 0.1376 0.91752 0.0
C286 C 0.56856 0.14046 0.91651 0.0
C287 C 0.59465 0.1373 0.93271 0.0
C288 C 0.53601 0.12797 0.95011 0.0
C289 C 0.5089 0.13114 0.93447 0.0
H290 H 0.62781 0.1402 0.93219 0.0
H291 H 0.52351 0.12327 0.96341 0.0
H292 H 0.66905 0.15919 0.97806 0.0
H293 H 0.56138 0.18613 0.0022 0.0
H294 H 0.61457 0.06962 0.92995 0.0
H295 H 0.58199 0.14558 0.90371 0.0
H296 H 0.47551 0.12865 0.93568 0.0
C297 C 0.56038 0.12032 0.26359 0.0
C298 C 0.57112 0.10369 0.25971 0.0
N299 N 0.61334 0.10245 0.25745 0.0
N300 N 0.59562 0.12959 0.26388 0.0
C301 C 0.62737 0.11838 0.26 0.0
H302 H 0.52889 0.12539 0.26612 0.0
Co303 Co 0.59712 0.15281 0.26826 0.0
C304 C 0.68752 0.1591 0.27484 0.0
O305 O 0.68793 0.16857 0.26049 0.0
N306 N 0.5977 0.17607 0.27264 0.0
C307 C 0.60292 0.20271 0.28778 0.0
C308 C 0.61368 0.18662 0.28923 0.0
C309 C 0.57728 0.18599 0.26135 0.0
N310 N 0.57987 0.20231 0.27026 0.0
O311 O 0.61981 0.15167 0.24111 0.0
H312 H 0.63078 0.1828 0.30198 0.0
H313 H 0.55914 0.18125 0.24743 0.0
O314 O 0.65318 0.1525 0.27947 0.0
C315 C 0.59434 0.14744 0.22602 0.0
O316 O 0.55433 0.14536 0.23017 0.0
N317 N 0.57301 0.1536 0.2945 0.0
C318 C 0.5268 0.15259 0.33068 0.0
C319 C 0.56902 0.1473 0.32906 0.0
C320 C 0.59157 0.14778 0.31072 0.0
C321 C 0.53239 0.15905 0.29588 0.0
C322 C 0.50871 0.1587 0.31385 0.0
H323 H 0.62334 0.14294 0.30938 0.0
H324 H 0.51793 0.1632 0.28264 0.0
H325 H 0.66006 0.12186 0.25873 0.0
H326 H 0.54945 0.09333 0.25896 0.0
H327 H 0.61096 0.21383 0.29893 0.0
H328 H 0.58428 0.14253 0.34168 0.0
H329 H 0.47599 0.16254 0.31414 0.0
C330 C 0.41489 0.84552 0.98803 0.0
C331 C 0.40326 0.82898 0.98436 0.0
N332 N 0.36286 0.82792 0.99047 0.0
N333 N 0.38209 0.85491 -0.0036 0.0
C334 C 0.35077 0.84386 -0.00229 0.0
H335 H 0.44548 0.85043 0.98495 0.0
Co336 Co 0.38439 0.87801 0.00387 0.0
C337 C 0.29733 0.88624 0.01613 0.0
O338 O 0.29605 0.89631 0.00247 0.0
N339 N 0.38787 0.90133 0.01135 0.0
C340 C 0.38613 0.92723 0.02949 0.0
C341 C 0.37573 0.91086 0.0296 0.0
C342 C 0.40621 0.91216 0.00058 0.0
N343 N 0.40537 0.92806 0.01121 0.0
O344 O 0.35579 0.88004 0.97886 0.0
H345 H 0.36113 0.90617 0.04241 0.0
H346 H 0.42034 0.90842 0.98531 0.0
O347 O 0.33103 0.87819 0.01834 0.0
C348 C 0.37832 0.88009 0.96274 0.0
O349 O 0.41915 0.87764 0.96389 0.0
N350 N 0.41465 0.87604 0.02772 0.0
C351 C 0.46837 0.87711 0.06179 0.0
C352 C 0.42554 0.87308 0.06336 0.0
C353 C 0.39909 0.87251 0.04602 0.0
C354 C 0.45635 0.87923 0.02562 0.0
C355 C 0.48382 0.87979 0.04243 0.0
H356 H 0.36618 0.86959 0.04753 0.0
H357 H 0.46806 0.88173 0.01086 0.0
H358 H 0.31958 0.84741 0.00364 0.0
H359 H 0.42335 0.81853 0.97806 0.0
H360 H 0.38113 0.93761 0.04224 0.0
H361 H 0.41231 0.87087 0.07798 0.0
H362 H 0.51682 0.88245 0.04028 0.0
C363 C 0.40633 0.93659 0.7244 0.0
C364 C 0.39244 0.95246 0.72372 0.0
N365 N 0.34997 0.95261 0.72484 0.0
N366 N 0.37286 0.92665 0.72573 0.0
C367 C 0.33894 0.93676 0.72606 0.0
H368 H 0.43888 0.93268 0.72464 0.0
Co369 Co 0.37557 0.90452 0.72942 0.0
C370 C 0.3134 0.88639 0.7002 0.0
O371 O 0.34085 0.87424 0.69501 0.0
N372 N 0.378 0.88215 0.73407 0.0
C373 C 0.35531 0.85853 0.74317 0.0
C374 C 0.3443 0.87435 0.74072 0.0
C375 C 0.40958 0.8708 0.73326 0.0
N376 N 0.39642 0.85631 0.73848 0.0
O377 O 0.34297 0.91008 0.75417 0.0
H378 H 0.3133 0.87983 0.74357 0.0
H379 H 0.44168 0.87286 0.72895 0.0
O380 O 0.32362 0.89942 0.71339 0.0
C381 C 0.3614 0.918 0.77031 0.0
O382 O 0.40073 0.9227 0.76868 0.0
N383 N 0.40981 0.89967 0.70541 0.0
C384 C 0.46799 0.89558 0.67264 0.0
C385 C 0.42539 0.89871 0.66905 0.0
C386 C 0.39701 0.90114 0.68573 0.0
C387 C 0.45152 0.89776 0.70938 0.0
C388 C 0.48103 0.8953 0.69319 0.0
H389 H 0.36517 0.90478 0.68282 0.0
H390 H 0.46216 0.89865 0.72536 0.0
H391 H 0.30689 0.93261 0.72765 0.0
H392 H 0.41231 0.96322 0.72341 0.0
H393 H 0.33484 0.84947 0.74841 0.0
H394 H 0.4141 0.89951 0.65353 0.0
H395 H 0.51396 0.89378 0.69687 0.0
C396 C 0.58795 0.6542 0.48406 0.0
C397 C 0.59742 0.67097 0.48831 0.0
N398 N 0.63774 0.67298 0.48265 0.0
N399 N 0.62205 0.64563 0.47574 0.0
C400 C 0.65196 0.65738 0.47514 0.0
H401 H 0.55797 0.64858 0.48664 0.0
Co402 Co 0.62327 0.62255 0.46729 0.0
C403 C 0.71159 0.6173 0.45455 0.0
O404 O 0.71617 0.60652 0.46717 0.0
N405 N 0.6233 0.59929 0.45889 0.0
C406 C 0.62808 0.57366 0.44008 0.0
C407 C 0.63838 0.59019 0.44095 0.0
C408 C 0.60325 0.58808 0.46843 0.0
N409 N 0.60578 0.57236 0.45736 0.0
O410 O 0.65322 0.62081 0.49201 0.0
H411 H 0.65441 0.5953 0.42884 0.0
H412 H 0.58618 0.59144 0.48297 0.0
O413 O 0.67594 0.6242 0.45299 0.0
C414 C 0.63224 0.62001 0.50843 0.0
O415 O 0.59085 0.61983 0.50753 0.0
N416 N 0.59216 0.62455 0.44367 0.0
C417 C 0.5371 0.62808 0.41137 0.0
C418 C 0.57949 0.63298 0.41076 0.0
C419 C 0.60651 0.63124 0.42719 0.0
C420 C 0.55125 0.61971 0.44457 0.0
C421 C 0.52315 0.62134 0.42858 0.0
H422 H 0.6386 0.63558 0.42675 0.0
H423 H 0.54028 0.61482 0.45803 0.0
H424 H 0.68369 0.65457 0.46949 0.0
H425 H 0.5759 0.68092 0.49465 0.0
H426 H 0.63481 0.56352 0.42725 0.0
H427 H 0.5917 0.63817 0.39776 0.0
H428 H 0.49055 0.61775 0.43001 0.0
C429 C 0.58449 0.62476 0.74226 0.0
C430 C 0.59382 0.60797 0.73817 0.0
N431 N 0.63467 0.60602 0.74297 0.0
N432 N 0.61917 0.63337 0.74971 0.0
C433 C 0.64933 0.62165 0.74982 0.0
H434 H 0.55425 0.63036 0.74013 0.0
Co435 Co 0.62103 0.65643 0.75816 0.0
C436 C 0.7087 0.66119 0.77203 0.0
O437 O 0.71438 0.67193 0.75944 0.0
N438 N 0.62184 0.67967 0.76658 0.0
C439 C 0.62791 0.70527 0.78533 0.0
C440 C 0.63657 0.68863 0.78469 0.0
C441 C 0.60349 0.69107 0.75673 0.0
N442 N 0.60692 0.70676 0.76775 0.0
O443 O 0.65248 0.65798 0.73383 0.0
H444 H 0.65139 0.68338 0.79702 0.0
H445 H 0.58707 0.6879 0.74197 0.0
O446 O 0.6727 0.65446 0.77319 0.0
C447 C 0.63203 0.65885 0.71727 0.0
O448 O 0.59062 0.65922 0.71793 0.0
N449 N 0.58836 0.65459 0.78131 0.0
C450 C 0.53012 0.6502 0.81181 0.0
C451 C 0.57222 0.64528 0.81334 0.0
C452 C 0.60093 0.64744 0.79774 0.0
C453 C 0.54781 0.65969 0.77976 0.0
C454 C 0.51811 0.65763 0.79487 0.0
H455 H 0.6327 0.64285 0.79861 0.0
H456 H 0.53834 0.66502 0.76639 0.0
H457 H 0.68122 0.62447 0.7552 0.0
H458 H 0.57219 0.59801 0.73201 0.0
H459 H 0.63485 0.71538 0.79816 0.0
H460 H 0.58246 0.63925 0.82603 0.0
H461 H 0.48594 0.66167 0.79321 0.0
C462 C 0.42083 0.34612 0.50788 0.0
C463 C 0.41018 0.32956 0.50637 0.0
N464 N 0.36776 0.3282 0.50547 0.0
N465 N 0.38541 0.35522 0.50796 0.0
C466 C 0.35362 0.34401 0.5064 0.0
H467 H 0.45242 0.35121 0.50869 0.0
Co468 Co 0.38359 0.37823 0.50922 0.0
C469 C 0.29309 0.38448 0.51402 0.0
O470 O 0.29375 0.39129 0.49717 0.0
N471 N 0.38233 0.40139 0.51059 0.0
C472 C 0.37344 0.42845 0.5227 0.0
C473 C 0.36396 0.41264 0.52574 0.0
C474 C 0.40336 0.41068 0.49867 0.0
N475 N 0.39835 0.42727 0.50568 0.0
O476 O 0.36187 0.37477 0.48159 0.0
H477 H 0.34626 0.40956 0.53876 0.0
H478 H 0.42282 0.40534 0.48546 0.0
O479 O 0.32708 0.37886 0.52066 0.0
C480 C 0.38889 0.3703 0.46724 0.0
O481 O 0.42841 0.36853 0.47254 0.0
N482 N 0.40777 0.38147 0.53566 0.0
C483 C 0.45377 0.38779 0.5727 0.0
C484 C 0.41278 0.38119 0.57242 0.0
C485 C 0.39012 0.37809 0.55359 0.0
C486 C 0.44786 0.38738 0.53556 0.0
C487 C 0.47131 0.39074 0.55391 0.0
H488 H 0.35874 0.3729 0.55342 0.0
H489 H 0.46164 0.38951 0.52104 0.0
H490 H 0.32073 0.34742 0.50604 0.0
H491 H 0.43223 0.31934 0.50562 0.0
H492 H 0.36439 0.43992 0.53292 0.0
H493 H 0.39835 0.37859 0.58659 0.0
H494 H 0.50324 0.39535 0.55328 0.0
C495 C 0.39282 0.43222 0.25275 0.0
C496 C 0.37633 0.44804 0.25583 0.0
N497 N 0.35039 0.44919 0.23974 0.0
N498 N 0.3773 0.42331 0.23485 0.0
C499 C 0.35134 0.43397 0.22722 0.0
H500 H 0.41584 0.42765 0.26261 0.0
Co501 Co 0.39662 0.40199 0.22389 0.0
C502 C 0.3284 0.38438 0.19669 0.0
O503 O 0.35452 0.37282 0.18757 0.0
N504 N 0.41875 0.38016 0.21334 0.0
C505 C 0.4589 0.35937 0.19671 0.0
C506 C 0.44883 0.37594 0.19849 0.0
C507 C 0.4115 0.36567 0.22035 0.0
N508 N 0.43563 0.35293 0.21057 0.0
O509 O 0.37537 0.39445 0.24789 0.0
H510 H 0.46397 0.38428 0.18969 0.0
H511 H 0.38907 0.36437 0.23248 0.0
O512 O 0.34197 0.39657 0.21032 0.0
C513 C 0.40188 0.39224 0.2618 0.0
O514 O 0.44207 0.39494 0.25877 0.0
N515 N 0.41918 0.41016 0.20123 0.0
C516 C 0.47192 0.41635 0.16945 0.0
C517 C 0.42997 0.41145 0.16507 0.0
C518 C 0.40377 0.40849 0.18132 0.0
C519 C 0.45797 0.41693 0.20609 0.0
C520 C 0.48503 0.42008 0.19039 0.0
H521 H 0.37242 0.40388 0.17749 0.0
H522 H 0.46923 0.41848 0.22204 0.0
H523 H 0.33515 0.43089 0.21235 0.0
H524 H 0.3834 0.45803 0.2688 0.0
H525 H 0.48308 0.35277 0.1867 0.0
H526 H 0.41854 0.40863 0.1491 0.0
H527 H 0.5169 0.42425 0.19444 0.0
C528 C 0.19017 0.19258 0.49415 0.0
C529 C 0.14689 0.19282 0.48948 0.0
C530 C 0.21445 0.20714 0.4959 0.0
C531 C 0.21712 0.24838 0.47996 0.0
H532 H 0.29563 0.25998 0.52605 0.0
C533 C 0.30082 0.31254 0.49694 0.0
C534 C 0.34302 0.31306 0.50377 0.0
C535 C 0.27708 0.29786 0.49525 0.0
C536 C 0.27431 0.25685 0.51291 0.0
H537 H 0.09549 0.20853 0.48261 0.0
H538 H 0.13769 0.23387 0.48577 0.0
H539 H 0.25469 0.23429 0.52273 0.0
H540 H 0.39279 0.29829 0.51441 0.0
H541 H 0.35206 0.27272 0.51079 0.0
H542 H 0.23696 0.27077 0.46995 0.0
C543 C 0.15289 0.22243 0.48805 0.0
C544 C 0.25077 0.24211 0.51104 0.0
C545 C 0.12858 0.20793 0.48647 0.0
C546 C 0.36068 0.29844 0.50886 0.0
C547 C 0.33702 0.28375 0.50705 0.0
C548 C 0.24085 0.26306 0.48174 0.0
C549 C 0.1961 0.22223 0.49282 0.0
C550 C 0.22177 0.23773 0.49459 0.0
C551 C 0.29488 0.28324 0.50023 0.0
C552 C 0.26969 0.26754 0.49828 0.0
H553 H 0.2052 0.18119 0.4967 0.0
H554 H 0.24774 0.20653 0.49943 0.0
H555 H 0.19548 0.24525 0.46694 0.0
H556 H 0.28602 0.3234 0.49267 0.0
H557 H 0.24456 0.29804 0.49021 0.0
C558 C 0.92555 0.94451 0.48639 0.0
C559 C 0.91975 0.9433 0.50754 0.0
C560 C 0.94275 0.95897 0.48092 0.0
C561 C 0.96089 1.00389 0.50194 0.0
H562 H 0.04214 1.00067 0.4568 0.0
C563 C 0.05526 0.06114 0.48631 0.0
C564 C 0.06178 0.06272 0.46534 0.0
C565 C 0.03781 0.04655 0.49124 0.0
C566 C 0.01912 1.00181 0.4693 0.0
H567 H 0.92871 0.9563 0.53948 0.0
H568 H 0.95854 0.98138 0.52998 0.0
H569 H 0.01186 0.97528 0.46558 0.0
H570 H 0.05423 0.05016 0.43312 0.0
H571 H 0.02382 0.0248 0.44169 0.0
H572 H 0.9681 0.03039 0.50568 0.0
C573 C 0.94905 0.97129 0.51758 0.0
C574 C 0.00174 0.98724 0.47433 0.0
C575 C 0.9319 0.95687 0.52304 0.0
C576 C 0.05035 0.04931 0.44944 0.0
C577 C 0.03287 0.03473 0.45436 0.0
C578 C 0.97823 0.01845 0.49691 0.0
C579 C 0.95456 0.97258 0.49646 0.0
C580 C 0.97252 0.98808 0.49077 0.0
C581 C 0.02637 0.03315 0.47533 0.0
C582 C 0.00768 0.01761 0.48057 0.0
H583 H 0.9161 0.9344 0.47403 0.0
H584 H 0.94608 0.9596 0.46449 0.0
H585 H 0.93792 1.00503 0.51446 0.0
H586 H 0.06425 0.07108 0.49897 0.0
H587 H 0.03389 0.04568 0.50756 0.0
C588 C 0.17445 0.08836 0.74363 0.0
C589 C 0.13537 0.08968 0.75403 0.0
C590 C 0.19624 0.07316 0.73972 0.0
C591 C 0.20512 0.03275 0.75771 0.0
H592 H 0.26007 0.01818 0.7042 0.0
C593 C 0.2837 0.96775 0.73641 0.0
C594 C 0.32299 0.96708 0.72624 0.0
C595 C 0.25904 0.98225 0.73893 0.0
C596 C 0.24525 0.02212 0.71931 0.0
H597 H 0.08898 0.07601 0.76874 0.0
H598 H 0.12663 0.04953 0.76174 0.0
H599 H 0.22139 0.04449 0.71058 0.0
H600 H 0.36617 0.981 0.71002 0.0
H601 H 0.32385 1.00628 0.71481 0.0
H602 H 0.22934 1.01051 0.76656 0.0
C603 C 0.14057 0.06027 0.75668 0.0
C604 C 0.22308 0.03723 0.72297 0.0
C605 C 0.11873 0.07543 0.76049 0.0
C606 C 0.33642 0.98112 0.7182 0.0
C607 C 0.31183 0.99559 0.72072 0.0
C608 C 0.22739 0.01767 0.75409 0.0
C609 C 0.17958 0.05893 0.74623 0.0
C610 C 0.20285 0.04276 0.74224 0.0
C611 C 0.273 0.99642 0.73131 0.0
C612 C 0.24791 1.01218 0.73486 0.0
H613 H 0.18804 0.09902 0.73826 0.0
H614 H 0.22641 0.07261 0.73182 0.0
H615 H 0.1904 0.03674 0.77284 0.0
H616 H 0.2724 0.95726 0.74293 0.0
H617 H 0.22904 0.98236 0.74692 0.0
C618 C 0.93562 0.33773 0.74386 0.0
C619 C 0.92381 0.33796 0.72304 0.0
C620 C 0.95442 0.32353 0.74924 0.0
C621 C 0.01122 0.28458 0.72632 0.0
H622 H 0.97786 0.27019 0.77763 0.0
C623 C 0.06194 0.22078 0.74598 0.0
C624 C 0.07427 0.22065 0.76675 0.0
C625 C 0.04363 0.23505 0.74052 0.0
C626 C 0.98786 0.27412 0.76334 0.0
H627 H 0.9236 0.32343 0.69152 0.0
H628 H 0.95533 0.2987 0.70095 0.0
H629 H 0.94668 0.29531 0.76861 0.0
H630 H 0.07609 0.23543 0.79811 0.0
H631 H 0.04497 0.26025 0.78856 0.0
H632 H 0.05229 0.26335 0.72104 0.0
C633 C 0.95043 0.30952 0.71312 0.0
C634 C 0.97002 0.28856 0.75819 0.0
C635 C 0.93166 0.32368 0.70775 0.0
C636 C 0.06758 0.2351 0.78191 0.0
C637 C 0.04919 0.24931 0.77649 0.0
C638 C 0.02901 0.27013 0.73146 0.0
C639 C 0.96198 0.30922 0.73394 0.0
C640 C 0.98146 0.29398 0.7396 0.0
C641 C 0.037 0.24949 0.75573 0.0
C642 C 0.01759 0.26473 0.75006 0.0
H643 H 0.92981 0.34843 0.75606 0.0
H644 H 0.96331 0.32381 0.7654 0.0
H645 H 0.02127 0.28851 0.71204 0.0
H646 H 0.06687 0.20992 0.73389 0.0
H647 H 0.03426 0.2347 0.72442 0.0
C648 C 0.80002 0.81226 0.50259 0.0
C649 C 0.83358 0.8132 0.48868 0.0
C650 C 0.77774 0.79731 0.50193 0.0
C651 C 0.75567 0.75646 0.46763 0.0
H652 H 0.72592 0.74249 0.51971 0.0
C653 C 0.69374 0.69 0.47006 0.0
C654 C 0.66022 0.68857 0.48381 0.0
C655 C 0.71453 0.70527 0.47077 0.0
C656 C 0.73357 0.74628 0.50501 0.0
H657 H 0.869 0.79917 0.46275 0.0
H658 H 0.83086 0.77316 0.46184 0.0
H659 H 0.76158 0.76914 0.52053 0.0
H660 H 0.62312 0.70209 0.50944 0.0
H661 H 0.65888 0.72869 0.51049 0.0
H662 H 0.72783 0.73358 0.45211 0.0
C663 C 0.8215 0.78398 0.4732 0.0
C664 C 0.75398 0.76159 0.50548 0.0
C665 C 0.84377 0.79889 0.47389 0.0
C666 C 0.64843 0.70276 0.49845 0.0
C667 C 0.66928 0.71799 0.49921 0.0
C668 C 0.73531 0.74115 0.46716 0.0
C669 C 0.78833 0.78295 0.48727 0.0
C670 C 0.76545 0.76686 0.4868 0.0
C671 C 0.70246 0.71949 0.4853 0.0
C672 C 0.7241 0.73583 0.48584 0.0
H673 H 0.79146 0.82297 0.51428 0.0
H674 H 0.75208 0.79703 0.51286 0.0
H675 H 0.76337 0.76023 0.45292 0.0
H676 H 0.70349 0.67942 0.45846 0.0
H677 H 0.74027 0.7059 0.45998 0.0
C678 C 0.851 0.98222 0.23761 0.0
C679 C 0.83344 0.96659 0.22914 0.0
C680 C 0.82637 0.99667 0.24053 0.0
C681 C 0.72875 1.01443 0.22288 0.0
H682 H 0.74279 0.04727 0.27371 0.0
C683 C 0.61965 0.07206 0.24404 0.0
C684 C 0.63806 0.08729 0.2535 0.0
C685 C 0.6431 0.05727 0.24078 0.0
C686 C 0.73884 0.03834 0.2593 0.0
H687 H 0.77604 0.95397 0.21702 0.0
H688 H 0.73274 0.97927 0.22229 0.0
H689 H 0.78354 0.0215 0.2688 0.0
H690 H 0.69595 0.09879 0.26687 0.0
H691 H 0.73707 0.07311 0.26078 0.0
H692 H 0.68422 0.03134 0.21332 0.0
C693 C 0.76579 0.9803 0.22653 0.0
C694 C 0.76215 0.02354 0.2565 0.0
C695 C 0.79047 0.96579 0.22369 0.0
C696 C 0.68076 0.08736 0.25939 0.0
C697 C 0.70423 0.07256 0.25612 0.0
C698 C 0.70548 0.02928 0.22565 0.0
C699 C 0.78347 0.99592 0.23505 0.0
C700 C 0.75756 1.01143 0.23822 0.0
C701 C 0.68564 0.0573 0.24689 0.0
C702 C 0.71033 0.04146 0.24388 0.0
H703 H 0.88378 0.98332 0.24227 0.0
H704 H 0.84114 1.00849 0.24692 0.0
H705 H 0.72485 1.00547 0.2085 0.0
H706 H 0.58706 0.07152 0.23905 0.0
H707 H 0.6276 0.04575 0.2338 0.0
C708 C 0.90504 0.82421 0.23485 0.0
C709 C 0.92407 0.84002 0.23975 0.0
C710 C 0.92759 0.80981 0.23669 0.0
C711 C 0.01524 0.79517 0.26505 0.0
H712 H 0.00966 0.75559 0.22177 0.0
C713 C 0.10871 0.73538 0.27172 0.0
C714 C 0.08918 0.71994 0.2644 0.0
C715 C 0.0909 0.75022 0.26775 0.0
C716 C 0.01116 0.76644 0.23415 0.0
H717 H 0.98171 0.85313 0.25039 0.0
H718 H 0.02118 0.8279 0.25383 0.0
H719 H 0.97432 0.7811 0.21655 0.0
H720 H 0.03533 0.70798 0.24742 0.0
H721 H 0.00366 0.73378 0.24091 0.0
H722 H 0.05081 0.78048 0.283 0.0
C723 C 0.98878 0.8267 0.24849 0.0
C724 C 0.99105 0.78109 0.23109 0.0
C725 C 0.96635 0.84111 0.24636 0.0
C726 C 0.05148 0.71965 0.25299 0.0
C727 C 0.0334 0.73449 0.24921 0.0
C728 C 0.03496 0.78047 0.26824 0.0
C729 C 0.96958 0.81089 0.24372 0.0
C730 C 0.99268 0.79558 0.24655 0.0
C731 C 0.05282 0.75 0.25656 0.0
C732 C 0.033 0.76585 0.25288 0.0
H733 H 0.87265 0.82298 0.22954 0.0
H734 H 0.91184 0.79783 0.23304 0.0
H735 H 0.01659 0.80609 0.27736 0.0
H736 H 0.13807 0.73597 0.28032 0.0
H737 H 0.10726 0.76184 0.27334 0.0
C738 C 0.30516 0.81213 0.00385 0.0
C739 C 0.33842 0.81284 0.9897 0.0
C740 C 0.28264 0.79728 0.00352 0.0
C741 C 0.25864 0.75647 0.96978 0.0
H742 H 0.23061 0.74283 0.02227 0.0
C743 C 0.1945 0.69052 0.97305 0.0
C744 C 0.16165 0.68931 0.98725 0.0
C745 C 0.21586 0.70563 0.9735 0.0
C746 C 0.23776 0.74653 0.00747 0.0
H747 H 0.37314 0.79851 0.96374 0.0
H748 H 0.33446 0.77266 0.96336 0.0
H749 H 0.267 0.76926 0.02258 0.0
H750 H 0.12637 0.70307 0.01342 0.0
H751 H 0.16304 0.72941 0.01399 0.0
H752 H 0.22947 0.73376 0.95466 0.0
C753 C 0.32557 0.78359 0.97466 0.0
C754 C 0.2586 0.76171 0.00765 0.0
C755 C 0.34812 0.79839 0.97503 0.0
C756 C 0.15112 0.70356 0.00208 0.0
C757 C 0.17251 0.71865 0.00256 0.0
C758 C 0.23779 0.74131 0.9696 0.0
C759 C 0.29268 0.7828 0.98896 0.0
C760 C 0.26945 0.76685 0.9888 0.0
C761 C 0.20501 0.71991 0.9882 0.0
C762 C 0.22718 0.7361 0.98843 0.0
H763 H 0.29702 0.82296 0.01546 0.0
H764 H 0.25722 0.79717 0.01462 0.0
H765 H 0.26588 0.76015 0.95497 0.0
H766 H 0.20327 0.67989 0.96129 0.0
H767 H 0.24106 0.70608 0.96237 0.0
C768 C 0.95552 0.45546 0.02864 0.0
C769 C 0.94358 0.44149 0.01371 0.0
C770 C 0.97458 0.46926 0.02248 0.0
C771 C 0.98542 0.4906 0.97739 0.0
H772 H 0.07869 0.51321 0.00927 0.0
C773 C 0.07554 0.54472 0.95054 0.0
C774 C 0.08749 0.55836 0.966 0.0
C775 C 0.05915 0.53019 0.95609 0.0
C776 C 0.05236 0.50717 0.00033 0.0
H777 H 0.94241 0.43111 0.98053 0.0
H778 H 0.97602 0.45519 0.96974 0.0
H779 H 0.04843 0.48828 0.01929 0.0
H780 H 0.09196 0.56717 -0.00049 0.0
H781 H 0.06246 0.54204 0.00916 0.0
H782 H 0.98893 0.50957 0.95859 0.0
C783 C 0.97038 0.45547 0.98625 0.0
C784 C 0.03506 0.49285 0.00605 0.0
C785 C 0.95151 0.4416 -0.00756 0.0
C786 C 0.08271 0.55703 0.98717 0.0
C787 C 0.06625 0.5425 -0.00729 0.0
C788 C 0.00261 0.50495 0.97171 0.0
C789 C 0.98204 0.46949 0.0012 0.0
C790 C 0.00128 0.48442 -0.0053 0.0
C791 C 0.05418 0.52889 0.97724 0.0
C792 C 0.03623 0.51346 0.98314 0.0
H793 H 0.95033 0.45571 0.04516 0.0
H794 H 0.9828 0.4799 0.03439 0.0
H795 H 0.95902 0.48455 0.9685 0.0
H796 H 0.07827 0.54529 0.93409 0.0
H797 H 0.05067 0.5199 0.94375 0.0
C798 C 0.20084 0.58729 0.24198 0.0
C799 C 0.15789 0.5882 0.23683 0.0
C800 C 0.22096 0.57184 0.24064 0.0
C801 C 0.19923 0.52661 0.23823 0.0
H802 H 0.31573 0.52189 0.22002 0.0
C803 C 0.28894 0.46326 0.22689 0.0
C804 C 0.32895 0.46409 0.23633 0.0
C805 C 0.26726 0.47795 0.22503 0.0
C806 C 0.28321 0.52302 0.22519 0.0
H807 H 0.10258 0.57322 0.22645 0.0
H808 H 0.13787 0.54647 0.22348 0.0
H809 H 0.27951 0.54838 0.22082 0.0
H810 H 0.37835 0.48088 0.25031 0.0
H811 H 0.34085 0.50634 0.24705 0.0
H812 H 0.20314 0.50117 0.24254 0.0
C813 C 0.15591 0.55772 0.22887 0.0
C814 C 0.26247 0.53825 0.22576 0.0
C815 C 0.13573 0.57316 0.23032 0.0
C816 C 0.34734 0.47983 0.24322 0.0
C817 C 0.32601 0.49443 0.24116 0.0
C818 C 0.21993 0.51133 0.23751 0.0
C819 C 0.19882 0.55683 0.234 0.0
C820 C 0.22035 0.54034 0.23256 0.0
C821 C 0.28554 0.4937 0.23225 0.0
C822 C 0.26234 0.50943 0.23126 0.0
H823 H 0.21925 0.5985 0.24688 0.0
H824 H 0.25388 0.57169 0.24504 0.0
H825 H 0.167 0.52777 0.2438 0.0
H826 H 0.274 0.4513 0.2215 0.0
H827 H 0.23621 0.47699 0.21796 0.0
C828 C 0.62666 0.20855 -0.00648 0.0
C829 C 0.64734 0.19323 -0.00674 0.0
C830 C 0.64951 0.22344 -0.00456 0.0
C831 C 0.75276 0.24242 0.01268 0.0
H832 H 0.72113 0.2752 0.97901 0.0
C833 C 0.85958 0.29827 0.00455 0.0
C834 C 0.84063 0.31379 0.0039 0.0
C835 C 0.83508 0.28397 0.00421 0.0
C836 C 0.73005 0.2663 0.98875 0.0
H837 H 0.70862 0.18173 -0.00495 0.0
H838 H 0.74848 0.20763 -0.00198 0.0
H839 H 0.68067 0.24944 0.97633 0.0
H840 H 0.78068 0.32635 0.00258 0.0
H841 H 0.73777 0.30139 0.0023 0.0
H842 H 0.80228 0.25923 0.02502 0.0
C843 C 0.71444 0.20814 -0.00305 0.0
C844 C 0.70685 0.2515 0.9872 0.0
C845 C 0.69157 0.19322 -0.005 0.0
C846 C 0.79636 0.31465 0.00323 0.0
C847 C 0.77177 0.3003 0.00284 0.0
C848 C 0.77594 0.25722 0.01424 0.0
C849 C 0.6937 0.22344 -0.00284 0.0
C850 C 0.71803 0.23932 -0.00094 0.0
C851 C 0.79086 0.28475 0.00322 0.0
C852 C 0.76505 0.26931 0.0022 0.0
H853 H 0.59275 0.20908 -0.00803 0.0
H854 H 0.63243 0.235 -0.00424 0.0
H855 H 0.76183 0.23347 0.02233 0.0
H856 H 0.8935 0.29714 0.00538 0.0
H857 H 0.85093 0.27221 0.00431 0.0
C858 C 0.63591 0.57558 0.74287 0.0
C859 C 0.65743 0.59048 0.74165 0.0
C860 C 0.65786 0.56055 0.74173 0.0
C861 C 0.75834 0.53979 0.72363 0.0
H862 H 0.72845 0.50952 0.76097 0.0
C863 C 0.86145 0.48289 0.73164 0.0
C864 C 0.84128 0.46794 0.73395 0.0
C865 C 0.8384 0.49759 0.73224 0.0
C866 C 0.73685 0.51771 0.75023 0.0
H867 H 0.7191 0.60112 0.73806 0.0
H868 H 0.75744 0.57494 0.73632 0.0
H869 H 0.68976 0.53562 0.76275 0.0
H870 H 0.7806 0.45691 0.73872 0.0
H871 H 0.74028 0.48247 0.73931 0.0
H872 H 0.80534 0.5219 0.71105 0.0
C873 C 0.72347 0.57488 0.73801 0.0
C874 C 0.71469 0.5327 0.75127 0.0
C875 C 0.70152 0.58994 0.73923 0.0
C876 C 0.79726 0.4681 0.73673 0.0
C877 C 0.77415 0.48284 0.7373 0.0
C878 C 0.78042 0.52479 0.72254 0.0
C879 C 0.70192 0.55999 0.73927 0.0
C880 C 0.72526 0.54396 0.73804 0.0
C881 C 0.79445 0.49779 0.73509 0.0
C882 C 0.77012 0.51357 0.73589 0.0
H883 H 0.60207 0.57553 0.74497 0.0
H884 H 0.64021 0.5493 0.74256 0.0
H885 H 0.76685 0.54803 0.71296 0.0
H886 H 0.89514 0.48327 0.7292 0.0
H887 H 0.85523 0.50888 0.73072 0.0
C888 C 0.58546 0.04666 0.95616 0.0
C889 C 0.56938 0.06236 0.96547 0.0
C890 C 0.56793 0.03194 0.96069 0.0
C891 C 0.50289 0.01604 0.0002 0.0
H892 H 0.48661 0.97762 0.95599 0.0
C893 C 0.40717 0.95874 0.01357 0.0
C894 C 0.42282 0.94281 0.00496 0.0
C895 C 0.42498 0.9731 0.00825 0.0
C896 C 0.49136 0.98817 0.96856 0.0
H897 H 0.52146 0.07473 0.98662 0.0
H898 H 0.49108 0.04917 -0.00548 0.0
H899 H 0.51802 1.00304 0.94782 0.0
H900 H 0.46953 0.92961 0.98377 0.0
H901 H 0.5006 0.95468 0.97449 0.0
H902 H 0.47629 1.00121 0.02095 0.0
C903 C 0.51775 0.04823 0.98396 0.0
C904 C 0.50939 1.00275 0.96388 0.0
C905 C 0.53525 0.06293 0.97942 0.0
C906 C 0.45632 0.94162 0.99055 0.0
C907 C 0.47418 0.95602 0.98523 0.0
C908 C 0.48489 1.00147 0.00487 0.0
C909 C 0.53387 0.03254 0.97468 0.0
C910 C 0.51523 0.0169 0.97963 0.0
C911 C 0.45897 0.97196 -0.00583 0.0
C912 C 0.4787 0.98737 0.98911 0.0
H913 H 0.61205 0.04571 0.94557 0.0
H914 H 0.58154 0.02009 0.95348 0.0
H915 H 0.50762 0.02657 0.0128 0.0
H916 H 0.38088 0.96014 0.02436 0.0
H917 H 0.41186 0.98513 0.01511 0.0
C918 C 0.43749 0.33399 0.23634 0.0
C919 C 0.44035 0.33648 0.21554 0.0
C920 C 0.44753 0.31847 0.24144 0.0
C921 C 0.50909 0.28023 0.22082 0.0
H922 H 0.45525 0.26318 0.2662 0.0
C923 C 0.55348 0.2163 0.24197 0.0
C924 C 0.56004 0.21632 0.26337 0.0
C925 C 0.5354 0.23016 0.23536 0.0
C926 C 0.47069 0.26782 0.25353 0.0
H927 H 0.45329 0.32444 0.18366 0.0
H928 H 0.46967 0.29727 0.19236 0.0
H929 H 0.4286 0.28864 0.25597 0.0
H930 H 0.55138 0.23067 0.29463 0.0
H931 H 0.52008 0.25479 0.28313 0.0
H932 H 0.55117 0.25941 0.21842 0.0
C933 C 0.46106 0.30739 0.20489 0.0
C934 C 0.4555 0.28245 0.2477 0.0
C935 C 0.45145 0.32293 0.19985 0.0
C936 C 0.54732 0.23034 0.27802 0.0
C937 C 0.5289 0.2441 0.27144 0.0
C938 C 0.52404 0.26555 0.22655 0.0
C939 C 0.46028 0.30504 0.22581 0.0
C940 C 0.47475 0.28896 0.23138 0.0
C941 C 0.52303 0.24424 0.25003 0.0
C942 C 0.50533 0.25927 0.24312 0.0
H943 H 0.4295 0.34426 0.2488 0.0
H944 H 0.44697 0.31723 0.25775 0.0
H945 H 0.52534 0.28499 0.20847 0.0
H946 H 0.56312 0.20572 0.23032 0.0
H947 H 0.53102 0.22984 0.21876 0.0
C948 C 0.46347 0.84268 0.74536 0.0
C949 C 0.4209 0.84152 0.73924 0.0
C950 C 0.4864 0.8283 0.74711 0.0
C951 C 0.48883 0.78266 0.72962 0.0
H952 H 0.55121 0.78224 0.78083 0.0
C953 C 0.55112 0.72142 0.75154 0.0
C954 C 0.58917 0.72184 0.7627 0.0
C955 C 0.53287 0.73618 0.7476 0.0
C956 C 0.53464 0.78217 0.76625 0.0
H957 H 0.36947 0.82437 0.72946 0.0
H958 H 0.40949 0.79928 0.73234 0.0
H959 H 0.51622 0.80777 0.77552 0.0
H960 H 0.63866 0.73799 0.77782 0.0
H961 H 0.60755 0.7637 0.77051 0.0
H962 H 0.50742 0.75716 0.72018 0.0
C963 C 0.4251 0.81129 0.73588 0.0
C964 C 0.51447 0.79683 0.76326 0.0
C965 C 0.40208 0.82566 0.73441 0.0
C966 C 0.60901 0.73731 0.76944 0.0
C967 C 0.59104 0.75205 0.7653 0.0
C968 C 0.50938 0.76804 0.73249 0.0
C969 C 0.46738 0.81245 0.74245 0.0
C970 C 0.49096 0.79718 0.74502 0.0
C971 C 0.55245 0.75173 0.75452 0.0
C972 C 0.53219 0.76753 0.75096 0.0
H973 H 0.47869 0.85474 0.74931 0.0
H974 H 0.51901 0.82956 0.7521 0.0
H975 H 0.47135 0.78262 0.71528 0.0
H976 H 0.53476 0.70973 0.74641 0.0
H977 H 0.5028 0.7354 0.73958 0.0
C978 C 0.54871 0.55852 0.47386 0.0
C979 C 0.58613 0.55749 0.4621 0.0
C980 C 0.52906 0.54407 0.47794 0.0
C981 C 0.52419 0.49807 0.45969 0.0
H982 H 0.47035 0.49898 0.51345 0.0
C983 C 0.45698 0.43906 0.48751 0.0
C984 C 0.4182 0.44106 0.49822 0.0
C985 C 0.47777 0.45288 0.4821 0.0
C986 C 0.48491 0.49856 0.49828 0.0
H987 H 0.63265 0.54044 0.44579 0.0
H988 H 0.59882 0.51523 0.45316 0.0
H989 H 0.50668 0.52374 0.50655 0.0
H990 H 0.36981 0.45906 0.51038 0.0
H991 H 0.40605 0.483 0.50115 0.0
H992 H 0.50264 0.47273 0.45161 0.0
C993 C 0.58408 0.52719 0.45885 0.0
C994 C 0.5057 0.51278 0.49429 0.0
C995 C 0.60359 0.54165 0.45466 0.0
C996 C 0.40007 0.45708 0.50263 0.0
C997 C 0.42085 0.47084 0.49733 0.0
C998 C 0.50357 0.48378 0.46375 0.0
C999 C 0.54647 0.52819 0.47051 0.0
C1000 C 0.52534 0.5128 0.47488 0.0
C1001 C 0.46029 0.46898 0.48733 0.0
C1002 C 0.48335 0.48392 0.48303 0.0
H1003 H 0.53397 0.57047 0.47951 0.0
H1004 H 0.49974 0.54535 0.48663 0.0
H1005 H 0.53847 0.49766 0.44446 0.0
H1006 H 0.47205 0.42696 0.48398 0.0
H1007 H 0.5082 0.45104 0.47446 0.0
C1008 C 0.26366 0.1134 0.45083 0.0
C1009 C 0.22857 0.124 0.45134 0.0
C1010 C 0.3008 0.11679 0.44079 0.0
C1011 C 0.35915 0.15041 0.42247 0.0
H1012 H 0.40687 0.11477 0.38137 0.0
C1013 C 0.46971 0.16255 0.35673 0.0
C1014 C 0.50064 0.15065 0.34905 0.0
C1015 C 0.44158 0.15972 0.37223 0.0
C1016 C 0.39463 0.1248 0.3931 0.0
H1017 H 0.20514 0.14664 0.44208 0.0
H1018 H 0.26996 0.15255 0.42471 0.0
H1019 H 0.34798 0.10886 0.40292 0.0
H1020 H 0.52741 0.12674 0.3524 0.0
H1021 H 0.47939 0.12212 0.37999 0.0
H1022 H 0.40551 0.16641 0.41258 0.0
C1023 C 0.26879 0.14166 0.43211 0.0
C1024 C 0.36076 0.1214 0.40539 0.0
C1025 C 0.23156 0.13819 0.44192 0.0
C1026 C 0.50419 0.13625 0.35803 0.0
C1027 C 0.47625 0.13348 0.37366 0.0
C1028 C 0.39329 0.15379 0.41031 0.0
C1029 C 0.30366 0.13095 0.43133 0.0
C1030 C 0.34217 0.13424 0.41988 0.0
C1031 C 0.44392 0.14498 0.38056 0.0
C1032 C 0.41088 0.14109 0.39517 0.0
H1033 H 0.26233 0.10238 0.45797 0.0
H1034 H 0.32733 0.10837 0.44047 0.0
H1035 H 0.34572 0.16049 0.43375 0.0
H1036 H 0.46655 0.17391 0.35039 0.0
H1037 H 0.4169 0.1688 0.37702 0.0
C1038 C 0.76135 0.16711 0.28638 0.0
C1039 C 0.72624 0.1566 0.28649 0.0
C1040 C 0.79664 0.16536 0.29874 0.0
C1041 C 0.87501 0.15395 0.31996 0.0
H1042 H 0.84969 0.14546 0.37547 0.0
C1043 C 0.00093 0.13671 0.37765 0.0
C1044 C 0.99412 0.14272 0.39904 0.0
C1045 C 0.97095 0.13957 0.36287 0.0
C1046 C 0.85739 0.14802 0.36012 0.0
H1047 H 0.70152 0.13538 0.29857 0.0
H1048 H 0.76306 0.13217 0.31975 0.0
H1049 H 0.79252 0.14778 0.35142 0.0
H1050 H 0.95276 0.15747 0.42173 0.0
H1051 H 0.90104 0.16279 0.39604 0.0
H1052 H 0.94012 0.15453 0.32904 0.0
C1053 C 0.763 0.14207 0.31065 0.0
C1054 C 0.82458 0.14909 0.34619 0.0
C1055 C 0.72776 0.14389 0.29846 0.0
C1056 C 0.95826 0.15243 0.40533 0.0
C1057 C 0.92863 0.15541 0.39063 0.0
C1058 C 0.90802 0.15291 0.33398 0.0
C1059 C 0.79746 0.15301 0.31131 0.0
C1060 C 0.83293 0.15198 0.32592 0.0
C1061 C 0.93393 0.14859 0.36931 0.0
C1062 C 0.89949 0.14996 0.35424 0.0
H1063 H 0.76107 0.177 0.27727 0.0
H1064 H 0.82259 0.17404 0.299 0.0
H1065 H 0.88245 0.1561 0.30439 0.0
H1066 H 0.02841 0.12918 0.37247 0.0
H1067 H 0.97587 0.13409 0.34657 0.0
C1068 C 0.23308 0.14397 0.79832 0.0
C1069 C 0.23306 0.15678 0.78648 0.0
C1070 C 0.26764 0.14172 0.81075 0.0
C1071 C 0.32806 0.14778 0.84682 0.0
H1072 H 0.4445 0.15344 0.83125 0.0
C1073 C 0.45927 0.15086 0.90747 0.0
C1074 C 0.49606 0.14169 0.90139 0.0
C1075 C 0.42981 0.15362 0.89257 0.0
C1076 C 0.41214 0.15172 0.83576 0.0
H1077 H 0.26977 0.1769 0.77775 0.0
H1078 H 0.32998 0.17324 0.79995 0.0
H1079 H 0.38825 0.15527 0.80601 0.0
H1080 H 0.53187 0.12873 0.87498 0.0
H1081 H 0.47971 0.13321 0.84876 0.0
H1082 H 0.35158 0.14376 0.87624 0.0
C1083 C 0.30348 0.16478 0.79937 0.0
C1084 C 0.37992 0.15293 0.82138 0.0
C1085 C 0.26894 0.16693 0.78673 0.0
C1086 C 0.50371 0.13587 0.88002 0.0
C1087 C 0.47393 0.13849 0.86505 0.0
C1088 C 0.36012 0.14651 0.86108 0.0
C1089 C 0.30283 0.15235 0.81183 0.0
C1090 C 0.33751 0.15095 0.82677 0.0
C1091 C 0.43622 0.1471 0.87123 0.0
C1092 C 0.40253 0.14853 0.8558 0.0
H1093 H 0.20616 0.13576 0.79816 0.0
H1094 H 0.26655 0.13176 0.81974 0.0
H1095 H 0.29573 0.14646 0.85164 0.0
H1096 H 0.45307 0.15576 0.92384 0.0
H1097 H 0.40166 0.16069 0.89781 0.0
C1098 C 0.00574 0.14017 0.85774 0.0
C1099 C 0.00621 0.15511 0.84977 0.0
C1100 C 0.97585 0.13769 0.87269 0.0
C1101 C 0.86878 0.15001 0.88752 0.0
H1102 H 0.88881 0.12986 0.93632 0.0
C1103 C 0.73348 0.14078 0.94271 0.0
C1104 C 0.7328 0.126 0.95097 0.0
C1105 C 0.76895 0.14506 0.93217 0.0
C1106 C 0.88265 0.13532 0.92261 0.0
H1107 H 0.97788 0.17966 0.85246 0.0
H1108 H 0.92527 0.17519 0.87827 0.0
H1109 H 0.94851 0.13634 0.9153 0.0
H1110 H 0.76885 0.10412 0.95473 0.0
H1111 H 0.8304 0.11128 0.9356 0.0
H1112 H 0.80318 0.1485 0.89411 0.0
C1113 C 0.94772 0.16534 0.87275 0.0
C1114 C 0.91685 0.1391 0.91068 0.0
C1115 C 0.97775 0.16787 0.85795 0.0
C1116 C 0.7685 0.11562 0.94858 0.0
C1117 C 0.80388 0.11979 0.93775 0.0
C1118 C 0.83468 0.14607 0.89924 0.0
C1119 C 0.94575 0.15006 0.87981 0.0
C1120 C 0.91016 0.14653 0.89308 0.0
C1121 C 0.80441 0.13452 0.92929 0.0
C1122 C 0.84112 0.13872 0.91698 0.0
H1123 H 0.02692 0.13002 0.85163 0.0
H1124 H 0.97482 0.12576 0.8778 0.0
H1125 H 0.86268 0.15541 0.87375 0.0
H1126 H 0.70665 0.14914 0.94443 0.0
H1127 H 0.76852 0.15668 0.9263 0.0
C1128 C 0.49719 0.90371 0.64004 0.0
C1129 C 0.4991 0.89352 0.6553 0.0
C1130 C 0.52718 0.90212 0.62408 0.0
C1131 C 0.6075 0.87348 0.59631 0.0
H1132 H 0.65347 0.91407 0.58198 0.0
C1133 C 0.75605 0.87476 0.54485 0.0
C1134 C 0.7558 0.88578 0.53052 0.0
C1135 C 0.72305 0.87489 0.55913 0.0
C1136 C 0.64055 0.90261 0.58559 0.0
H1137 H 0.53352 0.87344 0.66554 0.0
H1138 H 0.58645 0.87089 0.63787 0.0
H1139 H 0.59922 0.91589 0.6088 0.0
H1140 H 0.71995 0.90513 0.51941 0.0
H1141 H 0.66228 0.90522 0.54418 0.0
H1142 H 0.6493 0.86023 0.57318 0.0
C1143 C 0.56146 0.87999 0.63814 0.0
C1144 C 0.60946 0.90365 0.60097 0.0
C1145 C 0.53144 0.88158 0.65411 0.0
C1146 C 0.72126 0.89655 0.53033 0.0
C1147 C 0.68833 0.89669 0.54461 0.0
C1148 C 0.63869 0.87244 0.58092 0.0
C1149 C 0.55982 0.89032 0.62303 0.0
C1150 C 0.59257 0.88911 0.6065 0.0
C1151 C 0.68915 0.88603 0.55936 0.0
C1152 C 0.65552 0.887 0.5754 0.0
H1153 H 0.47299 0.91317 0.64063 0.0
H1154 H 0.52478 0.91014 0.61253 0.0
H1155 H 0.59475 0.86204 0.60006 0.0
H1156 H 0.78204 0.86621 0.5453 0.0
H1157 H 0.72471 0.8666 0.57039 0.0
C1158 C 0.23991 0.89693 0.69685 0.0
C1159 C 0.27178 0.88527 0.68986 0.0
C1160 C 0.20089 0.89594 0.68666 0.0
C1161 C 0.13477 0.86748 0.64811 0.0
H1162 H 0.08564 0.90884 0.63798 0.0
C1163 C 0.02221 0.89127 0.58367 0.0
C1164 C 0.9915 0.87862 0.58058 0.0
C1165 C 0.0509 0.89249 0.60011 0.0
C1166 C 0.09899 0.89716 0.64062 0.0
H1167 H 0.28773 0.86338 0.6668 0.0
H1168 H 0.22059 0.86196 0.6487 0.0
H1169 H 0.14713 0.90973 0.66048 0.0
H1170 H 0.96587 0.85769 0.5929 0.0
H1171 H 0.01538 0.86011 0.6221 0.0
H1172 H 0.08836 0.85489 0.62714 0.0
C1173 C 0.22502 0.87161 0.66236 0.0
C1174 C 0.13395 0.89768 0.65379 0.0
C1175 C 0.26377 0.87252 0.67265 0.0
C1176 C 0.98911 0.86759 0.59486 0.0
C1177 C 0.01775 0.86888 0.61146 0.0
C1178 C 0.10009 0.86696 0.63477 0.0
C1179 C 0.19312 0.88334 0.66917 0.0
C1180 C 0.15292 0.88283 0.65728 0.0
C1181 C 0.04938 0.88121 0.6141 0.0
C1182 C 0.08243 0.88179 0.63045 0.0
H1183 H 0.24507 0.90684 0.71018 0.0
H1184 H 0.17687 0.90505 0.69248 0.0
H1185 H 0.14802 0.8558 0.65081 0.0
H1186 H 0.02441 0.9002 0.57322 0.0
H1187 H 0.07512 0.902 0.60143 0.0
C1188 C 0.74556 0.89664 0.19647 0.0
C1189 C 0.77697 0.88474 0.18956 0.0
C1190 C 0.70658 0.89585 0.18625 0.0
C1191 C 0.63959 0.86758 0.14793 0.0
H1192 H 0.59174 0.90905 0.13746 0.0
C1193 C 0.52772 0.8915 0.08326 0.0
C1194 C 0.49691 0.87888 0.08019 0.0
C1195 C 0.55638 0.89272 0.09973 0.0
C1196 C 0.60474 0.89734 0.14018 0.0
H1197 H 0.79214 0.86269 0.1666 0.0
H1198 H 0.72513 0.86164 0.14847 0.0
H1199 H 0.65318 0.90978 0.15996 0.0
H1200 H 0.47112 0.85801 0.09258 0.0
H1201 H 0.52043 0.86047 0.12183 0.0
H1202 H 0.59295 0.8551 0.12703 0.0
C1203 C 0.72986 0.87131 0.16209 0.0
C1204 C 0.63967 0.89777 0.15336 0.0
C1205 C 0.76855 0.872 0.17239 0.0
C1206 C 0.4944 0.8679 0.09452 0.0
C1207 C 0.52296 0.8692 0.11116 0.0
C1208 C 0.60497 0.86714 0.13456 0.0
C1209 C 0.69838 0.88324 0.16883 0.0
C1210 C 0.65818 0.88287 0.15697 0.0
C1211 C 0.55472 0.88148 0.11376 0.0
C1212 C 0.58776 0.88201 0.13011 0.0
H1213 H 0.75106 0.90655 0.20976 0.0
H1214 H 0.6829 0.90513 0.19202 0.0
H1215 H 0.65246 0.85586 0.15073 0.0
H1216 H 0.53002 0.90041 0.07279 0.0
H1217 H 0.58068 0.90219 0.10101 0.0
C1218 C 0.03636 0.87974 0.15321 0.0
C1219 C 0.00425 0.8918 0.15471 0.0
C1220 C 0.06636 0.8783 0.13723 0.0
C1221 C 0.11467 0.90253 0.10072 0.0
H1222 H 0.15442 0.85932 0.07216 0.0
C1223 C 0.22658 0.89617 0.03016 0.0
C1224 C 0.26113 0.88538 0.03021 0.0
C1225 C 0.19363 0.89617 0.0444 0.0
C1226 C 0.14382 0.87147 0.08012 0.0
H1227 H 0.97853 0.91181 0.14057 0.0
H1228 H 0.03018 0.90903 0.11245 0.0
H1229 H 0.09975 0.86082 0.09894 0.0
H1230 H 0.2874 0.86567 0.04471 0.0
H1231 H 0.23001 0.8658 0.06972 0.0
H1232 H 0.15877 0.91319 0.08203 0.0
C1233 C 0.03246 0.9008 0.12376 0.0
C1234 C 0.11258 0.87233 0.09546 0.0
C1235 C 0.00252 0.90225 0.13973 0.0
C1236 C 0.2614 0.87423 0.04438 0.0
C1237 C 0.22837 0.87421 0.0586 0.0
C1238 C 0.14579 0.90167 0.08539 0.0
C1239 C 0.06491 0.88891 0.12242 0.0
C1240 C 0.09769 0.88788 0.10594 0.0
C1241 C 0.19443 0.88536 0.05896 0.0
C1242 C 0.16074 0.88614 0.07493 0.0
H1243 H 0.03831 0.87141 0.16441 0.0
H1244 H 0.09119 0.86911 0.13675 0.0
H1245 H 0.10448 0.9147 0.10878 0.0
H1246 H 0.22527 0.90486 0.01937 0.0
H1247 H 0.16756 0.90472 0.04408 0.0
C1248 C 0.23986 0.63571 0.93182 0.0
C1249 C 0.24207 0.62155 0.94131 0.0
C1250 C 0.2722 0.63924 0.91874 0.0
C1251 C 0.33006 0.63804 0.88173 0.0
H1252 H 0.44718 0.62942 0.8932 0.0
C1253 C 0.45919 0.63993 0.82035 0.0
C1254 C 0.49831 0.64693 0.82723 0.0
C1255 C 0.42886 0.63689 0.83473 0.0
C1256 C 0.41467 0.63206 0.88987 0.0
H1257 H 0.27999 0.60004 0.94464 0.0
H1258 H 0.33597 0.60594 0.92132 0.0
H1259 H 0.39284 0.62465 0.91798 0.0
H1260 H 0.53654 0.65621 0.8545 0.0
H1261 H 0.4831 0.65123 0.87978 0.0
H1262 H 0.35184 0.64593 0.85399 0.0
C1263 C 0.30967 0.61452 0.92434 0.0
C1264 C 0.38345 0.62911 0.90395 0.0
C1265 C 0.27747 0.61107 0.9376 0.0
C1266 C 0.50669 0.65071 0.8488 0.0
C1267 C 0.47615 0.6478 0.86324 0.0
C1268 C 0.36124 0.64109 0.86776 0.0
C1269 C 0.3073 0.62861 0.91466 0.0
C1270 C 0.34075 0.63201 0.89999 0.0
C1271 C 0.4368 0.64092 0.85636 0.0
C1272 C 0.40389 0.63803 0.87158 0.0
H1273 H 0.2132 0.64414 0.93455 0.0
H1274 H 0.26972 0.65038 0.91189 0.0
H1275 H 0.29746 0.6402 0.87802 0.0
H1276 H 0.45222 0.6366 0.80379 0.0
H1277 H 0.39931 0.63122 0.82886 0.0
C1278 C 0.74023 0.64374 0.79592 0.0
C1279 C 0.74325 0.65747 0.78567 0.0
C1280 C 0.7722 0.64044 0.80934 0.0
C1281 C 0.88364 0.65032 0.82409 0.0
H1282 H 0.85049 0.63526 0.87503 0.0
C1283 C 0.95795 0.64125 0.90876 0.0
C1284 C 0.99692 0.63399 0.90211 0.0
C1285 C 0.92779 0.64408 0.89418 0.0
C1286 C 0.86032 0.63962 0.86099 0.0
H1287 H 0.78224 0.67843 0.7813 0.0
H1288 H 0.8376 0.67295 0.80519 0.0
H1289 H 0.79677 0.64056 0.85043 0.0
H1290 H 0.03498 0.62394 0.87506 0.0
H1291 H 0.9819 0.62854 0.84946 0.0
H1292 H 0.94715 0.64999 0.83511 0.0
C1293 C 0.81095 0.66451 0.80253 0.0
C1294 C 0.82951 0.64242 0.8467 0.0
C1295 C 0.77912 0.66772 0.78892 0.0
C1296 C 0.00528 0.62968 0.88058 0.0
C1297 C 0.97493 0.63238 0.86596 0.0
C1298 C 0.91448 0.64764 0.83849 0.0
C1299 C 0.80773 0.65089 0.81301 0.0
C1300 C 0.84076 0.64779 0.82807 0.0
C1301 C 0.93577 0.63957 0.87259 0.0
C1302 C 0.90317 0.64228 0.85713 0.0
H1303 H 0.71318 0.63549 0.79355 0.0
H1304 H 0.76908 0.62964 0.81679 0.0
H1305 H 0.89347 0.65427 0.80979 0.0
H1306 H 0.95098 0.64495 0.92528 0.0
H1307 H 0.89837 0.64998 0.89985 0.0
C1308 C 0.24531 0.64208 0.29316 0.0
C1309 C 0.24694 0.65588 0.28295 0.0
C1310 C 0.27889 0.63866 0.30563 0.0
C1311 C 0.36633 0.65887 0.33693 0.0
H1312 H 0.4096 0.61388 0.33302 0.0
C1313 C 0.50919 0.64498 0.38564 0.0
C1314 C 0.50712 0.63054 0.39462 0.0
C1315 C 0.47963 0.64771 0.37069 0.0
C1316 C 0.39759 0.62648 0.33447 0.0
H1317 H 0.28513 0.67685 0.27772 0.0
H1318 H 0.34359 0.67093 0.2997 0.0
H1319 H 0.35322 0.61932 0.30958 0.0
H1320 H 0.47306 0.60739 0.39437 0.0
H1321 H 0.42064 0.61246 0.36893 0.0
H1322 H 0.40964 0.66603 0.36215 0.0
C1323 C 0.31629 0.6628 0.29803 0.0
C1324 C 0.3654 0.62959 0.32101 0.0
C1325 C 0.28291 0.66613 0.28538 0.0
C1326 C 0.47524 0.61877 0.388 0.0
C1327 C 0.44549 0.62156 0.37318 0.0
C1328 C 0.39822 0.65575 0.35052 0.0
C1329 C 0.31455 0.64906 0.3083 0.0
C1330 C 0.3494 0.6458 0.32216 0.0
C1331 C 0.44709 0.63614 0.36448 0.0
C1332 C 0.41417 0.63951 0.3495 0.0
H1333 H 0.21808 0.63393 0.29157 0.0
H1334 H 0.27659 0.62807 0.31353 0.0
H1335 H 0.35416 0.67146 0.33834 0.0
H1336 H 0.53301 0.65441 0.39051 0.0
H1337 H 0.48219 0.65896 0.36408 0.0
C1338 C 0.74476 0.63454 0.43084 0.0
C1339 C 0.74697 0.62089 0.44128 0.0
C1340 C 0.77732 0.63764 0.41764 0.0
C1341 C 0.83518 0.63483 0.38042 0.0
H1342 H 0.95259 0.62753 0.39277 0.0
C1343 C 0.96412 0.63496 0.31852 0.0
C1344 C 0.00262 0.6427 0.32505 0.0
C1345 C 0.93413 0.63214 0.33319 0.0
C1346 C 0.91998 0.62977 0.38918 0.0
H1347 H 0.78532 0.59994 0.44633 0.0
H1348 H 0.8418 0.60511 0.42283 0.0
H1349 H 0.89837 0.62371 0.41811 0.0
H1350 H 0.04017 0.65348 0.35199 0.0
H1351 H 0.98737 0.64886 0.37774 0.0
H1352 H 0.85668 0.64136 0.35183 0.0
C1353 C 0.81524 0.6136 0.42515 0.0
C1354 C 0.88885 0.62739 0.40359 0.0
C1355 C 0.78278 0.61058 0.43853 0.0
C1356 C 0.01083 0.64738 0.34656 0.0
C1357 C 0.98064 0.64468 0.36128 0.0
C1358 C 0.86624 0.6373 0.36611 0.0
C1359 C 0.81269 0.62707 0.41439 0.0
C1360 C 0.84606 0.62985 0.39934 0.0
C1361 C 0.9418 0.63714 0.35474 0.0
C1362 C 0.909 0.63472 0.37024 0.0
H1363 H 0.71782 0.64285 0.43284 0.0
H1364 H 0.77472 0.64833 0.40996 0.0
H1365 H 0.80251 0.63661 0.37649 0.0
H1366 H 0.9573 0.63095 0.30203 0.0
H1367 H 0.90498 0.62596 0.32762 0.0
C1368 C 0.54111 0.40618 0.15419 0.0
C1369 C 0.50346 0.41491 0.15241 0.0
C1370 C 0.56964 0.40319 0.13766 0.0
C1371 C 0.6073 0.41781 0.0916 0.0
H1372 H 0.64995 0.3726 0.07607 0.0
C1373 C 0.73333 0.40046 0.02714 0.0
C1374 C 0.76619 0.39012 0.03178 0.0
C1375 C 0.69709 0.40275 0.03957 0.0
C1376 C 0.63862 0.38531 0.0803 0.0
H1377 H 0.46645 0.42761 0.13205 0.0
H1378 H 0.51731 0.4226 0.10298 0.0
H1379 H 0.59476 0.3787 0.10246 0.0
H1380 H 0.78601 0.3736 0.05264 0.0
H1381 H 0.72355 0.37793 0.07459 0.0
H1382 H 0.65234 0.42462 0.07012 0.0
C1383 C 0.52431 0.41806 0.11727 0.0
C1384 C 0.60691 0.38877 0.09533 0.0
C1385 C 0.49531 0.42089 0.13382 0.0
C1386 C 0.76145 0.38172 0.0487 0.0
C1387 C 0.72536 0.3841 0.06119 0.0
C1388 C 0.6394 0.41439 0.07667 0.0
C1389 C 0.56136 0.40893 0.11898 0.0
C1390 C 0.59156 0.4051 0.10142 0.0
C1391 C 0.69295 0.3948 0.05693 0.0
C1392 C 0.65601 0.39815 0.07116 0.0
H1393 H 0.54794 0.40116 0.16817 0.0
H1394 H 0.5982 0.39628 0.13946 0.0
H1395 H 0.59611 0.43053 0.09614 0.0
H1396 H 0.73584 0.40702 0.01411 0.0
H1397 H 0.67244 0.41085 0.03564 0.0
C1398 C 0.01877 0.3619 0.09474 0.0
C1399 C 0.988 0.37429 0.09479 0.0
C1400 C 0.0473 0.36294 0.11126 0.0
C1401 C 0.10143 0.39416 0.14877 0.0
H1402 H 0.14507 0.35548 0.16883 0.0
C1403 C 0.25563 0.3968 0.19724 0.0
C1404 C 0.2837 0.38363 0.19006 0.0
C1405 C 0.21378 0.39604 0.1902 0.0
C1406 C 0.13322 0.36641 0.1634 0.0
H1407 H 0.96161 0.39709 0.11243 0.0
H1408 H 0.01208 0.39903 0.14142 0.0
H1409 H 0.08006 0.35308 0.14841 0.0
H1410 H 0.28957 0.35922 0.17024 0.0
H1411 H 0.21738 0.35803 0.15788 0.0
H1412 H 0.15571 0.40728 0.16281 0.0
C1413 C 0.01394 0.3885 0.12859 0.0
C1414 C 0.09595 0.36504 0.15178 0.0
C1415 C 0.98496 0.38734 0.11213 0.0
C1416 C 0.26888 0.36961 0.17608 0.0
C1417 C 0.22724 0.36884 0.16914 0.0
C1418 C 0.13886 0.39552 0.16033 0.0
C1419 C 0.04593 0.37648 0.12809 0.0
C1420 C 0.08045 0.37874 0.14374 0.0
C1421 C 0.19922 0.38206 0.17599 0.0
C1422 C 0.15594 0.38149 0.16712 0.0
H1423 H 0.02162 0.35169 0.08155 0.0
H1424 H 0.07185 0.35358 0.11029 0.0
H1425 H 0.09042 0.4049 0.14264 0.0
H1426 H 0.26608 0.40776 0.20806 0.0
H1427 H 0.19288 0.4064 0.19583 0.0
C1428 C 0.74946 0.40873 0.69344 0.0
C1429 C 0.75411 0.39632 0.70572 0.0
C1430 C 0.71293 0.4095 0.68167 0.0
C1431 C 0.60274 0.39358 0.67393 0.0
H1432 H 0.6198 0.40324 0.61825 0.0
C1433 C 0.4824 0.3793 0.60528 0.0
C1434 C 0.47934 0.39116 0.59212 0.0
C1435 C 0.51174 0.38143 0.62166 0.0
C1436 C 0.61439 0.40074 0.63386 0.0
H1437 H 0.72378 0.3752 0.71565 0.0
H1438 H 0.66056 0.3762 0.69458 0.0
H1439 H 0.67948 0.404 0.64177 0.0
H1440 H 0.50175 0.41522 0.58688 0.0
H1441 H 0.55293 0.41888 0.61533 0.0
H1442 H 0.53755 0.38975 0.66545 0.0
C1443 C 0.68469 0.38558 0.69438 0.0
C1444 C 0.64862 0.40122 0.6474 0.0
C1445 C 0.72107 0.38494 0.70637 0.0
C1446 C 0.50408 0.40569 0.59649 0.0
C1447 C 0.53335 0.40779 0.61276 0.0
C1448 C 0.56843 0.39294 0.66024 0.0
C1449 C 0.68042 0.39774 0.68166 0.0
C1450 C 0.64332 0.39766 0.66762 0.0
C1451 C 0.53844 0.39545 0.62508 0.0
C1452 C 0.57398 0.39655 0.64008 0.0
H1453 H 0.77417 0.4178 0.69279 0.0
H1454 H 0.71036 0.41926 0.67244 0.0
H1455 H 0.59742 0.39094 0.68947 0.0
H1456 H 0.46384 0.36795 0.60222 0.0
H1457 H 0.51511 0.37169 0.63089 0.0
C1458 C 0.0189 0.41443 0.64561 0.0
C1459 C 0.98329 0.40404 0.64374 0.0
C1460 C 0.04865 0.41281 0.62959 0.0
C1461 C 0.07069 0.39407 0.57434 0.0
H1462 H 0.1855 0.39403 0.59496 0.0
C1463 C 0.2522 0.37666 0.54371 0.0
C1464 C 0.25398 0.38483 0.52646 0.0
C1465 C 0.21654 0.3781 0.5565 0.0
C1466 C 0.15364 0.39382 0.58891 0.0
H1467 H 0.94941 0.38448 0.6233 0.0
H1468 H 0.00193 0.38145 0.59517 0.0
H1469 H 0.12752 0.39915 0.61966 0.0
H1470 H 0.21904 0.40037 0.50861 0.0
H1471 H 0.15702 0.40309 0.53116 0.0
H1472 H 0.09719 0.38841 0.54349 0.0
C1473 C 0.00663 0.39096 0.60897 0.0
C1474 C 0.12039 0.39702 0.60308 0.0
C1475 C 0.97658 0.39268 0.62502 0.0
C1476 C 0.21869 0.39395 0.52181 0.0
C1477 C 0.18303 0.39543 0.53467 0.0
C1478 C 0.10412 0.39087 0.56009 0.0
C1479 C 0.04366 0.40064 0.61142 0.0
C1480 C 0.07856 0.39729 0.596 0.0
C1481 C 0.18191 0.38779 0.55239 0.0
C1482 C 0.14597 0.39071 0.56725 0.0
H1483 H 0.02442 0.42345 0.6598 0.0
H1484 H 0.07628 0.42076 0.63172 0.0
H1485 H 0.03879 0.39422 0.56842 0.0
H1486 H 0.27861 0.36934 0.54755 0.0
H1487 H 0.21632 0.37178 0.5698 0.0
C1488 C 0.08161 0.13923 0.69022 0.0
C1489 C 0.11097 0.14682 0.70512 0.0
C1490 C 0.09361 0.13393 0.66949 0.0
C1491 C 0.16415 0.14269 0.6297 0.0
H1492 H 0.12157 0.10031 0.59989 0.0
C1493 C 0.15526 0.12722 0.53935 0.0
C1494 C 0.11363 0.12326 0.53283 0.0
C1495 C 0.16727 0.12704 0.56004 0.0
C1496 C 0.13416 0.11209 0.60802 0.0
H1497 H 0.17592 0.155 0.71 0.0
H1498 H 0.19668 0.14607 0.67324 0.0
H1499 H 0.11996 0.10629 0.63808 0.0
H1500 H 0.0527 0.11511 0.54229 0.0
H1501 H 0.07359 0.11467 0.57814 0.0
H1502 H 0.17572 0.14892 0.59956 0.0
C1503 C 0.16454 0.14407 0.67786 0.0
C1504 C 0.13322 0.11551 0.62982 0.0
C1505 C 0.15263 0.14919 0.6988 0.0
C1506 C 0.0849 0.11834 0.54694 0.0
C1507 C 0.09701 0.11792 0.56742 0.0
C1508 C 0.16501 0.13928 0.60782 0.0
C1509 C 0.13514 0.13624 0.66311 0.0
C1510 C 0.14623 0.13115 0.64078 0.0
C1511 C 0.13803 0.12257 0.5743 0.0
C1512 C 0.14802 0.12428 0.59682 0.0
H1513 H 0.04933 0.13718 0.69459 0.0
H1514 H 0.07011 0.12824 0.65833 0.0
H1515 H 0.17432 0.15485 0.63783 0.0
H1516 H 0.17801 0.13105 0.52871 0.0
H1517 H 0.19906 0.13069 0.565 0.0
C1518 C 0.81452 0.88518 0.43976 0.0
C1519 C 0.8572 0.88752 0.4454 0.0
C1520 C 0.79867 0.89132 0.42252 0.0
C1521 C 0.81667 0.92267 0.39006 0.0
H1522 H 0.789 0.88904 0.34168 0.0
C1523 C 0.86858 0.9275 0.30849 0.0
C1524 C 0.84741 0.91888 0.29083 0.0
C1525 C 0.85323 0.92723 0.32851 0.0
C1526 C 0.79519 0.89875 0.35509 0.0
H1527 H 0.91632 0.89856 0.43811 0.0
H1528 H 0.88847 0.90953 0.4084 0.0
H1529 H 0.79236 0.88137 0.37619 0.0
H1530 H 0.79152 0.90443 0.28015 0.0
H1531 H 0.76447 0.90405 0.31528 0.0
H1532 H 0.82141 0.93992 0.36899 0.0
C1533 C 0.86743 0.90285 0.41712 0.0
C1534 C 0.79722 0.89431 0.37484 0.0
C1535 C 0.88346 0.89639 0.43393 0.0
C1536 C 0.80877 0.91106 0.29351 0.0
C1537 C 0.79334 0.91079 0.31361 0.0
C1538 C 0.81405 0.92718 0.37039 0.0
C1539 C 0.82505 0.9003 0.41121 0.0
C1540 C 0.81029 0.90603 0.39221 0.0
C1541 C 0.81625 0.91836 0.33135 0.0
C1542 C 0.80591 0.91503 0.3525 0.0
H1543 H 0.79367 0.87843 0.44848 0.0
H1544 H 0.76596 0.88911 0.41804 0.0
H1545 H 0.82642 0.93193 0.40336 0.0
H1546 H 0.89823 0.93377 0.30694 0.0
H1547 H 0.87209 0.93303 0.34175 0.0
C1548 C 0.19799 0.62989 0.03325 0.0
C1549 C 0.15923 0.6214 0.03046 0.0
C1550 C 0.21702 0.63314 0.05299 0.0
C1551 C 0.21455 0.65112 0.09895 0.0
H1552 H 0.21325 0.62057 0.1383 0.0
C1553 C 0.14232 0.66513 0.17962 0.0
C1554 C 0.1601 0.65862 0.19619 0.0
C1555 C 0.16158 0.66233 0.16002 0.0
C1556 C 0.21502 0.62925 0.12751 0.0
H1557 H 0.11175 0.60844 0.04536 0.0
H1558 H 0.14532 0.61379 0.07967 0.0
H1559 H 0.21297 0.60953 0.10075 0.0
H1560 H 0.21315 0.64495 0.20576 0.0
H1561 H 0.24614 0.63954 0.17108 0.0
H1562 H 0.21256 0.67083 0.12572 0.0
C1563 C 0.16092 0.61803 0.06674 0.0
C1564 C 0.21464 0.62292 0.10606 0.0
C1565 C 0.14148 0.6151 0.04719 0.0
C1566 C 0.19882 0.65011 0.19319 0.0
C1567 C 0.21769 0.64701 0.17342 0.0
C1568 C 0.21439 0.65744 0.12041 0.0
C1569 C 0.19804 0.62758 0.07 0.0
C1570 C 0.21214 0.63382 0.09166 0.0
C1571 C 0.19858 0.65273 0.15655 0.0
C1572 C 0.21236 0.64654 0.13482 0.0
H1573 H 0.21222 0.6349 0.02055 0.0
H1574 H 0.24553 0.64059 0.05519 0.0
H1575 H 0.21243 0.65978 0.08816 0.0
H1576 H 0.11265 0.67183 0.18159 0.0
H1577 H 0.14588 0.6667 0.14721 0.0
C1578 C 0.92087 0.38739 0.93901 0.0
C1579 C 0.88931 0.38261 0.95187 0.0
C1580 C 0.91049 0.39182 0.91993 0.0
C1581 C 0.83823 0.38444 0.87705 0.0
H1582 H 0.88664 0.4251 0.86405 0.0
C1583 C 0.8397 0.39937 0.79288 0.0
C1584 C 0.87995 0.40395 0.78681 0.0
C1585 C 0.83123 0.39887 0.81393 0.0
C1586 C 0.87273 0.41374 0.86745 0.0
H1587 H 0.82217 0.37848 0.95479 0.0
H1588 H 0.80413 0.38579 0.92076 0.0
H1589 H 0.88973 0.41988 0.89982 0.0
H1590 H 0.94247 0.41196 0.798 0.0
H1591 H 0.9279 0.41099 0.83433 0.0
H1592 H 0.82369 0.37779 0.84437 0.0
C1593 C 0.83676 0.38628 0.92576 0.0
C1594 C 0.87439 0.4108 0.8879 0.0
C1595 C 0.84709 0.38213 0.94514 0.0
C1596 C 0.91115 0.40835 0.80214 0.0
C1597 C 0.90266 0.40796 0.82304 0.0
C1598 C 0.83688 0.38732 0.85647 0.0
C1599 C 0.86841 0.39135 0.91316 0.0
C1600 C 0.85862 0.39585 0.89269 0.0
C1601 C 0.86274 0.40314 0.8292 0.0
C1602 C 0.85573 0.40169 0.85135 0.0
H1603 H 0.95363 0.38798 0.94381 0.0
H1604 H 0.93549 0.39549 0.91033 0.0
H1605 H 0.82595 0.37281 0.88043 0.0
H1606 H 0.81505 0.39591 0.78137 0.0
H1607 H 0.80018 0.39512 0.81826 0.0
C1608 C 0.58396 0.13399 0.18885 0.0
C1609 C 0.61001 0.14299 0.20437 0.0
C1610 C 0.59886 0.129 0.16854 0.0
C1611 C 0.6694 0.14076 0.13061 0.0
H1612 H 0.63834 0.0971 0.09966 0.0
C1613 C 0.66412 0.12666 0.04038 0.0
C1614 C 0.62316 0.12165 0.03374 0.0
C1615 C 0.67684 0.1262 0.06091 0.0
C1616 C 0.64787 0.10924 0.10813 0.0
H1617 H 0.67208 0.15394 0.21083 0.0
H1618 H 0.69782 0.14556 0.17481 0.0
H1619 H 0.63394 0.10267 0.13781 0.0
H1620 H 0.56445 0.11125 0.04264 0.0
H1621 H 0.5866 0.11027 0.07817 0.0
H1622 H 0.6804 0.14769 0.10081 0.0
C1623 C 0.66607 0.14222 0.17862 0.0
C1624 C 0.64529 0.11243 0.1299 0.0
C1625 C 0.6513 0.14703 0.19913 0.0
C1626 C 0.59606 0.11531 0.04744 0.0
C1627 C 0.60895 0.11458 0.06771 0.0
C1628 C 0.67192 0.13757 0.10876 0.0
C1629 C 0.64 0.13304 0.16322 0.0
C1630 C 0.65382 0.12847 0.14121 0.0
C1631 C 0.64905 0.12037 0.07482 0.0
C1632 C 0.65891 0.12207 0.09734 0.0
H1633 H 0.55207 0.13062 0.19241 0.0
H1634 H 0.5778 0.12224 0.15685 0.0
H1635 H 0.67615 0.15323 0.139 0.0
H1636 H 0.68557 0.1316 0.03005 0.0
H1637 H 0.70787 0.13075 0.06606 0.0
C1638 C 0.36258 0.92829 0.8088 0.0
C1639 C 0.34146 0.91969 0.79111 0.0
C1640 C 0.34817 0.92742 0.82882 0.0
C1641 C 0.29391 0.89748 0.85469 0.0
H1642 H 0.32511 0.92998 0.90363 0.0
C1643 C 0.31689 0.88408 0.93985 0.0
C1644 C 0.36028 0.88564 0.94429 0.0
C1645 C 0.30009 0.89006 0.92269 0.0
C1646 C 0.31531 0.92091 0.89015 0.0
H1647 H 0.28642 0.9047 0.78043 0.0
H1648 H 0.26094 0.9033 0.81556 0.0
H1649 H 0.31761 0.93879 0.86983 0.0
H1650 H 0.41988 0.89495 0.93469 0.0
H1651 H 0.39035 0.90568 0.90513 0.0
H1652 H 0.29346 0.8795 0.87507 0.0
C1653 C 0.28911 0.91047 0.81391 0.0
C1654 C 0.31132 0.92589 0.8708 0.0
C1655 C 0.30362 0.91133 0.7938 0.0
C1656 C 0.38643 0.89341 0.93151 0.0
C1657 C 0.36953 0.8997 0.91477 0.0
C1658 C 0.29726 0.89257 0.87414 0.0
C1659 C 0.31216 0.91798 0.83164 0.0
C1660 C 0.30319 0.91401 0.85264 0.0
C1661 C 0.32635 0.89808 0.91023 0.0
C1662 C 0.31021 0.90409 0.89171 0.0
H1663 H 0.39161 0.93497 0.80724 0.0
H1664 H 0.36711 0.93321 0.84203 0.0
H1665 H 0.28782 0.88796 0.84106 0.0
H1666 H 0.29611 0.87816 0.94954 0.0
H1667 H 0.26674 0.88858 0.91925 0.0
C1668 C 0.69222 0.62952 0.5326 0.0
C1669 C 0.65359 0.62106 0.52872 0.0
C1670 C 0.70902 0.63275 0.55284 0.0
C1671 C 0.70351 0.65027 0.599 0.0
H1672 H 0.69999 0.61901 0.63745 0.0
C1673 C 0.63482 0.66416 0.68085 0.0
C1674 C 0.65388 0.65765 0.6971 0.0
C1675 C 0.65221 0.66108 0.66082 0.0
C1676 C 0.70225 0.62786 0.6269 0.0
H1677 H 0.6039 0.60823 0.54232 0.0
H1678 H 0.63364 0.61352 0.57751 0.0
H1679 H 0.69952 0.60853 0.59972 0.0
H1680 H 0.707 0.6435 0.7056 0.0
H1681 H 0.73669 0.63756 0.67014 0.0
H1682 H 0.70241 0.66963 0.62618 0.0
C1683 C 0.6508 0.61776 0.56504 0.0
C1684 C 0.70175 0.62187 0.60536 0.0
C1685 C 0.63358 0.61486 0.54497 0.0
C1686 C 0.69181 0.64869 0.69328 0.0
C1687 C 0.70875 0.64529 0.67308 0.0
C1688 C 0.70339 0.65627 0.62055 0.0
C1689 C 0.68794 0.62718 0.56929 0.0
C1690 C 0.70046 0.63305 0.59128 0.0
C1691 C 0.68853 0.65117 0.65661 0.0
C1692 C 0.70083 0.64512 0.63463 0.0
H1693 H 0.70818 0.63446 0.5203 0.0
H1694 H 0.7376 0.64009 0.55581 0.0
H1695 H 0.70226 0.65915 0.58845 0.0
H1696 H 0.60567 0.67118 0.68346 0.0
H1697 H 0.6357 0.66558 0.64834 0.0
C1698 C 0.41774 0.3781 0.29177 0.0
C1699 C 0.38828 0.38576 0.28047 0.0
C1700 C 0.40569 0.37251 0.30993 0.0
C1701 C 0.33399 0.3825 0.35327 0.0
H1702 H 0.37882 0.34183 0.3679 0.0
C1703 C 0.3367 0.37227 0.43875 0.0
C1704 C 0.37691 0.36776 0.44494 0.0
C1705 C 0.32707 0.37104 0.4175 0.0
C1706 C 0.36585 0.35319 0.36402 0.0
H1707 H 0.32289 0.39321 0.27888 0.0
H1708 H 0.30199 0.38378 0.31118 0.0
H1709 H 0.38215 0.34599 0.33165 0.0
H1710 H 0.43779 0.3577 0.4338 0.0
H1711 H 0.42131 0.35576 0.39701 0.0
H1712 H 0.32022 0.39022 0.38582 0.0
C1713 C 0.33428 0.382 0.30579 0.0
C1714 C 0.36768 0.35554 0.3433 0.0
C1715 C 0.34623 0.38738 0.28737 0.0
C1716 C 0.4066 0.36136 0.42955 0.0
C1717 C 0.39696 0.36007 0.40841 0.0
C1718 C 0.3324 0.3802 0.37405 0.0
C1719 C 0.36405 0.37464 0.3173 0.0
C1720 C 0.35338 0.37051 0.33792 0.0
C1721 C 0.35739 0.36516 0.40213 0.0
C1722 C 0.35002 0.36584 0.37976 0.0
H1723 H 0.45027 0.37654 0.2867 0.0
H1724 H 0.42943 0.36708 0.31865 0.0
H1725 H 0.32293 0.3942 0.34954 0.0
H1726 H 0.31309 0.37718 0.45029 0.0
H1727 H 0.29624 0.37498 0.41311 0.0
loop_
_geom_bond_atom_site_label_1
_geom_bond_atom_site_label_2
_geom_bond_distance
_geom_bond_site_symmetry_2
_ccdc_geom_bond_type
C0 C1 1.351 . S
C0 N3 1.368 . S
C0 H5 0.931 . S
C1 C0 1.351 . S
C1 N2 1.373 . S
C1 H29 0.930 . S
N2 C1 1.373 . S
N2 C4 1.340 . S
N3 C0 1.368 . S
N3 C4 1.321 . S
N3 Co6 2.135 . S
C4 N2 1.340 . S
C4 N3 1.321 . S
C4 H28 0.930 . S
H5 C0 0.931 . S
Co6 N3 2.135 . S
Co6 N9 2.121 . S
Co6 O14 2.055 . S
Co6 O17 2.039 . S
Co6 N20 2.140 . S
C7 O8 1.227 . S
C7 O17 1.265 . S
O8 C7 1.227 . S
N9 Co6 2.121 . S
N9 C11 1.375 . S
N9 C12 1.313 . S
C10 C11 1.338 . S
C10 N13 1.377 . S
C10 H30 0.930 . S
C11 N9 1.375 . S
C11 C10 1.338 . S
C11 H15 0.931 . S
C12 N9 1.313 . S
C12 N13 1.344 . S
C12 H16 0.930 . S
N13 C10 1.377 . S
N13 C12 1.344 . S
O14 Co6 2.055 . S
O14 C18 1.253 . S
H15 C11 0.931 . S
H16 C12 0.930 . S
O17 Co6 2.039 . S
O17 C7 1.265 . S
C18 O14 1.253 . S
C18 O19 1.227 . S
O19 C18 1.227 . S
N20 Co6 2.140 . S
N20 C23 1.346 . S
N20 C24 1.345 . S
C21 C22 1.387 1_655 S
C21 C25 1.391 . S
C22 C21 1.387 1_455 S
C22 C23 1.369 . S
C22 H31 0.929 . S
C23 N20 1.346 . S
C23 C22 1.369 . S
C23 H26 0.928 . S
C24 N20 1.345 . S
C24 C25 1.371 1_455 S
C24 H27 0.931 . S
C25 C21 1.391 . S
C25 C24 1.371 1_655 S
C25 H32 0.930 . S
H26 C23 0.928 . S
H27 C24 0.931 . S
H28 C4 0.930 . S
H29 C1 0.930 . S
H30 C10 0.930 . S
H31 C22 0.929 . S
H32 C25 0.930 . S
C33 C34 1.351 . S
C33 N36 1.368 . S
C33 H38 0.931 . S
C34 C33 1.351 . S
C34 N35 1.373 . S
C34 H62 0.930 . S
N35 C34 1.373 . S
N35 C37 1.340 . S
N36 C33 1.368 . S
N36 C37 1.321 . S
N36 Co39 2.135 . S
C37 N35 1.340 . S
C37 N36 1.321 . S
C37 H61 0.930 . S
H38 C33 0.931 . S
Co39 N36 2.135 . S
Co39 N42 2.121 . S
Co39 O47 2.055 . S
Co39 O50 2.039 . S
Co39 N53 2.140 . S
C40 O41 1.227 . S
C40 O50 1.265 . S
O41 C40 1.227 . S
N42 Co39 2.121 . S
N42 C44 1.375 . S
N42 C45 1.313 . S
C43 C44 1.338 . S
C43 N46 1.377 . S
C43 H63 0.930 . S
C44 N42 1.375 . S
C44 C43 1.338 . S
C44 H48 0.931 . S
C45 N42 1.313 . S
C45 N46 1.344 . S
C45 H49 0.930 . S
N46 C43 1.377 . S
N46 C45 1.344 . S
O47 Co39 2.055 . S
O47 C51 1.253 . S
H48 C44 0.931 . S
H49 C45 0.930 . S
O50 Co39 2.039 . S
O50 C40 1.265 . S
C51 O47 1.253 . S
C51 O52 1.227 . S
O52 C51 1.227 . S
N53 Co39 2.140 . S
N53 C56 1.346 . S
N53 C57 1.345 . S
C54 C55 1.387 1_655 S
C54 C58 1.391 . S
C55 C54 1.387 1_455 S
C55 C56 1.369 . S
C55 H64 0.929 . S
C56 N53 1.346 . S
C56 C55 1.369 . S
C56 H59 0.928 . S
C57 N53 1.345 . S
C57 C58 1.371 1_455 S
C57 H60 0.931 . S
C58 C54 1.391 . S
C58 C57 1.371 1_655 S
C58 H65 0.930 . S
H59 C56 0.928 . S
H60 C57 0.931 . S
H61 C37 0.930 . S
H62 C34 0.930 . S
H63 C43 0.930 . S
H64 C55 0.929 . S
H65 C58 0.930 . S
C66 C67 1.351 . S
C66 N69 1.368 . S
C66 H71 0.931 . S
C67 C66 1.351 . S
C67 N68 1.373 . S
C67 H95 0.930 . S
N68 C67 1.373 . S
N68 C70 1.340 . S
N69 C66 1.368 . S
N69 C70 1.321 . S
N69 Co72 2.135 . S
C70 N68 1.340 . S
C70 N69 1.321 . S
C70 H94 0.930 . S
H71 C66 0.931 . S
Co72 N69 2.135 . S
Co72 N75 2.121 . S
Co72 O80 2.055 . S
Co72 O83 2.039 . S
Co72 N86 2.140 . S
C73 O74 1.227 . S
C73 O83 1.265 . S
O74 C73 1.227 . S
N75 Co72 2.121 . S
N75 C77 1.375 . S
N75 C78 1.313 . S
C76 C77 1.338 . S
C76 N79 1.377 . S
C76 H96 0.930 . S
C77 N75 1.375 . S
C77 C76 1.338 . S
C77 H81 0.931 . S
C78 N75 1.313 . S
C78 N79 1.344 . S
C78 H82 0.930 . S
N79 C76 1.377 . S
N79 C78 1.344 . S
O80 Co72 2.055 . S
O80 C84 1.253 . S
H81 C77 0.931 . S
H82 C78 0.930 . S
O83 Co72 2.039 . S
O83 C73 1.265 . S
C84 O80 1.253 . S
C84 O85 1.227 . S
O85 C84 1.227 . S
N86 Co72 2.140 . S
N86 C89 1.346 . S
N86 C90 1.345 . S
C87 C88 1.387 1_455 S
C87 C91 1.391 . S
C88 C87 1.387 1_655 S
C88 C89 1.369 . S
C88 H97 0.929 . S
C89 N86 1.346 . S
C89 C88 1.369 . S
C89 H92 0.928 . S
C90 N86 1.345 . S
C90 C91 1.371 1_655 S
C90 H93 0.931 . S
C91 C87 1.391 . S
C91 C90 1.371 1_455 S
C91 H98 0.930 . S
H92 C89 0.928 . S
H93 C90 0.931 . S
H94 C70 0.930 . S
H95 C67 0.930 . S
H96 C76 0.930 . S
H97 C88 0.929 . S
H98 C91 0.930 . S
C99 C100 1.351 . S
C99 N102 1.368 . S
C99 H104 0.931 . S
C100 C99 1.351 . S
C100 N101 1.373 . S
C100 H128 0.930 . S
N101 C100 1.373 . S
N101 C103 1.340 . S
N102 C99 1.368 . S
N102 C103 1.321 . S
N102 Co105 2.135 . S
C103 N101 1.340 . S
C103 N102 1.321 . S
C103 H127 0.930 . S
H104 C99 0.931 . S
Co105 N102 2.135 . S
Co105 N108 2.121 . S
Co105 O113 2.055 . S
Co105 O116 2.039 . S
Co105 N119 2.140 . S
C106 O107 1.227 . S
C106 O116 1.265 . S
O107 C106 1.227 . S
N108 Co105 2.121 . S
N108 C110 1.375 . S
N108 C111 1.313 . S
C109 C110 1.338 . S
C109 N112 1.377 . S
C109 H129 0.930 . S
C110 N108 1.375 . S
C110 C109 1.338 . S
C110 H114 0.931 . S
C111 N108 1.313 . S
C111 N112 1.344 . S
C111 H115 0.930 . S
N112 C109 1.377 . S
N112 C111 1.344 . S
O113 Co105 2.055 . S
O113 C117 1.253 . S
H114 C110 0.931 . S
H115 C111 0.930 . S
O116 Co105 2.039 . S
O116 C106 1.265 . S
C117 O113 1.253 . S
C117 O118 1.227 . S
O118 C117 1.227 . S
N119 Co105 2.140 . S
N119 C122 1.346 . S
N119 C123 1.345 . S
C120 C121 1.387 1_455 S
C120 C124 1.391 . S
C121 C120 1.387 1_655 S
C121 C122 1.369 . S
C121 H130 0.929 . S
C122 N119 1.346 . S
C122 C121 1.369 . S
C122 H125 0.928 . S
C123 N119 1.345 . S
C123 C124 1.371 1_655 S
C123 H126 0.931 . S
C124 C120 1.391 . S
C124 C123 1.371 1_455 S
C124 H131 0.930 . S
H125 C122 0.928 . S
H126 C123 0.931 . S
H127 C103 0.930 . S
H128 C100 0.930 . S
H129 C109 0.930 . S
H130 C121 0.929 . S
H131 C124 0.930 . S
C132 C133 1.351 . S
C132 N135 1.368 1_554 S
C132 H137 0.931 . S
C133 C132 1.351 . S
C133 N134 1.373 1_554 S
C133 H161 0.930 . S
N134 C133 1.373 1_556 S
N134 C136 1.340 . S
N135 C132 1.368 1_556 S
N135 C136 1.321 . S
N135 Co138 2.135 . S
C136 N134 1.340 . S
C136 N135 1.321 . S
C136 H160 0.930 . S
H137 C132 0.931 . S
Co138 N135 2.135 . S
Co138 N141 2.121 . S
Co138 O146 2.055 1_556 S
Co138 O149 2.039 . S
Co138 N152 2.140 . S
C139 O140 1.227 . S
C139 O149 1.265 . S
O140 C139 1.227 . S
N141 Co138 2.121 . S
N141 C143 1.375 . S
N141 C144 1.313 . S
C142 C143 1.338 . S
C142 N145 1.377 . S
C142 H162 0.930 . S
C143 N141 1.375 . S
C143 C142 1.338 . S
C143 H147 0.931 . S
C144 N141 1.313 . S
C144 N145 1.344 . S
C144 H148 0.930 1_556 S
N145 C142 1.377 . S
N145 C144 1.344 . S
O146 Co138 2.055 1_554 S
O146 C150 1.253 . S
H147 C143 0.931 . S
H148 C144 0.930 1_554 S
O149 Co138 2.039 . S
O149 C139 1.265 . S
C150 O146 1.253 . S
C150 O151 1.227 . S
O151 C150 1.227 . S
N152 Co138 2.140 . S
N152 C155 1.346 . S
N152 C156 1.345 . S
C153 C154 1.387 1_655 S
C153 C157 1.391 . S
C154 C153 1.387 1_455 S
C154 C155 1.369 . S
C154 H163 0.929 . S
C155 N152 1.346 . S
C155 C154 1.369 . S
C155 H158 0.928 . S
C156 N152 1.345 . S
C156 C157 1.371 1_455 S
C156 H159 0.931 . S
C157 C153 1.391 . S
C157 C156 1.371 1_655 S
C157 H164 0.930 . S
H158 C155 0.928 . S
H159 C156 0.931 . S
H160 C136 0.930 . S
H161 C133 0.930 . S
H162 C142 0.930 . S
H163 C154 0.929 . S
H164 C157 0.930 . S
C165 C166 1.351 . S
C165 N168 1.368 . S
C165 H170 0.931 . S
C166 C165 1.351 . S
C166 N167 1.373 . S
C166 H194 0.930 . S
N167 C166 1.373 . S
N167 C169 1.340 . S
N168 C165 1.368 . S
N168 C169 1.321 . S
N168 Co171 2.135 . S
C169 N167 1.340 . S
C169 N168 1.321 . S
C169 H193 0.930 . S
H170 C165 0.931 . S
Co171 N168 2.135 . S
Co171 N174 2.121 . S
Co171 O179 2.055 . S
Co171 O182 2.039 . S
Co171 N185 2.140 . S
C172 O173 1.227 . S
C172 O182 1.265 . S
O173 C172 1.227 . S
N174 Co171 2.121 . S
N174 C176 1.375 . S
N174 C177 1.313 . S
C175 C176 1.338 . S
C175 N178 1.377 . S
C175 H195 0.930 . S
C176 N174 1.375 . S
C176 C175 1.338 . S
C176 H180 0.931 . S
C177 N174 1.313 . S
C177 N178 1.344 . S
C177 H181 0.930 . S
N178 C175 1.377 . S
N178 C177 1.344 . S
O179 Co171 2.055 . S
O179 C183 1.253 . S
H180 C176 0.931 . S
H181 C177 0.930 . S
O182 Co171 2.039 . S
O182 C172 1.265 . S
C183 O179 1.253 . S
C183 O184 1.227 . S
O184 C183 1.227 . S
N185 Co171 2.140 . S
N185 C188 1.346 . S
N185 C189 1.345 . S
C186 C187 1.387 1_655 S
C186 C190 1.391 . S
C187 C186 1.387 1_455 S
C187 C188 1.369 . S
C187 H196 0.929 . S
C188 N185 1.346 . S
C188 C187 1.369 . S
C188 H191 0.928 . S
C189 N185 1.345 . S
C189 C190 1.371 1_455 S
C189 H192 0.931 . S
C190 C186 1.391 . S
C190 C189 1.371 1_655 S
C190 H197 0.930 . S
H191 C188 0.928 . S
H192 C189 0.931 . S
H193 C169 0.930 . S
H194 C166 0.930 . S
H195 C175 0.930 . S
H196 C187 0.929 . S
H197 C190 0.930 . S
C198 C199 1.351 . S
C198 N201 1.368 1_556 S
C198 H203 0.931 . S
C199 C198 1.351 . S
C199 N200 1.373 1_556 S
C199 H227 0.930 . S
N200 C199 1.373 1_554 S
N200 C202 1.340 . S
N201 C198 1.368 1_554 S
N201 C202 1.321 . S
N201 Co204 2.135 . S
C202 N200 1.340 . S
C202 N201 1.321 . S
C202 H226 0.930 . S
H203 C198 0.931 . S
Co204 N201 2.135 . S
Co204 N207 2.121 . S
Co204 O212 2.055 1_554 S
Co204 O215 2.039 . S
Co204 N218 2.140 . S
C205 O206 1.227 . S
C205 O215 1.265 . S
O206 C205 1.227 . S
N207 Co204 2.121 . S
N207 C209 1.375 . S
N207 C210 1.313 . S
C208 C209 1.338 . S
C208 N211 1.377 . S
C208 H228 0.930 . S
C209 N207 1.375 . S
C209 C208 1.338 . S
C209 H213 0.931 . S
C210 N207 1.313 . S
C210 N211 1.344 . S
C210 H214 0.930 1_554 S
N211 C208 1.377 . S
N211 C210 1.344 . S
O212 Co204 2.055 1_556 S
O212 C216 1.253 . S
H213 C209 0.931 . S
H214 C210 0.930 1_556 S
O215 Co204 2.039 . S
O215 C205 1.265 . S
C216 O212 1.253 . S
C216 O217 1.227 . S
O217 C216 1.227 . S
N218 Co204 2.140 . S
N218 C221 1.346 . S
N218 C222 1.345 . S
C219 C220 1.387 1_455 S
C219 C223 1.391 . S
C220 C219 1.387 1_655 S
C220 C221 1.369 . S
C220 H229 0.929 . S
C221 N218 1.346 . S
C221 C220 1.369 . S
C221 H224 0.928 . S
C222 N218 1.345 . S
C222 C223 1.371 1_655 S
C222 H225 0.931 . S
C223 C219 1.391 . S
C223 C222 1.371 1_455 S
C223 H230 0.930 . S
H224 C221 0.928 . S
H225 C222 0.931 . S
H226 C202 0.930 . S
H227 C199 0.930 . S
H228 C208 0.930 . S
H229 C220 0.929 . S
H230 C223 0.930 . S
C231 C232 1.351 . S
C231 N234 1.368 . S
C231 H236 0.931 . S
C232 C231 1.351 . S
C232 N233 1.373 . S
C232 H260 0.930 . S
N233 C232 1.373 . S
N233 C235 1.340 . S
N234 C231 1.368 . S
N234 C235 1.321 . S
N234 Co237 2.135 . S
C235 N233 1.340 . S
C235 N234 1.321 . S
C235 H259 0.930 . S
H236 C231 0.931 . S
Co237 N234 2.135 . S
Co237 N240 2.121 . S
Co237 O245 2.055 . S
Co237 O248 2.039 . S
Co237 N251 2.140 . S
C238 O239 1.227 . S
C238 O248 1.265 . S
O239 C238 1.227 . S
N240 Co237 2.121 . S
N240 C242 1.375 . S
N240 C243 1.313 . S
C241 C242 1.338 . S
C241 N244 1.377 . S
C241 H261 0.930 . S
C242 N240 1.375 . S
C242 C241 1.338 . S
C242 H246 0.931 . S
C243 N240 1.313 . S
C243 N244 1.344 . S
C243 H247 0.930 . S
N244 C241 1.377 . S
N244 C243 1.344 . S
O245 Co237 2.055 . S
O245 C249 1.253 . S
H246 C242 0.931 . S
H247 C243 0.930 . S
O248 Co237 2.039 . S
O248 C238 1.265 . S
C249 O245 1.253 . S
C249 O250 1.227 . S
O250 C249 1.227 . S
N251 Co237 2.140 . S
N251 C254 1.346 . S
N251 C255 1.345 . S
C252 C253 1.387 1_455 S
C252 C256 1.391 . S
C253 C252 1.387 1_655 S
C253 C254 1.369 . S
C253 H262 0.929 . S
C254 N251 1.346 . S
C254 C253 1.369 . S
C254 H257 0.928 . S
C255 N251 1.345 . S
C255 C256 1.371 1_655 S
C255 H258 0.931 . S
C256 C252 1.391 . S
C256 C255 1.371 1_455 S
C256 H263 0.930 . S
H257 C254 0.928 . S
H258 C255 0.931 . S
H259 C235 0.930 . S
H260 C232 0.930 . S
H261 C241 0.930 . S
H262 C253 0.929 . S
H263 C256 0.930 . S
C264 C265 1.351 . S
C264 N267 1.368 1_554 S
C264 H269 0.931 . S
C265 C264 1.351 . S
C265 N266 1.373 1_554 S
C265 H293 0.930 . S
N266 C265 1.373 1_556 S
N266 C268 1.340 . S
N267 C264 1.368 1_556 S
N267 C268 1.321 . S
N267 Co270 2.135 . S
C268 N266 1.340 . S
C268 N267 1.321 . S
C268 H292 0.930 . S
H269 C264 0.931 . S
Co270 N267 2.135 . S
Co270 N273 2.121 . S
Co270 O278 2.055 1_556 S
Co270 O281 2.039 . S
Co270 N284 2.140 . S
C271 O272 1.227 . S
C271 O281 1.265 . S
O272 C271 1.227 . S
N273 Co270 2.121 . S
N273 C275 1.375 . S
N273 C276 1.313 . S
C274 C275 1.338 . S
C274 N277 1.377 . S
C274 H294 0.930 . S
C275 N273 1.375 . S
C275 C274 1.338 . S
C275 H279 0.931 . S
C276 N273 1.313 . S
C276 N277 1.344 . S
C276 H280 0.930 1_556 S
N277 C274 1.377 . S
N277 C276 1.344 . S
O278 Co270 2.055 1_554 S
O278 C282 1.253 . S
H279 C275 0.931 . S
H280 C276 0.930 1_554 S
O281 Co270 2.039 . S
O281 C271 1.265 . S
C282 O278 1.253 . S
C282 O283 1.227 . S
O283 C282 1.227 . S
N284 Co270 2.140 . S
N284 C287 1.346 . S
N284 C288 1.345 . S
C285 C286 1.387 . S
C285 C289 1.391 . S
C286 C285 1.387 . S
C286 C287 1.369 . S
C286 H295 0.929 . S
C287 N284 1.346 . S
C287 C286 1.369 . S
C287 H290 0.928 . S
C288 N284 1.345 . S
C288 C289 1.371 . S
C288 H291 0.931 . S
C289 C285 1.391 . S
C289 C288 1.371 . S
C289 H296 0.930 . S
H290 C287 0.928 . S
H291 C288 0.931 . S
H292 C268 0.930 . S
H293 C265 0.930 . S
H294 C274 0.930 . S
H295 C286 0.929 . S
H296 C289 0.930 . S
C297 C298 1.351 . S
C297 N300 1.368 . S
C297 H302 0.931 . S
C298 C297 1.351 . S
C298 N299 1.373 . S
C298 H326 0.930 . S
N299 C298 1.373 . S
N299 C301 1.340 . S
N300 C297 1.368 . S
N300 C301 1.321 . S
N300 Co303 2.135 . S
C301 N299 1.340 . S
C301 N300 1.321 . S
C301 H325 0.930 . S
H302 C297 0.931 . S
Co303 N300 2.135 . S
Co303 N306 2.121 . S
Co303 O311 2.055 . S
Co303 O314 2.039 . S
Co303 N317 2.140 . S
C304 O305 1.227 . S
C304 O314 1.265 . S
O305 C304 1.227 . S
N306 Co303 2.121 . S
N306 C308 1.375 . S
N306 C309 1.313 . S
C307 C308 1.338 . S
C307 N310 1.377 . S
C307 H327 0.930 . S
C308 N306 1.375 . S
C308 C307 1.338 . S
C308 H312 0.931 . S
C309 N306 1.313 . S
C309 N310 1.344 . S
C309 H313 0.930 . S
N310 C307 1.377 . S
N310 C309 1.344 . S
O311 Co303 2.055 . S
O311 C315 1.253 . S
H312 C308 0.931 . S
H313 C309 0.930 . S
O314 Co303 2.039 . S
O314 C304 1.265 . S
C315 O311 1.253 . S
C315 O316 1.227 . S
O316 C315 1.227 . S
N317 Co303 2.140 . S
N317 C320 1.346 . S
N317 C321 1.345 . S
C318 C319 1.387 . S
C318 C322 1.391 . S
C319 C318 1.387 . S
C319 C320 1.369 . S
C319 H328 0.929 . S
C320 N317 1.346 . S
C320 C319 1.369 . S
C320 H323 0.928 . S
C321 N317 1.345 . S
C321 C322 1.371 . S
C321 H324 0.931 . S
C322 C318 1.391 . S
C322 C321 1.371 . S
C322 H329 0.930 . S
H323 C320 0.928 . S
H324 C321 0.931 . S
H325 C301 0.930 . S
H326 C298 0.930 . S
H327 C307 0.930 . S
H328 C319 0.929 . S
H329 C322 0.930 . S
C330 C331 1.351 . S
C330 N333 1.368 1_556 S
C330 H335 0.931 . S
C331 C330 1.351 . S
C331 N332 1.373 1_556 S
C331 H359 0.930 . S
N332 C331 1.373 1_554 S
N332 C334 1.340 . S
N333 C330 1.368 1_554 S
N333 C334 1.321 . S
N333 Co336 2.135 . S
C334 N332 1.340 . S
C334 N333 1.321 . S
C334 H358 0.930 . S
H335 C330 0.931 . S
Co336 N333 2.135 . S
Co336 N339 2.121 . S
Co336 O344 2.055 1_554 S
Co336 O347 2.039 . S
Co336 N350 2.140 . S
C337 O338 1.227 . S
C337 O347 1.265 . S
O338 C337 1.227 . S
N339 Co336 2.121 . S
N339 C341 1.375 . S
N339 C342 1.313 . S
C340 C341 1.338 . S
C340 N343 1.377 . S
C340 H360 0.930 . S
C341 N339 1.375 . S
C341 C340 1.338 . S
C341 H345 0.931 . S
C342 N339 1.313 . S
C342 N343 1.344 . S
C342 H346 0.930 1_554 S
N343 C340 1.377 . S
N343 C342 1.344 . S
O344 Co336 2.055 1_556 S
O344 C348 1.253 . S
H345 C341 0.931 . S
H346 C342 0.930 1_556 S
O347 Co336 2.039 . S
O347 C337 1.265 . S
C348 O344 1.253 . S
C348 O349 1.227 . S
O349 C348 1.227 . S
N350 Co336 2.140 . S
N350 C353 1.346 . S
N350 C354 1.345 . S
C351 C352 1.387 . S
C351 C355 1.391 . S
C352 C351 1.387 . S
C352 C353 1.369 . S
C352 H361 0.929 . S
C353 N350 1.346 . S
C353 C352 1.369 . S
C353 H356 0.928 . S
C354 N350 1.345 . S
C354 C355 1.371 . S
C354 H357 0.931 . S
C355 C351 1.391 . S
C355 C354 1.371 . S
C355 H362 0.930 . S
H356 C353 0.928 . S
H357 C354 0.931 . S
H358 C334 0.930 . S
H359 C331 0.930 . S
H360 C340 0.930 . S
H361 C352 0.929 . S
H362 C355 0.930 . S
C363 C364 1.351 . S
C363 N366 1.368 . S
C363 H368 0.931 . S
C364 C363 1.351 . S
C364 N365 1.373 . S
C364 H392 0.930 . S
N365 C364 1.373 . S
N365 C367 1.340 . S
N366 C363 1.368 . S
N366 C367 1.321 . S
N366 Co369 2.135 . S
C367 N365 1.340 . S
C367 N366 1.321 . S
C367 H391 0.930 . S
H368 C363 0.931 . S
Co369 N366 2.135 . S
Co369 N372 2.121 . S
Co369 O377 2.055 . S
Co369 O380 2.039 . S
Co369 N383 2.140 . S
C370 O371 1.227 . S
C370 O380 1.265 . S
O371 C370 1.227 . S
N372 Co369 2.121 . S
N372 C374 1.375 . S
N372 C375 1.313 . S
C373 C374 1.338 . S
C373 N376 1.377 . S
C373 H393 0.930 . S
C374 N372 1.375 . S
C374 C373 1.338 . S
C374 H378 0.931 . S
C375 N372 1.313 . S
C375 N376 1.344 . S
C375 H379 0.930 . S
N376 C373 1.377 . S
N376 C375 1.344 . S
O377 Co369 2.055 . S
O377 C381 1.253 . S
H378 C374 0.931 . S
H379 C375 0.930 . S
O380 Co369 2.039 . S
O380 C370 1.265 . S
C381 O377 1.253 . S
C381 O382 1.227 . S
O382 C381 1.227 . S
N383 Co369 2.140 . S
N383 C386 1.346 . S
N383 C387 1.345 . S
C384 C385 1.387 . S
C384 C388 1.391 . S
C385 C384 1.387 . S
C385 C386 1.369 . S
C385 H394 0.929 . S
C386 N383 1.346 . S
C386 C385 1.369 . S
C386 H389 0.928 . S
C387 N383 1.345 . S
C387 C388 1.371 . S
C387 H390 0.931 . S
C388 C384 1.391 . S
C388 C387 1.371 . S
C388 H395 0.930 . S
H389 C386 0.928 . S
H390 C387 0.931 . S
H391 C367 0.930 . S
H392 C364 0.930 . S
H393 C373 0.930 . S
H394 C385 0.929 . S
H395 C388 0.930 . S
C396 C397 1.351 . S
C396 N399 1.368 . S
C396 H401 0.931 . S
C397 C396 1.351 . S
C397 N398 1.373 . S
C397 H425 0.930 . S
N398 C397 1.373 . S
N398 C400 1.340 . S
N399 C396 1.368 . S
N399 C400 1.321 . S
N399 Co402 2.135 . S
C400 N398 1.340 . S
C400 N399 1.321 . S
C400 H424 0.930 . S
H401 C396 0.931 . S
Co402 N399 2.135 . S
Co402 N405 2.121 . S
Co402 O410 2.055 . S
Co402 O413 2.039 . S
Co402 N416 2.140 . S
C403 O404 1.227 . S
C403 O413 1.265 . S
O404 C403 1.227 . S
N405 Co402 2.121 . S
N405 C407 1.375 . S
N405 C408 1.313 . S
C406 C407 1.338 . S
C406 N409 1.377 . S
C406 H426 0.930 . S
C407 N405 1.375 . S
C407 C406 1.338 . S
C407 H411 0.931 . S
C408 N405 1.313 . S
C408 N409 1.344 . S
C408 H412 0.930 . S
N409 C406 1.377 . S
N409 C408 1.344 . S
O410 Co402 2.055 . S
O410 C414 1.253 . S
H411 C407 0.931 . S
H412 C408 0.930 . S
O413 Co402 2.039 . S
O413 C403 1.265 . S
C414 O410 1.253 . S
C414 O415 1.227 . S
O415 C414 1.227 . S
N416 Co402 2.140 . S
N416 C419 1.346 . S
N416 C420 1.345 . S
C417 C418 1.387 . S
C417 C421 1.391 . S
C418 C417 1.387 . S
C418 C419 1.369 . S
C418 H427 0.929 . S
C419 N416 1.346 . S
C419 C418 1.369 . S
C419 H422 0.928 . S
C420 N416 1.345 . S
C420 C421 1.371 . S
C420 H423 0.931 . S
C421 C417 1.391 . S
C421 C420 1.371 . S
C421 H428 0.930 . S
H422 C419 0.928 . S
H423 C420 0.931 . S
H424 C400 0.930 . S
H425 C397 0.930 . S
H426 C406 0.930 . S
H427 C418 0.929 . S
H428 C421 0.930 . S
C429 C430 1.351 . S
C429 N432 1.368 . S
C429 H434 0.931 . S
C430 C429 1.351 . S
C430 N431 1.373 . S
C430 H458 0.930 . S
N431 C430 1.373 . S
N431 C433 1.340 . S
N432 C429 1.368 . S
N432 C433 1.321 . S
N432 Co435 2.135 . S
C433 N431 1.340 . S
C433 N432 1.321 . S
C433 H457 0.930 . S
H434 C429 0.931 . S
Co435 N432 2.135 . S
Co435 N438 2.121 . S
Co435 O443 2.055 . S
Co435 O446 2.039 . S
Co435 N449 2.140 . S
C436 O437 1.227 . S
C436 O446 1.265 . S
O437 C436 1.227 . S
N438 Co435 2.121 . S
N438 C440 1.375 . S
N438 C441 1.313 . S
C439 C440 1.338 . S
C439 N442 1.377 . S
C439 H459 0.930 . S
C440 N438 1.375 . S
C440 C439 1.338 . S
C440 H444 0.931 . S
C441 N438 1.313 . S
C441 N442 1.344 . S
C441 H445 0.930 . S
N442 C439 1.377 . S
N442 C441 1.344 . S
O443 Co435 2.055 . S
O443 C447 1.253 . S
H444 C440 0.931 . S
H445 C441 0.930 . S
O446 Co435 2.039 . S
O446 C436 1.265 . S
C447 O443 1.253 . S
C447 O448 1.227 . S
O448 C447 1.227 . S
N449 Co435 2.140 . S
N449 C452 1.346 . S
N449 C453 1.345 . S
C450 C451 1.387 . S
C450 C454 1.391 . S
C451 C450 1.387 . S
C451 C452 1.369 . S
C451 H460 0.929 . S
C452 N449 1.346 . S
C452 C451 1.369 . S
C452 H455 0.928 . S
C453 N449 1.345 . S
C453 C454 1.371 . S
C453 H456 0.931 . S
C454 C450 1.391 . S
C454 C453 1.371 . S
C454 H461 0.930 . S
H455 C452 0.928 . S
H456 C453 0.931 . S
H457 C433 0.930 . S
H458 C430 0.930 . S
H459 C439 0.930 . S
H460 C451 0.929 . S
H461 C454 0.930 . S
C462 C463 1.351 . S
C462 N465 1.368 . S
C462 H467 0.931 . S
C463 C462 1.351 . S
C463 N464 1.373 . S
C463 H491 0.930 . S
N464 C463 1.373 . S
N464 C466 1.340 . S
N465 C462 1.368 . S
N465 C466 1.321 . S
N465 Co468 2.135 . S
C466 N464 1.340 . S
C466 N465 1.321 . S
C466 H490 0.930 . S
H467 C462 0.931 . S
Co468 N465 2.135 . S
Co468 N471 2.121 . S
Co468 O476 2.055 . S
Co468 O479 2.039 . S
Co468 N482 2.140 . S
C469 O470 1.227 . S
C469 O479 1.265 . S
O470 C469 1.227 . S
N471 Co468 2.121 . S
N471 C473 1.375 . S
N471 C474 1.313 . S
C472 C473 1.338 . S
C472 N475 1.377 . S
C472 H492 0.930 . S
C473 N471 1.375 . S
C473 C472 1.338 . S
C473 H477 0.931 . S
C474 N471 1.313 . S
C474 N475 1.344 . S
C474 H478 0.930 . S
N475 C472 1.377 . S
N475 C474 1.344 . S
O476 Co468 2.055 . S
O476 C480 1.253 . S
H477 C473 0.931 . S
H478 C474 0.930 . S
O479 Co468 2.039 . S
O479 C469 1.265 . S
C480 O476 1.253 . S
C480 O481 1.227 . S
O481 C480 1.227 . S
N482 Co468 2.140 . S
N482 C485 1.346 . S
N482 C486 1.345 . S
C483 C484 1.387 . S
C483 C487 1.391 . S
C484 C483 1.387 . S
C484 C485 1.369 . S
C484 H493 0.929 . S
C485 N482 1.346 . S
C485 C484 1.369 . S
C485 H488 0.928 . S
C486 N482 1.345 . S
C486 C487 1.371 . S
C486 H489 0.931 . S
C487 C483 1.391 . S
C487 C486 1.371 . S
C487 H494 0.930 . S
H488 C485 0.928 . S
H489 C486 0.931 . S
H490 C466 0.930 . S
H491 C463 0.930 . S
H492 C472 0.930 . S
H493 C484 0.929 . S
H494 C487 0.930 . S
C495 C496 1.351 . S
C495 N498 1.368 . S
C495 H500 0.931 . S
C496 C495 1.351 . S
C496 N497 1.373 . S
C496 H524 0.930 . S
N497 C496 1.373 . S
N497 C499 1.340 . S
N498 C495 1.368 . S
N498 C499 1.321 . S
N498 Co501 2.135 . S
C499 N497 1.340 . S
C499 N498 1.321 . S
C499 H523 0.930 . S
H500 C495 0.931 . S
Co501 N498 2.135 . S
Co501 N504 2.121 . S
Co501 O509 2.055 . S
Co501 O512 2.039 . S
Co501 N515 2.140 . S
C502 O503 1.227 . S
C502 O512 1.265 . S
O503 C502 1.227 . S
N504 Co501 2.121 . S
N504 C506 1.375 . S
N504 C507 1.313 . S
C505 C506 1.338 . S
C505 N508 1.377 . S
C505 H525 0.930 . S
C506 N504 1.375 . S
C506 C505 1.338 . S
C506 H510 0.931 . S
C507 N504 1.313 . S
C507 N508 1.344 . S
C507 H511 0.930 . S
N508 C505 1.377 . S
N508 C507 1.344 . S
O509 Co501 2.055 . S
O509 C513 1.253 . S
H510 C506 0.931 . S
H511 C507 0.930 . S
O512 Co501 2.039 . S
O512 C502 1.265 . S
C513 O509 1.253 . S
C513 O514 1.227 . S
O514 C513 1.227 . S
N515 Co501 2.140 . S
N515 C518 1.346 . S
N515 C519 1.345 . S
C516 C517 1.387 . S
C516 C520 1.391 . S
C517 C516 1.387 . S
C517 C518 1.369 . S
C517 H526 0.929 . S
C518 N515 1.346 . S
C518 C517 1.369 . S
C518 H521 0.928 . S
C519 N515 1.345 . S
C519 C520 1.371 . S
C519 H522 0.931 . S
C520 C516 1.391 . S
C520 C519 1.371 . S
C520 H527 0.930 . S
H521 C518 0.928 . S
H522 C519 0.931 . S
H523 C499 0.930 . S
H524 C496 0.930 . S
H525 C505 0.930 . S
H526 C517 0.929 . S
H527 C520 0.930 . S
C528 C529 1.349 . S
C528 C530 1.327 . S
C528 H553 0.950 . S
C529 C528 1.349 . S
C529 C545 1.349 . S
C530 C528 1.327 . S
C530 C549 1.429 . S
C530 H554 0.950 . S
C531 C548 1.574 . S
C531 C550 1.368 . S
C531 H555 0.949 . S
H532 C536 0.949 . S
C533 C534 1.349 . S
C533 C535 1.327 . S
C533 H556 0.950 . S
C534 C533 1.349 . S
C534 C546 1.349 . S
C535 C533 1.327 . S
C535 C551 1.429 . S
C535 H557 0.950 . S
C536 H532 0.949 . S
C536 C544 1.574 . S
C536 C552 1.368 . S
H537 C545 0.950 . S
H538 C543 0.950 . S
H539 C544 0.949 . S
H540 C546 0.950 . S
H541 C547 0.950 . S
H542 C548 0.949 . S
C543 H538 0.950 . S
C543 C545 1.327 . S
C543 C549 1.429 . S
C544 C536 1.574 . S
C544 H539 0.949 . S
C544 C550 1.368 . S
C545 C529 1.349 . S
C545 H537 0.950 . S
C545 C543 1.327 . S
C546 C534 1.349 . S
C546 H540 0.950 . S
C546 C547 1.327 . S
C547 H541 0.950 . S
C547 C546 1.327 . S
C547 C551 1.429 . S
C548 C531 1.574 . S
C548 H542 0.949 . S
C548 C552 1.368 . S
C549 C530 1.429 . S
C549 C543 1.429 . S
C549 C550 1.523 . S
C550 C531 1.368 . S
C550 C544 1.368 . S
C550 C549 1.523 . S
C551 C535 1.429 . S
C551 C547 1.429 . S
C551 C552 1.523 . S
C552 C536 1.368 . S
C552 C548 1.368 . S
C552 C551 1.523 . S
H553 C528 0.950 . S
H554 C530 0.950 . S
H555 C531 0.949 . S
H556 C533 0.950 . S
H557 C535 0.950 . S
C558 C559 1.349 . S
C558 C560 1.327 . S
C558 H583 0.950 . S
C559 C558 1.349 . S
C559 C575 1.349 . S
C560 C558 1.327 . S
C560 C579 1.429 . S
C560 H584 0.950 . S
C561 C578 1.574 1_665 S
C561 C580 1.368 . S
C561 H585 0.949 . S
H562 C566 0.949 . S
C563 C564 1.349 . S
C563 C565 1.327 . S
C563 H586 0.950 . S
C564 C563 1.349 . S
C564 C576 1.349 . S
C565 C563 1.327 . S
C565 C581 1.429 . S
C565 H587 0.950 . S
C566 H562 0.949 . S
C566 C574 1.574 1_445 S
C566 C582 1.368 . S
H567 C575 0.950 . S
H568 C573 0.950 . S
H569 C574 0.949 . S
H570 C576 0.950 . S
H571 C577 0.950 . S
H572 C578 0.949 . S
C573 H568 0.950 . S
C573 C575 1.327 . S
C573 C579 1.429 . S
C574 C566 1.574 1_665 S
C574 H569 0.949 . S
C574 C580 1.368 . S
C575 C559 1.349 . S
C575 H567 0.950 . S
C575 C573 1.327 . S
C576 C564 1.349 . S
C576 H570 0.950 . S
C576 C577 1.327 . S
C577 H571 0.950 . S
C577 C576 1.327 . S
C577 C581 1.429 . S
C578 C561 1.574 1_445 S
C578 H572 0.949 . S
C578 C582 1.368 . S
C579 C560 1.429 . S
C579 C573 1.429 . S
C579 C580 1.523 . S
C580 C561 1.368 . S
C580 C574 1.368 . S
C580 C579 1.523 . S
C581 C565 1.429 . S
C581 C577 1.429 . S
C581 C582 1.523 . S
C582 C566 1.368 . S
C582 C578 1.368 . S
C582 C581 1.523 . S
H583 C558 0.950 . S
H584 C560 0.950 . S
H585 C561 0.949 . S
H586 C563 0.950 . S
H587 C565 0.950 . S
C588 C589 1.349 . S
C588 C590 1.327 . S
C588 H613 0.950 . S
C589 C588 1.349 . S
C589 C605 1.349 . S
C590 C588 1.327 . S
C590 C609 1.429 . S
C590 H614 0.950 . S
C591 C608 1.574 1_545 S
C591 C610 1.368 . S
C591 H615 0.949 . S
H592 C596 0.949 . S
C593 C594 1.349 . S
C593 C595 1.327 . S
C593 H616 0.950 . S
C594 C593 1.349 . S
C594 C606 1.349 . S
C595 C593 1.327 . S
C595 C611 1.429 . S
C595 H617 0.950 . S
C596 H592 0.949 . S
C596 C604 1.574 1_565 S
C596 C612 1.368 . S
H597 C605 0.950 . S
H598 C603 0.950 . S
H599 C604 0.949 . S
H600 C606 0.950 . S
H601 C607 0.950 . S
H602 C608 0.949 . S
C603 H598 0.950 . S
C603 C605 1.327 . S
C603 C609 1.429 . S
C604 C596 1.574 1_545 S
C604 H599 0.949 . S
C604 C610 1.368 . S
C605 C589 1.349 . S
C605 H597 0.950 . S
C605 C603 1.327 . S
C606 C594 1.349 . S
C606 H600 0.950 . S
C606 C607 1.327 . S
C607 H601 0.950 . S
C607 C606 1.327 . S
C607 C611 1.429 . S
C608 C591 1.574 1_565 S
C608 H602 0.949 . S
C608 C612 1.368 . S
C609 C590 1.429 . S
C609 C603 1.429 . S
C609 C610 1.523 . S
C610 C591 1.368 . S
C610 C604 1.368 . S
C610 C609 1.523 . S
C611 C595 1.429 . S
C611 C607 1.429 . S
C611 C612 1.523 . S
C612 C596 1.368 . S
C612 C608 1.368 . S
C612 C611 1.523 . S
H613 C588 0.950 . S
H614 C590 0.950 . S
H615 C591 0.949 . S
H616 C593 0.950 . S
H617 C595 0.950 . S
C618 C619 1.349 . S
C618 C620 1.327 . S
C618 H643 0.950 . S
C619 C618 1.349 . S
C619 C635 1.349 . S
C620 C618 1.327 . S
C620 C639 1.429 . S
C620 H644 0.950 . S
C621 C638 1.574 . S
C621 C640 1.368 1_455 S
C621 H645 0.949 . S
H622 C626 0.949 . S
C623 C624 1.349 . S
C623 C625 1.327 . S
C623 H646 0.950 . S
C624 C623 1.349 . S
C624 C636 1.349 . S
C625 C623 1.327 . S
C625 C641 1.429 . S
C625 H647 0.950 . S
C626 H622 0.949 . S
C626 C634 1.574 . S
C626 C642 1.368 1_655 S
H627 C635 0.950 . S
H628 C633 0.950 1_455 S
H629 C634 0.949 . S
H630 C636 0.950 . S
H631 C637 0.950 1_655 S
H632 C638 0.949 . S
C633 H628 0.950 1_655 S
C633 C635 1.327 . S
C633 C639 1.429 . S
C634 C626 1.574 . S
C634 H629 0.949 . S
C634 C640 1.368 . S
C635 C619 1.349 . S
C635 H627 0.950 . S
C635 C633 1.327 . S
C636 C624 1.349 . S
C636 H630 0.950 . S
C636 C637 1.327 . S
C637 H631 0.950 1_455 S
C637 C636 1.327 . S
C637 C641 1.429 . S
C638 C621 1.574 . S
C638 H632 0.949 . S
C638 C642 1.368 . S
C639 C620 1.429 . S
C639 C633 1.429 . S
C639 C640 1.523 . S
C640 C621 1.368 1_655 S
C640 C634 1.368 . S
C640 C639 1.523 . S
C641 C625 1.429 . S
C641 C637 1.429 . S
C641 C642 1.523 . S
C642 C626 1.368 1_455 S
C642 C638 1.368 . S
C642 C641 1.523 . S
H643 C618 0.950 . S
H644 C620 0.950 . S
H645 C621 0.949 . S
H646 C623 0.950 . S
H647 C625 0.950 . S
C648 C649 1.349 . S
C648 C650 1.327 . S
C648 H673 0.950 . S
C649 C648 1.349 . S
C649 C665 1.349 . S
C650 C648 1.327 . S
C650 C669 1.429 . S
C650 H674 0.950 . S
C651 C668 1.574 . S
C651 C670 1.368 . S
C651 H675 0.949 . S
H652 C656 0.949 . S
C653 C654 1.349 . S
C653 C655 1.327 . S
C653 H676 0.950 . S
C654 C653 1.349 . S
C654 C666 1.349 . S
C655 C653 1.327 . S
C655 C671 1.429 . S
C655 H677 0.950 . S
C656 H652 0.949 . S
C656 C664 1.574 . S
C656 C672 1.368 . S
H657 C665 0.950 . S
H658 C663 0.950 . S
H659 C664 0.949 . S
H660 C666 0.950 . S
H661 C667 0.950 . S
H662 C668 0.949 . S
C663 H658 0.950 . S
C663 C665 1.327 . S
C663 C669 1.429 . S
C664 C656 1.574 . S
C664 H659 0.949 . S
C664 C670 1.368 . S
C665 C649 1.349 . S
C665 H657 0.950 . S
C665 C663 1.327 . S
C666 C654 1.349 . S
C666 H660 0.950 . S
C666 C667 1.327 . S
C667 H661 0.950 . S
C667 C666 1.327 . S
C667 C671 1.429 . S
C668 C651 1.574 . S
C668 H662 0.949 . S
C668 C672 1.368 . S
C669 C650 1.429 . S
C669 C663 1.429 . S
C669 C670 1.523 . S
C670 C651 1.368 . S
C670 C664 1.368 . S
C670 C669 1.523 . S
C671 C655 1.429 . S
C671 C667 1.429 . S
C671 C672 1.523 . S
C672 C656 1.368 . S
C672 C668 1.368 . S
C672 C671 1.523 . S
H673 C648 0.950 . S
H674 C650 0.950 . S
H675 C651 0.949 . S
H676 C653 0.950 . S
H677 C655 0.950 . S
C678 C679 1.349 . S
C678 C680 1.327 . S
C678 H703 0.950 . S
C679 C678 1.349 . S
C679 C695 1.349 . S
C680 C678 1.327 . S
C680 C699 1.429 . S
C680 H704 0.950 . S
C681 C698 1.574 1_565 S
C681 C700 1.368 . S
C681 H705 0.949 . S
H682 C686 0.949 . S
C683 C684 1.349 . S
C683 C685 1.327 . S
C683 H706 0.950 . S
C684 C683 1.349 . S
C684 C696 1.349 . S
C685 C683 1.327 . S
C685 C701 1.429 . S
C685 H707 0.950 . S
C686 H682 0.949 . S
C686 C694 1.574 1_545 S
C686 C702 1.368 . S
H687 C695 0.950 . S
H688 C693 0.950 . S
H689 C694 0.949 . S
H690 C696 0.950 . S
H691 C697 0.950 . S
H692 C698 0.949 . S
C693 H688 0.950 . S
C693 C695 1.327 . S
C693 C699 1.429 . S
C694 C686 1.574 1_565 S
C694 H689 0.949 . S
C694 C700 1.368 . S
C695 C679 1.349 . S
C695 H687 0.950 . S
C695 C693 1.327 . S
C696 C684 1.349 . S
C696 H690 0.950 . S
C696 C697 1.327 . S
C697 H691 0.950 . S
C697 C696 1.327 . S
C697 C701 1.429 . S
C698 C681 1.574 1_545 S
C698 H692 0.949 . S
C698 C702 1.368 . S
C699 C680 1.429 . S
C699 C693 1.429 . S
C699 C700 1.523 . S
C700 C681 1.368 . S
C700 C694 1.368 . S
C700 C699 1.523 . S
C701 C685 1.429 . S
C701 C697 1.429 . S
C701 C702 1.523 . S
C702 C686 1.368 . S
C702 C698 1.368 . S
C702 C701 1.523 . S
H703 C678 0.950 . S
H704 C680 0.950 . S
H705 C681 0.949 . S
H706 C683 0.950 . S
H707 C685 0.950 . S
C708 C709 1.349 . S
C708 C710 1.327 . S
C708 H733 0.950 . S
C709 C708 1.349 . S
C709 C725 1.349 . S
C710 C708 1.327 . S
C710 C729 1.429 . S
C710 H734 0.950 1_655 S
C711 C728 1.574 . S
C711 C730 1.368 . S
C711 H735 0.949 . S
H712 C716 0.949 . S
C713 C714 1.349 . S
C713 C715 1.327 . S
C713 H736 0.950 . S
C714 C713 1.349 . S
C714 C726 1.349 . S
C715 C713 1.327 . S
C715 C731 1.429 . S
C715 H737 0.950 1_455 S
C716 H712 0.949 . S
C716 C724 1.574 . S
C716 C732 1.368 . S
H717 C725 0.950 . S
H718 C723 0.950 . S
H719 C724 0.949 . S
H720 C726 0.950 . S
H721 C727 0.950 . S
H722 C728 0.949 . S
C723 H718 0.950 . S
C723 C725 1.327 . S
C723 C729 1.429 . S
C724 C716 1.574 . S
C724 H719 0.949 . S
C724 C730 1.368 1_455 S
C725 C709 1.349 . S
C725 H717 0.950 . S
C725 C723 1.327 . S
C726 C714 1.349 . S
C726 H720 0.950 . S
C726 C727 1.327 . S
C727 H721 0.950 . S
C727 C726 1.327 . S
C727 C731 1.429 . S
C728 C711 1.574 . S
C728 H722 0.949 . S
C728 C732 1.368 1_655 S
C729 C710 1.429 . S
C729 C723 1.429 . S
C729 C730 1.523 . S
C730 C711 1.368 . S
C730 C724 1.368 1_655 S
C730 C729 1.523 . S
C731 C715 1.429 . S
C731 C727 1.429 . S
C731 C732 1.523 . S
C732 C716 1.368 . S
C732 C728 1.368 1_455 S
C732 C731 1.523 . S
H733 C708 0.950 . S
H734 C710 0.950 1_455 S
H735 C711 0.949 . S
H736 C713 0.950 . S
H737 C715 0.950 1_655 S
C738 C739 1.349 . S
C738 C740 1.327 . S
C738 H763 0.950 . S
C739 C738 1.349 . S
C739 C755 1.349 1_554 S
C740 C738 1.327 . S
C740 C759 1.429 . S
C740 H764 0.950 . S
C741 C758 1.574 . S
C741 C760 1.368 1_556 S
C741 H765 0.949 . S
H742 C746 0.949 . S
C743 C744 1.349 . S
C743 C745 1.327 . S
C743 H766 0.950 . S
C744 C743 1.349 . S
C744 C756 1.349 1_556 S
C745 C743 1.327 . S
C745 C761 1.429 . S
C745 H767 0.950 . S
C746 H742 0.949 . S
C746 C754 1.574 . S
C746 C762 1.368 1_554 S
H747 C755 0.950 . S
H748 C753 0.950 . S
H749 C754 0.949 . S
H750 C756 0.950 . S
H751 C757 0.950 . S
H752 C758 0.949 . S
C753 H748 0.950 . S
C753 C755 1.327 . S
C753 C759 1.429 1_556 S
C754 C746 1.574 . S
C754 H749 0.949 . S
C754 C760 1.368 . S
C755 C739 1.349 1_556 S
C755 H747 0.950 . S
C755 C753 1.327 . S
C756 C744 1.349 1_554 S
C756 H750 0.950 . S
C756 C757 1.327 . S
C757 H751 0.950 . S
C757 C756 1.327 . S
C757 C761 1.429 1_554 S
C758 C741 1.574 . S
C758 H752 0.949 . S
C758 C762 1.368 . S
C759 C740 1.429 . S
C759 C753 1.429 1_554 S
C759 C760 1.523 . S
C760 C741 1.368 1_554 S
C760 C754 1.368 . S
C760 C759 1.523 . S
C761 C745 1.429 . S
C761 C757 1.429 1_556 S
C761 C762 1.523 . S
C762 C746 1.368 1_556 S
C762 C758 1.368 . S
C762 C761 1.523 . S
H763 C738 0.950 . S
H764 C740 0.950 . S
H765 C741 0.949 . S
H766 C743 0.950 . S
H767 C745 0.950 . S
C768 C769 1.349 . S
C768 C770 1.327 . S
C768 H793 0.950 . S
C769 C768 1.349 . S
C769 C785 1.349 . S
C770 C768 1.327 . S
C770 C789 1.429 . S
C770 H794 0.950 1_655 S
C771 C788 1.574 . S
C771 C790 1.368 1_556 S
C771 H795 0.949 . S
H772 C776 0.949 . S
C773 C774 1.349 . S
C773 C775 1.327 . S
C773 H796 0.950 . S
C774 C773 1.349 . S
C774 C786 1.349 . S
C775 C773 1.327 . S
C775 C791 1.429 . S
C775 H797 0.950 1_455 S
C776 H772 0.949 . S
C776 C784 1.574 . S
C776 C792 1.368 1_554 S
H777 C785 0.950 1_556 S
H778 C783 0.950 . S
H779 C784 0.949 . S
H780 C786 0.950 1_554 S
H781 C787 0.950 . S
H782 C788 0.949 . S
C783 H778 0.950 . S
C783 C785 1.327 1_556 S
C783 C789 1.429 1_556 S
C784 C776 1.574 . S
C784 H779 0.949 . S
C784 C790 1.368 1_455 S
C785 C769 1.349 . S
C785 H777 0.950 1_554 S
C785 C783 1.327 1_554 S
C786 C774 1.349 . S
C786 H780 0.950 1_556 S
C786 C787 1.327 1_556 S
C787 H781 0.950 . S
C787 C786 1.327 1_554 S
C787 C791 1.429 1_554 S
C788 C771 1.574 . S
C788 H782 0.949 . S
C788 C792 1.368 1_655 S
C789 C770 1.429 . S
C789 C783 1.429 1_554 S
C789 C790 1.523 . S
C790 C771 1.368 1_554 S
C790 C784 1.368 1_655 S
C790 C789 1.523 . S
C791 C775 1.429 . S
C791 C787 1.429 1_556 S
C791 C792 1.523 . S
C792 C776 1.368 1_556 S
C792 C788 1.368 1_455 S
C792 C791 1.523 . S
H793 C768 0.950 . S
H794 C770 0.950 1_455 S
H795 C771 0.949 . S
H796 C773 0.950 . S
H797 C775 0.950 1_655 S
C798 C799 1.349 . S
C798 C800 1.327 . S
C798 H823 0.950 . S
C799 C798 1.349 . S
C799 C815 1.349 . S
C800 C798 1.327 . S
C800 C819 1.429 . S
C800 H824 0.950 . S
C801 C818 1.574 . S
C801 C820 1.368 . S
C801 H825 0.949 . S
H802 C806 0.949 . S
C803 C804 1.349 . S
C803 C805 1.327 . S
C803 H826 0.950 . S
C804 C803 1.349 . S
C804 C816 1.349 . S
C805 C803 1.327 . S
C805 C821 1.429 . S
C805 H827 0.950 . S
C806 H802 0.949 . S
C806 C814 1.574 . S
C806 C822 1.368 . S
H807 C815 0.950 . S
H808 C813 0.950 . S
H809 C814 0.949 . S
H810 C816 0.950 . S
H811 C817 0.950 . S
H812 C818 0.949 . S
C813 H808 0.950 . S
C813 C815 1.327 . S
C813 C819 1.429 . S
C814 C806 1.574 . S
C814 H809 0.949 . S
C814 C820 1.368 . S
C815 C799 1.349 . S
C815 H807 0.950 . S
C815 C813 1.327 . S
C816 C804 1.349 . S
C816 H810 0.950 . S
C816 C817 1.327 . S
C817 H811 0.950 . S
C817 C816 1.327 . S
C817 C821 1.429 . S
C818 C801 1.574 . S
C818 H812 0.949 . S
C818 C822 1.368 . S
C819 C800 1.429 . S
C819 C813 1.429 . S
C819 C820 1.523 . S
C820 C801 1.368 . S
C820 C814 1.368 . S
C820 C819 1.523 . S
C821 C805 1.429 . S
C821 C817 1.429 . S
C821 C822 1.523 . S
C822 C806 1.368 . S
C822 C818 1.368 . S
C822 C821 1.523 . S
H823 C798 0.950 . S
H824 C800 0.950 . S
H825 C801 0.949 . S
H826 C803 0.950 . S
H827 C805 0.950 . S
C828 C829 1.349 . S
C828 C830 1.327 . S
C828 H853 0.950 . S
C829 C828 1.349 . S
C829 C845 1.324 1_556 S
C830 C828 1.327 . S
C830 C849 1.429 . S
C830 H854 0.950 . S
C831 C848 1.574 . S
C831 C850 1.368 1_554 S
C831 H855 0.949 . S
H832 C836 0.949 . S
C833 C834 1.349 . S
C833 C835 1.327 . S
C833 H856 0.950 . S
C834 C833 1.349 . S
C834 C846 1.324 1_554 S
C835 C833 1.327 . S
C835 C851 1.429 . S
C835 H857 0.950 . S
C836 H832 0.949 . S
C836 C844 1.574 . S
C836 C852 1.368 1_556 S
H837 C845 0.974 . S
H838 C843 0.950 . S
H839 C844 0.949 . S
H840 C846 0.974 . S
H841 C847 0.950 . S
H842 C848 0.949 . S
C843 H838 0.950 . S
C843 C845 1.329 . S
C843 C849 1.429 1_554 S
C844 C836 1.574 . S
C844 H839 0.949 . S
C844 C850 1.368 . S
C845 C829 1.324 1_554 S
C845 H837 0.974 . S
C845 C843 1.329 . S
C846 C834 1.324 1_556 S
C846 H840 0.974 . S
C846 C847 1.329 . S
C847 H841 0.950 . S
C847 C846 1.329 . S
C847 C851 1.429 1_556 S
C848 C831 1.574 . S
C848 H842 0.949 . S
C848 C852 1.368 . S
C849 C830 1.429 . S
C849 C843 1.429 1_556 S
C849 C850 1.523 . S
C850 C831 1.368 1_556 S
C850 C844 1.368 . S
C850 C849 1.523 . S
C851 C835 1.429 . S
C851 C847 1.429 1_554 S
C851 C852 1.523 . S
C852 C836 1.368 1_554 S
C852 C848 1.368 . S
C852 C851 1.523 . S
H853 C828 0.950 . S
H854 C830 0.950 . S
H855 C831 0.949 . S
H856 C833 0.950 . S
H857 C835 0.950 . S
C858 C859 1.349 . S
C858 C860 1.327 . S
C858 H883 0.950 . S
C859 C858 1.349 . S
C859 C875 1.349 . S
C860 C858 1.327 . S
C860 C879 1.429 . S
C860 H884 0.950 . S
C861 C878 1.574 . S
C861 C880 1.368 . S
C861 H885 0.949 . S
H862 C866 0.949 . S
C863 C864 1.349 . S
C863 C865 1.327 . S
C863 H886 0.950 . S
C864 C863 1.349 . S
C864 C876 1.349 . S
C865 C863 1.327 . S
C865 C881 1.429 . S
C865 H887 0.950 . S
C866 H862 0.949 . S
C866 C874 1.574 . S
C866 C882 1.368 . S
H867 C875 0.950 . S
H868 C873 0.950 . S
H869 C874 0.949 . S
H870 C876 0.950 . S
H871 C877 0.950 . S
H872 C878 0.949 . S
C873 H868 0.950 . S
C873 C875 1.327 . S
C873 C879 1.429 . S
C874 C866 1.574 . S
C874 H869 0.949 . S
C874 C880 1.368 . S
C875 C859 1.349 . S
C875 H867 0.950 . S
C875 C873 1.327 . S
C876 C864 1.349 . S
C876 H870 0.950 . S
C876 C877 1.327 . S
C877 H871 0.950 . S
C877 C876 1.327 . S
C877 C881 1.429 . S
C878 C861 1.574 . S
C878 H872 0.949 . S
C878 C882 1.368 . S
C879 C860 1.429 . S
C879 C873 1.429 . S
C879 C880 1.523 . S
C880 C861 1.368 . S
C880 C874 1.368 . S
C880 C879 1.523 . S
C881 C865 1.429 . S
C881 C877 1.429 . S
C881 C882 1.523 . S
C882 C866 1.368 . S
C882 C878 1.368 . S
C882 C881 1.523 . S
H883 C858 0.950 . S
H884 C860 0.950 . S
H885 C861 0.949 . S
H886 C863 0.950 . S
H887 C865 0.950 . S
C888 C889 1.349 . S
C888 C890 1.327 . S
C888 H913 0.950 . S
C889 C888 1.349 . S
C889 C905 1.358 . S
C890 C888 1.327 . S
C890 C909 1.429 . S
C890 H914 0.950 . S
C891 C908 1.574 1_545 S
C891 C910 1.368 1_554 S
C891 H915 0.949 . S
H892 C896 0.949 . S
C893 C894 1.349 . S
C893 C895 1.327 . S
C893 H916 0.950 . S
C894 C893 1.349 . S
C894 C906 1.358 . S
C895 C893 1.327 . S
C895 C911 1.429 . S
C895 H917 0.950 . S
C896 H892 0.949 . S
C896 C904 1.574 1_565 S
C896 C912 1.368 1_556 S
H897 C905 0.945 1_554 S
H898 C903 0.950 . S
H899 C904 0.949 . S
H900 C906 0.945 1_556 S
H901 C907 0.950 . S
H902 C908 0.949 . S
C903 H898 0.950 . S
C903 C905 1.323 1_554 S
C903 C909 1.429 1_554 S
C904 C896 1.574 1_545 S
C904 H899 0.949 . S
C904 C910 1.368 . S
C905 C889 1.358 . S
C905 H897 0.945 1_556 S
C905 C903 1.323 1_556 S
C906 C894 1.358 . S
C906 H900 0.945 1_554 S
C906 C907 1.323 1_554 S
C907 H901 0.950 . S
C907 C906 1.323 1_556 S
C907 C911 1.429 1_556 S
C908 C891 1.574 1_565 S
C908 H902 0.949 . S
C908 C912 1.368 . S
C909 C890 1.429 . S
C909 C903 1.429 1_556 S
C909 C910 1.523 . S
C910 C891 1.368 1_556 S
C910 C904 1.368 . S
C910 C909 1.523 . S
C911 C895 1.429 . S
C911 C907 1.429 1_554 S
C911 C912 1.523 . S
C912 C896 1.368 1_554 S
C912 C908 1.368 . S
C912 C911 1.523 . S
H913 C888 0.950 . S
H914 C890 0.950 . S
H915 C891 0.949 . S
H916 C893 0.950 . S
H917 C895 0.950 . S
C918 C919 1.349 . S
C918 C920 1.327 . S
C918 H943 0.950 . S
C919 C918 1.349 . S
C919 C935 1.349 . S
C920 C918 1.327 . S
C920 C939 1.429 . S
C920 H944 0.950 . S
C921 C938 1.574 . S
C921 C940 1.368 . S
C921 H945 0.949 . S
H922 C926 0.949 . S
C923 C924 1.349 . S
C923 C925 1.327 . S
C923 H946 0.950 . S
C924 C923 1.349 . S
C924 C936 1.349 . S
C925 C923 1.327 . S
C925 C941 1.429 . S
C925 H947 0.950 . S
C926 H922 0.949 . S
C926 C934 1.574 . S
C926 C942 1.368 . S
H927 C935 0.950 . S
H928 C933 0.950 . S
H929 C934 0.949 . S
H930 C936 0.950 . S
H931 C937 0.950 . S
H932 C938 0.949 . S
C933 H928 0.950 . S
C933 C935 1.327 . S
C933 C939 1.429 . S
C934 C926 1.574 . S
C934 H929 0.949 . S
C934 C940 1.368 . S
C935 C919 1.349 . S
C935 H927 0.950 . S
C935 C933 1.327 . S
C936 C924 1.349 . S
C936 H930 0.950 . S
C936 C937 1.327 . S
C937 H931 0.950 . S
C937 C936 1.327 . S
C937 C941 1.429 . S
C938 C921 1.574 . S
C938 H932 0.949 . S
C938 C942 1.368 . S
C939 C920 1.429 . S
C939 C933 1.429 . S
C939 C940 1.523 . S
C940 C921 1.368 . S
C940 C934 1.368 . S
C940 C939 1.523 . S
C941 C925 1.429 . S
C941 C937 1.429 . S
C941 C942 1.523 . S
C942 C926 1.368 . S
C942 C938 1.368 . S
C942 C941 1.523 . S
H943 C918 0.950 . S
H944 C920 0.950 . S
H945 C921 0.949 . S
H946 C923 0.950 . S
H947 C925 0.950 . S
C948 C949 1.349 . S
C948 C950 1.327 . S
C948 H973 0.950 . S
C949 C948 1.349 . S
C949 C965 1.349 . S
C950 C948 1.327 . S
C950 C969 1.429 . S
C950 H974 0.950 . S
C951 C968 1.574 . S
C951 C970 1.368 . S
C951 H975 0.949 . S
H952 C956 0.949 . S
C953 C954 1.349 . S
C953 C955 1.327 . S
C953 H976 0.950 . S
C954 C953 1.349 . S
C954 C966 1.349 . S
C955 C953 1.327 . S
C955 C971 1.429 . S
C955 H977 0.950 . S
C956 H952 0.949 . S
C956 C964 1.574 . S
C956 C972 1.368 . S
H957 C965 0.950 . S
H958 C963 0.950 . S
H959 C964 0.949 . S
H960 C966 0.950 . S
H961 C967 0.950 . S
H962 C968 0.949 . S
C963 H958 0.950 . S
C963 C965 1.327 . S
C963 C969 1.429 . S
C964 C956 1.574 . S
C964 H959 0.949 . S
C964 C970 1.368 . S
C965 C949 1.349 . S
C965 H957 0.950 . S
C965 C963 1.327 . S
C966 C954 1.349 . S
C966 H960 0.950 . S
C966 C967 1.327 . S
C967 H961 0.950 . S
C967 C966 1.327 . S
C967 C971 1.429 . S
C968 C951 1.574 . S
C968 H962 0.949 . S
C968 C972 1.368 . S
C969 C950 1.429 . S
C969 C963 1.429 . S
C969 C970 1.523 . S
C970 C951 1.368 . S
C970 C964 1.368 . S
C970 C969 1.523 . S
C971 C955 1.429 . S
C971 C967 1.429 . S
C971 C972 1.523 . S
C972 C956 1.368 . S
C972 C968 1.368 . S
C972 C971 1.523 . S
H973 C948 0.950 . S
H974 C950 0.950 . S
H975 C951 0.949 . S
H976 C953 0.950 . S
H977 C955 0.950 . S
C978 C979 1.349 . S
C978 C980 1.327 . S
C978 H1003 0.950 . S
C979 C978 1.349 . S
C979 C995 1.349 . S
C980 C978 1.327 . S
C980 C999 1.429 . S
C980 H1004 0.950 . S
C981 C998 1.574 . S
C981 C1000 1.368 . S
C981 H1005 0.949 . S
H982 C986 0.949 . S
C983 C984 1.349 . S
C983 C985 1.327 . S
C983 H1006 0.950 . S
C984 C983 1.349 . S
C984 C996 1.349 . S
C985 C983 1.327 . S
C985 C1001 1.429 . S
C985 H1007 0.950 . S
C986 H982 0.949 . S
C986 C994 1.574 . S
C986 C1002 1.368 . S
H987 C995 0.950 . S
H988 C993 0.950 . S
H989 C994 0.949 . S
H990 C996 0.950 . S
H991 C997 0.950 . S
H992 C998 0.949 . S
C993 H988 0.950 . S
C993 C995 1.327 . S
C993 C999 1.429 . S
C994 C986 1.574 . S
C994 H989 0.949 . S
C994 C1000 1.368 . S
C995 C979 1.349 . S
C995 H987 0.950 . S
C995 C993 1.327 . S
C996 C984 1.349 . S
C996 H990 0.950 . S
C996 C997 1.327 . S
C997 H991 0.950 . S
C997 C996 1.327 . S
C997 C1001 1.429 . S
C998 C981 1.574 . S
C998 H992 0.949 . S
C998 C1002 1.368 . S
C999 C980 1.429 . S
C999 C993 1.429 . S
C999 C1000 1.523 . S
C1000 C981 1.368 . S
C1000 C994 1.368 . S
C1000 C999 1.523 . S
C1001 C985 1.429 . S
C1001 C997 1.429 . S
C1001 C1002 1.523 . S
C1002 C986 1.368 . S
C1002 C998 1.368 . S
C1002 C1001 1.523 . S
H1003 C978 0.950 . S
H1004 C980 0.950 . S
H1005 C981 0.949 . S
H1006 C983 0.950 . S
H1007 C985 0.950 . S
C1008 C1009 1.349 . S
C1008 C1010 1.327 . S
C1008 H1033 0.950 . S
C1009 C1008 1.349 . S
C1009 C1025 1.349 . S
C1010 C1008 1.327 . S
C1010 C1029 1.429 . S
C1010 H1034 0.950 . S
C1011 C1028 1.574 . S
C1011 C1030 1.368 . S
C1011 H1035 0.949 . S
H1012 C1016 0.949 . S
C1013 C1014 1.349 . S
C1013 C1015 1.327 . S
C1013 H1036 0.950 . S
C1014 C1013 1.349 . S
C1014 C1026 1.349 . S
C1015 C1013 1.327 . S
C1015 C1031 1.429 . S
C1015 H1037 0.950 . S
C1016 H1012 0.949 . S
C1016 C1024 1.574 . S
C1016 C1032 1.368 . S
H1017 C1025 0.950 . S
H1018 C1023 0.950 . S
H1019 C1024 0.949 . S
H1020 C1026 0.950 . S
H1021 C1027 0.950 . S
H1022 C1028 0.949 . S
C1023 H1018 0.950 . S
C1023 C1025 1.327 . S
C1023 C1029 1.429 . S
C1024 C1016 1.574 . S
C1024 H1019 0.949 . S
C1024 C1030 1.368 . S
C1025 C1009 1.349 . S
C1025 H1017 0.950 . S
C1025 C1023 1.327 . S
C1026 C1014 1.349 . S
C1026 H1020 0.950 . S
C1026 C1027 1.327 . S
C1027 H1021 0.950 . S
C1027 C1026 1.327 . S
C1027 C1031 1.429 . S
C1028 C1011 1.574 . S
C1028 H1022 0.949 . S
C1028 C1032 1.368 . S
C1029 C1010 1.429 . S
C1029 C1023 1.429 . S
C1029 C1030 1.523 . S
C1030 C1011 1.368 . S
C1030 C1024 1.368 . S
C1030 C1029 1.523 . S
C1031 C1015 1.429 . S
C1031 C1027 1.429 . S
C1031 C1032 1.523 . S
C1032 C1016 1.368 . S
C1032 C1028 1.368 . S
C1032 C1031 1.523 . S
H1033 C1008 0.950 . S
H1034 C1010 0.950 . S
H1035 C1011 0.949 . S
H1036 C1013 0.950 . S
H1037 C1015 0.950 . S
C1038 C1039 1.349 . S
C1038 C1040 1.327 . S
C1038 H1063 0.950 . S
C1039 C1038 1.349 . S
C1039 C1055 1.349 . S
C1040 C1038 1.327 . S
C1040 C1059 1.429 . S
C1040 H1064 0.950 . S
C1041 C1058 1.574 . S
C1041 C1060 1.368 . S
C1041 H1065 0.949 . S
H1042 C1046 0.949 . S
C1043 C1044 1.349 . S
C1043 C1045 1.327 . S
C1043 H1066 0.950 . S
C1044 C1043 1.349 . S
C1044 C1056 1.349 . S
C1045 C1043 1.327 . S
C1045 C1061 1.429 . S
C1045 H1067 0.950 . S
C1046 H1042 0.949 . S
C1046 C1054 1.574 . S
C1046 C1062 1.368 . S
H1047 C1055 0.950 . S
H1048 C1053 0.950 . S
H1049 C1054 0.949 . S
H1050 C1056 0.950 . S
H1051 C1057 0.950 . S
H1052 C1058 0.949 . S
C1053 H1048 0.950 . S
C1053 C1055 1.327 . S
C1053 C1059 1.429 . S
C1054 C1046 1.574 . S
C1054 H1049 0.949 . S
C1054 C1060 1.368 . S
C1055 C1039 1.349 . S
C1055 H1047 0.950 . S
C1055 C1053 1.327 . S
C1056 C1044 1.349 . S
C1056 H1050 0.950 . S
C1056 C1057 1.327 . S
C1057 H1051 0.950 . S
C1057 C1056 1.327 . S
C1057 C1061 1.429 . S
C1058 C1041 1.574 . S
C1058 H1052 0.949 . S
C1058 C1062 1.368 . S
C1059 C1040 1.429 . S
C1059 C1053 1.429 . S
C1059 C1060 1.523 . S
C1060 C1041 1.368 . S
C1060 C1054 1.368 . S
C1060 C1059 1.523 . S
C1061 C1045 1.429 . S
C1061 C1057 1.429 . S
C1061 C1062 1.523 . S
C1062 C1046 1.368 . S
C1062 C1058 1.368 . S
C1062 C1061 1.523 . S
H1063 C1038 0.950 . S
H1064 C1040 0.950 . S
H1065 C1041 0.949 . S
H1066 C1043 0.950 . S
H1067 C1045 0.950 . S
C1068 C1069 1.349 . S
C1068 C1070 1.327 . S
C1068 H1093 0.950 . S
C1069 C1068 1.349 . S
C1069 C1085 1.349 . S
C1070 C1068 1.327 . S
C1070 C1089 1.429 . S
C1070 H1094 0.950 . S
C1071 C1088 1.574 . S
C1071 C1090 1.368 . S
C1071 H1095 0.949 . S
H1072 C1076 0.949 . S
C1073 C1074 1.349 . S
C1073 C1075 1.327 . S
C1073 H1096 0.950 . S
C1074 C1073 1.349 . S
C1074 C1086 1.349 . S
C1075 C1073 1.327 . S
C1075 C1091 1.429 . S
C1075 H1097 0.950 . S
C1076 H1072 0.949 . S
C1076 C1084 1.574 . S
C1076 C1092 1.368 . S
H1077 C1085 0.950 . S
H1078 C1083 0.950 . S
H1079 C1084 0.949 . S
H1080 C1086 0.950 . S
H1081 C1087 0.950 . S
H1082 C1088 0.949 . S
C1083 H1078 0.950 . S
C1083 C1085 1.327 . S
C1083 C1089 1.429 . S
C1084 C1076 1.574 . S
C1084 H1079 0.949 . S
C1084 C1090 1.368 . S
C1085 C1069 1.349 . S
C1085 H1077 0.950 . S
C1085 C1083 1.327 . S
C1086 C1074 1.349 . S
C1086 H1080 0.950 . S
C1086 C1087 1.327 . S
C1087 H1081 0.950 . S
C1087 C1086 1.327 . S
C1087 C1091 1.429 . S
C1088 C1071 1.574 . S
C1088 H1082 0.949 . S
C1088 C1092 1.368 . S
C1089 C1070 1.429 . S
C1089 C1083 1.429 . S
C1089 C1090 1.523 . S
C1090 C1071 1.368 . S
C1090 C1084 1.368 . S
C1090 C1089 1.523 . S
C1091 C1075 1.429 . S
C1091 C1087 1.429 . S
C1091 C1092 1.523 . S
C1092 C1076 1.368 . S
C1092 C1088 1.368 . S
C1092 C1091 1.523 . S
H1093 C1068 0.950 . S
H1094 C1070 0.950 . S
H1095 C1071 0.949 . S
H1096 C1073 0.950 . S
H1097 C1075 0.950 . S
C1098 C1099 1.349 . S
C1098 C1100 1.327 . S
C1098 H1123 0.950 . S
C1099 C1098 1.349 . S
C1099 C1115 1.349 . S
C1100 C1098 1.327 . S
C1100 C1119 1.429 . S
C1100 H1124 0.950 . S
C1101 C1118 1.574 . S
C1101 C1120 1.368 . S
C1101 H1125 0.949 . S
H1102 C1106 0.949 . S
C1103 C1104 1.349 . S
C1103 C1105 1.327 . S
C1103 H1126 0.950 . S
C1104 C1103 1.349 . S
C1104 C1116 1.349 . S
C1105 C1103 1.327 . S
C1105 C1121 1.429 . S
C1105 H1127 0.950 . S
C1106 H1102 0.949 . S
C1106 C1114 1.574 . S
C1106 C1122 1.368 . S
H1107 C1115 0.950 . S
H1108 C1113 0.950 . S
H1109 C1114 0.949 . S
H1110 C1116 0.950 . S
H1111 C1117 0.950 . S
H1112 C1118 0.949 . S
C1113 H1108 0.950 . S
C1113 C1115 1.327 . S
C1113 C1119 1.429 . S
C1114 C1106 1.574 . S
C1114 H1109 0.949 . S
C1114 C1120 1.368 . S
C1115 C1099 1.349 . S
C1115 H1107 0.950 . S
C1115 C1113 1.327 . S
C1116 C1104 1.349 . S
C1116 H1110 0.950 . S
C1116 C1117 1.327 . S
C1117 H1111 0.950 . S
C1117 C1116 1.327 . S
C1117 C1121 1.429 . S
C1118 C1101 1.574 . S
C1118 H1112 0.949 . S
C1118 C1122 1.368 . S
C1119 C1100 1.429 . S
C1119 C1113 1.429 . S
C1119 C1120 1.523 . S
C1120 C1101 1.368 . S
C1120 C1114 1.368 . S
C1120 C1119 1.523 . S
C1121 C1105 1.429 . S
C1121 C1117 1.429 . S
C1121 C1122 1.523 . S
C1122 C1106 1.368 . S
C1122 C1118 1.368 . S
C1122 C1121 1.523 . S
H1123 C1098 0.950 . S
H1124 C1100 0.950 . S
H1125 C1101 0.949 . S
H1126 C1103 0.950 . S
H1127 C1105 0.950 . S
C1128 C1129 1.349 . S
C1128 C1130 1.327 . S
C1128 H1153 0.950 . S
C1129 C1128 1.349 . S
C1129 C1145 1.349 . S
C1130 C1128 1.327 . S
C1130 C1149 1.429 . S
C1130 H1154 0.950 . S
C1131 C1148 1.574 . S
C1131 C1150 1.368 . S
C1131 H1155 0.949 . S
H1132 C1136 0.949 . S
C1133 C1134 1.349 . S
C1133 C1135 1.327 . S
C1133 H1156 0.950 . S
C1134 C1133 1.349 . S
C1134 C1146 1.349 . S
C1135 C1133 1.327 . S
C1135 C1151 1.429 . S
C1135 H1157 0.950 . S
C1136 H1132 0.949 . S
C1136 C1144 1.574 . S
C1136 C1152 1.368 . S
H1137 C1145 0.950 . S
H1138 C1143 0.950 . S
H1139 C1144 0.949 . S
H1140 C1146 0.950 . S
H1141 C1147 0.950 . S
H1142 C1148 0.949 . S
C1143 H1138 0.950 . S
C1143 C1145 1.327 . S
C1143 C1149 1.429 . S
C1144 C1136 1.574 . S
C1144 H1139 0.949 . S
C1144 C1150 1.368 . S
C1145 C1129 1.349 . S
C1145 H1137 0.950 . S
C1145 C1143 1.327 . S
C1146 C1134 1.349 . S
C1146 H1140 0.950 . S
C1146 C1147 1.327 . S
C1147 H1141 0.950 . S
C1147 C1146 1.327 . S
C1147 C1151 1.429 . S
C1148 C1131 1.574 . S
C1148 H1142 0.949 . S
C1148 C1152 1.368 . S
C1149 C1130 1.429 . S
C1149 C1143 1.429 . S
C1149 C1150 1.523 . S
C1150 C1131 1.368 . S
C1150 C1144 1.368 . S
C1150 C1149 1.523 . S
C1151 C1135 1.429 . S
C1151 C1147 1.429 . S
C1151 C1152 1.523 . S
C1152 C1136 1.368 . S
C1152 C1148 1.368 . S
C1152 C1151 1.523 . S
H1153 C1128 0.950 . S
H1154 C1130 0.950 . S
H1155 C1131 0.949 . S
H1156 C1133 0.950 . S
H1157 C1135 0.950 . S
C1158 C1159 1.349 . S
C1158 C1160 1.327 . S
C1158 H1183 0.950 . S
C1159 C1158 1.349 . S
C1159 C1175 1.349 . S
C1160 C1158 1.327 . S
C1160 C1179 1.429 . S
C1160 H1184 0.950 . S
C1161 C1178 1.574 . S
C1161 C1180 1.368 . S
C1161 H1185 0.949 . S
H1162 C1166 0.949 . S
C1163 C1164 1.349 . S
C1163 C1165 1.327 . S
C1163 H1186 0.950 . S
C1164 C1163 1.349 . S
C1164 C1176 1.349 . S
C1165 C1163 1.327 . S
C1165 C1181 1.429 . S
C1165 H1187 0.950 . S
C1166 H1162 0.949 . S
C1166 C1174 1.574 . S
C1166 C1182 1.368 . S
H1167 C1175 0.950 . S
H1168 C1173 0.950 . S
H1169 C1174 0.949 . S
H1170 C1176 0.950 . S
H1171 C1177 0.950 . S
H1172 C1178 0.949 . S
C1173 H1168 0.950 . S
C1173 C1175 1.327 . S
C1173 C1179 1.429 . S
C1174 C1166 1.574 . S
C1174 H1169 0.949 . S
C1174 C1180 1.368 . S
C1175 C1159 1.349 . S
C1175 H1167 0.950 . S
C1175 C1173 1.327 . S
C1176 C1164 1.349 . S
C1176 H1170 0.950 . S
C1176 C1177 1.327 . S
C1177 H1171 0.950 . S
C1177 C1176 1.327 . S
C1177 C1181 1.429 . S
C1178 C1161 1.574 . S
C1178 H1172 0.949 . S
C1178 C1182 1.368 . S
C1179 C1160 1.429 . S
C1179 C1173 1.429 . S
C1179 C1180 1.523 . S
C1180 C1161 1.368 . S
C1180 C1174 1.368 . S
C1180 C1179 1.523 . S
C1181 C1165 1.429 . S
C1181 C1177 1.429 . S
C1181 C1182 1.523 . S
C1182 C1166 1.368 . S
C1182 C1178 1.368 . S
C1182 C1181 1.523 . S
H1183 C1158 0.950 . S
H1184 C1160 0.950 . S
H1185 C1161 0.949 . S
H1186 C1163 0.950 . S
H1187 C1165 0.950 . S
C1188 C1189 1.349 . S
C1188 C1190 1.327 . S
C1188 H1213 0.950 . S
C1189 C1188 1.349 . S
C1189 C1205 1.349 . S
C1190 C1188 1.327 . S
C1190 C1209 1.429 . S
C1190 H1214 0.950 . S
C1191 C1208 1.574 . S
C1191 C1210 1.368 . S
C1191 H1215 0.949 . S
H1192 C1196 0.949 . S
C1193 C1194 1.349 . S
C1193 C1195 1.327 . S
C1193 H1216 0.950 . S
C1194 C1193 1.349 . S
C1194 C1206 1.349 . S
C1195 C1193 1.327 . S
C1195 C1211 1.429 . S
C1195 H1217 0.950 . S
C1196 H1192 0.949 . S
C1196 C1204 1.574 . S
C1196 C1212 1.368 . S
H1197 C1205 0.950 . S
H1198 C1203 0.950 . S
H1199 C1204 0.949 . S
H1200 C1206 0.950 . S
H1201 C1207 0.950 . S
H1202 C1208 0.949 . S
C1203 H1198 0.950 . S
C1203 C1205 1.327 . S
C1203 C1209 1.429 . S
C1204 C1196 1.574 . S
C1204 H1199 0.949 . S
C1204 C1210 1.368 . S
C1205 C1189 1.349 . S
C1205 H1197 0.950 . S
C1205 C1203 1.327 . S
C1206 C1194 1.349 . S
C1206 H1200 0.950 . S
C1206 C1207 1.327 . S
C1207 H1201 0.950 . S
C1207 C1206 1.327 . S
C1207 C1211 1.429 . S
C1208 C1191 1.574 . S
C1208 H1202 0.949 . S
C1208 C1212 1.368 . S
C1209 C1190 1.429 . S
C1209 C1203 1.429 . S
C1209 C1210 1.523 . S
C1210 C1191 1.368 . S
C1210 C1204 1.368 . S
C1210 C1209 1.523 . S
C1211 C1195 1.429 . S
C1211 C1207 1.429 . S
C1211 C1212 1.523 . S
C1212 C1196 1.368 . S
C1212 C1208 1.368 . S
C1212 C1211 1.523 . S
H1213 C1188 0.950 . S
H1214 C1190 0.950 . S
H1215 C1191 0.949 . S
H1216 C1193 0.950 . S
H1217 C1195 0.950 . S
C1218 C1219 1.349 . S
C1218 C1220 1.327 . S
C1218 H1243 0.950 . S
C1219 C1218 1.349 . S
C1219 C1235 1.349 . S
C1220 C1218 1.327 . S
C1220 C1239 1.429 . S
C1220 H1244 0.950 . S
C1221 C1238 1.574 . S
C1221 C1240 1.368 . S
C1221 H1245 0.949 . S
H1222 C1226 0.949 . S
C1223 C1224 1.349 . S
C1223 C1225 1.327 . S
C1223 H1246 0.950 . S
C1224 C1223 1.349 . S
C1224 C1236 1.349 . S
C1225 C1223 1.327 . S
C1225 C1241 1.429 . S
C1225 H1247 0.950 . S
C1226 H1222 0.949 . S
C1226 C1234 1.574 . S
C1226 C1242 1.368 . S
H1227 C1235 0.950 . S
H1228 C1233 0.950 . S
H1229 C1234 0.949 . S
H1230 C1236 0.950 . S
H1231 C1237 0.950 . S
H1232 C1238 0.949 . S
C1233 H1228 0.950 . S
C1233 C1235 1.327 . S
C1233 C1239 1.429 . S
C1234 C1226 1.574 . S
C1234 H1229 0.949 . S
C1234 C1240 1.368 . S
C1235 C1219 1.349 . S
C1235 H1227 0.950 . S
C1235 C1233 1.327 . S
C1236 C1224 1.349 . S
C1236 H1230 0.950 . S
C1236 C1237 1.327 . S
C1237 H1231 0.950 . S
C1237 C1236 1.327 . S
C1237 C1241 1.429 . S
C1238 C1221 1.574 . S
C1238 H1232 0.949 . S
C1238 C1242 1.368 . S
C1239 C1220 1.429 . S
C1239 C1233 1.429 . S
C1239 C1240 1.523 . S
C1240 C1221 1.368 . S
C1240 C1234 1.368 . S
C1240 C1239 1.523 . S
C1241 C1225 1.429 . S
C1241 C1237 1.429 . S
C1241 C1242 1.523 . S
C1242 C1226 1.368 . S
C1242 C1238 1.368 . S
C1242 C1241 1.523 . S
H1243 C1218 0.950 . S
H1244 C1220 0.950 . S
H1245 C1221 0.949 . S
H1246 C1223 0.950 . S
H1247 C1225 0.950 . S
C1248 C1249 1.349 . S
C1248 C1250 1.327 . S
C1248 H1273 0.950 . S
C1249 C1248 1.349 . S
C1249 C1265 1.349 . S
C1250 C1248 1.327 . S
C1250 C1269 1.429 . S
C1250 H1274 0.950 . S
C1251 C1268 1.574 . S
C1251 C1270 1.368 . S
C1251 H1275 0.949 . S
H1252 C1256 0.949 . S
C1253 C1254 1.349 . S
C1253 C1255 1.327 . S
C1253 H1276 0.950 . S
C1254 C1253 1.349 . S
C1254 C1266 1.349 . S
C1255 C1253 1.327 . S
C1255 C1271 1.429 . S
C1255 H1277 0.950 . S
C1256 H1252 0.949 . S
C1256 C1264 1.574 . S
C1256 C1272 1.368 . S
H1257 C1265 0.950 . S
H1258 C1263 0.950 . S
H1259 C1264 0.949 . S
H1260 C1266 0.950 . S
H1261 C1267 0.950 . S
H1262 C1268 0.949 . S
C1263 H1258 0.950 . S
C1263 C1265 1.327 . S
C1263 C1269 1.429 . S
C1264 C1256 1.574 . S
C1264 H1259 0.949 . S
C1264 C1270 1.368 . S
C1265 C1249 1.349 . S
C1265 H1257 0.950 . S
C1265 C1263 1.327 . S
C1266 C1254 1.349 . S
C1266 H1260 0.950 . S
C1266 C1267 1.327 . S
C1267 H1261 0.950 . S
C1267 C1266 1.327 . S
C1267 C1271 1.429 . S
C1268 C1251 1.574 . S
C1268 H1262 0.949 . S
C1268 C1272 1.368 . S
C1269 C1250 1.429 . S
C1269 C1263 1.429 . S
C1269 C1270 1.523 . S
C1270 C1251 1.368 . S
C1270 C1264 1.368 . S
C1270 C1269 1.523 . S
C1271 C1255 1.429 . S
C1271 C1267 1.429 . S
C1271 C1272 1.523 . S
C1272 C1256 1.368 . S
C1272 C1268 1.368 . S
C1272 C1271 1.523 . S
H1273 C1248 0.950 . S
H1274 C1250 0.950 . S
H1275 C1251 0.949 . S
H1276 C1253 0.950 . S
H1277 C1255 0.950 . S
C1278 C1279 1.349 . S
C1278 C1280 1.327 . S
C1278 H1303 0.950 . S
C1279 C1278 1.349 . S
C1279 C1295 1.349 . S
C1280 C1278 1.327 . S
C1280 C1299 1.429 . S
C1280 H1304 0.950 . S
C1281 C1298 1.574 . S
C1281 C1300 1.368 . S
C1281 H1305 0.949 . S
H1282 C1286 0.949 . S
C1283 C1284 1.349 . S
C1283 C1285 1.327 . S
C1283 H1306 0.950 . S
C1284 C1283 1.349 . S
C1284 C1296 1.349 . S
C1285 C1283 1.327 . S
C1285 C1301 1.429 . S
C1285 H1307 0.950 . S
C1286 H1282 0.949 . S
C1286 C1294 1.574 . S
C1286 C1302 1.368 . S
H1287 C1295 0.950 . S
H1288 C1293 0.950 . S
H1289 C1294 0.949 . S
H1290 C1296 0.950 . S
H1291 C1297 0.950 . S
H1292 C1298 0.949 . S
C1293 H1288 0.950 . S
C1293 C1295 1.327 . S
C1293 C1299 1.429 . S
C1294 C1286 1.574 . S
C1294 H1289 0.949 . S
C1294 C1300 1.368 . S
C1295 C1279 1.349 . S
C1295 H1287 0.950 . S
C1295 C1293 1.327 . S
C1296 C1284 1.349 . S
C1296 H1290 0.950 . S
C1296 C1297 1.327 . S
C1297 H1291 0.950 . S
C1297 C1296 1.327 . S
C1297 C1301 1.429 . S
C1298 C1281 1.574 . S
C1298 H1292 0.949 . S
C1298 C1302 1.368 . S
C1299 C1280 1.429 . S
C1299 C1293 1.429 . S
C1299 C1300 1.523 . S
C1300 C1281 1.368 . S
C1300 C1294 1.368 . S
C1300 C1299 1.523 . S
C1301 C1285 1.429 . S
C1301 C1297 1.429 . S
C1301 C1302 1.523 . S
C1302 C1286 1.368 . S
C1302 C1298 1.368 . S
C1302 C1301 1.523 . S
H1303 C1278 0.950 . S
H1304 C1280 0.950 . S
H1305 C1281 0.949 . S
H1306 C1283 0.950 . S
H1307 C1285 0.950 . S
C1308 C1309 1.349 . S
C1308 C1310 1.327 . S
C1308 H1333 0.950 . S
C1309 C1308 1.349 . S
C1309 C1325 1.349 . S
C1310 C1308 1.327 . S
C1310 C1329 1.429 . S
C1310 H1334 0.950 . S
C1311 C1328 1.574 . S
C1311 C1330 1.368 . S
C1311 H1335 0.949 . S
H1312 C1316 0.949 . S
C1313 C1314 1.349 . S
C1313 C1315 1.327 . S
C1313 H1336 0.950 . S
C1314 C1313 1.349 . S
C1314 C1326 1.349 . S
C1315 C1313 1.327 . S
C1315 C1331 1.429 . S
C1315 H1337 0.950 . S
C1316 H1312 0.949 . S
C1316 C1324 1.574 . S
C1316 C1332 1.368 . S
H1317 C1325 0.950 . S
H1318 C1323 0.950 . S
H1319 C1324 0.949 . S
H1320 C1326 0.950 . S
H1321 C1327 0.950 . S
H1322 C1328 0.949 . S
C1323 H1318 0.950 . S
C1323 C1325 1.327 . S
C1323 C1329 1.429 . S
C1324 C1316 1.574 . S
C1324 H1319 0.949 . S
C1324 C1330 1.368 . S
C1325 C1309 1.349 . S
C1325 H1317 0.950 . S
C1325 C1323 1.327 . S
C1326 C1314 1.349 . S
C1326 H1320 0.950 . S
C1326 C1327 1.327 . S
C1327 H1321 0.950 . S
C1327 C1326 1.327 . S
C1327 C1331 1.429 . S
C1328 C1311 1.574 . S
C1328 H1322 0.949 . S
C1328 C1332 1.368 . S
C1329 C1310 1.429 . S
C1329 C1323 1.429 . S
C1329 C1330 1.523 . S
C1330 C1311 1.368 . S
C1330 C1324 1.368 . S
C1330 C1329 1.523 . S
C1331 C1315 1.429 . S
C1331 C1327 1.429 . S
C1331 C1332 1.523 . S
C1332 C1316 1.368 . S
C1332 C1328 1.368 . S
C1332 C1331 1.523 . S
H1333 C1308 0.950 . S
H1334 C1310 0.950 . S
H1335 C1311 0.949 . S
H1336 C1313 0.950 . S
H1337 C1315 0.950 . S
C1338 C1339 1.349 . S
C1338 C1340 1.327 . S
C1338 H1363 0.950 . S
C1339 C1338 1.349 . S
C1339 C1355 1.349 . S
C1340 C1338 1.327 . S
C1340 C1359 1.429 . S
C1340 H1364 0.950 . S
C1341 C1358 1.574 . S
C1341 C1360 1.368 . S
C1341 H1365 0.949 . S
H1342 C1346 0.949 . S
C1343 C1344 1.349 . S
C1343 C1345 1.327 . S
C1343 H1366 0.950 . S
C1344 C1343 1.349 . S
C1344 C1356 1.349 . S
C1345 C1343 1.327 . S
C1345 C1361 1.429 . S
C1345 H1367 0.950 . S
C1346 H1342 0.949 . S
C1346 C1354 1.574 . S
C1346 C1362 1.368 . S
H1347 C1355 0.950 . S
H1348 C1353 0.950 . S
H1349 C1354 0.949 . S
H1350 C1356 0.950 . S
H1351 C1357 0.950 . S
H1352 C1358 0.949 . S
C1353 H1348 0.950 . S
C1353 C1355 1.327 . S
C1353 C1359 1.429 . S
C1354 C1346 1.574 . S
C1354 H1349 0.949 . S
C1354 C1360 1.368 . S
C1355 C1339 1.349 . S
C1355 H1347 0.950 . S
C1355 C1353 1.327 . S
C1356 C1344 1.349 . S
C1356 H1350 0.950 . S
C1356 C1357 1.327 . S
C1357 H1351 0.950 . S
C1357 C1356 1.327 . S
C1357 C1361 1.429 . S
C1358 C1341 1.574 . S
C1358 H1352 0.949 . S
C1358 C1362 1.368 . S
C1359 C1340 1.429 . S
C1359 C1353 1.429 . S
C1359 C1360 1.523 . S
C1360 C1341 1.368 . S
C1360 C1354 1.368 . S
C1360 C1359 1.523 . S
C1361 C1345 1.429 . S
C1361 C1357 1.429 . S
C1361 C1362 1.523 . S
C1362 C1346 1.368 . S
C1362 C1358 1.368 . S
C1362 C1361 1.523 . S
H1363 C1338 0.950 . S
H1364 C1340 0.950 . S
H1365 C1341 0.949 . S
H1366 C1343 0.950 . S
H1367 C1345 0.950 . S
C1368 C1369 1.349 . S
C1368 C1370 1.327 . S
C1368 H1393 0.950 . S
C1369 C1368 1.349 . S
C1369 C1385 1.349 . S
C1370 C1368 1.327 . S
C1370 C1389 1.429 . S
C1370 H1394 0.950 . S
C1371 C1388 1.574 . S
C1371 C1390 1.368 . S
C1371 H1395 0.949 . S
H1372 C1376 0.949 . S
C1373 C1374 1.349 . S
C1373 C1375 1.327 . S
C1373 H1396 0.950 . S
C1374 C1373 1.349 . S
C1374 C1386 1.349 . S
C1375 C1373 1.327 . S
C1375 C1391 1.429 . S
C1375 H1397 0.950 . S
C1376 H1372 0.949 . S
C1376 C1384 1.574 . S
C1376 C1392 1.368 . S
H1377 C1385 0.950 . S
H1378 C1383 0.950 . S
H1379 C1384 0.949 . S
H1380 C1386 0.950 . S
H1381 C1387 0.950 . S
H1382 C1388 0.949 . S
C1383 H1378 0.950 . S
C1383 C1385 1.327 . S
C1383 C1389 1.429 . S
C1384 C1376 1.574 . S
C1384 H1379 0.949 . S
C1384 C1390 1.368 . S
C1385 C1369 1.349 . S
C1385 H1377 0.950 . S
C1385 C1383 1.327 . S
C1386 C1374 1.349 . S
C1386 H1380 0.950 . S
C1386 C1387 1.327 . S
C1387 H1381 0.950 . S
C1387 C1386 1.327 . S
C1387 C1391 1.429 . S
C1388 C1371 1.574 . S
C1388 H1382 0.949 . S
C1388 C1392 1.368 . S
C1389 C1370 1.429 . S
C1389 C1383 1.429 . S
C1389 C1390 1.523 . S
C1390 C1371 1.368 . S
C1390 C1384 1.368 . S
C1390 C1389 1.523 . S
C1391 C1375 1.429 . S
C1391 C1387 1.429 . S
C1391 C1392 1.523 . S
C1392 C1376 1.368 . S
C1392 C1388 1.368 . S
C1392 C1391 1.523 . S
H1393 C1368 0.950 . S
H1394 C1370 0.950 . S
H1395 C1371 0.949 . S
H1396 C1373 0.950 . S
H1397 C1375 0.950 . S
C1398 C1399 1.349 . S
C1398 C1400 1.327 . S
C1398 H1423 0.950 . S
C1399 C1398 1.349 . S
C1399 C1415 1.349 . S
C1400 C1398 1.327 . S
C1400 C1419 1.429 . S
C1400 H1424 0.950 . S
C1401 C1418 1.574 . S
C1401 C1420 1.368 . S
C1401 H1425 0.949 . S
H1402 C1406 0.949 . S
C1403 C1404 1.349 . S
C1403 C1405 1.327 . S
C1403 H1426 0.950 . S
C1404 C1403 1.349 . S
C1404 C1416 1.349 . S
C1405 C1403 1.327 . S
C1405 C1421 1.429 . S
C1405 H1427 0.950 . S
C1406 H1402 0.949 . S
C1406 C1414 1.574 . S
C1406 C1422 1.368 . S
H1407 C1415 0.950 . S
H1408 C1413 0.950 . S
H1409 C1414 0.949 . S
H1410 C1416 0.950 . S
H1411 C1417 0.950 . S
H1412 C1418 0.949 . S
C1413 H1408 0.950 . S
C1413 C1415 1.327 . S
C1413 C1419 1.429 . S
C1414 C1406 1.574 . S
C1414 H1409 0.949 . S
C1414 C1420 1.368 . S
C1415 C1399 1.349 . S
C1415 H1407 0.950 . S
C1415 C1413 1.327 . S
C1416 C1404 1.349 . S
C1416 H1410 0.950 . S
C1416 C1417 1.327 . S
C1417 H1411 0.950 . S
C1417 C1416 1.327 . S
C1417 C1421 1.429 . S
C1418 C1401 1.574 . S
C1418 H1412 0.949 . S
C1418 C1422 1.368 . S
C1419 C1400 1.429 . S
C1419 C1413 1.429 . S
C1419 C1420 1.523 . S
C1420 C1401 1.368 . S
C1420 C1414 1.368 . S
C1420 C1419 1.523 . S
C1421 C1405 1.429 . S
C1421 C1417 1.429 . S
C1421 C1422 1.523 . S
C1422 C1406 1.368 . S
C1422 C1418 1.368 . S
C1422 C1421 1.523 . S
H1423 C1398 0.950 . S
H1424 C1400 0.950 . S
H1425 C1401 0.949 . S
H1426 C1403 0.950 . S
H1427 C1405 0.950 . S
C1428 C1429 1.349 . S
C1428 C1430 1.327 . S
C1428 H1453 0.950 . S
C1429 C1428 1.349 . S
C1429 C1445 1.349 . S
C1430 C1428 1.327 . S
C1430 C1449 1.429 . S
C1430 H1454 0.950 . S
C1431 C1448 1.574 . S
C1431 C1450 1.368 . S
C1431 H1455 0.949 . S
H1432 C1436 0.949 . S
C1433 C1434 1.349 . S
C1433 C1435 1.327 . S
C1433 H1456 0.950 . S
C1434 C1433 1.349 . S
C1434 C1446 1.349 . S
C1435 C1433 1.327 . S
C1435 C1451 1.429 . S
C1435 H1457 0.950 . S
C1436 H1432 0.949 . S
C1436 C1444 1.574 . S
C1436 C1452 1.368 . S
H1437 C1445 0.950 . S
H1438 C1443 0.950 . S
H1439 C1444 0.949 . S
H1440 C1446 0.950 . S
H1441 C1447 0.950 . S
H1442 C1448 0.949 . S
C1443 H1438 0.950 . S
C1443 C1445 1.327 . S
C1443 C1449 1.429 . S
C1444 C1436 1.574 . S
C1444 H1439 0.949 . S
C1444 C1450 1.368 . S
C1445 C1429 1.349 . S
C1445 H1437 0.950 . S
C1445 C1443 1.327 . S
C1446 C1434 1.349 . S
C1446 H1440 0.950 . S
C1446 C1447 1.327 . S
C1447 H1441 0.950 . S
C1447 C1446 1.327 . S
C1447 C1451 1.429 . S
C1448 C1431 1.574 . S
C1448 H1442 0.949 . S
C1448 C1452 1.368 . S
C1449 C1430 1.429 . S
C1449 C1443 1.429 . S
C1449 C1450 1.523 . S
C1450 C1431 1.368 . S
C1450 C1444 1.368 . S
C1450 C1449 1.523 . S
C1451 C1435 1.429 . S
C1451 C1447 1.429 . S
C1451 C1452 1.523 . S
C1452 C1436 1.368 . S
C1452 C1448 1.368 . S
C1452 C1451 1.523 . S
H1453 C1428 0.950 . S
H1454 C1430 0.950 . S
H1455 C1431 0.949 . S
H1456 C1433 0.950 . S
H1457 C1435 0.950 . S
C1458 C1459 1.349 . S
C1458 C1460 1.327 . S
C1458 H1483 0.950 . S
C1459 C1458 1.349 . S
C1459 C1475 1.349 . S
C1460 C1458 1.327 . S
C1460 C1479 1.429 . S
C1460 H1484 0.950 . S
C1461 C1478 1.574 . S
C1461 C1480 1.368 . S
C1461 H1485 0.949 . S
H1462 C1466 0.949 . S
C1463 C1464 1.349 . S
C1463 C1465 1.327 . S
C1463 H1486 0.950 . S
C1464 C1463 1.349 . S
C1464 C1476 1.349 . S
C1465 C1463 1.327 . S
C1465 C1481 1.429 . S
C1465 H1487 0.950 . S
C1466 H1462 0.949 . S
C1466 C1474 1.574 . S
C1466 C1482 1.368 . S
H1467 C1475 0.950 . S
H1468 C1473 0.950 . S
H1469 C1474 0.949 . S
H1470 C1476 0.950 . S
H1471 C1477 0.950 . S
H1472 C1478 0.949 . S
C1473 H1468 0.950 . S
C1473 C1475 1.327 . S
C1473 C1479 1.429 . S
C1474 C1466 1.574 . S
C1474 H1469 0.949 . S
C1474 C1480 1.368 . S
C1475 C1459 1.349 . S
C1475 H1467 0.950 . S
C1475 C1473 1.327 . S
C1476 C1464 1.349 . S
C1476 H1470 0.950 . S
C1476 C1477 1.327 . S
C1477 H1471 0.950 . S
C1477 C1476 1.327 . S
C1477 C1481 1.429 . S
C1478 C1461 1.574 . S
C1478 H1472 0.949 . S
C1478 C1482 1.368 . S
C1479 C1460 1.429 . S
C1479 C1473 1.429 . S
C1479 C1480 1.523 . S
C1480 C1461 1.368 . S
C1480 C1474 1.368 . S
C1480 C1479 1.523 . S
C1481 C1465 1.429 . S
C1481 C1477 1.429 . S
C1481 C1482 1.523 . S
C1482 C1466 1.368 . S
C1482 C1478 1.368 . S
C1482 C1481 1.523 . S
H1483 C1458 0.950 . S
H1484 C1460 0.950 . S
H1485 C1461 0.949 . S
H1486 C1463 0.950 . S
H1487 C1465 0.950 . S
C1488 C1489 1.349 . S
C1488 C1490 1.327 . S
C1488 H1513 0.950 . S
C1489 C1488 1.349 . S
C1489 C1505 1.349 . S
C1490 C1488 1.327 . S
C1490 C1509 1.429 . S
C1490 H1514 0.950 . S
C1491 C1508 1.574 . S
C1491 C1510 1.368 . S
C1491 H1515 0.949 . S
H1492 C1496 0.949 . S
C1493 C1494 1.349 . S
C1493 C1495 1.327 . S
C1493 H1516 0.950 . S
C1494 C1493 1.349 . S
C1494 C1506 1.349 . S
C1495 C1493 1.327 . S
C1495 C1511 1.429 . S
C1495 H1517 0.950 . S
C1496 H1492 0.949 . S
C1496 C1504 1.574 . S
C1496 C1512 1.368 . S
H1497 C1505 0.950 . S
H1498 C1503 0.950 . S
H1499 C1504 0.949 . S
H1500 C1506 0.950 . S
H1501 C1507 0.950 . S
H1502 C1508 0.949 . S
C1503 H1498 0.950 . S
C1503 C1505 1.327 . S
C1503 C1509 1.429 . S
C1504 C1496 1.574 . S
C1504 H1499 0.949 . S
C1504 C1510 1.368 . S
C1505 C1489 1.349 . S
C1505 H1497 0.950 . S
C1505 C1503 1.327 . S
C1506 C1494 1.349 . S
C1506 H1500 0.950 . S
C1506 C1507 1.327 . S
C1507 H1501 0.950 . S
C1507 C1506 1.327 . S
C1507 C1511 1.429 . S
C1508 C1491 1.574 . S
C1508 H1502 0.949 . S
C1508 C1512 1.368 . S
C1509 C1490 1.429 . S
C1509 C1503 1.429 . S
C1509 C1510 1.523 . S
C1510 C1491 1.368 . S
C1510 C1504 1.368 . S
C1510 C1509 1.523 . S
C1511 C1495 1.429 . S
C1511 C1507 1.429 . S
C1511 C1512 1.523 . S
C1512 C1496 1.368 . S
C1512 C1508 1.368 . S
C1512 C1511 1.523 . S
H1513 C1488 0.950 . S
H1514 C1490 0.950 . S
H1515 C1491 0.949 . S
H1516 C1493 0.950 . S
H1517 C1495 0.950 . S
C1518 C1519 1.349 . S
C1518 C1520 1.327 . S
C1518 H1543 0.950 . S
C1519 C1518 1.349 . S
C1519 C1535 1.349 . S
C1520 C1518 1.327 . S
C1520 C1539 1.429 . S
C1520 H1544 0.950 . S
C1521 C1538 1.574 . S
C1521 C1540 1.368 . S
C1521 H1545 0.949 . S
H1522 C1526 0.949 . S
C1523 C1524 1.349 . S
C1523 C1525 1.327 . S
C1523 H1546 0.950 . S
C1524 C1523 1.349 . S
C1524 C1536 1.349 . S
C1525 C1523 1.327 . S
C1525 C1541 1.429 . S
C1525 H1547 0.950 . S
C1526 H1522 0.949 . S
C1526 C1534 1.574 . S
C1526 C1542 1.368 . S
H1527 C1535 0.950 . S
H1528 C1533 0.950 . S
H1529 C1534 0.949 . S
H1530 C1536 0.950 . S
H1531 C1537 0.950 . S
H1532 C1538 0.949 . S
C1533 H1528 0.950 . S
C1533 C1535 1.327 . S
C1533 C1539 1.429 . S
C1534 C1526 1.574 . S
C1534 H1529 0.949 . S
C1534 C1540 1.368 . S
C1535 C1519 1.349 . S
C1535 H1527 0.950 . S
C1535 C1533 1.327 . S
C1536 C1524 1.349 . S
C1536 H1530 0.950 . S
C1536 C1537 1.327 . S
C1537 H1531 0.950 . S
C1537 C1536 1.327 . S
C1537 C1541 1.429 . S
C1538 C1521 1.574 . S
C1538 H1532 0.949 . S
C1538 C1542 1.368 . S
C1539 C1520 1.429 . S
C1539 C1533 1.429 . S
C1539 C1540 1.523 . S
C1540 C1521 1.368 . S
C1540 C1534 1.368 . S
C1540 C1539 1.523 . S
C1541 C1525 1.429 . S
C1541 C1537 1.429 . S
C1541 C1542 1.523 . S
C1542 C1526 1.368 . S
C1542 C1538 1.368 . S
C1542 C1541 1.523 . S
H1543 C1518 0.950 . S
H1544 C1520 0.950 . S
H1545 C1521 0.949 . S
H1546 C1523 0.950 . S
H1547 C1525 0.950 . S
C1548 C1549 1.349 . S
C1548 C1550 1.327 . S
C1548 H1573 0.950 . S
C1549 C1548 1.349 . S
C1549 C1565 1.349 . S
C1550 C1548 1.327 . S
C1550 C1569 1.429 . S
C1550 H1574 0.950 . S
C1551 C1568 1.574 . S
C1551 C1570 1.368 . S
C1551 H1575 0.949 . S
H1552 C1556 0.949 . S
C1553 C1554 1.349 . S
C1553 C1555 1.327 . S
C1553 H1576 0.950 . S
C1554 C1553 1.349 . S
C1554 C1566 1.349 . S
C1555 C1553 1.327 . S
C1555 C1571 1.429 . S
C1555 H1577 0.950 . S
C1556 H1552 0.949 . S
C1556 C1564 1.574 . S
C1556 C1572 1.368 . S
H1557 C1565 0.950 . S
H1558 C1563 0.950 . S
H1559 C1564 0.949 . S
H1560 C1566 0.950 . S
H1561 C1567 0.950 . S
H1562 C1568 0.949 . S
C1563 H1558 0.950 . S
C1563 C1565 1.327 . S
C1563 C1569 1.429 . S
C1564 C1556 1.574 . S
C1564 H1559 0.949 . S
C1564 C1570 1.368 . S
C1565 C1549 1.349 . S
C1565 H1557 0.950 . S
C1565 C1563 1.327 . S
C1566 C1554 1.349 . S
C1566 H1560 0.950 . S
C1566 C1567 1.327 . S
C1567 H1561 0.950 . S
C1567 C1566 1.327 . S
C1567 C1571 1.429 . S
C1568 C1551 1.574 . S
C1568 H1562 0.949 . S
C1568 C1572 1.368 . S
C1569 C1550 1.429 . S
C1569 C1563 1.429 . S
C1569 C1570 1.523 . S
C1570 C1551 1.368 . S
C1570 C1564 1.368 . S
C1570 C1569 1.523 . S
C1571 C1555 1.429 . S
C1571 C1567 1.429 . S
C1571 C1572 1.523 . S
C1572 C1556 1.368 . S
C1572 C1568 1.368 . S
C1572 C1571 1.523 . S
H1573 C1548 0.950 . S
H1574 C1550 0.950 . S
H1575 C1551 0.949 . S
H1576 C1553 0.950 . S
H1577 C1555 0.950 . S
C1578 C1579 1.349 . S
C1578 C1580 1.327 . S
C1578 H1603 0.950 . S
C1579 C1578 1.349 . S
C1579 C1595 1.349 . S
C1580 C1578 1.327 . S
C1580 C1599 1.429 . S
C1580 H1604 0.950 . S
C1581 C1598 1.574 . S
C1581 C1600 1.368 . S
C1581 H1605 0.949 . S
H1582 C1586 0.949 . S
C1583 C1584 1.349 . S
C1583 C1585 1.327 . S
C1583 H1606 0.950 . S
C1584 C1583 1.349 . S
C1584 C1596 1.349 . S
C1585 C1583 1.327 . S
C1585 C1601 1.429 . S
C1585 H1607 0.950 . S
C1586 H1582 0.949 . S
C1586 C1594 1.574 . S
C1586 C1602 1.368 . S
H1587 C1595 0.950 . S
H1588 C1593 0.950 . S
H1589 C1594 0.949 . S
H1590 C1596 0.950 . S
H1591 C1597 0.950 . S
H1592 C1598 0.949 . S
C1593 H1588 0.950 . S
C1593 C1595 1.327 . S
C1593 C1599 1.429 . S
C1594 C1586 1.574 . S
C1594 H1589 0.949 . S
C1594 C1600 1.368 . S
C1595 C1579 1.349 . S
C1595 H1587 0.950 . S
C1595 C1593 1.327 . S
C1596 C1584 1.349 . S
C1596 H1590 0.950 . S
C1596 C1597 1.327 . S
C1597 H1591 0.950 . S
C1597 C1596 1.327 . S
C1597 C1601 1.429 . S
C1598 C1581 1.574 . S
C1598 H1592 0.949 . S
C1598 C1602 1.368 . S
C1599 C1580 1.429 . S
C1599 C1593 1.429 . S
C1599 C1600 1.523 . S
C1600 C1581 1.368 . S
C1600 C1594 1.368 . S
C1600 C1599 1.523 . S
C1601 C1585 1.429 . S
C1601 C1597 1.429 . S
C1601 C1602 1.523 . S
C1602 C1586 1.368 . S
C1602 C1598 1.368 . S
C1602 C1601 1.523 . S
H1603 C1578 0.950 . S
H1604 C1580 0.950 . S
H1605 C1581 0.949 . S
H1606 C1583 0.950 . S
H1607 C1585 0.950 . S
C1608 C1609 1.349 . S
C1608 C1610 1.327 . S
C1608 H1633 0.950 . S
C1609 C1608 1.349 . S
C1609 C1625 1.349 . S
C1610 C1608 1.327 . S
C1610 C1629 1.429 . S
C1610 H1634 0.950 . S
C1611 C1628 1.574 . S
C1611 C1630 1.368 . S
C1611 H1635 0.949 . S
H1612 C1616 0.949 . S
C1613 C1614 1.349 . S
C1613 C1615 1.327 . S
C1613 H1636 0.950 . S
C1614 C1613 1.349 . S
C1614 C1626 1.349 . S
C1615 C1613 1.327 . S
C1615 C1631 1.429 . S
C1615 H1637 0.950 . S
C1616 H1612 0.949 . S
C1616 C1624 1.574 . S
C1616 C1632 1.368 . S
H1617 C1625 0.950 . S
H1618 C1623 0.950 . S
H1619 C1624 0.949 . S
H1620 C1626 0.950 . S
H1621 C1627 0.950 . S
H1622 C1628 0.949 . S
C1623 H1618 0.950 . S
C1623 C1625 1.327 . S
C1623 C1629 1.429 . S
C1624 C1616 1.574 . S
C1624 H1619 0.949 . S
C1624 C1630 1.368 . S
C1625 C1609 1.349 . S
C1625 H1617 0.950 . S
C1625 C1623 1.327 . S
C1626 C1614 1.349 . S
C1626 H1620 0.950 . S
C1626 C1627 1.327 . S
C1627 H1621 0.950 . S
C1627 C1626 1.327 . S
C1627 C1631 1.429 . S
C1628 C1611 1.574 . S
C1628 H1622 0.949 . S
C1628 C1632 1.368 . S
C1629 C1610 1.429 . S
C1629 C1623 1.429 . S
C1629 C1630 1.523 . S
C1630 C1611 1.368 . S
C1630 C1624 1.368 . S
C1630 C1629 1.523 . S
C1631 C1615 1.429 . S
C1631 C1627 1.429 . S
C1631 C1632 1.523 . S
C1632 C1616 1.368 . S
C1632 C1628 1.368 . S
C1632 C1631 1.523 . S
H1633 C1608 0.950 . S
H1634 C1610 0.950 . S
H1635 C1611 0.949 . S
H1636 C1613 0.950 . S
H1637 C1615 0.950 . S
C1638 C1639 1.349 . S
C1638 C1640 1.327 . S
C1638 H1663 0.950 . S
C1639 C1638 1.349 . S
C1639 C1655 1.349 . S
C1640 C1638 1.327 . S
C1640 C1659 1.429 . S
C1640 H1664 0.950 . S
C1641 C1658 1.574 . S
C1641 C1660 1.368 . S
C1641 H1665 0.949 . S
H1642 C1646 0.949 . S
C1643 C1644 1.349 . S
C1643 C1645 1.327 . S
C1643 H1666 0.950 . S
C1644 C1643 1.349 . S
C1644 C1656 1.349 . S
C1645 C1643 1.327 . S
C1645 C1661 1.429 . S
C1645 H1667 0.950 . S
C1646 H1642 0.949 . S
C1646 C1654 1.574 . S
C1646 C1662 1.368 . S
H1647 C1655 0.950 . S
H1648 C1653 0.950 . S
H1649 C1654 0.949 . S
H1650 C1656 0.950 . S
H1651 C1657 0.950 . S
H1652 C1658 0.949 . S
C1653 H1648 0.950 . S
C1653 C1655 1.327 . S
C1653 C1659 1.429 . S
C1654 C1646 1.574 . S
C1654 H1649 0.949 . S
C1654 C1660 1.368 . S
C1655 C1639 1.349 . S
C1655 H1647 0.950 . S
C1655 C1653 1.327 . S
C1656 C1644 1.349 . S
C1656 H1650 0.950 . S
C1656 C1657 1.327 . S
C1657 H1651 0.950 . S
C1657 C1656 1.327 . S
C1657 C1661 1.429 . S
C1658 C1641 1.574 . S
C1658 H1652 0.949 . S
C1658 C1662 1.368 . S
C1659 C1640 1.429 . S
C1659 C1653 1.429 . S
C1659 C1660 1.523 . S
C1660 C1641 1.368 . S
C1660 C1654 1.368 . S
C1660 C1659 1.523 . S
C1661 C1645 1.429 . S
C1661 C1657 1.429 . S
C1661 C1662 1.523 . S
C1662 C1646 1.368 . S
C1662 C1658 1.368 . S
C1662 C1661 1.523 . S
H1663 C1638 0.950 . S
H1664 C1640 0.950 . S
H1665 C1641 0.949 . S
H1666 C1643 0.950 . S
H1667 C1645 0.950 . S
C1668 C1669 1.349 . S
C1668 C1670 1.327 . S
C1668 H1693 0.950 . S
C1669 C1668 1.349 . S
C1669 C1685 1.349 . S
C1670 C1668 1.327 . S
C1670 C1689 1.429 . S
C1670 H1694 0.950 . S
C1671 C1688 1.574 . S
C1671 C1690 1.368 . S
C1671 H1695 0.949 . S
H1672 C1676 0.949 . S
C1673 C1674 1.349 . S
C1673 C1675 1.327 . S
C1673 H1696 0.950 . S
C1674 C1673 1.349 . S
C1674 C1686 1.349 . S
C1675 C1673 1.327 . S
C1675 C1691 1.429 . S
C1675 H1697 0.950 . S
C1676 H1672 0.949 . S
C1676 C1684 1.574 . S
C1676 C1692 1.368 . S
H1677 C1685 0.950 . S
H1678 C1683 0.950 . S
H1679 C1684 0.949 . S
H1680 C1686 0.950 . S
H1681 C1687 0.950 . S
H1682 C1688 0.949 . S
C1683 H1678 0.950 . S
C1683 C1685 1.327 . S
C1683 C1689 1.429 . S
C1684 C1676 1.574 . S
C1684 H1679 0.949 . S
C1684 C1690 1.368 . S
C1685 C1669 1.349 . S
C1685 H1677 0.950 . S
C1685 C1683 1.327 . S
C1686 C1674 1.349 . S
C1686 H1680 0.950 . S
C1686 C1687 1.327 . S
C1687 H1681 0.950 . S
C1687 C1686 1.327 . S
C1687 C1691 1.429 . S
C1688 C1671 1.574 . S
C1688 H1682 0.949 . S
C1688 C1692 1.368 . S
C1689 C1670 1.429 . S
C1689 C1683 1.429 . S
C1689 C1690 1.523 . S
C1690 C1671 1.368 . S
C1690 C1684 1.368 . S
C1690 C1689 1.523 . S
C1691 C1675 1.429 . S
C1691 C1687 1.429 . S
C1691 C1692 1.523 . S
C1692 C1676 1.368 . S
C1692 C1688 1.368 . S
C1692 C1691 1.523 . S
H1693 C1668 0.950 . S
H1694 C1670 0.950 . S
H1695 C1671 0.949 . S
H1696 C1673 0.950 . S
H1697 C1675 0.950 . S
C1698 C1699 1.349 . S
C1698 C1700 1.327 . S
C1698 H1723 0.950 . S
C1699 C1698 1.349 . S
C1699 C1715 1.349 . S
C1700 C1698 1.327 . S
C1700 C1719 1.429 . S
C1700 H1724 0.950 . S
C1701 C1718 1.574 . S
C1701 C1720 1.368 . S
C1701 H1725 0.949 . S
H1702 C1706 0.949 . S
C1703 C1704 1.349 . S
C1703 C1705 1.327 . S
C1703 H1726 0.950 . S
C1704 C1703 1.349 . S
C1704 C1716 1.349 . S
C1705 C1703 1.327 . S
C1705 C1721 1.429 . S
C1705 H1727 0.950 . S
C1706 H1702 0.949 . S
C1706 C1714 1.574 . S
C1706 C1722 1.368 . S
H1707 C1715 0.950 . S
H1708 C1713 0.950 . S
H1709 C1714 0.949 . S
H1710 C1716 0.950 . S
H1711 C1717 0.950 . S
H1712 C1718 0.949 . S
C1713 H1708 0.950 . S
C1713 C1715 1.327 . S
C1713 C1719 1.429 . S
C1714 C1706 1.574 . S
C1714 H1709 0.949 . S
C1714 C1720 1.368 . S
C1715 C1699 1.349 . S
C1715 H1707 0.950 . S
C1715 C1713 1.327 . S
C1716 C1704 1.349 . S
C1716 H1710 0.950 . S
C1716 C1717 1.327 . S
C1717 H1711 0.950 . S
C1717 C1716 1.327 . S
C1717 C1721 1.429 . S
C1718 C1701 1.574 . S
C1718 H1712 0.949 . S
C1718 C1722 1.368 . S
C1719 C1700 1.429 . S
C1719 C1713 1.429 . S
C1719 C1720 1.523 . S
C1720 C1701 1.368 . S
C1720 C1714 1.368 . S
C1720 C1719 1.523 . S
C1721 C1705 1.429 . S
C1721 C1717 1.429 . S
C1721 C1722 1.523 . S
C1722 C1706 1.368 . S
C1722 C1718 1.368 . S
C1722 C1721 1.523 . S
H1723 C1698 0.950 . S
H1724 C1700 0.950 . S
H1725 C1701 0.949 . S
H1726 C1703 0.950 . S
H1727 C1705 0.950 . S
C529 N2 1.597 . S
C534 N464 1.597 . S
C559 N79 1.610 . S
C564 N13 1.610 . S
C589 N35 1.597 . S
C594 N365 1.597 . S
C619 N244 1.609 . S
C624 N46 1.609 . S
C649 N68 1.597 . S
C654 N398 1.597 . S
C679 N101 1.597 . S
C684 N299 1.597 . S
C709 N112 1.609 . S
C714 N178 1.609 . S
C739 N332 1.597 . S
C744 N134 1.597 . S
C769 N211 1.609 . S
C774 N145 1.609 . S
C799 N167 1.597 . S
C804 N497 1.597 . S
C829 N266 1.597 . S
C834 N200 1.597 . S
C859 N431 1.597 . S
C864 N233 1.597 . S
C889 N277 1.609 . S
C894 N343 1.609 . S
C919 N508 1.609 . S
C924 N310 1.609 . S
C949 N376 1.609 . S
C954 N442 1.609 . S
C979 N409 1.609 . S
C984 N475 1.609 . S
C1009 C7 1.020 . S
C1014 C318 1.029 . S
C1039 C304 1.020 . S
C1044 C21 1.029 . S
C1069 C40 1.020 . S
C1074 C285 1.029 . S
C1099 C54 1.029 . S
C1104 C271 1.020 . S
C1129 C384 1.029 . S
C1134 C73 1.020 . S
C1159 C370 1.020 . S
C1164 C87 1.029 . S
C1189 C106 1.020 . S
C1194 C351 1.029 . S
C1219 C120 1.029 . S
C1224 C337 1.020 . S
C1249 C139 1.020 . S
C1254 C450 1.029 . S
C1279 C436 1.020 . S
C1284 C153 1.029 . S
C1309 C172 1.020 . S
C1314 C417 1.029 . S
C1339 C403 1.020 . S
C1344 C186 1.029 . S
C1369 C516 1.029 . S
C1374 C205 1.020 . S
C1399 C219 1.029 . S
C1404 C502 1.020 . S
C1429 C238 1.020 . S
C1434 C483 1.029 . S
C1459 C252 1.029 . S
C1464 C469 1.020 . S
C1489 C51 0.970 . S
C1494 C18 0.970 . S
C1519 C84 0.970 . S
C1524 C117 0.970 . S
C1549 C150 0.970 . S
C1554 C183 0.970 . S
C1579 C216 0.970 . S
C1584 C249 0.970 . S
C1609 C315 0.970 . S
C1614 C282 0.970 . S
C1639 C381 0.970 . S
C1644 C348 0.970 . S
C1669 C414 0.970 . S
C1674 C447 0.970 . S
C1699 C513 0.970 . S
C1704 C480 0.970 . S
