# Generated by pormake.
# Topology ato, (4)-cn, num edge types: 1
# Building blocks:
#     Node 0, Type 0, BuildingBlock: ICAMEG_clean_sbu_1, # of connection points: 4
#     Node 1, Type 0, BuildingBlock: ICAMEG_clean_sbu_1, # of connection points: 4
#     Node 2, Type 0, BuildingBlock: ICAMEG_clean_sbu_1, # of connection points: 4
#     Node 3, Type 0, BuildingBlock: ICAMEG_clean_sbu_1, # of connection points: 4
#     Node 4, Type 0, BuildingBlock: ICAMEG_clean_sbu_1, # of connection points: 4
#     Node 5, Type 0, BuildingBlock: ICAMEG_clean_sbu_1, # of connection points: 4
#     Node 6, Type 0, BuildingBlock: ICAMEG_clean_sbu_1, # of connection points: 4
#     Node 7, Type 0, BuildingBlock: ICAMEG_clean_sbu_1, # of connection points: 4
#     Node 8, Type 0, BuildingBlock: ICAMEG_clean_sbu_1, # of connection points: 4
#     Node 9, Type 0, BuildingBlock: ICAMEG_clean_sbu_1, # of connection points: 4
#     Node 10, Type 0, BuildingBlock: ICAMEG_clean_sbu_1, # of connection points: 4
#     Node 11, Type 0, BuildingBlock: ICAMEG_clean_sbu_1, # of connection points: 4
#     Node 12, Type 0, BuildingBlock: ICAMEG_clean_sbu_1, # of connection points: 4
#     Node 13, Type 0, BuildingBlock: ICAMEG_clean_sbu_1, # of connection points: 4
#     Node 14, Type 0, BuildingBlock: ICAMEG_clean_sbu_1, # of connection points: 4
#     Node 15, Type 0, BuildingBlock: ICAMEG_clean_sbu_1, # of connection points: 4
#     Node 16, Type 0, BuildingBlock: ICAMEG_clean_sbu_1, # of connection points: 4
#     Node 17, Type 0, BuildingBlock: ICAMEG_clean_sbu_1, # of connection points: 4
#     Node 18, Type 0, BuildingBlock: ICAMEG_clean_sbu_1, # of connection points: 4
#     Node 19, Type 0, BuildingBlock: ICAMEG_clean_sbu_1, # of connection points: 4
#     Node 20, Type 0, BuildingBlock: ICAMEG_clean_sbu_1, # of connection points: 4
#     Node 21, Type 0, BuildingBlock: ICAMEG_clean_sbu_1, # of connection points: 4
#     Node 22, Type 0, BuildingBlock: ICAMEG_clean_sbu_1, # of connection points: 4
#     Node 23, Type 0, BuildingBlock: ICAMEG_clean_sbu_1, # of connection points: 4
#     Node 24, Type 0, BuildingBlock: ICAMEG_clean_sbu_1, # of connection points: 4
#     Node 25, Type 0, BuildingBlock: ICAMEG_clean_sbu_1, # of connection points: 4
#     Node 26, Type 0, BuildingBlock: ICAMEG_clean_sbu_1, # of connection points: 4
#     Node 27, Type 0, BuildingBlock: ICAMEG_clean_sbu_1, # of connection points: 4
#     Node 28, Type 0, BuildingBlock: ICAMEG_clean_sbu_1, # of connection points: 4
#     Node 29, Type 0, BuildingBlock: ICAMEG_clean_sbu_1, # of connection points: 4
#     Node 30, Type 0, BuildingBlock: ICAMEG_clean_sbu_1, # of connection points: 4
#     Node 31, Type 0, BuildingBlock: ICAMEG_clean_sbu_1, # of connection points: 4
#     Node 32, Type 0, BuildingBlock: ICAMEG_clean_sbu_1, # of connection points: 4
#     Node 33, Type 0, BuildingBlock: ICAMEG_clean_sbu_1, # of connection points: 4
#     Node 34, Type 0, BuildingBlock: ICAMEG_clean_sbu_1, # of connection points: 4
#     Node 35, Type 0, BuildingBlock: ICAMEG_clean_sbu_1, # of connection points: 4
#     Edge 36, Type (0, 0), BuildingBlock: AJUNOK_clean_linker_0, # of connection points: 2
#     Edge 37, Type (0, 0), BuildingBlock: AJUNOK_clean_linker_0, # of connection points: 2
#     Edge 38, Type (0, 0), BuildingBlock: AJUNOK_clean_linker_0, # of connection points: 2
#     Edge 39, Type (0, 0), BuildingBlock: AJUNOK_clean_linker_0, # of connection points: 2
#     Edge 40, Type (0, 0), BuildingBlock: AJUNOK_clean_linker_0, # of connection points: 2
#     Edge 41, Type (0, 0), BuildingBlock: AJUNOK_clean_linker_0, # of connection points: 2
#     Edge 42, Type (0, 0), BuildingBlock: AJUNOK_clean_linker_0, # of connection points: 2
#     Edge 43, Type (0, 0), BuildingBlock: AJUNOK_clean_linker_0, # of connection points: 2
#     Edge 44, Type (0, 0), BuildingBlock: AJUNOK_clean_linker_0, # of connection points: 2
#     Edge 45, Type (0, 0), BuildingBlock: AJUNOK_clean_linker_0, # of connection points: 2
#     Edge 46, Type (0, 0), BuildingBlock: AJUNOK_clean_linker_0, # of connection points: 2
#     Edge 47, Type (0, 0), BuildingBlock: AJUNOK_clean_linker_0, # of connection points: 2
#     Edge 48, Type (0, 0), BuildingBlock: AJUNOK_clean_linker_0, # of connection points: 2
#     Edge 49, Type (0, 0), BuildingBlock: AJUNOK_clean_linker_0, # of connection points: 2
#     Edge 50, Type (0, 0), BuildingBlock: AJUNOK_clean_linker_0, # of connection points: 2
#     Edge 51, Type (0, 0), BuildingBlock: AJUNOK_clean_linker_0, # of connection points: 2
#     Edge 52, Type (0, 0), BuildingBlock: AJUNOK_clean_linker_0, # of connection points: 2
#     Edge 53, Type (0, 0), BuildingBlock: AJUNOK_clean_linker_0, # of connection points: 2
#     Edge 54, Type (0, 0), BuildingBlock: AJUNOK_clean_linker_0, # of connection points: 2
#     Edge 55, Type (0, 0), BuildingBlock: AJUNOK_clean_linker_0, # of connection points: 2
#     Edge 56, Type (0, 0), BuildingBlock: AJUNOK_clean_linker_0, # of connection points: 2
#     Edge 57, Type (0, 0), BuildingBlock: AJUNOK_clean_linker_0, # of connection points: 2
#     Edge 58, Type (0, 0), BuildingBlock: AJUNOK_clean_linker_0, # of connection points: 2
#     Edge 59, Type (0, 0), BuildingBlock: AJUNOK_clean_linker_0, # of connection points: 2
#     Edge 60, Type (0, 0), BuildingBlock: AJUNOK_clean_linker_0, # of connection points: 2
#     Edge 61, Type (0, 0), BuildingBlock: AJUNOK_clean_linker_0, # of connection points: 2
#     Edge 62, Type (0, 0), BuildingBlock: AJUNOK_clean_linker_0, # of connection points: 2
#     Edge 63, Type (0, 0), BuildingBlock: AJUNOK_clean_linker_0, # of connection points: 2
#     Edge 64, Type (0, 0), BuildingBlock: AJUNOK_clean_linker_0, # of connection points: 2
#     Edge 65, Type (0, 0), BuildingBlock: AJUNOK_clean_linker_0, # of connection points: 2
#     Edge 66, Type (0, 0), BuildingBlock: AJUNOK_clean_linker_0, # of connection points: 2
#     Edge 67, Type (0, 0), BuildingBlock: AJUNOK_clean_linker_0, # of connection points: 2
#     Edge 68, Type (0, 0), BuildingBlock: AJUNOK_clean_linker_0, # of connection points: 2
#     Edge 69, Type (0, 0), BuildingBlock: AJUNOK_clean_linker_0, # of connection points: 2
#     Edge 70, Type (0, 0), BuildingBlock: AJUNOK_clean_linker_0, # of connection points: 2
#     Edge 71, Type (0, 0), BuildingBlock: AJUNOK_clean_linker_0, # of connection points: 2
#     Edge 72, Type (0, 0), BuildingBlock: AJUNOK_clean_linker_0, # of connection points: 2
#     Edge 73, Type (0, 0), BuildingBlock: AJUNOK_clean_linker_0, # of connection points: 2
#     Edge 74, Type (0, 0), BuildingBlock: AJUNOK_clean_linker_0, # of connection points: 2
#     Edge 75, Type (0, 0), BuildingBlock: AJUNOK_clean_linker_0, # of connection points: 2
#     Edge 76, Type (0, 0), BuildingBlock: AJUNOK_clean_linker_0, # of connection points: 2
#     Edge 77, Type (0, 0), BuildingBlock: AJUNOK_clean_linker_0, # of connection points: 2
#     Edge 78, Type (0, 0), BuildingBlock: AJUNOK_clean_linker_0, # of connection points: 2
#     Edge 79, Type (0, 0), BuildingBlock: AJUNOK_clean_linker_0, # of connection points: 2
#     Edge 80, Type (0, 0), BuildingBlock: AJUNOK_clean_linker_0, # of connection points: 2
#     Edge 81, Type (0, 0), BuildingBlock: AJUNOK_clean_linker_0, # of connection points: 2
#     Edge 82, Type (0, 0), BuildingBlock: AJUNOK_clean_linker_0, # of connection points: 2
#     Edge 83, Type (0, 0), BuildingBlock: AJUNOK_clean_linker_0, # of connection points: 2
#     Edge 84, Type (0, 0), BuildingBlock: AJUNOK_clean_linker_0, # of connection points: 2
#     Edge 85, Type (0, 0), BuildingBlock: AJUNOK_clean_linker_0, # of connection points: 2
#     Edge 86, Type (0, 0), BuildingBlock: AJUNOK_clean_linker_0, # of connection points: 2
#     Edge 87, Type (0, 0), BuildingBlock: AJUNOK_clean_linker_0, # of connection points: 2
#     Edge 88, Type (0, 0), BuildingBlock: AJUNOK_clean_linker_0, # of connection points: 2
#     Edge 89, Type (0, 0), BuildingBlock: AJUNOK_clean_linker_0, # of connection points: 2
#     Edge 90, Type (0, 0), BuildingBlock: AJUNOK_clean_linker_0, # of connection points: 2
#     Edge 91, Type (0, 0), BuildingBlock: AJUNOK_clean_linker_0, # of connection points: 2
#     Edge 92, Type (0, 0), BuildingBlock: AJUNOK_clean_linker_0, # of connection points: 2
#     Edge 93, Type (0, 0), BuildingBlock: AJUNOK_clean_linker_0, # of connection points: 2
#     Edge 94, Type (0, 0), BuildingBlock: AJUNOK_clean_linker_0, # of connection points: 2
#     Edge 95, Type (0, 0), BuildingBlock: AJUNOK_clean_linker_0, # of connection points: 2
#     Edge 96, Type (0, 0), BuildingBlock: AJUNOK_clean_linker_0, # of connection points: 2
#     Edge 97, Type (0, 0), BuildingBlock: AJUNOK_clean_linker_0, # of connection points: 2
#     Edge 98, Type (0, 0), BuildingBlock: AJUNOK_clean_linker_0, # of connection points: 2
#     Edge 99, Type (0, 0), BuildingBlock: AJUNOK_clean_linker_0, # of connection points: 2
#     Edge 100, Type (0, 0), BuildingBlock: AJUNOK_clean_linker_0, # of connection points: 2
#     Edge 101, Type (0, 0), BuildingBlock: AJUNOK_clean_linker_0, # of connection points: 2
#     Edge 102, Type (0, 0), BuildingBlock: AJUNOK_clean_linker_0, # of connection points: 2
#     Edge 103, Type (0, 0), BuildingBlock: AJUNOK_clean_linker_0, # of connection points: 2
#     Edge 104, Type (0, 0), BuildingBlock: AJUNOK_clean_linker_0, # of connection points: 2
#     Edge 105, Type (0, 0), BuildingBlock: AJUNOK_clean_linker_0, # of connection points: 2
#     Edge 106, Type (0, 0), BuildingBlock: AJUNOK_clean_linker_0, # of connection points: 2
#     Edge 107, Type (0, 0), BuildingBlock: AJUNOK_clean_linker_0, # of connection points: 2
# Relax obj value: 0.125
# Max RMSD: 0.160
# Mean RMSD: 0.160
data_MOF--net-ato--node1-ICAMEG_clean_sbu_1--edge1-AJUNOK_clean_linker_0
_symmetry_space_group_name_H-M    P1
_symmetry_Int_Tables_number       1
_symmetry_cell_setting            triclinic
loop_
_symmetry_equiv_pos_as_xyz
'x, y, z'
_cell_length_a     79.519528
_cell_length_b     79.51433
_cell_length_c     20.06591
_cell_angle_alpha  90.019134
_cell_angle_beta   89.989212
_cell_angle_gamma 120.00351
loop_
_atom_site_label
_atom_site_type_symbol
_atom_site_fract_x
_atom_site_fract_y
_atom_site_fract_z
_atom_type_partial_charge
Co0 Co 0.25929 0.06736 0.17377 0.0
Co1 Co 0.27352 0.06765 0.33637 0.0
O2 O 0.25778 0.05352 0.25726 0.0
C3 C 0.25278 0.02788 0.12467 0.0
O4 O 0.25229 0.02149 0.1853 0.0
C5 C 0.23626 0.03307 0.39397 0.0
O6 O 0.22884 0.02733 0.33429 0.0
O7 O 0.26237 0.08565 0.3354 0.0
O8 O 0.2631 0.09063 0.22556 0.0
H9 H 0.31733 0.12766 0.46803 0.0
H10 H 0.22475 0.0284 0.2007 0.0
O11 O 0.25552 0.04494 0.11516 0.0
H12 H 0.19839 0.07191 0.1613 0.0
H13 H 0.2408 0.07478 0.93973 0.0
H14 H 0.28523 0.10772 0.12771 0.0
H15 H 0.23358 0.08435 0.15524 0.0
H16 H 0.23792 0.05707 0.04381 0.0
O17 O 0.25237 0.04903 0.40108 0.0
H18 H 0.29827 0.10932 0.3701 0.0
H19 H 0.28132 0.05605 0.46976 0.0
H20 H 0.28841 0.12604 0.02488 0.0
H21 H 0.18948 0.01526 0.20626 0.0
H22 H 0.26611 0.10956 0.92993 0.0
H23 H 0.17602 0.03708 0.18664 0.0
O24 O 0.28783 0.07786 0.17073 0.0
H25 H 0.27278 1.00392 0.31581 0.0
H26 H 0.31354 0.07421 0.35468 0.0
H27 H 0.32866 0.05378 0.35329 0.0
H28 H 0.30822 0.01827 0.33422 0.0
H29 H 0.2584 0.02491 0.31632 0.0
H30 H 0.30001 0.07383 0.56902 0.0
H31 H 0.31828 0.1099 0.56848 0.0
O32 O 0.29585 0.08636 0.27737 0.0
C33 C 0.26199 0.09547 0.28539 0.0
C34 C 0.30947 0.11195 0.46883 0.0
C35 C 0.29973 0.08174 0.52553 0.0
N36 N 0.28874 0.08163 0.41395 0.0
C37 C 0.29868 0.10147 0.41345 0.0
C38 C 0.2891 0.07175 0.46921 0.0
C39 C 0.30998 0.10197 0.52518 0.0
C40 C 0.21912 0.03798 0.19132 0.0
N41 N 0.23136 0.05713 0.17712 0.0
C42 C 0.19907 0.03046 0.19489 0.0
C43 C 0.19152 0.0427 0.184 0.0
C44 C 0.20406 0.06224 0.16985 0.0
C45 C 0.22403 0.06923 0.16674 0.0
C46 C 0.25058 0.08213 0.98081 0.0
C47 C 0.27538 0.10046 0.08681 0.0
C48 C 0.24906 0.07216 0.03983 0.0
N49 N 0.26131 0.08138 0.09209 0.0
C50 C 0.27729 0.11091 0.02861 0.0
C51 C 0.26478 0.10165 0.97534 0.0
C52 C 0.30047 0.08698 0.21586 0.0
C53 C 0.28183 0.01935 0.3247 0.0
C54 C 0.3045 0.05884 0.34608 0.0
C55 C 0.31317 0.04731 0.34552 0.0
C56 C 0.30171 0.0274 0.33486 0.0
N57 N 0.28493 0.05087 0.33674 0.0
C58 C 0.27369 0.03136 0.32558 0.0
Co59 Co 0.94574 0.19377 0.18253 0.0
Co60 Co 0.94559 0.20977 0.34147 0.0
O61 O 0.9593 0.20674 0.26487 0.0
C62 C 0.97112 0.22185 0.07788 0.0
O63 O 0.95569 0.22247 0.0583 0.0
C64 C 0.979 0.20563 0.39963 0.0
O65 O 0.98317 0.20176 0.34043 0.0
O66 O 0.92698 0.1808 0.3433 0.0
O67 O 0.92151 0.17557 0.23352 0.0
H68 H 0.88608 0.19754 0.46862 0.0
H69 H 0.9843 0.1977 0.20742 0.0
O70 O 0.97001 0.21177 0.12927 0.0
H71 H 0.93874 0.12724 0.19251 0.0
H72 H 0.93936 0.16346 0.9563 0.0
H73 H 0.90623 0.18027 0.12941 0.0
H74 H 0.92707 0.15051 0.17904 0.0
H75 H 0.95648 0.17993 0.05964 0.0
O76 O 0.96387 0.20725 0.40779 0.0
H77 H 0.90411 0.19482 0.37318 0.0
H78 H 0.95759 0.2302 0.47304 0.0
H79 H 0.88851 0.16366 0.02718 0.0
H80 H 0.99665 0.17495 0.22003 0.0
H81 H 0.90508 0.15514 0.93971 0.0
H82 H 0.97378 0.13942 0.21283 0.0
O83 O 0.93603 0.2124 0.17413 0.0
H84 H 0.01046 0.27096 0.31389 0.0
H85 H 0.94056 0.24434 0.35424 0.0
H86 H 0.96216 0.27974 0.34891 0.0
H87 H 0.99746 0.29333 0.32917 0.0
H88 H 0.98835 0.23574 0.31825 0.0
H89 H 0.94012 0.23311 0.56982 0.0
H90 H 0.90411 0.21679 0.56789 0.0
O91 O 0.92746 0.21354 0.27977 0.0
C92 C 0.91669 0.17048 0.29419 0.0
C93 C 0.90178 0.20475 0.47001 0.0
C94 C 0.9321 0.22468 0.52685 0.0
N95 N 0.93189 0.21239 0.41732 0.0
C96 C 0.91207 0.2033 0.41603 0.0
C97 C 0.94191 0.2229 0.47198 0.0
C98 C 0.9119 0.21554 0.52571 0.0
C99 C 0.97429 0.18228 0.20369 0.0
N100 N 0.95501 0.17548 0.19245 0.0
C101 C 0.98135 0.16946 0.21112 0.0
C102 C 0.96851 0.14953 0.20715 0.0
C103 C 0.94885 0.14268 0.19583 0.0
C104 C 0.94231 0.15594 0.18858 0.0
C105 C 0.93197 0.1671 0.99405 0.0
C106 C 0.91354 0.17657 0.0917 0.0
C107 C 0.94161 0.17646 0.0526 0.0
N108 N 0.93237 0.18107 0.10058 0.0
C109 C 0.90343 0.16719 0.03384 0.0
C110 C 0.91274 0.16243 0.98477 0.0
C111 C 0.927 0.21672 0.21729 0.0
C112 C 0.99514 0.26523 0.32324 0.0
C113 C 0.95587 0.25005 0.3457 0.0
C114 C 0.96805 0.27016 0.34274 0.0
C115 C 0.98784 0.27777 0.33165 0.0
N116 N 0.96314 0.23778 0.33848 0.0
C117 C 0.98251 0.2452 0.32644 0.0
Co118 Co 0.81491 0.75549 0.17349 0.0
Co119 Co 0.8041 0.73929 0.33563 0.0
O120 O 0.80361 0.755 0.2606 0.0
C121 C 0.78378 0.74917 0.07768 0.0
O122 O 0.78455 0.73386 0.0576 0.0
C123 C 0.80665 0.77594 0.39664 0.0
O124 O 0.80832 0.78343 0.33718 0.0
O125 O 0.83337 0.75121 0.32718 0.0
O126 O 0.83611 0.75239 0.21607 0.0
H127 H 0.82408 0.69595 0.45109 0.0
H128 H 0.80688 0.78729 0.20354 0.0
O129 O 0.79401 0.75888 0.12778 0.0
H130 H 0.87763 0.81966 0.16811 0.0
H131 H 0.83785 0.7803 0.94057 0.0
H132 H 0.82899 0.73133 0.10869 0.0
H133 H 0.85735 0.78419 0.15767 0.0
H134 H 0.82443 0.7803 0.0513 0.0
O135 O 0.80694 0.76002 0.40335 0.0
H136 H 0.82231 0.71509 0.35746 0.0
H137 H 0.78763 0.7308 0.47376 0.0
H138 H 0.84223 0.73064 0.99827 0.0
H139 H 0.82655 0.8229 0.21331 0.0
H140 H 0.84682 0.75531 0.91336 0.0
H141 H 0.86223 0.83933 0.19587 0.0
O142 O 0.7984 0.72666 0.1681 0.0
H143 H 0.73981 0.73776 0.33166 0.0
H144 H 0.77189 0.69887 0.35861 0.0
H145 H 0.7363 0.68283 0.36566 0.0
H146 H 0.71997 0.70232 0.35274 0.0
H147 H 0.77522 0.75312 0.32365 0.0
H148 H 0.78927 0.71208 0.56885 0.0
H149 H 0.8075 0.69438 0.55777 0.0
O150 O 0.79995 0.7175 0.27266 0.0
C151 C 0.84299 0.75266 0.27395 0.0
C152 C 0.81605 0.70356 0.45648 0.0
C153 C 0.79655 0.71264 0.52262 0.0
N154 N 0.80485 0.72403 0.40997 0.0
C155 C 0.81496 0.71439 0.40357 0.0
C156 C 0.79577 0.72332 0.46866 0.0
C157 C 0.80677 0.70271 0.51635 0.0
C158 C 0.82237 0.79431 0.19554 0.0
N159 N 0.83095 0.78356 0.18065 0.0
C160 C 0.83345 0.81449 0.2013 0.0
C161 C 0.85346 0.8237 0.19159 0.0
C162 C 0.86211 0.81268 0.17616 0.0
C163 C 0.85056 0.79252 0.17085 0.0
C164 C 0.83597 0.7695 0.97719 0.0
C165 C 0.83084 0.74205 0.07191 0.0
C166 C 0.82843 0.76946 0.0401 0.0
N167 N 0.82599 0.75586 0.08666 0.0
C168 C 0.83839 0.74162 0.0095 0.0
C169 C 0.84097 0.75547 0.96192 0.0
C170 C 0.79566 0.71362 0.2108 0.0
C171 C 0.74676 0.72914 0.33814 0.0
C172 C 0.765 0.70752 0.35298 0.0
C173 C 0.74478 0.69832 0.35705 0.0
C174 C 0.73563 0.70925 0.34979 0.0
N175 N 0.77592 0.72712 0.34262 0.0
C176 C 0.76695 0.73783 0.3343 0.0
Co177 Co 0.07308 0.25703 0.83224 0.0
Co178 Co 0.07017 0.27152 0.67448 0.0
O179 O 0.05777 0.25486 0.75251 0.0
C180 C 0.03794 0.25568 0.89477 0.0
O181 O 0.0403 0.2697 0.8544 0.0
C182 C 0.03607 0.23392 0.61791 0.0
O183 O 0.03109 0.22611 0.6774 0.0
O184 O 0.08926 0.26177 0.66908 0.0
O185 O 0.09699 0.26461 0.77731 0.0
H186 H 0.12754 0.31889 0.53855 0.0
H187 H 0.03575 0.22063 0.81156 0.0
O188 O 0.0496 0.24907 0.89136 0.0
H189 H 0.08546 0.20086 0.81702 0.0
H190 H 0.08556 0.23597 0.05484 0.0
H191 H 0.11243 0.28609 0.87956 0.0
H192 H 0.09469 0.23519 0.83177 0.0
H193 H 0.06633 0.23309 0.95469 0.0
O194 O 0.05159 0.25038 0.61017 0.0
H195 H 0.11108 0.29842 0.63625 0.0
H196 H 0.05612 0.27913 0.54569 0.0
H197 H 0.13227 0.28943 0.97837 0.0
H198 H 0.02584 0.18607 0.79739 0.0
H199 H 0.11888 0.26423 0.06685 0.0
H200 H 0.0508 0.17601 0.79992 0.0
O201 O 0.08079 0.28496 0.84052 0.0
H202 H 1.00523 0.26676 0.71625 0.0
H203 H 0.07403 0.31063 0.66101 0.0
H204 H 0.05208 0.32388 0.67122 0.0
H205 H 0.01731 0.30188 0.69848 0.0
H206 H 0.02769 0.25423 0.70692 0.0
H207 H 0.07202 0.29914 0.44662 0.0
H208 H 0.10798 0.31933 0.44277 0.0
O209 O 0.08869 0.29386 0.73401 0.0
C210 C 0.10071 0.26316 0.71635 0.0
C211 C 0.11186 0.3102 0.53968 0.0
C212 C 0.0807 0.2991 0.48807 0.0
N213 N 0.08265 0.28768 0.59701 0.0
C214 C 0.10245 0.2986 0.59496 0.0
C215 C 0.07179 0.28772 0.54424 0.0
C216 C 0.10088 0.31043 0.48595 0.0
C217 C 0.04667 0.21634 0.81304 0.0
N218 N 0.06575 0.22992 0.82241 0.0
C219 C 0.04098 0.19676 0.80486 0.0
C220 C 0.055 0.19113 0.80622 0.0
C221 C 0.07444 0.20506 0.81576 0.0
C222 C 0.07959 0.2245 0.82379 0.0
C223 C 0.09155 0.24707 0.01668 0.0
C224 C 0.10646 0.27507 0.91783 0.0
C225 C 0.08067 0.24557 0.96007 0.0
N226 N 0.08818 0.25943 0.91138 0.0
C227 C 0.11778 0.27704 0.97371 0.0
C228 C 0.11025 0.26291 0.02337 0.0
C229 C 0.08922 0.29806 0.79599 0.0
C230 C 0.02029 0.27647 0.70339 0.0
C231 C 0.05896 0.30088 0.67258 0.0
C232 C 0.04657 0.30851 0.67837 0.0
C233 C 0.02708 0.29617 0.69367 0.0
N234 N 0.05218 0.28145 0.68099 0.0
C235 C 0.03312 0.26936 0.69718 0.0
Co236 Co 0.75547 0.81916 0.82798 0.0
Co237 Co 0.74011 0.8015 0.6705 0.0
O238 O 0.75674 0.80548 0.74831 0.0
C239 C 0.75386 0.78407 0.88859 0.0
O240 O 0.7397 0.77361 0.84691 0.0
C241 C 0.77736 0.8039 0.61548 0.0
O242 O 0.7851 0.80741 0.67518 0.0
O243 O 0.75066 0.83044 0.66446 0.0
O244 O 0.74901 0.83639 0.7728 0.0
H245 H 0.69332 0.8126 0.53553 0.0
H246 H 0.79076 0.81612 0.80818 0.0
O247 O 0.76205 0.80256 0.88657 0.0
H248 H 0.81384 0.88636 0.81306 0.0
H249 H 0.77736 0.85116 0.05258 0.0
H250 H 0.72824 0.83185 0.87504 0.0
H251 H 0.77909 0.86251 0.82738 0.0
H252 H 0.77919 0.83432 0.9519 0.0
O253 O 0.76102 0.80317 0.60613 0.0
H254 H 0.7138 0.81625 0.63286 0.0
H255 H 0.73185 0.77961 0.54195 0.0
H256 H 0.72584 0.84861 0.97481 0.0
H257 H 0.8257 0.83949 0.79429 0.0
H258 H 0.75061 0.85855 0.06426 0.0
H259 H 0.83743 0.87489 0.79653 0.0
O260 O 0.72738 0.79994 0.83688 0.0
H261 H 0.74268 0.74018 0.71295 0.0
H262 H 0.70035 0.76712 0.65976 0.0
H263 H 0.68612 0.73175 0.67015 0.0
H264 H 0.70732 0.718 0.69682 0.0
H265 H 0.75629 0.77533 0.70233 0.0
H266 H 0.71174 0.77575 0.44337 0.0
H267 H 0.69221 0.79223 0.43985 0.0
O268 O 0.71802 0.79843 0.73034 0.0
C269 C 0.75017 0.84112 0.71138 0.0
C270 C 0.70174 0.80531 0.53652 0.0
C271 C 0.71211 0.78467 0.48475 0.0
N272 N 0.72397 0.79811 0.5933 0.0
C273 C 0.71333 0.80729 0.59158 0.0
C274 C 0.72355 0.78699 0.54062 0.0
C275 C 0.70114 0.7939 0.48283 0.0
C276 C 0.79577 0.8315 0.80941 0.0
N277 N 0.78289 0.83792 0.81827 0.0
C278 C 0.81556 0.84467 0.80144 0.0
C279 C 0.82213 0.86453 0.80264 0.0
C280 C 0.8089 0.87097 0.81185 0.0
C281 C 0.78922 0.85738 0.81963 0.0
C282 C 0.76653 0.847 0.0138 0.0
C283 C 0.7391 0.83615 0.91365 0.0
C284 C 0.76747 0.83743 0.95674 0.0
N285 N 0.75394 0.83228 0.90732 0.0
C286 C 0.73766 0.84563 0.97008 0.0
C287 C 0.75153 0.85115 0.02032 0.0
C288 C 0.71426 0.79501 0.79262 0.0
C289 C 0.73333 0.74596 0.70026 0.0
C290 C 0.70981 0.76133 0.67019 0.0
C291 C 0.70161 0.74123 0.67633 0.0
C292 C 0.71349 0.73353 0.69141 0.0
N293 N 0.72938 0.77348 0.67767 0.0
C294 C 0.74104 0.76597 0.69337 0.0
Co295 Co 0.1935 0.93996 0.83136 0.0
Co296 Co 0.21239 0.94359 0.67449 0.0
O297 O 0.20735 0.95561 0.75257 0.0
C298 C 0.22692 0.97506 0.89604 0.0
O299 O 0.23873 0.9753 0.84988 0.0
C300 C 0.20829 0.97728 0.61695 0.0
O301 O 0.2044 0.98158 0.676 0.0
O302 O 0.18369 0.92409 0.66639 0.0
O303 O 0.17732 0.91658 0.77441 0.0
H304 H 0.2049 0.88696 0.53977 0.0
H305 H 0.19546 0.97777 0.81276 0.0
O306 O 0.20887 0.96253 0.89371 0.0
H307 H 0.12562 0.92912 0.81187 0.0
H308 H 0.15977 0.92718 0.05374 0.0
H309 H 0.18131 0.89979 0.87475 0.0
H310 H 0.1501 0.9191 0.82748 0.0
H311 H 0.17689 0.94685 0.95521 0.0
O312 O 0.20988 0.96212 0.6093 0.0
H313 H 0.19966 0.90295 0.63642 0.0
H314 H 0.23483 0.95824 0.5473 0.0
H315 H 0.16417 0.87961 0.97218 0.0
H316 H 0.17144 0.98849 0.79763 0.0
H317 H 0.15319 0.89325 0.06249 0.0
H318 H 0.13624 0.96405 0.79697 0.0
O319 O 0.21328 0.93184 0.84101 0.0
H320 H 0.27151 0.00924 0.71712 0.0
H321 H 0.24811 0.94043 0.6662 0.0
H322 H 0.28316 0.96295 0.67859 0.0
H323 H 0.29515 0.99772 0.70368 0.0
H324 H 0.23668 0.98622 0.70584 0.0
H325 H 0.24023 0.94282 0.44938 0.0
H326 H 0.22529 0.90693 0.44531 0.0
O327 O 0.21621 0.92516 0.73456 0.0
C328 C 0.17303 0.91274 0.71295 0.0
C329 C 0.21151 0.90261 0.541 0.0
C330 C 0.23131 0.93396 0.49023 0.0
N331 N 0.21696 0.93151 0.59773 0.0
C332 C 0.20863 0.91176 0.59569 0.0
C333 C 0.22811 0.9426 0.54572 0.0
C334 C 0.22294 0.91383 0.488 0.0
C335 C 0.18016 0.96709 0.81285 0.0
N336 N 0.1742 0.94787 0.82092 0.0
C337 C 0.16663 0.97323 0.80413 0.0
C338 C 0.14688 0.95951 0.8037 0.0
C339 C 0.14091 0.93991 0.81201 0.0
C340 C 0.15486 0.93431 0.82058 0.0
C341 C 0.16443 0.92104 0.01463 0.0
C342 C 0.17652 0.90583 0.91363 0.0
C343 C 0.17418 0.93213 0.95877 0.0
N344 N 0.18001 0.92445 0.90897 0.0
C345 C 0.16684 0.89433 0.96879 0.0
C346 C 0.16073 0.90201 0.0195 0.0
C347 C 0.21877 0.92398 0.79714 0.0
C348 C 0.2665 0.99418 0.70528 0.0
C349 C 0.25311 0.9555 0.67696 0.0
C350 C 0.27303 0.96821 0.68393 0.0
C351 C 0.27975 0.9877 0.69799 0.0
N352 N 0.24014 0.96197 0.68313 0.0
C353 C 0.24668 0.98104 0.69795 0.0
Co354 Co 0.75821 0.94171 0.8274 0.0
Co355 Co 0.74156 0.94472 0.67237 0.0
O356 O 0.75926 0.95716 0.74883 0.0
C357 C 0.76527 0.98009 0.88767 0.0
O358 O 0.76245 0.9862 0.83033 0.0
C359 C 0.77994 0.97413 0.60235 0.0
O360 O 0.79085 0.97117 0.64438 0.0
O361 O 0.75154 0.9259 0.66139 0.0
O362 O 0.75174 0.91868 0.76933 0.0
H363 H 0.69264 0.8877 0.53857 0.0
H364 H 0.79333 0.98006 0.80398 0.0
O365 O 0.76449 0.96371 0.89181 0.0
H366 H 0.81656 0.93303 0.80717 0.0
H367 H 0.78013 0.9294 0.04869 0.0
H368 H 0.73107 0.90132 0.87038 0.0
H369 H 0.78189 0.92211 0.82419 0.0
H370 H 0.78219 0.94894 0.95036 0.0
O371 O 0.76144 0.96424 0.60731 0.0
H372 H 0.71468 0.90389 0.63314 0.0
H373 H 0.73142 0.95916 0.54947 0.0
H374 H 0.72849 0.88129 0.96761 0.0
H375 H 0.82817 0.99166 0.78751 0.0
H376 H 0.7532 0.89526 0.0576 0.0
H377 H 0.83999 0.96805 0.78893 0.0
O378 O 0.73014 0.93277 0.83858 0.0
H379 H 0.74805 0.01031 0.70756 0.0
H380 H 0.702 0.9405 0.67676 0.0
H381 H 0.68946 0.96293 0.69315 0.0
H382 H 0.71256 0.99817 0.7084 0.0
H383 H 0.75993 0.98727 0.69226 0.0
H384 H 0.70971 0.94354 0.45373 0.0
H385 H 0.69005 0.90756 0.44795 0.0
O386 O 0.72011 0.92552 0.73302 0.0
C387 C 0.75175 0.91486 0.70758 0.0
C388 C 0.70112 0.9034 0.54054 0.0
C389 C 0.71072 0.93473 0.49289 0.0
N390 N 0.72434 0.93246 0.59703 0.0
C391 C 0.71362 0.91265 0.59404 0.0
C392 C 0.72307 0.94349 0.54715 0.0
C393 C 0.69968 0.91454 0.4897 0.0
C394 C 0.79839 0.96974 0.80553 0.0
N395 N 0.78561 0.95048 0.81589 0.0
C396 C 0.81812 0.97638 0.7958 0.0
C397 C 0.82474 0.96312 0.79647 0.0
C398 C 0.8116 0.94347 0.80668 0.0
C399 C 0.79198 0.93737 0.81619 0.0
C400 C 0.76933 0.9231 0.00967 0.0
C401 C 0.74195 0.90749 0.90904 0.0
C402 C 0.7704 0.93411 0.9539 0.0
N403 N 0.75684 0.92623 0.90429 0.0
C404 C 0.74039 0.89608 0.96411 0.0
C405 C 0.75422 0.90395 0.01464 0.0
C406 C 0.71663 0.92448 0.79562 0.0
C407 C 0.73783 0.99499 0.70106 0.0
C408 C 0.71214 0.95572 0.68439 0.0
C409 C 0.70496 0.9684 0.69316 0.0
C410 C 0.71792 0.98817 0.7016 0.0
N411 N 0.73169 0.96249 0.68413 0.0
C412 C 0.74447 0.98187 0.69222 0.0
Co413 Co 0.06994 0.79975 0.67021 0.0
Co414 Co 0.07286 0.81795 0.82723 0.0
O415 O 0.05764 0.80424 0.7481 0.0
C416 C 0.03587 0.80351 0.61434 0.0
O417 O 0.03131 0.80671 0.674 0.0
C418 C 0.03906 0.78354 0.89155 0.0
O419 O 0.04186 0.77225 0.85074 0.0
O420 O 0.08139 0.79847 0.83647 0.0
O421 O 0.08849 0.79597 0.73006 0.0
H422 H 0.13223 0.84673 0.97288 0.0
H423 H 0.02743 0.77473 0.70246 0.0
O424 O 0.05119 0.80222 0.60594 0.0
H425 H 0.05182 0.72932 0.67031 0.0
H426 H 0.07137 0.77356 0.44269 0.0
H427 H 0.11073 0.81309 0.63236 0.0
H428 H 0.0738 0.7645 0.6588 0.0
H429 H 0.05566 0.77798 0.54173 0.0
O430 O 0.04977 0.80195 0.88698 0.0
H431 H 0.11269 0.82989 0.87393 0.0
H432 H 0.06555 0.83507 0.94872 0.0
H433 H 0.12702 0.80878 0.53466 0.0
H434 H 1.00496 0.73975 0.71318 0.0
H435 H 0.1073 0.78892 0.43886 0.0
H436 H 0.01705 0.71666 0.69719 0.0
O437 O 0.08917 0.82859 0.66359 0.0
H438 H 0.02375 0.83931 0.79338 0.0
H439 H 0.09327 0.86136 0.82376 0.0
H440 H 0.0829 0.88556 0.80818 0.0
H441 H 0.0479 0.8746 0.79308 0.0
H442 H 0.0348 0.81556 0.8083 0.0
H443 H 0.08451 0.85184 0.04891 0.0
H444 H 0.11818 0.85789 0.06127 0.0
O445 O 0.09645 0.83455 0.77191 0.0
C446 C 0.08947 0.7932 0.79265 0.0
C447 C 0.11759 0.84421 0.9681 0.0
C448 C 0.09079 0.84701 0.01085 0.0
N449 N 0.0879 0.8313 0.90581 0.0
C450 C 0.10643 0.83465 0.91215 0.0
C451 C 0.08005 0.83737 0.95424 0.0
C452 C 0.10968 0.85043 0.01771 0.0
C453 C 0.03285 0.76497 0.69354 0.0
N454 N 0.05192 0.77188 0.67761 0.0
C455 C 0.02002 0.74506 0.70051 0.0
C456 C 0.02682 0.73212 0.69178 0.0
C457 C 0.04631 0.73921 0.67668 0.0
C458 C 0.0587 0.75921 0.67011 0.0
C459 C 0.08012 0.78224 0.48413 0.0
C460 C 0.10204 0.80433 0.59107 0.0
C461 C 0.07131 0.78489 0.54025 0.0
N462 N 0.08227 0.79577 0.59294 0.0
C463 C 0.11135 0.80198 0.5358 0.0
C464 C 0.10028 0.79085 0.48203 0.0
C465 C 0.10036 0.83914 0.71069 0.0
C466 C 0.03904 0.84427 0.79993 0.0
C467 C 0.07803 0.85643 0.81657 0.0
C468 C 0.07224 0.87023 0.80811 0.0
C469 C 0.0526 0.86407 0.7997 0.0
N470 N 0.06464 0.83703 0.81669 0.0
C471 C 0.04537 0.83089 0.80853 0.0
Co472 Co 0.19435 0.25592 0.83249 0.0
Co473 Co 0.21392 0.2739 0.67963 0.0
O474 O 0.20895 0.25582 0.75383 0.0
C475 C 0.22862 0.25669 0.89852 0.0
O476 O 0.23996 0.27143 0.86012 0.0
C477 C 0.20617 0.23627 0.60715 0.0
O478 O 0.19154 0.22496 0.646 0.0
O479 O 0.18498 0.26321 0.66838 0.0
O480 O 0.17785 0.26295 0.77669 0.0
H481 H 0.20424 0.32246 0.54996 0.0
H482 H 0.19818 0.22137 0.80611 0.0
O483 O 0.21021 0.2486 0.89218 0.0
H484 H 0.12775 0.19739 0.80355 0.0
H485 H 0.15857 0.23021 0.04939 0.0
H486 H 0.18093 0.2824 0.8819 0.0
H487 H 0.15106 0.23193 0.82528 0.0
H488 H 0.17668 0.22987 0.95009 0.0
O489 O 0.21454 0.25473 0.6136 0.0
H490 H 0.19897 0.30012 0.643 0.0
H491 H 0.23878 0.28547 0.55707 0.0
H492 H 0.16263 0.28318 0.97984 0.0
H493 H 0.17535 0.18663 0.785 0.0
H494 H 0.15129 0.25695 0.06448 0.0
H495 H 0.13986 0.17445 0.78349 0.0
O496 O 0.2132 0.28403 0.84674 0.0
H497 H 0.27366 0.26937 0.72577 0.0
H498 H 0.24869 0.3139 0.68213 0.0
H499 H 0.28368 0.32731 0.70175 0.0
H500 H 0.29642 0.30498 0.7235 0.0
H501 H 0.23875 0.2566 0.70642 0.0
H502 H 0.24431 0.30746 0.46277 0.0
H503 H 0.22704 0.32624 0.45891 0.0
O504 O 0.21535 0.29461 0.74212 0.0
C505 C 0.1738 0.26295 0.71509 0.0
C506 C 0.21186 0.31437 0.55109 0.0
C507 C 0.23432 0.30593 0.5021 0.0
N508 N 0.21855 0.29147 0.60565 0.0
C509 C 0.20895 0.3017 0.60372 0.0
C510 C 0.23105 0.2934 0.55552 0.0
C511 C 0.22464 0.31647 0.5 0.0
C512 C 0.18275 0.21613 0.80611 0.0
N513 N 0.17597 0.22863 0.81727 0.0
C514 C 0.1699 0.19647 0.79389 0.0
C515 C 0.14999 0.18965 0.79295 0.0
C516 C 0.14318 0.20251 0.80416 0.0
C517 C 0.15646 0.22207 0.81622 0.0
C518 C 0.16346 0.24175 0.01295 0.0
C519 C 0.17607 0.27092 0.91846 0.0
C520 C 0.17385 0.2417 0.95688 0.0
N521 N 0.18 0.25617 0.91046 0.0
C522 C 0.16571 0.27145 0.97386 0.0
C523 C 0.15937 0.25674 0.02136 0.0
C524 C 0.21804 0.29778 0.80485 0.0
C525 C 0.26831 0.27926 0.71621 0.0
C526 C 0.25406 0.30408 0.69186 0.0
C527 C 0.27392 0.31177 0.70277 0.0
C528 C 0.28106 0.29923 0.71496 0.0
N529 N 0.24164 0.28446 0.69272 0.0
C530 C 0.24854 0.27211 0.7051 0.0
Co531 Co 0.94889 0.75487 0.17726 0.0
Co532 Co 0.94375 0.74016 0.34076 0.0
O533 O 0.95988 0.7554 0.26495 0.0
C534 C 0.97448 0.74914 0.08255 0.0
O535 O 0.95881 0.73333 0.06268 0.0
C536 C 0.97769 0.77723 0.39889 0.0
O537 O 0.98235 0.7849 0.33929 0.0
O538 O 0.92644 0.75207 0.33031 0.0
O539 O 0.92438 0.75156 0.21896 0.0
H540 H 0.88048 0.69751 0.45767 0.0
H541 H 0.98809 0.78736 0.20914 0.0
O542 O 0.97343 0.75859 0.13256 0.0
H543 H 0.9491 0.81837 0.16088 0.0
H544 H 0.94955 0.77757 0.94187 0.0
H545 H 0.91094 0.72902 0.11326 0.0
H546 H 0.93454 0.7829 0.1541 0.0
H547 H 0.96342 0.77884 0.05286 0.0
O548 O 0.96179 0.76113 0.40746 0.0
H549 H 0.90133 0.71648 0.36374 0.0
H550 H 0.95181 0.73211 0.47941 0.0
H551 H 0.89658 0.72712 1.00273 0.0
H552 H 1.00347 0.82299 0.21504 0.0
H553 H 0.91589 0.75157 0.91619 0.0
H554 H 0.98391 0.83875 0.19114 0.0
O555 O 0.93725 0.72609 0.17481 0.0
H556 H 1.00664 0.73897 0.3394 0.0
H557 H 0.93568 0.69981 0.36601 0.0
H558 H 0.95538 0.68397 0.37466 0.0
H559 H 0.9912 0.70361 0.36194 0.0
H560 H 0.9864 0.75411 0.32967 0.0
H561 H 0.93148 0.71349 0.57479 0.0
H562 H 0.89555 0.69592 0.56416 0.0
O563 O 0.92597 0.71811 0.27921 0.0
C564 C 0.91798 0.75262 0.27644 0.0
C565 C 0.89613 0.70508 0.46289 0.0
C566 C 0.92475 0.71407 0.52863 0.0
N567 N 0.92778 0.72532 0.41582 0.0
C568 C 0.90801 0.71582 0.40981 0.0
C569 C 0.93618 0.72467 0.4745 0.0
C570 C 0.90459 0.7042 0.52262 0.0
C571 C 0.9795 0.79409 0.19818 0.0
N572 N 0.96035 0.78295 0.18164 0.0
C573 C 0.98829 0.81429 0.20185 0.0
C574 C 0.9773 0.82312 0.18853 0.0
C575 C 0.95777 0.81169 0.17169 0.0
C576 C 0.94951 0.79154 0.16851 0.0
C577 C 0.94096 0.76688 0.97925 0.0
C578 C 0.91948 0.73967 0.07584 0.0
C579 C 0.94871 0.76756 0.0423 0.0
N580 N 0.93794 0.75412 0.08988 0.0
C581 C 0.91125 0.73854 0.01334 0.0
C582 C 0.92209 0.75227 0.96484 0.0
C583 C 0.92667 0.71351 0.21843 0.0
C584 C 0.99106 0.73028 0.34574 0.0
C585 C 0.9512 0.7085 0.36033 0.0
C586 C 0.96232 0.69943 0.36536 0.0
C587 C 0.9824 0.71044 0.35821 0.0
N588 N 0.95978 0.72805 0.34909 0.0
C589 C 0.97947 0.73884 0.34091 0.0
Co590 Co 0.27581 0.20922 0.34689 0.0
Co591 Co 0.25889 0.19656 0.18759 0.0
O592 O 0.25925 0.20863 0.27301 0.0
C593 C 0.2384 0.20324 0.41496 0.0
O594 O 0.2273 0.19201 0.3668 0.0
C595 C 0.26322 0.22619 0.08747 0.0
O596 O 0.27888 0.22615 0.06685 0.0
O597 O 0.28763 0.21392 0.17993 0.0
O598 O 0.29649 0.21121 0.28328 0.0
H599 H 0.28357 0.16669 0.02153 0.0
H600 H 0.262 0.23756 0.33368 0.0
O601 O 0.2566 0.20904 0.41489 0.0
H602 H 0.33313 0.27737 0.3553 0.0
H603 H 0.30749 0.2293 0.57303 0.0
H604 H 0.29848 0.18959 0.37316 0.0
H605 H 0.31696 0.24169 0.3583 0.0
H606 H 0.28756 0.22937 0.47922 0.0
O607 O 0.25422 0.21626 0.13903 0.0
H608 H 0.28332 0.18208 0.12793 0.0
H609 H 0.23403 0.18535 0.06502 0.0
H610 H 0.31864 0.18918 0.46563 0.0
H611 H 0.27754 0.27321 0.33103 0.0
H612 H 0.32329 0.20917 0.56653 0.0
H613 H 0.31337 0.29341 0.34195 0.0
O614 O 0.26301 0.17985 0.3445 0.0
H615 H 0.19096 0.18227 0.23469 0.0
H616 H 0.23148 0.15383 0.17329 0.0
H617 H 0.19615 0.13247 0.1861 0.0
H618 H 0.1756 0.14669 0.21658 0.0
H619 H 0.22644 0.20304 0.22263 0.0
H620 H 0.23383 0.17012 0.95773 0.0
H621 H 0.2587 0.16062 0.93551 0.0
O622 O 0.26298 0.17644 0.23358 0.0
C623 C 0.30061 0.21618 0.22217 0.0
C624 C 0.27266 0.17077 0.03061 0.0
C625 C 0.24474 0.17269 0.99482 0.0
N626 N 0.25868 0.18461 0.10278 0.0
C627 C 0.27245 0.17949 0.09078 0.0
C628 C 0.24495 0.18133 0.05564 0.0
C629 C 0.2587 0.16737 0.98238 0.0
C630 C 0.27759 0.24619 0.3386 0.0
N631 N 0.28851 0.23745 0.3467 0.0
C632 C 0.28632 0.26641 0.33699 0.0
C633 C 0.30641 0.27773 0.34312 0.0
C634 C 0.3175 0.26874 0.35063 0.0
C635 C 0.30826 0.24849 0.35213 0.0
C636 C 0.30557 0.22052 0.52936 0.0
C637 C 0.30041 0.19833 0.41682 0.0
C638 C 0.29421 0.22043 0.47615 0.0
N639 N 0.29183 0.20951 0.42056 0.0
C640 C 0.31185 0.19804 0.46908 0.0
C641 C 0.31444 0.20924 0.52567 0.0
C642 C 0.26201 0.1699 0.29261 0.0
C643 C 0.19975 0.1759 0.22118 0.0
C644 C 0.22269 0.16011 0.18723 0.0
C645 C 0.20266 0.14795 0.19409 0.0
C646 C 0.19114 0.15594 0.21112 0.0
N647 N 0.23102 0.1797 0.19681 0.0
C648 C 0.21983 0.18761 0.21396 0.0
Co649 Co 0.82157 0.06931 0.17942 0.0
Co650 Co 0.8031 0.06757 0.33591 0.0
O651 O 0.80767 0.0545 0.25969 0.0
C652 C 0.78969 0.03069 0.12267 0.0
O653 O 0.78036 0.02569 0.17961 0.0
C654 C 0.81184 0.03788 0.40461 0.0
O655 O 0.82426 0.03944 0.35852 0.0
O656 O 0.83202 0.0866 0.34379 0.0
O657 O 0.83846 0.09269 0.23499 0.0
H658 H 0.81222 0.12562 0.46559 0.0
H659 H 0.81828 0.03102 0.20458 0.0
O660 O 0.80551 0.04682 0.11719 0.0
H661 H 0.88857 0.07779 0.19723 0.0
H662 H 0.85505 0.07994 0.95718 0.0
H663 H 0.83493 0.10947 0.13314 0.0
H664 H 0.86487 0.08878 0.18044 0.0
H665 H 0.83746 0.06101 0.05637 0.0
O666 O 0.80414 0.04865 0.40224 0.0
H667 H 0.81726 0.10868 0.37152 0.0
H668 H 0.77965 0.05412 0.46154 0.0
H669 H 0.85274 0.12901 0.03535 0.0
H670 H 0.84147 0.01936 0.22077 0.0
H671 H 0.86296 0.11426 0.94645 0.0
H672 H 0.87691 0.04283 0.21729 0.0
O673 O 0.80247 0.07834 0.16865 0.0
H674 H 0.74391 1.00161 0.30791 0.0
H675 H 0.76759 0.07151 0.33516 0.0
H676 H 0.73251 0.04885 0.32266 0.0
H677 H 0.72042 0.01357 0.30923 0.0
H678 H 0.7789 0.02486 0.31922 0.0
H679 H 0.77438 0.0705 0.5568 0.0
H680 H 0.79066 0.1065 0.55915 0.0
O681 O 0.80017 0.08617 0.27411 0.0
C682 C 0.84284 0.09723 0.29602 0.0
C683 C 0.80504 0.10992 0.46512 0.0
C684 C 0.78383 0.07899 0.51636 0.0
N685 N 0.79876 0.08042 0.41084 0.0
C686 C 0.80781 0.10023 0.41192 0.0
C687 C 0.78694 0.0698 0.46235 0.0
C688 C 0.79295 0.09919 0.51762 0.0
C689 C 0.83366 0.04128 0.20212 0.0
N690 N 0.84018 0.06051 0.19083 0.0
C691 C 0.84673 0.03461 0.2117 0.0
C692 C 0.86661 0.04779 0.20988 0.0
C693 C 0.87316 0.06741 0.19866 0.0
C694 C 0.85966 0.07354 0.18933 0.0
C695 C 0.85072 0.08655 0.99566 0.0
C696 C 0.83946 0.10299 0.09503 0.0
C697 C 0.8407 0.07588 0.05188 0.0
N698 N 0.8353 0.08417 0.10094 0.0
C699 C 0.84947 0.1141 0.03957 0.0
C700 C 0.85516 0.10581 0.98967 0.0
C701 C 0.79751 0.08693 0.21147 0.0
C702 C 0.74898 0.01695 0.31366 0.0
C703 C 0.76252 0.05627 0.32826 0.0
C704 C 0.74259 0.04346 0.32173 0.0
C705 C 0.73582 0.02367 0.31432 0.0
N706 N 0.77537 0.0496 0.32735 0.0
C707 C 0.7688 0.0302 0.32028 0.0
Co708 Co 0.92623 0.39836 0.50988 0.0
Co709 Co 0.9397 0.40156 0.67507 0.0
O710 O 0.92457 0.38607 0.59682 0.0
C711 C 0.92039 0.35839 0.46802 0.0
O712 O 0.91903 0.35206 0.52929 0.0
C713 C 0.90256 0.3671 0.73388 0.0
O714 O 0.8955 0.3608 0.67417 0.0
O715 O 0.92831 0.41939 0.6665 0.0
O716 O 0.92912 0.42217 0.55559 0.0
H717 H 0.98234 0.46362 0.79877 0.0
H718 H 0.89241 0.35952 0.54323 0.0
O719 O 0.92344 0.37546 0.45681 0.0
H720 H 0.8638 0.3996 0.47989 0.0
H721 H 0.90871 0.40122 0.27017 0.0
H722 H 0.95281 0.43754 0.4553 0.0
H723 H 0.89912 0.41312 0.47716 0.0
H724 H 0.90503 0.38574 0.37971 0.0
O725 O 0.91829 0.38348 0.7405 0.0
H726 H 0.96382 0.44375 0.70243 0.0
H727 H 0.94692 0.39213 0.81293 0.0
H728 H 0.95697 0.45357 0.34655 0.0
H729 H 0.857 0.34518 0.54542 0.0
H730 H 0.93477 0.43541 0.25309 0.0
H731 H 0.84236 0.36527 0.51387 0.0
O732 O 0.9549 0.40955 0.51018 0.0
H733 H 0.94026 0.33827 0.6688 0.0
H734 H 0.97972 0.40895 0.7016 0.0
H735 H 0.9953 0.389 0.70854 0.0
H736 H 0.97552 0.3533 0.69262 0.0
H737 H 0.92542 0.35877 0.66097 0.0
H738 H 0.965 0.41146 0.91071 0.0
H739 H 0.983 0.44748 0.90391 0.0
O740 O 0.9623 0.41968 0.61582 0.0
C741 C 0.92799 0.42827 0.61344 0.0
C742 C 0.97458 0.44794 0.80232 0.0
C743 C 0.96483 0.41867 0.86517 0.0
N744 N 0.95432 0.41678 0.7518 0.0
C745 C 0.96409 0.4366 0.74787 0.0
C746 C 0.95452 0.4078 0.80968 0.0
C747 C 0.97493 0.43887 0.86131 0.0
C748 C 0.88633 0.36837 0.52883 0.0
N749 N 0.89809 0.38726 0.5102 0.0
C750 C 0.86616 0.36016 0.53044 0.0
C751 C 0.85796 0.37143 0.51287 0.0
C752 C 0.86997 0.39068 0.49394 0.0
C753 C 0.89007 0.39837 0.49301 0.0
C754 C 0.91839 0.40933 0.31063 0.0
C755 C 0.94304 0.42954 0.41498 0.0
C756 C 0.91637 0.40065 0.37286 0.0
N757 N 0.92848 0.41083 0.42439 0.0
C758 C 0.94549 0.4387 0.35345 0.0
C759 C 0.93304 0.4285 0.30105 0.0
C760 C 0.96724 0.41959 0.5551 0.0
C761 C 0.94902 0.35379 0.67646 0.0
C762 C 0.97095 0.3935 0.69442 0.0
C763 C 0.97989 0.38223 0.69855 0.0
C764 C 0.9688 0.36222 0.68965 0.0
N765 N 0.95147 0.38515 0.68228 0.0
C766 C 0.94061 0.36553 0.67266 0.0
Co767 Co 0.61283 0.52789 0.50523 0.0
Co768 Co 0.61198 0.5411 0.66842 0.0
O769 O 0.6264 0.53984 0.58956 0.0
C770 C 0.65245 0.56107 0.45804 0.0
O771 O 0.65871 0.56678 0.51892 0.0
C772 C 0.64651 0.53844 0.72708 0.0
O773 O 0.65249 0.537 0.66752 0.0
O774 O 0.59396 0.51193 0.66568 0.0
O775 O 0.58936 0.50829 0.55556 0.0
H776 H 0.55146 0.52422 0.79795 0.0
H777 H 0.65166 0.53212 0.53281 0.0
O778 O 0.63545 0.54674 0.44789 0.0
H779 H 0.60808 0.46239 0.4907 0.0
H780 H 0.60626 0.50295 0.27006 0.0
H781 H 0.5727 0.51386 0.45739 0.0
H782 H 0.59574 0.48523 0.48532 0.0
H783 H 0.62355 0.51724 0.37526 0.0
O784 O 0.63042 0.53837 0.73364 0.0
H785 H 0.57018 0.52397 0.70045 0.0
H786 H 0.62305 0.55996 0.80283 0.0
H787 H 0.55479 0.49926 0.35339 0.0
H788 H 0.6647 0.50989 0.53777 0.0
H789 H 0.57158 0.49373 0.25875 0.0
H790 H 0.64285 0.47468 0.51676 0.0
O791 O 0.6024 0.54598 0.50269 0.0
H792 H 0.67571 0.60424 0.65134 0.0
H793 H 0.60532 0.57445 0.68829 0.0
H794 H 0.62571 0.61001 0.6888 0.0
H795 H 0.66126 0.62521 0.67073 0.0
H796 H 0.65476 0.56886 0.64993 0.0
H797 H 0.60488 0.56039 0.90168 0.0
H798 H 0.56882 0.54252 0.89956 0.0
O799 O 0.59346 0.54494 0.60909 0.0
C800 C 0.58426 0.50203 0.61492 0.0
C801 C 0.56717 0.5321 0.79945 0.0
C802 C 0.59715 0.55238 0.85768 0.0
N803 N 0.5977 0.54198 0.74569 0.0
C804 C 0.57786 0.53204 0.74432 0.0
C805 C 0.60736 0.552 0.8016 0.0
C806 C 0.57692 0.54236 0.85645 0.0
C807 C 0.64208 0.51694 0.52281 0.0
N808 N 0.62297 0.51012 0.50813 0.0
C809 C 0.64954 0.50436 0.52605 0.0
C810 C 0.63727 0.48461 0.51438 0.0
C811 C 0.61777 0.4777 0.49982 0.0
C812 C 0.61084 0.49073 0.49705 0.0
C813 C 0.59877 0.50525 0.31099 0.0
C814 C 0.58009 0.51139 0.41663 0.0
C815 C 0.6085 0.5134 0.37066 0.0
N816 N 0.59911 0.51627 0.42272 0.0
C817 C 0.56988 0.50316 0.35777 0.0
C818 C 0.57931 0.50008 0.30468 0.0
C819 C 0.59305 0.54921 0.54774 0.0
C820 C 0.66026 0.5978 0.65983 0.0
C821 C 0.62071 0.58083 0.68013 0.0
C822 C 0.63222 0.60104 0.68065 0.0
C823 C 0.65215 0.60956 0.67054 0.0
N824 N 0.62873 0.5693 0.6703 0.0
C825 C 0.64826 0.57763 0.65964 0.0
Co826 Co 0.48868 0.08722 0.51107 0.0
Co827 Co 0.47078 0.07315 0.66914 0.0
O828 O 0.47527 0.08976 0.59018 0.0
C829 C 0.45624 0.09168 0.44942 0.0
O830 O 0.44473 0.08241 0.49959 0.0
C831 C 0.47412 0.11076 0.727 0.0
O832 O 0.47684 0.11878 0.66786 0.0
O833 O 0.49959 0.08298 0.67564 0.0
O834 O 0.50486 0.07991 0.56799 0.0
H835 H 0.48059 0.02598 0.80697 0.0
H836 H 0.4877 0.1236 0.53003 0.0
O837 O 0.47356 0.09469 0.44832 0.0
H838 H 0.55721 0.14345 0.52515 0.0
H839 H 0.52223 0.10664 0.28796 0.0
H840 H 0.49935 0.05807 0.4683 0.0
H841 H 0.53212 0.10906 0.51153 0.0
H842 H 0.50555 0.11011 0.38616 0.0
O843 O 0.4732 0.09428 0.73356 0.0
H844 H 0.48486 0.04643 0.70897 0.0
H845 H 0.4486 0.06542 0.79691 0.0
H846 H 0.51606 0.05413 0.37131 0.0
H847 H 0.51233 0.15822 0.54321 0.0
H848 H 0.52772 0.07857 0.28033 0.0
H849 H 0.54736 0.16832 0.54092 0.0
O850 O 0.46836 0.05936 0.50337 0.0
H851 H 0.41055 0.078 0.62995 0.0
H852 H 0.4356 0.03392 0.67992 0.0
H853 H 0.40039 0.02065 0.66982 0.0
H854 H 0.38757 0.04276 0.64525 0.0
H855 H 0.44557 0.09053 0.63883 0.0
H856 H 0.44421 0.04542 0.89625 0.0
H857 H 0.46014 0.02539 0.90157 0.0
O858 O 0.46712 0.05072 0.61021 0.0
C859 C 0.50985 0.08159 0.62911 0.0
C860 C 0.47353 0.03461 0.8052 0.0
C861 C 0.45313 0.04552 0.85531 0.0
N862 N 0.46691 0.05703 0.74687 0.0
C863 C 0.47587 0.04619 0.74975 0.0
C864 C 0.45575 0.05689 0.79898 0.0
C865 C 0.46207 0.03429 0.85826 0.0
C866 C 0.50292 0.12792 0.52861 0.0
N867 N 0.50845 0.11434 0.51988 0.0
C868 C 0.5168 0.14753 0.53625 0.0
C869 C 0.53645 0.15318 0.53503 0.0
C870 C 0.54199 0.13923 0.52622 0.0
C871 C 0.52771 0.11977 0.51874 0.0
C872 C 0.51728 0.09593 0.32739 0.0
C873 C 0.50442 0.06882 0.42911 0.0
C874 C 0.50778 0.09779 0.38306 0.0
N875 N 0.50163 0.0844 0.43333 0.0
C876 C 0.51386 0.06648 0.3742 0.0
C877 C 0.52036 0.08018 0.32313 0.0
C878 C 0.46352 0.04636 0.54829 0.0
C879 C 0.41593 0.06824 0.64156 0.0
C880 C 0.43025 0.0437 0.66924 0.0
C881 C 0.41023 0.03607 0.66362 0.0
C882 C 0.40305 0.04847 0.64988 0.0
N883 N 0.44287 0.06318 0.66199 0.0
C884 C 0.43587 0.07534 0.64754 0.0
Co885 Co 0.74067 0.59088 0.16538 0.0
Co886 Co 0.7362 0.60432 0.00685 0.0
O887 O 0.72452 0.58798 0.08663 0.0
C888 C 0.70541 0.58886 0.22997 0.0
O889 O 0.70475 0.59997 0.1829 0.0
C890 C 0.70192 0.56634 0.95182 0.0
O891 O 0.69738 0.55855 0.01146 0.0
O892 O 0.75554 0.59489 1.00027 0.0
O893 O 0.76398 0.59794 0.10793 0.0
H894 H 0.79245 0.6518 0.86699 0.0
H895 H 0.70322 0.55445 0.14927 0.0
O896 O 0.71824 0.58374 0.22824 0.0
H897 H 0.75282 0.53453 0.15313 0.0
H898 H 0.75523 0.57232 0.3893 0.0
H899 H 0.78053 0.62024 0.20692 0.0
H900 H 0.76224 0.569 0.16507 0.0
H901 H 0.73493 0.56843 0.29114 0.0
O902 O 0.71738 0.58282 0.94343 0.0
H903 H 0.77676 0.63138 0.96547 0.0
H904 H 0.72114 0.61133 0.87911 0.0
H905 H 0.8013 0.62468 0.30398 0.0
H906 H 0.69312 0.51975 0.13776 0.0
H907 H 0.78875 0.60053 0.39592 0.0
H908 H 0.71803 0.50962 0.13955 0.0
O909 O 0.74829 0.61876 0.17195 0.0
H910 H 0.67094 0.59855 0.05117 0.0
H911 H 0.73937 0.64315 0.99324 0.0
H912 H 0.71703 0.65591 1.00422 0.0
H913 H 0.68243 0.63353 0.03279 0.0
H914 H 0.69382 0.58654 0.04129 0.0
H915 H 0.73627 0.63135 0.77936 0.0
H916 H 0.77217 0.65189 0.77302 0.0
O917 O 0.75496 0.62708 0.06458 0.0
C918 C 0.76727 0.59638 0.04669 0.0
C919 C 0.77679 0.64294 0.86921 0.0
C920 C 0.74526 0.63145 0.82001 0.0
N921 N 0.74805 0.62025 0.92838 0.0
C922 C 0.76781 0.63136 0.92492 0.0
C923 C 0.73679 0.62006 0.87655 0.0
C924 C 0.7654 0.64298 0.81649 0.0
C925 C 0.71411 0.55011 0.15041 0.0
N926 N 0.73326 0.56371 0.15786 0.0
C927 C 0.70832 0.53047 0.14374 0.0
C928 C 0.72231 0.52479 0.14468 0.0
C929 C 0.74183 0.53876 0.15226 0.0
C930 C 0.74708 0.55827 0.15876 0.0
C931 C 0.76091 0.58289 0.34941 0.0
C932 C 0.77495 0.60964 0.24655 0.0
C933 C 0.74947 0.58078 0.29374 0.0
N934 N 0.7566 0.59399 0.24291 0.0
C935 C 0.78678 0.61225 0.30149 0.0
C936 C 0.77971 0.59872 0.35311 0.0
C937 C 0.7561 0.6316 0.12644 0.0
C938 C 0.68592 0.60842 0.03776 0.0
C939 C 0.7244 0.63325 0.00557 0.0
C940 C 0.71177 0.6406 0.01171 0.0
C941 C 0.69238 0.62804 0.02771 0.0
N942 N 0.71794 0.6139 0.01438 0.0
C943 C 0.69898 0.60161 0.03118 0.0
Co944 Co 0.42386 0.15203 0.1676 0.0
Co945 Co 0.40839 0.13437 0.00891 0.0
O946 O 0.42529 0.13849 0.08697 0.0
C947 C 0.43197 0.12069 0.22177 0.0
O948 O 0.43116 0.11363 0.16205 0.0
C949 C 0.44608 0.13845 0.95036 0.0
O950 O 0.45424 0.14217 0.00944 0.0
O951 O 0.41827 0.16319 1.00339 0.0
O952 O 0.41773 0.16936 0.11208 0.0
H953 H 0.36033 0.14428 0.87703 0.0
H954 H 0.45953 0.14942 0.14458 0.0
O955 O 0.42965 0.13534 0.22964 0.0
H956 H 0.48205 0.21939 0.15823 0.0
H957 H 0.44451 0.18341 0.39383 0.0
H958 H 0.39679 0.16525 0.21218 0.0
H959 H 0.44734 0.19525 0.17074 0.0
H960 H 0.44688 0.16683 0.29339 0.0
O961 O 0.4293 0.1368 0.94306 0.0
H962 H 0.38133 0.14838 0.9732 0.0
H963 H 0.40014 0.11264 0.87998 0.0
H964 H 0.39397 0.18192 0.31134 0.0
H965 H 0.49437 0.17303 0.13262 0.0
H966 H 0.41799 0.19121 0.40305 0.0
H967 H 0.50587 0.20834 0.13932 0.0
O968 O 0.39574 0.13288 0.17569 0.0
H969 H 0.41323 0.07386 0.03939 0.0
H970 H 0.36898 0.09939 1.00078 0.0
H971 H 0.3556 0.06412 0.00959 0.0
H972 H 0.37779 0.05106 0.02858 0.0
H973 H 0.42589 0.10894 0.03169 0.0
H974 H 0.3795 0.10836 0.78253 0.0
H975 H 0.35933 0.12416 0.78075 0.0
O976 O 0.38625 0.13073 0.06942 0.0
C977 C 0.41812 0.17387 0.05086 0.0
C978 C 0.36903 0.1373 0.87726 0.0
C979 C 0.37982 0.11717 0.82417 0.0
N980 N 0.39193 0.13073 0.93242 0.0
C981 C 0.38093 0.13953 0.93165 0.0
C982 C 0.39155 0.11973 0.87941 0.0
C983 C 0.36849 0.12602 0.82323 0.0
C984 C 0.46437 0.16469 0.14834 0.0
N985 N 0.45135 0.17085 0.15904 0.0
C986 C 0.48415 0.17803 0.14117 0.0
C987 C 0.49059 0.19784 0.14482 0.0
C988 C 0.47723 0.20405 0.15539 0.0
C989 C 0.45757 0.19028 0.16228 0.0
C990 C 0.434 0.17951 0.3541 0.0
C991 C 0.40738 0.16934 0.25155 0.0
C992 C 0.43523 0.17007 0.29716 0.0
N993 N 0.42206 0.16519 0.24659 0.0
C994 C 0.40568 0.17874 0.30775 0.0
C995 C 0.41912 0.18389 0.35925 0.0
C996 C 0.38247 0.12797 0.13192 0.0
C997 C 0.40341 0.07935 0.03069 0.0
C998 C 0.37877 0.09393 0.00946 0.0
C999 C 0.37109 0.07388 0.01418 0.0
C1000 C 0.38353 0.06657 0.02477 0.0
N1001 N 0.39833 0.10644 0.01479 0.0
C1002 C 0.41055 0.09931 0.02574 0.0
Co1003 Co 0.85982 0.27231 0.171 0.0
Co1004 Co 0.87809 0.27676 0.01293 0.0
O1005 O 0.87354 0.28848 0.09284 0.0
C1006 C 0.89372 0.30625 0.2379 0.0
O1007 O 0.90536 0.30602 0.19201 0.0
C1008 C 0.87521 0.31159 0.9585 0.0
O1009 O 0.87197 0.3161 0.0182 0.0
O1010 O 0.84926 0.25783 0.00527 0.0
O1011 O 0.84328 0.24929 0.11273 0.0
H1012 H 0.86856 0.22048 0.87151 0.0
H1013 H 0.86208 0.31036 0.15613 0.0
O1014 O 0.87549 0.29445 0.23453 0.0
H1015 H 0.79209 0.26217 0.15694 0.0
H1016 H 0.82604 0.25801 0.39367 0.0
H1017 H 0.84797 0.232 0.21132 0.0
H1018 H 0.8164 0.25178 0.16913 0.0
H1019 H 0.8434 0.27843 0.29676 0.0
O1020 O 0.876 0.29601 0.94985 0.0
H1021 H 0.86395 0.23617 0.97029 0.0
H1022 H 0.90065 0.29185 0.88612 0.0
H1023 H 0.83044 0.211 0.30675 0.0
H1024 H 0.83824 0.32143 0.14437 0.0
H1025 H 0.81927 0.22395 0.39875 0.0
H1026 H 0.80296 0.29724 0.14463 0.0
O1027 O 0.87951 0.26397 0.1778 0.0
H1028 H 0.93824 0.34127 0.06004 0.0
H1029 H 0.91325 0.27269 1.00093 0.0
H1030 H 0.94843 0.29444 0.0135 0.0
H1031 H 0.96122 0.32909 0.04271 0.0
H1032 H 0.90326 0.31899 0.04839 0.0
H1033 H 0.90544 0.27674 0.78608 0.0
H1034 H 0.88943 0.2408 0.77848 0.0
O1035 O 0.88151 0.25759 0.07035 0.0
C1036 C 0.8387 0.24612 0.05123 0.0
C1037 C 0.87564 0.23615 0.87427 0.0
C1038 C 0.89632 0.26772 0.82631 0.0
N1039 N 0.88211 0.26491 0.93431 0.0
C1040 C 0.87311 0.24513 0.93016 0.0
C1041 C 0.89348 0.2762 0.88301 0.0
C1042 C 0.88734 0.24756 0.82209 0.0
C1043 C 0.84674 0.29978 0.1566 0.0
N1044 N 0.84065 0.28048 0.16332 0.0
C1045 C 0.83332 0.30612 0.14979 0.0
C1046 C 0.81353 0.29253 0.14987 0.0
C1047 C 0.80742 0.27286 0.15673 0.0
C1048 C 0.82126 0.26706 0.16338 0.0
C1049 C 0.83077 0.25217 0.35377 0.0
C1050 C 0.84308 0.23773 0.25091 0.0
C1051 C 0.84065 0.26368 0.29883 0.0
N1052 N 0.8465 0.25635 0.24795 0.0
C1053 C 0.8332 0.22578 0.30497 0.0
C1054 C 0.82697 0.23307 0.35661 0.0
C1055 C 0.88466 0.25626 0.13228 0.0
C1056 C 0.93288 0.32627 0.0463 0.0
C1057 C 0.91859 0.28772 0.01332 0.0
C1058 C 0.93859 0.29999 0.02046 0.0
C1059 C 0.94576 0.31942 0.03684 0.0
N1060 N 0.90599 0.29457 0.02149 0.0
C1061 C 0.91297 0.31356 0.03872 0.0
Co1062 Co 0.4239 0.27454 0.1671 0.0
Co1063 Co 0.40766 0.27649 0.00992 0.0
O1064 O 0.42463 0.2891 0.08708 0.0
C1065 C 0.42158 0.30781 0.22738 0.0
O1066 O 0.40707 0.30364 0.18677 0.0
C1067 C 0.44525 0.31023 0.95266 0.0
O1068 O 0.45335 0.31442 0.01181 0.0
O1069 O 0.41734 0.25735 1.00374 0.0
O1070 O 0.41793 0.25101 0.11246 0.0
H1071 H 0.35916 0.21879 0.8779 0.0
H1072 H 0.45851 0.31341 0.14678 0.0
O1073 O 0.43001 0.29774 0.22519 0.0
H1074 H 0.48343 0.26773 0.15084 0.0
H1075 H 0.44683 0.26621 0.39227 0.0
H1076 H 0.39837 0.23416 0.21416 0.0
H1077 H 0.4485 0.25591 0.16557 0.0
H1078 H 0.44769 0.2843 0.29127 0.0
O1079 O 0.42856 0.29503 0.94447 0.0
H1080 H 0.3803 0.23552 0.97404 0.0
H1081 H 0.39952 0.2902 0.88135 0.0
H1082 H 0.39705 0.21551 0.31396 0.0
H1083 H 0.49361 0.3259 0.13252 0.0
H1084 H 0.42144 0.2315 0.40388 0.0
H1085 H 0.50627 0.30298 0.13432 0.0
O1086 O 0.39557 0.26466 0.1769 0.0
H1087 H 0.41293 0.3416 0.05224 0.0
H1088 H 0.36854 0.27271 0.99912 0.0
H1089 H 0.35544 0.29476 0.01161 0.0
H1090 H 0.3777 0.32955 0.038 0.0
H1091 H 0.42533 0.31907 0.04053 0.0
H1092 H 0.37878 0.27402 0.78391 0.0
H1093 H 0.35832 0.23807 0.7819 0.0
O1094 O 0.38562 0.25811 0.07061 0.0
C1095 C 0.41779 0.24675 0.05103 0.0
C1096 C 0.36798 0.23447 0.87824 0.0
C1097 C 0.37902 0.26546 0.82544 0.0
N1098 N 0.39108 0.26382 0.93353 0.0
C1099 C 0.37994 0.24403 0.93263 0.0
C1100 C 0.39081 0.27453 0.88066 0.0
C1101 C 0.36753 0.24529 0.82437 0.0
C1102 C 0.46392 0.30336 0.14789 0.0
N1103 N 0.45145 0.28396 0.15671 0.0
C1104 C 0.4838 0.31051 0.13967 0.0
C1105 C 0.49089 0.29764 0.14063 0.0
C1106 C 0.47809 0.27787 0.14981 0.0
C1107 C 0.4583 0.27124 0.15782 0.0
C1108 C 0.43614 0.25906 0.35338 0.0
C1109 C 0.40909 0.24122 0.25285 0.0
C1110 C 0.4365 0.26925 0.29618 0.0
N1111 N 0.42312 0.26028 0.24668 0.0
C1112 C 0.40825 0.23058 0.30937 0.0
C1113 C 0.4219 0.23958 0.35986 0.0
C1114 C 0.38212 0.25663 0.13338 0.0
C1115 C 0.4031 0.32652 0.0399 0.0
C1116 C 0.37839 0.2878 0.01031 0.0
C1117 C 0.37085 0.30024 0.01737 0.0
C1118 C 0.38334 0.31975 0.03215 0.0
N1119 N 0.39785 0.29455 0.01712 0.0
C1120 C 0.41011 0.31365 0.03241 0.0
Co1121 Co 0.73779 0.13374 0.99906 0.0
Co1122 Co 0.73686 0.14943 0.15661 0.0
O1123 O 0.72343 0.13641 0.07411 0.0
C1124 C 0.7071 0.14085 0.9304 0.0
O1125 O 0.70846 0.15342 0.97556 0.0
C1126 C 0.7114 0.12144 0.26149 0.0
O1127 O 0.72681 0.12081 0.28143 0.0
O1128 O 0.74678 0.13086 0.16556 0.0
O1129 O 0.75689 0.13189 0.06101 0.0
H1130 H 0.79391 0.17952 0.31261 0.0
H1131 H 0.69559 0.10713 0.01865 0.0
O1132 O 0.71845 0.1338 0.9327 0.0
H1133 H 0.72386 0.06446 1.00229 0.0
H1134 H 0.74513 0.10861 0.77628 0.0
H1135 H 0.77959 0.15165 0.96579 0.0
H1136 H 0.7446 0.09993 0.99277 0.0
H1137 H 0.72691 0.11115 0.87125 0.0
O1138 O 0.71257 0.1314 0.2097 0.0
H1139 H 0.77623 0.16276 0.21051 0.0
H1140 H 0.72603 0.16344 0.27897 0.0
H1141 H 0.7984 0.1494 0.87217 0.0
H1142 H 0.67425 0.0717 0.02771 0.0
H1143 H 0.78117 0.12774 0.77647 0.0
H1144 H 0.68835 0.05007 0.01949 0.0
O1145 O 0.75506 0.16289 0.99575 0.0
H1146 H 0.68578 0.1676 0.11286 0.0
H1147 H 0.75504 0.19264 0.16229 0.0
H1148 H 0.74308 0.21565 0.1476 0.0
H1149 H 0.70819 0.20316 0.12311 0.0
H1150 H 0.69843 0.14512 0.12678 0.0
H1151 H 0.74312 0.18006 0.38219 0.0
H1152 H 0.77736 0.18833 0.3993 0.0
O1153 O 0.76108 0.16785 0.10555 0.0
C1154 C 0.75667 0.12762 0.12257 0.0
C1155 C 0.77901 0.17603 0.30569 0.0
C1156 C 0.7505 0.17633 0.34474 0.0
N1157 N 0.75014 0.16218 0.23861 0.0
C1158 C 0.76892 0.16655 0.24792 0.0
C1159 C 0.74089 0.16688 0.28626 0.0
C1160 C 0.76971 0.18096 0.35432 0.0
C1161 C 0.70187 0.09785 0.01489 0.0
N1162 N 0.72137 0.10567 1.00476 0.0
C1163 C 0.68969 0.07778 0.02013 0.0
C1164 C 0.69761 0.06566 0.01552 0.0
C1165 C 0.71752 0.07372 0.00587 0.0
C1166 C 0.72924 0.09385 1.00075 0.0
C1167 C 0.75281 0.11811 0.81765 0.0
C1168 C 0.77194 0.1422 0.92439 0.0
C1169 C 0.74254 0.11969 0.87148 0.0
N1170 N 0.75212 0.13152 0.92424 0.0
C1171 C 0.7827 0.14099 0.87147 0.0
C1172 C 0.77303 0.12884 0.8178 0.0
C1173 C 0.76542 0.17324 0.04481 0.0
C1174 C 0.70099 0.17322 0.12382 0.0
C1175 C 0.73986 0.18709 0.15124 0.0
C1176 C 0.73316 0.20019 0.14318 0.0
C1177 C 0.71358 0.19317 0.12947 0.0
N1178 N 0.72739 0.16753 0.14606 0.0
C1179 C 0.70822 0.16056 0.13211 0.0
Co1180 Co 0.86115 0.59002 0.16661 0.0
Co1181 Co 0.87996 0.60603 0.0101 0.0
O1182 O 0.87532 0.58916 0.08769 0.0
C1183 C 0.89648 0.59268 0.22963 0.0
O1184 O 0.90689 0.60722 0.18922 0.0
C1185 C 0.87703 0.56861 0.95352 0.0
O1186 O 0.8739 0.56072 0.01293 0.0
O1187 O 0.85115 0.59621 1.00224 0.0
O1188 O 0.84382 0.59594 0.1104 0.0
H1189 H 0.87085 0.65397 0.8743 0.0
H1190 H 0.86544 0.5554 0.14756 0.0
O1191 O 0.87799 0.584 0.22622 0.0
H1192 H 0.79484 0.5305 0.14885 0.0
H1193 H 0.82903 0.56749 0.39075 0.0
H1194 H 0.8464 0.61582 0.21158 0.0
H1195 H 0.81792 0.56544 0.16369 0.0
H1196 H 0.84646 0.56633 0.29073 0.0
O1197 O 0.87796 0.58507 0.94561 0.0
H1198 H 0.86637 0.63323 0.97171 0.0
H1199 H 0.90226 0.61398 0.88257 0.0
H1200 H 0.82897 0.6175 0.31054 0.0
H1201 H 0.84286 0.52029 0.13316 0.0
H1202 H 0.82006 0.59316 0.40094 0.0
H1203 H 0.80728 0.50764 0.13361 0.0
O1204 O 0.87957 0.61833 0.17637 0.0
H1205 H 0.94004 0.60166 0.05875 0.0
H1206 H 0.91512 0.64526 0.99912 0.0
H1207 H 0.95025 0.65875 0.01357 0.0
H1208 H 0.963 0.63689 0.04324 0.0
H1209 H 0.90512 0.58887 0.04495 0.0
H1210 H 0.90685 0.63425 0.78381 0.0
H1211 H 0.89119 0.65453 0.77938 0.0
O1212 O 0.88325 0.62812 0.06989 0.0
C1213 C 0.83993 0.59589 0.04865 0.0
C1214 C 0.87779 0.64523 0.8757 0.0
C1215 C 0.89797 0.63414 0.82487 0.0
N1216 N 0.88409 0.62245 0.93305 0.0
C1217 C 0.87535 0.6335 0.93083 0.0
C1218 C 0.89522 0.6226 0.88083 0.0
C1219 C 0.88918 0.64552 0.82243 0.0
C1220 C 0.84998 0.54999 0.14805 0.0
N1221 N 0.84303 0.56246 0.15625 0.0
C1222 C 0.83726 0.5301 0.13977 0.0
C1223 C 0.8173 0.52302 0.13997 0.0
C1224 C 0.81032 0.53583 0.14845 0.0
C1225 C 0.82347 0.55562 0.15655 0.0
C1226 C 0.83278 0.57815 0.35162 0.0
C1227 C 0.84253 0.60513 0.25051 0.0
C1228 C 0.8427 0.5776 0.29495 0.0
N1229 N 0.84738 0.59095 0.24516 0.0
C1230 C 0.83267 0.60617 0.30653 0.0
C1231 C 0.82773 0.59254 0.35729 0.0
C1232 C 0.88513 0.63172 0.13261 0.0
C1233 C 0.9347 0.6113 0.04487 0.0
C1234 C 0.92045 0.63556 0.01155 0.0
C1235 C 0.94042 0.64333 0.01978 0.0
C1236 C 0.94757 0.63107 0.03643 0.0
N1237 N 0.90785 0.61608 0.01891 0.0
C1238 C 0.91482 0.60406 0.03612 0.0
Co1239 Co 0.61016 0.08826 0.5096 0.0
Co1240 Co 0.61224 0.07176 0.66411 0.0
O1241 O 0.62527 0.08928 0.5885 0.0
C1242 C 0.64458 0.08861 0.44487 0.0
O1243 O 0.64174 0.07423 0.48422 0.0
C1244 C 0.64291 0.10945 0.73441 0.0
O1245 O 0.64041 0.12096 0.69381 0.0
O1246 O 0.59456 0.08305 0.67407 0.0
O1247 O 0.58656 0.08126 0.56603 0.0
H1248 H 0.55398 0.02572 0.79934 0.0
H1249 H 0.64817 0.1235 0.53408 0.0
O1250 O 0.63342 0.09581 0.44954 0.0
H1251 H 0.60061 0.14609 0.53122 0.0
H1252 H 0.59868 0.11162 0.28996 0.0
H1253 H 0.57033 0.06072 0.46233 0.0
H1254 H 0.59006 0.11155 0.51307 0.0
H1255 H 0.61769 0.11318 0.38926 0.0
O1256 O 0.63226 0.09103 0.72906 0.0
H1257 H 0.57108 0.04726 0.70464 0.0
H1258 H 0.6254 0.05973 0.78595 0.0
H1259 H 0.55073 0.05869 0.36434 0.0
H1260 H 0.6594 0.15826 0.55166 0.0
H1261 H 0.56487 0.08428 0.27729 0.0
H1262 H 0.63553 0.16974 0.55042 0.0
O1263 O 0.60143 0.06006 0.4981 0.0
H1264 H 0.67596 0.07492 0.61973 0.0
H1265 H 0.60624 0.03141 0.66305 0.0
H1266 H 0.62734 0.0174 0.64468 0.0
H1267 H 0.66253 0.03922 0.62314 0.0
H1268 H 0.65426 0.08828 0.6377 0.0
H1269 H 0.60892 0.03846 0.8818 0.0
H1270 H 0.57291 0.02116 0.88882 0.0
O1271 O 0.59253 0.05087 0.60341 0.0
C1272 C 0.58321 0.08252 0.62764 0.0
C1273 C 0.56967 0.03317 0.79689 0.0
C1274 C 0.6005 0.04032 0.84316 0.0
N1275 N 0.59926 0.05476 0.73946 0.0
C1276 C 0.57946 0.04542 0.74333 0.0
C1277 C 0.60978 0.05244 0.78882 0.0
C1278 C 0.5803 0.03062 0.84705 0.0
C1279 C 0.63773 0.12843 0.53292 0.0
N1280 N 0.61852 0.11553 0.52221 0.0
C1281 C 0.64416 0.14811 0.54314 0.0
C1282 C 0.63075 0.15453 0.54253 0.0
C1283 C 0.61116 0.14127 0.53181 0.0
C1284 C 0.60526 0.12171 0.52177 0.0
C1285 C 0.59236 0.10036 0.32749 0.0
C1286 C 0.57662 0.07191 0.42471 0.0
C1287 C 0.60311 0.1011 0.3836 0.0
N1288 N 0.59519 0.08702 0.43144 0.0
C1289 C 0.56543 0.07068 0.3693 0.0
C1290 C 0.57338 0.08503 0.32045 0.0
C1291 C 0.59236 0.04682 0.54163 0.0
C1292 C 0.66067 0.06525 0.62926 0.0
C1293 C 0.62147 0.041 0.65339 0.0
C1294 C 0.63339 0.03299 0.6432 0.0
C1295 C 0.65312 0.04523 0.63112 0.0
N1296 N 0.62898 0.06067 0.65193 0.0
C1297 C 0.6483 0.07274 0.63962 0.0
Co1298 Co 0.94173 0.5424 0.67608 0.0
Co1299 Co 0.92526 0.53162 0.514 0.0
O1300 O 0.92589 0.54286 0.60132 0.0
C1301 C 0.90458 0.53845 0.73646 0.0
O1302 O 0.89653 0.53489 0.67737 0.0
C1303 C 0.93158 0.56281 0.41829 0.0
O1304 O 0.94683 0.56197 0.39793 0.0
O1305 O 0.95409 0.54804 0.50829 0.0
O1306 O 0.96351 0.54675 0.61272 0.0
H1307 H 0.94977 0.50425 0.33779 0.0
H1308 H 0.92718 0.57062 0.66714 0.0
O1309 O 0.92107 0.53945 0.74414 0.0
H1310 H 0.99766 0.61061 0.70444 0.0
H1311 H 0.96965 0.55771 0.90835 0.0
H1312 H 0.9662 0.52445 0.69703 0.0
H1313 H 0.9821 0.57503 0.69734 0.0
H1314 H 0.95038 0.55891 0.81416 0.0
O1315 O 0.92193 0.55261 0.46855 0.0
H1316 H 0.94922 0.51741 0.44851 0.0
H1317 H 0.90033 0.52223 0.39214 0.0
H1318 H 0.9858 0.52306 0.78979 0.0
H1319 H 0.94205 0.60603 0.67533 0.0
H1320 H 0.98761 0.53977 0.89641 0.0
H1321 H 0.97758 0.62638 0.69396 0.0
O1322 O 0.93 0.51315 0.66749 0.0
H1323 H 0.85792 0.52028 0.55286 0.0
H1324 H 0.89646 0.48918 0.49887 0.0
H1325 H 0.86097 0.46903 0.50894 0.0
H1326 H 0.84138 0.48458 0.53582 0.0
H1327 H 0.89354 0.53982 0.54368 0.0
H1328 H 0.90017 0.50886 0.28117 0.0
H1329 H 0.92506 0.49981 0.25327 0.0
O1330 O 0.9283 0.51035 0.55638 0.0
C1331 C 0.96724 0.55091 0.55073 0.0
C1332 C 0.93885 0.50813 0.3493 0.0
C1333 C 0.91099 0.51067 0.31761 0.0
N1334 N 0.92475 0.52055 0.42699 0.0
C1335 C 0.93849 0.51564 0.41188 0.0
C1336 C 0.91112 0.51818 0.38066 0.0
C1337 C 0.92497 0.50563 0.30195 0.0
C1338 C 0.94255 0.57917 0.67653 0.0
N1339 N 0.95361 0.57053 0.68328 0.0
C1340 C 0.95094 0.59933 0.68056 0.0
C1341 C 0.97087 0.61074 0.69087 0.0
C1342 C 0.98214 0.60191 0.69674 0.0
C1343 C 0.97323 0.58171 0.69257 0.0
C1344 C 0.96897 0.55037 0.86214 0.0
C1345 C 0.96698 0.53184 0.74314 0.0
C1346 C 0.95801 0.55092 0.80869 0.0
N1347 N 0.9572 0.5418 0.74998 0.0
C1348 C 0.97807 0.53096 0.79556 0.0
C1349 C 0.97906 0.54032 0.85539 0.0
C1350 C 0.92828 0.50349 0.6141 0.0
C1351 C 0.86629 0.51332 0.54118 0.0
C1352 C 0.88816 0.49604 0.51173 0.0
C1353 C 0.868 0.48456 0.51681 0.0
C1354 C 0.85702 0.49329 0.53173 0.0
N1355 N 0.89718 0.51567 0.5213 0.0
C1356 C 0.88648 0.52432 0.53566 0.0
Co1357 Co 0.48239 0.39843 0.51224 0.0
Co1358 Co 0.47053 0.40106 0.67522 0.0
O1359 O 0.47092 0.38607 0.5977 0.0
C1360 C 0.45207 0.37366 0.4133 0.0
O1361 O 0.45227 0.38958 0.39458 0.0
C1362 C 0.47336 0.36671 0.73233 0.0
O1363 O 0.47469 0.36095 0.67232 0.0
O1364 O 0.49967 0.41876 0.66918 0.0
O1365 O 0.50272 0.42252 0.55842 0.0
H1366 H 0.489 0.46263 0.8005 0.0
H1367 H 0.47634 0.35905 0.5371 0.0
O1368 O 0.46241 0.37427 0.46317 0.0
H1369 H 0.54688 0.40071 0.50381 0.0
H1370 H 0.50738 0.40144 0.27884 0.0
H1371 H 0.49604 0.4376 0.45607 0.0
H1372 H 0.52517 0.41439 0.49634 0.0
H1373 H 0.49295 0.3857 0.38612 0.0
O1374 O 0.47353 0.38281 0.7402 0.0
H1375 H 0.48813 0.4431 0.70377 0.0
H1376 H 0.45314 0.3911 0.81198 0.0
H1377 H 0.51059 0.45392 0.34968 0.0
H1378 H 0.49749 0.34468 0.54404 0.0
H1379 H 0.51636 0.43581 0.26014 0.0
H1380 H 0.53306 0.36558 0.52757 0.0
O1381 O 0.46486 0.40963 0.5093 0.0
H1382 H 0.40696 0.3377 0.66073 0.0
H1383 H 0.43757 0.40805 0.70054 0.0
H1384 H 0.40202 0.38787 0.70453 0.0
H1385 H 0.38641 0.35233 0.68514 0.0
H1386 H 0.44234 0.35842 0.65582 0.0
H1387 H 0.45386 0.41008 0.91013 0.0
H1388 H 0.47179 0.44612 0.90467 0.0
O1389 O 0.46638 0.41921 0.61529 0.0
C1390 C 0.50935 0.42798 0.61737 0.0
C1391 C 0.4811 0.44694 0.80345 0.0
C1392 C 0.4614 0.41745 0.865 0.0
N1393 N 0.47053 0.41597 0.75197 0.0
C1394 C 0.48051 0.43579 0.74876 0.0
C1395 C 0.46113 0.40677 0.80931 0.0
C1396 C 0.47145 0.43767 0.86189 0.0
C1397 C 0.49178 0.36823 0.52961 0.0
N1398 N 0.49949 0.38757 0.51678 0.0
C1399 C 0.5037 0.36001 0.53372 0.0
C1400 C 0.52365 0.37175 0.52455 0.0
C1401 C 0.53142 0.39146 0.51132 0.0
C1402 C 0.51905 0.39917 0.50761 0.0
C1403 C 0.50496 0.40949 0.31748 0.0
C1404 C 0.4985 0.42962 0.41738 0.0
C1405 C 0.49678 0.40065 0.37833 0.0
N1406 N 0.49367 0.41073 0.42742 0.0
C1407 C 0.50675 0.43894 0.35723 0.0
C1408 C 0.50998 0.42877 0.30702 0.0
C1409 C 0.46188 0.4193 0.55399 0.0
C1410 C 0.41359 0.35313 0.67004 0.0
C1411 C 0.43102 0.39266 0.69207 0.0
C1412 C 0.41081 0.38127 0.69443 0.0
C1413 C 0.40206 0.36135 0.68354 0.0
N1414 N 0.44233 0.38451 0.67987 0.0
C1415 C 0.43376 0.365 0.668 0.0
Co1416 Co 0.59263 0.73562 0.84321 0.0
Co1417 Co 0.60755 0.73443 1.00289 0.0
O1418 O 0.59103 0.7209 0.92472 0.0
C1419 C 0.58704 0.69736 0.78828 0.0
O1420 O 0.59313 0.69351 0.84382 0.0
C1421 C 0.57042 0.69992 0.06205 0.0
O1422 O 0.56265 0.69439 1.00267 0.0
O1423 O 0.59692 0.75286 0.00546 0.0
O1424 O 0.59931 0.75948 0.89664 0.0
H1425 H 0.65378 0.79374 0.13331 0.0
H1426 H 0.55708 0.69777 0.86616 0.0
O1427 O 0.58599 0.71277 0.78289 0.0
H1428 H 0.53482 0.74548 0.85341 0.0
H1429 H 0.57147 0.74619 0.61772 0.0
H1430 H 0.62063 0.77526 0.79536 0.0
H1431 H 0.56947 0.75586 0.83988 0.0
H1432 H 0.56911 0.72743 0.71858 0.0
O1433 O 0.58664 0.71583 0.06874 0.0
H1434 H 0.63374 0.77589 0.03633 0.0
H1435 H 0.61566 0.72218 0.13458 0.0
H1436 H 0.62337 0.79464 0.69587 0.0
H1437 H 0.52223 0.68671 0.87931 0.0
H1438 H 0.59865 0.78012 0.60615 0.0
H1439 H 0.5109 0.71067 0.87306 0.0
O1440 O 0.6206 0.74393 0.83558 0.0
H1441 H 0.60548 0.67013 0.97805 0.0
H1442 H 0.64744 0.74039 0.01573 0.0
H1443 H 0.6619 0.71935 0.01391 0.0
H1444 H 0.6409 0.68391 0.99518 0.0
H1445 H 0.59165 0.69162 0.97996 0.0
H1446 H 0.63528 0.73947 0.23288 0.0
H1447 H 0.65461 0.77551 0.23258 0.0
O1448 O 0.62966 0.75291 0.94185 0.0
C1449 C 0.59799 0.76378 0.95687 0.0
C1450 C 0.64544 0.77803 0.134 0.0
C1451 C 0.63504 0.74758 0.18993 0.0
N1452 N 0.62354 0.74801 0.07959 0.0
C1453 C 0.6341 0.76784 0.07915 0.0
C1454 C 0.62387 0.73787 0.13418 0.0
C1455 C 0.64589 0.7678 0.18971 0.0
C1456 C 0.55224 0.70824 0.86296 0.0
N1457 N 0.56529 0.7274 0.85207 0.0
C1458 C 0.5325 0.70191 0.87062 0.0
C1459 C 0.52616 0.71536 0.86719 0.0
C1460 C 0.53957 0.7349 0.85621 0.0
C1461 C 0.55919 0.7407 0.8488 0.0
C1462 C 0.5823 0.7527 0.65656 0.0
C1463 C 0.60975 0.76887 0.7568 0.0
C1464 C 0.58107 0.74213 0.71375 0.0
N1465 N 0.59461 0.7503 0.76329 0.0
C1466 C 0.61142 0.7799 0.70043 0.0
C1467 C 0.59755 0.77174 0.65009 0.0
C1468 C 0.63359 0.75272 0.87991 0.0
C1469 C 0.61476 0.68552 0.98709 0.0
C1470 C 0.63808 0.72496 0.00824 0.0
C1471 C 0.64641 0.71312 0.00713 0.0
C1472 C 0.63463 0.69325 0.99654 0.0
N1473 N 0.61849 0.71726 1.00013 0.0
C1474 C 0.60694 0.69781 0.98888 0.0
Co1475 Co 0.27673 0.85906 0.83799 0.0
Co1476 Co 0.27935 0.87522 0.99856 0.0
O1477 O 0.29207 0.87191 0.91873 0.0
C1478 C 0.31632 0.89013 0.78364 0.0
O1479 O 0.32282 0.89683 0.84352 0.0
C1480 C 0.314 0.87233 0.05354 0.0
O1481 O 0.31871 0.86942 0.99368 0.0
O1482 O 0.26096 0.84624 1.00206 0.0
O1483 O 0.25332 0.84155 0.89367 0.0
H1484 H 0.2214 0.86272 0.13607 0.0
H1485 H 0.31467 0.86077 0.85866 0.0
O1486 O 0.29914 0.87582 0.77576 0.0
H1487 H 0.26635 0.79118 0.8391 0.0
H1488 H 0.26449 0.82858 0.60979 0.0
H1489 H 0.2366 0.84726 0.79547 0.0
H1490 H 0.25634 0.81583 0.83037 0.0
H1491 H 0.28404 0.84455 0.7098 0.0
O1492 O 0.29837 0.873 0.0622 0.0
H1493 H 0.23824 0.85964 0.03775 0.0
H1494 H 0.29293 0.89653 0.12821 0.0
H1495 H 0.21644 0.83099 0.69702 0.0
H1496 H 0.32535 0.83664 0.86684 0.0
H1497 H 0.23036 0.82149 0.60326 0.0
H1498 H 0.3011 0.80152 0.85715 0.0
O1499 O 0.26823 0.87866 0.83368 0.0
H1500 H 0.3437 0.93695 0.96707 0.0
H1501 H 0.27394 0.90954 0.01201 0.0
H1502 H 0.29505 0.94495 1.005 0.0
H1503 H 0.33029 0.95896 0.98287 0.0
H1504 H 0.32203 0.90172 0.97307 0.0
H1505 H 0.27665 0.8998 0.22781 0.0
H1506 H 0.24063 0.88293 0.23203 0.0
O1507 O 0.26028 0.87865 0.94065 0.0
C1508 C 0.2497 0.83617 0.95443 0.0
C1509 C 0.2371 0.87017 0.1348 0.0
C1510 C 0.26811 0.89096 0.18629 0.0
N1511 N 0.26656 0.87797 0.07693 0.0
C1512 C 0.24673 0.8685 0.07919 0.0
C1513 C 0.27725 0.88898 0.12982 0.0
C1514 C 0.2479 0.8815 0.18862 0.0
C1515 C 0.30406 0.84559 0.85354 0.0
N1516 N 0.28496 0.83982 0.8432 0.0
C1517 C 0.31018 0.83195 0.85859 0.0
C1518 C 0.29656 0.81225 0.85327 0.0
C1519 C 0.27707 0.80644 0.84316 0.0
C1520 C 0.2715 0.82049 0.83838 0.0
C1521 C 0.25824 0.83257 0.65042 0.0
C1522 C 0.24273 0.84305 0.75518 0.0
C1523 C 0.26925 0.84168 0.70712 0.0
N1524 N 0.2614 0.84664 0.75889 0.0
C1525 C 0.23126 0.8339 0.69939 0.0
C1526 C 0.23909 0.82861 0.64678 0.0
C1527 C 0.25965 0.88274 0.87924 0.0
C1528 C 0.32839 0.93104 0.97726 0.0
C1529 C 0.28919 0.9154 1.0021 0.0
C1530 C 0.30111 0.93553 0.99835 0.0
C1531 C 0.32087 0.94338 0.98597 0.0
N1532 N 0.29666 0.90331 0.99418 0.0
C1533 C 0.316 0.91097 0.98131 0.0
Co1534 Co 0.15396 0.42131 0.85426 0.0
Co1535 Co 0.13418 0.40429 0.00863 0.0
O1536 O 0.13949 0.42215 0.9328 0.0
C1537 C 0.12328 0.42968 0.79566 0.0
O1538 O 0.11516 0.42802 0.854 0.0
C1539 C 0.14391 0.44241 0.08195 0.0
O1540 O 0.15909 0.45314 0.04434 0.0
O1541 O 0.16298 0.4145 0.02006 0.0
O1542 O 0.17051 0.41474 0.91217 0.0
H1543 H 0.14246 0.35545 0.14208 0.0
H1544 H 0.15099 0.45654 0.88106 0.0
O1545 O 0.13821 0.42773 0.79021 0.0
H1546 H 0.22113 0.4794 0.87425 0.0
H1547 H 0.18797 0.44343 0.63267 0.0
H1548 H 0.16742 0.39436 0.81079 0.0
H1549 H 0.19721 0.44485 0.85623 0.0
H1550 H 0.17055 0.44537 0.73144 0.0
O1551 O 0.13425 0.42402 0.0736 0.0
H1552 H 0.14833 0.37758 0.04777 0.0
H1553 H 0.10938 0.39384 0.13098 0.0
H1554 H 0.18481 0.39191 0.71309 0.0
H1555 H 0.1744 0.49125 0.89857 0.0
H1556 H 0.19531 0.4166 0.62319 0.0
H1557 H 0.20978 0.5029 0.89531 0.0
O1558 O 0.13481 0.39327 0.84246 0.0
H1559 H 0.07486 0.4103 0.97249 0.0
H1560 H 0.09906 0.3646 1.00281 0.0
H1561 H 0.06408 0.35184 0.98529 0.0
H1562 H 0.05174 0.37477 0.97021 0.0
H1563 H 0.10978 0.42241 0.98907 0.0
H1564 H 0.10325 0.37203 0.22645 0.0
H1565 H 0.11978 0.35257 0.23232 0.0
O1566 O 0.13222 0.38299 0.94759 0.0
C1567 C 0.17434 0.41485 0.974 0.0
C1568 C 0.13515 0.36384 0.14005 0.0
C1569 C 0.11317 0.37316 0.18745 0.0
N1570 N 0.1292 0.38699 0.08366 0.0
C1571 C 0.1384 0.37638 0.0867 0.0
C1572 C 0.11677 0.38556 0.13334 0.0
C1573 C 0.12244 0.36224 0.19069 0.0
C1574 C 0.16632 0.4615 0.87855 0.0
N1575 N 0.17266 0.44869 0.86645 0.0
C1576 C 0.17953 0.48118 0.88895 0.0
C1577 C 0.19938 0.4877 0.88725 0.0
C1578 C 0.20576 0.47453 0.87544 0.0
C1579 C 0.19212 0.45497 0.8653 0.0
C1580 C 0.18355 0.43263 0.67163 0.0
C1581 C 0.17202 0.40524 0.77216 0.0
C1582 C 0.17365 0.43362 0.72763 0.0
N1583 N 0.16808 0.42007 0.77717 0.0
C1584 C 0.18185 0.40375 0.71684 0.0
C1585 C 0.18768 0.41758 0.66635 0.0
C1586 C 0.12971 0.37964 0.88491 0.0
C1587 C 0.08005 0.40016 0.97885 0.0
C1588 C 0.09388 0.37466 0.99531 0.0
C1589 C 0.07401 0.36735 0.98588 0.0
C1590 C 0.06709 0.38022 0.97753 0.0
N1591 N 0.10653 0.39423 0.99627 0.0
C1592 C 0.09982 0.40693 0.98835 0.0
Co1593 Co 0.40639 0.92317 0.49383 0.0
Co1594 Co 0.40321 0.93896 0.33751 0.0
O1595 O 0.39087 0.92157 0.41467 0.0
C1596 C 0.36947 0.91871 0.55537 0.0
O1597 O 0.36743 0.92827 0.50576 0.0
C1598 C 0.36977 0.90136 0.27661 0.0
O1599 O 0.36472 0.89292 0.33516 0.0
O1600 O 0.4225 0.92958 0.32954 0.0
O1601 O 0.43004 0.93075 0.4375 0.0
H1602 H 0.46048 0.98821 0.20561 0.0
H1603 H 0.36884 0.88723 0.47213 0.0
O1604 O 0.38365 0.91548 0.55609 0.0
H1605 H 0.41787 0.86654 0.47323 0.0
H1606 H 0.41898 0.90172 0.71559 0.0
H1607 H 0.44626 0.9514 0.53905 0.0
H1608 H 0.42756 0.90092 0.49016 0.0
H1609 H 0.39951 0.89917 0.61648 0.0
O1610 O 0.38492 0.91822 0.27107 0.0
H1611 H 0.44404 0.96685 0.30151 0.0
H1612 H 0.38914 0.94733 0.21012 0.0
H1613 H 0.46619 0.9545 0.63719 0.0
H1614 H 0.35846 0.85262 0.4556 0.0
H1615 H 0.45262 0.92949 0.72628 0.0
H1616 H 0.38308 0.8421 0.45599 0.0
O1617 O 0.4142 0.95097 0.50469 0.0
H1618 H 0.33747 0.93273 0.37476 0.0
H1619 H 0.40681 0.97804 0.3317 0.0
H1620 H 0.38442 0.99077 0.34306 0.0
H1621 H 0.3494 0.96805 0.3642 0.0
H1622 H 0.36038 0.92072 0.36464 0.0
H1623 H 0.40502 0.96825 0.11286 0.0
H1624 H 0.44095 0.98898 0.11031 0.0
O1625 O 0.42152 0.96098 0.39888 0.0
C1626 C 0.43378 0.93016 0.37603 0.0
C1627 C 0.44482 0.97928 0.20619 0.0
C1628 C 0.4137 0.96805 0.15409 0.0
N1629 N 0.41564 0.95588 0.26163 0.0
C1630 C 0.43542 0.96718 0.26045 0.0
C1631 C 0.40479 0.95616 0.20922 0.0
C1632 C 0.43385 0.97969 0.15271 0.0
C1633 C 0.3796 0.88272 0.47268 0.0
N1634 N 0.39875 0.89606 0.48214 0.0
C1635 C 0.37366 0.86312 0.46316 0.0
C1636 C 0.38748 0.85723 0.46331 0.0
C1637 C 0.407 0.87094 0.47294 0.0
C1638 C 0.41241 0.89041 0.48227 0.0
C1639 C 0.42509 0.91267 0.67701 0.0
C1640 C 0.44025 0.9404 0.57736 0.0
C1641 C 0.41411 0.91134 0.62081 0.0
N1642 N 0.42177 0.92506 0.57168 0.0
C1643 C 0.45162 0.94226 0.63294 0.0
C1644 C 0.44397 0.92825 0.68296 0.0
C1645 C 0.42232 0.9645 0.46157 0.0
C1646 C 0.35266 0.94277 0.36476 0.0
C1647 C 0.39163 0.968 0.34094 0.0
C1648 C 0.379 0.97533 0.34726 0.0
C1649 C 0.35936 0.96258 0.35907 0.0
N1650 N 0.38496 0.9485 0.34571 0.0
C1651 C 0.36574 0.93598 0.35815 0.0
Co1652 Co 0.09084 0.48644 0.50257 0.0
Co1653 Co 0.07424 0.46676 0.34741 0.0
O1654 O 0.09197 0.47208 0.42379 0.0
C1655 C 0.09651 0.45444 0.563 0.0
O1656 O 0.08977 0.44383 0.50904 0.0
C1657 C 0.1126 0.47484 0.27982 0.0
O1658 O 0.12345 0.48681 0.32692 0.0
O1659 O 0.08398 0.49551 0.33703 0.0
O1660 O 0.08394 0.50276 0.44497 0.0
H1661 H 0.02489 0.47462 0.21556 0.0
H1662 H 0.1261 0.48353 0.48025 0.0
O1663 O 0.0978 0.47106 0.56623 0.0
H1664 H 0.14876 0.55369 0.47996 0.0
H1665 H 0.11332 0.52144 0.72248 0.0
H1666 H 0.06357 0.49947 0.54628 0.0
H1667 H 0.11417 0.52978 0.49761 0.0
H1668 H 0.11504 0.50348 0.62494 0.0
O1669 O 0.09416 0.46756 0.2814 0.0
H1670 H 0.04707 0.48044 0.30966 0.0
H1671 H 0.06409 0.44238 0.22384 0.0
H1672 H 0.06137 0.51746 0.64262 0.0
H1673 H 0.16089 0.50695 0.46319 0.0
H1674 H 0.08642 0.52868 0.73154 0.0
H1675 H 0.17241 0.54232 0.46283 0.0
O1676 O 0.06279 0.46707 0.51436 0.0
H1677 H 0.08158 0.40807 0.3807 0.0
H1678 H 0.03492 0.43107 0.35042 0.0
H1679 H 0.02276 0.39612 0.36537 0.0
H1680 H 0.04618 0.38436 0.38028 0.0
H1681 H 0.09305 0.44295 0.36709 0.0
H1682 H 0.04226 0.43633 0.12852 0.0
H1683 H 0.02238 0.45243 0.12407 0.0
O1684 O 0.05272 0.4641 0.40868 0.0
C1685 C 0.08407 0.50668 0.38328 0.0
C1686 C 0.03347 0.46751 0.21694 0.0
C1687 C 0.04324 0.44605 0.16805 0.0
N1688 N 0.0569 0.46178 0.27241 0.0
C1689 C 0.04605 0.47073 0.27017 0.0
C1690 C 0.05566 0.44961 0.22206 0.0
C1691 C 0.03208 0.45507 0.16561 0.0
C1692 C 0.13104 0.49889 0.48086 0.0
N1693 N 0.11814 0.50526 0.49039 0.0
C1694 C 0.15074 0.51209 0.47087 0.0
C1695 C 0.15719 0.53193 0.47056 0.0
C1696 C 0.14393 0.53832 0.48012 0.0
C1697 C 0.12434 0.5247 0.48991 0.0
C1698 C 0.10236 0.51669 0.68396 0.0
C1699 C 0.07458 0.50435 0.58452 0.0
C1700 C 0.10322 0.50646 0.62868 0.0
N1701 N 0.08949 0.50053 0.57959 0.0
C1702 C 0.07323 0.51451 0.63909 0.0
C1703 C 0.08727 0.52076 0.68901 0.0
C1704 C 0.04925 0.46172 0.47134 0.0
C1705 C 0.07122 0.413 0.37424 0.0
C1706 C 0.04518 0.42615 0.35798 0.0
C1707 C 0.03822 0.4063 0.36589 0.0
C1708 C 0.05136 0.39971 0.37411 0.0
N1709 N 0.06468 0.43913 0.35831 0.0
C1710 C 0.07764 0.43275 0.36623 0.0
Co1711 Co 0.52754 0.60706 0.50061 0.0
Co1712 Co 0.54486 0.60917 0.34149 0.0
O1713 O 0.54113 0.62207 0.42014 0.0
C1714 C 0.55985 0.64547 0.55724 0.0
O1715 O 0.56836 0.65117 0.49909 0.0
C1716 C 0.5417 0.64348 0.28409 0.0
O1717 O 0.5383 0.64803 0.34347 0.0
O1718 O 0.51587 0.5903 0.3365 0.0
O1719 O 0.51019 0.58379 0.44525 0.0
H1720 H 0.53407 0.55102 0.2086 0.0
H1721 H 0.53086 0.64556 0.48016 0.0
O1722 O 0.54413 0.62928 0.56299 0.0
H1723 H 0.46057 0.5989 0.48951 0.0
H1724 H 0.49575 0.59615 0.72616 0.0
H1725 H 0.51428 0.56674 0.54499 0.0
H1726 H 0.48425 0.58773 0.50225 0.0
H1727 H 0.51252 0.61518 0.62615 0.0
O1728 O 0.5426 0.62792 0.27615 0.0
H1729 H 0.53047 0.56805 0.30544 0.0
H1730 H 0.56621 0.62251 0.21181 0.0
H1731 H 0.49734 0.54714 0.64369 0.0
H1732 H 0.50769 0.6574 0.46797 0.0
H1733 H 0.48789 0.56181 0.73517 0.0
H1734 H 0.47224 0.63398 0.47248 0.0
O1735 O 0.54655 0.59794 0.50818 0.0
H1736 H 0.60598 0.67407 0.37273 0.0
H1737 H 0.57952 0.6043 0.33055 0.0
H1738 H 0.61487 0.62582 0.33828 0.0
H1739 H 0.62839 0.66106 0.35899 0.0
H1740 H 0.57083 0.65202 0.36625 0.0
H1741 H 0.57 0.60604 0.1137 0.0
H1742 H 0.55395 0.57004 0.11178 0.0
O1743 O 0.54848 0.59055 0.40167 0.0
C1744 C 0.50538 0.57949 0.38441 0.0
C1745 C 0.54116 0.56671 0.20888 0.0
C1746 C 0.56129 0.59759 0.15557 0.0
N1747 N 0.54814 0.59625 0.26448 0.0
C1748 C 0.5392 0.57644 0.26366 0.0
C1749 C 0.55901 0.60683 0.21119 0.0
C1750 C 0.5523 0.57739 0.15455 0.0
C1751 C 0.51549 0.63531 0.48279 0.0
N1752 N 0.50897 0.61602 0.49229 0.0
C1753 C 0.50242 0.64209 0.47559 0.0
C1754 C 0.48254 0.62894 0.47803 0.0
C1755 C 0.47598 0.60926 0.48754 0.0
C1756 C 0.48948 0.60302 0.49452 0.0
C1757 C 0.49971 0.58956 0.68652 0.0
C1758 C 0.5101 0.5732 0.58426 0.0
C1759 C 0.50927 0.60028 0.62981 0.0
N1760 N 0.51426 0.59204 0.57937 0.0
C1761 C 0.50056 0.56204 0.6402 0.0
C1762 C 0.49531 0.5703 0.69156 0.0
C1763 C 0.55141 0.58959 0.46414 0.0
C1764 C 0.60029 0.65877 0.36314 0.0
C1765 C 0.58518 0.61955 0.33993 0.0
C1766 C 0.60527 0.63171 0.34405 0.0
C1767 C 0.61285 0.65146 0.35561 0.0
N1768 N 0.57286 0.6268 0.34672 0.0
C1769 C 0.58027 0.64615 0.35875 0.0
Co1770 Co 0.09029 0.60788 0.49879 0.0
Co1771 Co 0.07516 0.6098 0.34049 0.0
O1772 O 0.09185 0.62261 0.41808 0.0
C1773 C 0.08824 0.64064 0.56763 0.0
O1774 O 0.07207 0.63573 0.53532 0.0
C1775 C 0.11251 0.64386 0.28145 0.0
O1776 O 0.12044 0.64942 0.34058 0.0
O1777 O 0.08516 0.59094 0.33612 0.0
O1778 O 0.0836 0.58391 0.44495 0.0
H1779 H 0.02801 0.55164 0.20719 0.0
H1780 H 0.12576 0.64591 0.47637 0.0
O1781 O 0.09738 0.63152 0.55637 0.0
H1782 H 0.14826 0.59835 0.48713 0.0
H1783 H 0.11196 0.59845 0.72476 0.0
H1784 H 0.06286 0.56816 0.54743 0.0
H1785 H 0.11358 0.58783 0.50094 0.0
H1786 H 0.11391 0.61679 0.62315 0.0
O1787 O 0.09609 0.62821 0.27512 0.0
H1788 H 0.04858 0.56866 0.30412 0.0
H1789 H 0.06708 0.62314 0.21099 0.0
H1790 H 0.06043 0.54927 0.64793 0.0
H1791 H 0.16064 0.65711 0.46293 0.0
H1792 H 0.08516 0.56437 0.73738 0.0
H1793 H 0.17208 0.63323 0.46817 0.0
O1794 O 0.06206 0.59894 0.50717 0.0
H1795 H 0.07927 0.67446 0.38165 0.0
H1796 H 0.03591 0.60561 0.32594 0.0
H1797 H 0.02237 0.6273 0.33602 0.0
H1798 H 0.04412 0.6621 0.36359 0.0
H1799 H 0.09211 0.65224 0.37225 0.0
H1800 H 0.04696 0.60668 0.11265 0.0
H1801 H 0.02711 0.57067 0.1105 0.0
O1802 O 0.05303 0.59137 0.40062 0.0
C1803 C 0.08449 0.57991 0.38381 0.0
C1804 C 0.03655 0.56734 0.20759 0.0
C1805 C 0.0472 0.59822 0.15452 0.0
N1806 N 0.05893 0.59688 0.26356 0.0
C1807 C 0.0482 0.57706 0.26242 0.0
C1808 C 0.05864 0.60746 0.21027 0.0
C1809 C 0.03606 0.57802 0.15335 0.0
C1810 C 0.13065 0.63546 0.47897 0.0
N1811 N 0.11765 0.61626 0.48935 0.0
C1812 C 0.15041 0.64188 0.47121 0.0
C1813 C 0.15681 0.62847 0.4741 0.0
C1814 C 0.14346 0.60889 0.48468 0.0
C1815 C 0.12382 0.60301 0.4922 0.0
C1816 C 0.10114 0.59168 0.68602 0.0
C1817 C 0.07372 0.57482 0.58595 0.0
C1818 C 0.10214 0.60201 0.62843 0.0
N1819 N 0.08862 0.59349 0.57904 0.0
C1820 C 0.07225 0.56406 0.64285 0.0
C1821 C 0.08611 0.57256 0.69307 0.0
C1822 C 0.04893 0.59054 0.46275 0.0
C1823 C 0.06968 0.65939 0.36873 0.0
C1824 C 0.04555 0.62069 0.33759 0.0
C1825 C 0.03776 0.63294 0.34332 0.0
C1826 C 0.04995 0.65244 0.35881 0.0
N1827 N 0.065 0.62761 0.34619 0.0
C1828 C 0.07695 0.64669 0.36255 0.0
Co1829 Co 0.40157 0.46709 0.3477 0.0
Co1830 Co 0.40393 0.48479 0.50631 0.0
O1831 O 0.38884 0.47124 0.42593 0.0
C1832 C 0.36807 0.47137 0.28863 0.0
O1833 O 0.36302 0.47443 0.34768 0.0
C1834 C 0.36438 0.4538 0.56235 0.0
O1835 O 0.35789 0.44637 0.50318 0.0
O1836 O 0.41269 0.46546 0.51439 0.0
O1837 O 0.41998 0.46327 0.40802 0.0
H1838 H 0.46394 0.5146 0.64902 0.0
H1839 H 0.35867 0.4418 0.37173 0.0
O1840 O 0.38324 0.46974 0.28223 0.0
H1841 H 0.38376 0.39674 0.34704 0.0
H1842 H 0.40408 0.4414 0.12031 0.0
H1843 H 0.44257 0.48085 0.3115 0.0
H1844 H 0.40576 0.43199 0.3383 0.0
H1845 H 0.38789 0.4455 0.21862 0.0
O1846 O 0.38146 0.46839 0.56894 0.0
H1847 H 0.44425 0.49781 0.55026 0.0
H1848 H 0.39606 0.49993 0.63198 0.0
H1849 H 0.45932 0.47687 0.21451 0.0
H1850 H 0.33614 0.40674 0.37954 0.0
H1851 H 0.44004 0.45706 0.11795 0.0
H1852 H 0.3486 0.38382 0.36737 0.0
O1853 O 0.42064 0.4959 0.34194 0.0
H1854 H 0.35483 0.50624 0.47056 0.0
H1855 H 0.42398 0.52805 0.50893 0.0
H1856 H 0.41366 0.55235 0.49572 0.0
H1857 H 0.37883 0.54151 0.47667 0.0
H1858 H 0.36583 0.48246 0.4832 0.0
H1859 H 0.41518 0.51653 0.73205 0.0
H1860 H 0.44944 0.52413 0.7408 0.0
O1861 O 0.42738 0.5019 0.45049 0.0
C1862 C 0.42096 0.46045 0.47051 0.0
C1863 C 0.44907 0.51148 0.64564 0.0
C1864 C 0.42169 0.51251 0.6923 0.0
N1865 N 0.41905 0.49799 0.585 0.0
C1866 C 0.43785 0.50202 0.5897 0.0
C1867 C 0.41091 0.50304 0.63557 0.0
C1868 C 0.44091 0.51678 0.69718 0.0
C1869 C 0.36429 0.43212 0.36522 0.0
N1870 N 0.3836 0.43918 0.35351 0.0
C1871 C 0.35141 0.41217 0.37022 0.0
C1872 C 0.3584 0.39932 0.36355 0.0
C1873 C 0.37812 0.40655 0.3522 0.0
C1874 C 0.39054 0.4266 0.34749 0.0
C1875 C 0.41264 0.45006 0.16209 0.0
C1876 C 0.43407 0.4721 0.26987 0.0
C1877 C 0.40356 0.45252 0.21783 0.0
N1878 N 0.41427 0.46339 0.27094 0.0
C1879 C 0.44364 0.46995 0.215 0.0
C1880 C 0.43281 0.45884 0.16081 0.0
C1881 C 0.43156 0.50651 0.38934 0.0
C1882 C 0.37003 0.51115 0.47918 0.0
C1883 C 0.4088 0.52317 0.50047 0.0
C1884 C 0.40304 0.53703 0.49316 0.0
C1885 C 0.3835 0.53093 0.4825 0.0
N1886 N 0.39548 0.50377 0.49754 0.0
C1887 C 0.37633 0.49771 0.48675 0.0
Co1888 Co 0.5274 0.92353 0.49279 0.0
Co1889 Co 0.5459 0.93869 0.33506 0.0
O1890 O 0.54123 0.92181 0.41357 0.0
C1891 C 0.56021 0.91936 0.55399 0.0
O1892 O 0.57138 0.92783 0.50231 0.0
C1893 C 0.5415 0.90077 0.27787 0.0
O1894 O 0.53764 0.89267 0.33706 0.0
O1895 O 0.51719 0.92929 0.32796 0.0
O1896 O 0.51085 0.93035 0.43606 0.0
H1897 H 0.53752 0.98731 0.20064 0.0
H1898 H 0.52979 0.88789 0.4742 0.0
O1899 O 0.543 0.91667 0.55579 0.0
H1900 H 0.45978 0.86589 0.47602 0.0
H1901 H 0.49412 0.90276 0.71604 0.0
H1902 H 0.51479 0.9512 0.53585 0.0
H1903 H 0.484 0.90054 0.49025 0.0
H1904 H 0.51115 0.90019 0.61729 0.0
O1905 O 0.54329 0.91759 0.27005 0.0
H1906 H 0.53277 0.96632 0.29749 0.0
H1907 H 0.56794 0.9464 0.20697 0.0
H1908 H 0.49778 0.95429 0.63349 0.0
H1909 H 0.50604 0.85303 0.46043 0.0
H1910 H 0.48722 0.9299 0.72448 0.0
H1911 H 0.47075 0.84184 0.46118 0.0
O1912 O 0.54699 0.95156 0.50154 0.0
H1913 H 0.60552 0.93259 0.37114 0.0
H1914 H 0.58139 0.97773 0.32644 0.0
H1915 H 0.61654 0.99049 0.3364 0.0
H1916 H 0.62889 0.96784 0.35831 0.0
H1917 H 0.57058 0.92058 0.3626 0.0
H1918 H 0.57286 0.967 0.10885 0.0
H1919 H 0.55767 0.98773 0.10537 0.0
O1920 O 0.54976 0.96101 0.39489 0.0
C1921 C 0.50653 0.92985 0.37466 0.0
C1922 C 0.54424 0.97837 0.20161 0.0
C1923 C 0.56404 0.96694 0.15005 0.0
N1924 N 0.5501 0.95517 0.2581 0.0
C1925 C 0.54164 0.96648 0.2564 0.0
C1926 C 0.56112 0.95523 0.20566 0.0
C1927 C 0.55553 0.97858 0.14815 0.0
C1928 C 0.51446 0.8831 0.47493 0.0
N1929 N 0.50831 0.89622 0.48305 0.0
C1930 C 0.50108 0.86336 0.46696 0.0
C1931 C 0.48128 0.8571 0.46731 0.0
C1932 C 0.47511 0.87058 0.47558 0.0
C1933 C 0.48891 0.8902 0.48337 0.0
C1934 C 0.49859 0.91345 0.67666 0.0
C1935 C 0.51018 0.94048 0.57496 0.0
C1936 C 0.5083 0.91211 0.62067 0.0
N1937 N 0.51391 0.9255 0.57055 0.0
C1938 C 0.50056 0.94232 0.63026 0.0
C1939 C 0.4947 0.92867 0.68134 0.0
C1940 C 0.55229 0.96483 0.45741 0.0
C1941 C 0.60035 0.9426 0.36086 0.0
C1942 C 0.58654 0.96774 0.33622 0.0
C1943 C 0.60653 0.97507 0.34165 0.0
C1944 C 0.61344 0.96237 0.35389 0.0
N1945 N 0.57372 0.94827 0.34233 0.0
C1946 C 0.58046 0.9358 0.35515 0.0
Co1947 Co 0.27398 0.42019 0.85336 0.0
Co1948 Co 0.27791 0.40647 0.01221 0.0
O1949 O 0.28994 0.42286 0.93255 0.0
C1950 C 0.31191 0.42617 0.79334 0.0
O1951 O 0.3158 0.41957 0.84757 0.0
C1952 C 0.31198 0.44441 0.06706 0.0
O1953 O 0.31632 0.45221 0.00742 0.0
O1954 O 0.25891 0.41626 0.01841 0.0
O1955 O 0.2506 0.41328 0.91071 0.0
H1956 H 0.22114 0.35932 0.15088 0.0
H1957 H 0.31154 0.45653 0.8705 0.0
O1958 O 0.2964 0.42717 0.78969 0.0
H1959 H 0.26221 0.47679 0.86452 0.0
H1960 H 0.25973 0.43881 0.629 0.0
H1961 H 0.23411 0.39097 0.8116 0.0
H1962 H 0.25265 0.44228 0.85281 0.0
H1963 H 0.27989 0.44271 0.72757 0.0
O1964 O 0.29673 0.42781 0.07573 0.0
H1965 H 0.23717 0.37979 0.05279 0.0
H1966 H 0.29253 0.39906 0.14014 0.0
H1967 H 0.2135 0.38651 0.71404 0.0
H1968 H 0.32179 0.49125 0.8817 0.0
H1969 H 0.22622 0.4106 0.62196 0.0
H1970 H 0.29702 0.50157 0.87885 0.0
O1971 O 0.26624 0.39229 0.84705 0.0
H1972 H 0.34319 0.41154 0.97579 0.0
H1973 H 0.27393 0.36726 0.02318 0.0
H1974 H 0.29595 0.35407 0.01385 0.0
H1975 H 0.33095 0.37628 0.99059 0.0
H1976 H 0.32061 0.42397 0.98367 0.0
H1977 H 0.27706 0.37898 0.2395 0.0
H1978 H 0.24112 0.35882 0.24516 0.0
O1979 O 0.25905 0.38387 0.95417 0.0
C1980 C 0.24727 0.41488 0.97193 0.0
C1981 C 0.23681 0.36802 0.14897 0.0
C1982 C 0.2682 0.37906 0.19872 0.0
N1983 N 0.26577 0.39054 0.09042 0.0
C1984 C 0.24598 0.37962 0.09348 0.0
C1985 C 0.27687 0.39048 0.14239 0.0
C1986 C 0.24803 0.36775 0.20185 0.0
C1987 C 0.30071 0.46093 0.86877 0.0
N1988 N 0.28155 0.44741 0.86081 0.0
C1989 C 0.30658 0.4806 0.87533 0.0
C1990 C 0.29268 0.48638 0.87381 0.0
C1991 C 0.27315 0.47248 0.86581 0.0
C1992 C 0.26781 0.45295 0.85943 0.0
C1993 C 0.25398 0.42826 0.66893 0.0
C1994 C 0.23976 0.40155 0.77192 0.0
C1995 C 0.26534 0.43037 0.72485 0.0
N1996 N 0.25813 0.41717 0.77571 0.0
C1997 C 0.22801 0.39894 0.7167 0.0
C1998 C 0.23518 0.41244 0.66501 0.0
C1999 C 0.25812 0.37941 0.89234 0.0
C2000 C 0.328 0.40172 0.98663 0.0
C2001 C 0.28906 0.37707 0.01274 0.0
C2002 C 0.30151 0.36949 0.0077 0.0
C2003 C 0.32113 0.38194 0.99471 0.0
N2004 N 0.29589 0.39654 0.00549 0.0
C2005 C 0.3151 0.40876 0.99197 0.0
Co2006 Co 0.60741 0.87641 0.99953 0.0
Co2007 Co 0.59394 0.86074 0.83842 0.0
O2008 O 0.59142 0.87333 0.91974 0.0
C2009 C 0.56965 0.87293 0.05577 0.0
O2010 O 0.56206 0.87069 0.99609 0.0
C2011 C 0.58528 0.89183 0.78423 0.0
O2012 O 0.58527 0.89848 0.84406 0.0
O2013 O 0.62208 0.88028 0.83459 0.0
O2014 O 0.63004 0.88021 0.94155 0.0
H2015 H 0.62635 0.83325 0.69546 0.0
H2016 H 0.59097 0.9027 0.97478 0.0
O2017 O 0.58604 0.87372 0.06317 0.0
H2018 H 0.661 0.94629 0.00931 0.0
H2019 H 0.6339 0.89996 0.23027 0.0
H2020 H 0.63322 0.86106 0.03778 0.0
H2021 H 0.64695 0.9109 0.01494 0.0
H2022 H 0.61471 0.89714 0.1302 0.0
O2023 O 0.58836 0.87765 0.77667 0.0
H2024 H 0.62232 0.84909 0.79492 0.0
H2025 H 0.57216 0.84653 0.71005 0.0
H2026 H 0.65285 0.86375 0.13651 0.0
H2027 H 0.60428 0.93791 0.97002 0.0
H2028 H 0.65327 0.88331 0.23373 0.0
H2029 H 0.6396 0.9601 0.98718 0.0
O2030 O 0.59705 0.84744 1.00203 0.0
H2031 H 0.52293 0.83834 0.86778 0.0
H2032 H 0.57104 0.81754 0.82921 0.0
H2033 H 0.53637 0.7929 0.83753 0.0
H2034 H 0.512 0.80324 0.85663 0.0
H2035 H 0.55774 0.86245 0.85999 0.0
H2036 H 0.57587 0.83098 0.60913 0.0
H2037 H 0.60301 0.82406 0.60164 0.0
O2038 O 0.59976 0.84309 0.89328 0.0
C2039 C 0.63474 0.88421 0.88009 0.0
C2040 C 0.61441 0.8361 0.69825 0.0
C2041 C 0.58609 0.83485 0.64978 0.0
N2042 N 0.59689 0.84853 0.75879 0.0
C2043 C 0.61201 0.845 0.7546 0.0
C2044 C 0.58411 0.84371 0.70701 0.0
C2045 C 0.60132 0.83097 0.6456 0.0
C2046 C 0.60621 0.91203 0.98354 0.0
N2047 N 0.61798 0.90447 0.99638 0.0
C2048 C 0.61375 0.93209 0.98023 0.0
C2049 C 0.63356 0.94453 0.98969 0.0
C2050 C 0.64556 0.9368 1.00207 0.0
C2051 C 0.63749 0.91667 1.00503 0.0
C2052 C 0.63386 0.89142 0.18819 0.0
C2053 C 0.63338 0.86967 0.07971 0.0
C2054 C 0.62294 0.88969 0.13144 0.0
N2055 N 0.62289 0.879 0.07791 0.0
C2056 C 0.6445 0.87111 0.13556 0.0
C2057 C 0.64473 0.88207 0.1901 0.0
C2058 C 0.59821 0.83752 0.95378 0.0
C2059 C 0.53339 0.83366 0.85904 0.0
C2060 C 0.56057 0.8222 0.83764 0.0
C2061 C 0.54093 0.80816 0.8422 0.0
C2062 C 0.52727 0.81397 0.8529 0.0
N2063 N 0.56647 0.84152 0.84322 0.0
C2064 C 0.55315 0.84729 0.85419 0.0
Co2065 Co 0.15418 0.73471 0.84026 0.0
Co2066 Co 0.1377 0.73305 0.9992 0.0
O2067 O 0.14116 0.72006 0.92123 0.0
C2068 C 0.11911 0.7018 0.77311 0.0
O2069 O 0.10794 0.70656 0.80676 0.0
C2070 C 0.14073 0.69879 0.0564 0.0
O2071 O 0.14377 0.69397 0.99695 0.0
O2072 O 0.16665 0.75164 1.00272 0.0
O2073 O 0.17167 0.75866 0.89379 0.0
H2074 H 0.14974 0.79152 0.13274 0.0
H2075 H 0.1515 0.69659 0.86177 0.0
O2076 O 0.13744 0.71109 0.78293 0.0
H2077 H 0.2216 0.74395 0.84962 0.0
H2078 H 0.18475 0.74402 0.6133 0.0
H2079 H 0.16669 0.77453 0.79213 0.0
H2080 H 0.19752 0.75461 0.8369 0.0
H2081 H 0.1684 0.72566 0.71495 0.0
O2082 O 0.13997 0.7144 0.06428 0.0
H2083 H 0.15298 0.7743 0.03585 0.0
H2084 H 0.11632 0.71997 0.12886 0.0
H2085 H 0.18328 0.7935 0.69187 0.0
H2086 H 0.1751 0.68526 0.87414 0.0
H2087 H 0.19246 0.77825 0.60156 0.0
H2088 H 0.21044 0.70903 0.86822 0.0
O2089 O 0.13492 0.74372 0.83284 0.0
H2090 H 0.07659 0.66867 0.96112 0.0
H2091 H 0.10303 0.73791 0.01319 0.0
H2092 H 0.0677 0.71651 1.00418 0.0
H2093 H 0.05418 0.68153 0.97848 0.0
H2094 H 0.11174 0.69059 0.96934 0.0
H2095 H 0.11288 0.73663 0.22707 0.0
H2096 H 0.12955 0.77267 0.22927 0.0
O2097 O 0.13419 0.75168 0.93945 0.0
C2098 C 0.17685 0.76263 0.9547 0.0
C2099 C 0.14236 0.77582 0.13233 0.0
C2100 C 0.12169 0.74501 0.18528 0.0
N2101 N 0.13475 0.74614 0.07635 0.0
C2102 C 0.14412 0.76597 0.07753 0.0
C2103 C 0.12377 0.73566 0.1296 0.0
C2104 C 0.13104 0.76523 0.18648 0.0
C2105 C 0.16685 0.707 0.85889 0.0
N2106 N 0.1731 0.72623 0.84879 0.0
C2107 C 0.18014 0.70051 0.86603 0.0
C2108 C 0.19997 0.71386 0.86276 0.0
C2109 C 0.20624 0.73345 0.85239 0.0
C2110 C 0.19253 0.73941 0.84549 0.0
C2111 C 0.18086 0.75084 0.65238 0.0
C2112 C 0.17072 0.76782 0.75328 0.0
C2113 C 0.17154 0.74049 0.70997 0.0
N2114 N 0.16675 0.74907 0.75978 0.0
C2115 C 0.18006 0.77862 0.69649 0.0
C2116 C 0.18519 0.77005 0.64582 0.0
C2117 C 0.13054 0.75232 0.87757 0.0
C2118 C 0.08228 0.68383 0.97323 0.0
C2119 C 0.09737 0.72274 1.00236 0.0
C2120 C 0.07729 0.71067 0.99721 0.0
C2121 C 0.06972 0.69106 0.98276 0.0
N2122 N 0.10967 0.71553 0.99414 0.0
C2123 C 0.10229 0.69636 0.97875 0.0
C2124 C 0.21067 0.98556 0.49404 0.0
C2125 C 0.21404 0.99172 0.56101 0.0
C2126 C 0.21713 0.999 0.44082 0.0
C2127 C 0.22778 0.01927 0.45186 0.0
H2128 H 0.20306 0.97019 0.48256 0.0
H2129 H 0.21432 0.99338 0.3904 0.0
S2130 S 0.24104 0.0431 0.61777 0.0
N2131 N 0.22882 0.01966 0.6351 0.0
N2132 N 0.24137 0.04469 0.53569 0.0
C2133 C 0.23125 0.02561 0.51862 0.0
C2134 C 0.22429 0.01194 0.57283 0.0
C2135 C 1.00173 0.21454 0.57399 0.0
C2136 C 0.0219 0.22534 0.56131 0.0
C2137 C 0.98795 0.20804 0.52185 0.0
C2138 C 0.9937 0.21155 0.45454 0.0
H2139 H 0.99646 0.21165 0.62484 0.0
H2140 H 0.97265 0.20029 0.53441 0.0
S2141 S 0.04468 0.23899 0.39392 0.0
N2142 N 0.04679 0.23924 0.47581 0.0
N2143 N 0.02114 0.22661 0.37834 0.0
C2144 C 0.01383 0.22196 0.44113 0.0
C2145 C 0.02782 0.22895 0.49422 0.0
C2146 C 0.79124 0.79482 0.44135 0.0
C2147 C 0.80072 0.7841 0.45388 0.0
C2148 C 0.7839 0.80129 0.4934 0.0
C2149 C 0.78614 0.79783 0.56074 0.0
H2150 H 0.78888 0.79777 0.39056 0.0
H2151 H 0.77635 0.80903 0.48069 0.0
S2152 S 0.80984 0.77054 0.62139 0.0
N2153 N 0.81175 0.77028 0.53949 0.0
N2154 N 0.79858 0.78282 0.63692 0.0
C2155 C 0.7959 0.78744 0.57413 0.0
C2156 C 0.80299 0.78049 0.52101 0.0
C2157 C 0.778 0.99886 0.52869 0.0
C2158 C 0.7888 0.99036 0.55191 0.0
C2159 C 0.78574 0.0143 0.48257 0.0
C2160 C 0.80459 0.02189 0.45591 0.0
H2161 H 0.76341 0.99371 0.54691 0.0
H2162 H 0.77662 0.0201 0.4668 0.0
S2163 S 0.83905 1.0049 0.49922 0.0
N2164 N 0.81962 0.99099 0.54459 0.0
N2165 N 0.83389 0.01952 0.45659 0.0
C2166 C 0.81555 0.01347 0.47817 0.0
C2167 C 0.80778 0.99793 0.52642 0.0
C2168 C 1.00145 0.79007 0.5722 0.0
C2169 C 0.02149 0.79829 0.55841 0.0
C2170 C 0.98739 0.78343 0.52088 0.0
C2171 C 0.99273 0.78522 0.45322 0.0
H2172 H 0.99647 0.78815 0.62335 0.0
H2173 H 0.9722 0.77681 0.53437 0.0
S2174 S 0.04318 0.80564 0.38966 0.0
N2175 N 0.04576 0.80759 0.47141 0.0
N2176 N 0.01967 0.79581 0.37551 0.0
C2177 C 0.01274 0.79372 0.43871 0.0
C2178 C 0.02699 0.80005 0.49097 0.0
C2179 C 0.21049 0.2013 0.4839 0.0
C2180 C 0.23033 0.21132 0.46587 0.0
C2181 C 0.20276 0.20919 0.52998 0.0
C2182 C 0.21437 0.22777 0.55844 0.0
H2183 H 0.20086 0.18715 0.46258 0.0
H2184 H 0.18749 0.20081 0.54249 0.0
S2185 S 0.26716 0.26025 0.52732 0.0
N2186 N 0.26133 0.24089 0.48145 0.0
N2187 N 0.24687 0.25585 0.56447 0.0
C2188 C 0.23416 0.23795 0.54023 0.0
C2189 C 0.2421 0.22972 0.49506 0.0
C2190 C 0.88384 0.33311 0.78189 0.0
C2191 C 0.89427 0.35342 0.79238 0.0
C2192 C 0.87752 0.31976 0.83539 0.0
C2193 C 0.88084 0.32601 0.90229 0.0
H2194 H 0.88107 0.32737 0.73163 0.0
H2195 H 0.87007 0.30438 0.82413 0.0
S2196 S 0.90723 0.37753 0.95788 0.0
N2197 N 0.90754 0.37898 0.87575 0.0
N2198 N 0.8953 0.35412 0.97571 0.0
C2199 C 0.89086 0.34627 0.91362 0.0
C2200 C 0.89766 0.35986 0.85905 0.0
C2201 C 0.68048 0.5533 0.7751 0.0
C2202 C 0.66018 0.54375 0.78552 0.0
C2203 C 0.69381 0.56027 0.82869 0.0
C2204 C 0.68754 0.55757 0.89555 0.0
H2205 H 0.68622 0.55607 0.72486 0.0
H2206 H 0.7092 0.56798 0.81756 0.0
S2207 S 0.63602 0.53333 0.95084 0.0
N2208 N 0.6346 0.53202 0.86872 0.0
N2209 N 0.65942 0.5445 0.96881 0.0
C2210 C 0.66728 0.54764 0.90677 0.0
C2211 C 0.65372 0.54093 0.85215 0.0
C2212 C 0.45937 0.1301 0.77398 0.0
C2213 C 0.46872 0.11919 0.78488 0.0
C2214 C 0.4523 0.13646 0.82732 0.0
C2215 C 0.45475 0.13273 0.89423 0.0
H2216 H 0.45683 0.13318 0.72358 0.0
H2217 H 0.44475 0.14428 0.81598 0.0
S2218 S 0.47834 0.10494 0.95051 0.0
N2219 N 0.47991 0.10495 0.86846 0.0
N2220 N 0.46732 0.11734 0.96804 0.0
C2221 C 0.46446 0.12222 0.90588 0.0
C2222 C 0.47124 0.11536 0.85157 0.0
C2223 C 0.45818 0.33253 0.77763 0.0
C2224 C 0.46798 0.35275 0.78959 0.0
C2225 C 0.45112 0.31891 0.83022 0.0
C2226 C 0.45399 0.32484 0.89738 0.0
H2227 H 0.45529 0.32708 0.727 0.0
H2228 H 0.44323 0.30358 0.81809 0.0
S2229 S 0.47889 0.37603 0.95643 0.0
N2230 N 0.48012 0.37791 0.8744 0.0
N2231 N 0.46746 0.35253 0.97275 0.0
C2232 C 0.46415 0.34502 0.91013 0.0
C2233 C 0.47096 0.35888 0.85655 0.0
C2234 C 0.68235 0.14394 0.85813 0.0
C2235 C 0.69099 0.13307 0.87951 0.0
C2236 C 0.66704 0.13646 0.81083 0.0
C2237 C 0.65932 0.11758 0.78417 0.0
H2238 H 0.68757 0.15842 0.87761 0.0
H2239 H 0.66103 0.14546 0.7958 0.0
S2240 S 0.67649 0.08296 0.82417 0.0
N2241 N 0.69035 0.10228 0.8697 0.0
N2242 N 0.66188 0.08836 0.78305 0.0
C2243 C 0.6678 0.1066 0.8056 0.0
C2244 C 0.6835 0.11428 0.85253 0.0
C2245 C 0.89836 0.54156 0.85872 0.0
C2246 C 0.89632 0.54507 0.79123 0.0
C2247 C 0.8914 0.54855 0.91046 0.0
C2248 C 0.88258 0.55985 0.89723 0.0
H2249 H 0.90543 0.53338 0.87174 0.0
H2250 H 0.89352 0.54555 0.96146 0.0
S2251 S 0.87436 0.57384 0.72913 0.0
N2252 N 0.88485 0.56079 0.71429 0.0
N2253 N 0.87246 0.5743 0.81096 0.0
C2254 C 0.88057 0.56354 0.82996 0.0
C2255 C 0.88723 0.55606 0.77729 0.0
C2256 C 0.54426 0.65214 0.16117 0.0
C2257 C 0.54788 0.6581 0.22833 0.0
C2258 C 0.55091 0.66573 0.10831 0.0
C2259 C 0.562 0.68597 0.1198 0.0
H2260 H 0.53626 0.6368 0.14925 0.0
H2261 H 0.54782 0.66024 0.05775 0.0
S2262 S 0.57618 0.70931 0.28632 0.0
N2263 N 0.56348 0.68586 0.30302 0.0
N2264 N 0.57636 0.71112 0.20432 0.0
C2265 C 0.56578 0.69211 0.18673 0.0
C2266 C 0.55864 0.6783 0.2406 0.0
C2267 C 0.3359 0.88073 0.22938 0.0
C2268 C 0.35606 0.89275 0.21853 0.0
C2269 C 0.32245 0.87398 0.17614 0.0
C2270 C 0.32853 0.87842 0.10931 0.0
H2271 H 0.33034 0.87703 0.27973 0.0
H2272 H 0.30712 0.86528 0.18751 0.0
S2273 S 0.37962 0.90922 0.05313 0.0
N2274 N 0.38129 0.90881 0.13507 0.0
N2275 N 0.35628 0.89571 0.03559 0.0
C2276 C 0.34867 0.89006 0.09765 0.0
C2277 C 0.36232 0.89732 0.15192 0.0
C2278 C 0.10954 0.44907 0.1991 0.0
C2279 C 0.12121 0.4675 0.2283 0.0
C2280 C 0.11708 0.44122 0.15282 0.0
C2281 C 0.13666 0.45147 0.1321 0.0
H2282 H 0.09441 0.44034 0.21305 0.0
H2283 H 0.10731 0.42694 0.13269 0.0
S2284 S 0.17353 0.50048 0.19218 0.0
N2285 N 0.15357 0.49583 0.2327 0.0
N2286 N 0.16759 0.48133 0.14464 0.0
C2287 C 0.1485 0.47004 0.16019 0.0
C2288 C 0.14086 0.47793 0.20847 0.0
C2289 C 0.13232 0.67768 0.23328 0.0
C2290 C 0.12107 0.65741 0.22308 0.0
C2291 C 0.13886 0.69092 0.17951 0.0
C2292 C 0.13494 0.68453 0.11284 0.0
H2293 H 0.13554 0.68346 0.28346 0.0
H2294 H 0.14694 0.70633 0.19032 0.0
S2295 S 0.10633 0.63303 0.05834 0.0
N2296 N 0.10639 0.63172 0.14045 0.0
N2297 N 0.11907 0.65637 0.03998 0.0
C2298 C 0.12412 0.66429 0.10187 0.0
C2299 C 0.11709 0.65084 0.15664 0.0
C2300 C 0.33412 0.45789 0.24235 0.0
C2301 C 0.35428 0.46635 0.23096 0.0
C2302 C 0.32058 0.45114 0.18942 0.0
C2303 C 0.32659 0.45304 0.12242 0.0
H2304 H 0.32862 0.45579 0.29286 0.0
H2305 H 0.30525 0.44422 0.20113 0.0
S2306 S 0.37765 0.47427 0.06487 0.0
N2307 N 0.37944 0.47615 0.14685 0.0
N2308 N 0.35425 0.46413 0.0479 0.0
C2309 C 0.34673 0.4619 0.11022 0.0
C2310 C 0.36046 0.46834 0.16417 0.0
C2311 C 0.54367 0.89455 0.15512 0.0
C2312 C 0.5472 0.89199 0.22214 0.0
C2313 C 0.55016 0.88754 0.10204 0.0
C2314 C 0.56099 0.87814 0.11334 0.0
H2315 H 0.53594 0.90218 0.1435 0.0
H2316 H 0.54726 0.8902 0.05155 0.0
S2317 S 0.57467 0.86818 0.27946 0.0
N2318 N 0.56229 0.87924 0.29655 0.0
N2319 N 0.5749 0.86672 0.19741 0.0
C2320 C 0.56459 0.87547 0.18016 0.0
C2321 C 0.5576 0.88219 0.23421 0.0
C2322 C 0.2269 0.98214 0.01799 0.0
C2323 C 0.2345 0.98869 0.95368 0.0
C2324 C 0.23347 0.99469 0.0734 0.0
C2325 C 0.24751 0.01446 0.0665 0.0
H2326 H 0.21579 0.96713 0.02566 0.0
H2327 H 0.22702 0.98897 0.12164 0.0
S2328 S 0.27192 0.03896 0.90884 0.0
N2329 N 0.25711 0.01619 0.88665 0.0
N2330 N 0.26886 0.03996 0.9899 0.0
C2331 C 0.25522 0.0212 1.00242 0.0
C2332 C 0.2489 0.00828 0.94633 0.0
C2333 C 0.99123 0.24477 0.98607 0.0
C2334 C 0.98901 0.23113 0.03526 0.0
C2335 C 1.00711 0.25275 0.94182 0.0
C2336 C 0.02149 0.24734 0.94401 0.0
H2337 H 0.98049 0.24928 0.98119 0.0
H2338 H 1.0079 0.26305 0.90489 0.0
S2339 S 0.0227 0.21221 0.06367 0.0
N2340 N 1.00285 0.21274 0.08373 0.0
N2341 N 0.03244 0.22748 1.00086 0.0
C2342 C 0.01955 0.23383 0.99344 0.0
C2343 C 1.00345 0.22583 0.0389 0.0
C2344 C 0.77362 0.78566 0.9892 0.0
C2345 C 0.76035 0.77453 0.93864 0.0
C2346 C 0.78039 0.77721 0.0359 0.0
C2347 C 0.77434 0.75726 0.03388 0.0
H2348 H 0.77905 0.80113 0.9925 0.0
H2349 H 0.79098 0.78657 0.07244 0.0
S2350 S 0.73894 0.72136 0.91412 0.0
N2351 N 0.74078 0.74218 0.89164 0.0
N2352 N 0.75354 0.72643 0.97873 0.0
C2353 C 0.7607 0.74587 0.98471 0.0
C2354 C 0.75371 0.75444 0.93739 0.0
C2355 C 0.78088 0.01305 0.94211 0.0
C2356 C 0.77049 0.99268 0.94813 0.0
C2357 C 0.78692 0.02514 0.99872 0.0
C2358 C 0.7824 0.01742 0.0638 0.0
H2359 H 0.78484 0.01972 0.8933 0.0
H2360 H 0.79521 0.04072 0.99134 0.0
S2361 S 0.75479 0.96503 0.10689 0.0
N2362 N 0.75562 0.96533 0.02465 0.0
N2363 N 0.76647 0.98801 0.13053 0.0
C2364 C 0.77159 0.99709 0.07046 0.0
C2365 C 0.76579 0.98476 0.01287 0.0
C2366 C 0.00891 0.75512 0.9398 0.0
C2367 C 0.02336 0.77487 0.94318 0.0
C2368 C 0.99362 0.74682 0.98634 0.0
C2369 C 0.99215 0.75778 0.03898 0.0
H2370 H 0.00913 0.74603 0.89998 0.0
H2371 H 0.98266 0.73169 0.98017 0.0
S2372 S 0.02689 0.8099 0.07295 0.0
N2373 N 0.03556 0.80497 0.0057 0.0
N2374 N 1.00713 0.78942 0.09279 0.0
C2375 C 1.00686 0.7774 0.04416 0.0
C2376 C 0.02232 0.7859 0.99643 0.0
C2377 C 0.26541 0.24788 0.99232 0.0
C2378 C 0.2544 0.23506 0.04403 0.0
C2379 C 0.25706 0.25498 0.9464 0.0
C2380 C 0.23724 0.2494 0.94942 0.0
H2381 H 0.28061 0.25232 0.98657 0.0
H2382 H 0.26621 0.26463 0.90737 0.0
S2383 S 0.20203 0.21661 0.07638 0.0
N2384 N 0.2226 0.21754 0.09633 0.0
N2385 N 0.20698 0.23068 0.01035 0.0
C2386 C 0.22613 0.23685 1.00159 0.0
C2387 C 0.23468 0.22977 0.04875 0.0
C2388 C 0.90035 0.32538 0.41607 0.0
C2389 C 0.91525 0.34486 0.41026 0.0
C2390 C 0.89351 0.31306 0.36008 0.0
C2391 C 0.90165 0.31955 0.29631 0.0
H2392 H 0.89338 0.31979 0.46375 0.0
H2393 H 0.88172 0.2983 0.36682 0.0
S2394 S 0.94141 0.36904 0.25449 0.0
N2395 N 0.93804 0.36998 0.33535 0.0
N2396 N 0.92573 0.34662 0.2311 0.0
C2397 C 0.91694 0.33879 0.29016 0.0
C2398 C 0.92357 0.35149 0.3468 0.0
C2399 C 0.69834 0.58172 0.3519 0.0
C2400 C 0.69176 0.5827 0.28756 0.0
C2401 C 0.68575 0.57552 0.40719 0.0
C2402 C 0.66591 0.5695 0.40014 0.0
H2403 H 0.7134 0.58582 0.35968 0.0
H2404 H 0.69148 0.57483 0.45544 0.0
S2405 S 0.64133 0.56917 0.24238 0.0
N2406 N 0.66416 0.57744 0.22036 0.0
N2407 N 0.64034 0.56507 0.32339 0.0
C2408 C 0.65916 0.57044 0.33604 0.0
C2409 C 0.6721 0.57724 0.28008 0.0
C2410 C 0.44993 0.10525 0.27237 0.0
C2411 C 0.4373 0.11271 0.2803 0.0
C2412 C 0.45599 0.09859 0.3273 0.0
C2413 C 0.44923 0.09855 0.39229 0.0
H2414 H 0.45559 0.10498 0.22351 0.0
H2415 H 0.46598 0.09328 0.31865 0.0
S2416 S 0.41555 0.11609 0.43995 0.0
N2417 N 0.41818 0.11961 0.35859 0.0
N2418 N 0.42896 0.10642 0.46108 0.0
C2419 C 0.43627 0.1056 0.40075 0.0
C2420 C 0.4305 0.11286 0.34506 0.0
C2421 C 0.44155 0.3265 0.32707 0.0
C2422 C 0.4283 0.32419 0.27623 0.0
C2423 C 0.44851 0.34201 0.37272 0.0
C2424 C 0.44271 0.35608 0.36938 0.0
H2425 H 0.44676 0.3163 0.33154 0.0
H2426 H 0.45899 0.34325 0.40973 0.0
S2427 S 0.40768 0.35647 0.2476 0.0
N2428 N 0.40918 0.33716 0.22701 0.0
N2429 N 0.42229 0.36622 0.31211 0.0
C2430 C 0.42917 0.35375 0.31965 0.0
C2431 C 0.42197 0.33788 0.2734 0.0
C2432 C 0.69118 0.09887 0.35401 0.0
C2433 C 0.6935 0.11239 0.30418 0.0
C2434 C 0.67529 0.09114 0.39827 0.0
C2435 C 0.66101 0.09669 0.39551 0.0
H2436 H 0.70183 0.09428 0.3594 0.0
H2437 H 0.67442 0.08092 0.43573 0.0
S2438 S 0.66003 0.13149 0.27388 0.0
N2439 N 0.67982 0.13077 0.25438 0.0
N2440 N 0.65022 0.11646 0.33728 0.0
C2441 C 0.66304 0.11006 0.34542 0.0
C2442 C 0.67915 0.1178 0.29992 0.0
C2443 C 0.90353 0.5663 0.37712 0.0
C2444 C 0.92345 0.57226 0.37463 0.0
C2445 C 0.89503 0.57306 0.33054 0.0
C2446 C 0.90608 0.58624 0.27967 0.0
H2447 H 0.89422 0.55579 0.41393 0.0
H2448 H 0.87958 0.56771 0.3342 0.0
S2449 S 0.95914 0.60731 0.25358 0.0
N2450 N 0.95417 0.59283 0.3185 0.0
N2451 N 0.93832 0.60557 0.23168 0.0
C2452 C 0.92615 0.59278 0.27792 0.0
C2453 C 0.93477 0.5858 0.32509 0.0
C2454 C 0.57738 0.67871 0.60921 0.0
C2455 C 0.56768 0.6584 0.61665 0.0
C2456 C 0.58365 0.69112 0.66496 0.0
C2457 C 0.58097 0.68377 0.73046 0.0
H2458 H 0.57966 0.68509 0.56 0.0
H2459 H 0.59067 0.70664 0.65663 0.0
S2460 S 0.55706 0.6317 0.77714 0.0
N2461 N 0.55599 0.63151 0.69493 0.0
N2462 N 0.56829 0.65482 0.79922 0.0
C2463 C 0.57177 0.66352 0.73854 0.0
C2464 C 0.56498 0.65086 0.68185 0.0
C2465 C 0.34972 0.90562 0.73271 0.0
C2466 C 0.32959 0.89801 0.72485 0.0
C2467 C 0.36241 0.91216 0.67767 0.0
C2468 C 0.35561 0.9119 0.61258 0.0
H2469 H 0.35571 0.90612 0.78164 0.0
H2470 H 0.37773 0.91761 0.68629 0.0
S2471 S 0.30431 0.89376 0.56475 0.0
N2472 N 0.30349 0.89059 0.6463 0.0
N2473 N 0.32741 0.90353 0.54361 0.0
C2474 C 0.33559 0.90468 0.60409 0.0
C2475 C 0.32259 0.89755 0.65992 0.0
C2476 C 0.10703 0.44657 0.74254 0.0
C2477 C 0.11593 0.43517 0.73574 0.0
C2478 C 0.10088 0.45275 0.68651 0.0
C2479 C 0.10287 0.44734 0.62132 0.0
H2480 H 0.10519 0.45117 0.79149 0.0
H2481 H 0.0944 0.46176 0.69442 0.0
S2482 S 0.12478 0.4172 0.57611 0.0
N2483 N 0.12631 0.41864 0.65821 0.0
N2484 N 0.11422 0.42968 0.55351 0.0
C2485 C 0.11139 0.43562 0.61386 0.0
C2486 C 0.11807 0.42971 0.6708 0.0
C2487 C 0.12207 0.67868 0.69404 0.0
C2488 C 0.11068 0.68601 0.7215 0.0
C2489 C 0.11474 0.66416 0.64459 0.0
C2490 C 0.09572 0.65638 0.61939 0.0
H2491 H 0.13683 0.68415 0.71104 0.0
H2492 H 0.12417 0.65906 0.62573 0.0
S2493 S 0.05978 0.67048 0.6739 0.0
N2494 N 0.07922 0.6842 0.71936 0.0
N2495 N 0.06558 0.65719 0.62641 0.0
C2496 C 0.08417 0.66362 0.64617 0.0
C2497 C 0.09158 0.67829 0.69711 0.0
C2498 C 0.31848 0.4312 0.66994 0.0
C2499 C 0.3256 0.43279 0.73538 0.0
C2500 C 0.33101 0.43753 0.61439 0.0
C2501 C 0.35129 0.44623 0.62185 0.0
H2502 H 0.30303 0.42487 0.66142 0.0
H2503 H 0.32475 0.43599 0.56527 0.0
S2504 S 0.37746 0.45411 0.78245 0.0
N2505 N 0.35435 0.44362 0.80413 0.0
N2506 N 0.37787 0.45602 0.70044 0.0
C2507 C 0.35862 0.44799 0.68707 0.0
C2508 C 0.34581 0.44113 0.74351 0.0
C2509 C 0.56752 0.90741 0.73239 0.0
C2510 C 0.57986 0.89956 0.72499 0.0
C2511 C 0.56125 0.91368 0.67694 0.0
C2512 C 0.56745 0.91291 0.61175 0.0
H2513 H 0.56225 0.90828 0.78132 0.0
H2514 H 0.55151 0.91931 0.6853 0.0
S2515 S 0.60006 0.89399 0.56489 0.0
N2516 N 0.59806 0.89143 0.64668 0.0
N2517 N 0.58681 0.9038 0.54323 0.0
C2518 C 0.58009 0.90546 0.6037 0.0
C2519 C 0.58612 0.89864 0.65999 0.0
C2520 C 0.34641 0.10948 0.10804 0.0
C2521 C 0.3617 0.11859 0.15444 0.0
C2522 C 0.32683 0.09961 0.12821 0.0
C2523 C 0.32147 0.09865 0.19577 0.0
H2524 H 0.3495 0.10968 0.05545 0.0
H2525 H 0.31582 0.09254 0.09017 0.0
S2526 S 0.35574 0.12232 0.33681 0.0
N2527 N 0.36991 0.1271 0.27116 0.0
N2528 N 0.33335 0.10954 0.30837 0.0
C2529 C 0.33659 0.10857 0.24238 0.0
C2530 C 0.35656 0.11826 0.22199 0.0
C2531 C 0.89863 0.24398 0.22019 0.0
C2532 C 0.89458 0.24518 0.15244 0.0
C2533 C 0.90867 0.23447 0.24056 0.0
C2534 C 0.91545 0.22588 0.19423 0.0
H2535 H 0.89415 0.2506 0.25824 0.0
H2536 H 0.91131 0.23411 0.29328 0.0
S2537 S 0.90708 0.22313 0.01114 0.0
N2538 N 0.89688 0.23538 0.03941 0.0
N2539 N 0.91612 0.21813 0.07724 0.0
C2540 C 0.91104 0.22649 0.12643 0.0
C2541 C 0.90057 0.23595 0.10574 0.0
C2542 C 0.76931 0.65795 0.21433 0.0
C2543 C 0.76723 0.65264 0.14642 0.0
C2544 C 0.77894 0.67754 0.23454 0.0
C2545 C 0.78668 0.69288 0.18793 0.0
H2546 H 0.76335 0.64689 0.25264 0.0
H2547 H 0.78002 0.6806 0.28737 0.0
S2548 S 0.787 0.68711 1.00398 0.0
N2549 N 0.77546 0.66468 0.03271 0.0
N2550 N 0.79266 0.70117 0.07028 0.0
C2551 C 0.78518 0.68779 0.1199 0.0
C2552 C 0.77572 0.66784 0.09934 0.0
C2553 C 0.10199 0.32398 0.88528 0.0
C2554 C 0.10048 0.31899 0.81721 0.0
C2555 C 0.11185 0.34346 0.90659 0.0
C2556 C 0.1204 0.35901 0.86091 0.0
H2557 H 0.09543 0.31274 0.92286 0.0
H2558 H 0.11252 0.34626 0.95958 0.0
S2559 S 0.12239 0.3541 0.67717 0.0
N2560 N 0.11006 0.33154 0.70446 0.0
N2561 N 0.12776 0.36789 0.7441 0.0
C2562 C 0.11949 0.35426 0.79276 0.0
C2563 C 0.10975 0.3344 0.7711 0.0
C2564 C 0.68281 0.79364 0.82152 0.0
C2565 C 0.6937 0.78422 0.81437 0.0
C2566 C 0.66336 0.78344 0.84361 0.0
C2567 C 0.65416 0.76346 0.85824 0.0
H2568 H 0.6894 0.80898 0.8106 0.0
H2569 H 0.65545 0.79118 0.84891 0.0
S2570 S 0.67629 0.73216 0.84625 0.0
N2571 N 0.69394 0.75394 0.82444 0.0
N2572 N 0.65726 0.73464 0.86234 0.0
C2573 C 0.66485 0.75391 0.85044 0.0
C2574 C 0.68468 0.76434 0.82946 0.0
C2575 C 0.23768 0.9069 0.77275 0.0
C2576 C 0.22839 0.91282 0.81942 0.0
C2577 C 0.24749 0.89711 0.79244 0.0
C2578 C 0.24828 0.89242 0.85975 0.0
H2579 H 0.23761 0.91003 0.72031 0.0
H2580 H 0.25462 0.8933 0.75421 0.0
S2581 S 0.2245 0.90264 1.00141 0.0
N2582 N 0.21974 0.91217 0.93615 0.0
N2583 N 0.23735 0.89315 0.97252 0.0
C2584 C 0.23836 0.89753 0.90668 0.0
C2585 C 0.22867 0.90784 0.88677 0.0
C2586 C 0.68059 0.9066 0.77226 0.0
C2587 C 0.69592 0.91323 0.81872 0.0
C2588 C 0.66105 0.89718 0.79252 0.0
C2589 C 0.65574 0.89352 0.8603 0.0
H2590 H 0.68362 0.90887 0.71943 0.0
H2591 H 0.65002 0.89283 0.75432 0.0
S2592 S 0.69011 0.90548 1.00195 0.0
N2593 N 0.70424 0.91407 0.93585 0.0
N2594 N 0.66769 0.89569 0.97355 0.0
C2595 C 0.67089 0.89917 0.90717 0.0
C2596 C 0.69085 0.90913 0.88657 0.0
C2597 C 0.10677 0.77439 0.76902 0.0
C2598 C 0.10062 0.78358 0.81529 0.0
C2599 C 0.11652 0.76456 0.78937 0.0
C2600 C 0.12091 0.76366 0.85697 0.0
H2601 H 0.10386 0.77454 0.71642 0.0
H2602 H 0.12053 0.7575 0.75151 0.0
S2603 S 0.10979 0.78698 0.99796 0.0
N2604 N 0.1006 0.79188 0.93206 0.0
N2605 N 0.1195 0.77428 0.96964 0.0
C2606 C 0.1155 0.77344 0.9035 0.0
C2607 C 0.10526 0.78314 0.88293 0.0
C2608 C 0.23547 0.33386 0.78307 0.0
C2609 C 0.22719 0.31837 0.82903 0.0
C2610 C 0.2452 0.35334 0.80398 0.0
C2611 C 0.24685 0.35843 0.87196 0.0
H2612 H 0.23469 0.33102 0.7301 0.0
H2613 H 0.25155 0.36451 0.76609 0.0
S2614 S 0.22548 0.3235 0.01266 0.0
N2615 N 0.22014 0.30959 0.94599 0.0
N2616 N 0.23757 0.34603 0.985 0.0
C2617 C 0.23779 0.34309 0.91842 0.0
C2618 C 0.2282 0.32318 0.89712 0.0
C2619 C 0.91486 0.68729 0.13041 0.0
C2620 C 0.91481 0.69261 0.19749 0.0
C2621 C 0.90483 0.66776 0.10978 0.0
C2622 C 0.89452 0.65247 0.1553 0.0
H2623 H 0.92285 0.69829 0.09315 0.0
H2624 H 0.90549 0.6647 0.05763 0.0
S2625 S 0.88783 0.65836 0.33554 0.0
N2626 N 0.90171 0.68074 0.30823 0.0
N2627 N 0.88376 0.64423 0.27025 0.0
C2628 C 0.89381 0.65757 0.22218 0.0
C2629 C 0.90369 0.67751 0.24297 0.0
C2630 C 0.34599 0.24042 0.11165 0.0
C2631 C 0.36142 0.24523 0.15646 0.0
C2632 C 0.3265 0.23081 0.13292 0.0
C2633 C 0.32139 0.22512 0.19985 0.0
H2634 H 0.34891 0.24439 0.05966 0.0
H2635 H 0.31537 0.228 0.09639 0.0
S2636 S 0.35605 0.23171 0.33576 0.0
N2637 N 0.36998 0.2422 0.27041 0.0
N2638 N 0.3336 0.22327 0.30934 0.0
C2639 C 0.33663 0.22887 0.24443 0.0
C2640 C 0.3565 0.2391 0.2231 0.0
C2641 C 0.76888 0.11399 0.21216 0.0
C2642 C 0.7684 0.11852 0.14452 0.0
C2643 C 0.77876 0.10438 0.23342 0.0
C2644 C 0.78824 0.09833 0.18795 0.0
H2645 H 0.76145 0.11777 0.24933 0.0
H2646 H 0.77868 0.10147 0.28608 0.0
S2647 S 0.79355 0.10872 0.00615 0.0
N2648 N 0.78044 0.11812 0.03318 0.0
N2649 N 0.79776 0.09909 0.07232 0.0
C2650 C 0.78843 0.10333 0.12045 0.0
C2651 C 0.77885 0.11362 0.09904 0.0
C2652 C 0.01323 0.44284 0.44785 0.0
C2653 C 0.0285 0.45218 0.49424 0.0
C2654 C 0.99367 0.43262 0.46794 0.0
C2655 C 0.98825 0.4316 0.53541 0.0
H2656 H 0.0163 0.44314 0.39522 0.0
H2657 H 0.98272 0.42538 0.42983 0.0
S2658 S 0.02235 0.45615 0.67619 0.0
N2659 N 0.03661 0.46107 0.61068 0.0
N2660 N 0.99999 0.44291 0.64785 0.0
C2661 C 1.00331 0.44187 0.58199 0.0
C2662 C 0.02331 0.45188 0.56165 0.0
C2663 C 0.58024 0.56279 0.46015 0.0
C2664 C 0.58125 0.55841 0.52769 0.0
C2665 C 0.57017 0.5723 0.44001 0.0
C2666 C 0.56093 0.57831 0.48645 0.0
H2667 H 0.5874 0.55896 0.42209 0.0
H2668 H 0.56993 0.57517 0.38745 0.0
S2669 S 0.55732 0.56864 0.66882 0.0
N2670 N 0.57029 0.55924 0.64031 0.0
N2671 N 0.55238 0.5779 0.60321 0.0
C2672 C 0.56133 0.57354 0.55399 0.0
C2673 C 0.57121 0.56344 0.57433 0.0
C2674 C 0.44968 0.0202 0.45977 0.0
C2675 C 0.45371 0.02537 0.52759 0.0
C2676 C 0.43993 1.00066 0.43899 0.0
C2677 C 0.43341 0.98522 0.48499 0.0
H2678 H 0.45402 0.03133 0.42198 0.0
H2679 H 0.43735 0.99771 0.38621 0.0
S2680 S 0.44162 0.99065 0.66816 0.0
N2681 N 0.45157 0.01313 0.64031 0.0
N2682 N 0.43273 0.97668 0.60182 0.0
C2683 C 0.4377 0.99017 0.55289 0.0
C2684 C 0.44793 0.01009 0.57395 0.0
C2685 C 0.58089 0.02056 0.45337 0.0
C2686 C 0.58099 0.02589 0.52045 0.0
C2687 C 0.57128 1.00094 0.43328 0.0
C2688 C 0.56163 0.98564 0.47946 0.0
H2689 H 0.58846 0.03162 0.41584 0.0
H2690 H 0.57171 0.99782 0.38104 0.0
S2691 S 0.55574 0.99157 0.66029 0.0
N2692 N 0.56875 0.01394 0.63203 0.0
N2693 N 0.55182 0.97743 0.59517 0.0
C2694 C 0.56118 0.99078 0.54641 0.0
C2695 C 0.57054 0.01074 0.56659 0.0
C2696 C 1.00344 0.56802 0.57319 0.0
C2697 C 0.98793 0.55989 0.52726 0.0
C2698 C 0.02296 0.57765 0.55213 0.0
C2699 C 0.02801 0.5793 0.48405 0.0
H2700 H 1.00057 0.56727 0.6261 0.0
H2701 H 0.03419 0.58397 0.58985 0.0
S2702 S 0.99301 0.55836 0.34335 0.0
N2703 N 0.97921 0.55312 0.41015 0.0
N2704 N 0.01553 0.57016 0.3711 0.0
C2705 C 0.01263 0.57037 0.43775 0.0
C2706 C 0.99277 0.56097 0.45912 0.0
C2707 C 0.43823 0.44165 0.4464 0.0
C2708 C 0.43226 0.45095 0.49284 0.0
C2709 C 0.44792 0.43175 0.46642 0.0
C2710 C 0.45255 0.43097 0.53383 0.0
H2711 H 0.43519 0.44173 0.3939 0.0
H2712 H 0.45172 0.42457 0.42839 0.0
S2713 S 0.44249 0.4551 0.67483 0.0
N2714 N 0.43294 0.45976 0.60939 0.0
N2715 N 0.45196 0.4422 0.64628 0.0
C2716 C 0.44755 0.44106 0.58044 0.0
C2717 C 0.43725 0.45075 0.56022 0.0
C2718 C 0.25826 0.12237 0.23576 0.0
C2719 C 0.26072 0.11373 0.29353 0.0
C2720 C 0.25816 0.13988 0.23755 0.0
C2721 C 0.26064 0.15026 0.29721 0.0
H2722 H 0.25676 0.11581 0.18728 0.0
H2723 H 0.2565 0.14545 0.19031 0.0
S2724 S 0.26762 0.13441 0.46415 0.0
N2725 N 0.26551 0.11703 0.41363 0.0
N2726 N 0.26547 0.15028 0.41696 0.0
C2727 C 0.26284 0.14181 0.3562 0.0
C2728 C 0.26286 0.1236 0.35437 0.0
C2729 C 0.86436 0.13164 0.26196 0.0
C2730 C 0.86057 0.11669 0.30763 0.0
C2731 C 0.88217 0.14905 0.26058 0.0
C2732 C 0.89726 0.15268 0.30523 0.0
H2733 H 0.85359 0.12968 0.22511 0.0
H2734 H 0.88425 0.15966 0.22284 0.0
S2735 S 0.89454 0.1192 0.43909 0.0
N2736 N 0.87315 0.10723 0.40192 0.0
N2737 N 0.90673 0.14028 0.40014 0.0
C2738 C 0.8934 0.13844 0.35416 0.0
C2739 C 0.87507 0.12041 0.35522 0.0
C2740 C 0.88907 0.75214 0.33731 0.0
C2741 C 0.89942 0.75376 0.27793 0.0
C2742 C 0.87113 0.75214 0.33671 0.0
C2743 C 0.86271 0.75387 0.27674 0.0
H2744 H 0.89465 0.75049 0.38458 0.0
H2745 H 0.86368 0.75046 0.38354 0.0
S2746 S 0.88401 0.75897 0.10712 0.0
N2747 N 0.89938 0.75723 0.15739 0.0
N2748 N 0.86694 0.75775 0.15649 0.0
C2749 C 0.8732 0.75584 0.21754 0.0
C2750 C 0.89111 0.75565 0.21807 0.0
C2751 C 0.13586 0.27766 0.74324 0.0
C2752 C 0.12009 0.26495 0.70285 0.0
C2753 C 0.1535 0.27771 0.74241 0.0
C2754 C 0.15643 0.26504 0.70131 0.0
H2755 H 0.13434 0.28725 0.77796 0.0
H2756 H 0.16478 0.28731 0.77669 0.0
S2757 S 0.1204 0.22974 0.58222 0.0
N2758 N 0.109 0.2401 0.61701 0.0
N2759 N 0.14232 0.24013 0.61586 0.0
C2760 C 0.14126 0.253 0.65759 0.0
C2761 C 0.12309 0.25298 0.65827 0.0
C2762 C 0.7637 0.8751 0.66302 0.0
C2763 C 0.74875 0.8588 0.69619 0.0
C2764 C 0.76402 0.89312 0.66146 0.0
C2765 C 0.74932 0.89535 0.6925 0.0
H2766 H 0.7758 0.87427 0.64192 0.0
H2767 H 0.77642 0.90563 0.63962 0.0
S2768 S 0.70604 0.85662 0.77934 0.0
N2769 N 0.71825 0.84586 0.75593 0.0
N2770 N 0.71871 0.8792 0.75228 0.0
C2771 C 0.73381 0.8788 0.72201 0.0
C2772 C 0.73356 0.8607 0.72404 0.0
C2773 C 0.15298 0.87746 0.73799 0.0
C2774 C 0.15574 0.89327 0.69845 0.0
C2775 C 0.13548 0.85971 0.7374 0.0
C2776 C 0.1197 0.85673 0.69722 0.0
H2777 H 0.16426 0.87904 0.77204 0.0
H2778 H 0.13403 0.84841 0.77108 0.0
S2779 S 0.11962 0.89288 0.58062 0.0
N2780 N 0.14149 0.90438 0.6146 0.0
N2781 N 0.1084 0.87085 0.61349 0.0
C2782 C 0.12254 0.87195 0.65423 0.0
C2783 C 0.14058 0.89024 0.65484 0.0
C2784 C 0.9286 0.45711 0.67587 0.0
C2785 C 0.92697 0.4469 0.61607 0.0
C2786 C 0.9287 0.47512 0.67599 0.0
C2787 C 0.92701 0.48373 0.61638 0.0
H2788 H 0.9302 0.45136 0.72286 0.0
H2789 H 0.9304 0.48245 0.72309 0.0
S2790 S 0.92194 0.46291 0.44598 0.0
N2791 N 0.92366 0.44743 0.49561 0.0
N2792 N 0.92312 0.4798 0.4961 0.0
C2793 C 0.925 0.47338 0.55685 0.0
C2794 C 0.92518 0.45546 0.55663 0.0
C2795 C 0.53936 0.45457 0.5633 0.0
C2796 C 0.52898 0.44624 0.62258 0.0
C2797 C 0.55706 0.47204 0.56279 0.0
C2798 C 0.56581 0.4826 0.62151 0.0
H2799 H 0.53369 0.44775 0.51553 0.0
H2800 H 0.56369 0.47741 0.51461 0.0
S2801 S 0.54504 0.46758 0.7915 0.0
N2802 N 0.52904 0.45008 0.74294 0.0
N2803 N 0.56251 0.48314 0.74191 0.0
C2804 C 0.55586 0.47446 0.68187 0.0
C2805 C 0.53752 0.45635 0.68242 0.0
C2806 C 0.56195 0.09519 0.67502 0.0
C2807 C 0.56385 0.08038 0.64328 0.0
C2808 C 0.54397 0.09494 0.67544 0.0
C2809 C 0.52735 0.07988 0.64412 0.0
H2810 H 0.57466 0.10762 0.69577 0.0
H2811 H 0.54341 0.1072 0.69648 0.0
S2812 S 0.52422 0.03669 0.56111 0.0
N2813 N 0.54709 0.04951 0.58518 0.0
N2814 N 0.51373 0.04903 0.58606 0.0
C2815 C 0.52892 0.0645 0.61606 0.0
C2816 C 0.54703 0.06476 0.61561 0.0
C2817 C 0.78823 0.58323 1.00028 0.0
C2818 C 0.78655 0.59823 0.03159 0.0
C2819 C 0.806 0.58307 1.00102 0.0
C2820 C 0.82263 0.59789 0.03307 0.0
H2821 H 0.77547 0.57096 0.97903 0.0
H2822 H 0.80638 0.5707 0.98016 0.0
S2823 S 0.82635 0.64134 0.11581 0.0
N2824 N 0.80359 0.629 0.09023 0.0
N2825 N 0.83652 0.62863 0.09179 0.0
C2826 C 0.8213 0.61342 0.06087 0.0
C2827 C 0.80342 0.61361 0.06005 0.0
C2828 C 0.43061 0.20776 1.00326 0.0
C2829 C 0.41615 0.19129 0.03709 0.0
C2830 C 0.43052 0.22558 1.00325 0.0
C2831 C 0.41596 0.22744 0.03701 0.0
H2832 H 0.44264 0.20722 0.98019 0.0
H2833 H 0.4425 0.2382 0.9802 0.0
S2834 S 0.37374 0.18807 0.12617 0.0
N2835 N 0.38606 0.17771 0.09976 0.0
N2836 N 0.38593 0.21077 0.09984 0.0
C2837 C 0.40093 0.21074 0.06743 0.0
C2838 C 0.40102 0.1928 0.06743 0.0
C2839 C 0.78695 0.20759 1.00079 0.0
C2840 C 0.78482 0.19086 0.03311 0.0
C2841 C 0.8049 0.22537 1.00194 0.0
C2842 C 0.82126 0.22693 0.03525 0.0
H2843 H 0.77445 0.20725 0.97797 0.0
H2844 H 0.80562 0.23818 0.98023 0.0
S2845 S 0.8238 0.18677 0.11992 0.0
N2846 N 0.80112 0.17672 0.09375 0.0
N2847 N 0.83444 0.20963 0.09541 0.0
C2848 C 0.81947 0.20996 0.06389 0.0
C2849 C 0.80139 0.19208 0.06296 0.0
C2850 C 0.61108 0.79821 0.92224 0.0
C2851 C 0.59961 0.78324 0.96742 0.0
C2852 C 0.61107 0.8158 0.92125 0.0
C2853 C 0.59961 0.8196 0.96547 0.0
H2854 H 0.61991 0.79617 0.88562 0.0
H2855 H 0.61989 0.82642 0.88398 0.0
S2856 S 0.56816 0.78614 0.09821 0.0
N2857 N 0.57739 0.77397 0.06122 0.0
N2858 N 0.57742 0.8073 0.05955 0.0
C2859 C 0.58889 0.80531 0.01387 0.0
C2860 C 0.58888 0.78713 0.0148 0.0
C2861 C 0.21095 0.78406 1.00093 0.0
C2862 C 0.19436 0.78202 0.96785 0.0
C2863 C 0.22873 0.80201 1.00095 0.0
C2864 C 0.23045 0.81848 0.96793 0.0
H2865 H 0.21052 0.77148 0.0235 0.0
H2866 H 0.24142 0.80269 0.02347 0.0
S2867 S 0.19063 0.82135 0.88199 0.0
N2868 N 0.18048 0.79857 0.90717 0.0
N2869 N 0.2134 0.83188 0.90748 0.0
C2870 C 0.21361 0.81679 0.9385 0.0
C2871 C 0.19572 0.79871 0.93839 0.0
C2872 C 0.2084 0.42782 0.02044 0.0
C2873 C 0.19163 0.41284 0.98954 0.0
C2874 C 0.22628 0.42787 0.01955 0.0
C2875 C 0.22798 0.41299 0.98737 0.0
H2876 H 0.20802 0.44016 0.04156 0.0
H2877 H 0.23908 0.44021 0.04026 0.0
S2878 S 0.18796 0.36959 0.90523 0.0
N2879 N 0.1777 0.38207 0.9309 0.0
N2880 N 0.21088 0.38219 0.92901 0.0
C2881 C 0.21103 0.39749 0.95988 0.0
C2882 C 0.19301 0.39741 0.96099 0.0
C2883 C 0.45488 0.91751 0.32727 0.0
C2884 C 0.4531 0.93215 0.36082 0.0
C2885 C 0.4727 0.91743 0.32688 0.0
C2886 C 0.48927 0.93201 0.35993 0.0
H2887 H 0.44218 0.90542 0.30501 0.0
H2888 H 0.47314 0.90528 0.30437 0.0
S2889 S 0.49273 0.97466 0.44808 0.0
N2890 N 0.46995 0.96238 0.42258 0.0
N2891 N 0.50303 0.96229 0.42154 0.0
C2892 C 0.48785 0.94726 0.38981 0.0
C2893 C 0.4699 0.94731 0.39034 0.0
C2894 C 0.09694 0.55849 0.33584 0.0
C2895 C 0.08251 0.56051 0.36994 0.0
C2896 C 0.09676 0.54053 0.33514 0.0
C2897 C 0.08207 0.52402 0.36812 0.0
H2898 H 0.10905 0.57109 0.31321 0.0
H2899 H 0.10879 0.53992 0.31235 0.0
S2900 S 0.03986 0.52117 0.45746 0.0
N2901 N 0.05236 0.54395 0.43216 0.0
N2902 N 0.05193 0.51061 0.43039 0.0
C2903 C 0.06704 0.5257 0.39856 0.0
C2904 C 0.06728 0.5438 0.39958 0.0
C2905 C 0.48439 0.54473 0.4155 0.0
C2906 C 0.48759 0.5601 0.3727 0.0
C2907 C 0.46662 0.52727 0.41719 0.0
C2908 C 0.45098 0.52406 0.37593 0.0
H2909 H 0.4956 0.54643 0.45005 0.0
H2910 H 0.46496 0.51633 0.45289 0.0
S2911 S 0.45197 0.55884 0.25055 0.0
N2912 N 0.47383 0.57045 0.28458 0.0
N2913 N 0.44029 0.53737 0.28733 0.0
C2914 C 0.45422 0.53876 0.32973 0.0
C2915 C 0.47252 0.5568 0.32819 0.0
loop_
_geom_bond_atom_site_label_1
_geom_bond_atom_site_label_2
_geom_bond_distance
_geom_bond_site_symmetry_2
_ccdc_geom_bond_type
Co0 O2 2.143 . S
Co0 O8 2.074 . S
Co0 O11 2.093 . S
Co0 O24 2.097 . S
Co0 N41 2.151 . S
Co0 N49 2.214 . S
Co1 O2 2.160 . S
Co1 O7 2.058 . S
Co1 O17 2.057 . S
Co1 O32 2.037 . S
Co1 N36 2.145 . S
Co1 N57 2.257 . S
O2 Co0 2.143 . S
O2 Co1 2.160 . S
C3 O4 1.278 . S
C3 O11 1.224 . S
O4 C3 1.278 . S
C5 O6 1.245 . S
C5 O17 1.232 . S
O6 C5 1.245 . S
O7 Co1 2.058 . S
O7 C33 1.269 . S
O8 Co0 2.074 . S
O8 C33 1.257 . S
H9 C34 0.930 . S
H10 C40 0.930 . S
O11 Co0 2.093 . S
O11 C3 1.224 . S
H12 C44 0.929 . S
H13 C46 0.930 . S
H14 C47 0.930 . S
H15 C45 0.929 . S
H16 C48 0.928 . S
O17 Co1 2.057 . S
O17 C5 1.232 . S
H18 C37 0.929 . S
H19 C38 0.929 . S
H20 C50 0.931 . S
H21 C42 0.929 . S
H22 C51 0.930 . S
H23 C43 0.931 . S
O24 Co0 2.097 . S
O24 C52 1.214 . S
H25 C53 0.929 1_565 S
H26 C54 0.929 . S
H27 C55 0.930 . S
H28 C56 0.929 . S
H29 C58 0.930 . S
H30 C35 0.930 . S
H31 C39 0.930 . S
O32 Co1 2.037 . S
O32 C52 1.234 . S
C33 O7 1.269 . S
C33 O8 1.257 . S
C34 H9 0.930 . S
C34 C37 1.388 . S
C34 C39 1.418 . S
C35 H30 0.930 . S
C35 C38 1.404 . S
C35 C39 1.353 . S
N36 Co1 2.145 . S
N36 C37 1.397 . S
N36 C38 1.334 . S
C37 H18 0.929 . S
C37 C34 1.388 . S
C37 N36 1.397 . S
C38 H19 0.929 . S
C38 C35 1.404 . S
C38 N36 1.334 . S
C39 H31 0.930 . S
C39 C34 1.418 . S
C39 C35 1.353 . S
C40 H10 0.930 . S
C40 N41 1.330 . S
C40 C42 1.446 . S
N41 Co0 2.151 . S
N41 C40 1.330 . S
N41 C45 1.418 . S
C42 H21 0.929 . S
C42 C40 1.446 . S
C42 C43 1.332 . S
C43 H23 0.931 . S
C43 C42 1.332 . S
C43 C44 1.267 . S
C44 H12 0.929 . S
C44 C43 1.267 . S
C44 C45 1.251 . S
C45 H15 0.929 . S
C45 N41 1.418 . S
C45 C44 1.251 . S
C46 H13 0.930 . S
C46 C48 1.406 1_556 S
C46 C51 1.261 . S
C47 H14 0.930 . S
C47 N49 1.325 . S
C47 C50 1.357 . S
C48 H16 0.928 . S
C48 C46 1.406 1_554 S
C48 N49 1.261 . S
N49 Co0 2.214 . S
N49 C47 1.325 . S
N49 C48 1.261 . S
C50 H20 0.931 . S
C50 C47 1.357 . S
C50 C51 1.312 1_554 S
C51 H22 0.930 . S
C51 C46 1.261 . S
C51 C50 1.312 1_556 S
C52 O24 1.214 . S
C52 O32 1.234 . S
C53 H25 0.929 1_545 S
C53 C56 1.391 . S
C53 C58 1.391 . S
C54 H26 0.929 . S
C54 C55 1.390 . S
C54 N57 1.391 . S
C55 H27 0.930 . S
C55 C54 1.390 . S
C55 C56 1.392 . S
C56 H28 0.929 . S
C56 C53 1.391 . S
C56 C55 1.392 . S
N57 Co1 2.257 . S
N57 C54 1.391 . S
N57 C58 1.388 . S
C58 H29 0.930 . S
C58 C53 1.391 . S
C58 N57 1.388 . S
Co59 O61 2.143 . S
Co59 O67 2.074 . S
Co59 O70 2.093 . S
Co59 O83 2.097 . S
Co59 N100 2.151 . S
Co59 N108 2.214 . S
Co60 O61 2.160 . S
Co60 O66 2.058 . S
Co60 O76 2.057 . S
Co60 O91 2.037 . S
Co60 N95 2.145 . S
Co60 N116 2.257 . S
O61 Co59 2.143 . S
O61 Co60 2.160 . S
C62 O63 1.278 . S
C62 O70 1.224 . S
O63 C62 1.278 . S
C64 O65 1.245 . S
C64 O76 1.232 . S
O65 C64 1.245 . S
O66 Co60 2.058 . S
O66 C92 1.269 . S
O67 Co59 2.074 . S
O67 C92 1.257 . S
H68 C93 0.930 . S
H69 C99 0.930 . S
O70 Co59 2.093 . S
O70 C62 1.224 . S
H71 C103 0.929 . S
H72 C105 0.930 . S
H73 C106 0.930 . S
H74 C104 0.929 . S
H75 C107 0.928 . S
O76 Co60 2.057 . S
O76 C64 1.232 . S
H77 C96 0.929 . S
H78 C97 0.929 . S
H79 C109 0.931 . S
H80 C101 0.929 . S
H81 C110 0.930 . S
H82 C102 0.931 . S
O83 Co59 2.097 . S
O83 C111 1.214 . S
H84 C112 0.929 1_455 S
H85 C113 0.929 . S
H86 C114 0.930 . S
H87 C115 0.929 . S
H88 C117 0.930 . S
H89 C94 0.930 . S
H90 C98 0.930 . S
O91 Co60 2.037 . S
O91 C111 1.234 . S
C92 O66 1.269 . S
C92 O67 1.257 . S
C93 H68 0.930 . S
C93 C96 1.388 . S
C93 C98 1.418 . S
C94 H89 0.930 . S
C94 C97 1.404 . S
C94 C98 1.353 . S
N95 Co60 2.145 . S
N95 C96 1.397 . S
N95 C97 1.334 . S
C96 H77 0.929 . S
C96 C93 1.388 . S
C96 N95 1.397 . S
C97 H78 0.929 . S
C97 C94 1.404 . S
C97 N95 1.334 . S
C98 H90 0.930 . S
C98 C93 1.418 . S
C98 C94 1.353 . S
C99 H69 0.930 . S
C99 N100 1.330 . S
C99 C101 1.446 . S
N100 Co59 2.151 . S
N100 C99 1.330 . S
N100 C104 1.418 . S
C101 H80 0.929 . S
C101 C99 1.446 . S
C101 C102 1.332 . S
C102 H82 0.931 . S
C102 C101 1.332 . S
C102 C103 1.267 . S
C103 H71 0.929 . S
C103 C102 1.267 . S
C103 C104 1.251 . S
C104 H74 0.929 . S
C104 N100 1.418 . S
C104 C103 1.251 . S
C105 H72 0.930 . S
C105 C107 1.406 1_556 S
C105 C110 1.261 . S
C106 H73 0.930 . S
C106 N108 1.325 . S
C106 C109 1.357 . S
C107 H75 0.928 . S
C107 C105 1.406 1_554 S
C107 N108 1.261 . S
N108 Co59 2.214 . S
N108 C106 1.325 . S
N108 C107 1.261 . S
C109 H79 0.931 . S
C109 C106 1.357 . S
C109 C110 1.312 1_554 S
C110 H81 0.930 . S
C110 C105 1.261 . S
C110 C109 1.312 1_556 S
C111 O83 1.214 . S
C111 O91 1.234 . S
C112 H84 0.929 1_655 S
C112 C115 1.391 . S
C112 C117 1.391 . S
C113 H85 0.929 . S
C113 C114 1.390 . S
C113 N116 1.391 . S
C114 H86 0.930 . S
C114 C113 1.390 . S
C114 C115 1.392 . S
C115 H87 0.929 . S
C115 C112 1.391 . S
C115 C114 1.392 . S
N116 Co60 2.257 . S
N116 C113 1.391 . S
N116 C117 1.388 . S
C117 H88 0.930 . S
C117 C112 1.391 . S
C117 N116 1.388 . S
Co118 O120 2.143 . S
Co118 O126 2.074 . S
Co118 O129 2.093 . S
Co118 O142 2.097 . S
Co118 N159 2.151 . S
Co118 N167 2.214 . S
Co119 O120 2.160 . S
Co119 O125 2.058 . S
Co119 O135 2.057 . S
Co119 O150 2.037 . S
Co119 N154 2.145 . S
Co119 N175 2.257 . S
O120 Co118 2.143 . S
O120 Co119 2.160 . S
C121 O122 1.278 . S
C121 O129 1.224 . S
O122 C121 1.278 . S
C123 O124 1.245 . S
C123 O135 1.232 . S
O124 C123 1.245 . S
O125 Co119 2.058 . S
O125 C151 1.269 . S
O126 Co118 2.074 . S
O126 C151 1.257 . S
H127 C152 0.930 . S
H128 C158 0.930 . S
O129 Co118 2.093 . S
O129 C121 1.224 . S
H130 C162 0.929 . S
H131 C164 0.930 . S
H132 C165 0.930 . S
H133 C163 0.929 . S
H134 C166 0.928 . S
O135 Co119 2.057 . S
O135 C123 1.232 . S
H136 C155 0.929 . S
H137 C156 0.929 . S
H138 C168 0.931 . S
H139 C160 0.929 . S
H140 C169 0.930 . S
H141 C161 0.931 . S
O142 Co118 2.097 . S
O142 C170 1.214 . S
H143 C171 0.929 . S
H144 C172 0.929 . S
H145 C173 0.930 . S
H146 C174 0.929 . S
H147 C176 0.930 . S
H148 C153 0.930 . S
H149 C157 0.930 . S
O150 Co119 2.037 . S
O150 C170 1.234 . S
C151 O125 1.269 . S
C151 O126 1.257 . S
C152 H127 0.930 . S
C152 C155 1.388 . S
C152 C157 1.418 . S
C153 H148 0.930 . S
C153 C156 1.404 . S
C153 C157 1.353 . S
N154 Co119 2.145 . S
N154 C155 1.397 . S
N154 C156 1.334 . S
C155 H136 0.929 . S
C155 C152 1.388 . S
C155 N154 1.397 . S
C156 H137 0.929 . S
C156 C153 1.404 . S
C156 N154 1.334 . S
C157 H149 0.930 . S
C157 C152 1.418 . S
C157 C153 1.353 . S
C158 H128 0.930 . S
C158 N159 1.330 . S
C158 C160 1.446 . S
N159 Co118 2.151 . S
N159 C158 1.330 . S
N159 C163 1.418 . S
C160 H139 0.929 . S
C160 C158 1.446 . S
C160 C161 1.332 . S
C161 H141 0.931 . S
C161 C160 1.332 . S
C161 C162 1.267 . S
C162 H130 0.929 . S
C162 C161 1.267 . S
C162 C163 1.251 . S
C163 H133 0.929 . S
C163 N159 1.418 . S
C163 C162 1.251 . S
C164 H131 0.930 . S
C164 C166 1.406 1_556 S
C164 C169 1.261 . S
C165 H132 0.930 . S
C165 N167 1.325 . S
C165 C168 1.357 . S
C166 H134 0.928 . S
C166 C164 1.406 1_554 S
C166 N167 1.261 . S
N167 Co118 2.214 . S
N167 C165 1.325 . S
N167 C166 1.261 . S
C168 H138 0.931 . S
C168 C165 1.357 . S
C168 C169 1.312 1_554 S
C169 H140 0.930 . S
C169 C164 1.261 . S
C169 C168 1.312 1_556 S
C170 O142 1.214 . S
C170 O150 1.234 . S
C171 H143 0.929 . S
C171 C174 1.391 . S
C171 C176 1.391 . S
C172 H144 0.929 . S
C172 C173 1.390 . S
C172 N175 1.391 . S
C173 H145 0.930 . S
C173 C172 1.390 . S
C173 C174 1.392 . S
C174 H146 0.929 . S
C174 C171 1.391 . S
C174 C173 1.392 . S
N175 Co119 2.257 . S
N175 C172 1.391 . S
N175 C176 1.388 . S
C176 H147 0.930 . S
C176 C171 1.391 . S
C176 N175 1.388 . S
Co177 O179 2.143 . S
Co177 O185 2.074 . S
Co177 O188 2.093 . S
Co177 O201 2.097 . S
Co177 N218 2.151 . S
Co177 N226 2.214 . S
Co178 O179 2.160 . S
Co178 O184 2.058 . S
Co178 O194 2.057 . S
Co178 O209 2.037 . S
Co178 N213 2.145 . S
Co178 N234 2.257 . S
O179 Co177 2.143 . S
O179 Co178 2.160 . S
C180 O181 1.278 . S
C180 O188 1.224 . S
O181 C180 1.278 . S
C182 O183 1.245 . S
C182 O194 1.232 . S
O183 C182 1.245 . S
O184 Co178 2.058 . S
O184 C210 1.269 . S
O185 Co177 2.074 . S
O185 C210 1.257 . S
H186 C211 0.930 . S
H187 C217 0.930 . S
O188 Co177 2.093 . S
O188 C180 1.224 . S
H189 C221 0.929 . S
H190 C223 0.930 . S
H191 C224 0.930 . S
H192 C222 0.929 . S
H193 C225 0.928 . S
O194 Co178 2.057 . S
O194 C182 1.232 . S
H195 C214 0.929 . S
H196 C215 0.929 . S
H197 C227 0.931 . S
H198 C219 0.929 . S
H199 C228 0.930 . S
H200 C220 0.931 . S
O201 Co177 2.097 . S
O201 C229 1.214 . S
H202 C230 0.929 1_655 S
H203 C231 0.929 . S
H204 C232 0.930 . S
H205 C233 0.929 . S
H206 C235 0.930 . S
H207 C212 0.930 . S
H208 C216 0.930 . S
O209 Co178 2.037 . S
O209 C229 1.234 . S
C210 O184 1.269 . S
C210 O185 1.257 . S
C211 H186 0.930 . S
C211 C214 1.388 . S
C211 C216 1.418 . S
C212 H207 0.930 . S
C212 C215 1.404 . S
C212 C216 1.353 . S
N213 Co178 2.145 . S
N213 C214 1.397 . S
N213 C215 1.334 . S
C214 H195 0.929 . S
C214 C211 1.388 . S
C214 N213 1.397 . S
C215 H196 0.929 . S
C215 C212 1.404 . S
C215 N213 1.334 . S
C216 H208 0.930 . S
C216 C211 1.418 . S
C216 C212 1.353 . S
C217 H187 0.930 . S
C217 N218 1.330 . S
C217 C219 1.446 . S
N218 Co177 2.151 . S
N218 C217 1.330 . S
N218 C222 1.418 . S
C219 H198 0.929 . S
C219 C217 1.446 . S
C219 C220 1.332 . S
C220 H200 0.931 . S
C220 C219 1.332 . S
C220 C221 1.267 . S
C221 H189 0.929 . S
C221 C220 1.267 . S
C221 C222 1.251 . S
C222 H192 0.929 . S
C222 N218 1.418 . S
C222 C221 1.251 . S
C223 H190 0.930 . S
C223 C225 1.406 1_554 S
C223 C228 1.261 . S
C224 H191 0.930 . S
C224 N226 1.325 . S
C224 C227 1.357 . S
C225 H193 0.928 . S
C225 C223 1.406 1_556 S
C225 N226 1.261 . S
N226 Co177 2.214 . S
N226 C224 1.325 . S
N226 C225 1.261 . S
C227 H197 0.931 . S
C227 C224 1.357 . S
C227 C228 1.312 1_556 S
C228 H199 0.930 . S
C228 C223 1.261 . S
C228 C227 1.312 1_554 S
C229 O201 1.214 . S
C229 O209 1.234 . S
C230 H202 0.929 1_455 S
C230 C233 1.391 . S
C230 C235 1.391 . S
C231 H203 0.929 . S
C231 C232 1.390 . S
C231 N234 1.391 . S
C232 H204 0.930 . S
C232 C231 1.390 . S
C232 C233 1.392 . S
C233 H205 0.929 . S
C233 C230 1.391 . S
C233 C232 1.392 . S
N234 Co178 2.257 . S
N234 C231 1.391 . S
N234 C235 1.388 . S
C235 H206 0.930 . S
C235 C230 1.391 . S
C235 N234 1.388 . S
Co236 O238 2.143 . S
Co236 O244 2.074 . S
Co236 O247 2.093 . S
Co236 O260 2.097 . S
Co236 N277 2.151 . S
Co236 N285 2.214 . S
Co237 O238 2.160 . S
Co237 O243 2.058 . S
Co237 O253 2.057 . S
Co237 O268 2.037 . S
Co237 N272 2.145 . S
Co237 N293 2.257 . S
O238 Co236 2.143 . S
O238 Co237 2.160 . S
C239 O240 1.278 . S
C239 O247 1.224 . S
O240 C239 1.278 . S
C241 O242 1.245 . S
C241 O253 1.232 . S
O242 C241 1.245 . S
O243 Co237 2.058 . S
O243 C269 1.269 . S
O244 Co236 2.074 . S
O244 C269 1.257 . S
H245 C270 0.930 . S
H246 C276 0.930 . S
O247 Co236 2.093 . S
O247 C239 1.224 . S
H248 C280 0.929 . S
H249 C282 0.930 . S
H250 C283 0.930 . S
H251 C281 0.929 . S
H252 C284 0.928 . S
O253 Co237 2.057 . S
O253 C241 1.232 . S
H254 C273 0.929 . S
H255 C274 0.929 . S
H256 C286 0.931 . S
H257 C278 0.929 . S
H258 C287 0.930 . S
H259 C279 0.931 . S
O260 Co236 2.097 . S
O260 C288 1.214 . S
H261 C289 0.929 . S
H262 C290 0.929 . S
H263 C291 0.930 . S
H264 C292 0.929 . S
H265 C294 0.930 . S
H266 C271 0.930 . S
H267 C275 0.930 . S
O268 Co237 2.037 . S
O268 C288 1.234 . S
C269 O243 1.269 . S
C269 O244 1.257 . S
C270 H245 0.930 . S
C270 C273 1.388 . S
C270 C275 1.418 . S
C271 H266 0.930 . S
C271 C274 1.404 . S
C271 C275 1.353 . S
N272 Co237 2.145 . S
N272 C273 1.397 . S
N272 C274 1.334 . S
C273 H254 0.929 . S
C273 C270 1.388 . S
C273 N272 1.397 . S
C274 H255 0.929 . S
C274 C271 1.404 . S
C274 N272 1.334 . S
C275 H267 0.930 . S
C275 C270 1.418 . S
C275 C271 1.353 . S
C276 H246 0.930 . S
C276 N277 1.330 . S
C276 C278 1.446 . S
N277 Co236 2.151 . S
N277 C276 1.330 . S
N277 C281 1.418 . S
C278 H257 0.929 . S
C278 C276 1.446 . S
C278 C279 1.332 . S
C279 H259 0.931 . S
C279 C278 1.332 . S
C279 C280 1.267 . S
C280 H248 0.929 . S
C280 C279 1.267 . S
C280 C281 1.251 . S
C281 H251 0.929 . S
C281 N277 1.418 . S
C281 C280 1.251 . S
C282 H249 0.930 . S
C282 C284 1.406 1_554 S
C282 C287 1.261 . S
C283 H250 0.930 . S
C283 N285 1.325 . S
C283 C286 1.357 . S
C284 H252 0.928 . S
C284 C282 1.406 1_556 S
C284 N285 1.261 . S
N285 Co236 2.214 . S
N285 C283 1.325 . S
N285 C284 1.261 . S
C286 H256 0.931 . S
C286 C283 1.357 . S
C286 C287 1.312 1_556 S
C287 H258 0.930 . S
C287 C282 1.261 . S
C287 C286 1.312 1_554 S
C288 O260 1.214 . S
C288 O268 1.234 . S
C289 H261 0.929 . S
C289 C292 1.391 . S
C289 C294 1.391 . S
C290 H262 0.929 . S
C290 C291 1.390 . S
C290 N293 1.391 . S
C291 H263 0.930 . S
C291 C290 1.390 . S
C291 C292 1.392 . S
C292 H264 0.929 . S
C292 C289 1.391 . S
C292 C291 1.392 . S
N293 Co237 2.257 . S
N293 C290 1.391 . S
N293 C294 1.388 . S
C294 H265 0.930 . S
C294 C289 1.391 . S
C294 N293 1.388 . S
Co295 O297 2.143 . S
Co295 O303 2.074 . S
Co295 O306 2.093 . S
Co295 O319 2.097 . S
Co295 N336 2.151 . S
Co295 N344 2.214 . S
Co296 O297 2.160 . S
Co296 O302 2.058 . S
Co296 O312 2.057 . S
Co296 O327 2.037 . S
Co296 N331 2.145 . S
Co296 N352 2.257 . S
O297 Co295 2.143 . S
O297 Co296 2.160 . S
C298 O299 1.278 . S
C298 O306 1.224 . S
O299 C298 1.278 . S
C300 O301 1.245 . S
C300 O312 1.232 . S
O301 C300 1.245 . S
O302 Co296 2.058 . S
O302 C328 1.269 . S
O303 Co295 2.074 . S
O303 C328 1.257 . S
H304 C329 0.930 . S
H305 C335 0.930 . S
O306 Co295 2.093 . S
O306 C298 1.224 . S
H307 C339 0.929 . S
H308 C341 0.930 . S
H309 C342 0.930 . S
H310 C340 0.929 . S
H311 C343 0.928 . S
O312 Co296 2.057 . S
O312 C300 1.232 . S
H313 C332 0.929 . S
H314 C333 0.929 . S
H315 C345 0.931 . S
H316 C337 0.929 . S
H317 C346 0.930 . S
H318 C338 0.931 . S
O319 Co295 2.097 . S
O319 C347 1.214 . S
H320 C348 0.929 1_545 S
H321 C349 0.929 . S
H322 C350 0.930 . S
H323 C351 0.929 . S
H324 C353 0.930 . S
H325 C330 0.930 . S
H326 C334 0.930 . S
O327 Co296 2.037 . S
O327 C347 1.234 . S
C328 O302 1.269 . S
C328 O303 1.257 . S
C329 H304 0.930 . S
C329 C332 1.388 . S
C329 C334 1.418 . S
C330 H325 0.930 . S
C330 C333 1.404 . S
C330 C334 1.353 . S
N331 Co296 2.145 . S
N331 C332 1.397 . S
N331 C333 1.334 . S
C332 H313 0.929 . S
C332 C329 1.388 . S
C332 N331 1.397 . S
C333 H314 0.929 . S
C333 C330 1.404 . S
C333 N331 1.334 . S
C334 H326 0.930 . S
C334 C329 1.418 . S
C334 C330 1.353 . S
C335 H305 0.930 . S
C335 N336 1.330 . S
C335 C337 1.446 . S
N336 Co295 2.151 . S
N336 C335 1.330 . S
N336 C340 1.418 . S
C337 H316 0.929 . S
C337 C335 1.446 . S
C337 C338 1.332 . S
C338 H318 0.931 . S
C338 C337 1.332 . S
C338 C339 1.267 . S
C339 H307 0.929 . S
C339 C338 1.267 . S
C339 C340 1.251 . S
C340 H310 0.929 . S
C340 N336 1.418 . S
C340 C339 1.251 . S
C341 H308 0.930 . S
C341 C343 1.406 1_554 S
C341 C346 1.261 . S
C342 H309 0.930 . S
C342 N344 1.325 . S
C342 C345 1.357 . S
C343 H311 0.928 . S
C343 C341 1.406 1_556 S
C343 N344 1.261 . S
N344 Co295 2.214 . S
N344 C342 1.325 . S
N344 C343 1.261 . S
C345 H315 0.931 . S
C345 C342 1.357 . S
C345 C346 1.312 1_556 S
C346 H317 0.930 . S
C346 C341 1.261 . S
C346 C345 1.312 1_554 S
C347 O319 1.214 . S
C347 O327 1.234 . S
C348 H320 0.929 1_565 S
C348 C351 1.391 . S
C348 C353 1.391 . S
C349 H321 0.929 . S
C349 C350 1.390 . S
C349 N352 1.391 . S
C350 H322 0.930 . S
C350 C349 1.390 . S
C350 C351 1.392 . S
C351 H323 0.929 . S
C351 C348 1.391 . S
C351 C350 1.392 . S
N352 Co296 2.257 . S
N352 C349 1.391 . S
N352 C353 1.388 . S
C353 H324 0.930 . S
C353 C348 1.391 . S
C353 N352 1.388 . S
Co354 O356 2.143 . S
Co354 O362 2.074 . S
Co354 O365 2.093 . S
Co354 O378 2.097 . S
Co354 N395 2.151 . S
Co354 N403 2.214 . S
Co355 O356 2.160 . S
Co355 O361 2.058 . S
Co355 O371 2.057 . S
Co355 O386 2.037 . S
Co355 N390 2.145 . S
Co355 N411 2.257 . S
O356 Co354 2.143 . S
O356 Co355 2.160 . S
C357 O358 1.278 . S
C357 O365 1.224 . S
O358 C357 1.278 . S
C359 O360 1.245 . S
C359 O371 1.232 . S
O360 C359 1.245 . S
O361 Co355 2.058 . S
O361 C387 1.269 . S
O362 Co354 2.074 . S
O362 C387 1.257 . S
H363 C388 0.930 . S
H364 C394 0.930 . S
O365 Co354 2.093 . S
O365 C357 1.224 . S
H366 C398 0.929 . S
H367 C400 0.930 . S
H368 C401 0.930 . S
H369 C399 0.929 . S
H370 C402 0.928 . S
O371 Co355 2.057 . S
O371 C359 1.232 . S
H372 C391 0.929 . S
H373 C392 0.929 . S
H374 C404 0.931 . S
H375 C396 0.929 . S
H376 C405 0.930 . S
H377 C397 0.931 . S
O378 Co354 2.097 . S
O378 C406 1.214 . S
H379 C407 0.929 1_545 S
H380 C408 0.929 . S
H381 C409 0.930 . S
H382 C410 0.929 . S
H383 C412 0.930 . S
H384 C389 0.930 . S
H385 C393 0.930 . S
O386 Co355 2.037 . S
O386 C406 1.234 . S
C387 O361 1.269 . S
C387 O362 1.257 . S
C388 H363 0.930 . S
C388 C391 1.388 . S
C388 C393 1.418 . S
C389 H384 0.930 . S
C389 C392 1.404 . S
C389 C393 1.353 . S
N390 Co355 2.145 . S
N390 C391 1.397 . S
N390 C392 1.334 . S
C391 H372 0.929 . S
C391 C388 1.388 . S
C391 N390 1.397 . S
C392 H373 0.929 . S
C392 C389 1.404 . S
C392 N390 1.334 . S
C393 H385 0.930 . S
C393 C388 1.418 . S
C393 C389 1.353 . S
C394 H364 0.930 . S
C394 N395 1.330 . S
C394 C396 1.446 . S
N395 Co354 2.151 . S
N395 C394 1.330 . S
N395 C399 1.418 . S
C396 H375 0.929 . S
C396 C394 1.446 . S
C396 C397 1.332 . S
C397 H377 0.931 . S
C397 C396 1.332 . S
C397 C398 1.267 . S
C398 H366 0.929 . S
C398 C397 1.267 . S
C398 C399 1.251 . S
C399 H369 0.929 . S
C399 N395 1.418 . S
C399 C398 1.251 . S
C400 H367 0.930 . S
C400 C402 1.406 1_554 S
C400 C405 1.261 . S
C401 H368 0.930 . S
C401 N403 1.325 . S
C401 C404 1.357 . S
C402 H370 0.928 . S
C402 C400 1.406 1_556 S
C402 N403 1.261 . S
N403 Co354 2.214 . S
N403 C401 1.325 . S
N403 C402 1.261 . S
C404 H374 0.931 . S
C404 C401 1.357 . S
C404 C405 1.312 1_556 S
C405 H376 0.930 . S
C405 C400 1.261 . S
C405 C404 1.312 1_554 S
C406 O378 1.214 . S
C406 O386 1.234 . S
C407 H379 0.929 1_565 S
C407 C410 1.391 . S
C407 C412 1.391 . S
C408 H380 0.929 . S
C408 C409 1.390 . S
C408 N411 1.391 . S
C409 H381 0.930 . S
C409 C408 1.390 . S
C409 C410 1.392 . S
C410 H382 0.929 . S
C410 C407 1.391 . S
C410 C409 1.392 . S
N411 Co355 2.257 . S
N411 C408 1.391 . S
N411 C412 1.388 . S
C412 H383 0.930 . S
C412 C407 1.391 . S
C412 N411 1.388 . S
Co413 O415 2.143 . S
Co413 O421 2.074 . S
Co413 O424 2.093 . S
Co413 O437 2.097 . S
Co413 N454 2.151 . S
Co413 N462 2.214 . S
Co414 O415 2.160 . S
Co414 O420 2.058 . S
Co414 O430 2.057 . S
Co414 O445 2.037 . S
Co414 N449 2.145 . S
Co414 N470 2.257 . S
O415 Co413 2.143 . S
O415 Co414 2.160 . S
C416 O417 1.278 . S
C416 O424 1.224 . S
O417 C416 1.278 . S
C418 O419 1.245 . S
C418 O430 1.232 . S
O419 C418 1.245 . S
O420 Co414 2.058 . S
O420 C446 1.269 . S
O421 Co413 2.074 . S
O421 C446 1.257 . S
H422 C447 0.930 . S
H423 C453 0.930 . S
O424 Co413 2.093 . S
O424 C416 1.224 . S
H425 C457 0.929 . S
H426 C459 0.930 . S
H427 C460 0.930 . S
H428 C458 0.929 . S
H429 C461 0.928 . S
O430 Co414 2.057 . S
O430 C418 1.232 . S
H431 C450 0.929 . S
H432 C451 0.929 . S
H433 C463 0.931 . S
H434 C455 0.929 . S
H435 C464 0.930 . S
H436 C456 0.931 . S
O437 Co413 2.097 . S
O437 C465 1.214 . S
H438 C466 0.929 . S
H439 C467 0.929 . S
H440 C468 0.930 . S
H441 C469 0.929 . S
H442 C471 0.930 . S
H443 C448 0.930 . S
H444 C452 0.930 . S
O445 Co414 2.037 . S
O445 C465 1.234 . S
C446 O420 1.269 . S
C446 O421 1.257 . S
C447 H422 0.930 . S
C447 C450 1.388 . S
C447 C452 1.418 1_556 S
C448 H443 0.930 . S
C448 C451 1.404 1_554 S
C448 C452 1.353 . S
N449 Co414 2.145 . S
N449 C450 1.397 . S
N449 C451 1.334 . S
C450 H431 0.929 . S
C450 C447 1.388 . S
C450 N449 1.397 . S
C451 H432 0.929 . S
C451 C448 1.404 1_556 S
C451 N449 1.334 . S
C452 H444 0.930 . S
C452 C447 1.418 1_554 S
C452 C448 1.353 . S
C453 H423 0.930 . S
C453 N454 1.330 . S
C453 C455 1.446 . S
N454 Co413 2.151 . S
N454 C453 1.330 . S
N454 C458 1.418 . S
C455 H434 0.929 . S
C455 C453 1.446 . S
C455 C456 1.332 . S
C456 H436 0.931 . S
C456 C455 1.332 . S
C456 C457 1.267 . S
C457 H425 0.929 . S
C457 C456 1.267 . S
C457 C458 1.251 . S
C458 H428 0.929 . S
C458 N454 1.418 . S
C458 C457 1.251 . S
C459 H426 0.930 . S
C459 C461 1.406 . S
C459 C464 1.261 . S
C460 H427 0.930 . S
C460 N462 1.325 . S
C460 C463 1.357 . S
C461 H429 0.928 . S
C461 C459 1.406 . S
C461 N462 1.261 . S
N462 Co413 2.214 . S
N462 C460 1.325 . S
N462 C461 1.261 . S
C463 H433 0.931 . S
C463 C460 1.357 . S
C463 C464 1.312 . S
C464 H435 0.930 . S
C464 C459 1.261 . S
C464 C463 1.312 . S
C465 O437 1.214 . S
C465 O445 1.234 . S
C466 H438 0.929 . S
C466 C469 1.391 . S
C466 C471 1.391 . S
C467 H439 0.929 . S
C467 C468 1.390 . S
C467 N470 1.391 . S
C468 H440 0.930 . S
C468 C467 1.390 . S
C468 C469 1.392 . S
C469 H441 0.929 . S
C469 C466 1.391 . S
C469 C468 1.392 . S
N470 Co414 2.257 . S
N470 C467 1.391 . S
N470 C471 1.388 . S
C471 H442 0.930 . S
C471 C466 1.391 . S
C471 N470 1.388 . S
Co472 O474 2.143 . S
Co472 O480 2.074 . S
Co472 O483 2.093 . S
Co472 O496 2.097 . S
Co472 N513 2.151 . S
Co472 N521 2.214 . S
Co473 O474 2.160 . S
Co473 O479 2.058 . S
Co473 O489 2.057 . S
Co473 O504 2.037 . S
Co473 N508 2.145 . S
Co473 N529 2.257 . S
O474 Co472 2.143 . S
O474 Co473 2.160 . S
C475 O476 1.278 . S
C475 O483 1.224 . S
O476 C475 1.278 . S
C477 O478 1.245 . S
C477 O489 1.232 . S
O478 C477 1.245 . S
O479 Co473 2.058 . S
O479 C505 1.269 . S
O480 Co472 2.074 . S
O480 C505 1.257 . S
H481 C506 0.930 . S
H482 C512 0.930 . S
O483 Co472 2.093 . S
O483 C475 1.224 . S
H484 C516 0.929 . S
H485 C518 0.930 . S
H486 C519 0.930 . S
H487 C517 0.929 . S
H488 C520 0.928 . S
O489 Co473 2.057 . S
O489 C477 1.232 . S
H490 C509 0.929 . S
H491 C510 0.929 . S
H492 C522 0.931 . S
H493 C514 0.929 . S
H494 C523 0.930 . S
H495 C515 0.931 . S
O496 Co472 2.097 . S
O496 C524 1.214 . S
H497 C525 0.929 . S
H498 C526 0.929 . S
H499 C527 0.930 . S
H500 C528 0.929 . S
H501 C530 0.930 . S
H502 C507 0.930 . S
H503 C511 0.930 . S
O504 Co473 2.037 . S
O504 C524 1.234 . S
C505 O479 1.269 . S
C505 O480 1.257 . S
C506 H481 0.930 . S
C506 C509 1.388 . S
C506 C511 1.418 . S
C507 H502 0.930 . S
C507 C510 1.404 . S
C507 C511 1.353 . S
N508 Co473 2.145 . S
N508 C509 1.397 . S
N508 C510 1.334 . S
C509 H490 0.929 . S
C509 C506 1.388 . S
C509 N508 1.397 . S
C510 H491 0.929 . S
C510 C507 1.404 . S
C510 N508 1.334 . S
C511 H503 0.930 . S
C511 C506 1.418 . S
C511 C507 1.353 . S
C512 H482 0.930 . S
C512 N513 1.330 . S
C512 C514 1.446 . S
N513 Co472 2.151 . S
N513 C512 1.330 . S
N513 C517 1.418 . S
C514 H493 0.929 . S
C514 C512 1.446 . S
C514 C515 1.332 . S
C515 H495 0.931 . S
C515 C514 1.332 . S
C515 C516 1.267 . S
C516 H484 0.929 . S
C516 C515 1.267 . S
C516 C517 1.251 . S
C517 H487 0.929 . S
C517 N513 1.418 . S
C517 C516 1.251 . S
C518 H485 0.930 . S
C518 C520 1.406 1_554 S
C518 C523 1.261 . S
C519 H486 0.930 . S
C519 N521 1.325 . S
C519 C522 1.357 . S
C520 H488 0.928 . S
C520 C518 1.406 1_556 S
C520 N521 1.261 . S
N521 Co472 2.214 . S
N521 C519 1.325 . S
N521 C520 1.261 . S
C522 H492 0.931 . S
C522 C519 1.357 . S
C522 C523 1.312 1_556 S
C523 H494 0.930 . S
C523 C518 1.261 . S
C523 C522 1.312 1_554 S
C524 O496 1.214 . S
C524 O504 1.234 . S
C525 H497 0.929 . S
C525 C528 1.391 . S
C525 C530 1.391 . S
C526 H498 0.929 . S
C526 C527 1.390 . S
C526 N529 1.391 . S
C527 H499 0.930 . S
C527 C526 1.390 . S
C527 C528 1.392 . S
C528 H500 0.929 . S
C528 C525 1.391 . S
C528 C527 1.392 . S
N529 Co473 2.257 . S
N529 C526 1.391 . S
N529 C530 1.388 . S
C530 H501 0.930 . S
C530 C525 1.391 . S
C530 N529 1.388 . S
Co531 O533 2.143 . S
Co531 O539 2.074 . S
Co531 O542 2.093 . S
Co531 O555 2.097 . S
Co531 N572 2.151 . S
Co531 N580 2.214 . S
Co532 O533 2.160 . S
Co532 O538 2.058 . S
Co532 O548 2.057 . S
Co532 O563 2.037 . S
Co532 N567 2.145 . S
Co532 N588 2.257 . S
O533 Co531 2.143 . S
O533 Co532 2.160 . S
C534 O535 1.278 . S
C534 O542 1.224 . S
O535 C534 1.278 . S
C536 O537 1.245 . S
C536 O548 1.232 . S
O537 C536 1.245 . S
O538 Co532 2.058 . S
O538 C564 1.269 . S
O539 Co531 2.074 . S
O539 C564 1.257 . S
H540 C565 0.930 . S
H541 C571 0.930 . S
O542 Co531 2.093 . S
O542 C534 1.224 . S
H543 C575 0.929 . S
H544 C577 0.930 . S
H545 C578 0.930 . S
H546 C576 0.929 . S
H547 C579 0.928 . S
O548 Co532 2.057 . S
O548 C536 1.232 . S
H549 C568 0.929 . S
H550 C569 0.929 . S
H551 C581 0.931 . S
H552 C573 0.929 . S
H553 C582 0.930 . S
H554 C574 0.931 . S
O555 Co531 2.097 . S
O555 C583 1.214 . S
H556 C584 0.929 1_455 S
H557 C585 0.929 . S
H558 C586 0.930 . S
H559 C587 0.929 . S
H560 C589 0.930 . S
H561 C566 0.930 . S
H562 C570 0.930 . S
O563 Co532 2.037 . S
O563 C583 1.234 . S
C564 O538 1.269 . S
C564 O539 1.257 . S
C565 H540 0.930 . S
C565 C568 1.388 . S
C565 C570 1.418 . S
C566 H561 0.930 . S
C566 C569 1.404 . S
C566 C570 1.353 . S
N567 Co532 2.145 . S
N567 C568 1.397 . S
N567 C569 1.334 . S
C568 H549 0.929 . S
C568 C565 1.388 . S
C568 N567 1.397 . S
C569 H550 0.929 . S
C569 C566 1.404 . S
C569 N567 1.334 . S
C570 H562 0.930 . S
C570 C565 1.418 . S
C570 C566 1.353 . S
C571 H541 0.930 . S
C571 N572 1.330 . S
C571 C573 1.446 . S
N572 Co531 2.151 . S
N572 C571 1.330 . S
N572 C576 1.418 . S
C573 H552 0.929 . S
C573 C571 1.446 . S
C573 C574 1.332 . S
C574 H554 0.931 . S
C574 C573 1.332 . S
C574 C575 1.267 . S
C575 H543 0.929 . S
C575 C574 1.267 . S
C575 C576 1.251 . S
C576 H546 0.929 . S
C576 N572 1.418 . S
C576 C575 1.251 . S
C577 H544 0.930 . S
C577 C579 1.406 1_556 S
C577 C582 1.261 . S
C578 H545 0.930 . S
C578 N580 1.325 . S
C578 C581 1.357 . S
C579 H547 0.928 . S
C579 C577 1.406 1_554 S
C579 N580 1.261 . S
N580 Co531 2.214 . S
N580 C578 1.325 . S
N580 C579 1.261 . S
C581 H551 0.931 . S
C581 C578 1.357 . S
C581 C582 1.312 1_554 S
C582 H553 0.930 . S
C582 C577 1.261 . S
C582 C581 1.312 1_556 S
C583 O555 1.214 . S
C583 O563 1.234 . S
C584 H556 0.929 1_655 S
C584 C587 1.391 . S
C584 C589 1.391 . S
C585 H557 0.929 . S
C585 C586 1.390 . S
C585 N588 1.391 . S
C586 H558 0.930 . S
C586 C585 1.390 . S
C586 C587 1.392 . S
C587 H559 0.929 . S
C587 C584 1.391 . S
C587 C586 1.392 . S
N588 Co532 2.257 . S
N588 C585 1.391 . S
N588 C589 1.388 . S
C589 H560 0.930 . S
C589 C584 1.391 . S
C589 N588 1.388 . S
Co590 O592 2.143 . S
Co590 O598 2.074 . S
Co590 O601 2.093 . S
Co590 O614 2.097 . S
Co590 N631 2.151 . S
Co590 N639 2.214 . S
Co591 O592 2.160 . S
Co591 O597 2.058 . S
Co591 O607 2.057 . S
Co591 O622 2.037 . S
Co591 N626 2.145 . S
Co591 N647 2.257 . S
O592 Co590 2.143 . S
O592 Co591 2.160 . S
C593 O594 1.278 . S
C593 O601 1.224 . S
O594 C593 1.278 . S
C595 O596 1.245 . S
C595 O607 1.232 . S
O596 C595 1.245 . S
O597 Co591 2.058 . S
O597 C623 1.269 . S
O598 Co590 2.074 . S
O598 C623 1.257 . S
H599 C624 0.930 . S
H600 C630 0.930 . S
O601 Co590 2.093 . S
O601 C593 1.224 . S
H602 C634 0.929 . S
H603 C636 0.930 . S
H604 C637 0.930 . S
H605 C635 0.929 . S
H606 C638 0.928 . S
O607 Co591 2.057 . S
O607 C595 1.232 . S
H608 C627 0.929 . S
H609 C628 0.929 . S
H610 C640 0.931 . S
H611 C632 0.929 . S
H612 C641 0.930 . S
H613 C633 0.931 . S
O614 Co590 2.097 . S
O614 C642 1.214 . S
H615 C643 0.929 . S
H616 C644 0.929 . S
H617 C645 0.930 . S
H618 C646 0.929 . S
H619 C648 0.930 . S
H620 C625 0.930 . S
H621 C629 0.930 . S
O622 Co591 2.037 . S
O622 C642 1.234 . S
C623 O597 1.269 . S
C623 O598 1.257 . S
C624 H599 0.930 . S
C624 C627 1.388 . S
C624 C629 1.418 1_554 S
C625 H620 0.930 . S
C625 C628 1.404 1_556 S
C625 C629 1.353 . S
N626 Co591 2.145 . S
N626 C627 1.397 . S
N626 C628 1.334 . S
C627 H608 0.929 . S
C627 C624 1.388 . S
C627 N626 1.397 . S
C628 H609 0.929 . S
C628 C625 1.404 1_554 S
C628 N626 1.334 . S
C629 H621 0.930 . S
C629 C624 1.418 1_556 S
C629 C625 1.353 . S
C630 H600 0.930 . S
C630 N631 1.330 . S
C630 C632 1.446 . S
N631 Co590 2.151 . S
N631 C630 1.330 . S
N631 C635 1.418 . S
C632 H611 0.929 . S
C632 C630 1.446 . S
C632 C633 1.332 . S
C633 H613 0.931 . S
C633 C632 1.332 . S
C633 C634 1.267 . S
C634 H602 0.929 . S
C634 C633 1.267 . S
C634 C635 1.251 . S
C635 H605 0.929 . S
C635 N631 1.418 . S
C635 C634 1.251 . S
C636 H603 0.930 . S
C636 C638 1.406 . S
C636 C641 1.261 . S
C637 H604 0.930 . S
C637 N639 1.325 . S
C637 C640 1.357 . S
C638 H606 0.928 . S
C638 C636 1.406 . S
C638 N639 1.261 . S
N639 Co590 2.214 . S
N639 C637 1.325 . S
N639 C638 1.261 . S
C640 H610 0.931 . S
C640 C637 1.357 . S
C640 C641 1.312 . S
C641 H612 0.930 . S
C641 C636 1.261 . S
C641 C640 1.312 . S
C642 O614 1.214 . S
C642 O622 1.234 . S
C643 H615 0.929 . S
C643 C646 1.391 . S
C643 C648 1.391 . S
C644 H616 0.929 . S
C644 C645 1.390 . S
C644 N647 1.391 . S
C645 H617 0.930 . S
C645 C644 1.390 . S
C645 C646 1.392 . S
C646 H618 0.929 . S
C646 C643 1.391 . S
C646 C645 1.392 . S
N647 Co591 2.257 . S
N647 C644 1.391 . S
N647 C648 1.388 . S
C648 H619 0.930 . S
C648 C643 1.391 . S
C648 N647 1.388 . S
Co649 O651 2.143 . S
Co649 O657 2.074 . S
Co649 O660 2.093 . S
Co649 O673 2.097 . S
Co649 N690 2.151 . S
Co649 N698 2.214 . S
Co650 O651 2.160 . S
Co650 O656 2.058 . S
Co650 O666 2.057 . S
Co650 O681 2.037 . S
Co650 N685 2.145 . S
Co650 N706 2.257 . S
O651 Co649 2.143 . S
O651 Co650 2.160 . S
C652 O653 1.278 . S
C652 O660 1.224 . S
O653 C652 1.278 . S
C654 O655 1.245 . S
C654 O666 1.232 . S
O655 C654 1.245 . S
O656 Co650 2.058 . S
O656 C682 1.269 . S
O657 Co649 2.074 . S
O657 C682 1.257 . S
H658 C683 0.930 . S
H659 C689 0.930 . S
O660 Co649 2.093 . S
O660 C652 1.224 . S
H661 C693 0.929 . S
H662 C695 0.930 . S
H663 C696 0.930 . S
H664 C694 0.929 . S
H665 C697 0.928 . S
O666 Co650 2.057 . S
O666 C654 1.232 . S
H667 C686 0.929 . S
H668 C687 0.929 . S
H669 C699 0.931 . S
H670 C691 0.929 . S
H671 C700 0.930 . S
H672 C692 0.931 . S
O673 Co649 2.097 . S
O673 C701 1.214 . S
H674 C702 0.929 1_565 S
H675 C703 0.929 . S
H676 C704 0.930 . S
H677 C705 0.929 . S
H678 C707 0.930 . S
H679 C684 0.930 . S
H680 C688 0.930 . S
O681 Co650 2.037 . S
O681 C701 1.234 . S
C682 O656 1.269 . S
C682 O657 1.257 . S
C683 H658 0.930 . S
C683 C686 1.388 . S
C683 C688 1.418 . S
C684 H679 0.930 . S
C684 C687 1.404 . S
C684 C688 1.353 . S
N685 Co650 2.145 . S
N685 C686 1.397 . S
N685 C687 1.334 . S
C686 H667 0.929 . S
C686 C683 1.388 . S
C686 N685 1.397 . S
C687 H668 0.929 . S
C687 C684 1.404 . S
C687 N685 1.334 . S
C688 H680 0.930 . S
C688 C683 1.418 . S
C688 C684 1.353 . S
C689 H659 0.930 . S
C689 N690 1.330 . S
C689 C691 1.446 . S
N690 Co649 2.151 . S
N690 C689 1.330 . S
N690 C694 1.418 . S
C691 H670 0.929 . S
C691 C689 1.446 . S
C691 C692 1.332 . S
C692 H672 0.931 . S
C692 C691 1.332 . S
C692 C693 1.267 . S
C693 H661 0.929 . S
C693 C692 1.267 . S
C693 C694 1.251 . S
C694 H664 0.929 . S
C694 N690 1.418 . S
C694 C693 1.251 . S
C695 H662 0.930 . S
C695 C697 1.406 1_556 S
C695 C700 1.261 . S
C696 H663 0.930 . S
C696 N698 1.325 . S
C696 C699 1.357 . S
C697 H665 0.928 . S
C697 C695 1.406 1_554 S
C697 N698 1.261 . S
N698 Co649 2.214 . S
N698 C696 1.325 . S
N698 C697 1.261 . S
C699 H669 0.931 . S
C699 C696 1.357 . S
C699 C700 1.312 1_554 S
C700 H671 0.930 . S
C700 C695 1.261 . S
C700 C699 1.312 1_556 S
C701 O673 1.214 . S
C701 O681 1.234 . S
C702 H674 0.929 1_545 S
C702 C705 1.391 . S
C702 C707 1.391 . S
C703 H675 0.929 . S
C703 C704 1.390 . S
C703 N706 1.391 . S
C704 H676 0.930 . S
C704 C703 1.390 . S
C704 C705 1.392 . S
C705 H677 0.929 . S
C705 C702 1.391 . S
C705 C704 1.392 . S
N706 Co650 2.257 . S
N706 C703 1.391 . S
N706 C707 1.388 . S
C707 H678 0.930 . S
C707 C702 1.391 . S
C707 N706 1.388 . S
Co708 O710 2.143 . S
Co708 O716 2.074 . S
Co708 O719 2.093 . S
Co708 O732 2.097 . S
Co708 N749 2.151 . S
Co708 N757 2.214 . S
Co709 O710 2.160 . S
Co709 O715 2.058 . S
Co709 O725 2.057 . S
Co709 O740 2.037 . S
Co709 N744 2.145 . S
Co709 N765 2.257 . S
O710 Co708 2.143 . S
O710 Co709 2.160 . S
C711 O712 1.278 . S
C711 O719 1.224 . S
O712 C711 1.278 . S
C713 O714 1.245 . S
C713 O725 1.232 . S
O714 C713 1.245 . S
O715 Co709 2.058 . S
O715 C741 1.269 . S
O716 Co708 2.074 . S
O716 C741 1.257 . S
H717 C742 0.930 . S
H718 C748 0.930 . S
O719 Co708 2.093 . S
O719 C711 1.224 . S
H720 C752 0.929 . S
H721 C754 0.930 . S
H722 C755 0.930 . S
H723 C753 0.929 . S
H724 C756 0.928 . S
O725 Co709 2.057 . S
O725 C713 1.232 . S
H726 C745 0.929 . S
H727 C746 0.929 . S
H728 C758 0.931 . S
H729 C750 0.929 . S
H730 C759 0.930 . S
H731 C751 0.931 . S
O732 Co708 2.097 . S
O732 C760 1.214 . S
H733 C761 0.929 . S
H734 C762 0.929 . S
H735 C763 0.930 . S
H736 C764 0.929 . S
H737 C766 0.930 . S
H738 C743 0.930 . S
H739 C747 0.930 . S
O740 Co709 2.037 . S
O740 C760 1.234 . S
C741 O715 1.269 . S
C741 O716 1.257 . S
C742 H717 0.930 . S
C742 C745 1.388 . S
C742 C747 1.418 . S
C743 H738 0.930 . S
C743 C746 1.404 . S
C743 C747 1.353 . S
N744 Co709 2.145 . S
N744 C745 1.397 . S
N744 C746 1.334 . S
C745 H726 0.929 . S
C745 C742 1.388 . S
C745 N744 1.397 . S
C746 H727 0.929 . S
C746 C743 1.404 . S
C746 N744 1.334 . S
C747 H739 0.930 . S
C747 C742 1.418 . S
C747 C743 1.353 . S
C748 H718 0.930 . S
C748 N749 1.330 . S
C748 C750 1.446 . S
N749 Co708 2.151 . S
N749 C748 1.330 . S
N749 C753 1.418 . S
C750 H729 0.929 . S
C750 C748 1.446 . S
C750 C751 1.332 . S
C751 H731 0.931 . S
C751 C750 1.332 . S
C751 C752 1.267 . S
C752 H720 0.929 . S
C752 C751 1.267 . S
C752 C753 1.251 . S
C753 H723 0.929 . S
C753 N749 1.418 . S
C753 C752 1.251 . S
C754 H721 0.930 . S
C754 C756 1.406 . S
C754 C759 1.261 . S
C755 H722 0.930 . S
C755 N757 1.325 . S
C755 C758 1.357 . S
C756 H724 0.928 . S
C756 C754 1.406 . S
C756 N757 1.261 . S
N757 Co708 2.214 . S
N757 C755 1.325 . S
N757 C756 1.261 . S
C758 H728 0.931 . S
C758 C755 1.357 . S
C758 C759 1.312 . S
C759 H730 0.930 . S
C759 C754 1.261 . S
C759 C758 1.312 . S
C760 O732 1.214 . S
C760 O740 1.234 . S
C761 H733 0.929 . S
C761 C764 1.391 . S
C761 C766 1.391 . S
C762 H734 0.929 . S
C762 C763 1.390 . S
C762 N765 1.391 . S
C763 H735 0.930 . S
C763 C762 1.390 . S
C763 C764 1.392 . S
C764 H736 0.929 . S
C764 C761 1.391 . S
C764 C763 1.392 . S
N765 Co709 2.257 . S
N765 C762 1.391 . S
N765 C766 1.388 . S
C766 H737 0.930 . S
C766 C761 1.391 . S
C766 N765 1.388 . S
Co767 O769 2.143 . S
Co767 O775 2.074 . S
Co767 O778 2.093 . S
Co767 O791 2.097 . S
Co767 N808 2.151 . S
Co767 N816 2.214 . S
Co768 O769 2.160 . S
Co768 O774 2.058 . S
Co768 O784 2.057 . S
Co768 O799 2.037 . S
Co768 N803 2.145 . S
Co768 N824 2.257 . S
O769 Co767 2.143 . S
O769 Co768 2.160 . S
C770 O771 1.278 . S
C770 O778 1.224 . S
O771 C770 1.278 . S
C772 O773 1.245 . S
C772 O784 1.232 . S
O773 C772 1.245 . S
O774 Co768 2.058 . S
O774 C800 1.269 . S
O775 Co767 2.074 . S
O775 C800 1.257 . S
H776 C801 0.930 . S
H777 C807 0.930 . S
O778 Co767 2.093 . S
O778 C770 1.224 . S
H779 C811 0.929 . S
H780 C813 0.930 . S
H781 C814 0.930 . S
H782 C812 0.929 . S
H783 C815 0.928 . S
O784 Co768 2.057 . S
O784 C772 1.232 . S
H785 C804 0.929 . S
H786 C805 0.929 . S
H787 C817 0.931 . S
H788 C809 0.929 . S
H789 C818 0.930 . S
H790 C810 0.931 . S
O791 Co767 2.097 . S
O791 C819 1.214 . S
H792 C820 0.929 . S
H793 C821 0.929 . S
H794 C822 0.930 . S
H795 C823 0.929 . S
H796 C825 0.930 . S
H797 C802 0.930 . S
H798 C806 0.930 . S
O799 Co768 2.037 . S
O799 C819 1.234 . S
C800 O774 1.269 . S
C800 O775 1.257 . S
C801 H776 0.930 . S
C801 C804 1.388 . S
C801 C806 1.418 . S
C802 H797 0.930 . S
C802 C805 1.404 . S
C802 C806 1.353 . S
N803 Co768 2.145 . S
N803 C804 1.397 . S
N803 C805 1.334 . S
C804 H785 0.929 . S
C804 C801 1.388 . S
C804 N803 1.397 . S
C805 H786 0.929 . S
C805 C802 1.404 . S
C805 N803 1.334 . S
C806 H798 0.930 . S
C806 C801 1.418 . S
C806 C802 1.353 . S
C807 H777 0.930 . S
C807 N808 1.330 . S
C807 C809 1.446 . S
N808 Co767 2.151 . S
N808 C807 1.330 . S
N808 C812 1.418 . S
C809 H788 0.929 . S
C809 C807 1.446 . S
C809 C810 1.332 . S
C810 H790 0.931 . S
C810 C809 1.332 . S
C810 C811 1.267 . S
C811 H779 0.929 . S
C811 C810 1.267 . S
C811 C812 1.251 . S
C812 H782 0.929 . S
C812 N808 1.418 . S
C812 C811 1.251 . S
C813 H780 0.930 . S
C813 C815 1.406 . S
C813 C818 1.261 . S
C814 H781 0.930 . S
C814 N816 1.325 . S
C814 C817 1.357 . S
C815 H783 0.928 . S
C815 C813 1.406 . S
C815 N816 1.261 . S
N816 Co767 2.214 . S
N816 C814 1.325 . S
N816 C815 1.261 . S
C817 H787 0.931 . S
C817 C814 1.357 . S
C817 C818 1.312 . S
C818 H789 0.930 . S
C818 C813 1.261 . S
C818 C817 1.312 . S
C819 O791 1.214 . S
C819 O799 1.234 . S
C820 H792 0.929 . S
C820 C823 1.391 . S
C820 C825 1.391 . S
C821 H793 0.929 . S
C821 C822 1.390 . S
C821 N824 1.391 . S
C822 H794 0.930 . S
C822 C821 1.390 . S
C822 C823 1.392 . S
C823 H795 0.929 . S
C823 C820 1.391 . S
C823 C822 1.392 . S
N824 Co768 2.257 . S
N824 C821 1.391 . S
N824 C825 1.388 . S
C825 H796 0.930 . S
C825 C820 1.391 . S
C825 N824 1.388 . S
Co826 O828 2.143 . S
Co826 O834 2.074 . S
Co826 O837 2.093 . S
Co826 O850 2.097 . S
Co826 N867 2.151 . S
Co826 N875 2.214 . S
Co827 O828 2.160 . S
Co827 O833 2.058 . S
Co827 O843 2.057 . S
Co827 O858 2.037 . S
Co827 N862 2.145 . S
Co827 N883 2.257 . S
O828 Co826 2.143 . S
O828 Co827 2.160 . S
C829 O830 1.278 . S
C829 O837 1.224 . S
O830 C829 1.278 . S
C831 O832 1.245 . S
C831 O843 1.232 . S
O832 C831 1.245 . S
O833 Co827 2.058 . S
O833 C859 1.269 . S
O834 Co826 2.074 . S
O834 C859 1.257 . S
H835 C860 0.930 . S
H836 C866 0.930 . S
O837 Co826 2.093 . S
O837 C829 1.224 . S
H838 C870 0.929 . S
H839 C872 0.930 . S
H840 C873 0.930 . S
H841 C871 0.929 . S
H842 C874 0.928 . S
O843 Co827 2.057 . S
O843 C831 1.232 . S
H844 C863 0.929 . S
H845 C864 0.929 . S
H846 C876 0.931 . S
H847 C868 0.929 . S
H848 C877 0.930 . S
H849 C869 0.931 . S
O850 Co826 2.097 . S
O850 C878 1.214 . S
H851 C879 0.929 . S
H852 C880 0.929 . S
H853 C881 0.930 . S
H854 C882 0.929 . S
H855 C884 0.930 . S
H856 C861 0.930 . S
H857 C865 0.930 . S
O858 Co827 2.037 . S
O858 C878 1.234 . S
C859 O833 1.269 . S
C859 O834 1.257 . S
C860 H835 0.930 . S
C860 C863 1.388 . S
C860 C865 1.418 . S
C861 H856 0.930 . S
C861 C864 1.404 . S
C861 C865 1.353 . S
N862 Co827 2.145 . S
N862 C863 1.397 . S
N862 C864 1.334 . S
C863 H844 0.929 . S
C863 C860 1.388 . S
C863 N862 1.397 . S
C864 H845 0.929 . S
C864 C861 1.404 . S
C864 N862 1.334 . S
C865 H857 0.930 . S
C865 C860 1.418 . S
C865 C861 1.353 . S
C866 H836 0.930 . S
C866 N867 1.330 . S
C866 C868 1.446 . S
N867 Co826 2.151 . S
N867 C866 1.330 . S
N867 C871 1.418 . S
C868 H847 0.929 . S
C868 C866 1.446 . S
C868 C869 1.332 . S
C869 H849 0.931 . S
C869 C868 1.332 . S
C869 C870 1.267 . S
C870 H838 0.929 . S
C870 C869 1.267 . S
C870 C871 1.251 . S
C871 H841 0.929 . S
C871 N867 1.418 . S
C871 C870 1.251 . S
C872 H839 0.930 . S
C872 C874 1.406 . S
C872 C877 1.261 . S
C873 H840 0.930 . S
C873 N875 1.325 . S
C873 C876 1.357 . S
C874 H842 0.928 . S
C874 C872 1.406 . S
C874 N875 1.261 . S
N875 Co826 2.214 . S
N875 C873 1.325 . S
N875 C874 1.261 . S
C876 H846 0.931 . S
C876 C873 1.357 . S
C876 C877 1.312 . S
C877 H848 0.930 . S
C877 C872 1.261 . S
C877 C876 1.312 . S
C878 O850 1.214 . S
C878 O858 1.234 . S
C879 H851 0.929 . S
C879 C882 1.391 . S
C879 C884 1.391 . S
C880 H852 0.929 . S
C880 C881 1.390 . S
C880 N883 1.391 . S
C881 H853 0.930 . S
C881 C880 1.390 . S
C881 C882 1.392 . S
C882 H854 0.929 . S
C882 C879 1.391 . S
C882 C881 1.392 . S
N883 Co827 2.257 . S
N883 C880 1.391 . S
N883 C884 1.388 . S
C884 H855 0.930 . S
C884 C879 1.391 . S
C884 N883 1.388 . S
Co885 O887 2.143 . S
Co885 O893 2.074 . S
Co885 O896 2.093 . S
Co885 O909 2.097 . S
Co885 N926 2.151 . S
Co885 N934 2.214 . S
Co886 O887 2.160 . S
Co886 O892 2.058 . S
Co886 O902 2.057 1_554 S
Co886 O917 2.037 . S
Co886 N921 2.145 1_554 S
Co886 N942 2.257 . S
O887 Co885 2.143 . S
O887 Co886 2.160 . S
C888 O889 1.278 . S
C888 O896 1.224 . S
O889 C888 1.278 . S
C890 O891 1.245 . S
C890 O902 1.232 . S
O891 C890 1.245 . S
O892 Co886 2.058 . S
O892 C918 1.269 . S
O893 Co885 2.074 . S
O893 C918 1.257 . S
H894 C919 0.930 . S
H895 C925 0.930 . S
O896 Co885 2.093 . S
O896 C888 1.224 . S
H897 C929 0.929 . S
H898 C931 0.930 . S
H899 C932 0.930 . S
H900 C930 0.929 . S
H901 C933 0.928 . S
O902 Co886 2.057 1_556 S
O902 C890 1.232 . S
H903 C922 0.929 . S
H904 C923 0.929 . S
H905 C935 0.931 . S
H906 C927 0.929 . S
H907 C936 0.930 . S
H908 C928 0.931 . S
O909 Co885 2.097 . S
O909 C937 1.214 . S
H910 C938 0.929 . S
H911 C939 0.929 . S
H912 C940 0.930 . S
H913 C941 0.929 . S
H914 C943 0.930 . S
H915 C920 0.930 . S
H916 C924 0.930 . S
O917 Co886 2.037 . S
O917 C937 1.234 . S
C918 O892 1.269 . S
C918 O893 1.257 . S
C919 H894 0.930 . S
C919 C922 1.388 . S
C919 C924 1.418 . S
C920 H915 0.930 . S
C920 C923 1.404 . S
C920 C924 1.353 . S
N921 Co886 2.145 1_556 S
N921 C922 1.397 . S
N921 C923 1.334 . S
C922 H903 0.929 . S
C922 C919 1.388 . S
C922 N921 1.397 . S
C923 H904 0.929 . S
C923 C920 1.404 . S
C923 N921 1.334 . S
C924 H916 0.930 . S
C924 C919 1.418 . S
C924 C920 1.353 . S
C925 H895 0.930 . S
C925 N926 1.330 . S
C925 C927 1.446 . S
N926 Co885 2.151 . S
N926 C925 1.330 . S
N926 C930 1.418 . S
C927 H906 0.929 . S
C927 C925 1.446 . S
C927 C928 1.332 . S
C928 H908 0.931 . S
C928 C927 1.332 . S
C928 C929 1.267 . S
C929 H897 0.929 . S
C929 C928 1.267 . S
C929 C930 1.251 . S
C930 H900 0.929 . S
C930 N926 1.418 . S
C930 C929 1.251 . S
C931 H898 0.930 . S
C931 C933 1.406 . S
C931 C936 1.261 . S
C932 H899 0.930 . S
C932 N934 1.325 . S
C932 C935 1.357 . S
C933 H901 0.928 . S
C933 C931 1.406 . S
C933 N934 1.261 . S
N934 Co885 2.214 . S
N934 C932 1.325 . S
N934 C933 1.261 . S
C935 H905 0.931 . S
C935 C932 1.357 . S
C935 C936 1.312 . S
C936 H907 0.930 . S
C936 C931 1.261 . S
C936 C935 1.312 . S
C937 O909 1.214 . S
C937 O917 1.234 . S
C938 H910 0.929 . S
C938 C941 1.391 . S
C938 C943 1.391 . S
C939 H911 0.929 . S
C939 C940 1.390 . S
C939 N942 1.391 . S
C940 H912 0.930 . S
C940 C939 1.390 . S
C940 C941 1.392 . S
C941 H913 0.929 . S
C941 C938 1.391 . S
C941 C940 1.392 . S
N942 Co886 2.257 . S
N942 C939 1.391 . S
N942 C943 1.388 . S
C943 H914 0.930 . S
C943 C938 1.391 . S
C943 N942 1.388 . S
Co944 O946 2.143 . S
Co944 O952 2.074 . S
Co944 O955 2.093 . S
Co944 O968 2.097 . S
Co944 N985 2.151 . S
Co944 N993 2.214 . S
Co945 O946 2.160 . S
Co945 O951 2.058 . S
Co945 O961 2.057 1_554 S
Co945 O976 2.037 . S
Co945 N980 2.145 1_554 S
Co945 N1001 2.257 . S
O946 Co944 2.143 . S
O946 Co945 2.160 . S
C947 O948 1.278 . S
C947 O955 1.224 . S
O948 C947 1.278 . S
C949 O950 1.245 . S
C949 O961 1.232 . S
O950 C949 1.245 . S
O951 Co945 2.058 . S
O951 C977 1.269 . S
O952 Co944 2.074 . S
O952 C977 1.257 . S
H953 C978 0.930 . S
H954 C984 0.930 . S
O955 Co944 2.093 . S
O955 C947 1.224 . S
H956 C988 0.929 . S
H957 C990 0.930 . S
H958 C991 0.930 . S
H959 C989 0.929 . S
H960 C992 0.928 . S
O961 Co945 2.057 1_556 S
O961 C949 1.232 . S
H962 C981 0.929 . S
H963 C982 0.929 . S
H964 C994 0.931 . S
H965 C986 0.929 . S
H966 C995 0.930 . S
H967 C987 0.931 . S
O968 Co944 2.097 . S
O968 C996 1.214 . S
H969 C997 0.929 . S
H970 C998 0.929 . S
H971 C999 0.930 . S
H972 C1000 0.929 . S
H973 C1002 0.930 . S
H974 C979 0.930 . S
H975 C983 0.930 . S
O976 Co945 2.037 . S
O976 C996 1.234 . S
C977 O951 1.269 . S
C977 O952 1.257 . S
C978 H953 0.930 . S
C978 C981 1.388 . S
C978 C983 1.418 . S
C979 H974 0.930 . S
C979 C982 1.404 . S
C979 C983 1.353 . S
N980 Co945 2.145 1_556 S
N980 C981 1.397 . S
N980 C982 1.334 . S
C981 H962 0.929 . S
C981 C978 1.388 . S
C981 N980 1.397 . S
C982 H963 0.929 . S
C982 C979 1.404 . S
C982 N980 1.334 . S
C983 H975 0.930 . S
C983 C978 1.418 . S
C983 C979 1.353 . S
C984 H954 0.930 . S
C984 N985 1.330 . S
C984 C986 1.446 . S
N985 Co944 2.151 . S
N985 C984 1.330 . S
N985 C989 1.418 . S
C986 H965 0.929 . S
C986 C984 1.446 . S
C986 C987 1.332 . S
C987 H967 0.931 . S
C987 C986 1.332 . S
C987 C988 1.267 . S
C988 H956 0.929 . S
C988 C987 1.267 . S
C988 C989 1.251 . S
C989 H959 0.929 . S
C989 N985 1.418 . S
C989 C988 1.251 . S
C990 H957 0.930 . S
C990 C992 1.406 . S
C990 C995 1.261 . S
C991 H958 0.930 . S
C991 N993 1.325 . S
C991 C994 1.357 . S
C992 H960 0.928 . S
C992 C990 1.406 . S
C992 N993 1.261 . S
N993 Co944 2.214 . S
N993 C991 1.325 . S
N993 C992 1.261 . S
C994 H964 0.931 . S
C994 C991 1.357 . S
C994 C995 1.312 . S
C995 H966 0.930 . S
C995 C990 1.261 . S
C995 C994 1.312 . S
C996 O968 1.214 . S
C996 O976 1.234 . S
C997 H969 0.929 . S
C997 C1000 1.391 . S
C997 C1002 1.391 . S
C998 H970 0.929 . S
C998 C999 1.390 . S
C998 N1001 1.391 . S
C999 H971 0.930 . S
C999 C998 1.390 . S
C999 C1000 1.392 . S
C1000 H972 0.929 . S
C1000 C997 1.391 . S
C1000 C999 1.392 . S
N1001 Co945 2.257 . S
N1001 C998 1.391 . S
N1001 C1002 1.388 . S
C1002 H973 0.930 . S
C1002 C997 1.391 . S
C1002 N1001 1.388 . S
Co1003 O1005 2.143 . S
Co1003 O1011 2.074 . S
Co1003 O1014 2.093 . S
Co1003 O1027 2.097 . S
Co1003 N1044 2.151 . S
Co1003 N1052 2.214 . S
Co1004 O1005 2.160 . S
Co1004 O1010 2.058 . S
Co1004 O1020 2.057 1_554 S
Co1004 O1035 2.037 . S
Co1004 N1039 2.145 1_554 S
Co1004 N1060 2.257 . S
O1005 Co1003 2.143 . S
O1005 Co1004 2.160 . S
C1006 O1007 1.278 . S
C1006 O1014 1.224 . S
O1007 C1006 1.278 . S
C1008 O1009 1.245 . S
C1008 O1020 1.232 . S
O1009 C1008 1.245 . S
O1010 Co1004 2.058 . S
O1010 C1036 1.269 . S
O1011 Co1003 2.074 . S
O1011 C1036 1.257 . S
H1012 C1037 0.930 . S
H1013 C1043 0.930 . S
O1014 Co1003 2.093 . S
O1014 C1006 1.224 . S
H1015 C1047 0.929 . S
H1016 C1049 0.930 . S
H1017 C1050 0.930 . S
H1018 C1048 0.929 . S
H1019 C1051 0.928 . S
O1020 Co1004 2.057 1_556 S
O1020 C1008 1.232 . S
H1021 C1040 0.929 . S
H1022 C1041 0.929 . S
H1023 C1053 0.931 . S
H1024 C1045 0.929 . S
H1025 C1054 0.930 . S
H1026 C1046 0.931 . S
O1027 Co1003 2.097 . S
O1027 C1055 1.214 . S
H1028 C1056 0.929 . S
H1029 C1057 0.929 . S
H1030 C1058 0.930 . S
H1031 C1059 0.929 . S
H1032 C1061 0.930 . S
H1033 C1038 0.930 . S
H1034 C1042 0.930 . S
O1035 Co1004 2.037 . S
O1035 C1055 1.234 . S
C1036 O1010 1.269 . S
C1036 O1011 1.257 . S
C1037 H1012 0.930 . S
C1037 C1040 1.388 . S
C1037 C1042 1.418 . S
C1038 H1033 0.930 . S
C1038 C1041 1.404 . S
C1038 C1042 1.353 . S
N1039 Co1004 2.145 1_556 S
N1039 C1040 1.397 . S
N1039 C1041 1.334 . S
C1040 H1021 0.929 . S
C1040 C1037 1.388 . S
C1040 N1039 1.397 . S
C1041 H1022 0.929 . S
C1041 C1038 1.404 . S
C1041 N1039 1.334 . S
C1042 H1034 0.930 . S
C1042 C1037 1.418 . S
C1042 C1038 1.353 . S
C1043 H1013 0.930 . S
C1043 N1044 1.330 . S
C1043 C1045 1.446 . S
N1044 Co1003 2.151 . S
N1044 C1043 1.330 . S
N1044 C1048 1.418 . S
C1045 H1024 0.929 . S
C1045 C1043 1.446 . S
C1045 C1046 1.332 . S
C1046 H1026 0.931 . S
C1046 C1045 1.332 . S
C1046 C1047 1.267 . S
C1047 H1015 0.929 . S
C1047 C1046 1.267 . S
C1047 C1048 1.251 . S
C1048 H1018 0.929 . S
C1048 N1044 1.418 . S
C1048 C1047 1.251 . S
C1049 H1016 0.930 . S
C1049 C1051 1.406 . S
C1049 C1054 1.261 . S
C1050 H1017 0.930 . S
C1050 N1052 1.325 . S
C1050 C1053 1.357 . S
C1051 H1019 0.928 . S
C1051 C1049 1.406 . S
C1051 N1052 1.261 . S
N1052 Co1003 2.214 . S
N1052 C1050 1.325 . S
N1052 C1051 1.261 . S
C1053 H1023 0.931 . S
C1053 C1050 1.357 . S
C1053 C1054 1.312 . S
C1054 H1025 0.930 . S
C1054 C1049 1.261 . S
C1054 C1053 1.312 . S
C1055 O1027 1.214 . S
C1055 O1035 1.234 . S
C1056 H1028 0.929 . S
C1056 C1059 1.391 . S
C1056 C1061 1.391 . S
C1057 H1029 0.929 . S
C1057 C1058 1.390 . S
C1057 N1060 1.391 . S
C1058 H1030 0.930 . S
C1058 C1057 1.390 . S
C1058 C1059 1.392 . S
C1059 H1031 0.929 . S
C1059 C1056 1.391 . S
C1059 C1058 1.392 . S
N1060 Co1004 2.257 . S
N1060 C1057 1.391 . S
N1060 C1061 1.388 . S
C1061 H1032 0.930 . S
C1061 C1056 1.391 . S
C1061 N1060 1.388 . S
Co1062 O1064 2.143 . S
Co1062 O1070 2.074 . S
Co1062 O1073 2.093 . S
Co1062 O1086 2.097 . S
Co1062 N1103 2.151 . S
Co1062 N1111 2.214 . S
Co1063 O1064 2.160 . S
Co1063 O1069 2.058 . S
Co1063 O1079 2.057 1_554 S
Co1063 O1094 2.037 . S
Co1063 N1098 2.145 1_554 S
Co1063 N1119 2.257 . S
O1064 Co1062 2.143 . S
O1064 Co1063 2.160 . S
C1065 O1066 1.278 . S
C1065 O1073 1.224 . S
O1066 C1065 1.278 . S
C1067 O1068 1.245 . S
C1067 O1079 1.232 . S
O1068 C1067 1.245 . S
O1069 Co1063 2.058 . S
O1069 C1095 1.269 . S
O1070 Co1062 2.074 . S
O1070 C1095 1.257 . S
H1071 C1096 0.930 . S
H1072 C1102 0.930 . S
O1073 Co1062 2.093 . S
O1073 C1065 1.224 . S
H1074 C1106 0.929 . S
H1075 C1108 0.930 . S
H1076 C1109 0.930 . S
H1077 C1107 0.929 . S
H1078 C1110 0.928 . S
O1079 Co1063 2.057 1_556 S
O1079 C1067 1.232 . S
H1080 C1099 0.929 . S
H1081 C1100 0.929 . S
H1082 C1112 0.931 . S
H1083 C1104 0.929 . S
H1084 C1113 0.930 . S
H1085 C1105 0.931 . S
O1086 Co1062 2.097 . S
O1086 C1114 1.214 . S
H1087 C1115 0.929 . S
H1088 C1116 0.929 . S
H1089 C1117 0.930 . S
H1090 C1118 0.929 . S
H1091 C1120 0.930 . S
H1092 C1097 0.930 . S
H1093 C1101 0.930 . S
O1094 Co1063 2.037 . S
O1094 C1114 1.234 . S
C1095 O1069 1.269 . S
C1095 O1070 1.257 . S
C1096 H1071 0.930 . S
C1096 C1099 1.388 . S
C1096 C1101 1.418 . S
C1097 H1092 0.930 . S
C1097 C1100 1.404 . S
C1097 C1101 1.353 . S
N1098 Co1063 2.145 1_556 S
N1098 C1099 1.397 . S
N1098 C1100 1.334 . S
C1099 H1080 0.929 . S
C1099 C1096 1.388 . S
C1099 N1098 1.397 . S
C1100 H1081 0.929 . S
C1100 C1097 1.404 . S
C1100 N1098 1.334 . S
C1101 H1093 0.930 . S
C1101 C1096 1.418 . S
C1101 C1097 1.353 . S
C1102 H1072 0.930 . S
C1102 N1103 1.330 . S
C1102 C1104 1.446 . S
N1103 Co1062 2.151 . S
N1103 C1102 1.330 . S
N1103 C1107 1.418 . S
C1104 H1083 0.929 . S
C1104 C1102 1.446 . S
C1104 C1105 1.332 . S
C1105 H1085 0.931 . S
C1105 C1104 1.332 . S
C1105 C1106 1.267 . S
C1106 H1074 0.929 . S
C1106 C1105 1.267 . S
C1106 C1107 1.251 . S
C1107 H1077 0.929 . S
C1107 N1103 1.418 . S
C1107 C1106 1.251 . S
C1108 H1075 0.930 . S
C1108 C1110 1.406 . S
C1108 C1113 1.261 . S
C1109 H1076 0.930 . S
C1109 N1111 1.325 . S
C1109 C1112 1.357 . S
C1110 H1078 0.928 . S
C1110 C1108 1.406 . S
C1110 N1111 1.261 . S
N1111 Co1062 2.214 . S
N1111 C1109 1.325 . S
N1111 C1110 1.261 . S
C1112 H1082 0.931 . S
C1112 C1109 1.357 . S
C1112 C1113 1.312 . S
C1113 H1084 0.930 . S
C1113 C1108 1.261 . S
C1113 C1112 1.312 . S
C1114 O1086 1.214 . S
C1114 O1094 1.234 . S
C1115 H1087 0.929 . S
C1115 C1118 1.391 . S
C1115 C1120 1.391 . S
C1116 H1088 0.929 . S
C1116 C1117 1.390 . S
C1116 N1119 1.391 . S
C1117 H1089 0.930 . S
C1117 C1116 1.390 . S
C1117 C1118 1.392 . S
C1118 H1090 0.929 . S
C1118 C1115 1.391 . S
C1118 C1117 1.392 . S
N1119 Co1063 2.257 . S
N1119 C1116 1.391 . S
N1119 C1120 1.388 . S
C1120 H1091 0.930 . S
C1120 C1115 1.391 . S
C1120 N1119 1.388 . S
Co1121 O1123 2.141 1_556 S
Co1121 O1129 2.072 1_556 S
Co1121 O1132 2.094 . S
Co1121 O1145 2.097 1_556 S
Co1121 N1162 2.151 . S
Co1121 N1170 2.215 . S
Co1122 O1123 2.160 . S
Co1122 O1128 2.058 . S
Co1122 O1138 2.057 . S
Co1122 O1153 2.037 . S
Co1122 N1157 2.145 . S
Co1122 N1178 2.257 . S
O1123 Co1121 2.141 1_554 S
O1123 Co1122 2.160 . S
C1124 O1125 1.278 . S
C1124 O1132 1.224 . S
O1125 C1124 1.278 . S
C1126 O1127 1.245 . S
C1126 O1138 1.232 . S
O1127 C1126 1.245 . S
O1128 Co1122 2.058 . S
O1128 C1154 1.269 . S
O1129 Co1121 2.072 1_554 S
O1129 C1154 1.257 . S
H1130 C1155 0.930 . S
H1131 C1161 0.930 . S
O1132 Co1121 2.094 . S
O1132 C1124 1.224 . S
H1133 C1165 0.929 . S
H1134 C1167 0.930 . S
H1135 C1168 0.930 . S
H1136 C1166 0.929 . S
H1137 C1169 0.928 . S
O1138 Co1122 2.057 . S
O1138 C1126 1.232 . S
H1139 C1158 0.929 . S
H1140 C1159 0.929 . S
H1141 C1171 0.931 . S
H1142 C1163 0.929 . S
H1143 C1172 0.930 . S
H1144 C1164 0.931 . S
O1145 Co1121 2.097 1_554 S
O1145 C1173 1.214 . S
H1146 C1174 0.929 . S
H1147 C1175 0.929 . S
H1148 C1176 0.930 . S
H1149 C1177 0.929 . S
H1150 C1179 0.930 . S
H1151 C1156 0.930 . S
H1152 C1160 0.930 . S
O1153 Co1122 2.037 . S
O1153 C1173 1.234 . S
C1154 O1128 1.269 . S
C1154 O1129 1.257 . S
C1155 H1130 0.930 . S
C1155 C1158 1.388 . S
C1155 C1160 1.418 . S
C1156 H1151 0.930 . S
C1156 C1159 1.404 . S
C1156 C1160 1.353 . S
N1157 Co1122 2.145 . S
N1157 C1158 1.397 . S
N1157 C1159 1.334 . S
C1158 H1139 0.929 . S
C1158 C1155 1.388 . S
C1158 N1157 1.397 . S
C1159 H1140 0.929 . S
C1159 C1156 1.404 . S
C1159 N1157 1.334 . S
C1160 H1152 0.930 . S
C1160 C1155 1.418 . S
C1160 C1156 1.353 . S
C1161 H1131 0.930 . S
C1161 N1162 1.330 . S
C1161 C1163 1.446 . S
N1162 Co1121 2.151 . S
N1162 C1161 1.330 . S
N1162 C1166 1.418 . S
C1163 H1142 0.929 . S
C1163 C1161 1.446 . S
C1163 C1164 1.332 . S
C1164 H1144 0.931 . S
C1164 C1163 1.332 . S
C1164 C1165 1.267 . S
C1165 H1133 0.929 . S
C1165 C1164 1.267 . S
C1165 C1166 1.251 . S
C1166 H1136 0.929 . S
C1166 N1162 1.418 . S
C1166 C1165 1.251 . S
C1167 H1134 0.930 . S
C1167 C1169 1.406 . S
C1167 C1172 1.261 . S
C1168 H1135 0.930 . S
C1168 N1170 1.325 . S
C1168 C1171 1.357 . S
C1169 H1137 0.928 . S
C1169 C1167 1.406 . S
C1169 N1170 1.261 . S
N1170 Co1121 2.215 . S
N1170 C1168 1.325 . S
N1170 C1169 1.261 . S
C1171 H1141 0.931 . S
C1171 C1168 1.357 . S
C1171 C1172 1.312 . S
C1172 H1143 0.930 . S
C1172 C1167 1.261 . S
C1172 C1171 1.312 . S
C1173 O1145 1.214 . S
C1173 O1153 1.234 . S
C1174 H1146 0.929 . S
C1174 C1177 1.391 . S
C1174 C1179 1.391 . S
C1175 H1147 0.929 . S
C1175 C1176 1.390 . S
C1175 N1178 1.391 . S
C1176 H1148 0.930 . S
C1176 C1175 1.390 . S
C1176 C1177 1.392 . S
C1177 H1149 0.929 . S
C1177 C1174 1.391 . S
C1177 C1176 1.392 . S
N1178 Co1122 2.257 . S
N1178 C1175 1.391 . S
N1178 C1179 1.388 . S
C1179 H1150 0.930 . S
C1179 C1174 1.391 . S
C1179 N1178 1.388 . S
Co1180 O1182 2.143 . S
Co1180 O1188 2.074 . S
Co1180 O1191 2.093 . S
Co1180 O1204 2.097 . S
Co1180 N1221 2.151 . S
Co1180 N1229 2.214 . S
Co1181 O1182 2.160 . S
Co1181 O1187 2.058 . S
Co1181 O1197 2.057 1_554 S
Co1181 O1212 2.037 . S
Co1181 N1216 2.145 1_554 S
Co1181 N1237 2.257 . S
O1182 Co1180 2.143 . S
O1182 Co1181 2.160 . S
C1183 O1184 1.278 . S
C1183 O1191 1.224 . S
O1184 C1183 1.278 . S
C1185 O1186 1.245 . S
C1185 O1197 1.232 . S
O1186 C1185 1.245 . S
O1187 Co1181 2.058 . S
O1187 C1213 1.269 . S
O1188 Co1180 2.074 . S
O1188 C1213 1.257 . S
H1189 C1214 0.930 . S
H1190 C1220 0.930 . S
O1191 Co1180 2.093 . S
O1191 C1183 1.224 . S
H1192 C1224 0.929 . S
H1193 C1226 0.930 . S
H1194 C1227 0.930 . S
H1195 C1225 0.929 . S
H1196 C1228 0.928 . S
O1197 Co1181 2.057 1_556 S
O1197 C1185 1.232 . S
H1198 C1217 0.929 . S
H1199 C1218 0.929 . S
H1200 C1230 0.931 . S
H1201 C1222 0.929 . S
H1202 C1231 0.930 . S
H1203 C1223 0.931 . S
O1204 Co1180 2.097 . S
O1204 C1232 1.214 . S
H1205 C1233 0.929 . S
H1206 C1234 0.929 . S
H1207 C1235 0.930 . S
H1208 C1236 0.929 . S
H1209 C1238 0.930 . S
H1210 C1215 0.930 . S
H1211 C1219 0.930 . S
O1212 Co1181 2.037 . S
O1212 C1232 1.234 . S
C1213 O1187 1.269 . S
C1213 O1188 1.257 . S
C1214 H1189 0.930 . S
C1214 C1217 1.388 . S
C1214 C1219 1.418 . S
C1215 H1210 0.930 . S
C1215 C1218 1.404 . S
C1215 C1219 1.353 . S
N1216 Co1181 2.145 1_556 S
N1216 C1217 1.397 . S
N1216 C1218 1.334 . S
C1217 H1198 0.929 . S
C1217 C1214 1.388 . S
C1217 N1216 1.397 . S
C1218 H1199 0.929 . S
C1218 C1215 1.404 . S
C1218 N1216 1.334 . S
C1219 H1211 0.930 . S
C1219 C1214 1.418 . S
C1219 C1215 1.353 . S
C1220 H1190 0.930 . S
C1220 N1221 1.330 . S
C1220 C1222 1.446 . S
N1221 Co1180 2.151 . S
N1221 C1220 1.330 . S
N1221 C1225 1.418 . S
C1222 H1201 0.929 . S
C1222 C1220 1.446 . S
C1222 C1223 1.332 . S
C1223 H1203 0.931 . S
C1223 C1222 1.332 . S
C1223 C1224 1.267 . S
C1224 H1192 0.929 . S
C1224 C1223 1.267 . S
C1224 C1225 1.251 . S
C1225 H1195 0.929 . S
C1225 N1221 1.418 . S
C1225 C1224 1.251 . S
C1226 H1193 0.930 . S
C1226 C1228 1.406 . S
C1226 C1231 1.261 . S
C1227 H1194 0.930 . S
C1227 N1229 1.325 . S
C1227 C1230 1.357 . S
C1228 H1196 0.928 . S
C1228 C1226 1.406 . S
C1228 N1229 1.261 . S
N1229 Co1180 2.214 . S
N1229 C1227 1.325 . S
N1229 C1228 1.261 . S
C1230 H1200 0.931 . S
C1230 C1227 1.357 . S
C1230 C1231 1.312 . S
C1231 H1202 0.930 . S
C1231 C1226 1.261 . S
C1231 C1230 1.312 . S
C1232 O1204 1.214 . S
C1232 O1212 1.234 . S
C1233 H1205 0.929 . S
C1233 C1236 1.391 . S
C1233 C1238 1.391 . S
C1234 H1206 0.929 . S
C1234 C1235 1.390 . S
C1234 N1237 1.391 . S
C1235 H1207 0.930 . S
C1235 C1234 1.390 . S
C1235 C1236 1.392 . S
C1236 H1208 0.929 . S
C1236 C1233 1.391 . S
C1236 C1235 1.392 . S
N1237 Co1181 2.257 . S
N1237 C1234 1.391 . S
N1237 C1238 1.388 . S
C1238 H1209 0.930 . S
C1238 C1233 1.391 . S
C1238 N1237 1.388 . S
Co1239 O1241 2.143 . S
Co1239 O1247 2.074 . S
Co1239 O1250 2.093 . S
Co1239 O1263 2.097 . S
Co1239 N1280 2.151 . S
Co1239 N1288 2.214 . S
Co1240 O1241 2.160 . S
Co1240 O1246 2.058 . S
Co1240 O1256 2.057 . S
Co1240 O1271 2.037 . S
Co1240 N1275 2.145 . S
Co1240 N1296 2.257 . S
O1241 Co1239 2.143 . S
O1241 Co1240 2.160 . S
C1242 O1243 1.278 . S
C1242 O1250 1.224 . S
O1243 C1242 1.278 . S
C1244 O1245 1.245 . S
C1244 O1256 1.232 . S
O1245 C1244 1.245 . S
O1246 Co1240 2.058 . S
O1246 C1272 1.269 . S
O1247 Co1239 2.074 . S
O1247 C1272 1.257 . S
H1248 C1273 0.930 . S
H1249 C1279 0.930 . S
O1250 Co1239 2.093 . S
O1250 C1242 1.224 . S
H1251 C1283 0.929 . S
H1252 C1285 0.930 . S
H1253 C1286 0.930 . S
H1254 C1284 0.929 . S
H1255 C1287 0.928 . S
O1256 Co1240 2.057 . S
O1256 C1244 1.232 . S
H1257 C1276 0.929 . S
H1258 C1277 0.929 . S
H1259 C1289 0.931 . S
H1260 C1281 0.929 . S
H1261 C1290 0.930 . S
H1262 C1282 0.931 . S
O1263 Co1239 2.097 . S
O1263 C1291 1.214 . S
H1264 C1292 0.929 . S
H1265 C1293 0.929 . S
H1266 C1294 0.930 . S
H1267 C1295 0.929 . S
H1268 C1297 0.930 . S
H1269 C1274 0.930 . S
H1270 C1278 0.930 . S
O1271 Co1240 2.037 . S
O1271 C1291 1.234 . S
C1272 O1246 1.269 . S
C1272 O1247 1.257 . S
C1273 H1248 0.930 . S
C1273 C1276 1.388 . S
C1273 C1278 1.418 . S
C1274 H1269 0.930 . S
C1274 C1277 1.404 . S
C1274 C1278 1.353 . S
N1275 Co1240 2.145 . S
N1275 C1276 1.397 . S
N1275 C1277 1.334 . S
C1276 H1257 0.929 . S
C1276 C1273 1.388 . S
C1276 N1275 1.397 . S
C1277 H1258 0.929 . S
C1277 C1274 1.404 . S
C1277 N1275 1.334 . S
C1278 H1270 0.930 . S
C1278 C1273 1.418 . S
C1278 C1274 1.353 . S
C1279 H1249 0.930 . S
C1279 N1280 1.330 . S
C1279 C1281 1.446 . S
N1280 Co1239 2.151 . S
N1280 C1279 1.330 . S
N1280 C1284 1.418 . S
C1281 H1260 0.929 . S
C1281 C1279 1.446 . S
C1281 C1282 1.332 . S
C1282 H1262 0.931 . S
C1282 C1281 1.332 . S
C1282 C1283 1.267 . S
C1283 H1251 0.929 . S
C1283 C1282 1.267 . S
C1283 C1284 1.251 . S
C1284 H1254 0.929 . S
C1284 N1280 1.418 . S
C1284 C1283 1.251 . S
C1285 H1252 0.930 . S
C1285 C1287 1.406 . S
C1285 C1290 1.261 . S
C1286 H1253 0.930 . S
C1286 N1288 1.325 . S
C1286 C1289 1.357 . S
C1287 H1255 0.928 . S
C1287 C1285 1.406 . S
C1287 N1288 1.261 . S
N1288 Co1239 2.214 . S
N1288 C1286 1.325 . S
N1288 C1287 1.261 . S
C1289 H1259 0.931 . S
C1289 C1286 1.357 . S
C1289 C1290 1.312 . S
C1290 H1261 0.930 . S
C1290 C1285 1.261 . S
C1290 C1289 1.312 . S
C1291 O1263 1.214 . S
C1291 O1271 1.234 . S
C1292 H1264 0.929 . S
C1292 C1295 1.391 . S
C1292 C1297 1.391 . S
C1293 H1265 0.929 . S
C1293 C1294 1.390 . S
C1293 N1296 1.391 . S
C1294 H1266 0.930 . S
C1294 C1293 1.390 . S
C1294 C1295 1.392 . S
C1295 H1267 0.929 . S
C1295 C1292 1.391 . S
C1295 C1294 1.392 . S
N1296 Co1240 2.257 . S
N1296 C1293 1.391 . S
N1296 C1297 1.388 . S
C1297 H1268 0.930 . S
C1297 C1292 1.391 . S
C1297 N1296 1.388 . S
Co1298 O1300 2.143 . S
Co1298 O1306 2.074 . S
Co1298 O1309 2.093 . S
Co1298 O1322 2.097 . S
Co1298 N1339 2.151 . S
Co1298 N1347 2.214 . S
Co1299 O1300 2.160 . S
Co1299 O1305 2.058 . S
Co1299 O1315 2.057 . S
Co1299 O1330 2.037 . S
Co1299 N1334 2.145 . S
Co1299 N1355 2.257 . S
O1300 Co1298 2.143 . S
O1300 Co1299 2.160 . S
C1301 O1302 1.278 . S
C1301 O1309 1.224 . S
O1302 C1301 1.278 . S
C1303 O1304 1.245 . S
C1303 O1315 1.232 . S
O1304 C1303 1.245 . S
O1305 Co1299 2.058 . S
O1305 C1331 1.269 . S
O1306 Co1298 2.074 . S
O1306 C1331 1.257 . S
H1307 C1332 0.930 . S
H1308 C1338 0.930 . S
O1309 Co1298 2.093 . S
O1309 C1301 1.224 . S
H1310 C1342 0.929 . S
H1311 C1344 0.930 . S
H1312 C1345 0.930 . S
H1313 C1343 0.929 . S
H1314 C1346 0.928 . S
O1315 Co1299 2.057 . S
O1315 C1303 1.232 . S
H1316 C1335 0.929 . S
H1317 C1336 0.929 . S
H1318 C1348 0.931 . S
H1319 C1340 0.929 . S
H1320 C1349 0.930 . S
H1321 C1341 0.931 . S
O1322 Co1298 2.097 . S
O1322 C1350 1.214 . S
H1323 C1351 0.929 . S
H1324 C1352 0.929 . S
H1325 C1353 0.930 . S
H1326 C1354 0.929 . S
H1327 C1356 0.930 . S
H1328 C1333 0.930 . S
H1329 C1337 0.930 . S
O1330 Co1299 2.037 . S
O1330 C1350 1.234 . S
C1331 O1305 1.269 . S
C1331 O1306 1.257 . S
C1332 H1307 0.930 . S
C1332 C1335 1.388 . S
C1332 C1337 1.418 . S
C1333 H1328 0.930 . S
C1333 C1336 1.404 . S
C1333 C1337 1.353 . S
N1334 Co1299 2.145 . S
N1334 C1335 1.397 . S
N1334 C1336 1.334 . S
C1335 H1316 0.929 . S
C1335 C1332 1.388 . S
C1335 N1334 1.397 . S
C1336 H1317 0.929 . S
C1336 C1333 1.404 . S
C1336 N1334 1.334 . S
C1337 H1329 0.930 . S
C1337 C1332 1.418 . S
C1337 C1333 1.353 . S
C1338 H1308 0.930 . S
C1338 N1339 1.330 . S
C1338 C1340 1.446 . S
N1339 Co1298 2.151 . S
N1339 C1338 1.330 . S
N1339 C1343 1.418 . S
C1340 H1319 0.929 . S
C1340 C1338 1.446 . S
C1340 C1341 1.332 . S
C1341 H1321 0.931 . S
C1341 C1340 1.332 . S
C1341 C1342 1.267 . S
C1342 H1310 0.929 . S
C1342 C1341 1.267 . S
C1342 C1343 1.251 . S
C1343 H1313 0.929 . S
C1343 N1339 1.418 . S
C1343 C1342 1.251 . S
C1344 H1311 0.930 . S
C1344 C1346 1.406 . S
C1344 C1349 1.261 . S
C1345 H1312 0.930 . S
C1345 N1347 1.325 . S
C1345 C1348 1.357 . S
C1346 H1314 0.928 . S
C1346 C1344 1.406 . S
C1346 N1347 1.261 . S
N1347 Co1298 2.214 . S
N1347 C1345 1.325 . S
N1347 C1346 1.261 . S
C1348 H1318 0.931 . S
C1348 C1345 1.357 . S
C1348 C1349 1.312 . S
C1349 H1320 0.930 . S
C1349 C1344 1.261 . S
C1349 C1348 1.312 . S
C1350 O1322 1.214 . S
C1350 O1330 1.234 . S
C1351 H1323 0.929 . S
C1351 C1354 1.391 . S
C1351 C1356 1.391 . S
C1352 H1324 0.929 . S
C1352 C1353 1.390 . S
C1352 N1355 1.391 . S
C1353 H1325 0.930 . S
C1353 C1352 1.390 . S
C1353 C1354 1.392 . S
C1354 H1326 0.929 . S
C1354 C1351 1.391 . S
C1354 C1353 1.392 . S
N1355 Co1299 2.257 . S
N1355 C1352 1.391 . S
N1355 C1356 1.388 . S
C1356 H1327 0.930 . S
C1356 C1351 1.391 . S
C1356 N1355 1.388 . S
Co1357 O1359 2.143 . S
Co1357 O1365 2.074 . S
Co1357 O1368 2.093 . S
Co1357 O1381 2.097 . S
Co1357 N1398 2.151 . S
Co1357 N1406 2.214 . S
Co1358 O1359 2.160 . S
Co1358 O1364 2.058 . S
Co1358 O1374 2.057 . S
Co1358 O1389 2.037 . S
Co1358 N1393 2.145 . S
Co1358 N1414 2.257 . S
O1359 Co1357 2.143 . S
O1359 Co1358 2.160 . S
C1360 O1361 1.278 . S
C1360 O1368 1.224 . S
O1361 C1360 1.278 . S
C1362 O1363 1.245 . S
C1362 O1374 1.232 . S
O1363 C1362 1.245 . S
O1364 Co1358 2.058 . S
O1364 C1390 1.269 . S
O1365 Co1357 2.074 . S
O1365 C1390 1.257 . S
H1366 C1391 0.930 . S
H1367 C1397 0.930 . S
O1368 Co1357 2.093 . S
O1368 C1360 1.224 . S
H1369 C1401 0.929 . S
H1370 C1403 0.930 . S
H1371 C1404 0.930 . S
H1372 C1402 0.929 . S
H1373 C1405 0.928 . S
O1374 Co1358 2.057 . S
O1374 C1362 1.232 . S
H1375 C1394 0.929 . S
H1376 C1395 0.929 . S
H1377 C1407 0.931 . S
H1378 C1399 0.929 . S
H1379 C1408 0.930 . S
H1380 C1400 0.931 . S
O1381 Co1357 2.097 . S
O1381 C1409 1.214 . S
H1382 C1410 0.929 . S
H1383 C1411 0.929 . S
H1384 C1412 0.930 . S
H1385 C1413 0.929 . S
H1386 C1415 0.930 . S
H1387 C1392 0.930 . S
H1388 C1396 0.930 . S
O1389 Co1358 2.037 . S
O1389 C1409 1.234 . S
C1390 O1364 1.269 . S
C1390 O1365 1.257 . S
C1391 H1366 0.930 . S
C1391 C1394 1.388 . S
C1391 C1396 1.418 . S
C1392 H1387 0.930 . S
C1392 C1395 1.404 . S
C1392 C1396 1.353 . S
N1393 Co1358 2.145 . S
N1393 C1394 1.397 . S
N1393 C1395 1.334 . S
C1394 H1375 0.929 . S
C1394 C1391 1.388 . S
C1394 N1393 1.397 . S
C1395 H1376 0.929 . S
C1395 C1392 1.404 . S
C1395 N1393 1.334 . S
C1396 H1388 0.930 . S
C1396 C1391 1.418 . S
C1396 C1392 1.353 . S
C1397 H1367 0.930 . S
C1397 N1398 1.330 . S
C1397 C1399 1.446 . S
N1398 Co1357 2.151 . S
N1398 C1397 1.330 . S
N1398 C1402 1.418 . S
C1399 H1378 0.929 . S
C1399 C1397 1.446 . S
C1399 C1400 1.332 . S
C1400 H1380 0.931 . S
C1400 C1399 1.332 . S
C1400 C1401 1.267 . S
C1401 H1369 0.929 . S
C1401 C1400 1.267 . S
C1401 C1402 1.251 . S
C1402 H1372 0.929 . S
C1402 N1398 1.418 . S
C1402 C1401 1.251 . S
C1403 H1370 0.930 . S
C1403 C1405 1.406 . S
C1403 C1408 1.261 . S
C1404 H1371 0.930 . S
C1404 N1406 1.325 . S
C1404 C1407 1.357 . S
C1405 H1373 0.928 . S
C1405 C1403 1.406 . S
C1405 N1406 1.261 . S
N1406 Co1357 2.214 . S
N1406 C1404 1.325 . S
N1406 C1405 1.261 . S
C1407 H1377 0.931 . S
C1407 C1404 1.357 . S
C1407 C1408 1.312 . S
C1408 H1379 0.930 . S
C1408 C1403 1.261 . S
C1408 C1407 1.312 . S
C1409 O1381 1.214 . S
C1409 O1389 1.234 . S
C1410 H1382 0.929 . S
C1410 C1413 1.391 . S
C1410 C1415 1.391 . S
C1411 H1383 0.929 . S
C1411 C1412 1.390 . S
C1411 N1414 1.391 . S
C1412 H1384 0.930 . S
C1412 C1411 1.390 . S
C1412 C1413 1.392 . S
C1413 H1385 0.929 . S
C1413 C1410 1.391 . S
C1413 C1412 1.392 . S
N1414 Co1358 2.257 . S
N1414 C1411 1.391 . S
N1414 C1415 1.388 . S
C1415 H1386 0.930 . S
C1415 C1410 1.391 . S
C1415 N1414 1.388 . S
Co1416 O1418 2.143 . S
Co1416 O1424 2.074 . S
Co1416 O1427 2.093 . S
Co1416 O1440 2.097 . S
Co1416 N1457 2.151 . S
Co1416 N1465 2.214 . S
Co1417 O1418 2.160 . S
Co1417 O1423 2.058 . S
Co1417 O1433 2.057 1_556 S
Co1417 O1448 2.037 . S
Co1417 N1452 2.145 1_556 S
Co1417 N1473 2.257 . S
O1418 Co1416 2.143 . S
O1418 Co1417 2.160 . S
C1419 O1420 1.278 . S
C1419 O1427 1.224 . S
O1420 C1419 1.278 . S
C1421 O1422 1.245 . S
C1421 O1433 1.232 . S
O1422 C1421 1.245 . S
O1423 Co1417 2.058 . S
O1423 C1449 1.269 . S
O1424 Co1416 2.074 . S
O1424 C1449 1.257 . S
H1425 C1450 0.930 . S
H1426 C1456 0.930 . S
O1427 Co1416 2.093 . S
O1427 C1419 1.224 . S
H1428 C1460 0.929 . S
H1429 C1462 0.930 . S
H1430 C1463 0.930 . S
H1431 C1461 0.929 . S
H1432 C1464 0.928 . S
O1433 Co1417 2.057 1_554 S
O1433 C1421 1.232 . S
H1434 C1453 0.929 . S
H1435 C1454 0.929 . S
H1436 C1466 0.931 . S
H1437 C1458 0.929 . S
H1438 C1467 0.930 . S
H1439 C1459 0.931 . S
O1440 Co1416 2.097 . S
O1440 C1468 1.214 . S
H1441 C1469 0.929 . S
H1442 C1470 0.929 . S
H1443 C1471 0.930 . S
H1444 C1472 0.929 . S
H1445 C1474 0.930 . S
H1446 C1451 0.930 . S
H1447 C1455 0.930 . S
O1448 Co1417 2.037 . S
O1448 C1468 1.234 . S
C1449 O1423 1.269 . S
C1449 O1424 1.257 . S
C1450 H1425 0.930 . S
C1450 C1453 1.388 . S
C1450 C1455 1.418 . S
C1451 H1446 0.930 . S
C1451 C1454 1.404 . S
C1451 C1455 1.353 . S
N1452 Co1417 2.145 1_554 S
N1452 C1453 1.397 . S
N1452 C1454 1.334 . S
C1453 H1434 0.929 . S
C1453 C1450 1.388 . S
C1453 N1452 1.397 . S
C1454 H1435 0.929 . S
C1454 C1451 1.404 . S
C1454 N1452 1.334 . S
C1455 H1447 0.930 . S
C1455 C1450 1.418 . S
C1455 C1451 1.353 . S
C1456 H1426 0.930 . S
C1456 N1457 1.330 . S
C1456 C1458 1.446 . S
N1457 Co1416 2.151 . S
N1457 C1456 1.330 . S
N1457 C1461 1.418 . S
C1458 H1437 0.929 . S
C1458 C1456 1.446 . S
C1458 C1459 1.332 . S
C1459 H1439 0.931 . S
C1459 C1458 1.332 . S
C1459 C1460 1.267 . S
C1460 H1428 0.929 . S
C1460 C1459 1.267 . S
C1460 C1461 1.251 . S
C1461 H1431 0.929 . S
C1461 N1457 1.418 . S
C1461 C1460 1.251 . S
C1462 H1429 0.930 . S
C1462 C1464 1.406 . S
C1462 C1467 1.261 . S
C1463 H1430 0.930 . S
C1463 N1465 1.325 . S
C1463 C1466 1.357 . S
C1464 H1432 0.928 . S
C1464 C1462 1.406 . S
C1464 N1465 1.261 . S
N1465 Co1416 2.214 . S
N1465 C1463 1.325 . S
N1465 C1464 1.261 . S
C1466 H1436 0.931 . S
C1466 C1463 1.357 . S
C1466 C1467 1.312 . S
C1467 H1438 0.930 . S
C1467 C1462 1.261 . S
C1467 C1466 1.312 . S
C1468 O1440 1.214 . S
C1468 O1448 1.234 . S
C1469 H1441 0.929 . S
C1469 C1472 1.391 . S
C1469 C1474 1.391 . S
C1470 H1442 0.929 . S
C1470 C1471 1.390 . S
C1470 N1473 1.391 . S
C1471 H1443 0.930 . S
C1471 C1470 1.390 . S
C1471 C1472 1.392 . S
C1472 H1444 0.929 . S
C1472 C1469 1.391 . S
C1472 C1471 1.392 . S
N1473 Co1417 2.257 . S
N1473 C1470 1.391 . S
N1473 C1474 1.388 . S
C1474 H1445 0.930 . S
C1474 C1469 1.391 . S
C1474 N1473 1.388 . S
Co1475 O1477 2.143 . S
Co1475 O1483 2.074 . S
Co1475 O1486 2.093 . S
Co1475 O1499 2.097 . S
Co1475 N1516 2.151 . S
Co1475 N1524 2.214 . S
Co1476 O1477 2.160 . S
Co1476 O1482 2.058 . S
Co1476 O1492 2.057 1_556 S
Co1476 O1507 2.037 . S
Co1476 N1511 2.145 1_556 S
Co1476 N1532 2.257 . S
O1477 Co1475 2.143 . S
O1477 Co1476 2.160 . S
C1478 O1479 1.278 . S
C1478 O1486 1.224 . S
O1479 C1478 1.278 . S
C1480 O1481 1.245 . S
C1480 O1492 1.232 . S
O1481 C1480 1.245 . S
O1482 Co1476 2.058 . S
O1482 C1508 1.269 . S
O1483 Co1475 2.074 . S
O1483 C1508 1.257 . S
H1484 C1509 0.930 . S
H1485 C1515 0.930 . S
O1486 Co1475 2.093 . S
O1486 C1478 1.224 . S
H1487 C1519 0.929 . S
H1488 C1521 0.930 . S
H1489 C1522 0.930 . S
H1490 C1520 0.929 . S
H1491 C1523 0.928 . S
O1492 Co1476 2.057 1_554 S
O1492 C1480 1.232 . S
H1493 C1512 0.929 . S
H1494 C1513 0.929 . S
H1495 C1525 0.931 . S
H1496 C1517 0.929 . S
H1497 C1526 0.930 . S
H1498 C1518 0.931 . S
O1499 Co1475 2.097 . S
O1499 C1527 1.214 . S
H1500 C1528 0.929 . S
H1501 C1529 0.929 . S
H1502 C1530 0.930 . S
H1503 C1531 0.929 . S
H1504 C1533 0.930 . S
H1505 C1510 0.930 . S
H1506 C1514 0.930 . S
O1507 Co1476 2.037 . S
O1507 C1527 1.234 . S
C1508 O1482 1.269 . S
C1508 O1483 1.257 . S
C1509 H1484 0.930 . S
C1509 C1512 1.388 . S
C1509 C1514 1.418 . S
C1510 H1505 0.930 . S
C1510 C1513 1.404 . S
C1510 C1514 1.353 . S
N1511 Co1476 2.145 1_554 S
N1511 C1512 1.397 . S
N1511 C1513 1.334 . S
C1512 H1493 0.929 . S
C1512 C1509 1.388 . S
C1512 N1511 1.397 . S
C1513 H1494 0.929 . S
C1513 C1510 1.404 . S
C1513 N1511 1.334 . S
C1514 H1506 0.930 . S
C1514 C1509 1.418 . S
C1514 C1510 1.353 . S
C1515 H1485 0.930 . S
C1515 N1516 1.330 . S
C1515 C1517 1.446 . S
N1516 Co1475 2.151 . S
N1516 C1515 1.330 . S
N1516 C1520 1.418 . S
C1517 H1496 0.929 . S
C1517 C1515 1.446 . S
C1517 C1518 1.332 . S
C1518 H1498 0.931 . S
C1518 C1517 1.332 . S
C1518 C1519 1.267 . S
C1519 H1487 0.929 . S
C1519 C1518 1.267 . S
C1519 C1520 1.251 . S
C1520 H1490 0.929 . S
C1520 N1516 1.418 . S
C1520 C1519 1.251 . S
C1521 H1488 0.930 . S
C1521 C1523 1.406 . S
C1521 C1526 1.261 . S
C1522 H1489 0.930 . S
C1522 N1524 1.325 . S
C1522 C1525 1.357 . S
C1523 H1491 0.928 . S
C1523 C1521 1.406 . S
C1523 N1524 1.261 . S
N1524 Co1475 2.214 . S
N1524 C1522 1.325 . S
N1524 C1523 1.261 . S
C1525 H1495 0.931 . S
C1525 C1522 1.357 . S
C1525 C1526 1.312 . S
C1526 H1497 0.930 . S
C1526 C1521 1.261 . S
C1526 C1525 1.312 . S
C1527 O1499 1.214 . S
C1527 O1507 1.234 . S
C1528 H1500 0.929 . S
C1528 C1531 1.391 . S
C1528 C1533 1.391 . S
C1529 H1501 0.929 . S
C1529 C1530 1.390 . S
C1529 N1532 1.391 . S
C1530 H1502 0.930 . S
C1530 C1529 1.390 . S
C1530 C1531 1.392 . S
C1531 H1503 0.929 . S
C1531 C1528 1.391 . S
C1531 C1530 1.392 . S
N1532 Co1476 2.257 . S
N1532 C1529 1.391 . S
N1532 C1533 1.388 . S
C1533 H1504 0.930 . S
C1533 C1528 1.391 . S
C1533 N1532 1.388 . S
Co1534 O1536 2.143 . S
Co1534 O1542 2.074 . S
Co1534 O1545 2.093 . S
Co1534 O1558 2.097 . S
Co1534 N1575 2.151 . S
Co1534 N1583 2.214 . S
Co1535 O1536 2.160 . S
Co1535 O1541 2.058 . S
Co1535 O1551 2.057 1_556 S
Co1535 O1566 2.037 . S
Co1535 N1570 2.145 1_556 S
Co1535 N1591 2.257 . S
O1536 Co1534 2.143 . S
O1536 Co1535 2.160 . S
C1537 O1538 1.278 . S
C1537 O1545 1.224 . S
O1538 C1537 1.278 . S
C1539 O1540 1.245 . S
C1539 O1551 1.232 . S
O1540 C1539 1.245 . S
O1541 Co1535 2.058 . S
O1541 C1567 1.269 . S
O1542 Co1534 2.074 . S
O1542 C1567 1.257 . S
H1543 C1568 0.930 . S
H1544 C1574 0.930 . S
O1545 Co1534 2.093 . S
O1545 C1537 1.224 . S
H1546 C1578 0.929 . S
H1547 C1580 0.930 . S
H1548 C1581 0.930 . S
H1549 C1579 0.929 . S
H1550 C1582 0.928 . S
O1551 Co1535 2.057 1_554 S
O1551 C1539 1.232 . S
H1552 C1571 0.929 . S
H1553 C1572 0.929 . S
H1554 C1584 0.931 . S
H1555 C1576 0.929 . S
H1556 C1585 0.930 . S
H1557 C1577 0.931 . S
O1558 Co1534 2.097 . S
O1558 C1586 1.214 . S
H1559 C1587 0.929 . S
H1560 C1588 0.929 . S
H1561 C1589 0.930 . S
H1562 C1590 0.929 . S
H1563 C1592 0.930 . S
H1564 C1569 0.930 . S
H1565 C1573 0.930 . S
O1566 Co1535 2.037 . S
O1566 C1586 1.234 . S
C1567 O1541 1.269 . S
C1567 O1542 1.257 . S
C1568 H1543 0.930 . S
C1568 C1571 1.388 . S
C1568 C1573 1.418 . S
C1569 H1564 0.930 . S
C1569 C1572 1.404 . S
C1569 C1573 1.353 . S
N1570 Co1535 2.145 1_554 S
N1570 C1571 1.397 . S
N1570 C1572 1.334 . S
C1571 H1552 0.929 . S
C1571 C1568 1.388 . S
C1571 N1570 1.397 . S
C1572 H1553 0.929 . S
C1572 C1569 1.404 . S
C1572 N1570 1.334 . S
C1573 H1565 0.930 . S
C1573 C1568 1.418 . S
C1573 C1569 1.353 . S
C1574 H1544 0.930 . S
C1574 N1575 1.330 . S
C1574 C1576 1.446 . S
N1575 Co1534 2.151 . S
N1575 C1574 1.330 . S
N1575 C1579 1.418 . S
C1576 H1555 0.929 . S
C1576 C1574 1.446 . S
C1576 C1577 1.332 . S
C1577 H1557 0.931 . S
C1577 C1576 1.332 . S
C1577 C1578 1.267 . S
C1578 H1546 0.929 . S
C1578 C1577 1.267 . S
C1578 C1579 1.251 . S
C1579 H1549 0.929 . S
C1579 N1575 1.418 . S
C1579 C1578 1.251 . S
C1580 H1547 0.930 . S
C1580 C1582 1.406 . S
C1580 C1585 1.261 . S
C1581 H1548 0.930 . S
C1581 N1583 1.325 . S
C1581 C1584 1.357 . S
C1582 H1550 0.928 . S
C1582 C1580 1.406 . S
C1582 N1583 1.261 . S
N1583 Co1534 2.214 . S
N1583 C1581 1.325 . S
N1583 C1582 1.261 . S
C1584 H1554 0.931 . S
C1584 C1581 1.357 . S
C1584 C1585 1.312 . S
C1585 H1556 0.930 . S
C1585 C1580 1.261 . S
C1585 C1584 1.312 . S
C1586 O1558 1.214 . S
C1586 O1566 1.234 . S
C1587 H1559 0.929 . S
C1587 C1590 1.391 . S
C1587 C1592 1.391 . S
C1588 H1560 0.929 . S
C1588 C1589 1.390 . S
C1588 N1591 1.391 . S
C1589 H1561 0.930 . S
C1589 C1588 1.390 . S
C1589 C1590 1.392 . S
C1590 H1562 0.929 . S
C1590 C1587 1.391 . S
C1590 C1589 1.392 . S
N1591 Co1535 2.257 . S
N1591 C1588 1.391 . S
N1591 C1592 1.388 . S
C1592 H1563 0.930 . S
C1592 C1587 1.391 . S
C1592 N1591 1.388 . S
Co1593 O1595 2.143 . S
Co1593 O1601 2.074 . S
Co1593 O1604 2.093 . S
Co1593 O1617 2.097 . S
Co1593 N1634 2.151 . S
Co1593 N1642 2.214 . S
Co1594 O1595 2.160 . S
Co1594 O1600 2.058 . S
Co1594 O1610 2.057 . S
Co1594 O1625 2.037 . S
Co1594 N1629 2.145 . S
Co1594 N1650 2.257 . S
O1595 Co1593 2.143 . S
O1595 Co1594 2.160 . S
C1596 O1597 1.278 . S
C1596 O1604 1.224 . S
O1597 C1596 1.278 . S
C1598 O1599 1.245 . S
C1598 O1610 1.232 . S
O1599 C1598 1.245 . S
O1600 Co1594 2.058 . S
O1600 C1626 1.269 . S
O1601 Co1593 2.074 . S
O1601 C1626 1.257 . S
H1602 C1627 0.930 . S
H1603 C1633 0.930 . S
O1604 Co1593 2.093 . S
O1604 C1596 1.224 . S
H1605 C1637 0.929 . S
H1606 C1639 0.930 . S
H1607 C1640 0.930 . S
H1608 C1638 0.929 . S
H1609 C1641 0.928 . S
O1610 Co1594 2.057 . S
O1610 C1598 1.232 . S
H1611 C1630 0.929 . S
H1612 C1631 0.929 . S
H1613 C1643 0.931 . S
H1614 C1635 0.929 . S
H1615 C1644 0.930 . S
H1616 C1636 0.931 . S
O1617 Co1593 2.097 . S
O1617 C1645 1.214 . S
H1618 C1646 0.929 . S
H1619 C1647 0.929 . S
H1620 C1648 0.930 . S
H1621 C1649 0.929 . S
H1622 C1651 0.930 . S
H1623 C1628 0.930 . S
H1624 C1632 0.930 . S
O1625 Co1594 2.037 . S
O1625 C1645 1.234 . S
C1626 O1600 1.269 . S
C1626 O1601 1.257 . S
C1627 H1602 0.930 . S
C1627 C1630 1.388 . S
C1627 C1632 1.418 . S
C1628 H1623 0.930 . S
C1628 C1631 1.404 . S
C1628 C1632 1.353 . S
N1629 Co1594 2.145 . S
N1629 C1630 1.397 . S
N1629 C1631 1.334 . S
C1630 H1611 0.929 . S
C1630 C1627 1.388 . S
C1630 N1629 1.397 . S
C1631 H1612 0.929 . S
C1631 C1628 1.404 . S
C1631 N1629 1.334 . S
C1632 H1624 0.930 . S
C1632 C1627 1.418 . S
C1632 C1628 1.353 . S
C1633 H1603 0.930 . S
C1633 N1634 1.330 . S
C1633 C1635 1.446 . S
N1634 Co1593 2.151 . S
N1634 C1633 1.330 . S
N1634 C1638 1.418 . S
C1635 H1614 0.929 . S
C1635 C1633 1.446 . S
C1635 C1636 1.332 . S
C1636 H1616 0.931 . S
C1636 C1635 1.332 . S
C1636 C1637 1.267 . S
C1637 H1605 0.929 . S
C1637 C1636 1.267 . S
C1637 C1638 1.251 . S
C1638 H1608 0.929 . S
C1638 N1634 1.418 . S
C1638 C1637 1.251 . S
C1639 H1606 0.930 . S
C1639 C1641 1.406 . S
C1639 C1644 1.261 . S
C1640 H1607 0.930 . S
C1640 N1642 1.325 . S
C1640 C1643 1.357 . S
C1641 H1609 0.928 . S
C1641 C1639 1.406 . S
C1641 N1642 1.261 . S
N1642 Co1593 2.214 . S
N1642 C1640 1.325 . S
N1642 C1641 1.261 . S
C1643 H1613 0.931 . S
C1643 C1640 1.357 . S
C1643 C1644 1.312 . S
C1644 H1615 0.930 . S
C1644 C1639 1.261 . S
C1644 C1643 1.312 . S
C1645 O1617 1.214 . S
C1645 O1625 1.234 . S
C1646 H1618 0.929 . S
C1646 C1649 1.391 . S
C1646 C1651 1.391 . S
C1647 H1619 0.929 . S
C1647 C1648 1.390 . S
C1647 N1650 1.391 . S
C1648 H1620 0.930 . S
C1648 C1647 1.390 . S
C1648 C1649 1.392 . S
C1649 H1621 0.929 . S
C1649 C1646 1.391 . S
C1649 C1648 1.392 . S
N1650 Co1594 2.257 . S
N1650 C1647 1.391 . S
N1650 C1651 1.388 . S
C1651 H1622 0.930 . S
C1651 C1646 1.391 . S
C1651 N1650 1.388 . S
Co1652 O1654 2.143 . S
Co1652 O1660 2.074 . S
Co1652 O1663 2.093 . S
Co1652 O1676 2.097 . S
Co1652 N1693 2.151 . S
Co1652 N1701 2.214 . S
Co1653 O1654 2.160 . S
Co1653 O1659 2.058 . S
Co1653 O1669 2.057 . S
Co1653 O1684 2.037 . S
Co1653 N1688 2.145 . S
Co1653 N1709 2.257 . S
O1654 Co1652 2.143 . S
O1654 Co1653 2.160 . S
C1655 O1656 1.278 . S
C1655 O1663 1.224 . S
O1656 C1655 1.278 . S
C1657 O1658 1.245 . S
C1657 O1669 1.232 . S
O1658 C1657 1.245 . S
O1659 Co1653 2.058 . S
O1659 C1685 1.269 . S
O1660 Co1652 2.074 . S
O1660 C1685 1.257 . S
H1661 C1686 0.930 . S
H1662 C1692 0.930 . S
O1663 Co1652 2.093 . S
O1663 C1655 1.224 . S
H1664 C1696 0.929 . S
H1665 C1698 0.930 . S
H1666 C1699 0.930 . S
H1667 C1697 0.929 . S
H1668 C1700 0.928 . S
O1669 Co1653 2.057 . S
O1669 C1657 1.232 . S
H1670 C1689 0.929 . S
H1671 C1690 0.929 . S
H1672 C1702 0.931 . S
H1673 C1694 0.929 . S
H1674 C1703 0.930 . S
H1675 C1695 0.931 . S
O1676 Co1652 2.097 . S
O1676 C1704 1.214 . S
H1677 C1705 0.929 . S
H1678 C1706 0.929 . S
H1679 C1707 0.930 . S
H1680 C1708 0.929 . S
H1681 C1710 0.930 . S
H1682 C1687 0.930 . S
H1683 C1691 0.930 . S
O1684 Co1653 2.037 . S
O1684 C1704 1.234 . S
C1685 O1659 1.269 . S
C1685 O1660 1.257 . S
C1686 H1661 0.930 . S
C1686 C1689 1.388 . S
C1686 C1691 1.418 . S
C1687 H1682 0.930 . S
C1687 C1690 1.404 . S
C1687 C1691 1.353 . S
N1688 Co1653 2.145 . S
N1688 C1689 1.397 . S
N1688 C1690 1.334 . S
C1689 H1670 0.929 . S
C1689 C1686 1.388 . S
C1689 N1688 1.397 . S
C1690 H1671 0.929 . S
C1690 C1687 1.404 . S
C1690 N1688 1.334 . S
C1691 H1683 0.930 . S
C1691 C1686 1.418 . S
C1691 C1687 1.353 . S
C1692 H1662 0.930 . S
C1692 N1693 1.330 . S
C1692 C1694 1.446 . S
N1693 Co1652 2.151 . S
N1693 C1692 1.330 . S
N1693 C1697 1.418 . S
C1694 H1673 0.929 . S
C1694 C1692 1.446 . S
C1694 C1695 1.332 . S
C1695 H1675 0.931 . S
C1695 C1694 1.332 . S
C1695 C1696 1.267 . S
C1696 H1664 0.929 . S
C1696 C1695 1.267 . S
C1696 C1697 1.251 . S
C1697 H1667 0.929 . S
C1697 N1693 1.418 . S
C1697 C1696 1.251 . S
C1698 H1665 0.930 . S
C1698 C1700 1.406 . S
C1698 C1703 1.261 . S
C1699 H1666 0.930 . S
C1699 N1701 1.325 . S
C1699 C1702 1.357 . S
C1700 H1668 0.928 . S
C1700 C1698 1.406 . S
C1700 N1701 1.261 . S
N1701 Co1652 2.214 . S
N1701 C1699 1.325 . S
N1701 C1700 1.261 . S
C1702 H1672 0.931 . S
C1702 C1699 1.357 . S
C1702 C1703 1.312 . S
C1703 H1674 0.930 . S
C1703 C1698 1.261 . S
C1703 C1702 1.312 . S
C1704 O1676 1.214 . S
C1704 O1684 1.234 . S
C1705 H1677 0.929 . S
C1705 C1708 1.391 . S
C1705 C1710 1.391 . S
C1706 H1678 0.929 . S
C1706 C1707 1.390 . S
C1706 N1709 1.391 . S
C1707 H1679 0.930 . S
C1707 C1706 1.390 . S
C1707 C1708 1.392 . S
C1708 H1680 0.929 . S
C1708 C1705 1.391 . S
C1708 C1707 1.392 . S
N1709 Co1653 2.257 . S
N1709 C1706 1.391 . S
N1709 C1710 1.388 . S
C1710 H1681 0.930 . S
C1710 C1705 1.391 . S
C1710 N1709 1.388 . S
Co1711 O1713 2.143 . S
Co1711 O1719 2.074 . S
Co1711 O1722 2.093 . S
Co1711 O1735 2.097 . S
Co1711 N1752 2.151 . S
Co1711 N1760 2.214 . S
Co1712 O1713 2.160 . S
Co1712 O1718 2.058 . S
Co1712 O1728 2.057 . S
Co1712 O1743 2.037 . S
Co1712 N1747 2.145 . S
Co1712 N1768 2.257 . S
O1713 Co1711 2.143 . S
O1713 Co1712 2.160 . S
C1714 O1715 1.278 . S
C1714 O1722 1.224 . S
O1715 C1714 1.278 . S
C1716 O1717 1.245 . S
C1716 O1728 1.232 . S
O1717 C1716 1.245 . S
O1718 Co1712 2.058 . S
O1718 C1744 1.269 . S
O1719 Co1711 2.074 . S
O1719 C1744 1.257 . S
H1720 C1745 0.930 . S
H1721 C1751 0.930 . S
O1722 Co1711 2.093 . S
O1722 C1714 1.224 . S
H1723 C1755 0.929 . S
H1724 C1757 0.930 . S
H1725 C1758 0.930 . S
H1726 C1756 0.929 . S
H1727 C1759 0.928 . S
O1728 Co1712 2.057 . S
O1728 C1716 1.232 . S
H1729 C1748 0.929 . S
H1730 C1749 0.929 . S
H1731 C1761 0.931 . S
H1732 C1753 0.929 . S
H1733 C1762 0.930 . S
H1734 C1754 0.931 . S
O1735 Co1711 2.097 . S
O1735 C1763 1.214 . S
H1736 C1764 0.929 . S
H1737 C1765 0.929 . S
H1738 C1766 0.930 . S
H1739 C1767 0.929 . S
H1740 C1769 0.930 . S
H1741 C1746 0.930 . S
H1742 C1750 0.930 . S
O1743 Co1712 2.037 . S
O1743 C1763 1.234 . S
C1744 O1718 1.269 . S
C1744 O1719 1.257 . S
C1745 H1720 0.930 . S
C1745 C1748 1.388 . S
C1745 C1750 1.418 . S
C1746 H1741 0.930 . S
C1746 C1749 1.404 . S
C1746 C1750 1.353 . S
N1747 Co1712 2.145 . S
N1747 C1748 1.397 . S
N1747 C1749 1.334 . S
C1748 H1729 0.929 . S
C1748 C1745 1.388 . S
C1748 N1747 1.397 . S
C1749 H1730 0.929 . S
C1749 C1746 1.404 . S
C1749 N1747 1.334 . S
C1750 H1742 0.930 . S
C1750 C1745 1.418 . S
C1750 C1746 1.353 . S
C1751 H1721 0.930 . S
C1751 N1752 1.330 . S
C1751 C1753 1.446 . S
N1752 Co1711 2.151 . S
N1752 C1751 1.330 . S
N1752 C1756 1.418 . S
C1753 H1732 0.929 . S
C1753 C1751 1.446 . S
C1753 C1754 1.332 . S
C1754 H1734 0.931 . S
C1754 C1753 1.332 . S
C1754 C1755 1.267 . S
C1755 H1723 0.929 . S
C1755 C1754 1.267 . S
C1755 C1756 1.251 . S
C1756 H1726 0.929 . S
C1756 N1752 1.418 . S
C1756 C1755 1.251 . S
C1757 H1724 0.930 . S
C1757 C1759 1.406 . S
C1757 C1762 1.261 . S
C1758 H1725 0.930 . S
C1758 N1760 1.325 . S
C1758 C1761 1.357 . S
C1759 H1727 0.928 . S
C1759 C1757 1.406 . S
C1759 N1760 1.261 . S
N1760 Co1711 2.214 . S
N1760 C1758 1.325 . S
N1760 C1759 1.261 . S
C1761 H1731 0.931 . S
C1761 C1758 1.357 . S
C1761 C1762 1.312 . S
C1762 H1733 0.930 . S
C1762 C1757 1.261 . S
C1762 C1761 1.312 . S
C1763 O1735 1.214 . S
C1763 O1743 1.234 . S
C1764 H1736 0.929 . S
C1764 C1767 1.391 . S
C1764 C1769 1.391 . S
C1765 H1737 0.929 . S
C1765 C1766 1.390 . S
C1765 N1768 1.391 . S
C1766 H1738 0.930 . S
C1766 C1765 1.390 . S
C1766 C1767 1.392 . S
C1767 H1739 0.929 . S
C1767 C1764 1.391 . S
C1767 C1766 1.392 . S
N1768 Co1712 2.257 . S
N1768 C1765 1.391 . S
N1768 C1769 1.388 . S
C1769 H1740 0.930 . S
C1769 C1764 1.391 . S
C1769 N1768 1.388 . S
Co1770 O1772 2.143 . S
Co1770 O1778 2.074 . S
Co1770 O1781 2.093 . S
Co1770 O1794 2.097 . S
Co1770 N1811 2.151 . S
Co1770 N1819 2.214 . S
Co1771 O1772 2.160 . S
Co1771 O1777 2.058 . S
Co1771 O1787 2.057 . S
Co1771 O1802 2.037 . S
Co1771 N1806 2.145 . S
Co1771 N1827 2.257 . S
O1772 Co1770 2.143 . S
O1772 Co1771 2.160 . S
C1773 O1774 1.278 . S
C1773 O1781 1.224 . S
O1774 C1773 1.278 . S
C1775 O1776 1.245 . S
C1775 O1787 1.232 . S
O1776 C1775 1.245 . S
O1777 Co1771 2.058 . S
O1777 C1803 1.269 . S
O1778 Co1770 2.074 . S
O1778 C1803 1.257 . S
H1779 C1804 0.930 . S
H1780 C1810 0.930 . S
O1781 Co1770 2.093 . S
O1781 C1773 1.224 . S
H1782 C1814 0.929 . S
H1783 C1816 0.930 . S
H1784 C1817 0.930 . S
H1785 C1815 0.929 . S
H1786 C1818 0.928 . S
O1787 Co1771 2.057 . S
O1787 C1775 1.232 . S
H1788 C1807 0.929 . S
H1789 C1808 0.929 . S
H1790 C1820 0.931 . S
H1791 C1812 0.929 . S
H1792 C1821 0.930 . S
H1793 C1813 0.931 . S
O1794 Co1770 2.097 . S
O1794 C1822 1.214 . S
H1795 C1823 0.929 . S
H1796 C1824 0.929 . S
H1797 C1825 0.930 . S
H1798 C1826 0.929 . S
H1799 C1828 0.930 . S
H1800 C1805 0.930 . S
H1801 C1809 0.930 . S
O1802 Co1771 2.037 . S
O1802 C1822 1.234 . S
C1803 O1777 1.269 . S
C1803 O1778 1.257 . S
C1804 H1779 0.930 . S
C1804 C1807 1.388 . S
C1804 C1809 1.418 . S
C1805 H1800 0.930 . S
C1805 C1808 1.404 . S
C1805 C1809 1.353 . S
N1806 Co1771 2.145 . S
N1806 C1807 1.397 . S
N1806 C1808 1.334 . S
C1807 H1788 0.929 . S
C1807 C1804 1.388 . S
C1807 N1806 1.397 . S
C1808 H1789 0.929 . S
C1808 C1805 1.404 . S
C1808 N1806 1.334 . S
C1809 H1801 0.930 . S
C1809 C1804 1.418 . S
C1809 C1805 1.353 . S
C1810 H1780 0.930 . S
C1810 N1811 1.330 . S
C1810 C1812 1.446 . S
N1811 Co1770 2.151 . S
N1811 C1810 1.330 . S
N1811 C1815 1.418 . S
C1812 H1791 0.929 . S
C1812 C1810 1.446 . S
C1812 C1813 1.332 . S
C1813 H1793 0.931 . S
C1813 C1812 1.332 . S
C1813 C1814 1.267 . S
C1814 H1782 0.929 . S
C1814 C1813 1.267 . S
C1814 C1815 1.251 . S
C1815 H1785 0.929 . S
C1815 N1811 1.418 . S
C1815 C1814 1.251 . S
C1816 H1783 0.930 . S
C1816 C1818 1.406 . S
C1816 C1821 1.261 . S
C1817 H1784 0.930 . S
C1817 N1819 1.325 . S
C1817 C1820 1.357 . S
C1818 H1786 0.928 . S
C1818 C1816 1.406 . S
C1818 N1819 1.261 . S
N1819 Co1770 2.214 . S
N1819 C1817 1.325 . S
N1819 C1818 1.261 . S
C1820 H1790 0.931 . S
C1820 C1817 1.357 . S
C1820 C1821 1.312 . S
C1821 H1792 0.930 . S
C1821 C1816 1.261 . S
C1821 C1820 1.312 . S
C1822 O1794 1.214 . S
C1822 O1802 1.234 . S
C1823 H1795 0.929 . S
C1823 C1826 1.391 . S
C1823 C1828 1.391 . S
C1824 H1796 0.929 . S
C1824 C1825 1.390 . S
C1824 N1827 1.391 . S
C1825 H1797 0.930 . S
C1825 C1824 1.390 . S
C1825 C1826 1.392 . S
C1826 H1798 0.929 . S
C1826 C1823 1.391 . S
C1826 C1825 1.392 . S
N1827 Co1771 2.257 . S
N1827 C1824 1.391 . S
N1827 C1828 1.388 . S
C1828 H1799 0.930 . S
C1828 C1823 1.391 . S
C1828 N1827 1.388 . S
Co1829 O1831 2.143 . S
Co1829 O1837 2.074 . S
Co1829 O1840 2.093 . S
Co1829 O1853 2.097 . S
Co1829 N1870 2.151 . S
Co1829 N1878 2.214 . S
Co1830 O1831 2.160 . S
Co1830 O1836 2.058 . S
Co1830 O1846 2.057 . S
Co1830 O1861 2.037 . S
Co1830 N1865 2.145 . S
Co1830 N1886 2.257 . S
O1831 Co1829 2.143 . S
O1831 Co1830 2.160 . S
C1832 O1833 1.278 . S
C1832 O1840 1.224 . S
O1833 C1832 1.278 . S
C1834 O1835 1.245 . S
C1834 O1846 1.232 . S
O1835 C1834 1.245 . S
O1836 Co1830 2.058 . S
O1836 C1862 1.269 . S
O1837 Co1829 2.074 . S
O1837 C1862 1.257 . S
H1838 C1863 0.930 . S
H1839 C1869 0.930 . S
O1840 Co1829 2.093 . S
O1840 C1832 1.224 . S
H1841 C1873 0.929 . S
H1842 C1875 0.930 . S
H1843 C1876 0.930 . S
H1844 C1874 0.929 . S
H1845 C1877 0.928 . S
O1846 Co1830 2.057 . S
O1846 C1834 1.232 . S
H1847 C1866 0.929 . S
H1848 C1867 0.929 . S
H1849 C1879 0.931 . S
H1850 C1871 0.929 . S
H1851 C1880 0.930 . S
H1852 C1872 0.931 . S
O1853 Co1829 2.097 . S
O1853 C1881 1.214 . S
H1854 C1882 0.929 . S
H1855 C1883 0.929 . S
H1856 C1884 0.930 . S
H1857 C1885 0.929 . S
H1858 C1887 0.930 . S
H1859 C1864 0.930 . S
H1860 C1868 0.930 . S
O1861 Co1830 2.037 . S
O1861 C1881 1.234 . S
C1862 O1836 1.269 . S
C1862 O1837 1.257 . S
C1863 H1838 0.930 . S
C1863 C1866 1.388 . S
C1863 C1868 1.418 . S
C1864 H1859 0.930 . S
C1864 C1867 1.404 . S
C1864 C1868 1.353 . S
N1865 Co1830 2.145 . S
N1865 C1866 1.397 . S
N1865 C1867 1.334 . S
C1866 H1847 0.929 . S
C1866 C1863 1.388 . S
C1866 N1865 1.397 . S
C1867 H1848 0.929 . S
C1867 C1864 1.404 . S
C1867 N1865 1.334 . S
C1868 H1860 0.930 . S
C1868 C1863 1.418 . S
C1868 C1864 1.353 . S
C1869 H1839 0.930 . S
C1869 N1870 1.330 . S
C1869 C1871 1.446 . S
N1870 Co1829 2.151 . S
N1870 C1869 1.330 . S
N1870 C1874 1.418 . S
C1871 H1850 0.929 . S
C1871 C1869 1.446 . S
C1871 C1872 1.332 . S
C1872 H1852 0.931 . S
C1872 C1871 1.332 . S
C1872 C1873 1.267 . S
C1873 H1841 0.929 . S
C1873 C1872 1.267 . S
C1873 C1874 1.251 . S
C1874 H1844 0.929 . S
C1874 N1870 1.418 . S
C1874 C1873 1.251 . S
C1875 H1842 0.930 . S
C1875 C1877 1.406 . S
C1875 C1880 1.261 . S
C1876 H1843 0.930 . S
C1876 N1878 1.325 . S
C1876 C1879 1.357 . S
C1877 H1845 0.928 . S
C1877 C1875 1.406 . S
C1877 N1878 1.261 . S
N1878 Co1829 2.214 . S
N1878 C1876 1.325 . S
N1878 C1877 1.261 . S
C1879 H1849 0.931 . S
C1879 C1876 1.357 . S
C1879 C1880 1.312 . S
C1880 H1851 0.930 . S
C1880 C1875 1.261 . S
C1880 C1879 1.312 . S
C1881 O1853 1.214 . S
C1881 O1861 1.234 . S
C1882 H1854 0.929 . S
C1882 C1885 1.391 . S
C1882 C1887 1.391 . S
C1883 H1855 0.929 . S
C1883 C1884 1.390 . S
C1883 N1886 1.391 . S
C1884 H1856 0.930 . S
C1884 C1883 1.390 . S
C1884 C1885 1.392 . S
C1885 H1857 0.929 . S
C1885 C1882 1.391 . S
C1885 C1884 1.392 . S
N1886 Co1830 2.257 . S
N1886 C1883 1.391 . S
N1886 C1887 1.388 . S
C1887 H1858 0.930 . S
C1887 C1882 1.391 . S
C1887 N1886 1.388 . S
Co1888 O1890 2.143 . S
Co1888 O1896 2.074 . S
Co1888 O1899 2.093 . S
Co1888 O1912 2.097 . S
Co1888 N1929 2.151 . S
Co1888 N1937 2.214 . S
Co1889 O1890 2.160 . S
Co1889 O1895 2.058 . S
Co1889 O1905 2.057 . S
Co1889 O1920 2.037 . S
Co1889 N1924 2.145 . S
Co1889 N1945 2.257 . S
O1890 Co1888 2.143 . S
O1890 Co1889 2.160 . S
C1891 O1892 1.278 . S
C1891 O1899 1.224 . S
O1892 C1891 1.278 . S
C1893 O1894 1.245 . S
C1893 O1905 1.232 . S
O1894 C1893 1.245 . S
O1895 Co1889 2.058 . S
O1895 C1921 1.269 . S
O1896 Co1888 2.074 . S
O1896 C1921 1.257 . S
H1897 C1922 0.930 . S
H1898 C1928 0.930 . S
O1899 Co1888 2.093 . S
O1899 C1891 1.224 . S
H1900 C1932 0.929 . S
H1901 C1934 0.930 . S
H1902 C1935 0.930 . S
H1903 C1933 0.929 . S
H1904 C1936 0.928 . S
O1905 Co1889 2.057 . S
O1905 C1893 1.232 . S
H1906 C1925 0.929 . S
H1907 C1926 0.929 . S
H1908 C1938 0.931 . S
H1909 C1930 0.929 . S
H1910 C1939 0.930 . S
H1911 C1931 0.931 . S
O1912 Co1888 2.097 . S
O1912 C1940 1.214 . S
H1913 C1941 0.929 . S
H1914 C1942 0.929 . S
H1915 C1943 0.930 . S
H1916 C1944 0.929 . S
H1917 C1946 0.930 . S
H1918 C1923 0.930 . S
H1919 C1927 0.930 . S
O1920 Co1889 2.037 . S
O1920 C1940 1.234 . S
C1921 O1895 1.269 . S
C1921 O1896 1.257 . S
C1922 H1897 0.930 . S
C1922 C1925 1.388 . S
C1922 C1927 1.418 . S
C1923 H1918 0.930 . S
C1923 C1926 1.404 . S
C1923 C1927 1.353 . S
N1924 Co1889 2.145 . S
N1924 C1925 1.397 . S
N1924 C1926 1.334 . S
C1925 H1906 0.929 . S
C1925 C1922 1.388 . S
C1925 N1924 1.397 . S
C1926 H1907 0.929 . S
C1926 C1923 1.404 . S
C1926 N1924 1.334 . S
C1927 H1919 0.930 . S
C1927 C1922 1.418 . S
C1927 C1923 1.353 . S
C1928 H1898 0.930 . S
C1928 N1929 1.330 . S
C1928 C1930 1.446 . S
N1929 Co1888 2.151 . S
N1929 C1928 1.330 . S
N1929 C1933 1.418 . S
C1930 H1909 0.929 . S
C1930 C1928 1.446 . S
C1930 C1931 1.332 . S
C1931 H1911 0.931 . S
C1931 C1930 1.332 . S
C1931 C1932 1.267 . S
C1932 H1900 0.929 . S
C1932 C1931 1.267 . S
C1932 C1933 1.251 . S
C1933 H1903 0.929 . S
C1933 N1929 1.418 . S
C1933 C1932 1.251 . S
C1934 H1901 0.930 . S
C1934 C1936 1.406 . S
C1934 C1939 1.261 . S
C1935 H1902 0.930 . S
C1935 N1937 1.325 . S
C1935 C1938 1.357 . S
C1936 H1904 0.928 . S
C1936 C1934 1.406 . S
C1936 N1937 1.261 . S
N1937 Co1888 2.214 . S
N1937 C1935 1.325 . S
N1937 C1936 1.261 . S
C1938 H1908 0.931 . S
C1938 C1935 1.357 . S
C1938 C1939 1.312 . S
C1939 H1910 0.930 . S
C1939 C1934 1.261 . S
C1939 C1938 1.312 . S
C1940 O1912 1.214 . S
C1940 O1920 1.234 . S
C1941 H1913 0.929 . S
C1941 C1944 1.391 . S
C1941 C1946 1.391 . S
C1942 H1914 0.929 . S
C1942 C1943 1.390 . S
C1942 N1945 1.391 . S
C1943 H1915 0.930 . S
C1943 C1942 1.390 . S
C1943 C1944 1.392 . S
C1944 H1916 0.929 . S
C1944 C1941 1.391 . S
C1944 C1943 1.392 . S
N1945 Co1889 2.257 . S
N1945 C1942 1.391 . S
N1945 C1946 1.388 . S
C1946 H1917 0.930 . S
C1946 C1941 1.391 . S
C1946 N1945 1.388 . S
Co1947 O1949 2.143 . S
Co1947 O1955 2.074 . S
Co1947 O1958 2.093 . S
Co1947 O1971 2.097 . S
Co1947 N1988 2.151 . S
Co1947 N1996 2.214 . S
Co1948 O1949 2.160 . S
Co1948 O1954 2.058 . S
Co1948 O1964 2.057 1_556 S
Co1948 O1979 2.037 . S
Co1948 N1983 2.145 1_556 S
Co1948 N2004 2.257 . S
O1949 Co1947 2.143 . S
O1949 Co1948 2.160 . S
C1950 O1951 1.278 . S
C1950 O1958 1.224 . S
O1951 C1950 1.278 . S
C1952 O1953 1.245 . S
C1952 O1964 1.232 . S
O1953 C1952 1.245 . S
O1954 Co1948 2.058 . S
O1954 C1980 1.269 . S
O1955 Co1947 2.074 . S
O1955 C1980 1.257 . S
H1956 C1981 0.930 . S
H1957 C1987 0.930 . S
O1958 Co1947 2.093 . S
O1958 C1950 1.224 . S
H1959 C1991 0.929 . S
H1960 C1993 0.930 . S
H1961 C1994 0.930 . S
H1962 C1992 0.929 . S
H1963 C1995 0.928 . S
O1964 Co1948 2.057 1_554 S
O1964 C1952 1.232 . S
H1965 C1984 0.929 . S
H1966 C1985 0.929 . S
H1967 C1997 0.931 . S
H1968 C1989 0.929 . S
H1969 C1998 0.930 . S
H1970 C1990 0.931 . S
O1971 Co1947 2.097 . S
O1971 C1999 1.214 . S
H1972 C2000 0.929 . S
H1973 C2001 0.929 . S
H1974 C2002 0.930 . S
H1975 C2003 0.929 . S
H1976 C2005 0.930 . S
H1977 C1982 0.930 . S
H1978 C1986 0.930 . S
O1979 Co1948 2.037 . S
O1979 C1999 1.234 . S
C1980 O1954 1.269 . S
C1980 O1955 1.257 . S
C1981 H1956 0.930 . S
C1981 C1984 1.388 . S
C1981 C1986 1.418 . S
C1982 H1977 0.930 . S
C1982 C1985 1.404 . S
C1982 C1986 1.353 . S
N1983 Co1948 2.145 1_554 S
N1983 C1984 1.397 . S
N1983 C1985 1.334 . S
C1984 H1965 0.929 . S
C1984 C1981 1.388 . S
C1984 N1983 1.397 . S
C1985 H1966 0.929 . S
C1985 C1982 1.404 . S
C1985 N1983 1.334 . S
C1986 H1978 0.930 . S
C1986 C1981 1.418 . S
C1986 C1982 1.353 . S
C1987 H1957 0.930 . S
C1987 N1988 1.330 . S
C1987 C1989 1.446 . S
N1988 Co1947 2.151 . S
N1988 C1987 1.330 . S
N1988 C1992 1.418 . S
C1989 H1968 0.929 . S
C1989 C1987 1.446 . S
C1989 C1990 1.332 . S
C1990 H1970 0.931 . S
C1990 C1989 1.332 . S
C1990 C1991 1.267 . S
C1991 H1959 0.929 . S
C1991 C1990 1.267 . S
C1991 C1992 1.251 . S
C1992 H1962 0.929 . S
C1992 N1988 1.418 . S
C1992 C1991 1.251 . S
C1993 H1960 0.930 . S
C1993 C1995 1.406 . S
C1993 C1998 1.261 . S
C1994 H1961 0.930 . S
C1994 N1996 1.325 . S
C1994 C1997 1.357 . S
C1995 H1963 0.928 . S
C1995 C1993 1.406 . S
C1995 N1996 1.261 . S
N1996 Co1947 2.214 . S
N1996 C1994 1.325 . S
N1996 C1995 1.261 . S
C1997 H1967 0.931 . S
C1997 C1994 1.357 . S
C1997 C1998 1.312 . S
C1998 H1969 0.930 . S
C1998 C1993 1.261 . S
C1998 C1997 1.312 . S
C1999 O1971 1.214 . S
C1999 O1979 1.234 . S
C2000 H1972 0.929 . S
C2000 C2003 1.391 . S
C2000 C2005 1.391 . S
C2001 H1973 0.929 . S
C2001 C2002 1.390 . S
C2001 N2004 1.391 . S
C2002 H1974 0.930 . S
C2002 C2001 1.390 . S
C2002 C2003 1.392 . S
C2003 H1975 0.929 . S
C2003 C2000 1.391 . S
C2003 C2002 1.392 . S
N2004 Co1948 2.257 . S
N2004 C2001 1.391 . S
N2004 C2005 1.388 . S
C2005 H1976 0.930 . S
C2005 C2000 1.391 . S
C2005 N2004 1.388 . S
Co2006 O2008 2.141 1_554 S
Co2006 O2014 2.072 1_554 S
Co2006 O2017 2.094 . S
Co2006 O2030 2.097 1_554 S
Co2006 N2047 2.151 . S
Co2006 N2055 2.215 . S
Co2007 O2008 2.160 . S
Co2007 O2013 2.058 . S
Co2007 O2023 2.057 . S
Co2007 O2038 2.037 . S
Co2007 N2042 2.145 . S
Co2007 N2063 2.257 . S
O2008 Co2006 2.141 1_556 S
O2008 Co2007 2.160 . S
C2009 O2010 1.278 . S
C2009 O2017 1.224 . S
O2010 C2009 1.278 . S
C2011 O2012 1.245 . S
C2011 O2023 1.232 . S
O2012 C2011 1.245 . S
O2013 Co2007 2.058 . S
O2013 C2039 1.269 . S
O2014 Co2006 2.072 1_556 S
O2014 C2039 1.257 . S
H2015 C2040 0.930 . S
H2016 C2046 0.930 . S
O2017 Co2006 2.094 . S
O2017 C2009 1.224 . S
H2018 C2050 0.929 . S
H2019 C2052 0.930 . S
H2020 C2053 0.930 . S
H2021 C2051 0.929 . S
H2022 C2054 0.928 . S
O2023 Co2007 2.057 . S
O2023 C2011 1.232 . S
H2024 C2043 0.929 . S
H2025 C2044 0.929 . S
H2026 C2056 0.931 . S
H2027 C2048 0.929 . S
H2028 C2057 0.930 . S
H2029 C2049 0.931 . S
O2030 Co2006 2.097 1_556 S
O2030 C2058 1.214 . S
H2031 C2059 0.929 . S
H2032 C2060 0.929 . S
H2033 C2061 0.930 . S
H2034 C2062 0.929 . S
H2035 C2064 0.930 . S
H2036 C2041 0.930 . S
H2037 C2045 0.930 . S
O2038 Co2007 2.037 . S
O2038 C2058 1.234 . S
C2039 O2013 1.269 . S
C2039 O2014 1.257 . S
C2040 H2015 0.930 . S
C2040 C2043 1.388 . S
C2040 C2045 1.418 . S
C2041 H2036 0.930 . S
C2041 C2044 1.404 . S
C2041 C2045 1.353 . S
N2042 Co2007 2.145 . S
N2042 C2043 1.397 . S
N2042 C2044 1.334 . S
C2043 H2024 0.929 . S
C2043 C2040 1.388 . S
C2043 N2042 1.397 . S
C2044 H2025 0.929 . S
C2044 C2041 1.404 . S
C2044 N2042 1.334 . S
C2045 H2037 0.930 . S
C2045 C2040 1.418 . S
C2045 C2041 1.353 . S
C2046 H2016 0.930 . S
C2046 N2047 1.330 . S
C2046 C2048 1.446 . S
N2047 Co2006 2.151 . S
N2047 C2046 1.330 . S
N2047 C2051 1.418 . S
C2048 H2027 0.929 . S
C2048 C2046 1.446 . S
C2048 C2049 1.332 . S
C2049 H2029 0.931 . S
C2049 C2048 1.332 . S
C2049 C2050 1.267 . S
C2050 H2018 0.929 . S
C2050 C2049 1.267 . S
C2050 C2051 1.251 . S
C2051 H2021 0.929 . S
C2051 N2047 1.418 . S
C2051 C2050 1.251 . S
C2052 H2019 0.930 . S
C2052 C2054 1.406 . S
C2052 C2057 1.261 . S
C2053 H2020 0.930 . S
C2053 N2055 1.325 . S
C2053 C2056 1.357 . S
C2054 H2022 0.928 . S
C2054 C2052 1.406 . S
C2054 N2055 1.261 . S
N2055 Co2006 2.215 . S
N2055 C2053 1.325 . S
N2055 C2054 1.261 . S
C2056 H2026 0.931 . S
C2056 C2053 1.357 . S
C2056 C2057 1.312 . S
C2057 H2028 0.930 . S
C2057 C2052 1.261 . S
C2057 C2056 1.312 . S
C2058 O2030 1.214 . S
C2058 O2038 1.234 . S
C2059 H2031 0.929 . S
C2059 C2062 1.391 . S
C2059 C2064 1.391 . S
C2060 H2032 0.929 . S
C2060 C2061 1.390 . S
C2060 N2063 1.391 . S
C2061 H2033 0.930 . S
C2061 C2060 1.390 . S
C2061 C2062 1.392 . S
C2062 H2034 0.929 . S
C2062 C2059 1.391 . S
C2062 C2061 1.392 . S
N2063 Co2007 2.257 . S
N2063 C2060 1.391 . S
N2063 C2064 1.388 . S
C2064 H2035 0.930 . S
C2064 C2059 1.391 . S
C2064 N2063 1.388 . S
Co2065 O2067 2.143 . S
Co2065 O2073 2.074 . S
Co2065 O2076 2.093 . S
Co2065 O2089 2.097 . S
Co2065 N2106 2.151 . S
Co2065 N2114 2.214 . S
Co2066 O2067 2.160 . S
Co2066 O2072 2.058 . S
Co2066 O2082 2.057 1_556 S
Co2066 O2097 2.037 . S
Co2066 N2101 2.145 1_556 S
Co2066 N2122 2.257 . S
O2067 Co2065 2.143 . S
O2067 Co2066 2.160 . S
C2068 O2069 1.278 . S
C2068 O2076 1.224 . S
O2069 C2068 1.278 . S
C2070 O2071 1.245 . S
C2070 O2082 1.232 . S
O2071 C2070 1.245 . S
O2072 Co2066 2.058 . S
O2072 C2098 1.269 . S
O2073 Co2065 2.074 . S
O2073 C2098 1.257 . S
H2074 C2099 0.930 . S
H2075 C2105 0.930 . S
O2076 Co2065 2.093 . S
O2076 C2068 1.224 . S
H2077 C2109 0.929 . S
H2078 C2111 0.930 . S
H2079 C2112 0.930 . S
H2080 C2110 0.929 . S
H2081 C2113 0.928 . S
O2082 Co2066 2.057 1_554 S
O2082 C2070 1.232 . S
H2083 C2102 0.929 . S
H2084 C2103 0.929 . S
H2085 C2115 0.931 . S
H2086 C2107 0.929 . S
H2087 C2116 0.930 . S
H2088 C2108 0.931 . S
O2089 Co2065 2.097 . S
O2089 C2117 1.214 . S
H2090 C2118 0.929 . S
H2091 C2119 0.929 . S
H2092 C2120 0.930 . S
H2093 C2121 0.929 . S
H2094 C2123 0.930 . S
H2095 C2100 0.930 . S
H2096 C2104 0.930 . S
O2097 Co2066 2.037 . S
O2097 C2117 1.234 . S
C2098 O2072 1.269 . S
C2098 O2073 1.257 . S
C2099 H2074 0.930 . S
C2099 C2102 1.388 . S
C2099 C2104 1.418 . S
C2100 H2095 0.930 . S
C2100 C2103 1.404 . S
C2100 C2104 1.353 . S
N2101 Co2066 2.145 1_554 S
N2101 C2102 1.397 . S
N2101 C2103 1.334 . S
C2102 H2083 0.929 . S
C2102 C2099 1.388 . S
C2102 N2101 1.397 . S
C2103 H2084 0.929 . S
C2103 C2100 1.404 . S
C2103 N2101 1.334 . S
C2104 H2096 0.930 . S
C2104 C2099 1.418 . S
C2104 C2100 1.353 . S
C2105 H2075 0.930 . S
C2105 N2106 1.330 . S
C2105 C2107 1.446 . S
N2106 Co2065 2.151 . S
N2106 C2105 1.330 . S
N2106 C2110 1.418 . S
C2107 H2086 0.929 . S
C2107 C2105 1.446 . S
C2107 C2108 1.332 . S
C2108 H2088 0.931 . S
C2108 C2107 1.332 . S
C2108 C2109 1.267 . S
C2109 H2077 0.929 . S
C2109 C2108 1.267 . S
C2109 C2110 1.251 . S
C2110 H2080 0.929 . S
C2110 N2106 1.418 . S
C2110 C2109 1.251 . S
C2111 H2078 0.930 . S
C2111 C2113 1.406 . S
C2111 C2116 1.261 . S
C2112 H2079 0.930 . S
C2112 N2114 1.325 . S
C2112 C2115 1.357 . S
C2113 H2081 0.928 . S
C2113 C2111 1.406 . S
C2113 N2114 1.261 . S
N2114 Co2065 2.214 . S
N2114 C2112 1.325 . S
N2114 C2113 1.261 . S
C2115 H2085 0.931 . S
C2115 C2112 1.357 . S
C2115 C2116 1.312 . S
C2116 H2087 0.930 . S
C2116 C2111 1.261 . S
C2116 C2115 1.312 . S
C2117 O2089 1.214 . S
C2117 O2097 1.234 . S
C2118 H2090 0.929 . S
C2118 C2121 1.391 . S
C2118 C2123 1.391 . S
C2119 H2091 0.929 . S
C2119 C2120 1.390 . S
C2119 N2122 1.391 . S
C2120 H2092 0.930 . S
C2120 C2119 1.390 . S
C2120 C2121 1.392 . S
C2121 H2093 0.929 . S
C2121 C2118 1.391 . S
C2121 C2120 1.392 . S
N2122 Co2066 2.257 . S
N2122 C2119 1.391 . S
N2122 C2123 1.388 . S
C2123 H2094 0.930 . S
C2123 C2118 1.391 . S
C2123 N2122 1.388 . S
C2124 C2125 1.369 . S
C2124 C2126 1.419 . S
C2124 H2128 0.930 . S
C2125 C2124 1.369 . S
C2125 C2134 1.429 1_565 S
C2126 C2124 1.419 . S
C2126 C2127 1.363 1_565 S
C2126 H2129 0.929 . S
C2127 C2126 1.363 1_545 S
C2127 C2133 1.428 . S
H2128 C2124 0.930 . S
H2129 C2126 0.929 . S
S2130 N2131 1.613 . S
S2130 N2132 1.610 . S
N2131 S2130 1.613 . S
N2131 C2134 1.350 . S
N2132 S2130 1.610 . S
N2132 C2133 1.351 . S
C2133 C2127 1.428 . S
C2133 N2132 1.351 . S
C2133 C2134 1.434 . S
C2134 C2125 1.429 1_545 S
C2134 N2131 1.350 . S
C2134 C2133 1.434 . S
C2135 C2136 1.369 1_655 S
C2135 C2137 1.419 . S
C2135 H2139 0.930 . S
C2136 C2135 1.369 1_455 S
C2136 C2145 1.429 . S
C2137 C2135 1.419 . S
C2137 C2138 1.363 . S
C2137 H2140 0.929 . S
C2138 C2137 1.363 . S
C2138 C2144 1.428 1_655 S
H2139 C2135 0.930 . S
H2140 C2137 0.929 . S
S2141 N2142 1.613 . S
S2141 N2143 1.610 . S
N2142 S2141 1.613 . S
N2142 C2145 1.350 . S
N2143 S2141 1.610 . S
N2143 C2144 1.351 . S
C2144 C2138 1.428 1_455 S
C2144 N2143 1.351 . S
C2144 C2145 1.434 . S
C2145 C2136 1.429 . S
C2145 N2142 1.350 . S
C2145 C2144 1.434 . S
C2146 C2147 1.369 . S
C2146 C2148 1.419 . S
C2146 H2150 0.930 . S
C2147 C2146 1.369 . S
C2147 C2156 1.429 . S
C2148 C2146 1.419 . S
C2148 C2149 1.363 . S
C2148 H2151 0.929 . S
C2149 C2148 1.363 . S
C2149 C2155 1.428 . S
H2150 C2146 0.930 . S
H2151 C2148 0.929 . S
S2152 N2153 1.613 . S
S2152 N2154 1.610 . S
N2153 S2152 1.613 . S
N2153 C2156 1.350 . S
N2154 S2152 1.610 . S
N2154 C2155 1.351 . S
C2155 C2149 1.428 . S
C2155 N2154 1.351 . S
C2155 C2156 1.434 . S
C2156 C2147 1.429 . S
C2156 N2153 1.350 . S
C2156 C2155 1.434 . S
C2157 C2158 1.369 . S
C2157 C2159 1.419 1_565 S
C2157 H2161 0.930 . S
C2158 C2157 1.369 . S
C2158 C2167 1.429 . S
C2159 C2157 1.419 1_545 S
C2159 C2160 1.363 . S
C2159 H2162 0.929 . S
C2160 C2159 1.363 . S
C2160 C2166 1.428 . S
H2161 C2157 0.930 . S
H2162 C2159 0.929 . S
S2163 N2164 1.613 1_545 S
S2163 N2165 1.610 . S
N2164 S2163 1.613 1_565 S
N2164 C2167 1.350 . S
N2165 S2163 1.610 . S
N2165 C2166 1.351 . S
C2166 C2160 1.428 . S
C2166 N2165 1.351 . S
C2166 C2167 1.434 1_545 S
C2167 C2158 1.429 . S
C2167 N2164 1.350 . S
C2167 C2166 1.434 1_565 S
C2168 C2169 1.369 1_655 S
C2168 C2170 1.419 . S
C2168 H2172 0.930 . S
C2169 C2168 1.369 1_455 S
C2169 C2178 1.429 . S
C2170 C2168 1.419 . S
C2170 C2171 1.363 . S
C2170 H2173 0.929 . S
C2171 C2170 1.363 . S
C2171 C2177 1.428 1_655 S
H2172 C2168 0.930 . S
H2173 C2170 0.929 . S
S2174 N2175 1.613 . S
S2174 N2176 1.610 . S
N2175 S2174 1.613 . S
N2175 C2178 1.350 . S
N2176 S2174 1.610 . S
N2176 C2177 1.351 . S
C2177 C2171 1.428 1_455 S
C2177 N2176 1.351 . S
C2177 C2178 1.434 . S
C2178 C2169 1.429 . S
C2178 N2175 1.350 . S
C2178 C2177 1.434 . S
C2179 C2180 1.369 . S
C2179 C2181 1.419 . S
C2179 H2183 0.930 . S
C2180 C2179 1.369 . S
C2180 C2189 1.429 . S
C2181 C2179 1.419 . S
C2181 C2182 1.363 . S
C2181 H2184 0.929 . S
C2182 C2181 1.363 . S
C2182 C2188 1.428 . S
H2183 C2179 0.930 . S
H2184 C2181 0.929 . S
S2185 N2186 1.613 . S
S2185 N2187 1.610 . S
N2186 S2185 1.613 . S
N2186 C2189 1.350 . S
N2187 S2185 1.610 . S
N2187 C2188 1.351 . S
C2188 C2182 1.428 . S
C2188 N2187 1.351 . S
C2188 C2189 1.434 . S
C2189 C2180 1.429 . S
C2189 N2186 1.350 . S
C2189 C2188 1.434 . S
C2190 C2191 1.369 . S
C2190 C2192 1.419 . S
C2190 H2194 0.930 . S
C2191 C2190 1.369 . S
C2191 C2200 1.429 . S
C2192 C2190 1.419 . S
C2192 C2193 1.363 . S
C2192 H2195 0.929 . S
C2193 C2192 1.363 . S
C2193 C2199 1.428 . S
H2194 C2190 0.930 . S
H2195 C2192 0.929 . S
S2196 N2197 1.613 . S
S2196 N2198 1.610 . S
N2197 S2196 1.613 . S
N2197 C2200 1.350 . S
N2198 S2196 1.610 . S
N2198 C2199 1.351 . S
C2199 C2193 1.428 . S
C2199 N2198 1.351 . S
C2199 C2200 1.434 . S
C2200 C2191 1.429 . S
C2200 N2197 1.350 . S
C2200 C2199 1.434 . S
C2201 C2202 1.369 . S
C2201 C2203 1.419 . S
C2201 H2205 0.930 . S
C2202 C2201 1.369 . S
C2202 C2211 1.429 . S
C2203 C2201 1.419 . S
C2203 C2204 1.363 . S
C2203 H2206 0.929 . S
C2204 C2203 1.363 . S
C2204 C2210 1.428 . S
H2205 C2201 0.930 . S
H2206 C2203 0.929 . S
S2207 N2208 1.613 . S
S2207 N2209 1.610 . S
N2208 S2207 1.613 . S
N2208 C2211 1.350 . S
N2209 S2207 1.610 . S
N2209 C2210 1.351 . S
C2210 C2204 1.428 . S
C2210 N2209 1.351 . S
C2210 C2211 1.434 . S
C2211 C2202 1.429 . S
C2211 N2208 1.350 . S
C2211 C2210 1.434 . S
C2212 C2213 1.369 . S
C2212 C2214 1.419 . S
C2212 H2216 0.930 . S
C2213 C2212 1.369 . S
C2213 C2222 1.429 . S
C2214 C2212 1.419 . S
C2214 C2215 1.363 . S
C2214 H2217 0.929 . S
C2215 C2214 1.363 . S
C2215 C2221 1.428 . S
H2216 C2212 0.930 . S
H2217 C2214 0.929 . S
S2218 N2219 1.613 . S
S2218 N2220 1.610 . S
N2219 S2218 1.613 . S
N2219 C2222 1.350 . S
N2220 S2218 1.610 . S
N2220 C2221 1.351 . S
C2221 C2215 1.428 . S
C2221 N2220 1.351 . S
C2221 C2222 1.434 . S
C2222 C2213 1.429 . S
C2222 N2219 1.350 . S
C2222 C2221 1.434 . S
C2223 C2224 1.369 . S
C2223 C2225 1.419 . S
C2223 H2227 0.930 . S
C2224 C2223 1.369 . S
C2224 C2233 1.429 . S
C2225 C2223 1.419 . S
C2225 C2226 1.363 . S
C2225 H2228 0.929 . S
C2226 C2225 1.363 . S
C2226 C2232 1.428 . S
H2227 C2223 0.930 . S
H2228 C2225 0.929 . S
S2229 N2230 1.613 . S
S2229 N2231 1.610 . S
N2230 S2229 1.613 . S
N2230 C2233 1.350 . S
N2231 S2229 1.610 . S
N2231 C2232 1.351 . S
C2232 C2226 1.428 . S
C2232 N2231 1.351 . S
C2232 C2233 1.434 . S
C2233 C2224 1.429 . S
C2233 N2230 1.350 . S
C2233 C2232 1.434 . S
C2234 C2235 1.369 . S
C2234 C2236 1.419 . S
C2234 H2238 0.930 . S
C2235 C2234 1.369 . S
C2235 C2244 1.429 . S
C2236 C2234 1.419 . S
C2236 C2237 1.363 . S
C2236 H2239 0.929 . S
C2237 C2236 1.363 . S
C2237 C2243 1.428 . S
H2238 C2234 0.930 . S
H2239 C2236 0.929 . S
S2240 N2241 1.613 . S
S2240 N2242 1.610 . S
N2241 S2240 1.613 . S
N2241 C2244 1.350 . S
N2242 S2240 1.610 . S
N2242 C2243 1.351 . S
C2243 C2237 1.428 . S
C2243 N2242 1.351 . S
C2243 C2244 1.434 . S
C2244 C2235 1.429 . S
C2244 N2241 1.350 . S
C2244 C2243 1.434 . S
C2245 C2246 1.369 . S
C2245 C2247 1.419 . S
C2245 H2249 0.930 . S
C2246 C2245 1.369 . S
C2246 C2255 1.429 . S
C2247 C2245 1.419 . S
C2247 C2248 1.363 . S
C2247 H2250 0.929 . S
C2248 C2247 1.363 . S
C2248 C2254 1.428 . S
H2249 C2245 0.930 . S
H2250 C2247 0.929 . S
S2251 N2252 1.613 . S
S2251 N2253 1.610 . S
N2252 S2251 1.613 . S
N2252 C2255 1.350 . S
N2253 S2251 1.610 . S
N2253 C2254 1.351 . S
C2254 C2248 1.428 . S
C2254 N2253 1.351 . S
C2254 C2255 1.434 . S
C2255 C2246 1.429 . S
C2255 N2252 1.350 . S
C2255 C2254 1.434 . S
C2256 C2257 1.369 . S
C2256 C2258 1.419 . S
C2256 H2260 0.930 . S
C2257 C2256 1.369 . S
C2257 C2266 1.429 . S
C2258 C2256 1.419 . S
C2258 C2259 1.363 . S
C2258 H2261 0.929 . S
C2259 C2258 1.363 . S
C2259 C2265 1.428 . S
H2260 C2256 0.930 . S
H2261 C2258 0.929 . S
S2262 N2263 1.613 . S
S2262 N2264 1.610 . S
N2263 S2262 1.613 . S
N2263 C2266 1.350 . S
N2264 S2262 1.610 . S
N2264 C2265 1.351 . S
C2265 C2259 1.428 . S
C2265 N2264 1.351 . S
C2265 C2266 1.434 . S
C2266 C2257 1.429 . S
C2266 N2263 1.350 . S
C2266 C2265 1.434 . S
C2267 C2268 1.369 . S
C2267 C2269 1.419 . S
C2267 H2271 0.930 . S
C2268 C2267 1.369 . S
C2268 C2277 1.429 . S
C2269 C2267 1.419 . S
C2269 C2270 1.363 . S
C2269 H2272 0.929 . S
C2270 C2269 1.363 . S
C2270 C2276 1.428 . S
H2271 C2267 0.930 . S
H2272 C2269 0.929 . S
S2273 N2274 1.613 . S
S2273 N2275 1.610 . S
N2274 S2273 1.613 . S
N2274 C2277 1.350 . S
N2275 S2273 1.610 . S
N2275 C2276 1.351 . S
C2276 C2270 1.428 . S
C2276 N2275 1.351 . S
C2276 C2277 1.434 . S
C2277 C2268 1.429 . S
C2277 N2274 1.350 . S
C2277 C2276 1.434 . S
C2278 C2279 1.369 . S
C2278 C2280 1.419 . S
C2278 H2282 0.930 . S
C2279 C2278 1.369 . S
C2279 C2288 1.429 . S
C2280 C2278 1.419 . S
C2280 C2281 1.363 . S
C2280 H2283 0.929 . S
C2281 C2280 1.363 . S
C2281 C2287 1.428 . S
H2282 C2278 0.930 . S
H2283 C2280 0.929 . S
S2284 N2285 1.613 . S
S2284 N2286 1.610 . S
N2285 S2284 1.613 . S
N2285 C2288 1.350 . S
N2286 S2284 1.610 . S
N2286 C2287 1.351 . S
C2287 C2281 1.428 . S
C2287 N2286 1.351 . S
C2287 C2288 1.434 . S
C2288 C2279 1.429 . S
C2288 N2285 1.350 . S
C2288 C2287 1.434 . S
C2289 C2290 1.369 . S
C2289 C2291 1.419 . S
C2289 H2293 0.930 . S
C2290 C2289 1.369 . S
C2290 C2299 1.429 . S
C2291 C2289 1.419 . S
C2291 C2292 1.363 . S
C2291 H2294 0.929 . S
C2292 C2291 1.363 . S
C2292 C2298 1.428 . S
H2293 C2289 0.930 . S
H2294 C2291 0.929 . S
S2295 N2296 1.613 . S
S2295 N2297 1.610 . S
N2296 S2295 1.613 . S
N2296 C2299 1.350 . S
N2297 S2295 1.610 . S
N2297 C2298 1.351 . S
C2298 C2292 1.428 . S
C2298 N2297 1.351 . S
C2298 C2299 1.434 . S
C2299 C2290 1.429 . S
C2299 N2296 1.350 . S
C2299 C2298 1.434 . S
C2300 C2301 1.369 . S
C2300 C2302 1.419 . S
C2300 H2304 0.930 . S
C2301 C2300 1.369 . S
C2301 C2310 1.429 . S
C2302 C2300 1.419 . S
C2302 C2303 1.363 . S
C2302 H2305 0.929 . S
C2303 C2302 1.363 . S
C2303 C2309 1.428 . S
H2304 C2300 0.930 . S
H2305 C2302 0.929 . S
S2306 N2307 1.613 . S
S2306 N2308 1.610 . S
N2307 S2306 1.613 . S
N2307 C2310 1.350 . S
N2308 S2306 1.610 . S
N2308 C2309 1.351 . S
C2309 C2303 1.428 . S
C2309 N2308 1.351 . S
C2309 C2310 1.434 . S
C2310 C2301 1.429 . S
C2310 N2307 1.350 . S
C2310 C2309 1.434 . S
C2311 C2312 1.369 . S
C2311 C2313 1.419 . S
C2311 H2315 0.930 . S
C2312 C2311 1.369 . S
C2312 C2321 1.429 . S
C2313 C2311 1.419 . S
C2313 C2314 1.363 . S
C2313 H2316 0.929 . S
C2314 C2313 1.363 . S
C2314 C2320 1.428 . S
H2315 C2311 0.930 . S
H2316 C2313 0.929 . S
S2317 N2318 1.613 . S
S2317 N2319 1.610 . S
N2318 S2317 1.613 . S
N2318 C2321 1.350 . S
N2319 S2317 1.610 . S
N2319 C2320 1.351 . S
C2320 C2314 1.428 . S
C2320 N2319 1.351 . S
C2320 C2321 1.434 . S
C2321 C2312 1.429 . S
C2321 N2318 1.350 . S
C2321 C2320 1.434 . S
C2322 C2323 1.369 . S
C2322 C2324 1.419 1_556 S
C2322 H2326 0.930 . S
C2323 C2322 1.369 . S
C2323 C2332 1.429 1_565 S
C2324 C2322 1.419 1_554 S
C2324 C2325 1.363 1_565 S
C2324 H2327 0.929 . S
C2325 C2324 1.363 1_545 S
C2325 C2331 1.428 . S
H2326 C2322 0.930 . S
H2327 C2324 0.929 . S
S2328 N2329 1.613 . S
S2328 N2330 1.610 1_556 S
N2329 S2328 1.613 . S
N2329 C2332 1.350 . S
N2330 S2328 1.610 1_554 S
N2330 C2331 1.351 . S
C2331 C2325 1.428 . S
C2331 N2330 1.351 . S
C2331 C2332 1.434 1_554 S
C2332 C2323 1.429 1_545 S
C2332 N2329 1.350 . S
C2332 C2331 1.434 1_556 S
C2333 C2334 1.369 . S
C2333 C2335 1.419 1_554 S
C2333 H2337 0.930 . S
C2334 C2333 1.369 . S
C2334 C2343 1.429 1_655 S
C2335 C2333 1.419 1_556 S
C2335 C2336 1.363 1_655 S
C2335 H2338 0.929 . S
C2336 C2335 1.363 1_455 S
C2336 C2342 1.428 . S
H2337 C2333 0.930 . S
H2338 C2335 0.929 . S
S2339 N2340 1.613 . S
S2339 N2341 1.610 1_554 S
N2340 S2339 1.613 . S
N2340 C2343 1.350 . S
N2341 S2339 1.610 1_556 S
N2341 C2342 1.351 . S
C2342 C2336 1.428 . S
C2342 N2341 1.351 . S
C2342 C2343 1.434 1_556 S
C2343 C2334 1.429 1_455 S
C2343 N2340 1.350 . S
C2343 C2342 1.434 1_554 S
C2344 C2345 1.369 . S
C2344 C2346 1.419 1_556 S
C2344 H2348 0.930 . S
C2345 C2344 1.369 . S
C2345 C2354 1.429 . S
C2346 C2344 1.419 1_554 S
C2346 C2347 1.363 . S
C2346 H2349 0.929 . S
C2347 C2346 1.363 . S
C2347 C2353 1.428 . S
H2348 C2344 0.930 . S
H2349 C2346 0.929 . S
S2350 N2351 1.613 1_554 S
S2350 N2352 1.610 . S
N2351 S2350 1.613 1_556 S
N2351 C2354 1.350 . S
N2352 S2350 1.610 . S
N2352 C2353 1.351 . S
C2353 C2347 1.428 . S
C2353 N2352 1.351 . S
C2353 C2354 1.434 1_554 S
C2354 C2345 1.429 . S
C2354 N2351 1.350 . S
C2354 C2353 1.434 1_556 S
C2355 C2356 1.369 1_545 S
C2355 C2357 1.419 1_556 S
C2355 H2359 0.930 . S
C2356 C2355 1.369 1_565 S
C2356 C2365 1.429 . S
C2357 C2355 1.419 1_554 S
C2357 C2358 1.363 . S
C2357 H2360 0.929 . S
C2358 C2357 1.363 . S
C2358 C2364 1.428 1_545 S
H2359 C2355 0.930 . S
H2360 C2357 0.929 . S
S2361 N2362 1.613 1_554 S
S2361 N2363 1.610 . S
N2362 S2361 1.613 1_556 S
N2362 C2365 1.350 . S
N2363 S2361 1.610 . S
N2363 C2364 1.351 . S
C2364 C2358 1.428 1_565 S
C2364 N2363 1.351 . S
C2364 C2365 1.434 1_554 S
C2365 C2356 1.429 . S
C2365 N2362 1.350 . S
C2365 C2364 1.434 1_556 S
C2366 C2367 1.369 . S
C2366 C2368 1.421 1_456 S
C2366 H2370 0.939 1_455 S
C2367 C2366 1.369 . S
C2367 C2376 1.429 . S
C2368 C2366 1.421 1_654 S
C2368 C2369 1.363 . S
C2368 H2371 0.929 . S
C2369 C2368 1.363 . S
C2369 C2375 1.428 1_655 S
H2370 C2366 0.939 1_655 S
H2371 C2368 0.929 . S
S2372 N2373 1.613 1_554 S
S2372 N2374 1.610 . S
N2373 S2372 1.613 1_556 S
N2373 C2376 1.350 . S
N2374 S2372 1.610 . S
N2374 C2375 1.345 . S
C2375 C2369 1.428 1_455 S
C2375 N2374 1.345 . S
C2375 C2376 1.442 1_554 S
C2376 C2367 1.429 . S
C2376 N2373 1.350 . S
C2376 C2375 1.442 1_556 S
C2377 C2378 1.369 . S
C2377 C2379 1.419 1_554 S
C2377 H2381 0.930 . S
C2378 C2377 1.369 . S
C2378 C2387 1.429 . S
C2379 C2377 1.419 1_556 S
C2379 C2380 1.363 . S
C2379 H2382 0.929 . S
C2380 C2379 1.363 . S
C2380 C2386 1.428 . S
H2381 C2377 0.930 . S
H2382 C2379 0.929 . S
S2383 N2384 1.613 1_556 S
S2383 N2385 1.610 . S
N2384 S2383 1.613 1_554 S
N2384 C2387 1.350 . S
N2385 S2383 1.610 . S
N2385 C2386 1.351 . S
C2386 C2380 1.428 . S
C2386 N2385 1.351 . S
C2386 C2387 1.434 1_556 S
C2387 C2378 1.429 . S
C2387 N2384 1.350 . S
C2387 C2386 1.434 1_554 S
C2388 C2389 1.369 . S
C2388 C2390 1.419 . S
C2388 H2392 0.930 . S
C2389 C2388 1.369 . S
C2389 C2398 1.429 . S
C2390 C2388 1.419 . S
C2390 C2391 1.363 . S
C2390 H2393 0.929 . S
C2391 C2390 1.363 . S
C2391 C2397 1.428 . S
H2392 C2388 0.930 . S
H2393 C2390 0.929 . S
S2394 N2395 1.613 . S
S2394 N2396 1.610 . S
N2395 S2394 1.613 . S
N2395 C2398 1.350 . S
N2396 S2394 1.610 . S
N2396 C2397 1.351 . S
C2397 C2391 1.428 . S
C2397 N2396 1.351 . S
C2397 C2398 1.434 . S
C2398 C2389 1.429 . S
C2398 N2395 1.350 . S
C2398 C2397 1.434 . S
C2399 C2400 1.369 . S
C2399 C2401 1.419 . S
C2399 H2403 0.930 . S
C2400 C2399 1.369 . S
C2400 C2409 1.429 . S
C2401 C2399 1.419 . S
C2401 C2402 1.363 . S
C2401 H2404 0.929 . S
C2402 C2401 1.363 . S
C2402 C2408 1.428 . S
H2403 C2399 0.930 . S
H2404 C2401 0.929 . S
S2405 N2406 1.613 . S
S2405 N2407 1.610 . S
N2406 S2405 1.613 . S
N2406 C2409 1.350 . S
N2407 S2405 1.610 . S
N2407 C2408 1.351 . S
C2408 C2402 1.428 . S
C2408 N2407 1.351 . S
C2408 C2409 1.434 . S
C2409 C2400 1.429 . S
C2409 N2406 1.350 . S
C2409 C2408 1.434 . S
C2410 C2411 1.369 . S
C2410 C2412 1.419 . S
C2410 H2414 0.930 . S
C2411 C2410 1.369 . S
C2411 C2420 1.429 . S
C2412 C2410 1.419 . S
C2412 C2413 1.363 . S
C2412 H2415 0.929 . S
C2413 C2412 1.363 . S
C2413 C2419 1.428 . S
H2414 C2410 0.930 . S
H2415 C2412 0.929 . S
S2416 N2417 1.613 . S
S2416 N2418 1.610 . S
N2417 S2416 1.613 . S
N2417 C2420 1.350 . S
N2418 S2416 1.610 . S
N2418 C2419 1.351 . S
C2419 C2413 1.428 . S
C2419 N2418 1.351 . S
C2419 C2420 1.434 . S
C2420 C2411 1.429 . S
C2420 N2417 1.350 . S
C2420 C2419 1.434 . S
C2421 C2422 1.369 . S
C2421 C2423 1.419 . S
C2421 H2425 0.930 . S
C2422 C2421 1.369 . S
C2422 C2431 1.429 . S
C2423 C2421 1.419 . S
C2423 C2424 1.363 . S
C2423 H2426 0.929 . S
C2424 C2423 1.363 . S
C2424 C2430 1.428 . S
H2425 C2421 0.930 . S
H2426 C2423 0.929 . S
S2427 N2428 1.613 . S
S2427 N2429 1.610 . S
N2428 S2427 1.613 . S
N2428 C2431 1.350 . S
N2429 S2427 1.610 . S
N2429 C2430 1.351 . S
C2430 C2424 1.428 . S
C2430 N2429 1.351 . S
C2430 C2431 1.434 . S
C2431 C2422 1.429 . S
C2431 N2428 1.350 . S
C2431 C2430 1.434 . S
C2432 C2433 1.369 . S
C2432 C2434 1.419 . S
C2432 H2436 0.930 . S
C2433 C2432 1.369 . S
C2433 C2442 1.429 . S
C2434 C2432 1.419 . S
C2434 C2435 1.363 . S
C2434 H2437 0.929 . S
C2435 C2434 1.363 . S
C2435 C2441 1.428 . S
H2436 C2432 0.930 . S
H2437 C2434 0.929 . S
S2438 N2439 1.613 . S
S2438 N2440 1.610 . S
N2439 S2438 1.613 . S
N2439 C2442 1.350 . S
N2440 S2438 1.610 . S
N2440 C2441 1.351 . S
C2441 C2435 1.428 . S
C2441 N2440 1.351 . S
C2441 C2442 1.434 . S
C2442 C2433 1.429 . S
C2442 N2439 1.350 . S
C2442 C2441 1.434 . S
C2443 C2444 1.369 . S
C2443 C2445 1.419 . S
C2443 H2447 0.930 . S
C2444 C2443 1.369 . S
C2444 C2453 1.429 . S
C2445 C2443 1.419 . S
C2445 C2446 1.363 . S
C2445 H2448 0.929 . S
C2446 C2445 1.363 . S
C2446 C2452 1.428 . S
H2447 C2443 0.930 . S
H2448 C2445 0.929 . S
S2449 N2450 1.613 . S
S2449 N2451 1.610 . S
N2450 S2449 1.613 . S
N2450 C2453 1.350 . S
N2451 S2449 1.610 . S
N2451 C2452 1.351 . S
C2452 C2446 1.428 . S
C2452 N2451 1.351 . S
C2452 C2453 1.434 . S
C2453 C2444 1.429 . S
C2453 N2450 1.350 . S
C2453 C2452 1.434 . S
C2454 C2455 1.369 . S
C2454 C2456 1.419 . S
C2454 H2458 0.930 . S
C2455 C2454 1.369 . S
C2455 C2464 1.429 . S
C2456 C2454 1.419 . S
C2456 C2457 1.363 . S
C2456 H2459 0.929 . S
C2457 C2456 1.363 . S
C2457 C2463 1.428 . S
H2458 C2454 0.930 . S
H2459 C2456 0.929 . S
S2460 N2461 1.613 . S
S2460 N2462 1.610 . S
N2461 S2460 1.613 . S
N2461 C2464 1.350 . S
N2462 S2460 1.610 . S
N2462 C2463 1.351 . S
C2463 C2457 1.428 . S
C2463 N2462 1.351 . S
C2463 C2464 1.434 . S
C2464 C2455 1.429 . S
C2464 N2461 1.350 . S
C2464 C2463 1.434 . S
C2465 C2466 1.369 . S
C2465 C2467 1.419 . S
C2465 H2469 0.930 . S
C2466 C2465 1.369 . S
C2466 C2475 1.429 . S
C2467 C2465 1.419 . S
C2467 C2468 1.363 . S
C2467 H2470 0.929 . S
C2468 C2467 1.363 . S
C2468 C2474 1.428 . S
H2469 C2465 0.930 . S
H2470 C2467 0.929 . S
S2471 N2472 1.613 . S
S2471 N2473 1.610 . S
N2472 S2471 1.613 . S
N2472 C2475 1.350 . S
N2473 S2471 1.610 . S
N2473 C2474 1.351 . S
C2474 C2468 1.428 . S
C2474 N2473 1.351 . S
C2474 C2475 1.434 . S
C2475 C2466 1.429 . S
C2475 N2472 1.350 . S
C2475 C2474 1.434 . S
C2476 C2477 1.369 . S
C2476 C2478 1.419 . S
C2476 H2480 0.930 . S
C2477 C2476 1.369 . S
C2477 C2486 1.429 . S
C2478 C2476 1.419 . S
C2478 C2479 1.363 . S
C2478 H2481 0.929 . S
C2479 C2478 1.363 . S
C2479 C2485 1.428 . S
H2480 C2476 0.930 . S
H2481 C2478 0.929 . S
S2482 N2483 1.613 . S
S2482 N2484 1.610 . S
N2483 S2482 1.613 . S
N2483 C2486 1.350 . S
N2484 S2482 1.610 . S
N2484 C2485 1.351 . S
C2485 C2479 1.428 . S
C2485 N2484 1.351 . S
C2485 C2486 1.434 . S
C2486 C2477 1.429 . S
C2486 N2483 1.350 . S
C2486 C2485 1.434 . S
C2487 C2488 1.369 . S
C2487 C2489 1.419 . S
C2487 H2491 0.930 . S
C2488 C2487 1.369 . S
C2488 C2497 1.429 . S
C2489 C2487 1.419 . S
C2489 C2490 1.363 . S
C2489 H2492 0.929 . S
C2490 C2489 1.363 . S
C2490 C2496 1.428 . S
H2491 C2487 0.930 . S
H2492 C2489 0.929 . S
S2493 N2494 1.613 . S
S2493 N2495 1.610 . S
N2494 S2493 1.613 . S
N2494 C2497 1.350 . S
N2495 S2493 1.610 . S
N2495 C2496 1.351 . S
C2496 C2490 1.428 . S
C2496 N2495 1.351 . S
C2496 C2497 1.434 . S
C2497 C2488 1.429 . S
C2497 N2494 1.350 . S
C2497 C2496 1.434 . S
C2498 C2499 1.369 . S
C2498 C2500 1.419 . S
C2498 H2502 0.930 . S
C2499 C2498 1.369 . S
C2499 C2508 1.429 . S
C2500 C2498 1.419 . S
C2500 C2501 1.363 . S
C2500 H2503 0.929 . S
C2501 C2500 1.363 . S
C2501 C2507 1.428 . S
H2502 C2498 0.930 . S
H2503 C2500 0.929 . S
S2504 N2505 1.613 . S
S2504 N2506 1.610 . S
N2505 S2504 1.613 . S
N2505 C2508 1.350 . S
N2506 S2504 1.610 . S
N2506 C2507 1.351 . S
C2507 C2501 1.428 . S
C2507 N2506 1.351 . S
C2507 C2508 1.434 . S
C2508 C2499 1.429 . S
C2508 N2505 1.350 . S
C2508 C2507 1.434 . S
C2509 C2510 1.369 . S
C2509 C2511 1.419 . S
C2509 H2513 0.930 . S
C2510 C2509 1.369 . S
C2510 C2519 1.429 . S
C2511 C2509 1.419 . S
C2511 C2512 1.363 . S
C2511 H2514 0.929 . S
C2512 C2511 1.363 . S
C2512 C2518 1.428 . S
H2513 C2509 0.930 . S
H2514 C2511 0.929 . S
S2515 N2516 1.613 . S
S2515 N2517 1.610 . S
N2516 S2515 1.613 . S
N2516 C2519 1.350 . S
N2517 S2515 1.610 . S
N2517 C2518 1.351 . S
C2518 C2512 1.428 . S
C2518 N2517 1.351 . S
C2518 C2519 1.434 . S
C2519 C2510 1.429 . S
C2519 N2516 1.350 . S
C2519 C2518 1.434 . S
C2520 C2521 1.369 . S
C2520 C2522 1.419 . S
C2520 H2524 0.930 . S
C2521 C2520 1.369 . S
C2521 C2530 1.429 . S
C2522 C2520 1.419 . S
C2522 C2523 1.363 . S
C2522 H2525 0.929 . S
C2523 C2522 1.363 . S
C2523 C2529 1.428 . S
H2524 C2520 0.930 . S
H2525 C2522 0.929 . S
S2526 N2527 1.613 . S
S2526 N2528 1.610 . S
N2527 S2526 1.613 . S
N2527 C2530 1.350 . S
N2528 S2526 1.610 . S
N2528 C2529 1.351 . S
C2529 C2523 1.428 . S
C2529 N2528 1.351 . S
C2529 C2530 1.434 . S
C2530 C2521 1.429 . S
C2530 N2527 1.350 . S
C2530 C2529 1.434 . S
C2531 C2532 1.369 . S
C2531 C2533 1.419 . S
C2531 H2535 0.930 . S
C2532 C2531 1.369 . S
C2532 C2541 1.429 . S
C2533 C2531 1.419 . S
C2533 C2534 1.363 . S
C2533 H2536 0.929 . S
C2534 C2533 1.363 . S
C2534 C2540 1.428 . S
H2535 C2531 0.930 . S
H2536 C2533 0.929 . S
S2537 N2538 1.613 . S
S2537 N2539 1.610 . S
N2538 S2537 1.613 . S
N2538 C2541 1.350 . S
N2539 S2537 1.610 . S
N2539 C2540 1.351 . S
C2540 C2534 1.428 . S
C2540 N2539 1.351 . S
C2540 C2541 1.434 . S
C2541 C2532 1.429 . S
C2541 N2538 1.350 . S
C2541 C2540 1.434 . S
C2542 C2543 1.369 . S
C2542 C2544 1.419 . S
C2542 H2546 0.930 . S
C2543 C2542 1.369 . S
C2543 C2552 1.429 . S
C2544 C2542 1.419 . S
C2544 C2545 1.363 . S
C2544 H2547 0.929 . S
C2545 C2544 1.363 . S
C2545 C2551 1.428 . S
H2546 C2542 0.930 . S
H2547 C2544 0.929 . S
S2548 N2549 1.613 . S
S2548 N2550 1.610 . S
N2549 S2548 1.613 . S
N2549 C2552 1.350 . S
N2550 S2548 1.610 . S
N2550 C2551 1.351 . S
C2551 C2545 1.428 . S
C2551 N2550 1.351 . S
C2551 C2552 1.434 . S
C2552 C2543 1.429 . S
C2552 N2549 1.350 . S
C2552 C2551 1.434 . S
C2553 C2554 1.369 . S
C2553 C2555 1.419 . S
C2553 H2557 0.930 . S
C2554 C2553 1.369 . S
C2554 C2563 1.429 . S
C2555 C2553 1.419 . S
C2555 C2556 1.363 . S
C2555 H2558 0.929 . S
C2556 C2555 1.363 . S
C2556 C2562 1.428 . S
H2557 C2553 0.930 . S
H2558 C2555 0.929 . S
S2559 N2560 1.613 . S
S2559 N2561 1.610 . S
N2560 S2559 1.613 . S
N2560 C2563 1.350 . S
N2561 S2559 1.610 . S
N2561 C2562 1.351 . S
C2562 C2556 1.428 . S
C2562 N2561 1.351 . S
C2562 C2563 1.434 . S
C2563 C2554 1.429 . S
C2563 N2560 1.350 . S
C2563 C2562 1.434 . S
C2564 C2565 1.369 . S
C2564 C2566 1.419 . S
C2564 H2568 0.930 . S
C2565 C2564 1.369 . S
C2565 C2574 1.429 . S
C2566 C2564 1.419 . S
C2566 C2567 1.363 . S
C2566 H2569 0.929 . S
C2567 C2566 1.363 . S
C2567 C2573 1.428 . S
H2568 C2564 0.930 . S
H2569 C2566 0.929 . S
S2570 N2571 1.613 . S
S2570 N2572 1.610 . S
N2571 S2570 1.613 . S
N2571 C2574 1.350 . S
N2572 S2570 1.610 . S
N2572 C2573 1.351 . S
C2573 C2567 1.428 . S
C2573 N2572 1.351 . S
C2573 C2574 1.434 . S
C2574 C2565 1.429 . S
C2574 N2571 1.350 . S
C2574 C2573 1.434 . S
C2575 C2576 1.369 . S
C2575 C2577 1.419 . S
C2575 H2579 0.930 . S
C2576 C2575 1.369 . S
C2576 C2585 1.429 . S
C2577 C2575 1.419 . S
C2577 C2578 1.363 . S
C2577 H2580 0.929 . S
C2578 C2577 1.363 . S
C2578 C2584 1.428 . S
H2579 C2575 0.930 . S
H2580 C2577 0.929 . S
S2581 N2582 1.613 . S
S2581 N2583 1.610 . S
N2582 S2581 1.613 . S
N2582 C2585 1.350 . S
N2583 S2581 1.610 . S
N2583 C2584 1.351 . S
C2584 C2578 1.428 . S
C2584 N2583 1.351 . S
C2584 C2585 1.434 . S
C2585 C2576 1.429 . S
C2585 N2582 1.350 . S
C2585 C2584 1.434 . S
C2586 C2587 1.369 . S
C2586 C2588 1.419 . S
C2586 H2590 0.930 . S
C2587 C2586 1.369 . S
C2587 C2596 1.429 . S
C2588 C2586 1.419 . S
C2588 C2589 1.363 . S
C2588 H2591 0.929 . S
C2589 C2588 1.363 . S
C2589 C2595 1.428 . S
H2590 C2586 0.930 . S
H2591 C2588 0.929 . S
S2592 N2593 1.613 . S
S2592 N2594 1.610 . S
N2593 S2592 1.613 . S
N2593 C2596 1.350 . S
N2594 S2592 1.610 . S
N2594 C2595 1.351 . S
C2595 C2589 1.428 . S
C2595 N2594 1.351 . S
C2595 C2596 1.434 . S
C2596 C2587 1.429 . S
C2596 N2593 1.350 . S
C2596 C2595 1.434 . S
C2597 C2598 1.369 . S
C2597 C2599 1.419 . S
C2597 H2601 0.930 . S
C2598 C2597 1.369 . S
C2598 C2607 1.429 . S
C2599 C2597 1.419 . S
C2599 C2600 1.363 . S
C2599 H2602 0.929 . S
C2600 C2599 1.363 . S
C2600 C2606 1.428 . S
H2601 C2597 0.930 . S
H2602 C2599 0.929 . S
S2603 N2604 1.613 . S
S2603 N2605 1.610 . S
N2604 S2603 1.613 . S
N2604 C2607 1.350 . S
N2605 S2603 1.610 . S
N2605 C2606 1.351 . S
C2606 C2600 1.428 . S
C2606 N2605 1.351 . S
C2606 C2607 1.434 . S
C2607 C2598 1.429 . S
C2607 N2604 1.350 . S
C2607 C2606 1.434 . S
C2608 C2609 1.369 . S
C2608 C2610 1.419 . S
C2608 H2612 0.930 . S
C2609 C2608 1.369 . S
C2609 C2618 1.429 . S
C2610 C2608 1.419 . S
C2610 C2611 1.363 . S
C2610 H2613 0.929 . S
C2611 C2610 1.363 . S
C2611 C2617 1.428 . S
H2612 C2608 0.930 . S
H2613 C2610 0.929 . S
S2614 N2615 1.613 . S
S2614 N2616 1.610 . S
N2615 S2614 1.613 . S
N2615 C2618 1.350 . S
N2616 S2614 1.610 . S
N2616 C2617 1.351 . S
C2617 C2611 1.428 . S
C2617 N2616 1.351 . S
C2617 C2618 1.434 . S
C2618 C2609 1.429 . S
C2618 N2615 1.350 . S
C2618 C2617 1.434 . S
C2619 C2620 1.369 . S
C2619 C2621 1.419 . S
C2619 H2623 0.930 . S
C2620 C2619 1.369 . S
C2620 C2629 1.429 . S
C2621 C2619 1.419 . S
C2621 C2622 1.363 . S
C2621 H2624 0.929 . S
C2622 C2621 1.363 . S
C2622 C2628 1.428 . S
H2623 C2619 0.930 . S
H2624 C2621 0.929 . S
S2625 N2626 1.613 . S
S2625 N2627 1.610 . S
N2626 S2625 1.613 . S
N2626 C2629 1.350 . S
N2627 S2625 1.610 . S
N2627 C2628 1.351 . S
C2628 C2622 1.428 . S
C2628 N2627 1.351 . S
C2628 C2629 1.434 . S
C2629 C2620 1.429 . S
C2629 N2626 1.350 . S
C2629 C2628 1.434 . S
C2630 C2631 1.369 . S
C2630 C2632 1.419 . S
C2630 H2634 0.930 . S
C2631 C2630 1.369 . S
C2631 C2640 1.429 . S
C2632 C2630 1.419 . S
C2632 C2633 1.363 . S
C2632 H2635 0.929 . S
C2633 C2632 1.363 . S
C2633 C2639 1.428 . S
H2634 C2630 0.930 . S
H2635 C2632 0.929 . S
S2636 N2637 1.613 . S
S2636 N2638 1.610 . S
N2637 S2636 1.613 . S
N2637 C2640 1.350 . S
N2638 S2636 1.610 . S
N2638 C2639 1.351 . S
C2639 C2633 1.428 . S
C2639 N2638 1.351 . S
C2639 C2640 1.434 . S
C2640 C2631 1.429 . S
C2640 N2637 1.350 . S
C2640 C2639 1.434 . S
C2641 C2642 1.369 . S
C2641 C2643 1.419 . S
C2641 H2645 0.930 . S
C2642 C2641 1.369 . S
C2642 C2651 1.429 . S
C2643 C2641 1.419 . S
C2643 C2644 1.363 . S
C2643 H2646 0.929 . S
C2644 C2643 1.363 . S
C2644 C2650 1.428 . S
H2645 C2641 0.930 . S
H2646 C2643 0.929 . S
S2647 N2648 1.613 . S
S2647 N2649 1.610 . S
N2648 S2647 1.613 . S
N2648 C2651 1.350 . S
N2649 S2647 1.610 . S
N2649 C2650 1.351 . S
C2650 C2644 1.428 . S
C2650 N2649 1.351 . S
C2650 C2651 1.434 . S
C2651 C2642 1.429 . S
C2651 N2648 1.350 . S
C2651 C2650 1.434 . S
C2652 C2653 1.369 . S
C2652 C2654 1.419 1_455 S
C2652 H2656 0.930 . S
C2653 C2652 1.369 . S
C2653 C2662 1.429 . S
C2654 C2652 1.419 1_655 S
C2654 C2655 1.363 . S
C2654 H2657 0.929 . S
C2655 C2654 1.363 . S
C2655 C2661 1.428 . S
H2656 C2652 0.930 . S
H2657 C2654 0.929 . S
S2658 N2659 1.613 . S
S2658 N2660 1.610 1_455 S
N2659 S2658 1.613 . S
N2659 C2662 1.350 . S
N2660 S2658 1.610 1_655 S
N2660 C2661 1.351 . S
C2661 C2655 1.428 . S
C2661 N2660 1.351 . S
C2661 C2662 1.434 1_655 S
C2662 C2653 1.429 . S
C2662 N2659 1.350 . S
C2662 C2661 1.434 1_455 S
C2663 C2664 1.369 . S
C2663 C2665 1.419 . S
C2663 H2667 0.930 . S
C2664 C2663 1.369 . S
C2664 C2673 1.429 . S
C2665 C2663 1.419 . S
C2665 C2666 1.363 . S
C2665 H2668 0.929 . S
C2666 C2665 1.363 . S
C2666 C2672 1.428 . S
H2667 C2663 0.930 . S
H2668 C2665 0.929 . S
S2669 N2670 1.613 . S
S2669 N2671 1.610 . S
N2670 S2669 1.613 . S
N2670 C2673 1.350 . S
N2671 S2669 1.610 . S
N2671 C2672 1.351 . S
C2672 C2666 1.428 . S
C2672 N2671 1.351 . S
C2672 C2673 1.434 . S
C2673 C2664 1.429 . S
C2673 N2670 1.350 . S
C2673 C2672 1.434 . S
C2674 C2675 1.369 . S
C2674 C2676 1.419 1_545 S
C2674 H2678 0.930 . S
C2675 C2674 1.369 . S
C2675 C2684 1.429 . S
C2676 C2674 1.419 1_565 S
C2676 C2677 1.363 . S
C2676 H2679 0.929 . S
C2677 C2676 1.363 . S
C2677 C2683 1.428 . S
H2678 C2674 0.930 . S
H2679 C2676 0.929 . S
S2680 N2681 1.613 1_565 S
S2680 N2682 1.610 . S
N2681 S2680 1.613 1_545 S
N2681 C2684 1.350 . S
N2682 S2680 1.610 . S
N2682 C2683 1.351 . S
C2683 C2677 1.428 . S
C2683 N2682 1.351 . S
C2683 C2684 1.434 1_565 S
C2684 C2675 1.429 . S
C2684 N2681 1.350 . S
C2684 C2683 1.434 1_545 S
C2685 C2686 1.369 . S
C2685 C2687 1.419 1_545 S
C2685 H2689 0.930 . S
C2686 C2685 1.369 . S
C2686 C2695 1.429 . S
C2687 C2685 1.419 1_565 S
C2687 C2688 1.363 . S
C2687 H2690 0.929 . S
C2688 C2687 1.363 . S
C2688 C2694 1.428 . S
H2689 C2685 0.930 . S
H2690 C2687 0.929 . S
S2691 N2692 1.613 1_565 S
S2691 N2693 1.610 . S
N2692 S2691 1.613 1_545 S
N2692 C2695 1.350 . S
N2693 S2691 1.610 . S
N2693 C2694 1.351 . S
C2694 C2688 1.428 . S
C2694 N2693 1.351 . S
C2694 C2695 1.434 1_565 S
C2695 C2686 1.429 . S
C2695 N2692 1.350 . S
C2695 C2694 1.434 1_545 S
C2696 C2697 1.369 . S
C2696 C2698 1.419 1_655 S
C2696 H2700 0.930 . S
C2697 C2696 1.369 . S
C2697 C2706 1.429 . S
C2698 C2696 1.419 1_455 S
C2698 C2699 1.363 . S
C2698 H2701 0.929 . S
C2699 C2698 1.363 . S
C2699 C2705 1.428 . S
H2700 C2696 0.930 . S
H2701 C2698 0.929 . S
S2702 N2703 1.613 . S
S2702 N2704 1.610 1_655 S
N2703 S2702 1.613 . S
N2703 C2706 1.350 . S
N2704 S2702 1.610 1_455 S
N2704 C2705 1.351 . S
C2705 C2699 1.428 . S
C2705 N2704 1.351 . S
C2705 C2706 1.434 1_455 S
C2706 C2697 1.429 . S
C2706 N2703 1.350 . S
C2706 C2705 1.434 1_655 S
C2707 C2708 1.369 . S
C2707 C2709 1.419 . S
C2707 H2711 0.930 . S
C2708 C2707 1.369 . S
C2708 C2717 1.429 . S
C2709 C2707 1.419 . S
C2709 C2710 1.363 . S
C2709 H2712 0.929 . S
C2710 C2709 1.363 . S
C2710 C2716 1.428 . S
H2711 C2707 0.930 . S
H2712 C2709 0.929 . S
S2713 N2714 1.613 . S
S2713 N2715 1.610 . S
N2714 S2713 1.613 . S
N2714 C2717 1.350 . S
N2715 S2713 1.610 . S
N2715 C2716 1.351 . S
C2716 C2710 1.428 . S
C2716 N2715 1.351 . S
C2716 C2717 1.434 . S
C2717 C2708 1.429 . S
C2717 N2714 1.350 . S
C2717 C2716 1.434 . S
C2718 C2719 1.369 . S
C2718 C2720 1.419 . S
C2718 H2722 0.930 . S
C2719 C2718 1.369 . S
C2719 C2728 1.429 . S
C2720 C2718 1.419 . S
C2720 C2721 1.363 . S
C2720 H2723 0.929 . S
C2721 C2720 1.363 . S
C2721 C2727 1.428 . S
H2722 C2718 0.930 . S
H2723 C2720 0.929 . S
S2724 N2725 1.613 . S
S2724 N2726 1.610 . S
N2725 S2724 1.613 . S
N2725 C2728 1.350 . S
N2726 S2724 1.610 . S
N2726 C2727 1.351 . S
C2727 C2721 1.428 . S
C2727 N2726 1.351 . S
C2727 C2728 1.434 . S
C2728 C2719 1.429 . S
C2728 N2725 1.350 . S
C2728 C2727 1.434 . S
C2729 C2730 1.369 . S
C2729 C2731 1.419 . S
C2729 H2733 0.930 . S
C2730 C2729 1.369 . S
C2730 C2739 1.429 . S
C2731 C2729 1.419 . S
C2731 C2732 1.363 . S
C2731 H2734 0.929 . S
C2732 C2731 1.363 . S
C2732 C2738 1.428 . S
H2733 C2729 0.930 . S
H2734 C2731 0.929 . S
S2735 N2736 1.613 . S
S2735 N2737 1.610 . S
N2736 S2735 1.613 . S
N2736 C2739 1.350 . S
N2737 S2735 1.610 . S
N2737 C2738 1.351 . S
C2738 C2732 1.428 . S
C2738 N2737 1.351 . S
C2738 C2739 1.434 . S
C2739 C2730 1.429 . S
C2739 N2736 1.350 . S
C2739 C2738 1.434 . S
C2740 C2741 1.369 . S
C2740 C2742 1.419 . S
C2740 H2744 0.930 . S
C2741 C2740 1.369 . S
C2741 C2750 1.429 . S
C2742 C2740 1.419 . S
C2742 C2743 1.363 . S
C2742 H2745 0.929 . S
C2743 C2742 1.363 . S
C2743 C2749 1.428 . S
H2744 C2740 0.930 . S
H2745 C2742 0.929 . S
S2746 N2747 1.613 . S
S2746 N2748 1.610 . S
N2747 S2746 1.613 . S
N2747 C2750 1.350 . S
N2748 S2746 1.610 . S
N2748 C2749 1.351 . S
C2749 C2743 1.428 . S
C2749 N2748 1.351 . S
C2749 C2750 1.434 . S
C2750 C2741 1.429 . S
C2750 N2747 1.350 . S
C2750 C2749 1.434 . S
C2751 C2752 1.369 . S
C2751 C2753 1.419 . S
C2751 H2755 0.930 . S
C2752 C2751 1.369 . S
C2752 C2761 1.429 . S
C2753 C2751 1.419 . S
C2753 C2754 1.363 . S
C2753 H2756 0.929 . S
C2754 C2753 1.363 . S
C2754 C2760 1.428 . S
H2755 C2751 0.930 . S
H2756 C2753 0.929 . S
S2757 N2758 1.613 . S
S2757 N2759 1.610 . S
N2758 S2757 1.613 . S
N2758 C2761 1.350 . S
N2759 S2757 1.610 . S
N2759 C2760 1.351 . S
C2760 C2754 1.428 . S
C2760 N2759 1.351 . S
C2760 C2761 1.434 . S
C2761 C2752 1.429 . S
C2761 N2758 1.350 . S
C2761 C2760 1.434 . S
C2762 C2763 1.369 . S
C2762 C2764 1.419 . S
C2762 H2766 0.930 . S
C2763 C2762 1.369 . S
C2763 C2772 1.429 . S
C2764 C2762 1.419 . S
C2764 C2765 1.363 . S
C2764 H2767 0.929 . S
C2765 C2764 1.363 . S
C2765 C2771 1.428 . S
H2766 C2762 0.930 . S
H2767 C2764 0.929 . S
S2768 N2769 1.613 . S
S2768 N2770 1.610 . S
N2769 S2768 1.613 . S
N2769 C2772 1.350 . S
N2770 S2768 1.610 . S
N2770 C2771 1.351 . S
C2771 C2765 1.428 . S
C2771 N2770 1.351 . S
C2771 C2772 1.434 . S
C2772 C2763 1.429 . S
C2772 N2769 1.350 . S
C2772 C2771 1.434 . S
C2773 C2774 1.369 . S
C2773 C2775 1.419 . S
C2773 H2777 0.930 . S
C2774 C2773 1.369 . S
C2774 C2783 1.429 . S
C2775 C2773 1.419 . S
C2775 C2776 1.363 . S
C2775 H2778 0.929 . S
C2776 C2775 1.363 . S
C2776 C2782 1.428 . S
H2777 C2773 0.930 . S
H2778 C2775 0.929 . S
S2779 N2780 1.613 . S
S2779 N2781 1.610 . S
N2780 S2779 1.613 . S
N2780 C2783 1.350 . S
N2781 S2779 1.610 . S
N2781 C2782 1.351 . S
C2782 C2776 1.428 . S
C2782 N2781 1.351 . S
C2782 C2783 1.434 . S
C2783 C2774 1.429 . S
C2783 N2780 1.350 . S
C2783 C2782 1.434 . S
C2784 C2785 1.369 . S
C2784 C2786 1.419 . S
C2784 H2788 0.930 . S
C2785 C2784 1.369 . S
C2785 C2794 1.429 . S
C2786 C2784 1.419 . S
C2786 C2787 1.363 . S
C2786 H2789 0.929 . S
C2787 C2786 1.363 . S
C2787 C2793 1.428 . S
H2788 C2784 0.930 . S
H2789 C2786 0.929 . S
S2790 N2791 1.613 . S
S2790 N2792 1.610 . S
N2791 S2790 1.613 . S
N2791 C2794 1.350 . S
N2792 S2790 1.610 . S
N2792 C2793 1.351 . S
C2793 C2787 1.428 . S
C2793 N2792 1.351 . S
C2793 C2794 1.434 . S
C2794 C2785 1.429 . S
C2794 N2791 1.350 . S
C2794 C2793 1.434 . S
C2795 C2796 1.369 . S
C2795 C2797 1.419 . S
C2795 H2799 0.930 . S
C2796 C2795 1.369 . S
C2796 C2805 1.429 . S
C2797 C2795 1.419 . S
C2797 C2798 1.363 . S
C2797 H2800 0.929 . S
C2798 C2797 1.363 . S
C2798 C2804 1.428 . S
H2799 C2795 0.930 . S
H2800 C2797 0.929 . S
S2801 N2802 1.613 . S
S2801 N2803 1.610 . S
N2802 S2801 1.613 . S
N2802 C2805 1.350 . S
N2803 S2801 1.610 . S
N2803 C2804 1.351 . S
C2804 C2798 1.428 . S
C2804 N2803 1.351 . S
C2804 C2805 1.434 . S
C2805 C2796 1.429 . S
C2805 N2802 1.350 . S
C2805 C2804 1.434 . S
C2806 C2807 1.369 . S
C2806 C2808 1.419 . S
C2806 H2810 0.930 . S
C2807 C2806 1.369 . S
C2807 C2816 1.429 . S
C2808 C2806 1.419 . S
C2808 C2809 1.363 . S
C2808 H2811 0.929 . S
C2809 C2808 1.363 . S
C2809 C2815 1.428 . S
H2810 C2806 0.930 . S
H2811 C2808 0.929 . S
S2812 N2813 1.613 . S
S2812 N2814 1.610 . S
N2813 S2812 1.613 . S
N2813 C2816 1.350 . S
N2814 S2812 1.610 . S
N2814 C2815 1.351 . S
C2815 C2809 1.428 . S
C2815 N2814 1.351 . S
C2815 C2816 1.434 . S
C2816 C2807 1.429 . S
C2816 N2813 1.350 . S
C2816 C2815 1.434 . S
C2817 C2818 1.369 1_556 S
C2817 C2819 1.419 . S
C2817 H2821 0.930 . S
C2818 C2817 1.369 1_554 S
C2818 C2827 1.429 . S
C2819 C2817 1.419 . S
C2819 C2820 1.363 1_556 S
C2819 H2822 0.929 . S
C2820 C2819 1.363 1_554 S
C2820 C2826 1.428 . S
H2821 C2817 0.930 . S
H2822 C2819 0.929 . S
S2823 N2824 1.613 . S
S2823 N2825 1.610 . S
N2824 S2823 1.613 . S
N2824 C2827 1.350 . S
N2825 S2823 1.610 . S
N2825 C2826 1.351 . S
C2826 C2820 1.428 . S
C2826 N2825 1.351 . S
C2826 C2827 1.434 . S
C2827 C2818 1.429 . S
C2827 N2824 1.350 . S
C2827 C2826 1.434 . S
C2828 C2829 1.366 1_556 S
C2828 C2830 1.419 . S
C2828 H2832 0.933 . S
C2829 C2828 1.366 1_554 S
C2829 C2838 1.429 . S
C2830 C2828 1.419 . S
C2830 C2831 1.356 1_556 S
C2830 H2833 0.937 . S
C2831 C2830 1.356 1_554 S
C2831 C2837 1.428 . S
H2832 C2828 0.933 . S
H2833 C2830 0.937 . S
S2834 N2835 1.613 . S
S2834 N2836 1.610 . S
N2835 S2834 1.613 . S
N2835 C2838 1.350 . S
N2836 S2834 1.610 . S
N2836 C2837 1.351 . S
C2837 C2831 1.428 . S
C2837 N2836 1.351 . S
C2837 C2838 1.434 . S
C2838 C2829 1.429 . S
C2838 N2835 1.350 . S
C2838 C2837 1.434 . S
C2839 C2840 1.369 . S
C2839 C2841 1.419 . S
C2839 H2843 0.930 . S
C2840 C2839 1.369 . S
C2840 C2849 1.429 . S
C2841 C2839 1.419 . S
C2841 C2842 1.363 . S
C2841 H2844 0.929 . S
C2842 C2841 1.363 . S
C2842 C2848 1.428 . S
H2843 C2839 0.930 . S
H2844 C2841 0.929 . S
S2845 N2846 1.613 . S
S2845 N2847 1.610 . S
N2846 S2845 1.613 . S
N2846 C2849 1.350 . S
N2847 S2845 1.610 . S
N2847 C2848 1.351 . S
C2848 C2842 1.428 . S
C2848 N2847 1.351 . S
C2848 C2849 1.434 . S
C2849 C2840 1.429 . S
C2849 N2846 1.350 . S
C2849 C2848 1.434 . S
C2850 C2851 1.369 . S
C2850 C2852 1.419 . S
C2850 H2854 0.930 1_556 S
C2851 C2850 1.369 . S
C2851 C2860 1.429 . S
C2852 C2850 1.419 . S
C2852 C2853 1.363 . S
C2852 H2855 0.929 1_556 S
C2853 C2852 1.363 . S
C2853 C2859 1.428 . S
H2854 C2850 0.930 1_554 S
H2855 C2852 0.929 1_554 S
S2856 N2857 1.613 . S
S2856 N2858 1.610 . S
N2857 S2856 1.613 . S
N2857 C2860 1.350 . S
N2858 S2856 1.610 . S
N2858 C2859 1.351 . S
C2859 C2853 1.428 . S
C2859 N2858 1.351 . S
C2859 C2860 1.434 . S
C2860 C2851 1.429 . S
C2860 N2857 1.350 . S
C2860 C2859 1.434 . S
C2861 C2862 1.369 . S
C2861 C2863 1.419 . S
C2861 H2865 0.930 . S
C2862 C2861 1.369 . S
C2862 C2871 1.429 . S
C2863 C2861 1.419 . S
C2863 C2864 1.363 . S
C2863 H2866 0.929 . S
C2864 C2863 1.363 . S
C2864 C2870 1.428 . S
H2865 C2861 0.930 . S
H2866 C2863 0.929 . S
S2867 N2868 1.613 . S
S2867 N2869 1.610 . S
N2868 S2867 1.613 . S
N2868 C2871 1.350 . S
N2869 S2867 1.610 . S
N2869 C2870 1.351 . S
C2870 C2864 1.428 . S
C2870 N2869 1.351 . S
C2870 C2871 1.434 . S
C2871 C2862 1.429 . S
C2871 N2868 1.350 . S
C2871 C2870 1.434 . S
C2872 C2873 1.369 . S
C2872 C2874 1.419 . S
C2872 H2876 0.930 1_556 S
C2873 C2872 1.369 . S
C2873 C2882 1.429 . S
C2874 C2872 1.419 . S
C2874 C2875 1.363 . S
C2874 H2877 0.929 1_556 S
C2875 C2874 1.363 . S
C2875 C2881 1.428 . S
H2876 C2872 0.930 1_554 S
H2877 C2874 0.929 1_554 S
S2878 N2879 1.613 . S
S2878 N2880 1.610 . S
N2879 S2878 1.613 . S
N2879 C2882 1.350 . S
N2880 S2878 1.610 . S
N2880 C2881 1.351 . S
C2881 C2875 1.428 . S
C2881 N2880 1.351 . S
C2881 C2882 1.434 . S
C2882 C2873 1.429 . S
C2882 N2879 1.350 . S
C2882 C2881 1.434 . S
C2883 C2884 1.369 . S
C2883 C2885 1.419 . S
C2883 H2887 0.930 . S
C2884 C2883 1.369 . S
C2884 C2893 1.429 . S
C2885 C2883 1.419 . S
C2885 C2886 1.363 . S
C2885 H2888 0.929 . S
C2886 C2885 1.363 . S
C2886 C2892 1.428 . S
H2887 C2883 0.930 . S
H2888 C2885 0.929 . S
S2889 N2890 1.613 . S
S2889 N2891 1.610 . S
N2890 S2889 1.613 . S
N2890 C2893 1.350 . S
N2891 S2889 1.610 . S
N2891 C2892 1.351 . S
C2892 C2886 1.428 . S
C2892 N2891 1.351 . S
C2892 C2893 1.434 . S
C2893 C2884 1.429 . S
C2893 N2890 1.350 . S
C2893 C2892 1.434 . S
C2894 C2895 1.369 . S
C2894 C2896 1.419 . S
C2894 H2898 0.930 . S
C2895 C2894 1.369 . S
C2895 C2904 1.429 . S
C2896 C2894 1.419 . S
C2896 C2897 1.363 . S
C2896 H2899 0.929 . S
C2897 C2896 1.363 . S
C2897 C2903 1.428 . S
H2898 C2894 0.930 . S
H2899 C2896 0.929 . S
S2900 N2901 1.613 . S
S2900 N2902 1.610 . S
N2901 S2900 1.613 . S
N2901 C2904 1.350 . S
N2902 S2900 1.610 . S
N2902 C2903 1.351 . S
C2903 C2897 1.428 . S
C2903 N2902 1.351 . S
C2903 C2904 1.434 . S
C2904 C2895 1.429 . S
C2904 N2901 1.350 . S
C2904 C2903 1.434 . S
C2905 C2906 1.369 . S
C2905 C2907 1.419 . S
C2905 H2909 0.930 . S
C2906 C2905 1.369 . S
C2906 C2915 1.429 . S
C2907 C2905 1.419 . S
C2907 C2908 1.363 . S
C2907 H2910 0.929 . S
C2908 C2907 1.363 . S
C2908 C2914 1.428 . S
H2909 C2905 0.930 . S
H2910 C2907 0.929 . S
S2911 N2912 1.613 . S
S2911 N2913 1.610 . S
N2912 S2911 1.613 . S
N2912 C2915 1.350 . S
N2913 S2911 1.610 . S
N2913 C2914 1.351 . S
C2914 C2908 1.428 . S
C2914 N2913 1.351 . S
C2914 C2915 1.434 . S
C2915 C2906 1.429 . S
C2915 N2912 1.350 . S
C2915 C2914 1.434 . S
C2125 C300 1.679 . S
C2127 C5 1.680 . S
C2136 C182 1.679 . S
C2138 C64 1.677 . S
C2147 C123 1.678 . S
C2149 C241 1.677 . S
C2158 C359 1.683 . S
C2160 C654 1.685 . S
C2169 C416 1.693 . S
C2171 C536 1.684 . S
C2180 C593 1.691 . S
C2182 C477 1.682 . S
C2191 C713 1.680 . S
C2193 C1008 1.678 . S
C2202 C772 1.678 . S
C2204 C890 1.677 . S
C2213 C831 1.679 . S
C2215 C949 1.677 . S
C2224 C1362 1.684 . S
C2226 C1067 1.682 . S
C2235 C1124 1.691 . S
C2237 C1244 1.682 . S
C2246 C1301 1.691 . S
C2248 C1185 1.684 . S
C2257 C1716 1.678 . S
C2259 C1421 1.680 . S
C2268 C1598 1.678 . S
C2270 C1480 1.677 . S
C2279 C1657 1.680 . S
C2281 C1539 1.680 . S
C2290 C1775 1.685 . S
C2292 C2070 1.683 . S
C2301 C1832 1.693 . S
C2303 C1952 1.684 . S
C2312 C1893 1.682 . S
C2314 C2009 1.691 . S
C2323 C298 1.575 . S
C2325 C3 1.570 . S
C2334 C62 1.576 . S
C2336 C180 1.571 . S
C2345 C239 1.569 . S
C2347 C121 1.574 . S
C2356 C357 1.565 . S
C2358 C652 1.569 . S
C2367 C418 1.591 . S
C2369 C534 1.571 . S
C2378 C595 1.591 . S
C2380 C475 1.570 . S
C2389 C711 1.569 . S
C2391 C1006 1.576 . S
C2400 C888 1.576 . S
C2402 C770 1.569 . S
C2411 C947 1.569 . S
C2413 C829 1.575 . S
C2422 C1065 1.570 . S
C2424 C1360 1.566 . S
C2433 C1126 1.592 . S
C2435 C1242 1.570 . S
C2444 C1303 1.593 . S
C2446 C1183 1.567 . S
C2455 C1714 1.569 . S
C2457 C1419 1.576 . S
C2466 C1478 1.571 . S
C2468 C1596 1.575 . S
C2477 C1537 1.572 . S
C2479 C1655 1.574 . S
C2488 C2068 1.569 . S
C2490 C1773 1.566 . S
C2499 C1950 1.570 . S
C2501 C1834 1.591 . S
C2510 C2011 1.590 . S
C2512 C1891 1.571 . S
C2521 C996 1.720 . S
C2523 C52 1.719 . S
C2532 C1055 1.720 . S
C2534 C111 1.720 . S
C2543 C937 1.719 . S
C2545 C170 1.720 . S
C2554 C229 1.720 . S
C2556 C1586 1.720 . S
C2565 C288 1.717 . S
C2567 C1468 1.718 . S
C2576 C347 1.720 . S
C2578 C1527 1.718 . S
C2587 C406 1.719 . S
C2589 C2039 1.724 . S
C2598 C446 1.726 . S
C2600 C2117 1.717 . S
C2609 C524 1.720 . S
C2611 C1999 1.720 . S
C2620 C583 1.719 . S
C2622 C1232 1.720 . S
C2631 C1114 1.720 . S
C2633 C623 1.725 . S
C2642 C1154 1.724 . S
C2644 C701 1.718 . S
C2653 C1704 1.720 . S
C2655 C760 1.719 . S
C2664 C819 1.717 . S
C2666 C1763 1.719 . S
C2675 C878 1.717 . S
C2677 C1645 1.718 . S
C2686 C1291 1.717 . S
C2688 C1940 1.719 . S
C2697 C1331 1.726 . S
C2699 C1822 1.718 . S
C2708 C1862 1.725 . S
C2710 C1409 1.717 . S
C2719 C33 1.459 . S
C2721 C642 1.460 . S
C2730 C682 1.456 . S
C2732 C92 1.456 . S
C2741 C564 1.455 . S
C2743 C151 1.455 . S
C2752 C210 1.458 . S
C2754 C505 1.457 . S
C2763 C269 1.458 . S
C2765 C387 1.457 . S
C2774 C328 1.458 . S
C2776 C465 1.459 . S
C2785 C741 1.455 . S
C2787 C1350 1.458 . S
C2796 C1390 1.456 . S
C2798 C800 1.457 . S
C2807 C1272 1.456 . S
C2809 C859 1.457 . S
C2818 C918 1.456 . S
C2820 C1213 1.456 . S
C2829 C977 1.455 . S
C2831 C1095 1.455 . S
C2840 C1173 1.459 . S
C2842 C1036 1.457 . S
C2851 C1449 1.456 . S
C2853 C2058 1.457 . S
C2862 C2098 1.456 . S
C2864 C1508 1.456 . S
C2873 C1567 1.456 . S
C2875 C1980 1.456 . S
C2884 C1626 1.457 . S
C2886 C1921 1.457 . S
C2895 C1803 1.455 . S
C2897 C1685 1.456 . S
C2906 C1744 1.456 . S
C2908 C1881 1.457 . S
