# Generated by pormake.
# Topology uob, (4)-cn, num edge types: 1
# Building blocks:
#     Node 0, Type 0, BuildingBlock: KOZSID_clean_sbu_0, # of connection points: 4
#     Node 1, Type 0, BuildingBlock: KOZSID_clean_sbu_0, # of connection points: 4
#     Node 2, Type 0, BuildingBlock: KOZSID_clean_sbu_0, # of connection points: 4
#     Node 3, Type 0, BuildingBlock: KOZSID_clean_sbu_0, # of connection points: 4
#     Node 4, Type 0, BuildingBlock: KOZSID_clean_sbu_0, # of connection points: 4
#     Node 5, Type 0, BuildingBlock: KOZSID_clean_sbu_0, # of connection points: 4
#     Node 6, Type 0, BuildingBlock: KOZSID_clean_sbu_0, # of connection points: 4
#     Node 7, Type 0, BuildingBlock: KOZSID_clean_sbu_0, # of connection points: 4
#     Node 8, Type 0, BuildingBlock: KOZSID_clean_sbu_0, # of connection points: 4
#     Node 9, Type 0, BuildingBlock: KOZSID_clean_sbu_0, # of connection points: 4
#     Node 10, Type 0, BuildingBlock: KOZSID_clean_sbu_0, # of connection points: 4
#     Node 11, Type 0, BuildingBlock: KOZSID_clean_sbu_0, # of connection points: 4
#     Node 12, Type 0, BuildingBlock: KOZSID_clean_sbu_0, # of connection points: 4
#     Node 13, Type 0, BuildingBlock: KOZSID_clean_sbu_0, # of connection points: 4
#     Node 14, Type 0, BuildingBlock: KOZSID_clean_sbu_0, # of connection points: 4
#     Node 15, Type 0, BuildingBlock: KOZSID_clean_sbu_0, # of connection points: 4
#     Edge 16, Type (0, 0), BuildingBlock: ZUJKAS_clean_linker_0, # of connection points: 2
#     Edge 17, Type (0, 0), BuildingBlock: ZUJKAS_clean_linker_0, # of connection points: 2
#     Edge 18, Type (0, 0), BuildingBlock: ZUJKAS_clean_linker_0, # of connection points: 2
#     Edge 19, Type (0, 0), BuildingBlock: ZUJKAS_clean_linker_0, # of connection points: 2
#     Edge 20, Type (0, 0), BuildingBlock: ZUJKAS_clean_linker_0, # of connection points: 2
#     Edge 21, Type (0, 0), BuildingBlock: ZUJKAS_clean_linker_0, # of connection points: 2
#     Edge 22, Type (0, 0), BuildingBlock: ZUJKAS_clean_linker_0, # of connection points: 2
#     Edge 23, Type (0, 0), BuildingBlock: ZUJKAS_clean_linker_0, # of connection points: 2
#     Edge 24, Type (0, 0), BuildingBlock: ZUJKAS_clean_linker_0, # of connection points: 2
#     Edge 25, Type (0, 0), BuildingBlock: ZUJKAS_clean_linker_0, # of connection points: 2
#     Edge 26, Type (0, 0), BuildingBlock: ZUJKAS_clean_linker_0, # of connection points: 2
#     Edge 27, Type (0, 0), BuildingBlock: ZUJKAS_clean_linker_0, # of connection points: 2
#     Edge 28, Type (0, 0), BuildingBlock: ZUJKAS_clean_linker_0, # of connection points: 2
#     Edge 29, Type (0, 0), BuildingBlock: ZUJKAS_clean_linker_0, # of connection points: 2
#     Edge 30, Type (0, 0), BuildingBlock: ZUJKAS_clean_linker_0, # of connection points: 2
#     Edge 31, Type (0, 0), BuildingBlock: ZUJKAS_clean_linker_0, # of connection points: 2
#     Edge 32, Type (0, 0), BuildingBlock: ZUJKAS_clean_linker_0, # of connection points: 2
#     Edge 33, Type (0, 0), BuildingBlock: ZUJKAS_clean_linker_0, # of connection points: 2
#     Edge 34, Type (0, 0), BuildingBlock: ZUJKAS_clean_linker_0, # of connection points: 2
#     Edge 35, Type (0, 0), BuildingBlock: ZUJKAS_clean_linker_0, # of connection points: 2
#     Edge 36, Type (0, 0), BuildingBlock: ZUJKAS_clean_linker_0, # of connection points: 2
#     Edge 37, Type (0, 0), BuildingBlock: ZUJKAS_clean_linker_0, # of connection points: 2
#     Edge 38, Type (0, 0), BuildingBlock: ZUJKAS_clean_linker_0, # of connection points: 2
#     Edge 39, Type (0, 0), BuildingBlock: ZUJKAS_clean_linker_0, # of connection points: 2
#     Edge 40, Type (0, 0), BuildingBlock: ZUJKAS_clean_linker_0, # of connection points: 2
#     Edge 41, Type (0, 0), BuildingBlock: ZUJKAS_clean_linker_0, # of connection points: 2
#     Edge 42, Type (0, 0), BuildingBlock: ZUJKAS_clean_linker_0, # of connection points: 2
#     Edge 43, Type (0, 0), BuildingBlock: ZUJKAS_clean_linker_0, # of connection points: 2
#     Edge 44, Type (0, 0), BuildingBlock: ZUJKAS_clean_linker_0, # of connection points: 2
#     Edge 45, Type (0, 0), BuildingBlock: ZUJKAS_clean_linker_0, # of connection points: 2
#     Edge 46, Type (0, 0), BuildingBlock: ZUJKAS_clean_linker_0, # of connection points: 2
#     Edge 47, Type (0, 0), BuildingBlock: ZUJKAS_clean_linker_0, # of connection points: 2
# Relax obj value: 0.098
# Max RMSD: 0.270
# Mean RMSD: 0.243
data_MOF--net-uob--node1-KOZSID_clean_sbu_0--edge1-ZUJKAS_clean_linker_0
_symmetry_space_group_name_H-M    P1
_symmetry_Int_Tables_number       1
_symmetry_cell_setting            triclinic
loop_
_symmetry_equiv_pos_as_xyz
'x, y, z'
_cell_length_a     71.640062
_cell_length_b     85.677441
_cell_length_c     42.723692
_cell_angle_alpha  89.998499
_cell_angle_beta   89.973966
_cell_angle_gamma 89.940194
loop_
_atom_site_label
_atom_site_type_symbol
_atom_site_fract_x
_atom_site_fract_y
_atom_site_fract_z
_atom_type_partial_charge
C0 C 0.17299 0.07381 0.31629 0.0
C1 C 0.18831 0.064 0.31344 0.0
C2 C 0.18221 0.05094 0.29781 0.0
C3 C 0.16359 0.05353 0.29197 0.0
N4 N 0.15772 0.06741 0.30287 0.0
Co5 Co 0.13206 0.07572 0.30037 0.0
N6 N 0.12156 0.05454 0.29542 0.0
C7 C 0.13101 0.04185 0.2856 0.0
C8 C 0.11996 0.02881 0.28372 0.0
C9 C 0.10249 0.03366 0.2927 0.0
C10 C 0.10387 0.04947 0.29968 0.0
N11 N 0.10636 0.08403 0.29757 0.0
C12 C 0.08982 0.07655 0.30126 0.0
C13 C 0.07509 0.08688 0.2972 0.0
C14 C 0.08284 0.1012 0.29036 0.0
C15 C 0.10183 0.09888 0.29069 0.0
N16 N 0.14304 0.09674 0.30578 0.0
C17 C 0.13483 0.11032 0.29814 0.0
C18 C 0.1456 0.12296 0.30651 0.0
C19 C 0.16144 0.11683 0.32021 0.0
C20 C 0.15948 0.10075 0.31946 0.0
N21 N 0.13398 0.07777 0.25429 0.0
C22 C 0.13171 0.08567 0.1901 0.0
C23 C 0.14703 0.09033 0.20846 0.0
C24 C 0.14805 0.08607 0.24033 0.0
C25 C 0.11814 0.07632 0.20439 0.0
C26 C 0.11947 0.07261 0.23617 0.0
N27 N 0.12922 0.07416 0.34591 0.0
C28 C 0.11671 0.08573 0.39272 0.0
C29 C 0.11984 0.07199 0.4095 0.0
C30 C 0.12878 0.05953 0.3942 0.0
C31 C 0.13332 0.06084 0.36221 0.0
C32 C 0.12148 0.08658 0.36128 0.0
H33 H 0.13961 0.05099 0.35044 0.0
H34 H 0.11827 0.09724 0.34921 0.0
H35 H 0.15982 0.09003 0.25398 0.0
H36 H 0.10805 0.06621 0.24631 0.0
C37 C 0.15055 0.04214 0.28325 0.0
C38 C 0.17345 0.08935 0.33067 0.0
C39 C 0.08786 0.05961 0.30687 0.0
C40 C 0.1157 0.11059 0.29031 0.0
H41 H 0.20231 0.06601 0.32204 0.0
H42 H 0.19015 0.04046 0.29301 0.0
H43 H 0.12416 0.01708 0.27746 0.0
H44 H 0.09011 0.02644 0.29342 0.0
H45 H 0.06033 0.08437 0.299 0.0
H46 H 0.07547 0.11209 0.28687 0.0
H47 H 0.14191 0.13518 0.30469 0.0
H48 H 0.17292 0.12342 0.32997 0.0
H49 H 0.15804 0.09739 0.1984 0.0
H50 H 0.10595 0.07252 0.19151 0.0
H51 H 0.11029 0.09578 0.40373 0.0
H52 H 0.13162 0.04873 0.4065 0.0
C53 C 0.90702 0.63169 0.50049 0.0
C54 C 0.88926 0.63023 0.48788 0.0
C55 C 0.87715 0.62928 0.51273 0.0
C56 C 0.88816 0.63021 0.53899 0.0
N57 N 0.90639 0.63171 0.53213 0.0
Co58 Co 0.92704 0.63329 0.56262 0.0
N59 N 0.91181 0.62334 0.59563 0.0
C60 C 0.89304 0.62255 0.5961 0.0
C61 C 0.88626 0.61542 0.6225 0.0
C62 C 0.90173 0.61162 0.63977 0.0
C63 C 0.9172 0.61662 0.62279 0.0
N64 N 0.94763 0.63496 0.59319 0.0
C65 C 0.95006 0.62741 0.62081 0.0
C66 C 0.96653 0.63215 0.63498 0.0
C67 C 0.97441 0.64318 0.6156 0.0
C68 C 0.96241 0.64455 0.59065 0.0
N69 N 0.94188 0.64314 0.52883 0.0
C70 C 0.95717 0.65199 0.53284 0.0
C71 C 0.96482 0.65659 0.50474 0.0
C72 C 0.95358 0.6502 0.48188 0.0
C73 C 0.93968 0.64202 0.49731 0.0
N74 N 0.91819 0.65415 0.57664 0.0
C75 C 0.9121 0.68477 0.59966 0.0
C76 C 0.91296 0.68174 0.5673 0.0
C77 C 0.91566 0.66634 0.55628 0.0
C78 C 0.91362 0.67202 0.61994 0.0
C79 C 0.91684 0.65702 0.60815 0.0
N80 N 0.93677 0.61269 0.55 0.0
C81 C 0.96409 0.59684 0.54098 0.0
C82 C 0.95368 0.5831 0.5439 0.0
C83 C 0.93423 0.58456 0.5477 0.0
C84 C 0.92603 0.59948 0.55057 0.0
C85 C 0.95549 0.61134 0.54421 0.0
H86 H 0.91118 0.60032 0.55461 0.0
H87 H 0.96434 0.62145 0.54351 0.0
H88 H 0.91637 0.66439 0.53133 0.0
H89 H 0.91909 0.64788 0.62499 0.0
C90 C 0.88259 0.62642 0.56947 0.0
C91 C 0.92407 0.63379 0.48202 0.0
C92 C 0.93645 0.61648 0.63471 0.0
C93 C 0.9659 0.65259 0.5624 0.0
H94 H 0.88549 0.62982 0.46337 0.0
H95 H 0.86225 0.62729 0.51169 0.0
H96 H 0.87184 0.61292 0.62819 0.0
H97 H 0.90155 0.60613 0.66257 0.0
H98 H 0.97223 0.62812 0.65699 0.0
H99 H 0.98765 0.64903 0.61883 0.0
H100 H 0.97762 0.66305 0.50118 0.0
H101 H 0.95547 0.6513 0.45685 0.0
H102 H 0.91167 0.69121 0.55065 0.0
H103 H 0.91324 0.6737 0.64507 0.0
H104 H 0.97902 0.59645 0.53705 0.0
H105 H 0.92552 0.5743 0.54983 0.0
C106 C 0.33973 0.44745 0.81403 0.0
C107 C 0.32472 0.45754 0.81033 0.0
C108 C 0.33136 0.47038 0.79464 0.0
C109 C 0.35 0.46748 0.78977 0.0
N110 N 0.35541 0.45361 0.80137 0.0
Co111 Co 0.38108 0.44513 0.80085 0.0
N112 N 0.39193 0.46618 0.79564 0.0
C113 C 0.38285 0.47878 0.78456 0.0
C114 C 0.3941 0.4917 0.7824 0.0
C115 C 0.41132 0.48684 0.79255 0.0
C116 C 0.4096 0.47117 0.80051 0.0
N117 N 0.40675 0.43663 0.80024 0.0
C118 C 0.42328 0.44403 0.80477 0.0
C119 C 0.43796 0.43351 0.80248 0.0
C120 C 0.43023 0.41918 0.79576 0.0
C121 C 0.41128 0.42166 0.79446 0.0
N122 N 0.36975 0.42424 0.80626 0.0
C123 C 0.37797 0.41054 0.79958 0.0
C124 C 0.36686 0.39805 0.8076 0.0
C125 C 0.35079 0.40441 0.82007 0.0
C126 C 0.353 0.42046 0.81909 0.0
N127 N 0.3802 0.44266 0.75475 0.0
C128 C 0.38315 0.43479 0.69058 0.0
C129 C 0.36742 0.43046 0.70831 0.0
C130 C 0.36609 0.43469 0.74018 0.0
C131 C 0.39689 0.44368 0.70555 0.0
C132 C 0.39523 0.44739 0.73731 0.0
N133 N 0.38278 0.4471 0.84653 0.0
C134 C 0.39162 0.43517 0.89534 0.0
C135 C 0.38838 0.44909 0.91138 0.0
C136 C 0.38205 0.46209 0.89438 0.0
C137 C 0.37906 0.46077 0.8619 0.0
C138 C 0.38898 0.43448 0.86317 0.0
H139 H 0.37407 0.47082 0.84912 0.0
H140 H 0.39241 0.42368 0.85174 0.0
H141 H 0.35397 0.43103 0.7533 0.0
H142 H 0.40668 0.45351 0.74799 0.0
C143 C 0.36338 0.47863 0.78125 0.0
C144 C 0.33877 0.43196 0.82877 0.0
C145 C 0.42533 0.46105 0.80935 0.0
C146 C 0.3973 0.41006 0.79334 0.0
H147 H 0.31055 0.45596 0.81844 0.0
H148 H 0.32374 0.48096 0.78924 0.0
H149 H 0.39016 0.50335 0.77517 0.0
H150 H 0.42377 0.49397 0.79338 0.0
H151 H 0.45269 0.43589 0.80532 0.0
H152 H 0.43754 0.40818 0.79338 0.0
H153 H 0.37044 0.38579 0.80639 0.0
H154 H 0.33893 0.39803 0.82912 0.0
H155 H 0.35628 0.42375 0.69774 0.0
H156 H 0.4094 0.44721 0.69318 0.0
H157 H 0.39677 0.42494 0.9075 0.0
H158 H 0.37939 0.47308 0.90607 0.0
C159 C 0.60749 0.88968 1.00147 0.0
C160 C 0.62548 0.89074 0.98959 0.0
C161 C 0.63722 0.89168 1.01491 0.0
C162 C 0.62578 0.89118 0.04072 0.0
N163 N 0.60763 0.88995 0.03312 0.0
Co164 Co 0.58644 0.88918 0.06273 0.0
N165 N 0.60144 0.89915 0.09601 0.0
C166 C 0.62022 0.89954 0.09725 0.0
C167 C 0.62681 0.90679 0.12363 0.0
C168 C 0.61121 0.91109 0.14007 0.0
C169 C 0.59584 0.90624 0.12267 0.0
N170 N 0.56527 0.88834 0.09234 0.0
C171 C 0.56265 0.89618 0.11958 0.0
C172 C 0.5458 0.89195 0.13318 0.0
C173 C 0.53788 0.88093 0.11387 0.0
C174 C 0.55022 0.87906 0.08951 0.0
N175 N 0.57186 0.87925 0.02876 0.0
C176 C 0.55626 0.87076 0.03244 0.0
C177 C 0.54894 0.86602 1.00419 0.0
C178 C 0.56072 0.87197 0.9816 0.0
C179 C 0.57458 0.88005 0.99734 0.0
N180 N 0.59438 0.86832 0.0781 0.0
C181 C 0.59861 0.83773 0.10279 0.0
C182 C 0.59936 0.84056 0.07027 0.0
C183 C 0.59735 0.85591 0.05845 0.0
C184 C 0.59695 0.85079 0.12234 0.0
C185 C 0.59473 0.86573 0.10975 0.0
N186 N 0.5776 0.90984 0.04872 0.0
C187 C 0.55116 0.92614 0.03605 0.0
C188 C 0.56196 0.93965 0.0388 0.0
C189 C 0.58108 0.93787 0.04542 0.0
C190 C 0.58869 0.92284 0.04981 0.0
C191 C 0.55912 0.91152 0.04129 0.0
H192 H 0.60336 0.92177 0.05521 0.0
H193 H 0.54994 0.90161 0.04072 0.0
H194 H 0.59743 0.85765 0.0334 0.0
H195 H 0.59245 0.87511 0.12603 0.0
C196 C 0.63096 0.89518 0.07126 0.0
C197 C 0.59064 0.88779 0.98242 0.0
C198 C 0.57643 0.90682 0.13389 0.0
C199 C 0.54699 0.87073 0.06154 0.0
H200 H 0.62966 0.89093 0.96525 0.0
H201 H 0.65218 0.89342 1.01445 0.0
H202 H 0.64121 0.90903 0.12982 0.0
H203 H 0.61124 0.91679 0.16266 0.0
H204 H 0.53991 0.89628 0.15483 0.0
H205 H 0.52443 0.87537 0.11676 0.0
H206 H 0.53601 0.8598 1.00031 0.0
H207 H 0.55922 0.87066 0.95653 0.0
H208 H 0.60075 0.83098 0.05393 0.0
H209 H 0.59695 0.84956 0.14756 0.0
H210 H 0.53632 0.92686 0.03138 0.0
H211 H 0.59003 0.948 0.04749 0.0
C212 C 0.1732 0.44739 0.03897 0.0
C213 C 0.18832 0.45732 0.04278 0.0
C214 C 0.18175 0.47029 0.05819 0.0
C215 C 0.16304 0.46759 0.06282 0.0
N216 N 0.15754 0.45373 0.05137 0.0
Co217 Co 0.13181 0.44546 0.05168 0.0
N218 N 0.12113 0.46662 0.05632 0.0
C219 C 0.13028 0.47923 0.06715 0.0
C220 C 0.11917 0.49227 0.06867 0.0
C221 C 0.10196 0.4875 0.05839 0.0
C222 C 0.10354 0.47174 0.05102 0.0
N223 N 0.10607 0.43716 0.05213 0.0
C224 C 0.08961 0.44468 0.04749 0.0
C225 C 0.07482 0.43431 0.05009 0.0
C226 C 0.08241 0.41995 0.05705 0.0
C227 C 0.10139 0.42226 0.05823 0.0
N228 N 0.14297 0.42446 0.04674 0.0
C229 C 0.13461 0.41085 0.05352 0.0
C230 C 0.14564 0.39824 0.04577 0.0
C231 C 0.16181 0.40444 0.03334 0.0
C232 C 0.15973 0.42051 0.0341 0.0
N233 N 0.13241 0.44314 0.09783 0.0
C234 C 0.12815 0.43453 0.16151 0.0
C235 C 0.14422 0.43033 0.14438 0.0
C236 C 0.14615 0.43485 0.11274 0.0
C237 C 0.11509 0.44412 0.14637 0.0
C238 C 0.11736 0.44813 0.1149 0.0
N239 N 0.13033 0.44725 1.00596 0.0
C240 C 0.1214 0.43521 0.95735 0.0
C241 C 0.12487 0.44901 0.94105 0.0
C242 C 0.13137 0.46201 0.95784 0.0
C243 C 0.13428 0.46081 0.99036 0.0
C244 C 0.12399 0.43462 0.98952 0.0
H245 H 0.13938 0.47086 1.00298 0.0
H246 H 0.1204 0.42392 1.00112 0.0
H247 H 0.15834 0.43103 0.09996 0.0
H248 H 0.1063 0.4547 0.10409 0.0
C249 C 0.14974 0.47892 0.07082 0.0
C250 C 0.17404 0.43189 0.02432 0.0
C251 C 0.08772 0.46168 0.04249 0.0
C252 C 0.11526 0.41054 0.05964 0.0
H253 H 0.20251 0.45553 0.03488 0.0
H254 H 0.18946 0.48081 0.06351 0.0
H255 H 0.1232 0.50394 0.07557 0.0
H256 H 0.08959 0.49474 0.05708 0.0
H257 H 0.06012 0.43684 0.04733 0.0
H258 H 0.07499 0.40903 0.05974 0.0
H259 H 0.14195 0.38602 0.04711 0.0
H260 H 0.17363 0.39794 0.02446 0.0
H261 H 0.15489 0.42304 0.15479 0.0
H262 H 0.10278 0.44829 0.15848 0.0
H263 H 0.11609 0.42498 0.94539 0.0
H264 H 0.1342 0.47292 0.94597 0.0
C265 C 0.60631 0.63156 0.35209 0.0
C266 C 0.62417 0.63035 0.36441 0.0
C267 C 0.63612 0.62919 0.33938 0.0
C268 C 0.62491 0.62974 0.3133 0.0
N269 N 0.60672 0.63119 0.32045 0.0
Co270 Co 0.5858 0.6321 0.29033 0.0
N271 N 0.60096 0.62183 0.25756 0.0
C272 C 0.61974 0.62116 0.25681 0.0
C273 C 0.62645 0.61369 0.23075 0.0
C274 C 0.61093 0.60954 0.21397 0.0
C275 C 0.5955 0.61471 0.23087 0.0
N276 N 0.56494 0.63313 0.26014 0.0
C277 C 0.56248 0.62529 0.23287 0.0
C278 C 0.54588 0.62976 0.21872 0.0
C279 C 0.53794 0.64092 0.23775 0.0
C280 C 0.55004 0.64264 0.26247 0.0
N281 N 0.57104 0.64225 0.32385 0.0
C282 C 0.55557 0.65088 0.31973 0.0
C283 C 0.54803 0.65573 0.34776 0.0
C284 C 0.55952 0.64971 0.37068 0.0
C285 C 0.57344 0.64147 0.35536 0.0
N286 N 0.59416 0.65284 0.27494 0.0
C287 C 0.59869 0.68334 0.24996 0.0
C288 C 0.59902 0.68062 0.28254 0.0
C289 C 0.59687 0.66531 0.29451 0.0
C290 C 0.59734 0.67019 0.23055 0.0
C291 C 0.59496 0.6553 0.24328 0.0
N292 N 0.57657 0.6116 0.3044 0.0
C293 C 0.54979 0.59557 0.31612 0.0
C294 C 0.56064 0.58198 0.31526 0.0
C295 C 0.57993 0.58365 0.30991 0.0
C296 C 0.58765 0.59858 0.30485 0.0
C297 C 0.55792 0.61008 0.31063 0.0
H298 H 0.60244 0.59955 0.30032 0.0
H299 H 0.54879 0.62004 0.31012 0.0
H300 H 0.59662 0.66367 0.31957 0.0
H301 H 0.59288 0.64588 0.22704 0.0
C302 C 0.63031 0.62552 0.28297 0.0
C303 C 0.58931 0.63363 0.37074 0.0
C304 C 0.5762 0.6144 0.21909 0.0
C305 C 0.54663 0.65102 0.29034 0.0
H306 H 0.62814 0.63016 0.38884 0.0
H307 H 0.65104 0.62727 0.34021 0.0
H308 H 0.64086 0.61121 0.22496 0.0
H309 H 0.61107 0.60373 0.1915 0.0
H310 H 0.54017 0.62549 0.19692 0.0
H311 H 0.52463 0.64667 0.23442 0.0
H312 H 0.53514 0.6621 0.35126 0.0
H313 H 0.5578 0.65108 0.3957 0.0
H314 H 0.60017 0.69025 0.2988 0.0
H315 H 0.5977 0.67133 0.20532 0.0
H316 H 0.53483 0.59501 0.31961 0.0
H317 H 0.58896 0.57351 0.30933 0.0
C318 C 0.34006 0.07466 0.53938 0.0
C319 C 0.32493 0.06475 0.54312 0.0
C320 C 0.33142 0.05186 0.55892 0.0
C321 C 0.35009 0.05464 0.56397 0.0
N322 N 0.35559 0.06849 0.55243 0.0
Co323 Co 0.38117 0.07699 0.55343 0.0
N324 N 0.39204 0.05593 0.55847 0.0
C325 C 0.38293 0.04328 0.56923 0.0
C326 C 0.3942 0.03034 0.57114 0.0
C327 C 0.41145 0.03524 0.56119 0.0
C328 C 0.40972 0.05096 0.55361 0.0
N329 N 0.40679 0.08551 0.55452 0.0
C330 C 0.42336 0.07813 0.55016 0.0
C331 C 0.43801 0.08863 0.55296 0.0
C332 C 0.4302 0.10293 0.55976 0.0
C333 C 0.41124 0.10046 0.56064 0.0
N334 N 0.36978 0.0979 0.54819 0.0
C335 C 0.37793 0.11159 0.55509 0.0
C336 C 0.36685 0.12408 0.54686 0.0
C337 C 0.3509 0.11774 0.53401 0.0
C338 C 0.35309 0.10169 0.5351 0.0
N339 N 0.38005 0.0793 0.59954 0.0
C340 C 0.38278 0.08707 0.66376 0.0
C341 C 0.36711 0.09145 0.64593 0.0
C342 C 0.36589 0.08727 0.61404 0.0
C343 C 0.39656 0.07814 0.64887 0.0
C344 C 0.395 0.07449 0.61708 0.0
N345 N 0.3831 0.07517 0.50778 0.0
C346 C 0.39228 0.08718 0.45926 0.0
C347 C 0.38897 0.07335 0.44297 0.0
C348 C 0.38244 0.06034 0.45973 0.0
C349 C 0.37934 0.06157 0.49219 0.0
C350 C 0.38948 0.0878 0.49139 0.0
H351 H 0.37422 0.05152 0.50478 0.0
H352 H 0.39289 0.09854 0.50302 0.0
H353 H 0.35382 0.09098 0.60083 0.0
H354 H 0.40649 0.06835 0.60648 0.0
C355 C 0.36343 0.04343 0.57247 0.0
C356 C 0.3392 0.09009 0.52459 0.0
C357 C 0.42547 0.06114 0.54521 0.0
C358 C 0.39722 0.11205 0.56165 0.0
H359 H 0.31078 0.06659 0.535 0.0
H360 H 0.3237 0.04135 0.56433 0.0
H361 H 0.39026 0.01865 0.57808 0.0
H362 H 0.42391 0.02811 0.56022 0.0
H363 H 0.45276 0.08623 0.55041 0.0
H364 H 0.43746 0.11392 0.56249 0.0
H365 H 0.37043 0.13634 0.54808 0.0
H366 H 0.3392 0.12418 0.5245 0.0
H367 H 0.35595 0.09818 0.65644 0.0
H368 H 0.40902 0.07457 0.66132 0.0
H369 H 0.3976 0.09742 0.44733 0.0
H370 H 0.37971 0.04941 0.44787 0.0
C371 C 0.90756 0.89007 0.85265 0.0
C372 C 0.88983 0.89154 0.8654 0.0
C373 C 0.87768 0.89259 0.84065 0.0
C374 C 0.88864 0.89169 0.81431 0.0
N375 N 0.90688 0.89011 0.82104 0.0
Co376 Co 0.92747 0.88846 0.79041 0.0
N377 N 0.91223 0.89856 0.75758 0.0
C378 C 0.89346 0.8995 0.7573 0.0
C379 C 0.88667 0.90672 0.73102 0.0
C380 C 0.90212 0.91042 0.71362 0.0
C381 C 0.91759 0.90526 0.73039 0.0
N382 N 0.94796 0.88665 0.75966 0.0
C383 C 0.95036 0.89414 0.73198 0.0
C384 C 0.96674 0.88926 0.71764 0.0
C385 C 0.9746 0.8782 0.73697 0.0
C386 C 0.96268 0.87694 0.76206 0.0
N387 N 0.94234 0.87851 0.82405 0.0
C388 C 0.95759 0.8696 0.81993 0.0
C389 C 0.96528 0.86496 0.84796 0.0
C390 C 0.95412 0.8714 0.87091 0.0
C391 C 0.94021 0.87964 0.85558 0.0
N392 N 0.91845 0.86766 0.77639 0.0
C393 C 0.91227 0.83708 0.75333 0.0
C394 C 0.91325 0.84007 0.78569 0.0
C395 C 0.916 0.85546 0.79674 0.0
C396 C 0.9137 0.84984 0.73308 0.0
C397 C 0.91696 0.86483 0.74489 0.0
N398 N 0.93734 0.90898 0.80305 0.0
C399 C 0.96474 0.92477 0.81144 0.0
C400 C 0.95421 0.9385 0.80994 0.0
C401 C 0.93471 0.93707 0.80698 0.0
C402 C 0.92654 0.92218 0.80355 0.0
C403 C 0.95614 0.91029 0.80801 0.0
H404 H 0.91164 0.92136 0.80007 0.0
H405 H 0.96501 0.90017 0.80798 0.0
H406 H 0.91681 0.85738 0.82169 0.0
H407 H 0.91914 0.87398 0.72807 0.0
C408 C 0.88304 0.8956 0.78392 0.0
C409 C 0.92465 0.88792 0.87098 0.0
C410 C 0.93679 0.90512 0.71811 0.0
C411 C 0.96621 0.86891 0.79029 0.0
H412 H 0.88611 0.8919 0.88995 0.0
H413 H 0.86278 0.89463 0.8418 0.0
H414 H 0.87226 0.90933 0.72547 0.0
H415 H 0.90189 0.91592 0.69083 0.0
H416 H 0.9724 0.89322 0.69555 0.0
H417 H 0.98778 0.87224 0.73362 0.0
H418 H 0.97806 0.85844 0.85142 0.0
H419 H 0.95607 0.87029 0.89592 0.0
H420 H 0.91204 0.83059 0.80233 0.0
H421 H 0.91321 0.84818 0.70796 0.0
H422 H 0.97974 0.92517 0.81455 0.0
H423 H 0.92595 0.94736 0.80597 0.0
C424 C 0.67357 0.57287 0.8135 0.0
C425 C 0.68855 0.56274 0.80994 0.0
C426 C 0.68187 0.54982 0.7946 0.0
C427 C 0.66323 0.55269 0.78981 0.0
N428 N 0.65785 0.56664 0.8011 0.0
Co429 Co 0.63216 0.5751 0.80071 0.0
N430 N 0.62131 0.554 0.79608 0.0
C431 C 0.63038 0.54131 0.78541 0.0
C432 C 0.61917 0.52834 0.78397 0.0
C433 C 0.60197 0.53326 0.79412 0.0
C434 C 0.60366 0.54902 0.80132 0.0
N435 N 0.60649 0.58359 0.80013 0.0
C436 C 0.58995 0.57619 0.80458 0.0
C437 C 0.57525 0.58665 0.80173 0.0
C438 C 0.58298 0.60096 0.79483 0.0
C439 C 0.60194 0.59852 0.79393 0.0
N440 N 0.64348 0.59601 0.80568 0.0
C441 C 0.63523 0.60969 0.79886 0.0
C442 C 0.64633 0.62222 0.80664 0.0
C443 C 0.66242 0.61592 0.81912 0.0
C444 C 0.66024 0.59986 0.81837 0.0
N445 N 0.63287 0.5774 0.75456 0.0
C446 C 0.6287 0.58609 0.69092 0.0
C447 C 0.64478 0.59019 0.70808 0.0
C448 C 0.64666 0.58562 0.73969 0.0
C449 C 0.61559 0.57654 0.70598 0.0
C450 C 0.61782 0.57247 0.73744 0.0
N451 N 0.6306 0.57333 0.84642 0.0
C452 C 0.62163 0.5854 0.89501 0.0
C453 C 0.62502 0.57158 0.91131 0.0
C454 C 0.6315 0.55856 0.89453 0.0
C455 C 0.63447 0.55975 0.86202 0.0
C456 C 0.62429 0.58598 0.86284 0.0
H457 H 0.63955 0.54968 0.84942 0.0
H458 H 0.62076 0.5967 0.85122 0.0
H459 H 0.65885 0.58937 0.7525 0.0
H460 H 0.60672 0.56596 0.7482 0.0
C461 C 0.64983 0.54147 0.78186 0.0
C462 C 0.67454 0.58842 0.82803 0.0
C463 C 0.58789 0.55922 0.8096 0.0
C464 C 0.6159 0.61013 0.79259 0.0
H465 H 0.70273 0.56431 0.81798 0.0
H466 H 0.68946 0.53919 0.78948 0.0
H467 H 0.62313 0.51662 0.77722 0.0
H468 H 0.58955 0.52612 0.79545 0.0
H469 H 0.56051 0.58421 0.80424 0.0
H470 H 0.57565 0.61192 0.79196 0.0
H471 H 0.64274 0.63447 0.80524 0.0
H472 H 0.6743 0.62234 0.82799 0.0
H473 H 0.65548 0.59744 0.69771 0.0
H474 H 0.60327 0.57245 0.69384 0.0
H475 H 0.61633 0.59565 0.90694 0.0
H476 H 0.63428 0.54763 0.9064 0.0
C477 C 0.40769 0.13179 1.00136 0.0
C478 C 0.38986 0.13061 0.98895 0.0
C479 C 0.37784 0.12973 1.01393 0.0
C480 C 0.38898 0.13045 0.04007 0.0
N481 N 0.4072 0.13174 0.03299 0.0
Co482 Co 0.42802 0.13296 0.06321 0.0
N483 N 0.41278 0.1231 0.09631 0.0
C484 C 0.39399 0.12253 0.097 0.0
C485 C 0.38722 0.11537 0.12337 0.0
C486 C 0.4027 0.11132 0.14037 0.0
C487 C 0.41818 0.11622 0.12329 0.0
N488 N 0.4488 0.13426 0.09349 0.0
C489 C 0.45122 0.12663 0.12101 0.0
C490 C 0.46781 0.13115 0.13506 0.0
C491 C 0.4758 0.14212 0.11569 0.0
C492 C 0.46373 0.14369 0.09088 0.0
N493 N 0.44287 0.14277 0.02938 0.0
C494 C 0.45832 0.15142 0.03329 0.0
C495 C 0.46592 0.15601 1.00515 0.0
C496 C 0.45447 0.14982 0.98237 0.0
C497 C 0.4405 0.14177 0.99789 0.0
N498 N 0.41957 0.15386 0.07762 0.0
C499 C 0.41349 0.18444 0.10085 0.0
C500 C 0.41414 0.18144 0.06846 0.0
C501 C 0.41686 0.16606 0.05734 0.0
C502 C 0.4153 0.17169 0.12107 0.0
C503 C 0.41849 0.15671 0.10916 0.0
N504 N 0.4373 0.1123 0.05009 0.0
C505 C 0.46401 0.09615 0.03823 0.0
C506 C 0.45324 0.08259 0.04027 0.0
C507 C 0.43403 0.08426 0.04632 0.0
C508 C 0.42628 0.09925 0.0507 0.0
C509 C 0.4559 0.11072 0.04341 0.0
H510 H 0.41154 0.10025 0.05557 0.0
H511 H 0.465 0.12068 0.04323 0.0
H512 H 0.41737 0.16413 0.03237 0.0
H513 H 0.42087 0.14754 0.12589 0.0
C514 C 0.38349 0.12662 0.07057 0.0
C515 C 0.42471 0.13373 0.98272 0.0
C516 C 0.43748 0.11586 0.13501 0.0
C517 C 0.46721 0.15179 0.06272 0.0
H518 H 0.38598 0.13033 0.96447 0.0
H519 H 0.3629 0.12794 1.01306 0.0
H520 H 0.37279 0.113 0.12919 0.0
H521 H 0.40253 0.10572 0.16306 0.0
H522 H 0.4735 0.12702 0.157 0.0
H523 H 0.48914 0.14784 0.11885 0.0
H524 H 0.47883 0.16231 1.0015 0.0
H525 H 0.45629 0.15096 0.95733 0.0
H526 H 0.41263 0.19091 0.05186 0.0
H527 H 0.41508 0.17336 0.1462 0.0
H528 H 0.47891 0.0955 0.03404 0.0
H529 H 0.42512 0.0741 0.04788 0.0
C530 C 0.8396 0.94839 0.31366 0.0
C531 C 0.82464 0.95863 0.31098 0.0
C532 C 0.83118 0.97157 0.29555 0.0
C533 C 0.84971 0.96861 0.28982 0.0
N534 N 0.85516 0.95459 0.30067 0.0
Co535 Co 0.88075 0.94597 0.29866 0.0
N536 N 0.89168 0.967 0.2937 0.0
C537 C 0.88255 0.97978 0.28361 0.0
C538 C 0.89387 0.99266 0.28163 0.0
C539 C 0.91119 0.9876 0.29087 0.0
C540 C 0.90945 0.97185 0.29813 0.0
N541 N 0.90632 0.93734 0.29636 0.0
C542 C 0.92298 0.9446 0.30039 0.0
C543 C 0.93754 0.93405 0.29685 0.0
C544 C 0.92958 0.91983 0.2899 0.0
C545 C 0.91063 0.92241 0.28969 0.0
N546 N 0.86937 0.9251 0.30407 0.0
C547 C 0.87738 0.91141 0.29659 0.0
C548 C 0.86631 0.89891 0.30466 0.0
C549 C 0.85048 0.90525 0.31801 0.0
C550 C 0.85278 0.92129 0.31745 0.0
N551 N 0.87906 0.94386 0.25258 0.0
C552 C 0.88149 0.93594 0.18841 0.0
C553 C 0.86598 0.93149 0.20658 0.0
C554 C 0.8649 0.93576 0.23845 0.0
C555 C 0.89519 0.94506 0.20289 0.0
C556 C 0.89379 0.94878 0.23465 0.0
N557 N 0.88335 0.94757 0.34424 0.0
C558 C 0.8955 0.93591 0.39118 0.0
C559 C 0.89275 0.94975 0.40778 0.0
C560 C 0.88415 0.96233 0.39237 0.0
C561 C 0.87959 0.96102 0.36039 0.0
C562 C 0.89072 0.93505 0.35977 0.0
H563 H 0.87358 0.97094 0.34849 0.0
H564 H 0.89369 0.9243 0.34783 0.0
H565 H 0.85298 0.93197 0.25194 0.0
H566 H 0.90529 0.95501 0.24494 0.0
C567 C 0.86304 0.97977 0.28116 0.0
C568 C 0.83868 0.93276 0.32782 0.0
C569 C 0.92521 0.96153 0.30584 0.0
C570 C 0.89656 0.91089 0.2891 0.0
H571 H 0.81058 0.95709 0.31962 0.0
H572 H 0.82359 0.98225 0.29088 0.0
H573 H 0.88992 1.00442 0.27516 0.0
H574 H 0.9237 0.99465 0.2916 0.0
H575 H 0.95232 0.93634 0.29908 0.0
H576 H 0.93676 0.90883 0.28673 0.0
H577 H 0.86975 0.88664 0.30278 0.0
H578 H 0.83868 0.89884 0.32724 0.0
H579 H 0.85487 0.9246 0.19637 0.0
H580 H 0.90753 0.94869 0.19016 0.0
H581 H 0.90166 0.92577 0.40231 0.0
H582 H 0.88161 0.97321 0.40455 0.0
C583 C 0.1057 0.38931 0.50032 0.0
C584 C 0.12345 0.39089 0.48771 0.0
C585 C 0.13554 0.392 0.51254 0.0
C586 C 0.12452 0.39105 0.53881 0.0
N587 N 0.10631 0.38941 0.53197 0.0
Co588 Co 0.08566 0.38778 0.56251 0.0
N589 N 0.10082 0.39786 0.59544 0.0
C590 C 0.11959 0.39878 0.59586 0.0
C591 C 0.1263 0.40604 0.62214 0.0
C592 C 0.11079 0.40979 0.63938 0.0
C593 C 0.09537 0.40463 0.62251 0.0
N594 N 0.06509 0.38606 0.59313 0.0
C595 C 0.06261 0.39363 0.62071 0.0
C596 C 0.04621 0.38879 0.635 0.0
C597 C 0.03841 0.37769 0.61572 0.0
C598 C 0.05039 0.37637 0.5907 0.0
N599 N 0.07088 0.3778 0.52884 0.0
C600 C 0.05567 0.36886 0.53295 0.0
C601 C 0.04809 0.36412 0.50491 0.0
C602 C 0.05929 0.37051 0.48198 0.0
C603 C 0.07309 0.37885 0.49732 0.0
N604 N 0.09466 0.36699 0.57664 0.0
C605 C 0.10087 0.3364 0.59972 0.0
C606 C 0.10006 0.33942 0.56735 0.0
C607 C 0.09729 0.3548 0.5563 0.0
C608 C 0.09925 0.34915 0.61998 0.0
C609 C 0.09599 0.36414 0.60815 0.0
N610 N 0.07579 0.40831 0.54978 0.0
C611 C 0.04835 0.42399 0.5406 0.0
C612 C 0.05862 0.4378 0.54353 0.0
C613 C 0.07808 0.43646 0.5474 0.0
C614 C 0.0864 0.42159 0.55034 0.0
C615 C 0.05707 0.40955 0.54394 0.0
H616 H 0.10126 0.42085 0.55442 0.0
H617 H 0.0483 0.39938 0.54327 0.0
H618 H 0.09661 0.35674 0.53134 0.0
H619 H 0.09368 0.37329 0.62496 0.0
C620 C 0.13006 0.39493 0.56924 0.0
C621 C 0.08867 0.38704 0.48189 0.0
C622 C 0.07612 0.40467 0.63447 0.0
C623 C 0.04696 0.36826 0.56253 0.0
H624 H 0.12726 0.3913 0.46321 0.0
H625 H 0.15042 0.3941 0.51149 0.0
H626 H 0.14069 0.40867 0.62775 0.0
H627 H 0.11092 0.41539 0.66208 0.0
H628 H 0.04052 0.39282 0.65703 0.0
H629 H 0.02523 0.37175 0.61905 0.0
H630 H 0.03536 0.35755 0.50143 0.0
H631 H 0.05746 0.3693 0.45696 0.0
H632 H 0.10143 0.32995 0.55071 0.0
H633 H 0.09961 0.34748 0.64511 0.0
H634 H 0.03342 0.42428 0.5366 0.0
H635 H 0.0867 0.44678 0.54954 0.0
C636 C 0.67369 0.94853 0.53838 0.0
C637 C 0.68888 0.95847 0.54143 0.0
C638 C 0.68255 0.97151 0.55686 0.0
C639 C 0.66391 0.96886 0.56226 0.0
N640 N 0.65821 0.95496 0.55124 0.0
Co641 Co 0.63247 0.94672 0.5529 0.0
N642 N 0.62192 0.96792 0.55778 0.0
C643 C 0.63126 0.98056 0.56795 0.0
C644 C 0.62019 0.99362 0.56969 0.0
C645 C 0.60282 0.98882 0.56024 0.0
C646 C 0.60427 0.97304 0.55311 0.0
N647 N 0.60673 0.93847 0.55488 0.0
C648 C 0.59023 0.94599 0.55082 0.0
C649 C 0.57546 0.93566 0.55428 0.0
C650 C 0.58313 0.92132 0.56119 0.0
C651 C 0.60212 0.9236 0.56146 0.0
N652 N 0.64347 0.92569 0.5475 0.0
C653 C 0.63518 0.91211 0.55482 0.0
C654 C 0.64605 0.89946 0.5468 0.0
C655 C 0.66205 0.90558 0.53366 0.0
C656 C 0.66004 0.92166 0.53429 0.0
N657 N 0.63389 0.9445 0.599 0.0
C658 C 0.63023 0.93567 0.66261 0.0
C659 C 0.64604 0.93136 0.64492 0.0
C660 C 0.64768 0.93601 0.61331 0.0
C661 C 0.61722 0.94555 0.64816 0.0
C662 C 0.61919 0.94968 0.61671 0.0
N663 N 0.63009 0.94843 0.5073 0.0
C664 C 0.61778 0.93706 0.46021 0.0
C665 C 0.62082 0.95089 0.44375 0.0
C666 C 0.62967 0.9633 0.45929 0.0
C667 C 0.63416 0.96184 0.49128 0.0
C668 C 0.6225 0.93606 0.49162 0.0
H669 H 0.64034 0.97164 0.50329 0.0
H670 H 0.61929 0.92533 0.50347 0.0
H671 H 0.65963 0.93207 0.60003 0.0
H672 H 0.60809 0.9564 0.60641 0.0
C673 C 0.65076 0.98024 0.57071 0.0
C674 C 0.67433 0.93296 0.52403 0.0
C675 C 0.58832 0.96295 0.54538 0.0
C676 C 0.61597 0.91186 0.56213 0.0
H677 H 0.70296 0.95664 0.53305 0.0
H678 H 0.69036 0.98204 0.56174 0.0
H679 H 0.62435 1.00532 0.57617 0.0
H680 H 0.59045 0.99607 0.5593 0.0
H681 H 0.56072 0.93819 0.55204 0.0
H682 H 0.57573 0.91042 0.56432 0.0
H683 H 0.64238 0.88724 0.54857 0.0
H684 H 0.67376 0.89903 0.52448 0.0
H685 H 0.65667 0.92387 0.65484 0.0
H686 H 0.60512 0.9498 0.66076 0.0
H687 H 0.61141 0.92705 0.44896 0.0
H688 H 0.63245 0.97416 0.44722 0.0
C689 C 0.10579 0.13173 0.85413 0.0
C690 C 0.12357 0.13047 0.86674 0.0
C691 C 0.13568 0.12953 0.84188 0.0
C692 C 0.12464 0.13028 0.81563 0.0
N693 N 0.1064 0.13167 0.82251 0.0
Co694 Co 0.08569 0.13302 0.79208 0.0
N695 N 0.10099 0.12302 0.75919 0.0
C696 C 0.11978 0.12231 0.75871 0.0
C697 C 0.12661 0.11512 0.73242 0.0
C698 C 0.11117 0.11121 0.7152 0.0
C699 C 0.09566 0.11621 0.7321 0.0
N700 N 0.06506 0.1345 0.76155 0.0
C701 C 0.06272 0.12694 0.73395 0.0
C702 C 0.04623 0.13161 0.71971 0.0
C703 C 0.03824 0.14262 0.73902 0.0
C704 C 0.05021 0.14405 0.76401 0.0
N705 N 0.07077 0.14289 0.82577 0.0
C706 C 0.05538 0.15162 0.82173 0.0
C707 C 0.04768 0.15621 0.84981 0.0
C708 C 0.059 0.14993 0.87269 0.0
C709 C 0.073 0.14182 0.85729 0.0
N710 N 0.09435 0.15387 0.77777 0.0
C711 C 0.10045 0.18443 0.75455 0.0
C712 C 0.09961 0.18146 0.78693 0.0
C713 C 0.09689 0.16608 0.79805 0.0
C714 C 0.09886 0.17166 0.73434 0.0
C715 C 0.09564 0.15669 0.74624 0.0
N716 N 0.07621 0.11243 0.80511 0.0
C717 C 0.04929 0.0964 0.81591 0.0
C718 C 0.0601 0.08279 0.81524 0.0
C719 C 0.07945 0.08444 0.81033 0.0
C720 C 0.08725 0.09938 0.8056 0.0
C721 C 0.0575 0.11092 0.81082 0.0
H722 H 0.10207 0.10034 0.80144 0.0
H723 H 0.04841 0.1209 0.81029 0.0
H724 H 0.09622 0.16418 0.82302 0.0
H725 H 0.0934 0.14751 0.72949 0.0
C726 C 0.13022 0.12638 0.78521 0.0
C727 C 0.08871 0.1337 0.87258 0.0
C728 C 0.07643 0.11609 0.72004 0.0
C729 C 0.04664 0.15213 0.79218 0.0
H730 H 0.12736 0.13017 0.89125 0.0
H731 H 0.15061 0.12765 0.84291 0.0
H732 H 0.14105 0.11268 0.72673 0.0
H733 H 0.11141 0.10566 0.69245 0.0
H734 H 0.0406 0.12756 0.69768 0.0
H735 H 0.02497 0.14844 0.73572 0.0
H736 H 0.0348 0.16258 0.85334 0.0
H737 H 0.05708 0.15103 0.89771 0.0
H738 H 0.10096 0.19094 0.80353 0.0
H739 H 0.09923 0.17331 0.70921 0.0
H740 H 0.0343 0.09587 0.81904 0.0
H741 H 0.08846 0.0743 0.8099 0.0
C742 C 0.84008 0.57414 0.03911 0.0
C743 C 0.82513 0.56403 0.04299 0.0
C744 C 0.83187 0.55122 0.05868 0.0
C745 C 0.85052 0.55415 0.06339 0.0
N746 N 0.85582 0.56803 0.0517 0.0
Co747 Co 0.88142 0.5766 0.05206 0.0
N748 N 0.89242 0.55559 0.05728 0.0
C749 C 0.88345 0.54294 0.06839 0.0
C750 C 0.89478 0.53005 0.0703 0.0
C751 C 0.91193 0.53495 0.05996 0.0
C752 C 0.91009 0.55064 0.05217 0.0
N753 N 0.90702 0.58518 0.0525 0.0
C754 C 0.92359 0.57782 0.04794 0.0
C755 C 0.93822 0.58835 0.05033 0.0
C756 C 0.93041 0.60266 0.05705 0.0
C757 C 0.91147 0.60015 0.0583 0.0
N758 N 0.86994 0.59744 0.04664 0.0
C759 C 0.87808 0.61117 0.05324 0.0
C760 C 0.86687 0.62362 0.04522 0.0
C761 C 0.85083 0.6172 0.03284 0.0
C762 C 0.85315 0.60116 0.03388 0.0
N763 N 0.88058 0.5791 0.09815 0.0
C764 C 0.88351 0.587 0.16232 0.0
C765 C 0.86772 0.59124 0.14464 0.0
C766 C 0.86641 0.58701 0.11278 0.0
C767 C 0.89733 0.57818 0.14729 0.0
C768 C 0.89567 0.57445 0.11554 0.0
N769 N 0.88307 0.57459 1.00638 0.0
C770 C 0.89185 0.58645 0.95748 0.0
C771 C 0.88876 0.57248 0.94157 0.0
C772 C 0.88251 0.5595 0.95865 0.0
C773 C 0.87947 0.56087 0.99112 0.0
C774 C 0.88918 0.5872 0.98964 0.0
H775 H 0.87456 0.55082 1.00396 0.0
H776 H 0.8925 0.59803 1.001 0.0
H777 H 0.85424 0.59061 0.0997 0.0
H778 H 0.90715 0.56836 0.10482 0.0
C779 C 0.86398 0.54304 0.07183 0.0
C780 C 0.83901 0.5896 0.02428 0.0
C781 C 0.92573 0.56082 0.04322 0.0
C782 C 0.89741 0.61172 0.05943 0.0
H783 H 0.81093 0.56559 0.03499 0.0
H784 H 0.82432 0.54063 0.06418 0.0
H785 H 0.89093 0.51837 0.07744 0.0
H786 H 0.92442 0.52785 0.05885 0.0
H787 H 0.95296 0.58596 0.04758 0.0
H788 H 0.93766 0.61367 0.0595 0.0
H789 H 0.87036 0.63589 0.04638 0.0
H790 H 0.83892 0.62354 0.02382 0.0
H791 H 0.85652 0.59789 0.15525 0.0
H792 H 0.90988 0.57472 0.1596 0.0
H793 H 0.89693 0.59668 0.94524 0.0
H794 H 0.87997 0.54846 0.94705 0.0
C795 C 0.40763 0.3899 0.35331 0.0
C796 C 0.38994 0.39128 0.36623 0.0
C797 C 0.37768 0.39218 0.3416 0.0
C798 C 0.38855 0.39128 0.31514 0.0
N799 N 0.40683 0.38986 0.32169 0.0
Co800 Co 0.4273 0.38829 0.29083 0.0
N801 N 0.41182 0.39818 0.25806 0.0
C802 C 0.39304 0.39894 0.25795 0.0
C803 C 0.38607 0.40601 0.23164 0.0
C804 C 0.40141 0.40982 0.21406 0.0
C805 C 0.41701 0.40487 0.23077 0.0
N806 N 0.44769 0.38659 0.25984 0.0
C807 C 0.44991 0.39409 0.23213 0.0
C808 C 0.46631 0.38935 0.21766 0.0
C809 C 0.47436 0.37835 0.23694 0.0
C810 C 0.46252 0.377 0.26214 0.0
N811 N 0.44243 0.37854 0.32439 0.0
C812 C 0.45775 0.36973 0.32014 0.0
C813 C 0.4656 0.3652 0.34812 0.0
C814 C 0.45446 0.37158 0.37115 0.0
C815 C 0.4404 0.37969 0.35594 0.0
N816 N 0.41847 0.36739 0.27712 0.0
C817 C 0.41247 0.3367 0.25452 0.0
C818 C 0.4135 0.33981 0.28683 0.0
C819 C 0.41616 0.35524 0.29765 0.0
C820 C 0.41377 0.3494 0.23408 0.0
C821 C 0.41694 0.36444 0.24567 0.0
N822 N 0.43699 0.40891 0.30317 0.0
C823 C 0.46425 0.42491 0.31113 0.0
C824 C 0.45356 0.43855 0.30964 0.0
C825 C 0.43407 0.43698 0.30691 0.0
C826 C 0.42605 0.42202 0.30368 0.0
C827 C 0.4558 0.41037 0.30793 0.0
H828 H 0.41115 0.42108 0.30037 0.0
H829 H 0.46478 0.40031 0.30788 0.0
H830 H 0.41701 0.35725 0.32257 0.0
H831 H 0.41901 0.37356 0.22872 0.0
C832 C 0.38278 0.39504 0.28476 0.0
C833 C 0.42481 0.38788 0.37149 0.0
C834 C 0.43619 0.405 0.21845 0.0
C835 C 0.46626 0.36906 0.2904 0.0
H836 H 0.3863 0.39167 0.39081 0.0
H837 H 0.36276 0.3941 0.34288 0.0
H838 H 0.37161 0.40847 0.2262 0.0
H839 H 0.40107 0.41527 0.19122 0.0
H840 H 0.47187 0.39337 0.19554 0.0
H841 H 0.48761 0.37252 0.2335 0.0
H842 H 0.47846 0.35877 0.35147 0.0
H843 H 0.45652 0.37052 0.39615 0.0
H844 H 0.41237 0.33038 0.30361 0.0
H845 H 0.41324 0.34765 0.20898 0.0
H846 H 0.47926 0.42544 0.31403 0.0
H847 H 0.4252 0.4472 0.3059 0.0
H848 H 0.33384 0.07893 0.46581 0.0
H849 H 0.30614 0.08153 0.43246 0.0
H850 H 0.28018 0.11068 0.50237 0.0
H851 H 0.30817 0.10835 0.53531 0.0
H852 H 0.2722 0.07171 0.44253 0.0
H853 H 0.2677 0.13563 0.42603 0.0
H854 H 0.28812 0.1263 0.44218 0.0
H855 H 0.26813 0.13016 0.46655 0.0
C856 C 0.3224 0.08625 0.47361 0.0
C857 C 0.32338 0.09377 0.5028 0.0
C858 C 0.30647 0.08765 0.45464 0.0
C859 C 0.29095 0.09651 0.4644 0.0
C860 C 0.29202 0.10415 0.4936 0.0
H861 H 0.17861 0.07896 0.39007 0.0
H862 H 0.20645 0.08155 0.42307 0.0
C863 C 0.30806 0.10283 0.51251 0.0
C864 C 0.27336 0.09679 0.445 0.0
H865 H 0.24094 0.12087 0.41078 0.0
C866 C 0.26547 0.0825 0.43556 0.0
C867 C 0.26448 0.1108 0.43531 0.0
C868 C 0.27263 0.12659 0.44275 0.0
C869 C 0.24907 0.08181 0.41732 0.0
C870 C 0.23976 0.0958 0.4087 0.0
C871 C 0.24779 0.11011 0.41764 0.0
C872 C 0.22191 0.09571 0.39005 0.0
C873 C 0.24217 0.06602 0.40681 0.0
C874 C 0.22066 0.1035 0.36106 0.0
C875 C 0.2045 0.10226 0.3424 0.0
C876 C 0.18916 0.09333 0.35244 0.0
C877 C 0.19013 0.08606 0.38189 0.0
C878 C 0.20618 0.08737 0.40059 0.0
H879 H 0.25351 0.05717 0.40714 0.0
H880 H 0.23106 0.06199 0.423 0.0
H881 H 0.23628 0.06655 0.3828 0.0
H882 H 0.23248 0.11004 0.35226 0.0
H883 H 0.20433 0.10771 0.31952 0.0
H884 H 0.93314 0.81099 0.76741 0.0
H885 H 0.93295 0.78558 0.74082 0.0
H886 H 0.88704 0.80092 0.68322 0.0
H887 H 0.88788 0.8265 0.70865 0.0
H888 H 0.91091 0.76243 0.73441 0.0
H889 H 0.91962 0.78623 0.61532 0.0
H890 H 0.92133 0.79836 0.64964 0.0
H891 H 0.89883 0.79372 0.63314 0.0
C892 C 0.92293 0.8089 0.7492 0.0
C893 C 0.91062 0.82088 0.74006 0.0
C894 C 0.92286 0.79433 0.73383 0.0
C895 C 0.91036 0.79126 0.70907 0.0
C896 C 0.8974 0.803 0.70117 0.0
H897 H 0.8878 0.6954 0.6445 0.0
H898 H 0.88702 0.72098 0.66991 0.0
C899 C 0.89771 0.81763 0.71606 0.0
C900 C 0.91078 0.77585 0.69182 0.0
H901 H 0.91079 0.75943 0.61854 0.0
C902 C 0.91099 0.76185 0.70905 0.0
C903 C 0.91133 0.77479 0.65861 0.0
C904 C 0.91299 0.78908 0.63813 0.0
C905 C 0.91137 0.74706 0.69433 0.0
C906 C 0.91075 0.74601 0.66113 0.0
C907 C 0.91092 0.76001 0.64389 0.0
C908 C 0.91028 0.73059 0.64388 0.0
C909 C 0.91306 0.73277 0.7148 0.0
C910 C 0.92273 0.7275 0.61902 0.0
C911 C 0.92276 0.71293 0.60366 0.0
C912 C 0.91047 0.70098 0.6129 0.0
C913 C 0.89762 0.70425 0.637 0.0
C914 C 0.89733 0.71888 0.65189 0.0
H915 H 0.91975 0.73561 0.73756 0.0
H916 H 0.89892 0.72816 0.7199 0.0
H917 H 0.92138 0.72348 0.70323 0.0
H918 H 0.9328 0.73623 0.61195 0.0
H919 H 0.93293 0.71081 0.58538 0.0
H920 H 0.33755 0.42956 0.89248 0.0
H921 H 0.30994 0.42621 0.92607 0.0
H922 H 0.27519 0.42282 0.84393 0.0
H923 H 0.30287 0.42559 0.8106 0.0
H924 H 0.28086 0.44454 0.93276 0.0
H925 H 0.25363 0.38768 0.89249 0.0
H926 H 0.27654 0.39456 0.88176 0.0
H927 H 0.25621 0.40115 0.8607 0.0
C928 C 0.32405 0.42767 0.8817 0.0
C929 C 0.32238 0.4277 0.84894 0.0
C930 C 0.30821 0.42588 0.90089 0.0
C931 C 0.29028 0.42404 0.88781 0.0
C932 C 0.28875 0.42377 0.85493 0.0
H933 H 0.17614 0.43129 0.96051 0.0
H934 H 0.20427 0.42838 0.9278 0.0
C935 C 0.3046 0.42543 0.83578 0.0
C936 C 0.27316 0.42351 0.90841 0.0
H937 H 0.23259 0.4034 0.92268 0.0
C938 C 0.27046 0.43542 0.93069 0.0
C939 C 0.25934 0.41168 0.90597 0.0
C940 C 0.26165 0.39797 0.88417 0.0
C941 C 0.25438 0.43602 0.9498 0.0
C942 C 0.24048 0.42435 0.94699 0.0
C943 C 0.24314 0.4124 0.92487 0.0
C944 C 0.22307 0.42454 0.96667 0.0
C945 C 0.25216 0.44943 0.9724 0.0
C946 C 0.22402 0.42283 0.9994 0.0
C947 C 0.20792 0.4243 0.01802 0.0
C948 C 0.19048 0.42755 1.00438 0.0
C949 C 0.18937 0.42863 0.9716 0.0
C950 C 0.20546 0.42705 0.95293 0.0
H951 H 0.26197 0.45912 0.96718 0.0
H952 H 0.23767 0.45404 0.97182 0.0
H953 H 0.25501 0.44525 0.99651 0.0
H954 H 0.23733 0.42069 1.01065 0.0
H955 H 0.2092 0.4235 0.04324 0.0
H956 H 0.61756 0.81114 0.08268 0.0
H957 H 0.61773 0.78507 0.10661 0.0
H958 H 0.58102 0.80152 0.1794 0.0
H959 H 0.57991 0.82709 0.15497 0.0
H960 H 0.62921 0.77423 0.16259 0.0
H961 H 0.55345 0.76328 0.15385 0.0
H962 H 0.56452 0.77939 0.13409 0.0
H963 H 0.5582 0.78094 0.17482 0.0
C964 C 0.60928 0.80918 0.1035 0.0
C965 C 0.59879 0.82148 0.11672 0.0
C966 C 0.60951 0.79422 0.11739 0.0
C967 C 0.59916 0.79107 0.14475 0.0
C968 C 0.58883 0.80336 0.15802 0.0
H969 H 0.61686 0.71015 0.27084 0.0
H970 H 0.61727 0.73609 0.24656 0.0
C971 C 0.58848 0.81819 0.14413 0.0
C972 C 0.59924 0.77513 0.15976 0.0
H973 H 0.57047 0.74642 0.18789 0.0
C974 C 0.61635 0.76813 0.16793 0.0
C975 C 0.58254 0.76688 0.16655 0.0
C976 C 0.56367 0.77293 0.15657 0.0
C977 C 0.6172 0.75342 0.18299 0.0
C978 C 0.60045 0.7455 0.19099 0.0
C979 C 0.58338 0.75242 0.18236 0.0
C980 C 0.60018 0.72971 0.20675 0.0
C981 C 0.63612 0.74637 0.18938 0.0
C982 C 0.58982 0.71743 0.19359 0.0
C983 C 0.58919 0.70269 0.20784 0.0
C984 C 0.59904 0.69953 0.23578 0.0
C985 C 0.60911 0.71194 0.24939 0.0
C986 C 0.6096 0.72682 0.23517 0.0
H987 H 0.64703 0.75147 0.17399 0.0
H988 H 0.64012 0.74881 0.21399 0.0
H989 H 0.63596 0.73353 0.18591 0.0
H990 H 0.5822 0.71921 0.17198 0.0
H991 H 0.58075 0.69376 0.19686 0.0
H992 H 0.7108 0.59397 0.81049 0.0
H993 H 0.73824 0.59664 0.84453 0.0
H994 H 0.70242 0.59555 0.92567 0.0
H995 H 0.67509 0.59225 0.89152 0.0
H996 H 0.75078 0.6168 0.88676 0.0
H997 H 0.73729 0.56099 0.94807 0.0
H998 H 0.72432 0.56683 0.91389 0.0
H999 H 0.71836 0.57456 0.95181 0.0
C1000 C 0.70882 0.59443 0.83561 0.0
C1001 C 0.69083 0.59271 0.84837 0.0
C1002 C 0.72452 0.59594 0.85512 0.0
C1003 C 0.72266 0.59585 0.88795 0.0
C1004 C 0.70448 0.59513 0.90058 0.0
H1005 H 0.80338 0.59669 0.04297 0.0
H1006 H 0.77542 0.59942 1.01002 0.0
C1007 C 0.68879 0.59347 0.88104 0.0
C1008 C 0.7397 0.59616 0.90868 0.0
H1009 H 0.76181 0.57658 0.96815 0.0
C1010 C 0.75316 0.60796 0.90449 0.0
C1011 C 0.7431 0.58461 0.93188 0.0
C1012 C 0.73011 0.57095 0.93653 0.0
C1013 C 0.76953 0.60866 0.92292 0.0
C1014 C 0.7728 0.5972 0.94622 0.0
C1015 C 0.75935 0.58546 0.95052 0.0
C1016 C 0.79015 0.59696 0.96606 0.0
C1017 C 0.7831 0.62185 0.91764 0.0
C1018 C 0.80792 0.59484 0.95258 0.0
C1019 C 0.82391 0.59324 0.97147 0.0
C1020 C 0.82252 0.59376 1.00427 0.0
C1021 C 0.80488 0.59638 0.01775 0.0
C1022 C 0.78888 0.59785 0.9989 0.0
H1023 H 0.77655 0.6317 0.90476 0.0
H1024 H 0.78865 0.62627 0.94023 0.0
H1025 H 0.79504 0.61752 0.90354 0.0
H1026 H 0.80936 0.59382 0.92743 0.0
H1027 H 0.83729 0.59102 0.96049 0.0
H1028 H 0.38818 0.32593 0.20986 0.0
H1029 H 0.38727 0.30019 0.18507 0.0
H1030 H 0.4334 0.28529 0.24267 0.0
H1031 H 0.43364 0.31082 0.26857 0.0
H1032 H 0.40967 0.28576 0.14966 0.0
H1033 H 0.40233 0.24803 0.25368 0.0
H1034 H 0.40017 0.26894 0.25606 0.0
H1035 H 0.42288 0.25984 0.25629 0.0
C1036 C 0.39791 0.31706 0.21765 0.0
C1037 C 0.41084 0.32044 0.24154 0.0
C1038 C 0.39746 0.3023 0.20329 0.0
C1039 C 0.41007 0.29044 0.21204 0.0
C1040 C 0.42304 0.29385 0.23594 0.0
H1041 H 0.43382 0.21068 0.08617 0.0
H1042 H 0.43324 0.23617 0.11222 0.0
C1043 C 0.42324 0.30854 0.25076 0.0
C1044 C 0.41007 0.27492 0.19515 0.0
H1045 H 0.41079 0.23527 0.20614 0.0
C1046 C 0.40978 0.27474 0.16216 0.0
C1047 C 0.40993 0.26034 0.21099 0.0
C1048 C 0.40864 0.25927 0.24618 0.0
C1049 C 0.40948 0.26068 0.14483 0.0
C1050 C 0.41026 0.24611 0.16065 0.0
C1051 C 0.41041 0.24628 0.19364 0.0
C1052 C 0.41048 0.23059 0.14375 0.0
C1053 C 0.40767 0.26172 0.10971 0.0
C1054 C 0.39834 0.2185 0.15296 0.0
C1055 C 0.39899 0.20377 0.13852 0.0
C1056 C 0.41166 0.20064 0.11408 0.0
C1057 C 0.42361 0.21275 0.10443 0.0
C1058 C 0.42322 0.22743 0.11933 0.0
H1059 H 0.40095 0.27284 0.10247 0.0
H1060 H 0.42179 0.26141 0.09903 0.0
H1061 H 0.39935 0.25189 0.10016 0.0
H1062 H 0.38834 0.22042 0.1716 0.0
H1063 H 0.38961 0.19473 0.14664 0.0
H1064 H 0.80243 0.92722 0.31032 0.0
H1065 H 0.77498 0.92463 0.34441 0.0
H1066 H 0.81081 0.92559 0.42548 0.0
H1067 H 0.83815 0.92882 0.39128 0.0
H1068 H 0.76221 0.90464 0.38661 0.0
H1069 H 0.77629 0.96033 0.44794 0.0
H1070 H 0.78923 0.95439 0.41377 0.0
H1071 H 0.79508 0.94664 0.45171 0.0
C1072 C 0.80441 0.92672 0.33543 0.0
C1073 C 0.82241 0.92839 0.34816 0.0
C1074 C 0.7887 0.92527 0.35498 0.0
C1075 C 0.79057 0.92537 0.3878 0.0
C1076 C 0.80875 0.92601 0.4004 0.0
H1077 H 0.70968 0.92502 0.54276 0.0
H1078 H 0.73763 0.92191 0.50985 0.0
C1079 C 0.82445 0.92763 0.38083 0.0
C1080 C 0.77353 0.92518 0.40856 0.0
H1081 H 0.75162 0.94491 0.46807 0.0
C1082 C 0.75994 0.91349 0.40436 0.0
C1083 C 0.77026 0.93675 0.43177 0.0
C1084 C 0.78338 0.95032 0.43641 0.0
C1085 C 0.74354 0.91292 0.42278 0.0
C1086 C 0.74041 0.92439 0.4461 0.0
C1087 C 0.75399 0.93603 0.45043 0.0
C1088 C 0.72304 0.92479 0.46589 0.0
C1089 C 0.7298 0.89987 0.41746 0.0
C1090 C 0.70535 0.92727 0.45237 0.0
C1091 C 0.68937 0.92909 0.47124 0.0
C1092 C 0.69069 0.92841 0.50403 0.0
C1093 C 0.70823 0.92542 0.51753 0.0
C1094 C 0.72423 0.92374 0.49872 0.0
H1095 H 0.73618 0.89001 0.40439 0.0
H1096 H 0.72426 0.89544 0.44005 0.0
H1097 H 0.71786 0.90436 0.40354 0.0
H1098 H 0.70399 0.92842 0.42724 0.0
H1099 H 0.67608 0.93162 0.46024 0.0
H1100 H 0.12493 0.32592 0.64503 0.0
H1101 H 0.12597 0.30024 0.67009 0.0
H1102 H 0.08048 0.28488 0.61164 0.0
H1103 H 0.08012 0.31035 0.58548 0.0
H1104 H 0.10351 0.2857 0.70514 0.0
H1105 H 0.11209 0.24783 0.60159 0.0
H1106 H 0.11401 0.26875 0.59908 0.0
H1107 H 0.09141 0.25949 0.59845 0.0
C1108 C 0.11537 0.31696 0.63712 0.0
C1109 C 0.1026 0.32019 0.61291 0.0
C1110 C 0.1159 0.30223 0.65162 0.0
C1111 C 0.10351 0.29027 0.64272 0.0
C1112 C 0.09068 0.29353 0.61851 0.0
H1113 H 0.07977 0.21059 0.76869 0.0
H1114 H 0.08027 0.23604 0.7425 0.0
C1115 C 0.09041 0.30819 0.60354 0.0
C1116 C 0.10358 0.27477 0.65973 0.0
H1117 H 0.10341 0.23511 0.64904 0.0
C1118 C 0.10363 0.27466 0.69272 0.0
C1119 C 0.10401 0.26017 0.64401 0.0
C1120 C 0.10559 0.25904 0.60886 0.0
C1121 C 0.10397 0.26064 0.71017 0.0
C1122 C 0.10348 0.24603 0.69445 0.0
C1123 C 0.10357 0.24614 0.66146 0.0
C1124 C 0.10331 0.23054 0.71146 0.0
C1125 C 0.1055 0.26176 0.74532 0.0
C1126 C 0.11565 0.21851 0.70258 0.0
C1127 C 0.11504 0.20379 0.7171 0.0
C1128 C 0.10223 0.20063 0.7413 0.0
C1129 C 0.09009 0.21269 0.75063 0.0
C1130 C 0.09044 0.22735 0.73565 0.0
H1131 H 0.11205 0.27293 0.75261 0.0
H1132 H 0.09131 0.26138 0.75571 0.0
H1133 H 0.11386 0.252 0.75512 0.0
H1134 H 0.12576 0.22045 0.68413 0.0
H1135 H 0.12458 0.19479 0.70922 0.0
H1136 H 0.07585 0.04308 0.35731 0.0
H1137 H 0.04813 0.0263 0.36075 0.0
H1138 H 0.03122 0.0412 0.26861 0.0
H1139 H 0.05891 0.05802 0.26527 0.0
H1140 H 1.00117 0.03887 0.31146 0.0
H1141 H 0.04471 0.98521 0.31132 0.0
H1142 H 0.05024 0.99892 0.34173 0.0
H1143 H 0.05399 1.00417 0.3015 0.0
C1144 C 0.06592 0.04305 0.33819 0.0
C1145 C 0.06928 0.05206 0.3113 0.0
C1146 C 0.05023 0.03332 0.33998 0.0
C1147 C 0.03771 0.03227 0.31473 0.0
C1148 C 0.04065 0.04179 0.28838 0.0
H1149 H 0.9552 0.9619 0.26603 0.0
H1150 H 0.9831 0.97846 0.26983 0.0
C1151 C 0.05637 0.05151 0.28658 0.0
C1152 C 0.02198 0.02085 0.31522 0.0
H1153 H 0.01214 0.98176 0.31818 0.0
C1154 C 1.00357 0.0264 0.31304 0.0
C1155 C 0.0251 1.00452 0.31678 0.0
C1156 C 0.04456 0.99778 0.31768 0.0
C1157 C 0.98825 0.01611 0.31281 0.0
C1158 C 0.99136 0.99982 0.31507 0.0
C1159 C 0.00976 0.99425 0.31683 0.0
C1160 C 0.97563 0.98843 0.31464 0.0
C1161 C 0.96882 0.02272 0.3095 0.0
C1162 C 0.9625 0.98809 0.33907 0.0
C1163 C 0.94675 0.97844 0.33716 0.0
C1164 C 0.94385 0.9689 0.31085 0.0
C1165 C 0.95736 0.96879 0.28697 0.0
C1166 C 0.97318 0.97837 0.28898 0.0
H1167 H 0.96901 0.03509 0.30171 0.0
H1168 H 0.96054 0.01578 0.2925 0.0
H1169 H 0.96162 0.02216 0.33248 0.0
H1170 H 0.96416 0.99564 0.35921 0.0
H1171 H 0.93636 0.97894 0.35558 0.0
H1172 H 0.94313 0.55504 0.51694 0.0
H1173 H 0.96045 0.53022 0.51706 0.0
H1174 H 1.00415 0.55158 0.57149 0.0
H1175 H 0.98681 0.57601 0.57243 0.0
H1176 H 0.99591 0.52317 0.49418 0.0
H1177 H 0.99354 0.51265 0.62193 0.0
H1178 H 0.97897 0.527 0.603 0.0
H1179 H 1.00289 0.53145 0.61225 0.0
C1180 C 0.9563 0.55438 0.52928 0.0
C1181 C 0.96355 0.56764 0.54451 0.0
C1182 C 0.96628 0.54021 0.52914 0.0
C1183 C 0.98358 0.53891 0.54457 0.0
C1184 C 0.99074 0.55211 0.55984 0.0
H1185 H 0.06917 0.46601 0.51709 0.0
H1186 H 0.05158 0.49066 0.51684 0.0
C1187 C 0.98085 0.5662 0.56 0.0
C1188 C 0.99441 0.52395 0.54446 0.0
H1189 H 0.01506 0.49718 0.59281 0.0
C1190 C 1.00001 0.51744 0.51574 0.0
C1191 C 0.99969 0.51633 0.57255 0.0
C1192 C 0.99331 0.52212 0.60417 0.0
C1193 C 0.01094 0.50373 0.51438 0.0
C1194 C 0.01676 0.49643 0.54252 0.0
C1195 C 0.0109 0.50283 0.57119 0.0
C1196 C 0.02799 0.48165 0.54291 0.0
C1197 C 0.01578 0.49703 0.48275 0.0
C1198 C 0.02107 0.46849 0.55861 0.0
C1199 C 0.03119 0.45451 0.55917 0.0
C1200 C 0.0486 0.4532 0.54397 0.0
C1201 C 0.05582 0.46653 0.52896 0.0
C1202 C 0.04564 0.4806 0.52846 0.0
H1203 H 1.0064 0.50154 0.46412 0.0
H1204 H 0.03029 0.50036 0.47661 0.0
H1205 H 0.01491 0.48409 0.48299 0.0
H1206 H 0.00764 0.46895 0.57027 0.0
H1207 H 0.02531 0.44469 0.5717 0.0
H1208 H 0.45611 0.46077 0.77119 0.0
H1209 H 0.48401 0.47726 0.77546 0.0
H1210 H 0.46318 0.49631 0.8621 0.0
H1211 H 0.4354 0.47962 0.85807 0.0
H1212 H 0.47351 0.51908 0.81545 0.0
H1213 H 0.52977 0.47561 0.83594 0.0
H1214 H 0.51416 0.47128 0.80414 0.0
H1215 H 0.50546 0.47146 0.84355 0.0
C1216 C 0.45786 0.46802 0.79174 0.0
C1217 C 0.44386 0.46859 0.81478 0.0
C1218 C 0.47373 0.47755 0.79405 0.0
C1219 C 0.4758 0.48796 0.81925 0.0
C1220 C 0.46197 0.48831 0.84257 0.0
H1221 H 0.57619 0.54241 0.85991 0.0
H1222 H 0.54819 0.52598 0.86386 0.0
C1223 C 0.4462 0.47869 0.84041 0.0
C1224 C 0.49169 0.49921 0.82016 0.0
H1225 H 0.53926 0.50152 0.82478 0.0
C1226 C 0.48789 0.51525 0.81764 0.0
C1227 C 0.51043 0.49424 0.82323 0.0
C1228 C 0.5153 0.47722 0.82713 0.0
C1229 C 0.50232 0.52642 0.81754 0.0
C1230 C 0.52113 0.52143 0.81978 0.0
C1231 C 0.52488 0.50539 0.82292 0.0
C1232 C 0.53714 0.53259 0.81861 0.0
C1233 C 0.49725 0.54348 0.81536 0.0
C1234 C 0.54022 0.54197 0.79208 0.0
C1235 C 0.55612 0.55146 0.78997 0.0
C1236 C 0.56926 0.55178 0.81437 0.0
C1237 C 0.56603 0.54265 0.84114 0.0
C1238 C 0.55013 0.53316 0.84325 0.0
H1239 H 0.48255 0.54561 0.82248 0.0
H1240 H 0.50656 0.5507 0.83026 0.0
H1241 H 0.49885 0.54741 0.79076 0.0
H1242 H 0.53071 0.54148 0.77241 0.0
H1243 H 0.55862 0.55797 0.76864 0.0
H1244 H 0.56566 0.96495 0.0779 0.0
H1245 H 0.54703 0.98903 0.07797 0.0
H1246 H 0.5187 0.97377 0.99439 0.0
H1247 H 0.53696 0.94964 0.99463 0.0
H1248 H 0.54218 0.01301 0.0388 0.0
H1249 H 0.47475 0.98213 0.05009 0.0
H1250 H 0.49686 0.9723 0.05443 0.0
H1251 H 0.48748 0.97608 1.01606 0.0
C1252 C 0.55564 0.96684 0.05931 0.0
C1253 C 0.55271 0.95529 0.03642 0.0
C1254 C 0.54488 0.98058 0.05946 0.0
C1255 C 0.53098 0.98311 0.03671 0.0
C1256 C 0.5288 0.97195 1.01287 0.0
H1257 H 0.47871 0.07305 0.99644 0.0
H1258 H 0.49698 0.04893 0.9957 0.0
C1259 C 0.53939 0.95818 1.01287 0.0
C1260 C 0.51875 0.99732 0.0379 0.0
H1261 H 0.47309 1.00926 0.0379 0.0
C1262 C 0.52708 0.01215 0.03872 0.0
C1263 C 0.49897 0.99634 0.03848 0.0
C1264 C 0.48898 0.98086 0.04006 0.0
C1265 C 0.51629 0.02593 0.03932 0.0
C1266 C 0.49652 0.02496 0.03823 0.0
C1267 C 0.48819 1.01011 0.03822 0.0
C1268 C 0.4843 0.03918 0.03732 0.0
C1269 C 0.52626 0.04138 0.0418 0.0
C1270 C 0.47018 0.04148 0.05983 0.0
C1271 C 0.45943 0.05522 0.05995 0.0
C1272 C 0.46257 0.067 0.0376 0.0
C1273 C 0.47611 0.06434 1.01429 0.0
C1274 C 0.4867 0.05058 1.014 0.0
H1275 H 0.5404 0.04 0.05213 0.0
H1276 H 0.52798 0.04641 0.01804 0.0
H1277 H 0.51825 0.04979 0.05632 0.0
H1278 H 0.46787 0.03284 0.07793 0.0
H1279 H 0.44922 0.05692 0.07834 0.0
H1280 H 0.07674 0.47908 0.99253 0.0
H1281 H 0.04914 0.49604 0.98872 0.0
H1282 H 0.03023 0.4795 0.07861 0.0
H1283 H 0.05784 0.46256 0.08238 0.0
H1284 H 1.00109 0.48282 0.03382 0.0
H1285 H 0.04484 0.53614 0.04163 0.0
H1286 H 0.0511 0.52298 1.0106 0.0
H1287 H 0.05373 0.51693 0.05062 0.0
C1288 C 0.0664 0.47879 1.01103 0.0
C1289 C 0.0692 0.4693 0.03744 0.0
C1290 C 0.05077 0.48861 1.00905 0.0
C1291 C 0.03772 0.48924 0.0336 0.0
C1292 C 0.04009 0.47924 0.05938 0.0
H1293 H 0.95592 0.56032 0.08247 0.0
H1294 H 0.9836 0.54348 0.07844 0.0
C1295 C 0.05575 0.46944 0.0614 0.0
C1296 C 0.02206 0.50077 0.03307 0.0
H1297 H 0.0125 0.53994 0.03305 0.0
C1298 C 1.00359 0.4953 0.03353 0.0
C1299 C 0.02529 0.51709 0.03322 0.0
C1300 C 0.04479 0.5237 0.03428 0.0
C1301 C 0.98831 0.50567 0.03376 0.0
C1302 C 0.99153 0.52199 0.03316 0.0
C1303 C 0.01001 0.52746 0.0331 0.0
C1304 C 0.97587 0.53351 0.03375 0.0
C1305 C 0.96882 0.49907 0.03539 0.0
C1306 C 0.96266 0.534 1.00944 0.0
C1307 C 0.94699 0.54376 1.01157 0.0
C1308 C 0.9443 0.55334 0.03788 0.0
C1309 C 0.95791 0.55337 0.06156 0.0
C1310 C 0.97362 0.54363 0.05939 0.0
H1311 H 0.96882 0.48667 0.04301 0.0
H1312 H 0.96 0.50592 0.05178 0.0
H1313 H 0.96233 0.49966 1.01184 0.0
H1314 H 0.9642 0.52648 0.98922 0.0
H1315 H 0.93653 0.54334 0.99329 0.0
H1316 H 0.44457 0.46536 0.34246 0.0
H1317 H 0.46223 0.49 0.34428 0.0
H1318 H 0.50216 0.4712 0.27885 0.0
H1319 H 0.4846 0.44685 0.2766 0.0
H1320 H 0.50056 0.49407 0.36236 0.0
H1321 H 0.48903 0.51364 0.24021 0.0
H1322 H 0.47479 0.49888 0.25862 0.0
H1323 H 0.49744 0.49395 0.2434 0.0
C1324 C 0.45696 0.46659 0.32814 0.0
C1325 C 0.46318 0.45407 0.3095 0.0
C1326 C 0.46712 0.48064 0.32934 0.0
C1327 C 0.48349 0.48255 0.31149 0.0
C1328 C 0.48948 0.47016 0.29252 0.0
H1329 H 0.56737 0.55509 0.28168 0.0
H1330 H 0.54947 0.5307 0.28262 0.0
C1331 C 0.47947 0.45615 0.29148 0.0
C1332 C 0.4948 0.4972 0.31335 0.0
H1333 H 0.51268 0.52685 0.26885 0.0
C1334 C 0.50307 0.50132 0.34198 0.0
C1335 C 0.49827 0.50661 0.28672 0.0
C1336 C 0.4893 0.50317 0.25554 0.0
C1337 C 0.51504 0.51433 0.34454 0.0
C1338 C 0.51856 0.52375 0.31787 0.0
C1339 C 0.51015 0.51965 0.28929 0.0
C1340 C 0.53048 0.5381 0.31916 0.0
C1341 C 0.52423 0.51756 0.37563 0.0
C1342 C 0.52601 0.55041 0.33956 0.0
C1343 C 0.53635 0.56428 0.33929 0.0
C1344 C 0.55135 0.56637 0.31833 0.0
C1345 C 0.55611 0.55388 0.29842 0.0
C1346 C 0.54574 0.53996 0.29873 0.0
H1347 H 0.52485 0.50691 0.39043 0.0
H1348 H 0.53862 0.52209 0.37247 0.0
H1349 H 0.51596 0.52646 0.38846 0.0
H1350 H 0.51414 0.54949 0.35515 0.0
H1351 H 0.53232 0.57355 0.35517 0.0
H1352 H 0.43658 0.04369 0.49542 0.0
H1353 H 0.46439 0.02698 0.49165 0.0
H1354 H 0.48324 0.04396 0.58121 0.0
H1355 H 0.45541 0.06063 0.58499 0.0
H1356 H 0.51235 0.04077 0.53555 0.0
H1357 H 0.46926 0.98716 0.54582 0.0
H1358 H 0.46261 1.00015 0.51473 0.0
H1359 H 0.46026 1.00634 0.5547 0.0
C1360 C 0.44695 0.04413 0.51386 0.0
C1361 C 0.44406 0.05367 0.54019 0.0
C1362 C 0.4627 0.03446 0.51189 0.0
C1363 C 0.47581 0.03403 0.53635 0.0
C1364 C 0.47335 0.04408 0.56204 0.0
H1365 H 0.5587 0.96405 0.58583 0.0
H1366 H 0.53094 0.9808 0.582 0.0
C1367 C 0.45755 0.05372 0.56406 0.0
C1368 C 0.49159 0.02265 0.53587 0.0
H1369 H 0.50159 0.98356 0.53693 0.0
C1370 C 0.51 0.02827 0.53573 0.0
C1371 C 0.48855 1.00631 0.53661 0.0
C1372 C 0.46912 0.99956 0.53826 0.0
C1373 C 0.52539 0.01802 0.53594 0.0
C1374 C 0.52235 1.00167 0.53599 0.0
C1375 C 0.50394 0.99606 0.53651 0.0
C1376 C 0.53813 0.99029 0.53664 0.0
C1377 C 0.54483 0.02478 0.53685 0.0
C1378 C 0.55108 0.98959 0.51194 0.0
C1379 C 0.56679 0.97987 0.51395 0.0
C1380 C 0.56978 0.97056 0.54055 0.0
C1381 C 0.55646 0.97079 0.56471 0.0
C1382 C 0.54071 0.98047 0.56265 0.0
H1383 H 0.54475 0.03726 0.5439 0.0
H1384 H 0.55382 0.01817 0.55337 0.0
H1385 H 0.55116 0.02395 0.5132 0.0
H1386 H 0.54928 0.99688 0.49145 0.0
H1387 H 0.57703 0.98009 0.49528 0.0
H1388 H 0.06736 0.05566 0.78257 0.0
H1389 H 0.04937 0.03128 0.78329 0.0
H1390 H 0.01343 0.05024 0.8547 0.0
H1391 H 0.03139 0.07446 0.85449 0.0
H1392 H 0.0405 1.00988 0.83281 0.0
H1393 H 0.97661 0.03776 0.78492 0.0
H1394 H 0.9992 0.04705 0.7835 0.0
H1395 H 0.98599 0.04696 0.81926 0.0
C1396 C 0.05583 0.05456 0.79882 0.0
C1397 C 0.05075 0.06718 0.81819 0.0
C1398 C 0.04545 0.04063 0.79904 0.0
C1399 C 0.02972 0.03902 0.81851 0.0
C1400 C 0.02517 0.05131 0.83886 0.0
H1401 H 0.94499 0.96545 0.8422 0.0
H1402 H 0.96304 0.98985 0.8451 0.0
C1403 C 0.03552 0.06518 0.83872 0.0
C1404 C 0.01797 0.0246 0.81742 0.0
H1405 H 0.97391 0.01142 0.80098 0.0
C1406 C 0.02596 1.01022 0.82574 0.0
C1407 C 0.99892 0.02499 0.80844 0.0
C1408 C 0.98965 0.03997 0.79825 0.0
C1409 C 0.01544 0.99632 0.82571 0.0
C1410 C 0.99644 0.99666 0.81631 0.0
C1411 C 0.98841 0.01108 0.80822 0.0
C1412 C 0.98493 0.98212 0.81375 0.0
C1413 C 0.02473 0.98144 0.83647 0.0
C1414 C 0.99078 0.96981 0.79439 0.0
C1415 C 0.98054 0.95593 0.79275 0.0
C1416 C 0.96401 0.95395 0.81019 0.0
C1417 C 0.95765 0.96654 0.82851 0.0
C1418 C 0.96801 0.98048 0.83027 0.0
H1419 H 0.03691 0.98387 0.8518 0.0
H1420 H 0.01481 0.97387 0.84942 0.0
H1421 H 0.02988 0.97492 0.81575 0.0
H1422 H 1.00337 0.9709 0.78053 0.0
H1423 H 0.98564 0.94666 0.77776 0.0
H1424 H 0.07517 0.08527 0.70484 0.0
H1425 H 0.08016 0.07402 0.65258 0.0
H1426 H 0.07785 0.12012 0.61223 0.0
H1427 H 0.07322 0.13136 0.66445 0.0
H1428 H 0.06203 0.07508 0.593 0.0
H1429 H 0.13095 0.10447 0.59184 0.0
H1430 H 0.11691 0.10286 0.62677 0.0
H1431 H 0.11171 0.11756 0.59802 0.0
C1432 C 0.07502 0.09289 0.6846 0.0
C1433 C 0.07355 0.10913 0.6885 0.0
C1434 C 0.07802 0.08649 0.65483 0.0
C1435 C 0.07975 0.09626 0.6286 0.0
C1436 C 0.07685 0.11239 0.63222 0.0
H1437 H 0.08563 0.07999 0.43173 0.0
H1438 H 0.07612 0.08317 0.48612 0.0
C1439 C 0.0739 0.11878 0.66195 0.0
C1440 C 0.08613 0.08985 0.59805 0.0
H1441 H 0.12115 0.09284 0.54408 0.0
C1442 C 0.075 0.07888 0.58235 0.0
C1443 C 0.10333 0.09445 0.58457 0.0
C1444 C 0.11653 0.10536 0.60127 0.0
C1445 C 0.0802 0.07297 0.55285 0.0
C1446 C 0.09685 0.07833 0.53849 0.0
C1447 C 0.10834 0.08877 0.55489 0.0
C1448 C 0.10192 0.07433 0.50562 0.0
C1449 C 0.06781 0.06103 0.53739 0.0
C1450 C 0.11966 0.06827 0.49819 0.0
C1451 C 0.12524 0.06655 0.46685 0.0
C1452 C 0.11323 0.07107 0.44247 0.0
C1453 C 0.09523 0.07648 0.45003 0.0
C1454 C 0.08969 0.07817 0.48117 0.0
H1455 H 0.05978 0.05426 0.55502 0.0
H1456 H 0.05761 0.0671 0.52208 0.0
H1457 H 0.07602 0.05277 0.52283 0.0
H1458 H 0.12941 0.06532 0.51665 0.0
H1459 H 0.13922 0.06247 0.46173 0.0
H1460 H 0.94045 0.63089 0.69117 0.0
H1461 H 0.93634 0.61894 0.74281 0.0
H1462 H 0.93303 0.57349 0.6998 0.0
H1463 H 0.93724 0.58549 0.64807 0.0
H1464 H 0.9021 0.58101 0.73658 0.0
H1465 H 0.96743 0.59169 0.80253 0.0
H1466 H 0.95844 0.60877 0.78338 0.0
H1467 H 0.96633 0.5925 0.7603 0.0
C1468 C 0.93977 0.61829 0.69294 0.0
C1469 C 0.9396 0.60906 0.66578 0.0
C1470 C 0.9373 0.61146 0.72243 0.0
C1471 C 0.93452 0.59528 0.72527 0.0
C1472 C 0.9353 0.58596 0.69824 0.0
H1473 H 0.91365 0.55357 0.91115 0.0
H1474 H 0.92487 0.55649 0.85694 0.0
C1475 C 0.93788 0.59279 0.66876 0.0
C1476 C 0.92845 0.58848 0.7557 0.0
H1477 H 0.94024 0.58558 0.833 0.0
C1478 C 0.91058 0.58179 0.75756 0.0
C1479 C 0.9395 0.58939 0.78307 0.0
C1480 C 0.95907 0.59584 0.78227 0.0
C1481 C 0.90315 0.57667 0.78624 0.0
C1482 C 0.91382 0.57835 0.81388 0.0
C1483 C 0.93202 0.58435 0.81182 0.0
C1484 C 0.90578 0.5752 0.84536 0.0
C1485 C 0.88381 0.56975 0.78687 0.0
C1486 C 0.89115 0.58455 0.85663 0.0
C1487 C 0.88482 0.58293 0.8874 0.0
C1488 C 0.89289 0.57185 0.90754 0.0
C1489 C 0.90698 0.562 0.89591 0.0
C1490 C 0.91349 0.56376 0.86511 0.0
H1491 H 0.87957 0.56538 0.76344 0.0
H1492 H 0.88296 0.56001 0.80395 0.0
H1493 H 0.87368 0.57888 0.7941 0.0
H1494 H 0.88516 0.59359 0.84201 0.0
H1495 H 0.87408 0.59078 0.89592 0.0
H1496 H 0.44007 0.39056 0.16197 0.0
H1497 H 0.43583 0.40246 0.11031 0.0
H1498 H 0.43224 0.44793 0.1532 0.0
H1499 H 0.43663 0.43598 0.20495 0.0
H1500 H 0.40127 0.44013 0.11637 0.0
H1501 H 0.46688 0.42993 0.05066 0.0
H1502 H 0.45805 0.41284 0.06999 0.0
H1503 H 0.46572 0.42922 0.0929 0.0
C1504 C 0.4393 0.40315 0.16017 0.0
C1505 C 0.43912 0.41241 0.1873 0.0
C1506 C 0.43675 0.40996 0.13067 0.0
C1507 C 0.43386 0.42612 0.12779 0.0
C1508 C 0.43459 0.43546 0.1548 0.0
H1509 H 0.41295 0.46809 0.94219 0.0
H1510 H 0.42406 0.46509 0.99643 0.0
C1511 C 0.43727 0.42867 0.18428 0.0
C1512 C 0.42775 0.43289 0.09736 0.0
H1513 H 0.43972 0.43601 0.02016 0.0
C1514 C 0.4098 0.43945 0.09544 0.0
C1515 C 0.43889 0.4321 0.07006 0.0
C1516 C 0.45853 0.42578 0.07094 0.0
C1517 C 0.40239 0.44456 0.06674 0.0
C1518 C 0.41316 0.44302 0.03916 0.0
C1519 C 0.43144 0.43714 0.04129 0.0
C1520 C 0.40518 0.4462 1.00765 0.0
C1521 C 0.38295 0.45133 0.06604 0.0
C1522 C 0.3907 0.43677 0.99618 0.0
C1523 C 0.38443 0.43844 0.96539 0.0
C1524 C 0.39242 0.44965 0.94543 0.0
C1525 C 0.40635 0.45956 0.95727 0.0
C1526 C 0.4128 0.45775 0.9881 0.0
H1527 H 0.37858 0.4556 0.08948 0.0
H1528 H 0.38202 0.46111 0.04905 0.0
H1529 H 0.37298 0.44214 0.05862 0.0
H1530 H 0.38479 0.42764 1.01065 0.0
H1531 H 0.37382 0.43055 0.95671 0.0
H1532 H 0.58628 0.94379 0.42205 0.0
H1533 H 0.57665 0.94028 0.36771 0.0
H1534 H 0.63038 0.95676 0.33647 0.0
H1535 H 0.64028 0.95999 0.39127 0.0
H1536 H 0.57393 0.95878 0.31457 0.0
H1537 H 0.62777 0.91248 0.30069 0.0
H1538 H 0.62188 0.92069 0.33829 0.0
H1539 H 0.63651 0.93135 0.31164 0.0
C1540 C 0.59597 0.94688 0.40358 0.0
C1541 C 0.61414 0.95194 0.41087 0.0
C1542 C 0.59042 0.94492 0.37252 0.0
C1543 C 0.6029 0.94794 0.34798 0.0
C1544 C 0.62063 0.95407 0.35506 0.0
H1545 H 0.57609 0.93768 0.14884 0.0
H1546 H 0.5807 0.94887 0.20115 0.0
C1547 C 0.62622 0.95606 0.38632 0.0
C1548 C 0.59768 0.94337 0.31551 0.0
H1549 H 0.60856 0.91755 0.25735 0.0
C1550 C 0.58157 0.94985 0.30191 0.0
C1551 C 0.60744 0.93149 0.29927 0.0
C1552 C 0.62427 0.92346 0.31322 0.0
C1553 C 0.57494 0.94474 0.27262 0.0
C1554 C 0.58479 0.93293 0.25635 0.0
C1555 C 0.60098 0.92658 0.26984 0.0
C1556 C 0.57864 0.92676 0.22544 0.0
C1557 C 0.55715 0.95166 0.2598 0.0
C1558 C 0.57552 0.91067 0.22165 0.0
C1559 C 0.5729 0.9043 0.19183 0.0
C1560 C 0.57326 0.91392 0.16524 0.0
C1561 C 0.57525 0.93011 0.16912 0.0
C1562 C 0.57796 0.93649 0.19898 0.0
H1563 H 0.54883 0.95751 0.27836 0.0
H1564 H 0.56068 0.96052 0.2418 0.0
H1565 H 0.54841 0.94255 0.24857 0.0
H1566 H 0.57608 0.90292 0.24167 0.0
H1567 H 0.57193 0.89174 0.18936 0.0
H1568 H 0.0743 0.43563 0.64795 0.0
H1569 H 0.07914 0.44764 0.69955 0.0
H1570 H 0.07783 0.40209 0.74242 0.0
H1571 H 0.07303 0.39012 0.6909 0.0
H1572 H 0.06014 0.42742 0.77877 0.0
H1573 H 0.13224 0.44077 0.73808 0.0
H1574 H 0.11336 0.4476 0.71394 0.0
H1575 H 0.11736 0.42702 0.71809 0.0
C1576 C 0.07427 0.42829 0.66861 0.0
C1577 C 0.073 0.412 0.66562 0.0
C1578 C 0.07725 0.43512 0.69798 0.0
C1579 C 0.07911 0.42573 0.72475 0.0
C1580 C 0.07641 0.40955 0.72208 0.0
H1581 H 0.13832 0.42951 0.89634 0.0
H1582 H 0.1269 0.4264 0.84274 0.0
C1583 C 0.07348 0.40272 0.69272 0.0
C1584 C 0.08584 0.43244 0.75481 0.0
H1585 H 0.12492 0.44709 0.79011 0.0
C1586 C 0.0742 0.43194 0.78122 0.0
C1587 C 0.1043 0.43812 0.75799 0.0
C1588 C 0.11766 0.43836 0.73066 0.0
C1589 C 0.08062 0.43675 0.81082 0.0
C1590 C 0.09915 0.44229 0.81404 0.0
C1591 C 0.11066 0.44303 0.78751 0.0
C1592 C 0.10743 0.44568 0.84524 0.0
C1593 C 0.06784 0.43522 0.83873 0.0
C1594 C 0.10085 0.45797 0.86408 0.0
C1595 C 0.10754 0.45987 0.89474 0.0
C1596 C 0.12083 0.44945 0.90698 0.0
C1597 C 0.1281 0.43771 0.88745 0.0
C1598 C 0.12154 0.4359 0.85688 0.0
H1599 H 0.055 0.42852 0.83311 0.0
H1600 H 0.07518 0.42934 0.85837 0.0
H1601 H 0.06363 0.44701 0.84681 0.0
H1602 H 0.09014 0.46578 0.85541 0.0
H1603 H 0.10158 0.4689 0.90941 0.0
H1604 H 0.57494 0.58346 0.2051 0.0
H1605 H 0.57983 0.57172 0.15325 0.0
H1606 H 0.57762 0.61742 0.11117 0.0
H1607 H 0.57277 0.62913 0.16292 0.0
H1608 H 0.5602 0.59205 0.07461 0.0
H1609 H 0.6327 0.57935 0.1142 0.0
H1610 H 0.61403 0.57223 0.13846 0.0
H1611 H 0.61765 0.59286 0.13459 0.0
C1612 C 0.57473 0.59088 0.18457 0.0
C1613 C 0.57319 0.60715 0.18784 0.0
C1614 C 0.57774 0.58421 0.15506 0.0
C1615 C 0.57935 0.59372 0.12842 0.0
C1616 C 0.57639 0.60986 0.13139 0.0
H1617 H 0.63803 0.59127 0.95605 0.0
H1618 H 0.62664 0.59414 1.00974 0.0
C1619 C 0.57344 0.61654 0.1609 0.0
C1620 C 0.58609 0.58722 0.09817 0.0
H1621 H 0.62531 0.5732 0.06214 0.0
C1622 C 0.57434 0.5877 0.07192 0.0
C1623 C 0.60464 0.58177 0.09467 0.0
C1624 C 0.61811 0.58157 0.12183 0.0
C1625 C 0.58074 0.58309 0.04215 0.0
C1626 C 0.59936 0.57779 0.0386 0.0
C1627 C 0.61099 0.57707 0.06498 0.0
C1628 C 0.60758 0.57462 1.00725 0.0
C1629 C 0.56782 0.5846 1.01442 0.0
C1630 C 0.6012 0.56228 0.98837 0.0
C1631 C 0.60787 0.56052 0.95765 0.0
C1632 C 0.62092 0.57113 0.94539 0.0
C1633 C 0.62797 0.58293 0.96494 0.0
C1634 C 0.62144 0.5846 0.99557 0.0
H1635 H 0.55486 0.5911 0.02031 0.0
H1636 H 0.57496 0.59066 0.99482 0.0
H1637 H 0.56384 0.57278 1.00616 0.0
H1638 H 0.59068 0.55431 0.99707 0.0
H1639 H 0.60208 0.55143 0.94298 0.0
H1640 H 0.41193 0.05311 0.41143 0.0
H1641 H 0.4233 0.05589 0.3573 0.0
H1642 H 0.38738 0.09578 0.34441 0.0
H1643 H 0.37602 0.09303 0.39813 0.0
H1644 H 0.38863 0.0747 0.2922 0.0
H1645 H 0.45912 0.09256 0.33365 0.0
H1646 H 0.45015 0.07429 0.34797 0.0
H1647 H 0.43905 0.09222 0.35922 0.0
C1648 C 0.40615 0.06221 0.39671 0.0
C1649 C 0.39311 0.07287 0.40892 0.0
C1650 C 0.4128 0.0639 0.36596 0.0
C1651 C 0.40642 0.07621 0.347 0.0
C1652 C 0.39258 0.08626 0.35864 0.0
H1653 H 0.44115 0.13054 0.19118 0.0
H1654 H 0.43637 0.11883 0.24295 0.0
C1655 C 0.38607 0.08466 0.3893 0.0
C1656 C 0.41461 0.07931 0.3156 0.0
H1657 H 0.45369 0.09349 0.27938 0.0
C1658 C 0.40294 0.07856 0.28928 0.0
C1659 C 0.43321 0.08459 0.31196 0.0
C1660 C 0.44616 0.0861 0.33963 0.0
C1661 C 0.40923 0.08323 0.25955 0.0
C1662 C 0.42777 0.08867 0.25595 0.0
C1663 C 0.43956 0.08916 0.28215 0.0
C1664 C 0.43445 0.09515 0.22566 0.0
C1665 C 0.39572 0.08302 0.23245 0.0
C1666 C 0.43593 0.08564 0.19898 0.0
C1667 C 0.4389 0.09232 0.16946 0.0
C1668 C 0.44053 0.10858 0.16622 0.0
C1669 C 0.44041 0.11795 0.19319 0.0
C1670 C 0.4375 0.11128 0.2227 0.0
H1671 H 0.38113 0.08087 0.24018 0.0
H1672 H 0.39618 0.09427 0.21957 0.0
H1673 H 0.39973 0.07361 0.21591 0.0
H1674 H 0.43378 0.07316 0.20078 0.0
H1675 H 0.43858 0.08491 0.14892 0.0
H1676 H 0.93987 0.88968 0.66271 0.0
H1677 H 0.93572 0.90077 0.61032 0.0
H1678 H 0.93337 0.94699 0.65016 0.0
H1679 H 0.93801 0.93588 0.70252 0.0
H1680 H 0.90398 0.9163 0.59456 0.0
H1681 H 0.96519 0.95439 0.57262 0.0
H1682 H 0.96505 0.93961 0.60275 0.0
H1683 H 0.95354 0.95798 0.60916 0.0
C1684 C 0.93939 0.90225 0.66005 0.0
C1685 C 0.93971 0.91198 0.68648 0.0
C1686 C 0.93676 0.90858 0.63018 0.0
C1687 C 0.93432 0.92474 0.62618 0.0
C1688 C 0.93561 0.93455 0.65246 0.0
H1689 H 0.87357 0.95924 0.4603 0.0
H1690 H 0.88337 0.95577 0.5151 0.0
C1691 C 0.93832 0.92821 0.68236 0.0
C1692 C 0.92832 0.931 0.59524 0.0
H1693 H 0.94 0.9564 0.5367 0.0
C1694 C 0.91186 0.92508 0.58192 0.0
C1695 C 0.93857 0.94248 0.57878 0.0
C1696 C 0.95666 0.94892 0.59136 0.0
C1697 C 0.90552 0.93009 0.55248 0.0
C1698 C 0.91568 0.94166 0.53606 0.0
C1699 C 0.93206 0.94772 0.54949 0.0
C1700 C 0.91057 0.94631 0.50357 0.0
C1701 C 0.88838 0.9225 0.53871 0.0
C1702 C 0.92295 0.94301 0.47902 0.0
C1703 C 0.91746 0.94511 0.44796 0.0
C1704 C 0.89945 0.9506 0.44068 0.0
C1705 C 0.8875 0.95498 0.46524 0.0
C1706 C 0.89303 0.95285 0.4965 0.0
H1707 H 0.88454 0.91162 0.55131 0.0
H1708 H 0.87642 0.93069 0.54037 0.0
H1709 H 0.89059 0.91964 0.51363 0.0
H1710 H 0.93658 0.93806 0.48382 0.0
H1711 H 0.92706 0.94183 0.42949 0.0
H1712 H 0.08706 0.10491 0.89892 0.0
H1713 H 0.09348 0.09766 0.95349 0.0
H1714 H 0.0998 0.14626 0.97731 0.0
H1715 H 0.09327 0.15349 0.92256 0.0
H1716 H 0.12993 0.12652 0.99778 0.0
H1717 H 0.06143 0.10222 0.03351 0.0
H1718 H 0.07046 0.09462 0.99734 0.0
H1719 H 0.0641 0.11487 0.99998 0.0
C1720 C 0.08926 0.11404 0.91606 0.0
C1721 C 0.08915 0.12977 0.90672 0.0
C1722 C 0.093 0.1099 0.94724 0.0
C1723 C 0.09694 0.12139 0.96981 0.0
C1724 C 0.09665 0.13716 0.96052 0.0
H1725 H 0.1369 0.11502 0.16526 0.0
H1726 H 0.12905 0.1242 0.11254 0.0
C1727 C 0.09273 0.14131 0.92933 0.0
C1728 C 0.10238 0.11685 1.00248 0.0
H1729 H 0.08689 0.09764 0.06776 0.0
C1730 C 0.12047 0.12031 1.01319 0.0
C1731 C 0.09015 0.10863 0.02264 0.0
C1732 C 0.07039 0.10496 1.013 0.0
C1733 C 0.1268 0.11544 0.04296 0.0
C1734 C 0.11456 0.10719 0.06319 0.0
C1735 C 0.09639 0.1039 0.0525 0.0
C1736 C 0.12029 0.1016 0.0952 0.0
C1737 C 0.1468 0.11868 0.05184 0.0
C1738 C 0.11783 0.08587 0.10368 0.0
C1739 C 0.12213 0.08064 0.13398 0.0
C1740 C 0.12908 0.09097 0.15684 0.0
C1741 C 0.13192 0.10666 0.1482 0.0
C1742 C 0.12743 0.11193 0.1179 0.0
H1743 H 0.15567 0.12065 0.03086 0.0
H1744 H 0.14736 0.12941 0.06635 0.0
H1745 H 0.15284 0.1089 0.06555 0.0
H1746 H 0.11239 0.07759 0.08684 0.0
H1747 H 0.11985 0.06847 0.13961 0.0
H1748 H 0.91803 0.65348 0.4323 0.0
H1749 H 0.91113 0.64611 0.37783 0.0
H1750 H 0.92143 0.59784 0.40068 0.0
H1751 H 0.9277 0.6052 0.45517 0.0
H1752 H 0.92926 0.63203 0.33048 0.0
H1753 H 0.87007 0.59434 0.3649 0.0
H1754 H 0.88161 0.60708 0.39232 0.0
H1755 H 0.89151 0.58833 0.38284 0.0
C1756 C 0.91919 0.64135 0.42541 0.0
C1757 C 0.92365 0.62993 0.44783 0.0
C1758 C 0.91511 0.63711 0.39432 0.0
C1759 C 0.91526 0.62133 0.385 0.0
C1760 C 0.92064 0.61003 0.4072 0.0
H1761 H 0.897 0.56985 0.21183 0.0
H1762 H 0.90417 0.57874 0.26496 0.0
C1763 C 0.92454 0.61426 0.43828 0.0
C1764 C 0.90945 0.61665 0.35244 0.0
H1765 H 0.87999 0.59248 0.31177 0.0
C1766 C 0.91838 0.62347 0.32647 0.0
C1767 C 0.89512 0.60554 0.34682 0.0
C1768 C 0.88389 0.59852 0.37318 0.0
C1769 C 0.91383 0.61918 0.29545 0.0
C1770 C 0.89984 0.60782 0.28995 0.0
C1771 C 0.89078 0.60112 0.31583 0.0
C1772 C 0.89476 0.60244 0.2576 0.0
C1773 C 0.92441 0.62653 0.26873 0.0
C1774 C 0.8866 0.61265 0.23568 0.0
C1775 C 0.88233 0.60754 0.20518 0.0
C1776 C 0.88623 0.59211 0.19572 0.0
C1777 C 0.89397 0.58185 0.21803 0.0
C1778 C 0.89806 0.58691 0.24854 0.0
H1779 H 0.93716 0.63268 0.27686 0.0
H1780 H 0.92849 0.61757 0.25123 0.0
H1781 H 0.91527 0.63516 0.25684 0.0
H1782 H 0.88363 0.62462 0.24211 0.0
H1783 H 0.87651 0.61582 0.1887 0.0
H1784 H 0.39628 0.45201 0.64094 0.0
H1785 H 0.40353 0.44316 0.58789 0.0
H1786 H 0.38461 0.3969 0.61161 0.0
H1787 H 0.37692 0.40582 0.66458 0.0
H1788 H 0.42799 0.42267 0.56767 0.0
H1789 H 0.35833 0.40195 0.5302 0.0
H1790 H 0.36164 0.41322 0.5654 0.0
H1791 H 0.36626 0.39255 0.56525 0.0
C1792 C 0.39347 0.43997 0.63483 0.0
C1793 C 0.38591 0.42967 0.6572 0.0
C1794 C 0.39766 0.4349 0.60435 0.0
C1795 C 0.39447 0.41935 0.5952 0.0
C1796 C 0.38678 0.40905 0.61746 0.0
H1797 H 0.41978 0.36798 0.42117 0.0
H1798 H 0.4135 0.37508 0.47608 0.0
C1799 C 0.3824 0.41417 0.64792 0.0
C1800 C 0.39996 0.41391 0.56293 0.0
H1801 H 0.38383 0.39552 0.49693 0.0
C1802 C 0.41825 0.4168 0.55226 0.0
C1803 C 0.3874 0.40617 0.54244 0.0
C1804 C 0.36727 0.40342 0.55124 0.0
C1805 C 0.42428 0.41215 0.52219 0.0
C1806 C 0.41174 0.40441 0.50183 0.0
C1807 C 0.39353 0.40135 0.51251 0.0
C1808 C 0.41701 0.39992 0.46902 0.0
C1809 C 0.44415 0.4154 0.51256 0.0
C1810 C 0.42124 0.41143 0.44664 0.0
C1811 C 0.42483 0.40736 0.41535 0.0
C1812 C 0.42451 0.39168 0.40571 0.0
C1813 C 0.42065 0.38011 0.42815 0.0
C1814 C 0.41687 0.38419 0.45944 0.0
H1815 H 0.45321 0.41788 0.53307 0.0
H1816 H 0.4501 0.40537 0.49943 0.0
H1817 H 0.44442 0.42576 0.49697 0.0
H1818 H 0.42112 0.42365 0.45312 0.0
H1819 H 0.42726 0.41653 0.39836 0.0
H1820 H 0.65556 0.92895 0.71009 0.0
H1821 H 0.64896 0.91924 0.76298 0.0
H1822 H 0.59006 0.91952 0.74263 0.0
H1823 H 0.59649 0.92824 0.68965 0.0
H1824 H 0.63047 0.93142 0.81087 0.0
H1825 H 0.59433 0.8769 0.77859 0.0
H1826 H 0.60689 0.88845 0.7503 0.0
H1827 H 0.5833 0.89349 0.76097 0.0
C1828 C 0.64121 0.9267 0.71663 0.0
C1829 C 0.62662 0.92954 0.69521 0.0
C1830 C 0.63743 0.92123 0.7471 0.0
C1831 C 0.61898 0.91833 0.75698 0.0
C1832 C 0.60444 0.92123 0.73569 0.0
H1833 H 0.58238 0.91512 0.95299 0.0
H1834 H 0.58876 0.92227 0.89833 0.0
C1835 C 0.60819 0.92656 0.7053 0.0
C1836 C 0.61476 0.91282 0.78969 0.0
H1837 H 0.59007 0.88559 0.83144 0.0
C1838 C 0.62174 0.92133 0.81528 0.0
C1839 C 0.60362 0.89947 0.79588 0.0
C1840 C 0.59678 0.88896 0.76997 0.0
C1841 C 0.61753 0.91718 0.84648 0.0
C1842 C 0.60551 0.90436 0.8526 0.0
C1843 C 0.59897 0.89559 0.82704 0.0
C1844 C 0.59994 0.89968 0.88525 0.0
C1845 C 0.62642 0.92642 0.87258 0.0
C1846 C 0.60293 0.88433 0.89598 0.0
C1847 C 0.59882 0.88015 0.92707 0.0
C1848 C 0.59154 0.89121 0.94811 0.0
C1849 C 0.58783 0.90635 0.93716 0.0
C1850 C 0.59178 0.91049 0.90602 0.0
H1851 H 0.63937 0.93233 0.86463 0.0
H1852 H 0.61654 0.93558 0.88056 0.0
H1853 H 0.6299 0.91884 0.89284 0.0
H1854 H 0.60908 0.87568 0.88061 0.0
H1855 H 0.60207 0.86847 0.93508 0.0
H1856 H 0.08091 0.41457 0.45289 0.0
H1857 H 0.08665 0.42163 0.39799 0.0
H1858 H 0.10555 0.3747 0.3795 0.0
H1859 H 0.09913 0.36759 0.43414 0.0
H1860 H 0.11805 0.42282 0.36698 0.0
H1861 H 0.07297 0.38055 0.30508 0.0
H1862 H 0.07137 0.38367 0.34673 0.0
H1863 H 0.08916 0.37108 0.33084 0.0
C1864 C 0.08572 0.40567 0.43676 0.0
C1865 C 0.0891 0.39044 0.44752 0.0
C1866 C 0.08921 0.40973 0.40543 0.0
C1867 C 0.09634 0.3987 0.38407 0.0
C1868 C 0.09955 0.38339 0.39491 0.0
H1869 H 0.1533 0.42809 0.20947 0.0
H1870 H 0.14652 0.41885 0.26253 0.0
C1871 C 0.09587 0.37929 0.4262 0.0
C1872 C 0.10135 0.40348 0.35118 0.0
H1873 H 0.09525 0.39409 0.27389 0.0
C1874 C 0.11296 0.41654 0.34666 0.0
C1875 C 0.09469 0.39549 0.32434 0.0
C1876 C 0.08121 0.38202 0.32691 0.0
C1877 C 0.11808 0.42176 0.31648 0.0
C1878 C 0.11192 0.41345 0.28967 0.0
C1879 C 0.10025 0.40042 0.2942 0.0
C1880 C 0.11649 0.41852 0.25676 0.0
C1881 C 0.12955 0.43645 0.31377 0.0
C1882 C 0.10208 0.4208 0.23493 0.0
C1883 C 0.10595 0.42572 0.2043 0.0
C1884 C 0.1244 0.42869 0.1943 0.0
C1885 C 0.13891 0.42603 0.21599 0.0
C1886 C 0.13501 0.42093 0.24668 0.0
H1887 H 0.12846 0.44376 0.33518 0.0
H1888 H 0.14445 0.43327 0.31064 0.0
H1889 H 0.1251 0.44358 0.29338 0.0
H1890 H 0.08768 0.41891 0.24166 0.0
H1891 H 0.09432 0.42708 0.18836 0.0
H1892 H 0.65382 0.59227 0.64283 0.0
H1893 H 0.64708 0.60186 0.58993 0.0
H1894 H 0.58829 0.60232 0.61123 0.0
H1895 H 0.59488 0.59376 0.66426 0.0
H1896 H 0.62834 0.58983 0.54248 0.0
H1897 H 0.5928 0.64473 0.57462 0.0
H1898 H 0.60532 0.63313 0.6029 0.0
H1899 H 0.58165 0.62827 0.59246 0.0
C1900 C 0.63947 0.59466 0.63652 0.0
C1901 C 0.62496 0.59209 0.65825 0.0
C1902 C 0.6356 0.60005 0.60602 0.0
C1903 C 0.61714 0.60314 0.59639 0.0
C1904 C 0.60269 0.60047 0.61796 0.0
H1905 H 0.58059 0.60642 0.40022 0.0
H1906 H 0.58673 0.59927 0.45494 0.0
C1907 C 0.60652 0.59523 0.64839 0.0
C1908 C 0.61285 0.6086 0.56366 0.0
H1909 H 0.58837 0.63599 0.52188 0.0
C1910 C 0.6197 0.59999 0.53806 0.0
C1911 C 0.60183 0.62204 0.55744 0.0
C1912 C 0.59516 0.63266 0.58331 0.0
C1913 C 0.61549 0.60414 0.50685 0.0
C1914 C 0.60359 0.61706 0.50072 0.0
C1915 C 0.59717 0.62592 0.52628 0.0
C1916 C 0.59807 0.62178 0.46805 0.0
C1917 C 0.62426 0.5948 0.48076 0.0
C1918 C 0.60119 0.63711 0.4573 0.0
C1919 C 0.59719 0.64129 0.42618 0.0
C1920 C 0.58991 0.63028 0.40511 0.0
C1921 C 0.58603 0.61517 0.41608 0.0
C1922 C 0.58986 0.61102 0.44726 0.0
H1923 H 0.63717 0.58877 0.4887 0.0
H1924 H 0.6143 0.58571 0.47286 0.0
H1925 H 0.62782 0.60232 0.46047 0.0
H1926 H 0.60738 0.64571 0.47269 0.0
H1927 H 0.60058 0.65294 0.41817 0.0
H1928 H 0.3957 0.06978 0.71344 0.0
H1929 H 0.4029 0.0786 0.76651 0.0
H1930 H 0.38423 0.12495 0.7427 0.0
H1931 H 0.3766 0.11606 0.68971 0.0
H1932 H 0.42748 0.09903 0.78659 0.0
H1933 H 0.35785 0.11999 0.82413 0.0
H1934 H 0.36114 0.10869 0.78895 0.0
H1935 H 0.36583 0.12934 0.78905 0.0
C1936 C 0.39293 0.08183 0.71955 0.0
C1937 C 0.38546 0.09217 0.69714 0.0
C1938 C 0.39709 0.08689 0.75002 0.0
C1939 C 0.39397 0.10245 0.75914 0.0
C1940 C 0.38635 0.11279 0.73686 0.0
H1941 H 0.41948 0.15366 0.93315 0.0
H1942 H 0.41307 0.1466 0.87827 0.0
C1943 C 0.382 0.10769 0.7064 0.0
C1944 C 0.39946 0.10788 0.79139 0.0
H1945 H 0.38334 0.12627 0.85742 0.0
C1946 C 0.41774 0.10492 0.80203 0.0
C1947 C 0.38691 0.11564 0.81189 0.0
C1948 C 0.36679 0.11847 0.80309 0.0
C1949 C 0.42377 0.10954 0.83209 0.0
C1950 C 0.41123 0.1173 0.85247 0.0
C1951 C 0.39304 0.12042 0.84183 0.0
C1952 C 0.41651 0.12175 0.88528 0.0
C1953 C 0.44364 0.10623 0.8417 0.0
C1954 C 0.42072 0.11021 0.90762 0.0
C1955 C 0.42438 0.11425 0.93888 0.0
C1956 C 0.42414 0.12993 0.94853 0.0
C1957 C 0.42027 0.14152 0.92615 0.0
C1958 C 0.41642 0.13747 0.89488 0.0
H1959 H 0.45269 0.10375 0.82117 0.0
H1960 H 0.4496 0.11624 0.85484 0.0
H1961 H 0.44389 0.09586 0.85725 0.0
H1962 H 0.42055 0.09799 0.90111 0.0
H1963 H 0.42684 0.10506 0.95583 0.0
H1964 H 0.89386 0.95305 0.13814 0.0
H1965 H 0.90136 0.9439 0.08539 0.0
H1966 H 0.88375 0.89748 0.11069 0.0
H1967 H 0.87585 0.90668 0.16338 0.0
H1968 H 0.92657 0.92357 0.06647 0.0
H1969 H 0.85754 0.90146 0.02877 0.0
H1970 H 0.86044 0.91313 0.06355 0.0
H1971 H 0.86556 0.89255 0.06429 0.0
C1972 C 0.89137 0.94091 0.13242 0.0
C1973 C 0.88415 0.93064 0.15516 0.0
C1974 C 0.89571 0.93567 0.10214 0.0
C1975 C 0.89299 0.91998 0.09356 0.0
C1976 C 0.88557 0.90972 0.11613 0.0
H1977 H 0.91973 0.86808 0.92078 0.0
H1978 H 0.91319 0.87527 0.97555 0.0
C1979 C 0.88105 0.915 0.14641 0.0
C1980 C 0.89875 0.91437 0.06157 0.0
H1981 H 0.8833 0.89534 0.99589 0.0
C1982 C 0.91703 0.91745 0.05109 0.0
C1983 C 0.88645 0.9063 0.04117 0.0
C1984 C 0.86636 0.90329 0.04984 0.0
C1985 C 0.92329 0.91269 0.02124 0.0
C1986 C 0.911 0.90466 1.00092 0.0
C1987 C 0.89281 0.9014 1.01144 0.0
C1988 C 0.91648 0.90011 0.96826 0.0
C1989 C 0.94316 0.91614 1.01181 0.0
C1990 C 0.92067 0.9116 0.94581 0.0
C1991 C 0.92442 0.90748 0.91462 0.0
C1992 C 0.92428 0.89178 0.90515 0.0
C1993 C 0.92047 0.88023 0.92765 0.0
C1994 C 0.91654 0.88436 0.95885 0.0
H1995 H 0.95208 0.91873 0.03242 0.0
H1996 H 0.94932 0.90617 0.99879 0.0
H1997 H 0.94333 0.9265 0.99622 0.0
H1998 H 0.92038 0.92384 0.95216 0.0
H1999 H 0.9268 0.91663 0.89756 0.0
loop_
_geom_bond_atom_site_label_1
_geom_bond_atom_site_label_2
_geom_bond_distance
_geom_bond_site_symmetry_2
_ccdc_geom_bond_type
C0 C1 1.443 . S
C0 N4 1.376 . S
C0 C38 1.389 . S
C1 C0 1.443 . S
C1 C2 1.340 . S
C1 H41 0.951 . S
C2 C1 1.340 . S
C2 C3 1.439 . S
C2 H42 0.950 . S
C3 C2 1.439 . S
C3 N4 1.374 . S
C3 C37 1.395 . S
N4 C0 1.376 . S
N4 C3 1.374 . S
N4 Co5 2.008 . S
Co5 N4 2.008 . S
Co5 N6 1.995 . S
Co5 N11 2.008 . S
Co5 N16 1.995 . S
Co5 N21 2.282 . S
Co5 N27 2.282 . S
N6 Co5 1.995 . S
N6 C7 1.376 . S
N6 C10 1.383 . S
C7 N6 1.376 . S
C7 C8 1.446 . S
C7 C37 1.391 . S
C8 C7 1.446 . S
C8 C9 1.339 . S
C8 H43 0.949 . S
C9 C8 1.339 . S
C9 C10 1.439 . S
C9 H44 0.950 . S
C10 N6 1.383 . S
C10 C9 1.439 . S
C10 C39 1.392 . S
N11 Co5 2.008 . S
N11 C12 1.376 . S
N11 C15 1.374 . S
C12 N11 1.376 . S
C12 C13 1.443 . S
C12 C39 1.389 . S
C13 C12 1.443 . S
C13 C14 1.340 . S
C13 H45 0.951 . S
C14 C13 1.340 . S
C14 C15 1.439 . S
C14 H46 0.950 . S
C15 N11 1.374 . S
C15 C14 1.439 . S
C15 C40 1.395 . S
N16 Co5 1.995 . S
N16 C17 1.376 . S
N16 C20 1.383 . S
C17 N16 1.376 . S
C17 C18 1.446 . S
C17 C40 1.391 . S
C18 C17 1.446 . S
C18 C19 1.339 . S
C18 H47 0.949 . S
C19 C18 1.339 . S
C19 C20 1.439 . S
C19 H48 0.950 . S
C20 N16 1.383 . S
C20 C19 1.439 . S
C20 C38 1.392 . S
N21 Co5 2.282 . S
N21 C24 1.332 . S
N21 C26 1.332 . S
C22 C23 1.386 . S
C22 C25 1.388 . S
C23 C22 1.386 . S
C23 C24 1.382 . S
C23 H49 0.950 . S
C24 N21 1.332 . S
C24 C23 1.382 . S
C24 H35 0.952 . S
C25 C22 1.388 . S
C25 C26 1.382 . S
C25 H50 0.950 . S
C26 N21 1.332 . S
C26 C25 1.382 . S
C26 H36 0.948 . S
N27 Co5 2.282 . S
N27 C31 1.332 . S
N27 C32 1.332 . S
C28 C29 1.388 . S
C28 C32 1.382 . S
C28 H51 0.950 . S
C29 C28 1.388 . S
C29 C30 1.386 . S
C30 C29 1.386 . S
C30 C31 1.382 . S
C30 H52 0.950 . S
C31 N27 1.332 . S
C31 C30 1.382 . S
C31 H33 0.952 . S
C32 N27 1.332 . S
C32 C28 1.382 . S
C32 H34 0.948 . S
H33 C31 0.952 . S
H34 C32 0.948 . S
H35 C24 0.952 . S
H36 C26 0.948 . S
C37 C3 1.395 . S
C37 C7 1.391 . S
C38 C0 1.389 . S
C38 C20 1.392 . S
C39 C10 1.392 . S
C39 C12 1.389 . S
C40 C15 1.395 . S
C40 C17 1.391 . S
H41 C1 0.951 . S
H42 C2 0.950 . S
H43 C8 0.949 . S
H44 C9 0.950 . S
H45 C13 0.951 . S
H46 C14 0.950 . S
H47 C18 0.949 . S
H48 C19 0.950 . S
H49 C23 0.950 . S
H50 C25 0.950 . S
H51 C28 0.950 . S
H52 C30 0.950 . S
C53 C54 1.443 . S
C53 N57 1.376 . S
C53 C91 1.389 . S
C54 C53 1.443 . S
C54 C55 1.340 . S
C54 H94 0.951 . S
C55 C54 1.340 . S
C55 C56 1.439 . S
C55 H95 0.950 . S
C56 C55 1.439 . S
C56 N57 1.374 . S
C56 C90 1.395 . S
N57 C53 1.376 . S
N57 C56 1.374 . S
N57 Co58 2.008 . S
Co58 N57 2.008 . S
Co58 N59 1.995 . S
Co58 N64 2.008 . S
Co58 N69 1.995 . S
Co58 N74 2.282 . S
Co58 N80 2.282 . S
N59 Co58 1.995 . S
N59 C60 1.376 . S
N59 C63 1.383 . S
C60 N59 1.376 . S
C60 C61 1.446 . S
C60 C90 1.391 . S
C61 C60 1.446 . S
C61 C62 1.339 . S
C61 H96 0.949 . S
C62 C61 1.339 . S
C62 C63 1.439 . S
C62 H97 0.950 . S
C63 N59 1.383 . S
C63 C62 1.439 . S
C63 C92 1.392 . S
N64 Co58 2.008 . S
N64 C65 1.376 . S
N64 C68 1.374 . S
C65 N64 1.376 . S
C65 C66 1.443 . S
C65 C92 1.389 . S
C66 C65 1.443 . S
C66 C67 1.340 . S
C66 H98 0.951 . S
C67 C66 1.340 . S
C67 C68 1.439 . S
C67 H99 0.950 . S
C68 N64 1.374 . S
C68 C67 1.439 . S
C68 C93 1.395 . S
N69 Co58 1.995 . S
N69 C70 1.376 . S
N69 C73 1.383 . S
C70 N69 1.376 . S
C70 C71 1.446 . S
C70 C93 1.391 . S
C71 C70 1.446 . S
C71 C72 1.339 . S
C71 H100 0.949 . S
C72 C71 1.339 . S
C72 C73 1.439 . S
C72 H101 0.950 . S
C73 N69 1.383 . S
C73 C72 1.439 . S
C73 C91 1.392 . S
N74 Co58 2.282 . S
N74 C77 1.332 . S
N74 C79 1.332 . S
C75 C76 1.386 . S
C75 C78 1.388 . S
C76 C75 1.386 . S
C76 C77 1.382 . S
C76 H102 0.950 . S
C77 N74 1.332 . S
C77 C76 1.382 . S
C77 H88 0.952 . S
C78 C75 1.388 . S
C78 C79 1.382 . S
C78 H103 0.950 . S
C79 N74 1.332 . S
C79 C78 1.382 . S
C79 H89 0.948 . S
N80 Co58 2.282 . S
N80 C84 1.332 . S
N80 C85 1.332 . S
C81 C82 1.388 . S
C81 C85 1.382 . S
C81 H104 0.950 . S
C82 C81 1.388 . S
C82 C83 1.386 . S
C83 C82 1.386 . S
C83 C84 1.382 . S
C83 H105 0.950 . S
C84 N80 1.332 . S
C84 C83 1.382 . S
C84 H86 0.952 . S
C85 N80 1.332 . S
C85 C81 1.382 . S
C85 H87 0.948 . S
H86 C84 0.952 . S
H87 C85 0.948 . S
H88 C77 0.952 . S
H89 C79 0.948 . S
C90 C56 1.395 . S
C90 C60 1.391 . S
C91 C53 1.389 . S
C91 C73 1.392 . S
C92 C63 1.392 . S
C92 C65 1.389 . S
C93 C68 1.395 . S
C93 C70 1.391 . S
H94 C54 0.951 . S
H95 C55 0.950 . S
H96 C61 0.949 . S
H97 C62 0.950 . S
H98 C66 0.951 . S
H99 C67 0.950 . S
H100 C71 0.949 . S
H101 C72 0.950 . S
H102 C76 0.950 . S
H103 C78 0.950 . S
H104 C81 0.950 . S
H105 C83 0.950 . S
C106 C107 1.443 . S
C106 N110 1.376 . S
C106 C144 1.389 . S
C107 C106 1.443 . S
C107 C108 1.340 . S
C107 H147 0.951 . S
C108 C107 1.340 . S
C108 C109 1.439 . S
C108 H148 0.950 . S
C109 C108 1.439 . S
C109 N110 1.374 . S
C109 C143 1.395 . S
N110 C106 1.376 . S
N110 C109 1.374 . S
N110 Co111 2.008 . S
Co111 N110 2.008 . S
Co111 N112 1.995 . S
Co111 N117 2.008 . S
Co111 N122 1.995 . S
Co111 N127 2.282 . S
Co111 N133 2.282 . S
N112 Co111 1.995 . S
N112 C113 1.376 . S
N112 C116 1.383 . S
C113 N112 1.376 . S
C113 C114 1.446 . S
C113 C143 1.391 . S
C114 C113 1.446 . S
C114 C115 1.339 . S
C114 H149 0.949 . S
C115 C114 1.339 . S
C115 C116 1.439 . S
C115 H150 0.950 . S
C116 N112 1.383 . S
C116 C115 1.439 . S
C116 C145 1.392 . S
N117 Co111 2.008 . S
N117 C118 1.376 . S
N117 C121 1.374 . S
C118 N117 1.376 . S
C118 C119 1.443 . S
C118 C145 1.389 . S
C119 C118 1.443 . S
C119 C120 1.340 . S
C119 H151 0.951 . S
C120 C119 1.340 . S
C120 C121 1.439 . S
C120 H152 0.950 . S
C121 N117 1.374 . S
C121 C120 1.439 . S
C121 C146 1.395 . S
N122 Co111 1.995 . S
N122 C123 1.376 . S
N122 C126 1.383 . S
C123 N122 1.376 . S
C123 C124 1.446 . S
C123 C146 1.391 . S
C124 C123 1.446 . S
C124 C125 1.339 . S
C124 H153 0.949 . S
C125 C124 1.339 . S
C125 C126 1.439 . S
C125 H154 0.950 . S
C126 N122 1.383 . S
C126 C125 1.439 . S
C126 C144 1.392 . S
N127 Co111 2.282 . S
N127 C130 1.332 . S
N127 C132 1.332 . S
C128 C129 1.386 . S
C128 C131 1.388 . S
C129 C128 1.386 . S
C129 C130 1.382 . S
C129 H155 0.950 . S
C130 N127 1.332 . S
C130 C129 1.382 . S
C130 H141 0.952 . S
C131 C128 1.388 . S
C131 C132 1.382 . S
C131 H156 0.950 . S
C132 N127 1.332 . S
C132 C131 1.382 . S
C132 H142 0.948 . S
N133 Co111 2.282 . S
N133 C137 1.332 . S
N133 C138 1.332 . S
C134 C135 1.388 . S
C134 C138 1.382 . S
C134 H157 0.950 . S
C135 C134 1.388 . S
C135 C136 1.386 . S
C136 C135 1.386 . S
C136 C137 1.382 . S
C136 H158 0.950 . S
C137 N133 1.332 . S
C137 C136 1.382 . S
C137 H139 0.952 . S
C138 N133 1.332 . S
C138 C134 1.382 . S
C138 H140 0.948 . S
H139 C137 0.952 . S
H140 C138 0.948 . S
H141 C130 0.952 . S
H142 C132 0.948 . S
C143 C109 1.395 . S
C143 C113 1.391 . S
C144 C106 1.389 . S
C144 C126 1.392 . S
C145 C116 1.392 . S
C145 C118 1.389 . S
C146 C121 1.395 . S
C146 C123 1.391 . S
H147 C107 0.951 . S
H148 C108 0.950 . S
H149 C114 0.949 . S
H150 C115 0.950 . S
H151 C119 0.951 . S
H152 C120 0.950 . S
H153 C124 0.949 . S
H154 C125 0.950 . S
H155 C129 0.950 . S
H156 C131 0.950 . S
H157 C134 0.950 . S
H158 C136 0.950 . S
C159 C160 1.443 . S
C159 N163 1.376 1_556 S
C159 C197 1.389 . S
C160 C159 1.443 . S
C160 C161 1.340 . S
C160 H200 0.951 . S
C161 C160 1.340 . S
C161 C162 1.439 1_556 S
C161 H201 0.950 . S
C162 C161 1.439 1_554 S
C162 N163 1.374 . S
C162 C196 1.395 . S
N163 C159 1.376 1_554 S
N163 C162 1.374 . S
N163 Co164 2.008 . S
Co164 N163 2.008 . S
Co164 N165 1.995 . S
Co164 N170 2.008 . S
Co164 N175 1.995 . S
Co164 N180 2.282 . S
Co164 N186 2.282 . S
N165 Co164 1.995 . S
N165 C166 1.376 . S
N165 C169 1.383 . S
C166 N165 1.376 . S
C166 C167 1.446 . S
C166 C196 1.391 . S
C167 C166 1.446 . S
C167 C168 1.339 . S
C167 H202 0.949 . S
C168 C167 1.339 . S
C168 C169 1.439 . S
C168 H203 0.950 . S
C169 N165 1.383 . S
C169 C168 1.439 . S
C169 C198 1.392 . S
N170 Co164 2.008 . S
N170 C171 1.376 . S
N170 C174 1.374 . S
C171 N170 1.376 . S
C171 C172 1.443 . S
C171 C198 1.389 . S
C172 C171 1.443 . S
C172 C173 1.340 . S
C172 H204 0.951 . S
C173 C172 1.340 . S
C173 C174 1.439 . S
C173 H205 0.950 . S
C174 N170 1.374 . S
C174 C173 1.439 . S
C174 C199 1.395 . S
N175 Co164 1.995 . S
N175 C176 1.376 . S
N175 C179 1.383 1_554 S
C176 N175 1.376 . S
C176 C177 1.446 1_554 S
C176 C199 1.391 . S
C177 C176 1.446 1_556 S
C177 C178 1.339 . S
C177 H206 0.949 . S
C178 C177 1.339 . S
C178 C179 1.439 . S
C178 H207 0.950 . S
C179 N175 1.383 1_556 S
C179 C178 1.439 . S
C179 C197 1.392 . S
N180 Co164 2.282 . S
N180 C183 1.332 . S
N180 C185 1.332 . S
C181 C182 1.386 . S
C181 C184 1.388 . S
C182 C181 1.386 . S
C182 C183 1.382 . S
C182 H208 0.950 . S
C183 N180 1.332 . S
C183 C182 1.382 . S
C183 H194 0.952 . S
C184 C181 1.388 . S
C184 C185 1.382 . S
C184 H209 0.950 . S
C185 N180 1.332 . S
C185 C184 1.382 . S
C185 H195 0.948 . S
N186 Co164 2.282 . S
N186 C190 1.332 . S
N186 C191 1.332 . S
C187 C188 1.388 . S
C187 C191 1.382 . S
C187 H210 0.964 . S
C188 C187 1.388 . S
C188 C189 1.386 . S
C189 C188 1.386 . S
C189 C190 1.382 . S
C189 H211 0.950 . S
C190 N186 1.332 . S
C190 C189 1.382 . S
C190 H192 0.952 . S
C191 N186 1.332 . S
C191 C187 1.382 . S
C191 H193 0.948 . S
H192 C190 0.952 . S
H193 C191 0.948 . S
H194 C183 0.952 . S
H195 C185 0.948 . S
C196 C162 1.395 . S
C196 C166 1.391 . S
C197 C159 1.389 . S
C197 C179 1.392 . S
C198 C169 1.392 . S
C198 C171 1.389 . S
C199 C174 1.395 . S
C199 C176 1.391 . S
H200 C160 0.951 . S
H201 C161 0.950 . S
H202 C167 0.949 . S
H203 C168 0.950 . S
H204 C172 0.951 . S
H205 C173 0.950 . S
H206 C177 0.949 . S
H207 C178 0.950 . S
H208 C182 0.950 . S
H209 C184 0.950 . S
H210 C187 0.964 . S
H211 C189 0.950 . S
C212 C213 1.443 1_554 S
C212 N216 1.376 . S
C212 C250 1.390 . S
C213 C212 1.443 1_556 S
C213 C214 1.340 . S
C213 H253 0.951 . S
C214 C213 1.340 . S
C214 C215 1.439 1_556 S
C214 H254 0.950 . S
C215 C214 1.439 1_554 S
C215 N216 1.374 . S
C215 C249 1.395 . S
N216 C212 1.376 . S
N216 C215 1.374 . S
N216 Co217 2.008 . S
Co217 N216 2.008 . S
Co217 N218 1.995 . S
Co217 N223 2.008 . S
Co217 N228 1.995 . S
Co217 N233 2.282 . S
Co217 N239 2.282 1_554 S
N218 Co217 1.995 . S
N218 C219 1.376 . S
N218 C222 1.383 . S
C219 N218 1.376 . S
C219 C220 1.446 . S
C219 C249 1.391 . S
C220 C219 1.446 . S
C220 C221 1.339 . S
C220 H255 0.949 . S
C221 C220 1.339 . S
C221 C222 1.439 . S
C221 H256 0.950 . S
C222 N218 1.383 . S
C222 C221 1.439 . S
C222 C251 1.392 . S
N223 Co217 2.008 . S
N223 C224 1.376 . S
N223 C227 1.374 . S
C224 N223 1.376 . S
C224 C225 1.443 . S
C224 C251 1.389 . S
C225 C224 1.443 . S
C225 C226 1.340 . S
C225 H257 0.951 . S
C226 C225 1.340 . S
C226 C227 1.439 . S
C226 H258 0.950 . S
C227 N223 1.374 . S
C227 C226 1.439 . S
C227 C252 1.395 . S
N228 Co217 1.995 . S
N228 C229 1.376 . S
N228 C232 1.383 . S
C229 N228 1.376 . S
C229 C230 1.446 . S
C229 C252 1.391 . S
C230 C229 1.446 . S
C230 C231 1.339 . S
C230 H259 0.949 . S
C231 C230 1.339 . S
C231 C232 1.439 . S
C231 H260 0.950 . S
C232 N228 1.383 . S
C232 C231 1.439 . S
C232 C250 1.399 . S
N233 Co217 2.282 . S
N233 C236 1.332 . S
N233 C238 1.332 . S
C234 C235 1.386 . S
C234 C237 1.388 . S
C235 C234 1.386 . S
C235 C236 1.382 . S
C235 H261 0.950 . S
C236 N233 1.332 . S
C236 C235 1.382 . S
C236 H247 0.952 . S
C237 C234 1.388 . S
C237 C238 1.382 . S
C237 H262 0.950 . S
C238 N233 1.332 . S
C238 C237 1.382 . S
C238 H248 0.948 . S
N239 Co217 2.282 1_556 S
N239 C243 1.332 . S
N239 C244 1.332 . S
C240 C241 1.388 . S
C240 C244 1.382 . S
C240 H263 0.950 . S
C241 C240 1.388 . S
C241 C242 1.386 . S
C242 C241 1.386 . S
C242 C243 1.382 . S
C242 H264 0.950 . S
C243 N239 1.332 . S
C243 C242 1.382 . S
C243 H245 0.952 . S
C244 N239 1.332 . S
C244 C240 1.382 . S
C244 H246 0.948 . S
H245 C243 0.952 . S
H246 C244 0.948 . S
H247 C236 0.952 . S
H248 C238 0.948 . S
C249 C215 1.395 . S
C249 C219 1.391 . S
C250 C212 1.390 . S
C250 C232 1.399 . S
C251 C222 1.392 . S
C251 C224 1.389 . S
C252 C227 1.395 . S
C252 C229 1.391 . S
H253 C213 0.951 . S
H254 C214 0.950 . S
H255 C220 0.949 . S
H256 C221 0.950 . S
H257 C225 0.951 . S
H258 C226 0.950 . S
H259 C230 0.949 . S
H260 C231 0.950 . S
H261 C235 0.950 . S
H262 C237 0.950 . S
H263 C240 0.950 . S
H264 C242 0.950 . S
C265 C266 1.443 . S
C265 N269 1.376 . S
C265 C303 1.389 . S
C266 C265 1.443 . S
C266 C267 1.340 . S
C266 H306 0.951 . S
C267 C266 1.340 . S
C267 C268 1.439 . S
C267 H307 0.950 . S
C268 C267 1.439 . S
C268 N269 1.374 . S
C268 C302 1.395 . S
N269 C265 1.376 . S
N269 C268 1.374 . S
N269 Co270 2.008 . S
Co270 N269 2.008 . S
Co270 N271 1.995 . S
Co270 N276 2.008 . S
Co270 N281 1.995 . S
Co270 N286 2.282 . S
Co270 N292 2.282 . S
N271 Co270 1.995 . S
N271 C272 1.376 . S
N271 C275 1.383 . S
C272 N271 1.376 . S
C272 C273 1.446 . S
C272 C302 1.391 . S
C273 C272 1.446 . S
C273 C274 1.339 . S
C273 H308 0.949 . S
C274 C273 1.339 . S
C274 C275 1.439 . S
C274 H309 0.950 . S
C275 N271 1.383 . S
C275 C274 1.439 . S
C275 C304 1.392 . S
N276 Co270 2.008 . S
N276 C277 1.376 . S
N276 C280 1.374 . S
C277 N276 1.376 . S
C277 C278 1.443 . S
C277 C304 1.389 . S
C278 C277 1.443 . S
C278 C279 1.340 . S
C278 H310 0.951 . S
C279 C278 1.340 . S
C279 C280 1.439 . S
C279 H311 0.950 . S
C280 N276 1.374 . S
C280 C279 1.439 . S
C280 C305 1.395 . S
N281 Co270 1.995 . S
N281 C282 1.376 . S
N281 C285 1.383 . S
C282 N281 1.376 . S
C282 C283 1.446 . S
C282 C305 1.391 . S
C283 C282 1.446 . S
C283 C284 1.339 . S
C283 H312 0.949 . S
C284 C283 1.339 . S
C284 C285 1.439 . S
C284 H313 0.950 . S
C285 N281 1.383 . S
C285 C284 1.439 . S
C285 C303 1.392 . S
N286 Co270 2.282 . S
N286 C289 1.332 . S
N286 C291 1.332 . S
C287 C288 1.386 . S
C287 C290 1.388 . S
C288 C287 1.386 . S
C288 C289 1.382 . S
C288 H314 0.950 . S
C289 N286 1.332 . S
C289 C288 1.382 . S
C289 H300 0.952 . S
C290 C287 1.388 . S
C290 C291 1.382 . S
C290 H315 0.950 . S
C291 N286 1.332 . S
C291 C290 1.382 . S
C291 H301 0.948 . S
N292 Co270 2.282 . S
N292 C296 1.332 . S
N292 C297 1.332 . S
C293 C294 1.388 . S
C293 C297 1.382 . S
C293 H316 0.950 . S
C294 C293 1.388 . S
C294 C295 1.386 . S
C295 C294 1.386 . S
C295 C296 1.382 . S
C295 H317 0.950 . S
C296 N292 1.332 . S
C296 C295 1.382 . S
C296 H298 0.952 . S
C297 N292 1.332 . S
C297 C293 1.382 . S
C297 H299 0.948 . S
H298 C296 0.952 . S
H299 C297 0.948 . S
H300 C289 0.952 . S
H301 C291 0.948 . S
C302 C268 1.395 . S
C302 C272 1.391 . S
C303 C265 1.389 . S
C303 C285 1.392 . S
C304 C275 1.392 . S
C304 C277 1.389 . S
C305 C280 1.395 . S
C305 C282 1.391 . S
H306 C266 0.951 . S
H307 C267 0.950 . S
H308 C273 0.949 . S
H309 C274 0.950 . S
H310 C278 0.951 . S
H311 C279 0.950 . S
H312 C283 0.949 . S
H313 C284 0.950 . S
H314 C288 0.950 . S
H315 C290 0.950 . S
H316 C293 0.950 . S
H317 C295 0.950 . S
C318 C319 1.443 . S
C318 N322 1.376 . S
C318 C356 1.389 . S
C319 C318 1.443 . S
C319 C320 1.340 . S
C319 H359 0.951 . S
C320 C319 1.340 . S
C320 C321 1.439 . S
C320 H360 0.950 . S
C321 C320 1.439 . S
C321 N322 1.374 . S
C321 C355 1.395 . S
N322 C318 1.376 . S
N322 C321 1.374 . S
N322 Co323 2.008 . S
Co323 N322 2.008 . S
Co323 N324 1.995 . S
Co323 N329 2.008 . S
Co323 N334 1.995 . S
Co323 N339 2.282 . S
Co323 N345 2.282 . S
N324 Co323 1.995 . S
N324 C325 1.376 . S
N324 C328 1.383 . S
C325 N324 1.376 . S
C325 C326 1.446 . S
C325 C355 1.391 . S
C326 C325 1.446 . S
C326 C327 1.339 . S
C326 H361 0.949 . S
C327 C326 1.339 . S
C327 C328 1.439 . S
C327 H362 0.950 . S
C328 N324 1.383 . S
C328 C327 1.439 . S
C328 C357 1.392 . S
N329 Co323 2.008 . S
N329 C330 1.376 . S
N329 C333 1.374 . S
C330 N329 1.376 . S
C330 C331 1.443 . S
C330 C357 1.389 . S
C331 C330 1.443 . S
C331 C332 1.340 . S
C331 H363 0.951 . S
C332 C331 1.340 . S
C332 C333 1.439 . S
C332 H364 0.950 . S
C333 N329 1.374 . S
C333 C332 1.439 . S
C333 C358 1.395 . S
N334 Co323 1.995 . S
N334 C335 1.376 . S
N334 C338 1.383 . S
C335 N334 1.376 . S
C335 C336 1.446 . S
C335 C358 1.391 . S
C336 C335 1.446 . S
C336 C337 1.339 . S
C336 H365 0.949 . S
C337 C336 1.339 . S
C337 C338 1.439 . S
C337 H366 0.950 . S
C338 N334 1.383 . S
C338 C337 1.439 . S
C338 C356 1.392 . S
N339 Co323 2.282 . S
N339 C342 1.332 . S
N339 C344 1.332 . S
C340 C341 1.386 . S
C340 C343 1.388 . S
C341 C340 1.386 . S
C341 C342 1.382 . S
C341 H367 0.950 . S
C342 N339 1.332 . S
C342 C341 1.382 . S
C342 H353 0.952 . S
C343 C340 1.388 . S
C343 C344 1.382 . S
C343 H368 0.950 . S
C344 N339 1.332 . S
C344 C343 1.382 . S
C344 H354 0.948 . S
N345 Co323 2.282 . S
N345 C349 1.332 . S
N345 C350 1.332 . S
C346 C347 1.388 . S
C346 C350 1.382 . S
C346 H369 0.950 . S
C347 C346 1.388 . S
C347 C348 1.386 . S
C348 C347 1.386 . S
C348 C349 1.382 . S
C348 H370 0.950 . S
C349 N345 1.332 . S
C349 C348 1.382 . S
C349 H351 0.952 . S
C350 N345 1.332 . S
C350 C346 1.382 . S
C350 H352 0.948 . S
H351 C349 0.952 . S
H352 C350 0.948 . S
H353 C342 0.952 . S
H354 C344 0.948 . S
C355 C321 1.395 . S
C355 C325 1.391 . S
C356 C318 1.389 . S
C356 C338 1.392 . S
C357 C328 1.392 . S
C357 C330 1.389 . S
C358 C333 1.395 . S
C358 C335 1.391 . S
H359 C319 0.951 . S
H360 C320 0.950 . S
H361 C326 0.949 . S
H362 C327 0.950 . S
H363 C331 0.951 . S
H364 C332 0.950 . S
H365 C336 0.949 . S
H366 C337 0.950 . S
H367 C341 0.950 . S
H368 C343 0.950 . S
H369 C346 0.950 . S
H370 C348 0.950 . S
C371 C372 1.443 . S
C371 N375 1.376 . S
C371 C409 1.389 . S
C372 C371 1.443 . S
C372 C373 1.340 . S
C372 H412 0.951 . S
C373 C372 1.340 . S
C373 C374 1.439 . S
C373 H413 0.950 . S
C374 C373 1.439 . S
C374 N375 1.374 . S
C374 C408 1.395 . S
N375 C371 1.376 . S
N375 C374 1.374 . S
N375 Co376 2.008 . S
Co376 N375 2.008 . S
Co376 N377 1.995 . S
Co376 N382 2.008 . S
Co376 N387 1.995 . S
Co376 N392 2.282 . S
Co376 N398 2.282 . S
N377 Co376 1.995 . S
N377 C378 1.376 . S
N377 C381 1.383 . S
C378 N377 1.376 . S
C378 C379 1.446 . S
C378 C408 1.391 . S
C379 C378 1.446 . S
C379 C380 1.339 . S
C379 H414 0.949 . S
C380 C379 1.339 . S
C380 C381 1.439 . S
C380 H415 0.950 . S
C381 N377 1.383 . S
C381 C380 1.439 . S
C381 C410 1.392 . S
N382 Co376 2.008 . S
N382 C383 1.376 . S
N382 C386 1.374 . S
C383 N382 1.376 . S
C383 C384 1.443 . S
C383 C410 1.389 . S
C384 C383 1.443 . S
C384 C385 1.340 . S
C384 H416 0.951 . S
C385 C384 1.340 . S
C385 C386 1.439 . S
C385 H417 0.950 . S
C386 N382 1.374 . S
C386 C385 1.439 . S
C386 C411 1.395 . S
N387 Co376 1.995 . S
N387 C388 1.376 . S
N387 C391 1.383 . S
C388 N387 1.376 . S
C388 C389 1.446 . S
C388 C411 1.391 . S
C389 C388 1.446 . S
C389 C390 1.339 . S
C389 H418 0.949 . S
C390 C389 1.339 . S
C390 C391 1.439 . S
C390 H419 0.950 . S
C391 N387 1.383 . S
C391 C390 1.439 . S
C391 C409 1.392 . S
N392 Co376 2.282 . S
N392 C395 1.332 . S
N392 C397 1.332 . S
C393 C394 1.386 . S
C393 C396 1.388 . S
C394 C393 1.386 . S
C394 C395 1.382 . S
C394 H420 0.950 . S
C395 N392 1.332 . S
C395 C394 1.382 . S
C395 H406 0.952 . S
C396 C393 1.388 . S
C396 C397 1.382 . S
C396 H421 0.950 . S
C397 N392 1.332 . S
C397 C396 1.382 . S
C397 H407 0.948 . S
N398 Co376 2.282 . S
N398 C402 1.332 . S
N398 C403 1.332 . S
C399 C400 1.388 . S
C399 C403 1.382 . S
C399 H422 0.950 . S
C400 C399 1.388 . S
C400 C401 1.386 . S
C401 C400 1.386 . S
C401 C402 1.382 . S
C401 H423 0.950 . S
C402 N398 1.332 . S
C402 C401 1.382 . S
C402 H404 0.952 . S
C403 N398 1.332 . S
C403 C399 1.382 . S
C403 H405 0.948 . S
H404 C402 0.952 . S
H405 C403 0.948 . S
H406 C395 0.952 . S
H407 C397 0.948 . S
C408 C374 1.395 . S
C408 C378 1.391 . S
C409 C371 1.389 . S
C409 C391 1.392 . S
C410 C381 1.392 . S
C410 C383 1.389 . S
C411 C386 1.395 . S
C411 C388 1.391 . S
H412 C372 0.951 . S
H413 C373 0.950 . S
H414 C379 0.949 . S
H415 C380 0.950 . S
H416 C384 0.951 . S
H417 C385 0.950 . S
H418 C389 0.949 . S
H419 C390 0.950 . S
H420 C394 0.950 . S
H421 C396 0.950 . S
H422 C399 0.950 . S
H423 C401 0.950 . S
C424 C425 1.443 . S
C424 N428 1.376 . S
C424 C462 1.389 . S
C425 C424 1.443 . S
C425 C426 1.340 . S
C425 H465 0.951 . S
C426 C425 1.340 . S
C426 C427 1.439 . S
C426 H466 0.950 . S
C427 C426 1.439 . S
C427 N428 1.374 . S
C427 C461 1.395 . S
N428 C424 1.376 . S
N428 C427 1.374 . S
N428 Co429 2.008 . S
Co429 N428 2.008 . S
Co429 N430 1.995 . S
Co429 N435 2.008 . S
Co429 N440 1.995 . S
Co429 N445 2.282 . S
Co429 N451 2.282 . S
N430 Co429 1.995 . S
N430 C431 1.376 . S
N430 C434 1.383 . S
C431 N430 1.376 . S
C431 C432 1.446 . S
C431 C461 1.391 . S
C432 C431 1.446 . S
C432 C433 1.339 . S
C432 H467 0.949 . S
C433 C432 1.339 . S
C433 C434 1.439 . S
C433 H468 0.950 . S
C434 N430 1.383 . S
C434 C433 1.439 . S
C434 C463 1.392 . S
N435 Co429 2.008 . S
N435 C436 1.376 . S
N435 C439 1.374 . S
C436 N435 1.376 . S
C436 C437 1.443 . S
C436 C463 1.389 . S
C437 C436 1.443 . S
C437 C438 1.340 . S
C437 H469 0.951 . S
C438 C437 1.340 . S
C438 C439 1.439 . S
C438 H470 0.950 . S
C439 N435 1.374 . S
C439 C438 1.439 . S
C439 C464 1.395 . S
N440 Co429 1.995 . S
N440 C441 1.376 . S
N440 C444 1.383 . S
C441 N440 1.376 . S
C441 C442 1.446 . S
C441 C464 1.391 . S
C442 C441 1.446 . S
C442 C443 1.339 . S
C442 H471 0.949 . S
C443 C442 1.339 . S
C443 C444 1.439 . S
C443 H472 0.950 . S
C444 N440 1.383 . S
C444 C443 1.439 . S
C444 C462 1.392 . S
N445 Co429 2.282 . S
N445 C448 1.332 . S
N445 C450 1.332 . S
C446 C447 1.386 . S
C446 C449 1.388 . S
C447 C446 1.386 . S
C447 C448 1.382 . S
C447 H473 0.950 . S
C448 N445 1.332 . S
C448 C447 1.382 . S
C448 H459 0.952 . S
C449 C446 1.388 . S
C449 C450 1.382 . S
C449 H474 0.950 . S
C450 N445 1.332 . S
C450 C449 1.382 . S
C450 H460 0.948 . S
N451 Co429 2.282 . S
N451 C455 1.332 . S
N451 C456 1.332 . S
C452 C453 1.388 . S
C452 C456 1.382 . S
C452 H475 0.950 . S
C453 C452 1.388 . S
C453 C454 1.386 . S
C454 C453 1.386 . S
C454 C455 1.382 . S
C454 H476 0.950 . S
C455 N451 1.332 . S
C455 C454 1.382 . S
C455 H457 0.952 . S
C456 N451 1.332 . S
C456 C452 1.382 . S
C456 H458 0.948 . S
H457 C455 0.952 . S
H458 C456 0.948 . S
H459 C448 0.952 . S
H460 C450 0.948 . S
C461 C427 1.395 . S
C461 C431 1.391 . S
C462 C424 1.389 . S
C462 C444 1.392 . S
C463 C434 1.392 . S
C463 C436 1.389 . S
C464 C439 1.395 . S
C464 C441 1.391 . S
H465 C425 0.951 . S
H466 C426 0.950 . S
H467 C432 0.949 . S
H468 C433 0.950 . S
H469 C437 0.951 . S
H470 C438 0.950 . S
H471 C442 0.949 . S
H472 C443 0.950 . S
H473 C447 0.950 . S
H474 C449 0.950 . S
H475 C452 0.950 . S
H476 C454 0.950 . S
C477 C478 1.443 . S
C477 N481 1.376 1_556 S
C477 C515 1.389 . S
C478 C477 1.443 . S
C478 C479 1.340 . S
C478 H518 0.951 . S
C479 C478 1.340 . S
C479 C480 1.439 1_556 S
C479 H519 0.950 . S
C480 C479 1.439 1_554 S
C480 N481 1.374 . S
C480 C514 1.395 . S
N481 C477 1.376 1_554 S
N481 C480 1.374 . S
N481 Co482 2.008 . S
Co482 N481 2.008 . S
Co482 N483 1.995 . S
Co482 N488 2.008 . S
Co482 N493 1.995 . S
Co482 N498 2.282 . S
Co482 N504 2.282 . S
N483 Co482 1.995 . S
N483 C484 1.376 . S
N483 C487 1.383 . S
C484 N483 1.376 . S
C484 C485 1.446 . S
C484 C514 1.391 . S
C485 C484 1.446 . S
C485 C486 1.339 . S
C485 H520 0.949 . S
C486 C485 1.339 . S
C486 C487 1.439 . S
C486 H521 0.950 . S
C487 N483 1.383 . S
C487 C486 1.439 . S
C487 C516 1.392 . S
N488 Co482 2.008 . S
N488 C489 1.376 . S
N488 C492 1.374 . S
C489 N488 1.376 . S
C489 C490 1.443 . S
C489 C516 1.389 . S
C490 C489 1.443 . S
C490 C491 1.340 . S
C490 H522 0.951 . S
C491 C490 1.340 . S
C491 C492 1.439 . S
C491 H523 0.950 . S
C492 N488 1.374 . S
C492 C491 1.439 . S
C492 C517 1.395 . S
N493 Co482 1.995 . S
N493 C494 1.376 . S
N493 C497 1.383 1_554 S
C494 N493 1.376 . S
C494 C495 1.446 1_554 S
C494 C517 1.391 . S
C495 C494 1.446 1_556 S
C495 C496 1.339 . S
C495 H524 0.949 . S
C496 C495 1.339 . S
C496 C497 1.439 . S
C496 H525 0.950 . S
C497 N493 1.383 1_556 S
C497 C496 1.439 . S
C497 C515 1.392 . S
N498 Co482 2.282 . S
N498 C501 1.332 . S
N498 C503 1.332 . S
C499 C500 1.386 . S
C499 C502 1.388 . S
C500 C499 1.386 . S
C500 C501 1.382 . S
C500 H526 0.950 . S
C501 N498 1.332 . S
C501 C500 1.382 . S
C501 H512 0.952 . S
C502 C499 1.388 . S
C502 C503 1.382 . S
C502 H527 0.950 . S
C503 N498 1.332 . S
C503 C502 1.382 . S
C503 H513 0.948 . S
N504 Co482 2.282 . S
N504 C508 1.332 . S
N504 C509 1.332 . S
C505 C506 1.388 . S
C505 C509 1.382 . S
C505 H528 0.964 . S
C506 C505 1.388 . S
C506 C507 1.386 . S
C507 C506 1.386 . S
C507 C508 1.382 . S
C507 H529 0.950 . S
C508 N504 1.332 . S
C508 C507 1.382 . S
C508 H510 0.952 . S
C509 N504 1.332 . S
C509 C505 1.382 . S
C509 H511 0.948 . S
H510 C508 0.952 . S
H511 C509 0.948 . S
H512 C501 0.952 . S
H513 C503 0.948 . S
C514 C480 1.395 . S
C514 C484 1.391 . S
C515 C477 1.389 . S
C515 C497 1.392 . S
C516 C487 1.392 . S
C516 C489 1.389 . S
C517 C492 1.395 . S
C517 C494 1.391 . S
H518 C478 0.951 . S
H519 C479 0.950 . S
H520 C485 0.949 . S
H521 C486 0.950 . S
H522 C490 0.951 . S
H523 C491 0.950 . S
H524 C495 0.949 . S
H525 C496 0.950 . S
H526 C500 0.950 . S
H527 C502 0.950 . S
H528 C505 0.964 . S
H529 C507 0.950 . S
C530 C531 1.443 . S
C530 N534 1.376 . S
C530 C568 1.389 . S
C531 C530 1.443 . S
C531 C532 1.340 . S
C531 H571 0.951 . S
C532 C531 1.340 . S
C532 C533 1.439 . S
C532 H572 0.950 . S
C533 C532 1.439 . S
C533 N534 1.374 . S
C533 C567 1.395 . S
N534 C530 1.376 . S
N534 C533 1.374 . S
N534 Co535 2.008 . S
Co535 N534 2.008 . S
Co535 N536 1.995 . S
Co535 N541 2.008 . S
Co535 N546 1.995 . S
Co535 N551 2.282 . S
Co535 N557 2.282 . S
N536 Co535 1.995 . S
N536 C537 1.376 . S
N536 C540 1.383 . S
C537 N536 1.376 . S
C537 C538 1.446 . S
C537 C567 1.391 . S
C538 C537 1.446 . S
C538 C539 1.339 . S
C538 H573 0.949 . S
C539 C538 1.339 . S
C539 C540 1.439 . S
C539 H574 0.950 . S
C540 N536 1.383 . S
C540 C539 1.439 . S
C540 C569 1.392 . S
N541 Co535 2.008 . S
N541 C542 1.376 . S
N541 C545 1.374 . S
C542 N541 1.376 . S
C542 C543 1.443 . S
C542 C569 1.389 . S
C543 C542 1.443 . S
C543 C544 1.340 . S
C543 H575 0.951 . S
C544 C543 1.340 . S
C544 C545 1.439 . S
C544 H576 0.950 . S
C545 N541 1.374 . S
C545 C544 1.439 . S
C545 C570 1.395 . S
N546 Co535 1.995 . S
N546 C547 1.376 . S
N546 C550 1.383 . S
C547 N546 1.376 . S
C547 C548 1.446 . S
C547 C570 1.391 . S
C548 C547 1.446 . S
C548 C549 1.339 . S
C548 H577 0.949 . S
C549 C548 1.339 . S
C549 C550 1.439 . S
C549 H578 0.950 . S
C550 N546 1.383 . S
C550 C549 1.439 . S
C550 C568 1.392 . S
N551 Co535 2.282 . S
N551 C554 1.332 . S
N551 C556 1.332 . S
C552 C553 1.386 . S
C552 C555 1.388 . S
C553 C552 1.386 . S
C553 C554 1.382 . S
C553 H579 0.950 . S
C554 N551 1.332 . S
C554 C553 1.382 . S
C554 H565 0.952 . S
C555 C552 1.388 . S
C555 C556 1.382 . S
C555 H580 0.950 . S
C556 N551 1.332 . S
C556 C555 1.382 . S
C556 H566 0.948 . S
N557 Co535 2.282 . S
N557 C561 1.332 . S
N557 C562 1.332 . S
C558 C559 1.388 . S
C558 C562 1.382 . S
C558 H581 0.950 . S
C559 C558 1.388 . S
C559 C560 1.386 . S
C560 C559 1.386 . S
C560 C561 1.382 . S
C560 H582 0.950 . S
C561 N557 1.332 . S
C561 C560 1.382 . S
C561 H563 0.952 . S
C562 N557 1.332 . S
C562 C558 1.382 . S
C562 H564 0.948 . S
H563 C561 0.952 . S
H564 C562 0.948 . S
H565 C554 0.952 . S
H566 C556 0.948 . S
C567 C533 1.395 . S
C567 C537 1.391 . S
C568 C530 1.389 . S
C568 C550 1.392 . S
C569 C540 1.392 . S
C569 C542 1.389 . S
C570 C545 1.395 . S
C570 C547 1.391 . S
H571 C531 0.951 . S
H572 C532 0.950 . S
H573 C538 0.949 . S
H574 C539 0.950 . S
H575 C543 0.951 . S
H576 C544 0.950 . S
H577 C548 0.949 . S
H578 C549 0.950 . S
H579 C553 0.950 . S
H580 C555 0.950 . S
H581 C558 0.950 . S
H582 C560 0.950 . S
C583 C584 1.443 . S
C583 N587 1.376 . S
C583 C621 1.389 . S
C584 C583 1.443 . S
C584 C585 1.340 . S
C584 H624 0.951 . S
C585 C584 1.340 . S
C585 C586 1.439 . S
C585 H625 0.950 . S
C586 C585 1.439 . S
C586 N587 1.374 . S
C586 C620 1.395 . S
N587 C583 1.376 . S
N587 C586 1.374 . S
N587 Co588 2.008 . S
Co588 N587 2.008 . S
Co588 N589 1.995 . S
Co588 N594 2.008 . S
Co588 N599 1.995 . S
Co588 N604 2.282 . S
Co588 N610 2.282 . S
N589 Co588 1.995 . S
N589 C590 1.376 . S
N589 C593 1.383 . S
C590 N589 1.376 . S
C590 C591 1.446 . S
C590 C620 1.391 . S
C591 C590 1.446 . S
C591 C592 1.339 . S
C591 H626 0.949 . S
C592 C591 1.339 . S
C592 C593 1.439 . S
C592 H627 0.950 . S
C593 N589 1.383 . S
C593 C592 1.439 . S
C593 C622 1.392 . S
N594 Co588 2.008 . S
N594 C595 1.376 . S
N594 C598 1.374 . S
C595 N594 1.376 . S
C595 C596 1.443 . S
C595 C622 1.389 . S
C596 C595 1.443 . S
C596 C597 1.340 . S
C596 H628 0.951 . S
C597 C596 1.340 . S
C597 C598 1.439 . S
C597 H629 0.950 . S
C598 N594 1.374 . S
C598 C597 1.439 . S
C598 C623 1.395 . S
N599 Co588 1.995 . S
N599 C600 1.376 . S
N599 C603 1.383 . S
C600 N599 1.376 . S
C600 C601 1.446 . S
C600 C623 1.391 . S
C601 C600 1.446 . S
C601 C602 1.339 . S
C601 H630 0.949 . S
C602 C601 1.339 . S
C602 C603 1.439 . S
C602 H631 0.950 . S
C603 N599 1.383 . S
C603 C602 1.439 . S
C603 C621 1.392 . S
N604 Co588 2.282 . S
N604 C607 1.332 . S
N604 C609 1.332 . S
C605 C606 1.386 . S
C605 C608 1.388 . S
C606 C605 1.386 . S
C606 C607 1.382 . S
C606 H632 0.950 . S
C607 N604 1.332 . S
C607 C606 1.382 . S
C607 H618 0.952 . S
C608 C605 1.388 . S
C608 C609 1.382 . S
C608 H633 0.950 . S
C609 N604 1.332 . S
C609 C608 1.382 . S
C609 H619 0.948 . S
N610 Co588 2.282 . S
N610 C614 1.332 . S
N610 C615 1.332 . S
C611 C612 1.388 . S
C611 C615 1.382 . S
C611 H634 0.950 . S
C612 C611 1.388 . S
C612 C613 1.386 . S
C613 C612 1.386 . S
C613 C614 1.382 . S
C613 H635 0.950 . S
C614 N610 1.332 . S
C614 C613 1.382 . S
C614 H616 0.952 . S
C615 N610 1.332 . S
C615 C611 1.382 . S
C615 H617 0.948 . S
H616 C614 0.952 . S
H617 C615 0.948 . S
H618 C607 0.952 . S
H619 C609 0.948 . S
C620 C586 1.395 . S
C620 C590 1.391 . S
C621 C583 1.389 . S
C621 C603 1.392 . S
C622 C593 1.392 . S
C622 C595 1.389 . S
C623 C598 1.395 . S
C623 C600 1.391 . S
H624 C584 0.951 . S
H625 C585 0.950 . S
H626 C591 0.949 . S
H627 C592 0.950 . S
H628 C596 0.951 . S
H629 C597 0.950 . S
H630 C601 0.949 . S
H631 C602 0.950 . S
H632 C606 0.950 . S
H633 C608 0.950 . S
H634 C611 0.950 . S
H635 C613 0.950 . S
C636 C637 1.443 . S
C636 N640 1.376 . S
C636 C674 1.389 . S
C637 C636 1.443 . S
C637 C638 1.340 . S
C637 H677 0.951 . S
C638 C637 1.340 . S
C638 C639 1.439 . S
C638 H678 0.950 . S
C639 C638 1.439 . S
C639 N640 1.374 . S
C639 C673 1.395 . S
N640 C636 1.376 . S
N640 C639 1.374 . S
N640 Co641 2.008 . S
Co641 N640 2.008 . S
Co641 N642 1.995 . S
Co641 N647 2.008 . S
Co641 N652 1.995 . S
Co641 N657 2.282 . S
Co641 N663 2.282 . S
N642 Co641 1.995 . S
N642 C643 1.376 . S
N642 C646 1.383 . S
C643 N642 1.376 . S
C643 C644 1.446 . S
C643 C673 1.391 . S
C644 C643 1.446 . S
C644 C645 1.339 . S
C644 H679 0.949 . S
C645 C644 1.339 . S
C645 C646 1.439 . S
C645 H680 0.950 . S
C646 N642 1.383 . S
C646 C645 1.439 . S
C646 C675 1.392 . S
N647 Co641 2.008 . S
N647 C648 1.376 . S
N647 C651 1.374 . S
C648 N647 1.376 . S
C648 C649 1.443 . S
C648 C675 1.389 . S
C649 C648 1.443 . S
C649 C650 1.340 . S
C649 H681 0.951 . S
C650 C649 1.340 . S
C650 C651 1.439 . S
C650 H682 0.950 . S
C651 N647 1.374 . S
C651 C650 1.439 . S
C651 C676 1.395 . S
N652 Co641 1.995 . S
N652 C653 1.376 . S
N652 C656 1.383 . S
C653 N652 1.376 . S
C653 C654 1.446 . S
C653 C676 1.391 . S
C654 C653 1.446 . S
C654 C655 1.339 . S
C654 H683 0.949 . S
C655 C654 1.339 . S
C655 C656 1.439 . S
C655 H684 0.950 . S
C656 N652 1.383 . S
C656 C655 1.439 . S
C656 C674 1.392 . S
N657 Co641 2.282 . S
N657 C660 1.332 . S
N657 C662 1.332 . S
C658 C659 1.386 . S
C658 C661 1.388 . S
C659 C658 1.386 . S
C659 C660 1.382 . S
C659 H685 0.950 . S
C660 N657 1.332 . S
C660 C659 1.382 . S
C660 H671 0.952 . S
C661 C658 1.388 . S
C661 C662 1.382 . S
C661 H686 0.950 . S
C662 N657 1.332 . S
C662 C661 1.382 . S
C662 H672 0.948 . S
N663 Co641 2.282 . S
N663 C667 1.332 . S
N663 C668 1.332 . S
C664 C665 1.388 . S
C664 C668 1.382 . S
C664 H687 0.950 . S
C665 C664 1.388 . S
C665 C666 1.386 . S
C666 C665 1.386 . S
C666 C667 1.382 . S
C666 H688 0.950 . S
C667 N663 1.332 . S
C667 C666 1.382 . S
C667 H669 0.952 . S
C668 N663 1.332 . S
C668 C664 1.382 . S
C668 H670 0.948 . S
H669 C667 0.952 . S
H670 C668 0.948 . S
H671 C660 0.952 . S
H672 C662 0.948 . S
C673 C639 1.395 . S
C673 C643 1.391 . S
C674 C636 1.389 . S
C674 C656 1.392 . S
C675 C646 1.392 . S
C675 C648 1.389 . S
C676 C651 1.395 . S
C676 C653 1.391 . S
H677 C637 0.951 . S
H678 C638 0.950 . S
H679 C644 0.949 . S
H680 C645 0.950 . S
H681 C649 0.951 . S
H682 C650 0.950 . S
H683 C654 0.949 . S
H684 C655 0.950 . S
H685 C659 0.950 . S
H686 C661 0.950 . S
H687 C664 0.950 . S
H688 C666 0.950 . S
C689 C690 1.443 . S
C689 N693 1.376 . S
C689 C727 1.389 . S
C690 C689 1.443 . S
C690 C691 1.340 . S
C690 H730 0.951 . S
C691 C690 1.340 . S
C691 C692 1.439 . S
C691 H731 0.950 . S
C692 C691 1.439 . S
C692 N693 1.374 . S
C692 C726 1.395 . S
N693 C689 1.376 . S
N693 C692 1.374 . S
N693 Co694 2.008 . S
Co694 N693 2.008 . S
Co694 N695 1.995 . S
Co694 N700 2.008 . S
Co694 N705 1.995 . S
Co694 N710 2.282 . S
Co694 N716 2.282 . S
N695 Co694 1.995 . S
N695 C696 1.376 . S
N695 C699 1.383 . S
C696 N695 1.376 . S
C696 C697 1.446 . S
C696 C726 1.391 . S
C697 C696 1.446 . S
C697 C698 1.339 . S
C697 H732 0.949 . S
C698 C697 1.339 . S
C698 C699 1.439 . S
C698 H733 0.950 . S
C699 N695 1.383 . S
C699 C698 1.439 . S
C699 C728 1.392 . S
N700 Co694 2.008 . S
N700 C701 1.376 . S
N700 C704 1.374 . S
C701 N700 1.376 . S
C701 C702 1.443 . S
C701 C728 1.389 . S
C702 C701 1.443 . S
C702 C703 1.340 . S
C702 H734 0.951 . S
C703 C702 1.340 . S
C703 C704 1.439 . S
C703 H735 0.950 . S
C704 N700 1.374 . S
C704 C703 1.439 . S
C704 C729 1.395 . S
N705 Co694 1.995 . S
N705 C706 1.376 . S
N705 C709 1.383 . S
C706 N705 1.376 . S
C706 C707 1.446 . S
C706 C729 1.391 . S
C707 C706 1.446 . S
C707 C708 1.339 . S
C707 H736 0.949 . S
C708 C707 1.339 . S
C708 C709 1.439 . S
C708 H737 0.950 . S
C709 N705 1.383 . S
C709 C708 1.439 . S
C709 C727 1.392 . S
N710 Co694 2.282 . S
N710 C713 1.332 . S
N710 C715 1.332 . S
C711 C712 1.386 . S
C711 C714 1.388 . S
C712 C711 1.386 . S
C712 C713 1.382 . S
C712 H738 0.950 . S
C713 N710 1.332 . S
C713 C712 1.382 . S
C713 H724 0.952 . S
C714 C711 1.388 . S
C714 C715 1.382 . S
C714 H739 0.950 . S
C715 N710 1.332 . S
C715 C714 1.382 . S
C715 H725 0.948 . S
N716 Co694 2.282 . S
N716 C720 1.332 . S
N716 C721 1.332 . S
C717 C718 1.388 . S
C717 C721 1.382 . S
C717 H740 0.950 . S
C718 C717 1.388 . S
C718 C719 1.386 . S
C719 C718 1.386 . S
C719 C720 1.382 . S
C719 H741 0.950 . S
C720 N716 1.332 . S
C720 C719 1.382 . S
C720 H722 0.952 . S
C721 N716 1.332 . S
C721 C717 1.382 . S
C721 H723 0.948 . S
H722 C720 0.952 . S
H723 C721 0.948 . S
H724 C713 0.952 . S
H725 C715 0.948 . S
C726 C692 1.395 . S
C726 C696 1.391 . S
C727 C689 1.389 . S
C727 C709 1.392 . S
C728 C699 1.392 . S
C728 C701 1.389 . S
C729 C704 1.395 . S
C729 C706 1.391 . S
H730 C690 0.951 . S
H731 C691 0.950 . S
H732 C697 0.949 . S
H733 C698 0.950 . S
H734 C702 0.951 . S
H735 C703 0.950 . S
H736 C707 0.949 . S
H737 C708 0.950 . S
H738 C712 0.950 . S
H739 C714 0.950 . S
H740 C717 0.950 . S
H741 C719 0.950 . S
C742 C743 1.443 1_554 S
C742 N746 1.376 . S
C742 C780 1.390 . S
C743 C742 1.443 1_556 S
C743 C744 1.340 . S
C743 H783 0.951 . S
C744 C743 1.340 . S
C744 C745 1.439 1_556 S
C744 H784 0.950 . S
C745 C744 1.439 1_554 S
C745 N746 1.374 . S
C745 C779 1.395 . S
N746 C742 1.376 . S
N746 C745 1.374 . S
N746 Co747 2.008 . S
Co747 N746 2.008 . S
Co747 N748 1.995 . S
Co747 N753 2.008 . S
Co747 N758 1.995 . S
Co747 N763 2.282 . S
Co747 N769 2.282 1_554 S
N748 Co747 1.995 . S
N748 C749 1.376 . S
N748 C752 1.383 . S
C749 N748 1.376 . S
C749 C750 1.446 . S
C749 C779 1.391 . S
C750 C749 1.446 . S
C750 C751 1.339 . S
C750 H785 0.949 . S
C751 C750 1.339 . S
C751 C752 1.439 . S
C751 H786 0.950 . S
C752 N748 1.383 . S
C752 C751 1.439 . S
C752 C781 1.392 . S
N753 Co747 2.008 . S
N753 C754 1.376 . S
N753 C757 1.374 . S
C754 N753 1.376 . S
C754 C755 1.443 . S
C754 C781 1.389 . S
C755 C754 1.443 . S
C755 C756 1.340 . S
C755 H787 0.951 . S
C756 C755 1.340 . S
C756 C757 1.439 . S
C756 H788 0.950 . S
C757 N753 1.374 . S
C757 C756 1.439 . S
C757 C782 1.395 . S
N758 Co747 1.995 . S
N758 C759 1.376 . S
N758 C762 1.383 . S
C759 N758 1.376 . S
C759 C760 1.446 . S
C759 C782 1.391 . S
C760 C759 1.446 . S
C760 C761 1.339 . S
C760 H789 0.949 . S
C761 C760 1.339 . S
C761 C762 1.439 . S
C761 H790 0.950 . S
C762 N758 1.383 . S
C762 C761 1.439 . S
C762 C780 1.399 . S
N763 Co747 2.282 . S
N763 C766 1.332 . S
N763 C768 1.332 . S
C764 C765 1.386 . S
C764 C767 1.388 . S
C765 C764 1.386 . S
C765 C766 1.382 . S
C765 H791 0.950 . S
C766 N763 1.332 . S
C766 C765 1.382 . S
C766 H777 0.952 . S
C767 C764 1.388 . S
C767 C768 1.382 . S
C767 H792 0.950 . S
C768 N763 1.332 . S
C768 C767 1.382 . S
C768 H778 0.948 . S
N769 Co747 2.282 1_556 S
N769 C773 1.332 . S
N769 C774 1.332 . S
C770 C771 1.388 . S
C770 C774 1.382 . S
C770 H793 0.950 . S
C771 C770 1.388 . S
C771 C772 1.386 . S
C772 C771 1.386 . S
C772 C773 1.382 . S
C772 H794 0.950 . S
C773 N769 1.332 . S
C773 C772 1.382 . S
C773 H775 0.952 . S
C774 N769 1.332 . S
C774 C770 1.382 . S
C774 H776 0.948 . S
H775 C773 0.952 . S
H776 C774 0.948 . S
H777 C766 0.952 . S
H778 C768 0.948 . S
C779 C745 1.395 . S
C779 C749 1.391 . S
C780 C742 1.390 . S
C780 C762 1.399 . S
C781 C752 1.392 . S
C781 C754 1.389 . S
C782 C757 1.395 . S
C782 C759 1.391 . S
H783 C743 0.951 . S
H784 C744 0.950 . S
H785 C750 0.949 . S
H786 C751 0.950 . S
H787 C755 0.951 . S
H788 C756 0.950 . S
H789 C760 0.949 . S
H790 C761 0.950 . S
H791 C765 0.950 . S
H792 C767 0.950 . S
H793 C770 0.950 . S
H794 C772 0.950 . S
C795 C796 1.443 . S
C795 N799 1.376 . S
C795 C833 1.389 . S
C796 C795 1.443 . S
C796 C797 1.340 . S
C796 H836 0.951 . S
C797 C796 1.340 . S
C797 C798 1.439 . S
C797 H837 0.950 . S
C798 C797 1.439 . S
C798 N799 1.374 . S
C798 C832 1.395 . S
N799 C795 1.376 . S
N799 C798 1.374 . S
N799 Co800 2.008 . S
Co800 N799 2.008 . S
Co800 N801 1.995 . S
Co800 N806 2.008 . S
Co800 N811 1.995 . S
Co800 N816 2.282 . S
Co800 N822 2.282 . S
N801 Co800 1.995 . S
N801 C802 1.376 . S
N801 C805 1.383 . S
C802 N801 1.376 . S
C802 C803 1.446 . S
C802 C832 1.391 . S
C803 C802 1.446 . S
C803 C804 1.339 . S
C803 H838 0.949 . S
C804 C803 1.339 . S
C804 C805 1.439 . S
C804 H839 0.950 . S
C805 N801 1.383 . S
C805 C804 1.439 . S
C805 C834 1.392 . S
N806 Co800 2.008 . S
N806 C807 1.376 . S
N806 C810 1.374 . S
C807 N806 1.376 . S
C807 C808 1.443 . S
C807 C834 1.389 . S
C808 C807 1.443 . S
C808 C809 1.340 . S
C808 H840 0.951 . S
C809 C808 1.340 . S
C809 C810 1.439 . S
C809 H841 0.950 . S
C810 N806 1.374 . S
C810 C809 1.439 . S
C810 C835 1.395 . S
N811 Co800 1.995 . S
N811 C812 1.376 . S
N811 C815 1.383 . S
C812 N811 1.376 . S
C812 C813 1.446 . S
C812 C835 1.391 . S
C813 C812 1.446 . S
C813 C814 1.339 . S
C813 H842 0.949 . S
C814 C813 1.339 . S
C814 C815 1.439 . S
C814 H843 0.950 . S
C815 N811 1.383 . S
C815 C814 1.439 . S
C815 C833 1.392 . S
N816 Co800 2.282 . S
N816 C819 1.332 . S
N816 C821 1.332 . S
C817 C818 1.386 . S
C817 C820 1.388 . S
C818 C817 1.386 . S
C818 C819 1.382 . S
C818 H844 0.950 . S
C819 N816 1.332 . S
C819 C818 1.382 . S
C819 H830 0.952 . S
C820 C817 1.388 . S
C820 C821 1.382 . S
C820 H845 0.950 . S
C821 N816 1.332 . S
C821 C820 1.382 . S
C821 H831 0.948 . S
N822 Co800 2.282 . S
N822 C826 1.332 . S
N822 C827 1.332 . S
C823 C824 1.388 . S
C823 C827 1.382 . S
C823 H846 0.950 . S
C824 C823 1.388 . S
C824 C825 1.386 . S
C825 C824 1.386 . S
C825 C826 1.382 . S
C825 H847 0.950 . S
C826 N822 1.332 . S
C826 C825 1.382 . S
C826 H828 0.952 . S
C827 N822 1.332 . S
C827 C823 1.382 . S
C827 H829 0.948 . S
H828 C826 0.952 . S
H829 C827 0.948 . S
H830 C819 0.952 . S
H831 C821 0.948 . S
C832 C798 1.395 . S
C832 C802 1.391 . S
C833 C795 1.389 . S
C833 C815 1.392 . S
C834 C805 1.392 . S
C834 C807 1.389 . S
C835 C810 1.395 . S
C835 C812 1.391 . S
H836 C796 0.951 . S
H837 C797 0.950 . S
H838 C803 0.949 . S
H839 C804 0.950 . S
H840 C808 0.951 . S
H841 C809 0.950 . S
H842 C813 0.949 . S
H843 C814 0.950 . S
H844 C818 0.950 . S
H845 C820 0.950 . S
H846 C823 0.950 . S
H847 C825 0.950 . S
H848 C856 0.929 . S
H849 C858 0.930 . S
H850 C860 0.930 . S
H851 C863 0.929 . S
H852 C866 0.930 . S
H853 C868 0.960 . S
H854 C868 0.960 . S
H855 C868 0.960 . S
C856 H848 0.929 . S
C856 C857 1.377 . S
C856 C858 1.384 . S
C857 C856 1.377 . S
C857 C863 1.390 . S
C858 H849 0.930 . S
C858 C856 1.384 . S
C858 C859 1.372 . S
C859 C858 1.372 . S
C859 C860 1.400 . S
C859 C864 1.490 . S
C860 H850 0.930 . S
C860 C859 1.400 . S
C860 C863 1.386 . S
H861 C877 0.930 . S
H862 C878 0.931 . S
C863 H851 0.929 . S
C863 C857 1.390 . S
C863 C860 1.386 . S
C864 C859 1.490 . S
C864 C866 1.395 . S
C864 C867 1.403 . S
H865 C871 0.930 . S
C866 H852 0.930 . S
C866 C864 1.395 . S
C866 C869 1.403 . S
C867 C864 1.403 . S
C867 C868 1.524 . S
C867 C871 1.400 . S
C868 H853 0.960 . S
C868 H854 0.960 . S
C868 H855 0.960 . S
C868 C867 1.524 . S
C869 C866 1.403 . S
C869 C870 1.392 . S
C869 C873 1.495 . S
C870 C869 1.392 . S
C870 C871 1.385 . S
C870 C872 1.478 . S
C871 H865 0.930 . S
C871 C867 1.400 . S
C871 C870 1.385 . S
C872 C870 1.478 . S
C872 C874 1.381 . S
C872 C878 1.383 . S
C873 C869 1.495 . S
C873 H879 0.959 . S
C873 H880 0.961 . S
C873 H881 0.960 . S
C874 C872 1.381 . S
C874 C875 1.394 . S
C874 H882 0.930 . S
C875 C874 1.394 . S
C875 C876 1.383 . S
C875 H883 0.929 . S
C876 C875 1.383 . S
C876 C877 1.377 . S
C877 H861 0.930 . S
C877 C876 1.377 . S
C877 C878 1.379 . S
C878 H862 0.931 . S
C878 C872 1.383 . S
C878 C877 1.379 . S
H879 C873 0.959 . S
H880 C873 0.961 . S
H881 C873 0.960 . S
H882 C874 0.930 . S
H883 C875 0.929 . S
H884 C892 0.929 . S
H885 C894 0.930 . S
H886 C896 0.930 . S
H887 C899 0.929 . S
H888 C902 0.930 . S
H889 C904 0.960 . S
H890 C904 0.960 . S
H891 C904 0.960 . S
C892 H884 0.929 . S
C892 C893 1.377 . S
C892 C894 1.384 . S
C893 C892 1.377 . S
C893 C899 1.390 . S
C894 H885 0.930 . S
C894 C892 1.384 . S
C894 C895 1.372 . S
C895 C894 1.372 . S
C895 C896 1.400 . S
C895 C900 1.490 . S
C896 H886 0.930 . S
C896 C895 1.400 . S
C896 C899 1.386 . S
H897 C913 0.930 . S
H898 C914 0.931 . S
C899 H887 0.929 . S
C899 C893 1.390 . S
C899 C896 1.386 . S
C900 C895 1.490 . S
C900 C902 1.395 . S
C900 C903 1.403 . S
H901 C907 0.930 . S
C902 H888 0.930 . S
C902 C900 1.395 . S
C902 C905 1.403 . S
C903 C900 1.403 . S
C903 C904 1.524 . S
C903 C907 1.400 . S
C904 H889 0.960 . S
C904 H890 0.960 . S
C904 H891 0.960 . S
C904 C903 1.524 . S
C905 C902 1.403 . S
C905 C906 1.392 . S
C905 C909 1.495 . S
C906 C905 1.392 . S
C906 C907 1.385 . S
C906 C908 1.478 . S
C907 H901 0.930 . S
C907 C903 1.400 . S
C907 C906 1.385 . S
C908 C906 1.478 . S
C908 C910 1.381 . S
C908 C914 1.383 . S
C909 C905 1.495 . S
C909 H915 0.959 . S
C909 H916 0.961 . S
C909 H917 0.960 . S
C910 C908 1.381 . S
C910 C911 1.394 . S
C910 H918 0.930 . S
C911 C910 1.394 . S
C911 C912 1.383 . S
C911 H919 0.929 . S
C912 C911 1.383 . S
C912 C913 1.377 . S
C913 H897 0.930 . S
C913 C912 1.377 . S
C913 C914 1.379 . S
C914 H898 0.931 . S
C914 C908 1.383 . S
C914 C913 1.379 . S
H915 C909 0.959 . S
H916 C909 0.961 . S
H917 C909 0.960 . S
H918 C910 0.930 . S
H919 C911 0.929 . S
H920 C928 0.929 . S
H921 C930 0.930 . S
H922 C932 0.930 . S
H923 C935 0.929 . S
H924 C938 0.930 . S
H925 C940 0.960 . S
H926 C940 0.960 . S
H927 C940 0.960 . S
C928 H920 0.929 . S
C928 C929 1.377 . S
C928 C930 1.384 . S
C929 C928 1.377 . S
C929 C935 1.390 . S
C930 H921 0.930 . S
C930 C928 1.384 . S
C930 C931 1.372 . S
C931 C930 1.372 . S
C931 C932 1.400 . S
C931 C936 1.490 . S
C932 H922 0.930 . S
C932 C931 1.400 . S
C932 C935 1.386 . S
H933 C949 0.930 . S
H934 C950 0.931 . S
C935 H923 0.929 . S
C935 C929 1.390 . S
C935 C932 1.386 . S
C936 C931 1.490 . S
C936 C938 1.395 . S
C936 C939 1.403 . S
H937 C943 0.930 . S
C938 H924 0.930 . S
C938 C936 1.395 . S
C938 C941 1.403 . S
C939 C936 1.403 . S
C939 C940 1.524 . S
C939 C943 1.400 . S
C940 H925 0.960 . S
C940 H926 0.960 . S
C940 H927 0.960 . S
C940 C939 1.524 . S
C941 C938 1.403 . S
C941 C942 1.392 . S
C941 C945 1.495 . S
C942 C941 1.392 . S
C942 C943 1.385 . S
C942 C944 1.478 . S
C943 H937 0.930 . S
C943 C939 1.400 . S
C943 C942 1.385 . S
C944 C942 1.478 . S
C944 C946 1.381 . S
C944 C950 1.383 . S
C945 C941 1.495 . S
C945 H951 0.959 . S
C945 H952 0.961 . S
C945 H953 0.960 . S
C946 C944 1.381 . S
C946 C947 1.394 . S
C946 H954 0.930 . S
C947 C946 1.394 . S
C947 C948 1.383 . S
C947 H955 0.929 . S
C948 C947 1.383 . S
C948 C949 1.377 . S
C949 H933 0.930 . S
C949 C948 1.377 . S
C949 C950 1.379 . S
C950 H934 0.931 . S
C950 C944 1.383 . S
C950 C949 1.379 . S
H951 C945 0.959 . S
H952 C945 0.961 . S
H953 C945 0.960 . S
H954 C946 0.930 . S
H955 C947 0.929 . S
H956 C964 0.929 . S
H957 C966 0.930 . S
H958 C968 0.930 . S
H959 C971 0.929 . S
H960 C974 0.930 . S
H961 C976 0.960 . S
H962 C976 0.960 . S
H963 C976 0.960 . S
C964 H956 0.929 . S
C964 C965 1.377 . S
C964 C966 1.384 . S
C965 C964 1.377 . S
C965 C971 1.390 . S
C966 H957 0.930 . S
C966 C964 1.384 . S
C966 C967 1.372 . S
C967 C966 1.372 . S
C967 C968 1.400 . S
C967 C972 1.490 . S
C968 H958 0.930 . S
C968 C967 1.400 . S
C968 C971 1.386 . S
H969 C985 0.930 . S
H970 C986 0.931 . S
C971 H959 0.929 . S
C971 C965 1.390 . S
C971 C968 1.386 . S
C972 C967 1.490 . S
C972 C974 1.395 . S
C972 C975 1.403 . S
H973 C979 0.930 . S
C974 H960 0.930 . S
C974 C972 1.395 . S
C974 C977 1.403 . S
C975 C972 1.403 . S
C975 C976 1.524 . S
C975 C979 1.400 . S
C976 H961 0.960 . S
C976 H962 0.960 . S
C976 H963 0.960 . S
C976 C975 1.524 . S
C977 C974 1.403 . S
C977 C978 1.392 . S
C977 C981 1.495 . S
C978 C977 1.392 . S
C978 C979 1.385 . S
C978 C980 1.478 . S
C979 H973 0.930 . S
C979 C975 1.400 . S
C979 C978 1.385 . S
C980 C978 1.478 . S
C980 C982 1.381 . S
C980 C986 1.383 . S
C981 C977 1.495 . S
C981 H987 0.959 . S
C981 H988 0.961 . S
C981 H989 0.960 . S
C982 C980 1.381 . S
C982 C983 1.394 . S
C982 H990 0.930 . S
C983 C982 1.394 . S
C983 C984 1.383 . S
C983 H991 0.929 . S
C984 C983 1.383 . S
C984 C985 1.377 . S
C985 H969 0.930 . S
C985 C984 1.377 . S
C985 C986 1.379 . S
C986 H970 0.931 . S
C986 C980 1.383 . S
C986 C985 1.379 . S
H987 C981 0.959 . S
H988 C981 0.961 . S
H989 C981 0.960 . S
H990 C982 0.930 . S
H991 C983 0.929 . S
H992 C1000 0.929 . S
H993 C1002 0.930 . S
H994 C1004 0.930 . S
H995 C1007 0.929 . S
H996 C1010 0.930 . S
H997 C1012 0.960 . S
H998 C1012 0.960 . S
H999 C1012 0.960 . S
C1000 H992 0.929 . S
C1000 C1001 1.377 . S
C1000 C1002 1.384 . S
C1001 C1000 1.377 . S
C1001 C1007 1.390 . S
C1002 H993 0.930 . S
C1002 C1000 1.384 . S
C1002 C1003 1.372 . S
C1003 C1002 1.372 . S
C1003 C1004 1.400 . S
C1003 C1008 1.490 . S
C1004 H994 0.930 . S
C1004 C1003 1.400 . S
C1004 C1007 1.386 . S
H1005 C1021 0.930 . S
H1006 C1022 0.931 . S
C1007 H995 0.929 . S
C1007 C1001 1.390 . S
C1007 C1004 1.386 . S
C1008 C1003 1.490 . S
C1008 C1010 1.395 . S
C1008 C1011 1.403 . S
H1009 C1015 0.930 . S
C1010 H996 0.930 . S
C1010 C1008 1.395 . S
C1010 C1013 1.403 . S
C1011 C1008 1.403 . S
C1011 C1012 1.524 . S
C1011 C1015 1.400 . S
C1012 H997 0.960 . S
C1012 H998 0.960 . S
C1012 H999 0.960 . S
C1012 C1011 1.524 . S
C1013 C1010 1.403 . S
C1013 C1014 1.392 . S
C1013 C1017 1.495 . S
C1014 C1013 1.392 . S
C1014 C1015 1.385 . S
C1014 C1016 1.478 . S
C1015 H1009 0.930 . S
C1015 C1011 1.400 . S
C1015 C1014 1.385 . S
C1016 C1014 1.478 . S
C1016 C1018 1.381 . S
C1016 C1022 1.383 . S
C1017 C1013 1.495 . S
C1017 H1023 0.959 . S
C1017 H1024 0.961 . S
C1017 H1025 0.960 . S
C1018 C1016 1.381 . S
C1018 C1019 1.394 . S
C1018 H1026 0.930 . S
C1019 C1018 1.394 . S
C1019 C1020 1.383 . S
C1019 H1027 0.929 . S
C1020 C1019 1.383 . S
C1020 C1021 1.377 . S
C1021 H1005 0.930 . S
C1021 C1020 1.377 . S
C1021 C1022 1.379 . S
C1022 H1006 0.931 . S
C1022 C1016 1.383 . S
C1022 C1021 1.379 . S
H1023 C1017 0.959 . S
H1024 C1017 0.961 . S
H1025 C1017 0.960 . S
H1026 C1018 0.930 . S
H1027 C1019 0.929 . S
H1028 C1036 0.929 . S
H1029 C1038 0.930 . S
H1030 C1040 0.930 . S
H1031 C1043 0.929 . S
H1032 C1046 0.930 . S
H1033 C1048 0.960 . S
H1034 C1048 0.960 . S
H1035 C1048 0.960 . S
C1036 H1028 0.929 . S
C1036 C1037 1.377 . S
C1036 C1038 1.384 . S
C1037 C1036 1.377 . S
C1037 C1043 1.390 . S
C1038 H1029 0.930 . S
C1038 C1036 1.384 . S
C1038 C1039 1.372 . S
C1039 C1038 1.372 . S
C1039 C1040 1.400 . S
C1039 C1044 1.490 . S
C1040 H1030 0.930 . S
C1040 C1039 1.400 . S
C1040 C1043 1.386 . S
H1041 C1057 0.930 . S
H1042 C1058 0.931 . S
C1043 H1031 0.929 . S
C1043 C1037 1.390 . S
C1043 C1040 1.386 . S
C1044 C1039 1.490 . S
C1044 C1046 1.395 . S
C1044 C1047 1.403 . S
H1045 C1051 0.930 . S
C1046 H1032 0.930 . S
C1046 C1044 1.395 . S
C1046 C1049 1.403 . S
C1047 C1044 1.403 . S
C1047 C1048 1.524 . S
C1047 C1051 1.400 . S
C1048 H1033 0.960 . S
C1048 H1034 0.960 . S
C1048 H1035 0.960 . S
C1048 C1047 1.524 . S
C1049 C1046 1.403 . S
C1049 C1050 1.392 . S
C1049 C1053 1.495 . S
C1050 C1049 1.392 . S
C1050 C1051 1.385 . S
C1050 C1052 1.478 . S
C1051 H1045 0.930 . S
C1051 C1047 1.400 . S
C1051 C1050 1.385 . S
C1052 C1050 1.478 . S
C1052 C1054 1.381 . S
C1052 C1058 1.383 . S
C1053 C1049 1.495 . S
C1053 H1059 0.959 . S
C1053 H1060 0.961 . S
C1053 H1061 0.960 . S
C1054 C1052 1.381 . S
C1054 C1055 1.394 . S
C1054 H1062 0.930 . S
C1055 C1054 1.394 . S
C1055 C1056 1.383 . S
C1055 H1063 0.929 . S
C1056 C1055 1.383 . S
C1056 C1057 1.377 . S
C1057 H1041 0.930 . S
C1057 C1056 1.377 . S
C1057 C1058 1.379 . S
C1058 H1042 0.931 . S
C1058 C1052 1.383 . S
C1058 C1057 1.379 . S
H1059 C1053 0.959 . S
H1060 C1053 0.961 . S
H1061 C1053 0.960 . S
H1062 C1054 0.930 . S
H1063 C1055 0.929 . S
H1064 C1072 0.929 . S
H1065 C1074 0.930 . S
H1066 C1076 0.930 . S
H1067 C1079 0.929 . S
H1068 C1082 0.930 . S
H1069 C1084 0.960 . S
H1070 C1084 0.960 . S
H1071 C1084 0.960 . S
C1072 H1064 0.929 . S
C1072 C1073 1.377 . S
C1072 C1074 1.384 . S
C1073 C1072 1.377 . S
C1073 C1079 1.390 . S
C1074 H1065 0.930 . S
C1074 C1072 1.384 . S
C1074 C1075 1.372 . S
C1075 C1074 1.372 . S
C1075 C1076 1.400 . S
C1075 C1080 1.490 . S
C1076 H1066 0.930 . S
C1076 C1075 1.400 . S
C1076 C1079 1.386 . S
H1077 C1093 0.930 . S
H1078 C1094 0.931 . S
C1079 H1067 0.929 . S
C1079 C1073 1.390 . S
C1079 C1076 1.386 . S
C1080 C1075 1.490 . S
C1080 C1082 1.395 . S
C1080 C1083 1.403 . S
H1081 C1087 0.930 . S
C1082 H1068 0.930 . S
C1082 C1080 1.395 . S
C1082 C1085 1.403 . S
C1083 C1080 1.403 . S
C1083 C1084 1.524 . S
C1083 C1087 1.400 . S
C1084 H1069 0.960 . S
C1084 H1070 0.960 . S
C1084 H1071 0.960 . S
C1084 C1083 1.524 . S
C1085 C1082 1.403 . S
C1085 C1086 1.392 . S
C1085 C1089 1.495 . S
C1086 C1085 1.392 . S
C1086 C1087 1.385 . S
C1086 C1088 1.478 . S
C1087 H1081 0.930 . S
C1087 C1083 1.400 . S
C1087 C1086 1.385 . S
C1088 C1086 1.478 . S
C1088 C1090 1.381 . S
C1088 C1094 1.383 . S
C1089 C1085 1.495 . S
C1089 H1095 0.959 . S
C1089 H1096 0.961 . S
C1089 H1097 0.960 . S
C1090 C1088 1.381 . S
C1090 C1091 1.394 . S
C1090 H1098 0.930 . S
C1091 C1090 1.394 . S
C1091 C1092 1.383 . S
C1091 H1099 0.929 . S
C1092 C1091 1.383 . S
C1092 C1093 1.377 . S
C1093 H1077 0.930 . S
C1093 C1092 1.377 . S
C1093 C1094 1.379 . S
C1094 H1078 0.931 . S
C1094 C1088 1.383 . S
C1094 C1093 1.379 . S
H1095 C1089 0.959 . S
H1096 C1089 0.961 . S
H1097 C1089 0.960 . S
H1098 C1090 0.930 . S
H1099 C1091 0.929 . S
H1100 C1108 0.929 . S
H1101 C1110 0.930 . S
H1102 C1112 0.930 . S
H1103 C1115 0.929 . S
H1104 C1118 0.930 . S
H1105 C1120 0.960 . S
H1106 C1120 0.960 . S
H1107 C1120 0.960 . S
C1108 H1100 0.929 . S
C1108 C1109 1.377 . S
C1108 C1110 1.384 . S
C1109 C1108 1.377 . S
C1109 C1115 1.390 . S
C1110 H1101 0.930 . S
C1110 C1108 1.384 . S
C1110 C1111 1.372 . S
C1111 C1110 1.372 . S
C1111 C1112 1.400 . S
C1111 C1116 1.490 . S
C1112 H1102 0.930 . S
C1112 C1111 1.400 . S
C1112 C1115 1.386 . S
H1113 C1129 0.930 . S
H1114 C1130 0.931 . S
C1115 H1103 0.929 . S
C1115 C1109 1.390 . S
C1115 C1112 1.386 . S
C1116 C1111 1.490 . S
C1116 C1118 1.395 . S
C1116 C1119 1.403 . S
H1117 C1123 0.930 . S
C1118 H1104 0.930 . S
C1118 C1116 1.395 . S
C1118 C1121 1.403 . S
C1119 C1116 1.403 . S
C1119 C1120 1.524 . S
C1119 C1123 1.400 . S
C1120 H1105 0.960 . S
C1120 H1106 0.960 . S
C1120 H1107 0.960 . S
C1120 C1119 1.524 . S
C1121 C1118 1.403 . S
C1121 C1122 1.392 . S
C1121 C1125 1.495 . S
C1122 C1121 1.392 . S
C1122 C1123 1.385 . S
C1122 C1124 1.478 . S
C1123 H1117 0.930 . S
C1123 C1119 1.400 . S
C1123 C1122 1.385 . S
C1124 C1122 1.478 . S
C1124 C1126 1.381 . S
C1124 C1130 1.383 . S
C1125 C1121 1.495 . S
C1125 H1131 0.959 . S
C1125 H1132 0.961 . S
C1125 H1133 0.960 . S
C1126 C1124 1.381 . S
C1126 C1127 1.394 . S
C1126 H1134 0.930 . S
C1127 C1126 1.394 . S
C1127 C1128 1.383 . S
C1127 H1135 0.929 . S
C1128 C1127 1.383 . S
C1128 C1129 1.377 . S
C1129 H1113 0.930 . S
C1129 C1128 1.377 . S
C1129 C1130 1.379 . S
C1130 H1114 0.931 . S
C1130 C1124 1.383 . S
C1130 C1129 1.379 . S
H1131 C1125 0.959 . S
H1132 C1125 0.961 . S
H1133 C1125 0.960 . S
H1134 C1126 0.930 . S
H1135 C1127 0.929 . S
H1136 C1144 0.929 . S
H1137 C1146 0.930 . S
H1138 C1148 0.930 . S
H1139 C1151 0.929 . S
H1140 C1154 0.930 . S
H1141 C1156 0.960 1_565 S
H1142 C1156 0.960 . S
H1143 C1156 0.960 . S
C1144 H1136 0.929 . S
C1144 C1145 1.377 . S
C1144 C1146 1.384 . S
C1145 C1144 1.377 . S
C1145 C1151 1.390 . S
C1146 H1137 0.930 . S
C1146 C1144 1.384 . S
C1146 C1147 1.372 . S
C1147 C1146 1.372 . S
C1147 C1148 1.400 . S
C1147 C1152 1.490 . S
C1148 H1138 0.930 . S
C1148 C1147 1.400 . S
C1148 C1151 1.386 . S
H1149 C1165 0.930 . S
H1150 C1166 0.931 . S
C1151 H1139 0.929 . S
C1151 C1145 1.390 . S
C1151 C1148 1.386 . S
C1152 C1147 1.490 . S
C1152 C1154 1.395 1_455 S
C1152 C1155 1.403 . S
H1153 C1159 0.927 1_455 S
C1154 H1140 0.930 . S
C1154 C1152 1.395 1_655 S
C1154 C1157 1.409 1_545 S
C1155 C1152 1.403 . S
C1155 C1156 1.524 . S
C1155 C1159 1.395 1_445 S
C1156 H1141 0.960 1_545 S
C1156 H1142 0.960 . S
C1156 H1143 0.960 . S
C1156 C1155 1.524 . S
C1157 C1154 1.409 1_565 S
C1157 C1158 1.387 . S
C1157 C1161 1.495 . S
C1158 C1157 1.387 . S
C1158 C1159 1.390 . S
C1158 C1160 1.478 . S
C1159 H1153 0.927 1_655 S
C1159 C1155 1.395 1_665 S
C1159 C1158 1.390 . S
C1160 C1158 1.478 . S
C1160 C1162 1.381 . S
C1160 C1166 1.383 . S
C1161 C1157 1.495 . S
C1161 H1167 0.932 1_565 S
C1161 H1168 0.987 . S
C1161 H1169 0.962 . S
C1162 C1160 1.381 . S
C1162 C1163 1.394 . S
C1162 H1170 0.930 . S
C1163 C1162 1.394 . S
C1163 C1164 1.383 . S
C1163 H1171 0.929 . S
C1164 C1163 1.383 . S
C1164 C1165 1.377 . S
C1165 H1149 0.930 . S
C1165 C1164 1.377 . S
C1165 C1166 1.379 . S
C1166 H1150 0.931 . S
C1166 C1160 1.383 . S
C1166 C1165 1.379 . S
H1167 C1161 0.932 1_545 S
H1168 C1161 0.987 . S
H1169 C1161 0.962 . S
H1170 C1162 0.930 . S
H1171 C1163 0.929 . S
H1172 C1180 0.929 . S
H1173 C1182 0.930 . S
H1174 C1184 0.930 . S
H1175 C1187 0.929 . S
H1176 C1190 0.930 . S
H1177 C1192 0.953 1_455 S
H1178 C1192 0.967 . S
H1179 C1192 0.959 1_455 S
C1180 H1172 0.929 . S
C1180 C1181 1.377 . S
C1180 C1182 1.384 . S
C1181 C1180 1.377 . S
C1181 C1187 1.390 . S
C1182 H1173 0.930 . S
C1182 C1180 1.384 . S
C1182 C1183 1.372 . S
C1183 C1182 1.372 . S
C1183 C1184 1.400 . S
C1183 C1188 1.490 . S
C1184 H1174 0.930 . S
C1184 C1183 1.400 . S
C1184 C1187 1.386 . S
H1185 C1201 0.930 . S
H1186 C1202 0.931 . S
C1187 H1175 0.929 . S
C1187 C1181 1.390 . S
C1187 C1184 1.386 . S
C1188 C1183 1.490 . S
C1188 C1190 1.395 . S
C1188 C1191 1.445 . S
H1189 C1195 0.930 . S
C1190 H1176 0.930 . S
C1190 C1188 1.395 . S
C1190 C1193 1.403 . S
C1191 C1188 1.445 . S
C1191 C1192 1.523 . S
C1191 C1195 1.361 1_655 S
C1192 H1177 0.953 1_655 S
C1192 H1178 0.967 . S
C1192 H1179 0.959 1_655 S
C1192 C1191 1.523 . S
C1193 C1190 1.403 . S
C1193 C1194 1.392 1_655 S
C1193 C1197 1.495 . S
C1194 C1193 1.392 1_455 S
C1194 C1195 1.385 . S
C1194 C1196 1.478 . S
C1195 H1189 0.930 . S
C1195 C1191 1.361 1_455 S
C1195 C1194 1.385 . S
C1196 C1194 1.478 . S
C1196 C1198 1.381 . S
C1196 C1202 1.383 . S
C1197 C1193 1.495 . S
C1197 H1203 0.959 . S
C1197 H1204 0.961 1_655 S
C1197 H1205 0.960 . S
C1198 C1196 1.381 . S
C1198 C1199 1.394 . S
C1198 H1206 0.930 . S
C1199 C1198 1.394 . S
C1199 C1200 1.383 . S
C1199 H1207 0.929 . S
C1200 C1199 1.383 . S
C1200 C1201 1.377 . S
C1201 H1185 0.930 . S
C1201 C1200 1.377 . S
C1201 C1202 1.379 . S
C1202 H1186 0.931 . S
C1202 C1196 1.383 . S
C1202 C1201 1.379 . S
H1203 C1197 0.959 . S
H1204 C1197 0.961 1_455 S
H1205 C1197 0.960 . S
H1206 C1198 0.930 . S
H1207 C1199 0.929 . S
H1208 C1216 0.929 . S
H1209 C1218 0.930 . S
H1210 C1220 0.930 . S
H1211 C1223 0.929 . S
H1212 C1226 0.930 . S
H1213 C1228 0.960 . S
H1214 C1228 0.960 . S
H1215 C1228 0.960 . S
C1216 H1208 0.929 . S
C1216 C1217 1.377 . S
C1216 C1218 1.384 . S
C1217 C1216 1.377 . S
C1217 C1223 1.390 . S
C1218 H1209 0.930 . S
C1218 C1216 1.384 . S
C1218 C1219 1.372 . S
C1219 C1218 1.372 . S
C1219 C1220 1.400 . S
C1219 C1224 1.490 . S
C1220 H1210 0.930 . S
C1220 C1219 1.400 . S
C1220 C1223 1.386 . S
H1221 C1237 0.930 . S
H1222 C1238 0.931 . S
C1223 H1211 0.929 . S
C1223 C1217 1.390 . S
C1223 C1220 1.386 . S
C1224 C1219 1.490 . S
C1224 C1226 1.395 . S
C1224 C1227 1.403 . S
H1225 C1231 0.930 . S
C1226 H1212 0.930 . S
C1226 C1224 1.395 . S
C1226 C1229 1.403 . S
C1227 C1224 1.403 . S
C1227 C1228 1.524 . S
C1227 C1231 1.400 . S
C1228 H1213 0.960 . S
C1228 H1214 0.960 . S
C1228 H1215 0.960 . S
C1228 C1227 1.524 . S
C1229 C1226 1.403 . S
C1229 C1230 1.392 . S
C1229 C1233 1.495 . S
C1230 C1229 1.392 . S
C1230 C1231 1.385 . S
C1230 C1232 1.478 . S
C1231 H1225 0.930 . S
C1231 C1227 1.400 . S
C1231 C1230 1.385 . S
C1232 C1230 1.478 . S
C1232 C1234 1.381 . S
C1232 C1238 1.383 . S
C1233 C1229 1.495 . S
C1233 H1239 0.959 . S
C1233 H1240 0.961 . S
C1233 H1241 0.960 . S
C1234 C1232 1.381 . S
C1234 C1235 1.394 . S
C1234 H1242 0.930 . S
C1235 C1234 1.394 . S
C1235 C1236 1.383 . S
C1235 H1243 0.929 . S
C1236 C1235 1.383 . S
C1236 C1237 1.377 . S
C1237 H1221 0.930 . S
C1237 C1236 1.377 . S
C1237 C1238 1.379 . S
C1238 H1222 0.931 . S
C1238 C1232 1.383 . S
C1238 C1237 1.379 . S
H1239 C1233 0.959 . S
H1240 C1233 0.961 . S
H1241 C1233 0.960 . S
H1242 C1234 0.930 . S
H1243 C1235 0.929 . S
H1244 C1252 0.929 . S
H1245 C1254 0.930 . S
H1246 C1256 0.930 . S
H1247 C1259 0.929 . S
H1248 C1262 0.930 . S
H1249 C1264 0.960 . S
H1250 C1264 0.960 . S
H1251 C1264 0.960 . S
C1252 H1244 0.929 . S
C1252 C1253 1.377 . S
C1252 C1254 1.384 . S
C1253 C1252 1.377 . S
C1253 C1259 1.390 1_554 S
C1254 H1245 0.930 . S
C1254 C1252 1.384 . S
C1254 C1255 1.372 . S
C1255 C1254 1.372 . S
C1255 C1256 1.400 1_554 S
C1255 C1260 1.490 . S
C1256 H1246 0.930 . S
C1256 C1255 1.400 1_556 S
C1256 C1259 1.386 . S
H1257 C1273 0.930 . S
H1258 C1274 0.931 . S
C1259 H1247 0.929 . S
C1259 C1253 1.390 1_556 S
C1259 C1256 1.386 . S
C1260 C1255 1.490 . S
C1260 C1262 1.395 1_565 S
C1260 C1263 1.403 1_554 S
H1261 C1267 0.938 . S
C1262 H1248 0.930 . S
C1262 C1260 1.395 1_545 S
C1262 C1265 1.403 . S
C1263 C1260 1.403 1_556 S
C1263 C1264 1.524 . S
C1263 C1267 1.444 . S
C1264 H1249 0.960 . S
C1264 H1250 0.960 . S
C1264 H1251 0.960 . S
C1264 C1263 1.524 . S
C1265 C1262 1.403 . S
C1265 C1266 1.392 . S
C1265 C1269 1.495 . S
C1266 C1265 1.392 . S
C1266 C1267 1.335 1_544 S
C1266 C1268 1.478 . S
C1267 H1261 0.938 . S
C1267 C1263 1.444 . S
C1267 C1266 1.335 1_566 S
C1268 C1266 1.478 . S
C1268 C1270 1.381 . S
C1268 C1274 1.383 1_554 S
C1269 C1265 1.495 . S
C1269 H1275 0.959 . S
C1269 H1276 0.961 . S
C1269 H1277 0.960 . S
C1270 C1268 1.381 . S
C1270 C1271 1.394 . S
C1270 H1278 0.930 . S
C1271 C1270 1.394 . S
C1271 C1272 1.383 . S
C1271 H1279 0.929 . S
C1272 C1271 1.383 . S
C1272 C1273 1.377 1_554 S
C1273 H1257 0.930 . S
C1273 C1272 1.377 1_556 S
C1273 C1274 1.379 . S
C1274 H1258 0.931 . S
C1274 C1268 1.383 1_556 S
C1274 C1273 1.379 . S
H1275 C1269 0.959 . S
H1276 C1269 0.961 . S
H1277 C1269 0.960 . S
H1278 C1270 0.930 . S
H1279 C1271 0.929 . S
H1280 C1288 0.929 . S
H1281 C1290 0.930 . S
H1282 C1292 0.930 . S
H1283 C1295 0.929 . S
H1284 C1298 0.930 . S
H1285 C1300 0.960 . S
H1286 C1300 0.981 . S
H1287 C1300 0.960 . S
C1288 H1280 0.929 . S
C1288 C1289 1.377 . S
C1288 C1290 1.384 . S
C1289 C1288 1.377 . S
C1289 C1295 1.390 . S
C1290 H1281 0.930 . S
C1290 C1288 1.384 . S
C1290 C1291 1.372 . S
C1291 C1290 1.372 . S
C1291 C1292 1.400 . S
C1291 C1296 1.490 . S
C1292 H1282 0.930 . S
C1292 C1291 1.400 . S
C1292 C1295 1.386 . S
H1293 C1309 0.930 . S
H1294 C1310 0.931 . S
C1295 H1283 0.929 . S
C1295 C1289 1.390 . S
C1295 C1292 1.386 . S
C1296 C1291 1.490 . S
C1296 C1298 1.395 1_455 S
C1296 C1299 1.403 . S
H1297 C1303 0.930 . S
C1298 H1284 0.930 . S
C1298 C1296 1.395 1_655 S
C1298 C1301 1.403 . S
C1299 C1296 1.403 . S
C1299 C1300 1.524 . S
C1299 C1303 1.400 . S
C1300 H1285 0.960 . S
C1300 H1286 0.981 . S
C1300 H1287 0.960 . S
C1300 C1299 1.524 . S
C1301 C1298 1.403 . S
C1301 C1302 1.392 . S
C1301 C1305 1.495 . S
C1302 C1301 1.392 . S
C1302 C1303 1.385 1_655 S
C1302 C1304 1.478 . S
C1303 H1297 0.930 . S
C1303 C1299 1.400 . S
C1303 C1302 1.385 1_455 S
C1304 C1302 1.478 . S
C1304 C1306 1.381 . S
C1304 C1310 1.383 . S
C1305 C1301 1.495 . S
C1305 H1311 0.959 . S
C1305 H1312 0.961 . S
C1305 H1313 0.960 . S
C1306 C1304 1.381 . S
C1306 C1307 1.394 . S
C1306 H1314 0.930 . S
C1307 C1306 1.394 . S
C1307 C1308 1.383 . S
C1307 H1315 0.929 . S
C1308 C1307 1.383 . S
C1308 C1309 1.377 . S
C1309 H1293 0.930 . S
C1309 C1308 1.377 . S
C1309 C1310 1.379 . S
C1310 H1294 0.931 . S
C1310 C1304 1.383 . S
C1310 C1309 1.379 . S
H1311 C1305 0.959 . S
H1312 C1305 0.961 . S
H1313 C1305 0.960 . S
H1314 C1306 0.930 . S
H1315 C1307 0.929 . S
H1316 C1324 0.929 . S
H1317 C1326 0.930 . S
H1318 C1328 0.930 . S
H1319 C1331 0.929 . S
H1320 C1334 0.930 . S
H1321 C1336 0.960 . S
H1322 C1336 0.960 . S
H1323 C1336 0.960 . S
C1324 H1316 0.929 . S
C1324 C1325 1.377 . S
C1324 C1326 1.384 . S
C1325 C1324 1.377 . S
C1325 C1331 1.390 . S
C1326 H1317 0.930 . S
C1326 C1324 1.384 . S
C1326 C1327 1.372 . S
C1327 C1326 1.372 . S
C1327 C1328 1.400 . S
C1327 C1332 1.490 . S
C1328 H1318 0.930 . S
C1328 C1327 1.400 . S
C1328 C1331 1.386 . S
H1329 C1345 0.930 . S
H1330 C1346 0.931 . S
C1331 H1319 0.929 . S
C1331 C1325 1.390 . S
C1331 C1328 1.386 . S
C1332 C1327 1.490 . S
C1332 C1334 1.395 . S
C1332 C1335 1.403 . S
H1333 C1339 0.930 . S
C1334 H1320 0.930 . S
C1334 C1332 1.395 . S
C1334 C1337 1.403 . S
C1335 C1332 1.403 . S
C1335 C1336 1.524 . S
C1335 C1339 1.400 . S
C1336 H1321 0.960 . S
C1336 H1322 0.960 . S
C1336 H1323 0.960 . S
C1336 C1335 1.524 . S
C1337 C1334 1.403 . S
C1337 C1338 1.392 . S
C1337 C1341 1.495 . S
C1338 C1337 1.392 . S
C1338 C1339 1.385 . S
C1338 C1340 1.478 . S
C1339 H1333 0.930 . S
C1339 C1335 1.400 . S
C1339 C1338 1.385 . S
C1340 C1338 1.478 . S
C1340 C1342 1.381 . S
C1340 C1346 1.383 . S
C1341 C1337 1.495 . S
C1341 H1347 0.959 . S
C1341 H1348 0.961 . S
C1341 H1349 0.960 . S
C1342 C1340 1.381 . S
C1342 C1343 1.394 . S
C1342 H1350 0.930 . S
C1343 C1342 1.394 . S
C1343 C1344 1.383 . S
C1343 H1351 0.929 . S
C1344 C1343 1.383 . S
C1344 C1345 1.377 . S
C1345 H1329 0.930 . S
C1345 C1344 1.377 . S
C1345 C1346 1.379 . S
C1346 H1330 0.931 . S
C1346 C1340 1.383 . S
C1346 C1345 1.379 . S
H1347 C1341 0.959 . S
H1348 C1341 0.961 . S
H1349 C1341 0.960 . S
H1350 C1342 0.930 . S
H1351 C1343 0.929 . S
H1352 C1360 0.929 . S
H1353 C1362 0.930 . S
H1354 C1364 0.930 . S
H1355 C1367 0.929 . S
H1356 C1370 0.930 . S
H1357 C1372 0.960 . S
H1358 C1372 0.960 . S
H1359 C1372 0.973 . S
C1360 H1352 0.929 . S
C1360 C1361 1.377 . S
C1360 C1362 1.384 . S
C1361 C1360 1.377 . S
C1361 C1367 1.390 . S
C1362 H1353 0.930 . S
C1362 C1360 1.384 . S
C1362 C1363 1.372 . S
C1363 C1362 1.372 . S
C1363 C1364 1.400 . S
C1363 C1368 1.490 . S
C1364 H1354 0.930 . S
C1364 C1363 1.400 . S
C1364 C1367 1.386 . S
H1365 C1381 0.930 . S
H1366 C1382 0.931 . S
C1367 H1355 0.929 . S
C1367 C1361 1.390 . S
C1367 C1364 1.386 . S
C1368 C1363 1.490 . S
C1368 C1370 1.395 . S
C1368 C1371 1.403 1_545 S
H1369 C1375 0.930 . S
C1370 H1356 0.930 . S
C1370 C1368 1.395 . S
C1370 C1373 1.403 . S
C1371 C1368 1.403 1_565 S
C1371 C1372 1.524 . S
C1371 C1375 1.400 . S
C1372 H1357 0.960 . S
C1372 H1358 0.960 . S
C1372 H1359 0.973 . S
C1372 C1371 1.524 . S
C1373 C1370 1.403 . S
C1373 C1374 1.392 1_545 S
C1373 C1377 1.495 . S
C1374 C1373 1.392 1_565 S
C1374 C1375 1.385 . S
C1374 C1376 1.478 . S
C1375 H1369 0.930 . S
C1375 C1371 1.400 . S
C1375 C1374 1.385 . S
C1376 C1374 1.478 . S
C1376 C1378 1.381 . S
C1376 C1382 1.383 . S
C1377 C1373 1.495 . S
C1377 H1383 0.959 . S
C1377 H1384 0.961 . S
C1377 H1385 0.960 . S
C1378 C1376 1.381 . S
C1378 C1379 1.394 . S
C1378 H1386 0.930 . S
C1379 C1378 1.394 . S
C1379 C1380 1.383 . S
C1379 H1387 0.929 . S
C1380 C1379 1.383 . S
C1380 C1381 1.377 . S
C1381 H1365 0.930 . S
C1381 C1380 1.377 . S
C1381 C1382 1.379 . S
C1382 H1366 0.931 . S
C1382 C1376 1.383 . S
C1382 C1381 1.379 . S
H1383 C1377 0.959 . S
H1384 C1377 0.961 . S
H1385 C1377 0.960 . S
H1386 C1378 0.930 . S
H1387 C1379 0.929 . S
H1388 C1396 0.929 . S
H1389 C1398 0.930 . S
H1390 C1400 0.930 . S
H1391 C1403 0.929 . S
H1392 C1406 0.930 . S
H1393 C1408 0.960 . S
H1394 C1408 0.960 . S
H1395 C1408 0.960 . S
C1396 H1388 0.929 . S
C1396 C1397 1.377 . S
C1396 C1398 1.384 . S
C1397 C1396 1.377 . S
C1397 C1403 1.390 . S
C1398 H1389 0.930 . S
C1398 C1396 1.384 . S
C1398 C1399 1.372 . S
C1399 C1398 1.372 . S
C1399 C1400 1.400 . S
C1399 C1404 1.490 . S
C1400 H1390 0.930 . S
C1400 C1399 1.400 . S
C1400 C1403 1.386 . S
H1401 C1417 0.930 . S
H1402 C1418 0.931 . S
C1403 H1391 0.929 . S
C1403 C1397 1.390 . S
C1403 C1400 1.386 . S
C1404 C1399 1.490 . S
C1404 C1406 1.395 1_545 S
C1404 C1407 1.403 1_455 S
H1405 C1411 0.930 . S
C1406 H1392 0.930 . S
C1406 C1404 1.395 1_565 S
C1406 C1409 1.403 . S
C1407 C1404 1.403 1_655 S
C1407 C1408 1.524 . S
C1407 C1411 1.400 . S
C1408 H1393 0.960 . S
C1408 H1394 0.960 . S
C1408 H1395 0.960 . S
C1408 C1407 1.524 . S
C1409 C1406 1.403 . S
C1409 C1410 1.392 1_455 S
C1409 C1413 1.495 . S
C1410 C1409 1.392 1_655 S
C1410 C1411 1.385 1_565 S
C1410 C1412 1.478 . S
C1411 H1405 0.930 . S
C1411 C1407 1.400 . S
C1411 C1410 1.385 1_545 S
C1412 C1410 1.478 . S
C1412 C1414 1.381 . S
C1412 C1418 1.383 . S
C1413 C1409 1.495 . S
C1413 H1419 0.959 . S
C1413 H1420 0.961 . S
C1413 H1421 0.960 . S
C1414 C1412 1.381 . S
C1414 C1415 1.394 . S
C1414 H1422 0.930 . S
C1415 C1414 1.394 . S
C1415 C1416 1.383 . S
C1415 H1423 0.929 . S
C1416 C1415 1.383 . S
C1416 C1417 1.377 . S
C1417 H1401 0.930 . S
C1417 C1416 1.377 . S
C1417 C1418 1.379 . S
C1418 H1402 0.931 . S
C1418 C1412 1.383 . S
C1418 C1417 1.379 . S
H1419 C1413 0.959 . S
H1420 C1413 0.961 . S
H1421 C1413 0.960 . S
H1422 C1414 0.930 . S
H1423 C1415 0.929 . S
H1424 C1432 0.929 . S
H1425 C1434 0.930 . S
H1426 C1436 0.930 . S
H1427 C1439 0.929 . S
H1428 C1442 0.930 . S
H1429 C1444 0.960 . S
H1430 C1444 0.960 . S
H1431 C1444 0.960 . S
C1432 H1424 0.929 . S
C1432 C1433 1.377 . S
C1432 C1434 1.384 . S
C1433 C1432 1.377 . S
C1433 C1439 1.390 . S
C1434 H1425 0.930 . S
C1434 C1432 1.384 . S
C1434 C1435 1.372 . S
C1435 C1434 1.372 . S
C1435 C1436 1.400 . S
C1435 C1440 1.490 . S
C1436 H1426 0.930 . S
C1436 C1435 1.400 . S
C1436 C1439 1.386 . S
H1437 C1453 0.930 . S
H1438 C1454 0.931 . S
C1439 H1427 0.929 . S
C1439 C1433 1.390 . S
C1439 C1436 1.386 . S
C1440 C1435 1.490 . S
C1440 C1442 1.395 . S
C1440 C1443 1.403 . S
H1441 C1447 0.930 . S
C1442 H1428 0.930 . S
C1442 C1440 1.395 . S
C1442 C1445 1.403 . S
C1443 C1440 1.403 . S
C1443 C1444 1.524 . S
C1443 C1447 1.400 . S
C1444 H1429 0.960 . S
C1444 H1430 0.960 . S
C1444 H1431 0.960 . S
C1444 C1443 1.524 . S
C1445 C1442 1.403 . S
C1445 C1446 1.392 . S
C1445 C1449 1.495 . S
C1446 C1445 1.392 . S
C1446 C1447 1.385 . S
C1446 C1448 1.478 . S
C1447 H1441 0.930 . S
C1447 C1443 1.400 . S
C1447 C1446 1.385 . S
C1448 C1446 1.478 . S
C1448 C1450 1.381 . S
C1448 C1454 1.383 . S
C1449 C1445 1.495 . S
C1449 H1455 0.959 . S
C1449 H1456 0.961 . S
C1449 H1457 0.960 . S
C1450 C1448 1.381 . S
C1450 C1451 1.394 . S
C1450 H1458 0.930 . S
C1451 C1450 1.394 . S
C1451 C1452 1.383 . S
C1451 H1459 0.929 . S
C1452 C1451 1.383 . S
C1452 C1453 1.377 . S
C1453 H1437 0.930 . S
C1453 C1452 1.377 . S
C1453 C1454 1.379 . S
C1454 H1438 0.931 . S
C1454 C1448 1.383 . S
C1454 C1453 1.379 . S
H1455 C1449 0.959 . S
H1456 C1449 0.961 . S
H1457 C1449 0.960 . S
H1458 C1450 0.930 . S
H1459 C1451 0.929 . S
H1460 C1468 0.929 . S
H1461 C1470 0.930 . S
H1462 C1472 0.930 . S
H1463 C1475 0.929 . S
H1464 C1478 0.930 . S
H1465 C1480 0.960 . S
H1466 C1480 0.960 . S
H1467 C1480 0.960 . S
C1468 H1460 0.929 . S
C1468 C1469 1.377 . S
C1468 C1470 1.384 . S
C1469 C1468 1.377 . S
C1469 C1475 1.390 . S
C1470 H1461 0.930 . S
C1470 C1468 1.384 . S
C1470 C1471 1.372 . S
C1471 C1470 1.372 . S
C1471 C1472 1.400 . S
C1471 C1476 1.490 . S
C1472 H1462 0.930 . S
C1472 C1471 1.400 . S
C1472 C1475 1.386 . S
H1473 C1489 0.930 . S
H1474 C1490 0.931 . S
C1475 H1463 0.929 . S
C1475 C1469 1.390 . S
C1475 C1472 1.386 . S
C1476 C1471 1.490 . S
C1476 C1478 1.395 . S
C1476 C1479 1.403 . S
H1477 C1483 0.930 . S
C1478 H1464 0.930 . S
C1478 C1476 1.395 . S
C1478 C1481 1.403 . S
C1479 C1476 1.403 . S
C1479 C1480 1.524 . S
C1479 C1483 1.400 . S
C1480 H1465 0.960 . S
C1480 H1466 0.960 . S
C1480 H1467 0.960 . S
C1480 C1479 1.524 . S
C1481 C1478 1.403 . S
C1481 C1482 1.392 . S
C1481 C1485 1.495 . S
C1482 C1481 1.392 . S
C1482 C1483 1.385 . S
C1482 C1484 1.478 . S
C1483 H1477 0.930 . S
C1483 C1479 1.400 . S
C1483 C1482 1.385 . S
C1484 C1482 1.478 . S
C1484 C1486 1.381 . S
C1484 C1490 1.383 . S
C1485 C1481 1.495 . S
C1485 H1491 0.959 . S
C1485 H1492 0.961 . S
C1485 H1493 0.960 . S
C1486 C1484 1.381 . S
C1486 C1487 1.394 . S
C1486 H1494 0.930 . S
C1487 C1486 1.394 . S
C1487 C1488 1.383 . S
C1487 H1495 0.929 . S
C1488 C1487 1.383 . S
C1488 C1489 1.377 . S
C1489 H1473 0.930 . S
C1489 C1488 1.377 . S
C1489 C1490 1.379 . S
C1490 H1474 0.931 . S
C1490 C1484 1.383 . S
C1490 C1489 1.379 . S
H1491 C1485 0.959 . S
H1492 C1485 0.961 . S
H1493 C1485 0.960 . S
H1494 C1486 0.930 . S
H1495 C1487 0.929 . S
H1496 C1504 0.929 . S
H1497 C1506 0.930 . S
H1498 C1508 0.930 . S
H1499 C1511 0.929 . S
H1500 C1514 0.930 . S
H1501 C1516 0.960 . S
H1502 C1516 0.960 . S
H1503 C1516 0.960 . S
C1504 H1496 0.929 . S
C1504 C1505 1.377 . S
C1504 C1506 1.384 . S
C1505 C1504 1.377 . S
C1505 C1511 1.390 . S
C1506 H1497 0.930 . S
C1506 C1504 1.384 . S
C1506 C1507 1.372 . S
C1507 C1506 1.372 . S
C1507 C1508 1.400 . S
C1507 C1512 1.490 . S
C1508 H1498 0.930 . S
C1508 C1507 1.400 . S
C1508 C1511 1.386 . S
H1509 C1525 0.930 . S
H1510 C1526 0.932 . S
C1511 H1499 0.929 . S
C1511 C1505 1.390 . S
C1511 C1508 1.386 . S
C1512 C1507 1.490 . S
C1512 C1514 1.395 . S
C1512 C1515 1.403 . S
H1513 C1519 0.930 . S
C1514 H1500 0.930 . S
C1514 C1512 1.395 . S
C1514 C1517 1.403 . S
C1515 C1512 1.403 . S
C1515 C1516 1.524 . S
C1515 C1519 1.400 . S
C1516 H1501 0.960 . S
C1516 H1502 0.960 . S
C1516 H1503 0.960 . S
C1516 C1515 1.524 . S
C1517 C1514 1.403 . S
C1517 C1518 1.392 . S
C1517 C1521 1.495 . S
C1518 C1517 1.392 . S
C1518 C1519 1.385 . S
C1518 C1520 1.478 1_554 S
C1519 H1513 0.930 . S
C1519 C1515 1.400 . S
C1519 C1518 1.385 . S
C1520 C1518 1.478 1_556 S
C1520 C1522 1.381 . S
C1520 C1526 1.383 . S
C1521 C1517 1.495 . S
C1521 H1527 0.959 . S
C1521 H1528 0.961 . S
C1521 H1529 0.960 . S
C1522 C1520 1.381 . S
C1522 C1523 1.394 . S
C1522 H1530 0.930 . S
C1523 C1522 1.394 . S
C1523 C1524 1.383 . S
C1523 H1531 0.929 . S
C1524 C1523 1.383 . S
C1524 C1525 1.377 . S
C1525 H1509 0.930 . S
C1525 C1524 1.377 . S
C1525 C1526 1.379 . S
C1526 H1510 0.932 . S
C1526 C1520 1.383 . S
C1526 C1525 1.379 . S
H1527 C1521 0.959 . S
H1528 C1521 0.961 . S
H1529 C1521 0.960 . S
H1530 C1522 0.930 . S
H1531 C1523 0.929 . S
H1532 C1540 0.929 . S
H1533 C1542 0.930 . S
H1534 C1544 0.930 . S
H1535 C1547 0.929 . S
H1536 C1550 0.930 . S
H1537 C1552 0.960 . S
H1538 C1552 0.960 . S
H1539 C1552 0.960 . S
C1540 H1532 0.929 . S
C1540 C1541 1.377 . S
C1540 C1542 1.384 . S
C1541 C1540 1.377 . S
C1541 C1547 1.390 . S
C1542 H1533 0.930 . S
C1542 C1540 1.384 . S
C1542 C1543 1.372 . S
C1543 C1542 1.372 . S
C1543 C1544 1.400 . S
C1543 C1548 1.490 . S
C1544 H1534 0.930 . S
C1544 C1543 1.400 . S
C1544 C1547 1.386 . S
H1545 C1561 0.930 . S
H1546 C1562 0.931 . S
C1547 H1535 0.929 . S
C1547 C1541 1.390 . S
C1547 C1544 1.386 . S
C1548 C1543 1.490 . S
C1548 C1550 1.395 . S
C1548 C1551 1.403 . S
H1549 C1555 0.930 . S
C1550 H1536 0.930 . S
C1550 C1548 1.395 . S
C1550 C1553 1.403 . S
C1551 C1548 1.403 . S
C1551 C1552 1.524 . S
C1551 C1555 1.400 . S
C1552 H1537 0.960 . S
C1552 H1538 0.960 . S
C1552 H1539 0.960 . S
C1552 C1551 1.524 . S
C1553 C1550 1.403 . S
C1553 C1554 1.392 . S
C1553 C1557 1.495 . S
C1554 C1553 1.392 . S
C1554 C1555 1.385 . S
C1554 C1556 1.478 . S
C1555 H1549 0.930 . S
C1555 C1551 1.400 . S
C1555 C1554 1.385 . S
C1556 C1554 1.478 . S
C1556 C1558 1.381 . S
C1556 C1562 1.383 . S
C1557 C1553 1.495 . S
C1557 H1563 0.959 . S
C1557 H1564 0.961 . S
C1557 H1565 0.960 . S
C1558 C1556 1.381 . S
C1558 C1559 1.394 . S
C1558 H1566 0.930 . S
C1559 C1558 1.394 . S
C1559 C1560 1.383 . S
C1559 H1567 0.929 . S
C1560 C1559 1.383 . S
C1560 C1561 1.377 . S
C1561 H1545 0.930 . S
C1561 C1560 1.377 . S
C1561 C1562 1.379 . S
C1562 H1546 0.931 . S
C1562 C1556 1.383 . S
C1562 C1561 1.379 . S
H1563 C1557 0.959 . S
H1564 C1557 0.961 . S
H1565 C1557 0.960 . S
H1566 C1558 0.930 . S
H1567 C1559 0.929 . S
H1568 C1576 0.929 . S
H1569 C1578 0.930 . S
H1570 C1580 0.930 . S
H1571 C1583 0.929 . S
H1572 C1586 0.930 . S
H1573 C1588 0.960 . S
H1574 C1588 0.960 . S
H1575 C1588 0.960 . S
C1576 H1568 0.929 . S
C1576 C1577 1.377 . S
C1576 C1578 1.384 . S
C1577 C1576 1.377 . S
C1577 C1583 1.390 . S
C1578 H1569 0.930 . S
C1578 C1576 1.384 . S
C1578 C1579 1.372 . S
C1579 C1578 1.372 . S
C1579 C1580 1.400 . S
C1579 C1584 1.490 . S
C1580 H1570 0.930 . S
C1580 C1579 1.400 . S
C1580 C1583 1.386 . S
H1581 C1597 0.930 . S
H1582 C1598 0.931 . S
C1583 H1571 0.929 . S
C1583 C1577 1.390 . S
C1583 C1580 1.386 . S
C1584 C1579 1.490 . S
C1584 C1586 1.395 . S
C1584 C1587 1.403 . S
H1585 C1591 0.930 . S
C1586 H1572 0.930 . S
C1586 C1584 1.395 . S
C1586 C1589 1.403 . S
C1587 C1584 1.403 . S
C1587 C1588 1.524 . S
C1587 C1591 1.400 . S
C1588 H1573 0.960 . S
C1588 H1574 0.960 . S
C1588 H1575 0.960 . S
C1588 C1587 1.524 . S
C1589 C1586 1.403 . S
C1589 C1590 1.392 . S
C1589 C1593 1.495 . S
C1590 C1589 1.392 . S
C1590 C1591 1.385 . S
C1590 C1592 1.478 . S
C1591 H1585 0.930 . S
C1591 C1587 1.400 . S
C1591 C1590 1.385 . S
C1592 C1590 1.478 . S
C1592 C1594 1.381 . S
C1592 C1598 1.383 . S
C1593 C1589 1.495 . S
C1593 H1599 0.959 . S
C1593 H1600 0.961 . S
C1593 H1601 0.960 . S
C1594 C1592 1.381 . S
C1594 C1595 1.394 . S
C1594 H1602 0.930 . S
C1595 C1594 1.394 . S
C1595 C1596 1.383 . S
C1595 H1603 0.929 . S
C1596 C1595 1.383 . S
C1596 C1597 1.377 . S
C1597 H1581 0.930 . S
C1597 C1596 1.377 . S
C1597 C1598 1.379 . S
C1598 H1582 0.931 . S
C1598 C1592 1.383 . S
C1598 C1597 1.379 . S
H1599 C1593 0.959 . S
H1600 C1593 0.961 . S
H1601 C1593 0.960 . S
H1602 C1594 0.930 . S
H1603 C1595 0.929 . S
H1604 C1612 0.929 . S
H1605 C1614 0.930 . S
H1606 C1616 0.930 . S
H1607 C1619 0.929 . S
H1608 C1622 0.930 . S
H1609 C1624 0.960 . S
H1610 C1624 0.960 . S
H1611 C1624 0.960 . S
C1612 H1604 0.929 . S
C1612 C1613 1.377 . S
C1612 C1614 1.384 . S
C1613 C1612 1.377 . S
C1613 C1619 1.390 . S
C1614 H1605 0.930 . S
C1614 C1612 1.384 . S
C1614 C1615 1.372 . S
C1615 C1614 1.372 . S
C1615 C1616 1.400 . S
C1615 C1620 1.490 . S
C1616 H1606 0.930 . S
C1616 C1615 1.400 . S
C1616 C1619 1.386 . S
H1617 C1633 0.930 . S
H1618 C1634 0.931 . S
C1619 H1607 0.929 . S
C1619 C1613 1.390 . S
C1619 C1616 1.386 . S
C1620 C1615 1.490 . S
C1620 C1622 1.395 . S
C1620 C1623 1.403 . S
H1621 C1627 0.930 . S
C1622 H1608 0.930 . S
C1622 C1620 1.395 . S
C1622 C1625 1.403 . S
C1623 C1620 1.403 . S
C1623 C1624 1.524 . S
C1623 C1627 1.400 . S
C1624 H1609 0.960 . S
C1624 H1610 0.960 . S
C1624 H1611 0.960 . S
C1624 C1623 1.524 . S
C1625 C1622 1.403 . S
C1625 C1626 1.392 . S
C1625 C1629 1.495 . S
C1626 C1625 1.392 . S
C1626 C1627 1.385 . S
C1626 C1628 1.478 1_554 S
C1627 H1621 0.930 . S
C1627 C1623 1.400 . S
C1627 C1626 1.385 . S
C1628 C1626 1.478 1_556 S
C1628 C1630 1.381 . S
C1628 C1634 1.383 . S
C1629 C1625 1.495 . S
C1629 H1635 0.959 . S
C1629 H1636 0.961 . S
C1629 H1637 0.960 . S
C1630 C1628 1.381 . S
C1630 C1631 1.394 . S
C1630 H1638 0.930 . S
C1631 C1630 1.394 . S
C1631 C1632 1.383 . S
C1631 H1639 0.929 . S
C1632 C1631 1.383 . S
C1632 C1633 1.377 . S
C1633 H1617 0.930 . S
C1633 C1632 1.377 . S
C1633 C1634 1.379 . S
C1634 H1618 0.931 . S
C1634 C1628 1.383 . S
C1634 C1633 1.379 . S
H1635 C1629 0.959 . S
H1636 C1629 0.961 . S
H1637 C1629 0.960 . S
H1638 C1630 0.930 . S
H1639 C1631 0.929 . S
H1640 C1648 0.929 . S
H1641 C1650 0.930 . S
H1642 C1652 0.930 . S
H1643 C1655 0.929 . S
H1644 C1658 0.930 . S
H1645 C1660 0.960 . S
H1646 C1660 0.960 . S
H1647 C1660 0.960 . S
C1648 H1640 0.929 . S
C1648 C1649 1.377 . S
C1648 C1650 1.384 . S
C1649 C1648 1.377 . S
C1649 C1655 1.390 . S
C1650 H1641 0.930 . S
C1650 C1648 1.384 . S
C1650 C1651 1.372 . S
C1651 C1650 1.372 . S
C1651 C1652 1.400 . S
C1651 C1656 1.490 . S
C1652 H1642 0.930 . S
C1652 C1651 1.400 . S
C1652 C1655 1.386 . S
H1653 C1669 0.930 . S
H1654 C1670 0.931 . S
C1655 H1643 0.929 . S
C1655 C1649 1.390 . S
C1655 C1652 1.386 . S
C1656 C1651 1.490 . S
C1656 C1658 1.395 . S
C1656 C1659 1.403 . S
H1657 C1663 0.930 . S
C1658 H1644 0.930 . S
C1658 C1656 1.395 . S
C1658 C1661 1.403 . S
C1659 C1656 1.403 . S
C1659 C1660 1.524 . S
C1659 C1663 1.400 . S
C1660 H1645 0.960 . S
C1660 H1646 0.960 . S
C1660 H1647 0.960 . S
C1660 C1659 1.524 . S
C1661 C1658 1.403 . S
C1661 C1662 1.392 . S
C1661 C1665 1.495 . S
C1662 C1661 1.392 . S
C1662 C1663 1.385 . S
C1662 C1664 1.478 . S
C1663 H1657 0.930 . S
C1663 C1659 1.400 . S
C1663 C1662 1.385 . S
C1664 C1662 1.478 . S
C1664 C1666 1.381 . S
C1664 C1670 1.383 . S
C1665 C1661 1.495 . S
C1665 H1671 0.959 . S
C1665 H1672 0.961 . S
C1665 H1673 0.960 . S
C1666 C1664 1.381 . S
C1666 C1667 1.394 . S
C1666 H1674 0.930 . S
C1667 C1666 1.394 . S
C1667 C1668 1.383 . S
C1667 H1675 0.929 . S
C1668 C1667 1.383 . S
C1668 C1669 1.377 . S
C1669 H1653 0.930 . S
C1669 C1668 1.377 . S
C1669 C1670 1.379 . S
C1670 H1654 0.931 . S
C1670 C1664 1.383 . S
C1670 C1669 1.379 . S
H1671 C1665 0.959 . S
H1672 C1665 0.961 . S
H1673 C1665 0.960 . S
H1674 C1666 0.930 . S
H1675 C1667 0.929 . S
H1676 C1684 0.929 . S
H1677 C1686 0.930 . S
H1678 C1688 0.930 . S
H1679 C1691 0.929 . S
H1680 C1694 0.930 . S
H1681 C1696 0.960 . S
H1682 C1696 0.960 . S
H1683 C1696 0.960 . S
C1684 H1676 0.929 . S
C1684 C1685 1.377 . S
C1684 C1686 1.384 . S
C1685 C1684 1.377 . S
C1685 C1691 1.390 . S
C1686 H1677 0.930 . S
C1686 C1684 1.384 . S
C1686 C1687 1.372 . S
C1687 C1686 1.372 . S
C1687 C1688 1.400 . S
C1687 C1692 1.490 . S
C1688 H1678 0.930 . S
C1688 C1687 1.400 . S
C1688 C1691 1.386 . S
H1689 C1705 0.930 . S
H1690 C1706 0.931 . S
C1691 H1679 0.929 . S
C1691 C1685 1.390 . S
C1691 C1688 1.386 . S
C1692 C1687 1.490 . S
C1692 C1694 1.395 . S
C1692 C1695 1.403 . S
H1693 C1699 0.930 . S
C1694 H1680 0.930 . S
C1694 C1692 1.395 . S
C1694 C1697 1.403 . S
C1695 C1692 1.403 . S
C1695 C1696 1.524 . S
C1695 C1699 1.400 . S
C1696 H1681 0.960 . S
C1696 H1682 0.960 . S
C1696 H1683 0.960 . S
C1696 C1695 1.524 . S
C1697 C1694 1.403 . S
C1697 C1698 1.392 . S
C1697 C1701 1.495 . S
C1698 C1697 1.392 . S
C1698 C1699 1.385 . S
C1698 C1700 1.478 . S
C1699 H1693 0.930 . S
C1699 C1695 1.400 . S
C1699 C1698 1.385 . S
C1700 C1698 1.478 . S
C1700 C1702 1.381 . S
C1700 C1706 1.383 . S
C1701 C1697 1.495 . S
C1701 H1707 0.959 . S
C1701 H1708 0.961 . S
C1701 H1709 0.960 . S
C1702 C1700 1.381 . S
C1702 C1703 1.394 . S
C1702 H1710 0.930 . S
C1703 C1702 1.394 . S
C1703 C1704 1.383 . S
C1703 H1711 0.929 . S
C1704 C1703 1.383 . S
C1704 C1705 1.377 . S
C1705 H1689 0.930 . S
C1705 C1704 1.377 . S
C1705 C1706 1.379 . S
C1706 H1690 0.931 . S
C1706 C1700 1.383 . S
C1706 C1705 1.379 . S
H1707 C1701 0.959 . S
H1708 C1701 0.961 . S
H1709 C1701 0.960 . S
H1710 C1702 0.930 . S
H1711 C1703 0.929 . S
H1712 C1720 0.929 . S
H1713 C1722 0.930 . S
H1714 C1724 0.930 . S
H1715 C1727 0.929 . S
H1716 C1730 0.930 1_556 S
H1717 C1732 0.960 1_554 S
H1718 C1732 0.960 . S
H1719 C1732 0.960 . S
C1720 H1712 0.929 . S
C1720 C1721 1.377 . S
C1720 C1722 1.384 . S
C1721 C1720 1.377 . S
C1721 C1727 1.390 . S
C1722 H1713 0.930 . S
C1722 C1720 1.384 . S
C1722 C1723 1.372 . S
C1723 C1722 1.372 . S
C1723 C1724 1.400 . S
C1723 C1728 1.490 . S
C1724 H1714 0.930 . S
C1724 C1723 1.400 . S
C1724 C1727 1.386 . S
H1725 C1741 0.930 . S
H1726 C1742 0.931 . S
C1727 H1715 0.929 . S
C1727 C1721 1.390 . S
C1727 C1724 1.386 . S
C1728 C1723 1.490 . S
C1728 C1730 1.395 1_556 S
C1728 C1731 1.403 1_556 S
H1729 C1735 0.930 . S
C1730 H1716 0.930 1_554 S
C1730 C1728 1.395 1_554 S
C1730 C1733 1.403 . S
C1731 C1728 1.403 1_554 S
C1731 C1732 1.524 1_554 S
C1731 C1735 1.400 . S
C1732 H1717 0.960 1_556 S
C1732 H1718 0.960 . S
C1732 H1719 0.960 . S
C1732 C1731 1.524 1_556 S
C1733 C1730 1.403 . S
C1733 C1734 1.392 . S
C1733 C1737 1.495 . S
C1734 C1733 1.392 . S
C1734 C1735 1.385 . S
C1734 C1736 1.478 . S
C1735 H1729 0.930 . S
C1735 C1731 1.400 . S
C1735 C1734 1.385 . S
C1736 C1734 1.478 . S
C1736 C1738 1.381 . S
C1736 C1742 1.383 . S
C1737 C1733 1.495 . S
C1737 H1743 0.959 . S
C1737 H1744 0.961 . S
C1737 H1745 0.960 . S
C1738 C1736 1.381 . S
C1738 C1739 1.394 . S
C1738 H1746 0.930 . S
C1739 C1738 1.394 . S
C1739 C1740 1.383 . S
C1739 H1747 0.929 . S
C1740 C1739 1.383 . S
C1740 C1741 1.377 . S
C1741 H1725 0.930 . S
C1741 C1740 1.377 . S
C1741 C1742 1.379 . S
C1742 H1726 0.931 . S
C1742 C1736 1.383 . S
C1742 C1741 1.379 . S
H1743 C1737 0.959 . S
H1744 C1737 0.961 . S
H1745 C1737 0.960 . S
H1746 C1738 0.930 . S
H1747 C1739 0.929 . S
H1748 C1756 0.929 . S
H1749 C1758 0.930 . S
H1750 C1760 0.930 . S
H1751 C1763 0.929 . S
H1752 C1766 0.930 . S
H1753 C1768 0.960 . S
H1754 C1768 0.960 . S
H1755 C1768 0.960 . S
C1756 H1748 0.929 . S
C1756 C1757 1.377 . S
C1756 C1758 1.384 . S
C1757 C1756 1.377 . S
C1757 C1763 1.390 . S
C1758 H1749 0.930 . S
C1758 C1756 1.384 . S
C1758 C1759 1.372 . S
C1759 C1758 1.372 . S
C1759 C1760 1.400 . S
C1759 C1764 1.490 . S
C1760 H1750 0.930 . S
C1760 C1759 1.400 . S
C1760 C1763 1.386 . S
H1761 C1777 0.930 . S
H1762 C1778 0.931 . S
C1763 H1751 0.929 . S
C1763 C1757 1.390 . S
C1763 C1760 1.386 . S
C1764 C1759 1.490 . S
C1764 C1766 1.395 . S
C1764 C1767 1.403 . S
H1765 C1771 0.930 . S
C1766 H1752 0.930 . S
C1766 C1764 1.395 . S
C1766 C1769 1.403 . S
C1767 C1764 1.403 . S
C1767 C1768 1.524 . S
C1767 C1771 1.400 . S
C1768 H1753 0.960 . S
C1768 H1754 0.960 . S
C1768 H1755 0.960 . S
C1768 C1767 1.524 . S
C1769 C1766 1.403 . S
C1769 C1770 1.392 . S
C1769 C1773 1.495 . S
C1770 C1769 1.392 . S
C1770 C1771 1.385 . S
C1770 C1772 1.478 . S
C1771 H1765 0.930 . S
C1771 C1767 1.400 . S
C1771 C1770 1.385 . S
C1772 C1770 1.478 . S
C1772 C1774 1.381 . S
C1772 C1778 1.383 . S
C1773 C1769 1.495 . S
C1773 H1779 0.959 . S
C1773 H1780 0.961 . S
C1773 H1781 0.960 . S
C1774 C1772 1.381 . S
C1774 C1775 1.394 . S
C1774 H1782 0.930 . S
C1775 C1774 1.394 . S
C1775 C1776 1.383 . S
C1775 H1783 0.929 . S
C1776 C1775 1.383 . S
C1776 C1777 1.377 . S
C1777 H1761 0.930 . S
C1777 C1776 1.377 . S
C1777 C1778 1.379 . S
C1778 H1762 0.931 . S
C1778 C1772 1.383 . S
C1778 C1777 1.379 . S
H1779 C1773 0.959 . S
H1780 C1773 0.961 . S
H1781 C1773 0.960 . S
H1782 C1774 0.930 . S
H1783 C1775 0.929 . S
H1784 C1792 0.929 . S
H1785 C1794 0.930 . S
H1786 C1796 0.930 . S
H1787 C1799 0.929 . S
H1788 C1802 0.930 . S
H1789 C1804 0.960 . S
H1790 C1804 0.960 . S
H1791 C1804 0.960 . S
C1792 H1784 0.929 . S
C1792 C1793 1.377 . S
C1792 C1794 1.384 . S
C1793 C1792 1.377 . S
C1793 C1799 1.390 . S
C1794 H1785 0.930 . S
C1794 C1792 1.384 . S
C1794 C1795 1.372 . S
C1795 C1794 1.372 . S
C1795 C1796 1.400 . S
C1795 C1800 1.490 . S
C1796 H1786 0.930 . S
C1796 C1795 1.400 . S
C1796 C1799 1.386 . S
H1797 C1813 0.930 . S
H1798 C1814 0.931 . S
C1799 H1787 0.929 . S
C1799 C1793 1.390 . S
C1799 C1796 1.386 . S
C1800 C1795 1.490 . S
C1800 C1802 1.395 . S
C1800 C1803 1.403 . S
H1801 C1807 0.930 . S
C1802 H1788 0.930 . S
C1802 C1800 1.395 . S
C1802 C1805 1.403 . S
C1803 C1800 1.403 . S
C1803 C1804 1.524 . S
C1803 C1807 1.400 . S
C1804 H1789 0.960 . S
C1804 H1790 0.960 . S
C1804 H1791 0.960 . S
C1804 C1803 1.524 . S
C1805 C1802 1.403 . S
C1805 C1806 1.392 . S
C1805 C1809 1.495 . S
C1806 C1805 1.392 . S
C1806 C1807 1.385 . S
C1806 C1808 1.478 . S
C1807 H1801 0.930 . S
C1807 C1803 1.400 . S
C1807 C1806 1.385 . S
C1808 C1806 1.478 . S
C1808 C1810 1.381 . S
C1808 C1814 1.383 . S
C1809 C1805 1.495 . S
C1809 H1815 0.959 . S
C1809 H1816 0.961 . S
C1809 H1817 0.960 . S
C1810 C1808 1.381 . S
C1810 C1811 1.394 . S
C1810 H1818 0.930 . S
C1811 C1810 1.394 . S
C1811 C1812 1.383 . S
C1811 H1819 0.929 . S
C1812 C1811 1.383 . S
C1812 C1813 1.377 . S
C1813 H1797 0.930 . S
C1813 C1812 1.377 . S
C1813 C1814 1.379 . S
C1814 H1798 0.931 . S
C1814 C1808 1.383 . S
C1814 C1813 1.379 . S
H1815 C1809 0.959 . S
H1816 C1809 0.961 . S
H1817 C1809 0.960 . S
H1818 C1810 0.930 . S
H1819 C1811 0.929 . S
H1820 C1828 0.929 . S
H1821 C1830 0.930 . S
H1822 C1832 0.930 . S
H1823 C1835 0.929 . S
H1824 C1838 0.930 . S
H1825 C1840 0.960 . S
H1826 C1840 0.960 . S
H1827 C1840 0.960 . S
C1828 H1820 0.929 . S
C1828 C1829 1.377 . S
C1828 C1830 1.384 . S
C1829 C1828 1.377 . S
C1829 C1835 1.390 . S
C1830 H1821 0.930 . S
C1830 C1828 1.384 . S
C1830 C1831 1.372 . S
C1831 C1830 1.372 . S
C1831 C1832 1.400 . S
C1831 C1836 1.490 . S
C1832 H1822 0.930 . S
C1832 C1831 1.400 . S
C1832 C1835 1.386 . S
H1833 C1849 0.930 . S
H1834 C1850 0.931 . S
C1835 H1823 0.929 . S
C1835 C1829 1.390 . S
C1835 C1832 1.386 . S
C1836 C1831 1.490 . S
C1836 C1838 1.395 . S
C1836 C1839 1.403 . S
H1837 C1843 0.930 . S
C1838 H1824 0.930 . S
C1838 C1836 1.395 . S
C1838 C1841 1.403 . S
C1839 C1836 1.403 . S
C1839 C1840 1.524 . S
C1839 C1843 1.400 . S
C1840 H1825 0.960 . S
C1840 H1826 0.960 . S
C1840 H1827 0.960 . S
C1840 C1839 1.524 . S
C1841 C1838 1.403 . S
C1841 C1842 1.392 . S
C1841 C1845 1.495 . S
C1842 C1841 1.392 . S
C1842 C1843 1.385 . S
C1842 C1844 1.478 . S
C1843 H1837 0.930 . S
C1843 C1839 1.400 . S
C1843 C1842 1.385 . S
C1844 C1842 1.478 . S
C1844 C1846 1.381 . S
C1844 C1850 1.383 . S
C1845 C1841 1.495 . S
C1845 H1851 0.959 . S
C1845 H1852 0.961 . S
C1845 H1853 0.960 . S
C1846 C1844 1.381 . S
C1846 C1847 1.394 . S
C1846 H1854 0.930 . S
C1847 C1846 1.394 . S
C1847 C1848 1.383 . S
C1847 H1855 0.929 . S
C1848 C1847 1.383 . S
C1848 C1849 1.377 . S
C1849 H1833 0.930 . S
C1849 C1848 1.377 . S
C1849 C1850 1.379 . S
C1850 H1834 0.931 . S
C1850 C1844 1.383 . S
C1850 C1849 1.379 . S
H1851 C1845 0.959 . S
H1852 C1845 0.961 . S
H1853 C1845 0.960 . S
H1854 C1846 0.930 . S
H1855 C1847 0.929 . S
H1856 C1864 0.929 . S
H1857 C1866 0.930 . S
H1858 C1868 0.930 . S
H1859 C1871 0.929 . S
H1860 C1874 0.930 . S
H1861 C1876 0.960 . S
H1862 C1876 0.960 . S
H1863 C1876 0.960 . S
C1864 H1856 0.929 . S
C1864 C1865 1.377 . S
C1864 C1866 1.384 . S
C1865 C1864 1.377 . S
C1865 C1871 1.390 . S
C1866 H1857 0.930 . S
C1866 C1864 1.384 . S
C1866 C1867 1.372 . S
C1867 C1866 1.372 . S
C1867 C1868 1.400 . S
C1867 C1872 1.490 . S
C1868 H1858 0.930 . S
C1868 C1867 1.400 . S
C1868 C1871 1.386 . S
H1869 C1885 0.930 . S
H1870 C1886 0.931 . S
C1871 H1859 0.929 . S
C1871 C1865 1.390 . S
C1871 C1868 1.386 . S
C1872 C1867 1.490 . S
C1872 C1874 1.395 . S
C1872 C1875 1.403 . S
H1873 C1879 0.930 . S
C1874 H1860 0.930 . S
C1874 C1872 1.395 . S
C1874 C1877 1.403 . S
C1875 C1872 1.403 . S
C1875 C1876 1.524 . S
C1875 C1879 1.400 . S
C1876 H1861 0.960 . S
C1876 H1862 0.960 . S
C1876 H1863 0.960 . S
C1876 C1875 1.524 . S
C1877 C1874 1.403 . S
C1877 C1878 1.392 . S
C1877 C1881 1.495 . S
C1878 C1877 1.392 . S
C1878 C1879 1.385 . S
C1878 C1880 1.478 . S
C1879 H1873 0.930 . S
C1879 C1875 1.400 . S
C1879 C1878 1.385 . S
C1880 C1878 1.478 . S
C1880 C1882 1.381 . S
C1880 C1886 1.383 . S
C1881 C1877 1.495 . S
C1881 H1887 0.959 . S
C1881 H1888 0.961 . S
C1881 H1889 0.960 . S
C1882 C1880 1.381 . S
C1882 C1883 1.394 . S
C1882 H1890 0.930 . S
C1883 C1882 1.394 . S
C1883 C1884 1.383 . S
C1883 H1891 0.929 . S
C1884 C1883 1.383 . S
C1884 C1885 1.377 . S
C1885 H1869 0.930 . S
C1885 C1884 1.377 . S
C1885 C1886 1.379 . S
C1886 H1870 0.931 . S
C1886 C1880 1.383 . S
C1886 C1885 1.379 . S
H1887 C1881 0.959 . S
H1888 C1881 0.961 . S
H1889 C1881 0.960 . S
H1890 C1882 0.930 . S
H1891 C1883 0.929 . S
H1892 C1900 0.929 . S
H1893 C1902 0.930 . S
H1894 C1904 0.930 . S
H1895 C1907 0.929 . S
H1896 C1910 0.930 . S
H1897 C1912 0.960 . S
H1898 C1912 0.960 . S
H1899 C1912 0.960 . S
C1900 H1892 0.929 . S
C1900 C1901 1.377 . S
C1900 C1902 1.384 . S
C1901 C1900 1.377 . S
C1901 C1907 1.390 . S
C1902 H1893 0.930 . S
C1902 C1900 1.384 . S
C1902 C1903 1.372 . S
C1903 C1902 1.372 . S
C1903 C1904 1.400 . S
C1903 C1908 1.490 . S
C1904 H1894 0.930 . S
C1904 C1903 1.400 . S
C1904 C1907 1.386 . S
H1905 C1921 0.930 . S
H1906 C1922 0.931 . S
C1907 H1895 0.929 . S
C1907 C1901 1.390 . S
C1907 C1904 1.386 . S
C1908 C1903 1.490 . S
C1908 C1910 1.395 . S
C1908 C1911 1.403 . S
H1909 C1915 0.930 . S
C1910 H1896 0.930 . S
C1910 C1908 1.395 . S
C1910 C1913 1.403 . S
C1911 C1908 1.403 . S
C1911 C1912 1.524 . S
C1911 C1915 1.400 . S
C1912 H1897 0.960 . S
C1912 H1898 0.960 . S
C1912 H1899 0.960 . S
C1912 C1911 1.524 . S
C1913 C1910 1.403 . S
C1913 C1914 1.392 . S
C1913 C1917 1.495 . S
C1914 C1913 1.392 . S
C1914 C1915 1.385 . S
C1914 C1916 1.478 . S
C1915 H1909 0.930 . S
C1915 C1911 1.400 . S
C1915 C1914 1.385 . S
C1916 C1914 1.478 . S
C1916 C1918 1.381 . S
C1916 C1922 1.383 . S
C1917 C1913 1.495 . S
C1917 H1923 0.959 . S
C1917 H1924 0.961 . S
C1917 H1925 0.960 . S
C1918 C1916 1.381 . S
C1918 C1919 1.394 . S
C1918 H1926 0.930 . S
C1919 C1918 1.394 . S
C1919 C1920 1.383 . S
C1919 H1927 0.929 . S
C1920 C1919 1.383 . S
C1920 C1921 1.377 . S
C1921 H1905 0.930 . S
C1921 C1920 1.377 . S
C1921 C1922 1.379 . S
C1922 H1906 0.931 . S
C1922 C1916 1.383 . S
C1922 C1921 1.379 . S
H1923 C1917 0.959 . S
H1924 C1917 0.961 . S
H1925 C1917 0.960 . S
H1926 C1918 0.930 . S
H1927 C1919 0.929 . S
H1928 C1936 0.929 . S
H1929 C1938 0.930 . S
H1930 C1940 0.930 . S
H1931 C1943 0.929 . S
H1932 C1946 0.930 . S
H1933 C1948 0.960 . S
H1934 C1948 0.960 . S
H1935 C1948 0.960 . S
C1936 H1928 0.929 . S
C1936 C1937 1.377 . S
C1936 C1938 1.384 . S
C1937 C1936 1.377 . S
C1937 C1943 1.390 . S
C1938 H1929 0.930 . S
C1938 C1936 1.384 . S
C1938 C1939 1.372 . S
C1939 C1938 1.372 . S
C1939 C1940 1.400 . S
C1939 C1944 1.490 . S
C1940 H1930 0.930 . S
C1940 C1939 1.400 . S
C1940 C1943 1.386 . S
H1941 C1957 0.930 . S
H1942 C1958 0.931 . S
C1943 H1931 0.929 . S
C1943 C1937 1.390 . S
C1943 C1940 1.386 . S
C1944 C1939 1.490 . S
C1944 C1946 1.395 . S
C1944 C1947 1.403 . S
H1945 C1951 0.930 . S
C1946 H1932 0.930 . S
C1946 C1944 1.395 . S
C1946 C1949 1.403 . S
C1947 C1944 1.403 . S
C1947 C1948 1.524 . S
C1947 C1951 1.400 . S
C1948 H1933 0.960 . S
C1948 H1934 0.960 . S
C1948 H1935 0.960 . S
C1948 C1947 1.524 . S
C1949 C1946 1.403 . S
C1949 C1950 1.392 . S
C1949 C1953 1.495 . S
C1950 C1949 1.392 . S
C1950 C1951 1.385 . S
C1950 C1952 1.478 . S
C1951 H1945 0.930 . S
C1951 C1947 1.400 . S
C1951 C1950 1.385 . S
C1952 C1950 1.478 . S
C1952 C1954 1.381 . S
C1952 C1958 1.383 . S
C1953 C1949 1.495 . S
C1953 H1959 0.959 . S
C1953 H1960 0.961 . S
C1953 H1961 0.960 . S
C1954 C1952 1.381 . S
C1954 C1955 1.394 . S
C1954 H1962 0.930 . S
C1955 C1954 1.394 . S
C1955 C1956 1.383 . S
C1955 H1963 0.929 . S
C1956 C1955 1.383 . S
C1956 C1957 1.377 . S
C1957 H1941 0.930 . S
C1957 C1956 1.377 . S
C1957 C1958 1.379 . S
C1958 H1942 0.931 . S
C1958 C1952 1.383 . S
C1958 C1957 1.379 . S
H1959 C1953 0.959 . S
H1960 C1953 0.961 . S
H1961 C1953 0.960 . S
H1962 C1954 0.930 . S
H1963 C1955 0.929 . S
H1964 C1972 0.929 . S
H1965 C1974 0.930 . S
H1966 C1976 0.930 . S
H1967 C1979 0.929 . S
H1968 C1982 0.930 . S
H1969 C1984 0.960 . S
H1970 C1984 0.960 . S
H1971 C1984 0.960 . S
C1972 H1964 0.929 . S
C1972 C1973 1.377 . S
C1972 C1974 1.384 . S
C1973 C1972 1.377 . S
C1973 C1979 1.390 . S
C1974 H1965 0.930 . S
C1974 C1972 1.384 . S
C1974 C1975 1.372 . S
C1975 C1974 1.372 . S
C1975 C1976 1.400 . S
C1975 C1980 1.490 . S
C1976 H1966 0.930 . S
C1976 C1975 1.400 . S
C1976 C1979 1.386 . S
H1977 C1993 0.930 . S
H1978 C1994 0.931 . S
C1979 H1967 0.929 . S
C1979 C1973 1.390 . S
C1979 C1976 1.386 . S
C1980 C1975 1.490 . S
C1980 C1982 1.395 . S
C1980 C1983 1.403 . S
H1981 C1987 0.921 1_556 S
C1982 H1968 0.930 . S
C1982 C1980 1.395 . S
C1982 C1985 1.395 1_554 S
C1983 C1980 1.403 . S
C1983 C1984 1.524 . S
C1983 C1987 1.400 . S
C1984 H1969 0.960 . S
C1984 H1970 0.960 . S
C1984 H1971 0.960 . S
C1984 C1983 1.524 . S
C1985 C1982 1.395 1_556 S
C1985 C1986 1.396 . S
C1985 C1989 1.500 . S
C1986 C1985 1.396 . S
C1986 C1987 1.385 1_556 S
C1986 C1988 1.478 . S
C1987 H1981 0.921 1_554 S
C1987 C1983 1.400 . S
C1987 C1986 1.385 1_554 S
C1988 C1986 1.478 . S
C1988 C1990 1.381 . S
C1988 C1994 1.383 . S
C1989 C1985 1.500 . S
C1989 H1995 0.959 . S
C1989 H1996 0.961 . S
C1989 H1997 0.960 . S
C1990 C1988 1.381 . S
C1990 C1991 1.394 . S
C1990 H1998 0.930 . S
C1991 C1990 1.394 . S
C1991 C1992 1.383 . S
C1991 H1999 0.929 . S
C1992 C1991 1.383 . S
C1992 C1993 1.377 . S
C1993 H1977 0.930 . S
C1993 C1992 1.377 . S
C1993 C1994 1.379 . S
C1994 H1978 0.931 . S
C1994 C1988 1.383 . S
C1994 C1993 1.379 . S
H1995 C1989 0.959 . S
H1996 C1989 0.961 . S
H1997 C1989 0.960 . S
H1998 C1990 0.930 . S
H1999 C1991 0.929 . S
C857 C356 2.385 . S
C876 C38 2.369 . S
C893 C393 2.314 . S
C912 C75 2.300 . S
C929 C144 2.389 . S
C948 C250 2.372 1_556 S
C965 C181 2.315 . S
C984 C287 2.315 . S
C1001 C462 2.384 . S
C1020 C780 2.366 1_556 S
C1037 C817 2.319 . S
C1056 C499 2.321 . S
C1073 C568 2.384 . S
C1092 C674 2.384 . S
C1109 C605 2.318 . S
C1128 C711 2.321 . S
C1145 C39 2.738 . S
C1164 C569 2.735 . S
C1181 C82 2.053 . S
C1200 C612 2.051 . S
C1217 C145 2.741 . S
C1236 C463 2.747 . S
C1253 C188 2.049 . S
C1272 C506 2.029 . S
C1289 C251 2.737 . S
C1308 C781 2.727 . S
C1325 C824 2.057 . S
C1344 C294 2.068 . S
C1361 C357 2.736 . S
C1380 C675 2.721 . S
C1397 C718 2.050 . S
C1416 C400 2.037 . S
C1433 C728 0.908 . S
C1452 C29 0.919 . S
C1469 C92 0.912 . S
C1488 C771 0.927 . S
C1505 C834 0.911 . S
C1524 C135 0.916 . S
C1541 C665 0.905 . S
C1560 C198 0.894 . S
C1577 C622 0.904 . S
C1596 C241 0.897 . S
C1613 C304 0.903 . S
C1632 C453 0.887 . S
C1649 C347 0.904 . S
C1668 C516 0.887 . S
C1685 C410 0.906 . S
C1704 C559 0.894 . S
C1721 C727 1.726 . S
C1740 C22 1.719 . S
C1757 C91 1.727 . S
C1776 C764 1.719 . S
C1793 C128 1.728 . S
C1812 C833 1.727 . S
C1829 C658 1.725 . S
C1848 C197 1.717 . S
C1865 C621 1.730 . S
C1884 C234 1.732 . S
C1901 C446 1.724 . S
C1920 C303 1.714 . S
C1937 C340 1.728 . S
C1956 C515 1.727 . S
C1973 C552 1.726 . S
C1992 C409 1.719 . S
