# Generated by pormake.
# Topology ana-e, (6)-cn, num edge types: 1
# Building blocks:
#     Node 0, Type 0, BuildingBlock: CUKXOW_clean_sbu_0, # of connection points: 6
#     Node 1, Type 0, BuildingBlock: CUKXOW_clean_sbu_0, # of connection points: 6
#     Node 2, Type 0, BuildingBlock: CUKXOW_clean_sbu_0, # of connection points: 6
#     Node 3, Type 0, BuildingBlock: CUKXOW_clean_sbu_0, # of connection points: 6
#     Node 4, Type 0, BuildingBlock: CUKXOW_clean_sbu_0, # of connection points: 6
#     Node 5, Type 0, BuildingBlock: CUKXOW_clean_sbu_0, # of connection points: 6
#     Node 6, Type 0, BuildingBlock: CUKXOW_clean_sbu_0, # of connection points: 6
#     Node 7, Type 0, BuildingBlock: CUKXOW_clean_sbu_0, # of connection points: 6
#     Node 8, Type 0, BuildingBlock: CUKXOW_clean_sbu_0, # of connection points: 6
#     Node 9, Type 0, BuildingBlock: CUKXOW_clean_sbu_0, # of connection points: 6
#     Node 10, Type 0, BuildingBlock: CUKXOW_clean_sbu_0, # of connection points: 6
#     Node 11, Type 0, BuildingBlock: CUKXOW_clean_sbu_0, # of connection points: 6
#     Node 12, Type 0, BuildingBlock: CUKXOW_clean_sbu_0, # of connection points: 6
#     Node 13, Type 0, BuildingBlock: CUKXOW_clean_sbu_0, # of connection points: 6
#     Node 14, Type 0, BuildingBlock: CUKXOW_clean_sbu_0, # of connection points: 6
#     Node 15, Type 0, BuildingBlock: CUKXOW_clean_sbu_0, # of connection points: 6
#     Node 16, Type 0, BuildingBlock: CUKXOW_clean_sbu_0, # of connection points: 6
#     Node 17, Type 0, BuildingBlock: CUKXOW_clean_sbu_0, # of connection points: 6
#     Node 18, Type 0, BuildingBlock: CUKXOW_clean_sbu_0, # of connection points: 6
#     Node 19, Type 0, BuildingBlock: CUKXOW_clean_sbu_0, # of connection points: 6
#     Node 20, Type 0, BuildingBlock: CUKXOW_clean_sbu_0, # of connection points: 6
#     Node 21, Type 0, BuildingBlock: CUKXOW_clean_sbu_0, # of connection points: 6
#     Node 22, Type 0, BuildingBlock: CUKXOW_clean_sbu_0, # of connection points: 6
#     Node 23, Type 0, BuildingBlock: CUKXOW_clean_sbu_0, # of connection points: 6
#     Node 24, Type 0, BuildingBlock: CUKXOW_clean_sbu_0, # of connection points: 6
#     Node 25, Type 0, BuildingBlock: CUKXOW_clean_sbu_0, # of connection points: 6
#     Node 26, Type 0, BuildingBlock: CUKXOW_clean_sbu_0, # of connection points: 6
#     Node 27, Type 0, BuildingBlock: CUKXOW_clean_sbu_0, # of connection points: 6
#     Node 28, Type 0, BuildingBlock: CUKXOW_clean_sbu_0, # of connection points: 6
#     Node 29, Type 0, BuildingBlock: CUKXOW_clean_sbu_0, # of connection points: 6
#     Node 30, Type 0, BuildingBlock: CUKXOW_clean_sbu_0, # of connection points: 6
#     Node 31, Type 0, BuildingBlock: CUKXOW_clean_sbu_0, # of connection points: 6
#     Node 32, Type 0, BuildingBlock: CUKXOW_clean_sbu_0, # of connection points: 6
#     Node 33, Type 0, BuildingBlock: CUKXOW_clean_sbu_0, # of connection points: 6
#     Node 34, Type 0, BuildingBlock: CUKXOW_clean_sbu_0, # of connection points: 6
#     Node 35, Type 0, BuildingBlock: CUKXOW_clean_sbu_0, # of connection points: 6
#     Node 36, Type 0, BuildingBlock: CUKXOW_clean_sbu_0, # of connection points: 6
#     Node 37, Type 0, BuildingBlock: CUKXOW_clean_sbu_0, # of connection points: 6
#     Node 38, Type 0, BuildingBlock: CUKXOW_clean_sbu_0, # of connection points: 6
#     Node 39, Type 0, BuildingBlock: CUKXOW_clean_sbu_0, # of connection points: 6
#     Node 40, Type 0, BuildingBlock: CUKXOW_clean_sbu_0, # of connection points: 6
#     Node 41, Type 0, BuildingBlock: CUKXOW_clean_sbu_0, # of connection points: 6
#     Node 42, Type 0, BuildingBlock: CUKXOW_clean_sbu_0, # of connection points: 6
#     Node 43, Type 0, BuildingBlock: CUKXOW_clean_sbu_0, # of connection points: 6
#     Node 44, Type 0, BuildingBlock: CUKXOW_clean_sbu_0, # of connection points: 6
#     Node 45, Type 0, BuildingBlock: CUKXOW_clean_sbu_0, # of connection points: 6
#     Node 46, Type 0, BuildingBlock: CUKXOW_clean_sbu_0, # of connection points: 6
#     Node 47, Type 0, BuildingBlock: CUKXOW_clean_sbu_0, # of connection points: 6
#     Node 48, Type 0, BuildingBlock: CUKXOW_clean_sbu_0, # of connection points: 6
#     Node 49, Type 0, BuildingBlock: CUKXOW_clean_sbu_0, # of connection points: 6
#     Node 50, Type 0, BuildingBlock: CUKXOW_clean_sbu_0, # of connection points: 6
#     Node 51, Type 0, BuildingBlock: CUKXOW_clean_sbu_0, # of connection points: 6
#     Node 52, Type 0, BuildingBlock: CUKXOW_clean_sbu_0, # of connection points: 6
#     Node 53, Type 0, BuildingBlock: CUKXOW_clean_sbu_0, # of connection points: 6
#     Node 54, Type 0, BuildingBlock: CUKXOW_clean_sbu_0, # of connection points: 6
#     Node 55, Type 0, BuildingBlock: CUKXOW_clean_sbu_0, # of connection points: 6
#     Node 56, Type 0, BuildingBlock: CUKXOW_clean_sbu_0, # of connection points: 6
#     Node 57, Type 0, BuildingBlock: CUKXOW_clean_sbu_0, # of connection points: 6
#     Node 58, Type 0, BuildingBlock: CUKXOW_clean_sbu_0, # of connection points: 6
#     Node 59, Type 0, BuildingBlock: CUKXOW_clean_sbu_0, # of connection points: 6
#     Node 60, Type 0, BuildingBlock: CUKXOW_clean_sbu_0, # of connection points: 6
#     Node 61, Type 0, BuildingBlock: CUKXOW_clean_sbu_0, # of connection points: 6
#     Node 62, Type 0, BuildingBlock: CUKXOW_clean_sbu_0, # of connection points: 6
#     Node 63, Type 0, BuildingBlock: CUKXOW_clean_sbu_0, # of connection points: 6
#     Node 64, Type 0, BuildingBlock: CUKXOW_clean_sbu_0, # of connection points: 6
#     Node 65, Type 0, BuildingBlock: CUKXOW_clean_sbu_0, # of connection points: 6
#     Node 66, Type 0, BuildingBlock: CUKXOW_clean_sbu_0, # of connection points: 6
#     Node 67, Type 0, BuildingBlock: CUKXOW_clean_sbu_0, # of connection points: 6
#     Node 68, Type 0, BuildingBlock: CUKXOW_clean_sbu_0, # of connection points: 6
#     Node 69, Type 0, BuildingBlock: CUKXOW_clean_sbu_0, # of connection points: 6
#     Node 70, Type 0, BuildingBlock: CUKXOW_clean_sbu_0, # of connection points: 6
#     Node 71, Type 0, BuildingBlock: CUKXOW_clean_sbu_0, # of connection points: 6
#     Node 72, Type 0, BuildingBlock: CUKXOW_clean_sbu_0, # of connection points: 6
#     Node 73, Type 0, BuildingBlock: CUKXOW_clean_sbu_0, # of connection points: 6
#     Node 74, Type 0, BuildingBlock: CUKXOW_clean_sbu_0, # of connection points: 6
#     Node 75, Type 0, BuildingBlock: CUKXOW_clean_sbu_0, # of connection points: 6
#     Node 76, Type 0, BuildingBlock: CUKXOW_clean_sbu_0, # of connection points: 6
#     Node 77, Type 0, BuildingBlock: CUKXOW_clean_sbu_0, # of connection points: 6
#     Node 78, Type 0, BuildingBlock: CUKXOW_clean_sbu_0, # of connection points: 6
#     Node 79, Type 0, BuildingBlock: CUKXOW_clean_sbu_0, # of connection points: 6
#     Node 80, Type 0, BuildingBlock: CUKXOW_clean_sbu_0, # of connection points: 6
#     Node 81, Type 0, BuildingBlock: CUKXOW_clean_sbu_0, # of connection points: 6
#     Node 82, Type 0, BuildingBlock: CUKXOW_clean_sbu_0, # of connection points: 6
#     Node 83, Type 0, BuildingBlock: CUKXOW_clean_sbu_0, # of connection points: 6
#     Node 84, Type 0, BuildingBlock: CUKXOW_clean_sbu_0, # of connection points: 6
#     Node 85, Type 0, BuildingBlock: CUKXOW_clean_sbu_0, # of connection points: 6
#     Node 86, Type 0, BuildingBlock: CUKXOW_clean_sbu_0, # of connection points: 6
#     Node 87, Type 0, BuildingBlock: CUKXOW_clean_sbu_0, # of connection points: 6
#     Node 88, Type 0, BuildingBlock: CUKXOW_clean_sbu_0, # of connection points: 6
#     Node 89, Type 0, BuildingBlock: CUKXOW_clean_sbu_0, # of connection points: 6
#     Node 90, Type 0, BuildingBlock: CUKXOW_clean_sbu_0, # of connection points: 6
#     Node 91, Type 0, BuildingBlock: CUKXOW_clean_sbu_0, # of connection points: 6
#     Node 92, Type 0, BuildingBlock: CUKXOW_clean_sbu_0, # of connection points: 6
#     Node 93, Type 0, BuildingBlock: CUKXOW_clean_sbu_0, # of connection points: 6
#     Node 94, Type 0, BuildingBlock: CUKXOW_clean_sbu_0, # of connection points: 6
#     Node 95, Type 0, BuildingBlock: CUKXOW_clean_sbu_0, # of connection points: 6
#     Edge 96, Type (0, 0), BuildingBlock: XIVTED_clean_linker_0, # of connection points: 2
#     Edge 97, Type (0, 0), BuildingBlock: XIVTED_clean_linker_0, # of connection points: 2
#     Edge 98, Type (0, 0), BuildingBlock: XIVTED_clean_linker_0, # of connection points: 2
#     Edge 99, Type (0, 0), BuildingBlock: XIVTED_clean_linker_0, # of connection points: 2
#     Edge 100, Type (0, 0), BuildingBlock: XIVTED_clean_linker_0, # of connection points: 2
#     Edge 101, Type (0, 0), BuildingBlock: XIVTED_clean_linker_0, # of connection points: 2
#     Edge 102, Type (0, 0), BuildingBlock: XIVTED_clean_linker_0, # of connection points: 2
#     Edge 103, Type (0, 0), BuildingBlock: XIVTED_clean_linker_0, # of connection points: 2
#     Edge 104, Type (0, 0), BuildingBlock: XIVTED_clean_linker_0, # of connection points: 2
#     Edge 105, Type (0, 0), BuildingBlock: XIVTED_clean_linker_0, # of connection points: 2
#     Edge 106, Type (0, 0), BuildingBlock: XIVTED_clean_linker_0, # of connection points: 2
#     Edge 107, Type (0, 0), BuildingBlock: XIVTED_clean_linker_0, # of connection points: 2
#     Edge 108, Type (0, 0), BuildingBlock: XIVTED_clean_linker_0, # of connection points: 2
#     Edge 109, Type (0, 0), BuildingBlock: XIVTED_clean_linker_0, # of connection points: 2
#     Edge 110, Type (0, 0), BuildingBlock: XIVTED_clean_linker_0, # of connection points: 2
#     Edge 111, Type (0, 0), BuildingBlock: XIVTED_clean_linker_0, # of connection points: 2
#     Edge 112, Type (0, 0), BuildingBlock: XIVTED_clean_linker_0, # of connection points: 2
#     Edge 113, Type (0, 0), BuildingBlock: XIVTED_clean_linker_0, # of connection points: 2
#     Edge 114, Type (0, 0), BuildingBlock: XIVTED_clean_linker_0, # of connection points: 2
#     Edge 115, Type (0, 0), BuildingBlock: XIVTED_clean_linker_0, # of connection points: 2
#     Edge 116, Type (0, 0), BuildingBlock: XIVTED_clean_linker_0, # of connection points: 2
#     Edge 117, Type (0, 0), BuildingBlock: XIVTED_clean_linker_0, # of connection points: 2
#     Edge 118, Type (0, 0), BuildingBlock: XIVTED_clean_linker_0, # of connection points: 2
#     Edge 119, Type (0, 0), BuildingBlock: XIVTED_clean_linker_0, # of connection points: 2
#     Edge 120, Type (0, 0), BuildingBlock: XIVTED_clean_linker_0, # of connection points: 2
#     Edge 121, Type (0, 0), BuildingBlock: XIVTED_clean_linker_0, # of connection points: 2
#     Edge 122, Type (0, 0), BuildingBlock: XIVTED_clean_linker_0, # of connection points: 2
#     Edge 123, Type (0, 0), BuildingBlock: XIVTED_clean_linker_0, # of connection points: 2
#     Edge 124, Type (0, 0), BuildingBlock: XIVTED_clean_linker_0, # of connection points: 2
#     Edge 125, Type (0, 0), BuildingBlock: XIVTED_clean_linker_0, # of connection points: 2
#     Edge 126, Type (0, 0), BuildingBlock: XIVTED_clean_linker_0, # of connection points: 2
#     Edge 127, Type (0, 0), BuildingBlock: XIVTED_clean_linker_0, # of connection points: 2
#     Edge 128, Type (0, 0), BuildingBlock: XIVTED_clean_linker_0, # of connection points: 2
#     Edge 129, Type (0, 0), BuildingBlock: XIVTED_clean_linker_0, # of connection points: 2
#     Edge 130, Type (0, 0), BuildingBlock: XIVTED_clean_linker_0, # of connection points: 2
#     Edge 131, Type (0, 0), BuildingBlock: XIVTED_clean_linker_0, # of connection points: 2
#     Edge 132, Type (0, 0), BuildingBlock: XIVTED_clean_linker_0, # of connection points: 2
#     Edge 133, Type (0, 0), BuildingBlock: XIVTED_clean_linker_0, # of connection points: 2
#     Edge 134, Type (0, 0), BuildingBlock: XIVTED_clean_linker_0, # of connection points: 2
#     Edge 135, Type (0, 0), BuildingBlock: XIVTED_clean_linker_0, # of connection points: 2
#     Edge 136, Type (0, 0), BuildingBlock: XIVTED_clean_linker_0, # of connection points: 2
#     Edge 137, Type (0, 0), BuildingBlock: XIVTED_clean_linker_0, # of connection points: 2
#     Edge 138, Type (0, 0), BuildingBlock: XIVTED_clean_linker_0, # of connection points: 2
#     Edge 139, Type (0, 0), BuildingBlock: XIVTED_clean_linker_0, # of connection points: 2
#     Edge 140, Type (0, 0), BuildingBlock: XIVTED_clean_linker_0, # of connection points: 2
#     Edge 141, Type (0, 0), BuildingBlock: XIVTED_clean_linker_0, # of connection points: 2
#     Edge 142, Type (0, 0), BuildingBlock: XIVTED_clean_linker_0, # of connection points: 2
#     Edge 143, Type (0, 0), BuildingBlock: XIVTED_clean_linker_0, # of connection points: 2
#     Edge 144, Type (0, 0), BuildingBlock: XIVTED_clean_linker_0, # of connection points: 2
#     Edge 145, Type (0, 0), BuildingBlock: XIVTED_clean_linker_0, # of connection points: 2
#     Edge 146, Type (0, 0), BuildingBlock: XIVTED_clean_linker_0, # of connection points: 2
#     Edge 147, Type (0, 0), BuildingBlock: XIVTED_clean_linker_0, # of connection points: 2
#     Edge 148, Type (0, 0), BuildingBlock: XIVTED_clean_linker_0, # of connection points: 2
#     Edge 149, Type (0, 0), BuildingBlock: XIVTED_clean_linker_0, # of connection points: 2
#     Edge 150, Type (0, 0), BuildingBlock: XIVTED_clean_linker_0, # of connection points: 2
#     Edge 151, Type (0, 0), BuildingBlock: XIVTED_clean_linker_0, # of connection points: 2
#     Edge 152, Type (0, 0), BuildingBlock: XIVTED_clean_linker_0, # of connection points: 2
#     Edge 153, Type (0, 0), BuildingBlock: XIVTED_clean_linker_0, # of connection points: 2
#     Edge 154, Type (0, 0), BuildingBlock: XIVTED_clean_linker_0, # of connection points: 2
#     Edge 155, Type (0, 0), BuildingBlock: XIVTED_clean_linker_0, # of connection points: 2
#     Edge 156, Type (0, 0), BuildingBlock: XIVTED_clean_linker_0, # of connection points: 2
#     Edge 157, Type (0, 0), BuildingBlock: XIVTED_clean_linker_0, # of connection points: 2
#     Edge 158, Type (0, 0), BuildingBlock: XIVTED_clean_linker_0, # of connection points: 2
#     Edge 159, Type (0, 0), BuildingBlock: XIVTED_clean_linker_0, # of connection points: 2
#     Edge 160, Type (0, 0), BuildingBlock: XIVTED_clean_linker_0, # of connection points: 2
#     Edge 161, Type (0, 0), BuildingBlock: XIVTED_clean_linker_0, # of connection points: 2
#     Edge 162, Type (0, 0), BuildingBlock: XIVTED_clean_linker_0, # of connection points: 2
#     Edge 163, Type (0, 0), BuildingBlock: XIVTED_clean_linker_0, # of connection points: 2
#     Edge 164, Type (0, 0), BuildingBlock: XIVTED_clean_linker_0, # of connection points: 2
#     Edge 165, Type (0, 0), BuildingBlock: XIVTED_clean_linker_0, # of connection points: 2
#     Edge 166, Type (0, 0), BuildingBlock: XIVTED_clean_linker_0, # of connection points: 2
#     Edge 167, Type (0, 0), BuildingBlock: XIVTED_clean_linker_0, # of connection points: 2
#     Edge 168, Type (0, 0), BuildingBlock: XIVTED_clean_linker_0, # of connection points: 2
#     Edge 169, Type (0, 0), BuildingBlock: XIVTED_clean_linker_0, # of connection points: 2
#     Edge 170, Type (0, 0), BuildingBlock: XIVTED_clean_linker_0, # of connection points: 2
#     Edge 171, Type (0, 0), BuildingBlock: XIVTED_clean_linker_0, # of connection points: 2
#     Edge 172, Type (0, 0), BuildingBlock: XIVTED_clean_linker_0, # of connection points: 2
#     Edge 173, Type (0, 0), BuildingBlock: XIVTED_clean_linker_0, # of connection points: 2
#     Edge 174, Type (0, 0), BuildingBlock: XIVTED_clean_linker_0, # of connection points: 2
#     Edge 175, Type (0, 0), BuildingBlock: XIVTED_clean_linker_0, # of connection points: 2
#     Edge 176, Type (0, 0), BuildingBlock: XIVTED_clean_linker_0, # of connection points: 2
#     Edge 177, Type (0, 0), BuildingBlock: XIVTED_clean_linker_0, # of connection points: 2
#     Edge 178, Type (0, 0), BuildingBlock: XIVTED_clean_linker_0, # of connection points: 2
#     Edge 179, Type (0, 0), BuildingBlock: XIVTED_clean_linker_0, # of connection points: 2
#     Edge 180, Type (0, 0), BuildingBlock: XIVTED_clean_linker_0, # of connection points: 2
#     Edge 181, Type (0, 0), BuildingBlock: XIVTED_clean_linker_0, # of connection points: 2
#     Edge 182, Type (0, 0), BuildingBlock: XIVTED_clean_linker_0, # of connection points: 2
#     Edge 183, Type (0, 0), BuildingBlock: XIVTED_clean_linker_0, # of connection points: 2
#     Edge 184, Type (0, 0), BuildingBlock: XIVTED_clean_linker_0, # of connection points: 2
#     Edge 185, Type (0, 0), BuildingBlock: XIVTED_clean_linker_0, # of connection points: 2
#     Edge 186, Type (0, 0), BuildingBlock: XIVTED_clean_linker_0, # of connection points: 2
#     Edge 187, Type (0, 0), BuildingBlock: XIVTED_clean_linker_0, # of connection points: 2
#     Edge 188, Type (0, 0), BuildingBlock: XIVTED_clean_linker_0, # of connection points: 2
#     Edge 189, Type (0, 0), BuildingBlock: XIVTED_clean_linker_0, # of connection points: 2
#     Edge 190, Type (0, 0), BuildingBlock: XIVTED_clean_linker_0, # of connection points: 2
#     Edge 191, Type (0, 0), BuildingBlock: XIVTED_clean_linker_0, # of connection points: 2
#     Edge 192, Type (0, 0), BuildingBlock: XIVTED_clean_linker_0, # of connection points: 2
#     Edge 193, Type (0, 0), BuildingBlock: XIVTED_clean_linker_0, # of connection points: 2
#     Edge 194, Type (0, 0), BuildingBlock: XIVTED_clean_linker_0, # of connection points: 2
#     Edge 195, Type (0, 0), BuildingBlock: XIVTED_clean_linker_0, # of connection points: 2
#     Edge 196, Type (0, 0), BuildingBlock: XIVTED_clean_linker_0, # of connection points: 2
#     Edge 197, Type (0, 0), BuildingBlock: XIVTED_clean_linker_0, # of connection points: 2
#     Edge 198, Type (0, 0), BuildingBlock: XIVTED_clean_linker_0, # of connection points: 2
#     Edge 199, Type (0, 0), BuildingBlock: XIVTED_clean_linker_0, # of connection points: 2
#     Edge 200, Type (0, 0), BuildingBlock: XIVTED_clean_linker_0, # of connection points: 2
#     Edge 201, Type (0, 0), BuildingBlock: XIVTED_clean_linker_0, # of connection points: 2
#     Edge 202, Type (0, 0), BuildingBlock: XIVTED_clean_linker_0, # of connection points: 2
#     Edge 203, Type (0, 0), BuildingBlock: XIVTED_clean_linker_0, # of connection points: 2
#     Edge 204, Type (0, 0), BuildingBlock: XIVTED_clean_linker_0, # of connection points: 2
#     Edge 205, Type (0, 0), BuildingBlock: XIVTED_clean_linker_0, # of connection points: 2
#     Edge 206, Type (0, 0), BuildingBlock: XIVTED_clean_linker_0, # of connection points: 2
#     Edge 207, Type (0, 0), BuildingBlock: XIVTED_clean_linker_0, # of connection points: 2
#     Edge 208, Type (0, 0), BuildingBlock: XIVTED_clean_linker_0, # of connection points: 2
#     Edge 209, Type (0, 0), BuildingBlock: XIVTED_clean_linker_0, # of connection points: 2
#     Edge 210, Type (0, 0), BuildingBlock: XIVTED_clean_linker_0, # of connection points: 2
#     Edge 211, Type (0, 0), BuildingBlock: XIVTED_clean_linker_0, # of connection points: 2
#     Edge 212, Type (0, 0), BuildingBlock: XIVTED_clean_linker_0, # of connection points: 2
#     Edge 213, Type (0, 0), BuildingBlock: XIVTED_clean_linker_0, # of connection points: 2
#     Edge 214, Type (0, 0), BuildingBlock: XIVTED_clean_linker_0, # of connection points: 2
#     Edge 215, Type (0, 0), BuildingBlock: XIVTED_clean_linker_0, # of connection points: 2
#     Edge 216, Type (0, 0), BuildingBlock: XIVTED_clean_linker_0, # of connection points: 2
#     Edge 217, Type (0, 0), BuildingBlock: XIVTED_clean_linker_0, # of connection points: 2
#     Edge 218, Type (0, 0), BuildingBlock: XIVTED_clean_linker_0, # of connection points: 2
#     Edge 219, Type (0, 0), BuildingBlock: XIVTED_clean_linker_0, # of connection points: 2
#     Edge 220, Type (0, 0), BuildingBlock: XIVTED_clean_linker_0, # of connection points: 2
#     Edge 221, Type (0, 0), BuildingBlock: XIVTED_clean_linker_0, # of connection points: 2
#     Edge 222, Type (0, 0), BuildingBlock: XIVTED_clean_linker_0, # of connection points: 2
#     Edge 223, Type (0, 0), BuildingBlock: XIVTED_clean_linker_0, # of connection points: 2
#     Edge 224, Type (0, 0), BuildingBlock: XIVTED_clean_linker_0, # of connection points: 2
#     Edge 225, Type (0, 0), BuildingBlock: XIVTED_clean_linker_0, # of connection points: 2
#     Edge 226, Type (0, 0), BuildingBlock: XIVTED_clean_linker_0, # of connection points: 2
#     Edge 227, Type (0, 0), BuildingBlock: XIVTED_clean_linker_0, # of connection points: 2
#     Edge 228, Type (0, 0), BuildingBlock: XIVTED_clean_linker_0, # of connection points: 2
#     Edge 229, Type (0, 0), BuildingBlock: XIVTED_clean_linker_0, # of connection points: 2
#     Edge 230, Type (0, 0), BuildingBlock: XIVTED_clean_linker_0, # of connection points: 2
#     Edge 231, Type (0, 0), BuildingBlock: XIVTED_clean_linker_0, # of connection points: 2
#     Edge 232, Type (0, 0), BuildingBlock: XIVTED_clean_linker_0, # of connection points: 2
#     Edge 233, Type (0, 0), BuildingBlock: XIVTED_clean_linker_0, # of connection points: 2
#     Edge 234, Type (0, 0), BuildingBlock: XIVTED_clean_linker_0, # of connection points: 2
#     Edge 235, Type (0, 0), BuildingBlock: XIVTED_clean_linker_0, # of connection points: 2
#     Edge 236, Type (0, 0), BuildingBlock: XIVTED_clean_linker_0, # of connection points: 2
#     Edge 237, Type (0, 0), BuildingBlock: XIVTED_clean_linker_0, # of connection points: 2
#     Edge 238, Type (0, 0), BuildingBlock: XIVTED_clean_linker_0, # of connection points: 2
#     Edge 239, Type (0, 0), BuildingBlock: XIVTED_clean_linker_0, # of connection points: 2
#     Edge 240, Type (0, 0), BuildingBlock: XIVTED_clean_linker_0, # of connection points: 2
#     Edge 241, Type (0, 0), BuildingBlock: XIVTED_clean_linker_0, # of connection points: 2
#     Edge 242, Type (0, 0), BuildingBlock: XIVTED_clean_linker_0, # of connection points: 2
#     Edge 243, Type (0, 0), BuildingBlock: XIVTED_clean_linker_0, # of connection points: 2
#     Edge 244, Type (0, 0), BuildingBlock: XIVTED_clean_linker_0, # of connection points: 2
#     Edge 245, Type (0, 0), BuildingBlock: XIVTED_clean_linker_0, # of connection points: 2
#     Edge 246, Type (0, 0), BuildingBlock: XIVTED_clean_linker_0, # of connection points: 2
#     Edge 247, Type (0, 0), BuildingBlock: XIVTED_clean_linker_0, # of connection points: 2
#     Edge 248, Type (0, 0), BuildingBlock: XIVTED_clean_linker_0, # of connection points: 2
#     Edge 249, Type (0, 0), BuildingBlock: XIVTED_clean_linker_0, # of connection points: 2
#     Edge 250, Type (0, 0), BuildingBlock: XIVTED_clean_linker_0, # of connection points: 2
#     Edge 251, Type (0, 0), BuildingBlock: XIVTED_clean_linker_0, # of connection points: 2
#     Edge 252, Type (0, 0), BuildingBlock: XIVTED_clean_linker_0, # of connection points: 2
#     Edge 253, Type (0, 0), BuildingBlock: XIVTED_clean_linker_0, # of connection points: 2
#     Edge 254, Type (0, 0), BuildingBlock: XIVTED_clean_linker_0, # of connection points: 2
#     Edge 255, Type (0, 0), BuildingBlock: XIVTED_clean_linker_0, # of connection points: 2
#     Edge 256, Type (0, 0), BuildingBlock: XIVTED_clean_linker_0, # of connection points: 2
#     Edge 257, Type (0, 0), BuildingBlock: XIVTED_clean_linker_0, # of connection points: 2
#     Edge 258, Type (0, 0), BuildingBlock: XIVTED_clean_linker_0, # of connection points: 2
#     Edge 259, Type (0, 0), BuildingBlock: XIVTED_clean_linker_0, # of connection points: 2
#     Edge 260, Type (0, 0), BuildingBlock: XIVTED_clean_linker_0, # of connection points: 2
#     Edge 261, Type (0, 0), BuildingBlock: XIVTED_clean_linker_0, # of connection points: 2
#     Edge 262, Type (0, 0), BuildingBlock: XIVTED_clean_linker_0, # of connection points: 2
#     Edge 263, Type (0, 0), BuildingBlock: XIVTED_clean_linker_0, # of connection points: 2
#     Edge 264, Type (0, 0), BuildingBlock: XIVTED_clean_linker_0, # of connection points: 2
#     Edge 265, Type (0, 0), BuildingBlock: XIVTED_clean_linker_0, # of connection points: 2
#     Edge 266, Type (0, 0), BuildingBlock: XIVTED_clean_linker_0, # of connection points: 2
#     Edge 267, Type (0, 0), BuildingBlock: XIVTED_clean_linker_0, # of connection points: 2
#     Edge 268, Type (0, 0), BuildingBlock: XIVTED_clean_linker_0, # of connection points: 2
#     Edge 269, Type (0, 0), BuildingBlock: XIVTED_clean_linker_0, # of connection points: 2
#     Edge 270, Type (0, 0), BuildingBlock: XIVTED_clean_linker_0, # of connection points: 2
#     Edge 271, Type (0, 0), BuildingBlock: XIVTED_clean_linker_0, # of connection points: 2
#     Edge 272, Type (0, 0), BuildingBlock: XIVTED_clean_linker_0, # of connection points: 2
#     Edge 273, Type (0, 0), BuildingBlock: XIVTED_clean_linker_0, # of connection points: 2
#     Edge 274, Type (0, 0), BuildingBlock: XIVTED_clean_linker_0, # of connection points: 2
#     Edge 275, Type (0, 0), BuildingBlock: XIVTED_clean_linker_0, # of connection points: 2
#     Edge 276, Type (0, 0), BuildingBlock: XIVTED_clean_linker_0, # of connection points: 2
#     Edge 277, Type (0, 0), BuildingBlock: XIVTED_clean_linker_0, # of connection points: 2
#     Edge 278, Type (0, 0), BuildingBlock: XIVTED_clean_linker_0, # of connection points: 2
#     Edge 279, Type (0, 0), BuildingBlock: XIVTED_clean_linker_0, # of connection points: 2
#     Edge 280, Type (0, 0), BuildingBlock: XIVTED_clean_linker_0, # of connection points: 2
#     Edge 281, Type (0, 0), BuildingBlock: XIVTED_clean_linker_0, # of connection points: 2
#     Edge 282, Type (0, 0), BuildingBlock: XIVTED_clean_linker_0, # of connection points: 2
#     Edge 283, Type (0, 0), BuildingBlock: XIVTED_clean_linker_0, # of connection points: 2
#     Edge 284, Type (0, 0), BuildingBlock: XIVTED_clean_linker_0, # of connection points: 2
#     Edge 285, Type (0, 0), BuildingBlock: XIVTED_clean_linker_0, # of connection points: 2
#     Edge 286, Type (0, 0), BuildingBlock: XIVTED_clean_linker_0, # of connection points: 2
#     Edge 287, Type (0, 0), BuildingBlock: XIVTED_clean_linker_0, # of connection points: 2
#     Edge 288, Type (0, 0), BuildingBlock: XIVTED_clean_linker_0, # of connection points: 2
#     Edge 289, Type (0, 0), BuildingBlock: XIVTED_clean_linker_0, # of connection points: 2
#     Edge 290, Type (0, 0), BuildingBlock: XIVTED_clean_linker_0, # of connection points: 2
#     Edge 291, Type (0, 0), BuildingBlock: XIVTED_clean_linker_0, # of connection points: 2
#     Edge 292, Type (0, 0), BuildingBlock: XIVTED_clean_linker_0, # of connection points: 2
#     Edge 293, Type (0, 0), BuildingBlock: XIVTED_clean_linker_0, # of connection points: 2
#     Edge 294, Type (0, 0), BuildingBlock: XIVTED_clean_linker_0, # of connection points: 2
#     Edge 295, Type (0, 0), BuildingBlock: XIVTED_clean_linker_0, # of connection points: 2
#     Edge 296, Type (0, 0), BuildingBlock: XIVTED_clean_linker_0, # of connection points: 2
#     Edge 297, Type (0, 0), BuildingBlock: XIVTED_clean_linker_0, # of connection points: 2
#     Edge 298, Type (0, 0), BuildingBlock: XIVTED_clean_linker_0, # of connection points: 2
#     Edge 299, Type (0, 0), BuildingBlock: XIVTED_clean_linker_0, # of connection points: 2
#     Edge 300, Type (0, 0), BuildingBlock: XIVTED_clean_linker_0, # of connection points: 2
#     Edge 301, Type (0, 0), BuildingBlock: XIVTED_clean_linker_0, # of connection points: 2
#     Edge 302, Type (0, 0), BuildingBlock: XIVTED_clean_linker_0, # of connection points: 2
#     Edge 303, Type (0, 0), BuildingBlock: XIVTED_clean_linker_0, # of connection points: 2
#     Edge 304, Type (0, 0), BuildingBlock: XIVTED_clean_linker_0, # of connection points: 2
#     Edge 305, Type (0, 0), BuildingBlock: XIVTED_clean_linker_0, # of connection points: 2
#     Edge 306, Type (0, 0), BuildingBlock: XIVTED_clean_linker_0, # of connection points: 2
#     Edge 307, Type (0, 0), BuildingBlock: XIVTED_clean_linker_0, # of connection points: 2
#     Edge 308, Type (0, 0), BuildingBlock: XIVTED_clean_linker_0, # of connection points: 2
#     Edge 309, Type (0, 0), BuildingBlock: XIVTED_clean_linker_0, # of connection points: 2
#     Edge 310, Type (0, 0), BuildingBlock: XIVTED_clean_linker_0, # of connection points: 2
#     Edge 311, Type (0, 0), BuildingBlock: XIVTED_clean_linker_0, # of connection points: 2
#     Edge 312, Type (0, 0), BuildingBlock: XIVTED_clean_linker_0, # of connection points: 2
#     Edge 313, Type (0, 0), BuildingBlock: XIVTED_clean_linker_0, # of connection points: 2
#     Edge 314, Type (0, 0), BuildingBlock: XIVTED_clean_linker_0, # of connection points: 2
#     Edge 315, Type (0, 0), BuildingBlock: XIVTED_clean_linker_0, # of connection points: 2
#     Edge 316, Type (0, 0), BuildingBlock: XIVTED_clean_linker_0, # of connection points: 2
#     Edge 317, Type (0, 0), BuildingBlock: XIVTED_clean_linker_0, # of connection points: 2
#     Edge 318, Type (0, 0), BuildingBlock: XIVTED_clean_linker_0, # of connection points: 2
#     Edge 319, Type (0, 0), BuildingBlock: XIVTED_clean_linker_0, # of connection points: 2
#     Edge 320, Type (0, 0), BuildingBlock: XIVTED_clean_linker_0, # of connection points: 2
#     Edge 321, Type (0, 0), BuildingBlock: XIVTED_clean_linker_0, # of connection points: 2
#     Edge 322, Type (0, 0), BuildingBlock: XIVTED_clean_linker_0, # of connection points: 2
#     Edge 323, Type (0, 0), BuildingBlock: XIVTED_clean_linker_0, # of connection points: 2
#     Edge 324, Type (0, 0), BuildingBlock: XIVTED_clean_linker_0, # of connection points: 2
#     Edge 325, Type (0, 0), BuildingBlock: XIVTED_clean_linker_0, # of connection points: 2
#     Edge 326, Type (0, 0), BuildingBlock: XIVTED_clean_linker_0, # of connection points: 2
#     Edge 327, Type (0, 0), BuildingBlock: XIVTED_clean_linker_0, # of connection points: 2
#     Edge 328, Type (0, 0), BuildingBlock: XIVTED_clean_linker_0, # of connection points: 2
#     Edge 329, Type (0, 0), BuildingBlock: XIVTED_clean_linker_0, # of connection points: 2
#     Edge 330, Type (0, 0), BuildingBlock: XIVTED_clean_linker_0, # of connection points: 2
#     Edge 331, Type (0, 0), BuildingBlock: XIVTED_clean_linker_0, # of connection points: 2
#     Edge 332, Type (0, 0), BuildingBlock: XIVTED_clean_linker_0, # of connection points: 2
#     Edge 333, Type (0, 0), BuildingBlock: XIVTED_clean_linker_0, # of connection points: 2
#     Edge 334, Type (0, 0), BuildingBlock: XIVTED_clean_linker_0, # of connection points: 2
#     Edge 335, Type (0, 0), BuildingBlock: XIVTED_clean_linker_0, # of connection points: 2
#     Edge 336, Type (0, 0), BuildingBlock: XIVTED_clean_linker_0, # of connection points: 2
#     Edge 337, Type (0, 0), BuildingBlock: XIVTED_clean_linker_0, # of connection points: 2
#     Edge 338, Type (0, 0), BuildingBlock: XIVTED_clean_linker_0, # of connection points: 2
#     Edge 339, Type (0, 0), BuildingBlock: XIVTED_clean_linker_0, # of connection points: 2
#     Edge 340, Type (0, 0), BuildingBlock: XIVTED_clean_linker_0, # of connection points: 2
#     Edge 341, Type (0, 0), BuildingBlock: XIVTED_clean_linker_0, # of connection points: 2
#     Edge 342, Type (0, 0), BuildingBlock: XIVTED_clean_linker_0, # of connection points: 2
#     Edge 343, Type (0, 0), BuildingBlock: XIVTED_clean_linker_0, # of connection points: 2
#     Edge 344, Type (0, 0), BuildingBlock: XIVTED_clean_linker_0, # of connection points: 2
#     Edge 345, Type (0, 0), BuildingBlock: XIVTED_clean_linker_0, # of connection points: 2
#     Edge 346, Type (0, 0), BuildingBlock: XIVTED_clean_linker_0, # of connection points: 2
#     Edge 347, Type (0, 0), BuildingBlock: XIVTED_clean_linker_0, # of connection points: 2
#     Edge 348, Type (0, 0), BuildingBlock: XIVTED_clean_linker_0, # of connection points: 2
#     Edge 349, Type (0, 0), BuildingBlock: XIVTED_clean_linker_0, # of connection points: 2
#     Edge 350, Type (0, 0), BuildingBlock: XIVTED_clean_linker_0, # of connection points: 2
#     Edge 351, Type (0, 0), BuildingBlock: XIVTED_clean_linker_0, # of connection points: 2
#     Edge 352, Type (0, 0), BuildingBlock: XIVTED_clean_linker_0, # of connection points: 2
#     Edge 353, Type (0, 0), BuildingBlock: XIVTED_clean_linker_0, # of connection points: 2
#     Edge 354, Type (0, 0), BuildingBlock: XIVTED_clean_linker_0, # of connection points: 2
#     Edge 355, Type (0, 0), BuildingBlock: XIVTED_clean_linker_0, # of connection points: 2
#     Edge 356, Type (0, 0), BuildingBlock: XIVTED_clean_linker_0, # of connection points: 2
#     Edge 357, Type (0, 0), BuildingBlock: XIVTED_clean_linker_0, # of connection points: 2
#     Edge 358, Type (0, 0), BuildingBlock: XIVTED_clean_linker_0, # of connection points: 2
#     Edge 359, Type (0, 0), BuildingBlock: XIVTED_clean_linker_0, # of connection points: 2
#     Edge 360, Type (0, 0), BuildingBlock: XIVTED_clean_linker_0, # of connection points: 2
#     Edge 361, Type (0, 0), BuildingBlock: XIVTED_clean_linker_0, # of connection points: 2
#     Edge 362, Type (0, 0), BuildingBlock: XIVTED_clean_linker_0, # of connection points: 2
#     Edge 363, Type (0, 0), BuildingBlock: XIVTED_clean_linker_0, # of connection points: 2
#     Edge 364, Type (0, 0), BuildingBlock: XIVTED_clean_linker_0, # of connection points: 2
#     Edge 365, Type (0, 0), BuildingBlock: XIVTED_clean_linker_0, # of connection points: 2
#     Edge 366, Type (0, 0), BuildingBlock: XIVTED_clean_linker_0, # of connection points: 2
#     Edge 367, Type (0, 0), BuildingBlock: XIVTED_clean_linker_0, # of connection points: 2
#     Edge 368, Type (0, 0), BuildingBlock: XIVTED_clean_linker_0, # of connection points: 2
#     Edge 369, Type (0, 0), BuildingBlock: XIVTED_clean_linker_0, # of connection points: 2
#     Edge 370, Type (0, 0), BuildingBlock: XIVTED_clean_linker_0, # of connection points: 2
#     Edge 371, Type (0, 0), BuildingBlock: XIVTED_clean_linker_0, # of connection points: 2
#     Edge 372, Type (0, 0), BuildingBlock: XIVTED_clean_linker_0, # of connection points: 2
#     Edge 373, Type (0, 0), BuildingBlock: XIVTED_clean_linker_0, # of connection points: 2
#     Edge 374, Type (0, 0), BuildingBlock: XIVTED_clean_linker_0, # of connection points: 2
#     Edge 375, Type (0, 0), BuildingBlock: XIVTED_clean_linker_0, # of connection points: 2
#     Edge 376, Type (0, 0), BuildingBlock: XIVTED_clean_linker_0, # of connection points: 2
#     Edge 377, Type (0, 0), BuildingBlock: XIVTED_clean_linker_0, # of connection points: 2
#     Edge 378, Type (0, 0), BuildingBlock: XIVTED_clean_linker_0, # of connection points: 2
#     Edge 379, Type (0, 0), BuildingBlock: XIVTED_clean_linker_0, # of connection points: 2
#     Edge 380, Type (0, 0), BuildingBlock: XIVTED_clean_linker_0, # of connection points: 2
#     Edge 381, Type (0, 0), BuildingBlock: XIVTED_clean_linker_0, # of connection points: 2
#     Edge 382, Type (0, 0), BuildingBlock: XIVTED_clean_linker_0, # of connection points: 2
#     Edge 383, Type (0, 0), BuildingBlock: XIVTED_clean_linker_0, # of connection points: 2
# Relax obj value: 0.205
# Max RMSD: 0.225
# Mean RMSD: 0.202
data_MOF--net-ana-e--node1-CUKXOW_clean_sbu_0--edge1-XIVTED_clean_linker_0
_symmetry_space_group_name_H-M    P1
_symmetry_Int_Tables_number       1
_symmetry_cell_setting            triclinic
loop_
_symmetry_equiv_pos_as_xyz
'x, y, z'
_cell_length_a     81.159603
_cell_length_b     79.968286
_cell_length_c     79.804536
_cell_angle_alpha  90.203584
_cell_angle_beta   90.606076
_cell_angle_gamma 92.031729
loop_
_atom_site_label
_atom_site_type_symbol
_atom_site_fract_x
_atom_site_fract_y
_atom_site_fract_z
_atom_type_partial_charge
Tb0 Tb 0.04075 0.12804 0.38334 0.0
C1 C 0.01985 0.10053 0.36576 0.0
Tb2 Tb 0.03323 0.13166 0.34475 0.0
O3 O 0.01715 0.13717 0.39264 0.0
O4 O 0.02169 0.13601 0.36764 0.0
O5 O 0.03131 0.10315 0.37742 0.0
C6 C 0.01758 0.13522 0.31526 0.0
O7 O 0.01694 0.11151 0.35373 0.0
C8 C 0.0599 0.11486 0.35265 0.0
C9 C 0.05547 0.15966 0.3633 0.0
O10 O 0.02658 0.12284 0.31953 0.0
O11 O 0.01813 0.14622 0.32733 0.0
O12 O 0.05185 0.11332 0.33854 0.0
O13 O 0.05381 0.1268 0.36046 0.0
O14 O 0.04687 0.15559 0.34935 0.0
O15 O 0.05578 0.14999 0.37684 0.0
C16 C 0.05222 0.12428 0.41418 0.0
O17 O 0.04701 0.13805 0.40786 0.0
O18 O 0.05173 0.11252 0.40282 0.0
C19 C 0.01104 0.14023 0.37799 0.0
Tb20 Tb 0.11387 0.77496 0.64569 0.0
C21 C 0.13671 0.75008 0.62712 0.0
Tb22 Tb 0.11111 0.77174 0.6076 0.0
O23 O 0.10151 0.75153 0.65346 0.0
O24 O 0.1037 0.75744 0.62841 0.0
O25 O 0.13585 0.76052 0.64009 0.0
C26 C 0.10643 0.76359 0.57545 0.0
O27 O 0.12648 0.75099 0.61414 0.0
C28 C 0.1302 0.79743 0.61874 0.0
C29 C 0.08381 0.79182 0.6263 0.0
O30 O 0.12 0.76956 0.58212 0.0
O31 O 0.09514 0.76258 0.58687 0.0
O32 O 0.13256 0.78905 0.60512 0.0
O33 O 0.11711 0.79145 0.62501 0.0
O34 O 0.08872 0.78553 0.61177 0.0
O35 O 0.0921 0.78994 0.64067 0.0
C36 C 0.12029 0.78449 0.67691 0.0
O37 O 0.10641 0.77808 0.67134 0.0
O38 O 0.13072 0.78624 0.66468 0.0
C39 C 0.09815 0.74642 0.63837 0.0
Tb40 Tb 0.49601 0.87466 0.87669 0.0
C41 C 0.46166 0.85845 0.86715 0.0
Tb42 Tb 0.47248 0.89665 0.86348 0.0
O43 O 0.49453 0.8866 0.90109 0.0
O44 O 0.47353 0.88367 0.88675 0.0
O45 O 0.47733 0.85571 0.87013 0.0
C46 C 0.44857 0.91849 0.85879 0.0
O47 O 0.45641 0.87389 0.86537 0.0
C48 C 0.48881 0.88178 0.83937 0.0
C49 C 0.50896 0.91065 0.87044 0.0
O50 O 0.45706 0.91162 0.84716 0.0
O51 O 0.45431 0.91368 0.87313 0.0
O52 O 0.47348 0.88571 0.83832 0.0
O53 O 0.49443 0.88703 0.8533 0.0
O54 O 0.49319 0.91483 0.87007 0.0
O55 O 0.51279 0.89479 0.86978 0.0
C56 C 0.51752 0.85195 0.88517 0.0
O57 O 0.51532 0.86582 0.89301 0.0
O58 O 0.50772 0.8508 0.87225 0.0
C59 C 0.47896 0.88931 0.90063 0.0
Tb60 Tb 0.34342 0.21141 0.13572 0.0
C61 C 0.31337 0.22858 0.11997 0.0
Tb62 Tb 0.3467 0.22709 0.1008 0.0
O63 O 0.36005 0.22955 0.1473 0.0
O64 O 0.34628 0.23607 0.12599 0.0
O65 O 0.31795 0.21565 0.12892 0.0
C66 C 0.35392 0.24662 0.07467 0.0
O67 O 0.32327 0.23609 0.10898 0.0
C68 C 0.33621 0.19552 0.10171 0.0
C69 C 0.37779 0.21134 0.11783 0.0
O70 O 0.35745 0.25009 0.09019 0.0
O71 O 0.34631 0.23212 0.07381 0.0
O72 O 0.33222 0.20568 0.08979 0.0
O73 O 0.34642 0.20298 0.11113 0.0
O74 O 0.37224 0.22124 0.10588 0.0
O75 O 0.36818 0.20438 0.12948 0.0
C76 C 0.33726 0.19481 0.16383 0.0
O77 O 0.34254 0.18826 0.15005 0.0
O78 O 0.33498 0.21058 0.16149 0.0
C79 C 0.35798 0.24069 0.13583 0.0
Tb80 Tb 0.03148 0.9062 0.11867 0.0
C81 C 0.00599 0.93257 0.12959 0.0
Tb82 Tb 0.01599 0.90239 0.15261 0.0
O83 O 0.01869 0.88348 0.10928 0.0
O84 O 0.00794 0.89799 0.12753 0.0
O85 O 0.01777 0.92913 0.11887 0.0
C86 C 0.99633 0.89932 0.17875 0.0
O87 O 0.00302 0.92358 0.1432 0.0
C88 C 0.04708 0.91244 0.15403 0.0
C89 C 0.03855 0.87506 0.14004 0.0
O90 O 0.00513 0.91262 0.17506 0.0
O91 O -0.00145 0.88767 0.16771 0.0
O92 O 0.03955 0.90417 0.16575 0.0
O93 O 0.0367 0.91635 0.14287 0.0
O94 O 0.02482 0.87755 0.14828 0.0
O95 O 0.04532 0.88635 0.12991 0.0
C96 C 0.04608 0.91305 0.0896 0.0
O97 O 0.05339 0.90752 0.10294 0.0
O98 O 0.03079 0.91534 0.09303 0.0
C99 C 0.00645 0.88449 0.11939 0.0
Tb100 Tb 0.37902 0.75514 0.374 0.0
C101 C 0.39677 0.78816 0.38336 0.0
Tb102 Tb 0.35732 0.78223 0.38094 0.0
O103 O 0.38934 0.76828 0.35281 0.0
O104 O 0.36433 0.77062 0.3581 0.0
O105 O 0.39804 0.7718 0.38386 0.0
C106 C 0.34335 0.812 0.38334 0.0
O107 O 0.38225 0.79501 0.38066 0.0
C108 C 0.36123 0.76201 0.40636 0.0
C109 C 0.34095 0.7471 0.37293 0.0
O110 O 0.3476 0.8027 0.39576 0.0
O111 O 0.34658 0.80431 0.36947 0.0
O112 O 0.34757 0.76933 0.40307 0.0
O113 O 0.37216 0.76709 0.3963 0.0
O114 O 0.33832 0.76346 0.37262 0.0
O115 O 0.35574 0.74128 0.37552 0.0
C116 C 0.39517 0.72725 0.37144 0.0
O117 O 0.38671 0.73382 0.35951 0.0
O118 O 0.39447 0.73626 0.3849 0.0
C119 C 0.37592 0.77548 0.34852 0.0
Tb120 Tb 0.45877 0.13736 0.60829 0.0
C121 C 0.47743 0.10905 0.62581 0.0
Tb122 Tb 0.46605 0.14002 0.64677 0.0
O123 O 0.48369 0.1453 0.59956 0.0
O124 O 0.4781 0.14477 0.62432 0.0
O125 O 0.46662 0.11227 0.6138 0.0
C126 C 0.4803 0.1464 0.67643 0.0
O127 O 0.48091 0.11959 0.63838 0.0
C128 C 0.43866 0.12316 0.63807 0.0
C129 C 0.44637 0.16887 0.62895 0.0
O130 O 0.47002 0.13401 0.67315 0.0
O131 O 0.48217 0.15551 0.66311 0.0
O132 O 0.44699 0.12066 0.65176 0.0
O133 O 0.44511 0.13575 0.63091 0.0
O134 O 0.45391 0.16386 0.64292 0.0
O135 O 0.4459 0.15996 0.61481 0.0
C136 C 0.44733 0.13411 0.57733 0.0
O137 O 0.45399 0.14764 0.58382 0.0
O138 O 0.44638 0.12233 0.58856 0.0
C139 C 0.48962 0.14813 0.61443 0.0
Tb140 Tb 0.12893 0.19551 0.8663 0.0
C141 C 0.1541 0.21847 0.88445 0.0
Tb142 Tb 0.12249 0.20645 0.90401 0.0
O143 O 0.11645 0.21642 0.85416 0.0
O144 O 0.12024 0.21589 0.87946 0.0
O145 O 0.15294 0.20513 0.87464 0.0
C146 C 0.12037 0.22564 0.93153 0.0
O147 O 0.14183 0.22288 0.89412 0.0
C148 C 0.13907 0.17834 0.89982 0.0
C149 C 0.09495 0.18496 0.88401 0.0
O150 O 0.13364 0.21971 0.92535 0.0
O151 O 0.10774 0.2201 0.92255 0.0
O152 O 0.1387 0.18669 0.91381 0.0
O153 O 0.12865 0.1848 0.89044 0.0
O154 O 0.09837 0.19444 0.89762 0.0
O155 O 0.10546 0.18283 0.87153 0.0
C156 C 0.13724 0.18092 0.83776 0.0
O157 O 0.12555 0.17571 0.84762 0.0
O158 O 0.14468 0.19398 0.84437 0.0
C159 C 0.11366 0.22425 0.86805 0.0
Tb160 Tb 0.35141 0.01219 0.13322 0.0
C161 C 0.34611 0.04237 0.15584 0.0
Tb162 Tb 0.33782 0.0407 0.11718 0.0
O163 O 0.37776 0.01698 0.1336 0.0
O164 O 0.36264 0.03473 0.12293 0.0
O165 O 0.34553 0.02591 0.15554 0.0
C166 C 0.32912 0.0713 0.10813 0.0
O167 O 0.34506 0.05101 0.1418 0.0
C168 C 0.31602 0.01491 0.12006 0.0
C169 C 0.35048 0.01314 0.09484 0.0
O170 O 0.32511 0.06377 0.1219 0.0
O171 O 0.33781 0.06142 0.09914 0.0
O172 O 0.31628 0.02568 0.108 0.0
O173 O 0.32675 0.01976 0.13081 0.0
O174 O 0.35046 0.02959 0.09614 0.0
O175 O 0.34698 0.00362 0.10783 0.0
C176 C 0.35856 0.98377 0.14727 0.0
O177 O 0.35515 0.98553 0.1315 0.0
O178 O 0.3566 0.99761 0.15526 0.0
C179 C 0.37744 0.03125 0.12633 0.0
Tb180 Tb 0.20042 0.12705 0.36956 0.0
C181 C 0.22417 0.11077 0.34387 0.0
Tb182 Tb 0.21053 0.08957 0.37452 0.0
O183 O 0.22278 0.1401 0.3789 0.0
O184 O 0.22082 0.11415 0.37795 0.0
O185 O 0.21254 0.12185 0.34583 0.0
C186 C 0.22583 0.06078 0.37913 0.0
O187 O 0.22641 0.0984 0.35455 0.0
C188 C 0.18126 0.09504 0.36009 0.0
C189 C 0.1926 0.10802 0.40403 0.0
O190 O 0.21539 0.06384 0.36722 0.0
O191 O 0.22712 0.07378 0.38898 0.0
O192 O 0.18912 0.08132 0.35815 0.0
O193 O 0.18926 0.10331 0.37078 0.0
O194 O 0.20098 0.09465 0.39948 0.0
O195 O 0.18972 0.12086 0.39388 0.0
C196 C 0.18252 0.15232 0.35977 0.0
O197 O 0.18771 0.14973 0.37496 0.0
O198 O 0.18747 0.14056 0.34995 0.0
C199 C 0.23035 0.12636 0.38208 0.0
Tb200 Tb 0.11868 0.94273 0.62624 0.0
C201 C 0.13443 0.96179 0.59712 0.0
Tb202 Tb 0.1553 0.95346 0.62922 0.0
O203 O 0.11199 0.96042 0.64534 0.0
O204 O 0.13239 0.9657 0.63012 0.0
O205 O 0.12508 0.94851 0.60056 0.0
C206 C 0.18373 0.97181 0.6302 0.0
O207 O 0.14558 0.96749 0.60811 0.0
C208 C 0.14897 0.92265 0.61677 0.0
C209 C 0.13741 0.93468 0.65981 0.0
O210 O 0.17832 0.96249 0.61787 0.0
O211 O 0.17352 0.97003 0.64265 0.0
O212 O 0.16267 0.93119 0.61439 0.0
O213 O 0.14123 0.93097 0.62706 0.0
O214 O 0.15026 0.9446 0.65513 0.0
O215 O 0.12467 0.93078 0.6497 0.0
C216 C 0.08867 0.93208 0.61687 0.0
O217 O 0.10002 0.92259 0.62278 0.0
O218 O 0.09418 0.94745 0.61654 0.0
C219 C 0.12459 0.97049 0.64279 0.0
Tb220 Tb 0.27464 0.87685 0.88481 0.0
C221 C 0.30652 0.88902 0.90538 0.0
Tb222 Tb 0.30286 0.89401 0.86567 0.0
O223 O 0.27915 0.85314 0.87253 0.0
O224 O 0.29873 0.87004 0.87738 0.0
O225 O 0.29094 0.88335 0.906 0.0
C226 C 0.33066 0.90083 0.84964 0.0
O227 O 0.31371 0.89362 0.89108 0.0
C228 C 0.27834 0.91542 0.87064 0.0
C229 C 0.27211 0.87942 0.84585 0.0
O230 O 0.32334 0.911 0.85955 0.0
O231 O 0.32255 0.88654 0.84906 0.0
O232 O 0.29131 0.91857 0.86166 0.0
O233 O 0.28076 0.90102 0.87656 0.0
O234 O 0.28803 0.88351 0.8449 0.0
O235 O 0.26398 0.87842 0.86009 0.0
C236 C 0.24788 0.87091 0.90229 0.0
O237 O 0.26025 0.86108 0.90192 0.0
O238 O 0.25077 0.88403 0.89319 0.0
C239 C 0.29485 0.85606 0.87049 0.0
Tb240 Tb 0.37825 0.95206 0.36936 0.0
C241 C 0.3626 0.972 0.39762 0.0
Tb242 Tb 0.34223 0.96177 0.36473 0.0
O243 O 0.38631 0.97827 0.36933 0.0
O244 O 0.36553 0.9704 0.35553 0.0
O245 O 0.37326 0.96027 0.39466 0.0
C246 C 0.31675 0.98165 0.36059 0.0
O247 O 0.35085 0.97563 0.38676 0.0
C248 C 0.34692 0.93517 0.38361 0.0
C249 C 0.35824 0.93995 0.3365 0.0
O250 O 0.33196 0.98647 0.36329 0.0
O251 O 0.31588 0.96535 0.35925 0.0
O252 O 0.33413 0.94443 0.38477 0.0
O253 O 0.35491 0.94026 0.3712 0.0
O254 O 0.34518 0.94877 0.34066 0.0
O255 O 0.37162 0.93886 0.34616 0.0
C256 C 0.40739 0.93832 0.37101 0.0
O257 O 0.40193 0.94696 0.35856 0.0
O258 O 0.39632 0.93709 0.38264 0.0
C259 C 0.37409 0.98305 0.36023 0.0
Tb260 Tb 0.29712 0.13092 0.62484 0.0
C261 C 0.27906 0.11363 0.65375 0.0
Tb262 Tb 0.28788 0.09354 0.62135 0.0
O263 O 0.28042 0.13637 0.60453 0.0
O264 O 0.27486 0.11623 0.62033 0.0
O265 O 0.29129 0.12432 0.65043 0.0
C266 C 0.27116 0.06391 0.61882 0.0
O267 O 0.27401 0.1022 0.64262 0.0
C268 C 0.31685 0.10037 0.63607 0.0
C269 C 0.30754 0.11255 0.59208 0.0
O270 O 0.28083 0.06878 0.63103 0.0
O271 O 0.2716 0.07546 0.60732 0.0
O272 O 0.3087 0.08621 0.63758 0.0
O273 O 0.30958 0.10836 0.62496 0.0
O274 O 0.29796 0.0992 0.59624 0.0
O275 O 0.31068 0.12537 0.60245 0.0
C276 C 0.3037 0.163 0.63225 0.0
O277 O 0.31478 0.15185 0.63004 0.0
O278 O 0.28918 0.15602 0.63042 0.0
C279 C 0.27028 0.12388 0.60733 0.0
Tb280 Tb 0.13033 0.04124 0.87361 0.0
C281 C 0.13935 0.0171 0.90265 0.0
Tb282 Tb 0.16549 0.02592 0.87407 0.0
O283 O 0.12187 0.02488 0.85369 0.0
O284 O 0.14041 0.01714 0.86975 0.0
O285 O 0.13045 0.02992 0.89825 0.0
C286 C 0.19064 0.00411 0.87177 0.0
O287 O 0.15214 0.01225 0.8938 0.0
C288 C 0.16277 0.05621 0.88843 0.0
C289 C 0.15405 0.04981 0.84453 0.0
O290 O 0.1853 0.01107 0.88532 0.0
O291 O 0.18223 0.01012 0.85926 0.0
O292 O 0.17552 0.047 0.89075 0.0
O293 O 0.1547 0.04906 0.8771 0.0
O294 O 0.1631 0.03661 0.84844 0.0
O295 O 0.14356 0.05621 0.85529 0.0
C296 C 0.10092 0.05473 0.8771 0.0
O297 O 0.10825 0.05185 0.8631 0.0
O298 O 0.11076 0.05104 0.88939 0.0
C299 C 0.13258 0.01365 0.85636 0.0
Tb300 Tb 0.23098 0.88603 0.1159 0.0
C301 C 0.19856 0.89028 0.09541 0.0
Tb302 Tb 0.20035 0.90138 0.13444 0.0
O303 O 0.22311 0.85957 0.11678 0.0
O304 O 0.20879 0.87775 0.12701 0.0
O305 O 0.21486 0.88948 0.09429 0.0
C306 C 0.16941 0.90757 0.14229 0.0
O307 O 0.19093 0.89303 0.10979 0.0
C308 C 0.22459 0.92445 0.12774 0.0
C309 C 0.22988 0.88906 0.15542 0.0
O310 O 0.17668 0.91162 0.12844 0.0
O311 O 0.17978 0.90027 0.15226 0.0
O312 O 0.21117 0.92757 0.13574 0.0
O313 O 0.22287 0.90926 0.12382 0.0
O314 O 0.21364 0.89091 0.15564 0.0
O315 O 0.23894 0.89033 0.14168 0.0
C316 C 0.26017 0.88064 0.10384 0.0
O317 O 0.25223 0.87077 0.11393 0.0
O318 O 0.2518 0.89384 0.10045 0.0
C319 C 0.20965 0.86214 0.12479 0.0
Tb320 Tb 0.12161 0.3817 0.0491 0.0
C321 C 0.09208 0.36439 0.03112 0.0
Tb322 Tb 0.12394 0.34366 0.03878 0.0
O323 O 0.12653 0.39268 0.02433 0.0
O324 O 0.12627 0.36737 0.0278 0.0
O325 O 0.09622 0.37529 0.04303 0.0
C326 C 0.12647 0.31551 0.02059 0.0
O327 O 0.10207 0.35264 0.02599 0.0
C328 C 0.11226 0.34977 0.06913 0.0
C329 C 0.15511 0.36291 0.05521 0.0
O330 O 0.1153 0.31827 0.03168 0.0
O331 O 0.13677 0.32835 0.02033 0.0
O332 O 0.10933 0.33592 0.06085 0.0
O333 O 0.12283 0.35819 0.0611 0.0
O334 O 0.14942 0.34887 0.0476 0.0
O335 O 0.14594 0.37598 0.0584 0.0
C336 C 0.11922 0.41174 0.0624 0.0
O337 O 0.1316 0.40658 0.05395 0.0
O338 O 0.10831 0.39957 0.06435 0.0
C339 C 0.12872 0.37852 0.017 0.0
Tb340 Tb 0.59944 0.11293 0.9603 0.0
C341 C 0.57543 0.12451 0.98818 0.0
Tb342 Tb 0.60281 0.14907 0.9727 0.0
O343 O 0.61398 0.10049 0.97995 0.0
O344 O 0.6107 0.1257 0.98058 0.0
O345 O 0.57732 0.11365 0.97577 0.0
C346 C 0.60269 0.17724 0.98996 0.0
O347 O 0.58468 0.13838 0.98969 0.0
C348 C 0.59483 0.14662 0.94055 0.0
C349 C 0.63158 0.13493 0.95378 0.0
O350 O 0.58968 0.16927 0.98407 0.0
O351 O 0.61589 0.16947 0.98602 0.0
O352 O 0.60179 0.15957 0.94777 0.0
O353 O 0.59009 0.13632 0.95192 0.0
O354 O 0.62808 0.14487 0.9664 0.0
O355 O 0.62106 0.12336 0.94765 0.0
C356 C 0.59478 0.08484 0.94234 0.0
O357 O 0.60504 0.09711 0.93898 0.0
O358 O 0.5866 0.08875 0.95557 0.0
C359 C 0.61731 0.11405 0.98843 0.0
Tb360 Tb 0.131 0.37895 0.21256 0.0
C361 C 0.11659 0.34755 0.22888 0.0
Tb362 Tb 0.09464 0.37927 0.22353 0.0
O363 O 0.13842 0.37692 0.23886 0.0
O364 O 0.11757 0.38961 0.23246 0.0
O365 O 0.1258 0.35268 0.21629 0.0
C366 C 0.07031 0.38068 0.24597 0.0
O367 O 0.10456 0.35666 0.23466 0.0
C368 C 0.09979 0.36557 0.19371 0.0
C369 C 0.11057 0.41138 0.20582 0.0
O370 O 0.08497 0.37532 0.24861 0.0
O371 O 0.06916 0.38559 0.23038 0.0
O372 O 0.08677 0.3621 0.20269 0.0
O373 O 0.10765 0.37727 0.20099 0.0
O374 O 0.09785 0.4053 0.21477 0.0
O375 O 0.12378 0.40266 0.20231 0.0
C376 C 0.16103 0.37988 0.19955 0.0
O377 O 0.15563 0.3903 0.21053 0.0
O378 O 0.14924 0.36923 0.19527 0.0
C379 C 0.12607 0.38484 0.2447 0.0
Tb380 Tb 0.87228 0.89595 0.45248 0.0
C381 C 0.8984 0.87815 0.47501 0.0
Tb382 Tb 0.86533 0.85883 0.46526 0.0
O383 O 0.86168 0.90923 0.47388 0.0
O384 O 0.862 0.88364 0.47288 0.0
O385 O 0.89619 0.88929 0.46297 0.0
C386 C 0.8566 0.8332 0.48452 0.0
O387 O 0.88732 0.86635 0.47901 0.0
C388 C 0.88346 0.86228 0.43809 0.0
C389 C 0.83794 0.87691 0.4441 0.0
O390 O 0.85936 0.84848 0.4895 0.0
O391 O 0.85846 0.83221 0.46837 0.0
O392 O 0.88346 0.84908 0.44759 0.0
O393 O 0.87221 0.87131 0.44311 0.0
O394 O 0.84154 0.86425 0.45417 0.0
O395 O 0.84839 0.88967 0.44072 0.0
C396 C 0.88065 0.92325 0.43508 0.0
O397 O 0.86825 0.91305 0.43177 0.0
O398 O 0.88867 0.91771 0.44791 0.0
C399 C 0.85764 0.89559 0.48182 0.0
Tb400 Tb 0.86552 0.12835 0.19796 0.0
C401 C 0.88048 0.15931 0.21562 0.0
Tb402 Tb 0.90104 0.1282 0.20822 0.0
O403 O 0.85945 0.10833 0.21513 0.0
O404 O 0.87836 0.1257 0.2214 0.0
O405 O 0.87055 0.15463 0.20322 0.0
C406 C 0.92946 0.12725 0.22576 0.0
O407 O 0.89141 0.14912 0.2218 0.0
C408 C 0.89571 0.14175 0.17815 0.0
C409 C 0.88465 0.09616 0.19051 0.0
O410 O 0.92425 0.13983 0.21732 0.0
O411 O 0.91897 0.11471 0.22371 0.0
O412 O 0.90862 0.1448 0.18752 0.0
O413 O 0.88804 0.12967 0.18485 0.0
O414 O 0.89741 0.10219 0.19958 0.0
O415 O 0.87175 0.10505 0.18639 0.0
C416 C 0.83437 0.13363 0.1895 0.0
O417 O 0.84097 0.13637 0.2041 0.0
O418 O 0.84542 0.1281 0.17938 0.0
C419 C 0.87103 0.11221 0.22582 0.0
Tb420 Tb 0.38558 0.61902 0.53301 0.0
C421 C 0.41619 0.63478 0.51576 0.0
Tb422 Tb 0.38429 0.65538 0.52065 0.0
O423 O 0.36905 0.60958 0.51346 0.0
O424 O 0.38369 0.63119 0.50924 0.0
O425 O 0.41143 0.62511 0.52835 0.0
C426 C 0.37893 0.68229 0.50153 0.0
O427 O 0.40632 0.646 0.50926 0.0
C428 C 0.39386 0.65167 0.55239 0.0
C429 C 0.35223 0.63754 0.53521 0.0
O430 O 0.39283 0.67887 0.50874 0.0
O431 O 0.36798 0.67086 0.50558 0.0
O432 O 0.3976 0.66484 0.54348 0.0
O433 O 0.38387 0.6429 0.54385 0.0
O434 O 0.35839 0.65048 0.52665 0.0
O435 O 0.36107 0.62497 0.5406 0.0
C436 C 0.38896 0.58999 0.54887 0.0
O437 O 0.38511 0.604 0.55588 0.0
O438 O 0.39145 0.59254 0.53304 0.0
C439 C 0.37171 0.62219 0.5036 0.0
Tb440 Tb 0.13243 0.65165 0.29049 0.0
C441 C 0.11901 0.67889 0.26586 0.0
Tb442 Tb 0.09775 0.64846 0.28015 0.0
O443 O 0.13865 0.62917 0.27704 0.0
O444 O 0.12031 0.64429 0.26751 0.0
O445 O 0.13172 0.67427 0.27508 0.0
C446 C 0.0695 0.64671 0.26293 0.0
O447 O 0.10445 0.67107 0.26663 0.0
C448 C 0.1004 0.65354 0.31276 0.0
C449 C 0.11255 0.61904 0.29891 0.0
O450 O 0.07481 0.65944 0.27182 0.0
O451 O 0.07995 0.63482 0.26397 0.0
O452 O 0.0879 0.64649 0.30506 0.0
O453 O 0.11019 0.66007 0.30182 0.0
O454 O 0.10179 0.62283 0.28715 0.0
O455 O 0.1244 0.6296 0.30417 0.0
C456 C 0.16327 0.65793 0.30174 0.0
O457 O 0.15852 0.65774 0.28624 0.0
O458 O 0.15042 0.65521 0.31105 0.0
C459 C 0.12767 0.63073 0.26535 0.0
Tb460 Tb 0.35392 0.3822 0.79526 0.0
C461 C 0.36712 0.35388 0.77267 0.0
Tb462 Tb 0.38893 0.38479 0.78489 0.0
O463 O 0.34667 0.40194 0.77851 0.0
O464 O 0.36598 0.38709 0.77183 0.0
O465 O 0.35594 0.35757 0.78389 0.0
C466 C 0.41761 0.3903 0.76964 0.0
O467 O 0.37978 0.36419 0.76938 0.0
C468 C 0.38377 0.368 0.81304 0.0
C469 C 0.37515 0.4128 0.80813 0.0
O470 O 0.41407 0.3779 0.77947 0.0
O471 O 0.40517 0.40003 0.7688 0.0
O472 O 0.39603 0.3656 0.80318 0.0
O473 O 0.3766 0.38053 0.80771 0.0
O474 O 0.38631 0.40946 0.79662 0.0
O475 O 0.36338 0.40167 0.8121 0.0
C476 C 0.32456 0.3761 0.80869 0.0
O477 O 0.33095 0.39065 0.80514 0.0
O478 O 0.3347 0.36462 0.80467 0.0
C479 C 0.35838 0.40006 0.76793 0.0
Tb480 Tb 0.96082 0.86522 0.65634 0.0
C481 C 0.93601 0.84015 0.63868 0.0
Tb482 Tb 0.95162 0.87159 0.62015 0.0
O483 O 0.93581 0.86808 0.66488 0.0
O484 O 0.94438 0.88138 0.64375 0.0
O485 O 0.94742 0.84165 0.65078 0.0
C486 C 0.93932 0.87505 0.58928 0.0
O487 O 0.93406 0.85174 0.62705 0.0
C488 C 0.98062 0.85822 0.62488 0.0
C489 C 0.97507 0.89747 0.63673 0.0
O490 O 0.94541 0.8616 0.59538 0.0
O491 O 0.93963 0.8866 0.60077 0.0
O492 O 0.97717 0.86808 0.61262 0.0
O493 O 0.9676 0.85516 0.63296 0.0
O494 O 0.9638 0.89547 0.6248 0.0
O495 O 0.97647 0.88672 0.64923 0.0
C496 C 0.97946 0.86179 0.68404 0.0
O497 O 0.96679 0.87118 0.68272 0.0
O498 O 0.98114 0.85387 0.67 0.0
C499 C 0.93182 0.8778 0.65257 0.0
Tb500 Tb 0.88308 0.22873 0.39072 0.0
C501 C 0.90938 0.20793 0.37315 0.0
Tb502 Tb 0.87859 0.22377 0.35486 0.0
O503 O 0.88071 0.20247 0.39641 0.0
O504 O 0.86736 0.21195 0.37602 0.0
O505 O 0.90666 0.2175 0.38636 0.0
C506 C 0.87577 0.21314 0.32338 0.0
O507 O 0.89911 0.20724 0.36009 0.0
C508 C 0.8922 0.25319 0.36236 0.0
C509 C 0.8547 0.24794 0.37179 0.0
O510 O 0.88831 0.22135 0.32982 0.0
O511 O 0.86468 0.21052 0.33478 0.0
O512 O 0.88265 0.25025 0.34952 0.0
O513 O 0.89498 0.23952 0.36961 0.0
O514 O 0.85647 0.23816 0.35854 0.0
O515 O 0.86459 0.24712 0.38501 0.0
C516 C 0.88439 0.24021 0.42193 0.0
O517 O 0.8716 0.23303 0.41481 0.0
O518 O 0.89657 0.24089 0.41152 0.0
C519 C 0.87144 0.19871 0.38359 0.0
Tb520 Tb 0.52351 0.10213 0.13441 0.0
C521 C 0.48891 0.08528 0.12433 0.0
Tb522 Tb 0.49769 0.12289 0.11713 0.0
O523 O 0.5152 0.10347 0.16049 0.0
O524 O 0.50291 0.11542 0.14162 0.0
O525 O 0.50467 0.08243 0.12794 0.0
C526 C 0.47344 0.14241 0.10921 0.0
O527 O 0.48338 0.10032 0.12154 0.0
C528 C 0.51687 0.1064 0.09657 0.0
C529 C 0.53015 0.14145 0.1295 0.0
O530 O 0.48788 0.14335 0.10237 0.0
O531 O 0.47291 0.13087 0.12053 0.0
O532 O 0.5014 0.1091 0.09397 0.0
O533 O 0.52091 0.11343 0.1103 0.0
O534 O 0.51443 0.14308 0.12542 0.0
O535 O 0.53658 0.1266 0.13213 0.0
C536 C 0.55095 0.08693 0.14298 0.0
O537 O 0.54353 0.09797 0.15168 0.0
O538 O 0.54279 0.08423 0.12902 0.0
C539 C 0.50286 0.11273 0.15716 0.0
Tb540 Tb 0.65058 0.77167 0.90067 0.0
C541 C 0.6188 0.78999 0.88816 0.0
Tb542 Tb 0.64931 0.78595 0.8652 0.0
O543 O 0.66607 0.79269 0.91051 0.0
O544 O 0.65127 0.79555 0.88973 0.0
O545 O 0.62504 0.77946 0.89916 0.0
C546 C 0.65289 0.8006 0.83562 0.0
O547 O 0.62702 0.79605 0.87511 0.0
C548 C 0.6343 0.7569 0.86889 0.0
C549 C 0.68066 0.76886 0.87684 0.0
O550 O 0.64839 0.80799 0.84925 0.0
O551 O 0.65549 0.78502 0.83871 0.0
O552 O 0.63029 0.76759 0.85758 0.0
O553 O 0.6475 0.76169 0.87618 0.0
O554 O 0.67534 0.7819 0.86861 0.0
O555 O 0.67152 0.76108 0.88831 0.0
C556 C 0.64678 0.75278 0.92779 0.0
O557 O 0.66008 0.7613 0.92397 0.0
O558 O 0.63558 0.7549 0.91637 0.0
C559 C 0.66279 0.80241 0.89803 0.0
Tb560 Tb 0.97666 0.09773 0.84771 0.0
C561 C 0.96019 0.1278 0.86522 0.0
Tb562 Tb 0.96504 0.09344 0.88346 0.0
O563 O 0.95589 0.08201 0.83776 0.0
O564 O 0.95361 0.09476 0.85981 0.0
O565 O 0.96875 0.12287 0.8522 0.0
C566 C 0.95042 0.08742 0.91262 0.0
O567 O 0.95574 0.11786 0.87778 0.0
C568 C 0.99229 0.11138 0.88109 0.0
C569 C 0.98493 0.06527 0.86755 0.0
O570 O 0.94321 0.09276 0.89917 0.0
O571 O 0.96571 0.0848 0.9093 0.0
O572 O 0.98201 0.11241 0.8933 0.0
O573 O 0.98825 0.09887 0.87188 0.0
O574 O 0.97269 0.06826 0.87781 0.0
O575 O 0.98984 0.07619 0.85605 0.0
C576 C 0.9929 0.10521 0.81972 0.0
O577 O 0.98301 0.09233 0.82176 0.0
O578 O 0.99358 0.11398 0.83342 0.0
C579 C 0.94656 0.08391 0.85066 0.0
Tb580 Tb 0.6381 0.21568 0.61711 0.0
C581 C 0.65423 0.25034 0.62824 0.0
Tb582 Tb 0.61614 0.24076 0.6286 0.0
O583 O 0.64546 0.23076 0.59572 0.0
O584 O 0.62122 0.23121 0.60458 0.0
O585 O 0.65746 0.23472 0.6238 0.0
C586 C 0.60022 0.2686 0.63253 0.0
O587 O 0.63909 0.25521 0.63065 0.0
C588 C 0.62296 0.21887 0.65171 0.0
C589 C 0.59902 0.20832 0.61804 0.0
O590 O 0.59913 0.2559 0.64251 0.0
O591 O 0.61006 0.26557 0.62033 0.0
O592 O 0.6089 0.22584 0.64995 0.0
O593 O 0.63316 0.22515 0.64143 0.0
O594 O 0.59739 0.22461 0.61759 0.0
O595 O 0.61387 0.20192 0.61964 0.0
C596 C 0.65214 0.18674 0.61042 0.0
O597 O 0.65348 0.19484 0.62453 0.0
O598 O 0.64333 0.19518 0.6001 0.0
C599 C 0.63128 0.2376 0.59426 0.0
Tb600 Tb 0.52726 0.85654 0.35161 0.0
C601 C 0.54915 0.83047 0.36966 0.0
Tb602 Tb 0.5377 0.86251 0.38896 0.0
O603 O 0.5524 0.86032 0.34282 0.0
O604 O 0.545 0.87178 0.36506 0.0
O605 O 0.53782 0.83257 0.35772 0.0
C606 C 0.55286 0.87058 0.41762 0.0
O607 O 0.55271 0.84188 0.38137 0.0
C608 C 0.50926 0.845 0.38663 0.0
C609 C 0.51548 0.88835 0.37178 0.0
O610 O 0.55676 0.85845 0.40775 0.0
O611 O 0.54069 0.87844 0.41111 0.0
O612 O 0.51664 0.8487 0.4007 0.0
O613 O 0.51846 0.85077 0.3754 0.0
O614 O 0.5263 0.88608 0.38401 0.0
O615 O 0.513 0.87776 0.3591 0.0
C616 C 0.50979 0.85327 0.32354 0.0
O617 O 0.52013 0.86556 0.32699 0.0
O618 O 0.50952 0.84256 0.33575 0.0
C619 C 0.55725 0.86881 0.356 0.0
Tb620 Tb 0.87198 0.79241 0.09666 0.0
C621 C 0.90064 0.81625 0.11243 0.0
Tb622 Tb 0.87133 0.80158 0.13313 0.0
O623 O 0.85252 0.8104 0.09079 0.0
O624 O 0.8683 0.81473 0.11054 0.0
O625 O 0.89641 0.80566 0.09991 0.0
C626 C 0.86506 0.80894 0.16491 0.0
O627 O 0.89098 0.81852 0.12552 0.0
C628 C 0.89014 0.77654 0.12615 0.0
C629 C 0.84369 0.77776 0.11939 0.0
O630 O 0.86033 0.81766 0.15212 0.0
O631 O 0.87357 0.79663 0.15977 0.0
O632 O 0.89329 0.7877 0.13763 0.0
O633 O 0.87628 0.77926 0.11943 0.0
O634 O 0.84698 0.78996 0.13011 0.0
O635 O 0.85366 0.77479 0.10683 0.0
C636 C 0.87399 0.77583 0.06723 0.0
O637 O 0.86124 0.7832 0.07293 0.0
O638 O 0.88618 0.77868 0.07773 0.0
C639 C 0.85554 0.81996 0.1037 0.0
Tb640 Tb 0.65648 0.95836 0.88435 0.0
C641 C 0.64687 0.98658 0.90762 0.0
Tb642 Tb 0.64517 0.98807 0.86893 0.0
O643 O 0.67985 0.97098 0.89276 0.0
O644 O 0.66876 0.97819 0.87065 0.0
O645 O 0.64592 0.97011 0.90619 0.0
C646 C 0.64029 0.01802 0.8567 0.0
O647 O 0.65042 0.99603 0.89453 0.0
C648 C 0.62057 0.96599 0.872 0.0
C649 C 0.64782 0.95758 0.84593 0.0
O650 O 0.63187 0.01114 0.86866 0.0
O651 O 0.65185 0.00832 0.85214 0.0
O652 O 0.62171 0.9772 0.86043 0.0
O653 O 0.63228 0.96848 0.88249 0.0
O654 O 0.64956 0.97402 0.84625 0.0
O655 O 0.64791 0.94889 0.85994 0.0
C656 C 0.66292 0.92661 0.89114 0.0
O657 O 0.66671 0.93455 0.87759 0.0
O658 O 0.65578 0.93669 0.90134 0.0
C659 C 0.68024 0.98198 0.88089 0.0
Tb660 Tb 0.78245 0.90712 0.6243 0.0
C661 C 0.80233 0.89447 0.59308 0.0
Tb662 Tb 0.79382 0.87072 0.62302 0.0
O663 O 0.80389 0.91515 0.6407 0.0
O664 O 0.80464 0.89448 0.62597 0.0
O665 O 0.79163 0.90561 0.59842 0.0
C666 C 0.80784 0.84168 0.62848 0.0
O667 O 0.80758 0.88212 0.60266 0.0
C668 C 0.76637 0.87555 0.60671 0.0
C669 C 0.77112 0.8811 0.65258 0.0
O670 O 0.80347 0.84745 0.61401 0.0
O671 O 0.80469 0.85256 0.64 0.0
O672 O 0.77614 0.86346 0.60366 0.0
O673 O 0.77106 0.88287 0.62007 0.0
O674 O 0.78162 0.87007 0.64722 0.0
O675 O 0.76844 0.8952 0.64447 0.0
C676 C 0.76412 0.9345 0.62467 0.0
O677 O 0.77278 0.9289 0.63703 0.0
O678 O 0.76647 0.92513 0.61156 0.0
C679 C 0.81216 0.9019 0.63759 0.0
Tb680 Tb 0.8388 0.04485 0.3691 0.0
C681 C 0.85511 0.06657 0.34132 0.0
Tb682 Tb 0.87377 0.0579 0.37416 0.0
O683 O 0.8282 0.06954 0.37159 0.0
O684 O 0.85049 0.06442 0.38341 0.0
O685 O 0.84524 0.05316 0.34381 0.0
C686 C 0.90383 0.07209 0.3737 0.0
O687 O 0.86491 0.07268 0.35339 0.0
C688 C 0.87047 0.02661 0.36415 0.0
C689 C 0.85912 0.03726 0.403 0.0
O690 O 0.89597 0.06551 0.36099 0.0
O691 O 0.8945 0.0713 0.38681 0.0
O692 O 0.88224 0.03232 0.37377 0.0
O693 O 0.86195 0.03857 0.35937 0.0
O694 O 0.8707 0.04862 0.39927 0.0
O695 O 0.84599 0.03424 0.39323 0.0
C696 C 0.81424 0.02139 0.368 0.0
O697 O 0.82943 0.01908 0.37212 0.0
O698 O 0.81277 0.03706 0.36404 0.0
C699 C 0.84095 0.076 0.37959 0.0
Tb700 Tb 0.6938 0.10501 0.13166 0.0
C701 C 0.72301 0.12095 0.15311 0.0
Tb702 Tb 0.71873 0.12319 0.11458 0.0
O703 O 0.70193 0.08131 0.12112 0.0
O704 O 0.71914 0.09988 0.12725 0.0
O705 O 0.70804 0.11392 0.15367 0.0
C706 C 0.74465 0.12875 0.09559 0.0
O707 O 0.73056 0.12393 0.13883 0.0
C708 C 0.69787 0.14365 0.12776 0.0
C709 C 0.68733 0.11157 0.09341 0.0
O710 O 0.73609 0.14046 0.10212 0.0
O711 O 0.73842 0.11419 0.09946 0.0
O712 O 0.71358 0.14673 0.12618 0.0
O713 O 0.69412 0.12959 0.12084 0.0
O714 O 0.70286 0.11709 0.09288 0.0
O715 O 0.68044 0.10733 0.10782 0.0
C716 C 0.66937 0.09332 0.15098 0.0
O717 O 0.67545 0.10852 0.15114 0.0
O718 O 0.67701 0.08483 0.13987 0.0
C719 C 0.7175 0.08532 0.12114 0.0
Tb720 Tb 0.64817 0.03651 0.63279 0.0
C721 C 0.63166 0.05994 0.66 0.0
Tb722 Tb 0.61351 0.04892 0.62637 0.0
O723 O 0.65809 0.05306 0.61335 0.0
O724 O 0.63766 0.05968 0.62623 0.0
O725 O 0.64391 0.04961 0.6568 0.0
C726 C 0.58506 0.06134 0.61624 0.0
O727 O 0.61966 0.06283 0.64905 0.0
C728 C 0.61511 0.02288 0.64575 0.0
C729 C 0.62903 0.02613 0.59984 0.0
O730 O 0.59718 0.06988 0.62326 0.0
O731 O 0.58906 0.04589 0.61481 0.0
O732 O 0.60363 0.03365 0.64669 0.0
O733 O 0.62389 0.02598 0.63317 0.0
O734 O 0.61944 0.03899 0.60179 0.0
O735 O 0.63915 0.0213 0.61185 0.0
C736 C 0.67557 0.01892 0.63742 0.0
O737 O 0.67385 0.03136 0.6273 0.0
O738 O 0.66201 0.01694 0.64589 0.0
C739 C 0.64657 0.0638 0.61407 0.0
Tb740 Tb 0.70747 0.90315 0.37987 0.0
C741 C 0.69121 0.88494 0.41164 0.0
Tb742 Tb 0.69655 0.86609 0.37756 0.0
O743 O 0.68584 0.91049 0.36482 0.0
O744 O 0.68505 0.88911 0.37915 0.0
O745 O 0.6993 0.89855 0.40582 0.0
C746 C 0.68482 0.83551 0.37011 0.0
O747 O 0.68748 0.87149 0.40233 0.0
C748 C 0.72536 0.87189 0.39145 0.0
C749 C 0.71139 0.88328 0.34632 0.0
O750 O 0.67648 0.84707 0.37731 0.0
O751 O 0.69961 0.84122 0.36713 0.0
O752 O 0.71578 0.85907 0.3948 0.0
O753 O 0.71943 0.8799 0.37931 0.0
O754 O 0.69995 0.87237 0.35135 0.0
O755 O 0.71788 0.89495 0.35646 0.0
C756 C 0.72589 0.93151 0.38356 0.0
O757 O 0.71325 0.9294 0.37359 0.0
O758 O 0.72765 0.91786 0.39209 0.0
C759 C 0.67723 0.89698 0.36838 0.0
Tb760 Tb 0.82651 0.97202 0.1267 0.0
C761 C 0.84111 0.94898 0.15408 0.0
Tb762 Tb 0.8603 0.95743 0.12109 0.0
O763 O 0.81432 0.94708 0.12291 0.0
O764 O 0.8364 0.95306 0.11123 0.0
O765 O 0.83221 0.96248 0.15169 0.0
C766 C 0.88864 0.94153 0.11911 0.0
O767 O 0.85031 0.94285 0.142 0.0
C768 C 0.86116 0.98807 0.13276 0.0
C769 C 0.84783 0.9819 0.09431 0.0
O770 O 0.88166 0.94633 0.13273 0.0
O771 O 0.87919 0.945 0.10647 0.0
O772 O 0.87241 0.98182 0.12359 0.0
O773 O 0.8508 0.97661 0.13661 0.0
O774 O 0.85782 0.96944 0.097 0.0
O775 O 0.83507 0.98473 0.10405 0.0
C776 C 0.80309 0.99546 0.12948 0.0
O777 O 0.81888 0.99822 0.1284 0.0
O778 O 0.80044 0.97928 0.12942 0.0
C779 C 0.82624 0.94119 0.11412 0.0
Tb780 Tb 0.79362 0.09739 0.86633 0.0
C781 C 0.76394 0.11178 0.84839 0.0
Tb782 Tb 0.76517 0.10698 0.8873 0.0
O783 O 0.77894 0.0756 0.85646 0.0
O784 O 0.77496 0.08391 0.88055 0.0
O785 O 0.7802 0.11145 0.84771 0.0
C786 C 0.73619 0.10738 0.9021 0.0
O787 O 0.75568 0.10648 0.86166 0.0
C788 C 0.78182 0.13501 0.88135 0.0
C789 C 0.79859 0.10336 0.90538 0.0
O790 O 0.73855 0.10834 0.88613 0.0
O791 O 0.75013 0.10548 0.90979 0.0
O792 O 0.76875 0.13376 0.89042 0.0
O793 O 0.78537 0.12052 0.87622 0.0
O794 O 0.78247 0.10146 0.90726 0.0
O795 O 0.80536 0.10405 0.89038 0.0
C796 C 0.82386 0.08972 0.85621 0.0
O797 O 0.8158 0.0829 0.86848 0.0
O798 O 0.81466 0.10078 0.84915 0.0
C799 C 0.76963 0.07373 0.86946 0.0
Tb800 Tb 0.86984 0.65649 0.96076 0.0
C801 C 0.8393 0.63535 0.94564 0.0
Tb802 Tb 0.8738 0.61794 0.95157 0.0
O803 O 0.88205 0.66466 0.93745 0.0
O804 O 0.87116 0.64106 0.93908 0.0
O805 O 0.84442 0.6497 0.95304 0.0
C806 C 0.87566 0.58703 0.94013 0.0
O807 O 0.84906 0.62269 0.94243 0.0
C808 C 0.86769 0.62251 0.98378 0.0
C809 C 0.9034 0.63751 0.96667 0.0
O810 O 0.86346 0.59292 0.94835 0.0
O811 O 0.88672 0.59891 0.93736 0.0
O812 O 0.87032 0.60814 0.97711 0.0
O813 O 0.86937 0.63305 0.97231 0.0
O814 O 0.89919 0.62584 0.95552 0.0
O815 O 0.89303 0.64886 0.972 0.0
C816 C 0.86721 0.68468 0.97905 0.0
O817 O 0.87824 0.68201 0.96777 0.0
O818 O 0.85708 0.6717 0.97945 0.0
C819 C 0.88041 0.65011 0.93012 0.0
Tb820 Tb 0.39194 0.8515 0.02672 0.0
C821 C 0.3651 0.8667 0.04821 0.0
Tb822 Tb 0.39651 0.88804 0.03737 0.0
O823 O 0.39353 0.8414 0.05157 0.0
O824 O 0.40534 0.86465 0.04695 0.0
O825 O 0.36755 0.85562 0.03617 0.0
C826 C 0.40266 0.91722 0.0531 0.0
O827 O 0.37557 0.87933 0.05172 0.0
C828 C 0.37735 0.88596 0.01005 0.0
C829 C 0.41976 0.8746 0.00991 0.0
O830 O 0.39447 0.90444 0.05912 0.0
O831 O 0.40794 0.91327 0.03841 0.0
O832 O 0.38132 0.89979 0.01779 0.0
O833 O 0.38393 0.87453 0.01825 0.0
O834 O 0.41847 0.88584 0.02204 0.0
O835 O 0.41014 0.86095 0.00899 0.0
C836 C 0.39093 0.82275 0.01045 0.0
O837 O 0.40398 0.82965 0.01743 0.0
O838 O 0.37824 0.83194 0.01273 0.0
C839 C 0.40054 0.85444 0.05856 0.0
Tb840 Tb 0.90211 0.61756 0.77693 0.0
C841 C 0.88618 0.59042 0.80006 0.0
Tb842 Tb 0.86703 0.62191 0.78838 0.0
O843 O 0.9122 0.61956 0.80242 0.0
O844 O 0.89064 0.63176 0.79584 0.0
O845 O 0.89747 0.59326 0.78839 0.0
C846 C 0.83664 0.62154 0.80085 0.0
O847 O 0.87476 0.60124 0.80374 0.0
C848 C 0.87004 0.61141 0.75718 0.0
C849 C 0.88198 0.64982 0.76702 0.0
O850 O 0.84786 0.63328 0.8037 0.0
O851 O 0.84279 0.61008 0.79158 0.0
O852 O 0.8587 0.6211 0.76229 0.0
O853 O 0.8786 0.60727 0.76967 0.0
O854 O 0.87168 0.64695 0.77947 0.0
O855 O 0.89348 0.63914 0.76301 0.0
C856 C 0.92761 0.61422 0.7561 0.0
O857 O 0.92532 0.62707 0.7657 0.0
O858 O 0.9159 0.60311 0.75875 0.0
C859 C 0.89989 0.62792 0.80798 0.0
Tb860 Tb 0.12888 0.14089 0.53475 0.0
C861 C 0.15732 0.12322 0.55566 0.0
Tb862 Tb 0.12459 0.10417 0.54466 0.0
O863 O 0.11185 0.14897 0.55416 0.0
O864 O 0.12498 0.12748 0.55712 0.0
O865 O 0.15309 0.13628 0.54634 0.0
C866 C 0.11642 0.07286 0.5533 0.0
O867 O 0.14721 0.11009 0.55839 0.0
C868 C 0.14167 0.1101 0.51765 0.0
C869 C 0.09602 0.12109 0.52548 0.0
O870 O 0.12007 0.07795 0.5384 0.0
O871 O 0.11727 0.08552 0.56362 0.0
O872 O 0.14441 0.09806 0.52799 0.0
O873 O 0.12897 0.1176 0.52205 0.0
O874 O 0.09968 0.10943 0.53645 0.0
O875 O 0.10667 0.13319 0.52114 0.0
C876 C 0.1367 0.16863 0.51745 0.0
O877 O 0.12544 0.16735 0.52883 0.0
O878 O 0.14399 0.15449 0.51637 0.0
C879 C 0.11362 0.13571 0.56328 0.0
Tb880 Tb 0.09582 0.86922 0.7902 0.0
C881 C 0.11468 0.89931 0.80905 0.0
Tb882 Tb 0.13122 0.8659 0.80151 0.0
O883 O 0.08691 0.85217 0.81015 0.0
O884 O 0.10823 0.86668 0.8136 0.0
O885 O 0.10215 0.89487 0.79885 0.0
C886 C 0.16162 0.85906 0.81146 0.0
O887 O 0.12589 0.88874 0.81408 0.0
C888 C 0.12754 0.88257 0.77361 0.0
C889 C 0.11351 0.83546 0.78484 0.0
O890 O 0.15093 0.86673 0.82042 0.0
O891 O 0.15498 0.85487 0.79718 0.0
O892 O 0.13943 0.88527 0.78426 0.0
O893 O 0.11912 0.86976 0.77806 0.0
O894 O 0.12397 0.84005 0.79687 0.0
O895 O 0.10216 0.84551 0.77908 0.0
C896 C 0.06949 0.87529 0.77067 0.0
O897 O 0.0848 0.87667 0.76635 0.0
O898 O 0.06891 0.87098 0.78635 0.0
C899 C 0.09943 0.85529 0.82017 0.0
Tb900 Tb 0.60996 0.34237 0.47805 0.0
C901 C 0.63738 0.35587 0.454 0.0
Tb902 Tb 0.60741 0.37833 0.46186 0.0
O903 O 0.60691 0.33047 0.45335 0.0
O904 O 0.59709 0.35376 0.45788 0.0
O905 O 0.63426 0.34631 0.46727 0.0
C906 C 0.60332 0.40602 0.44397 0.0
O907 O 0.62743 0.36748 0.44844 0.0
C908 C 0.62409 0.37904 0.49087 0.0
C909 C 0.58056 0.36629 0.48591 0.0
O910 O 0.61233 0.39358 0.43978 0.0
O911 O 0.59614 0.40236 0.45798 0.0
O912 O 0.62078 0.39224 0.48234 0.0
O913 O 0.61792 0.36702 0.48265 0.0
O914 O 0.58305 0.374 0.4715 0.0
O915 O 0.5902 0.3544 0.49157 0.0
C916 C 0.61408 0.31825 0.50049 0.0
O917 O 0.60103 0.31963 0.491 0.0
O918 O 0.62474 0.33019 0.49703 0.0
C919 C 0.59989 0.34321 0.44654 0.0
Tb920 Tb 0.89671 0.35169 0.71923 0.0
C921 C 0.88119 0.38157 0.7031 0.0
Tb922 Tb 0.86197 0.34768 0.70883 0.0
O923 O 0.90529 0.35557 0.69381 0.0
O924 O 0.8844 0.34004 0.69751 0.0
O925 O 0.89199 0.37753 0.71465 0.0
C926 C 0.83166 0.34224 0.69573 0.0
O927 O 0.86998 0.3708 0.69683 0.0
C928 C 0.86571 0.36785 0.73476 0.0
C929 C 0.87573 0.32061 0.73307 0.0
O930 O 0.83577 0.34079 0.71135 0.0
O931 O 0.84493 0.34585 0.6873 0.0
O932 O 0.85445 0.36899 0.7233 0.0
O933 O 0.87388 0.35485 0.73207 0.0
O934 O 0.86313 0.32463 0.72337 0.0
O935 O 0.88995 0.32918 0.73295 0.0
C936 C 0.92563 0.35259 0.73544 0.0
O937 O 0.91964 0.34005 0.72667 0.0
O938 O 0.91545 0.36473 0.73489 0.0
C939 C 0.89334 0.34732 0.68639 0.0
Tb940 Tb 0.6086 0.61414 0.21649 0.0
C941 C 0.62519 0.58498 0.196 0.0
Tb942 Tb 0.64378 0.61853 0.2059 0.0
O943 O 0.60023 0.63166 0.19724 0.0
O944 O 0.62078 0.61796 0.19356 0.0
O945 O 0.61243 0.58946 0.2052 0.0
C946 C 0.67296 0.62894 0.19447 0.0
O947 O 0.63823 0.59503 0.19323 0.0
C948 C 0.6398 0.60081 0.23316 0.0
C949 C 0.62799 0.64708 0.22523 0.0
O950 O 0.66849 0.62934 0.20998 0.0
O951 O 0.66103 0.62245 0.18532 0.0
O952 O 0.65149 0.59886 0.22247 0.0
O953 O 0.63178 0.61354 0.22924 0.0
O954 O 0.63802 0.6439 0.21288 0.0
O955 O 0.61747 0.63554 0.23095 0.0
C956 C 0.57993 0.6085 0.23187 0.0
O957 O 0.58416 0.62181 0.22359 0.0
O958 O 0.59177 0.59799 0.23125 0.0
C959 C 0.61266 0.62955 0.18753 0.0
Tb960 Tb 0.54249 0.62583 0.88096 0.0
C961 C 0.5192 0.60102 0.86206 0.0
Tb962 Tb 0.53322 0.6337 0.84368 0.0
O963 O 0.52194 0.63881 0.893 0.0
O964 O 0.52427 0.63826 0.86765 0.0
O965 O 0.53102 0.60219 0.87352 0.0
C966 C 0.5161 0.63651 0.81526 0.0
O967 O 0.51694 0.61273 0.85062 0.0
C968 C 0.56269 0.6221 0.84856 0.0
C969 C 0.55513 0.65967 0.8642 0.0
O970 O 0.5251 0.624 0.81927 0.0
O971 O 0.5173 0.64784 0.82699 0.0
O972 O 0.55884 0.63172 0.83614 0.0
O973 O 0.54984 0.61805 0.85663 0.0
O974 O 0.54467 0.6576 0.85131 0.0
O975 O 0.55741 0.64829 0.876 0.0
C976 C 0.55635 0.61509 0.90897 0.0
O977 O 0.56358 0.62487 0.8981 0.0
O978 O 0.54144 0.61132 0.90395 0.0
C979 C 0.51518 0.64344 0.87904 0.0
Tb980 Tb 0.61391 0.27607 0.14756 0.0
C981 C 0.63779 0.25132 0.12973 0.0
Tb982 Tb 0.61238 0.27228 0.1094 0.0
O983 O 0.60132 0.25261 0.1551 0.0
O984 O 0.60453 0.25843 0.1302 0.0
O985 O 0.63598 0.2615 0.14278 0.0
C986 C 0.60539 0.26385 0.07788 0.0
O987 O 0.62847 0.25219 0.11605 0.0
C988 C 0.63073 0.29833 0.12087 0.0
C989 C 0.58434 0.29239 0.12716 0.0
O990 O 0.61924 0.27063 0.08313 0.0
O991 O 0.59538 0.26213 0.09036 0.0
O992 O 0.63363 0.28988 0.10739 0.0
O993 O 0.61751 0.29216 0.12666 0.0
O994 O 0.58973 0.28574 0.113 0.0
O995 O 0.59236 0.29107 0.14176 0.0
C996 C 0.61996 0.28632 0.17855 0.0
O997 O 0.60606 0.27996 0.17295 0.0
O998 O 0.63062 0.28753 0.16648 0.0
C999 C 0.59864 0.24741 0.13989 0.0
Tb1000 Tb 0.99653 0.37451 0.37609 0.0
C1001 C 0.96201 0.35949 0.36618 0.0
Tb1002 Tb 0.97102 0.3989 0.36558 0.0
O1003 O 0.99337 0.37472 0.4035 0.0
O1004 O 0.97919 0.38905 0.38824 0.0
O1005 O 0.97786 0.35663 0.36756 0.0
C1006 C 0.94408 0.41626 0.36083 0.0
O1007 O 0.95638 0.37494 0.36585 0.0
C1008 C 0.99219 0.39226 0.34205 0.0
C1009 C 0.0066 0.41259 0.37553 0.0
O1010 O 0.95276 0.40972 0.34918 0.0
O1011 O 0.95067 0.41312 0.37533 0.0
O1012 O 0.98519 0.40645 0.34391 0.0
O1013 O 0.98625 0.3818 0.35255 0.0
O1014 O 0.99073 0.4164 0.37492 0.0
O1015 O 0.01157 0.39715 0.37402 0.0
C1016 C 0.0209 0.3541 0.37749 0.0
O1017 O 0.02197 0.36926 0.37179 0.0
O1018 O 0.00599 0.35017 0.38198 0.0
C1019 C 0.98146 0.38501 0.40326 0.0
Tb1020 Tb 0.84193 0.71297 0.63551 0.0
C1021 C 0.8106 0.72805 0.61961 0.0
Tb1022 Tb 0.84418 0.72785 0.60036 0.0
O1023 O 0.85752 0.73226 0.64715 0.0
O1024 O 0.84416 0.73746 0.62528 0.0
O1025 O 0.81607 0.71649 0.62986 0.0
C1026 C 0.84964 0.74776 0.57431 0.0
O1027 O 0.81983 0.73487 0.60765 0.0
C1028 C 0.83347 0.69652 0.60209 0.0
C1029 C 0.8761 0.71473 0.61778 0.0
O1030 O 0.84442 0.75235 0.58881 0.0
O1031 O 0.85158 0.73172 0.57419 0.0
O1032 O 0.82898 0.70665 0.59032 0.0
O1033 O 0.84426 0.70389 0.61098 0.0
O1034 O 0.87015 0.72447 0.60593 0.0
O1035 O 0.86687 0.70716 0.62928 0.0
C1036 C 0.83761 0.69493 0.663 0.0
O1037 O 0.84329 0.6894 0.64894 0.0
O1038 O 0.83386 0.71046 0.66129 0.0
C1039 C 0.85546 0.74289 0.6352 0.0
Tb1040 Tb 0.52706 0.40614 0.61832 0.0
C1041 C 0.5049 0.43125 0.63589 0.0
Tb1042 Tb 0.51931 0.40038 0.65436 0.0
O1043 O 0.51229 0.38482 0.61016 0.0
O1044 O 0.50524 0.39818 0.6315 0.0
O1045 O 0.51682 0.4301 0.62486 0.0
C1046 C 0.50582 0.39454 0.68409 0.0
O1047 O 0.50251 0.4196 0.64736 0.0
C1048 C 0.54864 0.41592 0.64916 0.0
C1049 C 0.53763 0.37261 0.6353 0.0
O1050 O 0.51275 0.40849 0.67927 0.0
O1051 O 0.507 0.3834 0.67229 0.0
O1052 O 0.54007 0.41737 0.66265 0.0
O1053 O 0.54101 0.40513 0.64049 0.0
O1054 O 0.52836 0.37588 0.64843 0.0
O1055 O 0.54063 0.38368 0.62319 0.0
C1056 C 0.53638 0.41438 0.58753 0.0
O1057 O 0.54616 0.41398 0.60051 0.0
O1058 O 0.52149 0.41066 0.59214 0.0
C1059 C 0.50213 0.38524 0.62252 0.0
Tb1060 Tb 0.8771 0.25491 0.87321 0.0
C1061 C 0.89439 0.28761 0.88377 0.0
Tb1062 Tb 0.85519 0.28113 0.88198 0.0
O1063 O 0.88711 0.26938 0.85275 0.0
O1064 O 0.86203 0.27096 0.85838 0.0
O1065 O 0.89564 0.27127 0.88426 0.0
C1066 C 0.84107 0.31033 0.88711 0.0
O1067 O 0.87987 0.29435 0.88085 0.0
C1068 C 0.85959 0.25954 0.90603 0.0
C1069 C 0.83901 0.24639 0.87176 0.0
O1070 O 0.84074 0.30206 0.87306 0.0
O1071 O 0.84906 0.30198 0.89819 0.0
O1072 O 0.84578 0.26677 0.90331 0.0
O1073 O 0.8704 0.26544 0.89626 0.0
O1074 O 0.83601 0.26253 0.87387 0.0
O1075 O 0.85403 0.24071 0.87233 0.0
C1076 C 0.89398 0.22757 0.87039 0.0
O1077 O 0.88871 0.23624 0.85792 0.0
O1078 O 0.88967 0.23417 0.88442 0.0
C1079 C 0.87349 0.2765 0.84899 0.0
Tb1080 Tb 0.95609 0.63618 0.11016 0.0
C1081 C 0.97676 0.60706 0.1234 0.0
Tb1082 Tb 0.96578 0.63683 0.14618 0.0
O1083 O 0.97375 0.65649 0.10446 0.0
O1084 O 0.97899 0.64002 0.12351 0.0
O1085 O 0.9656 0.61126 0.11218 0.0
C1086 C 0.98128 0.6427 0.17535 0.0
O1087 O 0.98051 0.61665 0.1366 0.0
C1088 C 0.93806 0.61958 0.13975 0.0
C1089 C 0.94299 0.66498 0.13179 0.0
O1090 O 0.97181 0.62975 0.17187 0.0
O1091 O 0.98167 0.65264 0.16254 0.0
O1092 O 0.94746 0.61695 0.15264 0.0
O1093 O 0.94341 0.63266 0.13278 0.0
O1094 O 0.95426 0.66144 0.1434 0.0
O1095 O 0.93924 0.65428 0.11954 0.0
C1096 C 0.94411 0.63177 0.07931 0.0
O1097 O 0.94633 0.64594 0.08696 0.0
O1098 O 0.94854 0.61977 0.08905 0.0
C1099 C 0.9838 0.65339 0.11661 0.0
Tb1100 Tb 0.62609 0.69577 0.36838 0.0
C1101 C 0.65257 0.71859 0.3857 0.0
Tb1102 Tb 0.62153 0.7055 0.40648 0.0
O1103 O 0.61669 0.71852 0.35705 0.0
O1104 O 0.6182 0.716 0.38252 0.0
O1105 O 0.65035 0.70642 0.37452 0.0
C1106 C 0.61655 0.72339 0.43442 0.0
O1107 O 0.64176 0.7215 0.39763 0.0
C1108 C 0.63732 0.67741 0.40042 0.0
C1109 C 0.59333 0.68426 0.38789 0.0
O1110 O 0.62835 0.71311 0.43214 0.0
O1111 O 0.60697 0.72287 0.42124 0.0
O1112 O 0.63834 0.68568 0.41449 0.0
O1113 O 0.62623 0.68392 0.39189 0.0
O1114 O 0.59749 0.69297 0.40171 0.0
O1115 O 0.60326 0.6824 0.3749 0.0
C1116 C 0.6299 0.68169 0.33873 0.0
O1117 O 0.61601 0.68535 0.34538 0.0
O1118 O 0.64196 0.68531 0.34917 0.0
C1119 C 0.61366 0.72575 0.37116 0.0
Tb1120 Tb 0.84822 0.51114 0.63191 0.0
C1121 C 0.84534 0.54299 0.65353 0.0
Tb1122 Tb 0.8381 0.54148 0.61372 0.0
O1123 O 0.87465 0.51512 0.6353 0.0
O1124 O 0.86098 0.53267 0.62247 0.0
O1125 O 0.84647 0.52653 0.65404 0.0
C1126 C 0.83332 0.57234 0.60255 0.0
O1127 O 0.84255 0.55119 0.63934 0.0
C1128 C 0.81503 0.51683 0.61604 0.0
C1129 C 0.85049 0.51248 0.59314 0.0
O1130 O 0.8232 0.56375 0.61191 0.0
O1131 O 0.84592 0.56343 0.59923 0.0
O1132 O 0.81693 0.52643 0.60306 0.0
O1133 O 0.82532 0.52185 0.62706 0.0
O1134 O 0.85106 0.52896 0.59385 0.0
O1135 O 0.84515 0.50345 0.6059 0.0
C1136 C 0.84861 0.48027 0.6427 0.0
O1137 O 0.85636 0.4859 0.62974 0.0
O1138 O 0.84041 0.49205 0.64968 0.0
C1139 C 0.87543 0.52903 0.62707 0.0
Tb1140 Tb 0.70254 0.6282 0.8716 0.0
C1141 C 0.72399 0.61234 0.84444 0.0
Tb1142 Tb 0.71185 0.58993 0.87509 0.0
O1143 O 0.72588 0.6397 0.88041 0.0
O1144 O 0.72267 0.61411 0.87899 0.0
O1145 O 0.71226 0.6231 0.84694 0.0
C1146 C 0.72886 0.56177 0.87611 0.0
O1147 O 0.72716 0.60016 0.85509 0.0
C1148 C 0.68226 0.59601 0.86158 0.0
C1149 C 0.69434 0.60805 0.90516 0.0
O1150 O 0.72151 0.56784 0.8631 0.0
O1151 O 0.72597 0.57122 0.88907 0.0
O1152 O 0.68925 0.58166 0.86048 0.0
O1153 O 0.69104 0.60444 0.87154 0.0
O1154 O 0.70315 0.59497 0.90051 0.0
O1155 O 0.69099 0.62083 0.89509 0.0
C1156 C 0.69012 0.6578 0.86563 0.0
O1157 O 0.69458 0.65217 0.88016 0.0
O1158 O 0.69127 0.64593 0.85454 0.0
C1159 C 0.7329 0.62566 0.88302 0.0
Tb1160 Tb 0.61735 0.44305 0.12867 0.0
C1161 C 0.63262 0.46199 0.09904 0.0
Tb1162 Tb 0.65534 0.45359 0.13037 0.0
O1163 O 0.6076 0.46757 0.13515 0.0
O1164 O 0.63237 0.46425 0.13363 0.0
O1165 O 0.62233 0.44953 0.10299 0.0
C1166 C 0.68379 0.47159 0.13311 0.0
O1167 O 0.64524 0.46686 0.10886 0.0
C1168 C 0.6479 0.42324 0.11814 0.0
C1169 C 0.63805 0.43629 0.16187 0.0
O1170 O 0.68019 0.46055 0.12156 0.0
O1171 O 0.67164 0.47189 0.14357 0.0
O1172 O 0.66174 0.43146 0.11548 0.0
O1173 O 0.64032 0.43134 0.12891 0.0
O1174 O 0.65161 0.44423 0.15602 0.0
O1175 O 0.62436 0.43316 0.1529 0.0
C1176 C 0.5873 0.42998 0.12467 0.0
O1177 O 0.593 0.4374 0.1381 0.0
O1178 O 0.59891 0.42891 0.11365 0.0
C1179 C 0.62193 0.47494 0.13696 0.0
Tb1180 Tb 0.77442 0.37999 0.3888 0.0
C1181 C 0.80777 0.39137 0.4048 0.0
Tb1182 Tb 0.80042 0.39172 0.36547 0.0
O1183 O 0.77961 0.35369 0.39222 0.0
O1184 O 0.79423 0.36843 0.37656 0.0
O1185 O 0.79169 0.39029 0.40722 0.0
C1186 C 0.82722 0.40074 0.34854 0.0
O1187 O 0.81409 0.39096 0.38951 0.0
C1188 C 0.77531 0.41207 0.3685 0.0
C1189 C 0.77056 0.37258 0.34998 0.0
O1190 O 0.81881 0.41055 0.35784 0.0
O1191 O 0.82073 0.3857 0.34903 0.0
O1192 O 0.78311 0.40928 0.35476 0.0
O1193 O 0.78224 0.40411 0.38021 0.0
O1194 O 0.78617 0.37687 0.34742 0.0
O1195 O 0.76318 0.37483 0.36446 0.0
C1196 C 0.74635 0.37833 0.40513 0.0
O1197 O 0.74824 0.3845 0.39025 0.0
O1198 O 0.76037 0.37362 0.41105 0.0
C1199 C 0.79206 0.35374 0.38223 0.0
Tb1200 Tb 0.88132 0.45129 0.87028 0.0
C1201 C 0.86841 0.47419 0.89828 0.0
Tb1202 Tb 0.84584 0.46129 0.86812 0.0
O1203 O 0.88701 0.46656 0.84865 0.0
O1204 O 0.86898 0.47391 0.86526 0.0
O1205 O 0.87905 0.46265 0.89478 0.0
C1206 C 0.81709 0.47692 0.86491 0.0
O1207 O 0.85593 0.47743 0.88808 0.0
C1208 C 0.85075 0.43342 0.88529 0.0
C1209 C 0.86047 0.43689 0.84018 0.0
O1210 O 0.82112 0.46693 0.87687 0.0
O1211 O 0.82898 0.47743 0.85408 0.0
O1212 O 0.8391 0.44367 0.88812 0.0
O1213 O 0.85809 0.43883 0.87256 0.0
O1214 O 0.84877 0.44783 0.84372 0.0
O1215 O 0.87311 0.43446 0.85049 0.0
C1216 C 0.91218 0.44281 0.87665 0.0
O1217 O 0.89916 0.43536 0.88297 0.0
O1218 O 0.9077 0.45452 0.86666 0.0
C1219 C 0.87598 0.47742 0.85164 0.0
Tb1220 Tb 0.79692 0.63068 0.1219 0.0
C1221 C 0.78145 0.61291 0.15306 0.0
Tb1222 Tb 0.7869 0.59319 0.11932 0.0
O1223 O 0.77888 0.63682 0.10298 0.0
O1224 O 0.77466 0.61623 0.11856 0.0
O1225 O 0.79143 0.62516 0.14786 0.0
C1226 C 0.76687 0.56588 0.11631 0.0
O1227 O 0.77747 0.59967 0.14368 0.0
C1228 C 0.81602 0.60016 0.13313 0.0
C1229 C 0.80379 0.61227 0.08841 0.0
O1230 O 0.76254 0.58097 0.11935 0.0
O1231 O 0.78282 0.56603 0.11434 0.0
O1232 O 0.8074 0.58646 0.13618 0.0
O1233 O 0.80879 0.60778 0.12168 0.0
O1234 O 0.79449 0.59905 0.09336 0.0
O1235 O 0.80814 0.6251 0.09831 0.0
C1236 C 0.80537 0.66213 0.12943 0.0
O1237 O 0.7905 0.65614 0.12734 0.0
O1238 O 0.81585 0.65035 0.12724 0.0
C1239 C 0.76932 0.62388 0.1059 0.0
Tb1240 Tb 0.63203 0.53962 0.37997 0.0
C1241 C 0.6449 0.51574 0.40617 0.0
Tb1242 Tb 0.66611 0.52557 0.37383 0.0
O1243 O 0.62019 0.51494 0.37771 0.0
O1244 O 0.64165 0.52033 0.36471 0.0
O1245 O 0.6362 0.52927 0.4044 0.0
C1246 C 0.69117 0.50387 0.37121 0.0
O1247 O 0.65587 0.51125 0.39492 0.0
C1248 C 0.66593 0.55679 0.38499 0.0
C1249 C 0.65094 0.54927 0.34703 0.0
O1250 O 0.68871 0.51401 0.38364 0.0
O1251 O 0.67985 0.50649 0.35994 0.0
O1252 O 0.67746 0.55103 0.37555 0.0
O1253 O 0.65628 0.5448 0.38889 0.0
O1254 O 0.66085 0.53647 0.34925 0.0
O1255 O 0.64113 0.55451 0.35902 0.0
C1256 C 0.60319 0.55471 0.38179 0.0
O1257 O 0.61048 0.5502 0.36825 0.0
O1258 O 0.61267 0.55153 0.39453 0.0
C1259 C 0.63141 0.50877 0.36844 0.0
Tb1260 Tb 0.72828 0.38676 0.61459 0.0
C1261 C 0.69689 0.39158 0.5929 0.0
Tb1262 Tb 0.70187 0.4014 0.63161 0.0
O1263 O 0.72524 0.36329 0.62811 0.0
O1264 O 0.70472 0.37645 0.62238 0.0
O1265 O 0.71188 0.38565 0.59294 0.0
C1266 C 0.67192 0.40966 0.64246 0.0
O1267 O 0.6907 0.39848 0.6065 0.0
C1268 C 0.72655 0.42382 0.62682 0.0
C1269 C 0.73283 0.39264 0.65171 0.0
O1270 O 0.68013 0.41673 0.63044 0.0
O1271 O 0.68083 0.39805 0.64886 0.0
O1272 O 0.7168 0.42353 0.63959 0.0
O1273 O 0.72162 0.41239 0.61665 0.0
O1274 O 0.71654 0.3912 0.65238 0.0
O1275 O 0.73998 0.39577 0.63733 0.0
C1276 C 0.75465 0.37753 0.598 0.0
O1277 O 0.75182 0.37479 0.6136 0.0
O1278 O 0.74276 0.38586 0.59156 0.0
C1279 C 0.70952 0.36361 0.62996 0.0
Tb1280 Tb 0.62064 0.88028 0.55042 0.0
C1281 C 0.59063 0.86446 0.5316 0.0
Tb1282 Tb 0.62333 0.84411 0.53945 0.0
O1283 O 0.62122 0.88773 0.52422 0.0
O1284 O 0.63427 0.86727 0.53195 0.0
O1285 O 0.5956 0.877 0.54144 0.0
C1286 C 0.62387 0.81839 0.51765 0.0
O1287 O 0.59952 0.85107 0.52903 0.0
C1288 C 0.61305 0.84726 0.57023 0.0
C1289 C 0.65178 0.86099 0.5606 0.0
O1290 O 0.61949 0.83344 0.51433 0.0
O1291 O 0.62822 0.81775 0.53338 0.0
O1292 O 0.61962 0.83378 0.56457 0.0
O1293 O 0.61023 0.85689 0.55811 0.0
O1294 O 0.64847 0.85049 0.54792 0.0
O1295 O 0.64087 0.87174 0.56582 0.0
C1296 C 0.62202 0.91175 0.56149 0.0
O1297 O 0.63342 0.90447 0.55328 0.0
O1298 O 0.60997 0.90101 0.56433 0.0
C1299 C 0.63023 0.87569 0.51934 0.0
Tb1300 Tb 0.09959 0.61293 0.46481 0.0
C1301 C 0.07253 0.62851 0.48734 0.0
Tb1302 Tb 0.10349 0.64845 0.47232 0.0
O1303 O 0.12038 0.6068 0.48088 0.0
O1304 O 0.10556 0.62661 0.48732 0.0
O1305 O 0.07657 0.61518 0.47861 0.0
C1306 C 0.10525 0.67884 0.48599 0.0
O1307 O 0.0809 0.64294 0.48603 0.0
C1308 C 0.10047 0.64296 0.43977 0.0
C1309 C 0.13352 0.63085 0.45851 0.0
O1310 O 0.09316 0.67301 0.47663 0.0
O1311 O 0.11635 0.66764 0.48748 0.0
O1312 O 0.10862 0.6553 0.44674 0.0
O1313 O 0.09246 0.63476 0.45103 0.0
O1314 O 0.1291 0.64296 0.46861 0.0
O1315 O 0.12304 0.61894 0.45311 0.0
C1316 C 0.09333 0.58124 0.45499 0.0
O1317 O 0.09623 0.59379 0.44501 0.0
O1318 O 0.09327 0.58684 0.47019 0.0
C1319 C 0.11829 0.61884 0.49142 0.0
Tb1320 Tb 0.63021 0.88036 0.71021 0.0
C1321 C 0.61544 0.85006 0.73109 0.0
Tb1322 Tb 0.59452 0.88171 0.72264 0.0
O1323 O 0.63786 0.90066 0.72667 0.0
O1324 O 0.61857 0.88426 0.73366 0.0
O1325 O 0.62763 0.85579 0.72158 0.0
C1326 C 0.57015 0.88592 0.74473 0.0
O1327 O 0.60162 0.8581 0.73323 0.0
C1328 C 0.59853 0.86693 0.69317 0.0
C1329 C 0.61 0.9115 0.70139 0.0
O1330 O 0.58571 0.88496 0.74807 0.0
O1331 O 0.5681 0.88512 0.72849 0.0
O1332 O 0.58605 0.86354 0.70292 0.0
O1333 O 0.60653 0.87904 0.69953 0.0
O1334 O 0.5992 0.90739 0.71335 0.0
O1335 O 0.62092 0.90085 0.69585 0.0
C1336 C 0.66042 0.87637 0.6984 0.0
O1337 O 0.65598 0.88783 0.70868 0.0
O1338 O 0.64756 0.86704 0.69411 0.0
C1339 C 0.62649 0.89766 0.73754 0.0
Tb1340 Tb 0.36882 0.39535 0.95588 0.0
C1341 C 0.39785 0.37773 0.97246 0.0
Tb1342 Tb 0.36402 0.35825 0.96456 0.0
O1343 O 0.37114 0.40108 0.98256 0.0
O1344 O 0.3561 0.38119 0.97437 0.0
O1345 O 0.39413 0.3897 0.96184 0.0
C1346 C 0.35742 0.33246 0.98453 0.0
O1347 O 0.38723 0.36557 0.97668 0.0
C1348 C 0.38067 0.36427 0.93698 0.0
C1349 C 0.33541 0.37554 0.94501 0.0
O1350 O 0.35772 0.33147 0.96821 0.0
O1351 O 0.36052 0.34777 0.98923 0.0
O1352 O 0.38216 0.35081 0.94594 0.0
O1353 O 0.36908 0.37237 0.94292 0.0
O1354 O 0.34001 0.36176 0.95287 0.0
O1355 O 0.34492 0.38943 0.94393 0.0
C1356 C 0.36937 0.42688 0.94563 0.0
O1357 O 0.359 0.42017 0.95606 0.0
O1358 O 0.37927 0.41561 0.94027 0.0
C1359 C 0.36162 0.3887 0.98723 0.0
Tb1360 Tb 0.36502 0.62734 0.6947 0.0
C1361 C 0.37544 0.65581 0.71844 0.0
Tb1362 Tb 0.39958 0.62712 0.70847 0.0
O1363 O 0.3547 0.62423 0.71963 0.0
O1364 O 0.37715 0.61408 0.71431 0.0
O1365 O 0.3658 0.65198 0.70553 0.0
C1366 C 0.42614 0.62811 0.72863 0.0
O1367 O 0.38803 0.64668 0.72296 0.0
C1368 C 0.398 0.63732 0.67731 0.0
C1369 C 0.38742 0.59823 0.6849 0.0
O1370 O 0.42044 0.64068 0.7205 0.0
O1371 O 0.41706 0.61483 0.72521 0.0
O1372 O 0.41089 0.63072 0.68396 0.0
O1373 O 0.38762 0.63995 0.68864 0.0
O1374 O 0.39703 0.6019 0.69805 0.0
O1375 O 0.37585 0.60822 0.67955 0.0
C1376 C 0.3354 0.62669 0.68026 0.0
O1377 O 0.34228 0.61407 0.68724 0.0
O1378 O 0.34573 0.63946 0.6804 0.0
C1379 C 0.36712 0.61672 0.72589 0.0
Tb1380 Tb 0.88662 0.11899 0.03628 0.0
C1381 C 0.91572 0.13493 0.01677 0.0
Tb1382 Tb 0.88311 0.15434 0.02163 0.0
O1383 O 0.86828 0.10834 0.01933 0.0
O1384 O 0.88242 0.12933 0.01181 0.0
O1385 O 0.91192 0.12573 0.02999 0.0
C1386 C 0.87616 0.17935 0.00076 0.0
O1387 O 0.90519 0.14539 0.01009 0.0
C1388 C 0.89533 0.15329 0.05275 0.0
C1389 C 0.85329 0.13753 0.04076 0.0
O1390 O 0.88964 0.17825 0.00953 0.0
O1391 O 0.86641 0.16661 0.00413 0.0
O1392 O 0.89661 0.16641 0.04318 0.0
O1393 O 0.88544 0.14339 0.04543 0.0
O1394 O 0.85808 0.14952 0.03025 0.0
O1395 O 0.86315 0.12582 0.0464 0.0
C1396 C 0.89158 0.09033 0.05224 0.0
O1397 O 0.88698 0.1041 0.05919 0.0
O1398 O 0.89403 0.09298 0.03643 0.0
C1399 C 0.87011 0.11976 0.00801 0.0
Tb1400 Tb 0.63156 0.14841 0.79231 0.0
C1401 C 0.6192 0.17445 0.76616 0.0
Tb1402 Tb 0.59554 0.14593 0.78125 0.0
O1403 O 0.64357 0.13629 0.77136 0.0
O1404 O 0.61837 0.13885 0.77126 0.0
O1405 O 0.63115 0.17094 0.77692 0.0
C1406 C 0.56652 0.14593 0.76546 0.0
O1407 O 0.60478 0.16622 0.76579 0.0
C1408 C 0.60011 0.1505 0.81394 0.0
C1409 C 0.61032 0.11482 0.79519 0.0
O1410 O 0.57359 0.15881 0.77289 0.0
O1411 O 0.57569 0.13308 0.7671 0.0
O1412 O 0.58745 0.14288 0.80705 0.0
O1413 O 0.60901 0.15703 0.80246 0.0
O1414 O 0.59982 0.11993 0.78384 0.0
O1415 O 0.62188 0.1247 0.80233 0.0
C1416 C 0.66029 0.15145 0.80927 0.0
O1417 O 0.6502 0.13854 0.80905 0.0
O1418 O 0.65373 0.16308 0.80038 0.0
C1419 C 0.63011 0.13308 0.76295 0.0
Tb1420 Tb 0.85174 0.88522 0.29758 0.0
C1421 C 0.86258 0.85554 0.27495 0.0
Tb1422 Tb 0.88584 0.88565 0.28582 0.0
O1423 O 0.84581 0.90565 0.28089 0.0
O1424 O 0.86284 0.8885 0.27349 0.0
O1425 O 0.85184 0.86035 0.28617 0.0
C1426 C 0.91385 0.89195 0.26959 0.0
O1427 O 0.87571 0.86493 0.27104 0.0
C1428 C 0.88163 0.86975 0.31471 0.0
C1429 C 0.8744 0.91489 0.3091 0.0
O1430 O 0.91053 0.87874 0.27842 0.0
O1431 O 0.90153 0.90179 0.27016 0.0
O1432 O 0.89275 0.86634 0.30383 0.0
O1433 O 0.87477 0.88263 0.30965 0.0
O1434 O 0.88444 0.91087 0.29682 0.0
O1435 O 0.86251 0.90435 0.3141 0.0
C1436 C 0.82154 0.88078 0.30973 0.0
O1437 O 0.8281 0.89471 0.30448 0.0
O1438 O 0.8322 0.86911 0.30864 0.0
C1439 C 0.8563 0.902 0.26954 0.0
Tb1440 Tb 0.46051 0.36827 0.15255 0.0
C1441 C 0.43433 0.34124 0.13806 0.0
Tb1442 Tb 0.45047 0.36888 0.11597 0.0
O1443 O 0.44369 0.38824 0.15927 0.0
O1444 O 0.43861 0.37302 0.13895 0.0
O1445 O 0.44611 0.34417 0.14968 0.0
C1446 C 0.44005 0.37407 0.08474 0.0
O1447 O 0.43189 0.35182 0.12564 0.0
C1448 C 0.47661 0.351 0.12267 0.0
C1449 C 0.47368 0.39731 0.12876 0.0
O1450 O 0.44257 0.35965 0.09141 0.0
O1451 O 0.44295 0.38574 0.09582 0.0
O1452 O 0.46656 0.3483 0.11022 0.0
O1453 O 0.47279 0.36445 0.12959 0.0
O1454 O 0.46171 0.39357 0.11804 0.0
O1455 O 0.47694 0.38758 0.14175 0.0
C1456 C 0.47688 0.3645 0.18167 0.0
O1457 O 0.46844 0.37727 0.17739 0.0
O1458 O 0.4755 0.35333 0.16979 0.0
C1459 C 0.43419 0.38603 0.14621 0.0
Tb1460 Tb 0.38214 0.72721 0.89193 0.0
C1461 C 0.4096 0.70706 0.87322 0.0
Tb1462 Tb 0.37887 0.72298 0.85418 0.0
O1463 O 0.36077 0.71007 0.89531 0.0
O1464 O 0.37604 0.70698 0.87523 0.0
O1465 O 0.40472 0.71375 0.88758 0.0
C1466 C 0.37031 0.71215 0.82398 0.0
O1467 O 0.401 0.70835 0.85894 0.0
C1468 C 0.39427 0.75188 0.86042 0.0
C1469 C 0.3562 0.7485 0.87259 0.0
O1470 O 0.38444 0.71909 0.82812 0.0
O1471 O 0.36091 0.71066 0.83704 0.0
O1472 O 0.39095 0.74624 0.84548 0.0
O1473 O 0.38903 0.74107 0.87073 0.0
O1474 O 0.35709 0.7378 0.85982 0.0
O1475 O 0.36634 0.74776 0.88567 0.0
C1476 C 0.38887 0.73543 0.92355 0.0
O1477 O 0.37505 0.72888 0.91804 0.0
O1478 O 0.39912 0.73708 0.91124 0.0
C1479 C 0.36301 0.70133 0.8819 0.0
Tb1480 Tb 0.02081 0.60066 0.63071 0.0
C1481 C 0.98605 0.58609 0.6207 0.0
Tb1482 Tb 0.99617 0.62428 0.62294 0.0
O1483 O 0.00755 0.59149 0.65244 0.0
O1484 O 0.00679 0.61681 0.64599 0.0
O1485 O 0.00192 0.58252 0.62131 0.0
C1486 C 0.96989 0.64264 0.62137 0.0
O1487 O 0.98107 0.60146 0.62262 0.0
C1488 C 0.01651 0.61982 0.59824 0.0
C1489 C 0.02979 0.64019 0.63276 0.0
O1490 O 0.97716 0.63645 0.60853 0.0
O1491 O 0.97731 0.63842 0.63506 0.0
O1492 O 0.01019 0.63393 0.60206 0.0
O1493 O 0.01053 0.60829 0.60748 0.0
O1494 O 0.01394 0.64301 0.6315 0.0
O1495 O 0.03531 0.62473 0.63235 0.0
C1496 C 0.04899 0.58452 0.63324 0.0
O1497 O 0.03787 0.58522 0.64466 0.0
O1498 O 0.04394 0.59249 0.62016 0.0
C1499 C 0.00113 0.60567 0.65584 0.0
Tb1500 Tb 0.14959 0.27073 0.39714 0.0
C1501 C 0.12169 0.28998 0.37926 0.0
Tb1502 Tb 0.155 0.28435 0.36134 0.0
O1503 O 0.16559 0.29082 0.40832 0.0
O1504 O 0.15368 0.2943 0.38576 0.0
O1505 O 0.12483 0.27799 0.39017 0.0
C1506 C 0.16046 0.29651 0.33079 0.0
O1507 O 0.13283 0.29622 0.3687 0.0
C1508 C 0.13642 0.2571 0.36295 0.0
C1509 C 0.18318 0.26564 0.37838 0.0
O1510 O 0.15809 0.30552 0.3441 0.0
O1511 O 0.16051 0.28089 0.33498 0.0
O1512 O 0.13541 0.2682 0.35133 0.0
O1513 O 0.14874 0.2607 0.37233 0.0
O1514 O 0.17985 0.27814 0.36826 0.0
O1515 O 0.17308 0.2607 0.39051 0.0
C1516 C 0.142 0.25028 0.42269 0.0
O1517 O 0.14786 0.24596 0.40837 0.0
O1518 O 0.14024 0.26638 0.42276 0.0
C1519 C 0.16418 0.30087 0.39561 0.0
Tb1520 Tb 0.47512 0.59524 0.34469 0.0
C1521 C 0.45956 0.62615 0.36181 0.0
Tb1522 Tb 0.46567 0.59269 0.38111 0.0
O1523 O 0.45407 0.57899 0.33653 0.0
O1524 O 0.45268 0.59272 0.35808 0.0
O1525 O 0.46739 0.62065 0.34852 0.0
C1526 C 0.4529 0.58826 0.41144 0.0
O1527 O 0.45597 0.6168 0.37506 0.0
C1528 C 0.49268 0.61051 0.37617 0.0
C1529 C 0.48595 0.56444 0.36609 0.0
O1530 O 0.4447 0.59201 0.39801 0.0
O1531 O 0.46816 0.58629 0.40755 0.0
O1532 O 0.48317 0.6122 0.38892 0.0
O1533 O 0.48813 0.59753 0.36798 0.0
O1534 O 0.47388 0.56744 0.37658 0.0
O1535 O 0.48972 0.57492 0.35378 0.0
C1536 C 0.49028 0.60115 0.3157 0.0
O1537 O 0.48289 0.58718 0.31991 0.0
O1538 O 0.48884 0.61196 0.32771 0.0
C1539 C 0.44522 0.58149 0.34968 0.0
Tb1540 Tb 0.13563 0.7162 0.11634 0.0
C1541 C 0.15102 0.75209 0.12207 0.0
Tb1542 Tb 0.1136 0.74255 0.1239 0.0
O1543 O 0.14484 0.72886 0.09396 0.0
O1544 O 0.1203 0.73112 0.10116 0.0
O1545 O 0.15423 0.73592 0.12362 0.0
C1546 C 0.09713 0.77003 0.12863 0.0
O1547 O 0.13594 0.75707 0.11944 0.0
C1548 C 0.11799 0.72228 0.14944 0.0
C1549 C 0.09647 0.70947 0.11488 0.0
O1550 O 0.10919 0.76523 0.13792 0.0
O1551 O 0.09439 0.75951 0.11647 0.0
O1552 O 0.10431 0.72912 0.14549 0.0
O1553 O 0.12908 0.72748 0.13951 0.0
O1554 O 0.09519 0.72574 0.11353 0.0
O1555 O 0.11101 0.70294 0.11817 0.0
C1556 C 0.14978 0.68677 0.11219 0.0
O1557 O 0.15032 0.69555 0.12594 0.0
O1558 O 0.14168 0.69478 0.10096 0.0
C1559 C 0.1311 0.73607 0.09085 0.0
Tb1560 Tb 0.02751 0.35736 0.85367 0.0
C1561 C 0.04785 0.3283 0.8713 0.0
Tb1562 Tb 0.03479 0.35918 0.89022 0.0
O1563 O 0.04649 0.37674 0.84809 0.0
O1564 O 0.04917 0.361 0.8684 0.0
O1565 O 0.0391 0.33296 0.8579 0.0
C1566 C 0.04221 0.3668 0.9219 0.0
O1567 O 0.04951 0.33785 0.88488 0.0
C1568 C 0.00792 0.3417 0.88199 0.0
C1569 C 0.01652 0.38876 0.87365 0.0
O1570 O 0.02906 0.3587 0.91673 0.0
O1571 O 0.05158 0.37041 0.90923 0.0
O1572 O 0.01792 0.33791 0.89402 0.0
O1573 O 0.01283 0.35533 0.87546 0.0
O1574 O 0.02632 0.38432 0.88603 0.0
O1575 O 0.01345 0.37893 0.86054 0.0
C1576 C 0.01269 0.3503 0.8243 0.0
O1577 O 0.02376 0.36216 0.82692 0.0
O1578 O 0.01053 0.34198 0.83807 0.0
C1579 C 0.05535 0.37371 0.86131 0.0
Tb1580 Tb 0.37069 0.29121 0.59457 0.0
C1581 C 0.39878 0.31284 0.61405 0.0
Tb1582 Tb 0.36562 0.30107 0.63111 0.0
O1583 O 0.35394 0.31092 0.58566 0.0
O1584 O 0.36614 0.31348 0.60801 0.0
O1585 O 0.3951 0.30314 0.60066 0.0
C1586 C 0.35495 0.31107 0.6607 0.0
O1587 O 0.38823 0.31527 0.62639 0.0
C1588 C 0.38411 0.27525 0.6271 0.0
C1589 C 0.33913 0.2788 0.61391 0.0
O1590 O 0.361 0.32089 0.64921 0.0
O1591 O 0.35509 0.29572 0.65558 0.0
O1592 O 0.38522 0.28544 0.63975 0.0
O1593 O 0.37171 0.27874 0.61818 0.0
O1594 O 0.34113 0.29216 0.62349 0.0
O1595 O 0.3508 0.27459 0.60344 0.0
C1596 C 0.37405 0.27331 0.56613 0.0
O1597 O 0.36126 0.28144 0.57055 0.0
O1598 O 0.38564 0.27614 0.57736 0.0
C1599 C 0.35519 0.31987 0.59925 0.0
Tb1600 Tb 0.1565 0.45706 0.38617 0.0
C1601 C 0.14573 0.4857 0.40891 0.0
Tb1602 Tb 0.14234 0.48563 0.37108 0.0
O1603 O 0.1779 0.47215 0.39587 0.0
O1604 O 0.16721 0.47831 0.37317 0.0
O1605 O 0.14514 0.4692 0.40757 0.0
C1606 C 0.13494 0.51305 0.35462 0.0
O1607 O 0.14919 0.49498 0.39573 0.0
C1608 C 0.11934 0.46521 0.38391 0.0
C1609 C 0.14702 0.45526 0.34726 0.0
O1610 O 0.12618 0.50615 0.36622 0.0
O1611 O 0.14805 0.50465 0.35224 0.0
O1612 O 0.11911 0.48134 0.38388 0.0
O1613 O 0.13219 0.46102 0.37625 0.0
O1614 O 0.14103 0.47037 0.34849 0.0
O1615 O 0.15393 0.44787 0.36029 0.0
C1616 C 0.16398 0.42596 0.39539 0.0
O1617 O 0.17169 0.43505 0.38436 0.0
O1618 O 0.15233 0.43462 0.40174 0.0
C1619 C 0.17816 0.48293 0.38377 0.0
Tb1620 Tb 0.28282 0.4085 0.12611 0.0
C1621 C 0.29999 0.39342 0.09425 0.0
Tb1622 Tb 0.29327 0.37093 0.12658 0.0
O1623 O 0.30449 0.41573 0.14233 0.0
O1624 O 0.30459 0.39486 0.12763 0.0
O1625 O 0.29211 0.40641 0.1005 0.0
C1626 C 0.30689 0.34142 0.13019 0.0
O1627 O 0.30304 0.37952 0.10272 0.0
C1628 C 0.26245 0.37257 0.11651 0.0
C1629 C 0.27238 0.38432 0.15562 0.0
O1630 O 0.30233 0.34811 0.11617 0.0
O1631 O 0.30537 0.3524 0.1421 0.0
O1632 O 0.2702 0.35881 0.11805 0.0
O1633 O 0.27223 0.38444 0.12086 0.0
O1634 O 0.2843 0.37413 0.15191 0.0
O1635 O 0.26832 0.3969 0.14586 0.0
C1636 C 0.26566 0.43654 0.12515 0.0
O1637 O 0.27444 0.43148 0.13769 0.0
O1638 O 0.26715 0.42614 0.1127 0.0
C1639 C 0.31254 0.40239 0.13895 0.0
Tb1640 Tb 0.33964 0.54493 0.86921 0.0
C1641 C 0.35807 0.56121 0.83769 0.0
Tb1642 Tb 0.3757 0.5562 0.87251 0.0
O1643 O 0.33196 0.56732 0.88351 0.0
O1644 O 0.3532 0.56789 0.87004 0.0
O1645 O 0.34467 0.55277 0.8432 0.0
C1646 C 0.40553 0.56784 0.88128 0.0
O1647 O 0.37096 0.56538 0.84746 0.0
C1648 C 0.37105 0.52733 0.85782 0.0
C1649 C 0.35911 0.53885 0.90261 0.0
O1650 O 0.39425 0.57665 0.87419 0.0
O1651 O 0.39994 0.55266 0.88336 0.0
O1652 O 0.38336 0.53763 0.855 0.0
O1653 O 0.36267 0.53269 0.8699 0.0
O1654 O 0.36913 0.55143 0.89841 0.0
O1655 O 0.34779 0.53278 0.89199 0.0
C1656 C 0.31169 0.52621 0.86533 0.0
O1657 O 0.31435 0.53785 0.87651 0.0
O1658 O 0.32449 0.52577 0.85571 0.0
C1659 C 0.34527 0.57619 0.88023 0.0
Tb1660 Tb 0.19366 0.60658 0.63578 0.0
C1661 C 0.22324 0.62392 0.65361 0.0
Tb1662 Tb 0.22122 0.62101 0.6144 0.0
O1663 O 0.21025 0.58812 0.64608 0.0
O1664 O 0.21341 0.59625 0.62162 0.0
O1665 O 0.20724 0.62068 0.65496 0.0
C1666 C 0.24942 0.62394 0.59847 0.0
O1667 O 0.2314 0.62169 0.63956 0.0
C1668 C 0.20098 0.64515 0.62131 0.0
C1669 C 0.18808 0.61171 0.596 0.0
O1670 O 0.24407 0.63478 0.60897 0.0
O1671 O 0.2389 0.61144 0.59682 0.0
O1672 O 0.21348 0.64691 0.61141 0.0
O1673 O 0.20021 0.63007 0.62592 0.0
O1674 O 0.20398 0.61549 0.59418 0.0
O1675 O 0.18144 0.6083 0.6109 0.0
C1676 C 0.16601 0.59716 0.65096 0.0
O1677 O 0.17434 0.58783 0.64103 0.0
O1678 O 0.17313 0.61191 0.65212 0.0
C1679 C 0.21953 0.58725 0.63304 0.0
Tb1680 Tb 0.14824 0.53657 0.13335 0.0
C1681 C 0.13383 0.56204 0.16014 0.0
Tb1682 Tb 0.11347 0.54833 0.12928 0.0
O1683 O 0.15711 0.55307 0.11332 0.0
O1684 O 0.13732 0.5595 0.12711 0.0
O1685 O 0.14527 0.55071 0.15713 0.0
C1686 C 0.08355 0.5574 0.11986 0.0
O1687 O 0.1213 0.56459 0.14972 0.0
C1688 C 0.11665 0.52286 0.14949 0.0
C1689 C 0.12657 0.52471 0.1027 0.0
O1690 O 0.09661 0.56733 0.12019 0.0
O1691 O 0.0874 0.54272 0.12497 0.0
O1692 O 0.10591 0.53431 0.15132 0.0
O1693 O 0.12438 0.52535 0.13603 0.0
O1694 O 0.11767 0.53796 0.1047 0.0
O1695 O 0.13707 0.51999 0.11441 0.0
C1696 C 0.17642 0.52001 0.13609 0.0
O1697 O 0.17161 0.52858 0.12338 0.0
O1698 O 0.16558 0.52128 0.14793 0.0
C1699 C 0.14548 0.56362 0.11443 0.0
Tb1700 Tb 0.20723 0.40419 0.87881 0.0
C1701 C 0.1866 0.38914 0.90829 0.0
Tb1702 Tb 0.19484 0.36768 0.87723 0.0
O1703 O 0.18291 0.41453 0.87457 0.0
O1704 O 0.18801 0.39053 0.86618 0.0
O1705 O 0.19924 0.39954 0.90463 0.0
C1706 C 0.18208 0.33664 0.87861 0.0
O1707 O 0.18083 0.37752 0.89773 0.0
C1708 C 0.22589 0.37281 0.88628 0.0
C1709 C 0.21334 0.38109 0.84639 0.0
O1710 O 0.19007 0.34442 0.89059 0.0
O1711 O 0.18051 0.34666 0.86595 0.0
O1712 O 0.22028 0.35981 0.87814 0.0
O1713 O 0.21399 0.38161 0.89024 0.0
O1714 O 0.20302 0.3692 0.85173 0.0
O1715 O 0.21677 0.3951 0.85497 0.0
C1716 C 0.22925 0.43017 0.87825 0.0
O1717 O 0.23184 0.41498 0.87356 0.0
O1718 O 0.21418 0.43078 0.88358 0.0
C1719 C 0.1766 0.40054 0.86862 0.0
Tb1720 Tb 0.32668 0.47222 0.62698 0.0
C1721 C 0.34569 0.45114 0.65357 0.0
Tb1722 Tb 0.3602 0.45937 0.61726 0.0
O1723 O 0.31637 0.44637 0.62672 0.0
O1724 O 0.33548 0.45316 0.61065 0.0
O1725 O 0.33395 0.46223 0.65136 0.0
C1726 C 0.38836 0.44424 0.6104 0.0
O1727 O 0.35598 0.4471 0.64145 0.0
C1728 C 0.3613 0.48997 0.62902 0.0
C1729 C 0.34406 0.48271 0.59296 0.0
O1730 O 0.3776 0.43933 0.62143 0.0
O1731 O 0.38269 0.45705 0.60274 0.0
O1732 O 0.37215 0.48401 0.61919 0.0
O1733 O 0.35174 0.47822 0.63371 0.0
O1734 O 0.35178 0.46843 0.59327 0.0
O1735 O 0.33486 0.48722 0.60568 0.0
C1736 C 0.30158 0.4937 0.63056 0.0
O1737 O 0.30329 0.48306 0.61839 0.0
O1738 O 0.31359 0.49153 0.6412 0.0
C1739 C 0.32676 0.44092 0.61582 0.0
Tb1740 Tb 0.29255 0.59692 0.36453 0.0
C1741 C 0.26186 0.60964 0.34699 0.0
Tb1742 Tb 0.26534 0.60855 0.38604 0.0
O1743 O 0.27648 0.57583 0.3556 0.0
O1744 O 0.27406 0.58464 0.37987 0.0
O1745 O 0.27811 0.60959 0.34556 0.0
C1746 C 0.23771 0.61034 0.40296 0.0
O1747 O 0.25444 0.60568 0.36119 0.0
C1748 C 0.28305 0.63559 0.37852 0.0
C1749 C 0.2992 0.60498 0.40349 0.0
O1750 O 0.24074 0.6177 0.38888 0.0
O1751 O 0.25008 0.60144 0.40741 0.0
O1752 O 0.27029 0.63527 0.38807 0.0
O1753 O 0.28572 0.62073 0.37375 0.0
O1754 O 0.2833 0.60665 0.40605 0.0
O1755 O 0.30528 0.60201 0.38847 0.0
C1756 C 0.32227 0.58835 0.35355 0.0
O1757 O 0.3137 0.58082 0.36505 0.0
O1758 O 0.31375 0.60053 0.34758 0.0
C1759 C 0.26793 0.57436 0.3692 0.0
Tb1760 Tb 0.36998 0.15246 0.46086 0.0
C1761 C 0.3392 0.13414 0.44218 0.0
Tb1762 Tb 0.37219 0.11588 0.44955 0.0
O1763 O 0.38571 0.16108 0.43966 0.0
O1764 O 0.37168 0.13931 0.43801 0.0
O1765 O 0.34465 0.14746 0.45116 0.0
C1766 C 0.37953 0.08572 0.4383 0.0
O1767 O 0.34851 0.1213 0.43851 0.0
C1768 C 0.35671 0.11997 0.47763 0.0
C1769 C 0.40224 0.13312 0.46716 0.0
O1770 O 0.37396 0.09772 0.42909 0.0
O1771 O 0.38096 0.09077 0.45369 0.0
O1772 O 0.35377 0.10777 0.4672 0.0
O1773 O 0.36924 0.12859 0.47294 0.0
O1774 O 0.3978 0.12249 0.45516 0.0
O1775 O 0.39195 0.14395 0.47333 0.0
C1776 C 0.3676 0.18067 0.47932 0.0
O1777 O 0.37876 0.17776 0.46828 0.0
O1778 O 0.35713 0.16795 0.47936 0.0
C1779 C 0.3827 0.14769 0.43074 0.0
Tb1780 Tb 0.89133 0.3529 0.52705 0.0
C1781 C 0.86352 0.36891 0.54632 0.0
Tb1782 Tb 0.896 0.38767 0.53662 0.0
O1783 O 0.88967 0.34337 0.55224 0.0
O1784 O 0.90421 0.36511 0.54822 0.0
O1785 O 0.86651 0.35838 0.53407 0.0
C1786 C 0.90421 0.41866 0.54746 0.0
O1787 O 0.87464 0.38033 0.55146 0.0
C1788 C 0.87498 0.38335 0.51138 0.0
C1789 C 0.92129 0.37301 0.51104 0.0
O1790 O 0.90278 0.41393 0.532 0.0
O1791 O 0.9014 0.40572 0.55692 0.0
O1792 O 0.87369 0.39447 0.52307 0.0
O1793 O 0.88812 0.37563 0.5138 0.0
O1794 O 0.91818 0.38565 0.52121 0.0
O1795 O 0.91265 0.35871 0.51167 0.0
C1796 C 0.88638 0.32364 0.51191 0.0
O1797 O 0.89958 0.32814 0.52034 0.0
O1798 O 0.87604 0.33565 0.51191 0.0
C1799 C 0.89776 0.35558 0.55949 0.0
Tb1800 Tb 0.40154 0.11908 0.27651 0.0
C1801 C 0.38737 0.09173 0.30091 0.0
Tb1802 Tb 0.36656 0.12184 0.29079 0.0
O1803 O 0.41352 0.12246 0.30121 0.0
O1804 O 0.39042 0.13227 0.2964 0.0
O1805 O 0.39659 0.09431 0.28741 0.0
C1806 C 0.33679 0.12899 0.30238 0.0
O1807 O 0.37683 0.10271 0.3064 0.0
C1808 C 0.36936 0.10162 0.26485 0.0
C1809 C 0.38057 0.15086 0.26822 0.0
O1810 O 0.34869 0.12289 0.31115 0.0
O1811 O 0.34169 0.13114 0.28712 0.0
O1812 O 0.35864 0.09944 0.27656 0.0
O1813 O 0.37701 0.11533 0.26745 0.0
O1814 O 0.36976 0.14653 0.27989 0.0
O1815 O 0.39344 0.14178 0.26459 0.0
C1816 C 0.4253 0.11599 0.25369 0.0
O1817 O 0.42516 0.12732 0.26543 0.0
O1818 O 0.41242 0.10603 0.25531 0.0
C1819 C 0.40096 0.12964 0.3078 0.0
Tb1820 Tb 0.62814 0.64161 0.03548 0.0
C1821 C 0.6561 0.62401 0.05604 0.0
Tb1822 Tb 0.62314 0.60363 0.0451 0.0
O1823 O 0.61136 0.64926 0.05535 0.0
O1824 O 0.62352 0.62721 0.05715 0.0
O1825 O 0.65199 0.63733 0.04714 0.0
C1826 C 0.61902 0.57325 0.05758 0.0
O1827 O 0.64606 0.61068 0.05834 0.0
C1828 C 0.63535 0.60697 0.01461 0.0
C1829 C 0.59681 0.62042 0.02312 0.0
O1830 O 0.63237 0.57946 0.05099 0.0
O1831 O 0.60783 0.58456 0.0581 0.0
O1832 O 0.63207 0.59277 0.02171 0.0
O1833 O 0.63112 0.61804 0.0247 0.0
O1834 O 0.59899 0.60903 0.03489 0.0
O1835 O 0.60805 0.63232 0.01961 0.0
C1836 C 0.63535 0.67024 0.01997 0.0
O1837 O 0.62139 0.66628 0.0269 0.0
O1838 O 0.64548 0.65819 0.02207 0.0
C1839 C 0.6124 0.63542 0.06368 0.0
Tb1840 Tb 0.59217 0.37102 0.29062 0.0
C1841 C 0.60977 0.40363 0.30558 0.0
Tb1842 Tb 0.62921 0.36997 0.30299 0.0
O1843 O 0.58308 0.35788 0.31311 0.0
O1844 O 0.60547 0.37062 0.31384 0.0
O1845 O 0.59672 0.39741 0.29703 0.0
C1846 C 0.65821 0.36856 0.31839 0.0
O1847 O 0.62229 0.39467 0.31084 0.0
C1848 C 0.62735 0.37692 0.27064 0.0
C1849 C 0.61364 0.33921 0.28552 0.0
O1850 O 0.65171 0.38198 0.31266 0.0
O1851 O 0.64788 0.35589 0.31634 0.0
O1852 O 0.64105 0.37537 0.27879 0.0
O1853 O 0.61598 0.37396 0.28082 0.0
O1854 O 0.62344 0.34389 0.29808 0.0
O1855 O 0.60257 0.34916 0.27892 0.0
C1856 C 0.56494 0.37154 0.27127 0.0
O1857 O 0.57036 0.35867 0.27914 0.0
O1858 O 0.57462 0.38446 0.2747 0.0
C1859 C 0.59655 0.36038 0.32185 0.0
Tb1860 Tb 0.11062 0.84392 0.97771 0.0
C1861 C 0.1417 0.86067 0.96025 0.0
Tb1862 Tb 0.10961 0.88026 0.96629 0.0
O1863 O 0.09597 0.83491 0.95547 0.0
O1864 O 0.10979 0.8567 0.9546 0.0
O1865 O 0.13606 0.84816 0.96974 0.0
C1866 C 0.10538 0.91116 0.95517 0.0
O1867 O 0.13248 0.87315 0.95519 0.0
C1868 C 0.12624 0.87576 0.99396 0.0
C1869 C 0.07965 0.865 0.98501 0.0
O1870 O 0.10602 0.89794 0.94566 0.0
O1871 O 0.10677 0.90682 0.97071 0.0
O1872 O 0.12937 0.88758 0.98333 0.0
O1873 O 0.113 0.86779 0.98976 0.0
O1874 O 0.08403 0.87481 0.97244 0.0
O1875 O 0.08944 0.85331 0.99062 0.0
C1876 C 0.11672 0.81701 0.9964 0.0
O1877 O 0.10297 0.81966 0.98853 0.0
O1878 O 0.12716 0.82921 0.99322 0.0
C1879 C 0.09926 0.84814 0.94648 0.0
Tb1880 Tb 0.39599 0.85298 0.21794 0.0
C1881 C 0.3775 0.88192 0.20338 0.0
Tb1882 Tb 0.35988 0.8464 0.20826 0.0
O1883 O 0.40351 0.857 0.19238 0.0
O1884 O 0.38313 0.84074 0.19678 0.0
O1885 O 0.38909 0.87835 0.21438 0.0
C1886 C 0.33101 0.84294 0.19184 0.0
O1887 O 0.3661 0.87082 0.19808 0.0
C1888 C 0.36153 0.86239 0.23746 0.0
C1889 C 0.37597 0.8214 0.23265 0.0
O1890 O 0.34391 0.8515 0.18688 0.0
O1891 O 0.33491 0.83521 0.2055 0.0
O1892 O 0.34791 0.85801 0.22985 0.0
O1893 O 0.37304 0.85763 0.22835 0.0
O1894 O 0.36403 0.82297 0.22132 0.0
O1895 O 0.38886 0.83195 0.2337 0.0
C1896 C 0.42521 0.85488 0.23302 0.0
O1897 O 0.41909 0.84182 0.22513 0.0
O1898 O 0.41496 0.86696 0.23226 0.0
C1899 C 0.39139 0.84859 0.18539 0.0
Tb1900 Tb 0.10679 0.11215 0.71587 0.0
C1901 C 0.12533 0.08422 0.69562 0.0
Tb1902 Tb 0.14197 0.11903 0.70445 0.0
O1903 O 0.09716 0.12962 0.69704 0.0
O1904 O 0.11862 0.11712 0.69311 0.0
O1905 O 0.1133 0.08755 0.70626 0.0
C1906 C 0.17064 0.13148 0.69366 0.0
O1907 O 0.13695 0.09551 0.69134 0.0
C1908 C 0.13925 0.10093 0.73143 0.0
C1909 C 0.12347 0.1472 0.7234 0.0
O1910 O 0.16646 0.12994 0.70919 0.0
O1911 O 0.15872 0.12569 0.68405 0.0
O1912 O 0.15095 0.09957 0.72064 0.0
O1913 O 0.13052 0.11317 0.72757 0.0
O1914 O 0.13502 0.1439 0.71243 0.0
O1915 O 0.11182 0.13609 0.72759 0.0
C1916 C 0.08104 0.10369 0.7348 0.0
O1917 O 0.09615 0.10572 0.73994 0.0
O1918 O 0.0804 0.10575 0.71865 0.0
C1919 C 0.10977 0.12825 0.68727 0.0
H1920 H 0.10848 0.25308 0.3449 0.0
H1921 H 0.07714 0.16898 0.38832 0.0
H1922 H 0.13706 0.22875 0.38299 0.0
H1923 H 0.05992 0.18437 0.33949 0.0
H1924 H 0.09678 0.19258 0.38881 0.0
H1925 H 0.08852 0.22978 0.34511 0.0
C1926 C 0.11054 0.24283 0.35341 0.0
C1927 C 0.12442 0.24291 0.36407 0.0
C1928 C 0.08873 0.19077 0.37799 0.0
C1929 C 0.10143 0.21612 0.36435 0.0
C1930 C 0.07739 0.17733 0.37766 0.0
C1931 C 0.0668 0.17458 0.36374 0.0
C1932 C 0.08945 0.20175 0.36441 0.0
C1933 C 0.06782 0.18594 0.35044 0.0
C1934 C 0.09911 0.22951 0.35346 0.0
C1935 C 0.12639 0.22931 0.37482 0.0
N1936 N 0.07895 0.19907 0.35112 0.0
N1937 N 0.11494 0.21641 0.37473 0.0
H1938 H 0.98827 0.83286 0.64656 0.0
H1939 H 0.07065 0.80946 0.6003 0.0
H1940 H 0.00818 0.86234 0.60591 0.0
H1941 H 0.06305 0.79785 0.65246 0.0
H1942 H 0.04605 0.82639 0.60063 0.0
H1943 H 0.01395 0.81753 0.64775 0.0
C1944 C -0.00189 0.83627 0.63805 0.0
C1945 C 0.99615 0.84904 0.62627 0.0
C1946 C 0.04979 0.82015 0.61201 0.0
C1947 C 0.02529 0.83114 0.62712 0.0
C1948 C 0.06377 0.8104 0.61181 0.0
C1949 C 0.0689 0.80214 0.62636 0.0
C1950 C 0.0406 0.82138 0.62675 0.0
C1951 C 0.05957 0.80399 0.64095 0.0
C1952 C 0.01272 0.82745 0.63867 0.0
C1953 C 0.00916 0.85259 0.61522 0.0
N1954 N 0.04579 0.81326 0.64074 0.0
N1955 N 0.02309 0.84361 0.61581 0.0
H1956 H 0.46532 0.82977 0.88465 0.0
H1957 H 0.39246 0.77874 0.84031 0.0
H1958 H 0.43123 0.85383 0.8515 0.0
H1959 H 0.41256 0.76336 0.88779 0.0
H1960 H 0.40684 0.80593 0.84351 0.0
H1961 H 0.44689 0.80503 0.88523 0.0
C1962 C 0.45392 0.82986 0.87746 0.0
C1963 C 0.4499 0.84385 0.86784 0.0
C1964 C 0.40796 0.79674 0.85335 0.0
C1965 C 0.42872 0.81539 0.86845 0.0
C1966 C 0.39981 0.78119 0.85152 0.0
C1967 C 0.40145 0.76879 0.86377 0.0
C1968 C 0.41818 0.79982 0.86736 0.0
C1969 C 0.41101 0.77261 0.87808 0.0
C1970 C 0.44335 0.81575 0.87794 0.0
C1971 C 0.43484 0.8433 0.85902 0.0
N1972 N 0.41927 0.78773 0.87935 0.0
N1973 N 0.4249 0.82918 0.85933 0.0
H1974 H 0.39494 0.19547 0.14195 0.0
H1975 H 0.47435 0.17291 0.09341 0.0
H1976 H 0.3993 0.21504 0.09169 0.0
H1977 H 0.44236 0.13741 0.11914 0.0
H1978 H 0.45249 0.19364 0.09502 0.0
H1979 H 0.42021 0.18062 0.13793 0.0
C1980 C 0.40135 0.19687 0.13017 0.0
C1981 C 0.39477 0.20595 0.1169 0.0
C1982 C 0.45037 0.1812 0.10006 0.0
C1983 C 0.42347 0.18908 0.11233 0.0
C1984 C 0.46265 0.16944 0.09907 0.0
C1985 C 0.46009 0.15372 0.10649 0.0
C1986 C 0.43591 0.17697 0.10874 0.0
C1987 C 0.44486 0.14958 0.11362 0.0
C1988 C 0.41572 0.18841 0.12791 0.0
C1989 C 0.40385 0.20779 0.10207 0.0
N1990 N 0.4334 0.16127 0.11481 0.0
N1991 N 0.41773 0.19906 0.09999 0.0
H1992 H 0.02348 0.84482 0.13467 0.0
H1993 H 0.10472 0.79465 0.15094 0.0
H1994 H 0.07031 0.86906 0.14726 0.0
H1995 H 0.06834 0.7787 0.11383 0.0
H1996 H 0.08915 0.81973 0.15613 0.0
H1997 H 0.03702 0.81782 0.13335 0.0
C1998 C 0.03655 0.8443 0.13748 0.0
C1999 C 0.04595 0.85888 0.14111 0.0
C2000 C 0.08459 0.81068 0.1469 0.0
C2001 C 0.06122 0.82858 0.13979 0.0
C2002 C 0.09342 0.79646 0.14394 0.0
C2003 C 0.08778 0.78486 0.13184 0.0
C2004 C 0.07 0.81308 0.13784 0.0
C2005 C 0.07307 0.78756 0.12314 0.0
C2006 C 0.04422 0.82905 0.13661 0.0
C2007 C 0.06281 0.85792 0.1444 0.0
N2008 N 0.06459 0.8015 0.12633 0.0
N2009 N 0.06997 0.84291 0.14372 0.0
H2010 H 0.49576 0.82296 0.40834 0.0
H2011 H 0.40487 0.81869 0.3687 0.0
H2012 H 0.48534 0.84793 0.36186 0.0
H2013 H 0.42452 0.78045 0.40038 0.0
H2014 H 0.43246 0.83285 0.36844 0.0
H2015 H 0.46802 0.81021 0.40778 0.0
C2016 C 0.48761 0.82565 0.39792 0.0
C2017 C 0.4929 0.83633 0.38503 0.0
C2018 C 0.43062 0.8214 0.37549 0.0
C2019 C 0.4608 0.8221 0.38452 0.0
C2020 C 0.41487 0.81345 0.37582 0.0
C2021 C 0.41236 0.79842 0.38467 0.0
C2022 C 0.44379 0.81438 0.3843 0.0
C2023 C 0.42584 0.79201 0.39342 0.0
C2024 C 0.47175 0.81839 0.39762 0.0
C2025 C 0.48179 0.83952 0.37189 0.0
N2026 N 0.44086 0.80002 0.39305 0.0
N2027 N 0.46615 0.83253 0.37202 0.0
H2028 H 0.44315 0.19146 0.65479 0.0
H2029 H 0.38238 0.25013 0.60333 0.0
H2030 H 0.42794 0.18184 0.60352 0.0
H2031 H 0.40557 0.2642 0.65044 0.0
H2032 H 0.39714 0.22379 0.604 0.0
H2033 H 0.42741 0.21703 0.65441 0.0
C2034 C 0.43656 0.1947 0.64346 0.0
C2035 C 0.43701 0.18449 0.62915 0.0
C2036 C 0.39898 0.23268 0.61418 0.0
C2037 C 0.4189 0.21371 0.62863 0.0
C2038 C 0.39058 0.24768 0.61376 0.0
C2039 C 0.39284 0.25936 0.62678 0.0
C2040 C 0.40956 0.22934 0.62778 0.0
C2041 C 0.40353 0.25556 0.64009 0.0
C2042 C 0.42757 0.20931 0.64324 0.0
C2043 C 0.42808 0.18932 0.61485 0.0
N2044 N 0.41144 0.2409 0.64026 0.0
N2045 N 0.41942 0.20355 0.61496 0.0
H2046 H 0.08509 0.16324 0.859 0.0
H2047 H -0.00156 0.13886 0.89991 0.0
H2048 H 0.0684 0.1843 0.90553 0.0
H2049 H 0.01906 0.11043 0.85966 0.0
H2050 H 0.02258 0.15765 0.89989 0.0
H2051 H 0.05982 0.14614 0.85707 0.0
C2052 C 0.07612 0.16437 0.86885 0.0
C2053 C 0.07905 0.17524 0.88259 0.0
C2054 C 0.0219 0.14734 0.89104 0.0
C2055 C 0.04987 0.15547 0.88028 0.0
C2056 C 0.0081 0.13656 0.89101 0.0
C2057 C 0.00683 0.12292 0.87987 0.0
C2058 C 0.03465 0.14459 0.8798 0.0
C2059 C 0.01961 0.12074 0.8685 0.0
C2060 C 0.06166 0.1545 0.86769 0.0
C2061 C 0.06679 0.17608 0.89479 0.0
N2062 N 0.03307 0.13147 0.86879 0.0
N2063 N 0.05276 0.16629 0.89335 0.0
H2064 H 0.34659 0.02877 0.18722 0.0
H2065 H 0.3802 0.11209 0.23396 0.0
H2066 H 0.3544 0.07563 0.16129 0.0
H2067 H 0.35611 0.07054 0.25921 0.0
H2068 H 0.37525 0.09758 0.20702 0.0
H2069 H 0.35414 0.04275 0.21355 0.0
C2070 C 0.34976 0.04204 0.18705 0.0
C2071 C 0.34964 0.05107 0.172 0.0
C2072 C 0.37115 0.09163 0.21848 0.0
C2073 C 0.35857 0.06712 0.2022 0.0
C2074 C 0.37407 0.09983 0.23383 0.0
C2075 C 0.36844 0.09249 0.24875 0.0
C2076 C 0.36277 0.07593 0.21818 0.0
C2077 C 0.36054 0.07665 0.24795 0.0
C2078 C 0.35412 0.05 0.20212 0.0
C2079 C 0.3541 0.06821 0.17261 0.0
N2080 N 0.35793 0.0689 0.23293 0.0
N2081 N 0.35843 0.07569 0.18746 0.0
H2082 H 0.13464 0.13105 0.49142 0.0
H2083 H 0.19628 0.08575 0.42977 0.0
H2084 H 0.16679 0.09189 0.5066 0.0
H2085 H 0.17255 0.13159 0.41699 0.0
H2086 H 0.18429 0.0871 0.45764 0.0
H2087 H 0.14747 0.13114 0.46365 0.0
C2088 C 0.14448 0.1226 0.48894 0.0
C2089 C 0.14969 0.11145 0.50125 0.0
C2090 C 0.18176 0.0969 0.44874 0.0
C2091 C 0.16414 0.11125 0.46966 0.0
C2092 C 0.18856 0.09609 0.43279 0.0
C2093 C 0.18543 0.10855 0.42098 0.0
C2094 C 0.17167 0.1102 0.45289 0.0
C2095 C 0.17533 0.12168 0.42566 0.0
C2096 C 0.15175 0.12261 0.47312 0.0
C2097 C 0.16238 0.10067 0.49743 0.0
N2098 N 0.16878 0.12214 0.44124 0.0
N2099 N 0.16909 0.10076 0.48195 0.0
H2100 H 0.14177 0.91252 0.76602 0.0
H2101 H 0.12265 0.90488 0.66777 0.0
H2102 H 0.11322 0.87156 0.74378 0.0
H2103 H 0.15086 0.94622 0.68985 0.0
H2104 H 0.11921 0.89258 0.6954 0.0
H2105 H 0.14458 0.92539 0.73847 0.0
C2106 C 0.13597 0.90629 0.75529 0.0
C2107 C 0.12729 0.89093 0.75714 0.0
C2108 C 0.12618 0.90432 0.69428 0.0
C2109 C 0.13067 0.90551 0.72545 0.0
C2110 C 0.12819 0.91138 0.67847 0.0
C2111 C 0.13703 0.92667 0.6765 0.0
C2112 C 0.13297 0.9126 0.70837 0.0
C2113 C 0.14407 0.93437 0.69079 0.0
C2114 C 0.13764 0.91363 0.73956 0.0
C2115 C 0.11995 0.88344 0.74289 0.0
N2116 N 0.1418 0.9273 0.70617 0.0
N2117 N 0.12191 0.89076 0.7276 0.0
H2118 H 0.37781 0.90885 0.98535 0.0
H2119 H 0.30014 0.8715 0.93434 0.0
H2120 H 0.35518 0.86119 0.99837 0.0
H2121 H 0.33661 0.90482 0.91204 0.0
H2122 H 0.31793 0.86936 0.95924 0.0
H2123 H 0.36101 0.90917 0.95976 0.0
C2124 C 0.36933 0.89838 0.98275 0.0
C2125 C 0.36795 0.88494 0.99397 0.0
C2126 C 0.32201 0.87713 0.94889 0.0
C2127 C 0.34824 0.88544 0.96477 0.0
C2128 C 0.3118 0.87852 0.93471 0.0
C2129 C 0.31677 0.88851 0.92103 0.0
C2130 C 0.33724 0.88602 0.94962 0.0
C2131 C 0.33217 0.89705 0.92223 0.0
C2132 C 0.35974 0.89857 0.96812 0.0
C2133 C 0.35673 0.87171 0.98997 0.0
N2134 N 0.34175 0.89572 0.93628 0.0
N2135 N 0.34713 0.87239 0.97579 0.0
H2136 H 0.38301 0.93801 0.31408 0.0
H2137 H 0.33801 0.86411 0.26089 0.0
H2138 H 0.33384 0.91874 0.32388 0.0
H2139 H 0.38645 0.88422 0.2491 0.0
H2140 H 0.33695 0.88328 0.28467 0.0
H2141 H 0.38468 0.91867 0.29031 0.0
C2142 C 0.37248 0.9298 0.31106 0.0
C2143 C 0.35818 0.93009 0.32079 0.0
C2144 C 0.34785 0.88355 0.27696 0.0
C2145 C 0.36019 0.90751 0.29395 0.0
C2146 C 0.34851 0.87253 0.26341 0.0
C2147 C 0.36233 0.8726 0.25299 0.0
C2148 C 0.36105 0.89497 0.28009 0.0
C2149 C 0.3756 0.88369 0.25688 0.0
C2150 C 0.37348 0.91869 0.29757 0.0
C2151 C 0.34495 0.91914 0.31648 0.0
N2152 N 0.37458 0.89455 0.27005 0.0
N2153 N 0.34632 0.9082 0.30346 0.0
H2154 H 0.3288 0.13704 0.58055 0.0
H2155 H 0.33309 0.09839 0.48868 0.0
H2156 H 0.30429 0.09041 0.56563 0.0
H2157 H 0.3637 0.1408 0.50478 0.0
H2158 H 0.32164 0.09627 0.51655 0.0
H2159 H 0.34094 0.13932 0.55291 0.0
C2160 C 0.32598 0.1272 0.5715 0.0
C2161 C 0.31542 0.11347 0.57547 0.0
C2162 C 0.33083 0.10607 0.51408 0.0
C2163 C 0.32938 0.11615 0.54366 0.0
C2164 C 0.33737 0.10735 0.49812 0.0
C2165 C 0.34941 0.11979 0.49444 0.0
C2166 C 0.33622 0.1174 0.52655 0.0
C2167 C 0.35444 0.13104 0.50714 0.0
C2168 C 0.33298 0.12856 0.55569 0.0
C2169 C 0.31232 0.10119 0.56317 0.0
N2170 N 0.34779 0.12959 0.5227 0.0
N2171 N 0.31923 0.10286 0.54779 0.0
H2172 H 0.12556 0.11071 0.76109 0.0
H2173 H 0.163 0.03578 0.81446 0.0
H2174 H 0.15436 0.07226 0.73896 0.0
H2175 H 0.14481 0.08098 0.83616 0.0
H2176 H 0.15831 0.04752 0.78642 0.0
H2177 H 0.12979 0.09798 0.78867 0.0
C2178 C 0.13256 0.09946 0.76203 0.0
C2179 C 0.1397 0.09254 0.74782 0.0
C2180 C 0.15552 0.05489 0.79737 0.0
C2181 C 0.14476 0.07803 0.77919 0.0
C2182 C 0.15838 0.04827 0.81334 0.0
C2183 C 0.15437 0.05742 0.82766 0.0
C2184 C 0.14854 0.0707 0.7958 0.0
C2185 C 0.14805 0.07343 0.82548 0.0
C2186 C 0.13511 0.09227 0.77776 0.0
C2187 C 0.14877 0.07802 0.74969 0.0
N2188 N 0.14524 0.07948 0.8099 0.0
N2189 N 0.15108 0.07126 0.76509 0.0
H2190 H 0.16545 0.88233 0.0945 0.0
H2191 H 0.15898 0.88124 0.99493 0.0
H2192 H 0.20749 0.88899 0.0622 0.0
H2193 H 0.11842 0.8653 0.02616 0.0
H2194 H 0.17697 0.88295 0.01949 0.0
H2195 H 0.14816 0.87555 0.07003 0.0
C2196 C 0.17108 0.88246 0.08225 0.0
C2197 C 0.18801 0.88642 0.08044 0.0
C2198 C 0.16423 0.87883 0.02106 0.0
C2199 C 0.16811 0.87852 0.05227 0.0
C2200 C 0.15394 0.87779 0.00701 0.0
C2201 C 0.13719 0.87315 0.00855 0.0
C2202 C 0.15774 0.87545 0.03695 0.0
C2203 C 0.13129 0.86882 0.02445 0.0
C2204 C 0.16116 0.87844 0.06829 0.0
C2205 C 0.19454 0.88609 0.06424 0.0
N2206 N 0.14153 0.87032 0.03813 0.0
N2207 N 0.18456 0.88235 0.05081 0.0
H2208 H 0.17468 0.39094 0.05793 0.0
H2209 H 0.23991 0.34743 0.11718 0.0
H2210 H 0.17377 0.33803 0.06839 0.0
H2211 H 0.24735 0.39794 0.09933 0.0
H2212 H 0.21434 0.34482 0.10114 0.0
H2213 H 0.20062 0.39433 0.07354 0.0
C2214 C 0.18009 0.37998 0.06337 0.0
C2215 C 0.17206 0.36416 0.06197 0.0
C2216 C 0.22145 0.35653 0.10075 0.0
C2217 C 0.20156 0.36806 0.0801 0.0
C2218 C 0.23597 0.3581 0.11002 0.0
C2219 C 0.2457 0.37293 0.1095 0.0
C2220 C 0.21655 0.36989 0.0908 0.0
C2221 C 0.24007 0.38637 0.10013 0.0
C2222 C 0.19485 0.38196 0.0723 0.0
C2223 C 0.17961 0.3504 0.06911 0.0
N2224 N 0.22583 0.38449 0.09099 0.0
N2225 N 0.19387 0.3527 0.07805 0.0
H2226 H 0.72937 0.10717 0.93543 0.0
H2227 H 0.63833 0.13676 0.92095 0.0
H2228 H 0.7092 0.11938 0.88692 0.0
H2229 H 0.66117 0.13524 0.96991 0.0
H2230 H 0.66507 0.13269 0.90824 0.0
H2231 H 0.70485 0.11822 0.94859 0.0
C2232 C 0.7197 0.11206 0.9276 0.0
C2233 C 0.72105 0.11218 0.91015 0.0
C2234 C 0.66436 0.13349 0.92176 0.0
C2235 C 0.69346 0.12514 0.92492 0.0
C2236 C 0.64915 0.13586 0.92895 0.0
C2237 C 0.64779 0.13614 0.94637 0.0
C2238 C 0.67809 0.1309 0.93215 0.0
C2239 C 0.66194 0.13506 0.95637 0.0
C2240 C 0.70587 0.11855 0.93507 0.0
C2241 C 0.70842 0.11882 0.90044 0.0
N2242 N 0.67659 0.13211 0.9491 0.0
N2243 N 0.6951 0.12504 0.90798 0.0
H2244 H 0.08913 0.50839 0.16326 0.0
H2245 H 0.13742 0.43099 0.1991 0.0
H2246 H 0.14051 0.5002 0.15433 0.0
H2247 H 0.08424 0.43082 0.19712 0.0
H2248 H 0.13853 0.45796 0.18535 0.0
H2249 H 0.08678 0.48126 0.17743 0.0
C2250 C 0.09996 0.50092 0.16445 0.0
C2251 C 0.11514 0.50657 0.15788 0.0
C2252 C 0.12659 0.45209 0.18786 0.0
C2253 C 0.11257 0.47578 0.17417 0.0
C2254 C 0.12592 0.43667 0.19578 0.0
C2255 C 0.11069 0.42857 0.19913 0.0
C2256 C 0.11192 0.45962 0.1832 0.0
C2257 C 0.09622 0.43669 0.1948 0.0
C2258 C 0.09858 0.48545 0.17245 0.0
C2259 C 0.12867 0.49633 0.15936 0.0
N2260 N 0.09718 0.45181 0.18694 0.0
N2261 N 0.12711 0.48149 0.16751 0.0
H2262 H 0.8128 0.85374 0.4483 0.0
H2263 H 0.75057 0.8943 0.38276 0.0
H2264 H 0.82538 0.89918 0.42144 0.0
H2265 H 0.73786 0.85424 0.41687 0.0
H2266 H 0.77844 0.89612 0.3954 0.0
H2267 H 0.78571 0.85319 0.43518 0.0
C2268 C 0.80989 0.86365 0.43965 0.0
C2269 C 0.82142 0.87657 0.43605 0.0
C2270 C 0.76948 0.887 0.4001 0.0
C2271 C 0.79019 0.87602 0.4209 0.0
C2272 C 0.75362 0.88601 0.39295 0.0
C2273 C 0.74197 0.87414 0.39883 0.0
C2274 C 0.77357 0.87593 0.41305 0.0
C2275 C 0.74649 0.86356 0.41193 0.0
C2276 C 0.79434 0.86334 0.43215 0.0
C2277 C 0.81686 0.889 0.42465 0.0
N2278 N 0.76191 0.86468 0.41853 0.0
N2279 N 0.80157 0.88843 0.41746 0.0
H2280 H 0.86236 0.07271 0.20024 0.0
H2281 H 0.8831 0.01252 0.1244 0.0
H2282 H 0.90426 0.08065 0.16818 0.0
H2283 H 0.84627 -0.0004 0.1612 0.0
H2284 H 0.89069 0.03768 0.1403 0.0
H2285 H 0.85672 0.04545 0.18698 0.0
C2286 C 0.87059 0.06843 0.19064 0.0
C2287 C 0.88384 0.07867 0.18529 0.0
C2288 C 0.88097 0.02937 0.14496 0.0
C2289 C 0.87719 0.04799 0.16971 0.0
C2290 C 0.87655 0.01507 0.13584 0.0
C2291 C 0.86409 0.00401 0.14159 0.0
C2292 C 0.87282 0.03271 0.15993 0.0
C2293 C 0.85591 0.00789 0.15638 0.0
C2294 C 0.86731 0.05298 0.18301 0.0
C2295 C 0.89407 0.07289 0.17273 0.0
N2296 N 0.86045 0.02199 0.1651 0.0
N2297 N 0.89039 0.05794 0.16518 0.0
H2298 H 0.33513 0.66355 0.54748 0.0
H2299 H 0.2649 0.60022 0.58112 0.0
H2300 H 0.33126 0.6109 0.53555 0.0
H2301 H 0.26769 0.65266 0.59419 0.0
H2302 H 0.28891 0.60443 0.56339 0.0
H2303 H 0.30902 0.6608 0.56264 0.0
C2304 C 0.32849 0.65156 0.54768 0.0
C2305 C 0.33518 0.63738 0.5405 0.0
C2306 C 0.28425 0.61507 0.57004 0.0
C2307 C 0.30592 0.63404 0.55783 0.0
C2308 C 0.27063 0.61262 0.58018 0.0
C2309 C 0.26441 0.62615 0.58886 0.0
C2310 C 0.29152 0.6312 0.56853 0.0
C2311 C 0.27225 0.64196 0.58755 0.0
C2312 C 0.31377 0.64993 0.55646 0.0
C2313 C 0.32642 0.62205 0.54115 0.0
N2314 N 0.28545 0.6441 0.57743 0.0
N2315 N 0.31227 0.62074 0.54984 0.0
H2316 H 0.13688 0.59866 0.29213 0.0
H2317 H 0.10879 0.53233 0.3603 0.0
H2318 H 0.09078 0.60128 0.31813 0.0
H2319 H 0.15027 0.52652 0.32764 0.0
H2320 H 0.10102 0.55691 0.34435 0.0
H2321 H 0.14078 0.57103 0.3037 0.0
C2322 C 0.12746 0.59316 0.30011 0.0
C2323 C 0.11351 0.6019 0.30425 0.0
C2324 C 0.11171 0.55015 0.34058 0.0
C2325 C 0.11803 0.57078 0.31798 0.0
C2326 C 0.11619 0.53624 0.3497 0.0
C2327 C 0.13021 0.52764 0.34522 0.0
C2328 C 0.1214 0.55534 0.32699 0.0
C2329 C 0.13944 0.53301 0.33148 0.0
C2330 C 0.12968 0.57746 0.30676 0.0
C2331 C 0.10164 0.59461 0.3147 0.0
N2332 N 0.13488 0.54663 0.32284 0.0
N2333 N 0.10428 0.5794 0.32149 0.0
H2334 H 0.34884 0.50111 0.86399 0.0
H2335 H 0.39906 0.43789 0.80709 0.0
H2336 H 0.39355 0.51423 0.83751 0.0
H2337 H 0.35201 0.42472 0.82915 0.0
H2338 H 0.39822 0.46538 0.82042 0.0
H2339 H 0.35036 0.47234 0.85309 0.0
C2340 C 0.35891 0.49793 0.85591 0.0
C2341 C 0.37102 0.51001 0.85156 0.0
C2342 C 0.38809 0.45644 0.82238 0.0
C2343 C 0.373 0.47741 0.83934 0.0
C2344 C 0.38861 0.44075 0.81479 0.0
C2345 C 0.37559 0.42903 0.81696 0.0
C2346 C 0.3744 0.46048 0.8321 0.0
C2347 C 0.36235 0.43337 0.82715 0.0
C2348 C 0.35982 0.48157 0.84975 0.0
C2349 C 0.38389 0.50532 0.84113 0.0
N2350 N 0.36204 0.44879 0.83426 0.0
N2351 N 0.38454 0.48943 0.83541 0.0
H2352 H 0.92778 0.81843 0.66405 0.0
H2353 H 0.86729 0.76023 0.60775 0.0
H2354 H 0.91784 0.82866 0.6119 0.0
H2355 H 0.86648 0.76095 0.66169 0.0
H2356 H 0.88684 0.7843 0.60832 0.0
H2357 H 0.90705 0.7954 0.66282 0.0
C2358 C 0.92134 0.81574 0.65234 0.0
C2359 C 0.92447 0.82549 0.6381 0.0
C2360 C 0.88212 0.77937 0.62001 0.0
C2361 C 0.90076 0.79931 0.63659 0.0
C2362 C 0.87071 0.76583 0.61964 0.0
C2363 C 0.86491 0.75892 0.63464 0.0
C2364 C 0.88791 0.78574 0.63553 0.0
C2365 C 0.87057 0.76604 0.64982 0.0
C2366 C 0.90943 0.80271 0.65166 0.0
C2367 C 0.91571 0.82154 0.62323 0.0
N2368 N 0.88181 0.77899 0.64989 0.0
N2369 N 0.90427 0.80873 0.62285 0.0
H2370 H 0.92421 0.1938 0.40021 0.0
H2371 H -0.00078 0.15645 0.34993 0.0
H2372 H 0.92717 0.19702 0.34641 0.0
H2373 H 0.98631 0.1419 0.40015 0.0
H2374 H 0.97357 0.1719 0.34793 0.0
H2375 H 0.94782 0.17563 0.40035 0.0
C2376 C 0.92993 0.19079 0.38843 0.0
C2377 C 0.92382 0.19707 0.3733 0.0
C2378 C 0.97627 0.16512 0.35929 0.0
C2379 C 0.95098 0.17628 0.37332 0.0
C2380 C 0.99086 0.15621 0.36036 0.0
C2381 C 0.99489 0.14789 0.37519 0.0
C2382 C 0.9658 0.16577 0.37322 0.0
C2383 C 0.98374 0.14826 0.38851 0.0
C2384 C 0.94335 0.1803 0.38849 0.0
C2385 C 0.93153 0.19247 0.35836 0.0
N2386 N 0.96983 0.15714 0.38726 0.0
N2387 N 0.94482 0.1825 0.35875 0.0
H2388 H 0.5252 0.17143 0.11412 0.0
H2389 H 0.60072 0.21947 0.15822 0.0
H2390 H 0.56024 0.14621 0.14526 0.0
H2391 H 0.57896 0.23796 0.11274 0.0
H2392 H 0.58524 0.193 0.15443 0.0
H2393 H 0.54351 0.19644 0.1144 0.0
C2394 C 0.53671 0.17116 0.12109 0.0
C2395 C 0.54112 0.15671 0.12982 0.0
C2396 C 0.58397 0.20271 0.14513 0.0
C2397 C 0.56212 0.18536 0.13015 0.0
C2398 C 0.5928 0.21783 0.14728 0.0
C2399 C 0.59107 0.23087 0.13577 0.0
C2400 C 0.57298 0.20069 0.13155 0.0
C2401 C 0.58067 0.22813 0.12182 0.0
C2402 C 0.54721 0.1854 0.1211 0.0
C2403 C 0.55631 0.15705 0.13841 0.0
N2404 N 0.57177 0.21339 0.12023 0.0
N2405 N 0.56617 0.1712 0.13851 0.0
H2406 H 0.54277 0.85793 0.90672 0.0
H2407 H 0.58876 0.77367 0.88873 0.0
H2408 H 0.52177 0.82037 0.87304 0.0
H2409 H 0.61322 0.82208 0.89479 0.0
H2410 H 0.56189 0.78703 0.89123 0.0
H2411 H 0.56655 0.84065 0.91118 0.0
C2412 C 0.54306 0.84588 0.9005 0.0
C2413 C 0.53055 0.84056 0.88933 0.0
C2414 C 0.57321 0.79458 0.89226 0.0
C2415 C 0.55746 0.82083 0.89448 0.0
C2416 C 0.58838 0.78703 0.89092 0.0
C2417 C 0.60292 0.79696 0.89157 0.0
C2418 C 0.5729 0.81196 0.89463 0.0
C2419 C 0.60212 0.81416 0.89422 0.0
C2420 C 0.55659 0.83608 0.90304 0.0
C2421 C 0.5314 0.82489 0.88158 0.0
N2422 N 0.58729 0.82116 0.89569 0.0
N2423 N 0.54481 0.81551 0.88422 0.0
H2424 H 0.90491 0.21345 0.84179 0.0
H2425 H 0.95616 0.14711 0.89252 0.0
H2426 H 0.90795 0.21073 0.89575 0.0
H2427 H 0.95154 0.14686 0.83859 0.0
H2428 H 0.94236 0.1736 0.89343 0.0
H2429 H 0.92474 0.19122 0.83986 0.0
C2430 C 0.90976 0.20809 0.85319 0.0
C2431 C 0.9049 0.21371 0.86894 0.0
C2432 C 0.94445 0.16785 0.88137 0.0
C2433 C 0.9275 0.18875 0.86689 0.0
C2434 C 0.95229 0.15278 0.88087 0.0
C2435 C 0.95448 0.14478 0.8655 0.0
C2436 C 0.93853 0.17469 0.8664 0.0
C2437 C 0.94979 0.15268 0.85069 0.0
C2438 C 0.92112 0.19556 0.8521 0.0
C2439 C 0.91143 0.20659 0.88338 0.0
N2440 N 0.94168 0.16716 0.8515 0.0
N2441 N 0.92243 0.19441 0.88201 0.0
H2442 H 0.56965 0.21728 0.6304 0.0
H2443 H 0.51678 0.13982 0.59737 0.0
H2444 H 0.59352 0.17517 0.60859 0.0
H2445 H 0.50134 0.16943 0.63918 0.0
H2446 H 0.54463 0.15254 0.60011 0.0
H2447 H 0.54412 0.20049 0.63222 0.0
C2448 C 0.56951 0.20447 0.62591 0.0
C2449 C 0.58373 0.19767 0.61913 0.0
C2450 C 0.53525 0.15601 0.6089 0.0
C2451 C 0.55434 0.17832 0.62121 0.0
C2452 C 0.51938 0.14879 0.60735 0.0
C2453 C 0.50683 0.15356 0.61815 0.0
C2454 C 0.53844 0.16849 0.62101 0.0
C2455 C 0.51074 0.16526 0.63078 0.0
C2456 C 0.55494 0.19484 0.62713 0.0
C2457 C 0.58283 0.18091 0.61382 0.0
N2458 N 0.52615 0.17258 0.63167 0.0
N2459 N 0.56828 0.17185 0.61473 0.0
H2460 H 0.60901 0.74656 0.39857 0.0
H2461 H 0.55044 0.80605 0.34549 0.0
H2462 H 0.59763 0.74039 0.34595 0.0
H2463 H 0.56927 0.81942 0.39475 0.0
H2464 H 0.56623 0.78064 0.34651 0.0
H2465 H 0.59308 0.77229 0.39862 0.0
C2466 C 0.60306 0.75052 0.38714 0.0
C2467 C 0.60444 0.74126 0.37232 0.0
C2468 C 0.56691 0.78913 0.35711 0.0
C2469 C 0.58645 0.77048 0.37217 0.0
C2470 C 0.55784 0.80363 0.35654 0.0
C2471 C 0.5585 0.8149 0.37003 0.0
C2472 C 0.57663 0.78577 0.37134 0.0
C2473 C 0.56841 0.81111 0.38401 0.0
C2474 C 0.59408 0.76522 0.3871 0.0
C2475 C 0.59683 0.74711 0.3577 0.0
N2476 N 0.57704 0.79685 0.38432 0.0
N2477 N 0.58814 0.76124 0.35801 0.0
H2478 H 0.90957 0.84144 0.13385 0.0
H2479 H 0.00055 0.85737 0.09908 0.0
H2480 H 0.92755 0.81415 0.09133 0.0
H2481 H 0.97824 0.88714 0.13727 0.0
H2482 H 0.97488 0.84034 0.09659 0.0
H2483 H 0.93539 0.85712 0.13563 0.0
C2484 C 0.91893 0.83874 0.12474 0.0
C2485 C 0.91628 0.82637 0.11235 0.0
C2486 C 0.97562 0.85058 0.10551 0.0
C2487 C 0.94628 0.84464 0.11441 0.0
C2488 C 0.99025 0.86026 0.10698 0.0
C2489 C 0.99143 0.87368 0.11839 0.0
C2490 C 0.96218 0.85434 0.11558 0.0
C2491 C 0.97782 0.87691 0.12834 0.0
C2492 C 0.93378 0.8478 0.12581 0.0
C2493 C 0.92901 0.82362 0.10101 0.0
N2494 N 0.96377 0.86732 0.12669 0.0
N2495 N 0.94354 0.83269 0.10233 0.0
H2496 H 0.65176 0.96969 0.81424 0.0
H2497 H 0.61289 0.88797 0.76794 0.0
H2498 H 0.63391 0.92615 0.84126 0.0
H2499 H 0.64035 0.92798 0.74358 0.0
H2500 H 0.61649 0.90312 0.7948 0.0
H2501 H 0.64408 0.95568 0.78798 0.0
C2502 C 0.64626 0.95715 0.81464 0.0
C2503 C 0.6437 0.94899 0.82994 0.0
C2504 C 0.6216 0.90857 0.7835 0.0
C2505 C 0.63465 0.93289 0.79989 0.0
C2506 C 0.61939 0.90003 0.76821 0.0
C2507 C 0.62631 0.90679 0.75359 0.0
C2508 C 0.63075 0.92387 0.784 0.0
C2509 C 0.63485 0.92231 0.75459 0.0
C2510 C 0.64183 0.94915 0.79964 0.0
C2511 C 0.63638 0.93278 0.82971 0.0
N2512 N 0.63689 0.93025 0.7695 0.0
N2513 N 0.6321 0.92524 0.8149 0.0
H2514 H 0.80681 0.86814 0.57274 0.0
H2515 H 0.85763 0.92035 0.50483 0.0
H2516 H 0.81256 0.92192 0.57465 0.0
H2517 H 0.8384 0.87022 0.49553 0.0
H2518 H 0.8431 0.92061 0.53149 0.0
H2519 H 0.81979 0.86816 0.5453 0.0
C2520 C 0.81077 0.87999 0.56728 0.0
C2521 C 0.80872 0.89508 0.57592 0.0
C2522 C 0.84208 0.90953 0.52365 0.0
C2523 C 0.82379 0.89515 0.54466 0.0
C2524 C 0.85041 0.90933 0.50849 0.0
C2525 C 0.84944 0.89509 0.49817 0.0
C2526 C 0.83266 0.89537 0.52853 0.0
C2527 C 0.83992 0.88119 0.50341 0.0
C2528 C 0.81814 0.87998 0.55163 0.0
C2529 C 0.81388 0.91007 0.56831 0.0
N2530 N 0.83189 0.88165 0.51829 0.0
N2531 N 0.8214 0.90972 0.55314 0.0
H2532 H 0.87166 0.09565 0.33298 0.0
H2533 H 0.85773 0.08225 0.23452 0.0
H2534 H 0.84312 0.0543 0.31122 0.0
H2535 H 0.88389 0.12547 0.25542 0.0
H2536 H 0.85383 0.07117 0.26261 0.0
H2537 H 0.87703 0.10643 0.30495 0.0
C2538 C 0.8664 0.08887 0.32231 0.0
C2539 C 0.85688 0.07401 0.32447 0.0
C2540 C 0.8605 0.08303 0.26113 0.0
C2541 C 0.86318 0.08628 0.29228 0.0
C2542 C 0.8628 0.08934 0.24508 0.0
C2543 C 0.87105 0.10483 0.2427 0.0
C2544 C 0.86644 0.0923 0.27501 0.0
C2545 C 0.87747 0.11345 0.25676 0.0
C2546 C 0.86954 0.09504 0.30629 0.0
C2547 C 0.85042 0.06583 0.31017 0.0
N2548 N 0.87492 0.10711 0.27239 0.0
N2549 N 0.85374 0.07205 0.29468 0.0
H2550 H 0.63263 0.14157 0.00406 0.0
H2551 H 0.6614 0.09048 0.08443 0.0
H2552 H 0.62484 0.08817 0.00845 0.0
H2553 H 0.68958 0.13369 0.0673 0.0
H2554 H 0.64418 0.09166 0.05899 0.0
H2555 H 0.64998 0.14131 0.02972 0.0
C2556 C 0.63447 0.12985 0.01046 0.0
C2557 C 0.62729 0.11487 0.00414 0.0
C2558 C 0.65414 0.10088 0.06081 0.0
C2559 C 0.64682 0.1145 0.03343 0.0
C2560 C 0.66394 0.10022 0.07532 0.0
C2561 C 0.67703 0.11189 0.07791 0.0
C2562 C 0.6571 0.11362 0.04899 0.0
C2563 C 0.67975 0.1243 0.06568 0.0
C2564 C 0.64441 0.12969 0.02501 0.0
C2565 C 0.63015 0.10001 0.01287 0.0
N2566 N 0.66979 0.12494 0.05183 0.0
N2567 N 0.63955 0.10021 0.02708 0.0
H2568 H 0.6562 0.12082 0.74705 0.0
H2569 H 0.60478 0.07339 0.67432 0.0
H2570 H 0.60309 0.12058 0.74436 0.0
H2571 H 0.65694 0.06787 0.68252 0.0
H2572 H 0.60376 0.09069 0.69948 0.0
H2573 H 0.65648 0.10209 0.72302 0.0
C2574 C 0.64453 0.11686 0.74134 0.0
C2575 C 0.62957 0.12234 0.74773 0.0
C2576 C 0.61542 0.08566 0.69586 0.0
C2577 C 0.62985 0.10064 0.72 0.0
C2578 C 0.61606 0.07578 0.68143 0.0
C2579 C 0.63105 0.06925 0.67615 0.0
C2580 C 0.62989 0.08926 0.70511 0.0
C2581 C 0.64514 0.07262 0.68607 0.0
C2582 C 0.64473 0.10606 0.72762 0.0
C2583 C 0.61489 0.11673 0.73979 0.0
N2584 N 0.64424 0.08251 0.69997 0.0
N2585 N 0.6154 0.10619 0.72629 0.0
H2586 H 0.67789 0.91071 0.42903 0.0
H2587 H 0.65294 0.85392 0.50793 0.0
H2588 H 0.6892 0.85857 0.43276 0.0
H2589 H 0.62844 0.89916 0.49489 0.0
H2590 H 0.66941 0.8568 0.48239 0.0
H2591 H 0.66324 0.90847 0.45579 0.0
C2592 C 0.67758 0.89892 0.43568 0.0
C2593 C 0.68471 0.88481 0.42878 0.0
C2594 C 0.66039 0.86606 0.48514 0.0
C2595 C 0.668 0.88209 0.4591 0.0
C2596 C 0.65098 0.86438 0.49964 0.0
C2597 C 0.63936 0.87632 0.50348 0.0
C2598 C 0.65825 0.87987 0.47457 0.0
C2599 C 0.63729 0.88968 0.49238 0.0
C2600 C 0.66909 0.89758 0.4508 0.0
C2601 C 0.68377 0.86971 0.43769 0.0
N2602 N 0.64672 0.89116 0.47847 0.0
N2603 N 0.67556 0.86874 0.4524 0.0
H2604 H 0.82956 0.96112 0.18378 0.0
H2605 H 0.86959 0.88997 0.24046 0.0
H2606 H 0.8564 0.92029 0.1632 0.0
H2607 H 0.84128 0.93016 0.25996 0.0
H2608 H 0.86589 0.90123 0.21208 0.0
H2609 H 0.8342 0.95003 0.21184 0.0
C2610 C 0.83625 0.94971 0.18512 0.0
C2611 C 0.8425 0.9416 0.17106 0.0
C2612 C 0.86055 0.90761 0.22259 0.0
C2613 C 0.84806 0.92889 0.20327 0.0
C2614 C 0.86273 0.90123 0.23876 0.0
C2615 C 0.85565 0.90912 0.25251 0.0
C2616 C 0.85126 0.92198 0.22024 0.0
C2617 C 0.84685 0.92364 0.24968 0.0
C2618 C 0.839 0.94343 0.20118 0.0
C2619 C 0.85131 0.92697 0.17365 0.0
N2620 N 0.84487 0.92956 0.23389 0.0
N2621 N 0.85383 0.9211 0.18942 0.0
H2622 H 0.87318 0.13887 0.97883 0.0
H2623 H 0.79254 0.09373 0.93759 0.0
H2624 H 0.84396 0.09922 0.00177 0.0
H2625 H 0.82879 0.11986 0.90731 0.0
H2626 H 0.80996 0.09913 0.96228 0.0
H2627 H 0.85571 0.13565 0.95326 0.0
C2628 C 0.86314 0.12958 0.97851 0.0
C2629 C 0.86006 0.11927 0.99241 0.0
C2630 C 0.81415 0.1037 0.95024 0.0
C2631 C 0.84019 0.11556 0.96355 0.0
C2632 C 0.80418 0.1006 0.93615 0.0
C2633 C 0.80928 0.10618 0.92036 0.0
C2634 C 0.82928 0.11269 0.94866 0.0
C2635 C 0.8245 0.1151 0.91924 0.0
C2636 C 0.85325 0.1277 0.96396 0.0
C2637 C 0.84688 0.10744 0.99138 0.0
N2638 N 0.83396 0.11815 0.93321 0.0
N2639 N 0.83751 0.10594 0.9773 0.0
H2640 H 0.82052 0.60671 0.94221 0.0
H2641 H 0.75675 0.64937 0.88102 0.0
H2642 H 0.82017 0.65976 0.93267 0.0
H2643 H 0.7464 0.60054 0.90197 0.0
H2644 H 0.7822 0.65159 0.89727 0.0
H2645 H 0.79472 0.60296 0.92626 0.0
C2646 C 0.81486 0.61761 0.93693 0.0
C2647 C 0.82246 0.63359 0.93869 0.0
C2648 C 0.77446 0.64034 0.89833 0.0
C2649 C 0.79326 0.62929 0.92017 0.0
C2650 C 0.76 0.63898 0.88894 0.0
C2651 C 0.74949 0.62479 0.89031 0.0
C2652 C 0.77849 0.6274 0.90923 0.0
C2653 C 0.75429 0.61164 0.90058 0.0
C2654 C 0.80019 0.61542 0.92781 0.0
C2655 C 0.81465 0.64727 0.9317 0.0
N2656 N 0.76848 0.6133 0.90983 0.0
N2657 N 0.80056 0.64477 0.92255 0.0
H2658 H 0.33729 0.84658 0.04331 0.0
H2659 H 0.28446 0.90296 0.09561 0.0
H2660 H 0.36045 0.88223 0.07785 0.0
H2661 H 0.2719 0.85011 0.09762 0.0
H2662 H 0.31169 0.89634 0.085 0.0
H2663 H 0.31203 0.84724 0.06001 0.0
C2664 C 0.33712 0.85435 0.05444 0.0
C2665 C 0.35064 0.86489 0.05885 0.0
C2666 C 0.30295 0.88623 0.08788 0.0
C2667 C 0.3223 0.86564 0.07761 0.0
C2668 C 0.28749 0.89 0.0937 0.0
C2669 C 0.27619 0.87702 0.09727 0.0
C2670 C 0.30671 0.86946 0.08521 0.0
C2671 C 0.28051 0.86037 0.09489 0.0
C2672 C 0.32285 0.85462 0.06396 0.0
C2673 C 0.35003 0.87445 0.07359 0.0
N2674 N 0.29549 0.85698 0.08866 0.0
N2675 N 0.3359 0.87489 0.08228 0.0
H2676 H 0.85182 0.50011 0.84882 0.0
H2677 H 0.9112 0.56886 0.8053 0.0
H2678 H 0.90342 0.49329 0.83972 0.0
H2679 H 0.85957 0.57556 0.81482 0.0
H2680 H 0.90904 0.5416 0.81917 0.0
H2681 H 0.85461 0.52834 0.83721 0.0
C2682 C 0.8637 0.5046 0.84438 0.0
C2683 C 0.87731 0.49438 0.84488 0.0
C2684 C 0.8982 0.54907 0.81823 0.0
C2685 C 0.8808 0.52659 0.83206 0.0
C2686 C 0.89944 0.56457 0.8103 0.0
C2687 C 0.88555 0.57437 0.80889 0.0
C2688 C 0.8829 0.54334 0.82453 0.0
C2689 C 0.87062 0.5684 0.81573 0.0
C2690 C 0.86535 0.52069 0.83782 0.0
C2691 C 0.89254 0.50074 0.83917 0.0
N2692 N 0.86967 0.55321 0.82315 0.0
N2693 N 0.8939 0.51648 0.833 0.0
H2694 H 0.17307 0.0965 0.56856 0.0
H2695 H 0.25439 0.15002 0.59421 0.0
H2696 H 0.17913 0.14979 0.56097 0.0
H2697 H 0.24754 0.09755 0.60555 0.0
H2698 H 0.22669 0.15005 0.58232 0.0
H2699 H 0.20023 0.09646 0.58193 0.0
C2700 C 0.18007 0.10824 0.5698 0.0
C2701 C 0.17379 0.12321 0.5637 0.0
C2702 C 0.2312 0.13848 0.58732 0.0
C2703 C 0.20491 0.1232 0.57903 0.0
C2704 C 0.24706 0.13843 0.59408 0.0
C2705 C 0.25331 0.12366 0.60066 0.0
C2706 C 0.22156 0.1236 0.58688 0.0
C2707 C 0.24318 0.10913 0.60049 0.0
C2708 C 0.19559 0.10817 0.57743 0.0
C2709 C 0.18351 0.13796 0.56544 0.0
N2710 N 0.22779 0.10942 0.59354 0.0
N2711 N 0.19858 0.13758 0.57298 0.0
H2712 H 0.1434 0.91429 0.819 0.0
H2713 H 0.10526 0.00163 0.8402 0.0
H2714 H 0.09159 0.92348 0.81252 0.0
H2715 H 0.15348 0.98753 0.85724 0.0
H2716 H 0.10041 0.97384 0.82843 0.0
H2717 H 0.14774 0.94206 0.83075 0.0
C2718 C 0.13287 0.92216 0.82015 0.0
C2719 C 0.11702 0.91653 0.81506 0.0
C2720 C 0.11205 0.9768 0.8347 0.0
C2721 C 0.122 0.94838 0.82851 0.0
C2722 C 0.1149 0.99266 0.84137 0.0
C2723 C 0.12991 0.99683 0.84952 0.0
C2724 C 0.12441 0.96511 0.83598 0.0
C2725 C 0.14182 0.98474 0.85095 0.0
C2726 C 0.1354 0.93802 0.82688 0.0
C2727 C 0.10396 0.92739 0.81639 0.0
N2728 N 0.13885 0.96936 0.84409 0.0
N2729 N 0.10673 0.94288 0.82311 0.0
H2730 H 0.74062 0.36179 0.43426 0.0
H2731 H 0.64333 0.36341 0.42155 0.0
H2732 H 0.71619 0.38388 0.3919 0.0
H2733 H 0.6666 0.34498 0.46641 0.0
H2734 H 0.67017 0.36625 0.40847 0.0
H2735 H 0.7138 0.35196 0.44476 0.0
C2736 C 0.72956 0.3647 0.4273 0.0
C2737 C 0.73044 0.37383 0.41239 0.0
C2738 C 0.66943 0.36141 0.42111 0.0
C2739 C 0.70001 0.36245 0.42403 0.0
C2740 C 0.65413 0.35977 0.42857 0.0
C2741 C 0.65292 0.35434 0.44519 0.0
C2742 C 0.68359 0.35779 0.43044 0.0
C2743 C 0.66713 0.3494 0.45361 0.0
C2744 C 0.71433 0.35897 0.43318 0.0
C2745 C 0.71592 0.37707 0.4036 0.0
N2746 N 0.68202 0.35153 0.44622 0.0
N2747 N 0.70124 0.37139 0.40959 0.0
H2748 H 0.8742 0.46092 0.63553 0.0
H2749 H 0.85633 0.40052 0.71157 0.0
H2750 H 0.83313 0.46573 0.66895 0.0
H2751 H 0.90171 0.40076 0.68404 0.0
H2752 H 0.84884 0.42612 0.69772 0.0
H2753 H 0.88475 0.43894 0.65327 0.0
C2754 C 0.86725 0.45705 0.64645 0.0
C2755 C 0.85284 0.46498 0.65098 0.0
C2756 C 0.86061 0.42084 0.6949 0.0
C2757 C 0.86492 0.44039 0.67131 0.0
C2758 C 0.86492 0.40638 0.70294 0.0
C2759 C 0.87952 0.3988 0.69871 0.0
C2760 C 0.87083 0.42731 0.68228 0.0
C2761 C 0.89029 0.40647 0.6874 0.0
C2762 C 0.87341 0.44476 0.65669 0.0
C2763 C 0.84431 0.45981 0.66521 0.0
N2764 N 0.88556 0.42031 0.6792 0.0
N2765 N 0.85054 0.44777 0.67497 0.0
H2766 H 0.64864 0.48886 0.15408 0.0
H2767 H 0.59828 0.5673 0.18368 0.0
H2768 H 0.60019 0.49947 0.13529 0.0
H2769 H 0.65115 0.56569 0.18905 0.0
H2770 H 0.59833 0.54099 0.16784 0.0
H2771 H 0.6499 0.51615 0.16828 0.0
C2772 C 0.63852 0.49713 0.15255 0.0
C2773 C 0.62442 0.49207 0.14339 0.0
C2774 C 0.60992 0.54638 0.17252 0.0
C2775 C 0.62538 0.52283 0.16 0.0
C2776 C 0.60985 0.56128 0.18167 0.0
C2777 C 0.62472 0.56858 0.18762 0.0
C2778 C 0.62493 0.53865 0.1696 0.0
C2779 C 0.63943 0.56045 0.18454 0.0
C2780 C 0.63911 0.5126 0.16081 0.0
C2781 C 0.6113 0.50297 0.14228 0.0
N2782 N 0.63917 0.54585 0.1758 0.0
N2783 N 0.61204 0.51779 0.1506 0.0
H2784 H 0.57248 0.6739 0.83872 0.0
H2785 H 0.6124 0.74839 0.89311 0.0
H2786 H 0.5631 0.67868 0.89156 0.0
H2787 H 0.63476 0.73013 0.84824 0.0
H2788 H 0.5929 0.72429 0.89249 0.0
H2789 H 0.59356 0.69657 0.84109 0.0
C2790 C 0.57464 0.68002 0.85072 0.0
C2791 C 0.56601 0.67468 0.86493 0.0
C2792 C 0.60234 0.72532 0.88303 0.0
C2793 C 0.59004 0.70031 0.8678 0.0
C2794 C 0.61359 0.73892 0.88353 0.0
C2795 C 0.62543 0.74084 0.871 0.0
C2796 C 0.60278 0.71388 0.86966 0.0
C2797 C 0.62595 0.72879 0.85828 0.0
C2798 C 0.58679 0.69273 0.85213 0.0
C2799 C 0.5695 0.68259 0.88032 0.0
N2800 N 0.61467 0.71584 0.85785 0.0
N2801 N 0.5812 0.69513 0.88135 0.0
H2802 H 0.50072 0.35554 0.14706 0.0
H2803 H 0.56411 0.29728 0.10002 0.0
H2804 H 0.48968 0.32902 0.10093 0.0
H2805 H 0.5696 0.30991 0.15249 0.0
H2806 H 0.5386 0.31245 0.09905 0.0
H2807 H 0.52758 0.34213 0.14835 0.0
C2808 C 0.50392 0.34688 0.13726 0.0
C2809 C 0.49289 0.34324 0.12397 0.0
C2810 C 0.54536 0.3119 0.11079 0.0
C2811 C 0.52361 0.3282 0.12515 0.0
C2812 C 0.56 0.30324 0.11137 0.0
C2813 C 0.56903 0.30212 0.12641 0.0
C2814 C 0.53963 0.31964 0.12533 0.0
C2815 C 0.56303 0.3103 0.14063 0.0
C2816 C 0.51924 0.33927 0.13797 0.0
C2817 C 0.49773 0.33209 0.11148 0.0
N2818 N 0.5487 0.31869 0.13975 0.0
N2819 N 0.51271 0.32505 0.11234 0.0
H2820 H 0.9196 0.25985 0.38217 0.0
H2821 H 0.92937 0.35655 0.35535 0.0
H2822 H 0.88597 0.28303 0.34792 0.0
H2823 H 0.96852 0.32821 0.37699 0.0
H2824 H 0.91146 0.33099 0.35554 0.0
H2825 H 0.93584 0.28633 0.38385 0.0
C2826 C 0.91559 0.27055 0.37512 0.0
C2827 C 0.90154 0.26924 0.36479 0.0
C2828 C 0.92399 0.33046 0.36024 0.0
C2829 C 0.91996 0.29953 0.36663 0.0
C2830 C 0.93419 0.34503 0.36015 0.0
C2831 C 0.95054 0.34454 0.36599 0.0
C2832 C 0.93011 0.31542 0.36653 0.0
C2833 C 0.9561 0.32922 0.37213 0.0
C2834 C 0.92487 0.28563 0.37601 0.0
C2835 C 0.89683 0.2835 0.35593 0.0
N2836 N 0.94594 0.31537 0.37227 0.0
N2837 N 0.90602 0.29803 0.35702 0.0
H2838 H 0.9536 0.65557 0.64739 0.0
H2839 H 0.89445 0.70831 0.59033 0.0
H2840 H 0.95715 0.65695 0.59348 0.0
H2841 H 0.89629 0.71077 0.64432 0.0
H2842 H 0.91979 0.69257 0.59071 0.0
H2843 H 0.93364 0.6775 0.64619 0.0
C2844 C 0.95009 0.66053 0.6353 0.0
C2845 C 0.95689 0.65461 0.62052 0.0
C2846 C 0.91487 0.69692 0.60244 0.0
C2847 C 0.93439 0.67977 0.61899 0.0
C2848 C 0.90056 0.70602 0.6022 0.0
C2849 C 0.89331 0.7104 0.61734 0.0
C2850 C 0.92169 0.69233 0.61793 0.0
C2851 C 0.90147 0.70721 0.63242 0.0
C2852 C 0.93885 0.67314 0.6346 0.0
C2853 C 0.95202 0.66127 0.60513 0.0
N2854 N 0.91515 0.69809 0.63236 0.0
N2855 N 0.94097 0.67357 0.60474 0.0
H2856 H 0.55942 0.36282 0.61194 0.0
H2857 H 0.57627 0.27531 0.655 0.0
H2858 H 0.53524 0.34655 0.6574 0.0
H2859 H 0.6043 0.29647 0.61406 0.0
H2860 H 0.56039 0.30082 0.65611 0.0
H2861 H 0.57488 0.33752 0.61203 0.0
C2862 C 0.55732 0.35389 0.62194 0.0
C2863 C 0.54615 0.35683 0.63478 0.0
C2864 C 0.57008 0.29986 0.64696 0.0
C2865 C 0.5639 0.32786 0.63498 0.0
C2866 C 0.5791 0.2854 0.64635 0.0
C2867 C 0.59137 0.28392 0.6343 0.0
C2868 C 0.5735 0.3127 0.63543 0.0
C2869 C 0.59476 0.29717 0.62339 0.0
C2870 C 0.56622 0.33946 0.62202 0.0
C2871 C 0.54385 0.34478 0.64734 0.0
N2872 N 0.58579 0.31103 0.62417 0.0
N2873 N 0.55273 0.33075 0.64716 0.0
H2874 H 0.90155 0.31963 0.87174 0.0
H2875 H -0.00227 0.31174 0.89397 0.0
H2876 H 0.92326 0.27832 0.89747 0.0
H2877 H 0.97983 0.35435 0.86731 0.0
H2878 H 0.96988 0.29978 0.89482 0.0
H2879 H 0.92919 0.33352 0.87027 0.0
C2880 C 0.91202 0.31363 0.87732 0.0
C2881 C 0.91006 0.29777 0.88475 0.0
C2882 C 0.97189 0.31173 0.88871 0.0
C2883 C 0.94159 0.31335 0.88282 0.0
C2884 C 0.98788 0.31854 0.88817 0.0
C2885 C 0.99109 0.33406 0.88061 0.0
C2886 C 0.95879 0.32048 0.8817 0.0
C2887 C 0.97783 0.3423 0.87323 0.0
C2888 C 0.9278 0.32147 0.87631 0.0
C2889 C 0.9241 0.29047 0.89155 0.0
N2890 N 0.96218 0.33545 0.87404 0.0
N2891 N 0.93914 0.29825 0.89035 0.0
H2892 H 0.91419 0.76698 0.14758 0.0
H2893 H 0.9191 0.67469 0.11 0.0
H2894 H 0.8838 0.74871 0.10629 0.0
H2895 H 0.94671 0.69171 0.15376 0.0
H2896 H 0.90601 0.70149 0.10864 0.0
H2897 H 0.9262 0.73961 0.14993 0.0
C2898 C 0.91011 0.75721 0.13889 0.0
C2899 C 0.89799 0.76014 0.12666 0.0
C2900 C 0.91483 0.69937 0.11862 0.0
C2901 C 0.91178 0.72864 0.12933 0.0
C2902 C 0.92234 0.68401 0.11947 0.0
C2903 C 0.93411 0.68088 0.13204 0.0
C2904 C 0.91906 0.71186 0.1304 0.0
C2905 C 0.93774 0.69354 0.14386 0.0
C2906 C 0.91695 0.74154 0.14032 0.0
C2907 C 0.89313 0.74698 0.11586 0.0
N2908 N 0.93028 0.7085 0.14271 0.0
N2909 N 0.90009 0.73179 0.11742 0.0
H2910 H 0.50667 0.62904 0.35106 0.0
H2911 H 0.5763 0.66827 0.41305 0.0
H2912 H 0.51487 0.61182 0.40144 0.0
H2913 H 0.57462 0.67861 0.36006 0.0
H2914 H 0.55219 0.64912 0.40948 0.0
H2915 H 0.53097 0.64808 0.35402 0.0
C2916 C 0.51395 0.62889 0.3625 0.0
C2917 C 0.50907 0.61874 0.37592 0.0
C2918 C 0.55705 0.65567 0.39866 0.0
C2919 C 0.53628 0.64076 0.37971 0.0
C2920 C 0.57066 0.66672 0.40075 0.0
C2921 C 0.57743 0.67488 0.38683 0.0
C2922 C 0.55017 0.65297 0.38255 0.0
C2923 C 0.56981 0.67237 0.37109 0.0
C2924 C 0.52763 0.6399 0.36432 0.0
C2925 C 0.51844 0.61941 0.39077 0.0
N2926 N 0.55661 0.66161 0.36937 0.0
N2927 N 0.53155 0.6303 0.39231 0.0
H2928 H 0.85307 0.62048 0.72951 0.0
H2929 H 0.86081 0.53275 0.6823 0.0
H2930 H 0.88324 0.58131 0.74844 0.0
H2931 H 0.83868 0.57576 0.66004 0.0
H2932 H 0.86843 0.54972 0.70697 0.0
H2933 H 0.84746 0.60398 0.70417 0.0
C2934 C 0.85865 0.60843 0.72823 0.0
C2935 C 0.86857 0.60221 0.7411 0.0
C2936 C 0.86187 0.55543 0.69671 0.0
C2937 C 0.862 0.58307 0.71216 0.0
C2938 C 0.85737 0.54571 0.68266 0.0
C2939 C 0.84894 0.55279 0.66909 0.0
C2940 C 0.85778 0.57234 0.69731 0.0
C2941 C 0.8451 0.56973 0.67019 0.0
C2942 C 0.85542 0.59899 0.71376 0.0
C2943 C 0.87554 0.58656 0.73879 0.0
N2944 N 0.84948 0.57887 0.68405 0.0
N2945 N 0.87199 0.57743 0.72465 0.0
H2946 H 0.69263 0.58287 0.92849 0.0
H2947 H 0.64253 0.63537 0.99582 0.0
H2948 H 0.6792 0.63403 0.92035 0.0
H2949 H 0.64868 0.58203 0.99755 0.0
H2950 H 0.65812 0.63633 0.96942 0.0
H2951 H 0.67901 0.58351 0.95561 0.0
C2952 C 0.6869 0.59425 0.93241 0.0
C2953 C 0.68695 0.60833 0.92203 0.0
C2954 C 0.65604 0.62445 0.97567 0.0
C2955 C 0.67129 0.60918 0.95306 0.0
C2956 C 0.6472 0.62395 0.99068 0.0
C2957 C 0.64437 0.60863 0.9988 0.0
C2958 C 0.66211 0.60955 0.969 0.0
C2959 C 0.65056 0.59412 0.99166 0.0
C2960 C 0.67907 0.59461 0.94788 0.0
C2961 C 0.67933 0.62278 0.92784 0.0
N2962 N 0.65914 0.59494 0.97723 0.0
N2963 N 0.67178 0.62282 0.94294 0.0
H2964 H 0.65875 0.41332 0.17442 0.0
H2965 H 0.6043 0.39724 0.25674 0.0
H2966 H 0.61644 0.44184 0.1866 0.0
H2967 H 0.64907 0.37197 0.24614 0.0
H2968 H 0.60718 0.41238 0.23007 0.0
H2969 H 0.6548 0.39725 0.20029 0.0
C2970 C 0.64896 0.4165 0.18286 0.0
C2971 C 0.63811 0.42906 0.17871 0.0
C2972 C 0.61624 0.40333 0.23348 0.0
C2973 C 0.63318 0.41059 0.20795 0.0
C2974 C 0.61445 0.39456 0.24856 0.0
C2975 C 0.62644 0.38336 0.25347 0.0
C2976 C 0.63006 0.40073 0.22337 0.0
C2977 C 0.63958 0.38056 0.2427 0.0
C2978 C 0.64654 0.40721 0.19748 0.0
C2979 C 0.62517 0.43234 0.18961 0.0
N2980 N 0.64109 0.38922 0.2282 0.0
N2981 N 0.62306 0.42317 0.20377 0.0
H2982 H 0.84539 0.3973 0.50663 0.0
H2983 H 0.84039 0.3827 0.40715 0.0
H2984 H 0.88199 0.36996 0.48029 0.0
H2985 H 0.80006 0.39927 0.43705 0.0
H2986 H 0.85697 0.37984 0.43293 0.0
H2987 H 0.82961 0.39958 0.4806 0.0
C2988 C 0.85008 0.3917 0.49533 0.0
C2989 C 0.86504 0.38346 0.49564 0.0
C2990 C 0.84452 0.38418 0.43379 0.0
C2991 C 0.84705 0.38621 0.46553 0.0
C2992 C 0.83509 0.38598 0.41907 0.0
C2993 C 0.81879 0.39135 0.41987 0.0
C2994 C 0.83766 0.38794 0.44942 0.0
C2995 C 0.81254 0.39513 0.43573 0.0
C2996 C 0.84105 0.39302 0.48044 0.0
C2997 C 0.87048 0.3764 0.48061 0.0
N2998 N 0.82195 0.39339 0.44978 0.0
N2999 N 0.86155 0.37803 0.46612 0.0
H3000 H 0.84814 0.39548 0.73993 0.0
H3001 H 0.8749 0.40707 0.83596 0.0
H3002 H 0.88243 0.36371 0.76492 0.0
H3003 H 0.84437 0.44179 0.80982 0.0
H3004 H 0.87657 0.39045 0.81055 0.0
H3005 H 0.84608 0.41206 0.76539 0.0
C3006 C 0.85537 0.39203 0.75077 0.0
C3007 C 0.86554 0.37817 0.75024 0.0
C3008 C 0.86947 0.40166 0.8103 0.0
C3009 C 0.86296 0.3971 0.77974 0.0
C3010 C 0.86845 0.41122 0.82486 0.0
C3011 C 0.85956 0.42601 0.82504 0.0
C3012 C 0.86154 0.40681 0.79564 0.0
C3013 C 0.85131 0.43049 0.81029 0.0
C3014 C 0.8541 0.40152 0.76536 0.0
C3015 C 0.87449 0.37431 0.76475 0.0
N3016 N 0.85258 0.42097 0.79615 0.0
N3017 N 0.87293 0.38369 0.77894 0.0
H3018 H 0.8744 0.60395 0.01071 0.0
H3019 H 0.80107 0.63723 0.06598 0.0
H3020 H 0.84416 0.64403 0.99415 0.0
H3021 H 0.82306 0.58955 0.07341 0.0
H3022 H 0.81763 0.64151 0.04074 0.0
H3023 H 0.85784 0.60112 0.03593 0.0
C3024 C 0.86449 0.61246 0.01266 0.0
C3025 C 0.86068 0.62435 0.0005 0.0
C3026 C 0.81867 0.63001 0.04774 0.0
C3027 C 0.84131 0.6208 0.02899 0.0
C3028 C 0.80914 0.6275 0.062 0.0
C3029 C 0.8106 0.61291 0.0715 0.0
C3030 C 0.83004 0.61802 0.04327 0.0
C3031 C 0.82138 0.60079 0.06615 0.0
C3032 C 0.8549 0.61068 0.02692 0.0
C3033 C 0.84767 0.63497 0.00344 0.0
N3034 N 0.83087 0.6037 0.05245 0.0
N3035 N 0.83829 0.63285 0.01739 0.0
H3036 H 0.65653 0.57346 0.24166 0.0
H3037 H 0.63263 0.57614 0.33854 0.0
H3038 H 0.62339 0.60911 0.26201 0.0
H3039 H 0.66571 0.54075 0.31745 0.0
H3040 H 0.62869 0.58809 0.3108 0.0
H3041 H 0.65912 0.56081 0.26923 0.0
C3042 C 0.6497 0.57857 0.25197 0.0
C3043 C 0.63982 0.59242 0.2496 0.0
C3044 C 0.63685 0.57776 0.31224 0.0
C3045 C 0.64284 0.57804 0.28135 0.0
C3046 C 0.63919 0.57093 0.32811 0.0
C3047 C 0.64962 0.55741 0.33041 0.0
C3048 C 0.64499 0.57108 0.29846 0.0
C3049 C 0.65767 0.55121 0.31635 0.0
C3050 C 0.65122 0.57135 0.26773 0.0
C3051 C 0.63116 0.59845 0.26334 0.0
N3052 N 0.65517 0.55808 0.30099 0.0
N3053 N 0.63296 0.59128 0.27869 0.0
H3054 H 0.62308 0.40245 0.51518 0.0
H3055 H 0.70143 0.37127 0.56557 0.0
H3056 H 0.64604 0.35632 0.50282 0.0
H3057 H 0.66764 0.40631 0.58596 0.0
H3058 H 0.68275 0.36675 0.54148 0.0
H3059 H 0.64037 0.40495 0.54039 0.0
C3060 C 0.63165 0.39271 0.51795 0.0
C3061 C 0.63302 0.37905 0.50707 0.0
C3062 C 0.67944 0.37539 0.55125 0.0
C3063 C 0.65324 0.38206 0.53566 0.0
C3064 C 0.69016 0.3781 0.56495 0.0
C3065 C 0.68616 0.38926 0.57781 0.0
C3066 C 0.66472 0.38408 0.55027 0.0
C3067 C 0.67128 0.39762 0.57637 0.0
C3068 C 0.64153 0.39415 0.53232 0.0
C3069 C 0.64439 0.36685 0.51111 0.0
N3070 N 0.66118 0.39493 0.56284 0.0
N3071 N 0.65424 0.36873 0.52501 0.0
H3072 H 0.73898 0.89083 0.61876 0.0
H3073 H 0.67957 0.84573 0.55005 0.0
H3074 H 0.75571 0.85946 0.57874 0.0
H3075 H 0.66215 0.87927 0.58799 0.0
H3076 H 0.70755 0.85011 0.56112 0.0
H3077 H 0.71062 0.88699 0.60788 0.0
C3078 C 0.73668 0.88333 0.60758 0.0
C3079 C 0.74959 0.8754 0.59962 0.0
C3080 C 0.69759 0.85648 0.56707 0.0
C3081 C 0.71744 0.87076 0.58732 0.0
C3082 C 0.68159 0.85389 0.5608 0.0
C3083 C 0.66851 0.86217 0.56806 0.0
C3084 C 0.70052 0.86741 0.5807 0.0
C3085 C 0.67189 0.87267 0.58193 0.0
C3086 C 0.72054 0.88104 0.60145 0.0
C3087 C 0.74605 0.86572 0.58527 0.0
N3088 N 0.68757 0.87503 0.58778 0.0
N3089 N 0.73031 0.86361 0.57963 0.0
H3090 H 0.22857 0.59519 0.43214 0.0
H3091 H 0.15369 0.65539 0.44605 0.0
H3092 H 0.21532 0.63392 0.39746 0.0
H3093 H 0.15196 0.60363 0.46108 0.0
H3094 H 0.18154 0.65175 0.43507 0.0
H3095 H 0.2049 0.60219 0.44949 0.0
C3096 C 0.22066 0.60512 0.42823 0.0
C3097 C 0.22358 0.61384 0.41333 0.0
C3098 C 0.17511 0.64132 0.44105 0.0
C3099 C 0.19721 0.62212 0.43307 0.0
C3100 C 0.15938 0.6434 0.44729 0.0
C3101 C 0.15071 0.62968 0.45407 0.0
C3102 C 0.18208 0.62552 0.44201 0.0
C3103 C 0.15834 0.61435 0.45556 0.0
C3104 C 0.20733 0.60915 0.43811 0.0
C3105 C 0.21326 0.62677 0.40879 0.0
N3106 N 0.17369 0.61262 0.44947 0.0
N3107 N 0.20046 0.63054 0.41866 0.0
H3108 H 0.62832 0.92162 0.67487 0.0
H3109 H 0.59594 0.01444 0.67234 0.0
H3110 H 0.59234 0.93918 0.70977 0.0
H3111 H 0.63365 0.99577 0.64024 0.0
H3112 H 0.59439 0.9874 0.68666 0.0
H3113 H 0.63008 0.94898 0.66234 0.0
C3114 C 0.62069 0.93123 0.67991 0.0
C3115 C 0.61011 0.92806 0.69343 0.0
C3116 C 0.60306 0.98927 0.67656 0.0
C3117 C 0.61216 0.9597 0.67896 0.0
C3118 C 0.60396 0.00465 0.66841 0.0
C3119 C 0.61493 0.00721 0.65514 0.0
C3120 C 0.61316 0.97645 0.67127 0.0
C3121 C 0.62508 0.99426 0.65048 0.0
C3122 C 0.62176 0.94694 0.67271 0.0
C3123 C 0.60058 0.94108 0.69932 0.0
N3124 N 0.62389 0.97939 0.65851 0.0
N3125 N 0.60183 0.95642 0.69202 0.0
H3126 H 0.25021 0.3506 0.88321 0.0
H3127 H 0.31627 0.40223 0.93897 0.0
H3128 H 0.23923 0.39758 0.90661 0.0
H3129 H 0.3177 0.34879 0.9318 0.0
H3130 H 0.2897 0.40214 0.92414 0.0
H3131 H 0.27699 0.35134 0.89752 0.0
C3132 C 0.25349 0.36113 0.89131 0.0
C3133 C 0.24249 0.374 0.89388 0.0
C3134 C 0.29583 0.39045 0.92585 0.0
C3135 C 0.27307 0.37492 0.91022 0.0
C3136 C 0.31098 0.39048 0.93425 0.0
C3137 C 0.31915 0.37548 0.9366 0.0
C3138 C 0.28897 0.37536 0.91947 0.0
C3139 C 0.31174 0.3606 0.93034 0.0
C3140 C 0.26873 0.36149 0.89953 0.0
C3141 C 0.24737 0.38739 0.90439 0.0
N3142 N 0.29711 0.36094 0.92193 0.0
N3143 N 0.26236 0.38751 0.9122 0.0
H3144 H 0.37334 0.51779 0.61445 0.0
H3145 H 0.38819 0.56784 0.70006 0.0
H3146 H 0.35594 0.49865 0.66176 0.0
H3147 H 0.38614 0.59169 0.65176 0.0
H3148 H 0.38145 0.54075 0.68647 0.0
H3149 H 0.38211 0.54394 0.62824 0.0
C3150 C 0.37119 0.51927 0.62775 0.0
C3151 C 0.36387 0.50627 0.63705 0.0
C3152 C 0.38274 0.55191 0.67887 0.0
C3153 C 0.37424 0.53579 0.65296 0.0
C3154 C 0.38685 0.56723 0.68655 0.0
C3155 C 0.38779 0.58182 0.6769 0.0
C3156 C 0.37983 0.55134 0.6615 0.0
C3157 C 0.38556 0.58061 0.65953 0.0
C3158 C 0.37626 0.53409 0.63562 0.0
C3159 C 0.36139 0.50858 0.65422 0.0
N3160 N 0.38164 0.56561 0.65236 0.0
N3161 N 0.36674 0.5231 0.66173 0.0
H3162 H 0.8324 0.16369 0.04349 0.0
H3163 H 0.76767 0.10592 0.09305 0.0
H3164 H 0.83631 0.11076 0.05264 0.0
H3165 H 0.75734 0.15687 0.08007 0.0
H3166 H 0.79398 0.10888 0.07939 0.0
H3167 H 0.80529 0.16263 0.05702 0.0
C3168 C 0.82748 0.15187 0.04821 0.0
C3169 C 0.83658 0.13732 0.04724 0.0
C3170 C 0.78598 0.11944 0.0793 0.0
C3171 C 0.80607 0.13607 0.06254 0.0
C3172 C 0.77095 0.11771 0.08708 0.0
C3173 C 0.76036 0.13108 0.0873 0.0
C3174 C 0.7904 0.13459 0.07146 0.0
C3175 C 0.76528 0.14627 0.07989 0.0
C3176 C 0.81213 0.1513 0.05594 0.0
C3177 C 0.82981 0.12232 0.05344 0.0
N3178 N 0.78005 0.14762 0.07206 0.0
N3179 N 0.81499 0.12212 0.06087 0.0
H3180 H 0.59026 0.10105 0.81839 0.0
H3181 H 0.64986 0.02545 0.82532 0.0
H3182 H 0.62796 0.09008 0.78279 0.0
H3183 H 0.61592 0.03918 0.8639 0.0
H3184 H 0.63702 0.04484 0.8063 0.0
H3185 H 0.59378 0.07365 0.83131 0.0
C3186 C 0.59901 0.09259 0.81316 0.0
C3187 C 0.60927 0.09759 0.80006 0.0
C3188 C 0.63237 0.04366 0.81892 0.0
C3189 C 0.61341 0.06686 0.81445 0.0
C3190 C 0.63987 0.03282 0.82984 0.0
C3191 C 0.63414 0.03119 0.84622 0.0
C3192 C 0.61933 0.05313 0.82462 0.0
C3193 C 0.62085 0.04049 0.8514 0.0
C3194 C 0.601 0.07706 0.82043 0.0
C3195 C 0.62017 0.08648 0.79322 0.0
N3196 N 0.61395 0.05129 0.84062 0.0
N3197 N 0.62218 0.07158 0.80072 0.0
H3198 H 0.88179 0.94507 0.29482 0.0
H3199 H 0.88041 0.99815 0.37872 0.0
H3200 H 0.87033 0.92175 0.34213 0.0
H3201 H 0.86085 0.01729 0.33243 0.0
H3202 H 0.88257 0.97059 0.36543 0.0
H3203 H 0.88063 0.97267 0.30843 0.0
C3204 C 0.87937 0.9458 0.30813 0.0
C3205 C 0.87617 0.93125 0.31744 0.0
C3206 C 0.87776 0.98082 0.35823 0.0
C3207 C 0.87487 0.96245 0.33292 0.0
C3208 C 0.8765 0.99647 0.36577 0.0
C3209 C 0.87036 0.00985 0.35661 0.0
C3210 C 0.87329 0.97875 0.34131 0.0
C3211 C 0.86549 0.00717 0.33989 0.0
C3212 C 0.87853 0.96147 0.3158 0.0
C3213 C 0.87283 0.93275 0.33457 0.0
N3214 N 0.86725 0.99191 0.33267 0.0
N3215 N 0.87235 0.94811 0.34181 0.0
H3216 H 0.40451 0.33811 0.12259 0.0
H3217 H 0.38865 0.24303 0.14863 0.0
H3218 H 0.43757 0.31125 0.15465 0.0
H3219 H 0.35385 0.2708 0.11961 0.0
H3220 H 0.40739 0.26735 0.14939 0.0
H3221 H 0.38644 0.31343 0.12055 0.0
C3222 C 0.40796 0.32701 0.12934 0.0
C3223 C 0.42266 0.32673 0.13881 0.0
C3224 C 0.39571 0.26819 0.1428 0.0
C3225 C 0.40182 0.29829 0.13642 0.0
C3226 C 0.38498 0.2543 0.14232 0.0
C3227 C 0.36961 0.25503 0.13417 0.0
C3228 C 0.39105 0.28301 0.13513 0.0
C3229 C 0.3656 0.26979 0.126 0.0
C3230 C 0.39757 0.3129 0.12811 0.0
C3231 C 0.42632 0.31203 0.14732 0.0
N3232 N 0.37626 0.28332 0.1268 0.0
N3233 N 0.41597 0.29832 0.14586 0.0
H3234 H 0.49779 0.65656 0.90442 0.0
H3235 H 0.42523 0.69207 0.84672 0.0
H3236 H 0.49672 0.65088 0.85074 0.0
H3237 H 0.42922 0.69944 0.90023 0.0
H3238 H 0.45064 0.67629 0.84765 0.0
H3239 H 0.47208 0.67142 0.90287 0.0
C3240 C 0.49218 0.65852 0.89224 0.0
C3241 C 0.4996 0.65265 0.87764 0.0
C3242 C 0.44594 0.68137 0.85917 0.0
C3243 C 0.46987 0.66974 0.87573 0.0
C3244 C 0.43139 0.6904 0.85866 0.0
C3245 C 0.42498 0.69724 0.87341 0.0
C3246 C 0.45419 0.67907 0.87453 0.0
C3247 C 0.43361 0.69454 0.88849 0.0
C3248 C 0.47744 0.66703 0.89136 0.0
C3249 C 0.49162 0.65544 0.86226 0.0
N3250 N 0.44767 0.68573 0.88864 0.0
N3251 N 0.47721 0.66379 0.86169 0.0
H3252 H 0.06112 0.64357 0.64655 0.0
H3253 H 0.07844 0.73647 0.61139 0.0
H3254 H 0.02505 0.67026 0.61814 0.0
H3255 H 0.10012 0.71879 0.65728 0.0
H3256 H 0.0628 0.7095 0.60868 0.0
H3257 H 0.07956 0.66873 0.64594 0.0
C3258 C 0.05712 0.65467 0.64016 0.0
C3259 C 0.04143 0.65492 0.63265 0.0
C3260 C 0.07116 0.71152 0.61921 0.0
C3261 C 0.06254 0.68344 0.63144 0.0
C3262 C 0.08014 0.72681 0.62066 0.0
C3263 C 0.09046 0.72981 0.6346 0.0
C3264 C 0.07288 0.69916 0.6316 0.0
C3265 C 0.09217 0.71697 0.64639 0.0
C3266 C 0.06761 0.66898 0.63979 0.0
C3267 C 0.03691 0.66961 0.62439 0.0
N3268 N 0.08348 0.70223 0.64464 0.0
N3269 N 0.0474 0.68323 0.62396 0.0
H3270 H 0.11595 0.32062 0.36741 0.0
H3271 H 0.02105 0.3207 0.38452 0.0
H3272 H 0.09254 0.27892 0.39343 0.0
H3273 H 0.05241 0.36485 0.37774 0.0
H3274 H 0.04583 0.304 0.3876 0.0
H3275 H 0.09116 0.3358 0.36969 0.0
C3276 C 0.1055 0.31458 0.37356 0.0
C3277 C 0.10622 0.29849 0.38023 0.0
C3278 C 0.04715 0.31737 0.38567 0.0
C3279 C 0.07772 0.31602 0.3831 0.0
C3280 C 0.03315 0.3268 0.38379 0.0
C3281 C 0.03496 0.34392 0.38035 0.0
C3282 C 0.0627 0.32537 0.38405 0.0
C3283 C 0.05063 0.35154 0.37985 0.0
C3284 C 0.09137 0.32338 0.37504 0.0
C3285 C 0.09235 0.29139 0.3882 0.0
N3286 N 0.06395 0.34216 0.38159 0.0
N3287 N 0.07844 0.30025 0.38936 0.0
H3288 H 0.46002 0.64736 0.38807 0.0
H3289 H 0.39751 0.70764 0.34388 0.0
H3290 H 0.44616 0.64314 0.33586 0.0
H3291 H 0.41645 0.71493 0.39422 0.0
H3292 H 0.41626 0.68475 0.34009 0.0
H3293 H 0.44614 0.6738 0.38971 0.0
C3294 C 0.45415 0.65219 0.37691 0.0
C3295 C 0.45386 0.64314 0.3619 0.0
C3296 C 0.4164 0.69143 0.35192 0.0
C3297 C 0.43775 0.67295 0.3637 0.0
C3298 C 0.40564 0.70435 0.35412 0.0
C3299 C 0.40553 0.71298 0.36938 0.0
C3300 C 0.427 0.68722 0.36512 0.0
C3301 C 0.41619 0.70842 0.3823 0.0
C3302 C 0.44625 0.66723 0.37783 0.0
C3303 C 0.44647 0.64986 0.34766 0.0
N3304 N 0.42653 0.69577 0.37988 0.0
N3305 N 0.43837 0.66433 0.34898 0.0
H3306 H 0.99345 0.68369 0.10524 0.0
H3307 H 0.09041 0.67595 0.12332 0.0
H3308 H 0.01235 0.64033 0.12981 0.0
H3309 H 0.06646 0.71993 0.10538 0.0
H3310 H 0.06307 0.66129 0.12453 0.0
H3311 H 0.02113 0.6961 0.10446 0.0
C3312 C 0.0035 0.67682 0.11056 0.0
C3313 C 0.00062 0.66103 0.11761 0.0
C3314 C 0.06394 0.67415 0.12033 0.0
C3315 C 0.0327 0.67509 0.11661 0.0
C3316 C 0.07953 0.68246 0.1195 0.0
C3317 C 0.08081 0.69923 0.11426 0.0
C3318 C 0.0497 0.68273 0.11584 0.0
C3319 C 0.06626 0.70706 0.10957 0.0
C3320 C 0.01938 0.68388 0.1101 0.0
C3321 C 0.01411 0.65264 0.12436 0.0
N3322 N 0.05147 0.69881 0.11054 0.0
N3323 N 0.02965 0.65974 0.12362 0.0
H3324 H 0.10148 0.24151 0.8421 0.0
H3325 H 0.06206 0.31265 0.89783 0.0
H3326 H 0.10423 0.24196 0.89608 0.0
H3327 H 0.05473 0.30815 0.84432 0.0
H3328 H 0.07813 0.28749 0.89748 0.0
H3329 H 0.08539 0.26658 0.84279 0.0
C3330 C 0.09861 0.24687 0.85416 0.0
C3331 C 0.10404 0.23954 0.8691 0.0
C3332 C 0.07299 0.29195 0.88582 0.0
C3333 C 0.08552 0.26841 0.86996 0.0
C3334 C 0.0638 0.30637 0.88597 0.0
C3335 C 0.057 0.31258 0.87105 0.0
C3336 C 0.07555 0.28366 0.87062 0.0
C3337 C 0.05965 0.3038 0.85613 0.0
C3338 C 0.08939 0.26121 0.85452 0.0
C3339 C 0.10015 0.24715 0.88432 0.0
N3340 N 0.06877 0.28983 0.85629 0.0
N3341 N 0.09107 0.2612 0.88437 0.0
H3342 H 0.42297 0.31718 0.59019 0.0
H3343 H 0.47767 0.38226 0.64644 0.0
H3344 H 0.41122 0.33004 0.64121 0.0
H3345 H 0.49211 0.36373 0.5981 0.0
H3346 H 0.45278 0.36368 0.64479 0.0
H3347 H 0.44836 0.33458 0.59281 0.0
C3348 C 0.42575 0.32355 0.60194 0.0
C3349 C 0.41483 0.32224 0.61539 0.0
C3350 C 0.46145 0.36374 0.63457 0.0
C3351 C 0.44377 0.34225 0.61851 0.0
C3352 C 0.47558 0.37435 0.63552 0.0
C3353 C 0.48692 0.37455 0.62241 0.0
C3354 C 0.45868 0.35345 0.62034 0.0
C3355 C 0.48371 0.36399 0.60854 0.0
C3356 C 0.44022 0.33352 0.60345 0.0
C3357 C 0.41912 0.3308 0.63037 0.0
N3358 N 0.46992 0.35397 0.60785 0.0
N3359 N 0.43317 0.34048 0.63148 0.0
H3360 H 0.14588 0.37795 0.27124 0.0
H3361 H 0.12652 0.46219 0.32075 0.0
H3362 H 0.1089 0.41193 0.25493 0.0
H3363 H 0.16031 0.42555 0.33853 0.0
H3364 H 0.11998 0.44431 0.29644 0.0
H3365 H 0.15078 0.39508 0.29631 0.0
C3366 C 0.13864 0.38892 0.27308 0.0
C3367 C 0.12705 0.3936 0.26099 0.0
C3368 C 0.12886 0.44022 0.30565 0.0
C3369 C 0.13276 0.41346 0.28952 0.0
C3370 C 0.13271 0.45049 0.31946 0.0
C3371 C 0.14404 0.4454 0.3317 0.0
C3372 C 0.13645 0.42478 0.304 0.0
C3373 C 0.1515 0.43 0.32945 0.0
C3374 C 0.14149 0.39876 0.28735 0.0
C3375 C 0.11798 0.40791 0.26397 0.0
N3376 N 0.14759 0.42027 0.31589 0.0
N3377 N 0.12114 0.41745 0.27788 0.0
H3378 H 0.36905 0.4081 0.01453 0.0
H3379 H 0.2956 0.37038 0.06979 0.0
H3380 H 0.3349 0.36932 0.99663 0.0
H3381 H 0.32043 0.41769 0.08093 0.0
H3382 H 0.31067 0.3689 0.04349 0.0
H3383 H 0.35292 0.4103 0.04013 0.0
C3384 C 0.35823 0.39994 0.01608 0.0
C3385 C 0.35324 0.38854 0.00348 0.0
C3386 C 0.31271 0.37972 0.05155 0.0
C3387 C 0.3347 0.3911 0.03256 0.0
C3388 C 0.30405 0.38061 0.06647 0.0
C3389 C 0.30672 0.39426 0.07731 0.0
C3390 C 0.32441 0.39241 0.04767 0.0
C3391 C 0.31789 0.40711 0.07268 0.0
C3392 C 0.34898 0.4013 0.03061 0.0
C3393 C 0.33919 0.37823 0.00609 0.0
N3394 N 0.32652 0.40578 0.05824 0.0
N3395 N 0.33038 0.37978 0.02035 0.0
H3396 H 0.33254 0.57122 0.81775 0.0
H3397 H 0.39014 0.59657 0.74021 0.0
H3398 H 0.38515 0.56521 0.81824 0.0
H3399 H 0.34242 0.61705 0.74846 0.0
H3400 H 0.38765 0.58156 0.76696 0.0
H3401 H 0.33481 0.58423 0.78999 0.0
C3402 C 0.3445 0.57241 0.81188 0.0
C3403 C 0.35867 0.56723 0.82026 0.0
C3404 C 0.37775 0.58936 0.76288 0.0
C3405 C 0.3614 0.58202 0.78868 0.0
C3406 C 0.3792 0.59794 0.74767 0.0
C3407 C 0.36648 0.60804 0.74216 0.0
C3408 C 0.36341 0.59079 0.77246 0.0
C3409 C 0.35251 0.60935 0.75224 0.0
C3410 C 0.34583 0.57994 0.79614 0.0
C3411 C 0.37393 0.56919 0.81222 0.0
N3412 N 0.35131 0.60077 0.76685 0.0
N3413 N 0.3749 0.57641 0.79688 0.0
H3414 H 0.19764 0.61656 0.56359 0.0
H3415 H 0.10672 0.62186 0.52366 0.0
H3416 H 0.15391 0.60963 0.59347 0.0
H3417 H 0.15126 0.61851 0.49516 0.0
H3418 H 0.12326 0.62026 0.54976 0.0
H3419 H 0.1804 0.61998 0.53889 0.0
C3420 C 0.18439 0.61562 0.56501 0.0
C3421 C 0.17731 0.61264 0.58076 0.0
C3422 C 0.1294 0.6201 0.53779 0.0
C3423 C 0.15725 0.61673 0.55215 0.0
C3424 C 0.12001 0.62118 0.52294 0.0
C3425 C 0.12773 0.62044 0.50731 0.0
C3426 C 0.14661 0.61854 0.53689 0.0
C3427 C 0.14488 0.61914 0.50699 0.0
C3428 C 0.1745 0.61762 0.5508 0.0
C3429 C 0.15997 0.61174 0.58161 0.0
N3430 N 0.15371 0.6183 0.5215 0.0
N3431 N 0.15054 0.61379 0.56752 0.0
H3432 H 0.12269 0.59347 0.16328 0.0
H3433 H 0.14025 0.60005 0.26191 0.0
H3434 H 0.14654 0.55512 0.19151 0.0
H3435 H 0.11523 0.6377 0.23386 0.0
H3436 H 0.14259 0.58349 0.2364 0.0
H3437 H 0.12068 0.61011 0.18874 0.0
C3438 C 0.12761 0.58857 0.17487 0.0
C3439 C 0.13475 0.57281 0.17528 0.0
C3440 C 0.13655 0.59534 0.23576 0.0
C3441 C 0.13227 0.59185 0.20467 0.0
C3442 C 0.13514 0.60479 0.25036 0.0
C3443 C 0.12752 0.62029 0.25001 0.0
C3444 C 0.13045 0.60144 0.22055 0.0
C3445 C 0.12112 0.62579 0.23469 0.0
C3446 C 0.1264 0.5981 0.18943 0.0
C3447 C 0.14105 0.56723 0.19061 0.0
N3448 N 0.12282 0.61641 0.22054 0.0
N3449 N 0.13955 0.5767 0.20473 0.0
H3450 H 0.19355 0.36744 0.93294 0.0
H3451 H 0.1212 0.39857 0.99143 0.0
H3452 H 0.16291 0.40867 0.92089 0.0
H3453 H 0.15049 0.35639 0.00391 0.0
H3454 H 0.13556 0.40138 0.96489 0.0
H3455 H 0.17816 0.36297 0.95895 0.0
C3456 C 0.1838 0.37579 0.93606 0.0
C3457 C 0.17969 0.38871 0.92515 0.0
C3458 C 0.13876 0.39134 0.97326 0.0
C3459 C 0.16164 0.38331 0.95435 0.0
C3460 C 0.13045 0.38964 0.98834 0.0
C3461 C 0.13463 0.37716 0.99974 0.0
C3462 C 0.15156 0.38062 0.9696 0.0
C3463 C 0.14676 0.36599 0.99528 0.0
C3464 C 0.1749 0.37311 0.95075 0.0
C3465 C 0.16668 0.39888 0.9293 0.0
N3466 N 0.15498 0.36811 0.98058 0.0
N3467 N 0.15808 0.39594 0.94359 0.0
H3468 H 0.36801 0.42769 0.66279 0.0
H3469 H 0.33987 0.4259 0.75863 0.0
H3470 H 0.32889 0.45685 0.68269 0.0
H3471 H 0.37585 0.39265 0.73929 0.0
H3472 H 0.33713 0.4383 0.73103 0.0
H3473 H 0.37217 0.41555 0.69054 0.0
C3474 C 0.36025 0.43154 0.67295 0.0
C3475 C 0.34802 0.44335 0.67031 0.0
C3476 C 0.34568 0.42833 0.73272 0.0
C3477 C 0.35284 0.42945 0.70222 0.0
C3478 C 0.34729 0.42124 0.74854 0.0
C3479 C 0.35805 0.40814 0.75126 0.0
C3480 C 0.35492 0.42237 0.71935 0.0
C3481 C 0.3674 0.40271 0.73772 0.0
C3482 C 0.36267 0.42458 0.68882 0.0
C3483 C 0.33842 0.4478 0.68403 0.0
N3484 N 0.36558 0.40982 0.72229 0.0
N3485 N 0.34106 0.44088 0.69934 0.0
H3486 H 0.35385 0.64659 0.48883 0.0
H3487 H 0.32887 0.59067 0.40859 0.0
H3488 H 0.37237 0.59748 0.48058 0.0
H3489 H 0.2964 0.62635 0.43002 0.0
H3490 H 0.34867 0.59656 0.43149 0.0
H3491 H 0.33686 0.64333 0.46323 0.0
C3492 C 0.3548 0.63542 0.48129 0.0
C3493 C 0.36473 0.62243 0.48654 0.0
C3494 C 0.33721 0.6031 0.43114 0.0
C3495 C 0.34512 0.61838 0.45772 0.0
C3496 C 0.32592 0.59972 0.41814 0.0
C3497 C 0.3109 0.60786 0.41759 0.0
C3498 C 0.33365 0.61501 0.44343 0.0
C3499 C 0.30772 0.61958 0.43019 0.0
C3500 C 0.34491 0.63343 0.46688 0.0
C3501 C 0.36502 0.60787 0.47674 0.0
N3502 N 0.31904 0.62289 0.44256 0.0
N3503 N 0.35534 0.60621 0.4628 0.0
H3504 H 0.24566 0.10025 0.39781 0.0
H3505 H 0.32059 0.16013 0.4314 0.0
H3506 H 0.25196 0.15248 0.38533 0.0
H3507 H 0.31967 0.10643 0.43653 0.0
H3508 H 0.29396 0.15778 0.41658 0.0
H3509 H 0.2719 0.10216 0.41358 0.0
C3510 C 0.25265 0.11201 0.39823 0.0
C3511 C 0.24667 0.12621 0.39032 0.0
C3512 C 0.29955 0.14652 0.42105 0.0
C3513 C 0.27638 0.12863 0.4084 0.0
C3514 C 0.31466 0.1479 0.42962 0.0
C3515 C 0.32233 0.13346 0.43508 0.0
C3516 C 0.29202 0.13061 0.41812 0.0
C3517 C 0.31421 0.11787 0.43233 0.0
C3518 C 0.26754 0.11317 0.40729 0.0
C3519 C 0.25609 0.14124 0.39136 0.0
N3520 N 0.29951 0.11684 0.42404 0.0
N3521 N 0.27042 0.14208 0.40026 0.0
H3522 H 0.85615 0.37734 0.57826 0.0
H3523 H 0.76116 0.37848 0.56455 0.0
H3524 H 0.83451 0.35834 0.53202 0.0
H3525 H 0.78214 0.36623 0.61271 0.0
H3526 H 0.78786 0.37336 0.55159 0.0
H3527 H 0.8288 0.3762 0.59091 0.0
C3528 C 0.84561 0.37295 0.57082 0.0
C3529 C 0.84739 0.36802 0.55413 0.0
C3530 C 0.78646 0.37159 0.56495 0.0
C3531 C 0.81642 0.36677 0.56832 0.0
C3532 C 0.77136 0.37458 0.57231 0.0
C3533 C 0.76971 0.373 0.58965 0.0
C3534 C 0.79985 0.36742 0.57518 0.0
C3535 C 0.78308 0.36775 0.59927 0.0
C3536 C 0.83012 0.37214 0.57804 0.0
C3537 C 0.8335 0.36222 0.54497 0.0
N3538 N 0.79776 0.36542 0.59193 0.0
N3539 N 0.81845 0.36197 0.55214 0.0
H3540 H 0.3879 0.08711 0.33442 0.0
H3541 H 0.36138 0.99092 0.32948 0.0
H3542 H 0.38651 0.06032 0.28742 0.0
H3543 H 0.38798 0.01198 0.37208 0.0
H3544 H 0.36575 0.01756 0.31459 0.0
H3545 H 0.38408 0.06052 0.34927 0.0
C3546 C 0.38703 0.07555 0.32729 0.0
C3547 C 0.3877 0.07574 0.30977 0.0
C3548 C 0.37055 0.0163 0.32722 0.0
C3549 C 0.38273 0.04555 0.3265 0.0
C3550 C 0.3679 0.00125 0.33575 0.0
C3551 C 0.37439 -0.00062 0.35194 0.0
C3552 C 0.37943 0.02955 0.33515 0.0
C3553 C 0.38286 0.013 0.35955 0.0
C3554 C 0.38479 0.06045 0.33572 0.0
C3555 C 0.38633 0.06055 0.30099 0.0
N3556 N 0.38511 0.02757 0.3511 0.0
N3557 N 0.38367 0.04599 0.30947 0.0
H3558 H 0.6768 0.651 0.06274 0.0
H3559 H 0.75067 0.59643 0.0957 0.0
H3560 H 0.67248 0.59732 0.06817 0.0
H3561 H 0.74943 0.64991 0.10187 0.0
H3562 H 0.72232 0.5962 0.08483 0.0
H3563 H 0.70401 0.65075 0.07604 0.0
C3564 C 0.68158 0.63917 0.06672 0.0
C3565 C 0.67239 0.62416 0.06434 0.0
C3566 C 0.72818 0.60795 0.0888 0.0
C3567 C 0.7035 0.62376 0.07948 0.0
C3568 C 0.74425 0.60802 0.09522 0.0
C3569 C 0.75214 0.62312 0.10005 0.0
C3570 C 0.72016 0.62315 0.08704 0.0
C3571 C 0.74367 0.63799 0.09829 0.0
C3572 C 0.69707 0.63903 0.07438 0.0
C3573 C 0.67913 0.60919 0.06985 0.0
N3574 N 0.72813 0.63764 0.09189 0.0
N3575 N 0.69435 0.60935 0.07707 0.0
H3576 H 0.60633 0.48595 0.37235 0.0
H3577 H 0.63539 0.42519 0.30085 0.0
H3578 H 0.64876 0.4973 0.34174 0.0
H3579 H 0.58686 0.42142 0.3222 0.0
H3580 H 0.64025 0.45208 0.31492 0.0
H3581 H 0.59921 0.46204 0.35431 0.0
C3582 C 0.61419 0.48333 0.36184 0.0
C3583 C 0.62816 0.49355 0.35847 0.0
C3584 C 0.6284 0.44559 0.31629 0.0
C3585 C 0.62001 0.46634 0.33774 0.0
C3586 C 0.6256 0.43033 0.3082 0.0
C3587 C 0.61071 0.42127 0.31042 0.0
C3588 C 0.61634 0.45159 0.32698 0.0
C3589 C 0.59843 0.42822 0.32012 0.0
C3590 C 0.61003 0.46979 0.35148 0.0
C3591 C 0.63794 0.48964 0.34477 0.0
N3592 N 0.60163 0.44292 0.32833 0.0
N3593 N 0.63369 0.47628 0.33488 0.0
H3594 H 0.22129 0.88969 0.90069 0.0
H3595 H 0.16196 0.83412 0.95636 0.0
H3596 H 0.23987 0.84526 0.92379 0.0
H3597 H 0.15999 0.88782 0.95162 0.0
H3598 H 0.18919 0.83535 0.94293 0.0
H3599 H 0.19608 0.88599 0.91634 0.0
C3600 C 0.22004 0.87916 0.90917 0.0
C3601 C 0.23264 0.86791 0.91129 0.0
C3602 C 0.18277 0.84679 0.94508 0.0
C3603 C 0.20399 0.86371 0.92933 0.0
C3604 C 0.16735 0.84612 0.95269 0.0
C3605 C 0.15866 0.86085 0.95455 0.0
C3606 C 0.18915 0.86226 0.93944 0.0
C3607 C 0.16609 0.87612 0.94988 0.0
C3608 C 0.20571 0.87709 0.91813 0.0
C3609 C 0.23035 0.85427 0.9221 0.0
N3610 N 0.18086 0.8764 0.94236 0.0
N3611 N 0.21616 0.85252 0.93089 0.0
H3612 H 0.37055 0.98103 0.17887 0.0
H3613 H 0.36185 0.88938 0.17457 0.0
H3614 H 0.36778 0.95601 0.13083 0.0
H3615 H 0.39692 0.90972 0.21116 0.0
H3616 H 0.36535 0.91442 0.15825 0.0
H3617 H 0.38337 0.95658 0.19086 0.0
C3618 C 0.37274 0.97038 0.17087 0.0
C3619 C 0.36727 0.96988 0.15418 0.0
C3620 C 0.37256 0.91332 0.16968 0.0
C3621 C 0.38209 0.94248 0.16754 0.0
C3622 C 0.37027 0.89917 0.17924 0.0
C3623 C 0.37891 0.89765 0.19438 0.0
C3624 C 0.38311 0.9263 0.17555 0.0
C3625 C 0.38987 0.91062 0.19962 0.0
C3626 C 0.38037 0.95667 0.1776 0.0
C3627 C 0.37108 0.95635 0.14401 0.0
N3628 N 0.39142 0.92473 0.19032 0.0
N3629 N 0.37798 0.94289 0.15099 0.0
H3630 H 0.10513 0.05704 0.70236 0.0
H3631 H 0.14579 0.99691 0.63497 0.0
H3632 H 0.14628 0.07289 0.67164 0.0
H3633 H 0.10705 0.98162 0.66884 0.0
H3634 H 0.14654 0.02488 0.64799 0.0
H3635 H 0.10577 0.02933 0.68978 0.0
C3636 C 0.11431 0.05471 0.69296 0.0
C3637 C 0.12565 0.06734 0.68806 0.0
C3638 C 0.13794 0.01534 0.65259 0.0
C3639 C 0.12649 0.03551 0.67356 0.0
C3640 C 0.13756 -0.00057 0.6452 0.0
C3641 C 0.12633 0.98703 0.65084 0.0
C3642 C 0.127 0.01875 0.66564 0.0
C3643 C 0.11587 0.99086 0.66408 0.0
C3644 C 0.1147 0.03884 0.68578 0.0
C3645 C 0.13729 0.06353 0.67582 0.0
N3646 N 0.11643 0.00637 0.67097 0.0
N3647 N 0.1374 0.04795 0.66896 0.0
H3648 H 0.01181 0.10968 0.29312 0.0
H3649 H 0.9437 0.15554 0.23912 0.0
H3650 H 0.99601 0.15914 0.30527 0.0
H3651 H 0.94601 0.1018 0.24104 0.0
H3652 H 0.9653 0.15788 0.26071 0.0
H3653 H 0.99046 0.10745 0.27125 0.0
C3654 C 0.00398 0.12018 0.29103 0.0
C3655 C 0.0058 0.1347 0.30092 0.0
C3656 C 0.96116 0.14558 0.25637 0.0
C3657 C 0.98126 0.13218 0.27592 0.0
C3658 C 0.94892 0.14422 0.24395 0.0
C3659 C 0.94318 0.12844 0.23816 0.0
C3660 C 0.96802 0.13107 0.26285 0.0
C3661 C 0.95016 0.1142 0.24509 0.0
C3662 C 0.99171 0.11883 0.27864 0.0
C3663 C 0.99516 0.14781 0.29781 0.0
N3664 N 0.96232 0.11585 0.25698 0.0
N3665 N 0.98338 0.14627 0.28553 0.0
H3666 H 0.07946 0.69912 0.49158 0.0
H3667 H 0.13199 0.75779 0.55501 0.0
H3668 H 0.13118 0.69386 0.50248 0.0
H3669 H 0.07928 0.75009 0.55887 0.0
H3670 H 0.1317 0.7397 0.53036 0.0
H3671 H 0.07925 0.72302 0.51102 0.0
C3672 C 0.09081 0.70321 0.49784 0.0
C3673 C 0.10534 0.69454 0.49558 0.0
C3674 C 0.12016 0.74219 0.53641 0.0
C3675 C 0.10519 0.72167 0.51759 0.0
C3676 C 0.12028 0.75258 0.55042 0.0
C3677 C 0.10562 0.75531 0.55899 0.0
C3678 C 0.10524 0.73461 0.53083 0.0
C3679 C 0.09083 0.74819 0.55259 0.0
C3680 C 0.09066 0.71674 0.50895 0.0
C3681 C 0.11972 0.70021 0.50398 0.0
N3682 N 0.09101 0.73803 0.53889 0.0
N3683 N 0.11927 0.71339 0.51468 0.0
H3684 H 0.48108 0.8876 0.80616 0.0
H3685 H 0.57449 0.87705 0.77697 0.0
H3686 H 0.52108 0.87374 0.83863 0.0
H3687 H 0.53666 0.89259 0.74265 0.0
H3688 H 0.55427 0.87483 0.79909 0.0
H3689 H 0.50018 0.88849 0.7824 0.0
C3690 C 0.49381 0.88447 0.80825 0.0
C3691 C 0.49949 0.8805 0.82443 0.0
C3692 C 0.55027 0.87882 0.7868 0.0
C3693 C 0.52142 0.88161 0.7973 0.0
C3694 C 0.56188 0.88015 0.7741 0.0
C3695 C 0.55732 0.88513 0.75791 0.0
C3696 C 0.5338 0.88265 0.78352 0.0
C3697 C 0.54071 0.88872 0.75496 0.0
C3698 C 0.50472 0.8851 0.79468 0.0
C3699 C 0.51615 0.87683 0.82641 0.0
N3700 N 0.52954 0.8875 0.76768 0.0
N3701 N 0.52646 0.87749 0.81307 0.0
H3702 H 0.36486 0.27897 0.07638 0.0
H3703 H 0.35717 0.29836 0.97853 0.0
H3704 H 0.34846 0.24065 0.04121 0.0
H3705 H 0.35473 0.33525 0.01794 0.0
H3706 H 0.35765 0.27626 7e-05 0.0
H3707 H 0.36608 0.29916 0.05357 0.0
C3708 C 0.36167 0.27479 0.06379 0.0
C3709 C 0.35637 0.25824 0.06063 0.0
C3710 C 0.3569 0.28922 0.00388 0.0
C3711 C 0.35764 0.28123 0.03449 0.0
C3712 C 0.35654 0.30175 0.99165 0.0
C3713 C 0.35592 0.31859 0.99653 0.0
C3714 C 0.35681 0.29372 0.02093 0.0
C3715 C 0.35528 0.32242 0.01364 0.0
C3716 C 0.36227 0.28632 0.05079 0.0
C3717 C 0.35245 0.25341 0.0441 0.0
N3718 N 0.35585 0.31012 0.0252 0.0
N3719 N 0.3531 0.26491 0.03157 0.0
H3720 H 0.98148 0.87105 0.1914 0.0
H3721 H 0.92291 0.91953 0.25165 0.0
H3722 H 0.98607 0.92455 0.19834 0.0
H3723 H 0.93593 0.86859 0.26131 0.0
H3724 H 0.94416 0.9214 0.23012 0.0
H3725 H 0.96251 0.8694 0.21515 0.0
C3726 C 0.97849 0.88241 0.19797 0.0
C3727 C 0.98524 0.89795 0.19304 0.0
C3728 C 0.94249 0.9099 0.23712 0.0
C3729 C 0.96367 0.89621 0.21983 0.0
C3730 C 0.93042 0.90884 0.24938 0.0
C3731 C 0.9278 0.89392 0.25822 0.0
C3732 C 0.95171 0.89583 0.23356 0.0
C3733 C 0.9377 0.88034 0.25477 0.0
C3734 C 0.96779 0.88146 0.21151 0.0
C3735 C 0.98109 0.91233 0.20186 0.0
N3736 N 0.94914 0.88155 0.24252 0.0
N3737 N 0.97042 0.91115 0.21478 0.0
H3738 H 0.33794 0.74833 0.42704 0.0
H3739 H 0.40251 0.70171 0.48588 0.0
H3740 H 0.3903 0.74984 0.41829 0.0
H3741 H 0.34995 0.69215 0.48764 0.0
H3742 H 0.3984 0.7214 0.46283 0.0
H3743 H 0.34217 0.72963 0.45081 0.0
C3744 C 0.35034 0.74473 0.43015 0.0
C3745 C 0.36379 0.75063 0.42069 0.0
C3746 C 0.38775 0.71508 0.46832 0.0
C3747 C 0.36877 0.72927 0.44796 0.0
C3748 C 0.39009 0.70393 0.48155 0.0
C3749 C 0.37654 0.69536 0.48871 0.0
C3750 C 0.37172 0.71781 0.46231 0.0
C3751 C 0.36073 0.69855 0.48249 0.0
C3752 C 0.35275 0.73403 0.44371 0.0
C3753 C 0.37959 0.74553 0.42524 0.0
N3754 N 0.35875 0.70952 0.46968 0.0
N3755 N 0.38165 0.73519 0.43857 0.0
H3756 H 0.54791 0.11939 0.75365 0.0
H3757 H 0.50196 0.17186 0.68509 0.0
H3758 H 0.5519 0.1733 0.75269 0.0
H3759 H 0.48266 0.12385 0.70172 0.0
H3760 H 0.52161 0.17229 0.70864 0.0
H3761 H 0.52502 0.12017 0.73342 0.0
C3762 C 0.54381 0.13138 0.7493 0.0
C3763 C 0.55169 0.14631 0.75479 0.0
C3764 C 0.51289 0.1618 0.70727 0.0
C3765 C 0.52588 0.14729 0.73155 0.0
C3766 C 0.5017 0.16156 0.69387 0.0
C3767 C 0.49067 0.14785 0.69159 0.0
C3768 C 0.51319 0.1481 0.71821 0.0
C3769 C 0.49092 0.1347 0.70315 0.0
C3770 C 0.53077 0.13183 0.73781 0.0
C3771 C 0.54603 0.16153 0.74879 0.0
N3772 N 0.50217 0.13504 0.71588 0.0
N3773 N 0.53358 0.16164 0.73729 0.0
H3774 H 0.10241 0.29089 0.01694 0.0
H3775 H 0.14657 0.24519 0.94125 0.0
H3776 H 0.1484 0.30867 0.99577 0.0
H3777 H 0.09503 0.2362 0.95179 0.0
H3778 H 0.148 0.2669 0.96276 0.0
H3779 H 0.10016 0.26918 0.99512 0.0
C3780 C 0.11212 0.29012 0.00779 0.0
C3781 C 0.1257 0.30152 0.00827 0.0
C3782 C 0.13636 0.2602 0.96046 0.0
C3783 C 0.12313 0.27674 0.98319 0.0
C3784 C 0.13553 0.24771 0.94821 0.0
C3785 C 0.12068 0.23873 0.94481 0.0
C3786 C 0.12229 0.26368 0.96973 0.0
C3787 C 0.10674 0.24277 0.95406 0.0
C3788 C 0.11075 0.2778 0.99527 0.0
C3789 C 0.13781 0.30005 0.99599 0.0
N3790 N 0.10791 0.25486 0.96622 0.0
N3791 N 0.13626 0.28788 0.98402 0.0
H3792 H 0.31649 0.98617 0.13985 0.0
H3793 H 0.2232 0.95718 0.11934 0.0
H3794 H 0.28645 0.01117 0.1036 0.0
H3795 H 0.25855 0.92004 0.13129 0.0
H3796 H 0.2457 0.97832 0.11739 0.0
H3797 H 0.29526 0.96314 0.14095 0.0
C3798 C 0.30543 0.98691 0.13222 0.0
C3799 C 0.30329 0.0008 0.12169 0.0
C3800 C 0.24863 0.96555 0.12037 0.0
C3801 C 0.2788 0.97449 0.12302 0.0
C3802 C 0.23574 0.95343 0.12146 0.0
C3803 C 0.23889 0.93669 0.12525 0.0
C3804 C 0.26499 0.96125 0.12369 0.0
C3805 C 0.2555 0.9327 0.12805 0.0
C3806 C 0.29336 0.97368 0.13277 0.0
C3807 C 0.28871 0.00086 0.11196 0.0
N3808 N 0.26787 0.9449 0.12743 0.0
N3809 N 0.27708 0.98813 0.11301 0.0
H3810 H 0.31783 0.01226 0.3752 0.0
H3811 H 0.22416 0.03313 0.35898 0.0
H3812 H 0.28387 0.97618 0.35214 0.0
H3813 H 0.25412 0.05729 0.39756 0.0
H3814 H 0.24574 0.01286 0.35481 0.0
H3815 H 0.29487 0.03003 0.38145 0.0
C3816 C 0.30552 0.00816 0.37126 0.0
C3817 C 0.30276 0.99276 0.36301 0.0
C3818 C 0.24747 0.02243 0.36436 0.0
C3819 C 0.27631 0.01313 0.37019 0.0
C3820 C 0.23515 0.03396 0.3668 0.0
C3821 C 0.23736 0.04688 0.37866 0.0
C3822 C 0.26223 0.024 0.37366 0.0
C3823 C 0.25189 0.04748 0.38833 0.0
C3824 C 0.29239 0.01826 0.37499 0.0
C3825 C 0.28652 0.98799 0.35844 0.0
N3826 N 0.26386 0.03635 0.38547 0.0
N3827 N 0.27389 0.99822 0.36197 0.0
H3828 H 0.1976 0.98345 0.60146 0.0
H3829 H 0.26543 0.04382 0.64572 0.0
H3830 H 0.20021 0.99013 0.65506 0.0
H3831 H 0.24917 0.05137 0.59479 0.0
H3832 H 0.24423 0.02156 0.64874 0.0
H3833 H 0.21878 0.00574 0.59825 0.0
C3834 C 0.20278 0.98947 0.6126 0.0
C3835 C 0.19725 0.98475 0.62859 0.0
C3836 C 0.24532 0.02802 0.63688 0.0
C3837 C 0.22166 0.01033 0.62495 0.0
C3838 C 0.25752 0.04066 0.63507 0.0
C3839 C 0.25919 0.04942 0.61991 0.0
C3840 C 0.23477 0.02382 0.62335 0.0
C3841 C 0.24842 0.04487 0.60665 0.0
C3842 C 0.2148 0.0023 0.61072 0.0
C3843 C 0.2042 0.99325 0.64252 0.0
N3844 N 0.23673 0.03233 0.60864 0.0
N3845 N 0.21614 0.00551 0.64039 0.0
H3846 H 0.25306 0.91816 0.89431 0.0
H3847 H 0.20683 0.99132 0.84439 0.0
H3848 H 0.27006 0.93849 0.84742 0.0
H3849 H 0.20247 0.98513 0.89775 0.0
H3850 H 0.2268 0.96881 0.84397 0.0
H3851 H 0.23117 0.93899 0.89447 0.0
C3852 C 0.25206 0.92673 0.88391 0.0
C3853 C 0.26348 0.92635 0.87077 0.0
C3854 C 0.22148 0.97235 0.85579 0.0
C3855 C 0.2384 0.95047 0.87091 0.0
C3856 C 0.21005 0.98526 0.85603 0.0
C3857 C 0.203 0.9904 0.87115 0.0
C3858 C 0.22579 0.96408 0.87073 0.0
C3859 C 0.20766 0.98182 0.8858 0.0
C3860 C 0.23964 0.93878 0.88408 0.0
C3861 C 0.26161 0.93815 0.85783 0.0
N3862 N 0.2186 0.96914 0.88522 0.0
N3863 N 0.24944 0.94954 0.85819 0.0
H3864 H 0.57775 0.18522 0.01012 0.0
H3865 H 0.62708 0.26284 0.05213 0.0
H3866 H 0.62663 0.20154 0.99522 0.0
H3867 H 0.57919 0.24423 0.06794 0.0
H3868 H 0.62583 0.24296 0.02873 0.0
H3869 H 0.57714 0.20863 0.02968 0.0
C3870 C 0.58825 0.19396 0.01083 0.0
C3871 C 0.6022 0.19168 0.00108 0.0
C3872 C 0.6155 0.24341 0.03718 0.0
C3873 C 0.6016 0.21849 0.02322 0.0
C3874 C 0.61615 0.25482 0.05042 0.0
C3875 C 0.60325 0.25501 0.06193 0.0
C3876 C 0.60187 0.23218 0.03561 0.0
C3877 C 0.58939 0.24441 0.05929 0.0
C3878 C 0.58793 0.20728 0.02199 0.0
C3879 C 0.61566 0.20301 0.00262 0.0
N3880 N 0.58915 0.23325 0.0465 0.0
N3881 N 0.61503 0.21604 0.01352 0.0
H3882 H 0.07078 0.36467 0.27587 0.0
H3883 H 0.99401 0.4103 0.31345 0.0
H3884 H 0.04067 0.39687 0.24619 0.0
H3885 H 0.01332 0.36625 0.33638 0.0
H3886 H 0.01154 0.40618 0.28929 0.0
H3887 H 0.05072 0.36566 0.29847 0.0
C3888 C 0.05988 0.37191 0.27407 0.0
C3889 C 0.05744 0.38076 0.2591 0.0
C3890 C 0.01191 0.39731 0.2995 0.0
C3891 C 0.03441 0.38207 0.28514 0.0
C3892 C 0.00192 0.39967 0.31338 0.0
C3893 C 0.00221 0.38862 0.32704 0.0
C3894 C 0.02264 0.38397 0.29927 0.0
C3895 C 0.01268 0.37506 0.32615 0.0
C3896 C 0.0484 0.37241 0.28699 0.0
C3897 C 0.04306 0.38987 0.25749 0.0
N3898 N 0.02263 0.37322 0.31258 0.0
N3899 N 0.03218 0.39043 0.27042 0.0
H3900 H 0.85977 0.79945 0.47873 0.0
H3901 H 0.85361 0.7811 0.57681 0.0
H3902 H 0.84883 0.83555 0.51698 0.0
H3903 H 0.85282 0.74082 0.54068 0.0
H3904 H 0.85585 0.80116 0.5542 0.0
H3905 H 0.85967 0.77743 0.50033 0.0
C3906 C 0.85709 0.80265 0.49159 0.0
C3907 C 0.85431 0.81925 0.49619 0.0
C3908 C 0.85514 0.78795 0.55109 0.0
C3909 C 0.85451 0.79455 0.52068 0.0
C3910 C 0.85391 0.77651 0.56402 0.0
C3911 C 0.8527 0.75939 0.56049 0.0
C3912 C 0.85497 0.78228 0.53443 0.0
C3913 C 0.85355 0.75402 0.54378 0.0
C3914 C 0.85716 0.79017 0.50387 0.0
C3915 C 0.85109 0.8229 0.51295 0.0
N3916 N 0.85445 0.7655 0.53122 0.0
N3917 N 0.85136 0.81068 0.52456 0.0
H3918 H 0.05438 0.6736 0.24998 0.0
H3919 H 0.98588 0.61942 0.19952 0.0
H3920 H 0.05233 0.61964 0.25004 0.0
H3921 H 0.00199 0.66897 0.1842 0.0
H3922 H 0.00658 0.62058 0.22206 0.0
H3923 H 0.03164 0.67329 0.22949 0.0
C3924 C 0.04895 0.6617 0.24584 0.0
C3925 C 0.05509 0.64662 0.25168 0.0
C3926 C 0.00549 0.63123 0.21384 0.0
C3927 C 0.02916 0.64617 0.22849 0.0
C3928 C 0.99363 0.63064 0.20108 0.0
C3929 C 0.99227 0.64415 0.19007 0.0
C3930 C 0.01589 0.64552 0.21569 0.0
C3931 C 0.00266 0.65834 0.1925 0.0
C3932 C 0.03609 0.66153 0.23411 0.0
C3933 C 0.04787 0.63152 0.2458 0.0
N3934 N 0.01407 0.65867 0.20509 0.0
N3935 N 0.03519 0.63167 0.23455 0.0
H3936 H 0.49359 0.4204 0.70097 0.0
H3937 H 0.44087 0.36694 0.76592 0.0
H3938 H 0.49208 0.36643 0.69905 0.0
H3939 H 0.42658 0.41525 0.74809 0.0
H3940 H 0.46328 0.36729 0.74552 0.0
H3941 H 0.4726 0.41939 0.72251 0.0
C3942 C 0.48904 0.4083 0.70533 0.0
C3943 C 0.49461 0.39345 0.69837 0.0
C3944 C 0.45526 0.37781 0.74616 0.0
C3945 C 0.47063 0.39226 0.72302 0.0
C3946 C 0.4426 0.37771 0.75785 0.0
C3947 C 0.43202 0.39118 0.7587 0.0
C3948 C 0.45742 0.3916 0.73554 0.0
C3949 C 0.4346 0.40472 0.74789 0.0
C3950 C 0.47696 0.40776 0.71751 0.0
C3951 C 0.48811 0.37813 0.70423 0.0
N3952 N 0.44712 0.40462 0.73676 0.0
N3953 N 0.47643 0.3779 0.71637 0.0
H3954 H 0.01096 0.85134 0.68312 0.0
H3955 H 0.03617 0.87462 0.77717 0.0
H3956 H 0.97663 0.87508 0.71563 0.0
H3957 H 0.07099 0.87509 0.73672 0.0
H3958 H 0.01351 0.87141 0.75644 0.0
H3959 H 0.03257 0.8557 0.70447 0.0
C3960 C 0.00791 0.85726 0.69487 0.0
C3961 C 0.99197 0.8628 0.69767 0.0
C3962 C 0.02613 0.87234 0.75216 0.0
C3963 C 0.01666 0.86783 0.72216 0.0
C3964 C 0.03902 0.8742 0.76395 0.0
C3965 C 0.05546 0.87513 0.75864 0.0
C3966 C 0.02978 0.87099 0.73504 0.0
C3967 C 0.0585 0.87446 0.74137 0.0
C3968 C 0.02029 0.85987 0.70698 0.0
C3969 C 0.98876 0.87058 0.71304 0.0
N3970 N 0.04583 0.87223 0.73023 0.0
N3971 N 0.00099 0.87279 0.72478 0.0
H3972 H 0.91076 0.25105 0.44071 0.0
H3973 H 0.85977 0.31343 0.49301 0.0
H3974 H 0.85757 0.24891 0.43957 0.0
H3975 H 0.90834 0.29906 0.50855 0.0
H3976 H 0.85824 0.28964 0.47361 0.0
H3977 H 0.91012 0.26848 0.46592 0.0
C3978 C 0.89897 0.25408 0.44596 0.0
C3979 C 0.88421 0.24869 0.43816 0.0
C3980 C 0.86909 0.29151 0.48151 0.0
C3981 C 0.88334 0.26872 0.4666 0.0
C3982 C 0.86998 0.30507 0.49251 0.0
C3983 C 0.88429 0.30821 0.50214 0.0
C3984 C 0.88271 0.28128 0.48006 0.0
C3985 C 0.89717 0.29709 0.50115 0.0
C3986 C 0.89858 0.26395 0.46033 0.0
C3987 C 0.86921 0.25287 0.44533 0.0
N3988 N 0.89619 0.28421 0.49007 0.0
N3989 N 0.86914 0.26293 0.45904 0.0
H3990 H 0.42109 0.09954 0.22379 0.0
H3991 H 0.50953 0.12408 0.18837 0.0
H3992 H 0.455 0.13304 0.25043 0.0
H3993 H 0.46888 0.11048 0.15536 0.0
H3994 H 0.49034 0.12607 0.21167 0.0
H3995 H 0.43906 0.10124 0.19923 0.0
C3996 C 0.4324 0.10714 0.22452 0.0
C3997 C 0.43664 0.11608 0.23921 0.0
C3998 C 0.48553 0.12295 0.1993 0.0
C3999 C 0.4572 0.1181 0.21114 0.0
C4000 C 0.49645 0.12191 0.18597 0.0
C4001 C 0.49072 0.1174 0.16989 0.0
C4002 C 0.46873 0.11891 0.1967 0.0
C4003 C 0.47373 0.11435 0.16751 0.0
C4004 C 0.44254 0.10823 0.21044 0.0
C4005 C 0.45131 0.12589 0.23938 0.0
N4006 N 0.46333 0.1149 0.18085 0.0
N4007 N 0.46113 0.12653 0.22563 0.0
H4008 H 0.66402 0.681 0.00528 0.0
H4009 H 0.61877 0.73675 0.93869 0.0
H4010 H 0.61235 0.69137 0.00866 0.0
H4011 H 0.67062 0.7442 0.95 0.0
H4012 H 0.6162 0.71802 0.96283 0.0
H4013 H 0.66701 0.70258 0.98364 0.0
C4014 C 0.65339 0.688 0.00162 0.0
C4015 C 0.63795 0.6845 0.00869 0.0
C4016 C 0.6281 0.72388 0.96009 0.0
C4017 C 0.64114 0.70873 0.98388 0.0
C4018 C 0.62957 0.73448 0.94633 0.0
C4019 C 0.64492 0.74196 0.94247 0.0
C4020 C 0.64214 0.7206 0.96982 0.0
C4021 C 0.65857 0.73864 0.95265 0.0
C4022 C 0.65508 0.70026 0.9893 0.0
C4023 C 0.62449 0.69378 0.0035 0.0
N4024 N 0.6569 0.72806 0.96583 0.0
N4025 N 0.62635 0.70536 0.99123 0.0
H4026 H 0.01896 0.12734 0.81703 0.0
H4027 H 0.04851 0.09547 0.72776 0.0
H4028 H 0.99172 0.08841 0.78994 0.0
H4029 H 0.08158 0.11259 0.76741 0.0
H4030 H 0.02521 0.09778 0.74716 0.0
H4031 H 0.03958 0.12805 0.79484 0.0
C4032 C 0.01719 0.11916 0.80626 0.0
C4033 C 0.0038 0.10767 0.80531 0.0
C4034 C 0.03761 0.10099 0.75151 0.0
C4035 C 0.02722 0.10836 0.78009 0.0
C4036 C 0.05083 0.09961 0.74053 0.0
C4037 C 0.06691 0.10363 0.74612 0.0
C4038 C 0.04061 0.10689 0.7679 0.0
C4039 C 0.06937 0.10912 0.76269 0.0
C4040 C 0.02898 0.11949 0.79369 0.0
C4041 C 0.00201 0.09735 0.79112 0.0
N4042 N 0.05634 0.11071 0.77296 0.0
N4043 N 0.01368 0.09785 0.77904 0.0
H4044 H 0.60117 0.24472 0.58022 0.0
H4045 H 0.64048 0.31605 0.52126 0.0
H4046 H 0.65297 0.25851 0.57882 0.0
H4047 H 0.59241 0.29331 0.51111 0.0
H4048 H 0.64387 0.29704 0.54472 0.0
H4049 H 0.59625 0.26447 0.55716 0.0
C4050 C 0.61145 0.25201 0.57515 0.0
C4051 C 0.62751 0.24998 0.58128 0.0
C4052 C 0.63259 0.2961 0.53734 0.0
C4053 C 0.62203 0.2725 0.55525 0.0
C4054 C 0.63067 0.30694 0.52392 0.0
C4055 C 0.61619 0.30615 0.51418 0.0
C4056 C 0.61993 0.28435 0.54116 0.0
C4057 C 0.60379 0.29423 0.5183 0.0
C4058 C 0.60867 0.26317 0.56198 0.0
C4059 C 0.64043 0.25962 0.57432 0.0
N4060 N 0.60593 0.28376 0.53154 0.0
N4061 N 0.6374 0.27047 0.56173 0.0
H4062 H 0.44367 0.88171 0.24462 0.0
H4063 H 0.48595 0.8296 0.31602 0.0
H4064 H 0.43901 0.82787 0.24689 0.0
H4065 H 0.50805 0.8761 0.29846 0.0
H4066 H 0.4663 0.82996 0.29256 0.0
H4067 H 0.46569 0.88116 0.26597 0.0
C4068 C 0.44746 0.8698 0.2495 0.0
C4069 C 0.4397 0.85481 0.24405 0.0
C4070 C 0.4756 0.83996 0.29374 0.0
C4071 C 0.46425 0.85411 0.26854 0.0
C4072 C 0.48678 0.83975 0.30708 0.0
C4073 C 0.49866 0.85274 0.30898 0.0
C4074 C 0.47628 0.85333 0.28239 0.0
C4075 C 0.49908 0.86579 0.29729 0.0
C4076 C 0.45995 0.86949 0.26162 0.0
C4077 C 0.44487 0.83967 0.2507 0.0
N4078 N 0.48795 0.86583 0.28449 0.0
N4079 N 0.4567 0.83971 0.2628 0.0
H4080 H 0.84672 0.75895 0.05529 0.0
H4081 H 0.89126 0.70933 0.9825 0.0
H4082 H 0.89929 0.7632 0.0484 0.0
H4083 H 0.84512 0.69209 0.00372 0.0
H4084 H 0.89338 0.73154 0.00382 0.0
H4085 H 0.84495 0.73689 0.03397 0.0
C4086 C 0.8579 0.7554 0.04911 0.0
C4087 C 0.87317 0.7631 0.05353 0.0
C4088 C 0.88278 0.72293 0.00379 0.0
C4089 C 0.87118 0.73778 0.02888 0.0
C4090 C 0.88149 0.71031 0.99155 0.0
C4091 C 0.86791 0.69888 0.99122 0.0
C4092 C 0.8703 0.72435 0.01572 0.0
C4093 C 0.85572 0.70069 0.00339 0.0
C4094 C 0.85687 0.74269 0.03701 0.0
C4095 C 0.88726 0.75769 0.04532 0.0
N4096 N 0.85716 0.7132 0.01506 0.0
N4097 N 0.88591 0.74548 0.03327 0.0
H4098 H 0.74024 0.07516 0.88653 0.0
H4099 H 0.71382 0.97904 0.88254 0.0
H4100 H 0.76846 0.04167 0.8569 0.0
H4101 H 0.67687 0.01557 0.8746 0.0
H4102 H 0.73542 0.00128 0.87942 0.0
H4103 H 0.71813 0.05327 0.88853 0.0
C4104 C 0.74186 0.0632 0.88055 0.0
C4105 C 0.75629 0.06035 0.8715 0.0
C4106 C 0.72258 0.00441 0.87832 0.0
C4107 C 0.73117 0.03494 0.8742 0.0
C4108 C 0.71024 0.99173 0.88012 0.0
C4109 C 0.69348 0.99536 0.87859 0.0
C4110 C 0.7182 0.02106 0.87564 0.0
C4111 C 0.68962 0.01212 0.87557 0.0
C4112 C 0.7292 0.05072 0.88164 0.0
C4113 C 0.75759 0.0445 0.86397 0.0
N4114 N 0.70182 0.02435 0.87443 0.0
N4115 N 0.74539 0.03238 0.8657 0.0
H4116 H 0.69841 0.01718 0.61288 0.0
H4117 H 0.75051 0.94521 0.65358 0.0
H4118 H 0.68324 0.99298 0.65866 0.0
H4119 H 0.74829 0.95241 0.60011 0.0
H4120 H 0.72868 0.9653 0.65699 0.0
H4121 H 0.71953 0.9964 0.60936 0.0
C4122 C 0.69965 0.0076 0.62233 0.0
C4123 C 0.68912 0.00694 0.63621 0.0
C4124 C 0.73299 0.96253 0.64452 0.0
C4125 C 0.71343 0.98307 0.63221 0.0
C4126 C 0.74554 0.95116 0.64254 0.0
C4127 C 0.75137 0.94726 0.62653 0.0
C4128 C 0.7264 0.97042 0.63041 0.0
C4129 C 0.74426 0.95515 0.61268 0.0
C4130 C 0.71163 0.99566 0.6202 0.0
C4131 C 0.69117 0.99406 0.64788 0.0
N4132 N 0.73227 0.96649 0.61495 0.0
N4133 N 0.70319 0.98272 0.6457 0.0
H4134 H 0.75542 0.93512 0.40025 0.0
H4135 H 0.78223 0.02201 0.35623 0.0
H4136 H 0.72456 0.95971 0.36434 0.0
H4137 H 0.81569 0.9915 0.3839 0.0
H4138 H 0.7602 0.00052 0.36045 0.0
H4139 H 0.77679 0.95715 0.39636 0.0
C4140 C 0.75306 0.94529 0.39171 0.0
C4141 C 0.73815 0.94566 0.3827 0.0
C4142 C 0.77237 0.99854 0.36559 0.0
C4143 C 0.76265 0.97084 0.37799 0.0
C4144 C 0.78492 0.01079 0.36317 0.0
C4145 C 0.80078 0.00851 0.3697 0.0
C4146 C 0.77568 0.98406 0.37484 0.0
C4147 C 0.80365 0.99374 0.37858 0.0
C4148 C 0.76531 0.9578 0.38939 0.0
C4149 C 0.73584 0.95902 0.37164 0.0
N4150 N 0.79123 0.98215 0.38096 0.0
N4151 N 0.74794 0.97106 0.36958 0.0
H4152 H 0.75144 0.09011 0.12308 0.0
H4153 H 0.76932 0.99181 0.13271 0.0
H4154 H 0.71348 0.05106 0.12152 0.0
H4155 H 0.80787 0.02941 0.12541 0.0
H4156 H 0.74883 0.01367 0.13084 0.0
H4157 H 0.77232 0.06859 0.12558 0.0
C4158 C 0.74748 0.07703 0.12319 0.0
C4159 C 0.73059 0.07248 0.12195 0.0
C4160 C 0.76177 0.01718 0.12963 0.0
C4161 C 0.75453 0.04763 0.12517 0.0
C4162 C 0.7735 0.00466 0.13075 0.0
C4163 C 0.7904 0.00869 0.12919 0.0
C4164 C 0.76686 0.03398 0.1269 0.0
C4165 C 0.79501 0.02565 0.12672 0.0
C4166 C 0.75943 0.06472 0.12467 0.0
C4167 C 0.72629 0.05526 0.12229 0.0
N4168 N 0.78338 0.0376 0.12562 0.0
N4169 N 0.73808 0.04358 0.12394 0.0
H4170 H 0.41751 0.81022 0.99563 0.0
H4171 H 0.36586 0.73769 0.94782 0.0
H4172 H 0.36501 0.80197 0.00102 0.0
H4173 H 0.41555 0.75354 0.93518 0.0
H4174 H 0.36669 0.75753 0.97121 0.0
H4175 H 0.41806 0.78631 0.97668 0.0
C4176 C 0.40613 0.80316 0.99298 0.0
C4177 C 0.3912 0.80788 -0.00015 0.0
C4178 C 0.37749 0.75647 0.96347 0.0
C4179 C 0.39173 0.78056 0.97835 0.0
C4180 C 0.37709 0.74507 0.95025 0.0
C4181 C 0.39065 0.74415 0.9396 0.0
C4182 C 0.39158 0.76687 0.96599 0.0
C4183 C 0.40486 0.75396 0.94315 0.0
C4184 C 0.40644 0.78957 0.98215 0.0
C4185 C 0.37674 0.79861 0.99587 0.0
N4186 N 0.4049 0.76508 0.95599 0.0
N4187 N 0.37736 0.78529 0.98533 0.0
H4188 H 0.99054 0.63526 0.66984 0.0
H4189 H 0.93545 0.58668 0.73827 0.0
H4190 H 0.98792 0.58166 0.67579 0.0
H4191 H 0.94701 0.63957 0.74246 0.0
H4192 H 0.95355 0.58527 0.71413 0.0
H4193 H 0.97336 0.63794 0.69503 0.0
C4194 C 0.98635 0.6241 0.67641 0.0
C4195 C 0.99067 0.60821 0.67072 0.0
C4196 C 0.95227 0.5972 0.72035 0.0
C4197 C 0.97111 0.61114 0.69938 0.0
C4198 C 0.94195 0.59799 0.73418 0.0
C4199 C 0.93982 0.61322 0.74246 0.0
C4200 C 0.96043 0.61182 0.71448 0.0
C4201 C 0.94845 0.62753 0.73651 0.0
C4202 C 0.97663 0.62562 0.6908 0.0
C4203 C 0.98494 0.59416 0.67971 0.0
N4204 N 0.9583 0.62651 0.7228 0.0
N4205 N 0.97548 0.59596 0.69348 0.0
H4206 H 0.14834 0.21737 0.423 0.0
H4207 H 0.12095 0.19848 0.51685 0.0
H4208 H 0.13041 0.25656 0.4545 0.0
H4209 H 0.15538 0.1693 0.48944 0.0
H4210 H 0.12125 0.21904 0.49393 0.0
H4211 H 0.14706 0.19826 0.44664 0.0
C4212 C 0.14404 0.22194 0.43492 0.0
C4213 C 0.13966 0.23862 0.43686 0.0
C4214 C 0.12885 0.20822 0.49307 0.0
C4215 C 0.13819 0.21673 0.4641 0.0
C4216 C 0.12874 0.19655 0.50613 0.0
C4217 C 0.13824 0.18224 0.50505 0.0
C4218 C 0.13831 0.20535 0.47877 0.0
C4219 C 0.14797 0.1802 0.49084 0.0
C4220 C 0.14339 0.21103 0.44845 0.0
C4221 C 0.13403 0.24381 0.45255 0.0
N4222 N 0.14764 0.19153 0.47823 0.0
N4223 N 0.13346 0.23287 0.46565 0.0
H4224 H 0.94619 0.37855 0.74557 0.0
H4225 H 0.98752 0.32751 0.81854 0.0
H4226 H 0.93744 0.32538 0.75105 0.0
H4227 H 0.01232 0.37079 0.797 0.0
H4228 H 0.96717 0.32775 0.79567 0.0
H4229 H 0.96895 0.37735 0.76611 0.0
C4230 C 0.94917 0.36664 0.75103 0.0
C4231 C 0.94011 0.35202 0.74661 0.0
C4232 C 0.97722 0.33703 0.79581 0.0
C4233 C 0.9656 0.35061 0.77026 0.0
C4234 C 0.98884 0.33687 0.80882 0.0
C4235 C 0.00169 0.34904 0.80952 0.0
C4236 C 0.97833 0.34959 0.78359 0.0
C4237 C 0.00266 0.3611 0.7968 0.0
C4238 C 0.96212 0.36594 0.76268 0.0
C4239 C 0.94433 0.33688 0.75402 0.0
N4240 N 0.99103 0.36118 0.78441 0.0
N4241 N 0.95663 0.33659 0.76567 0.0
H4242 H 0.50784 0.62926 0.3062 0.0
H4243 H 0.56601 0.58022 0.2458 0.0
H4244 H 0.49772 0.57762 0.29261 0.0
H4245 H 0.5606 0.63353 0.24184 0.0
H4246 H 0.54228 0.57876 0.26469 0.0
H4247 H 0.5286 0.63118 0.2841 0.0
C4248 C 0.50982 0.61842 0.29838 0.0
C4249 C 0.50112 0.60326 0.30117 0.0
C4250 C 0.54623 0.59074 0.25953 0.0
C4251 C 0.52492 0.60525 0.27624 0.0
C4252 C 0.55974 0.59156 0.24883 0.0
C4253 C 0.56514 0.60698 0.24229 0.0
C4254 C 0.53841 0.60551 0.26396 0.0
C4255 C 0.5567 0.62137 0.24659 0.0
C4256 C 0.52165 0.61951 0.28582 0.0
C4257 C 0.5042 0.58953 0.29083 0.0
N4258 N 0.54385 0.62033 0.25733 0.0
N4259 N 0.51601 0.59079 0.27893 0.0
H4260 H 0.44235 0.60239 0.74313 0.0
H4261 H 0.49552 0.66121 0.80582 0.0
H4262 H 0.44089 0.65623 0.74201 0.0
H4263 H 0.50862 0.6108 0.79379 0.0
H4264 H 0.47362 0.65922 0.78439 0.0
H4265 H 0.46487 0.60467 0.76387 0.0
C4266 C 0.44682 0.61467 0.74723 0.0
C4267 C 0.43991 0.62915 0.7408 0.0
C4268 C 0.48141 0.64867 0.78634 0.0
C4269 C 0.46539 0.63186 0.76457 0.0
C4270 C 0.49391 0.64983 0.7985 0.0
C4271 C 0.50397 0.63622 0.80139 0.0
C4272 C 0.47884 0.63372 0.77721 0.0
C4273 C 0.50123 0.62164 0.7918 0.0
C4274 C 0.45966 0.61598 0.75901 0.0
C4275 C 0.44603 0.64477 0.74656 0.0
N4276 N 0.48885 0.62072 0.7802 0.0
N4277 N 0.45837 0.64573 0.7582 0.0
H4278 H 0.84833 0.18281 0.98175 0.0
H4279 H 0.88911 0.25023 0.9195 0.0
H4280 H 0.89758 0.20372 0.98919 0.0
H4281 H 0.83656 0.24179 0.92373 0.0
H4282 H 0.8932 0.23093 0.94297 0.0
H4283 H 0.84439 0.20224 0.95849 0.0
C4284 C 0.85826 0.19161 0.97857 0.0
C4285 C 0.87326 0.19177 0.98746 0.0
C4286 C 0.88079 0.23333 0.93876 0.0
C4287 C 0.86895 0.21383 0.96071 0.0
C4288 C 0.87846 0.24426 0.92535 0.0
C4289 C 0.86247 0.24764 0.91978 0.0
C4290 C 0.86703 0.22554 0.94644 0.0
C4291 C 0.84908 0.23961 0.92775 0.0
C4292 C 0.85602 0.20266 0.96528 0.0
C4293 C 0.88579 0.20328 0.98271 0.0
N4294 N 0.85165 0.22888 0.94062 0.0
N4295 N 0.88339 0.2138 0.96959 0.0
H4296 H 0.60848 0.81749 0.48716 0.0
H4297 H 0.63623 0.72572 0.46239 0.0
H4298 H 0.63663 0.78709 0.52064 0.0
H4299 H 0.59717 0.75071 0.43672 0.0
H4300 H 0.63803 0.74862 0.48291 0.0
H4301 H 0.60592 0.79398 0.46747 0.0
C4302 C 0.61419 0.80586 0.49034 0.0
C4303 C 0.62277 0.80422 0.50558 0.0
C4304 C 0.62894 0.74902 0.4729 0.0
C4305 C 0.61994 0.77721 0.48301 0.0
C4306 C 0.62786 0.73591 0.46122 0.0
C4307 C 0.6164 0.7362 0.44793 0.0
C4308 C 0.61863 0.76267 0.4712 0.0
C4309 C 0.60604 0.74987 0.44688 0.0
C4310 C 0.61265 0.79241 0.47912 0.0
C4311 C 0.62987 0.78885 0.50906 0.0
N4312 N 0.60748 0.76259 0.45827 0.0
N4313 N 0.62837 0.77597 0.49783 0.0
H4314 H 0.80465 0.50056 0.64464 0.0
H4315 H 0.74613 0.43029 0.59888 0.0
H4316 H 0.79781 0.49953 0.59106 0.0
H4317 H 0.73913 0.44641 0.64979 0.0
H4318 H 0.7683 0.4521 0.59605 0.0
H4319 H 0.78407 0.47738 0.64705 0.0
C4320 C 0.79888 0.49543 0.63335 0.0
C4321 C 0.80291 0.50223 0.61763 0.0
C4322 C 0.76188 0.45085 0.60783 0.0
C4323 C 0.77934 0.47528 0.62028 0.0
C4324 C 0.74922 0.43837 0.60945 0.0
C4325 C 0.74052 0.43655 0.62454 0.0
C4326 C 0.76616 0.46147 0.62147 0.0
C4327 C 0.74531 0.44735 0.63786 0.0
C4328 C 0.78707 0.48218 0.63474 0.0
C4329 C 0.79501 0.49488 0.60346 0.0
N4330 N 0.75771 0.4592 0.63603 0.0
N4331 N 0.78372 0.48184 0.6051 0.0
H4332 H 0.74339 0.5441 0.90176 0.0
H4333 H 0.80759 0.50015 0.84171 0.0
H4334 H 0.74233 0.54919 0.848 0.0
H4335 H 0.79517 0.48031 0.8903 0.0
H4336 H 0.7858 0.52051 0.8447 0.0
H4337 H 0.76448 0.52282 0.8989 0.0
C4338 C 0.74752 0.54068 0.88939 0.0
C4339 C 0.74097 0.5483 0.8751 0.0
C4340 C 0.78775 0.51159 0.85464 0.0
C4341 C 0.7653 0.52434 0.87174 0.0
C4342 C 0.80015 0.49994 0.8529 0.0
C4343 C 0.80307 0.48838 0.86567 0.0
C4344 C 0.77836 0.51187 0.86938 0.0
C4345 C 0.79323 0.48888 0.88006 0.0
C4346 C 0.75954 0.52856 0.88775 0.0
C4347 C 0.74688 0.54351 0.85936 0.0
N4348 N 0.78142 0.50048 0.88158 0.0
N4349 N 0.75875 0.53199 0.85811 0.0
H4350 H 0.77216 0.53255 0.10925 0.0
H4351 H 0.68674 0.50135 0.14981 0.0
H4352 H 0.73544 0.56575 0.12717 0.0
H4353 H 0.71146 0.47112 0.1137 0.0
H4354 H 0.70745 0.52388 0.14546 0.0
H4355 H 0.75261 0.50865 0.11387 0.0
C4356 C 0.76001 0.5348 0.11407 0.0
C4357 C 0.7554 0.55113 0.1178 0.0
C4358 C 0.70845 0.51226 0.13858 0.0
C4359 C 0.73327 0.52403 0.12348 0.0
C4360 C 0.69671 0.49934 0.14119 0.0
C4361 C 0.69745 0.48432 0.13216 0.0
C4362 C 0.72118 0.5101 0.12704 0.0
C4363 C 0.71051 0.4825 0.12095 0.0
C4364 C 0.74889 0.52121 0.11672 0.0
C4365 C 0.73952 0.55338 0.12407 0.0
N4366 N 0.7219 0.49523 0.11872 0.0
N4367 N 0.72912 0.54003 0.12683 0.0
H4368 H 0.69969 0.48396 0.34464 0.0
H4369 H 0.76155 0.42613 0.39698 0.0
H4370 H 0.71089 0.49256 0.39689 0.0
H4371 H 0.75905 0.42736 0.34305 0.0
H4372 H 0.74108 0.44829 0.39791 0.0
H4373 H 0.71947 0.46139 0.3444 0.0
C4374 C 0.70635 0.48116 0.35607 0.0
C4375 C 0.70366 0.49038 0.37076 0.0
C4376 C 0.74502 0.44369 0.38588 0.0
C4377 C 0.72632 0.4641 0.37069 0.0
C4378 C 0.75668 0.43097 0.38535 0.0
C4379 C 0.7622 0.42486 0.36992 0.0
C4380 C 0.73861 0.45028 0.37086 0.0
C4381 C 0.75532 0.43168 0.35527 0.0
C4382 C 0.71766 0.46821 0.35594 0.0
C4383 C 0.71263 0.48596 0.38521 0.0
N4384 N 0.74399 0.44388 0.3561 0.0
N4385 N 0.72343 0.47318 0.38484 0.0
H4386 H 0.49666 0.33921 0.19215 0.0
H4387 H 0.54964 0.39755 0.25582 0.0
H4388 H 0.48439 0.39004 0.20335 0.0
H4389 H 0.5493 0.34369 0.25823 0.0
H4390 H 0.52755 0.39548 0.2345 0.0
H4391 H 0.51783 0.34083 0.21446 0.0
C4392 C 0.49829 0.35062 0.19943 0.0
C4393 C 0.48867 0.36445 0.196 0.0
C4394 C 0.53226 0.38413 0.23977 0.0
C4395 C 0.51304 0.36655 0.22122 0.0
C4396 C 0.54486 0.38532 0.25192 0.0
C4397 C 0.55119 0.37079 0.25889 0.0
C4398 C 0.52618 0.36829 0.23436 0.0
C4399 C 0.54465 0.35522 0.25329 0.0
C4400 C 0.51039 0.35157 0.21211 0.0
C4401 C 0.49145 0.37903 0.20566 0.0
N4402 N 0.5326 0.35437 0.24129 0.0
N4403 N 0.50343 0.37974 0.21771 0.0
H4404 H 0.1452 0.81006 0.01301 0.0
H4405 H 0.10198 0.74819 0.07901 0.0
H4406 H 0.09378 0.79484 0.00931 0.0
H4407 H 0.15443 0.75043 0.0708 0.0
H4408 H 0.09839 0.76739 0.05535 0.0
H4409 H 0.14862 0.79017 0.03595 0.0
C4410 C 0.13467 0.80238 0.01691 0.0
C4411 C 0.11922 0.80397 0.00918 0.0
C4412 C 0.11067 0.76362 0.05871 0.0
C4413 C 0.12295 0.78143 0.03562 0.0
C4414 C 0.11271 0.75273 0.07222 0.0
C4415 C 0.12851 0.74768 0.07677 0.0
C4416 C 0.12455 0.76967 0.04989 0.0
C4417 C 0.14203 0.75394 0.06762 0.0
C4418 C 0.13661 0.79106 0.03003 0.0
C4419 C 0.10594 0.79388 0.01486 0.0
N4420 N 0.13975 0.76466 0.05468 0.0
N4421 N 0.10807 0.78311 0.02782 0.0
H4422 H 0.34685 0.2583 0.5519 0.0
H4423 H 0.39316 0.2033 0.48474 0.0
H4424 H 0.3999 0.25773 0.55054 0.0
H4425 H 0.34445 0.18992 0.50234 0.0
H4426 H 0.39538 0.22556 0.506 0.0
H4427 H 0.34528 0.23568 0.53121 0.0
C4428 C 0.35822 0.25355 0.54709 0.0
C4429 C 0.37355 0.2601 0.55286 0.0
C4430 C 0.3842 0.21778 0.5052 0.0
C4431 C 0.37179 0.23408 0.52891 0.0
C4432 C 0.38285 0.20514 0.49298 0.0
C4433 C 0.36851 0.1948 0.49161 0.0
C4434 C 0.371 0.22038 0.51602 0.0
C4435 C 0.35567 0.19766 0.5028 0.0
C4436 C 0.35728 0.24052 0.53534 0.0
C4437 C 0.38783 0.25317 0.54636 0.0
N4438 N 0.35716 0.21023 0.51442 0.0
N4439 N 0.38661 0.24066 0.53461 0.0
H4440 H 0.19996 0.49592 0.40742 0.0
H4441 H 0.24955 0.55767 0.34506 0.0
H4442 H 0.18509 0.5027 0.35601 0.0
H4443 H 0.25377 0.56251 0.39871 0.0
H4444 H 0.22722 0.5365 0.34859 0.0
H4445 H 0.22077 0.51879 0.40438 0.0
C4446 C 0.20105 0.5022 0.39546 0.0
C4447 C 0.19069 0.4972 0.38194 0.0
C4448 C 0.23296 0.54218 0.35963 0.0
C4449 C 0.21485 0.52357 0.37829 0.0
C4450 C 0.2458 0.55429 0.35763 0.0
C4451 C 0.25373 0.56193 0.37159 0.0
C4452 C 0.22804 0.53723 0.37578 0.0
C4453 C 0.24812 0.55702 0.38755 0.0
C4454 C 0.21295 0.51534 0.39375 0.0
C4455 C 0.19275 0.50599 0.36679 0.0
N4456 N 0.23582 0.54492 0.38919 0.0
N4457 N 0.2046 0.51855 0.36535 0.0
H4458 H 0.19033 0.50169 0.16161 0.0
H4459 H 0.24647 0.44938 0.10006 0.0
H4460 H 0.19402 0.51189 0.10874 0.0
H4461 H 0.25695 0.45382 0.15299 0.0
H4462 H 0.22504 0.47011 0.10303 0.0
H4463 H 0.21271 0.48179 0.15895 0.0
C4464 C 0.19591 0.49983 0.14951 0.0
C4465 C 0.19041 0.50856 0.13543 0.0
C4466 C 0.23213 0.46663 0.11397 0.0
C4467 C 0.21566 0.48566 0.13219 0.0
C4468 C 0.24437 0.45484 0.11225 0.0
C4469 C 0.2536 0.45 0.12626 0.0
C4470 C 0.22889 0.47341 0.12986 0.0
C4471 C 0.25022 0.45731 0.14183 0.0
C4472 C 0.20864 0.48849 0.14797 0.0
C4473 C 0.19796 0.50555 0.11997 0.0
N4474 N 0.23807 0.46854 0.14325 0.0
N4475 N 0.21006 0.4943 0.11875 0.0
H4476 H 0.2576 0.43107 0.86029 0.0
H4477 H 0.28559 0.52458 0.88675 0.0
H4478 H 0.22813 0.46179 0.8918 0.0
H4479 H 0.30757 0.49784 0.84618 0.0
H4480 H 0.26527 0.50141 0.88998 0.0
H4481 H 0.277 0.45483 0.85639 0.0
C4482 C 0.25526 0.44282 0.86647 0.0
C4483 C 0.24122 0.44447 0.87638 0.0
C4484 C 0.27441 0.50068 0.88024 0.0
C4485 C 0.26346 0.47179 0.87202 0.0
C4486 C 0.28598 0.51394 0.87834 0.0
C4487 C 0.29819 0.51322 0.86606 0.0
C4488 C 0.27513 0.48648 0.86989 0.0
C4489 C 0.29827 0.499 0.8557 0.0
C4490 C 0.26631 0.45642 0.86417 0.0
C4491 C 0.23877 0.46001 0.88401 0.0
N4492 N 0.287 0.48617 0.85791 0.0
N4493 N 0.24982 0.47305 0.88174 0.0
H4494 H 0.23309 0.57309 0.60445 0.0
H4495 H 0.2953 0.51541 0.65642 0.0
H4496 H 0.23651 0.57271 0.65835 0.0
H4497 H 0.28071 0.50417 0.60545 0.0
H4498 H 0.27644 0.5388 0.65644 0.0
H4499 H 0.25323 0.5506 0.60352 0.0
C4500 C 0.23817 0.56844 0.61607 0.0
C4501 C 0.23294 0.5748 0.63152 0.0
C4502 C 0.27729 0.53121 0.64524 0.0
C4503 C 0.25612 0.54902 0.63056 0.0
C4504 C 0.28807 0.51778 0.64524 0.0
C4505 C 0.28952 0.50758 0.63099 0.0
C4506 C 0.26796 0.5348 0.63078 0.0
C4507 C 0.2799 0.51152 0.61682 0.0
C4508 C 0.2496 0.5555 0.61554 0.0
C4509 C 0.24001 0.56817 0.64614 0.0
N4510 N 0.26965 0.52477 0.61704 0.0
N4511 N 0.25115 0.55578 0.6453 0.0
H4512 H 0.04721 0.1469 0.43848 0.0
H4513 H 0.08573 0.09211 0.51037 0.0
H4514 H 0.06296 0.09651 0.43075 0.0
H4515 H 0.07486 0.14428 0.51485 0.0
H4516 H 0.07016 0.09069 0.48392 0.0
H4517 H 0.05092 0.14356 0.46845 0.0
C4518 C 0.05156 0.13512 0.44313 0.0
C4519 C 0.05512 0.12206 0.43217 0.0
C4520 C 0.0707 0.1023 0.49097 0.0
C4521 C 0.05938 0.11811 0.46657 0.0
C4522 C 0.07936 0.10304 0.50617 0.0
C4523 C 0.08166 0.11841 0.51453 0.0
C4524 C 0.06436 0.11701 0.48436 0.0
C4525 C 0.07344 0.13227 0.50858 0.0
C4526 C 0.05353 0.13316 0.46028 0.0
C4527 C 0.06037 0.10695 0.43886 0.0
N4528 N 0.06537 0.13133 0.49366 0.0
N4529 N 0.06257 0.10544 0.45571 0.0
H4530 H 0.14362 0.8302 0.77231 0.0
H4531 H 0.10459 0.76948 0.70242 0.0
H4532 H 0.09335 0.81087 0.7715 0.0
H4533 H 0.14327 0.80619 0.69185 0.0
H4534 H 0.10665 0.7767 0.73203 0.0
H4535 H 0.14916 0.81367 0.7472 0.0
C4536 C 0.13397 0.82184 0.76729 0.0
C4537 C 0.11801 0.82171 0.77392 0.0
C4538 C 0.11483 0.78305 0.72328 0.0
C4539 C 0.12424 0.80305 0.74541 0.0
C4540 C 0.11363 0.77901 0.70641 0.0
C4541 C 0.1235 0.7876 0.69475 0.0
C4542 C 0.12582 0.79592 0.72852 0.0
C4543 C 0.13532 0.79949 0.70054 0.0
C4544 C 0.13711 0.81263 0.75289 0.0
C4545 C 0.1058 0.81116 0.76675 0.0
N4546 N 0.13596 0.80358 0.71712 0.0
N4547 N 0.10916 0.80228 0.75277 0.0
H4548 H 0.42544 0.90438 0.9936 0.0
H4549 H 0.48191 0.86468 0.92338 0.0
H4550 H 0.4374 0.85232 0.99228 0.0
H4551 H 0.45494 0.90915 0.91377 0.0
H4552 H 0.46831 0.86172 0.9504 0.0
H4553 H 0.43912 0.90836 0.96639 0.0
C4554 C 0.43136 0.89392 0.98782 0.0
C4555 C 0.43059 0.87806 0.99537 0.0
C4556 C 0.46527 0.87211 0.94242 0.0
C4557 C 0.44597 0.88245 0.9642 0.0
C4558 C 0.47304 0.87381 0.92698 0.0
C4559 C 0.46956 0.8872 0.91636 0.0
C4560 C 0.45405 0.88403 0.94753 0.0
C4561 C 0.45793 0.89865 0.92162 0.0
C4562 C 0.43891 0.89613 0.97219 0.0
C4563 C 0.43792 0.8648 0.98704 0.0
N4564 N 0.45067 0.89689 0.93693 0.0
N4565 N 0.44535 0.86731 0.97201 0.0
H4566 H 0.35333 0.17038 0.26837 0.0
H4567 H 0.35277 0.16627 0.17114 0.0
H4568 H 0.39675 0.15998 0.23974 0.0
H4569 H 0.32865 0.20769 0.19405 0.0
H4570 H 0.36426 0.15909 0.19846 0.0
H4571 H 0.34089 0.18224 0.24315 0.0
C4572 C 0.36047 0.17104 0.25698 0.0
C4573 C 0.3759 0.16365 0.25601 0.0
C4574 C 0.3563 0.16965 0.19749 0.0
C4575 C 0.36154 0.17657 0.22738 0.0
C4576 C 0.34953 0.17356 0.18201 0.0
C4577 C 0.33993 0.18766 0.18043 0.0
C4578 C 0.35319 0.17975 0.21142 0.0
C4579 C 0.3361 0.19675 0.19487 0.0
C4580 C 0.35327 0.17767 0.24262 0.0
C4581 C 0.38465 0.1651 0.241 0.0
N4582 N 0.34285 0.19268 0.2099 0.0
N4583 N 0.37713 0.17093 0.2271 0.0
H4584 H 0.03402 0.92581 0.06049 0.0
H4585 H 0.06601 0.84805 0.01124 0.0
H4586 H 0.06912 0.89142 0.08009 0.0
H4587 H 0.06491 0.89541 0.98545 0.0
H4588 H 0.05594 0.86161 0.03636 0.0
H4589 H 0.03735 0.91356 0.03239 0.0
C4590 C 0.04272 0.916 0.05877 0.0
C4591 C 0.0514 0.90963 0.0725 0.0
C4592 C 0.05755 0.86889 0.02503 0.0
C4593 C 0.05437 0.89511 0.04107 0.0
C4594 C 0.0631 0.86115 0.01065 0.0
C4595 C 0.06695 0.87077 0.99649 0.0
C4596 C 0.05564 0.88623 0.02507 0.0
C4597 C 0.06251 0.88762 0.99628 0.0
C4598 C 0.0444 0.90892 0.04288 0.0
C4599 C 0.06233 0.89678 0.06979 0.0
N4600 N 0.05745 0.89501 0.0106 0.0
N4601 N 0.06327 0.88971 0.05441 0.0
H4602 H 0.34744 0.8118 0.249 0.0
H4603 H 0.40051 0.78798 0.3296 0.0
H4604 H 0.40006 0.80612 0.24991 0.0
H4605 H 0.34774 0.77955 0.32883 0.0
H4606 H 0.39945 0.79663 0.30054 0.0
H4607 H 0.34604 0.80032 0.27761 0.0
C4608 C 0.35859 0.80755 0.25494 0.0
C4609 C 0.3739 0.80982 0.247 0.0
C4610 C 0.38803 0.7929 0.3066 0.0
C4611 C 0.37246 0.79737 0.27984 0.0
C4612 C 0.38862 0.78805 0.32329 0.0
C4613 C 0.37422 0.78289 0.33162 0.0
C4614 C 0.37288 0.79269 0.29793 0.0
C4615 C 0.35914 0.78344 0.32284 0.0
C4616 C 0.35781 0.80126 0.27136 0.0
C4617 C 0.388 0.80456 0.25549 0.0
N4618 N 0.35884 0.78821 0.30638 0.0
N4619 N 0.38696 0.7988 0.27143 0.0
H4620 H 0.45462 0.1567 0.55338 0.0
H4621 H 0.41045 0.10367 0.48095 0.0
H4622 H 0.4339 0.1068 0.56038 0.0
H4623 H 0.42579 0.15566 0.47749 0.0
H4624 H 0.42634 0.10153 0.50706 0.0
H4625 H 0.45058 0.15367 0.52337 0.0
C4626 C 0.44912 0.14509 0.54856 0.0
C4627 C 0.44426 0.13208 0.55932 0.0
C4628 C 0.42672 0.11324 0.50027 0.0
C4629 C 0.43962 0.1285 0.52489 0.0
C4630 C 0.41789 0.11439 0.48525 0.0
C4631 C 0.4168 0.12993 0.47732 0.0
C4632 C 0.43443 0.12773 0.50713 0.0
C4633 C 0.42633 0.14353 0.48342 0.0
C4634 C 0.44696 0.14331 0.53139 0.0
C4635 C 0.43753 0.1172 0.55242 0.0
N4636 N 0.43454 0.1422 0.49817 0.0
N4637 N 0.43518 0.11587 0.53556 0.0
H4638 H 0.15275 0.16257 0.73281 0.0
H4639 H 0.11659 0.1595 0.82081 0.0
H4640 H 0.10034 0.1632 0.74115 0.0
H4641 H 0.15849 0.1935 0.81413 0.0
H4642 H 0.11336 0.15743 0.79048 0.0
H4643 H 0.15756 0.17393 0.76104 0.0
C4644 C 0.14224 0.1659 0.74021 0.0
C4645 C 0.12611 0.16142 0.73493 0.0
C4646 C 0.12327 0.16535 0.79567 0.0
C4647 C 0.13158 0.17374 0.76707 0.0
C4648 C 0.12529 0.16629 0.81293 0.0
C4649 C 0.13776 0.17674 0.81989 0.0
C4650 C 0.13394 0.17471 0.78531 0.0
C4651 C 0.14872 0.18531 0.80913 0.0
C4652 C 0.14503 0.17217 0.75639 0.0
C4653 C 0.11297 0.16605 0.74498 0.0
N4654 N 0.14659 0.18408 0.79223 0.0
N4655 N 0.11599 0.17141 0.76086 0.0
H4656 H 0.47515 0.06932 0.15097 0.0
H4657 H 0.3932 0.04301 0.0981 0.0
H4658 H 0.47185 0.07343 0.09731 0.0
H4659 H 0.39673 0.04202 0.15194 0.0
H4660 H 0.4221 0.05353 0.09708 0.0
H4661 H 0.44713 0.05682 0.1512 0.0
C4662 C 0.46881 0.06679 0.13917 0.0
C4663 C 0.47598 0.07191 0.12406 0.0
C4664 C 0.41646 0.05128 0.10913 0.0
C4665 C 0.44352 0.05857 0.1242 0.0
C4666 C 0.39988 0.04558 0.10969 0.0
C4667 C 0.3925 0.04206 0.12514 0.0
C4668 C 0.42567 0.05329 0.12413 0.0
C4669 C 0.40191 0.04492 0.13979 0.0
C4670 C 0.45265 0.06003 0.1393 0.0
C4671 C 0.46689 0.06919 0.10917 0.0
N4672 N 0.41795 0.05029 0.13894 0.0
N4673 N 0.4511 0.06285 0.1096 0.0
H4674 H 0.19015 0.25938 0.34553 0.0
H4675 H 0.16126 0.17254 0.37467 0.0
H4676 H 0.19801 0.24079 0.39556 0.0
H4677 H 0.1953 0.17006 0.33371 0.0
H4678 H 0.1656 0.20293 0.37536 0.0
H4679 H 0.18772 0.23055 0.33522 0.0
C4680 C 0.19232 0.24933 0.35425 0.0
C4681 C 0.19335 0.2524 0.37164 0.0
C4682 C 0.17171 0.19572 0.36589 0.0
C4683 C 0.19028 0.21988 0.35994 0.0
C4684 C 0.16901 0.17851 0.36529 0.0
C4685 C 0.17821 0.16898 0.35436 0.0
C4686 C 0.18375 0.20318 0.35559 0.0
C4687 C 0.18812 0.17717 0.3424 0.0
C4688 C 0.19057 0.2329 0.34833 0.0
C4689 C 0.19657 0.23892 0.38217 0.0
N4690 N 0.19111 0.19396 0.34364 0.0
N4691 N 0.19411 0.22312 0.37629 0.0
H4692 H 0.06443 0.95027 0.60275 0.0
H4693 H 5e-05 0.90562 0.6585 0.0
H4694 H 0.07347 0.90306 0.6266 0.0
H4695 H 0.98284 0.91487 0.60803 0.0
H4696 H 0.02771 0.91465 0.65024 0.0
H4697 H 0.0346 0.94482 0.60608 0.0
C4698 C 0.0601 0.93861 0.60832 0.0
C4699 C 0.07127 0.92718 0.61473 0.0
C4700 C 0.01774 0.915 0.64112 0.0
C4701 C 0.03777 0.92133 0.61892 0.0
C4702 C 0.00193 0.91006 0.64583 0.0
C4703 C 0.98923 0.90901 0.6338 0.0
C4704 C 0.02074 0.91926 0.62443 0.0
C4705 C 0.99238 0.91523 0.61763 0.0
C4706 C 0.04319 0.93559 0.61021 0.0
C4707 C 0.0652 0.91223 0.6217 0.0
N4708 N 0.00802 0.91989 0.61325 0.0
N4709 N 0.04878 0.9099 0.62401 0.0
H4710 H 0.34094 0.76215 0.8448 0.0
H4711 H 0.31473 0.8443 0.89525 0.0
H4712 H 0.34733 0.76906 0.89814 0.0
H4713 H 0.29884 0.83429 0.84446 0.0
H4714 H 0.32872 0.8176 0.89558 0.0
H4715 H 0.32673 0.78884 0.84354 0.0
C4716 C 0.33913 0.76909 0.85628 0.0
C4717 C 0.3454 0.76325 0.8716 0.0
C4718 C 0.32241 0.82131 0.88423 0.0
C4719 C 0.32942 0.79405 0.87019 0.0
C4720 C 0.31461 0.83668 0.884 0.0
C4721 C 0.30591 0.84166 0.86969 0.0
C4722 C 0.32168 0.81082 0.87 0.0
C4723 C 0.30563 0.831 0.85565 0.0
C4724 C 0.33113 0.78441 0.85553 0.0
C4725 C 0.34284 0.773 0.88601 0.0
N4726 N 0.31344 0.81614 0.85611 0.0
N4727 N 0.33519 0.78784 0.88492 0.0
H4728 H 0.42714 0.93235 0.34504 0.0
H4729 H 0.50149 0.90012 0.40024 0.0
H4730 H 0.42568 0.93115 0.39903 0.0
H4731 H 0.50235 0.90625 0.34659 0.0
H4732 H 0.47561 0.91502 0.40108 0.0
H4733 H 0.45581 0.92466 0.34609 0.0
C4734 C 0.43295 0.93044 0.35715 0.0
C4735 C 0.42417 0.93229 0.37196 0.0
C4736 C 0.48168 0.91346 0.38919 0.0
C4737 C 0.45709 0.92381 0.37336 0.0
C4738 C 0.49653 0.90516 0.38873 0.0
C4739 C 0.50378 0.90177 0.37327 0.0
C4740 C 0.47425 0.91829 0.37407 0.0
C4741 C 0.49692 0.90841 0.35871 0.0
C4742 C 0.44935 0.92618 0.35778 0.0
C4743 C 0.43212 0.92962 0.38734 0.0
N4744 N 0.48239 0.91613 0.35944 0.0
N4745 N 0.44824 0.92549 0.38767 0.0
H4746 H 0.33225 0.17993 0.64171 0.0
H4747 H 0.31563 0.26077 0.59621 0.0
H4748 H 0.28212 0.18718 0.62555 0.0
H4749 H 0.33988 0.2648 0.64443 0.0
H4750 H 0.30418 0.23307 0.60424 0.0
H4751 H 0.33747 0.21043 0.64062 0.0
C4752 C 0.32234 0.18796 0.63815 0.0
C4753 C 0.30679 0.18116 0.63364 0.0
C4754 C 0.31162 0.24029 0.6132 0.0
C4755 C 0.31271 0.21559 0.63202 0.0
C4756 C 0.31801 0.25605 0.60868 0.0
C4757 C 0.32834 0.26509 0.61985 0.0
C4758 C 0.31631 0.23337 0.6286 0.0
C4759 C 0.3316 0.2583 0.63568 0.0
C4760 C 0.32528 0.20527 0.63761 0.0
C4761 C 0.29429 0.19201 0.6291 0.0
N4762 N 0.32597 0.24259 0.63945 0.0
N4763 N 0.29762 0.20872 0.62803 0.0
H4764 H 0.08145 0.05455 0.90527 0.0
H4765 H 0.00086 0.04373 0.84767 0.0
H4766 H 0.07933 0.0554 0.85122 0.0
H4767 H -0.00176 0.06156 0.89853 0.0
H4768 H 0.02981 0.03775 0.85229 0.0
H4769 H 0.05116 0.05039 0.90563 0.0
C4770 C 0.07461 0.0541 0.89354 0.0
C4771 C 0.08285 0.05543 0.87819 0.0
C4772 C 0.02279 0.04252 0.86262 0.0
C4773 C 0.04869 0.04983 0.87851 0.0
C4774 C 0.00619 0.04556 0.86008 0.0
C4775 C -0.00266 0.0534 0.87263 0.0
C4776 C 0.03054 0.04761 0.87772 0.0
C4777 C 0.00477 0.0556 0.8885 0.0
C4778 C 0.05744 0.05147 0.89375 0.0
C4779 C 0.0735 0.05453 0.86334 0.0
N4780 N 0.0212 0.05328 0.89048 0.0
N4781 N 0.05698 0.05166 0.86388 0.0
H4782 H 0.21412 0.83868 0.1485 0.0
H4783 H 0.15677 0.77383 0.09717 0.0
H4784 H 0.18076 0.8529 0.10923 0.0
H4785 H 0.17254 0.76238 0.14739 0.0
H4786 H 0.16957 0.80176 0.09999 0.0
H4787 H 0.20138 0.81036 0.14821 0.0
C4788 C 0.20356 0.83604 0.14038 0.0
C4789 C 0.19808 0.84831 0.12928 0.0
C4790 C 0.17051 0.7931 0.11033 0.0
C4791 C 0.18426 0.81564 0.12803 0.0
C4792 C 0.16352 0.77701 0.1086 0.0
C4793 C 0.16386 0.76565 0.12195 0.0
C4794 C 0.17799 0.79802 0.12557 0.0
C4795 C 0.17236 0.77062 0.13666 0.0
C4796 C 0.19652 0.81979 0.14001 0.0
C4797 C 0.18497 0.84399 0.11838 0.0
N4798 N 0.17905 0.7865 0.13813 0.0
N4799 N 0.17868 0.82796 0.11785 0.0
H4800 H 0.09656 0.42631 0.0828 0.0
H4801 H 0.1434 0.51352 0.07604 0.0
H4802 H 0.13574 0.43745 0.048 0.0
H4803 H 0.09782 0.50702 0.10278 0.0
H4804 H 0.13754 0.487 0.06156 0.0
H4805 H 0.09393 0.45654 0.08752 0.0
C4806 C 0.10451 0.43513 0.07615 0.0
C4807 C 0.11672 0.42952 0.06546 0.0
C4808 C 0.12857 0.4915 0.07028 0.0
C4809 C 0.1136 0.46371 0.07034 0.0
C4810 C 0.1319 0.50667 0.07839 0.0
C4811 C 0.12106 0.5122 0.09046 0.0
C4812 C 0.11469 0.48158 0.07495 0.0
C4813 C 0.10638 0.50298 0.09339 0.0
C4814 C 0.10293 0.45231 0.07867 0.0
C4815 C 0.12653 0.44129 0.05679 0.0
N4816 N 0.10379 0.48781 0.08599 0.0
N4817 N 0.12483 0.45781 0.05952 0.0
H4818 H 0.66025 0.01183 0.92616 0.0
H4819 H 0.5812 0.05554 0.95487 0.0
H4820 H 0.61552 0.982 0.91859 0.0
H4821 H 0.61497 0.07513 0.91778 0.0
H4822 H 0.59291 0.02768 0.95126 0.0
H4823 H 0.64393 0.03464 0.93664 0.0
C4824 C 0.64707 0.00976 0.92765 0.0
C4825 C 0.63916 0.99515 0.92152 0.0
C4826 C 0.59744 0.0381 0.94377 0.0
C4827 C 0.62052 0.02123 0.93272 0.0
C4828 C 0.5907 0.05387 0.94564 0.0
C4829 C 0.59735 0.06763 0.93675 0.0
C4830 C 0.611 0.03646 0.93327 0.0
C4831 C 0.60965 0.0649 0.92501 0.0
C4832 C 0.63777 0.02284 0.93331 0.0
C4833 C 0.622 0.99312 0.92337 0.0
N4834 N 0.61635 0.04969 0.92389 0.0
N4835 N 0.61307 0.0063 0.92838 0.0
H4836 H 0.25425 0.35532 0.1563 0.0
H4837 H 0.18663 0.39881 0.21195 0.0
H4838 H 0.26169 0.40271 0.18157 0.0
H4839 H 0.17513 0.3581 0.17771 0.0
H4840 H 0.21578 0.39647 0.20577 0.0
H4841 H 0.22722 0.35184 0.16958 0.0
C4842 C 0.25051 0.36458 0.16532 0.0
C4843 C 0.26015 0.37925 0.16807 0.0
C4844 C 0.20692 0.38803 0.19958 0.0
C4845 C 0.22928 0.37566 0.18278 0.0
C4846 C 0.19026 0.38944 0.20301 0.0
C4847 C 0.17849 0.37882 0.19509 0.0
C4848 C 0.21187 0.37596 0.18807 0.0
C4849 C 0.18387 0.36667 0.18389 0.0
C4850 C 0.23499 0.36274 0.17263 0.0
C4851 C 0.25461 0.39117 0.17933 0.0
N4852 N 0.20022 0.36563 0.18059 0.0
N4853 N 0.23944 0.3892 0.18616 0.0
H4854 H 0.86271 0.9368 0.41017 0.0
H4855 H 0.88932 0.03051 0.41689 0.0
H4856 H 0.90002 0.94924 0.44754 0.0
H4857 H 0.83827 0.01324 0.41579 0.0
H4858 H 0.89715 0.00246 0.42554 0.0
H4859 H 0.8584 0.96659 0.40617 0.0
C4860 C 0.87025 0.94583 0.41725 0.0
C4861 C 0.88153 0.94066 0.42936 0.0
C4862 C 0.88423 0.00506 0.42383 0.0
C4863 C 0.87642 0.97452 0.42513 0.0
C4864 C 0.87968 0.02109 0.41912 0.0
C4865 C 0.86311 0.0241 0.41515 0.0
C4866 C 0.87212 0.99217 0.42433 0.0
C4867 C 0.85122 0.01139 0.41831 0.0
C4868 C 0.86762 0.96275 0.41515 0.0
C4869 C 0.89112 0.95284 0.43814 0.0
N4870 N 0.856 0.99582 0.4222 0.0
N4871 N 0.88825 0.96936 0.43597 0.0
H4872 H 0.81744 0.11745 0.16441 0.0
H4873 H 0.73251 0.14954 0.16934 0.0
H4874 H 0.81094 0.14863 0.20792 0.0
H4875 H 0.73837 0.09624 0.16873 0.0
H4876 H 0.75988 0.15321 0.18255 0.0
H4877 H 0.78741 0.11362 0.16193 0.0
C4878 C 0.80967 0.12366 0.17327 0.0
C4879 C 0.81654 0.13334 0.18637 0.0
C4880 C 0.7548 0.14069 0.18023 0.0
C4881 C 0.78252 0.12891 0.18371 0.0
C4882 C 0.73916 0.13858 0.17294 0.0
C4883 C 0.7333 0.12257 0.16811 0.0
C4884 C 0.76459 0.12672 0.18201 0.0
C4885 C 0.74249 0.10875 0.17248 0.0
C4886 C 0.79265 0.12128 0.17202 0.0
C4887 C 0.80599 0.14107 0.19764 0.0
N4888 N 0.75803 0.11116 0.17862 0.0
N4889 N 0.78936 0.13882 0.19599 0.0
H4890 H 0.37353 0.58276 0.57813 0.0
H4891 H 0.37202 0.48436 0.57356 0.0
H4892 H 0.3965 0.55949 0.53593 0.0
H4893 H 0.32992 0.51255 0.5878 0.0
H4894 H 0.38516 0.51027 0.56271 0.0
H4895 H 0.36272 0.55527 0.58692 0.0
C4896 C 0.37662 0.57181 0.57094 0.0
C4897 C 0.38577 0.57335 0.55622 0.0
C4898 C 0.37293 0.51059 0.56796 0.0
C4899 C 0.37334 0.54202 0.56607 0.0
C4900 C 0.36531 0.49582 0.57394 0.0
C4901 C 0.34986 0.49629 0.58171 0.0
C4902 C 0.36511 0.52581 0.5701 0.0
C4903 C 0.34189 0.51158 0.58207 0.0
C4904 C 0.37029 0.55619 0.57583 0.0
C4905 C 0.38938 0.55876 0.54732 0.0
N4906 N 0.34974 0.52577 0.5767 0.0
N4907 N 0.38308 0.54361 0.55235 0.0
H4908 H 0.19125 0.66114 0.28294 0.0
H4909 H 0.23327 0.59487 0.33672 0.0
H4910 H 0.17404 0.64774 0.33223 0.0
H4911 H 0.26533 0.638 0.32787 0.0
H4912 H 0.21058 0.6093 0.32344 0.0
H4913 H 0.21823 0.64958 0.29001 0.0
C4914 C 0.1933 0.6562 0.29538 0.0
C4915 C 0.18042 0.65531 0.30705 0.0
C4916 C 0.22272 0.61538 0.32395 0.0
C4917 C 0.21071 0.64177 0.31481 0.0
C4918 C 0.23568 0.60712 0.33132 0.0
C4919 C 0.25109 0.61534 0.33343 0.0
C4920 C 0.22521 0.63191 0.31861 0.0
C4921 C 0.2536 0.63126 0.32634 0.0
C4922 C 0.2086 0.64958 0.29931 0.0
C4923 C 0.18361 0.64867 0.3229 0.0
N4924 N 0.2406 0.63928 0.31946 0.0
N4925 N 0.19834 0.64181 0.32619 0.0
H4926 H 0.30695 0.39873 0.82452 0.0
H4927 H 0.22487 0.35053 0.83829 0.0
H4928 H 0.3036 0.3484 0.8048 0.0
H4929 H 0.2282 0.40269 0.82464 0.0
H4930 H 0.25225 0.3468 0.82649 0.0
H4931 H 0.27735 0.39785 0.82849 0.0
C4932 C 0.29992 0.38741 0.82116 0.0
C4933 C 0.30753 0.37372 0.81411 0.0
C4934 C 0.24665 0.35886 0.82548 0.0
C4935 C 0.27366 0.37278 0.81818 0.0
C4936 C 0.23097 0.361 0.83203 0.0
C4937 C 0.22457 0.3771 0.83282 0.0
C4938 C 0.25568 0.37295 0.81986 0.0
C4939 C 0.23293 0.39019 0.8246 0.0
C4940 C 0.28303 0.387 0.8232 0.0
C4941 C 0.29799 0.35921 0.81024 0.0
N4942 N 0.24831 0.38794 0.81885 0.0
N4943 N 0.28134 0.35909 0.81228 0.0
H4944 H 0.9185 0.85435 0.48631 0.0
H4945 H 0.93395 0.90421 0.5722 0.0
H4946 H 0.90799 0.90649 0.49186 0.0
H4947 H 0.93615 0.85076 0.56578 0.0
H4948 H 0.92939 0.90699 0.54178 0.0
H4949 H 0.93197 0.85497 0.51375 0.0
C4950 C 0.91969 0.86612 0.49306 0.0
C4951 C 0.91216 0.88037 0.48692 0.0
C4952 C 0.93091 0.89468 0.54708 0.0
C4953 C 0.92665 0.881 0.51871 0.0
C4954 C 0.93332 0.89309 0.5644 0.0
C4955 C 0.93526 0.87722 0.57143 0.0
C4956 C 0.93047 0.8803 0.53688 0.0
C4957 C 0.93466 0.86322 0.56084 0.0
C4958 C 0.9271 0.86643 0.50886 0.0
C4959 C 0.9138 0.89528 0.49619 0.0
N4960 N 0.93228 0.86509 0.54414 0.0
N4961 N 0.92053 0.89513 0.51188 0.0
H4962 H 0.89827 0.21986 0.29958 0.0
H4963 H 0.85099 0.16569 0.22935 0.0
H4964 H 0.8503 0.19619 0.30696 0.0
H4965 H 0.90142 0.18406 0.22641 0.0
H4966 H 0.84752 0.18264 0.25465 0.0
H4967 H 0.89683 0.21204 0.27019 0.0
C4968 C 0.88738 0.21303 0.29495 0.0
C4969 C 0.87445 0.20848 0.30566 0.0
C4970 C 0.85917 0.18339 0.24815 0.0
C4971 C 0.8727 0.19946 0.27197 0.0
C4972 C 0.86107 0.17395 0.23361 0.0
C4973 C 0.87651 0.17363 0.22595 0.0
C4974 C 0.87283 0.19251 0.25483 0.0
C4975 C 0.88934 0.18409 0.23206 0.0
C4976 C 0.88652 0.20863 0.27814 0.0
C4977 C 0.86058 0.19976 0.29904 0.0
N4978 N 0.88728 0.19297 0.2463 0.0
N4979 N 0.86011 0.19536 0.28256 0.0
H4980 H 0.56402 0.09354 0.9994 0.0
H4981 H 0.53809 0.13167 0.08761 0.0
H4982 H 0.56254 0.14637 0.0102 0.0
H4983 H 0.51942 0.08302 0.07164 0.0
H4984 H 0.55149 0.13534 0.0605 0.0
H4985 H 0.55071 0.0877 0.02651 0.0
C4986 C 0.56054 0.10389 0.00723 0.0
C4987 C 0.56438 0.12048 0.00246 0.0
C4988 C 0.5447 0.12372 0.06298 0.0
C4989 C 0.54973 0.11387 0.03361 0.0
C4990 C 0.53725 0.12154 0.07855 0.0
C4991 C 0.52783 0.10692 0.0819 0.0
C4992 C 0.54291 0.11113 0.05068 0.0
C4993 C 0.52673 0.09439 0.06953 0.0
C4994 C 0.55313 0.10055 0.02276 0.0
C4995 C 0.55991 0.13339 0.01333 0.0
N4996 N 0.53421 0.09674 0.05444 0.0
N4997 N 0.55301 0.12981 0.02837 0.0
H4998 H 0.66021 0.78589 0.80579 0.0
H4999 H 0.59784 0.84143 0.75876 0.0
H5000 H 0.64049 0.83046 0.82732 0.0
H5001 H 0.64195 0.82949 0.73192 0.0
H5002 H 0.60905 0.82841 0.7836 0.0
H5003 H 0.65085 0.795 0.77792 0.0
C5004 C 0.65423 0.79773 0.80458 0.0
C5005 C 0.65091 0.80741 0.81877 0.0
C5006 C 0.61608 0.82835 0.77212 0.0
C5007 C 0.63986 0.81735 0.7875 0.0
C5008 C 0.60963 0.83557 0.75784 0.0
C5009 C 0.61918 0.83695 0.74332 0.0
C5010 C 0.63194 0.82209 0.77176 0.0
C5011 C 0.63434 0.82896 0.74297 0.0
C5012 C 0.64887 0.8028 0.78879 0.0
C5013 C 0.64315 0.8226 0.81667 0.0
N5014 N 0.64043 0.822 0.75716 0.0
N5015 N 0.63757 0.82697 0.80131 0.0
H5016 H 0.96022 0.07345 0.94204 0.0
H5017 H 0.93051 0.15254 0.99168 0.0
H5018 H 0.92968 0.11152 0.92139 0.0
H5019 H 0.93024 0.10452 0.01627 0.0
H5020 H 0.94101 0.13947 0.96647 0.0
H5021 H 0.95679 0.08573 0.97013 0.0
C5022 C 0.95252 0.08413 0.94352 0.0
C5023 C 0.94508 0.09144 0.92954 0.0
C5024 C 0.93903 0.13192 0.97756 0.0
C5025 C 0.94212 0.10597 0.96097 0.0
C5026 C 0.93328 0.13938 0.992 0.0
C5027 C 0.92894 0.12946 0.00581 0.0
C5028 C 0.94063 0.11453 0.97713 0.0
C5029 C 0.9331 0.11255 0.00572 0.0
C5030 C 0.95079 0.09122 0.95939 0.0
C5031 C 0.93543 0.1054 0.93191 0.0
N5032 N 0.93834 0.10544 0.99134 0.0
N5033 N 0.93445 0.1124 0.94732 0.0
H5034 H 0.59673 0.19046 0.74743 0.0
H5035 H 0.65062 0.22245 0.67218 0.0
H5036 H 0.64897 0.18252 0.75114 0.0
H5037 H 0.60362 0.19605 0.66693 0.0
H5038 H 0.65212 0.2131 0.7017 0.0
H5039 H 0.60043 0.20029 0.71892 0.0
C5040 C 0.60909 0.19124 0.74242 0.0
C5041 C 0.62253 0.18548 0.75166 0.0
C5042 C 0.64172 0.20909 0.69388 0.0
C5043 C 0.62679 0.19657 0.7188 0.0
C5044 C 0.64093 0.21426 0.67708 0.0
C5045 C 0.62689 0.21006 0.66729 0.0
C5046 C 0.62827 0.19998 0.70067 0.0
C5047 C 0.61454 0.19967 0.67418 0.0
C5048 C 0.61115 0.19666 0.72606 0.0
C5049 C 0.63828 0.18688 0.74446 0.0
N5050 N 0.61539 0.1952 0.69049 0.0
N5051 N 0.64 0.19215 0.72828 0.0
H5052 H 0.57951 0.894 0.51963 0.0
H5053 H 0.57003 0.84814 0.43521 0.0
H5054 H 0.57134 0.84047 0.51619 0.0
H5055 H 0.54611 0.89525 0.44007 0.0
H5056 H 0.57352 0.84726 0.46553 0.0
H5057 H 0.56729 0.8968 0.49167 0.0
C5058 C 0.57442 0.88291 0.51337 0.0
C5059 C 0.57687 0.8669 0.51993 0.0
C5060 C 0.56748 0.85778 0.45995 0.0
C5061 C 0.5635 0.87004 0.48808 0.0
C5062 C 0.56575 0.85843 0.44267 0.0
C5063 C 0.55774 0.87176 0.43527 0.0
C5064 C 0.5614 0.87069 0.46983 0.0
C5065 C 0.55234 0.88476 0.44546 0.0
C5066 C 0.56763 0.88453 0.49734 0.0
C5067 C 0.57005 0.85298 0.51132 0.0
N5068 N 0.55435 0.88397 0.46237 0.0
N5069 N 0.56413 0.85482 0.49556 0.0
H5070 H 0.87694 0.7924 0.19167 0.0
H5071 H 0.83367 0.85032 0.25818 0.0
H5072 H 0.84428 0.8317 0.17819 0.0
H5073 H 0.88205 0.83068 0.26494 0.0
H5074 H 0.83053 0.83444 0.23189 0.0
H5075 H 0.87201 0.7981 0.22126 0.0
C5076 C 0.86862 0.80215 0.19496 0.0
C5077 C 0.86126 0.81188 0.18257 0.0
C5078 C 0.84157 0.83318 0.23946 0.0
C5079 C 0.85535 0.81815 0.21624 0.0
C5080 C 0.84328 0.84202 0.25451 0.0
C5081 C 0.85817 0.84177 0.26353 0.0
C5082 C 0.85477 0.82394 0.23373 0.0
C5083 C 0.87042 0.83115 0.2582 0.0
C5084 C 0.86575 0.8053 0.2118 0.0
C5085 C 0.8504 0.82417 0.18744 0.0
N5086 N 0.86853 0.82277 0.24348 0.0
N5087 N 0.84785 0.82708 0.20399 0.0
H5088 H 0.51602 0.93949 0.8892 0.0
H5089 H 0.61103 0.93381 0.86581 0.0
H5090 H 0.53457 0.90863 0.84975 0.0
H5091 H 0.59319 0.98021 0.88473 0.0
H5092 H 0.58268 0.92218 0.86519 0.0
H5093 H 0.54356 0.95383 0.89147 0.0
C5094 C 0.52569 0.93611 0.88071 0.0
C5095 C 0.52304 0.92287 0.86927 0.0
C5096 C 0.58495 0.93484 0.86973 0.0
C5097 C 0.55447 0.93849 0.87232 0.0
C5098 C 0.60116 0.94135 0.87032 0.0
C5099 C 0.60442 0.9578 0.87565 0.0
C5100 C 0.57185 0.94488 0.87446 0.0
C5101 C 0.59112 0.9673 0.88086 0.0
C5102 C 0.54142 0.94409 0.88216 0.0
C5103 C 0.53609 0.91871 0.8588 0.0
N5104 N 0.57536 0.96072 0.88014 0.0
N5105 N 0.55121 0.92627 0.86075 0.0
H5106 H 0.81812 0.81912 0.60621 0.0
H5107 H 0.80431 0.73676 0.6518 0.0
H5108 H 0.80028 0.82371 0.6567 0.0
H5109 H 0.78776 0.74444 0.60107 0.0
H5110 H 0.80264 0.7667 0.65716 0.0
H5111 H 0.81142 0.78919 0.60698 0.0
C5112 C 0.81316 0.8137 0.61761 0.0
C5113 C 0.80946 0.82378 0.63129 0.0
C5114 C 0.79864 0.7617 0.64509 0.0
C5115 C 0.80119 0.78991 0.63202 0.0
C5116 C 0.79923 0.74453 0.64206 0.0
C5117 C 0.79735 0.73847 0.62555 0.0
C5118 C 0.79556 0.77228 0.63158 0.0
C5119 C 0.79016 0.74889 0.61372 0.0
C5120 C 0.80901 0.79676 0.61792 0.0
C5121 C 0.8032 0.81622 0.64587 0.0
N5122 N 0.79041 0.76559 0.61664 0.0
N5123 N 0.79905 0.79958 0.64585 0.0
H5124 H 0.92279 0.0765 0.34658 0.0
H5125 H 0.0066 0.09155 0.39572 0.0
H5126 H 0.92526 0.07431 0.40055 0.0
H5127 H 0.0026 0.08222 0.34257 0.0
H5128 H 0.97797 0.08157 0.3989 0.0
H5129 H 0.95266 0.07729 0.34564 0.0
C5130 C 0.9297 0.07638 0.35827 0.0
C5131 C 0.92166 0.07547 0.37366 0.0
C5132 C 0.98352 0.08118 0.38663 0.0
C5133 C 0.95592 0.07595 0.37272 0.0
C5134 C -7e-05 0.08662 0.38484 0.0
C5135 C 0.00671 0.08799 0.36878 0.0
C5136 C 0.97409 0.0772 0.37223 0.0
C5137 C -0.00238 0.08159 0.3551 0.0
C5138 C 0.94676 0.07658 0.35774 0.0
C5139 C 0.93112 0.07526 0.38845 0.0
N5140 N 0.98161 0.07681 0.35707 0.0
N5141 N 0.94786 0.07553 0.38764 0.0
H5142 H 0.64455 0.23168 0.15708 0.0
H5143 H 0.6952 0.16629 0.10301 0.0
H5144 H 0.6551 0.23742 0.10456 0.0
H5145 H 0.67729 0.15474 0.15236 0.0
H5146 H 0.68181 0.19317 0.10418 0.0
H5147 H 0.65838 0.20474 0.1568 0.0
C5148 C 0.65014 0.22749 0.14561 0.0
C5149 C 0.64878 0.23688 0.13084 0.0
C5150 C 0.68053 0.18472 0.1147 0.0
C5151 C 0.66432 0.20596 0.13034 0.0
C5152 C 0.68805 0.16929 0.11394 0.0
C5153 C 0.68701 0.15815 0.12744 0.0
C5154 C 0.672 0.18925 0.12917 0.0
C5155 C 0.67806 0.16286 0.14155 0.0
C5156 C 0.65782 0.212 0.14539 0.0
C5157 C 0.65589 0.23063 0.11624 0.0
N5158 N 0.67093 0.17809 0.14208 0.0
N5159 N 0.66331 0.21564 0.11636 0.0
H5160 H 0.49212 0.09119 0.65018 0.0
H5161 H 0.56165 0.05532 0.59175 0.0
H5162 H 0.48858 0.09601 0.59645 0.0
H5163 H 0.56971 0.07817 0.64028 0.0
H5164 H 0.53217 0.062 0.59333 0.0
H5165 H 0.51724 0.07565 0.64686 0.0
C5166 C 0.49639 0.08853 0.63766 0.0
C5167 C 0.48857 0.09517 0.6236 0.0
C5168 C 0.54047 0.06546 0.60359 0.0
C5169 C 0.51738 0.0779 0.61976 0.0
C5170 C 0.55718 0.06183 0.60263 0.0
C5171 C 0.56799 0.06659 0.61576 0.0
C5172 C 0.53466 0.07321 0.61808 0.0
C5173 C 0.56177 0.0747 0.62975 0.0
C5174 C 0.51076 0.07981 0.63578 0.0
C5175 C 0.49441 0.09119 0.60762 0.0
N5176 N 0.54547 0.07763 0.6306 0.0
N5177 N 0.50879 0.0831 0.6061 0.0
H5178 H 0.66061 0.81942 0.38754 0.0
H5179 H 0.66442 0.72891 0.35522 0.0
H5180 H 0.6984 0.81134 0.35105 0.0
H5181 H 0.66645 0.74046 0.4081 0.0
H5182 H 0.67371 0.75785 0.34924 0.0
H5183 H 0.65658 0.78908 0.39035 0.0
C5184 C 0.66777 0.81124 0.37986 0.0
C5185 C 0.67993 0.81773 0.36919 0.0
C5186 C 0.67257 0.75379 0.36213 0.0
C5187 C 0.67549 0.78334 0.37239 0.0
C5188 C 0.66751 0.73727 0.36558 0.0
C5189 C 0.66441 0.73243 0.3822 0.0
C5190 C 0.67421 0.76528 0.37538 0.0
C5191 C 0.66843 0.7438 0.39512 0.0
C5192 C 0.66563 0.79402 0.38161 0.0
C5193 C 0.68898 0.80665 0.35952 0.0
N5194 N 0.67265 0.75988 0.39143 0.0
N5195 N 0.6866 0.78985 0.36133 0.0
H5196 H 0.90888 0.9339 0.14477 0.0
H5197 H 0.99279 0.93513 0.09823 0.0
H5198 H 0.90882 0.94421 0.09175 0.0
H5199 H 0.98744 0.95219 0.14911 0.0
H5200 H 0.96314 0.93818 0.09363 0.0
H5201 H 0.93885 0.93694 0.14519 0.0
C5202 C 0.91524 0.93651 0.13314 0.0
C5203 C 0.90643 0.93893 0.11824 0.0
C5204 C 0.9686 0.94182 0.1056 0.0
C5205 C 0.94066 0.94293 0.11871 0.0
C5206 C 0.98557 0.94041 0.10815 0.0
C5207 C 0.99243 0.94303 0.12422 0.0
C5208 C 0.95871 0.9458 0.11926 0.0
C5209 C 0.98252 0.94975 0.13664 0.0
C5210 C 0.9323 0.93854 0.13344 0.0
C5211 C 0.91525 0.94222 0.10349 0.0
N5212 N 0.96603 0.95038 0.13408 0.0
N5213 N 0.93199 0.94421 0.10407 0.0
H5214 H 0.81411 0.23857 0.89346 0.0
H5215 H 0.80238 0.14542 0.85538 0.0
H5216 H 0.83561 0.22342 0.84696 0.0
H5217 H 0.78065 0.16204 0.90132 0.0
H5218 H 0.8137 0.17415 0.85102 0.0
H5219 H 0.79949 0.21123 0.89502 0.0
C5220 C 0.81514 0.22976 0.8832 0.0
C5221 C 0.82579 0.23335 0.8699 0.0
C5222 C 0.80649 0.17144 0.86208 0.0
C5223 C 0.80982 0.20171 0.87192 0.0
C5224 C 0.80021 0.15502 0.86462 0.0
C5225 C 0.79065 0.15133 0.87875 0.0
C5226 C 0.80322 0.18414 0.8738 0.0
C5227 C 0.78793 0.16432 0.89021 0.0
C5228 C 0.80708 0.214 0.88423 0.0
C5229 C 0.82727 0.22119 0.85729 0.0
N5230 N 0.79416 0.18004 0.88752 0.0
N5231 N 0.81954 0.20588 0.85868 0.0
H5232 H 0.85791 0.56223 0.95474 0.0
H5233 H 0.89843 0.48942 0.90313 0.0
H5234 H 0.89807 0.57105 0.92051 0.0
H5235 H 0.84846 0.48819 0.921 0.0
H5236 H 0.90356 0.51626 0.91759 0.0
H5237 H 0.85985 0.53228 0.95035 0.0
C5238 C 0.86712 0.55783 0.94621 0.0
C5239 C 0.87753 0.56906 0.93753 0.0
C5240 C 0.89166 0.50983 0.91875 0.0
C5241 C 0.87982 0.53482 0.93255 0.0
C5242 C 0.88877 0.49448 0.9107 0.0
C5243 C 0.87297 0.48679 0.91092 0.0
C5244 C 0.87869 0.5172 0.92718 0.0
C5245 C 0.86076 0.49387 0.92056 0.0
C5246 C 0.8683 0.54074 0.94384 0.0
C5247 C 0.88961 0.56271 0.92711 0.0
N5248 N 0.86384 0.50881 0.92822 0.0
N5249 N 0.89027 0.5459 0.92467 0.0
H5250 H 0.39024 0.92697 0.08274 0.0
H5251 H 0.38004 0.02018 0.07998 0.0
H5252 H 0.40898 0.9464 0.03601 0.0
H5253 H 0.3379 0.98587 0.07887 0.0
H5254 H 0.39676 0.9983 0.06751 0.0
H5255 H 0.37839 0.95407 0.08843 0.0
C5256 C 0.3923 0.93709 0.07393 0.0
C5257 C 0.40037 0.93445 0.05881 0.0
C5258 C 0.38368 0.99591 0.06936 0.0
C5259 C 0.38674 0.96517 0.06513 0.0
C5260 C 0.3741 0.0084 0.07622 0.0
C5261 C 0.35765 0.00467 0.08051 0.0
C5262 C 0.37659 0.97982 0.06707 0.0
C5263 C 0.35057 0.98914 0.07577 0.0
C5264 C 0.38543 0.95243 0.07711 0.0
C5265 C 0.40274 0.94801 0.0478 0.0
N5266 N 0.36022 0.97707 0.06978 0.0
N5267 N 0.39566 0.96286 0.05103 0.0
H5268 H 0.73992 0.64238 0.83964 0.0
H5269 H 0.81319 0.59817 0.79258 0.0
H5270 H 0.73844 0.59095 0.82324 0.0
H5271 H 0.82012 0.64515 0.81889 0.0
H5272 H 0.78399 0.598 0.799 0.0
H5273 H 0.76715 0.64639 0.82679 0.0
C5274 C 0.74503 0.63216 0.83268 0.0
C5275 C 0.73696 0.61635 0.83229 0.0
C5276 C 0.79183 0.60838 0.8034 0.0
C5277 C 0.76807 0.62068 0.81807 0.0
C5278 C 0.80855 0.60845 0.79981 0.0
C5279 C 0.8191 0.6216 0.80541 0.0
C5280 C 0.78552 0.62152 0.81276 0.0
C5281 C 0.81237 0.6347 0.81451 0.0
C5282 C 0.76066 0.63437 0.82563 0.0
C5283 C 0.74426 0.60335 0.82365 0.0
N5284 N 0.79595 0.6343 0.81801 0.0
N5285 N 0.75946 0.60577 0.81698 0.0
H5286 H 0.10695 0.05938 0.58341 0.0
H5287 H 0.14844 0.97589 0.5693 0.0
H5288 H 0.12139 0.04613 0.53335 0.0
H5289 H 0.10578 0.97699 0.6009 0.0
H5290 H 0.13984 0.00192 0.55598 0.0
H5291 H 0.10731 0.02964 0.59113 0.0
C5292 C 0.10995 0.05019 0.57403 0.0
C5293 C 0.11431 0.05513 0.55781 0.0
C5294 C 0.13213 0.99617 0.56551 0.0
C5295 C 0.11504 0.02148 0.56653 0.0
C5296 C 0.137 0.98134 0.57299 0.0
C5297 C 0.12761 0.97427 0.5859 0.0
C5298 C 0.11828 0.00421 0.57161 0.0
C5299 C 0.11311 0.98197 0.59069 0.0
C5300 C 0.11009 0.03329 0.57838 0.0
C5301 C 0.11808 0.04279 0.54604 0.0
N5302 N 0.10907 0.9968 0.58382 0.0
N5303 N 0.1187 0.02654 0.55072 0.0
H5304 H 0.2567 0.90239 0.82765 0.0
H5305 H 0.18474 0.83842 0.79916 0.0
H5306 H 0.26344 0.84942 0.83201 0.0
H5307 H 0.17884 0.88281 0.82905 0.0
H5308 H 0.21494 0.84328 0.8007 0.0
H5309 H 0.22962 0.89653 0.81473 0.0
C5310 C 0.25289 0.88953 0.82489 0.0
C5311 C 0.26215 0.87634 0.83082 0.0
C5312 C 0.20693 0.85189 0.80684 0.0
C5313 C 0.23123 0.8696 0.81681 0.0
C5314 C 0.18985 0.84905 0.80617 0.0
C5315 C 0.17947 0.8601 0.81426 0.0
C5316 C 0.21341 0.8662 0.81509 0.0
C5317 C 0.18649 0.87384 0.82294 0.0
C5318 C 0.23736 0.8862 0.81785 0.0
C5319 C 0.25656 0.85987 0.82745 0.0
N5320 N 0.20306 0.87661 0.82299 0.0
N5321 N 0.24118 0.85689 0.82098 0.0
H5322 H 0.58544 0.43038 0.42869 0.0
H5323 H 0.66289 0.4923 0.42192 0.0
H5324 H 0.63236 0.42073 0.45179 0.0
H5325 H 0.61332 0.50928 0.41589 0.0
H5326 H 0.65179 0.46635 0.43408 0.0
H5327 H 0.59509 0.45954 0.4237 0.0
C5328 C 0.59774 0.43447 0.43265 0.0
C5329 C 0.60837 0.42327 0.44016 0.0
C5330 C 0.64334 0.4759 0.43045 0.0
C5331 C 0.61923 0.45623 0.43512 0.0
C5332 C 0.6497 0.49074 0.42365 0.0
C5333 C 0.63901 0.50287 0.41794 0.0
C5334 C 0.62617 0.47303 0.43106 0.0
C5335 C 0.62199 0.50024 0.42028 0.0
C5336 C 0.60318 0.45105 0.43001 0.0
C5337 C 0.62406 0.42901 0.44546 0.0
N5338 N 0.61603 0.48539 0.42631 0.0
N5339 N 0.62907 0.44509 0.44275 0.0
H5340 H 0.76162 0.40774 0.6609 0.0
H5341 H 0.80263 0.33719 0.71262 0.0
H5342 H 0.72989 0.36491 0.67187 0.0
H5343 H 0.82261 0.35688 0.66655 0.0
H5344 H 0.77613 0.34993 0.70577 0.0
H5345 H 0.78485 0.39342 0.67326 0.0
C5346 C 0.75941 0.39561 0.66663 0.0
C5347 C 0.74387 0.38746 0.66534 0.0
C5348 C 0.78629 0.35115 0.69711 0.0
C5349 C 0.77043 0.37091 0.6791 0.0
C5350 C 0.80131 0.34383 0.70089 0.0
C5351 C 0.81481 0.346 0.69009 0.0
C5352 C 0.78505 0.36103 0.68272 0.0
C5353 C 0.81254 0.35486 0.67519 0.0
C5354 C 0.7727 0.38737 0.67341 0.0
C5355 C 0.74168 0.37164 0.67279 0.0
N5356 N 0.79806 0.36232 0.67211 0.0
N5357 N 0.75496 0.36367 0.67915 0.0
H5358 H 0.76157 0.59061 0.16967 0.0
H5359 H 0.69787 0.64625 0.21078 0.0
H5360 H 0.77543 0.64323 0.16759 0.0
H5361 H 0.68674 0.6169 0.16635 0.0
H5362 H 0.72752 0.64432 0.20492 0.0
H5363 H 0.73519 0.59787 0.18157 0.0
C5364 C 0.75939 0.60363 0.17238 0.0
C5365 C 0.77044 0.61635 0.16709 0.0
C5366 C 0.71848 0.63859 0.1964 0.0
C5367 C 0.74049 0.62458 0.18059 0.0
C5368 C 0.70169 0.63971 0.19964 0.0
C5369 C 0.69002 0.63149 0.18911 0.0
C5370 C 0.72332 0.6288 0.1829 0.0
C5371 C 0.69541 0.62328 0.1748 0.0
C5372 C 0.7443 0.60773 0.17897 0.0
C5373 C 0.76709 0.63303 0.17118 0.0
N5374 N 0.71176 0.62178 0.17231 0.0
N5375 N 0.75209 0.63677 0.17732 0.0
H5376 H 0.58336 0.59071 0.01141 0.0
H5377 H 0.58198 0.63127 0.92474 0.0
H5378 H 0.58154 0.64423 0.00555 0.0
H5379 H 0.54363 0.59331 0.93211 0.0
H5380 H 0.5877 0.63125 0.95489 0.0
H5381 H 0.57148 0.58711 0.98309 0.0
C5382 C 0.57975 0.60164 0.0045 0.0
C5383 C 0.58369 0.61781 0.01057 0.0
C5384 C 0.57813 0.62283 0.94981 0.0
C5385 C 0.57093 0.61377 0.97844 0.0
C5386 C 0.57503 0.62268 0.93267 0.0
C5387 C 0.56223 0.61241 0.92611 0.0
C5388 C 0.56856 0.61245 0.9603 0.0
C5389 C 0.55353 0.60149 0.93687 0.0
C5390 C 0.5732 0.59957 0.98833 0.0
C5391 C 0.57894 0.63158 0.00112 0.0
N5392 N 0.55683 0.60178 0.9536 0.0
N5393 N 0.57327 0.62927 0.98526 0.0
H5394 H 0.59439 0.31258 0.27574 0.0
H5395 H 0.64503 0.30573 0.19301 0.0
H5396 H 0.64307 0.33521 0.27097 0.0
H5397 H 0.60171 0.27518 0.20428 0.0
H5398 H 0.64721 0.31372 0.2228 0.0
H5399 H 0.59956 0.29483 0.2516 0.0
C5400 C 0.60639 0.31331 0.26989 0.0
C5401 C 0.61836 0.32514 0.27523 0.0
C5402 C 0.63743 0.30501 0.21876 0.0
C5403 C 0.62408 0.30581 0.24709 0.0
C5404 C 0.63616 0.30056 0.20181 0.0
C5405 C 0.62295 0.29016 0.19628 0.0
C5406 C 0.6254 0.29891 0.23 0.0
C5407 C 0.61185 0.28358 0.20803 0.0
C5408 C 0.60934 0.30333 0.25603 0.0
C5409 C 0.63364 0.32598 0.26719 0.0
N5410 N 0.61323 0.2882 0.2243 0.0
N5411 N 0.63595 0.31674 0.25317 0.0
H5412 H 0.94857 0.37804 0.40704 0.0
H5413 H 0.94439 0.39868 0.50485 0.0
H5414 H 0.99162 0.39791 0.43326 0.0
H5415 H 0.92138 0.35442 0.48235 0.0
H5416 H 0.9583 0.40457 0.47802 0.0
H5417 H 0.93394 0.37627 0.4339 0.0
C5418 C 0.9547 0.38264 0.41836 0.0
C5419 C 0.9712 0.38836 0.41798 0.0
C5420 C 0.95024 0.39355 0.47911 0.0
C5421 C 0.95472 0.38621 0.44863 0.0
C5422 C 0.94241 0.39011 0.49443 0.0
C5423 C 0.93185 0.3759 0.49604 0.0
C5424 C 0.94703 0.38303 0.46521 0.0
C5425 C 0.92956 0.3654 0.48192 0.0
C5426 C 0.94646 0.38141 0.43368 0.0
C5427 C 0.97881 0.39364 0.43308 0.0
N5428 N 0.9369 0.36928 0.46714 0.0
N5429 N 0.97052 0.39247 0.44781 0.0
H5430 H 0.82652 0.70465 0.69349 0.0
H5431 H 0.89899 0.65848 0.73892 0.0
H5432 H 0.85742 0.66914 0.66938 0.0
H5433 H 0.85449 0.66885 0.7658 0.0
H5434 H 0.88683 0.6702 0.71376 0.0
H5435 H 0.83838 0.6969 0.72073 0.0
C5436 C 0.83551 0.69496 0.69401 0.0
C5437 C 0.84106 0.68748 0.67929 0.0
C5438 C 0.87986 0.67011 0.72526 0.0
C5439 C 0.85504 0.6793 0.70991 0.0
C5440 C 0.88685 0.66364 0.73969 0.0
C5441 C 0.87753 0.66222 0.75434 0.0
C5442 C 0.8636 0.67539 0.72561 0.0
C5443 C 0.86199 0.66942 0.75466 0.0
C5444 C 0.84235 0.69072 0.70945 0.0
C5445 C 0.85279 0.67513 0.68048 0.0
N5446 N 0.85533 0.67548 0.74034 0.0
N5447 N 0.85961 0.6716 0.69555 0.0
H5448 H 0.56749 0.41889 0.57506 0.0
H5449 H 0.55771 0.35312 0.50772 0.0
H5450 H 0.51727 0.40527 0.5609 0.0
H5451 H 0.58238 0.39915 0.49238 0.0
H5452 H 0.54512 0.36848 0.53094 0.0
H5453 H 0.57653 0.40891 0.54755 0.0
C5454 C 0.55837 0.41425 0.566 0.0
C5455 C 0.54167 0.41282 0.57015 0.0
C5456 C 0.55306 0.37515 0.5222 0.0
C5457 C 0.55188 0.40095 0.53946 0.0
C5458 C 0.56015 0.36647 0.50908 0.0
C5459 C 0.57071 0.37504 0.49809 0.0
C5460 C 0.55726 0.39219 0.52456 0.0
C5461 C 0.57392 0.39226 0.50044 0.0
C5462 C 0.56352 0.40851 0.55047 0.0
C5463 C 0.53029 0.40654 0.55813 0.0
N5464 N 0.56748 0.40027 0.51369 0.0
N5465 N 0.53566 0.40038 0.54342 0.0
H5466 H 0.89698 0.29316 0.83186 0.0
H5467 H 0.84662 0.31144 0.74869 0.0
H5468 H 0.84577 0.27716 0.82824 0.0
H5469 H 0.89913 0.30486 0.75109 0.0
H5470 H 0.84436 0.30061 0.77745 0.0
H5471 H 0.89624 0.30153 0.80262 0.0
C5472 C 0.88549 0.29159 0.82489 0.0
C5473 C 0.87147 0.28433 0.8324 0.0
C5474 C 0.85629 0.30123 0.77148 0.0
C5475 C 0.87058 0.2936 0.79865 0.0
C5476 C 0.85758 0.30719 0.75499 0.0
C5477 C 0.87313 0.30917 0.74746 0.0
C5478 C 0.87067 0.29747 0.78045 0.0
C5479 C 0.88691 0.3037 0.75637 0.0
C5480 C 0.88511 0.29621 0.80814 0.0
C5481 C 0.85684 0.28275 0.82286 0.0
N5482 N 0.88539 0.2984 0.77242 0.0
N5483 N 0.85677 0.28727 0.80635 0.0
H5484 H 0.91401 0.60771 0.97817 0.0
H5485 H 0.92948 0.65522 0.06123 0.0
H5486 H 0.92386 0.66099 0.98105 0.0
H5487 H 0.94829 0.60557 0.05739 0.0
H5488 H 0.92511 0.65551 0.03114 0.0
H5489 H 0.92722 0.60461 0.00567 0.0
C5490 C 0.91976 0.61864 0.98417 0.0
C5491 C 0.9176 0.63471 0.97761 0.0
C5492 C 0.93037 0.64459 0.03679 0.0
C5493 C 0.93211 0.63127 0.00892 0.0
C5494 C 0.93266 0.64434 0.05397 0.0
C5495 C 0.9394 0.63044 0.06163 0.0
C5496 C 0.93481 0.63081 0.02715 0.0
C5497 C 0.94305 0.61651 0.05178 0.0
C5498 C 0.9271 0.61686 -7e-05 0.0
C5499 C 0.92509 0.64845 0.98587 0.0
N5500 N 0.94069 0.61701 0.03486 0.0
N5501 N 0.93165 0.64647 0.00135 0.0
H5502 H 0.65741 0.65648 0.23916 0.0
H5503 H 0.6049 0.67646 0.31689 0.0
H5504 H 0.60624 0.66894 0.23687 0.0
H5505 H 0.65803 0.68076 0.31974 0.0
H5506 H 0.6063 0.67558 0.2867 0.0
H5507 H 0.65975 0.66948 0.26693 0.0
C5508 C 0.64693 0.66283 0.24413 0.0
C5509 C 0.63151 0.66145 0.23607 0.0
C5510 C 0.61772 0.67683 0.29381 0.0
C5511 C 0.63392 0.67567 0.26768 0.0
C5512 C 0.61693 0.67705 0.3111 0.0
C5513 C 0.63139 0.67856 0.32075 0.0
C5514 C 0.63312 0.6778 0.286 0.0
C5515 C 0.64662 0.67937 0.31263 0.0
C5516 C 0.64821 0.67002 0.26006 0.0
C5517 C 0.61826 0.66963 0.24293 0.0
N5518 N 0.64713 0.67884 0.29559 0.0
N5519 N 0.61965 0.67607 0.25859 0.0
H5520 H 0.88759 0.54663 0.59975 0.0
H5521 H 0.97573 0.56459 0.64489 0.0
H5522 H 0.89923 0.53293 0.65056 0.0
H5523 H 0.96508 0.58019 0.59449 0.0
H5524 H 0.94832 0.55082 0.64617 0.0
H5525 H 0.91602 0.55823 0.59681 0.0
C5526 C 0.896 0.54645 0.61037 0.0
C5527 C 0.89106 0.53898 0.62546 0.0
C5528 C 0.95208 0.55686 0.63463 0.0
C5529 C 0.92356 0.55177 0.62215 0.0
C5530 C 0.96788 0.56441 0.63381 0.0
C5531 C 0.97282 0.57306 0.61938 0.0
C5532 C 0.94106 0.5581 0.62095 0.0
C5533 C 0.96184 0.57325 0.60568 0.0
C5534 C 0.91227 0.55284 0.60865 0.0
C5535 C 0.90255 0.53862 0.63872 0.0
N5536 N 0.94645 0.56598 0.60681 0.0
N5537 N 0.91819 0.54489 0.63676 0.0
H5538 H 0.67312 0.67839 0.84438 0.0
H5539 H 0.70674 0.75412 0.89149 0.0
H5540 H 0.7158 0.67648 0.87687 0.0
H5541 H 0.68126 0.75979 0.84434 0.0
H5542 H 0.71585 0.72701 0.88219 0.0
H5543 H 0.67916 0.70853 0.84034 0.0
C5544 C 0.68381 0.68432 0.85047 0.0
C5545 C 0.69355 0.67535 0.86155 0.0
C5546 C 0.70879 0.73439 0.87353 0.0
C5547 C 0.70085 0.70918 0.85668 0.0
C5548 C 0.70381 0.74998 0.87882 0.0
C5549 C 0.693 0.75885 0.8688 0.0
C5550 C 0.70214 0.7275 0.85857 0.0
C5551 C 0.68945 0.75306 0.8525 0.0
C5552 C 0.68742 0.70137 0.84801 0.0
C5553 C 0.70756 0.68326 0.86882 0.0
N5554 N 0.69335 0.7373 0.84812 0.0
N5555 N 0.71067 0.69978 0.86646 0.0
H5556 H 0.56411 0.4496 0.13677 0.0
H5557 H 0.49069 0.39212 0.10083 0.0
H5558 H 0.57084 0.40803 0.10324 0.0
H5559 H 0.48767 0.4253 0.14327 0.0
H5560 H 0.51804 0.40418 0.09462 0.0
H5561 H 0.53454 0.44715 0.13188 0.0
C5562 C 0.55927 0.43983 0.12845 0.0
C5563 C 0.5697 0.42853 0.12089 0.0
C5564 C 0.51117 0.40923 0.10492 0.0
C5565 C 0.53595 0.42563 0.11532 0.0
C5566 C 0.49557 0.40249 0.10839 0.0
C5567 C 0.48717 0.40785 0.12257 0.0
C5568 C 0.5182 0.42141 0.11572 0.0
C5569 C 0.49394 0.42091 0.13227 0.0
C5570 C 0.54244 0.43857 0.12553 0.0
C5571 C 0.56301 0.41664 0.10962 0.0
N5572 N 0.50922 0.4272 0.12874 0.0
N5573 N 0.54639 0.41522 0.10744 0.0
H5574 H 0.81391 0.34664 0.3564 0.0
H5575 H 0.83711 0.25939 0.39778 0.0
H5576 H 0.79178 0.32595 0.40099 0.0
H5577 H 0.84684 0.26891 0.34565 0.0
H5578 H 0.82199 0.28512 0.39923 0.0
H5579 H 0.828 0.31991 0.3522 0.0
C5580 C 0.81212 0.33659 0.36533 0.0
C5581 C 0.80172 0.33857 0.37913 0.0
C5582 C 0.82721 0.28156 0.38736 0.0
C5583 C 0.81765 0.30818 0.37444 0.0
C5584 C 0.83577 0.26678 0.38652 0.0
C5585 C 0.84303 0.26184 0.37153 0.0
C5586 C 0.82609 0.29188 0.37318 0.0
C5587 C 0.84113 0.2721 0.35738 0.0
C5588 C 0.82002 0.32132 0.36286 0.0
C5589 C 0.79967 0.32507 0.39019 0.0
N5590 N 0.833 0.28676 0.35858 0.0
N5591 N 0.80757 0.31062 0.38766 0.0
H5592 H 0.92463 0.42012 0.89872 0.0
H5593 H 0.00443 0.40983 0.85017 0.0
H5594 H 0.93888 0.45631 0.8611 0.0
H5595 H 0.00364 0.39898 0.90308 0.0
H5596 H 0.98085 0.4277 0.85382 0.0
H5597 H 0.95351 0.41201 0.90092 0.0
C5598 C 0.93387 0.42644 0.89108 0.0
C5599 C 0.92943 0.43863 0.8795 0.0
C5600 C 0.98613 0.42176 0.8647 0.0
C5601 C 0.96213 0.4295 0.88188 0.0
C5602 C -0.00045 0.4116 0.86262 0.0
C5603 C 0.00579 0.40287 0.87631 0.0
C5604 C 0.97863 0.4226 0.88045 0.0
C5605 C -0.00089 0.40553 0.8922 0.0
C5606 C 0.9503 0.42195 0.89244 0.0
C5607 C 0.94181 0.44664 0.87 0.0
N5608 N 0.98551 0.4148 0.89378 0.0
N5609 N 0.95758 0.4417 0.87115 0.0
H5610 H 0.83492 0.67719 0.13881 0.0
H5611 H 0.81828 0.76241 0.10211 0.0
H5612 H 0.78456 0.68746 0.12568 0.0
H5613 H 0.84624 0.76097 0.14827 0.0
H5614 H 0.80624 0.73452 0.10845 0.0
H5615 H 0.8411 0.70753 0.14039 0.0
C5616 C 0.82519 0.68583 0.13644 0.0
C5617 C 0.8093 0.67997 0.13198 0.0
C5618 C 0.81466 0.74057 0.11738 0.0
C5619 C 0.81622 0.71418 0.13352 0.0
C5620 C 0.82141 0.75641 0.11381 0.0
C5621 C 0.83298 0.76388 0.12483 0.0
C5622 C 0.82022 0.73206 0.1316 0.0
C5623 C 0.83708 0.75559 0.13967 0.0
C5624 C 0.82865 0.70302 0.13746 0.0
C5625 C 0.79701 0.69156 0.12907 0.0
N5626 N 0.83104 0.73983 0.14244 0.0
N5627 N 0.8008 0.70819 0.12954 0.0
H5628 H 0.58238 0.55242 0.4089 0.0
H5629 H 0.50503 0.54543 0.34663 0.0
H5630 H 0.58321 0.56101 0.35557 0.0
H5631 H 0.49866 0.5616 0.39766 0.0
H5632 H 0.53418 0.54156 0.3526 0.0
H5633 H 0.55198 0.54959 0.40734 0.0
C5634 C 0.57616 0.55407 0.39697 0.0
C5635 C 0.58526 0.55694 0.38231 0.0
C5636 C 0.52631 0.54552 0.36263 0.0
C5637 C 0.55097 0.55292 0.38038 0.0
C5638 C 0.50962 0.54736 0.35932 0.0
C5639 C 0.49952 0.55403 0.37159 0.0
C5640 C 0.53292 0.55042 0.3783 0.0
C5641 C 0.50609 0.55645 0.38784 0.0
C5642 C 0.55892 0.55221 0.39607 0.0
C5643 C 0.57668 0.55873 0.36715 0.0
N5644 N 0.52257 0.55509 0.39065 0.0
N5645 N 0.56007 0.5565 0.36656 0.0
H5646 H 0.69888 0.34596 0.65719 0.0
H5647 H 0.67435 0.26304 0.60377 0.0
H5648 H 0.70037 0.34392 0.60333 0.0
H5649 H 0.66145 0.26953 0.65551 0.0
H5650 H 0.68787 0.29109 0.60415 0.0
H5651 H 0.68778 0.31694 0.65748 0.0
C5652 C 0.69651 0.33948 0.64542 0.0
C5653 C 0.7001 0.34743 0.63021 0.0
C5654 C 0.68241 0.28622 0.61554 0.0
C5655 C 0.68818 0.31398 0.63039 0.0
C5656 C 0.67501 0.27007 0.61541 0.0
C5657 C 0.66715 0.2638 0.62976 0.0
C5658 C 0.68195 0.29614 0.63014 0.0
C5659 C 0.66772 0.27376 0.6443 0.0
C5660 C 0.69037 0.32287 0.64557 0.0
C5661 C 0.69735 0.33832 0.6153 0.0
N5662 N 0.67489 0.2894 0.64411 0.0
N5663 N 0.69165 0.32208 0.61575 0.0
H5664 H 0.59937 0.01192 0.59098 0.0
H5665 H 0.64528 0.93469 0.55194 0.0
H5666 H 0.65113 0.01202 0.57954 0.0
H5667 H 0.59794 0.93018 0.57591 0.0
H5668 H 0.64475 0.96499 0.5549 0.0
H5669 H 0.59574 0.98441 0.57746 0.0
C5670 C 0.60979 0.00649 0.58488 0.0
C5671 C 0.62559 0.01407 0.58634 0.0
C5672 C 0.63445 0.9574 0.5595 0.0
C5673 C 0.62166 0.9827 0.5714 0.0
C5674 C 0.6348 0.9401 0.55795 0.0
C5675 C 0.62179 0.92995 0.56405 0.0
C5676 C 0.62102 0.96465 0.56729 0.0
C5677 C 0.60835 0.93761 0.57135 0.0
C5678 C 0.60778 0.99071 0.57744 0.0
C5679 C 0.63878 0.00647 0.57862 0.0
N5680 N 0.60836 0.95457 0.57292 0.0
N5681 N 0.63657 0.99106 0.57167 0.0
H5682 H 0.15877 0.50907 0.43045 0.0
H5683 H 0.0873 0.56381 0.42561 0.0
H5684 H 0.11342 0.48276 0.41659 0.0
H5685 H 0.10823 0.55944 0.47526 0.0
H5686 H 0.09814 0.53621 0.41855 0.0
H5687 H 0.14273 0.53008 0.44503 0.0
C5688 C 0.14549 0.50738 0.43108 0.0
C5689 C 0.13737 0.49412 0.42256 0.0
C5690 C 0.09996 0.54124 0.43108 0.0
C5691 C 0.11911 0.51848 0.43798 0.0
C5692 C 0.09384 0.55689 0.43507 0.0
C5693 C 0.09682 0.56376 0.45103 0.0
C5694 C 0.10961 0.53294 0.44294 0.0
C5695 C 0.10553 0.55445 0.46286 0.0
C5696 C 0.13637 0.5194 0.43918 0.0
C5697 C 0.12009 0.49272 0.4232 0.0
N5698 N 0.11204 0.5397 0.45844 0.0
N5699 N 0.11144 0.5051 0.4303 0.0
H5700 H 0.7535 0.85153 0.65384 0.0
H5701 H 0.68634 0.89493 0.70981 0.0
H5702 H 0.75973 0.89961 0.67808 0.0
H5703 H 0.6741 0.85278 0.67754 0.0
H5704 H 0.71515 0.89245 0.7032 0.0
H5705 H 0.72678 0.84737 0.66773 0.0
C5706 C 0.74955 0.86087 0.66266 0.0
C5707 C 0.75872 0.87595 0.66491 0.0
C5708 C 0.70626 0.88366 0.69755 0.0
C5709 C 0.72828 0.87146 0.68041 0.0
C5710 C 0.68974 0.8851 0.70127 0.0
C5711 C 0.67779 0.8742 0.69399 0.0
C5712 C 0.71103 0.87131 0.68628 0.0
C5713 C 0.68297 0.86157 0.68321 0.0
C5714 C 0.73422 0.8586 0.67035 0.0
C5715 C 0.75298 0.88783 0.67609 0.0
N5716 N 0.69929 0.86056 0.67951 0.0
N5717 N 0.73806 0.88539 0.6833 0.0
H5718 H 0.38906 0.52548 0.90538 0.0
H5719 H 0.35211 0.45074 0.96074 0.0
H5720 H 0.34084 0.52467 0.92749 0.0
H5721 H 0.38942 0.44404 0.92343 0.0
H5722 H 0.35311 0.48068 0.95523 0.0
H5723 H 0.39452 0.49878 0.919 0.0
C5724 C 0.37996 0.52009 0.91381 0.0
C5725 C 0.36452 0.52726 0.91552 0.0
C5726 C 0.36113 0.47269 0.94828 0.0
C5727 C 0.37053 0.49678 0.93072 0.0
C5728 C 0.36051 0.4556 0.95133 0.0
C5729 C 0.37045 0.44492 0.94224 0.0
C5730 C 0.37172 0.47919 0.936 0.0
C5731 C 0.38139 0.4519 0.9305 0.0
C5732 C 0.38298 0.50475 0.92132 0.0
C5733 C 0.35292 0.51956 0.92605 0.0
N5734 N 0.38163 0.46867 0.92756 0.0
N5735 N 0.35611 0.50462 0.93317 0.0
H5736 H 0.31796 0.65465 0.67437 0.0
H5737 H 0.23289 0.60319 0.67805 0.0
H5738 H 0.3123 0.60168 0.68389 0.0
H5739 H 0.23782 0.65394 0.66053 0.0
H5740 H 0.26079 0.60562 0.68973 0.0
H5741 H 0.28802 0.65693 0.67617 0.0
C5742 C 0.31037 0.64347 0.67658 0.0
C5743 C 0.31749 0.6279 0.67865 0.0
C5744 C 0.25558 0.61647 0.6839 0.0
C5745 C 0.28347 0.63048 0.68129 0.0
C5746 C 0.23951 0.61519 0.6776 0.0
C5747 C 0.23333 0.62833 0.6682 0.0
C5748 C 0.26532 0.63093 0.68051 0.0
C5749 C 0.24238 0.64353 0.66766 0.0
C5750 C 0.29335 0.64482 0.6779 0.0
C5751 C 0.30722 0.61387 0.68194 0.0
N5752 N 0.25821 0.64429 0.67325 0.0
N5753 N 0.2907 0.61548 0.68309 0.0
H5754 H 0.87549 0.08251 0.08096 0.0
H5755 H 0.87611 0.9844 0.07545 0.0
H5756 H 0.90025 0.06018 0.03932 0.0
H5757 H 0.83291 0.01143 0.08872 0.0
H5758 H 0.88885 0.01063 0.06503 0.0
H5759 H 0.86473 0.05478 0.08899 0.0
C5760 C 0.879 0.07171 0.07376 0.0
C5761 C 0.88865 0.07358 0.0594 0.0
C5762 C 0.87647 0.01062 0.06998 0.0
C5763 C 0.87627 0.04199 0.06839 0.0
C5764 C 0.8691 0.99567 0.07576 0.0
C5765 C 0.85345 0.99569 0.08318 0.0
C5766 C 0.86824 0.0256 0.07199 0.0
C5767 C 0.84504 0.01074 0.0833 0.0
C5768 C 0.87269 0.05596 0.07821 0.0
C5769 C 0.89277 0.05919 0.05046 0.0
N5770 N 0.85268 0.02513 0.07817 0.0
N5771 N 0.88649 0.0439 0.05506 0.0
H5772 H 0.67838 0.13074 0.7913 0.0
H5773 H 0.75922 0.1449 0.84799 0.0
H5774 H 0.68256 0.16765 0.83071 0.0
H5775 H 0.74573 0.09893 0.82229 0.0
H5776 H 0.73567 0.15826 0.83468 0.0
H5777 H 0.7073 0.12423 0.7957 0.0
C5778 C 0.68552 0.13757 0.80082 0.0
C5779 C 0.67815 0.14949 0.81091 0.0
C5780 C 0.73819 0.14542 0.83153 0.0
C5781 C 0.71112 0.14206 0.81607 0.0
C5782 C 0.75172 0.13788 0.8389 0.0
C5783 C 0.75445 0.12091 0.83595 0.0
C5784 C 0.72741 0.13586 0.82116 0.0
C5785 C 0.74414 0.11213 0.82459 0.0
C5786 C 0.70198 0.13387 0.80328 0.0
C5787 C 0.68787 0.15825 0.82282 0.0
N5788 N 0.73096 0.11967 0.8177 0.0
N5789 N 0.70389 0.15418 0.82528 0.0
H5790 H 0.80299 0.85144 0.3134 0.0
H5791 H 0.72235 0.90438 0.32212 0.0
H5792 H 0.79997 0.9052 0.31262 0.0
H5793 H 0.7239 0.85326 0.33876 0.0
H5794 H 0.7486 0.90118 0.30813 0.0
H5795 H 0.77264 0.84912 0.31543 0.0
C5796 C 0.79595 0.86269 0.31379 0.0
C5797 C 0.80387 0.87854 0.31294 0.0
C5798 C 0.743 0.89048 0.31444 0.0
C5799 C 0.76961 0.87599 0.31453 0.0
C5800 C 0.72788 0.89225 0.32213 0.0
C5801 C 0.72123 0.87917 0.33176 0.0
C5802 C 0.75162 0.87573 0.31692 0.0
C5803 C 0.72882 0.86367 0.33149 0.0
C5804 C 0.77872 0.86136 0.3147 0.0
C5805 C 0.79433 0.89275 0.31325 0.0
N5806 N 0.74402 0.86251 0.3247 0.0
N5807 N 0.77774 0.89113 0.31399 0.0
H5808 H 0.41856 0.35385 0.98243 0.0
H5809 H 0.43813 0.40363 0.0674 0.0
H5810 H 0.40882 0.40614 0.98836 0.0
H5811 H 0.4352 0.34997 0.06136 0.0
H5812 H 0.43405 0.40659 0.03692 0.0
H5813 H 0.43356 0.35456 0.00906 0.0
C5814 C 0.42022 0.36566 0.98904 0.0
C5815 C 0.41237 0.3799 0.98338 0.0
C5816 C 0.43442 0.3942 0.04233 0.0
C5817 C 0.42861 0.38063 0.0142 0.0
C5818 C 0.43658 0.39252 0.05966 0.0
C5819 C 0.43682 0.37653 0.06681 0.0
C5820 C 0.43266 0.37978 0.03226 0.0
C5821 C 0.43499 0.36252 0.05633 0.0
C5822 C 0.42853 0.36603 0.00436 0.0
C5823 C 0.41475 0.3949 0.99239 0.0
N5824 N 0.43296 0.36447 0.03962 0.0
N5825 N 0.42228 0.39479 0.00769 0.0
H5826 H 0.34607 0.657 0.73402 0.0
H5827 H 0.38239 0.72695 0.79646 0.0
H5828 H 0.39349 0.68258 0.72992 0.0
H5829 H 0.3481 0.68789 0.81239 0.0
H5830 H 0.37893 0.71739 0.76762 0.0
H5831 H 0.34003 0.67449 0.75847 0.0
C5832 C 0.35492 0.66674 0.73795 0.0
C5833 C 0.37026 0.66856 0.73012 0.0
C5834 C 0.37197 0.71104 0.77737 0.0
C5835 C 0.36349 0.68835 0.75763 0.0
C5836 C 0.37397 0.71643 0.79379 0.0
C5837 C 0.36583 0.70785 0.8067 0.0
C5838 C 0.36201 0.69677 0.7739 0.0
C5839 C 0.35474 0.69461 0.80266 0.0
C5840 C 0.35152 0.67656 0.75189 0.0
C5841 C 0.38153 0.68094 0.73572 0.0
N5842 N 0.35339 0.68916 0.78651 0.0
N5843 N 0.37793 0.69037 0.74922 0.0
H5844 H 0.01764 0.59319 0.57571 0.0
H5845 H 0.06379 0.6527 0.50937 0.0
H5846 H 0.03774 0.64283 0.58588 0.0
H5847 H 0.05698 0.5997 0.49978 0.0
H5848 H 0.05166 0.64881 0.5367 0.0
H5849 H 0.03064 0.59427 0.54777 0.0
C5850 C 0.02506 0.60412 0.5722 0.0
C5851 C 0.0265 0.61804 0.58298 0.0
C5852 C 0.05263 0.63799 0.52862 0.0
C5853 C 0.04097 0.6195 0.55121 0.0
C5854 C 0.05941 0.64023 0.51281 0.0
C5855 C 0.06147 0.62652 0.50207 0.0
C5856 C 0.04754 0.62191 0.53394 0.0
C5857 C 0.05558 0.61068 0.50754 0.0
C5858 C 0.03234 0.6048 0.55625 0.0
C5859 C 0.03612 0.63193 0.57785 0.0
N5860 N 0.04891 0.60879 0.52312 0.0
N5861 N 0.04283 0.63236 0.56237 0.0
H5862 H 0.16668 0.32744 0.31715 0.0
H5863 H 0.10013 0.32708 0.2511 0.0
H5864 H 0.14574 0.27829 0.30591 0.0
H5865 H 0.14886 0.34071 0.23339 0.0
H5866 H 0.11283 0.31227 0.27468 0.0
H5867 H 0.15692 0.33703 0.28953 0.0
C5868 C 0.1603 0.31866 0.30876 0.0
C5869 C 0.15716 0.30206 0.3136 0.0
C5870 C 0.12062 0.31823 0.26534 0.0
C5871 C 0.14552 0.31298 0.28277 0.0
C5872 C 0.11343 0.32654 0.2519 0.0
C5873 C 0.12344 0.33498 0.24021 0.0
C5874 C 0.13782 0.31897 0.26732 0.0
C5875 C 0.14066 0.33418 0.24198 0.0
C5876 C 0.15475 0.32409 0.29314 0.0
C5877 C 0.14861 0.29114 0.30246 0.0
N5878 N 0.14733 0.3267 0.25557 0.0
N5879 N 0.14274 0.29688 0.28765 0.0
H5880 H 0.43066 0.60424 0.51559 0.0
H5881 H 0.42996 0.61035 0.41989 0.0
H5882 H 0.43136 0.65211 0.49066 0.0
H5883 H 0.46535 0.57725 0.44119 0.0
H5884 H 0.4263 0.62274 0.44754 0.0
H5885 H 0.44216 0.59172 0.49043 0.0
C5886 C 0.43387 0.61229 0.50514 0.0
C5887 C 0.42953 0.62915 0.50497 0.0
C5888 C 0.43477 0.61266 0.44615 0.0
C5889 C 0.44209 0.61481 0.47631 0.0
C5890 C 0.43661 0.60538 0.43049 0.0
C5891 C 0.44788 0.59271 0.4284 0.0
C5892 C 0.44397 0.60697 0.45982 0.0
C5893 C 0.45648 0.58695 0.44246 0.0
C5894 C 0.44027 0.60506 0.49076 0.0
C5895 C 0.43408 0.63895 0.49112 0.0
N5896 N 0.45427 0.59407 0.45774 0.0
N5897 N 0.43959 0.63151 0.47708 0.0
H5898 H 0.14716 0.71845 0.16757 0.0
H5899 H 0.09603 0.69771 0.25068 0.0
H5900 H 0.09436 0.71107 0.17031 0.0
H5901 H 0.14714 0.68511 0.24746 0.0
H5902 H 0.09735 0.70894 0.22243 0.0
H5903 H 0.14929 0.7105 0.19747 0.0
C5904 C 0.13609 0.715 0.17437 0.0
C5905 C 0.12053 0.71555 0.16651 0.0
C5906 C 0.10839 0.70396 0.22794 0.0
C5907 C 0.12284 0.70696 0.20051 0.0
C5908 C 0.1077 0.69774 0.2442 0.0
C5909 C 0.12146 0.69039 0.25148 0.0
C5910 C 0.12295 0.70284 0.2187 0.0
C5911 C 0.13625 0.69077 0.24238 0.0
C5912 C 0.13729 0.71059 0.19141 0.0
C5913 C 0.10658 0.71101 0.17589 0.0
N5914 N 0.13656 0.69666 0.22633 0.0
N5915 N 0.10806 0.70708 0.19232 0.0
H5916 H 0.08815 0.39417 0.01624 0.0
H5917 H 0.02478 0.35591 0.94864 0.0
H5918 H 0.06735 0.34389 0.01881 0.0
H5919 H 0.06787 0.38588 0.93519 0.0
H5920 H 0.03245 0.35918 0.97821 0.0
H5921 H 0.07233 0.39861 0.99037 0.0
C5922 C 0.07962 0.38436 0.01177 0.0
C5923 C 0.07885 0.36867 0.01957 0.0
C5924 C 0.04002 0.36526 0.96876 0.0
C5925 C 0.06099 0.37365 0.99031 0.0
C5926 C 0.03574 0.36338 0.95195 0.0
C5927 C 0.04594 0.37037 0.93957 0.0
C5928 C 0.05446 0.37438 0.97315 0.0
C5929 C 0.05987 0.38009 0.94445 0.0
C5930 C 0.07081 0.38685 0.99698 0.0
C5931 C 0.0681 0.35617 0.01312 0.0
N5932 N 0.06384 0.38172 0.96097 0.0
N5933 N 0.0596 0.3589 0.99873 0.0
H5934 H 0.38912 0.33787 0.75375 0.0
H5935 H 0.33937 0.29261 0.68485 0.0
H5936 H 0.33696 0.34028 0.76319 0.0
H5937 H 0.36416 0.34033 0.67583 0.0
H5938 H 0.33991 0.29885 0.71515 0.0
H5939 H 0.38274 0.3248 0.72666 0.0
C5940 C 0.37634 0.33505 0.75041 0.0
C5941 C 0.36353 0.3405 0.76045 0.0
C5942 C 0.34489 0.30798 0.70639 0.0
C5943 C 0.35631 0.32569 0.72976 0.0
C5944 C 0.3446 0.30451 0.68924 0.0
C5945 C 0.35191 0.31596 0.67801 0.0
C5946 C 0.35285 0.32274 0.71205 0.0
C5947 C 0.35847 0.33119 0.68414 0.0
C5948 C 0.37276 0.3277 0.73498 0.0
C5949 C 0.34717 0.33639 0.75566 0.0
N5950 N 0.35913 0.33401 0.70087 0.0
N5951 N 0.34394 0.32956 0.7403 0.0
H5952 H 0.09966 0.45591 0.4099 0.0
H5953 H 0.02243 0.42923 0.35055 0.0
H5954 H 0.10206 0.45467 0.35605 0.0
H5955 H 0.02263 0.42259 0.40402 0.0
H5956 H 0.05039 0.44194 0.3525 0.0
H5957 H 0.07083 0.44567 0.40821 0.0
C5958 C 0.09418 0.45314 0.39773 0.0
C5959 C 0.10334 0.45575 0.38313 0.0
C5960 C 0.0442 0.43808 0.36388 0.0
C5961 C 0.0701 0.4447 0.38099 0.0
C5962 C 0.0281 0.43117 0.36279 0.0
C5963 C 0.02 0.42543 0.37722 0.0
C5964 C 0.05236 0.43907 0.37951 0.0
C5965 C 0.02824 0.4274 0.39268 0.0
C5966 C 0.07767 0.44746 0.39675 0.0
C5967 C 0.09553 0.45237 0.36763 0.0
N5968 N 0.04396 0.43396 0.39342 0.0
N5969 N 0.07936 0.44711 0.36696 0.0
H5970 H 0.28159 0.32366 0.11665 0.0
H5971 H 0.31147 0.23784 0.15228 0.0
H5972 H 0.32266 0.31927 0.15094 0.0
H5973 H 0.28894 0.2448 0.10378 0.0
H5974 H 0.30478 0.26636 0.15996 0.0
H5975 H 0.27461 0.29413 0.12024 0.0
C5976 C 0.28926 0.31638 0.12486 0.0
C5977 C 0.30317 0.32363 0.13297 0.0
C5978 C 0.30059 0.26135 0.14796 0.0
C5979 C 0.295 0.28991 0.13728 0.0
C5980 C 0.30411 0.24497 0.14364 0.0
C5981 C 0.30106 0.23923 0.1272 0.0
C5982 C 0.29354 0.2716 0.13587 0.0
C5983 C 0.29166 0.24893 0.11648 0.0
C5984 C 0.28507 0.29962 0.12708 0.0
C5985 C 0.31214 0.3139 0.1441 0.0
N5986 N 0.28856 0.26489 0.12086 0.0
N5987 N 0.30812 0.2973 0.14567 0.0
H5988 H 0.42942 0.55277 0.89937 0.0
H5989 H 0.49672 0.59005 0.83879 0.0
H5990 H 0.42136 0.59268 0.8643 0.0
H5991 H 0.5104 0.58468 0.8909 0.0
H5992 H 0.46888 0.57984 0.84536 0.0
H5993 H 0.45935 0.55635 0.89496 0.0
C5994 C 0.434 0.56248 0.89102 0.0
C5995 C 0.42307 0.57245 0.88209 0.0
C5996 C 0.47814 0.58054 0.85524 0.0
C5997 C 0.45664 0.57589 0.8765 0.0
C5998 C 0.49402 0.58616 0.8515 0.0
C5999 C 0.50564 0.58869 0.86442 0.0
C6000 C 0.47401 0.57734 0.87194 0.0
C6001 C 0.50165 0.58316 0.88063 0.0
C6002 C 0.45094 0.56437 0.88844 0.0
C6003 C 0.42943 0.5848 0.87141 0.0
N6004 N 0.48591 0.57806 0.88408 0.0
N6005 N 0.44585 0.58597 0.86865 0.0
H6006 H 0.18217 0.65897 0.5975 0.0
H6007 H 0.1528 0.73567 0.6542 0.0
H6008 H 0.19363 0.66218 0.65021 0.0
H6009 H 0.14523 0.73069 0.60079 0.0
H6010 H 0.16738 0.70907 0.65401 0.0
H6011 H 0.16699 0.68467 0.59961 0.0
C6012 C 0.18111 0.66494 0.60964 0.0
C6013 C 0.18882 0.65828 0.62375 0.0
C6014 C 0.16256 0.7139 0.64236 0.0
C6015 C 0.17203 0.68833 0.62624 0.0
C6016 C 0.15438 0.72916 0.64243 0.0
C6017 C 0.14768 0.73548 0.6275 0.0
C6018 C 0.16401 0.70491 0.62725 0.0
C6019 C 0.15001 0.72637 0.61266 0.0
C6020 C 0.17261 0.67976 0.61084 0.0
C6021 C 0.18746 0.66674 0.63912 0.0
N6022 N 0.15784 0.71165 0.61296 0.0
N6023 N 0.17933 0.68142 0.63996 0.0
H6024 H 0.99401 0.60735 0.09486 0.0
H6025 H 0.05576 0.53829 0.12419 0.0
H6026 H 0.98768 0.58049 0.14122 0.0
H6027 H 0.07292 0.58679 0.10667 0.0
H6028 H 0.02728 0.547 0.12107 0.0
H6029 H 0.01951 0.59257 0.08994 0.0
C6030 C -0.00234 0.5978 0.10362 0.0
C6031 C 0.98885 0.59496 0.11842 0.0
C6032 C 0.03732 0.55557 0.11766 0.0
C6033 C 0.01763 0.57818 0.11284 0.0
C6034 C 0.05351 0.55069 0.11944 0.0
C6035 C 0.06662 0.56201 0.11596 0.0
C6036 C 0.03428 0.57172 0.11205 0.0
C6037 C 0.06309 0.57782 0.10968 0.0
C6038 C 0.01221 0.58956 0.10088 0.0
C6039 C 0.9942 0.58288 0.12965 0.0
N6040 N 0.04716 0.58229 0.108 0.0
N6041 N 0.00836 0.57489 0.12665 0.0
H6042 H 0.1747 0.23406 0.90666 0.0
H6043 H 0.17133 0.31692 0.85221 0.0
H6044 H 0.15938 0.23395 0.85483 0.0
H6045 H 0.18759 0.31499 0.90379 0.0
H6046 H 0.17007 0.28619 0.85139 0.0
H6047 H 0.18482 0.26296 0.9038 0.0
C6048 C 0.1742 0.23995 0.89446 0.0
C6049 C 0.16635 0.23174 0.88094 0.0
C6050 C 0.17396 0.29252 0.86285 0.0
C6051 C 0.17677 0.26503 0.87779 0.0
C6052 C 0.17446 0.31001 0.86338 0.0
C6053 C 0.17935 0.3184 0.87816 0.0
C6054 C 0.17841 0.28351 0.87721 0.0
C6055 C 0.18357 0.30897 0.8922 0.0
C6056 C 0.17967 0.25654 0.89287 0.0
C6057 C 0.16559 0.23991 0.86547 0.0
N6058 N 0.18297 0.29204 0.89139 0.0
N6059 N 0.17034 0.25634 0.8644 0.0
H6060 H 0.48202 0.44208 0.65754 0.0
H6061 H 0.41236 0.45398 0.58842 0.0
H6062 H 0.49423 0.4416 0.60505 0.0
H6063 H 0.4047 0.42866 0.63549 0.0
H6064 H 0.44221 0.4552 0.5942 0.0
H6065 H 0.45318 0.44574 0.64994 0.0
C6066 C 0.47874 0.44343 0.64442 0.0
C6067 C 0.49045 0.44118 0.6319 0.0
C6068 C 0.43396 0.44923 0.60312 0.0
C6069 C 0.4575 0.44492 0.62316 0.0
C6070 C 0.41701 0.44834 0.59977 0.0
C6071 C 0.40611 0.44116 0.6115 0.0
C6072 C 0.43987 0.44327 0.61846 0.0
C6073 C 0.41268 0.43421 0.62608 0.0
C6074 C 0.46224 0.44519 0.6401 0.0
C6075 C 0.48555 0.44316 0.6151 0.0
N6076 N 0.42913 0.43567 0.62927 0.0
N6077 N 0.4693 0.44457 0.61116 0.0
H6078 H 0.29727 0.64908 0.3497 0.0
H6079 H 0.32014 0.73616 0.39722 0.0
H6080 H 0.29074 0.65823 0.4024 0.0
H6081 H 0.33353 0.72723 0.34603 0.0
H6082 H 0.30606 0.70857 0.39787 0.0
H6083 H 0.30889 0.67797 0.34684 0.0
C6084 C 0.2987 0.65698 0.3607 0.0
C6085 C 0.29327 0.65119 0.37636 0.0
C6086 C 0.3117 0.71275 0.38631 0.0
C6087 C 0.30592 0.68428 0.37315 0.0
C6088 C 0.31942 0.72869 0.38586 0.0
C6089 C 0.32755 0.73419 0.37139 0.0
C6090 C 0.31225 0.70209 0.37223 0.0
C6091 C 0.32699 0.72361 0.35728 0.0
C6092 C 0.30508 0.67354 0.35906 0.0
C6093 C 0.29487 0.66215 0.39012 0.0
N6094 N 0.3196 0.70803 0.35805 0.0
N6095 N 0.30097 0.67806 0.38819 0.0
H6096 H 0.39259 0.98092 0.41195 0.0
H6097 H 0.36773 0.07137 0.40952 0.0
H6098 H 0.34108 0.99266 0.41205 0.0
H6099 H 0.39355 0.06031 0.45549 0.0
H6100 H 0.36497 0.04131 0.40358 0.0
H6101 H 0.39935 0.00873 0.42402 0.0
C6102 C 0.38266 0.989 0.41518 0.0
C6103 C 0.36625 0.98464 0.41073 0.0
C6104 C 0.37144 0.04557 0.41484 0.0
C6105 C 0.37397 0.01623 0.4238 0.0
C6106 C 0.37312 0.06263 0.41816 0.0
C6107 C 0.38069 0.06819 0.43308 0.0
C6108 C 0.37761 0.03412 0.42638 0.0
C6109 C 0.38749 0.05638 0.44391 0.0
C6110 C 0.38657 0.00488 0.42186 0.0
C6111 C 0.3539 0.99565 0.41502 0.0
N6112 N 0.38574 0.03974 0.44039 0.0
N6113 N 0.35805 0.01117 0.42083 0.0
H6114 H 0.90556 0.44673 0.52803 0.0
H6115 H 0.83961 0.48359 0.5788 0.0
H6116 H 0.89876 0.43015 0.57896 0.0
H6117 H 0.88021 0.51986 0.57855 0.0
H6118 H 0.85722 0.46325 0.56564 0.0
H6119 H 0.89418 0.47382 0.53563 0.0
C6120 C 0.90226 0.44901 0.54093 0.0
C6121 C 0.90282 0.43615 0.55287 0.0
C6122 C 0.86206 0.47586 0.56798 0.0
C6123 C 0.88982 0.4667 0.56138 0.0
C6124 C 0.85202 0.48747 0.57529 0.0
C6125 C 0.85852 0.50334 0.57972 0.0
C6126 C 0.87865 0.48015 0.56513 0.0
C6127 C 0.87477 0.50775 0.57513 0.0
C6128 C 0.89578 0.46441 0.54518 0.0
C6129 C 0.89838 0.43968 0.56937 0.0
N6130 N 0.88453 0.496 0.56837 0.0
N6131 N 0.89162 0.45451 0.57305 0.0
H6132 H 0.31133 0.14512 0.28726 0.0
H6133 H 0.2455 0.08847 0.33182 0.0
H6134 H 0.32315 0.1143 0.32968 0.0
H6135 H 0.23434 0.14083 0.32978 0.0
H6136 H 0.27276 0.09524 0.32069 0.0
H6137 H 0.28185 0.14221 0.29456 0.0
C6138 C 0.30773 0.13795 0.2982 0.0
C6139 C 0.31958 0.12982 0.30785 0.0
C6140 C 0.26417 0.10517 0.32235 0.0
C6141 C 0.2863 0.12607 0.31575 0.0
C6142 C 0.24858 0.10134 0.32855 0.0
C6143 C 0.23771 0.11414 0.33199 0.0
C6144 C 0.26889 0.12186 0.31929 0.0
C6145 C 0.24236 0.13059 0.32734 0.0
C6146 C 0.29101 0.13632 0.3023 0.0
C6147 C 0.31439 0.12072 0.32191 0.0
N6148 N 0.25779 0.13407 0.32139 0.0
N6149 N 0.29809 0.11881 0.32524 0.0
H6150 H 0.60181 0.47365 0.0965 0.0
H6151 H 0.63359 0.5495 0.04011 0.0
H6152 H 0.65047 0.47902 0.07557 0.0
H6153 H 0.59846 0.55603 0.07959 0.0
H6154 H 0.63282 0.51958 0.04528 0.0
H6155 H 0.59429 0.49976 0.08278 0.0
C6156 C 0.61067 0.47996 0.08841 0.0
C6157 C 0.62677 0.47424 0.08699 0.0
C6158 C 0.62515 0.52751 0.05272 0.0
C6159 C 0.61827 0.50384 0.07151 0.0
C6160 C 0.62564 0.54457 0.04988 0.0
C6161 C 0.61646 0.55519 0.05984 0.0
C6162 C 0.61559 0.521 0.06579 0.0
C6163 C 0.60593 0.54817 0.0719 0.0
C6164 C 0.60641 0.4949 0.0808 0.0
C6165 C 0.63794 0.48303 0.07684 0.0
N6166 N 0.60601 0.53138 0.07482 0.0
N6167 N 0.63349 0.49747 0.06951 0.0
H6168 H 0.68053 0.39426 0.3213 0.0
H6169 H 0.75521 0.34237 0.34561 0.0
H6170 H 0.67627 0.34032 0.32076 0.0
H6171 H 0.7604 0.39168 0.32444 0.0
H6172 H 0.72761 0.33932 0.33319 0.0
H6173 H 0.7104 0.39269 0.32151 0.0
C6174 C 0.68593 0.38206 0.32139 0.0
C6175 C 0.676 0.3674 0.32124 0.0
C6176 C 0.73501 0.35054 0.33065 0.0
C6177 C 0.71018 0.36547 0.32104 0.0
C6178 C 0.75083 0.35216 0.33753 0.0
C6179 C 0.75984 0.36733 0.33608 0.0
C6180 C 0.72821 0.36442 0.32284 0.0
C6181 C 0.75371 0.3798 0.32577 0.0
C6182 C 0.70298 0.38117 0.32119 0.0
C6183 C 0.68357 0.35191 0.32119 0.0
N6184 N 0.73796 0.37831 0.31997 0.0
N6185 N 0.7003 0.35133 0.32122 0.0
H6186 H 0.11618 0.93802 0.9734 0.0
H6187 H 0.10738 0.00661 0.90369 0.0
H6188 H 0.09826 0.92375 0.9241 0.0
H6189 H 0.15474 -0.00068 0.92707 0.0
H6190 H 0.09628 0.98173 0.91821 0.0
H6191 H 0.12261 0.96629 0.96302 0.0
C6192 C 0.11326 0.94095 0.96048 0.0
C6193 C 0.10678 0.92859 0.9495 0.0
C6194 C 0.10896 0.98591 0.92044 0.0
C6195 C 0.11374 0.96077 0.93786 0.0
C6196 C 0.11526 0.00012 0.91237 0.0
C6197 C 0.13196 0.00498 0.91435 0.0
C6198 C 0.11933 0.9769 0.93089 0.0
C6199 C 0.14179 0.99595 0.92535 0.0
C6200 C 0.11699 0.957 0.95464 0.0
C6201 C 0.10331 0.93297 0.93289 0.0
N6202 N 0.1353 0.98227 0.93329 0.0
N6203 N 0.10684 0.94881 0.92752 0.0
H6204 H 0.25259 0.90714 0.1732 0.0
H6205 H 0.30167 0.82694 0.2003 0.0
H6206 H 0.22906 0.85818 0.16932 0.0
H6207 H 0.32201 0.87058 0.17522 0.0
H6208 H 0.27395 0.83856 0.19754 0.0
H6209 H 0.27684 0.89465 0.18568 0.0
C6210 C 0.25219 0.89385 0.17588 0.0
C6211 C 0.2389 0.88364 0.17028 0.0
C6212 C 0.28456 0.84547 0.19266 0.0
C6213 C 0.2668 0.86919 0.1836 0.0
C6214 C 0.30026 0.8388 0.19401 0.0
C6215 C 0.31408 0.84772 0.18775 0.0
C6216 C 0.28292 0.86137 0.18555 0.0
C6217 C 0.31169 0.86315 0.18 0.0
C6218 C 0.26614 0.88668 0.18264 0.0
C6219 C 0.2391 0.86643 0.17363 0.0
N6220 N 0.29647 0.86955 0.17929 0.0
N6221 N 0.25308 0.8596 0.1797 0.0
H6222 H 0.18332 0.12737 0.66263 0.0
H6223 H 0.27531 0.14416 0.66881 0.0
H6224 H 0.19623 0.14381 0.71281 0.0
H6225 H 0.25512 0.09346 0.66705 0.0
H6226 H 0.24906 0.15337 0.6801 0.0
H6227 H 0.21273 0.12601 0.65635 0.0
C6228 C 0.19234 0.1312 0.67212 0.0
C6229 C 0.18752 0.1353 0.68834 0.0
C6230 C 0.25071 0.1402 0.67768 0.0
C6231 C 0.2207 0.13381 0.68128 0.0
C6232 C 0.26566 0.13486 0.67145 0.0
C6233 C 0.26719 0.11805 0.66665 0.0
C6234 C 0.23751 0.12858 0.67892 0.0
C6235 C 0.25431 0.10656 0.67029 0.0
C6236 C 0.20901 0.13036 0.66857 0.0
C6237 C 0.19962 0.14027 0.70024 0.0
N6238 N 0.23977 0.11213 0.67575 0.0
N6239 N 0.21583 0.13907 0.69658 0.0
H6240 H 0.08218 0.12538 0.3767 0.0
H6241 H 0.1586 0.0753 0.34194 0.0
H6242 H 0.07719 0.0934 0.33318 0.0
H6243 H 0.16321 0.12028 0.37186 0.0
H6244 H 0.12851 0.0789 0.34031 0.0
H6245 H 0.11166 0.12007 0.3778 0.0
C6246 C 0.08726 0.11708 0.36748 0.0
C6247 C 0.07724 0.10991 0.35477 0.0
C6248 C 0.13619 0.08798 0.34716 0.0
C6249 C 0.11107 0.10382 0.35587 0.0
C6250 C 0.15333 0.08596 0.34802 0.0
C6251 C 0.16343 0.09746 0.35708 0.0
C6252 C 0.12919 0.10141 0.35567 0.0
C6253 C 0.15595 0.11105 0.36477 0.0
C6254 C 0.10412 0.11414 0.36803 0.0
C6255 C 0.08451 0.09922 0.34317 0.0
N6256 N 0.13936 0.11254 0.36402 0.0
N6257 N 0.101 0.09651 0.34396 0.0
H6258 H 0.16815 0.89977 0.60038 0.0
H6259 H 0.11832 0.82093 0.64006 0.0
H6260 H 0.12496 0.90313 0.63104 0.0
H6261 H 0.15293 0.81529 0.59998 0.0
H6262 H 0.12341 0.85124 0.63913 0.0
H6263 H 0.16493 0.86896 0.60141 0.0
C6264 C 0.15794 0.89407 0.60719 0.0
C6265 C 0.14679 0.9041 0.61559 0.0
C6266 C 0.12999 0.8434 0.63058 0.0
C6267 C 0.14325 0.86897 0.61716 0.0
C6268 C 0.12718 0.82605 0.63122 0.0
C6269 C 0.13516 0.81551 0.62005 0.0
C6270 C 0.14094 0.8504 0.61874 0.0
C6271 C 0.14649 0.82293 0.60882 0.0
C6272 C 0.15615 0.87651 0.60784 0.0
C6273 C 0.13384 0.89601 0.6243 0.0
N6274 N 0.14899 0.8399 0.60839 0.0
N6275 N 0.13252 0.87905 0.62494 0.0
H6276 H 0.42454 0.91871 0.8821 0.0
H6277 H 0.34415 0.92813 0.83417 0.0
H6278 H 0.43322 0.92645 0.82936 0.0
H6279 H 0.35568 0.88033 0.85522 0.0
H6280 H 0.37383 0.93593 0.83406 0.0
H6281 H 0.39509 0.91477 0.87599 0.0
C6282 C 0.4202 0.92027 0.86933 0.0
C6283 C 0.43129 0.92269 0.85616 0.0
C6284 C 0.36978 0.92362 0.83828 0.0
C6285 C 0.39788 0.91818 0.84924 0.0
C6286 C 0.35301 0.91914 0.83825 0.0
C6287 C 0.34772 0.9036 0.84465 0.0
C6288 C 0.38093 0.91267 0.84538 0.0
C6289 C 0.35943 0.89235 0.85003 0.0
C6290 C 0.40348 0.9178 0.86587 0.0
C6291 C 0.42499 0.9245 0.83982 0.0
N6292 N 0.37556 0.8973 0.85074 0.0
N6293 N 0.40858 0.92199 0.83672 0.0
H6294 H 0.33 0.08873 0.07847 0.0
H6295 H 0.35014 0.17403 0.12309 0.0
H6296 H 0.32598 0.0948 0.13199 0.0
H6297 H 0.31871 0.17516 0.07921 0.0
H6298 H 0.34705 0.14374 0.12353 0.0
H6299 H 0.33062 0.11953 0.0755 0.0
C6300 C 0.32905 0.09654 0.08951 0.0
C6301 C 0.32778 0.08935 0.10547 0.0
C6302 C 0.34071 0.15062 0.11389 0.0
C6303 C 0.329 0.12404 0.10223 0.0
C6304 C 0.34231 0.16792 0.11371 0.0
C6305 C 0.33414 0.17716 0.10148 0.0
C6306 C 0.33118 0.14236 0.1015 0.0
C6307 C 0.32491 0.16846 0.08906 0.0
C6308 C 0.32937 0.11398 0.0878 0.0
C6309 C 0.32674 0.09988 0.11945 0.0
N6310 N 0.32368 0.1514 0.08933 0.0
N6311 N 0.32764 0.1167 0.11752 0.0
H6312 H 0.14675 0.91414 0.11851 0.0
H6313 H 0.06901 0.90466 0.17836 0.0
H6314 H 0.15152 0.90443 0.17144 0.0
H6315 H 0.06641 0.92352 0.12791 0.0
H6316 H 0.09899 0.90417 0.17631 0.0
H6317 H 0.11715 0.91642 0.12171 0.0
C6318 C 0.14155 0.91269 0.13089 0.0
C6319 C 0.15158 0.90927 0.14478 0.0
C6320 C 0.09189 0.90843 0.16568 0.0
C6321 C 0.11759 0.91194 0.14855 0.0
C6322 C 0.07478 0.90876 0.16683 0.0
C6323 C 0.06522 0.91391 0.15314 0.0
C6324 C 0.09951 0.91313 0.15065 0.0
C6325 C 0.0733 0.91919 0.13861 0.0
C6326 C 0.12462 0.91399 0.1327 0.0
C6327 C 0.14417 0.90714 0.16044 0.0
N6328 N 0.09 0.91851 0.13767 0.0
N6329 N 0.12755 0.90855 0.16193 0.0
H6330 H 0.37054 0.91335 0.37675 0.0
H6331 H 0.33396 0.82926 0.41116 0.0
H6332 H 0.32373 0.91673 0.40149 0.0
H6333 H 0.34685 0.8356 0.35921 0.0
H6334 H 0.33443 0.85998 0.41448 0.0
H6335 H 0.36797 0.88294 0.37835 0.0
C6336 C 0.35991 0.9077 0.38291 0.0
C6337 C 0.34717 0.91751 0.38872 0.0
C6338 C 0.33687 0.85453 0.40235 0.0
C6339 C 0.34424 0.88281 0.39055 0.0
C6340 C 0.33655 0.83712 0.40041 0.0
C6341 C 0.34034 0.82998 0.38486 0.0
C6342 C 0.3415 0.86463 0.38877 0.0
C6343 C 0.34378 0.84061 0.37136 0.0
C6344 C 0.35841 0.89038 0.38368 0.0
C6345 C 0.33372 0.90953 0.39672 0.0
N6346 N 0.34459 0.85742 0.37371 0.0
N6347 N 0.33249 0.89249 0.39727 0.0
H6348 H 0.41438 0.14153 0.62441 0.0
H6349 H 0.33986 0.07693 0.64382 0.0
H6350 H 0.42266 0.09472 0.64926 0.0
H6351 H 0.33444 0.12957 0.63522 0.0
H6352 H 0.37004 0.08165 0.64428 0.0
H6353 H 0.38474 0.13563 0.62561 0.0
C6354 C 0.40994 0.12985 0.62985 0.0
C6355 C 0.42094 0.11855 0.6367 0.0
C6356 C 0.36218 0.09218 0.64253 0.0
C6357 C 0.38696 0.11173 0.63822 0.0
C6358 C 0.345 0.08952 0.64239 0.0
C6359 C 0.33468 0.10295 0.63942 0.0
C6360 C 0.36893 0.10833 0.6396 0.0
C6361 C 0.34194 0.11893 0.63742 0.0
C6362 C 0.393 0.12656 0.6307 0.0
C6363 C 0.4145 0.10372 0.64384 0.0
N6364 N 0.35857 0.12117 0.63742 0.0
N6365 N 0.39789 0.10068 0.64438 0.0
H6366 H 0.12901 0.15534 0.87633 0.0
H6367 H 0.18415 0.07952 0.9045 0.0
H6368 H 0.16115 0.16134 0.91945 0.0
H6369 H 0.13565 0.07374 0.88223 0.0
H6370 H 0.17965 0.10988 0.90776 0.0
H6371 H 0.13562 0.12585 0.87486 0.0
C6372 C 0.13763 0.1505 0.88539 0.0
C6373 C 0.14447 0.16084 0.89807 0.0
C6374 C 0.17001 0.10183 0.90228 0.0
C6375 C 0.15217 0.12687 0.89645 0.0
C6376 C 0.17254 0.08454 0.9005 0.0
C6377 C 0.16031 0.07405 0.89296 0.0
C6378 C 0.15529 0.10857 0.89621 0.0
C6379 C 0.14552 0.08127 0.88792 0.0
C6380 C 0.14133 0.1336 0.88461 0.0
C6381 C 0.15555 0.15377 0.90951 0.0
N6382 N 0.14354 0.09798 0.88944 0.0
N6383 N 0.1591 0.13721 0.90843 0.0
H6384 H 0.09235 0.33051 0.08964 0.0
H6385 H 0.12286 0.37905 0.17288 0.0
H6386 H 0.12466 0.37448 0.08989 0.0
H6387 H 0.08093 0.34439 0.17296 0.0
H6388 H 0.12504 0.37541 0.14269 0.0
H6389 H 0.08885 0.33371 0.12008 0.0
C6390 C 0.09861 0.3409 0.09608 0.0
C6391 C 0.10885 0.35222 0.08722 0.0
C6392 C 0.11536 0.36854 0.14924 0.0
C6393 C 0.10511 0.3558 0.12204 0.0
C6394 C 0.11415 0.37054 0.16656 0.0
C6395 C 0.10167 0.36202 0.17552 0.0
C6396 C 0.10409 0.35781 0.14064 0.0
C6397 C 0.09075 0.35119 0.16656 0.0
C6398 C 0.09663 0.34269 0.11344 0.0
C6399 C 0.11667 0.36544 0.09619 0.0
N6400 N 0.09222 0.34937 0.1496 0.0
N6401 N 0.11474 0.36678 0.11306 0.0
H6402 H 0.60093 0.17713 0.83603 0.0
H6403 H 0.59464 0.11888 0.91873 0.0
H6404 H 0.60386 0.12357 0.83419 0.0
H6405 H 0.59291 0.17262 0.91931 0.0
H6406 H 0.59784 0.11982 0.88798 0.0
H6407 H 0.59876 0.17557 0.86674 0.0
C6408 C 0.60166 0.16509 0.84212 0.0
C6409 C 0.60292 0.15049 0.83249 0.0
C6410 C 0.59659 0.13139 0.89485 0.0
C6411 C 0.59985 0.14844 0.86778 0.0
C6412 C 0.59461 0.1308 0.91245 0.0
C6413 C 0.59346 0.14565 0.92177 0.0
C6414 C 0.59731 0.14695 0.88647 0.0
C6415 C 0.59373 0.1608 0.91276 0.0
C6416 C 0.60016 0.16414 0.85968 0.0
C6417 C 0.60308 0.13515 0.84111 0.0
N6418 N 0.59563 0.16105 0.89582 0.0
N6419 N 0.60156 0.1345 0.85814 0.0
H6420 H 0.88969 0.88972 0.41946 0.0
H6421 H 0.88169 0.84038 0.33251 0.0
H6422 H 0.88825 0.83586 0.41685 0.0
H6423 H 0.88913 0.89381 0.33748 0.0
H6424 H 0.8859 0.83766 0.36305 0.0
H6425 H 0.89205 0.89091 0.38911 0.0
C6426 C 0.89024 0.87814 0.41245 0.0
C6427 C 0.88877 0.86271 0.42057 0.0
C6428 C 0.88677 0.84994 0.35738 0.0
C6429 C 0.89099 0.86384 0.38573 0.0
C6430 C 0.88432 0.85147 0.34004 0.0
C6431 C 0.88477 0.86734 0.33268 0.0
C6432 C 0.88984 0.86442 0.36719 0.0
C6433 C 0.88831 0.88137 0.3428 0.0
C6434 C 0.8915 0.87878 0.3951 0.0
C6435 C 0.88948 0.84801 0.41098 0.0
N6436 N 0.89064 0.87958 0.3595 0.0
N6437 N 0.89027 0.84892 0.39396 0.0
H6438 H 0.8877 0.17766 0.07539 0.0
H6439 H 0.91239 0.12336 0.15574 0.0
H6440 H 0.90696 0.1283 0.072 0.0
H6441 H 0.88024 0.16491 0.15893 0.0
H6442 H 0.91336 0.12685 0.12521 0.0
H6443 H 0.88783 0.17527 0.10616 0.0
C6444 C 0.89228 0.16647 0.08116 0.0
C6445 C 0.8975 0.1532 0.0712 0.0
C6446 C 0.90607 0.13522 0.13254 0.0
C6447 C 0.89755 0.1503 0.10629 0.0
C6448 C 0.90555 0.13324 0.14994 0.0
C6449 C 0.89625 0.14389 0.15976 0.0
C6450 C 0.89731 0.14804 0.12488 0.0
C6451 C 0.88758 0.15649 0.15173 0.0
C6452 C 0.89217 0.16502 0.09869 0.0
C6453 C 0.90287 0.13879 0.07926 0.0
N6454 N 0.88835 0.15826 0.13474 0.0
N6455 N 0.90283 0.13775 0.09629 0.0
H6456 H 0.37008 0.63804 0.65757 0.0
H6457 H 0.41623 0.66731 0.57398 0.0
H6458 H 0.42284 0.64595 0.65614 0.0
H6459 H 0.37315 0.63416 0.5731 0.0
H6460 H 0.41687 0.66534 0.60483 0.0
H6461 H 0.36883 0.64255 0.62706 0.0
C6462 C 0.38133 0.64103 0.65088 0.0
C6463 C 0.39657 0.64167 0.65934 0.0
C6464 C 0.40729 0.65853 0.59781 0.0
C6465 C 0.39526 0.64697 0.62463 0.0
C6466 C 0.40693 0.65966 0.58026 0.0
C6467 C 0.39474 0.65077 0.57096 0.0
C6468 C 0.39512 0.6488 0.60608 0.0
C6469 C 0.38289 0.64109 0.57974 0.0
C6470 C 0.38065 0.64347 0.6335 0.0
C6471 C 0.41084 0.64532 0.65005 0.0
N6472 N 0.38331 0.64045 0.59677 0.0
N6473 N 0.40985 0.64793 0.63323 0.0
H6474 H 0.12753 0.65921 0.33481 0.0
H6475 H 0.07481 0.63348 0.41743 0.0
H6476 H 0.0756 0.6459 0.33406 0.0
H6477 H 0.12615 0.649 0.41919 0.0
H6478 H 0.07534 0.63612 0.38658 0.0
H6479 H 0.12781 0.65462 0.36546 0.0
C6480 C 0.11618 0.65557 0.34102 0.0
C6481 C 0.10153 0.65309 0.33165 0.0
C6482 C 0.08656 0.63877 0.39371 0.0
C6483 C 0.10173 0.64751 0.36687 0.0
C6484 C 0.08626 0.63704 0.41135 0.0
C6485 C 0.10045 0.64096 0.42102 0.0
C6486 C 0.10116 0.64439 0.38559 0.0
C6487 C 0.11488 0.64588 0.41231 0.0
C6488 C 0.11634 0.6528 0.35855 0.0
C6489 C 0.08725 0.64806 0.34058 0.0
N6490 N 0.11485 0.6475 0.39528 0.0
N6491 N 0.08772 0.64546 0.35746 0.0
H6492 H 0.40685 0.35117 0.83156 0.0
H6493 H 0.37276 0.38874 0.91543 0.0
H6494 H 0.36049 0.37566 0.83535 0.0
H6495 H 0.39755 0.34193 0.91781 0.0
H6496 H 0.37428 0.38787 0.885 0.0
H6497 H 0.40825 0.34979 0.86246 0.0
C6498 C 0.39686 0.35596 0.83886 0.0
C6499 C 0.38363 0.36375 0.83097 0.0
C6500 C 0.37952 0.37785 0.89218 0.0
C6501 C 0.38544 0.36267 0.86586 0.0
C6502 C 0.37879 0.37841 0.90954 0.0
C6503 C 0.38483 0.36527 0.91909 0.0
C6504 C 0.38648 0.36415 0.88427 0.0
C6505 C 0.39265 0.35224 0.91081 0.0
C6506 C 0.39773 0.35526 0.8564 0.0
C6507 C 0.37102 0.36979 0.84093 0.0
N6508 N 0.39317 0.35192 0.89375 0.0
N6509 N 0.37237 0.36936 0.85784 0.0
H6510 H 0.83611 0.92412 0.65056 0.0
H6511 H 0.90544 0.85655 0.65344 0.0
H6512 H 0.82855 0.87378 0.63185 0.0
H6513 H 0.91902 0.90822 0.64404 0.0
H6514 H 0.87642 0.86307 0.65023 0.0
H6515 H 0.86595 0.91912 0.65327 0.0
C6516 C 0.84066 0.91198 0.64729 0.0
C6517 C 0.82982 0.89924 0.6412 0.0
C6518 C 0.88571 0.873 0.64878 0.0
C6519 C 0.86362 0.89352 0.64419 0.0
C6520 C 0.90226 0.86928 0.65055 0.0
C6521 C 0.91458 0.88184 0.64879 0.0
C6522 C 0.88132 0.88954 0.64574 0.0
C6523 C 0.90982 0.89817 0.64522 0.0
C6524 C 0.85765 0.90921 0.64865 0.0
C6525 C 0.83638 0.88384 0.63686 0.0
N6526 N 0.89348 0.90164 0.644 0.0
N6527 N 0.85276 0.88139 0.63854 0.0
H6528 H 0.84149 0.18516 0.37166 0.0
H6529 H 0.86971 0.0915 0.39043 0.0
H6530 H 0.89028 0.1722 0.38763 0.0
H6531 H 0.82162 0.10188 0.3705 0.0
H6532 H 0.87706 0.12138 0.38962 0.0
H6533 H 0.83355 0.15502 0.37055 0.0
C6534 C 0.85059 0.17598 0.37453 0.0
C6535 C 0.86656 0.18111 0.3797 0.0
C6536 C 0.86486 0.11719 0.38544 0.0
C6537 C 0.85761 0.14687 0.37876 0.0
C6538 C 0.86068 0.1001 0.38597 0.0
C6539 C 0.84509 0.09419 0.38047 0.0
C6540 C 0.85333 0.12857 0.37948 0.0
C6541 C 0.83381 0.10593 0.37483 0.0
C6542 C 0.84605 0.15882 0.37408 0.0
C6543 C 0.87781 0.16876 0.38364 0.0
N6544 N 0.83813 0.12256 0.37448 0.0
N6545 N 0.87313 0.15231 0.38314 0.0
H6546 H 0.5731 0.11198 0.14331 0.0
H6547 H 0.65301 0.06317 0.14725 0.0
H6548 H 0.56853 0.05835 0.14831 0.0
H6549 H 0.64883 0.11228 0.16899 0.0
H6550 H 0.62298 0.05906 0.14854 0.0
H6551 H 0.602 0.11114 0.15117 0.0
C6552 C 0.57834 0.09997 0.14598 0.0
C6553 C 0.56864 0.0852 0.14513 0.0
C6554 C 0.62872 0.07048 0.15354 0.0
C6555 C 0.60156 0.08414 0.15456 0.0
C6556 C 0.64581 0.07282 0.15286 0.0
C6557 C 0.65319 0.0883 0.15751 0.0
C6558 C 0.61924 0.08382 0.1587 0.0
C6559 C 0.64349 0.10032 0.16491 0.0
C6560 C 0.59473 0.09951 0.15072 0.0
C6561 C 0.57584 0.06994 0.14866 0.0
N6562 N 0.62689 0.09801 0.16486 0.0
N6563 N 0.59208 0.06974 0.15318 0.0
H6564 H 0.67078 0.90468 0.86707 0.0
H6565 H 0.66348 0.8235 0.92507 0.0
H6566 H 0.65778 0.90738 0.91927 0.0
H6567 H 0.6675 0.82237 0.87131 0.0
H6568 H 0.664 0.85426 0.92418 0.0
H6569 H 0.67193 0.87447 0.86927 0.0
C6570 C 0.66835 0.89888 0.87909 0.0
C6571 C 0.66434 0.90848 0.89307 0.0
C6572 C 0.6649 0.84726 0.91261 0.0
C6573 C 0.66562 0.87382 0.8957 0.0
C6574 C 0.66479 0.82979 0.91313 0.0
C6575 C 0.66552 0.82058 0.8982 0.0
C6576 C 0.66593 0.8554 0.89706 0.0
C6577 C 0.66682 0.82913 0.88302 0.0
C6578 C 0.66893 0.8816 0.88032 0.0
C6579 C 0.66103 0.90034 0.90825 0.0
N6580 N 0.66699 0.84607 0.88283 0.0
N6581 N 0.66179 0.88339 0.9092 0.0
H6582 H 0.84352 0.10226 0.83075 0.0
H6583 H 0.92631 0.0762 0.87643 0.0
H6584 H 0.84448 0.07144 0.87496 0.0
H6585 H 0.92565 0.08789 0.82381 0.0
H6586 H 0.8962 0.07668 0.87662 0.0
H6587 H 0.87354 0.09924 0.82807 0.0
C6588 C 0.85001 0.09475 0.83976 0.0
C6589 C 0.84153 0.08708 0.85309 0.0
C6590 C 0.90259 0.07895 0.86495 0.0
C6591 C 0.87568 0.08384 0.85031 0.0
C6592 C 0.91977 0.0787 0.86488 0.0
C6593 C 0.92841 0.08186 0.8501 0.0
C6594 C 0.89394 0.08271 0.85016 0.0
C6595 C 0.91937 0.0851 0.83542 0.0
C6596 C 0.86709 0.09303 0.83824 0.0
C6597 C 0.8505 0.07754 0.86447 0.0
N6598 N 0.90259 0.08562 0.83584 0.0
N6599 N 0.86706 0.07634 0.86292 0.0
H6600 H 0.66945 0.08327 0.62999 0.0
H6601 H 0.64348 0.16692 0.58377 0.0
H6602 H 0.63212 0.0842 0.59126 0.0
H6603 H 0.66856 0.16628 0.63169 0.0
H6604 H 0.64461 0.13642 0.58236 0.0
H6605 H 0.67425 0.11348 0.62688 0.0
C6606 C 0.66249 0.0899 0.62062 0.0
C6607 C 0.65046 0.08145 0.61078 0.0
C6608 C 0.65008 0.14298 0.59305 0.0
C6609 C 0.65577 0.11581 0.60719 0.0
C6610 C 0.64956 0.16037 0.59383 0.0
C6611 C 0.65584 0.16904 0.60795 0.0
C6612 C 0.65705 0.13428 0.60644 0.0
C6613 C 0.66353 0.16001 0.62063 0.0
C6614 C 0.66517 0.10708 0.61889 0.0
C6615 C 0.64154 0.09042 0.59898 0.0
N6616 N 0.6638 0.14306 0.61964 0.0
N6617 N 0.64436 0.10722 0.59751 0.0
H6618 H 0.65722 0.91067 0.34435 0.0
H6619 H 0.57377 0.87607 0.38531 0.0
H6620 H 0.65643 0.87786 0.38717 0.0
H6621 H 0.57893 0.8776 0.33165 0.0
H6622 H 0.60304 0.88474 0.38837 0.0
H6623 H 0.62705 0.90607 0.3414 0.0
C6624 C 0.65071 0.90257 0.3531 0.0
C6625 C 0.65927 0.89455 0.36594 0.0
C6626 C 0.59764 0.88337 0.37595 0.0
C6627 C 0.62512 0.88971 0.36299 0.0
C6628 C 0.58101 0.87848 0.37423 0.0
C6629 C 0.57411 0.87592 0.35825 0.0
C6630 C 0.60719 0.88618 0.36157 0.0
C6631 C 0.58394 0.87925 0.3442 0.0
C6632 C 0.6336 0.89998 0.35144 0.0
C6633 C 0.65031 0.88421 0.37703 0.0
N6634 N 0.60003 0.88426 0.34616 0.0
N6635 N 0.63372 0.88218 0.37537 0.0
H6636 H 0.80571 0.91378 0.12052 0.0
H6637 H 0.8749 0.84717 0.1126 0.0
H6638 H 0.85375 0.92726 0.10144 0.0
H6639 H 0.82509 0.83319 0.09767 0.0
H6640 H 0.86716 0.87645 0.11423 0.0
H6641 H 0.81207 0.88398 0.11736 0.0
C6642 C 0.81759 0.9105 0.11566 0.0
C6643 C 0.82933 0.92309 0.11142 0.0
C6644 C 0.85791 0.86698 0.11063 0.0
C6645 C 0.83678 0.8891 0.10818 0.0
C6646 C 0.86228 0.85024 0.10977 0.0
C6647 C 0.85061 0.83768 0.10497 0.0
C6648 C 0.84161 0.87127 0.10714 0.0
C6649 C 0.83447 0.84249 0.10136 0.0
C6650 C 0.82118 0.89352 0.11386 0.0
C6651 C 0.84449 0.91806 0.10516 0.0
N6652 N 0.83037 0.85888 0.1027 0.0
N6653 N 0.84787 0.90153 0.10397 0.0
H6654 H 0.90804 0.60833 0.83436 0.0
H6655 H 0.8888 0.67287 0.9059 0.0
H6656 H 0.88422 0.65415 0.82234 0.0
H6657 H 0.87912 0.6201 0.91341 0.0
H6658 H 0.89281 0.66744 0.8759 0.0
H6659 H 0.90298 0.61342 0.86423 0.0
C6660 C 0.90181 0.61951 0.83804 0.0
C6661 C 0.89659 0.63089 0.82593 0.0
C6662 C 0.88986 0.65708 0.88417 0.0
C6663 C 0.89113 0.63695 0.85999 0.0
C6664 C 0.88769 0.66012 0.90127 0.0
C6665 C 0.88374 0.64688 0.91218 0.0
C6666 C 0.88851 0.64062 0.87801 0.0
C6667 C 0.88231 0.63063 0.90548 0.0
C6668 C 0.89887 0.62235 0.85504 0.0
C6669 C 0.88843 0.64509 0.83133 0.0
N6670 N 0.88487 0.62792 0.88885 0.0
N6671 N 0.88616 0.64786 0.848 0.0
H6672 H 0.40146 0.8823 0.08087 0.0
H6673 H 0.38365 0.8233 0.1619 0.0
H6674 H 0.39992 0.82841 0.07983 0.0
H6675 H 0.3948 0.87619 0.16605 0.0
H6676 H 0.38631 0.82561 0.13118 0.0
H6677 H 0.39697 0.88118 0.11151 0.0
C6678 C 0.4005 0.87029 0.08699 0.0
C6679 C 0.4012 0.85547 0.0775 0.0
C6680 C 0.38791 0.8368 0.13879 0.0
C6681 C 0.39557 0.854 0.11271 0.0
C6682 C 0.38612 0.83547 0.15637 0.0
C6683 C 0.38874 0.84958 0.1667 0.0
C6684 C 0.39226 0.85237 0.13135 0.0
C6685 C 0.39246 0.86496 0.15865 0.0
C6686 C 0.39775 0.86961 0.10453 0.0
C6687 C 0.39953 0.84025 0.08641 0.0
N6688 N 0.39412 0.86595 0.14165 0.0
N6689 N 0.39674 0.83993 0.10323 0.0
H6690 H 0.09625 0.15777 0.58235 0.0
H6691 H 0.13296 0.11993 0.66526 0.0
H6692 H 0.12235 0.11176 0.58504 0.0
H6693 H 0.08721 0.14561 0.66832 0.0
H6694 H 0.13218 0.12256 0.63511 0.0
H6695 H 0.09431 0.15776 0.61322 0.0
C6696 C 0.10129 0.14755 0.58939 0.0
C6697 C 0.10959 0.1348 0.5812 0.0
C6698 C 0.12232 0.12773 0.64232 0.0
C6699 C 0.10774 0.13496 0.61608 0.0
C6700 C 0.12286 0.12642 0.6596 0.0
C6701 C 0.1101 0.13249 0.66932 0.0
C6702 C 0.10893 0.13521 0.63454 0.0
C6703 C 0.09725 0.1407 0.66121 0.0
C6704 C 0.10021 0.1476 0.60692 0.0
C6705 C 0.11592 0.12187 0.59082 0.0
N6706 N 0.09692 0.14178 0.64414 0.0
N6707 N 0.11505 0.12241 0.60773 0.0
H6708 H 0.07781 0.83554 0.8388 0.0
H6709 H 0.11424 0.87102 0.92607 0.0
H6710 H 0.12076 0.86856 0.84364 0.0
H6711 H 0.08164 0.82728 0.92427 0.0
H6712 H 0.11427 0.87173 0.89563 0.0
H6713 H 0.077 0.83321 0.86962 0.0
C6714 C 0.08713 0.84217 0.84631 0.0
C6715 C 0.09936 0.85228 0.83859 0.0
C6716 C 0.10705 0.86196 0.9018 0.0
C6717 C 0.09833 0.84992 0.8738 0.0
C6718 C 0.10693 0.86161 0.91928 0.0
C6719 C 0.0979 0.84907 0.92785 0.0
C6720 C 0.09794 0.84978 0.89256 0.0
C6721 C 0.08875 0.83719 0.91821 0.0
C6722 C 0.08664 0.84086 0.86388 0.0
C6723 C 0.11109 0.86064 0.84896 0.0
N6724 N 0.08897 0.83784 0.90107 0.0
N6725 N 0.1102 0.85937 0.86593 0.0
H6726 H 0.62439 0.3586 0.34144 0.0
H6727 H 0.57942 0.36347 0.42895 0.0
H6728 H 0.57134 0.35689 0.34404 0.0
H6729 H 0.62013 0.33091 0.42273 0.0
H6730 H 0.57895 0.36808 0.39841 0.0
H6731 H 0.62576 0.35493 0.37211 0.0
C6732 C 0.61307 0.35744 0.34846 0.0
C6733 C 0.59774 0.35786 0.34021 0.0
C6734 C 0.58798 0.35995 0.4038 0.0
C6735 C 0.59921 0.35429 0.37514 0.0
C6736 C 0.58826 0.35734 0.42116 0.0
C6737 C 0.59962 0.34656 0.42828 0.0
C6738 C 0.5995 0.35216 0.39362 0.0
C6739 C 0.61096 0.33906 0.41767 0.0
C6740 C 0.61386 0.35537 0.36589 0.0
C6741 C 0.58341 0.35645 0.3499 0.0
N6742 N 0.61071 0.3421 0.40088 0.0
N6743 N 0.58449 0.35491 0.36685 0.0
H6744 H 0.89864 0.38258 0.58214 0.0
H6745 H 0.88638 0.32207 0.66281 0.0
H6746 H 0.89964 0.32882 0.57991 0.0
H6747 H 0.89602 0.37517 0.6672 0.0
H6748 H 0.8883 0.32468 0.63204 0.0
H6749 H 0.89586 0.38073 0.61293 0.0
C6750 C 0.89878 0.37045 0.58809 0.0
C6751 C 0.89973 0.35587 0.57829 0.0
C6752 C 0.88976 0.33583 0.63973 0.0
C6753 C 0.89588 0.35354 0.61363 0.0
C6754 C 0.88843 0.33433 0.65733 0.0
C6755 C 0.89083 0.34844 0.66771 0.0
C6756 C 0.89339 0.35158 0.63234 0.0
C6757 C 0.89396 0.36395 0.65976 0.0
C6758 C 0.89693 0.36934 0.6057 0.0
C6759 C 0.89913 0.34044 0.58685 0.0
N6760 N 0.89512 0.36511 0.64272 0.0
N6761 N 0.89721 0.33969 0.60381 0.0
H6762 H 0.61828 0.60906 0.08364 0.0
H6763 H 0.59183 0.64956 0.16983 0.0
H6764 H 0.59789 0.65817 0.08421 0.0
H6765 H 0.63236 0.61655 0.16412 0.0
H6766 H 0.58925 0.65099 0.13903 0.0
H6767 H 0.61729 0.60851 0.11412 0.0
C6768 C 0.61331 0.6196 0.0902 0.0
C6769 C 0.60837 0.63377 0.0815 0.0
C6770 C 0.59874 0.64356 0.14464 0.0
C6771 C 0.60742 0.63333 0.11631 0.0
C6772 C 0.60027 0.64281 0.16211 0.0
C6773 C 0.61225 0.63284 0.16944 0.0
C6774 C 0.60906 0.63401 0.13469 0.0
C6775 C 0.62291 0.62432 0.15898 0.0
C6776 C 0.61289 0.61936 0.10758 0.0
C6777 C 0.60191 0.64706 0.09056 0.0
N6778 N 0.62092 0.62494 0.14215 0.0
N6779 N 0.60175 0.64662 0.10761 0.0
H6780 H 0.58865 0.64368 0.85308 0.0
H6781 H 0.65732 0.57434 0.8501 0.0
H6782 H 0.57563 0.59101 0.85249 0.0
H6783 H 0.66693 0.62513 0.86671 0.0
H6784 H 0.6277 0.58008 0.84813 0.0
H6785 H 0.61771 0.63707 0.85614 0.0
C6786 C 0.59197 0.63069 0.8538 0.0
C6787 C 0.5798 0.61787 0.85274 0.0
C6788 C 0.63634 0.58995 0.85215 0.0
C6789 C 0.61312 0.61011 0.85557 0.0
C6790 C 0.65324 0.58673 0.85312 0.0
C6791 C 0.66462 0.59932 0.85845 0.0
C6792 C 0.63088 0.60592 0.85639 0.0
C6793 C 0.65864 0.6151 0.86239 0.0
C6794 C 0.60855 0.6269 0.85547 0.0
C6795 C 0.58469 0.60123 0.85355 0.0
N6796 N 0.64227 0.61794 0.86125 0.0
N6797 N 0.60103 0.59779 0.85471 0.0
H6798 H 0.66019 0.31587 0.12556 0.0
H6799 H 0.61909 0.40512 0.1147 0.0
H6800 H 0.60857 0.32227 0.11537 0.0
H6801 H 0.6716 0.39967 0.11806 0.0
H6802 H 0.61516 0.37468 0.11488 0.0
H6803 H 0.66489 0.34645 0.12372 0.0
C6804 C 0.64988 0.32374 0.12301 0.0
C6805 C 0.63396 0.31664 0.12087 0.0
C6806 C 0.62758 0.38008 0.1155 0.0
C6807 C 0.6392 0.3514 0.11832 0.0
C6808 C 0.62979 0.39747 0.11532 0.0
C6809 C 0.64565 0.4049 0.11624 0.0
C6810 C 0.64134 0.36996 0.11702 0.0
C6811 C 0.65915 0.39441 0.11711 0.0
C6812 C 0.65255 0.34114 0.12187 0.0
C6813 C 0.62099 0.3273 0.11744 0.0
N6814 N 0.65669 0.37747 0.11765 0.0
N6815 N 0.6239 0.34409 0.11624 0.0
H6816 H 0.91894 0.41095 0.38229 0.0
H6817 H 0.84024 0.43167 0.34167 0.0
H6818 H 0.9303 0.4291 0.33272 0.0
H6819 H 0.85197 0.3795 0.34355 0.0
H6820 H 0.8699 0.43917 0.34183 0.0
H6821 H 0.88975 0.40862 0.3742 0.0
C6822 C 0.91519 0.41512 0.36996 0.0
C6823 C 0.92687 0.42022 0.3581 0.0
C6824 C 0.86586 0.42612 0.34163 0.0
C6825 C 0.89396 0.41747 0.34892 0.0
C6826 C 0.84908 0.42183 0.34152 0.0
C6827 C 0.84386 0.405 0.34289 0.0
C6828 C 0.87714 0.41345 0.34349 0.0
C6829 C 0.8556 0.39262 0.34261 0.0
C6830 C 0.89868 0.41356 0.36533 0.0
C6831 C 0.9215 0.42512 0.34213 0.0
N6832 N 0.87183 0.39713 0.34351 0.0
N6833 N 0.90528 0.42349 0.33786 0.0
H6834 H 0.80815 0.67672 0.58897 0.0
H6835 H 0.85847 0.59369 0.59397 0.0
H6836 H 0.85624 0.67481 0.61233 0.0
H6837 H 0.80637 0.59184 0.6043 0.0
H6838 H 0.85786 0.62423 0.59248 0.0
H6839 H 0.80722 0.64584 0.58711 0.0
C6840 C 0.81846 0.6698 0.59364 0.0
C6841 C 0.83222 0.67819 0.60088 0.0
C6842 C 0.84653 0.61708 0.59483 0.0
C6843 C 0.83147 0.64343 0.59835 0.0
C6844 C 0.84684 0.59971 0.59557 0.0
C6845 C 0.83244 0.59035 0.59928 0.0
C6846 C 0.83166 0.62506 0.59746 0.0
C6847 C 0.81771 0.59872 0.60143 0.0
C6848 C 0.81793 0.65231 0.5926 0.0
C6849 C 0.84533 0.66878 0.60677 0.0
N6850 N 0.81766 0.6157 0.60048 0.0
N6851 N 0.84471 0.6519 0.60523 0.0
H6852 H 0.64962 0.41225 0.61761 0.0
H6853 H 0.57059 0.42445 0.67491 0.0
H6854 H 0.65333 0.40988 0.67145 0.0
H6855 H 0.56844 0.40912 0.62308 0.0
H6856 H 0.60088 0.4227 0.6743 0.0
H6857 H 0.61984 0.4143 0.61971 0.0
C6858 C 0.64412 0.41235 0.62993 0.0
C6859 C 0.65392 0.41106 0.64438 0.0
C6860 C 0.59372 0.41986 0.66306 0.0
C6861 C 0.61968 0.41365 0.64695 0.0
C6862 C 0.57647 0.42104 0.66334 0.0
C6863 C 0.56695 0.41723 0.6489 0.0
C6864 C 0.60144 0.41502 0.6482 0.0
C6865 C 0.57522 0.4125 0.63438 0.0
C6866 C 0.62709 0.41344 0.63113 0.0
C6867 C 0.64614 0.4109 0.66002 0.0
N6868 N 0.59189 0.41158 0.6344 0.0
N6869 N 0.62943 0.41237 0.66093 0.0
H6870 H 0.84527 0.32992 0.91498 0.0
H6871 H 0.84424 0.41179 0.86006 0.0
H6872 H 0.82882 0.33106 0.86343 0.0
H6873 H 0.8484 0.41441 0.91392 0.0
H6874 H 0.83789 0.38205 0.8618 0.0
H6875 H 0.84493 0.36053 0.91596 0.0
C6876 C 0.8412 0.33661 0.90399 0.0
C6877 C 0.83726 0.32805 0.88901 0.0
C6878 C 0.84012 0.38902 0.8733 0.0
C6879 C 0.83709 0.36287 0.88999 0.0
C6880 C 0.84397 0.406 0.8723 0.0
C6881 C 0.8472 0.41541 0.88686 0.0
C6882 C 0.83966 0.38124 0.88901 0.0
C6883 C 0.84618 0.40742 0.90242 0.0
C6884 C 0.84106 0.35406 0.90456 0.0
C6885 C 0.83207 0.33722 0.87517 0.0
N6886 N 0.84268 0.39064 0.90311 0.0
N6887 N 0.83238 0.35417 0.87592 0.0
H6888 H 0.83642 0.5822 0.15378 0.0
H6889 H 0.91692 0.62599 0.11439 0.0
H6890 H 0.83636 0.62356 0.11921 0.0
H6891 H 0.91954 0.60052 0.16185 0.0
H6892 H 0.88721 0.62054 0.11365 0.0
H6893 H 0.86679 0.58524 0.15561 0.0
C6894 C 0.84276 0.59197 0.14673 0.0
C6895 C 0.8339 0.6026 0.13628 0.0
C6896 C 0.89425 0.61608 0.12423 0.0
C6897 C 0.86831 0.60583 0.13796 0.0
C6898 C 0.91122 0.6191 0.1246 0.0
C6899 C 0.92062 0.61388 0.1383 0.0
C6900 C 0.88654 0.60771 0.13763 0.0
C6901 C 0.91265 0.60481 0.1511 0.0
C6902 C 0.86003 0.59365 0.14773 0.0
C6903 C 0.84266 0.61506 0.1274 0.0
N6904 N 0.89597 0.60208 0.15053 0.0
N6905 N 0.85932 0.61621 0.12832 0.0
H6906 H 0.64997 0.57095 0.41112 0.0
H6907 H 0.63832 0.65981 0.371 0.0
H6908 H 0.67352 0.58329 0.36441 0.0
H6909 H 0.64838 0.65534 0.42389 0.0
H6910 H 0.64604 0.63059 0.36707 0.0
H6911 H 0.64385 0.60065 0.41496 0.0
C6912 C 0.65389 0.57994 0.40171 0.0
C6913 C 0.66249 0.57473 0.38757 0.0
C6914 C 0.64666 0.63608 0.3795 0.0
C6915 C 0.65508 0.60854 0.39161 0.0
C6916 C 0.6423 0.65274 0.38175 0.0
C6917 C 0.64291 0.6601 0.39776 0.0
C6918 C 0.65116 0.62652 0.39344 0.0
C6919 C 0.6479 0.65023 0.4113 0.0
C6920 C 0.65042 0.59684 0.40392 0.0
C6921 C 0.66712 0.58685 0.37564 0.0
N6922 N 0.65162 0.6339 0.40888 0.0
N6923 N 0.66319 0.60316 0.37782 0.0
H6924 H 0.5825 0.84135 0.67519 0.0
H6925 H 0.61032 0.87708 0.58654 0.0
H6926 H 0.617 0.88323 0.66977 0.0
H6927 H 0.60633 0.8238 0.59417 0.0
H6928 H 0.6055 0.88137 0.61654 0.0
H6929 H 0.58447 0.83609 0.64469 0.0
C6930 C 0.59043 0.84941 0.66765 0.0
C6931 C 0.59958 0.86275 0.67508 0.0
C6932 C 0.6055 0.86875 0.61158 0.0
C6933 C 0.60148 0.85716 0.64045 0.0
C6934 C 0.60815 0.86632 0.59448 0.0
C6935 C 0.60874 0.8501 0.58793 0.0
C6936 C 0.60302 0.85485 0.6221 0.0
C6937 C 0.60604 0.83652 0.59881 0.0
C6938 C 0.59154 0.84642 0.65033 0.0
C6939 C 0.60967 0.87284 0.66471 0.0
N6940 N 0.60322 0.83917 0.61539 0.0
N6941 N 0.61021 0.86995 0.64798 0.0
H6942 H 0.41652 0.40317 0.16969 0.0
H6943 H 0.33183 0.38144 0.12196 0.0
H6944 H 0.41271 0.38118 0.12032 0.0
H6945 H 0.3342 0.41879 0.16114 0.0
H6946 H 0.36154 0.37945 0.12354 0.0
H6947 H 0.38672 0.40811 0.16868 0.0
C6948 C 0.40948 0.39966 0.15853 0.0
C6949 C 0.41704 0.39165 0.14508 0.0
C6950 C 0.35565 0.38809 0.13184 0.0
C6951 C 0.3831 0.397 0.14399 0.0
C6952 C 0.33861 0.38918 0.13103 0.0
C6953 C 0.33049 0.4004 0.14137 0.0
C6954 C 0.36484 0.39808 0.1433 0.0
C6955 C 0.34001 0.41004 0.15289 0.0
C6956 C 0.3925 0.40242 0.15801 0.0
C6957 C 0.40736 0.38725 0.13101 0.0
N6958 N 0.35674 0.40862 0.15362 0.0
N6959 N 0.39092 0.38984 0.13091 0.0
H6960 H 0.366 0.59601 0.86206 0.0
H6961 H 0.34288 0.6832 0.90322 0.0
H6962 H 0.32888 0.5987 0.90016 0.0
H6963 H 0.37135 0.67844 0.85824 0.0
H6964 H 0.33767 0.65275 0.9032 0.0
H6965 H 0.36862 0.62629 0.86178 0.0
C6966 C 0.35843 0.60298 0.8705 0.0
C6967 C 0.34716 0.59473 0.88116 0.0
C6968 C 0.34488 0.6584 0.89323 0.0
C6969 C 0.35019 0.62984 0.8809 0.0
C6970 C 0.34781 0.6758 0.89318 0.0
C6971 C 0.35761 0.6834 0.88071 0.0
C6972 C 0.35186 0.64851 0.88076 0.0
C6973 C 0.36376 0.67315 0.86811 0.0
C6974 C 0.35989 0.62038 0.87025 0.0
C6975 C 0.33768 0.60456 0.89173 0.0
N6976 N 0.36089 0.65629 0.86854 0.0
N6977 N 0.33946 0.62163 0.8914 0.0
H6978 H 0.06181 0.56496 0.65785 0.0
H6979 H 0.14304 0.61886 0.66073 0.0
H6980 H 0.07531 0.5993 0.61828 0.0
H6981 H 0.15062 0.56642 0.65201 0.0
H6982 H 0.11321 0.61309 0.65973 0.0
H6983 H 0.09074 0.56627 0.66793 0.0
C6984 C 0.07092 0.57246 0.65113 0.0
C6985 C 0.06635 0.58191 0.63715 0.0
C6986 C 0.12149 0.60281 0.65869 0.0
C6987 C 0.09856 0.58413 0.64904 0.0
C6988 C 0.13843 0.60605 0.6593 0.0
C6989 C 0.14911 0.59311 0.65602 0.0
C6990 C 0.11545 0.58656 0.65509 0.0
C6991 C 0.14261 0.57671 0.65426 0.0
C6992 C 0.08722 0.57332 0.65697 0.0
C6993 C 0.07842 0.59165 0.62895 0.0
N6994 N 0.12604 0.57388 0.65346 0.0
N6995 N 0.09397 0.59274 0.63522 0.0
H6996 H 0.15221 0.40542 0.42052 0.0
H6997 H 0.16603 0.32241 0.36967 0.0
H6998 H 0.17954 0.40506 0.37448 0.0
H6999 H 0.16708 0.32118 0.4236 0.0
H7000 H 0.1667 0.35295 0.37066 0.0
H7001 H 0.15365 0.37466 0.42172 0.0
C7002 C 0.15865 0.39889 0.4108 0.0
C7003 C 0.16589 0.40776 0.39746 0.0
C7004 C 0.16701 0.34602 0.38229 0.0
C7005 C 0.16718 0.37282 0.39851 0.0
C7006 C 0.16665 0.3286 0.38171 0.0
C7007 C 0.16679 0.31926 0.39651 0.0
C7008 C 0.16721 0.35427 0.39783 0.0
C7009 C 0.16731 0.32794 0.41187 0.0
C7010 C 0.15948 0.3814 0.41149 0.0
C7011 C 0.17395 0.39873 0.38508 0.0
N7012 N 0.16734 0.34502 0.41216 0.0
N7013 N 0.17419 0.38177 0.38579 0.0
H7014 H 0.42481 0.57748 0.37624 0.0
H7015 H 0.34253 0.60079 0.32854 0.0
H7016 H 0.42426 0.58303 0.32257 0.0
H7017 H 0.34251 0.57023 0.37295 0.0
H7018 H 0.37264 0.59777 0.3266 0.0
H7019 H 0.39465 0.57839 0.37616 0.0
C7020 C 0.4183 0.57872 0.36444 0.0
C7021 C 0.42699 0.57997 0.34941 0.0
C7022 C 0.36594 0.59162 0.33665 0.0
C7023 C 0.39253 0.58139 0.34919 0.0
C7024 C 0.34882 0.59333 0.33775 0.0
C7025 C 0.34002 0.58567 0.35086 0.0
C7026 C 0.37428 0.58255 0.349 0.0
C7027 C 0.34877 0.57625 0.36256 0.0
C7028 C 0.40111 0.57923 0.36437 0.0
C7029 C 0.41797 0.58172 0.33442 0.0
N7030 N 0.36539 0.57513 0.36147 0.0
N7031 N 0.40122 0.58256 0.33468 0.0
H7032 H 0.12773 0.58411 0.09452 0.0
H7033 H 0.16485 0.66665 0.13509 0.0
H7034 H 0.17043 0.58313 0.12698 0.0
H7035 H 0.14311 0.66652 0.08551 0.0
H7036 H 0.16647 0.63606 0.13338 0.0
H7037 H 0.13202 0.6146 0.09179 0.0
C7038 C 0.13815 0.59034 0.10079 0.0
C7039 C 0.14887 0.58131 0.1108 0.0
C7040 C 0.16162 0.64281 0.12278 0.0
C7041 C 0.15356 0.61584 0.10825 0.0
C7042 C 0.16073 0.66022 0.12375 0.0
C7043 C 0.15375 0.66903 0.11048 0.0
C7044 C 0.15516 0.63429 0.1086 0.0
C7045 C 0.14851 0.66015 0.09607 0.0
C7046 C 0.14061 0.60764 0.09926 0.0
C7047 C 0.16206 0.5898 0.11898 0.0
N7048 N 0.14903 0.64321 0.09562 0.0
N7049 N 0.16392 0.60668 0.11773 0.0
H7050 H 0.07878 0.35871 0.88006 0.0
H7051 H 0.15276 0.42297 0.86267 0.0
H7052 H 0.07206 0.39999 0.84629 0.0
H7053 H 0.16001 0.37026 0.86899 0.0
H7054 H 0.12285 0.41713 0.86047 0.0
H7055 H 0.1084 0.36537 0.88079 0.0
C7056 C 0.08352 0.36928 0.87291 0.0
C7057 C 0.07297 0.37878 0.86302 0.0
C7058 C 0.13104 0.40686 0.86221 0.0
C7059 C 0.10684 0.38648 0.86392 0.0
C7060 C 0.14805 0.41016 0.86348 0.0
C7061 C 0.15881 0.39702 0.86594 0.0
C7062 C 0.12481 0.39038 0.86394 0.0
C7063 C 0.15214 0.38067 0.86694 0.0
C7064 C 0.10043 0.37298 0.87325 0.0
C7065 C 0.07981 0.39235 0.85403 0.0
N7066 N 0.13553 0.37782 0.86617 0.0
N7067 N 0.09636 0.39587 0.85474 0.0
H7068 H 0.33643 0.33889 0.57791 0.0
H7069 H 0.33376 0.41778 0.63971 0.0
H7070 H 0.36302 0.34148 0.6249 0.0
H7071 H 0.32869 0.42346 0.58629 0.0
H7072 H 0.34072 0.38844 0.63546 0.0
H7073 H 0.32948 0.36848 0.58152 0.0
C7074 C 0.34067 0.3456 0.58904 0.0
C7075 C 0.35012 0.33755 0.60125 0.0
C7076 C 0.338 0.39606 0.62465 0.0
C7077 C 0.34215 0.37136 0.6055 0.0
C7078 C 0.33399 0.41279 0.62709 0.0
C7079 C 0.33064 0.42304 0.61333 0.0
C7080 C 0.33814 0.38929 0.60836 0.0
C7081 C 0.33123 0.41596 0.59722 0.0
C7082 C 0.33677 0.3625 0.59106 0.0
C7083 C 0.3554 0.34696 0.61536 0.0
N7084 N 0.33471 0.39948 0.59517 0.0
N7085 N 0.35128 0.36323 0.61714 0.0
H7086 H 0.36793 0.12561 0.40907 0.0
H7087 H 0.4252 0.13978 0.33038 0.0
H7088 H 0.40652 0.16407 0.41161 0.0
H7089 H 0.37318 0.12863 0.32641 0.0
H7090 H 0.4219 0.14513 0.36069 0.0
H7091 H 0.37324 0.12198 0.37934 0.0
C7092 C 0.37764 0.13323 0.4034 0.0
C7093 C 0.38677 0.14521 0.41285 0.0
C7094 C 0.41122 0.14154 0.35309 0.0
C7095 C 0.39295 0.14101 0.37864 0.0
C7096 C 0.41308 0.13844 0.33587 0.0
C7097 C 0.39932 0.13372 0.32585 0.0
C7098 C 0.3956 0.13926 0.36033 0.0
C7099 C 0.38395 0.13227 0.33355 0.0
C7100 C 0.38058 0.1312 0.38638 0.0
C7101 C 0.39917 0.15474 0.40474 0.0
N7102 N 0.38252 0.13474 0.3503 0.0
N7103 N 0.40198 0.1524 0.38804 0.0
loop_
_geom_bond_atom_site_label_1
_geom_bond_atom_site_label_2
_geom_bond_distance
_geom_bond_site_symmetry_2
_ccdc_geom_bond_type
Tb0 O3 2.453 . S
Tb0 O4 2.596 . S
Tb0 O5 2.374 . S
Tb0 O13 2.343 . S
Tb0 O15 2.353 . S
Tb0 O17 2.427 . S
Tb0 O18 2.513 . S
C1 O5 1.251 . S
C1 O7 1.263 . S
Tb2 O4 2.343 . S
Tb2 O7 2.353 . S
Tb2 O10 2.427 . S
Tb2 O11 2.513 . S
Tb2 O12 2.453 . S
Tb2 O13 2.596 . S
Tb2 O14 2.374 . S
O3 Tb0 2.453 . S
O3 C19 1.245 . S
O4 Tb0 2.596 . S
O4 Tb2 2.343 . S
O4 C19 1.259 . S
O5 Tb0 2.374 . S
O5 C1 1.251 . S
C6 O10 1.275 . S
C6 O11 1.246 . S
O7 C1 1.263 . S
O7 Tb2 2.353 . S
C8 O12 1.245 . S
C8 O13 1.259 . S
C9 O14 1.250 . S
C9 O15 1.263 . S
O10 Tb2 2.427 . S
O10 C6 1.275 . S
O11 Tb2 2.513 . S
O11 C6 1.246 . S
O12 Tb2 2.453 . S
O12 C8 1.245 . S
O13 Tb0 2.343 . S
O13 Tb2 2.596 . S
O13 C8 1.259 . S
O14 Tb2 2.374 . S
O14 C9 1.250 . S
O15 Tb0 2.353 . S
O15 C9 1.263 . S
C16 O17 1.275 . S
C16 O18 1.246 . S
O17 Tb0 2.427 . S
O17 C16 1.275 . S
O18 Tb0 2.513 . S
O18 C16 1.246 . S
C19 O3 1.245 . S
C19 O4 1.259 . S
Tb20 O23 2.453 . S
Tb20 O24 2.596 . S
Tb20 O25 2.374 . S
Tb20 O33 2.343 . S
Tb20 O35 2.353 . S
Tb20 O37 2.427 . S
Tb20 O38 2.513 . S
C21 O25 1.251 . S
C21 O27 1.263 . S
Tb22 O24 2.343 . S
Tb22 O27 2.353 . S
Tb22 O30 2.427 . S
Tb22 O31 2.513 . S
Tb22 O32 2.453 . S
Tb22 O33 2.596 . S
Tb22 O34 2.374 . S
O23 Tb20 2.453 . S
O23 C39 1.245 . S
O24 Tb20 2.596 . S
O24 Tb22 2.343 . S
O24 C39 1.259 . S
O25 Tb20 2.374 . S
O25 C21 1.251 . S
C26 O30 1.275 . S
C26 O31 1.246 . S
O27 C21 1.263 . S
O27 Tb22 2.353 . S
C28 O32 1.245 . S
C28 O33 1.259 . S
C29 O34 1.250 . S
C29 O35 1.263 . S
O30 Tb22 2.427 . S
O30 C26 1.275 . S
O31 Tb22 2.513 . S
O31 C26 1.246 . S
O32 Tb22 2.453 . S
O32 C28 1.245 . S
O33 Tb20 2.343 . S
O33 Tb22 2.596 . S
O33 C28 1.259 . S
O34 Tb22 2.374 . S
O34 C29 1.250 . S
O35 Tb20 2.353 . S
O35 C29 1.263 . S
C36 O37 1.275 . S
C36 O38 1.246 . S
O37 Tb20 2.427 . S
O37 C36 1.275 . S
O38 Tb20 2.513 . S
O38 C36 1.246 . S
C39 O23 1.245 . S
C39 O24 1.259 . S
Tb40 O43 2.453 . S
Tb40 O44 2.596 . S
Tb40 O45 2.374 . S
Tb40 O53 2.343 . S
Tb40 O55 2.353 . S
Tb40 O57 2.427 . S
Tb40 O58 2.513 . S
C41 O45 1.251 . S
C41 O47 1.263 . S
Tb42 O44 2.343 . S
Tb42 O47 2.353 . S
Tb42 O50 2.427 . S
Tb42 O51 2.513 . S
Tb42 O52 2.453 . S
Tb42 O53 2.596 . S
Tb42 O54 2.374 . S
O43 Tb40 2.453 . S
O43 C59 1.245 . S
O44 Tb40 2.596 . S
O44 Tb42 2.343 . S
O44 C59 1.259 . S
O45 Tb40 2.374 . S
O45 C41 1.251 . S
C46 O50 1.275 . S
C46 O51 1.246 . S
O47 C41 1.263 . S
O47 Tb42 2.353 . S
C48 O52 1.245 . S
C48 O53 1.259 . S
C49 O54 1.250 . S
C49 O55 1.263 . S
O50 Tb42 2.427 . S
O50 C46 1.275 . S
O51 Tb42 2.513 . S
O51 C46 1.246 . S
O52 Tb42 2.453 . S
O52 C48 1.245 . S
O53 Tb40 2.343 . S
O53 Tb42 2.596 . S
O53 C48 1.259 . S
O54 Tb42 2.374 . S
O54 C49 1.250 . S
O55 Tb40 2.353 . S
O55 C49 1.263 . S
C56 O57 1.275 . S
C56 O58 1.246 . S
O57 Tb40 2.427 . S
O57 C56 1.275 . S
O58 Tb40 2.513 . S
O58 C56 1.246 . S
C59 O43 1.245 . S
C59 O44 1.259 . S
Tb60 O63 2.453 . S
Tb60 O64 2.596 . S
Tb60 O65 2.374 . S
Tb60 O73 2.343 . S
Tb60 O75 2.353 . S
Tb60 O77 2.427 . S
Tb60 O78 2.513 . S
C61 O65 1.251 . S
C61 O67 1.263 . S
Tb62 O64 2.343 . S
Tb62 O67 2.353 . S
Tb62 O70 2.427 . S
Tb62 O71 2.513 . S
Tb62 O72 2.453 . S
Tb62 O73 2.596 . S
Tb62 O74 2.374 . S
O63 Tb60 2.453 . S
O63 C79 1.245 . S
O64 Tb60 2.596 . S
O64 Tb62 2.343 . S
O64 C79 1.259 . S
O65 Tb60 2.374 . S
O65 C61 1.251 . S
C66 O70 1.275 . S
C66 O71 1.246 . S
O67 C61 1.263 . S
O67 Tb62 2.353 . S
C68 O72 1.245 . S
C68 O73 1.259 . S
C69 O74 1.250 . S
C69 O75 1.263 . S
O70 Tb62 2.427 . S
O70 C66 1.275 . S
O71 Tb62 2.513 . S
O71 C66 1.246 . S
O72 Tb62 2.453 . S
O72 C68 1.245 . S
O73 Tb60 2.343 . S
O73 Tb62 2.596 . S
O73 C68 1.259 . S
O74 Tb62 2.374 . S
O74 C69 1.250 . S
O75 Tb60 2.353 . S
O75 C69 1.263 . S
C76 O77 1.275 . S
C76 O78 1.246 . S
O77 Tb60 2.427 . S
O77 C76 1.275 . S
O78 Tb60 2.513 . S
O78 C76 1.246 . S
C79 O63 1.245 . S
C79 O64 1.259 . S
Tb80 O83 2.453 1_455 S
Tb80 O84 2.596 . S
Tb80 O85 2.374 . S
Tb80 O93 2.343 . S
Tb80 O95 2.353 . S
Tb80 O97 2.427 . S
Tb80 O98 2.513 . S
C81 O85 1.251 . S
C81 O87 1.263 . S
Tb82 O84 2.343 . S
Tb82 O87 2.353 . S
Tb82 O90 2.463 . S
Tb82 O91 2.513 . S
Tb82 O92 2.453 . S
Tb82 O93 2.596 . S
Tb82 O94 2.374 . S
O83 Tb80 2.453 1_655 S
O83 C99 1.245 . S
O84 Tb80 2.596 . S
O84 Tb82 2.343 . S
O84 C99 1.259 1_455 S
O85 Tb80 2.374 . S
O85 C81 1.251 . S
C86 O90 1.274 1_655 S
C86 O91 1.233 1_655 S
O87 C81 1.263 . S
O87 Tb82 2.353 . S
C88 O92 1.245 . S
C88 O93 1.259 . S
C89 O94 1.250 . S
C89 O95 1.263 . S
O90 Tb82 2.463 . S
O90 C86 1.274 1_455 S
O91 Tb82 2.513 . S
O91 C86 1.233 1_455 S
O92 Tb82 2.453 . S
O92 C88 1.245 . S
O93 Tb80 2.343 . S
O93 Tb82 2.596 . S
O93 C88 1.259 . S
O94 Tb82 2.374 . S
O94 C89 1.250 . S
O95 Tb80 2.353 . S
O95 C89 1.263 . S
C96 O97 1.275 . S
C96 O98 1.246 . S
O97 Tb80 2.427 . S
O97 C96 1.275 . S
O98 Tb80 2.513 . S
O98 C96 1.246 . S
C99 O83 1.245 . S
C99 O84 1.259 1_655 S
Tb100 O103 2.453 . S
Tb100 O104 2.596 . S
Tb100 O105 2.374 . S
Tb100 O113 2.343 . S
Tb100 O115 2.353 . S
Tb100 O117 2.427 . S
Tb100 O118 2.513 . S
C101 O105 1.251 . S
C101 O107 1.263 . S
Tb102 O104 2.343 . S
Tb102 O107 2.353 . S
Tb102 O110 2.427 . S
Tb102 O111 2.513 . S
Tb102 O112 2.453 . S
Tb102 O113 2.596 . S
Tb102 O114 2.374 . S
O103 Tb100 2.453 . S
O103 C119 1.245 . S
O104 Tb100 2.596 . S
O104 Tb102 2.343 . S
O104 C119 1.259 . S
O105 Tb100 2.374 . S
O105 C101 1.251 . S
C106 O110 1.275 . S
C106 O111 1.246 . S
O107 C101 1.263 . S
O107 Tb102 2.353 . S
C108 O112 1.245 . S
C108 O113 1.259 . S
C109 O114 1.250 . S
C109 O115 1.263 . S
O110 Tb102 2.427 . S
O110 C106 1.275 . S
O111 Tb102 2.513 . S
O111 C106 1.246 . S
O112 Tb102 2.453 . S
O112 C108 1.245 . S
O113 Tb100 2.343 . S
O113 Tb102 2.596 . S
O113 C108 1.259 . S
O114 Tb102 2.374 . S
O114 C109 1.250 . S
O115 Tb100 2.353 . S
O115 C109 1.263 . S
C116 O117 1.275 . S
C116 O118 1.246 . S
O117 Tb100 2.427 . S
O117 C116 1.275 . S
O118 Tb100 2.513 . S
O118 C116 1.246 . S
C119 O103 1.245 . S
C119 O104 1.259 . S
Tb120 O123 2.453 . S
Tb120 O124 2.596 . S
Tb120 O125 2.374 . S
Tb120 O133 2.343 . S
Tb120 O135 2.353 . S
Tb120 O137 2.427 . S
Tb120 O138 2.513 . S
C121 O125 1.251 . S
C121 O127 1.263 . S
Tb122 O124 2.343 . S
Tb122 O127 2.353 . S
Tb122 O130 2.427 . S
Tb122 O131 2.513 . S
Tb122 O132 2.453 . S
Tb122 O133 2.596 . S
Tb122 O134 2.374 . S
O123 Tb120 2.453 . S
O123 C139 1.245 . S
O124 Tb120 2.596 . S
O124 Tb122 2.343 . S
O124 C139 1.259 . S
O125 Tb120 2.374 . S
O125 C121 1.251 . S
C126 O130 1.275 . S
C126 O131 1.246 . S
O127 C121 1.263 . S
O127 Tb122 2.353 . S
C128 O132 1.245 . S
C128 O133 1.259 . S
C129 O134 1.250 . S
C129 O135 1.263 . S
O130 Tb122 2.427 . S
O130 C126 1.275 . S
O131 Tb122 2.513 . S
O131 C126 1.246 . S
O132 Tb122 2.453 . S
O132 C128 1.245 . S
O133 Tb120 2.343 . S
O133 Tb122 2.596 . S
O133 C128 1.259 . S
O134 Tb122 2.374 . S
O134 C129 1.250 . S
O135 Tb120 2.353 . S
O135 C129 1.263 . S
C136 O137 1.275 . S
C136 O138 1.246 . S
O137 Tb120 2.427 . S
O137 C136 1.275 . S
O138 Tb120 2.513 . S
O138 C136 1.246 . S
C139 O123 1.245 . S
C139 O124 1.259 . S
Tb140 O143 2.453 . S
Tb140 O144 2.596 . S
Tb140 O145 2.374 . S
Tb140 O153 2.343 . S
Tb140 O155 2.353 . S
Tb140 O157 2.427 . S
Tb140 O158 2.513 . S
C141 O145 1.251 . S
C141 O147 1.263 . S
Tb142 O144 2.343 . S
Tb142 O147 2.353 . S
Tb142 O150 2.427 . S
Tb142 O151 2.513 . S
Tb142 O152 2.453 . S
Tb142 O153 2.596 . S
Tb142 O154 2.374 . S
O143 Tb140 2.453 . S
O143 C159 1.245 . S
O144 Tb140 2.596 . S
O144 Tb142 2.343 . S
O144 C159 1.259 . S
O145 Tb140 2.374 . S
O145 C141 1.251 . S
C146 O150 1.275 . S
C146 O151 1.246 . S
O147 C141 1.263 . S
O147 Tb142 2.353 . S
C148 O152 1.245 . S
C148 O153 1.259 . S
C149 O154 1.250 . S
C149 O155 1.263 . S
O150 Tb142 2.427 . S
O150 C146 1.275 . S
O151 Tb142 2.513 . S
O151 C146 1.246 . S
O152 Tb142 2.453 . S
O152 C148 1.245 . S
O153 Tb140 2.343 . S
O153 Tb142 2.596 . S
O153 C148 1.259 . S
O154 Tb142 2.374 . S
O154 C149 1.250 . S
O155 Tb140 2.353 . S
O155 C149 1.263 . S
C156 O157 1.275 . S
C156 O158 1.246 . S
O157 Tb140 2.427 . S
O157 C156 1.275 . S
O158 Tb140 2.513 . S
O158 C156 1.246 . S
C159 O143 1.245 . S
C159 O144 1.259 . S
Tb160 O163 2.453 . S
Tb160 O164 2.596 . S
Tb160 O165 2.374 . S
Tb160 O173 2.343 . S
Tb160 O175 2.353 . S
Tb160 O177 2.427 1_545 S
Tb160 O178 2.513 1_545 S
C161 O165 1.251 . S
C161 O167 1.263 . S
Tb162 O164 2.343 . S
Tb162 O167 2.353 . S
Tb162 O170 2.427 . S
Tb162 O171 2.513 . S
Tb162 O172 2.453 . S
Tb162 O173 2.596 . S
Tb162 O174 2.374 . S
O163 Tb160 2.453 . S
O163 C179 1.245 . S
O164 Tb160 2.596 . S
O164 Tb162 2.343 . S
O164 C179 1.259 . S
O165 Tb160 2.374 . S
O165 C161 1.251 . S
C166 O170 1.275 . S
C166 O171 1.246 . S
O167 C161 1.263 . S
O167 Tb162 2.353 . S
C168 O172 1.245 . S
C168 O173 1.259 . S
C169 O174 1.250 . S
C169 O175 1.263 . S
O170 Tb162 2.427 . S
O170 C166 1.275 . S
O171 Tb162 2.513 . S
O171 C166 1.246 . S
O172 Tb162 2.453 . S
O172 C168 1.245 . S
O173 Tb160 2.343 . S
O173 Tb162 2.596 . S
O173 C168 1.259 . S
O174 Tb162 2.374 . S
O174 C169 1.250 . S
O175 Tb160 2.353 . S
O175 C169 1.263 . S
C176 O177 1.275 . S
C176 O178 1.246 . S
O177 Tb160 2.427 1_565 S
O177 C176 1.275 . S
O178 Tb160 2.513 1_565 S
O178 C176 1.246 . S
C179 O163 1.245 . S
C179 O164 1.259 . S
Tb180 O183 2.453 . S
Tb180 O184 2.596 . S
Tb180 O185 2.374 . S
Tb180 O193 2.343 . S
Tb180 O195 2.353 . S
Tb180 O197 2.427 . S
Tb180 O198 2.513 . S
C181 O185 1.251 . S
C181 O187 1.263 . S
Tb182 O184 2.343 . S
Tb182 O187 2.353 . S
Tb182 O190 2.427 . S
Tb182 O191 2.513 . S
Tb182 O192 2.453 . S
Tb182 O193 2.596 . S
Tb182 O194 2.374 . S
O183 Tb180 2.453 . S
O183 C199 1.245 . S
O184 Tb180 2.596 . S
O184 Tb182 2.343 . S
O184 C199 1.259 . S
O185 Tb180 2.374 . S
O185 C181 1.251 . S
C186 O190 1.275 . S
C186 O191 1.246 . S
O187 C181 1.263 . S
O187 Tb182 2.353 . S
C188 O192 1.245 . S
C188 O193 1.259 . S
C189 O194 1.250 . S
C189 O195 1.263 . S
O190 Tb182 2.427 . S
O190 C186 1.275 . S
O191 Tb182 2.513 . S
O191 C186 1.246 . S
O192 Tb182 2.453 . S
O192 C188 1.245 . S
O193 Tb180 2.343 . S
O193 Tb182 2.596 . S
O193 C188 1.259 . S
O194 Tb182 2.374 . S
O194 C189 1.250 . S
O195 Tb180 2.353 . S
O195 C189 1.263 . S
C196 O197 1.275 . S
C196 O198 1.246 . S
O197 Tb180 2.427 . S
O197 C196 1.275 . S
O198 Tb180 2.513 . S
O198 C196 1.246 . S
C199 O183 1.245 . S
C199 O184 1.259 . S
Tb200 O203 2.453 . S
Tb200 O204 2.596 . S
Tb200 O205 2.374 . S
Tb200 O213 2.343 . S
Tb200 O215 2.353 . S
Tb200 O217 2.427 . S
Tb200 O218 2.513 . S
C201 O205 1.251 . S
C201 O207 1.263 . S
Tb202 O204 2.343 . S
Tb202 O207 2.353 . S
Tb202 O210 2.427 . S
Tb202 O211 2.513 . S
Tb202 O212 2.453 . S
Tb202 O213 2.596 . S
Tb202 O214 2.374 . S
O203 Tb200 2.453 . S
O203 C219 1.245 . S
O204 Tb200 2.596 . S
O204 Tb202 2.343 . S
O204 C219 1.259 . S
O205 Tb200 2.374 . S
O205 C201 1.251 . S
C206 O210 1.275 . S
C206 O211 1.246 . S
O207 C201 1.263 . S
O207 Tb202 2.353 . S
C208 O212 1.245 . S
C208 O213 1.259 . S
C209 O214 1.250 . S
C209 O215 1.263 . S
O210 Tb202 2.427 . S
O210 C206 1.275 . S
O211 Tb202 2.513 . S
O211 C206 1.246 . S
O212 Tb202 2.453 . S
O212 C208 1.245 . S
O213 Tb200 2.343 . S
O213 Tb202 2.596 . S
O213 C208 1.259 . S
O214 Tb202 2.374 . S
O214 C209 1.250 . S
O215 Tb200 2.353 . S
O215 C209 1.263 . S
C216 O217 1.275 . S
C216 O218 1.246 . S
O217 Tb200 2.427 . S
O217 C216 1.275 . S
O218 Tb200 2.513 . S
O218 C216 1.246 . S
C219 O203 1.245 . S
C219 O204 1.259 . S
Tb220 O223 2.453 . S
Tb220 O224 2.596 . S
Tb220 O225 2.374 . S
Tb220 O233 2.343 . S
Tb220 O235 2.353 . S
Tb220 O237 2.427 . S
Tb220 O238 2.513 . S
C221 O225 1.251 . S
C221 O227 1.263 . S
Tb222 O224 2.343 . S
Tb222 O227 2.353 . S
Tb222 O230 2.427 . S
Tb222 O231 2.513 . S
Tb222 O232 2.453 . S
Tb222 O233 2.596 . S
Tb222 O234 2.374 . S
O223 Tb220 2.453 . S
O223 C239 1.245 . S
O224 Tb220 2.596 . S
O224 Tb222 2.343 . S
O224 C239 1.259 . S
O225 Tb220 2.374 . S
O225 C221 1.251 . S
C226 O230 1.275 . S
C226 O231 1.246 . S
O227 C221 1.263 . S
O227 Tb222 2.353 . S
C228 O232 1.245 . S
C228 O233 1.259 . S
C229 O234 1.250 . S
C229 O235 1.263 . S
O230 Tb222 2.427 . S
O230 C226 1.275 . S
O231 Tb222 2.513 . S
O231 C226 1.246 . S
O232 Tb222 2.453 . S
O232 C228 1.245 . S
O233 Tb220 2.343 . S
O233 Tb222 2.596 . S
O233 C228 1.259 . S
O234 Tb222 2.374 . S
O234 C229 1.250 . S
O235 Tb220 2.353 . S
O235 C229 1.263 . S
C236 O237 1.275 . S
C236 O238 1.246 . S
O237 Tb220 2.427 . S
O237 C236 1.275 . S
O238 Tb220 2.513 . S
O238 C236 1.246 . S
C239 O223 1.245 . S
C239 O224 1.259 . S
Tb240 O243 2.453 . S
Tb240 O244 2.596 . S
Tb240 O245 2.374 . S
Tb240 O253 2.343 . S
Tb240 O255 2.353 . S
Tb240 O257 2.427 . S
Tb240 O258 2.513 . S
C241 O245 1.251 . S
C241 O247 1.263 . S
Tb242 O244 2.343 . S
Tb242 O247 2.353 . S
Tb242 O250 2.427 . S
Tb242 O251 2.513 . S
Tb242 O252 2.453 . S
Tb242 O253 2.596 . S
Tb242 O254 2.374 . S
O243 Tb240 2.453 . S
O243 C259 1.245 . S
O244 Tb240 2.596 . S
O244 Tb242 2.343 . S
O244 C259 1.259 . S
O245 Tb240 2.374 . S
O245 C241 1.251 . S
C246 O250 1.275 . S
C246 O251 1.246 . S
O247 C241 1.263 . S
O247 Tb242 2.353 . S
C248 O252 1.245 . S
C248 O253 1.259 . S
C249 O254 1.250 . S
C249 O255 1.263 . S
O250 Tb242 2.427 . S
O250 C246 1.275 . S
O251 Tb242 2.513 . S
O251 C246 1.246 . S
O252 Tb242 2.453 . S
O252 C248 1.245 . S
O253 Tb240 2.343 . S
O253 Tb242 2.596 . S
O253 C248 1.259 . S
O254 Tb242 2.374 . S
O254 C249 1.250 . S
O255 Tb240 2.353 . S
O255 C249 1.263 . S
C256 O257 1.275 . S
C256 O258 1.246 . S
O257 Tb240 2.427 . S
O257 C256 1.275 . S
O258 Tb240 2.513 . S
O258 C256 1.246 . S
C259 O243 1.245 . S
C259 O244 1.259 . S
Tb260 O263 2.453 . S
Tb260 O264 2.596 . S
Tb260 O265 2.374 . S
Tb260 O273 2.343 . S
Tb260 O275 2.353 . S
Tb260 O277 2.427 . S
Tb260 O278 2.513 . S
C261 O265 1.251 . S
C261 O267 1.263 . S
Tb262 O264 2.343 . S
Tb262 O267 2.353 . S
Tb262 O270 2.427 . S
Tb262 O271 2.513 . S
Tb262 O272 2.453 . S
Tb262 O273 2.596 . S
Tb262 O274 2.374 . S
O263 Tb260 2.453 . S
O263 C279 1.245 . S
O264 Tb260 2.596 . S
O264 Tb262 2.343 . S
O264 C279 1.259 . S
O265 Tb260 2.374 . S
O265 C261 1.251 . S
C266 O270 1.275 . S
C266 O271 1.246 . S
O267 C261 1.263 . S
O267 Tb262 2.353 . S
C268 O272 1.245 . S
C268 O273 1.259 . S
C269 O274 1.250 . S
C269 O275 1.263 . S
O270 Tb262 2.427 . S
O270 C266 1.275 . S
O271 Tb262 2.513 . S
O271 C266 1.246 . S
O272 Tb262 2.453 . S
O272 C268 1.245 . S
O273 Tb260 2.343 . S
O273 Tb262 2.596 . S
O273 C268 1.259 . S
O274 Tb262 2.374 . S
O274 C269 1.250 . S
O275 Tb260 2.353 . S
O275 C269 1.263 . S
C276 O277 1.275 . S
C276 O278 1.246 . S
O277 Tb260 2.427 . S
O277 C276 1.275 . S
O278 Tb260 2.513 . S
O278 C276 1.246 . S
C279 O263 1.245 . S
C279 O264 1.259 . S
Tb280 O283 2.453 1_545 S
Tb280 O284 2.596 . S
Tb280 O285 2.374 . S
Tb280 O293 2.343 . S
Tb280 O295 2.353 . S
Tb280 O297 2.427 . S
Tb280 O298 2.513 . S
C281 O285 1.251 . S
C281 O287 1.263 . S
Tb282 O284 2.343 . S
Tb282 O287 2.353 . S
Tb282 O290 2.427 . S
Tb282 O291 2.513 . S
Tb282 O292 2.453 . S
Tb282 O293 2.596 . S
Tb282 O294 2.374 . S
O283 Tb280 2.453 1_565 S
O283 C299 1.245 . S
O284 Tb280 2.596 . S
O284 Tb282 2.343 . S
O284 C299 1.259 1_545 S
O285 Tb280 2.374 . S
O285 C281 1.251 . S
C286 O290 1.280 . S
C286 O291 1.295 . S
O287 C281 1.263 . S
O287 Tb282 2.353 . S
C288 O292 1.245 . S
C288 O293 1.259 . S
C289 O294 1.250 . S
C289 O295 1.263 . S
O290 Tb282 2.427 . S
O290 C286 1.280 . S
O291 Tb282 2.513 . S
O291 C286 1.295 . S
O292 Tb282 2.453 . S
O292 C288 1.245 . S
O293 Tb280 2.343 . S
O293 Tb282 2.596 . S
O293 C288 1.259 . S
O294 Tb282 2.374 . S
O294 C289 1.250 . S
O295 Tb280 2.353 . S
O295 C289 1.263 . S
C296 O297 1.275 . S
C296 O298 1.246 . S
O297 Tb280 2.427 . S
O297 C296 1.275 . S
O298 Tb280 2.513 . S
O298 C296 1.246 . S
C299 O283 1.245 . S
C299 O284 1.259 1_565 S
Tb300 O303 2.453 . S
Tb300 O304 2.596 . S
Tb300 O305 2.374 . S
Tb300 O313 2.343 . S
Tb300 O315 2.353 . S
Tb300 O317 2.427 . S
Tb300 O318 2.513 . S
C301 O305 1.251 . S
C301 O307 1.263 . S
Tb302 O304 2.343 . S
Tb302 O307 2.353 . S
Tb302 O310 2.427 . S
Tb302 O311 2.513 . S
Tb302 O312 2.453 . S
Tb302 O313 2.596 . S
Tb302 O314 2.374 . S
O303 Tb300 2.453 . S
O303 C319 1.245 . S
O304 Tb300 2.596 . S
O304 Tb302 2.343 . S
O304 C319 1.259 . S
O305 Tb300 2.374 . S
O305 C301 1.251 . S
C306 O310 1.275 . S
C306 O311 1.246 . S
O307 C301 1.263 . S
O307 Tb302 2.353 . S
C308 O312 1.245 . S
C308 O313 1.259 . S
C309 O314 1.250 . S
C309 O315 1.263 . S
O310 Tb302 2.427 . S
O310 C306 1.275 . S
O311 Tb302 2.513 . S
O311 C306 1.246 . S
O312 Tb302 2.453 . S
O312 C308 1.245 . S
O313 Tb300 2.343 . S
O313 Tb302 2.596 . S
O313 C308 1.259 . S
O314 Tb302 2.374 . S
O314 C309 1.250 . S
O315 Tb300 2.353 . S
O315 C309 1.263 . S
C316 O317 1.275 . S
C316 O318 1.246 . S
O317 Tb300 2.427 . S
O317 C316 1.275 . S
O318 Tb300 2.513 . S
O318 C316 1.246 . S
C319 O303 1.245 . S
C319 O304 1.259 . S
Tb320 O323 2.453 . S
Tb320 O324 2.596 . S
Tb320 O325 2.374 . S
Tb320 O333 2.343 . S
Tb320 O335 2.353 . S
Tb320 O337 2.427 . S
Tb320 O338 2.513 . S
C321 O325 1.251 . S
C321 O327 1.263 . S
Tb322 O324 2.343 . S
Tb322 O327 2.353 . S
Tb322 O330 2.427 . S
Tb322 O331 2.513 . S
Tb322 O332 2.453 . S
Tb322 O333 2.596 . S
Tb322 O334 2.374 . S
O323 Tb320 2.453 . S
O323 C339 1.245 . S
O324 Tb320 2.596 . S
O324 Tb322 2.343 . S
O324 C339 1.259 . S
O325 Tb320 2.374 . S
O325 C321 1.251 . S
C326 O330 1.275 . S
C326 O331 1.246 . S
O327 C321 1.263 . S
O327 Tb322 2.353 . S
C328 O332 1.245 . S
C328 O333 1.259 . S
C329 O334 1.250 . S
C329 O335 1.263 . S
O330 Tb322 2.427 . S
O330 C326 1.275 . S
O331 Tb322 2.513 . S
O331 C326 1.246 . S
O332 Tb322 2.453 . S
O332 C328 1.245 . S
O333 Tb320 2.343 . S
O333 Tb322 2.596 . S
O333 C328 1.259 . S
O334 Tb322 2.374 . S
O334 C329 1.250 . S
O335 Tb320 2.353 . S
O335 C329 1.263 . S
C336 O337 1.275 . S
C336 O338 1.246 . S
O337 Tb320 2.427 . S
O337 C336 1.275 . S
O338 Tb320 2.513 . S
O338 C336 1.246 . S
C339 O323 1.245 . S
C339 O324 1.259 . S
Tb340 O343 2.453 1_556 S
Tb340 O344 2.596 . S
Tb340 O345 2.374 . S
Tb340 O353 2.343 . S
Tb340 O355 2.353 . S
Tb340 O357 2.427 . S
Tb340 O358 2.513 . S
C341 O345 1.251 . S
C341 O347 1.263 . S
Tb342 O344 2.343 . S
Tb342 O347 2.353 . S
Tb342 O350 2.375 1_556 S
Tb342 O351 2.513 . S
Tb342 O352 2.453 . S
Tb342 O353 2.596 . S
Tb342 O354 2.374 . S
O343 Tb340 2.453 1_554 S
O343 C359 1.245 . S
O344 Tb340 2.596 . S
O344 Tb342 2.343 . S
O344 C359 1.259 1_556 S
O345 Tb340 2.374 . S
O345 C341 1.251 . S
C346 O350 1.281 . S
C346 O351 1.246 1_554 S
O347 C341 1.263 . S
O347 Tb342 2.353 . S
C348 O352 1.245 . S
C348 O353 1.259 . S
C349 O354 1.250 . S
C349 O355 1.263 . S
O350 Tb342 2.375 1_554 S
O350 C346 1.281 . S
O351 Tb342 2.513 . S
O351 C346 1.246 1_556 S
O352 Tb342 2.453 . S
O352 C348 1.245 . S
O353 Tb340 2.343 . S
O353 Tb342 2.596 . S
O353 C348 1.259 . S
O354 Tb342 2.374 . S
O354 C349 1.250 . S
O355 Tb340 2.353 . S
O355 C349 1.263 . S
C356 O357 1.275 . S
C356 O358 1.246 . S
O357 Tb340 2.427 . S
O357 C356 1.275 . S
O358 Tb340 2.513 . S
O358 C356 1.246 . S
C359 O343 1.245 . S
C359 O344 1.259 1_554 S
Tb360 O363 2.453 . S
Tb360 O364 2.596 . S
Tb360 O365 2.374 . S
Tb360 O373 2.343 . S
Tb360 O375 2.353 . S
Tb360 O377 2.427 . S
Tb360 O378 2.513 . S
C361 O365 1.251 . S
C361 O367 1.263 . S
Tb362 O364 2.343 . S
Tb362 O367 2.353 . S
Tb362 O370 2.427 . S
Tb362 O371 2.513 . S
Tb362 O372 2.453 . S
Tb362 O373 2.596 . S
Tb362 O374 2.374 . S
O363 Tb360 2.453 . S
O363 C379 1.245 . S
O364 Tb360 2.596 . S
O364 Tb362 2.343 . S
O364 C379 1.259 . S
O365 Tb360 2.374 . S
O365 C361 1.251 . S
C366 O370 1.275 . S
C366 O371 1.246 . S
O367 C361 1.263 . S
O367 Tb362 2.353 . S
C368 O372 1.245 . S
C368 O373 1.259 . S
C369 O374 1.250 . S
C369 O375 1.263 . S
O370 Tb362 2.427 . S
O370 C366 1.275 . S
O371 Tb362 2.513 . S
O371 C366 1.246 . S
O372 Tb362 2.453 . S
O372 C368 1.245 . S
O373 Tb360 2.343 . S
O373 Tb362 2.596 . S
O373 C368 1.259 . S
O374 Tb362 2.374 . S
O374 C369 1.250 . S
O375 Tb360 2.353 . S
O375 C369 1.263 . S
C376 O377 1.275 . S
C376 O378 1.246 . S
O377 Tb360 2.427 . S
O377 C376 1.275 . S
O378 Tb360 2.513 . S
O378 C376 1.246 . S
C379 O363 1.245 . S
C379 O364 1.259 . S
Tb380 O383 2.453 . S
Tb380 O384 2.596 . S
Tb380 O385 2.374 . S
Tb380 O393 2.343 . S
Tb380 O395 2.353 . S
Tb380 O397 2.427 . S
Tb380 O398 2.513 . S
C381 O385 1.251 . S
C381 O387 1.263 . S
Tb382 O384 2.343 . S
Tb382 O387 2.353 . S
Tb382 O390 2.427 . S
Tb382 O391 2.513 . S
Tb382 O392 2.453 . S
Tb382 O393 2.596 . S
Tb382 O394 2.374 . S
O383 Tb380 2.453 . S
O383 C399 1.245 . S
O384 Tb380 2.596 . S
O384 Tb382 2.343 . S
O384 C399 1.259 . S
O385 Tb380 2.374 . S
O385 C381 1.251 . S
C386 O390 1.275 . S
C386 O391 1.246 . S
O387 C381 1.263 . S
O387 Tb382 2.353 . S
C388 O392 1.245 . S
C388 O393 1.259 . S
C389 O394 1.250 . S
C389 O395 1.263 . S
O390 Tb382 2.427 . S
O390 C386 1.275 . S
O391 Tb382 2.513 . S
O391 C386 1.246 . S
O392 Tb382 2.453 . S
O392 C388 1.245 . S
O393 Tb380 2.343 . S
O393 Tb382 2.596 . S
O393 C388 1.259 . S
O394 Tb382 2.374 . S
O394 C389 1.250 . S
O395 Tb380 2.353 . S
O395 C389 1.263 . S
C396 O397 1.275 . S
C396 O398 1.246 . S
O397 Tb380 2.427 . S
O397 C396 1.275 . S
O398 Tb380 2.513 . S
O398 C396 1.246 . S
C399 O383 1.245 . S
C399 O384 1.259 . S
Tb400 O403 2.453 . S
Tb400 O404 2.596 . S
Tb400 O405 2.374 . S
Tb400 O413 2.343 . S
Tb400 O415 2.353 . S
Tb400 O417 2.427 . S
Tb400 O418 2.513 . S
C401 O405 1.251 . S
C401 O407 1.263 . S
Tb402 O404 2.343 . S
Tb402 O407 2.353 . S
Tb402 O410 2.427 . S
Tb402 O411 2.513 . S
Tb402 O412 2.453 . S
Tb402 O413 2.596 . S
Tb402 O414 2.374 . S
O403 Tb400 2.453 . S
O403 C419 1.245 . S
O404 Tb400 2.596 . S
O404 Tb402 2.343 . S
O404 C419 1.259 . S
O405 Tb400 2.374 . S
O405 C401 1.251 . S
C406 O410 1.275 . S
C406 O411 1.246 . S
O407 C401 1.263 . S
O407 Tb402 2.353 . S
C408 O412 1.245 . S
C408 O413 1.259 . S
C409 O414 1.250 . S
C409 O415 1.263 . S
O410 Tb402 2.427 . S
O410 C406 1.275 . S
O411 Tb402 2.513 . S
O411 C406 1.246 . S
O412 Tb402 2.453 . S
O412 C408 1.245 . S
O413 Tb400 2.343 . S
O413 Tb402 2.596 . S
O413 C408 1.259 . S
O414 Tb402 2.374 . S
O414 C409 1.250 . S
O415 Tb400 2.353 . S
O415 C409 1.263 . S
C416 O417 1.275 . S
C416 O418 1.246 . S
O417 Tb400 2.427 . S
O417 C416 1.275 . S
O418 Tb400 2.513 . S
O418 C416 1.246 . S
C419 O403 1.245 . S
C419 O404 1.259 . S
Tb420 O423 2.453 . S
Tb420 O424 2.596 . S
Tb420 O425 2.374 . S
Tb420 O433 2.343 . S
Tb420 O435 2.353 . S
Tb420 O437 2.427 . S
Tb420 O438 2.513 . S
C421 O425 1.251 . S
C421 O427 1.263 . S
Tb422 O424 2.343 . S
Tb422 O427 2.353 . S
Tb422 O430 2.427 . S
Tb422 O431 2.513 . S
Tb422 O432 2.453 . S
Tb422 O433 2.596 . S
Tb422 O434 2.374 . S
O423 Tb420 2.453 . S
O423 C439 1.245 . S
O424 Tb420 2.596 . S
O424 Tb422 2.343 . S
O424 C439 1.259 . S
O425 Tb420 2.374 . S
O425 C421 1.251 . S
C426 O430 1.275 . S
C426 O431 1.246 . S
O427 C421 1.263 . S
O427 Tb422 2.353 . S
C428 O432 1.245 . S
C428 O433 1.259 . S
C429 O434 1.250 . S
C429 O435 1.263 . S
O430 Tb422 2.427 . S
O430 C426 1.275 . S
O431 Tb422 2.513 . S
O431 C426 1.246 . S
O432 Tb422 2.453 . S
O432 C428 1.245 . S
O433 Tb420 2.343 . S
O433 Tb422 2.596 . S
O433 C428 1.259 . S
O434 Tb422 2.374 . S
O434 C429 1.250 . S
O435 Tb420 2.353 . S
O435 C429 1.263 . S
C436 O437 1.275 . S
C436 O438 1.246 . S
O437 Tb420 2.427 . S
O437 C436 1.275 . S
O438 Tb420 2.513 . S
O438 C436 1.246 . S
C439 O423 1.245 . S
C439 O424 1.259 . S
Tb440 O443 2.453 . S
Tb440 O444 2.596 . S
Tb440 O445 2.374 . S
Tb440 O453 2.343 . S
Tb440 O455 2.353 . S
Tb440 O457 2.427 . S
Tb440 O458 2.513 . S
C441 O445 1.251 . S
C441 O447 1.263 . S
Tb442 O444 2.343 . S
Tb442 O447 2.353 . S
Tb442 O450 2.427 . S
Tb442 O451 2.513 . S
Tb442 O452 2.453 . S
Tb442 O453 2.596 . S
Tb442 O454 2.374 . S
O443 Tb440 2.453 . S
O443 C459 1.245 . S
O444 Tb440 2.596 . S
O444 Tb442 2.343 . S
O444 C459 1.259 . S
O445 Tb440 2.374 . S
O445 C441 1.251 . S
C446 O450 1.275 . S
C446 O451 1.246 . S
O447 C441 1.263 . S
O447 Tb442 2.353 . S
C448 O452 1.245 . S
C448 O453 1.259 . S
C449 O454 1.250 . S
C449 O455 1.263 . S
O450 Tb442 2.427 . S
O450 C446 1.275 . S
O451 Tb442 2.513 . S
O451 C446 1.246 . S
O452 Tb442 2.453 . S
O452 C448 1.245 . S
O453 Tb440 2.343 . S
O453 Tb442 2.596 . S
O453 C448 1.259 . S
O454 Tb442 2.374 . S
O454 C449 1.250 . S
O455 Tb440 2.353 . S
O455 C449 1.263 . S
C456 O457 1.275 . S
C456 O458 1.246 . S
O457 Tb440 2.427 . S
O457 C456 1.275 . S
O458 Tb440 2.513 . S
O458 C456 1.246 . S
C459 O443 1.245 . S
C459 O444 1.259 . S
Tb460 O463 2.453 . S
Tb460 O464 2.596 . S
Tb460 O465 2.374 . S
Tb460 O473 2.343 . S
Tb460 O475 2.353 . S
Tb460 O477 2.427 . S
Tb460 O478 2.513 . S
C461 O465 1.251 . S
C461 O467 1.263 . S
Tb462 O464 2.343 . S
Tb462 O467 2.353 . S
Tb462 O470 2.427 . S
Tb462 O471 2.513 . S
Tb462 O472 2.453 . S
Tb462 O473 2.596 . S
Tb462 O474 2.374 . S
O463 Tb460 2.453 . S
O463 C479 1.245 . S
O464 Tb460 2.596 . S
O464 Tb462 2.343 . S
O464 C479 1.259 . S
O465 Tb460 2.374 . S
O465 C461 1.251 . S
C466 O470 1.275 . S
C466 O471 1.246 . S
O467 C461 1.263 . S
O467 Tb462 2.353 . S
C468 O472 1.245 . S
C468 O473 1.259 . S
C469 O474 1.250 . S
C469 O475 1.263 . S
O470 Tb462 2.427 . S
O470 C466 1.275 . S
O471 Tb462 2.513 . S
O471 C466 1.246 . S
O472 Tb462 2.453 . S
O472 C468 1.245 . S
O473 Tb460 2.343 . S
O473 Tb462 2.596 . S
O473 C468 1.259 . S
O474 Tb462 2.374 . S
O474 C469 1.250 . S
O475 Tb460 2.353 . S
O475 C469 1.263 . S
C476 O477 1.275 . S
C476 O478 1.246 . S
O477 Tb460 2.427 . S
O477 C476 1.275 . S
O478 Tb460 2.513 . S
O478 C476 1.246 . S
C479 O463 1.245 . S
C479 O464 1.259 . S
Tb480 O483 2.453 . S
Tb480 O484 2.596 . S
Tb480 O485 2.374 . S
Tb480 O493 2.343 . S
Tb480 O495 2.353 . S
Tb480 O497 2.427 . S
Tb480 O498 2.513 . S
C481 O485 1.251 . S
C481 O487 1.263 . S
Tb482 O484 2.343 . S
Tb482 O487 2.353 . S
Tb482 O490 2.427 . S
Tb482 O491 2.513 . S
Tb482 O492 2.453 . S
Tb482 O493 2.596 . S
Tb482 O494 2.374 . S
O483 Tb480 2.453 . S
O483 C499 1.245 . S
O484 Tb480 2.596 . S
O484 Tb482 2.343 . S
O484 C499 1.259 . S
O485 Tb480 2.374 . S
O485 C481 1.251 . S
C486 O490 1.275 . S
C486 O491 1.246 . S
O487 C481 1.263 . S
O487 Tb482 2.353 . S
C488 O492 1.245 . S
C488 O493 1.259 . S
C489 O494 1.250 . S
C489 O495 1.263 . S
O490 Tb482 2.427 . S
O490 C486 1.275 . S
O491 Tb482 2.513 . S
O491 C486 1.246 . S
O492 Tb482 2.453 . S
O492 C488 1.245 . S
O493 Tb480 2.343 . S
O493 Tb482 2.596 . S
O493 C488 1.259 . S
O494 Tb482 2.374 . S
O494 C489 1.250 . S
O495 Tb480 2.353 . S
O495 C489 1.263 . S
C496 O497 1.275 . S
C496 O498 1.246 . S
O497 Tb480 2.427 . S
O497 C496 1.275 . S
O498 Tb480 2.513 . S
O498 C496 1.246 . S
C499 O483 1.245 . S
C499 O484 1.259 . S
Tb500 O503 2.453 . S
Tb500 O504 2.596 . S
Tb500 O505 2.374 . S
Tb500 O513 2.343 . S
Tb500 O515 2.353 . S
Tb500 O517 2.427 . S
Tb500 O518 2.513 . S
C501 O505 1.251 . S
C501 O507 1.263 . S
Tb502 O504 2.343 . S
Tb502 O507 2.353 . S
Tb502 O510 2.427 . S
Tb502 O511 2.513 . S
Tb502 O512 2.453 . S
Tb502 O513 2.596 . S
Tb502 O514 2.374 . S
O503 Tb500 2.453 . S
O503 C519 1.245 . S
O504 Tb500 2.596 . S
O504 Tb502 2.343 . S
O504 C519 1.259 . S
O505 Tb500 2.374 . S
O505 C501 1.251 . S
C506 O510 1.275 . S
C506 O511 1.246 . S
O507 C501 1.263 . S
O507 Tb502 2.353 . S
C508 O512 1.245 . S
C508 O513 1.259 . S
C509 O514 1.250 . S
C509 O515 1.263 . S
O510 Tb502 2.427 . S
O510 C506 1.275 . S
O511 Tb502 2.513 . S
O511 C506 1.246 . S
O512 Tb502 2.453 . S
O512 C508 1.245 . S
O513 Tb500 2.343 . S
O513 Tb502 2.596 . S
O513 C508 1.259 . S
O514 Tb502 2.374 . S
O514 C509 1.250 . S
O515 Tb500 2.353 . S
O515 C509 1.263 . S
C516 O517 1.275 . S
C516 O518 1.246 . S
O517 Tb500 2.427 . S
O517 C516 1.275 . S
O518 Tb500 2.513 . S
O518 C516 1.246 . S
C519 O503 1.245 . S
C519 O504 1.259 . S
Tb520 O523 2.453 . S
Tb520 O524 2.596 . S
Tb520 O525 2.374 . S
Tb520 O533 2.343 . S
Tb520 O535 2.353 . S
Tb520 O537 2.427 . S
Tb520 O538 2.513 . S
C521 O525 1.251 . S
C521 O527 1.263 . S
Tb522 O524 2.343 . S
Tb522 O527 2.353 . S
Tb522 O530 2.427 . S
Tb522 O531 2.513 . S
Tb522 O532 2.453 . S
Tb522 O533 2.596 . S
Tb522 O534 2.374 . S
O523 Tb520 2.453 . S
O523 C539 1.245 . S
O524 Tb520 2.596 . S
O524 Tb522 2.343 . S
O524 C539 1.259 . S
O525 Tb520 2.374 . S
O525 C521 1.251 . S
C526 O530 1.275 . S
C526 O531 1.246 . S
O527 C521 1.263 . S
O527 Tb522 2.353 . S
C528 O532 1.245 . S
C528 O533 1.259 . S
C529 O534 1.250 . S
C529 O535 1.263 . S
O530 Tb522 2.427 . S
O530 C526 1.275 . S
O531 Tb522 2.513 . S
O531 C526 1.246 . S
O532 Tb522 2.453 . S
O532 C528 1.245 . S
O533 Tb520 2.343 . S
O533 Tb522 2.596 . S
O533 C528 1.259 . S
O534 Tb522 2.374 . S
O534 C529 1.250 . S
O535 Tb520 2.353 . S
O535 C529 1.263 . S
C536 O537 1.275 . S
C536 O538 1.246 . S
O537 Tb520 2.427 . S
O537 C536 1.275 . S
O538 Tb520 2.513 . S
O538 C536 1.246 . S
C539 O523 1.245 . S
C539 O524 1.259 . S
Tb540 O543 2.453 . S
Tb540 O544 2.596 . S
Tb540 O545 2.374 . S
Tb540 O553 2.343 . S
Tb540 O555 2.353 . S
Tb540 O557 2.427 . S
Tb540 O558 2.513 . S
C541 O545 1.251 . S
C541 O547 1.263 . S
Tb542 O544 2.343 . S
Tb542 O547 2.353 . S
Tb542 O550 2.427 . S
Tb542 O551 2.513 . S
Tb542 O552 2.453 . S
Tb542 O553 2.596 . S
Tb542 O554 2.374 . S
O543 Tb540 2.453 . S
O543 C559 1.245 . S
O544 Tb540 2.596 . S
O544 Tb542 2.343 . S
O544 C559 1.259 . S
O545 Tb540 2.374 . S
O545 C541 1.251 . S
C546 O550 1.275 . S
C546 O551 1.246 . S
O547 C541 1.263 . S
O547 Tb542 2.353 . S
C548 O552 1.245 . S
C548 O553 1.259 . S
C549 O554 1.250 . S
C549 O555 1.263 . S
O550 Tb542 2.427 . S
O550 C546 1.275 . S
O551 Tb542 2.513 . S
O551 C546 1.246 . S
O552 Tb542 2.453 . S
O552 C548 1.245 . S
O553 Tb540 2.343 . S
O553 Tb542 2.596 . S
O553 C548 1.259 . S
O554 Tb542 2.374 . S
O554 C549 1.250 . S
O555 Tb540 2.353 . S
O555 C549 1.263 . S
C556 O557 1.275 . S
C556 O558 1.246 . S
O557 Tb540 2.427 . S
O557 C556 1.275 . S
O558 Tb540 2.513 . S
O558 C556 1.246 . S
C559 O543 1.245 . S
C559 O544 1.259 . S
Tb560 O563 2.453 . S
Tb560 O564 2.596 . S
Tb560 O565 2.374 . S
Tb560 O573 2.343 . S
Tb560 O575 2.353 . S
Tb560 O577 2.463 . S
Tb560 O578 2.513 . S
C561 O565 1.251 . S
C561 O567 1.263 . S
Tb562 O564 2.343 . S
Tb562 O567 2.353 . S
Tb562 O570 2.427 . S
Tb562 O571 2.513 . S
Tb562 O572 2.453 1_655 S
Tb562 O573 2.596 . S
Tb562 O574 2.374 . S
O563 Tb560 2.453 . S
O563 C579 1.245 . S
O564 Tb560 2.596 . S
O564 Tb562 2.343 . S
O564 C579 1.259 . S
O565 Tb560 2.374 . S
O565 C561 1.251 . S
C566 O570 1.275 . S
C566 O571 1.246 . S
O567 C561 1.263 . S
O567 Tb562 2.353 . S
C568 O572 1.245 . S
C568 O573 1.259 1_455 S
C569 O574 1.250 . S
C569 O575 1.263 . S
O570 Tb562 2.427 . S
O570 C566 1.275 . S
O571 Tb562 2.513 . S
O571 C566 1.246 . S
O572 Tb562 2.453 1_455 S
O572 C568 1.245 . S
O573 Tb560 2.343 . S
O573 Tb562 2.596 . S
O573 C568 1.259 1_655 S
O574 Tb562 2.374 . S
O574 C569 1.250 . S
O575 Tb560 2.353 . S
O575 C569 1.263 . S
C576 O577 1.274 1_455 S
C576 O578 1.233 1_455 S
O577 Tb560 2.463 . S
O577 C576 1.274 1_655 S
O578 Tb560 2.513 . S
O578 C576 1.233 1_655 S
C579 O563 1.245 . S
C579 O564 1.259 . S
Tb580 O583 2.453 . S
Tb580 O584 2.596 . S
Tb580 O585 2.374 . S
Tb580 O593 2.343 . S
Tb580 O595 2.353 . S
Tb580 O597 2.427 . S
Tb580 O598 2.513 . S
C581 O585 1.251 . S
C581 O587 1.263 . S
Tb582 O584 2.343 . S
Tb582 O587 2.353 . S
Tb582 O590 2.427 . S
Tb582 O591 2.513 . S
Tb582 O592 2.453 . S
Tb582 O593 2.596 . S
Tb582 O594 2.374 . S
O583 Tb580 2.453 . S
O583 C599 1.245 . S
O584 Tb580 2.596 . S
O584 Tb582 2.343 . S
O584 C599 1.259 . S
O585 Tb580 2.374 . S
O585 C581 1.251 . S
C586 O590 1.275 . S
C586 O591 1.246 . S
O587 C581 1.263 . S
O587 Tb582 2.353 . S
C588 O592 1.245 . S
C588 O593 1.259 . S
C589 O594 1.250 . S
C589 O595 1.263 . S
O590 Tb582 2.427 . S
O590 C586 1.275 . S
O591 Tb582 2.513 . S
O591 C586 1.246 . S
O592 Tb582 2.453 . S
O592 C588 1.245 . S
O593 Tb580 2.343 . S
O593 Tb582 2.596 . S
O593 C588 1.259 . S
O594 Tb582 2.374 . S
O594 C589 1.250 . S
O595 Tb580 2.353 . S
O595 C589 1.263 . S
C596 O597 1.275 . S
C596 O598 1.246 . S
O597 Tb580 2.427 . S
O597 C596 1.275 . S
O598 Tb580 2.513 . S
O598 C596 1.246 . S
C599 O583 1.245 . S
C599 O584 1.259 . S
Tb600 O603 2.453 . S
Tb600 O604 2.596 . S
Tb600 O605 2.374 . S
Tb600 O613 2.343 . S
Tb600 O615 2.353 . S
Tb600 O617 2.427 . S
Tb600 O618 2.513 . S
C601 O605 1.251 . S
C601 O607 1.263 . S
Tb602 O604 2.343 . S
Tb602 O607 2.353 . S
Tb602 O610 2.427 . S
Tb602 O611 2.513 . S
Tb602 O612 2.453 . S
Tb602 O613 2.596 . S
Tb602 O614 2.374 . S
O603 Tb600 2.453 . S
O603 C619 1.245 . S
O604 Tb600 2.596 . S
O604 Tb602 2.343 . S
O604 C619 1.259 . S
O605 Tb600 2.374 . S
O605 C601 1.251 . S
C606 O610 1.275 . S
C606 O611 1.246 . S
O607 C601 1.263 . S
O607 Tb602 2.353 . S
C608 O612 1.245 . S
C608 O613 1.259 . S
C609 O614 1.250 . S
C609 O615 1.263 . S
O610 Tb602 2.427 . S
O610 C606 1.275 . S
O611 Tb602 2.513 . S
O611 C606 1.246 . S
O612 Tb602 2.453 . S
O612 C608 1.245 . S
O613 Tb600 2.343 . S
O613 Tb602 2.596 . S
O613 C608 1.259 . S
O614 Tb602 2.374 . S
O614 C609 1.250 . S
O615 Tb600 2.353 . S
O615 C609 1.263 . S
C616 O617 1.275 . S
C616 O618 1.246 . S
O617 Tb600 2.427 . S
O617 C616 1.275 . S
O618 Tb600 2.513 . S
O618 C616 1.246 . S
C619 O603 1.245 . S
C619 O604 1.259 . S
Tb620 O623 2.453 . S
Tb620 O624 2.596 . S
Tb620 O625 2.374 . S
Tb620 O633 2.343 . S
Tb620 O635 2.353 . S
Tb620 O637 2.427 . S
Tb620 O638 2.513 . S
C621 O625 1.251 . S
C621 O627 1.263 . S
Tb622 O624 2.343 . S
Tb622 O627 2.353 . S
Tb622 O630 2.427 . S
Tb622 O631 2.513 . S
Tb622 O632 2.453 . S
Tb622 O633 2.596 . S
Tb622 O634 2.374 . S
O623 Tb620 2.453 . S
O623 C639 1.245 . S
O624 Tb620 2.596 . S
O624 Tb622 2.343 . S
O624 C639 1.259 . S
O625 Tb620 2.374 . S
O625 C621 1.251 . S
C626 O630 1.275 . S
C626 O631 1.246 . S
O627 C621 1.263 . S
O627 Tb622 2.353 . S
C628 O632 1.245 . S
C628 O633 1.259 . S
C629 O634 1.250 . S
C629 O635 1.263 . S
O630 Tb622 2.427 . S
O630 C626 1.275 . S
O631 Tb622 2.513 . S
O631 C626 1.246 . S
O632 Tb622 2.453 . S
O632 C628 1.245 . S
O633 Tb620 2.343 . S
O633 Tb622 2.596 . S
O633 C628 1.259 . S
O634 Tb622 2.374 . S
O634 C629 1.250 . S
O635 Tb620 2.353 . S
O635 C629 1.263 . S
C636 O637 1.275 . S
C636 O638 1.246 . S
O637 Tb620 2.427 . S
O637 C636 1.275 . S
O638 Tb620 2.513 . S
O638 C636 1.246 . S
C639 O623 1.245 . S
C639 O624 1.259 . S
Tb640 O643 2.453 . S
Tb640 O644 2.596 . S
Tb640 O645 2.374 . S
Tb640 O653 2.343 . S
Tb640 O655 2.353 . S
Tb640 O657 2.427 . S
Tb640 O658 2.513 . S
C641 O645 1.251 . S
C641 O647 1.263 . S
Tb642 O644 2.343 . S
Tb642 O647 2.353 . S
Tb642 O650 2.427 1_565 S
Tb642 O651 2.513 1_565 S
Tb642 O652 2.453 . S
Tb642 O653 2.596 . S
Tb642 O654 2.374 . S
O643 Tb640 2.453 . S
O643 C659 1.245 . S
O644 Tb640 2.596 . S
O644 Tb642 2.343 . S
O644 C659 1.259 . S
O645 Tb640 2.374 . S
O645 C641 1.251 . S
C646 O650 1.275 . S
C646 O651 1.246 . S
O647 C641 1.263 . S
O647 Tb642 2.353 . S
C648 O652 1.245 . S
C648 O653 1.259 . S
C649 O654 1.250 . S
C649 O655 1.263 . S
O650 Tb642 2.427 1_545 S
O650 C646 1.275 . S
O651 Tb642 2.513 1_545 S
O651 C646 1.246 . S
O652 Tb642 2.453 . S
O652 C648 1.245 . S
O653 Tb640 2.343 . S
O653 Tb642 2.596 . S
O653 C648 1.259 . S
O654 Tb642 2.374 . S
O654 C649 1.250 . S
O655 Tb640 2.353 . S
O655 C649 1.263 . S
C656 O657 1.275 . S
C656 O658 1.246 . S
O657 Tb640 2.427 . S
O657 C656 1.275 . S
O658 Tb640 2.513 . S
O658 C656 1.246 . S
C659 O643 1.245 . S
C659 O644 1.259 . S
Tb660 O663 2.453 . S
Tb660 O664 2.596 . S
Tb660 O665 2.374 . S
Tb660 O673 2.343 . S
Tb660 O675 2.353 . S
Tb660 O677 2.427 . S
Tb660 O678 2.513 . S
C661 O665 1.251 . S
C661 O667 1.263 . S
Tb662 O664 2.343 . S
Tb662 O667 2.353 . S
Tb662 O670 2.427 . S
Tb662 O671 2.513 . S
Tb662 O672 2.453 . S
Tb662 O673 2.596 . S
Tb662 O674 2.374 . S
O663 Tb660 2.453 . S
O663 C679 1.245 . S
O664 Tb660 2.596 . S
O664 Tb662 2.343 . S
O664 C679 1.259 . S
O665 Tb660 2.374 . S
O665 C661 1.251 . S
C666 O670 1.275 . S
C666 O671 1.246 . S
O667 C661 1.263 . S
O667 Tb662 2.353 . S
C668 O672 1.245 . S
C668 O673 1.259 . S
C669 O674 1.250 . S
C669 O675 1.263 . S
O670 Tb662 2.427 . S
O670 C666 1.275 . S
O671 Tb662 2.513 . S
O671 C666 1.246 . S
O672 Tb662 2.453 . S
O672 C668 1.245 . S
O673 Tb660 2.343 . S
O673 Tb662 2.596 . S
O673 C668 1.259 . S
O674 Tb662 2.374 . S
O674 C669 1.250 . S
O675 Tb660 2.353 . S
O675 C669 1.263 . S
C676 O677 1.275 . S
C676 O678 1.246 . S
O677 Tb660 2.427 . S
O677 C676 1.275 . S
O678 Tb660 2.513 . S
O678 C676 1.246 . S
C679 O663 1.245 . S
C679 O664 1.259 . S
Tb680 O683 2.453 . S
Tb680 O684 2.596 . S
Tb680 O685 2.374 . S
Tb680 O693 2.343 . S
Tb680 O695 2.353 . S
Tb680 O697 2.427 . S
Tb680 O698 2.513 . S
C681 O685 1.251 . S
C681 O687 1.263 . S
Tb682 O684 2.343 . S
Tb682 O687 2.353 . S
Tb682 O690 2.427 . S
Tb682 O691 2.513 . S
Tb682 O692 2.453 . S
Tb682 O693 2.596 . S
Tb682 O694 2.374 . S
O683 Tb680 2.453 . S
O683 C699 1.245 . S
O684 Tb680 2.596 . S
O684 Tb682 2.343 . S
O684 C699 1.259 . S
O685 Tb680 2.374 . S
O685 C681 1.251 . S
C686 O690 1.275 . S
C686 O691 1.246 . S
O687 C681 1.263 . S
O687 Tb682 2.353 . S
C688 O692 1.245 . S
C688 O693 1.259 . S
C689 O694 1.250 . S
C689 O695 1.263 . S
O690 Tb682 2.427 . S
O690 C686 1.275 . S
O691 Tb682 2.513 . S
O691 C686 1.246 . S
O692 Tb682 2.453 . S
O692 C688 1.245 . S
O693 Tb680 2.343 . S
O693 Tb682 2.596 . S
O693 C688 1.259 . S
O694 Tb682 2.374 . S
O694 C689 1.250 . S
O695 Tb680 2.353 . S
O695 C689 1.263 . S
C696 O697 1.275 . S
C696 O698 1.246 . S
O697 Tb680 2.427 . S
O697 C696 1.275 . S
O698 Tb680 2.513 . S
O698 C696 1.246 . S
C699 O683 1.245 . S
C699 O684 1.259 . S
Tb700 O703 2.453 . S
Tb700 O704 2.596 . S
Tb700 O705 2.374 . S
Tb700 O713 2.343 . S
Tb700 O715 2.353 . S
Tb700 O717 2.427 . S
Tb700 O718 2.513 . S
C701 O705 1.251 . S
C701 O707 1.263 . S
Tb702 O704 2.343 . S
Tb702 O707 2.353 . S
Tb702 O710 2.427 . S
Tb702 O711 2.513 . S
Tb702 O712 2.453 . S
Tb702 O713 2.596 . S
Tb702 O714 2.374 . S
O703 Tb700 2.453 . S
O703 C719 1.245 . S
O704 Tb700 2.596 . S
O704 Tb702 2.343 . S
O704 C719 1.259 . S
O705 Tb700 2.374 . S
O705 C701 1.251 . S
C706 O710 1.275 . S
C706 O711 1.246 . S
O707 C701 1.263 . S
O707 Tb702 2.353 . S
C708 O712 1.245 . S
C708 O713 1.259 . S
C709 O714 1.250 . S
C709 O715 1.263 . S
O710 Tb702 2.427 . S
O710 C706 1.275 . S
O711 Tb702 2.513 . S
O711 C706 1.246 . S
O712 Tb702 2.453 . S
O712 C708 1.245 . S
O713 Tb700 2.343 . S
O713 Tb702 2.596 . S
O713 C708 1.259 . S
O714 Tb702 2.374 . S
O714 C709 1.250 . S
O715 Tb700 2.353 . S
O715 C709 1.263 . S
C716 O717 1.275 . S
C716 O718 1.246 . S
O717 Tb700 2.427 . S
O717 C716 1.275 . S
O718 Tb700 2.513 . S
O718 C716 1.246 . S
C719 O703 1.245 . S
C719 O704 1.259 . S
Tb720 O723 2.453 . S
Tb720 O724 2.596 . S
Tb720 O725 2.374 . S
Tb720 O733 2.343 . S
Tb720 O735 2.353 . S
Tb720 O737 2.427 . S
Tb720 O738 2.513 . S
C721 O725 1.251 . S
C721 O727 1.263 . S
Tb722 O724 2.343 . S
Tb722 O727 2.353 . S
Tb722 O730 2.427 . S
Tb722 O731 2.513 . S
Tb722 O732 2.453 . S
Tb722 O733 2.596 . S
Tb722 O734 2.374 . S
O723 Tb720 2.453 . S
O723 C739 1.245 . S
O724 Tb720 2.596 . S
O724 Tb722 2.343 . S
O724 C739 1.259 . S
O725 Tb720 2.374 . S
O725 C721 1.251 . S
C726 O730 1.275 . S
C726 O731 1.246 . S
O727 C721 1.263 . S
O727 Tb722 2.353 . S
C728 O732 1.245 . S
C728 O733 1.259 . S
C729 O734 1.250 . S
C729 O735 1.263 . S
O730 Tb722 2.427 . S
O730 C726 1.275 . S
O731 Tb722 2.513 . S
O731 C726 1.246 . S
O732 Tb722 2.453 . S
O732 C728 1.245 . S
O733 Tb720 2.343 . S
O733 Tb722 2.596 . S
O733 C728 1.259 . S
O734 Tb722 2.374 . S
O734 C729 1.250 . S
O735 Tb720 2.353 . S
O735 C729 1.263 . S
C736 O737 1.275 . S
C736 O738 1.246 . S
O737 Tb720 2.427 . S
O737 C736 1.275 . S
O738 Tb720 2.513 . S
O738 C736 1.246 . S
C739 O723 1.245 . S
C739 O724 1.259 . S
Tb740 O743 2.453 . S
Tb740 O744 2.596 . S
Tb740 O745 2.374 . S
Tb740 O753 2.343 . S
Tb740 O755 2.353 . S
Tb740 O757 2.427 . S
Tb740 O758 2.513 . S
C741 O745 1.251 . S
C741 O747 1.263 . S
Tb742 O744 2.343 . S
Tb742 O747 2.353 . S
Tb742 O750 2.427 . S
Tb742 O751 2.513 . S
Tb742 O752 2.453 . S
Tb742 O753 2.596 . S
Tb742 O754 2.374 . S
O743 Tb740 2.453 . S
O743 C759 1.245 . S
O744 Tb740 2.596 . S
O744 Tb742 2.343 . S
O744 C759 1.259 . S
O745 Tb740 2.374 . S
O745 C741 1.251 . S
C746 O750 1.275 . S
C746 O751 1.246 . S
O747 C741 1.263 . S
O747 Tb742 2.353 . S
C748 O752 1.245 . S
C748 O753 1.259 . S
C749 O754 1.250 . S
C749 O755 1.263 . S
O750 Tb742 2.427 . S
O750 C746 1.275 . S
O751 Tb742 2.513 . S
O751 C746 1.246 . S
O752 Tb742 2.453 . S
O752 C748 1.245 . S
O753 Tb740 2.343 . S
O753 Tb742 2.596 . S
O753 C748 1.259 . S
O754 Tb742 2.374 . S
O754 C749 1.250 . S
O755 Tb740 2.353 . S
O755 C749 1.263 . S
C756 O757 1.275 . S
C756 O758 1.246 . S
O757 Tb740 2.427 . S
O757 C756 1.275 . S
O758 Tb740 2.513 . S
O758 C756 1.246 . S
C759 O743 1.245 . S
C759 O744 1.259 . S
Tb760 O763 2.453 . S
Tb760 O764 2.596 . S
Tb760 O765 2.374 . S
Tb760 O773 2.343 . S
Tb760 O775 2.353 . S
Tb760 O777 2.427 . S
Tb760 O778 2.513 . S
C761 O765 1.251 . S
C761 O767 1.263 . S
Tb762 O764 2.343 . S
Tb762 O767 2.353 . S
Tb762 O770 2.427 . S
Tb762 O771 2.513 . S
Tb762 O772 2.453 1_565 S
Tb762 O773 2.596 . S
Tb762 O774 2.374 . S
O763 Tb760 2.453 . S
O763 C779 1.245 . S
O764 Tb760 2.596 . S
O764 Tb762 2.343 . S
O764 C779 1.259 . S
O765 Tb760 2.374 . S
O765 C761 1.251 . S
C766 O770 1.275 . S
C766 O771 1.246 . S
O767 C761 1.263 . S
O767 Tb762 2.353 . S
C768 O772 1.245 . S
C768 O773 1.259 1_545 S
C769 O774 1.250 . S
C769 O775 1.263 . S
O770 Tb762 2.427 . S
O770 C766 1.275 . S
O771 Tb762 2.513 . S
O771 C766 1.246 . S
O772 Tb762 2.453 1_545 S
O772 C768 1.245 . S
O773 Tb760 2.343 . S
O773 Tb762 2.596 . S
O773 C768 1.259 1_565 S
O774 Tb762 2.374 . S
O774 C769 1.250 . S
O775 Tb760 2.353 . S
O775 C769 1.263 . S
C776 O777 1.280 . S
C776 O778 1.295 . S
O777 Tb760 2.427 . S
O777 C776 1.280 . S
O778 Tb760 2.513 . S
O778 C776 1.295 . S
C779 O763 1.245 . S
C779 O764 1.259 . S
Tb780 O783 2.453 . S
Tb780 O784 2.596 . S
Tb780 O785 2.374 . S
Tb780 O793 2.343 . S
Tb780 O795 2.353 . S
Tb780 O797 2.427 . S
Tb780 O798 2.513 . S
C781 O785 1.251 . S
C781 O787 1.263 . S
Tb782 O784 2.343 . S
Tb782 O787 2.353 . S
Tb782 O790 2.427 . S
Tb782 O791 2.513 . S
Tb782 O792 2.453 . S
Tb782 O793 2.596 . S
Tb782 O794 2.374 . S
O783 Tb780 2.453 . S
O783 C799 1.245 . S
O784 Tb780 2.596 . S
O784 Tb782 2.343 . S
O784 C799 1.259 . S
O785 Tb780 2.374 . S
O785 C781 1.251 . S
C786 O790 1.275 . S
C786 O791 1.246 . S
O787 C781 1.263 . S
O787 Tb782 2.353 . S
C788 O792 1.245 . S
C788 O793 1.259 . S
C789 O794 1.250 . S
C789 O795 1.263 . S
O790 Tb782 2.427 . S
O790 C786 1.275 . S
O791 Tb782 2.513 . S
O791 C786 1.246 . S
O792 Tb782 2.453 . S
O792 C788 1.245 . S
O793 Tb780 2.343 . S
O793 Tb782 2.596 . S
O793 C788 1.259 . S
O794 Tb782 2.374 . S
O794 C789 1.250 . S
O795 Tb780 2.353 . S
O795 C789 1.263 . S
C796 O797 1.275 . S
C796 O798 1.246 . S
O797 Tb780 2.427 . S
O797 C796 1.275 . S
O798 Tb780 2.513 . S
O798 C796 1.246 . S
C799 O783 1.245 . S
C799 O784 1.259 . S
Tb800 O803 2.453 . S
Tb800 O804 2.596 . S
Tb800 O805 2.374 . S
Tb800 O813 2.343 . S
Tb800 O815 2.353 . S
Tb800 O817 2.427 . S
Tb800 O818 2.513 . S
C801 O805 1.251 . S
C801 O807 1.263 . S
Tb802 O804 2.343 . S
Tb802 O807 2.353 . S
Tb802 O810 2.427 . S
Tb802 O811 2.513 . S
Tb802 O812 2.453 . S
Tb802 O813 2.596 . S
Tb802 O814 2.374 . S
O803 Tb800 2.453 . S
O803 C819 1.245 . S
O804 Tb800 2.596 . S
O804 Tb802 2.343 . S
O804 C819 1.259 . S
O805 Tb800 2.374 . S
O805 C801 1.251 . S
C806 O810 1.275 . S
C806 O811 1.246 . S
O807 C801 1.263 . S
O807 Tb802 2.353 . S
C808 O812 1.245 . S
C808 O813 1.259 . S
C809 O814 1.250 . S
C809 O815 1.263 . S
O810 Tb802 2.427 . S
O810 C806 1.275 . S
O811 Tb802 2.513 . S
O811 C806 1.246 . S
O812 Tb802 2.453 . S
O812 C808 1.245 . S
O813 Tb800 2.343 . S
O813 Tb802 2.596 . S
O813 C808 1.259 . S
O814 Tb802 2.374 . S
O814 C809 1.250 . S
O815 Tb800 2.353 . S
O815 C809 1.263 . S
C816 O817 1.275 . S
C816 O818 1.246 . S
O817 Tb800 2.427 . S
O817 C816 1.275 . S
O818 Tb800 2.513 . S
O818 C816 1.246 . S
C819 O803 1.245 . S
C819 O804 1.259 . S
Tb820 O823 2.453 . S
Tb820 O824 2.596 . S
Tb820 O825 2.374 . S
Tb820 O833 2.343 . S
Tb820 O835 2.353 . S
Tb820 O837 2.375 1_554 S
Tb820 O838 2.513 . S
C821 O825 1.251 . S
C821 O827 1.263 . S
Tb822 O824 2.343 . S
Tb822 O827 2.353 . S
Tb822 O830 2.427 . S
Tb822 O831 2.513 . S
Tb822 O832 2.453 1_554 S
Tb822 O833 2.596 . S
Tb822 O834 2.374 . S
O823 Tb820 2.453 . S
O823 C839 1.245 . S
O824 Tb820 2.596 . S
O824 Tb822 2.343 . S
O824 C839 1.259 . S
O825 Tb820 2.374 . S
O825 C821 1.251 . S
C826 O830 1.275 . S
C826 O831 1.246 . S
O827 C821 1.263 . S
O827 Tb822 2.353 . S
C828 O832 1.245 . S
C828 O833 1.259 1_556 S
C829 O834 1.250 . S
C829 O835 1.263 . S
O830 Tb822 2.427 . S
O830 C826 1.275 . S
O831 Tb822 2.513 . S
O831 C826 1.246 . S
O832 Tb822 2.453 1_556 S
O832 C828 1.245 . S
O833 Tb820 2.343 . S
O833 Tb822 2.596 . S
O833 C828 1.259 1_554 S
O834 Tb822 2.374 . S
O834 C829 1.250 . S
O835 Tb820 2.353 . S
O835 C829 1.263 . S
C836 O837 1.281 . S
C836 O838 1.246 1_556 S
O837 Tb820 2.375 1_556 S
O837 C836 1.281 . S
O838 Tb820 2.513 . S
O838 C836 1.246 1_554 S
C839 O823 1.245 . S
C839 O824 1.259 . S
Tb840 O843 2.453 . S
Tb840 O844 2.596 . S
Tb840 O845 2.374 . S
Tb840 O853 2.343 . S
Tb840 O855 2.353 . S
Tb840 O857 2.427 . S
Tb840 O858 2.513 . S
C841 O845 1.251 . S
C841 O847 1.263 . S
Tb842 O844 2.343 . S
Tb842 O847 2.353 . S
Tb842 O850 2.427 . S
Tb842 O851 2.513 . S
Tb842 O852 2.453 . S
Tb842 O853 2.596 . S
Tb842 O854 2.374 . S
O843 Tb840 2.453 . S
O843 C859 1.245 . S
O844 Tb840 2.596 . S
O844 Tb842 2.343 . S
O844 C859 1.259 . S
O845 Tb840 2.374 . S
O845 C841 1.251 . S
C846 O850 1.275 . S
C846 O851 1.246 . S
O847 C841 1.263 . S
O847 Tb842 2.353 . S
C848 O852 1.245 . S
C848 O853 1.259 . S
C849 O854 1.250 . S
C849 O855 1.263 . S
O850 Tb842 2.427 . S
O850 C846 1.275 . S
O851 Tb842 2.513 . S
O851 C846 1.246 . S
O852 Tb842 2.453 . S
O852 C848 1.245 . S
O853 Tb840 2.343 . S
O853 Tb842 2.596 . S
O853 C848 1.259 . S
O854 Tb842 2.374 . S
O854 C849 1.250 . S
O855 Tb840 2.353 . S
O855 C849 1.263 . S
C856 O857 1.275 . S
C856 O858 1.246 . S
O857 Tb840 2.427 . S
O857 C856 1.275 . S
O858 Tb840 2.513 . S
O858 C856 1.246 . S
C859 O843 1.245 . S
C859 O844 1.259 . S
Tb860 O863 2.453 . S
Tb860 O864 2.596 . S
Tb860 O865 2.374 . S
Tb860 O873 2.343 . S
Tb860 O875 2.353 . S
Tb860 O877 2.427 . S
Tb860 O878 2.513 . S
C861 O865 1.251 . S
C861 O867 1.263 . S
Tb862 O864 2.343 . S
Tb862 O867 2.353 . S
Tb862 O870 2.427 . S
Tb862 O871 2.513 . S
Tb862 O872 2.453 . S
Tb862 O873 2.596 . S
Tb862 O874 2.374 . S
O863 Tb860 2.453 . S
O863 C879 1.245 . S
O864 Tb860 2.596 . S
O864 Tb862 2.343 . S
O864 C879 1.259 . S
O865 Tb860 2.374 . S
O865 C861 1.251 . S
C866 O870 1.275 . S
C866 O871 1.246 . S
O867 C861 1.263 . S
O867 Tb862 2.353 . S
C868 O872 1.245 . S
C868 O873 1.259 . S
C869 O874 1.250 . S
C869 O875 1.263 . S
O870 Tb862 2.427 . S
O870 C866 1.275 . S
O871 Tb862 2.513 . S
O871 C866 1.246 . S
O872 Tb862 2.453 . S
O872 C868 1.245 . S
O873 Tb860 2.343 . S
O873 Tb862 2.596 . S
O873 C868 1.259 . S
O874 Tb862 2.374 . S
O874 C869 1.250 . S
O875 Tb860 2.353 . S
O875 C869 1.263 . S
C876 O877 1.275 . S
C876 O878 1.246 . S
O877 Tb860 2.427 . S
O877 C876 1.275 . S
O878 Tb860 2.513 . S
O878 C876 1.246 . S
C879 O863 1.245 . S
C879 O864 1.259 . S
Tb880 O883 2.453 . S
Tb880 O884 2.596 . S
Tb880 O885 2.374 . S
Tb880 O893 2.343 . S
Tb880 O895 2.353 . S
Tb880 O897 2.427 . S
Tb880 O898 2.513 . S
C881 O885 1.251 . S
C881 O887 1.263 . S
Tb882 O884 2.343 . S
Tb882 O887 2.353 . S
Tb882 O890 2.427 . S
Tb882 O891 2.513 . S
Tb882 O892 2.453 . S
Tb882 O893 2.596 . S
Tb882 O894 2.374 . S
O883 Tb880 2.453 . S
O883 C899 1.245 . S
O884 Tb880 2.596 . S
O884 Tb882 2.343 . S
O884 C899 1.259 . S
O885 Tb880 2.374 . S
O885 C881 1.251 . S
C886 O890 1.275 . S
C886 O891 1.246 . S
O887 C881 1.263 . S
O887 Tb882 2.353 . S
C888 O892 1.245 . S
C888 O893 1.259 . S
C889 O894 1.250 . S
C889 O895 1.263 . S
O890 Tb882 2.427 . S
O890 C886 1.275 . S
O891 Tb882 2.513 . S
O891 C886 1.246 . S
O892 Tb882 2.453 . S
O892 C888 1.245 . S
O893 Tb880 2.343 . S
O893 Tb882 2.596 . S
O893 C888 1.259 . S
O894 Tb882 2.374 . S
O894 C889 1.250 . S
O895 Tb880 2.353 . S
O895 C889 1.263 . S
C896 O897 1.275 . S
C896 O898 1.246 . S
O897 Tb880 2.427 . S
O897 C896 1.275 . S
O898 Tb880 2.513 . S
O898 C896 1.246 . S
C899 O883 1.245 . S
C899 O884 1.259 . S
Tb900 O903 2.453 . S
Tb900 O904 2.596 . S
Tb900 O905 2.374 . S
Tb900 O913 2.343 . S
Tb900 O915 2.353 . S
Tb900 O917 2.427 . S
Tb900 O918 2.513 . S
C901 O905 1.251 . S
C901 O907 1.263 . S
Tb902 O904 2.343 . S
Tb902 O907 2.353 . S
Tb902 O910 2.427 . S
Tb902 O911 2.513 . S
Tb902 O912 2.453 . S
Tb902 O913 2.596 . S
Tb902 O914 2.374 . S
O903 Tb900 2.453 . S
O903 C919 1.245 . S
O904 Tb900 2.596 . S
O904 Tb902 2.343 . S
O904 C919 1.259 . S
O905 Tb900 2.374 . S
O905 C901 1.251 . S
C906 O910 1.275 . S
C906 O911 1.246 . S
O907 C901 1.263 . S
O907 Tb902 2.353 . S
C908 O912 1.245 . S
C908 O913 1.259 . S
C909 O914 1.250 . S
C909 O915 1.263 . S
O910 Tb902 2.427 . S
O910 C906 1.275 . S
O911 Tb902 2.513 . S
O911 C906 1.246 . S
O912 Tb902 2.453 . S
O912 C908 1.245 . S
O913 Tb900 2.343 . S
O913 Tb902 2.596 . S
O913 C908 1.259 . S
O914 Tb902 2.374 . S
O914 C909 1.250 . S
O915 Tb900 2.353 . S
O915 C909 1.263 . S
C916 O917 1.275 . S
C916 O918 1.246 . S
O917 Tb900 2.427 . S
O917 C916 1.275 . S
O918 Tb900 2.513 . S
O918 C916 1.246 . S
C919 O903 1.245 . S
C919 O904 1.259 . S
Tb920 O923 2.453 . S
Tb920 O924 2.596 . S
Tb920 O925 2.374 . S
Tb920 O933 2.343 . S
Tb920 O935 2.353 . S
Tb920 O937 2.427 . S
Tb920 O938 2.513 . S
C921 O925 1.251 . S
C921 O927 1.263 . S
Tb922 O924 2.343 . S
Tb922 O927 2.353 . S
Tb922 O930 2.427 . S
Tb922 O931 2.513 . S
Tb922 O932 2.453 . S
Tb922 O933 2.596 . S
Tb922 O934 2.374 . S
O923 Tb920 2.453 . S
O923 C939 1.245 . S
O924 Tb920 2.596 . S
O924 Tb922 2.343 . S
O924 C939 1.259 . S
O925 Tb920 2.374 . S
O925 C921 1.251 . S
C926 O930 1.275 . S
C926 O931 1.246 . S
O927 C921 1.263 . S
O927 Tb922 2.353 . S
C928 O932 1.245 . S
C928 O933 1.259 . S
C929 O934 1.250 . S
C929 O935 1.263 . S
O930 Tb922 2.427 . S
O930 C926 1.275 . S
O931 Tb922 2.513 . S
O931 C926 1.246 . S
O932 Tb922 2.453 . S
O932 C928 1.245 . S
O933 Tb920 2.343 . S
O933 Tb922 2.596 . S
O933 C928 1.259 . S
O934 Tb922 2.374 . S
O934 C929 1.250 . S
O935 Tb920 2.353 . S
O935 C929 1.263 . S
C936 O937 1.275 . S
C936 O938 1.246 . S
O937 Tb920 2.427 . S
O937 C936 1.275 . S
O938 Tb920 2.513 . S
O938 C936 1.246 . S
C939 O923 1.245 . S
C939 O924 1.259 . S
Tb940 O943 2.453 . S
Tb940 O944 2.596 . S
Tb940 O945 2.374 . S
Tb940 O953 2.343 . S
Tb940 O955 2.353 . S
Tb940 O957 2.427 . S
Tb940 O958 2.513 . S
C941 O945 1.251 . S
C941 O947 1.263 . S
Tb942 O944 2.343 . S
Tb942 O947 2.353 . S
Tb942 O950 2.427 . S
Tb942 O951 2.513 . S
Tb942 O952 2.453 . S
Tb942 O953 2.596 . S
Tb942 O954 2.374 . S
O943 Tb940 2.453 . S
O943 C959 1.245 . S
O944 Tb940 2.596 . S
O944 Tb942 2.343 . S
O944 C959 1.259 . S
O945 Tb940 2.374 . S
O945 C941 1.251 . S
C946 O950 1.275 . S
C946 O951 1.246 . S
O947 C941 1.263 . S
O947 Tb942 2.353 . S
C948 O952 1.245 . S
C948 O953 1.259 . S
C949 O954 1.250 . S
C949 O955 1.263 . S
O950 Tb942 2.427 . S
O950 C946 1.275 . S
O951 Tb942 2.513 . S
O951 C946 1.246 . S
O952 Tb942 2.453 . S
O952 C948 1.245 . S
O953 Tb940 2.343 . S
O953 Tb942 2.596 . S
O953 C948 1.259 . S
O954 Tb942 2.374 . S
O954 C949 1.250 . S
O955 Tb940 2.353 . S
O955 C949 1.263 . S
C956 O957 1.275 . S
C956 O958 1.246 . S
O957 Tb940 2.427 . S
O957 C956 1.275 . S
O958 Tb940 2.513 . S
O958 C956 1.246 . S
C959 O943 1.245 . S
C959 O944 1.259 . S
Tb960 O963 2.453 . S
Tb960 O964 2.596 . S
Tb960 O965 2.374 . S
Tb960 O973 2.343 . S
Tb960 O975 2.353 . S
Tb960 O977 2.427 . S
Tb960 O978 2.513 . S
C961 O965 1.251 . S
C961 O967 1.263 . S
Tb962 O964 2.343 . S
Tb962 O967 2.353 . S
Tb962 O970 2.427 . S
Tb962 O971 2.513 . S
Tb962 O972 2.453 . S
Tb962 O973 2.596 . S
Tb962 O974 2.374 . S
O963 Tb960 2.453 . S
O963 C979 1.245 . S
O964 Tb960 2.596 . S
O964 Tb962 2.343 . S
O964 C979 1.259 . S
O965 Tb960 2.374 . S
O965 C961 1.251 . S
C966 O970 1.275 . S
C966 O971 1.246 . S
O967 C961 1.263 . S
O967 Tb962 2.353 . S
C968 O972 1.245 . S
C968 O973 1.259 . S
C969 O974 1.250 . S
C969 O975 1.263 . S
O970 Tb962 2.427 . S
O970 C966 1.275 . S
O971 Tb962 2.513 . S
O971 C966 1.246 . S
O972 Tb962 2.453 . S
O972 C968 1.245 . S
O973 Tb960 2.343 . S
O973 Tb962 2.596 . S
O973 C968 1.259 . S
O974 Tb962 2.374 . S
O974 C969 1.250 . S
O975 Tb960 2.353 . S
O975 C969 1.263 . S
C976 O977 1.275 . S
C976 O978 1.246 . S
O977 Tb960 2.427 . S
O977 C976 1.275 . S
O978 Tb960 2.513 . S
O978 C976 1.246 . S
C979 O963 1.245 . S
C979 O964 1.259 . S
Tb980 O983 2.453 . S
Tb980 O984 2.596 . S
Tb980 O985 2.374 . S
Tb980 O993 2.343 . S
Tb980 O995 2.353 . S
Tb980 O997 2.427 . S
Tb980 O998 2.513 . S
C981 O985 1.251 . S
C981 O987 1.263 . S
Tb982 O984 2.343 . S
Tb982 O987 2.353 . S
Tb982 O990 2.427 . S
Tb982 O991 2.513 . S
Tb982 O992 2.453 . S
Tb982 O993 2.596 . S
Tb982 O994 2.374 . S
O983 Tb980 2.453 . S
O983 C999 1.245 . S
O984 Tb980 2.596 . S
O984 Tb982 2.343 . S
O984 C999 1.259 . S
O985 Tb980 2.374 . S
O985 C981 1.251 . S
C986 O990 1.275 . S
C986 O991 1.246 . S
O987 C981 1.263 . S
O987 Tb982 2.353 . S
C988 O992 1.245 . S
C988 O993 1.259 . S
C989 O994 1.250 . S
C989 O995 1.263 . S
O990 Tb982 2.427 . S
O990 C986 1.275 . S
O991 Tb982 2.513 . S
O991 C986 1.246 . S
O992 Tb982 2.453 . S
O992 C988 1.245 . S
O993 Tb980 2.343 . S
O993 Tb982 2.596 . S
O993 C988 1.259 . S
O994 Tb982 2.374 . S
O994 C989 1.250 . S
O995 Tb980 2.353 . S
O995 C989 1.263 . S
C996 O997 1.275 . S
C996 O998 1.246 . S
O997 Tb980 2.427 . S
O997 C996 1.275 . S
O998 Tb980 2.513 . S
O998 C996 1.246 . S
C999 O983 1.245 . S
C999 O984 1.259 . S
Tb1000 O1003 2.454 . S
Tb1000 O1004 2.597 . S
Tb1000 O1005 2.375 . S
Tb1000 O1013 2.343 . S
Tb1000 O1015 2.353 1_655 S
Tb1000 O1017 2.425 1_655 S
Tb1000 O1018 2.512 1_655 S
C1001 O1005 1.251 . S
C1001 O1007 1.263 . S
Tb1002 O1004 2.343 . S
Tb1002 O1007 2.353 . S
Tb1002 O1010 2.427 . S
Tb1002 O1011 2.513 . S
Tb1002 O1012 2.453 . S
Tb1002 O1013 2.596 . S
Tb1002 O1014 2.374 . S
O1003 Tb1000 2.454 . S
O1003 C1019 1.245 . S
O1004 Tb1000 2.597 . S
O1004 Tb1002 2.343 . S
O1004 C1019 1.259 . S
O1005 Tb1000 2.375 . S
O1005 C1001 1.251 . S
C1006 O1010 1.275 . S
C1006 O1011 1.246 . S
O1007 C1001 1.263 . S
O1007 Tb1002 2.353 . S
C1008 O1012 1.258 . S
C1008 O1013 1.263 . S
C1009 O1014 1.250 1_455 S
C1009 O1015 1.263 . S
O1010 Tb1002 2.427 . S
O1010 C1006 1.275 . S
O1011 Tb1002 2.513 . S
O1011 C1006 1.246 . S
O1012 Tb1002 2.453 . S
O1012 C1008 1.258 . S
O1013 Tb1000 2.343 . S
O1013 Tb1002 2.596 . S
O1013 C1008 1.263 . S
O1014 Tb1002 2.374 . S
O1014 C1009 1.250 1_655 S
O1015 Tb1000 2.353 1_455 S
O1015 C1009 1.263 . S
C1016 O1017 1.275 . S
C1016 O1018 1.246 . S
O1017 Tb1000 2.425 1_455 S
O1017 C1016 1.275 . S
O1018 Tb1000 2.512 1_455 S
O1018 C1016 1.246 . S
C1019 O1003 1.245 . S
C1019 O1004 1.259 . S
Tb1020 O1023 2.453 . S
Tb1020 O1024 2.596 . S
Tb1020 O1025 2.374 . S
Tb1020 O1033 2.343 . S
Tb1020 O1035 2.353 . S
Tb1020 O1037 2.427 . S
Tb1020 O1038 2.513 . S
C1021 O1025 1.251 . S
C1021 O1027 1.263 . S
Tb1022 O1024 2.343 . S
Tb1022 O1027 2.353 . S
Tb1022 O1030 2.427 . S
Tb1022 O1031 2.513 . S
Tb1022 O1032 2.453 . S
Tb1022 O1033 2.596 . S
Tb1022 O1034 2.374 . S
O1023 Tb1020 2.453 . S
O1023 C1039 1.245 . S
O1024 Tb1020 2.596 . S
O1024 Tb1022 2.343 . S
O1024 C1039 1.259 . S
O1025 Tb1020 2.374 . S
O1025 C1021 1.251 . S
C1026 O1030 1.275 . S
C1026 O1031 1.246 . S
O1027 C1021 1.263 . S
O1027 Tb1022 2.353 . S
C1028 O1032 1.245 . S
C1028 O1033 1.259 . S
C1029 O1034 1.250 . S
C1029 O1035 1.263 . S
O1030 Tb1022 2.427 . S
O1030 C1026 1.275 . S
O1031 Tb1022 2.513 . S
O1031 C1026 1.246 . S
O1032 Tb1022 2.453 . S
O1032 C1028 1.245 . S
O1033 Tb1020 2.343 . S
O1033 Tb1022 2.596 . S
O1033 C1028 1.259 . S
O1034 Tb1022 2.374 . S
O1034 C1029 1.250 . S
O1035 Tb1020 2.353 . S
O1035 C1029 1.263 . S
C1036 O1037 1.275 . S
C1036 O1038 1.246 . S
O1037 Tb1020 2.427 . S
O1037 C1036 1.275 . S
O1038 Tb1020 2.513 . S
O1038 C1036 1.246 . S
C1039 O1023 1.245 . S
C1039 O1024 1.259 . S
Tb1040 O1043 2.453 . S
Tb1040 O1044 2.596 . S
Tb1040 O1045 2.374 . S
Tb1040 O1053 2.343 . S
Tb1040 O1055 2.353 . S
Tb1040 O1057 2.427 . S
Tb1040 O1058 2.513 . S
C1041 O1045 1.251 . S
C1041 O1047 1.263 . S
Tb1042 O1044 2.343 . S
Tb1042 O1047 2.353 . S
Tb1042 O1050 2.427 . S
Tb1042 O1051 2.513 . S
Tb1042 O1052 2.453 . S
Tb1042 O1053 2.596 . S
Tb1042 O1054 2.374 . S
O1043 Tb1040 2.453 . S
O1043 C1059 1.245 . S
O1044 Tb1040 2.596 . S
O1044 Tb1042 2.343 . S
O1044 C1059 1.259 . S
O1045 Tb1040 2.374 . S
O1045 C1041 1.251 . S
C1046 O1050 1.275 . S
C1046 O1051 1.246 . S
O1047 C1041 1.263 . S
O1047 Tb1042 2.353 . S
C1048 O1052 1.245 . S
C1048 O1053 1.259 . S
C1049 O1054 1.250 . S
C1049 O1055 1.263 . S
O1050 Tb1042 2.427 . S
O1050 C1046 1.275 . S
O1051 Tb1042 2.513 . S
O1051 C1046 1.246 . S
O1052 Tb1042 2.453 . S
O1052 C1048 1.245 . S
O1053 Tb1040 2.343 . S
O1053 Tb1042 2.596 . S
O1053 C1048 1.259 . S
O1054 Tb1042 2.374 . S
O1054 C1049 1.250 . S
O1055 Tb1040 2.353 . S
O1055 C1049 1.263 . S
C1056 O1057 1.275 . S
C1056 O1058 1.246 . S
O1057 Tb1040 2.427 . S
O1057 C1056 1.275 . S
O1058 Tb1040 2.513 . S
O1058 C1056 1.246 . S
C1059 O1043 1.245 . S
C1059 O1044 1.259 . S
Tb1060 O1063 2.453 . S
Tb1060 O1064 2.596 . S
Tb1060 O1065 2.374 . S
Tb1060 O1073 2.343 . S
Tb1060 O1075 2.353 . S
Tb1060 O1077 2.427 . S
Tb1060 O1078 2.513 . S
C1061 O1065 1.251 . S
C1061 O1067 1.263 . S
Tb1062 O1064 2.343 . S
Tb1062 O1067 2.353 . S
Tb1062 O1070 2.427 . S
Tb1062 O1071 2.513 . S
Tb1062 O1072 2.453 . S
Tb1062 O1073 2.596 . S
Tb1062 O1074 2.374 . S
O1063 Tb1060 2.453 . S
O1063 C1079 1.245 . S
O1064 Tb1060 2.596 . S
O1064 Tb1062 2.343 . S
O1064 C1079 1.259 . S
O1065 Tb1060 2.374 . S
O1065 C1061 1.251 . S
C1066 O1070 1.275 . S
C1066 O1071 1.246 . S
O1067 C1061 1.263 . S
O1067 Tb1062 2.353 . S
C1068 O1072 1.245 . S
C1068 O1073 1.259 . S
C1069 O1074 1.250 . S
C1069 O1075 1.263 . S
O1070 Tb1062 2.427 . S
O1070 C1066 1.275 . S
O1071 Tb1062 2.513 . S
O1071 C1066 1.246 . S
O1072 Tb1062 2.453 . S
O1072 C1068 1.245 . S
O1073 Tb1060 2.343 . S
O1073 Tb1062 2.596 . S
O1073 C1068 1.259 . S
O1074 Tb1062 2.374 . S
O1074 C1069 1.250 . S
O1075 Tb1060 2.353 . S
O1075 C1069 1.263 . S
C1076 O1077 1.275 . S
C1076 O1078 1.246 . S
O1077 Tb1060 2.427 . S
O1077 C1076 1.275 . S
O1078 Tb1060 2.513 . S
O1078 C1076 1.246 . S
C1079 O1063 1.245 . S
C1079 O1064 1.259 . S
Tb1080 O1083 2.453 . S
Tb1080 O1084 2.596 . S
Tb1080 O1085 2.374 . S
Tb1080 O1093 2.343 . S
Tb1080 O1095 2.353 . S
Tb1080 O1097 2.427 . S
Tb1080 O1098 2.513 . S
C1081 O1085 1.251 . S
C1081 O1087 1.263 . S
Tb1082 O1084 2.343 . S
Tb1082 O1087 2.353 . S
Tb1082 O1090 2.427 . S
Tb1082 O1091 2.513 . S
Tb1082 O1092 2.453 . S
Tb1082 O1093 2.596 . S
Tb1082 O1094 2.374 . S
O1083 Tb1080 2.453 . S
O1083 C1099 1.245 . S
O1084 Tb1080 2.596 . S
O1084 Tb1082 2.343 . S
O1084 C1099 1.259 . S
O1085 Tb1080 2.374 . S
O1085 C1081 1.251 . S
C1086 O1090 1.275 . S
C1086 O1091 1.246 . S
O1087 C1081 1.263 . S
O1087 Tb1082 2.353 . S
C1088 O1092 1.245 . S
C1088 O1093 1.259 . S
C1089 O1094 1.250 . S
C1089 O1095 1.263 . S
O1090 Tb1082 2.427 . S
O1090 C1086 1.275 . S
O1091 Tb1082 2.513 . S
O1091 C1086 1.246 . S
O1092 Tb1082 2.453 . S
O1092 C1088 1.245 . S
O1093 Tb1080 2.343 . S
O1093 Tb1082 2.596 . S
O1093 C1088 1.259 . S
O1094 Tb1082 2.374 . S
O1094 C1089 1.250 . S
O1095 Tb1080 2.353 . S
O1095 C1089 1.263 . S
C1096 O1097 1.275 . S
C1096 O1098 1.246 . S
O1097 Tb1080 2.427 . S
O1097 C1096 1.275 . S
O1098 Tb1080 2.513 . S
O1098 C1096 1.246 . S
C1099 O1083 1.245 . S
C1099 O1084 1.259 . S
Tb1100 O1103 2.453 . S
Tb1100 O1104 2.596 . S
Tb1100 O1105 2.374 . S
Tb1100 O1113 2.343 . S
Tb1100 O1115 2.353 . S
Tb1100 O1117 2.427 . S
Tb1100 O1118 2.513 . S
C1101 O1105 1.251 . S
C1101 O1107 1.263 . S
Tb1102 O1104 2.343 . S
Tb1102 O1107 2.353 . S
Tb1102 O1110 2.427 . S
Tb1102 O1111 2.513 . S
Tb1102 O1112 2.453 . S
Tb1102 O1113 2.596 . S
Tb1102 O1114 2.374 . S
O1103 Tb1100 2.453 . S
O1103 C1119 1.245 . S
O1104 Tb1100 2.596 . S
O1104 Tb1102 2.343 . S
O1104 C1119 1.259 . S
O1105 Tb1100 2.374 . S
O1105 C1101 1.251 . S
C1106 O1110 1.275 . S
C1106 O1111 1.246 . S
O1107 C1101 1.263 . S
O1107 Tb1102 2.353 . S
C1108 O1112 1.245 . S
C1108 O1113 1.259 . S
C1109 O1114 1.250 . S
C1109 O1115 1.263 . S
O1110 Tb1102 2.427 . S
O1110 C1106 1.275 . S
O1111 Tb1102 2.513 . S
O1111 C1106 1.246 . S
O1112 Tb1102 2.453 . S
O1112 C1108 1.245 . S
O1113 Tb1100 2.343 . S
O1113 Tb1102 2.596 . S
O1113 C1108 1.259 . S
O1114 Tb1102 2.374 . S
O1114 C1109 1.250 . S
O1115 Tb1100 2.353 . S
O1115 C1109 1.263 . S
C1116 O1117 1.275 . S
C1116 O1118 1.246 . S
O1117 Tb1100 2.427 . S
O1117 C1116 1.275 . S
O1118 Tb1100 2.513 . S
O1118 C1116 1.246 . S
C1119 O1103 1.245 . S
C1119 O1104 1.259 . S
Tb1120 O1123 2.453 . S
Tb1120 O1124 2.596 . S
Tb1120 O1125 2.374 . S
Tb1120 O1133 2.343 . S
Tb1120 O1135 2.353 . S
Tb1120 O1137 2.427 . S
Tb1120 O1138 2.513 . S
C1121 O1125 1.251 . S
C1121 O1127 1.263 . S
Tb1122 O1124 2.343 . S
Tb1122 O1127 2.353 . S
Tb1122 O1130 2.427 . S
Tb1122 O1131 2.513 . S
Tb1122 O1132 2.453 . S
Tb1122 O1133 2.596 . S
Tb1122 O1134 2.374 . S
O1123 Tb1120 2.453 . S
O1123 C1139 1.245 . S
O1124 Tb1120 2.596 . S
O1124 Tb1122 2.343 . S
O1124 C1139 1.259 . S
O1125 Tb1120 2.374 . S
O1125 C1121 1.251 . S
C1126 O1130 1.275 . S
C1126 O1131 1.246 . S
O1127 C1121 1.263 . S
O1127 Tb1122 2.353 . S
C1128 O1132 1.245 . S
C1128 O1133 1.259 . S
C1129 O1134 1.250 . S
C1129 O1135 1.263 . S
O1130 Tb1122 2.427 . S
O1130 C1126 1.275 . S
O1131 Tb1122 2.513 . S
O1131 C1126 1.246 . S
O1132 Tb1122 2.453 . S
O1132 C1128 1.245 . S
O1133 Tb1120 2.343 . S
O1133 Tb1122 2.596 . S
O1133 C1128 1.259 . S
O1134 Tb1122 2.374 . S
O1134 C1129 1.250 . S
O1135 Tb1120 2.353 . S
O1135 C1129 1.263 . S
C1136 O1137 1.275 . S
C1136 O1138 1.246 . S
O1137 Tb1120 2.427 . S
O1137 C1136 1.275 . S
O1138 Tb1120 2.513 . S
O1138 C1136 1.246 . S
C1139 O1123 1.245 . S
C1139 O1124 1.259 . S
Tb1140 O1143 2.453 . S
Tb1140 O1144 2.596 . S
Tb1140 O1145 2.374 . S
Tb1140 O1153 2.343 . S
Tb1140 O1155 2.353 . S
Tb1140 O1157 2.427 . S
Tb1140 O1158 2.513 . S
C1141 O1145 1.251 . S
C1141 O1147 1.263 . S
Tb1142 O1144 2.343 . S
Tb1142 O1147 2.353 . S
Tb1142 O1150 2.427 . S
Tb1142 O1151 2.513 . S
Tb1142 O1152 2.453 . S
Tb1142 O1153 2.596 . S
Tb1142 O1154 2.374 . S
O1143 Tb1140 2.453 . S
O1143 C1159 1.245 . S
O1144 Tb1140 2.596 . S
O1144 Tb1142 2.343 . S
O1144 C1159 1.259 . S
O1145 Tb1140 2.374 . S
O1145 C1141 1.251 . S
C1146 O1150 1.275 . S
C1146 O1151 1.246 . S
O1147 C1141 1.263 . S
O1147 Tb1142 2.353 . S
C1148 O1152 1.245 . S
C1148 O1153 1.259 . S
C1149 O1154 1.250 . S
C1149 O1155 1.263 . S
O1150 Tb1142 2.427 . S
O1150 C1146 1.275 . S
O1151 Tb1142 2.513 . S
O1151 C1146 1.246 . S
O1152 Tb1142 2.453 . S
O1152 C1148 1.245 . S
O1153 Tb1140 2.343 . S
O1153 Tb1142 2.596 . S
O1153 C1148 1.259 . S
O1154 Tb1142 2.374 . S
O1154 C1149 1.250 . S
O1155 Tb1140 2.353 . S
O1155 C1149 1.263 . S
C1156 O1157 1.275 . S
C1156 O1158 1.246 . S
O1157 Tb1140 2.427 . S
O1157 C1156 1.275 . S
O1158 Tb1140 2.513 . S
O1158 C1156 1.246 . S
C1159 O1143 1.245 . S
C1159 O1144 1.259 . S
Tb1160 O1163 2.453 . S
Tb1160 O1164 2.596 . S
Tb1160 O1165 2.374 . S
Tb1160 O1173 2.343 . S
Tb1160 O1175 2.353 . S
Tb1160 O1177 2.427 . S
Tb1160 O1178 2.513 . S
C1161 O1165 1.251 . S
C1161 O1167 1.263 . S
Tb1162 O1164 2.343 . S
Tb1162 O1167 2.353 . S
Tb1162 O1170 2.427 . S
Tb1162 O1171 2.513 . S
Tb1162 O1172 2.453 . S
Tb1162 O1173 2.596 . S
Tb1162 O1174 2.374 . S
O1163 Tb1160 2.453 . S
O1163 C1179 1.245 . S
O1164 Tb1160 2.596 . S
O1164 Tb1162 2.343 . S
O1164 C1179 1.259 . S
O1165 Tb1160 2.374 . S
O1165 C1161 1.251 . S
C1166 O1170 1.275 . S
C1166 O1171 1.246 . S
O1167 C1161 1.263 . S
O1167 Tb1162 2.353 . S
C1168 O1172 1.245 . S
C1168 O1173 1.259 . S
C1169 O1174 1.250 . S
C1169 O1175 1.263 . S
O1170 Tb1162 2.427 . S
O1170 C1166 1.275 . S
O1171 Tb1162 2.513 . S
O1171 C1166 1.246 . S
O1172 Tb1162 2.453 . S
O1172 C1168 1.245 . S
O1173 Tb1160 2.343 . S
O1173 Tb1162 2.596 . S
O1173 C1168 1.259 . S
O1174 Tb1162 2.374 . S
O1174 C1169 1.250 . S
O1175 Tb1160 2.353 . S
O1175 C1169 1.263 . S
C1176 O1177 1.275 . S
C1176 O1178 1.246 . S
O1177 Tb1160 2.427 . S
O1177 C1176 1.275 . S
O1178 Tb1160 2.513 . S
O1178 C1176 1.246 . S
C1179 O1163 1.245 . S
C1179 O1164 1.259 . S
Tb1180 O1183 2.453 . S
Tb1180 O1184 2.596 . S
Tb1180 O1185 2.374 . S
Tb1180 O1193 2.343 . S
Tb1180 O1195 2.353 . S
Tb1180 O1197 2.427 . S
Tb1180 O1198 2.513 . S
C1181 O1185 1.251 . S
C1181 O1187 1.263 . S
Tb1182 O1184 2.343 . S
Tb1182 O1187 2.353 . S
Tb1182 O1190 2.427 . S
Tb1182 O1191 2.513 . S
Tb1182 O1192 2.453 . S
Tb1182 O1193 2.596 . S
Tb1182 O1194 2.374 . S
O1183 Tb1180 2.453 . S
O1183 C1199 1.245 . S
O1184 Tb1180 2.596 . S
O1184 Tb1182 2.343 . S
O1184 C1199 1.259 . S
O1185 Tb1180 2.374 . S
O1185 C1181 1.251 . S
C1186 O1190 1.275 . S
C1186 O1191 1.246 . S
O1187 C1181 1.263 . S
O1187 Tb1182 2.353 . S
C1188 O1192 1.245 . S
C1188 O1193 1.259 . S
C1189 O1194 1.250 . S
C1189 O1195 1.263 . S
O1190 Tb1182 2.427 . S
O1190 C1186 1.275 . S
O1191 Tb1182 2.513 . S
O1191 C1186 1.246 . S
O1192 Tb1182 2.453 . S
O1192 C1188 1.245 . S
O1193 Tb1180 2.343 . S
O1193 Tb1182 2.596 . S
O1193 C1188 1.259 . S
O1194 Tb1182 2.374 . S
O1194 C1189 1.250 . S
O1195 Tb1180 2.353 . S
O1195 C1189 1.263 . S
C1196 O1197 1.275 . S
C1196 O1198 1.246 . S
O1197 Tb1180 2.427 . S
O1197 C1196 1.275 . S
O1198 Tb1180 2.513 . S
O1198 C1196 1.246 . S
C1199 O1183 1.245 . S
C1199 O1184 1.259 . S
Tb1200 O1203 2.453 . S
Tb1200 O1204 2.596 . S
Tb1200 O1205 2.374 . S
Tb1200 O1213 2.343 . S
Tb1200 O1215 2.353 . S
Tb1200 O1217 2.427 . S
Tb1200 O1218 2.513 . S
C1201 O1205 1.251 . S
C1201 O1207 1.263 . S
Tb1202 O1204 2.343 . S
Tb1202 O1207 2.353 . S
Tb1202 O1210 2.427 . S
Tb1202 O1211 2.513 . S
Tb1202 O1212 2.453 . S
Tb1202 O1213 2.596 . S
Tb1202 O1214 2.374 . S
O1203 Tb1200 2.453 . S
O1203 C1219 1.245 . S
O1204 Tb1200 2.596 . S
O1204 Tb1202 2.343 . S
O1204 C1219 1.259 . S
O1205 Tb1200 2.374 . S
O1205 C1201 1.251 . S
C1206 O1210 1.275 . S
C1206 O1211 1.246 . S
O1207 C1201 1.263 . S
O1207 Tb1202 2.353 . S
C1208 O1212 1.245 . S
C1208 O1213 1.259 . S
C1209 O1214 1.250 . S
C1209 O1215 1.263 . S
O1210 Tb1202 2.427 . S
O1210 C1206 1.275 . S
O1211 Tb1202 2.513 . S
O1211 C1206 1.246 . S
O1212 Tb1202 2.453 . S
O1212 C1208 1.245 . S
O1213 Tb1200 2.343 . S
O1213 Tb1202 2.596 . S
O1213 C1208 1.259 . S
O1214 Tb1202 2.374 . S
O1214 C1209 1.250 . S
O1215 Tb1200 2.353 . S
O1215 C1209 1.263 . S
C1216 O1217 1.275 . S
C1216 O1218 1.246 . S
O1217 Tb1200 2.427 . S
O1217 C1216 1.275 . S
O1218 Tb1200 2.513 . S
O1218 C1216 1.246 . S
C1219 O1203 1.245 . S
C1219 O1204 1.259 . S
Tb1220 O1223 2.453 . S
Tb1220 O1224 2.596 . S
Tb1220 O1225 2.374 . S
Tb1220 O1233 2.343 . S
Tb1220 O1235 2.353 . S
Tb1220 O1237 2.427 . S
Tb1220 O1238 2.513 . S
C1221 O1225 1.251 . S
C1221 O1227 1.263 . S
Tb1222 O1224 2.343 . S
Tb1222 O1227 2.353 . S
Tb1222 O1230 2.427 . S
Tb1222 O1231 2.513 . S
Tb1222 O1232 2.453 . S
Tb1222 O1233 2.596 . S
Tb1222 O1234 2.374 . S
O1223 Tb1220 2.453 . S
O1223 C1239 1.245 . S
O1224 Tb1220 2.596 . S
O1224 Tb1222 2.343 . S
O1224 C1239 1.259 . S
O1225 Tb1220 2.374 . S
O1225 C1221 1.251 . S
C1226 O1230 1.275 . S
C1226 O1231 1.246 . S
O1227 C1221 1.263 . S
O1227 Tb1222 2.353 . S
C1228 O1232 1.245 . S
C1228 O1233 1.259 . S
C1229 O1234 1.250 . S
C1229 O1235 1.263 . S
O1230 Tb1222 2.427 . S
O1230 C1226 1.275 . S
O1231 Tb1222 2.513 . S
O1231 C1226 1.246 . S
O1232 Tb1222 2.453 . S
O1232 C1228 1.245 . S
O1233 Tb1220 2.343 . S
O1233 Tb1222 2.596 . S
O1233 C1228 1.259 . S
O1234 Tb1222 2.374 . S
O1234 C1229 1.250 . S
O1235 Tb1220 2.353 . S
O1235 C1229 1.263 . S
C1236 O1237 1.275 . S
C1236 O1238 1.246 . S
O1237 Tb1220 2.427 . S
O1237 C1236 1.275 . S
O1238 Tb1220 2.513 . S
O1238 C1236 1.246 . S
C1239 O1223 1.245 . S
C1239 O1224 1.259 . S
Tb1240 O1243 2.453 . S
Tb1240 O1244 2.596 . S
Tb1240 O1245 2.374 . S
Tb1240 O1253 2.343 . S
Tb1240 O1255 2.353 . S
Tb1240 O1257 2.427 . S
Tb1240 O1258 2.513 . S
C1241 O1245 1.251 . S
C1241 O1247 1.263 . S
Tb1242 O1244 2.343 . S
Tb1242 O1247 2.353 . S
Tb1242 O1250 2.427 . S
Tb1242 O1251 2.513 . S
Tb1242 O1252 2.453 . S
Tb1242 O1253 2.596 . S
Tb1242 O1254 2.374 . S
O1243 Tb1240 2.453 . S
O1243 C1259 1.245 . S
O1244 Tb1240 2.596 . S
O1244 Tb1242 2.343 . S
O1244 C1259 1.259 . S
O1245 Tb1240 2.374 . S
O1245 C1241 1.251 . S
C1246 O1250 1.275 . S
C1246 O1251 1.246 . S
O1247 C1241 1.263 . S
O1247 Tb1242 2.353 . S
C1248 O1252 1.245 . S
C1248 O1253 1.259 . S
C1249 O1254 1.250 . S
C1249 O1255 1.263 . S
O1250 Tb1242 2.427 . S
O1250 C1246 1.275 . S
O1251 Tb1242 2.513 . S
O1251 C1246 1.246 . S
O1252 Tb1242 2.453 . S
O1252 C1248 1.245 . S
O1253 Tb1240 2.343 . S
O1253 Tb1242 2.596 . S
O1253 C1248 1.259 . S
O1254 Tb1242 2.374 . S
O1254 C1249 1.250 . S
O1255 Tb1240 2.353 . S
O1255 C1249 1.263 . S
C1256 O1257 1.275 . S
C1256 O1258 1.246 . S
O1257 Tb1240 2.427 . S
O1257 C1256 1.275 . S
O1258 Tb1240 2.513 . S
O1258 C1256 1.246 . S
C1259 O1243 1.245 . S
C1259 O1244 1.259 . S
Tb1260 O1263 2.453 . S
Tb1260 O1264 2.596 . S
Tb1260 O1265 2.374 . S
Tb1260 O1273 2.343 . S
Tb1260 O1275 2.353 . S
Tb1260 O1277 2.427 . S
Tb1260 O1278 2.513 . S
C1261 O1265 1.251 . S
C1261 O1267 1.263 . S
Tb1262 O1264 2.343 . S
Tb1262 O1267 2.353 . S
Tb1262 O1270 2.427 . S
Tb1262 O1271 2.513 . S
Tb1262 O1272 2.453 . S
Tb1262 O1273 2.596 . S
Tb1262 O1274 2.374 . S
O1263 Tb1260 2.453 . S
O1263 C1279 1.245 . S
O1264 Tb1260 2.596 . S
O1264 Tb1262 2.343 . S
O1264 C1279 1.259 . S
O1265 Tb1260 2.374 . S
O1265 C1261 1.251 . S
C1266 O1270 1.275 . S
C1266 O1271 1.246 . S
O1267 C1261 1.263 . S
O1267 Tb1262 2.353 . S
C1268 O1272 1.245 . S
C1268 O1273 1.259 . S
C1269 O1274 1.250 . S
C1269 O1275 1.263 . S
O1270 Tb1262 2.427 . S
O1270 C1266 1.275 . S
O1271 Tb1262 2.513 . S
O1271 C1266 1.246 . S
O1272 Tb1262 2.453 . S
O1272 C1268 1.245 . S
O1273 Tb1260 2.343 . S
O1273 Tb1262 2.596 . S
O1273 C1268 1.259 . S
O1274 Tb1262 2.374 . S
O1274 C1269 1.250 . S
O1275 Tb1260 2.353 . S
O1275 C1269 1.263 . S
C1276 O1277 1.275 . S
C1276 O1278 1.246 . S
O1277 Tb1260 2.427 . S
O1277 C1276 1.275 . S
O1278 Tb1260 2.513 . S
O1278 C1276 1.246 . S
C1279 O1263 1.245 . S
C1279 O1264 1.259 . S
Tb1280 O1283 2.453 . S
Tb1280 O1284 2.596 . S
Tb1280 O1285 2.374 . S
Tb1280 O1293 2.343 . S
Tb1280 O1295 2.353 . S
Tb1280 O1297 2.427 . S
Tb1280 O1298 2.513 . S
C1281 O1285 1.251 . S
C1281 O1287 1.263 . S
Tb1282 O1284 2.343 . S
Tb1282 O1287 2.353 . S
Tb1282 O1290 2.427 . S
Tb1282 O1291 2.513 . S
Tb1282 O1292 2.453 . S
Tb1282 O1293 2.596 . S
Tb1282 O1294 2.374 . S
O1283 Tb1280 2.453 . S
O1283 C1299 1.245 . S
O1284 Tb1280 2.596 . S
O1284 Tb1282 2.343 . S
O1284 C1299 1.259 . S
O1285 Tb1280 2.374 . S
O1285 C1281 1.251 . S
C1286 O1290 1.275 . S
C1286 O1291 1.246 . S
O1287 C1281 1.263 . S
O1287 Tb1282 2.353 . S
C1288 O1292 1.245 . S
C1288 O1293 1.259 . S
C1289 O1294 1.250 . S
C1289 O1295 1.263 . S
O1290 Tb1282 2.427 . S
O1290 C1286 1.275 . S
O1291 Tb1282 2.513 . S
O1291 C1286 1.246 . S
O1292 Tb1282 2.453 . S
O1292 C1288 1.245 . S
O1293 Tb1280 2.343 . S
O1293 Tb1282 2.596 . S
O1293 C1288 1.259 . S
O1294 Tb1282 2.374 . S
O1294 C1289 1.250 . S
O1295 Tb1280 2.353 . S
O1295 C1289 1.263 . S
C1296 O1297 1.275 . S
C1296 O1298 1.246 . S
O1297 Tb1280 2.427 . S
O1297 C1296 1.275 . S
O1298 Tb1280 2.513 . S
O1298 C1296 1.246 . S
C1299 O1283 1.245 . S
C1299 O1284 1.259 . S
Tb1300 O1303 2.453 . S
Tb1300 O1304 2.596 . S
Tb1300 O1305 2.374 . S
Tb1300 O1313 2.343 . S
Tb1300 O1315 2.353 . S
Tb1300 O1317 2.427 . S
Tb1300 O1318 2.513 . S
C1301 O1305 1.251 . S
C1301 O1307 1.263 . S
Tb1302 O1304 2.343 . S
Tb1302 O1307 2.353 . S
Tb1302 O1310 2.427 . S
Tb1302 O1311 2.513 . S
Tb1302 O1312 2.453 . S
Tb1302 O1313 2.596 . S
Tb1302 O1314 2.374 . S
O1303 Tb1300 2.453 . S
O1303 C1319 1.245 . S
O1304 Tb1300 2.596 . S
O1304 Tb1302 2.343 . S
O1304 C1319 1.259 . S
O1305 Tb1300 2.374 . S
O1305 C1301 1.251 . S
C1306 O1310 1.275 . S
C1306 O1311 1.246 . S
O1307 C1301 1.263 . S
O1307 Tb1302 2.353 . S
C1308 O1312 1.245 . S
C1308 O1313 1.259 . S
C1309 O1314 1.250 . S
C1309 O1315 1.263 . S
O1310 Tb1302 2.427 . S
O1310 C1306 1.275 . S
O1311 Tb1302 2.513 . S
O1311 C1306 1.246 . S
O1312 Tb1302 2.453 . S
O1312 C1308 1.245 . S
O1313 Tb1300 2.343 . S
O1313 Tb1302 2.596 . S
O1313 C1308 1.259 . S
O1314 Tb1302 2.374 . S
O1314 C1309 1.250 . S
O1315 Tb1300 2.353 . S
O1315 C1309 1.263 . S
C1316 O1317 1.275 . S
C1316 O1318 1.246 . S
O1317 Tb1300 2.427 . S
O1317 C1316 1.275 . S
O1318 Tb1300 2.513 . S
O1318 C1316 1.246 . S
C1319 O1303 1.245 . S
C1319 O1304 1.259 . S
Tb1320 O1323 2.453 . S
Tb1320 O1324 2.596 . S
Tb1320 O1325 2.374 . S
Tb1320 O1333 2.343 . S
Tb1320 O1335 2.353 . S
Tb1320 O1337 2.427 . S
Tb1320 O1338 2.513 . S
C1321 O1325 1.251 . S
C1321 O1327 1.263 . S
Tb1322 O1324 2.343 . S
Tb1322 O1327 2.353 . S
Tb1322 O1330 2.427 . S
Tb1322 O1331 2.513 . S
Tb1322 O1332 2.453 . S
Tb1322 O1333 2.596 . S
Tb1322 O1334 2.374 . S
O1323 Tb1320 2.453 . S
O1323 C1339 1.245 . S
O1324 Tb1320 2.596 . S
O1324 Tb1322 2.343 . S
O1324 C1339 1.259 . S
O1325 Tb1320 2.374 . S
O1325 C1321 1.251 . S
C1326 O1330 1.275 . S
C1326 O1331 1.246 . S
O1327 C1321 1.263 . S
O1327 Tb1322 2.353 . S
C1328 O1332 1.245 . S
C1328 O1333 1.259 . S
C1329 O1334 1.250 . S
C1329 O1335 1.263 . S
O1330 Tb1322 2.427 . S
O1330 C1326 1.275 . S
O1331 Tb1322 2.513 . S
O1331 C1326 1.246 . S
O1332 Tb1322 2.453 . S
O1332 C1328 1.245 . S
O1333 Tb1320 2.343 . S
O1333 Tb1322 2.596 . S
O1333 C1328 1.259 . S
O1334 Tb1322 2.374 . S
O1334 C1329 1.250 . S
O1335 Tb1320 2.353 . S
O1335 C1329 1.263 . S
C1336 O1337 1.275 . S
C1336 O1338 1.246 . S
O1337 Tb1320 2.427 . S
O1337 C1336 1.275 . S
O1338 Tb1320 2.513 . S
O1338 C1336 1.246 . S
C1339 O1323 1.245 . S
C1339 O1324 1.259 . S
Tb1340 O1343 2.453 . S
Tb1340 O1344 2.596 . S
Tb1340 O1345 2.374 . S
Tb1340 O1353 2.343 . S
Tb1340 O1355 2.353 . S
Tb1340 O1357 2.427 . S
Tb1340 O1358 2.513 . S
C1341 O1345 1.251 . S
C1341 O1347 1.263 . S
Tb1342 O1344 2.343 . S
Tb1342 O1347 2.353 . S
Tb1342 O1350 2.427 . S
Tb1342 O1351 2.513 . S
Tb1342 O1352 2.453 . S
Tb1342 O1353 2.596 . S
Tb1342 O1354 2.374 . S
O1343 Tb1340 2.453 . S
O1343 C1359 1.245 . S
O1344 Tb1340 2.596 . S
O1344 Tb1342 2.343 . S
O1344 C1359 1.259 . S
O1345 Tb1340 2.374 . S
O1345 C1341 1.251 . S
C1346 O1350 1.275 . S
C1346 O1351 1.246 . S
O1347 C1341 1.263 . S
O1347 Tb1342 2.353 . S
C1348 O1352 1.245 . S
C1348 O1353 1.259 . S
C1349 O1354 1.250 . S
C1349 O1355 1.263 . S
O1350 Tb1342 2.427 . S
O1350 C1346 1.275 . S
O1351 Tb1342 2.513 . S
O1351 C1346 1.246 . S
O1352 Tb1342 2.453 . S
O1352 C1348 1.245 . S
O1353 Tb1340 2.343 . S
O1353 Tb1342 2.596 . S
O1353 C1348 1.259 . S
O1354 Tb1342 2.374 . S
O1354 C1349 1.250 . S
O1355 Tb1340 2.353 . S
O1355 C1349 1.263 . S
C1356 O1357 1.275 . S
C1356 O1358 1.246 . S
O1357 Tb1340 2.427 . S
O1357 C1356 1.275 . S
O1358 Tb1340 2.513 . S
O1358 C1356 1.246 . S
C1359 O1343 1.245 . S
C1359 O1344 1.259 . S
Tb1360 O1363 2.453 . S
Tb1360 O1364 2.596 . S
Tb1360 O1365 2.374 . S
Tb1360 O1373 2.343 . S
Tb1360 O1375 2.353 . S
Tb1360 O1377 2.427 . S
Tb1360 O1378 2.513 . S
C1361 O1365 1.251 . S
C1361 O1367 1.263 . S
Tb1362 O1364 2.343 . S
Tb1362 O1367 2.353 . S
Tb1362 O1370 2.427 . S
Tb1362 O1371 2.513 . S
Tb1362 O1372 2.453 . S
Tb1362 O1373 2.596 . S
Tb1362 O1374 2.374 . S
O1363 Tb1360 2.453 . S
O1363 C1379 1.245 . S
O1364 Tb1360 2.596 . S
O1364 Tb1362 2.343 . S
O1364 C1379 1.259 . S
O1365 Tb1360 2.374 . S
O1365 C1361 1.251 . S
C1366 O1370 1.275 . S
C1366 O1371 1.246 . S
O1367 C1361 1.263 . S
O1367 Tb1362 2.353 . S
C1368 O1372 1.245 . S
C1368 O1373 1.259 . S
C1369 O1374 1.250 . S
C1369 O1375 1.263 . S
O1370 Tb1362 2.427 . S
O1370 C1366 1.275 . S
O1371 Tb1362 2.513 . S
O1371 C1366 1.246 . S
O1372 Tb1362 2.453 . S
O1372 C1368 1.245 . S
O1373 Tb1360 2.343 . S
O1373 Tb1362 2.596 . S
O1373 C1368 1.259 . S
O1374 Tb1362 2.374 . S
O1374 C1369 1.250 . S
O1375 Tb1360 2.353 . S
O1375 C1369 1.263 . S
C1376 O1377 1.275 . S
C1376 O1378 1.246 . S
O1377 Tb1360 2.427 . S
O1377 C1376 1.275 . S
O1378 Tb1360 2.513 . S
O1378 C1376 1.246 . S
C1379 O1363 1.245 . S
C1379 O1364 1.259 . S
Tb1380 O1383 2.453 1_554 S
Tb1380 O1384 2.596 . S
Tb1380 O1385 2.374 . S
Tb1380 O1393 2.343 . S
Tb1380 O1395 2.353 . S
Tb1380 O1397 2.427 . S
Tb1380 O1398 2.513 . S
C1381 O1385 1.251 . S
C1381 O1387 1.263 . S
Tb1382 O1384 2.343 . S
Tb1382 O1387 2.353 . S
Tb1382 O1390 2.370 1_554 S
Tb1382 O1391 2.513 . S
Tb1382 O1392 2.453 . S
Tb1382 O1393 2.596 . S
Tb1382 O1394 2.374 . S
O1383 Tb1380 2.453 1_556 S
O1383 C1399 1.245 . S
O1384 Tb1380 2.596 . S
O1384 Tb1382 2.343 . S
O1384 C1399 1.259 1_554 S
O1385 Tb1380 2.374 . S
O1385 C1381 1.251 . S
C1386 O1390 1.279 . S
C1386 O1391 1.246 1_556 S
O1387 C1381 1.263 . S
O1387 Tb1382 2.353 . S
C1388 O1392 1.245 . S
C1388 O1393 1.259 . S
C1389 O1394 1.250 . S
C1389 O1395 1.263 . S
O1390 Tb1382 2.370 1_556 S
O1390 C1386 1.279 . S
O1391 Tb1382 2.513 . S
O1391 C1386 1.246 1_554 S
O1392 Tb1382 2.453 . S
O1392 C1388 1.245 . S
O1393 Tb1380 2.343 . S
O1393 Tb1382 2.596 . S
O1393 C1388 1.259 . S
O1394 Tb1382 2.374 . S
O1394 C1389 1.250 . S
O1395 Tb1380 2.353 . S
O1395 C1389 1.263 . S
C1396 O1397 1.275 . S
C1396 O1398 1.246 . S
O1397 Tb1380 2.427 . S
O1397 C1396 1.275 . S
O1398 Tb1380 2.513 . S
O1398 C1396 1.246 . S
C1399 O1383 1.245 . S
C1399 O1384 1.259 1_556 S
Tb1400 O1403 2.453 . S
Tb1400 O1404 2.596 . S
Tb1400 O1405 2.374 . S
Tb1400 O1413 2.343 . S
Tb1400 O1415 2.353 . S
Tb1400 O1417 2.427 . S
Tb1400 O1418 2.513 . S
C1401 O1405 1.251 . S
C1401 O1407 1.263 . S
Tb1402 O1404 2.343 . S
Tb1402 O1407 2.353 . S
Tb1402 O1410 2.427 . S
Tb1402 O1411 2.513 . S
Tb1402 O1412 2.453 . S
Tb1402 O1413 2.596 . S
Tb1402 O1414 2.374 . S
O1403 Tb1400 2.453 . S
O1403 C1419 1.245 . S
O1404 Tb1400 2.596 . S
O1404 Tb1402 2.343 . S
O1404 C1419 1.259 . S
O1405 Tb1400 2.374 . S
O1405 C1401 1.251 . S
C1406 O1410 1.275 . S
C1406 O1411 1.246 . S
O1407 C1401 1.263 . S
O1407 Tb1402 2.353 . S
C1408 O1412 1.245 . S
C1408 O1413 1.259 . S
C1409 O1414 1.250 . S
C1409 O1415 1.263 . S
O1410 Tb1402 2.427 . S
O1410 C1406 1.275 . S
O1411 Tb1402 2.513 . S
O1411 C1406 1.246 . S
O1412 Tb1402 2.453 . S
O1412 C1408 1.245 . S
O1413 Tb1400 2.343 . S
O1413 Tb1402 2.596 . S
O1413 C1408 1.259 . S
O1414 Tb1402 2.374 . S
O1414 C1409 1.250 . S
O1415 Tb1400 2.353 . S
O1415 C1409 1.263 . S
C1416 O1417 1.275 . S
C1416 O1418 1.246 . S
O1417 Tb1400 2.427 . S
O1417 C1416 1.275 . S
O1418 Tb1400 2.513 . S
O1418 C1416 1.246 . S
C1419 O1403 1.245 . S
C1419 O1404 1.259 . S
Tb1420 O1423 2.453 . S
Tb1420 O1424 2.596 . S
Tb1420 O1425 2.374 . S
Tb1420 O1433 2.343 . S
Tb1420 O1435 2.353 . S
Tb1420 O1437 2.427 . S
Tb1420 O1438 2.513 . S
C1421 O1425 1.251 . S
C1421 O1427 1.263 . S
Tb1422 O1424 2.343 . S
Tb1422 O1427 2.353 . S
Tb1422 O1430 2.427 . S
Tb1422 O1431 2.513 . S
Tb1422 O1432 2.453 . S
Tb1422 O1433 2.596 . S
Tb1422 O1434 2.374 . S
O1423 Tb1420 2.453 . S
O1423 C1439 1.245 . S
O1424 Tb1420 2.596 . S
O1424 Tb1422 2.343 . S
O1424 C1439 1.259 . S
O1425 Tb1420 2.374 . S
O1425 C1421 1.251 . S
C1426 O1430 1.275 . S
C1426 O1431 1.246 . S
O1427 C1421 1.263 . S
O1427 Tb1422 2.353 . S
C1428 O1432 1.245 . S
C1428 O1433 1.259 . S
C1429 O1434 1.250 . S
C1429 O1435 1.263 . S
O1430 Tb1422 2.427 . S
O1430 C1426 1.275 . S
O1431 Tb1422 2.513 . S
O1431 C1426 1.246 . S
O1432 Tb1422 2.453 . S
O1432 C1428 1.245 . S
O1433 Tb1420 2.343 . S
O1433 Tb1422 2.596 . S
O1433 C1428 1.259 . S
O1434 Tb1422 2.374 . S
O1434 C1429 1.250 . S
O1435 Tb1420 2.353 . S
O1435 C1429 1.263 . S
C1436 O1437 1.275 . S
C1436 O1438 1.246 . S
O1437 Tb1420 2.427 . S
O1437 C1436 1.275 . S
O1438 Tb1420 2.513 . S
O1438 C1436 1.246 . S
C1439 O1423 1.245 . S
C1439 O1424 1.259 . S
Tb1440 O1443 2.453 . S
Tb1440 O1444 2.596 . S
Tb1440 O1445 2.374 . S
Tb1440 O1453 2.343 . S
Tb1440 O1455 2.353 . S
Tb1440 O1457 2.427 . S
Tb1440 O1458 2.513 . S
C1441 O1445 1.251 . S
C1441 O1447 1.263 . S
Tb1442 O1444 2.343 . S
Tb1442 O1447 2.353 . S
Tb1442 O1450 2.427 . S
Tb1442 O1451 2.513 . S
Tb1442 O1452 2.453 . S
Tb1442 O1453 2.596 . S
Tb1442 O1454 2.374 . S
O1443 Tb1440 2.453 . S
O1443 C1459 1.245 . S
O1444 Tb1440 2.596 . S
O1444 Tb1442 2.343 . S
O1444 C1459 1.259 . S
O1445 Tb1440 2.374 . S
O1445 C1441 1.251 . S
C1446 O1450 1.275 . S
C1446 O1451 1.246 . S
O1447 C1441 1.263 . S
O1447 Tb1442 2.353 . S
C1448 O1452 1.245 . S
C1448 O1453 1.259 . S
C1449 O1454 1.250 . S
C1449 O1455 1.263 . S
O1450 Tb1442 2.427 . S
O1450 C1446 1.275 . S
O1451 Tb1442 2.513 . S
O1451 C1446 1.246 . S
O1452 Tb1442 2.453 . S
O1452 C1448 1.245 . S
O1453 Tb1440 2.343 . S
O1453 Tb1442 2.596 . S
O1453 C1448 1.259 . S
O1454 Tb1442 2.374 . S
O1454 C1449 1.250 . S
O1455 Tb1440 2.353 . S
O1455 C1449 1.263 . S
C1456 O1457 1.275 . S
C1456 O1458 1.246 . S
O1457 Tb1440 2.427 . S
O1457 C1456 1.275 . S
O1458 Tb1440 2.513 . S
O1458 C1456 1.246 . S
C1459 O1443 1.245 . S
C1459 O1444 1.259 . S
Tb1460 O1463 2.453 . S
Tb1460 O1464 2.596 . S
Tb1460 O1465 2.374 . S
Tb1460 O1473 2.343 . S
Tb1460 O1475 2.353 . S
Tb1460 O1477 2.427 . S
Tb1460 O1478 2.513 . S
C1461 O1465 1.251 . S
C1461 O1467 1.263 . S
Tb1462 O1464 2.343 . S
Tb1462 O1467 2.353 . S
Tb1462 O1470 2.427 . S
Tb1462 O1471 2.513 . S
Tb1462 O1472 2.453 . S
Tb1462 O1473 2.596 . S
Tb1462 O1474 2.374 . S
O1463 Tb1460 2.453 . S
O1463 C1479 1.245 . S
O1464 Tb1460 2.596 . S
O1464 Tb1462 2.343 . S
O1464 C1479 1.259 . S
O1465 Tb1460 2.374 . S
O1465 C1461 1.251 . S
C1466 O1470 1.275 . S
C1466 O1471 1.246 . S
O1467 C1461 1.263 . S
O1467 Tb1462 2.353 . S
C1468 O1472 1.245 . S
C1468 O1473 1.259 . S
C1469 O1474 1.250 . S
C1469 O1475 1.263 . S
O1470 Tb1462 2.427 . S
O1470 C1466 1.275 . S
O1471 Tb1462 2.513 . S
O1471 C1466 1.246 . S
O1472 Tb1462 2.453 . S
O1472 C1468 1.245 . S
O1473 Tb1460 2.343 . S
O1473 Tb1462 2.596 . S
O1473 C1468 1.259 . S
O1474 Tb1462 2.374 . S
O1474 C1469 1.250 . S
O1475 Tb1460 2.353 . S
O1475 C1469 1.263 . S
C1476 O1477 1.275 . S
C1476 O1478 1.246 . S
O1477 Tb1460 2.427 . S
O1477 C1476 1.275 . S
O1478 Tb1460 2.513 . S
O1478 C1476 1.246 . S
C1479 O1463 1.245 . S
C1479 O1464 1.259 . S
Tb1480 O1483 2.453 . S
Tb1480 O1484 2.596 . S
Tb1480 O1485 2.374 . S
Tb1480 O1493 2.343 . S
Tb1480 O1495 2.353 . S
Tb1480 O1497 2.427 . S
Tb1480 O1498 2.513 . S
C1481 O1485 1.251 1_655 S
C1481 O1487 1.263 . S
Tb1482 O1484 2.343 . S
Tb1482 O1487 2.353 1_455 S
Tb1482 O1490 2.425 1_455 S
Tb1482 O1491 2.512 1_455 S
Tb1482 O1492 2.454 . S
Tb1482 O1493 2.597 . S
Tb1482 O1494 2.375 . S
O1483 Tb1480 2.453 . S
O1483 C1499 1.258 . S
O1484 Tb1480 2.596 . S
O1484 Tb1482 2.343 . S
O1484 C1499 1.263 . S
O1485 Tb1480 2.374 . S
O1485 C1481 1.251 1_455 S
C1486 O1490 1.275 . S
C1486 O1491 1.246 . S
O1487 C1481 1.263 . S
O1487 Tb1482 2.353 1_655 S
C1488 O1492 1.245 . S
C1488 O1493 1.259 . S
C1489 O1494 1.250 . S
C1489 O1495 1.263 . S
O1490 Tb1482 2.425 1_655 S
O1490 C1486 1.275 . S
O1491 Tb1482 2.512 1_655 S
O1491 C1486 1.246 . S
O1492 Tb1482 2.454 . S
O1492 C1488 1.245 . S
O1493 Tb1480 2.343 . S
O1493 Tb1482 2.597 . S
O1493 C1488 1.259 . S
O1494 Tb1482 2.375 . S
O1494 C1489 1.250 . S
O1495 Tb1480 2.353 . S
O1495 C1489 1.263 . S
C1496 O1497 1.275 . S
C1496 O1498 1.246 . S
O1497 Tb1480 2.427 . S
O1497 C1496 1.275 . S
O1498 Tb1480 2.513 . S
O1498 C1496 1.246 . S
C1499 O1483 1.258 . S
C1499 O1484 1.263 . S
Tb1500 O1503 2.453 . S
Tb1500 O1504 2.596 . S
Tb1500 O1505 2.374 . S
Tb1500 O1513 2.343 . S
Tb1500 O1515 2.353 . S
Tb1500 O1517 2.427 . S
Tb1500 O1518 2.513 . S
C1501 O1505 1.251 . S
C1501 O1507 1.263 . S
Tb1502 O1504 2.343 . S
Tb1502 O1507 2.353 . S
Tb1502 O1510 2.427 . S
Tb1502 O1511 2.513 . S
Tb1502 O1512 2.453 . S
Tb1502 O1513 2.596 . S
Tb1502 O1514 2.374 . S
O1503 Tb1500 2.453 . S
O1503 C1519 1.245 . S
O1504 Tb1500 2.596 . S
O1504 Tb1502 2.343 . S
O1504 C1519 1.259 . S
O1505 Tb1500 2.374 . S
O1505 C1501 1.251 . S
C1506 O1510 1.275 . S
C1506 O1511 1.246 . S
O1507 C1501 1.263 . S
O1507 Tb1502 2.353 . S
C1508 O1512 1.245 . S
C1508 O1513 1.259 . S
C1509 O1514 1.250 . S
C1509 O1515 1.263 . S
O1510 Tb1502 2.427 . S
O1510 C1506 1.275 . S
O1511 Tb1502 2.513 . S
O1511 C1506 1.246 . S
O1512 Tb1502 2.453 . S
O1512 C1508 1.245 . S
O1513 Tb1500 2.343 . S
O1513 Tb1502 2.596 . S
O1513 C1508 1.259 . S
O1514 Tb1502 2.374 . S
O1514 C1509 1.250 . S
O1515 Tb1500 2.353 . S
O1515 C1509 1.263 . S
C1516 O1517 1.275 . S
C1516 O1518 1.246 . S
O1517 Tb1500 2.427 . S
O1517 C1516 1.275 . S
O1518 Tb1500 2.513 . S
O1518 C1516 1.246 . S
C1519 O1503 1.245 . S
C1519 O1504 1.259 . S
Tb1520 O1523 2.453 . S
Tb1520 O1524 2.596 . S
Tb1520 O1525 2.374 . S
Tb1520 O1533 2.343 . S
Tb1520 O1535 2.353 . S
Tb1520 O1537 2.427 . S
Tb1520 O1538 2.513 . S
C1521 O1525 1.251 . S
C1521 O1527 1.263 . S
Tb1522 O1524 2.343 . S
Tb1522 O1527 2.353 . S
Tb1522 O1530 2.427 . S
Tb1522 O1531 2.513 . S
Tb1522 O1532 2.453 . S
Tb1522 O1533 2.596 . S
Tb1522 O1534 2.374 . S
O1523 Tb1520 2.453 . S
O1523 C1539 1.245 . S
O1524 Tb1520 2.596 . S
O1524 Tb1522 2.343 . S
O1524 C1539 1.259 . S
O1525 Tb1520 2.374 . S
O1525 C1521 1.251 . S
C1526 O1530 1.275 . S
C1526 O1531 1.246 . S
O1527 C1521 1.263 . S
O1527 Tb1522 2.353 . S
C1528 O1532 1.245 . S
C1528 O1533 1.259 . S
C1529 O1534 1.250 . S
C1529 O1535 1.263 . S
O1530 Tb1522 2.427 . S
O1530 C1526 1.275 . S
O1531 Tb1522 2.513 . S
O1531 C1526 1.246 . S
O1532 Tb1522 2.453 . S
O1532 C1528 1.245 . S
O1533 Tb1520 2.343 . S
O1533 Tb1522 2.596 . S
O1533 C1528 1.259 . S
O1534 Tb1522 2.374 . S
O1534 C1529 1.250 . S
O1535 Tb1520 2.353 . S
O1535 C1529 1.263 . S
C1536 O1537 1.275 . S
C1536 O1538 1.246 . S
O1537 Tb1520 2.427 . S
O1537 C1536 1.275 . S
O1538 Tb1520 2.513 . S
O1538 C1536 1.246 . S
C1539 O1523 1.245 . S
C1539 O1524 1.259 . S
Tb1540 O1543 2.453 . S
Tb1540 O1544 2.596 . S
Tb1540 O1545 2.374 . S
Tb1540 O1553 2.343 . S
Tb1540 O1555 2.353 . S
Tb1540 O1557 2.427 . S
Tb1540 O1558 2.513 . S
C1541 O1545 1.251 . S
C1541 O1547 1.263 . S
Tb1542 O1544 2.343 . S
Tb1542 O1547 2.353 . S
Tb1542 O1550 2.427 . S
Tb1542 O1551 2.513 . S
Tb1542 O1552 2.453 . S
Tb1542 O1553 2.596 . S
Tb1542 O1554 2.374 . S
O1543 Tb1540 2.453 . S
O1543 C1559 1.245 . S
O1544 Tb1540 2.596 . S
O1544 Tb1542 2.343 . S
O1544 C1559 1.259 . S
O1545 Tb1540 2.374 . S
O1545 C1541 1.251 . S
C1546 O1550 1.275 . S
C1546 O1551 1.246 . S
O1547 C1541 1.263 . S
O1547 Tb1542 2.353 . S
C1548 O1552 1.245 . S
C1548 O1553 1.259 . S
C1549 O1554 1.250 . S
C1549 O1555 1.263 . S
O1550 Tb1542 2.427 . S
O1550 C1546 1.275 . S
O1551 Tb1542 2.513 . S
O1551 C1546 1.246 . S
O1552 Tb1542 2.453 . S
O1552 C1548 1.245 . S
O1553 Tb1540 2.343 . S
O1553 Tb1542 2.596 . S
O1553 C1548 1.259 . S
O1554 Tb1542 2.374 . S
O1554 C1549 1.250 . S
O1555 Tb1540 2.353 . S
O1555 C1549 1.263 . S
C1556 O1557 1.275 . S
C1556 O1558 1.246 . S
O1557 Tb1540 2.427 . S
O1557 C1556 1.275 . S
O1558 Tb1540 2.513 . S
O1558 C1556 1.246 . S
C1559 O1543 1.245 . S
C1559 O1544 1.259 . S
Tb1560 O1563 2.453 . S
Tb1560 O1564 2.596 . S
Tb1560 O1565 2.374 . S
Tb1560 O1573 2.343 . S
Tb1560 O1575 2.353 . S
Tb1560 O1577 2.427 . S
Tb1560 O1578 2.513 . S
C1561 O1565 1.251 . S
C1561 O1567 1.263 . S
Tb1562 O1564 2.343 . S
Tb1562 O1567 2.353 . S
Tb1562 O1570 2.427 . S
Tb1562 O1571 2.513 . S
Tb1562 O1572 2.453 . S
Tb1562 O1573 2.596 . S
Tb1562 O1574 2.374 . S
O1563 Tb1560 2.453 . S
O1563 C1579 1.245 . S
O1564 Tb1560 2.596 . S
O1564 Tb1562 2.343 . S
O1564 C1579 1.259 . S
O1565 Tb1560 2.374 . S
O1565 C1561 1.251 . S
C1566 O1570 1.275 . S
C1566 O1571 1.246 . S
O1567 C1561 1.263 . S
O1567 Tb1562 2.353 . S
C1568 O1572 1.245 . S
C1568 O1573 1.259 . S
C1569 O1574 1.250 . S
C1569 O1575 1.263 . S
O1570 Tb1562 2.427 . S
O1570 C1566 1.275 . S
O1571 Tb1562 2.513 . S
O1571 C1566 1.246 . S
O1572 Tb1562 2.453 . S
O1572 C1568 1.245 . S
O1573 Tb1560 2.343 . S
O1573 Tb1562 2.596 . S
O1573 C1568 1.259 . S
O1574 Tb1562 2.374 . S
O1574 C1569 1.250 . S
O1575 Tb1560 2.353 . S
O1575 C1569 1.263 . S
C1576 O1577 1.275 . S
C1576 O1578 1.246 . S
O1577 Tb1560 2.427 . S
O1577 C1576 1.275 . S
O1578 Tb1560 2.513 . S
O1578 C1576 1.246 . S
C1579 O1563 1.245 . S
C1579 O1564 1.259 . S
Tb1580 O1583 2.453 . S
Tb1580 O1584 2.596 . S
Tb1580 O1585 2.374 . S
Tb1580 O1593 2.343 . S
Tb1580 O1595 2.353 . S
Tb1580 O1597 2.427 . S
Tb1580 O1598 2.513 . S
C1581 O1585 1.251 . S
C1581 O1587 1.263 . S
Tb1582 O1584 2.343 . S
Tb1582 O1587 2.353 . S
Tb1582 O1590 2.427 . S
Tb1582 O1591 2.513 . S
Tb1582 O1592 2.453 . S
Tb1582 O1593 2.596 . S
Tb1582 O1594 2.374 . S
O1583 Tb1580 2.453 . S
O1583 C1599 1.245 . S
O1584 Tb1580 2.596 . S
O1584 Tb1582 2.343 . S
O1584 C1599 1.259 . S
O1585 Tb1580 2.374 . S
O1585 C1581 1.251 . S
C1586 O1590 1.275 . S
C1586 O1591 1.246 . S
O1587 C1581 1.263 . S
O1587 Tb1582 2.353 . S
C1588 O1592 1.245 . S
C1588 O1593 1.259 . S
C1589 O1594 1.250 . S
C1589 O1595 1.263 . S
O1590 Tb1582 2.427 . S
O1590 C1586 1.275 . S
O1591 Tb1582 2.513 . S
O1591 C1586 1.246 . S
O1592 Tb1582 2.453 . S
O1592 C1588 1.245 . S
O1593 Tb1580 2.343 . S
O1593 Tb1582 2.596 . S
O1593 C1588 1.259 . S
O1594 Tb1582 2.374 . S
O1594 C1589 1.250 . S
O1595 Tb1580 2.353 . S
O1595 C1589 1.263 . S
C1596 O1597 1.275 . S
C1596 O1598 1.246 . S
O1597 Tb1580 2.427 . S
O1597 C1596 1.275 . S
O1598 Tb1580 2.513 . S
O1598 C1596 1.246 . S
C1599 O1583 1.245 . S
C1599 O1584 1.259 . S
Tb1600 O1603 2.453 . S
Tb1600 O1604 2.596 . S
Tb1600 O1605 2.374 . S
Tb1600 O1613 2.343 . S
Tb1600 O1615 2.353 . S
Tb1600 O1617 2.427 . S
Tb1600 O1618 2.513 . S
C1601 O1605 1.251 . S
C1601 O1607 1.263 . S
Tb1602 O1604 2.343 . S
Tb1602 O1607 2.353 . S
Tb1602 O1610 2.427 . S
Tb1602 O1611 2.513 . S
Tb1602 O1612 2.453 . S
Tb1602 O1613 2.596 . S
Tb1602 O1614 2.374 . S
O1603 Tb1600 2.453 . S
O1603 C1619 1.245 . S
O1604 Tb1600 2.596 . S
O1604 Tb1602 2.343 . S
O1604 C1619 1.259 . S
O1605 Tb1600 2.374 . S
O1605 C1601 1.251 . S
C1606 O1610 1.275 . S
C1606 O1611 1.246 . S
O1607 C1601 1.263 . S
O1607 Tb1602 2.353 . S
C1608 O1612 1.245 . S
C1608 O1613 1.259 . S
C1609 O1614 1.250 . S
C1609 O1615 1.263 . S
O1610 Tb1602 2.427 . S
O1610 C1606 1.275 . S
O1611 Tb1602 2.513 . S
O1611 C1606 1.246 . S
O1612 Tb1602 2.453 . S
O1612 C1608 1.245 . S
O1613 Tb1600 2.343 . S
O1613 Tb1602 2.596 . S
O1613 C1608 1.259 . S
O1614 Tb1602 2.374 . S
O1614 C1609 1.250 . S
O1615 Tb1600 2.353 . S
O1615 C1609 1.263 . S
C1616 O1617 1.275 . S
C1616 O1618 1.246 . S
O1617 Tb1600 2.427 . S
O1617 C1616 1.275 . S
O1618 Tb1600 2.513 . S
O1618 C1616 1.246 . S
C1619 O1603 1.245 . S
C1619 O1604 1.259 . S
Tb1620 O1623 2.453 . S
Tb1620 O1624 2.596 . S
Tb1620 O1625 2.374 . S
Tb1620 O1633 2.343 . S
Tb1620 O1635 2.353 . S
Tb1620 O1637 2.427 . S
Tb1620 O1638 2.513 . S
C1621 O1625 1.251 . S
C1621 O1627 1.263 . S
Tb1622 O1624 2.343 . S
Tb1622 O1627 2.353 . S
Tb1622 O1630 2.427 . S
Tb1622 O1631 2.513 . S
Tb1622 O1632 2.453 . S
Tb1622 O1633 2.596 . S
Tb1622 O1634 2.374 . S
O1623 Tb1620 2.453 . S
O1623 C1639 1.245 . S
O1624 Tb1620 2.596 . S
O1624 Tb1622 2.343 . S
O1624 C1639 1.259 . S
O1625 Tb1620 2.374 . S
O1625 C1621 1.251 . S
C1626 O1630 1.275 . S
C1626 O1631 1.246 . S
O1627 C1621 1.263 . S
O1627 Tb1622 2.353 . S
C1628 O1632 1.245 . S
C1628 O1633 1.259 . S
C1629 O1634 1.250 . S
C1629 O1635 1.263 . S
O1630 Tb1622 2.427 . S
O1630 C1626 1.275 . S
O1631 Tb1622 2.513 . S
O1631 C1626 1.246 . S
O1632 Tb1622 2.453 . S
O1632 C1628 1.245 . S
O1633 Tb1620 2.343 . S
O1633 Tb1622 2.596 . S
O1633 C1628 1.259 . S
O1634 Tb1622 2.374 . S
O1634 C1629 1.250 . S
O1635 Tb1620 2.353 . S
O1635 C1629 1.263 . S
C1636 O1637 1.275 . S
C1636 O1638 1.246 . S
O1637 Tb1620 2.427 . S
O1637 C1636 1.275 . S
O1638 Tb1620 2.513 . S
O1638 C1636 1.246 . S
C1639 O1623 1.245 . S
C1639 O1624 1.259 . S
Tb1640 O1643 2.453 . S
Tb1640 O1644 2.596 . S
Tb1640 O1645 2.374 . S
Tb1640 O1653 2.343 . S
Tb1640 O1655 2.353 . S
Tb1640 O1657 2.427 . S
Tb1640 O1658 2.513 . S
C1641 O1645 1.251 . S
C1641 O1647 1.263 . S
Tb1642 O1644 2.343 . S
Tb1642 O1647 2.353 . S
Tb1642 O1650 2.427 . S
Tb1642 O1651 2.513 . S
Tb1642 O1652 2.453 . S
Tb1642 O1653 2.596 . S
Tb1642 O1654 2.374 . S
O1643 Tb1640 2.453 . S
O1643 C1659 1.245 . S
O1644 Tb1640 2.596 . S
O1644 Tb1642 2.343 . S
O1644 C1659 1.259 . S
O1645 Tb1640 2.374 . S
O1645 C1641 1.251 . S
C1646 O1650 1.275 . S
C1646 O1651 1.246 . S
O1647 C1641 1.263 . S
O1647 Tb1642 2.353 . S
C1648 O1652 1.245 . S
C1648 O1653 1.259 . S
C1649 O1654 1.250 . S
C1649 O1655 1.263 . S
O1650 Tb1642 2.427 . S
O1650 C1646 1.275 . S
O1651 Tb1642 2.513 . S
O1651 C1646 1.246 . S
O1652 Tb1642 2.453 . S
O1652 C1648 1.245 . S
O1653 Tb1640 2.343 . S
O1653 Tb1642 2.596 . S
O1653 C1648 1.259 . S
O1654 Tb1642 2.374 . S
O1654 C1649 1.250 . S
O1655 Tb1640 2.353 . S
O1655 C1649 1.263 . S
C1656 O1657 1.275 . S
C1656 O1658 1.246 . S
O1657 Tb1640 2.427 . S
O1657 C1656 1.275 . S
O1658 Tb1640 2.513 . S
O1658 C1656 1.246 . S
C1659 O1643 1.245 . S
C1659 O1644 1.259 . S
Tb1660 O1663 2.453 . S
Tb1660 O1664 2.596 . S
Tb1660 O1665 2.374 . S
Tb1660 O1673 2.343 . S
Tb1660 O1675 2.353 . S
Tb1660 O1677 2.427 . S
Tb1660 O1678 2.513 . S
C1661 O1665 1.251 . S
C1661 O1667 1.263 . S
Tb1662 O1664 2.343 . S
Tb1662 O1667 2.353 . S
Tb1662 O1670 2.427 . S
Tb1662 O1671 2.513 . S
Tb1662 O1672 2.453 . S
Tb1662 O1673 2.596 . S
Tb1662 O1674 2.374 . S
O1663 Tb1660 2.453 . S
O1663 C1679 1.245 . S
O1664 Tb1660 2.596 . S
O1664 Tb1662 2.343 . S
O1664 C1679 1.259 . S
O1665 Tb1660 2.374 . S
O1665 C1661 1.251 . S
C1666 O1670 1.275 . S
C1666 O1671 1.246 . S
O1667 C1661 1.263 . S
O1667 Tb1662 2.353 . S
C1668 O1672 1.245 . S
C1668 O1673 1.259 . S
C1669 O1674 1.250 . S
C1669 O1675 1.263 . S
O1670 Tb1662 2.427 . S
O1670 C1666 1.275 . S
O1671 Tb1662 2.513 . S
O1671 C1666 1.246 . S
O1672 Tb1662 2.453 . S
O1672 C1668 1.245 . S
O1673 Tb1660 2.343 . S
O1673 Tb1662 2.596 . S
O1673 C1668 1.259 . S
O1674 Tb1662 2.374 . S
O1674 C1669 1.250 . S
O1675 Tb1660 2.353 . S
O1675 C1669 1.263 . S
C1676 O1677 1.275 . S
C1676 O1678 1.246 . S
O1677 Tb1660 2.427 . S
O1677 C1676 1.275 . S
O1678 Tb1660 2.513 . S
O1678 C1676 1.246 . S
C1679 O1663 1.245 . S
C1679 O1664 1.259 . S
Tb1680 O1683 2.453 . S
Tb1680 O1684 2.596 . S
Tb1680 O1685 2.374 . S
Tb1680 O1693 2.343 . S
Tb1680 O1695 2.353 . S
Tb1680 O1697 2.427 . S
Tb1680 O1698 2.513 . S
C1681 O1685 1.251 . S
C1681 O1687 1.263 . S
Tb1682 O1684 2.343 . S
Tb1682 O1687 2.353 . S
Tb1682 O1690 2.427 . S
Tb1682 O1691 2.513 . S
Tb1682 O1692 2.453 . S
Tb1682 O1693 2.596 . S
Tb1682 O1694 2.374 . S
O1683 Tb1680 2.453 . S
O1683 C1699 1.245 . S
O1684 Tb1680 2.596 . S
O1684 Tb1682 2.343 . S
O1684 C1699 1.259 . S
O1685 Tb1680 2.374 . S
O1685 C1681 1.251 . S
C1686 O1690 1.275 . S
C1686 O1691 1.246 . S
O1687 C1681 1.263 . S
O1687 Tb1682 2.353 . S
C1688 O1692 1.245 . S
C1688 O1693 1.259 . S
C1689 O1694 1.250 . S
C1689 O1695 1.263 . S
O1690 Tb1682 2.427 . S
O1690 C1686 1.275 . S
O1691 Tb1682 2.513 . S
O1691 C1686 1.246 . S
O1692 Tb1682 2.453 . S
O1692 C1688 1.245 . S
O1693 Tb1680 2.343 . S
O1693 Tb1682 2.596 . S
O1693 C1688 1.259 . S
O1694 Tb1682 2.374 . S
O1694 C1689 1.250 . S
O1695 Tb1680 2.353 . S
O1695 C1689 1.263 . S
C1696 O1697 1.275 . S
C1696 O1698 1.246 . S
O1697 Tb1680 2.427 . S
O1697 C1696 1.275 . S
O1698 Tb1680 2.513 . S
O1698 C1696 1.246 . S
C1699 O1683 1.245 . S
C1699 O1684 1.259 . S
Tb1700 O1703 2.453 . S
Tb1700 O1704 2.596 . S
Tb1700 O1705 2.374 . S
Tb1700 O1713 2.343 . S
Tb1700 O1715 2.353 . S
Tb1700 O1717 2.427 . S
Tb1700 O1718 2.513 . S
C1701 O1705 1.251 . S
C1701 O1707 1.263 . S
Tb1702 O1704 2.343 . S
Tb1702 O1707 2.353 . S
Tb1702 O1710 2.427 . S
Tb1702 O1711 2.513 . S
Tb1702 O1712 2.453 . S
Tb1702 O1713 2.596 . S
Tb1702 O1714 2.374 . S
O1703 Tb1700 2.453 . S
O1703 C1719 1.245 . S
O1704 Tb1700 2.596 . S
O1704 Tb1702 2.343 . S
O1704 C1719 1.259 . S
O1705 Tb1700 2.374 . S
O1705 C1701 1.251 . S
C1706 O1710 1.275 . S
C1706 O1711 1.246 . S
O1707 C1701 1.263 . S
O1707 Tb1702 2.353 . S
C1708 O1712 1.245 . S
C1708 O1713 1.259 . S
C1709 O1714 1.250 . S
C1709 O1715 1.263 . S
O1710 Tb1702 2.427 . S
O1710 C1706 1.275 . S
O1711 Tb1702 2.513 . S
O1711 C1706 1.246 . S
O1712 Tb1702 2.453 . S
O1712 C1708 1.245 . S
O1713 Tb1700 2.343 . S
O1713 Tb1702 2.596 . S
O1713 C1708 1.259 . S
O1714 Tb1702 2.374 . S
O1714 C1709 1.250 . S
O1715 Tb1700 2.353 . S
O1715 C1709 1.263 . S
C1716 O1717 1.275 . S
C1716 O1718 1.246 . S
O1717 Tb1700 2.427 . S
O1717 C1716 1.275 . S
O1718 Tb1700 2.513 . S
O1718 C1716 1.246 . S
C1719 O1703 1.245 . S
C1719 O1704 1.259 . S
Tb1720 O1723 2.453 . S
Tb1720 O1724 2.596 . S
Tb1720 O1725 2.374 . S
Tb1720 O1733 2.343 . S
Tb1720 O1735 2.353 . S
Tb1720 O1737 2.427 . S
Tb1720 O1738 2.513 . S
C1721 O1725 1.251 . S
C1721 O1727 1.263 . S
Tb1722 O1724 2.343 . S
Tb1722 O1727 2.353 . S
Tb1722 O1730 2.427 . S
Tb1722 O1731 2.513 . S
Tb1722 O1732 2.453 . S
Tb1722 O1733 2.596 . S
Tb1722 O1734 2.374 . S
O1723 Tb1720 2.453 . S
O1723 C1739 1.245 . S
O1724 Tb1720 2.596 . S
O1724 Tb1722 2.343 . S
O1724 C1739 1.259 . S
O1725 Tb1720 2.374 . S
O1725 C1721 1.251 . S
C1726 O1730 1.275 . S
C1726 O1731 1.246 . S
O1727 C1721 1.263 . S
O1727 Tb1722 2.353 . S
C1728 O1732 1.245 . S
C1728 O1733 1.259 . S
C1729 O1734 1.250 . S
C1729 O1735 1.263 . S
O1730 Tb1722 2.427 . S
O1730 C1726 1.275 . S
O1731 Tb1722 2.513 . S
O1731 C1726 1.246 . S
O1732 Tb1722 2.453 . S
O1732 C1728 1.245 . S
O1733 Tb1720 2.343 . S
O1733 Tb1722 2.596 . S
O1733 C1728 1.259 . S
O1734 Tb1722 2.374 . S
O1734 C1729 1.250 . S
O1735 Tb1720 2.353 . S
O1735 C1729 1.263 . S
C1736 O1737 1.275 . S
C1736 O1738 1.246 . S
O1737 Tb1720 2.427 . S
O1737 C1736 1.275 . S
O1738 Tb1720 2.513 . S
O1738 C1736 1.246 . S
C1739 O1723 1.245 . S
C1739 O1724 1.259 . S
Tb1740 O1743 2.453 . S
Tb1740 O1744 2.596 . S
Tb1740 O1745 2.374 . S
Tb1740 O1753 2.343 . S
Tb1740 O1755 2.353 . S
Tb1740 O1757 2.427 . S
Tb1740 O1758 2.513 . S
C1741 O1745 1.251 . S
C1741 O1747 1.263 . S
Tb1742 O1744 2.343 . S
Tb1742 O1747 2.353 . S
Tb1742 O1750 2.427 . S
Tb1742 O1751 2.513 . S
Tb1742 O1752 2.453 . S
Tb1742 O1753 2.596 . S
Tb1742 O1754 2.374 . S
O1743 Tb1740 2.453 . S
O1743 C1759 1.245 . S
O1744 Tb1740 2.596 . S
O1744 Tb1742 2.343 . S
O1744 C1759 1.259 . S
O1745 Tb1740 2.374 . S
O1745 C1741 1.251 . S
C1746 O1750 1.275 . S
C1746 O1751 1.246 . S
O1747 C1741 1.263 . S
O1747 Tb1742 2.353 . S
C1748 O1752 1.245 . S
C1748 O1753 1.259 . S
C1749 O1754 1.250 . S
C1749 O1755 1.263 . S
O1750 Tb1742 2.427 . S
O1750 C1746 1.275 . S
O1751 Tb1742 2.513 . S
O1751 C1746 1.246 . S
O1752 Tb1742 2.453 . S
O1752 C1748 1.245 . S
O1753 Tb1740 2.343 . S
O1753 Tb1742 2.596 . S
O1753 C1748 1.259 . S
O1754 Tb1742 2.374 . S
O1754 C1749 1.250 . S
O1755 Tb1740 2.353 . S
O1755 C1749 1.263 . S
C1756 O1757 1.275 . S
C1756 O1758 1.246 . S
O1757 Tb1740 2.427 . S
O1757 C1756 1.275 . S
O1758 Tb1740 2.513 . S
O1758 C1756 1.246 . S
C1759 O1743 1.245 . S
C1759 O1744 1.259 . S
Tb1760 O1763 2.453 . S
Tb1760 O1764 2.596 . S
Tb1760 O1765 2.374 . S
Tb1760 O1773 2.343 . S
Tb1760 O1775 2.353 . S
Tb1760 O1777 2.427 . S
Tb1760 O1778 2.513 . S
C1761 O1765 1.251 . S
C1761 O1767 1.263 . S
Tb1762 O1764 2.343 . S
Tb1762 O1767 2.353 . S
Tb1762 O1770 2.427 . S
Tb1762 O1771 2.513 . S
Tb1762 O1772 2.453 . S
Tb1762 O1773 2.596 . S
Tb1762 O1774 2.374 . S
O1763 Tb1760 2.453 . S
O1763 C1779 1.245 . S
O1764 Tb1760 2.596 . S
O1764 Tb1762 2.343 . S
O1764 C1779 1.259 . S
O1765 Tb1760 2.374 . S
O1765 C1761 1.251 . S
C1766 O1770 1.275 . S
C1766 O1771 1.246 . S
O1767 C1761 1.263 . S
O1767 Tb1762 2.353 . S
C1768 O1772 1.245 . S
C1768 O1773 1.259 . S
C1769 O1774 1.250 . S
C1769 O1775 1.263 . S
O1770 Tb1762 2.427 . S
O1770 C1766 1.275 . S
O1771 Tb1762 2.513 . S
O1771 C1766 1.246 . S
O1772 Tb1762 2.453 . S
O1772 C1768 1.245 . S
O1773 Tb1760 2.343 . S
O1773 Tb1762 2.596 . S
O1773 C1768 1.259 . S
O1774 Tb1762 2.374 . S
O1774 C1769 1.250 . S
O1775 Tb1760 2.353 . S
O1775 C1769 1.263 . S
C1776 O1777 1.275 . S
C1776 O1778 1.246 . S
O1777 Tb1760 2.427 . S
O1777 C1776 1.275 . S
O1778 Tb1760 2.513 . S
O1778 C1776 1.246 . S
C1779 O1763 1.245 . S
C1779 O1764 1.259 . S
Tb1780 O1783 2.453 . S
Tb1780 O1784 2.596 . S
Tb1780 O1785 2.374 . S
Tb1780 O1793 2.343 . S
Tb1780 O1795 2.353 . S
Tb1780 O1797 2.427 . S
Tb1780 O1798 2.513 . S
C1781 O1785 1.251 . S
C1781 O1787 1.263 . S
Tb1782 O1784 2.343 . S
Tb1782 O1787 2.353 . S
Tb1782 O1790 2.427 . S
Tb1782 O1791 2.513 . S
Tb1782 O1792 2.453 . S
Tb1782 O1793 2.596 . S
Tb1782 O1794 2.374 . S
O1783 Tb1780 2.453 . S
O1783 C1799 1.245 . S
O1784 Tb1780 2.596 . S
O1784 Tb1782 2.343 . S
O1784 C1799 1.259 . S
O1785 Tb1780 2.374 . S
O1785 C1781 1.251 . S
C1786 O1790 1.275 . S
C1786 O1791 1.246 . S
O1787 C1781 1.263 . S
O1787 Tb1782 2.353 . S
C1788 O1792 1.245 . S
C1788 O1793 1.259 . S
C1789 O1794 1.250 . S
C1789 O1795 1.263 . S
O1790 Tb1782 2.427 . S
O1790 C1786 1.275 . S
O1791 Tb1782 2.513 . S
O1791 C1786 1.246 . S
O1792 Tb1782 2.453 . S
O1792 C1788 1.245 . S
O1793 Tb1780 2.343 . S
O1793 Tb1782 2.596 . S
O1793 C1788 1.259 . S
O1794 Tb1782 2.374 . S
O1794 C1789 1.250 . S
O1795 Tb1780 2.353 . S
O1795 C1789 1.263 . S
C1796 O1797 1.275 . S
C1796 O1798 1.246 . S
O1797 Tb1780 2.427 . S
O1797 C1796 1.275 . S
O1798 Tb1780 2.513 . S
O1798 C1796 1.246 . S
C1799 O1783 1.245 . S
C1799 O1784 1.259 . S
Tb1800 O1803 2.453 . S
Tb1800 O1804 2.596 . S
Tb1800 O1805 2.374 . S
Tb1800 O1813 2.343 . S
Tb1800 O1815 2.353 . S
Tb1800 O1817 2.427 . S
Tb1800 O1818 2.513 . S
C1801 O1805 1.251 . S
C1801 O1807 1.263 . S
Tb1802 O1804 2.343 . S
Tb1802 O1807 2.353 . S
Tb1802 O1810 2.427 . S
Tb1802 O1811 2.513 . S
Tb1802 O1812 2.453 . S
Tb1802 O1813 2.596 . S
Tb1802 O1814 2.374 . S
O1803 Tb1800 2.453 . S
O1803 C1819 1.245 . S
O1804 Tb1800 2.596 . S
O1804 Tb1802 2.343 . S
O1804 C1819 1.259 . S
O1805 Tb1800 2.374 . S
O1805 C1801 1.251 . S
C1806 O1810 1.275 . S
C1806 O1811 1.246 . S
O1807 C1801 1.263 . S
O1807 Tb1802 2.353 . S
C1808 O1812 1.245 . S
C1808 O1813 1.259 . S
C1809 O1814 1.250 . S
C1809 O1815 1.263 . S
O1810 Tb1802 2.427 . S
O1810 C1806 1.275 . S
O1811 Tb1802 2.513 . S
O1811 C1806 1.246 . S
O1812 Tb1802 2.453 . S
O1812 C1808 1.245 . S
O1813 Tb1800 2.343 . S
O1813 Tb1802 2.596 . S
O1813 C1808 1.259 . S
O1814 Tb1802 2.374 . S
O1814 C1809 1.250 . S
O1815 Tb1800 2.353 . S
O1815 C1809 1.263 . S
C1816 O1817 1.275 . S
C1816 O1818 1.246 . S
O1817 Tb1800 2.427 . S
O1817 C1816 1.275 . S
O1818 Tb1800 2.513 . S
O1818 C1816 1.246 . S
C1819 O1803 1.245 . S
C1819 O1804 1.259 . S
Tb1820 O1823 2.453 . S
Tb1820 O1824 2.596 . S
Tb1820 O1825 2.374 . S
Tb1820 O1833 2.343 . S
Tb1820 O1835 2.353 . S
Tb1820 O1837 2.427 . S
Tb1820 O1838 2.513 . S
C1821 O1825 1.251 . S
C1821 O1827 1.263 . S
Tb1822 O1824 2.343 . S
Tb1822 O1827 2.353 . S
Tb1822 O1830 2.427 . S
Tb1822 O1831 2.513 . S
Tb1822 O1832 2.453 . S
Tb1822 O1833 2.596 . S
Tb1822 O1834 2.374 . S
O1823 Tb1820 2.453 . S
O1823 C1839 1.245 . S
O1824 Tb1820 2.596 . S
O1824 Tb1822 2.343 . S
O1824 C1839 1.259 . S
O1825 Tb1820 2.374 . S
O1825 C1821 1.251 . S
C1826 O1830 1.275 . S
C1826 O1831 1.246 . S
O1827 C1821 1.263 . S
O1827 Tb1822 2.353 . S
C1828 O1832 1.245 . S
C1828 O1833 1.259 . S
C1829 O1834 1.250 . S
C1829 O1835 1.263 . S
O1830 Tb1822 2.427 . S
O1830 C1826 1.275 . S
O1831 Tb1822 2.513 . S
O1831 C1826 1.246 . S
O1832 Tb1822 2.453 . S
O1832 C1828 1.245 . S
O1833 Tb1820 2.343 . S
O1833 Tb1822 2.596 . S
O1833 C1828 1.259 . S
O1834 Tb1822 2.374 . S
O1834 C1829 1.250 . S
O1835 Tb1820 2.353 . S
O1835 C1829 1.263 . S
C1836 O1837 1.275 . S
C1836 O1838 1.246 . S
O1837 Tb1820 2.427 . S
O1837 C1836 1.275 . S
O1838 Tb1820 2.513 . S
O1838 C1836 1.246 . S
C1839 O1823 1.245 . S
C1839 O1824 1.259 . S
Tb1840 O1843 2.453 . S
Tb1840 O1844 2.596 . S
Tb1840 O1845 2.374 . S
Tb1840 O1853 2.343 . S
Tb1840 O1855 2.353 . S
Tb1840 O1857 2.427 . S
Tb1840 O1858 2.513 . S
C1841 O1845 1.251 . S
C1841 O1847 1.263 . S
Tb1842 O1844 2.343 . S
Tb1842 O1847 2.353 . S
Tb1842 O1850 2.427 . S
Tb1842 O1851 2.513 . S
Tb1842 O1852 2.453 . S
Tb1842 O1853 2.596 . S
Tb1842 O1854 2.374 . S
O1843 Tb1840 2.453 . S
O1843 C1859 1.245 . S
O1844 Tb1840 2.596 . S
O1844 Tb1842 2.343 . S
O1844 C1859 1.259 . S
O1845 Tb1840 2.374 . S
O1845 C1841 1.251 . S
C1846 O1850 1.275 . S
C1846 O1851 1.246 . S
O1847 C1841 1.263 . S
O1847 Tb1842 2.353 . S
C1848 O1852 1.245 . S
C1848 O1853 1.259 . S
C1849 O1854 1.250 . S
C1849 O1855 1.263 . S
O1850 Tb1842 2.427 . S
O1850 C1846 1.275 . S
O1851 Tb1842 2.513 . S
O1851 C1846 1.246 . S
O1852 Tb1842 2.453 . S
O1852 C1848 1.245 . S
O1853 Tb1840 2.343 . S
O1853 Tb1842 2.596 . S
O1853 C1848 1.259 . S
O1854 Tb1842 2.374 . S
O1854 C1849 1.250 . S
O1855 Tb1840 2.353 . S
O1855 C1849 1.263 . S
C1856 O1857 1.275 . S
C1856 O1858 1.246 . S
O1857 Tb1840 2.427 . S
O1857 C1856 1.275 . S
O1858 Tb1840 2.513 . S
O1858 C1856 1.246 . S
C1859 O1843 1.245 . S
C1859 O1844 1.259 . S
Tb1860 O1863 2.453 . S
Tb1860 O1864 2.596 . S
Tb1860 O1865 2.374 . S
Tb1860 O1873 2.343 . S
Tb1860 O1875 2.353 . S
Tb1860 O1877 2.370 1_556 S
Tb1860 O1878 2.513 . S
C1861 O1865 1.251 . S
C1861 O1867 1.263 . S
Tb1862 O1864 2.343 . S
Tb1862 O1867 2.353 . S
Tb1862 O1870 2.427 . S
Tb1862 O1871 2.513 . S
Tb1862 O1872 2.453 1_556 S
Tb1862 O1873 2.596 . S
Tb1862 O1874 2.374 . S
O1863 Tb1860 2.453 . S
O1863 C1879 1.245 . S
O1864 Tb1860 2.596 . S
O1864 Tb1862 2.343 . S
O1864 C1879 1.259 . S
O1865 Tb1860 2.374 . S
O1865 C1861 1.251 . S
C1866 O1870 1.275 . S
C1866 O1871 1.246 . S
O1867 C1861 1.263 . S
O1867 Tb1862 2.353 . S
C1868 O1872 1.245 . S
C1868 O1873 1.259 1_554 S
C1869 O1874 1.250 . S
C1869 O1875 1.263 . S
O1870 Tb1862 2.427 . S
O1870 C1866 1.275 . S
O1871 Tb1862 2.513 . S
O1871 C1866 1.246 . S
O1872 Tb1862 2.453 1_554 S
O1872 C1868 1.245 . S
O1873 Tb1860 2.343 . S
O1873 Tb1862 2.596 . S
O1873 C1868 1.259 1_556 S
O1874 Tb1862 2.374 . S
O1874 C1869 1.250 . S
O1875 Tb1860 2.353 . S
O1875 C1869 1.263 . S
C1876 O1877 1.279 . S
C1876 O1878 1.246 1_554 S
O1877 Tb1860 2.370 1_554 S
O1877 C1876 1.279 . S
O1878 Tb1860 2.513 . S
O1878 C1876 1.246 1_556 S
C1879 O1863 1.245 . S
C1879 O1864 1.259 . S
Tb1880 O1883 2.453 . S
Tb1880 O1884 2.596 . S
Tb1880 O1885 2.374 . S
Tb1880 O1893 2.343 . S
Tb1880 O1895 2.353 . S
Tb1880 O1897 2.427 . S
Tb1880 O1898 2.513 . S
C1881 O1885 1.251 . S
C1881 O1887 1.263 . S
Tb1882 O1884 2.343 . S
Tb1882 O1887 2.353 . S
Tb1882 O1890 2.427 . S
Tb1882 O1891 2.513 . S
Tb1882 O1892 2.453 . S
Tb1882 O1893 2.596 . S
Tb1882 O1894 2.374 . S
O1883 Tb1880 2.453 . S
O1883 C1899 1.245 . S
O1884 Tb1880 2.596 . S
O1884 Tb1882 2.343 . S
O1884 C1899 1.259 . S
O1885 Tb1880 2.374 . S
O1885 C1881 1.251 . S
C1886 O1890 1.275 . S
C1886 O1891 1.246 . S
O1887 C1881 1.263 . S
O1887 Tb1882 2.353 . S
C1888 O1892 1.245 . S
C1888 O1893 1.259 . S
C1889 O1894 1.250 . S
C1889 O1895 1.263 . S
O1890 Tb1882 2.427 . S
O1890 C1886 1.275 . S
O1891 Tb1882 2.513 . S
O1891 C1886 1.246 . S
O1892 Tb1882 2.453 . S
O1892 C1888 1.245 . S
O1893 Tb1880 2.343 . S
O1893 Tb1882 2.596 . S
O1893 C1888 1.259 . S
O1894 Tb1882 2.374 . S
O1894 C1889 1.250 . S
O1895 Tb1880 2.353 . S
O1895 C1889 1.263 . S
C1896 O1897 1.275 . S
C1896 O1898 1.246 . S
O1897 Tb1880 2.427 . S
O1897 C1896 1.275 . S
O1898 Tb1880 2.513 . S
O1898 C1896 1.246 . S
C1899 O1883 1.245 . S
C1899 O1884 1.259 . S
Tb1900 O1903 2.453 . S
Tb1900 O1904 2.596 . S
Tb1900 O1905 2.374 . S
Tb1900 O1913 2.343 . S
Tb1900 O1915 2.353 . S
Tb1900 O1917 2.427 . S
Tb1900 O1918 2.513 . S
C1901 O1905 1.251 . S
C1901 O1907 1.263 . S
Tb1902 O1904 2.343 . S
Tb1902 O1907 2.353 . S
Tb1902 O1910 2.427 . S
Tb1902 O1911 2.513 . S
Tb1902 O1912 2.453 . S
Tb1902 O1913 2.596 . S
Tb1902 O1914 2.374 . S
O1903 Tb1900 2.453 . S
O1903 C1919 1.245 . S
O1904 Tb1900 2.596 . S
O1904 Tb1902 2.343 . S
O1904 C1919 1.259 . S
O1905 Tb1900 2.374 . S
O1905 C1901 1.251 . S
C1906 O1910 1.275 . S
C1906 O1911 1.246 . S
O1907 C1901 1.263 . S
O1907 Tb1902 2.353 . S
C1908 O1912 1.245 . S
C1908 O1913 1.259 . S
C1909 O1914 1.250 . S
C1909 O1915 1.263 . S
O1910 Tb1902 2.427 . S
O1910 C1906 1.275 . S
O1911 Tb1902 2.513 . S
O1911 C1906 1.246 . S
O1912 Tb1902 2.453 . S
O1912 C1908 1.245 . S
O1913 Tb1900 2.343 . S
O1913 Tb1902 2.596 . S
O1913 C1908 1.259 . S
O1914 Tb1902 2.374 . S
O1914 C1909 1.250 . S
O1915 Tb1900 2.353 . S
O1915 C1909 1.263 . S
C1916 O1917 1.275 . S
C1916 O1918 1.246 . S
O1917 Tb1900 2.427 . S
O1917 C1916 1.275 . S
O1918 Tb1900 2.513 . S
O1918 C1916 1.246 . S
C1919 O1903 1.245 . S
C1919 O1904 1.259 . S
H1920 C1926 0.930 . S
H1921 C1930 0.930 . S
H1922 C1935 0.929 . S
H1923 C1933 0.929 . S
H1924 C1928 0.929 . S
H1925 C1934 0.929 . S
C1926 H1920 0.930 . S
C1926 C1927 1.367 . S
C1926 C1934 1.378 . S
C1927 C1926 1.367 . S
C1927 C1935 1.433 . S
C1928 H1924 0.929 . S
C1928 C1930 1.378 . S
C1928 C1932 1.350 . S
C1929 C1932 1.463 . S
C1929 C1934 1.350 . S
C1929 N1937 1.427 . S
C1930 H1921 0.930 . S
C1930 C1928 1.378 . S
C1930 C1931 1.367 . S
C1931 C1930 1.367 . S
C1931 C1933 1.433 . S
C1932 C1928 1.350 . S
C1932 C1929 1.463 . S
C1932 N1936 1.427 . S
C1933 H1923 0.929 . S
C1933 C1931 1.433 . S
C1933 N1936 1.384 . S
C1934 H1925 0.929 . S
C1934 C1926 1.378 . S
C1934 C1929 1.350 . S
C1935 H1922 0.929 . S
C1935 C1927 1.433 . S
C1935 N1937 1.384 . S
N1936 C1932 1.427 . S
N1936 C1933 1.384 . S
N1937 C1929 1.427 . S
N1937 C1935 1.384 . S
H1938 C1944 0.930 . S
H1939 C1948 0.930 . S
H1940 C1953 0.929 . S
H1941 C1951 0.929 . S
H1942 C1946 0.929 . S
H1943 C1952 0.929 . S
C1944 H1938 0.930 . S
C1944 C1945 1.367 . S
C1944 C1952 1.378 . S
C1945 C1944 1.367 . S
C1945 C1953 1.433 . S
C1946 H1942 0.929 . S
C1946 C1948 1.378 . S
C1946 C1950 1.350 . S
C1947 C1950 1.463 . S
C1947 C1952 1.350 . S
C1947 N1955 1.427 . S
C1948 H1939 0.930 . S
C1948 C1946 1.378 . S
C1948 C1949 1.367 . S
C1949 C1948 1.367 . S
C1949 C1951 1.433 . S
C1950 C1946 1.350 . S
C1950 C1947 1.463 . S
C1950 N1954 1.427 . S
C1951 H1941 0.929 . S
C1951 C1949 1.433 . S
C1951 N1954 1.384 . S
C1952 H1943 0.929 . S
C1952 C1944 1.378 . S
C1952 C1947 1.350 . S
C1953 H1940 0.929 . S
C1953 C1945 1.433 . S
C1953 N1955 1.384 . S
N1954 C1950 1.427 . S
N1954 C1951 1.384 . S
N1955 C1947 1.427 . S
N1955 C1953 1.384 . S
H1956 C1962 0.930 . S
H1957 C1966 0.930 . S
H1958 C1971 0.929 . S
H1959 C1969 0.929 . S
H1960 C1964 0.929 . S
H1961 C1970 0.929 . S
C1962 H1956 0.930 . S
C1962 C1963 1.367 . S
C1962 C1970 1.378 . S
C1963 C1962 1.367 . S
C1963 C1971 1.433 . S
C1964 H1960 0.929 . S
C1964 C1966 1.378 . S
C1964 C1968 1.350 . S
C1965 C1968 1.463 . S
C1965 C1970 1.350 . S
C1965 N1973 1.427 . S
C1966 H1957 0.930 . S
C1966 C1964 1.378 . S
C1966 C1967 1.367 . S
C1967 C1966 1.367 . S
C1967 C1969 1.433 . S
C1968 C1964 1.350 . S
C1968 C1965 1.463 . S
C1968 N1972 1.427 . S
C1969 H1959 0.929 . S
C1969 C1967 1.433 . S
C1969 N1972 1.384 . S
C1970 H1961 0.929 . S
C1970 C1962 1.378 . S
C1970 C1965 1.350 . S
C1971 H1958 0.929 . S
C1971 C1963 1.433 . S
C1971 N1973 1.384 . S
N1972 C1968 1.427 . S
N1972 C1969 1.384 . S
N1973 C1965 1.427 . S
N1973 C1971 1.384 . S
H1974 C1980 0.930 . S
H1975 C1984 0.930 . S
H1976 C1989 0.929 . S
H1977 C1987 0.929 . S
H1978 C1982 0.929 . S
H1979 C1988 0.929 . S
C1980 H1974 0.930 . S
C1980 C1981 1.367 . S
C1980 C1988 1.378 . S
C1981 C1980 1.367 . S
C1981 C1989 1.433 . S
C1982 H1978 0.929 . S
C1982 C1984 1.378 . S
C1982 C1986 1.350 . S
C1983 C1986 1.463 . S
C1983 C1988 1.350 . S
C1983 N1991 1.427 . S
C1984 H1975 0.930 . S
C1984 C1982 1.378 . S
C1984 C1985 1.367 . S
C1985 C1984 1.367 . S
C1985 C1987 1.433 . S
C1986 C1982 1.350 . S
C1986 C1983 1.463 . S
C1986 N1990 1.427 . S
C1987 H1977 0.929 . S
C1987 C1985 1.433 . S
C1987 N1990 1.384 . S
C1988 H1979 0.929 . S
C1988 C1980 1.378 . S
C1988 C1983 1.350 . S
C1989 H1976 0.929 . S
C1989 C1981 1.433 . S
C1989 N1991 1.384 . S
N1990 C1986 1.427 . S
N1990 C1987 1.384 . S
N1991 C1983 1.427 . S
N1991 C1989 1.384 . S
H1992 C1998 0.930 . S
H1993 C2002 0.930 . S
H1994 C2007 0.929 . S
H1995 C2005 0.929 . S
H1996 C2000 0.929 . S
H1997 C2006 0.929 . S
C1998 H1992 0.930 . S
C1998 C1999 1.367 . S
C1998 C2006 1.378 . S
C1999 C1998 1.367 . S
C1999 C2007 1.433 . S
C2000 H1996 0.929 . S
C2000 C2002 1.378 . S
C2000 C2004 1.350 . S
C2001 C2004 1.463 . S
C2001 C2006 1.350 . S
C2001 N2009 1.427 . S
C2002 H1993 0.930 . S
C2002 C2000 1.378 . S
C2002 C2003 1.367 . S
C2003 C2002 1.367 . S
C2003 C2005 1.433 . S
C2004 C2000 1.350 . S
C2004 C2001 1.463 . S
C2004 N2008 1.427 . S
C2005 H1995 0.929 . S
C2005 C2003 1.433 . S
C2005 N2008 1.384 . S
C2006 H1997 0.929 . S
C2006 C1998 1.378 . S
C2006 C2001 1.350 . S
C2007 H1994 0.929 . S
C2007 C1999 1.433 . S
C2007 N2009 1.384 . S
N2008 C2004 1.427 . S
N2008 C2005 1.384 . S
N2009 C2001 1.427 . S
N2009 C2007 1.384 . S
H2010 C2016 0.930 . S
H2011 C2020 0.930 . S
H2012 C2025 0.929 . S
H2013 C2023 0.929 . S
H2014 C2018 0.929 . S
H2015 C2024 0.929 . S
C2016 H2010 0.930 . S
C2016 C2017 1.367 . S
C2016 C2024 1.378 . S
C2017 C2016 1.367 . S
C2017 C2025 1.433 . S
C2018 H2014 0.929 . S
C2018 C2020 1.378 . S
C2018 C2022 1.350 . S
C2019 C2022 1.463 . S
C2019 C2024 1.350 . S
C2019 N2027 1.427 . S
C2020 H2011 0.930 . S
C2020 C2018 1.378 . S
C2020 C2021 1.367 . S
C2021 C2020 1.367 . S
C2021 C2023 1.433 . S
C2022 C2018 1.350 . S
C2022 C2019 1.463 . S
C2022 N2026 1.427 . S
C2023 H2013 0.929 . S
C2023 C2021 1.433 . S
C2023 N2026 1.384 . S
C2024 H2015 0.929 . S
C2024 C2016 1.378 . S
C2024 C2019 1.350 . S
C2025 H2012 0.929 . S
C2025 C2017 1.433 . S
C2025 N2027 1.384 . S
N2026 C2022 1.427 . S
N2026 C2023 1.384 . S
N2027 C2019 1.427 . S
N2027 C2025 1.384 . S
H2028 C2034 0.930 . S
H2029 C2038 0.930 . S
H2030 C2043 0.929 . S
H2031 C2041 0.929 . S
H2032 C2036 0.929 . S
H2033 C2042 0.929 . S
C2034 H2028 0.930 . S
C2034 C2035 1.367 . S
C2034 C2042 1.378 . S
C2035 C2034 1.367 . S
C2035 C2043 1.433 . S
C2036 H2032 0.929 . S
C2036 C2038 1.378 . S
C2036 C2040 1.350 . S
C2037 C2040 1.463 . S
C2037 C2042 1.350 . S
C2037 N2045 1.427 . S
C2038 H2029 0.930 . S
C2038 C2036 1.378 . S
C2038 C2039 1.367 . S
C2039 C2038 1.367 . S
C2039 C2041 1.433 . S
C2040 C2036 1.350 . S
C2040 C2037 1.463 . S
C2040 N2044 1.427 . S
C2041 H2031 0.929 . S
C2041 C2039 1.433 . S
C2041 N2044 1.384 . S
C2042 H2033 0.929 . S
C2042 C2034 1.378 . S
C2042 C2037 1.350 . S
C2043 H2030 0.929 . S
C2043 C2035 1.433 . S
C2043 N2045 1.384 . S
N2044 C2040 1.427 . S
N2044 C2041 1.384 . S
N2045 C2037 1.427 . S
N2045 C2043 1.384 . S
H2046 C2052 0.930 . S
H2047 C2056 0.930 . S
H2048 C2061 0.929 . S
H2049 C2059 0.929 . S
H2050 C2054 0.929 . S
H2051 C2060 0.929 . S
C2052 H2046 0.930 . S
C2052 C2053 1.367 . S
C2052 C2060 1.378 . S
C2053 C2052 1.367 . S
C2053 C2061 1.433 . S
C2054 H2050 0.929 . S
C2054 C2056 1.378 . S
C2054 C2058 1.350 . S
C2055 C2058 1.463 . S
C2055 C2060 1.350 . S
C2055 N2063 1.427 . S
C2056 H2047 0.930 . S
C2056 C2054 1.378 . S
C2056 C2057 1.367 . S
C2057 C2056 1.367 . S
C2057 C2059 1.433 . S
C2058 C2054 1.350 . S
C2058 C2055 1.463 . S
C2058 N2062 1.427 . S
C2059 H2049 0.929 . S
C2059 C2057 1.433 . S
C2059 N2062 1.384 . S
C2060 H2051 0.929 . S
C2060 C2052 1.378 . S
C2060 C2055 1.350 . S
C2061 H2048 0.929 . S
C2061 C2053 1.433 . S
C2061 N2063 1.384 . S
N2062 C2058 1.427 . S
N2062 C2059 1.384 . S
N2063 C2055 1.427 . S
N2063 C2061 1.384 . S
H2064 C2070 0.930 . S
H2065 C2074 0.930 . S
H2066 C2079 0.929 . S
H2067 C2077 0.929 . S
H2068 C2072 0.929 . S
H2069 C2078 0.929 . S
C2070 H2064 0.930 . S
C2070 C2071 1.367 . S
C2070 C2078 1.378 . S
C2071 C2070 1.367 . S
C2071 C2079 1.433 . S
C2072 H2068 0.929 . S
C2072 C2074 1.378 . S
C2072 C2076 1.350 . S
C2073 C2076 1.463 . S
C2073 C2078 1.350 . S
C2073 N2081 1.427 . S
C2074 H2065 0.930 . S
C2074 C2072 1.378 . S
C2074 C2075 1.367 . S
C2075 C2074 1.367 . S
C2075 C2077 1.433 . S
C2076 C2072 1.350 . S
C2076 C2073 1.463 . S
C2076 N2080 1.427 . S
C2077 H2067 0.929 . S
C2077 C2075 1.433 . S
C2077 N2080 1.384 . S
C2078 H2069 0.929 . S
C2078 C2070 1.378 . S
C2078 C2073 1.350 . S
C2079 H2066 0.929 . S
C2079 C2071 1.433 . S
C2079 N2081 1.384 . S
N2080 C2076 1.427 . S
N2080 C2077 1.384 . S
N2081 C2073 1.427 . S
N2081 C2079 1.384 . S
H2082 C2088 0.930 . S
H2083 C2092 0.930 . S
H2084 C2097 0.929 . S
H2085 C2095 0.929 . S
H2086 C2090 0.929 . S
H2087 C2096 0.929 . S
C2088 H2082 0.930 . S
C2088 C2089 1.367 . S
C2088 C2096 1.378 . S
C2089 C2088 1.367 . S
C2089 C2097 1.433 . S
C2090 H2086 0.929 . S
C2090 C2092 1.378 . S
C2090 C2094 1.350 . S
C2091 C2094 1.463 . S
C2091 C2096 1.350 . S
C2091 N2099 1.427 . S
C2092 H2083 0.930 . S
C2092 C2090 1.378 . S
C2092 C2093 1.367 . S
C2093 C2092 1.367 . S
C2093 C2095 1.433 . S
C2094 C2090 1.350 . S
C2094 C2091 1.463 . S
C2094 N2098 1.427 . S
C2095 H2085 0.929 . S
C2095 C2093 1.433 . S
C2095 N2098 1.384 . S
C2096 H2087 0.929 . S
C2096 C2088 1.378 . S
C2096 C2091 1.350 . S
C2097 H2084 0.929 . S
C2097 C2089 1.433 . S
C2097 N2099 1.384 . S
N2098 C2094 1.427 . S
N2098 C2095 1.384 . S
N2099 C2091 1.427 . S
N2099 C2097 1.384 . S
H2100 C2106 0.930 . S
H2101 C2110 0.930 . S
H2102 C2115 0.929 . S
H2103 C2113 0.929 . S
H2104 C2108 0.929 . S
H2105 C2114 0.929 . S
C2106 H2100 0.930 . S
C2106 C2107 1.367 . S
C2106 C2114 1.378 . S
C2107 C2106 1.367 . S
C2107 C2115 1.433 . S
C2108 H2104 0.929 . S
C2108 C2110 1.378 . S
C2108 C2112 1.350 . S
C2109 C2112 1.463 . S
C2109 C2114 1.350 . S
C2109 N2117 1.427 . S
C2110 H2101 0.930 . S
C2110 C2108 1.378 . S
C2110 C2111 1.367 . S
C2111 C2110 1.367 . S
C2111 C2113 1.433 . S
C2112 C2108 1.350 . S
C2112 C2109 1.463 . S
C2112 N2116 1.427 . S
C2113 H2103 0.929 . S
C2113 C2111 1.433 . S
C2113 N2116 1.384 . S
C2114 H2105 0.929 . S
C2114 C2106 1.378 . S
C2114 C2109 1.350 . S
C2115 H2102 0.929 . S
C2115 C2107 1.433 . S
C2115 N2117 1.384 . S
N2116 C2112 1.427 . S
N2116 C2113 1.384 . S
N2117 C2109 1.427 . S
N2117 C2115 1.384 . S
H2118 C2124 0.930 . S
H2119 C2128 0.930 . S
H2120 C2133 0.929 . S
H2121 C2131 0.929 . S
H2122 C2126 0.929 . S
H2123 C2132 0.929 . S
C2124 H2118 0.930 . S
C2124 C2125 1.367 . S
C2124 C2132 1.378 . S
C2125 C2124 1.367 . S
C2125 C2133 1.433 . S
C2126 H2122 0.929 . S
C2126 C2128 1.378 . S
C2126 C2130 1.350 . S
C2127 C2130 1.463 . S
C2127 C2132 1.350 . S
C2127 N2135 1.427 . S
C2128 H2119 0.930 . S
C2128 C2126 1.378 . S
C2128 C2129 1.367 . S
C2129 C2128 1.367 . S
C2129 C2131 1.433 . S
C2130 C2126 1.350 . S
C2130 C2127 1.463 . S
C2130 N2134 1.427 . S
C2131 H2121 0.929 . S
C2131 C2129 1.433 . S
C2131 N2134 1.384 . S
C2132 H2123 0.929 . S
C2132 C2124 1.378 . S
C2132 C2127 1.350 . S
C2133 H2120 0.929 . S
C2133 C2125 1.433 . S
C2133 N2135 1.384 . S
N2134 C2130 1.427 . S
N2134 C2131 1.384 . S
N2135 C2127 1.427 . S
N2135 C2133 1.384 . S
H2136 C2142 0.930 . S
H2137 C2146 0.930 . S
H2138 C2151 0.929 . S
H2139 C2149 0.929 . S
H2140 C2144 0.929 . S
H2141 C2150 0.929 . S
C2142 H2136 0.930 . S
C2142 C2143 1.367 . S
C2142 C2150 1.378 . S
C2143 C2142 1.367 . S
C2143 C2151 1.433 . S
C2144 H2140 0.929 . S
C2144 C2146 1.378 . S
C2144 C2148 1.350 . S
C2145 C2148 1.463 . S
C2145 C2150 1.350 . S
C2145 N2153 1.427 . S
C2146 H2137 0.930 . S
C2146 C2144 1.378 . S
C2146 C2147 1.367 . S
C2147 C2146 1.367 . S
C2147 C2149 1.433 . S
C2148 C2144 1.350 . S
C2148 C2145 1.463 . S
C2148 N2152 1.427 . S
C2149 H2139 0.929 . S
C2149 C2147 1.433 . S
C2149 N2152 1.384 . S
C2150 H2141 0.929 . S
C2150 C2142 1.378 . S
C2150 C2145 1.350 . S
C2151 H2138 0.929 . S
C2151 C2143 1.433 . S
C2151 N2153 1.384 . S
N2152 C2148 1.427 . S
N2152 C2149 1.384 . S
N2153 C2145 1.427 . S
N2153 C2151 1.384 . S
H2154 C2160 0.930 . S
H2155 C2164 0.930 . S
H2156 C2169 0.929 . S
H2157 C2167 0.929 . S
H2158 C2162 0.929 . S
H2159 C2168 0.929 . S
C2160 H2154 0.930 . S
C2160 C2161 1.367 . S
C2160 C2168 1.378 . S
C2161 C2160 1.367 . S
C2161 C2169 1.433 . S
C2162 H2158 0.929 . S
C2162 C2164 1.378 . S
C2162 C2166 1.350 . S
C2163 C2166 1.463 . S
C2163 C2168 1.350 . S
C2163 N2171 1.427 . S
C2164 H2155 0.930 . S
C2164 C2162 1.378 . S
C2164 C2165 1.367 . S
C2165 C2164 1.367 . S
C2165 C2167 1.433 . S
C2166 C2162 1.350 . S
C2166 C2163 1.463 . S
C2166 N2170 1.427 . S
C2167 H2157 0.929 . S
C2167 C2165 1.433 . S
C2167 N2170 1.384 . S
C2168 H2159 0.929 . S
C2168 C2160 1.378 . S
C2168 C2163 1.350 . S
C2169 H2156 0.929 . S
C2169 C2161 1.433 . S
C2169 N2171 1.384 . S
N2170 C2166 1.427 . S
N2170 C2167 1.384 . S
N2171 C2163 1.427 . S
N2171 C2169 1.384 . S
H2172 C2178 0.930 . S
H2173 C2182 0.930 . S
H2174 C2187 0.929 . S
H2175 C2185 0.929 . S
H2176 C2180 0.929 . S
H2177 C2186 0.929 . S
C2178 H2172 0.930 . S
C2178 C2179 1.367 . S
C2178 C2186 1.378 . S
C2179 C2178 1.367 . S
C2179 C2187 1.433 . S
C2180 H2176 0.929 . S
C2180 C2182 1.378 . S
C2180 C2184 1.350 . S
C2181 C2184 1.463 . S
C2181 C2186 1.350 . S
C2181 N2189 1.427 . S
C2182 H2173 0.930 . S
C2182 C2180 1.378 . S
C2182 C2183 1.367 . S
C2183 C2182 1.367 . S
C2183 C2185 1.433 . S
C2184 C2180 1.350 . S
C2184 C2181 1.463 . S
C2184 N2188 1.427 . S
C2185 H2175 0.929 . S
C2185 C2183 1.433 . S
C2185 N2188 1.384 . S
C2186 H2177 0.929 . S
C2186 C2178 1.378 . S
C2186 C2181 1.350 . S
C2187 H2174 0.929 . S
C2187 C2179 1.433 . S
C2187 N2189 1.384 . S
N2188 C2184 1.427 . S
N2188 C2185 1.384 . S
N2189 C2181 1.427 . S
N2189 C2187 1.384 . S
H2190 C2196 0.930 . S
H2191 C2200 0.930 . S
H2192 C2205 0.929 . S
H2193 C2203 0.929 . S
H2194 C2198 0.929 . S
H2195 C2204 0.929 . S
C2196 H2190 0.930 . S
C2196 C2197 1.367 . S
C2196 C2204 1.378 . S
C2197 C2196 1.367 . S
C2197 C2205 1.433 . S
C2198 H2194 0.929 . S
C2198 C2200 1.378 . S
C2198 C2202 1.350 . S
C2199 C2202 1.463 . S
C2199 C2204 1.350 . S
C2199 N2207 1.427 . S
C2200 H2191 0.930 . S
C2200 C2198 1.378 . S
C2200 C2201 1.367 . S
C2201 C2200 1.367 . S
C2201 C2203 1.433 . S
C2202 C2198 1.350 . S
C2202 C2199 1.463 . S
C2202 N2206 1.427 . S
C2203 H2193 0.929 . S
C2203 C2201 1.433 . S
C2203 N2206 1.384 . S
C2204 H2195 0.929 . S
C2204 C2196 1.378 . S
C2204 C2199 1.350 . S
C2205 H2192 0.929 . S
C2205 C2197 1.433 . S
C2205 N2207 1.384 . S
N2206 C2202 1.427 . S
N2206 C2203 1.384 . S
N2207 C2199 1.427 . S
N2207 C2205 1.384 . S
H2208 C2214 0.930 . S
H2209 C2218 0.930 . S
H2210 C2223 0.929 . S
H2211 C2221 0.929 . S
H2212 C2216 0.929 . S
H2213 C2222 0.929 . S
C2214 H2208 0.930 . S
C2214 C2215 1.367 . S
C2214 C2222 1.378 . S
C2215 C2214 1.367 . S
C2215 C2223 1.433 . S
C2216 H2212 0.929 . S
C2216 C2218 1.378 . S
C2216 C2220 1.350 . S
C2217 C2220 1.463 . S
C2217 C2222 1.350 . S
C2217 N2225 1.427 . S
C2218 H2209 0.930 . S
C2218 C2216 1.378 . S
C2218 C2219 1.367 . S
C2219 C2218 1.367 . S
C2219 C2221 1.433 . S
C2220 C2216 1.350 . S
C2220 C2217 1.463 . S
C2220 N2224 1.427 . S
C2221 H2211 0.929 . S
C2221 C2219 1.433 . S
C2221 N2224 1.384 . S
C2222 H2213 0.929 . S
C2222 C2214 1.378 . S
C2222 C2217 1.350 . S
C2223 H2210 0.929 . S
C2223 C2215 1.433 . S
C2223 N2225 1.384 . S
N2224 C2220 1.427 . S
N2224 C2221 1.384 . S
N2225 C2217 1.427 . S
N2225 C2223 1.384 . S
H2226 C2232 0.930 . S
H2227 C2236 0.930 . S
H2228 C2241 0.929 . S
H2229 C2239 0.929 . S
H2230 C2234 0.929 . S
H2231 C2240 0.929 . S
C2232 H2226 0.930 . S
C2232 C2233 1.367 . S
C2232 C2240 1.378 . S
C2233 C2232 1.367 . S
C2233 C2241 1.433 . S
C2234 H2230 0.929 . S
C2234 C2236 1.378 . S
C2234 C2238 1.350 . S
C2235 C2238 1.463 . S
C2235 C2240 1.350 . S
C2235 N2243 1.427 . S
C2236 H2227 0.930 . S
C2236 C2234 1.378 . S
C2236 C2237 1.367 . S
C2237 C2236 1.367 . S
C2237 C2239 1.433 . S
C2238 C2234 1.350 . S
C2238 C2235 1.463 . S
C2238 N2242 1.427 . S
C2239 H2229 0.929 . S
C2239 C2237 1.433 . S
C2239 N2242 1.384 . S
C2240 H2231 0.929 . S
C2240 C2232 1.378 . S
C2240 C2235 1.350 . S
C2241 H2228 0.929 . S
C2241 C2233 1.433 . S
C2241 N2243 1.384 . S
N2242 C2238 1.427 . S
N2242 C2239 1.384 . S
N2243 C2235 1.427 . S
N2243 C2241 1.384 . S
H2244 C2250 0.930 . S
H2245 C2254 0.930 . S
H2246 C2259 0.929 . S
H2247 C2257 0.929 . S
H2248 C2252 0.929 . S
H2249 C2258 0.929 . S
C2250 H2244 0.930 . S
C2250 C2251 1.367 . S
C2250 C2258 1.378 . S
C2251 C2250 1.367 . S
C2251 C2259 1.433 . S
C2252 H2248 0.929 . S
C2252 C2254 1.378 . S
C2252 C2256 1.350 . S
C2253 C2256 1.463 . S
C2253 C2258 1.350 . S
C2253 N2261 1.427 . S
C2254 H2245 0.930 . S
C2254 C2252 1.378 . S
C2254 C2255 1.367 . S
C2255 C2254 1.367 . S
C2255 C2257 1.433 . S
C2256 C2252 1.350 . S
C2256 C2253 1.463 . S
C2256 N2260 1.427 . S
C2257 H2247 0.929 . S
C2257 C2255 1.433 . S
C2257 N2260 1.384 . S
C2258 H2249 0.929 . S
C2258 C2250 1.378 . S
C2258 C2253 1.350 . S
C2259 H2246 0.929 . S
C2259 C2251 1.433 . S
C2259 N2261 1.384 . S
N2260 C2256 1.427 . S
N2260 C2257 1.384 . S
N2261 C2253 1.427 . S
N2261 C2259 1.384 . S
H2262 C2268 0.930 . S
H2263 C2272 0.930 . S
H2264 C2277 0.929 . S
H2265 C2275 0.929 . S
H2266 C2270 0.929 . S
H2267 C2276 0.929 . S
C2268 H2262 0.930 . S
C2268 C2269 1.367 . S
C2268 C2276 1.378 . S
C2269 C2268 1.367 . S
C2269 C2277 1.433 . S
C2270 H2266 0.929 . S
C2270 C2272 1.378 . S
C2270 C2274 1.350 . S
C2271 C2274 1.463 . S
C2271 C2276 1.350 . S
C2271 N2279 1.427 . S
C2272 H2263 0.930 . S
C2272 C2270 1.378 . S
C2272 C2273 1.367 . S
C2273 C2272 1.367 . S
C2273 C2275 1.433 . S
C2274 C2270 1.350 . S
C2274 C2271 1.463 . S
C2274 N2278 1.427 . S
C2275 H2265 0.929 . S
C2275 C2273 1.433 . S
C2275 N2278 1.384 . S
C2276 H2267 0.929 . S
C2276 C2268 1.378 . S
C2276 C2271 1.350 . S
C2277 H2264 0.929 . S
C2277 C2269 1.433 . S
C2277 N2279 1.384 . S
N2278 C2274 1.427 . S
N2278 C2275 1.384 . S
N2279 C2271 1.427 . S
N2279 C2277 1.384 . S
H2280 C2286 0.930 . S
H2281 C2290 0.930 . S
H2282 C2295 0.929 . S
H2283 C2293 0.929 . S
H2284 C2288 0.929 . S
H2285 C2294 0.929 . S
C2286 H2280 0.930 . S
C2286 C2287 1.367 . S
C2286 C2294 1.378 . S
C2287 C2286 1.367 . S
C2287 C2295 1.433 . S
C2288 H2284 0.929 . S
C2288 C2290 1.378 . S
C2288 C2292 1.350 . S
C2289 C2292 1.463 . S
C2289 C2294 1.350 . S
C2289 N2297 1.427 . S
C2290 H2281 0.930 . S
C2290 C2288 1.378 . S
C2290 C2291 1.367 . S
C2291 C2290 1.367 . S
C2291 C2293 1.433 . S
C2292 C2288 1.350 . S
C2292 C2289 1.463 . S
C2292 N2296 1.427 . S
C2293 H2283 0.929 . S
C2293 C2291 1.433 . S
C2293 N2296 1.384 . S
C2294 H2285 0.929 . S
C2294 C2286 1.378 . S
C2294 C2289 1.350 . S
C2295 H2282 0.929 . S
C2295 C2287 1.433 . S
C2295 N2297 1.384 . S
N2296 C2292 1.427 . S
N2296 C2293 1.384 . S
N2297 C2289 1.427 . S
N2297 C2295 1.384 . S
H2298 C2304 0.930 . S
H2299 C2308 0.930 . S
H2300 C2313 0.929 . S
H2301 C2311 0.929 . S
H2302 C2306 0.929 . S
H2303 C2312 0.929 . S
C2304 H2298 0.930 . S
C2304 C2305 1.367 . S
C2304 C2312 1.378 . S
C2305 C2304 1.367 . S
C2305 C2313 1.433 . S
C2306 H2302 0.929 . S
C2306 C2308 1.378 . S
C2306 C2310 1.350 . S
C2307 C2310 1.463 . S
C2307 C2312 1.350 . S
C2307 N2315 1.427 . S
C2308 H2299 0.930 . S
C2308 C2306 1.378 . S
C2308 C2309 1.367 . S
C2309 C2308 1.367 . S
C2309 C2311 1.433 . S
C2310 C2306 1.350 . S
C2310 C2307 1.463 . S
C2310 N2314 1.427 . S
C2311 H2301 0.929 . S
C2311 C2309 1.433 . S
C2311 N2314 1.384 . S
C2312 H2303 0.929 . S
C2312 C2304 1.378 . S
C2312 C2307 1.350 . S
C2313 H2300 0.929 . S
C2313 C2305 1.433 . S
C2313 N2315 1.384 . S
N2314 C2310 1.427 . S
N2314 C2311 1.384 . S
N2315 C2307 1.427 . S
N2315 C2313 1.384 . S
H2316 C2322 0.930 . S
H2317 C2326 0.930 . S
H2318 C2331 0.929 . S
H2319 C2329 0.929 . S
H2320 C2324 0.929 . S
H2321 C2330 0.929 . S
C2322 H2316 0.930 . S
C2322 C2323 1.367 . S
C2322 C2330 1.378 . S
C2323 C2322 1.367 . S
C2323 C2331 1.433 . S
C2324 H2320 0.929 . S
C2324 C2326 1.378 . S
C2324 C2328 1.350 . S
C2325 C2328 1.463 . S
C2325 C2330 1.350 . S
C2325 N2333 1.427 . S
C2326 H2317 0.930 . S
C2326 C2324 1.378 . S
C2326 C2327 1.367 . S
C2327 C2326 1.367 . S
C2327 C2329 1.433 . S
C2328 C2324 1.350 . S
C2328 C2325 1.463 . S
C2328 N2332 1.427 . S
C2329 H2319 0.929 . S
C2329 C2327 1.433 . S
C2329 N2332 1.384 . S
C2330 H2321 0.929 . S
C2330 C2322 1.378 . S
C2330 C2325 1.350 . S
C2331 H2318 0.929 . S
C2331 C2323 1.433 . S
C2331 N2333 1.384 . S
N2332 C2328 1.427 . S
N2332 C2329 1.384 . S
N2333 C2325 1.427 . S
N2333 C2331 1.384 . S
H2334 C2340 0.930 . S
H2335 C2344 0.930 . S
H2336 C2349 0.929 . S
H2337 C2347 0.929 . S
H2338 C2342 0.929 . S
H2339 C2348 0.929 . S
C2340 H2334 0.930 . S
C2340 C2341 1.367 . S
C2340 C2348 1.378 . S
C2341 C2340 1.367 . S
C2341 C2349 1.433 . S
C2342 H2338 0.929 . S
C2342 C2344 1.378 . S
C2342 C2346 1.350 . S
C2343 C2346 1.463 . S
C2343 C2348 1.350 . S
C2343 N2351 1.427 . S
C2344 H2335 0.930 . S
C2344 C2342 1.378 . S
C2344 C2345 1.367 . S
C2345 C2344 1.367 . S
C2345 C2347 1.433 . S
C2346 C2342 1.350 . S
C2346 C2343 1.463 . S
C2346 N2350 1.427 . S
C2347 H2337 0.929 . S
C2347 C2345 1.433 . S
C2347 N2350 1.384 . S
C2348 H2339 0.929 . S
C2348 C2340 1.378 . S
C2348 C2343 1.350 . S
C2349 H2336 0.929 . S
C2349 C2341 1.433 . S
C2349 N2351 1.384 . S
N2350 C2346 1.427 . S
N2350 C2347 1.384 . S
N2351 C2343 1.427 . S
N2351 C2349 1.384 . S
H2352 C2358 0.930 . S
H2353 C2362 0.930 . S
H2354 C2367 0.929 . S
H2355 C2365 0.929 . S
H2356 C2360 0.929 . S
H2357 C2366 0.929 . S
C2358 H2352 0.930 . S
C2358 C2359 1.367 . S
C2358 C2366 1.378 . S
C2359 C2358 1.367 . S
C2359 C2367 1.433 . S
C2360 H2356 0.929 . S
C2360 C2362 1.378 . S
C2360 C2364 1.350 . S
C2361 C2364 1.463 . S
C2361 C2366 1.350 . S
C2361 N2369 1.427 . S
C2362 H2353 0.930 . S
C2362 C2360 1.378 . S
C2362 C2363 1.367 . S
C2363 C2362 1.367 . S
C2363 C2365 1.433 . S
C2364 C2360 1.350 . S
C2364 C2361 1.463 . S
C2364 N2368 1.427 . S
C2365 H2355 0.929 . S
C2365 C2363 1.433 . S
C2365 N2368 1.384 . S
C2366 H2357 0.929 . S
C2366 C2358 1.378 . S
C2366 C2361 1.350 . S
C2367 H2354 0.929 . S
C2367 C2359 1.433 . S
C2367 N2369 1.384 . S
N2368 C2364 1.427 . S
N2368 C2365 1.384 . S
N2369 C2361 1.427 . S
N2369 C2367 1.384 . S
H2370 C2376 0.930 . S
H2371 C2380 0.902 1_455 S
H2372 C2385 0.929 . S
H2373 C2383 0.929 . S
H2374 C2378 0.929 . S
H2375 C2384 0.929 . S
C2376 H2370 0.930 . S
C2376 C2377 1.367 . S
C2376 C2384 1.378 . S
C2377 C2376 1.367 . S
C2377 C2385 1.433 . S
C2378 H2374 0.929 . S
C2378 C2380 1.378 . S
C2378 C2382 1.350 . S
C2379 C2382 1.463 . S
C2379 C2384 1.350 . S
C2379 N2387 1.427 . S
C2380 H2371 0.902 1_655 S
C2380 C2378 1.378 . S
C2380 C2381 1.367 . S
C2381 C2380 1.367 . S
C2381 C2383 1.433 . S
C2382 C2378 1.350 . S
C2382 C2379 1.463 . S
C2382 N2386 1.427 . S
C2383 H2373 0.929 . S
C2383 C2381 1.433 . S
C2383 N2386 1.384 . S
C2384 H2375 0.929 . S
C2384 C2376 1.378 . S
C2384 C2379 1.350 . S
C2385 H2372 0.929 . S
C2385 C2377 1.433 . S
C2385 N2387 1.384 . S
N2386 C2382 1.427 . S
N2386 C2383 1.384 . S
N2387 C2379 1.427 . S
N2387 C2385 1.384 . S
H2388 C2394 0.930 . S
H2389 C2398 0.930 . S
H2390 C2403 0.929 . S
H2391 C2401 0.929 . S
H2392 C2396 0.929 . S
H2393 C2402 0.929 . S
C2394 H2388 0.930 . S
C2394 C2395 1.367 . S
C2394 C2402 1.378 . S
C2395 C2394 1.367 . S
C2395 C2403 1.433 . S
C2396 H2392 0.929 . S
C2396 C2398 1.378 . S
C2396 C2400 1.350 . S
C2397 C2400 1.463 . S
C2397 C2402 1.350 . S
C2397 N2405 1.427 . S
C2398 H2389 0.930 . S
C2398 C2396 1.378 . S
C2398 C2399 1.367 . S
C2399 C2398 1.367 . S
C2399 C2401 1.433 . S
C2400 C2396 1.350 . S
C2400 C2397 1.463 . S
C2400 N2404 1.427 . S
C2401 H2391 0.929 . S
C2401 C2399 1.433 . S
C2401 N2404 1.384 . S
C2402 H2393 0.929 . S
C2402 C2394 1.378 . S
C2402 C2397 1.350 . S
C2403 H2390 0.929 . S
C2403 C2395 1.433 . S
C2403 N2405 1.384 . S
N2404 C2400 1.427 . S
N2404 C2401 1.384 . S
N2405 C2397 1.427 . S
N2405 C2403 1.384 . S
H2406 C2412 0.930 . S
H2407 C2416 0.930 . S
H2408 C2421 0.929 . S
H2409 C2419 0.929 . S
H2410 C2414 0.929 . S
H2411 C2420 0.929 . S
C2412 H2406 0.930 . S
C2412 C2413 1.367 . S
C2412 C2420 1.378 . S
C2413 C2412 1.367 . S
C2413 C2421 1.433 . S
C2414 H2410 0.929 . S
C2414 C2416 1.378 . S
C2414 C2418 1.350 . S
C2415 C2418 1.463 . S
C2415 C2420 1.350 . S
C2415 N2423 1.427 . S
C2416 H2407 0.930 . S
C2416 C2414 1.378 . S
C2416 C2417 1.367 . S
C2417 C2416 1.367 . S
C2417 C2419 1.433 . S
C2418 C2414 1.350 . S
C2418 C2415 1.463 . S
C2418 N2422 1.427 . S
C2419 H2409 0.929 . S
C2419 C2417 1.433 . S
C2419 N2422 1.384 . S
C2420 H2411 0.929 . S
C2420 C2412 1.378 . S
C2420 C2415 1.350 . S
C2421 H2408 0.929 . S
C2421 C2413 1.433 . S
C2421 N2423 1.384 . S
N2422 C2418 1.427 . S
N2422 C2419 1.384 . S
N2423 C2415 1.427 . S
N2423 C2421 1.384 . S
H2424 C2430 0.930 . S
H2425 C2434 0.930 . S
H2426 C2439 0.929 . S
H2427 C2437 0.929 . S
H2428 C2432 0.929 . S
H2429 C2438 0.929 . S
C2430 H2424 0.930 . S
C2430 C2431 1.367 . S
C2430 C2438 1.378 . S
C2431 C2430 1.367 . S
C2431 C2439 1.433 . S
C2432 H2428 0.929 . S
C2432 C2434 1.378 . S
C2432 C2436 1.350 . S
C2433 C2436 1.463 . S
C2433 C2438 1.350 . S
C2433 N2441 1.427 . S
C2434 H2425 0.930 . S
C2434 C2432 1.378 . S
C2434 C2435 1.367 . S
C2435 C2434 1.367 . S
C2435 C2437 1.433 . S
C2436 C2432 1.350 . S
C2436 C2433 1.463 . S
C2436 N2440 1.427 . S
C2437 H2427 0.929 . S
C2437 C2435 1.433 . S
C2437 N2440 1.384 . S
C2438 H2429 0.929 . S
C2438 C2430 1.378 . S
C2438 C2433 1.350 . S
C2439 H2426 0.929 . S
C2439 C2431 1.433 . S
C2439 N2441 1.384 . S
N2440 C2436 1.427 . S
N2440 C2437 1.384 . S
N2441 C2433 1.427 . S
N2441 C2439 1.384 . S
H2442 C2448 0.930 . S
H2443 C2452 0.930 . S
H2444 C2457 0.929 . S
H2445 C2455 0.929 . S
H2446 C2450 0.929 . S
H2447 C2456 0.929 . S
C2448 H2442 0.930 . S
C2448 C2449 1.367 . S
C2448 C2456 1.378 . S
C2449 C2448 1.367 . S
C2449 C2457 1.433 . S
C2450 H2446 0.929 . S
C2450 C2452 1.378 . S
C2450 C2454 1.350 . S
C2451 C2454 1.463 . S
C2451 C2456 1.350 . S
C2451 N2459 1.427 . S
C2452 H2443 0.930 . S
C2452 C2450 1.378 . S
C2452 C2453 1.367 . S
C2453 C2452 1.367 . S
C2453 C2455 1.433 . S
C2454 C2450 1.350 . S
C2454 C2451 1.463 . S
C2454 N2458 1.427 . S
C2455 H2445 0.929 . S
C2455 C2453 1.433 . S
C2455 N2458 1.384 . S
C2456 H2447 0.929 . S
C2456 C2448 1.378 . S
C2456 C2451 1.350 . S
C2457 H2444 0.929 . S
C2457 C2449 1.433 . S
C2457 N2459 1.384 . S
N2458 C2454 1.427 . S
N2458 C2455 1.384 . S
N2459 C2451 1.427 . S
N2459 C2457 1.384 . S
H2460 C2466 0.930 . S
H2461 C2470 0.930 . S
H2462 C2475 0.929 . S
H2463 C2473 0.929 . S
H2464 C2468 0.929 . S
H2465 C2474 0.929 . S
C2466 H2460 0.930 . S
C2466 C2467 1.367 . S
C2466 C2474 1.378 . S
C2467 C2466 1.367 . S
C2467 C2475 1.433 . S
C2468 H2464 0.929 . S
C2468 C2470 1.378 . S
C2468 C2472 1.350 . S
C2469 C2472 1.463 . S
C2469 C2474 1.350 . S
C2469 N2477 1.427 . S
C2470 H2461 0.930 . S
C2470 C2468 1.378 . S
C2470 C2471 1.367 . S
C2471 C2470 1.367 . S
C2471 C2473 1.433 . S
C2472 C2468 1.350 . S
C2472 C2469 1.463 . S
C2472 N2476 1.427 . S
C2473 H2463 0.929 . S
C2473 C2471 1.433 . S
C2473 N2476 1.384 . S
C2474 H2465 0.929 . S
C2474 C2466 1.378 . S
C2474 C2469 1.350 . S
C2475 H2462 0.929 . S
C2475 C2467 1.433 . S
C2475 N2477 1.384 . S
N2476 C2472 1.427 . S
N2476 C2473 1.384 . S
N2477 C2469 1.427 . S
N2477 C2475 1.384 . S
H2478 C2484 0.930 . S
H2479 C2488 0.930 . S
H2480 C2493 0.929 . S
H2481 C2491 0.929 . S
H2482 C2486 0.929 . S
H2483 C2492 0.929 . S
C2484 H2478 0.930 . S
C2484 C2485 1.367 . S
C2484 C2492 1.378 . S
C2485 C2484 1.367 . S
C2485 C2493 1.433 . S
C2486 H2482 0.929 . S
C2486 C2488 1.378 . S
C2486 C2490 1.350 . S
C2487 C2490 1.463 . S
C2487 C2492 1.350 . S
C2487 N2495 1.427 . S
C2488 H2479 0.930 . S
C2488 C2486 1.378 . S
C2488 C2489 1.367 . S
C2489 C2488 1.367 . S
C2489 C2491 1.433 . S
C2490 C2486 1.350 . S
C2490 C2487 1.463 . S
C2490 N2494 1.427 . S
C2491 H2481 0.929 . S
C2491 C2489 1.433 . S
C2491 N2494 1.384 . S
C2492 H2483 0.929 . S
C2492 C2484 1.378 . S
C2492 C2487 1.350 . S
C2493 H2480 0.929 . S
C2493 C2485 1.433 . S
C2493 N2495 1.384 . S
N2494 C2490 1.427 . S
N2494 C2491 1.384 . S
N2495 C2487 1.427 . S
N2495 C2493 1.384 . S
H2496 C2502 0.930 . S
H2497 C2506 0.930 . S
H2498 C2511 0.929 . S
H2499 C2509 0.929 . S
H2500 C2504 0.929 . S
H2501 C2510 0.929 . S
C2502 H2496 0.930 . S
C2502 C2503 1.367 . S
C2502 C2510 1.378 . S
C2503 C2502 1.367 . S
C2503 C2511 1.433 . S
C2504 H2500 0.929 . S
C2504 C2506 1.378 . S
C2504 C2508 1.350 . S
C2505 C2508 1.463 . S
C2505 C2510 1.350 . S
C2505 N2513 1.427 . S
C2506 H2497 0.930 . S
C2506 C2504 1.378 . S
C2506 C2507 1.367 . S
C2507 C2506 1.367 . S
C2507 C2509 1.433 . S
C2508 C2504 1.350 . S
C2508 C2505 1.463 . S
C2508 N2512 1.427 . S
C2509 H2499 0.929 . S
C2509 C2507 1.433 . S
C2509 N2512 1.384 . S
C2510 H2501 0.929 . S
C2510 C2502 1.378 . S
C2510 C2505 1.350 . S
C2511 H2498 0.929 . S
C2511 C2503 1.433 . S
C2511 N2513 1.384 . S
N2512 C2508 1.427 . S
N2512 C2509 1.384 . S
N2513 C2505 1.427 . S
N2513 C2511 1.384 . S
H2514 C2520 0.930 . S
H2515 C2524 0.930 . S
H2516 C2529 0.929 . S
H2517 C2527 0.929 . S
H2518 C2522 0.929 . S
H2519 C2528 0.929 . S
C2520 H2514 0.930 . S
C2520 C2521 1.367 . S
C2520 C2528 1.378 . S
C2521 C2520 1.367 . S
C2521 C2529 1.433 . S
C2522 H2518 0.929 . S
C2522 C2524 1.378 . S
C2522 C2526 1.350 . S
C2523 C2526 1.463 . S
C2523 C2528 1.350 . S
C2523 N2531 1.427 . S
C2524 H2515 0.930 . S
C2524 C2522 1.378 . S
C2524 C2525 1.367 . S
C2525 C2524 1.367 . S
C2525 C2527 1.433 . S
C2526 C2522 1.350 . S
C2526 C2523 1.463 . S
C2526 N2530 1.427 . S
C2527 H2517 0.929 . S
C2527 C2525 1.433 . S
C2527 N2530 1.384 . S
C2528 H2519 0.929 . S
C2528 C2520 1.378 . S
C2528 C2523 1.350 . S
C2529 H2516 0.929 . S
C2529 C2521 1.433 . S
C2529 N2531 1.384 . S
N2530 C2526 1.427 . S
N2530 C2527 1.384 . S
N2531 C2523 1.427 . S
N2531 C2529 1.384 . S
H2532 C2538 0.930 . S
H2533 C2542 0.930 . S
H2534 C2547 0.929 . S
H2535 C2545 0.929 . S
H2536 C2540 0.929 . S
H2537 C2546 0.929 . S
C2538 H2532 0.930 . S
C2538 C2539 1.367 . S
C2538 C2546 1.378 . S
C2539 C2538 1.367 . S
C2539 C2547 1.433 . S
C2540 H2536 0.929 . S
C2540 C2542 1.378 . S
C2540 C2544 1.350 . S
C2541 C2544 1.463 . S
C2541 C2546 1.350 . S
C2541 N2549 1.427 . S
C2542 H2533 0.930 . S
C2542 C2540 1.378 . S
C2542 C2543 1.367 . S
C2543 C2542 1.367 . S
C2543 C2545 1.433 . S
C2544 C2540 1.350 . S
C2544 C2541 1.463 . S
C2544 N2548 1.427 . S
C2545 H2535 0.929 . S
C2545 C2543 1.433 . S
C2545 N2548 1.384 . S
C2546 H2537 0.929 . S
C2546 C2538 1.378 . S
C2546 C2541 1.350 . S
C2547 H2534 0.929 . S
C2547 C2539 1.433 . S
C2547 N2549 1.384 . S
N2548 C2544 1.427 . S
N2548 C2545 1.384 . S
N2549 C2541 1.427 . S
N2549 C2547 1.384 . S
H2550 C2556 0.930 . S
H2551 C2560 0.930 . S
H2552 C2565 0.929 . S
H2553 C2563 0.929 . S
H2554 C2558 0.929 . S
H2555 C2564 0.929 . S
C2556 H2550 0.930 . S
C2556 C2557 1.367 . S
C2556 C2564 1.378 . S
C2557 C2556 1.367 . S
C2557 C2565 1.433 . S
C2558 H2554 0.929 . S
C2558 C2560 1.378 . S
C2558 C2562 1.350 . S
C2559 C2562 1.463 . S
C2559 C2564 1.350 . S
C2559 N2567 1.427 . S
C2560 H2551 0.930 . S
C2560 C2558 1.378 . S
C2560 C2561 1.367 . S
C2561 C2560 1.367 . S
C2561 C2563 1.433 . S
C2562 C2558 1.350 . S
C2562 C2559 1.463 . S
C2562 N2566 1.427 . S
C2563 H2553 0.929 . S
C2563 C2561 1.433 . S
C2563 N2566 1.384 . S
C2564 H2555 0.929 . S
C2564 C2556 1.378 . S
C2564 C2559 1.350 . S
C2565 H2552 0.929 . S
C2565 C2557 1.433 . S
C2565 N2567 1.384 . S
N2566 C2562 1.427 . S
N2566 C2563 1.384 . S
N2567 C2559 1.427 . S
N2567 C2565 1.384 . S
H2568 C2574 0.930 . S
H2569 C2578 0.930 . S
H2570 C2583 0.929 . S
H2571 C2581 0.929 . S
H2572 C2576 0.929 . S
H2573 C2582 0.929 . S
C2574 H2568 0.930 . S
C2574 C2575 1.367 . S
C2574 C2582 1.378 . S
C2575 C2574 1.367 . S
C2575 C2583 1.433 . S
C2576 H2572 0.929 . S
C2576 C2578 1.378 . S
C2576 C2580 1.350 . S
C2577 C2580 1.463 . S
C2577 C2582 1.350 . S
C2577 N2585 1.427 . S
C2578 H2569 0.930 . S
C2578 C2576 1.378 . S
C2578 C2579 1.367 . S
C2579 C2578 1.367 . S
C2579 C2581 1.433 . S
C2580 C2576 1.350 . S
C2580 C2577 1.463 . S
C2580 N2584 1.427 . S
C2581 H2571 0.929 . S
C2581 C2579 1.433 . S
C2581 N2584 1.384 . S
C2582 H2573 0.929 . S
C2582 C2574 1.378 . S
C2582 C2577 1.350 . S
C2583 H2570 0.929 . S
C2583 C2575 1.433 . S
C2583 N2585 1.384 . S
N2584 C2580 1.427 . S
N2584 C2581 1.384 . S
N2585 C2577 1.427 . S
N2585 C2583 1.384 . S
H2586 C2592 0.930 . S
H2587 C2596 0.930 . S
H2588 C2601 0.929 . S
H2589 C2599 0.929 . S
H2590 C2594 0.929 . S
H2591 C2600 0.929 . S
C2592 H2586 0.930 . S
C2592 C2593 1.367 . S
C2592 C2600 1.378 . S
C2593 C2592 1.367 . S
C2593 C2601 1.433 . S
C2594 H2590 0.929 . S
C2594 C2596 1.378 . S
C2594 C2598 1.350 . S
C2595 C2598 1.463 . S
C2595 C2600 1.350 . S
C2595 N2603 1.427 . S
C2596 H2587 0.930 . S
C2596 C2594 1.378 . S
C2596 C2597 1.367 . S
C2597 C2596 1.367 . S
C2597 C2599 1.433 . S
C2598 C2594 1.350 . S
C2598 C2595 1.463 . S
C2598 N2602 1.427 . S
C2599 H2589 0.929 . S
C2599 C2597 1.433 . S
C2599 N2602 1.384 . S
C2600 H2591 0.929 . S
C2600 C2592 1.378 . S
C2600 C2595 1.350 . S
C2601 H2588 0.929 . S
C2601 C2593 1.433 . S
C2601 N2603 1.384 . S
N2602 C2598 1.427 . S
N2602 C2599 1.384 . S
N2603 C2595 1.427 . S
N2603 C2601 1.384 . S
H2604 C2610 0.930 . S
H2605 C2614 0.930 . S
H2606 C2619 0.929 . S
H2607 C2617 0.929 . S
H2608 C2612 0.929 . S
H2609 C2618 0.929 . S
C2610 H2604 0.930 . S
C2610 C2611 1.367 . S
C2610 C2618 1.378 . S
C2611 C2610 1.367 . S
C2611 C2619 1.433 . S
C2612 H2608 0.929 . S
C2612 C2614 1.378 . S
C2612 C2616 1.350 . S
C2613 C2616 1.463 . S
C2613 C2618 1.350 . S
C2613 N2621 1.427 . S
C2614 H2605 0.930 . S
C2614 C2612 1.378 . S
C2614 C2615 1.367 . S
C2615 C2614 1.367 . S
C2615 C2617 1.433 . S
C2616 C2612 1.350 . S
C2616 C2613 1.463 . S
C2616 N2620 1.427 . S
C2617 H2607 0.929 . S
C2617 C2615 1.433 . S
C2617 N2620 1.384 . S
C2618 H2609 0.929 . S
C2618 C2610 1.378 . S
C2618 C2613 1.350 . S
C2619 H2606 0.929 . S
C2619 C2611 1.433 . S
C2619 N2621 1.384 . S
N2620 C2616 1.427 . S
N2620 C2617 1.384 . S
N2621 C2613 1.427 . S
N2621 C2619 1.384 . S
H2622 C2628 0.930 . S
H2623 C2632 0.930 . S
H2624 C2637 0.929 . S
H2625 C2635 0.929 . S
H2626 C2630 0.929 . S
H2627 C2636 0.929 . S
C2628 H2622 0.930 . S
C2628 C2629 1.367 . S
C2628 C2636 1.378 . S
C2629 C2628 1.367 . S
C2629 C2637 1.433 . S
C2630 H2626 0.929 . S
C2630 C2632 1.378 . S
C2630 C2634 1.350 . S
C2631 C2634 1.463 . S
C2631 C2636 1.350 . S
C2631 N2639 1.427 . S
C2632 H2623 0.930 . S
C2632 C2630 1.378 . S
C2632 C2633 1.367 . S
C2633 C2632 1.367 . S
C2633 C2635 1.433 . S
C2634 C2630 1.350 . S
C2634 C2631 1.463 . S
C2634 N2638 1.427 . S
C2635 H2625 0.929 . S
C2635 C2633 1.433 . S
C2635 N2638 1.384 . S
C2636 H2627 0.929 . S
C2636 C2628 1.378 . S
C2636 C2631 1.350 . S
C2637 H2624 0.929 . S
C2637 C2629 1.433 . S
C2637 N2639 1.384 . S
N2638 C2634 1.427 . S
N2638 C2635 1.384 . S
N2639 C2631 1.427 . S
N2639 C2637 1.384 . S
H2640 C2646 0.930 . S
H2641 C2650 0.930 . S
H2642 C2655 0.929 . S
H2643 C2653 0.929 . S
H2644 C2648 0.929 . S
H2645 C2654 0.929 . S
C2646 H2640 0.930 . S
C2646 C2647 1.367 . S
C2646 C2654 1.378 . S
C2647 C2646 1.367 . S
C2647 C2655 1.433 . S
C2648 H2644 0.929 . S
C2648 C2650 1.378 . S
C2648 C2652 1.350 . S
C2649 C2652 1.463 . S
C2649 C2654 1.350 . S
C2649 N2657 1.427 . S
C2650 H2641 0.930 . S
C2650 C2648 1.378 . S
C2650 C2651 1.367 . S
C2651 C2650 1.367 . S
C2651 C2653 1.433 . S
C2652 C2648 1.350 . S
C2652 C2649 1.463 . S
C2652 N2656 1.427 . S
C2653 H2643 0.929 . S
C2653 C2651 1.433 . S
C2653 N2656 1.384 . S
C2654 H2645 0.929 . S
C2654 C2646 1.378 . S
C2654 C2649 1.350 . S
C2655 H2642 0.929 . S
C2655 C2647 1.433 . S
C2655 N2657 1.384 . S
N2656 C2652 1.427 . S
N2656 C2653 1.384 . S
N2657 C2649 1.427 . S
N2657 C2655 1.384 . S
H2658 C2664 0.930 . S
H2659 C2668 0.930 . S
H2660 C2673 0.929 . S
H2661 C2671 0.929 . S
H2662 C2666 0.929 . S
H2663 C2672 0.929 . S
C2664 H2658 0.930 . S
C2664 C2665 1.367 . S
C2664 C2672 1.378 . S
C2665 C2664 1.367 . S
C2665 C2673 1.433 . S
C2666 H2662 0.929 . S
C2666 C2668 1.378 . S
C2666 C2670 1.350 . S
C2667 C2670 1.463 . S
C2667 C2672 1.350 . S
C2667 N2675 1.427 . S
C2668 H2659 0.930 . S
C2668 C2666 1.378 . S
C2668 C2669 1.367 . S
C2669 C2668 1.367 . S
C2669 C2671 1.433 . S
C2670 C2666 1.350 . S
C2670 C2667 1.463 . S
C2670 N2674 1.427 . S
C2671 H2661 0.929 . S
C2671 C2669 1.433 . S
C2671 N2674 1.384 . S
C2672 H2663 0.929 . S
C2672 C2664 1.378 . S
C2672 C2667 1.350 . S
C2673 H2660 0.929 . S
C2673 C2665 1.433 . S
C2673 N2675 1.384 . S
N2674 C2670 1.427 . S
N2674 C2671 1.384 . S
N2675 C2667 1.427 . S
N2675 C2673 1.384 . S
H2676 C2682 0.930 . S
H2677 C2686 0.930 . S
H2678 C2691 0.929 . S
H2679 C2689 0.929 . S
H2680 C2684 0.929 . S
H2681 C2690 0.929 . S
C2682 H2676 0.930 . S
C2682 C2683 1.367 . S
C2682 C2690 1.378 . S
C2683 C2682 1.367 . S
C2683 C2691 1.433 . S
C2684 H2680 0.929 . S
C2684 C2686 1.378 . S
C2684 C2688 1.350 . S
C2685 C2688 1.463 . S
C2685 C2690 1.350 . S
C2685 N2693 1.427 . S
C2686 H2677 0.930 . S
C2686 C2684 1.378 . S
C2686 C2687 1.367 . S
C2687 C2686 1.367 . S
C2687 C2689 1.433 . S
C2688 C2684 1.350 . S
C2688 C2685 1.463 . S
C2688 N2692 1.427 . S
C2689 H2679 0.929 . S
C2689 C2687 1.433 . S
C2689 N2692 1.384 . S
C2690 H2681 0.929 . S
C2690 C2682 1.378 . S
C2690 C2685 1.350 . S
C2691 H2678 0.929 . S
C2691 C2683 1.433 . S
C2691 N2693 1.384 . S
N2692 C2688 1.427 . S
N2692 C2689 1.384 . S
N2693 C2685 1.427 . S
N2693 C2691 1.384 . S
H2694 C2700 0.930 . S
H2695 C2704 0.930 . S
H2696 C2709 0.929 . S
H2697 C2707 0.929 . S
H2698 C2702 0.929 . S
H2699 C2708 0.929 . S
C2700 H2694 0.930 . S
C2700 C2701 1.367 . S
C2700 C2708 1.378 . S
C2701 C2700 1.367 . S
C2701 C2709 1.433 . S
C2702 H2698 0.929 . S
C2702 C2704 1.378 . S
C2702 C2706 1.350 . S
C2703 C2706 1.463 . S
C2703 C2708 1.350 . S
C2703 N2711 1.427 . S
C2704 H2695 0.930 . S
C2704 C2702 1.378 . S
C2704 C2705 1.367 . S
C2705 C2704 1.367 . S
C2705 C2707 1.433 . S
C2706 C2702 1.350 . S
C2706 C2703 1.463 . S
C2706 N2710 1.427 . S
C2707 H2697 0.929 . S
C2707 C2705 1.433 . S
C2707 N2710 1.384 . S
C2708 H2699 0.929 . S
C2708 C2700 1.378 . S
C2708 C2703 1.350 . S
C2709 H2696 0.929 . S
C2709 C2701 1.433 . S
C2709 N2711 1.384 . S
N2710 C2706 1.427 . S
N2710 C2707 1.384 . S
N2711 C2703 1.427 . S
N2711 C2709 1.384 . S
H2712 C2718 0.930 . S
H2713 C2722 0.930 . S
H2714 C2727 0.929 . S
H2715 C2725 0.929 . S
H2716 C2720 0.929 . S
H2717 C2726 0.929 . S
C2718 H2712 0.930 . S
C2718 C2719 1.367 . S
C2718 C2726 1.378 . S
C2719 C2718 1.367 . S
C2719 C2727 1.433 . S
C2720 H2716 0.929 . S
C2720 C2722 1.378 . S
C2720 C2724 1.350 . S
C2721 C2724 1.463 . S
C2721 C2726 1.350 . S
C2721 N2729 1.427 . S
C2722 H2713 0.930 . S
C2722 C2720 1.378 . S
C2722 C2723 1.367 . S
C2723 C2722 1.367 . S
C2723 C2725 1.433 . S
C2724 C2720 1.350 . S
C2724 C2721 1.463 . S
C2724 N2728 1.427 . S
C2725 H2715 0.929 . S
C2725 C2723 1.433 . S
C2725 N2728 1.384 . S
C2726 H2717 0.929 . S
C2726 C2718 1.378 . S
C2726 C2721 1.350 . S
C2727 H2714 0.929 . S
C2727 C2719 1.433 . S
C2727 N2729 1.384 . S
N2728 C2724 1.427 . S
N2728 C2725 1.384 . S
N2729 C2721 1.427 . S
N2729 C2727 1.384 . S
H2730 C2736 0.930 . S
H2731 C2740 0.930 . S
H2732 C2745 0.929 . S
H2733 C2743 0.929 . S
H2734 C2738 0.929 . S
H2735 C2744 0.929 . S
C2736 H2730 0.930 . S
C2736 C2737 1.367 . S
C2736 C2744 1.378 . S
C2737 C2736 1.367 . S
C2737 C2745 1.433 . S
C2738 H2734 0.929 . S
C2738 C2740 1.378 . S
C2738 C2742 1.350 . S
C2739 C2742 1.463 . S
C2739 C2744 1.350 . S
C2739 N2747 1.427 . S
C2740 H2731 0.930 . S
C2740 C2738 1.378 . S
C2740 C2741 1.367 . S
C2741 C2740 1.367 . S
C2741 C2743 1.433 . S
C2742 C2738 1.350 . S
C2742 C2739 1.463 . S
C2742 N2746 1.427 . S
C2743 H2733 0.929 . S
C2743 C2741 1.433 . S
C2743 N2746 1.384 . S
C2744 H2735 0.929 . S
C2744 C2736 1.378 . S
C2744 C2739 1.350 . S
C2745 H2732 0.929 . S
C2745 C2737 1.433 . S
C2745 N2747 1.384 . S
N2746 C2742 1.427 . S
N2746 C2743 1.384 . S
N2747 C2739 1.427 . S
N2747 C2745 1.384 . S
H2748 C2754 0.930 . S
H2749 C2758 0.930 . S
H2750 C2763 0.929 . S
H2751 C2761 0.929 . S
H2752 C2756 0.929 . S
H2753 C2762 0.929 . S
C2754 H2748 0.930 . S
C2754 C2755 1.367 . S
C2754 C2762 1.378 . S
C2755 C2754 1.367 . S
C2755 C2763 1.433 . S
C2756 H2752 0.929 . S
C2756 C2758 1.378 . S
C2756 C2760 1.350 . S
C2757 C2760 1.463 . S
C2757 C2762 1.350 . S
C2757 N2765 1.427 . S
C2758 H2749 0.930 . S
C2758 C2756 1.378 . S
C2758 C2759 1.367 . S
C2759 C2758 1.367 . S
C2759 C2761 1.433 . S
C2760 C2756 1.350 . S
C2760 C2757 1.463 . S
C2760 N2764 1.427 . S
C2761 H2751 0.929 . S
C2761 C2759 1.433 . S
C2761 N2764 1.384 . S
C2762 H2753 0.929 . S
C2762 C2754 1.378 . S
C2762 C2757 1.350 . S
C2763 H2750 0.929 . S
C2763 C2755 1.433 . S
C2763 N2765 1.384 . S
N2764 C2760 1.427 . S
N2764 C2761 1.384 . S
N2765 C2757 1.427 . S
N2765 C2763 1.384 . S
H2766 C2772 0.930 . S
H2767 C2776 0.930 . S
H2768 C2781 0.929 . S
H2769 C2779 0.929 . S
H2770 C2774 0.929 . S
H2771 C2780 0.929 . S
C2772 H2766 0.930 . S
C2772 C2773 1.367 . S
C2772 C2780 1.378 . S
C2773 C2772 1.367 . S
C2773 C2781 1.433 . S
C2774 H2770 0.929 . S
C2774 C2776 1.378 . S
C2774 C2778 1.350 . S
C2775 C2778 1.463 . S
C2775 C2780 1.350 . S
C2775 N2783 1.427 . S
C2776 H2767 0.930 . S
C2776 C2774 1.378 . S
C2776 C2777 1.367 . S
C2777 C2776 1.367 . S
C2777 C2779 1.433 . S
C2778 C2774 1.350 . S
C2778 C2775 1.463 . S
C2778 N2782 1.427 . S
C2779 H2769 0.929 . S
C2779 C2777 1.433 . S
C2779 N2782 1.384 . S
C2780 H2771 0.929 . S
C2780 C2772 1.378 . S
C2780 C2775 1.350 . S
C2781 H2768 0.929 . S
C2781 C2773 1.433 . S
C2781 N2783 1.384 . S
N2782 C2778 1.427 . S
N2782 C2779 1.384 . S
N2783 C2775 1.427 . S
N2783 C2781 1.384 . S
H2784 C2790 0.930 . S
H2785 C2794 0.930 . S
H2786 C2799 0.929 . S
H2787 C2797 0.929 . S
H2788 C2792 0.929 . S
H2789 C2798 0.929 . S
C2790 H2784 0.930 . S
C2790 C2791 1.367 . S
C2790 C2798 1.378 . S
C2791 C2790 1.367 . S
C2791 C2799 1.433 . S
C2792 H2788 0.929 . S
C2792 C2794 1.378 . S
C2792 C2796 1.350 . S
C2793 C2796 1.463 . S
C2793 C2798 1.350 . S
C2793 N2801 1.427 . S
C2794 H2785 0.930 . S
C2794 C2792 1.378 . S
C2794 C2795 1.367 . S
C2795 C2794 1.367 . S
C2795 C2797 1.433 . S
C2796 C2792 1.350 . S
C2796 C2793 1.463 . S
C2796 N2800 1.427 . S
C2797 H2787 0.929 . S
C2797 C2795 1.433 . S
C2797 N2800 1.384 . S
C2798 H2789 0.929 . S
C2798 C2790 1.378 . S
C2798 C2793 1.350 . S
C2799 H2786 0.929 . S
C2799 C2791 1.433 . S
C2799 N2801 1.384 . S
N2800 C2796 1.427 . S
N2800 C2797 1.384 . S
N2801 C2793 1.427 . S
N2801 C2799 1.384 . S
H2802 C2808 0.930 . S
H2803 C2812 0.930 . S
H2804 C2817 0.929 . S
H2805 C2815 0.929 . S
H2806 C2810 0.929 . S
H2807 C2816 0.929 . S
C2808 H2802 0.930 . S
C2808 C2809 1.367 . S
C2808 C2816 1.378 . S
C2809 C2808 1.367 . S
C2809 C2817 1.433 . S
C2810 H2806 0.929 . S
C2810 C2812 1.378 . S
C2810 C2814 1.350 . S
C2811 C2814 1.463 . S
C2811 C2816 1.350 . S
C2811 N2819 1.427 . S
C2812 H2803 0.930 . S
C2812 C2810 1.378 . S
C2812 C2813 1.367 . S
C2813 C2812 1.367 . S
C2813 C2815 1.433 . S
C2814 C2810 1.350 . S
C2814 C2811 1.463 . S
C2814 N2818 1.427 . S
C2815 H2805 0.929 . S
C2815 C2813 1.433 . S
C2815 N2818 1.384 . S
C2816 H2807 0.929 . S
C2816 C2808 1.378 . S
C2816 C2811 1.350 . S
C2817 H2804 0.929 . S
C2817 C2809 1.433 . S
C2817 N2819 1.384 . S
N2818 C2814 1.427 . S
N2818 C2815 1.384 . S
N2819 C2811 1.427 . S
N2819 C2817 1.384 . S
H2820 C2826 0.930 . S
H2821 C2830 0.930 . S
H2822 C2835 0.929 . S
H2823 C2833 0.929 . S
H2824 C2828 0.929 . S
H2825 C2834 0.929 . S
C2826 H2820 0.930 . S
C2826 C2827 1.367 . S
C2826 C2834 1.378 . S
C2827 C2826 1.367 . S
C2827 C2835 1.433 . S
C2828 H2824 0.929 . S
C2828 C2830 1.378 . S
C2828 C2832 1.350 . S
C2829 C2832 1.463 . S
C2829 C2834 1.350 . S
C2829 N2837 1.427 . S
C2830 H2821 0.930 . S
C2830 C2828 1.378 . S
C2830 C2831 1.367 . S
C2831 C2830 1.367 . S
C2831 C2833 1.433 . S
C2832 C2828 1.350 . S
C2832 C2829 1.463 . S
C2832 N2836 1.427 . S
C2833 H2823 0.929 . S
C2833 C2831 1.433 . S
C2833 N2836 1.384 . S
C2834 H2825 0.929 . S
C2834 C2826 1.378 . S
C2834 C2829 1.350 . S
C2835 H2822 0.929 . S
C2835 C2827 1.433 . S
C2835 N2837 1.384 . S
N2836 C2832 1.427 . S
N2836 C2833 1.384 . S
N2837 C2829 1.427 . S
N2837 C2835 1.384 . S
H2838 C2844 0.930 . S
H2839 C2848 0.930 . S
H2840 C2853 0.929 . S
H2841 C2851 0.929 . S
H2842 C2846 0.929 . S
H2843 C2852 0.929 . S
C2844 H2838 0.930 . S
C2844 C2845 1.367 . S
C2844 C2852 1.378 . S
C2845 C2844 1.367 . S
C2845 C2853 1.433 . S
C2846 H2842 0.929 . S
C2846 C2848 1.378 . S
C2846 C2850 1.350 . S
C2847 C2850 1.463 . S
C2847 C2852 1.350 . S
C2847 N2855 1.427 . S
C2848 H2839 0.930 . S
C2848 C2846 1.378 . S
C2848 C2849 1.367 . S
C2849 C2848 1.367 . S
C2849 C2851 1.433 . S
C2850 C2846 1.350 . S
C2850 C2847 1.463 . S
C2850 N2854 1.427 . S
C2851 H2841 0.929 . S
C2851 C2849 1.433 . S
C2851 N2854 1.384 . S
C2852 H2843 0.929 . S
C2852 C2844 1.378 . S
C2852 C2847 1.350 . S
C2853 H2840 0.929 . S
C2853 C2845 1.433 . S
C2853 N2855 1.384 . S
N2854 C2850 1.427 . S
N2854 C2851 1.384 . S
N2855 C2847 1.427 . S
N2855 C2853 1.384 . S
H2856 C2862 0.930 . S
H2857 C2866 0.930 . S
H2858 C2871 0.929 . S
H2859 C2869 0.929 . S
H2860 C2864 0.929 . S
H2861 C2870 0.929 . S
C2862 H2856 0.930 . S
C2862 C2863 1.367 . S
C2862 C2870 1.378 . S
C2863 C2862 1.367 . S
C2863 C2871 1.433 . S
C2864 H2860 0.929 . S
C2864 C2866 1.378 . S
C2864 C2868 1.350 . S
C2865 C2868 1.463 . S
C2865 C2870 1.350 . S
C2865 N2873 1.427 . S
C2866 H2857 0.930 . S
C2866 C2864 1.378 . S
C2866 C2867 1.367 . S
C2867 C2866 1.367 . S
C2867 C2869 1.433 . S
C2868 C2864 1.350 . S
C2868 C2865 1.463 . S
C2868 N2872 1.427 . S
C2869 H2859 0.929 . S
C2869 C2867 1.433 . S
C2869 N2872 1.384 . S
C2870 H2861 0.929 . S
C2870 C2862 1.378 . S
C2870 C2865 1.350 . S
C2871 H2858 0.929 . S
C2871 C2863 1.433 . S
C2871 N2873 1.384 . S
N2872 C2868 1.427 . S
N2872 C2869 1.384 . S
N2873 C2865 1.427 . S
N2873 C2871 1.384 . S
H2874 C2880 0.930 . S
H2875 C2884 0.930 . S
H2876 C2889 0.929 . S
H2877 C2887 0.929 . S
H2878 C2882 0.929 . S
H2879 C2888 0.929 . S
C2880 H2874 0.930 . S
C2880 C2881 1.367 . S
C2880 C2888 1.378 . S
C2881 C2880 1.367 . S
C2881 C2889 1.433 . S
C2882 H2878 0.929 . S
C2882 C2884 1.378 . S
C2882 C2886 1.350 . S
C2883 C2886 1.463 . S
C2883 C2888 1.350 . S
C2883 N2891 1.427 . S
C2884 H2875 0.930 . S
C2884 C2882 1.378 . S
C2884 C2885 1.367 . S
C2885 C2884 1.367 . S
C2885 C2887 1.433 . S
C2886 C2882 1.350 . S
C2886 C2883 1.463 . S
C2886 N2890 1.427 . S
C2887 H2877 0.929 . S
C2887 C2885 1.433 . S
C2887 N2890 1.384 . S
C2888 H2879 0.929 . S
C2888 C2880 1.378 . S
C2888 C2883 1.350 . S
C2889 H2876 0.929 . S
C2889 C2881 1.433 . S
C2889 N2891 1.384 . S
N2890 C2886 1.427 . S
N2890 C2887 1.384 . S
N2891 C2883 1.427 . S
N2891 C2889 1.384 . S
H2892 C2898 0.930 . S
H2893 C2902 0.930 . S
H2894 C2907 0.929 . S
H2895 C2905 0.929 . S
H2896 C2900 0.929 . S
H2897 C2906 0.929 . S
C2898 H2892 0.930 . S
C2898 C2899 1.367 . S
C2898 C2906 1.378 . S
C2899 C2898 1.367 . S
C2899 C2907 1.433 . S
C2900 H2896 0.929 . S
C2900 C2902 1.378 . S
C2900 C2904 1.350 . S
C2901 C2904 1.463 . S
C2901 C2906 1.350 . S
C2901 N2909 1.427 . S
C2902 H2893 0.930 . S
C2902 C2900 1.378 . S
C2902 C2903 1.367 . S
C2903 C2902 1.367 . S
C2903 C2905 1.433 . S
C2904 C2900 1.350 . S
C2904 C2901 1.463 . S
C2904 N2908 1.427 . S
C2905 H2895 0.929 . S
C2905 C2903 1.433 . S
C2905 N2908 1.384 . S
C2906 H2897 0.929 . S
C2906 C2898 1.378 . S
C2906 C2901 1.350 . S
C2907 H2894 0.929 . S
C2907 C2899 1.433 . S
C2907 N2909 1.384 . S
N2908 C2904 1.427 . S
N2908 C2905 1.384 . S
N2909 C2901 1.427 . S
N2909 C2907 1.384 . S
H2910 C2916 0.930 . S
H2911 C2920 0.930 . S
H2912 C2925 0.929 . S
H2913 C2923 0.929 . S
H2914 C2918 0.929 . S
H2915 C2924 0.929 . S
C2916 H2910 0.930 . S
C2916 C2917 1.367 . S
C2916 C2924 1.378 . S
C2917 C2916 1.367 . S
C2917 C2925 1.433 . S
C2918 H2914 0.929 . S
C2918 C2920 1.378 . S
C2918 C2922 1.350 . S
C2919 C2922 1.463 . S
C2919 C2924 1.350 . S
C2919 N2927 1.427 . S
C2920 H2911 0.930 . S
C2920 C2918 1.378 . S
C2920 C2921 1.367 . S
C2921 C2920 1.367 . S
C2921 C2923 1.433 . S
C2922 C2918 1.350 . S
C2922 C2919 1.463 . S
C2922 N2926 1.427 . S
C2923 H2913 0.929 . S
C2923 C2921 1.433 . S
C2923 N2926 1.384 . S
C2924 H2915 0.929 . S
C2924 C2916 1.378 . S
C2924 C2919 1.350 . S
C2925 H2912 0.929 . S
C2925 C2917 1.433 . S
C2925 N2927 1.384 . S
N2926 C2922 1.427 . S
N2926 C2923 1.384 . S
N2927 C2919 1.427 . S
N2927 C2925 1.384 . S
H2928 C2934 0.930 . S
H2929 C2938 0.930 . S
H2930 C2943 0.929 . S
H2931 C2941 0.929 . S
H2932 C2936 0.929 . S
H2933 C2942 0.929 . S
C2934 H2928 0.930 . S
C2934 C2935 1.367 . S
C2934 C2942 1.378 . S
C2935 C2934 1.367 . S
C2935 C2943 1.433 . S
C2936 H2932 0.929 . S
C2936 C2938 1.378 . S
C2936 C2940 1.350 . S
C2937 C2940 1.463 . S
C2937 C2942 1.350 . S
C2937 N2945 1.427 . S
C2938 H2929 0.930 . S
C2938 C2936 1.378 . S
C2938 C2939 1.367 . S
C2939 C2938 1.367 . S
C2939 C2941 1.433 . S
C2940 C2936 1.350 . S
C2940 C2937 1.463 . S
C2940 N2944 1.427 . S
C2941 H2931 0.929 . S
C2941 C2939 1.433 . S
C2941 N2944 1.384 . S
C2942 H2933 0.929 . S
C2942 C2934 1.378 . S
C2942 C2937 1.350 . S
C2943 H2930 0.929 . S
C2943 C2935 1.433 . S
C2943 N2945 1.384 . S
N2944 C2940 1.427 . S
N2944 C2941 1.384 . S
N2945 C2937 1.427 . S
N2945 C2943 1.384 . S
H2946 C2952 0.930 . S
H2947 C2956 0.930 . S
H2948 C2961 0.929 . S
H2949 C2959 0.929 . S
H2950 C2954 0.929 . S
H2951 C2960 0.929 . S
C2952 H2946 0.930 . S
C2952 C2953 1.367 . S
C2952 C2960 1.378 . S
C2953 C2952 1.367 . S
C2953 C2961 1.433 . S
C2954 H2950 0.929 . S
C2954 C2956 1.378 . S
C2954 C2958 1.350 . S
C2955 C2958 1.463 . S
C2955 C2960 1.350 . S
C2955 N2963 1.427 . S
C2956 H2947 0.930 . S
C2956 C2954 1.378 . S
C2956 C2957 1.367 . S
C2957 C2956 1.367 . S
C2957 C2959 1.433 . S
C2958 C2954 1.350 . S
C2958 C2955 1.463 . S
C2958 N2962 1.427 . S
C2959 H2949 0.929 . S
C2959 C2957 1.433 . S
C2959 N2962 1.384 . S
C2960 H2951 0.929 . S
C2960 C2952 1.378 . S
C2960 C2955 1.350 . S
C2961 H2948 0.929 . S
C2961 C2953 1.433 . S
C2961 N2963 1.384 . S
N2962 C2958 1.427 . S
N2962 C2959 1.384 . S
N2963 C2955 1.427 . S
N2963 C2961 1.384 . S
H2964 C2970 0.930 . S
H2965 C2974 0.930 . S
H2966 C2979 0.929 . S
H2967 C2977 0.929 . S
H2968 C2972 0.929 . S
H2969 C2978 0.929 . S
C2970 H2964 0.930 . S
C2970 C2971 1.367 . S
C2970 C2978 1.378 . S
C2971 C2970 1.367 . S
C2971 C2979 1.433 . S
C2972 H2968 0.929 . S
C2972 C2974 1.378 . S
C2972 C2976 1.350 . S
C2973 C2976 1.463 . S
C2973 C2978 1.350 . S
C2973 N2981 1.427 . S
C2974 H2965 0.930 . S
C2974 C2972 1.378 . S
C2974 C2975 1.367 . S
C2975 C2974 1.367 . S
C2975 C2977 1.433 . S
C2976 C2972 1.350 . S
C2976 C2973 1.463 . S
C2976 N2980 1.427 . S
C2977 H2967 0.929 . S
C2977 C2975 1.433 . S
C2977 N2980 1.384 . S
C2978 H2969 0.929 . S
C2978 C2970 1.378 . S
C2978 C2973 1.350 . S
C2979 H2966 0.929 . S
C2979 C2971 1.433 . S
C2979 N2981 1.384 . S
N2980 C2976 1.427 . S
N2980 C2977 1.384 . S
N2981 C2973 1.427 . S
N2981 C2979 1.384 . S
H2982 C2988 0.930 . S
H2983 C2992 0.930 . S
H2984 C2997 0.929 . S
H2985 C2995 0.929 . S
H2986 C2990 0.929 . S
H2987 C2996 0.929 . S
C2988 H2982 0.930 . S
C2988 C2989 1.367 . S
C2988 C2996 1.378 . S
C2989 C2988 1.367 . S
C2989 C2997 1.433 . S
C2990 H2986 0.929 . S
C2990 C2992 1.378 . S
C2990 C2994 1.350 . S
C2991 C2994 1.463 . S
C2991 C2996 1.350 . S
C2991 N2999 1.427 . S
C2992 H2983 0.930 . S
C2992 C2990 1.378 . S
C2992 C2993 1.367 . S
C2993 C2992 1.367 . S
C2993 C2995 1.433 . S
C2994 C2990 1.350 . S
C2994 C2991 1.463 . S
C2994 N2998 1.427 . S
C2995 H2985 0.929 . S
C2995 C2993 1.433 . S
C2995 N2998 1.384 . S
C2996 H2987 0.929 . S
C2996 C2988 1.378 . S
C2996 C2991 1.350 . S
C2997 H2984 0.929 . S
C2997 C2989 1.433 . S
C2997 N2999 1.384 . S
N2998 C2994 1.427 . S
N2998 C2995 1.384 . S
N2999 C2991 1.427 . S
N2999 C2997 1.384 . S
H3000 C3006 0.930 . S
H3001 C3010 0.930 . S
H3002 C3015 0.929 . S
H3003 C3013 0.929 . S
H3004 C3008 0.929 . S
H3005 C3014 0.929 . S
C3006 H3000 0.930 . S
C3006 C3007 1.367 . S
C3006 C3014 1.378 . S
C3007 C3006 1.367 . S
C3007 C3015 1.433 . S
C3008 H3004 0.929 . S
C3008 C3010 1.378 . S
C3008 C3012 1.350 . S
C3009 C3012 1.463 . S
C3009 C3014 1.350 . S
C3009 N3017 1.427 . S
C3010 H3001 0.930 . S
C3010 C3008 1.378 . S
C3010 C3011 1.367 . S
C3011 C3010 1.367 . S
C3011 C3013 1.433 . S
C3012 C3008 1.350 . S
C3012 C3009 1.463 . S
C3012 N3016 1.427 . S
C3013 H3003 0.929 . S
C3013 C3011 1.433 . S
C3013 N3016 1.384 . S
C3014 H3005 0.929 . S
C3014 C3006 1.378 . S
C3014 C3009 1.350 . S
C3015 H3002 0.929 . S
C3015 C3007 1.433 . S
C3015 N3017 1.384 . S
N3016 C3012 1.427 . S
N3016 C3013 1.384 . S
N3017 C3009 1.427 . S
N3017 C3015 1.384 . S
H3018 C3024 0.930 . S
H3019 C3028 0.930 . S
H3020 C3033 0.954 . S
H3021 C3031 0.929 . S
H3022 C3026 0.929 . S
H3023 C3032 0.929 . S
C3024 H3018 0.930 . S
C3024 C3025 1.367 . S
C3024 C3032 1.378 . S
C3025 C3024 1.367 . S
C3025 C3033 1.433 . S
C3026 H3022 0.929 . S
C3026 C3028 1.378 . S
C3026 C3030 1.350 . S
C3027 C3030 1.463 . S
C3027 C3032 1.350 . S
C3027 N3035 1.427 . S
C3028 H3019 0.930 . S
C3028 C3026 1.378 . S
C3028 C3029 1.367 . S
C3029 C3028 1.367 . S
C3029 C3031 1.433 . S
C3030 C3026 1.350 . S
C3030 C3027 1.463 . S
C3030 N3034 1.427 . S
C3031 H3021 0.929 . S
C3031 C3029 1.433 . S
C3031 N3034 1.384 . S
C3032 H3023 0.929 . S
C3032 C3024 1.378 . S
C3032 C3027 1.350 . S
C3033 H3020 0.954 . S
C3033 C3025 1.433 . S
C3033 N3035 1.384 . S
N3034 C3030 1.427 . S
N3034 C3031 1.384 . S
N3035 C3027 1.427 . S
N3035 C3033 1.384 . S
H3036 C3042 0.930 . S
H3037 C3046 0.930 . S
H3038 C3051 0.929 . S
H3039 C3049 0.929 . S
H3040 C3044 0.929 . S
H3041 C3050 0.929 . S
C3042 H3036 0.930 . S
C3042 C3043 1.367 . S
C3042 C3050 1.378 . S
C3043 C3042 1.367 . S
C3043 C3051 1.433 . S
C3044 H3040 0.929 . S
C3044 C3046 1.378 . S
C3044 C3048 1.350 . S
C3045 C3048 1.463 . S
C3045 C3050 1.350 . S
C3045 N3053 1.427 . S
C3046 H3037 0.930 . S
C3046 C3044 1.378 . S
C3046 C3047 1.367 . S
C3047 C3046 1.367 . S
C3047 C3049 1.433 . S
C3048 C3044 1.350 . S
C3048 C3045 1.463 . S
C3048 N3052 1.427 . S
C3049 H3039 0.929 . S
C3049 C3047 1.433 . S
C3049 N3052 1.384 . S
C3050 H3041 0.929 . S
C3050 C3042 1.378 . S
C3050 C3045 1.350 . S
C3051 H3038 0.929 . S
C3051 C3043 1.433 . S
C3051 N3053 1.384 . S
N3052 C3048 1.427 . S
N3052 C3049 1.384 . S
N3053 C3045 1.427 . S
N3053 C3051 1.384 . S
H3054 C3060 0.930 . S
H3055 C3064 0.930 . S
H3056 C3069 0.929 . S
H3057 C3067 0.929 . S
H3058 C3062 0.929 . S
H3059 C3068 0.929 . S
C3060 H3054 0.930 . S
C3060 C3061 1.367 . S
C3060 C3068 1.378 . S
C3061 C3060 1.367 . S
C3061 C3069 1.433 . S
C3062 H3058 0.929 . S
C3062 C3064 1.378 . S
C3062 C3066 1.350 . S
C3063 C3066 1.463 . S
C3063 C3068 1.350 . S
C3063 N3071 1.427 . S
C3064 H3055 0.930 . S
C3064 C3062 1.378 . S
C3064 C3065 1.367 . S
C3065 C3064 1.367 . S
C3065 C3067 1.433 . S
C3066 C3062 1.350 . S
C3066 C3063 1.463 . S
C3066 N3070 1.427 . S
C3067 H3057 0.929 . S
C3067 C3065 1.433 . S
C3067 N3070 1.384 . S
C3068 H3059 0.929 . S
C3068 C3060 1.378 . S
C3068 C3063 1.350 . S
C3069 H3056 0.929 . S
C3069 C3061 1.433 . S
C3069 N3071 1.384 . S
N3070 C3066 1.427 . S
N3070 C3067 1.384 . S
N3071 C3063 1.427 . S
N3071 C3069 1.384 . S
H3072 C3078 0.930 . S
H3073 C3082 0.930 . S
H3074 C3087 0.929 . S
H3075 C3085 0.929 . S
H3076 C3080 0.929 . S
H3077 C3086 0.929 . S
C3078 H3072 0.930 . S
C3078 C3079 1.367 . S
C3078 C3086 1.378 . S
C3079 C3078 1.367 . S
C3079 C3087 1.433 . S
C3080 H3076 0.929 . S
C3080 C3082 1.378 . S
C3080 C3084 1.350 . S
C3081 C3084 1.463 . S
C3081 C3086 1.350 . S
C3081 N3089 1.427 . S
C3082 H3073 0.930 . S
C3082 C3080 1.378 . S
C3082 C3083 1.367 . S
C3083 C3082 1.367 . S
C3083 C3085 1.433 . S
C3084 C3080 1.350 . S
C3084 C3081 1.463 . S
C3084 N3088 1.427 . S
C3085 H3075 0.929 . S
C3085 C3083 1.433 . S
C3085 N3088 1.384 . S
C3086 H3077 0.929 . S
C3086 C3078 1.378 . S
C3086 C3081 1.350 . S
C3087 H3074 0.929 . S
C3087 C3079 1.433 . S
C3087 N3089 1.384 . S
N3088 C3084 1.427 . S
N3088 C3085 1.384 . S
N3089 C3081 1.427 . S
N3089 C3087 1.384 . S
H3090 C3096 0.930 . S
H3091 C3100 0.930 . S
H3092 C3105 0.929 . S
H3093 C3103 0.929 . S
H3094 C3098 0.929 . S
H3095 C3104 0.929 . S
C3096 H3090 0.930 . S
C3096 C3097 1.367 . S
C3096 C3104 1.378 . S
C3097 C3096 1.367 . S
C3097 C3105 1.433 . S
C3098 H3094 0.929 . S
C3098 C3100 1.378 . S
C3098 C3102 1.350 . S
C3099 C3102 1.463 . S
C3099 C3104 1.350 . S
C3099 N3107 1.427 . S
C3100 H3091 0.930 . S
C3100 C3098 1.378 . S
C3100 C3101 1.367 . S
C3101 C3100 1.367 . S
C3101 C3103 1.433 . S
C3102 C3098 1.350 . S
C3102 C3099 1.463 . S
C3102 N3106 1.427 . S
C3103 H3093 0.929 . S
C3103 C3101 1.433 . S
C3103 N3106 1.384 . S
C3104 H3095 0.929 . S
C3104 C3096 1.378 . S
C3104 C3099 1.350 . S
C3105 H3092 0.929 . S
C3105 C3097 1.433 . S
C3105 N3107 1.384 . S
N3106 C3102 1.427 . S
N3106 C3103 1.384 . S
N3107 C3099 1.427 . S
N3107 C3105 1.384 . S
H3108 C3114 0.930 . S
H3109 C3118 0.930 1_545 S
H3110 C3123 0.929 . S
H3111 C3121 0.929 . S
H3112 C3116 0.929 . S
H3113 C3122 0.929 . S
C3114 H3108 0.930 . S
C3114 C3115 1.367 . S
C3114 C3122 1.378 . S
C3115 C3114 1.367 . S
C3115 C3123 1.433 . S
C3116 H3112 0.929 . S
C3116 C3118 1.378 . S
C3116 C3120 1.350 . S
C3117 C3120 1.463 . S
C3117 C3122 1.350 . S
C3117 N3125 1.427 . S
C3118 H3109 0.930 1_565 S
C3118 C3116 1.378 . S
C3118 C3119 1.367 . S
C3119 C3118 1.367 . S
C3119 C3121 1.433 . S
C3120 C3116 1.350 . S
C3120 C3117 1.463 . S
C3120 N3124 1.427 . S
C3121 H3111 0.929 . S
C3121 C3119 1.433 . S
C3121 N3124 1.384 . S
C3122 H3113 0.929 . S
C3122 C3114 1.378 . S
C3122 C3117 1.350 . S
C3123 H3110 0.929 . S
C3123 C3115 1.433 . S
C3123 N3125 1.384 . S
N3124 C3120 1.427 . S
N3124 C3121 1.384 . S
N3125 C3117 1.427 . S
N3125 C3123 1.384 . S
H3126 C3132 0.930 . S
H3127 C3136 0.930 . S
H3128 C3141 0.929 . S
H3129 C3139 0.929 . S
H3130 C3134 0.929 . S
H3131 C3140 0.929 . S
C3132 H3126 0.930 . S
C3132 C3133 1.367 . S
C3132 C3140 1.378 . S
C3133 C3132 1.367 . S
C3133 C3141 1.433 . S
C3134 H3130 0.929 . S
C3134 C3136 1.378 . S
C3134 C3138 1.350 . S
C3135 C3138 1.463 . S
C3135 C3140 1.350 . S
C3135 N3143 1.427 . S
C3136 H3127 0.930 . S
C3136 C3134 1.378 . S
C3136 C3137 1.367 . S
C3137 C3136 1.367 . S
C3137 C3139 1.433 . S
C3138 C3134 1.350 . S
C3138 C3135 1.463 . S
C3138 N3142 1.427 . S
C3139 H3129 0.929 . S
C3139 C3137 1.433 . S
C3139 N3142 1.384 . S
C3140 H3131 0.929 . S
C3140 C3132 1.378 . S
C3140 C3135 1.350 . S
C3141 H3128 0.929 . S
C3141 C3133 1.433 . S
C3141 N3143 1.384 . S
N3142 C3138 1.427 . S
N3142 C3139 1.384 . S
N3143 C3135 1.427 . S
N3143 C3141 1.384 . S
H3144 C3150 0.930 . S
H3145 C3154 0.930 . S
H3146 C3159 0.929 . S
H3147 C3157 0.929 . S
H3148 C3152 0.929 . S
H3149 C3158 0.929 . S
C3150 H3144 0.930 . S
C3150 C3151 1.367 . S
C3150 C3158 1.378 . S
C3151 C3150 1.367 . S
C3151 C3159 1.433 . S
C3152 H3148 0.929 . S
C3152 C3154 1.378 . S
C3152 C3156 1.350 . S
C3153 C3156 1.463 . S
C3153 C3158 1.350 . S
C3153 N3161 1.427 . S
C3154 H3145 0.930 . S
C3154 C3152 1.378 . S
C3154 C3155 1.367 . S
C3155 C3154 1.367 . S
C3155 C3157 1.433 . S
C3156 C3152 1.350 . S
C3156 C3153 1.463 . S
C3156 N3160 1.427 . S
C3157 H3147 0.929 . S
C3157 C3155 1.433 . S
C3157 N3160 1.384 . S
C3158 H3149 0.929 . S
C3158 C3150 1.378 . S
C3158 C3153 1.350 . S
C3159 H3146 0.929 . S
C3159 C3151 1.433 . S
C3159 N3161 1.384 . S
N3160 C3156 1.427 . S
N3160 C3157 1.384 . S
N3161 C3153 1.427 . S
N3161 C3159 1.384 . S
H3162 C3168 0.930 . S
H3163 C3172 0.930 . S
H3164 C3177 0.929 . S
H3165 C3175 0.929 . S
H3166 C3170 0.929 . S
H3167 C3176 0.929 . S
C3168 H3162 0.930 . S
C3168 C3169 1.367 . S
C3168 C3176 1.378 . S
C3169 C3168 1.367 . S
C3169 C3177 1.433 . S
C3170 H3166 0.929 . S
C3170 C3172 1.378 . S
C3170 C3174 1.350 . S
C3171 C3174 1.463 . S
C3171 C3176 1.350 . S
C3171 N3179 1.427 . S
C3172 H3163 0.930 . S
C3172 C3170 1.378 . S
C3172 C3173 1.367 . S
C3173 C3172 1.367 . S
C3173 C3175 1.433 . S
C3174 C3170 1.350 . S
C3174 C3171 1.463 . S
C3174 N3178 1.427 . S
C3175 H3165 0.929 . S
C3175 C3173 1.433 . S
C3175 N3178 1.384 . S
C3176 H3167 0.929 . S
C3176 C3168 1.378 . S
C3176 C3171 1.350 . S
C3177 H3164 0.929 . S
C3177 C3169 1.433 . S
C3177 N3179 1.384 . S
N3178 C3174 1.427 . S
N3178 C3175 1.384 . S
N3179 C3171 1.427 . S
N3179 C3177 1.384 . S
H3180 C3186 0.930 . S
H3181 C3190 0.930 . S
H3182 C3195 0.929 . S
H3183 C3193 0.929 . S
H3184 C3188 0.929 . S
H3185 C3194 0.929 . S
C3186 H3180 0.930 . S
C3186 C3187 1.367 . S
C3186 C3194 1.378 . S
C3187 C3186 1.367 . S
C3187 C3195 1.433 . S
C3188 H3184 0.929 . S
C3188 C3190 1.378 . S
C3188 C3192 1.350 . S
C3189 C3192 1.463 . S
C3189 C3194 1.350 . S
C3189 N3197 1.427 . S
C3190 H3181 0.930 . S
C3190 C3188 1.378 . S
C3190 C3191 1.367 . S
C3191 C3190 1.367 . S
C3191 C3193 1.433 . S
C3192 C3188 1.350 . S
C3192 C3189 1.463 . S
C3192 N3196 1.427 . S
C3193 H3183 0.929 . S
C3193 C3191 1.433 . S
C3193 N3196 1.384 . S
C3194 H3185 0.929 . S
C3194 C3186 1.378 . S
C3194 C3189 1.350 . S
C3195 H3182 0.929 . S
C3195 C3187 1.433 . S
C3195 N3197 1.384 . S
N3196 C3192 1.427 . S
N3196 C3193 1.384 . S
N3197 C3189 1.427 . S
N3197 C3195 1.384 . S
H3198 C3204 0.930 . S
H3199 C3208 0.930 . S
H3200 C3213 0.929 . S
H3201 C3211 0.929 1_545 S
H3202 C3206 0.929 . S
H3203 C3212 0.929 . S
C3204 H3198 0.930 . S
C3204 C3205 1.367 . S
C3204 C3212 1.378 . S
C3205 C3204 1.367 . S
C3205 C3213 1.433 . S
C3206 H3202 0.929 . S
C3206 C3208 1.378 . S
C3206 C3210 1.350 . S
C3207 C3210 1.463 . S
C3207 C3212 1.350 . S
C3207 N3215 1.427 . S
C3208 H3199 0.930 . S
C3208 C3206 1.378 . S
C3208 C3209 1.367 . S
C3209 C3208 1.367 . S
C3209 C3211 1.433 . S
C3210 C3206 1.350 . S
C3210 C3207 1.463 . S
C3210 N3214 1.427 . S
C3211 H3201 0.929 1_565 S
C3211 C3209 1.433 . S
C3211 N3214 1.384 . S
C3212 H3203 0.929 . S
C3212 C3204 1.378 . S
C3212 C3207 1.350 . S
C3213 H3200 0.929 . S
C3213 C3205 1.433 . S
C3213 N3215 1.384 . S
N3214 C3210 1.427 . S
N3214 C3211 1.384 . S
N3215 C3207 1.427 . S
N3215 C3213 1.384 . S
H3216 C3222 0.930 . S
H3217 C3226 0.930 . S
H3218 C3231 0.929 . S
H3219 C3229 0.929 . S
H3220 C3224 0.929 . S
H3221 C3230 0.929 . S
C3222 H3216 0.930 . S
C3222 C3223 1.367 . S
C3222 C3230 1.378 . S
C3223 C3222 1.367 . S
C3223 C3231 1.433 . S
C3224 H3220 0.929 . S
C3224 C3226 1.378 . S
C3224 C3228 1.350 . S
C3225 C3228 1.463 . S
C3225 C3230 1.350 . S
C3225 N3233 1.427 . S
C3226 H3217 0.930 . S
C3226 C3224 1.378 . S
C3226 C3227 1.367 . S
C3227 C3226 1.367 . S
C3227 C3229 1.433 . S
C3228 C3224 1.350 . S
C3228 C3225 1.463 . S
C3228 N3232 1.427 . S
C3229 H3219 0.929 . S
C3229 C3227 1.433 . S
C3229 N3232 1.384 . S
C3230 H3221 0.929 . S
C3230 C3222 1.378 . S
C3230 C3225 1.350 . S
C3231 H3218 0.929 . S
C3231 C3223 1.433 . S
C3231 N3233 1.384 . S
N3232 C3228 1.427 . S
N3232 C3229 1.384 . S
N3233 C3225 1.427 . S
N3233 C3231 1.384 . S
H3234 C3240 0.930 . S
H3235 C3244 0.930 . S
H3236 C3249 0.929 . S
H3237 C3247 0.929 . S
H3238 C3242 0.929 . S
H3239 C3248 0.929 . S
C3240 H3234 0.930 . S
C3240 C3241 1.367 . S
C3240 C3248 1.378 . S
C3241 C3240 1.367 . S
C3241 C3249 1.433 . S
C3242 H3238 0.929 . S
C3242 C3244 1.378 . S
C3242 C3246 1.350 . S
C3243 C3246 1.463 . S
C3243 C3248 1.350 . S
C3243 N3251 1.427 . S
C3244 H3235 0.930 . S
C3244 C3242 1.378 . S
C3244 C3245 1.367 . S
C3245 C3244 1.367 . S
C3245 C3247 1.433 . S
C3246 C3242 1.350 . S
C3246 C3243 1.463 . S
C3246 N3250 1.427 . S
C3247 H3237 0.929 . S
C3247 C3245 1.433 . S
C3247 N3250 1.384 . S
C3248 H3239 0.929 . S
C3248 C3240 1.378 . S
C3248 C3243 1.350 . S
C3249 H3236 0.929 . S
C3249 C3241 1.433 . S
C3249 N3251 1.384 . S
N3250 C3246 1.427 . S
N3250 C3247 1.384 . S
N3251 C3243 1.427 . S
N3251 C3249 1.384 . S
H3252 C3258 0.930 . S
H3253 C3262 0.930 . S
H3254 C3267 0.929 . S
H3255 C3265 0.929 . S
H3256 C3260 0.929 . S
H3257 C3266 0.929 . S
C3258 H3252 0.930 . S
C3258 C3259 1.367 . S
C3258 C3266 1.378 . S
C3259 C3258 1.367 . S
C3259 C3267 1.433 . S
C3260 H3256 0.929 . S
C3260 C3262 1.378 . S
C3260 C3264 1.350 . S
C3261 C3264 1.463 . S
C3261 C3266 1.350 . S
C3261 N3269 1.427 . S
C3262 H3253 0.930 . S
C3262 C3260 1.378 . S
C3262 C3263 1.367 . S
C3263 C3262 1.367 . S
C3263 C3265 1.433 . S
C3264 C3260 1.350 . S
C3264 C3261 1.463 . S
C3264 N3268 1.427 . S
C3265 H3255 0.929 . S
C3265 C3263 1.433 . S
C3265 N3268 1.384 . S
C3266 H3257 0.929 . S
C3266 C3258 1.378 . S
C3266 C3261 1.350 . S
C3267 H3254 0.929 . S
C3267 C3259 1.433 . S
C3267 N3269 1.384 . S
N3268 C3264 1.427 . S
N3268 C3265 1.384 . S
N3269 C3261 1.427 . S
N3269 C3267 1.384 . S
H3270 C3276 0.930 . S
H3271 C3280 0.930 . S
H3272 C3285 0.929 . S
H3273 C3283 0.929 . S
H3274 C3278 0.929 . S
H3275 C3284 0.929 . S
C3276 H3270 0.930 . S
C3276 C3277 1.367 . S
C3276 C3284 1.378 . S
C3277 C3276 1.367 . S
C3277 C3285 1.433 . S
C3278 H3274 0.929 . S
C3278 C3280 1.378 . S
C3278 C3282 1.350 . S
C3279 C3282 1.463 . S
C3279 C3284 1.350 . S
C3279 N3287 1.427 . S
C3280 H3271 0.930 . S
C3280 C3278 1.378 . S
C3280 C3281 1.367 . S
C3281 C3280 1.367 . S
C3281 C3283 1.433 . S
C3282 C3278 1.350 . S
C3282 C3279 1.463 . S
C3282 N3286 1.427 . S
C3283 H3273 0.929 . S
C3283 C3281 1.433 . S
C3283 N3286 1.384 . S
C3284 H3275 0.929 . S
C3284 C3276 1.378 . S
C3284 C3279 1.350 . S
C3285 H3272 0.929 . S
C3285 C3277 1.433 . S
C3285 N3287 1.384 . S
N3286 C3282 1.427 . S
N3286 C3283 1.384 . S
N3287 C3279 1.427 . S
N3287 C3285 1.384 . S
H3288 C3294 0.930 . S
H3289 C3298 0.930 . S
H3290 C3303 0.929 . S
H3291 C3301 0.929 . S
H3292 C3296 0.929 . S
H3293 C3302 0.929 . S
C3294 H3288 0.930 . S
C3294 C3295 1.367 . S
C3294 C3302 1.378 . S
C3295 C3294 1.367 . S
C3295 C3303 1.433 . S
C3296 H3292 0.929 . S
C3296 C3298 1.378 . S
C3296 C3300 1.350 . S
C3297 C3300 1.463 . S
C3297 C3302 1.350 . S
C3297 N3305 1.427 . S
C3298 H3289 0.930 . S
C3298 C3296 1.378 . S
C3298 C3299 1.367 . S
C3299 C3298 1.367 . S
C3299 C3301 1.433 . S
C3300 C3296 1.350 . S
C3300 C3297 1.463 . S
C3300 N3304 1.427 . S
C3301 H3291 0.929 . S
C3301 C3299 1.433 . S
C3301 N3304 1.384 . S
C3302 H3293 0.929 . S
C3302 C3294 1.378 . S
C3302 C3297 1.350 . S
C3303 H3290 0.929 . S
C3303 C3295 1.433 . S
C3303 N3305 1.384 . S
N3304 C3300 1.427 . S
N3304 C3301 1.384 . S
N3305 C3297 1.427 . S
N3305 C3303 1.384 . S
H3306 C3312 0.971 . S
H3307 C3316 0.930 . S
H3308 C3321 0.929 . S
H3309 C3319 0.929 . S
H3310 C3314 0.929 . S
H3311 C3320 0.929 . S
C3312 H3306 0.971 . S
C3312 C3313 1.367 . S
C3312 C3320 1.378 . S
C3313 C3312 1.367 . S
C3313 C3321 1.433 . S
C3314 H3310 0.929 . S
C3314 C3316 1.378 . S
C3314 C3318 1.350 . S
C3315 C3318 1.463 . S
C3315 C3320 1.350 . S
C3315 N3323 1.427 . S
C3316 H3307 0.930 . S
C3316 C3314 1.378 . S
C3316 C3317 1.367 . S
C3317 C3316 1.367 . S
C3317 C3319 1.433 . S
C3318 C3314 1.350 . S
C3318 C3315 1.463 . S
C3318 N3322 1.427 . S
C3319 H3309 0.929 . S
C3319 C3317 1.433 . S
C3319 N3322 1.384 . S
C3320 H3311 0.929 . S
C3320 C3312 1.378 . S
C3320 C3315 1.350 . S
C3321 H3308 0.929 . S
C3321 C3313 1.433 . S
C3321 N3323 1.384 . S
N3322 C3318 1.427 . S
N3322 C3319 1.384 . S
N3323 C3315 1.427 . S
N3323 C3321 1.384 . S
H3324 C3330 0.930 . S
H3325 C3334 0.930 . S
H3326 C3339 0.929 . S
H3327 C3337 0.929 . S
H3328 C3332 0.929 . S
H3329 C3338 0.929 . S
C3330 H3324 0.930 . S
C3330 C3331 1.367 . S
C3330 C3338 1.378 . S
C3331 C3330 1.367 . S
C3331 C3339 1.433 . S
C3332 H3328 0.929 . S
C3332 C3334 1.378 . S
C3332 C3336 1.350 . S
C3333 C3336 1.463 . S
C3333 C3338 1.350 . S
C3333 N3341 1.427 . S
C3334 H3325 0.930 . S
C3334 C3332 1.378 . S
C3334 C3335 1.367 . S
C3335 C3334 1.367 . S
C3335 C3337 1.433 . S
C3336 C3332 1.350 . S
C3336 C3333 1.463 . S
C3336 N3340 1.427 . S
C3337 H3327 0.929 . S
C3337 C3335 1.433 . S
C3337 N3340 1.384 . S
C3338 H3329 0.929 . S
C3338 C3330 1.378 . S
C3338 C3333 1.350 . S
C3339 H3326 0.929 . S
C3339 C3331 1.433 . S
C3339 N3341 1.384 . S
N3340 C3336 1.427 . S
N3340 C3337 1.384 . S
N3341 C3333 1.427 . S
N3341 C3339 1.384 . S
H3342 C3348 0.930 . S
H3343 C3352 0.930 . S
H3344 C3357 0.929 . S
H3345 C3355 0.929 . S
H3346 C3350 0.929 . S
H3347 C3356 0.929 . S
C3348 H3342 0.930 . S
C3348 C3349 1.367 . S
C3348 C3356 1.378 . S
C3349 C3348 1.367 . S
C3349 C3357 1.433 . S
C3350 H3346 0.929 . S
C3350 C3352 1.378 . S
C3350 C3354 1.350 . S
C3351 C3354 1.463 . S
C3351 C3356 1.350 . S
C3351 N3359 1.427 . S
C3352 H3343 0.930 . S
C3352 C3350 1.378 . S
C3352 C3353 1.367 . S
C3353 C3352 1.367 . S
C3353 C3355 1.433 . S
C3354 C3350 1.350 . S
C3354 C3351 1.463 . S
C3354 N3358 1.427 . S
C3355 H3345 0.929 . S
C3355 C3353 1.433 . S
C3355 N3358 1.384 . S
C3356 H3347 0.929 . S
C3356 C3348 1.378 . S
C3356 C3351 1.350 . S
C3357 H3344 0.929 . S
C3357 C3349 1.433 . S
C3357 N3359 1.384 . S
N3358 C3354 1.427 . S
N3358 C3355 1.384 . S
N3359 C3351 1.427 . S
N3359 C3357 1.384 . S
H3360 C3366 0.930 . S
H3361 C3370 0.930 . S
H3362 C3375 0.929 . S
H3363 C3373 0.929 . S
H3364 C3368 0.929 . S
H3365 C3374 0.929 . S
C3366 H3360 0.930 . S
C3366 C3367 1.367 . S
C3366 C3374 1.378 . S
C3367 C3366 1.367 . S
C3367 C3375 1.433 . S
C3368 H3364 0.929 . S
C3368 C3370 1.378 . S
C3368 C3372 1.350 . S
C3369 C3372 1.463 . S
C3369 C3374 1.350 . S
C3369 N3377 1.427 . S
C3370 H3361 0.930 . S
C3370 C3368 1.378 . S
C3370 C3371 1.367 . S
C3371 C3370 1.367 . S
C3371 C3373 1.433 . S
C3372 C3368 1.350 . S
C3372 C3369 1.463 . S
C3372 N3376 1.427 . S
C3373 H3363 0.929 . S
C3373 C3371 1.433 . S
C3373 N3376 1.384 . S
C3374 H3365 0.929 . S
C3374 C3366 1.378 . S
C3374 C3369 1.350 . S
C3375 H3362 0.929 . S
C3375 C3367 1.433 . S
C3375 N3377 1.384 . S
N3376 C3372 1.427 . S
N3376 C3373 1.384 . S
N3377 C3369 1.427 . S
N3377 C3375 1.384 . S
H3378 C3384 0.930 . S
H3379 C3388 0.930 . S
H3380 C3393 0.929 . S
H3381 C3391 0.929 . S
H3382 C3386 0.929 . S
H3383 C3392 0.929 . S
C3384 H3378 0.930 . S
C3384 C3385 1.367 . S
C3384 C3392 1.378 . S
C3385 C3384 1.367 . S
C3385 C3393 1.433 . S
C3386 H3382 0.929 . S
C3386 C3388 1.378 . S
C3386 C3390 1.350 . S
C3387 C3390 1.463 . S
C3387 C3392 1.350 . S
C3387 N3395 1.427 . S
C3388 H3379 0.930 . S
C3388 C3386 1.378 . S
C3388 C3389 1.367 . S
C3389 C3388 1.367 . S
C3389 C3391 1.433 . S
C3390 C3386 1.350 . S
C3390 C3387 1.463 . S
C3390 N3394 1.427 . S
C3391 H3381 0.929 . S
C3391 C3389 1.433 . S
C3391 N3394 1.384 . S
C3392 H3383 0.929 . S
C3392 C3384 1.378 . S
C3392 C3387 1.350 . S
C3393 H3380 0.929 . S
C3393 C3385 1.433 . S
C3393 N3395 1.384 . S
N3394 C3390 1.427 . S
N3394 C3391 1.384 . S
N3395 C3387 1.427 . S
N3395 C3393 1.384 . S
H3396 C3402 0.930 . S
H3397 C3406 0.930 . S
H3398 C3411 0.929 . S
H3399 C3409 0.929 . S
H3400 C3404 0.929 . S
H3401 C3410 0.929 . S
C3402 H3396 0.930 . S
C3402 C3403 1.367 . S
C3402 C3410 1.378 . S
C3403 C3402 1.367 . S
C3403 C3411 1.433 . S
C3404 H3400 0.929 . S
C3404 C3406 1.378 . S
C3404 C3408 1.350 . S
C3405 C3408 1.463 . S
C3405 C3410 1.350 . S
C3405 N3413 1.427 . S
C3406 H3397 0.930 . S
C3406 C3404 1.378 . S
C3406 C3407 1.367 . S
C3407 C3406 1.367 . S
C3407 C3409 1.433 . S
C3408 C3404 1.350 . S
C3408 C3405 1.463 . S
C3408 N3412 1.427 . S
C3409 H3399 0.929 . S
C3409 C3407 1.433 . S
C3409 N3412 1.384 . S
C3410 H3401 0.929 . S
C3410 C3402 1.378 . S
C3410 C3405 1.350 . S
C3411 H3398 0.929 . S
C3411 C3403 1.433 . S
C3411 N3413 1.384 . S
N3412 C3408 1.427 . S
N3412 C3409 1.384 . S
N3413 C3405 1.427 . S
N3413 C3411 1.384 . S
H3414 C3420 0.930 . S
H3415 C3424 0.930 . S
H3416 C3429 0.929 . S
H3417 C3427 0.929 . S
H3418 C3422 0.929 . S
H3419 C3428 0.929 . S
C3420 H3414 0.930 . S
C3420 C3421 1.367 . S
C3420 C3428 1.378 . S
C3421 C3420 1.367 . S
C3421 C3429 1.433 . S
C3422 H3418 0.929 . S
C3422 C3424 1.378 . S
C3422 C3426 1.350 . S
C3423 C3426 1.463 . S
C3423 C3428 1.350 . S
C3423 N3431 1.427 . S
C3424 H3415 0.930 . S
C3424 C3422 1.378 . S
C3424 C3425 1.367 . S
C3425 C3424 1.367 . S
C3425 C3427 1.433 . S
C3426 C3422 1.350 . S
C3426 C3423 1.463 . S
C3426 N3430 1.427 . S
C3427 H3417 0.929 . S
C3427 C3425 1.433 . S
C3427 N3430 1.384 . S
C3428 H3419 0.929 . S
C3428 C3420 1.378 . S
C3428 C3423 1.350 . S
C3429 H3416 0.929 . S
C3429 C3421 1.433 . S
C3429 N3431 1.384 . S
N3430 C3426 1.427 . S
N3430 C3427 1.384 . S
N3431 C3423 1.427 . S
N3431 C3429 1.384 . S
H3432 C3438 0.930 . S
H3433 C3442 0.930 . S
H3434 C3447 0.929 . S
H3435 C3445 0.929 . S
H3436 C3440 0.929 . S
H3437 C3446 0.929 . S
C3438 H3432 0.930 . S
C3438 C3439 1.367 . S
C3438 C3446 1.378 . S
C3439 C3438 1.367 . S
C3439 C3447 1.433 . S
C3440 H3436 0.929 . S
C3440 C3442 1.378 . S
C3440 C3444 1.350 . S
C3441 C3444 1.463 . S
C3441 C3446 1.350 . S
C3441 N3449 1.427 . S
C3442 H3433 0.930 . S
C3442 C3440 1.378 . S
C3442 C3443 1.367 . S
C3443 C3442 1.367 . S
C3443 C3445 1.433 . S
C3444 C3440 1.350 . S
C3444 C3441 1.463 . S
C3444 N3448 1.427 . S
C3445 H3435 0.929 . S
C3445 C3443 1.433 . S
C3445 N3448 1.384 . S
C3446 H3437 0.929 . S
C3446 C3438 1.378 . S
C3446 C3441 1.350 . S
C3447 H3434 0.929 . S
C3447 C3439 1.433 . S
C3447 N3449 1.384 . S
N3448 C3444 1.427 . S
N3448 C3445 1.384 . S
N3449 C3441 1.427 . S
N3449 C3447 1.384 . S
H3450 C3456 0.930 . S
H3451 C3460 0.930 . S
H3452 C3465 0.929 . S
H3453 C3463 0.929 . S
H3454 C3458 0.929 . S
H3455 C3464 0.929 . S
C3456 H3450 0.930 . S
C3456 C3457 1.367 . S
C3456 C3464 1.378 . S
C3457 C3456 1.367 . S
C3457 C3465 1.433 . S
C3458 H3454 0.929 . S
C3458 C3460 1.378 . S
C3458 C3462 1.350 . S
C3459 C3462 1.463 . S
C3459 C3464 1.350 . S
C3459 N3467 1.427 . S
C3460 H3451 0.930 . S
C3460 C3458 1.378 . S
C3460 C3461 1.367 . S
C3461 C3460 1.367 . S
C3461 C3463 1.433 . S
C3462 C3458 1.350 . S
C3462 C3459 1.463 . S
C3462 N3466 1.427 . S
C3463 H3453 0.929 . S
C3463 C3461 1.433 . S
C3463 N3466 1.384 . S
C3464 H3455 0.929 . S
C3464 C3456 1.378 . S
C3464 C3459 1.350 . S
C3465 H3452 0.929 . S
C3465 C3457 1.433 . S
C3465 N3467 1.384 . S
N3466 C3462 1.427 . S
N3466 C3463 1.384 . S
N3467 C3459 1.427 . S
N3467 C3465 1.384 . S
H3468 C3474 0.930 . S
H3469 C3478 0.930 . S
H3470 C3483 0.929 . S
H3471 C3481 0.929 . S
H3472 C3476 0.929 . S
H3473 C3482 0.929 . S
C3474 H3468 0.930 . S
C3474 C3475 1.367 . S
C3474 C3482 1.378 . S
C3475 C3474 1.367 . S
C3475 C3483 1.433 . S
C3476 H3472 0.929 . S
C3476 C3478 1.378 . S
C3476 C3480 1.350 . S
C3477 C3480 1.463 . S
C3477 C3482 1.350 . S
C3477 N3485 1.427 . S
C3478 H3469 0.930 . S
C3478 C3476 1.378 . S
C3478 C3479 1.367 . S
C3479 C3478 1.367 . S
C3479 C3481 1.433 . S
C3480 C3476 1.350 . S
C3480 C3477 1.463 . S
C3480 N3484 1.427 . S
C3481 H3471 0.929 . S
C3481 C3479 1.433 . S
C3481 N3484 1.384 . S
C3482 H3473 0.929 . S
C3482 C3474 1.378 . S
C3482 C3477 1.350 . S
C3483 H3470 0.929 . S
C3483 C3475 1.433 . S
C3483 N3485 1.384 . S
N3484 C3480 1.427 . S
N3484 C3481 1.384 . S
N3485 C3477 1.427 . S
N3485 C3483 1.384 . S
H3486 C3492 0.930 . S
H3487 C3496 0.930 . S
H3488 C3501 0.929 . S
H3489 C3499 0.929 . S
H3490 C3494 0.929 . S
H3491 C3500 0.929 . S
C3492 H3486 0.930 . S
C3492 C3493 1.367 . S
C3492 C3500 1.378 . S
C3493 C3492 1.367 . S
C3493 C3501 1.433 . S
C3494 H3490 0.929 . S
C3494 C3496 1.378 . S
C3494 C3498 1.350 . S
C3495 C3498 1.463 . S
C3495 C3500 1.350 . S
C3495 N3503 1.427 . S
C3496 H3487 0.930 . S
C3496 C3494 1.378 . S
C3496 C3497 1.367 . S
C3497 C3496 1.367 . S
C3497 C3499 1.433 . S
C3498 C3494 1.350 . S
C3498 C3495 1.463 . S
C3498 N3502 1.427 . S
C3499 H3489 0.929 . S
C3499 C3497 1.433 . S
C3499 N3502 1.384 . S
C3500 H3491 0.929 . S
C3500 C3492 1.378 . S
C3500 C3495 1.350 . S
C3501 H3488 0.929 . S
C3501 C3493 1.433 . S
C3501 N3503 1.384 . S
N3502 C3498 1.427 . S
N3502 C3499 1.384 . S
N3503 C3495 1.427 . S
N3503 C3501 1.384 . S
H3504 C3510 0.930 . S
H3505 C3514 0.930 . S
H3506 C3519 0.929 . S
H3507 C3517 0.929 . S
H3508 C3512 0.929 . S
H3509 C3518 0.929 . S
C3510 H3504 0.930 . S
C3510 C3511 1.367 . S
C3510 C3518 1.378 . S
C3511 C3510 1.367 . S
C3511 C3519 1.433 . S
C3512 H3508 0.929 . S
C3512 C3514 1.378 . S
C3512 C3516 1.350 . S
C3513 C3516 1.463 . S
C3513 C3518 1.350 . S
C3513 N3521 1.427 . S
C3514 H3505 0.930 . S
C3514 C3512 1.378 . S
C3514 C3515 1.367 . S
C3515 C3514 1.367 . S
C3515 C3517 1.433 . S
C3516 C3512 1.350 . S
C3516 C3513 1.463 . S
C3516 N3520 1.427 . S
C3517 H3507 0.929 . S
C3517 C3515 1.433 . S
C3517 N3520 1.384 . S
C3518 H3509 0.929 . S
C3518 C3510 1.378 . S
C3518 C3513 1.350 . S
C3519 H3506 0.929 . S
C3519 C3511 1.433 . S
C3519 N3521 1.384 . S
N3520 C3516 1.427 . S
N3520 C3517 1.384 . S
N3521 C3513 1.427 . S
N3521 C3519 1.384 . S
H3522 C3528 0.930 . S
H3523 C3532 0.930 . S
H3524 C3537 0.929 . S
H3525 C3535 0.929 . S
H3526 C3530 0.929 . S
H3527 C3536 0.929 . S
C3528 H3522 0.930 . S
C3528 C3529 1.367 . S
C3528 C3536 1.378 . S
C3529 C3528 1.367 . S
C3529 C3537 1.433 . S
C3530 H3526 0.929 . S
C3530 C3532 1.378 . S
C3530 C3534 1.350 . S
C3531 C3534 1.463 . S
C3531 C3536 1.350 . S
C3531 N3539 1.427 . S
C3532 H3523 0.930 . S
C3532 C3530 1.378 . S
C3532 C3533 1.367 . S
C3533 C3532 1.367 . S
C3533 C3535 1.433 . S
C3534 C3530 1.350 . S
C3534 C3531 1.463 . S
C3534 N3538 1.427 . S
C3535 H3525 0.929 . S
C3535 C3533 1.433 . S
C3535 N3538 1.384 . S
C3536 H3527 0.929 . S
C3536 C3528 1.378 . S
C3536 C3531 1.350 . S
C3537 H3524 0.929 . S
C3537 C3529 1.433 . S
C3537 N3539 1.384 . S
N3538 C3534 1.427 . S
N3538 C3535 1.384 . S
N3539 C3531 1.427 . S
N3539 C3537 1.384 . S
H3540 C3546 0.930 . S
H3541 C3550 0.930 1_565 S
H3542 C3555 0.929 . S
H3543 C3553 0.929 . S
H3544 C3548 0.929 . S
H3545 C3554 0.929 . S
C3546 H3540 0.930 . S
C3546 C3547 1.367 . S
C3546 C3554 1.378 . S
C3547 C3546 1.367 . S
C3547 C3555 1.433 . S
C3548 H3544 0.929 . S
C3548 C3550 1.378 . S
C3548 C3552 1.350 . S
C3549 C3552 1.463 . S
C3549 C3554 1.350 . S
C3549 N3557 1.427 . S
C3550 H3541 0.930 1_545 S
C3550 C3548 1.378 . S
C3550 C3551 1.367 . S
C3551 C3550 1.367 . S
C3551 C3553 1.433 . S
C3552 C3548 1.350 . S
C3552 C3549 1.463 . S
C3552 N3556 1.427 . S
C3553 H3543 0.929 . S
C3553 C3551 1.433 . S
C3553 N3556 1.384 . S
C3554 H3545 0.929 . S
C3554 C3546 1.378 . S
C3554 C3549 1.350 . S
C3555 H3542 0.929 . S
C3555 C3547 1.433 . S
C3555 N3557 1.384 . S
N3556 C3552 1.427 . S
N3556 C3553 1.384 . S
N3557 C3549 1.427 . S
N3557 C3555 1.384 . S
H3558 C3564 0.930 . S
H3559 C3568 0.930 . S
H3560 C3573 0.929 . S
H3561 C3571 0.929 . S
H3562 C3566 0.929 . S
H3563 C3572 0.929 . S
C3564 H3558 0.930 . S
C3564 C3565 1.367 . S
C3564 C3572 1.378 . S
C3565 C3564 1.367 . S
C3565 C3573 1.433 . S
C3566 H3562 0.929 . S
C3566 C3568 1.378 . S
C3566 C3570 1.350 . S
C3567 C3570 1.463 . S
C3567 C3572 1.350 . S
C3567 N3575 1.427 . S
C3568 H3559 0.930 . S
C3568 C3566 1.378 . S
C3568 C3569 1.367 . S
C3569 C3568 1.367 . S
C3569 C3571 1.433 . S
C3570 C3566 1.350 . S
C3570 C3567 1.463 . S
C3570 N3574 1.427 . S
C3571 H3561 0.929 . S
C3571 C3569 1.433 . S
C3571 N3574 1.384 . S
C3572 H3563 0.929 . S
C3572 C3564 1.378 . S
C3572 C3567 1.350 . S
C3573 H3560 0.929 . S
C3573 C3565 1.433 . S
C3573 N3575 1.384 . S
N3574 C3570 1.427 . S
N3574 C3571 1.384 . S
N3575 C3567 1.427 . S
N3575 C3573 1.384 . S
H3576 C3582 0.930 . S
H3577 C3586 0.930 . S
H3578 C3591 0.929 . S
H3579 C3589 0.929 . S
H3580 C3584 0.929 . S
H3581 C3590 0.929 . S
C3582 H3576 0.930 . S
C3582 C3583 1.367 . S
C3582 C3590 1.378 . S
C3583 C3582 1.367 . S
C3583 C3591 1.433 . S
C3584 H3580 0.929 . S
C3584 C3586 1.378 . S
C3584 C3588 1.350 . S
C3585 C3588 1.463 . S
C3585 C3590 1.350 . S
C3585 N3593 1.427 . S
C3586 H3577 0.930 . S
C3586 C3584 1.378 . S
C3586 C3587 1.367 . S
C3587 C3586 1.367 . S
C3587 C3589 1.433 . S
C3588 C3584 1.350 . S
C3588 C3585 1.463 . S
C3588 N3592 1.427 . S
C3589 H3579 0.929 . S
C3589 C3587 1.433 . S
C3589 N3592 1.384 . S
C3590 H3581 0.929 . S
C3590 C3582 1.378 . S
C3590 C3585 1.350 . S
C3591 H3578 0.929 . S
C3591 C3583 1.433 . S
C3591 N3593 1.384 . S
N3592 C3588 1.427 . S
N3592 C3589 1.384 . S
N3593 C3585 1.427 . S
N3593 C3591 1.384 . S
H3594 C3600 0.930 . S
H3595 C3604 0.930 . S
H3596 C3609 0.929 . S
H3597 C3607 0.929 . S
H3598 C3602 0.929 . S
H3599 C3608 0.929 . S
C3600 H3594 0.930 . S
C3600 C3601 1.367 . S
C3600 C3608 1.378 . S
C3601 C3600 1.367 . S
C3601 C3609 1.433 . S
C3602 H3598 0.929 . S
C3602 C3604 1.378 . S
C3602 C3606 1.350 . S
C3603 C3606 1.463 . S
C3603 C3608 1.350 . S
C3603 N3611 1.427 . S
C3604 H3595 0.930 . S
C3604 C3602 1.378 . S
C3604 C3605 1.367 . S
C3605 C3604 1.367 . S
C3605 C3607 1.433 . S
C3606 C3602 1.350 . S
C3606 C3603 1.463 . S
C3606 N3610 1.427 . S
C3607 H3597 0.929 . S
C3607 C3605 1.433 . S
C3607 N3610 1.384 . S
C3608 H3599 0.929 . S
C3608 C3600 1.378 . S
C3608 C3603 1.350 . S
C3609 H3596 0.929 . S
C3609 C3601 1.433 . S
C3609 N3611 1.384 . S
N3610 C3606 1.427 . S
N3610 C3607 1.384 . S
N3611 C3603 1.427 . S
N3611 C3609 1.384 . S
H3612 C3618 0.930 . S
H3613 C3622 0.930 . S
H3614 C3627 0.929 . S
H3615 C3625 0.929 . S
H3616 C3620 0.929 . S
H3617 C3626 0.929 . S
C3618 H3612 0.930 . S
C3618 C3619 1.367 . S
C3618 C3626 1.378 . S
C3619 C3618 1.367 . S
C3619 C3627 1.433 . S
C3620 H3616 0.929 . S
C3620 C3622 1.378 . S
C3620 C3624 1.350 . S
C3621 C3624 1.463 . S
C3621 C3626 1.350 . S
C3621 N3629 1.427 . S
C3622 H3613 0.930 . S
C3622 C3620 1.378 . S
C3622 C3623 1.367 . S
C3623 C3622 1.367 . S
C3623 C3625 1.433 . S
C3624 C3620 1.350 . S
C3624 C3621 1.463 . S
C3624 N3628 1.427 . S
C3625 H3615 0.929 . S
C3625 C3623 1.433 . S
C3625 N3628 1.384 . S
C3626 H3617 0.929 . S
C3626 C3618 1.378 . S
C3626 C3621 1.350 . S
C3627 H3614 0.929 . S
C3627 C3619 1.433 . S
C3627 N3629 1.384 . S
N3628 C3624 1.427 . S
N3628 C3625 1.384 . S
N3629 C3621 1.427 . S
N3629 C3627 1.384 . S
H3630 C3636 0.930 . S
H3631 C3640 0.930 . S
H3632 C3645 0.929 . S
H3633 C3643 0.929 1_565 S
H3634 C3638 0.929 . S
H3635 C3644 0.929 . S
C3636 H3630 0.930 . S
C3636 C3637 1.367 . S
C3636 C3644 1.378 . S
C3637 C3636 1.367 . S
C3637 C3645 1.433 . S
C3638 H3634 0.929 . S
C3638 C3640 1.378 . S
C3638 C3642 1.350 . S
C3639 C3642 1.463 . S
C3639 C3644 1.350 . S
C3639 N3647 1.427 . S
C3640 H3631 0.930 . S
C3640 C3638 1.378 . S
C3640 C3641 1.367 . S
C3641 C3640 1.367 . S
C3641 C3643 1.433 . S
C3642 C3638 1.350 . S
C3642 C3639 1.463 . S
C3642 N3646 1.427 . S
C3643 H3633 0.929 1_545 S
C3643 C3641 1.433 . S
C3643 N3646 1.384 . S
C3644 H3635 0.929 . S
C3644 C3636 1.378 . S
C3644 C3639 1.350 . S
C3645 H3632 0.929 . S
C3645 C3637 1.433 . S
C3645 N3647 1.384 . S
N3646 C3642 1.427 . S
N3646 C3643 1.384 . S
N3647 C3639 1.427 . S
N3647 C3645 1.384 . S
H3648 C3654 0.930 1_455 S
H3649 C3658 0.930 . S
H3650 C3663 0.929 . S
H3651 C3661 0.929 . S
H3652 C3656 0.929 . S
H3653 C3662 0.929 . S
C3654 H3648 0.930 1_655 S
C3654 C3655 1.367 . S
C3654 C3662 1.378 . S
C3655 C3654 1.367 . S
C3655 C3663 1.433 . S
C3656 H3652 0.929 . S
C3656 C3658 1.378 . S
C3656 C3660 1.350 . S
C3657 C3660 1.463 . S
C3657 C3662 1.350 . S
C3657 N3665 1.427 . S
C3658 H3649 0.930 . S
C3658 C3656 1.378 . S
C3658 C3659 1.367 . S
C3659 C3658 1.367 . S
C3659 C3661 1.433 . S
C3660 C3656 1.350 . S
C3660 C3657 1.463 . S
C3660 N3664 1.427 . S
C3661 H3651 0.929 . S
C3661 C3659 1.433 . S
C3661 N3664 1.384 . S
C3662 H3653 0.929 . S
C3662 C3654 1.378 . S
C3662 C3657 1.350 . S
C3663 H3650 0.929 . S
C3663 C3655 1.433 . S
C3663 N3665 1.384 . S
N3664 C3660 1.427 . S
N3664 C3661 1.384 . S
N3665 C3657 1.427 . S
N3665 C3663 1.384 . S
H3666 C3672 0.930 . S
H3667 C3676 0.930 . S
H3668 C3681 0.929 . S
H3669 C3679 0.929 . S
H3670 C3674 0.929 . S
H3671 C3680 0.929 . S
C3672 H3666 0.930 . S
C3672 C3673 1.367 . S
C3672 C3680 1.378 . S
C3673 C3672 1.367 . S
C3673 C3681 1.433 . S
C3674 H3670 0.929 . S
C3674 C3676 1.378 . S
C3674 C3678 1.350 . S
C3675 C3678 1.463 . S
C3675 C3680 1.350 . S
C3675 N3683 1.427 . S
C3676 H3667 0.930 . S
C3676 C3674 1.378 . S
C3676 C3677 1.367 . S
C3677 C3676 1.367 . S
C3677 C3679 1.433 . S
C3678 C3674 1.350 . S
C3678 C3675 1.463 . S
C3678 N3682 1.427 . S
C3679 H3669 0.929 . S
C3679 C3677 1.433 . S
C3679 N3682 1.384 . S
C3680 H3671 0.929 . S
C3680 C3672 1.378 . S
C3680 C3675 1.350 . S
C3681 H3668 0.929 . S
C3681 C3673 1.433 . S
C3681 N3683 1.384 . S
N3682 C3678 1.427 . S
N3682 C3679 1.384 . S
N3683 C3675 1.427 . S
N3683 C3681 1.384 . S
H3684 C3690 0.930 . S
H3685 C3694 0.930 . S
H3686 C3699 0.929 . S
H3687 C3697 0.929 . S
H3688 C3692 0.929 . S
H3689 C3698 0.929 . S
C3690 H3684 0.930 . S
C3690 C3691 1.367 . S
C3690 C3698 1.378 . S
C3691 C3690 1.367 . S
C3691 C3699 1.433 . S
C3692 H3688 0.929 . S
C3692 C3694 1.378 . S
C3692 C3696 1.350 . S
C3693 C3696 1.463 . S
C3693 C3698 1.350 . S
C3693 N3701 1.427 . S
C3694 H3685 0.930 . S
C3694 C3692 1.378 . S
C3694 C3695 1.367 . S
C3695 C3694 1.367 . S
C3695 C3697 1.433 . S
C3696 C3692 1.350 . S
C3696 C3693 1.463 . S
C3696 N3700 1.427 . S
C3697 H3687 0.929 . S
C3697 C3695 1.433 . S
C3697 N3700 1.384 . S
C3698 H3689 0.929 . S
C3698 C3690 1.378 . S
C3698 C3693 1.350 . S
C3699 H3686 0.929 . S
C3699 C3691 1.433 . S
C3699 N3701 1.384 . S
N3700 C3696 1.427 . S
N3700 C3697 1.384 . S
N3701 C3693 1.427 . S
N3701 C3699 1.384 . S
H3702 C3708 0.930 . S
H3703 C3712 0.930 1_556 S
H3704 C3717 0.929 . S
H3705 C3715 0.929 . S
H3706 C3710 0.929 . S
H3707 C3716 0.929 . S
C3708 H3702 0.930 . S
C3708 C3709 1.367 . S
C3708 C3716 1.378 . S
C3709 C3708 1.367 . S
C3709 C3717 1.433 . S
C3710 H3706 0.929 . S
C3710 C3712 1.378 . S
C3710 C3714 1.350 . S
C3711 C3714 1.463 . S
C3711 C3716 1.350 . S
C3711 N3719 1.427 . S
C3712 H3703 0.930 1_554 S
C3712 C3710 1.378 . S
C3712 C3713 1.367 . S
C3713 C3712 1.367 . S
C3713 C3715 1.433 . S
C3714 C3710 1.350 . S
C3714 C3711 1.463 . S
C3714 N3718 1.427 . S
C3715 H3705 0.929 . S
C3715 C3713 1.433 . S
C3715 N3718 1.384 . S
C3716 H3707 0.929 . S
C3716 C3708 1.378 . S
C3716 C3711 1.350 . S
C3717 H3704 0.929 . S
C3717 C3709 1.433 . S
C3717 N3719 1.384 . S
N3718 C3714 1.427 . S
N3718 C3715 1.384 . S
N3719 C3711 1.427 . S
N3719 C3717 1.384 . S
H3720 C3726 0.930 . S
H3721 C3730 0.930 . S
H3722 C3735 0.929 . S
H3723 C3733 0.929 . S
H3724 C3728 0.929 . S
H3725 C3734 0.929 . S
C3726 H3720 0.930 . S
C3726 C3727 1.367 . S
C3726 C3734 1.378 . S
C3727 C3726 1.367 . S
C3727 C3735 1.433 . S
C3728 H3724 0.929 . S
C3728 C3730 1.378 . S
C3728 C3732 1.350 . S
C3729 C3732 1.463 . S
C3729 C3734 1.350 . S
C3729 N3737 1.427 . S
C3730 H3721 0.930 . S
C3730 C3728 1.378 . S
C3730 C3731 1.367 . S
C3731 C3730 1.367 . S
C3731 C3733 1.433 . S
C3732 C3728 1.350 . S
C3732 C3729 1.463 . S
C3732 N3736 1.427 . S
C3733 H3723 0.929 . S
C3733 C3731 1.433 . S
C3733 N3736 1.384 . S
C3734 H3725 0.929 . S
C3734 C3726 1.378 . S
C3734 C3729 1.350 . S
C3735 H3722 0.929 . S
C3735 C3727 1.433 . S
C3735 N3737 1.384 . S
N3736 C3732 1.427 . S
N3736 C3733 1.384 . S
N3737 C3729 1.427 . S
N3737 C3735 1.384 . S
H3738 C3744 0.930 . S
H3739 C3748 0.930 . S
H3740 C3753 0.929 . S
H3741 C3751 0.929 . S
H3742 C3746 0.929 . S
H3743 C3752 0.929 . S
C3744 H3738 0.930 . S
C3744 C3745 1.367 . S
C3744 C3752 1.378 . S
C3745 C3744 1.367 . S
C3745 C3753 1.433 . S
C3746 H3742 0.929 . S
C3746 C3748 1.378 . S
C3746 C3750 1.350 . S
C3747 C3750 1.463 . S
C3747 C3752 1.350 . S
C3747 N3755 1.427 . S
C3748 H3739 0.930 . S
C3748 C3746 1.378 . S
C3748 C3749 1.367 . S
C3749 C3748 1.367 . S
C3749 C3751 1.433 . S
C3750 C3746 1.350 . S
C3750 C3747 1.463 . S
C3750 N3754 1.427 . S
C3751 H3741 0.929 . S
C3751 C3749 1.433 . S
C3751 N3754 1.384 . S
C3752 H3743 0.929 . S
C3752 C3744 1.378 . S
C3752 C3747 1.350 . S
C3753 H3740 0.929 . S
C3753 C3745 1.433 . S
C3753 N3755 1.384 . S
N3754 C3750 1.427 . S
N3754 C3751 1.384 . S
N3755 C3747 1.427 . S
N3755 C3753 1.384 . S
H3756 C3762 0.930 . S
H3757 C3766 0.930 . S
H3758 C3771 0.929 . S
H3759 C3769 0.929 . S
H3760 C3764 0.929 . S
H3761 C3770 0.929 . S
C3762 H3756 0.930 . S
C3762 C3763 1.367 . S
C3762 C3770 1.378 . S
C3763 C3762 1.367 . S
C3763 C3771 1.433 . S
C3764 H3760 0.929 . S
C3764 C3766 1.378 . S
C3764 C3768 1.350 . S
C3765 C3768 1.463 . S
C3765 C3770 1.350 . S
C3765 N3773 1.427 . S
C3766 H3757 0.930 . S
C3766 C3764 1.378 . S
C3766 C3767 1.367 . S
C3767 C3766 1.367 . S
C3767 C3769 1.433 . S
C3768 C3764 1.350 . S
C3768 C3765 1.463 . S
C3768 N3772 1.427 . S
C3769 H3759 0.929 . S
C3769 C3767 1.433 . S
C3769 N3772 1.384 . S
C3770 H3761 0.929 . S
C3770 C3762 1.378 . S
C3770 C3765 1.350 . S
C3771 H3758 0.929 . S
C3771 C3763 1.433 . S
C3771 N3773 1.384 . S
N3772 C3768 1.427 . S
N3772 C3769 1.384 . S
N3773 C3765 1.427 . S
N3773 C3771 1.384 . S
H3774 C3780 0.930 1_554 S
H3775 C3784 0.930 . S
H3776 C3789 0.929 . S
H3777 C3787 0.929 . S
H3778 C3782 0.929 . S
H3779 C3788 0.929 . S
C3780 H3774 0.930 1_556 S
C3780 C3781 1.367 . S
C3780 C3788 1.378 . S
C3781 C3780 1.367 . S
C3781 C3789 1.433 . S
C3782 H3778 0.929 . S
C3782 C3784 1.378 . S
C3782 C3786 1.350 . S
C3783 C3786 1.463 . S
C3783 C3788 1.350 . S
C3783 N3791 1.427 . S
C3784 H3775 0.930 . S
C3784 C3782 1.378 . S
C3784 C3785 1.367 . S
C3785 C3784 1.367 . S
C3785 C3787 1.433 . S
C3786 C3782 1.350 . S
C3786 C3783 1.463 . S
C3786 N3790 1.427 . S
C3787 H3777 0.929 . S
C3787 C3785 1.433 . S
C3787 N3790 1.384 . S
C3788 H3779 0.929 . S
C3788 C3780 1.378 . S
C3788 C3783 1.350 . S
C3789 H3776 0.929 . S
C3789 C3781 1.433 . S
C3789 N3791 1.384 . S
N3790 C3786 1.427 . S
N3790 C3787 1.384 . S
N3791 C3783 1.427 . S
N3791 C3789 1.384 . S
H3792 C3798 0.930 . S
H3793 C3802 0.930 . S
H3794 C3807 0.929 . S
H3795 C3805 0.929 . S
H3796 C3800 0.929 . S
H3797 C3806 0.929 . S
C3798 H3792 0.930 . S
C3798 C3799 1.367 . S
C3798 C3806 1.378 . S
C3799 C3798 1.367 . S
C3799 C3807 1.433 . S
C3800 H3796 0.929 . S
C3800 C3802 1.378 . S
C3800 C3804 1.350 . S
C3801 C3804 1.463 . S
C3801 C3806 1.350 . S
C3801 N3809 1.427 . S
C3802 H3793 0.930 . S
C3802 C3800 1.378 . S
C3802 C3803 1.367 . S
C3803 C3802 1.367 . S
C3803 C3805 1.433 . S
C3804 C3800 1.350 . S
C3804 C3801 1.463 . S
C3804 N3808 1.427 . S
C3805 H3795 0.929 . S
C3805 C3803 1.433 . S
C3805 N3808 1.384 . S
C3806 H3797 0.929 . S
C3806 C3798 1.378 . S
C3806 C3801 1.350 . S
C3807 H3794 0.929 . S
C3807 C3799 1.433 . S
C3807 N3809 1.384 . S
N3808 C3804 1.427 . S
N3808 C3805 1.384 . S
N3809 C3801 1.427 . S
N3809 C3807 1.384 . S
H3810 C3816 0.930 . S
H3811 C3820 0.930 . S
H3812 C3825 0.929 1_565 S
H3813 C3823 0.929 . S
H3814 C3818 0.929 . S
H3815 C3824 0.929 . S
C3816 H3810 0.930 . S
C3816 C3817 1.367 . S
C3816 C3824 1.378 . S
C3817 C3816 1.367 . S
C3817 C3825 1.433 . S
C3818 H3814 0.929 . S
C3818 C3820 1.378 . S
C3818 C3822 1.350 . S
C3819 C3822 1.463 . S
C3819 C3824 1.350 . S
C3819 N3827 1.427 . S
C3820 H3811 0.930 . S
C3820 C3818 1.378 . S
C3820 C3821 1.367 . S
C3821 C3820 1.367 . S
C3821 C3823 1.433 . S
C3822 C3818 1.350 . S
C3822 C3819 1.463 . S
C3822 N3826 1.427 . S
C3823 H3813 0.929 . S
C3823 C3821 1.433 . S
C3823 N3826 1.384 . S
C3824 H3815 0.929 . S
C3824 C3816 1.378 . S
C3824 C3819 1.350 . S
C3825 H3812 0.929 1_545 S
C3825 C3817 1.433 . S
C3825 N3827 1.384 . S
N3826 C3822 1.427 . S
N3826 C3823 1.384 . S
N3827 C3819 1.427 . S
N3827 C3825 1.384 . S
H3828 C3834 0.930 . S
H3829 C3838 0.930 . S
H3830 C3843 0.929 1_565 S
H3831 C3841 0.929 . S
H3832 C3836 0.929 . S
H3833 C3842 0.929 . S
C3834 H3828 0.930 . S
C3834 C3835 1.367 . S
C3834 C3842 1.378 . S
C3835 C3834 1.367 . S
C3835 C3843 1.433 . S
C3836 H3832 0.929 . S
C3836 C3838 1.378 . S
C3836 C3840 1.350 . S
C3837 C3840 1.463 . S
C3837 C3842 1.350 . S
C3837 N3845 1.427 . S
C3838 H3829 0.930 . S
C3838 C3836 1.378 . S
C3838 C3839 1.367 . S
C3839 C3838 1.367 . S
C3839 C3841 1.433 . S
C3840 C3836 1.350 . S
C3840 C3837 1.463 . S
C3840 N3844 1.427 . S
C3841 H3831 0.929 . S
C3841 C3839 1.433 . S
C3841 N3844 1.384 . S
C3842 H3833 0.929 . S
C3842 C3834 1.378 . S
C3842 C3837 1.350 . S
C3843 H3830 0.929 1_545 S
C3843 C3835 1.433 . S
C3843 N3845 1.384 . S
N3844 C3840 1.427 . S
N3844 C3841 1.384 . S
N3845 C3837 1.427 . S
N3845 C3843 1.384 . S
H3846 C3852 0.930 . S
H3847 C3856 0.930 . S
H3848 C3861 0.929 . S
H3849 C3859 0.929 . S
H3850 C3854 0.929 . S
H3851 C3860 0.929 . S
C3852 H3846 0.930 . S
C3852 C3853 1.367 . S
C3852 C3860 1.378 . S
C3853 C3852 1.367 . S
C3853 C3861 1.433 . S
C3854 H3850 0.929 . S
C3854 C3856 1.378 . S
C3854 C3858 1.350 . S
C3855 C3858 1.463 . S
C3855 C3860 1.350 . S
C3855 N3863 1.427 . S
C3856 H3847 0.930 . S
C3856 C3854 1.378 . S
C3856 C3857 1.367 . S
C3857 C3856 1.367 . S
C3857 C3859 1.433 . S
C3858 C3854 1.350 . S
C3858 C3855 1.463 . S
C3858 N3862 1.427 . S
C3859 H3849 0.929 . S
C3859 C3857 1.433 . S
C3859 N3862 1.384 . S
C3860 H3851 0.929 . S
C3860 C3852 1.378 . S
C3860 C3855 1.350 . S
C3861 H3848 0.929 . S
C3861 C3853 1.433 . S
C3861 N3863 1.384 . S
N3862 C3858 1.427 . S
N3862 C3859 1.384 . S
N3863 C3855 1.427 . S
N3863 C3861 1.384 . S
H3864 C3870 0.930 . S
H3865 C3874 0.930 . S
H3866 C3879 0.929 1_556 S
H3867 C3877 0.929 . S
H3868 C3872 0.929 . S
H3869 C3878 0.929 . S
C3870 H3864 0.930 . S
C3870 C3871 1.367 . S
C3870 C3878 1.378 . S
C3871 C3870 1.367 . S
C3871 C3879 1.433 . S
C3872 H3868 0.929 . S
C3872 C3874 1.378 . S
C3872 C3876 1.350 . S
C3873 C3876 1.463 . S
C3873 C3878 1.350 . S
C3873 N3881 1.427 . S
C3874 H3865 0.930 . S
C3874 C3872 1.378 . S
C3874 C3875 1.367 . S
C3875 C3874 1.367 . S
C3875 C3877 1.433 . S
C3876 C3872 1.350 . S
C3876 C3873 1.463 . S
C3876 N3880 1.427 . S
C3877 H3867 0.929 . S
C3877 C3875 1.433 . S
C3877 N3880 1.384 . S
C3878 H3869 0.929 . S
C3878 C3870 1.378 . S
C3878 C3873 1.350 . S
C3879 H3866 0.929 1_554 S
C3879 C3871 1.433 . S
C3879 N3881 1.384 . S
N3880 C3876 1.427 . S
N3880 C3877 1.384 . S
N3881 C3873 1.427 . S
N3881 C3879 1.384 . S
H3882 C3888 0.930 . S
H3883 C3892 0.930 . S
H3884 C3897 0.929 . S
H3885 C3895 0.929 . S
H3886 C3890 0.929 . S
H3887 C3896 0.929 . S
C3888 H3882 0.930 . S
C3888 C3889 1.367 . S
C3888 C3896 1.378 . S
C3889 C3888 1.367 . S
C3889 C3897 1.433 . S
C3890 H3886 0.929 . S
C3890 C3892 1.378 . S
C3890 C3894 1.350 . S
C3891 C3894 1.463 . S
C3891 C3896 1.350 . S
C3891 N3899 1.427 . S
C3892 H3883 0.930 . S
C3892 C3890 1.378 . S
C3892 C3893 1.367 . S
C3893 C3892 1.367 . S
C3893 C3895 1.433 . S
C3894 C3890 1.350 . S
C3894 C3891 1.463 . S
C3894 N3898 1.427 . S
C3895 H3885 0.929 . S
C3895 C3893 1.433 . S
C3895 N3898 1.384 . S
C3896 H3887 0.929 . S
C3896 C3888 1.378 . S
C3896 C3891 1.350 . S
C3897 H3884 0.929 . S
C3897 C3889 1.433 . S
C3897 N3899 1.384 . S
N3898 C3894 1.427 . S
N3898 C3895 1.384 . S
N3899 C3891 1.427 . S
N3899 C3897 1.384 . S
H3900 C3906 0.930 . S
H3901 C3910 0.930 . S
H3902 C3915 0.929 . S
H3903 C3913 0.929 . S
H3904 C3908 0.929 . S
H3905 C3914 0.929 . S
C3906 H3900 0.930 . S
C3906 C3907 1.367 . S
C3906 C3914 1.378 . S
C3907 C3906 1.367 . S
C3907 C3915 1.433 . S
C3908 H3904 0.929 . S
C3908 C3910 1.378 . S
C3908 C3912 1.350 . S
C3909 C3912 1.463 . S
C3909 C3914 1.350 . S
C3909 N3917 1.427 . S
C3910 H3901 0.930 . S
C3910 C3908 1.378 . S
C3910 C3911 1.367 . S
C3911 C3910 1.367 . S
C3911 C3913 1.433 . S
C3912 C3908 1.350 . S
C3912 C3909 1.463 . S
C3912 N3916 1.427 . S
C3913 H3903 0.929 . S
C3913 C3911 1.433 . S
C3913 N3916 1.384 . S
C3914 H3905 0.929 . S
C3914 C3906 1.378 . S
C3914 C3909 1.350 . S
C3915 H3902 0.929 . S
C3915 C3907 1.433 . S
C3915 N3917 1.384 . S
N3916 C3912 1.427 . S
N3916 C3913 1.384 . S
N3917 C3909 1.427 . S
N3917 C3915 1.384 . S
H3918 C3924 0.930 . S
H3919 C3928 0.930 1_655 S
H3920 C3933 0.929 . S
H3921 C3931 0.929 . S
H3922 C3926 0.929 . S
H3923 C3932 0.929 . S
C3924 H3918 0.930 . S
C3924 C3925 1.367 . S
C3924 C3932 1.378 . S
C3925 C3924 1.367 . S
C3925 C3933 1.433 . S
C3926 H3922 0.929 . S
C3926 C3928 1.378 . S
C3926 C3930 1.350 . S
C3927 C3930 1.463 . S
C3927 C3932 1.350 . S
C3927 N3935 1.427 . S
C3928 H3919 0.930 1_455 S
C3928 C3926 1.378 . S
C3928 C3929 1.367 . S
C3929 C3928 1.367 . S
C3929 C3931 1.433 . S
C3930 C3926 1.350 . S
C3930 C3927 1.463 . S
C3930 N3934 1.427 . S
C3931 H3921 0.929 . S
C3931 C3929 1.433 . S
C3931 N3934 1.384 . S
C3932 H3923 0.929 . S
C3932 C3924 1.378 . S
C3932 C3927 1.350 . S
C3933 H3920 0.929 . S
C3933 C3925 1.433 . S
C3933 N3935 1.384 . S
N3934 C3930 1.427 . S
N3934 C3931 1.384 . S
N3935 C3927 1.427 . S
N3935 C3933 1.384 . S
H3936 C3942 0.930 . S
H3937 C3946 0.930 . S
H3938 C3951 0.929 . S
H3939 C3949 0.929 . S
H3940 C3944 0.929 . S
H3941 C3950 0.929 . S
C3942 H3936 0.930 . S
C3942 C3943 1.367 . S
C3942 C3950 1.378 . S
C3943 C3942 1.367 . S
C3943 C3951 1.433 . S
C3944 H3940 0.929 . S
C3944 C3946 1.378 . S
C3944 C3948 1.350 . S
C3945 C3948 1.463 . S
C3945 C3950 1.350 . S
C3945 N3953 1.427 . S
C3946 H3937 0.930 . S
C3946 C3944 1.378 . S
C3946 C3947 1.367 . S
C3947 C3946 1.367 . S
C3947 C3949 1.433 . S
C3948 C3944 1.350 . S
C3948 C3945 1.463 . S
C3948 N3952 1.427 . S
C3949 H3939 0.929 . S
C3949 C3947 1.433 . S
C3949 N3952 1.384 . S
C3950 H3941 0.929 . S
C3950 C3942 1.378 . S
C3950 C3945 1.350 . S
C3951 H3938 0.929 . S
C3951 C3943 1.433 . S
C3951 N3953 1.384 . S
N3952 C3948 1.427 . S
N3952 C3949 1.384 . S
N3953 C3945 1.427 . S
N3953 C3951 1.384 . S
H3954 C3960 0.930 . S
H3955 C3964 0.930 . S
H3956 C3969 0.929 1_655 S
H3957 C3967 0.929 . S
H3958 C3962 0.929 . S
H3959 C3968 0.929 . S
C3960 H3954 0.930 . S
C3960 C3961 1.367 . S
C3960 C3968 1.378 . S
C3961 C3960 1.367 . S
C3961 C3969 1.433 . S
C3962 H3958 0.929 . S
C3962 C3964 1.378 . S
C3962 C3966 1.350 . S
C3963 C3966 1.463 . S
C3963 C3968 1.350 . S
C3963 N3971 1.427 . S
C3964 H3955 0.930 . S
C3964 C3962 1.378 . S
C3964 C3965 1.367 . S
C3965 C3964 1.367 . S
C3965 C3967 1.433 . S
C3966 C3962 1.350 . S
C3966 C3963 1.463 . S
C3966 N3970 1.427 . S
C3967 H3957 0.929 . S
C3967 C3965 1.433 . S
C3967 N3970 1.384 . S
C3968 H3959 0.929 . S
C3968 C3960 1.378 . S
C3968 C3963 1.350 . S
C3969 H3956 0.929 1_455 S
C3969 C3961 1.433 . S
C3969 N3971 1.384 . S
N3970 C3966 1.427 . S
N3970 C3967 1.384 . S
N3971 C3963 1.427 . S
N3971 C3969 1.384 . S
H3972 C3978 0.930 . S
H3973 C3982 0.930 . S
H3974 C3987 0.929 . S
H3975 C3985 0.929 . S
H3976 C3980 0.929 . S
H3977 C3986 0.929 . S
C3978 H3972 0.930 . S
C3978 C3979 1.367 . S
C3978 C3986 1.378 . S
C3979 C3978 1.367 . S
C3979 C3987 1.433 . S
C3980 H3976 0.929 . S
C3980 C3982 1.378 . S
C3980 C3984 1.350 . S
C3981 C3984 1.463 . S
C3981 C3986 1.350 . S
C3981 N3989 1.427 . S
C3982 H3973 0.930 . S
C3982 C3980 1.378 . S
C3982 C3983 1.367 . S
C3983 C3982 1.367 . S
C3983 C3985 1.433 . S
C3984 C3980 1.350 . S
C3984 C3981 1.463 . S
C3984 N3988 1.427 . S
C3985 H3975 0.929 . S
C3985 C3983 1.433 . S
C3985 N3988 1.384 . S
C3986 H3977 0.929 . S
C3986 C3978 1.378 . S
C3986 C3981 1.350 . S
C3987 H3974 0.929 . S
C3987 C3979 1.433 . S
C3987 N3989 1.384 . S
N3988 C3984 1.427 . S
N3988 C3985 1.384 . S
N3989 C3981 1.427 . S
N3989 C3987 1.384 . S
H3990 C3996 0.930 . S
H3991 C4000 0.930 . S
H3992 C4005 0.929 . S
H3993 C4003 0.929 . S
H3994 C3998 0.929 . S
H3995 C4004 0.929 . S
C3996 H3990 0.930 . S
C3996 C3997 1.367 . S
C3996 C4004 1.378 . S
C3997 C3996 1.367 . S
C3997 C4005 1.433 . S
C3998 H3994 0.929 . S
C3998 C4000 1.378 . S
C3998 C4002 1.350 . S
C3999 C4002 1.463 . S
C3999 C4004 1.350 . S
C3999 N4007 1.427 . S
C4000 H3991 0.930 . S
C4000 C3998 1.378 . S
C4000 C4001 1.367 . S
C4001 C4000 1.367 . S
C4001 C4003 1.433 . S
C4002 C3998 1.350 . S
C4002 C3999 1.463 . S
C4002 N4006 1.427 . S
C4003 H3993 0.929 . S
C4003 C4001 1.433 . S
C4003 N4006 1.384 . S
C4004 H3995 0.929 . S
C4004 C3996 1.378 . S
C4004 C3999 1.350 . S
C4005 H3992 0.929 . S
C4005 C3997 1.433 . S
C4005 N4007 1.384 . S
N4006 C4002 1.427 . S
N4006 C4003 1.384 . S
N4007 C3999 1.427 . S
N4007 C4005 1.384 . S
H4008 C4014 0.930 . S
H4009 C4018 0.930 . S
H4010 C4023 0.929 . S
H4011 C4021 0.929 . S
H4012 C4016 0.929 . S
H4013 C4022 0.929 . S
C4014 H4008 0.930 . S
C4014 C4015 1.367 . S
C4014 C4022 1.378 . S
C4015 C4014 1.367 . S
C4015 C4023 1.433 . S
C4016 H4012 0.929 . S
C4016 C4018 1.378 . S
C4016 C4020 1.350 . S
C4017 C4020 1.463 . S
C4017 C4022 1.350 . S
C4017 N4025 1.427 . S
C4018 H4009 0.930 . S
C4018 C4016 1.378 . S
C4018 C4019 1.367 . S
C4019 C4018 1.367 . S
C4019 C4021 1.433 . S
C4020 C4016 1.350 . S
C4020 C4017 1.463 . S
C4020 N4024 1.427 . S
C4021 H4011 0.929 . S
C4021 C4019 1.433 . S
C4021 N4024 1.384 . S
C4022 H4013 0.929 . S
C4022 C4014 1.378 . S
C4022 C4017 1.350 . S
C4023 H4010 0.929 . S
C4023 C4015 1.433 . S
C4023 N4025 1.384 . S
N4024 C4020 1.427 . S
N4024 C4021 1.384 . S
N4025 C4017 1.427 . S
N4025 C4023 1.384 . S
H4026 C4032 0.930 . S
H4027 C4036 0.930 . S
H4028 C4041 0.929 . S
H4029 C4039 0.929 . S
H4030 C4034 0.929 . S
H4031 C4040 0.929 . S
C4032 H4026 0.930 . S
C4032 C4033 1.367 . S
C4032 C4040 1.378 . S
C4033 C4032 1.367 . S
C4033 C4041 1.433 . S
C4034 H4030 0.929 . S
C4034 C4036 1.378 . S
C4034 C4038 1.350 . S
C4035 C4038 1.463 . S
C4035 C4040 1.350 . S
C4035 N4043 1.427 . S
C4036 H4027 0.930 . S
C4036 C4034 1.378 . S
C4036 C4037 1.367 . S
C4037 C4036 1.367 . S
C4037 C4039 1.433 . S
C4038 C4034 1.350 . S
C4038 C4035 1.463 . S
C4038 N4042 1.427 . S
C4039 H4029 0.929 . S
C4039 C4037 1.433 . S
C4039 N4042 1.384 . S
C4040 H4031 0.929 . S
C4040 C4032 1.378 . S
C4040 C4035 1.350 . S
C4041 H4028 0.929 . S
C4041 C4033 1.433 . S
C4041 N4043 1.384 . S
N4042 C4038 1.427 . S
N4042 C4039 1.384 . S
N4043 C4035 1.427 . S
N4043 C4041 1.384 . S
H4044 C4050 0.930 . S
H4045 C4054 0.930 . S
H4046 C4059 0.929 . S
H4047 C4057 0.929 . S
H4048 C4052 0.929 . S
H4049 C4058 0.929 . S
C4050 H4044 0.930 . S
C4050 C4051 1.367 . S
C4050 C4058 1.378 . S
C4051 C4050 1.367 . S
C4051 C4059 1.433 . S
C4052 H4048 0.929 . S
C4052 C4054 1.378 . S
C4052 C4056 1.350 . S
C4053 C4056 1.463 . S
C4053 C4058 1.350 . S
C4053 N4061 1.427 . S
C4054 H4045 0.930 . S
C4054 C4052 1.378 . S
C4054 C4055 1.367 . S
C4055 C4054 1.367 . S
C4055 C4057 1.433 . S
C4056 C4052 1.350 . S
C4056 C4053 1.463 . S
C4056 N4060 1.427 . S
C4057 H4047 0.929 . S
C4057 C4055 1.433 . S
C4057 N4060 1.384 . S
C4058 H4049 0.929 . S
C4058 C4050 1.378 . S
C4058 C4053 1.350 . S
C4059 H4046 0.929 . S
C4059 C4051 1.433 . S
C4059 N4061 1.384 . S
N4060 C4056 1.427 . S
N4060 C4057 1.384 . S
N4061 C4053 1.427 . S
N4061 C4059 1.384 . S
H4062 C4068 0.930 . S
H4063 C4072 0.930 . S
H4064 C4077 0.929 . S
H4065 C4075 0.929 . S
H4066 C4070 0.929 . S
H4067 C4076 0.929 . S
C4068 H4062 0.930 . S
C4068 C4069 1.367 . S
C4068 C4076 1.378 . S
C4069 C4068 1.367 . S
C4069 C4077 1.433 . S
C4070 H4066 0.929 . S
C4070 C4072 1.378 . S
C4070 C4074 1.350 . S
C4071 C4074 1.463 . S
C4071 C4076 1.350 . S
C4071 N4079 1.427 . S
C4072 H4063 0.930 . S
C4072 C4070 1.378 . S
C4072 C4073 1.367 . S
C4073 C4072 1.367 . S
C4073 C4075 1.433 . S
C4074 C4070 1.350 . S
C4074 C4071 1.463 . S
C4074 N4078 1.427 . S
C4075 H4065 0.929 . S
C4075 C4073 1.433 . S
C4075 N4078 1.384 . S
C4076 H4067 0.929 . S
C4076 C4068 1.378 . S
C4076 C4071 1.350 . S
C4077 H4064 0.929 . S
C4077 C4069 1.433 . S
C4077 N4079 1.384 . S
N4078 C4074 1.427 . S
N4078 C4075 1.384 . S
N4079 C4071 1.427 . S
N4079 C4077 1.384 . S
H4080 C4086 0.930 . S
H4081 C4090 0.930 1_556 S
H4082 C4095 0.929 . S
H4083 C4093 0.929 . S
H4084 C4088 0.929 . S
H4085 C4094 0.929 . S
C4086 H4080 0.930 . S
C4086 C4087 1.367 . S
C4086 C4094 1.378 . S
C4087 C4086 1.367 . S
C4087 C4095 1.433 . S
C4088 H4084 0.929 . S
C4088 C4090 1.378 . S
C4088 C4092 1.350 . S
C4089 C4092 1.463 . S
C4089 C4094 1.350 . S
C4089 N4097 1.427 . S
C4090 H4081 0.930 1_554 S
C4090 C4088 1.378 . S
C4090 C4091 1.367 . S
C4091 C4090 1.367 . S
C4091 C4093 1.433 . S
C4092 C4088 1.350 . S
C4092 C4089 1.463 . S
C4092 N4096 1.427 . S
C4093 H4083 0.929 . S
C4093 C4091 1.433 . S
C4093 N4096 1.384 . S
C4094 H4085 0.929 . S
C4094 C4086 1.378 . S
C4094 C4089 1.350 . S
C4095 H4082 0.929 . S
C4095 C4087 1.433 . S
C4095 N4097 1.384 . S
N4096 C4092 1.427 . S
N4096 C4093 1.384 . S
N4097 C4089 1.427 . S
N4097 C4095 1.384 . S
H4098 C4104 0.930 . S
H4099 C4108 0.981 . S
H4100 C4113 0.929 . S
H4101 C4111 0.929 . S
H4102 C4106 0.929 . S
H4103 C4112 0.929 . S
C4104 H4098 0.930 . S
C4104 C4105 1.367 . S
C4104 C4112 1.378 . S
C4105 C4104 1.367 . S
C4105 C4113 1.433 . S
C4106 H4102 0.929 . S
C4106 C4108 1.378 . S
C4106 C4110 1.350 . S
C4107 C4110 1.463 . S
C4107 C4112 1.350 . S
C4107 N4115 1.427 . S
C4108 H4099 0.981 . S
C4108 C4106 1.378 . S
C4108 C4109 1.367 . S
C4109 C4108 1.367 . S
C4109 C4111 1.433 . S
C4110 C4106 1.350 . S
C4110 C4107 1.463 . S
C4110 N4114 1.427 . S
C4111 H4101 0.929 . S
C4111 C4109 1.433 . S
C4111 N4114 1.384 . S
C4112 H4103 0.929 . S
C4112 C4104 1.378 . S
C4112 C4107 1.350 . S
C4113 H4100 0.929 . S
C4113 C4105 1.433 . S
C4113 N4115 1.384 . S
N4114 C4110 1.427 . S
N4114 C4111 1.384 . S
N4115 C4107 1.427 . S
N4115 C4113 1.384 . S
H4116 C4122 0.930 1_545 S
H4117 C4126 0.930 . S
H4118 C4131 0.929 . S
H4119 C4129 0.929 . S
H4120 C4124 0.929 . S
H4121 C4130 0.929 . S
C4122 H4116 0.930 1_565 S
C4122 C4123 1.367 . S
C4122 C4130 1.378 . S
C4123 C4122 1.367 . S
C4123 C4131 1.433 . S
C4124 H4120 0.929 . S
C4124 C4126 1.378 . S
C4124 C4128 1.350 . S
C4125 C4128 1.463 . S
C4125 C4130 1.350 . S
C4125 N4133 1.427 . S
C4126 H4117 0.930 . S
C4126 C4124 1.378 . S
C4126 C4127 1.367 . S
C4127 C4126 1.367 . S
C4127 C4129 1.433 . S
C4128 C4124 1.350 . S
C4128 C4125 1.463 . S
C4128 N4132 1.427 . S
C4129 H4119 0.929 . S
C4129 C4127 1.433 . S
C4129 N4132 1.384 . S
C4130 H4121 0.929 . S
C4130 C4122 1.378 . S
C4130 C4125 1.350 . S
C4131 H4118 0.929 . S
C4131 C4123 1.433 . S
C4131 N4133 1.384 . S
N4132 C4128 1.427 . S
N4132 C4129 1.384 . S
N4133 C4125 1.427 . S
N4133 C4131 1.384 . S
H4134 C4140 0.930 . S
H4135 C4144 0.930 1_545 S
H4136 C4149 0.929 . S
H4137 C4147 0.929 . S
H4138 C4142 0.929 . S
H4139 C4148 0.929 . S
C4140 H4134 0.930 . S
C4140 C4141 1.367 . S
C4140 C4148 1.378 . S
C4141 C4140 1.367 . S
C4141 C4149 1.433 . S
C4142 H4138 0.929 . S
C4142 C4144 1.378 . S
C4142 C4146 1.350 . S
C4143 C4146 1.463 . S
C4143 C4148 1.350 . S
C4143 N4151 1.427 . S
C4144 H4135 0.930 1_565 S
C4144 C4142 1.378 . S
C4144 C4145 1.367 . S
C4145 C4144 1.367 . S
C4145 C4147 1.433 . S
C4146 C4142 1.350 . S
C4146 C4143 1.463 . S
C4146 N4150 1.427 . S
C4147 H4137 0.929 . S
C4147 C4145 1.433 . S
C4147 N4150 1.384 . S
C4148 H4139 0.929 . S
C4148 C4140 1.378 . S
C4148 C4143 1.350 . S
C4149 H4136 0.929 . S
C4149 C4141 1.433 . S
C4149 N4151 1.384 . S
N4150 C4146 1.427 . S
N4150 C4147 1.384 . S
N4151 C4143 1.427 . S
N4151 C4149 1.384 . S
H4152 C4158 0.930 . S
H4153 C4162 0.930 . S
H4154 C4167 0.929 . S
H4155 C4165 0.929 . S
H4156 C4160 0.929 . S
H4157 C4166 0.929 . S
C4158 H4152 0.930 . S
C4158 C4159 1.367 . S
C4158 C4166 1.378 . S
C4159 C4158 1.367 . S
C4159 C4167 1.433 . S
C4160 H4156 0.929 . S
C4160 C4162 1.378 . S
C4160 C4164 1.350 . S
C4161 C4164 1.463 . S
C4161 C4166 1.350 . S
C4161 N4169 1.427 . S
C4162 H4153 0.930 . S
C4162 C4160 1.378 . S
C4162 C4163 1.367 . S
C4163 C4162 1.367 . S
C4163 C4165 1.433 . S
C4164 C4160 1.350 . S
C4164 C4161 1.463 . S
C4164 N4168 1.427 . S
C4165 H4155 0.929 . S
C4165 C4163 1.433 . S
C4165 N4168 1.384 . S
C4166 H4157 0.929 . S
C4166 C4158 1.378 . S
C4166 C4161 1.350 . S
C4167 H4154 0.929 . S
C4167 C4159 1.433 . S
C4167 N4169 1.384 . S
N4168 C4164 1.427 . S
N4168 C4165 1.384 . S
N4169 C4161 1.427 . S
N4169 C4167 1.384 . S
H4170 C4176 0.930 . S
H4171 C4180 0.930 . S
H4172 C4185 0.929 . S
H4173 C4183 0.929 . S
H4174 C4178 0.929 . S
H4175 C4184 0.929 . S
C4176 H4170 0.930 . S
C4176 C4177 1.367 . S
C4176 C4184 1.378 . S
C4177 C4176 1.367 . S
C4177 C4185 1.433 . S
C4178 H4174 0.929 . S
C4178 C4180 1.378 . S
C4178 C4182 1.350 . S
C4179 C4182 1.463 . S
C4179 C4184 1.350 . S
C4179 N4187 1.427 . S
C4180 H4171 0.930 . S
C4180 C4178 1.378 . S
C4180 C4181 1.367 . S
C4181 C4180 1.367 . S
C4181 C4183 1.433 . S
C4182 C4178 1.350 . S
C4182 C4179 1.463 . S
C4182 N4186 1.427 . S
C4183 H4173 0.929 . S
C4183 C4181 1.433 . S
C4183 N4186 1.384 . S
C4184 H4175 0.929 . S
C4184 C4176 1.378 . S
C4184 C4179 1.350 . S
C4185 H4172 0.929 . S
C4185 C4177 1.433 . S
C4185 N4187 1.384 . S
N4186 C4182 1.427 . S
N4186 C4183 1.384 . S
N4187 C4179 1.427 . S
N4187 C4185 1.384 . S
H4188 C4194 0.930 . S
H4189 C4198 0.930 . S
H4190 C4203 0.929 . S
H4191 C4201 0.929 . S
H4192 C4196 0.929 . S
H4193 C4202 0.929 . S
C4194 H4188 0.930 . S
C4194 C4195 1.367 . S
C4194 C4202 1.378 . S
C4195 C4194 1.367 . S
C4195 C4203 1.433 . S
C4196 H4192 0.929 . S
C4196 C4198 1.378 . S
C4196 C4200 1.350 . S
C4197 C4200 1.463 . S
C4197 C4202 1.350 . S
C4197 N4205 1.427 . S
C4198 H4189 0.930 . S
C4198 C4196 1.378 . S
C4198 C4199 1.367 . S
C4199 C4198 1.367 . S
C4199 C4201 1.433 . S
C4200 C4196 1.350 . S
C4200 C4197 1.463 . S
C4200 N4204 1.427 . S
C4201 H4191 0.929 . S
C4201 C4199 1.433 . S
C4201 N4204 1.384 . S
C4202 H4193 0.929 . S
C4202 C4194 1.378 . S
C4202 C4197 1.350 . S
C4203 H4190 0.929 . S
C4203 C4195 1.433 . S
C4203 N4205 1.384 . S
N4204 C4200 1.427 . S
N4204 C4201 1.384 . S
N4205 C4197 1.427 . S
N4205 C4203 1.384 . S
H4206 C4212 0.930 . S
H4207 C4216 0.930 . S
H4208 C4221 0.929 . S
H4209 C4219 0.929 . S
H4210 C4214 0.929 . S
H4211 C4220 0.929 . S
C4212 H4206 0.930 . S
C4212 C4213 1.367 . S
C4212 C4220 1.378 . S
C4213 C4212 1.367 . S
C4213 C4221 1.433 . S
C4214 H4210 0.929 . S
C4214 C4216 1.378 . S
C4214 C4218 1.350 . S
C4215 C4218 1.463 . S
C4215 C4220 1.350 . S
C4215 N4223 1.427 . S
C4216 H4207 0.930 . S
C4216 C4214 1.378 . S
C4216 C4217 1.367 . S
C4217 C4216 1.367 . S
C4217 C4219 1.433 . S
C4218 C4214 1.350 . S
C4218 C4215 1.463 . S
C4218 N4222 1.427 . S
C4219 H4209 0.929 . S
C4219 C4217 1.433 . S
C4219 N4222 1.384 . S
C4220 H4211 0.929 . S
C4220 C4212 1.378 . S
C4220 C4215 1.350 . S
C4221 H4208 0.929 . S
C4221 C4213 1.433 . S
C4221 N4223 1.384 . S
N4222 C4218 1.427 . S
N4222 C4219 1.384 . S
N4223 C4215 1.427 . S
N4223 C4221 1.384 . S
H4224 C4230 0.930 . S
H4225 C4234 0.930 . S
H4226 C4239 0.929 . S
H4227 C4237 0.929 1_455 S
H4228 C4232 0.929 . S
H4229 C4238 0.929 . S
C4230 H4224 0.930 . S
C4230 C4231 1.367 . S
C4230 C4238 1.378 . S
C4231 C4230 1.367 . S
C4231 C4239 1.433 . S
C4232 H4228 0.929 . S
C4232 C4234 1.378 . S
C4232 C4236 1.350 . S
C4233 C4236 1.463 . S
C4233 C4238 1.350 . S
C4233 N4241 1.427 . S
C4234 H4225 0.930 . S
C4234 C4232 1.378 . S
C4234 C4235 1.367 . S
C4235 C4234 1.367 . S
C4235 C4237 1.433 . S
C4236 C4232 1.350 . S
C4236 C4233 1.463 . S
C4236 N4240 1.427 . S
C4237 H4227 0.929 1_655 S
C4237 C4235 1.433 . S
C4237 N4240 1.384 . S
C4238 H4229 0.929 . S
C4238 C4230 1.378 . S
C4238 C4233 1.350 . S
C4239 H4226 0.929 . S
C4239 C4231 1.433 . S
C4239 N4241 1.384 . S
N4240 C4236 1.427 . S
N4240 C4237 1.384 . S
N4241 C4233 1.427 . S
N4241 C4239 1.384 . S
H4242 C4248 0.930 . S
H4243 C4252 0.930 . S
H4244 C4257 0.929 . S
H4245 C4255 0.929 . S
H4246 C4250 0.929 . S
H4247 C4256 0.929 . S
C4248 H4242 0.930 . S
C4248 C4249 1.367 . S
C4248 C4256 1.378 . S
C4249 C4248 1.367 . S
C4249 C4257 1.433 . S
C4250 H4246 0.929 . S
C4250 C4252 1.378 . S
C4250 C4254 1.350 . S
C4251 C4254 1.463 . S
C4251 C4256 1.350 . S
C4251 N4259 1.427 . S
C4252 H4243 0.930 . S
C4252 C4250 1.378 . S
C4252 C4253 1.367 . S
C4253 C4252 1.367 . S
C4253 C4255 1.433 . S
C4254 C4250 1.350 . S
C4254 C4251 1.463 . S
C4254 N4258 1.427 . S
C4255 H4245 0.929 . S
C4255 C4253 1.433 . S
C4255 N4258 1.384 . S
C4256 H4247 0.929 . S
C4256 C4248 1.378 . S
C4256 C4251 1.350 . S
C4257 H4244 0.929 . S
C4257 C4249 1.433 . S
C4257 N4259 1.384 . S
N4258 C4254 1.427 . S
N4258 C4255 1.384 . S
N4259 C4251 1.427 . S
N4259 C4257 1.384 . S
H4260 C4266 0.930 . S
H4261 C4270 0.930 . S
H4262 C4275 0.929 . S
H4263 C4273 0.929 . S
H4264 C4268 0.929 . S
H4265 C4274 0.929 . S
C4266 H4260 0.930 . S
C4266 C4267 1.367 . S
C4266 C4274 1.378 . S
C4267 C4266 1.367 . S
C4267 C4275 1.433 . S
C4268 H4264 0.929 . S
C4268 C4270 1.378 . S
C4268 C4272 1.350 . S
C4269 C4272 1.463 . S
C4269 C4274 1.350 . S
C4269 N4277 1.427 . S
C4270 H4261 0.930 . S
C4270 C4268 1.378 . S
C4270 C4271 1.367 . S
C4271 C4270 1.367 . S
C4271 C4273 1.433 . S
C4272 C4268 1.350 . S
C4272 C4269 1.463 . S
C4272 N4276 1.427 . S
C4273 H4263 0.929 . S
C4273 C4271 1.433 . S
C4273 N4276 1.384 . S
C4274 H4265 0.929 . S
C4274 C4266 1.378 . S
C4274 C4269 1.350 . S
C4275 H4262 0.929 . S
C4275 C4267 1.433 . S
C4275 N4277 1.384 . S
N4276 C4272 1.427 . S
N4276 C4273 1.384 . S
N4277 C4269 1.427 . S
N4277 C4275 1.384 . S
H4278 C4284 0.930 . S
H4279 C4288 0.930 . S
H4280 C4293 0.929 . S
H4281 C4291 0.929 . S
H4282 C4286 0.929 . S
H4283 C4292 0.929 . S
C4284 H4278 0.930 . S
C4284 C4285 1.367 . S
C4284 C4292 1.378 . S
C4285 C4284 1.367 . S
C4285 C4293 1.433 . S
C4286 H4282 0.929 . S
C4286 C4288 1.378 . S
C4286 C4290 1.350 . S
C4287 C4290 1.463 . S
C4287 C4292 1.350 . S
C4287 N4295 1.427 . S
C4288 H4279 0.930 . S
C4288 C4286 1.378 . S
C4288 C4289 1.367 . S
C4289 C4288 1.367 . S
C4289 C4291 1.433 . S
C4290 C4286 1.350 . S
C4290 C4287 1.463 . S
C4290 N4294 1.427 . S
C4291 H4281 0.929 . S
C4291 C4289 1.433 . S
C4291 N4294 1.384 . S
C4292 H4283 0.929 . S
C4292 C4284 1.378 . S
C4292 C4287 1.350 . S
C4293 H4280 0.929 . S
C4293 C4285 1.433 . S
C4293 N4295 1.384 . S
N4294 C4290 1.427 . S
N4294 C4291 1.384 . S
N4295 C4287 1.427 . S
N4295 C4293 1.384 . S
H4296 C4302 0.930 . S
H4297 C4306 0.930 . S
H4298 C4311 0.929 . S
H4299 C4309 0.929 . S
H4300 C4304 0.929 . S
H4301 C4310 0.929 . S
C4302 H4296 0.930 . S
C4302 C4303 1.367 . S
C4302 C4310 1.378 . S
C4303 C4302 1.367 . S
C4303 C4311 1.433 . S
C4304 H4300 0.929 . S
C4304 C4306 1.378 . S
C4304 C4308 1.350 . S
C4305 C4308 1.463 . S
C4305 C4310 1.350 . S
C4305 N4313 1.427 . S
C4306 H4297 0.930 . S
C4306 C4304 1.378 . S
C4306 C4307 1.367 . S
C4307 C4306 1.367 . S
C4307 C4309 1.433 . S
C4308 C4304 1.350 . S
C4308 C4305 1.463 . S
C4308 N4312 1.427 . S
C4309 H4299 0.929 . S
C4309 C4307 1.433 . S
C4309 N4312 1.384 . S
C4310 H4301 0.929 . S
C4310 C4302 1.378 . S
C4310 C4305 1.350 . S
C4311 H4298 0.929 . S
C4311 C4303 1.433 . S
C4311 N4313 1.384 . S
N4312 C4308 1.427 . S
N4312 C4309 1.384 . S
N4313 C4305 1.427 . S
N4313 C4311 1.384 . S
H4314 C4320 0.930 . S
H4315 C4324 0.930 . S
H4316 C4329 0.929 . S
H4317 C4327 0.929 . S
H4318 C4322 0.929 . S
H4319 C4328 0.929 . S
C4320 H4314 0.930 . S
C4320 C4321 1.367 . S
C4320 C4328 1.378 . S
C4321 C4320 1.367 . S
C4321 C4329 1.433 . S
C4322 H4318 0.929 . S
C4322 C4324 1.378 . S
C4322 C4326 1.350 . S
C4323 C4326 1.463 . S
C4323 C4328 1.350 . S
C4323 N4331 1.427 . S
C4324 H4315 0.930 . S
C4324 C4322 1.378 . S
C4324 C4325 1.367 . S
C4325 C4324 1.367 . S
C4325 C4327 1.433 . S
C4326 C4322 1.350 . S
C4326 C4323 1.463 . S
C4326 N4330 1.427 . S
C4327 H4317 0.929 . S
C4327 C4325 1.433 . S
C4327 N4330 1.384 . S
C4328 H4319 0.929 . S
C4328 C4320 1.378 . S
C4328 C4323 1.350 . S
C4329 H4316 0.929 . S
C4329 C4321 1.433 . S
C4329 N4331 1.384 . S
N4330 C4326 1.427 . S
N4330 C4327 1.384 . S
N4331 C4323 1.427 . S
N4331 C4329 1.384 . S
H4332 C4338 0.930 . S
H4333 C4342 0.930 . S
H4334 C4347 0.929 . S
H4335 C4345 0.929 . S
H4336 C4340 0.929 . S
H4337 C4346 0.929 . S
C4338 H4332 0.930 . S
C4338 C4339 1.367 . S
C4338 C4346 1.378 . S
C4339 C4338 1.367 . S
C4339 C4347 1.433 . S
C4340 H4336 0.929 . S
C4340 C4342 1.378 . S
C4340 C4344 1.350 . S
C4341 C4344 1.463 . S
C4341 C4346 1.350 . S
C4341 N4349 1.427 . S
C4342 H4333 0.930 . S
C4342 C4340 1.378 . S
C4342 C4343 1.367 . S
C4343 C4342 1.367 . S
C4343 C4345 1.433 . S
C4344 C4340 1.350 . S
C4344 C4341 1.463 . S
C4344 N4348 1.427 . S
C4345 H4335 0.929 . S
C4345 C4343 1.433 . S
C4345 N4348 1.384 . S
C4346 H4337 0.929 . S
C4346 C4338 1.378 . S
C4346 C4341 1.350 . S
C4347 H4334 0.929 . S
C4347 C4339 1.433 . S
C4347 N4349 1.384 . S
N4348 C4344 1.427 . S
N4348 C4345 1.384 . S
N4349 C4341 1.427 . S
N4349 C4347 1.384 . S
H4350 C4356 0.930 . S
H4351 C4360 0.930 . S
H4352 C4365 0.929 . S
H4353 C4363 0.929 . S
H4354 C4358 0.929 . S
H4355 C4364 0.929 . S
C4356 H4350 0.930 . S
C4356 C4357 1.367 . S
C4356 C4364 1.378 . S
C4357 C4356 1.367 . S
C4357 C4365 1.433 . S
C4358 H4354 0.929 . S
C4358 C4360 1.378 . S
C4358 C4362 1.350 . S
C4359 C4362 1.463 . S
C4359 C4364 1.350 . S
C4359 N4367 1.427 . S
C4360 H4351 0.930 . S
C4360 C4358 1.378 . S
C4360 C4361 1.367 . S
C4361 C4360 1.367 . S
C4361 C4363 1.433 . S
C4362 C4358 1.350 . S
C4362 C4359 1.463 . S
C4362 N4366 1.427 . S
C4363 H4353 0.929 . S
C4363 C4361 1.433 . S
C4363 N4366 1.384 . S
C4364 H4355 0.929 . S
C4364 C4356 1.378 . S
C4364 C4359 1.350 . S
C4365 H4352 0.929 . S
C4365 C4357 1.433 . S
C4365 N4367 1.384 . S
N4366 C4362 1.427 . S
N4366 C4363 1.384 . S
N4367 C4359 1.427 . S
N4367 C4365 1.384 . S
H4368 C4374 0.930 . S
H4369 C4378 0.930 . S
H4370 C4383 0.929 . S
H4371 C4381 0.929 . S
H4372 C4376 0.929 . S
H4373 C4382 0.929 . S
C4374 H4368 0.930 . S
C4374 C4375 1.367 . S
C4374 C4382 1.378 . S
C4375 C4374 1.367 . S
C4375 C4383 1.433 . S
C4376 H4372 0.929 . S
C4376 C4378 1.378 . S
C4376 C4380 1.350 . S
C4377 C4380 1.463 . S
C4377 C4382 1.350 . S
C4377 N4385 1.427 . S
C4378 H4369 0.930 . S
C4378 C4376 1.378 . S
C4378 C4379 1.367 . S
C4379 C4378 1.367 . S
C4379 C4381 1.433 . S
C4380 C4376 1.350 . S
C4380 C4377 1.463 . S
C4380 N4384 1.427 . S
C4381 H4371 0.929 . S
C4381 C4379 1.433 . S
C4381 N4384 1.384 . S
C4382 H4373 0.929 . S
C4382 C4374 1.378 . S
C4382 C4377 1.350 . S
C4383 H4370 0.929 . S
C4383 C4375 1.433 . S
C4383 N4385 1.384 . S
N4384 C4380 1.427 . S
N4384 C4381 1.384 . S
N4385 C4377 1.427 . S
N4385 C4383 1.384 . S
H4386 C4392 0.930 . S
H4387 C4396 0.930 . S
H4388 C4401 0.929 . S
H4389 C4399 0.929 . S
H4390 C4394 0.929 . S
H4391 C4400 0.929 . S
C4392 H4386 0.930 . S
C4392 C4393 1.367 . S
C4392 C4400 1.378 . S
C4393 C4392 1.367 . S
C4393 C4401 1.433 . S
C4394 H4390 0.929 . S
C4394 C4396 1.378 . S
C4394 C4398 1.350 . S
C4395 C4398 1.463 . S
C4395 C4400 1.350 . S
C4395 N4403 1.427 . S
C4396 H4387 0.930 . S
C4396 C4394 1.378 . S
C4396 C4397 1.367 . S
C4397 C4396 1.367 . S
C4397 C4399 1.433 . S
C4398 C4394 1.350 . S
C4398 C4395 1.463 . S
C4398 N4402 1.427 . S
C4399 H4389 0.929 . S
C4399 C4397 1.433 . S
C4399 N4402 1.384 . S
C4400 H4391 0.929 . S
C4400 C4392 1.378 . S
C4400 C4395 1.350 . S
C4401 H4388 0.929 . S
C4401 C4393 1.433 . S
C4401 N4403 1.384 . S
N4402 C4398 1.427 . S
N4402 C4399 1.384 . S
N4403 C4395 1.427 . S
N4403 C4401 1.384 . S
H4404 C4410 0.930 . S
H4405 C4414 0.930 . S
H4406 C4419 0.929 . S
H4407 C4417 0.929 . S
H4408 C4412 0.929 . S
H4409 C4418 0.929 . S
C4410 H4404 0.930 . S
C4410 C4411 1.367 . S
C4410 C4418 1.378 . S
C4411 C4410 1.367 . S
C4411 C4419 1.433 . S
C4412 H4408 0.929 . S
C4412 C4414 1.378 . S
C4412 C4416 1.350 . S
C4413 C4416 1.463 . S
C4413 C4418 1.350 . S
C4413 N4421 1.427 . S
C4414 H4405 0.930 . S
C4414 C4412 1.378 . S
C4414 C4415 1.367 . S
C4415 C4414 1.367 . S
C4415 C4417 1.433 . S
C4416 C4412 1.350 . S
C4416 C4413 1.463 . S
C4416 N4420 1.427 . S
C4417 H4407 0.929 . S
C4417 C4415 1.433 . S
C4417 N4420 1.384 . S
C4418 H4409 0.929 . S
C4418 C4410 1.378 . S
C4418 C4413 1.350 . S
C4419 H4406 0.929 . S
C4419 C4411 1.433 . S
C4419 N4421 1.384 . S
N4420 C4416 1.427 . S
N4420 C4417 1.384 . S
N4421 C4413 1.427 . S
N4421 C4419 1.384 . S
H4422 C4428 0.930 . S
H4423 C4432 0.930 . S
H4424 C4437 0.929 . S
H4425 C4435 0.929 . S
H4426 C4430 0.929 . S
H4427 C4436 0.929 . S
C4428 H4422 0.930 . S
C4428 C4429 1.367 . S
C4428 C4436 1.378 . S
C4429 C4428 1.367 . S
C4429 C4437 1.433 . S
C4430 H4426 0.929 . S
C4430 C4432 1.378 . S
C4430 C4434 1.350 . S
C4431 C4434 1.463 . S
C4431 C4436 1.350 . S
C4431 N4439 1.427 . S
C4432 H4423 0.930 . S
C4432 C4430 1.378 . S
C4432 C4433 1.367 . S
C4433 C4432 1.367 . S
C4433 C4435 1.433 . S
C4434 C4430 1.350 . S
C4434 C4431 1.463 . S
C4434 N4438 1.427 . S
C4435 H4425 0.929 . S
C4435 C4433 1.433 . S
C4435 N4438 1.384 . S
C4436 H4427 0.929 . S
C4436 C4428 1.378 . S
C4436 C4431 1.350 . S
C4437 H4424 0.929 . S
C4437 C4429 1.433 . S
C4437 N4439 1.384 . S
N4438 C4434 1.427 . S
N4438 C4435 1.384 . S
N4439 C4431 1.427 . S
N4439 C4437 1.384 . S
H4440 C4446 0.930 . S
H4441 C4450 0.930 . S
H4442 C4455 0.929 . S
H4443 C4453 0.929 . S
H4444 C4448 0.929 . S
H4445 C4454 0.929 . S
C4446 H4440 0.930 . S
C4446 C4447 1.367 . S
C4446 C4454 1.378 . S
C4447 C4446 1.367 . S
C4447 C4455 1.433 . S
C4448 H4444 0.929 . S
C4448 C4450 1.378 . S
C4448 C4452 1.350 . S
C4449 C4452 1.463 . S
C4449 C4454 1.350 . S
C4449 N4457 1.427 . S
C4450 H4441 0.930 . S
C4450 C4448 1.378 . S
C4450 C4451 1.367 . S
C4451 C4450 1.367 . S
C4451 C4453 1.433 . S
C4452 C4448 1.350 . S
C4452 C4449 1.463 . S
C4452 N4456 1.427 . S
C4453 H4443 0.929 . S
C4453 C4451 1.433 . S
C4453 N4456 1.384 . S
C4454 H4445 0.929 . S
C4454 C4446 1.378 . S
C4454 C4449 1.350 . S
C4455 H4442 0.929 . S
C4455 C4447 1.433 . S
C4455 N4457 1.384 . S
N4456 C4452 1.427 . S
N4456 C4453 1.384 . S
N4457 C4449 1.427 . S
N4457 C4455 1.384 . S
H4458 C4464 0.930 . S
H4459 C4468 0.930 . S
H4460 C4473 0.929 . S
H4461 C4471 0.929 . S
H4462 C4466 0.929 . S
H4463 C4472 0.929 . S
C4464 H4458 0.930 . S
C4464 C4465 1.367 . S
C4464 C4472 1.378 . S
C4465 C4464 1.367 . S
C4465 C4473 1.433 . S
C4466 H4462 0.929 . S
C4466 C4468 1.378 . S
C4466 C4470 1.350 . S
C4467 C4470 1.463 . S
C4467 C4472 1.350 . S
C4467 N4475 1.427 . S
C4468 H4459 0.930 . S
C4468 C4466 1.378 . S
C4468 C4469 1.367 . S
C4469 C4468 1.367 . S
C4469 C4471 1.433 . S
C4470 C4466 1.350 . S
C4470 C4467 1.463 . S
C4470 N4474 1.427 . S
C4471 H4461 0.929 . S
C4471 C4469 1.433 . S
C4471 N4474 1.384 . S
C4472 H4463 0.929 . S
C4472 C4464 1.378 . S
C4472 C4467 1.350 . S
C4473 H4460 0.929 . S
C4473 C4465 1.433 . S
C4473 N4475 1.384 . S
N4474 C4470 1.427 . S
N4474 C4471 1.384 . S
N4475 C4467 1.427 . S
N4475 C4473 1.384 . S
H4476 C4482 0.930 . S
H4477 C4486 0.930 . S
H4478 C4491 0.929 . S
H4479 C4489 0.929 . S
H4480 C4484 0.929 . S
H4481 C4490 0.929 . S
C4482 H4476 0.930 . S
C4482 C4483 1.367 . S
C4482 C4490 1.378 . S
C4483 C4482 1.367 . S
C4483 C4491 1.433 . S
C4484 H4480 0.929 . S
C4484 C4486 1.378 . S
C4484 C4488 1.350 . S
C4485 C4488 1.463 . S
C4485 C4490 1.350 . S
C4485 N4493 1.427 . S
C4486 H4477 0.930 . S
C4486 C4484 1.378 . S
C4486 C4487 1.367 . S
C4487 C4486 1.367 . S
C4487 C4489 1.433 . S
C4488 C4484 1.350 . S
C4488 C4485 1.463 . S
C4488 N4492 1.427 . S
C4489 H4479 0.929 . S
C4489 C4487 1.433 . S
C4489 N4492 1.384 . S
C4490 H4481 0.929 . S
C4490 C4482 1.378 . S
C4490 C4485 1.350 . S
C4491 H4478 0.929 . S
C4491 C4483 1.433 . S
C4491 N4493 1.384 . S
N4492 C4488 1.427 . S
N4492 C4489 1.384 . S
N4493 C4485 1.427 . S
N4493 C4491 1.384 . S
H4494 C4500 0.930 . S
H4495 C4504 0.930 . S
H4496 C4509 0.929 . S
H4497 C4507 0.929 . S
H4498 C4502 0.929 . S
H4499 C4508 0.929 . S
C4500 H4494 0.930 . S
C4500 C4501 1.367 . S
C4500 C4508 1.378 . S
C4501 C4500 1.367 . S
C4501 C4509 1.433 . S
C4502 H4498 0.929 . S
C4502 C4504 1.378 . S
C4502 C4506 1.350 . S
C4503 C4506 1.463 . S
C4503 C4508 1.350 . S
C4503 N4511 1.427 . S
C4504 H4495 0.930 . S
C4504 C4502 1.378 . S
C4504 C4505 1.367 . S
C4505 C4504 1.367 . S
C4505 C4507 1.433 . S
C4506 C4502 1.350 . S
C4506 C4503 1.463 . S
C4506 N4510 1.427 . S
C4507 H4497 0.929 . S
C4507 C4505 1.433 . S
C4507 N4510 1.384 . S
C4508 H4499 0.929 . S
C4508 C4500 1.378 . S
C4508 C4503 1.350 . S
C4509 H4496 0.929 . S
C4509 C4501 1.433 . S
C4509 N4511 1.384 . S
N4510 C4506 1.427 . S
N4510 C4507 1.384 . S
N4511 C4503 1.427 . S
N4511 C4509 1.384 . S
H4512 C4518 0.930 . S
H4513 C4522 0.930 . S
H4514 C4527 0.929 . S
H4515 C4525 0.929 . S
H4516 C4520 0.929 . S
H4517 C4526 0.929 . S
C4518 H4512 0.930 . S
C4518 C4519 1.367 . S
C4518 C4526 1.378 . S
C4519 C4518 1.367 . S
C4519 C4527 1.433 . S
C4520 H4516 0.929 . S
C4520 C4522 1.378 . S
C4520 C4524 1.350 . S
C4521 C4524 1.463 . S
C4521 C4526 1.350 . S
C4521 N4529 1.427 . S
C4522 H4513 0.930 . S
C4522 C4520 1.378 . S
C4522 C4523 1.367 . S
C4523 C4522 1.367 . S
C4523 C4525 1.433 . S
C4524 C4520 1.350 . S
C4524 C4521 1.463 . S
C4524 N4528 1.427 . S
C4525 H4515 0.929 . S
C4525 C4523 1.433 . S
C4525 N4528 1.384 . S
C4526 H4517 0.929 . S
C4526 C4518 1.378 . S
C4526 C4521 1.350 . S
C4527 H4514 0.929 . S
C4527 C4519 1.433 . S
C4527 N4529 1.384 . S
N4528 C4524 1.427 . S
N4528 C4525 1.384 . S
N4529 C4521 1.427 . S
N4529 C4527 1.384 . S
H4530 C4536 0.930 . S
H4531 C4540 0.930 . S
H4532 C4545 0.929 . S
H4533 C4543 0.929 . S
H4534 C4538 0.929 . S
H4535 C4544 0.929 . S
C4536 H4530 0.930 . S
C4536 C4537 1.367 . S
C4536 C4544 1.378 . S
C4537 C4536 1.367 . S
C4537 C4545 1.433 . S
C4538 H4534 0.929 . S
C4538 C4540 1.378 . S
C4538 C4542 1.350 . S
C4539 C4542 1.463 . S
C4539 C4544 1.350 . S
C4539 N4547 1.427 . S
C4540 H4531 0.930 . S
C4540 C4538 1.378 . S
C4540 C4541 1.367 . S
C4541 C4540 1.367 . S
C4541 C4543 1.433 . S
C4542 C4538 1.350 . S
C4542 C4539 1.463 . S
C4542 N4546 1.427 . S
C4543 H4533 0.929 . S
C4543 C4541 1.433 . S
C4543 N4546 1.384 . S
C4544 H4535 0.929 . S
C4544 C4536 1.378 . S
C4544 C4539 1.350 . S
C4545 H4532 0.929 . S
C4545 C4537 1.433 . S
C4545 N4547 1.384 . S
N4546 C4542 1.427 . S
N4546 C4543 1.384 . S
N4547 C4539 1.427 . S
N4547 C4545 1.384 . S
H4548 C4554 0.930 . S
H4549 C4558 0.930 . S
H4550 C4563 0.959 . S
H4551 C4561 0.929 . S
H4552 C4556 0.929 . S
H4553 C4562 0.929 . S
C4554 H4548 0.930 . S
C4554 C4555 1.367 . S
C4554 C4562 1.378 . S
C4555 C4554 1.367 . S
C4555 C4563 1.433 . S
C4556 H4552 0.929 . S
C4556 C4558 1.378 . S
C4556 C4560 1.350 . S
C4557 C4560 1.463 . S
C4557 C4562 1.350 . S
C4557 N4565 1.427 . S
C4558 H4549 0.930 . S
C4558 C4556 1.378 . S
C4558 C4559 1.367 . S
C4559 C4558 1.367 . S
C4559 C4561 1.433 . S
C4560 C4556 1.350 . S
C4560 C4557 1.463 . S
C4560 N4564 1.427 . S
C4561 H4551 0.929 . S
C4561 C4559 1.433 . S
C4561 N4564 1.384 . S
C4562 H4553 0.929 . S
C4562 C4554 1.378 . S
C4562 C4557 1.350 . S
C4563 H4550 0.959 . S
C4563 C4555 1.433 . S
C4563 N4565 1.384 . S
N4564 C4560 1.427 . S
N4564 C4561 1.384 . S
N4565 C4557 1.427 . S
N4565 C4563 1.384 . S
H4566 C4572 0.930 . S
H4567 C4576 0.930 . S
H4568 C4581 0.929 . S
H4569 C4579 0.929 . S
H4570 C4574 0.929 . S
H4571 C4580 0.929 . S
C4572 H4566 0.930 . S
C4572 C4573 1.367 . S
C4572 C4580 1.378 . S
C4573 C4572 1.367 . S
C4573 C4581 1.433 . S
C4574 H4570 0.929 . S
C4574 C4576 1.378 . S
C4574 C4578 1.350 . S
C4575 C4578 1.463 . S
C4575 C4580 1.350 . S
C4575 N4583 1.427 . S
C4576 H4567 0.930 . S
C4576 C4574 1.378 . S
C4576 C4577 1.367 . S
C4577 C4576 1.367 . S
C4577 C4579 1.433 . S
C4578 C4574 1.350 . S
C4578 C4575 1.463 . S
C4578 N4582 1.427 . S
C4579 H4569 0.929 . S
C4579 C4577 1.433 . S
C4579 N4582 1.384 . S
C4580 H4571 0.929 . S
C4580 C4572 1.378 . S
C4580 C4575 1.350 . S
C4581 H4568 0.929 . S
C4581 C4573 1.433 . S
C4581 N4583 1.384 . S
N4582 C4578 1.427 . S
N4582 C4579 1.384 . S
N4583 C4575 1.427 . S
N4583 C4581 1.384 . S
H4584 C4590 0.930 . S
H4585 C4594 0.930 . S
H4586 C4599 0.929 . S
H4587 C4597 0.910 1_556 S
H4588 C4592 0.929 . S
H4589 C4598 0.929 . S
C4590 H4584 0.930 . S
C4590 C4591 1.367 . S
C4590 C4598 1.378 . S
C4591 C4590 1.367 . S
C4591 C4599 1.433 . S
C4592 H4588 0.929 . S
C4592 C4594 1.378 . S
C4592 C4596 1.350 . S
C4593 C4596 1.463 . S
C4593 C4598 1.350 . S
C4593 N4601 1.427 . S
C4594 H4585 0.930 . S
C4594 C4592 1.378 . S
C4594 C4595 1.367 . S
C4595 C4594 1.367 . S
C4595 C4597 1.433 . S
C4596 C4592 1.350 . S
C4596 C4593 1.463 . S
C4596 N4600 1.427 . S
C4597 H4587 0.910 1_554 S
C4597 C4595 1.433 . S
C4597 N4600 1.384 . S
C4598 H4589 0.929 . S
C4598 C4590 1.378 . S
C4598 C4593 1.350 . S
C4599 H4586 0.929 . S
C4599 C4591 1.433 . S
C4599 N4601 1.384 . S
N4600 C4596 1.427 . S
N4600 C4597 1.384 . S
N4601 C4593 1.427 . S
N4601 C4599 1.384 . S
H4602 C4608 0.930 . S
H4603 C4612 0.930 . S
H4604 C4617 0.929 . S
H4605 C4615 0.929 . S
H4606 C4610 0.929 . S
H4607 C4616 0.929 . S
C4608 H4602 0.930 . S
C4608 C4609 1.367 . S
C4608 C4616 1.378 . S
C4609 C4608 1.367 . S
C4609 C4617 1.433 . S
C4610 H4606 0.929 . S
C4610 C4612 1.378 . S
C4610 C4614 1.350 . S
C4611 C4614 1.463 . S
C4611 C4616 1.350 . S
C4611 N4619 1.427 . S
C4612 H4603 0.930 . S
C4612 C4610 1.378 . S
C4612 C4613 1.367 . S
C4613 C4612 1.367 . S
C4613 C4615 1.433 . S
C4614 C4610 1.350 . S
C4614 C4611 1.463 . S
C4614 N4618 1.427 . S
C4615 H4605 0.929 . S
C4615 C4613 1.433 . S
C4615 N4618 1.384 . S
C4616 H4607 0.929 . S
C4616 C4608 1.378 . S
C4616 C4611 1.350 . S
C4617 H4604 0.929 . S
C4617 C4609 1.433 . S
C4617 N4619 1.384 . S
N4618 C4614 1.427 . S
N4618 C4615 1.384 . S
N4619 C4611 1.427 . S
N4619 C4617 1.384 . S
H4620 C4626 0.930 . S
H4621 C4630 0.930 . S
H4622 C4635 0.929 . S
H4623 C4633 0.929 . S
H4624 C4628 0.929 . S
H4625 C4634 0.929 . S
C4626 H4620 0.930 . S
C4626 C4627 1.367 . S
C4626 C4634 1.378 . S
C4627 C4626 1.367 . S
C4627 C4635 1.433 . S
C4628 H4624 0.929 . S
C4628 C4630 1.378 . S
C4628 C4632 1.350 . S
C4629 C4632 1.463 . S
C4629 C4634 1.350 . S
C4629 N4637 1.427 . S
C4630 H4621 0.930 . S
C4630 C4628 1.378 . S
C4630 C4631 1.367 . S
C4631 C4630 1.367 . S
C4631 C4633 1.433 . S
C4632 C4628 1.350 . S
C4632 C4629 1.463 . S
C4632 N4636 1.427 . S
C4633 H4623 0.929 . S
C4633 C4631 1.433 . S
C4633 N4636 1.384 . S
C4634 H4625 0.929 . S
C4634 C4626 1.378 . S
C4634 C4629 1.350 . S
C4635 H4622 0.929 . S
C4635 C4627 1.433 . S
C4635 N4637 1.384 . S
N4636 C4632 1.427 . S
N4636 C4633 1.384 . S
N4637 C4629 1.427 . S
N4637 C4635 1.384 . S
H4638 C4644 0.930 . S
H4639 C4648 0.930 . S
H4640 C4653 0.929 . S
H4641 C4651 0.929 . S
H4642 C4646 0.929 . S
H4643 C4652 0.929 . S
C4644 H4638 0.930 . S
C4644 C4645 1.367 . S
C4644 C4652 1.378 . S
C4645 C4644 1.367 . S
C4645 C4653 1.433 . S
C4646 H4642 0.929 . S
C4646 C4648 1.378 . S
C4646 C4650 1.350 . S
C4647 C4650 1.463 . S
C4647 C4652 1.350 . S
C4647 N4655 1.427 . S
C4648 H4639 0.930 . S
C4648 C4646 1.378 . S
C4648 C4649 1.367 . S
C4649 C4648 1.367 . S
C4649 C4651 1.433 . S
C4650 C4646 1.350 . S
C4650 C4647 1.463 . S
C4650 N4654 1.427 . S
C4651 H4641 0.929 . S
C4651 C4649 1.433 . S
C4651 N4654 1.384 . S
C4652 H4643 0.929 . S
C4652 C4644 1.378 . S
C4652 C4647 1.350 . S
C4653 H4640 0.929 . S
C4653 C4645 1.433 . S
C4653 N4655 1.384 . S
N4654 C4650 1.427 . S
N4654 C4651 1.384 . S
N4655 C4647 1.427 . S
N4655 C4653 1.384 . S
H4656 C4662 0.930 . S
H4657 C4666 0.930 . S
H4658 C4671 0.929 . S
H4659 C4669 0.929 . S
H4660 C4664 0.929 . S
H4661 C4670 0.929 . S
C4662 H4656 0.930 . S
C4662 C4663 1.367 . S
C4662 C4670 1.378 . S
C4663 C4662 1.367 . S
C4663 C4671 1.433 . S
C4664 H4660 0.929 . S
C4664 C4666 1.378 . S
C4664 C4668 1.350 . S
C4665 C4668 1.463 . S
C4665 C4670 1.350 . S
C4665 N4673 1.427 . S
C4666 H4657 0.930 . S
C4666 C4664 1.378 . S
C4666 C4667 1.367 . S
C4667 C4666 1.367 . S
C4667 C4669 1.433 . S
C4668 C4664 1.350 . S
C4668 C4665 1.463 . S
C4668 N4672 1.427 . S
C4669 H4659 0.929 . S
C4669 C4667 1.433 . S
C4669 N4672 1.384 . S
C4670 H4661 0.929 . S
C4670 C4662 1.378 . S
C4670 C4665 1.350 . S
C4671 H4658 0.929 . S
C4671 C4663 1.433 . S
C4671 N4673 1.384 . S
N4672 C4668 1.427 . S
N4672 C4669 1.384 . S
N4673 C4665 1.427 . S
N4673 C4671 1.384 . S
H4674 C4680 0.930 . S
H4675 C4684 0.930 . S
H4676 C4689 0.929 . S
H4677 C4687 0.929 . S
H4678 C4682 0.929 . S
H4679 C4688 0.929 . S
C4680 H4674 0.930 . S
C4680 C4681 1.367 . S
C4680 C4688 1.378 . S
C4681 C4680 1.367 . S
C4681 C4689 1.433 . S
C4682 H4678 0.929 . S
C4682 C4684 1.378 . S
C4682 C4686 1.350 . S
C4683 C4686 1.463 . S
C4683 C4688 1.350 . S
C4683 N4691 1.427 . S
C4684 H4675 0.930 . S
C4684 C4682 1.378 . S
C4684 C4685 1.367 . S
C4685 C4684 1.367 . S
C4685 C4687 1.433 . S
C4686 C4682 1.350 . S
C4686 C4683 1.463 . S
C4686 N4690 1.427 . S
C4687 H4677 0.929 . S
C4687 C4685 1.433 . S
C4687 N4690 1.384 . S
C4688 H4679 0.929 . S
C4688 C4680 1.378 . S
C4688 C4683 1.350 . S
C4689 H4676 0.929 . S
C4689 C4681 1.433 . S
C4689 N4691 1.384 . S
N4690 C4686 1.427 . S
N4690 C4687 1.384 . S
N4691 C4683 1.427 . S
N4691 C4689 1.384 . S
H4692 C4698 0.930 . S
H4693 C4702 0.930 . S
H4694 C4707 0.929 . S
H4695 C4705 0.929 . S
H4696 C4700 0.929 . S
H4697 C4706 0.929 . S
C4698 H4692 0.930 . S
C4698 C4699 1.367 . S
C4698 C4706 1.378 . S
C4699 C4698 1.367 . S
C4699 C4707 1.433 . S
C4700 H4696 0.929 . S
C4700 C4702 1.378 . S
C4700 C4704 1.350 . S
C4701 C4704 1.463 . S
C4701 C4706 1.350 . S
C4701 N4709 1.427 . S
C4702 H4693 0.930 . S
C4702 C4700 1.378 . S
C4702 C4703 1.367 1_455 S
C4703 C4702 1.367 1_655 S
C4703 C4705 1.433 . S
C4704 C4700 1.350 . S
C4704 C4701 1.463 . S
C4704 N4708 1.427 . S
C4705 H4695 0.929 . S
C4705 C4703 1.433 . S
C4705 N4708 1.384 1_655 S
C4706 H4697 0.929 . S
C4706 C4698 1.378 . S
C4706 C4701 1.350 . S
C4707 H4694 0.929 . S
C4707 C4699 1.433 . S
C4707 N4709 1.384 . S
N4708 C4704 1.427 . S
N4708 C4705 1.384 1_455 S
N4709 C4701 1.427 . S
N4709 C4707 1.384 . S
H4710 C4716 0.930 . S
H4711 C4720 0.930 . S
H4712 C4725 0.929 . S
H4713 C4723 0.929 . S
H4714 C4718 0.929 . S
H4715 C4724 0.929 . S
C4716 H4710 0.930 . S
C4716 C4717 1.367 . S
C4716 C4724 1.378 . S
C4717 C4716 1.367 . S
C4717 C4725 1.433 . S
C4718 H4714 0.929 . S
C4718 C4720 1.378 . S
C4718 C4722 1.350 . S
C4719 C4722 1.463 . S
C4719 C4724 1.350 . S
C4719 N4727 1.427 . S
C4720 H4711 0.930 . S
C4720 C4718 1.378 . S
C4720 C4721 1.367 . S
C4721 C4720 1.367 . S
C4721 C4723 1.433 . S
C4722 C4718 1.350 . S
C4722 C4719 1.463 . S
C4722 N4726 1.427 . S
C4723 H4713 0.929 . S
C4723 C4721 1.433 . S
C4723 N4726 1.384 . S
C4724 H4715 0.929 . S
C4724 C4716 1.378 . S
C4724 C4719 1.350 . S
C4725 H4712 0.929 . S
C4725 C4717 1.433 . S
C4725 N4727 1.384 . S
N4726 C4722 1.427 . S
N4726 C4723 1.384 . S
N4727 C4719 1.427 . S
N4727 C4725 1.384 . S
H4728 C4734 0.930 . S
H4729 C4738 0.930 . S
H4730 C4743 0.929 . S
H4731 C4741 0.929 . S
H4732 C4736 0.929 . S
H4733 C4742 0.929 . S
C4734 H4728 0.930 . S
C4734 C4735 1.367 . S
C4734 C4742 1.378 . S
C4735 C4734 1.367 . S
C4735 C4743 1.433 . S
C4736 H4732 0.929 . S
C4736 C4738 1.378 . S
C4736 C4740 1.350 . S
C4737 C4740 1.463 . S
C4737 C4742 1.350 . S
C4737 N4745 1.427 . S
C4738 H4729 0.930 . S
C4738 C4736 1.378 . S
C4738 C4739 1.367 . S
C4739 C4738 1.367 . S
C4739 C4741 1.433 . S
C4740 C4736 1.350 . S
C4740 C4737 1.463 . S
C4740 N4744 1.427 . S
C4741 H4731 0.929 . S
C4741 C4739 1.433 . S
C4741 N4744 1.384 . S
C4742 H4733 0.929 . S
C4742 C4734 1.378 . S
C4742 C4737 1.350 . S
C4743 H4730 0.929 . S
C4743 C4735 1.433 . S
C4743 N4745 1.384 . S
N4744 C4740 1.427 . S
N4744 C4741 1.384 . S
N4745 C4737 1.427 . S
N4745 C4743 1.384 . S
H4746 C4752 0.930 . S
H4747 C4756 0.930 . S
H4748 C4761 0.929 . S
H4749 C4759 0.929 . S
H4750 C4754 0.929 . S
H4751 C4760 0.929 . S
C4752 H4746 0.930 . S
C4752 C4753 1.367 . S
C4752 C4760 1.378 . S
C4753 C4752 1.367 . S
C4753 C4761 1.433 . S
C4754 H4750 0.929 . S
C4754 C4756 1.378 . S
C4754 C4758 1.350 . S
C4755 C4758 1.463 . S
C4755 C4760 1.350 . S
C4755 N4763 1.427 . S
C4756 H4747 0.930 . S
C4756 C4754 1.378 . S
C4756 C4757 1.367 . S
C4757 C4756 1.367 . S
C4757 C4759 1.433 . S
C4758 C4754 1.350 . S
C4758 C4755 1.463 . S
C4758 N4762 1.427 . S
C4759 H4749 0.929 . S
C4759 C4757 1.433 . S
C4759 N4762 1.384 . S
C4760 H4751 0.929 . S
C4760 C4752 1.378 . S
C4760 C4755 1.350 . S
C4761 H4748 0.929 . S
C4761 C4753 1.433 . S
C4761 N4763 1.384 . S
N4762 C4758 1.427 . S
N4762 C4759 1.384 . S
N4763 C4755 1.427 . S
N4763 C4761 1.384 . S
H4764 C4770 0.930 . S
H4765 C4774 0.932 . S
H4766 C4779 0.929 . S
H4767 C4777 0.929 . S
H4768 C4772 0.929 . S
H4769 C4778 0.929 . S
C4770 H4764 0.930 . S
C4770 C4771 1.367 . S
C4770 C4778 1.378 . S
C4771 C4770 1.367 . S
C4771 C4779 1.433 . S
C4772 H4768 0.929 . S
C4772 C4774 1.378 . S
C4772 C4776 1.350 . S
C4773 C4776 1.463 . S
C4773 C4778 1.350 . S
C4773 N4781 1.427 . S
C4774 H4765 0.932 . S
C4774 C4772 1.378 . S
C4774 C4775 1.356 1_455 S
C4775 C4774 1.356 1_655 S
C4775 C4777 1.421 1_655 S
C4776 C4772 1.350 . S
C4776 C4773 1.463 . S
C4776 N4780 1.427 . S
C4777 H4767 0.929 . S
C4777 C4775 1.421 1_455 S
C4777 N4780 1.384 . S
C4778 H4769 0.929 . S
C4778 C4770 1.378 . S
C4778 C4773 1.350 . S
C4779 H4766 0.929 . S
C4779 C4771 1.433 . S
C4779 N4781 1.384 . S
N4780 C4776 1.427 . S
N4780 C4777 1.384 . S
N4781 C4773 1.427 . S
N4781 C4779 1.384 . S
H4782 C4788 0.930 . S
H4783 C4792 0.930 . S
H4784 C4797 0.929 . S
H4785 C4795 0.929 . S
H4786 C4790 0.929 . S
H4787 C4796 0.929 . S
C4788 H4782 0.930 . S
C4788 C4789 1.367 . S
C4788 C4796 1.378 . S
C4789 C4788 1.367 . S
C4789 C4797 1.433 . S
C4790 H4786 0.929 . S
C4790 C4792 1.378 . S
C4790 C4794 1.350 . S
C4791 C4794 1.463 . S
C4791 C4796 1.350 . S
C4791 N4799 1.427 . S
C4792 H4783 0.930 . S
C4792 C4790 1.378 . S
C4792 C4793 1.367 . S
C4793 C4792 1.367 . S
C4793 C4795 1.433 . S
C4794 C4790 1.350 . S
C4794 C4791 1.463 . S
C4794 N4798 1.427 . S
C4795 H4785 0.929 . S
C4795 C4793 1.433 . S
C4795 N4798 1.384 . S
C4796 H4787 0.929 . S
C4796 C4788 1.378 . S
C4796 C4791 1.350 . S
C4797 H4784 0.929 . S
C4797 C4789 1.433 . S
C4797 N4799 1.384 . S
N4798 C4794 1.427 . S
N4798 C4795 1.384 . S
N4799 C4791 1.427 . S
N4799 C4797 1.384 . S
H4800 C4806 0.930 . S
H4801 C4810 0.930 . S
H4802 C4815 0.929 . S
H4803 C4813 0.929 . S
H4804 C4808 0.929 . S
H4805 C4814 0.929 . S
C4806 H4800 0.930 . S
C4806 C4807 1.367 . S
C4806 C4814 1.378 . S
C4807 C4806 1.367 . S
C4807 C4815 1.433 . S
C4808 H4804 0.929 . S
C4808 C4810 1.378 . S
C4808 C4812 1.350 . S
C4809 C4812 1.463 . S
C4809 C4814 1.350 . S
C4809 N4817 1.427 . S
C4810 H4801 0.930 . S
C4810 C4808 1.378 . S
C4810 C4811 1.367 . S
C4811 C4810 1.367 . S
C4811 C4813 1.433 . S
C4812 C4808 1.350 . S
C4812 C4809 1.463 . S
C4812 N4816 1.427 . S
C4813 H4803 0.929 . S
C4813 C4811 1.433 . S
C4813 N4816 1.384 . S
C4814 H4805 0.929 . S
C4814 C4806 1.378 . S
C4814 C4809 1.350 . S
C4815 H4802 0.929 . S
C4815 C4807 1.433 . S
C4815 N4817 1.384 . S
N4816 C4812 1.427 . S
N4816 C4813 1.384 . S
N4817 C4809 1.427 . S
N4817 C4815 1.384 . S
H4818 C4824 0.930 . S
H4819 C4828 0.930 . S
H4820 C4833 0.918 1_565 S
H4821 C4831 0.929 . S
H4822 C4826 0.929 . S
H4823 C4832 0.929 . S
C4824 H4818 0.930 . S
C4824 C4825 1.319 1_545 S
C4824 C4832 1.378 . S
C4825 C4824 1.319 1_565 S
C4825 C4833 1.429 1_565 S
C4826 H4822 0.929 . S
C4826 C4828 1.378 . S
C4826 C4830 1.350 . S
C4827 C4830 1.463 . S
C4827 C4832 1.350 . S
C4827 N4835 1.427 . S
C4828 H4819 0.930 . S
C4828 C4826 1.378 . S
C4828 C4829 1.367 . S
C4829 C4828 1.367 . S
C4829 C4831 1.433 . S
C4830 C4826 1.350 . S
C4830 C4827 1.463 . S
C4830 N4834 1.427 . S
C4831 H4821 0.929 . S
C4831 C4829 1.433 . S
C4831 N4834 1.384 . S
C4832 H4823 0.929 . S
C4832 C4824 1.378 . S
C4832 C4827 1.350 . S
C4833 H4820 0.918 1_545 S
C4833 C4825 1.429 1_545 S
C4833 N4835 1.396 . S
N4834 C4830 1.427 . S
N4834 C4831 1.384 . S
N4835 C4827 1.427 . S
N4835 C4833 1.396 . S
H4836 C4842 0.930 . S
H4837 C4846 0.930 . S
H4838 C4851 0.929 . S
H4839 C4849 0.929 . S
H4840 C4844 0.929 . S
H4841 C4850 0.929 . S
C4842 H4836 0.930 . S
C4842 C4843 1.367 . S
C4842 C4850 1.378 . S
C4843 C4842 1.367 . S
C4843 C4851 1.433 . S
C4844 H4840 0.929 . S
C4844 C4846 1.378 . S
C4844 C4848 1.350 . S
C4845 C4848 1.463 . S
C4845 C4850 1.350 . S
C4845 N4853 1.427 . S
C4846 H4837 0.930 . S
C4846 C4844 1.378 . S
C4846 C4847 1.367 . S
C4847 C4846 1.367 . S
C4847 C4849 1.433 . S
C4848 C4844 1.350 . S
C4848 C4845 1.463 . S
C4848 N4852 1.427 . S
C4849 H4839 0.929 . S
C4849 C4847 1.433 . S
C4849 N4852 1.384 . S
C4850 H4841 0.929 . S
C4850 C4842 1.378 . S
C4850 C4845 1.350 . S
C4851 H4838 0.929 . S
C4851 C4843 1.433 . S
C4851 N4853 1.384 . S
N4852 C4848 1.427 . S
N4852 C4849 1.384 . S
N4853 C4845 1.427 . S
N4853 C4851 1.384 . S
H4854 C4860 0.930 . S
H4855 C4864 0.930 . S
H4856 C4869 0.929 . S
H4857 C4867 0.929 . S
H4858 C4862 0.929 . S
H4859 C4868 0.929 . S
C4860 H4854 0.930 . S
C4860 C4861 1.367 . S
C4860 C4868 1.378 . S
C4861 C4860 1.367 . S
C4861 C4869 1.433 . S
C4862 H4858 0.929 . S
C4862 C4864 1.378 1_565 S
C4862 C4866 1.350 . S
C4863 C4866 1.463 . S
C4863 C4868 1.350 . S
C4863 N4871 1.427 . S
C4864 H4855 0.930 . S
C4864 C4862 1.378 1_545 S
C4864 C4865 1.367 . S
C4865 C4864 1.367 . S
C4865 C4867 1.433 . S
C4866 C4862 1.350 . S
C4866 C4863 1.463 . S
C4866 N4870 1.427 . S
C4867 H4857 0.929 . S
C4867 C4865 1.433 . S
C4867 N4870 1.384 1_545 S
C4868 H4859 0.929 . S
C4868 C4860 1.378 . S
C4868 C4863 1.350 . S
C4869 H4856 0.929 . S
C4869 C4861 1.433 . S
C4869 N4871 1.384 . S
N4870 C4866 1.427 . S
N4870 C4867 1.384 1_565 S
N4871 C4863 1.427 . S
N4871 C4869 1.384 . S
H4872 C4878 0.930 . S
H4873 C4882 0.930 . S
H4874 C4887 0.929 . S
H4875 C4885 0.929 . S
H4876 C4880 0.929 . S
H4877 C4886 0.929 . S
C4878 H4872 0.930 . S
C4878 C4879 1.367 . S
C4878 C4886 1.378 . S
C4879 C4878 1.367 . S
C4879 C4887 1.433 . S
C4880 H4876 0.929 . S
C4880 C4882 1.378 . S
C4880 C4884 1.350 . S
C4881 C4884 1.463 . S
C4881 C4886 1.350 . S
C4881 N4889 1.427 . S
C4882 H4873 0.930 . S
C4882 C4880 1.378 . S
C4882 C4883 1.367 . S
C4883 C4882 1.367 . S
C4883 C4885 1.433 . S
C4884 C4880 1.350 . S
C4884 C4881 1.463 . S
C4884 N4888 1.427 . S
C4885 H4875 0.929 . S
C4885 C4883 1.433 . S
C4885 N4888 1.384 . S
C4886 H4877 0.929 . S
C4886 C4878 1.378 . S
C4886 C4881 1.350 . S
C4887 H4874 0.929 . S
C4887 C4879 1.433 . S
C4887 N4889 1.384 . S
N4888 C4884 1.427 . S
N4888 C4885 1.384 . S
N4889 C4881 1.427 . S
N4889 C4887 1.384 . S
H4890 C4896 0.930 . S
H4891 C4900 0.930 . S
H4892 C4905 0.929 . S
H4893 C4903 0.929 . S
H4894 C4898 0.929 . S
H4895 C4904 0.929 . S
C4896 H4890 0.930 . S
C4896 C4897 1.367 . S
C4896 C4904 1.378 . S
C4897 C4896 1.367 . S
C4897 C4905 1.433 . S
C4898 H4894 0.929 . S
C4898 C4900 1.378 . S
C4898 C4902 1.350 . S
C4899 C4902 1.463 . S
C4899 C4904 1.350 . S
C4899 N4907 1.427 . S
C4900 H4891 0.930 . S
C4900 C4898 1.378 . S
C4900 C4901 1.367 . S
C4901 C4900 1.367 . S
C4901 C4903 1.433 . S
C4902 C4898 1.350 . S
C4902 C4899 1.463 . S
C4902 N4906 1.427 . S
C4903 H4893 0.929 . S
C4903 C4901 1.433 . S
C4903 N4906 1.384 . S
C4904 H4895 0.929 . S
C4904 C4896 1.378 . S
C4904 C4899 1.350 . S
C4905 H4892 0.929 . S
C4905 C4897 1.433 . S
C4905 N4907 1.384 . S
N4906 C4902 1.427 . S
N4906 C4903 1.384 . S
N4907 C4899 1.427 . S
N4907 C4905 1.384 . S
H4908 C4914 0.930 . S
H4909 C4918 0.930 . S
H4910 C4923 0.929 . S
H4911 C4921 0.929 . S
H4912 C4916 0.929 . S
H4913 C4922 0.929 . S
C4914 H4908 0.930 . S
C4914 C4915 1.367 . S
C4914 C4922 1.378 . S
C4915 C4914 1.367 . S
C4915 C4923 1.433 . S
C4916 H4912 0.929 . S
C4916 C4918 1.378 . S
C4916 C4920 1.350 . S
C4917 C4920 1.463 . S
C4917 C4922 1.350 . S
C4917 N4925 1.427 . S
C4918 H4909 0.930 . S
C4918 C4916 1.378 . S
C4918 C4919 1.367 . S
C4919 C4918 1.367 . S
C4919 C4921 1.433 . S
C4920 C4916 1.350 . S
C4920 C4917 1.463 . S
C4920 N4924 1.427 . S
C4921 H4911 0.929 . S
C4921 C4919 1.433 . S
C4921 N4924 1.384 . S
C4922 H4913 0.929 . S
C4922 C4914 1.378 . S
C4922 C4917 1.350 . S
C4923 H4910 0.929 . S
C4923 C4915 1.433 . S
C4923 N4925 1.384 . S
N4924 C4920 1.427 . S
N4924 C4921 1.384 . S
N4925 C4917 1.427 . S
N4925 C4923 1.384 . S
H4926 C4932 0.930 . S
H4927 C4936 0.930 . S
H4928 C4941 0.929 . S
H4929 C4939 0.929 . S
H4930 C4934 0.929 . S
H4931 C4940 0.929 . S
C4932 H4926 0.930 . S
C4932 C4933 1.367 . S
C4932 C4940 1.378 . S
C4933 C4932 1.367 . S
C4933 C4941 1.433 . S
C4934 H4930 0.929 . S
C4934 C4936 1.378 . S
C4934 C4938 1.350 . S
C4935 C4938 1.463 . S
C4935 C4940 1.350 . S
C4935 N4943 1.427 . S
C4936 H4927 0.930 . S
C4936 C4934 1.378 . S
C4936 C4937 1.367 . S
C4937 C4936 1.367 . S
C4937 C4939 1.433 . S
C4938 C4934 1.350 . S
C4938 C4935 1.463 . S
C4938 N4942 1.427 . S
C4939 H4929 0.929 . S
C4939 C4937 1.433 . S
C4939 N4942 1.384 . S
C4940 H4931 0.929 . S
C4940 C4932 1.378 . S
C4940 C4935 1.350 . S
C4941 H4928 0.929 . S
C4941 C4933 1.433 . S
C4941 N4943 1.384 . S
N4942 C4938 1.427 . S
N4942 C4939 1.384 . S
N4943 C4935 1.427 . S
N4943 C4941 1.384 . S
H4944 C4950 0.930 . S
H4945 C4954 0.930 . S
H4946 C4959 0.929 . S
H4947 C4957 0.929 . S
H4948 C4952 0.929 . S
H4949 C4958 0.929 . S
C4950 H4944 0.930 . S
C4950 C4951 1.367 . S
C4950 C4958 1.378 . S
C4951 C4950 1.367 . S
C4951 C4959 1.433 . S
C4952 H4948 0.929 . S
C4952 C4954 1.378 . S
C4952 C4956 1.350 . S
C4953 C4956 1.463 . S
C4953 C4958 1.350 . S
C4953 N4961 1.427 . S
C4954 H4945 0.930 . S
C4954 C4952 1.378 . S
C4954 C4955 1.367 . S
C4955 C4954 1.367 . S
C4955 C4957 1.433 . S
C4956 C4952 1.350 . S
C4956 C4953 1.463 . S
C4956 N4960 1.427 . S
C4957 H4947 0.929 . S
C4957 C4955 1.433 . S
C4957 N4960 1.384 . S
C4958 H4949 0.929 . S
C4958 C4950 1.378 . S
C4958 C4953 1.350 . S
C4959 H4946 0.929 . S
C4959 C4951 1.433 . S
C4959 N4961 1.384 . S
N4960 C4956 1.427 . S
N4960 C4957 1.384 . S
N4961 C4953 1.427 . S
N4961 C4959 1.384 . S
H4962 C4968 0.930 . S
H4963 C4972 0.930 . S
H4964 C4977 0.929 . S
H4965 C4975 0.929 . S
H4966 C4970 0.929 . S
H4967 C4976 0.929 . S
C4968 H4962 0.930 . S
C4968 C4969 1.367 . S
C4968 C4976 1.378 . S
C4969 C4968 1.367 . S
C4969 C4977 1.433 . S
C4970 H4966 0.929 . S
C4970 C4972 1.378 . S
C4970 C4974 1.350 . S
C4971 C4974 1.463 . S
C4971 C4976 1.350 . S
C4971 N4979 1.427 . S
C4972 H4963 0.930 . S
C4972 C4970 1.378 . S
C4972 C4973 1.367 . S
C4973 C4972 1.367 . S
C4973 C4975 1.433 . S
C4974 C4970 1.350 . S
C4974 C4971 1.463 . S
C4974 N4978 1.427 . S
C4975 H4965 0.929 . S
C4975 C4973 1.433 . S
C4975 N4978 1.384 . S
C4976 H4967 0.929 . S
C4976 C4968 1.378 . S
C4976 C4971 1.350 . S
C4977 H4964 0.929 . S
C4977 C4969 1.433 . S
C4977 N4979 1.384 . S
N4978 C4974 1.427 . S
N4978 C4975 1.384 . S
N4979 C4971 1.427 . S
N4979 C4977 1.384 . S
H4980 C4986 0.930 . S
H4981 C4990 0.930 . S
H4982 C4995 0.929 . S
H4983 C4993 0.929 . S
H4984 C4988 0.929 . S
H4985 C4994 0.929 . S
C4986 H4980 0.930 . S
C4986 C4987 1.367 . S
C4986 C4994 1.378 . S
C4987 C4986 1.367 . S
C4987 C4995 1.433 . S
C4988 H4984 0.929 . S
C4988 C4990 1.378 . S
C4988 C4992 1.350 . S
C4989 C4992 1.463 . S
C4989 C4994 1.350 . S
C4989 N4997 1.427 . S
C4990 H4981 0.930 . S
C4990 C4988 1.378 . S
C4990 C4991 1.367 . S
C4991 C4990 1.367 . S
C4991 C4993 1.433 . S
C4992 C4988 1.350 . S
C4992 C4989 1.463 . S
C4992 N4996 1.427 . S
C4993 H4983 0.929 . S
C4993 C4991 1.433 . S
C4993 N4996 1.384 . S
C4994 H4985 0.929 . S
C4994 C4986 1.378 . S
C4994 C4989 1.350 . S
C4995 H4982 0.929 . S
C4995 C4987 1.433 . S
C4995 N4997 1.384 . S
N4996 C4992 1.427 . S
N4996 C4993 1.384 . S
N4997 C4989 1.427 . S
N4997 C4995 1.384 . S
H4998 C5004 0.930 . S
H4999 C5008 0.930 . S
H5000 C5013 0.929 . S
H5001 C5011 0.929 . S
H5002 C5006 0.929 . S
H5003 C5012 0.929 . S
C5004 H4998 0.930 . S
C5004 C5005 1.367 . S
C5004 C5012 1.378 . S
C5005 C5004 1.367 . S
C5005 C5013 1.433 . S
C5006 H5002 0.929 . S
C5006 C5008 1.378 . S
C5006 C5010 1.350 . S
C5007 C5010 1.463 . S
C5007 C5012 1.350 . S
C5007 N5015 1.427 . S
C5008 H4999 0.930 . S
C5008 C5006 1.378 . S
C5008 C5009 1.367 . S
C5009 C5008 1.367 . S
C5009 C5011 1.433 . S
C5010 C5006 1.350 . S
C5010 C5007 1.463 . S
C5010 N5014 1.427 . S
C5011 H5001 0.929 . S
C5011 C5009 1.433 . S
C5011 N5014 1.384 . S
C5012 H5003 0.929 . S
C5012 C5004 1.378 . S
C5012 C5007 1.350 . S
C5013 H5000 0.929 . S
C5013 C5005 1.433 . S
C5013 N5015 1.384 . S
N5014 C5010 1.427 . S
N5014 C5011 1.384 . S
N5015 C5007 1.427 . S
N5015 C5013 1.384 . S
H5016 C5022 0.930 . S
H5017 C5026 0.930 . S
H5018 C5031 0.929 . S
H5019 C5029 0.956 . S
H5020 C5024 0.929 . S
H5021 C5030 0.929 . S
C5022 H5016 0.930 . S
C5022 C5023 1.367 . S
C5022 C5030 1.378 . S
C5023 C5022 1.367 . S
C5023 C5031 1.433 . S
C5024 H5020 0.929 . S
C5024 C5026 1.378 . S
C5024 C5028 1.350 . S
C5025 C5028 1.463 . S
C5025 C5030 1.350 . S
C5025 N5033 1.427 . S
C5026 H5017 0.930 . S
C5026 C5024 1.378 . S
C5026 C5027 1.367 . S
C5027 C5026 1.367 . S
C5027 C5029 1.433 . S
C5028 C5024 1.350 . S
C5028 C5025 1.463 . S
C5028 N5032 1.427 . S
C5029 H5019 0.956 . S
C5029 C5027 1.433 . S
C5029 N5032 1.384 . S
C5030 H5021 0.929 . S
C5030 C5022 1.378 . S
C5030 C5025 1.350 . S
C5031 H5018 0.929 . S
C5031 C5023 1.433 . S
C5031 N5033 1.384 . S
N5032 C5028 1.427 . S
N5032 C5029 1.384 . S
N5033 C5025 1.427 . S
N5033 C5031 1.384 . S
H5034 C5040 0.930 . S
H5035 C5044 0.930 . S
H5036 C5049 0.929 . S
H5037 C5047 0.929 . S
H5038 C5042 0.929 . S
H5039 C5048 0.929 . S
C5040 H5034 0.930 . S
C5040 C5041 1.367 . S
C5040 C5048 1.378 . S
C5041 C5040 1.367 . S
C5041 C5049 1.433 . S
C5042 H5038 0.929 . S
C5042 C5044 1.378 . S
C5042 C5046 1.350 . S
C5043 C5046 1.463 . S
C5043 C5048 1.350 . S
C5043 N5051 1.427 . S
C5044 H5035 0.930 . S
C5044 C5042 1.378 . S
C5044 C5045 1.367 . S
C5045 C5044 1.367 . S
C5045 C5047 1.433 . S
C5046 C5042 1.350 . S
C5046 C5043 1.463 . S
C5046 N5050 1.427 . S
C5047 H5037 0.929 . S
C5047 C5045 1.433 . S
C5047 N5050 1.384 . S
C5048 H5039 0.929 . S
C5048 C5040 1.378 . S
C5048 C5043 1.350 . S
C5049 H5036 0.929 . S
C5049 C5041 1.433 . S
C5049 N5051 1.384 . S
N5050 C5046 1.427 . S
N5050 C5047 1.384 . S
N5051 C5043 1.427 . S
N5051 C5049 1.384 . S
H5052 C5058 0.930 . S
H5053 C5062 0.930 . S
H5054 C5067 0.929 . S
H5055 C5065 0.929 . S
H5056 C5060 0.929 . S
H5057 C5066 0.929 . S
C5058 H5052 0.930 . S
C5058 C5059 1.367 . S
C5058 C5066 1.378 . S
C5059 C5058 1.367 . S
C5059 C5067 1.433 . S
C5060 H5056 0.929 . S
C5060 C5062 1.378 . S
C5060 C5064 1.350 . S
C5061 C5064 1.463 . S
C5061 C5066 1.350 . S
C5061 N5069 1.427 . S
C5062 H5053 0.930 . S
C5062 C5060 1.378 . S
C5062 C5063 1.367 . S
C5063 C5062 1.367 . S
C5063 C5065 1.433 . S
C5064 C5060 1.350 . S
C5064 C5061 1.463 . S
C5064 N5068 1.427 . S
C5065 H5055 0.929 . S
C5065 C5063 1.433 . S
C5065 N5068 1.384 . S
C5066 H5057 0.929 . S
C5066 C5058 1.378 . S
C5066 C5061 1.350 . S
C5067 H5054 0.929 . S
C5067 C5059 1.433 . S
C5067 N5069 1.384 . S
N5068 C5064 1.427 . S
N5068 C5065 1.384 . S
N5069 C5061 1.427 . S
N5069 C5067 1.384 . S
H5070 C5076 0.930 . S
H5071 C5080 0.930 . S
H5072 C5085 0.929 . S
H5073 C5083 0.929 . S
H5074 C5078 0.929 . S
H5075 C5084 0.929 . S
C5076 H5070 0.930 . S
C5076 C5077 1.367 . S
C5076 C5084 1.378 . S
C5077 C5076 1.367 . S
C5077 C5085 1.433 . S
C5078 H5074 0.929 . S
C5078 C5080 1.378 . S
C5078 C5082 1.350 . S
C5079 C5082 1.463 . S
C5079 C5084 1.350 . S
C5079 N5087 1.427 . S
C5080 H5071 0.930 . S
C5080 C5078 1.378 . S
C5080 C5081 1.367 . S
C5081 C5080 1.367 . S
C5081 C5083 1.433 . S
C5082 C5078 1.350 . S
C5082 C5079 1.463 . S
C5082 N5086 1.427 . S
C5083 H5073 0.929 . S
C5083 C5081 1.433 . S
C5083 N5086 1.384 . S
C5084 H5075 0.929 . S
C5084 C5076 1.378 . S
C5084 C5079 1.350 . S
C5085 H5072 0.929 . S
C5085 C5077 1.433 . S
C5085 N5087 1.384 . S
N5086 C5082 1.427 . S
N5086 C5083 1.384 . S
N5087 C5079 1.427 . S
N5087 C5085 1.384 . S
H5088 C5094 0.930 . S
H5089 C5098 0.930 . S
H5090 C5103 0.929 . S
H5091 C5101 0.929 . S
H5092 C5096 0.929 . S
H5093 C5102 0.929 . S
C5094 H5088 0.930 . S
C5094 C5095 1.367 . S
C5094 C5102 1.378 . S
C5095 C5094 1.367 . S
C5095 C5103 1.433 . S
C5096 H5092 0.929 . S
C5096 C5098 1.378 . S
C5096 C5100 1.350 . S
C5097 C5100 1.463 . S
C5097 C5102 1.350 . S
C5097 N5105 1.427 . S
C5098 H5089 0.930 . S
C5098 C5096 1.378 . S
C5098 C5099 1.367 . S
C5099 C5098 1.367 . S
C5099 C5101 1.433 . S
C5100 C5096 1.350 . S
C5100 C5097 1.463 . S
C5100 N5104 1.427 . S
C5101 H5091 0.929 . S
C5101 C5099 1.433 . S
C5101 N5104 1.384 . S
C5102 H5093 0.929 . S
C5102 C5094 1.378 . S
C5102 C5097 1.350 . S
C5103 H5090 0.929 . S
C5103 C5095 1.433 . S
C5103 N5105 1.384 . S
N5104 C5100 1.427 . S
N5104 C5101 1.384 . S
N5105 C5097 1.427 . S
N5105 C5103 1.384 . S
H5106 C5112 0.930 . S
H5107 C5116 0.930 . S
H5108 C5121 0.929 . S
H5109 C5119 0.929 . S
H5110 C5114 0.929 . S
H5111 C5120 0.929 . S
C5112 H5106 0.930 . S
C5112 C5113 1.367 . S
C5112 C5120 1.378 . S
C5113 C5112 1.367 . S
C5113 C5121 1.433 . S
C5114 H5110 0.929 . S
C5114 C5116 1.378 . S
C5114 C5118 1.350 . S
C5115 C5118 1.463 . S
C5115 C5120 1.350 . S
C5115 N5123 1.427 . S
C5116 H5107 0.930 . S
C5116 C5114 1.378 . S
C5116 C5117 1.367 . S
C5117 C5116 1.367 . S
C5117 C5119 1.433 . S
C5118 C5114 1.350 . S
C5118 C5115 1.463 . S
C5118 N5122 1.427 . S
C5119 H5109 0.929 . S
C5119 C5117 1.433 . S
C5119 N5122 1.384 . S
C5120 H5111 0.929 . S
C5120 C5112 1.378 . S
C5120 C5115 1.350 . S
C5121 H5108 0.929 . S
C5121 C5113 1.433 . S
C5121 N5123 1.384 . S
N5122 C5118 1.427 . S
N5122 C5119 1.384 . S
N5123 C5115 1.427 . S
N5123 C5121 1.384 . S
H5124 C5130 0.930 . S
H5125 C5134 0.921 1_455 S
H5126 C5139 0.929 . S
H5127 C5137 0.929 1_455 S
H5128 C5132 0.929 . S
H5129 C5138 0.929 . S
C5130 H5124 0.930 . S
C5130 C5131 1.367 . S
C5130 C5138 1.378 . S
C5131 C5130 1.367 . S
C5131 C5139 1.433 . S
C5132 H5128 0.929 . S
C5132 C5134 1.394 . S
C5132 C5136 1.350 . S
C5133 C5136 1.463 . S
C5133 C5138 1.350 . S
C5133 N5141 1.427 . S
C5134 H5125 0.921 1_655 S
C5134 C5132 1.394 . S
C5134 C5135 1.360 1_655 S
C5135 C5134 1.360 1_455 S
C5135 C5137 1.433 1_455 S
C5136 C5132 1.350 . S
C5136 C5133 1.463 . S
C5136 N5140 1.427 . S
C5137 H5127 0.929 1_655 S
C5137 C5135 1.433 1_655 S
C5137 N5140 1.384 . S
C5138 H5129 0.929 . S
C5138 C5130 1.378 . S
C5138 C5133 1.350 . S
C5139 H5126 0.929 . S
C5139 C5131 1.433 . S
C5139 N5141 1.384 . S
N5140 C5136 1.427 . S
N5140 C5137 1.384 . S
N5141 C5133 1.427 . S
N5141 C5139 1.384 . S
H5142 C5148 0.930 . S
H5143 C5152 0.930 . S
H5144 C5157 0.929 . S
H5145 C5155 0.929 . S
H5146 C5150 0.929 . S
H5147 C5156 0.929 . S
C5148 H5142 0.930 . S
C5148 C5149 1.367 . S
C5148 C5156 1.378 . S
C5149 C5148 1.367 . S
C5149 C5157 1.433 . S
C5150 H5146 0.929 . S
C5150 C5152 1.378 . S
C5150 C5154 1.350 . S
C5151 C5154 1.463 . S
C5151 C5156 1.350 . S
C5151 N5159 1.427 . S
C5152 H5143 0.930 . S
C5152 C5150 1.378 . S
C5152 C5153 1.367 . S
C5153 C5152 1.367 . S
C5153 C5155 1.433 . S
C5154 C5150 1.350 . S
C5154 C5151 1.463 . S
C5154 N5158 1.427 . S
C5155 H5145 0.929 . S
C5155 C5153 1.433 . S
C5155 N5158 1.384 . S
C5156 H5147 0.929 . S
C5156 C5148 1.378 . S
C5156 C5151 1.350 . S
C5157 H5144 0.929 . S
C5157 C5149 1.433 . S
C5157 N5159 1.384 . S
N5158 C5154 1.427 . S
N5158 C5155 1.384 . S
N5159 C5151 1.427 . S
N5159 C5157 1.384 . S
H5160 C5166 0.930 . S
H5161 C5170 0.930 . S
H5162 C5175 0.929 . S
H5163 C5173 0.929 . S
H5164 C5168 0.929 . S
H5165 C5174 0.929 . S
C5166 H5160 0.930 . S
C5166 C5167 1.367 . S
C5166 C5174 1.378 . S
C5167 C5166 1.367 . S
C5167 C5175 1.433 . S
C5168 H5164 0.929 . S
C5168 C5170 1.378 . S
C5168 C5172 1.350 . S
C5169 C5172 1.463 . S
C5169 C5174 1.350 . S
C5169 N5177 1.427 . S
C5170 H5161 0.930 . S
C5170 C5168 1.378 . S
C5170 C5171 1.367 . S
C5171 C5170 1.367 . S
C5171 C5173 1.433 . S
C5172 C5168 1.350 . S
C5172 C5169 1.463 . S
C5172 N5176 1.427 . S
C5173 H5163 0.929 . S
C5173 C5171 1.433 . S
C5173 N5176 1.384 . S
C5174 H5165 0.929 . S
C5174 C5166 1.378 . S
C5174 C5169 1.350 . S
C5175 H5162 0.929 . S
C5175 C5167 1.433 . S
C5175 N5177 1.384 . S
N5176 C5172 1.427 . S
N5176 C5173 1.384 . S
N5177 C5169 1.427 . S
N5177 C5175 1.384 . S
H5178 C5184 0.930 . S
H5179 C5188 0.930 . S
H5180 C5193 0.929 . S
H5181 C5191 0.929 . S
H5182 C5186 0.929 . S
H5183 C5192 0.929 . S
C5184 H5178 0.930 . S
C5184 C5185 1.367 . S
C5184 C5192 1.378 . S
C5185 C5184 1.367 . S
C5185 C5193 1.433 . S
C5186 H5182 0.929 . S
C5186 C5188 1.378 . S
C5186 C5190 1.350 . S
C5187 C5190 1.463 . S
C5187 C5192 1.350 . S
C5187 N5195 1.427 . S
C5188 H5179 0.930 . S
C5188 C5186 1.378 . S
C5188 C5189 1.367 . S
C5189 C5188 1.367 . S
C5189 C5191 1.433 . S
C5190 C5186 1.350 . S
C5190 C5187 1.463 . S
C5190 N5194 1.427 . S
C5191 H5181 0.929 . S
C5191 C5189 1.433 . S
C5191 N5194 1.384 . S
C5192 H5183 0.929 . S
C5192 C5184 1.378 . S
C5192 C5187 1.350 . S
C5193 H5180 0.929 . S
C5193 C5185 1.433 . S
C5193 N5195 1.384 . S
N5194 C5190 1.427 . S
N5194 C5191 1.384 . S
N5195 C5187 1.427 . S
N5195 C5193 1.384 . S
H5196 C5202 0.930 . S
H5197 C5206 0.930 1_455 S
H5198 C5211 0.929 . S
H5199 C5209 0.929 . S
H5200 C5204 0.929 . S
H5201 C5210 0.929 . S
C5202 H5196 0.930 . S
C5202 C5203 1.367 . S
C5202 C5210 1.378 . S
C5203 C5202 1.367 . S
C5203 C5211 1.433 . S
C5204 H5200 0.929 . S
C5204 C5206 1.378 . S
C5204 C5208 1.350 . S
C5205 C5208 1.463 . S
C5205 C5210 1.350 . S
C5205 N5213 1.427 . S
C5206 H5197 0.930 1_655 S
C5206 C5204 1.378 . S
C5206 C5207 1.358 1_655 S
C5207 C5206 1.358 1_455 S
C5207 C5209 1.418 1_455 S
C5208 C5204 1.350 . S
C5208 C5205 1.463 . S
C5208 N5212 1.427 . S
C5209 H5199 0.929 . S
C5209 C5207 1.418 1_655 S
C5209 N5212 1.384 . S
C5210 H5201 0.929 . S
C5210 C5202 1.378 . S
C5210 C5205 1.350 . S
C5211 H5198 0.929 . S
C5211 C5203 1.433 . S
C5211 N5213 1.384 . S
N5212 C5208 1.427 . S
N5212 C5209 1.384 . S
N5213 C5205 1.427 . S
N5213 C5211 1.384 . S
H5214 C5220 0.930 . S
H5215 C5224 0.930 . S
H5216 C5229 0.929 . S
H5217 C5227 0.929 . S
H5218 C5222 0.929 . S
H5219 C5228 0.929 . S
C5220 H5214 0.930 . S
C5220 C5221 1.367 . S
C5220 C5228 1.378 . S
C5221 C5220 1.367 . S
C5221 C5229 1.433 . S
C5222 H5218 0.929 . S
C5222 C5224 1.378 . S
C5222 C5226 1.350 . S
C5223 C5226 1.463 . S
C5223 C5228 1.350 . S
C5223 N5231 1.427 . S
C5224 H5215 0.930 . S
C5224 C5222 1.378 . S
C5224 C5225 1.367 . S
C5225 C5224 1.367 . S
C5225 C5227 1.433 . S
C5226 C5222 1.350 . S
C5226 C5223 1.463 . S
C5226 N5230 1.427 . S
C5227 H5217 0.929 . S
C5227 C5225 1.433 . S
C5227 N5230 1.384 . S
C5228 H5219 0.929 . S
C5228 C5220 1.378 . S
C5228 C5223 1.350 . S
C5229 H5216 0.929 . S
C5229 C5221 1.433 . S
C5229 N5231 1.384 . S
N5230 C5226 1.427 . S
N5230 C5227 1.384 . S
N5231 C5223 1.427 . S
N5231 C5229 1.384 . S
H5232 C5238 0.930 . S
H5233 C5242 0.930 . S
H5234 C5247 0.929 . S
H5235 C5245 0.929 . S
H5236 C5240 0.929 . S
H5237 C5246 0.929 . S
C5238 H5232 0.930 . S
C5238 C5239 1.367 . S
C5238 C5246 1.378 . S
C5239 C5238 1.367 . S
C5239 C5247 1.433 . S
C5240 H5236 0.929 . S
C5240 C5242 1.378 . S
C5240 C5244 1.350 . S
C5241 C5244 1.463 . S
C5241 C5246 1.350 . S
C5241 N5249 1.427 . S
C5242 H5233 0.930 . S
C5242 C5240 1.378 . S
C5242 C5243 1.367 . S
C5243 C5242 1.367 . S
C5243 C5245 1.433 . S
C5244 C5240 1.350 . S
C5244 C5241 1.463 . S
C5244 N5248 1.427 . S
C5245 H5235 0.929 . S
C5245 C5243 1.433 . S
C5245 N5248 1.384 . S
C5246 H5237 0.929 . S
C5246 C5238 1.378 . S
C5246 C5241 1.350 . S
C5247 H5234 0.929 . S
C5247 C5239 1.433 . S
C5247 N5249 1.384 . S
N5248 C5244 1.427 . S
N5248 C5245 1.384 . S
N5249 C5241 1.427 . S
N5249 C5247 1.384 . S
H5250 C5256 0.930 . S
H5251 C5260 0.930 1_545 S
H5252 C5265 0.929 . S
H5253 C5263 0.929 . S
H5254 C5258 0.929 . S
H5255 C5264 0.929 . S
C5256 H5250 0.930 . S
C5256 C5257 1.367 . S
C5256 C5264 1.378 . S
C5257 C5256 1.367 . S
C5257 C5265 1.433 . S
C5258 H5254 0.929 . S
C5258 C5260 1.378 . S
C5258 C5262 1.350 . S
C5259 C5262 1.463 . S
C5259 C5264 1.350 . S
C5259 N5267 1.427 . S
C5260 H5251 0.930 1_565 S
C5260 C5258 1.378 . S
C5260 C5261 1.367 1_565 S
C5261 C5260 1.367 1_545 S
C5261 C5263 1.433 1_545 S
C5262 C5258 1.350 . S
C5262 C5259 1.463 . S
C5262 N5266 1.427 . S
C5263 H5253 0.929 . S
C5263 C5261 1.433 1_565 S
C5263 N5266 1.384 . S
C5264 H5255 0.929 . S
C5264 C5256 1.378 . S
C5264 C5259 1.350 . S
C5265 H5252 0.929 . S
C5265 C5257 1.433 . S
C5265 N5267 1.384 . S
N5266 C5262 1.427 . S
N5266 C5263 1.384 . S
N5267 C5259 1.427 . S
N5267 C5265 1.384 . S
H5268 C5274 0.930 . S
H5269 C5278 0.930 . S
H5270 C5283 0.929 . S
H5271 C5281 0.929 . S
H5272 C5276 0.929 . S
H5273 C5282 0.929 . S
C5274 H5268 0.930 . S
C5274 C5275 1.367 . S
C5274 C5282 1.378 . S
C5275 C5274 1.367 . S
C5275 C5283 1.433 . S
C5276 H5272 0.929 . S
C5276 C5278 1.378 . S
C5276 C5280 1.350 . S
C5277 C5280 1.463 . S
C5277 C5282 1.350 . S
C5277 N5285 1.427 . S
C5278 H5269 0.930 . S
C5278 C5276 1.378 . S
C5278 C5279 1.367 . S
C5279 C5278 1.367 . S
C5279 C5281 1.433 . S
C5280 C5276 1.350 . S
C5280 C5277 1.463 . S
C5280 N5284 1.427 . S
C5281 H5271 0.929 . S
C5281 C5279 1.433 . S
C5281 N5284 1.384 . S
C5282 H5273 0.929 . S
C5282 C5274 1.378 . S
C5282 C5277 1.350 . S
C5283 H5270 0.929 . S
C5283 C5275 1.433 . S
C5283 N5285 1.384 . S
N5284 C5280 1.427 . S
N5284 C5281 1.384 . S
N5285 C5277 1.427 . S
N5285 C5283 1.384 . S
H5286 C5292 0.930 . S
H5287 C5296 0.930 . S
H5288 C5301 0.929 . S
H5289 C5299 0.929 . S
H5290 C5294 0.929 . S
H5291 C5300 0.929 . S
C5292 H5286 0.930 . S
C5292 C5293 1.367 . S
C5292 C5300 1.378 . S
C5293 C5292 1.367 . S
C5293 C5301 1.433 . S
C5294 H5290 0.929 . S
C5294 C5296 1.378 1_545 S
C5294 C5298 1.350 . S
C5295 C5298 1.463 . S
C5295 C5300 1.350 . S
C5295 N5303 1.427 . S
C5296 H5287 0.930 . S
C5296 C5294 1.378 1_565 S
C5296 C5297 1.367 . S
C5297 C5296 1.367 . S
C5297 C5299 1.433 . S
C5298 C5294 1.350 . S
C5298 C5295 1.463 . S
C5298 N5302 1.427 . S
C5299 H5289 0.929 . S
C5299 C5297 1.433 . S
C5299 N5302 1.384 1_565 S
C5300 H5291 0.929 . S
C5300 C5292 1.378 . S
C5300 C5295 1.350 . S
C5301 H5288 0.929 . S
C5301 C5293 1.433 . S
C5301 N5303 1.384 . S
N5302 C5298 1.427 . S
N5302 C5299 1.384 1_545 S
N5303 C5295 1.427 . S
N5303 C5301 1.384 . S
H5304 C5310 0.930 . S
H5305 C5314 0.930 . S
H5306 C5319 0.929 . S
H5307 C5317 0.929 . S
H5308 C5312 0.929 . S
H5309 C5318 0.929 . S
C5310 H5304 0.930 . S
C5310 C5311 1.367 . S
C5310 C5318 1.378 . S
C5311 C5310 1.367 . S
C5311 C5319 1.433 . S
C5312 H5308 0.929 . S
C5312 C5314 1.378 . S
C5312 C5316 1.350 . S
C5313 C5316 1.463 . S
C5313 C5318 1.350 . S
C5313 N5321 1.427 . S
C5314 H5305 0.930 . S
C5314 C5312 1.378 . S
C5314 C5315 1.367 . S
C5315 C5314 1.367 . S
C5315 C5317 1.433 . S
C5316 C5312 1.350 . S
C5316 C5313 1.463 . S
C5316 N5320 1.427 . S
C5317 H5307 0.929 . S
C5317 C5315 1.433 . S
C5317 N5320 1.384 . S
C5318 H5309 0.929 . S
C5318 C5310 1.378 . S
C5318 C5313 1.350 . S
C5319 H5306 0.929 . S
C5319 C5311 1.433 . S
C5319 N5321 1.384 . S
N5320 C5316 1.427 . S
N5320 C5317 1.384 . S
N5321 C5313 1.427 . S
N5321 C5319 1.384 . S
H5322 C5328 0.930 . S
H5323 C5332 0.930 . S
H5324 C5337 0.929 . S
H5325 C5335 0.929 . S
H5326 C5330 0.929 . S
H5327 C5336 0.929 . S
C5328 H5322 0.930 . S
C5328 C5329 1.367 . S
C5328 C5336 1.378 . S
C5329 C5328 1.367 . S
C5329 C5337 1.433 . S
C5330 H5326 0.929 . S
C5330 C5332 1.378 . S
C5330 C5334 1.350 . S
C5331 C5334 1.463 . S
C5331 C5336 1.350 . S
C5331 N5339 1.427 . S
C5332 H5323 0.930 . S
C5332 C5330 1.378 . S
C5332 C5333 1.367 . S
C5333 C5332 1.367 . S
C5333 C5335 1.433 . S
C5334 C5330 1.350 . S
C5334 C5331 1.463 . S
C5334 N5338 1.427 . S
C5335 H5325 0.929 . S
C5335 C5333 1.433 . S
C5335 N5338 1.384 . S
C5336 H5327 0.929 . S
C5336 C5328 1.378 . S
C5336 C5331 1.350 . S
C5337 H5324 0.929 . S
C5337 C5329 1.433 . S
C5337 N5339 1.384 . S
N5338 C5334 1.427 . S
N5338 C5335 1.384 . S
N5339 C5331 1.427 . S
N5339 C5337 1.384 . S
H5340 C5346 0.930 . S
H5341 C5350 0.930 . S
H5342 C5355 0.929 . S
H5343 C5353 0.929 . S
H5344 C5348 0.929 . S
H5345 C5354 0.929 . S
C5346 H5340 0.930 . S
C5346 C5347 1.367 . S
C5346 C5354 1.378 . S
C5347 C5346 1.367 . S
C5347 C5355 1.433 . S
C5348 H5344 0.929 . S
C5348 C5350 1.378 . S
C5348 C5352 1.350 . S
C5349 C5352 1.463 . S
C5349 C5354 1.350 . S
C5349 N5357 1.427 . S
C5350 H5341 0.930 . S
C5350 C5348 1.378 . S
C5350 C5351 1.367 . S
C5351 C5350 1.367 . S
C5351 C5353 1.433 . S
C5352 C5348 1.350 . S
C5352 C5349 1.463 . S
C5352 N5356 1.427 . S
C5353 H5343 0.929 . S
C5353 C5351 1.433 . S
C5353 N5356 1.384 . S
C5354 H5345 0.929 . S
C5354 C5346 1.378 . S
C5354 C5349 1.350 . S
C5355 H5342 0.929 . S
C5355 C5347 1.433 . S
C5355 N5357 1.384 . S
N5356 C5352 1.427 . S
N5356 C5353 1.384 . S
N5357 C5349 1.427 . S
N5357 C5355 1.384 . S
H5358 C5364 0.930 . S
H5359 C5368 0.930 . S
H5360 C5373 0.929 . S
H5361 C5371 0.929 . S
H5362 C5366 0.929 . S
H5363 C5372 0.929 . S
C5364 H5358 0.930 . S
C5364 C5365 1.367 . S
C5364 C5372 1.378 . S
C5365 C5364 1.367 . S
C5365 C5373 1.433 . S
C5366 H5362 0.929 . S
C5366 C5368 1.378 . S
C5366 C5370 1.350 . S
C5367 C5370 1.463 . S
C5367 C5372 1.350 . S
C5367 N5375 1.427 . S
C5368 H5359 0.930 . S
C5368 C5366 1.378 . S
C5368 C5369 1.367 . S
C5369 C5368 1.367 . S
C5369 C5371 1.433 . S
C5370 C5366 1.350 . S
C5370 C5367 1.463 . S
C5370 N5374 1.427 . S
C5371 H5361 0.929 . S
C5371 C5369 1.433 . S
C5371 N5374 1.384 . S
C5372 H5363 0.929 . S
C5372 C5364 1.378 . S
C5372 C5367 1.350 . S
C5373 H5360 0.929 . S
C5373 C5365 1.433 . S
C5373 N5375 1.384 . S
N5374 C5370 1.427 . S
N5374 C5371 1.384 . S
N5375 C5367 1.427 . S
N5375 C5373 1.384 . S
H5376 C5382 0.960 . S
H5377 C5386 0.930 . S
H5378 C5391 0.917 1_554 S
H5379 C5389 0.929 . S
H5380 C5384 0.929 . S
H5381 C5390 0.929 . S
C5382 H5376 0.960 . S
C5382 C5383 1.383 . S
C5382 C5390 1.333 1_554 S
C5383 C5382 1.383 . S
C5383 C5391 1.433 1_554 S
C5384 H5380 0.929 . S
C5384 C5386 1.378 . S
C5384 C5388 1.350 . S
C5385 C5388 1.463 . S
C5385 C5390 1.350 . S
C5385 N5393 1.427 . S
C5386 H5377 0.930 . S
C5386 C5384 1.378 . S
C5386 C5387 1.367 . S
C5387 C5386 1.367 . S
C5387 C5389 1.433 . S
C5388 C5384 1.350 . S
C5388 C5385 1.463 . S
C5388 N5392 1.427 . S
C5389 H5379 0.929 . S
C5389 C5387 1.433 . S
C5389 N5392 1.384 . S
C5390 H5381 0.929 . S
C5390 C5382 1.333 1_556 S
C5390 C5385 1.350 . S
C5391 H5378 0.917 1_556 S
C5391 C5383 1.433 1_556 S
C5391 N5393 1.384 . S
N5392 C5388 1.427 . S
N5392 C5389 1.384 . S
N5393 C5385 1.427 . S
N5393 C5391 1.384 . S
H5394 C5400 0.930 . S
H5395 C5404 0.930 . S
H5396 C5409 0.929 . S
H5397 C5407 0.929 . S
H5398 C5402 0.929 . S
H5399 C5408 0.929 . S
C5400 H5394 0.930 . S
C5400 C5401 1.367 . S
C5400 C5408 1.378 . S
C5401 C5400 1.367 . S
C5401 C5409 1.433 . S
C5402 H5398 0.929 . S
C5402 C5404 1.378 . S
C5402 C5406 1.350 . S
C5403 C5406 1.463 . S
C5403 C5408 1.350 . S
C5403 N5411 1.427 . S
C5404 H5395 0.930 . S
C5404 C5402 1.378 . S
C5404 C5405 1.367 . S
C5405 C5404 1.367 . S
C5405 C5407 1.433 . S
C5406 C5402 1.350 . S
C5406 C5403 1.463 . S
C5406 N5410 1.427 . S
C5407 H5397 0.929 . S
C5407 C5405 1.433 . S
C5407 N5410 1.384 . S
C5408 H5399 0.929 . S
C5408 C5400 1.378 . S
C5408 C5403 1.350 . S
C5409 H5396 0.929 . S
C5409 C5401 1.433 . S
C5409 N5411 1.384 . S
N5410 C5406 1.427 . S
N5410 C5407 1.384 . S
N5411 C5403 1.427 . S
N5411 C5409 1.384 . S
H5412 C5418 0.930 . S
H5413 C5422 0.930 . S
H5414 C5427 0.929 . S
H5415 C5425 0.929 . S
H5416 C5420 0.929 . S
H5417 C5426 0.929 . S
C5418 H5412 0.930 . S
C5418 C5419 1.367 . S
C5418 C5426 1.378 . S
C5419 C5418 1.367 . S
C5419 C5427 1.433 . S
C5420 H5416 0.929 . S
C5420 C5422 1.378 . S
C5420 C5424 1.350 . S
C5421 C5424 1.463 . S
C5421 C5426 1.350 . S
C5421 N5429 1.427 . S
C5422 H5413 0.930 . S
C5422 C5420 1.378 . S
C5422 C5423 1.367 . S
C5423 C5422 1.367 . S
C5423 C5425 1.433 . S
C5424 C5420 1.350 . S
C5424 C5421 1.463 . S
C5424 N5428 1.427 . S
C5425 H5415 0.929 . S
C5425 C5423 1.433 . S
C5425 N5428 1.384 . S
C5426 H5417 0.929 . S
C5426 C5418 1.378 . S
C5426 C5421 1.350 . S
C5427 H5414 0.929 . S
C5427 C5419 1.433 . S
C5427 N5429 1.384 . S
N5428 C5424 1.427 . S
N5428 C5425 1.384 . S
N5429 C5421 1.427 . S
N5429 C5427 1.384 . S
H5430 C5436 0.930 . S
H5431 C5440 0.930 . S
H5432 C5445 0.929 . S
H5433 C5443 0.929 . S
H5434 C5438 0.929 . S
H5435 C5444 0.929 . S
C5436 H5430 0.930 . S
C5436 C5437 1.367 . S
C5436 C5444 1.378 . S
C5437 C5436 1.367 . S
C5437 C5445 1.433 . S
C5438 H5434 0.929 . S
C5438 C5440 1.378 . S
C5438 C5442 1.350 . S
C5439 C5442 1.463 . S
C5439 C5444 1.350 . S
C5439 N5447 1.427 . S
C5440 H5431 0.930 . S
C5440 C5438 1.378 . S
C5440 C5441 1.367 . S
C5441 C5440 1.367 . S
C5441 C5443 1.433 . S
C5442 C5438 1.350 . S
C5442 C5439 1.463 . S
C5442 N5446 1.427 . S
C5443 H5433 0.929 . S
C5443 C5441 1.433 . S
C5443 N5446 1.384 . S
C5444 H5435 0.929 . S
C5444 C5436 1.378 . S
C5444 C5439 1.350 . S
C5445 H5432 0.929 . S
C5445 C5437 1.433 . S
C5445 N5447 1.384 . S
N5446 C5442 1.427 . S
N5446 C5443 1.384 . S
N5447 C5439 1.427 . S
N5447 C5445 1.384 . S
H5448 C5454 0.930 . S
H5449 C5458 0.930 . S
H5450 C5463 0.929 . S
H5451 C5461 0.929 . S
H5452 C5456 0.929 . S
H5453 C5462 0.929 . S
C5454 H5448 0.930 . S
C5454 C5455 1.367 . S
C5454 C5462 1.378 . S
C5455 C5454 1.367 . S
C5455 C5463 1.433 . S
C5456 H5452 0.929 . S
C5456 C5458 1.378 . S
C5456 C5460 1.350 . S
C5457 C5460 1.463 . S
C5457 C5462 1.350 . S
C5457 N5465 1.427 . S
C5458 H5449 0.930 . S
C5458 C5456 1.378 . S
C5458 C5459 1.367 . S
C5459 C5458 1.367 . S
C5459 C5461 1.433 . S
C5460 C5456 1.350 . S
C5460 C5457 1.463 . S
C5460 N5464 1.427 . S
C5461 H5451 0.929 . S
C5461 C5459 1.433 . S
C5461 N5464 1.384 . S
C5462 H5453 0.929 . S
C5462 C5454 1.378 . S
C5462 C5457 1.350 . S
C5463 H5450 0.929 . S
C5463 C5455 1.433 . S
C5463 N5465 1.384 . S
N5464 C5460 1.427 . S
N5464 C5461 1.384 . S
N5465 C5457 1.427 . S
N5465 C5463 1.384 . S
H5466 C5472 0.930 . S
H5467 C5476 0.930 . S
H5468 C5481 0.929 . S
H5469 C5479 0.929 . S
H5470 C5474 0.929 . S
H5471 C5480 0.929 . S
C5472 H5466 0.930 . S
C5472 C5473 1.367 . S
C5472 C5480 1.378 . S
C5473 C5472 1.367 . S
C5473 C5481 1.433 . S
C5474 H5470 0.929 . S
C5474 C5476 1.378 . S
C5474 C5478 1.350 . S
C5475 C5478 1.463 . S
C5475 C5480 1.350 . S
C5475 N5483 1.427 . S
C5476 H5467 0.930 . S
C5476 C5474 1.378 . S
C5476 C5477 1.367 . S
C5477 C5476 1.367 . S
C5477 C5479 1.433 . S
C5478 C5474 1.350 . S
C5478 C5475 1.463 . S
C5478 N5482 1.427 . S
C5479 H5469 0.929 . S
C5479 C5477 1.433 . S
C5479 N5482 1.384 . S
C5480 H5471 0.929 . S
C5480 C5472 1.378 . S
C5480 C5475 1.350 . S
C5481 H5468 0.929 . S
C5481 C5473 1.433 . S
C5481 N5483 1.384 . S
N5482 C5478 1.427 . S
N5482 C5479 1.384 . S
N5483 C5475 1.427 . S
N5483 C5481 1.384 . S
H5484 C5490 0.930 . S
H5485 C5494 0.930 . S
H5486 C5499 0.926 1_556 S
H5487 C5497 0.929 . S
H5488 C5492 0.929 . S
H5489 C5498 0.929 . S
C5490 H5484 0.930 . S
C5490 C5491 1.367 . S
C5490 C5498 1.378 1_556 S
C5491 C5490 1.367 . S
C5491 C5499 1.430 1_556 S
C5492 H5488 0.929 . S
C5492 C5494 1.378 . S
C5492 C5496 1.350 . S
C5493 C5496 1.463 . S
C5493 C5498 1.350 . S
C5493 N5501 1.427 . S
C5494 H5485 0.930 . S
C5494 C5492 1.378 . S
C5494 C5495 1.367 . S
C5495 C5494 1.367 . S
C5495 C5497 1.433 . S
C5496 C5492 1.350 . S
C5496 C5493 1.463 . S
C5496 N5500 1.427 . S
C5497 H5487 0.929 . S
C5497 C5495 1.433 . S
C5497 N5500 1.384 . S
C5498 H5489 0.929 . S
C5498 C5490 1.378 1_554 S
C5498 C5493 1.350 . S
C5499 H5486 0.926 1_554 S
C5499 C5491 1.430 1_554 S
C5499 N5501 1.390 . S
N5500 C5496 1.427 . S
N5500 C5497 1.384 . S
N5501 C5493 1.427 . S
N5501 C5499 1.390 . S
H5502 C5508 0.930 . S
H5503 C5512 0.930 . S
H5504 C5517 0.929 . S
H5505 C5515 0.929 . S
H5506 C5510 0.929 . S
H5507 C5516 0.929 . S
C5508 H5502 0.930 . S
C5508 C5509 1.367 . S
C5508 C5516 1.378 . S
C5509 C5508 1.367 . S
C5509 C5517 1.433 . S
C5510 H5506 0.929 . S
C5510 C5512 1.378 . S
C5510 C5514 1.350 . S
C5511 C5514 1.463 . S
C5511 C5516 1.350 . S
C5511 N5519 1.427 . S
C5512 H5503 0.930 . S
C5512 C5510 1.378 . S
C5512 C5513 1.367 . S
C5513 C5512 1.367 . S
C5513 C5515 1.433 . S
C5514 C5510 1.350 . S
C5514 C5511 1.463 . S
C5514 N5518 1.427 . S
C5515 H5505 0.929 . S
C5515 C5513 1.433 . S
C5515 N5518 1.384 . S
C5516 H5507 0.929 . S
C5516 C5508 1.378 . S
C5516 C5511 1.350 . S
C5517 H5504 0.929 . S
C5517 C5509 1.433 . S
C5517 N5519 1.384 . S
N5518 C5514 1.427 . S
N5518 C5515 1.384 . S
N5519 C5511 1.427 . S
N5519 C5517 1.384 . S
H5520 C5526 0.930 . S
H5521 C5530 0.930 . S
H5522 C5535 0.929 . S
H5523 C5533 0.929 . S
H5524 C5528 0.929 . S
H5525 C5534 0.929 . S
C5526 H5520 0.930 . S
C5526 C5527 1.367 . S
C5526 C5534 1.378 . S
C5527 C5526 1.367 . S
C5527 C5535 1.433 . S
C5528 H5524 0.929 . S
C5528 C5530 1.378 . S
C5528 C5532 1.350 . S
C5529 C5532 1.463 . S
C5529 C5534 1.350 . S
C5529 N5537 1.427 . S
C5530 H5521 0.930 . S
C5530 C5528 1.378 . S
C5530 C5531 1.367 . S
C5531 C5530 1.367 . S
C5531 C5533 1.433 . S
C5532 C5528 1.350 . S
C5532 C5529 1.463 . S
C5532 N5536 1.427 . S
C5533 H5523 0.929 . S
C5533 C5531 1.433 . S
C5533 N5536 1.384 . S
C5534 H5525 0.929 . S
C5534 C5526 1.378 . S
C5534 C5529 1.350 . S
C5535 H5522 0.929 . S
C5535 C5527 1.433 . S
C5535 N5537 1.384 . S
N5536 C5532 1.427 . S
N5536 C5533 1.384 . S
N5537 C5529 1.427 . S
N5537 C5535 1.384 . S
H5538 C5544 0.930 . S
H5539 C5548 0.930 . S
H5540 C5553 0.929 . S
H5541 C5551 0.929 . S
H5542 C5546 0.929 . S
H5543 C5552 0.929 . S
C5544 H5538 0.930 . S
C5544 C5545 1.367 . S
C5544 C5552 1.378 . S
C5545 C5544 1.367 . S
C5545 C5553 1.433 . S
C5546 H5542 0.929 . S
C5546 C5548 1.378 . S
C5546 C5550 1.350 . S
C5547 C5550 1.463 . S
C5547 C5552 1.350 . S
C5547 N5555 1.427 . S
C5548 H5539 0.930 . S
C5548 C5546 1.378 . S
C5548 C5549 1.367 . S
C5549 C5548 1.367 . S
C5549 C5551 1.433 . S
C5550 C5546 1.350 . S
C5550 C5547 1.463 . S
C5550 N5554 1.427 . S
C5551 H5541 0.929 . S
C5551 C5549 1.433 . S
C5551 N5554 1.384 . S
C5552 H5543 0.929 . S
C5552 C5544 1.378 . S
C5552 C5547 1.350 . S
C5553 H5540 0.929 . S
C5553 C5545 1.433 . S
C5553 N5555 1.384 . S
N5554 C5550 1.427 . S
N5554 C5551 1.384 . S
N5555 C5547 1.427 . S
N5555 C5553 1.384 . S
H5556 C5562 0.930 . S
H5557 C5566 0.930 . S
H5558 C5571 0.929 . S
H5559 C5569 0.929 . S
H5560 C5564 0.929 . S
H5561 C5570 0.929 . S
C5562 H5556 0.930 . S
C5562 C5563 1.367 . S
C5562 C5570 1.378 . S
C5563 C5562 1.367 . S
C5563 C5571 1.433 . S
C5564 H5560 0.929 . S
C5564 C5566 1.378 . S
C5564 C5568 1.350 . S
C5565 C5568 1.463 . S
C5565 C5570 1.350 . S
C5565 N5573 1.427 . S
C5566 H5557 0.930 . S
C5566 C5564 1.378 . S
C5566 C5567 1.367 . S
C5567 C5566 1.367 . S
C5567 C5569 1.433 . S
C5568 C5564 1.350 . S
C5568 C5565 1.463 . S
C5568 N5572 1.427 . S
C5569 H5559 0.929 . S
C5569 C5567 1.433 . S
C5569 N5572 1.384 . S
C5570 H5561 0.929 . S
C5570 C5562 1.378 . S
C5570 C5565 1.350 . S
C5571 H5558 0.929 . S
C5571 C5563 1.433 . S
C5571 N5573 1.384 . S
N5572 C5568 1.427 . S
N5572 C5569 1.384 . S
N5573 C5565 1.427 . S
N5573 C5571 1.384 . S
H5574 C5580 0.930 . S
H5575 C5584 0.930 . S
H5576 C5589 0.929 . S
H5577 C5587 0.929 . S
H5578 C5582 0.929 . S
H5579 C5588 0.929 . S
C5580 H5574 0.930 . S
C5580 C5581 1.367 . S
C5580 C5588 1.378 . S
C5581 C5580 1.367 . S
C5581 C5589 1.433 . S
C5582 H5578 0.929 . S
C5582 C5584 1.378 . S
C5582 C5586 1.350 . S
C5583 C5586 1.463 . S
C5583 C5588 1.350 . S
C5583 N5591 1.427 . S
C5584 H5575 0.930 . S
C5584 C5582 1.378 . S
C5584 C5585 1.367 . S
C5585 C5584 1.367 . S
C5585 C5587 1.433 . S
C5586 C5582 1.350 . S
C5586 C5583 1.463 . S
C5586 N5590 1.427 . S
C5587 H5577 0.929 . S
C5587 C5585 1.433 . S
C5587 N5590 1.384 . S
C5588 H5579 0.929 . S
C5588 C5580 1.378 . S
C5588 C5583 1.350 . S
C5589 H5576 0.929 . S
C5589 C5581 1.433 . S
C5589 N5591 1.384 . S
N5590 C5586 1.427 . S
N5590 C5587 1.384 . S
N5591 C5583 1.427 . S
N5591 C5589 1.384 . S
H5592 C5598 0.930 . S
H5593 C5602 0.930 1_455 S
H5594 C5607 0.929 . S
H5595 C5605 0.929 . S
H5596 C5600 0.929 . S
H5597 C5606 0.929 . S
C5598 H5592 0.930 . S
C5598 C5599 1.367 . S
C5598 C5606 1.378 . S
C5599 C5598 1.367 . S
C5599 C5607 1.433 . S
C5600 H5596 0.929 . S
C5600 C5602 1.378 . S
C5600 C5604 1.350 . S
C5601 C5604 1.463 . S
C5601 C5606 1.350 . S
C5601 N5609 1.427 . S
C5602 H5593 0.930 1_655 S
C5602 C5600 1.378 . S
C5602 C5603 1.367 1_655 S
C5603 C5602 1.367 1_455 S
C5603 C5605 1.433 1_455 S
C5604 C5600 1.350 . S
C5604 C5601 1.463 . S
C5604 N5608 1.427 . S
C5605 H5595 0.929 . S
C5605 C5603 1.433 1_655 S
C5605 N5608 1.384 . S
C5606 H5597 0.929 . S
C5606 C5598 1.378 . S
C5606 C5601 1.350 . S
C5607 H5594 0.929 . S
C5607 C5599 1.433 . S
C5607 N5609 1.384 . S
N5608 C5604 1.427 . S
N5608 C5605 1.384 . S
N5609 C5601 1.427 . S
N5609 C5607 1.384 . S
H5610 C5616 0.930 . S
H5611 C5620 0.930 . S
H5612 C5625 0.929 . S
H5613 C5623 0.929 . S
H5614 C5618 0.929 . S
H5615 C5624 0.929 . S
C5616 H5610 0.930 . S
C5616 C5617 1.367 . S
C5616 C5624 1.378 . S
C5617 C5616 1.367 . S
C5617 C5625 1.433 . S
C5618 H5614 0.929 . S
C5618 C5620 1.378 . S
C5618 C5622 1.350 . S
C5619 C5622 1.463 . S
C5619 C5624 1.350 . S
C5619 N5627 1.427 . S
C5620 H5611 0.930 . S
C5620 C5618 1.378 . S
C5620 C5621 1.367 . S
C5621 C5620 1.367 . S
C5621 C5623 1.433 . S
C5622 C5618 1.350 . S
C5622 C5619 1.463 . S
C5622 N5626 1.427 . S
C5623 H5613 0.929 . S
C5623 C5621 1.433 . S
C5623 N5626 1.384 . S
C5624 H5615 0.929 . S
C5624 C5616 1.378 . S
C5624 C5619 1.350 . S
C5625 H5612 0.929 . S
C5625 C5617 1.433 . S
C5625 N5627 1.384 . S
N5626 C5622 1.427 . S
N5626 C5623 1.384 . S
N5627 C5619 1.427 . S
N5627 C5625 1.384 . S
H5628 C5634 0.930 . S
H5629 C5638 0.930 . S
H5630 C5643 0.929 . S
H5631 C5641 0.929 . S
H5632 C5636 0.929 . S
H5633 C5642 0.929 . S
C5634 H5628 0.930 . S
C5634 C5635 1.367 . S
C5634 C5642 1.378 . S
C5635 C5634 1.367 . S
C5635 C5643 1.433 . S
C5636 H5632 0.929 . S
C5636 C5638 1.378 . S
C5636 C5640 1.350 . S
C5637 C5640 1.463 . S
C5637 C5642 1.350 . S
C5637 N5645 1.427 . S
C5638 H5629 0.930 . S
C5638 C5636 1.378 . S
C5638 C5639 1.367 . S
C5639 C5638 1.367 . S
C5639 C5641 1.433 . S
C5640 C5636 1.350 . S
C5640 C5637 1.463 . S
C5640 N5644 1.427 . S
C5641 H5631 0.929 . S
C5641 C5639 1.433 . S
C5641 N5644 1.384 . S
C5642 H5633 0.929 . S
C5642 C5634 1.378 . S
C5642 C5637 1.350 . S
C5643 H5630 0.929 . S
C5643 C5635 1.433 . S
C5643 N5645 1.384 . S
N5644 C5640 1.427 . S
N5644 C5641 1.384 . S
N5645 C5637 1.427 . S
N5645 C5643 1.384 . S
H5646 C5652 0.930 . S
H5647 C5656 0.930 . S
H5648 C5661 0.929 . S
H5649 C5659 0.929 . S
H5650 C5654 0.929 . S
H5651 C5660 0.929 . S
C5652 H5646 0.930 . S
C5652 C5653 1.367 . S
C5652 C5660 1.378 . S
C5653 C5652 1.367 . S
C5653 C5661 1.433 . S
C5654 H5650 0.929 . S
C5654 C5656 1.378 . S
C5654 C5658 1.350 . S
C5655 C5658 1.463 . S
C5655 C5660 1.350 . S
C5655 N5663 1.427 . S
C5656 H5647 0.930 . S
C5656 C5654 1.378 . S
C5656 C5657 1.367 . S
C5657 C5656 1.367 . S
C5657 C5659 1.433 . S
C5658 C5654 1.350 . S
C5658 C5655 1.463 . S
C5658 N5662 1.427 . S
C5659 H5649 0.929 . S
C5659 C5657 1.433 . S
C5659 N5662 1.384 . S
C5660 H5651 0.929 . S
C5660 C5652 1.378 . S
C5660 C5655 1.350 . S
C5661 H5648 0.929 . S
C5661 C5653 1.433 . S
C5661 N5663 1.384 . S
N5662 C5658 1.427 . S
N5662 C5659 1.384 . S
N5663 C5655 1.427 . S
N5663 C5661 1.384 . S
H5664 C5670 0.930 1_545 S
H5665 C5674 0.930 . S
H5666 C5679 0.929 . S
H5667 C5677 0.929 . S
H5668 C5672 0.929 . S
H5669 C5678 0.929 . S
C5670 H5664 0.930 1_565 S
C5670 C5671 1.367 1_565 S
C5670 C5678 1.378 . S
C5671 C5670 1.367 1_545 S
C5671 C5679 1.433 . S
C5672 H5668 0.929 . S
C5672 C5674 1.378 . S
C5672 C5676 1.350 . S
C5673 C5676 1.463 . S
C5673 C5678 1.350 . S
C5673 N5681 1.427 . S
C5674 H5665 0.930 . S
C5674 C5672 1.378 . S
C5674 C5675 1.367 . S
C5675 C5674 1.367 . S
C5675 C5677 1.433 . S
C5676 C5672 1.350 . S
C5676 C5673 1.463 . S
C5676 N5680 1.427 . S
C5677 H5667 0.929 . S
C5677 C5675 1.433 . S
C5677 N5680 1.384 . S
C5678 H5669 0.929 . S
C5678 C5670 1.378 . S
C5678 C5673 1.350 . S
C5679 H5666 0.929 . S
C5679 C5671 1.433 . S
C5679 N5681 1.384 1_545 S
N5680 C5676 1.427 . S
N5680 C5677 1.384 . S
N5681 C5673 1.427 . S
N5681 C5679 1.384 1_565 S
H5682 C5688 0.930 . S
H5683 C5692 0.930 . S
H5684 C5697 0.929 . S
H5685 C5695 0.929 . S
H5686 C5690 0.929 . S
H5687 C5696 0.929 . S
C5688 H5682 0.930 . S
C5688 C5689 1.367 . S
C5688 C5696 1.378 . S
C5689 C5688 1.367 . S
C5689 C5697 1.433 . S
C5690 H5686 0.929 . S
C5690 C5692 1.378 . S
C5690 C5694 1.350 . S
C5691 C5694 1.463 . S
C5691 C5696 1.350 . S
C5691 N5699 1.427 . S
C5692 H5683 0.930 . S
C5692 C5690 1.378 . S
C5692 C5693 1.367 . S
C5693 C5692 1.367 . S
C5693 C5695 1.433 . S
C5694 C5690 1.350 . S
C5694 C5691 1.463 . S
C5694 N5698 1.427 . S
C5695 H5685 0.929 . S
C5695 C5693 1.433 . S
C5695 N5698 1.384 . S
C5696 H5687 0.929 . S
C5696 C5688 1.378 . S
C5696 C5691 1.350 . S
C5697 H5684 0.929 . S
C5697 C5689 1.433 . S
C5697 N5699 1.384 . S
N5698 C5694 1.427 . S
N5698 C5695 1.384 . S
N5699 C5691 1.427 . S
N5699 C5697 1.384 . S
H5700 C5706 0.930 . S
H5701 C5710 0.930 . S
H5702 C5715 0.929 . S
H5703 C5713 0.929 . S
H5704 C5708 0.929 . S
H5705 C5714 0.929 . S
C5706 H5700 0.930 . S
C5706 C5707 1.367 . S
C5706 C5714 1.378 . S
C5707 C5706 1.367 . S
C5707 C5715 1.433 . S
C5708 H5704 0.929 . S
C5708 C5710 1.378 . S
C5708 C5712 1.350 . S
C5709 C5712 1.463 . S
C5709 C5714 1.350 . S
C5709 N5717 1.427 . S
C5710 H5701 0.930 . S
C5710 C5708 1.378 . S
C5710 C5711 1.367 . S
C5711 C5710 1.367 . S
C5711 C5713 1.433 . S
C5712 C5708 1.350 . S
C5712 C5709 1.463 . S
C5712 N5716 1.427 . S
C5713 H5703 0.929 . S
C5713 C5711 1.433 . S
C5713 N5716 1.384 . S
C5714 H5705 0.929 . S
C5714 C5706 1.378 . S
C5714 C5709 1.350 . S
C5715 H5702 0.929 . S
C5715 C5707 1.433 . S
C5715 N5717 1.384 . S
N5716 C5712 1.427 . S
N5716 C5713 1.384 . S
N5717 C5709 1.427 . S
N5717 C5715 1.384 . S
H5718 C5724 0.930 . S
H5719 C5728 0.930 . S
H5720 C5733 0.929 . S
H5721 C5731 0.929 . S
H5722 C5726 0.929 . S
H5723 C5732 0.929 . S
C5724 H5718 0.930 . S
C5724 C5725 1.367 . S
C5724 C5732 1.378 . S
C5725 C5724 1.367 . S
C5725 C5733 1.433 . S
C5726 H5722 0.929 . S
C5726 C5728 1.378 . S
C5726 C5730 1.350 . S
C5727 C5730 1.463 . S
C5727 C5732 1.350 . S
C5727 N5735 1.427 . S
C5728 H5719 0.930 . S
C5728 C5726 1.378 . S
C5728 C5729 1.367 . S
C5729 C5728 1.367 . S
C5729 C5731 1.433 . S
C5730 C5726 1.350 . S
C5730 C5727 1.463 . S
C5730 N5734 1.427 . S
C5731 H5721 0.929 . S
C5731 C5729 1.433 . S
C5731 N5734 1.384 . S
C5732 H5723 0.929 . S
C5732 C5724 1.378 . S
C5732 C5727 1.350 . S
C5733 H5720 0.929 . S
C5733 C5725 1.433 . S
C5733 N5735 1.384 . S
N5734 C5730 1.427 . S
N5734 C5731 1.384 . S
N5735 C5727 1.427 . S
N5735 C5733 1.384 . S
H5736 C5742 0.930 . S
H5737 C5746 0.930 . S
H5738 C5751 0.929 . S
H5739 C5749 0.929 . S
H5740 C5744 0.929 . S
H5741 C5750 0.929 . S
C5742 H5736 0.930 . S
C5742 C5743 1.367 . S
C5742 C5750 1.378 . S
C5743 C5742 1.367 . S
C5743 C5751 1.433 . S
C5744 H5740 0.929 . S
C5744 C5746 1.378 . S
C5744 C5748 1.350 . S
C5745 C5748 1.463 . S
C5745 C5750 1.350 . S
C5745 N5753 1.427 . S
C5746 H5737 0.930 . S
C5746 C5744 1.378 . S
C5746 C5747 1.367 . S
C5747 C5746 1.367 . S
C5747 C5749 1.433 . S
C5748 C5744 1.350 . S
C5748 C5745 1.463 . S
C5748 N5752 1.427 . S
C5749 H5739 0.929 . S
C5749 C5747 1.433 . S
C5749 N5752 1.384 . S
C5750 H5741 0.929 . S
C5750 C5742 1.378 . S
C5750 C5745 1.350 . S
C5751 H5738 0.929 . S
C5751 C5743 1.433 . S
C5751 N5753 1.384 . S
N5752 C5748 1.427 . S
N5752 C5749 1.384 . S
N5753 C5745 1.427 . S
N5753 C5751 1.384 . S
H5754 C5760 0.930 . S
H5755 C5764 0.930 1_565 S
H5756 C5769 0.929 . S
H5757 C5767 0.929 . S
H5758 C5762 0.929 . S
H5759 C5768 0.929 . S
C5760 H5754 0.930 . S
C5760 C5761 1.367 . S
C5760 C5768 1.378 . S
C5761 C5760 1.367 . S
C5761 C5769 1.433 . S
C5762 H5758 0.929 . S
C5762 C5764 1.378 . S
C5762 C5766 1.350 . S
C5763 C5766 1.463 . S
C5763 C5768 1.350 . S
C5763 N5771 1.427 . S
C5764 H5755 0.930 1_545 S
C5764 C5762 1.378 . S
C5764 C5765 1.367 1_545 S
C5765 C5764 1.367 1_565 S
C5765 C5767 1.433 1_565 S
C5766 C5762 1.350 . S
C5766 C5763 1.463 . S
C5766 N5770 1.427 . S
C5767 H5757 0.929 . S
C5767 C5765 1.433 1_545 S
C5767 N5770 1.384 . S
C5768 H5759 0.929 . S
C5768 C5760 1.378 . S
C5768 C5763 1.350 . S
C5769 H5756 0.929 . S
C5769 C5761 1.433 . S
C5769 N5771 1.384 . S
N5770 C5766 1.427 . S
N5770 C5767 1.384 . S
N5771 C5763 1.427 . S
N5771 C5769 1.384 . S
H5772 C5778 0.930 . S
H5773 C5782 0.930 . S
H5774 C5787 0.929 . S
H5775 C5785 0.929 . S
H5776 C5780 0.929 . S
H5777 C5786 0.929 . S
C5778 H5772 0.930 . S
C5778 C5779 1.367 . S
C5778 C5786 1.378 . S
C5779 C5778 1.367 . S
C5779 C5787 1.433 . S
C5780 H5776 0.929 . S
C5780 C5782 1.378 . S
C5780 C5784 1.350 . S
C5781 C5784 1.463 . S
C5781 C5786 1.350 . S
C5781 N5789 1.427 . S
C5782 H5773 0.930 . S
C5782 C5780 1.378 . S
C5782 C5783 1.367 . S
C5783 C5782 1.367 . S
C5783 C5785 1.433 . S
C5784 C5780 1.350 . S
C5784 C5781 1.463 . S
C5784 N5788 1.427 . S
C5785 H5775 0.929 . S
C5785 C5783 1.433 . S
C5785 N5788 1.384 . S
C5786 H5777 0.929 . S
C5786 C5778 1.378 . S
C5786 C5781 1.350 . S
C5787 H5774 0.929 . S
C5787 C5779 1.433 . S
C5787 N5789 1.384 . S
N5788 C5784 1.427 . S
N5788 C5785 1.384 . S
N5789 C5781 1.427 . S
N5789 C5787 1.384 . S
H5790 C5796 0.930 . S
H5791 C5800 0.930 . S
H5792 C5805 0.929 . S
H5793 C5803 0.929 . S
H5794 C5798 0.929 . S
H5795 C5804 0.929 . S
C5796 H5790 0.930 . S
C5796 C5797 1.367 . S
C5796 C5804 1.378 . S
C5797 C5796 1.367 . S
C5797 C5805 1.433 . S
C5798 H5794 0.929 . S
C5798 C5800 1.378 . S
C5798 C5802 1.350 . S
C5799 C5802 1.463 . S
C5799 C5804 1.350 . S
C5799 N5807 1.427 . S
C5800 H5791 0.930 . S
C5800 C5798 1.378 . S
C5800 C5801 1.367 . S
C5801 C5800 1.367 . S
C5801 C5803 1.433 . S
C5802 C5798 1.350 . S
C5802 C5799 1.463 . S
C5802 N5806 1.427 . S
C5803 H5793 0.929 . S
C5803 C5801 1.433 . S
C5803 N5806 1.384 . S
C5804 H5795 0.929 . S
C5804 C5796 1.378 . S
C5804 C5799 1.350 . S
C5805 H5792 0.929 . S
C5805 C5797 1.433 . S
C5805 N5807 1.384 . S
N5806 C5802 1.427 . S
N5806 C5803 1.384 . S
N5807 C5799 1.427 . S
N5807 C5805 1.384 . S
H5808 C5814 0.937 . S
H5809 C5818 0.930 . S
H5810 C5823 0.929 1_556 S
H5811 C5821 0.929 . S
H5812 C5816 0.929 . S
H5813 C5822 0.929 . S
C5814 H5808 0.937 . S
C5814 C5815 1.371 . S
C5814 C5822 1.366 1_556 S
C5815 C5814 1.371 . S
C5815 C5823 1.433 1_556 S
C5816 H5812 0.929 . S
C5816 C5818 1.378 . S
C5816 C5820 1.350 . S
C5817 C5820 1.463 . S
C5817 C5822 1.350 . S
C5817 N5825 1.427 . S
C5818 H5809 0.930 . S
C5818 C5816 1.378 . S
C5818 C5819 1.367 . S
C5819 C5818 1.367 . S
C5819 C5821 1.433 . S
C5820 C5816 1.350 . S
C5820 C5817 1.463 . S
C5820 N5824 1.427 . S
C5821 H5811 0.929 . S
C5821 C5819 1.433 . S
C5821 N5824 1.384 . S
C5822 H5813 0.929 . S
C5822 C5814 1.366 1_554 S
C5822 C5817 1.350 . S
C5823 H5810 0.929 1_554 S
C5823 C5815 1.433 1_554 S
C5823 N5825 1.384 . S
N5824 C5820 1.427 . S
N5824 C5821 1.384 . S
N5825 C5817 1.427 . S
N5825 C5823 1.384 . S
H5826 C5832 0.930 . S
H5827 C5836 0.930 . S
H5828 C5841 0.929 . S
H5829 C5839 0.929 . S
H5830 C5834 0.929 . S
H5831 C5840 0.929 . S
C5832 H5826 0.930 . S
C5832 C5833 1.367 . S
C5832 C5840 1.378 . S
C5833 C5832 1.367 . S
C5833 C5841 1.433 . S
C5834 H5830 0.929 . S
C5834 C5836 1.378 . S
C5834 C5838 1.350 . S
C5835 C5838 1.463 . S
C5835 C5840 1.350 . S
C5835 N5843 1.427 . S
C5836 H5827 0.930 . S
C5836 C5834 1.378 . S
C5836 C5837 1.367 . S
C5837 C5836 1.367 . S
C5837 C5839 1.433 . S
C5838 C5834 1.350 . S
C5838 C5835 1.463 . S
C5838 N5842 1.427 . S
C5839 H5829 0.929 . S
C5839 C5837 1.433 . S
C5839 N5842 1.384 . S
C5840 H5831 0.929 . S
C5840 C5832 1.378 . S
C5840 C5835 1.350 . S
C5841 H5828 0.929 . S
C5841 C5833 1.433 . S
C5841 N5843 1.384 . S
N5842 C5838 1.427 . S
N5842 C5839 1.384 . S
N5843 C5835 1.427 . S
N5843 C5841 1.384 . S
H5844 C5850 0.930 . S
H5845 C5854 0.930 . S
H5846 C5859 0.929 . S
H5847 C5857 0.929 . S
H5848 C5852 0.929 . S
H5849 C5858 0.929 . S
C5850 H5844 0.930 . S
C5850 C5851 1.367 . S
C5850 C5858 1.378 . S
C5851 C5850 1.367 . S
C5851 C5859 1.433 . S
C5852 H5848 0.929 . S
C5852 C5854 1.378 . S
C5852 C5856 1.350 . S
C5853 C5856 1.463 . S
C5853 C5858 1.350 . S
C5853 N5861 1.427 . S
C5854 H5845 0.930 . S
C5854 C5852 1.378 . S
C5854 C5855 1.367 . S
C5855 C5854 1.367 . S
C5855 C5857 1.433 . S
C5856 C5852 1.350 . S
C5856 C5853 1.463 . S
C5856 N5860 1.427 . S
C5857 H5847 0.929 . S
C5857 C5855 1.433 . S
C5857 N5860 1.384 . S
C5858 H5849 0.929 . S
C5858 C5850 1.378 . S
C5858 C5853 1.350 . S
C5859 H5846 0.929 . S
C5859 C5851 1.433 . S
C5859 N5861 1.384 . S
N5860 C5856 1.427 . S
N5860 C5857 1.384 . S
N5861 C5853 1.427 . S
N5861 C5859 1.384 . S
H5862 C5868 0.930 . S
H5863 C5872 0.930 . S
H5864 C5877 0.929 . S
H5865 C5875 0.929 . S
H5866 C5870 0.929 . S
H5867 C5876 0.929 . S
C5868 H5862 0.930 . S
C5868 C5869 1.367 . S
C5868 C5876 1.378 . S
C5869 C5868 1.367 . S
C5869 C5877 1.433 . S
C5870 H5866 0.929 . S
C5870 C5872 1.378 . S
C5870 C5874 1.350 . S
C5871 C5874 1.463 . S
C5871 C5876 1.350 . S
C5871 N5879 1.427 . S
C5872 H5863 0.930 . S
C5872 C5870 1.378 . S
C5872 C5873 1.367 . S
C5873 C5872 1.367 . S
C5873 C5875 1.433 . S
C5874 C5870 1.350 . S
C5874 C5871 1.463 . S
C5874 N5878 1.427 . S
C5875 H5865 0.929 . S
C5875 C5873 1.433 . S
C5875 N5878 1.384 . S
C5876 H5867 0.929 . S
C5876 C5868 1.378 . S
C5876 C5871 1.350 . S
C5877 H5864 0.929 . S
C5877 C5869 1.433 . S
C5877 N5879 1.384 . S
N5878 C5874 1.427 . S
N5878 C5875 1.384 . S
N5879 C5871 1.427 . S
N5879 C5877 1.384 . S
H5880 C5886 0.930 . S
H5881 C5890 0.930 . S
H5882 C5895 0.929 . S
H5883 C5893 0.929 . S
H5884 C5888 0.929 . S
H5885 C5894 0.929 . S
C5886 H5880 0.930 . S
C5886 C5887 1.367 . S
C5886 C5894 1.378 . S
C5887 C5886 1.367 . S
C5887 C5895 1.433 . S
C5888 H5884 0.929 . S
C5888 C5890 1.378 . S
C5888 C5892 1.350 . S
C5889 C5892 1.463 . S
C5889 C5894 1.350 . S
C5889 N5897 1.427 . S
C5890 H5881 0.930 . S
C5890 C5888 1.378 . S
C5890 C5891 1.367 . S
C5891 C5890 1.367 . S
C5891 C5893 1.433 . S
C5892 C5888 1.350 . S
C5892 C5889 1.463 . S
C5892 N5896 1.427 . S
C5893 H5883 0.929 . S
C5893 C5891 1.433 . S
C5893 N5896 1.384 . S
C5894 H5885 0.929 . S
C5894 C5886 1.378 . S
C5894 C5889 1.350 . S
C5895 H5882 0.929 . S
C5895 C5887 1.433 . S
C5895 N5897 1.384 . S
N5896 C5892 1.427 . S
N5896 C5893 1.384 . S
N5897 C5889 1.427 . S
N5897 C5895 1.384 . S
H5898 C5904 0.930 . S
H5899 C5908 0.930 . S
H5900 C5913 0.929 . S
H5901 C5911 0.929 . S
H5902 C5906 0.929 . S
H5903 C5912 0.929 . S
C5904 H5898 0.930 . S
C5904 C5905 1.367 . S
C5904 C5912 1.378 . S
C5905 C5904 1.367 . S
C5905 C5913 1.433 . S
C5906 H5902 0.929 . S
C5906 C5908 1.378 . S
C5906 C5910 1.350 . S
C5907 C5910 1.463 . S
C5907 C5912 1.350 . S
C5907 N5915 1.427 . S
C5908 H5899 0.930 . S
C5908 C5906 1.378 . S
C5908 C5909 1.367 . S
C5909 C5908 1.367 . S
C5909 C5911 1.433 . S
C5910 C5906 1.350 . S
C5910 C5907 1.463 . S
C5910 N5914 1.427 . S
C5911 H5901 0.929 . S
C5911 C5909 1.433 . S
C5911 N5914 1.384 . S
C5912 H5903 0.929 . S
C5912 C5904 1.378 . S
C5912 C5907 1.350 . S
C5913 H5900 0.929 . S
C5913 C5905 1.433 . S
C5913 N5915 1.384 . S
N5914 C5910 1.427 . S
N5914 C5911 1.384 . S
N5915 C5907 1.427 . S
N5915 C5913 1.384 . S
H5916 C5922 0.930 1_554 S
H5917 C5926 0.930 . S
H5918 C5931 0.929 . S
H5919 C5929 0.929 . S
H5920 C5924 0.929 . S
H5921 C5930 0.929 . S
C5922 H5916 0.930 1_556 S
C5922 C5923 1.367 1_556 S
C5922 C5930 1.378 . S
C5923 C5922 1.367 1_554 S
C5923 C5931 1.433 . S
C5924 H5920 0.929 . S
C5924 C5926 1.378 . S
C5924 C5928 1.350 . S
C5925 C5928 1.463 . S
C5925 C5930 1.350 . S
C5925 N5933 1.427 . S
C5926 H5917 0.930 . S
C5926 C5924 1.378 . S
C5926 C5927 1.367 . S
C5927 C5926 1.367 . S
C5927 C5929 1.433 . S
C5928 C5924 1.350 . S
C5928 C5925 1.463 . S
C5928 N5932 1.427 . S
C5929 H5919 0.929 . S
C5929 C5927 1.433 . S
C5929 N5932 1.384 . S
C5930 H5921 0.929 . S
C5930 C5922 1.378 . S
C5930 C5925 1.350 . S
C5931 H5918 0.929 . S
C5931 C5923 1.433 . S
C5931 N5933 1.384 1_554 S
N5932 C5928 1.427 . S
N5932 C5929 1.384 . S
N5933 C5925 1.427 . S
N5933 C5931 1.384 1_556 S
H5934 C5940 0.930 . S
H5935 C5944 0.930 . S
H5936 C5949 0.929 . S
H5937 C5947 0.929 . S
H5938 C5942 0.929 . S
H5939 C5948 0.929 . S
C5940 H5934 0.930 . S
C5940 C5941 1.367 . S
C5940 C5948 1.378 . S
C5941 C5940 1.367 . S
C5941 C5949 1.433 . S
C5942 H5938 0.929 . S
C5942 C5944 1.378 . S
C5942 C5946 1.350 . S
C5943 C5946 1.463 . S
C5943 C5948 1.350 . S
C5943 N5951 1.427 . S
C5944 H5935 0.930 . S
C5944 C5942 1.378 . S
C5944 C5945 1.367 . S
C5945 C5944 1.367 . S
C5945 C5947 1.433 . S
C5946 C5942 1.350 . S
C5946 C5943 1.463 . S
C5946 N5950 1.427 . S
C5947 H5937 0.929 . S
C5947 C5945 1.433 . S
C5947 N5950 1.384 . S
C5948 H5939 0.929 . S
C5948 C5940 1.378 . S
C5948 C5943 1.350 . S
C5949 H5936 0.929 . S
C5949 C5941 1.433 . S
C5949 N5951 1.384 . S
N5950 C5946 1.427 . S
N5950 C5947 1.384 . S
N5951 C5943 1.427 . S
N5951 C5949 1.384 . S
H5952 C5958 0.930 . S
H5953 C5962 0.930 . S
H5954 C5967 0.929 . S
H5955 C5965 0.929 . S
H5956 C5960 0.929 . S
H5957 C5966 0.929 . S
C5958 H5952 0.930 . S
C5958 C5959 1.367 . S
C5958 C5966 1.378 . S
C5959 C5958 1.367 . S
C5959 C5967 1.433 . S
C5960 H5956 0.929 . S
C5960 C5962 1.378 . S
C5960 C5964 1.350 . S
C5961 C5964 1.463 . S
C5961 C5966 1.350 . S
C5961 N5969 1.427 . S
C5962 H5953 0.930 . S
C5962 C5960 1.378 . S
C5962 C5963 1.367 . S
C5963 C5962 1.367 . S
C5963 C5965 1.433 . S
C5964 C5960 1.350 . S
C5964 C5961 1.463 . S
C5964 N5968 1.427 . S
C5965 H5955 0.929 . S
C5965 C5963 1.433 . S
C5965 N5968 1.384 . S
C5966 H5957 0.929 . S
C5966 C5958 1.378 . S
C5966 C5961 1.350 . S
C5967 H5954 0.929 . S
C5967 C5959 1.433 . S
C5967 N5969 1.384 . S
N5968 C5964 1.427 . S
N5968 C5965 1.384 . S
N5969 C5961 1.427 . S
N5969 C5967 1.384 . S
H5970 C5976 0.930 . S
H5971 C5980 0.930 . S
H5972 C5985 0.929 . S
H5973 C5983 0.929 . S
H5974 C5978 0.929 . S
H5975 C5984 0.929 . S
C5976 H5970 0.930 . S
C5976 C5977 1.367 . S
C5976 C5984 1.378 . S
C5977 C5976 1.367 . S
C5977 C5985 1.433 . S
C5978 H5974 0.929 . S
C5978 C5980 1.378 . S
C5978 C5982 1.350 . S
C5979 C5982 1.463 . S
C5979 C5984 1.350 . S
C5979 N5987 1.427 . S
C5980 H5971 0.930 . S
C5980 C5978 1.378 . S
C5980 C5981 1.367 . S
C5981 C5980 1.367 . S
C5981 C5983 1.433 . S
C5982 C5978 1.350 . S
C5982 C5979 1.463 . S
C5982 N5986 1.427 . S
C5983 H5973 0.929 . S
C5983 C5981 1.433 . S
C5983 N5986 1.384 . S
C5984 H5975 0.929 . S
C5984 C5976 1.378 . S
C5984 C5979 1.350 . S
C5985 H5972 0.929 . S
C5985 C5977 1.433 . S
C5985 N5987 1.384 . S
N5986 C5982 1.427 . S
N5986 C5983 1.384 . S
N5987 C5979 1.427 . S
N5987 C5985 1.384 . S
H5988 C5994 0.930 . S
H5989 C5998 0.930 . S
H5990 C6003 0.929 . S
H5991 C6001 0.929 . S
H5992 C5996 0.929 . S
H5993 C6002 0.929 . S
C5994 H5988 0.930 . S
C5994 C5995 1.367 . S
C5994 C6002 1.378 . S
C5995 C5994 1.367 . S
C5995 C6003 1.433 . S
C5996 H5992 0.929 . S
C5996 C5998 1.378 . S
C5996 C6000 1.350 . S
C5997 C6000 1.463 . S
C5997 C6002 1.350 . S
C5997 N6005 1.427 . S
C5998 H5989 0.930 . S
C5998 C5996 1.378 . S
C5998 C5999 1.367 . S
C5999 C5998 1.367 . S
C5999 C6001 1.433 . S
C6000 C5996 1.350 . S
C6000 C5997 1.463 . S
C6000 N6004 1.427 . S
C6001 H5991 0.929 . S
C6001 C5999 1.433 . S
C6001 N6004 1.384 . S
C6002 H5993 0.929 . S
C6002 C5994 1.378 . S
C6002 C5997 1.350 . S
C6003 H5990 0.929 . S
C6003 C5995 1.433 . S
C6003 N6005 1.384 . S
N6004 C6000 1.427 . S
N6004 C6001 1.384 . S
N6005 C5997 1.427 . S
N6005 C6003 1.384 . S
H6006 C6012 0.930 . S
H6007 C6016 0.930 . S
H6008 C6021 0.929 . S
H6009 C6019 0.929 . S
H6010 C6014 0.929 . S
H6011 C6020 0.929 . S
C6012 H6006 0.930 . S
C6012 C6013 1.367 . S
C6012 C6020 1.378 . S
C6013 C6012 1.367 . S
C6013 C6021 1.433 . S
C6014 H6010 0.929 . S
C6014 C6016 1.378 . S
C6014 C6018 1.350 . S
C6015 C6018 1.463 . S
C6015 C6020 1.350 . S
C6015 N6023 1.427 . S
C6016 H6007 0.930 . S
C6016 C6014 1.378 . S
C6016 C6017 1.367 . S
C6017 C6016 1.367 . S
C6017 C6019 1.433 . S
C6018 C6014 1.350 . S
C6018 C6015 1.463 . S
C6018 N6022 1.427 . S
C6019 H6009 0.929 . S
C6019 C6017 1.433 . S
C6019 N6022 1.384 . S
C6020 H6011 0.929 . S
C6020 C6012 1.378 . S
C6020 C6015 1.350 . S
C6021 H6008 0.929 . S
C6021 C6013 1.433 . S
C6021 N6023 1.384 . S
N6022 C6018 1.427 . S
N6022 C6019 1.384 . S
N6023 C6015 1.427 . S
N6023 C6021 1.384 . S
H6024 C6030 0.930 . S
H6025 C6034 0.930 . S
H6026 C6039 0.929 . S
H6027 C6037 0.929 . S
H6028 C6032 0.929 . S
H6029 C6038 0.929 . S
C6030 H6024 0.930 . S
C6030 C6031 1.367 1_455 S
C6030 C6038 1.378 . S
C6031 C6030 1.367 1_655 S
C6031 C6039 1.433 . S
C6032 H6028 0.929 . S
C6032 C6034 1.378 . S
C6032 C6036 1.350 . S
C6033 C6036 1.463 . S
C6033 C6038 1.350 . S
C6033 N6041 1.427 . S
C6034 H6025 0.930 . S
C6034 C6032 1.378 . S
C6034 C6035 1.367 . S
C6035 C6034 1.367 . S
C6035 C6037 1.433 . S
C6036 C6032 1.350 . S
C6036 C6033 1.463 . S
C6036 N6040 1.427 . S
C6037 H6027 0.929 . S
C6037 C6035 1.433 . S
C6037 N6040 1.384 . S
C6038 H6029 0.929 . S
C6038 C6030 1.378 . S
C6038 C6033 1.350 . S
C6039 H6026 0.929 . S
C6039 C6031 1.433 . S
C6039 N6041 1.384 1_655 S
N6040 C6036 1.427 . S
N6040 C6037 1.384 . S
N6041 C6033 1.427 . S
N6041 C6039 1.384 1_455 S
H6042 C6048 0.930 . S
H6043 C6052 0.930 . S
H6044 C6057 0.929 . S
H6045 C6055 0.929 . S
H6046 C6050 0.929 . S
H6047 C6056 0.929 . S
C6048 H6042 0.930 . S
C6048 C6049 1.367 . S
C6048 C6056 1.378 . S
C6049 C6048 1.367 . S
C6049 C6057 1.433 . S
C6050 H6046 0.929 . S
C6050 C6052 1.378 . S
C6050 C6054 1.350 . S
C6051 C6054 1.463 . S
C6051 C6056 1.350 . S
C6051 N6059 1.427 . S
C6052 H6043 0.930 . S
C6052 C6050 1.378 . S
C6052 C6053 1.367 . S
C6053 C6052 1.367 . S
C6053 C6055 1.433 . S
C6054 C6050 1.350 . S
C6054 C6051 1.463 . S
C6054 N6058 1.427 . S
C6055 H6045 0.929 . S
C6055 C6053 1.433 . S
C6055 N6058 1.384 . S
C6056 H6047 0.929 . S
C6056 C6048 1.378 . S
C6056 C6051 1.350 . S
C6057 H6044 0.929 . S
C6057 C6049 1.433 . S
C6057 N6059 1.384 . S
N6058 C6054 1.427 . S
N6058 C6055 1.384 . S
N6059 C6051 1.427 . S
N6059 C6057 1.384 . S
H6060 C6066 0.930 . S
H6061 C6070 0.930 . S
H6062 C6075 0.929 . S
H6063 C6073 0.929 . S
H6064 C6068 0.929 . S
H6065 C6074 0.929 . S
C6066 H6060 0.930 . S
C6066 C6067 1.367 . S
C6066 C6074 1.378 . S
C6067 C6066 1.367 . S
C6067 C6075 1.433 . S
C6068 H6064 0.929 . S
C6068 C6070 1.378 . S
C6068 C6072 1.350 . S
C6069 C6072 1.463 . S
C6069 C6074 1.350 . S
C6069 N6077 1.427 . S
C6070 H6061 0.930 . S
C6070 C6068 1.378 . S
C6070 C6071 1.367 . S
C6071 C6070 1.367 . S
C6071 C6073 1.433 . S
C6072 C6068 1.350 . S
C6072 C6069 1.463 . S
C6072 N6076 1.427 . S
C6073 H6063 0.929 . S
C6073 C6071 1.433 . S
C6073 N6076 1.384 . S
C6074 H6065 0.929 . S
C6074 C6066 1.378 . S
C6074 C6069 1.350 . S
C6075 H6062 0.929 . S
C6075 C6067 1.433 . S
C6075 N6077 1.384 . S
N6076 C6072 1.427 . S
N6076 C6073 1.384 . S
N6077 C6069 1.427 . S
N6077 C6075 1.384 . S
H6078 C6084 0.930 . S
H6079 C6088 0.930 . S
H6080 C6093 0.929 . S
H6081 C6091 0.929 . S
H6082 C6086 0.929 . S
H6083 C6092 0.929 . S
C6084 H6078 0.930 . S
C6084 C6085 1.367 . S
C6084 C6092 1.378 . S
C6085 C6084 1.367 . S
C6085 C6093 1.433 . S
C6086 H6082 0.929 . S
C6086 C6088 1.378 . S
C6086 C6090 1.350 . S
C6087 C6090 1.463 . S
C6087 C6092 1.350 . S
C6087 N6095 1.427 . S
C6088 H6079 0.930 . S
C6088 C6086 1.378 . S
C6088 C6089 1.367 . S
C6089 C6088 1.367 . S
C6089 C6091 1.433 . S
C6090 C6086 1.350 . S
C6090 C6087 1.463 . S
C6090 N6094 1.427 . S
C6091 H6081 0.929 . S
C6091 C6089 1.433 . S
C6091 N6094 1.384 . S
C6092 H6083 0.929 . S
C6092 C6084 1.378 . S
C6092 C6087 1.350 . S
C6093 H6080 0.929 . S
C6093 C6085 1.433 . S
C6093 N6095 1.384 . S
N6094 C6090 1.427 . S
N6094 C6091 1.384 . S
N6095 C6087 1.427 . S
N6095 C6093 1.384 . S
H6096 C6102 0.930 . S
H6097 C6106 0.930 . S
H6098 C6111 0.929 1_565 S
H6099 C6109 0.929 . S
H6100 C6104 0.929 . S
H6101 C6110 0.929 . S
C6102 H6096 0.930 . S
C6102 C6103 1.367 . S
C6102 C6110 1.378 1_565 S
C6103 C6102 1.367 . S
C6103 C6111 1.433 1_565 S
C6104 H6100 0.929 . S
C6104 C6106 1.378 . S
C6104 C6108 1.350 . S
C6105 C6108 1.463 . S
C6105 C6110 1.350 . S
C6105 N6113 1.427 . S
C6106 H6097 0.930 . S
C6106 C6104 1.378 . S
C6106 C6107 1.367 . S
C6107 C6106 1.367 . S
C6107 C6109 1.433 . S
C6108 C6104 1.350 . S
C6108 C6105 1.463 . S
C6108 N6112 1.427 . S
C6109 H6099 0.929 . S
C6109 C6107 1.433 . S
C6109 N6112 1.384 . S
C6110 H6101 0.929 . S
C6110 C6102 1.378 1_545 S
C6110 C6105 1.350 . S
C6111 H6098 0.929 1_545 S
C6111 C6103 1.433 1_545 S
C6111 N6113 1.384 . S
N6112 C6108 1.427 . S
N6112 C6109 1.384 . S
N6113 C6105 1.427 . S
N6113 C6111 1.384 . S
H6114 C6120 0.930 . S
H6115 C6124 0.930 . S
H6116 C6129 0.929 . S
H6117 C6127 0.929 . S
H6118 C6122 0.929 . S
H6119 C6128 0.929 . S
C6120 H6114 0.930 . S
C6120 C6121 1.367 . S
C6120 C6128 1.378 . S
C6121 C6120 1.367 . S
C6121 C6129 1.433 . S
C6122 H6118 0.929 . S
C6122 C6124 1.378 . S
C6122 C6126 1.350 . S
C6123 C6126 1.463 . S
C6123 C6128 1.350 . S
C6123 N6131 1.427 . S
C6124 H6115 0.930 . S
C6124 C6122 1.378 . S
C6124 C6125 1.367 . S
C6125 C6124 1.367 . S
C6125 C6127 1.433 . S
C6126 C6122 1.350 . S
C6126 C6123 1.463 . S
C6126 N6130 1.427 . S
C6127 H6117 0.929 . S
C6127 C6125 1.433 . S
C6127 N6130 1.384 . S
C6128 H6119 0.929 . S
C6128 C6120 1.378 . S
C6128 C6123 1.350 . S
C6129 H6116 0.929 . S
C6129 C6121 1.433 . S
C6129 N6131 1.384 . S
N6130 C6126 1.427 . S
N6130 C6127 1.384 . S
N6131 C6123 1.427 . S
N6131 C6129 1.384 . S
H6132 C6138 0.930 . S
H6133 C6142 0.930 . S
H6134 C6147 0.929 . S
H6135 C6145 0.929 . S
H6136 C6140 0.929 . S
H6137 C6146 0.929 . S
C6138 H6132 0.930 . S
C6138 C6139 1.367 . S
C6138 C6146 1.378 . S
C6139 C6138 1.367 . S
C6139 C6147 1.433 . S
C6140 H6136 0.929 . S
C6140 C6142 1.378 . S
C6140 C6144 1.350 . S
C6141 C6144 1.463 . S
C6141 C6146 1.350 . S
C6141 N6149 1.427 . S
C6142 H6133 0.930 . S
C6142 C6140 1.378 . S
C6142 C6143 1.367 . S
C6143 C6142 1.367 . S
C6143 C6145 1.433 . S
C6144 C6140 1.350 . S
C6144 C6141 1.463 . S
C6144 N6148 1.427 . S
C6145 H6135 0.929 . S
C6145 C6143 1.433 . S
C6145 N6148 1.384 . S
C6146 H6137 0.929 . S
C6146 C6138 1.378 . S
C6146 C6141 1.350 . S
C6147 H6134 0.929 . S
C6147 C6139 1.433 . S
C6147 N6149 1.384 . S
N6148 C6144 1.427 . S
N6148 C6145 1.384 . S
N6149 C6141 1.427 . S
N6149 C6147 1.384 . S
H6150 C6156 0.930 . S
H6151 C6160 0.930 . S
H6152 C6165 0.929 . S
H6153 C6163 0.929 . S
H6154 C6158 0.929 . S
H6155 C6164 0.929 . S
C6156 H6150 0.930 . S
C6156 C6157 1.367 . S
C6156 C6164 1.378 . S
C6157 C6156 1.367 . S
C6157 C6165 1.433 . S
C6158 H6154 0.929 . S
C6158 C6160 1.378 . S
C6158 C6162 1.350 . S
C6159 C6162 1.463 . S
C6159 C6164 1.350 . S
C6159 N6167 1.427 . S
C6160 H6151 0.930 . S
C6160 C6158 1.378 . S
C6160 C6161 1.367 . S
C6161 C6160 1.367 . S
C6161 C6163 1.433 . S
C6162 C6158 1.350 . S
C6162 C6159 1.463 . S
C6162 N6166 1.427 . S
C6163 H6153 0.929 . S
C6163 C6161 1.433 . S
C6163 N6166 1.384 . S
C6164 H6155 0.929 . S
C6164 C6156 1.378 . S
C6164 C6159 1.350 . S
C6165 H6152 0.929 . S
C6165 C6157 1.433 . S
C6165 N6167 1.384 . S
N6166 C6162 1.427 . S
N6166 C6163 1.384 . S
N6167 C6159 1.427 . S
N6167 C6165 1.384 . S
H6168 C6174 0.930 . S
H6169 C6178 0.930 . S
H6170 C6183 0.929 . S
H6171 C6181 0.929 . S
H6172 C6176 0.929 . S
H6173 C6182 0.929 . S
C6174 H6168 0.930 . S
C6174 C6175 1.367 . S
C6174 C6182 1.378 . S
C6175 C6174 1.367 . S
C6175 C6183 1.433 . S
C6176 H6172 0.929 . S
C6176 C6178 1.378 . S
C6176 C6180 1.350 . S
C6177 C6180 1.463 . S
C6177 C6182 1.350 . S
C6177 N6185 1.427 . S
C6178 H6169 0.930 . S
C6178 C6176 1.378 . S
C6178 C6179 1.367 . S
C6179 C6178 1.367 . S
C6179 C6181 1.433 . S
C6180 C6176 1.350 . S
C6180 C6177 1.463 . S
C6180 N6184 1.427 . S
C6181 H6171 0.929 . S
C6181 C6179 1.433 . S
C6181 N6184 1.384 . S
C6182 H6173 0.929 . S
C6182 C6174 1.378 . S
C6182 C6177 1.350 . S
C6183 H6170 0.929 . S
C6183 C6175 1.433 . S
C6183 N6185 1.384 . S
N6184 C6180 1.427 . S
N6184 C6181 1.384 . S
N6185 C6177 1.427 . S
N6185 C6183 1.384 . S
H6186 C6192 0.930 . S
H6187 C6196 0.930 . S
H6188 C6201 0.929 . S
H6189 C6199 0.929 1_545 S
H6190 C6194 0.929 . S
H6191 C6200 0.929 . S
C6192 H6186 0.930 . S
C6192 C6193 1.367 . S
C6192 C6200 1.378 . S
C6193 C6192 1.367 . S
C6193 C6201 1.433 . S
C6194 H6190 0.929 . S
C6194 C6196 1.378 . S
C6194 C6198 1.350 . S
C6195 C6198 1.463 . S
C6195 C6200 1.350 . S
C6195 N6203 1.427 . S
C6196 H6187 0.930 . S
C6196 C6194 1.378 . S
C6196 C6197 1.367 1_565 S
C6197 C6196 1.367 1_545 S
C6197 C6199 1.433 1_545 S
C6198 C6194 1.350 . S
C6198 C6195 1.463 . S
C6198 N6202 1.427 . S
C6199 H6189 0.929 1_565 S
C6199 C6197 1.433 1_565 S
C6199 N6202 1.384 . S
C6200 H6191 0.929 . S
C6200 C6192 1.378 . S
C6200 C6195 1.350 . S
C6201 H6188 0.929 . S
C6201 C6193 1.433 . S
C6201 N6203 1.384 . S
N6202 C6198 1.427 . S
N6202 C6199 1.384 . S
N6203 C6195 1.427 . S
N6203 C6201 1.384 . S
H6204 C6210 0.930 . S
H6205 C6214 0.930 . S
H6206 C6219 0.929 . S
H6207 C6217 0.929 . S
H6208 C6212 0.929 . S
H6209 C6218 0.929 . S
C6210 H6204 0.930 . S
C6210 C6211 1.367 . S
C6210 C6218 1.378 . S
C6211 C6210 1.367 . S
C6211 C6219 1.433 . S
C6212 H6208 0.929 . S
C6212 C6214 1.378 . S
C6212 C6216 1.350 . S
C6213 C6216 1.463 . S
C6213 C6218 1.350 . S
C6213 N6221 1.427 . S
C6214 H6205 0.930 . S
C6214 C6212 1.378 . S
C6214 C6215 1.367 . S
C6215 C6214 1.367 . S
C6215 C6217 1.433 . S
C6216 C6212 1.350 . S
C6216 C6213 1.463 . S
C6216 N6220 1.427 . S
C6217 H6207 0.929 . S
C6217 C6215 1.433 . S
C6217 N6220 1.384 . S
C6218 H6209 0.929 . S
C6218 C6210 1.378 . S
C6218 C6213 1.350 . S
C6219 H6206 0.929 . S
C6219 C6211 1.433 . S
C6219 N6221 1.384 . S
N6220 C6216 1.427 . S
N6220 C6217 1.384 . S
N6221 C6213 1.427 . S
N6221 C6219 1.384 . S
H6222 C6228 0.930 . S
H6223 C6232 0.930 . S
H6224 C6237 0.929 . S
H6225 C6235 0.929 . S
H6226 C6230 0.929 . S
H6227 C6236 0.929 . S
C6228 H6222 0.930 . S
C6228 C6229 1.367 . S
C6228 C6236 1.378 . S
C6229 C6228 1.367 . S
C6229 C6237 1.433 . S
C6230 H6226 0.929 . S
C6230 C6232 1.378 . S
C6230 C6234 1.350 . S
C6231 C6234 1.463 . S
C6231 C6236 1.350 . S
C6231 N6239 1.427 . S
C6232 H6223 0.930 . S
C6232 C6230 1.378 . S
C6232 C6233 1.367 . S
C6233 C6232 1.367 . S
C6233 C6235 1.433 . S
C6234 C6230 1.350 . S
C6234 C6231 1.463 . S
C6234 N6238 1.427 . S
C6235 H6225 0.929 . S
C6235 C6233 1.433 . S
C6235 N6238 1.384 . S
C6236 H6227 0.929 . S
C6236 C6228 1.378 . S
C6236 C6231 1.350 . S
C6237 H6224 0.929 . S
C6237 C6229 1.433 . S
C6237 N6239 1.384 . S
N6238 C6234 1.427 . S
N6238 C6235 1.384 . S
N6239 C6231 1.427 . S
N6239 C6237 1.384 . S
H6240 C6246 0.930 . S
H6241 C6250 0.930 . S
H6242 C6255 0.929 . S
H6243 C6253 0.929 . S
H6244 C6248 0.929 . S
H6245 C6254 0.929 . S
C6246 H6240 0.930 . S
C6246 C6247 1.367 . S
C6246 C6254 1.378 . S
C6247 C6246 1.367 . S
C6247 C6255 1.433 . S
C6248 H6244 0.929 . S
C6248 C6250 1.378 . S
C6248 C6252 1.350 . S
C6249 C6252 1.463 . S
C6249 C6254 1.350 . S
C6249 N6257 1.427 . S
C6250 H6241 0.930 . S
C6250 C6248 1.378 . S
C6250 C6251 1.367 . S
C6251 C6250 1.367 . S
C6251 C6253 1.433 . S
C6252 C6248 1.350 . S
C6252 C6249 1.463 . S
C6252 N6256 1.427 . S
C6253 H6243 0.929 . S
C6253 C6251 1.433 . S
C6253 N6256 1.384 . S
C6254 H6245 0.929 . S
C6254 C6246 1.378 . S
C6254 C6249 1.350 . S
C6255 H6242 0.929 . S
C6255 C6247 1.433 . S
C6255 N6257 1.384 . S
N6256 C6252 1.427 . S
N6256 C6253 1.384 . S
N6257 C6249 1.427 . S
N6257 C6255 1.384 . S
H6258 C6264 0.930 . S
H6259 C6268 0.930 . S
H6260 C6273 0.929 . S
H6261 C6271 0.929 . S
H6262 C6266 0.929 . S
H6263 C6272 0.929 . S
C6264 H6258 0.930 . S
C6264 C6265 1.367 . S
C6264 C6272 1.378 . S
C6265 C6264 1.367 . S
C6265 C6273 1.433 . S
C6266 H6262 0.929 . S
C6266 C6268 1.378 . S
C6266 C6270 1.350 . S
C6267 C6270 1.463 . S
C6267 C6272 1.350 . S
C6267 N6275 1.427 . S
C6268 H6259 0.930 . S
C6268 C6266 1.378 . S
C6268 C6269 1.367 . S
C6269 C6268 1.367 . S
C6269 C6271 1.433 . S
C6270 C6266 1.350 . S
C6270 C6267 1.463 . S
C6270 N6274 1.427 . S
C6271 H6261 0.929 . S
C6271 C6269 1.433 . S
C6271 N6274 1.384 . S
C6272 H6263 0.929 . S
C6272 C6264 1.378 . S
C6272 C6267 1.350 . S
C6273 H6260 0.929 . S
C6273 C6265 1.433 . S
C6273 N6275 1.384 . S
N6274 C6270 1.427 . S
N6274 C6271 1.384 . S
N6275 C6267 1.427 . S
N6275 C6273 1.384 . S
H6276 C6282 0.930 . S
H6277 C6286 0.930 . S
H6278 C6291 0.929 . S
H6279 C6289 0.929 . S
H6280 C6284 0.929 . S
H6281 C6290 0.929 . S
C6282 H6276 0.930 . S
C6282 C6283 1.367 . S
C6282 C6290 1.378 . S
C6283 C6282 1.367 . S
C6283 C6291 1.433 . S
C6284 H6280 0.929 . S
C6284 C6286 1.378 . S
C6284 C6288 1.350 . S
C6285 C6288 1.463 . S
C6285 C6290 1.350 . S
C6285 N6293 1.427 . S
C6286 H6277 0.930 . S
C6286 C6284 1.378 . S
C6286 C6287 1.367 . S
C6287 C6286 1.367 . S
C6287 C6289 1.433 . S
C6288 C6284 1.350 . S
C6288 C6285 1.463 . S
C6288 N6292 1.427 . S
C6289 H6279 0.929 . S
C6289 C6287 1.433 . S
C6289 N6292 1.384 . S
C6290 H6281 0.929 . S
C6290 C6282 1.378 . S
C6290 C6285 1.350 . S
C6291 H6278 0.929 . S
C6291 C6283 1.433 . S
C6291 N6293 1.384 . S
N6292 C6288 1.427 . S
N6292 C6289 1.384 . S
N6293 C6285 1.427 . S
N6293 C6291 1.384 . S
H6294 C6300 0.930 . S
H6295 C6304 0.930 . S
H6296 C6309 0.929 . S
H6297 C6307 0.929 . S
H6298 C6302 0.929 . S
H6299 C6308 0.929 . S
C6300 H6294 0.930 . S
C6300 C6301 1.367 . S
C6300 C6308 1.378 . S
C6301 C6300 1.367 . S
C6301 C6309 1.433 . S
C6302 H6298 0.929 . S
C6302 C6304 1.378 . S
C6302 C6306 1.350 . S
C6303 C6306 1.463 . S
C6303 C6308 1.350 . S
C6303 N6311 1.427 . S
C6304 H6295 0.930 . S
C6304 C6302 1.378 . S
C6304 C6305 1.367 . S
C6305 C6304 1.367 . S
C6305 C6307 1.433 . S
C6306 C6302 1.350 . S
C6306 C6303 1.463 . S
C6306 N6310 1.427 . S
C6307 H6297 0.929 . S
C6307 C6305 1.433 . S
C6307 N6310 1.384 . S
C6308 H6299 0.929 . S
C6308 C6300 1.378 . S
C6308 C6303 1.350 . S
C6309 H6296 0.929 . S
C6309 C6301 1.433 . S
C6309 N6311 1.384 . S
N6310 C6306 1.427 . S
N6310 C6307 1.384 . S
N6311 C6303 1.427 . S
N6311 C6309 1.384 . S
H6312 C6318 0.930 . S
H6313 C6322 0.930 . S
H6314 C6327 0.929 . S
H6315 C6325 0.929 . S
H6316 C6320 0.929 . S
H6317 C6326 0.929 . S
C6318 H6312 0.930 . S
C6318 C6319 1.367 . S
C6318 C6326 1.378 . S
C6319 C6318 1.367 . S
C6319 C6327 1.433 . S
C6320 H6316 0.929 . S
C6320 C6322 1.378 . S
C6320 C6324 1.350 . S
C6321 C6324 1.463 . S
C6321 C6326 1.350 . S
C6321 N6329 1.427 . S
C6322 H6313 0.930 . S
C6322 C6320 1.378 . S
C6322 C6323 1.367 . S
C6323 C6322 1.367 . S
C6323 C6325 1.433 . S
C6324 C6320 1.350 . S
C6324 C6321 1.463 . S
C6324 N6328 1.427 . S
C6325 H6315 0.929 . S
C6325 C6323 1.433 . S
C6325 N6328 1.384 . S
C6326 H6317 0.929 . S
C6326 C6318 1.378 . S
C6326 C6321 1.350 . S
C6327 H6314 0.929 . S
C6327 C6319 1.433 . S
C6327 N6329 1.384 . S
N6328 C6324 1.427 . S
N6328 C6325 1.384 . S
N6329 C6321 1.427 . S
N6329 C6327 1.384 . S
H6330 C6336 0.930 . S
H6331 C6340 0.930 . S
H6332 C6345 0.929 . S
H6333 C6343 0.929 . S
H6334 C6338 0.929 . S
H6335 C6344 0.929 . S
C6336 H6330 0.930 . S
C6336 C6337 1.367 . S
C6336 C6344 1.378 . S
C6337 C6336 1.367 . S
C6337 C6345 1.433 . S
C6338 H6334 0.929 . S
C6338 C6340 1.378 . S
C6338 C6342 1.350 . S
C6339 C6342 1.463 . S
C6339 C6344 1.350 . S
C6339 N6347 1.427 . S
C6340 H6331 0.930 . S
C6340 C6338 1.378 . S
C6340 C6341 1.367 . S
C6341 C6340 1.367 . S
C6341 C6343 1.433 . S
C6342 C6338 1.350 . S
C6342 C6339 1.463 . S
C6342 N6346 1.427 . S
C6343 H6333 0.929 . S
C6343 C6341 1.433 . S
C6343 N6346 1.384 . S
C6344 H6335 0.929 . S
C6344 C6336 1.378 . S
C6344 C6339 1.350 . S
C6345 H6332 0.929 . S
C6345 C6337 1.433 . S
C6345 N6347 1.384 . S
N6346 C6342 1.427 . S
N6346 C6343 1.384 . S
N6347 C6339 1.427 . S
N6347 C6345 1.384 . S
H6348 C6354 0.930 . S
H6349 C6358 0.930 . S
H6350 C6363 0.929 . S
H6351 C6361 0.929 . S
H6352 C6356 0.929 . S
H6353 C6362 0.929 . S
C6354 H6348 0.930 . S
C6354 C6355 1.367 . S
C6354 C6362 1.378 . S
C6355 C6354 1.367 . S
C6355 C6363 1.433 . S
C6356 H6352 0.929 . S
C6356 C6358 1.378 . S
C6356 C6360 1.350 . S
C6357 C6360 1.463 . S
C6357 C6362 1.350 . S
C6357 N6365 1.427 . S
C6358 H6349 0.930 . S
C6358 C6356 1.378 . S
C6358 C6359 1.367 . S
C6359 C6358 1.367 . S
C6359 C6361 1.433 . S
C6360 C6356 1.350 . S
C6360 C6357 1.463 . S
C6360 N6364 1.427 . S
C6361 H6351 0.929 . S
C6361 C6359 1.433 . S
C6361 N6364 1.384 . S
C6362 H6353 0.929 . S
C6362 C6354 1.378 . S
C6362 C6357 1.350 . S
C6363 H6350 0.929 . S
C6363 C6355 1.433 . S
C6363 N6365 1.384 . S
N6364 C6360 1.427 . S
N6364 C6361 1.384 . S
N6365 C6357 1.427 . S
N6365 C6363 1.384 . S
H6366 C6372 0.930 . S
H6367 C6376 0.930 . S
H6368 C6381 0.929 . S
H6369 C6379 0.929 . S
H6370 C6374 0.929 . S
H6371 C6380 0.929 . S
C6372 H6366 0.930 . S
C6372 C6373 1.367 . S
C6372 C6380 1.378 . S
C6373 C6372 1.367 . S
C6373 C6381 1.433 . S
C6374 H6370 0.929 . S
C6374 C6376 1.378 . S
C6374 C6378 1.350 . S
C6375 C6378 1.463 . S
C6375 C6380 1.350 . S
C6375 N6383 1.427 . S
C6376 H6367 0.930 . S
C6376 C6374 1.378 . S
C6376 C6377 1.367 . S
C6377 C6376 1.367 . S
C6377 C6379 1.433 . S
C6378 C6374 1.350 . S
C6378 C6375 1.463 . S
C6378 N6382 1.427 . S
C6379 H6369 0.929 . S
C6379 C6377 1.433 . S
C6379 N6382 1.384 . S
C6380 H6371 0.929 . S
C6380 C6372 1.378 . S
C6380 C6375 1.350 . S
C6381 H6368 0.929 . S
C6381 C6373 1.433 . S
C6381 N6383 1.384 . S
N6382 C6378 1.427 . S
N6382 C6379 1.384 . S
N6383 C6375 1.427 . S
N6383 C6381 1.384 . S
H6384 C6390 0.930 . S
H6385 C6394 0.930 . S
H6386 C6399 0.929 . S
H6387 C6397 0.929 . S
H6388 C6392 0.929 . S
H6389 C6398 0.929 . S
C6390 H6384 0.930 . S
C6390 C6391 1.367 . S
C6390 C6398 1.378 . S
C6391 C6390 1.367 . S
C6391 C6399 1.433 . S
C6392 H6388 0.929 . S
C6392 C6394 1.378 . S
C6392 C6396 1.350 . S
C6393 C6396 1.463 . S
C6393 C6398 1.350 . S
C6393 N6401 1.427 . S
C6394 H6385 0.930 . S
C6394 C6392 1.378 . S
C6394 C6395 1.367 . S
C6395 C6394 1.367 . S
C6395 C6397 1.433 . S
C6396 C6392 1.350 . S
C6396 C6393 1.463 . S
C6396 N6400 1.427 . S
C6397 H6387 0.929 . S
C6397 C6395 1.433 . S
C6397 N6400 1.384 . S
C6398 H6389 0.929 . S
C6398 C6390 1.378 . S
C6398 C6393 1.350 . S
C6399 H6386 0.929 . S
C6399 C6391 1.433 . S
C6399 N6401 1.384 . S
N6400 C6396 1.427 . S
N6400 C6397 1.384 . S
N6401 C6393 1.427 . S
N6401 C6399 1.384 . S
H6402 C6408 0.930 . S
H6403 C6412 0.930 . S
H6404 C6417 0.929 . S
H6405 C6415 0.929 . S
H6406 C6410 0.929 . S
H6407 C6416 0.929 . S
C6408 H6402 0.930 . S
C6408 C6409 1.367 . S
C6408 C6416 1.378 . S
C6409 C6408 1.367 . S
C6409 C6417 1.433 . S
C6410 H6406 0.929 . S
C6410 C6412 1.378 . S
C6410 C6414 1.350 . S
C6411 C6414 1.463 . S
C6411 C6416 1.350 . S
C6411 N6419 1.427 . S
C6412 H6403 0.930 . S
C6412 C6410 1.378 . S
C6412 C6413 1.367 . S
C6413 C6412 1.367 . S
C6413 C6415 1.433 . S
C6414 C6410 1.350 . S
C6414 C6411 1.463 . S
C6414 N6418 1.427 . S
C6415 H6405 0.929 . S
C6415 C6413 1.433 . S
C6415 N6418 1.384 . S
C6416 H6407 0.929 . S
C6416 C6408 1.378 . S
C6416 C6411 1.350 . S
C6417 H6404 0.929 . S
C6417 C6409 1.433 . S
C6417 N6419 1.384 . S
N6418 C6414 1.427 . S
N6418 C6415 1.384 . S
N6419 C6411 1.427 . S
N6419 C6417 1.384 . S
H6420 C6426 0.930 . S
H6421 C6430 0.930 . S
H6422 C6435 0.929 . S
H6423 C6433 0.929 . S
H6424 C6428 0.929 . S
H6425 C6434 0.929 . S
C6426 H6420 0.930 . S
C6426 C6427 1.367 . S
C6426 C6434 1.378 . S
C6427 C6426 1.367 . S
C6427 C6435 1.433 . S
C6428 H6424 0.929 . S
C6428 C6430 1.378 . S
C6428 C6432 1.350 . S
C6429 C6432 1.463 . S
C6429 C6434 1.350 . S
C6429 N6437 1.427 . S
C6430 H6421 0.930 . S
C6430 C6428 1.378 . S
C6430 C6431 1.367 . S
C6431 C6430 1.367 . S
C6431 C6433 1.433 . S
C6432 C6428 1.350 . S
C6432 C6429 1.463 . S
C6432 N6436 1.427 . S
C6433 H6423 0.929 . S
C6433 C6431 1.433 . S
C6433 N6436 1.384 . S
C6434 H6425 0.929 . S
C6434 C6426 1.378 . S
C6434 C6429 1.350 . S
C6435 H6422 0.929 . S
C6435 C6427 1.433 . S
C6435 N6437 1.384 . S
N6436 C6432 1.427 . S
N6436 C6433 1.384 . S
N6437 C6429 1.427 . S
N6437 C6435 1.384 . S
H6438 C6444 0.930 . S
H6439 C6448 0.930 . S
H6440 C6453 0.929 . S
H6441 C6451 0.929 . S
H6442 C6446 0.929 . S
H6443 C6452 0.929 . S
C6444 H6438 0.930 . S
C6444 C6445 1.367 . S
C6444 C6452 1.378 . S
C6445 C6444 1.367 . S
C6445 C6453 1.433 . S
C6446 H6442 0.929 . S
C6446 C6448 1.378 . S
C6446 C6450 1.350 . S
C6447 C6450 1.463 . S
C6447 C6452 1.350 . S
C6447 N6455 1.427 . S
C6448 H6439 0.930 . S
C6448 C6446 1.378 . S
C6448 C6449 1.367 . S
C6449 C6448 1.367 . S
C6449 C6451 1.433 . S
C6450 C6446 1.350 . S
C6450 C6447 1.463 . S
C6450 N6454 1.427 . S
C6451 H6441 0.929 . S
C6451 C6449 1.433 . S
C6451 N6454 1.384 . S
C6452 H6443 0.929 . S
C6452 C6444 1.378 . S
C6452 C6447 1.350 . S
C6453 H6440 0.929 . S
C6453 C6445 1.433 . S
C6453 N6455 1.384 . S
N6454 C6450 1.427 . S
N6454 C6451 1.384 . S
N6455 C6447 1.427 . S
N6455 C6453 1.384 . S
H6456 C6462 0.930 . S
H6457 C6466 0.930 . S
H6458 C6471 0.929 . S
H6459 C6469 0.929 . S
H6460 C6464 0.929 . S
H6461 C6470 0.929 . S
C6462 H6456 0.930 . S
C6462 C6463 1.367 . S
C6462 C6470 1.378 . S
C6463 C6462 1.367 . S
C6463 C6471 1.433 . S
C6464 H6460 0.929 . S
C6464 C6466 1.378 . S
C6464 C6468 1.350 . S
C6465 C6468 1.463 . S
C6465 C6470 1.350 . S
C6465 N6473 1.427 . S
C6466 H6457 0.930 . S
C6466 C6464 1.378 . S
C6466 C6467 1.367 . S
C6467 C6466 1.367 . S
C6467 C6469 1.433 . S
C6468 C6464 1.350 . S
C6468 C6465 1.463 . S
C6468 N6472 1.427 . S
C6469 H6459 0.929 . S
C6469 C6467 1.433 . S
C6469 N6472 1.384 . S
C6470 H6461 0.929 . S
C6470 C6462 1.378 . S
C6470 C6465 1.350 . S
C6471 H6458 0.929 . S
C6471 C6463 1.433 . S
C6471 N6473 1.384 . S
N6472 C6468 1.427 . S
N6472 C6469 1.384 . S
N6473 C6465 1.427 . S
N6473 C6471 1.384 . S
H6474 C6480 0.930 . S
H6475 C6484 0.930 . S
H6476 C6489 0.929 . S
H6477 C6487 0.929 . S
H6478 C6482 0.929 . S
H6479 C6488 0.929 . S
C6480 H6474 0.930 . S
C6480 C6481 1.367 . S
C6480 C6488 1.378 . S
C6481 C6480 1.367 . S
C6481 C6489 1.433 . S
C6482 H6478 0.929 . S
C6482 C6484 1.378 . S
C6482 C6486 1.350 . S
C6483 C6486 1.463 . S
C6483 C6488 1.350 . S
C6483 N6491 1.427 . S
C6484 H6475 0.930 . S
C6484 C6482 1.378 . S
C6484 C6485 1.367 . S
C6485 C6484 1.367 . S
C6485 C6487 1.433 . S
C6486 C6482 1.350 . S
C6486 C6483 1.463 . S
C6486 N6490 1.427 . S
C6487 H6477 0.929 . S
C6487 C6485 1.433 . S
C6487 N6490 1.384 . S
C6488 H6479 0.929 . S
C6488 C6480 1.378 . S
C6488 C6483 1.350 . S
C6489 H6476 0.929 . S
C6489 C6481 1.433 . S
C6489 N6491 1.384 . S
N6490 C6486 1.427 . S
N6490 C6487 1.384 . S
N6491 C6483 1.427 . S
N6491 C6489 1.384 . S
H6492 C6498 0.930 . S
H6493 C6502 0.930 . S
H6494 C6507 0.929 . S
H6495 C6505 0.929 . S
H6496 C6500 0.929 . S
H6497 C6506 0.929 . S
C6498 H6492 0.930 . S
C6498 C6499 1.367 . S
C6498 C6506 1.378 . S
C6499 C6498 1.367 . S
C6499 C6507 1.433 . S
C6500 H6496 0.929 . S
C6500 C6502 1.378 . S
C6500 C6504 1.350 . S
C6501 C6504 1.463 . S
C6501 C6506 1.350 . S
C6501 N6509 1.427 . S
C6502 H6493 0.930 . S
C6502 C6500 1.378 . S
C6502 C6503 1.367 . S
C6503 C6502 1.367 . S
C6503 C6505 1.433 . S
C6504 C6500 1.350 . S
C6504 C6501 1.463 . S
C6504 N6508 1.427 . S
C6505 H6495 0.929 . S
C6505 C6503 1.433 . S
C6505 N6508 1.384 . S
C6506 H6497 0.929 . S
C6506 C6498 1.378 . S
C6506 C6501 1.350 . S
C6507 H6494 0.929 . S
C6507 C6499 1.433 . S
C6507 N6509 1.384 . S
N6508 C6504 1.427 . S
N6508 C6505 1.384 . S
N6509 C6501 1.427 . S
N6509 C6507 1.384 . S
H6510 C6516 0.930 . S
H6511 C6520 0.930 . S
H6512 C6525 0.929 . S
H6513 C6523 0.929 . S
H6514 C6518 0.929 . S
H6515 C6524 0.929 . S
C6516 H6510 0.930 . S
C6516 C6517 1.367 . S
C6516 C6524 1.378 . S
C6517 C6516 1.367 . S
C6517 C6525 1.433 . S
C6518 H6514 0.929 . S
C6518 C6520 1.378 . S
C6518 C6522 1.350 . S
C6519 C6522 1.463 . S
C6519 C6524 1.350 . S
C6519 N6527 1.427 . S
C6520 H6511 0.930 . S
C6520 C6518 1.378 . S
C6520 C6521 1.367 . S
C6521 C6520 1.367 . S
C6521 C6523 1.433 . S
C6522 C6518 1.350 . S
C6522 C6519 1.463 . S
C6522 N6526 1.427 . S
C6523 H6513 0.929 . S
C6523 C6521 1.433 . S
C6523 N6526 1.384 . S
C6524 H6515 0.929 . S
C6524 C6516 1.378 . S
C6524 C6519 1.350 . S
C6525 H6512 0.929 . S
C6525 C6517 1.433 . S
C6525 N6527 1.384 . S
N6526 C6522 1.427 . S
N6526 C6523 1.384 . S
N6527 C6519 1.427 . S
N6527 C6525 1.384 . S
H6528 C6534 0.930 . S
H6529 C6538 0.930 . S
H6530 C6543 0.929 . S
H6531 C6541 0.929 . S
H6532 C6536 0.929 . S
H6533 C6542 0.929 . S
C6534 H6528 0.930 . S
C6534 C6535 1.367 . S
C6534 C6542 1.378 . S
C6535 C6534 1.367 . S
C6535 C6543 1.433 . S
C6536 H6532 0.929 . S
C6536 C6538 1.378 . S
C6536 C6540 1.350 . S
C6537 C6540 1.463 . S
C6537 C6542 1.350 . S
C6537 N6545 1.427 . S
C6538 H6529 0.930 . S
C6538 C6536 1.378 . S
C6538 C6539 1.367 . S
C6539 C6538 1.367 . S
C6539 C6541 1.433 . S
C6540 C6536 1.350 . S
C6540 C6537 1.463 . S
C6540 N6544 1.427 . S
C6541 H6531 0.929 . S
C6541 C6539 1.433 . S
C6541 N6544 1.384 . S
C6542 H6533 0.929 . S
C6542 C6534 1.378 . S
C6542 C6537 1.350 . S
C6543 H6530 0.929 . S
C6543 C6535 1.433 . S
C6543 N6545 1.384 . S
N6544 C6540 1.427 . S
N6544 C6541 1.384 . S
N6545 C6537 1.427 . S
N6545 C6543 1.384 . S
H6546 C6552 0.930 . S
H6547 C6556 0.930 . S
H6548 C6561 0.929 . S
H6549 C6559 0.929 . S
H6550 C6554 0.929 . S
H6551 C6560 0.929 . S
C6552 H6546 0.930 . S
C6552 C6553 1.367 . S
C6552 C6560 1.378 . S
C6553 C6552 1.367 . S
C6553 C6561 1.433 . S
C6554 H6550 0.929 . S
C6554 C6556 1.378 . S
C6554 C6558 1.350 . S
C6555 C6558 1.463 . S
C6555 C6560 1.350 . S
C6555 N6563 1.427 . S
C6556 H6547 0.930 . S
C6556 C6554 1.378 . S
C6556 C6557 1.367 . S
C6557 C6556 1.367 . S
C6557 C6559 1.433 . S
C6558 C6554 1.350 . S
C6558 C6555 1.463 . S
C6558 N6562 1.427 . S
C6559 H6549 0.929 . S
C6559 C6557 1.433 . S
C6559 N6562 1.384 . S
C6560 H6551 0.929 . S
C6560 C6552 1.378 . S
C6560 C6555 1.350 . S
C6561 H6548 0.929 . S
C6561 C6553 1.433 . S
C6561 N6563 1.384 . S
N6562 C6558 1.427 . S
N6562 C6559 1.384 . S
N6563 C6555 1.427 . S
N6563 C6561 1.384 . S
H6564 C6570 0.930 . S
H6565 C6574 0.930 . S
H6566 C6579 0.929 . S
H6567 C6577 0.929 . S
H6568 C6572 0.929 . S
H6569 C6578 0.929 . S
C6570 H6564 0.930 . S
C6570 C6571 1.367 . S
C6570 C6578 1.378 . S
C6571 C6570 1.367 . S
C6571 C6579 1.433 . S
C6572 H6568 0.929 . S
C6572 C6574 1.378 . S
C6572 C6576 1.350 . S
C6573 C6576 1.463 . S
C6573 C6578 1.350 . S
C6573 N6581 1.427 . S
C6574 H6565 0.930 . S
C6574 C6572 1.378 . S
C6574 C6575 1.367 . S
C6575 C6574 1.367 . S
C6575 C6577 1.433 . S
C6576 C6572 1.350 . S
C6576 C6573 1.463 . S
C6576 N6580 1.427 . S
C6577 H6567 0.929 . S
C6577 C6575 1.433 . S
C6577 N6580 1.384 . S
C6578 H6569 0.929 . S
C6578 C6570 1.378 . S
C6578 C6573 1.350 . S
C6579 H6566 0.929 . S
C6579 C6571 1.433 . S
C6579 N6581 1.384 . S
N6580 C6576 1.427 . S
N6580 C6577 1.384 . S
N6581 C6573 1.427 . S
N6581 C6579 1.384 . S
H6582 C6588 0.930 . S
H6583 C6592 0.930 . S
H6584 C6597 0.929 . S
H6585 C6595 0.929 . S
H6586 C6590 0.929 . S
H6587 C6596 0.929 . S
C6588 H6582 0.930 . S
C6588 C6589 1.367 . S
C6588 C6596 1.378 . S
C6589 C6588 1.367 . S
C6589 C6597 1.433 . S
C6590 H6586 0.929 . S
C6590 C6592 1.378 . S
C6590 C6594 1.350 . S
C6591 C6594 1.463 . S
C6591 C6596 1.350 . S
C6591 N6599 1.427 . S
C6592 H6583 0.930 . S
C6592 C6590 1.378 . S
C6592 C6593 1.367 . S
C6593 C6592 1.367 . S
C6593 C6595 1.433 . S
C6594 C6590 1.350 . S
C6594 C6591 1.463 . S
C6594 N6598 1.427 . S
C6595 H6585 0.929 . S
C6595 C6593 1.433 . S
C6595 N6598 1.384 . S
C6596 H6587 0.929 . S
C6596 C6588 1.378 . S
C6596 C6591 1.350 . S
C6597 H6584 0.929 . S
C6597 C6589 1.433 . S
C6597 N6599 1.384 . S
N6598 C6594 1.427 . S
N6598 C6595 1.384 . S
N6599 C6591 1.427 . S
N6599 C6597 1.384 . S
H6600 C6606 0.930 . S
H6601 C6610 0.930 . S
H6602 C6615 0.929 . S
H6603 C6613 0.929 . S
H6604 C6608 0.929 . S
H6605 C6614 0.929 . S
C6606 H6600 0.930 . S
C6606 C6607 1.367 . S
C6606 C6614 1.378 . S
C6607 C6606 1.367 . S
C6607 C6615 1.433 . S
C6608 H6604 0.929 . S
C6608 C6610 1.378 . S
C6608 C6612 1.350 . S
C6609 C6612 1.463 . S
C6609 C6614 1.350 . S
C6609 N6617 1.427 . S
C6610 H6601 0.930 . S
C6610 C6608 1.378 . S
C6610 C6611 1.367 . S
C6611 C6610 1.367 . S
C6611 C6613 1.433 . S
C6612 C6608 1.350 . S
C6612 C6609 1.463 . S
C6612 N6616 1.427 . S
C6613 H6603 0.929 . S
C6613 C6611 1.433 . S
C6613 N6616 1.384 . S
C6614 H6605 0.929 . S
C6614 C6606 1.378 . S
C6614 C6609 1.350 . S
C6615 H6602 0.929 . S
C6615 C6607 1.433 . S
C6615 N6617 1.384 . S
N6616 C6612 1.427 . S
N6616 C6613 1.384 . S
N6617 C6609 1.427 . S
N6617 C6615 1.384 . S
H6618 C6624 0.930 . S
H6619 C6628 0.930 . S
H6620 C6633 0.929 . S
H6621 C6631 0.929 . S
H6622 C6626 0.929 . S
H6623 C6632 0.929 . S
C6624 H6618 0.930 . S
C6624 C6625 1.367 . S
C6624 C6632 1.378 . S
C6625 C6624 1.367 . S
C6625 C6633 1.433 . S
C6626 H6622 0.929 . S
C6626 C6628 1.378 . S
C6626 C6630 1.350 . S
C6627 C6630 1.463 . S
C6627 C6632 1.350 . S
C6627 N6635 1.427 . S
C6628 H6619 0.930 . S
C6628 C6626 1.378 . S
C6628 C6629 1.367 . S
C6629 C6628 1.367 . S
C6629 C6631 1.433 . S
C6630 C6626 1.350 . S
C6630 C6627 1.463 . S
C6630 N6634 1.427 . S
C6631 H6621 0.929 . S
C6631 C6629 1.433 . S
C6631 N6634 1.384 . S
C6632 H6623 0.929 . S
C6632 C6624 1.378 . S
C6632 C6627 1.350 . S
C6633 H6620 0.929 . S
C6633 C6625 1.433 . S
C6633 N6635 1.384 . S
N6634 C6630 1.427 . S
N6634 C6631 1.384 . S
N6635 C6627 1.427 . S
N6635 C6633 1.384 . S
H6636 C6642 0.930 . S
H6637 C6646 0.930 . S
H6638 C6651 0.929 . S
H6639 C6649 0.929 . S
H6640 C6644 0.929 . S
H6641 C6650 0.929 . S
C6642 H6636 0.930 . S
C6642 C6643 1.367 . S
C6642 C6650 1.378 . S
C6643 C6642 1.367 . S
C6643 C6651 1.433 . S
C6644 H6640 0.929 . S
C6644 C6646 1.378 . S
C6644 C6648 1.350 . S
C6645 C6648 1.463 . S
C6645 C6650 1.350 . S
C6645 N6653 1.427 . S
C6646 H6637 0.930 . S
C6646 C6644 1.378 . S
C6646 C6647 1.367 . S
C6647 C6646 1.367 . S
C6647 C6649 1.433 . S
C6648 C6644 1.350 . S
C6648 C6645 1.463 . S
C6648 N6652 1.427 . S
C6649 H6639 0.929 . S
C6649 C6647 1.433 . S
C6649 N6652 1.384 . S
C6650 H6641 0.929 . S
C6650 C6642 1.378 . S
C6650 C6645 1.350 . S
C6651 H6638 0.929 . S
C6651 C6643 1.433 . S
C6651 N6653 1.384 . S
N6652 C6648 1.427 . S
N6652 C6649 1.384 . S
N6653 C6645 1.427 . S
N6653 C6651 1.384 . S
H6654 C6660 0.930 . S
H6655 C6664 0.930 . S
H6656 C6669 0.929 . S
H6657 C6667 0.929 . S
H6658 C6662 0.929 . S
H6659 C6668 0.929 . S
C6660 H6654 0.930 . S
C6660 C6661 1.367 . S
C6660 C6668 1.378 . S
C6661 C6660 1.367 . S
C6661 C6669 1.433 . S
C6662 H6658 0.929 . S
C6662 C6664 1.378 . S
C6662 C6666 1.350 . S
C6663 C6666 1.463 . S
C6663 C6668 1.350 . S
C6663 N6671 1.427 . S
C6664 H6655 0.930 . S
C6664 C6662 1.378 . S
C6664 C6665 1.367 . S
C6665 C6664 1.367 . S
C6665 C6667 1.433 . S
C6666 C6662 1.350 . S
C6666 C6663 1.463 . S
C6666 N6670 1.427 . S
C6667 H6657 0.929 . S
C6667 C6665 1.433 . S
C6667 N6670 1.384 . S
C6668 H6659 0.929 . S
C6668 C6660 1.378 . S
C6668 C6663 1.350 . S
C6669 H6656 0.929 . S
C6669 C6661 1.433 . S
C6669 N6671 1.384 . S
N6670 C6666 1.427 . S
N6670 C6667 1.384 . S
N6671 C6663 1.427 . S
N6671 C6669 1.384 . S
H6672 C6678 0.930 . S
H6673 C6682 0.930 . S
H6674 C6687 0.929 . S
H6675 C6685 0.929 . S
H6676 C6680 0.929 . S
H6677 C6686 0.929 . S
C6678 H6672 0.930 . S
C6678 C6679 1.367 . S
C6678 C6686 1.378 . S
C6679 C6678 1.367 . S
C6679 C6687 1.433 . S
C6680 H6676 0.929 . S
C6680 C6682 1.378 . S
C6680 C6684 1.350 . S
C6681 C6684 1.463 . S
C6681 C6686 1.350 . S
C6681 N6689 1.427 . S
C6682 H6673 0.930 . S
C6682 C6680 1.378 . S
C6682 C6683 1.367 . S
C6683 C6682 1.367 . S
C6683 C6685 1.433 . S
C6684 C6680 1.350 . S
C6684 C6681 1.463 . S
C6684 N6688 1.427 . S
C6685 H6675 0.929 . S
C6685 C6683 1.433 . S
C6685 N6688 1.384 . S
C6686 H6677 0.929 . S
C6686 C6678 1.378 . S
C6686 C6681 1.350 . S
C6687 H6674 0.929 . S
C6687 C6679 1.433 . S
C6687 N6689 1.384 . S
N6688 C6684 1.427 . S
N6688 C6685 1.384 . S
N6689 C6681 1.427 . S
N6689 C6687 1.384 . S
H6690 C6696 0.930 . S
H6691 C6700 0.930 . S
H6692 C6705 0.929 . S
H6693 C6703 0.929 . S
H6694 C6698 0.929 . S
H6695 C6704 0.929 . S
C6696 H6690 0.930 . S
C6696 C6697 1.367 . S
C6696 C6704 1.378 . S
C6697 C6696 1.367 . S
C6697 C6705 1.433 . S
C6698 H6694 0.929 . S
C6698 C6700 1.378 . S
C6698 C6702 1.350 . S
C6699 C6702 1.463 . S
C6699 C6704 1.350 . S
C6699 N6707 1.427 . S
C6700 H6691 0.930 . S
C6700 C6698 1.378 . S
C6700 C6701 1.367 . S
C6701 C6700 1.367 . S
C6701 C6703 1.433 . S
C6702 C6698 1.350 . S
C6702 C6699 1.463 . S
C6702 N6706 1.427 . S
C6703 H6693 0.929 . S
C6703 C6701 1.433 . S
C6703 N6706 1.384 . S
C6704 H6695 0.929 . S
C6704 C6696 1.378 . S
C6704 C6699 1.350 . S
C6705 H6692 0.929 . S
C6705 C6697 1.433 . S
C6705 N6707 1.384 . S
N6706 C6702 1.427 . S
N6706 C6703 1.384 . S
N6707 C6699 1.427 . S
N6707 C6705 1.384 . S
H6708 C6714 0.930 . S
H6709 C6718 0.930 . S
H6710 C6723 0.929 . S
H6711 C6721 0.929 . S
H6712 C6716 0.929 . S
H6713 C6722 0.929 . S
C6714 H6708 0.930 . S
C6714 C6715 1.367 . S
C6714 C6722 1.378 . S
C6715 C6714 1.367 . S
C6715 C6723 1.433 . S
C6716 H6712 0.929 . S
C6716 C6718 1.378 . S
C6716 C6720 1.350 . S
C6717 C6720 1.463 . S
C6717 C6722 1.350 . S
C6717 N6725 1.427 . S
C6718 H6709 0.930 . S
C6718 C6716 1.378 . S
C6718 C6719 1.367 . S
C6719 C6718 1.367 . S
C6719 C6721 1.433 . S
C6720 C6716 1.350 . S
C6720 C6717 1.463 . S
C6720 N6724 1.427 . S
C6721 H6711 0.929 . S
C6721 C6719 1.433 . S
C6721 N6724 1.384 . S
C6722 H6713 0.929 . S
C6722 C6714 1.378 . S
C6722 C6717 1.350 . S
C6723 H6710 0.929 . S
C6723 C6715 1.433 . S
C6723 N6725 1.384 . S
N6724 C6720 1.427 . S
N6724 C6721 1.384 . S
N6725 C6717 1.427 . S
N6725 C6723 1.384 . S
H6726 C6732 0.930 . S
H6727 C6736 0.930 . S
H6728 C6741 0.929 . S
H6729 C6739 0.929 . S
H6730 C6734 0.929 . S
H6731 C6740 0.929 . S
C6732 H6726 0.930 . S
C6732 C6733 1.367 . S
C6732 C6740 1.378 . S
C6733 C6732 1.367 . S
C6733 C6741 1.433 . S
C6734 H6730 0.929 . S
C6734 C6736 1.378 . S
C6734 C6738 1.350 . S
C6735 C6738 1.463 . S
C6735 C6740 1.350 . S
C6735 N6743 1.427 . S
C6736 H6727 0.930 . S
C6736 C6734 1.378 . S
C6736 C6737 1.367 . S
C6737 C6736 1.367 . S
C6737 C6739 1.433 . S
C6738 C6734 1.350 . S
C6738 C6735 1.463 . S
C6738 N6742 1.427 . S
C6739 H6729 0.929 . S
C6739 C6737 1.433 . S
C6739 N6742 1.384 . S
C6740 H6731 0.929 . S
C6740 C6732 1.378 . S
C6740 C6735 1.350 . S
C6741 H6728 0.929 . S
C6741 C6733 1.433 . S
C6741 N6743 1.384 . S
N6742 C6738 1.427 . S
N6742 C6739 1.384 . S
N6743 C6735 1.427 . S
N6743 C6741 1.384 . S
H6744 C6750 0.930 . S
H6745 C6754 0.930 . S
H6746 C6759 0.929 . S
H6747 C6757 0.929 . S
H6748 C6752 0.929 . S
H6749 C6758 0.929 . S
C6750 H6744 0.930 . S
C6750 C6751 1.367 . S
C6750 C6758 1.378 . S
C6751 C6750 1.367 . S
C6751 C6759 1.433 . S
C6752 H6748 0.929 . S
C6752 C6754 1.378 . S
C6752 C6756 1.350 . S
C6753 C6756 1.463 . S
C6753 C6758 1.350 . S
C6753 N6761 1.427 . S
C6754 H6745 0.930 . S
C6754 C6752 1.378 . S
C6754 C6755 1.367 . S
C6755 C6754 1.367 . S
C6755 C6757 1.433 . S
C6756 C6752 1.350 . S
C6756 C6753 1.463 . S
C6756 N6760 1.427 . S
C6757 H6747 0.929 . S
C6757 C6755 1.433 . S
C6757 N6760 1.384 . S
C6758 H6749 0.929 . S
C6758 C6750 1.378 . S
C6758 C6753 1.350 . S
C6759 H6746 0.929 . S
C6759 C6751 1.433 . S
C6759 N6761 1.384 . S
N6760 C6756 1.427 . S
N6760 C6757 1.384 . S
N6761 C6753 1.427 . S
N6761 C6759 1.384 . S
H6762 C6768 0.930 . S
H6763 C6772 0.930 . S
H6764 C6777 0.929 . S
H6765 C6775 0.929 . S
H6766 C6770 0.929 . S
H6767 C6776 0.929 . S
C6768 H6762 0.930 . S
C6768 C6769 1.367 . S
C6768 C6776 1.378 . S
C6769 C6768 1.367 . S
C6769 C6777 1.433 . S
C6770 H6766 0.929 . S
C6770 C6772 1.378 . S
C6770 C6774 1.350 . S
C6771 C6774 1.463 . S
C6771 C6776 1.350 . S
C6771 N6779 1.427 . S
C6772 H6763 0.930 . S
C6772 C6770 1.378 . S
C6772 C6773 1.367 . S
C6773 C6772 1.367 . S
C6773 C6775 1.433 . S
C6774 C6770 1.350 . S
C6774 C6771 1.463 . S
C6774 N6778 1.427 . S
C6775 H6765 0.929 . S
C6775 C6773 1.433 . S
C6775 N6778 1.384 . S
C6776 H6767 0.929 . S
C6776 C6768 1.378 . S
C6776 C6771 1.350 . S
C6777 H6764 0.929 . S
C6777 C6769 1.433 . S
C6777 N6779 1.384 . S
N6778 C6774 1.427 . S
N6778 C6775 1.384 . S
N6779 C6771 1.427 . S
N6779 C6777 1.384 . S
H6780 C6786 0.930 . S
H6781 C6790 0.930 . S
H6782 C6795 0.929 . S
H6783 C6793 0.929 . S
H6784 C6788 0.929 . S
H6785 C6794 0.929 . S
C6786 H6780 0.930 . S
C6786 C6787 1.367 . S
C6786 C6794 1.378 . S
C6787 C6786 1.367 . S
C6787 C6795 1.433 . S
C6788 H6784 0.929 . S
C6788 C6790 1.378 . S
C6788 C6792 1.350 . S
C6789 C6792 1.463 . S
C6789 C6794 1.350 . S
C6789 N6797 1.427 . S
C6790 H6781 0.930 . S
C6790 C6788 1.378 . S
C6790 C6791 1.367 . S
C6791 C6790 1.367 . S
C6791 C6793 1.433 . S
C6792 C6788 1.350 . S
C6792 C6789 1.463 . S
C6792 N6796 1.427 . S
C6793 H6783 0.929 . S
C6793 C6791 1.433 . S
C6793 N6796 1.384 . S
C6794 H6785 0.929 . S
C6794 C6786 1.378 . S
C6794 C6789 1.350 . S
C6795 H6782 0.929 . S
C6795 C6787 1.433 . S
C6795 N6797 1.384 . S
N6796 C6792 1.427 . S
N6796 C6793 1.384 . S
N6797 C6789 1.427 . S
N6797 C6795 1.384 . S
H6798 C6804 0.930 . S
H6799 C6808 0.930 . S
H6800 C6813 0.929 . S
H6801 C6811 0.929 . S
H6802 C6806 0.929 . S
H6803 C6812 0.929 . S
C6804 H6798 0.930 . S
C6804 C6805 1.367 . S
C6804 C6812 1.378 . S
C6805 C6804 1.367 . S
C6805 C6813 1.433 . S
C6806 H6802 0.929 . S
C6806 C6808 1.378 . S
C6806 C6810 1.350 . S
C6807 C6810 1.463 . S
C6807 C6812 1.350 . S
C6807 N6815 1.427 . S
C6808 H6799 0.930 . S
C6808 C6806 1.378 . S
C6808 C6809 1.367 . S
C6809 C6808 1.367 . S
C6809 C6811 1.433 . S
C6810 C6806 1.350 . S
C6810 C6807 1.463 . S
C6810 N6814 1.427 . S
C6811 H6801 0.929 . S
C6811 C6809 1.433 . S
C6811 N6814 1.384 . S
C6812 H6803 0.929 . S
C6812 C6804 1.378 . S
C6812 C6807 1.350 . S
C6813 H6800 0.929 . S
C6813 C6805 1.433 . S
C6813 N6815 1.384 . S
N6814 C6810 1.427 . S
N6814 C6811 1.384 . S
N6815 C6807 1.427 . S
N6815 C6813 1.384 . S
H6816 C6822 0.930 . S
H6817 C6826 0.930 . S
H6818 C6831 0.929 . S
H6819 C6829 0.929 . S
H6820 C6824 0.929 . S
H6821 C6830 0.929 . S
C6822 H6816 0.930 . S
C6822 C6823 1.367 . S
C6822 C6830 1.378 . S
C6823 C6822 1.367 . S
C6823 C6831 1.433 . S
C6824 H6820 0.929 . S
C6824 C6826 1.378 . S
C6824 C6828 1.350 . S
C6825 C6828 1.463 . S
C6825 C6830 1.350 . S
C6825 N6833 1.427 . S
C6826 H6817 0.930 . S
C6826 C6824 1.378 . S
C6826 C6827 1.367 . S
C6827 C6826 1.367 . S
C6827 C6829 1.433 . S
C6828 C6824 1.350 . S
C6828 C6825 1.463 . S
C6828 N6832 1.427 . S
C6829 H6819 0.929 . S
C6829 C6827 1.433 . S
C6829 N6832 1.384 . S
C6830 H6821 0.929 . S
C6830 C6822 1.378 . S
C6830 C6825 1.350 . S
C6831 H6818 0.929 . S
C6831 C6823 1.433 . S
C6831 N6833 1.384 . S
N6832 C6828 1.427 . S
N6832 C6829 1.384 . S
N6833 C6825 1.427 . S
N6833 C6831 1.384 . S
H6834 C6840 0.930 . S
H6835 C6844 0.930 . S
H6836 C6849 0.929 . S
H6837 C6847 0.929 . S
H6838 C6842 0.929 . S
H6839 C6848 0.929 . S
C6840 H6834 0.930 . S
C6840 C6841 1.367 . S
C6840 C6848 1.378 . S
C6841 C6840 1.367 . S
C6841 C6849 1.433 . S
C6842 H6838 0.929 . S
C6842 C6844 1.378 . S
C6842 C6846 1.350 . S
C6843 C6846 1.463 . S
C6843 C6848 1.350 . S
C6843 N6851 1.427 . S
C6844 H6835 0.930 . S
C6844 C6842 1.378 . S
C6844 C6845 1.367 . S
C6845 C6844 1.367 . S
C6845 C6847 1.433 . S
C6846 C6842 1.350 . S
C6846 C6843 1.463 . S
C6846 N6850 1.427 . S
C6847 H6837 0.929 . S
C6847 C6845 1.433 . S
C6847 N6850 1.384 . S
C6848 H6839 0.929 . S
C6848 C6840 1.378 . S
C6848 C6843 1.350 . S
C6849 H6836 0.929 . S
C6849 C6841 1.433 . S
C6849 N6851 1.384 . S
N6850 C6846 1.427 . S
N6850 C6847 1.384 . S
N6851 C6843 1.427 . S
N6851 C6849 1.384 . S
H6852 C6858 0.930 . S
H6853 C6862 0.930 . S
H6854 C6867 0.929 . S
H6855 C6865 0.929 . S
H6856 C6860 0.929 . S
H6857 C6866 0.929 . S
C6858 H6852 0.930 . S
C6858 C6859 1.367 . S
C6858 C6866 1.378 . S
C6859 C6858 1.367 . S
C6859 C6867 1.433 . S
C6860 H6856 0.929 . S
C6860 C6862 1.378 . S
C6860 C6864 1.350 . S
C6861 C6864 1.463 . S
C6861 C6866 1.350 . S
C6861 N6869 1.427 . S
C6862 H6853 0.930 . S
C6862 C6860 1.378 . S
C6862 C6863 1.367 . S
C6863 C6862 1.367 . S
C6863 C6865 1.433 . S
C6864 C6860 1.350 . S
C6864 C6861 1.463 . S
C6864 N6868 1.427 . S
C6865 H6855 0.929 . S
C6865 C6863 1.433 . S
C6865 N6868 1.384 . S
C6866 H6857 0.929 . S
C6866 C6858 1.378 . S
C6866 C6861 1.350 . S
C6867 H6854 0.929 . S
C6867 C6859 1.433 . S
C6867 N6869 1.384 . S
N6868 C6864 1.427 . S
N6868 C6865 1.384 . S
N6869 C6861 1.427 . S
N6869 C6867 1.384 . S
H6870 C6876 0.930 . S
H6871 C6880 0.930 . S
H6872 C6885 0.929 . S
H6873 C6883 0.929 . S
H6874 C6878 0.929 . S
H6875 C6884 0.929 . S
C6876 H6870 0.930 . S
C6876 C6877 1.367 . S
C6876 C6884 1.378 . S
C6877 C6876 1.367 . S
C6877 C6885 1.433 . S
C6878 H6874 0.929 . S
C6878 C6880 1.378 . S
C6878 C6882 1.350 . S
C6879 C6882 1.463 . S
C6879 C6884 1.350 . S
C6879 N6887 1.427 . S
C6880 H6871 0.930 . S
C6880 C6878 1.378 . S
C6880 C6881 1.367 . S
C6881 C6880 1.367 . S
C6881 C6883 1.433 . S
C6882 C6878 1.350 . S
C6882 C6879 1.463 . S
C6882 N6886 1.427 . S
C6883 H6873 0.929 . S
C6883 C6881 1.433 . S
C6883 N6886 1.384 . S
C6884 H6875 0.929 . S
C6884 C6876 1.378 . S
C6884 C6879 1.350 . S
C6885 H6872 0.929 . S
C6885 C6877 1.433 . S
C6885 N6887 1.384 . S
N6886 C6882 1.427 . S
N6886 C6883 1.384 . S
N6887 C6879 1.427 . S
N6887 C6885 1.384 . S
H6888 C6894 0.930 . S
H6889 C6898 0.930 . S
H6890 C6903 0.929 . S
H6891 C6901 0.929 . S
H6892 C6896 0.929 . S
H6893 C6902 0.929 . S
C6894 H6888 0.930 . S
C6894 C6895 1.367 . S
C6894 C6902 1.378 . S
C6895 C6894 1.367 . S
C6895 C6903 1.433 . S
C6896 H6892 0.929 . S
C6896 C6898 1.378 . S
C6896 C6900 1.350 . S
C6897 C6900 1.463 . S
C6897 C6902 1.350 . S
C6897 N6905 1.427 . S
C6898 H6889 0.930 . S
C6898 C6896 1.378 . S
C6898 C6899 1.367 . S
C6899 C6898 1.367 . S
C6899 C6901 1.433 . S
C6900 C6896 1.350 . S
C6900 C6897 1.463 . S
C6900 N6904 1.427 . S
C6901 H6891 0.929 . S
C6901 C6899 1.433 . S
C6901 N6904 1.384 . S
C6902 H6893 0.929 . S
C6902 C6894 1.378 . S
C6902 C6897 1.350 . S
C6903 H6890 0.929 . S
C6903 C6895 1.433 . S
C6903 N6905 1.384 . S
N6904 C6900 1.427 . S
N6904 C6901 1.384 . S
N6905 C6897 1.427 . S
N6905 C6903 1.384 . S
H6906 C6912 0.930 . S
H6907 C6916 0.930 . S
H6908 C6921 0.929 . S
H6909 C6919 0.929 . S
H6910 C6914 0.929 . S
H6911 C6920 0.929 . S
C6912 H6906 0.930 . S
C6912 C6913 1.367 . S
C6912 C6920 1.378 . S
C6913 C6912 1.367 . S
C6913 C6921 1.433 . S
C6914 H6910 0.929 . S
C6914 C6916 1.378 . S
C6914 C6918 1.350 . S
C6915 C6918 1.463 . S
C6915 C6920 1.350 . S
C6915 N6923 1.427 . S
C6916 H6907 0.930 . S
C6916 C6914 1.378 . S
C6916 C6917 1.367 . S
C6917 C6916 1.367 . S
C6917 C6919 1.433 . S
C6918 C6914 1.350 . S
C6918 C6915 1.463 . S
C6918 N6922 1.427 . S
C6919 H6909 0.929 . S
C6919 C6917 1.433 . S
C6919 N6922 1.384 . S
C6920 H6911 0.929 . S
C6920 C6912 1.378 . S
C6920 C6915 1.350 . S
C6921 H6908 0.929 . S
C6921 C6913 1.433 . S
C6921 N6923 1.384 . S
N6922 C6918 1.427 . S
N6922 C6919 1.384 . S
N6923 C6915 1.427 . S
N6923 C6921 1.384 . S
H6924 C6930 0.930 . S
H6925 C6934 0.930 . S
H6926 C6939 0.929 . S
H6927 C6937 0.929 . S
H6928 C6932 0.929 . S
H6929 C6938 0.929 . S
C6930 H6924 0.930 . S
C6930 C6931 1.367 . S
C6930 C6938 1.378 . S
C6931 C6930 1.367 . S
C6931 C6939 1.433 . S
C6932 H6928 0.929 . S
C6932 C6934 1.378 . S
C6932 C6936 1.350 . S
C6933 C6936 1.463 . S
C6933 C6938 1.350 . S
C6933 N6941 1.427 . S
C6934 H6925 0.930 . S
C6934 C6932 1.378 . S
C6934 C6935 1.367 . S
C6935 C6934 1.367 . S
C6935 C6937 1.433 . S
C6936 C6932 1.350 . S
C6936 C6933 1.463 . S
C6936 N6940 1.427 . S
C6937 H6927 0.929 . S
C6937 C6935 1.433 . S
C6937 N6940 1.384 . S
C6938 H6929 0.929 . S
C6938 C6930 1.378 . S
C6938 C6933 1.350 . S
C6939 H6926 0.929 . S
C6939 C6931 1.433 . S
C6939 N6941 1.384 . S
N6940 C6936 1.427 . S
N6940 C6937 1.384 . S
N6941 C6933 1.427 . S
N6941 C6939 1.384 . S
H6942 C6948 0.930 . S
H6943 C6952 0.930 . S
H6944 C6957 0.929 . S
H6945 C6955 0.929 . S
H6946 C6950 0.929 . S
H6947 C6956 0.929 . S
C6948 H6942 0.930 . S
C6948 C6949 1.367 . S
C6948 C6956 1.378 . S
C6949 C6948 1.367 . S
C6949 C6957 1.433 . S
C6950 H6946 0.929 . S
C6950 C6952 1.378 . S
C6950 C6954 1.350 . S
C6951 C6954 1.463 . S
C6951 C6956 1.350 . S
C6951 N6959 1.427 . S
C6952 H6943 0.930 . S
C6952 C6950 1.378 . S
C6952 C6953 1.367 . S
C6953 C6952 1.367 . S
C6953 C6955 1.433 . S
C6954 C6950 1.350 . S
C6954 C6951 1.463 . S
C6954 N6958 1.427 . S
C6955 H6945 0.929 . S
C6955 C6953 1.433 . S
C6955 N6958 1.384 . S
C6956 H6947 0.929 . S
C6956 C6948 1.378 . S
C6956 C6951 1.350 . S
C6957 H6944 0.929 . S
C6957 C6949 1.433 . S
C6957 N6959 1.384 . S
N6958 C6954 1.427 . S
N6958 C6955 1.384 . S
N6959 C6951 1.427 . S
N6959 C6957 1.384 . S
H6960 C6966 0.930 . S
H6961 C6970 0.930 . S
H6962 C6975 0.929 . S
H6963 C6973 0.929 . S
H6964 C6968 0.929 . S
H6965 C6974 0.929 . S
C6966 H6960 0.930 . S
C6966 C6967 1.367 . S
C6966 C6974 1.378 . S
C6967 C6966 1.367 . S
C6967 C6975 1.433 . S
C6968 H6964 0.929 . S
C6968 C6970 1.378 . S
C6968 C6972 1.350 . S
C6969 C6972 1.463 . S
C6969 C6974 1.350 . S
C6969 N6977 1.427 . S
C6970 H6961 0.930 . S
C6970 C6968 1.378 . S
C6970 C6971 1.367 . S
C6971 C6970 1.367 . S
C6971 C6973 1.433 . S
C6972 C6968 1.350 . S
C6972 C6969 1.463 . S
C6972 N6976 1.427 . S
C6973 H6963 0.929 . S
C6973 C6971 1.433 . S
C6973 N6976 1.384 . S
C6974 H6965 0.929 . S
C6974 C6966 1.378 . S
C6974 C6969 1.350 . S
C6975 H6962 0.929 . S
C6975 C6967 1.433 . S
C6975 N6977 1.384 . S
N6976 C6972 1.427 . S
N6976 C6973 1.384 . S
N6977 C6969 1.427 . S
N6977 C6975 1.384 . S
H6978 C6984 0.930 . S
H6979 C6988 0.930 . S
H6980 C6993 0.929 . S
H6981 C6991 0.929 . S
H6982 C6986 0.929 . S
H6983 C6992 0.929 . S
C6984 H6978 0.930 . S
C6984 C6985 1.367 . S
C6984 C6992 1.378 . S
C6985 C6984 1.367 . S
C6985 C6993 1.433 . S
C6986 H6982 0.929 . S
C6986 C6988 1.378 . S
C6986 C6990 1.350 . S
C6987 C6990 1.463 . S
C6987 C6992 1.350 . S
C6987 N6995 1.427 . S
C6988 H6979 0.930 . S
C6988 C6986 1.378 . S
C6988 C6989 1.367 . S
C6989 C6988 1.367 . S
C6989 C6991 1.433 . S
C6990 C6986 1.350 . S
C6990 C6987 1.463 . S
C6990 N6994 1.427 . S
C6991 H6981 0.929 . S
C6991 C6989 1.433 . S
C6991 N6994 1.384 . S
C6992 H6983 0.929 . S
C6992 C6984 1.378 . S
C6992 C6987 1.350 . S
C6993 H6980 0.929 . S
C6993 C6985 1.433 . S
C6993 N6995 1.384 . S
N6994 C6990 1.427 . S
N6994 C6991 1.384 . S
N6995 C6987 1.427 . S
N6995 C6993 1.384 . S
H6996 C7002 0.930 . S
H6997 C7006 0.930 . S
H6998 C7011 0.929 . S
H6999 C7009 0.929 . S
H7000 C7004 0.929 . S
H7001 C7010 0.929 . S
C7002 H6996 0.930 . S
C7002 C7003 1.367 . S
C7002 C7010 1.378 . S
C7003 C7002 1.367 . S
C7003 C7011 1.433 . S
C7004 H7000 0.929 . S
C7004 C7006 1.378 . S
C7004 C7008 1.350 . S
C7005 C7008 1.463 . S
C7005 C7010 1.350 . S
C7005 N7013 1.427 . S
C7006 H6997 0.930 . S
C7006 C7004 1.378 . S
C7006 C7007 1.367 . S
C7007 C7006 1.367 . S
C7007 C7009 1.433 . S
C7008 C7004 1.350 . S
C7008 C7005 1.463 . S
C7008 N7012 1.427 . S
C7009 H6999 0.929 . S
C7009 C7007 1.433 . S
C7009 N7012 1.384 . S
C7010 H7001 0.929 . S
C7010 C7002 1.378 . S
C7010 C7005 1.350 . S
C7011 H6998 0.929 . S
C7011 C7003 1.433 . S
C7011 N7013 1.384 . S
N7012 C7008 1.427 . S
N7012 C7009 1.384 . S
N7013 C7005 1.427 . S
N7013 C7011 1.384 . S
H7014 C7020 0.930 . S
H7015 C7024 0.930 . S
H7016 C7029 0.929 . S
H7017 C7027 0.929 . S
H7018 C7022 0.929 . S
H7019 C7028 0.929 . S
C7020 H7014 0.930 . S
C7020 C7021 1.367 . S
C7020 C7028 1.378 . S
C7021 C7020 1.367 . S
C7021 C7029 1.433 . S
C7022 H7018 0.929 . S
C7022 C7024 1.378 . S
C7022 C7026 1.350 . S
C7023 C7026 1.463 . S
C7023 C7028 1.350 . S
C7023 N7031 1.427 . S
C7024 H7015 0.930 . S
C7024 C7022 1.378 . S
C7024 C7025 1.367 . S
C7025 C7024 1.367 . S
C7025 C7027 1.433 . S
C7026 C7022 1.350 . S
C7026 C7023 1.463 . S
C7026 N7030 1.427 . S
C7027 H7017 0.929 . S
C7027 C7025 1.433 . S
C7027 N7030 1.384 . S
C7028 H7019 0.929 . S
C7028 C7020 1.378 . S
C7028 C7023 1.350 . S
C7029 H7016 0.929 . S
C7029 C7021 1.433 . S
C7029 N7031 1.384 . S
N7030 C7026 1.427 . S
N7030 C7027 1.384 . S
N7031 C7023 1.427 . S
N7031 C7029 1.384 . S
H7032 C7038 0.930 . S
H7033 C7042 0.930 . S
H7034 C7047 0.929 . S
H7035 C7045 0.929 . S
H7036 C7040 0.929 . S
H7037 C7046 0.929 . S
C7038 H7032 0.930 . S
C7038 C7039 1.367 . S
C7038 C7046 1.378 . S
C7039 C7038 1.367 . S
C7039 C7047 1.433 . S
C7040 H7036 0.929 . S
C7040 C7042 1.378 . S
C7040 C7044 1.350 . S
C7041 C7044 1.463 . S
C7041 C7046 1.350 . S
C7041 N7049 1.427 . S
C7042 H7033 0.930 . S
C7042 C7040 1.378 . S
C7042 C7043 1.367 . S
C7043 C7042 1.367 . S
C7043 C7045 1.433 . S
C7044 C7040 1.350 . S
C7044 C7041 1.463 . S
C7044 N7048 1.427 . S
C7045 H7035 0.929 . S
C7045 C7043 1.433 . S
C7045 N7048 1.384 . S
C7046 H7037 0.929 . S
C7046 C7038 1.378 . S
C7046 C7041 1.350 . S
C7047 H7034 0.929 . S
C7047 C7039 1.433 . S
C7047 N7049 1.384 . S
N7048 C7044 1.427 . S
N7048 C7045 1.384 . S
N7049 C7041 1.427 . S
N7049 C7047 1.384 . S
H7050 C7056 0.930 . S
H7051 C7060 0.930 . S
H7052 C7065 0.929 . S
H7053 C7063 0.929 . S
H7054 C7058 0.929 . S
H7055 C7064 0.929 . S
C7056 H7050 0.930 . S
C7056 C7057 1.367 . S
C7056 C7064 1.378 . S
C7057 C7056 1.367 . S
C7057 C7065 1.433 . S
C7058 H7054 0.929 . S
C7058 C7060 1.378 . S
C7058 C7062 1.350 . S
C7059 C7062 1.463 . S
C7059 C7064 1.350 . S
C7059 N7067 1.427 . S
C7060 H7051 0.930 . S
C7060 C7058 1.378 . S
C7060 C7061 1.367 . S
C7061 C7060 1.367 . S
C7061 C7063 1.433 . S
C7062 C7058 1.350 . S
C7062 C7059 1.463 . S
C7062 N7066 1.427 . S
C7063 H7053 0.929 . S
C7063 C7061 1.433 . S
C7063 N7066 1.384 . S
C7064 H7055 0.929 . S
C7064 C7056 1.378 . S
C7064 C7059 1.350 . S
C7065 H7052 0.929 . S
C7065 C7057 1.433 . S
C7065 N7067 1.384 . S
N7066 C7062 1.427 . S
N7066 C7063 1.384 . S
N7067 C7059 1.427 . S
N7067 C7065 1.384 . S
H7068 C7074 0.930 . S
H7069 C7078 0.930 . S
H7070 C7083 0.929 . S
H7071 C7081 0.929 . S
H7072 C7076 0.929 . S
H7073 C7082 0.929 . S
C7074 H7068 0.930 . S
C7074 C7075 1.367 . S
C7074 C7082 1.378 . S
C7075 C7074 1.367 . S
C7075 C7083 1.433 . S
C7076 H7072 0.929 . S
C7076 C7078 1.378 . S
C7076 C7080 1.350 . S
C7077 C7080 1.463 . S
C7077 C7082 1.350 . S
C7077 N7085 1.427 . S
C7078 H7069 0.930 . S
C7078 C7076 1.378 . S
C7078 C7079 1.367 . S
C7079 C7078 1.367 . S
C7079 C7081 1.433 . S
C7080 C7076 1.350 . S
C7080 C7077 1.463 . S
C7080 N7084 1.427 . S
C7081 H7071 0.929 . S
C7081 C7079 1.433 . S
C7081 N7084 1.384 . S
C7082 H7073 0.929 . S
C7082 C7074 1.378 . S
C7082 C7077 1.350 . S
C7083 H7070 0.929 . S
C7083 C7075 1.433 . S
C7083 N7085 1.384 . S
N7084 C7080 1.427 . S
N7084 C7081 1.384 . S
N7085 C7077 1.427 . S
N7085 C7083 1.384 . S
H7086 C7092 0.930 . S
H7087 C7096 0.930 . S
H7088 C7101 0.929 . S
H7089 C7099 0.929 . S
H7090 C7094 0.929 . S
H7091 C7100 0.929 . S
C7092 H7086 0.930 . S
C7092 C7093 1.367 . S
C7092 C7100 1.378 . S
C7093 C7092 1.367 . S
C7093 C7101 1.433 . S
C7094 H7090 0.929 . S
C7094 C7096 1.378 . S
C7094 C7098 1.350 . S
C7095 C7098 1.463 . S
C7095 C7100 1.350 . S
C7095 N7103 1.427 . S
C7096 H7087 0.930 . S
C7096 C7094 1.378 . S
C7096 C7097 1.367 . S
C7097 C7096 1.367 . S
C7097 C7099 1.433 . S
C7098 C7094 1.350 . S
C7098 C7095 1.463 . S
C7098 N7102 1.427 . S
C7099 H7089 0.929 . S
C7099 C7097 1.433 . S
C7099 N7102 1.384 . S
C7100 H7091 0.929 . S
C7100 C7092 1.378 . S
C7100 C7095 1.350 . S
C7101 H7088 0.929 . S
C7101 C7093 1.433 . S
C7101 N7103 1.384 . S
N7102 C7098 1.427 . S
N7102 C7099 1.384 . S
N7103 C7095 1.427 . S
N7103 C7101 1.384 . S
C1927 C1508 1.297 . S
C1931 C9 1.402 . S
C1945 C488 1.445 1_455 S
C1949 C29 1.525 . S
C1963 C41 1.446 . S
C1967 C1468 1.348 . S
C1981 C69 0.810 . S
C1985 C526 0.792 . S
C1999 C89 0.846 . S
C2003 C1546 0.851 . S
C2017 C608 1.331 . S
C2021 C101 1.418 . S
C2035 C129 1.492 . S
C2039 C1588 1.423 . S
C2053 C149 1.421 . S
C2057 C568 1.314 . S
C2071 C161 1.178 . S
C2075 C1808 1.116 . S
C2089 C868 1.339 . S
C2093 C189 1.397 . S
C2107 C888 1.322 . S
C2111 C209 1.402 . S
C2125 C828 1.301 . S
C2129 C221 1.405 . S
C2143 C249 1.415 . S
C2147 C1888 1.325 . S
C2161 C269 1.408 . S
C2165 C1768 1.323 . S
C2179 C1908 1.340 . S
C2183 C289 1.404 . S
C2197 C301 1.199 . S
C2201 C1868 1.097 . S
C2215 C329 1.405 . S
C2219 C1628 1.325 . S
C2233 C786 0.777 . S
C2237 C349 0.786 . S
C2251 C1688 1.336 . S
C2255 C369 1.417 . S
C2269 C389 1.384 . S
C2273 C748 1.320 . S
C2287 C409 1.173 . S
C2291 C768 1.112 . S
C2305 C429 0.864 . S
C2309 C1666 0.865 . S
C2323 C449 0.658 . S
C2327 C1606 0.671 . S
C2341 C1648 1.303 . S
C2345 C469 1.370 . S
C2359 C481 1.405 . S
C2363 C1039 1.317 . S
C2377 C501 1.525 . S
C2381 C19 1.442 1_655 S
C2395 C529 1.446 . S
C2399 C999 1.347 . S
C2413 C56 0.815 . S
C2417 C541 0.805 . S
C2431 C1076 0.839 . S
C2435 C561 0.846 . S
C2449 C589 1.414 . S
C2453 C139 1.344 . S
C2467 C1119 1.423 . S
C2471 C601 1.492 . S
C2485 C621 1.420 . S
C2489 C99 1.314 . S
C2503 C649 1.178 . S
C2507 C1339 1.118 . S
C2521 C661 1.393 . S
C2525 C399 1.326 . S
C2539 C681 1.401 . S
C2543 C419 1.320 . S
C2557 C359 1.308 . S
C2561 C709 1.404 . S
C2575 C1419 1.310 . S
C2579 C721 1.418 . S
C2593 C741 1.413 . S
C2597 C1299 1.335 . S
C2611 C761 1.404 . S
C2615 C1439 1.341 . S
C2629 C1399 1.122 . S
C2633 C789 1.196 . S
C2647 C801 1.405 . S
C2651 C1159 1.327 . S
C2665 C821 0.779 . S
C2669 C316 0.788 . S
C2683 C1219 1.343 . S
C2687 C841 1.426 . S
C2701 C861 1.381 . S
C2705 C279 1.303 . S
C2719 C881 1.177 . S
C2723 C299 1.098 . S
C2737 C1196 0.843 . S
C2741 C901 0.860 . S
C2755 C1136 0.666 . S
C2759 C921 0.658 . S
C2773 C1179 1.294 . S
C2777 C941 1.373 . S
C2791 C969 1.407 . S
C2795 C548 1.307 . S
C2809 C1448 1.450 . S
C2813 C989 1.524 . S
C2827 C508 1.349 . S
C2831 C1001 1.444 . S
C2845 C1486 0.817 . S
C2849 C1029 0.815 . S
C2863 C1049 0.854 . S
C2867 C586 0.835 . S
C2881 C1061 1.418 . S
C2885 C1568 1.331 1_655 S
C2899 C628 1.404 . S
C2903 C1089 1.490 . S
C2917 C1528 1.329 . S
C2921 C1109 1.425 . S
C2935 C848 1.105 . S
C2939 C1121 1.180 . S
C2953 C1149 1.398 . S
C2957 C1828 1.339 1_556 S
C2971 C1169 1.403 . S
C2975 C1848 1.325 . S
C2989 C1788 1.287 . S
C2993 C1181 1.408 . S
C3007 C928 1.309 . S
C3011 C1209 1.423 . S
C3025 C808 1.336 1_554 S
C3029 C1229 1.402 . S
C3043 C948 1.323 . S
C3047 C1249 1.411 . S
C3061 C908 1.109 . S
C3065 C1261 1.198 . S
C3079 C668 1.339 . S
C3083 C1289 1.407 . S
C3097 C1746 0.774 . S
C3101 C1309 0.786 . S
C3115 C1329 1.423 . S
C3119 C728 1.330 1_565 S
C3133 C1708 1.308 . S
C3137 C1349 1.380 . S
C3151 C1728 1.120 . S
C3155 C1369 1.174 . S
C3169 C1389 0.862 . S
C3173 C706 0.865 . S
C3187 C1409 0.679 . S
C3191 C646 0.668 . S
C3205 C1429 1.363 . S
C3209 C688 1.301 1_565 S
C3223 C1441 1.404 . S
C3227 C79 1.297 . S
C3241 C979 1.436 . S
C3245 C1461 1.520 . S
C3259 C1489 1.444 . S
C3263 C39 1.352 . S
C3277 C1501 0.812 . S
C3281 C1016 0.793 . S
C3295 C1521 0.845 . S
C3299 C116 0.845 . S
C3313 C1099 1.334 1_455 S
C3317 C1549 1.417 . S
C3331 C159 1.405 . S
C3335 C1561 1.489 . S
C3349 C1581 1.422 . S
C3353 C1059 1.336 . S
C3367 C379 1.102 . S
C3371 C1609 1.180 . S
C3385 C1359 1.331 1_554 S
C3389 C1621 1.392 . S
C3403 C1641 1.403 . S
C3407 C1379 1.330 . S
C3421 C1669 1.404 . S
C3425 C1319 1.308 . S
C3439 C1681 1.424 . S
C3443 C459 1.311 . S
C3457 C1701 1.402 . S
C3461 C339 1.333 1_556 S
C3475 C1721 1.410 . S
C3479 C479 1.322 . S
C3493 C439 1.120 . S
C3497 C1749 1.196 . S
C3511 C199 1.330 . S
C3515 C1761 1.415 . S
C3529 C1781 0.782 . S
C3533 C1276 0.767 . S
C3547 C1801 1.426 . S
C3551 C259 1.334 1_545 S
C3565 C1821 1.388 . S
C3569 C1239 1.316 . S
C3583 C1259 1.108 . S
C3587 C1841 1.173 . S
C3601 C236 0.865 . S
C3605 C1861 0.860 . S
C3619 C176 0.661 . S
C3623 C1881 0.673 . S
C3637 C1901 1.365 . S
C3641 C219 1.305 1_545 S
C3655 C6 1.538 1_655 S
C3659 C406 1.544 . S
C3673 C1306 1.114 . S
C3677 C26 1.115 . S
C3691 C48 1.707 . S
C3695 C1326 1.758 . S
C3709 C66 1.401 . S
C3713 C1346 1.393 1_554 S
C3727 C86 1.395 . S
C3731 C1426 1.376 . S
C3745 C108 1.662 . S
C3749 C426 1.715 . S
C3763 C1406 1.310 . S
C3767 C126 1.316 . S
C3781 C326 1.575 1_556 S
C3785 C146 1.574 . S
C3799 C168 2.308 1_565 S
C3803 C308 2.304 . S
C3817 C246 1.458 1_545 S
C3821 C186 1.459 . S
C3835 C206 1.507 1_545 S
C3839 C266 1.504 . S
C3853 C228 1.893 . S
C3857 C286 1.879 1_565 S
C3871 C346 1.123 . S
C3875 C986 1.114 . S
C3889 C366 1.759 . S
C3893 C1008 1.692 1_455 S
C3907 C386 1.393 . S
C3911 C1026 1.400 . S
C3925 C446 1.303 . S
C3929 C1086 1.304 1_455 S
C3943 C1046 1.374 . S
C3947 C466 1.365 . S
C3961 C496 1.546 1_455 S
C3965 C896 1.546 . S
C3979 C516 1.121 . S
C3983 C1796 1.128 . S
C3997 C1816 1.763 . S
C4001 C539 1.707 . S
C4015 C1836 1.400 1_556 S
C4019 C556 1.405 . S
C4033 C576 1.396 . S
C4037 C1916 1.373 . S
C4051 C599 1.662 . S
C4055 C916 1.720 . S
C4069 C1896 1.304 . S
C4073 C616 1.312 . S
C4087 C636 1.574 . S
C4091 C816 1.575 1_554 S
C4105 C799 2.310 . S
C4109 C659 2.300 1_545 S
C4123 C736 1.456 1_565 S
C4127 C676 1.461 . S
C4141 C756 1.515 . S
C4145 C696 1.515 1_565 S
C4159 C719 1.895 . S
C4163 C776 1.878 1_545 S
C4177 C836 1.117 . S
C4181 C1476 1.110 . S
C4195 C1499 1.701 1_655 S
C4199 C856 1.764 . S
C4213 C1516 1.399 . S
C4217 C876 1.391 . S
C4231 C936 1.304 . S
C4235 C1576 1.312 1_655 S
C4249 C1536 1.382 . S
C4253 C956 1.373 . S
C4267 C1366 1.550 . S
C4271 C966 1.549 . S
C4285 C1386 1.720 . S
C4289 C1068 1.663 . S
C4303 C1286 1.577 . S
C4307 C1106 1.571 . S
C4321 C1128 2.304 . S
C4325 C1268 2.308 . S
C4339 C1146 1.467 . S
C4343 C1206 1.466 . S
C4357 C1226 1.510 . S
C4361 C1166 1.514 . S
C4375 C1246 1.932 . S
C4379 C1188 1.892 . S
C4393 C1456 1.549 . S
C4397 C1856 1.550 . S
C4411 C1876 1.721 . S
C4415 C1559 1.666 . S
C4429 C1596 1.573 . S
C4433 C1776 1.575 . S
C4447 C1619 2.301 . S
C4451 C1759 2.307 . S
C4465 C1696 1.466 . S
C4469 C1636 1.469 . S
C4483 C1716 1.506 . S
C4487 C1656 1.506 . S
C4501 C1679 1.890 . S
C4505 C1736 1.932 . S
C4519 C16 0.767 . S
C4523 C869 0.782 . S
C4537 C889 0.733 . S
C4541 C36 0.726 . S
C4555 C829 1.500 1_556 S
C4559 C59 1.391 . S
C4573 C1809 0.896 . S
C4577 C76 0.874 . S
C4591 C96 0.852 . S
C4595 C1869 0.862 1_554 S
C4609 C1889 1.248 . S
C4613 C119 1.156 . S
C4627 C136 0.765 . S
C4631 C1769 0.780 . S
C4645 C1909 0.836 . S
C4649 C156 0.821 . S
C4663 C521 1.111 . S
C4667 C179 1.038 . S
C4681 C1509 0.760 . S
C4685 C196 0.762 . S
C4699 C216 0.795 . S
C4703 C489 0.807 . S
C4717 C1469 1.496 . S
C4721 C239 1.384 . S
C4735 C256 0.941 . S
C4739 C609 0.972 . S
C4753 C276 0.836 . S
C4757 C1589 0.842 . S
C4771 C296 0.817 . S
C4775 C569 0.837 . S
C4789 C319 1.058 . S
C4793 C1541 1.138 . S
C4807 C336 0.845 . S
C4811 C1689 0.855 . S
C4825 C641 0.748 . S
C4829 C356 0.712 . S
C4843 C1629 0.767 . S
C4847 C376 0.757 . S
C4861 C396 0.799 . S
C4865 C689 0.804 . S
C4879 C416 0.802 . S
C4883 C701 0.804 . S
C4897 C436 0.708 . S
C4901 C1729 0.699 . S
C4915 C456 0.754 . S
C4919 C1741 0.760 . S
C4933 C476 0.736 . S
C4937 C1709 0.744 . S
C4951 C381 0.789 . S
C4955 C486 0.794 . S
C4969 C506 0.727 . S
C4973 C401 0.736 . S
C4987 C341 1.502 1_554 S
C4991 C528 1.395 . S
C5005 C546 0.862 . S
C5009 C1321 0.886 . S
C5023 C566 0.853 . S
C5027 C1381 0.863 1_556 S
C5041 C1401 1.242 . S
C5045 C588 1.153 . S
C5059 C1281 0.784 . S
C5063 C606 0.770 . S
C5077 C626 0.801 . S
C5081 C1421 0.823 . S
C5095 C49 1.118 . S
C5099 C648 1.054 . S
C5113 C666 0.742 . S
C5117 C1021 0.750 . S
C5131 C686 0.800 . S
C5135 C1 0.819 . S
C5149 C981 1.495 . S
C5153 C708 1.381 . S
C5167 C121 0.970 . S
C5171 C726 0.952 . S
C5185 C746 0.819 . S
C5189 C1101 0.838 . S
C5203 C766 0.801 . S
C5207 C81 0.838 . S
C5221 C1069 1.146 . S
C5225 C788 1.073 . S
C5239 C806 0.812 . S
C5243 C1201 0.834 . S
C5257 C826 0.727 . S
C5261 C169 0.717 . S
C5275 C1141 0.771 . S
C5279 C846 0.757 . S
C5293 C866 0.803 . S
C5297 C201 0.804 . S
C5311 C229 0.795 . S
C5315 C886 0.792 . S
C5329 C906 0.721 . S
C5333 C1241 0.700 . S
C5347 C1269 0.760 . S
C5351 C926 0.754 . S
C5365 C1221 0.736 . S
C5369 C946 0.740 . S
C5383 C1829 0.795 . S
C5387 C976 0.784 . S
C5401 C1849 0.749 . S
C5405 C996 0.760 . S
C5419 C1019 1.409 . S
C5423 C1789 1.508 . S
C5437 C1036 0.874 . S
C5441 C849 0.891 . S
C5455 C1056 0.856 . S
C5459 C909 0.867 . S
C5473 C1079 1.164 . S
C5477 C929 1.251 . S
C5491 C809 0.791 . S
C5495 C1096 0.780 . S
C5509 C949 0.827 . S
C5513 C1116 0.806 . S
C5527 C1139 1.036 . S
C5531 C1481 1.110 . S
C5545 C1156 0.769 . S
C5549 C549 0.759 . S
C5563 C1176 0.788 . S
C5567 C1449 0.806 . S
C5581 C1199 1.396 . S
C5585 C509 1.497 . S
C5599 C1216 0.952 . S
C5603 C1569 0.971 . S
C5617 C1236 0.835 . S
C5621 C629 0.843 . S
C5635 C1256 0.805 . S
C5639 C1529 0.809 . S
C5653 C1279 1.078 . S
C5657 C581 1.149 . S
C5671 C729 0.836 . S
C5675 C1296 0.811 . S
C5689 C1601 0.719 . S
C5693 C1316 0.729 . S
C5707 C669 0.768 . S
C5711 C1336 0.756 . S
C5725 C1649 0.783 . S
C5729 C1356 0.768 . S
C5743 C1376 0.795 . S
C5747 C1661 0.797 . S
C5761 C1396 0.709 . S
C5765 C769 0.699 . S
C5779 C1416 0.750 . S
C5783 C781 0.757 . S
C5797 C1436 0.755 . S
C5801 C749 0.745 . S
C5815 C1341 0.789 . S
C5819 C1446 0.794 . S
C5833 C1361 0.732 . S
C5837 C1466 0.726 . S
C5851 C1488 1.395 . S
C5855 C1301 1.499 . S
C5869 C1506 0.884 . S
C5873 C361 0.898 . S
C5887 C421 0.856 . S
C5891 C1526 0.828 . S
C5905 C1548 1.157 . S
C5909 C441 1.243 . S
C5923 C321 0.778 . S
C5927 C1566 0.764 . S
C5941 C461 0.820 . S
C5945 C1586 0.810 . S
C5959 C1608 1.045 . S
C5963 C1009 1.115 . S
C5977 C1626 0.728 . S
C5981 C61 0.736 . S
C5995 C1646 0.805 . S
C5999 C961 0.812 . S
C6013 C1668 1.392 . S
C6017 C21 1.499 . S
C6031 C1081 0.961 . S
C6035 C1686 0.929 . S
C6049 C141 0.838 . S
C6053 C1706 0.833 . S
C6067 C1041 0.805 . S
C6071 C1726 0.799 . S
C6085 C1748 1.070 . S
C6089 C109 1.145 . S
C6103 C241 0.854 . S
C6107 C1766 0.837 . S
C6121 C1786 0.695 . S
C6125 C1129 0.691 . S
C6139 C1806 0.769 . S
C6143 C181 0.770 . S
C6157 C1161 0.782 . S
C6161 C1826 0.768 . S
C6175 C1846 0.781 . S
C6179 C1189 0.787 . S
C6193 C1866 0.685 . S
C6197 C281 0.684 . S
C6211 C309 0.785 . S
C6215 C1886 0.785 . S
C6229 C1906 0.756 . S
C6233 C261 0.754 . S
C6247 C8 1.723 . S
C6251 C188 1.730 . S
C6265 C208 1.747 . S
C6269 C28 1.741 . S
C6283 C46 1.322 . S
C6287 C226 1.320 . S
C6301 C166 1.629 . S
C6305 C68 1.648 . S
C6319 C306 1.723 . S
C6323 C88 1.743 . S
C6337 C248 1.494 . S
C6341 C106 1.480 . S
C6355 C128 1.620 . S
C6359 C268 1.623 . S
C6373 C148 1.728 . S
C6377 C288 1.729 . S
C6391 C328 1.684 . S
C6395 C368 1.688 . S
C6409 C1408 2.229 . S
C6413 C348 2.238 . S
C6427 C388 1.648 . S
C6431 C1428 1.644 . S
C6445 C1388 1.872 . S
C6449 C408 1.859 . S
C6463 C1368 1.867 . S
C6467 C428 1.874 . S
C6481 C448 2.236 . S
C6485 C1308 2.236 . S
C6499 C468 1.636 . S
C6503 C1348 1.645 . S
C6517 C679 1.724 . S
C6521 C499 1.717 . S
C6535 C519 1.732 . S
C6539 C699 1.751 . S
C6553 C536 1.306 . S
C6557 C716 1.303 . S
C6571 C656 1.622 . S
C6575 C559 1.637 . S
C6589 C796 1.729 . S
C6593 C579 1.755 . S
C6607 C739 1.487 . S
C6611 C596 1.476 . S
C6625 C759 1.627 . S
C6629 C619 1.629 . S
C6643 C779 1.728 . S
C6647 C639 1.725 . S
C6661 C859 1.685 . S
C6665 C819 1.683 . S
C6679 C839 2.239 . S
C6683 C1899 2.230 . S
C6697 C879 1.634 . S
C6701 C1919 1.639 . S
C6715 C899 1.860 . S
C6719 C1879 1.880 . S
C6733 C1859 1.871 . S
C6737 C919 1.881 . S
C6751 C1799 2.239 . S
C6755 C939 2.230 . S
C6769 C1839 1.646 . S
C6773 C959 1.638 . S
C6787 C968 1.716 . S
C6791 C1148 1.724 . S
C6805 C988 1.740 . S
C6809 C1168 1.753 . S
C6823 C1006 1.317 . S
C6827 C1186 1.315 . S
C6841 C1028 1.649 . S
C6845 C1126 1.636 . S
C6859 C1266 1.722 . S
C6863 C1048 1.742 . S
C6877 C1066 1.478 . S
C6881 C1208 1.491 . S
C6895 C1228 1.632 . S
C6899 C1088 1.632 . S
C6913 C1248 1.736 . S
C6917 C1108 1.735 . S
C6931 C1328 1.686 . S
C6935 C1288 1.695 . S
C6949 C1459 1.709 . S
C6953 C1639 1.726 . S
C6967 C1659 1.743 . S
C6971 C1479 1.727 . S
C6985 C1496 1.322 . S
C6989 C1676 1.319 . S
C7003 C1616 1.635 . S
C7007 C1519 1.653 . S
C7021 C1539 1.754 . S
C7025 C1756 1.729 . S
C7039 C1699 1.503 . S
C7043 C1556 1.496 . S
C7057 C1579 1.628 . S
C7061 C1719 1.626 . S
C7075 C1599 1.724 . S
C7079 C1739 1.738 . S
C7093 C1779 1.695 . S
C7097 C1819 1.686 . S
