# Generated by pormake.
# Topology mon, (4)-cn, num edge types: 1
# Building blocks:
#     Node 0, Type 0, BuildingBlock: UXUYUI_clean_sbu_0, # of connection points: 4
#     Node 1, Type 0, BuildingBlock: UXUYUI_clean_sbu_0, # of connection points: 4
#     Node 2, Type 0, BuildingBlock: UXUYUI_clean_sbu_0, # of connection points: 4
#     Node 3, Type 0, BuildingBlock: UXUYUI_clean_sbu_0, # of connection points: 4
#     Node 4, Type 0, BuildingBlock: UXUYUI_clean_sbu_0, # of connection points: 4
#     Node 5, Type 0, BuildingBlock: UXUYUI_clean_sbu_0, # of connection points: 4
#     Node 6, Type 0, BuildingBlock: UXUYUI_clean_sbu_0, # of connection points: 4
#     Node 7, Type 0, BuildingBlock: UXUYUI_clean_sbu_0, # of connection points: 4
#     Node 8, Type 0, BuildingBlock: UXUYUI_clean_sbu_0, # of connection points: 4
#     Node 9, Type 0, BuildingBlock: UXUYUI_clean_sbu_0, # of connection points: 4
#     Node 10, Type 0, BuildingBlock: UXUYUI_clean_sbu_0, # of connection points: 4
#     Node 11, Type 0, BuildingBlock: UXUYUI_clean_sbu_0, # of connection points: 4
#     Node 12, Type 0, BuildingBlock: UXUYUI_clean_sbu_0, # of connection points: 4
#     Node 13, Type 0, BuildingBlock: UXUYUI_clean_sbu_0, # of connection points: 4
#     Node 14, Type 0, BuildingBlock: UXUYUI_clean_sbu_0, # of connection points: 4
#     Node 15, Type 0, BuildingBlock: UXUYUI_clean_sbu_0, # of connection points: 4
#     Edge 16, Type (0, 0), BuildingBlock: AJUNOK_clean_linker_0, # of connection points: 2
#     Edge 17, Type (0, 0), BuildingBlock: AJUNOK_clean_linker_0, # of connection points: 2
#     Edge 18, Type (0, 0), BuildingBlock: AJUNOK_clean_linker_0, # of connection points: 2
#     Edge 19, Type (0, 0), BuildingBlock: AJUNOK_clean_linker_0, # of connection points: 2
#     Edge 20, Type (0, 0), BuildingBlock: AJUNOK_clean_linker_0, # of connection points: 2
#     Edge 21, Type (0, 0), BuildingBlock: AJUNOK_clean_linker_0, # of connection points: 2
#     Edge 22, Type (0, 0), BuildingBlock: AJUNOK_clean_linker_0, # of connection points: 2
#     Edge 23, Type (0, 0), BuildingBlock: AJUNOK_clean_linker_0, # of connection points: 2
#     Edge 24, Type (0, 0), BuildingBlock: AJUNOK_clean_linker_0, # of connection points: 2
#     Edge 25, Type (0, 0), BuildingBlock: AJUNOK_clean_linker_0, # of connection points: 2
#     Edge 26, Type (0, 0), BuildingBlock: AJUNOK_clean_linker_0, # of connection points: 2
#     Edge 27, Type (0, 0), BuildingBlock: AJUNOK_clean_linker_0, # of connection points: 2
#     Edge 28, Type (0, 0), BuildingBlock: AJUNOK_clean_linker_0, # of connection points: 2
#     Edge 29, Type (0, 0), BuildingBlock: AJUNOK_clean_linker_0, # of connection points: 2
#     Edge 30, Type (0, 0), BuildingBlock: AJUNOK_clean_linker_0, # of connection points: 2
#     Edge 31, Type (0, 0), BuildingBlock: AJUNOK_clean_linker_0, # of connection points: 2
#     Edge 32, Type (0, 0), BuildingBlock: AJUNOK_clean_linker_0, # of connection points: 2
#     Edge 33, Type (0, 0), BuildingBlock: AJUNOK_clean_linker_0, # of connection points: 2
#     Edge 34, Type (0, 0), BuildingBlock: AJUNOK_clean_linker_0, # of connection points: 2
#     Edge 35, Type (0, 0), BuildingBlock: AJUNOK_clean_linker_0, # of connection points: 2
#     Edge 36, Type (0, 0), BuildingBlock: AJUNOK_clean_linker_0, # of connection points: 2
#     Edge 37, Type (0, 0), BuildingBlock: AJUNOK_clean_linker_0, # of connection points: 2
#     Edge 38, Type (0, 0), BuildingBlock: AJUNOK_clean_linker_0, # of connection points: 2
#     Edge 39, Type (0, 0), BuildingBlock: AJUNOK_clean_linker_0, # of connection points: 2
#     Edge 40, Type (0, 0), BuildingBlock: AJUNOK_clean_linker_0, # of connection points: 2
#     Edge 41, Type (0, 0), BuildingBlock: AJUNOK_clean_linker_0, # of connection points: 2
#     Edge 42, Type (0, 0), BuildingBlock: AJUNOK_clean_linker_0, # of connection points: 2
#     Edge 43, Type (0, 0), BuildingBlock: AJUNOK_clean_linker_0, # of connection points: 2
#     Edge 44, Type (0, 0), BuildingBlock: AJUNOK_clean_linker_0, # of connection points: 2
#     Edge 45, Type (0, 0), BuildingBlock: AJUNOK_clean_linker_0, # of connection points: 2
#     Edge 46, Type (0, 0), BuildingBlock: AJUNOK_clean_linker_0, # of connection points: 2
#     Edge 47, Type (0, 0), BuildingBlock: AJUNOK_clean_linker_0, # of connection points: 2
# Relax obj value: 0.204
# Max RMSD: 0.157
# Mean RMSD: 0.156
data_MOF--net-mon--node1-UXUYUI_clean_sbu_0--edge1-AJUNOK_clean_linker_0
_symmetry_space_group_name_H-M    P1
_symmetry_Int_Tables_number       1
_symmetry_cell_setting            triclinic
loop_
_symmetry_equiv_pos_as_xyz
'x, y, z'
_cell_length_a     40.961039
_cell_length_b     40.897546
_cell_length_c     101.37655
_cell_angle_alpha  89.994336
_cell_angle_beta   89.99642
_cell_angle_gamma 90.016147
loop_
_atom_site_label
_atom_site_type_symbol
_atom_site_fract_x
_atom_site_fract_y
_atom_site_fract_z
_atom_type_partial_charge
Li0 Li 0.00677 0.0255 0.57334 0.0
Li1 Li 0.00295 0.06538 0.59129 0.0
Li2 Li 0.03332 0.01448 0.5942 0.0
Li3 Li 0.9738 0.01516 0.59311 0.0
C4 C 0.06179 0.06127 0.57183 0.0
N5 N 0.09889 0.08293 0.55081 0.0
C6 C 0.06105 0.09421 0.56816 0.0
C7 C 0.08156 0.0394 0.56488 0.0
C8 C 0.07997 0.10467 0.55749 0.0
C9 C 0.10006 0.05081 0.55425 0.0
C10 C 0.93522 0.04691 0.57741 0.0
C11 C 0.87956 0.05477 0.58448 0.0
N12 N 0.86898 0.03841 0.5736 0.0
C13 C 0.92382 0.03029 0.56628 0.0
C14 C 0.91295 0.0594 0.58656 0.0
C15 C 0.89023 0.02622 0.56454 0.0
C16 C 0.00502 0.98874 0.54992 0.0
N17 N 0.00858 0.0195 0.55476 0.0
C18 C 0.01347 0.04122 0.53297 0.0
C19 C 0.01198 0.04567 0.54661 0.0
C20 C 0.01044 0.00962 0.52766 0.0
C21 C 0.00558 0.98325 0.53634 0.0
H22 H 0.00121 0.9685 0.5566 0.0
H23 H 0.01353 0.07001 0.55069 0.0
C24 C 0.02843 0.12491 0.60108 0.0
N25 N 0.00262 0.11082 0.59485 0.0
C26 C 0.02934 0.15872 0.60292 0.0
C27 C 0.97731 0.16279 0.59174 0.0
C28 C 0.97723 0.1289 0.59026 0.0
C29 C 0.00368 0.178 0.59808 0.0
H30 H 0.04868 0.10997 0.60431 0.0
H31 H 0.95733 0.1171 0.58513 0.0
C32 C 0.01722 0.95523 0.58565 0.0
N33 N 0.04565 0.89501 0.5902 0.0
C34 C 0.00388 0.93398 0.59502 0.0
C35 C 0.04483 0.94573 0.57852 0.0
C36 C 0.01863 0.90365 0.59718 0.0
C37 C 0.05893 0.91524 0.581 0.0
C38 C 0.0052 0.0559 0.61692 0.0
C39 C 0.0352 0.05899 0.62336 0.0
C40 C 0.97879 0.07519 0.62087 0.0
C41 C 0.03835 0.08161 0.63361 0.0
C42 C 0.98295 0.09757 0.63114 0.0
N43 N 0.0124 0.10029 0.63725 0.0
C44 C 0.10014 0.99715 0.59802 0.0
C45 C 0.06172 0.97214 0.61236 0.0
C46 C 0.12535 0.97833 0.60337 0.0
N47 N 0.06901 0.99318 0.60241 0.0
C48 C 0.086 0.95251 0.61781 0.0
C49 C 0.11807 0.95525 0.61315 0.0
H50 H 0.10525 0.01431 0.59019 0.0
H51 H 0.03677 0.96986 0.61573 0.0
C52 C 0.92189 0.97077 0.59138 0.0
N53 N 0.93642 0.99296 0.59945 0.0
C54 C 0.89728 0.95048 0.59622 0.0
C55 C 0.90238 0.977 0.61745 0.0
C56 C 0.92691 0.9968 0.6122 0.0
C57 C 0.88793 0.95291 0.6095 0.0
H58 H 0.93035 0.96799 0.58134 0.0
H59 H 0.9393 0.01426 0.61843 0.0
O60 O 0.04333 0.05053 0.58221 0.0
O61 O 0.96802 0.05058 0.57943 0.0
O62 O 0.00361 0.98536 0.58361 0.0
O63 O 0.00174 0.03421 0.60675 0.0
H64 H 0.04585 0.11148 0.5734 0.0
H65 H 0.08236 0.01383 0.56756 0.0
H66 H 0.07954 0.13006 0.5545 0.0
H67 H 0.11531 0.03411 0.54873 0.0
H68 H 0.86205 0.06412 0.59152 0.0
H69 H 0.94072 0.02043 0.55911 0.0
H70 H 0.9214 0.0722 0.59525 0.0
H71 H 0.88105 0.01329 0.556 0.0
H72 H 0.01701 0.06229 0.52667 0.0
H73 H 0.00169 0.95868 0.53269 0.0
H74 H 0.05037 0.16979 0.60761 0.0
H75 H 0.95724 0.17703 0.58782 0.0
H76 H 0.98266 0.94099 0.6007 0.0
H77 H 0.05543 0.96186 0.57123 0.0
H78 H 0.0087 0.88705 0.60445 0.0
H79 H 0.08045 0.90768 0.57562 0.0
H80 H 0.05592 0.04431 0.62041 0.0
H81 H 0.95544 0.0732 0.61594 0.0
H82 H 0.06146 0.08438 0.63865 0.0
H83 H 0.96279 0.11283 0.63424 0.0
H84 H 0.14997 0.9809 0.5996 0.0
H85 H 0.07976 0.93494 0.6254 0.0
H86 H 0.88637 0.93243 0.58976 0.0
H87 H 0.89589 0.97941 0.62776 0.0
Li88 Li 0.24182 0.72042 0.84396 0.0
Li89 Li 0.19245 0.74989 0.8417 0.0
Li90 Li 0.23412 0.74995 0.82332 0.0
Li91 Li 0.24221 0.77945 0.84482 0.0
C92 C 0.20735 0.68029 0.82826 0.0
N93 N 0.20691 0.61355 0.82401 0.0
C94 C 0.19649 0.6591 0.83815 0.0
C95 C 0.21784 0.66755 0.81618 0.0
C96 C 0.19653 0.62543 0.83582 0.0
C97 C 0.21745 0.63374 0.81423 0.0
C98 C 0.19843 0.74852 0.86702 0.0
C99 C 0.15878 0.77655 0.88048 0.0
N100 N 0.15029 0.74758 0.88611 0.0
C101 C 0.1894 0.71903 0.87297 0.0
C102 C 0.18311 0.77754 0.87084 0.0
C103 C 0.165 0.71907 0.8826 0.0
C104 C 0.2694 0.68331 0.86446 0.0
N105 N 0.26372 0.68311 0.85125 0.0
C106 C 0.29467 0.63391 0.84881 0.0
C107 C 0.27608 0.65915 0.84339 0.0
C108 C 0.30085 0.63352 0.86242 0.0
C109 C 0.2879 0.65859 0.87029 0.0
H110 H 0.26057 0.70336 0.87041 0.0
H111 H 0.27252 0.66019 0.83284 0.0
C112 C 0.12893 0.77631 0.84024 0.0
N113 N 0.14639 0.74999 0.84439 0.0
C114 C 0.0949 0.7762 0.84106 0.0
C115 C 0.09749 0.72223 0.85071 0.0
C116 C 0.13141 0.72327 0.84959 0.0
C117 C 0.07878 0.74865 0.84614 0.0
H118 H 0.14134 0.79706 0.83596 0.0
H119 H 0.1457 0.70255 0.85272 0.0
C120 C 0.30229 0.73852 0.83818 0.0
N121 N 0.36119 0.71108 0.84551 0.0
C122 C 0.31596 0.74584 0.85046 0.0
C123 C 0.31863 0.71734 0.8296 0.0
C124 C 0.34575 0.7317 0.85399 0.0
C125 C 0.34837 0.7037 0.8335 0.0
C126 C 0.21036 0.82025 0.82897 0.0
C127 C 0.22573 0.83268 0.81772 0.0
C128 C 0.19723 0.8418 0.83827 0.0
C129 C 0.22806 0.86651 0.81605 0.0
C130 C 0.20011 0.87546 0.83624 0.0
N131 N 0.21535 0.88702 0.82527 0.0
C132 C 0.2142 0.7491 0.79689 0.0
C133 C 0.27129 0.75512 0.79995 0.0
C134 C 0.21796 0.7505 0.78322 0.0
N135 N 0.2407 0.75134 0.8049 0.0
C136 C 0.2762 0.7564 0.78634 0.0
C137 C 0.24929 0.75429 0.77779 0.0
H138 H 0.19015 0.74632 0.80116 0.0
H139 H 0.29184 0.75726 0.80658 0.0
C140 C 0.26373 0.81986 0.86569 0.0
N141 N 0.26377 0.81608 0.85236 0.0
C142 C 0.28274 0.84419 0.87154 0.0
C143 C 0.30072 0.86085 0.84983 0.0
C144 C 0.28176 0.83589 0.84441 0.0
C145 C 0.30179 0.8647 0.86356 0.0
H146 H 0.24999 0.80317 0.87181 0.0
H147 H 0.28227 0.83157 0.83389 0.0
O148 O 0.20741 0.71335 0.83029 0.0
O149 O 0.22199 0.74896 0.85744 0.0
O150 O 0.27265 0.75131 0.83473 0.0
O151 O 0.20813 0.78719 0.83086 0.0
H152 H 0.1888 0.66845 0.84761 0.0
H153 H 0.22633 0.68357 0.80842 0.0
H154 H 0.18844 0.60873 0.84343 0.0
H155 H 0.22557 0.62354 0.80495 0.0
H156 H 0.14662 0.79882 0.88349 0.0
H157 H 0.20072 0.69626 0.87006 0.0
H158 H 0.18982 0.80056 0.86636 0.0
H159 H 0.15763 0.69641 0.88723 0.0
H160 H 0.30459 0.61521 0.84239 0.0
H161 H 0.29304 0.65978 0.88076 0.0
H162 H 0.08131 0.79699 0.83737 0.0
H163 H 0.08603 0.70082 0.85496 0.0
H164 H 0.30348 0.76186 0.85728 0.0
H165 H 0.30814 0.71097 0.82015 0.0
H166 H 0.35652 0.73699 0.8635 0.0
H167 H 0.36116 0.68708 0.82701 0.0
H168 H 0.23598 0.81643 0.8104 0.0
H169 H 0.18509 0.83263 0.84698 0.0
H170 H 0.24004 0.87645 0.80742 0.0
H171 H 0.19022 0.8924 0.8434 0.0
H172 H 0.19658 0.74894 0.77696 0.0
H173 H 0.30082 0.75868 0.78255 0.0
H174 H 0.28324 0.84646 0.88218 0.0
H175 H 0.31557 0.87599 0.84342 0.0
Li176 Li 0.54443 0.98331 0.09377 0.0
Li177 Li 0.48477 0.98518 0.09405 0.0
Li178 Li 0.51408 0.93385 0.09135 0.0
Li179 Li 0.51278 0.97426 0.07364 0.0
C180 C 0.51031 0.9422 0.11679 0.0
N181 N 0.50082 0.89613 0.13634 0.0
C182 C 0.47949 0.93828 0.12249 0.0
C183 C 0.53636 0.92286 0.12108 0.0
C184 C 0.47518 0.91482 0.13236 0.0
C185 C 0.53103 0.89964 0.13096 0.0
C186 C 0.50275 0.04428 0.08678 0.0
C187 C 0.46103 0.08503 0.08335 0.0
N188 N 0.47522 0.1042 0.09269 0.0
C189 C 0.51697 0.06442 0.09632 0.0
C190 C 0.47464 0.05472 0.08018 0.0
C191 C 0.50269 0.09463 0.09917 0.0
C192 C 0.5985 0.02524 0.09258 0.0
N193 N 0.58218 0.00422 0.1006 0.0
C194 C 0.61552 0.01935 0.11893 0.0
C195 C 0.59036 0.00063 0.1135 0.0
C196 C 0.63221 0.04196 0.11097 0.0
C197 C 0.62382 0.04437 0.09758 0.0
H198 H 0.59097 0.02804 0.08241 0.0
H199 H 0.57647 0.98427 0.11971 0.0
C200 C 0.41779 0.00181 0.09709 0.0
N201 N 0.44842 0.00615 0.10194 0.0
C202 C 0.39167 0.01946 0.10235 0.0
C203 C 0.42905 0.04486 0.11771 0.0
C204 C 0.45432 0.02648 0.11226 0.0
C205 C 0.39732 0.04189 0.11259 0.0
H206 H 0.41371 0.98495 0.08906 0.0
H207 H 0.4789 0.02903 0.11602 0.0
C208 C 0.58332 0.95082 0.07823 0.0
N209 N 0.64987 0.95767 0.07477 0.0
C210 C 0.5955 0.96686 0.06709 0.0
C211 C 0.60496 0.93809 0.08757 0.0
C212 C 0.62924 0.97009 0.06553 0.0
C213 C 0.63853 0.94188 0.08566 0.0
C214 C 0.45879 0.94004 0.07059 0.0
C215 C 0.46159 0.90784 0.0661 0.0
C216 C 0.43975 0.96236 0.06352 0.0
C217 C 0.44544 0.89856 0.05455 0.0
C218 C 0.42408 0.95216 0.05199 0.0
N219 N 0.42723 0.92074 0.04778 0.0
C220 C 0.48343 0.87567 0.09928 0.0
C221 C 0.53832 0.86911 0.09231 0.0
C222 C 0.48009 0.84199 0.10098 0.0
N223 N 0.51211 0.88841 0.09491 0.0
C224 C 0.53605 0.83529 0.09385 0.0
C225 C 0.50644 0.82135 0.09799 0.0
H226 H 0.46291 0.89167 0.10113 0.0
H227 H 0.56067 0.87989 0.08868 0.0
C228 C 0.50913 0.011 0.05006 0.0
N229 N 0.51203 0.98031 0.05507 0.0
C230 C 0.50757 0.01579 0.03645 0.0
C231 C 0.51254 0.95734 0.03341 0.0
C232 C 0.5144 0.95372 0.04707 0.0
C233 C 0.50885 0.98869 0.02799 0.0
H234 H 0.50799 0.03175 0.05663 0.0
H235 H 0.51751 0.92969 0.05134 0.0
O236 O 0.51488 0.96457 0.10694 0.0
O237 O 0.51593 0.01428 0.08405 0.0
O238 O 0.55037 0.9479 0.08005 0.0
O239 O 0.47489 0.94978 0.08175 0.0
H240 H 0.45904 0.95295 0.11924 0.0
H241 H 0.56031 0.92545 0.11671 0.0
H242 H 0.45144 0.91141 0.13682 0.0
H243 H 0.5509 0.88434 0.13432 0.0
H244 H 0.43912 0.09328 0.0784 0.0
H245 H 0.53855 0.05669 0.10161 0.0
H246 H 0.46316 0.03935 0.07284 0.0
H247 H 0.51334 0.11039 0.10658 0.0
H248 H 0.6207 0.01736 0.12937 0.0
H249 H 0.63605 0.06163 0.09115 0.0
H250 H 0.3674 0.01574 0.09839 0.0
H251 H 0.43444 0.06186 0.12561 0.0
H252 H 0.57911 0.97696 0.05979 0.0
H253 H 0.59592 0.92582 0.09629 0.0
H254 H 0.63902 0.98256 0.05699 0.0
H255 H 0.65556 0.93235 0.09285 0.0
H256 H 0.47639 0.89027 0.07137 0.0
H257 H 0.4375 0.98743 0.06678 0.0
H258 H 0.44753 0.87377 0.05093 0.0
H259 H 0.40951 0.96925 0.04637 0.0
H260 H 0.45701 0.83215 0.10436 0.0
H261 H 0.55682 0.82009 0.09138 0.0
H262 H 0.50495 0.04033 0.03257 0.0
H263 H 0.51423 0.93597 0.02714 0.0
Li264 Li 0.27652 0.27908 0.34442 0.0
Li265 Li 0.326 0.24637 0.34171 0.0
Li266 Li 0.28354 0.24704 0.32388 0.0
Li267 Li 0.27542 0.21788 0.34464 0.0
C268 C 0.31451 0.31477 0.32588 0.0
N269 N 0.32186 0.37746 0.3161 0.0
C270 C 0.3416 0.33358 0.32945 0.0
C271 C 0.29138 0.32774 0.31719 0.0
C272 C 0.34482 0.36525 0.32445 0.0
C273 C 0.29547 0.3595 0.31239 0.0
C274 C 0.31704 0.25251 0.36768 0.0
C275 C 0.35618 0.23096 0.38317 0.0
N276 N 0.35939 0.26121 0.38859 0.0
C277 C 0.32053 0.28334 0.37346 0.0
C278 C 0.33479 0.22604 0.37263 0.0
C279 C 0.34213 0.28725 0.38401 0.0
C280 C 0.23025 0.30834 0.35995 0.0
N281 N 0.25644 0.31604 0.35234 0.0
C282 C 0.24868 0.373 0.35659 0.0
C283 C 0.26625 0.34758 0.35072 0.0
C284 C 0.22115 0.36567 0.36427 0.0
C285 C 0.21221 0.33289 0.36608 0.0
H286 H 0.22316 0.28301 0.36109 0.0
H287 H 0.28748 0.35319 0.34488 0.0
C288 C 0.38943 0.22057 0.3399 0.0
N289 N 0.37162 0.24572 0.34488 0.0
C290 C 0.42326 0.22004 0.34146 0.0
C291 C 0.41973 0.27117 0.35334 0.0
C292 C 0.386 0.27077 0.35151 0.0
C293 C 0.43878 0.24563 0.34823 0.0
H294 H 0.37747 0.20129 0.33444 0.0
H295 H 0.37133 0.2907 0.3552 0.0
C296 C 0.2166 0.25709 0.32975 0.0
N297 N 0.15841 0.27415 0.31776 0.0
C298 C 0.19292 0.2333 0.32719 0.0
C299 C 0.21037 0.28967 0.32642 0.0
C300 C 0.16376 0.24237 0.32105 0.0
C301 C 0.1809 0.29778 0.32032 0.0
C302 C 0.30862 0.17612 0.33024 0.0
C303 C 0.29448 0.16042 0.31941 0.0
C304 C 0.32203 0.15753 0.34045 0.0
C305 C 0.29353 0.12628 0.31908 0.0
C306 C 0.32057 0.12344 0.33977 0.0
N307 N 0.30645 0.10865 0.3292 0.0
C308 C 0.2976 0.26252 0.29743 0.0
C309 C 0.25052 0.22951 0.30025 0.0
C310 C 0.29275 0.26333 0.28381 0.0
N311 N 0.27622 0.24635 0.30535 0.0
C312 C 0.24499 0.22929 0.28666 0.0
C313 C 0.26604 0.24674 0.27833 0.0
H314 H 0.3184 0.27487 0.30169 0.0
H315 H 0.23451 0.21596 0.30672 0.0
C316 C 0.25402 0.1794 0.3659 0.0
N317 N 0.25363 0.18192 0.35254 0.0
C318 C 0.23502 0.15581 0.37222 0.0
C319 C 0.21643 0.13712 0.35087 0.0
C320 C 0.23573 0.16115 0.34497 0.0
C321 C 0.21533 0.13487 0.36467 0.0
H322 H 0.2682 0.19645 0.37169 0.0
H323 H 0.23554 0.16398 0.33437 0.0
O324 O 0.31104 0.28368 0.3307 0.0
O325 O 0.29616 0.24825 0.35729 0.0
O326 O 0.24522 0.24858 0.33583 0.0
O327 O 0.30942 0.20953 0.33081 0.0
H328 H 0.35993 0.32391 0.33604 0.0
H329 H 0.27067 0.31337 0.31405 0.0
H330 H 0.36559 0.38011 0.32719 0.0
H331 H 0.27771 0.36982 0.30568 0.0
H332 H 0.37022 0.21073 0.38705 0.0
H333 H 0.30695 0.3041 0.36978 0.0
H334 H 0.33218 0.20198 0.36834 0.0
H335 H 0.34523 0.31101 0.38853 0.0
H336 H 0.25647 0.39805 0.35514 0.0
H337 H 0.191 0.32639 0.37191 0.0
H338 H 0.43719 0.20036 0.33705 0.0
H339 H 0.43087 0.2914 0.35858 0.0
H340 H 0.19707 0.20804 0.32983 0.0
H341 H 0.22789 0.3086 0.32864 0.0
H342 H 0.14535 0.22414 0.31893 0.0
H343 H 0.17586 0.3229 0.31767 0.0
H344 H 0.28421 0.17442 0.31137 0.0
H345 H 0.33326 0.1693 0.34885 0.0
H346 H 0.2825 0.1138 0.3108 0.0
H347 H 0.33066 0.10875 0.34765 0.0
H348 H 0.30985 0.27645 0.27761 0.0
H349 H 0.22434 0.21594 0.28271 0.0
H350 H 0.23503 0.15449 0.38289 0.0
H351 H 0.2014 0.12149 0.34474 0.0
Li352 Li 0.97406 0.98136 0.4051 0.0
Li353 Li 0.03377 0.98456 0.40418 0.0
Li354 Li 0.00516 0.93338 0.40693 0.0
Li355 Li 0.00602 0.97285 0.42496 0.0
C356 C 0.01201 0.94231 0.38152 0.0
N357 N 0.02942 0.89857 0.36194 0.0
C358 C 0.04445 0.94017 0.37732 0.0
C359 C 0.98838 0.92234 0.37565 0.0
C360 C 0.05277 0.91789 0.36743 0.0
C361 C 0.99769 0.90034 0.36581 0.0
C362 C 0.01908 0.03796 0.42034 0.0
C363 C 0.06647 0.05927 0.43155 0.0
N364 N 0.05162 0.08892 0.43248 0.0
C365 C 0.0043 0.06863 0.4214 0.0
C366 C 0.05043 0.03321 0.42545 0.0
C367 C 0.02114 0.09409 0.42758 0.0
C368 C 0.9221 0.02587 0.40601 0.0
N369 N 0.93631 0.00239 0.39848 0.0
C370 C 0.90044 0.01415 0.38055 0.0
C371 C 0.92592 0.99604 0.38601 0.0
C372 C 0.88601 0.03943 0.3879 0.0
C373 C 0.89689 0.04495 0.40086 0.0
H374 H 0.93127 0.0306 0.41583 0.0
H375 H 0.938 0.97753 0.38019 0.0
C376 C 0.1004 0.99881 0.39817 0.0
N377 N 0.06879 0.00832 0.39673 0.0
C378 C 0.12558 0.01827 0.39318 0.0
C379 C 0.08503 0.05666 0.38534 0.0
C380 C 0.06071 0.03639 0.39037 0.0
C381 C 0.11791 0.04782 0.38686 0.0
H382 H 0.106 0.97636 0.40332 0.0
H383 H 0.03531 0.04323 0.38942 0.0
C384 C 0.93549 0.94114 0.41849 0.0
N385 N 0.86868 0.93125 0.41813 0.0
C386 C 0.91731 0.94388 0.4301 0.0
C387 C 0.91972 0.93252 0.40677 0.0
C388 C 0.88356 0.93899 0.42971 0.0
C389 C 0.88594 0.92789 0.40675 0.0
C390 C 0.05552 0.92521 0.42492 0.0
C391 C 0.03382 0.90745 0.43282 0.0
C392 C 0.08872 0.91736 0.42506 0.0
C393 C 0.04577 0.88222 0.44075 0.0
C394 C 0.09971 0.89195 0.43313 0.0
N395 N 0.07819 0.87505 0.44074 0.0
C396 C 0.03727 0.87557 0.39933 0.0
C397 C 0.98198 0.86817 0.4056 0.0
C398 C 0.04128 0.84192 0.39777 0.0
N399 N 0.00804 0.88791 0.40328 0.0
C400 C 0.98487 0.83442 0.40413 0.0
C401 C 0.01497 0.82095 0.4004 0.0
H402 H 0.05772 0.89182 0.39774 0.0
H403 H 0.95925 0.87844 0.409 0.0
C404 C 0.98099 0.99041 0.44988 0.0
N405 N 0.00849 0.98078 0.44348 0.0
C406 C 0.98133 0.99517 0.46351 0.0
C407 C 0.03901 0.9829 0.46355 0.0
C408 C 0.03738 0.9777 0.44997 0.0
C409 C 0.01054 0.9909 0.47058 0.0
H410 H 0.95879 0.99445 0.44437 0.0
H411 H 0.0593 0.97147 0.44461 0.0
O412 O 0.00353 0.9636 0.39138 0.0
O413 O 0.00288 0.01288 0.41425 0.0
O414 O 0.96861 0.94601 0.41864 0.0
O415 O 0.04438 0.9495 0.41678 0.0
H416 H 0.06314 0.9552 0.38173 0.0
H417 H 0.96315 0.92358 0.37868 0.0
H418 H 0.07783 0.91589 0.36415 0.0
H419 H 0.97967 0.88464 0.36125 0.0
H420 H 0.09074 0.05593 0.43553 0.0
H421 H 0.98007 0.07273 0.41746 0.0
H422 H 0.06232 0.00969 0.42469 0.0
H423 H 0.00999 0.11796 0.42847 0.0
H424 H 0.89276 0.00909 0.37053 0.0
H425 H 0.88718 0.06477 0.40675 0.0
H426 H 0.15073 0.01076 0.39449 0.0
H427 H 0.07826 0.07908 0.38035 0.0
H428 H 0.9291 0.94914 0.43939 0.0
H429 H 0.93345 0.92962 0.39777 0.0
H430 H 0.86922 0.94117 0.43863 0.0
H431 H 0.87346 0.92157 0.3977 0.0
H432 H 0.00803 0.91294 0.43284 0.0
H433 H 0.10583 0.93065 0.41895 0.0
H434 H 0.02926 0.8683 0.4469 0.0
H435 H 0.12534 0.88561 0.43332 0.0
H436 H 0.06479 0.83236 0.39477 0.0
H437 H 0.96415 0.81891 0.40637 0.0
H438 H 0.95888 0.0018 0.46848 0.0
H439 H 0.06239 0.98089 0.46846 0.0
Li440 Li 0.2741 0.78174 0.65381 0.0
Li441 Li 0.2823 0.75243 0.67536 0.0
Li442 Li 0.32463 0.75367 0.6572 0.0
Li443 Li 0.27623 0.72282 0.65468 0.0
C444 C 0.30444 0.82338 0.6699 0.0
N445 N 0.29795 0.88997 0.67369 0.0
C446 C 0.28784 0.83532 0.68094 0.0
C447 C 0.31804 0.84531 0.66086 0.0
C448 C 0.28476 0.86907 0.68266 0.0
C449 C 0.31439 0.87888 0.66292 0.0
C450 C 0.21501 0.73895 0.66011 0.0
C451 C 0.17019 0.70216 0.66439 0.0
N452 N 0.15746 0.7094 0.65235 0.0
C453 C 0.20141 0.74612 0.6478 0.0
C454 C 0.19926 0.71687 0.6685 0.0
C455 C 0.17231 0.7309 0.64405 0.0
C456 C 0.25251 0.82151 0.63279 0.0
N457 N 0.25197 0.81777 0.64612 0.0
C458 C 0.21387 0.86162 0.64836 0.0
C459 C 0.23317 0.83714 0.65393 0.0
C460 C 0.21334 0.86542 0.63462 0.0
C461 C 0.2332 0.84536 0.62679 0.0
H462 H 0.26691 0.80515 0.62678 0.0
H463 H 0.23228 0.83283 0.66444 0.0
C464 C 0.30215 0.7528 0.70172 0.0
N465 N 0.27546 0.75335 0.69377 0.0
C466 C 0.29848 0.75377 0.7154 0.0
C467 C 0.23991 0.7557 0.71241 0.0
C468 C 0.24473 0.75501 0.69878 0.0
C469 C 0.26704 0.75523 0.72086 0.0
H470 H 0.32627 0.75158 0.6974 0.0
H471 H 0.22401 0.75601 0.69219 0.0
C472 C 0.3192 0.75234 0.63174 0.0
N473 N 0.36721 0.75324 0.61259 0.0
C474 C 0.3285 0.72337 0.62546 0.0
C475 C 0.33417 0.78178 0.62821 0.0
C476 C 0.35284 0.72434 0.61581 0.0
C477 C 0.35845 0.78172 0.61854 0.0
C478 C 0.31236 0.68378 0.67039 0.0
C479 C 0.32432 0.66356 0.66038 0.0
C480 C 0.30279 0.67011 0.68242 0.0
C481 C 0.32624 0.62988 0.66254 0.0
C482 C 0.30515 0.63631 0.6842 0.0
N483 N 0.31671 0.61707 0.67431 0.0
C484 C 0.38719 0.78086 0.6601 0.0
C485 C 0.38671 0.72978 0.64904 0.0
C486 C 0.42123 0.78163 0.65976 0.0
N487 N 0.37071 0.75508 0.65487 0.0
C488 C 0.42072 0.72976 0.64832 0.0
C489 C 0.43828 0.75563 0.65395 0.0
H490 H 0.37396 0.8004 0.66487 0.0
H491 H 0.3732 0.70926 0.6452 0.0
C492 C 0.24928 0.68529 0.63419 0.0
N493 N 0.25566 0.68495 0.64735 0.0
C494 C 0.23047 0.6606 0.62849 0.0
C495 C 0.22544 0.63541 0.64997 0.0
C496 C 0.24429 0.66059 0.65525 0.0
C497 C 0.21777 0.63566 0.63648 0.0
H498 H 0.25752 0.70555 0.62821 0.0
H499 H 0.24852 0.66146 0.66575 0.0
O500 O 0.30744 0.79041 0.66797 0.0
O501 O 0.24408 0.75274 0.66376 0.0
O502 O 0.29563 0.75188 0.64131 0.0
O503 O 0.31032 0.71682 0.66851 0.0
H504 H 0.27719 0.81875 0.68805 0.0
H505 H 0.3312 0.83651 0.65233 0.0
H506 H 0.27183 0.87865 0.69113 0.0
H507 H 0.32465 0.89612 0.65597 0.0
H508 H 0.1579 0.68479 0.67072 0.0
H509 H 0.21345 0.76284 0.64112 0.0
H510 H 0.20971 0.71059 0.67797 0.0
H511 H 0.16163 0.73606 0.63452 0.0
H512 H 0.19841 0.87642 0.65464 0.0
H513 H 0.23315 0.84761 0.61614 0.0
H514 H 0.31993 0.753 0.72165 0.0
H515 H 0.21533 0.75702 0.71631 0.0
H516 H 0.31744 0.70029 0.62813 0.0
H517 H 0.32721 0.80442 0.63294 0.0
H518 H 0.36041 0.70208 0.61092 0.0
H519 H 0.37033 0.80432 0.61576 0.0
H520 H 0.33136 0.67366 0.65095 0.0
H521 H 0.29349 0.6854 0.69028 0.0
H522 H 0.3352 0.61392 0.65484 0.0
H523 H 0.29774 0.62538 0.69345 0.0
H524 H 0.43413 0.80203 0.66415 0.0
H525 H 0.43321 0.70919 0.64386 0.0
H526 H 0.22465 0.66181 0.61808 0.0
H527 H 0.21616 0.61646 0.65642 0.0
Li528 Li 0.51046 0.06525 0.90829 0.0
Li529 Li 0.50578 0.0238 0.92556 0.0
Li530 Li 0.53962 0.01489 0.90602 0.0
Li531 Li 0.48008 0.0147 0.9045 0.0
C532 C 0.57749 0.04541 0.92234 0.0
N533 N 0.64354 0.03652 0.92648 0.0
C534 C 0.58836 0.02654 0.93296 0.0
C535 C 0.60018 0.05991 0.91387 0.0
C536 C 0.62188 0.02232 0.93488 0.0
C537 C 0.63348 0.05507 0.91611 0.0
C538 C 0.45257 0.05966 0.92783 0.0
C539 C 0.41602 0.04779 0.94586 0.0
N540 N 0.41894 0.07921 0.9501 0.0
C541 C 0.45511 0.09187 0.93233 0.0
C542 C 0.43274 0.03746 0.9346 0.0
C543 C 0.43793 0.10127 0.94362 0.0
C544 C 0.48659 0.12571 0.89857 0.0
N545 N 0.51109 0.11111 0.90545 0.0
C546 C 0.53503 0.1629 0.91037 0.0
C547 C 0.53512 0.12888 0.91129 0.0
C548 C 0.51016 0.17857 0.90329 0.0
C549 C 0.48587 0.15967 0.89722 0.0
H550 H 0.46724 0.11102 0.8944 0.0
H551 H 0.55387 0.11668 0.91694 0.0
C552 C 0.50157 0.98615 0.94894 0.0
N553 N 0.5037 0.01703 0.94408 0.0
C554 C 0.50123 0.98084 0.96254 0.0
C555 C 0.5055 0.03922 0.96585 0.0
C556 C 0.50608 0.04337 0.9522 0.0
C557 C 0.503 0.00762 0.97118 0.0
H558 H 0.50079 0.96558 0.94226 0.0
H559 H 0.50864 0.06758 0.94804 0.0
C560 C 0.5101 0.05757 0.88244 0.0
N561 N 0.50525 0.10315 0.86243 0.0
C562 C 0.48093 0.06092 0.87542 0.0
C563 C 0.53688 0.07721 0.87923 0.0
C564 C 0.47897 0.08413 0.86534 0.0
C565 C 0.5339 0.10019 0.8691 0.0
C566 C 0.49552 0.95466 0.91196 0.0
C567 C 0.50959 0.93462 0.90233 0.0
C568 C 0.4672 0.94438 0.91845 0.0
C569 C 0.49503 0.90462 0.89936 0.0
C570 C 0.45334 0.91425 0.91516 0.0
N571 N 0.46744 0.89515 0.90577 0.0
C572 C 0.58966 0.96894 0.90774 0.0
C573 C 0.5899 0.99898 0.88771 0.0
C574 C 0.61437 0.94857 0.90309 0.0
N575 N 0.57755 0.99307 0.89993 0.0
C576 C 0.61488 0.97931 0.8827 0.0
C577 C 0.62663 0.95319 0.89031 0.0
H578 H 0.57903 0.96463 0.91735 0.0
H579 H 0.57948 0.01805 0.88166 0.0
C580 C 0.41349 0.99705 0.90042 0.0
N581 N 0.44453 0.99425 0.89579 0.0
C582 C 0.38848 0.97824 0.89491 0.0
C583 C 0.42778 0.95498 0.87976 0.0
C584 C 0.45186 0.97453 0.88542 0.0
C585 C 0.39587 0.9564 0.88469 0.0
H586 H 0.40837 0.01305 0.90864 0.0
H587 H 0.47676 0.97303 0.88192 0.0
O588 O 0.5448 0.04921 0.92011 0.0
O589 O 0.46957 0.04985 0.91691 0.0
O590 O 0.51239 0.03523 0.89243 0.0
O591 O 0.5091 0.98438 0.91488 0.0
H592 H 0.57113 0.015 0.93958 0.0
H593 H 0.59214 0.07448 0.90557 0.0
H594 H 0.63065 0.00766 0.94302 0.0
H595 H 0.65132 0.06599 0.90959 0.0
H596 H 0.4008 0.03081 0.95126 0.0
H597 H 0.47036 0.10938 0.92724 0.0
H598 H 0.43064 0.01241 0.9313 0.0
H599 H 0.43977 0.12608 0.94724 0.0
H600 H 0.55398 0.17689 0.91525 0.0
H601 H 0.46602 0.17112 0.89188 0.0
H602 H 0.50036 0.95601 0.96623 0.0
H603 H 0.50706 0.06051 0.97218 0.0
H604 H 0.45996 0.04595 0.87779 0.0
H605 H 0.55957 0.07503 0.88462 0.0
H606 H 0.45651 0.0871 0.85985 0.0
H607 H 0.55435 0.11573 0.86658 0.0
H608 H 0.53122 0.9423 0.89707 0.0
H609 H 0.45582 0.95967 0.92583 0.0
H610 H 0.50558 0.88894 0.8919 0.0
H611 H 0.4313 0.90609 0.92004 0.0
H612 H 0.62308 0.92873 0.90924 0.0
H613 H 0.62373 0.98337 0.87277 0.0
H614 H 0.36401 0.97971 0.89892 0.0
H615 H 0.43412 0.9383 0.87187 0.0
Li616 Li 0.23375 0.24641 0.17596 0.0
Li617 Li 0.24335 0.21646 0.15447 0.0
Li618 Li 0.24346 0.27416 0.15547 0.0
Li619 Li 0.19223 0.24683 0.15719 0.0
C620 C 0.30161 0.26158 0.16501 0.0
N621 N 0.35755 0.29933 0.16447 0.0
C622 C 0.32298 0.25963 0.15429 0.0
C623 C 0.30885 0.2825 0.17552 0.0
C624 C 0.35106 0.27903 0.15417 0.0
C625 C 0.33726 0.30138 0.17505 0.0
C626 C 0.20135 0.17879 0.17233 0.0
C627 C 0.16859 0.12975 0.17172 0.0
N628 N 0.18723 0.11669 0.18149 0.0
C629 C 0.22004 0.16492 0.18242 0.0
C630 C 0.17526 0.16113 0.16698 0.0
C631 C 0.21258 0.13349 0.18689 0.0
C632 C 0.21592 0.2609 0.20208 0.0
N633 N 0.23891 0.24604 0.19449 0.0
C634 C 0.26978 0.23129 0.21357 0.0
C635 C 0.26556 0.23148 0.19991 0.0
C636 C 0.24663 0.24675 0.22163 0.0
C637 C 0.2194 0.26168 0.21577 0.0
H638 H 0.19498 0.27223 0.19746 0.0
H639 H 0.28351 0.22003 0.19359 0.0
C640 C 0.28182 0.18745 0.13539 0.0
N641 N 0.26447 0.18004 0.14641 0.0
C642 C 0.30062 0.16363 0.12915 0.0
C643 C 0.28237 0.12447 0.14541 0.0
C644 C 0.26413 0.14919 0.15142 0.0
C645 C 0.3012 0.13167 0.1342 0.0
H646 H 0.28166 0.21221 0.13163 0.0
H647 H 0.25032 0.14372 0.16017 0.0
C648 C 0.20181 0.31575 0.16744 0.0
N649 N 0.18935 0.38185 0.16517 0.0
C650 C 0.18922 0.32838 0.15569 0.0
C651 C 0.20793 0.33664 0.17806 0.0
C652 C 0.18313 0.3619 0.15473 0.0
C653 C 0.20149 0.37002 0.17671 0.0
C654 C 0.20789 0.23088 0.13154 0.0
C655 C 0.20467 0.24612 0.11927 0.0
C656 C 0.19602 0.19915 0.13328 0.0
C657 C 0.1896 0.22931 0.10893 0.0
C658 C 0.18114 0.18313 0.12271 0.0
N659 N 0.17824 0.19841 0.11085 0.0
C660 C 0.27329 0.30849 0.13506 0.0
C661 C 0.27514 0.33708 0.1554 0.0
C662 C 0.29285 0.33212 0.12909 0.0
N663 N 0.26526 0.31109 0.14802 0.0
C664 C 0.29467 0.3614 0.1498 0.0
C665 C 0.30434 0.35856 0.13658 0.0
H666 H 0.2656 0.28732 0.12949 0.0
H667 H 0.26918 0.3382 0.16576 0.0
C668 C 0.12748 0.23389 0.1635 0.0
N669 N 0.14678 0.24716 0.15401 0.0
C670 C 0.09367 0.23371 0.162 0.0
C671 C 0.10015 0.26147 0.14109 0.0
C672 C 0.13394 0.2608 0.14293 0.0
C673 C 0.0797 0.24787 0.15074 0.0
H674 H 0.13842 0.22369 0.17229 0.0
H675 H 0.14986 0.27145 0.13559 0.0
O676 O 0.27349 0.24351 0.16514 0.0
O677 O 0.20803 0.20975 0.16795 0.0
O678 O 0.2082 0.28307 0.16853 0.0
O679 O 0.22228 0.24731 0.14177 0.0
H680 H 0.31773 0.24366 0.14606 0.0
H681 H 0.29243 0.28457 0.18383 0.0
H682 H 0.36763 0.27802 0.14587 0.0
H683 H 0.34305 0.31785 0.18307 0.0
H684 H 0.14854 0.11581 0.16764 0.0
H685 H 0.24041 0.17805 0.18661 0.0
H686 H 0.16023 0.1715 0.15927 0.0
H687 H 0.22699 0.12241 0.19464 0.0
H688 H 0.29111 0.21964 0.21779 0.0
H689 H 0.20095 0.27357 0.22174 0.0
H690 H 0.31543 0.1705 0.12075 0.0
H691 H 0.28215 0.10011 0.1496 0.0
H692 H 0.18465 0.31254 0.14735 0.0
H693 H 0.2178 0.32721 0.18721 0.0
H694 H 0.17356 0.37207 0.14567 0.0
H695 H 0.20621 0.38653 0.18483 0.0
H696 H 0.21353 0.27077 0.11777 0.0
H697 H 0.19843 0.18696 0.14266 0.0
H698 H 0.18688 0.24084 0.09939 0.0
H699 H 0.1719 0.15853 0.12393 0.0
H700 H 0.29968 0.32932 0.11883 0.0
H701 H 0.30339 0.38135 0.15588 0.0
H702 H 0.07853 0.2233 0.1697 0.0
H703 H 0.09011 0.27247 0.13226 0.0
Li704 Li 0.78394 0.25354 0.17618 0.0
Li705 Li 0.776 0.28544 0.15586 0.0
Li706 Li 0.77383 0.22384 0.15588 0.0
Li707 Li 0.82586 0.25257 0.15804 0.0
C708 C 0.71846 0.25807 0.17311 0.0
N709 N 0.66613 0.26295 0.19021 0.0
C710 C 0.70175 0.28769 0.17444 0.0
C711 C 0.70821 0.23081 0.18032 0.0
C712 C 0.67543 0.28969 0.18317 0.0
C713 C 0.68181 0.23381 0.18896 0.0
C714 C 0.82055 0.32173 0.1706 0.0
C715 C 0.84829 0.36954 0.16231 0.0
N716 N 0.83964 0.38618 0.17338 0.0
C717 C 0.81227 0.33919 0.18197 0.0
C718 C 0.83899 0.33691 0.16074 0.0
C719 C 0.82203 0.3718 0.18316 0.0
C720 C 0.79383 0.23062 0.20206 0.0
N721 N 0.77804 0.25365 0.1948 0.0
C722 C 0.75434 0.27664 0.21423 0.0
C723 C 0.75886 0.27667 0.20059 0.0
C724 C 0.77034 0.25315 0.22195 0.0
C725 C 0.79035 0.22995 0.21576 0.0
H726 H 0.80927 0.21286 0.19722 0.0
H727 H 0.74724 0.29523 0.19465 0.0
C728 C 0.7458 0.32055 0.13573 0.0
N729 N 0.75687 0.3234 0.14831 0.0
C730 C 0.72891 0.34626 0.12981 0.0
C731 C 0.73534 0.37757 0.14987 0.0
C732 C 0.75209 0.35121 0.15541 0.0
C733 C 0.72328 0.37513 0.13694 0.0
H734 H 0.74919 0.29786 0.13044 0.0
H735 H 0.76005 0.35252 0.16554 0.0
C736 C 0.81104 0.1825 0.16969 0.0
N737 N 0.81437 0.11506 0.17071 0.0
C738 C 0.83657 0.16598 0.16343 0.0
C739 C 0.78751 0.16476 0.17664 0.0
C740 C 0.83776 0.13187 0.16402 0.0
C741 C 0.78951 0.13067 0.17699 0.0
C742 C 0.81119 0.25735 0.13136 0.0
C743 C 0.81621 0.23031 0.12317 0.0
C744 C 0.82243 0.28809 0.12741 0.0
C745 C 0.83311 0.23435 0.11131 0.0
C746 C 0.8392 0.29115 0.11548 0.0
N747 N 0.84421 0.26443 0.10775 0.0
C748 C 0.71843 0.18871 0.14846 0.0
C749 C 0.76769 0.16258 0.14221 0.0
C750 C 0.70009 0.16402 0.14257 0.0
N751 N 0.75157 0.18757 0.14821 0.0
C752 C 0.75026 0.13724 0.13619 0.0
C753 C 0.71599 0.13794 0.13629 0.0
H754 H 0.70615 0.20912 0.15304 0.0
H755 H 0.79404 0.16259 0.14186 0.0
C756 C 0.89056 0.27048 0.16258 0.0
N757 N 0.87146 0.25189 0.15458 0.0
C758 C 0.92428 0.27117 0.16082 0.0
C759 C 0.91837 0.23259 0.14291 0.0
C760 C 0.88463 0.23293 0.14493 0.0
C761 C 0.93849 0.25211 0.15087 0.0
H762 H 0.87965 0.28445 0.17047 0.0
H763 H 0.86909 0.21757 0.13897 0.0
O764 O 0.74446 0.25572 0.16468 0.0
O765 O 0.81116 0.28978 0.16926 0.0
O766 O 0.8093 0.21588 0.16911 0.0
O767 O 0.79463 0.25382 0.14299 0.0
H768 H 0.70911 0.30894 0.16885 0.0
H769 H 0.72051 0.2076 0.17927 0.0
H770 H 0.66242 0.31252 0.18435 0.0
H771 H 0.67377 0.21295 0.19467 0.0
H772 H 0.8625 0.38159 0.15474 0.0
H773 H 0.79836 0.32776 0.18976 0.0
H774 H 0.84637 0.32355 0.15206 0.0
H775 H 0.81561 0.38565 0.19188 0.0
H776 H 0.73894 0.29506 0.21873 0.0
H777 H 0.80289 0.21136 0.22144 0.0
H778 H 0.71912 0.34299 0.11998 0.0
H779 H 0.73111 0.3993 0.15573 0.0
H780 H 0.85516 0.1793 0.15811 0.0
H781 H 0.76792 0.17716 0.18173 0.0
H782 H 0.85726 0.11875 0.15914 0.0
H783 H 0.77133 0.11663 0.18227 0.0
H784 H 0.80738 0.20641 0.12599 0.0
H785 H 0.81794 0.30944 0.13341 0.0
H786 H 0.8374 0.21358 0.10494 0.0
H787 H 0.84812 0.3148 0.11233 0.0
H788 H 0.67369 0.16541 0.14284 0.0
H789 H 0.76339 0.11786 0.13121 0.0
H790 H 0.93918 0.28582 0.16738 0.0
H791 H 0.92866 0.21723 0.13527 0.0
Li792 Li 0.73606 0.7494 0.67689 0.0
Li793 Li 0.74327 0.71732 0.65578 0.0
Li794 Li 0.74267 0.7764 0.65574 0.0
Li795 Li 0.69314 0.74767 0.65886 0.0
C796 C 0.80325 0.76047 0.66153 0.0
N797 N 0.86054 0.79032 0.65363 0.0
C798 C 0.8173 0.75257 0.64938 0.0
C799 C 0.81843 0.78343 0.6697 0.0
C800 C 0.84622 0.76799 0.64554 0.0
C801 C 0.84739 0.79824 0.66553 0.0
C802 C 0.70924 0.67891 0.67298 0.0
C803 C 0.69305 0.62371 0.66775 0.0
N804 N 0.70823 0.61294 0.67887 0.0
C805 C 0.72447 0.66733 0.68441 0.0
C806 C 0.69317 0.65698 0.66464 0.0
C807 C 0.72375 0.63388 0.68719 0.0
C808 C 0.71568 0.75041 0.70313 0.0
N809 N 0.74264 0.74967 0.69532 0.0
C810 C 0.77755 0.74796 0.71418 0.0
C811 C 0.77321 0.74826 0.70052 0.0
C812 C 0.75012 0.74845 0.72247 0.0
C813 C 0.71887 0.74972 0.71683 0.0
H814 H 0.6917 0.75135 0.69867 0.0
H815 H 0.79415 0.74701 0.69406 0.0
C816 C 0.76763 0.67886 0.63506 0.0
N817 N 0.76388 0.67989 0.64837 0.0
C818 C 0.78599 0.65404 0.62922 0.0
C819 C 0.79546 0.63117 0.65086 0.0
C820 C 0.77748 0.65681 0.6563 0.0
C821 C 0.80032 0.62979 0.63714 0.0
H822 H 0.75765 0.6982 0.62902 0.0
H823 H 0.77536 0.65888 0.66688 0.0
C824 C 0.70846 0.81836 0.67078 0.0
N825 N 0.70715 0.88555 0.67348 0.0
C826 C 0.69608 0.83787 0.66063 0.0
C827 C 0.71996 0.83297 0.68235 0.0
C828 C 0.69572 0.87181 0.66217 0.0
C829 C 0.71912 0.867 0.68351 0.0
C830 C 0.69963 0.74287 0.63312 0.0
C831 C 0.68949 0.76992 0.62575 0.0
C832 C 0.68685 0.71198 0.63029 0.0
C833 C 0.66638 0.76564 0.61576 0.0
C834 C 0.66378 0.7087 0.62023 0.0
N835 N 0.65408 0.73538 0.61324 0.0
C836 C 0.76835 0.81007 0.63412 0.0
C837 C 0.77587 0.83845 0.65427 0.0
C838 C 0.78648 0.83354 0.62736 0.0
N839 N 0.7635 0.8128 0.64733 0.0
C840 C 0.79415 0.86254 0.6479 0.0
C841 C 0.80012 0.85984 0.63432 0.0
H842 H 0.75917 0.78898 0.62888 0.0
H843 H 0.77282 0.83954 0.66484 0.0
C844 C 0.62952 0.72407 0.66283 0.0
N845 N 0.64709 0.74751 0.6565 0.0
C846 C 0.5955 0.72429 0.66224 0.0
C847 C 0.59825 0.77242 0.64843 0.0
C848 C 0.6322 0.77152 0.64943 0.0
C849 C 0.57959 0.74888 0.65506 0.0
H850 H 0.64187 0.70565 0.6686 0.0
H851 H 0.64657 0.79037 0.64478 0.0
O852 O 0.77431 0.74648 0.66523 0.0
O853 O 0.70969 0.71158 0.67009 0.0
O854 O 0.70896 0.7851 0.66951 0.0
O855 O 0.72202 0.7466 0.64302 0.0
H856 H 0.80571 0.73514 0.64287 0.0
H857 H 0.8076 0.79031 0.67903 0.0
H858 H 0.85721 0.76233 0.63611 0.0
H859 H 0.85926 0.81625 0.6717 0.0
H860 H 0.68082 0.60645 0.66135 0.0
H861 H 0.73696 0.68391 0.691 0.0
H862 H 0.68085 0.66555 0.65587 0.0
H863 H 0.7356 0.62456 0.69596 0.0
H864 H 0.80199 0.74676 0.71823 0.0
H865 H 0.69722 0.75039 0.72296 0.0
H866 H 0.79012 0.6548 0.61867 0.0
H867 H 0.80625 0.61313 0.65735 0.0
H868 H 0.68743 0.82697 0.65157 0.0
H869 H 0.72956 0.8182 0.69031 0.0
H870 H 0.68646 0.88724 0.65435 0.0
H871 H 0.72803 0.87867 0.69239 0.0
H872 H 0.69893 0.79407 0.62786 0.0
H873 H 0.69469 0.69076 0.63579 0.0
H874 H 0.65812 0.78639 0.61005 0.0
H875 H 0.6536 0.68494 0.61797 0.0
H876 H 0.79042 0.83078 0.61685 0.0
H877 H 0.80469 0.88229 0.65361 0.0
H878 H 0.58174 0.7057 0.66744 0.0
H879 H 0.58664 0.7919 0.64291 0.0
Li880 Li 0.69338 0.25331 0.3422 0.0
Li881 Li 0.74514 0.22393 0.34442 0.0
Li882 Li 0.74389 0.28559 0.34426 0.0
Li883 Li 0.73493 0.25341 0.32421 0.0
C884 C 0.71199 0.25826 0.36949 0.0
N885 N 0.68699 0.26591 0.39462 0.0
C886 C 0.70838 0.23116 0.37777 0.0
C887 C 0.70343 0.28932 0.37408 0.0
C888 C 0.69554 0.23551 0.39042 0.0
C889 C 0.69069 0.29266 0.38679 0.0
C890 C 0.7051 0.18308 0.33138 0.0
C891 C 0.72304 0.12886 0.32548 0.0
N892 N 0.69635 0.1161 0.33159 0.0
C893 C 0.67773 0.16946 0.33752 0.0
C894 C 0.72783 0.16268 0.32523 0.0
C895 C 0.67378 0.13552 0.33754 0.0
C896 C 0.62892 0.26275 0.33515 0.0
N897 N 0.64779 0.25258 0.34538 0.0
C898 C 0.60047 0.24063 0.35829 0.0
C899 C 0.63435 0.24154 0.35681 0.0
C900 C 0.58042 0.25083 0.34785 0.0
C901 C 0.59501 0.26222 0.3362 0.0
H902 H 0.64031 0.27098 0.32612 0.0
H903 H 0.64975 0.23296 0.3647 0.0
C904 C 0.79999 0.18905 0.35238 0.0
N905 N 0.76687 0.18766 0.35221 0.0
C906 C 0.81806 0.1639 0.35808 0.0
C907 C 0.76762 0.13612 0.36335 0.0
C908 C 0.75048 0.16207 0.35766 0.0
C909 C 0.8019 0.13697 0.36367 0.0
H910 H 0.81243 0.20993 0.3482 0.0
H911 H 0.72412 0.16181 0.35765 0.0
C912 C 0.69452 0.32069 0.3309 0.0
N913 N 0.66587 0.38183 0.33064 0.0
C914 C 0.69844 0.34122 0.31999 0.0
C915 C 0.67572 0.33109 0.3416 0.0
C916 C 0.68386 0.3721 0.32007 0.0
C917 C 0.6615 0.36212 0.3413 0.0
C918 C 0.79942 0.25717 0.32641 0.0
C919 C 0.81516 0.28696 0.32414 0.0
C920 C 0.80885 0.22944 0.31931 0.0
C921 C 0.83978 0.28864 0.31463 0.0
C922 C 0.83352 0.23213 0.30986 0.0
N923 N 0.84833 0.26143 0.30772 0.0
C924 C 0.77937 0.31893 0.36331 0.0
C925 C 0.76589 0.35189 0.34485 0.0
C926 C 0.79772 0.34423 0.36878 0.0
N927 N 0.76416 0.3231 0.35152 0.0
C928 C 0.78397 0.37791 0.34998 0.0
C929 C 0.80069 0.37395 0.36196 0.0
H930 H 0.77801 0.29554 0.36826 0.0
H931 H 0.75426 0.35435 0.33535 0.0
C932 C 0.72972 0.22801 0.2984 0.0
N933 N 0.74093 0.2536 0.30565 0.0
C934 C 0.73438 0.22743 0.28476 0.0
C935 C 0.76191 0.27961 0.28634 0.0
C936 C 0.7563 0.27941 0.29991 0.0
C937 C 0.75099 0.2533 0.27864 0.0
H938 H 0.71713 0.20806 0.30319 0.0
H939 H 0.76431 0.29976 0.30589 0.0
O940 O 0.7248 0.25443 0.35712 0.0
O941 O 0.70939 0.21624 0.33128 0.0
O942 O 0.70868 0.2904 0.33095 0.0
O943 O 0.77487 0.25516 0.33552 0.0
H944 H 0.71516 0.207 0.37443 0.0
H945 H 0.70688 0.31069 0.36797 0.0
H946 H 0.69238 0.21472 0.39689 0.0
H947 H 0.68387 0.31655 0.39045 0.0
H948 H 0.74054 0.11277 0.32083 0.0
H949 H 0.6598 0.18488 0.34227 0.0
H950 H 0.74902 0.17283 0.32036 0.0
H951 H 0.6528 0.12463 0.3423 0.0
H952 H 0.5901 0.23205 0.36749 0.0
H953 H 0.58033 0.27004 0.32789 0.0
H954 H 0.84444 0.16572 0.35826 0.0
H955 H 0.75421 0.11558 0.36735 0.0
H956 H 0.71272 0.33344 0.31158 0.0
H957 H 0.67185 0.31527 0.34998 0.0
H958 H 0.68683 0.38832 0.31172 0.0
H959 H 0.64691 0.37049 0.34953 0.0
H960 H 0.80826 0.30862 0.32959 0.0
H961 H 0.79709 0.20615 0.32103 0.0
H962 H 0.85203 0.31159 0.3127 0.0
H963 H 0.8409 0.21093 0.30422 0.0
H964 H 0.81053 0.34014 0.37798 0.0
H965 H 0.78543 0.4006 0.3445 0.0
H966 H 0.7255 0.20685 0.27907 0.0
H967 H 0.77433 0.30022 0.28188 0.0
Li968 Li 0.77403 0.77631 0.84603 0.0
Li969 Li 0.82318 0.74829 0.84189 0.0
Li970 Li 0.78076 0.74994 0.82514 0.0
Li971 Li 0.77333 0.71822 0.84569 0.0
C972 C 0.82437 0.81394 0.83556 0.0
N973 N 0.86113 0.8681 0.84227 0.0
C974 C 0.83165 0.82035 0.84878 0.0
C975 C 0.83578 0.83508 0.82576 0.0
C976 C 0.85028 0.84785 0.85197 0.0
C977 C 0.85432 0.86233 0.82935 0.0
C978 C 0.81199 0.72721 0.86742 0.0
C979 C 0.84303 0.67902 0.87299 0.0
N980 N 0.84255 0.68808 0.8859 0.0
C981 C 0.81179 0.73601 0.88074 0.0
C982 C 0.82773 0.69845 0.8635 0.0
C983 C 0.82738 0.71592 0.88993 0.0
C984 C 0.74201 0.80615 0.86697 0.0
N985 N 0.75396 0.81219 0.85472 0.0
C986 C 0.73021 0.86551 0.85466 0.0
C987 C 0.74917 0.8414 0.84861 0.0
C988 C 0.71629 0.85935 0.86707 0.0
C989 C 0.72321 0.82962 0.87341 0.0
H990 H 0.74619 0.78262 0.87154 0.0
H991 H 0.75882 0.8454 0.83881 0.0
C992 C 0.88648 0.73924 0.83292 0.0
N993 N 0.86917 0.74813 0.84377 0.0
C994 C 0.92049 0.73859 0.83333 0.0
C995 C 0.91823 0.75649 0.85605 0.0
C996 C 0.88422 0.75697 0.85518 0.0
C997 C 0.93676 0.74694 0.84505 0.0
H998 H 0.87376 0.73285 0.82393 0.0
H999 H 0.86987 0.76443 0.86361 0.0
C1000 C 0.71528 0.76753 0.83645 0.0
N1001 N 0.66243 0.80956 0.83662 0.0
C1002 C 0.68992 0.76297 0.84549 0.0
C1003 C 0.71364 0.79336 0.82744 0.0
C1004 C 0.66348 0.78455 0.84545 0.0
C1005 C 0.68671 0.81431 0.82767 0.0
C1006 C 0.7996 0.68483 0.8236 0.0
C1007 C 0.76744 0.67773 0.81996 0.0
C1008 C 0.82502 0.665 0.81909 0.0
C1009 C 0.76127 0.65078 0.81187 0.0
C1010 C 0.81783 0.63824 0.81103 0.0
N1011 N 0.78638 0.63175 0.80761 0.0
C1012 C 0.80014 0.75463 0.7988 0.0
C1013 C 0.74345 0.74506 0.80156 0.0
C1014 C 0.79678 0.75381 0.7851 0.0
N1015 N 0.77367 0.75028 0.80668 0.0
C1016 C 0.73891 0.7444 0.78792 0.0
C1017 C 0.76586 0.74849 0.77949 0.0
H1018 H 0.82393 0.75836 0.80319 0.0
H1019 H 0.72289 0.74126 0.80807 0.0
C1020 C 0.73147 0.68857 0.86327 0.0
N1021 N 0.75392 0.68108 0.85389 0.0
C1022 C 0.71406 0.66388 0.86962 0.0
C1023 C 0.74444 0.62393 0.85705 0.0
C1024 C 0.76132 0.64948 0.85094 0.0
C1025 C 0.72025 0.63107 0.86643 0.0
H1026 H 0.7269 0.71388 0.86572 0.0
H1027 H 0.78012 0.64398 0.84381 0.0
O1028 O 0.80627 0.78715 0.8321 0.0
O1029 O 0.79667 0.74679 0.85839 0.0
O1030 O 0.74197 0.74737 0.8366 0.0
O1031 O 0.80647 0.71139 0.83131 0.0
H1032 H 0.82305 0.80436 0.85652 0.0
H1033 H 0.83035 0.83042 0.81547 0.0
H1034 H 0.8561 0.85309 0.86216 0.0
H1035 H 0.86331 0.8789 0.82186 0.0
H1036 H 0.85531 0.65673 0.8701 0.0
H1037 H 0.79971 0.75818 0.88393 0.0
H1038 H 0.82825 0.69114 0.85327 0.0
H1039 H 0.82742 0.72246 0.90027 0.0
H1040 H 0.72537 0.88813 0.84945 0.0
H1041 H 0.71355 0.82427 0.88312 0.0
H1042 H 0.93391 0.73201 0.82451 0.0
H1043 H 0.92993 0.76324 0.86523 0.0
H1044 H 0.69062 0.74311 0.8525 0.0
H1045 H 0.73329 0.79763 0.82052 0.0
H1046 H 0.64379 0.78143 0.85246 0.0
H1047 H 0.68526 0.83453 0.82082 0.0
H1048 H 0.74743 0.69273 0.82337 0.0
H1049 H 0.85005 0.67026 0.82179 0.0
H1050 H 0.73651 0.64498 0.80899 0.0
H1051 H 0.83727 0.62266 0.80747 0.0
H1052 H 0.8182 0.75688 0.77895 0.0
H1053 H 0.71454 0.74095 0.78402 0.0
H1054 H 0.69532 0.67048 0.87666 0.0
H1055 H 0.75008 0.59888 0.85443 0.0
Li1056 Li 0.50855 0.52501 0.07394 0.0
Li1057 Li 0.50514 0.56639 0.09123 0.0
Li1058 Li 0.53911 0.51565 0.09464 0.0
Li1059 Li 0.4796 0.51402 0.09556 0.0
C1060 C 0.56961 0.55775 0.07283 0.0
N1061 N 0.61946 0.57029 0.05513 0.0
C1062 C 0.57371 0.58913 0.06761 0.0
C1063 C 0.59134 0.53295 0.06924 0.0
C1064 C 0.59891 0.59493 0.05862 0.0
C1065 C 0.61626 0.53971 0.06024 0.0
C1066 C 0.44685 0.56976 0.07815 0.0
C1067 C 0.40309 0.60639 0.08408 0.0
N1068 N 0.40389 0.61939 0.07174 0.0
C1069 C 0.44687 0.58313 0.06546 0.0
C1070 C 0.42447 0.58115 0.08748 0.0
C1071 C 0.4251 0.60833 0.06243 0.0
C1072 C 0.49634 0.48915 0.05063 0.0
N1073 N 0.50781 0.51805 0.05537 0.0
C1074 C 0.51744 0.5375 0.03348 0.0
C1075 C 0.51795 0.54219 0.04711 0.0
C1076 C 0.50608 0.50778 0.02831 0.0
C1077 C 0.49551 0.48335 0.03706 0.0
H1078 H 0.4879 0.47055 0.0574 0.0
H1079 H 0.52587 0.56536 0.05108 0.0
C1080 C 0.50475 0.62564 0.10606 0.0
N1081 N 0.50278 0.6123 0.0938 0.0
C1082 C 0.50343 0.65957 0.10767 0.0
C1083 C 0.49842 0.6652 0.08401 0.0
C1084 C 0.49997 0.63131 0.08287 0.0
C1085 C 0.49998 0.67969 0.09654 0.0
H1086 H 0.50767 0.61002 0.11457 0.0
H1087 H 0.49943 0.62014 0.07322 0.0
C1088 C 0.52285 0.4553 0.08288 0.0
N1089 N 0.55049 0.39472 0.07815 0.0
C1090 C 0.51332 0.42811 0.09031 0.0
C1091 C 0.5459 0.45141 0.07283 0.0
C1092 C 0.52773 0.39777 0.08784 0.0
C1093 C 0.55972 0.42067 0.07064 0.0
C1094 C 0.49674 0.53747 0.11963 0.0
C1095 C 0.51169 0.51881 0.12947 0.0
C1096 C 0.46825 0.55482 0.12253 0.0
C1097 C 0.49742 0.5172 0.14198 0.0
C1098 C 0.45473 0.5526 0.13515 0.0
N1099 N 0.46944 0.53395 0.14452 0.0
C1100 C 0.60704 0.50849 0.10145 0.0
C1101 C 0.57021 0.46853 0.10955 0.0
C1102 C 0.63337 0.49208 0.10723 0.0
N1103 N 0.57632 0.49612 0.10252 0.0
C1104 C 0.59564 0.45147 0.11549 0.0
C1105 C 0.62772 0.46302 0.11426 0.0
H1106 H 0.61113 0.53101 0.09612 0.0
H1107 H 0.54544 0.45986 0.1106 0.0
C1108 C 0.4137 0.4934 0.09986 0.0
N1109 N 0.44527 0.49069 0.10386 0.0
C1110 C 0.38966 0.47345 0.10546 0.0
C1111 C 0.43108 0.44898 0.1193 0.0
C1112 C 0.45419 0.46933 0.11347 0.0
C1113 C 0.3985 0.45042 0.11509 0.0
H1114 H 0.40737 0.51031 0.09207 0.0
H1115 H 0.47954 0.46738 0.11632 0.0
O1116 O 0.5449 0.55163 0.0816 0.0
O1117 O 0.46825 0.54528 0.08133 0.0
O1118 O 0.50907 0.48529 0.08523 0.0
O1119 O 0.51009 0.53896 0.10726 0.0
H1120 H 0.55755 0.6088 0.0704 0.0
H1121 H 0.58938 0.50888 0.07352 0.0
H1122 H 0.60216 0.61904 0.05443 0.0
H1123 H 0.63317 0.52068 0.05737 0.0
H1124 H 0.38578 0.61556 0.09124 0.0
H1125 H 0.46371 0.57439 0.05806 0.0
H1126 H 0.42343 0.57052 0.09722 0.0
H1127 H 0.42509 0.61911 0.05269 0.0
H1128 H 0.52538 0.5571 0.02705 0.0
H1129 H 0.48698 0.45992 0.03346 0.0
H1130 H 0.50502 0.66997 0.11747 0.0
H1131 H 0.49672 0.67997 0.07517 0.0
H1132 H 0.49513 0.43039 0.09797 0.0
H1133 H 0.5527 0.47176 0.06664 0.0
H1134 H 0.52078 0.37664 0.09361 0.0
H1135 H 0.57766 0.41742 0.06292 0.0
H1136 H 0.53401 0.50564 0.1275 0.0
H1137 H 0.4568 0.56994 0.11514 0.0
H1138 H 0.50862 0.50267 0.14966 0.0
H1139 H 0.43258 0.56578 0.13749 0.0
H1140 H 0.65775 0.50207 0.10631 0.0
H1141 H 0.59029 0.42919 0.12086 0.0
H1142 H 0.36472 0.47511 0.10197 0.0
H1143 H 0.4387 0.43182 0.12683 0.0
Li1144 Li 0.98183 0.48203 0.59535 0.0
Li1145 Li 0.04198 0.48239 0.59488 0.0
Li1146 Li 0.01273 0.47115 0.57454 0.0
Li1147 Li 0.01366 0.43299 0.59304 0.0
C1148 C 0.99571 0.53571 0.57864 0.0
N1149 N 0.96285 0.58453 0.56529 0.0
C1150 C 0.00955 0.56679 0.57746 0.0
C1151 C 0.96519 0.5294 0.57302 0.0
C1152 C 0.99254 0.59117 0.57068 0.0
C1153 C 0.94896 0.55442 0.56631 0.0
C1154 C 0.00592 0.44462 0.61914 0.0
C1155 C 0.02313 0.40707 0.63615 0.0
N1156 N 0.99224 0.40671 0.64106 0.0
C1157 C 0.9744 0.44408 0.62445 0.0
C1158 C 0.03057 0.42619 0.62513 0.0
C1159 C 0.96796 0.4247 0.6355 0.0
C1160 C 0.91451 0.49369 0.60204 0.0
N1161 N 0.94567 0.5051 0.6024 0.0
C1162 C 0.92851 0.55363 0.61346 0.0
C1163 C 0.95303 0.53438 0.60796 0.0
C1164 C 0.89608 0.54244 0.61342 0.0
C1165 C 0.88921 0.51192 0.60766 0.0
H1166 H 0.90935 0.47036 0.59753 0.0
H1167 H 0.97807 0.54281 0.60807 0.0
C1168 C 0.0938 0.52774 0.59428 0.0
N1169 N 0.07825 0.50522 0.60189 0.0
C1170 C 0.11836 0.54726 0.5997 0.0
C1171 C 0.11087 0.51938 0.62053 0.0
C1172 C 0.08651 0.50044 0.61472 0.0
C1173 C 0.12655 0.54364 0.61307 0.0
H1174 H 0.08646 0.53112 0.58412 0.0
H1175 H 0.07354 0.48257 0.62054 0.0
C1176 C 0.9632 0.41701 0.57864 0.0
N1177 N 0.94185 0.35495 0.57213 0.0
C1178 C 0.97937 0.39894 0.56892 0.0
C1179 C 0.93618 0.40347 0.58506 0.0
C1180 C 0.9682 0.36763 0.56577 0.0
C1181 C 0.92574 0.37208 0.58161 0.0
C1182 C 0.08377 0.44511 0.58351 0.0
C1183 C 0.1049 0.45976 0.57444 0.0
C1184 C 0.09666 0.42911 0.59451 0.0
C1185 C 0.13855 0.45864 0.57666 0.0
C1186 C 0.13043 0.42852 0.5964 0.0
N1187 N 0.15051 0.44322 0.58751 0.0
C1188 C 0.03656 0.49406 0.55009 0.0
C1189 C 0.98493 0.46806 0.54902 0.0
C1190 C 0.03656 0.4988 0.53645 0.0
N1191 N 0.0114 0.47815 0.55601 0.0
C1192 C 0.98377 0.47251 0.53538 0.0
C1193 C 0.01013 0.48749 0.52889 0.0
H1194 H 0.05654 0.50323 0.55596 0.0
H1195 H 0.9646 0.4567 0.55403 0.0
C1196 C 0.99207 0.37267 0.60485 0.0
N1197 N 0.01432 0.38697 0.5967 0.0
C1198 C 0.99111 0.33873 0.60619 0.0
C1199 C 0.03558 0.33473 0.59061 0.0
C1200 C 0.03592 0.36871 0.58967 0.0
C1201 C 0.01285 0.31943 0.59889 0.0
H1202 H 0.9741 0.38742 0.60985 0.0
H1203 H 0.05262 0.38045 0.58292 0.0
O1204 O 0.01222 0.5116 0.5852 0.0
O1205 O 0.01273 0.46367 0.60837 0.0
O1206 O 0.97452 0.44729 0.58215 0.0
O1207 O 0.05064 0.44672 0.58174 0.0
H1208 H 0.03319 0.57202 0.58175 0.0
H1209 H 0.95412 0.50547 0.57379 0.0
H1210 H 0.00294 0.61536 0.56969 0.0
H1211 H 0.92533 0.54989 0.56191 0.0
H1212 H 0.04194 0.39254 0.64081 0.0
H1213 H 0.95501 0.45822 0.62006 0.0
H1214 H 0.05518 0.42652 0.62134 0.0
H1215 H 0.94363 0.42394 0.63964 0.0
H1216 H 0.93488 0.57713 0.61766 0.0
H1217 H 0.86472 0.50198 0.60768 0.0
H1218 H 0.12989 0.56582 0.59366 0.0
H1219 H 0.11691 0.5156 0.63082 0.0
H1220 H 0.00073 0.40876 0.56404 0.0
H1221 H 0.92375 0.41673 0.59278 0.0
H1222 H 0.98063 0.35331 0.55834 0.0
H1223 H 0.90498 0.36123 0.58655 0.0
H1224 H 0.09553 0.47195 0.56579 0.0
H1225 H 0.08074 0.41734 0.60154 0.0
H1226 H 0.15515 0.47005 0.56975 0.0
H1227 H 0.14067 0.41637 0.60493 0.0
H1228 H 0.05715 0.51089 0.53185 0.0
H1229 H 0.96234 0.4646 0.53 0.0
H1230 H 0.9727 0.32762 0.61242 0.0
H1231 H 0.05248 0.32048 0.58473 0.0
Li1232 Li 0.47904 0.48478 0.90509 0.0
Li1233 Li 0.53859 0.48288 0.9056 0.0
Li1234 Li 0.50604 0.43343 0.90854 0.0
Li1235 Li 0.50854 0.47522 0.92568 0.0
C1236 C 0.51146 0.44029 0.88278 0.0
N1237 N 0.51808 0.39386 0.86317 0.0
C1238 C 0.54172 0.43535 0.87673 0.0
C1239 C 0.48451 0.42177 0.8788 0.0
C1240 C 0.54457 0.41175 0.86684 0.0
C1241 C 0.48839 0.39835 0.86889 0.0
C1242 C 0.52378 0.54343 0.91154 0.0
C1243 C 0.56793 0.58191 0.91432 0.0
N1244 N 0.55555 0.60034 0.90433 0.0
C1245 C 0.51147 0.56281 0.90132 0.0
C1246 C 0.55217 0.55312 0.91813 0.0
C1247 C 0.52787 0.5915 0.89784 0.0
C1248 C 0.4268 0.52928 0.90492 0.0
N1249 N 0.44275 0.50669 0.8975 0.0
C1250 C 0.40947 0.51913 0.87882 0.0
C1251 C 0.43459 0.50123 0.88469 0.0
C1252 C 0.39271 0.54277 0.88623 0.0
C1253 C 0.40146 0.54762 0.89947 0.0
H1254 H 0.43439 0.53363 0.91499 0.0
H1255 H 0.44807 0.48356 0.87895 0.0
C1256 C 0.60609 0.49957 0.90374 0.0
N1257 N 0.57641 0.5015 0.8978 0.0
C1258 C 0.63255 0.51711 0.89868 0.0
C1259 C 0.59766 0.53692 0.88118 0.0
C1260 C 0.57196 0.519 0.88655 0.0
C1261 C 0.62821 0.53671 0.88744 0.0
H1262 H 0.60899 0.4852 0.9126 0.0
H1263 H 0.54803 0.51999 0.88205 0.0
C1264 C 0.43701 0.45523 0.9203 0.0
N1265 N 0.37051 0.46512 0.92244 0.0
C1266 C 0.42449 0.47417 0.93059 0.0
C1267 C 0.41573 0.44114 0.91114 0.0
C1268 C 0.39078 0.4789 0.9315 0.0
C1269 C 0.38218 0.44651 0.91237 0.0
C1270 C 0.55876 0.43771 0.93014 0.0
C1271 C 0.55224 0.40636 0.93496 0.0
C1272 C 0.57835 0.45899 0.93748 0.0
C1273 C 0.56531 0.39687 0.9471 0.0
C1274 C 0.59089 0.44862 0.94959 0.0
N1275 N 0.58416 0.41803 0.95411 0.0
C1276 C 0.53046 0.37245 0.89988 0.0
C1277 C 0.47882 0.37036 0.91045 0.0
C1278 C 0.53066 0.33852 0.89844 0.0
N1279 N 0.50467 0.38758 0.90572 0.0
C1280 C 0.47828 0.33634 0.90942 0.0
C1281 C 0.50445 0.32015 0.90336 0.0
H1282 H 0.55115 0.38669 0.8966 0.0
H1283 H 0.45901 0.38296 0.91532 0.0
C1284 C 0.51629 0.51084 0.94957 0.0
N1285 N 0.50748 0.48165 0.94424 0.0
C1286 C 0.5159 0.51516 0.96322 0.0
C1287 C 0.4968 0.45952 0.96562 0.0
C1288 C 0.49766 0.45623 0.95192 0.0
C1289 C 0.50595 0.48932 0.9714 0.0
H1290 H 0.52355 0.53076 0.94323 0.0
H1291 H 0.49065 0.43336 0.94738 0.0
O1292 O 0.50825 0.46301 0.8926 0.0
O1293 O 0.50857 0.51478 0.91485 0.0
O1294 O 0.46997 0.45089 0.91906 0.0
O1295 O 0.54554 0.44775 0.91843 0.0
H1296 H 0.56287 0.44935 0.87973 0.0
H1297 H 0.46096 0.42516 0.88343 0.0
H1298 H 0.56787 0.40756 0.86211 0.0
H1299 H 0.4678 0.38368 0.86578 0.0
H1300 H 0.59011 0.58948 0.91923 0.0
H1301 H 0.48974 0.5556 0.89601 0.0
H1302 H 0.56237 0.53819 0.92591 0.0
H1303 H 0.5187 0.60664 0.88991 0.0
H1304 H 0.40348 0.51486 0.86855 0.0
H1305 H 0.38965 0.56619 0.9054 0.0
H1306 H 0.65594 0.51585 0.90363 0.0
H1307 H 0.59334 0.55183 0.87252 0.0
H1308 H 0.44061 0.48544 0.93772 0.0
H1309 H 0.42504 0.42651 0.90309 0.0
H1310 H 0.38075 0.49364 0.93938 0.0
H1311 H 0.36544 0.43593 0.90531 0.0
H1312 H 0.53702 0.3896 0.92946 0.0
H1313 H 0.58329 0.48349 0.93399 0.0
H1314 H 0.56036 0.37273 0.95097 0.0
H1315 H 0.60583 0.46494 0.95543 0.0
H1316 H 0.55152 0.32665 0.89394 0.0
H1317 H 0.45784 0.32277 0.91343 0.0
H1318 H 0.52292 0.53856 0.96735 0.0
H1319 H 0.48942 0.4389 0.97162 0.0
Li1320 Li 0.01563 0.56675 0.40898 0.0
Li1321 Li 0.01099 0.52569 0.42642 0.0
Li1322 Li 0.04251 0.51462 0.40537 0.0
Li1323 Li 0.98291 0.51551 0.40528 0.0
C1324 C 0.07199 0.57124 0.42351 0.0
N1325 N 0.11303 0.62123 0.43138 0.0
C1326 C 0.06847 0.58531 0.436 0.0
C1327 C 0.09686 0.58211 0.41515 0.0
C1328 C 0.08932 0.61069 0.43976 0.0
C1329 C 0.11723 0.60754 0.41928 0.0
C1330 C 0.94958 0.5576 0.42635 0.0
C1331 C 0.90444 0.53835 0.43951 0.0
N1332 N 0.89819 0.56959 0.44335 0.0
C1333 C 0.94251 0.58957 0.43032 0.0
C1334 C 0.93023 0.53182 0.4309 0.0
C1335 C 0.9165 0.59511 0.43895 0.0
C1336 C 0.01815 0.62521 0.39376 0.0
N1337 N 0.01784 0.6125 0.40616 0.0
C1338 C 0.02043 0.66587 0.41561 0.0
C1339 C 0.01851 0.63205 0.41698 0.0
C1340 C 0.02135 0.67967 0.40295 0.0
C1341 C 0.01988 0.65902 0.39191 0.0
H1342 H 0.01676 0.60921 0.38531 0.0
H1343 H 0.01708 0.62137 0.42671 0.0
C1344 C 0.02461 0.49138 0.44977 0.0
N1345 N 0.01007 0.51878 0.44498 0.0
C1346 C 0.02486 0.48519 0.46331 0.0
C1347 C 0.99555 0.53576 0.46675 0.0
C1348 C 0.9961 0.54109 0.45316 0.0
C1349 C 0.00986 0.50739 0.47198 0.0
H1350 H 0.03617 0.47441 0.44305 0.0
H1351 H 0.98574 0.56325 0.44919 0.0
C1352 C 0.02757 0.53912 0.38093 0.0
N1353 N 0.05761 0.53912 0.35651 0.0
C1354 C 0.01296 0.5232 0.37025 0.0
C1355 C 0.0572 0.55546 0.37912 0.0
C1356 C 0.02859 0.52337 0.358 0.0
C1357 C 0.07207 0.55507 0.36673 0.0
C1358 C -0.00084 0.45515 0.41653 0.0
C1359 C 0.00851 0.43018 0.40791 0.0
C1360 C 0.97692 0.44838 0.42663 0.0
C1361 C 0.99468 0.39913 0.40927 0.0
C1362 C 0.96367 0.41701 0.42769 0.0
N1363 N 0.97269 0.39326 0.41904 0.0
C1364 C 0.10869 0.49419 0.40348 0.0
C1365 C 0.07307 0.4742 0.38689 0.0
C1366 C 0.13477 0.47672 0.39806 0.0
N1367 N 0.07863 0.49258 0.39783 0.0
C1368 C 0.09842 0.45674 0.38107 0.0
C1369 C 0.12968 0.45785 0.38668 0.0
H1370 H 0.11227 0.50863 0.4123 0.0
H1371 H 0.04874 0.47261 0.38283 0.0
C1372 C 0.9153 0.50561 0.39862 0.0
N1373 N 0.94665 0.49557 0.39683 0.0
C1374 C 0.88968 0.489 0.39242 0.0
C1375 C 0.92928 0.453 0.38234 0.0
C1376 C 0.95399 0.47018 0.38873 0.0
C1377 C 0.89664 0.46233 0.38418 0.0
H1378 H 0.91012 0.52642 0.40482 0.0
H1379 H 0.97917 0.46325 0.38723 0.0
O1380 O 0.05163 0.5465 0.41963 0.0
O1381 O 0.97529 0.55173 0.41805 0.0
O1382 O 0.01293 0.53868 0.39307 0.0
O1383 O 0.01243 0.48575 0.41532 0.0
H1384 H 0.0496 0.57703 0.44265 0.0
H1385 H 0.1006 0.57093 0.40562 0.0
H1386 H 0.08664 0.62202 0.44934 0.0
H1387 H 0.13645 0.61631 0.41287 0.0
H1388 H 0.88931 0.51858 0.44312 0.0
H1389 H 0.95695 0.60989 0.42679 0.0
H1390 H 0.93481 0.5071 0.42768 0.0
H1391 H 0.91087 0.6197 0.44215 0.0
H1392 H 0.02051 0.68112 0.42434 0.0
H1393 H 0.02014 0.66892 0.382 0.0
H1394 H 0.03707 0.46353 0.46697 0.0
H1395 H 0.98394 0.5536 0.4731 0.0
H1396 H 0.98982 0.51081 0.37139 0.0
H1397 H 0.06853 0.56832 0.38721 0.0
H1398 H 0.01764 0.51099 0.34967 0.0
H1399 H 0.0951 0.56748 0.36523 0.0
H1400 H 0.02609 0.43475 0.40018 0.0
H1401 H 0.97021 0.46699 0.43368 0.0
H1402 H 0.00147 0.3797 0.40258 0.0
H1403 H 0.94633 0.41152 0.43543 0.0
H1404 H 0.15856 0.47778 0.4027 0.0
H1405 H 0.09345 0.44176 0.37249 0.0
H1406 H 0.86476 0.49694 0.39402 0.0
H1407 H 0.93561 0.43224 0.37622 0.0
C1408 C 0.00316 0.23233 0.58701 0.0
C1409 C 0.0055 0.21404 0.59871 0.0
C1410 C 0.00574 0.26643 0.58719 0.0
C1411 C 0.01034 0.28342 0.59909 0.0
H1412 H -0.00021 0.22012 0.57762 0.0
H1413 H 0.00389 0.27965 0.57795 0.0
S1414 S 0.01735 0.24693 0.63243 0.0
N1415 N 0.01232 0.21526 0.62251 0.0
N1416 N 0.01687 0.27965 0.62287 0.0
C1417 C 0.01234 0.2655 0.61088 0.0
C1418 C 0.01009 0.2307 0.61068 0.0
C1419 C 0.99009 0.77329 0.85079 0.0
C1420 C 0.97292 0.74628 0.84571 0.0
C1421 C 0.02431 0.77376 0.851 0.0
C1422 C 0.04259 0.74716 0.84623 0.0
H1423 H 0.97699 0.79449 0.85439 0.0
H1424 H 0.03655 0.79512 0.85494 0.0
S1425 S 0.00928 0.67026 0.83219 0.0
N1426 N 0.9767 0.69185 0.83618 0.0
N1427 N 0.04096 0.69309 0.83624 0.0
C1428 C 0.0257 0.71986 0.84125 0.0
C1429 C 0.9909 0.71936 0.84106 0.0
C1430 C 0.52449 0.73187 0.10473 0.0
C1431 C 0.49944 0.71574 0.09783 0.0
C1432 C 0.52623 0.7661 0.10498 0.0
C1433 C 0.50276 0.78534 0.09847 0.0
H1434 H 0.54349 0.71793 0.10959 0.0
H1435 H 0.54629 0.77761 0.11018 0.0
S1436 S 0.43141 0.75484 0.07958 0.0
N1437 N 0.44988 0.72143 0.08486 0.0
N1438 N 0.45332 0.78575 0.08519 0.0
C1439 C 0.47707 0.76948 0.09186 0.0
C1440 C 0.47539 0.73468 0.09156 0.0
C1441 C 0.5256 0.27672 0.34525 0.0
C1442 C 0.54439 0.24942 0.34891 0.0
C1443 C 0.49146 0.27551 0.34541 0.0
C1444 C 0.47485 0.24687 0.34915 0.0
H1445 H 0.5374 0.29915 0.34214 0.0
H1446 H 0.47798 0.29689 0.34222 0.0
S1447 S 0.51269 0.16902 0.36001 0.0
N1448 N 0.54395 0.19308 0.35659 0.0
N1449 N 0.47964 0.19101 0.35712 0.0
C1450 C 0.49331 0.2196 0.3531 0.0
C1451 C 0.52811 0.22085 0.35295 0.0
C1452 C 0.99667 0.76551 0.39314 0.0
C1453 C 0.0191 0.78504 0.40008 0.0
C1454 C 0.99834 0.73133 0.39369 0.0
C1455 C 0.02225 0.71559 0.40135 0.0
H1456 H 0.97738 0.77677 0.38741 0.0
H1457 H 0.9801 0.71715 0.38849 0.0
S1458 S 0.08744 0.75559 0.42093 0.0
N1459 N 0.06647 0.78621 0.41453 0.0
N1460 N 0.06975 0.7219 0.41549 0.0
C1461 C 0.04536 0.73481 0.40804 0.0
C1462 C 0.04378 0.76957 0.40741 0.0
C1463 C 0.49234 0.75171 0.64262 0.0
C1464 C 0.47429 0.75457 0.65436 0.0
C1465 C 0.52654 0.75019 0.64289 0.0
C1466 C 0.5436 0.75077 0.65492 0.0
H1467 H 0.47993 0.75088 0.63319 0.0
H1468 H 0.53972 0.74811 0.63366 0.0
S1469 S 0.50756 0.75769 0.68834 0.0
N1470 N 0.47583 0.75786 0.67828 0.0
N1471 N 0.5401 0.75464 0.67879 0.0
C1472 C 0.5258 0.7535 0.6667 0.0
C1473 C 0.49111 0.75551 0.66642 0.0
C1474 C 0.50436 0.26633 0.91484 0.0
C1475 C 0.50539 0.28409 0.90298 0.0
C1476 C 0.5062 0.23215 0.91483 0.0
C1477 C 0.50854 0.21462 0.90295 0.0
H1478 H 0.50261 0.27902 0.9242 0.0
H1479 H 0.50551 0.2193 0.92418 0.0
S1480 S 0.51154 0.24965 0.86927 0.0
N1481 N 0.5088 0.28181 0.87908 0.0
N1482 N 0.51159 0.21731 0.87905 0.0
C1483 C 0.50921 0.23203 0.89102 0.0
C1484 C 0.50787 0.26688 0.89104 0.0
C1485 C 0.02527 0.22039 0.15053 0.0
C1486 C 0.0438 0.24921 0.14941 0.0
C1487 C 0.99108 0.22139 0.15043 0.0
C1488 C 0.97437 0.25129 0.14941 0.0
H1489 H 0.03732 0.19699 0.1517 0.0
H1490 H 0.97764 0.19876 0.15164 0.0
S1491 S 0.01159 0.33341 0.14576 0.0
N1492 N 0.04305 0.30828 0.14682 0.0
N1493 N 0.97869 0.31017 0.1467 0.0
C1494 C 0.9926 0.28016 0.14795 0.0
C1495 C 0.02737 0.27911 0.14792 0.0
C1496 C 0.99448 0.0215 0.49101 0.0
C1497 C 0.01125 0.99522 0.48515 0.0
C1498 C 0.99445 0.02598 0.50471 0.0
C1499 C 0.01136 0.00448 0.51313 0.0
H1500 H 0.98137 0.03894 0.48496 0.0
H1501 H 0.9807 0.04628 0.50873 0.0
S1502 S 0.05946 0.93193 0.50278 0.0
N1503 N 0.04471 0.94693 0.48889 0.0
N1504 N 0.04624 0.95644 0.51455 0.0
C1505 C 0.02856 0.97828 0.5074 0.0
C1506 C 0.0282 0.97345 0.49345 0.0
C1507 C 0.23795 0.73245 0.75517 0.0
C1508 C 0.25381 0.75547 0.76326 0.0
C1509 C 0.24214 0.73271 0.74145 0.0
C1510 C 0.26249 0.75588 0.73534 0.0
H1511 H 0.22256 0.71375 0.75948 0.0
H1512 H 0.22979 0.71432 0.73559 0.0
S1513 S 0.30725 0.82314 0.75188 0.0
N1514 N 0.28895 0.80342 0.76403 0.0
N1515 N 0.29723 0.80347 0.73824 0.0
C1516 C 0.27811 0.77932 0.74326 0.0
C1517 C 0.27368 0.77922 0.75722 0.0
C1518 C 0.52826 0.01469 0.00713 0.0
C1519 C 0.5067 0.99322 0.01354 0.0
C1520 C 0.52683 0.01923 0.99344 0.0
C1521 C 0.5036 0.00263 0.98569 0.0
H1522 H 0.54668 0.02773 0.01271 0.0
H1523 H 0.54436 0.03552 0.98888 0.0
S1524 S 0.4398 0.94587 0.99802 0.0
N1525 N 0.46048 0.95642 0.01134 0.0
N1526 N 0.45728 0.96536 0.98562 0.0
C1527 C 0.48149 0.98153 0.99206 0.0
C1528 C 0.48316 0.97673 0.00598 0.0
C1529 C 0.25441 0.21783 0.2431 0.0
C1530 C 0.251 0.2473 0.2361 0.0
C1531 C 0.25876 0.2178 0.25682 0.0
C1532 C 0.26045 0.24728 0.26392 0.0
H1533 H 0.25349 0.19464 0.23794 0.0
H1534 H 0.26135 0.19462 0.26188 0.0
S1535 S 0.25302 0.33092 0.25016 0.0
N1536 N 0.24949 0.30662 0.23723 0.0
N1537 N 0.25807 0.3066 0.26301 0.0
C1538 C 0.25713 0.27689 0.25703 0.0
C1539 C 0.25225 0.27689 0.24311 0.0
C1540 C 0.73456 0.25072 0.24187 0.0
C1541 C 0.76606 0.25293 0.23643 0.0
C1542 C 0.72989 0.25045 0.25557 0.0
C1543 C 0.75654 0.253 0.26424 0.0
H1544 H 0.71343 0.24889 0.23548 0.0
H1545 H 0.70526 0.24868 0.2594 0.0
S1546 S 0.8438 0.25957 0.25496 0.0
N1547 N 0.82423 0.25769 0.24073 0.0
N1548 N 0.8154 0.25759 0.2665 0.0
C1549 C 0.78811 0.25536 0.25893 0.0
C1550 C 0.7929 0.25517 0.24501 0.0
C1551 C 0.77326 0.77151 0.74328 0.0
C1552 C 0.75412 0.74769 0.73696 0.0
C1553 C 0.77693 0.77157 0.75703 0.0
C1554 C 0.76179 0.74763 0.76493 0.0
H1555 H 0.78506 0.79053 0.73757 0.0
H1556 H 0.79136 0.79078 0.76151 0.0
S1557 S 0.7117 0.6781 0.75291 0.0
N1558 N 0.72129 0.69864 0.73943 0.0
N1559 N 0.72875 0.69816 0.76525 0.0
C1560 C 0.74317 0.72324 0.75866 0.0
C1561 C 0.73921 0.7234 0.74468 0.0
C1562 C 0.53302 0.50584 0.99247 0.0
C1563 C 0.5054 0.49347 0.98592 0.0
C1564 C 0.53306 0.51021 0.00618 0.0
C1565 C 0.50546 0.50244 0.01383 0.0
H1566 H 0.55488 0.51191 0.98697 0.0
H1567 H 0.55498 0.5195 0.01084 0.0
S1568 S 0.42617 0.47156 0.00126 0.0
N1569 N 0.44929 0.47487 0.98798 0.0
N1570 N 0.44925 0.48328 0.01375 0.0
C1571 C 0.47758 0.49034 0.00737 0.0
C1572 C 0.47757 0.48581 0.99342 0.0
C1573 C 0.01843 0.5222 0.50881 0.0
C1574 C 0.0099 0.49182 0.51435 0.0
C1575 C 0.01831 0.52698 0.49513 0.0
C1576 C 0.00975 0.50156 0.48644 0.0
H1577 H 0.02495 0.54257 0.51512 0.0
H1578 H 0.02527 0.55074 0.49132 0.0
S1579 S 0.98561 0.4173 0.4959 0.0
N1580 N 0.99327 0.43572 0.51006 0.0
N1581 N 0.99203 0.44503 0.48435 0.0
C1582 C 0.00114 0.47106 0.49183 0.0
C1583 C 0.00138 0.46615 0.50577 0.0
C1584 C 0.19139 0.922 0.63154 0.0
C1585 C 0.19015 0.88847 0.62848 0.0
C1586 C 0.16845 0.94386 0.62625 0.0
C1587 C 0.14331 0.93262 0.61799 0.0
H1588 H 0.21013 0.93128 0.63809 0.0
H1589 H 0.16989 0.96951 0.62886 0.0
S1590 S 0.12924 0.84735 0.60712 0.0
N1591 N 0.16192 0.84522 0.61663 0.0
N1592 N 0.1185 0.88627 0.60691 0.0
C1593 C 0.1419 0.89928 0.61483 0.0
C1594 C 0.16544 0.87717 0.62002 0.0
C1595 C 0.32275 0.92173 0.86654 0.0
C1596 C 0.32482 0.8882 0.86953 0.0
C1597 C 0.34542 0.94404 0.87174 0.0
C1598 C 0.3711 0.93326 0.87982 0.0
H1599 H 0.30353 0.93068 0.86015 0.0
H1600 H 0.34328 0.9697 0.86923 0.0
S1601 S 0.38751 0.84815 0.89037 0.0
N1602 N 0.35451 0.84542 0.88106 0.0
N1603 N 0.39738 0.88731 0.8906 0.0
C1604 C 0.37339 0.89991 0.88287 0.0
C1605 C 0.35014 0.87734 0.87777 0.0
C1606 C 0.367 0.06677 0.13152 0.0
C1607 C 0.37066 0.06277 0.11782 0.0
C1608 C 0.34375 0.08829 0.13672 0.0
C1609 C 0.32325 0.10669 0.12842 0.0
H1610 H 0.38257 0.05348 0.1383 0.0
H1611 H 0.34257 0.09132 0.14733 0.0
S1612 S 0.32179 0.10392 0.09184 0.0
N1613 N 0.35129 0.07845 0.09603 0.0
N1614 N 0.30677 0.11806 0.10583 0.0
C1615 C 0.3259 0.10214 0.11471 0.0
C1616 C 0.34973 0.08034 0.1094 0.0
C1617 C 0.16735 0.0581 0.37297 0.0
C1618 C 0.14397 0.06971 0.38198 0.0
C1619 C 0.19077 0.0792 0.36754 0.0
C1620 C 0.19187 0.11242 0.37111 0.0
H1621 H 0.16694 0.03278 0.36984 0.0
H1622 H 0.208 0.06955 0.36042 0.0
S1623 S 0.13679 0.15435 0.39473 0.0
N1624 N 0.12396 0.11608 0.39458 0.0
N1625 N 0.16785 0.15577 0.38436 0.0
C1626 C 0.16909 0.12407 0.38036 0.0
C1627 C 0.14514 0.1027 0.38579 0.0
C1628 C 0.86895 0.07445 0.36893 0.0
C1629 C 0.86227 0.062 0.38159 0.0
C1630 C 0.84878 0.09796 0.36311 0.0
C1631 C 0.82115 0.11013 0.36972 0.0
H1632 H 0.89055 0.06676 0.36361 0.0
H1633 H 0.85516 0.10702 0.35341 0.0
S1634 S 0.79184 0.08431 0.40277 0.0
N1635 N 0.82493 0.06213 0.40024 0.0
N1636 N 0.78761 0.10736 0.3895 0.0
C1637 C 0.81363 0.09731 0.38224 0.0
C1638 C 0.8341 0.07311 0.38814 0.0
C1639 C 0.6517 0.09906 0.11448 0.0
C1640 C 0.65564 0.06541 0.11687 0.0
C1641 C 0.67169 0.12218 0.12065 0.0
C1642 C 0.69653 0.11258 0.12941 0.0
H1643 H 0.63239 0.10769 0.10806 0.0
H1644 H 0.66751 0.14785 0.11862 0.0
S1645 S 0.71786 0.02746 0.13859 0.0
N1646 N 0.68702 0.02351 0.12821 0.0
N1647 N 0.72453 0.06716 0.13995 0.0
C1648 C 0.7013 0.07901 0.13166 0.0
C1649 C 0.6808 0.05539 0.1254 0.0
C1650 C 0.70129 0.91654 0.87373 0.0
C1651 C 0.69333 0.88308 0.8731 0.0
C1652 C 0.67965 0.93925 0.87933 0.0
C1653 C 0.64949 0.92915 0.88455 0.0
H1654 H 0.7245 0.92518 0.86997 0.0
H1655 H 0.68664 0.96478 0.8797 0.0
S1656 S 0.61561 0.84511 0.88405 0.0
N1657 N 0.65204 0.84155 0.87723 0.0
N1658 N 0.61178 0.88411 0.88796 0.0
C1659 C 0.64102 0.89594 0.88377 0.0
C1660 C 0.66284 0.87293 0.878 0.0
C1661 C 0.81716 0.91715 0.62896 0.0
C1662 C 0.82207 0.88328 0.6276 0.0
C1663 C 0.83828 0.93963 0.62292 0.0
C1664 C 0.86498 0.92895 0.61533 0.0
H1665 H 0.7968 0.9263 0.6347 0.0
H1666 H 0.83369 0.96553 0.62418 0.0
S1667 S 0.8901 0.8429 0.6098 0.0
N1668 N 0.85661 0.84018 0.61879 0.0
N1669 N 0.89625 0.88237 0.60744 0.0
C1670 C 0.87031 0.89515 0.61403 0.0
C1671 C 0.84887 0.87233 0.62017 0.0
C1672 C 0.6753 0.41237 0.1389 0.0
C1673 C 0.70189 0.40098 0.13143 0.0
C1674 C 0.65215 0.43352 0.13342 0.0
C1675 C 0.65481 0.44423 0.12028 0.0
H1676 H 0.67152 0.40374 0.14889 0.0
H1677 H 0.63151 0.44091 0.1394 0.0
S1678 S 0.72134 0.4237 0.09689 0.0
N1679 N 0.73089 0.40379 0.11053 0.0
N1680 N 0.68698 0.44326 0.10013 0.0
C1681 C 0.68205 0.43424 0.11287 0.0
C1682 C 0.70563 0.41261 0.11846 0.0
C1683 C 0.8216 0.40897 0.38037 0.0
C1684 C 0.82295 0.39963 0.36703 0.0
C1685 C 0.84469 0.43052 0.38572 0.0
C1686 C 0.87011 0.44321 0.37793 0.0
H1687 H 0.80295 0.39898 0.3868 0.0
H1688 H 0.84342 0.4362 0.39615 0.0
S1689 S 0.88343 0.42796 0.34228 0.0
N1690 N 0.85108 0.40573 0.34603 0.0
N1691 N 0.89412 0.44665 0.35606 0.0
C1692 C 0.87102 0.43506 0.36447 0.0
C1693 C 0.84749 0.41321 0.35902 0.0
C1694 C 0.876 0.57799 0.63177 0.0
C1695 C 0.87003 0.56262 0.61959 0.0
C1696 C 0.853 0.59891 0.63749 0.0
C1697 C 0.82286 0.60518 0.63133 0.0
H1698 H 0.89888 0.57412 0.6369 0.0
H1699 H 0.85937 0.611 0.64664 0.0
S1700 S 0.79424 0.56952 0.5997 0.0
N1701 N 0.83136 0.55456 0.60166 0.0
N1702 N 0.78739 0.59269 0.61275 0.0
C1703 C 0.81603 0.58911 0.61936 0.0
C1704 C 0.8397 0.56804 0.61344 0.0
C1705 C 0.68465 0.58181 0.86399 0.0
C1706 C 0.70003 0.60471 0.87228 0.0
C1707 C 0.66224 0.55914 0.86904 0.0
C1708 C 0.65463 0.55835 0.88257 0.0
H1709 H 0.68894 0.58228 0.85345 0.0
H1710 H 0.65027 0.54252 0.86227 0.0
S1711 S 0.68993 0.61164 0.90853 0.0
N1712 N 0.70769 0.62389 0.89476 0.0
N1713 N 0.66509 0.58168 0.90423 0.0
C1714 C 0.67077 0.58029 0.89103 0.0
C1715 C 0.69354 0.6034 0.88589 0.0
C1716 C 0.3753 0.58019 0.86807 0.0
C1717 C 0.36784 0.56393 0.87992 0.0
C1718 C 0.35318 0.6021 0.86234 0.0
C1719 C 0.32275 0.6085 0.86824 0.0
H1720 H 0.39883 0.57671 0.86339 0.0
H1721 H 0.36038 0.61485 0.85343 0.0
S1722 S 0.29015 0.56957 0.89855 0.0
N1723 N 0.32706 0.55389 0.89685 0.0
N1724 N 0.28533 0.59501 0.88604 0.0
C1725 C 0.31457 0.59163 0.87986 0.0
C1726 C 0.33714 0.56935 0.88571 0.0
C1727 C 0.18073 0.57208 0.61364 0.0
C1728 C 0.15 0.56633 0.61938 0.0
C1729 C 0.20278 0.59424 0.61931 0.0
C1730 C 0.19481 0.61137 0.6309 0.0
H1731 H 0.18778 0.5593 0.60472 0.0
H1732 H 0.22624 0.59798 0.61461 0.0
S1733 S 0.11634 0.60721 0.64909 0.0
N1734 N 0.11204 0.58089 0.63686 0.0
N1735 N 0.15342 0.62252 0.64749 0.0
C1736 C 0.16404 0.60607 0.63665 0.0
C1737 C 0.14165 0.58356 0.6309 0.0
C1738 C 0.17147 0.41391 0.38905 0.0
C1739 C 0.15608 0.43748 0.38111 0.0
C1740 C 0.19334 0.39132 0.3836 0.0
C1741 C 0.20089 0.3919 0.37006 0.0
H1742 H 0.16548 0.41204 0.39944 0.0
H1743 H 0.20392 0.37282 0.38994 0.0
S1744 S 0.16872 0.45021 0.34527 0.0
N1745 N 0.15104 0.4612 0.35923 0.0
N1746 N 0.19235 0.41879 0.34896 0.0
C1747 C 0.18672 0.41622 0.36213 0.0
C1748 C 0.1642 0.43898 0.36766 0.0
C1749 C 0.34486 0.43781 0.12586 0.0
C1750 C 0.37434 0.42681 0.1203 0.0
C1751 C 0.32224 0.41563 0.13118 0.0
C1752 C 0.32817 0.38176 0.13087 0.0
H1753 H 0.33953 0.46373 0.1263 0.0
H1754 H 0.2999 0.42497 0.13548 0.0
S1755 S 0.4014 0.34059 0.11722 0.0
N1756 N 0.40798 0.3799 0.11462 0.0
N1757 N 0.36561 0.33832 0.12466 0.0
C1758 C 0.35741 0.3705 0.12524 0.0
C1759 C 0.38047 0.393 0.11994 0.0
loop_
_geom_bond_atom_site_label_1
_geom_bond_atom_site_label_2
_geom_bond_distance
_geom_bond_site_symmetry_2
_ccdc_geom_bond_type
Li0 N17 1.990 . S
Li0 O60 1.956 . S
Li0 O61 1.970 1_455 S
Li0 O62 1.961 1_545 S
Li1 N25 1.990 . S
Li1 O60 1.970 . S
Li1 O61 1.956 1_455 S
Li1 O63 1.961 . S
Li2 N47 1.981 1_545 S
Li2 O60 1.961 . S
Li2 O62 1.956 1_545 S
Li2 O63 1.970 . S
Li3 N53 1.990 . S
Li3 O61 1.961 . S
Li3 O62 1.970 1_645 S
Li3 O63 1.956 1_655 S
C4 C6 1.348 . S
C4 C7 1.356 . S
C4 O60 1.325 . S
N5 C8 1.314 . S
N5 C9 1.279 . S
C6 C4 1.348 . S
C6 C8 1.353 . S
C6 H64 0.929 . S
C7 C4 1.356 . S
C7 C9 1.358 . S
C7 H65 0.930 . S
C8 N5 1.314 . S
C8 C6 1.353 . S
C8 H66 0.930 . S
C9 N5 1.279 . S
C9 C7 1.358 . S
C9 H67 0.930 . S
C10 C13 1.348 . S
C10 C14 1.356 . S
C10 O61 1.325 . S
C11 N12 1.279 . S
C11 C14 1.358 . S
C11 H68 0.930 . S
N12 C11 1.279 . S
N12 C15 1.314 . S
C13 C10 1.348 . S
C13 C15 1.353 . S
C13 H69 0.929 . S
C14 C10 1.356 . S
C14 C11 1.358 . S
C14 H70 0.930 . S
C15 N12 1.314 . S
C15 C13 1.353 . S
C15 H71 0.930 . S
C16 N17 1.314 1_655 S
C16 C21 1.349 1_545 S
C16 H22 0.930 1_545 S
N17 Li0 1.990 . S
N17 C16 1.314 1_455 S
N17 C19 1.279 . S
C18 C19 1.358 . S
C18 C20 1.356 . S
C18 H72 0.930 . S
C19 N17 1.279 . S
C19 C18 1.358 . S
C19 H23 0.930 . S
C20 C18 1.356 . S
C20 C21 1.336 1_445 S
C21 C16 1.349 1_565 S
C21 C20 1.336 1_665 S
C21 H73 0.945 . S
H22 C16 0.930 1_565 S
H23 C19 0.930 . S
C24 N25 1.314 . S
C24 C26 1.353 . S
C24 H30 0.930 . S
N25 Li1 1.990 . S
N25 C24 1.314 . S
N25 C28 1.279 1_455 S
C26 C24 1.353 . S
C26 C29 1.348 . S
C26 H74 0.929 . S
C27 C28 1.358 . S
C27 C29 1.356 1_655 S
C27 H75 0.930 . S
C28 N25 1.279 1_655 S
C28 C27 1.358 . S
C28 H31 0.930 . S
C29 C26 1.348 . S
C29 C27 1.356 1_455 S
H30 C24 0.930 . S
H31 C28 0.930 . S
C32 C34 1.348 1_455 S
C32 C35 1.356 . S
C32 O62 1.325 . S
N33 C36 1.314 1_455 S
N33 C37 1.279 . S
C34 C32 1.348 1_655 S
C34 C36 1.353 . S
C34 H76 0.929 . S
C35 C32 1.356 . S
C35 C37 1.358 . S
C35 H77 0.930 . S
C36 N33 1.314 1_655 S
C36 C34 1.353 . S
C36 H78 0.930 . S
C37 N33 1.279 . S
C37 C35 1.358 . S
C37 H79 0.930 . S
C38 C39 1.348 . S
C38 C40 1.356 1_455 S
C38 O63 1.325 . S
C39 C38 1.348 . S
C39 C41 1.353 . S
C39 H80 0.929 . S
C40 C38 1.356 1_655 S
C40 C42 1.358 . S
C40 H81 0.930 . S
C41 C39 1.353 . S
C41 N43 1.314 . S
C41 H82 0.930 . S
C42 C40 1.358 . S
C42 N43 1.279 1_655 S
C42 H83 0.930 . S
N43 C41 1.314 . S
N43 C42 1.279 1_455 S
C44 C46 1.353 . S
C44 N47 1.303 1_545 S
C44 H50 0.930 . S
C45 N47 1.300 . S
C45 C48 1.358 . S
C45 H51 0.930 . S
C46 C44 1.353 . S
C46 C49 1.348 1_545 S
C46 H84 0.929 . S
N47 Li2 1.981 1_565 S
N47 C44 1.303 1_565 S
N47 C45 1.300 . S
C48 C45 1.358 . S
C48 C49 1.356 . S
C48 H85 0.930 . S
C49 C46 1.348 1_565 S
C49 C48 1.356 . S
H50 C44 0.930 . S
H51 C45 0.930 . S
C52 N53 1.314 1_565 S
C52 C54 1.353 . S
C52 H58 0.931 . S
N53 Li3 1.990 . S
N53 C52 1.314 1_545 S
N53 C56 1.279 1_545 S
C54 C52 1.353 . S
C54 C57 1.348 . S
C54 H86 0.929 . S
C55 C56 1.358 . S
C55 C57 1.356 . S
C55 H87 0.930 . S
C56 N53 1.279 1_565 S
C56 C55 1.358 . S
C56 H59 0.930 1_565 S
C57 C54 1.348 . S
C57 C55 1.356 . S
H58 C52 0.931 . S
H59 C56 0.930 1_545 S
O60 Li0 1.956 . S
O60 Li1 1.970 . S
O60 Li2 1.961 . S
O60 C4 1.325 . S
O61 Li0 1.970 1_655 S
O61 Li1 1.956 1_655 S
O61 Li3 1.961 . S
O61 C10 1.325 . S
O62 Li0 1.961 1_565 S
O62 Li2 1.956 1_565 S
O62 Li3 1.970 1_465 S
O62 C32 1.325 . S
O63 Li1 1.961 . S
O63 Li2 1.970 . S
O63 Li3 1.956 1_455 S
O63 C38 1.325 . S
H64 C6 0.929 . S
H65 C7 0.930 . S
H66 C8 0.930 . S
H67 C9 0.930 . S
H68 C11 0.930 . S
H69 C13 0.929 . S
H70 C14 0.930 . S
H71 C15 0.930 . S
H72 C18 0.930 . S
H73 C21 0.945 . S
H74 C26 0.929 . S
H75 C27 0.930 . S
H76 C34 0.929 . S
H77 C35 0.930 . S
H78 C36 0.930 . S
H79 C37 0.930 . S
H80 C39 0.929 . S
H81 C40 0.930 . S
H82 C41 0.930 . S
H83 C42 0.930 . S
H84 C46 0.929 . S
H85 C48 0.930 . S
H86 C54 0.929 . S
H87 C55 0.930 . S
Li88 N105 1.990 . S
Li88 O148 1.956 . S
Li88 O149 1.970 . S
Li88 O150 1.961 . S
Li89 N113 1.990 . S
Li89 O148 1.970 . S
Li89 O149 1.956 . S
Li89 O151 1.961 . S
Li90 N135 1.990 . S
Li90 O148 1.961 . S
Li90 O150 1.956 . S
Li90 O151 1.970 . S
Li91 N141 1.990 . S
Li91 O149 1.961 . S
Li91 O150 1.970 . S
Li91 O151 1.956 . S
C92 C94 1.348 . S
C92 C95 1.356 . S
C92 O148 1.325 . S
N93 C96 1.314 . S
N93 C97 1.279 . S
C94 C92 1.348 . S
C94 C96 1.353 . S
C94 H152 0.929 . S
C95 C92 1.356 . S
C95 C97 1.358 . S
C95 H153 0.930 . S
C96 N93 1.314 . S
C96 C94 1.353 . S
C96 H154 0.930 . S
C97 N93 1.279 . S
C97 C95 1.358 . S
C97 H155 0.930 . S
C98 C101 1.348 . S
C98 C102 1.356 . S
C98 O149 1.325 . S
C99 N100 1.279 . S
C99 C102 1.358 . S
C99 H156 0.930 . S
N100 C99 1.279 . S
N100 C103 1.314 . S
C101 C98 1.348 . S
C101 C103 1.353 . S
C101 H157 0.929 . S
C102 C98 1.356 . S
C102 C99 1.358 . S
C102 H158 0.930 . S
C103 N100 1.314 . S
C103 C101 1.353 . S
C103 H159 0.930 . S
C104 N105 1.314 . S
C104 C109 1.353 . S
C104 H110 0.930 . S
N105 Li88 1.990 . S
N105 C104 1.314 . S
N105 C107 1.279 . S
C106 C107 1.358 . S
C106 C108 1.356 . S
C106 H160 0.930 . S
C107 N105 1.279 . S
C107 C106 1.358 . S
C107 H111 0.930 . S
C108 C106 1.356 . S
C108 C109 1.348 . S
C109 C104 1.353 . S
C109 C108 1.348 . S
C109 H161 0.929 . S
H110 C104 0.930 . S
H111 C107 0.930 . S
C112 N113 1.314 . S
C112 C114 1.353 . S
C112 H118 0.930 . S
N113 Li89 1.990 . S
N113 C112 1.314 . S
N113 C116 1.279 . S
C114 C112 1.353 . S
C114 C117 1.348 . S
C114 H162 0.929 . S
C115 C116 1.358 . S
C115 C117 1.356 . S
C115 H163 0.930 . S
C116 N113 1.279 . S
C116 C115 1.358 . S
C116 H119 0.930 . S
C117 C114 1.348 . S
C117 C115 1.356 . S
H118 C112 0.930 . S
H119 C116 0.930 . S
C120 C122 1.348 . S
C120 C123 1.356 . S
C120 O150 1.325 . S
N121 C124 1.314 . S
N121 C125 1.279 . S
C122 C120 1.348 . S
C122 C124 1.353 . S
C122 H164 0.929 . S
C123 C120 1.356 . S
C123 C125 1.358 . S
C123 H165 0.930 . S
C124 N121 1.314 . S
C124 C122 1.353 . S
C124 H166 0.930 . S
C125 N121 1.279 . S
C125 C123 1.358 . S
C125 H167 0.930 . S
C126 C127 1.348 . S
C126 C128 1.356 . S
C126 O151 1.325 . S
C127 C126 1.348 . S
C127 C129 1.353 . S
C127 H168 0.929 . S
C128 C126 1.356 . S
C128 C130 1.358 . S
C128 H169 0.930 . S
C129 C127 1.353 . S
C129 N131 1.314 . S
C129 H170 0.930 . S
C130 C128 1.358 . S
C130 N131 1.279 . S
C130 H171 0.930 . S
N131 C129 1.314 . S
N131 C130 1.279 . S
C132 C134 1.353 . S
C132 N135 1.314 . S
C132 H138 0.930 . S
C133 N135 1.279 . S
C133 C136 1.358 . S
C133 H139 0.930 . S
C134 C132 1.353 . S
C134 C137 1.348 . S
C134 H172 0.929 . S
N135 Li90 1.990 . S
N135 C132 1.314 . S
N135 C133 1.279 . S
C136 C133 1.358 . S
C136 C137 1.356 . S
C136 H173 0.930 . S
C137 C134 1.348 . S
C137 C136 1.356 . S
H138 C132 0.930 . S
H139 C133 0.930 . S
C140 N141 1.314 . S
C140 C142 1.353 . S
C140 H146 0.930 . S
N141 Li91 1.990 . S
N141 C140 1.314 . S
N141 C144 1.279 . S
C142 C140 1.353 . S
C142 C145 1.348 . S
C142 H174 0.929 . S
C143 C144 1.358 . S
C143 C145 1.356 . S
C143 H175 0.930 . S
C144 N141 1.279 . S
C144 C143 1.358 . S
C144 H147 0.930 . S
C145 C142 1.348 . S
C145 C143 1.356 . S
H146 C140 0.930 . S
H147 C144 0.930 . S
O148 Li88 1.956 . S
O148 Li89 1.970 . S
O148 Li90 1.961 . S
O148 C92 1.325 . S
O149 Li88 1.970 . S
O149 Li89 1.956 . S
O149 Li91 1.961 . S
O149 C98 1.325 . S
O150 Li88 1.961 . S
O150 Li90 1.956 . S
O150 Li91 1.970 . S
O150 C120 1.325 . S
O151 Li89 1.961 . S
O151 Li90 1.970 . S
O151 Li91 1.956 . S
O151 C126 1.325 . S
H152 C94 0.929 . S
H153 C95 0.930 . S
H154 C96 0.930 . S
H155 C97 0.930 . S
H156 C99 0.930 . S
H157 C101 0.929 . S
H158 C102 0.930 . S
H159 C103 0.930 . S
H160 C106 0.930 . S
H161 C109 0.929 . S
H162 C114 0.929 . S
H163 C115 0.930 . S
H164 C122 0.929 . S
H165 C123 0.930 . S
H166 C124 0.930 . S
H167 C125 0.930 . S
H168 C127 0.929 . S
H169 C128 0.930 . S
H170 C129 0.930 . S
H171 C130 0.930 . S
H172 C134 0.929 . S
H173 C136 0.930 . S
H174 C142 0.929 . S
H175 C143 0.930 . S
Li176 N193 1.990 . S
Li176 O236 1.956 . S
Li176 O237 1.970 1_565 S
Li176 O238 1.961 . S
Li177 N201 1.981 1_565 S
Li177 O236 1.970 . S
Li177 O237 1.956 1_565 S
Li177 O239 1.961 . S
Li178 N223 1.990 . S
Li178 O236 1.961 . S
Li178 O238 1.956 . S
Li178 O239 1.970 . S
Li179 N229 1.990 . S
Li179 O237 1.961 1_565 S
Li179 O238 1.970 . S
Li179 O239 1.956 . S
C180 C182 1.348 . S
C180 C183 1.356 . S
C180 O236 1.325 . S
N181 C184 1.314 . S
N181 C185 1.279 . S
C182 C180 1.348 . S
C182 C184 1.353 . S
C182 H240 0.929 . S
C183 C180 1.356 . S
C183 C185 1.358 . S
C183 H241 0.930 . S
C184 N181 1.314 . S
C184 C182 1.353 . S
C184 H242 0.930 . S
C185 N181 1.279 . S
C185 C183 1.358 . S
C185 H243 0.930 . S
C186 C189 1.348 . S
C186 C190 1.356 . S
C186 O237 1.325 . S
C187 N188 1.279 . S
C187 C190 1.358 . S
C187 H244 0.930 . S
N188 C187 1.279 . S
N188 C191 1.314 . S
C189 C186 1.348 . S
C189 C191 1.353 . S
C189 H245 0.929 . S
C190 C186 1.356 . S
C190 C187 1.358 . S
C190 H246 0.930 . S
C191 N188 1.314 . S
C191 C189 1.353 . S
C191 H247 0.930 . S
C192 N193 1.314 1_545 S
C192 C197 1.353 . S
C192 H198 0.931 . S
N193 Li176 1.990 . S
N193 C192 1.314 1_565 S
N193 C195 1.279 1_565 S
C194 C195 1.358 . S
C194 C196 1.356 . S
C194 H248 0.930 . S
C195 N193 1.279 1_545 S
C195 C194 1.358 . S
C195 H199 0.930 1_545 S
C196 C194 1.356 . S
C196 C197 1.348 . S
C197 C192 1.353 . S
C197 C196 1.348 . S
C197 H249 0.929 . S
H198 C192 0.931 . S
H199 C195 0.930 1_565 S
C200 N201 1.304 1_565 S
C200 C202 1.353 . S
C200 H206 0.930 . S
N201 Li177 1.981 1_545 S
N201 C200 1.304 1_545 S
N201 C204 1.299 . S
C202 C200 1.353 . S
C202 C205 1.348 1_565 S
C202 H250 0.929 . S
C203 C204 1.358 . S
C203 C205 1.356 . S
C203 H251 0.930 . S
C204 N201 1.299 . S
C204 C203 1.358 . S
C204 H207 0.930 . S
C205 C202 1.348 1_545 S
C205 C203 1.356 . S
H206 C200 0.930 . S
H207 C204 0.930 . S
C208 C210 1.348 . S
C208 C211 1.356 . S
C208 O238 1.325 . S
N209 C212 1.314 . S
N209 C213 1.279 . S
C210 C208 1.348 . S
C210 C212 1.353 . S
C210 H252 0.929 . S
C211 C208 1.356 . S
C211 C213 1.358 . S
C211 H253 0.930 . S
C212 N209 1.314 . S
C212 C210 1.353 . S
C212 H254 0.930 . S
C213 N209 1.279 . S
C213 C211 1.358 . S
C213 H255 0.930 . S
C214 C215 1.348 . S
C214 C216 1.356 . S
C214 O239 1.325 . S
C215 C214 1.348 . S
C215 C217 1.353 . S
C215 H256 0.929 . S
C216 C214 1.356 . S
C216 C218 1.358 . S
C216 H257 0.930 . S
C217 C215 1.353 . S
C217 N219 1.314 . S
C217 H258 0.930 . S
C218 C216 1.358 . S
C218 N219 1.279 . S
C218 H259 0.930 . S
N219 C217 1.314 . S
N219 C218 1.279 . S
C220 C222 1.353 . S
C220 N223 1.314 . S
C220 H226 0.930 . S
C221 N223 1.279 . S
C221 C224 1.358 . S
C221 H227 0.930 . S
C222 C220 1.353 . S
C222 C225 1.348 . S
C222 H260 0.929 . S
N223 Li178 1.990 . S
N223 C220 1.314 . S
N223 C221 1.279 . S
C224 C221 1.358 . S
C224 C225 1.356 . S
C224 H261 0.930 . S
C225 C222 1.348 . S
C225 C224 1.356 . S
H226 C220 0.930 . S
H227 C221 0.930 . S
C228 N229 1.314 . S
C228 C230 1.350 1_565 S
C228 H234 0.930 1_565 S
N229 Li179 1.990 . S
N229 C228 1.314 . S
N229 C232 1.279 . S
C230 C228 1.350 1_545 S
C230 C233 1.336 1_545 S
C230 H262 0.944 . S
C231 C232 1.358 . S
C231 C233 1.356 . S
C231 H263 0.930 . S
C232 N229 1.279 . S
C232 C231 1.358 . S
C232 H235 0.930 . S
C233 C230 1.336 1_565 S
C233 C231 1.356 . S
H234 C228 0.930 1_545 S
H235 C232 0.930 . S
O236 Li176 1.956 . S
O236 Li177 1.970 . S
O236 Li178 1.961 . S
O236 C180 1.325 . S
O237 Li176 1.970 1_545 S
O237 Li177 1.956 1_545 S
O237 Li179 1.961 1_545 S
O237 C186 1.325 . S
O238 Li176 1.961 . S
O238 Li178 1.956 . S
O238 Li179 1.970 . S
O238 C208 1.325 . S
O239 Li177 1.961 . S
O239 Li178 1.970 . S
O239 Li179 1.956 . S
O239 C214 1.325 . S
H240 C182 0.929 . S
H241 C183 0.930 . S
H242 C184 0.930 . S
H243 C185 0.930 . S
H244 C187 0.930 . S
H245 C189 0.929 . S
H246 C190 0.930 . S
H247 C191 0.930 . S
H248 C194 0.930 . S
H249 C197 0.929 . S
H250 C202 0.929 . S
H251 C203 0.930 . S
H252 C210 0.929 . S
H253 C211 0.930 . S
H254 C212 0.930 . S
H255 C213 0.930 . S
H256 C215 0.929 . S
H257 C216 0.930 . S
H258 C217 0.930 . S
H259 C218 0.930 . S
H260 C222 0.929 . S
H261 C224 0.930 . S
H262 C230 0.944 . S
H263 C231 0.930 . S
Li264 N281 1.990 . S
Li264 O324 1.956 . S
Li264 O325 1.970 . S
Li264 O326 1.961 . S
Li265 N289 1.990 . S
Li265 O324 1.970 . S
Li265 O325 1.956 . S
Li265 O327 1.961 . S
Li266 N311 1.990 . S
Li266 O324 1.961 . S
Li266 O326 1.956 . S
Li266 O327 1.970 . S
Li267 N317 1.990 . S
Li267 O325 1.961 . S
Li267 O326 1.970 . S
Li267 O327 1.956 . S
C268 C270 1.348 . S
C268 C271 1.356 . S
C268 O324 1.325 . S
N269 C272 1.314 . S
N269 C273 1.279 . S
C270 C268 1.348 . S
C270 C272 1.353 . S
C270 H328 0.929 . S
C271 C268 1.356 . S
C271 C273 1.358 . S
C271 H329 0.930 . S
C272 N269 1.314 . S
C272 C270 1.353 . S
C272 H330 0.930 . S
C273 N269 1.279 . S
C273 C271 1.358 . S
C273 H331 0.930 . S
C274 C277 1.348 . S
C274 C278 1.356 . S
C274 O325 1.325 . S
C275 N276 1.279 . S
C275 C278 1.358 . S
C275 H332 0.930 . S
N276 C275 1.279 . S
N276 C279 1.314 . S
C277 C274 1.348 . S
C277 C279 1.353 . S
C277 H333 0.929 . S
C278 C274 1.356 . S
C278 C275 1.358 . S
C278 H334 0.930 . S
C279 N276 1.314 . S
C279 C277 1.353 . S
C279 H335 0.930 . S
C280 N281 1.314 . S
C280 C285 1.353 . S
C280 H286 0.930 . S
N281 Li264 1.990 . S
N281 C280 1.314 . S
N281 C283 1.279 . S
C282 C283 1.358 . S
C282 C284 1.356 . S
C282 H336 0.930 . S
C283 N281 1.279 . S
C283 C282 1.358 . S
C283 H287 0.930 . S
C284 C282 1.356 . S
C284 C285 1.348 . S
C285 C280 1.353 . S
C285 C284 1.348 . S
C285 H337 0.929 . S
H286 C280 0.930 . S
H287 C283 0.930 . S
C288 N289 1.314 . S
C288 C290 1.353 . S
C288 H294 0.930 . S
N289 Li265 1.990 . S
N289 C288 1.314 . S
N289 C292 1.279 . S
C290 C288 1.353 . S
C290 C293 1.348 . S
C290 H338 0.929 . S
C291 C292 1.358 . S
C291 C293 1.356 . S
C291 H339 0.930 . S
C292 N289 1.279 . S
C292 C291 1.358 . S
C292 H295 0.930 . S
C293 C290 1.348 . S
C293 C291 1.356 . S
H294 C288 0.930 . S
H295 C292 0.930 . S
C296 C298 1.348 . S
C296 C299 1.356 . S
C296 O326 1.325 . S
N297 C300 1.314 . S
N297 C301 1.279 . S
C298 C296 1.348 . S
C298 C300 1.353 . S
C298 H340 0.929 . S
C299 C296 1.356 . S
C299 C301 1.358 . S
C299 H341 0.930 . S
C300 N297 1.314 . S
C300 C298 1.353 . S
C300 H342 0.930 . S
C301 N297 1.279 . S
C301 C299 1.358 . S
C301 H343 0.930 . S
C302 C303 1.348 . S
C302 C304 1.356 . S
C302 O327 1.325 . S
C303 C302 1.348 . S
C303 C305 1.353 . S
C303 H344 0.929 . S
C304 C302 1.356 . S
C304 C306 1.358 . S
C304 H345 0.930 . S
C305 C303 1.353 . S
C305 N307 1.314 . S
C305 H346 0.930 . S
C306 C304 1.358 . S
C306 N307 1.279 . S
C306 H347 0.930 . S
N307 C305 1.314 . S
N307 C306 1.279 . S
C308 C310 1.353 . S
C308 N311 1.314 . S
C308 H314 0.930 . S
C309 N311 1.279 . S
C309 C312 1.358 . S
C309 H315 0.930 . S
C310 C308 1.353 . S
C310 C313 1.348 . S
C310 H348 0.929 . S
N311 Li266 1.990 . S
N311 C308 1.314 . S
N311 C309 1.279 . S
C312 C309 1.358 . S
C312 C313 1.356 . S
C312 H349 0.930 . S
C313 C310 1.348 . S
C313 C312 1.356 . S
H314 C308 0.930 . S
H315 C309 0.930 . S
C316 N317 1.314 . S
C316 C318 1.353 . S
C316 H322 0.930 . S
N317 Li267 1.990 . S
N317 C316 1.314 . S
N317 C320 1.279 . S
C318 C316 1.353 . S
C318 C321 1.348 . S
C318 H350 0.929 . S
C319 C320 1.358 . S
C319 C321 1.356 . S
C319 H351 0.930 . S
C320 N317 1.279 . S
C320 C319 1.358 . S
C320 H323 0.930 . S
C321 C318 1.348 . S
C321 C319 1.356 . S
H322 C316 0.930 . S
H323 C320 0.930 . S
O324 Li264 1.956 . S
O324 Li265 1.970 . S
O324 Li266 1.961 . S
O324 C268 1.325 . S
O325 Li264 1.970 . S
O325 Li265 1.956 . S
O325 Li267 1.961 . S
O325 C274 1.325 . S
O326 Li264 1.961 . S
O326 Li266 1.956 . S
O326 Li267 1.970 . S
O326 C296 1.325 . S
O327 Li265 1.961 . S
O327 Li266 1.970 . S
O327 Li267 1.956 . S
O327 C302 1.325 . S
H328 C270 0.929 . S
H329 C271 0.930 . S
H330 C272 0.930 . S
H331 C273 0.930 . S
H332 C275 0.930 . S
H333 C277 0.929 . S
H334 C278 0.930 . S
H335 C279 0.930 . S
H336 C282 0.930 . S
H337 C285 0.929 . S
H338 C290 0.929 . S
H339 C291 0.930 . S
H340 C298 0.929 . S
H341 C299 0.930 . S
H342 C300 0.930 . S
H343 C301 0.930 . S
H344 C303 0.929 . S
H345 C304 0.930 . S
H346 C305 0.930 . S
H347 C306 0.930 . S
H348 C310 0.929 . S
H349 C312 0.930 . S
H350 C318 0.929 . S
H351 C319 0.930 . S
Li352 N369 1.990 . S
Li352 O412 1.956 1_655 S
Li352 O413 1.970 1_665 S
Li352 O414 1.961 . S
Li353 N377 1.981 1_565 S
Li353 O412 1.970 . S
Li353 O413 1.956 1_565 S
Li353 O415 1.961 . S
Li354 N399 1.990 . S
Li354 O412 1.961 . S
Li354 O414 1.956 1_455 S
Li354 O415 1.970 . S
Li355 N405 1.990 . S
Li355 O413 1.961 1_565 S
Li355 O414 1.970 1_455 S
Li355 O415 1.956 . S
C356 C358 1.348 . S
C356 C359 1.356 1_455 S
C356 O412 1.325 . S
N357 C360 1.314 . S
N357 C361 1.279 1_455 S
C358 C356 1.348 . S
C358 C360 1.353 . S
C358 H416 0.929 . S
C359 C356 1.356 1_655 S
C359 C361 1.358 . S
C359 H417 0.930 . S
C360 N357 1.314 . S
C360 C358 1.353 . S
C360 H418 0.930 . S
C361 N357 1.279 1_655 S
C361 C359 1.358 . S
C361 H419 0.930 . S
C362 C365 1.348 1_455 S
C362 C366 1.356 . S
C362 O413 1.325 . S
C363 N364 1.279 . S
C363 C366 1.358 . S
C363 H420 0.930 . S
N364 C363 1.279 . S
N364 C367 1.314 1_455 S
C365 C362 1.348 1_655 S
C365 C367 1.353 . S
C365 H421 0.929 . S
C366 C362 1.356 . S
C366 C363 1.358 . S
C366 H422 0.930 . S
C367 N364 1.314 1_655 S
C367 C365 1.353 . S
C367 H423 0.930 . S
C368 N369 1.314 1_545 S
C368 C373 1.353 . S
C368 H374 0.931 . S
N369 Li352 1.990 . S
N369 C368 1.314 1_565 S
N369 C371 1.279 1_565 S
C370 C371 1.358 . S
C370 C372 1.356 . S
C370 H424 0.930 . S
C371 N369 1.279 1_545 S
C371 C370 1.358 . S
C371 H375 0.930 1_545 S
C372 C370 1.356 . S
C372 C373 1.348 . S
C373 C368 1.353 . S
C373 C372 1.348 . S
C373 H425 0.929 . S
H374 C368 0.931 . S
H375 C371 0.930 1_565 S
C376 N377 1.303 1_565 S
C376 C378 1.353 . S
C376 H382 0.930 . S
N377 Li353 1.981 1_545 S
N377 C376 1.303 1_545 S
N377 C380 1.300 . S
C378 C376 1.353 . S
C378 C381 1.348 1_565 S
C378 H426 0.929 . S
C379 C380 1.358 . S
C379 C381 1.356 . S
C379 H427 0.930 . S
C380 N377 1.300 . S
C380 C379 1.358 . S
C380 H383 0.930 . S
C381 C378 1.348 1_545 S
C381 C379 1.356 . S
H382 C376 0.930 . S
H383 C380 0.930 . S
C384 C386 1.348 . S
C384 C387 1.356 . S
C384 O414 1.325 . S
N385 C388 1.314 . S
N385 C389 1.279 . S
C386 C384 1.348 . S
C386 C388 1.353 . S
C386 H428 0.929 . S
C387 C384 1.356 . S
C387 C389 1.358 . S
C387 H429 0.930 . S
C388 N385 1.314 . S
C388 C386 1.353 . S
C388 H430 0.930 . S
C389 N385 1.279 . S
C389 C387 1.358 . S
C389 H431 0.930 . S
C390 C391 1.348 . S
C390 C392 1.356 . S
C390 O415 1.325 . S
C391 C390 1.348 . S
C391 C393 1.353 . S
C391 H432 0.929 . S
C392 C390 1.356 . S
C392 C394 1.358 . S
C392 H433 0.930 . S
C393 C391 1.353 . S
C393 N395 1.314 . S
C393 H434 0.930 . S
C394 C392 1.358 . S
C394 N395 1.279 . S
C394 H435 0.930 . S
N395 C393 1.314 . S
N395 C394 1.279 . S
C396 C398 1.353 . S
C396 N399 1.314 . S
C396 H402 0.930 . S
C397 N399 1.279 1_655 S
C397 C400 1.358 . S
C397 H403 0.930 . S
C398 C396 1.353 . S
C398 C401 1.348 . S
C398 H436 0.929 . S
N399 Li354 1.990 . S
N399 C396 1.314 . S
N399 C397 1.279 1_455 S
C400 C397 1.358 . S
C400 C401 1.356 1_655 S
C400 H437 0.930 . S
C401 C398 1.348 . S
C401 C400 1.356 1_455 S
H402 C396 0.930 . S
H403 C397 0.930 . S
C404 N405 1.314 1_655 S
C404 C406 1.349 1_565 S
C404 H410 0.930 1_565 S
N405 Li355 1.990 . S
N405 C404 1.314 1_455 S
N405 C408 1.279 . S
C406 C404 1.349 1_545 S
C406 C409 1.336 1_645 S
C406 H438 0.945 . S
C407 C408 1.358 . S
C407 C409 1.356 . S
C407 H439 0.930 . S
C408 N405 1.279 . S
C408 C407 1.358 . S
C408 H411 0.930 . S
C409 C406 1.336 1_465 S
C409 C407 1.356 . S
H410 C404 0.930 1_545 S
H411 C408 0.930 . S
O412 Li352 1.956 1_455 S
O412 Li353 1.970 . S
O412 Li354 1.961 . S
O412 C356 1.325 . S
O413 Li352 1.970 1_445 S
O413 Li353 1.956 1_545 S
O413 Li355 1.961 1_545 S
O413 C362 1.325 . S
O414 Li352 1.961 . S
O414 Li354 1.956 1_655 S
O414 Li355 1.970 1_655 S
O414 C384 1.325 . S
O415 Li353 1.961 . S
O415 Li354 1.970 . S
O415 Li355 1.956 . S
O415 C390 1.325 . S
H416 C358 0.929 . S
H417 C359 0.930 . S
H418 C360 0.930 . S
H419 C361 0.930 . S
H420 C363 0.930 . S
H421 C365 0.929 . S
H422 C366 0.930 . S
H423 C367 0.930 . S
H424 C370 0.930 . S
H425 C373 0.929 . S
H426 C378 0.929 . S
H427 C379 0.930 . S
H428 C386 0.929 . S
H429 C387 0.930 . S
H430 C388 0.930 . S
H431 C389 0.930 . S
H432 C391 0.929 . S
H433 C392 0.930 . S
H434 C393 0.930 . S
H435 C394 0.930 . S
H436 C398 0.929 . S
H437 C400 0.930 . S
H438 C406 0.945 . S
H439 C407 0.930 . S
Li440 N457 1.990 . S
Li440 O500 1.956 . S
Li440 O501 1.970 . S
Li440 O502 1.961 . S
Li441 N465 1.990 . S
Li441 O500 1.970 . S
Li441 O501 1.956 . S
Li441 O503 1.961 . S
Li442 N487 1.990 . S
Li442 O500 1.961 . S
Li442 O502 1.956 . S
Li442 O503 1.970 . S
Li443 N493 1.990 . S
Li443 O501 1.961 . S
Li443 O502 1.970 . S
Li443 O503 1.956 . S
C444 C446 1.348 . S
C444 C447 1.356 . S
C444 O500 1.325 . S
N445 C448 1.314 . S
N445 C449 1.279 . S
C446 C444 1.348 . S
C446 C448 1.353 . S
C446 H504 0.929 . S
C447 C444 1.356 . S
C447 C449 1.358 . S
C447 H505 0.930 . S
C448 N445 1.314 . S
C448 C446 1.353 . S
C448 H506 0.930 . S
C449 N445 1.279 . S
C449 C447 1.358 . S
C449 H507 0.930 . S
C450 C453 1.348 . S
C450 C454 1.356 . S
C450 O501 1.325 . S
C451 N452 1.279 . S
C451 C454 1.358 . S
C451 H508 0.930 . S
N452 C451 1.279 . S
N452 C455 1.314 . S
C453 C450 1.348 . S
C453 C455 1.353 . S
C453 H509 0.929 . S
C454 C450 1.356 . S
C454 C451 1.358 . S
C454 H510 0.930 . S
C455 N452 1.314 . S
C455 C453 1.353 . S
C455 H511 0.930 . S
C456 N457 1.314 . S
C456 C461 1.353 . S
C456 H462 0.930 . S
N457 Li440 1.990 . S
N457 C456 1.314 . S
N457 C459 1.279 . S
C458 C459 1.358 . S
C458 C460 1.356 . S
C458 H512 0.930 . S
C459 N457 1.279 . S
C459 C458 1.358 . S
C459 H463 0.930 . S
C460 C458 1.356 . S
C460 C461 1.348 . S
C461 C456 1.353 . S
C461 C460 1.348 . S
C461 H513 0.929 . S
H462 C456 0.930 . S
H463 C459 0.930 . S
C464 N465 1.314 . S
C464 C466 1.353 . S
C464 H470 0.930 . S
N465 Li441 1.990 . S
N465 C464 1.314 . S
N465 C468 1.279 . S
C466 C464 1.353 . S
C466 C469 1.348 . S
C466 H514 0.929 . S
C467 C468 1.358 . S
C467 C469 1.356 . S
C467 H515 0.930 . S
C468 N465 1.279 . S
C468 C467 1.358 . S
C468 H471 0.930 . S
C469 C466 1.348 . S
C469 C467 1.356 . S
H470 C464 0.930 . S
H471 C468 0.930 . S
C472 C474 1.348 . S
C472 C475 1.356 . S
C472 O502 1.325 . S
N473 C476 1.314 . S
N473 C477 1.279 . S
C474 C472 1.348 . S
C474 C476 1.353 . S
C474 H516 0.929 . S
C475 C472 1.356 . S
C475 C477 1.358 . S
C475 H517 0.930 . S
C476 N473 1.314 . S
C476 C474 1.353 . S
C476 H518 0.930 . S
C477 N473 1.279 . S
C477 C475 1.358 . S
C477 H519 0.930 . S
C478 C479 1.348 . S
C478 C480 1.356 . S
C478 O503 1.325 . S
C479 C478 1.348 . S
C479 C481 1.353 . S
C479 H520 0.929 . S
C480 C478 1.356 . S
C480 C482 1.358 . S
C480 H521 0.930 . S
C481 C479 1.353 . S
C481 N483 1.314 . S
C481 H522 0.930 . S
C482 C480 1.358 . S
C482 N483 1.279 . S
C482 H523 0.930 . S
N483 C481 1.314 . S
N483 C482 1.279 . S
C484 C486 1.353 . S
C484 N487 1.314 . S
C484 H490 0.930 . S
C485 N487 1.279 . S
C485 C488 1.358 . S
C485 H491 0.930 . S
C486 C484 1.353 . S
C486 C489 1.348 . S
C486 H524 0.929 . S
N487 Li442 1.990 . S
N487 C484 1.314 . S
N487 C485 1.279 . S
C488 C485 1.358 . S
C488 C489 1.356 . S
C488 H525 0.930 . S
C489 C486 1.348 . S
C489 C488 1.356 . S
H490 C484 0.930 . S
H491 C485 0.930 . S
C492 N493 1.314 . S
C492 C494 1.353 . S
C492 H498 0.930 . S
N493 Li443 1.990 . S
N493 C492 1.314 . S
N493 C496 1.279 . S
C494 C492 1.353 . S
C494 C497 1.348 . S
C494 H526 0.929 . S
C495 C496 1.358 . S
C495 C497 1.356 . S
C495 H527 0.930 . S
C496 N493 1.279 . S
C496 C495 1.358 . S
C496 H499 0.930 . S
C497 C494 1.348 . S
C497 C495 1.356 . S
H498 C492 0.930 . S
H499 C496 0.930 . S
O500 Li440 1.956 . S
O500 Li441 1.970 . S
O500 Li442 1.961 . S
O500 C444 1.325 . S
O501 Li440 1.970 . S
O501 Li441 1.956 . S
O501 Li443 1.961 . S
O501 C450 1.325 . S
O502 Li440 1.961 . S
O502 Li442 1.956 . S
O502 Li443 1.970 . S
O502 C472 1.325 . S
O503 Li441 1.961 . S
O503 Li442 1.970 . S
O503 Li443 1.956 . S
O503 C478 1.325 . S
H504 C446 0.929 . S
H505 C447 0.930 . S
H506 C448 0.930 . S
H507 C449 0.930 . S
H508 C451 0.930 . S
H509 C453 0.929 . S
H510 C454 0.930 . S
H511 C455 0.930 . S
H512 C458 0.930 . S
H513 C461 0.929 . S
H514 C466 0.929 . S
H515 C467 0.930 . S
H516 C474 0.929 . S
H517 C475 0.930 . S
H518 C476 0.930 . S
H519 C477 0.930 . S
H520 C479 0.929 . S
H521 C480 0.930 . S
H522 C481 0.930 . S
H523 C482 0.930 . S
H524 C486 0.929 . S
H525 C488 0.930 . S
H526 C494 0.929 . S
H527 C495 0.930 . S
Li528 N545 1.990 . S
Li528 O588 1.956 . S
Li528 O589 1.970 . S
Li528 O590 1.961 . S
Li529 N553 1.990 . S
Li529 O588 1.970 . S
Li529 O589 1.956 . S
Li529 O591 1.961 1_545 S
Li530 N575 1.990 . S
Li530 O588 1.961 . S
Li530 O590 1.956 . S
Li530 O591 1.970 1_545 S
Li531 N581 1.981 1_545 S
Li531 O589 1.961 . S
Li531 O590 1.970 . S
Li531 O591 1.956 1_545 S
C532 C534 1.348 . S
C532 C535 1.356 . S
C532 O588 1.325 . S
N533 C536 1.314 . S
N533 C537 1.279 . S
C534 C532 1.348 . S
C534 C536 1.353 . S
C534 H592 0.929 . S
C535 C532 1.356 . S
C535 C537 1.358 . S
C535 H593 0.930 . S
C536 N533 1.314 . S
C536 C534 1.353 . S
C536 H594 0.930 . S
C537 N533 1.279 . S
C537 C535 1.358 . S
C537 H595 0.930 . S
C538 C541 1.348 . S
C538 C542 1.356 . S
C538 O589 1.325 . S
C539 N540 1.279 . S
C539 C542 1.358 . S
C539 H596 0.930 . S
N540 C539 1.279 . S
N540 C543 1.314 . S
C541 C538 1.348 . S
C541 C543 1.353 . S
C541 H597 0.929 . S
C542 C538 1.356 . S
C542 C539 1.358 . S
C542 H598 0.930 . S
C543 N540 1.314 . S
C543 C541 1.353 . S
C543 H599 0.930 . S
C544 N545 1.314 . S
C544 C549 1.353 . S
C544 H550 0.930 . S
N545 Li528 1.990 . S
N545 C544 1.314 . S
N545 C547 1.279 . S
C546 C547 1.358 . S
C546 C548 1.356 . S
C546 H600 0.930 . S
C547 N545 1.279 . S
C547 C546 1.358 . S
C547 H551 0.930 . S
C548 C546 1.356 . S
C548 C549 1.348 . S
C549 C544 1.353 . S
C549 C548 1.348 . S
C549 H601 0.929 . S
H550 C544 0.930 . S
H551 C547 0.930 . S
C552 N553 1.314 . S
C552 C554 1.350 1_545 S
C552 H558 0.930 1_545 S
N553 Li529 1.990 . S
N553 C552 1.314 . S
N553 C556 1.279 . S
C554 C552 1.350 1_565 S
C554 C557 1.336 1_565 S
C554 H602 0.944 . S
C555 C556 1.358 . S
C555 C557 1.356 . S
C555 H603 0.930 . S
C556 N553 1.279 . S
C556 C555 1.358 . S
C556 H559 0.930 . S
C557 C554 1.336 1_545 S
C557 C555 1.356 . S
H558 C552 0.930 1_565 S
H559 C556 0.930 . S
C560 C562 1.348 . S
C560 C563 1.356 . S
C560 O590 1.325 . S
N561 C564 1.314 . S
N561 C565 1.279 . S
C562 C560 1.348 . S
C562 C564 1.353 . S
C562 H604 0.929 . S
C563 C560 1.356 . S
C563 C565 1.358 . S
C563 H605 0.930 . S
C564 N561 1.314 . S
C564 C562 1.353 . S
C564 H606 0.930 . S
C565 N561 1.279 . S
C565 C563 1.358 . S
C565 H607 0.930 . S
C566 C567 1.348 . S
C566 C568 1.356 . S
C566 O591 1.325 . S
C567 C566 1.348 . S
C567 C569 1.353 . S
C567 H608 0.929 . S
C568 C566 1.356 . S
C568 C570 1.358 . S
C568 H609 0.930 . S
C569 C567 1.353 . S
C569 N571 1.314 . S
C569 H610 0.930 . S
C570 C568 1.358 . S
C570 N571 1.279 . S
C570 H611 0.930 . S
N571 C569 1.314 . S
N571 C570 1.279 . S
C572 C574 1.353 . S
C572 N575 1.314 1_565 S
C572 H578 0.931 . S
C573 N575 1.279 1_565 S
C573 C576 1.358 . S
C573 H579 0.930 1_565 S
C574 C572 1.353 . S
C574 C577 1.348 . S
C574 H612 0.929 . S
N575 Li530 1.990 . S
N575 C572 1.314 1_545 S
N575 C573 1.279 1_545 S
C576 C573 1.358 . S
C576 C577 1.356 . S
C576 H613 0.930 . S
C577 C574 1.348 . S
C577 C576 1.356 . S
H578 C572 0.931 . S
H579 C573 0.930 1_545 S
C580 N581 1.304 1_545 S
C580 C582 1.353 . S
C580 H586 0.930 . S
N581 Li531 1.981 1_565 S
N581 C580 1.304 1_565 S
N581 C584 1.299 . S
C582 C580 1.353 . S
C582 C585 1.348 1_545 S
C582 H614 0.929 . S
C583 C584 1.358 . S
C583 C585 1.356 . S
C583 H615 0.930 . S
C584 N581 1.299 . S
C584 C583 1.358 . S
C584 H587 0.930 . S
C585 C582 1.348 1_565 S
C585 C583 1.356 . S
H586 C580 0.930 . S
H587 C584 0.930 . S
O588 Li528 1.956 . S
O588 Li529 1.970 . S
O588 Li530 1.961 . S
O588 C532 1.325 . S
O589 Li528 1.970 . S
O589 Li529 1.956 . S
O589 Li531 1.961 . S
O589 C538 1.325 . S
O590 Li528 1.961 . S
O590 Li530 1.956 . S
O590 Li531 1.970 . S
O590 C560 1.325 . S
O591 Li529 1.961 1_565 S
O591 Li530 1.970 1_565 S
O591 Li531 1.956 1_565 S
O591 C566 1.325 . S
H592 C534 0.929 . S
H593 C535 0.930 . S
H594 C536 0.930 . S
H595 C537 0.930 . S
H596 C539 0.930 . S
H597 C541 0.929 . S
H598 C542 0.930 . S
H599 C543 0.930 . S
H600 C546 0.930 . S
H601 C549 0.929 . S
H602 C554 0.944 . S
H603 C555 0.930 . S
H604 C562 0.929 . S
H605 C563 0.930 . S
H606 C564 0.930 . S
H607 C565 0.930 . S
H608 C567 0.929 . S
H609 C568 0.930 . S
H610 C569 0.930 . S
H611 C570 0.930 . S
H612 C574 0.929 . S
H613 C576 0.930 . S
H614 C582 0.929 . S
H615 C583 0.930 . S
Li616 N633 1.990 . S
Li616 O676 1.956 . S
Li616 O677 1.970 . S
Li616 O678 1.961 . S
Li617 N641 1.990 . S
Li617 O676 1.970 . S
Li617 O677 1.956 . S
Li617 O679 1.961 . S
Li618 N663 1.990 . S
Li618 O676 1.961 . S
Li618 O678 1.956 . S
Li618 O679 1.970 . S
Li619 N669 1.990 . S
Li619 O677 1.961 . S
Li619 O678 1.970 . S
Li619 O679 1.956 . S
C620 C622 1.348 . S
C620 C623 1.356 . S
C620 O676 1.325 . S
N621 C624 1.314 . S
N621 C625 1.279 . S
C622 C620 1.348 . S
C622 C624 1.353 . S
C622 H680 0.929 . S
C623 C620 1.356 . S
C623 C625 1.358 . S
C623 H681 0.930 . S
C624 N621 1.314 . S
C624 C622 1.353 . S
C624 H682 0.930 . S
C625 N621 1.279 . S
C625 C623 1.358 . S
C625 H683 0.930 . S
C626 C629 1.348 . S
C626 C630 1.356 . S
C626 O677 1.325 . S
C627 N628 1.279 . S
C627 C630 1.358 . S
C627 H684 0.930 . S
N628 C627 1.279 . S
N628 C631 1.314 . S
C629 C626 1.348 . S
C629 C631 1.353 . S
C629 H685 0.929 . S
C630 C626 1.356 . S
C630 C627 1.358 . S
C630 H686 0.930 . S
C631 N628 1.314 . S
C631 C629 1.353 . S
C631 H687 0.930 . S
C632 N633 1.314 . S
C632 C637 1.353 . S
C632 H638 0.930 . S
N633 Li616 1.990 . S
N633 C632 1.314 . S
N633 C635 1.279 . S
C634 C635 1.358 . S
C634 C636 1.356 . S
C634 H688 0.930 . S
C635 N633 1.279 . S
C635 C634 1.358 . S
C635 H639 0.930 . S
C636 C634 1.356 . S
C636 C637 1.348 . S
C637 C632 1.353 . S
C637 C636 1.348 . S
C637 H689 0.929 . S
H638 C632 0.930 . S
H639 C635 0.930 . S
C640 N641 1.314 . S
C640 C642 1.353 . S
C640 H646 0.930 . S
N641 Li617 1.990 . S
N641 C640 1.314 . S
N641 C644 1.279 . S
C642 C640 1.353 . S
C642 C645 1.348 . S
C642 H690 0.929 . S
C643 C644 1.358 . S
C643 C645 1.356 . S
C643 H691 0.930 . S
C644 N641 1.279 . S
C644 C643 1.358 . S
C644 H647 0.930 . S
C645 C642 1.348 . S
C645 C643 1.356 . S
H646 C640 0.930 . S
H647 C644 0.930 . S
C648 C650 1.348 . S
C648 C651 1.356 . S
C648 O678 1.325 . S
N649 C652 1.314 . S
N649 C653 1.279 . S
C650 C648 1.348 . S
C650 C652 1.353 . S
C650 H692 0.929 . S
C651 C648 1.356 . S
C651 C653 1.358 . S
C651 H693 0.930 . S
C652 N649 1.314 . S
C652 C650 1.353 . S
C652 H694 0.930 . S
C653 N649 1.279 . S
C653 C651 1.358 . S
C653 H695 0.930 . S
C654 C655 1.348 . S
C654 C656 1.356 . S
C654 O679 1.325 . S
C655 C654 1.348 . S
C655 C657 1.353 . S
C655 H696 0.929 . S
C656 C654 1.356 . S
C656 C658 1.358 . S
C656 H697 0.930 . S
C657 C655 1.353 . S
C657 N659 1.314 . S
C657 H698 0.930 . S
C658 C656 1.358 . S
C658 N659 1.279 . S
C658 H699 0.930 . S
N659 C657 1.314 . S
N659 C658 1.279 . S
C660 C662 1.353 . S
C660 N663 1.314 . S
C660 H666 0.930 . S
C661 N663 1.279 . S
C661 C664 1.358 . S
C661 H667 0.930 . S
C662 C660 1.353 . S
C662 C665 1.348 . S
C662 H700 0.929 . S
N663 Li618 1.990 . S
N663 C660 1.314 . S
N663 C661 1.279 . S
C664 C661 1.358 . S
C664 C665 1.356 . S
C664 H701 0.930 . S
C665 C662 1.348 . S
C665 C664 1.356 . S
H666 C660 0.930 . S
H667 C661 0.930 . S
C668 N669 1.314 . S
C668 C670 1.353 . S
C668 H674 0.930 . S
N669 Li619 1.990 . S
N669 C668 1.314 . S
N669 C672 1.279 . S
C670 C668 1.353 . S
C670 C673 1.348 . S
C670 H702 0.929 . S
C671 C672 1.358 . S
C671 C673 1.356 . S
C671 H703 0.930 . S
C672 N669 1.279 . S
C672 C671 1.358 . S
C672 H675 0.930 . S
C673 C670 1.348 . S
C673 C671 1.356 . S
H674 C668 0.930 . S
H675 C672 0.930 . S
O676 Li616 1.956 . S
O676 Li617 1.970 . S
O676 Li618 1.961 . S
O676 C620 1.325 . S
O677 Li616 1.970 . S
O677 Li617 1.956 . S
O677 Li619 1.961 . S
O677 C626 1.325 . S
O678 Li616 1.961 . S
O678 Li618 1.956 . S
O678 Li619 1.970 . S
O678 C648 1.325 . S
O679 Li617 1.961 . S
O679 Li618 1.970 . S
O679 Li619 1.956 . S
O679 C654 1.325 . S
H680 C622 0.929 . S
H681 C623 0.930 . S
H682 C624 0.930 . S
H683 C625 0.930 . S
H684 C627 0.930 . S
H685 C629 0.929 . S
H686 C630 0.930 . S
H687 C631 0.930 . S
H688 C634 0.930 . S
H689 C637 0.929 . S
H690 C642 0.929 . S
H691 C643 0.930 . S
H692 C650 0.929 . S
H693 C651 0.930 . S
H694 C652 0.930 . S
H695 C653 0.930 . S
H696 C655 0.929 . S
H697 C656 0.930 . S
H698 C657 0.930 . S
H699 C658 0.930 . S
H700 C662 0.929 . S
H701 C664 0.930 . S
H702 C670 0.929 . S
H703 C671 0.930 . S
Li704 N721 1.990 . S
Li704 O764 1.956 . S
Li704 O765 1.970 . S
Li704 O766 1.961 . S
Li705 N729 1.990 . S
Li705 O764 1.970 . S
Li705 O765 1.956 . S
Li705 O767 1.961 . S
Li706 N751 1.990 . S
Li706 O764 1.961 . S
Li706 O766 1.956 . S
Li706 O767 1.970 . S
Li707 N757 1.990 . S
Li707 O765 1.961 . S
Li707 O766 1.970 . S
Li707 O767 1.956 . S
C708 C710 1.348 . S
C708 C711 1.356 . S
C708 O764 1.325 . S
N709 C712 1.314 . S
N709 C713 1.279 . S
C710 C708 1.348 . S
C710 C712 1.353 . S
C710 H768 0.929 . S
C711 C708 1.356 . S
C711 C713 1.358 . S
C711 H769 0.930 . S
C712 N709 1.314 . S
C712 C710 1.353 . S
C712 H770 0.930 . S
C713 N709 1.279 . S
C713 C711 1.358 . S
C713 H771 0.930 . S
C714 C717 1.348 . S
C714 C718 1.356 . S
C714 O765 1.325 . S
C715 N716 1.279 . S
C715 C718 1.358 . S
C715 H772 0.930 . S
N716 C715 1.279 . S
N716 C719 1.314 . S
C717 C714 1.348 . S
C717 C719 1.353 . S
C717 H773 0.929 . S
C718 C714 1.356 . S
C718 C715 1.358 . S
C718 H774 0.930 . S
C719 N716 1.314 . S
C719 C717 1.353 . S
C719 H775 0.930 . S
C720 N721 1.314 . S
C720 C725 1.353 . S
C720 H726 0.930 . S
N721 Li704 1.990 . S
N721 C720 1.314 . S
N721 C723 1.279 . S
C722 C723 1.358 . S
C722 C724 1.356 . S
C722 H776 0.930 . S
C723 N721 1.279 . S
C723 C722 1.358 . S
C723 H727 0.930 . S
C724 C722 1.356 . S
C724 C725 1.348 . S
C725 C720 1.353 . S
C725 C724 1.348 . S
C725 H777 0.929 . S
H726 C720 0.930 . S
H727 C723 0.930 . S
C728 N729 1.314 . S
C728 C730 1.353 . S
C728 H734 0.930 . S
N729 Li705 1.990 . S
N729 C728 1.314 . S
N729 C732 1.279 . S
C730 C728 1.353 . S
C730 C733 1.348 . S
C730 H778 0.929 . S
C731 C732 1.358 . S
C731 C733 1.356 . S
C731 H779 0.930 . S
C732 N729 1.279 . S
C732 C731 1.358 . S
C732 H735 0.930 . S
C733 C730 1.348 . S
C733 C731 1.356 . S
H734 C728 0.930 . S
H735 C732 0.930 . S
C736 C738 1.348 . S
C736 C739 1.356 . S
C736 O766 1.325 . S
N737 C740 1.314 . S
N737 C741 1.279 . S
C738 C736 1.348 . S
C738 C740 1.353 . S
C738 H780 0.929 . S
C739 C736 1.356 . S
C739 C741 1.358 . S
C739 H781 0.930 . S
C740 N737 1.314 . S
C740 C738 1.353 . S
C740 H782 0.930 . S
C741 N737 1.279 . S
C741 C739 1.358 . S
C741 H783 0.930 . S
C742 C743 1.348 . S
C742 C744 1.356 . S
C742 O767 1.325 . S
C743 C742 1.348 . S
C743 C745 1.353 . S
C743 H784 0.929 . S
C744 C742 1.356 . S
C744 C746 1.358 . S
C744 H785 0.930 . S
C745 C743 1.353 . S
C745 N747 1.314 . S
C745 H786 0.930 . S
C746 C744 1.358 . S
C746 N747 1.279 . S
C746 H787 0.930 . S
N747 C745 1.314 . S
N747 C746 1.279 . S
C748 C750 1.353 . S
C748 N751 1.314 . S
C748 H754 0.930 . S
C749 N751 1.279 . S
C749 C752 1.358 . S
C749 H755 0.930 . S
C750 C748 1.353 . S
C750 C753 1.348 . S
C750 H788 0.929 . S
N751 Li706 1.990 . S
N751 C748 1.314 . S
N751 C749 1.279 . S
C752 C749 1.358 . S
C752 C753 1.356 . S
C752 H789 0.930 . S
C753 C750 1.348 . S
C753 C752 1.356 . S
H754 C748 0.930 . S
H755 C749 0.930 . S
C756 N757 1.314 . S
C756 C758 1.353 . S
C756 H762 0.930 . S
N757 Li707 1.990 . S
N757 C756 1.314 . S
N757 C760 1.279 . S
C758 C756 1.353 . S
C758 C761 1.348 . S
C758 H790 0.929 . S
C759 C760 1.358 . S
C759 C761 1.356 . S
C759 H791 0.930 . S
C760 N757 1.279 . S
C760 C759 1.358 . S
C760 H763 0.930 . S
C761 C758 1.348 . S
C761 C759 1.356 . S
H762 C756 0.930 . S
H763 C760 0.930 . S
O764 Li704 1.956 . S
O764 Li705 1.970 . S
O764 Li706 1.961 . S
O764 C708 1.325 . S
O765 Li704 1.970 . S
O765 Li705 1.956 . S
O765 Li707 1.961 . S
O765 C714 1.325 . S
O766 Li704 1.961 . S
O766 Li706 1.956 . S
O766 Li707 1.970 . S
O766 C736 1.325 . S
O767 Li705 1.961 . S
O767 Li706 1.970 . S
O767 Li707 1.956 . S
O767 C742 1.325 . S
H768 C710 0.929 . S
H769 C711 0.930 . S
H770 C712 0.930 . S
H771 C713 0.930 . S
H772 C715 0.930 . S
H773 C717 0.929 . S
H774 C718 0.930 . S
H775 C719 0.930 . S
H776 C722 0.930 . S
H777 C725 0.929 . S
H778 C730 0.929 . S
H779 C731 0.930 . S
H780 C738 0.929 . S
H781 C739 0.930 . S
H782 C740 0.930 . S
H783 C741 0.930 . S
H784 C743 0.929 . S
H785 C744 0.930 . S
H786 C745 0.930 . S
H787 C746 0.930 . S
H788 C750 0.929 . S
H789 C752 0.930 . S
H790 C758 0.929 . S
H791 C759 0.930 . S
Li792 N809 1.990 . S
Li792 O852 1.956 . S
Li792 O853 1.970 . S
Li792 O854 1.961 . S
Li793 N817 1.990 . S
Li793 O852 1.970 . S
Li793 O853 1.956 . S
Li793 O855 1.961 . S
Li794 N839 1.990 . S
Li794 O852 1.961 . S
Li794 O854 1.956 . S
Li794 O855 1.970 . S
Li795 N845 1.990 . S
Li795 O853 1.961 . S
Li795 O854 1.970 . S
Li795 O855 1.956 . S
C796 C798 1.348 . S
C796 C799 1.356 . S
C796 O852 1.325 . S
N797 C800 1.314 . S
N797 C801 1.279 . S
C798 C796 1.348 . S
C798 C800 1.353 . S
C798 H856 0.929 . S
C799 C796 1.356 . S
C799 C801 1.358 . S
C799 H857 0.930 . S
C800 N797 1.314 . S
C800 C798 1.353 . S
C800 H858 0.930 . S
C801 N797 1.279 . S
C801 C799 1.358 . S
C801 H859 0.930 . S
C802 C805 1.348 . S
C802 C806 1.356 . S
C802 O853 1.325 . S
C803 N804 1.279 . S
C803 C806 1.358 . S
C803 H860 0.930 . S
N804 C803 1.279 . S
N804 C807 1.314 . S
C805 C802 1.348 . S
C805 C807 1.353 . S
C805 H861 0.929 . S
C806 C802 1.356 . S
C806 C803 1.358 . S
C806 H862 0.930 . S
C807 N804 1.314 . S
C807 C805 1.353 . S
C807 H863 0.930 . S
C808 N809 1.314 . S
C808 C813 1.353 . S
C808 H814 0.930 . S
N809 Li792 1.990 . S
N809 C808 1.314 . S
N809 C811 1.279 . S
C810 C811 1.358 . S
C810 C812 1.356 . S
C810 H864 0.930 . S
C811 N809 1.279 . S
C811 C810 1.358 . S
C811 H815 0.930 . S
C812 C810 1.356 . S
C812 C813 1.348 . S
C813 C808 1.353 . S
C813 C812 1.348 . S
C813 H865 0.929 . S
H814 C808 0.930 . S
H815 C811 0.930 . S
C816 N817 1.314 . S
C816 C818 1.353 . S
C816 H822 0.930 . S
N817 Li793 1.990 . S
N817 C816 1.314 . S
N817 C820 1.279 . S
C818 C816 1.353 . S
C818 C821 1.348 . S
C818 H866 0.929 . S
C819 C820 1.358 . S
C819 C821 1.356 . S
C819 H867 0.930 . S
C820 N817 1.279 . S
C820 C819 1.358 . S
C820 H823 0.930 . S
C821 C818 1.348 . S
C821 C819 1.356 . S
H822 C816 0.930 . S
H823 C820 0.930 . S
C824 C826 1.348 . S
C824 C827 1.356 . S
C824 O854 1.325 . S
N825 C828 1.314 . S
N825 C829 1.279 . S
C826 C824 1.348 . S
C826 C828 1.353 . S
C826 H868 0.929 . S
C827 C824 1.356 . S
C827 C829 1.358 . S
C827 H869 0.930 . S
C828 N825 1.314 . S
C828 C826 1.353 . S
C828 H870 0.930 . S
C829 N825 1.279 . S
C829 C827 1.358 . S
C829 H871 0.930 . S
C830 C831 1.348 . S
C830 C832 1.356 . S
C830 O855 1.325 . S
C831 C830 1.348 . S
C831 C833 1.353 . S
C831 H872 0.929 . S
C832 C830 1.356 . S
C832 C834 1.358 . S
C832 H873 0.930 . S
C833 C831 1.353 . S
C833 N835 1.314 . S
C833 H874 0.930 . S
C834 C832 1.358 . S
C834 N835 1.279 . S
C834 H875 0.930 . S
N835 C833 1.314 . S
N835 C834 1.279 . S
C836 C838 1.353 . S
C836 N839 1.314 . S
C836 H842 0.930 . S
C837 N839 1.279 . S
C837 C840 1.358 . S
C837 H843 0.930 . S
C838 C836 1.353 . S
C838 C841 1.348 . S
C838 H876 0.929 . S
N839 Li794 1.990 . S
N839 C836 1.314 . S
N839 C837 1.279 . S
C840 C837 1.358 . S
C840 C841 1.356 . S
C840 H877 0.930 . S
C841 C838 1.348 . S
C841 C840 1.356 . S
H842 C836 0.930 . S
H843 C837 0.930 . S
C844 N845 1.314 . S
C844 C846 1.353 . S
C844 H850 0.930 . S
N845 Li795 1.990 . S
N845 C844 1.314 . S
N845 C848 1.279 . S
C846 C844 1.353 . S
C846 C849 1.348 . S
C846 H878 0.929 . S
C847 C848 1.358 . S
C847 C849 1.356 . S
C847 H879 0.930 . S
C848 N845 1.279 . S
C848 C847 1.358 . S
C848 H851 0.930 . S
C849 C846 1.348 . S
C849 C847 1.356 . S
H850 C844 0.930 . S
H851 C848 0.930 . S
O852 Li792 1.956 . S
O852 Li793 1.970 . S
O852 Li794 1.961 . S
O852 C796 1.325 . S
O853 Li792 1.970 . S
O853 Li793 1.956 . S
O853 Li795 1.961 . S
O853 C802 1.325 . S
O854 Li792 1.961 . S
O854 Li794 1.956 . S
O854 Li795 1.970 . S
O854 C824 1.325 . S
O855 Li793 1.961 . S
O855 Li794 1.970 . S
O855 Li795 1.956 . S
O855 C830 1.325 . S
H856 C798 0.929 . S
H857 C799 0.930 . S
H858 C800 0.930 . S
H859 C801 0.930 . S
H860 C803 0.930 . S
H861 C805 0.929 . S
H862 C806 0.930 . S
H863 C807 0.930 . S
H864 C810 0.930 . S
H865 C813 0.929 . S
H866 C818 0.929 . S
H867 C819 0.930 . S
H868 C826 0.929 . S
H869 C827 0.930 . S
H870 C828 0.930 . S
H871 C829 0.930 . S
H872 C831 0.929 . S
H873 C832 0.930 . S
H874 C833 0.930 . S
H875 C834 0.930 . S
H876 C838 0.929 . S
H877 C840 0.930 . S
H878 C846 0.929 . S
H879 C847 0.930 . S
Li880 N897 1.990 . S
Li880 O940 1.956 . S
Li880 O941 1.970 . S
Li880 O942 1.961 . S
Li881 N905 1.990 . S
Li881 O940 1.970 . S
Li881 O941 1.956 . S
Li881 O943 1.961 . S
Li882 N927 1.990 . S
Li882 O940 1.961 . S
Li882 O942 1.956 . S
Li882 O943 1.970 . S
Li883 N933 1.990 . S
Li883 O941 1.961 . S
Li883 O942 1.970 . S
Li883 O943 1.956 . S
C884 C886 1.348 . S
C884 C887 1.356 . S
C884 O940 1.325 . S
N885 C888 1.314 . S
N885 C889 1.279 . S
C886 C884 1.348 . S
C886 C888 1.353 . S
C886 H944 0.929 . S
C887 C884 1.356 . S
C887 C889 1.358 . S
C887 H945 0.930 . S
C888 N885 1.314 . S
C888 C886 1.353 . S
C888 H946 0.930 . S
C889 N885 1.279 . S
C889 C887 1.358 . S
C889 H947 0.930 . S
C890 C893 1.348 . S
C890 C894 1.356 . S
C890 O941 1.325 . S
C891 N892 1.279 . S
C891 C894 1.358 . S
C891 H948 0.930 . S
N892 C891 1.279 . S
N892 C895 1.314 . S
C893 C890 1.348 . S
C893 C895 1.353 . S
C893 H949 0.929 . S
C894 C890 1.356 . S
C894 C891 1.358 . S
C894 H950 0.930 . S
C895 N892 1.314 . S
C895 C893 1.353 . S
C895 H951 0.930 . S
C896 N897 1.314 . S
C896 C901 1.353 . S
C896 H902 0.930 . S
N897 Li880 1.990 . S
N897 C896 1.314 . S
N897 C899 1.279 . S
C898 C899 1.358 . S
C898 C900 1.356 . S
C898 H952 0.930 . S
C899 N897 1.279 . S
C899 C898 1.358 . S
C899 H903 0.930 . S
C900 C898 1.356 . S
C900 C901 1.348 . S
C901 C896 1.353 . S
C901 C900 1.348 . S
C901 H953 0.929 . S
H902 C896 0.930 . S
H903 C899 0.930 . S
C904 N905 1.314 . S
C904 C906 1.353 . S
C904 H910 0.930 . S
N905 Li881 1.990 . S
N905 C904 1.314 . S
N905 C908 1.279 . S
C906 C904 1.353 . S
C906 C909 1.348 . S
C906 H954 0.929 . S
C907 C908 1.358 . S
C907 C909 1.356 . S
C907 H955 0.930 . S
C908 N905 1.279 . S
C908 C907 1.358 . S
C908 H911 0.930 . S
C909 C906 1.348 . S
C909 C907 1.356 . S
H910 C904 0.930 . S
H911 C908 0.930 . S
C912 C914 1.348 . S
C912 C915 1.356 . S
C912 O942 1.325 . S
N913 C916 1.314 . S
N913 C917 1.279 . S
C914 C912 1.348 . S
C914 C916 1.353 . S
C914 H956 0.929 . S
C915 C912 1.356 . S
C915 C917 1.358 . S
C915 H957 0.930 . S
C916 N913 1.314 . S
C916 C914 1.353 . S
C916 H958 0.930 . S
C917 N913 1.279 . S
C917 C915 1.358 . S
C917 H959 0.930 . S
C918 C919 1.348 . S
C918 C920 1.356 . S
C918 O943 1.325 . S
C919 C918 1.348 . S
C919 C921 1.353 . S
C919 H960 0.929 . S
C920 C918 1.356 . S
C920 C922 1.358 . S
C920 H961 0.930 . S
C921 C919 1.353 . S
C921 N923 1.314 . S
C921 H962 0.930 . S
C922 C920 1.358 . S
C922 N923 1.279 . S
C922 H963 0.930 . S
N923 C921 1.314 . S
N923 C922 1.279 . S
C924 C926 1.353 . S
C924 N927 1.314 . S
C924 H930 0.930 . S
C925 N927 1.279 . S
C925 C928 1.358 . S
C925 H931 0.930 . S
C926 C924 1.353 . S
C926 C929 1.348 . S
C926 H964 0.929 . S
N927 Li882 1.990 . S
N927 C924 1.314 . S
N927 C925 1.279 . S
C928 C925 1.358 . S
C928 C929 1.356 . S
C928 H965 0.930 . S
C929 C926 1.348 . S
C929 C928 1.356 . S
H930 C924 0.930 . S
H931 C925 0.930 . S
C932 N933 1.314 . S
C932 C934 1.353 . S
C932 H938 0.930 . S
N933 Li883 1.990 . S
N933 C932 1.314 . S
N933 C936 1.279 . S
C934 C932 1.353 . S
C934 C937 1.348 . S
C934 H966 0.929 . S
C935 C936 1.358 . S
C935 C937 1.356 . S
C935 H967 0.930 . S
C936 N933 1.279 . S
C936 C935 1.358 . S
C936 H939 0.930 . S
C937 C934 1.348 . S
C937 C935 1.356 . S
H938 C932 0.930 . S
H939 C936 0.930 . S
O940 Li880 1.956 . S
O940 Li881 1.970 . S
O940 Li882 1.961 . S
O940 C884 1.325 . S
O941 Li880 1.970 . S
O941 Li881 1.956 . S
O941 Li883 1.961 . S
O941 C890 1.325 . S
O942 Li880 1.961 . S
O942 Li882 1.956 . S
O942 Li883 1.970 . S
O942 C912 1.325 . S
O943 Li881 1.961 . S
O943 Li882 1.970 . S
O943 Li883 1.956 . S
O943 C918 1.325 . S
H944 C886 0.929 . S
H945 C887 0.930 . S
H946 C888 0.930 . S
H947 C889 0.930 . S
H948 C891 0.930 . S
H949 C893 0.929 . S
H950 C894 0.930 . S
H951 C895 0.930 . S
H952 C898 0.930 . S
H953 C901 0.929 . S
H954 C906 0.929 . S
H955 C907 0.930 . S
H956 C914 0.929 . S
H957 C915 0.930 . S
H958 C916 0.930 . S
H959 C917 0.930 . S
H960 C919 0.929 . S
H961 C920 0.930 . S
H962 C921 0.930 . S
H963 C922 0.930 . S
H964 C926 0.929 . S
H965 C928 0.930 . S
H966 C934 0.929 . S
H967 C935 0.930 . S
Li968 N985 1.990 . S
Li968 O1028 1.956 . S
Li968 O1029 1.970 . S
Li968 O1030 1.961 . S
Li969 N993 1.990 . S
Li969 O1028 1.970 . S
Li969 O1029 1.956 . S
Li969 O1031 1.961 . S
Li970 N1015 1.990 . S
Li970 O1028 1.961 . S
Li970 O1030 1.956 . S
Li970 O1031 1.970 . S
Li971 N1021 1.990 . S
Li971 O1029 1.961 . S
Li971 O1030 1.970 . S
Li971 O1031 1.956 . S
C972 C974 1.348 . S
C972 C975 1.356 . S
C972 O1028 1.325 . S
N973 C976 1.314 . S
N973 C977 1.279 . S
C974 C972 1.348 . S
C974 C976 1.353 . S
C974 H1032 0.929 . S
C975 C972 1.356 . S
C975 C977 1.358 . S
C975 H1033 0.930 . S
C976 N973 1.314 . S
C976 C974 1.353 . S
C976 H1034 0.930 . S
C977 N973 1.279 . S
C977 C975 1.358 . S
C977 H1035 0.930 . S
C978 C981 1.348 . S
C978 C982 1.356 . S
C978 O1029 1.325 . S
C979 N980 1.279 . S
C979 C982 1.358 . S
C979 H1036 0.930 . S
N980 C979 1.279 . S
N980 C983 1.314 . S
C981 C978 1.348 . S
C981 C983 1.353 . S
C981 H1037 0.929 . S
C982 C978 1.356 . S
C982 C979 1.358 . S
C982 H1038 0.930 . S
C983 N980 1.314 . S
C983 C981 1.353 . S
C983 H1039 0.930 . S
C984 N985 1.314 . S
C984 C989 1.353 . S
C984 H990 0.930 . S
N985 Li968 1.990 . S
N985 C984 1.314 . S
N985 C987 1.279 . S
C986 C987 1.358 . S
C986 C988 1.356 . S
C986 H1040 0.930 . S
C987 N985 1.279 . S
C987 C986 1.358 . S
C987 H991 0.930 . S
C988 C986 1.356 . S
C988 C989 1.348 . S
C989 C984 1.353 . S
C989 C988 1.348 . S
C989 H1041 0.929 . S
H990 C984 0.930 . S
H991 C987 0.930 . S
C992 N993 1.314 . S
C992 C994 1.353 . S
C992 H998 0.930 . S
N993 Li969 1.990 . S
N993 C992 1.314 . S
N993 C996 1.279 . S
C994 C992 1.353 . S
C994 C997 1.348 . S
C994 H1042 0.929 . S
C995 C996 1.358 . S
C995 C997 1.356 . S
C995 H1043 0.930 . S
C996 N993 1.279 . S
C996 C995 1.358 . S
C996 H999 0.930 . S
C997 C994 1.348 . S
C997 C995 1.356 . S
H998 C992 0.930 . S
H999 C996 0.930 . S
C1000 C1002 1.348 . S
C1000 C1003 1.356 . S
C1000 O1030 1.325 . S
N1001 C1004 1.314 . S
N1001 C1005 1.279 . S
C1002 C1000 1.348 . S
C1002 C1004 1.353 . S
C1002 H1044 0.929 . S
C1003 C1000 1.356 . S
C1003 C1005 1.358 . S
C1003 H1045 0.930 . S
C1004 N1001 1.314 . S
C1004 C1002 1.353 . S
C1004 H1046 0.930 . S
C1005 N1001 1.279 . S
C1005 C1003 1.358 . S
C1005 H1047 0.930 . S
C1006 C1007 1.348 . S
C1006 C1008 1.356 . S
C1006 O1031 1.325 . S
C1007 C1006 1.348 . S
C1007 C1009 1.353 . S
C1007 H1048 0.929 . S
C1008 C1006 1.356 . S
C1008 C1010 1.358 . S
C1008 H1049 0.930 . S
C1009 C1007 1.353 . S
C1009 N1011 1.314 . S
C1009 H1050 0.930 . S
C1010 C1008 1.358 . S
C1010 N1011 1.279 . S
C1010 H1051 0.930 . S
N1011 C1009 1.314 . S
N1011 C1010 1.279 . S
C1012 C1014 1.353 . S
C1012 N1015 1.314 . S
C1012 H1018 0.930 . S
C1013 N1015 1.279 . S
C1013 C1016 1.358 . S
C1013 H1019 0.930 . S
C1014 C1012 1.353 . S
C1014 C1017 1.348 . S
C1014 H1052 0.929 . S
N1015 Li970 1.990 . S
N1015 C1012 1.314 . S
N1015 C1013 1.279 . S
C1016 C1013 1.358 . S
C1016 C1017 1.356 . S
C1016 H1053 0.930 . S
C1017 C1014 1.348 . S
C1017 C1016 1.356 . S
H1018 C1012 0.930 . S
H1019 C1013 0.930 . S
C1020 N1021 1.314 . S
C1020 C1022 1.353 . S
C1020 H1026 0.930 . S
N1021 Li971 1.990 . S
N1021 C1020 1.314 . S
N1021 C1024 1.279 . S
C1022 C1020 1.353 . S
C1022 C1025 1.348 . S
C1022 H1054 0.929 . S
C1023 C1024 1.358 . S
C1023 C1025 1.356 . S
C1023 H1055 0.930 . S
C1024 N1021 1.279 . S
C1024 C1023 1.358 . S
C1024 H1027 0.930 . S
C1025 C1022 1.348 . S
C1025 C1023 1.356 . S
H1026 C1020 0.930 . S
H1027 C1024 0.930 . S
O1028 Li968 1.956 . S
O1028 Li969 1.970 . S
O1028 Li970 1.961 . S
O1028 C972 1.325 . S
O1029 Li968 1.970 . S
O1029 Li969 1.956 . S
O1029 Li971 1.961 . S
O1029 C978 1.325 . S
O1030 Li968 1.961 . S
O1030 Li970 1.956 . S
O1030 Li971 1.970 . S
O1030 C1000 1.325 . S
O1031 Li969 1.961 . S
O1031 Li970 1.970 . S
O1031 Li971 1.956 . S
O1031 C1006 1.325 . S
H1032 C974 0.929 . S
H1033 C975 0.930 . S
H1034 C976 0.930 . S
H1035 C977 0.930 . S
H1036 C979 0.930 . S
H1037 C981 0.929 . S
H1038 C982 0.930 . S
H1039 C983 0.930 . S
H1040 C986 0.930 . S
H1041 C989 0.929 . S
H1042 C994 0.929 . S
H1043 C995 0.930 . S
H1044 C1002 0.929 . S
H1045 C1003 0.930 . S
H1046 C1004 0.930 . S
H1047 C1005 0.930 . S
H1048 C1007 0.929 . S
H1049 C1008 0.930 . S
H1050 C1009 0.930 . S
H1051 C1010 0.930 . S
H1052 C1014 0.929 . S
H1053 C1016 0.930 . S
H1054 C1022 0.929 . S
H1055 C1023 0.930 . S
Li1056 N1073 1.990 . S
Li1056 O1116 1.956 . S
Li1056 O1117 1.970 . S
Li1056 O1118 1.961 . S
Li1057 N1081 1.990 . S
Li1057 O1116 1.970 . S
Li1057 O1117 1.956 . S
Li1057 O1119 1.961 . S
Li1058 N1103 1.990 . S
Li1058 O1116 1.961 . S
Li1058 O1118 1.956 . S
Li1058 O1119 1.970 . S
Li1059 N1109 1.990 . S
Li1059 O1117 1.961 . S
Li1059 O1118 1.970 . S
Li1059 O1119 1.956 . S
C1060 C1062 1.348 . S
C1060 C1063 1.356 . S
C1060 O1116 1.325 . S
N1061 C1064 1.314 . S
N1061 C1065 1.279 . S
C1062 C1060 1.348 . S
C1062 C1064 1.353 . S
C1062 H1120 0.929 . S
C1063 C1060 1.356 . S
C1063 C1065 1.358 . S
C1063 H1121 0.930 . S
C1064 N1061 1.314 . S
C1064 C1062 1.353 . S
C1064 H1122 0.930 . S
C1065 N1061 1.279 . S
C1065 C1063 1.358 . S
C1065 H1123 0.930 . S
C1066 C1069 1.348 . S
C1066 C1070 1.356 . S
C1066 O1117 1.325 . S
C1067 N1068 1.279 . S
C1067 C1070 1.358 . S
C1067 H1124 0.930 . S
N1068 C1067 1.279 . S
N1068 C1071 1.314 . S
C1069 C1066 1.348 . S
C1069 C1071 1.353 . S
C1069 H1125 0.929 . S
C1070 C1066 1.356 . S
C1070 C1067 1.358 . S
C1070 H1126 0.930 . S
C1071 N1068 1.314 . S
C1071 C1069 1.353 . S
C1071 H1127 0.930 . S
C1072 N1073 1.314 . S
C1072 C1077 1.353 . S
C1072 H1078 0.930 . S
N1073 Li1056 1.990 . S
N1073 C1072 1.314 . S
N1073 C1075 1.279 . S
C1074 C1075 1.358 . S
C1074 C1076 1.356 . S
C1074 H1128 0.930 . S
C1075 N1073 1.279 . S
C1075 C1074 1.358 . S
C1075 H1079 0.930 . S
C1076 C1074 1.356 . S
C1076 C1077 1.348 . S
C1077 C1072 1.353 . S
C1077 C1076 1.348 . S
C1077 H1129 0.929 . S
H1078 C1072 0.930 . S
H1079 C1075 0.930 . S
C1080 N1081 1.314 . S
C1080 C1082 1.353 . S
C1080 H1086 0.930 . S
N1081 Li1057 1.990 . S
N1081 C1080 1.314 . S
N1081 C1084 1.279 . S
C1082 C1080 1.353 . S
C1082 C1085 1.348 . S
C1082 H1130 0.929 . S
C1083 C1084 1.358 . S
C1083 C1085 1.356 . S
C1083 H1131 0.930 . S
C1084 N1081 1.279 . S
C1084 C1083 1.358 . S
C1084 H1087 0.930 . S
C1085 C1082 1.348 . S
C1085 C1083 1.356 . S
H1086 C1080 0.930 . S
H1087 C1084 0.930 . S
C1088 C1090 1.348 . S
C1088 C1091 1.356 . S
C1088 O1118 1.325 . S
N1089 C1092 1.314 . S
N1089 C1093 1.279 . S
C1090 C1088 1.348 . S
C1090 C1092 1.353 . S
C1090 H1132 0.929 . S
C1091 C1088 1.356 . S
C1091 C1093 1.358 . S
C1091 H1133 0.930 . S
C1092 N1089 1.314 . S
C1092 C1090 1.353 . S
C1092 H1134 0.930 . S
C1093 N1089 1.279 . S
C1093 C1091 1.358 . S
C1093 H1135 0.930 . S
C1094 C1095 1.348 . S
C1094 C1096 1.356 . S
C1094 O1119 1.325 . S
C1095 C1094 1.348 . S
C1095 C1097 1.353 . S
C1095 H1136 0.929 . S
C1096 C1094 1.356 . S
C1096 C1098 1.358 . S
C1096 H1137 0.930 . S
C1097 C1095 1.353 . S
C1097 N1099 1.314 . S
C1097 H1138 0.930 . S
C1098 C1096 1.358 . S
C1098 N1099 1.279 . S
C1098 H1139 0.930 . S
N1099 C1097 1.314 . S
N1099 C1098 1.279 . S
C1100 C1102 1.353 . S
C1100 N1103 1.314 . S
C1100 H1106 0.930 . S
C1101 N1103 1.279 . S
C1101 C1104 1.358 . S
C1101 H1107 0.930 . S
C1102 C1100 1.353 . S
C1102 C1105 1.348 . S
C1102 H1140 0.929 . S
N1103 Li1058 1.990 . S
N1103 C1100 1.314 . S
N1103 C1101 1.279 . S
C1104 C1101 1.358 . S
C1104 C1105 1.356 . S
C1104 H1141 0.930 . S
C1105 C1102 1.348 . S
C1105 C1104 1.356 . S
H1106 C1100 0.930 . S
H1107 C1101 0.930 . S
C1108 N1109 1.314 . S
C1108 C1110 1.353 . S
C1108 H1114 0.930 . S
N1109 Li1059 1.990 . S
N1109 C1108 1.314 . S
N1109 C1112 1.279 . S
C1110 C1108 1.353 . S
C1110 C1113 1.348 . S
C1110 H1142 0.929 . S
C1111 C1112 1.358 . S
C1111 C1113 1.356 . S
C1111 H1143 0.930 . S
C1112 N1109 1.279 . S
C1112 C1111 1.358 . S
C1112 H1115 0.930 . S
C1113 C1110 1.348 . S
C1113 C1111 1.356 . S
H1114 C1108 0.930 . S
H1115 C1112 0.930 . S
O1116 Li1056 1.956 . S
O1116 Li1057 1.970 . S
O1116 Li1058 1.961 . S
O1116 C1060 1.325 . S
O1117 Li1056 1.970 . S
O1117 Li1057 1.956 . S
O1117 Li1059 1.961 . S
O1117 C1066 1.325 . S
O1118 Li1056 1.961 . S
O1118 Li1058 1.956 . S
O1118 Li1059 1.970 . S
O1118 C1088 1.325 . S
O1119 Li1057 1.961 . S
O1119 Li1058 1.970 . S
O1119 Li1059 1.956 . S
O1119 C1094 1.325 . S
H1120 C1062 0.929 . S
H1121 C1063 0.930 . S
H1122 C1064 0.930 . S
H1123 C1065 0.930 . S
H1124 C1067 0.930 . S
H1125 C1069 0.929 . S
H1126 C1070 0.930 . S
H1127 C1071 0.930 . S
H1128 C1074 0.930 . S
H1129 C1077 0.929 . S
H1130 C1082 0.929 . S
H1131 C1083 0.930 . S
H1132 C1090 0.929 . S
H1133 C1091 0.930 . S
H1134 C1092 0.930 . S
H1135 C1093 0.930 . S
H1136 C1095 0.929 . S
H1137 C1096 0.930 . S
H1138 C1097 0.930 . S
H1139 C1098 0.930 . S
H1140 C1102 0.929 . S
H1141 C1104 0.930 . S
H1142 C1110 0.929 . S
H1143 C1111 0.930 . S
Li1144 N1161 1.990 . S
Li1144 O1204 1.956 1_655 S
Li1144 O1205 1.970 1_655 S
Li1144 O1206 1.961 . S
Li1145 N1169 1.990 . S
Li1145 O1204 1.970 . S
Li1145 O1205 1.956 . S
Li1145 O1207 1.961 . S
Li1146 N1191 1.990 . S
Li1146 O1204 1.961 . S
Li1146 O1206 1.956 1_455 S
Li1146 O1207 1.970 . S
Li1147 N1197 1.990 . S
Li1147 O1205 1.961 . S
Li1147 O1206 1.970 1_455 S
Li1147 O1207 1.956 . S
C1148 C1150 1.348 . S
C1148 C1151 1.356 1_455 S
C1148 O1204 1.325 . S
N1149 C1152 1.314 . S
N1149 C1153 1.279 1_455 S
C1150 C1148 1.348 . S
C1150 C1152 1.353 . S
C1150 H1208 0.929 . S
C1151 C1148 1.356 1_655 S
C1151 C1153 1.358 . S
C1151 H1209 0.930 . S
C1152 N1149 1.314 . S
C1152 C1150 1.353 . S
C1152 H1210 0.930 . S
C1153 N1149 1.279 1_655 S
C1153 C1151 1.358 . S
C1153 H1211 0.930 . S
C1154 C1157 1.348 1_455 S
C1154 C1158 1.356 . S
C1154 O1205 1.325 . S
C1155 N1156 1.279 . S
C1155 C1158 1.358 . S
C1155 H1212 0.930 . S
N1156 C1155 1.279 . S
N1156 C1159 1.314 1_455 S
C1157 C1154 1.348 1_655 S
C1157 C1159 1.353 . S
C1157 H1213 0.929 . S
C1158 C1154 1.356 . S
C1158 C1155 1.358 . S
C1158 H1214 0.930 . S
C1159 N1156 1.314 1_655 S
C1159 C1157 1.353 . S
C1159 H1215 0.930 . S
C1160 N1161 1.314 . S
C1160 C1165 1.353 . S
C1160 H1166 0.930 . S
N1161 Li1144 1.990 . S
N1161 C1160 1.314 . S
N1161 C1163 1.279 . S
C1162 C1163 1.358 . S
C1162 C1164 1.356 . S
C1162 H1216 0.930 . S
C1163 N1161 1.279 . S
C1163 C1162 1.358 . S
C1163 H1167 0.930 . S
C1164 C1162 1.356 . S
C1164 C1165 1.348 . S
C1165 C1160 1.353 . S
C1165 C1164 1.348 . S
C1165 H1217 0.929 . S
H1166 C1160 0.930 . S
H1167 C1163 0.930 . S
C1168 N1169 1.314 . S
C1168 C1170 1.353 . S
C1168 H1174 0.930 . S
N1169 Li1145 1.990 . S
N1169 C1168 1.314 . S
N1169 C1172 1.279 . S
C1170 C1168 1.353 . S
C1170 C1173 1.348 . S
C1170 H1218 0.929 . S
C1171 C1172 1.358 . S
C1171 C1173 1.356 . S
C1171 H1219 0.930 . S
C1172 N1169 1.279 . S
C1172 C1171 1.358 . S
C1172 H1175 0.930 . S
C1173 C1170 1.348 . S
C1173 C1171 1.356 . S
H1174 C1168 0.930 . S
H1175 C1172 0.930 . S
C1176 C1178 1.348 . S
C1176 C1179 1.356 . S
C1176 O1206 1.325 . S
N1177 C1180 1.314 . S
N1177 C1181 1.279 . S
C1178 C1176 1.348 . S
C1178 C1180 1.353 . S
C1178 H1220 0.929 . S
C1179 C1176 1.356 . S
C1179 C1181 1.358 . S
C1179 H1221 0.930 . S
C1180 N1177 1.314 . S
C1180 C1178 1.353 . S
C1180 H1222 0.930 . S
C1181 N1177 1.279 . S
C1181 C1179 1.358 . S
C1181 H1223 0.930 . S
C1182 C1183 1.348 . S
C1182 C1184 1.356 . S
C1182 O1207 1.325 . S
C1183 C1182 1.348 . S
C1183 C1185 1.353 . S
C1183 H1224 0.929 . S
C1184 C1182 1.356 . S
C1184 C1186 1.358 . S
C1184 H1225 0.930 . S
C1185 C1183 1.353 . S
C1185 N1187 1.314 . S
C1185 H1226 0.930 . S
C1186 C1184 1.358 . S
C1186 N1187 1.279 . S
C1186 H1227 0.930 . S
N1187 C1185 1.314 . S
N1187 C1186 1.279 . S
C1188 C1190 1.353 . S
C1188 N1191 1.314 . S
C1188 H1194 0.930 . S
C1189 N1191 1.279 1_655 S
C1189 C1192 1.358 . S
C1189 H1195 0.930 . S
C1190 C1188 1.353 . S
C1190 C1193 1.348 . S
C1190 H1228 0.929 . S
N1191 Li1146 1.990 . S
N1191 C1188 1.314 . S
N1191 C1189 1.279 1_455 S
C1192 C1189 1.358 . S
C1192 C1193 1.356 1_655 S
C1192 H1229 0.930 . S
C1193 C1190 1.348 . S
C1193 C1192 1.356 1_455 S
H1194 C1188 0.930 . S
H1195 C1189 0.930 . S
C1196 N1197 1.314 1_655 S
C1196 C1198 1.353 . S
C1196 H1202 0.930 . S
N1197 Li1147 1.990 . S
N1197 C1196 1.314 1_455 S
N1197 C1200 1.279 . S
C1198 C1196 1.353 . S
C1198 C1201 1.348 1_655 S
C1198 H1230 0.929 . S
C1199 C1200 1.358 . S
C1199 C1201 1.356 . S
C1199 H1231 0.930 . S
C1200 N1197 1.279 . S
C1200 C1199 1.358 . S
C1200 H1203 0.930 . S
C1201 C1198 1.348 1_455 S
C1201 C1199 1.356 . S
H1202 C1196 0.930 . S
H1203 C1200 0.930 . S
O1204 Li1144 1.956 1_455 S
O1204 Li1145 1.970 . S
O1204 Li1146 1.961 . S
O1204 C1148 1.325 . S
O1205 Li1144 1.970 1_455 S
O1205 Li1145 1.956 . S
O1205 Li1147 1.961 . S
O1205 C1154 1.325 . S
O1206 Li1144 1.961 . S
O1206 Li1146 1.956 1_655 S
O1206 Li1147 1.970 1_655 S
O1206 C1176 1.325 . S
O1207 Li1145 1.961 . S
O1207 Li1146 1.970 . S
O1207 Li1147 1.956 . S
O1207 C1182 1.325 . S
H1208 C1150 0.929 . S
H1209 C1151 0.930 . S
H1210 C1152 0.930 . S
H1211 C1153 0.930 . S
H1212 C1155 0.930 . S
H1213 C1157 0.929 . S
H1214 C1158 0.930 . S
H1215 C1159 0.930 . S
H1216 C1162 0.930 . S
H1217 C1165 0.929 . S
H1218 C1170 0.929 . S
H1219 C1171 0.930 . S
H1220 C1178 0.929 . S
H1221 C1179 0.930 . S
H1222 C1180 0.930 . S
H1223 C1181 0.930 . S
H1224 C1183 0.929 . S
H1225 C1184 0.930 . S
H1226 C1185 0.930 . S
H1227 C1186 0.930 . S
H1228 C1190 0.929 . S
H1229 C1192 0.930 . S
H1230 C1198 0.929 . S
H1231 C1199 0.930 . S
Li1232 N1249 1.990 . S
Li1232 O1292 1.956 . S
Li1232 O1293 1.970 . S
Li1232 O1294 1.961 . S
Li1233 N1257 1.990 . S
Li1233 O1292 1.970 . S
Li1233 O1293 1.956 . S
Li1233 O1295 1.961 . S
Li1234 N1279 1.990 . S
Li1234 O1292 1.961 . S
Li1234 O1294 1.956 . S
Li1234 O1295 1.970 . S
Li1235 N1285 1.990 . S
Li1235 O1293 1.961 . S
Li1235 O1294 1.970 . S
Li1235 O1295 1.956 . S
C1236 C1238 1.348 . S
C1236 C1239 1.356 . S
C1236 O1292 1.325 . S
N1237 C1240 1.314 . S
N1237 C1241 1.279 . S
C1238 C1236 1.348 . S
C1238 C1240 1.353 . S
C1238 H1296 0.929 . S
C1239 C1236 1.356 . S
C1239 C1241 1.358 . S
C1239 H1297 0.930 . S
C1240 N1237 1.314 . S
C1240 C1238 1.353 . S
C1240 H1298 0.930 . S
C1241 N1237 1.279 . S
C1241 C1239 1.358 . S
C1241 H1299 0.930 . S
C1242 C1245 1.348 . S
C1242 C1246 1.356 . S
C1242 O1293 1.325 . S
C1243 N1244 1.279 . S
C1243 C1246 1.358 . S
C1243 H1300 0.930 . S
N1244 C1243 1.279 . S
N1244 C1247 1.314 . S
C1245 C1242 1.348 . S
C1245 C1247 1.353 . S
C1245 H1301 0.929 . S
C1246 C1242 1.356 . S
C1246 C1243 1.358 . S
C1246 H1302 0.930 . S
C1247 N1244 1.314 . S
C1247 C1245 1.353 . S
C1247 H1303 0.930 . S
C1248 N1249 1.314 . S
C1248 C1253 1.353 . S
C1248 H1254 0.930 . S
N1249 Li1232 1.990 . S
N1249 C1248 1.314 . S
N1249 C1251 1.279 . S
C1250 C1251 1.358 . S
C1250 C1252 1.356 . S
C1250 H1304 0.930 . S
C1251 N1249 1.279 . S
C1251 C1250 1.358 . S
C1251 H1255 0.930 . S
C1252 C1250 1.356 . S
C1252 C1253 1.348 . S
C1253 C1248 1.353 . S
C1253 C1252 1.348 . S
C1253 H1305 0.929 . S
H1254 C1248 0.930 . S
H1255 C1251 0.930 . S
C1256 N1257 1.314 . S
C1256 C1258 1.353 . S
C1256 H1262 0.930 . S
N1257 Li1233 1.990 . S
N1257 C1256 1.314 . S
N1257 C1260 1.279 . S
C1258 C1256 1.353 . S
C1258 C1261 1.348 . S
C1258 H1306 0.929 . S
C1259 C1260 1.358 . S
C1259 C1261 1.356 . S
C1259 H1307 0.930 . S
C1260 N1257 1.279 . S
C1260 C1259 1.358 . S
C1260 H1263 0.930 . S
C1261 C1258 1.348 . S
C1261 C1259 1.356 . S
H1262 C1256 0.930 . S
H1263 C1260 0.930 . S
C1264 C1266 1.348 . S
C1264 C1267 1.356 . S
C1264 O1294 1.325 . S
N1265 C1268 1.314 . S
N1265 C1269 1.279 . S
C1266 C1264 1.348 . S
C1266 C1268 1.353 . S
C1266 H1308 0.929 . S
C1267 C1264 1.356 . S
C1267 C1269 1.358 . S
C1267 H1309 0.930 . S
C1268 N1265 1.314 . S
C1268 C1266 1.353 . S
C1268 H1310 0.930 . S
C1269 N1265 1.279 . S
C1269 C1267 1.358 . S
C1269 H1311 0.930 . S
C1270 C1271 1.348 . S
C1270 C1272 1.356 . S
C1270 O1295 1.325 . S
C1271 C1270 1.348 . S
C1271 C1273 1.353 . S
C1271 H1312 0.929 . S
C1272 C1270 1.356 . S
C1272 C1274 1.358 . S
C1272 H1313 0.930 . S
C1273 C1271 1.353 . S
C1273 N1275 1.314 . S
C1273 H1314 0.930 . S
C1274 C1272 1.358 . S
C1274 N1275 1.279 . S
C1274 H1315 0.930 . S
N1275 C1273 1.314 . S
N1275 C1274 1.279 . S
C1276 C1278 1.353 . S
C1276 N1279 1.314 . S
C1276 H1282 0.930 . S
C1277 N1279 1.279 . S
C1277 C1280 1.358 . S
C1277 H1283 0.930 . S
C1278 C1276 1.353 . S
C1278 C1281 1.348 . S
C1278 H1316 0.929 . S
N1279 Li1234 1.990 . S
N1279 C1276 1.314 . S
N1279 C1277 1.279 . S
C1280 C1277 1.358 . S
C1280 C1281 1.356 . S
C1280 H1317 0.930 . S
C1281 C1278 1.348 . S
C1281 C1280 1.356 . S
H1282 C1276 0.930 . S
H1283 C1277 0.930 . S
C1284 N1285 1.314 . S
C1284 C1286 1.353 . S
C1284 H1290 0.930 . S
N1285 Li1235 1.990 . S
N1285 C1284 1.314 . S
N1285 C1288 1.279 . S
C1286 C1284 1.353 . S
C1286 C1289 1.348 . S
C1286 H1318 0.929 . S
C1287 C1288 1.358 . S
C1287 C1289 1.356 . S
C1287 H1319 0.930 . S
C1288 N1285 1.279 . S
C1288 C1287 1.358 . S
C1288 H1291 0.930 . S
C1289 C1286 1.348 . S
C1289 C1287 1.356 . S
H1290 C1284 0.930 . S
H1291 C1288 0.930 . S
O1292 Li1232 1.956 . S
O1292 Li1233 1.970 . S
O1292 Li1234 1.961 . S
O1292 C1236 1.325 . S
O1293 Li1232 1.970 . S
O1293 Li1233 1.956 . S
O1293 Li1235 1.961 . S
O1293 C1242 1.325 . S
O1294 Li1232 1.961 . S
O1294 Li1234 1.956 . S
O1294 Li1235 1.970 . S
O1294 C1264 1.325 . S
O1295 Li1233 1.961 . S
O1295 Li1234 1.970 . S
O1295 Li1235 1.956 . S
O1295 C1270 1.325 . S
H1296 C1238 0.929 . S
H1297 C1239 0.930 . S
H1298 C1240 0.930 . S
H1299 C1241 0.930 . S
H1300 C1243 0.930 . S
H1301 C1245 0.929 . S
H1302 C1246 0.930 . S
H1303 C1247 0.930 . S
H1304 C1250 0.930 . S
H1305 C1253 0.929 . S
H1306 C1258 0.929 . S
H1307 C1259 0.930 . S
H1308 C1266 0.929 . S
H1309 C1267 0.930 . S
H1310 C1268 0.930 . S
H1311 C1269 0.930 . S
H1312 C1271 0.929 . S
H1313 C1272 0.930 . S
H1314 C1273 0.930 . S
H1315 C1274 0.930 . S
H1316 C1278 0.929 . S
H1317 C1280 0.930 . S
H1318 C1286 0.929 . S
H1319 C1287 0.930 . S
Li1320 N1337 1.990 . S
Li1320 O1380 1.956 . S
Li1320 O1381 1.970 1_455 S
Li1320 O1382 1.961 . S
Li1321 N1345 1.990 . S
Li1321 O1380 1.970 . S
Li1321 O1381 1.956 1_455 S
Li1321 O1383 1.961 . S
Li1322 N1367 1.990 . S
Li1322 O1380 1.961 . S
Li1322 O1382 1.956 . S
Li1322 O1383 1.970 . S
Li1323 N1373 1.990 . S
Li1323 O1381 1.961 . S
Li1323 O1382 1.970 1_655 S
Li1323 O1383 1.956 1_655 S
C1324 C1326 1.348 . S
C1324 C1327 1.356 . S
C1324 O1380 1.325 . S
N1325 C1328 1.314 . S
N1325 C1329 1.279 . S
C1326 C1324 1.348 . S
C1326 C1328 1.353 . S
C1326 H1384 0.929 . S
C1327 C1324 1.356 . S
C1327 C1329 1.358 . S
C1327 H1385 0.930 . S
C1328 N1325 1.314 . S
C1328 C1326 1.353 . S
C1328 H1386 0.930 . S
C1329 N1325 1.279 . S
C1329 C1327 1.358 . S
C1329 H1387 0.930 . S
C1330 C1333 1.348 . S
C1330 C1334 1.356 . S
C1330 O1381 1.325 . S
C1331 N1332 1.279 . S
C1331 C1334 1.358 . S
C1331 H1388 0.930 . S
N1332 C1331 1.279 . S
N1332 C1335 1.314 . S
C1333 C1330 1.348 . S
C1333 C1335 1.353 . S
C1333 H1389 0.929 . S
C1334 C1330 1.356 . S
C1334 C1331 1.358 . S
C1334 H1390 0.930 . S
C1335 N1332 1.314 . S
C1335 C1333 1.353 . S
C1335 H1391 0.930 . S
C1336 N1337 1.314 1_655 S
C1336 C1341 1.353 . S
C1336 H1342 0.930 . S
N1337 Li1320 1.990 . S
N1337 C1336 1.314 1_455 S
N1337 C1339 1.279 . S
C1338 C1339 1.358 . S
C1338 C1340 1.356 . S
C1338 H1392 0.930 . S
C1339 N1337 1.279 . S
C1339 C1338 1.358 . S
C1339 H1343 0.930 . S
C1340 C1338 1.356 . S
C1340 C1341 1.348 1_455 S
C1341 C1336 1.353 . S
C1341 C1340 1.348 1_655 S
C1341 H1393 0.929 . S
H1342 C1336 0.930 . S
H1343 C1339 0.930 . S
C1344 N1345 1.314 . S
C1344 C1346 1.353 . S
C1344 H1350 0.930 . S
N1345 Li1321 1.990 . S
N1345 C1344 1.314 . S
N1345 C1348 1.279 1_455 S
C1346 C1344 1.353 . S
C1346 C1349 1.348 . S
C1346 H1394 0.929 . S
C1347 C1348 1.358 . S
C1347 C1349 1.356 1_655 S
C1347 H1395 0.930 . S
C1348 N1345 1.279 1_655 S
C1348 C1347 1.358 . S
C1348 H1351 0.930 . S
C1349 C1346 1.348 . S
C1349 C1347 1.356 1_455 S
H1350 C1344 0.930 . S
H1351 C1348 0.930 . S
C1352 C1354 1.348 1_455 S
C1352 C1355 1.356 . S
C1352 O1382 1.325 . S
N1353 C1356 1.314 1_455 S
N1353 C1357 1.279 . S
C1354 C1352 1.348 1_655 S
C1354 C1356 1.353 . S
C1354 H1396 0.929 . S
C1355 C1352 1.356 . S
C1355 C1357 1.358 . S
C1355 H1397 0.930 . S
C1356 N1353 1.314 1_655 S
C1356 C1354 1.353 . S
C1356 H1398 0.930 . S
C1357 N1353 1.279 . S
C1357 C1355 1.358 . S
C1357 H1399 0.930 . S
C1358 C1359 1.348 . S
C1358 C1360 1.356 1_455 S
C1358 O1383 1.325 . S
C1359 C1358 1.348 . S
C1359 C1361 1.353 . S
C1359 H1400 0.929 . S
C1360 C1358 1.356 1_655 S
C1360 C1362 1.358 . S
C1360 H1401 0.930 . S
C1361 C1359 1.353 . S
C1361 N1363 1.314 . S
C1361 H1402 0.930 . S
C1362 C1360 1.358 . S
C1362 N1363 1.279 1_655 S
C1362 H1403 0.930 . S
N1363 C1361 1.314 . S
N1363 C1362 1.279 1_455 S
C1364 C1366 1.353 . S
C1364 N1367 1.314 . S
C1364 H1370 0.930 . S
C1365 N1367 1.279 . S
C1365 C1368 1.358 . S
C1365 H1371 0.930 . S
C1366 C1364 1.353 . S
C1366 C1369 1.348 . S
C1366 H1404 0.929 . S
N1367 Li1322 1.990 . S
N1367 C1364 1.314 . S
N1367 C1365 1.279 . S
C1368 C1365 1.358 . S
C1368 C1369 1.356 . S
C1368 H1405 0.930 . S
C1369 C1366 1.348 . S
C1369 C1368 1.356 . S
H1370 C1364 0.930 . S
H1371 C1365 0.930 . S
C1372 N1373 1.314 . S
C1372 C1374 1.353 . S
C1372 H1378 0.930 . S
N1373 Li1323 1.990 . S
N1373 C1372 1.314 . S
N1373 C1376 1.279 . S
C1374 C1372 1.353 . S
C1374 C1377 1.348 . S
C1374 H1406 0.929 . S
C1375 C1376 1.358 . S
C1375 C1377 1.356 . S
C1375 H1407 0.930 . S
C1376 N1373 1.279 . S
C1376 C1375 1.358 . S
C1376 H1379 0.930 . S
C1377 C1374 1.348 . S
C1377 C1375 1.356 . S
H1378 C1372 0.930 . S
H1379 C1376 0.930 . S
O1380 Li1320 1.956 . S
O1380 Li1321 1.970 . S
O1380 Li1322 1.961 . S
O1380 C1324 1.325 . S
O1381 Li1320 1.970 1_655 S
O1381 Li1321 1.956 1_655 S
O1381 Li1323 1.961 . S
O1381 C1330 1.325 . S
O1382 Li1320 1.961 . S
O1382 Li1322 1.956 . S
O1382 Li1323 1.970 1_455 S
O1382 C1352 1.325 . S
O1383 Li1321 1.961 . S
O1383 Li1322 1.970 . S
O1383 Li1323 1.956 1_455 S
O1383 C1358 1.325 . S
H1384 C1326 0.929 . S
H1385 C1327 0.930 . S
H1386 C1328 0.930 . S
H1387 C1329 0.930 . S
H1388 C1331 0.930 . S
H1389 C1333 0.929 . S
H1390 C1334 0.930 . S
H1391 C1335 0.930 . S
H1392 C1338 0.930 . S
H1393 C1341 0.929 . S
H1394 C1346 0.929 . S
H1395 C1347 0.930 . S
H1396 C1354 0.929 . S
H1397 C1355 0.930 . S
H1398 C1356 0.930 . S
H1399 C1357 0.930 . S
H1400 C1359 0.929 . S
H1401 C1360 0.930 . S
H1402 C1361 0.930 . S
H1403 C1362 0.930 . S
H1404 C1366 0.929 . S
H1405 C1368 0.930 . S
H1406 C1374 0.929 . S
H1407 C1375 0.930 . S
C1408 C1409 1.369 . S
C1408 C1410 1.419 . S
C1408 H1412 0.930 . S
C1409 C1408 1.369 . S
C1409 C1418 1.429 . S
C1410 C1408 1.419 . S
C1410 C1411 1.363 . S
C1410 H1413 0.929 . S
C1411 C1410 1.363 . S
C1411 C1417 1.428 . S
H1412 C1408 0.930 . S
H1413 C1410 0.929 . S
S1414 N1415 1.613 . S
S1414 N1416 1.610 . S
N1415 S1414 1.613 . S
N1415 C1418 1.350 . S
N1416 S1414 1.610 . S
N1416 C1417 1.351 . S
C1417 C1411 1.428 . S
C1417 N1416 1.351 . S
C1417 C1418 1.434 . S
C1418 C1409 1.429 . S
C1418 N1415 1.350 . S
C1418 C1417 1.434 . S
C1419 C1420 1.369 . S
C1419 C1421 1.419 1_655 S
C1419 H1423 0.930 . S
C1420 C1419 1.369 . S
C1420 C1429 1.429 . S
C1421 C1419 1.419 1_455 S
C1421 C1422 1.363 . S
C1421 H1424 0.929 . S
C1422 C1421 1.363 . S
C1422 C1428 1.428 . S
H1423 C1419 0.930 . S
H1424 C1421 0.929 . S
S1425 N1426 1.613 1_455 S
S1425 N1427 1.610 . S
N1426 S1425 1.613 1_655 S
N1426 C1429 1.350 . S
N1427 S1425 1.610 . S
N1427 C1428 1.351 . S
C1428 C1422 1.428 . S
C1428 N1427 1.351 . S
C1428 C1429 1.434 1_455 S
C1429 C1420 1.429 . S
C1429 N1426 1.350 . S
C1429 C1428 1.434 1_655 S
C1430 C1431 1.369 . S
C1430 C1432 1.419 . S
C1430 H1434 0.930 . S
C1431 C1430 1.369 . S
C1431 C1440 1.429 . S
C1432 C1430 1.419 . S
C1432 C1433 1.363 . S
C1432 H1435 0.929 . S
C1433 C1432 1.363 . S
C1433 C1439 1.428 . S
H1434 C1430 0.930 . S
H1435 C1432 0.929 . S
S1436 N1437 1.613 . S
S1436 N1438 1.610 . S
N1437 S1436 1.613 . S
N1437 C1440 1.350 . S
N1438 S1436 1.610 . S
N1438 C1439 1.351 . S
C1439 C1433 1.428 . S
C1439 N1438 1.351 . S
C1439 C1440 1.434 . S
C1440 C1431 1.429 . S
C1440 N1437 1.350 . S
C1440 C1439 1.434 . S
C1441 C1442 1.369 . S
C1441 C1443 1.419 . S
C1441 H1445 0.930 . S
C1442 C1441 1.369 . S
C1442 C1451 1.429 . S
C1443 C1441 1.419 . S
C1443 C1444 1.363 . S
C1443 H1446 0.929 . S
C1444 C1443 1.363 . S
C1444 C1450 1.428 . S
H1445 C1441 0.930 . S
H1446 C1443 0.929 . S
S1447 N1448 1.613 . S
S1447 N1449 1.610 . S
N1448 S1447 1.613 . S
N1448 C1451 1.350 . S
N1449 S1447 1.610 . S
N1449 C1450 1.351 . S
C1450 C1444 1.428 . S
C1450 N1449 1.351 . S
C1450 C1451 1.434 . S
C1451 C1442 1.429 . S
C1451 N1448 1.350 . S
C1451 C1450 1.434 . S
C1452 C1453 1.369 1_655 S
C1452 C1454 1.419 . S
C1452 H1456 0.930 . S
C1453 C1452 1.369 1_455 S
C1453 C1462 1.429 . S
C1454 C1452 1.419 . S
C1454 C1455 1.363 1_655 S
C1454 H1457 0.929 . S
C1455 C1454 1.363 1_455 S
C1455 C1461 1.428 . S
H1456 C1452 0.930 . S
H1457 C1454 0.929 . S
S1458 N1459 1.613 . S
S1458 N1460 1.610 . S
N1459 S1458 1.613 . S
N1459 C1462 1.350 . S
N1460 S1458 1.610 . S
N1460 C1461 1.351 . S
C1461 C1455 1.428 . S
C1461 N1460 1.351 . S
C1461 C1462 1.434 . S
C1462 C1453 1.429 . S
C1462 N1459 1.350 . S
C1462 C1461 1.434 . S
C1463 C1464 1.369 . S
C1463 C1465 1.419 . S
C1463 H1467 0.930 . S
C1464 C1463 1.369 . S
C1464 C1473 1.429 . S
C1465 C1463 1.419 . S
C1465 C1466 1.363 . S
C1465 H1468 0.929 . S
C1466 C1465 1.363 . S
C1466 C1472 1.428 . S
H1467 C1463 0.930 . S
H1468 C1465 0.929 . S
S1469 N1470 1.613 . S
S1469 N1471 1.610 . S
N1470 S1469 1.613 . S
N1470 C1473 1.350 . S
N1471 S1469 1.610 . S
N1471 C1472 1.351 . S
C1472 C1466 1.428 . S
C1472 N1471 1.351 . S
C1472 C1473 1.434 . S
C1473 C1464 1.429 . S
C1473 N1470 1.350 . S
C1473 C1472 1.434 . S
C1474 C1475 1.369 . S
C1474 C1476 1.419 . S
C1474 H1478 0.930 . S
C1475 C1474 1.369 . S
C1475 C1484 1.429 . S
C1476 C1474 1.419 . S
C1476 C1477 1.363 . S
C1476 H1479 0.929 . S
C1477 C1476 1.363 . S
C1477 C1483 1.428 . S
H1478 C1474 0.930 . S
H1479 C1476 0.929 . S
S1480 N1481 1.613 . S
S1480 N1482 1.610 . S
N1481 S1480 1.613 . S
N1481 C1484 1.350 . S
N1482 S1480 1.610 . S
N1482 C1483 1.351 . S
C1483 C1477 1.428 . S
C1483 N1482 1.351 . S
C1483 C1484 1.434 . S
C1484 C1475 1.429 . S
C1484 N1481 1.350 . S
C1484 C1483 1.434 . S
C1485 C1486 1.369 . S
C1485 C1487 1.419 1_455 S
C1485 H1489 0.930 . S
C1486 C1485 1.369 . S
C1486 C1495 1.429 . S
C1487 C1485 1.419 1_655 S
C1487 C1488 1.363 . S
C1487 H1490 0.929 . S
C1488 C1487 1.363 . S
C1488 C1494 1.428 . S
H1489 C1485 0.930 . S
H1490 C1487 0.929 . S
S1491 N1492 1.613 . S
S1491 N1493 1.610 1_455 S
N1492 S1491 1.613 . S
N1492 C1495 1.350 . S
N1493 S1491 1.610 1_655 S
N1493 C1494 1.351 . S
C1494 C1488 1.428 . S
C1494 N1493 1.351 . S
C1494 C1495 1.434 1_655 S
C1495 C1486 1.429 . S
C1495 N1492 1.350 . S
C1495 C1494 1.434 1_455 S
C1496 C1497 1.369 1_545 S
C1496 C1498 1.419 . S
C1496 H1500 0.930 . S
C1497 C1496 1.369 1_565 S
C1497 C1506 1.429 . S
C1498 C1496 1.419 . S
C1498 C1499 1.363 . S
C1498 H1501 0.929 . S
C1499 C1498 1.363 . S
C1499 C1505 1.428 1_545 S
H1500 C1496 0.930 . S
H1501 C1498 0.929 . S
S1502 N1503 1.613 . S
S1502 N1504 1.610 . S
N1503 S1502 1.613 . S
N1503 C1506 1.350 . S
N1504 S1502 1.610 . S
N1504 C1505 1.351 . S
C1505 C1499 1.428 1_565 S
C1505 N1504 1.351 . S
C1505 C1506 1.434 . S
C1506 C1497 1.429 . S
C1506 N1503 1.350 . S
C1506 C1505 1.434 . S
C1507 C1508 1.369 . S
C1507 C1509 1.419 . S
C1507 H1511 0.930 . S
C1508 C1507 1.369 . S
C1508 C1517 1.429 . S
C1509 C1507 1.419 . S
C1509 C1510 1.363 . S
C1509 H1512 0.929 . S
C1510 C1509 1.363 . S
C1510 C1516 1.428 . S
H1511 C1507 0.930 . S
H1512 C1509 0.929 . S
S1513 N1514 1.613 . S
S1513 N1515 1.610 . S
N1514 S1513 1.613 . S
N1514 C1517 1.350 . S
N1515 S1513 1.610 . S
N1515 C1516 1.351 . S
C1516 C1510 1.428 . S
C1516 N1515 1.351 . S
C1516 C1517 1.434 . S
C1517 C1508 1.429 . S
C1517 N1514 1.350 . S
C1517 C1516 1.434 . S
C1518 C1519 1.369 1_545 S
C1518 C1520 1.419 1_554 S
C1518 H1522 0.930 . S
C1519 C1518 1.369 1_565 S
C1519 C1528 1.429 . S
C1520 C1518 1.419 1_556 S
C1520 C1521 1.363 . S
C1520 H1523 0.929 . S
C1521 C1520 1.363 . S
C1521 C1527 1.428 1_545 S
H1522 C1518 0.930 . S
H1523 C1520 0.929 . S
S1524 N1525 1.613 1_556 S
S1524 N1526 1.610 . S
N1525 S1524 1.613 1_554 S
N1525 C1528 1.350 . S
N1526 S1524 1.610 . S
N1526 C1527 1.351 . S
C1527 C1521 1.428 1_565 S
C1527 N1526 1.351 . S
C1527 C1528 1.434 1_556 S
C1528 C1519 1.429 . S
C1528 N1525 1.350 . S
C1528 C1527 1.434 1_554 S
C1529 C1530 1.369 . S
C1529 C1531 1.419 . S
C1529 H1533 0.930 . S
C1530 C1529 1.369 . S
C1530 C1539 1.429 . S
C1531 C1529 1.419 . S
C1531 C1532 1.363 . S
C1531 H1534 0.929 . S
C1532 C1531 1.363 . S
C1532 C1538 1.428 . S
H1533 C1529 0.930 . S
H1534 C1531 0.929 . S
S1535 N1536 1.613 . S
S1535 N1537 1.610 . S
N1536 S1535 1.613 . S
N1536 C1539 1.350 . S
N1537 S1535 1.610 . S
N1537 C1538 1.351 . S
C1538 C1532 1.428 . S
C1538 N1537 1.351 . S
C1538 C1539 1.434 . S
C1539 C1530 1.429 . S
C1539 N1536 1.350 . S
C1539 C1538 1.434 . S
C1540 C1541 1.369 . S
C1540 C1542 1.419 . S
C1540 H1544 0.930 . S
C1541 C1540 1.369 . S
C1541 C1550 1.429 . S
C1542 C1540 1.419 . S
C1542 C1543 1.363 . S
C1542 H1545 0.929 . S
C1543 C1542 1.363 . S
C1543 C1549 1.428 . S
H1544 C1540 0.930 . S
H1545 C1542 0.929 . S
S1546 N1547 1.613 . S
S1546 N1548 1.610 . S
N1547 S1546 1.613 . S
N1547 C1550 1.350 . S
N1548 S1546 1.610 . S
N1548 C1549 1.351 . S
C1549 C1543 1.428 . S
C1549 N1548 1.351 . S
C1549 C1550 1.434 . S
C1550 C1541 1.429 . S
C1550 N1547 1.350 . S
C1550 C1549 1.434 . S
C1551 C1552 1.369 . S
C1551 C1553 1.419 . S
C1551 H1555 0.930 . S
C1552 C1551 1.369 . S
C1552 C1561 1.429 . S
C1553 C1551 1.419 . S
C1553 C1554 1.363 . S
C1553 H1556 0.929 . S
C1554 C1553 1.363 . S
C1554 C1560 1.428 . S
H1555 C1551 0.930 . S
H1556 C1553 0.929 . S
S1557 N1558 1.613 . S
S1557 N1559 1.610 . S
N1558 S1557 1.613 . S
N1558 C1561 1.350 . S
N1559 S1557 1.610 . S
N1559 C1560 1.351 . S
C1560 C1554 1.428 . S
C1560 N1559 1.351 . S
C1560 C1561 1.434 . S
C1561 C1552 1.429 . S
C1561 N1558 1.350 . S
C1561 C1560 1.434 . S
C1562 C1563 1.369 . S
C1562 C1564 1.419 1_556 S
C1562 H1566 0.930 . S
C1563 C1562 1.369 . S
C1563 C1572 1.429 . S
C1564 C1562 1.419 1_554 S
C1564 C1565 1.363 . S
C1564 H1567 0.929 . S
C1565 C1564 1.363 . S
C1565 C1571 1.428 . S
H1566 C1562 0.930 . S
H1567 C1564 0.929 . S
S1568 N1569 1.613 . S
S1568 N1570 1.610 1_556 S
N1569 S1568 1.613 . S
N1569 C1572 1.350 . S
N1570 S1568 1.610 1_554 S
N1570 C1571 1.351 . S
C1571 C1565 1.428 . S
C1571 N1570 1.351 . S
C1571 C1572 1.434 1_554 S
C1572 C1563 1.429 . S
C1572 N1569 1.350 . S
C1572 C1571 1.434 1_556 S
C1573 C1574 1.369 . S
C1573 C1575 1.419 . S
C1573 H1577 0.930 . S
C1574 C1573 1.369 . S
C1574 C1583 1.429 1_455 S
C1575 C1573 1.419 . S
C1575 C1576 1.363 . S
C1575 H1578 0.929 . S
C1576 C1575 1.363 . S
C1576 C1582 1.428 1_455 S
H1577 C1573 0.930 . S
H1578 C1575 0.929 . S
S1579 N1580 1.613 . S
S1579 N1581 1.610 . S
N1580 S1579 1.613 . S
N1580 C1583 1.350 . S
N1581 S1579 1.610 . S
N1581 C1582 1.351 . S
C1582 C1576 1.428 1_655 S
C1582 N1581 1.351 . S
C1582 C1583 1.434 . S
C1583 C1574 1.429 1_655 S
C1583 N1580 1.350 . S
C1583 C1582 1.434 . S
C1584 C1585 1.369 . S
C1584 C1586 1.419 . S
C1584 H1588 0.930 . S
C1585 C1584 1.369 . S
C1585 C1594 1.429 . S
C1586 C1584 1.419 . S
C1586 C1587 1.363 . S
C1586 H1589 0.929 . S
C1587 C1586 1.363 . S
C1587 C1593 1.428 . S
H1588 C1584 0.930 . S
H1589 C1586 0.929 . S
S1590 N1591 1.613 . S
S1590 N1592 1.610 . S
N1591 S1590 1.613 . S
N1591 C1594 1.350 . S
N1592 S1590 1.610 . S
N1592 C1593 1.351 . S
C1593 C1587 1.428 . S
C1593 N1592 1.351 . S
C1593 C1594 1.434 . S
C1594 C1585 1.429 . S
C1594 N1591 1.350 . S
C1594 C1593 1.434 . S
C1595 C1596 1.369 . S
C1595 C1597 1.419 . S
C1595 H1599 0.930 . S
C1596 C1595 1.369 . S
C1596 C1605 1.429 . S
C1597 C1595 1.419 . S
C1597 C1598 1.363 . S
C1597 H1600 0.929 . S
C1598 C1597 1.363 . S
C1598 C1604 1.428 . S
H1599 C1595 0.930 . S
H1600 C1597 0.929 . S
S1601 N1602 1.613 . S
S1601 N1603 1.610 . S
N1602 S1601 1.613 . S
N1602 C1605 1.350 . S
N1603 S1601 1.610 . S
N1603 C1604 1.351 . S
C1604 C1598 1.428 . S
C1604 N1603 1.351 . S
C1604 C1605 1.434 . S
C1605 C1596 1.429 . S
C1605 N1602 1.350 . S
C1605 C1604 1.434 . S
C1606 C1607 1.369 . S
C1606 C1608 1.419 . S
C1606 H1610 0.930 . S
C1607 C1606 1.369 . S
C1607 C1616 1.429 . S
C1608 C1606 1.419 . S
C1608 C1609 1.363 . S
C1608 H1611 0.929 . S
C1609 C1608 1.363 . S
C1609 C1615 1.428 . S
H1610 C1606 0.930 . S
H1611 C1608 0.929 . S
S1612 N1613 1.613 . S
S1612 N1614 1.610 . S
N1613 S1612 1.613 . S
N1613 C1616 1.350 . S
N1614 S1612 1.610 . S
N1614 C1615 1.351 . S
C1615 C1609 1.428 . S
C1615 N1614 1.351 . S
C1615 C1616 1.434 . S
C1616 C1607 1.429 . S
C1616 N1613 1.350 . S
C1616 C1615 1.434 . S
C1617 C1618 1.369 . S
C1617 C1619 1.419 . S
C1617 H1621 0.930 . S
C1618 C1617 1.369 . S
C1618 C1627 1.429 . S
C1619 C1617 1.419 . S
C1619 C1620 1.363 . S
C1619 H1622 0.929 . S
C1620 C1619 1.363 . S
C1620 C1626 1.428 . S
H1621 C1617 0.930 . S
H1622 C1619 0.929 . S
S1623 N1624 1.613 . S
S1623 N1625 1.610 . S
N1624 S1623 1.613 . S
N1624 C1627 1.350 . S
N1625 S1623 1.610 . S
N1625 C1626 1.351 . S
C1626 C1620 1.428 . S
C1626 N1625 1.351 . S
C1626 C1627 1.434 . S
C1627 C1618 1.429 . S
C1627 N1624 1.350 . S
C1627 C1626 1.434 . S
C1628 C1629 1.369 . S
C1628 C1630 1.419 . S
C1628 H1632 0.930 . S
C1629 C1628 1.369 . S
C1629 C1638 1.429 . S
C1630 C1628 1.419 . S
C1630 C1631 1.363 . S
C1630 H1633 0.929 . S
C1631 C1630 1.363 . S
C1631 C1637 1.428 . S
H1632 C1628 0.930 . S
H1633 C1630 0.929 . S
S1634 N1635 1.613 . S
S1634 N1636 1.610 . S
N1635 S1634 1.613 . S
N1635 C1638 1.350 . S
N1636 S1634 1.610 . S
N1636 C1637 1.351 . S
C1637 C1631 1.428 . S
C1637 N1636 1.351 . S
C1637 C1638 1.434 . S
C1638 C1629 1.429 . S
C1638 N1635 1.350 . S
C1638 C1637 1.434 . S
C1639 C1640 1.369 . S
C1639 C1641 1.419 . S
C1639 H1643 0.930 . S
C1640 C1639 1.369 . S
C1640 C1649 1.429 . S
C1641 C1639 1.419 . S
C1641 C1642 1.363 . S
C1641 H1644 0.929 . S
C1642 C1641 1.363 . S
C1642 C1648 1.428 . S
H1643 C1639 0.930 . S
H1644 C1641 0.929 . S
S1645 N1646 1.613 . S
S1645 N1647 1.610 . S
N1646 S1645 1.613 . S
N1646 C1649 1.350 . S
N1647 S1645 1.610 . S
N1647 C1648 1.351 . S
C1648 C1642 1.428 . S
C1648 N1647 1.351 . S
C1648 C1649 1.434 . S
C1649 C1640 1.429 . S
C1649 N1646 1.350 . S
C1649 C1648 1.434 . S
C1650 C1651 1.369 . S
C1650 C1652 1.419 . S
C1650 H1654 0.930 . S
C1651 C1650 1.369 . S
C1651 C1660 1.429 . S
C1652 C1650 1.419 . S
C1652 C1653 1.363 . S
C1652 H1655 0.929 . S
C1653 C1652 1.363 . S
C1653 C1659 1.428 . S
H1654 C1650 0.930 . S
H1655 C1652 0.929 . S
S1656 N1657 1.613 . S
S1656 N1658 1.610 . S
N1657 S1656 1.613 . S
N1657 C1660 1.350 . S
N1658 S1656 1.610 . S
N1658 C1659 1.351 . S
C1659 C1653 1.428 . S
C1659 N1658 1.351 . S
C1659 C1660 1.434 . S
C1660 C1651 1.429 . S
C1660 N1657 1.350 . S
C1660 C1659 1.434 . S
C1661 C1662 1.369 . S
C1661 C1663 1.419 . S
C1661 H1665 0.930 . S
C1662 C1661 1.369 . S
C1662 C1671 1.429 . S
C1663 C1661 1.419 . S
C1663 C1664 1.363 . S
C1663 H1666 0.929 . S
C1664 C1663 1.363 . S
C1664 C1670 1.428 . S
H1665 C1661 0.930 . S
H1666 C1663 0.929 . S
S1667 N1668 1.613 . S
S1667 N1669 1.610 . S
N1668 S1667 1.613 . S
N1668 C1671 1.350 . S
N1669 S1667 1.610 . S
N1669 C1670 1.351 . S
C1670 C1664 1.428 . S
C1670 N1669 1.351 . S
C1670 C1671 1.434 . S
C1671 C1662 1.429 . S
C1671 N1668 1.350 . S
C1671 C1670 1.434 . S
C1672 C1673 1.369 . S
C1672 C1674 1.419 . S
C1672 H1676 0.930 . S
C1673 C1672 1.369 . S
C1673 C1682 1.429 . S
C1674 C1672 1.419 . S
C1674 C1675 1.363 . S
C1674 H1677 0.929 . S
C1675 C1674 1.363 . S
C1675 C1681 1.428 . S
H1676 C1672 0.930 . S
H1677 C1674 0.929 . S
S1678 N1679 1.613 . S
S1678 N1680 1.610 . S
N1679 S1678 1.613 . S
N1679 C1682 1.350 . S
N1680 S1678 1.610 . S
N1680 C1681 1.351 . S
C1681 C1675 1.428 . S
C1681 N1680 1.351 . S
C1681 C1682 1.434 . S
C1682 C1673 1.429 . S
C1682 N1679 1.350 . S
C1682 C1681 1.434 . S
C1683 C1684 1.369 . S
C1683 C1685 1.419 . S
C1683 H1687 0.930 . S
C1684 C1683 1.369 . S
C1684 C1693 1.429 . S
C1685 C1683 1.419 . S
C1685 C1686 1.363 . S
C1685 H1688 0.929 . S
C1686 C1685 1.363 . S
C1686 C1692 1.428 . S
H1687 C1683 0.930 . S
H1688 C1685 0.929 . S
S1689 N1690 1.613 . S
S1689 N1691 1.610 . S
N1690 S1689 1.613 . S
N1690 C1693 1.350 . S
N1691 S1689 1.610 . S
N1691 C1692 1.351 . S
C1692 C1686 1.428 . S
C1692 N1691 1.351 . S
C1692 C1693 1.434 . S
C1693 C1684 1.429 . S
C1693 N1690 1.350 . S
C1693 C1692 1.434 . S
C1694 C1695 1.369 . S
C1694 C1696 1.419 . S
C1694 H1698 0.930 . S
C1695 C1694 1.369 . S
C1695 C1704 1.429 . S
C1696 C1694 1.419 . S
C1696 C1697 1.363 . S
C1696 H1699 0.929 . S
C1697 C1696 1.363 . S
C1697 C1703 1.428 . S
H1698 C1694 0.930 . S
H1699 C1696 0.929 . S
S1700 N1701 1.613 . S
S1700 N1702 1.610 . S
N1701 S1700 1.613 . S
N1701 C1704 1.350 . S
N1702 S1700 1.610 . S
N1702 C1703 1.351 . S
C1703 C1697 1.428 . S
C1703 N1702 1.351 . S
C1703 C1704 1.434 . S
C1704 C1695 1.429 . S
C1704 N1701 1.350 . S
C1704 C1703 1.434 . S
C1705 C1706 1.369 . S
C1705 C1707 1.419 . S
C1705 H1709 0.930 . S
C1706 C1705 1.369 . S
C1706 C1715 1.429 . S
C1707 C1705 1.419 . S
C1707 C1708 1.363 . S
C1707 H1710 0.929 . S
C1708 C1707 1.363 . S
C1708 C1714 1.428 . S
H1709 C1705 0.930 . S
H1710 C1707 0.929 . S
S1711 N1712 1.613 . S
S1711 N1713 1.610 . S
N1712 S1711 1.613 . S
N1712 C1715 1.350 . S
N1713 S1711 1.610 . S
N1713 C1714 1.351 . S
C1714 C1708 1.428 . S
C1714 N1713 1.351 . S
C1714 C1715 1.434 . S
C1715 C1706 1.429 . S
C1715 N1712 1.350 . S
C1715 C1714 1.434 . S
C1716 C1717 1.369 . S
C1716 C1718 1.419 . S
C1716 H1720 0.930 . S
C1717 C1716 1.369 . S
C1717 C1726 1.429 . S
C1718 C1716 1.419 . S
C1718 C1719 1.363 . S
C1718 H1721 0.929 . S
C1719 C1718 1.363 . S
C1719 C1725 1.428 . S
H1720 C1716 0.930 . S
H1721 C1718 0.929 . S
S1722 N1723 1.613 . S
S1722 N1724 1.610 . S
N1723 S1722 1.613 . S
N1723 C1726 1.350 . S
N1724 S1722 1.610 . S
N1724 C1725 1.351 . S
C1725 C1719 1.428 . S
C1725 N1724 1.351 . S
C1725 C1726 1.434 . S
C1726 C1717 1.429 . S
C1726 N1723 1.350 . S
C1726 C1725 1.434 . S
C1727 C1728 1.369 . S
C1727 C1729 1.419 . S
C1727 H1731 0.930 . S
C1728 C1727 1.369 . S
C1728 C1737 1.429 . S
C1729 C1727 1.419 . S
C1729 C1730 1.363 . S
C1729 H1732 0.929 . S
C1730 C1729 1.363 . S
C1730 C1736 1.428 . S
H1731 C1727 0.930 . S
H1732 C1729 0.929 . S
S1733 N1734 1.613 . S
S1733 N1735 1.610 . S
N1734 S1733 1.613 . S
N1734 C1737 1.350 . S
N1735 S1733 1.610 . S
N1735 C1736 1.351 . S
C1736 C1730 1.428 . S
C1736 N1735 1.351 . S
C1736 C1737 1.434 . S
C1737 C1728 1.429 . S
C1737 N1734 1.350 . S
C1737 C1736 1.434 . S
C1738 C1739 1.369 . S
C1738 C1740 1.419 . S
C1738 H1742 0.930 . S
C1739 C1738 1.369 . S
C1739 C1748 1.429 . S
C1740 C1738 1.419 . S
C1740 C1741 1.363 . S
C1740 H1743 0.929 . S
C1741 C1740 1.363 . S
C1741 C1747 1.428 . S
H1742 C1738 0.930 . S
H1743 C1740 0.929 . S
S1744 N1745 1.613 . S
S1744 N1746 1.610 . S
N1745 S1744 1.613 . S
N1745 C1748 1.350 . S
N1746 S1744 1.610 . S
N1746 C1747 1.351 . S
C1747 C1741 1.428 . S
C1747 N1746 1.351 . S
C1747 C1748 1.434 . S
C1748 C1739 1.429 . S
C1748 N1745 1.350 . S
C1748 C1747 1.434 . S
C1749 C1750 1.369 . S
C1749 C1751 1.419 . S
C1749 H1753 0.930 . S
C1750 C1749 1.369 . S
C1750 C1759 1.429 . S
C1751 C1749 1.419 . S
C1751 C1752 1.363 . S
C1751 H1754 0.929 . S
C1752 C1751 1.363 . S
C1752 C1758 1.428 . S
H1753 C1749 0.930 . S
H1754 C1751 0.929 . S
S1755 N1756 1.613 . S
S1755 N1757 1.610 . S
N1756 S1755 1.613 . S
N1756 C1759 1.350 . S
N1757 S1755 1.610 . S
N1757 C1758 1.351 . S
C1758 C1752 1.428 . S
C1758 N1757 1.351 . S
C1758 C1759 1.434 . S
C1759 C1750 1.429 . S
C1759 N1756 1.350 . S
C1759 C1758 1.434 . S
C1409 C29 0.874 . S
C1411 C1201 0.873 . S
C1420 C997 0.881 . S
C1422 C117 0.880 . S
C1431 C1085 0.869 . S
C1433 C225 0.870 . S
C1442 C900 0.877 . S
C1444 C293 0.878 . S
C1453 C401 0.873 . S
C1455 C1340 0.873 . S
C1464 C489 0.875 . S
C1466 C849 0.876 . S
C1475 C1281 0.874 . S
C1477 C548 0.873 . S
C1486 C673 0.877 . S
C1488 C761 0.878 . S
C1497 C409 1.664 . S
C1499 C20 1.662 . S
C1508 C137 1.665 . S
C1510 C469 1.666 . S
C1519 C233 1.664 . S
C1521 C557 1.662 . S
C1530 C636 1.665 . S
C1532 C313 1.666 . S
C1541 C724 1.667 . S
C1543 C937 1.665 . S
C1552 C812 1.667 . S
C1554 C1017 1.665 . S
C1563 C1289 1.662 . S
C1565 C1076 1.664 . S
C1574 C1193 1.664 . S
C1576 C1349 1.662 . S
C1585 C460 1.376 . S
C1587 C49 1.369 . S
C1596 C145 1.377 . S
C1598 C585 1.369 . S
C1607 C205 1.369 . S
C1609 C645 1.378 . S
C1618 C381 1.369 . S
C1620 C321 1.376 . S
C1629 C372 1.375 . S
C1631 C909 1.375 . S
C1640 C196 1.377 . S
C1642 C753 1.372 . S
C1651 C988 1.369 . S
C1653 C577 1.373 . S
C1662 C841 1.369 . S
C1664 C57 1.373 . S
C1673 C733 1.378 . S
C1675 C1105 1.370 . S
C1684 C929 1.374 . S
C1686 C1377 1.373 . S
C1695 C1164 1.371 . S
C1697 C821 1.379 . S
C1706 C1025 1.380 . S
C1708 C1261 1.373 . S
C1717 C1252 1.375 . S
C1719 C108 1.374 . S
C1728 C1173 1.373 . S
C1730 C497 1.369 . S
C1739 C1369 1.375 . S
C1741 C284 1.370 . S
C1750 C1113 1.371 . S
C1752 C665 1.371 . S
