# Generated by pormake.
# Topology crr, (4)-cn, num edge types: 1
# Building blocks:
#     Node 0, Type 0, BuildingBlock: MUDLON_clean_sbu_0, # of connection points: 4
#     Node 1, Type 0, BuildingBlock: MUDLON_clean_sbu_0, # of connection points: 4
#     Node 2, Type 0, BuildingBlock: MUDLON_clean_sbu_0, # of connection points: 4
#     Node 3, Type 0, BuildingBlock: MUDLON_clean_sbu_0, # of connection points: 4
#     Node 4, Type 0, BuildingBlock: MUDLON_clean_sbu_0, # of connection points: 4
#     Node 5, Type 0, BuildingBlock: MUDLON_clean_sbu_0, # of connection points: 4
#     Node 6, Type 0, BuildingBlock: MUDLON_clean_sbu_0, # of connection points: 4
#     Node 7, Type 0, BuildingBlock: MUDLON_clean_sbu_0, # of connection points: 4
#     Node 8, Type 0, BuildingBlock: MUDLON_clean_sbu_0, # of connection points: 4
#     Node 9, Type 0, BuildingBlock: MUDLON_clean_sbu_0, # of connection points: 4
#     Node 10, Type 0, BuildingBlock: MUDLON_clean_sbu_0, # of connection points: 4
#     Node 11, Type 0, BuildingBlock: MUDLON_clean_sbu_0, # of connection points: 4
#     Edge 12, Type (0, 0), BuildingBlock: XUDNAN_clean_linker_2, # of connection points: 2
#     Edge 13, Type (0, 0), BuildingBlock: XUDNAN_clean_linker_2, # of connection points: 2
#     Edge 14, Type (0, 0), BuildingBlock: XUDNAN_clean_linker_2, # of connection points: 2
#     Edge 15, Type (0, 0), BuildingBlock: XUDNAN_clean_linker_2, # of connection points: 2
#     Edge 16, Type (0, 0), BuildingBlock: XUDNAN_clean_linker_2, # of connection points: 2
#     Edge 17, Type (0, 0), BuildingBlock: XUDNAN_clean_linker_2, # of connection points: 2
#     Edge 18, Type (0, 0), BuildingBlock: XUDNAN_clean_linker_2, # of connection points: 2
#     Edge 19, Type (0, 0), BuildingBlock: XUDNAN_clean_linker_2, # of connection points: 2
#     Edge 20, Type (0, 0), BuildingBlock: XUDNAN_clean_linker_2, # of connection points: 2
#     Edge 21, Type (0, 0), BuildingBlock: XUDNAN_clean_linker_2, # of connection points: 2
#     Edge 22, Type (0, 0), BuildingBlock: XUDNAN_clean_linker_2, # of connection points: 2
#     Edge 23, Type (0, 0), BuildingBlock: XUDNAN_clean_linker_2, # of connection points: 2
#     Edge 24, Type (0, 0), BuildingBlock: XUDNAN_clean_linker_2, # of connection points: 2
#     Edge 25, Type (0, 0), BuildingBlock: XUDNAN_clean_linker_2, # of connection points: 2
#     Edge 26, Type (0, 0), BuildingBlock: XUDNAN_clean_linker_2, # of connection points: 2
#     Edge 27, Type (0, 0), BuildingBlock: XUDNAN_clean_linker_2, # of connection points: 2
#     Edge 28, Type (0, 0), BuildingBlock: XUDNAN_clean_linker_2, # of connection points: 2
#     Edge 29, Type (0, 0), BuildingBlock: XUDNAN_clean_linker_2, # of connection points: 2
#     Edge 30, Type (0, 0), BuildingBlock: XUDNAN_clean_linker_2, # of connection points: 2
#     Edge 31, Type (0, 0), BuildingBlock: XUDNAN_clean_linker_2, # of connection points: 2
#     Edge 32, Type (0, 0), BuildingBlock: XUDNAN_clean_linker_2, # of connection points: 2
#     Edge 33, Type (0, 0), BuildingBlock: XUDNAN_clean_linker_2, # of connection points: 2
#     Edge 34, Type (0, 0), BuildingBlock: XUDNAN_clean_linker_2, # of connection points: 2
#     Edge 35, Type (0, 0), BuildingBlock: XUDNAN_clean_linker_2, # of connection points: 2
# Relax obj value: 0.158
# Max RMSD: 0.159
# Mean RMSD: 0.145
data_MOF--net-crr--node1-MUDLON_clean_sbu_0--edge1-XUDNAN_clean_linker_2
_symmetry_space_group_name_H-M    P1
_symmetry_Int_Tables_number       1
_symmetry_cell_setting            triclinic
loop_
_symmetry_equiv_pos_as_xyz
'x, y, z'
_cell_length_a     39.442105
_cell_length_b     39.524756
_cell_length_c     39.476813
_cell_angle_alpha  90.177738
_cell_angle_beta   90.233718
_cell_angle_gamma 89.746083
loop_
_atom_site_label
_atom_site_type_symbol
_atom_site_fract_x
_atom_site_fract_y
_atom_site_fract_z
_atom_type_partial_charge
Mg0 Mg 0.0991 0.35228 0.27625 0.0
C1 C 0.16387 0.31111 0.26827 0.0
O2 O 0.15912 0.31918 0.23636 0.0
C3 C 0.08918 0.42635 0.26478 0.0
O4 O 0.06664 0.41366 0.24375 0.0
C5 C 0.08592 0.30902 0.21468 0.0
O6 O 0.09008 0.2851 0.23739 0.0
O7 O 0.08636 0.33977 0.22423 0.0
O8 O 0.14361 0.32256 0.29059 0.0
O9 O 0.05748 0.34181 0.31038 0.0
C10 C 0.06414 0.32972 0.33946 0.0
O11 O 0.09567 0.32169 0.34685 0.0
O12 O 0.10826 0.4062 0.28123 0.0
Mg13 Mg 0.37756 0.91375 0.62666 0.0
C14 C 0.39768 0.91002 0.70017 0.0
O15 O 0.42521 0.92407 0.68812 0.0
C16 C 0.36033 0.98812 0.614 0.0
O17 O 0.38387 0.99321 0.63708 0.0
C18 C 0.32355 0.8701 0.59935 0.0
O19 O 0.30815 0.89942 0.60308 0.0
O20 O 0.35524 0.86841 0.60512 0.0
O21 O 0.3722 0.90623 0.68071 0.0
O22 O 0.43143 0.91929 0.61812 0.0
C23 C 0.44397 0.94074 0.59784 0.0
O24 O 0.42385 0.9568 0.57665 0.0
O25 O 0.35183 0.95798 0.60668 0.0
Mg26 Mg 0.93443 0.67622 0.33058 0.0
C27 C 0.90823 0.74137 0.30218 0.0
O28 O 0.89686 0.72014 0.27918 0.0
C29 C 0.006 0.64714 0.32823 0.0
O30 O 0.00698 0.65853 0.35952 0.0
C31 C 0.89747 0.63865 0.27586 0.0
O32 O 0.92915 0.63399 0.26681 0.0
O33 O 0.89137 0.65386 0.30367 0.0
O34 O 0.92868 0.7305 0.32466 0.0
O35 O 0.93567 0.66752 0.38499 0.0
C36 C 0.91886 0.68607 0.40534 0.0
O37 O 0.89753 0.70853 0.393 0.0
O38 O 0.98026 0.65378 0.3099 0.0
Mg39 Mg 0.72879 0.02869 0.71473 0.0
C40 C 0.72661 0.95376 0.69938 0.0
O41 O 0.70251 0.95333 0.7222 0.0
C42 C 0.74822 0.04707 0.78583 0.0
O43 O 0.77838 0.04072 0.77323 0.0
C44 C 0.65521 0.02021 0.70058 0.0
O45 O 0.65742 0.00749 0.73122 0.0
O46 O 0.68112 0.03418 0.68786 0.0
O47 O 0.74597 0.97935 0.69788 0.0
O48 O 0.76456 0.0657 0.69672 0.0
C49 C 0.76304 0.09558 0.70859 0.0
O50 O 0.73873 0.10342 0.72992 0.0
O51 O 0.72222 0.03966 0.7682 0.0
Mg52 Mg 0.09677 0.66235 0.66305 0.0
C53 C 0.07773 0.59761 0.69916 0.0
O54 O 0.06681 0.61932 0.72192 0.0
C55 C 0.14444 0.70603 0.62836 0.0
O56 O 0.11596 0.72341 0.62931 0.0
C57 C 0.02849 0.68516 0.62904 0.0
O58 O 0.01833 0.69402 0.65946 0.0
O59 O 0.0582 0.67328 0.62503 0.0
O60 O 0.09244 0.60846 0.67274 0.0
O61 O 0.09598 0.69168 0.70998 0.0
C62 C 0.11576 0.68049 0.73296 0.0
O63 O 0.13242 0.65218 0.72733 0.0
O64 O 0.14469 0.67623 0.64038 0.0
Mg65 Mg 0.65042 0.86391 0.39991 0.0
C66 C 0.72552 0.87773 0.38365 0.0
O67 O 0.72409 0.89767 0.41025 0.0
C68 C 0.5894 0.90584 0.38261 0.0
O69 O 0.5756 0.87595 0.38674 0.0
C70 C 0.63262 0.78968 0.39031 0.0
O71 O 0.65716 0.78572 0.41257 0.0
O72 O 0.62373 0.81945 0.38187 0.0
O73 O 0.69895 0.8623 0.37397 0.0
O74 O 0.65878 0.86206 0.45436 0.0
C75 C 0.66736 0.8893 0.46921 0.0
O76 O 0.66929 0.91728 0.45146 0.0
O77 O 0.62127 0.90882 0.38649 0.0
Mg78 Mg 0.90891 0.35669 0.61763 0.0
C79 C 0.96261 0.38432 0.66716 0.0
O80 O 0.95085 0.36117 0.68777 0.0
C81 C 0.89502 0.29809 0.6631 0.0
O82 O 0.88298 0.32298 0.68166 0.0
C83 C 0.94175 0.33868 0.55396 0.0
O84 O 0.96137 0.32537 0.57743 0.0
O85 O 0.9152 0.35453 0.56314 0.0
O86 O 0.95008 0.38705 0.63758 0.0
O87 O 0.85995 0.37612 0.63445 0.0
C88 C 0.85888 0.3941 0.66121 0.0
O89 O 0.88749 0.40476 0.67449 0.0
O90 O 0.91009 0.30501 0.63561 0.0
Mg91 Mg 0.35644 0.1267 0.34045 0.0
C92 C 0.36422 0.17003 0.28201 0.0
O93 O 0.3724 0.13954 0.27137 0.0
C94 C 0.32543 0.10668 0.40601 0.0
O95 O 0.3123 0.08427 0.38516 0.0
C96 C 0.2949 0.10335 0.29684 0.0
O97 O 0.27823 0.08075 0.27897 0.0
O98 O 0.32125 0.09404 0.31313 0.0
O99 O 0.35739 0.17412 0.31317 0.0
O100 O 0.40584 0.10215 0.33891 0.0
C101 C 0.40639 0.07021 0.34266 0.0
O102 O 0.37749 0.05418 0.34603 0.0
O103 O 0.34381 0.13001 0.39389 0.0
Mg104 Mg 0.28315 0.34383 0.02316 0.0
C105 C 0.35196 0.33546 0.99976 0.0
O106 O 0.35429 0.35178 0.02872 0.0
C107 C 0.22531 0.29482 0.02776 0.0
O108 O 0.25017 0.27464 0.03708 0.0
C109 C 0.29154 0.41531 0.9964 0.0
O110 O 0.30753 0.39947 0.97187 0.0
O111 O 0.27921 0.39834 0.02069 0.0
O112 O 0.32273 0.32739 0.98882 0.0
O113 O 0.29796 0.32979 0.07442 0.0
C114 C 0.31401 0.30222 0.07904 0.0
O115 O 0.32188 0.28352 0.05261 0.0
O116 O 0.23262 0.32372 0.01587 0.0
Mg117 Mg 0.31658 0.72486 0.93611 0.0
C118 C 0.25438 0.76357 0.91296 0.0
O119 O 0.27727 0.78518 0.90254 0.0
C120 C 0.36913 0.75744 0.98415 0.0
O121 O 0.37081 0.78131 0.96114 0.0
C122 C 0.37186 0.74995 0.88699 0.0
O123 O 0.39361 0.73681 0.90859 0.0
O124 O 0.34028 0.74632 0.89183 0.0
O125 O 0.26355 0.73959 0.93241 0.0
O126 O 0.31341 0.67023 0.93691 0.0
C127 C 0.29553 0.66139 0.9621 0.0
O128 O 0.28261 0.68519 0.98153 0.0
O129 O 0.3462 0.73504 0.98162 0.0
Mg130 Mg 0.61625 0.61781 0.13951 0.0
C131 C 0.55518 0.64667 0.10591 0.0
O132 O 0.54349 0.61901 0.12 0.0
C133 C 0.6936 0.61995 0.13283 0.0
O134 O 0.68793 0.60026 0.10656 0.0
C135 C 0.63492 0.54398 0.1242 0.0
O136 O 0.65319 0.54749 0.15189 0.0
O137 O 0.61609 0.56839 0.11461 0.0
O138 O 0.58663 0.65323 0.10888 0.0
O139 O 0.59667 0.61951 0.19098 0.0
C140 C 0.58434 0.64795 0.19993 0.0
O141 O 0.57993 0.6713 0.17671 0.0
O142 O 0.66855 0.63273 0.14852 0.0
Mg143 Mg 0.65273 0.31955 0.89083 0.0
C144 C 0.69983 0.35712 0.84429 0.0
O145 O 0.71675 0.36021 0.87287 0.0
C146 C 0.58478 0.31083 0.91899 0.0
O147 O 0.60488 0.30601 0.94519 0.0
C148 C 0.70123 0.25883 0.89921 0.0
O149 O 0.72302 0.28196 0.90902 0.0
O150 O 0.67108 0.26766 0.89183 0.0
O151 O 0.67136 0.3422 0.8445 0.0
O152 O 0.66584 0.34965 0.93544 0.0
C153 C 0.64902 0.37695 0.93932 0.0
O154 O 0.62706 0.38568 0.91575 0.0
O155 O 0.59793 0.31694 0.89036 0.0
H156 H 0.18901 0.26061 0.22838 0.0
H157 H 0.19577 0.30324 0.32947 0.0
H158 H 0.23562 0.25756 0.346 0.0
H159 H 0.18517 0.17638 0.25549 0.0
H160 H 0.20865 0.1593 0.22023 0.0
H161 H 0.1847 0.19779 0.21526 0.0
H162 H 0.23878 0.22783 0.19462 0.0
H163 H 0.26364 0.18991 0.20056 0.0
H164 H 0.27575 0.22867 0.22131 0.0
H165 H 0.27043 0.20465 0.3529 0.0
H166 H 0.29541 0.1473 0.35042 0.0
H167 H 0.26476 0.13828 0.24532 0.0
C168 C 0.19961 0.26081 0.2537 0.0
C169 C 0.18983 0.28569 0.27753 0.0
C170 C 0.20323 0.28451 0.3108 0.0
C171 C 0.22594 0.25877 0.32034 0.0
C172 C 0.23467 0.23425 0.29638 0.0
C173 C 0.22173 0.23494 0.26379 0.0
C174 C 0.23207 0.20367 0.244 0.0
C175 C 0.20079 0.18308 0.23312 0.0
C176 C 0.25386 0.21306 0.21329 0.0
C177 C 0.25267 0.18515 0.27064 0.0
C178 C 0.25418 0.20338 0.30055 0.0
C179 C 0.26997 0.19045 0.32942 0.0
C180 C 0.28427 0.15792 0.32778 0.0
C181 C 0.28271 0.13874 0.29754 0.0
C182 C 0.26679 0.15267 0.26863 0.0
H183 H 0.25551 0.86631 0.58784 0.0
H184 H 0.34512 0.80381 0.60207 0.0
H185 H 0.30896 0.75289 0.6041 0.0
H186 H 0.2061 0.82599 0.64574 0.0
H187 H 0.16687 0.82974 0.62245 0.0
H188 H 0.19995 0.86014 0.61613 0.0
H189 H 0.19985 0.84719 0.55171 0.0
H190 H 0.16644 0.81685 0.55778 0.0
H191 H 0.20525 0.80419 0.53727 0.0
H192 H 0.26206 0.71003 0.61297 0.0
H193 H 0.20912 0.6794 0.62622 0.0
H194 H 0.15113 0.7707 0.60581 0.0
C195 C 0.26771 0.84185 0.59041 0.0
C196 C 0.30317 0.83905 0.59467 0.0
C197 C 0.31802 0.80656 0.59847 0.0
C198 C 0.29767 0.77749 0.59967 0.0
C199 C 0.26261 0.78134 0.59666 0.0
C200 C 0.24784 0.81274 0.59169 0.0
C201 C 0.20958 0.81076 0.59232 0.0
C202 C 0.19478 0.83295 0.62086 0.0
C203 C 0.19439 0.8203 0.5577 0.0
C204 C 0.20502 0.77355 0.5996 0.0
C205 C 0.23579 0.75681 0.60167 0.0
C206 C 0.23781 0.72276 0.61077 0.0
C207 C 0.20762 0.70558 0.61832 0.0
C208 C 0.17596 0.72259 0.6169 0.0
C209 C 0.17483 0.75681 0.60678 0.0
H210 H 0.73709 0.83744 0.32835 0.0
H211 H 0.78869 0.89852 0.40397 0.0
H212 H 0.84383 0.8776 0.3831 0.0
H213 H 0.78524 0.76729 0.3374 0.0
H214 H 0.78587 0.75509 0.29337 0.0
H215 H 0.75133 0.78004 0.30938 0.0
H216 H 0.76275 0.82573 0.2639 0.0
H217 H 0.79747 0.80073 0.24771 0.0
H218 H 0.80442 0.84396 0.26055 0.0
H219 H 0.89178 0.84177 0.36203 0.0
H220 H 0.92817 0.79488 0.34183 0.0
H221 H 0.84585 0.75904 0.27821 0.0
C222 C 0.76001 0.84726 0.33985 0.0
C223 C 0.75855 0.86964 0.36778 0.0
C224 C 0.78913 0.8815 0.38243 0.0
C225 C 0.82062 0.86984 0.37065 0.0
C226 C 0.82113 0.8468 0.34384 0.0
C227 C 0.79159 0.83601 0.32829 0.0
C228 C 0.79863 0.80836 0.30262 0.0
C229 C 0.77914 0.77579 0.31124 0.0
C230 C 0.79033 0.82043 0.26655 0.0
C231 C 0.83645 0.80388 0.30755 0.0
C232 C 0.84912 0.82665 0.33102 0.0
C233 C 0.88242 0.82447 0.3429 0.0
C234 C 0.90292 0.79775 0.33132 0.0
C235 C 0.89001 0.77361 0.3081 0.0
C236 C 0.85679 0.77762 0.2952 0.0
H237 H 0.8494 0.27673 0.71018 0.0
H238 H 0.91709 0.24014 0.63159 0.0
H239 H 0.89344 0.18273 0.63782 0.0
H240 H 0.84913 0.1985 0.76241 0.0
H241 H 0.8048 0.20351 0.77223 0.0
H242 H 0.83071 0.24024 0.76516 0.0
H243 H 0.78877 0.26036 0.71865 0.0
H244 H 0.76302 0.22353 0.72517 0.0
H245 H 0.77917 0.23266 0.68355 0.0
H246 H 0.8581 0.13104 0.64817 0.0
H247 H 0.81502 0.08851 0.66315 0.0
H248 H 0.76978 0.15972 0.73392 0.0
C249 C 0.86001 0.25648 0.69495 0.0
C250 C 0.88524 0.26286 0.67052 0.0
C251 C 0.89788 0.23578 0.65059 0.0
C252 C 0.88461 0.20309 0.65395 0.0
C253 C 0.85883 0.19797 0.67741 0.0
C254 C 0.84689 0.22385 0.6978 0.0
C255 C 0.81717 0.21248 0.71899 0.0
C256 C 0.826 0.21375 0.75695 0.0
C257 C 0.78516 0.23351 0.7111 0.0
C258 C 0.81364 0.17642 0.70663 0.0
C259 C 0.83812 0.16838 0.68296 0.0
C260 C 0.83907 0.13691 0.66698 0.0
C261 C 0.81441 0.11298 0.67555 0.0
C262 C 0.78901 0.12081 0.69966 0.0
C263 C 0.78885 0.15293 0.71541 0.0
H264 H 0.34524 0.24305 0.09643 0.0
H265 H 0.30114 0.33409 0.1398 0.0
H266 H 0.31324 0.3123 0.19736 0.0
H267 H 0.31129 0.18674 0.1556 0.0
H268 H 0.34785 0.15925 0.15645 0.0
H269 H 0.33831 0.18338 0.11902 0.0
H270 H 0.39826 0.20993 0.12093 0.0
H271 H 0.40816 0.18581 0.15837 0.0
H272 H 0.41236 0.23121 0.15889 0.0
H273 H 0.32743 0.27834 0.25046 0.0
H274 H 0.34047 0.23472 0.29358 0.0
H275 H 0.37525 0.16703 0.2141 0.0
C276 C 0.33849 0.2587 0.11795 0.0
C277 C 0.32244 0.29037 0.11359 0.0
C278 C 0.31364 0.3098 0.14253 0.0
C279 C 0.32048 0.29767 0.1753 0.0
C280 C 0.33624 0.26619 0.17864 0.0
C281 C 0.34504 0.24702 0.15065 0.0
C282 C 0.35986 0.21322 0.16076 0.0
C283 C 0.33802 0.18393 0.14716 0.0
C284 C 0.39686 0.20987 0.14904 0.0
C285 C 0.35765 0.21606 0.19885 0.0
C286 C 0.34432 0.24688 0.20885 0.0
C287 C 0.33843 0.25436 0.24291 0.0
C288 C 0.34589 0.22945 0.26721 0.0
C289 C 0.35919 0.19759 0.25724 0.0
C290 C 0.36546 0.19121 0.22264 0.0
H291 H 0.21825 0.70608 0.90162 0.0
H292 H 0.2201 0.81309 0.87814 0.0
H293 H 0.17487 0.80447 0.83541 0.0
H294 H 0.21689 0.68027 0.82091 0.0
H295 H 0.19028 0.64378 0.8266 0.0
H296 H 0.21509 0.65942 0.86142 0.0
H297 H 0.161 0.66548 0.89797 0.0
H298 H 0.13588 0.64944 0.86325 0.0
H299 H 0.12547 0.68969 0.88223 0.0
H300 H 0.1365 0.78257 0.7889 0.0
H301 H 0.11213 0.74941 0.74142 0.0
H302 H 0.1391 0.65651 0.79314 0.0
C303 C 0.20801 0.72802 0.8887 0.0
C304 C 0.2222 0.76041 0.89372 0.0
C305 C 0.20917 0.78817 0.87511 0.0
C306 C 0.18344 0.78348 0.85081 0.0
C307 C 0.17113 0.75085 0.84529 0.0
C308 C 0.18301 0.72359 0.86386 0.0
C309 C 0.17025 0.69043 0.84947 0.0
C310 C 0.19989 0.66715 0.83897 0.0
C311 C 0.14674 0.67272 0.87474 0.0
C312 C 0.15066 0.70308 0.81899 0.0
C313 C 0.1505 0.73802 0.8175 0.0
C314 C 0.13597 0.75523 0.79017 0.0
C315 C 0.12212 0.73622 0.76333 0.0
C316 C 0.12369 0.70044 0.76372 0.0
C317 C 0.13734 0.68385 0.79233 0.0
H318 H 0.55793 0.70614 0.22581 0.0
H319 H 0.60907 0.61337 0.25527 0.0
H320 H 0.6184 0.63693 0.3126 0.0
H321 H 0.61353 0.75905 0.26126 0.0
H322 H 0.58371 0.79087 0.27503 0.0
H323 H 0.5734 0.76404 0.23975 0.0
H324 H 0.51837 0.7449 0.26961 0.0
H325 H 0.52828 0.77211 0.305 0.0
H326 H 0.52063 0.72773 0.31181 0.0
H327 H 0.63236 0.67478 0.36211 0.0
H328 H 0.64802 0.72247 0.39953 0.0
H329 H 0.58784 0.79042 0.33726 0.0
C330 C 0.56993 0.69022 0.24468 0.0
C331 C 0.58267 0.65788 0.23608 0.0
C332 C 0.59875 0.63808 0.26136 0.0
C333 C 0.60419 0.6513 0.29402 0.0
C334 C 0.59295 0.6841 0.30107 0.0
C335 C 0.57563 0.70308 0.2772 0.0
C336 C 0.57002 0.73905 0.28926 0.0
C337 C 0.58614 0.76473 0.26489 0.0
C338 C 0.53207 0.74637 0.29422 0.0
C339 C 0.58855 0.73798 0.32284 0.0
C340 C 0.60105 0.70595 0.3296 0.0
C341 C 0.62198 0.69974 0.35748 0.0
C342 C 0.63084 0.72704 0.37856 0.0
C343 C 0.61905 0.76019 0.37145 0.0
C344 C 0.59689 0.76534 0.34373 0.0
H345 H 0.76107 0.38814 0.83518 0.0
H346 H 0.67416 0.3491 0.78002 0.0
H347 H 0.70289 0.36122 0.72596 0.0
H348 H 0.78335 0.45563 0.77409 0.0
H349 H 0.82816 0.44897 0.78045 0.0
H350 H 0.79898 0.44119 0.81454 0.0
H351 H 0.82229 0.38 0.82026 0.0
H352 H 0.85148 0.38763 0.78631 0.0
H353 H 0.82246 0.35261 0.78364 0.0
H354 H 0.74417 0.37076 0.67824 0.0
H355 H 0.79417 0.37749 0.64128 0.0
H356 H 0.85301 0.41192 0.72778 0.0
C357 C 0.74772 0.38281 0.81176 0.0
C358 C 0.7153 0.36775 0.81189 0.0
C359 C 0.69893 0.36079 0.78061 0.0
C360 C 0.71503 0.36765 0.74974 0.0
C361 C 0.74732 0.38183 0.75054 0.0
C362 C 0.76334 0.3896 0.78078 0.0
C363 C 0.79897 0.40231 0.77491 0.0
C364 C 0.80256 0.43922 0.78669 0.0
C365 C 0.82534 0.37926 0.7923 0.0
C366 C 0.8009 0.39952 0.73672 0.0
C367 C 0.7708 0.38792 0.72304 0.0
C368 C 0.76763 0.38052 0.68859 0.0
C369 C 0.79616 0.38442 0.66778 0.0
C370 C 0.82741 0.39562 0.68151 0.0
C371 C 0.82935 0.40404 0.71628 0.0
H372 H 0.34687 0.87406 0.73044 0.0
H373 H 0.45192 0.90412 0.74338 0.0
H374 H 0.45703 0.86618 0.79269 0.0
H375 H 0.32742 0.86602 0.82125 0.0
H376 H 0.30043 0.82998 0.81417 0.0
H377 H 0.30455 0.86175 0.78184 0.0
H378 H 0.3225 0.81527 0.73898 0.0
H379 H 0.31912 0.78347 0.77131 0.0
H380 H 0.35834 0.78845 0.74863 0.0
H381 H 0.45206 0.82095 0.8375 0.0
H382 H 0.43535 0.77681 0.87838 0.0
H383 H 0.33366 0.77699 0.8358 0.0
C384 C 0.37076 0.87327 0.74404 0.0
C385 C 0.39899 0.89207 0.73299 0.0
C386 C 0.42987 0.89006 0.75141 0.0
C387 C 0.43309 0.86845 0.77937 0.0
C388 C 0.40514 0.84926 0.78875 0.0
C389 C 0.37439 0.85192 0.772 0.0
C390 C 0.34848 0.82795 0.78656 0.0
C391 C 0.31845 0.8476 0.80187 0.0
C392 C 0.33642 0.80227 0.75977 0.0
C393 C 0.3696 0.81101 0.81375 0.0
C394 C 0.40223 0.82353 0.81462 0.0
C395 C 0.42648 0.81116 0.83726 0.0
C396 C 0.41684 0.78591 0.86019 0.0
C397 C 0.38322 0.77346 0.86031 0.0
C398 C 0.35956 0.78599 0.83643 0.0
H399 H 0.7129 0.65197 0.19184 0.0
H400 H 0.75229 0.59237 0.10804 0.0
H401 H 0.80825 0.59018 0.13611 0.0
H402 H 0.79029 0.70075 0.20763 0.0
H403 H 0.78467 0.70057 0.25291 0.0
H404 H 0.74824 0.69919 0.22528 0.0
H405 H 0.72812 0.64455 0.25498 0.0
H406 H 0.76468 0.6455 0.28242 0.0
H407 H 0.75616 0.60846 0.25709 0.0
H408 H 0.85892 0.59182 0.17432 0.0
H409 H 0.90251 0.60074 0.2183 0.0
H410 H 0.83047 0.65909 0.27774 0.0
C411 C 0.73341 0.63892 0.17908 0.0
C412 C 0.72815 0.62238 0.14762 0.0
C413 C 0.75566 0.60533 0.13202 0.0
C414 C 0.78753 0.60384 0.14783 0.0
C415 C 0.79157 0.61961 0.1792 0.0
C416 C 0.76542 0.63718 0.19452 0.0
C417 C 0.77639 0.65138 0.22859 0.0
C418 C 0.77481 0.69028 0.22858 0.0
C419 C 0.75506 0.63658 0.25747 0.0
C420 C 0.8127 0.63873 0.23016 0.0
C421 C 0.82087 0.62047 0.20139 0.0
C422 C 0.85287 0.60621 0.19689 0.0
C423 C 0.87744 0.61134 0.2221 0.0
C424 C 0.86994 0.63054 0.25154 0.0
C425 C 0.83693 0.64403 0.25572 0.0
H426 H 0.6915 0.08224 0.80517 0.0
H427 H 0.79799 0.06825 0.82953 0.0
H428 H 0.79545 0.11744 0.86816 0.0
H429 H 0.69473 0.16746 0.79781 0.0
H430 H 0.65361 0.17653 0.81553 0.0
H431 H 0.66153 0.13629 0.79573 0.0
H432 H 0.64363 0.10525 0.85049 0.0
H433 H 0.63513 0.14548 0.87044 0.0
H434 H 0.66382 0.1158 0.89017 0.0
H435 H 0.78377 0.17349 0.89637 0.0
H436 H 0.76345 0.23038 0.91302 0.0
H437 H 0.66476 0.20772 0.86974 0.0
C438 C 0.71397 0.0886 0.81965 0.0
C439 C 0.74489 0.07114 0.81452 0.0
C440 C 0.77394 0.08103 0.83325 0.0
C441 C 0.77274 0.10897 0.85527 0.0
C442 C 0.74223 0.12664 0.85849 0.0
C443 C 0.71325 0.11656 0.84148 0.0
C444 C 0.68476 0.14196 0.84607 0.0
C445 C 0.673 0.1564 0.81176 0.0
C446 C 0.65508 0.12617 0.86546 0.0
C447 C 0.70257 0.1685 0.86727 0.0
C448 C 0.73556 0.15906 0.87458 0.0
C449 C 0.75776 0.18082 0.89141 0.0
C450 C 0.74602 0.21316 0.90068 0.0
C451 C 0.71244 0.2235 0.89291 0.0
C452 C 0.6904 0.20049 0.87655 0.0
H453 H 0.20585 0.24749 0.07379 0.0
H454 H 0.16782 0.33174 0.0145 0.0
H455 H 0.11713 0.33458 0.05056 0.0
H456 H 0.11781 0.21201 0.10044 0.0
H457 H 0.13476 0.20215 0.14174 0.0
H458 H 0.16141 0.1988 0.10485 0.0
H459 H 0.20492 0.23892 0.13328 0.0
H460 H 0.1783 0.24246 0.1697 0.0
H461 H 0.19111 0.28011 0.14763 0.0
H462 H 0.08165 0.34023 0.10144 0.0
H463 H 0.06256 0.3455 0.1607 0.0
H464 H 0.12186 0.25696 0.18742 0.0
C465 C 0.18599 0.26532 0.06725 0.0
C466 C 0.19083 0.28941 0.04137 0.0
C467 C 0.16464 0.31294 0.03413 0.0
C468 C 0.13565 0.31468 0.05448 0.0
C469 C 0.13294 0.29238 0.08164 0.0
C470 C 0.15708 0.26754 0.0876 0.0
C471 C 0.15156 0.25073 0.12158 0.0
C472 C 0.14072 0.21373 0.11685 0.0
C473 C 0.18335 0.25328 0.14434 0.0
C474 C 0.1226 0.27203 0.13511 0.0
C475 C 0.11156 0.29531 0.11133 0.0
C476 C 0.08907 0.32131 0.11982 0.0
C477 C 0.07845 0.32424 0.15357 0.0
C478 C 0.09026 0.30126 0.17837 0.0
C479 C 0.11147 0.2741 0.16866 0.0
H480 H 0.99969 0.31089 0.52836 0.0
H481 H 0.90681 0.36199 0.49811 0.0
H482 H 0.92574 0.36061 0.4384 0.0
H483 H 0.05364 0.35505 0.47451 0.0
H484 H 0.0808 0.31937 0.46549 0.0
H485 H 0.05826 0.32142 0.50496 0.0
H486 H 0.03119 0.26304 0.49236 0.0
H487 H 0.05367 0.26082 0.45276 0.0
H488 H 0.00818 0.25672 0.45332 0.0
H489 H 0.95701 0.35684 0.38241 0.0
H490 H 0.99844 0.35295 0.33571 0.0
H491 H 0.07062 0.30485 0.4037 0.0
C492 C 0.98302 0.32139 0.50919 0.0
C493 C 0.95169 0.33645 0.5179 0.0
C494 C 0.93088 0.35023 0.49201 0.0
C495 C 0.94138 0.34946 0.45803 0.0
C496 C 0.97266 0.33473 0.45043 0.0
C497 C 0.99312 0.32092 0.47534 0.0
C498 C 0.02648 0.30852 0.46108 0.0
C499 C 0.05656 0.32722 0.47748 0.0
C500 C 0.03007 0.26998 0.46512 0.0
C501 C 0.02203 0.31819 0.42432 0.0
C502 C 0.99068 0.33289 0.4185 0.0
C503 C 0.98149 0.34509 0.38665 0.0
C504 C 0.00519 0.34274 0.36026 0.0
C505 C 0.03778 0.32856 0.36602 0.0
C506 C 0.04589 0.31566 0.39838 0.0
H507 H 0.29491 0.05443 0.43871 0.0
H508 H 0.35428 0.1449 0.45673 0.0
H509 H 0.3608 0.12884 0.51683 0.0
H510 H 0.25463 0.0495 0.52547 0.0
H511 H 0.25804 0.004 0.52522 0.0
H512 H 0.25146 0.02652 0.48607 0.0
H513 H 0.30495 0.99773 0.46093 0.0
H514 H 0.3118 0.97538 0.49987 0.0
H515 H 0.34491 0.00159 0.48292 0.0
H516 H 0.36978 0.09774 0.5716 0.0
H517 H 0.38061 0.05454 0.61545 0.0
H518 H 0.31542 0.98449 0.5613 0.0
C519 C 0.30827 0.07154 0.45551 0.0
C520 C 0.32397 0.10098 0.44302 0.0
C521 C 0.34182 0.12231 0.46576 0.0
C522 C 0.34558 0.11343 0.49999 0.0
C523 C 0.33102 0.08338 0.51115 0.0
C524 C 0.31236 0.06295 0.4896 0.0
C525 C 0.30306 0.02992 0.50637 0.0
C526 C 0.2645 0.02735 0.51107 0.0
C527 C 0.31704 0.99939 0.48634 0.0
C528 C 0.32099 0.03407 0.54005 0.0
C529 C 0.33634 0.06535 0.54271 0.0
C530 C 0.35722 0.0735 0.57013 0.0
C531 C 0.36326 0.04875 0.59493 0.0
C532 C 0.3488 0.01613 0.59188 0.0
C533 C 0.32653 0.00929 0.56462 0.0
H534 H 0.03806 0.6581 0.56591 0.0
H535 H 0.96661 0.71743 0.62499 0.0
H536 H 0.92877 0.72145 0.57493 0.0
H537 H 0.0286 0.70266 0.48875 0.0
H538 H 0.03207 0.66545 0.46246 0.0
H539 H 0.05262 0.66655 0.50323 0.0
H540 H 0.02095 0.61197 0.52055 0.0
H541 H 1.00016 0.6108 0.47984 0.0
H542 H 0.97532 0.61083 0.51806 0.0
H543 H 0.90028 0.72133 0.51701 0.0
H544 H 0.88355 0.71686 0.45672 0.0
H545 H 0.97308 0.65583 0.43687 0.0
C546 C 0.01443 0.67193 0.56845 0.0
C547 C 0.00536 0.68759 0.5994 0.0
C548 C 0.9741 0.70523 0.60158 0.0
C549 C 0.95244 0.7076 0.57329 0.0
C550 C 0.96224 0.69187 0.54315 0.0
C551 C 0.99246 0.67424 0.54068 0.0
C552 C 0.99749 0.65998 0.50541 0.0
C553 C 0.02959 0.67454 0.489 0.0
C554 C 0.99853 0.62109 0.50602 0.0
C555 C 0.96567 0.67285 0.48812 0.0
C556 C 0.94557 0.69112 0.51028 0.0
C557 C 0.91567 0.70678 0.49957 0.0
C558 C 0.90636 0.70408 0.46527 0.0
C559 C 0.92682 0.68577 0.44209 0.0
C560 C 0.95657 0.66957 0.45398 0.0
H561 H 0.74727 0.96874 0.63547 0.0
H562 H 0.69465 0.89237 0.69353 0.0
H563 H 0.67803 0.86363 0.64016 0.0
H564 H 0.68448 0.97813 0.57642 0.0
H565 H 0.712 0.9859 0.54097 0.0
H566 H 0.72583 0.99627 0.58316 0.0
H567 H 0.77928 0.95861 0.5759 0.0
H568 H 0.76602 0.94855 0.53332 0.0
H569 H 0.77461 0.91506 0.56307 0.0
H570 H 0.66262 0.84664 0.57965 0.0
H571 H 0.64842 0.8442 0.51843 0.0
H572 H 0.70733 0.935 0.50185 0.0
C573 C 0.73344 0.9452 0.63716 0.0
C574 C 0.72287 0.93238 0.66875 0.0
C575 C 0.70353 0.90228 0.66962 0.0
C576 C 0.69392 0.88586 0.63944 0.0
C577 C 0.70362 0.90007 0.60865 0.0
C578 C 0.72302 0.92909 0.60742 0.0
C579 C 0.72657 0.94191 0.57156 0.0
C580 C 0.7113 0.97765 0.56783 0.0
C581 C 0.76384 0.94096 0.5603 0.0
C582 C 0.70572 0.91593 0.55274 0.0
C583 C 0.69316 0.8916 0.57434 0.0
C584 C 0.67254 0.86546 0.56252 0.0
C585 C 0.66456 0.86429 0.52778 0.0
C586 C 0.6766 0.88953 0.50552 0.0
C587 C 0.69756 0.91547 0.51829 0.0
H588 H 0.41497 0.00178 0.34791 0.0
H589 H 0.47115 0.09585 0.34358 0.0
H590 H 0.52478 0.06396 0.35121 0.0
H591 H 0.46369 0.96309 0.41202 0.0
H592 H 0.46131 0.92121 0.39397 0.0
H593 H 0.42783 0.95129 0.38615 0.0
H594 H 0.43572 0.94367 0.3214 0.0
H595 H 0.46918 0.91343 0.32902 0.0
H596 H 0.47698 0.94999 0.30306 0.0
H597 H 0.57216 0.02142 0.36223 0.0
H598 H 0.60895 0.9721 0.37479 0.0
H599 H 0.52091 0.90663 0.37158 0.0
C600 C 0.43853 0.01575 0.34826 0.0
C601 C 0.43884 0.05134 0.34515 0.0
C602 C 0.47028 0.06857 0.34581 0.0
C603 C 0.50086 0.05067 0.35015 0.0
C604 C 0.49955 0.01558 0.35357 0.0
C605 C 0.46916 0.99834 0.35245 0.0
C606 C 0.47437 0.96075 0.35755 0.0
C607 C 0.4557 0.94838 0.38932 0.0
C608 C 0.46342 0.94079 0.32587 0.0
C609 C 0.5124 0.95952 0.36238 0.0
C610 C 0.52658 0.99131 0.3598 0.0
C611 C 0.56132 0.99639 0.36408 0.0
C612 C 0.58201 0.96823 0.37124 0.0
C613 C 0.56786 0.93547 0.37416 0.0
C614 C 0.5326 0.93127 0.36947 0.0
H615 H 0.06861 0.55235 0.64769 0.0
H616 H 0.06459 0.56229 0.757 0.0
H617 H 0.04211 0.50414 0.76116 0.0
H618 H 0.99133 0.51409 0.63947 0.0
H619 H 0.00278 0.48644 0.60493 0.0
H620 H 0.02485 0.52569 0.61089 0.0
H621 H 0.08217 0.49344 0.61356 0.0
H622 H 0.06022 0.45397 0.60742 0.0
H623 H 0.08772 0.45955 0.64357 0.0
H624 H 0.01414 0.44764 0.75291 0.0
H625 H 0.97978 0.39935 0.73287 0.0
H626 H 0.99956 0.42802 0.62881 0.0
C627 C 0.06411 0.54184 0.67256 0.0
C628 C 0.06878 0.56153 0.70208 0.0
C629 C 0.06143 0.54743 0.73412 0.0
C630 C 0.04881 0.5144 0.73672 0.0
C631 C 0.04355 0.49594 0.70702 0.0
C632 C 0.05094 0.50921 0.67552 0.0
C633 C 0.03892 0.48612 0.64732 0.0
C634 C 0.01293 0.50416 0.62433 0.0
C635 C 0.06906 0.47246 0.62676 0.0
C636 C 0.02258 0.45838 0.6678 0.0
C637 C 0.0262 0.46403 0.70218 0.0
C638 C 0.01153 0.44272 0.72605 0.0
C639 C 0.99207 0.41535 0.71443 0.0
C640 C 0.98699 0.40997 0.6793 0.0
C641 C 0.00309 0.43141 0.65583 0.0
H642 H 0.60528 0.97444 0.71285 0.0
H643 H 0.63772 0.04936 0.63982 0.0
H644 H 0.58898 0.03457 0.60295 0.0
H645 H 0.57897 0.91227 0.65153 0.0
H646 H 0.54358 0.89818 0.67647 0.0
H647 H 0.5807 0.91502 0.69709 0.0
H648 H 0.54366 0.95965 0.72819 0.0
H649 H 0.50643 0.94261 0.70806 0.0
H650 H 0.51613 0.98691 0.70386 0.0
H651 H 0.53491 0.01263 0.57531 0.0
H652 H 0.48014 0.98624 0.55995 0.0
H653 H 0.4864 0.92362 0.64993 0.0
C654 C 0.60203 0.98802 0.68926 0.0
C655 C 0.62506 0.01332 0.67935 0.0
C656 C 0.6202 0.03003 0.64799 0.0
C657 C 0.59271 0.0217 0.62685 0.0
C658 C 0.57068 0.9963 0.63727 0.0
C659 C 0.57515 0.9797 0.66774 0.0
C660 C 0.54816 0.95326 0.67319 0.0
C661 C 0.5638 0.91757 0.67464 0.0
C662 C 0.52737 0.9611 0.70521 0.0
C663 C 0.52728 0.95805 0.64137 0.0
C664 C 0.54062 0.98289 0.62086 0.0
C665 C 0.52445 0.99289 0.59101 0.0
C666 C 0.49341 0.9777 0.58244 0.0
C667 C 0.47903 0.95272 0.6036 0.0
C668 C 0.49679 0.94231 0.63294 0.0
H669 H 1.00067 0.60547 0.27308 0.0
H670 H 0.06546 0.6281 0.35923 0.0
H671 H 0.10002 0.57739 0.34647 0.0
H672 H 0.99516 0.52144 0.28773 0.0
H673 H 0.99492 0.50799 0.24406 0.0
H674 H 0.98004 0.54958 0.25507 0.0
H675 H 0.02307 0.57626 0.21368 0.0
H676 H 0.03796 0.53459 0.20221 0.0
H677 H 0.06747 0.56588 0.21747 0.0
H678 H 0.12172 0.51977 0.3299 0.0
H679 H 0.12831 0.46037 0.31136 0.0
H680 H 0.04839 0.4751 0.23688 0.0
C681 C 0.02287 0.60054 0.28855 0.0
C682 C 0.03052 0.62095 0.31701 0.0
C683 C 0.05925 0.61299 0.33714 0.0
C684 C 0.07909 0.58426 0.33004 0.0
C685 C 0.06995 0.56385 0.30262 0.0
C686 C 0.04265 0.57183 0.28202 0.0
C687 C 0.03543 0.54376 0.25684 0.0
C688 C 0.99926 0.52988 0.26122 0.0
C689 C 0.04135 0.55585 0.22039 0.0
C690 C 0.06195 0.51808 0.26745 0.0
C691 C 0.08208 0.53036 0.29342 0.0
C692 C 0.10654 0.51014 0.30914 0.0
C693 C 0.11005 0.47638 0.29847 0.0
C694 C 0.08894 0.46306 0.27259 0.0
C695 C 0.06519 0.48456 0.25646 0.0
H696 H 0.31975 0.46036 0.95171 0.0
H697 H 0.25424 0.45438 0.0397 0.0
H698 H 0.24724 0.51632 0.03902 0.0
H699 H 0.36223 0.53661 0.9766 0.0
H700 H 0.36473 0.55324 0.93422 0.0
H701 H 0.364 0.50818 0.94084 0.0
H702 H 0.31192 0.5032 0.90094 0.0
H703 H 0.31245 0.54826 0.89424 0.0
H704 H 0.27453 0.52816 0.90945 0.0
H705 H 0.24758 0.57816 0.02961 0.0
H706 H 0.25619 0.6373 0.01291 0.0
H707 H 0.322 0.60431 0.93108 0.0
C708 C 0.30383 0.47207 0.97076 0.0
C709 C 0.28748 0.45249 0.99573 0.0
C710 C 0.26704 0.46881 0.02033 0.0
C711 C 0.26283 0.50398 0.02013 0.0
C712 C 0.27929 0.52249 0.99522 0.0
C713 C 0.29945 0.50724 0.97102 0.0
C714 C 0.31482 0.53329 0.94756 0.0
C715 C 0.35376 0.5328 0.94997 0.0
C716 C 0.30269 0.5279 0.91088 0.0
C717 C 0.30019 0.56554 0.96249 0.0
C718 C 0.27968 0.55857 0.98988 0.0
C719 C 0.26354 0.58399 0.00819 0.0
C720 C 0.26864 0.61755 0.99846 0.0
C721 C 0.2898 0.62549 0.97067 0.0
C722 C 0.30561 0.59904 0.95234 0.0
H723 H 0.37793 0.70446 0.02796 0.0
H724 H 0.42731 0.79499 0.991 0.0
H725 H 0.47992 0.77826 0.02092 0.0
H726 H 0.42142 0.70077 0.11132 0.0
H727 H 0.42385 0.65524 0.10994 0.0
H728 H 0.38911 0.67692 0.08949 0.0
H729 H 0.40369 0.64652 0.03313 0.0
H730 H 0.43876 0.62519 0.05316 0.0
H731 H 0.44575 0.65039 0.01588 0.0
H732 H 0.52918 0.74801 0.0498 0.0
H733 H 0.56939 0.70874 0.07792 0.0
H734 H 0.48726 0.63813 0.09483 0.0
C735 C 0.39944 0.72135 0.02688 0.0
C736 C 0.39833 0.75118 0.0072 0.0
C737 C 0.42737 0.77216 0.0061 0.0
C738 C 0.45744 0.76279 0.02293 0.0
C739 C 0.45803 0.73248 0.04093 0.0
C740 C 0.4296 0.71232 0.04334 0.0
C741 C 0.43729 0.67992 0.06229 0.0
C742 C 0.4167 0.67812 0.09522 0.0
C743 C 0.43101 0.64868 0.03976 0.0
C744 C 0.47467 0.68459 0.06955 0.0
C745 C 0.48622 0.71511 0.05724 0.0
C746 C 0.52028 0.72423 0.05988 0.0
C747 C 0.54297 0.7017 0.07574 0.0
C748 C 0.53153 0.67035 0.08865 0.0
C749 C 0.49688 0.66192 0.08542 0.0
H750 H 0.61487 0.4354 0.95469 0.0
H751 H 0.68962 0.3652 0.99501 0.0
H752 H 0.69267 0.39906 0.0478 0.0
H753 H 0.65164 0.51091 0.98879 0.0
H754 H 0.61128 0.53058 0.99754 0.0
H755 H 0.61503 0.50054 0.96338 0.0
H756 H 0.56684 0.46484 0.98954 0.0
H757 H 0.5631 0.49466 0.02393 0.0
H758 H 0.57065 0.45052 0.0327 0.0
H759 H 0.68745 0.44123 0.09627 0.0
H760 H 0.6762 0.48899 0.13523 0.0
H761 H 0.60463 0.53103 0.06271 0.0
C762 C 0.63198 0.42709 0.97454 0.0
C763 C 0.65206 0.3976 0.97065 0.0
C764 C 0.67405 0.38771 0.99734 0.0
C765 C 0.67586 0.40673 0.02746 0.0
C766 C 0.6555 0.43554 0.0305 0.0
C767 C 0.63407 0.4457 0.00466 0.0
C768 C 0.61509 0.47779 0.01395 0.0
C769 C 0.6238 0.50666 0.98946 0.0
C770 C 0.57664 0.47156 0.0151 0.0
C771 C 0.62933 0.48433 0.04902 0.0
C772 C 0.65248 0.45962 0.05821 0.0
C773 C 0.66931 0.46065 0.08932 0.0
C774 C 0.66268 0.48788 0.11133 0.0
C775 C 0.63946 0.51379 0.10215 0.0
C776 C 0.62238 0.51161 0.07066 0.0
H777 H 0.41586 0.33192 0.02505 0.0
H778 H 0.35832 0.3208 0.93184 0.0
H779 H 0.41187 0.31129 0.90034 0.0
H780 H 0.48463 0.37673 0.99137 0.0
H781 H 0.51607 0.3561 0.01745 0.0
H782 H 0.47321 0.36041 0.03235 0.0
H783 H 0.46975 0.29551 0.0411 0.0
H784 H 0.51271 0.291 0.02637 0.0
H785 H 0.47913 0.26749 0.00621 0.0
H786 H 0.4729 0.3076 0.87887 0.0
H787 H 0.5351 0.30593 0.8701 0.0
H788 H 0.55074 0.31709 0.9784 0.0
C789 C 0.41443 0.32727 0.99802 0.0
C790 C 0.38306 0.32724 0.98078 0.0
C791 C 0.3822 0.3208 0.94549 0.0
C792 C 0.41244 0.31548 0.92744 0.0
C793 C 0.44308 0.31621 0.94525 0.0
C794 C 0.44413 0.32152 0.97986 0.0
C795 C 0.48004 0.32143 0.99326 0.0
C796 C 0.489 0.3557 0.00955 0.0
C797 C 0.48573 0.2921 0.0182 0.0
C798 C 0.49925 0.31582 0.96073 0.0
C799 C 0.47765 0.31297 0.93321 0.0
C800 C 0.48999 0.30935 0.90032 0.0
C801 C 0.52529 0.30854 0.89556 0.0
C802 C 0.54767 0.31105 0.92361 0.0
C803 C 0.5343 0.31457 0.9565 0.0
loop_
_geom_bond_atom_site_label_1
_geom_bond_atom_site_label_2
_geom_bond_distance
_geom_bond_site_symmetry_2
_ccdc_geom_bond_type
Mg0 O7 2.141 . S
Mg0 O8 2.048 . S
Mg0 O9 2.048 . S
Mg0 O12 2.141 . S
C1 O2 1.313 . S
C1 O8 1.195 . S
O2 C1 1.313 . S
C3 O4 1.245 1_455 S
C3 O12 1.289 . S
O4 C3 1.245 1_655 S
C5 O6 1.245 . S
C5 O7 1.289 . S
O6 C5 1.245 . S
O7 Mg0 2.141 . S
O7 C5 1.289 . S
O8 Mg0 2.048 . S
O8 C1 1.195 . S
O9 Mg0 2.048 . S
O9 C10 1.195 . S
C10 O9 1.195 . S
C10 O11 1.313 1_455 S
O11 C10 1.313 1_655 S
O12 Mg0 2.141 . S
O12 C3 1.289 . S
Mg13 O20 2.141 . S
Mg13 O21 2.048 . S
Mg13 O22 2.048 . S
Mg13 O25 2.141 . S
C14 O15 1.313 . S
C14 O21 1.195 . S
O15 C14 1.313 . S
C16 O17 1.245 1_565 S
C16 O25 1.289 . S
O17 C16 1.245 1_545 S
C18 O19 1.245 . S
C18 O20 1.289 . S
O19 C18 1.245 . S
O20 Mg13 2.141 . S
O20 C18 1.289 . S
O21 Mg13 2.048 . S
O21 C14 1.195 . S
O22 Mg13 2.048 . S
O22 C23 1.195 . S
C23 O22 1.195 . S
C23 O24 1.313 1_565 S
O24 C23 1.313 1_545 S
O25 Mg13 2.141 . S
O25 C16 1.289 . S
Mg26 O33 2.141 . S
Mg26 O34 2.048 . S
Mg26 O35 2.048 . S
Mg26 O38 2.141 . S
C27 O28 1.313 . S
C27 O34 1.195 . S
O28 C27 1.313 . S
C29 O30 1.245 1_655 S
C29 O38 1.289 . S
O30 C29 1.245 1_455 S
C31 O32 1.245 . S
C31 O33 1.289 . S
O32 C31 1.245 . S
O33 Mg26 2.141 . S
O33 C31 1.289 . S
O34 Mg26 2.048 . S
O34 C27 1.195 . S
O35 Mg26 2.048 . S
O35 C36 1.195 . S
C36 O35 1.195 . S
C36 O37 1.313 . S
O37 C36 1.313 . S
O38 Mg26 2.141 . S
O38 C29 1.289 . S
Mg39 O46 2.141 . S
Mg39 O47 2.048 . S
Mg39 O48 2.048 . S
Mg39 O51 2.141 . S
C40 O41 1.313 . S
C40 O47 1.195 1_565 S
O41 C40 1.313 . S
C42 O43 1.245 . S
C42 O51 1.289 . S
O43 C42 1.245 . S
C44 O45 1.245 . S
C44 O46 1.289 1_565 S
O45 C44 1.245 . S
O46 Mg39 2.141 . S
O46 C44 1.289 1_545 S
O47 Mg39 2.048 . S
O47 C40 1.195 1_545 S
O48 Mg39 2.048 . S
O48 C49 1.195 . S
C49 O48 1.195 . S
C49 O50 1.313 . S
O50 C49 1.313 . S
O51 Mg39 2.141 . S
O51 C42 1.289 . S
Mg52 O59 2.141 . S
Mg52 O60 2.048 . S
Mg52 O61 2.048 . S
Mg52 O64 2.141 . S
C53 O54 1.295 1_455 S
C53 O60 1.220 . S
O54 C53 1.295 1_655 S
C55 O56 1.245 . S
C55 O64 1.289 . S
O56 C55 1.245 . S
C57 O58 1.245 . S
C57 O59 1.289 1_655 S
O58 C57 1.245 . S
O59 Mg52 2.141 . S
O59 C57 1.289 1_455 S
O60 Mg52 2.048 . S
O60 C53 1.220 . S
O61 Mg52 2.048 . S
O61 C62 1.195 . S
C62 O61 1.195 . S
C62 O63 1.313 . S
O63 C62 1.313 . S
O64 Mg52 2.141 . S
O64 C55 1.289 . S
Mg65 O72 2.141 . S
Mg65 O73 2.048 . S
Mg65 O74 2.048 . S
Mg65 O77 2.141 1_565 S
C66 O67 1.313 . S
C66 O73 1.195 . S
O67 C66 1.313 . S
C68 O69 1.245 . S
C68 O77 1.289 1_565 S
O69 C68 1.245 . S
C70 O71 1.245 . S
C70 O72 1.289 . S
O71 C70 1.245 . S
O72 Mg65 2.141 . S
O72 C70 1.289 . S
O73 Mg65 2.048 . S
O73 C66 1.195 . S
O74 Mg65 2.048 . S
O74 C75 1.195 . S
C75 O74 1.195 . S
C75 O76 1.313 . S
O76 C75 1.313 . S
O77 Mg65 2.141 1_545 S
O77 C68 1.289 1_545 S
Mg78 O85 2.141 . S
Mg78 O86 2.048 . S
Mg78 O87 2.048 . S
Mg78 O90 2.141 . S
C79 O80 1.313 1_655 S
C79 O86 1.195 . S
O80 C79 1.313 1_455 S
C81 O82 1.245 . S
C81 O90 1.289 . S
O82 C81 1.245 . S
C83 O84 1.245 1_655 S
C83 O85 1.289 . S
O84 C83 1.245 1_455 S
O85 Mg78 2.141 . S
O85 C83 1.289 . S
O86 Mg78 2.048 . S
O86 C79 1.195 . S
O87 Mg78 2.048 . S
O87 C88 1.195 . S
C88 O87 1.195 . S
C88 O89 1.313 . S
O89 C88 1.313 . S
O90 Mg78 2.141 . S
O90 C81 1.289 . S
Mg91 O98 2.141 . S
Mg91 O99 2.048 . S
Mg91 O100 2.048 . S
Mg91 O103 2.141 . S
C92 O93 1.313 . S
C92 O99 1.195 . S
O93 C92 1.313 . S
C94 O95 1.239 1_545 S
C94 O103 1.289 . S
O95 C94 1.239 1_565 S
C96 O97 1.245 . S
C96 O98 1.289 . S
O97 C96 1.245 . S
O98 Mg91 2.141 . S
O98 C96 1.289 . S
O99 Mg91 2.048 . S
O99 C92 1.195 . S
O100 Mg91 2.048 . S
O100 C101 1.195 . S
C101 O100 1.195 . S
C101 O102 1.313 . S
O102 C101 1.313 . S
O103 Mg91 2.141 . S
O103 C94 1.289 . S
Mg104 O111 2.141 . S
Mg104 O112 2.048 . S
Mg104 O113 2.048 . S
Mg104 O116 2.141 . S
C105 O106 1.313 1_554 S
C105 O112 1.195 . S
O106 C105 1.313 1_556 S
C107 O108 1.245 . S
C107 O116 1.289 . S
O108 C107 1.245 . S
C109 O110 1.245 1_554 S
C109 O111 1.289 . S
O110 C109 1.245 1_556 S
O111 Mg104 2.141 . S
O111 C109 1.289 . S
O112 Mg104 2.048 . S
O112 C105 1.195 . S
O113 Mg104 2.048 . S
O113 C114 1.195 . S
C114 O113 1.195 . S
C114 O115 1.313 . S
O115 C114 1.313 . S
O116 Mg104 2.141 . S
O116 C107 1.289 . S
Mg117 O124 2.141 . S
Mg117 O125 2.048 . S
Mg117 O126 2.048 . S
Mg117 O129 2.141 . S
C118 O119 1.313 . S
C118 O125 1.195 . S
O119 C118 1.313 . S
C120 O121 1.245 1_556 S
C120 O129 1.289 . S
O121 C120 1.245 1_554 S
C122 O123 1.245 . S
C122 O124 1.289 . S
O123 C122 1.245 . S
O124 Mg117 2.141 . S
O124 C122 1.289 . S
O125 Mg117 2.048 . S
O125 C118 1.195 . S
O126 Mg117 2.048 . S
O126 C127 1.195 . S
C127 O126 1.195 . S
C127 O128 1.313 1_556 S
O128 C127 1.313 1_554 S
O129 Mg117 2.141 . S
O129 C120 1.289 . S
Mg130 O137 2.141 . S
Mg130 O138 2.048 . S
Mg130 O139 2.048 . S
Mg130 O142 2.141 . S
C131 O132 1.313 1_554 S
C131 O138 1.195 . S
O132 C131 1.313 1_556 S
C133 O134 1.245 . S
C133 O142 1.289 . S
O134 C133 1.245 . S
C135 O136 1.245 1_554 S
C135 O137 1.289 . S
O136 C135 1.245 1_556 S
O137 Mg130 2.141 . S
O137 C135 1.289 . S
O138 Mg130 2.048 . S
O138 C131 1.195 . S
O139 Mg130 2.048 . S
O139 C140 1.195 . S
C140 O139 1.195 . S
C140 O141 1.313 . S
O141 C140 1.313 . S
O142 Mg130 2.141 . S
O142 C133 1.289 . S
Mg143 O150 2.141 . S
Mg143 O151 2.048 . S
Mg143 O152 2.048 . S
Mg143 O155 2.141 . S
C144 O145 1.313 . S
C144 O151 1.195 . S
O145 C144 1.313 . S
C146 O147 1.245 1_556 S
C146 O155 1.289 . S
O147 C146 1.245 1_554 S
C148 O149 1.245 . S
C148 O150 1.289 . S
O149 C148 1.245 . S
O150 Mg143 2.141 . S
O150 C148 1.289 . S
O151 Mg143 2.048 . S
O151 C144 1.195 . S
O152 Mg143 2.048 . S
O152 C153 1.195 . S
C153 O152 1.195 . S
C153 O154 1.313 1_556 S
O154 C153 1.313 1_554 S
O155 Mg143 2.141 . S
O155 C146 1.289 . S
H156 C168 0.930 . S
H157 C170 0.930 . S
H158 C171 0.930 . S
H159 C175 0.959 . S
H160 C175 0.959 . S
H161 C175 0.961 . S
H162 C176 0.960 . S
H163 C176 0.961 . S
H164 C176 0.959 . S
H165 C179 0.929 . S
H166 C180 0.931 . S
H167 C182 0.930 . S
C168 H156 0.930 . S
C168 C169 1.399 . S
C168 C173 1.399 . S
C169 C168 1.399 . S
C169 C170 1.376 . S
C170 H157 0.930 . S
C170 C169 1.376 . S
C170 C171 1.388 . S
C171 H158 0.930 . S
C171 C170 1.388 . S
C171 C172 1.390 . S
C172 C171 1.390 . S
C172 C173 1.394 . S
C172 C178 1.465 . S
C173 C168 1.399 . S
C173 C172 1.394 . S
C173 C174 1.516 . S
C174 C173 1.516 . S
C174 C175 1.502 . S
C174 C176 1.561 . S
C174 C177 1.526 . S
C175 H159 0.959 . S
C175 H160 0.959 . S
C175 H161 0.961 . S
C175 C174 1.502 . S
C176 H162 0.960 . S
C176 H163 0.961 . S
C176 H164 0.959 . S
C176 C174 1.561 . S
C177 C174 1.526 . S
C177 C178 1.396 . S
C177 C182 1.390 . S
C178 C172 1.465 . S
C178 C177 1.396 . S
C178 C179 1.399 . S
C179 H165 0.929 . S
C179 C178 1.399 . S
C179 C180 1.385 . S
C180 H166 0.931 . S
C180 C179 1.385 . S
C180 C181 1.389 . S
C181 C180 1.389 . S
C181 C182 1.387 . S
C182 H167 0.930 . S
C182 C177 1.390 . S
C182 C181 1.387 . S
H183 C195 0.930 . S
H184 C197 0.930 . S
H185 C198 0.930 . S
H186 C202 0.959 . S
H187 C202 0.959 . S
H188 C202 0.961 . S
H189 C203 0.960 . S
H190 C203 0.961 . S
H191 C203 0.959 . S
H192 C206 0.929 . S
H193 C207 0.931 . S
H194 C209 0.930 . S
C195 H183 0.930 . S
C195 C196 1.399 . S
C195 C200 1.399 . S
C196 C195 1.399 . S
C196 C197 1.376 . S
C197 H184 0.930 . S
C197 C196 1.376 . S
C197 C198 1.388 . S
C198 H185 0.930 . S
C198 C197 1.388 . S
C198 C199 1.390 . S
C199 C198 1.390 . S
C199 C200 1.394 . S
C199 C205 1.465 . S
C200 C195 1.399 . S
C200 C199 1.394 . S
C200 C201 1.516 . S
C201 C200 1.516 . S
C201 C202 1.502 . S
C201 C203 1.561 . S
C201 C204 1.526 . S
C202 H186 0.959 . S
C202 H187 0.959 . S
C202 H188 0.961 . S
C202 C201 1.502 . S
C203 H189 0.960 . S
C203 H190 0.961 . S
C203 H191 0.959 . S
C203 C201 1.561 . S
C204 C201 1.526 . S
C204 C205 1.396 . S
C204 C209 1.390 . S
C205 C199 1.465 . S
C205 C204 1.396 . S
C205 C206 1.399 . S
C206 H192 0.929 . S
C206 C205 1.399 . S
C206 C207 1.385 . S
C207 H193 0.931 . S
C207 C206 1.385 . S
C207 C208 1.389 . S
C208 C207 1.389 . S
C208 C209 1.387 . S
C209 H194 0.930 . S
C209 C204 1.390 . S
C209 C208 1.387 . S
H210 C222 0.930 . S
H211 C224 0.930 . S
H212 C225 0.930 . S
H213 C229 0.959 . S
H214 C229 0.959 . S
H215 C229 0.961 . S
H216 C230 0.960 . S
H217 C230 0.961 . S
H218 C230 0.959 . S
H219 C233 0.929 . S
H220 C234 0.931 . S
H221 C236 0.930 . S
C222 H210 0.930 . S
C222 C223 1.399 . S
C222 C227 1.399 . S
C223 C222 1.399 . S
C223 C224 1.376 . S
C224 H211 0.930 . S
C224 C223 1.376 . S
C224 C225 1.388 . S
C225 H212 0.930 . S
C225 C224 1.388 . S
C225 C226 1.390 . S
C226 C225 1.390 . S
C226 C227 1.394 . S
C226 C232 1.465 . S
C227 C222 1.399 . S
C227 C226 1.394 . S
C227 C228 1.516 . S
C228 C227 1.516 . S
C228 C229 1.502 . S
C228 C230 1.561 . S
C228 C231 1.526 . S
C229 H213 0.959 . S
C229 H214 0.959 . S
C229 H215 0.961 . S
C229 C228 1.502 . S
C230 H216 0.960 . S
C230 H217 0.961 . S
C230 H218 0.959 . S
C230 C228 1.561 . S
C231 C228 1.526 . S
C231 C232 1.396 . S
C231 C236 1.390 . S
C232 C226 1.465 . S
C232 C231 1.396 . S
C232 C233 1.399 . S
C233 H219 0.929 . S
C233 C232 1.399 . S
C233 C234 1.385 . S
C234 H220 0.931 . S
C234 C233 1.385 . S
C234 C235 1.389 . S
C235 C234 1.389 . S
C235 C236 1.387 . S
C236 H221 0.930 . S
C236 C231 1.390 . S
C236 C235 1.387 . S
H237 C249 0.930 . S
H238 C251 0.930 . S
H239 C252 0.930 . S
H240 C256 0.959 . S
H241 C256 0.959 . S
H242 C256 0.961 . S
H243 C257 0.960 . S
H244 C257 0.961 . S
H245 C257 0.959 . S
H246 C260 0.929 . S
H247 C261 0.931 . S
H248 C263 0.930 . S
C249 H237 0.930 . S
C249 C250 1.399 . S
C249 C254 1.399 . S
C250 C249 1.399 . S
C250 C251 1.376 . S
C251 H238 0.930 . S
C251 C250 1.376 . S
C251 C252 1.388 . S
C252 H239 0.930 . S
C252 C251 1.388 . S
C252 C253 1.390 . S
C253 C252 1.390 . S
C253 C254 1.394 . S
C253 C259 1.465 . S
C254 C249 1.399 . S
C254 C253 1.394 . S
C254 C255 1.516 . S
C255 C254 1.516 . S
C255 C256 1.502 . S
C255 C257 1.561 . S
C255 C258 1.526 . S
C256 H240 0.959 . S
C256 H241 0.959 . S
C256 H242 0.961 . S
C256 C255 1.502 . S
C257 H243 0.960 . S
C257 H244 0.961 . S
C257 H245 0.959 . S
C257 C255 1.561 . S
C258 C255 1.526 . S
C258 C259 1.396 . S
C258 C263 1.390 . S
C259 C253 1.465 . S
C259 C258 1.396 . S
C259 C260 1.399 . S
C260 H246 0.929 . S
C260 C259 1.399 . S
C260 C261 1.385 . S
C261 H247 0.931 . S
C261 C260 1.385 . S
C261 C262 1.389 . S
C262 C261 1.389 . S
C262 C263 1.387 . S
C263 H248 0.930 . S
C263 C258 1.390 . S
C263 C262 1.387 . S
H264 C276 0.930 . S
H265 C278 0.930 . S
H266 C279 0.930 . S
H267 C283 0.959 . S
H268 C283 0.959 . S
H269 C283 0.961 . S
H270 C284 0.960 . S
H271 C284 0.961 . S
H272 C284 0.959 . S
H273 C287 0.929 . S
H274 C288 0.931 . S
H275 C290 0.930 . S
C276 H264 0.930 . S
C276 C277 1.399 . S
C276 C281 1.399 . S
C277 C276 1.399 . S
C277 C278 1.376 . S
C278 H265 0.930 . S
C278 C277 1.376 . S
C278 C279 1.388 . S
C279 H266 0.930 . S
C279 C278 1.388 . S
C279 C280 1.390 . S
C280 C279 1.390 . S
C280 C281 1.394 . S
C280 C286 1.465 . S
C281 C276 1.399 . S
C281 C280 1.394 . S
C281 C282 1.516 . S
C282 C281 1.516 . S
C282 C283 1.502 . S
C282 C284 1.561 . S
C282 C285 1.526 . S
C283 H267 0.959 . S
C283 H268 0.959 . S
C283 H269 0.961 . S
C283 C282 1.502 . S
C284 H270 0.960 . S
C284 H271 0.961 . S
C284 H272 0.959 . S
C284 C282 1.561 . S
C285 C282 1.526 . S
C285 C286 1.396 . S
C285 C290 1.390 . S
C286 C280 1.465 . S
C286 C285 1.396 . S
C286 C287 1.399 . S
C287 H273 0.929 . S
C287 C286 1.399 . S
C287 C288 1.385 . S
C288 H274 0.931 . S
C288 C287 1.385 . S
C288 C289 1.389 . S
C289 C288 1.389 . S
C289 C290 1.387 . S
C290 H275 0.930 . S
C290 C285 1.390 . S
C290 C289 1.387 . S
H291 C303 0.930 . S
H292 C305 0.930 . S
H293 C306 0.930 . S
H294 C310 0.959 . S
H295 C310 0.959 . S
H296 C310 0.961 . S
H297 C311 0.960 . S
H298 C311 0.961 . S
H299 C311 0.959 . S
H300 C314 0.929 . S
H301 C315 0.931 . S
H302 C317 0.930 . S
C303 H291 0.930 . S
C303 C304 1.399 . S
C303 C308 1.399 . S
C304 C303 1.399 . S
C304 C305 1.376 . S
C305 H292 0.930 . S
C305 C304 1.376 . S
C305 C306 1.388 . S
C306 H293 0.930 . S
C306 C305 1.388 . S
C306 C307 1.390 . S
C307 C306 1.390 . S
C307 C308 1.394 . S
C307 C313 1.465 . S
C308 C303 1.399 . S
C308 C307 1.394 . S
C308 C309 1.516 . S
C309 C308 1.516 . S
C309 C310 1.502 . S
C309 C311 1.561 . S
C309 C312 1.526 . S
C310 H294 0.959 . S
C310 H295 0.959 . S
C310 H296 0.961 . S
C310 C309 1.502 . S
C311 H297 0.960 . S
C311 H298 0.961 . S
C311 H299 0.959 . S
C311 C309 1.561 . S
C312 C309 1.526 . S
C312 C313 1.396 . S
C312 C317 1.390 . S
C313 C307 1.465 . S
C313 C312 1.396 . S
C313 C314 1.399 . S
C314 H300 0.929 . S
C314 C313 1.399 . S
C314 C315 1.385 . S
C315 H301 0.931 . S
C315 C314 1.385 . S
C315 C316 1.389 . S
C316 C315 1.389 . S
C316 C317 1.387 . S
C317 H302 0.930 . S
C317 C312 1.390 . S
C317 C316 1.387 . S
H318 C330 0.930 . S
H319 C332 0.930 . S
H320 C333 0.930 . S
H321 C337 0.959 . S
H322 C337 0.959 . S
H323 C337 0.961 . S
H324 C338 0.960 . S
H325 C338 0.961 . S
H326 C338 0.959 . S
H327 C341 0.929 . S
H328 C342 0.931 . S
H329 C344 0.930 . S
C330 H318 0.930 . S
C330 C331 1.399 . S
C330 C335 1.399 . S
C331 C330 1.399 . S
C331 C332 1.376 . S
C332 H319 0.930 . S
C332 C331 1.376 . S
C332 C333 1.388 . S
C333 H320 0.930 . S
C333 C332 1.388 . S
C333 C334 1.390 . S
C334 C333 1.390 . S
C334 C335 1.394 . S
C334 C340 1.465 . S
C335 C330 1.399 . S
C335 C334 1.394 . S
C335 C336 1.516 . S
C336 C335 1.516 . S
C336 C337 1.502 . S
C336 C338 1.561 . S
C336 C339 1.526 . S
C337 H321 0.959 . S
C337 H322 0.959 . S
C337 H323 0.961 . S
C337 C336 1.502 . S
C338 H324 0.960 . S
C338 H325 0.961 . S
C338 H326 0.959 . S
C338 C336 1.561 . S
C339 C336 1.526 . S
C339 C340 1.396 . S
C339 C344 1.390 . S
C340 C334 1.465 . S
C340 C339 1.396 . S
C340 C341 1.399 . S
C341 H327 0.929 . S
C341 C340 1.399 . S
C341 C342 1.385 . S
C342 H328 0.931 . S
C342 C341 1.385 . S
C342 C343 1.389 . S
C343 C342 1.389 . S
C343 C344 1.387 . S
C344 H329 0.930 . S
C344 C339 1.390 . S
C344 C343 1.387 . S
H345 C357 0.930 . S
H346 C359 0.930 . S
H347 C360 0.930 . S
H348 C364 0.959 . S
H349 C364 0.959 . S
H350 C364 0.961 . S
H351 C365 0.960 . S
H352 C365 0.961 . S
H353 C365 0.959 . S
H354 C368 0.929 . S
H355 C369 0.931 . S
H356 C371 0.930 . S
C357 H345 0.930 . S
C357 C358 1.399 . S
C357 C362 1.399 . S
C358 C357 1.399 . S
C358 C359 1.376 . S
C359 H346 0.930 . S
C359 C358 1.376 . S
C359 C360 1.388 . S
C360 H347 0.930 . S
C360 C359 1.388 . S
C360 C361 1.390 . S
C361 C360 1.390 . S
C361 C362 1.394 . S
C361 C367 1.465 . S
C362 C357 1.399 . S
C362 C361 1.394 . S
C362 C363 1.516 . S
C363 C362 1.516 . S
C363 C364 1.502 . S
C363 C365 1.561 . S
C363 C366 1.526 . S
C364 H348 0.959 . S
C364 H349 0.959 . S
C364 H350 0.961 . S
C364 C363 1.502 . S
C365 H351 0.960 . S
C365 H352 0.961 . S
C365 H353 0.959 . S
C365 C363 1.561 . S
C366 C363 1.526 . S
C366 C367 1.396 . S
C366 C371 1.390 . S
C367 C361 1.465 . S
C367 C366 1.396 . S
C367 C368 1.399 . S
C368 H354 0.929 . S
C368 C367 1.399 . S
C368 C369 1.385 . S
C369 H355 0.931 . S
C369 C368 1.385 . S
C369 C370 1.389 . S
C370 C369 1.389 . S
C370 C371 1.387 . S
C371 H356 0.930 . S
C371 C366 1.390 . S
C371 C370 1.387 . S
H372 C384 0.930 . S
H373 C386 0.930 . S
H374 C387 0.930 . S
H375 C391 0.959 . S
H376 C391 0.959 . S
H377 C391 0.961 . S
H378 C392 0.960 . S
H379 C392 0.961 . S
H380 C392 0.959 . S
H381 C395 0.929 . S
H382 C396 0.931 . S
H383 C398 0.930 . S
C384 H372 0.930 . S
C384 C385 1.399 . S
C384 C389 1.399 . S
C385 C384 1.399 . S
C385 C386 1.376 . S
C386 H373 0.930 . S
C386 C385 1.376 . S
C386 C387 1.388 . S
C387 H374 0.930 . S
C387 C386 1.388 . S
C387 C388 1.390 . S
C388 C387 1.390 . S
C388 C389 1.394 . S
C388 C394 1.465 . S
C389 C384 1.399 . S
C389 C388 1.394 . S
C389 C390 1.516 . S
C390 C389 1.516 . S
C390 C391 1.502 . S
C390 C392 1.561 . S
C390 C393 1.526 . S
C391 H375 0.959 . S
C391 H376 0.959 . S
C391 H377 0.961 . S
C391 C390 1.502 . S
C392 H378 0.960 . S
C392 H379 0.961 . S
C392 H380 0.959 . S
C392 C390 1.561 . S
C393 C390 1.526 . S
C393 C394 1.396 . S
C393 C398 1.390 . S
C394 C388 1.465 . S
C394 C393 1.396 . S
C394 C395 1.399 . S
C395 H381 0.929 . S
C395 C394 1.399 . S
C395 C396 1.385 . S
C396 H382 0.931 . S
C396 C395 1.385 . S
C396 C397 1.389 . S
C397 C396 1.389 . S
C397 C398 1.387 . S
C398 H383 0.930 . S
C398 C393 1.390 . S
C398 C397 1.387 . S
H399 C411 0.930 . S
H400 C413 0.930 . S
H401 C414 0.930 . S
H402 C418 0.959 . S
H403 C418 0.959 . S
H404 C418 0.961 . S
H405 C419 0.960 . S
H406 C419 0.961 . S
H407 C419 0.959 . S
H408 C422 0.929 . S
H409 C423 0.931 . S
H410 C425 0.930 . S
C411 H399 0.930 . S
C411 C412 1.399 . S
C411 C416 1.399 . S
C412 C411 1.399 . S
C412 C413 1.376 . S
C413 H400 0.930 . S
C413 C412 1.376 . S
C413 C414 1.388 . S
C414 H401 0.930 . S
C414 C413 1.388 . S
C414 C415 1.390 . S
C415 C414 1.390 . S
C415 C416 1.394 . S
C415 C421 1.465 . S
C416 C411 1.399 . S
C416 C415 1.394 . S
C416 C417 1.516 . S
C417 C416 1.516 . S
C417 C418 1.502 . S
C417 C419 1.561 . S
C417 C420 1.526 . S
C418 H402 0.959 . S
C418 H403 0.959 . S
C418 H404 0.961 . S
C418 C417 1.502 . S
C419 H405 0.960 . S
C419 H406 0.961 . S
C419 H407 0.959 . S
C419 C417 1.561 . S
C420 C417 1.526 . S
C420 C421 1.396 . S
C420 C425 1.390 . S
C421 C415 1.465 . S
C421 C420 1.396 . S
C421 C422 1.399 . S
C422 H408 0.929 . S
C422 C421 1.399 . S
C422 C423 1.385 . S
C423 H409 0.931 . S
C423 C422 1.385 . S
C423 C424 1.389 . S
C424 C423 1.389 . S
C424 C425 1.387 . S
C425 H410 0.930 . S
C425 C420 1.390 . S
C425 C424 1.387 . S
H426 C438 0.930 . S
H427 C440 0.930 . S
H428 C441 0.930 . S
H429 C445 0.959 . S
H430 C445 0.959 . S
H431 C445 0.961 . S
H432 C446 0.960 . S
H433 C446 0.961 . S
H434 C446 0.959 . S
H435 C449 0.929 . S
H436 C450 0.931 . S
H437 C452 0.930 . S
C438 H426 0.930 . S
C438 C439 1.399 . S
C438 C443 1.399 . S
C439 C438 1.399 . S
C439 C440 1.376 . S
C440 H427 0.930 . S
C440 C439 1.376 . S
C440 C441 1.388 . S
C441 H428 0.930 . S
C441 C440 1.388 . S
C441 C442 1.390 . S
C442 C441 1.390 . S
C442 C443 1.394 . S
C442 C448 1.465 . S
C443 C438 1.399 . S
C443 C442 1.394 . S
C443 C444 1.516 . S
C444 C443 1.516 . S
C444 C445 1.502 . S
C444 C446 1.561 . S
C444 C447 1.526 . S
C445 H429 0.959 . S
C445 H430 0.959 . S
C445 H431 0.961 . S
C445 C444 1.502 . S
C446 H432 0.960 . S
C446 H433 0.961 . S
C446 H434 0.959 . S
C446 C444 1.561 . S
C447 C444 1.526 . S
C447 C448 1.396 . S
C447 C452 1.390 . S
C448 C442 1.465 . S
C448 C447 1.396 . S
C448 C449 1.399 . S
C449 H435 0.929 . S
C449 C448 1.399 . S
C449 C450 1.385 . S
C450 H436 0.931 . S
C450 C449 1.385 . S
C450 C451 1.389 . S
C451 C450 1.389 . S
C451 C452 1.387 . S
C452 H437 0.930 . S
C452 C447 1.390 . S
C452 C451 1.387 . S
H453 C465 0.930 . S
H454 C467 0.930 . S
H455 C468 0.930 . S
H456 C472 0.959 . S
H457 C472 0.959 . S
H458 C472 0.961 . S
H459 C473 0.960 . S
H460 C473 0.961 . S
H461 C473 0.959 . S
H462 C476 0.929 . S
H463 C477 0.931 . S
H464 C479 0.930 . S
C465 H453 0.930 . S
C465 C466 1.399 . S
C465 C470 1.399 . S
C466 C465 1.399 . S
C466 C467 1.376 . S
C467 H454 0.930 . S
C467 C466 1.376 . S
C467 C468 1.388 . S
C468 H455 0.930 . S
C468 C467 1.388 . S
C468 C469 1.390 . S
C469 C468 1.390 . S
C469 C470 1.394 . S
C469 C475 1.465 . S
C470 C465 1.399 . S
C470 C469 1.394 . S
C470 C471 1.516 . S
C471 C470 1.516 . S
C471 C472 1.502 . S
C471 C473 1.561 . S
C471 C474 1.526 . S
C472 H456 0.959 . S
C472 H457 0.959 . S
C472 H458 0.961 . S
C472 C471 1.502 . S
C473 H459 0.960 . S
C473 H460 0.961 . S
C473 H461 0.959 . S
C473 C471 1.561 . S
C474 C471 1.526 . S
C474 C475 1.396 . S
C474 C479 1.390 . S
C475 C469 1.465 . S
C475 C474 1.396 . S
C475 C476 1.399 . S
C476 H462 0.929 . S
C476 C475 1.399 . S
C476 C477 1.385 . S
C477 H463 0.931 . S
C477 C476 1.385 . S
C477 C478 1.389 . S
C478 C477 1.389 . S
C478 C479 1.387 . S
C479 H464 0.930 . S
C479 C474 1.390 . S
C479 C478 1.387 . S
H480 C492 0.930 . S
H481 C494 0.930 . S
H482 C495 0.930 . S
H483 C499 0.959 . S
H484 C499 0.959 . S
H485 C499 0.961 . S
H486 C500 0.960 . S
H487 C500 0.961 . S
H488 C500 0.959 . S
H489 C503 0.929 . S
H490 C504 0.931 . S
H491 C506 0.930 . S
C492 H480 0.930 . S
C492 C493 1.406 . S
C492 C497 1.399 . S
C493 C492 1.406 . S
C493 C494 1.369 1_455 S
C494 H481 0.930 . S
C494 C493 1.369 1_655 S
C494 C495 1.388 . S
C495 H482 0.930 . S
C495 C494 1.388 . S
C495 C496 1.390 . S
C496 C495 1.390 . S
C496 C497 1.394 1_655 S
C496 C502 1.465 . S
C497 C492 1.399 . S
C497 C496 1.394 1_455 S
C497 C498 1.516 . S
C498 C497 1.516 . S
C498 C499 1.502 . S
C498 C500 1.561 1_455 S
C498 C501 1.526 . S
C499 H483 0.959 . S
C499 H484 0.959 . S
C499 H485 0.961 . S
C499 C498 1.502 . S
C500 H486 0.960 . S
C500 H487 0.961 . S
C500 H488 0.959 . S
C500 C498 1.561 1_655 S
C501 C498 1.526 . S
C501 C502 1.396 1_455 S
C501 C506 1.390 . S
C502 C496 1.465 . S
C502 C501 1.396 1_655 S
C502 C503 1.399 . S
C503 H489 0.929 . S
C503 C502 1.399 . S
C503 C504 1.385 . S
C504 H490 0.931 . S
C504 C503 1.385 . S
C504 C505 1.389 1_655 S
C505 C504 1.389 1_455 S
C505 C506 1.387 . S
C506 H491 0.930 . S
C506 C501 1.390 . S
C506 C505 1.387 . S
H507 C519 0.930 . S
H508 C521 0.930 . S
H509 C522 0.930 . S
H510 C526 0.959 . S
H511 C526 0.959 . S
H512 C526 0.961 . S
H513 C527 0.960 . S
H514 C527 0.961 . S
H515 C527 0.959 . S
H516 C530 0.929 . S
H517 C531 0.931 . S
H518 C533 0.930 . S
C519 H507 0.930 . S
C519 C520 1.399 1_565 S
C519 C524 1.399 . S
C520 C519 1.399 1_545 S
C520 C521 1.376 . S
C521 H508 0.930 . S
C521 C520 1.376 . S
C521 C522 1.388 . S
C522 H509 0.930 . S
C522 C521 1.388 . S
C522 C523 1.390 . S
C523 C522 1.390 . S
C523 C524 1.394 1_545 S
C523 C529 1.465 . S
C524 C519 1.399 . S
C524 C523 1.394 1_565 S
C524 C525 1.516 . S
C525 C524 1.516 . S
C525 C526 1.502 . S
C525 C527 1.561 . S
C525 C528 1.526 . S
C526 H510 0.959 . S
C526 H511 0.959 . S
C526 H512 0.961 . S
C526 C525 1.502 . S
C527 H513 0.960 . S
C527 H514 0.961 . S
C527 H515 0.959 . S
C527 C525 1.561 . S
C528 C525 1.526 . S
C528 C529 1.396 1_565 S
C528 C533 1.390 . S
C529 C523 1.465 . S
C529 C528 1.396 1_545 S
C529 C530 1.399 . S
C530 H516 0.929 . S
C530 C529 1.399 . S
C530 C531 1.385 . S
C531 H517 0.931 . S
C531 C530 1.385 . S
C531 C532 1.364 1_545 S
C532 C531 1.364 1_565 S
C532 C533 1.405 . S
C533 H518 0.930 . S
C533 C528 1.390 . S
C533 C532 1.405 . S
H534 C546 0.930 . S
H535 C548 0.930 . S
H536 C549 0.930 . S
H537 C553 0.959 . S
H538 C553 0.959 . S
H539 C553 0.961 . S
H540 C554 0.960 . S
H541 C554 0.961 . S
H542 C554 0.959 . S
H543 C557 0.929 . S
H544 C558 0.931 . S
H545 C560 0.930 . S
C546 H534 0.930 . S
C546 C547 1.399 . S
C546 C551 1.399 . S
C547 C546 1.399 . S
C547 C548 1.376 . S
C548 H535 0.930 . S
C548 C547 1.376 . S
C548 C549 1.388 . S
C549 H536 0.930 . S
C549 C548 1.388 . S
C549 C550 1.390 . S
C550 C549 1.390 . S
C550 C551 1.394 . S
C550 C556 1.465 . S
C551 C546 1.399 . S
C551 C550 1.394 . S
C551 C552 1.516 . S
C552 C551 1.516 . S
C552 C553 1.502 1_655 S
C552 C554 1.561 . S
C552 C555 1.526 . S
C553 H537 0.959 . S
C553 H538 0.959 . S
C553 H539 0.961 . S
C553 C552 1.502 1_455 S
C554 H540 0.960 . S
C554 H541 0.961 . S
C554 H542 0.959 . S
C554 C552 1.561 . S
C555 C552 1.526 . S
C555 C556 1.396 . S
C555 C560 1.390 . S
C556 C550 1.465 . S
C556 C555 1.396 . S
C556 C557 1.399 . S
C557 H543 0.929 . S
C557 C556 1.399 . S
C557 C558 1.385 . S
C558 H544 0.931 . S
C558 C557 1.385 . S
C558 C559 1.389 . S
C559 C558 1.389 . S
C559 C560 1.387 . S
C560 H545 0.930 . S
C560 C555 1.390 . S
C560 C559 1.387 . S
H561 C573 0.930 . S
H562 C575 0.930 . S
H563 C576 0.930 . S
H564 C580 0.959 . S
H565 C580 0.959 . S
H566 C580 0.961 . S
H567 C581 0.960 . S
H568 C581 0.961 . S
H569 C581 0.959 . S
H570 C584 0.929 . S
H571 C585 0.931 . S
H572 C587 0.930 . S
C573 H561 0.930 . S
C573 C574 1.399 1_545 S
C573 C578 1.399 . S
C574 C573 1.399 1_565 S
C574 C575 1.376 . S
C575 H562 0.930 . S
C575 C574 1.376 . S
C575 C576 1.388 . S
C576 H563 0.930 . S
C576 C575 1.388 . S
C576 C577 1.390 . S
C577 C576 1.390 . S
C577 C578 1.394 1_565 S
C577 C583 1.465 . S
C578 C573 1.399 . S
C578 C577 1.394 1_545 S
C578 C579 1.516 . S
C579 C578 1.516 . S
C579 C580 1.502 . S
C579 C581 1.561 . S
C579 C582 1.526 . S
C580 H564 0.959 . S
C580 H565 0.959 . S
C580 H566 0.961 . S
C580 C579 1.502 . S
C581 H567 0.960 . S
C581 H568 0.961 . S
C581 H569 0.959 . S
C581 C579 1.561 . S
C582 C579 1.526 . S
C582 C583 1.396 1_545 S
C582 C587 1.390 . S
C583 C577 1.465 . S
C583 C582 1.396 1_565 S
C583 C584 1.399 . S
C584 H570 0.929 . S
C584 C583 1.399 . S
C584 C585 1.385 . S
C585 H571 0.931 . S
C585 C584 1.385 . S
C585 C586 1.389 . S
C586 C585 1.389 . S
C586 C587 1.387 1_565 S
C587 H572 0.930 . S
C587 C582 1.390 . S
C587 C586 1.387 1_545 S
H588 C600 0.930 . S
H589 C602 0.930 . S
H590 C603 0.930 . S
H591 C607 0.959 . S
H592 C607 0.959 . S
H593 C607 0.961 . S
H594 C608 0.960 . S
H595 C608 0.961 . S
H596 C608 0.959 . S
H597 C611 0.929 . S
H598 C612 0.931 . S
H599 C614 0.930 1_565 S
C600 H588 0.930 . S
C600 C601 1.399 . S
C600 C605 1.399 . S
C601 C600 1.399 . S
C601 C602 1.376 . S
C602 H589 0.930 . S
C602 C601 1.376 . S
C602 C603 1.388 . S
C603 H590 0.930 . S
C603 C602 1.388 . S
C603 C604 1.390 . S
C604 C603 1.390 . S
C604 C605 1.394 . S
C604 C610 1.465 . S
C605 C600 1.399 . S
C605 C604 1.394 . S
C605 C606 1.516 . S
C606 C605 1.516 . S
C606 C607 1.502 1_545 S
C606 C608 1.561 . S
C606 C609 1.526 . S
C607 H591 0.959 . S
C607 H592 0.959 . S
C607 H593 0.961 . S
C607 C606 1.502 1_565 S
C608 H594 0.960 . S
C608 H595 0.961 . S
C608 H596 0.959 . S
C608 C606 1.561 . S
C609 C606 1.526 . S
C609 C610 1.396 . S
C609 C614 1.390 . S
C610 C604 1.465 . S
C610 C609 1.396 . S
C610 C611 1.399 . S
C611 H597 0.929 . S
C611 C610 1.399 . S
C611 C612 1.385 . S
C612 H598 0.931 . S
C612 C611 1.385 . S
C612 C613 1.389 . S
C613 C612 1.389 . S
C613 C614 1.387 . S
C614 H599 0.930 1_545 S
C614 C609 1.390 . S
C614 C613 1.387 . S
H615 C627 0.930 . S
H616 C629 0.930 . S
H617 C630 0.930 . S
H618 C634 0.959 . S
H619 C634 0.959 . S
H620 C634 0.961 . S
H621 C635 0.960 . S
H622 C635 0.961 . S
H623 C635 0.959 . S
H624 C638 0.929 . S
H625 C639 0.931 . S
H626 C641 0.930 . S
C627 H615 0.930 . S
C627 C628 1.399 . S
C627 C632 1.399 . S
C628 C627 1.399 . S
C628 C629 1.376 1_655 S
C629 H616 0.930 . S
C629 C628 1.376 1_455 S
C629 C630 1.388 . S
C630 H617 0.930 . S
C630 C629 1.388 . S
C630 C631 1.390 . S
C631 C630 1.390 . S
C631 C632 1.394 1_455 S
C631 C637 1.465 . S
C632 C627 1.399 . S
C632 C631 1.394 1_655 S
C632 C633 1.516 . S
C633 C632 1.516 . S
C633 C634 1.502 . S
C633 C635 1.561 1_655 S
C633 C636 1.526 . S
C634 H618 0.959 . S
C634 H619 0.959 . S
C634 H620 0.961 . S
C634 C633 1.502 . S
C635 H621 0.960 . S
C635 H622 0.961 . S
C635 H623 0.959 . S
C635 C633 1.561 1_455 S
C636 C633 1.526 . S
C636 C637 1.396 1_655 S
C636 C641 1.390 . S
C637 C631 1.465 . S
C637 C636 1.396 1_455 S
C637 C638 1.399 . S
C638 H624 0.929 . S
C638 C637 1.399 . S
C638 C639 1.385 . S
C639 H625 0.931 . S
C639 C638 1.385 . S
C639 C640 1.383 1_455 S
C640 C639 1.383 1_655 S
C640 C641 1.391 . S
C641 H626 0.930 . S
C641 C636 1.390 . S
C641 C640 1.391 . S
H642 C654 0.930 . S
H643 C656 0.930 . S
H644 C657 0.930 . S
H645 C661 0.959 . S
H646 C661 0.959 . S
H647 C661 0.961 . S
H648 C662 0.960 . S
H649 C662 0.961 . S
H650 C662 0.959 . S
H651 C665 0.929 . S
H652 C666 0.931 . S
H653 C668 0.930 . S
C654 H642 0.930 . S
C654 C655 1.399 . S
C654 C659 1.399 . S
C655 C654 1.399 . S
C655 C656 1.376 1_565 S
C656 H643 0.930 . S
C656 C655 1.376 1_545 S
C656 C657 1.388 . S
C657 H644 0.930 . S
C657 C656 1.388 . S
C657 C658 1.390 . S
C658 C657 1.390 . S
C658 C659 1.394 1_545 S
C658 C664 1.465 . S
C659 C654 1.399 . S
C659 C658 1.394 1_565 S
C659 C660 1.516 . S
C660 C659 1.516 . S
C660 C661 1.502 . S
C660 C662 1.561 . S
C660 C663 1.526 . S
C661 H645 0.959 . S
C661 H646 0.959 . S
C661 H647 0.961 . S
C661 C660 1.502 . S
C662 H648 0.960 . S
C662 H649 0.961 . S
C662 H650 0.959 . S
C662 C660 1.561 . S
C663 C660 1.526 . S
C663 C664 1.396 1_565 S
C663 C668 1.390 . S
C664 C658 1.465 . S
C664 C663 1.396 1_545 S
C664 C665 1.399 . S
C665 H651 0.929 . S
C665 C664 1.399 . S
C665 C666 1.385 . S
C666 H652 0.931 . S
C666 C665 1.385 . S
C666 C667 1.389 1_545 S
C667 C666 1.389 1_565 S
C667 C668 1.387 . S
C668 H653 0.930 . S
C668 C663 1.390 . S
C668 C667 1.387 . S
H669 C681 0.930 . S
H670 C683 0.930 . S
H671 C684 0.930 . S
H672 C688 0.959 . S
H673 C688 0.959 . S
H674 C688 0.961 . S
H675 C689 0.960 . S
H676 C689 0.961 . S
H677 C689 0.959 . S
H678 C692 0.929 . S
H679 C693 0.931 . S
H680 C695 0.930 . S
C681 H669 0.930 . S
C681 C682 1.399 . S
C681 C686 1.399 . S
C682 C681 1.399 . S
C682 C683 1.376 1_655 S
C683 H670 0.930 . S
C683 C682 1.376 1_455 S
C683 C684 1.388 . S
C684 H671 0.930 . S
C684 C683 1.388 . S
C684 C685 1.390 . S
C685 C684 1.390 . S
C685 C686 1.394 1_455 S
C685 C691 1.465 . S
C686 C681 1.399 . S
C686 C685 1.394 1_655 S
C686 C687 1.516 . S
C687 C686 1.516 . S
C687 C688 1.502 . S
C687 C689 1.561 1_655 S
C687 C690 1.526 . S
C688 H672 0.959 . S
C688 H673 0.959 . S
C688 H674 0.961 . S
C688 C687 1.502 . S
C689 H675 0.960 . S
C689 H676 0.961 . S
C689 H677 0.959 . S
C689 C687 1.561 1_455 S
C690 C687 1.526 . S
C690 C691 1.396 1_655 S
C690 C695 1.390 . S
C691 C685 1.465 . S
C691 C690 1.396 1_455 S
C691 C692 1.399 . S
C692 H678 0.929 . S
C692 C691 1.399 . S
C692 C693 1.385 . S
C693 H679 0.931 . S
C693 C692 1.385 . S
C693 C694 1.389 . S
C694 C693 1.389 . S
C694 C695 1.387 1_455 S
C695 H680 0.930 . S
C695 C690 1.390 . S
C695 C694 1.387 1_655 S
H696 C708 0.930 . S
H697 C710 0.930 . S
H698 C711 0.930 . S
H699 C715 0.959 . S
H700 C715 0.959 . S
H701 C715 0.961 . S
H702 C716 0.960 . S
H703 C716 0.961 . S
H704 C716 0.959 . S
H705 C719 0.929 . S
H706 C720 0.931 . S
H707 C722 0.930 . S
C708 H696 0.930 . S
C708 C709 1.380 1_556 S
C708 C713 1.399 . S
C709 C708 1.380 1_554 S
C709 C710 1.399 . S
C710 H697 0.930 . S
C710 C709 1.399 . S
C710 C711 1.388 . S
C711 H698 0.930 . S
C711 C710 1.388 . S
C711 C712 1.390 . S
C712 C711 1.390 . S
C712 C713 1.394 1_554 S
C712 C718 1.465 . S
C713 C708 1.399 . S
C713 C712 1.394 1_556 S
C713 C714 1.516 . S
C714 C713 1.516 . S
C714 C715 1.502 . S
C714 C716 1.561 . S
C714 C717 1.526 . S
C715 H699 0.959 . S
C715 H700 0.959 . S
C715 H701 0.961 . S
C715 C714 1.502 . S
C716 H702 0.960 . S
C716 H703 0.961 . S
C716 H704 0.959 . S
C716 C714 1.561 . S
C717 C714 1.526 . S
C717 C718 1.396 1_556 S
C717 C722 1.390 . S
C718 C712 1.465 . S
C718 C717 1.396 1_554 S
C718 C719 1.399 . S
C719 H705 0.929 . S
C719 C718 1.399 . S
C719 C720 1.385 . S
C720 H706 0.931 . S
C720 C719 1.385 . S
C720 C721 1.389 1_554 S
C721 C720 1.389 1_556 S
C721 C722 1.387 . S
C722 H707 0.930 . S
C722 C717 1.390 . S
C722 C721 1.387 . S
H723 C735 0.930 . S
H724 C737 0.930 . S
H725 C738 0.930 . S
H726 C742 0.959 . S
H727 C742 0.959 . S
H728 C742 0.961 . S
H729 C743 0.960 . S
H730 C743 0.961 . S
H731 C743 0.959 . S
H732 C746 0.929 . S
H733 C747 0.931 . S
H734 C749 0.930 . S
C735 H723 0.930 . S
C735 C736 1.399 . S
C735 C740 1.399 . S
C736 C735 1.399 . S
C736 C737 1.376 1_556 S
C737 H724 0.930 . S
C737 C736 1.376 1_554 S
C737 C738 1.388 . S
C738 H725 0.930 . S
C738 C737 1.388 . S
C738 C739 1.390 . S
C739 C738 1.390 . S
C739 C740 1.394 1_554 S
C739 C745 1.465 . S
C740 C735 1.399 . S
C740 C739 1.394 1_556 S
C740 C741 1.516 . S
C741 C740 1.516 . S
C741 C742 1.502 . S
C741 C743 1.561 . S
C741 C744 1.526 . S
C742 H726 0.959 . S
C742 H727 0.959 . S
C742 H728 0.961 . S
C742 C741 1.502 . S
C743 H729 0.960 . S
C743 H730 0.961 . S
C743 H731 0.959 . S
C743 C741 1.561 . S
C744 C741 1.526 . S
C744 C745 1.396 1_556 S
C744 C749 1.390 . S
C745 C739 1.465 . S
C745 C744 1.396 1_554 S
C745 C746 1.399 . S
C746 H732 0.929 . S
C746 C745 1.399 . S
C746 C747 1.385 . S
C747 H733 0.931 . S
C747 C746 1.385 . S
C747 C748 1.406 . S
C748 C747 1.406 . S
C748 C749 1.373 1_554 S
C749 H734 0.930 . S
C749 C744 1.390 . S
C749 C748 1.373 1_556 S
H750 C762 0.930 . S
H751 C764 0.930 . S
H752 C765 0.930 . S
H753 C769 0.959 . S
H754 C769 0.959 . S
H755 C769 0.961 . S
H756 C770 0.960 . S
H757 C770 0.961 . S
H758 C770 0.959 . S
H759 C773 0.929 . S
H760 C774 0.931 . S
H761 C776 0.930 . S
C762 H750 0.930 . S
C762 C763 1.399 1_554 S
C762 C767 1.399 . S
C763 C762 1.399 1_556 S
C763 C764 1.376 . S
C764 H751 0.930 . S
C764 C763 1.376 . S
C764 C765 1.388 . S
C765 H752 0.930 . S
C765 C764 1.388 . S
C765 C766 1.390 . S
C766 C765 1.390 . S
C766 C767 1.394 1_556 S
C766 C772 1.465 . S
C767 C762 1.399 . S
C767 C766 1.394 1_554 S
C767 C768 1.516 . S
C768 C767 1.516 . S
C768 C769 1.502 . S
C768 C770 1.561 . S
C768 C771 1.526 . S
C769 H753 0.959 . S
C769 H754 0.959 . S
C769 H755 0.961 . S
C769 C768 1.502 . S
C770 H756 0.960 . S
C770 H757 0.961 . S
C770 H758 0.959 . S
C770 C768 1.561 . S
C771 C768 1.526 . S
C771 C772 1.396 1_554 S
C771 C776 1.390 . S
C772 C766 1.465 . S
C772 C771 1.396 1_556 S
C772 C773 1.399 . S
C773 H759 0.929 . S
C773 C772 1.399 . S
C773 C774 1.385 . S
C774 H760 0.931 . S
C774 C773 1.385 . S
C774 C775 1.389 . S
C775 C774 1.389 . S
C775 C776 1.387 1_556 S
C776 H761 0.930 . S
C776 C771 1.390 . S
C776 C775 1.387 1_554 S
H777 C789 0.930 . S
H778 C791 0.930 . S
H779 C792 0.930 . S
H780 C796 0.959 . S
H781 C796 0.959 . S
H782 C796 0.961 . S
H783 C797 0.960 . S
H784 C797 0.961 . S
H785 C797 0.959 . S
H786 C800 0.929 . S
H787 C801 0.931 . S
H788 C803 0.930 1_554 S
C789 H777 0.930 . S
C789 C790 1.400 . S
C789 C794 1.397 1_554 S
C790 C789 1.400 . S
C790 C791 1.374 1_554 S
C791 H778 0.930 . S
C791 C790 1.374 1_556 S
C791 C792 1.388 . S
C792 H779 0.930 . S
C792 C791 1.388 . S
C792 C793 1.390 . S
C793 C792 1.390 . S
C793 C794 1.396 . S
C793 C799 1.465 . S
C794 C789 1.397 1_556 S
C794 C793 1.396 . S
C794 C795 1.516 . S
C795 C794 1.516 . S
C795 C796 1.491 1_556 S
C795 C797 1.573 . S
C795 C798 1.526 . S
C796 H780 0.959 . S
C796 H781 0.959 . S
C796 H782 0.961 . S
C796 C795 1.491 1_554 S
C797 H783 0.960 . S
C797 H784 0.961 . S
C797 H785 0.959 . S
C797 C795 1.573 . S
C798 C795 1.526 . S
C798 C799 1.396 . S
C798 C803 1.390 . S
C799 C793 1.465 . S
C799 C798 1.396 . S
C799 C800 1.399 . S
C800 H786 0.929 . S
C800 C799 1.399 . S
C800 C801 1.385 . S
C801 H787 0.931 . S
C801 C800 1.385 . S
C801 C802 1.389 . S
C802 C801 1.389 . S
C802 C803 1.387 . S
C803 H788 0.930 1_556 S
C803 C798 1.390 . S
C803 C802 1.387 . S
C169 C1 0.996 . S
C181 C96 1.007 . S
C196 C18 1.382 . S
C208 C55 1.380 . S
C223 C66 1.050 . S
C235 C27 1.072 . S
C250 C81 1.410 . S
C262 C49 1.409 . S
C277 C114 0.999 . S
C289 C92 1.014 . S
C304 C118 1.252 . S
C316 C62 1.226 . S
C331 C140 1.385 . S
C343 C70 1.291 . S
C358 C144 1.186 . S
C370 C88 1.188 . S
C385 C14 1.044 . S
C397 C122 1.043 . S
C412 C133 1.196 . S
C424 C31 1.207 . S
C439 C42 1.392 . S
C451 C148 1.388 . S
C466 C107 1.213 . S
C478 C5 1.220 . S
C493 C83 1.684 1_455 S
C505 C10 1.701 . S
C520 C94 1.654 . S
C532 C16 1.678 . S
C547 C57 1.710 . S
C559 C36 1.710 . S
C574 C40 1.752 . S
C586 C75 1.640 . S
C601 C101 1.760 . S
C613 C68 1.699 1_545 S
C628 C53 1.624 1_655 S
C640 C79 1.651 . S
C655 C44 1.604 . S
C667 C23 1.637 . S
C682 C29 1.762 . S
C694 C3 1.746 . S
C709 C109 1.860 . S
C721 C127 1.872 . S
C736 C120 1.712 . S
C748 C131 1.670 . S
C763 C153 1.504 . S
C775 C135 1.537 1_556 S
C790 C105 1.699 . S
C802 C146 1.695 . S
