# Generated by pormake.
# Topology kag, (6)-cn, num edge types: 1
# Building blocks:
#     Node 0, Type 0, BuildingBlock: KUMBOL_clean_sbu_0, # of connection points: 6
#     Node 1, Type 0, BuildingBlock: KUMBOL_clean_sbu_0, # of connection points: 6
#     Node 2, Type 0, BuildingBlock: KUMBOL_clean_sbu_0, # of connection points: 6
#     Edge 3, Type (0, 0), None
#     Edge 4, Type (0, 0), None
#     Edge 5, Type (0, 0), None
#     Edge 6, Type (0, 0), None
#     Edge 7, Type (0, 0), None
#     Edge 8, Type (0, 0), None
#     Edge 9, Type (0, 0), None
#     Edge 10, Type (0, 0), None
#     Edge 11, Type (0, 0), None
# Relax obj value: 0.203
# Max RMSD: 0.297
# Mean RMSD: 0.207
data_MOF--net-kag--node1-KUMBOL_clean_sbu_0--edge1-none
_symmetry_space_group_name_H-M    P1
_symmetry_Int_Tables_number       1
_symmetry_cell_setting            triclinic
loop_
_symmetry_equiv_pos_as_xyz
'x, y, z'
_cell_length_a     24.66398
_cell_length_b     15.320956
_cell_length_c     7.1323355
_cell_angle_alpha  93.453722
_cell_angle_beta   113.00219
_cell_angle_gamma 85.355522
loop_
_atom_site_label
_atom_site_type_symbol
_atom_site_fract_x
_atom_site_fract_y
_atom_site_fract_z
_atom_type_partial_charge
Gd0 Gd -0.00688 0.64593 0.00572 0.0
Gd1 Gd 0.9686 0.42414 0.9209 0.0
C2 C 0.06802 0.16652 0.13264 0.0
C3 C 0.05298 0.08452 0.81894 0.0
C4 C 0.0237 0.24098 0.81245 0.0
C5 C 0.04783 0.24514 0.02454 0.0
C6 C 0.02437 0.15901 0.70969 0.0
C7 C 0.07236 0.08755 0.02951 0.0
C8 C 0.08512 0.16934 0.34322 0.0
C9 C 0.08418 0.24963 0.44321 0.0
N10 N 0.04257 0.3224 0.12411 0.0
C11 C 0.06309 0.325 0.33124 0.0
H12 H 0.06139 0.38409 0.41316 0.0
C13 C 0.95812 0.30271 0.5028 0.0
N14 N -0.00796 0.31264 0.70886 0.0
C15 C 0.95659 0.2224 0.39972 0.0
C16 C -0.00836 0.15171 0.50148 0.0
H17 H 0.92693 0.35432 0.41975 0.0
H18 H 0.09053 1.02847 0.11162 0.0
H19 H 0.90055 0.68684 0.51329 0.0
H20 H 0.1017 0.11065 0.4311 0.0
H21 H 0.09974 0.25372 0.60733 0.0
H22 H 0.0569 1.02268 0.74239 0.0
H23 H 0.035 0.71533 0.50696 0.0
H24 H 0.86043 0.96027 0.49724 0.0
H25 H 0.86222 0.81739 0.32015 0.0
H26 H 0.90544 0.04749 0.18644 0.0
H27 H 0.92759 0.21388 0.24225 0.0
H28 H -0.00616 0.09224 0.41593 0.0
H29 H 0.87175 0.04211 0.81724 0.0
H30 H 0.03472 0.85572 0.68514 0.0
N31 N 0.91937 0.74811 0.80291 0.0
C32 C 0.87695 0.90147 0.58474 0.0
C33 C 0.8778 0.82129 0.48427 0.0
C34 C 0.89409 0.90405 0.79533 0.0
C35 C 0.9142 0.82529 0.90295 0.0
C36 C 0.89887 0.74578 0.59574 0.0
N37 N 0.96989 0.75739 0.21824 0.0
C38 C 0.93835 0.82921 0.11506 0.0
C39 C 0.00563 0.84735 0.52776 0.0
C40 C 0.97066 0.91819 0.42647 0.0
C41 C 0.00389 0.7671 0.42429 0.0
C42 C 0.93784 0.91111 0.21829 0.0
H43 H 0.96863 0.97762 0.51237 0.0
O44 O 0.06873 0.70726 0.21838 0.0
O45 O 0.03754 0.52109 0.93378 0.0
O46 O 0.97838 0.45919 0.25359 0.0
O47 O 0.97786 0.60922 0.27943 0.0
O48 O 0.09225 0.60191 0.14132 0.0
O49 O 0.01849 0.76105 0.91491 0.0
O50 O 0.89317 0.36245 0.70835 0.0
O51 O 0.92422 0.54891 -0.00797 0.0
O52 O -0.01681 0.61097 0.67285 0.0
O53 O -0.01653 0.46096 0.64654 0.0
O54 O 0.86939 0.46805 0.78602 0.0
O55 O 0.9434 0.30894 0.01208 0.0
C56 C 0.09352 0.53404 0.02762 0.0
C57 C 0.90929 0.98572 0.10951 0.0
C58 C 0.88986 0.98292 0.89894 0.0
C59 C 0.05774 0.77402 0.09964 0.0
C60 C 0.10765 0.81721 0.11824 0.0
C61 C 0.12934 0.878 0.27858 0.0
C62 C 0.13936 0.7854 0.00379 0.0
C63 C 0.19657 0.80915 0.05742 0.0
C64 C 0.18666 0.90065 0.33759 0.0
C65 C 0.22098 0.86012 0.23802 0.0
C66 C -0.01809 0.53406 0.36153 0.0
C67 C 0.86817 0.5362 0.89906 0.0
C68 C 0.90416 0.2958 0.82739 0.0
C69 C 0.85421 0.25277 0.80907 0.0
C70 C 0.83239 0.19206 0.64866 0.0
C71 C 0.82258 0.28476 0.92364 0.0
C72 C 0.76532 0.26123 0.87011 0.0
C73 C 0.77503 0.16966 0.58972 0.0
C74 C 0.7408 0.21034 0.68946 0.0
C75 C 0.97949 0.53614 0.56463 0.0
H76 H 0.10391 0.9019 0.3676 0.0
H77 H 0.12005 0.7373 0.88363 0.0
H78 H 0.20622 0.9418 0.47272 0.0
H79 H 0.26704 0.86628 0.31106 0.0
H80 H 0.85776 0.16805 0.5595 0.0
H81 H 0.84197 0.33283 0.04379 0.0
H82 H 0.75539 0.12859 0.45453 0.0
H83 H 0.69472 0.20431 0.61657 0.0
Gd84 Gd 0.40573 1.01871 0.85064 0.0
Gd85 Gd 0.55639 0.05183 0.07824 0.0
C86 C 0.72691 0.87382 0.29564 0.0
C87 C 0.76495 0.89639 0.65513 0.0
C88 C 0.68099 0.98579 0.44002 0.0
C89 C 0.6853 0.94559 0.27211 0.0
C90 C 0.7275 0.97141 0.62979 0.0
C91 C 0.75915 0.84186 0.48828 0.0
C92 C 0.73249 0.83464 0.1255 0.0
C93 C 0.69747 0.86901 0.94097 0.0
N94 N 0.64297 0.96511 0.08763 0.0
C95 C 0.65151 0.93103 0.92187 0.0
H96 H 0.62113 0.94772 0.77278 0.0
C97 C 0.63063 0.08239 0.58964 0.0
N98 N 0.63109 0.03536 0.42037 0.0
C99 C 0.68024 0.07652 0.77643 0.0
C100 C 0.72961 1.02377 0.79444 0.0
H101 H 0.59361 0.1279 0.57589 0.0
H102 H 0.78225 0.77852 0.51037 0.0
H103 H 0.34102 0.12279 0.15625 0.0
H104 H 0.76445 0.78077 0.1341 0.0
H105 H 0.7045 0.84511 0.81116 0.0
H106 H 0.79334 0.87508 0.80607 0.0
H107 H 0.36845 0.94265 0.35284 0.0
H108 H 0.19769 0.28975 0.79508 0.0
H109 H 0.25768 0.22529 0.11796 0.0
H110 H 0.16883 0.19562 0.12308 0.0
H111 H 0.68201 0.10718 0.91467 0.0
H112 H 0.76569 1.01664 0.94203 0.0
H113 H 0.17996 0.29213 0.41896 0.0
H114 H 0.28003 0.96341 0.01416 0.0
N115 N 0.31917 0.10542 0.84135 0.0
C116 C 0.22966 0.23588 0.80364 0.0
C117 C 0.2647 0.2015 -0.01187 0.0
C118 C 0.23522 0.19673 0.63348 0.0
C119 C 0.27682 0.12495 0.65691 0.0
C120 C 0.31065 0.13947 0.00715 0.0
N121 N 0.33101 0.03519 0.50851 0.0
C122 C 0.28111 0.08475 0.48896 0.0
C123 C 0.28181 0.99405 0.15244 0.0
C124 C 0.23246 0.04684 0.13452 0.0
C125 C 0.33144 0.98817 0.33918 0.0
C126 C 0.23459 0.09917 0.29923 0.0
H127 H 0.19638 0.054 -0.01307 0.0
O128 O 0.34184 0.92725 0.69254 0.0
O129 O 0.4906 0.9271 -0.03336 0.0
O130 O 0.53144 1.02 0.73232 0.0
O131 O 0.43141 0.05413 0.59344 0.0
O132 O 0.41929 0.87339 0.79506 0.0
O133 O 0.37815 0.93183 0.02822 0.0
O134 O 0.6204 0.14319 0.23595 0.0
O135 O 0.47151 0.14345 0.96236 0.0
O136 O 0.43066 0.0505 0.19656 0.0
O137 O 0.5307 1.01642 0.33544 0.0
O138 O 0.54282 0.19713 0.13435 0.0
O139 O 0.58377 0.1388 0.90026 0.0
C140 C 0.46852 0.84352 0.92878 0.0
C141 C 0.19719 0.17425 0.27399 0.0
C142 C 0.203 0.22874 0.44091 0.0
C143 C 0.34509 0.89206 0.85742 0.0
C144 C 0.30952 0.81696 0.83617 0.0
C145 C 0.28391 0.77527 0.64547 0.0
C146 C 0.28811 0.80327 -0.01624 0.0
C147 C 0.22856 0.78517 0.92137 0.0
C148 C 0.22841 0.74246 0.58698 0.0
C149 C 0.19839 0.75577 0.71653 0.0
C150 C 0.48142 0.03621 0.57148 0.0
C151 C 0.4936 0.22702 0.00058 0.0
C152 C 0.61693 0.17853 0.07095 0.0
C153 C 0.65246 0.25367 0.09188 0.0
C154 C 0.67813 0.29538 0.28251 0.0
C155 C 0.67382 0.26733 0.94413 0.0
C156 C 0.73338 0.28533 0.0063 0.0
C157 C 0.73366 0.32806 0.34086 0.0
C158 C 0.76363 0.31469 0.21112 0.0
C159 C 0.48068 1.0343 0.35739 0.0
H160 H 0.30656 0.76979 0.54225 0.0
H161 H 0.31511 0.8208 0.13875 0.0
H162 H 0.20749 0.71158 0.43789 0.0
H163 H 0.15266 0.74063 0.65393 0.0
H164 H 0.65551 0.30096 0.3858 0.0
H165 H 0.64676 0.24979 0.7892 0.0
H166 H 0.75465 0.35891 0.48995 0.0
H167 H 0.80937 0.32977 0.27356 0.0
Gd168 Gd 0.55617 0.50941 0.03105 0.0
Gd169 Gd 0.40589 0.56113 0.89817 0.0
C170 C 0.37099 0.28774 0.86991 0.0
C171 C 0.33979 0.26121 0.50712 0.0
C172 C 0.34339 0.40674 0.64084 0.0
C173 C 0.36435 0.37629 0.83692 0.0
C174 C 0.32219 0.34866 0.47592 0.0
C175 C 0.36727 0.23254 0.70328 0.0
C176 C 0.39409 0.26087 0.0733 0.0
C177 C 0.4088 0.32032 0.23354 0.0
N178 N 0.38942 0.4311 -0.00451 0.0
C179 C 0.40235 0.40687 0.18851 0.0
H180 H 0.40346 0.45291 0.30391 0.0
C181 C 0.32194 0.52529 0.42222 0.0
N182 N 0.34899 0.49073 0.60927 0.0
C183 C 0.29415 0.46956 0.26066 0.0
C184 C 0.29482 0.38251 0.28476 0.0
H185 H 0.32599 0.59311 0.39814 0.0
H186 H 0.38277 0.16623 0.719 0.0
H187 H 0.55845 0.61769 0.62516 0.0
H188 H 0.40748 0.19511 0.11354 0.0
H189 H 0.42625 0.2998 0.38964 0.0
H190 H 0.3365 0.21577 0.38539 0.0
H191 H 0.63602 0.47753 0.53119 0.0
H192 H 0.55465 0.87547 0.81561 0.0
H193 H 0.53569 0.77079 0.53945 0.0
H194 H 0.62552 0.85486 0.54364 0.0
H195 H 0.28771 0.48376 0.11474 0.0
H196 H 0.28459 0.34564 0.14747 0.0
H197 H 0.57935 0.90438 0.20995 0.0
H198 H 0.67385 0.58713 0.81443 0.0
N199 N 0.57259 0.63947 0.93366 0.0
C200 C 0.56801 0.8097 0.85582 0.0
C201 C 0.55314 0.75027 0.69555 0.0
C202 C 0.59109 0.78282 0.0592 0.0
C203 C 0.59772 0.69428 0.09222 0.0
C204 C 0.55956 0.66372 0.74058 0.0
N205 N 0.61311 0.57984 0.31994 0.0
C206 C 0.6187 0.66384 0.28834 0.0
C207 C 0.66779 0.60112 0.66864 0.0
C208 C 0.66705 0.68819 0.64451 0.0
C209 C 0.6401 0.54534 0.50708 0.0
C210 C 0.63982 0.72196 0.45325 0.0
H211 H 0.67685 0.72511 0.78163 0.0
O212 O 0.64939 0.46571 0.1843 0.0
O213 O 0.47365 0.42637 0.95995 0.0
O214 O 0.44277 0.59059 0.23183 0.0
O215 O 0.52725 0.49914 0.31226 0.0
O216 O 0.55151 0.36123 0.04732 0.0
O217 O 0.61939 0.48214 0.87191 0.0
O218 O 0.31273 0.60508 0.74484 0.0
O219 O 0.48841 0.64417 -0.03087 0.0
O220 O 0.51932 0.47985 0.69743 0.0
O221 O 0.43482 0.57127 0.61692 0.0
O222 O 0.41056 0.70935 0.88235 0.0
O223 O 0.34257 0.58813 0.05696 0.0
C224 C 0.49707 0.34032 -0.01135 0.0
C225 C 0.62223 0.80941 0.42193 0.0
C226 C 0.59483 0.83806 0.22576 0.0
C227 C 0.66688 0.46615 0.03468 0.0
C228 C 0.73023 0.50272 0.07993 0.0
C229 C 0.75107 0.55884 0.2503 0.0
C230 C 0.76831 0.49196 0.95869 0.0
C231 C 0.82141 0.54271 0.00427 0.0
C232 C 0.79963 0.60731 0.29058 0.0
C233 C 0.83226 0.60262 0.16713 0.0
C234 C 0.48414 0.54147 0.36253 0.0
C235 C 0.465 0.73023 0.94071 0.0
C236 C 0.29513 0.60439 0.89417 0.0
C237 C 0.23173 0.56785 0.84821 0.0
C238 C 0.21092 0.51193 0.67746 0.0
C239 C 0.19355 0.5785 -0.03088 0.0
C240 C 0.14041 0.52776 0.92292 0.0
C241 C 0.16229 0.46354 0.63646 0.0
C242 C 0.12958 0.46809 0.75963 0.0
C243 C 0.47791 0.5289 0.56665 0.0
H244 H 0.72839 0.5688 0.35289 0.0
H245 H 0.75511 0.44836 0.82588 0.0
H246 H 0.81074 0.65044 0.42155 0.0
H247 H 0.86718 0.64619 0.1992 0.0
H248 H 0.23367 0.5021 0.57507 0.0
H249 H 0.20672 0.62195 0.10218 0.0
H250 H 0.15116 0.42062 0.50508 0.0
H251 H 0.09457 0.42462 0.72698 0.0
loop_
_geom_bond_atom_site_label_1
_geom_bond_atom_site_label_2
_geom_bond_distance
_geom_bond_site_symmetry_2
_ccdc_geom_bond_type
Gd0 N31 2.661 1_454 S
Gd0 N37 2.601 1_455 S
Gd0 O44 2.545 . S
Gd0 O45 2.606 . S
Gd0 O47 2.429 . S
Gd0 O48 2.545 . S
Gd0 O49 2.412 1_554 S
Gd0 O51 2.362 1_454 S
Gd0 O52 2.324 1_454 S
Gd0 C59 2.828 . S
Gd1 N10 2.661 1_656 S
Gd1 N14 2.601 1_655 S
Gd1 O45 2.362 1_656 S
Gd1 O46 2.324 1_656 S
Gd1 O50 2.545 . S
Gd1 O51 2.606 . S
Gd1 O53 2.429 . S
Gd1 O54 2.545 . S
Gd1 O55 2.412 1_556 S
Gd1 C68 2.828 . S
C2 C5 1.417 . S
C2 C7 1.431 . S
C2 C8 1.412 . S
C3 C6 1.437 . S
C3 C7 1.317 1_556 S
C3 H22 0.929 . S
C4 C5 1.426 1_556 S
C4 C6 1.413 . S
C4 N14 1.359 . S
C5 C2 1.417 . S
C5 C4 1.426 1_554 S
C5 N10 1.350 . S
C6 C3 1.437 . S
C6 C4 1.413 . S
C6 C16 1.391 . S
C7 C2 1.431 . S
C7 C3 1.317 1_554 S
C7 H18 0.930 . S
C8 C2 1.412 . S
C8 C9 1.355 . S
C8 H20 0.930 . S
C9 C8 1.355 . S
C9 C11 1.402 . S
C9 H21 0.930 . S
N10 Gd1 2.661 1_454 S
N10 C5 1.350 . S
N10 C11 1.307 . S
C11 C9 1.402 . S
C11 N10 1.307 . S
C11 H12 0.930 . S
H12 C11 0.930 . S
C13 N14 1.334 1_655 S
C13 C15 1.394 1_655 S
C13 H17 0.930 . S
N14 Gd1 2.601 1_455 S
N14 C4 1.359 . S
N14 C13 1.334 1_455 S
C15 C13 1.394 1_455 S
C15 C16 1.359 . S
C15 H27 0.930 1_455 S
C16 C6 1.391 . S
C16 C15 1.359 . S
C16 H28 0.929 . S
H17 C13 0.930 . S
H18 C7 0.930 . S
H19 C36 0.930 . S
H20 C8 0.930 . S
H21 C9 0.930 . S
H22 C3 0.929 . S
H23 C41 0.930 . S
H24 C32 0.930 . S
H25 C33 0.930 . S
H26 C57 0.929 . S
H27 C15 0.930 1_655 S
H28 C16 0.929 . S
H29 C58 0.930 . S
H30 C39 0.930 1_455 S
N31 Gd0 2.661 1_656 S
N31 C35 1.350 . S
N31 C36 1.307 . S
C32 H24 0.930 . S
C32 C33 1.355 . S
C32 C34 1.412 . S
C33 H25 0.930 . S
C33 C32 1.355 . S
C33 C36 1.402 . S
C34 C32 1.412 . S
C34 C35 1.417 . S
C34 C58 1.431 . S
C35 N31 1.350 . S
C35 C34 1.417 . S
C35 C38 1.426 1_556 S
C36 H19 0.930 . S
C36 N31 1.307 . S
C36 C33 1.402 . S
N37 Gd0 2.601 1_655 S
N37 C38 1.359 . S
N37 C41 1.334 1_655 S
C38 C35 1.426 1_554 S
C38 N37 1.359 . S
C38 C42 1.413 . S
C39 H30 0.930 1_655 S
C39 C40 1.359 . S
C39 C41 1.394 1_655 S
C40 C39 1.359 . S
C40 C42 1.391 . S
C40 H43 0.929 . S
C41 H23 0.930 . S
C41 N37 1.334 1_455 S
C41 C39 1.394 1_455 S
C42 C38 1.413 . S
C42 C40 1.391 . S
C42 C57 1.437 . S
H43 C40 0.929 . S
O44 Gd0 2.545 . S
O44 C59 1.258 . S
O45 Gd0 2.606 . S
O45 Gd1 2.362 1_454 S
O45 C56 1.284 . S
O46 Gd1 2.324 1_454 S
O46 C66 1.254 . S
O47 Gd0 2.429 . S
O47 C66 1.268 . S
O48 Gd0 2.545 . S
O48 C56 1.250 . S
O49 Gd0 2.412 1_556 S
O49 C59 1.252 1_556 S
O50 Gd1 2.545 . S
O50 C68 1.258 . S
O51 Gd0 2.362 1_656 S
O51 Gd1 2.606 . S
O51 C67 1.284 . S
O52 Gd0 2.324 1_656 S
O52 C75 1.254 . S
O53 Gd1 2.429 . S
O53 C75 1.268 . S
O54 Gd1 2.545 . S
O54 C67 1.250 . S
O55 Gd1 2.412 1_554 S
O55 C68 1.252 1_554 S
C56 O45 1.284 . S
C56 O48 1.250 . S
C57 H26 0.929 . S
C57 C42 1.437 . S
C57 C58 1.317 1_554 S
C58 H29 0.930 . S
C58 C34 1.431 . S
C58 C57 1.317 1_556 S
C59 Gd0 2.828 . S
C59 O44 1.258 . S
C59 O49 1.252 1_554 S
C59 C60 1.497 . S
C60 C59 1.497 . S
C60 C61 1.395 . S
C60 C62 1.380 1_554 S
C61 C60 1.395 . S
C61 C64 1.398 . S
C61 H76 0.930 . S
C62 C60 1.380 1_556 S
C62 C63 1.391 . S
C62 H77 0.930 . S
C63 C62 1.391 . S
C63 C65 1.387 1_556 S
C64 C61 1.398 . S
C64 C65 1.380 . S
C64 H78 0.930 . S
C65 C63 1.387 1_554 S
C65 C64 1.380 . S
C65 H79 0.930 . S
C66 O46 1.254 . S
C66 O47 1.268 . S
C67 O51 1.284 . S
C67 O54 1.250 . S
C68 Gd1 2.828 . S
C68 O50 1.258 . S
C68 O55 1.252 1_556 S
C68 C69 1.497 . S
C69 C68 1.497 . S
C69 C70 1.395 . S
C69 C71 1.380 1_556 S
C70 C69 1.395 . S
C70 C73 1.398 . S
C70 H80 0.930 . S
C71 C69 1.380 1_554 S
C71 C72 1.391 . S
C71 H81 0.930 . S
C72 C71 1.391 . S
C72 C74 1.387 1_554 S
C73 C70 1.398 . S
C73 C74 1.380 . S
C73 H82 0.930 . S
C74 C72 1.387 1_556 S
C74 C73 1.380 . S
C74 H83 0.930 . S
C75 O52 1.254 . S
C75 O53 1.268 . S
H76 C61 0.930 . S
H77 C62 0.930 . S
H78 C64 0.930 . S
H79 C65 0.930 . S
H80 C70 0.930 . S
H81 C71 0.930 . S
H82 C73 0.930 . S
H83 C74 0.930 . S
Gd84 N115 2.661 1_565 S
Gd84 N121 2.601 1_565 S
Gd84 O128 2.545 . S
Gd84 O129 2.606 1_556 S
Gd84 O131 2.429 . S
Gd84 O132 2.545 . S
Gd84 O133 2.412 . S
Gd84 O135 2.362 1_565 S
Gd84 O136 2.324 1_566 S
Gd84 C143 2.828 . S
Gd85 N94 2.661 1_545 S
Gd85 N98 2.601 1_545 S
Gd85 O129 2.362 1_545 S
Gd85 O130 2.324 1_544 S
Gd85 O134 2.545 . S
Gd85 O135 2.606 1_554 S
Gd85 O137 2.429 . S
Gd85 O138 2.545 . S
Gd85 O139 2.412 . S
Gd85 C152 2.828 . S
C86 C89 1.417 . S
C86 C91 1.431 . S
C86 C92 1.412 1_554 S
C87 C90 1.437 . S
C87 C91 1.317 . S
C87 H106 0.929 . S
C88 C89 1.426 . S
C88 C90 1.413 . S
C88 N98 1.359 . S
C89 C86 1.417 . S
C89 C88 1.426 . S
C89 N94 1.350 . S
C90 C87 1.437 . S
C90 C88 1.413 . S
C90 C100 1.391 . S
C91 C86 1.431 . S
C91 C87 1.317 . S
C91 H102 0.930 . S
C92 C86 1.412 1_556 S
C92 C93 1.355 . S
C92 H104 0.930 . S
C93 C92 1.355 . S
C93 C95 1.402 . S
C93 H105 0.930 . S
N94 Gd85 2.661 1_565 S
N94 C89 1.350 . S
N94 C95 1.307 1_554 S
C95 C93 1.402 . S
C95 N94 1.307 1_556 S
C95 H96 0.930 . S
H96 C95 0.930 . S
C97 N98 1.334 . S
C97 C99 1.394 . S
C97 H101 0.930 . S
N98 Gd85 2.601 1_565 S
N98 C88 1.359 . S
N98 C97 1.334 . S
C99 C97 1.394 . S
C99 C100 1.359 . S
C99 H111 0.930 . S
C100 C90 1.391 . S
C100 C99 1.359 . S
C100 H112 0.929 . S
H101 C97 0.930 . S
H102 C91 0.930 . S
H103 C120 0.930 . S
H104 C92 0.930 . S
H105 C93 0.930 . S
H106 C87 0.929 . S
H107 C125 0.930 . S
H108 C116 0.930 . S
H109 C117 0.930 . S
H110 C141 0.929 . S
H111 C99 0.930 . S
H112 C100 0.929 . S
H113 C142 0.930 . S
H114 C123 0.930 . S
N115 Gd84 2.661 1_545 S
N115 C119 1.350 . S
N115 C120 1.307 1_556 S
C116 H108 0.930 . S
C116 C117 1.355 . S
C116 C118 1.412 1_554 S
C117 H109 0.930 . S
C117 C116 1.355 . S
C117 C120 1.402 . S
C118 C116 1.412 1_556 S
C118 C119 1.417 . S
C118 C142 1.431 . S
C119 N115 1.350 . S
C119 C118 1.417 . S
C119 C122 1.426 . S
C120 H103 0.930 . S
C120 N115 1.307 1_554 S
C120 C117 1.402 . S
N121 Gd84 2.601 1_545 S
N121 C122 1.359 . S
N121 C125 1.334 . S
C122 C119 1.426 . S
C122 N121 1.359 . S
C122 C126 1.413 . S
C123 H114 0.930 . S
C123 C124 1.359 . S
C123 C125 1.394 . S
C124 C123 1.359 . S
C124 C126 1.391 . S
C124 H127 0.929 . S
C125 H107 0.930 . S
C125 N121 1.334 . S
C125 C123 1.394 . S
C126 C122 1.413 . S
C126 C124 1.391 . S
C126 C141 1.437 . S
H127 C124 0.929 . S
O128 Gd84 2.545 . S
O128 C143 1.258 . S
O129 Gd84 2.606 1_554 S
O129 Gd85 2.362 1_565 S
O129 C140 1.284 . S
O130 Gd85 2.324 1_566 S
O130 C150 1.254 . S
O131 Gd84 2.429 . S
O131 C150 1.270 . S
O132 Gd84 2.545 . S
O132 C140 1.250 1_556 S
O133 Gd84 2.412 . S
O133 C143 1.252 . S
O134 Gd85 2.545 . S
O134 C152 1.258 . S
O135 Gd84 2.362 1_545 S
O135 Gd85 2.606 1_556 S
O135 C151 1.284 . S
O136 Gd84 2.324 1_544 S
O136 C159 1.254 . S
O137 Gd85 2.429 . S
O137 C159 1.271 . S
O138 Gd85 2.545 . S
O138 C151 1.250 1_554 S
O139 Gd85 2.412 . S
O139 C152 1.252 . S
C140 O129 1.284 . S
C140 O132 1.250 1_554 S
C141 H110 0.929 . S
C141 C126 1.437 . S
C141 C142 1.317 . S
C142 H113 0.930 . S
C142 C118 1.431 . S
C142 C141 1.317 . S
C143 Gd84 2.828 . S
C143 O128 1.258 . S
C143 O133 1.252 . S
C143 C144 1.497 . S
C144 C143 1.497 . S
C144 C145 1.395 . S
C144 C146 1.380 . S
C145 C144 1.395 . S
C145 C148 1.398 . S
C145 H160 0.930 . S
C146 C144 1.380 . S
C146 C147 1.391 . S
C146 H161 0.930 1_556 S
C147 C146 1.391 . S
C147 C149 1.387 . S
C148 C145 1.398 . S
C148 C149 1.380 . S
C148 H162 0.930 . S
C149 C147 1.387 . S
C149 C148 1.380 . S
C149 H163 0.930 . S
C150 O130 1.254 . S
C150 O131 1.270 . S
C151 O135 1.284 . S
C151 O138 1.250 1_556 S
C152 Gd85 2.828 . S
C152 O134 1.258 . S
C152 O139 1.252 . S
C152 C153 1.497 . S
C153 C152 1.497 . S
C153 C154 1.395 . S
C153 C155 1.380 . S
C154 C153 1.395 . S
C154 C157 1.398 . S
C154 H164 0.930 . S
C155 C153 1.380 . S
C155 C156 1.391 . S
C155 H165 0.930 1_554 S
C156 C155 1.391 . S
C156 C158 1.387 . S
C157 C154 1.398 . S
C157 C158 1.380 . S
C157 H166 0.930 . S
C158 C156 1.387 . S
C158 C157 1.380 . S
C158 H167 0.930 . S
C159 O136 1.254 . S
C159 O137 1.271 . S
H160 C145 0.930 . S
H161 C146 0.930 1_554 S
H162 C148 0.930 . S
H163 C149 0.930 . S
H164 C154 0.930 . S
H165 C155 0.930 1_556 S
H166 C157 0.930 . S
H167 C158 0.930 . S
Gd168 N199 2.661 . S
Gd168 N205 2.601 . S
Gd168 O212 2.545 . S
Gd168 O213 2.606 1_554 S
Gd168 O215 2.429 . S
Gd168 O216 2.545 . S
Gd168 O217 2.412 . S
Gd168 O219 2.362 . S
Gd168 O220 2.324 1_554 S
Gd168 C227 2.828 . S
Gd169 N178 2.661 . S
Gd169 N182 2.601 . S
Gd169 O213 2.362 . S
Gd169 O214 2.324 1_556 S
Gd169 O218 2.545 . S
Gd169 O219 2.606 1_556 S
Gd169 O221 2.429 . S
Gd169 O222 2.545 . S
Gd169 O223 2.412 . S
Gd169 C236 2.828 . S
C170 C173 1.417 . S
C170 C175 1.431 . S
C170 C176 1.412 1_556 S
C171 C174 1.437 . S
C171 C175 1.317 . S
C171 H190 0.929 . S
C172 C173 1.426 . S
C172 C174 1.413 . S
C172 N182 1.359 . S
C173 C170 1.417 . S
C173 C172 1.426 . S
C173 N178 1.350 . S
C174 C171 1.437 . S
C174 C172 1.413 . S
C174 C184 1.391 . S
C175 C170 1.431 . S
C175 C171 1.317 . S
C175 H186 0.930 . S
C176 C170 1.412 1_554 S
C176 C177 1.355 . S
C176 H188 0.930 . S
C177 C176 1.355 . S
C177 C179 1.402 . S
C177 H189 0.930 . S
N178 Gd169 2.661 . S
N178 C173 1.350 . S
N178 C179 1.307 1_556 S
C179 C177 1.402 . S
C179 N178 1.307 1_554 S
C179 H180 0.930 . S
H180 C179 0.930 . S
C181 N182 1.334 . S
C181 C183 1.394 . S
C181 H185 0.930 . S
N182 Gd169 2.601 . S
N182 C172 1.359 . S
N182 C181 1.334 . S
C183 C181 1.394 . S
C183 C184 1.359 . S
C183 H195 0.930 . S
C184 C174 1.391 . S
C184 C183 1.359 . S
C184 H196 0.929 . S
H185 C181 0.930 . S
H186 C175 0.930 . S
H187 C204 0.930 . S
H188 C176 0.930 . S
H189 C177 0.930 . S
H190 C171 0.929 . S
H191 C209 0.930 . S
H192 C200 0.930 . S
H193 C201 0.930 . S
H194 C225 0.929 . S
H195 C183 0.930 . S
H196 C184 0.929 . S
H197 C226 0.930 . S
H198 C207 0.930 . S
N199 Gd168 2.661 . S
N199 C203 1.350 . S
N199 C204 1.307 1_554 S
C200 H192 0.930 . S
C200 C201 1.355 . S
C200 C202 1.412 1_556 S
C201 H193 0.930 . S
C201 C200 1.355 . S
C201 C204 1.402 . S
C202 C200 1.412 1_554 S
C202 C203 1.417 . S
C202 C226 1.431 . S
C203 N199 1.350 . S
C203 C202 1.417 . S
C203 C206 1.426 . S
C204 H187 0.930 . S
C204 N199 1.307 1_556 S
C204 C201 1.402 . S
N205 Gd168 2.601 . S
N205 C206 1.359 . S
N205 C209 1.334 . S
C206 C203 1.426 . S
C206 N205 1.359 . S
C206 C210 1.413 . S
C207 H198 0.930 . S
C207 C208 1.359 . S
C207 C209 1.394 . S
C208 C207 1.359 . S
C208 C210 1.391 . S
C208 H211 0.929 . S
C209 H191 0.930 . S
C209 N205 1.334 . S
C209 C207 1.394 . S
C210 C206 1.413 . S
C210 C208 1.391 . S
C210 C225 1.437 . S
H211 C208 0.929 . S
O212 Gd168 2.545 . S
O212 C227 1.258 . S
O213 Gd168 2.606 1_556 S
O213 Gd169 2.362 . S
O213 C224 1.284 . S
O214 Gd169 2.324 1_554 S
O214 C234 1.254 . S
O215 Gd168 2.429 . S
O215 C234 1.268 . S
O216 Gd168 2.545 . S
O216 C224 1.250 1_554 S
O217 Gd168 2.412 . S
O217 C227 1.252 . S
O218 Gd169 2.545 . S
O218 C236 1.258 . S
O219 Gd168 2.362 . S
O219 Gd169 2.606 1_554 S
O219 C235 1.284 . S
O220 Gd168 2.324 1_556 S
O220 C243 1.254 . S
O221 Gd169 2.429 . S
O221 C243 1.268 . S
O222 Gd169 2.545 . S
O222 C235 1.250 1_556 S
O223 Gd169 2.412 . S
O223 C236 1.252 . S
C224 O213 1.284 . S
C224 O216 1.250 1_556 S
C225 H194 0.929 . S
C225 C210 1.437 . S
C225 C226 1.317 . S
C226 H197 0.930 . S
C226 C202 1.431 . S
C226 C225 1.317 . S
C227 Gd168 2.828 . S
C227 O212 1.258 . S
C227 O217 1.252 . S
C227 C228 1.497 . S
C228 C227 1.497 . S
C228 C229 1.395 . S
C228 C230 1.380 . S
C229 C228 1.395 . S
C229 C232 1.398 . S
C229 H244 0.930 . S
C230 C228 1.380 . S
C230 C231 1.391 . S
C230 H245 0.930 1_554 S
C231 C230 1.391 . S
C231 C233 1.387 . S
C232 C229 1.398 . S
C232 C233 1.380 . S
C232 H246 0.930 . S
C233 C231 1.387 . S
C233 C232 1.380 . S
C233 H247 0.930 . S
C234 O214 1.254 . S
C234 O215 1.268 . S
C235 O219 1.284 . S
C235 O222 1.250 1_554 S
C236 Gd169 2.828 . S
C236 O218 1.258 . S
C236 O223 1.252 . S
C236 C237 1.497 . S
C237 C236 1.497 . S
C237 C238 1.395 . S
C237 C239 1.380 . S
C238 C237 1.395 . S
C238 C241 1.398 . S
C238 H248 0.930 . S
C239 C237 1.380 . S
C239 C240 1.391 . S
C239 H249 0.930 1_556 S
C240 C239 1.391 . S
C240 C242 1.387 . S
C241 C238 1.398 . S
C241 C242 1.380 . S
C241 H250 0.930 . S
C242 C240 1.387 . S
C242 C241 1.380 . S
C242 H251 0.930 . S
C243 O220 1.254 . S
C243 O221 1.268 . S
H244 C229 0.930 . S
H245 C230 0.930 1_556 S
H246 C232 0.930 . S
H247 C233 0.930 . S
H248 C238 0.930 . S
H249 C239 0.930 1_554 S
H250 C241 0.930 . S
H251 C242 0.930 . S
C75 C66 1.615 1_655 S
C159 C150 1.368 1_545 S
C243 C234 1.417 . S
C56 C240 3.121 1_554 S
C156 C72 1.323 . S
C140 C235 3.565 . S
C67 C231 3.121 1_556 S
C63 C147 1.322 . S
C224 C151 3.564 . S
