# Generated by pormake.
# Topology vmr, (7)-cn, num edge types: 1
# Building blocks:
#     Node 0, Type 0, BuildingBlock: HICVOG_clean_sbu_0, # of connection points: 7
#     Node 1, Type 0, BuildingBlock: HICVOG_clean_sbu_0, # of connection points: 7
#     Node 2, Type 0, BuildingBlock: HICVOG_clean_sbu_0, # of connection points: 7
#     Node 3, Type 0, BuildingBlock: HICVOG_clean_sbu_0, # of connection points: 7
#     Edge 4, Type (0, 0), BuildingBlock: KIFKEQ_clean_linker_1, # of connection points: 2
#     Edge 5, Type (0, 0), BuildingBlock: KIFKEQ_clean_linker_1, # of connection points: 2
#     Edge 6, Type (0, 0), BuildingBlock: KIFKEQ_clean_linker_1, # of connection points: 2
#     Edge 7, Type (0, 0), BuildingBlock: KIFKEQ_clean_linker_1, # of connection points: 2
#     Edge 8, Type (0, 0), BuildingBlock: KIFKEQ_clean_linker_1, # of connection points: 2
#     Edge 9, Type (0, 0), BuildingBlock: KIFKEQ_clean_linker_1, # of connection points: 2
#     Edge 10, Type (0, 0), BuildingBlock: KIFKEQ_clean_linker_1, # of connection points: 2
#     Edge 11, Type (0, 0), BuildingBlock: KIFKEQ_clean_linker_1, # of connection points: 2
#     Edge 12, Type (0, 0), BuildingBlock: KIFKEQ_clean_linker_1, # of connection points: 2
#     Edge 13, Type (0, 0), BuildingBlock: KIFKEQ_clean_linker_1, # of connection points: 2
#     Edge 14, Type (0, 0), BuildingBlock: KIFKEQ_clean_linker_1, # of connection points: 2
#     Edge 15, Type (0, 0), BuildingBlock: KIFKEQ_clean_linker_1, # of connection points: 2
#     Edge 16, Type (0, 0), BuildingBlock: KIFKEQ_clean_linker_1, # of connection points: 2
#     Edge 17, Type (0, 0), BuildingBlock: KIFKEQ_clean_linker_1, # of connection points: 2
# Relax obj value: 0.076
# Max RMSD: 0.173
# Mean RMSD: 0.173
data_MOF--net-vmr--node1-HICVOG_clean_sbu_0--edge1-KIFKEQ_clean_linker_1
_symmetry_space_group_name_H-M    P1
_symmetry_Int_Tables_number       1
_symmetry_cell_setting            triclinic
loop_
_symmetry_equiv_pos_as_xyz
'x, y, z'
_cell_length_a     25.795132
_cell_length_b     21.921748
_cell_length_c     36.467916
_cell_angle_alpha  90.25949
_cell_angle_beta   122.61328
_cell_angle_gamma 89.847287
loop_
_atom_site_label
_atom_site_type_symbol
_atom_site_fract_x
_atom_site_fract_y
_atom_site_fract_z
_atom_type_partial_charge
Zn0 Zn 0.23569 0.37977 0.16063 0.0
C1 C 0.09773 0.36046 0.18016 0.0
N2 N 0.06592 0.39203 0.14285 0.0
C3 C 0.10537 0.39446 0.12966 0.0
N4 N 0.15936 0.3669 0.15783 0.0
N5 N 0.15398 0.34419 0.18921 0.0
C6 C 0.22893 0.23787 0.31106 0.0
O7 O 0.26167 0.19657 0.30605 0.0
O8 O 0.22014 0.3745 0.10006 0.0
Zn9 Zn 0.19709 0.27362 0.22484 0.0
N10 N 0.26682 0.46062 0.18534 0.0
C11 C 0.25898 0.54705 0.2218 0.0
C12 C 0.23978 0.48901 0.20409 0.0
C13 C 0.31411 0.48758 0.18484 0.0
N14 N 0.30551 0.57412 0.22099 0.0
C15 C 0.33438 0.54621 0.20333 0.0
O16 O 0.28352 0.25841 0.23807 0.0
C17 C 0.31853 0.27622 0.22554 0.0
O18 O 0.30252 0.31869 0.19772 0.0
H19 H 0.20316 0.467 0.20508 0.0
H20 H 0.33501 0.46383 0.16992 0.0
C21 C 0.12949 0.15994 0.20761 0.0
C22 C 0.09584 0.10927 0.1817 0.0
C23 C 0.10178 0.14972 0.12372 0.0
C24 C 0.13577 0.19911 0.14974 0.0
N25 N 0.14904 0.20331 0.19111 0.0
N26 N 0.08275 0.10613 0.14022 0.0
H27 H 0.1393 0.16556 0.24018 0.0
C28 C 0.21765 0.32157 0.08475 0.0
O29 O 0.22318 0.27374 0.10817 0.0
O30 O 0.19839 0.27653 0.28094 0.0
H31 H 0.1514 0.23411 0.13712 0.0
H32 H 0.23732 0.57038 0.23634 0.0
H33 H 0.09072 0.14592 0.09066 0.0
Zn34 Zn 0.83944 0.77229 0.27714 0.0
C35 C 0.93371 0.88799 0.37397 0.0
N36 N 0.97359 0.88343 0.36119 0.0
C37 C 0.94 0.85592 0.32219 0.0
N38 N 0.88247 0.84346 0.31198 0.0
N39 N 0.8778 0.8653 0.34398 0.0
C40 C 0.82151 0.834 0.41986 0.0
O41 O 0.82049 0.78234 0.40108 0.0
O42 O 0.84084 0.77005 0.22222 0.0
Zn43 Zn 0.80072 0.88056 0.33986 0.0
N44 N 0.88635 0.70257 0.31182 0.0
C45 C 0.93405 0.65043 0.37948 0.0
C46 C 0.90013 0.6996 0.35334 0.0
C47 C 0.90496 0.65815 0.29519 0.0
N48 N 0.95258 0.60597 0.36296 0.0
C49 C 0.93882 0.60788 0.32129 0.0
O50 O 0.7347 0.81731 0.305 0.0
C51 C 0.71838 0.77529 0.27655 0.0
O52 O 0.75265 0.75858 0.26303 0.0
H53 H 0.88503 0.73537 0.36599 0.0
H54 H 0.89422 0.66283 0.26231 0.0
C55 C 0.71802 0.98522 0.30814 0.0
C56 C 0.69452 0.04045 0.28509 0.0
C57 C 0.77329 0.03967 0.26985 0.0
C58 C 0.79582 0.985 0.29219 0.0
N59 N 0.76809 0.95877 0.31101 0.0
N60 N 0.72335 0.06577 0.26668 0.0
H61 H 0.69607 0.96253 0.32256 0.0
C62 C 0.79905 0.7926 0.18611 0.0
O63 O 0.75215 0.82048 0.18369 0.0
O64 O 0.81498 0.88374 0.4 0.0
H65 H 0.83508 0.96357 0.2943 0.0
H66 H 0.94561 0.64756 0.41268 0.0
H67 H 0.79498 0.06102 0.25476 0.0
Zn68 Zn 0.83353 0.78758 0.77524 0.0
C69 C 0.9261 0.6597 0.86679 0.0
N70 N 0.96224 0.66142 0.85073 0.0
C71 C 0.93119 0.69807 0.81612 0.0
N72 N 0.87826 0.71798 0.81122 0.0
N73 N 0.87406 0.69279 0.84253 0.0
C74 C 0.80488 0.74123 0.91267 0.0
O75 O 0.79125 0.78792 0.88656 0.0
O76 O 0.83576 0.78656 0.72065 0.0
Zn77 Zn 0.79738 0.67987 0.84027 0.0
N78 N 0.876 0.8604 0.80842 0.0
C79 C 0.89625 0.92693 0.86645 0.0
C80 C 0.87094 0.87325 0.84282 0.0
C81 C 0.90649 0.89878 0.79703 0.0
N82 N 0.92551 0.96588 0.85461 0.0
C83 C 0.93178 0.9534 0.82059 0.0
O84 O 0.72811 0.7382 0.80071 0.0
C85 C 0.71065 0.77916 0.77164 0.0
O86 O 0.74552 0.7977 0.75922 0.0
H87 H 0.84649 0.84231 0.85128 0.0
H88 H 0.90923 0.88785 0.76917 0.0
C89 C 0.72053 0.57098 0.81883 0.0
C90 C 0.7021 0.51086 0.80288 0.0
C91 C 0.78067 0.50668 0.78754 0.0
C92 C 0.798 0.5661 0.80267 0.0
N93 N 0.76849 0.597 0.81866 0.0
N94 N 0.73346 0.48065 0.788 0.0
H95 H 0.69766 0.59662 0.83156 0.0
C96 C 0.80756 0.82692 0.69146 0.0
O97 O 0.77525 0.86857 0.69661 0.0
O98 O 0.81122 0.68888 0.90034 0.0
H99 H 0.83475 0.58729 0.80148 0.0
H100 H 0.89207 0.93793 0.89369 0.0
H101 H 0.80424 0.4815 0.77515 0.0
Zn102 Zn 0.19297 0.28954 0.72398 0.0
C103 C 0.10502 0.1581 0.63448 0.0
N104 N 0.06821 0.15876 0.64998 0.0
C105 C 0.09776 0.19643 0.6844 0.0
N106 N 0.15053 0.21764 0.68975 0.0
N107 N 0.15595 0.19241 0.65888 0.0
C108 C 0.21938 0.23114 0.58464 0.0
O109 O 0.22779 0.28211 0.60624 0.0
O110 O 0.18965 0.29324 0.77805 0.0
Zn111 Zn 0.23298 0.17949 0.66202 0.0
N112 N 0.14858 0.36013 0.68905 0.0
C113 C 0.12391 0.42331 0.62883 0.0
C114 C 0.15108 0.37085 0.65339 0.0
C115 C 0.11906 0.39944 0.70089 0.0
N116 N 0.09539 0.46312 0.641 0.0
C117 C 0.09174 0.45267 0.67632 0.0
O118 O 0.30011 0.24111 0.69923 0.0
C119 C 0.31619 0.28323 0.7276 0.0
O120 O 0.28084 0.30126 0.73987 0.0
H121 H 0.17494 0.33925 0.64463 0.0
H122 H 0.11864 0.39029 0.72987 0.0
C123 C 0.3106 0.07082 0.68581 0.0
C124 C 0.33024 1.01194 0.70378 0.0
C125 C 0.25591 1.01281 0.72328 0.0
C126 C 0.23727 0.07099 0.706 0.0
N127 N 0.26415 0.09875 0.68707 0.0
N128 N 0.30161 0.98482 0.72174 0.0
H129 H 0.33118 0.09389 0.67055 0.0
C130 C 0.22872 0.26773 0.81377 0.0
O131 O 0.27374 0.23594 0.81624 0.0
O132 O 0.21855 0.18095 0.60167 0.0
H133 H 0.20137 0.09366 0.70763 0.0
H134 H 0.12602 0.43268 0.60057 0.0
H135 H 0.23443 0.99007 0.73803 0.0
H136 H 0.35814 0.1667 0.26881 0.0
H137 H 0.4125 0.31168 0.21652 0.0
H138 H 0.44925 0.10832 0.28553 0.0
H139 H 0.50391 0.25445 0.23427 0.0
H140 H 0.61332 0.11038 0.21668 0.0
H141 H 0.52546 0.16678 0.20619 0.0
H142 H 0.56113 0.09976 0.32895 0.0
H143 H 0.64939 0.04202 0.33928 0.0
C144 C 0.38998 0.18661 0.26154 0.0
C145 C 0.37749 0.24369 0.24084 0.0
C146 C 0.44238 0.15314 0.27124 0.0
C147 C 0.4836 0.17608 0.26062 0.0
C148 C 0.47245 0.23446 0.24187 0.0
C149 C 0.4201 0.26761 0.23195 0.0
C150 C 0.60266 0.10746 0.24157 0.0
C151 C 0.63874 0.07145 0.27883 0.0
C152 C 0.55227 0.14027 0.23565 0.0
C153 C 0.53647 0.13875 0.267 0.0
C154 C 0.57166 0.10177 0.30398 0.0
C155 C 0.62226 0.06846 0.30985 0.0
H156 H 0.34806 0.66845 0.20061 0.0
H157 H 0.43973 0.49789 0.21187 0.0
H158 H 0.43755 0.72419 0.21313 0.0
H159 H 0.53007 0.55398 0.22507 0.0
H160 H 0.66936 0.67821 0.2196 0.0
H161 H 0.5742 0.62286 0.19626 0.0
H162 H 0.53913 0.74286 0.27481 0.0
H163 H 0.63297 0.79864 0.29736 0.0
C164 C 0.38721 0.64275 0.20545 0.0
C165 C 0.38653 0.5786 0.20529 0.0
C166 C 0.43876 0.67481 0.21288 0.0
C167 C 0.49156 0.64372 0.22079 0.0
C168 C 0.49009 0.57948 0.21879 0.0
C169 C 0.43813 0.54724 0.21111 0.0
C170 C 0.64106 0.69311 0.23161 0.0
C171 C 0.65902 0.7431 0.26037 0.0
C172 C 0.58666 0.66105 0.21842 0.0
C173 C 0.54874 0.67836 0.23351 0.0
C174 C 0.56649 0.72874 0.26187 0.0
C175 C 0.62072 0.76064 0.27507 0.0
H176 H 0.34182 0.88928 0.70023 0.0
H177 H 0.43531 0.05789 0.71084 0.0
H178 H 0.42942 0.83168 0.71071 0.0
H179 H 0.52379 0.99997 0.72207 0.0
H180 H 0.66011 0.87498 0.71422 0.0
H181 H 0.56541 0.9306 0.69193 0.0
H182 H 0.53134 0.81044 0.77027 0.0
H183 H 0.62478 0.75429 0.79174 0.0
C184 C 0.38096 0.91417 0.70451 0.0
C185 C 0.3813 0.97835 0.70473 0.0
C186 C 0.43147 0.88102 0.71078 0.0
C187 C 0.48426 0.91098 0.71787 0.0
C188 C 0.48378 0.97524 0.71634 0.0
C189 C 0.43287 1.00857 0.70981 0.0
C190 C 0.63201 0.85992 0.72627 0.0
C191 C 0.65031 0.80992 0.75481 0.0
C192 C 0.57789 0.89222 0.71374 0.0
C193 C 0.54052 0.87525 0.72927 0.0
C194 C 0.55825 0.82444 0.75704 0.0
C195 C 0.61224 0.79226 0.76957 0.0
H196 H 0.68939 0.38915 0.80909 0.0
H197 H 0.59429 0.55997 0.7901 0.0
H198 H 0.59946 0.33382 0.7961 0.0
H199 H 0.50361 0.5042 0.77658 0.0
H200 H 0.36307 0.38263 0.78248 0.0
H201 H 0.45835 0.43792 0.80618 0.0
H202 H 0.49905 0.31209 0.7335 0.0
H203 H 0.40491 0.25641 0.71051 0.0
C204 C 0.64941 0.41505 0.80246 0.0
C205 C 0.64933 0.47915 0.80059 0.0
C206 C 0.5976 0.38318 0.79476 0.0
C207 C 0.54379 0.41435 0.78463 0.0
C208 C 0.54438 0.47864 0.78459 0.0
C209 C 0.59656 0.51072 0.79247 0.0
C210 C 0.39265 0.36637 0.7719 0.0
C211 C 0.3761 0.31483 0.74457 0.0
C212 C 0.44711 0.39843 0.78525 0.0
C213 C 0.48659 0.37958 0.77184 0.0
C214 C 0.47041 0.32751 0.74509 0.0
C215 C 0.41604 0.29564 0.73167 0.0
H216 H 0.14633 0.06984 0.26625 0.0
H217 H 0.99646 0.03464 0.13393 0.0
H218 H 0.10698 0.99222 0.29207 0.0
H219 H 0.95839 0.95471 0.15991 0.0
H220 H 0.8693 0.8996 0.23994 0.0
H221 H 0.90834 0.95008 0.20028 0.0
H222 H 0.09129 0.88458 0.29457 0.0
H223 H 0.05185 0.8349 0.3345 0.0
C224 C 0.10486 0.04582 0.24254 0.0
C225 C 0.07379 0.05987 0.19797 0.0
C226 C 0.08292 1.00013 0.25735 0.0
C227 C 0.02956 0.96683 0.22806 0.0
C228 C 0.99935 0.97969 0.18339 0.0
C229 C 0.02136 1.02545 0.16853 0.0
C230 C 0.91714 0.89308 0.25078 0.0
C231 C 0.95751 0.86294 0.29009 0.0
C232 C 0.93981 0.92268 0.2283 0.0
C233 C 1.00333 0.92281 0.2449 0.0
C234 C 0.04239 0.88674 0.28154 0.0
C235 C 0.01973 0.85743 0.30406 0.0
H236 H 0.16791 0.4019 0.26311 0.0
H237 H 0.98638 0.33589 0.16744 0.0
H238 H 0.12773 0.45069 0.30294 0.0
H239 H 0.94597 0.38298 0.20784 0.0
H240 H 0.88786 0.56664 0.23689 0.0
H241 H 0.92808 0.48954 0.211 0.0
H242 H 0.07762 0.45424 0.34306 0.0
H243 H 0.0387 0.53387 0.3691 0.0
C244 C 0.12007 0.39474 0.25205 0.0
C245 C 0.08024 0.36486 0.21239 0.0
C246 C 0.09676 0.42326 0.27466 0.0
C247 C 0.03321 0.42219 0.25796 0.0
C248 C 0.99485 0.38607 0.22099 0.0
C249 C 0.01809 0.35815 0.19822 0.0
C250 C 0.92968 0.5432 0.26057 0.0
C251 C 0.96085 0.55796 0.3051 0.0
C252 C 0.95215 0.49776 0.24572 0.0
C253 C 1.00614 0.46534 0.27494 0.0
C254 C 0.03624 0.4786 0.31962 0.0
C255 C 1.01372 0.52417 0.33452 0.0
H256 H 1.01013 0.93136 0.79285 0.0
H257 H 0.92467 0.07731 0.82179 0.0
H258 H 0.05916 1.0063 0.77163 0.0
H259 H 0.97324 0.15233 0.7999 0.0
H260 H 0.99209 0.22353 0.68017 0.0
H261 H 0.95754 0.17208 0.72273 0.0
H262 H 0.13926 0.09646 0.80634 0.0
H263 H 0.17376 0.14861 0.76407 0.0
C264 C 1.00173 0.9794 0.7946 0.0
C265 C 0.96293 0.99841 0.80848 0.0
C266 C 0.03046 1.02233 0.78303 0.0
C267 C 0.02032 0.08515 0.78446 0.0
C268 C 0.982 0.10424 0.79869 0.0
C269 C 0.95425 0.06131 0.81114 0.0
C270 C 0.02546 0.19895 0.70924 0.0
C271 C 0.08582 0.19101 0.71939 0.0
C272 C 1.0056 0.16899 0.73335 0.0
C273 C 0.04553 0.12952 0.76735 0.0
C274 C 0.10748 0.1263 0.78008 0.0
C275 C 0.12753 0.15707 0.7564 0.0
H276 H 0.09753 0.57658 0.67377 0.0
H277 H 0.01581 0.43176 0.70601 0.0
H278 H 0.05007 0.65241 0.69654 0.0
H279 H 0.96769 0.50742 0.72792 0.0
H280 H 0.85346 0.65126 0.73601 0.0
H281 H 0.88652 0.59816 0.69285 0.0
H282 H 0.06905 0.67248 0.77555 0.0
H283 H 0.03624 0.72424 0.81934 0.0
C284 C 0.06895 0.56101 0.68529 0.0
C285 C 0.06105 0.49823 0.68867 0.0
C286 C 0.04182 0.60438 0.69822 0.0
C287 C 1.00484 0.58577 0.71359 0.0
C288 C 0.99537 0.52305 0.71565 0.0
C289 C 0.02354 0.47973 0.70366 0.0
C290 C 0.89965 0.65901 0.74343 0.0
C291 C 0.94217 0.69248 0.78063 0.0
C292 C 0.91881 0.62783 0.71917 0.0
C293 C 0.98052 0.63057 0.7313 0.0
C294 C 0.02116 0.66979 0.7654 0.0
C295 C 1.00229 0.69992 0.79021 0.0
H296 H 0.95468 0.5413 0.86975 0.0
H297 H 0.93298 0.6824 0.94315 0.0
H298 H 1.00287 0.47537 0.93315 0.0
H299 H 0.9784 0.61512 0.00666 0.0
H300 H 0.12786 0.51401 0.12501 0.0
H301 H 0.07865 0.57662 0.05939 0.0
H302 H 0.99061 0.41551 0.98143 0.0
H303 H 0.04234 0.35328 0.04715 0.0
C304 C 0.95831 0.55726 0.89923 0.0
C305 C 0.93911 0.61638 0.90145 0.0
C306 C 0.986 0.51949 0.93564 0.0
C307 C 0.99528 0.53998 0.97531 0.0
C308 C 0.97305 0.59823 0.97685 0.0
C309 C 0.94551 0.63627 0.94024 0.0
C310 C 0.10017 0.49194 0.09361 0.0
C311 C 0.09045 0.42878 0.09074 0.0
C312 C 0.07059 0.52789 0.05608 0.0
C313 C 0.02978 0.50137 0.01503 0.0
C314 C 0.02206 0.43758 0.0123 0.0
C315 C 0.05203 0.40174 0.04982 0.0
H316 H 0.02491 0.85693 0.45441 0.0
H317 H 0.88525 0.99335 0.38365 0.0
H318 H 0.07276 0.92133 0.51948 0.0
H319 H 0.93328 0.05851 0.44878 0.0
H320 H 0.08298 0.18494 0.5545 0.0
H321 H 0.03722 0.11574 0.49136 0.0
H322 H 0.05076 0.967 0.57338 0.0
H323 H 0.09601 0.03611 0.63593 0.0
C324 C 1.00344 0.90003 0.45332 0.0
C325 C 0.95082 0.91984 0.41449 0.0
C326 C 0.03106 0.93705 0.49037 0.0
C327 C 1.00727 0.99526 0.48897 0.0
C328 C 0.95305 1.01414 0.45051 0.0
C329 C 0.92485 0.97652 0.41353 0.0
C330 C 0.07796 0.13701 0.55904 0.0
C331 C 0.09391 0.11528 0.59993 0.0
C332 C 0.05077 0.09775 0.52294 0.0
C333 C 0.03962 0.03623 0.52743 0.0
C334 C 0.05882 1.01409 0.56895 0.0
C335 C 0.08515 0.05341 0.60476 0.0
H336 H 0.29904 0.21289 0.89316 0.0
H337 H 0.14659 0.33736 0.8213 0.0
H338 H 0.29242 0.22584 0.95696 0.0
H339 H 0.13974 0.34986 0.88514 0.0
H340 H 0.2011 0.40942 0.02592 0.0
H341 H 0.20074 0.39552 0.9592 0.0
H342 H 0.22324 0.20129 0.98187 0.0
H343 H 0.22422 0.21506 0.04851 0.0
C344 C 0.26396 0.24283 0.8909 0.0
C345 C 0.22354 0.27424 0.85217 0.0
C346 C 0.25994 0.24999 0.92741 0.0
C347 C 0.21556 0.28892 0.92614 0.0
C348 C 0.17485 0.32007 0.88731 0.0
C349 C 0.17862 0.31262 0.85068 0.0
C350 C 0.20567 0.36375 0.01653 0.0
C351 C 0.21315 0.31343 0.04274 0.0
C352 C 0.20514 0.35575 0.97819 0.0
C353 C 0.21245 0.29733 0.96542 0.0
C354 C 0.2185 0.24698 0.99115 0.0
C355 C 0.21867 0.2549 0.02925 0.0
H356 H 0.75003 0.90447 0.62214 0.0
H357 H 0.87729 0.75308 0.67365 0.0
H358 H 0.75788 0.90686 0.55855 0.0
H359 H 0.88605 0.7562 0.61036 0.0
H360 H 0.82547 0.73512 0.46659 0.0
H361 H 0.82506 0.73416 0.53317 0.0
H362 H 0.82812 0.93122 0.53595 0.0
H363 H 0.82724 0.93223 0.46869 0.0
C364 C 0.7799 0.87182 0.62001 0.0
C365 C 0.81272 0.82834 0.6529 0.0
C366 C 0.78479 0.87352 0.58367 0.0
C367 C 0.82269 0.83182 0.57931 0.0
C368 C 0.85584 0.78852 0.61237 0.0
C369 C 0.85092 0.78681 0.64874 0.0
C370 C 0.82644 0.7783 0.48151 0.0
C371 C 0.82588 0.83376 0.46209 0.0
C372 C 0.82654 0.77772 0.51987 0.0
C373 C 0.82622 0.8326 0.53985 0.0
C374 C 0.8273 0.88811 0.52103 0.0
C375 C 0.82713 0.8887 0.48259 0.0
H376 H 0.83527 0.65599 0.9762 0.0
H377 H 0.78434 0.84532 0.94421 0.0
H378 H 0.83632 0.66933 0.04322 0.0
H379 H 0.78625 0.8587 0.01119 0.0
H380 H 0.71984 0.83833 0.10464 0.0
H381 H 0.72454 0.82605 0.04004 0.0
H382 H 0.89208 0.72156 0.11462 0.0
H383 H 0.88709 0.73323 0.17927 0.0
C384 C 0.82468 0.70049 0.98357 0.0
C385 C 0.80926 0.74944 0.95465 0.0
C386 C 0.82562 0.70823 0.02208 0.0
C387 C 0.81091 0.765 0.03241 0.0
C388 C 0.79679 0.81414 0.00389 0.0
C389 C 0.79608 0.8065 0.96557 0.0
C390 C 0.75779 0.81285 0.10735 0.0
C391 C 0.80296 0.78665 0.14713 0.0
C392 C 0.76067 0.80607 0.07034 0.0
C393 C 0.80871 0.7728 0.07214 0.0
C394 C 0.8541 0.74686 0.11199 0.0
C395 C 0.85138 0.75387 0.1491 0.0
H396 H 0.2237 0.33035 0.54125 0.0
H397 H 0.20525 0.13409 0.53231 0.0
H398 H 0.22349 0.33176 0.47439 0.0
H399 H 0.20418 0.13566 0.46497 0.0
H400 H 0.28332 0.15751 0.37885 0.0
H401 H 0.27692 0.15569 0.44308 0.0
H402 H 0.15855 0.31401 0.396 0.0
H403 H 0.16564 0.31635 0.33196 0.0
C404 C 0.21904 0.28751 0.52483 0.0
C405 C 0.21494 0.23206 0.54236 0.0
C406 C 0.2186 0.28838 0.48632 0.0
C407 C 0.21415 0.23381 0.46439 0.0
C408 C 0.20865 0.17844 0.4814 0.0
C409 C 0.20893 0.17757 0.51989 0.0
C410 C 0.25597 0.19203 0.38216 0.0
C411 C 0.22522 0.23726 0.35028 0.0
C412 C 0.25189 0.19066 0.41887 0.0
C413 C 0.21708 0.23458 0.42469 0.0
C414 C 0.18627 0.27984 0.39278 0.0
C415 C 0.19019 0.28109 0.35597 0.0
loop_
_geom_bond_atom_site_label_1
_geom_bond_atom_site_label_2
_geom_bond_distance
_geom_bond_site_symmetry_2
_ccdc_geom_bond_type
Zn0 N4 2.020 . S
Zn0 O8 2.019 . S
Zn0 N10 2.119 . S
Zn0 O18 1.975 . S
C1 N2 1.334 . S
C1 N5 1.336 . S
N2 C1 1.334 . S
N2 C3 1.334 . S
C3 N2 1.334 . S
C3 N4 1.336 . S
N4 Zn0 2.020 . S
N4 C3 1.336 . S
N4 N5 1.354 . S
N5 C1 1.336 . S
N5 N4 1.354 . S
N5 Zn9 2.020 . S
C6 O7 1.244 . S
C6 O30 1.257 . S
O7 C6 1.244 . S
O8 Zn0 2.019 . S
O8 C28 1.257 . S
Zn9 N5 2.020 . S
Zn9 O16 1.975 . S
Zn9 N25 2.119 . S
Zn9 O30 2.019 . S
N10 Zn0 2.119 . S
N10 C12 1.334 . S
N10 C13 1.328 . S
C11 C12 1.391 . S
C11 N14 1.329 . S
C11 H32 0.930 . S
C12 N10 1.334 . S
C12 C11 1.391 . S
C12 H19 0.930 . S
C13 N10 1.328 . S
C13 C15 1.392 . S
C13 H20 0.930 . S
N14 C11 1.329 . S
N14 C15 1.331 . S
C15 C13 1.392 . S
C15 N14 1.331 . S
O16 Zn9 1.975 . S
O16 C17 1.252 . S
C17 O16 1.252 . S
C17 O18 1.252 . S
O18 Zn0 1.975 . S
O18 C17 1.252 . S
H19 C12 0.930 . S
H20 C13 0.930 . S
C21 C22 1.392 . S
C21 N25 1.328 . S
C21 H27 0.930 . S
C22 C21 1.392 . S
C22 N26 1.331 . S
C23 C24 1.391 . S
C23 N26 1.329 . S
C23 H33 0.930 . S
C24 C23 1.391 . S
C24 N25 1.334 . S
C24 H31 0.930 . S
N25 Zn9 2.119 . S
N25 C21 1.328 . S
N25 C24 1.334 . S
N26 C22 1.331 . S
N26 C23 1.329 . S
H27 C21 0.930 . S
C28 O8 1.257 . S
C28 O29 1.244 . S
O29 C28 1.244 . S
O30 C6 1.257 . S
O30 Zn9 2.019 . S
H31 C24 0.930 . S
H32 C11 0.930 . S
H33 C23 0.930 . S
Zn34 N38 2.020 . S
Zn34 O42 2.019 . S
Zn34 N44 2.119 . S
Zn34 O52 1.975 . S
C35 N36 1.334 . S
C35 N39 1.336 . S
N36 C35 1.334 . S
N36 C37 1.334 . S
C37 N36 1.334 . S
C37 N38 1.336 . S
N38 Zn34 2.020 . S
N38 C37 1.336 . S
N38 N39 1.354 . S
N39 C35 1.336 . S
N39 N38 1.354 . S
N39 Zn43 2.020 . S
C40 O41 1.244 . S
C40 O64 1.257 . S
O41 C40 1.244 . S
O42 Zn34 2.019 . S
O42 C62 1.257 . S
Zn43 N39 2.020 . S
Zn43 O50 1.975 . S
Zn43 N59 2.119 . S
Zn43 O64 2.019 . S
N44 Zn34 2.119 . S
N44 C46 1.334 . S
N44 C47 1.328 . S
C45 C46 1.391 . S
C45 N48 1.329 . S
C45 H66 0.930 . S
C46 N44 1.334 . S
C46 C45 1.391 . S
C46 H53 0.930 . S
C47 N44 1.328 . S
C47 C49 1.392 . S
C47 H54 0.930 . S
N48 C45 1.329 . S
N48 C49 1.331 . S
C49 C47 1.392 . S
C49 N48 1.331 . S
O50 Zn43 1.975 . S
O50 C51 1.252 . S
C51 O50 1.252 . S
C51 O52 1.252 . S
O52 Zn34 1.975 . S
O52 C51 1.252 . S
H53 C46 0.930 . S
H54 C47 0.930 . S
C55 C56 1.392 . S
C55 N59 1.328 . S
C55 H61 0.930 . S
C56 C55 1.392 . S
C56 N60 1.331 . S
C57 C58 1.391 . S
C57 N60 1.329 . S
C57 H67 0.930 . S
C58 C57 1.391 . S
C58 N59 1.334 . S
C58 H65 0.930 . S
N59 Zn43 2.119 . S
N59 C55 1.328 . S
N59 C58 1.334 . S
N60 C56 1.331 . S
N60 C57 1.329 . S
H61 C55 0.930 . S
C62 O42 1.257 . S
C62 O63 1.244 . S
O63 C62 1.244 . S
O64 C40 1.257 . S
O64 Zn43 2.019 . S
H65 C58 0.930 . S
H66 C45 0.930 . S
H67 C57 0.930 . S
Zn68 N72 2.020 . S
Zn68 O76 2.019 . S
Zn68 N78 2.119 . S
Zn68 O86 1.975 . S
C69 N70 1.334 . S
C69 N73 1.336 . S
N70 C69 1.334 . S
N70 C71 1.334 . S
C71 N70 1.334 . S
C71 N72 1.336 . S
N72 Zn68 2.020 . S
N72 C71 1.336 . S
N72 N73 1.354 . S
N73 C69 1.336 . S
N73 N72 1.354 . S
N73 Zn77 2.020 . S
C74 O75 1.244 . S
C74 O98 1.257 . S
O75 C74 1.244 . S
O76 Zn68 2.019 . S
O76 C96 1.257 . S
Zn77 N73 2.020 . S
Zn77 O84 1.975 . S
Zn77 N93 2.119 . S
Zn77 O98 2.019 . S
N78 Zn68 2.119 . S
N78 C80 1.334 . S
N78 C81 1.328 . S
C79 C80 1.391 . S
C79 N82 1.329 . S
C79 H100 0.930 . S
C80 N78 1.334 . S
C80 C79 1.391 . S
C80 H87 0.930 . S
C81 N78 1.328 . S
C81 C83 1.392 . S
C81 H88 0.930 . S
N82 C79 1.329 . S
N82 C83 1.331 . S
C83 C81 1.392 . S
C83 N82 1.331 . S
O84 Zn77 1.975 . S
O84 C85 1.252 . S
C85 O84 1.252 . S
C85 O86 1.252 . S
O86 Zn68 1.975 . S
O86 C85 1.252 . S
H87 C80 0.930 . S
H88 C81 0.930 . S
C89 C90 1.392 . S
C89 N93 1.328 . S
C89 H95 0.930 . S
C90 C89 1.392 . S
C90 N94 1.331 . S
C91 C92 1.391 . S
C91 N94 1.329 . S
C91 H101 0.930 . S
C92 C91 1.391 . S
C92 N93 1.334 . S
C92 H99 0.930 . S
N93 Zn77 2.119 . S
N93 C89 1.328 . S
N93 C92 1.334 . S
N94 C90 1.331 . S
N94 C91 1.329 . S
H95 C89 0.930 . S
C96 O76 1.257 . S
C96 O97 1.244 . S
O97 C96 1.244 . S
O98 C74 1.257 . S
O98 Zn77 2.019 . S
H99 C92 0.930 . S
H100 C79 0.930 . S
H101 C91 0.930 . S
Zn102 N106 2.020 . S
Zn102 O110 2.019 . S
Zn102 N112 2.119 . S
Zn102 O120 1.975 . S
C103 N104 1.334 . S
C103 N107 1.336 . S
N104 C103 1.334 . S
N104 C105 1.334 . S
C105 N104 1.334 . S
C105 N106 1.336 . S
N106 Zn102 2.020 . S
N106 C105 1.336 . S
N106 N107 1.354 . S
N107 C103 1.336 . S
N107 N106 1.354 . S
N107 Zn111 2.020 . S
C108 O109 1.244 . S
C108 O132 1.257 . S
O109 C108 1.244 . S
O110 Zn102 2.019 . S
O110 C130 1.257 . S
Zn111 N107 2.020 . S
Zn111 O118 1.975 . S
Zn111 N127 2.119 . S
Zn111 O132 2.019 . S
N112 Zn102 2.119 . S
N112 C114 1.334 . S
N112 C115 1.328 . S
C113 C114 1.391 . S
C113 N116 1.329 . S
C113 H134 0.930 . S
C114 N112 1.334 . S
C114 C113 1.391 . S
C114 H121 0.930 . S
C115 N112 1.328 . S
C115 C117 1.392 . S
C115 H122 0.930 . S
N116 C113 1.329 . S
N116 C117 1.331 . S
C117 C115 1.392 . S
C117 N116 1.331 . S
O118 Zn111 1.975 . S
O118 C119 1.252 . S
C119 O118 1.252 . S
C119 O120 1.252 . S
O120 Zn102 1.975 . S
O120 C119 1.252 . S
H121 C114 0.930 . S
H122 C115 0.930 . S
C123 C124 1.392 . S
C123 N127 1.328 . S
C123 H129 0.930 . S
C124 C123 1.392 . S
C124 N128 1.331 . S
C125 C126 1.391 . S
C125 N128 1.329 . S
C125 H135 0.930 . S
C126 C125 1.391 . S
C126 N127 1.334 . S
C126 H133 0.930 . S
N127 Zn111 2.119 . S
N127 C123 1.328 . S
N127 C126 1.334 . S
N128 C124 1.331 . S
N128 C125 1.329 . S
H129 C123 0.930 . S
C130 O110 1.257 . S
C130 O131 1.244 . S
O131 C130 1.244 . S
O132 C108 1.257 . S
O132 Zn111 2.019 . S
H133 C126 0.930 . S
H134 C113 0.930 . S
H135 C125 0.930 . S
H136 C144 0.950 . S
H137 C149 0.950 . S
H138 C146 0.950 . S
H139 C148 0.950 . S
H140 C150 0.950 . S
H141 C152 0.950 . S
H142 C154 0.950 . S
H143 C155 0.950 . S
C144 H136 0.950 . S
C144 C145 1.386 . S
C144 C146 1.391 . S
C145 C144 1.386 . S
C145 C149 1.393 . S
C146 H138 0.950 . S
C146 C144 1.391 . S
C146 C147 1.400 . S
C147 C146 1.400 . S
C147 C148 1.398 . S
C147 C153 1.491 . S
C148 H139 0.950 . S
C148 C147 1.398 . S
C148 C149 1.391 . S
C149 H137 0.950 . S
C149 C145 1.393 . S
C149 C148 1.391 . S
C150 H140 0.950 . S
C150 C151 1.386 . S
C150 C152 1.391 . S
C151 C150 1.386 . S
C151 C155 1.393 . S
C152 H141 0.950 . S
C152 C150 1.391 . S
C152 C153 1.400 1_565 S
C153 C147 1.491 . S
C153 C152 1.400 1_545 S
C153 C154 1.398 . S
C154 H142 0.950 . S
C154 C153 1.398 . S
C154 C155 1.391 1_545 S
C155 H143 0.950 . S
C155 C151 1.393 . S
C155 C154 1.391 1_565 S
H156 C164 0.950 . S
H157 C169 0.950 . S
H158 C166 0.950 . S
H159 C168 0.950 . S
H160 C170 0.950 . S
H161 C172 0.950 . S
H162 C174 0.950 . S
H163 C175 0.950 . S
C164 H156 0.950 . S
C164 C165 1.386 . S
C164 C166 1.391 . S
C165 C164 1.386 . S
C165 C169 1.393 . S
C166 H158 0.950 . S
C166 C164 1.391 . S
C166 C167 1.400 . S
C167 C166 1.400 . S
C167 C168 1.398 . S
C167 C173 1.491 . S
C168 H159 0.950 . S
C168 C167 1.398 . S
C168 C169 1.391 . S
C169 H157 0.950 . S
C169 C165 1.393 . S
C169 C168 1.391 . S
C170 H160 0.950 . S
C170 C171 1.386 . S
C170 C172 1.391 . S
C171 C170 1.386 . S
C171 C175 1.393 . S
C172 H161 0.950 . S
C172 C170 1.391 . S
C172 C173 1.400 . S
C173 C167 1.491 . S
C173 C172 1.400 . S
C173 C174 1.398 . S
C174 H162 0.950 . S
C174 C173 1.398 . S
C174 C175 1.391 . S
C175 H163 0.950 . S
C175 C171 1.393 . S
C175 C174 1.391 . S
H176 C184 0.950 . S
H177 C189 0.950 . S
H178 C186 0.950 . S
H179 C188 0.950 . S
H180 C190 0.950 . S
H181 C192 0.950 . S
H182 C194 0.950 . S
H183 C195 0.950 . S
C184 H176 0.950 . S
C184 C185 1.386 1_565 S
C184 C186 1.391 . S
C185 C184 1.386 1_545 S
C185 C189 1.393 . S
C186 H178 0.950 . S
C186 C184 1.391 . S
C186 C187 1.400 . S
C187 C186 1.400 . S
C187 C188 1.398 1_565 S
C187 C193 1.491 . S
C188 H179 0.950 . S
C188 C187 1.398 1_545 S
C188 C189 1.391 . S
C189 H177 0.950 . S
C189 C185 1.393 . S
C189 C188 1.391 . S
C190 H180 0.950 . S
C190 C191 1.386 . S
C190 C192 1.391 . S
C191 C190 1.386 . S
C191 C195 1.393 . S
C192 H181 0.950 . S
C192 C190 1.391 . S
C192 C193 1.400 . S
C193 C187 1.491 . S
C193 C192 1.400 . S
C193 C194 1.398 . S
C194 H182 0.950 . S
C194 C193 1.398 . S
C194 C195 1.391 . S
C195 H183 0.950 . S
C195 C191 1.393 . S
C195 C194 1.391 . S
H196 C204 0.950 . S
H197 C209 0.950 . S
H198 C206 0.950 . S
H199 C208 0.950 . S
H200 C210 0.950 . S
H201 C212 0.950 . S
H202 C214 0.950 . S
H203 C215 0.950 . S
C204 H196 0.950 . S
C204 C205 1.386 . S
C204 C206 1.391 . S
C205 C204 1.386 . S
C205 C209 1.393 . S
C206 H198 0.950 . S
C206 C204 1.391 . S
C206 C207 1.400 . S
C207 C206 1.400 . S
C207 C208 1.398 . S
C207 C213 1.491 . S
C208 H199 0.950 . S
C208 C207 1.398 . S
C208 C209 1.391 . S
C209 H197 0.950 . S
C209 C205 1.393 . S
C209 C208 1.391 . S
C210 H200 0.950 . S
C210 C211 1.386 . S
C210 C212 1.391 . S
C211 C210 1.386 . S
C211 C215 1.393 . S
C212 H201 0.950 . S
C212 C210 1.391 . S
C212 C213 1.400 . S
C213 C207 1.491 . S
C213 C212 1.400 . S
C213 C214 1.398 . S
C214 H202 0.950 . S
C214 C213 1.398 . S
C214 C215 1.391 . S
C215 H203 0.950 . S
C215 C211 1.393 . S
C215 C214 1.391 . S
H216 C224 0.950 . S
H217 C229 0.950 1_655 S
H218 C226 0.950 . S
H219 C228 0.950 . S
H220 C230 0.950 . S
H221 C232 0.950 . S
H222 C234 0.950 1_455 S
H223 C235 0.950 . S
C224 H216 0.950 . S
C224 C225 1.386 . S
C224 C226 1.391 . S
C225 C224 1.386 . S
C225 C229 1.393 . S
C226 H218 0.950 . S
C226 C224 1.391 . S
C226 C227 1.400 1_445 S
C227 C226 1.400 1_665 S
C227 C228 1.398 . S
C227 C233 1.491 . S
C228 H219 0.950 . S
C228 C227 1.398 . S
C228 C229 1.391 1_665 S
C229 H217 0.950 1_455 S
C229 C225 1.393 . S
C229 C228 1.391 1_445 S
C230 H220 0.950 . S
C230 C231 1.386 . S
C230 C232 1.391 . S
C231 C230 1.386 . S
C231 C235 1.393 . S
C232 H221 0.950 . S
C232 C230 1.391 . S
C232 C233 1.400 . S
C233 C227 1.491 . S
C233 C232 1.400 . S
C233 C234 1.398 . S
C234 H222 0.950 1_655 S
C234 C233 1.398 . S
C234 C235 1.391 . S
C235 H223 0.950 . S
C235 C231 1.393 . S
C235 C234 1.391 . S
H236 C244 0.950 . S
H237 C249 0.950 . S
H238 C246 0.950 . S
H239 C248 0.950 . S
H240 C250 0.950 . S
H241 C252 0.950 . S
H242 C254 0.950 . S
H243 C255 0.950 . S
C244 H236 0.950 . S
C244 C245 1.386 . S
C244 C246 1.391 . S
C245 C244 1.386 . S
C245 C249 1.393 . S
C246 H238 0.950 . S
C246 C244 1.391 . S
C246 C247 1.400 . S
C247 C246 1.400 . S
C247 C248 1.398 . S
C247 C253 1.491 . S
C248 H239 0.950 . S
C248 C247 1.398 . S
C248 C249 1.391 . S
C249 H237 0.950 . S
C249 C245 1.393 . S
C249 C248 1.391 . S
C250 H240 0.950 . S
C250 C251 1.386 . S
C250 C252 1.391 . S
C251 C250 1.386 . S
C251 C255 1.393 . S
C252 H241 0.950 . S
C252 C250 1.391 . S
C252 C253 1.400 1_655 S
C253 C247 1.491 . S
C253 C252 1.400 1_455 S
C253 C254 1.398 . S
C254 H242 0.950 . S
C254 C253 1.398 . S
C254 C255 1.391 1_455 S
C255 H243 0.950 . S
C255 C251 1.393 . S
C255 C254 1.391 1_655 S
H256 C264 0.950 . S
H257 C269 0.950 . S
H258 C266 0.950 . S
H259 C268 0.950 . S
H260 C270 0.950 . S
H261 C272 0.950 . S
H262 C274 0.950 . S
H263 C275 0.950 . S
C264 H256 0.950 . S
C264 C265 1.386 . S
C264 C266 1.391 . S
C265 C264 1.386 . S
C265 C269 1.393 . S
C266 H258 0.950 . S
C266 C264 1.391 . S
C266 C267 1.400 1_665 S
C267 C266 1.400 1_445 S
C267 C268 1.398 . S
C267 C273 1.491 . S
C268 H259 0.950 . S
C268 C267 1.398 . S
C268 C269 1.391 1_445 S
C269 H257 0.950 . S
C269 C265 1.393 . S
C269 C268 1.391 1_665 S
C270 H260 0.950 . S
C270 C271 1.386 . S
C270 C272 1.391 . S
C271 C270 1.386 . S
C271 C275 1.393 . S
C272 H261 0.950 . S
C272 C270 1.391 . S
C272 C273 1.400 . S
C273 C267 1.491 . S
C273 C272 1.400 . S
C273 C274 1.398 . S
C274 H262 0.950 . S
C274 C273 1.398 . S
C274 C275 1.391 . S
C275 H263 0.950 . S
C275 C271 1.393 . S
C275 C274 1.391 . S
H276 C284 0.950 . S
H277 C289 0.950 . S
H278 C286 0.950 . S
H279 C288 0.950 . S
H280 C290 0.950 . S
H281 C292 0.950 . S
H282 C294 0.950 1_455 S
H283 C295 0.950 . S
C284 H276 0.950 . S
C284 C285 1.386 . S
C284 C286 1.391 . S
C285 C284 1.386 . S
C285 C289 1.393 1_455 S
C286 H278 0.950 . S
C286 C284 1.391 . S
C286 C287 1.400 1_455 S
C287 C286 1.400 1_655 S
C287 C288 1.398 . S
C287 C293 1.491 . S
C288 H279 0.950 . S
C288 C287 1.398 . S
C288 C289 1.391 . S
C289 H277 0.950 . S
C289 C285 1.393 1_655 S
C289 C288 1.391 . S
C290 H280 0.950 . S
C290 C291 1.386 . S
C290 C292 1.391 . S
C291 C290 1.386 . S
C291 C295 1.393 . S
C292 H281 0.950 . S
C292 C290 1.391 . S
C292 C293 1.400 . S
C293 C287 1.491 . S
C293 C292 1.400 . S
C293 C294 1.398 . S
C294 H282 0.950 1_655 S
C294 C293 1.398 . S
C294 C295 1.391 . S
C295 H283 0.950 . S
C295 C291 1.393 . S
C295 C294 1.391 . S
H296 C304 0.950 . S
H297 C309 0.950 . S
H298 C306 0.950 . S
H299 C308 0.950 1_455 S
H300 C310 0.950 . S
H301 C312 0.950 . S
H302 C314 0.950 1_655 S
H303 C315 0.950 . S
C304 H296 0.950 . S
C304 C305 1.386 . S
C304 C306 1.391 . S
C305 C304 1.386 . S
C305 C309 1.393 . S
C306 H298 0.950 . S
C306 C304 1.391 . S
C306 C307 1.400 . S
C307 C306 1.400 . S
C307 C308 1.398 . S
C307 C313 1.491 1_656 S
C308 H299 0.950 1_655 S
C308 C307 1.398 . S
C308 C309 1.391 . S
C309 H297 0.950 . S
C309 C305 1.393 . S
C309 C308 1.391 . S
C310 H300 0.950 . S
C310 C311 1.386 . S
C310 C312 1.391 . S
C311 C310 1.386 . S
C311 C315 1.393 . S
C312 H301 0.950 . S
C312 C310 1.391 . S
C312 C313 1.400 . S
C313 C307 1.491 1_454 S
C313 C312 1.400 . S
C313 C314 1.398 . S
C314 H302 0.950 1_455 S
C314 C313 1.398 . S
C314 C315 1.391 . S
C315 H303 0.950 . S
C315 C311 1.393 . S
C315 C314 1.391 . S
H316 C324 0.950 . S
H317 C329 0.950 . S
H318 C326 0.950 1_455 S
H319 C328 0.950 . S
H320 C330 0.950 . S
H321 C332 0.950 1_655 S
H322 C334 0.950 . S
H323 C335 0.950 . S
C324 H316 0.950 . S
C324 C325 1.386 . S
C324 C326 1.391 . S
C325 C324 1.386 . S
C325 C329 1.393 . S
C326 H318 0.950 1_655 S
C326 C324 1.391 . S
C326 C327 1.400 . S
C327 C326 1.400 . S
C327 C328 1.398 . S
C327 C333 1.491 1_665 S
C328 H319 0.950 . S
C328 C327 1.398 . S
C328 C329 1.391 . S
C329 H317 0.950 . S
C329 C325 1.393 . S
C329 C328 1.391 . S
C330 H320 0.950 . S
C330 C331 1.386 . S
C330 C332 1.391 . S
C331 C330 1.386 . S
C331 C335 1.393 . S
C332 H321 0.950 1_455 S
C332 C330 1.391 . S
C332 C333 1.400 . S
C333 C327 1.491 1_445 S
C333 C332 1.400 . S
C333 C334 1.398 . S
C334 H322 0.950 . S
C334 C333 1.398 . S
C334 C335 1.391 . S
C335 H323 0.950 . S
C335 C331 1.393 . S
C335 C334 1.391 . S
H336 C344 0.950 . S
H337 C349 0.950 . S
H338 C346 0.950 . S
H339 C348 0.950 . S
H340 C350 0.950 . S
H341 C352 0.950 . S
H342 C354 0.958 . S
H343 C355 0.950 . S
C344 H336 0.950 . S
C344 C345 1.386 . S
C344 C346 1.391 . S
C345 C344 1.386 . S
C345 C349 1.393 . S
C346 H338 0.950 . S
C346 C344 1.391 . S
C346 C347 1.400 . S
C347 C346 1.400 . S
C347 C348 1.398 . S
C347 C353 1.491 . S
C348 H339 0.950 . S
C348 C347 1.398 . S
C348 C349 1.391 . S
C349 H337 0.950 . S
C349 C345 1.393 . S
C349 C348 1.391 . S
C350 H340 0.950 . S
C350 C351 1.386 . S
C350 C352 1.391 1_554 S
C351 C350 1.386 . S
C351 C355 1.393 . S
C352 H341 0.950 . S
C352 C350 1.391 1_556 S
C352 C353 1.400 . S
C353 C347 1.491 . S
C353 C352 1.400 . S
C353 C354 1.409 . S
C354 H342 0.958 . S
C354 C353 1.409 . S
C354 C355 1.373 1_556 S
C355 H343 0.950 . S
C355 C351 1.393 . S
C355 C354 1.373 1_554 S
H356 C364 0.950 . S
H357 C369 0.950 . S
H358 C366 0.950 . S
H359 C368 0.950 . S
H360 C370 0.950 . S
H361 C372 0.950 . S
H362 C374 0.950 . S
H363 C375 0.950 . S
C364 H356 0.950 . S
C364 C365 1.386 . S
C364 C366 1.391 . S
C365 C364 1.386 . S
C365 C369 1.393 . S
C366 H358 0.950 . S
C366 C364 1.391 . S
C366 C367 1.400 . S
C367 C366 1.400 . S
C367 C368 1.398 . S
C367 C373 1.491 . S
C368 H359 0.950 . S
C368 C367 1.398 . S
C368 C369 1.391 . S
C369 H357 0.950 . S
C369 C365 1.393 . S
C369 C368 1.391 . S
C370 H360 0.950 . S
C370 C371 1.386 . S
C370 C372 1.391 . S
C371 C370 1.386 . S
C371 C375 1.393 . S
C372 H361 0.950 . S
C372 C370 1.391 . S
C372 C373 1.400 . S
C373 C367 1.491 . S
C373 C372 1.400 . S
C373 C374 1.398 . S
C374 H362 0.950 . S
C374 C373 1.398 . S
C374 C375 1.391 . S
C375 H363 0.950 . S
C375 C371 1.393 . S
C375 C374 1.391 . S
H376 C384 0.950 . S
H377 C389 0.950 . S
H378 C386 0.950 . S
H379 C388 0.950 . S
H380 C390 0.950 . S
H381 C392 0.950 . S
H382 C394 0.950 . S
H383 C395 0.950 . S
C384 H376 0.950 . S
C384 C385 1.386 . S
C384 C386 1.391 1_556 S
C385 C384 1.386 . S
C385 C389 1.393 . S
C386 H378 0.950 . S
C386 C384 1.391 1_554 S
C386 C387 1.400 . S
C387 C386 1.400 . S
C387 C388 1.398 1_554 S
C387 C393 1.491 . S
C388 H379 0.950 . S
C388 C387 1.398 1_556 S
C388 C389 1.391 . S
C389 H377 0.950 . S
C389 C385 1.393 . S
C389 C388 1.391 . S
C390 H380 0.950 . S
C390 C391 1.386 . S
C390 C392 1.391 . S
C391 C390 1.386 . S
C391 C395 1.393 . S
C392 H381 0.950 . S
C392 C390 1.391 . S
C392 C393 1.400 . S
C393 C387 1.491 . S
C393 C392 1.400 . S
C393 C394 1.398 . S
C394 H382 0.950 . S
C394 C393 1.398 . S
C394 C395 1.391 . S
C395 H383 0.950 . S
C395 C391 1.393 . S
C395 C394 1.391 . S
H396 C404 0.950 . S
H397 C409 0.950 . S
H398 C406 0.950 . S
H399 C408 0.950 . S
H400 C410 0.950 . S
H401 C412 0.950 . S
H402 C414 0.950 . S
H403 C415 0.950 . S
C404 H396 0.950 . S
C404 C405 1.386 . S
C404 C406 1.391 . S
C405 C404 1.386 . S
C405 C409 1.393 . S
C406 H398 0.950 . S
C406 C404 1.391 . S
C406 C407 1.400 . S
C407 C406 1.400 . S
C407 C408 1.398 . S
C407 C413 1.491 . S
C408 H399 0.950 . S
C408 C407 1.398 . S
C408 C409 1.391 . S
C409 H397 0.950 . S
C409 C405 1.393 . S
C409 C408 1.391 . S
C410 H400 0.950 . S
C410 C411 1.386 . S
C410 C412 1.391 . S
C411 C410 1.386 . S
C411 C415 1.393 . S
C412 H401 0.950 . S
C412 C410 1.391 . S
C412 C413 1.400 . S
C413 C407 1.491 . S
C413 C412 1.400 . S
C413 C414 1.398 . S
C414 H402 0.950 . S
C414 C413 1.398 . S
C414 C415 1.391 . S
C415 H403 0.950 . S
C415 C411 1.393 . S
C415 C414 1.391 . S
C145 C17 1.612 . S
C151 C56 1.491 . S
C165 C15 1.490 . S
C171 C51 1.611 . S
C185 C124 1.517 . S
C191 C85 1.608 . S
C205 C90 1.517 . S
C211 C119 1.608 . S
C225 C22 1.503 . S
C231 C37 1.408 . S
C245 C1 1.386 . S
C251 C49 1.499 . S
C265 C83 1.499 . S
C271 C105 1.386 . S
C285 C117 1.495 . S
C291 C71 1.381 . S
C305 C69 1.926 . S
C311 C3 1.926 . S
C325 C35 1.943 . S
C331 C103 1.943 . S
C345 C130 1.263 . S
C351 C28 1.271 . S
C365 C96 1.249 . S
C371 C40 1.265 . S
C385 C74 1.270 . S
C391 C62 1.260 . S
C405 C108 1.267 . S
C411 C6 1.253 . S
