# Generated by pormake.
# Topology whh, (6)-cn, num edge types: 1
# Building blocks:
#     Node 0, Type 0, BuildingBlock: VOLQOD_clean_sbu_1, # of connection points: 6
#     Node 1, Type 0, BuildingBlock: VOLQOD_clean_sbu_1, # of connection points: 6
#     Node 2, Type 0, BuildingBlock: VOLQOD_clean_sbu_1, # of connection points: 6
#     Node 3, Type 0, BuildingBlock: VOLQOD_clean_sbu_1, # of connection points: 6
#     Node 4, Type 0, BuildingBlock: VOLQOD_clean_sbu_1, # of connection points: 6
#     Node 5, Type 0, BuildingBlock: VOLQOD_clean_sbu_1, # of connection points: 6
#     Node 6, Type 0, BuildingBlock: VOLQOD_clean_sbu_1, # of connection points: 6
#     Node 7, Type 0, BuildingBlock: VOLQOD_clean_sbu_1, # of connection points: 6
#     Node 8, Type 0, BuildingBlock: VOLQOD_clean_sbu_1, # of connection points: 6
#     Node 9, Type 0, BuildingBlock: VOLQOD_clean_sbu_1, # of connection points: 6
#     Node 10, Type 0, BuildingBlock: VOLQOD_clean_sbu_1, # of connection points: 6
#     Node 11, Type 0, BuildingBlock: VOLQOD_clean_sbu_1, # of connection points: 6
#     Node 12, Type 0, BuildingBlock: VOLQOD_clean_sbu_1, # of connection points: 6
#     Node 13, Type 0, BuildingBlock: VOLQOD_clean_sbu_1, # of connection points: 6
#     Node 14, Type 0, BuildingBlock: VOLQOD_clean_sbu_1, # of connection points: 6
#     Node 15, Type 0, BuildingBlock: VOLQOD_clean_sbu_1, # of connection points: 6
#     Edge 16, Type (0, 0), BuildingBlock: UVAHIK_clean_linker_0, # of connection points: 2
#     Edge 17, Type (0, 0), BuildingBlock: UVAHIK_clean_linker_0, # of connection points: 2
#     Edge 18, Type (0, 0), BuildingBlock: UVAHIK_clean_linker_0, # of connection points: 2
#     Edge 19, Type (0, 0), BuildingBlock: UVAHIK_clean_linker_0, # of connection points: 2
#     Edge 20, Type (0, 0), BuildingBlock: UVAHIK_clean_linker_0, # of connection points: 2
#     Edge 21, Type (0, 0), BuildingBlock: UVAHIK_clean_linker_0, # of connection points: 2
#     Edge 22, Type (0, 0), BuildingBlock: UVAHIK_clean_linker_0, # of connection points: 2
#     Edge 23, Type (0, 0), BuildingBlock: UVAHIK_clean_linker_0, # of connection points: 2
#     Edge 24, Type (0, 0), BuildingBlock: UVAHIK_clean_linker_0, # of connection points: 2
#     Edge 25, Type (0, 0), BuildingBlock: UVAHIK_clean_linker_0, # of connection points: 2
#     Edge 26, Type (0, 0), BuildingBlock: UVAHIK_clean_linker_0, # of connection points: 2
#     Edge 27, Type (0, 0), BuildingBlock: UVAHIK_clean_linker_0, # of connection points: 2
#     Edge 28, Type (0, 0), BuildingBlock: UVAHIK_clean_linker_0, # of connection points: 2
#     Edge 29, Type (0, 0), BuildingBlock: UVAHIK_clean_linker_0, # of connection points: 2
#     Edge 30, Type (0, 0), BuildingBlock: UVAHIK_clean_linker_0, # of connection points: 2
#     Edge 31, Type (0, 0), BuildingBlock: UVAHIK_clean_linker_0, # of connection points: 2
#     Edge 32, Type (0, 0), BuildingBlock: UVAHIK_clean_linker_0, # of connection points: 2
#     Edge 33, Type (0, 0), BuildingBlock: UVAHIK_clean_linker_0, # of connection points: 2
#     Edge 34, Type (0, 0), BuildingBlock: UVAHIK_clean_linker_0, # of connection points: 2
#     Edge 35, Type (0, 0), BuildingBlock: UVAHIK_clean_linker_0, # of connection points: 2
#     Edge 36, Type (0, 0), BuildingBlock: UVAHIK_clean_linker_0, # of connection points: 2
#     Edge 37, Type (0, 0), BuildingBlock: UVAHIK_clean_linker_0, # of connection points: 2
#     Edge 38, Type (0, 0), BuildingBlock: UVAHIK_clean_linker_0, # of connection points: 2
#     Edge 39, Type (0, 0), BuildingBlock: UVAHIK_clean_linker_0, # of connection points: 2
#     Edge 40, Type (0, 0), BuildingBlock: UVAHIK_clean_linker_0, # of connection points: 2
#     Edge 41, Type (0, 0), BuildingBlock: UVAHIK_clean_linker_0, # of connection points: 2
#     Edge 42, Type (0, 0), BuildingBlock: UVAHIK_clean_linker_0, # of connection points: 2
#     Edge 43, Type (0, 0), BuildingBlock: UVAHIK_clean_linker_0, # of connection points: 2
#     Edge 44, Type (0, 0), BuildingBlock: UVAHIK_clean_linker_0, # of connection points: 2
#     Edge 45, Type (0, 0), BuildingBlock: UVAHIK_clean_linker_0, # of connection points: 2
#     Edge 46, Type (0, 0), BuildingBlock: UVAHIK_clean_linker_0, # of connection points: 2
#     Edge 47, Type (0, 0), BuildingBlock: UVAHIK_clean_linker_0, # of connection points: 2
#     Edge 48, Type (0, 0), BuildingBlock: UVAHIK_clean_linker_0, # of connection points: 2
#     Edge 49, Type (0, 0), BuildingBlock: UVAHIK_clean_linker_0, # of connection points: 2
#     Edge 50, Type (0, 0), BuildingBlock: UVAHIK_clean_linker_0, # of connection points: 2
#     Edge 51, Type (0, 0), BuildingBlock: UVAHIK_clean_linker_0, # of connection points: 2
#     Edge 52, Type (0, 0), BuildingBlock: UVAHIK_clean_linker_0, # of connection points: 2
#     Edge 53, Type (0, 0), BuildingBlock: UVAHIK_clean_linker_0, # of connection points: 2
#     Edge 54, Type (0, 0), BuildingBlock: UVAHIK_clean_linker_0, # of connection points: 2
#     Edge 55, Type (0, 0), BuildingBlock: UVAHIK_clean_linker_0, # of connection points: 2
#     Edge 56, Type (0, 0), BuildingBlock: UVAHIK_clean_linker_0, # of connection points: 2
#     Edge 57, Type (0, 0), BuildingBlock: UVAHIK_clean_linker_0, # of connection points: 2
#     Edge 58, Type (0, 0), BuildingBlock: UVAHIK_clean_linker_0, # of connection points: 2
#     Edge 59, Type (0, 0), BuildingBlock: UVAHIK_clean_linker_0, # of connection points: 2
#     Edge 60, Type (0, 0), BuildingBlock: UVAHIK_clean_linker_0, # of connection points: 2
#     Edge 61, Type (0, 0), BuildingBlock: UVAHIK_clean_linker_0, # of connection points: 2
#     Edge 62, Type (0, 0), BuildingBlock: UVAHIK_clean_linker_0, # of connection points: 2
#     Edge 63, Type (0, 0), BuildingBlock: UVAHIK_clean_linker_0, # of connection points: 2
# Relax obj value: 0.572
# Max RMSD: 0.276
# Mean RMSD: 0.276
data_MOF--net-whh--node1-VOLQOD_clean_sbu_1--edge1-UVAHIK_clean_linker_0
_symmetry_space_group_name_H-M    P1
_symmetry_Int_Tables_number       1
_symmetry_cell_setting            triclinic
loop_
_symmetry_equiv_pos_as_xyz
'x, y, z'
_cell_length_a     42.94334
_cell_length_b     42.90569
_cell_length_c     67.071611
_cell_angle_alpha  90.032009
_cell_angle_beta   90.024485
_cell_angle_gamma 90.025396
loop_
_atom_site_label
_atom_site_type_symbol
_atom_site_fract_x
_atom_site_fract_y
_atom_site_fract_z
_atom_type_partial_charge
O0 O 0.09087 0.56045 0.10132 0.0
Zn1 Zn 0.08898 0.58443 0.12804 0.0
O2 O 0.05058 0.60934 0.12854 0.0
Zn3 Zn 0.02034 0.59078 0.14634 0.0
Zn4 Zn 0.03286 0.61143 0.10197 0.0
Zn5 Zn 0.05892 0.65139 0.1372 0.0
O6 O 0.00213 0.62225 0.1656 0.0
O7 O 0.03359 0.66275 0.16115 0.0
O8 O 0.08947 0.55397 0.152 0.0
O9 O 0.04059 0.55817 0.16274 0.0
O10 O 0.98669 0.56948 0.13096 0.0
O11 O 0.99319 0.58676 0.10003 0.0
O12 O 0.02441 0.65485 0.0927 0.0
O13 O 0.12647 0.61409 0.13045 0.0
O14 O 0.04713 0.6828 0.11635 0.0
O15 O 0.10411 0.657 0.14261 0.0
C16 C 0.08039 0.56896 0.0843 0.0
C17 C 0.01104 0.64967 0.17018 0.0
C18 C 0.97853 0.5704 0.11274 0.0
C19 C 0.06751 0.54605 0.16385 0.0
C20 C 0.0327 0.681 0.09983 0.0
C21 C 0.12825 0.6415 0.13787 0.0
O22 O 0.06128 0.5914 0.08258 0.0
O23 O 0.93135 0.07906 0.09152 0.0
Zn24 Zn 0.90487 0.08081 0.11714 0.0
O25 O 0.87285 0.04806 0.11566 0.0
Zn26 Zn 0.88254 0.01357 0.13352 0.0
Zn27 Zn 0.86987 0.03277 0.08852 0.0
Zn28 Zn 0.83268 0.06466 0.12257 0.0
O29 O 0.8469 0.00377 0.15221 0.0
O30 O 0.81371 0.0419 0.14543 0.0
O31 O 0.93279 0.07305 0.14165 0.0
O32 O 0.91887 0.02504 0.15077 0.0
O33 O 0.89351 0.97497 0.1181 0.0
O34 O 0.88548 0.98896 0.08664 0.0
O35 O 0.82664 0.03375 0.07716 0.0
O36 O 0.88354 0.12381 0.11993 0.0
O37 O 0.80215 0.06163 0.1001 0.0
O38 O 0.83582 0.1093 0.12916 0.0
C39 C 0.92302 0.07104 0.07393 0.0
C40 C 0.82127 0.01784 0.15537 0.0
C41 C 0.89383 0.96891 0.09951 0.0
C42 C 0.93585 0.04913 0.15285 0.0
C43 C 0.80251 0.04785 0.08334 0.0
C44 C 0.85618 0.13025 0.12625 0.0
O45 O 0.89742 0.05705 0.07074 0.0
O46 O 0.4235 0.94227 0.10678 0.0
Zn47 Zn 0.41964 0.91595 0.13233 0.0
O48 O 0.45445 0.88695 0.13119 0.0
Zn49 Zn 0.48913 0.90321 0.146 0.0
Zn50 Zn 0.46447 0.88379 0.10327 0.0
Zn51 Zn 0.44333 0.84633 0.14015 0.0
O52 O 0.50597 0.87072 0.16512 0.0
O53 O 0.46812 0.83515 0.16428 0.0
O54 O 0.42399 0.94393 0.1572 0.0
O55 O 0.47465 0.93834 0.16327 0.0
O56 O 0.52139 0.92027 0.12714 0.0
O57 O 0.50179 0.91003 0.09714 0.0
O58 O 0.47306 0.8402 0.09436 0.0
O59 O 0.37932 0.8901 0.13349 0.0
O60 O 0.45388 0.81353 0.11981 0.0
O61 O 0.39754 0.84459 0.14481 0.0
C62 C 0.42565 0.93016 0.08943 0.0
C63 C 0.49344 0.84568 0.17155 0.0
C64 C 0.52252 0.92239 0.10817 0.0
C65 C 0.44855 0.95113 0.16697 0.0
C66 C 0.46635 0.81442 0.10261 0.0
C67 C 0.37502 0.86249 0.14019 0.0
O68 O 0.4289 0.90088 0.08787 0.0
O69 O 0.55758 0.41702 0.10176 0.0
Zn70 Zn 0.58255 0.41413 0.1279 0.0
O71 O 0.6143 0.44663 0.12762 0.0
Zn72 Zn 0.60233 0.48199 0.14391 0.0
Zn73 Zn 0.62129 0.45968 0.1003 0.0
Zn74 Zn 0.65222 0.42968 0.13812 0.0
O75 O 0.63606 0.49428 0.16355 0.0
O76 O 0.66884 0.45465 0.16076 0.0
O77 O 0.5537 0.4212 0.15209 0.0
O78 O 0.56459 0.4706 0.15983 0.0
O79 O 0.59308 0.51912 0.12679 0.0
O80 O 0.60792 0.50414 0.09651 0.0
O81 O 0.66586 0.45534 0.09162 0.0
O82 O 0.60461 0.37147 0.12969 0.0
O83 O 0.68569 0.43006 0.11748 0.0
O84 O 0.64729 0.3856 0.14619 0.0
C85 C 0.56771 0.42359 0.08433 0.0
C86 C 0.66088 0.48026 0.16881 0.0
C87 C 0.59685 0.52458 0.10829 0.0
C88 C 0.54871 0.44583 0.1624 0.0
C89 C 0.68846 0.44155 0.10011 0.0
C90 C 0.6294 0.36461 0.13931 0.0
O91 O 0.5945 0.43553 0.08174 0.0
O92 O 0.06929 0.93515 0.39508 0.0
Zn93 Zn 0.07284 0.90624 0.37076 0.0
O94 O 0.0384 0.87725 0.37405 0.0
Zn95 Zn 0.00241 0.8933 0.36049 0.0
Zn96 Zn 0.03164 0.87482 0.40254 0.0
Zn97 Zn 0.04927 0.8368 0.36488 0.0
O98 O 0.98278 0.85959 0.3432 0.0
O99 O 0.02044 0.82373 0.34311 0.0
O100 O 0.06666 0.93164 0.34505 0.0
O101 O 0.01533 0.92697 0.34151 0.0
O102 O 0.97304 0.91207 0.38069 0.0
O103 O 0.99361 0.89913 0.41003 0.0
O104 O 0.02784 0.83124 0.41282 0.0
O105 O 0.11312 0.88036 0.36951 0.0
O106 O 0.04414 0.80472 0.38647 0.0
O107 O 0.09399 0.83607 0.35689 0.0
C108 C 0.06792 0.92471 0.41288 0.0
C109 C 0.99425 0.83389 0.33701 0.0
C110 C 0.97287 0.91287 0.39973 0.0
C111 C 0.04126 0.9387 0.33617 0.0
C112 C 0.0349 0.80559 0.40449 0.0
C113 C 0.11692 0.85336 0.3617 0.0
O114 O 0.06773 0.89545 0.41549 0.0
O115 O 0.56453 0.08125 0.4111 0.0
Zn116 Zn 0.5882 0.08379 0.3844 0.0
O117 O 0.61798 0.04897 0.38306 0.0
Zn118 Zn 0.60378 0.01691 0.36468 0.0
Zn119 Zn 0.62331 0.03126 0.40947 0.0
Zn120 Zn 0.658 0.06319 0.37412 0.0
O121 O 0.63604 0.00594 0.34378 0.0
O122 O 0.67023 0.04399 0.34831 0.0
O123 O 0.55756 0.08073 0.36073 0.0
O124 O 0.56713 0.03279 0.34944 0.0
O125 O 0.59054 0.97863 0.37948 0.0
O126 O 0.60454 0.98844 0.41073 0.0
O127 O 0.66792 0.02902 0.41855 0.0
O128 O 0.6123 0.1254 0.38284 0.0
O129 O 0.69169 0.0529 0.39359 0.0
O130 O 0.65818 0.10894 0.37143 0.0
C131 C 0.57459 0.07151 0.42794 0.0
C132 C 0.66052 0.02054 0.33853 0.0
C133 C 0.59217 0.9707 0.39774 0.0
C134 C 0.55184 0.05814 0.34883 0.0
C135 C 0.69259 0.03939 0.41044 0.0
C136 C 0.63971 0.13076 0.37623 0.0
O137 O 0.59957 0.05579 0.42935 0.0
O138 O 0.40885 0.55724 0.40547 0.0
Zn139 Zn 0.40882 0.58206 0.3791 0.0
O140 O 0.4438 0.61166 0.37923 0.0
Zn141 Zn 0.47633 0.59875 0.36079 0.0
Zn142 Zn 0.46085 0.61433 0.40588 0.0
Zn143 Zn 0.42994 0.65291 0.37202 0.0
O144 O 0.48926 0.63359 0.34238 0.0
O145 O 0.45468 0.67048 0.34938 0.0
O146 O 0.4131 0.55249 0.35497 0.0
O147 O 0.46029 0.56455 0.34342 0.0
O148 O 0.51422 0.58357 0.37553 0.0
O149 O 0.5029 0.59453 0.40707 0.0
O150 O 0.46478 0.65807 0.41609 0.0
O151 O 0.36779 0.6067 0.37635 0.0
O152 O 0.43569 0.68355 0.39424 0.0
O153 O 0.38498 0.65271 0.36544 0.0
C154 C 0.41823 0.56613 0.42266 0.0
C155 C 0.47794 0.66062 0.33949 0.0
C156 C 0.52121 0.58343 0.39398 0.0
C157 C 0.43534 0.54863 0.34254 0.0
C158 C 0.45153 0.6829 0.41024 0.0
C159 C 0.36288 0.63395 0.36929 0.0
O160 O 0.43498 0.5903 0.42483 0.0
O161 O 0.94493 0.41631 0.4029 0.0
Zn162 Zn 0.91966 0.41159 0.37704 0.0
O163 O 0.88879 0.44469 0.37767 0.0
Zn164 Zn 0.90233 0.48042 0.36255 0.0
Zn165 Zn 0.88394 0.45519 0.40551 0.0
Zn166 Zn 0.84959 0.4305 0.36786 0.0
O167 O 0.86936 0.49404 0.34261 0.0
O168 O 0.83719 0.45348 0.34337 0.0
O169 O 0.94855 0.41828 0.35293 0.0
O170 O 0.94022 0.46869 0.3467 0.0
O171 O 0.91346 0.51556 0.3811 0.0
O172 O 0.90525 0.49577 0.41133 0.0
O173 O 0.83928 0.45971 0.41353 0.0
O174 O 0.89661 0.3694 0.37552 0.0
O175 O 0.81537 0.4389 0.38745 0.0
O176 O 0.85081 0.38497 0.36332 0.0
C177 C 0.93323 0.41856 0.42035 0.0
C178 C 0.84561 0.47947 0.33598 0.0
C179 C 0.91459 0.5177 0.40005 0.0
C180 C 0.95493 0.4434 0.3435 0.0
C181 C 0.8145 0.45123 0.40469 0.0
C182 C 0.86962 0.36347 0.36831 0.0
O183 O 0.90418 0.42292 0.42242 0.0
O184 O 0.93273 0.43882 0.90366 0.0
Zn185 Zn 0.92467 0.41249 0.87863 0.0
O186 O 0.95415 0.37833 0.88061 0.0
Zn187 Zn 0.99204 0.38895 0.86689 0.0
Zn188 Zn 0.96143 0.37299 0.90884 0.0
Zn189 Zn 0.93674 0.34073 0.87035 0.0
O190 O 0.00409 0.35496 0.84744 0.0
O191 O 0.96153 0.32528 0.8471 0.0
O192 O 0.93459 0.43862 0.85368 0.0
O193 O 0.98458 0.4265 0.84972 0.0
O194 O 0.02626 0.39817 0.88674 0.0
O195 O 0.0034 0.38953 0.91601 0.0
O196 O 0.95878 0.32848 0.91767 0.0
O197 O 0.88066 0.39334 0.87728 0.0
O198 O 0.93756 0.30669 0.8909 0.0
O199 O 0.89224 0.34741 0.86346 0.0
C200 C 0.93324 0.42785 0.92135 0.0
C201 C 0.98845 0.33215 0.84046 0.0
C202 C 0.02678 0.39815 0.90577 0.0
C203 C 0.96075 0.44251 0.84489 0.0
C204 C 0.94744 0.30493 0.90874 0.0
C205 C 0.87244 0.3677 0.86902 0.0
O206 O 0.93085 0.39863 0.92387 0.0
O207 O 0.04995 0.91839 0.89335 0.0
Zn208 Zn 0.07627 0.9146 0.86777 0.0
O209 O 0.10646 0.94843 0.86933 0.0
Zn210 Zn 0.09341 0.98363 0.85383 0.0
Zn211 Zn 0.10885 0.95976 0.8971 0.0
Zn212 Zn 0.14675 0.93509 0.86126 0.0
O213 O 0.12867 0.00032 0.83681 0.0
O214 O 0.16231 0.96106 0.83871 0.0
O215 O 0.04856 0.9208 0.84293 0.0
O216 O 0.05924 0.97028 0.83548 0.0
O217 O 0.07582 0.01646 0.87181 0.0
O218 O 0.08329 -0.00184 0.90243 0.0
O219 O 0.15252 0.96695 0.90647 0.0
O220 O 0.10044 0.87308 0.86608 0.0
O221 O 0.17821 0.94092 0.88311 0.0
O222 O 0.1461 0.89014 0.8545 0.0
C223 C 0.06163 0.92056 0.91083 0.0
C224 C 0.15406 0.98728 0.83155 0.0
C225 C 0.07236 0.01867 0.89063 0.0
C226 C 0.04412 0.94521 0.83234 0.0
C227 C 0.17763 0.95555 0.89961 0.0
C228 C 0.12758 0.86801 0.85885 0.0
O229 O 0.09066 0.92504 0.91283 0.0
O230 O 0.58352 0.07129 0.91078 0.0
Zn231 Zn 0.58317 0.09605 0.88435 0.0
O232 O 0.54628 0.12338 0.88405 0.0
Zn233 Zn 0.51546 0.10774 0.86543 0.0
Zn234 Zn 0.52753 0.12616 0.91042 0.0
Zn235 Zn 0.55801 0.16499 0.87615 0.0
O236 O 0.50262 0.14016 0.84538 0.0
O237 O 0.53235 0.18067 0.85326 0.0
O238 O 0.58143 0.06562 0.8604 0.0
O239 O 0.53252 0.07196 0.8501 0.0
O240 O 0.47739 0.09296 0.87957 0.0
O241 O 0.48455 0.1075 0.91097 0.0
O242 O 0.52575 0.16971 0.92141 0.0
O243 O 0.62269 0.1232 0.882 0.0
O244 O 0.55253 0.19549 0.89848 0.0
O245 O 0.6028 0.16672 0.86908 0.0
C246 C 0.57107 0.07817 0.92754 0.0
C247 C 0.51132 0.16816 0.84257 0.0
C248 C 0.46806 0.09462 0.89753 0.0
C249 C 0.55871 0.05829 0.84896 0.0
C250 C 0.53854 0.19456 0.91516 0.0
C251 C 0.62601 0.15001 0.87394 0.0
O252 O 0.55172 0.1004 0.92927 0.0
O253 O 0.42931 0.57518 0.90542 0.0
Zn254 Zn 0.39971 0.57841 0.88132 0.0
O255 O 0.369 0.5453 0.88567 0.0
Zn256 Zn 0.3795 0.50902 0.87045 0.0
Zn257 Zn 0.37047 0.5362 0.91385 0.0
Zn258 Zn 0.32759 0.55801 0.87994 0.0
O259 O 0.34308 0.49427 0.85369 0.0
O260 O 0.31145 0.53515 0.85619 0.0
O261 O 0.42455 0.56991 0.85556 0.0
O262 O 0.41283 0.51996 0.85089 0.0
O263 O 0.39712 0.47614 0.88848 0.0
O264 O 0.39635 0.49792 0.91859 0.0
O265 O 0.32847 0.52939 0.92613 0.0
O266 O 0.37623 0.62036 0.87961 0.0
O267 O 0.29822 0.54819 0.90228 0.0
O268 O 0.32717 0.60369 0.87607 0.0
C269 C 0.42001 0.57419 0.9235 0.0
C270 C 0.31863 0.50902 0.84842 0.0
C271 C 0.40399 0.47569 0.90699 0.0
C272 C 0.4279 0.54434 0.84599 0.0
C273 C 0.30164 0.53643 0.91954 0.0
C274 C 0.34715 0.62553 0.87691 0.0
O275 O 0.39108 0.57212 0.92703 0.0
O276 O 0.91142 0.06637 0.591 0.0
Zn277 Zn 0.91149 0.08975 0.61798 0.0
O278 O 0.94851 0.11711 0.61956 0.0
Zn279 Zn 0.97759 0.10181 0.63951 0.0
Zn280 Zn 0.96918 0.11853 0.5938 0.0
Zn281 Zn 0.93737 0.15949 0.62647 0.0
O282 O 0.98955 0.13467 0.65954 0.0
O283 O 0.9585 0.17405 0.65148 0.0
O284 O 0.91172 0.05831 0.64135 0.0
O285 O 0.95795 0.06778 0.65518 0.0
O286 O 0.01605 0.0845 0.62677 0.0
O287 O 0.01004 0.09604 0.59475 0.0
O288 O 0.97659 0.16192 0.58357 0.0
O289 O 0.87208 0.11695 0.62016 0.0
O290 O 0.9501 0.19 0.60544 0.0
O291 O 0.8916 0.16302 0.62935 0.0
C292 C 0.92432 0.0741 0.57454 0.0
C293 C 0.97926 0.16205 0.66261 0.0
C294 C 0.0256 0.0837 0.60882 0.0
C295 C 0.93242 0.05285 0.6546 0.0
C296 C 0.96627 0.18802 0.58962 0.0
C297 C 0.8686 0.14527 0.62569 0.0
O298 O 0.94438 0.09581 0.57362 0.0
O299 O 0.4484 0.91781 0.60884 0.0
Zn300 Zn 0.42205 0.91218 0.63414 0.0
O301 O 0.39086 0.94476 0.63256 0.0
Zn302 Zn 0.40407 0.98148 0.6467 0.0
Zn303 Zn 0.38606 0.95331 0.60446 0.0
Zn304 Zn 0.35224 0.93006 0.64274 0.0
O305 O 0.36992 0.99713 0.66506 0.0
O306 O 0.33792 0.95638 0.6654 0.0
O307 O 0.44922 0.91984 0.65894 0.0
O308 O 0.44071 0.97056 0.66398 0.0
O309 O 0.41653 0.01481 0.62717 0.0
O310 O 0.40695 0.99367 0.59746 0.0
O311 O 0.34137 0.95553 0.59605 0.0
O312 O 0.39909 0.86987 0.63542 0.0
O313 O 0.31855 0.93354 0.62217 0.0
O314 O 0.35505 0.88537 0.65001 0.0
C315 C 0.43684 0.91914 0.59131 0.0
C316 C 0.34575 0.98329 0.67167 0.0
C317 C 0.41714 0.01595 0.60817 0.0
C318 C 0.45501 0.94535 0.66811 0.0
C319 C 0.31722 0.94506 0.60472 0.0
C320 C 0.37315 0.86384 0.64404 0.0
O321 O 0.40747 0.91984 0.58925 0.0
O322 O 0.56567 0.43527 0.60338 0.0
Zn323 Zn 0.57035 0.40835 0.62845 0.0
O324 O 0.5387 0.37623 0.62561 0.0
Zn325 Zn 0.50106 0.3893 0.63862 0.0
Zn326 Zn 0.53268 0.37199 0.59717 0.0
Zn327 Zn 0.55246 0.33715 0.63583 0.0
O328 O 0.48618 0.35663 0.65812 0.0
O329 O 0.52679 0.32441 0.65932 0.0
O330 O 0.56083 0.43524 0.65312 0.0
O331 O 0.50988 0.42672 0.65564 0.0
O332 O 0.46841 0.40011 0.61816 0.0
O333 O 0.49241 0.39193 0.58919 0.0
O334 O 0.53209 0.32753 0.58805 0.0
O335 O 0.61281 0.38636 0.63074 0.0
O336 O 0.54751 0.30313 0.61544 0.0
O337 O 0.5976 0.33993 0.64229 0.0
C338 C 0.5657 0.4243 0.58569 0.0
C339 C 0.5002 0.33318 0.66559 0.0
C340 C 0.4689 0.40106 0.59915 0.0
C341 C 0.53441 0.44112 0.66109 0.0
C342 C 0.53911 0.30259 0.59724 0.0
C343 C 0.61894 0.35944 0.638 0.0
O344 O 0.56647 0.39499 0.58326 0.0
O345 O 0.06602 0.57774 0.59999 0.0
Zn346 Zn 0.09463 0.5802 0.6246 0.0
O347 O 0.12589 0.54759 0.62105 0.0
Zn348 Zn 0.11497 0.51091 0.63615 0.0
Zn349 Zn 0.127 0.53827 0.59287 0.0
Zn350 Zn 0.16659 0.56121 0.6287 0.0
O351 O 0.14929 0.4984 0.65522 0.0
O352 O 0.18084 0.53929 0.65325 0.0
O353 O 0.06871 0.57109 0.64983 0.0
O354 O 0.07859 0.52056 0.65378 0.0
O355 O 0.10349 0.47565 0.61783 0.0
O356 O 0.10694 0.49675 0.58761 0.0
O357 O 0.17029 0.53605 0.58187 0.0
O358 O 0.1173 0.62264 0.62687 0.0
O359 O 0.19836 0.55259 0.60747 0.0
O360 O 0.16591 0.60676 0.63301 0.0
C361 C 0.0749 0.57588 0.58184 0.0
C362 C 0.17295 0.51362 0.66131 0.0
C363 C 0.10016 0.47397 0.59897 0.0
C364 C 0.06385 0.54514 0.65871 0.0
C365 C 0.19646 0.54274 0.58962 0.0
C366 C 0.14582 0.6283 0.63114 0.0
O367 O 0.10318 0.57014 0.57773 0.0
C368 C 0.74247 0.42113 0.09763 0.0
C369 C 0.71971 0.44225 0.09108 0.0
C370 C 0.77381 0.42661 0.09362 0.0
C371 C 0.83082 0.47875 0.06882 0.0
H372 H 0.86674 0.48139 0.12184 0.0
C373 C 0.93297 0.55983 0.0905 0.0
C374 C 0.95265 0.55053 0.1061 0.0
C375 C 0.90764 0.54123 0.085 0.0
C376 C 0.85769 0.48015 0.10679 0.0
H377 H 0.71131 0.48343 0.07314 0.0
H378 H 0.76629 0.49347 0.06655 0.0
H379 H 0.81748 0.45571 0.11674 0.0
H380 H 0.96308 0.51365 0.12711 0.0
H381 H 0.92002 0.48055 0.11696 0.0
H382 H 0.87113 0.5039 0.05902 0.0
C383 C 0.75992 0.47256 0.07463 0.0
C384 C 0.82928 0.46536 0.10387 0.0
C385 C 0.72844 0.46689 0.07848 0.0
C386 C 0.94771 0.52169 0.11537 0.0
C387 C 0.92299 0.50277 0.10955 0.0
C388 C 0.85967 0.49331 0.07169 0.0
C389 C 0.7829 0.4535 0.08321 0.0
C390 C 0.81526 0.46495 0.08497 0.0
C391 C 0.90204 0.5127 0.09473 0.0
C392 C 0.87314 0.49466 0.09083 0.0
H393 H 0.73627 0.40156 0.10704 0.0
H394 H 0.79109 0.41119 0.10004 0.0
H395 H 0.82042 0.47879 0.0541 0.0
H396 H 0.93651 0.58196 0.08306 0.0
H397 H 0.89185 0.5498 0.07368 0.0
C398 C 0.0352 0.73881 0.09585 0.0
C399 C 0.02284 0.70999 0.08981 0.0
C400 C 0.02225 0.76656 0.08892 0.0
C401 C 0.94637 0.79491 0.07656 0.0
H402 H 0.98984 0.87295 0.06764 0.0
C403 C 0.91823 0.93499 0.07355 0.0
C404 C 0.90525 0.93836 0.09269 0.0
C405 C 0.93101 0.90652 0.06762 0.0
C406 C 0.97733 0.85125 0.06974 0.0
H407 H 0.98891 0.6876 0.07053 0.0
H408 H 0.96595 0.73626 0.05871 0.0
H409 H 0.01841 0.82366 0.06549 0.0
H410 H 0.8944 0.9145 0.12031 0.0
H411 H 0.91613 0.8646 0.10977 0.0
H412 H 0.90581 0.82258 0.08209 0.0
C413 C 0.98563 0.73725 0.06881 0.0
C414 C 0.99366 0.82316 0.06859 0.0
C415 C -0.00119 0.70945 0.07557 0.0
C416 C 0.90435 0.91256 0.10552 0.0
C417 C 0.91654 0.88401 0.09944 0.0
C418 C 0.93019 0.82297 0.07795 0.0
C419 C 0.99656 0.766 0.07597 0.0
C420 C 0.97851 0.79484 0.07265 0.0
C421 C 0.93033 0.88088 0.08057 0.0
C422 C 0.94578 0.85137 0.07522 0.0
H423 H 0.05393 0.73997 0.10665 0.0
H424 H 0.03098 0.7884 0.09481 0.0
H425 H 0.93418 0.77345 0.07995 0.0
H426 H 0.91938 0.95459 0.06341 0.0
H427 H 0.94163 0.90458 0.05302 0.0
C428 C 0.57043 0.95502 0.11078 0.0
C429 C 0.5477 0.94075 0.09883 0.0
C430 C 0.59361 0.97328 0.1022 0.0
C431 C 0.63725 0.98561 0.05632 0.0
H432 H 0.66638 0.05665 0.08673 0.0
C433 C 0.75114 0.06912 0.07297 0.0
C434 C 0.77304 0.04492 0.07237 0.0
C435 C 0.7204 0.0637 0.06719 0.0
C436 C 0.65838 0.03754 0.07752 0.0
H437 H 0.53151 0.93449 0.06837 0.0
H438 H 0.57266 0.96614 0.05336 0.0
H439 H 0.61694 0.03325 0.09485 0.0
H440 H 0.78117 0.99714 0.06342 0.0
H441 H 0.72739 0.9869 0.05458 0.0
H442 H 0.67902 0.98968 0.03911 0.0
C443 C 0.57225 0.96322 0.06939 0.0
C444 C 0.63009 0.02377 0.08247 0.0
C445 C 0.5488 0.94503 0.07801 0.0
C446 C 0.7646 0.01615 0.06406 0.0
C447 C 0.73365 0.01041 0.05885 0.0
C448 C 0.66552 -0.00033 0.05115 0.0
C449 C 0.59468 0.97777 0.08145 0.0
C450 C 0.6202 0.99657 0.07275 0.0
C451 C 0.71079 0.0336 0.0615 0.0
C452 C 0.6773 0.02468 0.06249 0.0
H453 H 0.57036 0.95218 0.12683 0.0
H454 H 0.61106 0.9835 0.11187 0.0
H455 H 0.62999 0.96484 0.04838 0.0
H456 H 0.75737 0.09172 0.079 0.0
H457 H 0.70373 0.08248 0.06867 0.0
C458 C 0.49935 0.78472 0.07847 0.0
C459 C 0.47576 0.78495 0.09301 0.0
C460 C 0.5121 0.75653 0.07199 0.0
C461 C 0.503 0.67082 0.07277 0.0
H462 H 0.5908 0.67017 0.08645 0.0
C463 C 0.5877 0.58143 0.11262 0.0
C464 C 0.58725 0.55502 0.10029 0.0
C465 C 0.57689 0.60996 0.10553 0.0
C466 C 0.56646 0.67012 0.08218 0.0
H467 H 0.44507 0.75594 0.11076 0.0
H468 H 0.46717 0.70683 0.09933 0.0
H469 H 0.56339 0.71979 0.08352 0.0
H470 H 0.5755 0.53759 0.07086 0.0
H471 H 0.55539 0.58765 0.05869 0.0
H472 H 0.50588 0.62094 0.07252 0.0
C473 C 0.47589 0.72836 0.09301 0.0
C474 C 0.55081 0.69844 0.08038 0.0
C475 C 0.46344 0.75649 0.0997 0.0
C476 C 0.57624 0.55772 0.08061 0.0
C477 C 0.56472 0.58619 0.07367 0.0
C478 C 0.5188 0.64247 0.07428 0.0
C479 C 0.50111 0.72817 0.07968 0.0
C480 C 0.51866 0.69898 0.07651 0.0
C481 C 0.56487 0.61245 0.08614 0.0
C482 C 0.5503 0.64194 0.07985 0.0
H483 H 0.50924 0.80629 0.07298 0.0
H484 H 0.53148 0.75693 0.06165 0.0
H485 H 0.47822 0.6707 0.06971 0.0
H486 H 0.59617 0.57998 0.12781 0.0
H487 H 0.57685 0.62986 0.11549 0.0
C488 C 0.93304 0.95501 0.39984 0.0
C489 C 0.94875 0.93123 0.41007 0.0
C490 C 0.9098 0.97211 0.4093 0.0
C491 C 0.84747 0.9617 0.442 0.0
H492 H 0.83832 0.05118 0.43645 0.0
C493 C 0.72612 0.01573 0.43719 0.0
C494 C 0.72315 0.03455 0.42013 0.0
C495 C 0.75562 0.00838 0.44472 0.0
C496 C 0.84052 0.0262 0.43831 0.0
H497 H 0.95338 0.90749 0.43849 0.0
H498 H 0.9113 0.93668 0.45479 0.0
H499 H 0.88977 0.02749 0.43321 0.0
H500 H 0.74865 0.06225 0.39853 0.0
H501 H 0.79956 0.04894 0.41119 0.0
H502 H 0.79802 0.95975 0.44492 0.0
C503 C 0.91755 0.94222 0.43955 0.0
C504 C 0.86998 0.01275 0.43661 0.0
C505 C 0.94139 0.9255 0.43019 0.0
C506 C 0.75006 0.04742 0.41156 0.0
C507 C 0.77939 0.04009 0.41904 0.0
C508 C 0.81792 0.97508 0.44339 0.0
C509 C 0.90145 0.96547 0.42907 0.0
C510 C 0.87334 0.98027 0.43737 0.0
C511 C 0.78263 0.01977 0.43535 0.0
C512 C 0.81394 0.00728 0.44033 0.0
H513 H 0.93852 0.9603 0.38444 0.0
H514 H 0.89737 0.98968 0.40085 0.0
H515 H 0.84956 0.93655 0.44255 0.0
H516 H 0.70579 0.0057 0.44426 0.0
H517 H 0.75732 0.99291 0.45743 0.0
C518 C 0.57126 0.93561 0.42446 0.0
C519 C 0.57717 0.94141 0.40416 0.0
C520 C 0.55416 0.9094 0.43026 0.0
C521 C 0.49759 0.85322 0.40976 0.0
H522 H 0.52204 0.80047 0.45398 0.0
C523 C 0.48764 0.71777 0.42883 0.0
C524 C 0.45823 0.71263 0.42031 0.0
C525 C 0.49733 0.74802 0.43335 0.0
C526 C 0.51482 0.81504 0.44164 0.0
H527 H 0.57108 0.92352 0.37414 0.0
H528 H 0.54203 0.87763 0.38425 0.0
H529 H 0.5507 0.84859 0.44744 0.0
H530 H 0.41428 0.73409 0.41244 0.0
H531 H 0.43053 0.78673 0.4213 0.0
H532 H 0.46333 0.81913 0.40291 0.0
C533 C 0.54977 0.89375 0.39566 0.0
C534 C 0.53109 0.84272 0.438 0.0
C535 C 0.56666 0.91992 0.38987 0.0
C536 C 0.43732 0.7376 0.41864 0.0
C537 C 0.44673 0.76773 0.4236 0.0
C538 C 0.48157 0.82559 0.41327 0.0
C539 C 0.54275 0.88854 0.41586 0.0
C540 C 0.52328 0.86148 0.42158 0.0
C541 C 0.47754 0.77354 0.42974 0.0
C542 C 0.49056 0.80562 0.42887 0.0
H543 H 0.57897 0.9518 0.43583 0.0
H544 H 0.54909 0.90599 0.44592 0.0
H545 H 0.49052 0.86761 0.39729 0.0
H546 H 0.5042 0.69886 0.4303 0.0
H547 H 0.52123 0.75147 0.43799 0.0
C548 C 0.57634 0.56848 0.38722 0.0
C549 C 0.55108 0.56994 0.40046 0.0
C550 C 0.60466 0.55588 0.39341 0.0
C551 C 0.66562 0.54617 0.41634 0.0
H552 H 0.66741 0.45915 0.43206 0.0
C553 C 0.7813 0.48365 0.42715 0.0
C554 C 0.78396 0.45912 0.41336 0.0
C555 C 0.75205 0.49561 0.43204 0.0
C556 C 0.66715 0.4836 0.42804 0.0
H557 H 0.53537 0.55902 0.43041 0.0
H558 H 0.58489 0.53598 0.44098 0.0
H559 H 0.61724 0.48547 0.42726 0.0
H560 H 0.75816 0.42576 0.3955 0.0
H561 H 0.70712 0.44645 0.40423 0.0
H562 H 0.71533 0.5442 0.41636 0.0
C563 C 0.58274 0.54511 0.42599 0.0
C564 C 0.63858 0.4986 0.42534 0.0
C565 C 0.55456 0.55833 0.41994 0.0
C566 C 0.7568 0.4449 0.40602 0.0
C567 C 0.72758 0.45657 0.41114 0.0
C568 C 0.69411 0.53137 0.41936 0.0
C569 C 0.608 0.54398 0.41278 0.0
C570 C 0.63771 0.52967 0.41881 0.0
C571 C 0.72505 0.48287 0.42348 0.0
C572 C 0.69512 0.49969 0.4246 0.0
H573 H 0.57431 0.57734 0.37216 0.0
H574 H 0.62384 0.55492 0.38293 0.0
H575 H 0.66538 0.5702 0.41139 0.0
H576 H 0.80182 0.49502 0.4331 0.0
H577 H 0.7506 0.51583 0.44169 0.0
C578 C 0.04227 0.74813 0.40763 0.0
C579 C 0.02988 0.77599 0.41523 0.0
C580 C 0.03337 0.71951 0.41564 0.0
C581 C 0.96361 0.68657 0.43554 0.0
H582 H 0.01243 0.61052 0.43461 0.0
C583 C 0.94204 0.54576 0.4277 0.0
C584 C 0.92682 0.54644 0.40912 0.0
C585 C 0.95463 0.57309 0.43577 0.0
C586 C -0.00146 0.63156 0.43542 0.0
H587 H 0.00057 0.79591 0.4383 0.0
H588 H 0.98456 0.74568 0.45208 0.0
H589 H 0.03878 0.66101 0.43722 0.0
H590 H 0.91193 0.57601 0.38473 0.0
H591 H 0.93321 0.62372 0.39901 0.0
H592 H 0.9236 0.65729 0.43211 0.0
C593 C 0.00116 0.7461 0.43992 0.0
C594 C 0.01357 0.66038 0.4368 0.0
C595 C 0.01032 0.7748 0.43202 0.0
C596 C 0.92366 0.57485 0.39902 0.0
C597 C 0.93556 0.60214 0.40726 0.0
C598 C 0.94867 0.65785 0.43395 0.0
C599 C 0.01171 0.71818 0.43132 0.0
C600 C 0.99629 0.68818 0.43589 0.0
C601 C 0.95135 0.60146 0.42559 0.0
C602 C 0.96612 0.63028 0.43291 0.0
H603 H 0.0577 0.7483 0.39486 0.0
H604 H 0.04168 0.69841 0.40855 0.0
H605 H 0.94966 0.70756 0.43466 0.0
H606 H 0.9449 0.52402 0.43572 0.0
H607 H 0.96697 0.5721 0.44984 0.0
C608 C 0.08388 0.40819 0.90694 0.0
C609 C 0.05473 0.40939 0.91629 0.0
C610 C 0.11014 0.42004 0.9165 0.0
C611 C 0.16418 0.43423 0.94393 0.0
H612 H 0.15936 0.5227 0.95538 0.0
C613 C 0.27507 0.50512 0.94605 0.0
C614 C 0.27361 0.52798 0.93106 0.0
C615 C 0.2477 0.49234 0.95383 0.0
C616 C 0.16099 0.49786 0.95267 0.0
H617 H 0.03003 0.42374 0.94301 0.0
H618 H 0.07613 0.44543 0.95951 0.0
H619 H 0.1115 0.49291 0.95004 0.0
H620 H 0.24263 0.55797 0.91421 0.0
H621 H 0.19513 0.53566 0.92761 0.0
H622 H 0.21355 0.43942 0.94496 0.0
C623 C 0.07859 0.43476 0.94495 0.0
C624 C 0.13364 0.48081 0.94971 0.0
C625 C 0.05233 0.42234 0.93552 0.0
C626 C 0.24448 0.54004 0.92552 0.0
C627 C 0.21721 0.52748 0.9334 0.0
C628 C 0.19146 0.45117 0.94701 0.0
C629 C 0.10769 0.43374 0.93547 0.0
C630 C 0.13519 0.44928 0.94419 0.0
C631 C 0.21852 0.50245 0.94688 0.0
C632 C 0.19018 0.48351 0.95027 0.0
H633 H 0.08638 0.3983 0.89216 0.0
H634 H 0.13225 0.41949 0.90872 0.0
H635 H 0.16587 0.40982 0.93992 0.0
H636 H 0.29722 0.49555 0.95075 0.0
H637 H 0.24935 0.47325 0.96434 0.0
C638 C 0.92539 0.25211 0.91462 0.0
C639 C 0.94883 0.27413 0.91824 0.0
C640 C 0.92982 0.22097 0.91991 0.0
C641 C 0.95766 0.1589 0.91148 0.0
H642 H 0.02254 0.12905 0.94684 0.0
C643 C 0.04363 0.06847 0.88575 0.0
C644 C 0.05401 0.04495 0.89868 0.0
C645 C 0.02499 0.09254 0.89278 0.0
C646 C 0.00393 0.13675 0.93712 0.0
H647 H 0.99401 0.28184 0.93168 0.0
H648 H 0.00286 0.22741 0.93965 0.0
H649 H 0.99686 0.17859 0.95391 0.0
H650 H 0.05318 0.02848 0.9293 0.0
H651 H 0.02061 0.07125 0.94167 0.0
H652 H 0.96484 0.11732 0.89466 0.0
C653 C 0.98052 0.23386 0.93342 0.0
C654 C 0.98943 0.16532 0.94102 0.0
C655 C 0.97562 0.26517 0.92871 0.0
C656 C 0.04565 0.04634 0.91896 0.0
C657 C 0.02695 0.07069 0.92605 0.0
C658 C 0.97178 0.13032 0.90778 0.0
C659 C 0.95834 0.21109 0.92813 0.0
C660 C 0.96734 0.17756 0.9276 0.0
C661 C 0.01609 0.09375 0.91292 0.0
C662 C 0.9963 0.11984 0.91987 0.0
H663 H 0.90424 0.25871 0.90688 0.0
H664 H 0.91168 0.20436 0.9163 0.0
H665 H 0.94093 0.16724 0.90066 0.0
H666 H 0.04979 0.06831 0.87009 0.0
H667 H 0.01776 0.11047 0.8824 0.0
C668 C 0.23232 0.94138 0.90783 0.0
C669 C 0.20736 0.96224 0.90961 0.0
C670 C 0.2622 0.95034 0.91364 0.0
C671 C 0.32133 0.98476 0.90632 0.0
H672 H 0.34211 0.05186 0.94273 0.0
C673 C 0.41784 0.06986 0.88785 0.0
C674 C 0.43839 0.07946 0.90293 0.0
C675 C 0.3912 0.05295 0.89254 0.0
C676 C 0.33684 0.03279 0.93269 0.0
H677 H 0.19326 0.00773 0.92031 0.0
H678 H 0.24555 0.02416 0.92938 0.0
H679 H 0.29307 0.02365 0.94683 0.0
H680 H 0.44663 0.07969 0.93486 0.0
H681 H 0.39986 0.0497 0.94306 0.0
H682 H 0.36489 0.99375 0.8922 0.0
C683 C 0.24224 0.00055 0.9241 0.0
C684 C 0.30864 0.01681 0.93492 0.0
C685 C 0.21221 0.99124 0.91877 0.0
C686 C 0.43117 0.07265 0.92292 0.0
C687 C 0.40444 0.05549 0.92762 0.0
C688 C 0.34948 0.00046 0.90425 0.0
C689 C 0.26782 0.98072 0.9207 0.0
C690 C 0.30005 0.99335 0.92129 0.0
C691 C 0.38455 0.04497 0.91241 0.0
C692 C 0.35696 0.02546 0.91686 0.0
H693 H 0.22898 0.91863 0.90114 0.0
H694 H 0.28116 0.93407 0.91145 0.0
H695 H 0.31561 0.96716 0.89535 0.0
H696 H 0.42251 0.07505 0.87233 0.0
H697 H 0.37583 0.04596 0.88053 0.0
C698 C 0.55803 0.24676 0.92542 0.0
C699 C 0.53483 0.2238 0.92636 0.0
C700 C 0.55204 0.27686 0.93227 0.0
C701 C 0.52249 0.33866 0.92548 0.0
H702 H 0.45501 0.36288 0.96062 0.0
C703 C 0.43213 0.42562 0.90182 0.0
C704 C 0.42283 0.44957 0.91478 0.0
C705 C 0.45144 0.40185 0.90852 0.0
C706 C 0.47436 0.35669 0.95105 0.0
H707 H 0.48835 0.21316 0.93682 0.0
H708 H 0.47706 0.26602 0.94768 0.0
H709 H 0.4815 0.31302 0.96583 0.0
H710 H 0.42624 0.46708 0.94512 0.0
H711 H 0.45989 0.4247 0.95693 0.0
H712 H 0.5146 0.38165 0.91027 0.0
C713 C 0.50024 0.26091 0.94226 0.0
C714 C 0.48934 0.32805 0.95388 0.0
C715 C 0.50656 0.23057 0.93587 0.0
C716 C 0.4329 0.44886 0.93478 0.0
C717 C 0.45216 0.42474 0.94155 0.0
C718 C 0.50769 0.36716 0.92274 0.0
C719 C 0.52235 0.2848 0.93955 0.0
C720 C 0.51248 0.31801 0.94046 0.0
C721 C 0.4619 0.40132 0.92834 0.0
C722 C 0.48242 0.37562 0.93479 0.0
H723 H 0.58028 0.24184 0.91849 0.0
H724 H 0.56998 0.2944 0.93058 0.0
H725 H 0.53998 0.33191 0.91469 0.0
H726 H 0.4248 0.42531 0.88637 0.0
H727 H 0.45811 0.38367 0.89814 0.0
C728 C 0.06109 0.05738 0.58445 0.0
C729 C 0.0545 0.06663 0.60412 0.0
C730 C 0.08737 0.03932 0.58029 0.0
C731 C 0.15391 0.01594 0.57466 0.0
H732 H 0.17974 0.95654 0.61488 0.0
C733 C 0.28017 0.97715 0.58498 0.0
C734 C 0.28641 0.94979 0.59568 0.0
C735 C 0.24949 0.98553 0.58068 0.0
C736 C 0.17268 0.97235 0.60315 0.0
H737 H 0.07078 0.06518 0.63472 0.0
H738 H 0.11701 0.0347 0.62742 0.0
H739 H 0.13039 0.98287 0.61836 0.0
H740 H 0.26631 0.90777 0.60808 0.0
H741 H 0.21286 0.92139 0.59956 0.0
H742 H 0.19618 0.005 0.5593 0.0
C743 C 0.10142 0.04043 0.61526 0.0
C744 C 0.14453 0.98799 0.6054 0.0
C745 C 0.07506 0.05817 0.61944 0.0
C746 C 0.26194 0.92929 0.60011 0.0
C747 C 0.23135 0.93725 0.59535 0.0
C748 C 0.182 -8e-05 0.57224 0.0
C749 C 0.10764 0.03038 0.5957 0.0
C750 C 0.13539 0.01083 0.59162 0.0
C751 C 0.22459 0.96634 0.58669 0.0
C752 C 0.19226 0.97872 0.58683 0.0
H753 H 0.04555 0.06341 0.57232 0.0
H754 H 0.09142 0.03183 0.56509 0.0
H755 H 0.14748 0.03333 0.56371 0.0
H756 H 0.29871 0.99336 0.58142 0.0
H757 H 0.24536 0.00818 0.5741 0.0
C758 C 0.54659 0.24491 0.59602 0.0
C759 C 0.53471 0.27218 0.58729 0.0
C760 C 0.53793 0.21571 0.58876 0.0
C761 C 0.46893 0.18153 0.56853 0.0
H762 H 0.51712 0.10534 0.57262 0.0
C763 C 0.42765 0.07286 0.60795 0.0
C764 C 0.42986 0.04388 0.5984 0.0
C765 C 0.44014 0.09939 0.59911 0.0
C766 C 0.50344 0.12638 0.57091 0.0
H767 H 0.50665 0.29029 0.563 0.0
H768 H 0.49108 0.23909 0.55053 0.0
H769 H 0.54396 0.15546 0.56913 0.0
H770 H 0.44681 0.01969 0.57213 0.0
H771 H 0.47006 0.06642 0.55697 0.0
H772 H 0.42857 0.15273 0.57203 0.0
C773 C 0.50707 0.24042 0.563 0.0
C774 C 0.51874 0.155 0.56904 0.0
C775 C 0.516 0.26969 0.57015 0.0
C776 C 0.44473 0.04188 0.57974 0.0
C777 C 0.45797 0.06844 0.57109 0.0
C778 C 0.45371 0.15302 0.57063 0.0
C779 C 0.51702 0.21319 0.57271 0.0
C780 C 0.50162 0.18293 0.56879 0.0
C781 C 0.45562 0.09737 0.58073 0.0
C782 C 0.47092 0.12546 0.57277 0.0
H783 H 0.56135 0.24606 0.60911 0.0
H784 H 0.54576 0.19517 0.59669 0.0
H785 H 0.45508 0.20263 0.56853 0.0
H786 H 0.4162 0.07505 0.62228 0.0
H787 H 0.43848 0.12144 0.60692 0.0
C788 C 0.2248 0.51691 0.56147 0.0
C789 C 0.22539 0.5361 0.57848 0.0
C790 C 0.25255 0.50561 0.55334 0.0
C791 C 0.33909 0.5097 0.55706 0.0
H792 H 0.33285 0.41975 0.56116 0.0
C793 C 0.4122 0.41229 0.59708 0.0
C794 C 0.44187 0.41389 0.58845 0.0
C795 C 0.38678 0.42591 0.5876 0.0
C796 C 0.33494 0.44478 0.55947 0.0
H797 H 0.25547 0.56128 0.5989 0.0
H798 H 0.30365 0.54144 0.58487 0.0
H799 H 0.2857 0.45074 0.5579 0.0
H800 H 0.46834 0.43052 0.56303 0.0
H801 H 0.42368 0.45568 0.54679 0.0
H802 H 0.38838 0.50357 0.56025 0.0
C803 C 0.2819 0.53507 0.57776 0.0
C804 C 0.30798 0.46257 0.55747 0.0
C805 C 0.25423 0.54617 0.58597 0.0
C806 C 0.44562 0.42892 0.56995 0.0
C807 C 0.4202 0.44325 0.56067 0.0
C808 C 0.36614 0.49182 0.55889 0.0
C809 C 0.2813 0.51354 0.56197 0.0
C810 C 0.30968 0.49529 0.55743 0.0
C811 C 0.39062 0.44188 0.5695 0.0
C812 C 0.36402 0.45939 0.56127 0.0
H813 H 0.20294 0.50898 0.55521 0.0
H814 H 0.25145 0.48924 0.54105 0.0
H815 H 0.34105 0.53487 0.55684 0.0
H816 H 0.40867 0.40075 0.61126 0.0
H817 H 0.36425 0.425 0.59486 0.0
C818 C 0.07343 0.44494 0.57137 0.0
C819 C 0.08815 0.44488 0.59012 0.0
C820 C 0.06106 0.41737 0.56351 0.0
C821 C 0.01754 0.35987 0.56158 0.0
H822 H 0.06289 0.28236 0.56797 0.0
C823 C 0.96193 0.24555 0.58482 0.0
C824 C 0.97548 0.21703 0.5793 0.0
C825 C 0.97417 0.27359 0.57786 0.0
C826 C 0.05002 0.30373 0.56555 0.0
H827 H 0.10224 0.41596 0.61505 0.0
H828 H 0.08105 0.36798 0.60127 0.0
H829 H 0.09009 0.33176 0.57171 0.0
H830 H 0.01069 0.19543 0.56066 0.0
H831 H 0.03224 0.24459 0.54857 0.0
H832 H 0.97705 0.33175 0.55652 0.0
C833 C 0.07908 0.38922 0.59263 0.0
C834 C 0.06558 0.33201 0.56789 0.0
C835 C 0.09093 0.41674 0.60062 0.0
C836 C -7e-05 0.21703 0.56536 0.0
C837 C 0.0123 0.24516 0.55845 0.0
C838 C 0.00188 0.33151 0.55933 0.0
C839 C 0.06384 0.38928 0.5741 0.0
C840 C 0.04918 0.36025 0.56684 0.0
C841 C 0.00031 0.27373 0.56526 0.0
C842 C 0.01772 0.30317 0.5622 0.0
H843 H 0.07083 0.46638 0.56301 0.0
H844 H 0.04925 0.41799 0.54924 0.0
H845 H 0.00438 0.38137 0.56068 0.0
H846 H 0.9428 0.24635 0.59535 0.0
H847 H 0.96453 0.29515 0.58354 0.0
C848 C 0.98059 0.65071 0.20208 0.0
C849 C 0.99558 0.66674 0.18655 0.0
C850 C 0.96908 0.66701 0.21859 0.0
C851 C 0.94747 0.74481 0.23756 0.0
H852 H 0.98654 0.71761 0.28661 0.0
C853 C 0.97288 0.82797 0.30278 0.0
C854 C 0.97798 0.81551 0.32179 0.0
C855 C 0.96481 0.80835 0.28692 0.0
C856 C 0.97453 0.72527 0.2733 0.0
H857 H 0.00844 0.71245 0.17544 0.0
H858 H 0.98799 0.74081 0.20407 0.0
H859 H 0.99016 0.68527 0.25712 0.0
H860 H 0.97608 0.77382 0.33984 0.0
H861 H 0.95981 0.73985 0.31262 0.0
H862 H 0.93209 0.78505 0.25363 0.0
C863 C 0.98528 0.71572 0.20357 0.0
C864 C 0.97678 0.70664 0.25632 0.0
C865 C 0.99726 0.69944 0.18728 0.0
C866 C 0.97233 0.7838 0.32519 0.0
C867 C 0.96341 0.76435 0.30952 0.0
C868 C 0.94471 0.76327 0.25467 0.0
C869 C 0.97181 0.69962 0.2196 0.0
C870 C 0.96415 0.71667 0.23815 0.0
C871 C 0.96116 0.77601 0.28995 0.0
C872 C 0.95911 0.75425 0.27263 0.0
H873 H 0.97895 0.62551 0.2019 0.0
H874 H 0.95876 0.6541 0.23079 0.0
H875 H 0.93732 0.75293 0.22372 0.0
H876 H 0.97751 0.85237 0.29985 0.0
H877 H 0.96362 0.81831 0.27212 0.0
C878 C 0.70363 0.02873 0.31422 0.0
C879 C 0.67724 0.01164 0.3201 0.0
C880 C 0.71763 0.02321 0.29586 0.0
C881 C 0.72938 0.96952 0.25493 0.0
H882 H 0.73669 0.04545 0.22388 0.0
C883 C 0.76996 0.01921 0.1727 0.0
C884 C 0.80046 0.0075 0.17161 0.0
C885 C 0.75158 0.0135 0.1894 0.0
C886 C 0.73447 0.02393 0.23221 0.0
H887 H 0.64608 0.97396 0.31176 0.0
H888 H 0.67104 0.96421 0.27943 0.0
H889 H 0.71217 0.04711 0.25649 0.0
H890 H 0.83475 0.97858 0.1865 0.0
H891 H 0.80263 0.96905 0.21599 0.0
H892 H 0.75256 0.94656 0.23062 0.0
C893 C 0.68054 0.98196 0.28919 0.0
C894 C 0.7207 0.02497 0.25095 0.0
C895 C 0.66626 0.98764 0.30761 0.0
C896 C 0.81139 0.98806 0.18697 0.0
C897 C 0.79296 0.98245 0.20379 0.0
C898 C 0.74359 0.96852 0.23613 0.0
C899 C 0.70577 0.00036 0.28298 0.0
C900 C 0.71841 0.99794 0.26259 0.0
C901 C 0.76333 0.99612 0.20545 0.0
C902 C 0.7464 0.99583 0.22467 0.0
H903 H 0.71299 0.04715 0.3235 0.0
H904 H 0.73735 0.03742 0.29147 0.0
H905 H 0.72784 0.9484 0.26372 0.0
H906 H 0.76061 0.03378 0.16095 0.0
H907 H 0.72858 0.02382 0.19013 0.0
C908 C 0.5051 0.79621 0.18925 0.0
C909 C 0.50743 0.82882 0.18841 0.0
C910 C 0.51365 0.78022 0.20649 0.0
C911 C 0.50723 0.79011 0.25847 0.0
H912 H 0.55374 0.71296 0.26259 0.0
C913 C 0.49306 0.71339 0.32758 0.0
C914 C 0.49177 0.68114 0.32432 0.0
C915 C 0.50401 0.73331 0.31271 0.0
C916 C 0.54043 0.73432 0.26169 0.0
H917 H 0.52186 0.87027 0.2044 0.0
H918 H 0.53572 0.84219 0.23505 0.0
H919 H 0.5579 0.7446 0.23243 0.0
H920 H 0.50159 0.64411 0.30333 0.0
H921 H 0.51874 0.67882 0.27681 0.0
H922 H 0.4874 0.77901 0.28663 0.0
C923 C 0.52787 0.82911 0.22218 0.0
C924 C 0.54317 0.75257 0.2445 0.0
C925 C 0.52001 0.84509 0.2047 0.0
C926 C 0.50247 0.66896 0.30618 0.0
C927 C 0.51257 0.68895 0.29105 0.0
C928 C 0.50391 0.7716 0.27541 0.0
C929 C 0.52403 0.79663 0.22332 0.0
C930 C 0.52609 0.78028 0.24263 0.0
C931 C 0.51294 0.7215 0.29397 0.0
C932 C 0.51989 0.74304 0.27709 0.0
H933 H 0.49557 0.78318 0.17682 0.0
H934 H 0.51019 0.75522 0.2071 0.0
H935 H 0.49341 0.81114 0.25721 0.0
H936 H 0.48542 0.72326 0.34162 0.0
H937 H 0.50483 0.75805 0.31583 0.0
C938 C 0.67112 0.51848 0.19655 0.0
C939 C 0.68113 0.4936 0.1845 0.0
C940 C 0.6899 0.52933 0.21216 0.0
C941 C 0.72267 0.52606 0.2525 0.0
H942 H 0.81282 0.52233 0.24967 0.0
C943 C 0.79675 0.48082 0.31601 0.0
C944 C 0.82666 0.49283 0.31968 0.0
C945 C 0.77896 0.49188 0.30019 0.0
C946 C 0.78773 0.52424 0.25072 0.0
H947 H 0.71936 0.4617 0.17878 0.0
H948 H 0.75159 0.48017 0.20592 0.0
H949 H 0.78232 0.52312 0.21901 0.0
H950 H 0.86095 0.52669 0.30998 0.0
H951 H 0.82973 0.54585 0.28189 0.0
H952 H 0.72805 0.52606 0.28422 0.0
C953 C 0.72949 0.49162 0.2033 0.0
C954 C 0.77023 0.52435 0.23316 0.0
C955 C 0.71076 0.48072 0.18785 0.0
C956 C 0.83803 0.51691 0.30747 0.0
C957 C 0.82021 0.52785 0.29141 0.0
C958 C 0.74016 0.52603 0.27005 0.0
C959 C 0.71912 0.51567 0.21586 0.0
C960 C 0.7375 0.52366 0.2339 0.0
C961 C 0.79059 0.51519 0.28753 0.0
C962 C 0.77279 0.52351 0.26934 0.0
H963 H 0.64848 0.52901 0.19427 0.0
H964 H 0.68134 0.54799 0.22156 0.0
H965 H 0.69752 0.52556 0.25362 0.0
H966 H 0.78713 0.46245 0.32521 0.0
H967 H 0.75651 0.48119 0.29742 0.0
C968 C 0.99374 0.21257 0.67846 0.0
C969 C 0.9909 0.18008 0.67975 0.0
C970 C 0.00273 0.22998 0.69508 0.0
C971 C 0.03111 0.22247 0.74799 0.0
H972 H 0.98905 0.30196 0.75359 0.0
C973 C 0.99271 0.28279 0.8211 0.0
C974 C 0.00058 0.31437 0.82336 0.0
C975 C 0.00031 0.26689 0.80362 0.0
C976 C 0.00137 0.28004 0.75207 0.0
H977 H 0.99569 0.14009 0.69917 0.0
H978 H 0.00932 0.17041 0.72855 0.0
H979 H 0.98467 0.27335 0.72251 0.0
H980 H 0.02348 0.35386 0.80954 0.0
H981 H 0.03563 0.3262 0.77846 0.0
H982 H 0.04536 0.2285 0.77846 0.0
C983 C 0.00598 0.18263 0.71461 0.0
C984 C -0.00095 0.26359 0.73419 0.0
C985 C -0.00211 0.16516 0.6978 0.0
C986 C 0.01734 0.32945 0.80819 0.0
C987 C 0.02423 0.31373 0.79046 0.0
C988 C 0.03274 0.23864 0.76608 0.0
C989 C 0.00807 0.21539 0.71359 0.0
C990 C 0.01345 0.23429 0.73196 0.0
C991 C 0.01524 0.28252 0.78795 0.0
C992 C 0.01754 0.26734 0.76828 0.0
H993 H 0.98892 0.22454 0.66458 0.0
H994 H 0.00498 0.25497 0.69343 0.0
H995 H 0.04318 0.20041 0.74678 0.0
H996 H 0.97985 0.27065 0.83263 0.0
H997 H 0.99291 0.24289 0.80188 0.0
C998 C 0.29556 0.98696 0.69006 0.0
C999 C 0.32569 -0.00144 0.68668 0.0
C1000 C 0.27679 -0.00025 0.70484 0.0
C1001 C 0.2831 0.03681 0.75305 0.0
H1002 H 0.19306 0.03529 0.74852 0.0
C1003 C 0.16416 0.02698 0.80471 0.0
C1004 C 0.17472 0.00243 0.81683 0.0
C1005 C 0.18333 0.03909 0.78969 0.0
C1006 C 0.21812 0.0367 0.75008 0.0
H1007 H 0.35934 0.03356 0.69568 0.0
H1008 H 0.3264 0.05578 0.72196 0.0
H1009 H 0.22486 0.03486 0.7185 0.0
H1010 H 0.21429 0.97273 0.82353 0.0
H1011 H 0.2472 0.99334 0.79743 0.0
H1012 H 0.27636 0.03741 0.78465 0.0
C1013 C 0.31745 0.03674 0.71303 0.0
C1014 C 0.23636 0.03612 0.73286 0.0
C1015 C 0.33626 0.02404 0.69801 0.0
C1016 C 0.20526 0.9914 0.81433 0.0
C1017 C 0.22437 0.00357 0.7995 0.0
C1018 C 0.26485 0.03755 0.77027 0.0
C1019 C 0.28765 0.02443 0.71673 0.0
C1020 C 0.26898 0.03432 0.73422 0.0
C1021 C 0.21345 0.02707 0.78671 0.0
C1022 C 0.23221 0.03565 0.76897 0.0
H1023 H 0.28654 0.96755 0.68149 0.0
H1024 H 0.25422 0.98928 0.70753 0.0
H1025 H 0.30817 0.03555 0.75461 0.0
H1026 H 0.14079 0.0361 0.80636 0.0
H1027 H 0.17433 0.05729 0.78011 0.0
C1028 C 0.48948 0.17146 0.80818 0.0
C1029 C 0.49769 0.18623 0.82608 0.0
C1030 C 0.4798 0.18904 0.79179 0.0
C1031 C 0.48548 0.26997 0.77248 0.0
H1032 H 0.43793 0.23449 0.72885 0.0
C1033 C 0.47059 0.33351 0.69762 0.0
C1034 C 0.4866 0.31684 0.68279 0.0
C1035 C 0.46249 0.31893 0.71552 0.0
C1036 C 0.45084 0.2448 0.74107 0.0
H1037 H 0.50004 0.23048 0.84153 0.0
H1038 H 0.48133 0.26108 0.81342 0.0
H1039 H 0.44043 0.20701 0.7607 0.0
H1040 H 0.50458 0.27158 0.67426 0.0
H1041 H 0.48949 0.24588 0.70531 0.0
H1042 H 0.49569 0.30776 0.75272 0.0
C1043 C 0.48377 0.23614 0.81155 0.0
C1044 C 0.45265 0.22896 0.75924 0.0
C1045 C 0.4943 0.21863 0.82774 0.0
C1046 C 0.49236 0.28492 0.68552 0.0
C1047 C 0.48356 0.2702 0.70318 0.0
C1048 C 0.48301 0.2861 0.75451 0.0
C1049 C 0.47735 0.22174 0.79312 0.0
C1050 C 0.47095 0.24078 0.77497 0.0
C1051 C 0.46951 0.28733 0.71856 0.0
C1052 C 0.46652 0.27317 0.73848 0.0
H1053 H 0.49203 0.14647 0.80653 0.0
H1054 H 0.47565 0.17697 0.77787 0.0
H1055 H 0.50028 0.27975 0.78395 0.0
H1056 H 0.46606 0.3582 0.69588 0.0
H1057 H 0.4518 0.33255 0.72728 0.0
C1058 C 0.17889 0.47857 0.69112 0.0
C1059 C 0.19025 0.50296 0.67912 0.0
C1060 C 0.19283 0.47206 0.70953 0.0
C1061 C 0.23827 0.45884 0.74528 0.0
H1062 H 0.24507 0.5351 0.77611 0.0
C1063 C 0.31172 0.47683 0.81749 0.0
C1064 C 0.29931 0.49726 0.83183 0.0
C1065 C 0.2954 0.47084 0.79983 0.0
C1066 C 0.243 0.51352 0.76781 0.0
H1067 H 0.22672 0.53779 0.67626 0.0
H1068 H 0.25066 0.52652 0.70828 0.0
H1069 H 0.22472 0.53708 0.74237 0.0
H1070 H 0.25877 0.52461 0.83997 0.0
H1071 H 0.23034 0.51392 0.80934 0.0
H1072 H 0.25724 0.43546 0.77091 0.0
C1073 C 0.2308 0.51276 0.70357 0.0
C1074 C 0.23169 0.51473 0.74842 0.0
C1075 C 0.21704 0.51918 0.68524 0.0
C1076 C 0.26921 0.50927 0.82902 0.0
C1077 C 0.25292 0.50316 0.8115 0.0
C1078 C 0.25004 0.45766 0.76477 0.0
C1079 C 0.21819 0.48992 0.71617 0.0
C1080 C 0.22949 0.48753 0.7369 0.0
C1081 C 0.26645 0.48509 0.79635 0.0
C1082 C 0.25249 0.48507 0.77618 0.0
H1083 H 0.15838 0.46553 0.68677 0.0
H1084 H 0.18272 0.45434 0.71904 0.0
H1085 H 0.23669 0.43758 0.73663 0.0
H1086 H 0.33484 0.46714 0.8193 0.0
H1087 H 0.30638 0.45686 0.78836 0.0
C1088 C 0.17772 0.6608 0.12275 0.0
C1089 C 0.15835 0.65775 0.13949 0.0
C1090 C 0.20204 0.68259 0.1228 0.0
C1091 C 0.25374 0.72889 0.15412 0.0
H1092 H 0.24628 0.7936 0.11405 0.0
C1093 C 0.33205 0.8367 0.15846 0.0
C1094 C 0.34383 0.84848 0.14051 0.0
C1095 C 0.30738 0.81546 0.15838 0.0
C1096 C 0.24911 0.77557 0.12518 0.0
H1097 H 0.14999 0.67352 0.16968 0.0
H1098 H 0.19346 0.71039 0.17014 0.0
H1099 H 0.21101 0.74898 0.11333 0.0
H1100 H 0.33896 0.84814 0.10844 0.0
H1101 H 0.29663 0.81028 0.10806 0.0
H1102 H 0.29234 0.75442 0.16569 0.0
C1103 C 0.18961 0.69638 0.15692 0.0
C1104 C 0.22885 0.75001 0.12473 0.0
C1105 C 0.16488 0.67525 0.15669 0.0
C1106 C 0.32964 0.83992 0.1225 0.0
C1107 C 0.30543 0.81806 0.12234 0.0
C1108 C 0.2744 0.75406 0.15436 0.0
C1109 C 0.20773 0.701 0.13977 0.0
C1110 C 0.23085 0.7266 0.13929 0.0
C1111 C 0.29469 0.80465 0.14026 0.0
C1112 C 0.27221 0.77801 0.14002 0.0
H1113 H 0.17274 0.64794 0.10921 0.0
H1114 H 0.21582 0.68573 0.10943 0.0
H1115 H 0.25576 0.71105 0.16548 0.0
H1116 H 0.34299 0.84274 0.17251 0.0
H1117 H 0.29917 0.80657 0.17253 0.0
C1118 C 0.83599 0.17833 0.11068 0.0
C1119 C 0.84505 0.16247 0.12803 0.0
C1120 C 0.8138 0.20218 0.11168 0.0
C1121 C 0.77058 0.25491 0.14533 0.0
H1122 H 0.70042 0.23782 0.11052 0.0
C1123 C 0.65685 0.32146 0.15633 0.0
C1124 C 0.64243 0.33289 0.13904 0.0
C1125 C 0.67952 0.29821 0.15507 0.0
C1126 C 0.71987 0.24321 0.1202 0.0
H1127 H 0.83978 0.16016 0.16005 0.0
H1128 H 0.80218 0.20276 0.16198 0.0
H1129 H 0.74803 0.20721 0.10734 0.0
H1130 H 0.63876 0.32765 0.10706 0.0
H1131 H 0.67866 0.28741 0.10468 0.0
H1132 H 0.74296 0.29121 0.15799 0.0
C1133 C 0.81201 0.19681 0.1476 0.0
C1134 C 0.74723 0.22572 0.11832 0.0
C1135 C 0.83377 0.17265 0.14655 0.0
C1136 C 0.64906 0.31874 0.12066 0.0
C1137 C 0.67221 0.29583 0.11932 0.0
C1138 C 0.74342 0.27265 0.14706 0.0
C1139 C 0.80062 0.21072 0.13009 0.0
C1140 C 0.77279 0.23125 0.13096 0.0
C1141 C 0.68884 0.28641 0.13641 0.0
C1142 C 0.71751 0.26686 0.13467 0.0
H1143 H 0.84373 0.17028 0.09619 0.0
H1144 H 0.80564 0.21273 0.09797 0.0
H1145 H 0.78996 0.25978 0.1552 0.0
H1146 H 0.65231 0.33222 0.17066 0.0
H1147 H 0.69098 0.2908 0.16864 0.0
C1148 C 0.32151 0.65932 0.34937 0.0
C1149 C 0.33123 0.64666 0.36762 0.0
C1150 C 0.29635 0.67994 0.34863 0.0
C1151 C 0.2631 0.74123 0.37805 0.0
H1152 H 0.19384 0.73889 0.34107 0.0
C1153 C 0.16463 0.83379 0.37848 0.0
C1154 C 0.14787 0.83876 0.36082 0.0
C1155 C 0.18842 0.81147 0.37911 0.0
C1156 C 0.21339 0.74037 0.35122 0.0
H1157 H 0.3221 0.64478 0.39931 0.0
H1158 H 0.27823 0.68143 0.3981 0.0
H1159 H 0.22953 0.69489 0.34282 0.0
H1160 H 0.1441 0.82638 0.32967 0.0
H1161 H 0.1871 0.78938 0.33022 0.0
H1162 H 0.2481 0.78713 0.38589 0.0
C1163 C 0.28973 0.67491 0.38435 0.0
C1164 C 0.23356 0.71487 0.35237 0.0
C1165 C 0.31447 0.65366 0.38501 0.0
C1166 C 0.15691 0.82306 0.34343 0.0
C1167 C 0.18114 0.80137 0.3439 0.0
C1168 C 0.2433 0.76703 0.37663 0.0
C1169 C 0.28111 0.68892 0.36623 0.0
C1170 C 0.25853 0.71502 0.36583 0.0
C1171 C 0.19621 0.79408 0.36197 0.0
C1172 C 0.21812 0.76703 0.36317 0.0
H1173 H 0.3346 0.65477 0.33587 0.0
H1174 H 0.29027 0.69056 0.3345 0.0
H1175 H 0.28256 0.74211 0.38832 0.0
H1176 H 0.15757 0.84512 0.39219 0.0
H1177 H 0.19918 0.80653 0.39335 0.0
C1178 C 0.84096 0.32137 0.35109 0.0
C1179 C 0.8568 0.33169 0.36817 0.0
C1180 C 0.81921 0.29726 0.35235 0.0
C1181 C 0.76279 0.26777 0.38787 0.0
H1182 H 0.74851 0.20354 0.34828 0.0
C1183 C 0.66467 0.1749 0.39372 0.0
C1184 C 0.65299 0.16227 0.37593 0.0
C1185 C 0.68817 0.19754 0.39322 0.0
C1186 C 0.75177 0.22173 0.35928 0.0
H1187 H 0.86368 0.32401 0.39974 0.0
H1188 H 0.82545 0.28164 0.40203 0.0
H1189 H 0.79583 0.23472 0.34679 0.0
H1190 H 0.65478 0.16469 0.34377 0.0
H1191 H 0.69424 0.20559 0.34277 0.0
H1192 H 0.71839 0.25542 0.40008 0.0
C1193 C 0.83002 0.29214 0.38764 0.0
C1194 C 0.77913 0.23933 0.35853 0.0
C1195 C 0.85225 0.31597 0.38628 0.0
C1196 C 0.66307 0.17454 0.35768 0.0
C1197 C 0.68619 0.19745 0.35715 0.0
C1198 C 0.73523 0.25034 0.38852 0.0
C1199 C 0.81242 0.28342 0.37083 0.0
C1200 C 0.78489 0.26264 0.37275 0.0
C1201 C 0.70028 0.20798 0.37488 0.0
C1202 C 0.72922 0.22724 0.37413 0.0
H1203 H 0.84367 0.33358 0.33706 0.0
H1204 H 0.80596 0.2912 0.33916 0.0
H1205 H 0.76632 0.28599 0.39883 0.0
H1206 H 0.65787 0.1651 0.40796 0.0
H1207 H 0.69845 0.20494 0.40718 0.0
C1208 C 0.66521 0.17935 0.85443 0.0
C1209 C 0.65675 0.16498 0.87241 0.0
C1210 C 0.68894 0.20161 0.854 0.0
C1211 C 0.75126 0.23971 0.88473 0.0
H1212 H 0.73514 0.30873 0.84881 0.0
C1213 C 0.82452 0.35217 0.88705 0.0
C1214 C 0.83975 0.35749 0.86885 0.0
C1215 C 0.79912 0.33172 0.88796 0.0
C1216 C 0.73983 0.28966 0.85896 0.0
H1217 H 0.66696 0.16162 0.90389 0.0
H1218 H 0.70788 0.20111 0.90341 0.0
H1219 H 0.69988 0.26425 0.84924 0.0
H1220 H 0.83926 0.34766 0.83722 0.0
H1221 H 0.79386 0.31333 0.8386 0.0
H1222 H 0.7909 0.26585 0.8947 0.0
C1223 C 0.69697 0.19471 0.88944 0.0
C1224 C 0.71989 0.26388 0.85906 0.0
C1225 C 0.67362 0.17187 0.88976 0.0
C1226 C 0.82747 0.3444 0.85135 0.0
C1227 C 0.80168 0.32457 0.85218 0.0
C1228 C 0.77089 0.26577 0.88486 0.0
C1229 C 0.70412 0.21077 0.87168 0.0
C1230 C 0.72553 0.23828 0.87175 0.0
C1231 C 0.78823 0.31685 0.87061 0.0
C1232 C 0.76553 0.29085 0.87183 0.0
H1233 H 0.65227 0.17457 0.84089 0.0
H1234 H 0.69442 0.21256 0.83989 0.0
H1235 H 0.75669 0.22045 0.89455 0.0
H1236 H 0.83405 0.36138 0.90081 0.0
H1237 H 0.78901 0.32627 0.90234 0.0
C1238 C 0.33097 0.67225 0.85778 0.0
C1239 C 0.33458 0.65727 0.87619 0.0
C1240 C 0.3093 0.69642 0.85566 0.0
C1241 C 0.25486 0.74833 0.88395 0.0
H1242 H 0.20518 0.74194 0.8358 0.0
C1243 C 0.14115 0.81772 0.87521 0.0
C1244 C 0.14086 0.8364 0.85804 0.0
C1245 C 0.16256 0.79321 0.87692 0.0
C1246 C 0.21885 0.74398 0.84932 0.0
H1247 H 0.31958 0.65617 0.90694 0.0
H1248 H 0.28198 0.69821 0.90343 0.0
H1249 H 0.25064 0.70853 0.83999 0.0
H1250 H 0.16061 0.84274 0.82864 0.0
H1251 H 0.19708 0.79942 0.83129 0.0
H1252 H 0.22267 0.78352 0.89334 0.0
C1253 C 0.29607 0.69205 0.89063 0.0
C1254 C 0.24515 0.72511 0.85165 0.0
C1255 C 0.31778 0.66805 0.89273 0.0
C1256 C 0.16018 0.82842 0.84194 0.0
C1257 C 0.18115 0.8037 0.84351 0.0
C1258 C 0.22839 0.76698 0.88169 0.0
C1259 C 0.29058 0.70567 0.87188 0.0
C1260 C 0.26359 0.72708 0.86898 0.0
C1261 C 0.1836 0.78679 0.86136 0.0
C1262 C 0.21013 0.76506 0.86434 0.0
H1263 H 0.34315 0.66374 0.84472 0.0
H1264 H 0.30615 0.7068 0.84108 0.0
H1265 H 0.26863 0.7508 0.89739 0.0
H1266 H 0.12686 0.82374 0.88795 0.0
H1267 H 0.16371 0.78029 0.89077 0.0
C1268 C 0.82541 0.17329 0.6092 0.0
C1269 C 0.83768 0.15973 0.6265 0.0
C1270 C 0.80164 0.19549 0.61051 0.0
C1271 C 0.76949 0.25203 0.64714 0.0
H1272 H 0.70742 0.26576 0.60611 0.0
C1273 C 0.66021 0.32959 0.65538 0.0
C1274 C 0.65109 0.34765 0.63893 0.0
C1275 C 0.68621 0.31016 0.6542 0.0
C1276 C 0.72495 0.26246 0.61753 0.0
H1277 H 0.8343 0.15746 0.65861 0.0
H1278 H 0.79147 0.19475 0.66097 0.0
H1279 H 0.74252 0.2213 0.60349 0.0
H1280 H 0.66272 0.36085 0.6087 0.0
H1281 H 0.70823 0.32643 0.60649 0.0
H1282 H 0.75092 0.29266 0.66149 0.0
C1283 C 0.80061 0.18907 0.64637 0.0
C1284 C 0.74505 0.23691 0.61608 0.0
C1285 C 0.82468 0.16722 0.64504 0.0
C1286 C 0.66964 0.34757 0.62171 0.0
C1287 C 0.69535 0.32758 0.62036 0.0
C1288 C 0.74909 0.27731 0.64871 0.0
C1289 C 0.78965 0.20449 0.6292 0.0
C1290 C 0.76756 0.23124 0.6309 0.0
C1291 C 0.70319 0.30791 0.63636 0.0
C1292 C 0.72661 0.28277 0.63394 0.0
H1293 H 0.8358 0.16849 0.5948 0.0
H1294 H 0.79416 0.20697 0.59697 0.0
H1295 H 0.78698 0.24904 0.6586 0.0
H1296 H 0.64599 0.32898 0.66873 0.0
H1297 H 0.69161 0.29518 0.66673 0.0
C1298 C 0.35406 0.81716 0.62587 0.0
C1299 C 0.35982 0.83222 0.64407 0.0
C1300 C 0.3311 0.79402 0.62456 0.0
C1301 C 0.25883 0.77139 0.65135 0.0
H1302 H 0.257 0.7036 0.61319 0.0
C1303 C 0.16794 0.67153 0.65094 0.0
C1304 C 0.15794 0.66022 0.63238 0.0
C1305 C 0.19003 0.69545 0.65201 0.0
C1306 C 0.25703 0.72274 0.62373 0.0
H1307 H 0.3484 0.83313 0.67547 0.0
H1308 H 0.31001 0.79141 0.67356 0.0
H1309 H 0.30405 0.73506 0.61661 0.0
H1310 H 0.16213 0.66552 0.60044 0.0
H1311 H 0.2006 0.70762 0.60224 0.0
H1312 H 0.21202 0.75844 0.65878 0.0
C1313 C 0.32206 0.7982 0.66007 0.0
C1314 C 0.28406 0.74073 0.62575 0.0
C1315 C 0.34455 0.82165 0.66128 0.0
C1316 C 0.16885 0.67451 0.61492 0.0
C1317 C 0.19126 0.69816 0.61596 0.0
C1318 C 0.23196 0.75319 0.64949 0.0
C1319 C 0.31374 0.78531 0.64151 0.0
C1320 C 0.28541 0.76526 0.63965 0.0
C1321 C 0.203 0.70798 0.63451 0.0
C1322 C 0.23074 0.72867 0.63566 0.0
H1323 H 0.365 0.82542 0.6123 0.0
H1324 H 0.3254 0.78476 0.60999 0.0
H1325 H 0.25852 0.79059 0.66183 0.0
H1326 H 0.16057 0.66017 0.66457 0.0
H1327 H 0.19874 0.70236 0.66652 0.0
C1328 C 0.9642 0.47368 0.93388 0.0
C1329 C 0.94743 0.44617 0.93781 0.0
C1330 C 0.98356 0.48675 0.9485 0.0
C1331 C 0.0275 0.46438 0.99366 0.0
H1332 H 0.02974 0.55302 0.00447 0.0
C1333 C 0.07423 0.51841 0.06672 0.0
C1334 C 0.0843 0.54952 0.06637 0.0
C1335 C 0.06474 0.50371 0.04907 0.0
C1336 C 0.03006 0.52825 1.00139 0.0
H1337 H 0.93642 0.41207 0.96063 0.0
H1338 H 0.96967 0.4351 0.98607 0.0
H1339 H 0.99651 0.53326 0.97796 0.0
H1340 H 0.09591 0.58841 0.04725 0.0
H1341 H 0.08111 0.56231 0.01637 0.0
H1342 H 0.06073 0.4593 0.01728 0.0
C1343 C 0.96846 0.44614 0.97157 0.0
C1344 C 0.01078 0.51694 0.98622 0.0
C1345 C 0.94907 0.43318 0.95704 0.0
C1346 C 0.08834 0.56433 0.04788 0.0
C1347 C 0.0793 0.54955 0.03025 0.0
C1348 C 0.04692 0.47571 0.00879 0.0
C1349 C 0.98658 0.47256 0.96731 0.0
C1350 C 0.00878 0.48483 0.98244 0.0
C1351 C 0.06548 0.51984 0.03076 0.0
C1352 C 0.04807 0.50777 0.01309 0.0
H1353 H 0.96377 0.48415 0.91919 0.0
H1354 H 0.99721 0.50716 0.94478 0.0
H1355 H 0.02697 0.43954 0.99081 0.0
H1356 H 0.07035 0.50669 0.08081 0.0
H1357 H 0.05422 0.48083 0.0501 0.0
C1358 C 0.05428 0.9258 0.94742 0.0
C1359 C 0.04202 0.92908 0.9281 0.0
C1360 C 0.04151 0.94225 0.9634 0.0
C1361 C -0.00206 0.01479 0.97274 0.0
H1362 H 0.99614 0.9846 0.02717 0.0
C1363 C 0.93374 0.07478 0.03776 0.0
C1364 C 0.94525 0.07074 0.0572 0.0
C1365 C 0.94952 0.06215 0.02146 0.0
C1366 C 0.99713 0.99361 0.01211 0.0
H1367 H 0.00527 0.95041 0.91067 0.0
H1368 H 0.98232 0.97854 0.93874 0.0
H1369 H 0.01101 0.94939 1.00037 0.0
H1370 H 0.98387 0.05331 0.07467 0.0
H1371 H 0.01186 0.03158 0.0461 0.0
H1372 H 0.9835 0.05893 0.98453 0.0
C1373 C 0.00228 0.96371 0.94143 0.0
C1374 C 0.00542 0.97332 0.99669 0.0
C1375 C 0.01504 0.94711 0.92541 0.0
C1376 C 0.97464 0.05706 0.05983 0.0
C1377 C 0.99036 0.04413 0.0435 0.0
C1378 C 0.98957 0.0351 0.98816 0.0
C1379 C 0.01613 0.96242 0.96045 0.0
C1380 C 0.00587 0.9836 0.9768 0.0
C1381 C 0.97704 0.04503 0.02432 0.0
C1382 C 0.98901 0.02473 0.00804 0.0
H1383 H 0.07518 0.91221 0.94991 0.0
H1384 H 0.05291 0.94071 0.97777 0.0
H1385 H -0.00142 0.02365 0.95764 0.0
H1386 H 0.91098 0.08505 0.03537 0.0
H1387 H 0.9386 0.06333 0.00692 0.0
C1388 C 0.56503 0.02582 0.94285 0.0
C1389 C 0.57336 0.05728 0.94491 0.0
C1390 C 0.55382 0.00916 0.95933 0.0
C1391 C 0.54062 0.01177 0.0143 0.0
H1392 H 0.4601 0.97715 1.0003 0.0
C1393 C 0.45142 0.97765 0.07502 0.0
C1394 C 0.43594 0.94911 0.07217 0.0
C1395 C 0.4685 0.99114 0.05944 0.0
C1396 C 0.48265 0.98631 0.00452 0.0
H1397 H 0.58004 0.09493 0.96597 0.0
H1398 H 0.56142 0.06578 0.99472 0.0
H1399 H 0.49473 0.99536 0.97416 0.0
H1400 H 0.42454 0.91352 0.05041 0.0
H1401 H 0.45415 0.93673 0.02348 0.0
H1402 H 0.52832 0.00304 0.04472 0.0
C1403 C 0.56315 0.05389 0.98052 0.0
C1404 C 0.50264 0.9966 0.98947 0.0
C1405 C 0.57399 0.07058 0.96405 0.0
C1406 C 0.4361 0.93558 0.05308 0.0
C1407 C 0.45316 0.94896 0.03758 0.0
C1408 C 0.52063 0.00132 0.02939 0.0
C1409 C 0.55114 0.02367 0.9781 0.0
C1410 C 0.53181 0.00957 0.99416 0.0
C1411 C 0.47039 0.97641 0.04069 0.0
C1412 C 0.49132 0.98853 0.0247 0.0
H1413 H 0.56392 0.01515 0.92822 0.0
H1414 H 0.54522 0.98569 0.95709 0.0
H1415 H 0.56293 0.02165 0.01841 0.0
H1416 H 0.45203 0.98856 0.08958 0.0
H1417 H 0.48094 0.01265 0.06226 0.0
C1418 C 0.51723 0.43798 0.06854 0.0
C1419 C 0.54674 0.42418 0.06691 0.0
C1420 C 0.50212 0.4494 0.05152 0.0
C1421 C 0.5246 0.48028 1.00224 0.0
H1422 H 0.43568 0.49137 0.99566 0.0
C1423 C 0.46673 0.54397 0.93489 0.0
C1424 C 0.44104 0.56302 0.93946 0.0
C1425 C 0.48077 0.52583 0.94976 0.0
C1426 C 0.4606 0.48862 0.9974 0.0
H1427 H 0.58197 0.40822 0.04621 0.0
H1428 H 0.55499 0.42661 0.01649 0.0
H1429 H 0.45511 0.45728 0.02199 0.0
H1430 H 0.41165 0.57987 0.9634 0.0
H1431 H 0.43653 0.54886 0.98932 0.0
H1432 H 0.52999 0.51177 0.97768 0.0
C1433 C 0.54398 0.42985 0.03087 0.0
C1434 C 0.47173 0.46903 0.01246 0.0
C1435 C 0.55923 0.41885 0.04785 0.0
C1436 C 0.43136 0.5654 0.95942 0.0
C1437 C 0.4453 0.5473 0.97421 0.0
C1438 C 0.51345 0.49971 0.98711 0.0
C1439 C 0.51615 0.44687 0.03259 0.0
C1440 C 0.50391 0.46494 0.01528 0.0
C1441 C 0.46936 0.52645 0.96942 0.0
C1442 C 0.48135 0.50455 0.98476 0.0
H1443 H 0.50731 0.4428 0.08306 0.0
H1444 H 0.48074 0.4624 0.05348 0.0
H1445 H 0.54955 0.47826 0.00416 0.0
H1446 H 0.47446 0.54123 0.91962 0.0
H1447 H 0.49931 0.50998 0.94564 0.0
C1448 C 0.92927 0.02349 0.55673 0.0
C1449 C 0.92087 0.05508 0.55637 0.0
C1450 C 0.93829 0.00839 0.53911 0.0
C1451 C 0.97442 0.03085 0.49135 0.0
H1452 H 0.97248 0.94202 0.48102 0.0
C1453 C 0.03793 0.97184 0.4244 0.0
C1454 C 0.05385 0.94404 0.42889 0.0
C1455 C 0.01868 0.98597 0.43867 0.0
C1456 C 0.9733 0.96689 0.48378 0.0
H1457 H 0.91201 0.09472 0.53728 0.0
H1458 H 0.92592 0.06804 0.50645 0.0
H1459 H 0.93989 0.96383 0.50743 0.0
H1460 H 0.06334 0.91042 0.45227 0.0
H1461 H 0.03026 0.93526 0.47707 0.0
H1462 H 0.00812 0.03379 0.46787 0.0
C1463 C 0.92679 0.05511 0.52031 0.0
C1464 C 0.95459 0.97939 0.4989 0.0
C1465 C 0.91828 0.07027 0.53791 0.0
C1466 C 0.05139 0.93175 0.44827 0.0
C1467 C 0.03209 0.94574 0.46243 0.0
C1468 C 0.99295 0.01837 0.47618 0.0
C1469 C 0.93874 0.02461 0.52083 0.0
C1470 C 0.95535 0.01148 0.50315 0.0
C1471 C 0.01491 0.97255 0.45765 0.0
C1472 C 0.99314 0.98618 0.47253 0.0
H1473 H 0.93204 0.01145 0.57082 0.0
H1474 H 0.9474 0.98493 0.54016 0.0
H1475 H 0.97619 0.05557 0.49437 0.0
H1476 H 0.03894 0.98175 0.40957 0.0
H1477 H 0.00574 0.00666 0.43457 0.0
C1478 C 0.4427 0.93161 0.55521 0.0
C1479 C 0.4556 0.93135 0.57449 0.0
C1480 C 0.45556 0.95016 0.54024 0.0
C1481 C 0.5252 0.99399 0.52493 0.0
H1482 H 0.46588 0.04225 0.49406 0.0
C1483 C 0.56936 0.07603 0.46459 0.0
C1484 C 0.55495 0.0722 0.44595 0.0
C1485 C 0.555 0.06516 0.48192 0.0
C1486 C 0.48274 0.02889 0.50249 0.0
H1487 H 0.49345 0.94893 0.59274 0.0
H1488 H 0.51628 0.98096 0.5664 0.0
H1489 H 0.44735 0.00769 0.52044 0.0
H1490 H 0.51317 0.05655 0.43094 0.0
H1491 H 0.48806 0.03725 0.46116 0.0
H1492 H 0.56054 0.01442 0.50676 0.0
C1493 C 0.49606 0.96686 0.56295 0.0
C1494 C 0.47213 0.009 0.51756 0.0
C1495 C 0.48311 0.9483 0.57801 0.0
C1496 C 0.52456 0.06024 0.44517 0.0
C1497 C 0.51029 0.04896 0.46252 0.0
C1498 C 0.5358 0.01377 0.50983 0.0
C1499 C 0.48173 0.96882 0.54412 0.0
C1500 C 0.49322 0.99098 0.52875 0.0
C1501 C 0.52614 0.04976 0.48092 0.0
C1502 C 0.5147 0.03125 0.49825 0.0
H1503 H 0.42158 0.91873 0.55197 0.0
H1504 H 0.44446 0.95053 0.52573 0.0
H1505 H 0.542 0.98028 0.53318 0.0
H1506 H 0.59285 0.08513 0.46556 0.0
H1507 H 0.56746 0.06702 0.49591 0.0
C1508 C 0.53596 0.4705 0.57274 0.0
C1509 C 0.553 0.44311 0.56901 0.0
C1510 C 0.51733 0.48365 0.55779 0.0
C1511 C 0.47549 0.46074 0.51197 0.0
H1512 H 0.4704 0.5495 0.50207 0.0
C1513 C 0.42742 0.51532 0.43942 0.0
C1514 C 0.41577 0.54584 0.4403 0.0
C1515 C 0.43758 0.50042 0.45684 0.0
C1516 C 0.47093 0.52466 0.50489 0.0
H1517 H 0.56559 0.40949 0.54623 0.0
H1518 H 0.53364 0.43271 0.5202 0.0
H1519 H 0.50396 0.53026 0.52856 0.0
H1520 H 0.40207 0.58327 0.46006 0.0
H1521 H 0.4182 0.55677 0.4905 0.0
H1522 H 0.44277 0.45511 0.48809 0.0
C1523 C 0.53402 0.44356 0.53478 0.0
C1524 C 0.49039 0.51365 0.52004 0.0
C1525 C 0.55265 0.4305 0.54965 0.0
C1526 C 0.41094 0.55968 0.45902 0.0
C1527 C 0.42067 0.54469 0.47641 0.0
C1528 C 0.45593 0.47175 0.49684 0.0
C1529 C 0.51536 0.46967 0.53885 0.0
C1530 C 0.49334 0.48155 0.52352 0.0
C1531 C 0.43594 0.51575 0.4754 0.0
C1532 C 0.45373 0.50385 0.49291 0.0
H1533 H 0.53541 0.48067 0.58752 0.0
H1534 H 0.50323 0.50381 0.56139 0.0
H1535 H 0.47673 0.43587 0.5146 0.0
H1536 H 0.43188 0.50437 0.42514 0.0
H1537 H 0.4492 0.47814 0.45546 0.0
C1538 C 0.06164 0.5755 0.54577 0.0
C1539 C 0.05225 0.57054 0.56559 0.0
C1540 C 0.04613 0.56084 0.53005 0.0
C1541 C 0.00266 0.4886 0.52145 0.0
H1542 H 0.99382 0.52088 0.46777 0.0
C1543 C 0.94115 0.42293 0.45702 0.0
C1544 C 0.95304 0.4266 0.43764 0.0
C1545 C 0.95455 0.43877 0.47309 0.0
C1546 C 0.99657 0.51142 0.48263 0.0
H1547 H 0.01748 0.54866 0.58434 0.0
H1548 H 0.9899 0.52349 0.5568 0.0
H1549 H 0.00977 0.55576 0.49465 0.0
H1550 H 0.98963 0.44805 0.42012 0.0
H1551 H 0.01327 0.47551 0.44826 0.0
H1552 H 0.98942 0.44426 0.5094 0.0
C1553 C 0.00967 0.53827 0.55346 0.0
C1554 C 0.0055 0.53146 0.49806 0.0
C1555 C 0.02512 0.55315 0.56922 0.0
C1556 C 0.98013 0.44447 0.43491 0.0
C1557 C 0.99335 0.46061 0.45096 0.0
C1558 C 0.99363 0.46858 0.50602 0.0
C1559 C 0.02091 0.5408 0.53381 0.0
C1560 C 0.00878 0.52028 0.51766 0.0
C1561 C 0.97996 0.45885 0.47008 0.0
C1562 C 0.99067 0.47972 0.48641 0.0
H1563 H 0.08256 0.5887 0.54254 0.0
H1564 H 0.05548 0.56333 0.51514 0.0
H1565 H 0.00566 0.47901 0.53626 0.0
H1566 H 0.92018 0.40946 0.45955 0.0
H1567 H 0.94365 0.43692 0.4876 0.0
C1568 C 0.00196 0.46698 0.32806 0.0
C1569 C 0.97894 0.44381 0.32777 0.0
C1570 C 0.02113 0.47182 0.31151 0.0
C1571 C 0.04062 0.44129 0.26018 0.0
H1572 H 0.05679 0.52882 0.25024 0.0
C1573 C 0.05164 0.49906 0.18274 0.0
C1574 C 0.07261 0.5239 0.18032 0.0
C1575 C 0.04917 0.48363 0.20102 0.0
C1576 C 0.05309 0.5042 0.25292 0.0
H1577 H 0.95831 0.40687 0.31027 0.0
H1578 H 0.99056 0.41614 0.28088 0.0
H1579 H 0.03472 0.51301 0.28184 0.0
H1580 H 0.1085 0.5512 0.19472 0.0
H1581 H 0.10393 0.52445 0.22696 0.0
H1582 H 0.05703 0.43323 0.23035 0.0
C1583 C 0.99487 0.42999 0.29409 0.0
C1584 C 0.04043 0.49497 0.27117 0.0
C1585 C 0.97625 0.4246 0.31093 0.0
C1586 C 0.09261 0.5317 0.19611 0.0
C1587 C 0.08972 0.51663 0.21458 0.0
C1588 C 0.05281 0.45066 0.24172 0.0
C1589 C 0.017 0.45435 0.2939 0.0
C1590 C 0.03352 0.46342 0.27505 0.0
C1591 C 0.06712 0.49324 0.21743 0.0
C1592 C 0.05877 0.48229 0.2378 0.0
H1593 H 0.00448 0.48206 0.34093 0.0
H1594 H 0.0385 0.49006 0.31236 0.0
H1595 H 0.03629 0.41673 0.2626 0.0
H1596 H 0.03562 0.493 0.17086 0.0
H1597 H 0.03136 0.46594 0.20275 0.0
C1598 C 0.01551 0.97909 0.31518 0.0
C1599 C 0.04117 0.95945 0.31853 0.0
C1600 C 0.01228 0.99512 0.29716 0.0
C1601 C 0.02845 0.98512 0.24491 0.0
H1602 H 0.00031 0.07059 0.23987 0.0
C1603 C 0.98425 0.03003 0.16921 0.0
C1604 C 0.95789 0.04927 0.16968 0.0
C1605 C 0.00136 0.02432 0.18662 0.0
C1606 C 0.00786 0.04659 0.24095 0.0
H1607 H 0.0841 0.9419 0.30587 0.0
H1608 H 0.07797 0.96936 0.27393 0.0
H1609 H 0.01751 0.05109 0.27224 0.0
H1610 H 0.92875 0.07795 0.18845 0.0
H1611 H 0.95765 0.06735 0.21898 0.0
H1612 H 0.0169 0.97958 0.21418 0.0
C1613 C 0.06063 0.97263 0.28546 0.0
C1614 C 0.01799 0.03554 0.25952 0.0
C1615 C 0.06424 0.95711 0.30375 0.0
C1616 C 0.94948 0.06361 0.18767 0.0
C1617 C 0.96618 0.05746 0.20518 0.0
C1618 C 0.01782 0.99596 0.22644 0.0
C1619 C 0.0343 0.99136 0.28187 0.0
C1620 C 0.02788 0.00452 0.26176 0.0
C1621 C 0.99189 0.03698 0.20506 0.0
C1622 C 0.00675 0.02671 0.22422 0.0
H1623 H 0.99734 0.9813 0.3263 0.0
H1624 H 0.99163 0.00913 0.29479 0.0
H1625 H 0.03552 0.96097 0.24624 0.0
H1626 H 0.9909 0.01841 0.15551 0.0
H1627 H 0.02138 0.00908 0.18568 0.0
C1628 C 0.53845 0.07518 0.31455 0.0
C1629 C 0.52909 0.06141 0.33252 0.0
C1630 C 0.52122 0.07042 0.29708 0.0
C1631 C 0.46634 0.01198 0.27587 0.0
H1632 H 0.47123 0.06595 0.22966 0.0
C1633 C 0.42341 0.97182 0.19814 0.0
C1634 C 0.44739 0.97323 0.18392 0.0
C1635 C 0.42614 0.98811 0.21623 0.0
C1636 C 0.46944 0.05074 0.24249 0.0
H1637 H 0.49384 0.03315 0.34671 0.0
H1638 H 0.46253 0.02635 0.31658 0.0
H1639 H 0.48815 0.08532 0.26215 0.0
H1640 H 0.49187 0.9943 0.17684 0.0
H1641 H 0.49612 0.0234 0.20795 0.0
H1642 H 0.44786 0.97738 0.25607 0.0
C1643 C 0.48362 0.04011 0.31566 0.0
C1644 C 0.47937 0.06172 0.26113 0.0
C1645 C 0.5012 0.04443 0.33305 0.0
C1646 C 0.473 0.99284 0.18752 0.0
C1647 C 0.47539 0.0096 0.20532 0.0
C1648 C 0.45596 0.00122 0.25732 0.0
C1649 C 0.49407 0.05188 0.29721 0.0
C1650 C 0.47892 0.04217 0.27801 0.0
C1651 C 0.45252 0.00664 0.22017 0.0
C1652 C 0.45824 0.02014 0.24031 0.0
H1653 H 0.56035 0.08766 0.3137 0.0
H1654 H 0.53049 0.07957 0.28327 0.0
H1655 H 0.466 0.99585 0.28827 0.0
H1656 H 0.40359 0.95662 0.19583 0.0
H1657 H 0.40813 0.98546 0.2274 0.0
C1658 C 0.44335 0.49712 0.32603 0.0
C1659 C 0.43183 0.52767 0.32531 0.0
C1660 C 0.44762 0.48005 0.30839 0.0
C1661 C 0.43328 0.48223 0.25298 0.0
H1662 H 0.51292 0.43984 0.25066 0.0
C1663 C 0.50881 0.4736 0.18262 0.0
C1664 C 0.52535 0.44606 0.17863 0.0
C1665 C 0.49074 0.47641 0.19983 0.0
C1666 C 0.49031 0.45101 0.25111 0.0
H1667 H 0.41521 0.56429 0.30595 0.0
H1668 H 0.42281 0.53504 0.27525 0.0
H1669 H 0.49298 0.45777 0.28264 0.0
H1670 H 0.53517 0.39942 0.18921 0.0
H1671 H 0.50398 0.4046 0.21979 0.0
H1672 H 0.43185 0.47719 0.22117 0.0
C1673 C 0.42779 0.52355 0.28925 0.0
C1674 C 0.47875 0.46128 0.26951 0.0
C1675 C 0.42338 0.54043 0.30686 0.0
C1676 C 0.5224 0.4208 0.19183 0.0
C1677 C 0.50477 0.42385 0.20936 0.0
C1678 C 0.44505 0.4723 0.23458 0.0
C1679 C 0.4409 0.49345 0.28967 0.0
C1680 C 0.4505 0.47789 0.27065 0.0
C1681 C 0.48924 0.45195 0.21371 0.0
C1682 C 0.4741 0.45734 0.23338 0.0
H1683 H 0.4506 0.48708 0.3401 0.0
H1684 H 0.45731 0.45681 0.30939 0.0
H1685 H 0.41111 0.49422 0.25325 0.0
H1686 H 0.51073 0.49347 0.17273 0.0
H1687 H 0.47934 0.49845 0.20282 0.0
C1688 C 0.03058 0.5138 0.68174 0.0
C1689 C 0.04244 0.54305 0.67607 0.0
C1690 C 0.01427 0.51015 0.69959 0.0
C1691 C 0.97157 0.50881 0.73548 0.0
H1692 H 0.01271 0.54485 0.78147 0.0
C1693 C 0.93802 0.47259 0.81595 0.0
C1694 C 0.96382 0.46418 0.8277 0.0
C1695 C 0.94224 0.48908 0.79805 0.0
C1696 C 0.00079 0.53473 0.76879 0.0
H1697 H 0.04512 0.59177 0.68438 0.0
H1698 H 0.01656 0.58538 0.71582 0.0
H1699 H 0.02871 0.56038 0.74803 0.0
H1700 H 0.014 0.46821 0.83044 0.0
H1701 H 0.02125 0.49674 0.79959 0.0
H1702 H 0.94487 0.48185 0.75621 0.0
C1703 C 0.02009 0.56523 0.70637 0.0
C1704 C 0.00975 0.5439 0.74958 0.0
C1705 C 0.03623 0.56895 0.68829 0.0
C1706 C 0.9936 0.47414 0.82173 0.0
C1707 C -0.00225 0.49078 0.80405 0.0
C1708 C 0.96256 0.49968 0.75468 0.0
C1709 C 0.00946 0.53561 0.71241 0.0
C1710 C 0.99599 0.53027 0.73266 0.0
C1711 C 0.97227 0.49784 0.79169 0.0
C1712 C 0.9778 0.51174 0.77158 0.0
H1713 H 0.0348 0.49335 0.67265 0.0
H1714 H 0.00683 0.48695 0.70379 0.0
H1715 H 0.96014 0.49816 0.72279 0.0
H1716 H 0.91479 0.46521 0.82009 0.0
H1717 H 0.92207 0.49436 0.78897 0.0
C1718 C 0.938 2e-05 0.66955 0.0
C1719 C 0.92681 0.03065 0.67093 0.0
C1720 C 0.9418 0.98189 0.68678 0.0
C1721 C 0.92773 0.98132 0.74224 0.0
H1722 H 0.0081 0.94019 0.74357 0.0
C1723 C 0.00418 0.97259 0.81202 0.0
C1724 C 0.02133 0.94534 0.81577 0.0
C1725 C 0.98596 0.97532 0.79487 0.0
C1726 C 0.98529 0.95096 0.74339 0.0
H1727 H 0.91006 0.0662 0.69106 0.0
H1728 H 0.91672 0.03506 0.72105 0.0
H1729 H 0.98743 0.95883 0.71196 0.0
H1730 H 0.03216 0.89914 0.80481 0.0
H1731 H 0.00072 0.90423 0.77426 0.0
H1732 H 0.92683 0.97522 0.77397 0.0
C1733 C 0.92184 0.02434 0.70681 0.0
C1734 C 0.97331 0.96165 0.7252 0.0
C1735 C 0.91791 0.0423 0.68959 0.0
C1736 C 0.01896 0.9203 0.80234 0.0
C1737 C 0.00117 0.9233 0.78485 0.0
C1738 C 0.9399 0.97095 0.76043 0.0
C1739 C 0.93496 0.99428 0.70576 0.0
C1740 C 0.9448 0.9779 0.72444 0.0
C1741 C 0.98488 0.95108 0.7808 0.0
C1742 C 0.96925 0.95651 0.76129 0.0
H1743 H 0.94568 0.99083 0.65533 0.0
H1744 H 0.95148 0.95871 0.68529 0.0
H1745 H 0.9054 0.99302 0.74225 0.0
H1746 H 0.00558 0.99227 0.82212 0.0
H1747 H 0.97402 0.99713 0.79212 0.0
C1748 C 0.47236 0.92892 0.70208 0.0
C1749 C 0.47757 0.94629 0.6847 0.0
C1750 C 0.48956 0.93512 0.71943 0.0
C1751 C 0.53635 -5e-05 0.74175 0.0
H1752 H 0.54491 0.94162 0.78551 0.0
C1753 C 0.58445 0.03963 0.81773 0.0
C1754 C 0.5623 0.03514 0.83284 0.0
C1755 C 0.58183 0.02343 0.79961 0.0
C1756 C 0.54295 0.95806 0.77333 0.0
H1757 H 0.506 0.98211 0.67122 0.0
H1758 H 0.53762 0.99136 0.70079 0.0
H1759 H 0.52667 0.92308 0.75308 0.0
H1760 H 0.52149 0.00885 0.84154 0.0
H1761 H 0.51768 0.97968 0.81035 0.0
H1762 H 0.55268 0.03483 0.76207 0.0
C1763 C 0.51937 0.97401 0.7016 0.0
C1764 C 0.53218 0.94755 0.75475 0.0
C1765 C 0.50159 0.96841 0.68449 0.0
C1766 C 0.53909 0.01242 0.83019 0.0
C1767 C 0.53689 0.99576 0.81233 0.0
C1768 C 0.54769 0.01025 0.76015 0.0
C1769 C 0.51276 0.95846 0.71963 0.0
C1770 C 0.52793 0.9685 0.73877 0.0
C1771 C 0.5574 0.00204 0.79653 0.0
C1772 C 0.55042 0.98963 0.77629 0.0
H1773 H 0.45357 0.91208 0.70266 0.0
H1774 H 0.48331 0.92279 0.73291 0.0
H1775 H 0.53286 0.01718 0.7302 0.0
H1776 H 0.6022 0.05742 0.81928 0.0
H1777 H 0.59798 0.02869 0.78768 0.0
C1778 C 0.45642 0.56829 0.81674 0.0
C1779 C 0.44885 0.54214 0.82841 0.0
C1780 C 0.47307 0.56469 0.79883 0.0
C1781 C 0.5213 0.50772 0.77003 0.0
H1782 H 0.48414 0.54621 0.72351 0.0
C1783 C 0.50218 0.47494 0.68331 0.0
C1784 C 0.53165 0.46323 0.67808 0.0
C1785 C 0.49798 0.49193 0.70087 0.0
C1786 C 0.49495 0.53539 0.73636 0.0
H1787 H 0.45438 0.49202 0.83096 0.0
H1788 H 0.48312 0.48587 0.80015 0.0
H1789 H 0.46679 0.56156 0.75674 0.0
H1790 H 0.58022 0.46166 0.68679 0.0
H1791 H 0.57288 0.49148 0.71765 0.0
H1792 H 0.5481 0.48021 0.74969 0.0
C1793 C 0.47641 0.50916 0.80466 0.0
C1794 C 0.48523 0.54446 0.75544 0.0
C1795 C 0.4596 0.51268 0.8223 0.0
C1796 C 0.55722 0.47036 0.69037 0.0
C1797 C 0.55295 0.48724 0.70812 0.0
C1798 C 0.53104 0.49867 0.75097 0.0
C1799 C 0.48288 0.53496 0.79245 0.0
C1800 C 0.49746 0.52991 0.7725 0.0
C1801 C 0.5231 0.49764 0.7138 0.0
C1802 C 0.51718 0.51158 0.73386 0.0
H1803 H 0.44843 0.59128 0.82102 0.0
H1804 H 0.47783 0.58508 0.78982 0.0
H1805 H 0.53159 0.49638 0.78287 0.0
H1806 H 0.48196 0.47007 0.67416 0.0
H1807 H 0.4746 0.49915 0.70478 0.0
loop_
_geom_bond_atom_site_label_1
_geom_bond_atom_site_label_2
_geom_bond_distance
_geom_bond_site_symmetry_2
_ccdc_geom_bond_type
O0 Zn1 1.953 . S
O0 C16 1.225 . S
Zn1 O0 1.953 . S
Zn1 O2 1.949 . S
Zn1 O8 1.919 . S
Zn1 O13 1.924 . S
O2 Zn1 1.949 . S
O2 Zn3 1.923 . S
O2 Zn4 1.950 . S
O2 Zn5 1.945 . S
Zn3 O2 1.923 . S
Zn3 O6 1.933 . S
Zn3 O9 1.941 . S
Zn3 O10 1.965 1_455 S
Zn4 O2 1.950 . S
Zn4 O11 1.938 1_455 S
Zn4 O12 1.906 . S
Zn4 O22 1.953 . S
Zn5 O2 1.945 . S
Zn5 O7 1.932 . S
Zn5 O14 1.977 . S
Zn5 O15 1.910 . S
O6 Zn3 1.933 . S
O6 C17 1.226 . S
O7 Zn5 1.932 . S
O7 C17 1.307 . S
O8 Zn1 1.919 . S
O8 C19 1.253 . S
O9 Zn3 1.941 . S
O9 C19 1.283 . S
O10 Zn3 1.965 1_655 S
O10 C18 1.303 . S
O11 Zn4 1.938 1_655 S
O11 C18 1.247 . S
O12 Zn4 1.906 . S
O12 C20 1.304 . S
O13 Zn1 1.924 . S
O13 C21 1.311 . S
O14 Zn5 1.977 . S
O14 C20 1.272 . S
O15 Zn5 1.910 . S
O15 C21 1.231 . S
C16 O0 1.225 . S
C16 O22 1.298 . S
C17 O6 1.226 . S
C17 O7 1.307 . S
C18 O10 1.303 . S
C18 O11 1.247 . S
C19 O8 1.253 . S
C19 O9 1.283 . S
C20 O12 1.304 . S
C20 O14 1.272 . S
C21 O13 1.311 . S
C21 O15 1.231 . S
O22 Zn4 1.953 . S
O22 C16 1.298 . S
O23 Zn24 1.953 . S
O23 C39 1.225 . S
Zn24 O23 1.953 . S
Zn24 O25 1.949 . S
Zn24 O31 1.919 . S
Zn24 O36 1.924 . S
O25 Zn24 1.949 . S
O25 Zn26 1.923 . S
O25 Zn27 1.950 . S
O25 Zn28 1.945 . S
Zn26 O25 1.923 . S
Zn26 O29 1.933 . S
Zn26 O32 1.941 . S
Zn26 O33 1.965 1_545 S
Zn27 O25 1.950 . S
Zn27 O34 1.938 1_545 S
Zn27 O35 1.906 . S
Zn27 O45 1.953 . S
Zn28 O25 1.945 . S
Zn28 O30 1.932 . S
Zn28 O37 1.977 . S
Zn28 O38 1.910 . S
O29 Zn26 1.933 . S
O29 C40 1.226 . S
O30 Zn28 1.932 . S
O30 C40 1.307 . S
O31 Zn24 1.919 . S
O31 C42 1.253 . S
O32 Zn26 1.941 . S
O32 C42 1.283 . S
O33 Zn26 1.965 1_565 S
O33 C41 1.303 . S
O34 Zn27 1.938 1_565 S
O34 C41 1.247 . S
O35 Zn27 1.906 . S
O35 C43 1.304 . S
O36 Zn24 1.924 . S
O36 C44 1.311 . S
O37 Zn28 1.977 . S
O37 C43 1.272 . S
O38 Zn28 1.910 . S
O38 C44 1.231 . S
C39 O23 1.225 . S
C39 O45 1.298 . S
C40 O29 1.226 . S
C40 O30 1.307 . S
C41 O33 1.303 . S
C41 O34 1.247 . S
C42 O31 1.253 . S
C42 O32 1.283 . S
C43 O35 1.304 . S
C43 O37 1.272 . S
C44 O36 1.311 . S
C44 O38 1.231 . S
O45 Zn27 1.953 . S
O45 C39 1.298 . S
O46 Zn47 1.953 . S
O46 C62 1.225 . S
Zn47 O46 1.953 . S
Zn47 O48 1.949 . S
Zn47 O54 1.919 . S
Zn47 O59 1.924 . S
O48 Zn47 1.949 . S
O48 Zn49 1.923 . S
O48 Zn50 1.950 . S
O48 Zn51 1.945 . S
Zn49 O48 1.923 . S
Zn49 O52 1.933 . S
Zn49 O55 1.941 . S
Zn49 O56 1.965 . S
Zn50 O48 1.950 . S
Zn50 O57 1.938 . S
Zn50 O58 1.906 . S
Zn50 O68 1.953 . S
Zn51 O48 1.945 . S
Zn51 O53 1.932 . S
Zn51 O60 1.977 . S
Zn51 O61 1.910 . S
O52 Zn49 1.933 . S
O52 C63 1.226 . S
O53 Zn51 1.932 . S
O53 C63 1.307 . S
O54 Zn47 1.919 . S
O54 C65 1.253 . S
O55 Zn49 1.941 . S
O55 C65 1.283 . S
O56 Zn49 1.965 . S
O56 C64 1.303 . S
O57 Zn50 1.938 . S
O57 C64 1.247 . S
O58 Zn50 1.906 . S
O58 C66 1.304 . S
O59 Zn47 1.924 . S
O59 C67 1.311 . S
O60 Zn51 1.977 . S
O60 C66 1.272 . S
O61 Zn51 1.910 . S
O61 C67 1.231 . S
C62 O46 1.225 . S
C62 O68 1.298 . S
C63 O52 1.226 . S
C63 O53 1.307 . S
C64 O56 1.303 . S
C64 O57 1.247 . S
C65 O54 1.253 . S
C65 O55 1.283 . S
C66 O58 1.304 . S
C66 O60 1.272 . S
C67 O59 1.311 . S
C67 O61 1.231 . S
O68 Zn50 1.953 . S
O68 C62 1.298 . S
O69 Zn70 1.953 . S
O69 C85 1.225 . S
Zn70 O69 1.953 . S
Zn70 O71 1.949 . S
Zn70 O77 1.919 . S
Zn70 O82 1.924 . S
O71 Zn70 1.949 . S
O71 Zn72 1.923 . S
O71 Zn73 1.950 . S
O71 Zn74 1.945 . S
Zn72 O71 1.923 . S
Zn72 O75 1.933 . S
Zn72 O78 1.941 . S
Zn72 O79 1.965 . S
Zn73 O71 1.950 . S
Zn73 O80 1.938 . S
Zn73 O81 1.906 . S
Zn73 O91 1.953 . S
Zn74 O71 1.945 . S
Zn74 O76 1.932 . S
Zn74 O83 1.977 . S
Zn74 O84 1.910 . S
O75 Zn72 1.933 . S
O75 C86 1.226 . S
O76 Zn74 1.932 . S
O76 C86 1.307 . S
O77 Zn70 1.919 . S
O77 C88 1.253 . S
O78 Zn72 1.941 . S
O78 C88 1.283 . S
O79 Zn72 1.965 . S
O79 C87 1.303 . S
O80 Zn73 1.938 . S
O80 C87 1.247 . S
O81 Zn73 1.906 . S
O81 C89 1.304 . S
O82 Zn70 1.924 . S
O82 C90 1.311 . S
O83 Zn74 1.977 . S
O83 C89 1.272 . S
O84 Zn74 1.910 . S
O84 C90 1.231 . S
C85 O69 1.225 . S
C85 O91 1.298 . S
C86 O75 1.226 . S
C86 O76 1.307 . S
C87 O79 1.303 . S
C87 O80 1.247 . S
C88 O77 1.253 . S
C88 O78 1.283 . S
C89 O81 1.304 . S
C89 O83 1.272 . S
C90 O82 1.311 . S
C90 O84 1.231 . S
O91 Zn73 1.953 . S
O91 C85 1.298 . S
O92 Zn93 1.953 . S
O92 C108 1.225 . S
Zn93 O92 1.953 . S
Zn93 O94 1.949 . S
Zn93 O100 1.919 . S
Zn93 O105 1.924 . S
O94 Zn93 1.949 . S
O94 Zn95 1.923 . S
O94 Zn96 1.950 . S
O94 Zn97 1.945 . S
Zn95 O94 1.923 . S
Zn95 O98 1.933 . S
Zn95 O101 1.941 . S
Zn95 O102 1.965 1_455 S
Zn96 O94 1.950 . S
Zn96 O103 1.938 1_455 S
Zn96 O104 1.906 . S
Zn96 O114 1.953 . S
Zn97 O94 1.945 . S
Zn97 O99 1.932 . S
Zn97 O106 1.977 . S
Zn97 O107 1.910 . S
O98 Zn95 1.933 . S
O98 C109 1.226 . S
O99 Zn97 1.932 . S
O99 C109 1.307 . S
O100 Zn93 1.919 . S
O100 C111 1.253 . S
O101 Zn95 1.941 . S
O101 C111 1.283 . S
O102 Zn95 1.965 1_655 S
O102 C110 1.303 . S
O103 Zn96 1.938 1_655 S
O103 C110 1.247 . S
O104 Zn96 1.906 . S
O104 C112 1.304 . S
O105 Zn93 1.924 . S
O105 C113 1.311 . S
O106 Zn97 1.977 . S
O106 C112 1.272 . S
O107 Zn97 1.910 . S
O107 C113 1.231 . S
C108 O92 1.225 . S
C108 O114 1.298 . S
C109 O98 1.226 . S
C109 O99 1.307 . S
C110 O102 1.303 . S
C110 O103 1.247 . S
C111 O100 1.253 . S
C111 O101 1.283 . S
C112 O104 1.304 . S
C112 O106 1.272 . S
C113 O105 1.311 . S
C113 O107 1.231 . S
O114 Zn96 1.953 . S
O114 C108 1.298 . S
O115 Zn116 1.953 . S
O115 C131 1.225 . S
Zn116 O115 1.953 . S
Zn116 O117 1.949 . S
Zn116 O123 1.919 . S
Zn116 O128 1.924 . S
O117 Zn116 1.949 . S
O117 Zn118 1.923 . S
O117 Zn119 1.950 . S
O117 Zn120 1.945 . S
Zn118 O117 1.923 . S
Zn118 O121 1.933 . S
Zn118 O124 1.941 . S
Zn118 O125 1.965 1_545 S
Zn119 O117 1.950 . S
Zn119 O126 1.938 1_545 S
Zn119 O127 1.906 . S
Zn119 O137 1.953 . S
Zn120 O117 1.945 . S
Zn120 O122 1.932 . S
Zn120 O129 1.977 . S
Zn120 O130 1.910 . S
O121 Zn118 1.933 . S
O121 C132 1.226 . S
O122 Zn120 1.932 . S
O122 C132 1.307 . S
O123 Zn116 1.919 . S
O123 C134 1.253 . S
O124 Zn118 1.941 . S
O124 C134 1.283 . S
O125 Zn118 1.965 1_565 S
O125 C133 1.303 . S
O126 Zn119 1.938 1_565 S
O126 C133 1.247 . S
O127 Zn119 1.906 . S
O127 C135 1.304 . S
O128 Zn116 1.924 . S
O128 C136 1.311 . S
O129 Zn120 1.977 . S
O129 C135 1.272 . S
O130 Zn120 1.910 . S
O130 C136 1.231 . S
C131 O115 1.225 . S
C131 O137 1.298 . S
C132 O121 1.226 . S
C132 O122 1.307 . S
C133 O125 1.303 . S
C133 O126 1.247 . S
C134 O123 1.253 . S
C134 O124 1.283 . S
C135 O127 1.304 . S
C135 O129 1.272 . S
C136 O128 1.311 . S
C136 O130 1.231 . S
O137 Zn119 1.953 . S
O137 C131 1.298 . S
O138 Zn139 1.953 . S
O138 C154 1.225 . S
Zn139 O138 1.953 . S
Zn139 O140 1.949 . S
Zn139 O146 1.919 . S
Zn139 O151 1.924 . S
O140 Zn139 1.949 . S
O140 Zn141 1.923 . S
O140 Zn142 1.950 . S
O140 Zn143 1.945 . S
Zn141 O140 1.923 . S
Zn141 O144 1.933 . S
Zn141 O147 1.941 . S
Zn141 O148 1.965 . S
Zn142 O140 1.950 . S
Zn142 O149 1.938 . S
Zn142 O150 1.906 . S
Zn142 O160 1.953 . S
Zn143 O140 1.945 . S
Zn143 O145 1.932 . S
Zn143 O152 1.977 . S
Zn143 O153 1.910 . S
O144 Zn141 1.933 . S
O144 C155 1.226 . S
O145 Zn143 1.932 . S
O145 C155 1.307 . S
O146 Zn139 1.919 . S
O146 C157 1.253 . S
O147 Zn141 1.941 . S
O147 C157 1.283 . S
O148 Zn141 1.965 . S
O148 C156 1.303 . S
O149 Zn142 1.938 . S
O149 C156 1.247 . S
O150 Zn142 1.906 . S
O150 C158 1.304 . S
O151 Zn139 1.924 . S
O151 C159 1.311 . S
O152 Zn143 1.977 . S
O152 C158 1.272 . S
O153 Zn143 1.910 . S
O153 C159 1.231 . S
C154 O138 1.225 . S
C154 O160 1.298 . S
C155 O144 1.226 . S
C155 O145 1.307 . S
C156 O148 1.303 . S
C156 O149 1.247 . S
C157 O146 1.253 . S
C157 O147 1.283 . S
C158 O150 1.304 . S
C158 O152 1.272 . S
C159 O151 1.311 . S
C159 O153 1.231 . S
O160 Zn142 1.953 . S
O160 C154 1.298 . S
O161 Zn162 1.953 . S
O161 C177 1.225 . S
Zn162 O161 1.953 . S
Zn162 O163 1.949 . S
Zn162 O169 1.919 . S
Zn162 O174 1.924 . S
O163 Zn162 1.949 . S
O163 Zn164 1.923 . S
O163 Zn165 1.950 . S
O163 Zn166 1.945 . S
Zn164 O163 1.923 . S
Zn164 O167 1.933 . S
Zn164 O170 1.941 . S
Zn164 O171 1.965 . S
Zn165 O163 1.950 . S
Zn165 O172 1.938 . S
Zn165 O173 1.906 . S
Zn165 O183 1.953 . S
Zn166 O163 1.945 . S
Zn166 O168 1.932 . S
Zn166 O175 1.977 . S
Zn166 O176 1.910 . S
O167 Zn164 1.933 . S
O167 C178 1.226 . S
O168 Zn166 1.932 . S
O168 C178 1.307 . S
O169 Zn162 1.919 . S
O169 C180 1.253 . S
O170 Zn164 1.941 . S
O170 C180 1.283 . S
O171 Zn164 1.965 . S
O171 C179 1.303 . S
O172 Zn165 1.938 . S
O172 C179 1.247 . S
O173 Zn165 1.906 . S
O173 C181 1.304 . S
O174 Zn162 1.924 . S
O174 C182 1.311 . S
O175 Zn166 1.977 . S
O175 C181 1.272 . S
O176 Zn166 1.910 . S
O176 C182 1.231 . S
C177 O161 1.225 . S
C177 O183 1.298 . S
C178 O167 1.226 . S
C178 O168 1.307 . S
C179 O171 1.303 . S
C179 O172 1.247 . S
C180 O169 1.253 . S
C180 O170 1.283 . S
C181 O173 1.304 . S
C181 O175 1.272 . S
C182 O174 1.311 . S
C182 O176 1.231 . S
O183 Zn165 1.953 . S
O183 C177 1.298 . S
O184 Zn185 1.953 . S
O184 C200 1.225 . S
Zn185 O184 1.953 . S
Zn185 O186 1.949 . S
Zn185 O192 1.919 . S
Zn185 O197 1.924 . S
O186 Zn185 1.949 . S
O186 Zn187 1.923 . S
O186 Zn188 1.950 . S
O186 Zn189 1.945 . S
Zn187 O186 1.923 . S
Zn187 O190 1.933 . S
Zn187 O193 1.941 . S
Zn187 O194 1.965 1_655 S
Zn188 O186 1.950 . S
Zn188 O195 1.938 1_655 S
Zn188 O196 1.906 . S
Zn188 O206 1.953 . S
Zn189 O186 1.945 . S
Zn189 O191 1.932 . S
Zn189 O198 1.977 . S
Zn189 O199 1.910 . S
O190 Zn187 1.933 . S
O190 C201 1.226 . S
O191 Zn189 1.932 . S
O191 C201 1.307 . S
O192 Zn185 1.919 . S
O192 C203 1.253 . S
O193 Zn187 1.941 . S
O193 C203 1.283 . S
O194 Zn187 1.965 1_455 S
O194 C202 1.303 . S
O195 Zn188 1.938 1_455 S
O195 C202 1.247 . S
O196 Zn188 1.906 . S
O196 C204 1.304 . S
O197 Zn185 1.924 . S
O197 C205 1.311 . S
O198 Zn189 1.977 . S
O198 C204 1.272 . S
O199 Zn189 1.910 . S
O199 C205 1.231 . S
C200 O184 1.225 . S
C200 O206 1.298 . S
C201 O190 1.226 . S
C201 O191 1.307 . S
C202 O194 1.303 . S
C202 O195 1.247 . S
C203 O192 1.253 . S
C203 O193 1.283 . S
C204 O196 1.304 . S
C204 O198 1.272 . S
C205 O197 1.311 . S
C205 O199 1.231 . S
O206 Zn188 1.953 . S
O206 C200 1.298 . S
O207 Zn208 1.953 . S
O207 C223 1.225 . S
Zn208 O207 1.953 . S
Zn208 O209 1.949 . S
Zn208 O215 1.919 . S
Zn208 O220 1.924 . S
O209 Zn208 1.949 . S
O209 Zn210 1.923 . S
O209 Zn211 1.950 . S
O209 Zn212 1.945 . S
Zn210 O209 1.923 . S
Zn210 O213 1.933 . S
Zn210 O216 1.941 . S
Zn210 O217 1.965 1_565 S
Zn211 O209 1.950 . S
Zn211 O218 1.938 1_565 S
Zn211 O219 1.906 . S
Zn211 O229 1.953 . S
Zn212 O209 1.945 . S
Zn212 O214 1.932 . S
Zn212 O221 1.977 . S
Zn212 O222 1.910 . S
O213 Zn210 1.933 . S
O213 C224 1.226 . S
O214 Zn212 1.932 . S
O214 C224 1.307 . S
O215 Zn208 1.919 . S
O215 C226 1.253 . S
O216 Zn210 1.941 . S
O216 C226 1.283 . S
O217 Zn210 1.965 1_545 S
O217 C225 1.303 . S
O218 Zn211 1.938 1_545 S
O218 C225 1.247 . S
O219 Zn211 1.906 . S
O219 C227 1.304 . S
O220 Zn208 1.924 . S
O220 C228 1.311 . S
O221 Zn212 1.977 . S
O221 C227 1.272 . S
O222 Zn212 1.910 . S
O222 C228 1.231 . S
C223 O207 1.225 . S
C223 O229 1.298 . S
C224 O213 1.226 . S
C224 O214 1.307 . S
C225 O217 1.303 . S
C225 O218 1.247 . S
C226 O215 1.253 . S
C226 O216 1.283 . S
C227 O219 1.304 . S
C227 O221 1.272 . S
C228 O220 1.311 . S
C228 O222 1.231 . S
O229 Zn211 1.953 . S
O229 C223 1.298 . S
O230 Zn231 1.953 . S
O230 C246 1.225 . S
Zn231 O230 1.953 . S
Zn231 O232 1.949 . S
Zn231 O238 1.919 . S
Zn231 O243 1.924 . S
O232 Zn231 1.949 . S
O232 Zn233 1.923 . S
O232 Zn234 1.950 . S
O232 Zn235 1.945 . S
Zn233 O232 1.923 . S
Zn233 O236 1.933 . S
Zn233 O239 1.941 . S
Zn233 O240 1.965 . S
Zn234 O232 1.950 . S
Zn234 O241 1.938 . S
Zn234 O242 1.906 . S
Zn234 O252 1.953 . S
Zn235 O232 1.945 . S
Zn235 O237 1.932 . S
Zn235 O244 1.977 . S
Zn235 O245 1.910 . S
O236 Zn233 1.933 . S
O236 C247 1.226 . S
O237 Zn235 1.932 . S
O237 C247 1.307 . S
O238 Zn231 1.919 . S
O238 C249 1.253 . S
O239 Zn233 1.941 . S
O239 C249 1.283 . S
O240 Zn233 1.965 . S
O240 C248 1.303 . S
O241 Zn234 1.938 . S
O241 C248 1.247 . S
O242 Zn234 1.906 . S
O242 C250 1.304 . S
O243 Zn231 1.924 . S
O243 C251 1.311 . S
O244 Zn235 1.977 . S
O244 C250 1.272 . S
O245 Zn235 1.910 . S
O245 C251 1.231 . S
C246 O230 1.225 . S
C246 O252 1.298 . S
C247 O236 1.226 . S
C247 O237 1.307 . S
C248 O240 1.303 . S
C248 O241 1.247 . S
C249 O238 1.253 . S
C249 O239 1.283 . S
C250 O242 1.304 . S
C250 O244 1.272 . S
C251 O243 1.311 . S
C251 O245 1.231 . S
O252 Zn234 1.953 . S
O252 C246 1.298 . S
O253 Zn254 1.953 . S
O253 C269 1.225 . S
Zn254 O253 1.953 . S
Zn254 O255 1.949 . S
Zn254 O261 1.919 . S
Zn254 O266 1.924 . S
O255 Zn254 1.949 . S
O255 Zn256 1.923 . S
O255 Zn257 1.950 . S
O255 Zn258 1.945 . S
Zn256 O255 1.923 . S
Zn256 O259 1.933 . S
Zn256 O262 1.941 . S
Zn256 O263 1.965 . S
Zn257 O255 1.950 . S
Zn257 O264 1.938 . S
Zn257 O265 1.906 . S
Zn257 O275 1.953 . S
Zn258 O255 1.945 . S
Zn258 O260 1.932 . S
Zn258 O267 1.977 . S
Zn258 O268 1.910 . S
O259 Zn256 1.933 . S
O259 C270 1.226 . S
O260 Zn258 1.932 . S
O260 C270 1.307 . S
O261 Zn254 1.919 . S
O261 C272 1.253 . S
O262 Zn256 1.941 . S
O262 C272 1.283 . S
O263 Zn256 1.965 . S
O263 C271 1.303 . S
O264 Zn257 1.938 . S
O264 C271 1.247 . S
O265 Zn257 1.906 . S
O265 C273 1.304 . S
O266 Zn254 1.924 . S
O266 C274 1.311 . S
O267 Zn258 1.977 . S
O267 C273 1.272 . S
O268 Zn258 1.910 . S
O268 C274 1.231 . S
C269 O253 1.225 . S
C269 O275 1.298 . S
C270 O259 1.226 . S
C270 O260 1.307 . S
C271 O263 1.303 . S
C271 O264 1.247 . S
C272 O261 1.253 . S
C272 O262 1.283 . S
C273 O265 1.304 . S
C273 O267 1.272 . S
C274 O266 1.311 . S
C274 O268 1.231 . S
O275 Zn257 1.953 . S
O275 C269 1.298 . S
O276 Zn277 1.953 . S
O276 C292 1.225 . S
Zn277 O276 1.953 . S
Zn277 O278 1.949 . S
Zn277 O284 1.919 . S
Zn277 O289 1.924 . S
O278 Zn277 1.949 . S
O278 Zn279 1.923 . S
O278 Zn280 1.950 . S
O278 Zn281 1.945 . S
Zn279 O278 1.923 . S
Zn279 O282 1.933 . S
Zn279 O285 1.941 . S
Zn279 O286 1.965 1_655 S
Zn280 O278 1.950 . S
Zn280 O287 1.938 1_655 S
Zn280 O288 1.906 . S
Zn280 O298 1.953 . S
Zn281 O278 1.945 . S
Zn281 O283 1.932 . S
Zn281 O290 1.977 . S
Zn281 O291 1.910 . S
O282 Zn279 1.933 . S
O282 C293 1.226 . S
O283 Zn281 1.932 . S
O283 C293 1.307 . S
O284 Zn277 1.919 . S
O284 C295 1.253 . S
O285 Zn279 1.941 . S
O285 C295 1.283 . S
O286 Zn279 1.965 1_455 S
O286 C294 1.303 . S
O287 Zn280 1.938 1_455 S
O287 C294 1.247 . S
O288 Zn280 1.906 . S
O288 C296 1.304 . S
O289 Zn277 1.924 . S
O289 C297 1.311 . S
O290 Zn281 1.977 . S
O290 C296 1.272 . S
O291 Zn281 1.910 . S
O291 C297 1.231 . S
C292 O276 1.225 . S
C292 O298 1.298 . S
C293 O282 1.226 . S
C293 O283 1.307 . S
C294 O286 1.303 . S
C294 O287 1.247 . S
C295 O284 1.253 . S
C295 O285 1.283 . S
C296 O288 1.304 . S
C296 O290 1.272 . S
C297 O289 1.311 . S
C297 O291 1.231 . S
O298 Zn280 1.953 . S
O298 C292 1.298 . S
O299 Zn300 1.953 . S
O299 C315 1.225 . S
Zn300 O299 1.953 . S
Zn300 O301 1.949 . S
Zn300 O307 1.919 . S
Zn300 O312 1.924 . S
O301 Zn300 1.949 . S
O301 Zn302 1.923 . S
O301 Zn303 1.950 . S
O301 Zn304 1.945 . S
Zn302 O301 1.923 . S
Zn302 O305 1.933 . S
Zn302 O308 1.941 . S
Zn302 O309 1.965 1_565 S
Zn303 O301 1.950 . S
Zn303 O310 1.938 1_565 S
Zn303 O311 1.906 . S
Zn303 O321 1.953 . S
Zn304 O301 1.945 . S
Zn304 O306 1.932 . S
Zn304 O313 1.977 . S
Zn304 O314 1.910 . S
O305 Zn302 1.933 . S
O305 C316 1.226 . S
O306 Zn304 1.932 . S
O306 C316 1.307 . S
O307 Zn300 1.919 . S
O307 C318 1.253 . S
O308 Zn302 1.941 . S
O308 C318 1.283 . S
O309 Zn302 1.965 1_545 S
O309 C317 1.303 . S
O310 Zn303 1.938 1_545 S
O310 C317 1.247 . S
O311 Zn303 1.906 . S
O311 C319 1.304 . S
O312 Zn300 1.924 . S
O312 C320 1.311 . S
O313 Zn304 1.977 . S
O313 C319 1.272 . S
O314 Zn304 1.910 . S
O314 C320 1.231 . S
C315 O299 1.225 . S
C315 O321 1.298 . S
C316 O305 1.226 . S
C316 O306 1.307 . S
C317 O309 1.303 . S
C317 O310 1.247 . S
C318 O307 1.253 . S
C318 O308 1.283 . S
C319 O311 1.304 . S
C319 O313 1.272 . S
C320 O312 1.311 . S
C320 O314 1.231 . S
O321 Zn303 1.953 . S
O321 C315 1.298 . S
O322 Zn323 1.953 . S
O322 C338 1.225 . S
Zn323 O322 1.953 . S
Zn323 O324 1.949 . S
Zn323 O330 1.919 . S
Zn323 O335 1.924 . S
O324 Zn323 1.949 . S
O324 Zn325 1.923 . S
O324 Zn326 1.950 . S
O324 Zn327 1.945 . S
Zn325 O324 1.923 . S
Zn325 O328 1.933 . S
Zn325 O331 1.941 . S
Zn325 O332 1.965 . S
Zn326 O324 1.950 . S
Zn326 O333 1.938 . S
Zn326 O334 1.906 . S
Zn326 O344 1.953 . S
Zn327 O324 1.945 . S
Zn327 O329 1.932 . S
Zn327 O336 1.977 . S
Zn327 O337 1.910 . S
O328 Zn325 1.933 . S
O328 C339 1.226 . S
O329 Zn327 1.932 . S
O329 C339 1.307 . S
O330 Zn323 1.919 . S
O330 C341 1.253 . S
O331 Zn325 1.941 . S
O331 C341 1.283 . S
O332 Zn325 1.965 . S
O332 C340 1.303 . S
O333 Zn326 1.938 . S
O333 C340 1.247 . S
O334 Zn326 1.906 . S
O334 C342 1.304 . S
O335 Zn323 1.924 . S
O335 C343 1.311 . S
O336 Zn327 1.977 . S
O336 C342 1.272 . S
O337 Zn327 1.910 . S
O337 C343 1.231 . S
C338 O322 1.225 . S
C338 O344 1.298 . S
C339 O328 1.226 . S
C339 O329 1.307 . S
C340 O332 1.303 . S
C340 O333 1.247 . S
C341 O330 1.253 . S
C341 O331 1.283 . S
C342 O334 1.304 . S
C342 O336 1.272 . S
C343 O335 1.311 . S
C343 O337 1.231 . S
O344 Zn326 1.953 . S
O344 C338 1.298 . S
O345 Zn346 1.953 . S
O345 C361 1.225 . S
Zn346 O345 1.953 . S
Zn346 O347 1.949 . S
Zn346 O353 1.919 . S
Zn346 O358 1.924 . S
O347 Zn346 1.949 . S
O347 Zn348 1.923 . S
O347 Zn349 1.950 . S
O347 Zn350 1.945 . S
Zn348 O347 1.923 . S
Zn348 O351 1.933 . S
Zn348 O354 1.941 . S
Zn348 O355 1.965 . S
Zn349 O347 1.950 . S
Zn349 O356 1.938 . S
Zn349 O357 1.906 . S
Zn349 O367 1.953 . S
Zn350 O347 1.945 . S
Zn350 O352 1.932 . S
Zn350 O359 1.977 . S
Zn350 O360 1.910 . S
O351 Zn348 1.933 . S
O351 C362 1.226 . S
O352 Zn350 1.932 . S
O352 C362 1.307 . S
O353 Zn346 1.919 . S
O353 C364 1.253 . S
O354 Zn348 1.941 . S
O354 C364 1.283 . S
O355 Zn348 1.965 . S
O355 C363 1.303 . S
O356 Zn349 1.938 . S
O356 C363 1.247 . S
O357 Zn349 1.906 . S
O357 C365 1.304 . S
O358 Zn346 1.924 . S
O358 C366 1.311 . S
O359 Zn350 1.977 . S
O359 C365 1.272 . S
O360 Zn350 1.910 . S
O360 C366 1.231 . S
C361 O345 1.225 . S
C361 O367 1.298 . S
C362 O351 1.226 . S
C362 O352 1.307 . S
C363 O355 1.303 . S
C363 O356 1.247 . S
C364 O353 1.253 . S
C364 O354 1.283 . S
C365 O357 1.304 . S
C365 O359 1.272 . S
C366 O358 1.311 . S
C366 O360 1.231 . S
O367 Zn349 1.953 . S
O367 C361 1.298 . S
C368 C369 1.349 . S
C368 C370 1.327 . S
C368 H393 0.950 . S
C369 C368 1.349 . S
C369 C385 1.349 . S
C370 C368 1.327 . S
C370 C389 1.429 . S
C370 H394 0.950 . S
C371 C388 1.574 . S
C371 C390 1.368 . S
C371 H395 0.949 . S
H372 C376 0.949 . S
C373 C374 1.349 . S
C373 C375 1.327 . S
C373 H396 0.950 . S
C374 C373 1.349 . S
C374 C386 1.349 . S
C375 C373 1.327 . S
C375 C391 1.429 . S
C375 H397 0.950 . S
C376 H372 0.949 . S
C376 C384 1.574 . S
C376 C392 1.368 . S
H377 C385 0.950 . S
H378 C383 0.950 . S
H379 C384 0.949 . S
H380 C386 0.950 . S
H381 C387 0.950 . S
H382 C388 0.949 . S
C383 H378 0.950 . S
C383 C385 1.327 . S
C383 C389 1.429 . S
C384 C376 1.574 . S
C384 H379 0.949 . S
C384 C390 1.368 . S
C385 C369 1.349 . S
C385 H377 0.950 . S
C385 C383 1.327 . S
C386 C374 1.349 . S
C386 H380 0.950 . S
C386 C387 1.327 . S
C387 H381 0.950 . S
C387 C386 1.327 . S
C387 C391 1.429 . S
C388 C371 1.574 . S
C388 H382 0.949 . S
C388 C392 1.368 . S
C389 C370 1.429 . S
C389 C383 1.429 . S
C389 C390 1.523 . S
C390 C371 1.368 . S
C390 C384 1.368 . S
C390 C389 1.523 . S
C391 C375 1.429 . S
C391 C387 1.429 . S
C391 C392 1.523 . S
C392 C376 1.368 . S
C392 C388 1.368 . S
C392 C391 1.523 . S
H393 C368 0.950 . S
H394 C370 0.950 . S
H395 C371 0.949 . S
H396 C373 0.950 . S
H397 C375 0.950 . S
C398 C399 1.349 . S
C398 C400 1.327 . S
C398 H423 0.950 . S
C399 C398 1.349 . S
C399 C415 1.349 1_455 S
C400 C398 1.327 . S
C400 C419 1.429 1_455 S
C400 H424 0.950 . S
C401 C418 1.574 . S
C401 C420 1.368 . S
C401 H425 0.949 . S
H402 C406 0.949 . S
C403 C404 1.349 . S
C403 C405 1.327 . S
C403 H426 0.950 . S
C404 C403 1.349 . S
C404 C416 1.349 . S
C405 C403 1.327 . S
C405 C421 1.429 . S
C405 H427 0.950 . S
C406 H402 0.949 . S
C406 C414 1.574 . S
C406 C422 1.368 . S
H407 C415 0.950 . S
H408 C413 0.950 . S
H409 C414 0.949 . S
H410 C416 0.950 . S
H411 C417 0.950 . S
H412 C418 0.949 . S
C413 H408 0.950 . S
C413 C415 1.327 . S
C413 C419 1.429 . S
C414 C406 1.574 . S
C414 H409 0.949 . S
C414 C420 1.368 . S
C415 C399 1.349 1_655 S
C415 H407 0.950 . S
C415 C413 1.327 . S
C416 C404 1.349 . S
C416 H410 0.950 . S
C416 C417 1.327 . S
C417 H411 0.950 . S
C417 C416 1.327 . S
C417 C421 1.429 . S
C418 C401 1.574 . S
C418 H412 0.949 . S
C418 C422 1.368 . S
C419 C400 1.429 1_655 S
C419 C413 1.429 . S
C419 C420 1.523 . S
C420 C401 1.368 . S
C420 C414 1.368 . S
C420 C419 1.523 . S
C421 C405 1.429 . S
C421 C417 1.429 . S
C421 C422 1.523 . S
C422 C406 1.368 . S
C422 C418 1.368 . S
C422 C421 1.523 . S
H423 C398 0.950 . S
H424 C400 0.950 . S
H425 C401 0.949 . S
H426 C403 0.950 . S
H427 C405 0.950 . S
C428 C429 1.349 . S
C428 C430 1.327 . S
C428 H453 0.950 . S
C429 C428 1.349 . S
C429 C445 1.349 . S
C430 C428 1.327 . S
C430 C449 1.429 . S
C430 H454 0.950 . S
C431 C448 1.574 . S
C431 C450 1.368 . S
C431 H455 0.949 . S
H432 C436 0.949 . S
C433 C434 1.349 . S
C433 C435 1.327 . S
C433 H456 0.950 . S
C434 C433 1.349 . S
C434 C446 1.349 1_545 S
C435 C433 1.327 . S
C435 C451 1.429 1_545 S
C435 H457 0.950 . S
C436 H432 0.949 . S
C436 C444 1.574 . S
C436 C452 1.368 . S
H437 C445 0.950 . S
H438 C443 0.950 . S
H439 C444 0.949 . S
H440 C446 0.950 . S
H441 C447 0.950 . S
H442 C448 0.949 . S
C443 H438 0.950 . S
C443 C445 1.327 . S
C443 C449 1.429 . S
C444 C436 1.574 . S
C444 H439 0.949 . S
C444 C450 1.368 . S
C445 C429 1.349 . S
C445 H437 0.950 . S
C445 C443 1.327 . S
C446 C434 1.349 1_565 S
C446 H440 0.950 . S
C446 C447 1.327 . S
C447 H441 0.950 . S
C447 C446 1.327 . S
C447 C451 1.429 . S
C448 C431 1.574 . S
C448 H442 0.949 . S
C448 C452 1.368 . S
C449 C430 1.429 . S
C449 C443 1.429 . S
C449 C450 1.523 . S
C450 C431 1.368 . S
C450 C444 1.368 . S
C450 C449 1.523 . S
C451 C435 1.429 1_565 S
C451 C447 1.429 . S
C451 C452 1.523 . S
C452 C436 1.368 . S
C452 C448 1.368 . S
C452 C451 1.523 . S
H453 C428 0.950 . S
H454 C430 0.950 . S
H455 C431 0.949 . S
H456 C433 0.950 . S
H457 C435 0.950 . S
C458 C459 1.349 . S
C458 C460 1.327 . S
C458 H483 0.950 . S
C459 C458 1.349 . S
C459 C475 1.349 . S
C460 C458 1.327 . S
C460 C479 1.429 . S
C460 H484 0.950 . S
C461 C478 1.574 . S
C461 C480 1.368 . S
C461 H485 0.949 . S
H462 C466 0.949 . S
C463 C464 1.349 . S
C463 C465 1.327 . S
C463 H486 0.950 . S
C464 C463 1.349 . S
C464 C476 1.349 . S
C465 C463 1.327 . S
C465 C481 1.429 . S
C465 H487 0.950 . S
C466 H462 0.949 . S
C466 C474 1.574 . S
C466 C482 1.368 . S
H467 C475 0.950 . S
H468 C473 0.950 . S
H469 C474 0.949 . S
H470 C476 0.950 . S
H471 C477 0.950 . S
H472 C478 0.949 . S
C473 H468 0.950 . S
C473 C475 1.327 . S
C473 C479 1.429 . S
C474 C466 1.574 . S
C474 H469 0.949 . S
C474 C480 1.368 . S
C475 C459 1.349 . S
C475 H467 0.950 . S
C475 C473 1.327 . S
C476 C464 1.349 . S
C476 H470 0.950 . S
C476 C477 1.327 . S
C477 H471 0.950 . S
C477 C476 1.327 . S
C477 C481 1.429 . S
C478 C461 1.574 . S
C478 H472 0.949 . S
C478 C482 1.368 . S
C479 C460 1.429 . S
C479 C473 1.429 . S
C479 C480 1.523 . S
C480 C461 1.368 . S
C480 C474 1.368 . S
C480 C479 1.523 . S
C481 C465 1.429 . S
C481 C477 1.429 . S
C481 C482 1.523 . S
C482 C466 1.368 . S
C482 C478 1.368 . S
C482 C481 1.523 . S
H483 C458 0.950 . S
H484 C460 0.950 . S
H485 C461 0.949 . S
H486 C463 0.950 . S
H487 C465 0.950 . S
C488 C489 1.349 . S
C488 C490 1.327 . S
C488 H513 0.950 . S
C489 C488 1.349 . S
C489 C505 1.349 . S
C490 C488 1.327 . S
C490 C509 1.429 . S
C490 H514 0.950 . S
C491 C508 1.574 . S
C491 C510 1.368 . S
C491 H515 0.949 . S
H492 C496 0.949 . S
C493 C494 1.349 . S
C493 C495 1.327 1_545 S
C493 H516 0.950 . S
C494 C493 1.349 . S
C494 C506 1.349 . S
C495 C493 1.327 1_565 S
C495 C511 1.429 . S
C495 H517 0.950 . S
C496 H492 0.949 . S
C496 C504 1.574 . S
C496 C512 1.368 . S
H497 C505 0.950 . S
H498 C503 0.950 . S
H499 C504 0.949 . S
H500 C506 0.950 . S
H501 C507 0.950 . S
H502 C508 0.949 . S
C503 H498 0.950 . S
C503 C505 1.327 . S
C503 C509 1.429 . S
C504 C496 1.574 . S
C504 H499 0.949 . S
C504 C510 1.368 . S
C505 C489 1.349 . S
C505 H497 0.950 . S
C505 C503 1.327 . S
C506 C494 1.349 . S
C506 H500 0.950 . S
C506 C507 1.327 1_545 S
C507 H501 0.950 . S
C507 C506 1.327 1_565 S
C507 C511 1.429 . S
C508 C491 1.574 . S
C508 H502 0.949 . S
C508 C512 1.368 . S
C509 C490 1.429 . S
C509 C503 1.429 . S
C509 C510 1.523 . S
C510 C491 1.368 . S
C510 C504 1.368 . S
C510 C509 1.523 . S
C511 C495 1.429 . S
C511 C507 1.429 . S
C511 C512 1.523 . S
C512 C496 1.368 . S
C512 C508 1.368 . S
C512 C511 1.523 . S
H513 C488 0.950 . S
H514 C490 0.950 . S
H515 C491 0.949 . S
H516 C493 0.950 . S
H517 C495 0.950 . S
C518 C519 1.349 . S
C518 C520 1.327 . S
C518 H543 0.950 . S
C519 C518 1.349 . S
C519 C535 1.349 . S
C520 C518 1.327 . S
C520 C539 1.429 . S
C520 H544 0.950 . S
C521 C538 1.574 . S
C521 C540 1.368 . S
C521 H545 0.949 . S
H522 C526 0.949 . S
C523 C524 1.349 . S
C523 C525 1.327 . S
C523 H546 0.950 . S
C524 C523 1.349 . S
C524 C536 1.349 . S
C525 C523 1.327 . S
C525 C541 1.429 . S
C525 H547 0.950 . S
C526 H522 0.949 . S
C526 C534 1.574 . S
C526 C542 1.368 . S
H527 C535 0.950 . S
H528 C533 0.950 . S
H529 C534 0.949 . S
H530 C536 0.950 . S
H531 C537 0.950 . S
H532 C538 0.949 . S
C533 H528 0.950 . S
C533 C535 1.327 . S
C533 C539 1.429 . S
C534 C526 1.574 . S
C534 H529 0.949 . S
C534 C540 1.368 . S
C535 C519 1.349 . S
C535 H527 0.950 . S
C535 C533 1.327 . S
C536 C524 1.349 . S
C536 H530 0.950 . S
C536 C537 1.327 . S
C537 H531 0.950 . S
C537 C536 1.327 . S
C537 C541 1.429 . S
C538 C521 1.574 . S
C538 H532 0.949 . S
C538 C542 1.368 . S
C539 C520 1.429 . S
C539 C533 1.429 . S
C539 C540 1.523 . S
C540 C521 1.368 . S
C540 C534 1.368 . S
C540 C539 1.523 . S
C541 C525 1.429 . S
C541 C537 1.429 . S
C541 C542 1.523 . S
C542 C526 1.368 . S
C542 C538 1.368 . S
C542 C541 1.523 . S
H543 C518 0.950 . S
H544 C520 0.950 . S
H545 C521 0.949 . S
H546 C523 0.950 . S
H547 C525 0.950 . S
C548 C549 1.349 . S
C548 C550 1.327 . S
C548 H573 0.950 . S
C549 C548 1.349 . S
C549 C565 1.349 . S
C550 C548 1.327 . S
C550 C569 1.429 . S
C550 H574 0.950 . S
C551 C568 1.574 . S
C551 C570 1.368 . S
C551 H575 0.949 . S
H552 C556 0.949 . S
C553 C554 1.349 . S
C553 C555 1.327 . S
C553 H576 0.950 . S
C554 C553 1.349 . S
C554 C566 1.349 . S
C555 C553 1.327 . S
C555 C571 1.429 . S
C555 H577 0.950 . S
C556 H552 0.949 . S
C556 C564 1.574 . S
C556 C572 1.368 . S
H557 C565 0.950 . S
H558 C563 0.950 . S
H559 C564 0.949 . S
H560 C566 0.950 . S
H561 C567 0.950 . S
H562 C568 0.949 . S
C563 H558 0.950 . S
C563 C565 1.327 . S
C563 C569 1.429 . S
C564 C556 1.574 . S
C564 H559 0.949 . S
C564 C570 1.368 . S
C565 C549 1.349 . S
C565 H557 0.950 . S
C565 C563 1.327 . S
C566 C554 1.349 . S
C566 H560 0.950 . S
C566 C567 1.327 . S
C567 H561 0.950 . S
C567 C566 1.327 . S
C567 C571 1.429 . S
C568 C551 1.574 . S
C568 H562 0.949 . S
C568 C572 1.368 . S
C569 C550 1.429 . S
C569 C563 1.429 . S
C569 C570 1.523 . S
C570 C551 1.368 . S
C570 C564 1.368 . S
C570 C569 1.523 . S
C571 C555 1.429 . S
C571 C567 1.429 . S
C571 C572 1.523 . S
C572 C556 1.368 . S
C572 C568 1.368 . S
C572 C571 1.523 . S
H573 C548 0.950 . S
H574 C550 0.950 . S
H575 C551 0.949 . S
H576 C553 0.950 . S
H577 C555 0.950 . S
C578 C579 1.349 . S
C578 C580 1.327 . S
C578 H603 0.950 . S
C579 C578 1.349 . S
C579 C595 1.349 1_455 S
C580 C578 1.327 . S
C580 C599 1.429 1_455 S
C580 H604 0.950 . S
C581 C598 1.574 . S
C581 C600 1.368 . S
C581 H605 0.949 . S
H582 C586 0.949 . S
C583 C584 1.349 . S
C583 C585 1.327 . S
C583 H606 0.950 . S
C584 C583 1.349 . S
C584 C596 1.349 . S
C585 C583 1.327 . S
C585 C601 1.429 . S
C585 H607 0.950 . S
C586 H582 0.949 . S
C586 C594 1.574 . S
C586 C602 1.368 . S
H587 C595 0.950 . S
H588 C593 0.950 . S
H589 C594 0.949 . S
H590 C596 0.950 . S
H591 C597 0.950 . S
H592 C598 0.949 . S
C593 H588 0.950 . S
C593 C595 1.327 . S
C593 C599 1.429 . S
C594 C586 1.574 . S
C594 H589 0.949 . S
C594 C600 1.368 . S
C595 C579 1.349 1_655 S
C595 H587 0.950 . S
C595 C593 1.327 . S
C596 C584 1.349 . S
C596 H590 0.950 . S
C596 C597 1.327 . S
C597 H591 0.950 . S
C597 C596 1.327 . S
C597 C601 1.429 . S
C598 C581 1.574 . S
C598 H592 0.949 . S
C598 C602 1.368 . S
C599 C580 1.429 1_655 S
C599 C593 1.429 . S
C599 C600 1.523 . S
C600 C581 1.368 . S
C600 C594 1.368 . S
C600 C599 1.523 . S
C601 C585 1.429 . S
C601 C597 1.429 . S
C601 C602 1.523 . S
C602 C586 1.368 . S
C602 C598 1.368 . S
C602 C601 1.523 . S
H603 C578 0.950 . S
H604 C580 0.950 . S
H605 C581 0.949 . S
H606 C583 0.950 . S
H607 C585 0.950 . S
C608 C609 1.349 . S
C608 C610 1.327 . S
C608 H633 0.950 . S
C609 C608 1.349 . S
C609 C625 1.349 . S
C610 C608 1.327 . S
C610 C629 1.429 . S
C610 H634 0.950 . S
C611 C628 1.574 . S
C611 C630 1.368 . S
C611 H635 0.949 . S
H612 C616 0.949 . S
C613 C614 1.349 . S
C613 C615 1.327 . S
C613 H636 0.950 . S
C614 C613 1.349 . S
C614 C626 1.349 . S
C615 C613 1.327 . S
C615 C631 1.429 . S
C615 H637 0.950 . S
C616 H612 0.949 . S
C616 C624 1.574 . S
C616 C632 1.368 . S
H617 C625 0.950 . S
H618 C623 0.950 . S
H619 C624 0.949 . S
H620 C626 0.950 . S
H621 C627 0.950 . S
H622 C628 0.949 . S
C623 H618 0.950 . S
C623 C625 1.327 . S
C623 C629 1.429 . S
C624 C616 1.574 . S
C624 H619 0.949 . S
C624 C630 1.368 . S
C625 C609 1.349 . S
C625 H617 0.950 . S
C625 C623 1.327 . S
C626 C614 1.349 . S
C626 H620 0.950 . S
C626 C627 1.327 . S
C627 H621 0.950 . S
C627 C626 1.327 . S
C627 C631 1.429 . S
C628 C611 1.574 . S
C628 H622 0.949 . S
C628 C632 1.368 . S
C629 C610 1.429 . S
C629 C623 1.429 . S
C629 C630 1.523 . S
C630 C611 1.368 . S
C630 C624 1.368 . S
C630 C629 1.523 . S
C631 C615 1.429 . S
C631 C627 1.429 . S
C631 C632 1.523 . S
C632 C616 1.368 . S
C632 C628 1.368 . S
C632 C631 1.523 . S
H633 C608 0.950 . S
H634 C610 0.950 . S
H635 C611 0.949 . S
H636 C613 0.950 . S
H637 C615 0.950 . S
C638 C639 1.349 . S
C638 C640 1.327 . S
C638 H663 0.950 . S
C639 C638 1.349 . S
C639 C655 1.349 1_655 S
C640 C638 1.327 . S
C640 C659 1.429 1_655 S
C640 H664 0.950 . S
C641 C658 1.574 . S
C641 C660 1.368 . S
C641 H665 0.949 . S
H642 C646 0.949 . S
C643 C644 1.349 . S
C643 C645 1.327 . S
C643 H666 0.950 . S
C644 C643 1.349 . S
C644 C656 1.349 . S
C645 C643 1.327 . S
C645 C661 1.429 . S
C645 H667 0.950 . S
C646 H642 0.949 . S
C646 C654 1.574 . S
C646 C662 1.368 . S
H647 C655 0.950 . S
H648 C653 0.950 . S
H649 C654 0.949 . S
H650 C656 0.950 . S
H651 C657 0.950 . S
H652 C658 0.949 . S
C653 H648 0.950 . S
C653 C655 1.327 . S
C653 C659 1.429 . S
C654 C646 1.574 . S
C654 H649 0.949 . S
C654 C660 1.368 . S
C655 C639 1.349 1_455 S
C655 H647 0.950 . S
C655 C653 1.327 . S
C656 C644 1.349 . S
C656 H650 0.950 . S
C656 C657 1.327 . S
C657 H651 0.950 . S
C657 C656 1.327 . S
C657 C661 1.429 . S
C658 C641 1.574 . S
C658 H652 0.949 . S
C658 C662 1.368 . S
C659 C640 1.429 1_455 S
C659 C653 1.429 . S
C659 C660 1.523 . S
C660 C641 1.368 . S
C660 C654 1.368 . S
C660 C659 1.523 . S
C661 C645 1.429 . S
C661 C657 1.429 . S
C661 C662 1.523 . S
C662 C646 1.368 . S
C662 C658 1.368 . S
C662 C661 1.523 . S
H663 C638 0.950 . S
H664 C640 0.950 . S
H665 C641 0.949 . S
H666 C643 0.950 . S
H667 C645 0.950 . S
C668 C669 1.349 . S
C668 C670 1.313 1_565 S
C668 H693 0.950 . S
C669 C668 1.349 . S
C669 C685 1.349 . S
C670 C668 1.313 1_545 S
C670 C689 1.442 . S
C670 H694 0.952 . S
C671 C688 1.574 . S
C671 C690 1.368 . S
C671 H695 0.949 . S
H672 C676 0.949 . S
C673 C674 1.349 . S
C673 C675 1.327 . S
C673 H696 0.950 . S
C674 C673 1.349 . S
C674 C686 1.349 . S
C675 C673 1.327 . S
C675 C691 1.429 . S
C675 H697 0.950 . S
C676 H672 0.949 . S
C676 C684 1.574 . S
C676 C692 1.368 . S
H677 C685 0.950 . S
H678 C683 0.950 . S
H679 C684 0.949 . S
H680 C686 0.950 . S
H681 C687 0.950 . S
H682 C688 0.949 . S
C683 H678 0.950 . S
C683 C685 1.327 1_545 S
C683 C689 1.429 . S
C684 C676 1.574 . S
C684 H679 0.949 . S
C684 C690 1.368 . S
C685 C669 1.349 . S
C685 H677 0.950 . S
C685 C683 1.327 1_565 S
C686 C674 1.349 . S
C686 H680 0.950 . S
C686 C687 1.327 . S
C687 H681 0.950 . S
C687 C686 1.327 . S
C687 C691 1.429 . S
C688 C671 1.574 . S
C688 H682 0.949 . S
C688 C692 1.368 . S
C689 C670 1.442 . S
C689 C683 1.429 . S
C689 C690 1.523 . S
C690 C671 1.368 . S
C690 C684 1.368 . S
C690 C689 1.523 . S
C691 C675 1.429 . S
C691 C687 1.429 . S
C691 C692 1.523 . S
C692 C676 1.368 . S
C692 C688 1.368 . S
C692 C691 1.523 . S
H693 C668 0.950 . S
H694 C670 0.952 . S
H695 C671 0.949 . S
H696 C673 0.950 . S
H697 C675 0.950 . S
C698 C699 1.349 . S
C698 C700 1.327 . S
C698 H723 0.950 . S
C699 C698 1.349 . S
C699 C715 1.349 . S
C700 C698 1.327 . S
C700 C719 1.429 . S
C700 H724 0.950 . S
C701 C718 1.574 . S
C701 C720 1.368 . S
C701 H725 0.949 . S
H702 C706 0.949 . S
C703 C704 1.349 . S
C703 C705 1.327 . S
C703 H726 0.950 . S
C704 C703 1.349 . S
C704 C716 1.349 . S
C705 C703 1.327 . S
C705 C721 1.429 . S
C705 H727 0.950 . S
C706 H702 0.949 . S
C706 C714 1.574 . S
C706 C722 1.368 . S
H707 C715 0.950 . S
H708 C713 0.950 . S
H709 C714 0.949 . S
H710 C716 0.950 . S
H711 C717 0.950 . S
H712 C718 0.949 . S
C713 H708 0.950 . S
C713 C715 1.327 . S
C713 C719 1.429 . S
C714 C706 1.574 . S
C714 H709 0.949 . S
C714 C720 1.368 . S
C715 C699 1.349 . S
C715 H707 0.950 . S
C715 C713 1.327 . S
C716 C704 1.349 . S
C716 H710 0.950 . S
C716 C717 1.327 . S
C717 H711 0.950 . S
C717 C716 1.327 . S
C717 C721 1.429 . S
C718 C701 1.574 . S
C718 H712 0.949 . S
C718 C722 1.368 . S
C719 C700 1.429 . S
C719 C713 1.429 . S
C719 C720 1.523 . S
C720 C701 1.368 . S
C720 C714 1.368 . S
C720 C719 1.523 . S
C721 C705 1.429 . S
C721 C717 1.429 . S
C721 C722 1.523 . S
C722 C706 1.368 . S
C722 C718 1.368 . S
C722 C721 1.523 . S
H723 C698 0.950 . S
H724 C700 0.950 . S
H725 C701 0.949 . S
H726 C703 0.950 . S
H727 C705 0.950 . S
C728 C729 1.349 . S
C728 C730 1.327 . S
C728 H753 0.950 . S
C729 C728 1.349 . S
C729 C745 1.349 . S
C730 C728 1.327 . S
C730 C749 1.429 . S
C730 H754 0.950 . S
C731 C748 1.574 . S
C731 C750 1.368 . S
C731 H755 0.949 . S
H732 C736 0.949 1_565 S
C733 C734 1.349 1_545 S
C733 C735 1.327 . S
C733 H756 0.950 . S
C734 C733 1.349 1_565 S
C734 C746 1.349 . S
C735 C733 1.327 . S
C735 C751 1.429 . S
C735 H757 0.950 . S
C736 H732 0.949 1_545 S
C736 C744 1.574 . S
C736 C752 1.368 . S
H737 C745 0.950 . S
H738 C743 0.950 . S
H739 C744 0.949 . S
H740 C746 0.950 . S
H741 C747 0.950 . S
H742 C748 0.949 . S
C743 H738 0.950 . S
C743 C745 1.327 . S
C743 C749 1.429 . S
C744 C736 1.574 . S
C744 H739 0.949 . S
C744 C750 1.368 . S
C745 C729 1.349 . S
C745 H737 0.950 . S
C745 C743 1.327 . S
C746 C734 1.349 . S
C746 H740 0.950 . S
C746 C747 1.327 . S
C747 H741 0.950 . S
C747 C746 1.327 . S
C747 C751 1.429 1_565 S
C748 C731 1.574 . S
C748 H742 0.949 . S
C748 C752 1.368 . S
C749 C730 1.429 . S
C749 C743 1.429 . S
C749 C750 1.523 . S
C750 C731 1.368 . S
C750 C744 1.368 . S
C750 C749 1.523 . S
C751 C735 1.429 . S
C751 C747 1.429 1_545 S
C751 C752 1.523 . S
C752 C736 1.368 . S
C752 C748 1.368 . S
C752 C751 1.523 . S
H753 C728 0.950 . S
H754 C730 0.950 . S
H755 C731 0.949 . S
H756 C733 0.950 . S
H757 C735 0.950 . S
C758 C759 1.349 . S
C758 C760 1.327 . S
C758 H783 0.950 . S
C759 C758 1.349 . S
C759 C775 1.349 . S
C760 C758 1.327 . S
C760 C779 1.429 . S
C760 H784 0.950 . S
C761 C778 1.574 . S
C761 C780 1.368 . S
C761 H785 0.949 . S
H762 C766 0.949 . S
C763 C764 1.349 . S
C763 C765 1.327 . S
C763 H786 0.950 . S
C764 C763 1.349 . S
C764 C776 1.349 . S
C765 C763 1.327 . S
C765 C781 1.429 . S
C765 H787 0.950 . S
C766 H762 0.949 . S
C766 C774 1.574 . S
C766 C782 1.368 . S
H767 C775 0.950 . S
H768 C773 0.950 . S
H769 C774 0.949 . S
H770 C776 0.950 . S
H771 C777 0.950 . S
H772 C778 0.949 . S
C773 H768 0.950 . S
C773 C775 1.327 . S
C773 C779 1.429 . S
C774 C766 1.574 . S
C774 H769 0.949 . S
C774 C780 1.368 . S
C775 C759 1.349 . S
C775 H767 0.950 . S
C775 C773 1.327 . S
C776 C764 1.349 . S
C776 H770 0.950 . S
C776 C777 1.327 . S
C777 H771 0.950 . S
C777 C776 1.327 . S
C777 C781 1.429 . S
C778 C761 1.574 . S
C778 H772 0.949 . S
C778 C782 1.368 . S
C779 C760 1.429 . S
C779 C773 1.429 . S
C779 C780 1.523 . S
C780 C761 1.368 . S
C780 C774 1.368 . S
C780 C779 1.523 . S
C781 C765 1.429 . S
C781 C777 1.429 . S
C781 C782 1.523 . S
C782 C766 1.368 . S
C782 C778 1.368 . S
C782 C781 1.523 . S
H783 C758 0.950 . S
H784 C760 0.950 . S
H785 C761 0.949 . S
H786 C763 0.950 . S
H787 C765 0.950 . S
C788 C789 1.349 . S
C788 C790 1.327 . S
C788 H813 0.950 . S
C789 C788 1.349 . S
C789 C805 1.349 . S
C790 C788 1.327 . S
C790 C809 1.429 . S
C790 H814 0.950 . S
C791 C808 1.574 . S
C791 C810 1.368 . S
C791 H815 0.949 . S
H792 C796 0.949 . S
C793 C794 1.349 . S
C793 C795 1.327 . S
C793 H816 0.950 . S
C794 C793 1.349 . S
C794 C806 1.349 . S
C795 C793 1.327 . S
C795 C811 1.429 . S
C795 H817 0.950 . S
C796 H792 0.949 . S
C796 C804 1.574 . S
C796 C812 1.368 . S
H797 C805 0.950 . S
H798 C803 0.950 . S
H799 C804 0.949 . S
H800 C806 0.950 . S
H801 C807 0.950 . S
H802 C808 0.949 . S
C803 H798 0.950 . S
C803 C805 1.327 . S
C803 C809 1.429 . S
C804 C796 1.574 . S
C804 H799 0.949 . S
C804 C810 1.368 . S
C805 C789 1.349 . S
C805 H797 0.950 . S
C805 C803 1.327 . S
C806 C794 1.349 . S
C806 H800 0.950 . S
C806 C807 1.327 . S
C807 H801 0.950 . S
C807 C806 1.327 . S
C807 C811 1.429 . S
C808 C791 1.574 . S
C808 H802 0.949 . S
C808 C812 1.368 . S
C809 C790 1.429 . S
C809 C803 1.429 . S
C809 C810 1.523 . S
C810 C791 1.368 . S
C810 C804 1.368 . S
C810 C809 1.523 . S
C811 C795 1.429 . S
C811 C807 1.429 . S
C811 C812 1.523 . S
C812 C796 1.368 . S
C812 C808 1.368 . S
C812 C811 1.523 . S
H813 C788 0.950 . S
H814 C790 0.950 . S
H815 C791 0.949 . S
H816 C793 0.950 . S
H817 C795 0.950 . S
C818 C819 1.349 . S
C818 C820 1.327 . S
C818 H843 0.950 . S
C819 C818 1.349 . S
C819 C835 1.349 . S
C820 C818 1.327 . S
C820 C839 1.429 . S
C820 H844 0.950 . S
C821 C838 1.574 . S
C821 C840 1.368 . S
C821 H845 0.949 . S
H822 C826 0.949 . S
C823 C824 1.349 . S
C823 C825 1.327 . S
C823 H846 0.950 . S
C824 C823 1.349 . S
C824 C836 1.349 1_655 S
C825 C823 1.327 . S
C825 C841 1.429 1_655 S
C825 H847 0.950 . S
C826 H822 0.949 . S
C826 C834 1.574 . S
C826 C842 1.368 . S
H827 C835 0.950 . S
H828 C833 0.950 . S
H829 C834 0.949 . S
H830 C836 0.950 . S
H831 C837 0.950 . S
H832 C838 0.949 . S
C833 H828 0.950 . S
C833 C835 1.327 . S
C833 C839 1.429 . S
C834 C826 1.574 . S
C834 H829 0.949 . S
C834 C840 1.368 . S
C835 C819 1.349 . S
C835 H827 0.950 . S
C835 C833 1.327 . S
C836 C824 1.349 1_455 S
C836 H830 0.950 . S
C836 C837 1.327 . S
C837 H831 0.950 . S
C837 C836 1.327 . S
C837 C841 1.429 . S
C838 C821 1.574 . S
C838 H832 0.949 . S
C838 C842 1.368 . S
C839 C820 1.429 . S
C839 C833 1.429 . S
C839 C840 1.523 . S
C840 C821 1.368 . S
C840 C834 1.368 . S
C840 C839 1.523 . S
C841 C825 1.429 1_455 S
C841 C837 1.429 . S
C841 C842 1.523 . S
C842 C826 1.368 . S
C842 C838 1.368 . S
C842 C841 1.523 . S
H843 C818 0.950 . S
H844 C820 0.950 . S
H845 C821 0.949 . S
H846 C823 0.950 . S
H847 C825 0.950 . S
C848 C849 1.349 . S
C848 C850 1.327 . S
C848 H873 0.950 . S
C849 C848 1.349 . S
C849 C865 1.349 . S
C850 C848 1.327 . S
C850 C869 1.429 . S
C850 H874 0.950 . S
C851 C868 1.574 . S
C851 C870 1.368 . S
C851 H875 0.949 . S
H852 C856 0.949 . S
C853 C854 1.349 . S
C853 C855 1.327 . S
C853 H876 0.950 . S
C854 C853 1.349 . S
C854 C866 1.349 . S
C855 C853 1.327 . S
C855 C871 1.429 . S
C855 H877 0.950 . S
C856 H852 0.949 . S
C856 C864 1.574 . S
C856 C872 1.368 . S
H857 C865 0.950 . S
H858 C863 0.950 . S
H859 C864 0.949 . S
H860 C866 0.950 . S
H861 C867 0.950 . S
H862 C868 0.949 . S
C863 H858 0.950 . S
C863 C865 1.327 . S
C863 C869 1.429 . S
C864 C856 1.574 . S
C864 H859 0.949 . S
C864 C870 1.368 . S
C865 C849 1.349 . S
C865 H857 0.950 . S
C865 C863 1.327 . S
C866 C854 1.349 . S
C866 H860 0.950 . S
C866 C867 1.327 . S
C867 H861 0.950 . S
C867 C866 1.327 . S
C867 C871 1.429 . S
C868 C851 1.574 . S
C868 H862 0.949 . S
C868 C872 1.368 . S
C869 C850 1.429 . S
C869 C863 1.429 . S
C869 C870 1.523 . S
C870 C851 1.368 . S
C870 C864 1.368 . S
C870 C869 1.523 . S
C871 C855 1.429 . S
C871 C867 1.429 . S
C871 C872 1.523 . S
C872 C856 1.368 . S
C872 C868 1.368 . S
C872 C871 1.523 . S
H873 C848 0.950 . S
H874 C850 0.950 . S
H875 C851 0.949 . S
H876 C853 0.950 . S
H877 C855 0.950 . S
C878 C879 1.349 . S
C878 C880 1.327 . S
C878 H903 0.950 . S
C879 C878 1.349 . S
C879 C895 1.349 . S
C880 C878 1.327 . S
C880 C899 1.429 . S
C880 H904 0.950 . S
C881 C898 1.574 . S
C881 C900 1.393 . S
C881 H905 0.928 1_545 S
H882 C886 0.949 . S
C883 C884 1.349 . S
C883 C885 1.327 . S
C883 H906 0.950 1_545 S
C884 C883 1.349 . S
C884 C896 1.349 . S
C885 C883 1.327 . S
C885 C901 1.429 . S
C885 H907 0.950 1_545 S
C886 H882 0.949 . S
C886 C894 1.574 . S
C886 C902 1.368 . S
H887 C895 0.950 1_565 S
H888 C893 0.950 1_565 S
H889 C894 0.949 . S
H890 C896 0.950 . S
H891 C897 0.950 . S
H892 C898 0.928 1_565 S
C893 H888 0.950 1_545 S
C893 C895 1.327 . S
C893 C899 1.429 . S
C894 C886 1.574 . S
C894 H889 0.949 . S
C894 C900 1.368 . S
C895 C879 1.349 . S
C895 H887 0.950 1_545 S
C895 C893 1.327 . S
C896 C884 1.349 . S
C896 H890 0.950 . S
C896 C897 1.327 . S
C897 H891 0.950 . S
C897 C896 1.327 . S
C897 C901 1.429 . S
C898 C881 1.574 . S
C898 H892 0.928 1_545 S
C898 C902 1.393 . S
C899 C880 1.429 . S
C899 C893 1.429 . S
C899 C900 1.523 . S
C900 C881 1.393 . S
C900 C894 1.368 . S
C900 C899 1.523 . S
C901 C885 1.429 . S
C901 C897 1.429 . S
C901 C902 1.523 . S
C902 C886 1.368 . S
C902 C898 1.393 . S
C902 C901 1.523 . S
H903 C878 0.950 . S
H904 C880 0.950 . S
H905 C881 0.928 1_565 S
H906 C883 0.950 1_565 S
H907 C885 0.950 1_565 S
C908 C909 1.349 . S
C908 C910 1.327 . S
C908 H933 0.950 . S
C909 C908 1.349 . S
C909 C925 1.349 . S
C910 C908 1.327 . S
C910 C929 1.429 . S
C910 H934 0.950 . S
C911 C928 1.574 . S
C911 C930 1.368 . S
C911 H935 0.949 . S
H912 C916 0.949 . S
C913 C914 1.349 . S
C913 C915 1.327 . S
C913 H936 0.950 . S
C914 C913 1.349 . S
C914 C926 1.349 . S
C915 C913 1.327 . S
C915 C931 1.429 . S
C915 H937 0.950 . S
C916 H912 0.949 . S
C916 C924 1.574 . S
C916 C932 1.368 . S
H917 C925 0.950 . S
H918 C923 0.950 . S
H919 C924 0.949 . S
H920 C926 0.950 . S
H921 C927 0.950 . S
H922 C928 0.949 . S
C923 H918 0.950 . S
C923 C925 1.327 . S
C923 C929 1.429 . S
C924 C916 1.574 . S
C924 H919 0.949 . S
C924 C930 1.368 . S
C925 C909 1.349 . S
C925 H917 0.950 . S
C925 C923 1.327 . S
C926 C914 1.349 . S
C926 H920 0.950 . S
C926 C927 1.327 . S
C927 H921 0.950 . S
C927 C926 1.327 . S
C927 C931 1.429 . S
C928 C911 1.574 . S
C928 H922 0.949 . S
C928 C932 1.368 . S
C929 C910 1.429 . S
C929 C923 1.429 . S
C929 C930 1.523 . S
C930 C911 1.368 . S
C930 C924 1.368 . S
C930 C929 1.523 . S
C931 C915 1.429 . S
C931 C927 1.429 . S
C931 C932 1.523 . S
C932 C916 1.368 . S
C932 C928 1.368 . S
C932 C931 1.523 . S
H933 C908 0.950 . S
H934 C910 0.950 . S
H935 C911 0.949 . S
H936 C913 0.950 . S
H937 C915 0.950 . S
C938 C939 1.349 . S
C938 C940 1.327 . S
C938 H963 0.950 . S
C939 C938 1.349 . S
C939 C955 1.349 . S
C940 C938 1.327 . S
C940 C959 1.429 . S
C940 H964 0.950 . S
C941 C958 1.574 . S
C941 C960 1.368 . S
C941 H965 0.949 . S
H942 C946 0.949 . S
C943 C944 1.349 . S
C943 C945 1.327 . S
C943 H966 0.950 . S
C944 C943 1.349 . S
C944 C956 1.349 . S
C945 C943 1.327 . S
C945 C961 1.429 . S
C945 H967 0.950 . S
C946 H942 0.949 . S
C946 C954 1.574 . S
C946 C962 1.368 . S
H947 C955 0.950 . S
H948 C953 0.950 . S
H949 C954 0.949 . S
H950 C956 0.950 . S
H951 C957 0.950 . S
H952 C958 0.949 . S
C953 H948 0.950 . S
C953 C955 1.327 . S
C953 C959 1.429 . S
C954 C946 1.574 . S
C954 H949 0.949 . S
C954 C960 1.368 . S
C955 C939 1.349 . S
C955 H947 0.950 . S
C955 C953 1.327 . S
C956 C944 1.349 . S
C956 H950 0.950 . S
C956 C957 1.327 . S
C957 H951 0.950 . S
C957 C956 1.327 . S
C957 C961 1.429 . S
C958 C941 1.574 . S
C958 H952 0.949 . S
C958 C962 1.368 . S
C959 C940 1.429 . S
C959 C953 1.429 . S
C959 C960 1.523 . S
C960 C941 1.368 . S
C960 C954 1.368 . S
C960 C959 1.523 . S
C961 C945 1.429 . S
C961 C957 1.429 . S
C961 C962 1.523 . S
C962 C946 1.368 . S
C962 C958 1.368 . S
C962 C961 1.523 . S
H963 C938 0.950 . S
H964 C940 0.950 . S
H965 C941 0.949 . S
H966 C943 0.950 . S
H967 C945 0.950 . S
C968 C969 1.349 . S
C968 C970 1.327 . S
C968 H993 0.950 . S
C969 C968 1.349 . S
C969 C985 1.349 . S
C970 C968 1.327 . S
C970 C989 1.429 . S
C970 H994 0.950 . S
C971 C988 1.574 . S
C971 C990 1.380 . S
C971 H995 0.939 1_655 S
H972 C976 0.949 . S
C973 C974 1.349 . S
C973 C975 1.327 . S
C973 H996 0.950 1_655 S
C974 C973 1.349 . S
C974 C986 1.349 . S
C975 C973 1.327 . S
C975 C991 1.429 . S
C975 H997 0.950 1_655 S
C976 H972 0.949 . S
C976 C984 1.574 . S
C976 C992 1.368 . S
H977 C985 0.950 1_455 S
H978 C983 0.950 1_455 S
H979 C984 0.949 . S
H980 C986 0.950 . S
H981 C987 0.950 . S
H982 C988 0.939 1_455 S
C983 H978 0.950 1_655 S
C983 C985 1.327 . S
C983 C989 1.429 . S
C984 C976 1.574 . S
C984 H979 0.949 . S
C984 C990 1.368 . S
C985 C969 1.349 . S
C985 H977 0.950 1_655 S
C985 C983 1.327 . S
C986 C974 1.349 . S
C986 H980 0.950 . S
C986 C987 1.327 . S
C987 H981 0.950 . S
C987 C986 1.327 . S
C987 C991 1.429 . S
C988 C971 1.574 . S
C988 H982 0.939 1_655 S
C988 C992 1.380 . S
C989 C970 1.429 . S
C989 C983 1.429 . S
C989 C990 1.523 . S
C990 C971 1.380 . S
C990 C984 1.368 . S
C990 C989 1.523 . S
C991 C975 1.429 . S
C991 C987 1.429 . S
C991 C992 1.523 . S
C992 C976 1.368 . S
C992 C988 1.380 . S
C992 C991 1.523 . S
H993 C968 0.950 . S
H994 C970 0.950 . S
H995 C971 0.939 1_455 S
H996 C973 0.950 1_455 S
H997 C975 0.950 1_455 S
C998 C999 1.349 . S
C998 C1000 1.327 . S
C998 H1023 0.950 . S
C999 C998 1.349 . S
C999 C1015 1.349 . S
C1000 C998 1.327 . S
C1000 C1019 1.429 . S
C1000 H1024 0.950 . S
C1001 C1018 1.574 . S
C1001 C1020 1.393 . S
C1001 H1025 0.928 1_565 S
H1002 C1006 0.949 . S
C1003 C1004 1.349 . S
C1003 C1005 1.327 . S
C1003 H1026 0.950 1_565 S
C1004 C1003 1.349 . S
C1004 C1016 1.349 . S
C1005 C1003 1.327 . S
C1005 C1021 1.429 . S
C1005 H1027 0.950 1_565 S
C1006 H1002 0.949 . S
C1006 C1014 1.574 . S
C1006 C1022 1.368 . S
H1007 C1015 0.950 1_545 S
H1008 C1013 0.950 1_545 S
H1009 C1014 0.949 . S
H1010 C1016 0.950 . S
H1011 C1017 0.950 . S
H1012 C1018 0.928 1_545 S
C1013 H1008 0.950 1_565 S
C1013 C1015 1.327 . S
C1013 C1019 1.429 . S
C1014 C1006 1.574 . S
C1014 H1009 0.949 . S
C1014 C1020 1.368 . S
C1015 C999 1.349 . S
C1015 H1007 0.950 1_565 S
C1015 C1013 1.327 . S
C1016 C1004 1.349 . S
C1016 H1010 0.950 . S
C1016 C1017 1.327 . S
C1017 H1011 0.950 . S
C1017 C1016 1.327 . S
C1017 C1021 1.429 . S
C1018 C1001 1.574 . S
C1018 H1012 0.928 1_565 S
C1018 C1022 1.393 . S
C1019 C1000 1.429 . S
C1019 C1013 1.429 . S
C1019 C1020 1.523 . S
C1020 C1001 1.393 . S
C1020 C1014 1.368 . S
C1020 C1019 1.523 . S
C1021 C1005 1.429 . S
C1021 C1017 1.429 . S
C1021 C1022 1.523 . S
C1022 C1006 1.368 . S
C1022 C1018 1.393 . S
C1022 C1021 1.523 . S
H1023 C998 0.950 . S
H1024 C1000 0.950 . S
H1025 C1001 0.928 1_545 S
H1026 C1003 0.950 1_545 S
H1027 C1005 0.950 1_545 S
C1028 C1029 1.349 . S
C1028 C1030 1.327 . S
C1028 H1053 0.950 . S
C1029 C1028 1.349 . S
C1029 C1045 1.349 . S
C1030 C1028 1.327 . S
C1030 C1049 1.429 . S
C1030 H1054 0.950 . S
C1031 C1048 1.574 . S
C1031 C1050 1.368 . S
C1031 H1055 0.949 . S
H1032 C1036 0.949 . S
C1033 C1034 1.349 . S
C1033 C1035 1.327 . S
C1033 H1056 0.950 . S
C1034 C1033 1.349 . S
C1034 C1046 1.349 . S
C1035 C1033 1.327 . S
C1035 C1051 1.429 . S
C1035 H1057 0.950 . S
C1036 H1032 0.949 . S
C1036 C1044 1.574 . S
C1036 C1052 1.368 . S
H1037 C1045 0.950 . S
H1038 C1043 0.950 . S
H1039 C1044 0.949 . S
H1040 C1046 0.950 . S
H1041 C1047 0.950 . S
H1042 C1048 0.949 . S
C1043 H1038 0.950 . S
C1043 C1045 1.327 . S
C1043 C1049 1.429 . S
C1044 C1036 1.574 . S
C1044 H1039 0.949 . S
C1044 C1050 1.368 . S
C1045 C1029 1.349 . S
C1045 H1037 0.950 . S
C1045 C1043 1.327 . S
C1046 C1034 1.349 . S
C1046 H1040 0.950 . S
C1046 C1047 1.327 . S
C1047 H1041 0.950 . S
C1047 C1046 1.327 . S
C1047 C1051 1.429 . S
C1048 C1031 1.574 . S
C1048 H1042 0.949 . S
C1048 C1052 1.368 . S
C1049 C1030 1.429 . S
C1049 C1043 1.429 . S
C1049 C1050 1.523 . S
C1050 C1031 1.368 . S
C1050 C1044 1.368 . S
C1050 C1049 1.523 . S
C1051 C1035 1.429 . S
C1051 C1047 1.429 . S
C1051 C1052 1.523 . S
C1052 C1036 1.368 . S
C1052 C1048 1.368 . S
C1052 C1051 1.523 . S
H1053 C1028 0.950 . S
H1054 C1030 0.950 . S
H1055 C1031 0.949 . S
H1056 C1033 0.950 . S
H1057 C1035 0.950 . S
C1058 C1059 1.349 . S
C1058 C1060 1.327 . S
C1058 H1083 0.950 . S
C1059 C1058 1.349 . S
C1059 C1075 1.349 . S
C1060 C1058 1.327 . S
C1060 C1079 1.429 . S
C1060 H1084 0.950 . S
C1061 C1078 1.574 . S
C1061 C1080 1.368 . S
C1061 H1085 0.949 . S
H1062 C1066 0.949 . S
C1063 C1064 1.349 . S
C1063 C1065 1.327 . S
C1063 H1086 0.950 . S
C1064 C1063 1.349 . S
C1064 C1076 1.349 . S
C1065 C1063 1.327 . S
C1065 C1081 1.429 . S
C1065 H1087 0.950 . S
C1066 H1062 0.949 . S
C1066 C1074 1.574 . S
C1066 C1082 1.368 . S
H1067 C1075 0.950 . S
H1068 C1073 0.950 . S
H1069 C1074 0.949 . S
H1070 C1076 0.950 . S
H1071 C1077 0.950 . S
H1072 C1078 0.949 . S
C1073 H1068 0.950 . S
C1073 C1075 1.327 . S
C1073 C1079 1.429 . S
C1074 C1066 1.574 . S
C1074 H1069 0.949 . S
C1074 C1080 1.368 . S
C1075 C1059 1.349 . S
C1075 H1067 0.950 . S
C1075 C1073 1.327 . S
C1076 C1064 1.349 . S
C1076 H1070 0.950 . S
C1076 C1077 1.327 . S
C1077 H1071 0.950 . S
C1077 C1076 1.327 . S
C1077 C1081 1.429 . S
C1078 C1061 1.574 . S
C1078 H1072 0.949 . S
C1078 C1082 1.368 . S
C1079 C1060 1.429 . S
C1079 C1073 1.429 . S
C1079 C1080 1.523 . S
C1080 C1061 1.368 . S
C1080 C1074 1.368 . S
C1080 C1079 1.523 . S
C1081 C1065 1.429 . S
C1081 C1077 1.429 . S
C1081 C1082 1.523 . S
C1082 C1066 1.368 . S
C1082 C1078 1.368 . S
C1082 C1081 1.523 . S
H1083 C1058 0.950 . S
H1084 C1060 0.950 . S
H1085 C1061 0.949 . S
H1086 C1063 0.950 . S
H1087 C1065 0.950 . S
C1088 C1089 1.349 . S
C1088 C1090 1.327 . S
C1088 H1113 0.950 . S
C1089 C1088 1.349 . S
C1089 C1105 1.349 . S
C1090 C1088 1.327 . S
C1090 C1109 1.429 . S
C1090 H1114 0.950 . S
C1091 C1108 1.574 . S
C1091 C1110 1.368 . S
C1091 H1115 0.949 . S
H1092 C1096 0.949 . S
C1093 C1094 1.349 . S
C1093 C1095 1.327 . S
C1093 H1116 0.950 . S
C1094 C1093 1.349 . S
C1094 C1106 1.349 . S
C1095 C1093 1.327 . S
C1095 C1111 1.429 . S
C1095 H1117 0.950 . S
C1096 H1092 0.949 . S
C1096 C1104 1.574 . S
C1096 C1112 1.368 . S
H1097 C1105 0.950 . S
H1098 C1103 0.950 . S
H1099 C1104 0.949 . S
H1100 C1106 0.950 . S
H1101 C1107 0.950 . S
H1102 C1108 0.949 . S
C1103 H1098 0.950 . S
C1103 C1105 1.327 . S
C1103 C1109 1.429 . S
C1104 C1096 1.574 . S
C1104 H1099 0.949 . S
C1104 C1110 1.368 . S
C1105 C1089 1.349 . S
C1105 H1097 0.950 . S
C1105 C1103 1.327 . S
C1106 C1094 1.349 . S
C1106 H1100 0.950 . S
C1106 C1107 1.327 . S
C1107 H1101 0.950 . S
C1107 C1106 1.327 . S
C1107 C1111 1.429 . S
C1108 C1091 1.574 . S
C1108 H1102 0.949 . S
C1108 C1112 1.368 . S
C1109 C1090 1.429 . S
C1109 C1103 1.429 . S
C1109 C1110 1.523 . S
C1110 C1091 1.368 . S
C1110 C1104 1.368 . S
C1110 C1109 1.523 . S
C1111 C1095 1.429 . S
C1111 C1107 1.429 . S
C1111 C1112 1.523 . S
C1112 C1096 1.368 . S
C1112 C1108 1.368 . S
C1112 C1111 1.523 . S
H1113 C1088 0.950 . S
H1114 C1090 0.950 . S
H1115 C1091 0.949 . S
H1116 C1093 0.950 . S
H1117 C1095 0.950 . S
C1118 C1119 1.349 . S
C1118 C1120 1.327 . S
C1118 H1143 0.950 . S
C1119 C1118 1.349 . S
C1119 C1135 1.349 . S
C1120 C1118 1.327 . S
C1120 C1139 1.429 . S
C1120 H1144 0.950 . S
C1121 C1138 1.574 . S
C1121 C1140 1.368 . S
C1121 H1145 0.949 . S
H1122 C1126 0.949 . S
C1123 C1124 1.349 . S
C1123 C1125 1.327 . S
C1123 H1146 0.950 . S
C1124 C1123 1.349 . S
C1124 C1136 1.349 . S
C1125 C1123 1.327 . S
C1125 C1141 1.429 . S
C1125 H1147 0.950 . S
C1126 H1122 0.949 . S
C1126 C1134 1.574 . S
C1126 C1142 1.368 . S
H1127 C1135 0.950 . S
H1128 C1133 0.950 . S
H1129 C1134 0.949 . S
H1130 C1136 0.950 . S
H1131 C1137 0.950 . S
H1132 C1138 0.949 . S
C1133 H1128 0.950 . S
C1133 C1135 1.327 . S
C1133 C1139 1.429 . S
C1134 C1126 1.574 . S
C1134 H1129 0.949 . S
C1134 C1140 1.368 . S
C1135 C1119 1.349 . S
C1135 H1127 0.950 . S
C1135 C1133 1.327 . S
C1136 C1124 1.349 . S
C1136 H1130 0.950 . S
C1136 C1137 1.327 . S
C1137 H1131 0.950 . S
C1137 C1136 1.327 . S
C1137 C1141 1.429 . S
C1138 C1121 1.574 . S
C1138 H1132 0.949 . S
C1138 C1142 1.368 . S
C1139 C1120 1.429 . S
C1139 C1133 1.429 . S
C1139 C1140 1.523 . S
C1140 C1121 1.368 . S
C1140 C1134 1.368 . S
C1140 C1139 1.523 . S
C1141 C1125 1.429 . S
C1141 C1137 1.429 . S
C1141 C1142 1.523 . S
C1142 C1126 1.368 . S
C1142 C1138 1.368 . S
C1142 C1141 1.523 . S
H1143 C1118 0.950 . S
H1144 C1120 0.950 . S
H1145 C1121 0.949 . S
H1146 C1123 0.950 . S
H1147 C1125 0.950 . S
C1148 C1149 1.349 . S
C1148 C1150 1.327 . S
C1148 H1173 0.950 . S
C1149 C1148 1.349 . S
C1149 C1165 1.349 . S
C1150 C1148 1.327 . S
C1150 C1169 1.429 . S
C1150 H1174 0.950 . S
C1151 C1168 1.574 . S
C1151 C1170 1.368 . S
C1151 H1175 0.949 . S
H1152 C1156 0.949 . S
C1153 C1154 1.349 . S
C1153 C1155 1.327 . S
C1153 H1176 0.950 . S
C1154 C1153 1.349 . S
C1154 C1166 1.349 . S
C1155 C1153 1.327 . S
C1155 C1171 1.429 . S
C1155 H1177 0.950 . S
C1156 H1152 0.949 . S
C1156 C1164 1.574 . S
C1156 C1172 1.368 . S
H1157 C1165 0.950 . S
H1158 C1163 0.950 . S
H1159 C1164 0.949 . S
H1160 C1166 0.950 . S
H1161 C1167 0.950 . S
H1162 C1168 0.949 . S
C1163 H1158 0.950 . S
C1163 C1165 1.327 . S
C1163 C1169 1.429 . S
C1164 C1156 1.574 . S
C1164 H1159 0.949 . S
C1164 C1170 1.368 . S
C1165 C1149 1.349 . S
C1165 H1157 0.950 . S
C1165 C1163 1.327 . S
C1166 C1154 1.349 . S
C1166 H1160 0.950 . S
C1166 C1167 1.327 . S
C1167 H1161 0.950 . S
C1167 C1166 1.327 . S
C1167 C1171 1.429 . S
C1168 C1151 1.574 . S
C1168 H1162 0.949 . S
C1168 C1172 1.368 . S
C1169 C1150 1.429 . S
C1169 C1163 1.429 . S
C1169 C1170 1.523 . S
C1170 C1151 1.368 . S
C1170 C1164 1.368 . S
C1170 C1169 1.523 . S
C1171 C1155 1.429 . S
C1171 C1167 1.429 . S
C1171 C1172 1.523 . S
C1172 C1156 1.368 . S
C1172 C1168 1.368 . S
C1172 C1171 1.523 . S
H1173 C1148 0.950 . S
H1174 C1150 0.950 . S
H1175 C1151 0.949 . S
H1176 C1153 0.950 . S
H1177 C1155 0.950 . S
C1178 C1179 1.349 . S
C1178 C1180 1.327 . S
C1178 H1203 0.950 . S
C1179 C1178 1.349 . S
C1179 C1195 1.349 . S
C1180 C1178 1.327 . S
C1180 C1199 1.429 . S
C1180 H1204 0.950 . S
C1181 C1198 1.574 . S
C1181 C1200 1.368 . S
C1181 H1205 0.949 . S
H1182 C1186 0.949 . S
C1183 C1184 1.349 . S
C1183 C1185 1.327 . S
C1183 H1206 0.950 . S
C1184 C1183 1.349 . S
C1184 C1196 1.349 . S
C1185 C1183 1.327 . S
C1185 C1201 1.429 . S
C1185 H1207 0.950 . S
C1186 H1182 0.949 . S
C1186 C1194 1.574 . S
C1186 C1202 1.368 . S
H1187 C1195 0.950 . S
H1188 C1193 0.950 . S
H1189 C1194 0.949 . S
H1190 C1196 0.950 . S
H1191 C1197 0.950 . S
H1192 C1198 0.949 . S
C1193 H1188 0.950 . S
C1193 C1195 1.327 . S
C1193 C1199 1.429 . S
C1194 C1186 1.574 . S
C1194 H1189 0.949 . S
C1194 C1200 1.368 . S
C1195 C1179 1.349 . S
C1195 H1187 0.950 . S
C1195 C1193 1.327 . S
C1196 C1184 1.349 . S
C1196 H1190 0.950 . S
C1196 C1197 1.327 . S
C1197 H1191 0.950 . S
C1197 C1196 1.327 . S
C1197 C1201 1.429 . S
C1198 C1181 1.574 . S
C1198 H1192 0.949 . S
C1198 C1202 1.368 . S
C1199 C1180 1.429 . S
C1199 C1193 1.429 . S
C1199 C1200 1.523 . S
C1200 C1181 1.368 . S
C1200 C1194 1.368 . S
C1200 C1199 1.523 . S
C1201 C1185 1.429 . S
C1201 C1197 1.429 . S
C1201 C1202 1.523 . S
C1202 C1186 1.368 . S
C1202 C1198 1.368 . S
C1202 C1201 1.523 . S
H1203 C1178 0.950 . S
H1204 C1180 0.950 . S
H1205 C1181 0.949 . S
H1206 C1183 0.950 . S
H1207 C1185 0.950 . S
C1208 C1209 1.349 . S
C1208 C1210 1.327 . S
C1208 H1233 0.950 . S
C1209 C1208 1.349 . S
C1209 C1225 1.349 . S
C1210 C1208 1.327 . S
C1210 C1229 1.429 . S
C1210 H1234 0.950 . S
C1211 C1228 1.574 . S
C1211 C1230 1.368 . S
C1211 H1235 0.949 . S
H1212 C1216 0.949 . S
C1213 C1214 1.349 . S
C1213 C1215 1.327 . S
C1213 H1236 0.950 . S
C1214 C1213 1.349 . S
C1214 C1226 1.349 . S
C1215 C1213 1.327 . S
C1215 C1231 1.429 . S
C1215 H1237 0.950 . S
C1216 H1212 0.949 . S
C1216 C1224 1.574 . S
C1216 C1232 1.368 . S
H1217 C1225 0.950 . S
H1218 C1223 0.950 . S
H1219 C1224 0.949 . S
H1220 C1226 0.950 . S
H1221 C1227 0.950 . S
H1222 C1228 0.949 . S
C1223 H1218 0.950 . S
C1223 C1225 1.327 . S
C1223 C1229 1.429 . S
C1224 C1216 1.574 . S
C1224 H1219 0.949 . S
C1224 C1230 1.368 . S
C1225 C1209 1.349 . S
C1225 H1217 0.950 . S
C1225 C1223 1.327 . S
C1226 C1214 1.349 . S
C1226 H1220 0.950 . S
C1226 C1227 1.327 . S
C1227 H1221 0.950 . S
C1227 C1226 1.327 . S
C1227 C1231 1.429 . S
C1228 C1211 1.574 . S
C1228 H1222 0.949 . S
C1228 C1232 1.368 . S
C1229 C1210 1.429 . S
C1229 C1223 1.429 . S
C1229 C1230 1.523 . S
C1230 C1211 1.368 . S
C1230 C1224 1.368 . S
C1230 C1229 1.523 . S
C1231 C1215 1.429 . S
C1231 C1227 1.429 . S
C1231 C1232 1.523 . S
C1232 C1216 1.368 . S
C1232 C1228 1.368 . S
C1232 C1231 1.523 . S
H1233 C1208 0.950 . S
H1234 C1210 0.950 . S
H1235 C1211 0.949 . S
H1236 C1213 0.950 . S
H1237 C1215 0.950 . S
C1238 C1239 1.349 . S
C1238 C1240 1.327 . S
C1238 H1263 0.950 . S
C1239 C1238 1.349 . S
C1239 C1255 1.349 . S
C1240 C1238 1.327 . S
C1240 C1259 1.429 . S
C1240 H1264 0.950 . S
C1241 C1258 1.574 . S
C1241 C1260 1.368 . S
C1241 H1265 0.949 . S
H1242 C1246 0.949 . S
C1243 C1244 1.349 . S
C1243 C1245 1.327 . S
C1243 H1266 0.950 . S
C1244 C1243 1.349 . S
C1244 C1256 1.349 . S
C1245 C1243 1.327 . S
C1245 C1261 1.429 . S
C1245 H1267 0.950 . S
C1246 H1242 0.949 . S
C1246 C1254 1.574 . S
C1246 C1262 1.368 . S
H1247 C1255 0.950 . S
H1248 C1253 0.950 . S
H1249 C1254 0.949 . S
H1250 C1256 0.950 . S
H1251 C1257 0.950 . S
H1252 C1258 0.949 . S
C1253 H1248 0.950 . S
C1253 C1255 1.327 . S
C1253 C1259 1.429 . S
C1254 C1246 1.574 . S
C1254 H1249 0.949 . S
C1254 C1260 1.368 . S
C1255 C1239 1.349 . S
C1255 H1247 0.950 . S
C1255 C1253 1.327 . S
C1256 C1244 1.349 . S
C1256 H1250 0.950 . S
C1256 C1257 1.327 . S
C1257 H1251 0.950 . S
C1257 C1256 1.327 . S
C1257 C1261 1.429 . S
C1258 C1241 1.574 . S
C1258 H1252 0.949 . S
C1258 C1262 1.368 . S
C1259 C1240 1.429 . S
C1259 C1253 1.429 . S
C1259 C1260 1.523 . S
C1260 C1241 1.368 . S
C1260 C1254 1.368 . S
C1260 C1259 1.523 . S
C1261 C1245 1.429 . S
C1261 C1257 1.429 . S
C1261 C1262 1.523 . S
C1262 C1246 1.368 . S
C1262 C1258 1.368 . S
C1262 C1261 1.523 . S
H1263 C1238 0.950 . S
H1264 C1240 0.950 . S
H1265 C1241 0.949 . S
H1266 C1243 0.950 . S
H1267 C1245 0.950 . S
C1268 C1269 1.349 . S
C1268 C1270 1.327 . S
C1268 H1293 0.950 . S
C1269 C1268 1.349 . S
C1269 C1285 1.349 . S
C1270 C1268 1.327 . S
C1270 C1289 1.429 . S
C1270 H1294 0.950 . S
C1271 C1288 1.574 . S
C1271 C1290 1.368 . S
C1271 H1295 0.949 . S
H1272 C1276 0.949 . S
C1273 C1274 1.349 . S
C1273 C1275 1.327 . S
C1273 H1296 0.950 . S
C1274 C1273 1.349 . S
C1274 C1286 1.349 . S
C1275 C1273 1.327 . S
C1275 C1291 1.429 . S
C1275 H1297 0.950 . S
C1276 H1272 0.949 . S
C1276 C1284 1.574 . S
C1276 C1292 1.368 . S
H1277 C1285 0.950 . S
H1278 C1283 0.950 . S
H1279 C1284 0.949 . S
H1280 C1286 0.950 . S
H1281 C1287 0.950 . S
H1282 C1288 0.949 . S
C1283 H1278 0.950 . S
C1283 C1285 1.327 . S
C1283 C1289 1.429 . S
C1284 C1276 1.574 . S
C1284 H1279 0.949 . S
C1284 C1290 1.368 . S
C1285 C1269 1.349 . S
C1285 H1277 0.950 . S
C1285 C1283 1.327 . S
C1286 C1274 1.349 . S
C1286 H1280 0.950 . S
C1286 C1287 1.327 . S
C1287 H1281 0.950 . S
C1287 C1286 1.327 . S
C1287 C1291 1.429 . S
C1288 C1271 1.574 . S
C1288 H1282 0.949 . S
C1288 C1292 1.368 . S
C1289 C1270 1.429 . S
C1289 C1283 1.429 . S
C1289 C1290 1.523 . S
C1290 C1271 1.368 . S
C1290 C1284 1.368 . S
C1290 C1289 1.523 . S
C1291 C1275 1.429 . S
C1291 C1287 1.429 . S
C1291 C1292 1.523 . S
C1292 C1276 1.368 . S
C1292 C1288 1.368 . S
C1292 C1291 1.523 . S
H1293 C1268 0.950 . S
H1294 C1270 0.950 . S
H1295 C1271 0.949 . S
H1296 C1273 0.950 . S
H1297 C1275 0.950 . S
C1298 C1299 1.349 . S
C1298 C1300 1.327 . S
C1298 H1323 0.950 . S
C1299 C1298 1.349 . S
C1299 C1315 1.349 . S
C1300 C1298 1.327 . S
C1300 C1319 1.429 . S
C1300 H1324 0.950 . S
C1301 C1318 1.574 . S
C1301 C1320 1.368 . S
C1301 H1325 0.949 . S
H1302 C1306 0.949 . S
C1303 C1304 1.349 . S
C1303 C1305 1.327 . S
C1303 H1326 0.950 . S
C1304 C1303 1.349 . S
C1304 C1316 1.349 . S
C1305 C1303 1.327 . S
C1305 C1321 1.429 . S
C1305 H1327 0.950 . S
C1306 H1302 0.949 . S
C1306 C1314 1.574 . S
C1306 C1322 1.368 . S
H1307 C1315 0.950 . S
H1308 C1313 0.950 . S
H1309 C1314 0.949 . S
H1310 C1316 0.950 . S
H1311 C1317 0.950 . S
H1312 C1318 0.949 . S
C1313 H1308 0.950 . S
C1313 C1315 1.327 . S
C1313 C1319 1.429 . S
C1314 C1306 1.574 . S
C1314 H1309 0.949 . S
C1314 C1320 1.368 . S
C1315 C1299 1.349 . S
C1315 H1307 0.950 . S
C1315 C1313 1.327 . S
C1316 C1304 1.349 . S
C1316 H1310 0.950 . S
C1316 C1317 1.327 . S
C1317 H1311 0.950 . S
C1317 C1316 1.327 . S
C1317 C1321 1.429 . S
C1318 C1301 1.574 . S
C1318 H1312 0.949 . S
C1318 C1322 1.368 . S
C1319 C1300 1.429 . S
C1319 C1313 1.429 . S
C1319 C1320 1.523 . S
C1320 C1301 1.368 . S
C1320 C1314 1.368 . S
C1320 C1319 1.523 . S
C1321 C1305 1.429 . S
C1321 C1317 1.429 . S
C1321 C1322 1.523 . S
C1322 C1306 1.368 . S
C1322 C1318 1.368 . S
C1322 C1321 1.523 . S
H1323 C1298 0.950 . S
H1324 C1300 0.950 . S
H1325 C1301 0.949 . S
H1326 C1303 0.950 . S
H1327 C1305 0.950 . S
C1328 C1329 1.349 . S
C1328 C1330 1.327 . S
C1328 H1353 0.950 . S
C1329 C1328 1.349 . S
C1329 C1345 1.349 . S
C1330 C1328 1.327 . S
C1330 C1349 1.429 . S
C1330 H1354 0.950 . S
C1331 C1348 1.574 1_556 S
C1331 C1350 1.368 1_455 S
C1331 H1355 0.949 . S
H1332 C1336 0.949 . S
C1333 C1334 1.349 . S
C1333 C1335 1.327 . S
C1333 H1356 0.950 . S
C1334 C1333 1.349 . S
C1334 C1346 1.349 . S
C1335 C1333 1.327 . S
C1335 C1351 1.429 . S
C1335 H1357 0.950 . S
C1336 H1332 0.949 . S
C1336 C1344 1.574 1_554 S
C1336 C1352 1.368 1_655 S
H1337 C1345 0.950 . S
H1338 C1343 0.950 . S
H1339 C1344 0.949 . S
H1340 C1346 0.950 . S
H1341 C1347 0.950 . S
H1342 C1348 0.949 . S
C1343 H1338 0.950 . S
C1343 C1345 1.327 . S
C1343 C1349 1.429 . S
C1344 C1336 1.574 1_556 S
C1344 H1339 0.949 . S
C1344 C1350 1.368 . S
C1345 C1329 1.349 . S
C1345 H1337 0.950 . S
C1345 C1343 1.327 . S
C1346 C1334 1.349 . S
C1346 H1340 0.950 . S
C1346 C1347 1.327 . S
C1347 H1341 0.950 . S
C1347 C1346 1.327 . S
C1347 C1351 1.429 . S
C1348 C1331 1.574 1_554 S
C1348 H1342 0.949 . S
C1348 C1352 1.368 . S
C1349 C1330 1.429 . S
C1349 C1343 1.429 . S
C1349 C1350 1.523 . S
C1350 C1331 1.368 1_655 S
C1350 C1344 1.368 . S
C1350 C1349 1.523 . S
C1351 C1335 1.429 . S
C1351 C1347 1.429 . S
C1351 C1352 1.523 . S
C1352 C1336 1.368 1_455 S
C1352 C1348 1.368 . S
C1352 C1351 1.523 . S
H1353 C1328 0.950 . S
H1354 C1330 0.950 . S
H1355 C1331 0.949 . S
H1356 C1333 0.950 . S
H1357 C1335 0.950 . S
C1358 C1359 1.349 . S
C1358 C1360 1.327 . S
C1358 H1383 0.950 . S
C1359 C1358 1.349 . S
C1359 C1375 1.349 . S
C1360 C1358 1.327 . S
C1360 C1379 1.429 . S
C1360 H1384 0.950 . S
C1361 C1378 1.583 1_455 S
C1361 C1380 1.368 1_545 S
C1361 H1385 0.949 . S
H1362 C1366 0.949 . S
C1363 C1364 1.349 . S
C1363 C1365 1.327 . S
C1363 H1386 0.950 . S
C1364 C1363 1.349 . S
C1364 C1376 1.349 . S
C1365 C1363 1.327 . S
C1365 C1381 1.429 . S
C1365 H1387 0.950 . S
C1366 H1362 0.949 . S
C1366 C1374 1.583 1_655 S
C1366 C1382 1.368 1_565 S
H1367 C1375 0.949 . S
H1368 C1373 0.950 1_545 S
H1369 C1374 0.949 . S
H1370 C1376 0.949 . S
H1371 C1377 0.950 1_565 S
H1372 C1378 0.949 . S
C1373 H1368 0.950 1_565 S
C1373 C1375 1.327 . S
C1373 C1379 1.429 . S
C1374 C1366 1.583 1_455 S
C1374 H1369 0.949 . S
C1374 C1380 1.359 1_554 S
C1375 C1359 1.349 . S
C1375 H1367 0.949 . S
C1375 C1373 1.327 . S
C1376 C1364 1.349 . S
C1376 H1370 0.949 . S
C1376 C1377 1.327 . S
C1377 H1371 0.950 1_545 S
C1377 C1376 1.327 . S
C1377 C1381 1.429 . S
C1378 C1361 1.583 1_655 S
C1378 H1372 0.949 . S
C1378 C1382 1.359 1_556 S
C1379 C1360 1.429 . S
C1379 C1373 1.429 . S
C1379 C1380 1.523 . S
C1380 C1361 1.368 1_565 S
C1380 C1374 1.359 1_556 S
C1380 C1379 1.523 . S
C1381 C1365 1.429 . S
C1381 C1377 1.429 . S
C1381 C1382 1.523 . S
C1382 C1366 1.368 1_545 S
C1382 C1378 1.359 1_554 S
C1382 C1381 1.523 . S
H1383 C1358 0.950 . S
H1384 C1360 0.950 . S
H1385 C1361 0.949 . S
H1386 C1363 0.950 . S
H1387 C1365 0.950 . S
C1388 C1389 1.349 . S
C1388 C1390 1.327 . S
C1388 H1413 0.950 . S
C1389 C1388 1.349 . S
C1389 C1405 1.349 . S
C1390 C1388 1.327 . S
C1390 C1409 1.429 . S
C1390 H1414 0.950 . S
C1391 C1408 1.574 . S
C1391 C1410 1.368 1_554 S
C1391 H1415 0.949 . S
H1392 C1396 0.949 . S
C1393 C1394 1.349 . S
C1393 C1395 1.327 . S
C1393 H1416 0.950 . S
C1394 C1393 1.349 . S
C1394 C1406 1.349 . S
C1395 C1393 1.327 . S
C1395 C1411 1.429 . S
C1395 H1417 0.950 . S
C1396 H1392 0.949 . S
C1396 C1404 1.574 . S
C1396 C1412 1.368 1_556 S
H1397 C1405 0.950 . S
H1398 C1403 0.950 . S
H1399 C1404 0.949 . S
H1400 C1406 0.950 . S
H1401 C1407 0.950 . S
H1402 C1408 0.949 . S
C1403 H1398 0.950 . S
C1403 C1405 1.327 . S
C1403 C1409 1.429 . S
C1404 C1396 1.574 . S
C1404 H1399 0.949 . S
C1404 C1410 1.368 1_565 S
C1405 C1389 1.349 . S
C1405 H1397 0.950 . S
C1405 C1403 1.327 . S
C1406 C1394 1.349 . S
C1406 H1400 0.950 . S
C1406 C1407 1.327 . S
C1407 H1401 0.950 . S
C1407 C1406 1.327 . S
C1407 C1411 1.429 . S
C1408 C1391 1.574 . S
C1408 H1402 0.949 . S
C1408 C1412 1.368 1_545 S
C1409 C1390 1.429 . S
C1409 C1403 1.429 . S
C1409 C1410 1.523 . S
C1410 C1391 1.368 1_556 S
C1410 C1404 1.368 1_545 S
C1410 C1409 1.523 . S
C1411 C1395 1.429 . S
C1411 C1407 1.429 . S
C1411 C1412 1.523 . S
C1412 C1396 1.368 1_554 S
C1412 C1408 1.368 1_565 S
C1412 C1411 1.523 . S
H1413 C1388 0.950 . S
H1414 C1390 0.950 . S
H1415 C1391 0.949 . S
H1416 C1393 0.950 . S
H1417 C1395 0.950 . S
C1418 C1419 1.349 . S
C1418 C1420 1.327 . S
C1418 H1443 0.950 . S
C1419 C1418 1.349 . S
C1419 C1435 1.349 . S
C1420 C1418 1.327 . S
C1420 C1439 1.429 . S
C1420 H1444 0.950 . S
C1421 C1438 1.574 1_554 S
C1421 C1440 1.368 . S
C1421 H1445 0.949 . S
H1422 C1426 0.949 . S
C1423 C1424 1.349 . S
C1423 C1425 1.327 . S
C1423 H1446 0.950 . S
C1424 C1423 1.349 . S
C1424 C1436 1.349 . S
C1425 C1423 1.327 . S
C1425 C1441 1.429 . S
C1425 H1447 0.950 . S
C1426 H1422 0.949 . S
C1426 C1434 1.574 1_556 S
C1426 C1442 1.368 . S
H1427 C1435 0.950 . S
H1428 C1433 0.950 . S
H1429 C1434 0.949 . S
H1430 C1436 0.950 . S
H1431 C1437 0.950 . S
H1432 C1438 0.949 . S
C1433 H1428 0.950 . S
C1433 C1435 1.327 . S
C1433 C1439 1.429 . S
C1434 C1426 1.574 1_554 S
C1434 H1429 0.949 . S
C1434 C1440 1.368 . S
C1435 C1419 1.349 . S
C1435 H1427 0.950 . S
C1435 C1433 1.327 . S
C1436 C1424 1.349 . S
C1436 H1430 0.950 . S
C1436 C1437 1.327 . S
C1437 H1431 0.950 . S
C1437 C1436 1.327 . S
C1437 C1441 1.429 . S
C1438 C1421 1.574 1_556 S
C1438 H1432 0.949 . S
C1438 C1442 1.368 . S
C1439 C1420 1.429 . S
C1439 C1433 1.429 . S
C1439 C1440 1.523 . S
C1440 C1421 1.368 . S
C1440 C1434 1.368 . S
C1440 C1439 1.523 . S
C1441 C1425 1.429 . S
C1441 C1437 1.429 . S
C1441 C1442 1.523 . S
C1442 C1426 1.368 . S
C1442 C1438 1.368 . S
C1442 C1441 1.523 . S
H1443 C1418 0.950 . S
H1444 C1420 0.950 . S
H1445 C1421 0.949 . S
H1446 C1423 0.950 . S
H1447 C1425 0.950 . S
C1448 C1449 1.349 . S
C1448 C1450 1.327 . S
C1448 H1473 0.950 . S
C1449 C1448 1.349 . S
C1449 C1465 1.349 . S
C1450 C1448 1.327 . S
C1450 C1469 1.429 . S
C1450 H1474 0.950 . S
C1451 C1468 1.574 . S
C1451 C1470 1.368 1_455 S
C1451 H1475 0.949 . S
H1452 C1456 0.949 . S
C1453 C1454 1.349 . S
C1453 C1455 1.327 . S
C1453 H1476 0.950 . S
C1454 C1453 1.349 . S
C1454 C1466 1.349 . S
C1455 C1453 1.327 . S
C1455 C1471 1.429 . S
C1455 H1477 0.950 . S
C1456 H1452 0.949 . S
C1456 C1464 1.574 . S
C1456 C1472 1.368 1_655 S
H1457 C1465 0.950 1_455 S
H1458 C1463 0.943 1_455 S
H1459 C1464 0.949 . S
H1460 C1466 0.950 1_655 S
H1461 C1467 0.943 1_655 S
H1462 C1468 0.949 . S
C1463 H1458 0.943 1_655 S
C1463 C1465 1.330 . S
C1463 C1469 1.433 . S
C1464 C1456 1.574 . S
C1464 H1459 0.949 . S
C1464 C1470 1.368 1_565 S
C1465 C1449 1.349 . S
C1465 H1457 0.950 1_655 S
C1465 C1463 1.330 . S
C1466 C1454 1.349 . S
C1466 H1460 0.950 1_455 S
C1466 C1467 1.330 . S
C1467 H1461 0.943 1_455 S
C1467 C1466 1.330 . S
C1467 C1471 1.433 . S
C1468 C1451 1.574 . S
C1468 H1462 0.949 . S
C1468 C1472 1.368 1_545 S
C1469 C1450 1.429 . S
C1469 C1463 1.433 . S
C1469 C1470 1.523 . S
C1470 C1451 1.368 1_655 S
C1470 C1464 1.368 1_545 S
C1470 C1469 1.523 . S
C1471 C1455 1.429 . S
C1471 C1467 1.433 . S
C1471 C1472 1.523 . S
C1472 C1456 1.368 1_455 S
C1472 C1468 1.368 1_565 S
C1472 C1471 1.523 . S
H1473 C1448 0.950 . S
H1474 C1450 0.950 . S
H1475 C1451 0.949 . S
H1476 C1453 0.950 . S
H1477 C1455 0.950 . S
C1478 C1479 1.349 . S
C1478 C1480 1.327 . S
C1478 H1503 0.950 . S
C1479 C1478 1.349 . S
C1479 C1495 1.349 . S
C1480 C1478 1.327 . S
C1480 C1499 1.429 . S
C1480 H1504 0.950 1_565 S
C1481 C1498 1.574 . S
C1481 C1500 1.368 . S
C1481 H1505 0.949 . S
H1482 C1486 0.949 . S
C1483 C1484 1.349 . S
C1483 C1485 1.327 . S
C1483 H1506 0.950 . S
C1484 C1483 1.349 . S
C1484 C1496 1.349 . S
C1485 C1483 1.327 . S
C1485 C1501 1.429 . S
C1485 H1507 0.950 1_545 S
C1486 H1482 0.949 . S
C1486 C1494 1.574 . S
C1486 C1502 1.368 . S
H1487 C1495 0.950 . S
H1488 C1493 0.950 . S
H1489 C1494 0.949 . S
H1490 C1496 0.950 . S
H1491 C1497 0.950 . S
H1492 C1498 0.949 . S
C1493 H1488 0.950 . S
C1493 C1495 1.327 . S
C1493 C1499 1.429 . S
C1494 C1486 1.574 . S
C1494 H1489 0.949 . S
C1494 C1500 1.368 1_545 S
C1495 C1479 1.349 . S
C1495 H1487 0.950 . S
C1495 C1493 1.327 . S
C1496 C1484 1.349 . S
C1496 H1490 0.950 . S
C1496 C1497 1.327 . S
C1497 H1491 0.950 . S
C1497 C1496 1.327 . S
C1497 C1501 1.429 . S
C1498 C1481 1.574 . S
C1498 H1492 0.949 . S
C1498 C1502 1.368 1_565 S
C1499 C1480 1.429 . S
C1499 C1493 1.429 . S
C1499 C1500 1.523 . S
C1500 C1481 1.368 . S
C1500 C1494 1.368 1_565 S
C1500 C1499 1.523 . S
C1501 C1485 1.429 . S
C1501 C1497 1.429 . S
C1501 C1502 1.523 . S
C1502 C1486 1.368 . S
C1502 C1498 1.368 1_545 S
C1502 C1501 1.523 . S
H1503 C1478 0.950 . S
H1504 C1480 0.950 1_545 S
H1505 C1481 0.949 . S
H1506 C1483 0.950 . S
H1507 C1485 0.950 1_565 S
C1508 C1509 1.349 . S
C1508 C1510 1.327 . S
C1508 H1533 0.950 . S
C1509 C1508 1.349 . S
C1509 C1525 1.349 . S
C1510 C1508 1.327 . S
C1510 C1529 1.429 . S
C1510 H1534 0.950 . S
C1511 C1528 1.574 . S
C1511 C1530 1.368 . S
C1511 H1535 0.949 . S
H1512 C1516 0.949 . S
C1513 C1514 1.349 . S
C1513 C1515 1.327 . S
C1513 H1536 0.950 . S
C1514 C1513 1.349 . S
C1514 C1526 1.349 . S
C1515 C1513 1.327 . S
C1515 C1531 1.429 . S
C1515 H1537 0.950 . S
C1516 H1512 0.949 . S
C1516 C1524 1.574 . S
C1516 C1532 1.368 . S
H1517 C1525 0.950 . S
H1518 C1523 0.950 . S
H1519 C1524 0.949 . S
H1520 C1526 0.950 . S
H1521 C1527 0.950 . S
H1522 C1528 0.949 . S
C1523 H1518 0.950 . S
C1523 C1525 1.327 . S
C1523 C1529 1.429 . S
C1524 C1516 1.574 . S
C1524 H1519 0.949 . S
C1524 C1530 1.368 . S
C1525 C1509 1.349 . S
C1525 H1517 0.950 . S
C1525 C1523 1.327 . S
C1526 C1514 1.349 . S
C1526 H1520 0.950 . S
C1526 C1527 1.327 . S
C1527 H1521 0.950 . S
C1527 C1526 1.327 . S
C1527 C1531 1.429 . S
C1528 C1511 1.574 . S
C1528 H1522 0.949 . S
C1528 C1532 1.368 . S
C1529 C1510 1.429 . S
C1529 C1523 1.429 . S
C1529 C1530 1.523 . S
C1530 C1511 1.368 . S
C1530 C1524 1.368 . S
C1530 C1529 1.523 . S
C1531 C1515 1.429 . S
C1531 C1527 1.429 . S
C1531 C1532 1.523 . S
C1532 C1516 1.368 . S
C1532 C1528 1.368 . S
C1532 C1531 1.523 . S
H1533 C1508 0.950 . S
H1534 C1510 0.950 . S
H1535 C1511 0.949 . S
H1536 C1513 0.950 . S
H1537 C1515 0.950 . S
C1538 C1539 1.349 . S
C1538 C1540 1.327 . S
C1538 H1563 0.950 . S
C1539 C1538 1.349 . S
C1539 C1555 1.349 . S
C1540 C1538 1.327 . S
C1540 C1559 1.429 . S
C1540 H1564 0.950 . S
C1541 C1558 1.574 1_455 S
C1541 C1560 1.368 . S
C1541 H1565 0.949 . S
H1542 C1546 0.949 . S
C1543 C1544 1.349 . S
C1543 C1545 1.327 . S
C1543 H1566 0.950 . S
C1544 C1543 1.349 . S
C1544 C1556 1.349 . S
C1545 C1543 1.327 . S
C1545 C1561 1.429 . S
C1545 H1567 0.950 . S
C1546 H1542 0.949 . S
C1546 C1554 1.574 1_655 S
C1546 C1562 1.368 . S
H1547 C1555 0.950 . S
H1548 C1553 0.950 . S
H1549 C1554 0.949 . S
H1550 C1556 0.950 . S
H1551 C1557 0.950 . S
H1552 C1558 0.949 . S
C1553 H1548 0.950 . S
C1553 C1555 1.327 . S
C1553 C1559 1.429 . S
C1554 C1546 1.574 1_455 S
C1554 H1549 0.949 . S
C1554 C1560 1.368 . S
C1555 C1539 1.349 . S
C1555 H1547 0.950 . S
C1555 C1553 1.327 . S
C1556 C1544 1.349 . S
C1556 H1550 0.950 . S
C1556 C1557 1.327 . S
C1557 H1551 0.950 . S
C1557 C1556 1.327 . S
C1557 C1561 1.429 . S
C1558 C1541 1.574 1_655 S
C1558 H1552 0.949 . S
C1558 C1562 1.368 . S
C1559 C1540 1.429 . S
C1559 C1553 1.429 . S
C1559 C1560 1.523 . S
C1560 C1541 1.368 . S
C1560 C1554 1.368 . S
C1560 C1559 1.523 . S
C1561 C1545 1.429 . S
C1561 C1557 1.429 . S
C1561 C1562 1.523 . S
C1562 C1546 1.368 . S
C1562 C1558 1.368 . S
C1562 C1561 1.523 . S
H1563 C1538 0.950 . S
H1564 C1540 0.950 . S
H1565 C1541 0.949 . S
H1566 C1543 0.950 . S
H1567 C1545 0.950 . S
C1568 C1569 1.349 . S
C1568 C1570 1.327 . S
C1568 H1593 0.950 . S
C1569 C1568 1.349 . S
C1569 C1585 1.349 . S
C1570 C1568 1.327 . S
C1570 C1589 1.429 . S
C1570 H1594 0.950 . S
C1571 C1588 1.574 . S
C1571 C1590 1.368 . S
C1571 H1595 0.949 . S
H1572 C1576 0.943 1_455 S
C1573 C1574 1.349 . S
C1573 C1575 1.327 . S
C1573 H1596 0.950 . S
C1574 C1573 1.349 . S
C1574 C1586 1.349 . S
C1575 C1573 1.327 . S
C1575 C1591 1.429 . S
C1575 H1597 0.950 . S
C1576 H1572 0.943 1_655 S
C1576 C1584 1.586 . S
C1576 C1592 1.364 1_655 S
H1577 C1585 0.950 . S
H1578 C1583 0.950 . S
H1579 C1584 0.949 . S
H1580 C1586 0.950 . S
H1581 C1587 0.950 . S
H1582 C1588 0.949 1_455 S
C1583 H1578 0.950 . S
C1583 C1585 1.327 . S
C1583 C1589 1.429 . S
C1584 C1576 1.586 . S
C1584 H1579 0.949 . S
C1584 C1590 1.368 . S
C1585 C1569 1.349 . S
C1585 H1577 0.950 . S
C1585 C1583 1.327 . S
C1586 C1574 1.349 . S
C1586 H1580 0.950 . S
C1586 C1587 1.327 . S
C1587 H1581 0.950 . S
C1587 C1586 1.327 . S
C1587 C1591 1.429 . S
C1588 C1571 1.574 . S
C1588 H1582 0.949 1_655 S
C1588 C1592 1.368 1_655 S
C1589 C1570 1.429 . S
C1589 C1583 1.429 . S
C1589 C1590 1.523 . S
C1590 C1571 1.368 . S
C1590 C1584 1.368 . S
C1590 C1589 1.523 . S
C1591 C1575 1.429 . S
C1591 C1587 1.429 . S
C1591 C1592 1.523 . S
C1592 C1576 1.364 1_455 S
C1592 C1588 1.368 1_455 S
C1592 C1591 1.523 . S
H1593 C1568 0.950 . S
H1594 C1570 0.950 . S
H1595 C1571 0.949 . S
H1596 C1573 0.950 . S
H1597 C1575 0.950 . S
C1598 C1599 1.349 . S
C1598 C1600 1.327 . S
C1598 H1623 0.950 . S
C1599 C1598 1.349 . S
C1599 C1615 1.349 . S
C1600 C1598 1.327 . S
C1600 C1619 1.429 . S
C1600 H1624 0.950 1_565 S
C1601 C1618 1.574 . S
C1601 C1620 1.368 1_655 S
C1601 H1625 0.949 . S
H1602 C1606 0.949 . S
C1603 C1604 1.349 . S
C1603 C1605 1.324 1_545 S
C1603 H1626 0.941 1_545 S
C1604 C1603 1.349 . S
C1604 C1616 1.349 . S
C1605 C1603 1.324 1_565 S
C1605 C1621 1.425 1_565 S
C1605 H1627 0.956 . S
C1606 H1602 0.949 . S
C1606 C1614 1.573 . S
C1606 C1622 1.369 1_455 S
H1607 C1615 0.950 . S
H1608 C1613 0.950 1_655 S
H1609 C1614 0.949 . S
H1610 C1616 0.950 . S
H1611 C1617 0.950 . S
H1612 C1618 0.949 . S
C1613 H1608 0.950 1_455 S
C1613 C1615 1.327 . S
C1613 C1619 1.429 . S
C1614 C1606 1.573 . S
C1614 H1609 0.949 . S
C1614 C1620 1.368 1_545 S
C1615 C1599 1.349 . S
C1615 H1607 0.950 . S
C1615 C1613 1.327 . S
C1616 C1604 1.349 . S
C1616 H1610 0.950 . S
C1616 C1617 1.327 . S
C1617 H1611 0.950 . S
C1617 C1616 1.327 . S
C1617 C1621 1.429 . S
C1618 C1601 1.574 . S
C1618 H1612 0.949 . S
C1618 C1622 1.368 1_565 S
C1619 C1600 1.429 . S
C1619 C1613 1.429 . S
C1619 C1620 1.523 . S
C1620 C1601 1.368 1_455 S
C1620 C1614 1.368 1_565 S
C1620 C1619 1.523 . S
C1621 C1605 1.425 1_545 S
C1621 C1617 1.429 . S
C1621 C1622 1.523 . S
C1622 C1606 1.369 1_655 S
C1622 C1618 1.368 1_545 S
C1622 C1621 1.523 . S
H1623 C1598 0.950 . S
H1624 C1600 0.950 1_545 S
H1625 C1601 0.949 . S
H1626 C1603 0.941 1_565 S
H1627 C1605 0.956 . S
C1628 C1629 1.349 . S
C1628 C1630 1.327 . S
C1628 H1653 0.950 . S
C1629 C1628 1.349 . S
C1629 C1645 1.349 . S
C1630 C1628 1.327 . S
C1630 C1649 1.429 . S
C1630 H1654 0.950 . S
C1631 C1648 1.574 . S
C1631 C1650 1.368 1_565 S
C1631 H1655 0.949 . S
H1632 C1636 0.949 . S
C1633 C1634 1.349 . S
C1633 C1635 1.327 . S
C1633 H1656 0.950 . S
C1634 C1633 1.349 . S
C1634 C1646 1.349 . S
C1635 C1633 1.327 . S
C1635 C1651 1.429 . S
C1635 H1657 0.950 . S
C1636 H1632 0.949 . S
C1636 C1644 1.574 . S
C1636 C1652 1.368 1_545 S
H1637 C1645 0.950 . S
H1638 C1643 0.950 1_565 S
H1639 C1644 0.949 . S
H1640 C1646 0.950 . S
H1641 C1647 0.940 1_545 S
H1642 C1648 0.949 . S
C1643 H1638 0.950 1_545 S
C1643 C1645 1.327 . S
C1643 C1649 1.429 . S
C1644 C1636 1.574 . S
C1644 H1639 0.949 . S
C1644 C1650 1.368 . S
C1645 C1629 1.349 . S
C1645 H1637 0.950 . S
C1645 C1643 1.327 . S
C1646 C1634 1.349 . S
C1646 H1640 0.950 . S
C1646 C1647 1.327 . S
C1647 H1641 0.940 1_565 S
C1647 C1646 1.327 . S
C1647 C1651 1.429 . S
C1648 C1631 1.574 . S
C1648 H1642 0.949 . S
C1648 C1652 1.368 . S
C1649 C1630 1.429 . S
C1649 C1643 1.429 . S
C1649 C1650 1.523 . S
C1650 C1631 1.368 1_545 S
C1650 C1644 1.368 . S
C1650 C1649 1.523 . S
C1651 C1635 1.429 . S
C1651 C1647 1.429 . S
C1651 C1652 1.523 . S
C1652 C1636 1.368 1_565 S
C1652 C1648 1.368 . S
C1652 C1651 1.523 . S
H1653 C1628 0.950 . S
H1654 C1630 0.950 . S
H1655 C1631 0.949 . S
H1656 C1633 0.950 . S
H1657 C1635 0.950 . S
C1658 C1659 1.349 . S
C1658 C1660 1.327 . S
C1658 H1683 0.950 . S
C1659 C1658 1.349 . S
C1659 C1675 1.349 . S
C1660 C1658 1.327 . S
C1660 C1679 1.429 . S
C1660 H1684 0.950 . S
C1661 C1678 1.574 . S
C1661 C1680 1.368 . S
C1661 H1685 0.949 . S
H1662 C1666 0.949 . S
C1663 C1664 1.349 . S
C1663 C1665 1.327 . S
C1663 H1686 0.950 . S
C1664 C1663 1.349 . S
C1664 C1676 1.349 . S
C1665 C1663 1.327 . S
C1665 C1681 1.429 . S
C1665 H1687 0.950 . S
C1666 H1662 0.949 . S
C1666 C1674 1.574 . S
C1666 C1682 1.368 . S
H1667 C1675 0.950 . S
H1668 C1673 0.950 . S
H1669 C1674 0.949 . S
H1670 C1676 0.950 . S
H1671 C1677 0.950 . S
H1672 C1678 0.949 . S
C1673 H1668 0.950 . S
C1673 C1675 1.327 . S
C1673 C1679 1.429 . S
C1674 C1666 1.574 . S
C1674 H1669 0.949 . S
C1674 C1680 1.368 . S
C1675 C1659 1.349 . S
C1675 H1667 0.950 . S
C1675 C1673 1.327 . S
C1676 C1664 1.349 . S
C1676 H1670 0.950 . S
C1676 C1677 1.327 . S
C1677 H1671 0.950 . S
C1677 C1676 1.327 . S
C1677 C1681 1.429 . S
C1678 C1661 1.574 . S
C1678 H1672 0.949 . S
C1678 C1682 1.368 . S
C1679 C1660 1.429 . S
C1679 C1673 1.429 . S
C1679 C1680 1.523 . S
C1680 C1661 1.368 . S
C1680 C1674 1.368 . S
C1680 C1679 1.523 . S
C1681 C1665 1.429 . S
C1681 C1677 1.429 . S
C1681 C1682 1.523 . S
C1682 C1666 1.368 . S
C1682 C1678 1.368 . S
C1682 C1681 1.523 . S
H1683 C1658 0.950 . S
H1684 C1660 0.950 . S
H1685 C1661 0.949 . S
H1686 C1663 0.950 . S
H1687 C1665 0.950 . S
C1688 C1689 1.349 . S
C1688 C1690 1.327 . S
C1688 H1713 0.950 . S
C1689 C1688 1.349 . S
C1689 C1705 1.349 . S
C1690 C1688 1.327 . S
C1690 C1709 1.429 . S
C1690 H1714 0.950 . S
C1691 C1708 1.574 . S
C1691 C1710 1.368 1_655 S
C1691 H1715 0.949 . S
H1692 C1696 0.949 . S
C1693 C1694 1.349 . S
C1693 C1695 1.327 . S
C1693 H1716 0.950 . S
C1694 C1693 1.349 . S
C1694 C1706 1.349 . S
C1695 C1693 1.327 . S
C1695 C1711 1.429 . S
C1695 H1717 0.950 . S
C1696 H1692 0.949 . S
C1696 C1704 1.574 . S
C1696 C1712 1.368 1_455 S
H1697 C1705 0.950 . S
H1698 C1703 0.950 . S
H1699 C1704 0.949 . S
H1700 C1706 0.950 . S
H1701 C1707 0.950 1_455 S
H1702 C1708 0.949 . S
C1703 H1698 0.950 . S
C1703 C1705 1.327 . S
C1703 C1709 1.429 . S
C1704 C1696 1.574 . S
C1704 H1699 0.949 . S
C1704 C1710 1.368 . S
C1705 C1689 1.349 . S
C1705 H1697 0.950 . S
C1705 C1703 1.327 . S
C1706 C1694 1.349 . S
C1706 H1700 0.950 . S
C1706 C1707 1.327 . S
C1707 H1701 0.950 1_655 S
C1707 C1706 1.327 . S
C1707 C1711 1.429 . S
C1708 C1691 1.574 . S
C1708 H1702 0.949 . S
C1708 C1712 1.368 . S
C1709 C1690 1.429 . S
C1709 C1703 1.429 . S
C1709 C1710 1.523 . S
C1710 C1691 1.368 1_455 S
C1710 C1704 1.368 . S
C1710 C1709 1.523 . S
C1711 C1695 1.429 . S
C1711 C1707 1.429 . S
C1711 C1712 1.523 . S
C1712 C1696 1.368 1_655 S
C1712 C1708 1.368 . S
C1712 C1711 1.523 . S
H1713 C1688 0.950 . S
H1714 C1690 0.950 . S
H1715 C1691 0.949 . S
H1716 C1693 0.950 . S
H1717 C1695 0.950 . S
C1718 C1719 1.349 . S
C1718 C1720 1.327 1_655 S
C1718 H1743 0.947 1_655 S
C1719 C1718 1.349 . S
C1719 C1735 1.349 . S
C1720 C1718 1.327 1_455 S
C1720 C1739 1.428 1_455 S
C1720 H1744 0.950 . S
C1721 C1738 1.574 . S
C1721 C1740 1.368 . S
C1721 H1745 0.949 . S
H1722 C1726 0.949 . S
C1723 C1724 1.349 . S
C1723 C1725 1.327 . S
C1723 H1746 0.950 . S
C1724 C1723 1.349 . S
C1724 C1736 1.349 . S
C1725 C1723 1.327 . S
C1725 C1741 1.429 . S
C1725 H1747 0.950 1_455 S
C1726 H1722 0.949 . S
C1726 C1734 1.574 1_565 S
C1726 C1742 1.368 . S
H1727 C1735 0.950 . S
H1728 C1733 0.950 . S
H1729 C1734 0.949 . S
H1730 C1736 0.950 . S
H1731 C1737 0.950 . S
H1732 C1738 0.949 . S
C1733 H1728 0.950 . S
C1733 C1735 1.327 . S
C1733 C1739 1.429 . S
C1734 C1726 1.574 1_545 S
C1734 H1729 0.949 . S
C1734 C1740 1.368 1_455 S
C1735 C1719 1.349 . S
C1735 H1727 0.950 . S
C1735 C1733 1.327 . S
C1736 C1724 1.349 . S
C1736 H1730 0.950 . S
C1736 C1737 1.327 . S
C1737 H1731 0.950 . S
C1737 C1736 1.327 . S
C1737 C1741 1.429 . S
C1738 C1721 1.574 . S
C1738 H1732 0.949 . S
C1738 C1742 1.368 1_645 S
C1739 C1720 1.428 1_655 S
C1739 C1733 1.429 . S
C1739 C1740 1.523 . S
C1740 C1721 1.368 . S
C1740 C1734 1.368 1_655 S
C1740 C1739 1.523 . S
C1741 C1725 1.429 . S
C1741 C1737 1.429 . S
C1741 C1742 1.523 . S
C1742 C1726 1.368 . S
C1742 C1738 1.368 1_465 S
C1742 C1741 1.523 . S
H1743 C1718 0.947 1_455 S
H1744 C1720 0.950 . S
H1745 C1721 0.949 . S
H1746 C1723 0.950 . S
H1747 C1725 0.950 1_655 S
C1748 C1749 1.349 . S
C1748 C1750 1.327 . S
C1748 H1773 0.950 . S
C1749 C1748 1.349 . S
C1749 C1765 1.349 . S
C1750 C1748 1.327 . S
C1750 C1769 1.429 . S
C1750 H1774 0.950 . S
C1751 C1768 1.574 . S
C1751 C1770 1.368 1_545 S
C1751 H1775 0.949 . S
H1752 C1756 0.949 . S
C1753 C1754 1.349 . S
C1753 C1755 1.327 . S
C1753 H1776 0.950 . S
C1754 C1753 1.349 . S
C1754 C1766 1.349 . S
C1755 C1753 1.327 . S
C1755 C1771 1.429 . S
C1755 H1777 0.950 . S
C1756 H1752 0.949 . S
C1756 C1764 1.574 . S
C1756 C1772 1.368 1_565 S
H1757 C1765 0.950 1_545 S
H1758 C1763 0.950 . S
H1759 C1764 0.949 . S
H1760 C1766 0.950 . S
H1761 C1767 0.950 1_565 S
H1762 C1768 0.949 . S
C1763 H1758 0.950 . S
C1763 C1765 1.327 1_545 S
C1763 C1769 1.429 1_545 S
C1764 C1756 1.574 . S
C1764 H1759 0.949 . S
C1764 C1770 1.368 . S
C1765 C1749 1.349 . S
C1765 H1757 0.950 1_565 S
C1765 C1763 1.327 1_565 S
C1766 C1754 1.349 . S
C1766 H1760 0.950 . S
C1766 C1767 1.327 . S
C1767 H1761 0.950 1_545 S
C1767 C1766 1.327 . S
C1767 C1771 1.429 . S
C1768 C1751 1.574 . S
C1768 H1762 0.949 . S
C1768 C1772 1.368 . S
C1769 C1750 1.429 . S
C1769 C1763 1.429 1_565 S
C1769 C1770 1.523 . S
C1770 C1751 1.368 1_565 S
C1770 C1764 1.368 . S
C1770 C1769 1.523 . S
C1771 C1755 1.429 . S
C1771 C1767 1.429 . S
C1771 C1772 1.523 . S
C1772 C1756 1.368 1_545 S
C1772 C1768 1.368 . S
C1772 C1771 1.523 . S
H1773 C1748 0.950 . S
H1774 C1750 0.950 . S
H1775 C1751 0.949 . S
H1776 C1753 0.950 . S
H1777 C1755 0.950 . S
C1778 C1779 1.349 . S
C1778 C1780 1.327 . S
C1778 H1803 0.950 . S
C1779 C1778 1.349 . S
C1779 C1795 1.349 . S
C1780 C1778 1.327 . S
C1780 C1799 1.429 . S
C1780 H1804 0.950 . S
C1781 C1798 1.574 . S
C1781 C1800 1.368 . S
C1781 H1805 0.949 . S
H1782 C1786 0.949 . S
C1783 C1784 1.349 . S
C1783 C1785 1.327 . S
C1783 H1806 0.950 . S
C1784 C1783 1.349 . S
C1784 C1796 1.349 . S
C1785 C1783 1.327 . S
C1785 C1801 1.429 . S
C1785 H1807 0.950 . S
C1786 H1782 0.949 . S
C1786 C1794 1.574 . S
C1786 C1802 1.368 . S
H1787 C1795 0.950 . S
H1788 C1793 0.950 . S
H1789 C1794 0.949 . S
H1790 C1796 0.950 . S
H1791 C1797 0.950 . S
H1792 C1798 0.949 . S
C1793 H1788 0.950 . S
C1793 C1795 1.327 . S
C1793 C1799 1.429 . S
C1794 C1786 1.574 . S
C1794 H1789 0.949 . S
C1794 C1800 1.368 . S
C1795 C1779 1.349 . S
C1795 H1787 0.950 . S
C1795 C1793 1.327 . S
C1796 C1784 1.349 . S
C1796 H1790 0.950 . S
C1796 C1797 1.327 . S
C1797 H1791 0.950 . S
C1797 C1796 1.327 . S
C1797 C1801 1.429 . S
C1798 C1781 1.574 . S
C1798 H1792 0.949 . S
C1798 C1802 1.368 . S
C1799 C1780 1.429 . S
C1799 C1793 1.429 . S
C1799 C1800 1.523 . S
C1800 C1781 1.368 . S
C1800 C1794 1.368 . S
C1800 C1799 1.523 . S
C1801 C1785 1.429 . S
C1801 C1797 1.429 . S
C1801 C1802 1.523 . S
C1802 C1786 1.368 . S
C1802 C1798 1.368 . S
C1802 C1801 1.523 . S
H1803 C1778 0.950 . S
H1804 C1780 0.950 . S
H1805 C1781 0.949 . S
H1806 C1783 0.950 . S
H1807 C1785 0.950 . S
C369 C89 0.444 . S
C374 C18 0.434 . S
C399 C20 0.444 . S
C404 C41 0.434 . S
C429 C64 0.434 . S
C434 C43 0.444 . S
C459 C66 0.444 . S
C464 C87 0.434 . S
C489 C110 0.434 . S
C494 C135 0.444 . S
C519 C133 0.434 . S
C524 C158 0.444 . S
C549 C156 0.434 . S
C554 C181 0.444 . S
C579 C112 0.444 . S
C584 C179 0.434 . S
C609 C202 0.434 . S
C614 C273 0.444 . S
C639 C204 0.444 . S
C644 C225 0.434 . S
C669 C227 0.444 . S
C674 C248 0.434 . S
C699 C250 0.444 . S
C704 C271 0.434 . S
C729 C294 0.434 . S
C734 C319 0.444 . S
C759 C342 0.444 . S
C764 C317 0.434 . S
C789 C365 0.444 . S
C794 C340 0.434 . S
C819 C363 0.434 . S
C824 C296 0.444 . S
C849 C17 0.477 . S
C854 C109 0.477 . S
C879 C132 0.477 . S
C884 C40 0.477 . S
C909 C63 0.477 . S
C914 C155 0.477 . S
C939 C86 0.477 . S
C944 C178 0.477 . S
C969 C293 0.477 . S
C974 C201 0.477 . S
C999 C316 0.477 . S
C1004 C224 0.477 . S
C1029 C247 0.477 . S
C1034 C339 0.477 . S
C1059 C362 0.477 . S
C1064 C270 0.477 . S
C1089 C21 1.722 . S
C1094 C67 1.722 . S
C1119 C44 1.722 . S
C1124 C90 1.722 . S
C1149 C159 1.722 . S
C1154 C113 1.722 . S
C1179 C182 1.722 . S
C1184 C136 1.722 . S
C1209 C251 1.722 . S
C1214 C205 1.722 . S
C1239 C274 1.722 . S
C1244 C228 1.722 . S
C1269 C297 1.722 . S
C1274 C343 1.722 . S
C1299 C320 1.722 . S
C1304 C366 1.722 . S
C1329 C200 1.416 . S
C1334 C16 1.416 . S
C1359 C223 1.416 . S
C1364 C39 1.416 . S
C1389 C246 1.416 . S
C1394 C62 1.416 . S
C1419 C85 1.416 . S
C1424 C269 1.416 . S
C1449 C292 1.416 . S
C1454 C108 1.416 . S
C1479 C315 1.416 . S
C1484 C131 1.416 . S
C1509 C338 1.416 . S
C1514 C154 1.416 . S
C1539 C361 1.416 . S
C1544 C177 1.416 . S
C1569 C180 1.522 . S
C1574 C19 1.522 . S
C1599 C111 1.522 . S
C1604 C42 1.522 . S
C1629 C134 1.522 . S
C1634 C65 1.522 . S
C1659 C157 1.522 . S
C1664 C88 1.522 . S
C1689 C364 1.522 . S
C1694 C203 1.522 . S
C1719 C295 1.522 . S
C1724 C226 1.522 . S
C1749 C318 1.522 . S
C1754 C249 1.522 . S
C1779 C272 1.522 . S
C1784 C341 1.522 . S
