# Generated by pormake.
# Topology yfj, (5)-cn, num edge types: 1
# Building blocks:
#     Node 0, Type 0, BuildingBlock: BEQFEK_clean_sbu_0, # of connection points: 5
#     Node 1, Type 0, BuildingBlock: BEQFEK_clean_sbu_0, # of connection points: 5
#     Node 2, Type 0, BuildingBlock: BEQFEK_clean_sbu_0, # of connection points: 5
#     Node 3, Type 0, BuildingBlock: BEQFEK_clean_sbu_0, # of connection points: 5
#     Node 4, Type 0, BuildingBlock: BEQFEK_clean_sbu_0, # of connection points: 5
#     Node 5, Type 0, BuildingBlock: BEQFEK_clean_sbu_0, # of connection points: 5
#     Node 6, Type 0, BuildingBlock: BEQFEK_clean_sbu_0, # of connection points: 5
#     Node 7, Type 0, BuildingBlock: BEQFEK_clean_sbu_0, # of connection points: 5
#     Node 8, Type 0, BuildingBlock: BEQFEK_clean_sbu_0, # of connection points: 5
#     Node 9, Type 0, BuildingBlock: BEQFEK_clean_sbu_0, # of connection points: 5
#     Node 10, Type 0, BuildingBlock: BEQFEK_clean_sbu_0, # of connection points: 5
#     Node 11, Type 0, BuildingBlock: BEQFEK_clean_sbu_0, # of connection points: 5
#     Node 12, Type 0, BuildingBlock: BEQFEK_clean_sbu_0, # of connection points: 5
#     Node 13, Type 0, BuildingBlock: BEQFEK_clean_sbu_0, # of connection points: 5
#     Node 14, Type 0, BuildingBlock: BEQFEK_clean_sbu_0, # of connection points: 5
#     Node 15, Type 0, BuildingBlock: BEQFEK_clean_sbu_0, # of connection points: 5
#     Edge 16, Type (0, 0), BuildingBlock: OJICUG_clean_linker_0, # of connection points: 2
#     Edge 17, Type (0, 0), BuildingBlock: OJICUG_clean_linker_0, # of connection points: 2
#     Edge 18, Type (0, 0), BuildingBlock: OJICUG_clean_linker_0, # of connection points: 2
#     Edge 19, Type (0, 0), BuildingBlock: OJICUG_clean_linker_0, # of connection points: 2
#     Edge 20, Type (0, 0), BuildingBlock: OJICUG_clean_linker_0, # of connection points: 2
#     Edge 21, Type (0, 0), BuildingBlock: OJICUG_clean_linker_0, # of connection points: 2
#     Edge 22, Type (0, 0), BuildingBlock: OJICUG_clean_linker_0, # of connection points: 2
#     Edge 23, Type (0, 0), BuildingBlock: OJICUG_clean_linker_0, # of connection points: 2
#     Edge 24, Type (0, 0), BuildingBlock: OJICUG_clean_linker_0, # of connection points: 2
#     Edge 25, Type (0, 0), BuildingBlock: OJICUG_clean_linker_0, # of connection points: 2
#     Edge 26, Type (0, 0), BuildingBlock: OJICUG_clean_linker_0, # of connection points: 2
#     Edge 27, Type (0, 0), BuildingBlock: OJICUG_clean_linker_0, # of connection points: 2
#     Edge 28, Type (0, 0), BuildingBlock: OJICUG_clean_linker_0, # of connection points: 2
#     Edge 29, Type (0, 0), BuildingBlock: OJICUG_clean_linker_0, # of connection points: 2
#     Edge 30, Type (0, 0), BuildingBlock: OJICUG_clean_linker_0, # of connection points: 2
#     Edge 31, Type (0, 0), BuildingBlock: OJICUG_clean_linker_0, # of connection points: 2
#     Edge 32, Type (0, 0), BuildingBlock: OJICUG_clean_linker_0, # of connection points: 2
#     Edge 33, Type (0, 0), BuildingBlock: OJICUG_clean_linker_0, # of connection points: 2
#     Edge 34, Type (0, 0), BuildingBlock: OJICUG_clean_linker_0, # of connection points: 2
#     Edge 35, Type (0, 0), BuildingBlock: OJICUG_clean_linker_0, # of connection points: 2
#     Edge 36, Type (0, 0), BuildingBlock: OJICUG_clean_linker_0, # of connection points: 2
#     Edge 37, Type (0, 0), BuildingBlock: OJICUG_clean_linker_0, # of connection points: 2
#     Edge 38, Type (0, 0), BuildingBlock: OJICUG_clean_linker_0, # of connection points: 2
#     Edge 39, Type (0, 0), BuildingBlock: OJICUG_clean_linker_0, # of connection points: 2
#     Edge 40, Type (0, 0), BuildingBlock: OJICUG_clean_linker_0, # of connection points: 2
#     Edge 41, Type (0, 0), BuildingBlock: OJICUG_clean_linker_0, # of connection points: 2
#     Edge 42, Type (0, 0), BuildingBlock: OJICUG_clean_linker_0, # of connection points: 2
#     Edge 43, Type (0, 0), BuildingBlock: OJICUG_clean_linker_0, # of connection points: 2
#     Edge 44, Type (0, 0), BuildingBlock: OJICUG_clean_linker_0, # of connection points: 2
#     Edge 45, Type (0, 0), BuildingBlock: OJICUG_clean_linker_0, # of connection points: 2
#     Edge 46, Type (0, 0), BuildingBlock: OJICUG_clean_linker_0, # of connection points: 2
#     Edge 47, Type (0, 0), BuildingBlock: OJICUG_clean_linker_0, # of connection points: 2
#     Edge 48, Type (0, 0), BuildingBlock: OJICUG_clean_linker_0, # of connection points: 2
#     Edge 49, Type (0, 0), BuildingBlock: OJICUG_clean_linker_0, # of connection points: 2
#     Edge 50, Type (0, 0), BuildingBlock: OJICUG_clean_linker_0, # of connection points: 2
#     Edge 51, Type (0, 0), BuildingBlock: OJICUG_clean_linker_0, # of connection points: 2
#     Edge 52, Type (0, 0), BuildingBlock: OJICUG_clean_linker_0, # of connection points: 2
#     Edge 53, Type (0, 0), BuildingBlock: OJICUG_clean_linker_0, # of connection points: 2
#     Edge 54, Type (0, 0), BuildingBlock: OJICUG_clean_linker_0, # of connection points: 2
#     Edge 55, Type (0, 0), BuildingBlock: OJICUG_clean_linker_0, # of connection points: 2
# Relax obj value: 0.532
# Max RMSD: 0.234
# Mean RMSD: 0.234
data_MOF--net-yfj--node1-BEQFEK_clean_sbu_0--edge1-OJICUG_clean_linker_0
_symmetry_space_group_name_H-M    P1
_symmetry_Int_Tables_number       1
_symmetry_cell_setting            triclinic
loop_
_symmetry_equiv_pos_as_xyz
'x, y, z'
_cell_length_a     34.729314
_cell_length_b     34.69934
_cell_length_c     38.0104
_cell_angle_alpha  89.984013
_cell_angle_beta   90.010557
_cell_angle_gamma 89.994875
loop_
_atom_site_label
_atom_site_type_symbol
_atom_site_fract_x
_atom_site_fract_y
_atom_site_fract_z
_atom_type_partial_charge
Co0 Co 0.09137 0.14398 0.38803 0.0
Co1 Co 0.12631 0.15363 0.31207 0.0
C2 C 0.17329 0.11951 0.36708 0.0
O3 O 0.14551 0.12516 0.38829 0.0
O4 O 0.17027 0.12805 0.33466 0.0
C5 C 0.08126 0.0943 0.44587 0.0
O6 O 0.1011 0.07134 0.42521 0.0
C7 C 0.16438 0.14293 0.24261 0.0
C8 C 0.1263 0.17518 0.2066 0.0
C9 C 0.15899 0.15234 0.20733 0.0
N10 N 0.13585 0.15883 0.26179 0.0
N11 N 0.11326 0.17816 0.23999 0.0
C12 C 0.19748 0.12127 0.2583 0.0
H13 H 0.18672 0.0945 0.27089 0.0
H14 H 0.21974 0.11394 0.23853 0.0
H15 H 0.21103 0.13929 0.27896 0.0
C16 C 0.0338 0.10098 0.35123 0.0
N17 N 0.0637 0.12514 0.34973 0.0
N18 N 0.0815 0.12152 0.3195 0.0
C19 C 0.06552 0.09143 0.30209 0.0
C20 C 0.03476 0.07675 0.32197 0.0
C21 C 0.0042 0.1029 0.37994 0.0
H22 H -0.00018 0.13335 0.38795 0.0
H23 H 0.0144 0.0871 0.40347 0.0
H24 H 0.97638 0.09047 0.37109 0.0
O25 O 0.09309 0.19895 0.38654 0.0
O26 O 0.12382 0.20769 0.33571 0.0
H27 H 0.06584 0.08054 0.24681 0.0
H28 H 0.08418 0.04152 0.27312 0.0
C29 C 0.08337 0.07334 0.27032 0.0
H30 H 0.11305 0.08413 0.26635 0.0
H31 H 0.08871 0.19318 0.24785 0.0
O32 O 0.07054 0.12697 0.43415 0.0
C33 C 0.10946 0.22089 0.36445 0.0
Co34 Co 0.85477 0.59125 0.63753 0.0
Co35 Co 0.84566 0.62651 0.56165 0.0
C36 C 0.87941 0.67332 0.61688 0.0
O37 O 0.87355 0.64546 0.638 0.0
O38 O 0.87119 0.67039 0.58439 0.0
C39 C 0.90403 0.58093 0.69561 0.0
O40 O 0.92709 0.6009 0.67515 0.0
C41 C 0.8566 0.66486 0.49233 0.0
C42 C 0.82514 0.62647 0.45603 0.0
C43 C 0.84764 0.6594 0.45697 0.0
N44 N 0.84077 0.63615 0.51136 0.0
N45 N 0.82191 0.61337 0.48938 0.0
C46 C 0.87779 0.69815 0.50822 0.0
H47 H 0.8596 0.71134 0.52894 0.0
H48 H 0.90467 0.68764 0.52075 0.0
H49 H 0.88482 0.72066 0.48857 0.0
C50 C 0.89796 0.53374 0.60081 0.0
N51 N 0.87382 0.56366 0.59926 0.0
N52 N 0.87764 0.58162 0.56912 0.0
C53 C 0.90784 0.56572 0.55183 0.0
C54 C 0.92238 0.53484 0.57169 0.0
C55 C 0.89586 0.50399 0.62941 0.0
H56 H 0.86538 0.49957 0.63724 0.0
H57 H 0.91149 0.51412 0.65306 0.0
H58 H 0.90836 0.47619 0.62055 0.0
O59 O 0.79985 0.59304 0.6358 0.0
O60 O 0.79155 0.62419 0.58512 0.0
H61 H 0.91911 0.56642 0.49662 0.0
H62 H 0.95792 0.58458 0.52325 0.0
C63 C 0.92615 0.5838 0.52026 0.0
H64 H 0.9154 0.61353 0.51639 0.0
H65 H 0.80708 0.58864 0.49711 0.0
O66 O 0.87149 0.57023 0.68367 0.0
C67 C 0.77812 0.60972 0.61373 0.0
Co68 Co 0.40632 0.35779 0.889 0.0
Co69 Co 0.37181 0.34792 0.81288 0.0
C70 C 0.32396 0.38058 0.86802 0.0
O71 O 0.35177 0.3753 0.88928 0.0
O72 O 0.3273 0.37252 0.83552 0.0
C73 C 0.41513 0.40708 0.94728 0.0
O74 O 0.39474 0.42976 0.9268 0.0
C75 C 0.33376 0.35844 0.7434 0.0
C76 C 0.37257 0.32723 0.70731 0.0
C77 C 0.33948 0.34948 0.70808 0.0
N78 N 0.36248 0.34286 0.76257 0.0
N79 N 0.38552 0.32415 0.74072 0.0
C80 C 0.30026 0.37941 0.75913 0.0
H81 H 0.28697 0.36101 0.77965 0.0
H82 H 0.31052 0.40627 0.77188 0.0
H83 H 0.27792 0.38648 0.73934 0.0
C84 C 0.46319 0.40218 0.85243 0.0
N85 N 0.4336 0.37765 0.8509 0.0
N86 N 0.41604 0.38073 0.82049 0.0
C87 C 0.43189 0.41077 0.80289 0.0
C88 C 0.4623 0.42599 0.82287 0.0
C89 C 0.49236 0.40112 0.88154 0.0
H90 H 0.49697 0.37088 0.89009 0.0
H91 H 0.48158 0.41724 0.90467 0.0
H92 H 0.52016 0.41372 0.87287 0.0
O93 O 0.4058 0.30276 0.88714 0.0
O94 O 0.37515 0.29383 0.8363 0.0
H95 H 0.43164 0.42023 0.74739 0.0
H96 H 0.41372 0.46013 0.77282 0.0
C97 C 0.41422 0.42824 0.77073 0.0
H98 H 0.38442 0.41767 0.76701 0.0
H99 H 0.41031 0.30952 0.74857 0.0
O100 O 0.42668 0.37483 0.93529 0.0
C101 C 0.38974 0.28069 0.86497 0.0
Co102 Co 0.64279 0.90754 0.1384 0.0
Co103 Co 0.65277 0.87317 0.06225 0.0
C104 C 0.6196 0.82531 0.11715 0.0
O105 O 0.62492 0.85307 0.13847 0.0
O106 O 0.6279 0.82866 0.0847 0.0
C107 C 0.59321 0.91646 0.19643 0.0
O108 O 0.57054 0.89635 0.17572 0.0
C109 C 0.64222 0.83552 0.99257 0.0
C110 C 0.67462 0.8738 0.95686 0.0
C111 C 0.65176 0.84111 0.95735 0.0
N112 N 0.65808 0.86393 1.01193 0.0
N113 N 0.67749 0.88665 0.99031 0.0
C114 C 0.62047 0.80234 1.00804 0.0
H115 H 0.5939 0.81312 1.02092 0.0
H116 H 0.61286 0.78036 0.98809 0.0
H117 H 0.63855 0.7884 0.02844 0.0
C118 C 0.59891 0.96479 0.10188 0.0
N119 N 0.62333 0.9351 0.10029 0.0
N120 N 0.62012 0.91757 0.06988 0.0
C121 C 0.5901 0.93354 0.05236 0.0
C122 C 0.575 0.96398 0.0724 0.0
C123 C 0.60019 0.99402 0.13095 0.0
H124 H 0.63047 0.99857 0.13935 0.0
H125 H 0.58419 0.98332 0.15418 0.0
H126 H 0.58761 0.02187 0.1223 0.0
O127 O 0.69775 0.90672 0.13676 0.0
O128 O 0.70675 0.87626 0.08584 0.0
H129 H 0.5801 0.93369 0.99694 0.0
H130 H 0.54067 0.91517 0.02257 0.0
C131 C 0.5725 0.91597 1.02022 0.0
H132 H 0.58331 0.88629 1.0162 0.0
H133 H 0.69251 0.91115 0.99834 0.0
O134 O 0.62561 0.92782 0.18468 0.0
C135 C 0.71983 0.8907 0.11459 0.0
Co136 Co 0.09105 0.35335 0.90469 0.0
Co137 Co 0.12586 0.34371 0.98071 0.0
C138 C 0.17292 0.37785 0.92576 0.0
O139 O 0.14518 0.3722 0.90451 0.0
O140 O 0.16986 0.36928 0.95818 0.0
C141 C 0.08103 0.40303 0.84684 0.0
O142 O 0.10078 0.426 0.86756 0.0
C143 C 0.16372 0.3546 0.05026 0.0
C144 C 0.12575 0.32212 0.08617 0.0
C145 C 0.1583 0.34515 0.08553 0.0
N146 N 0.13534 0.33854 0.03101 0.0
N147 N 0.11281 0.31907 0.05276 0.0
C148 C 0.19672 0.37648 0.03465 0.0
H149 H 0.18581 0.40312 0.02195 0.0
H150 H 0.21883 0.38403 0.0545 0.0
H151 H 0.2105 0.3585 1.01409 0.0
C152 C 0.03339 0.39632 0.94138 0.0
N153 N 0.06331 0.3722 0.94294 0.0
N154 N 0.08106 0.37582 0.9732 0.0
C155 C 0.065 0.40589 0.99059 0.0
C156 C 0.03427 0.42055 0.97064 0.0
C157 C 0.00384 0.39437 0.91262 0.0
H158 H -0.00049 0.36391 0.9046 0.0
H159 H 0.01407 0.41018 0.88911 0.0
H160 H 0.97599 0.40678 0.92142 0.0
O161 O 0.09279 0.29839 0.9062 0.0
O162 O 0.12336 0.28963 0.95711 0.0
H163 H 0.06518 0.41677 0.04587 0.0
H164 H 0.08356 0.45581 1.01961 0.0
C165 C 0.08276 0.42399 0.0224 0.0
H166 H 0.11243 0.41322 0.02644 0.0
H167 H 0.08837 0.30391 0.04483 0.0
O168 O 0.0703 0.37035 0.85853 0.0
C169 C 0.10906 0.27643 0.92834 0.0
Co170 Co 0.64137 0.59139 0.15341 0.0
Co171 Co 0.65155 0.62571 0.22959 0.0
C172 C 0.61883 0.6738 0.17457 0.0
O173 O 0.62396 0.646 0.15326 0.0
O174 O 0.62704 0.67038 0.20703 0.0
C175 C 0.59189 0.58284 0.09528 0.0
O176 O 0.56933 0.60315 0.11592 0.0
C177 C 0.64107 0.66352 0.29918 0.0
C178 C 0.67286 0.62491 0.33507 0.0
C179 C 0.65031 0.65782 0.33445 0.0
N180 N 0.65678 0.63496 0.2799 0.0
N181 N 0.67584 0.61205 0.30163 0.0
C182 C 0.6197 0.69689 0.2836 0.0
H183 H 0.63796 0.71058 0.2632 0.0
H184 H 0.59304 0.68636 0.2707 0.0
H185 H 0.61228 0.71901 0.30349 0.0
C186 C 0.59704 0.53445 0.18998 0.0
N187 N 0.62158 0.56404 0.19151 0.0
N188 N 0.61863 0.58151 0.22197 0.0
C189 C 0.58868 0.56561 0.23962 0.0
C190 C 0.57336 0.53526 0.21961 0.0
C191 C 0.59799 0.50533 0.16081 0.0
H192 H 0.62818 0.50073 0.15218 0.0
H193 H 0.58181 0.51619 0.13774 0.0
H194 H 0.58541 0.47748 0.16946 0.0
O195 O 0.69636 0.59176 0.15519 0.0
O196 O 0.70553 0.62217 0.20612 0.0
H197 H 0.5794 0.56557 0.29514 0.0
H198 H 0.5395 0.58376 0.26988 0.0
C199 C 0.57137 0.58317 0.27189 0.0
H200 H 0.58203 0.61293 0.27571 0.0
H201 H 0.69065 0.58739 0.29368 0.0
O202 O 0.62415 0.57119 0.10712 0.0
C203 C 0.71854 0.60761 0.17739 0.0
Co204 Co 0.40629 0.14175 0.40444 0.0
Co205 Co 0.37143 0.15108 0.48045 0.0
C206 C 0.32411 0.11797 0.42519 0.0
O207 O 0.35193 0.12358 0.40401 0.0
O208 O 0.32725 0.12606 0.45769 0.0
C209 C 0.41587 0.09257 0.34621 0.0
O210 O 0.39572 0.06964 0.36666 0.0
C211 C 0.33327 0.14012 0.54981 0.0
C212 C 0.37192 0.17125 0.58611 0.0
C213 C 0.3389 0.14889 0.58518 0.0
N214 N 0.36196 0.15589 0.53076 0.0
N215 N 0.3849 0.17456 0.55273 0.0
C216 C 0.29986 0.11911 0.53394 0.0
H217 H 0.28665 0.13748 0.51335 0.0
H218 H 0.31021 0.09225 0.52125 0.0
H219 H 0.27743 0.11203 0.55364 0.0
C220 C 0.46348 0.09789 0.44104 0.0
N221 N 0.43372 0.12221 0.4426 0.0
N222 N 0.41598 0.11869 0.47287 0.0
C223 C 0.43187 0.08854 0.49028 0.0
C224 C 0.46251 0.07371 0.47036 0.0
C225 C 0.49293 0.09955 0.41219 0.0
H226 H 0.49741 0.12994 0.40404 0.0
H227 H 0.48251 0.08369 0.38878 0.0
H228 H 0.52074 0.08701 0.42095 0.0
O229 O 0.40512 0.19675 0.40634 0.0
O230 O 0.37427 0.20527 0.45712 0.0
H231 H 0.43137 0.0781 0.54564 0.0
H232 H 0.41343 0.03872 0.51956 0.0
C233 C 0.41401 0.07057 0.52212 0.0
H234 H 0.38424 0.08117 0.52589 0.0
H235 H 0.40966 0.1893 0.54499 0.0
O236 O 0.42697 0.12497 0.35821 0.0
C237 C 0.38879 0.21862 0.4285 0.0
Co238 Co 0.85439 0.90603 0.6547 0.0
Co239 Co 0.84507 0.87077 0.73057 0.0
C240 C 0.87902 0.82398 0.67538 0.0
O241 O 0.87324 0.85185 0.65425 0.0
O242 O 0.87063 0.8269 0.70783 0.0
C243 C 0.90379 0.91642 0.59676 0.0
O244 O 0.92682 0.89649 0.61729 0.0
C245 C 0.85596 0.83237 0.79987 0.0
C246 C 0.82444 0.87071 0.83616 0.0
C247 C 0.84697 0.8378 0.83523 0.0
N248 N 0.84013 0.86108 0.78085 0.0
N249 N 0.82123 0.88383 0.80282 0.0
C250 C 0.87719 0.7991 0.78399 0.0
H251 H 0.85903 0.7859 0.76325 0.0
H252 H 0.90407 0.80964 0.77148 0.0
H253 H 0.88424 0.77659 0.80364 0.0
C254 C 0.89746 0.96354 0.69154 0.0
N255 N 0.87332 0.93362 0.69302 0.0
N256 N 0.87708 0.91566 0.72317 0.0
C257 C 0.90724 0.93155 0.74053 0.0
C258 C 0.92182 0.96244 0.72071 0.0
C259 C 0.89539 0.99331 0.66295 0.0
H260 H 0.86493 0.99773 0.65506 0.0
H261 H 0.91107 0.98322 0.63932 0.0
H262 H 0.90785 0.02111 0.67185 0.0
O263 O 0.79947 0.90423 0.65631 0.0
O264 O 0.79098 0.8732 0.70704 0.0
H265 H 0.91839 0.93084 0.79577 0.0
H266 H 0.95726 0.9127 0.76921 0.0
C267 C 0.92549 0.91347 0.77214 0.0
H268 H 0.91475 0.88373 0.77598 0.0
H269 H 0.80638 0.90856 0.79509 0.0
O270 O 0.87119 0.92708 0.6086 0.0
C271 C 0.77766 0.88766 0.67838 0.0
Co272 Co 0.59121 0.64501 0.88752 0.0
Co273 Co 0.62622 0.65444 0.81158 0.0
C274 C 0.67303 0.62013 0.8666 0.0
O275 O 0.64526 0.62593 0.88779 0.0
O276 O 0.67007 0.62869 0.83417 0.0
C277 C 0.58088 0.59537 0.94534 0.0
O278 O 0.6006 0.57232 0.92466 0.0
C279 C 0.66421 0.64347 0.7421 0.0
C280 C 0.62627 0.67587 0.70609 0.0
C281 C 0.65884 0.65286 0.70682 0.0
N282 N 0.63578 0.65955 0.76128 0.0
N283 N 0.61327 0.67897 0.73948 0.0
C284 C 0.6972 0.62164 0.7578 0.0
H285 H 0.71087 0.63961 0.77843 0.0
H286 H 0.68631 0.59495 0.77042 0.0
H287 H 0.7194 0.61417 0.73801 0.0
C288 C 0.53349 0.60222 0.85077 0.0
N289 N 0.56345 0.6263 0.84922 0.0
N290 N 0.5813 0.6225 0.81904 0.0
C291 C 0.56529 0.59235 0.80172 0.0
C292 C 0.53446 0.57783 0.82162 0.0
C293 C 0.50382 0.60437 0.8794 0.0
H294 H 0.49948 0.63488 0.88725 0.0
H295 H 0.51392 0.58869 0.90304 0.0
H296 H 0.476 0.59194 0.87055 0.0
O297 O 0.59318 0.69996 0.88601 0.0
O298 O 0.62393 0.70854 0.83518 0.0
H299 H 0.56564 0.58106 0.74651 0.0
H300 H 0.58402 0.54226 0.77307 0.0
C301 C 0.58318 0.57406 0.77007 0.0
H302 H 0.61284 0.58485 0.76604 0.0
H303 H 0.58881 0.69413 0.74734 0.0
O304 O 0.57031 0.62809 0.93364 0.0
C305 C 0.60963 0.72183 0.86391 0.0
Co306 Co 0.35546 0.09213 0.1381 0.0
Co307 Co 0.34608 0.12735 0.06221 0.0
C308 C 0.37967 0.17431 0.11747 0.0
O309 O 0.37399 0.14642 0.13859 0.0
O310 O 0.3714 0.17134 0.08499 0.0
C311 C 0.40477 0.08205 0.19617 0.0
O312 O 0.42772 0.10214 0.17572 0.0
C313 C 0.35688 0.1658 0.99293 0.0
C314 C 0.32564 0.12729 0.95658 0.0
C315 C 0.348 0.16031 0.95756 0.0
N316 N 0.34115 0.13702 1.01193 0.0
N317 N 0.32242 0.11417 0.98993 0.0
C318 C 0.37793 0.19917 1.00885 0.0
H319 H 0.40484 0.18876 0.02139 0.0
H320 H 0.38488 0.22172 0.98921 0.0
H321 H 0.35967 0.21227 0.02957 0.0
C322 C 0.39889 0.03483 0.1013 0.0
N323 N 0.37464 0.06467 0.09981 0.0
N324 N 0.37826 0.08259 0.06963 0.0
C325 C 0.40842 0.06676 0.05223 0.0
C326 C 0.42315 0.03595 0.07206 0.0
C327 C 0.39708 0.00515 0.12998 0.0
H328 H 0.36667 0.00065 0.13799 0.0
H329 H 0.41283 0.01539 0.15351 0.0
H330 H 0.4096 0.97737 0.12111 0.0
O331 O 0.30052 0.09365 0.13638 0.0
O332 O 0.29198 0.1247 0.08567 0.0
H333 H 0.41921 0.0675 0.99694 0.0
H334 H 0.45831 0.08552 0.02331 0.0
C335 C 0.42651 0.08483 1.02055 0.0
H336 H 0.41581 0.1146 1.01679 0.0
H337 H 0.30769 0.08936 0.99763 0.0
O338 O 0.37228 0.07117 0.18423 0.0
C339 C 0.27867 0.11016 0.1143 0.0
Co340 Co 0.90648 0.8567 0.3885 0.0
Co341 Co 0.8719 0.84707 0.3124 0.0
C342 C 0.8242 0.87986 0.36755 0.0
O343 O 0.852 0.87444 0.3888 0.0
O344 O 0.82748 0.8718 0.33505 0.0
C345 C 0.91549 0.90596 0.44676 0.0
O346 O 0.89522 0.92872 0.42625 0.0
C347 C 0.83395 0.85786 0.24291 0.0
C348 C 0.87259 0.82645 0.20681 0.0
C349 C 0.83964 0.84889 0.20758 0.0
N350 N 0.86257 0.8421 0.26208 0.0
N351 N 0.8855 0.82327 0.24023 0.0
C352 C 0.80056 0.87902 0.25863 0.0
H353 H 0.78712 0.86068 0.27911 0.0
H354 H 0.81097 0.90579 0.27144 0.0
H355 H 0.77829 0.88628 0.23882 0.0
C356 C 0.96348 0.90093 0.352 0.0
N357 N 0.93384 0.87647 0.35041 0.0
N358 N 0.91624 0.87974 0.32004 0.0
C359 C 0.93211 0.90983 0.30254 0.0
C360 C 0.96258 0.92491 0.32254 0.0
C361 C 0.99273 0.89965 0.38104 0.0
H362 H 0.9973 0.86934 0.38943 0.0
H363 H 0.98206 0.91565 0.40427 0.0
H364 H 0.02054 0.91224 0.37237 0.0
O365 O 0.90576 0.80169 0.3866 0.0
O366 O 0.87507 0.79294 0.33576 0.0
H367 H 0.93187 0.91971 0.2471 0.0
H368 H 0.91387 0.95938 0.27277 0.0
C369 C 0.91442 0.92751 0.27049 0.0
H370 H 0.88465 0.9169 0.26669 0.0
H371 H 0.91021 0.80849 0.24808 0.0
O372 O 0.9269 0.87365 0.43479 0.0
C373 C 0.88962 0.7797 0.36442 0.0
Co374 Co 0.14215 0.40673 0.63892 0.0
Co375 Co 0.15241 0.3724 0.56277 0.0
C376 C 0.11944 0.32438 0.6177 0.0
O377 O 0.12458 0.35218 0.63902 0.0
O378 O 0.12777 0.32777 0.58527 0.0
C379 C 0.09253 0.41541 0.69693 0.0
O380 O 0.06998 0.39517 0.67624 0.0
C381 C 0.14198 0.33464 0.49313 0.0
C382 C 0.17414 0.37305 0.45736 0.0
C383 C 0.15142 0.34027 0.4579 0.0
N384 N 0.15775 0.36313 0.51246 0.0
N385 N 0.17702 0.38592 0.4908 0.0
C386 C 0.12038 0.30139 0.50864 0.0
H387 H 0.09378 0.31207 0.52154 0.0
H388 H 0.11283 0.27936 0.48871 0.0
H389 H 0.13853 0.28754 0.52904 0.0
C390 C 0.09799 0.46374 0.60232 0.0
N391 N 0.12253 0.43415 0.60079 0.0
N392 N 0.11953 0.41665 0.57034 0.0
C393 C 0.08954 0.43253 0.55272 0.0
C394 C 0.07424 0.46289 0.57273 0.0
C395 C 0.09897 0.4929 0.63145 0.0
H396 H 0.12918 0.49754 0.64003 0.0
H397 H 0.08285 0.48208 0.65456 0.0
H398 H 0.08635 0.52073 0.62279 0.0
O399 O 0.19713 0.40622 0.63727 0.0
O400 O 0.20636 0.37584 0.58634 0.0
H401 H 0.08004 0.43262 0.49723 0.0
H402 H 0.04032 0.41426 0.52259 0.0
C403 C 0.07217 0.41496 0.52048 0.0
H404 H 0.08292 0.38524 0.51658 0.0
H405 H 0.19194 0.4105 0.4988 0.0
O406 O 0.12487 0.42696 0.68518 0.0
C407 C 0.21933 0.39036 0.61511 0.0
Co408 Co 0.5911 0.85442 0.40421 0.0
Co409 Co 0.6258 0.84446 0.48025 0.0
C410 C 0.67313 0.87828 0.42533 0.0
O411 O 0.64536 0.87282 0.40406 0.0
O412 O 0.66998 0.86977 0.45775 0.0
C413 C 0.58153 0.90416 0.34634 0.0
O414 O 0.60148 0.92697 0.36705 0.0
C415 C 0.66369 0.85501 0.54983 0.0
C416 C 0.62561 0.82255 0.58566 0.0
C417 C 0.65825 0.84546 0.58507 0.0
N418 N 0.63524 0.83913 0.53055 0.0
N419 N 0.61264 0.81967 0.55224 0.0
C420 C 0.69677 0.87681 0.53426 0.0
H421 H 0.71053 0.8588 0.51371 0.0
H422 H 0.68596 0.90349 0.52156 0.0
H423 H 0.71889 0.88428 0.55413 0.0
C424 C 0.53372 0.8978 0.44094 0.0
N425 N 0.5635 0.87349 0.44246 0.0
N426 N 0.58119 0.87685 0.47278 0.0
C427 C 0.56523 0.9069 0.49028 0.0
C428 C 0.53463 0.92183 0.47034 0.0
C429 C 0.50431 0.89627 0.41205 0.0
H430 H 0.49983 0.86591 0.40379 0.0
H431 H 0.51476 0.91222 0.38869 0.0
H432 H 0.4765 0.90879 0.42081 0.0
O433 O 0.59241 0.79943 0.40571 0.0
O434 O 0.62301 0.79046 0.45657 0.0
H435 H 0.56536 0.91724 0.54564 0.0
H436 H 0.58373 0.95654 0.51972 0.0
C437 C 0.58295 0.9247 0.52225 0.0
H438 H 0.61263 0.9139 0.52622 0.0
H439 H 0.58815 0.80463 0.54428 0.0
O440 O 0.57051 0.87159 0.35803 0.0
C441 C 0.60861 0.77736 0.42781 0.0
Co442 Co 0.14179 0.09048 0.65396 0.0
Co443 Co 0.15183 0.12483 0.73013 0.0
C444 C 0.11905 0.17286 0.67514 0.0
O445 O 0.12428 0.14507 0.65384 0.0
O446 O 0.1272 0.16946 0.70762 0.0
C447 C 0.09232 0.08188 0.59581 0.0
O448 O 0.06973 0.10216 0.61644 0.0
C449 C 0.14137 0.16256 0.79977 0.0
C450 C 0.17345 0.12408 0.83556 0.0
C451 C 0.15078 0.15691 0.83501 0.0
N452 N 0.15711 0.13405 0.78044 0.0
N453 N 0.17634 0.11122 0.80212 0.0
C454 C 0.11983 0.19586 0.78425 0.0
H455 H 0.09321 0.18523 0.77135 0.0
H456 H 0.11233 0.2179 0.80418 0.0
H457 H 0.13801 0.20967 0.76386 0.0
C458 C 0.09749 0.0335 0.69045 0.0
N459 N 0.12205 0.06307 0.69205 0.0
N460 N 0.11899 0.08058 0.72248 0.0
C461 C 0.08895 0.0647 0.74004 0.0
C462 C 0.07368 0.03436 0.71999 0.0
C463 C 0.09851 0.00436 0.66131 0.0
H464 H 0.12873 -0.00031 0.65279 0.0
H465 H 0.08244 0.01522 0.63817 0.0
H466 H 0.08584 0.97654 0.66993 0.0
O467 O 0.19677 0.09096 0.65573 0.0
O468 O 0.2058 0.1215 0.70661 0.0
H469 H 0.07932 0.06462 0.79551 0.0
H470 H 0.03966 0.08301 0.77006 0.0
C471 C 0.07151 0.08229 0.77224 0.0
H472 H 0.08227 0.112 0.77616 0.0
H473 H 0.19122 0.08663 0.79412 0.0
O474 O 0.1246 0.07029 0.60766 0.0
C475 C 0.21887 0.10696 0.6779 0.0
Co476 Co 0.90616 0.64061 0.9039 0.0
Co477 Co 0.87142 0.65026 0.97994 0.0
C478 C 0.82385 0.61743 0.92471 0.0
O479 O 0.85169 0.62285 0.90352 0.0
O480 O 0.82707 0.62548 0.95722 0.0
C481 C 0.9153 0.59135 0.84565 0.0
O482 O 0.89497 0.56859 0.86609 0.0
C483 C 0.83323 0.63965 0.04933 0.0
C484 C 0.87197 0.6708 0.08553 0.0
C485 C 0.83888 0.64856 0.08467 0.0
N486 N 0.86199 0.65525 0.03023 0.0
N487 N 0.88498 0.67392 0.05215 0.0
C488 C 0.79975 0.61871 0.03351 0.0
H489 H 0.78656 0.6371 1.01292 0.0
H490 H 0.81003 0.59181 1.02083 0.0
H491 H 0.77733 0.6117 0.05323 0.0
C492 C 0.96309 0.59639 0.94054 0.0
N493 N 0.93346 0.62087 0.94206 0.0
N494 N 0.91579 0.61762 0.97239 0.0
C495 C 0.9316 0.5875 0.98992 0.0
C496 C 0.9621 0.57241 0.96999 0.0
C497 C 0.9924 0.59763 0.91156 0.0
H498 H 0.99701 0.62793 0.90317 0.0
H499 H 0.98175 0.58164 0.8883 0.0
H500 H 0.02017 0.585 0.92028 0.0
O501 O 0.90538 0.69563 0.90577 0.0
O502 O 0.87455 0.70437 0.95653 0.0
H503 H 0.93117 0.57761 0.04536 0.0
H504 H 0.91324 0.53795 1.01963 0.0
C505 C 0.91379 0.56982 0.02192 0.0
H506 H 0.88401 0.58044 0.02563 0.0
H507 H 0.90979 0.68856 0.04437 0.0
O508 O 0.92668 0.62365 0.85766 0.0
C509 C 0.88914 0.71761 0.9279 0.0
Co510 Co 0.35403 0.40696 0.15526 0.0
Co511 Co 0.34483 0.37165 0.23111 0.0
C512 C 0.37891 0.32496 0.17597 0.0
O513 O 0.37303 0.35282 0.15485 0.0
O514 O 0.37054 0.32785 0.20843 0.0
C515 C 0.40341 0.41742 0.0973 0.0
O516 O 0.42649 0.39753 0.11782 0.0
C517 C 0.35571 0.33334 0.30047 0.0
C518 C 0.32385 0.37153 0.33665 0.0
C519 C 0.34654 0.33873 0.3358 0.0
N520 N 0.33982 0.36198 0.28139 0.0
N521 N 0.32073 0.38464 0.3033 0.0
C522 C 0.37714 0.30016 0.28466 0.0
H523 H 0.40398 0.31082 0.27217 0.0
H524 H 0.38429 0.27772 0.30435 0.0
H525 H 0.35908 0.28684 0.26392 0.0
C526 C 0.397 0.46453 0.19204 0.0
N527 N 0.37285 0.43462 0.19358 0.0
N528 N 0.37673 0.41662 0.2237 0.0
C529 C 0.40697 0.43247 0.24097 0.0
C530 C 0.42149 0.46336 0.22112 0.0
C531 C 0.39487 0.49433 0.16349 0.0
H532 H 0.36438 0.49881 0.15572 0.0
H533 H 0.41042 0.48423 0.13979 0.0
H534 H 0.40743 0.52209 0.17237 0.0
O535 O 0.29912 0.40499 0.15683 0.0
O536 O 0.29076 0.37386 0.20752 0.0
H537 H 0.41849 0.43178 0.29614 0.0
H538 H 0.45711 0.41347 0.26939 0.0
C539 C 0.42535 0.41435 0.27249 0.0
H540 H 0.41452 0.38466 0.27641 0.0
H541 H 0.30578 0.40929 0.29552 0.0
O542 O 0.3708 0.42802 0.10915 0.0
C543 C 0.27737 0.38829 0.17886 0.0
C544 C 0.1028 0.05816 0.49927 0.0
C545 C 0.07832 0.08573 0.48389 0.0
H546 H 0.1265 0.03528 0.54695 0.0
C547 C 0.05456 0.10804 0.50576 0.0
H548 H 0.12143 0.04042 0.48314 0.0
C549 C 0.05713 0.10469 0.54233 0.0
C550 C 0.08395 0.07941 0.55773 0.0
H551 H 0.0352 0.1293 0.49467 0.0
H552 H 0.03975 0.12365 0.55846 0.0
C553 C 0.10582 0.05525 0.53585 0.0
C554 C 0.94233 0.60518 0.7859 0.0
C555 C 0.91809 0.58315 0.80755 0.0
H556 H 0.9575 0.62108 0.73334 0.0
C557 C 0.89301 0.55631 0.79192 0.0
H558 H 0.96215 0.62588 0.79719 0.0
C559 C 0.88995 0.55389 0.75532 0.0
C560 C 0.91234 0.57782 0.73367 0.0
H561 H 0.874 0.5388 0.80788 0.0
H562 H 0.86884 0.53452 0.74403 0.0
C563 C 0.93971 0.60232 0.74929 0.0
C564 C 0.3894 0.44443 0.03756 0.0
C565 C 0.41181 0.42057 0.05926 0.0
H566 H 0.37354 0.45949 0.98496 0.0
C567 C 0.43931 0.39616 0.0437 0.0
H568 H 0.36819 0.46373 0.04879 0.0
C569 C 0.44205 0.39332 1.0071 0.0
C570 C 0.41778 0.41529 0.98539 0.0
H571 H 0.45712 0.37746 0.0597 0.0
H572 H 0.46196 0.3727 0.99586 0.0
C573 C 0.39257 0.44204 1.00096 0.0
C574 C 0.60353 0.94012 0.293 0.0
C575 C 0.57878 0.91275 0.3083 0.0
H576 H 0.62757 0.9628 0.2454 0.0
C577 C 0.55494 0.89061 0.28636 0.0
H578 H 0.62223 0.95772 0.30918 0.0
C579 C 0.55767 0.89393 0.24979 0.0
C580 C 0.58473 0.919 0.23448 0.0
H581 H 0.53538 0.86951 0.29739 0.0
H582 H 0.5402 0.8751 0.23361 0.0
C583 C 0.6067 0.943 0.25643 0.0
C584 C 0.10586 0.44205 0.75693 0.0
C585 C 0.08406 0.4179 0.73499 0.0
H586 H 0.12132 0.45688 0.80967 0.0
C587 C 0.05718 0.39263 0.75032 0.0
H588 H 0.12658 0.46201 0.74589 0.0
C589 C 0.0545 0.3893 0.78688 0.0
C590 C 0.07819 0.4116 0.80881 0.0
H591 H 0.03984 0.37368 0.73414 0.0
H592 H 0.0351 0.36805 0.79792 0.0
C593 C 0.10273 0.43915 0.7935 0.0
C594 C 0.60233 0.55915 0.99873 0.0
C595 C 0.57791 0.58678 0.98336 0.0
H596 H 0.62596 0.53617 0.04639 0.0
C597 C 0.55422 0.60914 1.00523 0.0
H598 H 0.62091 0.54137 0.98259 0.0
C599 C 0.55677 0.60577 0.0418 0.0
C600 C 0.58352 0.5804 0.05719 0.0
H601 H 0.53491 0.63046 0.99415 0.0
H602 H 0.53944 0.62476 0.05794 0.0
C603 C 0.60533 0.5562 0.0353 0.0
C604 C 0.44284 0.10657 0.28648 0.0
C605 C 0.41874 0.08437 0.30812 0.0
H606 H 0.45793 0.12257 0.23393 0.0
C607 C 0.39386 0.05736 0.29248 0.0
H608 H 0.46251 0.12741 0.29778 0.0
C609 C 0.39083 0.05491 0.25588 0.0
C610 C 0.41307 0.079 0.23423 0.0
H611 H 0.37495 0.03972 0.30843 0.0
H612 H 0.36987 0.03539 0.24458 0.0
C613 C 0.44026 0.10369 0.24987 0.0
C614 C 0.89301 0.941 0.50042 0.0
C615 C 0.91816 0.91418 0.48486 0.0
H616 H 0.86868 0.96279 0.54823 0.0
C617 C 0.94236 0.89217 0.50658 0.0
H618 H 0.87403 0.95849 0.4844 0.0
C619 C 0.93963 0.89504 0.54318 0.0
C620 C 0.9122 0.91952 0.55873 0.0
H621 H 0.96223 0.87148 0.49535 0.0
H622 H 0.9574 0.8763 0.55918 0.0
C623 C 0.88984 0.94343 0.53701 0.0
C624 C 0.22577 0.15665 0.12827 0.0
C625 C 0.23926 0.11843 0.12713 0.0
H626 H 0.18957 0.19755 0.15512 0.0
C627 C 0.22099 0.09063 0.14828 0.0
H628 H 0.23974 0.17883 0.1128 0.0
C629 C 0.19297 0.10139 0.17274 0.0
C630 C 0.18264 0.14023 0.17671 0.0
H631 H 0.23089 0.061 0.14811 0.0
H632 H 0.18111 0.07966 0.19011 0.0
C633 C 0.1975 0.16745 0.15287 0.0
C634 C 0.89861 0.69397 0.42292 0.0
C635 C 0.85989 0.68319 0.42647 0.0
H636 H 0.93885 0.7324 0.39875 0.0
C637 C 0.83283 0.69777 0.40234 0.0
H638 H 0.92023 0.68233 0.44053 0.0
C639 C 0.84362 0.72621 0.37787 0.0
C640 C 0.88165 0.74015 0.37716 0.0
H641 H 0.80283 0.68949 0.40426 0.0
H642 H 0.8215 0.73994 0.36216 0.0
C643 C 0.90937 0.72216 0.39859 0.0
C644 C 0.30149 0.33424 0.65337 0.0
C645 C 0.31576 0.36149 0.67747 0.0
H646 H 0.25959 0.32247 0.6131 0.0
C647 C 0.30473 0.40016 0.67378 0.0
H648 H 0.30998 0.30428 0.65539 0.0
C649 C 0.27656 0.41065 0.64934 0.0
C650 C 0.25887 0.38272 0.62793 0.0
H651 H 0.31612 0.42192 0.69137 0.0
H652 H 0.2661 0.44008 0.6494 0.0
C653 C 0.27309 0.34476 0.62878 0.0
C654 C 0.6009 0.80755 0.92235 0.0
C655 C 0.63973 0.81764 0.92658 0.0
H656 H 0.56052 0.76987 0.89742 0.0
C657 C 0.66701 0.80268 0.90288 0.0
H658 H 0.57915 0.81948 0.93963 0.0
C659 C 0.65623 0.77451 0.87816 0.0
C660 C 0.61799 0.76123 0.87676 0.0
H661 H 0.69711 0.81043 0.90534 0.0
H662 H 0.67843 0.76043 0.86281 0.0
C663 C 0.59016 0.77963 0.89776 0.0
C664 C 0.19174 0.39636 0.12023 0.0
C665 C 0.18177 0.35744 0.11621 0.0
H666 H 0.22924 0.43706 0.14498 0.0
C667 C 0.19681 0.33033 0.14007 0.0
H668 H 0.17975 0.41799 0.10283 0.0
C669 C 0.22492 0.34136 0.16475 0.0
C670 C 0.23806 0.37969 0.16595 0.0
H671 H 0.18915 0.30017 0.13778 0.0
H672 H 0.23904 0.31928 0.18024 0.0
C673 C 0.2196 0.40735 0.14478 0.0
C674 C 0.58884 0.71988 0.39365 0.0
C675 C 0.61668 0.73792 0.41491 0.0
H676 H 0.57777 0.68022 0.35164 0.0
C677 C 0.65479 0.72422 0.41379 0.0
H678 H 0.5593 0.72995 0.39379 0.0
C679 C 0.66549 0.69598 0.3891 0.0
C680 C 0.63826 0.68137 0.36516 0.0
H681 H 0.67699 0.738 0.42935 0.0
H682 H 0.69552 0.68789 0.38687 0.0
C683 C 0.59951 0.69188 0.3691 0.0
C684 C 0.27246 0.15283 0.66447 0.0
C685 C 0.25837 0.11482 0.66508 0.0
H686 H 0.30923 0.19362 0.63813 0.0
C687 C 0.27616 0.0871 0.64352 0.0
H688 H 0.25889 0.17495 0.68029 0.0
C689 C 0.30429 0.09786 0.61915 0.0
C690 C 0.3152 0.13659 0.61571 0.0
H691 H 0.26581 0.05764 0.64328 0.0
H692 H 0.31577 0.07626 0.60144 0.0
C693 C 0.30084 0.16362 0.63996 0.0
C694 C 0.84305 0.77101 0.91436 0.0
C695 C 0.88111 0.75712 0.91509 0.0
H696 H 0.8022 0.80766 0.88793 0.0
C697 C 0.90879 0.77513 0.89365 0.0
H698 H 0.82095 0.75727 0.93007 0.0
C699 C 0.89799 0.8033 0.8693 0.0
C700 C 0.85925 0.81402 0.86573 0.0
H701 H 0.93829 0.76494 0.89351 0.0
H702 H 0.91959 0.81495 0.85169 0.0
C703 C 0.83222 0.79942 0.88986 0.0
C704 C 0.69739 0.66763 0.65231 0.0
C705 C 0.68237 0.64054 0.67619 0.0
H706 H 0.73965 0.67867 0.61218 0.0
C707 C 0.69243 0.60163 0.67226 0.0
H708 H 0.68966 0.69778 0.65453 0.0
C709 C 0.72034 0.59064 0.64777 0.0
C710 C 0.73878 0.61829 0.62657 0.0
H711 H 0.68045 0.58001 0.68967 0.0
H712 H 0.73003 0.56095 0.64764 0.0
C713 C 0.72555 0.65659 0.62769 0.0
C714 C 0.33317 0.19858 0.90288 0.0
C715 C 0.36023 0.18414 0.92708 0.0
H716 H 0.32177 0.24065 0.86263 0.0
C717 C 0.39892 0.19507 0.9236 0.0
H718 H 0.3032 0.19018 0.90474 0.0
C719 C 0.40962 0.22329 0.89927 0.0
C720 C 0.38189 0.24114 0.87775 0.0
H721 H 0.42054 0.18354 0.94127 0.0
H722 H 0.43906 0.23364 0.89948 0.0
C723 C 0.34391 0.22704 0.8784 0.0
C724 C 0.80528 0.89984 0.17328 0.0
C725 C 0.81602 0.86109 0.17696 0.0
H726 H 0.76697 0.94006 0.1489 0.0
C727 C 0.80155 0.83395 0.15285 0.0
H728 H 0.81683 0.92151 0.19088 0.0
C729 C 0.77323 0.84471 0.12826 0.0
C730 C 0.75931 0.88277 0.12742 0.0
H731 H 0.80981 0.80393 0.15488 0.0
H732 H 0.75957 0.82253 0.11257 0.0
C733 C 0.77721 0.91056 0.14883 0.0
C734 C 0.15591 0.27373 0.37866 0.0
C735 C 0.11772 0.26031 0.37734 0.0
H736 H 0.19674 0.30979 0.40576 0.0
C737 C 0.08988 0.27857 0.39843 0.0
H738 H 0.17812 0.25975 0.36323 0.0
C739 C 0.10059 0.30652 0.42301 0.0
C740 C 0.13939 0.31676 0.42715 0.0
H741 H 0.06027 0.26871 0.39814 0.0
H742 H 0.07884 0.31836 0.44035 0.0
C743 C 0.16666 0.30192 0.40337 0.0
C744 C 0.69195 0.89637 0.61993 0.0
C745 C 0.6818 0.85752 0.61577 0.0
H746 H 0.72967 0.9368 0.64476 0.0
C747 C 0.69677 0.83023 0.63951 0.0
H748 H 0.68002 0.91814 0.60262 0.0
C749 C 0.72497 0.84103 0.66419 0.0
C750 C 0.73828 0.8793 0.66552 0.0
H751 H 0.68898 0.80012 0.63712 0.0
H752 H 0.73902 0.81882 0.67958 0.0
C753 C 0.7199 0.90714 0.64447 0.0
C754 C 0.08937 0.21876 0.89443 0.0
C755 C 0.11724 0.23698 0.91551 0.0
H756 H 0.07824 0.17897 0.85253 0.0
C757 C 0.15541 0.22347 0.91422 0.0
H758 H 0.05978 0.22869 0.8947 0.0
C759 C 0.1661 0.19523 0.88953 0.0
C760 C 0.1388 0.18044 0.86575 0.0
H761 H 0.17764 0.23741 0.92964 0.0
H762 H 0.19616 0.1873 0.88715 0.0
C763 C 0.10002 0.19077 0.86987 0.0
C764 C 0.80402 0.59784 0.11882 0.0
C765 C 0.81509 0.63651 0.11522 0.0
H766 H 0.76532 0.55791 0.14306 0.0
C767 C 0.8008 0.66373 0.13934 0.0
H768 H 0.81543 0.5761 0.10122 0.0
C769 C 0.77234 0.65318 0.16386 0.0
C770 C 0.75809 0.61523 0.16462 0.0
H771 H 0.80932 0.69368 0.13738 0.0
H772 H 0.75884 0.67545 0.17956 0.0
C773 C 0.7758 0.58733 0.14319 0.0
C774 C 0.33165 0.3002 0.39032 0.0
C775 C 0.35875 0.31497 0.36634 0.0
H776 H 0.32036 0.25792 0.43041 0.0
C777 C 0.39753 0.30445 0.37009 0.0
H778 H 0.30161 0.30828 0.38824 0.0
C779 C 0.40833 0.27631 0.39448 0.0
C780 C 0.38061 0.25813 0.41576 0.0
H781 H 0.41917 0.31623 0.3526 0.0
H782 H 0.43788 0.26627 0.39447 0.0
C783 C 0.34249 0.27181 0.41484 0.0
C784 C 0.00715 0.01918 0.28806 0.0
C785 C 0.01622 0.03786 0.31997 0.0
H786 H 0.98504 0.96778 0.26338 0.0
C787 C 0.00803 0.01847 0.35144 0.0
H788 H 0.01294 0.03304 0.26312 0.0
C789 C 0.98873 0.98368 0.35156 0.0
C790 C 0.981 0.96383 0.32025 0.0
H791 H 0.01659 0.0297 0.37667 0.0
H792 H 0.97984 0.97278 0.37682 0.0
C793 C 0.99048 0.98203 0.2882 0.0
C794 C 0.01731 0.49085 0.53822 0.0
C795 C 0.0353 0.48118 0.57031 0.0
H796 H 0.96647 0.51341 0.51297 0.0
C797 C 0.01522 0.48862 0.60155 0.0
H798 H 0.03172 0.48561 0.51345 0.0
C799 C 0.98041 0.50787 0.60135 0.0
C800 C 0.96126 0.5163 0.56981 0.0
H801 H 0.02596 0.47957 0.62682 0.0
H802 H 0.96901 0.51624 0.62656 0.0
C803 C 0.98015 0.50747 0.53795 0.0
C804 C 0.48833 0.48497 0.85162 0.0
C805 C 0.48069 0.46491 0.8204 0.0
H806 H 0.51614 0.53115 0.87653 0.0
C807 C 0.49024 0.4829 0.78828 0.0
H808 H 0.47939 0.47423 0.87692 0.0
C809 C 0.50691 0.52006 0.78796 0.0
C810 C 0.51591 0.53894 0.81979 0.0
H811 H 0.48487 0.46849 0.76353 0.0
H812 H 0.51276 0.53375 0.76296 0.0
C813 C 0.50763 0.51976 0.85135 0.0
C814 C 0.48143 0.0092 0.10145 0.0
C815 C 0.46203 0.01747 0.07001 0.0
H816 H 0.52714 0.98098 0.12674 0.0
C817 C 0.48069 0.00852 0.03806 0.0
H818 H 0.4702 0.01766 0.1267 0.0
C819 C 0.51785 0.9919 0.03815 0.0
C820 C 0.53607 0.98234 0.07016 0.0
H821 H 0.46682 0.01436 1.01315 0.0
H822 H 0.53208 0.98655 1.01331 0.0
C823 C 0.51623 0.98994 0.1015 0.0
C824 C 0.00658 0.4781 1.00453 0.0
C825 C 0.01568 0.45943 0.97263 0.0
H826 H 0.98444 0.52951 0.02917 0.0
C827 C 0.0075 0.4788 0.94114 0.0
H828 H 0.01234 0.46425 0.02947 0.0
C829 C 0.9882 0.5136 0.94101 0.0
C830 C 0.98046 0.53346 0.97231 0.0
H831 H 0.01608 0.46758 0.91593 0.0
H832 H 0.97934 0.5245 0.91574 0.0
C833 C 0.9899 0.51526 1.00436 0.0
C834 C 0.47942 0.49067 0.25467 0.0
C835 C 0.46042 0.48179 0.22288 0.0
H836 H 0.53106 0.51257 0.27902 0.0
C837 C 0.4795 0.49007 0.19128 0.0
H838 H 0.4658 0.48479 0.2797 0.0
C839 C 0.51431 0.5093 0.19096 0.0
C840 C 0.53447 0.51687 0.22214 0.0
H841 H 0.46802 0.48163 0.16612 0.0
H842 H 0.52498 0.51827 0.16564 0.0
C843 C 0.51657 0.50727 0.25429 0.0
C844 C 0.50837 0.98045 0.4411 0.0
C845 C 0.51621 0.96076 0.47249 0.0
H846 H 0.48044 0.02637 0.41584 0.0
C847 C 0.50687 0.97915 0.50447 0.0
H848 H 0.51717 0.96943 0.41587 0.0
C849 C 0.4902 0.01631 0.50447 0.0
C850 C 0.48101 0.03481 0.47249 0.0
H851 H 0.5124 0.96505 0.52935 0.0
H852 H 0.48453 0.03032 0.52936 0.0
C853 C 0.48908 0.01526 0.4411 0.0
C854 C 0.01667 0.00641 0.75438 0.0
C855 C 0.03472 0.01609 0.72233 0.0
H856 H 0.96579 0.98384 0.77952 0.0
C857 C 0.0147 0.00868 0.69105 0.0
H858 H 0.03105 0.01163 0.77918 0.0
C859 C 0.97989 0.98944 0.69117 0.0
C860 C 0.96068 0.98099 0.72267 0.0
H861 H 0.02549 0.01775 0.66581 0.0
H862 H 0.96854 0.9811 0.66594 0.0
C863 C 0.97952 0.9898 0.75456 0.0
C864 C 0.28067 0.10579 0.37392 0.0
C865 C 0.28595 0.1078 0.41058 0.0
H866 H 0.24066 0.10735 0.33123 0.0
C867 C 0.25354 0.10569 0.43259 0.0
H868 H 0.30505 0.10661 0.35615 0.0
C869 C 0.21654 0.10603 0.41822 0.0
C870 C 0.2113 0.10861 0.38159 0.0
H871 H 0.25657 0.10636 0.46092 0.0
H872 H 0.19218 0.10701 0.436 0.0
C873 C 0.24368 0.10626 0.35956 0.0
C874 C 0.89222 0.7165 0.66822 0.0
C875 C 0.89001 0.71136 0.63156 0.0
H876 H 0.89109 0.75639 0.71102 0.0
C877 C 0.89225 0.74387 0.60963 0.0
H878 H 0.89132 0.69204 0.68593 0.0
C879 C 0.8922 0.78085 0.62409 0.0
C880 C 0.88978 0.78597 0.66075 0.0
H881 H 0.89143 0.74095 0.58129 0.0
H882 H 0.89128 0.8053 0.60638 0.0
C883 C 0.89205 0.75347 0.68268 0.0
C884 C 0.21624 0.39146 0.8747 0.0
C885 C 0.21091 0.38889 0.91133 0.0
H886 H 0.25638 0.39144 0.83211 0.0
C887 C 0.24321 0.39151 0.93344 0.0
H888 H 0.19193 0.39026 0.85686 0.0
C889 C 0.28024 0.3923 0.91917 0.0
C890 C 0.28564 0.39034 0.88252 0.0
H891 H 0.24013 0.39043 0.96176 0.0
H892 H 0.30457 0.39172 0.937 0.0
C893 C 0.25327 0.3921 0.86043 0.0
C894 C 0.60696 0.78156 0.16815 0.0
C895 C 0.60926 0.78705 0.13152 0.0
H896 H 0.60764 0.74124 0.21065 0.0
C897 C 0.60701 0.75477 0.10934 0.0
H898 H 0.6079 0.80584 0.18604 0.0
C899 C 0.60674 0.71766 0.12353 0.0
C900 C 0.60887 0.71214 0.16016 0.0
H901 H 0.60793 0.75797 0.08103 0.0
H902 H 0.60753 0.69337 0.10563 0.0
C903 C 0.60684 0.74445 0.18233 0.0
C904 C 0.71618 0.60639 0.91776 0.0
C905 C 0.71096 0.60898 0.88112 0.0
H906 H 0.7562 0.60642 0.96045 0.0
C907 C 0.74331 0.60636 0.85909 0.0
H908 H 0.69182 0.60758 0.93553 0.0
C909 C 0.7803 0.60558 0.87345 0.0
C910 C 0.7856 0.60756 0.91012 0.0
H911 H 0.7403 0.60745 0.83077 0.0
H912 H 0.80468 0.60618 0.85568 0.0
C913 C 0.75317 0.60575 0.93212 0.0
C914 C 0.39227 0.2449 0.11021 0.0
C915 C 0.39015 0.21238 0.13213 0.0
H916 H 0.39113 0.30632 0.10696 0.0
C917 C 0.3924 0.21752 0.1688 0.0
H918 H 0.39142 0.24197 0.08187 0.0
C919 C 0.39215 0.25449 0.18326 0.0
C920 C 0.38976 0.28699 0.16133 0.0
H921 H 0.39159 0.19306 0.1865 0.0
H922 H 0.39122 0.25741 0.2116 0.0
C923 C 0.39214 0.28187 0.12467 0.0
C924 C 0.78057 0.89181 0.41873 0.0
C925 C 0.78595 0.88984 0.38208 0.0
H926 H 0.74045 0.89026 0.46132 0.0
C927 C 0.75358 0.89188 0.35999 0.0
H928 H 0.8049 0.89103 0.43656 0.0
C929 C 0.71656 0.89154 0.37427 0.0
C930 C 0.71122 0.88901 0.4109 0.0
H931 H 0.75669 0.89121 0.33167 0.0
H932 H 0.69224 0.89056 0.35643 0.0
C933 C 0.74354 0.89133 0.433 0.0
C934 C 0.10693 0.21669 0.62409 0.0
C935 C 0.10902 0.21118 0.66073 0.0
H936 H 0.10806 0.257 0.58159 0.0
C937 C 0.1069 0.24348 0.68289 0.0
H938 H 0.1078 0.1924 0.6062 0.0
C939 C 0.10694 0.2806 0.66871 0.0
C940 C 0.10925 0.28609 0.63208 0.0
H941 H 0.10767 0.24028 0.71121 0.0
H942 H 0.10779 0.30488 0.6866 0.0
C943 C 0.10712 0.2538 0.6099 0.0
loop_
_geom_bond_atom_site_label_1
_geom_bond_atom_site_label_2
_geom_bond_distance
_geom_bond_site_symmetry_2
_ccdc_geom_bond_type
Co0 O3 1.970 . S
Co0 N17 1.989 . S
Co0 O25 1.967 . S
Co0 O32 1.920 . S
Co1 O4 1.966 . S
Co1 N10 2.022 . S
Co1 N18 1.993 . S
Co1 O26 1.941 . S
C2 O3 1.258 . S
C2 O4 1.263 . S
O3 Co0 1.970 . S
O3 C2 1.258 . S
O4 Co1 1.966 . S
O4 C2 1.263 . S
C5 O6 1.235 . S
C5 O32 1.289 . S
O6 C5 1.235 . S
C7 C9 1.400 . S
C7 N10 1.351 . S
C7 C12 1.501 . S
C8 C9 1.387 . S
C8 N11 1.341 . S
C9 C7 1.400 . S
C9 C8 1.387 . S
N10 Co1 2.022 . S
N10 C7 1.351 . S
N10 N11 1.365 . S
N11 C8 1.341 . S
N11 N10 1.365 . S
N11 H31 0.862 . S
C12 C7 1.501 . S
C12 H13 0.961 . S
C12 H14 0.961 . S
C12 H15 0.960 . S
H13 C12 0.961 . S
H14 C12 0.961 . S
H15 C12 0.960 . S
C16 N17 1.342 . S
C16 C20 1.401 . S
C16 C21 1.499 . S
N17 Co0 1.989 . S
N17 C16 1.342 . S
N17 N18 1.388 . S
N18 Co1 1.993 . S
N18 N17 1.388 . S
N18 C19 1.346 . S
C19 N18 1.346 . S
C19 C20 1.396 . S
C19 C29 1.510 . S
C20 C16 1.401 . S
C20 C19 1.396 . S
C21 C16 1.499 . S
C21 H22 0.959 . S
C21 H23 0.960 . S
C21 H24 0.961 . S
H22 C21 0.959 . S
H23 C21 0.960 . S
H24 C21 0.961 . S
O25 Co0 1.967 . S
O25 C33 1.258 . S
O26 Co1 1.941 . S
O26 C33 1.266 . S
H27 C29 0.959 . S
H28 C29 0.961 . S
C29 C19 1.510 . S
C29 H27 0.959 . S
C29 H28 0.961 . S
C29 H30 0.960 . S
H30 C29 0.960 . S
H31 N11 0.862 . S
O32 Co0 1.920 . S
O32 C5 1.289 . S
C33 O25 1.258 . S
C33 O26 1.266 . S
Co34 O37 1.970 . S
Co34 N51 1.989 . S
Co34 O59 1.967 . S
Co34 O66 1.920 . S
Co35 O38 1.966 . S
Co35 N44 2.022 . S
Co35 N52 1.993 . S
Co35 O60 1.941 . S
C36 O37 1.258 . S
C36 O38 1.263 . S
O37 Co34 1.970 . S
O37 C36 1.258 . S
O38 Co35 1.966 . S
O38 C36 1.263 . S
C39 O40 1.235 . S
C39 O66 1.289 . S
O40 C39 1.235 . S
C41 C43 1.400 . S
C41 N44 1.351 . S
C41 C46 1.501 . S
C42 C43 1.387 . S
C42 N45 1.341 . S
C43 C41 1.400 . S
C43 C42 1.387 . S
N44 Co35 2.022 . S
N44 C41 1.351 . S
N44 N45 1.365 . S
N45 C42 1.341 . S
N45 N44 1.365 . S
N45 H65 0.862 . S
C46 C41 1.501 . S
C46 H47 0.961 . S
C46 H48 0.961 . S
C46 H49 0.960 . S
H47 C46 0.961 . S
H48 C46 0.961 . S
H49 C46 0.960 . S
C50 N51 1.342 . S
C50 C54 1.401 . S
C50 C55 1.499 . S
N51 Co34 1.989 . S
N51 C50 1.342 . S
N51 N52 1.388 . S
N52 Co35 1.993 . S
N52 N51 1.388 . S
N52 C53 1.346 . S
C53 N52 1.346 . S
C53 C54 1.396 . S
C53 C63 1.510 . S
C54 C50 1.401 . S
C54 C53 1.396 . S
C55 C50 1.499 . S
C55 H56 0.959 . S
C55 H57 0.960 . S
C55 H58 0.961 . S
H56 C55 0.959 . S
H57 C55 0.960 . S
H58 C55 0.961 . S
O59 Co34 1.967 . S
O59 C67 1.258 . S
O60 Co35 1.941 . S
O60 C67 1.266 . S
H61 C63 0.959 . S
H62 C63 0.961 . S
C63 C53 1.510 . S
C63 H61 0.959 . S
C63 H62 0.961 . S
C63 H64 0.960 . S
H64 C63 0.960 . S
H65 N45 0.862 . S
O66 Co34 1.920 . S
O66 C39 1.289 . S
C67 O59 1.258 . S
C67 O60 1.266 . S
Co68 O71 1.970 . S
Co68 N85 1.989 . S
Co68 O93 1.967 . S
Co68 O100 1.920 . S
Co69 O72 1.966 . S
Co69 N78 2.022 . S
Co69 N86 1.993 . S
Co69 O94 1.941 . S
C70 O71 1.258 . S
C70 O72 1.263 . S
O71 Co68 1.970 . S
O71 C70 1.258 . S
O72 Co69 1.966 . S
O72 C70 1.263 . S
C73 O74 1.235 . S
C73 O100 1.289 . S
O74 C73 1.235 . S
C75 C77 1.400 . S
C75 N78 1.351 . S
C75 C80 1.501 . S
C76 C77 1.387 . S
C76 N79 1.341 . S
C77 C75 1.400 . S
C77 C76 1.387 . S
N78 Co69 2.022 . S
N78 C75 1.351 . S
N78 N79 1.365 . S
N79 C76 1.341 . S
N79 N78 1.365 . S
N79 H99 0.862 . S
C80 C75 1.501 . S
C80 H81 0.961 . S
C80 H82 0.961 . S
C80 H83 0.960 . S
H81 C80 0.961 . S
H82 C80 0.961 . S
H83 C80 0.960 . S
C84 N85 1.342 . S
C84 C88 1.401 . S
C84 C89 1.499 . S
N85 Co68 1.989 . S
N85 C84 1.342 . S
N85 N86 1.388 . S
N86 Co69 1.993 . S
N86 N85 1.388 . S
N86 C87 1.346 . S
C87 N86 1.346 . S
C87 C88 1.396 . S
C87 C97 1.510 . S
C88 C84 1.401 . S
C88 C87 1.396 . S
C89 C84 1.499 . S
C89 H90 0.959 . S
C89 H91 0.960 . S
C89 H92 0.961 . S
H90 C89 0.959 . S
H91 C89 0.960 . S
H92 C89 0.961 . S
O93 Co68 1.967 . S
O93 C101 1.258 . S
O94 Co69 1.941 . S
O94 C101 1.266 . S
H95 C97 0.959 . S
H96 C97 0.961 . S
C97 C87 1.510 . S
C97 H95 0.959 . S
C97 H96 0.961 . S
C97 H98 0.960 . S
H98 C97 0.960 . S
H99 N79 0.862 . S
O100 Co68 1.920 . S
O100 C73 1.289 . S
C101 O93 1.258 . S
C101 O94 1.266 . S
Co102 O105 1.970 . S
Co102 N119 1.989 . S
Co102 O127 1.967 . S
Co102 O134 1.920 . S
Co103 O106 1.966 . S
Co103 N112 2.022 . S
Co103 N120 1.993 . S
Co103 O128 1.941 . S
C104 O105 1.258 . S
C104 O106 1.263 . S
O105 Co102 1.970 . S
O105 C104 1.258 . S
O106 Co103 1.966 . S
O106 C104 1.263 . S
C107 O108 1.235 . S
C107 O134 1.289 . S
O108 C107 1.235 . S
C109 C111 1.400 . S
C109 N112 1.351 1_556 S
C109 C114 1.501 . S
C110 C111 1.387 . S
C110 N113 1.341 . S
C111 C109 1.400 . S
C111 C110 1.387 . S
N112 Co103 2.022 . S
N112 C109 1.351 1_554 S
N112 N113 1.365 1_554 S
N113 C110 1.341 . S
N113 N112 1.365 1_556 S
N113 H133 0.862 . S
C114 C109 1.501 . S
C114 H115 0.961 1_556 S
C114 H116 0.961 . S
C114 H117 0.960 . S
H115 C114 0.961 1_554 S
H116 C114 0.961 . S
H117 C114 0.960 . S
C118 N119 1.342 . S
C118 C122 1.401 . S
C118 C123 1.499 . S
N119 Co102 1.989 . S
N119 C118 1.342 . S
N119 N120 1.388 . S
N120 Co103 1.993 . S
N120 N119 1.388 . S
N120 C121 1.346 . S
C121 N120 1.346 . S
C121 C122 1.396 . S
C121 C131 1.510 . S
C122 C118 1.401 . S
C122 C121 1.396 . S
C123 C118 1.499 . S
C123 H124 0.959 . S
C123 H125 0.960 . S
C123 H126 0.961 . S
H124 C123 0.959 . S
H125 C123 0.960 . S
H126 C123 0.961 . S
O127 Co102 1.967 . S
O127 C135 1.258 . S
O128 Co103 1.941 . S
O128 C135 1.266 . S
H129 C131 0.959 1_556 S
H130 C131 0.961 1_556 S
C131 C121 1.510 . S
C131 H129 0.959 1_554 S
C131 H130 0.961 1_554 S
C131 H132 0.960 1_554 S
H132 C131 0.960 1_556 S
H133 N113 0.862 . S
O134 Co102 1.920 . S
O134 C107 1.289 . S
C135 O127 1.258 . S
C135 O128 1.266 . S
Co136 O139 1.970 . S
Co136 N153 1.989 . S
Co136 O161 1.967 . S
Co136 O168 1.920 . S
Co137 O140 1.966 . S
Co137 N146 2.022 . S
Co137 N154 1.993 . S
Co137 O162 1.941 . S
C138 O139 1.258 . S
C138 O140 1.263 . S
O139 Co136 1.970 . S
O139 C138 1.258 . S
O140 Co137 1.966 . S
O140 C138 1.263 . S
C141 O142 1.235 . S
C141 O168 1.289 . S
O142 C141 1.235 . S
C143 C145 1.400 . S
C143 N146 1.351 1_554 S
C143 C148 1.501 . S
C144 C145 1.387 . S
C144 N147 1.341 . S
C145 C143 1.400 . S
C145 C144 1.387 . S
N146 Co137 2.022 . S
N146 C143 1.351 1_556 S
N146 N147 1.365 1_556 S
N147 C144 1.341 . S
N147 N146 1.365 1_554 S
N147 H167 0.862 . S
C148 C143 1.501 . S
C148 H149 0.961 1_554 S
C148 H150 0.961 . S
C148 H151 0.960 . S
H149 C148 0.961 1_556 S
H150 C148 0.961 . S
H151 C148 0.960 . S
C152 N153 1.342 . S
C152 C156 1.401 . S
C152 C157 1.499 . S
N153 Co136 1.989 . S
N153 C152 1.342 . S
N153 N154 1.388 . S
N154 Co137 1.993 . S
N154 N153 1.388 . S
N154 C155 1.346 . S
C155 N154 1.346 . S
C155 C156 1.396 . S
C155 C165 1.510 . S
C156 C152 1.401 . S
C156 C155 1.396 . S
C157 C152 1.499 . S
C157 H158 0.959 . S
C157 H159 0.960 . S
C157 H160 0.961 . S
H158 C157 0.959 . S
H159 C157 0.960 . S
H160 C157 0.961 . S
O161 Co136 1.967 . S
O161 C169 1.258 . S
O162 Co137 1.941 . S
O162 C169 1.266 . S
H163 C165 0.959 1_554 S
H164 C165 0.961 1_554 S
C165 C155 1.510 . S
C165 H163 0.959 1_556 S
C165 H164 0.961 1_556 S
C165 H166 0.960 1_556 S
H166 C165 0.960 1_554 S
H167 N147 0.862 . S
O168 Co136 1.920 . S
O168 C141 1.289 . S
C169 O161 1.258 . S
C169 O162 1.266 . S
Co170 O173 1.970 . S
Co170 N187 1.989 . S
Co170 O195 1.967 . S
Co170 O202 1.920 . S
Co171 O174 1.966 . S
Co171 N180 2.022 . S
Co171 N188 1.993 . S
Co171 O196 1.941 . S
C172 O173 1.258 . S
C172 O174 1.263 . S
O173 Co170 1.970 . S
O173 C172 1.258 . S
O174 Co171 1.966 . S
O174 C172 1.263 . S
C175 O176 1.235 . S
C175 O202 1.289 . S
O176 C175 1.235 . S
C177 C179 1.400 . S
C177 N180 1.351 . S
C177 C182 1.501 . S
C178 C179 1.387 . S
C178 N181 1.341 . S
C179 C177 1.400 . S
C179 C178 1.387 . S
N180 Co171 2.022 . S
N180 C177 1.351 . S
N180 N181 1.365 . S
N181 C178 1.341 . S
N181 N180 1.365 . S
N181 H201 0.862 . S
C182 C177 1.501 . S
C182 H183 0.961 . S
C182 H184 0.961 . S
C182 H185 0.960 . S
H183 C182 0.961 . S
H184 C182 0.961 . S
H185 C182 0.960 . S
C186 N187 1.342 . S
C186 C190 1.401 . S
C186 C191 1.499 . S
N187 Co170 1.989 . S
N187 C186 1.342 . S
N187 N188 1.388 . S
N188 Co171 1.993 . S
N188 N187 1.388 . S
N188 C189 1.346 . S
C189 N188 1.346 . S
C189 C190 1.396 . S
C189 C199 1.510 . S
C190 C186 1.401 . S
C190 C189 1.396 . S
C191 C186 1.499 . S
C191 H192 0.959 . S
C191 H193 0.960 . S
C191 H194 0.961 . S
H192 C191 0.959 . S
H193 C191 0.960 . S
H194 C191 0.961 . S
O195 Co170 1.967 . S
O195 C203 1.258 . S
O196 Co171 1.941 . S
O196 C203 1.266 . S
H197 C199 0.959 . S
H198 C199 0.961 . S
C199 C189 1.510 . S
C199 H197 0.959 . S
C199 H198 0.961 . S
C199 H200 0.960 . S
H200 C199 0.960 . S
H201 N181 0.862 . S
O202 Co170 1.920 . S
O202 C175 1.289 . S
C203 O195 1.258 . S
C203 O196 1.266 . S
Co204 O207 1.970 . S
Co204 N221 1.989 . S
Co204 O229 1.967 . S
Co204 O236 1.920 . S
Co205 O208 1.966 . S
Co205 N214 2.022 . S
Co205 N222 1.993 . S
Co205 O230 1.941 . S
C206 O207 1.258 . S
C206 O208 1.263 . S
O207 Co204 1.970 . S
O207 C206 1.258 . S
O208 Co205 1.966 . S
O208 C206 1.263 . S
C209 O210 1.235 . S
C209 O236 1.289 . S
O210 C209 1.235 . S
C211 C213 1.400 . S
C211 N214 1.351 . S
C211 C216 1.501 . S
C212 C213 1.387 . S
C212 N215 1.341 . S
C213 C211 1.400 . S
C213 C212 1.387 . S
N214 Co205 2.022 . S
N214 C211 1.351 . S
N214 N215 1.365 . S
N215 C212 1.341 . S
N215 N214 1.365 . S
N215 H235 0.862 . S
C216 C211 1.501 . S
C216 H217 0.961 . S
C216 H218 0.961 . S
C216 H219 0.960 . S
H217 C216 0.961 . S
H218 C216 0.961 . S
H219 C216 0.960 . S
C220 N221 1.342 . S
C220 C224 1.401 . S
C220 C225 1.499 . S
N221 Co204 1.989 . S
N221 C220 1.342 . S
N221 N222 1.388 . S
N222 Co205 1.993 . S
N222 N221 1.388 . S
N222 C223 1.346 . S
C223 N222 1.346 . S
C223 C224 1.396 . S
C223 C233 1.510 . S
C224 C220 1.401 . S
C224 C223 1.396 . S
C225 C220 1.499 . S
C225 H226 0.959 . S
C225 H227 0.960 . S
C225 H228 0.961 . S
H226 C225 0.959 . S
H227 C225 0.960 . S
H228 C225 0.961 . S
O229 Co204 1.967 . S
O229 C237 1.258 . S
O230 Co205 1.941 . S
O230 C237 1.266 . S
H231 C233 0.959 . S
H232 C233 0.961 . S
C233 C223 1.510 . S
C233 H231 0.959 . S
C233 H232 0.961 . S
C233 H234 0.960 . S
H234 C233 0.960 . S
H235 N215 0.862 . S
O236 Co204 1.920 . S
O236 C209 1.289 . S
C237 O229 1.258 . S
C237 O230 1.266 . S
Co238 O241 1.970 . S
Co238 N255 1.989 . S
Co238 O263 1.967 . S
Co238 O270 1.920 . S
Co239 O242 1.966 . S
Co239 N248 2.022 . S
Co239 N256 1.993 . S
Co239 O264 1.941 . S
C240 O241 1.258 . S
C240 O242 1.263 . S
O241 Co238 1.970 . S
O241 C240 1.258 . S
O242 Co239 1.966 . S
O242 C240 1.263 . S
C243 O244 1.235 . S
C243 O270 1.289 . S
O244 C243 1.235 . S
C245 C247 1.400 . S
C245 N248 1.351 . S
C245 C250 1.501 . S
C246 C247 1.387 . S
C246 N249 1.341 . S
C247 C245 1.400 . S
C247 C246 1.387 . S
N248 Co239 2.022 . S
N248 C245 1.351 . S
N248 N249 1.365 . S
N249 C246 1.341 . S
N249 N248 1.365 . S
N249 H269 0.862 . S
C250 C245 1.501 . S
C250 H251 0.961 . S
C250 H252 0.961 . S
C250 H253 0.960 . S
H251 C250 0.961 . S
H252 C250 0.961 . S
H253 C250 0.960 . S
C254 N255 1.342 . S
C254 C258 1.401 . S
C254 C259 1.499 . S
N255 Co238 1.989 . S
N255 C254 1.342 . S
N255 N256 1.388 . S
N256 Co239 1.993 . S
N256 N255 1.388 . S
N256 C257 1.346 . S
C257 N256 1.346 . S
C257 C258 1.396 . S
C257 C267 1.510 . S
C258 C254 1.401 . S
C258 C257 1.396 . S
C259 C254 1.499 . S
C259 H260 0.959 . S
C259 H261 0.960 . S
C259 H262 0.961 . S
H260 C259 0.959 . S
H261 C259 0.960 . S
H262 C259 0.961 . S
O263 Co238 1.967 . S
O263 C271 1.258 . S
O264 Co239 1.941 . S
O264 C271 1.266 . S
H265 C267 0.959 . S
H266 C267 0.961 . S
C267 C257 1.510 . S
C267 H265 0.959 . S
C267 H266 0.961 . S
C267 H268 0.960 . S
H268 C267 0.960 . S
H269 N249 0.862 . S
O270 Co238 1.920 . S
O270 C243 1.289 . S
C271 O263 1.258 . S
C271 O264 1.266 . S
Co272 O275 1.970 . S
Co272 N289 1.989 . S
Co272 O297 1.967 . S
Co272 O304 1.920 . S
Co273 O276 1.966 . S
Co273 N282 2.022 . S
Co273 N290 1.993 . S
Co273 O298 1.941 . S
C274 O275 1.258 . S
C274 O276 1.263 . S
O275 Co272 1.970 . S
O275 C274 1.258 . S
O276 Co273 1.966 . S
O276 C274 1.263 . S
C277 O278 1.235 . S
C277 O304 1.289 . S
O278 C277 1.235 . S
C279 C281 1.400 . S
C279 N282 1.351 . S
C279 C284 1.501 . S
C280 C281 1.387 . S
C280 N283 1.341 . S
C281 C279 1.400 . S
C281 C280 1.387 . S
N282 Co273 2.022 . S
N282 C279 1.351 . S
N282 N283 1.365 . S
N283 C280 1.341 . S
N283 N282 1.365 . S
N283 H303 0.862 . S
C284 C279 1.501 . S
C284 H285 0.961 . S
C284 H286 0.961 . S
C284 H287 0.960 . S
H285 C284 0.961 . S
H286 C284 0.961 . S
H287 C284 0.960 . S
C288 N289 1.342 . S
C288 C292 1.401 . S
C288 C293 1.499 . S
N289 Co272 1.989 . S
N289 C288 1.342 . S
N289 N290 1.388 . S
N290 Co273 1.993 . S
N290 N289 1.388 . S
N290 C291 1.346 . S
C291 N290 1.346 . S
C291 C292 1.396 . S
C291 C301 1.510 . S
C292 C288 1.401 . S
C292 C291 1.396 . S
C293 C288 1.499 . S
C293 H294 0.959 . S
C293 H295 0.960 . S
C293 H296 0.961 . S
H294 C293 0.959 . S
H295 C293 0.960 . S
H296 C293 0.961 . S
O297 Co272 1.967 . S
O297 C305 1.258 . S
O298 Co273 1.941 . S
O298 C305 1.266 . S
H299 C301 0.959 . S
H300 C301 0.961 . S
C301 C291 1.510 . S
C301 H299 0.959 . S
C301 H300 0.961 . S
C301 H302 0.960 . S
H302 C301 0.960 . S
H303 N283 0.862 . S
O304 Co272 1.920 . S
O304 C277 1.289 . S
C305 O297 1.258 . S
C305 O298 1.266 . S
Co306 O309 1.970 . S
Co306 N323 1.989 . S
Co306 O331 1.967 . S
Co306 O338 1.920 . S
Co307 O310 1.966 . S
Co307 N316 2.022 . S
Co307 N324 1.993 . S
Co307 O332 1.941 . S
C308 O309 1.258 . S
C308 O310 1.263 . S
O309 Co306 1.970 . S
O309 C308 1.258 . S
O310 Co307 1.966 . S
O310 C308 1.263 . S
C311 O312 1.235 . S
C311 O338 1.289 . S
O312 C311 1.235 . S
C313 C315 1.400 . S
C313 N316 1.351 1_556 S
C313 C318 1.501 . S
C314 C315 1.387 . S
C314 N317 1.341 . S
C315 C313 1.400 . S
C315 C314 1.387 . S
N316 Co307 2.022 . S
N316 C313 1.351 1_554 S
N316 N317 1.365 1_554 S
N317 C314 1.341 . S
N317 N316 1.365 1_556 S
N317 H337 0.862 . S
C318 C313 1.501 . S
C318 H319 0.961 1_556 S
C318 H320 0.961 . S
C318 H321 0.960 . S
H319 C318 0.961 1_554 S
H320 C318 0.961 . S
H321 C318 0.960 . S
C322 N323 1.342 . S
C322 C326 1.401 . S
C322 C327 1.499 . S
N323 Co306 1.989 . S
N323 C322 1.342 . S
N323 N324 1.388 . S
N324 Co307 1.993 . S
N324 N323 1.388 . S
N324 C325 1.346 . S
C325 N324 1.346 . S
C325 C326 1.396 . S
C325 C335 1.510 . S
C326 C322 1.401 . S
C326 C325 1.396 . S
C327 C322 1.499 . S
C327 H328 0.959 . S
C327 H329 0.960 . S
C327 H330 0.961 . S
H328 C327 0.959 . S
H329 C327 0.960 . S
H330 C327 0.961 . S
O331 Co306 1.967 . S
O331 C339 1.258 . S
O332 Co307 1.941 . S
O332 C339 1.266 . S
H333 C335 0.959 1_556 S
H334 C335 0.961 1_556 S
C335 C325 1.510 . S
C335 H333 0.959 1_554 S
C335 H334 0.961 1_554 S
C335 H336 0.960 1_554 S
H336 C335 0.960 1_556 S
H337 N317 0.862 . S
O338 Co306 1.920 . S
O338 C311 1.289 . S
C339 O331 1.258 . S
C339 O332 1.266 . S
Co340 O343 1.970 . S
Co340 N357 1.989 . S
Co340 O365 1.967 . S
Co340 O372 1.920 . S
Co341 O344 1.966 . S
Co341 N350 2.022 . S
Co341 N358 1.993 . S
Co341 O366 1.941 . S
C342 O343 1.258 . S
C342 O344 1.263 . S
O343 Co340 1.970 . S
O343 C342 1.258 . S
O344 Co341 1.966 . S
O344 C342 1.263 . S
C345 O346 1.235 . S
C345 O372 1.289 . S
O346 C345 1.235 . S
C347 C349 1.400 . S
C347 N350 1.351 . S
C347 C352 1.501 . S
C348 C349 1.387 . S
C348 N351 1.341 . S
C349 C347 1.400 . S
C349 C348 1.387 . S
N350 Co341 2.022 . S
N350 C347 1.351 . S
N350 N351 1.365 . S
N351 C348 1.341 . S
N351 N350 1.365 . S
N351 H371 0.862 . S
C352 C347 1.501 . S
C352 H353 0.961 . S
C352 H354 0.961 . S
C352 H355 0.960 . S
H353 C352 0.961 . S
H354 C352 0.961 . S
H355 C352 0.960 . S
C356 N357 1.342 . S
C356 C360 1.401 . S
C356 C361 1.499 . S
N357 Co340 1.989 . S
N357 C356 1.342 . S
N357 N358 1.388 . S
N358 Co341 1.993 . S
N358 N357 1.388 . S
N358 C359 1.346 . S
C359 N358 1.346 . S
C359 C360 1.396 . S
C359 C369 1.510 . S
C360 C356 1.401 . S
C360 C359 1.396 . S
C361 C356 1.499 . S
C361 H362 0.959 . S
C361 H363 0.960 . S
C361 H364 0.961 . S
H362 C361 0.959 . S
H363 C361 0.960 . S
H364 C361 0.961 . S
O365 Co340 1.967 . S
O365 C373 1.258 . S
O366 Co341 1.941 . S
O366 C373 1.266 . S
H367 C369 0.959 . S
H368 C369 0.961 . S
C369 C359 1.510 . S
C369 H367 0.959 . S
C369 H368 0.961 . S
C369 H370 0.960 . S
H370 C369 0.960 . S
H371 N351 0.862 . S
O372 Co340 1.920 . S
O372 C345 1.289 . S
C373 O365 1.258 . S
C373 O366 1.266 . S
Co374 O377 1.970 . S
Co374 N391 1.989 . S
Co374 O399 1.967 . S
Co374 O406 1.920 . S
Co375 O378 1.966 . S
Co375 N384 2.022 . S
Co375 N392 1.993 . S
Co375 O400 1.941 . S
C376 O377 1.258 . S
C376 O378 1.263 . S
O377 Co374 1.970 . S
O377 C376 1.258 . S
O378 Co375 1.966 . S
O378 C376 1.263 . S
C379 O380 1.235 . S
C379 O406 1.289 . S
O380 C379 1.235 . S
C381 C383 1.400 . S
C381 N384 1.351 . S
C381 C386 1.501 . S
C382 C383 1.387 . S
C382 N385 1.341 . S
C383 C381 1.400 . S
C383 C382 1.387 . S
N384 Co375 2.022 . S
N384 C381 1.351 . S
N384 N385 1.365 . S
N385 C382 1.341 . S
N385 N384 1.365 . S
N385 H405 0.862 . S
C386 C381 1.501 . S
C386 H387 0.961 . S
C386 H388 0.961 . S
C386 H389 0.960 . S
H387 C386 0.961 . S
H388 C386 0.961 . S
H389 C386 0.960 . S
C390 N391 1.342 . S
C390 C394 1.401 . S
C390 C395 1.499 . S
N391 Co374 1.989 . S
N391 C390 1.342 . S
N391 N392 1.388 . S
N392 Co375 1.993 . S
N392 N391 1.388 . S
N392 C393 1.346 . S
C393 N392 1.346 . S
C393 C394 1.396 . S
C393 C403 1.510 . S
C394 C390 1.401 . S
C394 C393 1.396 . S
C395 C390 1.499 . S
C395 H396 0.959 . S
C395 H397 0.960 . S
C395 H398 0.961 . S
H396 C395 0.959 . S
H397 C395 0.960 . S
H398 C395 0.961 . S
O399 Co374 1.967 . S
O399 C407 1.258 . S
O400 Co375 1.941 . S
O400 C407 1.266 . S
H401 C403 0.959 . S
H402 C403 0.961 . S
C403 C393 1.510 . S
C403 H401 0.959 . S
C403 H402 0.961 . S
C403 H404 0.960 . S
H404 C403 0.960 . S
H405 N385 0.862 . S
O406 Co374 1.920 . S
O406 C379 1.289 . S
C407 O399 1.258 . S
C407 O400 1.266 . S
Co408 O411 1.970 . S
Co408 N425 1.989 . S
Co408 O433 1.967 . S
Co408 O440 1.920 . S
Co409 O412 1.966 . S
Co409 N418 2.022 . S
Co409 N426 1.993 . S
Co409 O434 1.941 . S
C410 O411 1.258 . S
C410 O412 1.263 . S
O411 Co408 1.970 . S
O411 C410 1.258 . S
O412 Co409 1.966 . S
O412 C410 1.263 . S
C413 O414 1.235 . S
C413 O440 1.289 . S
O414 C413 1.235 . S
C415 C417 1.400 . S
C415 N418 1.351 . S
C415 C420 1.501 . S
C416 C417 1.387 . S
C416 N419 1.341 . S
C417 C415 1.400 . S
C417 C416 1.387 . S
N418 Co409 2.022 . S
N418 C415 1.351 . S
N418 N419 1.365 . S
N419 C416 1.341 . S
N419 N418 1.365 . S
N419 H439 0.862 . S
C420 C415 1.501 . S
C420 H421 0.961 . S
C420 H422 0.961 . S
C420 H423 0.960 . S
H421 C420 0.961 . S
H422 C420 0.961 . S
H423 C420 0.960 . S
C424 N425 1.342 . S
C424 C428 1.401 . S
C424 C429 1.499 . S
N425 Co408 1.989 . S
N425 C424 1.342 . S
N425 N426 1.388 . S
N426 Co409 1.993 . S
N426 N425 1.388 . S
N426 C427 1.346 . S
C427 N426 1.346 . S
C427 C428 1.396 . S
C427 C437 1.510 . S
C428 C424 1.401 . S
C428 C427 1.396 . S
C429 C424 1.499 . S
C429 H430 0.959 . S
C429 H431 0.960 . S
C429 H432 0.961 . S
H430 C429 0.959 . S
H431 C429 0.960 . S
H432 C429 0.961 . S
O433 Co408 1.967 . S
O433 C441 1.258 . S
O434 Co409 1.941 . S
O434 C441 1.266 . S
H435 C437 0.959 . S
H436 C437 0.961 . S
C437 C427 1.510 . S
C437 H435 0.959 . S
C437 H436 0.961 . S
C437 H438 0.960 . S
H438 C437 0.960 . S
H439 N419 0.862 . S
O440 Co408 1.920 . S
O440 C413 1.289 . S
C441 O433 1.258 . S
C441 O434 1.266 . S
Co442 O445 1.970 . S
Co442 N459 1.989 . S
Co442 O467 1.967 . S
Co442 O474 1.920 . S
Co443 O446 1.966 . S
Co443 N452 2.022 . S
Co443 N460 1.993 . S
Co443 O468 1.941 . S
C444 O445 1.258 . S
C444 O446 1.263 . S
O445 Co442 1.970 . S
O445 C444 1.258 . S
O446 Co443 1.966 . S
O446 C444 1.263 . S
C447 O448 1.235 . S
C447 O474 1.289 . S
O448 C447 1.235 . S
C449 C451 1.400 . S
C449 N452 1.351 . S
C449 C454 1.501 . S
C450 C451 1.387 . S
C450 N453 1.341 . S
C451 C449 1.400 . S
C451 C450 1.387 . S
N452 Co443 2.022 . S
N452 C449 1.351 . S
N452 N453 1.365 . S
N453 C450 1.341 . S
N453 N452 1.365 . S
N453 H473 0.862 . S
C454 C449 1.501 . S
C454 H455 0.961 . S
C454 H456 0.961 . S
C454 H457 0.960 . S
H455 C454 0.961 . S
H456 C454 0.961 . S
H457 C454 0.960 . S
C458 N459 1.342 . S
C458 C462 1.401 . S
C458 C463 1.499 . S
N459 Co442 1.989 . S
N459 C458 1.342 . S
N459 N460 1.388 . S
N460 Co443 1.993 . S
N460 N459 1.388 . S
N460 C461 1.346 . S
C461 N460 1.346 . S
C461 C462 1.396 . S
C461 C471 1.510 . S
C462 C458 1.401 . S
C462 C461 1.396 . S
C463 C458 1.499 . S
C463 H464 0.959 . S
C463 H465 0.960 . S
C463 H466 0.961 . S
H464 C463 0.959 . S
H465 C463 0.960 . S
H466 C463 0.961 . S
O467 Co442 1.967 . S
O467 C475 1.258 . S
O468 Co443 1.941 . S
O468 C475 1.266 . S
H469 C471 0.959 . S
H470 C471 0.961 . S
C471 C461 1.510 . S
C471 H469 0.959 . S
C471 H470 0.961 . S
C471 H472 0.960 . S
H472 C471 0.960 . S
H473 N453 0.862 . S
O474 Co442 1.920 . S
O474 C447 1.289 . S
C475 O467 1.258 . S
C475 O468 1.266 . S
Co476 O479 1.970 . S
Co476 N493 1.989 . S
Co476 O501 1.967 . S
Co476 O508 1.920 . S
Co477 O480 1.966 . S
Co477 N486 2.022 . S
Co477 N494 1.993 . S
Co477 O502 1.941 . S
C478 O479 1.258 . S
C478 O480 1.263 . S
O479 Co476 1.970 . S
O479 C478 1.258 . S
O480 Co477 1.966 . S
O480 C478 1.263 . S
C481 O482 1.235 . S
C481 O508 1.289 . S
O482 C481 1.235 . S
C483 C485 1.400 . S
C483 N486 1.351 1_554 S
C483 C488 1.501 . S
C484 C485 1.387 . S
C484 N487 1.341 . S
C485 C483 1.400 . S
C485 C484 1.387 . S
N486 Co477 2.022 . S
N486 C483 1.351 1_556 S
N486 N487 1.365 1_556 S
N487 C484 1.341 . S
N487 N486 1.365 1_554 S
N487 H507 0.862 . S
C488 C483 1.501 . S
C488 H489 0.961 1_554 S
C488 H490 0.961 . S
C488 H491 0.960 . S
H489 C488 0.961 1_556 S
H490 C488 0.961 . S
H491 C488 0.960 . S
C492 N493 1.342 . S
C492 C496 1.401 . S
C492 C497 1.499 . S
N493 Co476 1.989 . S
N493 C492 1.342 . S
N493 N494 1.388 . S
N494 Co477 1.993 . S
N494 N493 1.388 . S
N494 C495 1.346 . S
C495 N494 1.346 . S
C495 C496 1.396 . S
C495 C505 1.510 . S
C496 C492 1.401 . S
C496 C495 1.396 . S
C497 C492 1.499 . S
C497 H498 0.959 . S
C497 H499 0.960 . S
C497 H500 0.961 . S
H498 C497 0.959 . S
H499 C497 0.960 . S
H500 C497 0.961 . S
O501 Co476 1.967 . S
O501 C509 1.258 . S
O502 Co477 1.941 . S
O502 C509 1.266 . S
H503 C505 0.959 1_554 S
H504 C505 0.961 1_554 S
C505 C495 1.510 . S
C505 H503 0.959 1_556 S
C505 H504 0.961 1_556 S
C505 H506 0.960 1_556 S
H506 C505 0.960 1_554 S
H507 N487 0.862 . S
O508 Co476 1.920 . S
O508 C481 1.289 . S
C509 O501 1.258 . S
C509 O502 1.266 . S
Co510 O513 1.970 . S
Co510 N527 1.989 . S
Co510 O535 1.967 . S
Co510 O542 1.920 . S
Co511 O514 1.966 . S
Co511 N520 2.022 . S
Co511 N528 1.993 . S
Co511 O536 1.941 . S
C512 O513 1.258 . S
C512 O514 1.263 . S
O513 Co510 1.970 . S
O513 C512 1.258 . S
O514 Co511 1.966 . S
O514 C512 1.263 . S
C515 O516 1.235 . S
C515 O542 1.289 . S
O516 C515 1.235 . S
C517 C519 1.400 . S
C517 N520 1.351 . S
C517 C522 1.501 . S
C518 C519 1.387 . S
C518 N521 1.341 . S
C519 C517 1.400 . S
C519 C518 1.387 . S
N520 Co511 2.022 . S
N520 C517 1.351 . S
N520 N521 1.365 . S
N521 C518 1.341 . S
N521 N520 1.365 . S
N521 H541 0.862 . S
C522 C517 1.501 . S
C522 H523 0.961 . S
C522 H524 0.961 . S
C522 H525 0.960 . S
H523 C522 0.961 . S
H524 C522 0.961 . S
H525 C522 0.960 . S
C526 N527 1.342 . S
C526 C530 1.401 . S
C526 C531 1.499 . S
N527 Co510 1.989 . S
N527 C526 1.342 . S
N527 N528 1.388 . S
N528 Co511 1.993 . S
N528 N527 1.388 . S
N528 C529 1.346 . S
C529 N528 1.346 . S
C529 C530 1.396 . S
C529 C539 1.510 . S
C530 C526 1.401 . S
C530 C529 1.396 . S
C531 C526 1.499 . S
C531 H532 0.959 . S
C531 H533 0.960 . S
C531 H534 0.961 . S
H532 C531 0.959 . S
H533 C531 0.960 . S
H534 C531 0.961 . S
O535 Co510 1.967 . S
O535 C543 1.258 . S
O536 Co511 1.941 . S
O536 C543 1.266 . S
H537 C539 0.959 . S
H538 C539 0.961 . S
C539 C529 1.510 . S
C539 H537 0.959 . S
C539 H538 0.961 . S
C539 H540 0.960 . S
H540 C539 0.960 . S
H541 N521 0.862 . S
O542 Co510 1.920 . S
O542 C515 1.289 . S
C543 O535 1.258 . S
C543 O536 1.266 . S
C544 C545 1.387 . S
C544 H548 0.950 . S
C544 C553 1.390 . S
C545 C544 1.387 . S
C545 C547 1.387 . S
H546 C553 0.950 . S
C547 C545 1.387 . S
C547 C549 1.390 . S
C547 H551 0.950 . S
H548 C544 0.950 . S
C549 C547 1.390 . S
C549 C550 1.387 . S
C549 H552 0.950 . S
C550 C549 1.387 . S
C550 C553 1.387 . S
H551 C547 0.950 . S
H552 C549 0.950 . S
C553 C544 1.390 . S
C553 H546 0.950 . S
C553 C550 1.387 . S
C554 C555 1.387 . S
C554 H558 0.950 . S
C554 C563 1.390 . S
C555 C554 1.387 . S
C555 C557 1.387 . S
H556 C563 0.950 . S
C557 C555 1.387 . S
C557 C559 1.390 . S
C557 H561 0.950 . S
H558 C554 0.950 . S
C559 C557 1.390 . S
C559 C560 1.387 . S
C559 H562 0.950 . S
C560 C559 1.387 . S
C560 C563 1.387 . S
H561 C557 0.950 . S
H562 C559 0.950 . S
C563 C554 1.390 . S
C563 H556 0.950 . S
C563 C560 1.387 . S
C564 C565 1.387 . S
C564 H568 0.950 . S
C564 C573 1.390 1_554 S
C565 C564 1.387 . S
C565 C567 1.387 . S
H566 C573 0.950 . S
C567 C565 1.387 . S
C567 C569 1.390 1_554 S
C567 H571 0.950 . S
H568 C564 0.950 . S
C569 C567 1.390 1_556 S
C569 C570 1.387 . S
C569 H572 0.950 . S
C570 C569 1.387 . S
C570 C573 1.387 . S
H571 C567 0.950 . S
H572 C569 0.950 . S
C573 C564 1.390 1_556 S
C573 H566 0.950 . S
C573 C570 1.387 . S
C574 C575 1.387 . S
C574 H578 0.950 . S
C574 C583 1.390 . S
C575 C574 1.387 . S
C575 C577 1.387 . S
H576 C583 0.950 . S
C577 C575 1.387 . S
C577 C579 1.390 . S
C577 H581 0.950 . S
H578 C574 0.950 . S
C579 C577 1.390 . S
C579 C580 1.387 . S
C579 H582 0.950 . S
C580 C579 1.387 . S
C580 C583 1.387 . S
H581 C577 0.950 . S
H582 C579 0.950 . S
C583 C574 1.390 . S
C583 H576 0.950 . S
C583 C580 1.387 . S
C584 C585 1.387 . S
C584 H588 0.950 . S
C584 C593 1.390 . S
C585 C584 1.387 . S
C585 C587 1.387 . S
H586 C593 0.950 . S
C587 C585 1.387 . S
C587 C589 1.390 . S
C587 H591 0.950 . S
H588 C584 0.950 . S
C589 C587 1.390 . S
C589 C590 1.387 . S
C589 H592 0.950 . S
C590 C589 1.387 . S
C590 C593 1.387 . S
H591 C587 0.950 . S
H592 C589 0.950 . S
C593 C584 1.390 . S
C593 H586 0.950 . S
C593 C590 1.387 . S
C594 C595 1.387 . S
C594 H598 0.950 . S
C594 C603 1.390 1_556 S
C595 C594 1.387 . S
C595 C597 1.387 . S
H596 C603 0.950 . S
C597 C595 1.387 . S
C597 C599 1.390 1_556 S
C597 H601 0.950 . S
H598 C594 0.950 . S
C599 C597 1.390 1_554 S
C599 C600 1.387 . S
C599 H602 0.950 . S
C600 C599 1.387 . S
C600 C603 1.387 . S
H601 C597 0.950 . S
H602 C599 0.950 . S
C603 C594 1.390 1_554 S
C603 H596 0.950 . S
C603 C600 1.387 . S
C604 C605 1.387 . S
C604 H608 0.950 . S
C604 C613 1.390 . S
C605 C604 1.387 . S
C605 C607 1.387 . S
H606 C613 0.950 . S
C607 C605 1.387 . S
C607 C609 1.390 . S
C607 H611 0.950 . S
H608 C604 0.950 . S
C609 C607 1.390 . S
C609 C610 1.387 . S
C609 H612 0.950 . S
C610 C609 1.387 . S
C610 C613 1.387 . S
H611 C607 0.950 . S
H612 C609 0.950 . S
C613 C604 1.390 . S
C613 H606 0.950 . S
C613 C610 1.387 . S
C614 C615 1.387 . S
C614 H618 0.950 . S
C614 C623 1.390 . S
C615 C614 1.387 . S
C615 C617 1.387 . S
H616 C623 0.950 . S
C617 C615 1.387 . S
C617 C619 1.390 . S
C617 H621 0.950 . S
H618 C614 0.950 . S
C619 C617 1.390 . S
C619 C620 1.387 . S
C619 H622 0.950 . S
C620 C619 1.387 . S
C620 C623 1.387 . S
H621 C617 0.950 . S
H622 C619 0.950 . S
C623 C614 1.390 . S
C623 H616 0.950 . S
C623 C620 1.387 . S
C624 C625 1.387 . S
C624 H628 0.950 . S
C624 C633 1.390 . S
C625 C624 1.387 . S
C625 C627 1.387 . S
H626 C633 0.950 . S
C627 C625 1.387 . S
C627 C629 1.390 . S
C627 H631 0.950 . S
H628 C624 0.950 . S
C629 C627 1.390 . S
C629 C630 1.387 . S
C629 H632 0.950 . S
C630 C629 1.387 . S
C630 C633 1.387 . S
H631 C627 0.950 . S
H632 C629 0.950 . S
C633 C624 1.390 . S
C633 H626 0.950 . S
C633 C630 1.387 . S
C634 C635 1.387 . S
C634 H638 0.950 . S
C634 C643 1.390 . S
C635 C634 1.387 . S
C635 C637 1.387 . S
H636 C643 0.950 . S
C637 C635 1.387 . S
C637 C639 1.390 . S
C637 H641 0.950 . S
H638 C634 0.950 . S
C639 C637 1.390 . S
C639 C640 1.387 . S
C639 H642 0.950 . S
C640 C639 1.387 . S
C640 C643 1.387 . S
H641 C637 0.950 . S
H642 C639 0.950 . S
C643 C634 1.390 . S
C643 H636 0.950 . S
C643 C640 1.387 . S
C644 C645 1.387 . S
C644 H648 0.950 . S
C644 C653 1.390 . S
C645 C644 1.387 . S
C645 C647 1.387 . S
H646 C653 0.950 . S
C647 C645 1.387 . S
C647 C649 1.390 . S
C647 H651 0.950 . S
H648 C644 0.950 . S
C649 C647 1.390 . S
C649 C650 1.387 . S
C649 H652 0.950 . S
C650 C649 1.387 . S
C650 C653 1.387 . S
H651 C647 0.950 . S
H652 C649 0.950 . S
C653 C644 1.390 . S
C653 H646 0.950 . S
C653 C650 1.387 . S
C654 C655 1.387 . S
C654 H658 0.950 . S
C654 C663 1.390 . S
C655 C654 1.387 . S
C655 C657 1.387 . S
H656 C663 0.950 . S
C657 C655 1.387 . S
C657 C659 1.390 . S
C657 H661 0.950 . S
H658 C654 0.950 . S
C659 C657 1.390 . S
C659 C660 1.387 . S
C659 H662 0.950 . S
C660 C659 1.387 . S
C660 C663 1.387 . S
H661 C657 0.950 . S
H662 C659 0.950 . S
C663 C654 1.390 . S
C663 H656 0.950 . S
C663 C660 1.387 . S
C664 C665 1.387 . S
C664 H668 0.950 . S
C664 C673 1.390 . S
C665 C664 1.387 . S
C665 C667 1.387 . S
H666 C673 0.950 . S
C667 C665 1.387 . S
C667 C669 1.390 . S
C667 H671 0.950 . S
H668 C664 0.950 . S
C669 C667 1.390 . S
C669 C670 1.387 . S
C669 H672 0.950 . S
C670 C669 1.387 . S
C670 C673 1.387 . S
H671 C667 0.950 . S
H672 C669 0.950 . S
C673 C664 1.390 . S
C673 H666 0.950 . S
C673 C670 1.387 . S
C674 C675 1.387 . S
C674 H678 0.950 . S
C674 C683 1.390 . S
C675 C674 1.387 . S
C675 C677 1.387 . S
H676 C683 0.950 . S
C677 C675 1.387 . S
C677 C679 1.390 . S
C677 H681 0.950 . S
H678 C674 0.950 . S
C679 C677 1.390 . S
C679 C680 1.387 . S
C679 H682 0.950 . S
C680 C679 1.387 . S
C680 C683 1.387 . S
H681 C677 0.950 . S
H682 C679 0.950 . S
C683 C674 1.390 . S
C683 H676 0.950 . S
C683 C680 1.387 . S
C684 C685 1.387 . S
C684 H688 0.950 . S
C684 C693 1.390 . S
C685 C684 1.387 . S
C685 C687 1.387 . S
H686 C693 0.950 . S
C687 C685 1.387 . S
C687 C689 1.390 . S
C687 H691 0.950 . S
H688 C684 0.950 . S
C689 C687 1.390 . S
C689 C690 1.387 . S
C689 H692 0.950 . S
C690 C689 1.387 . S
C690 C693 1.387 . S
H691 C687 0.950 . S
H692 C689 0.950 . S
C693 C684 1.390 . S
C693 H686 0.950 . S
C693 C690 1.387 . S
C694 C695 1.387 . S
C694 H698 0.950 . S
C694 C703 1.390 . S
C695 C694 1.387 . S
C695 C697 1.387 . S
H696 C703 0.950 . S
C697 C695 1.387 . S
C697 C699 1.390 . S
C697 H701 0.950 . S
H698 C694 0.950 . S
C699 C697 1.390 . S
C699 C700 1.387 . S
C699 H702 0.950 . S
C700 C699 1.387 . S
C700 C703 1.387 . S
H701 C697 0.950 . S
H702 C699 0.950 . S
C703 C694 1.390 . S
C703 H696 0.950 . S
C703 C700 1.387 . S
C704 C705 1.387 . S
C704 H708 0.950 . S
C704 C713 1.390 . S
C705 C704 1.387 . S
C705 C707 1.387 . S
H706 C713 0.950 . S
C707 C705 1.387 . S
C707 C709 1.390 . S
C707 H711 0.950 . S
H708 C704 0.950 . S
C709 C707 1.390 . S
C709 C710 1.387 . S
C709 H712 0.950 . S
C710 C709 1.387 . S
C710 C713 1.387 . S
H711 C707 0.950 . S
H712 C709 0.950 . S
C713 C704 1.390 . S
C713 H706 0.950 . S
C713 C710 1.387 . S
C714 C715 1.387 . S
C714 H718 0.950 . S
C714 C723 1.390 . S
C715 C714 1.387 . S
C715 C717 1.387 . S
H716 C723 0.950 . S
C717 C715 1.387 . S
C717 C719 1.390 . S
C717 H721 0.950 . S
H718 C714 0.950 . S
C719 C717 1.390 . S
C719 C720 1.387 . S
C719 H722 0.950 . S
C720 C719 1.387 . S
C720 C723 1.387 . S
H721 C717 0.950 . S
H722 C719 0.950 . S
C723 C714 1.390 . S
C723 H716 0.950 . S
C723 C720 1.387 . S
C724 C725 1.387 . S
C724 H728 0.950 . S
C724 C733 1.390 . S
C725 C724 1.387 . S
C725 C727 1.387 . S
H726 C733 0.950 . S
C727 C725 1.387 . S
C727 C729 1.390 . S
C727 H731 0.950 . S
H728 C724 0.950 . S
C729 C727 1.390 . S
C729 C730 1.387 . S
C729 H732 0.950 . S
C730 C729 1.387 . S
C730 C733 1.387 . S
H731 C727 0.950 . S
H732 C729 0.950 . S
C733 C724 1.390 . S
C733 H726 0.950 . S
C733 C730 1.387 . S
C734 C735 1.387 . S
C734 H738 0.950 . S
C734 C743 1.390 . S
C735 C734 1.387 . S
C735 C737 1.387 . S
H736 C743 0.950 . S
C737 C735 1.387 . S
C737 C739 1.390 . S
C737 H741 0.950 . S
H738 C734 0.950 . S
C739 C737 1.390 . S
C739 C740 1.387 . S
C739 H742 0.950 . S
C740 C739 1.387 . S
C740 C743 1.387 . S
H741 C737 0.950 . S
H742 C739 0.950 . S
C743 C734 1.390 . S
C743 H736 0.950 . S
C743 C740 1.387 . S
C744 C745 1.387 . S
C744 H748 0.950 . S
C744 C753 1.390 . S
C745 C744 1.387 . S
C745 C747 1.387 . S
H746 C753 0.950 . S
C747 C745 1.387 . S
C747 C749 1.390 . S
C747 H751 0.950 . S
H748 C744 0.950 . S
C749 C747 1.390 . S
C749 C750 1.387 . S
C749 H752 0.950 . S
C750 C749 1.387 . S
C750 C753 1.387 . S
H751 C747 0.950 . S
H752 C749 0.950 . S
C753 C744 1.390 . S
C753 H746 0.950 . S
C753 C750 1.387 . S
C754 C755 1.387 . S
C754 H758 0.950 . S
C754 C763 1.390 . S
C755 C754 1.387 . S
C755 C757 1.387 . S
H756 C763 0.950 . S
C757 C755 1.387 . S
C757 C759 1.390 . S
C757 H761 0.950 . S
H758 C754 0.950 . S
C759 C757 1.390 . S
C759 C760 1.387 . S
C759 H762 0.950 . S
C760 C759 1.387 . S
C760 C763 1.387 . S
H761 C757 0.950 . S
H762 C759 0.950 . S
C763 C754 1.390 . S
C763 H756 0.950 . S
C763 C760 1.387 . S
C764 C765 1.387 . S
C764 H768 0.950 . S
C764 C773 1.390 . S
C765 C764 1.387 . S
C765 C767 1.387 . S
H766 C773 0.950 . S
C767 C765 1.387 . S
C767 C769 1.390 . S
C767 H771 0.950 . S
H768 C764 0.950 . S
C769 C767 1.390 . S
C769 C770 1.387 . S
C769 H772 0.950 . S
C770 C769 1.387 . S
C770 C773 1.387 . S
H771 C767 0.950 . S
H772 C769 0.950 . S
C773 C764 1.390 . S
C773 H766 0.950 . S
C773 C770 1.387 . S
C774 C775 1.387 . S
C774 H778 0.950 . S
C774 C783 1.390 . S
C775 C774 1.387 . S
C775 C777 1.387 . S
H776 C783 0.950 . S
C777 C775 1.387 . S
C777 C779 1.390 . S
C777 H781 0.950 . S
H778 C774 0.950 . S
C779 C777 1.390 . S
C779 C780 1.387 . S
C779 H782 0.950 . S
C780 C779 1.387 . S
C780 C783 1.387 . S
H781 C777 0.950 . S
H782 C779 0.950 . S
C783 C774 1.390 . S
C783 H776 0.950 . S
C783 C780 1.387 . S
C784 C785 1.387 . S
C784 H788 0.950 . S
C784 C793 1.390 1_445 S
C785 C784 1.387 . S
C785 C787 1.387 . S
H786 C793 0.950 . S
C787 C785 1.387 . S
C787 C789 1.390 1_445 S
C787 H791 0.950 . S
H788 C784 0.950 . S
C789 C787 1.390 1_665 S
C789 C790 1.387 . S
C789 H792 0.950 . S
C790 C789 1.387 . S
C790 C793 1.387 . S
H791 C787 0.950 . S
H792 C789 0.950 . S
C793 C784 1.390 1_665 S
C793 H786 0.950 . S
C793 C790 1.387 . S
C794 C795 1.387 . S
C794 H798 0.950 . S
C794 C803 1.390 1_455 S
C795 C794 1.387 . S
C795 C797 1.387 . S
H796 C803 0.950 . S
C797 C795 1.387 . S
C797 C799 1.390 1_455 S
C797 H801 0.950 . S
H798 C794 0.950 . S
C799 C797 1.390 1_655 S
C799 C800 1.387 . S
C799 H802 0.950 . S
C800 C799 1.387 . S
C800 C803 1.387 . S
H801 C797 0.950 . S
H802 C799 0.950 . S
C803 C794 1.390 1_655 S
C803 H796 0.950 . S
C803 C800 1.387 . S
C804 C805 1.387 . S
C804 H808 0.950 . S
C804 C813 1.390 . S
C805 C804 1.387 . S
C805 C807 1.387 . S
H806 C813 0.950 . S
C807 C805 1.387 . S
C807 C809 1.390 . S
C807 H811 0.950 . S
H808 C804 0.950 . S
C809 C807 1.390 . S
C809 C810 1.387 . S
C809 H812 0.950 . S
C810 C809 1.387 . S
C810 C813 1.387 . S
H811 C807 0.950 . S
H812 C809 0.950 . S
C813 C804 1.390 . S
C813 H806 0.950 . S
C813 C810 1.387 . S
C814 C815 1.387 . S
C814 H818 0.950 . S
C814 C823 1.390 1_545 S
C815 C814 1.387 . S
C815 C817 1.387 . S
H816 C823 0.950 . S
C817 C815 1.387 . S
C817 C819 1.390 1_545 S
C817 H821 0.950 . S
H818 C814 0.950 . S
C819 C817 1.390 1_565 S
C819 C820 1.387 . S
C819 H822 0.950 . S
C820 C819 1.387 . S
C820 C823 1.387 . S
H821 C817 0.950 . S
H822 C819 0.950 . S
C823 C814 1.390 1_565 S
C823 H816 0.950 . S
C823 C820 1.387 . S
C824 C825 1.387 . S
C824 H828 0.950 . S
C824 C833 1.390 1_455 S
C825 C824 1.387 . S
C825 C827 1.387 . S
H826 C833 0.950 . S
C827 C825 1.387 . S
C827 C829 1.390 1_455 S
C827 H831 0.950 . S
H828 C824 0.950 . S
C829 C827 1.390 1_655 S
C829 C830 1.387 . S
C829 H832 0.950 . S
C830 C829 1.387 . S
C830 C833 1.387 . S
H831 C827 0.950 . S
H832 C829 0.950 . S
C833 C824 1.390 1_655 S
C833 H826 0.950 . S
C833 C830 1.387 . S
C834 C835 1.387 . S
C834 H838 0.950 . S
C834 C843 1.390 . S
C835 C834 1.387 . S
C835 C837 1.387 . S
H836 C843 0.950 . S
C837 C835 1.387 . S
C837 C839 1.390 . S
C837 H841 0.950 . S
H838 C834 0.950 . S
C839 C837 1.390 . S
C839 C840 1.387 . S
C839 H842 0.950 . S
C840 C839 1.387 . S
C840 C843 1.387 . S
H841 C837 0.950 . S
H842 C839 0.950 . S
C843 C834 1.390 . S
C843 H836 0.950 . S
C843 C840 1.387 . S
C844 C845 1.387 . S
C844 H848 0.950 . S
C844 C853 1.390 1_565 S
C845 C844 1.387 . S
C845 C847 1.387 . S
H846 C853 0.950 . S
C847 C845 1.387 . S
C847 C849 1.390 1_565 S
C847 H851 0.950 . S
H848 C844 0.950 . S
C849 C847 1.390 1_545 S
C849 C850 1.387 . S
C849 H852 0.950 . S
C850 C849 1.387 . S
C850 C853 1.387 . S
H851 C847 0.950 . S
H852 C849 0.950 . S
C853 C844 1.390 1_545 S
C853 H846 0.950 . S
C853 C850 1.387 . S
C854 C855 1.387 . S
C854 H858 0.950 . S
C854 C863 1.390 1_445 S
C855 C854 1.387 . S
C855 C857 1.387 . S
H856 C863 0.950 . S
C857 C855 1.387 . S
C857 C859 1.390 1_445 S
C857 H861 0.950 . S
H858 C854 0.950 . S
C859 C857 1.390 1_665 S
C859 C860 1.387 . S
C859 H862 0.950 . S
C860 C859 1.387 . S
C860 C863 1.387 . S
H861 C857 0.950 . S
H862 C859 0.950 . S
C863 C854 1.390 1_665 S
C863 H856 0.950 . S
C863 C860 1.387 . S
C864 C865 1.387 . S
C864 H868 0.950 . S
C864 C873 1.390 . S
C865 C864 1.387 . S
C865 C867 1.387 . S
H866 C873 0.950 . S
C867 C865 1.387 . S
C867 C869 1.390 . S
C867 H871 0.950 . S
H868 C864 0.950 . S
C869 C867 1.390 . S
C869 C870 1.387 . S
C869 H872 0.950 . S
C870 C869 1.387 . S
C870 C873 1.387 . S
H871 C867 0.950 . S
H872 C869 0.950 . S
C873 C864 1.390 . S
C873 H866 0.950 . S
C873 C870 1.387 . S
C874 C875 1.387 . S
C874 H878 0.950 . S
C874 C883 1.390 . S
C875 C874 1.387 . S
C875 C877 1.387 . S
H876 C883 0.950 . S
C877 C875 1.387 . S
C877 C879 1.390 . S
C877 H881 0.950 . S
H878 C874 0.950 . S
C879 C877 1.390 . S
C879 C880 1.387 . S
C879 H882 0.950 . S
C880 C879 1.387 . S
C880 C883 1.387 . S
H881 C877 0.950 . S
H882 C879 0.950 . S
C883 C874 1.390 . S
C883 H876 0.950 . S
C883 C880 1.387 . S
C884 C885 1.387 . S
C884 H888 0.950 . S
C884 C893 1.390 . S
C885 C884 1.387 . S
C885 C887 1.387 . S
H886 C893 0.950 . S
C887 C885 1.387 . S
C887 C889 1.390 . S
C887 H891 0.950 . S
H888 C884 0.950 . S
C889 C887 1.390 . S
C889 C890 1.387 . S
C889 H892 0.950 . S
C890 C889 1.387 . S
C890 C893 1.387 . S
H891 C887 0.950 . S
H892 C889 0.950 . S
C893 C884 1.390 . S
C893 H886 0.950 . S
C893 C890 1.387 . S
C894 C895 1.387 . S
C894 H898 0.950 . S
C894 C903 1.390 . S
C895 C894 1.387 . S
C895 C897 1.387 . S
H896 C903 0.950 . S
C897 C895 1.387 . S
C897 C899 1.390 . S
C897 H901 0.950 . S
H898 C894 0.950 . S
C899 C897 1.390 . S
C899 C900 1.387 . S
C899 H902 0.950 . S
C900 C899 1.387 . S
C900 C903 1.387 . S
H901 C897 0.950 . S
H902 C899 0.950 . S
C903 C894 1.390 . S
C903 H896 0.950 . S
C903 C900 1.387 . S
C904 C905 1.387 . S
C904 H908 0.950 . S
C904 C913 1.390 . S
C905 C904 1.387 . S
C905 C907 1.387 . S
H906 C913 0.950 . S
C907 C905 1.387 . S
C907 C909 1.390 . S
C907 H911 0.950 . S
H908 C904 0.950 . S
C909 C907 1.390 . S
C909 C910 1.387 . S
C909 H912 0.950 . S
C910 C909 1.387 . S
C910 C913 1.387 . S
H911 C907 0.950 . S
H912 C909 0.950 . S
C913 C904 1.390 . S
C913 H906 0.950 . S
C913 C910 1.387 . S
C914 C915 1.387 . S
C914 H918 0.950 . S
C914 C923 1.390 . S
C915 C914 1.387 . S
C915 C917 1.387 . S
H916 C923 0.950 . S
C917 C915 1.387 . S
C917 C919 1.390 . S
C917 H921 0.950 . S
H918 C914 0.950 . S
C919 C917 1.390 . S
C919 C920 1.387 . S
C919 H922 0.950 . S
C920 C919 1.387 . S
C920 C923 1.387 . S
H921 C917 0.950 . S
H922 C919 0.950 . S
C923 C914 1.390 . S
C923 H916 0.950 . S
C923 C920 1.387 . S
C924 C925 1.387 . S
C924 H928 0.950 . S
C924 C933 1.390 . S
C925 C924 1.387 . S
C925 C927 1.387 . S
H926 C933 0.950 . S
C927 C925 1.387 . S
C927 C929 1.390 . S
C927 H931 0.950 . S
H928 C924 0.950 . S
C929 C927 1.390 . S
C929 C930 1.387 . S
C929 H932 0.950 . S
C930 C929 1.387 . S
C930 C933 1.387 . S
H931 C927 0.950 . S
H932 C929 0.950 . S
C933 C924 1.390 . S
C933 H926 0.950 . S
C933 C930 1.387 . S
C934 C935 1.387 . S
C934 H938 0.950 . S
C934 C943 1.390 . S
C935 C934 1.387 . S
C935 C937 1.387 . S
H936 C943 0.950 . S
C937 C935 1.387 . S
C937 C939 1.390 . S
C937 H941 0.950 . S
H938 C934 0.950 . S
C939 C937 1.390 . S
C939 C940 1.387 . S
C939 H942 0.950 . S
C940 C939 1.387 . S
C940 C943 1.387 . S
H941 C937 0.950 . S
H942 C939 0.950 . S
C943 C934 1.390 . S
C943 H936 0.950 . S
C943 C940 1.387 . S
C545 C5 1.009 . S
C550 C447 1.007 . S
C555 C481 1.008 . S
C560 C39 1.009 . S
C565 C515 1.008 . S
C570 C73 1.009 . S
C575 C413 1.008 . S
C580 C107 1.006 . S
C585 C379 1.007 . S
C590 C141 1.009 . S
C595 C277 1.009 . S
C600 C175 1.008 . S
C605 C209 1.006 . S
C610 C311 1.007 . S
C615 C345 1.009 . S
C620 C243 1.008 . S
C625 C339 1.852 . S
C630 C9 1.962 . S
C635 C43 1.961 . S
C640 C373 1.853 . S
C645 C77 1.962 . S
C650 C407 1.850 . S
C655 C111 1.961 . S
C660 C305 1.850 . S
C665 C145 1.961 . S
C670 C543 1.851 . S
C675 C441 1.853 . S
C680 C179 1.961 . S
C685 C475 1.851 . S
C690 C213 1.962 . S
C695 C509 1.850 . S
C700 C247 1.962 . S
C705 C281 1.962 . S
C710 C67 1.850 . S
C715 C315 1.962 . S
C720 C101 1.851 . S
C725 C349 1.961 . S
C730 C135 1.853 . S
C735 C33 1.852 . S
C740 C383 1.962 . S
C745 C417 1.961 . S
C750 C271 1.852 . S
C755 C169 1.850 . S
C760 C451 1.962 . S
C765 C485 1.961 . S
C770 C203 1.852 . S
C775 C519 1.962 . S
C780 C237 1.852 . S
C785 C20 1.772 . S
C790 C360 1.772 . S
C795 C394 1.772 . S
C800 C54 1.772 . S
C805 C88 1.769 . S
C810 C292 1.769 . S
C815 C326 1.769 . S
C820 C122 1.769 . S
C825 C156 1.772 . S
C830 C496 1.772 . S
C835 C530 1.772 . S
C840 C190 1.772 . S
C845 C428 1.769 . S
C850 C224 1.769 . S
C855 C462 1.772 . S
C860 C258 1.772 . S
C865 C206 1.182 . S
C870 C2 1.182 . S
C875 C36 1.179 . S
C880 C240 1.179 . S
C885 C138 1.182 . S
C890 C70 1.182 . S
C895 C104 1.179 . S
C900 C172 1.179 . S
C905 C274 1.182 . S
C910 C478 1.182 . S
C915 C308 1.179 . S
C920 C512 1.179 . S
C925 C342 1.179 . S
C930 C410 1.179 . S
C935 C444 1.179 . S
C940 C376 1.179 . S
