# Generated by pormake.
# Topology whv, (6)-cn, num edge types: 1
# Building blocks:
#     Node 0, Type 0, BuildingBlock: IZENUY_clean_sbu_0, # of connection points: 6
#     Node 1, Type 0, BuildingBlock: IZENUY_clean_sbu_0, # of connection points: 6
#     Node 2, Type 0, BuildingBlock: IZENUY_clean_sbu_0, # of connection points: 6
#     Node 3, Type 0, BuildingBlock: IZENUY_clean_sbu_0, # of connection points: 6
#     Node 4, Type 0, BuildingBlock: IZENUY_clean_sbu_0, # of connection points: 6
#     Node 5, Type 0, BuildingBlock: IZENUY_clean_sbu_0, # of connection points: 6
#     Node 6, Type 0, BuildingBlock: IZENUY_clean_sbu_0, # of connection points: 6
#     Node 7, Type 0, BuildingBlock: IZENUY_clean_sbu_0, # of connection points: 6
#     Node 8, Type 0, BuildingBlock: IZENUY_clean_sbu_0, # of connection points: 6
#     Node 9, Type 0, BuildingBlock: IZENUY_clean_sbu_0, # of connection points: 6
#     Node 10, Type 0, BuildingBlock: IZENUY_clean_sbu_0, # of connection points: 6
#     Node 11, Type 0, BuildingBlock: IZENUY_clean_sbu_0, # of connection points: 6
#     Node 12, Type 0, BuildingBlock: IZENUY_clean_sbu_0, # of connection points: 6
#     Node 13, Type 0, BuildingBlock: IZENUY_clean_sbu_0, # of connection points: 6
#     Node 14, Type 0, BuildingBlock: IZENUY_clean_sbu_0, # of connection points: 6
#     Node 15, Type 0, BuildingBlock: IZENUY_clean_sbu_0, # of connection points: 6
#     Edge 16, Type (0, 0), BuildingBlock: UVAHIK_clean_linker_0, # of connection points: 2
#     Edge 17, Type (0, 0), BuildingBlock: UVAHIK_clean_linker_0, # of connection points: 2
#     Edge 18, Type (0, 0), BuildingBlock: UVAHIK_clean_linker_0, # of connection points: 2
#     Edge 19, Type (0, 0), BuildingBlock: UVAHIK_clean_linker_0, # of connection points: 2
#     Edge 20, Type (0, 0), BuildingBlock: UVAHIK_clean_linker_0, # of connection points: 2
#     Edge 21, Type (0, 0), BuildingBlock: UVAHIK_clean_linker_0, # of connection points: 2
#     Edge 22, Type (0, 0), BuildingBlock: UVAHIK_clean_linker_0, # of connection points: 2
#     Edge 23, Type (0, 0), BuildingBlock: UVAHIK_clean_linker_0, # of connection points: 2
#     Edge 24, Type (0, 0), BuildingBlock: UVAHIK_clean_linker_0, # of connection points: 2
#     Edge 25, Type (0, 0), BuildingBlock: UVAHIK_clean_linker_0, # of connection points: 2
#     Edge 26, Type (0, 0), BuildingBlock: UVAHIK_clean_linker_0, # of connection points: 2
#     Edge 27, Type (0, 0), BuildingBlock: UVAHIK_clean_linker_0, # of connection points: 2
#     Edge 28, Type (0, 0), BuildingBlock: UVAHIK_clean_linker_0, # of connection points: 2
#     Edge 29, Type (0, 0), BuildingBlock: UVAHIK_clean_linker_0, # of connection points: 2
#     Edge 30, Type (0, 0), BuildingBlock: UVAHIK_clean_linker_0, # of connection points: 2
#     Edge 31, Type (0, 0), BuildingBlock: UVAHIK_clean_linker_0, # of connection points: 2
#     Edge 32, Type (0, 0), BuildingBlock: UVAHIK_clean_linker_0, # of connection points: 2
#     Edge 33, Type (0, 0), BuildingBlock: UVAHIK_clean_linker_0, # of connection points: 2
#     Edge 34, Type (0, 0), BuildingBlock: UVAHIK_clean_linker_0, # of connection points: 2
#     Edge 35, Type (0, 0), BuildingBlock: UVAHIK_clean_linker_0, # of connection points: 2
#     Edge 36, Type (0, 0), BuildingBlock: UVAHIK_clean_linker_0, # of connection points: 2
#     Edge 37, Type (0, 0), BuildingBlock: UVAHIK_clean_linker_0, # of connection points: 2
#     Edge 38, Type (0, 0), BuildingBlock: UVAHIK_clean_linker_0, # of connection points: 2
#     Edge 39, Type (0, 0), BuildingBlock: UVAHIK_clean_linker_0, # of connection points: 2
#     Edge 40, Type (0, 0), BuildingBlock: UVAHIK_clean_linker_0, # of connection points: 2
#     Edge 41, Type (0, 0), BuildingBlock: UVAHIK_clean_linker_0, # of connection points: 2
#     Edge 42, Type (0, 0), BuildingBlock: UVAHIK_clean_linker_0, # of connection points: 2
#     Edge 43, Type (0, 0), BuildingBlock: UVAHIK_clean_linker_0, # of connection points: 2
#     Edge 44, Type (0, 0), BuildingBlock: UVAHIK_clean_linker_0, # of connection points: 2
#     Edge 45, Type (0, 0), BuildingBlock: UVAHIK_clean_linker_0, # of connection points: 2
#     Edge 46, Type (0, 0), BuildingBlock: UVAHIK_clean_linker_0, # of connection points: 2
#     Edge 47, Type (0, 0), BuildingBlock: UVAHIK_clean_linker_0, # of connection points: 2
#     Edge 48, Type (0, 0), BuildingBlock: UVAHIK_clean_linker_0, # of connection points: 2
#     Edge 49, Type (0, 0), BuildingBlock: UVAHIK_clean_linker_0, # of connection points: 2
#     Edge 50, Type (0, 0), BuildingBlock: UVAHIK_clean_linker_0, # of connection points: 2
#     Edge 51, Type (0, 0), BuildingBlock: UVAHIK_clean_linker_0, # of connection points: 2
#     Edge 52, Type (0, 0), BuildingBlock: UVAHIK_clean_linker_0, # of connection points: 2
#     Edge 53, Type (0, 0), BuildingBlock: UVAHIK_clean_linker_0, # of connection points: 2
#     Edge 54, Type (0, 0), BuildingBlock: UVAHIK_clean_linker_0, # of connection points: 2
#     Edge 55, Type (0, 0), BuildingBlock: UVAHIK_clean_linker_0, # of connection points: 2
#     Edge 56, Type (0, 0), BuildingBlock: UVAHIK_clean_linker_0, # of connection points: 2
#     Edge 57, Type (0, 0), BuildingBlock: UVAHIK_clean_linker_0, # of connection points: 2
#     Edge 58, Type (0, 0), BuildingBlock: UVAHIK_clean_linker_0, # of connection points: 2
#     Edge 59, Type (0, 0), BuildingBlock: UVAHIK_clean_linker_0, # of connection points: 2
#     Edge 60, Type (0, 0), BuildingBlock: UVAHIK_clean_linker_0, # of connection points: 2
#     Edge 61, Type (0, 0), BuildingBlock: UVAHIK_clean_linker_0, # of connection points: 2
#     Edge 62, Type (0, 0), BuildingBlock: UVAHIK_clean_linker_0, # of connection points: 2
#     Edge 63, Type (0, 0), BuildingBlock: UVAHIK_clean_linker_0, # of connection points: 2
# Relax obj value: 0.237
# Max RMSD: 0.246
# Mean RMSD: 0.246
data_MOF--net-whv--node1-IZENUY_clean_sbu_0--edge1-UVAHIK_clean_linker_0
_symmetry_space_group_name_H-M    P1
_symmetry_Int_Tables_number       1
_symmetry_cell_setting            triclinic
loop_
_symmetry_equiv_pos_as_xyz
'x, y, z'
_cell_length_a     65.282693
_cell_length_b     65.304579
_cell_length_c     33.052908
_cell_angle_alpha  89.990687
_cell_angle_beta   90.033566
_cell_angle_gamma 90.070983
loop_
_atom_site_label
_atom_site_type_symbol
_atom_site_fract_x
_atom_site_fract_y
_atom_site_fract_z
_atom_type_partial_charge
Fe0 Fe 0.29562 0.21101 0.03126 0.0
Fe1 Fe 0.31108 0.16832 0.01027 0.0
O2 O 0.31381 0.19133 0.0377 0.0
Fe3 Fe 0.33466 0.1949 0.07111 0.0
O4 O 0.34356 0.21671 0.04265 0.0
O5 O 0.31384 0.23215 0.0403 0.0
O6 O 0.30216 0.2134 0.97876 0.0
C7 C 0.30025 0.19918 0.95346 0.0
C8 C 0.30059 0.21236 0.11266 0.0
O9 O 0.29923 0.18064 0.96511 0.0
C10 C 0.32564 0.15516 0.08766 0.0
O11 O 0.27391 0.19357 0.02014 0.0
O12 O 0.28653 0.16326 0.03322 0.0
O13 O 0.31989 0.21096 0.10735 0.0
O14 O 0.28841 0.20958 0.08363 0.0
C15 C 0.35222 0.17352 0.00406 0.0
O16 O 0.32258 0.15204 0.05016 0.0
O17 O 0.32718 0.17312 0.10124 0.0
C18 C 0.27129 0.17471 0.02797 0.0
O19 O 0.33537 0.17195 0.98584 0.0
O20 O 0.35294 0.17941 0.04075 0.0
C21 C 0.33304 0.23229 0.03454 0.0
Fe22 Fe 0.54795 0.54435 0.2803 0.0
Fe23 Fe 0.59075 0.55956 0.25913 0.0
O24 O 0.56766 0.56262 0.2861 0.0
Fe25 Fe 0.56408 0.58393 0.31825 0.0
O26 O 0.54236 0.59238 0.289 0.0
O27 O 0.52677 0.56268 0.28775 0.0
O28 O 0.54593 0.54997 0.22709 0.0
C29 C 0.56037 0.54717 0.20266 0.0
C30 C 0.54633 0.55052 0.36147 0.0
O31 O 0.57875 0.54656 0.21519 0.0
C32 C 0.60386 0.57547 0.33525 0.0
O33 O 0.56552 0.52252 0.27137 0.0
O34 O 0.59581 0.53551 0.28415 0.0
O35 O 0.54794 0.56972 0.35527 0.0
O36 O 0.54902 0.53797 0.33309 0.0
C37 C 0.58514 0.60051 0.24997 0.0
O38 O 0.60684 0.57198 0.29794 0.0
O39 O 0.58592 0.577 0.349 0.0
C40 C 0.58435 0.52012 0.27996 0.0
O41 O 0.58703 0.58339 0.23278 0.0
O42 O 0.57952 0.60168 0.28676 0.0
C43 C 0.5268 0.58178 0.28102 0.0
Fe44 Fe 0.21118 0.79726 0.53177 0.0
Fe45 Fe 0.19327 0.83818 0.50474 0.0
O46 O 0.19223 0.81635 0.53606 0.0
Fe47 Fe 0.17197 0.81332 0.57104 0.0
O48 O 0.16349 0.79042 0.54562 0.0
O49 O 0.19368 0.77581 0.5439 0.0
O50 O 0.20455 0.79266 0.47983 0.0
C51 C 0.20532 0.80592 0.4524 0.0
C52 C 0.20691 0.79805 0.61332 0.0
O53 O 0.20529 0.82486 0.46112 0.0
C54 C 0.17953 0.85377 0.58089 0.0
O55 O 0.23202 0.81534 0.518 0.0
O56 O 0.21777 0.84555 0.52517 0.0
O57 O 0.18757 0.79881 0.60849 0.0
O58 O 0.21872 0.8007 0.5837 0.0
C59 C 0.15241 0.83059 0.50206 0.0
O60 O 0.18145 0.85535 0.5427 0.0
O61 O 0.17923 0.8364 0.59757 0.0
C62 C 0.23358 0.83465 0.52212 0.0
O63 O 0.16885 0.832 0.48239 0.0
O64 O 0.15277 0.8272 0.53993 0.0
C65 C 0.17447 0.77508 0.53811 0.0
Fe66 Fe 0.96052 0.46044 0.78195 0.0
Fe67 Fe 0.91874 0.44414 0.75619 0.0
O68 O 0.94089 0.44199 0.78646 0.0
Fe69 Fe 0.94365 0.4214 0.82079 0.0
O70 O 0.9663 0.4126 0.79492 0.0
O71 O 0.98154 0.44248 0.7935 0.0
O72 O 0.96452 0.45383 0.72984 0.0
C73 C 0.95105 0.45541 0.70291 0.0
C74 C 0.95985 0.45586 0.86351 0.0
O75 O 0.93218 0.45602 0.71236 0.0
C76 C 0.90336 0.42981 0.83216 0.0
O77 O 0.94313 0.48184 0.76875 0.0
O78 O 0.91261 0.46867 0.77798 0.0
O79 O 0.95863 0.43653 0.85846 0.0
O80 O 0.95757 0.46784 0.83401 0.0
C81 C 0.92445 0.40306 0.75183 0.0
O82 O 0.90148 0.43257 0.79425 0.0
O83 O 0.92087 0.42881 0.84816 0.0
C84 C 0.92402 0.4841 0.77448 0.0
O85 O 0.92349 0.41973 0.73279 0.0
O86 O 0.92918 0.40277 0.7892 0.0
C87 C 0.98194 0.42328 0.78781 0.0
Fe88 Fe 0.69339 0.83671 0.07516 0.0
Fe89 Fe 0.67143 0.81198 0.00929 0.0
O90 O 0.69153 0.81461 0.04474 0.0
Fe91 Fe 0.70968 0.79482 0.05022 0.0
O92 O 0.70225 0.79082 0.10195 0.0
O93 O 0.70437 0.82314 0.11965 0.0
O94 O 0.66846 0.83213 0.0969 0.0
C95 C 0.65214 0.83135 0.07661 0.0
C96 C 0.73365 0.83107 0.05958 0.0
O97 O 0.65258 0.82676 0.03926 0.0
C98 C 0.70621 0.79561 0.96858 0.0
O99 O 0.68268 0.85402 0.03623 0.0
O100 O 0.67959 0.83459 0.98218 0.0
O101 O 0.73104 0.81198 0.06482 0.0
O102 O 0.71843 0.84269 0.05521 0.0
C103 C 0.67243 0.77378 0.04253 0.0
O104 O 0.68685 0.79678 0.97279 0.0
O105 O 0.71787 0.79782 0.99861 0.0
C106 C 0.68049 0.85211 0.99817 0.0
O107 O 0.66198 0.78951 0.03513 0.0
O108 O 0.69166 0.774 0.03736 0.0
C109 C 0.70355 0.80427 0.12898 0.0
Fe110 Fe 0.44405 0.42149 0.75861 0.0
Fe111 Fe 0.46168 0.45988 0.79821 0.0
O112 O 0.44193 0.44156 0.79424 0.0
Fe113 Fe 0.42043 0.44307 0.82637 0.0
O114 O 0.42577 0.4182 0.84746 0.0
O115 O 0.42976 0.40249 0.78934 0.0
O116 O 0.46686 0.41214 0.78319 0.0
C117 C 0.48261 0.42266 0.79027 0.0
C118 C 0.40381 0.43047 0.75007 0.0
O119 O 0.48239 0.44187 0.78441 0.0
C120 C 0.4254 0.48345 0.81032 0.0
O121 O 0.45874 0.43693 0.72126 0.0
O122 O 0.45775 0.46796 0.74676 0.0
O123 O 0.40247 0.43236 0.78834 0.0
O124 O 0.42107 0.42966 0.73303 0.0
C125 C 0.45386 0.4532 0.87772 0.0
O126 O 0.44464 0.4811 0.81383 0.0
O127 O 0.41381 0.46811 0.80734 0.0
C128 C 0.45972 0.45627 0.71676 0.0
O129 O 0.46666 0.45263 0.84944 0.0
O130 O 0.43476 0.4539 0.87017 0.0
C131 C 0.42653 0.40192 0.82721 0.0
Fe132 Fe 0.79547 0.21047 0.55182 0.0
Fe133 Fe 0.81184 0.1688 0.5779 0.0
O134 O 0.81366 0.19069 0.54689 0.0
Fe135 Fe 0.83388 0.19313 0.51168 0.0
O136 O 0.84321 0.21577 0.53704 0.0
O137 O 0.81354 0.23132 0.53913 0.0
O138 O 0.80271 0.21468 0.60359 0.0
C139 C 0.80144 0.20135 0.63082 0.0
C140 C 0.79919 0.2094 0.47014 0.0
O141 O 0.80051 0.18247 0.62177 0.0
C142 C 0.82511 0.15289 0.50163 0.0
O143 O 0.7741 0.19321 0.56624 0.0
O144 O 0.78693 0.16248 0.55759 0.0
O145 O 0.81854 0.20807 0.47452 0.0
O146 O 0.78746 0.20735 0.50009 0.0
C147 C 0.85299 0.1751 0.58035 0.0
O148 O 0.82294 0.1513 0.53975 0.0
O149 O 0.8259 0.17029 0.48508 0.0
C150 C 0.77162 0.17404 0.56151 0.0
O151 O 0.83654 0.17392 0.60008 0.0
O152 O 0.85271 0.17869 0.54255 0.0
C153 C 0.83277 0.23148 0.54461 0.0
Fe154 Fe 0.04665 0.54649 0.29968 0.0
Fe155 Fe 0.08889 0.56201 0.32434 0.0
O156 O 0.06646 0.56474 0.29511 0.0
Fe157 Fe 0.06354 0.58572 0.26181 0.0
O158 O 0.04129 0.59442 0.28913 0.0
O159 O 0.02569 0.56475 0.28917 0.0
O160 O 0.04318 0.55277 0.3521 0.0
C161 C 0.05688 0.55082 0.37849 0.0
C162 C 0.04677 0.55177 0.21836 0.0
O163 O 0.07567 0.54998 0.36833 0.0
C164 C 0.10362 0.57718 0.24832 0.0
O165 O 0.06386 0.52479 0.31187 0.0
O166 O 0.09443 0.53756 0.30149 0.0
O167 O 0.04807 0.57105 0.22411 0.0
O168 O 0.04916 0.5395 0.24735 0.0
C169 C 0.08369 0.60311 0.33063 0.0
O170 O 0.10594 0.57372 0.28593 0.0
O171 O 0.08593 0.57848 0.23319 0.0
C172 C 0.08289 0.52226 0.30564 0.0
O173 O 0.08476 0.58622 0.34882 0.0
O174 O 0.07849 0.60391 0.29354 0.0
C175 C 0.02558 0.58384 0.29606 0.0
Fe176 Fe 0.79689 0.7111 0.53153 0.0
Fe177 Fe 0.81187 0.6686 0.50765 0.0
O178 O 0.81482 0.69109 0.53671 0.0
Fe179 Fe 0.83562 0.69381 0.57055 0.0
O180 O 0.84487 0.71602 0.54373 0.0
O181 O 0.81533 0.73182 0.54208 0.0
O182 O 0.80348 0.7143 0.47918 0.0
C183 C 0.80132 0.70054 0.45297 0.0
C184 C 0.80174 0.71096 0.61302 0.0
O185 O 0.80019 0.68182 0.4634 0.0
C186 C 0.82622 0.65388 0.58404 0.0
O187 O 0.77502 0.69415 0.51933 0.0
O188 O 0.78719 0.6634 0.53012 0.0
O189 O 0.82101 0.70938 0.60778 0.0
O190 O 0.78958 0.70886 0.58373 0.0
C191 C 0.85311 0.6735 0.5022 0.0
O192 O 0.82313 0.65151 0.54636 0.0
O193 O 0.82783 0.67155 0.59901 0.0
C194 C 0.77213 0.67524 0.52621 0.0
O195 O 0.83631 0.67235 0.48362 0.0
O196 O 0.85374 0.67869 0.53928 0.0
C197 C 0.83453 0.73183 0.53651 0.0
Fe198 Fe 0.04504 0.04667 0.78238 0.0
Fe199 Fe 0.0871 0.06284 0.75819 0.0
O200 O 0.06471 0.06499 0.78772 0.0
Fe201 Fe 0.06172 0.08554 0.822 0.0
O202 O 0.03928 0.0945 0.79548 0.0
O203 O 0.02399 0.06465 0.7933 0.0
O204 O 0.04156 0.05341 0.73017 0.0
C205 C 0.05528 0.05184 0.70376 0.0
C206 C 0.04513 0.05118 0.86391 0.0
O207 O 0.07404 0.05108 0.71393 0.0
C208 C 0.10183 0.07694 0.83479 0.0
O209 O 0.06246 0.02527 0.76964 0.0
O210 O 0.09305 0.03816 0.77986 0.0
O211 O 0.04642 0.07048 0.85894 0.0
O212 O 0.04751 0.03918 0.83448 0.0
C213 C 0.08088 0.10393 0.75361 0.0
O214 O 0.10408 0.07433 0.79692 0.0
O215 O 0.08418 0.07796 0.85006 0.0
C216 C 0.08152 0.02282 0.77563 0.0
O217 O 0.08239 0.08726 0.73476 0.0
O218 O 0.07651 0.10412 0.7911 0.0
C219 C 0.02365 0.08388 0.78798 0.0
Fe220 Fe 0.70946 0.29459 0.03014 0.0
Fe221 Fe 0.69413 0.33729 0.00856 0.0
O222 O 0.69137 0.31437 0.03639 0.0
Fe223 Fe 0.67056 0.31093 0.06996 0.0
O224 O 0.66157 0.28896 0.04181 0.0
O225 O 0.69127 0.27354 0.03995 0.0
O226 O 0.7027 0.292 0.97775 0.0
C227 C 0.70452 0.30613 0.9522 0.0
C228 C 0.70475 0.29359 0.11159 0.0
O229 O 0.70565 0.32471 0.96351 0.0
C230 C 0.67975 0.35077 0.08581 0.0
O231 O 0.73118 0.31183 0.01829 0.0
O232 O 0.71889 0.34231 0.03096 0.0
O233 O 0.68544 0.29502 0.10639 0.0
O234 O 0.71687 0.29626 0.08242 0.0
C235 C 0.65287 0.33227 0.00292 0.0
O236 O 0.68294 0.35373 0.04833 0.0
O237 O 0.67806 0.33288 0.09972 0.0
C238 C 0.73402 0.33071 0.02555 0.0
O239 O 0.66967 0.33381 0.98451 0.0
O240 O 0.65224 0.32631 0.03955 0.0
C241 C 0.67209 0.27332 0.03407 0.0
Fe242 Fe 0.45581 0.9675 0.27096 0.0
Fe243 Fe 0.41432 0.94653 0.25788 0.0
O244 O 0.43907 0.94645 0.27965 0.0
Fe245 Fe 0.4473 0.92518 0.30886 0.0
O246 O 0.47403 0.92662 0.29228 0.0
O247 O 0.47435 0.95094 0.24633 0.0
O248 O 0.44592 0.97341 0.22076 0.0
C249 C 0.4375 0.96165 0.19555 0.0
C250 C 0.4633 0.9574 0.35266 0.0
O251 O 0.42526 0.94781 0.2069 0.0
C252 C 0.4056 0.9305 0.33236 0.0
O253 O 0.43812 0.98563 0.29412 0.0
O254 O 0.41124 0.97425 0.26079 0.0
O255 O 0.4522 0.9415 0.3528 0.0
O256 O 0.46884 0.96548 0.31969 0.0
C257 C 0.42611 0.90529 0.2484 0.0
O258 O 0.40203 0.94475 0.30732 0.0
O259 O 0.42192 0.92006 0.33015 0.0
C260 C 0.41988 0.98788 0.28199 0.0
O261 O 0.41264 0.919 0.25121 0.0
O262 O 0.44294 0.90709 0.2671 0.0
C263 C 0.48161 0.9346 0.26074 0.0
Fe264 Fe 0.19266 0.33702 0.57782 0.0
Fe265 Fe 0.17098 0.31195 0.51215 0.0
O266 O 0.19129 0.31502 0.54704 0.0
Fe267 Fe 0.2101 0.29582 0.55169 0.0
O268 O 0.20327 0.29142 0.60356 0.0
O269 O 0.20456 0.3237 0.6217 0.0
O270 O 0.16823 0.33129 0.60041 0.0
C271 C 0.15172 0.32982 0.58097 0.0
C272 C 0.23288 0.3329 0.56061 0.0
O273 O 0.15189 0.32597 0.54325 0.0
C274 C 0.20591 0.29667 0.47012 0.0
O275 O 0.18095 0.35419 0.53961 0.0
O276 O 0.17826 0.33489 0.48535 0.0
O277 O 0.23103 0.31369 0.56565 0.0
O278 O 0.21722 0.34396 0.55699 0.0
C279 C 0.17338 0.27366 0.54473 0.0
O280 O 0.18656 0.2974 0.47485 0.0
O281 O 0.21773 0.29915 0.49982 0.0
C282 C 0.17874 0.35236 0.50153 0.0
O283 O 0.16243 0.28907 0.53755 0.0
O284 O 0.1926 0.27447 0.53945 0.0
C285 C 0.20423 0.30478 0.63077 0.0
Fe286 Fe 0.96105 0.96002 0.30138 0.0
Fe287 Fe 0.91961 0.94305 0.32756 0.0
O288 O 0.94151 0.94154 0.29648 0.0
Fe289 Fe 0.94412 0.92139 0.26115 0.0
O290 O 0.96702 0.91236 0.28595 0.0
O291 O 0.98212 0.94231 0.28887 0.0
O292 O 0.96537 0.95292 0.35317 0.0
C293 C 0.95204 0.9541 0.38041 0.0
C294 C 0.95995 0.95624 0.21968 0.0
O295 O 0.93314 0.95465 0.37137 0.0
C296 C 0.90374 0.92958 0.25142 0.0
O297 O 0.94352 0.98111 0.31562 0.0
O298 O 0.91293 0.96782 0.3072 0.0
O299 O 0.95876 0.93691 0.22399 0.0
O300 O 0.95784 0.96795 0.24963 0.0
C301 C 0.92652 0.90204 0.32995 0.0
O302 O 0.90219 0.93164 0.28955 0.0
O303 O 0.92112 0.92907 0.2348 0.0
C304 C 0.92432 0.98329 0.31082 0.0
O305 O 0.92512 0.91845 0.34972 0.0
O306 O 0.93002 0.90237 0.29212 0.0
C307 C 0.98263 0.92303 0.29342 0.0
Fe308 Fe 0.29864 0.71232 0.04996 0.0
Fe309 Fe 0.31327 0.66985 0.07463 0.0
O310 O 0.31627 0.69205 0.04482 0.0
Fe311 Fe 0.3369 0.69417 0.01042 0.0
O312 O 0.34669 0.71638 0.03645 0.0
O313 O 0.31747 0.73276 0.03885 0.0
O314 O 0.30551 0.71571 0.10217 0.0
C315 C 0.30315 0.70214 0.12868 0.0
C316 C 0.30302 0.71182 0.96827 0.0
O317 O 0.30182 0.6834 0.11864 0.0
C318 C 0.32709 0.65424 0.99857 0.0
O319 O 0.27653 0.6956 0.06285 0.0
O320 O 0.28853 0.66471 0.05258 0.0
O321 O 0.32229 0.70977 0.97305 0.0
O322 O 0.29103 0.71002 0.99788 0.0
C323 C 0.35451 0.6743 0.0792 0.0
O324 O 0.32427 0.65237 0.03643 0.0
O325 O 0.32859 0.67175 0.98275 0.0
C326 C 0.27352 0.67659 0.05686 0.0
O327 O 0.3378 0.67368 0.09816 0.0
O328 O 0.35498 0.67901 0.04183 0.0
C329 C 0.33674 0.7324 0.04393 0.0
Fe330 Fe 0.54315 0.04434 0.80018 0.0
Fe331 Fe 0.58521 0.05973 0.8265 0.0
O332 O 0.56322 0.06229 0.79585 0.0
Fe333 Fe 0.56109 0.08298 0.76164 0.0
O334 O 0.53863 0.09231 0.78744 0.0
O335 O 0.52254 0.06287 0.78904 0.0
O336 O 0.53937 0.05081 0.85251 0.0
C337 C 0.55275 0.04837 0.87933 0.0
C338 C 0.54362 0.04914 0.71864 0.0
O339 O 0.57159 0.04759 0.86984 0.0
C340 C 0.60121 0.07404 0.75098 0.0
O341 O 0.5602 0.02255 0.81274 0.0
O342 O 0.59107 0.0352 0.80427 0.0
O343 O 0.54584 0.06837 0.72365 0.0
O344 O 0.54568 0.03704 0.748 0.0
C345 C 0.57961 0.10087 0.83139 0.0
O346 O 0.60279 0.07135 0.78898 0.0
O347 O 0.58379 0.07505 0.73455 0.0
C348 C 0.57931 0.01997 0.80725 0.0
O349 O 0.58048 0.08413 0.8503 0.0
O350 O 0.57584 0.10115 0.79361 0.0
C351 C 0.52276 0.08206 0.79487 0.0
C352 C 0.23538 0.17556 1.00056 0.0
C353 C 0.25119 0.16484 0.02019 0.0
C354 C 0.21814 0.16513 0.98595 0.0
C355 C 0.17941 0.13948 0.9712 0.0
H356 H 0.1924 0.08992 0.91174 0.0
C357 C 0.1166 0.08867 0.90085 0.0
C358 C 0.11958 0.08305 0.86015 0.0
C359 C 0.13255 0.09724 0.92338 0.0
C360 C 0.18854 0.10372 0.92821 0.0
H361 H 0.26049 0.135 0.04261 0.0
H362 H 0.23044 0.11696 0.01735 0.0
H363 H 0.21954 0.10838 0.94727 0.0
H364 H 0.14207 0.08111 0.812 0.0
H365 H 0.16999 0.09593 0.85161 0.0
H366 H 0.14846 0.135 0.9515 0.0
C367 C 0.23156 0.13333 0.01255 0.0
C368 C 0.20402 0.11419 0.94889 0.0
C369 C 0.24871 0.14373 0.02726 0.0
C370 C 0.13922 0.08526 0.84322 0.0
C371 C 0.15523 0.09373 0.86593 0.0
C372 C 0.16388 0.1289 0.95081 0.0
C373 C 0.21641 0.14379 0.99064 0.0
C374 C 0.19965 0.13225 0.97042 0.0
C375 C 0.15192 0.10026 0.90594 0.0
C376 C 0.16831 0.11098 0.92886 0.0
H377 H 0.2368 0.1918 0.99449 0.0
H378 H 0.20672 0.17361 0.96911 0.0
H379 H 0.17557 0.15331 0.98762 0.0
H380 H 0.10174 0.08709 0.91505 0.0
H381 H 0.12963 0.10179 0.95436 0.0
C382 C 0.67234 0.38815 0.09656 0.0
C383 C 0.67408 0.36822 0.1123 0.0
C384 C 0.66432 0.40398 0.12024 0.0
C385 C 0.655 0.43672 0.18351 0.0
H386 H 0.60565 0.42388 0.24387 0.0
C387 C 0.61541 0.4977 0.28061 0.0
C388 C 0.59424 0.49992 0.27387 0.0
C389 C 0.62579 0.48036 0.26688 0.0
C390 C 0.61942 0.42769 0.22721 0.0
H391 H 0.66969 0.34963 0.16614 0.0
H392 H 0.65583 0.37725 0.20725 0.0
H393 H 0.62347 0.3968 0.20706 0.0
H394 H 0.56714 0.48479 0.2503 0.0
H395 H 0.58529 0.45451 0.22632 0.0
H396 H 0.65067 0.46769 0.20268 0.0
C397 C 0.66037 0.38054 0.1764 0.0
C398 C 0.62974 0.41216 0.20643 0.0
C399 C 0.66845 0.36474 0.15285 0.0
C400 C 0.58344 0.48363 0.25591 0.0
C401 C 0.59386 0.46625 0.24216 0.0
C402 C 0.64476 0.45221 0.20447 0.0
C403 C 0.65781 0.40023 0.16013 0.0
C404 C 0.64754 0.41654 0.18401 0.0
C405 C 0.61526 0.46477 0.24623 0.0
C406 C 0.62675 0.44792 0.22629 0.0
H407 H 0.6765 0.39139 0.06549 0.0
H408 H 0.66245 0.41898 0.10673 0.0
H409 H 0.66873 0.44056 0.16676 0.0
H410 H 0.6242 0.50981 0.29479 0.0
H411 H 0.64221 0.47945 0.2713 0.0
C412 C 0.39229 0.905 0.38226 0.0
C413 C 0.38929 0.92323 0.36025 0.0
C414 C 0.37644 0.89644 0.4049 0.0
C415 C 0.32831 0.90609 0.45677 0.0
H416 H 0.31584 0.84959 0.43014 0.0
C417 C 0.25382 0.86654 0.50895 0.0
C418 C 0.25337 0.84515 0.51414 0.0
C419 C 0.27146 0.87638 0.49514 0.0
C420 C 0.31932 0.8652 0.43877 0.0
H421 H 0.36745 0.94729 0.34674 0.0
H422 H 0.3397 0.93237 0.38739 0.0
H423 H 0.34426 0.86679 0.39684 0.0
H424 H 0.2717 0.81754 0.51146 0.0
H425 H 0.30286 0.83482 0.48905 0.0
H426 H 0.30375 0.90447 0.49943 0.0
C427 C 0.35441 0.92473 0.38647 0.0
C428 C 0.33553 0.87511 0.41933 0.0
C429 C 0.37027 0.93323 0.36319 0.0
C430 C 0.27145 0.834 0.5075 0.0
C431 C 0.28927 0.84393 0.4942 0.0
C432 C 0.31228 0.89607 0.47681 0.0
C433 C 0.35725 0.90598 0.40669 0.0
C434 C 0.34009 0.89568 0.4279 0.0
C435 C 0.28934 0.8652 0.4867 0.0
C436 C 0.30741 0.87551 0.4678 0.0
H437 H 0.40672 0.89687 0.38104 0.0
H438 H 0.3791 0.88212 0.4206 0.0
H439 H 0.33168 0.9219 0.46422 0.0
H440 H 0.24021 0.8757 0.51371 0.0
H441 H 0.27069 0.89268 0.48935 0.0
C442 C 0.83411 0.61645 0.59251 0.0
C443 C 0.83217 0.63611 0.60943 0.0
C444 C 0.84256 0.60041 0.6151 0.0
C445 C 0.87802 0.59166 0.69954 0.0
H446 H 0.85743 0.53601 0.69531 0.0
C447 C 0.89298 0.50646 0.77398 0.0
C448 C 0.91411 0.50415 0.76697 0.0
C449 C 0.88255 0.52366 0.75977 0.0
C450 C 0.86327 0.55152 0.69715 0.0
H451 H 0.83657 0.65396 0.66423 0.0
H452 H 0.85119 0.626 0.70339 0.0
H453 H 0.83887 0.56323 0.66049 0.0
H454 H 0.94108 0.51884 0.74188 0.0
H455 H 0.92282 0.549 0.71722 0.0
H456 H 0.90253 0.57989 0.73593 0.0
C457 C 0.84649 0.6231 0.67248 0.0
C458 C 0.85274 0.56705 0.67686 0.0
C459 C 0.83796 0.63908 0.65004 0.0
C460 C 0.92482 0.52015 0.74788 0.0
C461 C 0.91436 0.53743 0.7337 0.0
C462 C 0.88865 0.57609 0.7196 0.0
C463 C 0.84929 0.60371 0.65501 0.0
C464 C 0.86003 0.58729 0.67772 0.0
C465 C 0.89299 0.53902 0.73834 0.0
C466 C 0.88141 0.55583 0.71855 0.0
H467 H 0.82983 0.61361 0.56135 0.0
H468 H 0.84459 0.58565 0.60074 0.0
H469 H 0.88416 0.60708 0.70038 0.0
H470 H 0.88427 0.49454 0.78898 0.0
H471 H 0.86617 0.52467 0.76458 0.0
C472 C 0.75672 0.8617 0.06225 0.0
C473 C 0.75379 0.84059 0.06849 0.0
C474 C 0.77412 0.87158 0.07731 0.0
C475 C 0.81148 0.86631 0.15957 0.0
H476 H 0.83881 0.91166 0.10634 0.0
C477 C 0.88744 0.91952 0.18557 0.0
C478 C 0.88561 0.92326 0.22735 0.0
C479 C 0.87133 0.9106 0.16393 0.0
C480 C 0.83139 0.89897 0.12154 0.0
H481 H 0.76755 0.81308 0.09323 0.0
H482 H 0.79806 0.8303 0.11909 0.0
H483 H 0.81241 0.8924 0.07022 0.0
H484 H 0.86488 0.9216 0.27855 0.0
H485 H 0.83671 0.9063 0.24065 0.0
H486 H 0.83054 0.87269 0.21069 0.0
C487 C 0.78668 0.83927 0.10313 0.0
C488 C 0.81618 0.88801 0.10094 0.0
C489 C 0.76929 0.82936 0.08794 0.0
C490 C 0.86688 0.91885 0.24648 0.0
C491 C 0.85079 0.9099 0.22483 0.0
C492 C 0.82661 0.87729 0.18017 0.0
C493 C 0.78901 0.86059 0.09902 0.0
C494 C 0.80601 0.87158 0.11976 0.0
C495 C 0.853 0.90521 0.18353 0.0
C496 C 0.83669 0.89381 0.16151 0.0
H497 H 0.74513 0.87082 0.04724 0.0
H498 H 0.77536 0.88802 0.07373 0.0
H499 H 0.80376 0.85394 0.17521 0.0
H500 H 0.90161 0.92277 0.16978 0.0
H501 H 0.87358 0.90713 0.1322 0.0
C502 C 0.42715 0.51927 0.83777 0.0
C503 C 0.41588 0.5036 0.81886 0.0
C504 C 0.41725 0.53676 0.85244 0.0
C505 C 0.39001 0.56175 0.90826 0.0
H506 H 0.34525 0.58923 0.85346 0.0
C507 C 0.33699 0.61722 0.99325 0.0
C508 C 0.33322 0.63612 0.97431 0.0
C509 C 0.34594 0.6011 0.97176 0.0
C510 C 0.35776 0.58175 0.86909 0.0
H511 H 0.38562 0.49471 0.79802 0.0
H512 H 0.36845 0.52517 0.82345 0.0
H513 H 0.36451 0.56253 0.81823 0.0
H514 H 0.33476 0.65242 0.91713 0.0
H515 H 0.3503 0.62428 0.87973 0.0
H516 H 0.38339 0.58095 0.95901 0.0
C517 C 0.3849 0.52396 0.82707 0.0
C518 C 0.36872 0.5664 0.84899 0.0
C519 C 0.39475 0.50644 0.81263 0.0
C520 C 0.33752 0.63811 0.93276 0.0
C521 C 0.34639 0.62195 0.91123 0.0
C522 C 0.379 0.57698 0.92839 0.0
C523 C 0.39592 0.53903 0.84823 0.0
C524 C 0.38495 0.55619 0.8684 0.0
C525 C 0.35121 0.60346 0.93077 0.0
C526 C 0.36268 0.5871 0.90915 0.0
H527 H 0.44344 0.5176 0.84305 0.0
H528 H 0.42622 0.54828 0.86805 0.0
H529 H 0.40222 0.55401 0.9243 0.0
H530 H 0.33382 0.61509 0.02514 0.0
H531 H 0.3491 0.5869 0.98748 0.0
C532 C 0.63804 0.08505 0.74668 0.0
C533 C 0.61938 0.08065 0.72724 0.0
C534 C 0.65414 0.09426 0.72544 0.0
C535 C 0.67849 0.12714 0.68164 0.0
H536 H 0.69304 0.11247 0.57169 0.0
C537 C 0.73603 0.17552 0.59032 0.0
C538 C 0.75153 0.16441 0.5706 0.0
C539 C 0.71869 0.16551 0.60555 0.0
C540 C 0.68918 0.11674 0.60241 0.0
H541 H 0.6035 0.08151 0.66953 0.0
H542 H 0.63157 0.0975 0.63263 0.0
H543 H 0.66647 0.09311 0.6071 0.0
H544 H 0.76024 0.13425 0.54912 0.0
H545 H 0.73009 0.11688 0.57556 0.0
H546 H 0.70139 0.1505 0.67736 0.0
C547 C 0.63376 0.09385 0.6643 0.0
C548 C 0.67386 0.10572 0.62261 0.0
C549 C 0.61762 0.08472 0.68555 0.0
C550 C 0.74865 0.14329 0.56428 0.0
C551 C 0.7313 0.13331 0.57933 0.0
C552 C 0.69371 0.13819 0.66142 0.0
C553 C 0.65203 0.09919 0.68421 0.0
C554 C 0.66842 0.11071 0.66259 0.0
C555 C 0.71639 0.14419 0.60119 0.0
C556 C 0.69932 0.13309 0.62161 0.0
H557 H 0.63998 0.0821 0.7787 0.0
H558 H 0.66816 0.09782 0.74152 0.0
H559 H 0.67448 0.13161 0.71218 0.0
H560 H 0.73773 0.19179 0.59576 0.0
H561 H 0.70732 0.1744 0.62164 0.0
C562 C 0.16976 0.38965 0.49437 0.0
C563 C 0.17253 0.37026 0.47672 0.0
C564 C 0.16134 0.40576 0.47189 0.0
C565 C 0.12742 0.41485 0.38508 0.0
H566 H 0.14759 0.4706 0.39146 0.0
C567 C 0.08153 0.4863 0.33267 0.0
C568 C 0.09263 0.5022 0.31408 0.0
C569 C 0.09169 0.46909 0.34801 0.0
C570 C 0.14188 0.45507 0.38907 0.0
H571 H 0.16952 0.35297 0.42085 0.0
H572 H 0.15491 0.381 0.38196 0.0
H573 H 0.16552 0.4434 0.42769 0.0
H574 H 0.12291 0.51166 0.29427 0.0
H575 H 0.14047 0.48166 0.32078 0.0
H576 H 0.10367 0.42657 0.34673 0.0
C577 C 0.15897 0.38366 0.41331 0.0
C578 C 0.15204 0.43954 0.41015 0.0
C579 C 0.16749 0.36763 0.43562 0.0
C580 C 0.11389 0.49983 0.30878 0.0
C581 C 0.124 0.4827 0.32422 0.0
C582 C 0.11715 0.43041 0.36429 0.0
C583 C 0.15543 0.40278 0.43137 0.0
C584 C 0.14492 0.41926 0.40841 0.0
C585 C 0.11312 0.46746 0.34511 0.0
C586 C 0.12427 0.4507 0.36604 0.0
H587 H 0.17346 0.39223 0.52592 0.0
H588 H 0.15874 0.42032 0.48668 0.0
H589 H 0.12144 0.39939 0.38351 0.0
H590 H 0.06517 0.48764 0.33737 0.0
H591 H 0.08288 0.45759 0.36401 0.0
C592 C 0.64074 0.58519 0.34403 0.0
C593 C 0.62125 0.58208 0.36103 0.0
C594 C 0.65632 0.59442 0.36658 0.0
C595 C 0.67928 0.62836 0.40954 0.0
H596 H 0.69145 0.61564 0.52161 0.0
C597 C 0.73622 0.67724 0.49961 0.0
C598 C 0.75169 0.66602 0.51921 0.0
C599 C 0.71856 0.66741 0.48559 0.0
C600 C 0.68818 0.61937 0.49034 0.0
H601 H 0.60329 0.58505 0.41599 0.0
H602 H 0.63057 0.6011 0.45531 0.0
H603 H 0.6652 0.59598 0.48556 0.0
H604 H 0.75995 0.63605 0.54238 0.0
H605 H 0.72915 0.61897 0.51796 0.0
H606 H 0.70239 0.65146 0.41387 0.0
C607 C 0.63373 0.59646 0.42448 0.0
C608 C 0.67311 0.60818 0.46978 0.0
C609 C 0.61809 0.58731 0.40187 0.0
C610 C 0.74839 0.64511 0.52715 0.0
C611 C 0.73068 0.63532 0.51331 0.0
C612 C 0.6942 0.6396 0.43011 0.0
C613 C 0.65283 0.60063 0.40671 0.0
C614 C 0.66867 0.61244 0.42902 0.0
C615 C 0.71592 0.64621 0.49112 0.0
C616 C 0.69893 0.63516 0.47065 0.0
H617 H 0.64377 0.58125 0.31278 0.0
H618 H 0.67102 0.59708 0.35231 0.0
H619 H 0.67598 0.63223 0.37834 0.0
H620 H 0.73823 0.69337 0.49308 0.0
H621 H 0.70726 0.67627 0.46918 0.0
C622 C 0.16995 0.87 0.64701 0.0
C623 C 0.1732 0.87183 0.60507 0.0
C624 C 0.16117 0.88604 0.66897 0.0
C625 C 0.12733 0.93038 0.65412 0.0
H626 H 0.14372 0.94483 0.76324 0.0
C627 C 0.11239 1.00012 0.77243 0.0
C628 C 0.09118 1.00274 0.76702 0.0
C629 C 0.12231 0.98282 0.75712 0.0
C630 C 0.13898 0.94098 0.73277 0.0
H631 H 0.17075 0.89246 0.55383 0.0
H632 H 0.15566 0.92051 0.59227 0.0
H633 H 0.16277 0.91864 0.72627 0.0
H634 H 0.06355 0.98849 0.74368 0.0
H635 H 0.08084 0.95819 0.71745 0.0
H636 H 0.10383 0.95294 0.66016 0.0
C637 C 0.15956 0.90649 0.60799 0.0
C638 C 0.14981 0.92589 0.71168 0.0
C639 C 0.16839 0.89047 0.58602 0.0
C640 C 0.07991 0.98701 0.7483 0.0
C641 C 0.08985 0.96973 0.73288 0.0
C642 C 0.11648 0.94538 0.67521 0.0
C643 C 0.15541 0.90428 0.64953 0.0
C644 C 0.14418 0.9205 0.672 0.0
C645 C 0.11125 0.96775 0.736 0.0
C646 C 0.12219 0.95092 0.71474 0.0
H647 H 0.17352 0.8559 0.66274 0.0
H648 H 0.1581 0.88379 0.70086 0.0
H649 H 0.12237 0.92637 0.62385 0.0
H650 H 0.12154 0.01189 0.78685 0.0
H651 H 0.13881 0.98183 0.75995 0.0
C652 C 0.86639 0.41946 0.83776 0.0
C653 C 0.88532 0.42346 0.85651 0.0
C654 C 0.85034 0.41052 0.85956 0.0
C655 C 0.83157 0.39891 0.96306 0.0
H656 H 0.80305 0.35462 0.90875 0.0
C657 C 0.76947 0.32924 0.99635 0.0
C658 C 0.75417 0.34028 0.0168 0.0
C659 C 0.78673 0.33928 0.98092 0.0
C660 C 0.81101 0.36679 0.92456 0.0
H661 H 0.90174 0.42224 0.9136 0.0
H662 H 0.87379 0.40665 0.95144 0.0
H663 H 0.82968 0.37346 0.87305 0.0
H664 H 0.74579 0.37029 0.03956 0.0
H665 H 0.77583 0.38772 0.01271 0.0
H666 H 0.81297 0.39203 0.01476 0.0
C667 C 0.87134 0.41042 0.9199 0.0
C668 C 0.82607 0.37782 0.90384 0.0
C669 C 0.88741 0.41931 0.8981 0.0
C670 C 0.75723 0.36131 0.02382 0.0
C671 C 0.77451 0.37132 0.00852 0.0
C672 C 0.81643 0.3879 0.98378 0.0
C673 C 0.85279 0.40544 0.90065 0.0
C674 C 0.83649 0.39406 0.92276 0.0
C675 C 0.78914 0.36055 0.98576 0.0
C676 C 0.80596 0.37171 0.96475 0.0
H677 H 0.86419 0.42251 0.80584 0.0
H678 H 0.8361 0.40724 0.84401 0.0
H679 H 0.83925 0.41138 0.97846 0.0
H680 H 0.76765 0.31303 0.9904 0.0
H681 H 0.79792 0.33046 0.96418 0.0
C682 C 0.38848 0.009 0.28542 0.0
C683 C 0.40992 0.00812 0.28273 0.0
C684 C 0.37794 0.02652 0.27326 0.0
C685 C 0.38338 0.0806 0.23931 0.0
H686 H 0.33846 0.06578 0.16809 0.0
C687 C 0.33519 0.14158 0.15604 0.0
C688 C 0.33131 0.13795 0.11475 0.0
C689 C 0.34315 0.12616 0.18074 0.0
C690 C 0.35097 0.07019 0.18778 0.0
H691 H 0.4373 0.02533 0.26824 0.0
H692 H 0.41888 0.05605 0.2466 0.0
H693 H 0.35596 0.03931 0.20656 0.0
H694 H 0.33202 0.11489 0.06756 0.0
H695 H 0.34591 0.08795 0.11069 0.0
H696 H 0.37879 0.11144 0.21919 0.0
C697 C 0.41018 0.04328 0.25853 0.0
C698 C 0.36086 0.05505 0.21034 0.0
C699 C 0.42078 0.02573 0.27114 0.0
C700 C 0.33476 0.11822 0.09921 0.0
C701 C 0.34271 0.10276 0.12399 0.0
C702 C 0.37343 0.09579 0.21676 0.0
C703 C 0.3886 0.04346 0.25759 0.0
C704 C 0.37728 0.06002 0.23619 0.0
C705 C 0.34737 0.10667 0.16486 0.0
C706 C 0.35724 0.09072 0.19042 0.0
H707 H 0.37978 0.99559 0.29432 0.0
H708 H 0.36135 0.02635 0.27399 0.0
H709 H 0.39592 0.08496 0.25897 0.0
H710 H 0.33258 0.15655 0.16919 0.0
H711 H 0.34619 0.12957 0.21225 0.0
C712 C 0.38749 0.42031 0.68446 0.0
C713 C 0.3855 0.42471 0.72597 0.0
C714 C 0.3712 0.41185 0.66276 0.0
C715 C 0.34024 0.37985 0.6355 0.0
H716 H 0.28415 0.39842 0.64635 0.0
C717 C 0.26914 0.33241 0.58628 0.0
C718 C 0.25269 0.3432 0.56895 0.0
C719 C 0.28629 0.34293 0.60102 0.0
C720 C 0.29977 0.39316 0.64271 0.0
H721 H 0.36433 0.42469 0.77656 0.0
H722 H 0.33577 0.41009 0.7384 0.0
H723 H 0.31156 0.41682 0.6812 0.0
H724 H 0.24211 0.37336 0.55084 0.0
H725 H 0.272 0.39156 0.57633 0.0
H726 H 0.32841 0.35608 0.59729 0.0
C727 C 0.35005 0.41313 0.72281 0.0
C728 C 0.31541 0.40358 0.66299 0.0
C729 C 0.36642 0.42149 0.74467 0.0
C730 C 0.25438 0.36457 0.56441 0.0
C731 C 0.27145 0.37504 0.57925 0.0
C732 C 0.32456 0.36931 0.61551 0.0
C733 C 0.35245 0.40774 0.68188 0.0
C734 C 0.33582 0.39704 0.65963 0.0
C735 C 0.28731 0.36442 0.59878 0.0
C736 C 0.30415 0.37586 0.6189 0.0
H737 H 0.40189 0.42272 0.66889 0.0
H738 H 0.37338 0.40822 0.63107 0.0
H739 H 0.3558 0.37429 0.63271 0.0
H740 H 0.26833 0.31597 0.59035 0.0
H741 H 0.29828 0.33432 0.616 0.0
C742 C 0.83584 0.11607 0.49683 0.0
C743 C 0.83132 0.13474 0.47759 0.0
C744 C 0.84479 0.09999 0.47523 0.0
C745 C 0.85544 0.08031 0.37217 0.0
H746 H 0.90107 0.05353 0.42545 0.0
C747 C 0.8933 0.0058 0.31384 0.0
C748 C 0.91452 0.0033 0.31949 0.0
C749 C 0.88326 0.02311 0.32873 0.0
C750 C 0.88852 0.061 0.40993 0.0
H751 H 0.83159 0.15062 0.41988 0.0
H752 H 0.84716 0.12258 0.38235 0.0
H753 H 0.88222 0.08023 0.46079 0.0
H754 H 0.942 0.01774 0.34303 0.0
H755 H 0.92448 0.04806 0.36864 0.0
H756 H 0.86192 0.06113 0.32114 0.0
C757 C 0.84381 0.12039 0.41414 0.0
C758 C 0.8775 0.07609 0.43045 0.0
C759 C 0.83492 0.1365 0.43575 0.0
C760 C 0.92565 0.01913 0.3382 0.0
C761 C 0.91557 0.03642 0.35325 0.0
C762 C 0.86644 0.06513 0.35167 0.0
C763 C 0.84934 0.10214 0.43386 0.0
C764 C 0.86078 0.08588 0.41192 0.0
C765 C 0.89418 0.03833 0.34972 0.0
C766 C 0.88309 0.05527 0.37035 0.0
H767 H 0.83322 0.11412 0.52896 0.0
H768 H 0.8485 0.08598 0.49115 0.0
H769 H 0.8426 0.08751 0.35709 0.0
H770 H 0.88426 0.99394 0.29942 0.0
H771 H 0.86677 0.02404 0.32561 0.0
C772 C 0.11827 0.59096 0.18364 0.0
C773 C 0.12135 0.58399 0.2235 0.0
C774 C 0.13421 0.60016 0.16202 0.0
C775 C 0.1903 0.60598 0.15704 0.0
H776 H 0.17784 0.65701 0.1021 0.0
C777 C 0.25016 0.64621 0.05774 0.0
C778 C 0.25327 0.66718 0.06548 0.0
C779 C 0.233 0.63605 0.07303 0.0
C780 C 0.18155 0.6428 0.11731 0.0
H781 H 0.144 0.5804 0.27103 0.0
H782 H 0.1719 0.59625 0.23297 0.0
H783 H 0.15065 0.63844 0.13745 0.0
H784 H 0.23999 0.69417 0.09322 0.0
H785 H 0.20982 0.67639 0.11961 0.0
H786 H 0.22122 0.61044 0.1374 0.0
C787 C 0.15707 0.59465 0.21861 0.0
C788 C 0.16596 0.63207 0.13727 0.0
C789 C 0.14106 0.58556 0.24043 0.0
C790 C 0.23804 0.67804 0.08653 0.0
C791 C 0.22078 0.66784 0.10176 0.0
C792 C 0.20582 0.6166 0.13679 0.0
C793 C 0.15368 0.60246 0.1795 0.0
C794 C 0.17018 0.61357 0.15749 0.0
C795 C 0.21844 0.64659 0.09629 0.0
C796 C 0.20165 0.63516 0.11676 0.0
H797 H 0.10335 0.58995 0.16946 0.0
H798 H 0.13121 0.60569 0.13169 0.0
H799 H 0.19402 0.59174 0.17215 0.0
H800 H 0.26147 0.63739 0.04131 0.0
H801 H 0.23141 0.61977 0.06754 0.0
C802 C 0.67 0.88895 0.99212 0.0
C803 C 0.67425 0.87006 0.97355 0.0
C804 C 0.66078 0.90477 0.9702 0.0
C805 C 0.62739 0.92805 0.92622 0.0
H806 H 0.64083 0.94129 0.81499 0.0
C807 C 0.57783 0.98427 0.83524 0.0
C808 C 0.58877 0.99972 0.81497 0.0
C809 C 0.58797 0.96694 0.85001 0.0
C810 C 0.6369 0.93778 0.84605 0.0
H811 H 0.67331 0.85352 0.91658 0.0
H812 H 0.65722 0.88107 0.87855 0.0
H813 H 0.66091 0.91556 0.85113 0.0
H814 H 0.61863 0.00831 0.79159 0.0
H815 H 0.63624 0.97821 0.81733 0.0
H816 H 0.60372 0.95052 0.9216 0.0
C817 C 0.661 0.88366 0.91004 0.0
C818 C 0.64833 0.92296 0.86668 0.0
C819 C 0.67018 0.86783 0.93195 0.0
C820 C 0.60975 0.99675 0.80727 0.0
C821 C 0.61986 0.97942 0.8219 0.0
C822 C 0.61595 0.9428 0.90561 0.0
C823 C 0.65566 0.90211 0.92918 0.0
C824 C 0.64379 0.91802 0.90712 0.0
C825 C 0.60924 0.96465 0.84463 0.0
C826 C 0.62061 0.94792 0.86533 0.0
H827 H 0.67299 0.89126 0.02403 0.0
H828 H 0.65725 0.91897 0.98563 0.0
H829 H 0.62325 0.92438 0.95711 0.0
H830 H 0.56167 0.98606 0.84171 0.0
H831 H 0.57928 0.95564 0.86676 0.0
C832 C 0.39051 0.1714 0.99375 0.0
C833 C 0.37057 0.16519 0.98351 0.0
C834 C 0.40745 0.16339 0.97289 0.0
C835 C 0.42038 0.13469 0.87796 0.0
H836 H 0.47185 0.1244 0.93274 0.0
C837 C 0.4854 0.0834 0.81361 0.0
C838 C 0.5049 0.09253 0.81313 0.0
C839 C 0.46909 0.09298 0.83357 0.0
C840 C 0.45755 0.12728 0.9171 0.0
H841 H 0.35283 0.14505 0.94465 0.0
H842 H 0.38196 0.13062 0.91006 0.0
H843 H 0.44353 0.13996 0.96998 0.0
H844 H 0.52261 0.11875 0.83362 0.0
H845 H 0.49425 0.13511 0.86898 0.0
H846 H 0.4343 0.12126 0.82555 0.0
C847 C 0.38475 0.14229 0.93266 0.0
C848 C 0.44136 0.13633 0.93831 0.0
C849 C 0.36796 0.15051 0.95283 0.0
C850 C 0.50772 0.1114 0.83298 0.0
C851 C 0.49156 0.12071 0.85357 0.0
C852 C 0.43642 0.12529 0.85707 0.0
C853 C 0.40475 0.14877 0.94187 0.0
C854 C 0.42247 0.14005 0.91909 0.0
C855 C 0.47212 0.11158 0.85416 0.0
C856 C 0.45512 0.12146 0.87645 0.0
H857 H 0.39297 0.1827 0.01726 0.0
H858 H 0.42259 0.1689 0.98068 0.0
H859 H 0.40634 0.13778 0.86165 0.0
H860 H 0.48279 0.06883 0.79879 0.0
H861 H 0.4542 0.08562 0.83374 0.0
C862 C 0.60676 0.61662 0.19648 0.0
C863 C 0.59268 0.6189 0.22838 0.0
C864 C 0.61475 0.63371 0.17674 0.0
C865 C 0.60478 0.6858 0.14777 0.0
H866 H 0.66385 0.69151 0.14219 0.0
C867 C 0.64311 0.75755 0.07891 0.0
C868 C 0.66221 0.7555 0.05972 0.0
C869 C 0.63418 0.74098 0.099 0.0
C870 C 0.64734 0.69002 0.14269 0.0
H871 H 0.57562 0.64091 0.26398 0.0
H872 H 0.58927 0.67102 0.2282 0.0
H873 H 0.64888 0.66278 0.17874 0.0
H874 H 0.68661 0.73428 0.04539 0.0
H875 H 0.67058 0.70501 0.07861 0.0
H876 H 0.60305 0.71242 0.11034 0.0
C877 C 0.5942 0.65587 0.21913 0.0
C878 C 0.63879 0.67365 0.16405 0.0
C879 C 0.58647 0.63871 0.2396 0.0
C880 C 0.6719 0.73633 0.06 0.0
C881 C 0.66278 0.71962 0.07948 0.0
C882 C 0.61331 0.70198 0.12569 0.0
C883 C 0.60859 0.65347 0.18786 0.0
C884 C 0.61746 0.6714 0.16677 0.0
C885 C 0.64393 0.72179 0.09987 0.0
C886 C 0.63474 0.70434 0.12283 0.0
H887 H 0.61196 0.6016 0.18718 0.0
H888 H 0.62572 0.63148 0.15254 0.0
H889 H 0.58827 0.68421 0.14908 0.0
H890 H 0.63535 0.7722 0.07977 0.0
H891 H 0.61991 0.74348 0.11488 0.0
C892 C 1.00199 0.89137 0.31228 0.0
C893 C 1.00117 0.91286 0.30985 0.0
C894 C 0.0181 0.88163 0.33232 0.0
C895 C 0.05734 0.89067 0.41074 0.0
H896 H 0.08052 0.84018 0.36952 0.0
C897 C 0.11594 0.84314 0.50306 0.0
C898 C 0.13317 0.83647 0.48127 0.0
C899 C 0.0989 0.85118 0.48269 0.0
C900 C 0.07425 0.8543 0.38143 0.0
H901 H 0.01698 0.94094 0.3259 0.0
H902 H 0.04535 0.92387 0.36039 0.0
H903 H 0.05398 0.85771 0.33101 0.0
H904 H 0.14558 0.83205 0.421 0.0
H905 H 0.11609 0.84599 0.38579 0.0
H906 H 0.07801 0.88749 0.46071 0.0
C907 C 0.03333 0.91459 0.34717 0.0
C908 C 0.05892 0.86427 0.35949 0.0
C909 C 0.01719 0.92436 0.32698 0.0
C910 C 0.1326 0.83714 0.43875 0.0
C911 C 0.11561 0.84504 0.41849 0.0
C912 C 0.07269 0.88067 0.43274 0.0
C913 C 0.03382 0.89311 0.35055 0.0
C914 C 0.05033 0.88264 0.37375 0.0
C915 C 0.09869 0.85251 0.44016 0.0
C916 C 0.08142 0.86243 0.41822 0.0
H917 H 0.98987 0.88201 0.29964 0.0
H918 H 0.01785 0.86509 0.33466 0.0
H919 H 0.05086 0.90463 0.42291 0.0
H920 H 0.11591 0.84285 0.53582 0.0
H921 H 0.08598 0.85656 0.50024 0.0
C922 C 0.83354 0.26876 0.56431 0.0
C923 C 0.84306 0.2495 0.56292 0.0
C924 C 0.8429 0.28514 0.58461 0.0
C925 C 0.89292 0.3015 0.63105 0.0
H926 H 0.85844 0.34147 0.68451 0.0
C927 C 0.92162 0.36467 0.74416 0.0
C928 C 0.91626 0.38452 0.73157 0.0
C929 C 0.91325 0.34747 0.72464 0.0
C930 C 0.86822 0.33034 0.6698 0.0
H931 H 0.86975 0.2323 0.58225 0.0
H932 H 0.88552 0.26033 0.61869 0.0
H933 H 0.84268 0.31319 0.64773 0.0
H934 H 0.89763 0.40184 0.68916 0.0
H935 H 0.88277 0.372 0.65632 0.0
H936 H 0.91843 0.31859 0.65451 0.0
C937 C 0.87126 0.26323 0.60299 0.0
C938 C 0.85923 0.31424 0.64826 0.0
C939 C 0.86213 0.24703 0.5821 0.0
C940 C 0.90226 0.38679 0.69946 0.0
C941 C 0.8936 0.36972 0.68075 0.0
C942 C 0.90189 0.31739 0.65333 0.0
C943 C 0.86179 0.28254 0.60476 0.0
C944 C 0.87142 0.29967 0.62814 0.0
C945 C 0.899 0.34992 0.69306 0.0
C946 C 0.88962 0.33206 0.6725 0.0
H947 H 0.81885 0.27115 0.54985 0.0
H948 H 0.83526 0.29984 0.58446 0.0
H949 H 0.90292 0.2909 0.61548 0.0
H950 H 0.93235 0.36246 0.76878 0.0
H951 H 0.91761 0.33229 0.73462 0.0
C952 C 0.61442 0.83945 0.07404 0.0
C953 C 0.63317 0.83966 0.09505 0.0
C954 C 0.59717 0.84924 0.09022 0.0
C955 C 0.58345 0.89148 0.15721 0.0
H956 H 0.53044 0.86518 0.16771 0.0
C957 C 0.51009 0.93419 0.20948 0.0
C958 C 0.49914 0.92441 0.24064 0.0
C959 C 0.52602 0.92401 0.18952 0.0
C960 C 0.54516 0.87271 0.16482 0.0
H961 H 0.64822 0.84983 0.15021 0.0
H962 H 0.61832 0.86699 0.17779 0.0
H963 H 0.55899 0.84648 0.13685 0.0
H964 H 0.49618 0.89614 0.27474 0.0
H965 H 0.52378 0.87843 0.23969 0.0
H966 H 0.56972 0.91767 0.18528 0.0
C967 C 0.617 0.85935 0.14881 0.0
C968 C 0.56141 0.86207 0.14698 0.0
C969 C 0.63409 0.84937 0.13303 0.0
C970 C 0.5044 0.90421 0.25116 0.0
C971 C 0.52008 0.89397 0.23084 0.0
C972 C 0.56714 0.90222 0.17445 0.0
C973 C 0.59846 0.85965 0.12735 0.0
C974 C 0.58079 0.87125 0.14362 0.0
C975 C 0.53105 0.90374 0.19984 0.0
C976 C 0.54792 0.89284 0.17897 0.0
H977 H 0.61318 0.83209 0.04477 0.0
H978 H 0.58301 0.84924 0.07312 0.0
H979 H 0.59821 0.89897 0.15466 0.0
H980 H 0.50633 0.94968 0.20041 0.0
H981 H 0.53419 0.93186 0.16558 0.0
C982 C 0.33189 0.26673 1.0006 0.0
C983 C 0.34332 0.25049 0.01699 0.0
C984 C 0.34171 0.28277 0.98021 0.0
C985 C 0.39224 0.30777 0.96712 0.0
H986 H 0.36857 0.32799 0.86718 0.0
C987 C 0.41971 0.38182 0.88998 0.0
C988 C 0.42031 0.38267 0.84748 0.0
C989 C 0.41164 0.36478 0.9098 0.0
C990 C 0.37549 0.32234 0.89479 0.0
H991 H 0.37408 0.23862 0.02546 0.0
H992 H 0.39107 0.26645 0.99006 0.0
H993 H 0.35132 0.30068 0.90447 0.0
H994 H 0.41356 0.36589 0.79247 0.0
H995 H 0.39954 0.33587 0.82729 0.0
H996 H 0.41652 0.32921 0.95726 0.0
C997 C 0.37457 0.26694 0.99318 0.0
C998 C 0.36545 0.30691 0.91648 0.0
C999 C 0.36478 0.25092 0.01341 0.0
C1000 C 0.41334 0.36569 0.82523 0.0
C1001 C 0.40513 0.3486 0.84516 0.0
C1002 C 0.40225 0.32319 0.94549 0.0
C1003 C 0.36316 0.28294 0.97592 0.0
C1004 C 0.37367 0.2995 0.95299 0.0
C1005 C 0.40393 0.3481 0.88768 0.0
C1006 C 0.39395 0.33075 0.90919 0.0
H1007 H 0.31533 0.26681 0.00262 0.0
H1008 H 0.3325 0.29502 0.96771 0.0
H1009 H 0.39892 0.30252 0.99526 0.0
H1010 H 0.42502 0.3946 0.90808 0.0
H1011 H 0.41078 0.36502 0.94252 0.0
C1012 C 0.88949 0.16269 0.57908 0.0
C1013 C 0.8722 0.16907 0.60103 0.0
C1014 C 0.90664 0.15479 0.59925 0.0
C1015 C 0.93158 0.15191 0.70004 0.0
H1016 H 0.9553 0.10174 0.65848 0.0
C1017 C 0.00444 0.11547 0.76811 0.0
C1018 C 0.00521 0.094 0.77114 0.0
C1019 C 0.98826 0.1251 0.74811 0.0
C1020 C 0.94873 0.11566 0.67064 0.0
H1021 H 0.85976 0.17307 0.66141 0.0
H1022 H 0.88947 0.15936 0.6963 0.0
H1023 H 0.92782 0.11856 0.621 0.0
H1024 H 0.98926 0.06584 0.75615 0.0
H1025 H 0.96081 0.08273 0.72163 0.0
H1026 H 0.95213 0.14879 0.75011 0.0
C1027 C 0.88989 0.16044 0.66361 0.0
C1028 C 0.9332 0.12547 0.64885 0.0
C1029 C 0.87278 0.16819 0.64353 0.0
C1030 C 0.9891 0.08241 0.75457 0.0
C1031 C 0.97291 0.09207 0.73439 0.0
C1032 C 0.94712 0.14214 0.72176 0.0
C1033 C 0.90689 0.15332 0.64175 0.0
C1034 C 0.92434 0.14363 0.66345 0.0
C1035 C 0.97245 0.11353 0.7305 0.0
C1036 C 0.95581 0.12384 0.70746 0.0
H1037 H 0.88951 0.16316 0.54632 0.0
H1038 H 0.91961 0.14965 0.58159 0.0
H1039 H 0.9252 0.16597 0.71197 0.0
H1040 H 0.01663 0.12489 0.78034 0.0
H1041 H 0.9885 0.14163 0.74535 0.0
C1042 C 0.10615 0.6186 0.38332 0.0
C1043 C 0.09206 0.62135 0.35161 0.0
C1044 C 0.11473 0.63533 0.40324 0.0
C1045 C 0.12268 0.69172 0.39494 0.0
H1046 H 0.13681 0.68583 0.50844 0.0
C1047 C 0.14594 0.75903 0.49919 0.0
C1048 C 0.16475 0.75683 0.51961 0.0
C1049 C 0.13717 0.74254 0.47866 0.0
C1050 C 0.13307 0.6876 0.47669 0.0
H1051 H 0.07584 0.64395 0.31602 0.0
H1052 H 0.09013 0.67345 0.3522 0.0
H1053 H 0.12002 0.6577 0.47316 0.0
H1054 H 0.18894 0.73549 0.53486 0.0
H1055 H 0.17303 0.70624 0.50001 0.0
H1056 H 0.13502 0.72212 0.39953 0.0
C1057 C 0.095 0.65824 0.36094 0.0
C1058 C 0.12352 0.67146 0.45626 0.0
C1059 C 0.08668 0.64136 0.34032 0.0
C1060 C 0.17441 0.73761 0.51961 0.0
C1061 C 0.16534 0.72093 0.49971 0.0
C1062 C 0.13186 0.70802 0.41567 0.0
C1063 C 0.10917 0.65543 0.39276 0.0
C1064 C 0.11839 0.67316 0.41492 0.0
C1065 C 0.14676 0.72337 0.47865 0.0
C1066 C 0.13728 0.70603 0.45662 0.0
H1067 H 0.11097 0.6034 0.39237 0.0
H1068 H 0.126 0.63239 0.42654 0.0
H1069 H 0.11932 0.6936 0.36309 0.0
H1070 H 0.1382 0.77368 0.49814 0.0
H1071 H 0.12279 0.74476 0.46287 0.0
C1072 C 0.89144 0.67093 0.49414 0.0
C1073 C 0.87158 0.66541 0.48172 0.0
C1074 C 0.90862 0.66271 0.4745 0.0
C1075 C 0.92577 0.61793 0.41909 0.0
H1076 H 0.96567 0.65308 0.36699 0.0
C1077 C 0.98819 0.58432 0.31462 0.0
C1078 C 0.00749 0.59382 0.31449 0.0
C1079 C 0.97163 0.59346 0.33462 0.0
C1080 C 0.95493 0.64296 0.38193 0.0
H1081 H 0.85423 0.64673 0.43942 0.0
H1082 H 0.88408 0.63213 0.40626 0.0
H1083 H 0.93768 0.66826 0.40553 0.0
H1084 H 0.02462 0.62023 0.33572 0.0
H1085 H 0.99624 0.63561 0.37166 0.0
H1086 H 0.94309 0.5926 0.39688 0.0
C1087 C 0.88636 0.64295 0.43072 0.0
C1088 C 0.93886 0.65173 0.4039 0.0
C1089 C 0.86929 0.65144 0.44961 0.0
C1090 C 0.00986 0.61263 0.33465 0.0
C1091 C 0.99348 0.62154 0.35521 0.0
C1092 C 0.94203 0.60913 0.39783 0.0
C1093 C 0.90616 0.64848 0.44291 0.0
C1094 C 0.92405 0.63929 0.42231 0.0
C1095 C 0.97411 0.6121 0.35565 0.0
C1096 C 0.95677 0.6215 0.37857 0.0
H1097 H 0.89366 0.68166 0.51875 0.0
H1098 H 0.9238 0.66718 0.48439 0.0
H1099 H 0.91454 0.60802 0.43325 0.0
H1100 H 0.98589 0.56983 0.29934 0.0
H1101 H 0.9569 0.58586 0.33349 0.0
C1102 C 0.14229 0.25447 0.56756 0.0
C1103 C 0.16364 0.25505 0.56178 0.0
C1104 C 0.13314 0.23824 0.58826 0.0
C1105 C 0.14083 0.18492 0.6205 0.0
H1106 H 0.0988 0.19785 0.69948 0.0
C1107 C 0.09045 0.1224 0.69031 0.0
C1108 C 0.08756 0.1228 0.73248 0.0
C1109 C 0.09915 0.13904 0.67027 0.0
C1110 C 0.11059 0.19402 0.67774 0.0
H1111 H 0.19203 0.2387 0.57248 0.0
H1112 H 0.17596 0.2102 0.60844 0.0
H1113 H 0.11579 0.22547 0.6625 0.0
H1114 H 0.0907 0.14146 0.78639 0.0
H1115 H 0.10593 0.17076 0.75109 0.0
H1116 H 0.13576 0.1535 0.63586 0.0
C1117 C 0.16634 0.22234 0.59675 0.0
C1118 C 0.12018 0.2098 0.65626 0.0
C1119 C 0.17554 0.23865 0.57609 0.0
C1120 C 0.0927 0.14068 0.7539 0.0
C1121 C 0.10143 0.15744 0.7337 0.0
C1122 C 0.13117 0.16915 0.64179 0.0
C1123 C 0.14508 0.22215 0.60366 0.0
C1124 C 0.1353 0.20541 0.62721 0.0
C1125 C 0.10517 0.15657 0.69179 0.0
C1126 C 0.11583 0.17351 0.6704 0.0
H1127 H 0.13262 0.26682 0.55694 0.0
H1128 H 0.11669 0.23835 0.59241 0.0
H1129 H 0.15234 0.18103 0.59822 0.0
H1130 H 0.08641 0.10899 0.67273 0.0
H1131 H 0.10136 0.13809 0.63785 0.0
C1132 C 0.61456 0.33432 0.99314 0.0
C1133 C 0.63444 0.34075 0.98285 0.0
C1134 C 0.59749 0.34267 0.97324 0.0
C1135 C 0.58001 0.38841 0.92059 0.0
H1136 H 0.54275 0.35331 0.8612 0.0
C1137 C 0.51965 0.42253 0.81184 0.0
C1138 C 0.50064 0.41256 0.80887 0.0
C1139 C 0.53591 0.4134 0.83285 0.0
C1140 C 0.55273 0.3634 0.87816 0.0
H1141 H 0.65194 0.36132 0.94441 0.0
H1142 H 0.62229 0.3761 0.91088 0.0
H1143 H 0.57009 0.33811 0.90157 0.0
H1144 H 0.48378 0.38522 0.82601 0.0
H1145 H 0.51159 0.3698 0.86352 0.0
H1146 H 0.56257 0.4137 0.89843 0.0
C1147 C 0.61989 0.36447 0.9338 0.0
C1148 C 0.56842 0.35462 0.90122 0.0
C1149 C 0.63686 0.35587 0.95287 0.0
C1150 C 0.49832 0.39322 0.82707 0.0
C1151 C 0.51439 0.38429 0.84859 0.0
C1152 C 0.56411 0.3972 0.8982 0.0
C1153 C 0.60006 0.35794 0.94362 0.0
C1154 C 0.58232 0.36706 0.92226 0.0
C1155 C 0.53342 0.39425 0.85204 0.0
C1156 C 0.55034 0.38485 0.87625 0.0
H1157 H 0.61226 0.3227 0.01608 0.0
H1158 H 0.58228 0.33741 0.9813 0.0
H1159 H 0.59052 0.39833 0.93675 0.0
H1160 H 0.52191 0.43745 0.79822 0.0
H1161 H 0.55042 0.42141 0.83405 0.0
C1162 C 0.36876 0.74901 0.07012 0.0
C1163 C 0.34779 0.75047 0.06048 0.0
C1164 C 0.37888 0.76503 0.08987 0.0
C1165 C 0.36808 0.81023 0.15411 0.0
H1166 H 0.42446 0.825 0.13078 0.0
C1167 C 0.40167 0.88623 0.20456 0.0
C1168 C 0.42042 0.88644 0.22571 0.0
C1169 C 0.39476 0.86864 0.18525 0.0
C1170 C 0.40882 0.8208 0.13798 0.0
H1171 H 0.32124 0.77032 0.06293 0.0
H1172 H 0.33901 0.79852 0.09636 0.0
H1173 H 0.40812 0.797 0.09334 0.0
H1174 H 0.44707 0.86828 0.24124 0.0
H1175 H 0.43486 0.83711 0.20641 0.0
H1176 H 0.36858 0.83438 0.19781 0.0
C1177 C 0.34754 0.78474 0.0895 0.0
C1178 C 0.39941 0.80481 0.11652 0.0
C1179 C 0.33737 0.76865 0.06992 0.0
C1180 C 0.43252 0.86861 0.22549 0.0
C1181 C 0.42556 0.85083 0.20558 0.0
C1182 C 0.37741 0.82622 0.17524 0.0
C1183 C 0.36835 0.783 0.10042 0.0
C1184 C 0.37878 0.79955 0.12386 0.0
C1185 C 0.40637 0.85064 0.18605 0.0
C1186 C 0.39774 0.83193 0.16696 0.0
H1187 H 0.3773 0.73519 0.06357 0.0
H1188 H 0.39481 0.763 0.09808 0.0
H1189 H 0.35241 0.80627 0.16152 0.0
H1190 H 0.39199 0.89967 0.20326 0.0
H1191 H 0.38014 0.86911 0.16972 0.0
C1192 C 0.13263 0.3385 0.64407 0.0
C1193 C 0.13264 0.33622 0.60174 0.0
C1194 C 0.11593 0.34717 0.66391 0.0
C1195 C 0.06123 0.35989 0.65478 0.0
H1196 H 0.0744 0.4004 0.73674 0.0
C1197 C 1.00034 0.39199 0.76368 0.0
C1198 C 1.00035 0.41325 0.77061 0.0
C1199 C 0.01651 0.38264 0.74315 0.0
C1200 C 0.07046 0.38924 0.71378 0.0
H1201 H 0.11458 0.34038 0.54729 0.0
H1202 H 0.08516 0.35553 0.58222 0.0
H1203 H 0.10192 0.38357 0.69963 0.0
H1204 H 0.01768 0.44128 0.76201 0.0
H1205 H 0.04605 0.42487 0.72636 0.0
H1206 H 0.02974 0.3657 0.6688 0.0
C1207 C 0.09822 0.35059 0.59991 0.0
C1208 C 0.08622 0.37943 0.69279 0.0
C1209 C 0.11504 0.34189 0.57991 0.0
C1210 C 0.01725 0.42485 0.7575 0.0
C1211 C 0.0335 0.41546 0.73703 0.0
C1212 C 0.04545 0.36963 0.67597 0.0
C1213 C 0.09873 0.35378 0.64203 0.0
C1214 C 0.0818 0.36454 0.66327 0.0
C1215 C 0.03313 0.39429 0.72907 0.0
C1216 C 0.0499 0.38432 0.70588 0.0
H1217 H 0.14581 0.33405 0.66195 0.0
H1218 H 0.1166 0.34895 0.69647 0.0
H1219 H 0.05734 0.34846 0.63232 0.0
H1220 H 0.9876 0.38254 0.77331 0.0
H1221 H 0.01594 0.36626 0.73816 0.0
C1222 C 0.8664 0.75054 0.51643 0.0
C1223 C 0.84493 0.75014 0.51981 0.0
C1224 C 0.87624 0.76664 0.49656 0.0
C1225 C 0.86715 0.80643 0.41979 0.0
H1226 H 0.91786 0.82941 0.4609 0.0
C1227 C 0.91438 0.86548 0.32848 0.0
C1228 C 0.92073 0.88276 0.35054 0.0
C1229 C 0.90657 0.84828 0.34856 0.0
C1230 C 0.9037 0.82317 0.44904 0.0
H1231 H 0.81699 0.76661 0.50567 0.0
H1232 H 0.83425 0.79491 0.47135 0.0
H1233 H 0.90046 0.80255 0.49895 0.0
H1234 H 0.92481 0.89513 0.41097 0.0
H1235 H 0.91125 0.8653 0.44572 0.0
H1236 H 0.87017 0.8274 0.37032 0.0
C1237 C 0.84343 0.7826 0.48373 0.0
C1238 C 0.8938 0.80768 0.4707 0.0
C1239 C 0.83356 0.7665 0.50378 0.0
C1240 C 0.91996 0.88212 0.39303 0.0
C1241 C 0.91229 0.86494 0.41302 0.0
C1242 C 0.87708 0.82189 0.39805 0.0
C1243 C 0.86486 0.78271 0.47945 0.0
C1244 C 0.87535 0.79922 0.45646 0.0
C1245 C 0.90515 0.84797 0.39105 0.0
C1246 C 0.89539 0.83054 0.4126 0.0
H1247 H 0.87564 0.73815 0.52827 0.0
H1248 H 0.89275 0.76616 0.49349 0.0
H1249 H 0.85311 0.80003 0.40771 0.0
H1250 H 0.91477 0.86552 0.29572 0.0
H1251 H 0.9014 0.83531 0.33084 0.0
C1252 C 0.37036 0.65231 0.13213 0.0
C1253 C 0.37288 0.666 0.09969 0.0
C1254 C 0.38726 0.64379 0.15152 0.0
C1255 C 0.44331 0.63495 0.1402 0.0
H1256 H 0.43895 0.62214 0.25455 0.0
C1257 C 0.51154 0.61041 0.24124 0.0
C1258 C 0.50886 0.59189 0.26238 0.0
C1259 C 0.49512 0.61962 0.22129 0.0
C1260 C 0.4403 0.62554 0.22257 0.0
H1261 H 0.39517 0.68159 0.06226 0.0
H1262 H 0.42499 0.6674 0.09745 0.0
H1263 H 0.41065 0.63916 0.22036 0.0
H1264 H 0.48678 0.56867 0.27961 0.0
H1265 H 0.45773 0.58532 0.24573 0.0
H1266 H 0.47346 0.62196 0.14337 0.0
C1267 C 0.40984 0.66279 0.10719 0.0
C1268 C 0.42406 0.63521 0.20279 0.0
C1269 C 0.39279 0.67106 0.08714 0.0
C1270 C 0.48928 0.58294 0.26367 0.0
C1271 C 0.47271 0.59245 0.24438 0.0
C1272 C 0.45973 0.62564 0.16026 0.0
C1273 C 0.40728 0.64901 0.1397 0.0
C1274 C 0.42519 0.63981 0.16116 0.0
C1275 C 0.47557 0.61075 0.22269 0.0
C1276 C 0.45826 0.62067 0.2015 0.0
H1277 H 0.35523 0.64776 0.14215 0.0
H1278 H 0.38452 0.6328 0.17544 0.0
H1279 H 0.44472 0.63791 0.1081 0.0
H1280 H 0.52648 0.61759 0.23932 0.0
H1281 H 0.49766 0.63379 0.20497 0.0
C1282 C 0.58953 0.11935 0.89479 0.0
C1283 C 0.58636 0.11973 0.85268 0.0
C1284 C 0.59789 0.13623 0.91479 0.0
C1285 C 0.60814 0.19173 0.90592 0.0
H1286 H 0.64968 0.18032 0.98681 0.0
C1287 C 0.64065 0.2548 0.01027 0.0
C1288 C 0.66193 0.25488 0.01707 0.0
C1289 C 0.6312 0.23828 0.99085 0.0
C1290 C 0.63821 0.18379 0.96415 0.0
H1291 H 0.58882 0.13857 0.79887 0.0
H1292 H 0.60351 0.16813 0.83392 0.0
H1293 H 0.63341 0.1521 0.95079 0.0
H1294 H 0.68989 0.23744 0.00915 0.0
H1295 H 0.67338 0.2086 0.97526 0.0
H1296 H 0.61322 0.22347 0.91886 0.0
C1297 C 0.59943 0.15471 0.85141 0.0
C1298 C 0.6287 0.1676 0.9438 0.0
C1299 C 0.59104 0.13776 0.83131 0.0
C1300 C 0.67346 0.23782 0.00471 0.0
C1301 C 0.66398 0.22127 0.98531 0.0
C1302 C 0.61762 0.20794 0.92639 0.0
C1303 C 0.60331 0.15398 0.8933 0.0
C1304 C 0.61349 0.17135 0.91453 0.0
C1305 C 0.64277 0.22141 0.97773 0.0
C1306 C 0.63274 0.20417 0.95582 0.0
H1307 H 0.58591 0.10582 0.91236 0.0
H1308 H 0.60024 0.1353 0.94718 0.0
H1309 H 0.59642 0.19515 0.88373 0.0
H1310 H 0.63126 0.26767 0.01933 0.0
H1311 H 0.61479 0.23875 0.98611 0.0
C1312 C 0.30414 0.2287 0.18164 0.0
C1313 C 0.29185 0.21982 0.15141 0.0
C1314 C 0.29515 0.23718 0.21639 0.0
C1315 C 0.24555 0.25793 0.25267 0.0
H1316 H 0.26928 0.25123 0.35929 0.0
C1317 C 0.20319 0.28135 0.40019 0.0
C1318 C 0.21512 0.28999 0.43123 0.0
C1319 C 0.21254 0.27339 0.36538 0.0
C1320 C 0.26256 0.25346 0.32965 0.0
H1321 H 0.26055 0.21202 0.13508 0.0
H1322 H 0.24512 0.22645 0.19533 0.0
H1323 H 0.28612 0.23591 0.30084 0.0
H1324 H 0.24618 0.29792 0.44899 0.0
H1325 H 0.26227 0.2844 0.38849 0.0
H1326 H 0.22196 0.27544 0.28144 0.0
C1327 C 0.2616 0.22739 0.19192 0.0
C1328 C 0.27225 0.24467 0.29614 0.0
C1329 C 0.27051 0.21899 0.1574 0.0
C1330 C 0.23649 0.29114 0.42597 0.0
C1331 C 0.24578 0.28326 0.39133 0.0
C1332 C 0.23586 0.26672 0.28616 0.0
C1333 C 0.27372 0.23692 0.22156 0.0
C1334 C 0.26382 0.24671 0.25724 0.0
C1335 C 0.234 0.27396 0.36088 0.0
C1336 C 0.24423 0.26458 0.32509 0.0
H1337 H 0.3206 0.2296 0.17798 0.0
H1338 H 0.30493 0.24445 0.23863 0.0
H1339 H 0.2388 0.26011 0.22304 0.0
H1340 H 0.18671 0.28019 0.40329 0.0
H1341 H 0.20301 0.26625 0.34256 0.0
C1342 C 0.47547 0.4537 0.64732 0.0
C1343 C 0.4664 0.46553 0.67793 0.0
C1344 C 0.48371 0.46313 0.61285 0.0
C1345 C 0.48338 0.51154 0.55365 0.0
H1346 H 0.53698 0.49341 0.51837 0.0
C1347 C 0.52969 0.55475 0.43004 0.0
C1348 C 0.53893 0.54224 0.40067 0.0
C1349 C 0.52128 0.54607 0.46519 0.0
C1350 C 0.52194 0.49858 0.52761 0.0
H1351 H 0.45802 0.49648 0.69537 0.0
H1352 H 0.47234 0.51276 0.63569 0.0
H1353 H 0.52021 0.47611 0.57465 0.0
H1354 H 0.54724 0.51088 0.38607 0.0
H1355 H 0.53258 0.49597 0.44649 0.0
H1356 H 0.48509 0.53395 0.5064 0.0
C1357 C 0.47311 0.49624 0.63811 0.0
C1358 C 0.51228 0.48858 0.55978 0.0
C1359 C 0.465 0.48687 0.67251 0.0
C1360 C 0.54015 0.52103 0.40788 0.0
C1361 C 0.53186 0.51243 0.44281 0.0
C1362 C 0.49303 0.52152 0.52136 0.0
C1363 C 0.48289 0.48456 0.60816 0.0
C1364 C 0.49286 0.49488 0.57312 0.0
C1365 C 0.52212 0.52476 0.47176 0.0
C1366 C 0.51239 0.51508 0.50778 0.0
H1367 H 0.47678 0.43724 0.65052 0.0
H1368 H 0.4909 0.45367 0.59002 0.0
H1369 H 0.46834 0.51667 0.56295 0.0
H1370 H 0.52851 0.57113 0.42543 0.0
H1371 H 0.51407 0.55603 0.48715 0.0
C1372 C 0.20425 0.78222 0.68291 0.0
C1373 C 0.21615 0.79108 0.65209 0.0
C1374 C 0.21363 0.77391 0.71745 0.0
C1375 C 0.26257 0.77375 0.77574 0.0
H1376 H 0.24306 0.72128 0.81475 0.0
C1377 C 0.30635 0.72747 0.89854 0.0
C1378 C 0.29415 0.71891 0.92926 0.0
C1379 C 0.29725 0.73577 0.86368 0.0
C1380 C 0.24863 0.73601 0.80446 0.0
H1381 H 0.24725 0.79883 0.63433 0.0
H1382 H 0.26341 0.78435 0.69386 0.0
H1383 H 0.22566 0.73785 0.75831 0.0
H1384 H 0.26286 0.7117 0.94654 0.0
H1385 H 0.24721 0.72612 0.88648 0.0
H1386 H 0.28555 0.77189 0.82193 0.0
C1387 C 0.24686 0.78385 0.69171 0.0
C1388 C 0.23857 0.74557 0.77217 0.0
C1389 C 0.23754 0.79206 0.65732 0.0
C1390 C 0.27278 0.71824 0.92365 0.0
C1391 C 0.26375 0.7264 0.88895 0.0
C1392 C 0.27264 0.76418 0.80803 0.0
C1393 C 0.2351 0.77441 0.72201 0.0
C1394 C 0.24539 0.76458 0.75738 0.0
C1395 C 0.27579 0.73551 0.85869 0.0
C1396 C 0.26577 0.74521 0.82291 0.0
H1397 H 0.18776 0.78121 0.67992 0.0
H1398 H 0.20407 0.767 0.74048 0.0
H1399 H 0.26812 0.7885 0.76549 0.0
H1400 H 0.32283 0.72823 0.90188 0.0
H1401 H 0.307 0.74246 0.84071 0.0
C1402 C 0.04132 0.52183 0.17256 0.0
C1403 C 0.03959 0.54305 0.17926 0.0
C1404 C 0.03281 0.51272 0.13826 0.0
C1405 C 0.01292 0.52305 0.03549 0.0
H1406 H 0.98479 0.47127 0.05137 0.0
C1407 C 0.96511 0.48619 0.90848 0.0
C1408 C 0.96681 0.46491 0.90246 0.0
C1409 C 0.9734 0.49552 0.94277 0.0
C1410 C 0.99277 0.48559 0.04628 0.0
H1411 H 0.02814 0.57144 0.15403 0.0
H1412 H 0.01312 0.55545 0.09372 0.0
H1413 H 1.00071 0.48845 0.10885 0.0
H1414 H 0.97802 0.43669 0.92881 0.0
H1415 H 0.99269 0.45306 0.98896 0.0
H1416 H 0.00503 0.52016 0.9729 0.0
C1417 C 0.02118 0.54589 0.11525 0.0
C1418 C 1.00191 0.49548 0.07926 0.0
C1419 C 0.02978 0.55508 0.14978 0.0
C1420 C 0.97639 0.45308 0.93252 0.0
C1421 C 0.98479 0.46249 0.967 0.0
C1422 C 0.00379 0.51315 0.00249 0.0
C1423 C 0.02226 0.52451 0.10951 0.0
C1424 C 0.01217 0.51431 0.07431 0.0
C1425 C 0.98371 0.4839 0.97215 0.0
C1426 C 0.99358 0.49428 0.00742 0.0
H1427 H 0.04902 0.51207 0.19428 0.0
H1428 H 0.03443 0.49633 0.13441 0.0
H1429 H 0.02092 0.53736 0.03043 0.0
H1430 H 0.95759 0.49579 0.88626 0.0
H1431 H 0.97179 0.51194 0.94612 0.0
C1432 C 0.73692 0.7896 0.92508 0.0
C1433 C 0.71551 0.78871 0.92997 0.0
C1434 C 0.74625 0.78154 0.89064 0.0
C1435 C 0.73805 0.74357 0.81011 0.0
H1436 H 0.78453 0.77044 0.75974 0.0
C1437 C 0.77169 0.71696 0.65811 0.0
C1438 C 0.79302 0.71786 0.65216 0.0
C1439 C 0.76279 0.72493 0.69304 0.0
C1440 C 0.77178 0.76258 0.77384 0.0
H1441 H 0.6871 0.77922 0.90164 0.0
H1442 H 0.70347 0.76521 0.84102 0.0
H1443 H 0.76717 0.78682 0.81647 0.0
H1444 H 0.82178 0.72732 0.6791 0.0
H1445 H 0.80616 0.74118 0.74072 0.0
H1446 H 0.74265 0.71933 0.76754 0.0
C1447 C 0.713 0.77195 0.86431 0.0
C1448 C 0.76175 0.77202 0.80624 0.0
C1449 C 0.7036 0.78012 0.89886 0.0
C1450 C 0.80532 0.72641 0.68272 0.0
C1451 C 0.79635 0.73449 0.71783 0.0
C1452 C 0.74809 0.73412 0.77776 0.0
C1453 C 0.73447 0.77235 0.86007 0.0
C1454 C 0.74473 0.76265 0.82473 0.0
C1455 C 0.77493 0.73402 0.72315 0.0
C1456 C 0.76503 0.74355 0.75909 0.0
H1457 H 0.7466 0.79619 0.94832 0.0
H1458 H 0.76281 0.78195 0.88862 0.0
H1459 H 0.72527 0.73573 0.82415 0.0
H1460 H 0.7617 0.7104 0.63534 0.0
H1461 H 0.74626 0.7245 0.69581 0.0
C1462 C 0.73494 0.28655 0.156 0.0
C1463 C 0.71356 0.28614 0.15037 0.0
C1464 C 0.74384 0.27819 0.19061 0.0
C1465 C 0.73329 0.26188 0.29554 0.0
H1466 H 0.78292 0.23004 0.28119 0.0
C1467 C 0.76855 0.21559 0.42639 0.0
C1468 C 0.78996 0.21618 0.43127 0.0
C1469 C 0.7593 0.2235 0.39167 0.0
C1470 C 0.76921 0.23907 0.28582 0.0
H1471 H 0.68475 0.27711 0.17766 0.0
H1472 H 0.7004 0.26233 0.23844 0.0
H1473 H 0.76619 0.2453 0.22254 0.0
H1474 H 0.81848 0.22503 0.40262 0.0
H1475 H 0.80228 0.23901 0.34178 0.0
H1476 H 0.73635 0.2557 0.35883 0.0
C1477 C 0.71023 0.26925 0.21586 0.0
C1478 C 0.75959 0.24782 0.25217 0.0
C1479 C 0.70125 0.27769 0.18102 0.0
C1480 C 0.80197 0.2243 0.39982 0.0
C1481 C 0.79266 0.23228 0.36493 0.0
C1482 C 0.74292 0.25314 0.3292 0.0
C1483 C 0.73168 0.26912 0.22072 0.0
C1484 C 0.74154 0.2594 0.2566 0.0
C1485 C 0.77117 0.23226 0.36075 0.0
C1486 C 0.76102 0.24162 0.32479 0.0
H1487 H 0.74494 0.29317 0.13335 0.0
H1488 H 0.76035 0.27882 0.19374 0.0
H1489 H 0.7196 0.27093 0.30014 0.0
H1490 H 0.75879 0.20923 0.44972 0.0
H1491 H 0.74278 0.22276 0.38912 0.0
C1492 C 0.02973 0.05456 0.93358 0.0
C1493 C 0.03808 0.04229 0.9028 0.0
C1494 C 0.02151 0.04554 0.96852 0.0
C1495 C 0.02118 0.99715 0.02782 0.0
H1496 H 0.96887 0.01691 0.06702 0.0
C1497 C 0.97497 0.9534 0.14967 0.0
C1498 C 0.96672 0.96544 0.18089 0.0
C1499 C 0.9831 0.96265 0.11493 0.0
C1500 C 0.98356 0.0113 0.05665 0.0
H1501 H 0.04503 0.01098 0.8854 0.0
H1502 H 0.03069 0.99544 0.94566 0.0
H1503 H 0.98538 0.03407 0.01014 0.0
H1504 H 0.95979 0.99662 0.19922 0.0
H1505 H 0.97397 0.01258 0.13914 0.0
H1506 H 0.01935 0.97437 0.07426 0.0
C1507 C 0.03053 0.01198 0.94314 0.0
C1508 C 0.99307 0.0212 0.02415 0.0
C1509 C 0.03864 0.02093 0.90836 0.0
C1510 C 0.96611 0.98684 0.1759 0.0
C1511 C 0.97413 0.99603 0.14126 0.0
C1512 C 0.01167 0.98725 0.06027 0.0
C1513 C 0.02163 0.02411 0.97345 0.0
C1514 C 0.01198 0.01422 0.00927 0.0
C1515 C 0.983 0.98411 0.1106 0.0
C1516 C 0.99273 0.99419 0.07508 0.0
H1517 H 0.02909 0.07104 0.93028 0.0
H1518 H 0.01499 0.05533 0.99158 0.0
H1519 H 0.03587 0.99153 0.01747 0.0
H1520 H 0.97564 0.93689 0.15252 0.0
H1521 H 0.98958 0.95301 0.09157 0.0
C1522 C 0.53356 0.05264 0.6449 0.0
C1523 C 0.53592 0.04052 0.67978 0.0
C1524 C 0.52559 0.04412 0.60913 0.0
C1525 C 0.49357 1.00117 0.57264 0.0
H1526 H 0.51979 0.01066 0.46924 0.0
C1527 C 0.47022 0.95614 0.42799 0.0
C1528 C 0.47088 0.96668 0.39094 0.0
C1529 C 0.47795 0.96525 0.46337 0.0
C1530 C 0.51203 0.00805 0.49772 0.0
H1531 H 0.53188 0.00978 0.70389 0.0
H1532 H 0.51804 0.99525 0.64221 0.0
H1533 H 0.53326 0.02722 0.52977 0.0
H1534 H 0.47955 0.99538 0.36249 0.0
H1535 H 0.49232 0.01128 0.42366 0.0
H1536 H 0.47217 0.98225 0.54078 0.0
C1537 C 0.52217 0.01132 0.64244 0.0
C1538 C 0.51982 0.01757 0.53245 0.0
C1539 C 0.53027 0.01971 0.67782 0.0
C1540 C 0.47906 0.98663 0.39031 0.0
C1541 C 0.48654 0.99576 0.42553 0.0
C1542 C 0.48565 0.99181 0.53787 0.0
C1543 C 0.51961 0.02339 0.60771 0.0
C1544 C 0.51076 0.01414 0.57037 0.0
C1545 C 0.48631 0.98519 0.46256 0.0
C1546 C 0.4948 0.99504 0.49987 0.0
H1547 H 0.53775 0.06869 0.64529 0.0
H1548 H 0.52376 0.05383 0.58282 0.0
H1549 H 0.48609 0.9984 0.60138 0.0
H1550 H 0.46403 0.94076 0.42955 0.0
H1551 H 0.47766 0.9565 0.49119 0.0
C1552 C 0.20155 0.2788 0.68497 0.0
C1553 C 0.20986 0.29741 0.67134 0.0
C1554 C 0.21054 0.26829 0.71708 0.0
C1555 C 0.24909 0.27184 0.79941 0.0
H1556 H 0.25522 0.21365 0.7785 0.0
C1557 C 0.30266 0.22347 0.89632 0.0
C1558 C 0.29415 0.20547 0.91243 0.0
C1559 C 0.29319 0.23353 0.86421 0.0
C1560 C 0.25351 0.22983 0.78489 0.0
H1561 H 0.23325 0.32029 0.68194 0.0
H1562 H 0.24918 0.30186 0.73818 0.0
H1563 H 0.23554 0.23479 0.73173 0.0
H1564 H 0.26995 0.18302 0.9059 0.0
H1565 H 0.25331 0.2006 0.84922 0.0
H1566 H 0.26723 0.26688 0.85237 0.0
C1567 C 0.23555 0.29547 0.72436 0.0
C1568 C 0.24214 0.24196 0.75825 0.0
C1569 C 0.22638 0.30613 0.69234 0.0
C1570 C 0.27697 0.19671 0.8936 0.0
C1571 C 0.26738 0.20688 0.8614 0.0
C1572 C 0.26052 0.25972 0.82593 0.0
C1573 C 0.22822 0.27602 0.73596 0.0
C1574 C 0.23978 0.26312 0.76519 0.0
C1575 C 0.2749 0.22588 0.84768 0.0
C1576 C 0.26293 0.2386 0.81889 0.0
H1577 H 0.18878 0.27179 0.66919 0.0
H1578 H 0.20415 0.25365 0.72597 0.0
H1579 H 0.24738 0.288 0.80594 0.0
H1580 H 0.31593 0.2305 0.91036 0.0
H1581 H 0.29965 0.24785 0.85361 0.0
C1582 C 0.45108 0.46695 0.94881 0.0
C1583 C 0.46223 0.45675 0.91866 0.0
C1584 C 0.46103 0.47396 0.98385 0.0
C1585 C 0.51232 0.47287 0.03696 0.0
H1586 H 0.49499 0.52625 0.0743 0.0
C1587 C 0.55674 0.51596 0.16165 0.0
C1588 C 0.5547 0.53724 0.1646 0.0
C1589 C 0.54571 0.50507 0.13256 0.0
C1590 C 0.50041 0.51156 0.06365 0.0
H1591 H 0.492 0.44418 0.90321 0.0
H1592 H 0.50927 0.45706 0.96194 0.0
H1593 H 0.47422 0.50807 0.0256 0.0
H1594 H 0.54072 0.56415 0.13855 0.0
H1595 H 0.52317 0.54556 0.08473 0.0
H1596 H 0.53942 0.4771 0.07169 0.0
C1597 C 0.49292 0.45952 0.9599 0.0
C1598 C 0.48807 0.50079 0.03638 0.0
C1599 C 0.48299 0.45228 0.9256 0.0
C1600 C 0.54271 0.54771 0.13627 0.0
C1601 C 0.53225 0.53692 0.10613 0.0
C1602 C 0.52499 0.48393 0.06302 0.0
C1603 C 0.48231 0.47104 0.98903 0.0
C1604 C 0.49398 0.48138 0.02214 0.0
C1605 C 0.53282 0.51532 0.10495 0.0
C1606 C 0.51935 0.50354 0.07663 0.0
H1607 H 0.43503 0.4705 0.94437 0.0
H1608 H 0.45216 0.48227 0.00609 0.0
H1609 H 0.51724 0.45775 0.02784 0.0
H1610 H 0.56549 0.50755 0.18401 0.0
H1611 H 0.54647 0.48854 0.13358 0.0
C1612 C 0.22667 0.80805 0.38981 0.0
C1613 C 0.21098 0.79852 0.41187 0.0
C1614 C 0.23596 0.79777 0.35747 0.0
C1615 C 0.24525 0.74462 0.32461 0.0
H1616 H 0.26686 0.77012 0.22779 0.0
C1617 C 0.28053 0.69985 0.18958 0.0
C1618 C 0.29676 0.70934 0.16898 0.0
C1619 C 0.27077 0.70999 0.22157 0.0
C1620 C 0.26114 0.76282 0.25497 0.0
H1621 H 0.19135 0.77181 0.41551 0.0
H1622 H 0.20696 0.75425 0.35832 0.0
H1623 H 0.24663 0.79041 0.27501 0.0
H1624 H 0.31676 0.73585 0.1677 0.0
H1625 H 0.30019 0.7532 0.22406 0.0
H1626 H 0.25973 0.71702 0.30448 0.0
C1627 C 0.21263 0.76927 0.36661 0.0
C1628 C 0.24949 0.77446 0.28193 0.0
C1629 C 0.20352 0.77942 0.399 0.0
C1630 C 0.30418 0.72826 0.183 0.0
C1631 C 0.29455 0.7383 0.21493 0.0
C1632 C 0.25686 0.73298 0.2976 0.0
C1633 C 0.22956 0.77789 0.34665 0.0
C1634 C 0.2414 0.7655 0.31708 0.0
C1635 C 0.27719 0.7297 0.2334 0.0
C1636 C 0.26502 0.74197 0.26258 0.0
H1637 H 0.23286 0.82266 0.39951 0.0
H1638 H 0.24898 0.80484 0.34274 0.0
H1639 H 0.23961 0.73732 0.35185 0.0
H1640 H 0.27436 0.6854 0.17902 0.0
H1641 H 0.25743 0.70296 0.23523 0.0
C1642 C 0.03115 0.55247 0.4334 0.0
C1643 C 0.04986 0.54472 0.41913 0.0
C1644 C 0.02116 0.54322 0.46588 0.0
C1645 C 0.0165 0.49265 0.51282 0.0
H1646 H 0.98326 0.52156 0.5914 0.0
C1647 C 0.97727 0.45372 0.64886 0.0
C1648 C 0.95836 0.46136 0.66239 0.0
C1649 C 0.98742 0.46289 0.61648 0.0
C1650 C 0.9922 0.51326 0.5692 0.0
H1651 H 0.0735 0.52206 0.42918 0.0
H1652 H 0.05614 0.50595 0.48679 0.0
H1653 H 0.00527 0.54086 0.54557 0.0
H1654 H 0.93461 0.48376 0.6512 0.0
H1655 H 0.9523 0.49978 0.59388 0.0
H1656 H 0.00344 0.46505 0.53655 0.0
C1657 C 0.04909 0.51907 0.47239 0.0
C1658 C 0.00494 0.52432 0.54316 0.0
C1659 C 0.05919 0.52846 0.43988 0.0
C1660 C 0.94906 0.47744 0.64106 0.0
C1661 C 0.95934 0.48677 0.60871 0.0
C1662 C 0.00377 0.48159 0.53891 0.0
C1663 C 0.02961 0.52592 0.48477 0.0
C1664 C 0.01723 0.51415 0.5146 0.0
C1665 C 0.97896 0.48003 0.59704 0.0
C1666 C 0.99144 0.49177 0.56738 0.0
H1667 H 0.0236 0.56497 0.41778 0.0
H1668 H 0.00616 0.54885 0.47437 0.0
H1669 H 0.02541 0.48435 0.4906 0.0
H1670 H 0.9848 0.44138 0.66497 0.0
H1671 H 1.00252 0.45736 0.60849 0.0
C1672 C 0.72537 0.80627 0.19099 0.0
C1673 C 0.70929 0.79697 0.16959 0.0
C1674 C 0.73471 0.79596 0.22325 0.0
C1675 C 0.74321 0.74282 0.25702 0.0
H1676 H 0.76602 0.76841 0.35269 0.0
C1677 C 0.77855 0.69813 0.39227 0.0
C1678 C 0.79501 0.70748 0.41244 0.0
C1679 C 0.76884 0.70823 0.36015 0.0
C1680 C 0.75997 0.76108 0.32582 0.0
H1681 H 0.68911 0.77064 0.16707 0.0
H1682 H 0.70483 0.75304 0.22414 0.0
H1683 H 0.74584 0.78883 0.30557 0.0
H1684 H 0.81545 0.73366 0.41283 0.0
H1685 H 0.79898 0.75092 0.35621 0.0
H1686 H 0.75733 0.71505 0.27737 0.0
C1687 C 0.71073 0.7679 0.21538 0.0
C1688 C 0.74834 0.77279 0.29892 0.0
C1689 C 0.70155 0.77809 0.18307 0.0
C1690 C 0.80271 0.72617 0.39783 0.0
C1691 C 0.79312 0.73617 0.36577 0.0
C1692 C 0.75481 0.73109 0.28397 0.0
C1693 C 0.72799 0.77627 0.23467 0.0
C1694 C 0.73982 0.76381 0.26419 0.0
C1695 C 0.77553 0.72777 0.34776 0.0
C1696 C 0.7634 0.74011 0.31858 0.0
H1697 H 0.7318 0.82068 0.18079 0.0
H1698 H 0.748 0.80282 0.23744 0.0
H1699 H 0.73723 0.73548 0.23009 0.0
H1700 H 0.77217 0.68386 0.40331 0.0
H1701 H 0.75531 0.70136 0.34687 0.0
C1702 C 0.80403 0.22751 0.68469 0.0
C1703 C 0.79589 0.20879 0.67133 0.0
C1704 C 0.79505 0.23795 0.71686 0.0
C1705 C 0.75693 0.23404 0.79963 0.0
H1706 H 0.74911 0.29187 0.77701 0.0
C1707 C 0.70239 0.28153 0.89558 0.0
C1708 C 0.71058 0.29976 0.91127 0.0
C1709 C 0.71196 0.27157 0.86351 0.0
C1710 C 0.75129 0.27579 0.78385 0.0
H1711 H 0.77292 0.18555 0.68257 0.0
H1712 H 0.75701 0.20385 0.73888 0.0
H1713 H 0.76926 0.27093 0.7307 0.0
H1714 H 0.73421 0.32277 0.90399 0.0
H1715 H 0.75102 0.30535 0.84744 0.0
H1716 H 0.73881 0.23889 0.8526 0.0
C1717 C 0.77048 0.2104 0.72479 0.0
C1718 C 0.76293 0.26379 0.75751 0.0
C1719 C 0.77963 0.19984 0.69271 0.0
C1720 C 0.72745 0.30886 0.89204 0.0
C1721 C 0.73714 0.2988 0.85991 0.0
C1722 C 0.74525 0.24602 0.82587 0.0
C1723 C 0.77758 0.22997 0.73604 0.0
C1724 C 0.76588 0.24277 0.76509 0.0
C1725 C 0.73 0.27958 0.84665 0.0
C1726 C 0.74221 0.267 0.81816 0.0
H1727 H 0.81664 0.23467 0.66867 0.0
H1728 H 0.80124 0.25271 0.72553 0.0
H1729 H 0.7591 0.21799 0.8066 0.0
H1730 H 0.68934 0.27425 0.90991 0.0
H1731 H 0.70581 0.25705 0.85324 0.0
C1732 C 0.94948 0.9753 0.4431 0.0
C1733 C 0.95941 0.95993 0.42089 0.0
C1734 C 0.95956 0.9848 0.47546 0.0
C1735 C 0.00469 0.98142 0.54357 0.0
H1736 H 0.00372 0.0407 0.53681 0.0
C1737 C 0.05849 0.0303 0.64159 0.0
C1738 C 0.04842 0.04586 0.66302 0.0
C1739 C 0.04875 0.02073 0.6089 0.0
C1740 C 0.00408 0.02417 0.53921 0.0
H1741 H 0.98669 0.94117 0.41689 0.0
H1742 H 0.00409 0.95748 0.47344 0.0
H1743 H 0.98219 0.02051 0.49156 0.0
H1744 H 0.02126 0.06488 0.66526 0.0
H1745 H 0.00442 0.04842 0.60833 0.0
H1746 H 0.02652 0.98507 0.59132 0.0
C1747 C 0.98868 0.96234 0.46605 0.0
C1748 C 0.99162 0.0126 0.51354 0.0
C1749 C 0.97872 0.953 0.43364 0.0
C1750 C 0.02934 0.0529 0.64915 0.0
C1751 C 0.0197 0.04347 0.61649 0.0
C1752 C 0.01713 0.99298 0.5693 0.0
C1753 C 0.97957 0.97891 0.48622 0.0
C1754 C 0.99176 0.9911 0.51548 0.0
C1755 C 0.02891 0.02672 0.59705 0.0
C1756 C 0.01695 0.01449 0.56744 0.0
H1757 H 0.93467 0.98104 0.43362 0.0
H1758 H 0.95205 0.99734 0.49093 0.0
H1759 H 0.00505 0.96488 0.54591 0.0
H1760 H 0.07312 0.02448 0.65192 0.0
H1761 H 0.05635 0.00807 0.59402 0.0
C1762 C 0.52755 0.05005 0.93503 0.0
C1763 C 0.54526 0.04108 0.9188 0.0
C1764 C 0.5163 0.03998 0.96487 0.0
C1765 C 0.51583 0.9966 0.03737 0.0
H1766 H 0.45728 0.99899 0.01736 0.0
C1767 C 0.45885 0.95192 0.13705 0.0
C1768 C 0.44335 0.96436 0.1531 0.0
C1769 C 0.47044 0.95865 0.10397 0.0
C1770 C 0.47358 0.99817 0.02337 0.0
H1771 H 0.56579 0.01514 0.92249 0.0
H1772 H 0.54604 0.99737 0.97489 0.0
H1773 H 0.48071 0.01718 0.97271 0.0
H1774 H 0.42712 0.993 0.14664 0.0
H1775 H 0.44671 0.00448 0.08804 0.0
H1776 H 0.50855 0.97767 0.08836 0.0
C1777 C 0.54096 0.01231 0.96484 0.0
C1778 C 0.48703 0.00873 0.99798 0.0
C1779 C 0.55239 0.02255 0.9351 0.0
C1780 C 0.43858 0.98288 0.13389 0.0
C1781 C 0.44995 0.9895 0.10057 0.0
C1782 C 0.50233 0.98597 0.06278 0.0
C1783 C 0.5223 0.02053 0.97873 0.0
C1784 C 0.50829 0.00844 0.00513 0.0
C1785 C 0.4666 0.97788 0.08636 0.0
C1786 C 0.48102 0.98693 0.05645 0.0
H1787 H 0.52172 0.0643 0.92281 0.0
H1788 H 0.50235 0.04704 0.97576 0.0
H1789 H 0.53209 0.99608 0.04377 0.0
H1790 H 0.46321 0.93788 0.15227 0.0
H1791 H 0.48306 0.94929 0.0935 0.0
loop_
_geom_bond_atom_site_label_1
_geom_bond_atom_site_label_2
_geom_bond_distance
_geom_bond_site_symmetry_2
_ccdc_geom_bond_type
Fe0 O2 1.918 . S
Fe0 O5 1.997 . S
Fe0 O6 2.002 1_554 S
Fe0 O11 1.976 . S
Fe0 O14 1.996 . S
Fe1 O2 1.918 1_556 S
Fe1 O9 1.997 . S
Fe1 O12 1.996 . S
Fe1 O16 1.976 1_556 S
Fe1 O19 2.002 . S
O2 Fe0 1.918 . S
O2 Fe1 1.918 1_554 S
O2 Fe3 1.918 . S
Fe3 O2 1.918 . S
Fe3 O4 2.002 . S
Fe3 O13 1.976 . S
Fe3 O17 1.996 . S
Fe3 O20 1.997 . S
O4 Fe3 2.002 . S
O4 C21 1.295 . S
O5 Fe0 1.997 . S
O5 C21 1.235 . S
O6 Fe0 2.002 1_556 S
O6 C7 1.295 . S
C7 O6 1.295 . S
C7 O9 1.235 . S
C8 O13 1.287 . S
C8 O14 1.255 . S
O9 Fe1 1.997 . S
O9 C7 1.235 . S
C10 O16 1.287 . S
C10 O17 1.255 . S
O11 Fe0 1.976 . S
O11 C18 1.287 . S
O12 Fe1 1.996 . S
O12 C18 1.255 1_556 S
O13 Fe3 1.976 . S
O13 C8 1.287 . S
O14 Fe0 1.996 . S
O14 C8 1.255 . S
C15 O19 1.295 . S
C15 O20 1.235 1_556 S
O16 Fe1 1.976 1_554 S
O16 C10 1.287 . S
O17 Fe3 1.996 . S
O17 C10 1.255 . S
C18 O11 1.287 . S
C18 O12 1.255 1_554 S
O19 Fe1 2.002 . S
O19 C15 1.295 . S
O20 Fe3 1.997 . S
O20 C15 1.235 1_554 S
C21 O4 1.295 . S
C21 O5 1.235 . S
Fe22 O24 1.918 . S
Fe22 O27 1.997 . S
Fe22 O28 2.002 . S
Fe22 O33 1.976 . S
Fe22 O36 1.996 . S
Fe23 O24 1.918 . S
Fe23 O31 1.997 . S
Fe23 O34 1.996 . S
Fe23 O38 1.976 . S
Fe23 O41 2.002 . S
O24 Fe22 1.918 . S
O24 Fe23 1.918 . S
O24 Fe25 1.918 . S
Fe25 O24 1.918 . S
Fe25 O26 2.002 . S
Fe25 O35 1.976 . S
Fe25 O39 1.996 . S
Fe25 O42 1.997 . S
O26 Fe25 2.002 . S
O26 C43 1.295 . S
O27 Fe22 1.997 . S
O27 C43 1.235 . S
O28 Fe22 2.002 . S
O28 C29 1.295 . S
C29 O28 1.295 . S
C29 O31 1.235 . S
C30 O35 1.287 . S
C30 O36 1.255 . S
O31 Fe23 1.997 . S
O31 C29 1.235 . S
C32 O38 1.287 . S
C32 O39 1.255 . S
O33 Fe22 1.976 . S
O33 C40 1.287 . S
O34 Fe23 1.996 . S
O34 C40 1.255 . S
O35 Fe25 1.976 . S
O35 C30 1.287 . S
O36 Fe22 1.996 . S
O36 C30 1.255 . S
C37 O41 1.295 . S
C37 O42 1.235 . S
O38 Fe23 1.976 . S
O38 C32 1.287 . S
O39 Fe25 1.996 . S
O39 C32 1.255 . S
C40 O33 1.287 . S
C40 O34 1.255 . S
O41 Fe23 2.002 . S
O41 C37 1.295 . S
O42 Fe25 1.997 . S
O42 C37 1.235 . S
C43 O26 1.295 . S
C43 O27 1.235 . S
Fe44 O46 1.918 . S
Fe44 O49 1.997 . S
Fe44 O50 2.002 . S
Fe44 O55 1.976 . S
Fe44 O58 1.996 . S
Fe45 O46 1.918 . S
Fe45 O53 1.997 . S
Fe45 O56 1.996 . S
Fe45 O60 1.976 . S
Fe45 O63 2.002 . S
O46 Fe44 1.918 . S
O46 Fe45 1.918 . S
O46 Fe47 1.918 . S
Fe47 O46 1.918 . S
Fe47 O48 2.002 . S
Fe47 O57 1.976 . S
Fe47 O61 1.996 . S
Fe47 O64 1.997 . S
O48 Fe47 2.002 . S
O48 C65 1.295 . S
O49 Fe44 1.997 . S
O49 C65 1.235 . S
O50 Fe44 2.002 . S
O50 C51 1.295 . S
C51 O50 1.295 . S
C51 O53 1.235 . S
C52 O57 1.287 . S
C52 O58 1.255 . S
O53 Fe45 1.997 . S
O53 C51 1.235 . S
C54 O60 1.287 . S
C54 O61 1.255 . S
O55 Fe44 1.976 . S
O55 C62 1.287 . S
O56 Fe45 1.996 . S
O56 C62 1.255 . S
O57 Fe47 1.976 . S
O57 C52 1.287 . S
O58 Fe44 1.996 . S
O58 C52 1.255 . S
C59 O63 1.295 . S
C59 O64 1.235 . S
O60 Fe45 1.976 . S
O60 C54 1.287 . S
O61 Fe47 1.996 . S
O61 C54 1.255 . S
C62 O55 1.287 . S
C62 O56 1.255 . S
O63 Fe45 2.002 . S
O63 C59 1.295 . S
O64 Fe47 1.997 . S
O64 C59 1.235 . S
C65 O48 1.295 . S
C65 O49 1.235 . S
Fe66 O68 1.918 . S
Fe66 O71 1.997 . S
Fe66 O72 2.002 . S
Fe66 O77 1.976 . S
Fe66 O80 1.996 . S
Fe67 O68 1.918 . S
Fe67 O75 1.997 . S
Fe67 O78 1.996 . S
Fe67 O82 1.976 . S
Fe67 O85 2.002 . S
O68 Fe66 1.918 . S
O68 Fe67 1.918 . S
O68 Fe69 1.918 . S
Fe69 O68 1.918 . S
Fe69 O70 2.002 . S
Fe69 O79 1.976 . S
Fe69 O83 1.996 . S
Fe69 O86 1.997 . S
O70 Fe69 2.002 . S
O70 C87 1.295 . S
O71 Fe66 1.997 . S
O71 C87 1.235 . S
O72 Fe66 2.002 . S
O72 C73 1.295 . S
C73 O72 1.295 . S
C73 O75 1.235 . S
C74 O79 1.287 . S
C74 O80 1.255 . S
O75 Fe67 1.997 . S
O75 C73 1.235 . S
C76 O82 1.287 . S
C76 O83 1.255 . S
O77 Fe66 1.976 . S
O77 C84 1.287 . S
O78 Fe67 1.996 . S
O78 C84 1.255 . S
O79 Fe69 1.976 . S
O79 C74 1.287 . S
O80 Fe66 1.996 . S
O80 C74 1.255 . S
C81 O85 1.295 . S
C81 O86 1.235 . S
O82 Fe67 1.976 . S
O82 C76 1.287 . S
O83 Fe69 1.996 . S
O83 C76 1.255 . S
C84 O77 1.287 . S
C84 O78 1.255 . S
O85 Fe67 2.002 . S
O85 C81 1.295 . S
O86 Fe69 1.997 . S
O86 C81 1.235 . S
C87 O70 1.295 . S
C87 O71 1.235 . S
Fe88 O90 1.918 . S
Fe88 O93 1.997 . S
Fe88 O94 2.002 . S
Fe88 O99 1.976 . S
Fe88 O102 1.996 . S
Fe89 O90 1.918 . S
Fe89 O97 1.997 . S
Fe89 O100 1.996 1_554 S
Fe89 O104 1.976 1_554 S
Fe89 O107 2.002 . S
O90 Fe88 1.918 . S
O90 Fe89 1.918 . S
O90 Fe91 1.918 . S
Fe91 O90 1.918 . S
Fe91 O92 2.002 . S
Fe91 O101 1.976 . S
Fe91 O105 1.996 . S
Fe91 O108 1.997 . S
O92 Fe91 2.002 . S
O92 C109 1.295 . S
O93 Fe88 1.997 . S
O93 C109 1.235 . S
O94 Fe88 2.002 . S
O94 C95 1.295 . S
C95 O94 1.295 . S
C95 O97 1.235 . S
C96 O101 1.287 . S
C96 O102 1.255 . S
O97 Fe89 1.997 . S
O97 C95 1.235 . S
C98 O104 1.287 . S
C98 O105 1.255 1_556 S
O99 Fe88 1.976 . S
O99 C106 1.287 . S
O100 Fe89 1.996 1_556 S
O100 C106 1.255 1_556 S
O101 Fe91 1.976 . S
O101 C96 1.287 . S
O102 Fe88 1.996 . S
O102 C96 1.255 . S
C103 O107 1.295 . S
C103 O108 1.235 . S
O104 Fe89 1.976 1_556 S
O104 C98 1.287 . S
O105 Fe91 1.996 . S
O105 C98 1.255 1_554 S
C106 O99 1.287 . S
C106 O100 1.255 1_554 S
O107 Fe89 2.002 . S
O107 C103 1.295 . S
O108 Fe91 1.997 . S
O108 C103 1.235 . S
C109 O92 1.295 . S
C109 O93 1.235 . S
Fe110 O112 1.918 . S
Fe110 O115 1.997 . S
Fe110 O116 2.002 . S
Fe110 O121 1.976 . S
Fe110 O124 1.996 . S
Fe111 O112 1.918 . S
Fe111 O119 1.997 . S
Fe111 O122 1.996 . S
Fe111 O126 1.976 . S
Fe111 O129 2.002 . S
O112 Fe110 1.918 . S
O112 Fe111 1.918 . S
O112 Fe113 1.918 . S
Fe113 O112 1.918 . S
Fe113 O114 2.002 . S
Fe113 O123 1.976 . S
Fe113 O127 1.996 . S
Fe113 O130 1.997 . S
O114 Fe113 2.002 . S
O114 C131 1.295 . S
O115 Fe110 1.997 . S
O115 C131 1.235 . S
O116 Fe110 2.002 . S
O116 C117 1.295 . S
C117 O116 1.295 . S
C117 O119 1.235 . S
C118 O123 1.287 . S
C118 O124 1.255 . S
O119 Fe111 1.997 . S
O119 C117 1.235 . S
C120 O126 1.287 . S
C120 O127 1.255 . S
O121 Fe110 1.976 . S
O121 C128 1.287 . S
O122 Fe111 1.996 . S
O122 C128 1.255 . S
O123 Fe113 1.976 . S
O123 C118 1.287 . S
O124 Fe110 1.996 . S
O124 C118 1.255 . S
C125 O129 1.295 . S
C125 O130 1.235 . S
O126 Fe111 1.976 . S
O126 C120 1.287 . S
O127 Fe113 1.996 . S
O127 C120 1.255 . S
C128 O121 1.287 . S
C128 O122 1.255 . S
O129 Fe111 2.002 . S
O129 C125 1.295 . S
O130 Fe113 1.997 . S
O130 C125 1.235 . S
C131 O114 1.295 . S
C131 O115 1.235 . S
Fe132 O134 1.918 . S
Fe132 O137 1.997 . S
Fe132 O138 2.002 . S
Fe132 O143 1.976 . S
Fe132 O146 1.996 . S
Fe133 O134 1.918 . S
Fe133 O141 1.997 . S
Fe133 O144 1.996 . S
Fe133 O148 1.976 . S
Fe133 O151 2.002 . S
O134 Fe132 1.918 . S
O134 Fe133 1.918 . S
O134 Fe135 1.918 . S
Fe135 O134 1.918 . S
Fe135 O136 2.002 . S
Fe135 O145 1.976 . S
Fe135 O149 1.996 . S
Fe135 O152 1.997 . S
O136 Fe135 2.002 . S
O136 C153 1.295 . S
O137 Fe132 1.997 . S
O137 C153 1.235 . S
O138 Fe132 2.002 . S
O138 C139 1.295 . S
C139 O138 1.295 . S
C139 O141 1.235 . S
C140 O145 1.287 . S
C140 O146 1.255 . S
O141 Fe133 1.997 . S
O141 C139 1.235 . S
C142 O148 1.287 . S
C142 O149 1.255 . S
O143 Fe132 1.976 . S
O143 C150 1.287 . S
O144 Fe133 1.996 . S
O144 C150 1.255 . S
O145 Fe135 1.976 . S
O145 C140 1.287 . S
O146 Fe132 1.996 . S
O146 C140 1.255 . S
C147 O151 1.295 . S
C147 O152 1.235 . S
O148 Fe133 1.976 . S
O148 C142 1.287 . S
O149 Fe135 1.996 . S
O149 C142 1.255 . S
C150 O143 1.287 . S
C150 O144 1.255 . S
O151 Fe133 2.002 . S
O151 C147 1.295 . S
O152 Fe135 1.997 . S
O152 C147 1.235 . S
C153 O136 1.295 . S
C153 O137 1.235 . S
Fe154 O156 1.918 . S
Fe154 O159 1.997 . S
Fe154 O160 2.002 . S
Fe154 O165 1.976 . S
Fe154 O168 1.996 . S
Fe155 O156 1.918 . S
Fe155 O163 1.997 . S
Fe155 O166 1.996 . S
Fe155 O170 1.976 . S
Fe155 O173 2.002 . S
O156 Fe154 1.918 . S
O156 Fe155 1.918 . S
O156 Fe157 1.918 . S
Fe157 O156 1.918 . S
Fe157 O158 2.002 . S
Fe157 O167 1.976 . S
Fe157 O171 1.996 . S
Fe157 O174 1.997 . S
O158 Fe157 2.002 . S
O158 C175 1.295 . S
O159 Fe154 1.997 . S
O159 C175 1.235 . S
O160 Fe154 2.002 . S
O160 C161 1.295 . S
C161 O160 1.295 . S
C161 O163 1.235 . S
C162 O167 1.287 . S
C162 O168 1.255 . S
O163 Fe155 1.997 . S
O163 C161 1.235 . S
C164 O170 1.287 . S
C164 O171 1.255 . S
O165 Fe154 1.976 . S
O165 C172 1.287 . S
O166 Fe155 1.996 . S
O166 C172 1.255 . S
O167 Fe157 1.976 . S
O167 C162 1.287 . S
O168 Fe154 1.996 . S
O168 C162 1.255 . S
C169 O173 1.295 . S
C169 O174 1.235 . S
O170 Fe155 1.976 . S
O170 C164 1.287 . S
O171 Fe157 1.996 . S
O171 C164 1.255 . S
C172 O165 1.287 . S
C172 O166 1.255 . S
O173 Fe155 2.002 . S
O173 C169 1.295 . S
O174 Fe157 1.997 . S
O174 C169 1.235 . S
C175 O158 1.295 . S
C175 O159 1.235 . S
Fe176 O178 1.918 . S
Fe176 O181 1.997 . S
Fe176 O182 2.002 . S
Fe176 O187 1.976 . S
Fe176 O190 1.996 . S
Fe177 O178 1.918 . S
Fe177 O185 1.997 . S
Fe177 O188 1.996 . S
Fe177 O192 1.976 . S
Fe177 O195 2.002 . S
O178 Fe176 1.918 . S
O178 Fe177 1.918 . S
O178 Fe179 1.918 . S
Fe179 O178 1.918 . S
Fe179 O180 2.002 . S
Fe179 O189 1.976 . S
Fe179 O193 1.996 . S
Fe179 O196 1.997 . S
O180 Fe179 2.002 . S
O180 C197 1.295 . S
O181 Fe176 1.997 . S
O181 C197 1.235 . S
O182 Fe176 2.002 . S
O182 C183 1.295 . S
C183 O182 1.295 . S
C183 O185 1.235 . S
C184 O189 1.287 . S
C184 O190 1.255 . S
O185 Fe177 1.997 . S
O185 C183 1.235 . S
C186 O192 1.287 . S
C186 O193 1.255 . S
O187 Fe176 1.976 . S
O187 C194 1.287 . S
O188 Fe177 1.996 . S
O188 C194 1.255 . S
O189 Fe179 1.976 . S
O189 C184 1.287 . S
O190 Fe176 1.996 . S
O190 C184 1.255 . S
C191 O195 1.295 . S
C191 O196 1.235 . S
O192 Fe177 1.976 . S
O192 C186 1.287 . S
O193 Fe179 1.996 . S
O193 C186 1.255 . S
C194 O187 1.287 . S
C194 O188 1.255 . S
O195 Fe177 2.002 . S
O195 C191 1.295 . S
O196 Fe179 1.997 . S
O196 C191 1.235 . S
C197 O180 1.295 . S
C197 O181 1.235 . S
Fe198 O200 1.918 . S
Fe198 O203 1.997 . S
Fe198 O204 2.002 . S
Fe198 O209 1.976 . S
Fe198 O212 1.996 . S
Fe199 O200 1.918 . S
Fe199 O207 1.997 . S
Fe199 O210 1.996 . S
Fe199 O214 1.976 . S
Fe199 O217 2.002 . S
O200 Fe198 1.918 . S
O200 Fe199 1.918 . S
O200 Fe201 1.918 . S
Fe201 O200 1.918 . S
Fe201 O202 2.002 . S
Fe201 O211 1.976 . S
Fe201 O215 1.996 . S
Fe201 O218 1.997 . S
O202 Fe201 2.002 . S
O202 C219 1.295 . S
O203 Fe198 1.997 . S
O203 C219 1.235 . S
O204 Fe198 2.002 . S
O204 C205 1.295 . S
C205 O204 1.295 . S
C205 O207 1.235 . S
C206 O211 1.287 . S
C206 O212 1.255 . S
O207 Fe199 1.997 . S
O207 C205 1.235 . S
C208 O214 1.287 . S
C208 O215 1.255 . S
O209 Fe198 1.976 . S
O209 C216 1.287 . S
O210 Fe199 1.996 . S
O210 C216 1.255 . S
O211 Fe201 1.976 . S
O211 C206 1.287 . S
O212 Fe198 1.996 . S
O212 C206 1.255 . S
C213 O217 1.295 . S
C213 O218 1.235 . S
O214 Fe199 1.976 . S
O214 C208 1.287 . S
O215 Fe201 1.996 . S
O215 C208 1.255 . S
C216 O209 1.287 . S
C216 O210 1.255 . S
O217 Fe199 2.002 . S
O217 C213 1.295 . S
O218 Fe201 1.997 . S
O218 C213 1.235 . S
C219 O202 1.295 . S
C219 O203 1.235 . S
Fe220 O222 1.918 . S
Fe220 O225 1.997 . S
Fe220 O226 2.002 1_554 S
Fe220 O231 1.976 . S
Fe220 O234 1.996 . S
Fe221 O222 1.918 1_556 S
Fe221 O229 1.997 . S
Fe221 O232 1.996 . S
Fe221 O236 1.976 1_556 S
Fe221 O239 2.002 . S
O222 Fe220 1.918 . S
O222 Fe221 1.918 1_554 S
O222 Fe223 1.918 . S
Fe223 O222 1.918 . S
Fe223 O224 2.002 . S
Fe223 O233 1.976 . S
Fe223 O237 1.996 . S
Fe223 O240 1.997 . S
O224 Fe223 2.002 . S
O224 C241 1.295 . S
O225 Fe220 1.997 . S
O225 C241 1.235 . S
O226 Fe220 2.002 1_556 S
O226 C227 1.295 . S
C227 O226 1.295 . S
C227 O229 1.235 . S
C228 O233 1.287 . S
C228 O234 1.255 . S
O229 Fe221 1.997 . S
O229 C227 1.235 . S
C230 O236 1.287 . S
C230 O237 1.255 . S
O231 Fe220 1.976 . S
O231 C238 1.287 . S
O232 Fe221 1.996 . S
O232 C238 1.255 1_556 S
O233 Fe223 1.976 . S
O233 C228 1.287 . S
O234 Fe220 1.996 . S
O234 C228 1.255 . S
C235 O239 1.295 . S
C235 O240 1.235 1_556 S
O236 Fe221 1.976 1_554 S
O236 C230 1.287 . S
O237 Fe223 1.996 . S
O237 C230 1.255 . S
C238 O231 1.287 . S
C238 O232 1.255 1_554 S
O239 Fe221 2.002 . S
O239 C235 1.295 . S
O240 Fe223 1.997 . S
O240 C235 1.235 1_554 S
C241 O224 1.295 . S
C241 O225 1.235 . S
Fe242 O244 1.918 . S
Fe242 O247 1.997 . S
Fe242 O248 2.002 . S
Fe242 O253 1.976 . S
Fe242 O256 1.996 . S
Fe243 O244 1.918 . S
Fe243 O251 1.997 . S
Fe243 O254 1.996 . S
Fe243 O258 1.976 . S
Fe243 O261 2.002 . S
O244 Fe242 1.918 . S
O244 Fe243 1.918 . S
O244 Fe245 1.918 . S
Fe245 O244 1.918 . S
Fe245 O246 2.002 . S
Fe245 O255 1.976 . S
Fe245 O259 1.996 . S
Fe245 O262 1.997 . S
O246 Fe245 2.002 . S
O246 C263 1.295 . S
O247 Fe242 1.997 . S
O247 C263 1.235 . S
O248 Fe242 2.002 . S
O248 C249 1.295 . S
C249 O248 1.295 . S
C249 O251 1.235 . S
C250 O255 1.287 . S
C250 O256 1.255 . S
O251 Fe243 1.997 . S
O251 C249 1.235 . S
C252 O258 1.287 . S
C252 O259 1.255 . S
O253 Fe242 1.976 . S
O253 C260 1.287 . S
O254 Fe243 1.996 . S
O254 C260 1.255 . S
O255 Fe245 1.976 . S
O255 C250 1.287 . S
O256 Fe242 1.996 . S
O256 C250 1.255 . S
C257 O261 1.295 . S
C257 O262 1.235 . S
O258 Fe243 1.976 . S
O258 C252 1.287 . S
O259 Fe245 1.996 . S
O259 C252 1.255 . S
C260 O253 1.287 . S
C260 O254 1.255 . S
O261 Fe243 2.002 . S
O261 C257 1.295 . S
O262 Fe245 1.997 . S
O262 C257 1.235 . S
C263 O246 1.295 . S
C263 O247 1.235 . S
Fe264 O266 1.918 . S
Fe264 O269 1.997 . S
Fe264 O270 2.002 . S
Fe264 O275 1.976 . S
Fe264 O278 1.996 . S
Fe265 O266 1.918 . S
Fe265 O273 1.997 . S
Fe265 O276 1.996 . S
Fe265 O280 1.976 . S
Fe265 O283 2.002 . S
O266 Fe264 1.918 . S
O266 Fe265 1.918 . S
O266 Fe267 1.918 . S
Fe267 O266 1.918 . S
Fe267 O268 2.002 . S
Fe267 O277 1.976 . S
Fe267 O281 1.996 . S
Fe267 O284 1.997 . S
O268 Fe267 2.002 . S
O268 C285 1.295 . S
O269 Fe264 1.997 . S
O269 C285 1.235 . S
O270 Fe264 2.002 . S
O270 C271 1.295 . S
C271 O270 1.295 . S
C271 O273 1.235 . S
C272 O277 1.287 . S
C272 O278 1.255 . S
O273 Fe265 1.997 . S
O273 C271 1.235 . S
C274 O280 1.287 . S
C274 O281 1.255 . S
O275 Fe264 1.976 . S
O275 C282 1.287 . S
O276 Fe265 1.996 . S
O276 C282 1.255 . S
O277 Fe267 1.976 . S
O277 C272 1.287 . S
O278 Fe264 1.996 . S
O278 C272 1.255 . S
C279 O283 1.295 . S
C279 O284 1.235 . S
O280 Fe265 1.976 . S
O280 C274 1.287 . S
O281 Fe267 1.996 . S
O281 C274 1.255 . S
C282 O275 1.287 . S
C282 O276 1.255 . S
O283 Fe265 2.002 . S
O283 C279 1.295 . S
O284 Fe267 1.997 . S
O284 C279 1.235 . S
C285 O268 1.295 . S
C285 O269 1.235 . S
Fe286 O288 1.918 . S
Fe286 O291 1.997 . S
Fe286 O292 2.002 . S
Fe286 O297 1.976 . S
Fe286 O300 1.996 . S
Fe287 O288 1.918 . S
Fe287 O295 1.997 . S
Fe287 O298 1.996 . S
Fe287 O302 1.976 . S
Fe287 O305 2.002 . S
O288 Fe286 1.918 . S
O288 Fe287 1.918 . S
O288 Fe289 1.918 . S
Fe289 O288 1.918 . S
Fe289 O290 2.002 . S
Fe289 O299 1.976 . S
Fe289 O303 1.996 . S
Fe289 O306 1.997 . S
O290 Fe289 2.002 . S
O290 C307 1.295 . S
O291 Fe286 1.997 . S
O291 C307 1.235 . S
O292 Fe286 2.002 . S
O292 C293 1.295 . S
C293 O292 1.295 . S
C293 O295 1.235 . S
C294 O299 1.287 . S
C294 O300 1.255 . S
O295 Fe287 1.997 . S
O295 C293 1.235 . S
C296 O302 1.287 . S
C296 O303 1.255 . S
O297 Fe286 1.976 . S
O297 C304 1.287 . S
O298 Fe287 1.996 . S
O298 C304 1.255 . S
O299 Fe289 1.976 . S
O299 C294 1.287 . S
O300 Fe286 1.996 . S
O300 C294 1.255 . S
C301 O305 1.295 . S
C301 O306 1.235 . S
O302 Fe287 1.976 . S
O302 C296 1.287 . S
O303 Fe289 1.996 . S
O303 C296 1.255 . S
C304 O297 1.287 . S
C304 O298 1.255 . S
O305 Fe287 2.002 . S
O305 C301 1.295 . S
O306 Fe289 1.997 . S
O306 C301 1.235 . S
C307 O290 1.295 . S
C307 O291 1.235 . S
Fe308 O310 1.918 . S
Fe308 O313 1.997 . S
Fe308 O314 2.002 . S
Fe308 O319 1.976 . S
Fe308 O322 1.996 . S
Fe309 O310 1.918 . S
Fe309 O317 1.997 . S
Fe309 O320 1.996 . S
Fe309 O324 1.976 . S
Fe309 O327 2.002 . S
O310 Fe308 1.918 . S
O310 Fe309 1.918 . S
O310 Fe311 1.918 . S
Fe311 O310 1.918 . S
Fe311 O312 2.002 . S
Fe311 O321 1.976 1_554 S
Fe311 O325 1.996 1_554 S
Fe311 O328 1.997 . S
O312 Fe311 2.002 . S
O312 C329 1.295 . S
O313 Fe308 1.997 . S
O313 C329 1.235 . S
O314 Fe308 2.002 . S
O314 C315 1.295 . S
C315 O314 1.295 . S
C315 O317 1.235 . S
C316 O321 1.287 . S
C316 O322 1.255 1_556 S
O317 Fe309 1.997 . S
O317 C315 1.235 . S
C318 O324 1.287 . S
C318 O325 1.255 1_554 S
O319 Fe308 1.976 . S
O319 C326 1.287 . S
O320 Fe309 1.996 . S
O320 C326 1.255 . S
O321 Fe311 1.976 1_556 S
O321 C316 1.287 . S
O322 Fe308 1.996 . S
O322 C316 1.255 1_554 S
C323 O327 1.295 . S
C323 O328 1.235 . S
O324 Fe309 1.976 . S
O324 C318 1.287 . S
O325 Fe311 1.996 1_556 S
O325 C318 1.255 1_556 S
C326 O319 1.287 . S
C326 O320 1.255 . S
O327 Fe309 2.002 . S
O327 C323 1.295 . S
O328 Fe311 1.997 . S
O328 C323 1.235 . S
C329 O312 1.295 . S
C329 O313 1.235 . S
Fe330 O332 1.918 . S
Fe330 O335 1.997 . S
Fe330 O336 2.002 . S
Fe330 O341 1.976 . S
Fe330 O344 1.996 . S
Fe331 O332 1.918 . S
Fe331 O339 1.997 . S
Fe331 O342 1.996 . S
Fe331 O346 1.976 . S
Fe331 O349 2.002 . S
O332 Fe330 1.918 . S
O332 Fe331 1.918 . S
O332 Fe333 1.918 . S
Fe333 O332 1.918 . S
Fe333 O334 2.002 . S
Fe333 O343 1.976 . S
Fe333 O347 1.996 . S
Fe333 O350 1.997 . S
O334 Fe333 2.002 . S
O334 C351 1.295 . S
O335 Fe330 1.997 . S
O335 C351 1.235 . S
O336 Fe330 2.002 . S
O336 C337 1.295 . S
C337 O336 1.295 . S
C337 O339 1.235 . S
C338 O343 1.287 . S
C338 O344 1.255 . S
O339 Fe331 1.997 . S
O339 C337 1.235 . S
C340 O346 1.287 . S
C340 O347 1.255 . S
O341 Fe330 1.976 . S
O341 C348 1.287 . S
O342 Fe331 1.996 . S
O342 C348 1.255 . S
O343 Fe333 1.976 . S
O343 C338 1.287 . S
O344 Fe330 1.996 . S
O344 C338 1.255 . S
C345 O349 1.295 . S
C345 O350 1.235 . S
O346 Fe331 1.976 . S
O346 C340 1.287 . S
O347 Fe333 1.996 . S
O347 C340 1.255 . S
C348 O341 1.287 . S
C348 O342 1.255 . S
O349 Fe331 2.002 . S
O349 C345 1.295 . S
O350 Fe333 1.997 . S
O350 C345 1.235 . S
C351 O334 1.295 . S
C351 O335 1.235 . S
C352 C353 1.349 . S
C352 C354 1.327 . S
C352 H377 0.950 . S
C353 C352 1.349 . S
C353 C369 1.349 1_556 S
C354 C352 1.327 . S
C354 C373 1.429 . S
C354 H378 0.950 . S
C355 C372 1.574 . S
C355 C374 1.368 . S
C355 H379 0.949 . S
H356 C360 0.949 . S
C357 C358 1.349 . S
C357 C359 1.327 . S
C357 H380 0.950 . S
C358 C357 1.349 . S
C358 C370 1.349 . S
C359 C357 1.327 . S
C359 C375 1.429 . S
C359 H381 0.950 . S
C360 H356 0.949 . S
C360 C368 1.574 . S
C360 C376 1.368 . S
H361 C369 0.950 . S
H362 C367 0.949 1_554 S
H363 C368 0.949 . S
H364 C370 0.950 . S
H365 C371 0.950 . S
H366 C372 0.949 . S
C367 H362 0.949 1_556 S
C367 C369 1.327 1_556 S
C367 C373 1.430 . S
C368 C360 1.574 . S
C368 H363 0.949 . S
C368 C374 1.368 . S
C369 C353 1.349 1_554 S
C369 H361 0.950 . S
C369 C367 1.327 1_554 S
C370 C358 1.349 . S
C370 H364 0.950 . S
C370 C371 1.327 . S
C371 H365 0.950 . S
C371 C370 1.327 . S
C371 C375 1.429 . S
C372 C355 1.574 . S
C372 H366 0.949 . S
C372 C376 1.368 . S
C373 C354 1.429 . S
C373 C367 1.430 . S
C373 C374 1.523 . S
C374 C355 1.368 . S
C374 C368 1.368 . S
C374 C373 1.523 . S
C375 C359 1.429 . S
C375 C371 1.429 . S
C375 C376 1.523 . S
C376 C360 1.368 . S
C376 C372 1.368 . S
C376 C375 1.523 . S
H377 C352 0.950 . S
H378 C354 0.950 . S
H379 C355 0.949 . S
H380 C357 0.950 . S
H381 C359 0.950 . S
C382 C383 1.349 . S
C382 C384 1.327 . S
C382 H407 0.950 . S
C383 C382 1.349 . S
C383 C399 1.349 . S
C384 C382 1.327 . S
C384 C403 1.429 . S
C384 H408 0.950 . S
C385 C402 1.574 . S
C385 C404 1.368 . S
C385 H409 0.949 . S
H386 C390 0.949 . S
C387 C388 1.349 . S
C387 C389 1.327 . S
C387 H410 0.950 . S
C388 C387 1.349 . S
C388 C400 1.349 . S
C389 C387 1.327 . S
C389 C405 1.429 . S
C389 H411 0.950 . S
C390 H386 0.949 . S
C390 C398 1.574 . S
C390 C406 1.368 . S
H391 C399 0.950 . S
H392 C397 0.950 . S
H393 C398 0.949 . S
H394 C400 0.950 . S
H395 C401 0.950 . S
H396 C402 0.949 . S
C397 H392 0.950 . S
C397 C399 1.327 . S
C397 C403 1.429 . S
C398 C390 1.574 . S
C398 H393 0.949 . S
C398 C404 1.368 . S
C399 C383 1.349 . S
C399 H391 0.950 . S
C399 C397 1.327 . S
C400 C388 1.349 . S
C400 H394 0.950 . S
C400 C401 1.327 . S
C401 H395 0.950 . S
C401 C400 1.327 . S
C401 C405 1.429 . S
C402 C385 1.574 . S
C402 H396 0.949 . S
C402 C406 1.368 . S
C403 C384 1.429 . S
C403 C397 1.429 . S
C403 C404 1.523 . S
C404 C385 1.368 . S
C404 C398 1.368 . S
C404 C403 1.523 . S
C405 C389 1.429 . S
C405 C401 1.429 . S
C405 C406 1.523 . S
C406 C390 1.368 . S
C406 C402 1.368 . S
C406 C405 1.523 . S
H407 C382 0.950 . S
H408 C384 0.950 . S
H409 C385 0.949 . S
H410 C387 0.950 . S
H411 C389 0.950 . S
C412 C413 1.349 . S
C412 C414 1.327 . S
C412 H437 0.950 . S
C413 C412 1.349 . S
C413 C429 1.349 . S
C414 C412 1.327 . S
C414 C433 1.429 . S
C414 H438 0.950 . S
C415 C432 1.574 . S
C415 C434 1.368 . S
C415 H439 0.949 . S
H416 C420 0.949 . S
C417 C418 1.349 . S
C417 C419 1.327 . S
C417 H440 0.950 . S
C418 C417 1.349 . S
C418 C430 1.349 . S
C419 C417 1.327 . S
C419 C435 1.429 . S
C419 H441 0.950 . S
C420 H416 0.949 . S
C420 C428 1.574 . S
C420 C436 1.368 . S
H421 C429 0.950 . S
H422 C427 0.950 . S
H423 C428 0.949 . S
H424 C430 0.950 . S
H425 C431 0.950 . S
H426 C432 0.949 . S
C427 H422 0.950 . S
C427 C429 1.327 . S
C427 C433 1.429 . S
C428 C420 1.574 . S
C428 H423 0.949 . S
C428 C434 1.368 . S
C429 C413 1.349 . S
C429 H421 0.950 . S
C429 C427 1.327 . S
C430 C418 1.349 . S
C430 H424 0.950 . S
C430 C431 1.327 . S
C431 H425 0.950 . S
C431 C430 1.327 . S
C431 C435 1.429 . S
C432 C415 1.574 . S
C432 H426 0.949 . S
C432 C436 1.368 . S
C433 C414 1.429 . S
C433 C427 1.429 . S
C433 C434 1.523 . S
C434 C415 1.368 . S
C434 C428 1.368 . S
C434 C433 1.523 . S
C435 C419 1.429 . S
C435 C431 1.429 . S
C435 C436 1.523 . S
C436 C420 1.368 . S
C436 C432 1.368 . S
C436 C435 1.523 . S
H437 C412 0.950 . S
H438 C414 0.950 . S
H439 C415 0.949 . S
H440 C417 0.950 . S
H441 C419 0.950 . S
C442 C443 1.349 . S
C442 C444 1.327 . S
C442 H467 0.950 . S
C443 C442 1.349 . S
C443 C459 1.349 . S
C444 C442 1.327 . S
C444 C463 1.429 . S
C444 H468 0.950 . S
C445 C462 1.574 . S
C445 C464 1.368 . S
C445 H469 0.949 . S
H446 C450 0.949 . S
C447 C448 1.349 . S
C447 C449 1.327 . S
C447 H470 0.950 . S
C448 C447 1.349 . S
C448 C460 1.349 . S
C449 C447 1.327 . S
C449 C465 1.429 . S
C449 H471 0.950 . S
C450 H446 0.949 . S
C450 C458 1.574 . S
C450 C466 1.368 . S
H451 C459 0.950 . S
H452 C457 0.950 . S
H453 C458 0.949 . S
H454 C460 0.950 . S
H455 C461 0.950 . S
H456 C462 0.949 . S
C457 H452 0.950 . S
C457 C459 1.327 . S
C457 C463 1.429 . S
C458 C450 1.574 . S
C458 H453 0.949 . S
C458 C464 1.368 . S
C459 C443 1.349 . S
C459 H451 0.950 . S
C459 C457 1.327 . S
C460 C448 1.349 . S
C460 H454 0.950 . S
C460 C461 1.327 . S
C461 H455 0.950 . S
C461 C460 1.327 . S
C461 C465 1.429 . S
C462 C445 1.574 . S
C462 H456 0.949 . S
C462 C466 1.368 . S
C463 C444 1.429 . S
C463 C457 1.429 . S
C463 C464 1.523 . S
C464 C445 1.368 . S
C464 C458 1.368 . S
C464 C463 1.523 . S
C465 C449 1.429 . S
C465 C461 1.429 . S
C465 C466 1.523 . S
C466 C450 1.368 . S
C466 C462 1.368 . S
C466 C465 1.523 . S
H467 C442 0.950 . S
H468 C444 0.950 . S
H469 C445 0.949 . S
H470 C447 0.950 . S
H471 C449 0.950 . S
C472 C473 1.349 . S
C472 C474 1.327 . S
C472 H497 0.950 . S
C473 C472 1.349 . S
C473 C489 1.349 . S
C474 C472 1.327 . S
C474 C493 1.429 . S
C474 H498 0.950 . S
C475 C492 1.574 . S
C475 C494 1.368 . S
C475 H499 0.949 . S
H476 C480 0.949 . S
C477 C478 1.349 . S
C477 C479 1.327 . S
C477 H500 0.950 . S
C478 C477 1.349 . S
C478 C490 1.349 . S
C479 C477 1.327 . S
C479 C495 1.429 . S
C479 H501 0.950 . S
C480 H476 0.949 . S
C480 C488 1.574 . S
C480 C496 1.368 . S
H481 C489 0.950 . S
H482 C487 0.950 . S
H483 C488 0.949 . S
H484 C490 0.950 . S
H485 C491 0.950 . S
H486 C492 0.949 . S
C487 H482 0.950 . S
C487 C489 1.327 . S
C487 C493 1.429 . S
C488 C480 1.574 . S
C488 H483 0.949 . S
C488 C494 1.368 . S
C489 C473 1.349 . S
C489 H481 0.950 . S
C489 C487 1.327 . S
C490 C478 1.349 . S
C490 H484 0.950 . S
C490 C491 1.327 . S
C491 H485 0.950 . S
C491 C490 1.327 . S
C491 C495 1.429 . S
C492 C475 1.574 . S
C492 H486 0.949 . S
C492 C496 1.368 . S
C493 C474 1.429 . S
C493 C487 1.429 . S
C493 C494 1.523 . S
C494 C475 1.368 . S
C494 C488 1.368 . S
C494 C493 1.523 . S
C495 C479 1.429 . S
C495 C491 1.429 . S
C495 C496 1.523 . S
C496 C480 1.368 . S
C496 C492 1.368 . S
C496 C495 1.523 . S
H497 C472 0.950 . S
H498 C474 0.950 . S
H499 C475 0.949 . S
H500 C477 0.950 . S
H501 C479 0.950 . S
C502 C503 1.349 . S
C502 C504 1.327 . S
C502 H527 0.950 . S
C503 C502 1.349 . S
C503 C519 1.349 . S
C504 C502 1.327 . S
C504 C523 1.429 . S
C504 H528 0.950 . S
C505 C522 1.574 . S
C505 C524 1.368 . S
C505 H529 0.949 . S
H506 C510 0.949 . S
C507 C508 1.349 . S
C507 C509 1.327 . S
C507 H530 0.950 . S
C508 C507 1.349 . S
C508 C520 1.349 . S
C509 C507 1.327 . S
C509 C525 1.429 . S
C509 H531 0.950 . S
C510 H506 0.949 . S
C510 C518 1.574 . S
C510 C526 1.368 . S
H511 C519 0.950 . S
H512 C517 0.950 . S
H513 C518 0.949 . S
H514 C520 0.950 . S
H515 C521 0.950 . S
H516 C522 0.949 . S
C517 H512 0.950 . S
C517 C519 1.327 . S
C517 C523 1.429 . S
C518 C510 1.574 . S
C518 H513 0.949 . S
C518 C524 1.368 . S
C519 C503 1.349 . S
C519 H511 0.950 . S
C519 C517 1.327 . S
C520 C508 1.349 . S
C520 H514 0.950 . S
C520 C521 1.327 . S
C521 H515 0.950 . S
C521 C520 1.327 . S
C521 C525 1.429 . S
C522 C505 1.574 . S
C522 H516 0.949 . S
C522 C526 1.368 . S
C523 C504 1.429 . S
C523 C517 1.429 . S
C523 C524 1.523 . S
C524 C505 1.368 . S
C524 C518 1.368 . S
C524 C523 1.523 . S
C525 C509 1.429 . S
C525 C521 1.429 . S
C525 C526 1.523 . S
C526 C510 1.368 . S
C526 C522 1.368 . S
C526 C525 1.523 . S
H527 C502 0.950 . S
H528 C504 0.950 . S
H529 C505 0.949 . S
H530 C507 0.950 . S
H531 C509 0.950 . S
C532 C533 1.349 . S
C532 C534 1.327 . S
C532 H557 0.950 . S
C533 C532 1.349 . S
C533 C549 1.349 . S
C534 C532 1.327 . S
C534 C553 1.429 . S
C534 H558 0.950 . S
C535 C552 1.574 . S
C535 C554 1.368 . S
C535 H559 0.949 . S
H536 C540 0.949 . S
C537 C538 1.349 . S
C537 C539 1.327 . S
C537 H560 0.950 . S
C538 C537 1.349 . S
C538 C550 1.349 . S
C539 C537 1.327 . S
C539 C555 1.429 . S
C539 H561 0.950 . S
C540 H536 0.949 . S
C540 C548 1.574 . S
C540 C556 1.368 . S
H541 C549 0.950 . S
H542 C547 0.950 . S
H543 C548 0.949 . S
H544 C550 0.950 . S
H545 C551 0.950 . S
H546 C552 0.949 . S
C547 H542 0.950 . S
C547 C549 1.327 . S
C547 C553 1.429 . S
C548 C540 1.574 . S
C548 H543 0.949 . S
C548 C554 1.368 . S
C549 C533 1.349 . S
C549 H541 0.950 . S
C549 C547 1.327 . S
C550 C538 1.349 . S
C550 H544 0.950 . S
C550 C551 1.327 . S
C551 H545 0.950 . S
C551 C550 1.327 . S
C551 C555 1.429 . S
C552 C535 1.574 . S
C552 H546 0.949 . S
C552 C556 1.368 . S
C553 C534 1.429 . S
C553 C547 1.429 . S
C553 C554 1.523 . S
C554 C535 1.368 . S
C554 C548 1.368 . S
C554 C553 1.523 . S
C555 C539 1.429 . S
C555 C551 1.429 . S
C555 C556 1.523 . S
C556 C540 1.368 . S
C556 C552 1.368 . S
C556 C555 1.523 . S
H557 C532 0.950 . S
H558 C534 0.950 . S
H559 C535 0.949 . S
H560 C537 0.950 . S
H561 C539 0.950 . S
C562 C563 1.349 . S
C562 C564 1.327 . S
C562 H587 0.950 . S
C563 C562 1.349 . S
C563 C579 1.349 . S
C564 C562 1.327 . S
C564 C583 1.429 . S
C564 H588 0.950 . S
C565 C582 1.574 . S
C565 C584 1.368 . S
C565 H589 0.949 . S
H566 C570 0.949 . S
C567 C568 1.349 . S
C567 C569 1.327 . S
C567 H590 0.950 . S
C568 C567 1.349 . S
C568 C580 1.349 . S
C569 C567 1.327 . S
C569 C585 1.429 . S
C569 H591 0.950 . S
C570 H566 0.949 . S
C570 C578 1.574 . S
C570 C586 1.368 . S
H571 C579 0.950 . S
H572 C577 0.950 . S
H573 C578 0.949 . S
H574 C580 0.950 . S
H575 C581 0.950 . S
H576 C582 0.949 . S
C577 H572 0.950 . S
C577 C579 1.327 . S
C577 C583 1.429 . S
C578 C570 1.574 . S
C578 H573 0.949 . S
C578 C584 1.368 . S
C579 C563 1.349 . S
C579 H571 0.950 . S
C579 C577 1.327 . S
C580 C568 1.349 . S
C580 H574 0.950 . S
C580 C581 1.327 . S
C581 H575 0.950 . S
C581 C580 1.327 . S
C581 C585 1.429 . S
C582 C565 1.574 . S
C582 H576 0.949 . S
C582 C586 1.368 . S
C583 C564 1.429 . S
C583 C577 1.429 . S
C583 C584 1.523 . S
C584 C565 1.368 . S
C584 C578 1.368 . S
C584 C583 1.523 . S
C585 C569 1.429 . S
C585 C581 1.429 . S
C585 C586 1.523 . S
C586 C570 1.368 . S
C586 C582 1.368 . S
C586 C585 1.523 . S
H587 C562 0.950 . S
H588 C564 0.950 . S
H589 C565 0.949 . S
H590 C567 0.950 . S
H591 C569 0.950 . S
C592 C593 1.349 . S
C592 C594 1.327 . S
C592 H617 0.950 . S
C593 C592 1.349 . S
C593 C609 1.349 . S
C594 C592 1.327 . S
C594 C613 1.429 . S
C594 H618 0.950 . S
C595 C612 1.574 . S
C595 C614 1.368 . S
C595 H619 0.949 . S
H596 C600 0.949 . S
C597 C598 1.349 . S
C597 C599 1.327 . S
C597 H620 0.950 . S
C598 C597 1.349 . S
C598 C610 1.349 . S
C599 C597 1.327 . S
C599 C615 1.429 . S
C599 H621 0.950 . S
C600 H596 0.949 . S
C600 C608 1.574 . S
C600 C616 1.368 . S
H601 C609 0.950 . S
H602 C607 0.950 . S
H603 C608 0.949 . S
H604 C610 0.950 . S
H605 C611 0.950 . S
H606 C612 0.949 . S
C607 H602 0.950 . S
C607 C609 1.327 . S
C607 C613 1.429 . S
C608 C600 1.574 . S
C608 H603 0.949 . S
C608 C614 1.368 . S
C609 C593 1.349 . S
C609 H601 0.950 . S
C609 C607 1.327 . S
C610 C598 1.349 . S
C610 H604 0.950 . S
C610 C611 1.327 . S
C611 H605 0.950 . S
C611 C610 1.327 . S
C611 C615 1.429 . S
C612 C595 1.574 . S
C612 H606 0.949 . S
C612 C616 1.368 . S
C613 C594 1.429 . S
C613 C607 1.429 . S
C613 C614 1.523 . S
C614 C595 1.368 . S
C614 C608 1.368 . S
C614 C613 1.523 . S
C615 C599 1.429 . S
C615 C611 1.429 . S
C615 C616 1.523 . S
C616 C600 1.368 . S
C616 C612 1.368 . S
C616 C615 1.523 . S
H617 C592 0.950 . S
H618 C594 0.950 . S
H619 C595 0.949 . S
H620 C597 0.950 . S
H621 C599 0.950 . S
C622 C623 1.349 . S
C622 C624 1.327 . S
C622 H647 0.950 . S
C623 C622 1.349 . S
C623 C639 1.349 . S
C624 C622 1.327 . S
C624 C643 1.429 . S
C624 H648 0.950 . S
C625 C642 1.574 . S
C625 C644 1.368 . S
C625 H649 0.949 . S
H626 C630 0.949 . S
C627 C628 1.349 . S
C627 C629 1.327 . S
C627 H650 0.968 . S
C628 C627 1.349 . S
C628 C640 1.349 . S
C629 C627 1.327 . S
C629 C645 1.429 . S
C629 H651 0.950 . S
C630 H626 0.949 . S
C630 C638 1.574 . S
C630 C646 1.368 . S
H631 C639 0.950 . S
H632 C637 0.950 . S
H633 C638 0.949 . S
H634 C640 0.950 . S
H635 C641 0.950 . S
H636 C642 0.949 . S
C637 H632 0.950 . S
C637 C639 1.327 . S
C637 C643 1.429 . S
C638 C630 1.574 . S
C638 H633 0.949 . S
C638 C644 1.368 . S
C639 C623 1.349 . S
C639 H631 0.950 . S
C639 C637 1.327 . S
C640 C628 1.349 . S
C640 H634 0.950 . S
C640 C641 1.327 . S
C641 H635 0.950 . S
C641 C640 1.327 . S
C641 C645 1.429 . S
C642 C625 1.574 . S
C642 H636 0.949 . S
C642 C646 1.368 . S
C643 C624 1.429 . S
C643 C637 1.429 . S
C643 C644 1.523 . S
C644 C625 1.368 . S
C644 C638 1.368 . S
C644 C643 1.523 . S
C645 C629 1.429 . S
C645 C641 1.429 . S
C645 C646 1.523 . S
C646 C630 1.368 . S
C646 C642 1.368 . S
C646 C645 1.523 . S
H647 C622 0.950 . S
H648 C624 0.950 . S
H649 C625 0.949 . S
H650 C627 0.968 . S
H651 C629 0.950 . S
C652 C653 1.349 . S
C652 C654 1.327 . S
C652 H677 0.950 . S
C653 C652 1.349 . S
C653 C669 1.349 . S
C654 C652 1.327 . S
C654 C673 1.429 . S
C654 H678 0.950 . S
C655 C672 1.574 . S
C655 C674 1.368 . S
C655 H679 0.949 . S
H656 C660 0.949 . S
C657 C658 1.349 . S
C657 C659 1.327 . S
C657 H680 0.950 . S
C658 C657 1.349 . S
C658 C670 1.349 . S
C659 C657 1.327 . S
C659 C675 1.429 . S
C659 H681 0.950 . S
C660 H656 0.949 . S
C660 C668 1.574 . S
C660 C676 1.368 . S
H661 C669 0.950 . S
H662 C667 0.950 . S
H663 C668 0.949 . S
H664 C670 0.950 . S
H665 C671 0.950 . S
H666 C672 0.949 . S
C667 H662 0.950 . S
C667 C669 1.327 . S
C667 C673 1.429 . S
C668 C660 1.574 . S
C668 H663 0.949 . S
C668 C674 1.368 . S
C669 C653 1.349 . S
C669 H661 0.950 . S
C669 C667 1.327 . S
C670 C658 1.349 . S
C670 H664 0.950 . S
C670 C671 1.327 . S
C671 H665 0.950 . S
C671 C670 1.327 . S
C671 C675 1.429 . S
C672 C655 1.574 . S
C672 H666 0.949 . S
C672 C676 1.368 . S
C673 C654 1.429 . S
C673 C667 1.429 . S
C673 C674 1.523 . S
C674 C655 1.368 . S
C674 C668 1.368 . S
C674 C673 1.523 . S
C675 C659 1.429 . S
C675 C671 1.429 . S
C675 C676 1.523 . S
C676 C660 1.368 . S
C676 C672 1.368 . S
C676 C675 1.523 . S
H677 C652 0.950 . S
H678 C654 0.950 . S
H679 C655 0.949 . S
H680 C657 0.950 . S
H681 C659 0.950 . S
C682 C683 1.349 . S
C682 C684 1.327 . S
C682 H707 0.950 1_545 S
C683 C682 1.349 . S
C683 C699 1.349 . S
C684 C682 1.327 . S
C684 C703 1.429 . S
C684 H708 0.950 . S
C685 C702 1.574 . S
C685 C704 1.368 . S
C685 H709 0.949 . S
H686 C690 0.949 . S
C687 C688 1.349 . S
C687 C689 1.327 . S
C687 H710 0.950 . S
C688 C687 1.349 . S
C688 C700 1.349 . S
C689 C687 1.327 . S
C689 C705 1.429 . S
C689 H711 0.950 . S
C690 H686 0.949 . S
C690 C698 1.574 . S
C690 C706 1.368 . S
H691 C699 0.950 . S
H692 C697 0.950 . S
H693 C698 0.949 . S
H694 C700 0.950 . S
H695 C701 0.950 . S
H696 C702 0.949 . S
C697 H692 0.950 . S
C697 C699 1.327 . S
C697 C703 1.429 . S
C698 C690 1.574 . S
C698 H693 0.949 . S
C698 C704 1.368 . S
C699 C683 1.349 . S
C699 H691 0.950 . S
C699 C697 1.327 . S
C700 C688 1.349 . S
C700 H694 0.950 . S
C700 C701 1.327 . S
C701 H695 0.950 . S
C701 C700 1.327 . S
C701 C705 1.429 . S
C702 C685 1.574 . S
C702 H696 0.949 . S
C702 C706 1.368 . S
C703 C684 1.429 . S
C703 C697 1.429 . S
C703 C704 1.523 . S
C704 C685 1.368 . S
C704 C698 1.368 . S
C704 C703 1.523 . S
C705 C689 1.429 . S
C705 C701 1.429 . S
C705 C706 1.523 . S
C706 C690 1.368 . S
C706 C702 1.368 . S
C706 C705 1.523 . S
H707 C682 0.950 1_565 S
H708 C684 0.950 . S
H709 C685 0.949 . S
H710 C687 0.950 . S
H711 C689 0.950 . S
C712 C713 1.349 . S
C712 C714 1.327 . S
C712 H737 0.950 . S
C713 C712 1.349 . S
C713 C729 1.349 . S
C714 C712 1.327 . S
C714 C733 1.429 . S
C714 H738 0.950 . S
C715 C732 1.574 . S
C715 C734 1.368 . S
C715 H739 0.949 . S
H716 C720 0.949 . S
C717 C718 1.349 . S
C717 C719 1.327 . S
C717 H740 0.950 . S
C718 C717 1.349 . S
C718 C730 1.349 . S
C719 C717 1.327 . S
C719 C735 1.429 . S
C719 H741 0.950 . S
C720 H716 0.949 . S
C720 C728 1.574 . S
C720 C736 1.368 . S
H721 C729 0.950 . S
H722 C727 0.950 . S
H723 C728 0.949 . S
H724 C730 0.950 . S
H725 C731 0.950 . S
H726 C732 0.949 . S
C727 H722 0.950 . S
C727 C729 1.327 . S
C727 C733 1.429 . S
C728 C720 1.574 . S
C728 H723 0.949 . S
C728 C734 1.368 . S
C729 C713 1.349 . S
C729 H721 0.950 . S
C729 C727 1.327 . S
C730 C718 1.349 . S
C730 H724 0.950 . S
C730 C731 1.327 . S
C731 H725 0.950 . S
C731 C730 1.327 . S
C731 C735 1.429 . S
C732 C715 1.574 . S
C732 H726 0.949 . S
C732 C736 1.368 . S
C733 C714 1.429 . S
C733 C727 1.429 . S
C733 C734 1.523 . S
C734 C715 1.368 . S
C734 C728 1.368 . S
C734 C733 1.523 . S
C735 C719 1.429 . S
C735 C731 1.429 . S
C735 C736 1.523 . S
C736 C720 1.368 . S
C736 C732 1.368 . S
C736 C735 1.523 . S
H737 C712 0.950 . S
H738 C714 0.950 . S
H739 C715 0.949 . S
H740 C717 0.950 . S
H741 C719 0.950 . S
C742 C743 1.349 . S
C742 C744 1.327 . S
C742 H767 0.950 . S
C743 C742 1.349 . S
C743 C759 1.349 . S
C744 C742 1.327 . S
C744 C763 1.429 . S
C744 H768 0.950 . S
C745 C762 1.574 . S
C745 C764 1.368 . S
C745 H769 0.949 . S
H746 C750 0.949 . S
C747 C748 1.349 . S
C747 C749 1.327 . S
C747 H770 0.950 . S
C748 C747 1.349 . S
C748 C760 1.349 . S
C749 C747 1.327 . S
C749 C765 1.429 . S
C749 H771 0.950 . S
C750 H746 0.949 . S
C750 C758 1.574 . S
C750 C766 1.368 . S
H751 C759 0.950 . S
H752 C757 0.950 . S
H753 C758 0.949 . S
H754 C760 0.950 . S
H755 C761 0.950 . S
H756 C762 0.949 . S
C757 H752 0.950 . S
C757 C759 1.327 . S
C757 C763 1.429 . S
C758 C750 1.574 . S
C758 H753 0.949 . S
C758 C764 1.368 . S
C759 C743 1.349 . S
C759 H751 0.950 . S
C759 C757 1.327 . S
C760 C748 1.349 . S
C760 H754 0.950 . S
C760 C761 1.327 . S
C761 H755 0.950 . S
C761 C760 1.327 . S
C761 C765 1.429 . S
C762 C745 1.574 . S
C762 H756 0.949 . S
C762 C766 1.368 . S
C763 C744 1.429 . S
C763 C757 1.429 . S
C763 C764 1.523 . S
C764 C745 1.368 . S
C764 C758 1.368 . S
C764 C763 1.523 . S
C765 C749 1.429 . S
C765 C761 1.429 . S
C765 C766 1.523 . S
C766 C750 1.368 . S
C766 C762 1.368 . S
C766 C765 1.523 . S
H767 C742 0.950 . S
H768 C744 0.950 . S
H769 C745 0.949 . S
H770 C747 0.950 . S
H771 C749 0.950 . S
C772 C773 1.349 . S
C772 C774 1.327 . S
C772 H797 0.950 . S
C773 C772 1.349 . S
C773 C789 1.349 . S
C774 C772 1.327 . S
C774 C793 1.429 . S
C774 H798 0.950 . S
C775 C792 1.574 . S
C775 C794 1.368 . S
C775 H799 0.949 . S
H776 C780 0.949 . S
C777 C778 1.349 . S
C777 C779 1.327 . S
C777 H800 0.950 . S
C778 C777 1.349 . S
C778 C790 1.349 . S
C779 C777 1.327 . S
C779 C795 1.429 . S
C779 H801 0.950 . S
C780 H776 0.949 . S
C780 C788 1.574 . S
C780 C796 1.368 . S
H781 C789 0.950 . S
H782 C787 0.950 . S
H783 C788 0.949 . S
H784 C790 0.950 . S
H785 C791 0.950 . S
H786 C792 0.949 . S
C787 H782 0.950 . S
C787 C789 1.327 . S
C787 C793 1.429 . S
C788 C780 1.574 . S
C788 H783 0.949 . S
C788 C794 1.368 . S
C789 C773 1.349 . S
C789 H781 0.950 . S
C789 C787 1.327 . S
C790 C778 1.349 . S
C790 H784 0.950 . S
C790 C791 1.327 . S
C791 H785 0.950 . S
C791 C790 1.327 . S
C791 C795 1.429 . S
C792 C775 1.574 . S
C792 H786 0.949 . S
C792 C796 1.368 . S
C793 C774 1.429 . S
C793 C787 1.429 . S
C793 C794 1.523 . S
C794 C775 1.368 . S
C794 C788 1.368 . S
C794 C793 1.523 . S
C795 C779 1.429 . S
C795 C791 1.429 . S
C795 C796 1.523 . S
C796 C780 1.368 . S
C796 C792 1.368 . S
C796 C795 1.523 . S
H797 C772 0.950 . S
H798 C774 0.950 . S
H799 C775 0.949 . S
H800 C777 0.950 . S
H801 C779 0.950 . S
C802 C803 1.349 1_554 S
C802 C804 1.327 1_554 S
C802 H827 0.950 . S
C803 C802 1.349 1_556 S
C803 C819 1.349 . S
C804 C802 1.327 1_556 S
C804 C823 1.429 . S
C804 H828 0.959 . S
C805 C822 1.574 . S
C805 C824 1.368 . S
C805 H829 0.949 . S
H806 C810 0.949 . S
C807 C808 1.349 . S
C807 C809 1.327 . S
C807 H830 0.950 . S
C808 C807 1.349 . S
C808 C820 1.349 . S
C809 C807 1.327 . S
C809 C825 1.429 . S
C809 H831 0.950 . S
C810 H806 0.949 . S
C810 C818 1.574 . S
C810 C826 1.368 . S
H811 C819 0.950 . S
H812 C817 0.950 . S
H813 C818 0.949 . S
H814 C820 0.950 1_545 S
H815 C821 0.950 . S
H816 C822 0.949 . S
C817 H812 0.950 . S
C817 C819 1.327 . S
C817 C823 1.429 . S
C818 C810 1.574 . S
C818 H813 0.949 . S
C818 C824 1.368 . S
C819 C803 1.349 . S
C819 H811 0.950 . S
C819 C817 1.327 . S
C820 C808 1.349 . S
C820 H814 0.950 1_565 S
C820 C821 1.327 . S
C821 H815 0.950 . S
C821 C820 1.327 . S
C821 C825 1.429 . S
C822 C805 1.574 . S
C822 H816 0.949 . S
C822 C826 1.368 . S
C823 C804 1.429 . S
C823 C817 1.429 . S
C823 C824 1.523 . S
C824 C805 1.368 . S
C824 C818 1.368 . S
C824 C823 1.523 . S
C825 C809 1.429 . S
C825 C821 1.429 . S
C825 C826 1.523 . S
C826 C810 1.368 . S
C826 C822 1.368 . S
C826 C825 1.523 . S
H827 C802 0.950 . S
H828 C804 0.959 . S
H829 C805 0.949 . S
H830 C807 0.950 . S
H831 C809 0.950 . S
C832 C833 1.349 . S
C832 C834 1.327 . S
C832 H857 0.950 1_556 S
C833 C832 1.349 . S
C833 C849 1.349 . S
C834 C832 1.327 . S
C834 C853 1.429 . S
C834 H858 0.950 . S
C835 C852 1.574 . S
C835 C854 1.368 . S
C835 H859 0.949 . S
H836 C840 0.949 . S
C837 C838 1.349 . S
C837 C839 1.327 . S
C837 H860 0.950 . S
C838 C837 1.349 . S
C838 C850 1.349 . S
C839 C837 1.327 . S
C839 C855 1.429 . S
C839 H861 0.950 . S
C840 H836 0.949 . S
C840 C848 1.574 . S
C840 C856 1.368 . S
H841 C849 0.950 . S
H842 C847 0.950 . S
H843 C848 0.949 . S
H844 C850 0.950 . S
H845 C851 0.950 . S
H846 C852 0.949 . S
C847 H842 0.950 . S
C847 C849 1.327 . S
C847 C853 1.429 . S
C848 C840 1.574 . S
C848 H843 0.949 . S
C848 C854 1.368 . S
C849 C833 1.349 . S
C849 H841 0.950 . S
C849 C847 1.327 . S
C850 C838 1.349 . S
C850 H844 0.950 . S
C850 C851 1.327 . S
C851 H845 0.950 . S
C851 C850 1.327 . S
C851 C855 1.429 . S
C852 C835 1.574 . S
C852 H846 0.949 . S
C852 C856 1.368 . S
C853 C834 1.429 . S
C853 C847 1.429 . S
C853 C854 1.523 . S
C854 C835 1.368 . S
C854 C848 1.368 . S
C854 C853 1.523 . S
C855 C839 1.429 . S
C855 C851 1.429 . S
C855 C856 1.523 . S
C856 C840 1.368 . S
C856 C852 1.368 . S
C856 C855 1.523 . S
H857 C832 0.950 1_554 S
H858 C834 0.950 . S
H859 C835 0.949 . S
H860 C837 0.950 . S
H861 C839 0.950 . S
C862 C863 1.349 . S
C862 C864 1.327 . S
C862 H887 0.950 . S
C863 C862 1.349 . S
C863 C879 1.349 . S
C864 C862 1.327 . S
C864 C883 1.429 . S
C864 H888 0.950 . S
C865 C882 1.574 . S
C865 C884 1.368 . S
C865 H889 0.949 . S
H866 C870 0.949 . S
C867 C868 1.349 . S
C867 C869 1.327 . S
C867 H890 0.950 . S
C868 C867 1.349 . S
C868 C880 1.349 . S
C869 C867 1.327 . S
C869 C885 1.429 . S
C869 H891 0.950 . S
C870 H866 0.949 . S
C870 C878 1.574 . S
C870 C886 1.368 . S
H871 C879 0.950 . S
H872 C877 0.950 . S
H873 C878 0.949 . S
H874 C880 0.950 . S
H875 C881 0.950 . S
H876 C882 0.949 . S
C877 H872 0.950 . S
C877 C879 1.327 . S
C877 C883 1.429 . S
C878 C870 1.574 . S
C878 H873 0.949 . S
C878 C884 1.368 . S
C879 C863 1.349 . S
C879 H871 0.950 . S
C879 C877 1.327 . S
C880 C868 1.349 . S
C880 H874 0.950 . S
C880 C881 1.327 . S
C881 H875 0.950 . S
C881 C880 1.327 . S
C881 C885 1.429 . S
C882 C865 1.574 . S
C882 H876 0.949 . S
C882 C886 1.368 . S
C883 C864 1.429 . S
C883 C877 1.429 . S
C883 C884 1.523 . S
C884 C865 1.368 . S
C884 C878 1.368 . S
C884 C883 1.523 . S
C885 C869 1.429 . S
C885 C881 1.429 . S
C885 C886 1.523 . S
C886 C870 1.368 . S
C886 C882 1.368 . S
C886 C885 1.523 . S
H887 C862 0.950 . S
H888 C864 0.950 . S
H889 C865 0.949 . S
H890 C867 0.950 . S
H891 C869 0.950 . S
C892 C893 1.349 . S
C892 C894 1.327 . S
C892 H917 0.950 . S
C893 C892 1.349 . S
C893 C909 1.349 . S
C894 C892 1.327 . S
C894 C913 1.429 . S
C894 H918 0.950 . S
C895 C912 1.574 . S
C895 C914 1.368 . S
C895 H919 0.949 . S
H896 C900 0.949 . S
C897 C898 1.349 . S
C897 C899 1.327 . S
C897 H920 0.950 . S
C898 C897 1.349 . S
C898 C910 1.349 . S
C899 C897 1.327 . S
C899 C915 1.429 . S
C899 H921 0.950 . S
C900 H896 0.949 . S
C900 C908 1.574 . S
C900 C916 1.368 . S
H901 C909 0.950 . S
H902 C907 0.950 . S
H903 C908 0.949 . S
H904 C910 0.950 . S
H905 C911 0.950 . S
H906 C912 0.949 . S
C907 H902 0.950 . S
C907 C909 1.327 . S
C907 C913 1.429 . S
C908 C900 1.574 . S
C908 H903 0.949 . S
C908 C914 1.368 . S
C909 C893 1.349 . S
C909 H901 0.950 . S
C909 C907 1.327 . S
C910 C898 1.349 . S
C910 H904 0.950 . S
C910 C911 1.327 . S
C911 H905 0.950 . S
C911 C910 1.327 . S
C911 C915 1.429 . S
C912 C895 1.574 . S
C912 H906 0.949 . S
C912 C916 1.368 . S
C913 C894 1.429 . S
C913 C907 1.429 . S
C913 C914 1.523 . S
C914 C895 1.368 . S
C914 C908 1.368 . S
C914 C913 1.523 . S
C915 C899 1.429 . S
C915 C911 1.429 . S
C915 C916 1.523 . S
C916 C900 1.368 . S
C916 C912 1.368 . S
C916 C915 1.523 . S
H917 C892 0.950 . S
H918 C894 0.950 . S
H919 C895 0.949 . S
H920 C897 0.950 . S
H921 C899 0.950 . S
C922 C923 1.349 . S
C922 C924 1.327 . S
C922 H947 0.950 . S
C923 C922 1.349 . S
C923 C939 1.349 . S
C924 C922 1.327 . S
C924 C943 1.429 . S
C924 H948 0.950 . S
C925 C942 1.574 . S
C925 C944 1.368 . S
C925 H949 0.949 . S
H926 C930 0.949 . S
C927 C928 1.349 . S
C927 C929 1.327 . S
C927 H950 0.950 . S
C928 C927 1.349 . S
C928 C940 1.349 . S
C929 C927 1.327 . S
C929 C945 1.429 . S
C929 H951 0.950 . S
C930 H926 0.949 . S
C930 C938 1.574 . S
C930 C946 1.368 . S
H931 C939 0.950 . S
H932 C937 0.950 . S
H933 C938 0.949 . S
H934 C940 0.950 . S
H935 C941 0.950 . S
H936 C942 0.949 . S
C937 H932 0.950 . S
C937 C939 1.327 . S
C937 C943 1.429 . S
C938 C930 1.574 . S
C938 H933 0.949 . S
C938 C944 1.368 . S
C939 C923 1.349 . S
C939 H931 0.950 . S
C939 C937 1.327 . S
C940 C928 1.349 . S
C940 H934 0.950 . S
C940 C941 1.327 . S
C941 H935 0.950 . S
C941 C940 1.327 . S
C941 C945 1.429 . S
C942 C925 1.574 . S
C942 H936 0.949 . S
C942 C946 1.368 . S
C943 C924 1.429 . S
C943 C937 1.429 . S
C943 C944 1.523 . S
C944 C925 1.368 . S
C944 C938 1.368 . S
C944 C943 1.523 . S
C945 C929 1.429 . S
C945 C941 1.429 . S
C945 C946 1.523 . S
C946 C930 1.368 . S
C946 C942 1.368 . S
C946 C945 1.523 . S
H947 C922 0.950 . S
H948 C924 0.950 . S
H949 C925 0.949 . S
H950 C927 0.950 . S
H951 C929 0.950 . S
C952 C953 1.349 . S
C952 C954 1.327 . S
C952 H977 0.950 . S
C953 C952 1.349 . S
C953 C969 1.349 . S
C954 C952 1.327 . S
C954 C973 1.429 . S
C954 H978 0.950 . S
C955 C972 1.574 . S
C955 C974 1.368 . S
C955 H979 0.949 . S
H956 C960 0.949 . S
C957 C958 1.349 . S
C957 C959 1.327 . S
C957 H980 0.950 . S
C958 C957 1.349 . S
C958 C970 1.349 . S
C959 C957 1.327 . S
C959 C975 1.429 . S
C959 H981 0.950 . S
C960 H956 0.949 . S
C960 C968 1.574 . S
C960 C976 1.368 . S
H961 C969 0.950 . S
H962 C967 0.950 . S
H963 C968 0.949 . S
H964 C970 0.950 . S
H965 C971 0.950 . S
H966 C972 0.949 . S
C967 H962 0.950 . S
C967 C969 1.327 . S
C967 C973 1.429 . S
C968 C960 1.574 . S
C968 H963 0.949 . S
C968 C974 1.368 . S
C969 C953 1.349 . S
C969 H961 0.950 . S
C969 C967 1.327 . S
C970 C958 1.349 . S
C970 H964 0.950 . S
C970 C971 1.327 . S
C971 H965 0.950 . S
C971 C970 1.327 . S
C971 C975 1.429 . S
C972 C955 1.574 . S
C972 H966 0.949 . S
C972 C976 1.368 . S
C973 C954 1.429 . S
C973 C967 1.429 . S
C973 C974 1.523 . S
C974 C955 1.368 . S
C974 C968 1.368 . S
C974 C973 1.523 . S
C975 C959 1.429 . S
C975 C971 1.429 . S
C975 C976 1.523 . S
C976 C960 1.368 . S
C976 C972 1.368 . S
C976 C975 1.523 . S
H977 C952 0.950 . S
H978 C954 0.950 . S
H979 C955 0.949 . S
H980 C957 0.950 . S
H981 C959 0.950 . S
C982 C983 1.349 1_556 S
C982 C984 1.327 . S
C982 H1007 0.950 . S
C983 C982 1.349 1_554 S
C983 C999 1.349 . S
C984 C982 1.327 . S
C984 C1003 1.429 . S
C984 H1008 0.950 . S
C985 C1002 1.574 . S
C985 C1004 1.368 . S
C985 H1009 0.949 1_556 S
H986 C990 0.949 . S
C987 C988 1.349 . S
C987 C989 1.327 . S
C987 H1010 0.950 . S
C988 C987 1.349 . S
C988 C1000 1.349 . S
C989 C987 1.327 . S
C989 C1005 1.429 . S
C989 H1011 0.950 . S
C990 H986 0.949 . S
C990 C998 1.574 . S
C990 C1006 1.368 . S
H991 C999 0.950 . S
H992 C997 0.950 . S
H993 C998 0.949 . S
H994 C1000 0.950 . S
H995 C1001 0.950 . S
H996 C1002 0.949 . S
C997 H992 0.950 . S
C997 C999 1.327 . S
C997 C1003 1.429 1_554 S
C998 C990 1.574 . S
C998 H993 0.949 . S
C998 C1004 1.368 . S
C999 C983 1.349 . S
C999 H991 0.950 . S
C999 C997 1.327 . S
C1000 C988 1.349 . S
C1000 H994 0.950 . S
C1000 C1001 1.327 . S
C1001 H995 0.950 . S
C1001 C1000 1.327 . S
C1001 C1005 1.429 . S
C1002 C985 1.574 . S
C1002 H996 0.949 . S
C1002 C1006 1.368 . S
C1003 C984 1.429 . S
C1003 C997 1.429 1_556 S
C1003 C1004 1.523 . S
C1004 C985 1.368 . S
C1004 C998 1.368 . S
C1004 C1003 1.523 . S
C1005 C989 1.429 . S
C1005 C1001 1.429 . S
C1005 C1006 1.523 . S
C1006 C990 1.368 . S
C1006 C1002 1.368 . S
C1006 C1005 1.523 . S
H1007 C982 0.950 . S
H1008 C984 0.950 . S
H1009 C985 0.949 1_554 S
H1010 C987 0.950 . S
H1011 C989 0.950 . S
C1012 C1013 1.349 . S
C1012 C1014 1.327 . S
C1012 H1037 0.950 . S
C1013 C1012 1.349 . S
C1013 C1029 1.349 . S
C1014 C1012 1.327 . S
C1014 C1033 1.429 . S
C1014 H1038 0.950 . S
C1015 C1032 1.574 . S
C1015 C1034 1.368 . S
C1015 H1039 0.949 . S
H1016 C1020 0.949 . S
C1017 C1018 1.349 . S
C1017 C1019 1.327 . S
C1017 H1040 0.950 . S
C1018 C1017 1.349 . S
C1018 C1030 1.349 . S
C1019 C1017 1.327 . S
C1019 C1035 1.429 . S
C1019 H1041 0.950 . S
C1020 H1016 0.949 . S
C1020 C1028 1.574 . S
C1020 C1036 1.368 . S
H1021 C1029 0.950 . S
H1022 C1027 0.950 . S
H1023 C1028 0.949 . S
H1024 C1030 0.950 1_455 S
H1025 C1031 0.950 . S
H1026 C1032 0.949 . S
C1027 H1022 0.950 . S
C1027 C1029 1.327 . S
C1027 C1033 1.429 . S
C1028 C1020 1.574 . S
C1028 H1023 0.949 . S
C1028 C1034 1.368 . S
C1029 C1013 1.349 . S
C1029 H1021 0.950 . S
C1029 C1027 1.327 . S
C1030 C1018 1.349 . S
C1030 H1024 0.950 1_655 S
C1030 C1031 1.327 . S
C1031 H1025 0.950 . S
C1031 C1030 1.327 . S
C1031 C1035 1.429 . S
C1032 C1015 1.574 . S
C1032 H1026 0.949 . S
C1032 C1036 1.368 . S
C1033 C1014 1.429 . S
C1033 C1027 1.429 . S
C1033 C1034 1.523 . S
C1034 C1015 1.368 . S
C1034 C1028 1.368 . S
C1034 C1033 1.523 . S
C1035 C1019 1.429 . S
C1035 C1031 1.429 . S
C1035 C1036 1.523 . S
C1036 C1020 1.368 . S
C1036 C1032 1.368 . S
C1036 C1035 1.523 . S
H1037 C1012 0.950 . S
H1038 C1014 0.950 . S
H1039 C1015 0.949 . S
H1040 C1017 0.950 . S
H1041 C1019 0.950 . S
C1042 C1043 1.349 . S
C1042 C1044 1.327 . S
C1042 H1067 0.950 . S
C1043 C1042 1.349 . S
C1043 C1059 1.349 . S
C1044 C1042 1.327 . S
C1044 C1063 1.429 . S
C1044 H1068 0.950 . S
C1045 C1062 1.574 . S
C1045 C1064 1.368 . S
C1045 H1069 0.949 . S
H1046 C1050 0.949 . S
C1047 C1048 1.349 . S
C1047 C1049 1.327 . S
C1047 H1070 0.950 . S
C1048 C1047 1.349 . S
C1048 C1060 1.349 . S
C1049 C1047 1.327 . S
C1049 C1065 1.429 . S
C1049 H1071 0.950 . S
C1050 H1046 0.949 . S
C1050 C1058 1.574 . S
C1050 C1066 1.368 . S
H1051 C1059 0.950 . S
H1052 C1057 0.950 . S
H1053 C1058 0.949 . S
H1054 C1060 0.950 . S
H1055 C1061 0.950 . S
H1056 C1062 0.949 . S
C1057 H1052 0.950 . S
C1057 C1059 1.327 . S
C1057 C1063 1.429 . S
C1058 C1050 1.574 . S
C1058 H1053 0.949 . S
C1058 C1064 1.368 . S
C1059 C1043 1.349 . S
C1059 H1051 0.950 . S
C1059 C1057 1.327 . S
C1060 C1048 1.349 . S
C1060 H1054 0.950 . S
C1060 C1061 1.327 . S
C1061 H1055 0.950 . S
C1061 C1060 1.327 . S
C1061 C1065 1.429 . S
C1062 C1045 1.574 . S
C1062 H1056 0.949 . S
C1062 C1066 1.368 . S
C1063 C1044 1.429 . S
C1063 C1057 1.429 . S
C1063 C1064 1.523 . S
C1064 C1045 1.368 . S
C1064 C1058 1.368 . S
C1064 C1063 1.523 . S
C1065 C1049 1.429 . S
C1065 C1061 1.429 . S
C1065 C1066 1.523 . S
C1066 C1050 1.368 . S
C1066 C1062 1.368 . S
C1066 C1065 1.523 . S
H1067 C1042 0.950 . S
H1068 C1044 0.950 . S
H1069 C1045 0.949 . S
H1070 C1047 0.950 . S
H1071 C1049 0.950 . S
C1072 C1073 1.349 . S
C1072 C1074 1.327 . S
C1072 H1097 0.950 . S
C1073 C1072 1.349 . S
C1073 C1089 1.349 . S
C1074 C1072 1.327 . S
C1074 C1093 1.429 . S
C1074 H1098 0.950 . S
C1075 C1092 1.574 . S
C1075 C1094 1.368 . S
C1075 H1099 0.949 . S
H1076 C1080 0.949 . S
C1077 C1078 1.349 . S
C1077 C1079 1.327 . S
C1077 H1100 0.950 . S
C1078 C1077 1.349 . S
C1078 C1090 1.349 . S
C1079 C1077 1.327 . S
C1079 C1095 1.429 . S
C1079 H1101 0.950 . S
C1080 H1076 0.949 . S
C1080 C1088 1.574 . S
C1080 C1096 1.368 . S
H1081 C1089 0.950 . S
H1082 C1087 0.950 . S
H1083 C1088 0.949 . S
H1084 C1090 0.975 . S
H1085 C1091 0.950 . S
H1086 C1092 0.949 . S
C1087 H1082 0.950 . S
C1087 C1089 1.327 . S
C1087 C1093 1.429 . S
C1088 C1080 1.574 . S
C1088 H1083 0.949 . S
C1088 C1094 1.368 . S
C1089 C1073 1.349 . S
C1089 H1081 0.950 . S
C1089 C1087 1.327 . S
C1090 C1078 1.349 . S
C1090 H1084 0.975 . S
C1090 C1091 1.327 . S
C1091 H1085 0.950 . S
C1091 C1090 1.327 . S
C1091 C1095 1.429 . S
C1092 C1075 1.574 . S
C1092 H1086 0.949 . S
C1092 C1096 1.368 . S
C1093 C1074 1.429 . S
C1093 C1087 1.429 . S
C1093 C1094 1.523 . S
C1094 C1075 1.368 . S
C1094 C1088 1.368 . S
C1094 C1093 1.523 . S
C1095 C1079 1.429 . S
C1095 C1091 1.429 . S
C1095 C1096 1.523 . S
C1096 C1080 1.368 . S
C1096 C1092 1.368 . S
C1096 C1095 1.523 . S
H1097 C1072 0.950 . S
H1098 C1074 0.950 . S
H1099 C1075 0.949 . S
H1100 C1077 0.950 . S
H1101 C1079 0.950 . S
C1102 C1103 1.349 . S
C1102 C1104 1.327 . S
C1102 H1127 0.950 . S
C1103 C1102 1.349 . S
C1103 C1119 1.349 . S
C1104 C1102 1.327 . S
C1104 C1123 1.429 . S
C1104 H1128 0.950 . S
C1105 C1122 1.574 . S
C1105 C1124 1.368 . S
C1105 H1129 0.949 . S
H1106 C1110 0.949 . S
C1107 C1108 1.349 . S
C1107 C1109 1.327 . S
C1107 H1130 0.950 . S
C1108 C1107 1.349 . S
C1108 C1120 1.349 . S
C1109 C1107 1.327 . S
C1109 C1125 1.429 . S
C1109 H1131 0.950 . S
C1110 H1106 0.949 . S
C1110 C1118 1.574 . S
C1110 C1126 1.368 . S
H1111 C1119 0.950 . S
H1112 C1117 0.950 . S
H1113 C1118 0.949 . S
H1114 C1120 0.950 . S
H1115 C1121 0.950 . S
H1116 C1122 0.949 . S
C1117 H1112 0.950 . S
C1117 C1119 1.327 . S
C1117 C1123 1.429 . S
C1118 C1110 1.574 . S
C1118 H1113 0.949 . S
C1118 C1124 1.368 . S
C1119 C1103 1.349 . S
C1119 H1111 0.950 . S
C1119 C1117 1.327 . S
C1120 C1108 1.349 . S
C1120 H1114 0.950 . S
C1120 C1121 1.327 . S
C1121 H1115 0.950 . S
C1121 C1120 1.327 . S
C1121 C1125 1.429 . S
C1122 C1105 1.574 . S
C1122 H1116 0.949 . S
C1122 C1126 1.368 . S
C1123 C1104 1.429 . S
C1123 C1117 1.429 . S
C1123 C1124 1.523 . S
C1124 C1105 1.368 . S
C1124 C1118 1.368 . S
C1124 C1123 1.523 . S
C1125 C1109 1.429 . S
C1125 C1121 1.429 . S
C1125 C1126 1.523 . S
C1126 C1110 1.368 . S
C1126 C1122 1.368 . S
C1126 C1125 1.523 . S
H1127 C1102 0.950 . S
H1128 C1104 0.950 . S
H1129 C1105 0.949 . S
H1130 C1107 0.950 . S
H1131 C1109 0.950 . S
C1132 C1133 1.349 . S
C1132 C1134 1.327 . S
C1132 H1157 0.950 . S
C1133 C1132 1.349 . S
C1133 C1149 1.349 . S
C1134 C1132 1.327 . S
C1134 C1153 1.429 . S
C1134 H1158 0.950 . S
C1135 C1152 1.574 . S
C1135 C1154 1.368 . S
C1135 H1159 0.949 . S
H1136 C1140 0.949 . S
C1137 C1138 1.349 . S
C1137 C1139 1.327 . S
C1137 H1160 0.950 . S
C1138 C1137 1.349 . S
C1138 C1150 1.349 . S
C1139 C1137 1.327 . S
C1139 C1155 1.429 . S
C1139 H1161 0.950 . S
C1140 H1136 0.949 . S
C1140 C1148 1.574 . S
C1140 C1156 1.368 . S
H1141 C1149 0.950 . S
H1142 C1147 0.950 . S
H1143 C1148 0.949 . S
H1144 C1150 0.950 . S
H1145 C1151 0.950 . S
H1146 C1152 0.949 . S
C1147 H1142 0.950 . S
C1147 C1149 1.327 . S
C1147 C1153 1.429 . S
C1148 C1140 1.574 . S
C1148 H1143 0.949 . S
C1148 C1154 1.368 . S
C1149 C1133 1.349 . S
C1149 H1141 0.950 . S
C1149 C1147 1.327 . S
C1150 C1138 1.349 . S
C1150 H1144 0.950 . S
C1150 C1151 1.327 . S
C1151 H1145 0.950 . S
C1151 C1150 1.327 . S
C1151 C1155 1.429 . S
C1152 C1135 1.574 . S
C1152 H1146 0.949 . S
C1152 C1156 1.368 . S
C1153 C1134 1.429 . S
C1153 C1147 1.429 . S
C1153 C1154 1.523 . S
C1154 C1135 1.368 . S
C1154 C1148 1.368 . S
C1154 C1153 1.523 . S
C1155 C1139 1.429 . S
C1155 C1151 1.429 . S
C1155 C1156 1.523 . S
C1156 C1140 1.368 . S
C1156 C1152 1.368 . S
C1156 C1155 1.523 . S
H1157 C1132 0.950 . S
H1158 C1134 0.950 . S
H1159 C1135 0.949 . S
H1160 C1137 0.950 . S
H1161 C1139 0.950 . S
C1162 C1163 1.349 . S
C1162 C1164 1.327 . S
C1162 H1187 0.950 . S
C1163 C1162 1.349 . S
C1163 C1179 1.349 . S
C1164 C1162 1.327 . S
C1164 C1183 1.429 . S
C1164 H1188 0.950 . S
C1165 C1182 1.574 . S
C1165 C1184 1.368 . S
C1165 H1189 0.949 . S
H1166 C1170 0.949 . S
C1167 C1168 1.349 . S
C1167 C1169 1.327 . S
C1167 H1190 0.950 . S
C1168 C1167 1.349 . S
C1168 C1180 1.349 . S
C1169 C1167 1.327 . S
C1169 C1185 1.429 . S
C1169 H1191 0.950 . S
C1170 H1166 0.949 . S
C1170 C1178 1.574 . S
C1170 C1186 1.368 . S
H1171 C1179 0.950 . S
H1172 C1177 0.950 . S
H1173 C1178 0.949 . S
H1174 C1180 0.950 . S
H1175 C1181 0.950 . S
H1176 C1182 0.949 . S
C1177 H1172 0.950 . S
C1177 C1179 1.327 . S
C1177 C1183 1.429 . S
C1178 C1170 1.574 . S
C1178 H1173 0.949 . S
C1178 C1184 1.368 . S
C1179 C1163 1.349 . S
C1179 H1171 0.950 . S
C1179 C1177 1.327 . S
C1180 C1168 1.349 . S
C1180 H1174 0.950 . S
C1180 C1181 1.327 . S
C1181 H1175 0.950 . S
C1181 C1180 1.327 . S
C1181 C1185 1.429 . S
C1182 C1165 1.574 . S
C1182 H1176 0.949 . S
C1182 C1186 1.368 . S
C1183 C1164 1.429 . S
C1183 C1177 1.429 . S
C1183 C1184 1.523 . S
C1184 C1165 1.368 . S
C1184 C1178 1.368 . S
C1184 C1183 1.523 . S
C1185 C1169 1.429 . S
C1185 C1181 1.429 . S
C1185 C1186 1.523 . S
C1186 C1170 1.368 . S
C1186 C1182 1.368 . S
C1186 C1185 1.523 . S
H1187 C1162 0.950 . S
H1188 C1164 0.950 . S
H1189 C1165 0.949 . S
H1190 C1167 0.950 . S
H1191 C1169 0.950 . S
C1192 C1193 1.349 . S
C1192 C1194 1.327 . S
C1192 H1217 0.950 . S
C1193 C1192 1.349 . S
C1193 C1209 1.349 . S
C1194 C1192 1.327 . S
C1194 C1213 1.429 . S
C1194 H1218 0.950 . S
C1195 C1212 1.574 . S
C1195 C1214 1.368 . S
C1195 H1219 0.949 . S
H1196 C1200 0.949 . S
C1197 C1198 1.349 . S
C1197 C1199 1.327 . S
C1197 H1220 0.950 1_455 S
C1198 C1197 1.349 . S
C1198 C1210 1.349 . S
C1199 C1197 1.327 . S
C1199 C1215 1.429 . S
C1199 H1221 0.950 . S
C1200 H1196 0.949 . S
C1200 C1208 1.574 . S
C1200 C1216 1.368 . S
H1201 C1209 0.950 . S
H1202 C1207 0.950 . S
H1203 C1208 0.949 . S
H1204 C1210 0.950 . S
H1205 C1211 0.950 . S
H1206 C1212 0.949 . S
C1207 H1202 0.950 . S
C1207 C1209 1.327 . S
C1207 C1213 1.429 . S
C1208 C1200 1.574 . S
C1208 H1203 0.949 . S
C1208 C1214 1.368 . S
C1209 C1193 1.349 . S
C1209 H1201 0.950 . S
C1209 C1207 1.327 . S
C1210 C1198 1.349 . S
C1210 H1204 0.950 . S
C1210 C1211 1.327 . S
C1211 H1205 0.950 . S
C1211 C1210 1.327 . S
C1211 C1215 1.429 . S
C1212 C1195 1.574 . S
C1212 H1206 0.949 . S
C1212 C1216 1.368 . S
C1213 C1194 1.429 . S
C1213 C1207 1.429 . S
C1213 C1214 1.523 . S
C1214 C1195 1.368 . S
C1214 C1208 1.368 . S
C1214 C1213 1.523 . S
C1215 C1199 1.429 . S
C1215 C1211 1.429 . S
C1215 C1216 1.523 . S
C1216 C1200 1.368 . S
C1216 C1212 1.368 . S
C1216 C1215 1.523 . S
H1217 C1192 0.950 . S
H1218 C1194 0.950 . S
H1219 C1195 0.949 . S
H1220 C1197 0.950 1_655 S
H1221 C1199 0.950 . S
C1222 C1223 1.349 . S
C1222 C1224 1.327 . S
C1222 H1247 0.950 . S
C1223 C1222 1.349 . S
C1223 C1239 1.349 . S
C1224 C1222 1.327 . S
C1224 C1243 1.429 . S
C1224 H1248 0.950 . S
C1225 C1242 1.574 . S
C1225 C1244 1.368 . S
C1225 H1249 0.949 . S
H1226 C1230 0.949 . S
C1227 C1228 1.349 . S
C1227 C1229 1.327 . S
C1227 H1250 0.950 . S
C1228 C1227 1.349 . S
C1228 C1240 1.349 . S
C1229 C1227 1.327 . S
C1229 C1245 1.429 . S
C1229 H1251 0.950 . S
C1230 H1226 0.949 . S
C1230 C1238 1.574 . S
C1230 C1246 1.368 . S
H1231 C1239 0.950 . S
H1232 C1237 0.950 . S
H1233 C1238 0.949 . S
H1234 C1240 0.950 . S
H1235 C1241 0.950 . S
H1236 C1242 0.949 . S
C1237 H1232 0.950 . S
C1237 C1239 1.327 . S
C1237 C1243 1.429 . S
C1238 C1230 1.574 . S
C1238 H1233 0.949 . S
C1238 C1244 1.368 . S
C1239 C1223 1.349 . S
C1239 H1231 0.950 . S
C1239 C1237 1.327 . S
C1240 C1228 1.349 . S
C1240 H1234 0.950 . S
C1240 C1241 1.327 . S
C1241 H1235 0.950 . S
C1241 C1240 1.327 . S
C1241 C1245 1.429 . S
C1242 C1225 1.574 . S
C1242 H1236 0.949 . S
C1242 C1246 1.368 . S
C1243 C1224 1.429 . S
C1243 C1237 1.429 . S
C1243 C1244 1.523 . S
C1244 C1225 1.368 . S
C1244 C1238 1.368 . S
C1244 C1243 1.523 . S
C1245 C1229 1.429 . S
C1245 C1241 1.429 . S
C1245 C1246 1.523 . S
C1246 C1230 1.368 . S
C1246 C1242 1.368 . S
C1246 C1245 1.523 . S
H1247 C1222 0.950 . S
H1248 C1224 0.950 . S
H1249 C1225 0.949 . S
H1250 C1227 0.950 . S
H1251 C1229 0.950 . S
C1252 C1253 1.349 . S
C1252 C1254 1.327 . S
C1252 H1277 0.950 . S
C1253 C1252 1.349 . S
C1253 C1269 1.349 . S
C1254 C1252 1.327 . S
C1254 C1273 1.429 . S
C1254 H1278 0.950 . S
C1255 C1272 1.574 . S
C1255 C1274 1.368 . S
C1255 H1279 0.949 . S
H1256 C1260 0.949 . S
C1257 C1258 1.349 . S
C1257 C1259 1.327 . S
C1257 H1280 0.950 . S
C1258 C1257 1.349 . S
C1258 C1270 1.349 . S
C1259 C1257 1.327 . S
C1259 C1275 1.429 . S
C1259 H1281 0.950 . S
C1260 H1256 0.949 . S
C1260 C1268 1.574 . S
C1260 C1276 1.368 . S
H1261 C1269 0.950 . S
H1262 C1267 0.950 . S
H1263 C1268 0.949 . S
H1264 C1270 0.950 . S
H1265 C1271 0.950 . S
H1266 C1272 0.949 . S
C1267 H1262 0.950 . S
C1267 C1269 1.327 . S
C1267 C1273 1.429 . S
C1268 C1260 1.574 . S
C1268 H1263 0.949 . S
C1268 C1274 1.368 . S
C1269 C1253 1.349 . S
C1269 H1261 0.950 . S
C1269 C1267 1.327 . S
C1270 C1258 1.349 . S
C1270 H1264 0.950 . S
C1270 C1271 1.327 . S
C1271 H1265 0.950 . S
C1271 C1270 1.327 . S
C1271 C1275 1.429 . S
C1272 C1255 1.574 . S
C1272 H1266 0.949 . S
C1272 C1276 1.368 . S
C1273 C1254 1.429 . S
C1273 C1267 1.429 . S
C1273 C1274 1.523 . S
C1274 C1255 1.368 . S
C1274 C1268 1.368 . S
C1274 C1273 1.523 . S
C1275 C1259 1.429 . S
C1275 C1271 1.429 . S
C1275 C1276 1.523 . S
C1276 C1260 1.368 . S
C1276 C1272 1.368 . S
C1276 C1275 1.523 . S
H1277 C1252 0.950 . S
H1278 C1254 0.950 . S
H1279 C1255 0.949 . S
H1280 C1257 0.950 . S
H1281 C1259 0.950 . S
C1282 C1283 1.349 . S
C1282 C1284 1.327 . S
C1282 H1307 0.950 . S
C1283 C1282 1.349 . S
C1283 C1299 1.349 . S
C1284 C1282 1.327 . S
C1284 C1303 1.429 . S
C1284 H1308 0.950 . S
C1285 C1302 1.574 . S
C1285 C1304 1.368 . S
C1285 H1309 0.949 . S
H1286 C1290 0.949 . S
C1287 C1288 1.349 1_556 S
C1287 C1289 1.327 . S
C1287 H1310 0.950 . S
C1288 C1287 1.349 1_554 S
C1288 C1300 1.349 . S
C1289 C1287 1.327 . S
C1289 C1305 1.429 . S
C1289 H1311 0.950 . S
C1290 H1286 0.949 . S
C1290 C1298 1.574 . S
C1290 C1306 1.368 . S
H1291 C1299 0.950 . S
H1292 C1297 0.950 . S
H1293 C1298 0.949 . S
H1294 C1300 0.950 . S
H1295 C1301 0.950 . S
H1296 C1302 0.949 . S
C1297 H1292 0.950 . S
C1297 C1299 1.327 . S
C1297 C1303 1.429 . S
C1298 C1290 1.574 . S
C1298 H1293 0.949 . S
C1298 C1304 1.368 . S
C1299 C1283 1.349 . S
C1299 H1291 0.950 . S
C1299 C1297 1.327 . S
C1300 C1288 1.349 . S
C1300 H1294 0.950 . S
C1300 C1301 1.327 1_554 S
C1301 H1295 0.950 . S
C1301 C1300 1.327 1_556 S
C1301 C1305 1.429 . S
C1302 C1285 1.574 . S
C1302 H1296 0.949 . S
C1302 C1306 1.368 . S
C1303 C1284 1.429 . S
C1303 C1297 1.429 . S
C1303 C1304 1.523 . S
C1304 C1285 1.368 . S
C1304 C1298 1.368 . S
C1304 C1303 1.523 . S
C1305 C1289 1.429 . S
C1305 C1301 1.429 . S
C1305 C1306 1.523 . S
C1306 C1290 1.368 . S
C1306 C1302 1.368 . S
C1306 C1305 1.523 . S
H1307 C1282 0.950 . S
H1308 C1284 0.950 . S
H1309 C1285 0.949 . S
H1310 C1287 0.950 . S
H1311 C1289 0.950 . S
C1312 C1313 1.349 . S
C1312 C1314 1.327 . S
C1312 H1337 0.950 . S
C1313 C1312 1.349 . S
C1313 C1329 1.349 . S
C1314 C1312 1.327 . S
C1314 C1333 1.429 . S
C1314 H1338 0.950 . S
C1315 C1332 1.574 . S
C1315 C1334 1.368 . S
C1315 H1339 0.949 . S
H1316 C1320 0.949 . S
C1317 C1318 1.349 . S
C1317 C1319 1.327 . S
C1317 H1340 0.950 . S
C1318 C1317 1.349 . S
C1318 C1330 1.349 . S
C1319 C1317 1.327 . S
C1319 C1335 1.429 . S
C1319 H1341 0.950 . S
C1320 H1316 0.949 . S
C1320 C1328 1.574 . S
C1320 C1336 1.368 . S
H1321 C1329 0.950 . S
H1322 C1327 0.950 . S
H1323 C1328 0.949 . S
H1324 C1330 0.950 . S
H1325 C1331 0.950 . S
H1326 C1332 0.949 . S
C1327 H1322 0.950 . S
C1327 C1329 1.327 . S
C1327 C1333 1.429 . S
C1328 C1320 1.574 . S
C1328 H1323 0.949 . S
C1328 C1334 1.368 . S
C1329 C1313 1.349 . S
C1329 H1321 0.950 . S
C1329 C1327 1.327 . S
C1330 C1318 1.349 . S
C1330 H1324 0.950 . S
C1330 C1331 1.327 . S
C1331 H1325 0.950 . S
C1331 C1330 1.327 . S
C1331 C1335 1.429 . S
C1332 C1315 1.574 . S
C1332 H1326 0.949 . S
C1332 C1336 1.368 . S
C1333 C1314 1.429 . S
C1333 C1327 1.429 . S
C1333 C1334 1.523 . S
C1334 C1315 1.368 . S
C1334 C1328 1.368 . S
C1334 C1333 1.523 . S
C1335 C1319 1.429 . S
C1335 C1331 1.429 . S
C1335 C1336 1.523 . S
C1336 C1320 1.368 . S
C1336 C1332 1.368 . S
C1336 C1335 1.523 . S
H1337 C1312 0.950 . S
H1338 C1314 0.950 . S
H1339 C1315 0.949 . S
H1340 C1317 0.950 . S
H1341 C1319 0.950 . S
C1342 C1343 1.349 . S
C1342 C1344 1.327 . S
C1342 H1367 0.950 . S
C1343 C1342 1.349 . S
C1343 C1359 1.349 . S
C1344 C1342 1.327 . S
C1344 C1363 1.429 . S
C1344 H1368 0.950 . S
C1345 C1362 1.574 . S
C1345 C1364 1.368 . S
C1345 H1369 0.949 . S
H1346 C1350 0.949 . S
C1347 C1348 1.349 . S
C1347 C1349 1.327 . S
C1347 H1370 0.950 . S
C1348 C1347 1.349 . S
C1348 C1360 1.349 . S
C1349 C1347 1.327 . S
C1349 C1365 1.429 . S
C1349 H1371 0.950 . S
C1350 H1346 0.949 . S
C1350 C1358 1.574 . S
C1350 C1366 1.368 . S
H1351 C1359 0.950 . S
H1352 C1357 0.950 . S
H1353 C1358 0.949 . S
H1354 C1360 0.950 . S
H1355 C1361 0.950 . S
H1356 C1362 0.949 . S
C1357 H1352 0.950 . S
C1357 C1359 1.327 . S
C1357 C1363 1.429 . S
C1358 C1350 1.574 . S
C1358 H1353 0.949 . S
C1358 C1364 1.368 . S
C1359 C1343 1.349 . S
C1359 H1351 0.950 . S
C1359 C1357 1.327 . S
C1360 C1348 1.349 . S
C1360 H1354 0.950 . S
C1360 C1361 1.327 . S
C1361 H1355 0.950 . S
C1361 C1360 1.327 . S
C1361 C1365 1.429 . S
C1362 C1345 1.574 . S
C1362 H1356 0.949 . S
C1362 C1366 1.368 . S
C1363 C1344 1.429 . S
C1363 C1357 1.429 . S
C1363 C1364 1.523 . S
C1364 C1345 1.368 . S
C1364 C1358 1.368 . S
C1364 C1363 1.523 . S
C1365 C1349 1.429 . S
C1365 C1361 1.429 . S
C1365 C1366 1.523 . S
C1366 C1350 1.368 . S
C1366 C1362 1.368 . S
C1366 C1365 1.523 . S
H1367 C1342 0.950 . S
H1368 C1344 0.950 . S
H1369 C1345 0.949 . S
H1370 C1347 0.950 . S
H1371 C1349 0.950 . S
C1372 C1373 1.349 . S
C1372 C1374 1.327 . S
C1372 H1397 0.950 . S
C1373 C1372 1.349 . S
C1373 C1389 1.349 . S
C1374 C1372 1.327 . S
C1374 C1393 1.429 . S
C1374 H1398 0.950 . S
C1375 C1392 1.574 . S
C1375 C1394 1.368 . S
C1375 H1399 0.949 . S
H1376 C1380 0.949 . S
C1377 C1378 1.349 . S
C1377 C1379 1.327 . S
C1377 H1400 0.950 . S
C1378 C1377 1.349 . S
C1378 C1390 1.349 . S
C1379 C1377 1.327 . S
C1379 C1395 1.429 . S
C1379 H1401 0.950 . S
C1380 H1376 0.949 . S
C1380 C1388 1.574 . S
C1380 C1396 1.368 . S
H1381 C1389 0.950 . S
H1382 C1387 0.950 . S
H1383 C1388 0.949 . S
H1384 C1390 0.950 . S
H1385 C1391 0.950 . S
H1386 C1392 0.949 . S
C1387 H1382 0.950 . S
C1387 C1389 1.327 . S
C1387 C1393 1.429 . S
C1388 C1380 1.574 . S
C1388 H1383 0.949 . S
C1388 C1394 1.368 . S
C1389 C1373 1.349 . S
C1389 H1381 0.950 . S
C1389 C1387 1.327 . S
C1390 C1378 1.349 . S
C1390 H1384 0.950 . S
C1390 C1391 1.327 . S
C1391 H1385 0.950 . S
C1391 C1390 1.327 . S
C1391 C1395 1.429 . S
C1392 C1375 1.574 . S
C1392 H1386 0.949 . S
C1392 C1396 1.368 . S
C1393 C1374 1.429 . S
C1393 C1387 1.429 . S
C1393 C1394 1.523 . S
C1394 C1375 1.368 . S
C1394 C1388 1.368 . S
C1394 C1393 1.523 . S
C1395 C1379 1.429 . S
C1395 C1391 1.429 . S
C1395 C1396 1.523 . S
C1396 C1380 1.368 . S
C1396 C1392 1.368 . S
C1396 C1395 1.523 . S
H1397 C1372 0.950 . S
H1398 C1374 0.950 . S
H1399 C1375 0.949 . S
H1400 C1377 0.950 . S
H1401 C1379 0.950 . S
C1402 C1403 1.349 . S
C1402 C1404 1.327 . S
C1402 H1427 0.950 . S
C1403 C1402 1.349 . S
C1403 C1419 1.349 . S
C1404 C1402 1.327 . S
C1404 C1423 1.429 . S
C1404 H1428 0.974 . S
C1405 C1422 1.574 1_554 S
C1405 C1424 1.368 . S
C1405 H1429 0.949 . S
H1406 C1410 0.949 . S
C1407 C1408 1.349 . S
C1407 C1409 1.327 . S
C1407 H1430 0.950 . S
C1408 C1407 1.349 . S
C1408 C1420 1.349 . S
C1409 C1407 1.327 . S
C1409 C1425 1.429 . S
C1409 H1431 0.974 . S
C1410 H1406 0.949 . S
C1410 C1418 1.574 . S
C1410 C1426 1.368 . S
H1411 C1419 0.950 . S
H1412 C1417 0.950 . S
H1413 C1418 0.949 . S
H1414 C1420 0.950 . S
H1415 C1421 0.950 . S
H1416 C1422 0.949 . S
C1417 H1412 0.950 . S
C1417 C1419 1.327 . S
C1417 C1423 1.429 . S
C1418 C1410 1.574 . S
C1418 H1413 0.949 . S
C1418 C1424 1.368 1_655 S
C1419 C1403 1.349 . S
C1419 H1411 0.950 . S
C1419 C1417 1.327 . S
C1420 C1408 1.349 . S
C1420 H1414 0.950 . S
C1420 C1421 1.327 . S
C1421 H1415 0.950 . S
C1421 C1420 1.327 . S
C1421 C1425 1.429 . S
C1422 C1405 1.574 1_556 S
C1422 H1416 0.949 . S
C1422 C1426 1.368 1_456 S
C1423 C1404 1.429 . S
C1423 C1417 1.429 . S
C1423 C1424 1.523 . S
C1424 C1405 1.368 . S
C1424 C1418 1.368 1_455 S
C1424 C1423 1.523 . S
C1425 C1409 1.429 . S
C1425 C1421 1.429 . S
C1425 C1426 1.523 1_556 S
C1426 C1410 1.368 . S
C1426 C1422 1.368 1_654 S
C1426 C1425 1.523 1_554 S
H1427 C1402 0.950 . S
H1428 C1404 0.974 . S
H1429 C1405 0.949 . S
H1430 C1407 0.950 . S
H1431 C1409 0.974 . S
C1432 C1433 1.349 . S
C1432 C1434 1.327 . S
C1432 H1457 0.950 . S
C1433 C1432 1.349 . S
C1433 C1449 1.349 . S
C1434 C1432 1.327 . S
C1434 C1453 1.429 . S
C1434 H1458 0.950 . S
C1435 C1452 1.574 . S
C1435 C1454 1.368 . S
C1435 H1459 0.949 . S
H1436 C1440 0.949 . S
C1437 C1438 1.349 . S
C1437 C1439 1.327 . S
C1437 H1460 0.950 . S
C1438 C1437 1.349 . S
C1438 C1450 1.349 . S
C1439 C1437 1.327 . S
C1439 C1455 1.429 . S
C1439 H1461 0.950 . S
C1440 H1436 0.949 . S
C1440 C1448 1.574 . S
C1440 C1456 1.368 . S
H1441 C1449 0.950 . S
H1442 C1447 0.950 . S
H1443 C1448 0.949 . S
H1444 C1450 0.950 . S
H1445 C1451 0.950 . S
H1446 C1452 0.949 . S
C1447 H1442 0.950 . S
C1447 C1449 1.327 . S
C1447 C1453 1.429 . S
C1448 C1440 1.574 . S
C1448 H1443 0.949 . S
C1448 C1454 1.368 . S
C1449 C1433 1.349 . S
C1449 H1441 0.950 . S
C1449 C1447 1.327 . S
C1450 C1438 1.349 . S
C1450 H1444 0.950 . S
C1450 C1451 1.327 . S
C1451 H1445 0.950 . S
C1451 C1450 1.327 . S
C1451 C1455 1.429 . S
C1452 C1435 1.574 . S
C1452 H1446 0.949 . S
C1452 C1456 1.368 . S
C1453 C1434 1.429 . S
C1453 C1447 1.429 . S
C1453 C1454 1.523 . S
C1454 C1435 1.368 . S
C1454 C1448 1.368 . S
C1454 C1453 1.523 . S
C1455 C1439 1.429 . S
C1455 C1451 1.429 . S
C1455 C1456 1.523 . S
C1456 C1440 1.368 . S
C1456 C1452 1.368 . S
C1456 C1455 1.523 . S
H1457 C1432 0.950 . S
H1458 C1434 0.950 . S
H1459 C1435 0.949 . S
H1460 C1437 0.950 . S
H1461 C1439 0.950 . S
C1462 C1463 1.349 . S
C1462 C1464 1.327 . S
C1462 H1487 0.950 . S
C1463 C1462 1.349 . S
C1463 C1479 1.349 . S
C1464 C1462 1.327 . S
C1464 C1483 1.429 . S
C1464 H1488 0.950 . S
C1465 C1482 1.574 . S
C1465 C1484 1.368 . S
C1465 H1489 0.949 . S
H1466 C1470 0.949 . S
C1467 C1468 1.349 . S
C1467 C1469 1.327 . S
C1467 H1490 0.950 . S
C1468 C1467 1.349 . S
C1468 C1480 1.349 . S
C1469 C1467 1.327 . S
C1469 C1485 1.429 . S
C1469 H1491 0.950 . S
C1470 H1466 0.949 . S
C1470 C1478 1.574 . S
C1470 C1486 1.368 . S
H1471 C1479 0.950 . S
H1472 C1477 0.950 . S
H1473 C1478 0.949 . S
H1474 C1480 0.950 . S
H1475 C1481 0.950 . S
H1476 C1482 0.949 . S
C1477 H1472 0.950 . S
C1477 C1479 1.327 . S
C1477 C1483 1.429 . S
C1478 C1470 1.574 . S
C1478 H1473 0.949 . S
C1478 C1484 1.368 . S
C1479 C1463 1.349 . S
C1479 H1471 0.950 . S
C1479 C1477 1.327 . S
C1480 C1468 1.349 . S
C1480 H1474 0.950 . S
C1480 C1481 1.327 . S
C1481 H1475 0.950 . S
C1481 C1480 1.327 . S
C1481 C1485 1.429 . S
C1482 C1465 1.574 . S
C1482 H1476 0.949 . S
C1482 C1486 1.368 . S
C1483 C1464 1.429 . S
C1483 C1477 1.429 . S
C1483 C1484 1.523 . S
C1484 C1465 1.368 . S
C1484 C1478 1.368 . S
C1484 C1483 1.523 . S
C1485 C1469 1.429 . S
C1485 C1481 1.429 . S
C1485 C1486 1.523 . S
C1486 C1470 1.368 . S
C1486 C1482 1.368 . S
C1486 C1485 1.523 . S
H1487 C1462 0.950 . S
H1488 C1464 0.950 . S
H1489 C1465 0.949 . S
H1490 C1467 0.950 . S
H1491 C1469 0.950 . S
C1492 C1493 1.349 . S
C1492 C1494 1.327 . S
C1492 H1517 0.950 . S
C1493 C1492 1.349 . S
C1493 C1509 1.349 . S
C1494 C1492 1.327 . S
C1494 C1513 1.429 . S
C1494 H1518 0.950 1_455 S
C1495 C1512 1.574 . S
C1495 C1514 1.368 1_565 S
C1495 H1519 0.935 1_554 S
H1496 C1500 0.949 . S
C1497 C1498 1.349 . S
C1497 C1499 1.327 . S
C1497 H1520 0.950 . S
C1498 C1497 1.349 . S
C1498 C1510 1.349 . S
C1499 C1497 1.327 . S
C1499 C1515 1.429 . S
C1499 H1521 0.950 1_655 S
C1500 H1496 0.949 . S
C1500 C1508 1.574 . S
C1500 C1516 1.368 1_545 S
H1501 C1509 0.950 . S
H1502 C1507 0.950 1_565 S
H1503 C1508 0.949 . S
H1504 C1510 0.950 . S
H1505 C1511 0.950 1_545 S
H1506 C1512 0.949 . S
C1507 H1502 0.950 1_545 S
C1507 C1509 1.327 . S
C1507 C1513 1.429 . S
C1508 C1500 1.574 . S
C1508 H1503 0.949 . S
C1508 C1514 1.368 1_655 S
C1509 C1493 1.349 . S
C1509 H1501 0.950 . S
C1509 C1507 1.327 . S
C1510 C1498 1.349 . S
C1510 H1504 0.950 . S
C1510 C1511 1.327 . S
C1511 H1505 0.950 1_565 S
C1511 C1510 1.327 . S
C1511 C1515 1.429 . S
C1512 C1495 1.574 . S
C1512 H1506 0.949 . S
C1512 C1516 1.368 1_455 S
C1513 C1494 1.429 . S
C1513 C1507 1.429 . S
C1513 C1514 1.523 1_556 S
C1514 C1495 1.368 1_545 S
C1514 C1508 1.368 1_455 S
C1514 C1513 1.523 1_554 S
C1515 C1499 1.429 . S
C1515 C1511 1.429 . S
C1515 C1516 1.523 . S
C1516 C1500 1.368 1_565 S
C1516 C1512 1.368 1_655 S
C1516 C1515 1.523 . S
H1517 C1492 0.950 . S
H1518 C1494 0.950 1_655 S
H1519 C1495 0.935 1_556 S
H1520 C1497 0.950 . S
H1521 C1499 0.950 1_455 S
C1522 C1523 1.349 . S
C1522 C1524 1.327 . S
C1522 H1547 0.950 . S
C1523 C1522 1.349 . S
C1523 C1539 1.349 . S
C1524 C1522 1.327 . S
C1524 C1543 1.429 . S
C1524 H1548 0.950 . S
C1525 C1542 1.574 1_545 S
C1525 C1544 1.368 . S
C1525 H1549 0.949 . S
H1526 C1530 0.949 . S
C1527 C1528 1.349 . S
C1527 C1529 1.327 . S
C1527 H1550 0.950 . S
C1528 C1527 1.349 . S
C1528 C1540 1.349 . S
C1529 C1527 1.327 . S
C1529 C1545 1.429 . S
C1529 H1551 0.950 . S
C1530 H1526 0.949 . S
C1530 C1538 1.574 1_565 S
C1530 C1546 1.368 . S
H1531 C1539 0.950 . S
H1532 C1537 0.950 . S
H1533 C1538 0.949 . S
H1534 C1540 0.950 . S
H1535 C1541 0.950 . S
H1536 C1542 0.949 . S
C1537 H1532 0.950 . S
C1537 C1539 1.327 . S
C1537 C1543 1.429 . S
C1538 C1530 1.574 1_545 S
C1538 H1533 0.949 . S
C1538 C1544 1.368 . S
C1539 C1523 1.349 . S
C1539 H1531 0.950 . S
C1539 C1537 1.327 . S
C1540 C1528 1.349 . S
C1540 H1534 0.950 . S
C1540 C1541 1.327 . S
C1541 H1535 0.950 . S
C1541 C1540 1.327 . S
C1541 C1545 1.429 . S
C1542 C1525 1.574 1_565 S
C1542 H1536 0.949 . S
C1542 C1546 1.368 . S
C1543 C1524 1.429 . S
C1543 C1537 1.429 . S
C1543 C1544 1.523 . S
C1544 C1525 1.368 . S
C1544 C1538 1.368 . S
C1544 C1543 1.523 . S
C1545 C1529 1.429 . S
C1545 C1541 1.429 . S
C1545 C1546 1.523 . S
C1546 C1530 1.368 . S
C1546 C1542 1.368 . S
C1546 C1545 1.523 . S
H1547 C1522 0.950 . S
H1548 C1524 0.950 . S
H1549 C1525 0.949 . S
H1550 C1527 0.950 . S
H1551 C1529 0.950 . S
C1552 C1553 1.349 . S
C1552 C1554 1.327 . S
C1552 H1577 0.950 . S
C1553 C1552 1.349 . S
C1553 C1569 1.349 . S
C1554 C1552 1.327 . S
C1554 C1573 1.429 . S
C1554 H1578 0.950 . S
C1555 C1572 1.574 . S
C1555 C1574 1.368 . S
C1555 H1579 0.949 . S
H1556 C1560 0.949 . S
C1557 C1558 1.349 . S
C1557 C1559 1.327 . S
C1557 H1580 0.950 . S
C1558 C1557 1.349 . S
C1558 C1570 1.349 . S
C1559 C1557 1.327 . S
C1559 C1575 1.429 . S
C1559 H1581 0.950 . S
C1560 H1556 0.949 . S
C1560 C1568 1.574 . S
C1560 C1576 1.368 . S
H1561 C1569 0.950 . S
H1562 C1567 0.950 . S
H1563 C1568 0.949 . S
H1564 C1570 0.950 . S
H1565 C1571 0.950 . S
H1566 C1572 0.949 . S
C1567 H1562 0.950 . S
C1567 C1569 1.327 . S
C1567 C1573 1.429 . S
C1568 C1560 1.574 . S
C1568 H1563 0.949 . S
C1568 C1574 1.368 . S
C1569 C1553 1.349 . S
C1569 H1561 0.950 . S
C1569 C1567 1.327 . S
C1570 C1558 1.349 . S
C1570 H1564 0.950 . S
C1570 C1571 1.327 . S
C1571 H1565 0.950 . S
C1571 C1570 1.327 . S
C1571 C1575 1.429 . S
C1572 C1555 1.574 . S
C1572 H1566 0.949 . S
C1572 C1576 1.368 . S
C1573 C1554 1.429 . S
C1573 C1567 1.429 . S
C1573 C1574 1.523 . S
C1574 C1555 1.368 . S
C1574 C1568 1.368 . S
C1574 C1573 1.523 . S
C1575 C1559 1.429 . S
C1575 C1571 1.429 . S
C1575 C1576 1.523 . S
C1576 C1560 1.368 . S
C1576 C1572 1.368 . S
C1576 C1575 1.523 . S
H1577 C1552 0.950 . S
H1578 C1554 0.950 . S
H1579 C1555 0.949 . S
H1580 C1557 0.950 . S
H1581 C1559 0.950 . S
C1582 C1583 1.349 . S
C1582 C1584 1.327 . S
C1582 H1607 0.950 . S
C1583 C1582 1.349 . S
C1583 C1599 1.349 . S
C1584 C1582 1.327 . S
C1584 C1603 1.429 . S
C1584 H1608 0.950 . S
C1585 C1602 1.574 . S
C1585 C1604 1.368 . S
C1585 H1609 0.949 . S
H1586 C1590 0.949 . S
C1587 C1588 1.349 . S
C1587 C1589 1.327 . S
C1587 H1610 0.950 . S
C1588 C1587 1.349 . S
C1588 C1600 1.349 . S
C1589 C1587 1.327 . S
C1589 C1605 1.429 . S
C1589 H1611 0.950 . S
C1590 H1586 0.949 . S
C1590 C1598 1.574 . S
C1590 C1606 1.368 . S
H1591 C1599 0.950 . S
H1592 C1597 0.950 . S
H1593 C1598 0.949 1_556 S
H1594 C1600 0.950 . S
H1595 C1601 0.950 . S
H1596 C1602 0.949 . S
C1597 H1592 0.950 . S
C1597 C1599 1.327 . S
C1597 C1603 1.429 . S
C1598 C1590 1.574 . S
C1598 H1593 0.949 1_554 S
C1598 C1604 1.368 . S
C1599 C1583 1.349 . S
C1599 H1591 0.950 . S
C1599 C1597 1.327 . S
C1600 C1588 1.349 . S
C1600 H1594 0.950 . S
C1600 C1601 1.327 . S
C1601 H1595 0.950 . S
C1601 C1600 1.327 . S
C1601 C1605 1.429 . S
C1602 C1585 1.574 . S
C1602 H1596 0.949 . S
C1602 C1606 1.368 . S
C1603 C1584 1.429 . S
C1603 C1597 1.429 . S
C1603 C1604 1.523 1_556 S
C1604 C1585 1.368 . S
C1604 C1598 1.368 . S
C1604 C1603 1.523 1_554 S
C1605 C1589 1.429 . S
C1605 C1601 1.429 . S
C1605 C1606 1.523 . S
C1606 C1590 1.368 . S
C1606 C1602 1.368 . S
C1606 C1605 1.523 . S
H1607 C1582 0.950 . S
H1608 C1584 0.950 . S
H1609 C1585 0.949 . S
H1610 C1587 0.950 . S
H1611 C1589 0.950 . S
C1612 C1613 1.349 . S
C1612 C1614 1.327 . S
C1612 H1637 0.950 . S
C1613 C1612 1.349 . S
C1613 C1629 1.349 . S
C1614 C1612 1.327 . S
C1614 C1633 1.429 . S
C1614 H1638 0.950 . S
C1615 C1632 1.574 . S
C1615 C1634 1.368 . S
C1615 H1639 0.949 . S
H1616 C1620 0.949 . S
C1617 C1618 1.349 . S
C1617 C1619 1.327 . S
C1617 H1640 0.950 . S
C1618 C1617 1.349 . S
C1618 C1630 1.349 . S
C1619 C1617 1.327 . S
C1619 C1635 1.429 . S
C1619 H1641 0.950 . S
C1620 H1616 0.949 . S
C1620 C1628 1.574 . S
C1620 C1636 1.368 . S
H1621 C1629 0.950 . S
H1622 C1627 0.950 . S
H1623 C1628 0.949 . S
H1624 C1630 0.950 . S
H1625 C1631 0.950 . S
H1626 C1632 0.949 . S
C1627 H1622 0.950 . S
C1627 C1629 1.327 . S
C1627 C1633 1.429 . S
C1628 C1620 1.574 . S
C1628 H1623 0.949 . S
C1628 C1634 1.368 . S
C1629 C1613 1.349 . S
C1629 H1621 0.950 . S
C1629 C1627 1.327 . S
C1630 C1618 1.349 . S
C1630 H1624 0.950 . S
C1630 C1631 1.327 . S
C1631 H1625 0.950 . S
C1631 C1630 1.327 . S
C1631 C1635 1.429 . S
C1632 C1615 1.574 . S
C1632 H1626 0.949 . S
C1632 C1636 1.368 . S
C1633 C1614 1.429 . S
C1633 C1627 1.429 . S
C1633 C1634 1.523 . S
C1634 C1615 1.368 . S
C1634 C1628 1.368 . S
C1634 C1633 1.523 . S
C1635 C1619 1.429 . S
C1635 C1631 1.429 . S
C1635 C1636 1.523 . S
C1636 C1620 1.368 . S
C1636 C1632 1.368 . S
C1636 C1635 1.523 . S
H1637 C1612 0.950 . S
H1638 C1614 0.950 . S
H1639 C1615 0.949 . S
H1640 C1617 0.950 . S
H1641 C1619 0.950 . S
C1642 C1643 1.349 . S
C1642 C1644 1.327 . S
C1642 H1667 0.950 . S
C1643 C1642 1.349 . S
C1643 C1659 1.349 . S
C1644 C1642 1.327 . S
C1644 C1663 1.429 . S
C1644 H1668 0.950 . S
C1645 C1662 1.574 . S
C1645 C1664 1.368 1_655 S
C1645 H1669 0.949 . S
H1646 C1650 0.949 . S
C1647 C1648 1.349 . S
C1647 C1649 1.327 . S
C1647 H1670 0.950 . S
C1648 C1647 1.349 . S
C1648 C1660 1.349 . S
C1649 C1647 1.327 . S
C1649 C1665 1.429 . S
C1649 H1671 0.950 . S
C1650 H1646 0.949 . S
C1650 C1658 1.574 . S
C1650 C1666 1.368 1_455 S
H1651 C1659 0.950 . S
H1652 C1657 0.950 . S
H1653 C1658 0.949 . S
H1654 C1660 0.950 . S
H1655 C1661 0.950 . S
H1656 C1662 0.949 . S
C1657 H1652 0.950 . S
C1657 C1659 1.327 . S
C1657 C1663 1.429 . S
C1658 C1650 1.574 . S
C1658 H1653 0.949 . S
C1658 C1664 1.368 . S
C1659 C1643 1.349 . S
C1659 H1651 0.950 . S
C1659 C1657 1.327 . S
C1660 C1648 1.349 . S
C1660 H1654 0.950 . S
C1660 C1661 1.327 . S
C1661 H1655 0.950 . S
C1661 C1660 1.327 . S
C1661 C1665 1.429 . S
C1662 C1645 1.574 . S
C1662 H1656 0.949 . S
C1662 C1666 1.368 . S
C1663 C1644 1.429 . S
C1663 C1657 1.429 . S
C1663 C1664 1.523 . S
C1664 C1645 1.368 1_455 S
C1664 C1658 1.368 . S
C1664 C1663 1.523 . S
C1665 C1649 1.429 . S
C1665 C1661 1.429 . S
C1665 C1666 1.523 . S
C1666 C1650 1.368 1_655 S
C1666 C1662 1.368 . S
C1666 C1665 1.523 . S
H1667 C1642 0.950 . S
H1668 C1644 0.950 . S
H1669 C1645 0.949 . S
H1670 C1647 0.950 . S
H1671 C1649 0.950 . S
C1672 C1673 1.349 . S
C1672 C1674 1.327 . S
C1672 H1697 0.950 . S
C1673 C1672 1.349 . S
C1673 C1689 1.349 . S
C1674 C1672 1.327 . S
C1674 C1693 1.429 . S
C1674 H1698 0.950 . S
C1675 C1692 1.574 . S
C1675 C1694 1.368 . S
C1675 H1699 0.949 . S
H1676 C1680 0.949 . S
C1677 C1678 1.349 . S
C1677 C1679 1.327 . S
C1677 H1700 0.950 . S
C1678 C1677 1.349 . S
C1678 C1690 1.349 . S
C1679 C1677 1.327 . S
C1679 C1695 1.429 . S
C1679 H1701 0.950 . S
C1680 H1676 0.949 . S
C1680 C1688 1.574 . S
C1680 C1696 1.368 . S
H1681 C1689 0.950 . S
H1682 C1687 0.950 . S
H1683 C1688 0.949 . S
H1684 C1690 0.950 . S
H1685 C1691 0.950 . S
H1686 C1692 0.949 . S
C1687 H1682 0.950 . S
C1687 C1689 1.327 . S
C1687 C1693 1.429 . S
C1688 C1680 1.574 . S
C1688 H1683 0.949 . S
C1688 C1694 1.368 . S
C1689 C1673 1.349 . S
C1689 H1681 0.950 . S
C1689 C1687 1.327 . S
C1690 C1678 1.349 . S
C1690 H1684 0.950 . S
C1690 C1691 1.327 . S
C1691 H1685 0.950 . S
C1691 C1690 1.327 . S
C1691 C1695 1.429 . S
C1692 C1675 1.574 . S
C1692 H1686 0.949 . S
C1692 C1696 1.368 . S
C1693 C1674 1.429 . S
C1693 C1687 1.429 . S
C1693 C1694 1.523 . S
C1694 C1675 1.368 . S
C1694 C1688 1.368 . S
C1694 C1693 1.523 . S
C1695 C1679 1.429 . S
C1695 C1691 1.429 . S
C1695 C1696 1.523 . S
C1696 C1680 1.368 . S
C1696 C1692 1.368 . S
C1696 C1695 1.523 . S
H1697 C1672 0.950 . S
H1698 C1674 0.950 . S
H1699 C1675 0.949 . S
H1700 C1677 0.950 . S
H1701 C1679 0.950 . S
C1702 C1703 1.349 . S
C1702 C1704 1.327 . S
C1702 H1727 0.950 . S
C1703 C1702 1.349 . S
C1703 C1719 1.349 . S
C1704 C1702 1.327 . S
C1704 C1723 1.429 . S
C1704 H1728 0.950 . S
C1705 C1722 1.574 . S
C1705 C1724 1.368 . S
C1705 H1729 0.949 . S
H1706 C1710 0.949 . S
C1707 C1708 1.349 . S
C1707 C1709 1.327 . S
C1707 H1730 0.950 . S
C1708 C1707 1.349 . S
C1708 C1720 1.349 . S
C1709 C1707 1.327 . S
C1709 C1725 1.429 . S
C1709 H1731 0.950 . S
C1710 H1706 0.949 . S
C1710 C1718 1.574 . S
C1710 C1726 1.368 . S
H1711 C1719 0.950 . S
H1712 C1717 0.950 . S
H1713 C1718 0.949 . S
H1714 C1720 0.950 . S
H1715 C1721 0.950 . S
H1716 C1722 0.949 . S
C1717 H1712 0.950 . S
C1717 C1719 1.327 . S
C1717 C1723 1.429 . S
C1718 C1710 1.574 . S
C1718 H1713 0.949 . S
C1718 C1724 1.368 . S
C1719 C1703 1.349 . S
C1719 H1711 0.950 . S
C1719 C1717 1.327 . S
C1720 C1708 1.349 . S
C1720 H1714 0.950 . S
C1720 C1721 1.327 . S
C1721 H1715 0.950 . S
C1721 C1720 1.327 . S
C1721 C1725 1.429 . S
C1722 C1705 1.574 . S
C1722 H1716 0.949 . S
C1722 C1726 1.368 . S
C1723 C1704 1.429 . S
C1723 C1717 1.429 . S
C1723 C1724 1.523 . S
C1724 C1705 1.368 . S
C1724 C1718 1.368 . S
C1724 C1723 1.523 . S
C1725 C1709 1.429 . S
C1725 C1721 1.429 . S
C1725 C1726 1.523 . S
C1726 C1710 1.368 . S
C1726 C1722 1.368 . S
C1726 C1725 1.523 . S
H1727 C1702 0.950 . S
H1728 C1704 0.950 . S
H1729 C1705 0.949 . S
H1730 C1707 0.950 . S
H1731 C1709 0.950 . S
C1732 C1733 1.349 . S
C1732 C1734 1.327 . S
C1732 H1757 0.950 . S
C1733 C1732 1.349 . S
C1733 C1749 1.349 . S
C1734 C1732 1.327 . S
C1734 C1753 1.429 . S
C1734 H1758 0.950 1_565 S
C1735 C1752 1.574 . S
C1735 C1754 1.368 1_455 S
C1735 H1759 0.949 . S
H1736 C1740 0.949 . S
C1737 C1738 1.349 . S
C1737 C1739 1.327 . S
C1737 H1760 0.950 . S
C1738 C1737 1.349 . S
C1738 C1750 1.349 . S
C1739 C1737 1.327 . S
C1739 C1755 1.429 . S
C1739 H1761 0.950 1_545 S
C1740 H1736 0.949 . S
C1740 C1748 1.574 . S
C1740 C1756 1.368 1_655 S
H1741 C1749 0.950 . S
H1742 C1747 0.950 . S
H1743 C1748 0.949 . S
H1744 C1750 0.950 . S
H1745 C1751 0.950 . S
H1746 C1752 0.949 . S
C1747 H1742 0.950 . S
C1747 C1749 1.327 . S
C1747 C1753 1.429 . S
C1748 C1740 1.574 . S
C1748 H1743 0.949 . S
C1748 C1754 1.368 1_545 S
C1749 C1733 1.349 . S
C1749 H1741 0.950 . S
C1749 C1747 1.327 . S
C1750 C1738 1.349 . S
C1750 H1744 0.950 . S
C1750 C1751 1.327 . S
C1751 H1745 0.950 . S
C1751 C1750 1.327 . S
C1751 C1755 1.429 . S
C1752 C1735 1.574 . S
C1752 H1746 0.949 . S
C1752 C1756 1.368 1_565 S
C1753 C1734 1.429 . S
C1753 C1747 1.429 . S
C1753 C1754 1.523 . S
C1754 C1735 1.368 1_655 S
C1754 C1748 1.368 1_565 S
C1754 C1753 1.523 . S
C1755 C1739 1.429 . S
C1755 C1751 1.429 . S
C1755 C1756 1.523 . S
C1756 C1740 1.368 1_455 S
C1756 C1752 1.368 1_545 S
C1756 C1755 1.523 . S
H1757 C1732 0.950 . S
H1758 C1734 0.950 1_545 S
H1759 C1735 0.949 . S
H1760 C1737 0.950 . S
H1761 C1739 0.950 1_565 S
C1762 C1763 1.349 . S
C1762 C1764 1.327 . S
C1762 H1787 0.950 . S
C1763 C1762 1.349 . S
C1763 C1779 1.349 . S
C1764 C1762 1.327 . S
C1764 C1783 1.429 . S
C1764 H1788 0.950 . S
C1765 C1782 1.579 . S
C1765 C1784 1.363 1_565 S
C1765 H1789 0.949 . S
H1766 C1770 0.949 . S
C1767 C1768 1.349 . S
C1767 C1769 1.327 . S
C1767 H1790 0.950 . S
C1768 C1767 1.349 . S
C1768 C1780 1.349 . S
C1769 C1767 1.327 . S
C1769 C1785 1.429 . S
C1769 H1791 0.950 . S
C1770 H1766 0.949 . S
C1770 C1778 1.579 . S
C1770 C1786 1.363 1_545 S
H1771 C1779 0.950 . S
H1772 C1777 0.959 . S
H1773 C1778 0.949 1_556 S
H1774 C1780 0.950 . S
H1775 C1781 0.950 . S
H1776 C1782 0.949 . S
C1777 H1772 0.959 . S
C1777 C1779 1.327 . S
C1777 C1783 1.429 . S
C1778 C1770 1.579 . S
C1778 H1773 0.949 1_554 S
C1778 C1784 1.368 . S
C1779 C1763 1.349 . S
C1779 H1771 0.950 . S
C1779 C1777 1.327 . S
C1780 C1768 1.349 . S
C1780 H1774 0.950 . S
C1780 C1781 1.327 . S
C1781 H1775 0.950 . S
C1781 C1780 1.327 . S
C1781 C1785 1.429 . S
C1782 C1765 1.579 . S
C1782 H1776 0.949 . S
C1782 C1786 1.368 . S
C1783 C1764 1.429 . S
C1783 C1777 1.429 . S
C1783 C1784 1.523 1_556 S
C1784 C1765 1.363 1_545 S
C1784 C1778 1.368 . S
C1784 C1783 1.523 1_554 S
C1785 C1769 1.429 . S
C1785 C1781 1.429 . S
C1785 C1786 1.523 . S
C1786 C1770 1.363 1_565 S
C1786 C1782 1.368 . S
C1786 C1785 1.523 . S
H1787 C1762 0.950 . S
H1788 C1764 0.950 . S
H1789 C1765 0.949 . S
H1790 C1767 0.950 . S
H1791 C1769 0.950 . S
C353 C18 1.455 1_556 S
C358 C208 1.487 . S
C383 C230 1.487 . S
C388 C40 1.455 . S
C413 C252 1.487 . S
C418 C62 1.455 . S
C443 C186 1.487 . S
C448 C84 1.455 . S
C473 C96 1.455 . S
C478 C296 1.487 . S
C503 C120 1.455 . S
C508 C318 1.487 1_556 S
C533 C340 1.487 . S
C538 C150 1.455 . S
C563 C282 1.487 . S
C568 C172 1.455 . S
C593 C32 1.487 . S
C598 C194 1.455 . S
C623 C54 1.487 . S
C628 C216 1.455 1_565 S
C653 C76 1.487 . S
C658 C238 1.455 1_556 S
C683 C260 1.455 1_545 S
C688 C10 1.487 . S
C713 C118 1.487 . S
C718 C272 1.455 . S
C743 C142 1.487 . S
C748 C304 1.455 1_545 S
C773 C164 1.487 . S
C778 C326 1.455 . S
C803 C106 1.487 1_556 S
C808 C348 1.455 1_565 S
C833 C15 1.431 . S
C838 C351 1.460 . S
C863 C37 1.431 . S
C868 C103 1.459 . S
C893 C307 1.460 1_455 S
C898 C59 1.431 . S
C923 C153 1.459 . S
C928 C81 1.431 . S
C953 C95 1.431 . S
C958 C263 1.460 . S
C983 C21 1.459 . S
C988 C131 1.431 . S
C1013 C147 1.431 . S
C1018 C219 1.460 1_655 S
C1043 C169 1.431 . S
C1048 C65 1.459 . S
C1073 C191 1.431 . S
C1078 C175 1.460 1_655 S
C1103 C279 1.459 . S
C1108 C213 1.431 . S
C1133 C235 1.431 . S
C1138 C117 1.460 . S
C1163 C329 1.459 . S
C1168 C257 1.431 . S
C1193 C271 1.431 . S
C1198 C87 1.460 1_455 S
C1223 C197 1.459 . S
C1228 C301 1.431 . S
C1253 C323 1.431 . S
C1258 C43 1.460 . S
C1283 C345 1.431 . S
C1288 C241 1.459 . S
C1313 C8 1.588 . S
C1318 C274 1.588 . S
C1343 C128 1.588 . S
C1348 C30 1.588 . S
C1373 C52 1.588 . S
C1378 C316 1.588 . S
C1403 C162 1.588 . S
C1408 C74 1.588 . S
C1433 C98 1.588 . S
C1438 C184 1.588 . S
C1463 C228 1.588 . S
C1468 C140 1.588 . S
C1493 C206 1.588 . S
C1498 C294 1.588 . S
C1523 C338 1.588 . S
C1528 C250 1.588 . S
C1553 C285 0.773 . S
C1558 C7 0.773 . S
C1583 C125 0.773 . S
C1588 C29 0.773 . S
C1613 C51 0.773 . S
C1618 C315 0.773 . S
C1643 C161 0.773 . S
C1648 C73 0.773 . S
C1673 C109 0.773 . S
C1678 C183 0.773 . S
C1703 C139 0.773 . S
C1708 C227 0.773 . S
C1733 C293 0.773 . S
C1738 C205 0.773 . S
C1763 C337 0.773 . S
C1768 C249 0.773 . S
