# Generated by pormake.
# Topology umq, (4)-cn, num edge types: 1
# Building blocks:
#     Node 0, Type 0, BuildingBlock: NAHDIM_clean_sbu_0, # of connection points: 4
#     Node 1, Type 0, BuildingBlock: NAHDIM_clean_sbu_0, # of connection points: 4
#     Node 2, Type 0, BuildingBlock: NAHDIM_clean_sbu_0, # of connection points: 4
#     Node 3, Type 0, BuildingBlock: NAHDIM_clean_sbu_0, # of connection points: 4
#     Node 4, Type 0, BuildingBlock: NAHDIM_clean_sbu_0, # of connection points: 4
#     Node 5, Type 0, BuildingBlock: NAHDIM_clean_sbu_0, # of connection points: 4
#     Node 6, Type 0, BuildingBlock: NAHDIM_clean_sbu_0, # of connection points: 4
#     Node 7, Type 0, BuildingBlock: NAHDIM_clean_sbu_0, # of connection points: 4
#     Node 8, Type 0, BuildingBlock: NAHDIM_clean_sbu_0, # of connection points: 4
#     Node 9, Type 0, BuildingBlock: NAHDIM_clean_sbu_0, # of connection points: 4
#     Node 10, Type 0, BuildingBlock: NAHDIM_clean_sbu_0, # of connection points: 4
#     Node 11, Type 0, BuildingBlock: NAHDIM_clean_sbu_0, # of connection points: 4
#     Node 12, Type 0, BuildingBlock: NAHDIM_clean_sbu_0, # of connection points: 4
#     Node 13, Type 0, BuildingBlock: NAHDIM_clean_sbu_0, # of connection points: 4
#     Node 14, Type 0, BuildingBlock: NAHDIM_clean_sbu_0, # of connection points: 4
#     Node 15, Type 0, BuildingBlock: NAHDIM_clean_sbu_0, # of connection points: 4
#     Node 16, Type 0, BuildingBlock: NAHDIM_clean_sbu_0, # of connection points: 4
#     Node 17, Type 0, BuildingBlock: NAHDIM_clean_sbu_0, # of connection points: 4
#     Node 18, Type 0, BuildingBlock: NAHDIM_clean_sbu_0, # of connection points: 4
#     Node 19, Type 0, BuildingBlock: NAHDIM_clean_sbu_0, # of connection points: 4
#     Node 20, Type 0, BuildingBlock: NAHDIM_clean_sbu_0, # of connection points: 4
#     Node 21, Type 0, BuildingBlock: NAHDIM_clean_sbu_0, # of connection points: 4
#     Node 22, Type 0, BuildingBlock: NAHDIM_clean_sbu_0, # of connection points: 4
#     Node 23, Type 0, BuildingBlock: NAHDIM_clean_sbu_0, # of connection points: 4
#     Node 24, Type 0, BuildingBlock: NAHDIM_clean_sbu_0, # of connection points: 4
#     Node 25, Type 0, BuildingBlock: NAHDIM_clean_sbu_0, # of connection points: 4
#     Node 26, Type 0, BuildingBlock: NAHDIM_clean_sbu_0, # of connection points: 4
#     Node 27, Type 0, BuildingBlock: NAHDIM_clean_sbu_0, # of connection points: 4
#     Node 28, Type 0, BuildingBlock: NAHDIM_clean_sbu_0, # of connection points: 4
#     Node 29, Type 0, BuildingBlock: NAHDIM_clean_sbu_0, # of connection points: 4
#     Node 30, Type 0, BuildingBlock: NAHDIM_clean_sbu_0, # of connection points: 4
#     Node 31, Type 0, BuildingBlock: NAHDIM_clean_sbu_0, # of connection points: 4
#     Edge 32, Type (0, 0), BuildingBlock: OJICUG_clean_linker_0, # of connection points: 2
#     Edge 33, Type (0, 0), BuildingBlock: OJICUG_clean_linker_0, # of connection points: 2
#     Edge 34, Type (0, 0), BuildingBlock: OJICUG_clean_linker_0, # of connection points: 2
#     Edge 35, Type (0, 0), BuildingBlock: OJICUG_clean_linker_0, # of connection points: 2
#     Edge 36, Type (0, 0), BuildingBlock: OJICUG_clean_linker_0, # of connection points: 2
#     Edge 37, Type (0, 0), BuildingBlock: OJICUG_clean_linker_0, # of connection points: 2
#     Edge 38, Type (0, 0), BuildingBlock: OJICUG_clean_linker_0, # of connection points: 2
#     Edge 39, Type (0, 0), BuildingBlock: OJICUG_clean_linker_0, # of connection points: 2
#     Edge 40, Type (0, 0), BuildingBlock: OJICUG_clean_linker_0, # of connection points: 2
#     Edge 41, Type (0, 0), BuildingBlock: OJICUG_clean_linker_0, # of connection points: 2
#     Edge 42, Type (0, 0), BuildingBlock: OJICUG_clean_linker_0, # of connection points: 2
#     Edge 43, Type (0, 0), BuildingBlock: OJICUG_clean_linker_0, # of connection points: 2
#     Edge 44, Type (0, 0), BuildingBlock: OJICUG_clean_linker_0, # of connection points: 2
#     Edge 45, Type (0, 0), BuildingBlock: OJICUG_clean_linker_0, # of connection points: 2
#     Edge 46, Type (0, 0), BuildingBlock: OJICUG_clean_linker_0, # of connection points: 2
#     Edge 47, Type (0, 0), BuildingBlock: OJICUG_clean_linker_0, # of connection points: 2
#     Edge 48, Type (0, 0), BuildingBlock: OJICUG_clean_linker_0, # of connection points: 2
#     Edge 49, Type (0, 0), BuildingBlock: OJICUG_clean_linker_0, # of connection points: 2
#     Edge 50, Type (0, 0), BuildingBlock: OJICUG_clean_linker_0, # of connection points: 2
#     Edge 51, Type (0, 0), BuildingBlock: OJICUG_clean_linker_0, # of connection points: 2
#     Edge 52, Type (0, 0), BuildingBlock: OJICUG_clean_linker_0, # of connection points: 2
#     Edge 53, Type (0, 0), BuildingBlock: OJICUG_clean_linker_0, # of connection points: 2
#     Edge 54, Type (0, 0), BuildingBlock: OJICUG_clean_linker_0, # of connection points: 2
#     Edge 55, Type (0, 0), BuildingBlock: OJICUG_clean_linker_0, # of connection points: 2
#     Edge 56, Type (0, 0), BuildingBlock: OJICUG_clean_linker_0, # of connection points: 2
#     Edge 57, Type (0, 0), BuildingBlock: OJICUG_clean_linker_0, # of connection points: 2
#     Edge 58, Type (0, 0), BuildingBlock: OJICUG_clean_linker_0, # of connection points: 2
#     Edge 59, Type (0, 0), BuildingBlock: OJICUG_clean_linker_0, # of connection points: 2
#     Edge 60, Type (0, 0), BuildingBlock: OJICUG_clean_linker_0, # of connection points: 2
#     Edge 61, Type (0, 0), BuildingBlock: OJICUG_clean_linker_0, # of connection points: 2
#     Edge 62, Type (0, 0), BuildingBlock: OJICUG_clean_linker_0, # of connection points: 2
#     Edge 63, Type (0, 0), BuildingBlock: OJICUG_clean_linker_0, # of connection points: 2
#     Edge 64, Type (0, 0), BuildingBlock: OJICUG_clean_linker_0, # of connection points: 2
#     Edge 65, Type (0, 0), BuildingBlock: OJICUG_clean_linker_0, # of connection points: 2
#     Edge 66, Type (0, 0), BuildingBlock: OJICUG_clean_linker_0, # of connection points: 2
#     Edge 67, Type (0, 0), BuildingBlock: OJICUG_clean_linker_0, # of connection points: 2
#     Edge 68, Type (0, 0), BuildingBlock: OJICUG_clean_linker_0, # of connection points: 2
#     Edge 69, Type (0, 0), BuildingBlock: OJICUG_clean_linker_0, # of connection points: 2
#     Edge 70, Type (0, 0), BuildingBlock: OJICUG_clean_linker_0, # of connection points: 2
#     Edge 71, Type (0, 0), BuildingBlock: OJICUG_clean_linker_0, # of connection points: 2
#     Edge 72, Type (0, 0), BuildingBlock: OJICUG_clean_linker_0, # of connection points: 2
#     Edge 73, Type (0, 0), BuildingBlock: OJICUG_clean_linker_0, # of connection points: 2
#     Edge 74, Type (0, 0), BuildingBlock: OJICUG_clean_linker_0, # of connection points: 2
#     Edge 75, Type (0, 0), BuildingBlock: OJICUG_clean_linker_0, # of connection points: 2
#     Edge 76, Type (0, 0), BuildingBlock: OJICUG_clean_linker_0, # of connection points: 2
#     Edge 77, Type (0, 0), BuildingBlock: OJICUG_clean_linker_0, # of connection points: 2
#     Edge 78, Type (0, 0), BuildingBlock: OJICUG_clean_linker_0, # of connection points: 2
#     Edge 79, Type (0, 0), BuildingBlock: OJICUG_clean_linker_0, # of connection points: 2
#     Edge 80, Type (0, 0), BuildingBlock: OJICUG_clean_linker_0, # of connection points: 2
#     Edge 81, Type (0, 0), BuildingBlock: OJICUG_clean_linker_0, # of connection points: 2
#     Edge 82, Type (0, 0), BuildingBlock: OJICUG_clean_linker_0, # of connection points: 2
#     Edge 83, Type (0, 0), BuildingBlock: OJICUG_clean_linker_0, # of connection points: 2
#     Edge 84, Type (0, 0), BuildingBlock: OJICUG_clean_linker_0, # of connection points: 2
#     Edge 85, Type (0, 0), BuildingBlock: OJICUG_clean_linker_0, # of connection points: 2
#     Edge 86, Type (0, 0), BuildingBlock: OJICUG_clean_linker_0, # of connection points: 2
#     Edge 87, Type (0, 0), BuildingBlock: OJICUG_clean_linker_0, # of connection points: 2
#     Edge 88, Type (0, 0), BuildingBlock: OJICUG_clean_linker_0, # of connection points: 2
#     Edge 89, Type (0, 0), BuildingBlock: OJICUG_clean_linker_0, # of connection points: 2
#     Edge 90, Type (0, 0), BuildingBlock: OJICUG_clean_linker_0, # of connection points: 2
#     Edge 91, Type (0, 0), BuildingBlock: OJICUG_clean_linker_0, # of connection points: 2
#     Edge 92, Type (0, 0), BuildingBlock: OJICUG_clean_linker_0, # of connection points: 2
#     Edge 93, Type (0, 0), BuildingBlock: OJICUG_clean_linker_0, # of connection points: 2
#     Edge 94, Type (0, 0), BuildingBlock: OJICUG_clean_linker_0, # of connection points: 2
#     Edge 95, Type (0, 0), BuildingBlock: OJICUG_clean_linker_0, # of connection points: 2
# Relax obj value: 0.091
# Max RMSD: 0.106
# Mean RMSD: 0.106
data_MOF--net-umq--node1-NAHDIM_clean_sbu_0--edge1-OJICUG_clean_linker_0
_symmetry_space_group_name_H-M    P1
_symmetry_Int_Tables_number       1
_symmetry_cell_setting            triclinic
loop_
_symmetry_equiv_pos_as_xyz
'x, y, z'
_cell_length_a     49.742648
_cell_length_b     49.762655
_cell_length_c     31.479217
_cell_angle_alpha  89.961323
_cell_angle_beta   90.001356
_cell_angle_gamma 89.997949
loop_
_atom_site_label
_atom_site_type_symbol
_atom_site_fract_x
_atom_site_fract_y
_atom_site_fract_z
_atom_type_partial_charge
C0 C 0.21969 0.05576 0.20792 0.0
O1 O 0.19705 0.06681 0.19542 0.0
O2 O 0.2313 0.10368 0.11339 0.0
Zn3 Zn 0.24071 0.10537 0.17595 0.0
O4 O 0.21466 0.12844 0.2086 0.0
C5 C 0.29615 0.11988 0.1561 0.0
O6 O 0.29345 0.10272 0.12469 0.0
O7 O 0.24157 0.06848 0.20244 0.0
C8 C 0.19014 0.13253 0.19932 0.0
O9 O 0.17985 0.12115 0.16537 0.0
C10 C 0.23503 0.08225 0.09221 0.0
O11 O 0.24387 0.06072 0.11196 0.0
O12 O 0.27676 0.1233 0.18183 0.0
C13 C 0.92938 0.22302 0.20568 0.0
O14 O 0.91787 0.20058 0.19338 0.0
O15 O 0.88287 0.23527 0.1095 0.0
Zn16 Zn 0.88067 0.24453 0.17202 0.0
O17 O 0.85732 0.21849 0.2042 0.0
C18 C 0.86648 0.29997 0.15206 0.0
O19 O 0.88387 0.29729 0.12094 0.0
O20 O 0.9173 0.24516 0.19932 0.0
C21 C 0.85319 0.19403 0.19472 0.0
O22 O 0.86457 0.18384 0.16068 0.0
C23 C 0.90448 0.23913 0.08877 0.0
O24 O 0.92583 0.24792 0.10901 0.0
O25 O 0.86284 0.28057 0.1777 0.0
C26 C 0.77103 0.93083 0.21025 0.0
O27 O 0.79394 0.91931 0.20033 0.0
O28 O 0.75953 0.8845 0.11208 0.0
Zn29 Zn 0.75017 0.88216 0.17461 0.0
O30 O 0.77625 0.85881 0.20674 0.0
C31 C 0.69434 0.86895 0.15576 0.0
O32 O 0.69689 0.88674 0.12517 0.0
O33 O 0.74917 0.91875 0.20182 0.0
C34 C 0.80078 0.85495 0.19729 0.0
O35 O 0.81094 0.8667 0.16354 0.0
C36 C 0.75647 0.90635 0.09165 0.0
O37 O 0.74827 0.92784 0.11211 0.0
O38 O 0.71406 0.86451 0.18043 0.0
C39 C 0.06347 0.77313 0.2077 0.0
O40 O 0.07512 0.79622 0.19923 0.0
O41 O 0.10777 0.76053 0.10566 0.0
Zn42 Zn 0.11138 0.75355 0.16867 0.0
O43 O 0.13292 0.78294 0.19649 0.0
C44 C 0.12615 0.69803 0.15432 0.0
O45 O 0.10688 0.69921 0.12583 0.0
O46 O 0.07519 0.75148 0.19704 0.0
C47 C 0.1397 0.77969 0.23509 0.0
O48 O 0.13254 0.75749 0.2547 0.0
C49 C 0.08577 0.75687 0.08591 0.0
O50 O 0.06438 0.74936 0.10731 0.0
O51 O 0.13122 0.71865 0.17673 0.0
C52 C 0.21874 0.95202 0.29097 0.0
O53 O 0.1958 0.94038 0.30051 0.0
O54 O 0.23406 0.9092 0.39293 0.0
Zn55 Zn 0.23931 0.90441 0.32996 0.0
O56 O 0.21024 0.88123 0.30476 0.0
C57 C 0.29331 0.8856 0.34766 0.0
O58 O 0.29171 0.90221 0.37999 0.0
O59 O 0.24058 0.94028 0.30064 0.0
C60 C 0.20686 0.85781 0.31997 0.0
O61 O 0.22137 0.8503 0.35279 0.0
C62 C 0.21189 0.90802 0.4129 0.0
O63 O 0.18947 0.90411 0.39172 0.0
O64 O 0.2739 0.8843 0.32148 0.0
C65 C 0.03244 0.21969 0.29048 0.0
O66 O 0.04323 0.19646 0.30067 0.0
O67 O 0.07808 0.23111 0.38846 0.0
Zn68 Zn 0.08173 0.23756 0.32549 0.0
O69 O 0.10186 0.20773 0.29628 0.0
C70 C 0.10229 0.29072 0.34372 0.0
O71 O 0.08541 0.28944 0.37575 0.0
O72 O 0.04529 0.24114 0.29864 0.0
C73 C 0.12689 0.20484 0.30281 0.0
O74 O 0.1389 0.22057 0.33044 0.0
C75 C 0.0826 0.20924 0.4081 0.0
O76 O 0.08973 0.18779 0.38657 0.0
O77 O 0.10328 0.27136 0.31744 0.0
C78 C 0.77049 0.03477 0.29216 0.0
O79 O 0.79323 0.04594 0.30395 0.0
O80 O 0.75786 0.08115 0.38696 0.0
Zn81 Zn 0.75123 0.08421 0.32399 0.0
O82 O 0.78056 0.10473 0.29425 0.0
C83 C 0.69777 0.10432 0.34199 0.0
O84 O 0.69934 0.08801 0.37473 0.0
O85 O 0.74866 0.0475 0.29801 0.0
C86 C 0.78269 0.12989 0.30002 0.0
O87 O 0.7666 0.14172 0.32732 0.0
C88 C 0.77975 0.08602 0.40631 0.0
O89 O 0.80104 0.09328 0.38445 0.0
O90 O 0.71701 0.10502 0.31545 0.0
C91 C 0.96028 0.77096 0.29225 0.0
O92 O 0.94915 0.79348 0.30512 0.0
O93 O 0.91312 0.75674 0.38615 0.0
Zn94 Zn 0.91062 0.75117 0.32283 0.0
O95 O 0.8902 0.78098 0.29411 0.0
C96 C 0.89036 0.69746 0.33822 0.0
O97 O 0.9066 0.69837 0.37111 0.0
O98 O 0.9475 0.74906 0.29708 0.0
C99 C 0.86509 0.78329 0.3004 0.0
O100 O 0.85329 0.76705 0.32755 0.0
C101 C 0.90926 0.7787 0.40583 0.0
O102 O 0.90374 0.80059 0.38418 0.0
O103 O 0.88979 0.71717 0.31255 0.0
C104 C 0.77084 0.93258 0.78997 0.0
O105 O 0.79369 0.92107 0.80029 0.0
O106 O 0.75982 0.88563 0.88718 0.0
Zn107 Zn 0.75004 0.88374 0.8248 0.0
O108 O 0.77575 0.86054 0.79177 0.0
C109 C 0.69451 0.86989 0.84498 0.0
O110 O 0.69727 0.88729 0.87603 0.0
O111 O 0.74894 0.92045 0.79797 0.0
C112 C 0.80033 0.85631 0.80044 0.0
O113 O 0.81101 0.86759 0.83418 0.0
C114 C 0.7566 0.90725 0.90809 0.0
O115 O 0.74809 0.92883 0.88815 0.0
O116 O 0.71394 0.86602 0.8195 0.0
C117 C 0.06073 0.76548 0.78362 0.0
O118 O 0.07265 0.78823 0.79324 0.0
O119 O 0.10643 0.75539 0.88168 0.0
Zn120 Zn 0.10908 0.74494 0.81974 0.0
O121 O 0.13237 0.77094 0.78727 0.0
C122 C 0.12461 0.69063 0.84375 0.0
O123 O 0.10802 0.69444 0.87565 0.0
O124 O 0.0725 0.74349 0.79233 0.0
C125 C 0.13672 0.79517 0.79791 0.0
O126 O 0.12551 0.80475 0.83252 0.0
C127 C 0.0847 0.75257 0.90251 0.0
O128 O 0.06317 0.74373 0.88281 0.0
O129 O 0.12735 0.70897 0.81597 0.0
C130 C 0.22219 0.05949 0.79085 0.0
O131 O 0.19921 0.07077 0.80103 0.0
O132 O 0.23265 0.10592 0.88838 0.0
Zn133 Zn 0.24236 0.10849 0.82597 0.0
O134 O 0.21617 0.13148 0.79337 0.0
C135 C 0.2978 0.12283 0.84598 0.0
O136 O 0.29526 0.10522 0.87682 0.0
O137 O 0.24395 0.07189 0.79882 0.0
C138 C 0.19157 0.13531 0.80244 0.0
O139 O 0.18127 0.12375 0.83625 0.0
C140 C 0.23612 0.08409 0.90868 0.0
O141 O 0.24497 0.06288 0.88817 0.0
O142 O 0.27825 0.1267 0.82072 0.0
C143 C 0.92885 0.22513 0.78941 0.0
O144 O 0.91725 0.20279 0.80198 0.0
O145 O 0.8822 0.23752 0.8846 0.0
Zn146 Zn 0.88003 0.24689 0.82205 0.0
O147 O 0.85678 0.22072 0.78998 0.0
C148 C 0.86575 0.30247 0.84133 0.0
O149 O 0.88278 0.29982 0.87296 0.0
O150 O 0.91675 0.24733 0.79509 0.0
C151 C 0.85264 0.19633 0.79997 0.0
O152 O 0.86389 0.18645 0.83437 0.0
C153 C 0.90389 0.24108 0.90524 0.0
O154 O 0.92523 0.24998 0.88506 0.0
O155 O 0.86229 0.28298 0.81584 0.0
C156 C 0.77079 0.03603 0.70631 0.0
O157 O 0.79361 0.04724 0.69497 0.0
O158 O 0.7581 0.08153 0.60967 0.0
Zn159 Zn 0.7515 0.08504 0.67258 0.0
O160 O 0.78072 0.10592 0.70189 0.0
C161 C 0.69801 0.10489 0.65405 0.0
O162 O 0.69965 0.08838 0.6216 0.0
O163 O 0.74895 0.04855 0.6994 0.0
C164 C 0.78275 0.13105 0.69557 0.0
O165 O 0.76663 0.1426 0.66796 0.0
C166 C 0.77993 0.08643 0.59015 0.0
O167 O 0.80121 0.09398 0.61179 0.0
O168 O 0.71722 0.10581 0.68063 0.0
C169 C 0.95636 0.76697 0.70276 0.0
O170 O 0.94619 0.78985 0.68948 0.0
O171 O 0.90954 0.75575 0.60919 0.0
Zn172 Zn 0.906 0.74984 0.67232 0.0
O173 O 0.88701 0.78046 0.70126 0.0
C174 C 0.88383 0.69694 0.65648 0.0
O175 O 0.90149 0.6966 0.62544 0.0
O176 O 0.94259 0.74563 0.69849 0.0
C177 C 0.86203 0.7839 0.69493 0.0
O178 O 0.84959 0.76834 0.66752 0.0
C179 C 0.90671 0.77796 0.58971 0.0
O180 O 0.90138 0.79984 0.61143 0.0
O181 O 0.88316 0.717 0.68141 0.0
C182 C 0.2233 0.95501 0.71064 0.0
O183 O 0.20061 0.94381 0.69868 0.0
O184 O 0.23644 0.90914 0.61554 0.0
Zn185 Zn 0.24265 0.90569 0.67851 0.0
O186 O 0.21284 0.88512 0.7069 0.0
C187 C 0.29604 0.88524 0.6611 0.0
O188 O 0.2948 0.9018 0.62863 0.0
O189 O 0.24517 0.94231 0.70496 0.0
C190 C 0.20939 0.86045 0.69818 0.0
O191 O 0.22464 0.84919 0.66912 0.0
C192 C 0.2139 0.90765 0.59667 0.0
O193 O 0.19192 0.90389 0.61903 0.0
O194 O 0.27664 0.88451 0.68735 0.0
C195 C 0.033 0.22116 0.70812 0.0
O196 O 0.04371 0.19788 0.69807 0.0
O197 O 0.07909 0.23205 0.61117 0.0
Zn198 Zn 0.08264 0.23878 0.67406 0.0
O199 O 0.1027 0.20909 0.70382 0.0
C200 C 0.10342 0.29189 0.65554 0.0
O201 O 0.08671 0.29062 0.62329 0.0
O202 O 0.04609 0.24253 0.7004 0.0
C203 C 0.12777 0.20639 0.6975 0.0
O204 O 0.1397 0.22213 0.66976 0.0
C205 C 0.08324 0.20998 0.59195 0.0
O206 O 0.09005 0.18857 0.61389 0.0
O207 O 0.1042 0.27257 0.68195 0.0
C208 C 0.71744 0.56172 0.70229 0.0
O209 O 0.6947 0.57357 0.69231 0.0
O210 O 0.7318 0.60663 0.6024 0.0
Zn211 Zn 0.73825 0.60975 0.6656 0.0
O212 O 0.70896 0.63151 0.69328 0.0
C213 C 0.79439 0.62316 0.65374 0.0
O214 O 0.79359 0.60323 0.62642 0.0
O215 O 0.73947 0.57338 0.69344 0.0
C216 C 0.71204 0.63764 0.73217 0.0
O217 O 0.73391 0.62969 0.75194 0.0
C218 C 0.73629 0.5849 0.58239 0.0
O219 O 0.74424 0.56361 0.60365 0.0
O220 O 0.77332 0.62908 0.67458 0.0
C221 C 0.43594 0.72099 0.71096 0.0
O222 O 0.42466 0.69853 0.69824 0.0
O223 O 0.38803 0.73328 0.61728 0.0
Zn224 Zn 0.38636 0.74251 0.67989 0.0
O225 O 0.36321 0.71643 0.7124 0.0
C226 C 0.37258 0.79824 0.66092 0.0
O227 O 0.39 0.79562 0.62983 0.0
O228 O 0.42332 0.74299 0.7061 0.0
C229 C 0.35908 0.69196 0.70293 0.0
O230 O 0.37042 0.6818 0.66883 0.0
C231 C 0.40953 0.73702 0.59622 0.0
O232 O 0.43102 0.74582 0.61608 0.0
O233 O 0.3687 0.77866 0.68614 0.0
C234 C 0.26797 0.43101 0.70791 0.0
O235 O 0.29025 0.41946 0.69498 0.0
O236 O 0.25512 0.38461 0.61208 0.0
Zn237 Zn 0.24593 0.38243 0.67468 0.0
O238 O 0.27189 0.35886 0.70667 0.0
C239 C 0.1903 0.36855 0.65508 0.0
O240 O 0.1931 0.3857 0.62366 0.0
O241 O 0.24571 0.41903 0.70207 0.0
C242 C 0.29634 0.35464 0.69713 0.0
O243 O 0.30657 0.36602 0.6631 0.0
C244 C 0.25146 0.40627 0.59139 0.0
O245 O 0.24285 0.42767 0.61166 0.0
O246 O 0.20971 0.36489 0.68069 0.0
C247 C 0.55801 0.26819 0.7059 0.0
O248 O 0.5694 0.29078 0.69396 0.0
O249 O 0.60439 0.25602 0.60903 0.0
Zn250 Zn 0.60674 0.24692 0.67165 0.0
O251 O 0.62998 0.27327 0.70336 0.0
C252 C 0.62094 0.19134 0.65267 0.0
O253 O 0.60353 0.19383 0.62152 0.0
O254 O 0.57015 0.24615 0.69909 0.0
C255 C 0.63391 0.29769 0.69334 0.0
O256 O 0.62239 0.30752 0.65914 0.0
C257 C 0.58269 0.25239 0.58845 0.0
O258 O 0.56131 0.24377 0.60881 0.0
O259 O 0.62468 0.21095 0.67783 0.0
C260 C 0.71654 0.45847 0.7867 0.0
O261 O 0.69363 0.44753 0.79821 0.0
O262 O 0.72868 0.41234 0.88281 0.0
Zn263 Zn 0.73549 0.40908 0.81989 0.0
O264 O 0.70629 0.3883 0.79029 0.0
C265 C 0.78882 0.38907 0.83892 0.0
O266 O 0.78704 0.40556 0.87139 0.0
O267 O 0.73824 0.44566 0.7933 0.0
C268 C 0.7042 0.36319 0.79679 0.0
O269 O 0.72024 0.35171 0.82456 0.0
C270 C 0.70682 0.40727 0.90213 0.0
O271 O 0.6856 0.39985 0.88025 0.0
O272 O 0.76976 0.38823 0.81207 0.0
C273 C 0.54072 0.71888 0.79053 0.0
O274 O 0.55204 0.69584 0.80032 0.0
O275 O 0.58417 0.73347 0.89102 0.0
Zn276 Zn 0.58894 0.73886 0.82809 0.0
O277 O 0.61164 0.70958 0.80248 0.0
C278 C 0.60822 0.79271 0.84558 0.0
O279 O 0.59169 0.79126 0.87806 0.0
O280 O 0.55294 0.74059 0.79936 0.0
C281 C 0.6349 0.7055 0.81791 0.0
O282 O 0.64255 0.71946 0.8512 0.0
C283 C 0.58454 0.71117 0.9107 0.0
O284 O 0.58777 0.68876 0.88926 0.0
O285 O 0.60934 0.77326 0.8195 0.0
C286 C 0.27257 0.53372 0.79346 0.0
O287 O 0.29595 0.54449 0.80279 0.0
O288 O 0.26133 0.5792 0.89258 0.0
Zn289 Zn 0.25491 0.58289 0.82958 0.0
O290 O 0.28472 0.6031 0.80036 0.0
C291 C 0.2022 0.60457 0.84845 0.0
O292 O 0.2039 0.58885 0.88189 0.0
O293 O 0.25123 0.5465 0.8026 0.0
C294 C 0.28728 0.62818 0.8066 0.0
O295 O 0.27129 0.6401 0.83396 0.0
C296 C 0.28294 0.58455 0.91239 0.0
O297 O 0.30417 0.59256 0.89103 0.0
O298 O 0.22112 0.60445 0.82131 0.0
C299 C 0.45504 0.27036 0.7911 0.0
O300 O 0.44404 0.29347 0.80137 0.0
O301 O 0.40933 0.25863 0.8889 0.0
Zn302 Zn 0.40588 0.25206 0.82594 0.0
O303 O 0.38548 0.28158 0.79637 0.0
C304 C 0.3851 0.19902 0.84476 0.0
O305 O 0.40162 0.20046 0.87725 0.0
O306 O 0.44238 0.24878 0.79917 0.0
C307 C 0.36031 0.2838 0.80217 0.0
O308 O 0.34841 0.26771 0.82942 0.0
C309 C 0.40403 0.2803 0.90855 0.0
O310 O 0.39623 0.30153 0.887 0.0
O311 O 0.38453 0.21815 0.81801 0.0
C312 C 0.26555 0.43119 0.29085 0.0
O313 O 0.28806 0.41929 0.30192 0.0
O314 O 0.25366 0.38451 0.38706 0.0
Zn315 Zn 0.24411 0.38248 0.32455 0.0
O316 O 0.27011 0.35922 0.29206 0.0
C317 C 0.18868 0.36796 0.34458 0.0
O318 O 0.19139 0.385 0.37614 0.0
O319 O 0.24337 0.41929 0.29777 0.0
C320 C 0.29448 0.35469 0.3018 0.0
O321 O 0.30464 0.36569 0.33617 0.0
C322 C 0.25022 0.40616 0.40781 0.0
O323 O 0.24146 0.42759 0.38771 0.0
O324 O 0.20805 0.36462 0.3188 0.0
C325 C 0.55708 0.26699 0.28829 0.0
O326 O 0.56852 0.28964 0.29973 0.0
O327 O 0.60412 0.25567 0.38405 0.0
Zn328 Zn 0.6062 0.24612 0.32157 0.0
O329 O 0.62913 0.27231 0.28881 0.0
C330 C 0.62056 0.19069 0.34148 0.0
O331 O 0.60312 0.19333 0.37253 0.0
O332 O 0.5694 0.24501 0.29487 0.0
C333 C 0.63311 0.29684 0.29804 0.0
O334 O 0.62186 0.30702 0.33219 0.0
C335 C 0.58251 0.25194 0.40487 0.0
O336 O 0.56116 0.24298 0.38482 0.0
O337 O 0.62426 0.21015 0.31598 0.0
C338 C 0.72454 0.56013 0.28344 0.0
O339 O 0.70251 0.57208 0.29654 0.0
O340 O 0.73784 0.60619 0.37809 0.0
Zn341 Zn 0.74723 0.60848 0.31567 0.0
O342 O 0.72114 0.63215 0.28419 0.0
C343 C 0.80307 0.62136 0.33498 0.0
O344 O 0.80018 0.60362 0.36556 0.0
O345 O 0.747 0.57186 0.28857 0.0
C346 C 0.69708 0.63676 0.29562 0.0
O347 O 0.68787 0.62579 0.33069 0.0
C348 C 0.74128 0.58457 0.39896 0.0
O349 O 0.75028 0.56316 0.37912 0.0
O350 O 0.78359 0.62578 0.30981 0.0
C351 C 0.4329 0.72263 0.29474 0.0
O352 O 0.42143 0.69986 0.30557 0.0
O353 O 0.38663 0.73411 0.39228 0.0
Zn354 Zn 0.38427 0.7436 0.32984 0.0
O355 O 0.36098 0.71762 0.29754 0.0
C356 C 0.37041 0.79926 0.34911 0.0
O357 O 0.3879 0.79678 0.38012 0.0
O358 O 0.42081 0.74458 0.30249 0.0
C359 C 0.35683 0.69311 0.30673 0.0
O360 O 0.36824 0.68272 0.34061 0.0
C361 C 0.40843 0.73753 0.41269 0.0
O362 O 0.42976 0.74618 0.39222 0.0
O363 O 0.36647 0.77962 0.3241 0.0
C364 C 0.26889 0.53571 0.21057 0.0
O365 O 0.29207 0.54588 0.1986 0.0
O366 O 0.25924 0.58172 0.11525 0.0
Zn367 Zn 0.25222 0.58577 0.17802 0.0
O368 O 0.2823 0.60513 0.20782 0.0
C369 C 0.20005 0.60863 0.15847 0.0
O370 O 0.20074 0.59165 0.12655 0.0
O371 O 0.24762 0.54937 0.20472 0.0
C372 C 0.2853 0.63017 0.20155 0.0
O373 O 0.2697 0.64231 0.17383 0.0
C374 C 0.28133 0.58614 0.09619 0.0
O375 O 0.30249 0.59358 0.11822 0.0
O376 O 0.21916 0.60861 0.18525 0.0
C377 C 0.45268 0.26862 0.20753 0.0
O378 O 0.44179 0.29164 0.19644 0.0
O379 O 0.40669 0.25715 0.11161 0.0
Zn380 Zn 0.40311 0.25039 0.17452 0.0
O381 O 0.38293 0.28003 0.20413 0.0
C382 C 0.38249 0.1972 0.15611 0.0
O383 O 0.39911 0.19858 0.12375 0.0
O384 O 0.43971 0.24704 0.20088 0.0
C385 C 0.3579 0.28292 0.19761 0.0
O386 O 0.34594 0.26733 0.16973 0.0
C387 C 0.40249 0.27923 0.09238 0.0
O388 O 0.39553 0.30058 0.1143 0.0
O389 O 0.38171 0.21647 0.18255 0.0
C390 C 0.71822 0.456 0.20277 0.0
O391 O 0.6947 0.44555 0.19335 0.0
O392 O 0.72877 0.40979 0.10546 0.0
Zn393 Zn 0.73537 0.40619 0.16837 0.0
O394 O 0.70568 0.38616 0.19819 0.0
C395 C 0.78876 0.38585 0.15064 0.0
O396 O 0.78771 0.40278 0.11864 0.0
O397 O 0.73937 0.44268 0.19459 0.0
C398 C 0.70314 0.36106 0.192 0.0
O399 O 0.71893 0.3492 0.16429 0.0
C400 C 0.70681 0.4055 0.08596 0.0
O401 O 0.68537 0.3984 0.10759 0.0
O402 O 0.76917 0.38471 0.17648 0.0
C403 C 0.53615 0.72207 0.21052 0.0
O404 O 0.5472 0.69918 0.19919 0.0
O405 O 0.58145 0.73475 0.11344 0.0
Zn406 Zn 0.58513 0.74104 0.1763 0.0
O407 O 0.6059 0.71138 0.20464 0.0
C408 C 0.60595 0.79411 0.15787 0.0
O409 O 0.58941 0.7928 0.1254 0.0
O410 O 0.54877 0.74382 0.20347 0.0
C411 C 0.6306 0.70824 0.1958 0.0
O412 O 0.64161 0.72357 0.16658 0.0
C413 C 0.58319 0.71229 0.09444 0.0
O414 O 0.58719 0.69029 0.11666 0.0
O415 O 0.60646 0.77492 0.18451 0.0
C416 C 0.36091 0.15553 0.12699 0.0
C417 C 0.36249 0.17523 0.15888 0.0
H418 H 0.3388 0.12242 0.10118 0.0
C419 C 0.34343 0.17496 0.19185 0.0
H420 H 0.37534 0.15511 0.10122 0.0
C421 C 0.32251 0.15626 0.1918 0.0
C422 C 0.32015 0.13738 0.1588 0.0
H423 H 0.34413 0.18975 0.21706 0.0
H424 H 0.30772 0.15717 0.21701 0.0
C425 C 0.33996 0.13677 0.12696 0.0
C426 C 0.82981 0.32621 0.18715 0.0
C427 C 0.84891 0.32392 0.15445 0.0
H428 H 0.79603 0.34764 0.2118 0.0
C429 C 0.84964 0.34369 0.12255 0.0
H430 H 0.82881 0.31144 0.21241 0.0
C431 C 0.83077 0.36453 0.12221 0.0
C432 C 0.81082 0.366 0.15377 0.0
H433 H 0.86418 0.34257 0.097 0.0
H434 H 0.83127 0.37893 0.0964 0.0
C435 C 0.81099 0.347 0.18682 0.0
C436 C 0.64576 0.8154 0.19282 0.0
C437 C 0.62644 0.81562 0.16024 0.0
H438 H 0.68221 0.83212 0.21707 0.0
C439 C 0.6283 0.83523 0.12819 0.0
H440 H 0.64485 0.80067 0.21813 0.0
C441 C 0.64981 0.85335 0.1276 0.0
C442 C 0.66987 0.85216 0.15898 0.0
H443 H 0.61369 0.83602 0.10272 0.0
H444 H 0.65118 0.86763 0.10171 0.0
C445 C 0.66724 0.83343 0.19217 0.0
C446 C 0.1809 0.65044 0.19072 0.0
C447 C 0.17923 0.62987 0.16023 0.0
H448 H 0.16546 0.68803 0.21281 0.0
C449 C 0.15867 0.63095 0.12965 0.0
H450 H 0.19646 0.65023 0.21479 0.0
C451 C 0.14081 0.65265 0.12858 0.0
C452 C 0.14325 0.67379 0.15794 0.0
H453 H 0.15677 0.61539 0.10579 0.0
H454 H 0.12563 0.65323 0.10392 0.0
C455 C 0.16315 0.67218 0.18952 0.0
C456 C 0.33503 0.86429 0.3772 0.0
C457 C 0.31547 0.86583 0.34504 0.0
H458 H 0.36791 0.84209 0.40366 0.0
C459 C 0.31592 0.84678 0.31211 0.0
H460 H 0.3353 0.87873 0.40293 0.0
C461 C 0.33453 0.82581 0.31258 0.0
C462 C 0.35316 0.82341 0.34594 0.0
H463 H 0.30127 0.84747 0.28668 0.0
H464 H 0.33371 0.81098 0.28742 0.0
C465 C 0.35372 0.84328 0.37763 0.0
C466 C 0.14479 0.35105 0.37341 0.0
C467 C 0.16466 0.35048 0.34168 0.0
H468 H 0.10933 0.33269 0.39884 0.0
C469 C 0.16237 0.33168 0.30857 0.0
H470 H 0.1459 0.36536 0.39926 0.0
C471 C 0.14144 0.31299 0.30832 0.0
C472 C 0.12231 0.31267 0.34117 0.0
H473 H 0.17722 0.3308 0.28344 0.0
H474 H 0.14079 0.29825 0.28303 0.0
C475 C 0.12382 0.33232 0.37316 0.0
C476 C 0.65604 0.12591 0.3709 0.0
C477 C 0.67576 0.12424 0.33901 0.0
H478 H 0.62297 0.14814 0.39662 0.0
C479 C 0.6755 0.14321 0.30591 0.0
H480 H 0.6556 0.11155 0.39676 0.0
C481 C 0.65685 0.16417 0.30587 0.0
C482 C 0.63799 0.16664 0.33889 0.0
H483 H 0.6903 0.14244 0.28069 0.0
H484 H 0.65779 0.17891 0.28057 0.0
C485 C 0.63732 0.1469 0.37082 0.0
C486 C 0.8301 0.65774 0.3005 0.0
C487 C 0.82741 0.63842 0.33282 0.0
H488 H 0.85222 0.69132 0.27659 0.0
C489 C 0.84719 0.63699 0.36463 0.0
H490 H 0.81535 0.65927 0.27531 0.0
C491 C 0.86841 0.65544 0.36538 0.0
C492 C 0.87027 0.67565 0.33429 0.0
H493 H 0.84579 0.62226 0.38988 0.0
H494 H 0.88277 0.65443 0.39119 0.0
C495 C 0.85129 0.67613 0.30121 0.0
C496 C 0.65071 0.85318 0.87443 0.0
C497 C 0.67037 0.85259 0.84236 0.0
H498 H 0.61546 0.83478 0.90051 0.0
C499 C 0.66777 0.83389 0.80918 0.0
H500 H 0.65206 0.86743 0.90034 0.0
C501 C 0.64682 0.81524 0.80925 0.0
C502 C 0.62799 0.81484 0.84252 0.0
H503 H 0.68242 0.83304 0.78376 0.0
H504 H 0.64598 0.80054 0.78392 0.0
C505 C 0.62973 0.83446 0.87452 0.0
C506 C 0.14228 0.64814 0.87632 0.0
C507 C 0.14226 0.66669 0.84262 0.0
H508 H 0.16116 0.61382 0.90452 0.0
C509 C 0.16061 0.66318 0.80913 0.0
H510 H 0.12835 0.65022 0.90255 0.0
C511 C 0.17939 0.64233 0.81025 0.0
C512 C 0.18025 0.62452 0.84489 0.0
H513 H 0.16104 0.677 0.78254 0.0
H514 H 0.19375 0.64071 0.78451 0.0
C515 C 0.1611 0.62726 0.87744 0.0
C516 C 0.3631 0.15769 0.87438 0.0
C517 C 0.36483 0.17729 0.84232 0.0
H518 H 0.34062 0.12494 0.90062 0.0
C519 C 0.34565 0.17723 0.80954 0.0
H520 H 0.37762 0.15712 0.90001 0.0
C521 C 0.32446 0.15885 0.80994 0.0
C522 C 0.32197 0.14008 0.84309 0.0
H523 H 0.34645 0.19196 0.78421 0.0
H524 H 0.30959 0.15992 0.78486 0.0
C525 C 0.34188 0.13923 0.87474 0.0
C526 C 0.84886 0.34644 0.86973 0.0
C527 C 0.84845 0.32658 0.838 0.0
H528 H 0.83043 0.38194 0.89481 0.0
C529 C 0.82995 0.329 0.80446 0.0
H530 H 0.86294 0.34524 0.89591 0.0
C531 C 0.81137 0.35002 0.80379 0.0
C532 C 0.81083 0.3691 0.83668 0.0
H533 H 0.82922 0.31418 0.7793 0.0
H534 H 0.79683 0.35075 0.77819 0.0
C535 C 0.83022 0.36749 0.86909 0.0
C536 C 0.65702 0.16492 0.689 0.0
C537 C 0.63829 0.16726 0.65577 0.0
H538 H 0.69034 0.14327 0.71478 0.0
C539 C 0.63769 0.14736 0.62411 0.0
H540 H 0.65789 0.17977 0.7141 0.0
C541 C 0.65638 0.12635 0.6245 0.0
C542 C 0.67598 0.12482 0.65658 0.0
H543 H 0.62343 0.14851 0.59817 0.0
H544 H 0.65602 0.11187 0.59883 0.0
C545 C 0.67563 0.14393 0.68942 0.0
C546 C 0.81975 0.66097 0.68754 0.0
C547 C 0.8187 0.64015 0.65745 0.0
H548 H 0.84124 0.695 0.7112 0.0
C549 C 0.84043 0.63677 0.62939 0.0
H550 H 0.80343 0.66402 0.70982 0.0
C551 C 0.86215 0.65462 0.63011 0.0
C552 C 0.86263 0.67612 0.65902 0.0
H553 H 0.84029 0.62086 0.60593 0.0
H554 H 0.87816 0.65199 0.60718 0.0
C555 C 0.84149 0.67872 0.68838 0.0
C556 C 0.31784 0.8459 0.69675 0.0
C557 C 0.31789 0.86511 0.66401 0.0
H558 H 0.33515 0.80987 0.72163 0.0
C559 C 0.33776 0.86353 0.63233 0.0
H560 H 0.30292 0.8466 0.7218 0.0
C561 C 0.35631 0.84239 0.63224 0.0
C562 C 0.35533 0.82242 0.6638 0.0
H563 H 0.33843 0.87807 0.60674 0.0
H564 H 0.37078 0.84123 0.6066 0.0
C565 C 0.33633 0.82479 0.69663 0.0
C566 C 0.12524 0.3334 0.62623 0.0
C567 C 0.12354 0.31374 0.65822 0.0
H568 H 0.14759 0.36631 0.60024 0.0
C569 C 0.1426 0.31392 0.69118 0.0
H570 H 0.11081 0.33388 0.60047 0.0
C571 C 0.16365 0.33246 0.69103 0.0
C572 C 0.16614 0.35127 0.65792 0.0
H573 H 0.1418 0.29917 0.71647 0.0
H574 H 0.17844 0.33147 0.71623 0.0
C575 C 0.14633 0.352 0.6261 0.0
C576 C 0.23768 0.05873 0.02209 0.0
C577 C 0.23243 0.08227 0.04532 0.0
H578 H 0.24275 0.04081 0.96092 0.0
C579 C 0.22638 0.10604 0.02311 0.0
H580 H 0.24227 0.04003 0.03814 0.0
C581 C 0.22667 0.1065 0.97864 0.0
C582 C 0.23301 0.08318 0.95548 0.0
H583 H 0.22217 0.12451 0.04003 0.0
H584 H 0.22266 0.1253 0.96248 0.0
C585 C 0.23796 0.05919 0.97772 0.0
C586 C 0.88107 0.2312 0.97473 0.0
C587 C 0.9045 0.23785 0.95203 0.0
H588 H 0.86268 0.22622 0.03577 0.0
C589 C 0.92831 0.2429 0.9747 0.0
H590 H 0.86241 0.2271 0.95824 0.0
C591 C 0.92846 0.24238 0.01907 0.0
C592 C 0.90482 0.2368 0.04185 0.0
H593 H 0.94676 0.24793 0.95824 0.0
H594 H 0.94702 0.24705 0.03548 0.0
C595 C 0.88123 0.23068 0.01919 0.0
C596 C 0.75469 0.93118 0.97795 0.0
C597 C 0.75944 0.90744 0.95495 0.0
H598 H 0.75024 0.94948 0.03896 0.0
C599 C 0.76523 0.88369 0.97739 0.0
H600 H 0.75031 0.94987 0.96171 0.0
C601 C 0.76517 0.88346 0.02186 0.0
C602 C 0.75934 0.90699 0.0448 0.0
H603 H 0.76906 0.86507 0.96065 0.0
H604 H 0.76897 0.86468 0.03819 0.0
C605 C 0.75465 0.93095 0.02232 0.0
C606 C 0.0608 0.75157 0.97253 0.0
C607 C 0.0844 0.75637 0.94918 0.0
H608 H 0.04266 0.74813 0.03391 0.0
C609 C 0.10803 0.76324 0.97113 0.0
H610 H 0.04221 0.74635 0.95663 0.0
C611 C 0.1083 0.76425 0.01553 0.0
C612 C 0.08493 0.75842 0.03893 0.0
H613 H 0.12655 0.76716 0.95411 0.0
H614 H 0.12701 0.76893 0.03149 0.0
C615 C 0.06106 0.75259 0.0169 0.0
C616 C 0.18797 0.90597 0.4832 0.0
C617 C 0.21185 0.90937 0.4599 0.0
H618 H 0.16982 0.90279 0.54477 0.0
C619 C 0.23611 0.91316 0.48201 0.0
H620 H 0.16895 0.90302 0.46713 0.0
C621 C 0.2366 0.91301 0.52632 0.0
C622 C 0.21286 0.90907 0.5497 0.0
H623 H 0.25488 0.91591 0.46512 0.0
H624 H 0.25574 0.91566 0.54219 0.0
C625 C 0.18847 0.90582 0.52769 0.0
C626 C 0.08823 0.18552 0.5225 0.0
C627 C 0.0817 0.20905 0.54497 0.0
H628 H 0.0936 0.16704 0.46158 0.0
C629 C 0.07443 0.23218 0.52201 0.0
H630 H 0.09389 0.16736 0.53923 0.0
C631 C 0.07425 0.23199 0.47769 0.0
C632 C 0.08134 0.20868 0.45513 0.0
H633 H 0.06919 0.25064 0.53825 0.0
H634 H 0.06889 0.25032 0.46115 0.0
C635 C 0.08806 0.18534 0.478 0.0
C636 C 0.75755 0.07729 0.5205 0.0
C637 C 0.78065 0.08498 0.54316 0.0
H638 H 0.7392 0.07149 0.45988 0.0
C639 C 0.80393 0.09205 0.52038 0.0
H640 H 0.73928 0.07165 0.53697 0.0
C641 C 0.80388 0.09195 0.47588 0.0
C642 C 0.78056 0.0848 0.45332 0.0
H643 H 0.82207 0.09804 0.53687 0.0
H644 H 0.82199 0.09787 0.45922 0.0
C645 C 0.7575 0.0772 0.47618 0.0
C646 C 0.91423 0.75509 0.51995 0.0
C647 C 0.90845 0.77868 0.54273 0.0
H648 H 0.91911 0.73663 0.4592 0.0
C649 C 0.90377 0.8026 0.5201 0.0
H650 H 0.918 0.7363 0.53631 0.0
C651 C 0.9044 0.80278 0.47561 0.0
C652 C 0.90976 0.77905 0.4529 0.0
H653 H 0.89929 0.82113 0.53668 0.0
H654 H 0.90039 0.82145 0.45907 0.0
C655 C 0.91488 0.75527 0.47563 0.0
C656 C 0.72901 0.60763 0.51212 0.0
C657 C 0.73514 0.58428 0.53538 0.0
H658 H 0.726 0.62604 0.4508 0.0
C659 C 0.74159 0.56064 0.51321 0.0
H660 H 0.72388 0.62617 0.52819 0.0
C661 C 0.74281 0.56057 0.46887 0.0
C662 C 0.73761 0.58414 0.44565 0.0
H663 H 0.74631 0.54227 0.53011 0.0
H664 H 0.74843 0.54214 0.45287 0.0
C665 C 0.73023 0.60756 0.46772 0.0
C666 C 0.38571 0.72839 0.48251 0.0
C667 C 0.40915 0.7346 0.45952 0.0
H668 H 0.36743 0.72412 0.54378 0.0
C669 C 0.43307 0.7396 0.48192 0.0
H670 H 0.36697 0.72435 0.46623 0.0
C671 C 0.43333 0.73947 0.52629 0.0
C672 C 0.40969 0.73434 0.54935 0.0
H673 H 0.45152 0.7443 0.46524 0.0
H674 H 0.45198 0.74408 0.54248 0.0
C675 C 0.38598 0.72825 0.52698 0.0
C676 C 0.24839 0.43041 0.47739 0.0
C677 C 0.25331 0.40662 0.45463 0.0
H678 H 0.24416 0.44899 0.53823 0.0
C679 C 0.25962 0.38308 0.47727 0.0
H680 H 0.24362 0.44894 0.46099 0.0
C681 C 0.25994 0.38311 0.52174 0.0
C682 C 0.25395 0.40668 0.54448 0.0
H683 H 0.2636 0.36442 0.46071 0.0
H684 H 0.26415 0.36448 0.53826 0.0
C685 C 0.24871 0.43044 0.52177 0.0
C686 C 0.55842 0.24974 0.51892 0.0
C687 C 0.58218 0.25505 0.54156 0.0
H688 H 0.53985 0.2448 0.45818 0.0
C689 C 0.60568 0.26132 0.51877 0.0
H690 H 0.53992 0.24498 0.53543 0.0
C691 C 0.60564 0.26122 0.4743 0.0
C692 C 0.5821 0.25484 0.45171 0.0
H693 H 0.62432 0.26559 0.53524 0.0
H694 H 0.62424 0.26541 0.45769 0.0
C695 C 0.55838 0.24964 0.47454 0.0
C696 C 0.6827 0.40104 0.97166 0.0
C697 C 0.70604 0.40822 0.94916 0.0
H698 H 0.66454 0.39459 0.03259 0.0
C699 C 0.72917 0.41548 0.97209 0.0
H700 H 0.66453 0.39537 0.95495 0.0
C701 C 0.72918 0.41501 0.01641 0.0
C702 C 0.70605 0.40729 0.03899 0.0
H703 H 0.7475 0.42119 0.95584 0.0
H704 H 0.74751 0.42039 0.03292 0.0
C705 C 0.6827 0.40059 0.01616 0.0
C706 C 0.57862 0.73533 0.02424 0.0
C707 C 0.58212 0.71145 0.04745 0.0
H708 H 0.57654 0.75394 0.96321 0.0
C709 C 0.5854 0.68715 0.02525 0.0
H710 H 0.57597 0.75441 0.04026 0.0
C711 C 0.5857 0.68688 0.98076 0.0
C712 C 0.58277 0.7109 0.95766 0.0
H713 H 0.58811 0.6684 0.04219 0.0
H714 H 0.58865 0.66792 0.96453 0.0
C715 C 0.57895 0.73506 0.97994 0.0
C716 C 0.25983 0.57596 0.02619 0.0
C717 C 0.28255 0.58425 0.04926 0.0
H718 H 0.24219 0.56941 0.96521 0.0
C719 C 0.30594 0.59151 0.02693 0.0
H720 H 0.2415 0.57013 0.04232 0.0
C721 C 0.30634 0.59111 0.98244 0.0
C722 C 0.28337 0.58341 0.95943 0.0
H723 H 0.3238 0.59795 0.04375 0.0
H724 H 0.3245 0.59726 0.96613 0.0
C725 C 0.26023 0.57554 0.98187 0.0
C726 C 0.41245 0.25758 0.97819 0.0
C727 C 0.40507 0.28081 0.95558 0.0
H728 H 0.41749 0.2389 0.03877 0.0
C729 C 0.39782 0.30398 0.97843 0.0
H730 H 0.4182 0.23937 0.96168 0.0
C731 C 0.39743 0.30371 0.02292 0.0
C732 C 0.40424 0.28025 0.04542 0.0
H733 H 0.39206 0.32221 0.96198 0.0
H734 H 0.39137 0.32174 0.03961 0.0
C735 C 0.41202 0.2573 0.02251 0.0
C736 C 0.19516 0.01583 0.23689 0.0
C737 C 0.21958 0.02905 0.22863 0.0
H738 H 0.17574 0.98123 0.26308 0.0
C739 C 0.24377 0.01663 0.24075 0.0
H740 H 0.17616 0.02484 0.22798 0.0
C741 C 0.24353 0.99157 0.26085 0.0
C742 C 0.21909 0.97843 0.26935 0.0
H743 H 0.26293 0.02627 0.23481 0.0
H744 H 0.26252 0.98257 0.26988 0.0
C745 C 0.19492 0.99082 0.25708 0.0
C746 C 0.9689 0.24627 0.2388 0.0
C747 C 0.95579 0.22235 0.2272 0.0
H748 H 0.00341 0.26424 0.2679 0.0
C749 C 0.96806 0.19763 0.23672 0.0
H750 H 0.95997 0.26564 0.23192 0.0
C751 C 0.99286 0.19683 0.25744 0.0
C752 C 0.00601 0.22072 0.26899 0.0
H753 H 0.95849 0.17883 0.2283 0.0
H754 H 0.00174 0.17742 0.26426 0.0
C755 C 0.99379 0.24546 0.25943 0.0
C756 C 0.74621 -0.0044 0.25998 0.0
C757 C 0.77048 0.00809 0.27152 0.0
H758 H 0.72732 0.96139 0.23157 0.0
C759 C 0.79486 0.99495 0.26276 0.0
H760 H 0.72708 0.00519 0.26629 0.0
C761 C 0.795 0.96992 0.24276 0.0
C762 C 0.77076 0.95741 0.23121 0.0
H763 H 0.81392 0.00403 0.27118 0.0
H764 H 0.81416 0.96037 0.23646 0.0
C765 C 0.74635 0.97049 0.24008 0.0
C766 C 0.02496 0.79638 0.24321 0.0
C767 C 0.03716 0.77243 0.22957 0.0
H768 H 0.99126 0.81469 0.27381 0.0
C769 C 0.02401 0.74788 0.23716 0.0
H770 H 0.03458 0.81563 0.23796 0.0
C771 C -0.0009 0.74734 0.25774 0.0
C772 C 0.98688 0.77133 0.27124 0.0
H773 H 0.03288 0.72906 0.22707 0.0
H774 H 0.98942 0.72812 0.26294 0.0
C775 C 0.00012 0.79584 0.26385 0.0
C776 C 0.74634 0.97203 0.75903 0.0
C777 C 0.7707 0.9591 0.76878 0.0
H778 H 0.72722 0.00647 0.73163 0.0
C779 C 0.79501 0.97165 0.75772 0.0
H780 H 0.72725 0.96289 0.76713 0.0
C781 C 0.79499 -0.00344 0.73728 0.0
C782 C 0.77066 0.00952 0.72755 0.0
H783 H 0.81414 0.96222 0.76471 0.0
H784 H 0.8141 0.00567 0.72922 0.0
C785 C 0.74632 -0.00299 0.73867 0.0
C786 C 0.9949 0.74187 0.73561 0.0
C787 C 0.98316 0.76633 0.72312 0.0
H788 H 0.02868 0.72237 0.76449 0.0
C789 C -0.00283 0.79038 0.7306 0.0
H790 H 0.98462 0.72299 0.73028 0.0
C791 C 0.0223 0.79003 0.7503 0.0
C792 C 0.03407 0.76562 0.76282 0.0
H793 H 0.98869 0.80957 0.72142 0.0
H794 H 0.0325 0.80896 0.75562 0.0
C795 C 0.02014 0.74151 0.7552 0.0
C796 C 0.19875 0.99485 0.73957 0.0
C797 C 0.2232 0.9818 0.73097 0.0
H798 H 0.17926 0.02949 0.76527 0.0
C799 C 0.24741 0.99452 0.74221 0.0
H800 H 0.17974 0.98559 0.73136 0.0
C801 C 0.24713 0.01979 0.76163 0.0
C802 C 0.22264 0.03278 0.77032 0.0
H803 H 0.26659 0.985 0.73601 0.0
H804 H 0.26611 0.02908 0.76992 0.0
C805 C 0.19847 0.02002 0.75909 0.0
C806 C 0.96889 0.24813 0.75737 0.0
C807 C 0.95552 0.22429 0.7687 0.0
H808 H 0.00388 0.26588 0.72938 0.0
C809 C 0.96781 0.1995 0.75982 0.0
H810 H 0.95995 0.26756 0.76379 0.0
C811 C 0.99289 0.19853 0.73999 0.0
C812 C 0.00631 0.22234 0.72874 0.0
H813 H 0.95804 0.18076 0.76807 0.0
H814 H 0.00178 0.17908 0.73364 0.0
C815 C 0.99406 0.24716 0.73766 0.0
C816 C 0.74157 0.52203 0.73326 0.0
C817 C 0.71734 0.53532 0.72391 0.0
H818 H 0.76036 0.48734 0.76044 0.0
C819 C 0.69292 0.52321 0.73563 0.0
H820 H 0.76073 0.53083 0.72466 0.0
C821 C 0.69272 0.49835 0.75623 0.0
C822 C 0.71692 0.485 0.76547 0.0
H823 H 0.6739 0.53293 0.72897 0.0
H824 H 0.67353 0.48957 0.76474 0.0
C825 C 0.74136 0.49711 0.75379 0.0
C826 C 0.50108 0.7441 0.76166 0.0
C827 C 0.51404 0.71952 0.76979 0.0
H828 H 0.46625 0.76388 0.73676 0.0
C829 C 0.50119 0.6955 0.75809 0.0
H830 H 0.51043 0.76298 0.77028 0.0
C831 C 0.47591 0.69602 0.73878 0.0
C832 C 0.46287 0.72057 0.73088 0.0
H833 H 0.51063 0.67622 0.76384 0.0
H834 H 0.46655 0.67712 0.73026 0.0
C835 C 0.47574 0.74462 0.74247 0.0
C836 C 0.2452 0.47045 0.74211 0.0
C837 C 0.26896 0.45735 0.7296 0.0
H838 H 0.22767 0.50485 0.77212 0.0
C839 C 0.29382 0.46954 0.73838 0.0
H840 H 0.22572 0.46158 0.73581 0.0
C841 C 0.29494 0.49425 0.75929 0.0
C842 C 0.27122 0.50739 0.77178 0.0
H843 H 0.3125 0.45998 0.72924 0.0
H844 H 0.31445 0.50307 0.76553 0.0
C845 C 0.24633 0.49524 0.76294 0.0
C846 C 0.49383 0.24502 0.75964 0.0
C847 C 0.48146 0.26963 0.76955 0.0
H848 H 0.52773 0.22522 0.73174 0.0
C849 C 0.49444 0.29368 0.75825 0.0
H850 H 0.48434 0.22614 0.7679 0.0
C851 C 0.51921 0.29315 0.73742 0.0
C852 C 0.53162 0.26857 0.72755 0.0
H853 H 0.48544 0.31298 0.76534 0.0
H854 H 0.52865 0.31207 0.7292 0.0
C855 C 0.51869 0.2445 0.7389 0.0
C856 C 0.29168 0.49505 0.24026 0.0
C857 C 0.2678 0.50895 0.23102 0.0
H858 H 0.30969 0.45975 0.26645 0.0
C859 C 0.24305 0.49708 0.2417 0.0
H860 H 0.31109 0.50363 0.23252 0.0
C861 C 0.24225 0.4718 0.26112 0.0
C862 C 0.26618 0.45796 0.27041 0.0
H863 H 0.22429 0.50728 0.23499 0.0
H864 H 0.22288 0.46316 0.26893 0.0
C865 C 0.29088 0.46988 0.25981 0.0
C866 C 0.51782 0.29173 0.25777 0.0
C867 C 0.53034 0.26722 0.26773 0.0
H868 H 0.48361 0.31139 0.23086 0.0
C869 C 0.51714 0.24307 0.25764 0.0
H870 H 0.52745 0.3107 0.26504 0.0
C871 C 0.49191 0.24347 0.23807 0.0
C872 C 0.47943 0.26802 0.22805 0.0
H873 H 0.52626 0.22385 0.26493 0.0
H874 H 0.48222 0.22454 0.23075 0.0
C875 C 0.49268 0.29213 0.23808 0.0
C876 C 0.698 0.52156 0.2546 0.0
C877 C 0.72307 0.53348 0.26282 0.0
H878 H 0.67681 0.48786 0.22909 0.0
C879 C 0.7466 0.51975 0.251 0.0
H880 H 0.67949 0.53163 0.26325 0.0
C881 C 0.74506 0.49458 0.23146 0.0
C882 C 0.71996 0.48269 0.2232 0.0
H883 H 0.76623 0.52839 0.25692 0.0
H884 H 0.76355 0.48448 0.22279 0.0
C885 C 0.69646 0.49647 0.23494 0.0
C886 C 0.47235 0.7469 0.26335 0.0
C887 C 0.45936 0.72262 0.27335 0.0
H888 H 0.50682 0.7658 0.23566 0.0
C889 C 0.47179 0.69824 0.26241 0.0
H890 H 0.4633 0.76603 0.27136 0.0
C891 C 0.49665 0.69811 0.24185 0.0
C892 C 0.50969 0.72236 0.23189 0.0
H893 H 0.4623 0.67918 0.26959 0.0
H894 H 0.50567 0.67895 0.23389 0.0
C895 C 0.49729 0.74677 0.24288 0.0
C896 C 0.14602 0.15375 0.21865 0.0
C897 C 0.1736 0.15028 0.22656 0.0
H898 H 0.10953 0.1735 0.23676 0.0
C899 C 0.18542 0.16417 0.26068 0.0
H900 H 0.13627 0.14326 0.19274 0.0
C901 C 0.17014 0.18152 0.28583 0.0
C902 C 0.14265 0.1853 0.27759 0.0
H903 H 0.20661 0.16193 0.26775 0.0
H904 H 0.17998 0.19216 0.31149 0.0
C905 C 0.13068 0.17103 0.24398 0.0
C906 C 0.8217 0.18906 0.25625 0.0
C907 C 0.83573 0.17733 0.22219 0.0
H908 H 0.79407 0.18331 0.30751 0.0
C909 C 0.83284 0.14964 0.21477 0.0
H910 H 0.8235 0.21033 0.26293 0.0
C911 C 0.81606 0.13408 0.2406 0.0
C912 C 0.80169 0.14594 0.2742 0.0
H913 H 0.84347 0.13997 0.18893 0.0
H914 H 0.81405 0.11284 0.2338 0.0
C915 C 0.80482 0.17356 0.28187 0.0
C916 C 0.86082 0.81732 0.24191 0.0
C917 C 0.84902 0.80264 0.27527 0.0
H918 H 0.85484 0.84523 0.19093 0.0
C919 C 0.82143 0.80581 0.28329 0.0
H920 H 0.88203 0.81531 0.23485 0.0
C921 C 0.80589 0.82297 0.2582 0.0
C922 C 0.81755 0.83728 0.22434 0.0
H923 H 0.81172 0.79483 0.30875 0.0
H924 H 0.78463 0.82476 0.26511 0.0
C925 C 0.84522 0.8344 0.21662 0.0
C926 C 0.18295 0.81359 0.31829 0.0
C927 C 0.18838 0.83855 0.29925 0.0
H928 H 0.16324 0.77554 0.31311 0.0
C929 C 0.17695 0.84437 0.25944 0.0
H930 H 0.19138 0.80851 0.34899 0.0
C931 C 0.16097 0.82535 0.23866 0.0
C932 C 0.1559 0.80022 0.25745 0.0
H933 H 0.18078 0.86341 0.24389 0.0
H934 H 0.15275 0.83028 0.20777 0.0
C935 C 0.1668 0.79469 0.29771 0.0
C936 C 0.8591 0.81756 0.75409 0.0
C937 C 0.84673 0.8036 0.72051 0.0
H938 H 0.85416 0.84506 0.80585 0.0
C939 C 0.81923 0.80772 0.7128 0.0
H940 H 0.88027 0.81481 0.76089 0.0
C941 C 0.80432 0.82506 0.73849 0.0
C942 C 0.81652 0.8386 0.77263 0.0
H943 H 0.80909 0.79733 0.68718 0.0
H944 H 0.7831 0.82755 0.73184 0.0
C945 C 0.84413 0.83483 0.77995 0.0
C946 C 0.18562 0.81702 0.71229 0.0
C947 C 0.18976 0.84419 0.72244 0.0
H948 H 0.16565 0.7803 0.728 0.0
C949 C 0.17574 0.85534 0.757 0.0
H950 H 0.19607 0.80781 0.68585 0.0
C951 C 0.15836 0.83951 0.78137 0.0
C952 C 0.15454 0.81223 0.77157 0.0
H953 H 0.17849 0.87622 0.76568 0.0
H954 H 0.14808 0.84862 0.80805 0.0
C955 C 0.16817 0.80124 0.73651 0.0
C956 C 0.17124 0.18372 0.7152 0.0
C957 C 0.14367 0.18716 0.72313 0.0
H958 H 0.20791 0.1647 0.73386 0.0
C959 C 0.13177 0.1729 0.75684 0.0
H960 H 0.18104 0.19437 0.68948 0.0
C961 C 0.14725 0.15594 0.78254 0.0
C962 C 0.17491 0.1528 0.77492 0.0
H963 H 0.11057 0.17513 0.76382 0.0
H964 H 0.13755 0.14543 0.80849 0.0
C965 C 0.18666 0.1667 0.74072 0.0
C966 C 0.82138 0.19074 0.73828 0.0
C967 C 0.83535 0.17935 0.77271 0.0
H968 H 0.79394 0.18446 0.68693 0.0
C969 C 0.83256 0.15171 0.78073 0.0
H970 H 0.82311 0.21196 0.73114 0.0
C971 C 0.81592 0.13587 0.75511 0.0
C972 C 0.80161 0.14739 0.72113 0.0
H973 H 0.84314 0.14229 0.80687 0.0
H974 H 0.81398 0.11468 0.76238 0.0
C975 C 0.80465 0.17496 0.71287 0.0
C976 C 0.69721 0.66421 0.79541 0.0
C977 C 0.69172 0.65401 0.75471 0.0
H978 H 0.68359 0.68842 0.84726 0.0
C979 C 0.66685 0.65994 0.73566 0.0
H980 H 0.71615 0.65998 0.81102 0.0
C981 C 0.64806 0.67609 0.75665 0.0
C982 C 0.65386 0.68683 0.79692 0.0
H983 H 0.66195 0.65227 0.70442 0.0
H984 H 0.62922 0.68059 0.7409 0.0
C985 C 0.67854 0.68053 0.81621 0.0
C986 C 0.31023 0.6716 0.78949 0.0
C987 C 0.30669 0.64408 0.78131 0.0
H988 H 0.32951 0.70821 0.77132 0.0
C989 C 0.32105 0.63222 0.7477 0.0
H990 H 0.29951 0.68135 0.81515 0.0
C991 C 0.33818 0.6477 0.7223 0.0
C992 C 0.34143 0.6753 0.73016 0.0
H993 H 0.31875 0.61106 0.74053 0.0
H994 H 0.34875 0.63804 0.6964 0.0
C995 C 0.32744 0.68701 0.76429 0.0
C996 C 0.3167 0.30612 0.78417 0.0
C997 C 0.34432 0.30289 0.77643 0.0
H998 H 0.27997 0.32494 0.76534 0.0
C999 C 0.35621 0.31724 0.74281 0.0
H1000 H 0.30692 0.29538 0.80981 0.0
C1001 C 0.34069 0.33411 0.71704 0.0
C1002 C 0.313 0.33709 0.72453 0.0
H1003 H 0.37745 0.31516 0.73596 0.0
H1004 H 0.35039 0.34472 0.6912 0.0
C1005 C 0.30124 0.32307 0.7586 0.0
C1006 C 0.65411 0.34236 0.71211 0.0
C1007 C 0.65132 0.31474 0.72033 0.0
H1008 H 0.67279 0.37942 0.73007 0.0
C1009 C 0.6654 0.30343 0.75471 0.0
H1010 H 0.64345 0.35172 0.686 0.0
C1011 C 0.68223 0.31926 0.77987 0.0
C1012 C 0.68527 0.34681 0.77141 0.0
H1013 H 0.66368 0.28223 0.762 0.0
H1014 H 0.69302 0.30982 0.80578 0.0
C1015 C 0.67085 0.35825 0.73747 0.0
C1016 C 0.35397 0.31625 0.2571 0.0
C1017 C 0.34209 0.30228 0.22309 0.0
H1018 H 0.34826 0.34364 0.3088 0.0
C1019 C 0.31464 0.3062 0.21468 0.0
H1020 H 0.37508 0.31365 0.26447 0.0
C1021 C 0.29932 0.32341 0.23999 0.0
C1022 C 0.31105 0.33701 0.27448 0.0
H1023 H 0.30487 0.29579 0.18871 0.0
H1024 H 0.27816 0.32578 0.23276 0.0
C1025 C 0.33859 0.33338 0.28261 0.0
C1026 C 0.66403 0.30196 0.23581 0.0
C1027 C 0.65033 0.31361 0.27027 0.0
H1028 H 0.6913 0.30777 0.18409 0.0
C1029 C 0.65338 0.34126 0.27786 0.0
H1030 H 0.6621 0.28072 0.22896 0.0
C1031 C 0.67005 0.35685 0.25186 0.0
C1032 C 0.68413 0.34506 0.2179 0.0
H1033 H 0.64301 0.35088 0.30401 0.0
H1034 H 0.67223 0.37805 0.25884 0.0
C1035 C 0.68078 0.31749 0.21 0.0
C1036 C 0.69041 0.66783 0.23391 0.0
C1037 C 0.67976 0.65439 0.26944 0.0
H1038 H 0.68327 0.69526 0.1828 0.0
C1039 C 0.65252 0.6581 0.27968 0.0
H1040 H 0.71131 0.66538 0.22506 0.0
C1041 C 0.63637 0.67514 0.25523 0.0
C1042 C 0.64719 0.68895 0.22017 0.0
H1043 H 0.64366 0.64795 0.30672 0.0
H1044 H 0.61553 0.6778 0.26424 0.0
C1045 C 0.67433 0.68496 0.20963 0.0
C1046 C 0.30845 0.67332 0.21929 0.0
C1047 C 0.30467 0.64581 0.22724 0.0
H1048 H 0.32782 0.70975 0.238 0.0
C1049 C 0.31869 0.63375 0.26106 0.0
H1050 H 0.29798 0.68323 0.19348 0.0
C1051 C 0.33575 0.64903 0.28685 0.0
C1052 C 0.33922 0.67664 0.27919 0.0
H1053 H 0.31619 0.61259 0.26807 0.0
H1054 H 0.34607 0.63923 0.31289 0.0
C1055 C 0.32556 0.68854 0.24489 0.0
loop_
_geom_bond_atom_site_label_1
_geom_bond_atom_site_label_2
_geom_bond_distance
_geom_bond_site_symmetry_2
_ccdc_geom_bond_type
C0 O1 1.160 . S
C0 O7 1.185 . S
O1 C0 1.160 . S
O2 Zn3 1.899 . S
O2 C10 1.284 . S
Zn3 O2 1.899 . S
Zn3 O4 2.032 . S
Zn3 O7 2.086 . S
Zn3 O12 1.977 . S
O4 Zn3 2.032 . S
O4 C8 1.278 . S
C5 O6 1.203 . S
C5 O12 1.267 . S
O6 C5 1.203 . S
O7 C0 1.185 . S
O7 Zn3 2.086 . S
C8 O4 1.278 . S
C8 O9 1.211 . S
O9 C8 1.211 . S
C10 O2 1.284 . S
C10 O11 1.273 . S
O11 C10 1.273 . S
O12 Zn3 1.977 . S
O12 C5 1.267 . S
C13 O14 1.160 . S
C13 O20 1.185 . S
O14 C13 1.160 . S
O15 Zn16 1.899 . S
O15 C23 1.284 . S
Zn16 O15 1.899 . S
Zn16 O17 2.032 . S
Zn16 O20 2.086 . S
Zn16 O25 1.977 . S
O17 Zn16 2.032 . S
O17 C21 1.278 . S
C18 O19 1.203 . S
C18 O25 1.267 . S
O19 C18 1.203 . S
O20 C13 1.185 . S
O20 Zn16 2.086 . S
C21 O17 1.278 . S
C21 O22 1.211 . S
O22 C21 1.211 . S
C23 O15 1.284 . S
C23 O24 1.273 . S
O24 C23 1.273 . S
O25 Zn16 1.977 . S
O25 C18 1.267 . S
C26 O27 1.160 . S
C26 O33 1.185 . S
O27 C26 1.160 . S
O28 Zn29 1.899 . S
O28 C36 1.284 . S
Zn29 O28 1.899 . S
Zn29 O30 2.032 . S
Zn29 O33 2.086 . S
Zn29 O38 1.977 . S
O30 Zn29 2.032 . S
O30 C34 1.278 . S
C31 O32 1.203 . S
C31 O38 1.267 . S
O32 C31 1.203 . S
O33 C26 1.185 . S
O33 Zn29 2.086 . S
C34 O30 1.278 . S
C34 O35 1.211 . S
O35 C34 1.211 . S
C36 O28 1.284 . S
C36 O37 1.273 . S
O37 C36 1.273 . S
O38 Zn29 1.977 . S
O38 C31 1.267 . S
C39 O40 1.160 . S
C39 O46 1.185 . S
O40 C39 1.160 . S
O41 Zn42 1.899 . S
O41 C49 1.284 . S
Zn42 O41 1.899 . S
Zn42 O43 2.032 . S
Zn42 O46 2.086 . S
Zn42 O51 1.977 . S
O43 Zn42 2.032 . S
O43 C47 1.278 . S
C44 O45 1.203 . S
C44 O51 1.267 . S
O45 C44 1.203 . S
O46 C39 1.185 . S
O46 Zn42 2.086 . S
C47 O43 1.278 . S
C47 O48 1.211 . S
O48 C47 1.211 . S
C49 O41 1.284 . S
C49 O50 1.273 . S
O50 C49 1.273 . S
O51 Zn42 1.977 . S
O51 C44 1.267 . S
C52 O53 1.160 . S
C52 O59 1.185 . S
O53 C52 1.160 . S
O54 Zn55 1.899 . S
O54 C62 1.284 . S
Zn55 O54 1.899 . S
Zn55 O56 2.032 . S
Zn55 O59 2.086 . S
Zn55 O64 1.977 . S
O56 Zn55 2.032 . S
O56 C60 1.278 . S
C57 O58 1.203 . S
C57 O64 1.267 . S
O58 C57 1.203 . S
O59 C52 1.185 . S
O59 Zn55 2.086 . S
C60 O56 1.278 . S
C60 O61 1.211 . S
O61 C60 1.211 . S
C62 O54 1.284 . S
C62 O63 1.273 . S
O63 C62 1.273 . S
O64 Zn55 1.977 . S
O64 C57 1.267 . S
C65 O66 1.160 . S
C65 O72 1.185 . S
O66 C65 1.160 . S
O67 Zn68 1.899 . S
O67 C75 1.284 . S
Zn68 O67 1.899 . S
Zn68 O69 2.032 . S
Zn68 O72 2.086 . S
Zn68 O77 1.977 . S
O69 Zn68 2.032 . S
O69 C73 1.278 . S
C70 O71 1.203 . S
C70 O77 1.267 . S
O71 C70 1.203 . S
O72 C65 1.185 . S
O72 Zn68 2.086 . S
C73 O69 1.278 . S
C73 O74 1.211 . S
O74 C73 1.211 . S
C75 O67 1.284 . S
C75 O76 1.273 . S
O76 C75 1.273 . S
O77 Zn68 1.977 . S
O77 C70 1.267 . S
C78 O79 1.160 . S
C78 O85 1.185 . S
O79 C78 1.160 . S
O80 Zn81 1.899 . S
O80 C88 1.284 . S
Zn81 O80 1.899 . S
Zn81 O82 2.032 . S
Zn81 O85 2.086 . S
Zn81 O90 1.977 . S
O82 Zn81 2.032 . S
O82 C86 1.278 . S
C83 O84 1.203 . S
C83 O90 1.267 . S
O84 C83 1.203 . S
O85 C78 1.185 . S
O85 Zn81 2.086 . S
C86 O82 1.278 . S
C86 O87 1.211 . S
O87 C86 1.211 . S
C88 O80 1.284 . S
C88 O89 1.273 . S
O89 C88 1.273 . S
O90 Zn81 1.977 . S
O90 C83 1.267 . S
C91 O92 1.160 . S
C91 O98 1.185 . S
O92 C91 1.160 . S
O93 Zn94 1.899 . S
O93 C101 1.284 . S
Zn94 O93 1.899 . S
Zn94 O95 2.032 . S
Zn94 O98 2.086 . S
Zn94 O103 1.977 . S
O95 Zn94 2.032 . S
O95 C99 1.278 . S
C96 O97 1.203 . S
C96 O103 1.267 . S
O97 C96 1.203 . S
O98 C91 1.185 . S
O98 Zn94 2.086 . S
C99 O95 1.278 . S
C99 O100 1.211 . S
O100 C99 1.211 . S
C101 O93 1.284 . S
C101 O102 1.273 . S
O102 C101 1.273 . S
O103 Zn94 1.977 . S
O103 C96 1.267 . S
C104 O105 1.160 . S
C104 O111 1.185 . S
O105 C104 1.160 . S
O106 Zn107 1.899 . S
O106 C114 1.284 . S
Zn107 O106 1.899 . S
Zn107 O108 2.032 . S
Zn107 O111 2.086 . S
Zn107 O116 1.977 . S
O108 Zn107 2.032 . S
O108 C112 1.278 . S
C109 O110 1.203 . S
C109 O116 1.267 . S
O110 C109 1.203 . S
O111 C104 1.185 . S
O111 Zn107 2.086 . S
C112 O108 1.278 . S
C112 O113 1.211 . S
O113 C112 1.211 . S
C114 O106 1.284 . S
C114 O115 1.273 . S
O115 C114 1.273 . S
O116 Zn107 1.977 . S
O116 C109 1.267 . S
C117 O118 1.160 . S
C117 O124 1.185 . S
O118 C117 1.160 . S
O119 Zn120 1.899 . S
O119 C127 1.284 . S
Zn120 O119 1.899 . S
Zn120 O121 2.032 . S
Zn120 O124 2.086 . S
Zn120 O129 1.977 . S
O121 Zn120 2.032 . S
O121 C125 1.278 . S
C122 O123 1.203 . S
C122 O129 1.267 . S
O123 C122 1.203 . S
O124 C117 1.185 . S
O124 Zn120 2.086 . S
C125 O121 1.278 . S
C125 O126 1.211 . S
O126 C125 1.211 . S
C127 O119 1.284 . S
C127 O128 1.273 . S
O128 C127 1.273 . S
O129 Zn120 1.977 . S
O129 C122 1.267 . S
C130 O131 1.160 . S
C130 O137 1.185 . S
O131 C130 1.160 . S
O132 Zn133 1.899 . S
O132 C140 1.284 . S
Zn133 O132 1.899 . S
Zn133 O134 2.032 . S
Zn133 O137 2.086 . S
Zn133 O142 1.977 . S
O134 Zn133 2.032 . S
O134 C138 1.278 . S
C135 O136 1.203 . S
C135 O142 1.267 . S
O136 C135 1.203 . S
O137 C130 1.185 . S
O137 Zn133 2.086 . S
C138 O134 1.278 . S
C138 O139 1.211 . S
O139 C138 1.211 . S
C140 O132 1.284 . S
C140 O141 1.273 . S
O141 C140 1.273 . S
O142 Zn133 1.977 . S
O142 C135 1.267 . S
C143 O144 1.160 . S
C143 O150 1.185 . S
O144 C143 1.160 . S
O145 Zn146 1.899 . S
O145 C153 1.284 . S
Zn146 O145 1.899 . S
Zn146 O147 2.032 . S
Zn146 O150 2.086 . S
Zn146 O155 1.977 . S
O147 Zn146 2.032 . S
O147 C151 1.278 . S
C148 O149 1.203 . S
C148 O155 1.267 . S
O149 C148 1.203 . S
O150 C143 1.185 . S
O150 Zn146 2.086 . S
C151 O147 1.278 . S
C151 O152 1.211 . S
O152 C151 1.211 . S
C153 O145 1.284 . S
C153 O154 1.273 . S
O154 C153 1.273 . S
O155 Zn146 1.977 . S
O155 C148 1.267 . S
C156 O157 1.160 . S
C156 O163 1.185 . S
O157 C156 1.160 . S
O158 Zn159 1.899 . S
O158 C166 1.284 . S
Zn159 O158 1.899 . S
Zn159 O160 2.032 . S
Zn159 O163 2.086 . S
Zn159 O168 1.977 . S
O160 Zn159 2.032 . S
O160 C164 1.278 . S
C161 O162 1.203 . S
C161 O168 1.267 . S
O162 C161 1.203 . S
O163 C156 1.185 . S
O163 Zn159 2.086 . S
C164 O160 1.278 . S
C164 O165 1.211 . S
O165 C164 1.211 . S
C166 O158 1.284 . S
C166 O167 1.273 . S
O167 C166 1.273 . S
O168 Zn159 1.977 . S
O168 C161 1.267 . S
C169 O170 1.160 . S
C169 O176 1.185 . S
O170 C169 1.160 . S
O171 Zn172 1.899 . S
O171 C179 1.284 . S
Zn172 O171 1.899 . S
Zn172 O173 2.032 . S
Zn172 O176 2.086 . S
Zn172 O181 1.977 . S
O173 Zn172 2.032 . S
O173 C177 1.278 . S
C174 O175 1.203 . S
C174 O181 1.267 . S
O175 C174 1.203 . S
O176 C169 1.185 . S
O176 Zn172 2.086 . S
C177 O173 1.278 . S
C177 O178 1.211 . S
O178 C177 1.211 . S
C179 O171 1.284 . S
C179 O180 1.273 . S
O180 C179 1.273 . S
O181 Zn172 1.977 . S
O181 C174 1.267 . S
C182 O183 1.160 . S
C182 O189 1.185 . S
O183 C182 1.160 . S
O184 Zn185 1.899 . S
O184 C192 1.284 . S
Zn185 O184 1.899 . S
Zn185 O186 2.032 . S
Zn185 O189 2.086 . S
Zn185 O194 1.977 . S
O186 Zn185 2.032 . S
O186 C190 1.278 . S
C187 O188 1.203 . S
C187 O194 1.267 . S
O188 C187 1.203 . S
O189 C182 1.185 . S
O189 Zn185 2.086 . S
C190 O186 1.278 . S
C190 O191 1.211 . S
O191 C190 1.211 . S
C192 O184 1.284 . S
C192 O193 1.273 . S
O193 C192 1.273 . S
O194 Zn185 1.977 . S
O194 C187 1.267 . S
C195 O196 1.160 . S
C195 O202 1.185 . S
O196 C195 1.160 . S
O197 Zn198 1.899 . S
O197 C205 1.284 . S
Zn198 O197 1.899 . S
Zn198 O199 2.032 . S
Zn198 O202 2.086 . S
Zn198 O207 1.977 . S
O199 Zn198 2.032 . S
O199 C203 1.278 . S
C200 O201 1.203 . S
C200 O207 1.267 . S
O201 C200 1.203 . S
O202 C195 1.185 . S
O202 Zn198 2.086 . S
C203 O199 1.278 . S
C203 O204 1.211 . S
O204 C203 1.211 . S
C205 O197 1.284 . S
C205 O206 1.273 . S
O206 C205 1.273 . S
O207 Zn198 1.977 . S
O207 C200 1.267 . S
C208 O209 1.160 . S
C208 O215 1.185 . S
O209 C208 1.160 . S
O210 Zn211 1.899 . S
O210 C218 1.284 . S
Zn211 O210 1.899 . S
Zn211 O212 2.032 . S
Zn211 O215 2.086 . S
Zn211 O220 1.977 . S
O212 Zn211 2.032 . S
O212 C216 1.278 . S
C213 O214 1.203 . S
C213 O220 1.267 . S
O214 C213 1.203 . S
O215 C208 1.185 . S
O215 Zn211 2.086 . S
C216 O212 1.278 . S
C216 O217 1.211 . S
O217 C216 1.211 . S
C218 O210 1.284 . S
C218 O219 1.273 . S
O219 C218 1.273 . S
O220 Zn211 1.977 . S
O220 C213 1.267 . S
C221 O222 1.160 . S
C221 O228 1.185 . S
O222 C221 1.160 . S
O223 Zn224 1.899 . S
O223 C231 1.284 . S
Zn224 O223 1.899 . S
Zn224 O225 2.032 . S
Zn224 O228 2.086 . S
Zn224 O233 1.977 . S
O225 Zn224 2.032 . S
O225 C229 1.278 . S
C226 O227 1.203 . S
C226 O233 1.267 . S
O227 C226 1.203 . S
O228 C221 1.185 . S
O228 Zn224 2.086 . S
C229 O225 1.278 . S
C229 O230 1.211 . S
O230 C229 1.211 . S
C231 O223 1.284 . S
C231 O232 1.273 . S
O232 C231 1.273 . S
O233 Zn224 1.977 . S
O233 C226 1.267 . S
C234 O235 1.160 . S
C234 O241 1.185 . S
O235 C234 1.160 . S
O236 Zn237 1.899 . S
O236 C244 1.284 . S
Zn237 O236 1.899 . S
Zn237 O238 2.032 . S
Zn237 O241 2.086 . S
Zn237 O246 1.977 . S
O238 Zn237 2.032 . S
O238 C242 1.278 . S
C239 O240 1.203 . S
C239 O246 1.267 . S
O240 C239 1.203 . S
O241 C234 1.185 . S
O241 Zn237 2.086 . S
C242 O238 1.278 . S
C242 O243 1.211 . S
O243 C242 1.211 . S
C244 O236 1.284 . S
C244 O245 1.273 . S
O245 C244 1.273 . S
O246 Zn237 1.977 . S
O246 C239 1.267 . S
C247 O248 1.160 . S
C247 O254 1.185 . S
O248 C247 1.160 . S
O249 Zn250 1.899 . S
O249 C257 1.284 . S
Zn250 O249 1.899 . S
Zn250 O251 2.032 . S
Zn250 O254 2.086 . S
Zn250 O259 1.977 . S
O251 Zn250 2.032 . S
O251 C255 1.278 . S
C252 O253 1.203 . S
C252 O259 1.267 . S
O253 C252 1.203 . S
O254 C247 1.185 . S
O254 Zn250 2.086 . S
C255 O251 1.278 . S
C255 O256 1.211 . S
O256 C255 1.211 . S
C257 O249 1.284 . S
C257 O258 1.273 . S
O258 C257 1.273 . S
O259 Zn250 1.977 . S
O259 C252 1.267 . S
C260 O261 1.160 . S
C260 O267 1.185 . S
O261 C260 1.160 . S
O262 Zn263 1.899 . S
O262 C270 1.284 . S
Zn263 O262 1.899 . S
Zn263 O264 2.032 . S
Zn263 O267 2.086 . S
Zn263 O272 1.977 . S
O264 Zn263 2.032 . S
O264 C268 1.278 . S
C265 O266 1.203 . S
C265 O272 1.267 . S
O266 C265 1.203 . S
O267 C260 1.185 . S
O267 Zn263 2.086 . S
C268 O264 1.278 . S
C268 O269 1.211 . S
O269 C268 1.211 . S
C270 O262 1.284 . S
C270 O271 1.273 . S
O271 C270 1.273 . S
O272 Zn263 1.977 . S
O272 C265 1.267 . S
C273 O274 1.160 . S
C273 O280 1.185 . S
O274 C273 1.160 . S
O275 Zn276 1.899 . S
O275 C283 1.284 . S
Zn276 O275 1.899 . S
Zn276 O277 2.032 . S
Zn276 O280 2.086 . S
Zn276 O285 1.977 . S
O277 Zn276 2.032 . S
O277 C281 1.278 . S
C278 O279 1.203 . S
C278 O285 1.267 . S
O279 C278 1.203 . S
O280 C273 1.185 . S
O280 Zn276 2.086 . S
C281 O277 1.278 . S
C281 O282 1.211 . S
O282 C281 1.211 . S
C283 O275 1.284 . S
C283 O284 1.273 . S
O284 C283 1.273 . S
O285 Zn276 1.977 . S
O285 C278 1.267 . S
C286 O287 1.160 . S
C286 O293 1.185 . S
O287 C286 1.160 . S
O288 Zn289 1.899 . S
O288 C296 1.284 . S
Zn289 O288 1.899 . S
Zn289 O290 2.032 . S
Zn289 O293 2.086 . S
Zn289 O298 1.977 . S
O290 Zn289 2.032 . S
O290 C294 1.278 . S
C291 O292 1.203 . S
C291 O298 1.267 . S
O292 C291 1.203 . S
O293 C286 1.185 . S
O293 Zn289 2.086 . S
C294 O290 1.278 . S
C294 O295 1.211 . S
O295 C294 1.211 . S
C296 O288 1.284 . S
C296 O297 1.273 . S
O297 C296 1.273 . S
O298 Zn289 1.977 . S
O298 C291 1.267 . S
C299 O300 1.160 . S
C299 O306 1.185 . S
O300 C299 1.160 . S
O301 Zn302 1.899 . S
O301 C309 1.284 . S
Zn302 O301 1.899 . S
Zn302 O303 2.032 . S
Zn302 O306 2.086 . S
Zn302 O311 1.977 . S
O303 Zn302 2.032 . S
O303 C307 1.278 . S
C304 O305 1.203 . S
C304 O311 1.267 . S
O305 C304 1.203 . S
O306 C299 1.185 . S
O306 Zn302 2.086 . S
C307 O303 1.278 . S
C307 O308 1.211 . S
O308 C307 1.211 . S
C309 O301 1.284 . S
C309 O310 1.273 . S
O310 C309 1.273 . S
O311 Zn302 1.977 . S
O311 C304 1.267 . S
C312 O313 1.160 . S
C312 O319 1.185 . S
O313 C312 1.160 . S
O314 Zn315 1.899 . S
O314 C322 1.284 . S
Zn315 O314 1.899 . S
Zn315 O316 2.032 . S
Zn315 O319 2.086 . S
Zn315 O324 1.977 . S
O316 Zn315 2.032 . S
O316 C320 1.278 . S
C317 O318 1.203 . S
C317 O324 1.267 . S
O318 C317 1.203 . S
O319 C312 1.185 . S
O319 Zn315 2.086 . S
C320 O316 1.278 . S
C320 O321 1.211 . S
O321 C320 1.211 . S
C322 O314 1.284 . S
C322 O323 1.273 . S
O323 C322 1.273 . S
O324 Zn315 1.977 . S
O324 C317 1.267 . S
C325 O326 1.160 . S
C325 O332 1.185 . S
O326 C325 1.160 . S
O327 Zn328 1.899 . S
O327 C335 1.284 . S
Zn328 O327 1.899 . S
Zn328 O329 2.032 . S
Zn328 O332 2.086 . S
Zn328 O337 1.977 . S
O329 Zn328 2.032 . S
O329 C333 1.278 . S
C330 O331 1.203 . S
C330 O337 1.267 . S
O331 C330 1.203 . S
O332 C325 1.185 . S
O332 Zn328 2.086 . S
C333 O329 1.278 . S
C333 O334 1.211 . S
O334 C333 1.211 . S
C335 O327 1.284 . S
C335 O336 1.273 . S
O336 C335 1.273 . S
O337 Zn328 1.977 . S
O337 C330 1.267 . S
C338 O339 1.160 . S
C338 O345 1.185 . S
O339 C338 1.160 . S
O340 Zn341 1.899 . S
O340 C348 1.284 . S
Zn341 O340 1.899 . S
Zn341 O342 2.032 . S
Zn341 O345 2.086 . S
Zn341 O350 1.977 . S
O342 Zn341 2.032 . S
O342 C346 1.278 . S
C343 O344 1.203 . S
C343 O350 1.267 . S
O344 C343 1.203 . S
O345 C338 1.185 . S
O345 Zn341 2.086 . S
C346 O342 1.278 . S
C346 O347 1.211 . S
O347 C346 1.211 . S
C348 O340 1.284 . S
C348 O349 1.273 . S
O349 C348 1.273 . S
O350 Zn341 1.977 . S
O350 C343 1.267 . S
C351 O352 1.160 . S
C351 O358 1.185 . S
O352 C351 1.160 . S
O353 Zn354 1.899 . S
O353 C361 1.284 . S
Zn354 O353 1.899 . S
Zn354 O355 2.032 . S
Zn354 O358 2.086 . S
Zn354 O363 1.977 . S
O355 Zn354 2.032 . S
O355 C359 1.278 . S
C356 O357 1.203 . S
C356 O363 1.267 . S
O357 C356 1.203 . S
O358 C351 1.185 . S
O358 Zn354 2.086 . S
C359 O355 1.278 . S
C359 O360 1.211 . S
O360 C359 1.211 . S
C361 O353 1.284 . S
C361 O362 1.273 . S
O362 C361 1.273 . S
O363 Zn354 1.977 . S
O363 C356 1.267 . S
C364 O365 1.160 . S
C364 O371 1.185 . S
O365 C364 1.160 . S
O366 Zn367 1.899 . S
O366 C374 1.284 . S
Zn367 O366 1.899 . S
Zn367 O368 2.032 . S
Zn367 O371 2.086 . S
Zn367 O376 1.977 . S
O368 Zn367 2.032 . S
O368 C372 1.278 . S
C369 O370 1.203 . S
C369 O376 1.267 . S
O370 C369 1.203 . S
O371 C364 1.185 . S
O371 Zn367 2.086 . S
C372 O368 1.278 . S
C372 O373 1.211 . S
O373 C372 1.211 . S
C374 O366 1.284 . S
C374 O375 1.273 . S
O375 C374 1.273 . S
O376 Zn367 1.977 . S
O376 C369 1.267 . S
C377 O378 1.160 . S
C377 O384 1.185 . S
O378 C377 1.160 . S
O379 Zn380 1.899 . S
O379 C387 1.284 . S
Zn380 O379 1.899 . S
Zn380 O381 2.032 . S
Zn380 O384 2.086 . S
Zn380 O389 1.977 . S
O381 Zn380 2.032 . S
O381 C385 1.278 . S
C382 O383 1.203 . S
C382 O389 1.267 . S
O383 C382 1.203 . S
O384 C377 1.185 . S
O384 Zn380 2.086 . S
C385 O381 1.278 . S
C385 O386 1.211 . S
O386 C385 1.211 . S
C387 O379 1.284 . S
C387 O388 1.273 . S
O388 C387 1.273 . S
O389 Zn380 1.977 . S
O389 C382 1.267 . S
C390 O391 1.160 . S
C390 O397 1.185 . S
O391 C390 1.160 . S
O392 Zn393 1.899 . S
O392 C400 1.284 . S
Zn393 O392 1.899 . S
Zn393 O394 2.032 . S
Zn393 O397 2.086 . S
Zn393 O402 1.977 . S
O394 Zn393 2.032 . S
O394 C398 1.278 . S
C395 O396 1.203 . S
C395 O402 1.267 . S
O396 C395 1.203 . S
O397 C390 1.185 . S
O397 Zn393 2.086 . S
C398 O394 1.278 . S
C398 O399 1.211 . S
O399 C398 1.211 . S
C400 O392 1.284 . S
C400 O401 1.273 . S
O401 C400 1.273 . S
O402 Zn393 1.977 . S
O402 C395 1.267 . S
C403 O404 1.160 . S
C403 O410 1.185 . S
O404 C403 1.160 . S
O405 Zn406 1.899 . S
O405 C413 1.284 . S
Zn406 O405 1.899 . S
Zn406 O407 2.032 . S
Zn406 O410 2.086 . S
Zn406 O415 1.977 . S
O407 Zn406 2.032 . S
O407 C411 1.278 . S
C408 O409 1.203 . S
C408 O415 1.267 . S
O409 C408 1.203 . S
O410 C403 1.185 . S
O410 Zn406 2.086 . S
C411 O407 1.278 . S
C411 O412 1.211 . S
O412 C411 1.211 . S
C413 O405 1.284 . S
C413 O414 1.273 . S
O414 C413 1.273 . S
O415 Zn406 1.977 . S
O415 C408 1.267 . S
C416 C417 1.387 . S
C416 H420 0.950 . S
C416 C425 1.390 . S
C417 C416 1.387 . S
C417 C419 1.387 . S
H418 C425 0.950 . S
C419 C417 1.387 . S
C419 C421 1.390 . S
C419 H423 0.950 . S
H420 C416 0.950 . S
C421 C419 1.390 . S
C421 C422 1.387 . S
C421 H424 0.950 . S
C422 C421 1.387 . S
C422 C425 1.387 . S
H423 C419 0.950 . S
H424 C421 0.950 . S
C425 C416 1.390 . S
C425 H418 0.950 . S
C425 C422 1.387 . S
C426 C427 1.387 . S
C426 H430 0.950 . S
C426 C435 1.390 . S
C427 C426 1.387 . S
C427 C429 1.387 . S
H428 C435 0.950 . S
C429 C427 1.387 . S
C429 C431 1.390 . S
C429 H433 0.950 . S
H430 C426 0.950 . S
C431 C429 1.390 . S
C431 C432 1.387 . S
C431 H434 0.950 . S
C432 C431 1.387 . S
C432 C435 1.387 . S
H433 C429 0.950 . S
H434 C431 0.950 . S
C435 C426 1.390 . S
C435 H428 0.950 . S
C435 C432 1.387 . S
C436 C437 1.387 . S
C436 H440 0.950 . S
C436 C445 1.390 . S
C437 C436 1.387 . S
C437 C439 1.387 . S
H438 C445 0.950 . S
C439 C437 1.387 . S
C439 C441 1.390 . S
C439 H443 0.950 . S
H440 C436 0.950 . S
C441 C439 1.390 . S
C441 C442 1.387 . S
C441 H444 0.950 . S
C442 C441 1.387 . S
C442 C445 1.387 . S
H443 C439 0.950 . S
H444 C441 0.950 . S
C445 C436 1.390 . S
C445 H438 0.950 . S
C445 C442 1.387 . S
C446 C447 1.387 . S
C446 H450 0.950 . S
C446 C455 1.390 . S
C447 C446 1.387 . S
C447 C449 1.387 . S
H448 C455 0.950 . S
C449 C447 1.387 . S
C449 C451 1.390 . S
C449 H453 0.950 . S
H450 C446 0.950 . S
C451 C449 1.390 . S
C451 C452 1.387 . S
C451 H454 0.950 . S
C452 C451 1.387 . S
C452 C455 1.387 . S
H453 C449 0.950 . S
H454 C451 0.950 . S
C455 C446 1.390 . S
C455 H448 0.950 . S
C455 C452 1.387 . S
C456 C457 1.387 . S
C456 H460 0.950 . S
C456 C465 1.390 . S
C457 C456 1.387 . S
C457 C459 1.387 . S
H458 C465 0.950 . S
C459 C457 1.387 . S
C459 C461 1.390 . S
C459 H463 0.950 . S
H460 C456 0.950 . S
C461 C459 1.390 . S
C461 C462 1.387 . S
C461 H464 0.950 . S
C462 C461 1.387 . S
C462 C465 1.387 . S
H463 C459 0.950 . S
H464 C461 0.950 . S
C465 C456 1.390 . S
C465 H458 0.950 . S
C465 C462 1.387 . S
C466 C467 1.387 . S
C466 H470 0.950 . S
C466 C475 1.390 . S
C467 C466 1.387 . S
C467 C469 1.387 . S
H468 C475 0.950 . S
C469 C467 1.387 . S
C469 C471 1.390 . S
C469 H473 0.950 . S
H470 C466 0.950 . S
C471 C469 1.390 . S
C471 C472 1.387 . S
C471 H474 0.950 . S
C472 C471 1.387 . S
C472 C475 1.387 . S
H473 C469 0.950 . S
H474 C471 0.950 . S
C475 C466 1.390 . S
C475 H468 0.950 . S
C475 C472 1.387 . S
C476 C477 1.387 . S
C476 H480 0.950 . S
C476 C485 1.390 . S
C477 C476 1.387 . S
C477 C479 1.387 . S
H478 C485 0.950 . S
C479 C477 1.387 . S
C479 C481 1.390 . S
C479 H483 0.950 . S
H480 C476 0.950 . S
C481 C479 1.390 . S
C481 C482 1.387 . S
C481 H484 0.950 . S
C482 C481 1.387 . S
C482 C485 1.387 . S
H483 C479 0.950 . S
H484 C481 0.950 . S
C485 C476 1.390 . S
C485 H478 0.950 . S
C485 C482 1.387 . S
C486 C487 1.387 . S
C486 H490 0.950 . S
C486 C495 1.390 . S
C487 C486 1.387 . S
C487 C489 1.387 . S
H488 C495 0.950 . S
C489 C487 1.387 . S
C489 C491 1.390 . S
C489 H493 0.950 . S
H490 C486 0.950 . S
C491 C489 1.390 . S
C491 C492 1.387 . S
C491 H494 0.950 . S
C492 C491 1.387 . S
C492 C495 1.387 . S
H493 C489 0.950 . S
H494 C491 0.950 . S
C495 C486 1.390 . S
C495 H488 0.950 . S
C495 C492 1.387 . S
C496 C497 1.387 . S
C496 H500 0.950 . S
C496 C505 1.390 . S
C497 C496 1.387 . S
C497 C499 1.387 . S
H498 C505 0.950 . S
C499 C497 1.387 . S
C499 C501 1.390 . S
C499 H503 0.950 . S
H500 C496 0.950 . S
C501 C499 1.390 . S
C501 C502 1.387 . S
C501 H504 0.950 . S
C502 C501 1.387 . S
C502 C505 1.387 . S
H503 C499 0.950 . S
H504 C501 0.950 . S
C505 C496 1.390 . S
C505 H498 0.950 . S
C505 C502 1.387 . S
C506 C507 1.387 . S
C506 H510 0.950 . S
C506 C515 1.390 . S
C507 C506 1.387 . S
C507 C509 1.387 . S
H508 C515 0.950 . S
C509 C507 1.387 . S
C509 C511 1.390 . S
C509 H513 0.950 . S
H510 C506 0.950 . S
C511 C509 1.390 . S
C511 C512 1.387 . S
C511 H514 0.950 . S
C512 C511 1.387 . S
C512 C515 1.387 . S
H513 C509 0.950 . S
H514 C511 0.950 . S
C515 C506 1.390 . S
C515 H508 0.950 . S
C515 C512 1.387 . S
C516 C517 1.387 . S
C516 H520 0.950 . S
C516 C525 1.390 . S
C517 C516 1.387 . S
C517 C519 1.387 . S
H518 C525 0.950 . S
C519 C517 1.387 . S
C519 C521 1.390 . S
C519 H523 0.950 . S
H520 C516 0.950 . S
C521 C519 1.390 . S
C521 C522 1.387 . S
C521 H524 0.950 . S
C522 C521 1.387 . S
C522 C525 1.387 . S
H523 C519 0.950 . S
H524 C521 0.950 . S
C525 C516 1.390 . S
C525 H518 0.950 . S
C525 C522 1.387 . S
C526 C527 1.387 . S
C526 H530 0.950 . S
C526 C535 1.390 . S
C527 C526 1.387 . S
C527 C529 1.387 . S
H528 C535 0.950 . S
C529 C527 1.387 . S
C529 C531 1.390 . S
C529 H533 0.950 . S
H530 C526 0.950 . S
C531 C529 1.390 . S
C531 C532 1.387 . S
C531 H534 0.950 . S
C532 C531 1.387 . S
C532 C535 1.387 . S
H533 C529 0.950 . S
H534 C531 0.950 . S
C535 C526 1.390 . S
C535 H528 0.950 . S
C535 C532 1.387 . S
C536 C537 1.387 . S
C536 H540 0.950 . S
C536 C545 1.390 . S
C537 C536 1.387 . S
C537 C539 1.387 . S
H538 C545 0.950 . S
C539 C537 1.387 . S
C539 C541 1.390 . S
C539 H543 0.950 . S
H540 C536 0.950 . S
C541 C539 1.390 . S
C541 C542 1.387 . S
C541 H544 0.950 . S
C542 C541 1.387 . S
C542 C545 1.387 . S
H543 C539 0.950 . S
H544 C541 0.950 . S
C545 C536 1.390 . S
C545 H538 0.950 . S
C545 C542 1.387 . S
C546 C547 1.387 . S
C546 H550 0.950 . S
C546 C555 1.390 . S
C547 C546 1.387 . S
C547 C549 1.387 . S
H548 C555 0.950 . S
C549 C547 1.387 . S
C549 C551 1.390 . S
C549 H553 0.950 . S
H550 C546 0.950 . S
C551 C549 1.390 . S
C551 C552 1.387 . S
C551 H554 0.950 . S
C552 C551 1.387 . S
C552 C555 1.387 . S
H553 C549 0.950 . S
H554 C551 0.950 . S
C555 C546 1.390 . S
C555 H548 0.950 . S
C555 C552 1.387 . S
C556 C557 1.387 . S
C556 H560 0.950 . S
C556 C565 1.390 . S
C557 C556 1.387 . S
C557 C559 1.387 . S
H558 C565 0.950 . S
C559 C557 1.387 . S
C559 C561 1.390 . S
C559 H563 0.950 . S
H560 C556 0.950 . S
C561 C559 1.390 . S
C561 C562 1.387 . S
C561 H564 0.950 . S
C562 C561 1.387 . S
C562 C565 1.387 . S
H563 C559 0.950 . S
H564 C561 0.950 . S
C565 C556 1.390 . S
C565 H558 0.950 . S
C565 C562 1.387 . S
C566 C567 1.387 . S
C566 H570 0.950 . S
C566 C575 1.390 . S
C567 C566 1.387 . S
C567 C569 1.387 . S
H568 C575 0.950 . S
C569 C567 1.387 . S
C569 C571 1.390 . S
C569 H573 0.950 . S
H570 C566 0.950 . S
C571 C569 1.390 . S
C571 C572 1.387 . S
C571 H574 0.950 . S
C572 C571 1.387 . S
C572 C575 1.387 . S
H573 C569 0.950 . S
H574 C571 0.950 . S
C575 C566 1.390 . S
C575 H568 0.950 . S
C575 C572 1.387 . S
C576 C577 1.387 . S
C576 H580 0.950 . S
C576 C585 1.390 1_554 S
C577 C576 1.387 . S
C577 C579 1.387 . S
H578 C585 0.950 . S
C579 C577 1.387 . S
C579 C581 1.390 1_554 S
C579 H583 0.950 . S
H580 C576 0.950 . S
C581 C579 1.390 1_556 S
C581 C582 1.387 . S
C581 H584 0.950 . S
C582 C581 1.387 . S
C582 C585 1.387 . S
H583 C579 0.950 . S
H584 C581 0.950 . S
C585 C576 1.390 1_556 S
C585 H578 0.950 . S
C585 C582 1.387 . S
C586 C587 1.387 . S
C586 H590 0.950 . S
C586 C595 1.390 1_556 S
C587 C586 1.387 . S
C587 C589 1.387 . S
H588 C595 0.950 . S
C589 C587 1.387 . S
C589 C591 1.390 1_556 S
C589 H593 0.950 . S
H590 C586 0.950 . S
C591 C589 1.390 1_554 S
C591 C592 1.387 . S
C591 H594 0.950 . S
C592 C591 1.387 . S
C592 C595 1.387 . S
H593 C589 0.950 . S
H594 C591 0.950 . S
C595 C586 1.390 1_554 S
C595 H588 0.950 . S
C595 C592 1.387 . S
C596 C597 1.387 . S
C596 H600 0.950 . S
C596 C605 1.390 1_556 S
C597 C596 1.387 . S
C597 C599 1.387 . S
H598 C605 0.950 . S
C599 C597 1.387 . S
C599 C601 1.390 1_556 S
C599 H603 0.950 . S
H600 C596 0.950 . S
C601 C599 1.390 1_554 S
C601 C602 1.387 . S
C601 H604 0.950 . S
C602 C601 1.387 . S
C602 C605 1.387 . S
H603 C599 0.950 . S
H604 C601 0.950 . S
C605 C596 1.390 1_554 S
C605 H598 0.950 . S
C605 C602 1.387 . S
C606 C607 1.387 . S
C606 H610 0.950 . S
C606 C615 1.390 1_556 S
C607 C606 1.387 . S
C607 C609 1.387 . S
H608 C615 0.950 . S
C609 C607 1.387 . S
C609 C611 1.390 1_556 S
C609 H613 0.950 . S
H610 C606 0.950 . S
C611 C609 1.390 1_554 S
C611 C612 1.387 . S
C611 H614 0.950 . S
C612 C611 1.387 . S
C612 C615 1.387 . S
H613 C609 0.950 . S
H614 C611 0.950 . S
C615 C606 1.390 1_554 S
C615 H608 0.950 . S
C615 C612 1.387 . S
C616 C617 1.387 . S
C616 H620 0.950 . S
C616 C625 1.390 . S
C617 C616 1.387 . S
C617 C619 1.387 . S
H618 C625 0.950 . S
C619 C617 1.387 . S
C619 C621 1.390 . S
C619 H623 0.950 . S
H620 C616 0.950 . S
C621 C619 1.390 . S
C621 C622 1.387 . S
C621 H624 0.950 . S
C622 C621 1.387 . S
C622 C625 1.387 . S
H623 C619 0.950 . S
H624 C621 0.950 . S
C625 C616 1.390 . S
C625 H618 0.950 . S
C625 C622 1.387 . S
C626 C627 1.387 . S
C626 H630 0.950 . S
C626 C635 1.390 . S
C627 C626 1.387 . S
C627 C629 1.387 . S
H628 C635 0.950 . S
C629 C627 1.387 . S
C629 C631 1.390 . S
C629 H633 0.950 . S
H630 C626 0.950 . S
C631 C629 1.390 . S
C631 C632 1.387 . S
C631 H634 0.950 . S
C632 C631 1.387 . S
C632 C635 1.387 . S
H633 C629 0.950 . S
H634 C631 0.950 . S
C635 C626 1.390 . S
C635 H628 0.950 . S
C635 C632 1.387 . S
C636 C637 1.387 . S
C636 H640 0.950 . S
C636 C645 1.390 . S
C637 C636 1.387 . S
C637 C639 1.387 . S
H638 C645 0.950 . S
C639 C637 1.387 . S
C639 C641 1.390 . S
C639 H643 0.950 . S
H640 C636 0.950 . S
C641 C639 1.390 . S
C641 C642 1.387 . S
C641 H644 0.950 . S
C642 C641 1.387 . S
C642 C645 1.387 . S
H643 C639 0.950 . S
H644 C641 0.950 . S
C645 C636 1.390 . S
C645 H638 0.950 . S
C645 C642 1.387 . S
C646 C647 1.387 . S
C646 H650 0.950 . S
C646 C655 1.390 . S
C647 C646 1.387 . S
C647 C649 1.387 . S
H648 C655 0.950 . S
C649 C647 1.387 . S
C649 C651 1.390 . S
C649 H653 0.950 . S
H650 C646 0.950 . S
C651 C649 1.390 . S
C651 C652 1.387 . S
C651 H654 0.950 . S
C652 C651 1.387 . S
C652 C655 1.387 . S
H653 C649 0.950 . S
H654 C651 0.950 . S
C655 C646 1.390 . S
C655 H648 0.950 . S
C655 C652 1.387 . S
C656 C657 1.387 . S
C656 H660 0.950 . S
C656 C665 1.390 . S
C657 C656 1.387 . S
C657 C659 1.387 . S
H658 C665 0.950 . S
C659 C657 1.387 . S
C659 C661 1.390 . S
C659 H663 0.950 . S
H660 C656 0.950 . S
C661 C659 1.390 . S
C661 C662 1.387 . S
C661 H664 0.950 . S
C662 C661 1.387 . S
C662 C665 1.387 . S
H663 C659 0.950 . S
H664 C661 0.950 . S
C665 C656 1.390 . S
C665 H658 0.950 . S
C665 C662 1.387 . S
C666 C667 1.387 . S
C666 H670 0.950 . S
C666 C675 1.390 . S
C667 C666 1.387 . S
C667 C669 1.387 . S
H668 C675 0.950 . S
C669 C667 1.387 . S
C669 C671 1.390 . S
C669 H673 0.950 . S
H670 C666 0.950 . S
C671 C669 1.390 . S
C671 C672 1.387 . S
C671 H674 0.950 . S
C672 C671 1.387 . S
C672 C675 1.387 . S
H673 C669 0.950 . S
H674 C671 0.950 . S
C675 C666 1.390 . S
C675 H668 0.950 . S
C675 C672 1.387 . S
C676 C677 1.387 . S
C676 H680 0.950 . S
C676 C685 1.390 . S
C677 C676 1.387 . S
C677 C679 1.387 . S
H678 C685 0.950 . S
C679 C677 1.387 . S
C679 C681 1.390 . S
C679 H683 0.950 . S
H680 C676 0.950 . S
C681 C679 1.390 . S
C681 C682 1.387 . S
C681 H684 0.950 . S
C682 C681 1.387 . S
C682 C685 1.387 . S
H683 C679 0.950 . S
H684 C681 0.950 . S
C685 C676 1.390 . S
C685 H678 0.950 . S
C685 C682 1.387 . S
C686 C687 1.387 . S
C686 H690 0.950 . S
C686 C695 1.390 . S
C687 C686 1.387 . S
C687 C689 1.387 . S
H688 C695 0.950 . S
C689 C687 1.387 . S
C689 C691 1.390 . S
C689 H693 0.950 . S
H690 C686 0.950 . S
C691 C689 1.390 . S
C691 C692 1.387 . S
C691 H694 0.950 . S
C692 C691 1.387 . S
C692 C695 1.387 . S
H693 C689 0.950 . S
H694 C691 0.950 . S
C695 C686 1.390 . S
C695 H688 0.950 . S
C695 C692 1.387 . S
C696 C697 1.387 . S
C696 H700 0.950 . S
C696 C705 1.390 1_556 S
C697 C696 1.387 . S
C697 C699 1.387 . S
H698 C705 0.950 . S
C699 C697 1.387 . S
C699 C701 1.390 1_556 S
C699 H703 0.950 . S
H700 C696 0.950 . S
C701 C699 1.390 1_554 S
C701 C702 1.387 . S
C701 H704 0.950 . S
C702 C701 1.387 . S
C702 C705 1.387 . S
H703 C699 0.950 . S
H704 C701 0.950 . S
C705 C696 1.390 1_554 S
C705 H698 0.950 . S
C705 C702 1.387 . S
C706 C707 1.387 . S
C706 H710 0.950 . S
C706 C715 1.390 1_554 S
C707 C706 1.387 . S
C707 C709 1.387 . S
H708 C715 0.950 . S
C709 C707 1.387 . S
C709 C711 1.390 1_554 S
C709 H713 0.950 . S
H710 C706 0.950 . S
C711 C709 1.390 1_556 S
C711 C712 1.387 . S
C711 H714 0.950 . S
C712 C711 1.387 . S
C712 C715 1.387 . S
H713 C709 0.950 . S
H714 C711 0.950 . S
C715 C706 1.390 1_556 S
C715 H708 0.950 . S
C715 C712 1.387 . S
C716 C717 1.387 . S
C716 H720 0.950 . S
C716 C725 1.390 1_554 S
C717 C716 1.387 . S
C717 C719 1.387 . S
H718 C725 0.950 . S
C719 C717 1.387 . S
C719 C721 1.390 1_554 S
C719 H723 0.950 . S
H720 C716 0.950 . S
C721 C719 1.390 1_556 S
C721 C722 1.387 . S
C721 H724 0.950 . S
C722 C721 1.387 . S
C722 C725 1.387 . S
H723 C719 0.950 . S
H724 C721 0.950 . S
C725 C716 1.390 1_556 S
C725 H718 0.950 . S
C725 C722 1.387 . S
C726 C727 1.387 . S
C726 H730 0.950 . S
C726 C735 1.390 1_556 S
C727 C726 1.387 . S
C727 C729 1.387 . S
H728 C735 0.950 . S
C729 C727 1.387 . S
C729 C731 1.390 1_556 S
C729 H733 0.950 . S
H730 C726 0.950 . S
C731 C729 1.390 1_554 S
C731 C732 1.387 . S
C731 H734 0.950 . S
C732 C731 1.387 . S
C732 C735 1.387 . S
H733 C729 0.950 . S
H734 C731 0.950 . S
C735 C726 1.390 1_554 S
C735 H728 0.950 . S
C735 C732 1.387 . S
C736 C737 1.387 . S
C736 H740 0.950 . S
C736 C745 1.390 1_545 S
C737 C736 1.387 . S
C737 C739 1.387 . S
H738 C745 0.950 . S
C739 C737 1.387 . S
C739 C741 1.390 1_545 S
C739 H743 0.950 . S
H740 C736 0.950 . S
C741 C739 1.390 1_565 S
C741 C742 1.387 . S
C741 H744 0.950 . S
C742 C741 1.387 . S
C742 C745 1.387 . S
H743 C739 0.950 . S
H744 C741 0.950 . S
C745 C736 1.390 1_565 S
C745 H738 0.950 . S
C745 C742 1.387 . S
C746 C747 1.387 . S
C746 H750 0.950 . S
C746 C755 1.390 1_655 S
C747 C746 1.387 . S
C747 C749 1.387 . S
H748 C755 0.950 . S
C749 C747 1.387 . S
C749 C751 1.390 1_655 S
C749 H753 0.950 . S
H750 C746 0.950 . S
C751 C749 1.390 1_455 S
C751 C752 1.387 . S
C751 H754 0.950 . S
C752 C751 1.387 . S
C752 C755 1.387 . S
H753 C749 0.950 . S
H754 C751 0.950 . S
C755 C746 1.390 1_455 S
C755 H748 0.950 . S
C755 C752 1.387 . S
C756 C757 1.387 . S
C756 H760 0.950 . S
C756 C765 1.390 1_545 S
C757 C756 1.387 . S
C757 C759 1.387 . S
H758 C765 0.950 . S
C759 C757 1.387 . S
C759 C761 1.390 1_545 S
C759 H763 0.950 . S
H760 C756 0.950 . S
C761 C759 1.390 1_565 S
C761 C762 1.387 . S
C761 H764 0.950 . S
C762 C761 1.387 . S
C762 C765 1.387 . S
H763 C759 0.950 . S
H764 C761 0.950 . S
C765 C756 1.390 1_565 S
C765 H758 0.950 . S
C765 C762 1.387 . S
C766 C767 1.387 . S
C766 H770 0.950 . S
C766 C775 1.390 1_455 S
C767 C766 1.387 . S
C767 C769 1.387 . S
H768 C775 0.950 . S
C769 C767 1.387 . S
C769 C771 1.390 1_455 S
C769 H773 0.950 . S
H770 C766 0.950 . S
C771 C769 1.390 1_655 S
C771 C772 1.387 . S
C771 H774 0.950 . S
C772 C771 1.387 . S
C772 C775 1.387 . S
H773 C769 0.950 . S
H774 C771 0.950 . S
C775 C766 1.390 1_655 S
C775 H768 0.950 . S
C775 C772 1.387 . S
C776 C777 1.387 . S
C776 H780 0.950 . S
C776 C785 1.390 1_565 S
C777 C776 1.387 . S
C777 C779 1.387 . S
H778 C785 0.950 . S
C779 C777 1.387 . S
C779 C781 1.390 1_565 S
C779 H783 0.950 . S
H780 C776 0.950 . S
C781 C779 1.390 1_545 S
C781 C782 1.387 . S
C781 H784 0.950 . S
C782 C781 1.387 . S
C782 C785 1.387 . S
H783 C779 0.950 . S
H784 C781 0.950 . S
C785 C776 1.390 1_545 S
C785 H778 0.950 . S
C785 C782 1.387 . S
C786 C787 1.387 . S
C786 H790 0.950 . S
C786 C795 1.390 1_655 S
C787 C786 1.387 . S
C787 C789 1.387 . S
H788 C795 0.950 . S
C789 C787 1.387 . S
C789 C791 1.390 1_655 S
C789 H793 0.950 . S
H790 C786 0.950 . S
C791 C789 1.390 1_455 S
C791 C792 1.387 . S
C791 H794 0.950 . S
C792 C791 1.387 . S
C792 C795 1.387 . S
H793 C789 0.950 . S
H794 C791 0.950 . S
C795 C786 1.390 1_455 S
C795 H788 0.950 . S
C795 C792 1.387 . S
C796 C797 1.387 . S
C796 H800 0.950 . S
C796 C805 1.390 1_565 S
C797 C796 1.387 . S
C797 C799 1.387 . S
H798 C805 0.950 . S
C799 C797 1.387 . S
C799 C801 1.390 1_565 S
C799 H803 0.950 . S
H800 C796 0.950 . S
C801 C799 1.390 1_545 S
C801 C802 1.387 . S
C801 H804 0.950 . S
C802 C801 1.387 . S
C802 C805 1.387 . S
H803 C799 0.950 . S
H804 C801 0.950 . S
C805 C796 1.390 1_545 S
C805 H798 0.950 . S
C805 C802 1.387 . S
C806 C807 1.387 . S
C806 H810 0.950 . S
C806 C815 1.390 1_655 S
C807 C806 1.387 . S
C807 C809 1.387 . S
H808 C815 0.950 . S
C809 C807 1.387 . S
C809 C811 1.390 1_655 S
C809 H813 0.950 . S
H810 C806 0.950 . S
C811 C809 1.390 1_455 S
C811 C812 1.387 . S
C811 H814 0.950 . S
C812 C811 1.387 . S
C812 C815 1.387 . S
H813 C809 0.950 . S
H814 C811 0.950 . S
C815 C806 1.390 1_455 S
C815 H808 0.950 . S
C815 C812 1.387 . S
C816 C817 1.387 . S
C816 H820 0.950 . S
C816 C825 1.390 . S
C817 C816 1.387 . S
C817 C819 1.387 . S
H818 C825 0.950 . S
C819 C817 1.387 . S
C819 C821 1.390 . S
C819 H823 0.950 . S
H820 C816 0.950 . S
C821 C819 1.390 . S
C821 C822 1.387 . S
C821 H824 0.950 . S
C822 C821 1.387 . S
C822 C825 1.387 . S
H823 C819 0.950 . S
H824 C821 0.950 . S
C825 C816 1.390 . S
C825 H818 0.950 . S
C825 C822 1.387 . S
C826 C827 1.387 . S
C826 H830 0.950 . S
C826 C835 1.390 . S
C827 C826 1.387 . S
C827 C829 1.387 . S
H828 C835 0.950 . S
C829 C827 1.387 . S
C829 C831 1.390 . S
C829 H833 0.950 . S
H830 C826 0.950 . S
C831 C829 1.390 . S
C831 C832 1.387 . S
C831 H834 0.950 . S
C832 C831 1.387 . S
C832 C835 1.387 . S
H833 C829 0.950 . S
H834 C831 0.950 . S
C835 C826 1.390 . S
C835 H828 0.950 . S
C835 C832 1.387 . S
C836 C837 1.387 . S
C836 H840 0.950 . S
C836 C845 1.390 . S
C837 C836 1.387 . S
C837 C839 1.387 . S
H838 C845 0.950 . S
C839 C837 1.387 . S
C839 C841 1.390 . S
C839 H843 0.950 . S
H840 C836 0.950 . S
C841 C839 1.390 . S
C841 C842 1.387 . S
C841 H844 0.950 . S
C842 C841 1.387 . S
C842 C845 1.387 . S
H843 C839 0.950 . S
H844 C841 0.950 . S
C845 C836 1.390 . S
C845 H838 0.950 . S
C845 C842 1.387 . S
C846 C847 1.387 . S
C846 H850 0.950 . S
C846 C855 1.390 . S
C847 C846 1.387 . S
C847 C849 1.387 . S
H848 C855 0.950 . S
C849 C847 1.387 . S
C849 C851 1.390 . S
C849 H853 0.950 . S
H850 C846 0.950 . S
C851 C849 1.390 . S
C851 C852 1.387 . S
C851 H854 0.950 . S
C852 C851 1.387 . S
C852 C855 1.387 . S
H853 C849 0.950 . S
H854 C851 0.950 . S
C855 C846 1.390 . S
C855 H848 0.950 . S
C855 C852 1.387 . S
C856 C857 1.387 . S
C856 H860 0.950 . S
C856 C865 1.390 . S
C857 C856 1.387 . S
C857 C859 1.387 . S
H858 C865 0.950 . S
C859 C857 1.387 . S
C859 C861 1.390 . S
C859 H863 0.950 . S
H860 C856 0.950 . S
C861 C859 1.390 . S
C861 C862 1.387 . S
C861 H864 0.950 . S
C862 C861 1.387 . S
C862 C865 1.387 . S
H863 C859 0.950 . S
H864 C861 0.950 . S
C865 C856 1.390 . S
C865 H858 0.950 . S
C865 C862 1.387 . S
C866 C867 1.387 . S
C866 H870 0.950 . S
C866 C875 1.390 . S
C867 C866 1.387 . S
C867 C869 1.387 . S
H868 C875 0.950 . S
C869 C867 1.387 . S
C869 C871 1.390 . S
C869 H873 0.950 . S
H870 C866 0.950 . S
C871 C869 1.390 . S
C871 C872 1.387 . S
C871 H874 0.950 . S
C872 C871 1.387 . S
C872 C875 1.387 . S
H873 C869 0.950 . S
H874 C871 0.950 . S
C875 C866 1.390 . S
C875 H868 0.950 . S
C875 C872 1.387 . S
C876 C877 1.387 . S
C876 H880 0.950 . S
C876 C885 1.390 . S
C877 C876 1.387 . S
C877 C879 1.387 . S
H878 C885 0.950 . S
C879 C877 1.387 . S
C879 C881 1.390 . S
C879 H883 0.950 . S
H880 C876 0.950 . S
C881 C879 1.390 . S
C881 C882 1.387 . S
C881 H884 0.950 . S
C882 C881 1.387 . S
C882 C885 1.387 . S
H883 C879 0.950 . S
H884 C881 0.950 . S
C885 C876 1.390 . S
C885 H878 0.950 . S
C885 C882 1.387 . S
C886 C887 1.387 . S
C886 H890 0.950 . S
C886 C895 1.390 . S
C887 C886 1.387 . S
C887 C889 1.387 . S
H888 C895 0.950 . S
C889 C887 1.387 . S
C889 C891 1.390 . S
C889 H893 0.950 . S
H890 C886 0.950 . S
C891 C889 1.390 . S
C891 C892 1.387 . S
C891 H894 0.950 . S
C892 C891 1.387 . S
C892 C895 1.387 . S
H893 C889 0.950 . S
H894 C891 0.950 . S
C895 C886 1.390 . S
C895 H888 0.950 . S
C895 C892 1.387 . S
C896 C897 1.387 . S
C896 H900 0.950 . S
C896 C905 1.390 . S
C897 C896 1.387 . S
C897 C899 1.387 . S
H898 C905 0.950 . S
C899 C897 1.387 . S
C899 C901 1.390 . S
C899 H903 0.950 . S
H900 C896 0.950 . S
C901 C899 1.390 . S
C901 C902 1.387 . S
C901 H904 0.950 . S
C902 C901 1.387 . S
C902 C905 1.387 . S
H903 C899 0.950 . S
H904 C901 0.950 . S
C905 C896 1.390 . S
C905 H898 0.950 . S
C905 C902 1.387 . S
C906 C907 1.387 . S
C906 H910 0.950 . S
C906 C915 1.390 . S
C907 C906 1.387 . S
C907 C909 1.387 . S
H908 C915 0.950 . S
C909 C907 1.387 . S
C909 C911 1.390 . S
C909 H913 0.950 . S
H910 C906 0.950 . S
C911 C909 1.390 . S
C911 C912 1.387 . S
C911 H914 0.950 . S
C912 C911 1.387 . S
C912 C915 1.387 . S
H913 C909 0.950 . S
H914 C911 0.950 . S
C915 C906 1.390 . S
C915 H908 0.950 . S
C915 C912 1.387 . S
C916 C917 1.387 . S
C916 H920 0.950 . S
C916 C925 1.390 . S
C917 C916 1.387 . S
C917 C919 1.387 . S
H918 C925 0.950 . S
C919 C917 1.387 . S
C919 C921 1.390 . S
C919 H923 0.950 . S
H920 C916 0.950 . S
C921 C919 1.390 . S
C921 C922 1.387 . S
C921 H924 0.950 . S
C922 C921 1.387 . S
C922 C925 1.387 . S
H923 C919 0.950 . S
H924 C921 0.950 . S
C925 C916 1.390 . S
C925 H918 0.950 . S
C925 C922 1.387 . S
C926 C927 1.387 . S
C926 H930 0.950 . S
C926 C935 1.390 . S
C927 C926 1.387 . S
C927 C929 1.387 . S
H928 C935 0.950 . S
C929 C927 1.387 . S
C929 C931 1.390 . S
C929 H933 0.950 . S
H930 C926 0.950 . S
C931 C929 1.390 . S
C931 C932 1.387 . S
C931 H934 0.950 . S
C932 C931 1.387 . S
C932 C935 1.387 . S
H933 C929 0.950 . S
H934 C931 0.950 . S
C935 C926 1.390 . S
C935 H928 0.950 . S
C935 C932 1.387 . S
C936 C937 1.387 . S
C936 H940 0.950 . S
C936 C945 1.390 . S
C937 C936 1.387 . S
C937 C939 1.387 . S
H938 C945 0.950 . S
C939 C937 1.387 . S
C939 C941 1.390 . S
C939 H943 0.950 . S
H940 C936 0.950 . S
C941 C939 1.390 . S
C941 C942 1.387 . S
C941 H944 0.950 . S
C942 C941 1.387 . S
C942 C945 1.387 . S
H943 C939 0.950 . S
H944 C941 0.950 . S
C945 C936 1.390 . S
C945 H938 0.950 . S
C945 C942 1.387 . S
C946 C947 1.387 . S
C946 H950 0.950 . S
C946 C955 1.390 . S
C947 C946 1.387 . S
C947 C949 1.387 . S
H948 C955 0.950 . S
C949 C947 1.387 . S
C949 C951 1.390 . S
C949 H953 0.950 . S
H950 C946 0.950 . S
C951 C949 1.390 . S
C951 C952 1.387 . S
C951 H954 0.950 . S
C952 C951 1.387 . S
C952 C955 1.387 . S
H953 C949 0.950 . S
H954 C951 0.950 . S
C955 C946 1.390 . S
C955 H948 0.950 . S
C955 C952 1.387 . S
C956 C957 1.387 . S
C956 H960 0.950 . S
C956 C965 1.390 . S
C957 C956 1.387 . S
C957 C959 1.387 . S
H958 C965 0.950 . S
C959 C957 1.387 . S
C959 C961 1.390 . S
C959 H963 0.950 . S
H960 C956 0.950 . S
C961 C959 1.390 . S
C961 C962 1.387 . S
C961 H964 0.950 . S
C962 C961 1.387 . S
C962 C965 1.387 . S
H963 C959 0.950 . S
H964 C961 0.950 . S
C965 C956 1.390 . S
C965 H958 0.950 . S
C965 C962 1.387 . S
C966 C967 1.387 . S
C966 H970 0.950 . S
C966 C975 1.390 . S
C967 C966 1.387 . S
C967 C969 1.387 . S
H968 C975 0.950 . S
C969 C967 1.387 . S
C969 C971 1.390 . S
C969 H973 0.950 . S
H970 C966 0.950 . S
C971 C969 1.390 . S
C971 C972 1.387 . S
C971 H974 0.950 . S
C972 C971 1.387 . S
C972 C975 1.387 . S
H973 C969 0.950 . S
H974 C971 0.950 . S
C975 C966 1.390 . S
C975 H968 0.950 . S
C975 C972 1.387 . S
C976 C977 1.387 . S
C976 H980 0.950 . S
C976 C985 1.390 . S
C977 C976 1.387 . S
C977 C979 1.387 . S
H978 C985 0.950 . S
C979 C977 1.387 . S
C979 C981 1.390 . S
C979 H983 0.950 . S
H980 C976 0.950 . S
C981 C979 1.390 . S
C981 C982 1.387 . S
C981 H984 0.950 . S
C982 C981 1.387 . S
C982 C985 1.387 . S
H983 C979 0.950 . S
H984 C981 0.950 . S
C985 C976 1.390 . S
C985 H978 0.950 . S
C985 C982 1.387 . S
C986 C987 1.387 . S
C986 H990 0.950 . S
C986 C995 1.390 . S
C987 C986 1.387 . S
C987 C989 1.387 . S
H988 C995 0.950 . S
C989 C987 1.387 . S
C989 C991 1.390 . S
C989 H993 0.950 . S
H990 C986 0.950 . S
C991 C989 1.390 . S
C991 C992 1.387 . S
C991 H994 0.950 . S
C992 C991 1.387 . S
C992 C995 1.387 . S
H993 C989 0.950 . S
H994 C991 0.950 . S
C995 C986 1.390 . S
C995 H988 0.950 . S
C995 C992 1.387 . S
C996 C997 1.387 . S
C996 H1000 0.950 . S
C996 C1005 1.390 . S
C997 C996 1.387 . S
C997 C999 1.387 . S
H998 C1005 0.950 . S
C999 C997 1.387 . S
C999 C1001 1.390 . S
C999 H1003 0.950 . S
H1000 C996 0.950 . S
C1001 C999 1.390 . S
C1001 C1002 1.387 . S
C1001 H1004 0.950 . S
C1002 C1001 1.387 . S
C1002 C1005 1.387 . S
H1003 C999 0.950 . S
H1004 C1001 0.950 . S
C1005 C996 1.390 . S
C1005 H998 0.950 . S
C1005 C1002 1.387 . S
C1006 C1007 1.387 . S
C1006 H1010 0.950 . S
C1006 C1015 1.390 . S
C1007 C1006 1.387 . S
C1007 C1009 1.387 . S
H1008 C1015 0.950 . S
C1009 C1007 1.387 . S
C1009 C1011 1.390 . S
C1009 H1013 0.950 . S
H1010 C1006 0.950 . S
C1011 C1009 1.390 . S
C1011 C1012 1.387 . S
C1011 H1014 0.950 . S
C1012 C1011 1.387 . S
C1012 C1015 1.387 . S
H1013 C1009 0.950 . S
H1014 C1011 0.950 . S
C1015 C1006 1.390 . S
C1015 H1008 0.950 . S
C1015 C1012 1.387 . S
C1016 C1017 1.387 . S
C1016 H1020 0.950 . S
C1016 C1025 1.390 . S
C1017 C1016 1.387 . S
C1017 C1019 1.387 . S
H1018 C1025 0.950 . S
C1019 C1017 1.387 . S
C1019 C1021 1.390 . S
C1019 H1023 0.950 . S
H1020 C1016 0.950 . S
C1021 C1019 1.390 . S
C1021 C1022 1.387 . S
C1021 H1024 0.950 . S
C1022 C1021 1.387 . S
C1022 C1025 1.387 . S
H1023 C1019 0.950 . S
H1024 C1021 0.950 . S
C1025 C1016 1.390 . S
C1025 H1018 0.950 . S
C1025 C1022 1.387 . S
C1026 C1027 1.387 . S
C1026 H1030 0.950 . S
C1026 C1035 1.390 . S
C1027 C1026 1.387 . S
C1027 C1029 1.387 . S
H1028 C1035 0.950 . S
C1029 C1027 1.387 . S
C1029 C1031 1.390 . S
C1029 H1033 0.950 . S
H1030 C1026 0.950 . S
C1031 C1029 1.390 . S
C1031 C1032 1.387 . S
C1031 H1034 0.950 . S
C1032 C1031 1.387 . S
C1032 C1035 1.387 . S
H1033 C1029 0.950 . S
H1034 C1031 0.950 . S
C1035 C1026 1.390 . S
C1035 H1028 0.950 . S
C1035 C1032 1.387 . S
C1036 C1037 1.387 . S
C1036 H1040 0.950 . S
C1036 C1045 1.390 . S
C1037 C1036 1.387 . S
C1037 C1039 1.387 . S
H1038 C1045 0.950 . S
C1039 C1037 1.387 . S
C1039 C1041 1.390 . S
C1039 H1043 0.950 . S
H1040 C1036 0.950 . S
C1041 C1039 1.390 . S
C1041 C1042 1.387 . S
C1041 H1044 0.950 . S
C1042 C1041 1.387 . S
C1042 C1045 1.387 . S
H1043 C1039 0.950 . S
H1044 C1041 0.950 . S
C1045 C1036 1.390 . S
C1045 H1038 0.950 . S
C1045 C1042 1.387 . S
C1046 C1047 1.387 . S
C1046 H1050 0.950 . S
C1046 C1055 1.390 . S
C1047 C1046 1.387 . S
C1047 C1049 1.387 . S
H1048 C1055 0.950 . S
C1049 C1047 1.387 . S
C1049 C1051 1.390 . S
C1049 H1053 0.950 . S
H1050 C1046 0.950 . S
C1051 C1049 1.390 . S
C1051 C1052 1.387 . S
C1051 H1054 0.950 . S
C1052 C1051 1.387 . S
C1052 C1055 1.387 . S
H1053 C1049 0.950 . S
H1054 C1051 0.950 . S
C1055 C1046 1.390 . S
C1055 H1048 0.950 . S
C1055 C1052 1.387 . S
C417 C382 1.390 . S
C422 C5 1.392 . S
C427 C18 1.390 . S
C432 C395 1.392 . S
C437 C408 1.392 . S
C442 C31 1.390 . S
C447 C369 1.392 . S
C452 C44 1.390 . S
C457 C57 1.392 . S
C462 C356 1.390 . S
C467 C317 1.390 . S
C472 C70 1.392 . S
C477 C83 1.392 . S
C482 C330 1.390 . S
C487 C343 1.392 . S
C492 C96 1.390 . S
C497 C109 1.390 . S
C502 C278 1.392 . S
C507 C122 1.390 . S
C512 C291 1.392 . S
C517 C304 1.392 . S
C522 C135 1.390 . S
C527 C148 1.390 . S
C532 C265 1.392 . S
C537 C252 1.390 . S
C542 C161 1.392 . S
C547 C213 1.390 . S
C552 C174 1.392 . S
C557 C187 1.392 . S
C562 C226 1.390 . S
C567 C200 1.390 . S
C572 C239 1.392 . S
C577 C10 1.426 . S
C582 C140 1.427 . S
C587 C153 1.428 . S
C592 C23 1.426 . S
C597 C114 1.426 . S
C602 C36 1.428 . S
C607 C127 1.426 . S
C612 C49 1.428 . S
C617 C62 1.428 . S
C622 C192 1.426 . S
C627 C205 1.426 . S
C632 C75 1.427 . S
C637 C166 1.428 . S
C642 C88 1.426 . S
C647 C179 1.427 . S
C652 C101 1.426 . S
C657 C218 1.427 . S
C662 C348 1.426 . S
C667 C361 1.428 . S
C672 C231 1.426 . S
C677 C322 1.426 . S
C682 C244 1.428 . S
C687 C257 1.428 . S
C692 C335 1.426 . S
C697 C270 1.427 . S
C702 C400 1.426 . S
C707 C413 1.428 . S
C712 C283 1.426 . S
C717 C374 1.428 . S
C722 C296 1.426 . S
C727 C309 1.426 . S
C732 C387 1.428 . S
C737 C0 1.286 . S
C742 C52 1.286 . S
C747 C13 1.283 . S
C752 C65 1.283 . S
C757 C78 1.283 . S
C762 C26 1.283 . S
C767 C39 1.286 . S
C772 C91 1.286 . S
C777 C104 1.286 . S
C782 C156 1.286 . S
C787 C169 1.286 . S
C792 C117 1.286 . S
C797 C182 1.283 . S
C802 C130 1.283 . S
C807 C143 1.286 . S
C812 C195 1.286 . S
C817 C208 1.283 . S
C822 C260 1.283 . S
C827 C273 1.283 . S
C832 C221 1.283 . S
C837 C234 1.283 . S
C842 C286 1.283 . S
C847 C299 1.283 . S
C852 C247 1.283 . S
C857 C364 1.283 . S
C862 C312 1.283 . S
C867 C325 1.283 . S
C872 C377 1.283 . S
C877 C338 1.283 . S
C882 C390 1.283 . S
C887 C351 1.286 . S
C892 C403 1.286 . S
C897 C8 1.425 . S
C902 C73 1.429 . S
C907 C21 1.429 . S
C912 C86 1.425 . S
C917 C99 1.428 . S
C922 C34 1.427 . S
C927 C60 1.427 . S
C932 C47 1.427 . S
C937 C177 1.425 . S
C942 C112 1.429 . S
C947 C190 1.429 . S
C952 C125 1.425 . S
C957 C203 1.429 . S
C962 C138 1.426 . S
C967 C151 1.425 . S
C972 C164 1.429 . S
C977 C216 1.426 . S
C982 C281 1.427 . S
C987 C294 1.426 . S
C992 C229 1.428 . S
C997 C307 1.426 . S
C1002 C242 1.429 . S
C1007 C255 1.426 . S
C1012 C268 1.428 . S
C1017 C385 1.426 . S
C1022 C320 1.429 . S
C1027 C333 1.426 . S
C1032 C398 1.428 . S
C1037 C346 1.426 . S
C1042 C411 1.429 . S
C1047 C372 1.428 . S
C1052 C359 1.426 . S
