# Generated by pormake.
# Topology umf, (4)-cn, num edge types: 1
# Building blocks:
#     Node 0, Type 0, BuildingBlock: GALJAG_clean_sbu_0, # of connection points: 4
#     Node 1, Type 0, BuildingBlock: GALJAG_clean_sbu_0, # of connection points: 4
#     Node 2, Type 0, BuildingBlock: GALJAG_clean_sbu_0, # of connection points: 4
#     Node 3, Type 0, BuildingBlock: GALJAG_clean_sbu_0, # of connection points: 4
#     Node 4, Type 0, BuildingBlock: GALJAG_clean_sbu_0, # of connection points: 4
#     Node 5, Type 0, BuildingBlock: GALJAG_clean_sbu_0, # of connection points: 4
#     Node 6, Type 0, BuildingBlock: GALJAG_clean_sbu_0, # of connection points: 4
#     Node 7, Type 0, BuildingBlock: GALJAG_clean_sbu_0, # of connection points: 4
#     Edge 8, Type (0, 0), BuildingBlock: OJICUG_clean_linker_0, # of connection points: 2
#     Edge 9, Type (0, 0), BuildingBlock: OJICUG_clean_linker_0, # of connection points: 2
#     Edge 10, Type (0, 0), BuildingBlock: OJICUG_clean_linker_0, # of connection points: 2
#     Edge 11, Type (0, 0), BuildingBlock: OJICUG_clean_linker_0, # of connection points: 2
#     Edge 12, Type (0, 0), BuildingBlock: OJICUG_clean_linker_0, # of connection points: 2
#     Edge 13, Type (0, 0), BuildingBlock: OJICUG_clean_linker_0, # of connection points: 2
#     Edge 14, Type (0, 0), BuildingBlock: OJICUG_clean_linker_0, # of connection points: 2
#     Edge 15, Type (0, 0), BuildingBlock: OJICUG_clean_linker_0, # of connection points: 2
#     Edge 16, Type (0, 0), BuildingBlock: OJICUG_clean_linker_0, # of connection points: 2
#     Edge 17, Type (0, 0), BuildingBlock: OJICUG_clean_linker_0, # of connection points: 2
#     Edge 18, Type (0, 0), BuildingBlock: OJICUG_clean_linker_0, # of connection points: 2
#     Edge 19, Type (0, 0), BuildingBlock: OJICUG_clean_linker_0, # of connection points: 2
#     Edge 20, Type (0, 0), BuildingBlock: OJICUG_clean_linker_0, # of connection points: 2
#     Edge 21, Type (0, 0), BuildingBlock: OJICUG_clean_linker_0, # of connection points: 2
#     Edge 22, Type (0, 0), BuildingBlock: OJICUG_clean_linker_0, # of connection points: 2
#     Edge 23, Type (0, 0), BuildingBlock: OJICUG_clean_linker_0, # of connection points: 2
# Relax obj value: 0.108
# Max RMSD: 0.235
# Mean RMSD: 0.235
data_MOF--net-umf--node1-GALJAG_clean_sbu_0--edge1-OJICUG_clean_linker_0
_symmetry_space_group_name_H-M    P1
_symmetry_Int_Tables_number       1
_symmetry_cell_setting            triclinic
loop_
_symmetry_equiv_pos_as_xyz
'x, y, z'
_cell_length_a     21.348418
_cell_length_b     21.293656
_cell_length_c     38.317397
_cell_angle_alpha  89.992956
_cell_angle_beta   89.970774
_cell_angle_gamma 90.044782
loop_
_atom_site_label
_atom_site_type_symbol
_atom_site_fract_x
_atom_site_fract_y
_atom_site_fract_z
_atom_type_partial_charge
In0 In 0.04435 0.23307 0.15395 0.0
O1 O 0.07307 0.23048 0.09653 0.0
O2 O 0.97556 0.22804 0.10984 0.0
C3 C 0.13193 0.2366 0.203 0.0
C4 C 0.01541 0.35302 0.162 0.0
C5 C 0.01372 0.115 0.16944 0.0
O6 O 0.14613 0.22654 0.17121 0.0
O7 O 0.07442 0.2459 0.20915 0.0
O8 O 0.97637 0.16012 0.17566 0.0
O9 O 0.06521 0.13009 0.15545 0.0
C10 C 0.01656 0.22818 0.08605 0.0
O11 O 0.97842 0.30968 0.17193 0.0
O12 O 0.06601 0.33517 0.14789 0.0
In13 In 0.73095 0.04319 0.65401 0.0
O14 O 0.73249 0.07339 0.5968 0.0
O15 O 0.73538 0.97532 0.60942 0.0
C16 C 0.72695 0.12911 0.70409 0.0
C17 C 0.61145 0.01304 0.66199 0.0
C18 C 0.84959 0.01353 0.66806 0.0
O19 O 0.73602 0.14467 0.67239 0.0
O20 O 0.71916 0.07102 0.70969 0.0
O21 O 0.80507 0.97564 0.67471 0.0
O22 O 0.83361 0.0652 0.65448 0.0
C23 C 0.73477 0.01697 0.58592 0.0
O24 O 0.65487 0.97563 0.67116 0.0
O25 O 0.62897 0.06464 0.64874 0.0
In26 In 0.9238 0.73443 0.15506 0.0
O27 O 0.89296 0.73585 0.09796 0.0
O28 O -0.00917 0.73995 0.11011 0.0
C29 C 0.83686 0.72899 0.20449 0.0
C30 C 0.95573 0.61526 0.16308 0.0
C31 C 0.95311 0.85307 0.17014 0.0
O32 O 0.82212 0.73858 0.17274 0.0
O33 O 0.89467 0.72139 0.21047 0.0
O34 O -0.00917 0.80836 0.17658 0.0
O35 O 0.90182 0.83728 0.1562 0.0
C36 C 0.94902 0.73883 0.0868 0.0
O37 O -0.00722 0.65936 0.17175 0.0
O38 O 0.90365 0.63191 0.15031 0.0
In39 In 0.22998 0.9233 0.65371 0.0
O40 O 0.30591 -0.0089 0.67077 0.0
O41 O 0.33204 0.90183 0.64879 0.0
C42 C 0.11143 0.95351 0.66777 0.0
C43 C 0.22656 0.94842 0.58546 0.0
C44 C 0.23337 0.83744 0.70387 0.0
O45 O 0.15607 -0.00866 0.67424 0.0
O46 O 0.12725 0.90168 0.65432 0.0
O47 O 0.22441 0.82188 0.67218 0.0
O48 O 0.24145 0.89549 0.70944 0.0
C49 C 0.34943 0.9536 0.66186 0.0
O50 O 0.22879 0.89219 0.59665 0.0
O51 O 0.22577 -0.00956 0.60874 0.0
In52 In 0.0408 0.73397 0.87241 0.0
O53 O 0.0718 0.73581 0.92949 0.0
O54 O 0.97384 0.73887 0.91738 0.0
C55 C 0.12714 0.73032 0.82258 0.0
C56 C 0.00994 0.61438 0.86449 0.0
C57 C 0.01006 0.85234 0.8577 0.0
O58 O 0.14219 0.73984 0.85429 0.0
O59 O 0.06938 0.72169 0.81686 0.0
O60 O 0.97262 0.80727 0.85142 0.0
O61 O 0.06177 0.83703 0.8713 0.0
C62 C 0.01571 0.73829 0.94067 0.0
O63 O 0.97286 0.65815 0.85544 0.0
O64 O 0.06164 0.63158 0.87756 0.0
In65 In 0.23109 0.04041 0.37107 0.0
O66 O 0.22937 0.07132 0.42815 0.0
O67 O 0.22656 0.9731 0.41598 0.0
C68 C 0.23592 0.12657 0.32112 0.0
C69 C 0.35049 0.01001 0.36312 0.0
C70 C 0.11243 0.01076 0.35681 0.0
O71 O 0.22683 0.14199 0.35283 0.0
O72 O 0.24318 0.06847 0.31542 0.0
O73 O 0.1569 0.97275 0.35039 0.0
O74 O 0.12847 0.06253 0.37026 0.0
C75 C 0.22711 0.01507 0.43929 0.0
O76 O 0.30697 0.97258 0.35405 0.0
O77 O 0.33311 0.06168 0.37628 0.0
In78 In 0.91834 0.23255 0.8726 0.0
O79 O 0.88878 0.23072 0.92996 0.0
O80 O -0.0136 0.22722 0.91695 0.0
C81 C 0.832 0.23649 0.82286 0.0
C82 C 0.9489 0.35219 0.8647 0.0
C83 C 0.94841 0.1141 0.85778 0.0
O84 O 0.81691 0.22688 0.85458 0.0
O85 O 0.88978 0.24504 0.81711 0.0
O86 O -0.01411 0.15906 0.85128 0.0
O87 O 0.89694 0.12956 0.87165 0.0
C88 C 0.94517 0.22794 0.94062 0.0
O89 O -0.01411 0.3085 0.85538 0.0
O90 O 0.89743 0.33489 0.87806 0.0
In91 In 0.73191 0.92127 0.37205 0.0
O92 O 0.73313 0.89134 0.4293 0.0
O93 O 0.73622 -0.01065 0.41659 0.0
C94 C 0.72821 0.83433 0.32252 0.0
C95 C 0.61248 0.95115 0.36366 0.0
C96 C 0.85047 0.9511 0.35756 0.0
O97 O 0.73744 0.81946 0.3543 0.0
O98 O 0.72002 0.89223 0.31659 0.0
O99 O 0.80588 -0.01114 0.35097 0.0
O100 O 0.83461 0.89957 0.37138 0.0
C101 C 0.73541 0.94778 0.44013 0.0
O102 O 0.656 -0.01144 0.35452 0.0
O103 O 0.62986 0.89973 0.37711 0.0
C104 C 0.04857 0.4651 0.1632 0.0
C105 C 0.00058 0.42004 0.1656 0.0
H106 H 0.07189 0.56299 0.16129 0.0
C107 C 0.93841 0.43975 0.16974 0.0
H108 H 0.097 0.45094 0.1602 0.0
C109 C 0.9241 0.50364 0.16973 0.0
C110 C 0.9719 0.54862 0.16642 0.0
H111 H 0.90068 0.40588 0.17168 0.0
H112 H 0.87553 0.51789 0.17184 0.0
C113 C 0.03437 0.52904 0.164 0.0
C114 C 0.43602 0.03178 0.66601 0.0
C115 C 0.4162 0.96905 0.66531 0.0
H116 H 0.51414 0.09481 0.66511 0.0
C117 C 0.461 0.92072 0.66591 0.0
H118 H 0.40231 0.06978 0.66551 0.0
C119 C 0.52482 0.93493 0.66634 0.0
C120 C 0.54464 -0.00235 0.66536 0.0
H121 H 0.44671 0.87189 0.66559 0.0
H122 H 0.55852 0.89693 0.66609 0.0
C123 C 0.49984 0.04598 0.66564 0.0
C124 C 0.91675 0.46426 0.86109 0.0
C125 C 0.96466 0.41904 0.86134 0.0
H126 H 0.8937 0.5622 0.86112 0.0
C127 C 0.02735 0.43846 0.86028 0.0
H128 H 0.86796 0.45026 0.8617 0.0
C129 C 0.04197 0.50233 0.86062 0.0
C130 C -0.00593 0.54755 0.8612 0.0
H131 H 0.06502 0.4044 0.86051 0.0
H132 H 0.09077 0.51633 0.86086 0.0
C133 C 0.93136 0.52813 0.86062 0.0
C134 C 0.43712 0.93196 0.35915 0.0
C135 C 0.41727 -0.00535 0.35973 0.0
H136 H 0.51528 0.86912 0.36035 0.0
C137 C 0.46204 0.04308 0.35913 0.0
H138 H 0.40343 0.8939 0.35965 0.0
C139 C 0.52586 0.02902 0.35887 0.0
C140 C 0.54571 0.96635 0.36002 0.0
H141 H 0.44771 0.09188 0.35935 0.0
H142 H 0.55954 0.0671 0.35914 0.0
C143 C 0.50095 0.91791 0.35969 0.0
C144 C 0.02661 0.22586 0.98742 0.0
C145 C 0.96291 0.22668 0.97789 0.0
H146 H 0.09364 0.22573 0.02906 0.0
C147 C 0.91721 0.22706 1.00416 0.0
H148 H 0.06302 0.22552 0.96773 0.0
C149 C 0.93487 0.22704 0.03929 0.0
C150 C -0.00141 0.2268 0.04882 0.0
H151 H 0.86785 0.22766 0.99762 0.0
H152 H 0.8985 0.22765 0.059 0.0
C153 C 0.04427 0.22599 0.02254 0.0
C154 C 0.73608 0.936 0.53871 0.0
C155 C 0.73585 -0.0003 0.54858 0.0
H156 H 0.73607 0.86949 0.4967 0.0
C157 C 0.73611 0.04596 0.52254 0.0
H158 H 0.73588 0.89917 0.55822 0.0
C159 C 0.73635 0.02883 0.48733 0.0
C160 C 0.73619 0.96512 0.47746 0.0
H161 H 0.73596 0.09533 0.52934 0.0
H162 H 0.73634 0.06564 0.46781 0.0
C163 C 0.73618 0.91887 0.5035 0.0
C164 C 0.91916 0.73945 0.02359 0.0
C165 C 0.96569 0.73986 0.04938 0.0
H166 H 0.89866 0.7388 0.96898 0.0
C167 C 0.02908 0.74051 0.03918 0.0
H168 H 0.87002 0.73896 0.03065 0.0
C169 C 0.04561 0.74026 1.00388 0.0
C170 C -0.00093 0.73953 0.97809 0.0
H171 H 0.0661 0.74083 0.0585 0.0
H172 H 0.09475 0.74044 0.99682 0.0
C173 C 0.93568 0.73937 0.98829 0.0
C174 C 0.22585 0.93486 0.48694 0.0
C175 C 0.22602 -0.00161 0.47672 0.0
H176 H 0.22595 0.86909 0.52931 0.0
C177 C 0.22573 0.04509 0.5025 0.0
H178 H 0.22608 0.89771 0.46763 0.0
C179 C 0.22553 0.02858 0.5378 0.0
C180 C 0.22576 0.96505 0.54802 0.0
H181 H 0.22584 0.09434 0.49543 0.0
H182 H 0.22552 0.06574 0.55711 0.0
C183 C 0.22579 0.91834 0.52224 0.0
C184 C 0.16018 0.24859 0.26546 0.0
C185 C 0.17543 0.22573 0.2321 0.0
H186 H 0.16935 0.23554 0.32062 0.0
C187 C 0.22309 0.18094 0.22864 0.0
H188 H 0.12384 0.28361 0.2687 0.0
C189 C 0.2485 0.15291 0.25836 0.0
C190 C 0.22719 0.17014 0.29175 0.0
H191 H 0.23573 0.16263 0.20322 0.0
H192 H 0.28062 0.11395 0.25513 0.0
C193 C 0.18632 0.22123 0.29518 0.0
C194 C 0.74008 0.18267 0.79669 0.0
C195 C 0.7889 0.22632 0.79348 0.0
H196 H 0.68116 0.11723 0.76989 0.0
C197 C 0.80519 0.2489 0.7602 0.0
H198 H 0.72662 0.1646 0.82205 0.0
C199 C 0.77868 0.22236 0.73034 0.0
C200 C 0.73639 0.17232 0.73355 0.0
H201 H 0.84245 0.28305 0.75715 0.0
H202 H 0.79633 0.23634 0.70499 0.0
C203 C 0.7143 0.15541 0.76683 0.0
C204 C 0.78179 0.74185 0.29675 0.0
C205 C 0.7384 0.7908 0.29331 0.0
H206 H 0.84743 0.68278 0.27028 0.0
C207 C 0.71626 0.8069 0.25993 0.0
H208 H 0.79948 0.72851 0.32219 0.0
C209 C 0.74314 0.78024 0.23021 0.0
C210 C 0.79306 0.73801 0.23367 0.0
H211 H 0.68227 0.84422 0.2567 0.0
H212 H 0.72958 0.79785 0.20479 0.0
C213 C 0.80938 0.71591 0.26703 0.0
C214 C 0.24534 0.8112 0.76666 0.0
C215 C 0.22343 0.79435 0.73335 0.0
H216 H 0.23265 0.80204 0.82185 0.0
C217 C 0.18092 0.74452 0.73009 0.0
H218 H 0.27864 0.84922 0.76976 0.0
C219 C 0.15409 0.7181 0.75991 0.0
C220 C 0.1703 0.74056 0.79321 0.0
H221 H 0.1634 0.7306 0.7047 0.0
H222 H 0.11672 0.68408 0.7568 0.0
C223 C 0.21925 0.78404 0.79648 0.0
C224 C 0.93511 0.02899 0.17625 0.0
C225 C -0.00222 0.04859 0.17548 0.0
H226 H 0.87189 0.95094 0.175 0.0
C227 C 0.04567 0.00335 0.17708 0.0
H228 H 0.8974 0.06293 0.17506 0.0
C229 C 0.03119 0.93938 0.17757 0.0
C230 C 0.96861 0.91972 0.17579 0.0
H231 H 0.09446 0.0174 0.1768 0.0
H232 H 0.06897 0.90545 0.17742 0.0
C233 C 0.92064 0.96499 0.17608 0.0
C234 C -0.00021 0.92097 0.67415 0.0
C235 C 0.04488 0.96916 0.67314 0.0
H236 H 0.90215 0.8973 0.67411 0.0
C237 C 0.02517 0.0319 0.67419 0.0
H238 H 0.01387 0.87211 0.67362 0.0
C239 C 0.9613 0.04621 0.67393 0.0
C240 C 0.9162 -0.002 0.6733 0.0
H241 H 0.05896 0.06986 0.67343 0.0
H242 H 0.94721 0.09506 0.67321 0.0
C243 C 0.93593 0.93528 0.67457 0.0
C244 C 0.91654 0.00204 0.85147 0.0
C245 C 0.96431 0.04757 0.85217 0.0
H246 H 0.89365 0.90398 0.85189 0.0
C247 C 0.02701 0.02827 0.85077 0.0
H248 H 0.86771 0.01582 0.85227 0.0
C249 C 0.04174 0.96437 0.85108 0.0
C250 C -0.00601 0.91884 0.85213 0.0
H251 H 0.06464 0.06241 0.85128 0.0
H252 H 0.09058 0.9506 0.85159 0.0
C253 C 0.93127 0.93813 0.85111 0.0
C254 C 0.96198 0.91831 0.35113 0.0
C255 C 0.91702 0.96657 0.35194 0.0
H256 H 0.05956 0.89451 0.35125 0.0
C257 C 0.93692 0.02926 0.35052 0.0
H258 H 0.94775 0.86947 0.35195 0.0
C259 C 0.00084 0.04348 0.35065 0.0
C260 C 0.0458 -0.00477 0.35154 0.0
H261 H 0.90325 0.06728 0.35111 0.0
H262 H 0.01507 0.09232 0.35112 0.0
C263 C 0.02588 0.93252 0.35059 0.0
loop_
_geom_bond_atom_site_label_1
_geom_bond_atom_site_label_2
_geom_bond_distance
_geom_bond_site_symmetry_2
_ccdc_geom_bond_type
In0 O1 2.294 . S
In0 O2 2.326 . S
In0 O6 2.266 . S
In0 O7 2.326 . S
In0 O8 2.266 1_455 S
In0 O9 2.326 . S
In0 O11 2.294 1_455 S
In0 O12 2.326 . S
O1 In0 2.294 . S
O1 C10 1.240 . S
O2 In0 2.326 . S
O2 C10 1.252 . S
C3 O6 1.252 . S
C3 O7 1.260 . S
C4 O11 1.240 1_455 S
C4 O12 1.252 . S
C5 O8 1.252 1_455 S
C5 O9 1.260 . S
O6 In0 2.266 . S
O6 C3 1.252 . S
O7 In0 2.326 . S
O7 C3 1.260 . S
O8 In0 2.266 1_655 S
O8 C5 1.252 1_655 S
O9 In0 2.326 . S
O9 C5 1.260 . S
C10 O1 1.240 . S
C10 O2 1.252 . S
O11 In0 2.294 1_655 S
O11 C4 1.240 1_655 S
O12 In0 2.326 . S
O12 C4 1.252 . S
In13 O14 2.294 . S
In13 O15 2.326 . S
In13 O19 2.266 . S
In13 O20 2.326 . S
In13 O21 2.266 1_545 S
In13 O22 2.326 . S
In13 O24 2.294 1_545 S
In13 O25 2.326 . S
O14 In13 2.294 . S
O14 C23 1.240 . S
O15 In13 2.326 . S
O15 C23 1.252 . S
C16 O19 1.252 . S
C16 O20 1.260 . S
C17 O24 1.240 1_545 S
C17 O25 1.252 . S
C18 O21 1.252 1_545 S
C18 O22 1.260 . S
O19 In13 2.266 . S
O19 C16 1.252 . S
O20 In13 2.326 . S
O20 C16 1.260 . S
O21 In13 2.266 1_565 S
O21 C18 1.252 1_565 S
O22 In13 2.326 . S
O22 C18 1.260 . S
C23 O14 1.240 . S
C23 O15 1.252 . S
O24 In13 2.294 1_565 S
O24 C17 1.240 1_565 S
O25 In13 2.326 . S
O25 C17 1.252 . S
In26 O27 2.294 . S
In26 O28 2.326 . S
In26 O32 2.266 . S
In26 O33 2.326 . S
In26 O34 2.266 1_655 S
In26 O35 2.326 . S
In26 O37 2.294 1_655 S
In26 O38 2.326 . S
O27 In26 2.294 . S
O27 C36 1.240 . S
O28 In26 2.326 . S
O28 C36 1.252 . S
C29 O32 1.252 . S
C29 O33 1.260 . S
C30 O37 1.240 1_655 S
C30 O38 1.252 . S
C31 O34 1.252 1_655 S
C31 O35 1.260 . S
O32 In26 2.266 . S
O32 C29 1.252 . S
O33 In26 2.326 . S
O33 C29 1.260 . S
O34 In26 2.266 1_455 S
O34 C31 1.252 1_455 S
O35 In26 2.326 . S
O35 C31 1.260 . S
C36 O27 1.240 . S
C36 O28 1.252 . S
O37 In26 2.294 1_455 S
O37 C30 1.240 1_455 S
O38 In26 2.326 . S
O38 C30 1.252 . S
In39 O40 2.294 1_565 S
In39 O41 2.326 . S
In39 O45 2.266 1_565 S
In39 O46 2.326 . S
In39 O47 2.266 . S
In39 O48 2.326 . S
In39 O50 2.294 . S
In39 O51 2.326 . S
O40 In39 2.294 1_545 S
O40 C49 1.240 1_545 S
O41 In39 2.326 . S
O41 C49 1.252 . S
C42 O45 1.252 1_565 S
C42 O46 1.260 . S
C43 O50 1.240 . S
C43 O51 1.252 . S
C44 O47 1.252 . S
C44 O48 1.260 . S
O45 In39 2.266 1_545 S
O45 C42 1.252 1_545 S
O46 In39 2.326 . S
O46 C42 1.260 . S
O47 In39 2.266 . S
O47 C44 1.252 . S
O48 In39 2.326 . S
O48 C44 1.260 . S
C49 O40 1.240 1_565 S
C49 O41 1.252 . S
O50 In39 2.294 . S
O50 C43 1.240 . S
O51 In39 2.326 . S
O51 C43 1.252 . S
In52 O53 2.294 . S
In52 O54 2.326 . S
In52 O58 2.266 . S
In52 O59 2.326 . S
In52 O60 2.266 1_455 S
In52 O61 2.326 . S
In52 O63 2.294 1_455 S
In52 O64 2.326 . S
O53 In52 2.294 . S
O53 C62 1.240 . S
O54 In52 2.326 . S
O54 C62 1.252 . S
C55 O58 1.252 . S
C55 O59 1.260 . S
C56 O63 1.240 1_455 S
C56 O64 1.252 . S
C57 O60 1.252 1_455 S
C57 O61 1.260 . S
O58 In52 2.266 . S
O58 C55 1.252 . S
O59 In52 2.326 . S
O59 C55 1.260 . S
O60 In52 2.266 1_655 S
O60 C57 1.252 1_655 S
O61 In52 2.326 . S
O61 C57 1.260 . S
C62 O53 1.240 . S
C62 O54 1.252 . S
O63 In52 2.294 1_655 S
O63 C56 1.240 1_655 S
O64 In52 2.326 . S
O64 C56 1.252 . S
In65 O66 2.294 . S
In65 O67 2.326 . S
In65 O71 2.266 . S
In65 O72 2.326 . S
In65 O73 2.266 1_545 S
In65 O74 2.326 . S
In65 O76 2.294 1_545 S
In65 O77 2.326 . S
O66 In65 2.294 . S
O66 C75 1.240 . S
O67 In65 2.326 . S
O67 C75 1.252 . S
C68 O71 1.252 . S
C68 O72 1.260 . S
C69 O76 1.240 1_545 S
C69 O77 1.252 . S
C70 O73 1.252 1_545 S
C70 O74 1.260 . S
O71 In65 2.266 . S
O71 C68 1.252 . S
O72 In65 2.326 . S
O72 C68 1.260 . S
O73 In65 2.266 1_565 S
O73 C70 1.252 1_565 S
O74 In65 2.326 . S
O74 C70 1.260 . S
C75 O66 1.240 . S
C75 O67 1.252 . S
O76 In65 2.294 1_565 S
O76 C69 1.240 1_565 S
O77 In65 2.326 . S
O77 C69 1.252 . S
In78 O79 2.294 . S
In78 O80 2.326 . S
In78 O84 2.266 . S
In78 O85 2.326 . S
In78 O86 2.266 1_655 S
In78 O87 2.326 . S
In78 O89 2.294 1_655 S
In78 O90 2.326 . S
O79 In78 2.294 . S
O79 C88 1.240 . S
O80 In78 2.326 . S
O80 C88 1.252 . S
C81 O84 1.252 . S
C81 O85 1.260 . S
C82 O89 1.240 1_655 S
C82 O90 1.252 . S
C83 O86 1.252 1_655 S
C83 O87 1.260 . S
O84 In78 2.266 . S
O84 C81 1.252 . S
O85 In78 2.326 . S
O85 C81 1.260 . S
O86 In78 2.266 1_455 S
O86 C83 1.252 1_455 S
O87 In78 2.326 . S
O87 C83 1.260 . S
C88 O79 1.240 . S
C88 O80 1.252 . S
O89 In78 2.294 1_455 S
O89 C82 1.240 1_455 S
O90 In78 2.326 . S
O90 C82 1.252 . S
In91 O92 2.294 . S
In91 O93 2.326 . S
In91 O97 2.266 . S
In91 O98 2.326 . S
In91 O99 2.266 1_565 S
In91 O100 2.326 . S
In91 O102 2.294 1_565 S
In91 O103 2.326 . S
O92 In91 2.294 . S
O92 C101 1.240 . S
O93 In91 2.326 . S
O93 C101 1.252 . S
C94 O97 1.252 . S
C94 O98 1.260 . S
C95 O102 1.240 1_565 S
C95 O103 1.252 . S
C96 O99 1.252 1_565 S
C96 O100 1.260 . S
O97 In91 2.266 . S
O97 C94 1.252 . S
O98 In91 2.326 . S
O98 C94 1.260 . S
O99 In91 2.266 1_545 S
O99 C96 1.252 1_545 S
O100 In91 2.326 . S
O100 C96 1.260 . S
C101 O92 1.240 . S
C101 O93 1.252 . S
O102 In91 2.294 1_545 S
O102 C95 1.240 1_545 S
O103 In91 2.326 . S
O103 C95 1.252 . S
C104 C105 1.387 . S
C104 H108 0.950 . S
C104 C113 1.390 1_455 S
C105 C104 1.387 . S
C105 C107 1.387 . S
H106 C113 0.950 . S
C107 C105 1.387 . S
C107 C109 1.390 1_455 S
C107 H111 0.950 . S
H108 C104 0.950 . S
C109 C107 1.390 1_655 S
C109 C110 1.387 . S
C109 H112 0.950 . S
C110 C109 1.387 . S
C110 C113 1.387 . S
H111 C107 0.950 . S
H112 C109 0.950 . S
C113 C104 1.390 1_655 S
C113 H106 0.950 . S
C113 C110 1.387 . S
C114 C115 1.387 . S
C114 H118 0.950 . S
C114 C123 1.390 1_565 S
C115 C114 1.387 . S
C115 C117 1.387 . S
H116 C123 0.950 . S
C117 C115 1.387 . S
C117 C119 1.390 1_565 S
C117 H121 0.950 . S
H118 C114 0.950 . S
C119 C117 1.390 1_545 S
C119 C120 1.387 . S
C119 H122 0.950 . S
C120 C119 1.387 . S
C120 C123 1.387 . S
H121 C117 0.950 . S
H122 C119 0.950 . S
C123 C114 1.390 1_545 S
C123 H116 0.950 . S
C123 C120 1.387 . S
C124 C125 1.387 . S
C124 H128 0.950 . S
C124 C133 1.390 1_655 S
C125 C124 1.387 . S
C125 C127 1.387 . S
H126 C133 0.950 . S
C127 C125 1.387 . S
C127 C129 1.390 1_655 S
C127 H131 0.950 . S
H128 C124 0.950 . S
C129 C127 1.390 1_455 S
C129 C130 1.387 . S
C129 H132 0.950 . S
C130 C129 1.387 . S
C130 C133 1.387 . S
H131 C127 0.950 . S
H132 C129 0.950 . S
C133 C124 1.390 1_455 S
C133 H126 0.950 . S
C133 C130 1.387 . S
C134 C135 1.387 . S
C134 H138 0.950 . S
C134 C143 1.390 1_545 S
C135 C134 1.387 . S
C135 C137 1.387 . S
H136 C143 0.950 . S
C137 C135 1.387 . S
C137 C139 1.390 1_545 S
C137 H141 0.950 . S
H138 C134 0.950 . S
C139 C137 1.390 1_565 S
C139 C140 1.387 . S
C139 H142 0.950 . S
C140 C139 1.387 . S
C140 C143 1.387 . S
H141 C137 0.950 . S
H142 C139 0.950 . S
C143 C134 1.390 1_565 S
C143 H136 0.950 . S
C143 C140 1.387 . S
C144 C145 1.387 . S
C144 H148 0.950 . S
C144 C153 1.390 1_656 S
C145 C144 1.387 . S
C145 C147 1.387 . S
H146 C153 0.950 . S
C147 C145 1.387 . S
C147 C149 1.390 1_656 S
C147 H151 0.950 . S
H148 C144 0.950 . S
C149 C147 1.390 1_454 S
C149 C150 1.387 . S
C149 H152 0.950 . S
C150 C149 1.387 . S
C150 C153 1.387 . S
H151 C147 0.950 . S
H152 C149 0.950 . S
C153 C144 1.390 1_454 S
C153 H146 0.950 . S
C153 C150 1.387 . S
C154 C155 1.387 . S
C154 H158 0.950 . S
C154 C163 1.390 1_545 S
C155 C154 1.387 . S
C155 C157 1.387 . S
H156 C163 0.950 . S
C157 C155 1.387 . S
C157 C159 1.390 1_545 S
C157 H161 0.950 . S
H158 C154 0.950 . S
C159 C157 1.390 1_565 S
C159 C160 1.387 . S
C159 H162 0.950 . S
C160 C159 1.387 . S
C160 C163 1.387 . S
H161 C157 0.950 . S
H162 C159 0.950 . S
C163 C154 1.390 1_565 S
C163 H156 0.950 . S
C163 C160 1.387 . S
C164 C165 1.387 . S
C164 H168 0.950 . S
C164 C173 1.390 1_654 S
C165 C164 1.387 . S
C165 C167 1.387 . S
H166 C173 0.950 . S
C167 C165 1.387 . S
C167 C169 1.390 1_654 S
C167 H171 0.950 . S
H168 C164 0.950 . S
C169 C167 1.390 1_456 S
C169 C170 1.387 . S
C169 H172 0.950 . S
C170 C169 1.387 . S
C170 C173 1.387 . S
H171 C167 0.950 . S
H172 C169 0.950 . S
C173 C164 1.390 1_456 S
C173 H166 0.950 . S
C173 C170 1.387 . S
C174 C175 1.387 . S
C174 H178 0.950 . S
C174 C183 1.390 1_545 S
C175 C174 1.387 . S
C175 C177 1.387 . S
H176 C183 0.950 . S
C177 C175 1.387 . S
C177 C179 1.390 1_545 S
C177 H181 0.950 . S
H178 C174 0.950 . S
C179 C177 1.390 1_565 S
C179 C180 1.387 . S
C179 H182 0.950 . S
C180 C179 1.387 . S
C180 C183 1.387 . S
H181 C177 0.950 . S
H182 C179 0.950 . S
C183 C174 1.390 1_565 S
C183 H176 0.950 . S
C183 C180 1.387 . S
C184 C185 1.387 . S
C184 H188 0.950 . S
C184 C193 1.390 . S
C185 C184 1.387 . S
C185 C187 1.387 . S
H186 C193 0.950 . S
C187 C185 1.387 . S
C187 C189 1.390 . S
C187 H191 0.950 . S
H188 C184 0.950 . S
C189 C187 1.390 . S
C189 C190 1.387 . S
C189 H192 0.950 . S
C190 C189 1.387 . S
C190 C193 1.387 . S
H191 C187 0.950 . S
H192 C189 0.950 . S
C193 C184 1.390 . S
C193 H186 0.950 . S
C193 C190 1.387 . S
C194 C195 1.387 . S
C194 H198 0.950 . S
C194 C203 1.390 . S
C195 C194 1.387 . S
C195 C197 1.387 . S
H196 C203 0.950 . S
C197 C195 1.387 . S
C197 C199 1.390 . S
C197 H201 0.950 . S
H198 C194 0.950 . S
C199 C197 1.390 . S
C199 C200 1.387 . S
C199 H202 0.950 . S
C200 C199 1.387 . S
C200 C203 1.387 . S
H201 C197 0.950 . S
H202 C199 0.950 . S
C203 C194 1.390 . S
C203 H196 0.950 . S
C203 C200 1.387 . S
C204 C205 1.387 . S
C204 H208 0.950 . S
C204 C213 1.390 . S
C205 C204 1.387 . S
C205 C207 1.387 . S
H206 C213 0.950 . S
C207 C205 1.387 . S
C207 C209 1.390 . S
C207 H211 0.950 . S
H208 C204 0.950 . S
C209 C207 1.390 . S
C209 C210 1.387 . S
C209 H212 0.950 . S
C210 C209 1.387 . S
C210 C213 1.387 . S
H211 C207 0.950 . S
H212 C209 0.950 . S
C213 C204 1.390 . S
C213 H206 0.950 . S
C213 C210 1.387 . S
C214 C215 1.387 . S
C214 H218 0.950 . S
C214 C223 1.390 . S
C215 C214 1.387 . S
C215 C217 1.387 . S
H216 C223 0.950 . S
C217 C215 1.387 . S
C217 C219 1.390 . S
C217 H221 0.950 . S
H218 C214 0.950 . S
C219 C217 1.390 . S
C219 C220 1.387 . S
C219 H222 0.950 . S
C220 C219 1.387 . S
C220 C223 1.387 . S
H221 C217 0.950 . S
H222 C219 0.950 . S
C223 C214 1.390 . S
C223 H216 0.950 . S
C223 C220 1.387 . S
C224 C225 1.388 . S
C224 H228 0.950 . S
C224 C233 1.390 1_445 S
C225 C224 1.388 . S
C225 C227 1.388 . S
H226 C233 0.950 . S
C227 C225 1.388 . S
C227 C229 1.390 1_445 S
C227 H231 0.950 . S
H228 C224 0.950 . S
C229 C227 1.390 1_665 S
C229 C230 1.388 . S
C229 H232 0.950 . S
C230 C229 1.388 . S
C230 C233 1.388 . S
H231 C227 0.950 . S
H232 C229 0.950 . S
C233 C224 1.390 1_665 S
C233 H226 0.950 . S
C233 C230 1.388 . S
C234 C235 1.387 . S
C234 H238 0.950 . S
C234 C243 1.390 1_465 S
C235 C234 1.387 . S
C235 C237 1.387 . S
H236 C243 0.950 . S
C237 C235 1.387 . S
C237 C239 1.390 1_465 S
C237 H241 0.950 . S
H238 C234 0.950 . S
C239 C237 1.390 1_645 S
C239 C240 1.387 . S
C239 H242 0.950 . S
C240 C239 1.387 . S
C240 C243 1.387 . S
H241 C237 0.950 . S
H242 C239 0.950 . S
C243 C234 1.390 1_645 S
C243 H236 0.950 . S
C243 C240 1.387 . S
C244 C245 1.387 . S
C244 H248 0.950 . S
C244 C253 1.390 1_645 S
C245 C244 1.387 . S
C245 C247 1.387 . S
H246 C253 0.950 . S
C247 C245 1.387 . S
C247 C249 1.390 1_645 S
C247 H251 0.950 . S
H248 C244 0.950 . S
C249 C247 1.390 1_465 S
C249 C250 1.387 . S
C249 H252 0.950 . S
C250 C249 1.387 . S
C250 C253 1.387 . S
H251 C247 0.950 . S
H252 C249 0.950 . S
C253 C244 1.390 1_465 S
C253 H246 0.950 . S
C253 C250 1.387 . S
C254 C255 1.388 . S
C254 H258 0.950 . S
C254 C263 1.390 1_665 S
C255 C254 1.388 . S
C255 C257 1.388 . S
H256 C263 0.950 . S
C257 C255 1.388 . S
C257 C259 1.390 1_665 S
C257 H261 0.950 . S
H258 C254 0.950 . S
C259 C257 1.390 1_445 S
C259 C260 1.388 . S
C259 H262 0.950 . S
C260 C259 1.388 . S
C260 C263 1.388 . S
H261 C257 0.950 . S
H262 C259 0.950 . S
C263 C254 1.390 1_445 S
C263 H256 0.950 . S
C263 C260 1.388 . S
C105 C4 1.385 . S
C110 C30 1.385 . S
C115 C49 1.385 . S
C120 C17 1.385 . S
C125 C82 1.385 . S
C130 C56 1.385 . S
C135 C69 1.386 . S
C140 C95 1.386 . S
C145 C88 1.675 . S
C150 C10 1.675 . S
C155 C23 1.675 . S
C160 C101 1.675 . S
C165 C36 1.675 . S
C170 C62 1.675 . S
C175 C75 1.675 . S
C180 C43 1.675 . S
C185 C3 1.474 . S
C190 C68 1.472 . S
C195 C81 1.471 . S
C200 C16 1.472 . S
C205 C94 1.472 . S
C210 C29 1.474 . S
C215 C44 1.474 . S
C220 C55 1.472 . S
C225 C5 1.281 . S
C230 C31 1.281 . S
C235 C42 1.278 . S
C240 C18 1.278 . S
C245 C83 1.278 . S
C250 C57 1.278 . S
C255 C96 1.281 . S
C260 C70 1.281 . S
