# Generated by pormake.
# Topology rob, (6)-cn, num edge types: 1
# Building blocks:
#     Node 0, Type 0, BuildingBlock: KUMBOL_clean_sbu_0, # of connection points: 6
#     Node 1, Type 0, BuildingBlock: KUMBOL_clean_sbu_0, # of connection points: 6
#     Node 2, Type 0, BuildingBlock: KUMBOL_clean_sbu_0, # of connection points: 6
#     Node 3, Type 0, BuildingBlock: KUMBOL_clean_sbu_0, # of connection points: 6
#     Edge 4, Type (0, 0), BuildingBlock: AJUNOK_clean_linker_0, # of connection points: 2
#     Edge 5, Type (0, 0), BuildingBlock: AJUNOK_clean_linker_0, # of connection points: 2
#     Edge 6, Type (0, 0), BuildingBlock: AJUNOK_clean_linker_0, # of connection points: 2
#     Edge 7, Type (0, 0), BuildingBlock: AJUNOK_clean_linker_0, # of connection points: 2
#     Edge 8, Type (0, 0), BuildingBlock: AJUNOK_clean_linker_0, # of connection points: 2
#     Edge 9, Type (0, 0), BuildingBlock: AJUNOK_clean_linker_0, # of connection points: 2
#     Edge 10, Type (0, 0), BuildingBlock: AJUNOK_clean_linker_0, # of connection points: 2
#     Edge 11, Type (0, 0), BuildingBlock: AJUNOK_clean_linker_0, # of connection points: 2
#     Edge 12, Type (0, 0), BuildingBlock: AJUNOK_clean_linker_0, # of connection points: 2
#     Edge 13, Type (0, 0), BuildingBlock: AJUNOK_clean_linker_0, # of connection points: 2
#     Edge 14, Type (0, 0), BuildingBlock: AJUNOK_clean_linker_0, # of connection points: 2
#     Edge 15, Type (0, 0), BuildingBlock: AJUNOK_clean_linker_0, # of connection points: 2
# Relax obj value: 0.040
# Max RMSD: 0.176
# Mean RMSD: 0.176
data_MOF--net-rob--node1-KUMBOL_clean_sbu_0--edge1-AJUNOK_clean_linker_0
_symmetry_space_group_name_H-M    P1
_symmetry_Int_Tables_number       1
_symmetry_cell_setting            triclinic
loop_
_symmetry_equiv_pos_as_xyz
'x, y, z'
_cell_length_a     12.897119
_cell_length_b     18.659304
_cell_length_c     27.476211
_cell_angle_alpha  119.15534
_cell_angle_beta   89.529293
_cell_angle_gamma 90.368035
loop_
_atom_site_label
_atom_site_type_symbol
_atom_site_fract_x
_atom_site_fract_y
_atom_site_fract_z
_atom_type_partial_charge
Gd0 Gd 0.34545 0.18552 0.96514 0.0
Gd1 Gd 0.13652 0.31252 0.05627 0.0
C2 C 0.80561 0.32104 1.00233 0.0
C3 C 0.77467 0.46589 0.04991 0.0
C4 C 0.93899 0.41624 0.06111 0.0
C5 C 0.90694 0.33629 0.02465 0.0
C6 C 0.87481 0.48135 0.07185 0.0
C7 C 0.7384 0.38648 0.01672 0.0
C8 C 0.77639 0.24123 0.96376 0.0
C9 C 0.84777 0.17838 0.94737 0.0
N10 N 0.97711 0.27483 1.00698 0.0
C11 C 0.94755 0.19615 0.96923 0.0
H12 H 0.9995 0.14524 0.95449 0.0
C13 C 0.07238 0.50945 0.11328 0.0
N14 N 0.03718 0.43081 0.07976 0.0
C15 C 0.02163 0.58457 0.11817 0.0
C16 C 0.91447 0.56109 0.09856 0.0
H17 H 0.14562 0.51278 0.13325 0.0
H18 H 0.66099 0.37676 0.99953 0.0
H19 H 0.52243 0.3121 0.06015 0.0
H20 H 0.69936 0.22765 0.94598 0.0
H21 H 0.82625 0.11599 0.91766 0.0
H22 H 0.72849 0.5159 0.05524 0.0
H23 H 0.26237 0.98777 0.88675 0.0
H24 H 0.7686 0.16657 0.06558 0.0
H25 H 0.68844 0.30185 0.09707 0.0
H26 H 0.657 0.89198 0.94597 0.0
H27 H 0.10277 0.72763 0.16352 0.0
H28 H 0.855 0.60345 0.10277 0.0
H29 H 0.75529 0.01574 0.00928 0.0
H30 H 0.32167 0.84893 0.86264 0.0
N31 N 0.50097 0.18241 0.00871 0.0
C32 C 0.69394 0.17037 0.04916 0.0
C33 C 0.64862 0.24662 0.0674 0.0
C34 C 0.6419 0.09984 0.01033 0.0
C35 C 0.5442 0.1077 0.99069 0.0
C36 C 0.55278 0.2517 0.04613 0.0
N37 N 0.39557 0.04826 0.9358 0.0
C38 C 0.48906 0.03864 0.9542 0.0
C39 C 0.36907 0.90189 0.88861 0.0
C40 C 0.46578 0.89162 0.90665 0.0
C41 C 0.33591 0.9808 0.90251 0.0
C42 C 0.52783 0.95996 0.9389 0.0
H43 H 0.49275 0.83056 0.89475 0.0
O44 O 0.34926 0.17079 0.8813 0.0
O45 O 0.19803 0.24891 0.96859 0.0
O46 O 0.10454 0.1816 0.03023 0.0
O47 O 0.2503 0.10188 0.9884 0.0
O48 O 0.21504 0.1298 0.90406 0.0
O49 O 0.47968 0.22465 0.9335 0.0
O50 O 0.08776 0.37841 0.14199 0.0
O51 O 0.28509 0.25285 0.05356 0.0
O52 O 0.38962 0.31772 0.00772 0.0
O53 O 0.23941 0.39567 0.0326 0.0
O54 O 0.26901 0.37149 0.11621 0.0
O55 O 0.05616 0.24786 0.09419 0.0
C56 C 0.15698 0.19441 0.92309 0.0
C57 C 0.62612 0.95185 0.95717 0.0
C58 C 0.68269 0.02184 0.99278 0.0
C59 C 0.438 0.20641 0.88595 0.0
C60 C 0.50557 0.17123 0.83545 0.0
C61 C 0.50779 0.08704 0.80261 0.0
C62 C 0.55471 0.2179 0.81387 0.0
C63 C 0.61414 0.17658 0.7638 0.0
C64 C 0.58171 0.04805 0.76073 0.0
C65 C 0.64095 0.09442 0.74416 0.0
C66 C 0.15444 0.11192 0.00868 0.0
C67 C 0.32719 0.30729 0.09844 0.0
C68 C 0.04761 0.3138 0.14204 0.0
C69 C 0.05507 0.30814 0.1936 0.0
C70 C 0.115 0.36768 0.23653 0.0
C71 C 0.98007 0.26423 0.20729 0.0
C72 C 0.94825 0.29765 0.26363 0.0
C73 C 0.07636 0.40351 0.29027 0.0
C74 C 0.98403 0.3756 0.30081 0.0
C75 C 0.33927 0.38317 0.0157 0.0
H76 H 0.44389 0.05512 0.80707 0.0
H77 H 0.53762 0.2827 0.8319 0.0
H78 H 0.5874 0.98203 0.7376 0.0
H79 H 0.69268 0.063 0.70871 0.0
H80 H 0.17959 0.39728 0.22788 0.0
H81 H 0.94246 0.20991 0.17507 0.0
H82 H 0.11174 0.45871 0.32174 0.0
H83 H 0.94353 0.41193 0.33882 0.0
Gd84 Gd 0.86652 0.66757 0.95526 0.0
Gd85 Gd 0.6638 0.80041 0.04592 0.0
C86 C 0.3629 0.87565 0.9979 0.0
C87 C 0.368 0.02374 0.05396 0.0
C88 C 0.51187 0.94183 0.05573 0.0
C89 C 0.46188 0.87109 0.0176 0.0
C90 C 0.46714 0.01922 0.07257 0.0
C91 C 0.3158 0.95181 0.01727 0.0
C92 C 0.31818 0.80469 0.95514 0.0
C93 C 0.37293 0.7317 0.9325 0.0
N94 N 0.51233 0.79858 0.99718 0.0
C95 C 0.46796 0.72901 0.95548 0.0
H96 H 0.50321 0.66969 0.93936 0.0
C97 C 0.65835 0.0045 0.11182 0.0
N98 N 0.60671 0.93531 0.07388 0.0
C99 C 0.6202 0.08253 0.12677 0.0
C100 C 0.52456 0.08978 0.10639 0.0
H101 H 0.73055 -0.00065 0.12964 0.0
H102 H 0.24262 0.95475 1.00019 0.0
H103 H 0.99127 0.83011 0.06158 0.0
H104 H 0.24325 0.80622 0.93808 0.0
H105 H 0.34009 0.67646 0.8987 0.0
H106 H 0.33289 0.08252 0.06631 0.0
H107 H 0.81696 0.4726 0.9182 0.0
H108 H 0.30638 0.7725 0.0557 0.0
H109 H 0.16425 0.8708 0.09466 0.0
H110 H 0.33971 0.49782 0.92113 0.0
H111 H 0.66325 0.13696 0.1549 0.0
H112 H 0.49492 0.14999 0.11783 0.0
H113 H 0.36874 0.63795 0.99105 0.0
H114 H 0.89864 0.33986 0.91096 0.0
N115 N 0.02673 0.70519 1.00182 0.0
C116 C 0.22865 0.75311 0.03973 0.0
C117 C 0.14896 0.80865 0.06218 0.0
C118 C 0.20827 0.67343 0.99721 0.0
C119 C 0.10443 0.64922 0.97786 0.0
C120 C 0.04919 0.784 0.04267 0.0
N121 N 0.96361 0.54754 0.93769 0.0
C122 C 0.07823 0.56586 0.94193 0.0
C123 C 0.94596 0.39303 0.91851 0.0
C124 C 0.1644 0.41879 0.91913 0.0
C125 C 0.89851 0.47457 0.92636 0.0
C126 C 0.17558 0.50711 0.92854 0.0
H127 H 0.23097 0.37976 0.9142 0.0
O128 O 0.89961 0.59529 0.86615 0.0
O129 O 0.72913 0.74035 0.95765 0.0
O130 O 0.60147 0.67324 0.01011 0.0
O131 O 0.7494 0.59245 0.98067 0.0
O132 O 0.73422 0.61807 0.89553 0.0
O133 O 0.9646 0.71944 0.91458 0.0
O134 O 0.6326 0.86655 0.13297 0.0
O135 O 0.80013 0.72201 0.04198 0.0
O136 O 0.90268 0.80036 0.98086 0.0
O137 O 0.7683 0.88744 0.03186 0.0
O138 O 0.79891 0.84048 0.1049 0.0
O139 O 0.5493 0.75177 0.08494 0.0
C140 C 0.68705 0.68719 0.91203 0.0
C141 C 0.27463 0.53831 0.93749 0.0
C142 C 0.2907 0.61889 0.97591 0.0
C143 C 0.95541 0.65431 0.86592 0.0
C144 C 0.00651 0.64662 0.81449 0.0
C145 C 0.99214 0.57428 0.76506 0.0
C146 C 0.07613 0.70395 0.81184 0.0
C147 C 0.13784 0.67775 0.76279 0.0
C148 C 0.07526 0.54116 0.72777 0.0
C149 C 0.1562 0.59295 0.73112 0.0
C150 C 0.64781 0.60313 0.9944 0.0
C151 C 0.84496 0.77104 0.08739 0.0
C152 C 0.56801 0.81354 0.13397 0.0
C153 C 0.52115 0.83041 0.18857 0.0
C154 C 0.55225 0.90315 0.23525 0.0
C155 C 0.44972 0.77968 0.19777 0.0
C156 C 0.40245 0.81046 0.2513 0.0
C157 C 0.4892 0.93938 0.28216 0.0
C158 C 0.40696 0.8951 0.28671 0.0
C159 C 0.86118 0.87398 0.00853 0.0
H160 H 0.91703 0.54584 0.75569 0.0
H161 H 0.07626 0.76758 0.84425 0.0
H162 H 0.07007 0.48024 0.69211 0.0
H163 H 0.21043 0.56988 0.69651 0.0
H164 H 0.62122 0.93433 0.23327 0.0
H165 H 0.42957 0.71971 0.16463 0.0
H166 H 0.50479 0.00069 0.31544 0.0
H167 H 0.3557 0.92413 0.32195 0.0
Gd168 Gd 0.34317 0.82001 0.55901 0.0
Gd169 Gd 0.1599 0.68949 0.46014 0.0
C170 C 0.82549 0.64916 0.49203 0.0
C171 C 0.81638 0.50098 0.44911 0.0
C172 C 0.9804 0.56822 0.45338 0.0
C173 C 0.93185 0.64362 0.47826 0.0
C174 C 0.92477 0.49751 0.44365 0.0
C175 C 0.76636 0.57704 0.47275 0.0
C176 C 0.78592 0.72522 0.53184 0.0
C177 C 0.84966 0.79424 0.55366 0.0
N178 N 0.99264 0.71144 0.49911 0.0
C179 C 0.95225 0.78671 0.53552 0.0
H180 H 0.99886 0.84136 0.55309 0.0
C181 C 0.13486 0.49171 0.42189 0.0
N182 N 0.0842 0.56551 0.44507 0.0
C183 C 0.08449 0.42163 0.41578 0.0
C184 C 0.98065 0.42661 0.43089 0.0
H185 H 0.21337 0.48497 0.40639 0.0
H186 H 0.68501 0.58029 0.48319 0.0
H187 H 0.46295 0.65023 0.46526 0.0
H188 H 0.70688 0.73098 0.54694 0.0
H189 H 0.81963 0.85344 0.58424 0.0
H190 H 0.7721 0.4471 0.44061 0.0
H191 H 0.3942 0.07121 0.62316 0.0
H192 H 0.7389 0.70658 0.41153 0.0
H193 H 0.61469 0.60538 0.40907 0.0
H194 H 0.78876 0.98413 0.52341 0.0
H195 H 0.12504 0.3637 0.39844 0.0
H196 H 0.9439 0.37471 0.43008 0.0
H197 H 0.80574 0.84253 0.45803 0.0
H198 H 0.38571 0.17831 0.64981 0.0
N199 N 0.49255 0.77794 0.50347 0.0
C200 C 0.6711 0.72744 0.43848 0.0
C201 C 0.60268 0.67014 0.4374 0.0
C202 C 0.65675 0.80992 0.47753 0.0
C203 C 0.56515 0.83578 0.51173 0.0
C204 C 0.51579 0.69647 0.47105 0.0
N205 N 0.44139 0.94081 0.57902 0.0
C206 C 0.54727 0.91959 0.5518 0.0
C207 C 0.42326 0.10911 0.626 0.0
C208 C 0.62561 0.06914 0.57648 0.0
C209 C 0.37899 0.01685 0.61332 0.0
C210 C 0.63811 0.97675 0.55199 0.0
H211 H 0.68787 0.10683 0.57352 0.0
O212 O 0.40162 0.89148 0.6425 0.0
O213 O 0.20092 0.74636 0.55174 0.0
O214 O 0.12075 0.81951 0.48129 0.0
O215 O 0.23012 0.9114 0.55102 0.0
O216 O 0.20178 0.86614 0.61457 0.0
O217 O 0.44935 0.76427 0.59327 0.0
O218 O 0.14351 0.61259 0.37054 0.0
O219 O 0.29551 0.76784 0.4675 0.0
O220 O 0.34216 0.69832 0.55804 0.0
O221 O 0.28088 0.60815 0.47145 0.0
O222 O 0.30161 0.64401 0.40742 0.0
O223 O 0.06822 0.73116 0.4127 0.0
C224 C 0.15286 0.79656 0.59653 0.0
C225 C 0.72756 0.94466 0.52135 0.0
C226 C 0.73576 0.86361 0.48328 0.0
C227 C 0.4543 0.83072 0.64131 0.0
C228 C 0.46057 0.82505 0.69358 0.0
C229 C 0.42494 0.89322 0.74217 0.0
C230 C 0.52133 0.76554 0.69957 0.0
C231 C 0.55521 0.78432 0.75388 0.0
C232 C 0.47099 0.91343 0.79242 0.0
C233 C 0.54419 0.86429 0.79608 0.0
C234 C 0.15039 0.89517 0.51604 0.0
C235 C 0.33974 0.71555 0.42164 0.0
C236 C 0.08892 0.66684 0.36516 0.0
C237 C 0.01406 0.64059 0.31929 0.0
C238 C 0.01336 0.55951 0.27638 0.0
C239 C 0.95945 0.69868 0.31107 0.0
C240 C 0.90052 0.67289 0.26258 0.0
C241 C 0.93974 0.53203 0.23439 0.0
C242 C 0.87916 0.58897 0.22909 0.0
C243 C 0.33517 0.62352 0.51621 0.0
H244 H 0.37344 0.93759 0.74067 0.0
H245 H 0.54723 0.71003 0.66341 0.0
H246 H 0.45598 0.96938 0.82936 0.0
H247 H 0.58793 0.88749 0.83401 0.0
H248 H 0.07543 0.52045 0.27308 0.0
H249 H 0.97316 0.76318 0.33816 0.0
H250 H 0.93593 0.46805 0.20313 0.0
H251 H 0.83009 0.56781 0.19287 0.0
Gd252 Gd 0.83203 0.33667 0.57202 0.0
Gd253 Gd 0.65173 0.20073 0.46843 0.0
C254 C 0.31814 0.14023 0.48899 0.0
C255 C 0.31643 0.9925 0.43192 0.0
C256 C 0.4743 0.06906 0.43989 0.0
C257 C 0.42264 0.14198 0.47393 0.0
C258 C 0.42273 0.99343 0.42092 0.0
C259 C 0.26401 0.06592 0.46516 0.0
C260 C 0.27402 0.21143 0.53194 0.0
C261 C 0.33222 0.2832 0.55764 0.0
N262 N 0.47979 0.21169 0.50096 0.0
C263 C 0.43486 0.28261 0.54128 0.0
H264 H 0.47744 0.33916 0.56308 0.0
C265 C 0.63535 0.00069 0.40829 0.0
N266 N 0.5788 0.07132 0.43581 0.0
C267 C 0.58866 0.9249 0.39155 0.0
C268 C 0.48257 0.92192 0.39958 0.0
H269 H 0.7171 0.00265 0.40015 0.0
H270 H 0.18378 0.06474 0.476 0.0
H271 H 0.00658 0.20447 0.47916 0.0
H272 H 0.19542 0.2113 0.54616 0.0
H273 H 0.29837 0.33897 0.5905 0.0
H274 H 0.27648 0.93528 0.41866 0.0
H275 H 0.74514 0.51359 0.65682 0.0
H276 H 0.25755 0.33793 0.46458 0.0
H277 H 0.16895 0.20743 0.43693 0.0
H278 H 0.1723 0.61283 0.56799 0.0
H279 H 0.63425 0.86919 0.37301 0.0
H280 H 0.44807 0.86472 0.39058 0.0
H281 H 0.25251 0.48295 0.51209 0.0
H282 H 0.73122 0.66255 0.69126 0.0
N283 N 0.99163 0.33555 0.52952 0.0
C284 C 0.18375 0.33807 0.48383 0.0
C285 C 0.13376 0.26439 0.46756 0.0
C286 C 0.13669 0.41127 0.52279 0.0
C287 C 0.03999 0.40872 0.54642 0.0
C288 C 0.03963 0.2639 0.49211 0.0
N289 N 0.88975 0.47662 0.60839 0.0
C290 C 0.99132 0.48107 0.5846 0.0
C291 C 0.8018 0.63347 0.6707 0.0
C292 C 0.88614 0.6845 0.66017 0.0
C293 C 0.81176 0.53829 0.64614 0.0
C294 C 0.03813 0.56412 0.59266 0.0
H295 H 0.87916 0.75044 0.67554 0.0
O296 O 0.85104 0.38914 0.66147 0.0
O297 O 0.69334 0.25571 0.55929 0.0
O298 O 0.60255 0.33023 0.49971 0.0
O299 O 0.73731 0.41904 0.54865 0.0
O300 O 0.68477 0.37359 0.6231 0.0
O301 O 0.93949 0.27983 0.60563 0.0
O302 O 0.64128 0.13447 0.37936 0.0
O303 O 0.7898 0.27713 0.47962 0.0
O304 O 0.88809 0.20899 0.54204 0.0
O305 O 0.75754 0.11834 0.48956 0.0
O306 O 0.79863 0.15293 0.42146 0.0
O307 O 0.56923 0.25507 0.42305 0.0
C308 C 0.6407 0.3027 0.60292 0.0
C309 C 0.13413 0.56031 0.56594 0.0
C310 C 0.18228 0.48525 0.53381 0.0
C311 C 0.91365 0.33119 0.65673 0.0
C312 C 0.96005 0.33216 0.70668 0.0
C313 C 0.97304 0.4084 0.7529 0.0
C314 C 0.01583 0.26743 0.70754 0.0
C315 C 0.09397 0.28861 0.74859 0.0
C316 C 0.07107 0.42931 0.7773 0.0
C317 C 0.13916 0.36638 0.7682 0.0
C318 C 0.64507 0.40329 0.5243 0.0
C319 C 0.83965 0.22365 0.43673 0.0
C320 C 0.58925 0.19094 0.37531 0.0
C321 C 0.55623 0.17749 0.31949 0.0
C322 C 0.57791 0.10011 0.27482 0.0
C323 C 0.49712 0.23272 0.30871 0.0
C324 C 0.44749 0.20223 0.25592 0.0
C325 C 0.51781 0.06786 0.22729 0.0
C326 C 0.44739 0.11704 0.22012 0.0
C327 C 0.84987 0.13466 0.51494 0.0
H328 H 0.90803 0.44902 0.76844 0.0
H329 H 0.993 0.20442 0.68199 0.0
H330 H 0.08889 0.49136 0.80904 0.0
H331 H 0.20813 0.38266 0.79377 0.0
H332 H 0.63648 0.06262 0.27894 0.0
H333 H 0.48889 0.29645 0.34027 0.0
H334 H 0.52655 0.00507 0.19493 0.0
H335 H 0.40115 0.08889 0.18275 0.0
C336 C 0.53306 0.47411 0.9526 0.0
C337 C 0.57864 0.54062 0.99936 0.0
C338 C 0.45196 0.4265 0.95845 0.0
C339 C 0.40835 0.44509 0.01086 0.0
H340 H 0.55833 0.45972 0.91115 0.0
H341 H 0.42152 0.37519 0.92105 0.0
S342 S 0.53285 0.58436 0.14409 0.0
N343 N 0.58929 0.60863 0.10002 0.0
N344 N 0.44449 0.51455 0.10891 0.0
C345 C 0.46022 0.50559 0.05741 0.0
C346 C 0.54126 0.55522 0.05206 0.0
C347 C 0.46742 0.50908 0.46979 0.0
C348 C 0.41023 0.56328 0.51736 0.0
C349 C 0.54914 0.4621 0.47345 0.0
C350 C 0.57812 0.46796 0.52474 0.0
H351 H 0.45029 0.50385 0.42966 0.0
H352 H 0.58883 0.41952 0.43544 0.0
S353 S 0.42641 0.57444 0.65546 0.0
N354 N 0.37183 0.60369 0.61388 0.0
N355 N 0.52501 0.51556 0.62024 0.0
C356 C 0.5161 0.5166 0.57137 0.0
C357 C 0.43264 0.56415 0.56778 0.0
C358 C 0.02335 0.00082 0.96262 0.0
C359 C 0.09115 0.04423 1.00732 0.0
C360 C 0.94248 0.95285 0.96628 0.0
C361 C 0.92765 0.94274 0.01313 0.0
H362 H 0.02975 0.00672 0.9254 0.0
H363 H 0.88772 0.92627 0.93331 0.0
S364 S 0.0784 0.04875 0.14359 0.0
N365 N 0.13233 0.07969 0.10238 0.0
N366 N 0.983 0.98637 0.10767 0.0
C367 C 0.99257 0.98786 0.05894 0.0
C368 C 0.07362 0.03879 0.0561 0.0
C369 C 0.95785 0.07601 0.56394 0.0
C370 C 0.92137 0.07004 0.51364 0.0
C371 C 0.03578 0.02335 0.56529 0.0
C372 C 0.08099 0.96106 0.51594 0.0
H373 H 0.92258 0.12069 0.60253 0.0
H374 H 0.05774 0.02958 0.60514 0.0
S375 S 0.02221 0.92662 0.37329 0.0
N376 N 0.94433 0.00237 0.41393 0.0
N377 N 0.0835 0.90062 0.41488 0.0
C378 C 0.04391 0.95471 0.4653 0.0
C379 C 0.96679 0.00977 0.46439 0.0
C380 C 0.31367 0.2242 0.19956 0.0
C381 C 0.4049 0.25245 0.23145 0.0
C382 C 0.29424 0.23922 0.15526 0.0
C383 C 0.36007 0.28803 0.14272 0.0
H384 H 0.26133 0.18349 0.20557 0.0
H385 H 0.22625 0.21244 0.13037 0.0
S386 S 0.59303 0.39813 0.22355 0.0
N387 N 0.55487 0.34236 0.2523 0.0
N388 N 0.50825 0.38054 0.17409 0.0
C389 C 0.44377 0.32664 0.17905 0.0
C390 C 0.46792 0.30712 0.22243 0.0
C391 C 0.28413 0.78245 0.31292 0.0
C392 C 0.37431 0.7612 0.27949 0.0
C393 C 0.27658 0.76976 0.35934 0.0
C394 C 0.35403 0.73008 0.37277 0.0
H395 H 0.22373 0.81742 0.30693 0.0
H396 H 0.21109 0.7939 0.38637 0.0
S397 S 0.59719 0.64649 0.29274 0.0
N398 N 0.54365 0.69679 0.26395 0.0
N399 N 0.5132 0.65206 0.34006 0.0
C400 C 0.43714 0.6973 0.33473 0.0
C401 C 0.45103 0.71776 0.29091 0.0
C402 C 0.56774 0.6684 0.83347 0.0
C403 C 0.65673 0.70495 0.86612 0.0
C404 C 0.53843 0.68457 0.79019 0.0
C405 C 0.60284 0.73015 0.77345 0.0
H406 H 0.51733 0.63038 0.84305 0.0
H407 H 0.46144 0.66683 0.77307 0.0
S408 S 0.85941 0.81523 0.83101 0.0
N409 N 0.81607 0.77862 0.87139 0.0
N410 N 0.76853 0.79614 0.78493 0.0
C411 C 0.69908 0.75513 0.79982 0.0
C412 C 0.72423 0.74593 0.84709 0.0
C413 C 0.64491 0.3201 0.70086 0.0
C414 C 0.60741 0.27686 0.64543 0.0
C415 C 0.64476 0.28831 0.73843 0.0
C416 C 0.6183 0.20646 0.72289 0.0
H417 H 0.67832 0.38059 0.71592 0.0
H418 H 0.6719 0.32821 0.78043 0.0
S419 S 0.4695 0.03778 0.53584 0.0
N420 N 0.50588 0.15536 0.57132 0.0
N421 N 0.55322 0.0587 0.63889 0.0
C422 C 0.58201 0.15621 0.66865 0.0
C423 C 0.5574 0.20249 0.6298 0.0
C424 C 0.80364 0.7702 0.17736 0.0
C425 C 0.87355 0.74983 0.13197 0.0
C426 C 0.81478 0.75191 0.22186 0.0
C427 C 0.90477 0.7201 0.23292 0.0
H428 H 0.7321 0.79867 0.17767 0.0
H429 H 0.74775 0.76193 0.24845 0.0
S430 S 0.1937 0.63357 0.11957 0.0
N431 N 0.065 0.67518 0.08957 0.0
N432 N 0.10552 0.66358 0.1969 0.0
C433 C 0.98795 0.70567 0.19787 0.0
C434 C 0.96626 0.71414 0.13513 0.0
C435 C 0.79381 0.27924 0.37225 0.0
C436 C 0.86176 0.23454 0.38729 0.0
C437 C 0.81132 0.28754 0.32458 0.0
C438 C 0.89912 0.25272 0.29027 0.0
H439 H 0.72924 0.3115 0.399 0.0
H440 H 0.76199 0.32875 0.31793 0.0
S441 S 0.09029 0.11708 0.30539 0.0
N442 N 0.00845 0.14177 0.3577 0.0
N443 N 0.04831 0.16442 0.27188 0.0
C444 C 0.96212 0.20176 0.30209 0.0
C445 C 0.94209 0.19121 0.34964 0.0
C446 C 0.10787 0.18174 0.78043 0.0
C447 C 0.08485 0.2622 0.79174 0.0
C448 C 0.12029 0.15908 0.82262 0.0
C449 C 0.111 0.21425 0.88075 0.0
H450 H 0.1234 0.13554 0.73768 0.0
H451 H 0.14519 0.09676 0.80899 0.0
S452 S 0.04934 0.47468 0.98933 0.0
N453 N 0.04533 0.41799 0.87079 0.0
N454 N 0.07331 0.35681 0.96081 0.0
C455 C 0.0789 0.29331 0.89725 0.0
C456 C 0.06477 0.32108 0.84743 0.0
C457 C 0.18128 0.81064 0.69217 0.0
C458 C 0.12506 0.7732 0.6413 0.0
C459 C 0.18174 0.78377 0.73251 0.0
C460 C 0.12395 0.71629 0.72688 0.0
H461 H 0.23058 0.86204 0.70057 0.0
H462 H 0.23238 0.8151 0.76811 0.0
S463 S 0.87718 0.58404 0.57162 0.0
N464 N 0.9763 0.67363 0.58443 0.0
N465 N 0.97943 0.60555 0.6707 0.0
C466 C 0.05816 0.678 0.68121 0.0
C467 C 0.05324 0.71168 0.63446 0.0
loop_
_geom_bond_atom_site_label_1
_geom_bond_atom_site_label_2
_geom_bond_distance
_geom_bond_site_symmetry_2
_ccdc_geom_bond_type
Gd0 N31 2.661 . S
Gd0 N37 2.601 . S
Gd0 O44 2.545 . S
Gd0 O45 2.606 . S
Gd0 O47 2.429 . S
Gd0 O48 2.545 . S
Gd0 O49 2.412 . S
Gd0 O51 2.362 1_556 S
Gd0 O52 2.324 . S
Gd0 C59 2.828 . S
Gd1 N10 2.661 1_455 S
Gd1 N14 2.601 . S
Gd1 O45 2.362 1_554 S
Gd1 O46 2.324 . S
Gd1 O50 2.545 . S
Gd1 O51 2.606 . S
Gd1 O53 2.429 . S
Gd1 O54 2.545 . S
Gd1 O55 2.412 . S
Gd1 C68 2.828 . S
C2 C5 1.417 1_556 S
C2 C7 1.431 1_556 S
C2 C8 1.412 . S
C3 C6 1.437 . S
C3 C7 1.317 . S
C3 H22 0.929 . S
C4 C5 1.426 . S
C4 C6 1.413 . S
C4 N14 1.359 1_655 S
C5 C2 1.417 1_554 S
C5 C4 1.426 . S
C5 N10 1.350 . S
C6 C3 1.437 . S
C6 C4 1.413 . S
C6 C16 1.391 . S
C7 C2 1.431 1_554 S
C7 C3 1.317 . S
C7 H18 0.930 1_554 S
C8 C2 1.412 . S
C8 C9 1.355 . S
C8 H20 0.930 . S
C9 C8 1.355 . S
C9 C11 1.402 . S
C9 H21 0.930 . S
N10 Gd1 2.661 1_655 S
N10 C5 1.350 . S
N10 C11 1.307 1_554 S
C11 C9 1.402 . S
C11 N10 1.307 1_556 S
C11 H12 0.930 . S
H12 C11 0.930 . S
C13 N14 1.334 . S
C13 C15 1.394 . S
C13 H17 0.930 . S
N14 Gd1 2.601 . S
N14 C4 1.359 1_455 S
N14 C13 1.334 . S
C15 C13 1.394 . S
C15 C16 1.359 1_455 S
C15 H27 0.930 . S
C16 C6 1.391 . S
C16 C15 1.359 1_655 S
C16 H28 0.929 . S
H17 C13 0.930 . S
H18 C7 0.930 1_556 S
H19 C36 0.930 . S
H20 C8 0.930 . S
H21 C9 0.930 . S
H22 C3 0.929 . S
H23 C41 0.930 . S
H24 C32 0.930 . S
H25 C33 0.930 . S
H26 C57 0.929 . S
H27 C15 0.930 . S
H28 C16 0.929 . S
H29 C58 0.930 1_554 S
H30 C39 0.930 . S
N31 Gd0 2.661 . S
N31 C35 1.350 . S
N31 C36 1.307 1_556 S
C32 H24 0.930 . S
C32 C33 1.355 . S
C32 C34 1.412 . S
C33 H25 0.930 . S
C33 C32 1.355 . S
C33 C36 1.402 . S
C34 C32 1.412 . S
C34 C35 1.417 1_554 S
C34 C58 1.431 1_554 S
C35 N31 1.350 . S
C35 C34 1.417 1_556 S
C35 C38 1.426 . S
C36 H19 0.930 . S
C36 N31 1.307 1_554 S
C36 C33 1.402 . S
N37 Gd0 2.601 . S
N37 C38 1.359 . S
N37 C41 1.334 1_545 S
C38 C35 1.426 . S
C38 N37 1.359 . S
C38 C42 1.413 1_545 S
C39 H30 0.930 . S
C39 C40 1.359 . S
C39 C41 1.394 . S
C40 C39 1.359 . S
C40 C42 1.391 . S
C40 H43 0.929 . S
C41 H23 0.930 . S
C41 N37 1.334 1_565 S
C41 C39 1.394 . S
C42 C38 1.413 1_565 S
C42 C40 1.391 . S
C42 C57 1.437 . S
H43 C40 0.929 . S
O44 Gd0 2.545 . S
O44 C59 1.258 . S
O45 Gd0 2.606 . S
O45 Gd1 2.362 1_556 S
O45 C56 1.284 . S
O46 Gd1 2.324 . S
O46 C66 1.254 1_554 S
O47 Gd0 2.429 . S
O47 C66 1.268 . S
O48 Gd0 2.545 . S
O48 C56 1.250 . S
O49 Gd0 2.412 . S
O49 C59 1.252 . S
O50 Gd1 2.545 . S
O50 C68 1.258 . S
O51 Gd0 2.362 1_554 S
O51 Gd1 2.606 . S
O51 C67 1.284 . S
O52 Gd0 2.324 . S
O52 C75 1.254 1_556 S
O53 Gd1 2.429 . S
O53 C75 1.268 . S
O54 Gd1 2.545 . S
O54 C67 1.250 . S
O55 Gd1 2.412 . S
O55 C68 1.252 . S
C56 O45 1.284 . S
C56 O48 1.250 . S
C57 H26 0.929 . S
C57 C42 1.437 . S
C57 C58 1.317 1_565 S
C58 H29 0.930 1_556 S
C58 C34 1.431 1_556 S
C58 C57 1.317 1_545 S
C59 Gd0 2.828 . S
C59 O44 1.258 . S
C59 O49 1.252 . S
C59 C60 1.497 . S
C60 C59 1.497 . S
C60 C61 1.395 1_545 S
C60 C62 1.380 . S
C61 C60 1.395 1_565 S
C61 C64 1.398 . S
C61 H76 0.930 . S
C62 C60 1.380 . S
C62 C63 1.391 . S
C62 H77 0.930 . S
C63 C62 1.391 . S
C63 C65 1.387 . S
C64 C61 1.398 . S
C64 C65 1.380 1_565 S
C64 H78 0.930 . S
C65 C63 1.387 . S
C65 C64 1.380 1_545 S
C65 H79 0.930 . S
C66 O46 1.254 1_556 S
C66 O47 1.268 . S
C67 O51 1.284 . S
C67 O54 1.250 . S
C68 Gd1 2.828 . S
C68 O50 1.258 . S
C68 O55 1.252 . S
C68 C69 1.497 . S
C69 C68 1.497 . S
C69 C70 1.395 1_455 S
C69 C71 1.380 1_455 S
C70 C69 1.395 1_655 S
C70 C73 1.398 . S
C70 H80 0.930 1_655 S
C71 C69 1.380 1_655 S
C71 C72 1.391 . S
C71 H81 0.930 . S
C72 C71 1.391 . S
C72 C74 1.387 . S
C73 C70 1.398 . S
C73 C74 1.380 . S
C73 H82 0.930 . S
C74 C72 1.387 . S
C74 C73 1.380 . S
C74 H83 0.930 . S
C75 O52 1.254 1_554 S
C75 O53 1.268 . S
H76 C61 0.930 . S
H77 C62 0.930 . S
H78 C64 0.930 . S
H79 C65 0.930 . S
H80 C70 0.930 1_455 S
H81 C71 0.930 . S
H82 C73 0.930 . S
H83 C74 0.930 . S
Gd84 N115 2.661 1_655 S
Gd84 N121 2.601 . S
Gd84 O128 2.545 . S
Gd84 O129 2.606 . S
Gd84 O131 2.429 . S
Gd84 O132 2.545 . S
Gd84 O133 2.412 . S
Gd84 O135 2.362 1_556 S
Gd84 O136 2.324 . S
Gd84 C143 2.828 . S
Gd85 N94 2.661 . S
Gd85 N98 2.601 . S
Gd85 O129 2.362 1_554 S
Gd85 O130 2.324 . S
Gd85 O134 2.545 . S
Gd85 O135 2.606 . S
Gd85 O137 2.429 . S
Gd85 O138 2.545 . S
Gd85 O139 2.412 . S
Gd85 C152 2.828 . S
C86 C89 1.417 1_556 S
C86 C91 1.431 1_556 S
C86 C92 1.412 . S
C87 C90 1.437 . S
C87 C91 1.317 1_545 S
C87 H106 0.929 . S
C88 C89 1.426 . S
C88 C90 1.413 1_565 S
C88 N98 1.359 . S
C89 C86 1.417 1_554 S
C89 C88 1.426 . S
C89 N94 1.350 . S
C90 C87 1.437 . S
C90 C88 1.413 1_545 S
C90 C100 1.391 . S
C91 C86 1.431 1_554 S
C91 C87 1.317 1_565 S
C91 H102 0.930 1_554 S
C92 C86 1.412 . S
C92 C93 1.355 . S
C92 H104 0.930 . S
C93 C92 1.355 . S
C93 C95 1.402 . S
C93 H105 0.930 . S
N94 Gd85 2.661 . S
N94 C89 1.350 . S
N94 C95 1.307 1_554 S
C95 C93 1.402 . S
C95 N94 1.307 1_556 S
C95 H96 0.930 . S
H96 C95 0.930 . S
C97 N98 1.334 1_545 S
C97 C99 1.394 . S
C97 H101 0.930 . S
N98 Gd85 2.601 . S
N98 C88 1.359 . S
N98 C97 1.334 1_565 S
C99 C97 1.394 . S
C99 C100 1.359 . S
C99 H111 0.930 . S
C100 C90 1.391 . S
C100 C99 1.359 . S
C100 H112 0.929 . S
H101 C97 0.930 . S
H102 C91 0.930 1_556 S
H103 C120 0.930 . S
H104 C92 0.930 . S
H105 C93 0.930 . S
H106 C87 0.929 . S
H107 C125 0.930 . S
H108 C116 0.930 . S
H109 C117 0.930 . S
H110 C141 0.929 . S
H111 C99 0.930 . S
H112 C100 0.929 . S
H113 C142 0.930 1_554 S
H114 C123 0.930 . S
N115 Gd84 2.661 1_455 S
N115 C119 1.350 . S
N115 C120 1.307 1_556 S
C116 H108 0.930 . S
C116 C117 1.355 . S
C116 C118 1.412 . S
C117 H109 0.930 . S
C117 C116 1.355 . S
C117 C120 1.402 . S
C118 C116 1.412 . S
C118 C119 1.417 1_554 S
C118 C142 1.431 1_554 S
C119 N115 1.350 . S
C119 C118 1.417 1_556 S
C119 C122 1.426 . S
C120 H103 0.930 . S
C120 N115 1.307 1_554 S
C120 C117 1.402 . S
N121 Gd84 2.601 . S
N121 C122 1.359 1_655 S
N121 C125 1.334 . S
C122 C119 1.426 . S
C122 N121 1.359 1_455 S
C122 C126 1.413 . S
C123 H114 0.930 . S
C123 C124 1.359 1_655 S
C123 C125 1.394 . S
C124 C123 1.359 1_455 S
C124 C126 1.391 . S
C124 H127 0.929 . S
C125 H107 0.930 . S
C125 N121 1.334 . S
C125 C123 1.394 . S
C126 C122 1.413 . S
C126 C124 1.391 . S
C126 C141 1.437 . S
H127 C124 0.929 . S
O128 Gd84 2.545 . S
O128 C143 1.258 . S
O129 Gd84 2.606 . S
O129 Gd85 2.362 1_556 S
O129 C140 1.284 . S
O130 Gd85 2.324 . S
O130 C150 1.254 1_554 S
O131 Gd84 2.429 . S
O131 C150 1.268 . S
O132 Gd84 2.545 . S
O132 C140 1.250 . S
O133 Gd84 2.412 . S
O133 C143 1.252 . S
O134 Gd85 2.545 . S
O134 C152 1.258 . S
O135 Gd84 2.362 1_554 S
O135 Gd85 2.606 . S
O135 C151 1.284 . S
O136 Gd84 2.324 . S
O136 C159 1.254 1_556 S
O137 Gd85 2.429 . S
O137 C159 1.268 . S
O138 Gd85 2.545 . S
O138 C151 1.250 . S
O139 Gd85 2.412 . S
O139 C152 1.252 . S
C140 O129 1.284 . S
C140 O132 1.250 . S
C141 H110 0.929 . S
C141 C126 1.437 . S
C141 C142 1.317 . S
C142 H113 0.930 1_556 S
C142 C118 1.431 1_556 S
C142 C141 1.317 . S
C143 Gd84 2.828 . S
C143 O128 1.258 . S
C143 O133 1.252 . S
C143 C144 1.497 . S
C144 C143 1.497 . S
C144 C145 1.395 1_655 S
C144 C146 1.380 1_655 S
C145 C144 1.395 1_455 S
C145 C148 1.398 . S
C145 H160 0.930 1_455 S
C146 C144 1.380 1_455 S
C146 C147 1.391 . S
C146 H161 0.930 . S
C147 C146 1.391 . S
C147 C149 1.387 . S
C148 C145 1.398 . S
C148 C149 1.380 . S
C148 H162 0.930 . S
C149 C147 1.387 . S
C149 C148 1.380 . S
C149 H163 0.930 . S
C150 O130 1.254 1_556 S
C150 O131 1.268 . S
C151 O135 1.284 . S
C151 O138 1.250 . S
C152 Gd85 2.828 . S
C152 O134 1.258 . S
C152 O139 1.252 . S
C152 C153 1.497 . S
C153 C152 1.497 . S
C153 C154 1.395 1_565 S
C153 C155 1.380 . S
C154 C153 1.395 1_545 S
C154 C157 1.398 . S
C154 H164 0.930 . S
C155 C153 1.380 . S
C155 C156 1.391 . S
C155 H165 0.930 . S
C156 C155 1.391 . S
C156 C158 1.387 . S
C157 C154 1.398 . S
C157 C158 1.380 1_545 S
C157 H166 0.930 . S
C158 C156 1.387 . S
C158 C157 1.380 1_565 S
C158 H167 0.930 . S
C159 O136 1.254 1_554 S
C159 O137 1.268 . S
H160 C145 0.930 1_655 S
H161 C146 0.930 . S
H162 C148 0.930 . S
H163 C149 0.930 . S
H164 C154 0.930 . S
H165 C155 0.930 . S
H166 C157 0.930 . S
H167 C158 0.930 . S
Gd168 N199 2.661 . S
Gd168 N205 2.601 . S
Gd168 O212 2.545 . S
Gd168 O213 2.606 . S
Gd168 O215 2.429 . S
Gd168 O216 2.545 . S
Gd168 O217 2.412 . S
Gd168 O219 2.362 . S
Gd168 O220 2.324 . S
Gd168 C227 2.828 . S
Gd169 N178 2.661 1_455 S
Gd169 N182 2.601 . S
Gd169 O213 2.362 . S
Gd169 O214 2.324 . S
Gd169 O218 2.545 . S
Gd169 O219 2.606 . S
Gd169 O221 2.429 . S
Gd169 O222 2.545 . S
Gd169 O223 2.412 . S
Gd169 C236 2.828 . S
C170 C173 1.417 . S
C170 C175 1.431 . S
C170 C176 1.412 . S
C171 C174 1.437 . S
C171 C175 1.317 . S
C171 H190 0.929 . S
C172 C173 1.426 . S
C172 C174 1.413 . S
C172 N182 1.359 1_655 S
C173 C170 1.417 . S
C173 C172 1.426 . S
C173 N178 1.350 . S
C174 C171 1.437 . S
C174 C172 1.413 . S
C174 C184 1.391 . S
C175 C170 1.431 . S
C175 C171 1.317 . S
C175 H186 0.930 . S
C176 C170 1.412 . S
C176 C177 1.355 . S
C176 H188 0.930 . S
C177 C176 1.355 . S
C177 C179 1.402 . S
C177 H189 0.930 . S
N178 Gd169 2.661 1_655 S
N178 C173 1.350 . S
N178 C179 1.307 . S
C179 C177 1.402 . S
C179 N178 1.307 . S
C179 H180 0.930 . S
H180 C179 0.930 . S
C181 N182 1.334 . S
C181 C183 1.394 . S
C181 H185 0.930 . S
N182 Gd169 2.601 . S
N182 C172 1.359 1_455 S
N182 C181 1.334 . S
C183 C181 1.394 . S
C183 C184 1.359 1_455 S
C183 H195 0.930 . S
C184 C174 1.391 . S
C184 C183 1.359 1_655 S
C184 H196 0.929 . S
H185 C181 0.930 . S
H186 C175 0.930 . S
H187 C204 0.930 . S
H188 C176 0.930 . S
H189 C177 0.930 . S
H190 C171 0.929 . S
H191 C209 0.930 . S
H192 C200 0.930 . S
H193 C201 0.930 . S
H194 C225 0.929 . S
H195 C183 0.930 . S
H196 C184 0.929 . S
H197 C226 0.930 . S
H198 C207 0.930 . S
N199 Gd168 2.661 . S
N199 C203 1.350 . S
N199 C204 1.307 . S
C200 H192 0.930 . S
C200 C201 1.355 . S
C200 C202 1.412 . S
C201 H193 0.930 . S
C201 C200 1.355 . S
C201 C204 1.402 . S
C202 C200 1.412 . S
C202 C203 1.417 . S
C202 C226 1.431 . S
C203 N199 1.350 . S
C203 C202 1.417 . S
C203 C206 1.426 . S
C204 H187 0.930 . S
C204 N199 1.307 . S
C204 C201 1.402 . S
N205 Gd168 2.601 . S
N205 C206 1.359 . S
N205 C209 1.334 1_565 S
C206 C203 1.426 . S
C206 N205 1.359 . S
C206 C210 1.413 1_565 S
C207 H198 0.930 . S
C207 C208 1.359 . S
C207 C209 1.394 . S
C208 C207 1.359 . S
C208 C210 1.391 . S
C208 H211 0.929 . S
C209 H191 0.930 . S
C209 N205 1.334 1_545 S
C209 C207 1.394 . S
C210 C206 1.413 1_545 S
C210 C208 1.391 . S
C210 C225 1.437 . S
H211 C208 0.929 . S
O212 Gd168 2.545 . S
O212 C227 1.258 . S
O213 Gd168 2.606 . S
O213 Gd169 2.362 . S
O213 C224 1.284 . S
O214 Gd169 2.324 . S
O214 C234 1.254 . S
O215 Gd168 2.429 . S
O215 C234 1.268 . S
O216 Gd168 2.545 . S
O216 C224 1.250 . S
O217 Gd168 2.412 . S
O217 C227 1.252 . S
O218 Gd169 2.545 . S
O218 C236 1.258 . S
O219 Gd168 2.362 . S
O219 Gd169 2.606 . S
O219 C235 1.284 . S
O220 Gd168 2.324 . S
O220 C243 1.254 . S
O221 Gd169 2.429 . S
O221 C243 1.268 . S
O222 Gd169 2.545 . S
O222 C235 1.250 . S
O223 Gd169 2.412 . S
O223 C236 1.252 . S
C224 O213 1.284 . S
C224 O216 1.250 . S
C225 H194 0.929 . S
C225 C210 1.437 . S
C225 C226 1.317 1_545 S
C226 H197 0.930 . S
C226 C202 1.431 . S
C226 C225 1.317 1_565 S
C227 Gd168 2.828 . S
C227 O212 1.258 . S
C227 O217 1.252 . S
C227 C228 1.497 . S
C228 C227 1.497 . S
C228 C229 1.395 1_565 S
C228 C230 1.380 . S
C229 C228 1.395 1_545 S
C229 C232 1.398 . S
C229 H244 0.930 . S
C230 C228 1.380 . S
C230 C231 1.391 . S
C230 H245 0.930 . S
C231 C230 1.391 . S
C231 C233 1.387 . S
C232 C229 1.398 . S
C232 C233 1.380 1_545 S
C232 H246 0.930 . S
C233 C231 1.387 . S
C233 C232 1.380 1_565 S
C233 H247 0.930 . S
C234 O214 1.254 . S
C234 O215 1.268 . S
C235 O219 1.284 . S
C235 O222 1.250 . S
C236 Gd169 2.828 . S
C236 O218 1.258 . S
C236 O223 1.252 . S
C236 C237 1.497 . S
C237 C236 1.497 . S
C237 C238 1.395 1_455 S
C237 C239 1.380 1_455 S
C238 C237 1.395 1_655 S
C238 C241 1.398 . S
C238 H248 0.930 1_655 S
C239 C237 1.380 1_655 S
C239 C240 1.391 . S
C239 H249 0.930 . S
C240 C239 1.391 . S
C240 C242 1.387 . S
C241 C238 1.398 . S
C241 C242 1.380 . S
C241 H250 0.930 . S
C242 C240 1.387 . S
C242 C241 1.380 . S
C242 H251 0.930 . S
C243 O220 1.254 . S
C243 O221 1.268 . S
H244 C229 0.930 . S
H245 C230 0.930 . S
H246 C232 0.930 . S
H247 C233 0.930 . S
H248 C238 0.930 1_455 S
H249 C239 0.930 . S
H250 C241 0.930 . S
H251 C242 0.930 . S
Gd252 N283 2.661 1_655 S
Gd252 N289 2.601 . S
Gd252 O296 2.545 . S
Gd252 O297 2.606 . S
Gd252 O299 2.429 . S
Gd252 O300 2.545 . S
Gd252 O301 2.412 . S
Gd252 O303 2.362 . S
Gd252 O304 2.324 . S
Gd252 C311 2.828 . S
Gd253 N262 2.661 . S
Gd253 N266 2.601 . S
Gd253 O297 2.362 . S
Gd253 O298 2.324 . S
Gd253 O302 2.545 . S
Gd253 O303 2.606 . S
Gd253 O305 2.429 . S
Gd253 O306 2.545 . S
Gd253 O307 2.412 . S
Gd253 C320 2.828 . S
C254 C257 1.417 . S
C254 C259 1.431 . S
C254 C260 1.412 . S
C255 C258 1.437 . S
C255 C259 1.317 1_565 S
C255 H274 0.929 . S
C256 C257 1.426 . S
C256 C258 1.413 1_545 S
C256 N266 1.359 . S
C257 C254 1.417 . S
C257 C256 1.426 . S
C257 N262 1.350 . S
C258 C255 1.437 . S
C258 C256 1.413 1_565 S
C258 C268 1.391 . S
C259 C254 1.431 . S
C259 C255 1.317 1_545 S
C259 H270 0.930 . S
C260 C254 1.412 . S
C260 C261 1.355 . S
C260 H272 0.930 . S
C261 C260 1.355 . S
C261 C263 1.402 . S
C261 H273 0.930 . S
N262 Gd253 2.661 . S
N262 C257 1.350 . S
N262 C263 1.307 . S
C263 C261 1.402 . S
C263 N262 1.307 . S
C263 H264 0.930 . S
H264 C263 0.930 . S
C265 N266 1.334 1_565 S
C265 C267 1.394 . S
C265 H269 0.930 . S
N266 Gd253 2.601 . S
N266 C256 1.359 . S
N266 C265 1.334 1_545 S
C267 C265 1.394 . S
C267 C268 1.359 . S
C267 H279 0.930 . S
C268 C258 1.391 . S
C268 C267 1.359 . S
C268 H280 0.929 . S
H269 C265 0.930 . S
H270 C259 0.930 . S
H271 C288 0.930 . S
H272 C260 0.930 . S
H273 C261 0.930 . S
H274 C255 0.929 . S
H275 C293 0.930 . S
H276 C284 0.930 . S
H277 C285 0.930 . S
H278 C309 0.929 . S
H279 C267 0.930 . S
H280 C268 0.929 . S
H281 C310 0.930 . S
H282 C291 0.930 . S
N283 Gd252 2.661 1_455 S
N283 C287 1.350 . S
N283 C288 1.307 . S
C284 H276 0.930 . S
C284 C285 1.355 . S
C284 C286 1.412 . S
C285 H277 0.930 . S
C285 C284 1.355 . S
C285 C288 1.402 . S
C286 C284 1.412 . S
C286 C287 1.417 . S
C286 C310 1.431 . S
C287 N283 1.350 . S
C287 C286 1.417 . S
C287 C290 1.426 . S
C288 H271 0.930 . S
C288 N283 1.307 . S
C288 C285 1.402 . S
N289 Gd252 2.601 . S
N289 C290 1.359 1_655 S
N289 C293 1.334 . S
C290 C287 1.426 . S
C290 N289 1.359 1_455 S
C290 C294 1.413 . S
C291 H282 0.930 . S
C291 C292 1.359 1_655 S
C291 C293 1.394 . S
C292 C291 1.359 1_455 S
C292 C294 1.391 . S
C292 H295 0.929 . S
C293 H275 0.930 . S
C293 N289 1.334 . S
C293 C291 1.394 . S
C294 C290 1.413 . S
C294 C292 1.391 . S
C294 C309 1.437 . S
H295 C292 0.929 . S
O296 Gd252 2.545 . S
O296 C311 1.258 . S
O297 Gd252 2.606 . S
O297 Gd253 2.362 . S
O297 C308 1.284 . S
O298 Gd253 2.324 . S
O298 C318 1.254 . S
O299 Gd252 2.429 . S
O299 C318 1.268 . S
O300 Gd252 2.545 . S
O300 C308 1.250 . S
O301 Gd252 2.412 . S
O301 C311 1.252 . S
O302 Gd253 2.545 . S
O302 C320 1.258 . S
O303 Gd252 2.362 . S
O303 Gd253 2.606 . S
O303 C319 1.284 . S
O304 Gd252 2.324 . S
O304 C327 1.254 . S
O305 Gd253 2.429 . S
O305 C327 1.268 . S
O306 Gd253 2.545 . S
O306 C319 1.250 . S
O307 Gd253 2.412 . S
O307 C320 1.252 . S
C308 O297 1.284 . S
C308 O300 1.250 . S
C309 H278 0.929 . S
C309 C294 1.437 . S
C309 C310 1.317 . S
C310 H281 0.930 . S
C310 C286 1.431 . S
C310 C309 1.317 . S
C311 Gd252 2.828 . S
C311 O296 1.258 . S
C311 O301 1.252 . S
C311 C312 1.497 . S
C312 C311 1.497 . S
C312 C313 1.395 1_655 S
C312 C314 1.380 1_655 S
C313 C312 1.395 1_455 S
C313 C316 1.398 . S
C313 H328 0.930 1_455 S
C314 C312 1.380 1_455 S
C314 C315 1.391 . S
C314 H329 0.930 . S
C315 C314 1.391 . S
C315 C317 1.387 . S
C316 C313 1.398 . S
C316 C317 1.380 . S
C316 H330 0.930 . S
C317 C315 1.387 . S
C317 C316 1.380 . S
C317 H331 0.930 . S
C318 O298 1.254 . S
C318 O299 1.268 . S
C319 O303 1.284 . S
C319 O306 1.250 . S
C320 Gd253 2.828 . S
C320 O302 1.258 . S
C320 O307 1.252 . S
C320 C321 1.497 . S
C321 C320 1.497 . S
C321 C322 1.395 1_545 S
C321 C323 1.380 . S
C322 C321 1.395 1_565 S
C322 C325 1.398 . S
C322 H332 0.930 . S
C323 C321 1.380 . S
C323 C324 1.391 . S
C323 H333 0.930 . S
C324 C323 1.391 . S
C324 C326 1.387 . S
C325 C322 1.398 . S
C325 C326 1.380 1_565 S
C325 H334 0.930 . S
C326 C324 1.387 . S
C326 C325 1.380 1_545 S
C326 H335 0.930 . S
C327 O304 1.254 . S
C327 O305 1.268 . S
H328 C313 0.930 1_655 S
H329 C314 0.930 . S
H330 C316 0.930 . S
H331 C317 0.930 . S
H332 C322 0.930 . S
H333 C323 0.930 . S
H334 C325 0.930 . S
H335 C326 0.930 . S
C336 C337 1.369 . S
C336 C338 1.419 . S
C336 H340 0.930 . S
C337 C336 1.369 . S
C337 C346 1.429 1_556 S
C338 C336 1.419 . S
C338 C339 1.363 1_556 S
C338 H341 0.929 . S
C339 C338 1.363 1_554 S
C339 C345 1.428 . S
H340 C336 0.930 . S
H341 C338 0.929 . S
S342 N343 1.613 . S
S342 N344 1.610 . S
N343 S342 1.613 . S
N343 C346 1.350 . S
N344 S342 1.610 . S
N344 C345 1.351 . S
C345 C339 1.428 . S
C345 N344 1.351 . S
C345 C346 1.434 . S
C346 C337 1.429 1_554 S
C346 N343 1.350 . S
C346 C345 1.434 . S
C347 C348 1.369 . S
C347 C349 1.419 . S
C347 H351 0.930 . S
C348 C347 1.369 . S
C348 C357 1.429 . S
C349 C347 1.419 . S
C349 C350 1.363 . S
C349 H352 0.929 . S
C350 C349 1.363 . S
C350 C356 1.428 . S
H351 C347 0.930 . S
H352 C349 0.929 . S
S353 N354 1.613 . S
S353 N355 1.610 . S
N354 S353 1.613 . S
N354 C357 1.350 . S
N355 S353 1.610 . S
N355 C356 1.351 . S
C356 C350 1.428 . S
C356 N355 1.351 . S
C356 C357 1.434 . S
C357 C348 1.429 . S
C357 N354 1.350 . S
C357 C356 1.434 . S
C358 C359 1.369 1_655 S
C358 C360 1.419 . S
C358 H362 0.930 . S
C359 C358 1.369 1_455 S
C359 C368 1.429 1_546 S
C360 C358 1.419 . S
C360 C361 1.363 1_546 S
C360 H363 0.929 . S
C361 C360 1.363 1_564 S
C361 C367 1.428 1_655 S
H362 C358 0.930 . S
H363 C360 0.929 . S
S364 N365 1.613 . S
S364 N366 1.610 . S
N365 S364 1.613 . S
N365 C368 1.350 . S
N366 S364 1.610 . S
N366 C367 1.351 . S
C367 C361 1.428 1_455 S
C367 N366 1.351 . S
C367 C368 1.434 . S
C368 C359 1.429 1_564 S
C368 N365 1.350 . S
C368 C367 1.434 . S
C369 C370 1.369 1_565 S
C369 C371 1.419 . S
C369 H373 0.930 . S
C370 C369 1.369 1_545 S
C370 C379 1.429 1_655 S
C371 C369 1.419 . S
C371 C372 1.363 1_655 S
C371 H374 0.929 . S
C372 C371 1.363 1_455 S
C372 C378 1.428 1_565 S
H373 C369 0.930 . S
H374 C371 0.929 . S
S375 N376 1.613 . S
S375 N377 1.610 . S
N376 S375 1.613 . S
N376 C379 1.350 . S
N377 S375 1.610 . S
N377 C378 1.351 . S
C378 C372 1.428 1_545 S
C378 N377 1.351 . S
C378 C379 1.434 . S
C379 C370 1.429 1_455 S
C379 N376 1.350 . S
C379 C378 1.434 . S
C380 C381 1.369 . S
C380 C382 1.419 . S
C380 H384 0.930 . S
C381 C380 1.369 . S
C381 C390 1.429 . S
C382 C380 1.419 . S
C382 C383 1.363 . S
C382 H385 0.929 . S
C383 C382 1.363 . S
C383 C389 1.428 . S
H384 C380 0.930 . S
H385 C382 0.929 . S
S386 N387 1.613 . S
S386 N388 1.610 . S
N387 S386 1.613 . S
N387 C390 1.350 . S
N388 S386 1.610 . S
N388 C389 1.351 . S
C389 C383 1.428 . S
C389 N388 1.351 . S
C389 C390 1.434 . S
C390 C381 1.429 . S
C390 N387 1.350 . S
C390 C389 1.434 . S
C391 C392 1.369 . S
C391 C393 1.419 . S
C391 H395 0.930 . S
C392 C391 1.369 . S
C392 C401 1.429 . S
C393 C391 1.419 . S
C393 C394 1.363 . S
C393 H396 0.929 . S
C394 C393 1.363 . S
C394 C400 1.428 . S
H395 C391 0.930 . S
H396 C393 0.929 . S
S397 N398 1.613 . S
S397 N399 1.610 . S
N398 S397 1.613 . S
N398 C401 1.350 . S
N399 S397 1.610 . S
N399 C400 1.351 . S
C400 C394 1.428 . S
C400 N399 1.351 . S
C400 C401 1.434 . S
C401 C392 1.429 . S
C401 N398 1.350 . S
C401 C400 1.434 . S
C402 C403 1.369 . S
C402 C404 1.419 . S
C402 H406 0.930 . S
C403 C402 1.369 . S
C403 C412 1.429 . S
C404 C402 1.419 . S
C404 C405 1.363 . S
C404 H407 0.929 . S
C405 C404 1.363 . S
C405 C411 1.428 . S
H406 C402 0.930 . S
H407 C404 0.929 . S
S408 N409 1.613 1_545 S
S408 N410 1.610 1_545 S
N409 S408 1.613 1_565 S
N409 C412 1.350 . S
N410 S408 1.610 1_565 S
N410 C411 1.351 . S
C411 C405 1.428 . S
C411 N410 1.351 . S
C411 C412 1.434 . S
C412 C403 1.429 . S
C412 N409 1.350 . S
C412 C411 1.434 . S
C413 C414 1.369 . S
C413 C415 1.419 . S
C413 H417 0.930 . S
C414 C413 1.369 . S
C414 C423 1.429 . S
C415 C413 1.419 . S
C415 C416 1.363 . S
C415 H418 0.929 . S
C416 C415 1.363 . S
C416 C422 1.428 . S
H417 C413 0.930 . S
H418 C415 0.929 . S
S419 N420 1.613 . S
S419 N421 1.610 . S
N420 S419 1.613 . S
N420 C423 1.350 . S
N421 S419 1.610 . S
N421 C422 1.351 . S
C422 C416 1.428 . S
C422 N421 1.351 . S
C422 C423 1.434 . S
C423 C414 1.429 . S
C423 N420 1.350 . S
C423 C422 1.434 . S
C424 C425 1.369 . S
C424 C426 1.419 . S
C424 H428 0.930 . S
C425 C424 1.369 . S
C425 C434 1.429 . S
C426 C424 1.419 . S
C426 C427 1.363 . S
C426 H429 0.929 . S
C427 C426 1.363 . S
C427 C433 1.428 . S
H428 C424 0.930 . S
H429 C426 0.929 . S
S430 N431 1.613 . S
S430 N432 1.610 . S
N431 S430 1.613 . S
N431 C434 1.350 1_455 S
N432 S430 1.610 . S
N432 C433 1.351 1_455 S
C433 C427 1.428 . S
C433 N432 1.351 1_655 S
C433 C434 1.434 . S
C434 C425 1.429 . S
C434 N431 1.350 1_655 S
C434 C433 1.434 . S
C435 C436 1.369 . S
C435 C437 1.419 . S
C435 H439 0.930 . S
C436 C435 1.369 . S
C436 C445 1.429 . S
C437 C435 1.419 . S
C437 C438 1.363 . S
C437 H440 0.929 . S
C438 C437 1.363 . S
C438 C444 1.428 . S
H439 C435 0.930 . S
H440 C437 0.929 . S
S441 N442 1.613 . S
S441 N443 1.610 . S
N442 S441 1.613 . S
N442 C445 1.350 1_455 S
N443 S441 1.610 . S
N443 C444 1.351 1_455 S
C444 C438 1.428 . S
C444 N443 1.351 1_655 S
C444 C445 1.434 . S
C445 C436 1.429 . S
C445 N442 1.350 1_655 S
C445 C444 1.434 . S
C446 C447 1.369 . S
C446 C448 1.419 . S
C446 H450 0.930 . S
C447 C446 1.369 . S
C447 C456 1.429 . S
C448 C446 1.419 . S
C448 C449 1.363 . S
C448 H451 0.929 . S
C449 C448 1.363 . S
C449 C455 1.428 . S
H450 C446 0.930 . S
H451 C448 0.929 . S
S452 N453 1.613 . S
S452 N454 1.610 . S
N453 S452 1.613 . S
N453 C456 1.350 1_655 S
N454 S452 1.610 . S
N454 C455 1.351 1_655 S
C455 C449 1.428 . S
C455 N454 1.351 1_455 S
C455 C456 1.434 . S
C456 C447 1.429 . S
C456 N453 1.350 1_455 S
C456 C455 1.434 . S
C457 C458 1.369 . S
C457 C459 1.419 . S
C457 H461 0.930 . S
C458 C457 1.369 . S
C458 C467 1.429 . S
C459 C457 1.419 . S
C459 C460 1.363 . S
C459 H462 0.929 . S
C460 C459 1.363 . S
C460 C466 1.428 . S
H461 C457 0.930 . S
H462 C459 0.929 . S
S463 N464 1.613 . S
S463 N465 1.610 . S
N464 S463 1.613 . S
N464 C467 1.350 . S
N465 S463 1.610 . S
N465 C466 1.351 . S
C466 C460 1.428 . S
C466 N465 1.351 . S
C466 C467 1.434 . S
C467 C458 1.429 . S
C467 N464 1.350 . S
C467 C466 1.434 . S
C337 C150 1.528 . S
C339 C75 1.519 . S
C348 C243 1.525 . S
C350 C318 1.521 . S
C359 C66 1.527 . S
C361 C159 1.520 . S
C370 C327 1.518 . S
C372 C234 1.527 . S
C381 C324 1.395 . S
C383 C67 1.343 . S
C392 C156 1.394 . S
C394 C235 1.344 . S
C403 C140 1.347 . S
C405 C231 1.390 . S
C414 C308 1.350 . S
C416 C63 1.392 . S
C425 C151 1.350 . S
C427 C240 1.387 . S
C436 C319 1.350 . S
C438 C72 1.387 . S
C447 C315 1.387 . S
C449 C56 1.350 . S
C458 C224 1.350 . S
C460 C147 1.391 . S
