# Generated by pormake.
# Topology whm, (6)-cn, num edge types: 1
# Building blocks:
#     Node 0, Type 0, BuildingBlock: OJICUG_clean_sbu_0, # of connection points: 6
#     Node 1, Type 0, BuildingBlock: OJICUG_clean_sbu_0, # of connection points: 6
#     Node 2, Type 0, BuildingBlock: OJICUG_clean_sbu_0, # of connection points: 6
#     Node 3, Type 0, BuildingBlock: OJICUG_clean_sbu_0, # of connection points: 6
#     Node 4, Type 0, BuildingBlock: OJICUG_clean_sbu_0, # of connection points: 6
#     Node 5, Type 0, BuildingBlock: OJICUG_clean_sbu_0, # of connection points: 6
#     Node 6, Type 0, BuildingBlock: OJICUG_clean_sbu_0, # of connection points: 6
#     Node 7, Type 0, BuildingBlock: OJICUG_clean_sbu_0, # of connection points: 6
#     Node 8, Type 0, BuildingBlock: OJICUG_clean_sbu_0, # of connection points: 6
#     Node 9, Type 0, BuildingBlock: OJICUG_clean_sbu_0, # of connection points: 6
#     Node 10, Type 0, BuildingBlock: OJICUG_clean_sbu_0, # of connection points: 6
#     Node 11, Type 0, BuildingBlock: OJICUG_clean_sbu_0, # of connection points: 6
#     Node 12, Type 0, BuildingBlock: OJICUG_clean_sbu_0, # of connection points: 6
#     Node 13, Type 0, BuildingBlock: OJICUG_clean_sbu_0, # of connection points: 6
#     Node 14, Type 0, BuildingBlock: OJICUG_clean_sbu_0, # of connection points: 6
#     Node 15, Type 0, BuildingBlock: OJICUG_clean_sbu_0, # of connection points: 6
#     Edge 16, Type (0, 0), BuildingBlock: KIFKEQ_clean_linker_1, # of connection points: 2
#     Edge 17, Type (0, 0), BuildingBlock: KIFKEQ_clean_linker_1, # of connection points: 2
#     Edge 18, Type (0, 0), BuildingBlock: KIFKEQ_clean_linker_1, # of connection points: 2
#     Edge 19, Type (0, 0), BuildingBlock: KIFKEQ_clean_linker_1, # of connection points: 2
#     Edge 20, Type (0, 0), BuildingBlock: KIFKEQ_clean_linker_1, # of connection points: 2
#     Edge 21, Type (0, 0), BuildingBlock: KIFKEQ_clean_linker_1, # of connection points: 2
#     Edge 22, Type (0, 0), BuildingBlock: KIFKEQ_clean_linker_1, # of connection points: 2
#     Edge 23, Type (0, 0), BuildingBlock: KIFKEQ_clean_linker_1, # of connection points: 2
#     Edge 24, Type (0, 0), BuildingBlock: KIFKEQ_clean_linker_1, # of connection points: 2
#     Edge 25, Type (0, 0), BuildingBlock: KIFKEQ_clean_linker_1, # of connection points: 2
#     Edge 26, Type (0, 0), BuildingBlock: KIFKEQ_clean_linker_1, # of connection points: 2
#     Edge 27, Type (0, 0), BuildingBlock: KIFKEQ_clean_linker_1, # of connection points: 2
#     Edge 28, Type (0, 0), BuildingBlock: KIFKEQ_clean_linker_1, # of connection points: 2
#     Edge 29, Type (0, 0), BuildingBlock: KIFKEQ_clean_linker_1, # of connection points: 2
#     Edge 30, Type (0, 0), BuildingBlock: KIFKEQ_clean_linker_1, # of connection points: 2
#     Edge 31, Type (0, 0), BuildingBlock: KIFKEQ_clean_linker_1, # of connection points: 2
#     Edge 32, Type (0, 0), BuildingBlock: KIFKEQ_clean_linker_1, # of connection points: 2
#     Edge 33, Type (0, 0), BuildingBlock: KIFKEQ_clean_linker_1, # of connection points: 2
#     Edge 34, Type (0, 0), BuildingBlock: KIFKEQ_clean_linker_1, # of connection points: 2
#     Edge 35, Type (0, 0), BuildingBlock: KIFKEQ_clean_linker_1, # of connection points: 2
#     Edge 36, Type (0, 0), BuildingBlock: KIFKEQ_clean_linker_1, # of connection points: 2
#     Edge 37, Type (0, 0), BuildingBlock: KIFKEQ_clean_linker_1, # of connection points: 2
#     Edge 38, Type (0, 0), BuildingBlock: KIFKEQ_clean_linker_1, # of connection points: 2
#     Edge 39, Type (0, 0), BuildingBlock: KIFKEQ_clean_linker_1, # of connection points: 2
#     Edge 40, Type (0, 0), BuildingBlock: KIFKEQ_clean_linker_1, # of connection points: 2
#     Edge 41, Type (0, 0), BuildingBlock: KIFKEQ_clean_linker_1, # of connection points: 2
#     Edge 42, Type (0, 0), BuildingBlock: KIFKEQ_clean_linker_1, # of connection points: 2
#     Edge 43, Type (0, 0), BuildingBlock: KIFKEQ_clean_linker_1, # of connection points: 2
#     Edge 44, Type (0, 0), BuildingBlock: KIFKEQ_clean_linker_1, # of connection points: 2
#     Edge 45, Type (0, 0), BuildingBlock: KIFKEQ_clean_linker_1, # of connection points: 2
#     Edge 46, Type (0, 0), BuildingBlock: KIFKEQ_clean_linker_1, # of connection points: 2
#     Edge 47, Type (0, 0), BuildingBlock: KIFKEQ_clean_linker_1, # of connection points: 2
#     Edge 48, Type (0, 0), BuildingBlock: KIFKEQ_clean_linker_1, # of connection points: 2
#     Edge 49, Type (0, 0), BuildingBlock: KIFKEQ_clean_linker_1, # of connection points: 2
#     Edge 50, Type (0, 0), BuildingBlock: KIFKEQ_clean_linker_1, # of connection points: 2
#     Edge 51, Type (0, 0), BuildingBlock: KIFKEQ_clean_linker_1, # of connection points: 2
#     Edge 52, Type (0, 0), BuildingBlock: KIFKEQ_clean_linker_1, # of connection points: 2
#     Edge 53, Type (0, 0), BuildingBlock: KIFKEQ_clean_linker_1, # of connection points: 2
#     Edge 54, Type (0, 0), BuildingBlock: KIFKEQ_clean_linker_1, # of connection points: 2
#     Edge 55, Type (0, 0), BuildingBlock: KIFKEQ_clean_linker_1, # of connection points: 2
#     Edge 56, Type (0, 0), BuildingBlock: KIFKEQ_clean_linker_1, # of connection points: 2
#     Edge 57, Type (0, 0), BuildingBlock: KIFKEQ_clean_linker_1, # of connection points: 2
#     Edge 58, Type (0, 0), BuildingBlock: KIFKEQ_clean_linker_1, # of connection points: 2
#     Edge 59, Type (0, 0), BuildingBlock: KIFKEQ_clean_linker_1, # of connection points: 2
#     Edge 60, Type (0, 0), BuildingBlock: KIFKEQ_clean_linker_1, # of connection points: 2
#     Edge 61, Type (0, 0), BuildingBlock: KIFKEQ_clean_linker_1, # of connection points: 2
#     Edge 62, Type (0, 0), BuildingBlock: KIFKEQ_clean_linker_1, # of connection points: 2
#     Edge 63, Type (0, 0), BuildingBlock: KIFKEQ_clean_linker_1, # of connection points: 2
# Relax obj value: 0.342
# Max RMSD: 0.245
# Mean RMSD: 0.245
data_MOF--net-whm--node1-OJICUG_clean_sbu_0--edge1-KIFKEQ_clean_linker_1
_symmetry_space_group_name_H-M    P1
_symmetry_Int_Tables_number       1
_symmetry_cell_setting            triclinic
loop_
_symmetry_equiv_pos_as_xyz
'x, y, z'
_cell_length_a     52.388453
_cell_length_b     52.37221
_cell_length_c     29.873027
_cell_angle_alpha  89.987851
_cell_angle_beta   89.989289
_cell_angle_gamma 89.959213
loop_
_atom_site_label
_atom_site_type_symbol
_atom_site_fract_x
_atom_site_fract_y
_atom_site_fract_z
_atom_type_partial_charge
Sc0 Sc 0.57273 0.16397 0.11721 0.0
Sc1 Sc 0.52783 0.16254 0.20457 0.0
Sc2 Sc 0.55704 0.10568 0.16683 0.0
O3 O 0.55243 0.14406 0.16304 0.0
C4 C 0.56209 0.11216 0.06315 0.0
C5 C 0.51629 0.1856 0.10732 0.0
C6 C 0.49791 0.11038 0.1888 0.0
C7 C 0.57069 0.20487 0.19607 0.0
C8 C 0.61432 0.12636 0.15355 0.0
C9 C 0.55545 0.12283 0.2695 0.0
O10 O 0.57057 0.13469 0.06743 0.0
O11 O 0.51002 0.18228 0.14827 0.0
O12 O 0.51708 0.09805 0.17428 0.0
O13 O 0.57887 0.19679 0.15879 0.0
O14 O 0.59793 0.1089 0.16093 0.0
O15 O 0.5439 0.14398 0.26311 0.0
O16 O 0.60829 0.14877 0.14096 0.0
O17 O 0.55303 0.19384 0.21752 0.0
O18 O 0.56112 0.10744 0.23813 0.0
O19 O 0.53802 0.17954 0.09142 0.0
O20 O 0.55346 0.09943 0.09594 0.0
O21 O 0.49903 0.13371 0.19992 0.0
Sc22 Sc 0.31768 0.57362 0.63223 0.0
Sc23 Sc 0.32447 0.5243 0.71196 0.0
Sc24 Sc 0.37866 0.5531 0.66375 0.0
O25 O 0.34023 0.55029 0.66927 0.0
C26 C 0.36361 0.56486 0.56351 0.0
C27 C 0.292 0.51865 0.62268 0.0
C28 C 0.3728 0.4935 0.67489 0.0
C29 C 0.28437 0.56959 0.72119 0.0
C30 C 0.36035 0.61146 0.66684 0.0
C31 C 0.37062 0.54537 0.76914 0.0
O32 O 0.34116 0.57199 0.57327 0.0
O33 O 0.30028 0.50961 0.65947 0.0
O34 O 0.38399 0.51264 0.65763 0.0
O35 O 0.2908 0.58009 0.68475 0.0
O36 O 0.3772 0.59403 0.67018 0.0
O37 O 0.34789 0.53684 0.76724 0.0
O38 O 0.33749 0.60715 0.65459 0.0
O39 O 0.29482 0.54934 0.73548 0.0
O40 O 0.38361 0.55088 0.73459 0.0
O41 O 0.29664 0.54113 0.60852 0.0
O42 O 0.37891 0.55591 0.59235 0.0
O43 O 0.35188 0.49534 0.69603 0.0
Sc44 Sc 0.91327 0.31771 0.12229 0.0
Sc45 Sc 0.95743 0.32463 0.21056 0.0
Sc46 Sc 0.92932 0.37861 0.16037 0.0
O47 O 0.93351 0.34026 0.16442 0.0
C48 C 0.92896 0.36478 0.05904 0.0
C49 C 0.96919 0.29353 0.12114 0.0
C50 C 0.98796 0.37523 0.18839 0.0
C51 C 0.91286 0.28342 0.21025 0.0
C52 C 0.87197 0.35917 0.14496 0.0
C53 C 0.92689 0.36757 0.2647 0.0
O54 O 0.91902 0.34301 0.06629 0.0
O55 O 0.97593 0.30125 0.15988 0.0
O56 O 0.96883 0.38687 0.17223 0.0
O57 O 0.90425 0.28947 0.17203 0.0
O58 O 0.88878 0.37646 0.14941 0.0
O59 O 0.94036 0.34722 0.26378 0.0
O60 O 0.87763 0.33588 0.13845 0.0
O61 O 0.93172 0.2946 0.22799 0.0
O62 O 0.92145 0.38054 0.23008 0.0
O63 O 0.94749 0.29802 0.10369 0.0
O64 O 0.93651 0.3794 0.09015 0.0
O65 O 0.98689 0.35232 0.2017 0.0
Sc66 Sc 0.17182 0.91292 0.63852 0.0
Sc67 Sc 0.1634 0.96416 0.71315 0.0
Sc68 Sc 0.11026 0.93543 0.66256 0.0
O69 O 0.1485 0.93752 0.67119 0.0
C70 C 0.12927 0.92268 0.56408 0.0
C71 C 0.1986 0.96777 0.62814 0.0
C72 C 0.11541 -0.00544 0.67369 0.0
C73 C 0.20245 0.91832 0.72894 0.0
C74 C 0.12646 0.87666 0.66877 0.0
C75 C 0.11661 0.94373 0.76827 0.0
O76 O 0.15162 0.91617 0.576 0.0
O77 O 0.18686 0.97888 0.65995 0.0
O78 O 0.10565 0.97584 0.65282 0.0
O79 O 0.1947 0.90508 0.69624 0.0
O80 O 0.11033 0.89472 0.67232 0.0
O81 O 0.13992 0.95076 0.76769 0.0
O82 O 0.14944 0.88018 0.65663 0.0
O83 O 0.19419 0.94059 0.73699 0.0
O84 O 0.10372 0.93955 0.73296 0.0
O85 O 0.1961 0.94417 0.61847 0.0
O86 O 0.11255 0.93069 0.59144 0.0
O87 O 0.13519 0.99233 0.69775 0.0
Sc88 Sc 0.57256 0.3227 0.87724 0.0
Sc89 Sc 0.52905 0.3242 0.78791 0.0
Sc90 Sc 0.55762 0.38103 0.82706 0.0
O91 O 0.55297 0.34266 0.83056 0.0
C92 C 0.56115 0.37453 0.93084 0.0
C93 C 0.51631 0.30075 0.88452 0.0
C94 C 0.49859 0.376 0.80344 0.0
C95 C 0.57194 0.28211 0.79775 0.0
C96 C 0.61466 0.36013 0.84258 0.0
C97 C 0.55731 0.36431 0.7243 0.0
O98 O 0.5699 0.35207 0.9269 0.0
O99 O 0.51091 0.30373 0.84311 0.0
O100 O 0.51771 0.38856 0.81754 0.0
O101 O 0.57907 0.28979 0.83594 0.0
O102 O 0.59845 0.37777 0.83501 0.0
O103 O 0.54535 0.34334 0.73007 0.0
O104 O 0.60838 0.3377 0.8546 0.0
O105 O 0.55495 0.29345 0.77512 0.0
O106 O 0.56294 0.37942 0.75607 0.0
O107 O 0.53753 0.30734 0.90177 0.0
O108 O 0.5528 0.38717 0.89771 0.0
O109 O 0.49983 0.3526 0.79285 0.0
Sc110 Sc 0.10765 0.55719 0.31561 0.0
Sc111 Sc 0.16272 0.52554 0.27957 0.0
Sc112 Sc 0.16774 0.57748 0.35354 0.0
O113 O 0.14607 0.55338 0.31659 0.0
C114 C 0.12704 0.61461 0.30823 0.0
C115 C 0.12089 0.54495 0.21328 0.0
C116 C 0.20415 0.56989 0.27011 0.0
C117 C 0.11151 0.49795 0.31274 0.0
C118 C 0.11955 0.57194 0.41728 0.0
C119 C 0.1919 0.52204 0.37131 0.0
O120 O 0.11099 0.59705 0.29964 0.0
O121 O 0.14405 0.53868 0.21983 0.0
O122 O 0.19502 0.58359 0.30118 0.0
O123 O 0.10137 0.51758 0.33033 0.0
O124 O 0.14326 0.57555 0.41115 0.0
O125 O 0.18221 0.51097 0.33747 0.0
O126 O 0.1045 0.56553 0.38595 0.0
O127 O 0.13244 0.49884 0.2914 0.0
O128 O 0.18943 0.54578 0.37982 0.0
O129 O 0.10532 0.54957 0.24492 0.0
O130 O 0.14778 0.61074 0.32939 0.0
O131 O 0.19536 0.54798 0.26073 0.0
Sc132 Sc 0.93392 0.10941 0.82628 0.0
Sc133 Sc 0.96051 0.16483 0.77899 0.0
Sc134 Sc 0.91323 0.16996 0.86195 0.0
O135 O 0.93595 0.14804 0.82259 0.0
C136 C 0.87511 0.12597 0.83311 0.0
C137 C 0.9356 0.12089 0.72096 0.0
C138 C 0.91435 0.20455 0.77511 0.0
C139 C 0.9925 0.11506 0.8053 0.0
C140 C 0.92729 0.12408 0.92846 0.0
C141 C 0.96851 0.1961 0.86844 0.0
O142 O 0.89288 0.1099 0.82616 0.0
O143 O 0.94418 0.14361 0.72403 0.0
O144 O 0.90321 0.19633 0.80985 0.0
O145 O 0.97453 0.1038 0.82582 0.0
O146 O 0.91925 0.14643 0.91981 0.0
O147 O 0.97775 0.18664 0.83261 0.0
O148 O 0.93458 0.10862 0.89828 0.0
O149 O 0.98962 0.13653 0.78649 0.0
O150 O 0.94562 0.19264 0.88161 0.0
O151 O 0.93258 0.10621 0.75453 0.0
O152 O 0.87932 0.14886 0.84518 0.0
O153 O 0.93556 0.19574 0.76189 0.0
Sc154 Sc 0.37784 0.93153 0.31486 0.0
Sc155 Sc 0.32318 0.96294 0.27718 0.0
Sc156 Sc 0.31742 0.90988 0.34769 0.0
O157 O 0.33947 0.93478 0.31355 0.0
C158 C 0.36032 0.87404 0.30492 0.0
C159 C 0.36644 0.94538 0.21262 0.0
C160 C 0.2837 0.91741 0.26171 0.0
C161 C 0.37322 0.99054 0.31518 0.0
C162 C 0.3633 0.91584 0.41522 0.0
C163 C 0.29132 0.96443 0.36559 0.0
O164 O 0.37556 0.89215 0.29547 0.0
O165 O 0.34295 0.95066 0.21811 0.0
O166 O 0.29307 0.90295 0.2915 0.0
O167 O 0.38289 0.97082 0.33331 0.0
O168 O 0.33956 0.91348 0.40774 0.0
O169 O 0.30296 0.97653 0.33489 0.0
O170 O 0.3793 0.92113 0.38462 0.0
O171 O 0.35308 0.98965 0.29159 0.0
O172 O 0.2931 0.94038 0.37153 0.0
O173 O 0.38163 0.94114 0.245 0.0
O174 O 0.33965 0.87725 0.32663 0.0
O175 O 0.29112 0.94024 0.25598 0.0
Sc176 Sc 0.42626 0.8792 0.82324 0.0
Sc177 Sc 0.45813 0.82487 0.78234 0.0
Sc178 Sc 0.41277 0.81988 0.86801 0.0
O179 O 0.43263 0.84125 0.82432 0.0
C180 C 0.42388 0.87082 0.92471 0.0
C181 C 0.48564 0.87727 0.79805 0.0
C182 C 0.46931 0.7993 0.87789 0.0
C183 C 0.42659 0.86431 0.72084 0.0
C184 C 0.37016 0.85686 0.83882 0.0
C185 C 0.41644 0.78146 0.78547 0.0
O186 O 0.43433 0.88323 0.89313 0.0
O187 O 0.48665 0.8533 0.79299 0.0
O188 O 0.44777 0.80545 0.89442 0.0
O189 O 0.41776 0.8771 0.75359 0.0
O190 O 0.37706 0.83375 0.8429 0.0
O191 O 0.43322 0.7942 0.76473 0.0
O192 O 0.38591 0.87534 0.83761 0.0
O193 O 0.44257 0.84599 0.72547 0.0
O194 O 0.40859 0.78757 0.82417 0.0
O195 O 0.4651 0.88896 0.80753 0.0
O196 O 0.41339 0.8492 0.91863 0.0
O197 O 0.47528 0.80285 0.83683 0.0
Sc198 Sc 0.67103 0.40996 0.35492 0.0
Sc199 Sc 0.66597 0.46247 0.28222 0.0
Sc200 Sc 0.61079 0.43328 0.32329 0.0
O201 O 0.64929 0.43521 0.32044 0.0
C202 C 0.62715 0.37501 0.3137 0.0
C203 C 0.70508 0.41633 0.26828 0.0
C204 C 0.62148 0.44506 0.2197 0.0
C205 C 0.69769 0.46433 0.37156 0.0
C206 C 0.62531 0.4174 0.42346 0.0
C207 C 0.617 0.49225 0.31986 0.0
O208 O 0.64878 0.37777 0.33251 0.0
O209 O 0.69718 0.43877 0.26027 0.0
O210 O 0.60668 0.44119 0.2528 0.0
O211 O 0.69489 0.44056 0.37953 0.0
O212 O 0.60955 0.42481 0.39387 0.0
O213 O 0.63713 0.49041 0.29644 0.0
O214 O 0.64856 0.41266 0.41483 0.0
O215 O 0.68725 0.47597 0.33896 0.0
O216 O 0.60678 0.4731 0.33886 0.0
O217 O 0.69621 0.40286 0.29986 0.0
O218 O 0.6117 0.39337 0.30691 0.0
O219 O 0.64507 0.45026 0.22413 0.0
Sc220 Sc 0.07326 0.66622 0.86287 0.0
Sc221 Sc 0.02378 0.66443 0.78324 0.0
Sc222 Sc 0.05421 0.6076 0.81777 0.0
O223 O 0.05038 0.64608 0.82121 0.0
C224 C 0.11241 0.62664 0.82307 0.0
C225 C 0.06777 0.7063 0.78349 0.0
C226 C 0.04836 0.62469 0.71529 0.0
C227 C 0.01723 0.68859 0.88041 0.0
C228 C 0.06368 0.61564 0.92076 0.0
C229 C -0.00547 0.61236 0.80431 0.0
O230 O 0.10752 0.64897 0.83741 0.0
O231 O 0.04745 0.69658 0.76824 0.0
O232 O 0.05412 0.60884 0.74596 0.0
O233 O 0.04027 0.68405 0.89153 0.0
O234 O 0.0548 0.60218 0.88909 0.0
O235 O -0.00442 0.63516 0.79027 0.0
O236 O 0.07143 0.63835 0.91512 0.0
O237 O 0.008 0.68332 0.84193 0.0
O238 O 0.01398 0.60042 0.81852 0.0
O239 O 0.07935 0.6972 0.8171 0.0
O240 O 0.09522 0.60994 0.81619 0.0
O241 O 0.03823 0.64643 0.72293 0.0
Sc242 Sc 0.81589 0.07458 0.35997 0.0
Sc243 Sc 0.82441 0.02768 0.27676 0.0
Sc244 Sc 0.87775 0.05687 0.32705 0.0
O245 O 0.83934 0.05299 0.32136 0.0
C246 C 0.85775 0.11466 0.33027 0.0
C247 C 0.78344 0.07237 0.27004 0.0
C248 C 0.86951 0.05261 0.22122 0.0
C249 C 0.79159 0.01869 0.36456 0.0
C250 C 0.86166 0.06412 0.42841 0.0
C251 C 0.87352 -0.00262 0.3114 0.0
O252 O 0.83504 0.10928 0.34192 0.0
O253 O 0.79421 0.05244 0.25523 0.0
O254 O 0.88289 0.05732 0.25571 0.0
O255 O 0.79525 0.04106 0.37995 0.0
O256 O 0.87756 0.05714 0.39883 0.0
O257 O 0.85253 -0.0009 0.29051 0.0
O258 O 0.83905 0.07099 0.41905 0.0
O259 O 0.80071 0.01057 0.32772 0.0
O260 O 0.88441 0.01649 0.32925 0.0
O261 O 0.7894 0.08241 0.30715 0.0
O262 O 0.87507 0.09788 0.32494 0.0
O263 O 0.8472 0.04304 0.22303 0.0
Sc264 Sc 0.43432 0.60364 0.16819 0.0
Sc265 Sc 0.46114 0.66217 0.20283 0.0
Sc266 Sc 0.41576 0.66054 0.11581 0.0
O267 O 0.43713 0.64214 0.16231 0.0
C268 C 0.42918 0.60889 0.06371 0.0
C269 C 0.49307 0.61077 0.18834 0.0
C270 C 0.47138 0.68476 0.10509 0.0
C271 C 0.43614 0.62253 0.2699 0.0
C272 C 0.37605 0.62115 0.1556 0.0
C273 C 0.41593 0.7024 0.193 0.0
O274 O 0.43592 0.59621 0.09781 0.0
O275 O 0.49061 0.63374 0.20113 0.0
O276 O 0.44934 0.67874 0.0906 0.0
O277 O 0.43231 0.60615 0.23934 0.0
O278 O 0.38097 0.64283 0.13839 0.0
O279 O 0.43528 0.69336 0.21284 0.0
O280 O 0.39329 0.60513 0.1663 0.0
O281 O 0.44517 0.64474 0.26249 0.0
O282 O 0.40682 0.69263 0.15768 0.0
O283 O 0.47479 0.59797 0.17178 0.0
O284 O 0.42116 0.63169 0.0659 0.0
O285 O 0.4787 0.68089 0.14534 0.0
Sc286 Sc 0.87555 0.42967 0.65985 0.0
Sc287 Sc 0.82337 0.45808 0.71518 0.0
Sc288 Sc 0.81331 0.41241 0.63014 0.0
O289 O 0.83738 0.43348 0.6684 0.0
C290 C 0.85783 0.42513 0.55992 0.0
C291 C 0.87193 0.48897 0.68123 0.0
C292 C 0.78887 0.4682 0.62939 0.0
C293 C 0.86954 0.43117 0.76583 0.0
C294 C 0.85567 0.37182 0.65344 0.0
C295 C 0.78267 0.41326 0.72227 0.0
O296 O 0.87373 0.43285 0.58884 0.0
O297 O 0.85049 0.48729 0.70059 0.0
O298 O 0.79275 0.44628 0.61229 0.0
O299 O 0.88135 0.42582 0.72997 0.0
O300 O 0.8324 0.37731 0.6462 0.0
O301 O 0.79424 0.43251 0.73795 0.0
O302 O 0.87309 0.38865 0.65644 0.0
O303 O 0.84806 0.44263 0.76661 0.0
O304 O 0.78739 0.40427 0.68378 0.0
O305 O 0.88299 0.46993 0.66342 0.0
O306 O 0.8359 0.41662 0.57025 0.0
O307 O 0.79814 0.47555 0.66662 0.0
Sc308 Sc 0.05727 0.88425 0.16392 0.0
Sc309 Sc 0.03143 0.82653 0.2046 0.0
Sc310 Sc 0.07296 0.82658 0.11179 0.0
O311 O 0.05382 0.84577 0.16022 0.0
C312 C 0.05761 0.87782 0.05978 0.0
C313 C -0.00104 0.87727 0.19062 0.0
C314 C 0.01739 0.80223 0.10937 0.0
C315 C 0.05975 0.86737 0.26634 0.0
C316 C 0.11457 0.86589 0.14349 0.0
C317 C 0.076 0.78626 0.19169 0.0
O318 O 0.0512 0.89047 0.09409 0.0
O319 O 0.00125 0.85409 0.20225 0.0
O320 O 0.03817 0.80909 0.09091 0.0
O321 O 0.06379 0.88271 0.23424 0.0
O322 O 0.10882 0.84358 0.13005 0.0
O323 O 0.05849 0.79653 0.21469 0.0
O324 O 0.09793 0.88252 0.15418 0.0
O325 O 0.04865 0.84587 0.26146 0.0
O326 O 0.08255 0.79445 0.15344 0.0
O327 O 0.01733 0.89026 0.17485 0.0
O328 O 0.06663 0.85537 0.06187 0.0
O329 O 0.01247 0.80566 0.15083 0.0
Sc330 Sc 0.60959 0.05362 0.67072 0.0
Sc331 Sc 0.66467 0.02317 0.70878 0.0
Sc332 Sc 0.66967 0.07586 0.63691 0.0
O333 O 0.64801 0.05091 0.67178 0.0
C334 C 0.62321 0.06963 0.57012 0.0
C335 C 0.61444 -0.00516 0.67305 0.0
C336 C 0.69537 0.02104 0.61894 0.0
C337 C 0.62168 0.04107 0.77348 0.0
C338 C 0.62685 0.1114 0.68038 0.0
C339 C 0.70486 0.06842 0.72131 0.0
O340 O 0.60758 0.06312 0.60057 0.0
O341 O 0.6346 -0.00382 0.69652 0.0
O342 O 0.69325 0.04502 0.61212 0.0
O343 O 0.60632 0.04473 0.74109 0.0
O344 O 0.64785 0.10837 0.65956 0.0
O345 O 0.69718 0.0458 0.72837 0.0
O346 O 0.61146 0.09323 0.68869 0.0
O347 O 0.64526 0.03611 0.76792 0.0
O348 O 0.69505 0.08265 0.69166 0.0
O349 O 0.60495 0.01417 0.65349 0.0
O350 O 0.6468 0.07316 0.57753 0.0
O351 O 0.68448 0.00918 0.6508 0.0
H352 H 0.59441 0.24302 0.15012 0.0
H353 H 0.57105 0.22053 0.28325 0.0
H354 H 0.60941 0.28386 0.17956 0.0
H355 H 0.58649 0.26133 0.31258 0.0
H356 H 0.64334 0.32871 0.34509 0.0
H357 H 0.63125 0.28639 0.31719 0.0
H358 H 0.58309 0.32156 0.21746 0.0
H359 H 0.59471 0.36373 0.24552 0.0
C360 C 0.59278 0.24666 0.18571 0.0
C361 C 0.58144 0.22868 0.21438 0.0
C362 C 0.60125 0.27002 0.20242 0.0
C363 C 0.59898 0.27559 0.24818 0.0
C364 C 0.5885 0.25732 0.27718 0.0
C365 C 0.57957 0.23412 0.26035 0.0
C366 C 0.63016 0.32735 0.31725 0.0
C367 C 0.61987 0.34946 0.29756 0.0
C368 C 0.62323 0.30322 0.30147 0.0
C369 C 0.60638 0.30091 0.26519 0.0
C370 C 0.59628 0.32296 0.2453 0.0
C371 C 0.60278 0.34702 0.26157 0.0
H372 H 0.25752 0.54801 0.7902 0.0
H373 H 0.26148 0.61577 0.70763 0.0
H374 H 0.21756 0.56336 0.82246 0.0
H375 H 0.22148 0.63075 0.73938 0.0
H376 H 0.15467 0.65757 0.82347 0.0
H377 H 0.19876 0.6453 0.80772 0.0
H378 H 0.17476 0.56725 0.78766 0.0
H379 H 0.13097 0.57924 0.80378 0.0
C380 C 0.25012 0.56634 0.77945 0.0
C381 C 0.26246 0.58047 0.74582 0.0
C382 C 0.2272 0.57504 0.79776 0.0
C383 C 0.2163 0.59808 0.783 0.0
C384 C 0.22949 0.61299 0.75157 0.0
C385 C 0.25232 0.60426 0.73313 0.0
C386 C 0.15883 0.63776 0.81599 0.0
C387 C 0.13925 0.61943 0.81454 0.0
C388 C 0.18406 0.63078 0.80697 0.0
C389 C 0.19017 0.60532 0.7967 0.0
C390 C 0.17069 0.58694 0.79621 0.0
C391 C 0.14552 0.59391 0.80494 0.0
H392 H 0.90512 0.1358 0.32404 0.0
H393 H 0.82481 0.15409 0.31364 0.0
H394 H 0.91587 0.17897 0.30079 0.0
H395 H 0.83574 0.19749 0.29046 0.0
H396 H 0.87215 0.254 0.18458 0.0
H397 H 0.85678 0.21507 0.22036 0.0
H398 H 0.91219 0.22454 0.32604 0.0
H399 H 0.92776 0.26329 0.29046 0.0
C400 C 0.88976 0.14911 0.31725 0.0
C401 C 0.86412 0.14149 0.32038 0.0
C402 C 0.89593 0.17388 0.30428 0.0
C403 C 0.8766 0.19149 0.29384 0.0
C404 C 0.85096 0.18417 0.29811 0.0
C405 C 0.84475 0.15941 0.31157 0.0
C406 C 0.88086 0.24798 0.21573 0.0
C407 C 0.90145 0.26155 0.23425 0.0
C408 C 0.87192 0.2258 0.23635 0.0
C409 C 0.88348 0.21677 0.2757 0.0
C410 C 0.9032 0.23097 0.29538 0.0
C411 C 0.91205 0.25317 0.27496 0.0
H412 H 0.3354 0.83104 0.78903 0.0
H413 H 0.34402 0.89616 0.87608 0.0
H414 H 0.29231 0.8447 0.77044 0.0
H415 H 0.3002 0.90897 0.8606 0.0
H416 H 0.24034 0.9452 0.76897 0.0
H417 H 0.27875 0.92843 0.80326 0.0
H418 H 0.24996 0.85151 0.78681 0.0
H419 H 0.21226 0.86855 0.74946 0.0
C420 C 0.32768 0.84789 0.80518 0.0
C421 C 0.34295 0.86278 0.83342 0.0
C422 C 0.30288 0.85569 0.79486 0.0
C423 C 0.29268 0.87822 0.81353 0.0
C424 C 0.30757 0.89201 0.84441 0.0
C425 C 0.3326 0.8846 0.85364 0.0
C426 C 0.2421 0.92474 0.77334 0.0
C427 C 0.22353 0.90815 0.7562 0.0
C428 C 0.2641 0.91503 0.79334 0.0
C429 C 0.26775 0.88848 0.79765 0.0
C430 C 0.24824 0.872 0.78304 0.0
C431 C 0.22652 0.88172 0.76197 0.0
H432 H 0.57345 0.26661 0.71052 0.0
H433 H 0.59526 0.24389 0.84435 0.0
H434 H 0.58891 0.22574 0.68164 0.0
H435 H 0.6104 0.20301 0.81531 0.0
H436 H 0.59548 0.12327 0.74987 0.0
H437 H 0.58472 0.16561 0.77808 0.0
H438 H 0.63239 0.19994 0.67676 0.0
H439 H 0.64354 0.15744 0.64857 0.0
C440 C 0.58168 0.25297 0.73367 0.0
C441 C 0.58301 0.25835 0.77972 0.0
C442 C 0.59064 0.22972 0.7171 0.0
C443 C 0.60068 0.21135 0.74639 0.0
C444 C 0.60256 0.2169 0.79221 0.0
C445 C 0.59401 0.2403 0.8087 0.0
C446 C 0.60365 0.13983 0.73352 0.0
C447 C 0.62028 0.13709 0.69692 0.0
C448 C 0.59765 0.16399 0.74991 0.0
C449 C 0.60784 0.18588 0.7296 0.0
C450 C 0.62431 0.18326 0.69283 0.0
C451 C 0.6307 0.15901 0.67687 0.0
H452 H 0.35747 0.57439 0.17881 0.0
H453 H 0.33387 0.65226 0.15376 0.0
H454 H 0.3141 0.5634 0.19976 0.0
H455 H 0.29013 0.641 0.17436 0.0
H456 H 0.23087 0.54535 0.20415 0.0
H457 H 0.27064 0.55886 0.16926 0.0
H458 H 0.26879 0.62883 0.2457 0.0
H459 H 0.22884 0.6156 0.28024 0.0
C460 C 0.34298 0.58914 0.17734 0.0
C461 C 0.3492 0.61427 0.16492 0.0
C462 C 0.31805 0.58275 0.18898 0.0
C463 C 0.29873 0.60134 0.18863 0.0
C464 C 0.30472 0.62634 0.1752 0.0
C465 C 0.32972 0.63273 0.16324 0.0
C466 C 0.23874 0.56376 0.21318 0.0
C467 C 0.22681 0.57923 0.24549 0.0
C468 C 0.26156 0.57144 0.19325 0.0
C469 C 0.27291 0.59478 0.20508 0.0
C470 C 0.26039 0.61082 0.23568 0.0
C471 C 0.23758 0.60313 0.25572 0.0
H472 H 0.82379 0.33112 0.66774 0.0
H473 H 0.90359 0.35165 0.65862 0.0
H474 H 0.83588 0.28793 0.69019 0.0
H475 H 0.9155 0.30881 0.68158 0.0
H476 H 0.93125 0.22574 0.69691 0.0
H477 H 0.91499 0.26369 0.65956 0.0
H478 H 0.85551 0.27022 0.75908 0.0
H479 H 0.87145 0.232 0.79623 0.0
C480 C 0.84388 0.32636 0.66991 0.0
C481 C 0.86273 0.34491 0.66177 0.0
C482 C 0.85076 0.30169 0.683 0.0
C483 C 0.87661 0.29506 0.68783 0.0
C484 C 0.89542 0.31326 0.6777 0.0
C485 C 0.88857 0.3379 0.66487 0.0
C486 C 0.91453 0.23507 0.71064 0.0
C487 C 0.90288 0.22603 0.75 0.0
C488 C 0.90526 0.25683 0.68922 0.0
C489 C 0.88415 0.27003 0.70664 0.0
C490 C 0.8717 0.26031 0.74466 0.0
C491 C 0.88097 0.23851 0.76613 0.0
H492 H 0.13435 0.91318 0.15864 0.0
H493 H 0.15624 0.8341 0.14175 0.0
H494 H 0.17794 0.92397 0.17786 0.0
H495 H 0.20029 0.84516 0.16028 0.0
H496 H 0.25902 0.87162 0.26958 0.0
H497 H 0.22057 0.85808 0.23082 0.0
H498 H 0.22185 0.92724 0.15198 0.0
H499 H 0.26006 0.94117 0.19141 0.0
C500 C 0.14855 0.89813 0.15834 0.0
C501 C 0.14173 0.8727 0.14931 0.0
C502 C 0.17364 0.90439 0.16891 0.0
C503 C 0.19252 0.88539 0.17073 0.0
C504 C 0.18603 0.86015 0.15957 0.0
C505 C 0.16085 0.85386 0.1488 0.0
C506 C 0.25134 0.88383 0.24358 0.0
C507 C 0.26234 0.90772 0.23423 0.0
C508 C 0.2294 0.87593 0.22107 0.0
C509 C 0.21808 0.89171 0.18864 0.0
C510 C 0.22995 0.91488 0.17735 0.0
C511 C 0.25184 0.92283 0.19995 0.0
H512 H 0.32865 0.65162 0.68558 0.0
H513 H 0.40838 0.63066 0.67674 0.0
H514 H 0.34085 0.69427 0.71079 0.0
H515 H 0.42039 0.67314 0.70205 0.0
H516 H 0.43308 0.7586 0.70862 0.0
H517 H 0.41812 0.71878 0.67587 0.0
H518 H 0.36204 0.71153 0.78105 0.0
H519 H 0.37683 0.75149 0.81397 0.0
C520 C 0.34874 0.65616 0.68859 0.0
C521 C 0.36756 0.63774 0.6793 0.0
C522 C 0.35568 0.68049 0.70326 0.0
C523 C 0.38153 0.68691 0.70834 0.0
C524 C 0.40033 0.66874 0.69798 0.0
C525 C 0.39342 0.64437 0.68377 0.0
C526 C 0.41743 0.74867 0.72466 0.0
C527 C 0.40629 0.75813 0.76417 0.0
C528 C 0.40895 0.72584 0.70593 0.0
C529 C 0.38904 0.7121 0.72609 0.0
C530 C 0.37731 0.7219 0.7647 0.0
C531 C 0.38591 0.74467 0.78368 0.0
H532 H 0.72772 0.43764 0.19448 0.0
H533 H 0.73049 0.37122 0.28044 0.0
H534 H 0.7652 0.4222 0.15443 0.0
H535 H 0.76822 0.35624 0.24119 0.0
H536 H 0.83011 0.32783 0.15147 0.0
H537 H 0.78672 0.34016 0.17211 0.0
H538 H 0.80968 0.41938 0.17475 0.0
H539 H 0.85257 0.40728 0.15317 0.0
C540 C 0.73619 0.41968 0.20468 0.0
C541 C 0.72629 0.40587 0.24112 0.0
C542 C 0.75769 0.41087 0.18176 0.0
C543 C 0.76981 0.3881 0.19485 0.0
C544 C 0.75919 0.37369 0.22988 0.0
C545 C 0.73765 0.38244 0.25268 0.0
C546 C 0.82576 0.34791 0.15561 0.0
C547 C 0.84492 0.36653 0.15122 0.0
C548 C 0.80094 0.35495 0.16768 0.0
C549 C 0.79481 0.38072 0.17545 0.0
C550 C 0.81364 0.39939 0.16859 0.0
C551 C 0.83837 0.39239 0.15657 0.0
H552 H 0.15628 0.83398 0.67751 0.0
H553 H 0.07813 0.86017 0.68742 0.0
H554 H 0.14294 0.79146 0.70111 0.0
H555 H 0.06501 0.81778 0.71141 0.0
H556 H 0.04655 0.73343 0.71467 0.0
H557 H 0.06157 0.77344 0.68268 0.0
H558 H 0.12638 0.77245 0.77199 0.0
H559 H 0.11163 0.73225 0.80385 0.0
C560 C 0.13626 0.83067 0.68442 0.0
C561 C 0.11828 0.85052 0.6807 0.0
C562 C 0.12868 0.80636 0.69816 0.0
C563 C 0.10298 0.80138 0.70812 0.0
C564 C 0.08492 0.82103 0.70346 0.0
C565 C 0.09249 0.84536 0.68999 0.0
C566 C 0.06412 0.74159 0.72733 0.0
C567 C 0.07778 0.72971 0.76212 0.0
C568 C 0.07263 0.76456 0.70908 0.0
C569 C 0.09503 0.77608 0.72504 0.0
C570 C 0.10914 0.76386 0.7588 0.0
C571 C 0.10059 0.74092 0.77722 0.0
H572 H 0.65435 0.15957 0.16341 0.0
H573 H 0.63558 0.07917 0.16143 0.0
H574 H 0.6984 0.14893 0.18316 0.0
H575 H 0.67924 0.06872 0.18148 0.0
H576 H 0.75609 0.11547 0.28958 0.0
H577 H 0.71753 0.13059 0.25278 0.0
H578 H 0.72403 0.07016 0.15506 0.0
H579 H 0.76246 0.05468 0.1921 0.0
C580 C 0.65967 0.13967 0.16662 0.0
C581 C 0.64144 0.12022 0.16135 0.0
C582 C 0.68482 0.13361 0.17804 0.0
C583 C 0.69218 0.10803 0.18385 0.0
C584 C 0.6742 0.0886 0.17667 0.0
C585 C 0.64911 0.09462 0.16564 0.0
C586 C 0.74953 0.10556 0.25991 0.0
C587 C 0.7621 0.08356 0.2443 0.0
C588 C 0.72756 0.1144 0.2386 0.0
C589 C 0.71771 0.1014 0.20133 0.0
C590 C 0.73107 0.08032 0.18413 0.0
C591 C 0.75309 0.0715 0.20535 0.0
H592 H 0.38932 0.86139 0.2327 0.0
H593 H 0.34561 0.82838 0.34095 0.0
H594 H 0.39995 0.81865 0.20587 0.0
H595 H 0.35673 0.78553 0.31429 0.0
H596 H 0.41757 0.72027 0.27874 0.0
H597 H 0.40169 0.76129 0.30633 0.0
H598 H 0.37318 0.77924 0.1745 0.0
H599 H 0.38862 0.73808 0.14686 0.0
C600 C 0.38207 0.84501 0.25083 0.0
C601 C 0.36672 0.84817 0.289 0.0
C602 C 0.38799 0.82062 0.23527 0.0
C603 C 0.37905 0.79897 0.25803 0.0
C604 C 0.36382 0.80203 0.2963 0.0
C605 C 0.35745 0.82647 0.3114 0.0
C606 C 0.40766 0.73285 0.25578 0.0
C607 C 0.40442 0.72606 0.21061 0.0
C608 C 0.3985 0.7562 0.27163 0.0
C609 C 0.38637 0.7733 0.24239 0.0
C610 C 0.3826 0.76632 0.19753 0.0
C611 C 0.39132 0.74278 0.18185 0.0
H612 H 0.65406 0.3264 0.83067 0.0
H613 H 0.63672 0.40706 0.8374 0.0
H614 H 0.69809 0.33654 0.81017 0.0
H615 H 0.68042 0.41703 0.8167 0.0
H616 H 0.76371 0.42957 0.8027 0.0
H617 H 0.72574 0.41407 0.8411 0.0
H618 H 0.71621 0.35584 0.74016 0.0
H619 H 0.75429 0.37101 0.70188 0.0
C620 C 0.65972 0.34625 0.82845 0.0
C621 C 0.64187 0.36595 0.83513 0.0
C622 C 0.68486 0.35201 0.81659 0.0
C623 C 0.6926 0.37754 0.81179 0.0
C624 C 0.67507 0.39718 0.82065 0.0
C625 C 0.64996 0.39145 0.83207 0.0
C626 C 0.75379 0.4132 0.78902 0.0
C627 C 0.76178 0.40182 0.74874 0.0
C628 C 0.73204 0.40438 0.81103 0.0
C629 C 0.71796 0.38394 0.79334 0.0
C630 C 0.72682 0.37152 0.75471 0.0
C631 C 0.74852 0.38039 0.73258 0.0
H632 H 0.09927 0.74836 0.14408 0.0
H633 H 0.07944 0.77114 0.27879 0.0
H634 H 0.11429 0.70722 0.17246 0.0
H635 H 0.09472 0.7301 0.30697 0.0
H636 H 0.14586 0.65987 0.33971 0.0
H637 H 0.13686 0.70278 0.31112 0.0
H638 H 0.08776 0.67056 0.20981 0.0
H639 H 0.0964 0.62781 0.23842 0.0
C640 C 0.09855 0.74477 0.17977 0.0
C641 C 0.088 0.76284 0.20921 0.0
C642 C 0.10701 0.72123 0.1959 0.0
C643 C 0.10548 0.71559 0.24176 0.0
C644 C 0.09617 0.73411 0.27148 0.0
C645 C 0.08732 0.75748 0.25531 0.0
C646 C 0.13318 0.66198 0.31131 0.0
C647 C 0.1217 0.64054 0.29145 0.0
C648 C 0.12805 0.68646 0.29507 0.0
C649 C 0.11178 0.6898 0.2582 0.0
C650 C 0.10059 0.66838 0.238 0.0
C651 C 0.10535 0.64399 0.25466 0.0
H652 H 0.85843 0.07827 0.81065 0.0
H653 H 0.83144 0.15484 0.83755 0.0
H654 H 0.81539 0.06529 0.79137 0.0
H655 H 0.78808 0.14154 0.81898 0.0
H656 H 0.72714 0.11548 0.71485 0.0
H657 H 0.7666 0.12968 0.74939 0.0
H658 H 0.77245 0.05799 0.82023 0.0
H659 H 0.73313 0.04342 0.78492 0.0
C660 C 0.84328 0.09229 0.81302 0.0
C661 C 0.84848 0.1177 0.82522 0.0
C662 C 0.81852 0.08475 0.80234 0.0
C663 C 0.79835 0.10239 0.80361 0.0
C664 C 0.80332 0.12759 0.81725 0.0
C665 C 0.82815 0.13516 0.82803 0.0
C666 C 0.73663 0.10279 0.73816 0.0
C667 C 0.72713 0.07814 0.74657 0.0
C668 C 0.75918 0.11105 0.75826 0.0
C669 C 0.77272 0.09488 0.78728 0.0
C670 C 0.76261 0.07072 0.79745 0.0
C671 C 0.74003 0.06242 0.77733 0.0
H672 H 0.5821 0.13314 0.98756 0.0
H673 H 0.55088 0.06254 0.03944 0.0
H674 H 0.59562 0.11106 0.92022 0.0
H675 H 0.56416 0.04062 0.97053 0.0
H676 H 0.57236 0.03695 0.80197 0.0
H677 H 0.55505 0.05097 0.87406 0.0
H678 H 0.63108 0.06908 0.91929 0.0
H679 H 0.64861 0.05477 0.84773 0.0
C680 C 0.57771 0.11301 0.98443 0.0
C681 C 0.56568 0.09954 0.01931 0.0
C682 C 0.5856 0.10041 0.94591 0.0
C683 C 0.58129 0.0742 0.94101 0.0
C684 C 0.56781 0.06088 0.97414 0.0
C685 C 0.56016 0.07345 0.01329 0.0
C686 C 0.58543 0.04339 0.82769 0.0
C687 C 0.61181 0.04506 0.81914 0.0
C688 C 0.57551 0.05123 0.86883 0.0
C689 C 0.59181 0.06114 0.90162 0.0
C690 C 0.61826 0.06145 0.89417 0.0
C691 C 0.62824 0.05323 0.85337 0.0
H692 H 0.40845 0.54851 0.52642 0.0
H693 H 0.34202 0.59513 0.49924 0.0
H694 H 0.4281 0.5636 0.45738 0.0
H695 H 0.36175 0.61002 0.43009 0.0
H696 H 0.41757 0.65256 0.33773 0.0
H697 H 0.40006 0.63769 0.40939 0.0
H698 H 0.42048 0.56018 0.3752 0.0
H699 H 0.43793 0.5749 0.30436 0.0
C700 C 0.39788 0.56167 0.50545 0.0
C701 C 0.37366 0.57061 0.5184 0.0
C702 C 0.40918 0.57036 0.46602 0.0
C703 C 0.39658 0.58826 0.43888 0.0
C704 C 0.37206 0.59659 0.45095 0.0
C705 C 0.36064 0.58775 0.49021 0.0
C706 C 0.41869 0.63246 0.34607 0.0
C707 C 0.42893 0.61486 0.31556 0.0
C708 C 0.40846 0.62392 0.38668 0.0
C709 C 0.40874 0.59776 0.39748 0.0
C710 C 0.42009 0.58043 0.3678 0.0
C711 C 0.42998 0.58887 0.32721 0.0
H712 H 0.92226 0.3382 0.98141 0.0
H713 H 0.93264 0.41462 0.0333 0.0
H714 H 0.911 0.35595 0.90865 0.0
H715 H 0.92133 0.43222 0.96041 0.0
H716 H 0.85772 0.44614 0.85136 0.0
H717 H 0.87755 0.43118 0.92072 0.0
H718 H 0.92825 0.38278 0.84456 0.0
H719 H 0.90862 0.39743 0.77555 0.0
C720 C 0.9227 0.35873 0.97702 0.0
C721 C 0.928 0.37501 0.01318 0.0
C722 C 0.91631 0.36887 0.9354 0.0
C723 C 0.91495 0.39542 0.92943 0.0
C724 C 0.92191 0.41168 0.96461 0.0
C725 C 0.9286 0.40156 0.00611 0.0
C726 C 0.87315 0.4324 0.84947 0.0
C727 C 0.88152 0.42294 0.80805 0.0
C728 C 0.88463 0.42405 0.88902 0.0
C729 C 0.90444 0.40594 0.88766 0.0
C730 C 0.91297 0.3967 0.84634 0.0
C731 C 0.90171 0.40518 0.80691 0.0
H732 H 0.06588 0.91593 0.29544 0.0
H733 H 0.07419 0.83737 0.33744 0.0
H734 H 0.08376 0.93031 0.36615 0.0
H735 H 0.09228 0.85199 0.40881 0.0
H736 H 0.15106 0.88987 0.50414 0.0
H737 H 0.13349 0.8761 0.43237 0.0
H738 H 0.07099 0.92912 0.44807 0.0
H739 H 0.08839 0.9429 0.51984 0.0
C740 C 0.07144 0.90171 0.31992 0.0
C741 C 0.06871 0.87549 0.31091 0.0
C742 C 0.08159 0.91 0.36043 0.0
C743 C 0.0895 0.89226 0.39268 0.0
C744 C 0.08652 0.86602 0.38413 0.0
C745 C 0.07599 0.85767 0.34363 0.0
C746 C 0.13382 0.89894 0.49193 0.0
C747 C 0.1211 0.9175 0.51765 0.0
C748 C 0.12362 0.89078 0.45119 0.0
C749 C 0.10075 0.90132 0.43514 0.0
C750 C 0.08865 0.92067 0.4598 0.0
C751 C 0.09864 0.92858 0.50079 0.0
H752 H 0.55177 0.42479 0.95256 0.0
H753 H 0.5779 0.35311 0.00851 0.0
H754 H 0.56469 0.44666 0.02167 0.0
H755 H 0.59106 0.37515 0.07622 0.0
H756 H 0.64746 0.43304 0.14341 0.0
H757 H 0.62908 0.41899 0.07233 0.0
H758 H 0.55338 0.43385 0.12262 0.0
H759 H 0.57151 0.44765 0.19419 0.0
C760 C 0.55978 0.41364 0.97968 0.0
C761 C 0.56409 0.38724 0.97474 0.0
C762 C 0.56722 0.42619 0.01895 0.0
C763 C 0.57918 0.41248 0.05335 0.0
C764 C 0.58214 0.38602 0.04959 0.0
C765 C 0.5745 0.37347 0.01084 0.0
C766 C 0.62695 0.43393 0.13902 0.0
C767 C 0.6109 0.44114 0.17449 0.0
C768 C 0.6165 0.42589 0.09847 0.0
C769 C 0.58995 0.42543 0.09256 0.0
C770 C 0.57392 0.43426 0.12668 0.0
C771 C 0.58433 0.44197 0.16752 0.0
H772 H 0.14022 0.60186 0.48261 0.0
H773 H 0.07373 0.55627 0.45174 0.0
H774 H 0.12034 0.61538 0.55258 0.0
H775 H 0.05406 0.56966 0.52227 0.0
H776 H 0.04892 0.57691 0.68019 0.0
H777 H 0.06497 0.56374 0.60702 0.0
H778 H 0.07972 0.64251 0.57331 0.0
H779 H 0.06326 0.65585 0.64658 0.0
C780 C 0.12151 0.59446 0.49098 0.0
C781 C 0.10857 0.57793 0.46166 0.0
C782 C 0.11004 0.60247 0.53076 0.0
C783 C 0.0856 0.59378 0.5424 0.0
C784 C 0.07292 0.57667 0.51387 0.0
C785 C 0.08419 0.569 0.47364 0.0
C786 C 0.05526 0.59146 0.6569 0.0
C787 C 0.05495 0.6174 0.66902 0.0
C788 C 0.06434 0.58391 0.61506 0.0
C789 C 0.07372 0.60211 0.58484 0.0
C790 C 0.07274 0.62813 0.59632 0.0
C791 C 0.06317 0.63575 0.63796 0.0
H792 H 0.94574 0.07947 0.96466 0.0
H793 H 0.90142 0.14679 -0.00312 0.0
H794 H 0.93358 0.06058 0.03666 0.0
H795 H 0.88911 0.1276 0.06777 0.0
H796 H 0.84305 0.06635 0.1465 0.0
H797 H 0.8605 0.08383 0.07704 0.0
H798 H 0.93698 0.07361 0.12751 0.0
H799 H 0.91965 0.05654 0.19757 0.0
C800 C 0.93382 0.0904 0.98727 0.0
C801 C 0.92436 0.11454 0.97477 0.0
C802 C 0.92688 0.07957 0.0283 0.0
C803 C 0.91011 0.09256 0.05696 0.0
C804 C 0.9018 0.11716 0.04571 0.0
C805 C 0.90904 0.12816 0.00523 0.0
C806 C 0.86358 0.06749 0.14257 0.0
C807 C 0.88 0.06021 0.17743 0.0
C808 C 0.87351 0.07763 0.10306 0.0
C809 C 0.9 0.08016 0.09746 0.0
C810 C 0.9165 0.0718 0.13132 0.0
C811 C 0.90656 0.06213 0.17125 0.0
H812 H 0.38881 0.89804 0.70008 0.0
H813 H 0.44405 0.84738 0.63907 0.0
H814 H 0.37437 0.91129 0.62671 0.0
H815 H 0.42904 0.86057 0.56496 0.0
H816 H 0.41307 0.91229 0.44281 0.0
H817 H 0.42872 0.89948 0.51634 0.0
H818 H 0.35109 0.89282 0.5636 0.0
H819 H 0.33536 0.90595 0.49057 0.0
C820 C 0.39789 0.88962 0.67103 0.0
C821 C 0.41768 0.8716 0.67557 0.0
C822 C 0.38944 0.89717 0.6289 0.0
C823 C 0.40052 0.88694 0.59014 0.0
C824 C 0.42032 0.86894 0.59438 0.0
C825 C 0.42878 0.86126 0.63676 0.0
C826 C 0.39932 0.90834 0.46898 0.0
C827 C 0.37293 0.9102 0.46074 0.0
C828 C 0.40832 0.90075 0.51094 0.0
C829 C 0.39114 0.89501 0.54557 0.0
C830 C 0.3648 0.89731 0.53762 0.0
C831 C 0.35579 0.90481 0.4957 0.0
H832 H 0.44081 0.91809 0.95199 0.0
H833 H 0.39823 0.85195 -0.00338 0.0
H834 H 0.42809 0.94085 0.02025 0.0
H835 H 0.38543 0.87489 0.06348 0.0
H836 H 0.33901 0.93392 0.13785 0.0
H837 H 0.3559 0.91839 0.06673 0.0
H838 H 0.43275 0.93151 0.11314 0.0
H839 H 0.41604 0.94687 0.18474 0.0
C840 C 0.4291 0.9083 0.97645 0.0
C841 C 0.42028 0.8833 0.96857 0.0
C842 C 0.4218 0.92136 0.01524 0.0
C843 C 0.40537 0.90968 0.0461 0.0
C844 C 0.3977 0.88437 0.03945 0.0
C845 C 0.40522 0.87123 0.00127 0.0
C846 C 0.35947 0.93413 0.13255 0.0
C847 C 0.37623 0.94122 0.16701 0.0
C848 C 0.36908 0.92517 0.09202 0.0
C849 C 0.39553 0.92359 0.08512 0.0
C850 C 0.41229 0.93262 0.11799 0.0
C851 C 0.4027 0.94125 0.15885 0.0
H852 H 0.64645 0.3854 0.48523 0.0
H853 H 0.5818 0.43525 0.46356 0.0
H854 H 0.62833 0.37201 0.55674 0.0
H855 H 0.56395 0.42202 0.53566 0.0
H856 H 0.56257 0.41256 0.69261 0.0
H857 H 0.57844 0.42593 0.61951 0.0
H858 H 0.58647 0.34701 0.58033 0.0
H859 H 0.57013 0.33347 0.65362 0.0
C860 C 0.62855 0.39377 0.49597 0.0
C861 C 0.61558 0.41147 0.46877 0.0
C862 C 0.61808 0.38586 0.53664 0.0
C863 C 0.59467 0.39582 0.55132 0.0
C864 C 0.58202 0.41406 0.52491 0.0
C865 C 0.59226 0.42163 0.48378 0.0
C866 C 0.56755 0.39803 0.66831 0.0
C867 C 0.56521 0.37196 0.6788 0.0
C868 C 0.5765 0.40572 0.62647 0.0
C869 C 0.58374 0.3875 0.59455 0.0
C870 C 0.58113 0.3614 0.60465 0.0
C871 C 0.57165 0.35367 0.64633 0.0
H872 H 0.08992 0.63585 0.99088 0.0
H873 H 0.04848 0.56821 0.95022 0.0
H874 H 0.10333 0.61434 0.05883 0.0
H875 H 0.06181 0.54687 0.01954 0.0
H876 H 0.07194 0.54249 0.18275 0.0
H877 H 0.05613 0.55697 0.10998 0.0
H878 H 0.13338 0.57252 0.06795 0.0
H879 H 0.14936 0.55779 0.14035 0.0
C880 C 0.08333 0.61652 -0.00339 0.0
C881 C 0.06827 0.60367 0.96481 0.0
C882 C 0.09124 0.60419 0.03539 0.0
C883 C 0.08397 0.5789 0.04362 0.0
C884 C 0.06779 0.56635 0.01339 0.0
C885 C 0.06014 0.5786 0.97397 0.0
C886 C 0.08558 0.54852 0.15761 0.0
C887 C 0.11186 0.54932 0.16726 0.0
C888 C 0.07652 0.55665 0.11607 0.0
C889 C 0.09359 0.56601 0.08396 0.0
C890 C 0.11993 0.56547 0.09257 0.0
C891 C 0.12904 0.55696 0.13381 0.0
H892 H 0.90511 0.04478 0.46664 0.0
H893 H 0.83977 0.09283 0.4942 0.0
H894 H 0.92406 0.0575 0.53807 0.0
H895 H 0.85894 0.1056 0.56504 0.0
H896 H 0.91917 0.14873 0.64928 0.0
H897 H 0.9005 0.1324 0.57993 0.0
H898 H 0.91387 0.05512 0.62437 0.0
H899 H 0.9323 0.07131 0.69396 0.0
C900 C 0.89461 0.0577 0.48819 0.0
C901 C 0.87101 0.06791 0.47461 0.0
C902 C 0.90548 0.06496 0.52895 0.0
C903 C 0.89309 0.08282 0.55642 0.0
C904 C 0.869 0.0921 0.54395 0.0
C905 C 0.85795 0.08455 0.50362 0.0
C906 C 0.91843 0.12828 0.644 0.0
C907 C 0.9271 0.11129 0.67703 0.0
C908 C 0.90755 0.11896 0.6046 0.0
C909 C 0.90557 0.09254 0.59727 0.0
C910 C 0.91518 0.07556 0.6294 0.0
C911 C 0.92566 0.08485 0.66912 0.0
H912 H 0.41811 0.5646 0.78472 0.0
H913 H 0.35079 0.53663 0.853 0.0
H914 H 0.43701 0.57595 0.85609 0.0
H915 H 0.37006 0.54817 0.92478 0.0
H916 H 0.42039 0.55839 0.0482 0.0
H917 H 0.40923 0.53883 0.97637 0.0
H918 H 0.42254 0.61087 0.90997 0.0
H919 H 0.43345 0.63043 0.98144 0.0
C920 C 0.40738 0.56061 0.81492 0.0
C921 C 0.38269 0.55003 0.81307 0.0
C922 C 0.41831 0.56711 0.85575 0.0
C923 C 0.40493 0.56301 0.89566 0.0
C924 C 0.38081 0.5513 0.89429 0.0
C925 C 0.36972 0.54491 0.85325 0.0
C926 C 0.42156 0.56982 0.01804 0.0
C927 C 0.42764 0.59593 0.02021 0.0
C928 C 0.41497 0.5587 0.97718 0.0
C929 C 0.41489 0.57344 0.93797 0.0
C930 C 0.4226 0.59908 0.93979 0.0
C931 C 0.42877 0.61028 0.98061 0.0
H932 H 0.88611 0.39886 0.27597 0.0
H933 H 0.94379 0.3573 0.34974 0.0
H934 H 0.86914 0.41585 0.34557 0.0
H935 H 0.92652 0.37443 0.41981 0.0
H936 H 0.90621 0.43211 0.52821 0.0
H937 H 0.92279 0.41891 0.45576 0.0
H938 H 0.84686 0.39763 0.41393 0.0
H939 H 0.83003 0.41076 0.48651 0.0
C940 C 0.89521 0.39337 0.30709 0.0
C941 C 0.91641 0.37683 0.30746 0.0
C942 C 0.88537 0.40303 0.34686 0.0
C943 C 0.89664 0.39655 0.38779 0.0
C944 C 0.91773 0.37992 0.38842 0.0
C945 C 0.92745 0.36997 0.34851 0.0
C946 C 0.89289 0.42508 0.50339 0.0
C947 C 0.86679 0.42222 0.51336 0.0
C948 C 0.90249 0.41729 0.46211 0.0
C949 C 0.88615 0.40684 0.42984 0.0
C950 C 0.85984 0.40556 0.43849 0.0
C951 C 0.85023 0.41311 0.47998 0.0
H952 H 0.13459 0.95293 0.85316 0.0
H953 H 0.06937 0.92323 0.78101 0.0
H954 H 0.11436 0.94064 0.92374 0.0
H955 H 0.04955 0.91107 0.85125 0.0
H956 H 0.05454 0.85605 0.97735 0.0
H957 H 0.06484 0.87626 0.90607 0.0
H958 H 0.07351 0.94889 0.97271 0.0
H959 H 0.06292 0.92877 0.0442 0.0
C960 C 0.1159 0.94412 0.85232 0.0
C961 C 0.10379 0.93879 0.81143 0.0
C962 C 0.10425 0.93731 0.89266 0.0
C963 C 0.08048 0.9249 0.8926 0.0
C964 C 0.06794 0.92052 0.85198 0.0
C965 C 0.07939 0.92751 0.81182 0.0
C966 C 0.05799 0.87645 0.97658 0.0
C967 C 0.05811 0.89083 0.0162 0.0
C968 C 0.06381 0.888 0.93587 0.0
C969 C 0.07018 0.91402 0.93427 0.0
C970 C 0.06883 0.92875 0.97339 0.0
C971 C 0.06257 0.91727 0.01408 0.0
H972 H 0.5784 0.05359 0.5323 0.0
H973 H 0.64485 0.10033 0.50696 0.0
H974 H 0.56027 0.06701 0.4605 0.0
H975 H 0.62647 0.11393 0.43578 0.0
H976 H 0.56926 0.15388 0.33918 0.0
H977 H 0.58523 0.14046 0.4128 0.0
H978 H 0.57415 0.06152 0.3762 0.0
H979 H 0.55868 0.07476 0.30272 0.0
C980 C 0.58917 0.06659 0.51136 0.0
C981 C 0.6131 0.0758 0.5252 0.0
C982 C 0.57878 0.07427 0.47041 0.0
C983 C 0.5919 0.09169 0.44306 0.0
C984 C 0.61587 0.10073 0.45663 0.0
C985 C 0.62648 0.0927 0.49711 0.0
C986 C 0.57001 0.13371 0.34714 0.0
C987 C 0.56289 0.11535 0.31527 0.0
C988 C 0.57926 0.12605 0.389 0.0
C989 C 0.58095 0.09998 0.39987 0.0
C990 C 0.57293 0.08172 0.36861 0.0
C991 C 0.56421 0.08932 0.32658 0.0
H992 H 0.42355 -0.00364 0.33681 0.0
H993 H 0.35831 0.03747 0.28476 0.0
H994 H 0.45174 0.0288 0.30599 0.0
H995 H 0.38674 0.06974 0.25367 0.0
H996 H 0.49011 0.05905 0.18102 0.0
H997 H 0.45836 0.03402 0.22077 0.0
H998 H 0.42233 0.10311 0.26786 0.0
H999 H 0.45414 0.12851 0.22804 0.0
C1000 C 0.41512 0.01271 0.32021 0.0
C1001 C 0.38875 0.01394 0.31204 0.0
C1002 C 0.4313 0.03111 0.30214 0.0
C1003 C 0.42133 0.05112 0.27617 0.0
C1004 C 0.39483 0.05424 0.27304 0.0
C1005 C 0.37861 0.03576 0.29094 0.0
C1006 C 0.47518 0.06903 0.19901 0.0
C1007 C 0.47499 0.0958 0.20198 0.0
C1008 C 0.45723 0.05467 0.22228 0.0
C1009 C 0.43859 0.06674 0.24857 0.0
C1010 C 0.43685 0.09344 0.24838 0.0
C1011 C 0.45497 0.1079 0.2253 0.0
H1012 H 0.45366 0.3568 0.77033 0.0
H1013 H 0.49132 0.42756 0.80559 0.0
H1014 H 0.42066 0.38097 0.73085 0.0
H1015 H 0.45848 0.45131 0.76609 0.0
H1016 H 0.35729 0.44896 0.71467 0.0
H1017 H 0.3857 0.41688 0.74662 0.0
H1018 H 0.44967 0.45164 0.67911 0.0
H1019 H 0.42157 0.48377 0.6471 0.0
C1020 C 0.45464 0.37746 0.77055 0.0
C1021 C 0.47541 0.39024 0.79047 0.0
C1022 C 0.43584 0.39118 0.74772 0.0
C1023 C 0.43769 0.41779 0.7443 0.0
C1024 C 0.45719 0.43067 0.76722 0.0
C1025 C 0.47579 0.41705 0.79033 0.0
C1026 C 0.37726 0.44929 0.70533 0.0
C1027 C 0.38732 0.46947 0.67958 0.0
C1028 C 0.39347 0.43093 0.72374 0.0
C1029 C 0.41983 0.43252 0.71644 0.0
C1030 C 0.42939 0.45058 0.68607 0.0
C1031 C 0.41324 0.46883 0.66749 0.0
H1032 H 0.03205 0.35841 0.22829 0.0
H1033 H -0.00487 0.42646 0.17739 0.0
H1034 H 0.06373 0.38495 0.26605 0.0
H1035 H 0.02675 0.45264 0.21512 0.0
H1036 H 0.06083 0.49196 0.33157 0.0
H1037 H 0.03317 0.45923 0.30025 0.0
H1038 H 0.09893 0.4187 0.2499 0.0
H1039 H 0.12685 0.45131 0.2814 0.0
C1040 C 0.03099 0.37894 0.22426 0.0
C1041 C 0.01073 0.39033 0.20049 0.0
C1042 C 0.04905 0.39406 0.24611 0.0
C1043 C 0.04702 0.42073 0.24462 0.0
C1044 C 0.02815 0.43206 0.21784 0.0
C1045 C 0.01025 0.41702 0.19577 0.0
C1046 C 0.06953 0.47569 0.31516 0.0
C1047 C 0.096 0.4746 0.30794 0.0
C1048 C 0.05366 0.45713 0.2968 0.0
C1049 C 0.06401 0.43706 0.27147 0.0
C1050 C 0.09056 0.43424 0.26882 0.0
C1051 C 0.10648 0.4529 0.28696 0.0
H1052 H 0.13141 0.04059 0.70647 0.0
H1053 H 0.06469 0.00126 0.65636 0.0
H1054 H 0.10396 0.07265 0.74119 0.0
H1055 H 0.03749 0.03334 0.69102 0.0
H1056 H 0.00064 0.06396 0.8165 0.0
H1057 H 0.03235 0.03837 0.77747 0.0
H1058 H 0.06827 0.10681 0.72755 0.0
H1059 H 0.0365 0.13273 0.76658 0.0
C1060 C 0.11097 0.03925 0.70155 0.0
C1061 C 0.10019 0.01805 0.67953 0.0
C1062 C 0.09531 0.05754 0.72162 0.0
C1063 C 0.06873 0.05482 0.71996 0.0
C1064 C 0.05802 0.03534 0.6937 0.0
C1065 C 0.07363 0.01719 0.67333 0.0
C1066 C 0.01565 0.07369 0.7983 0.0
C1067 C 0.01573 0.1004 0.79401 0.0
C1068 C 0.03357 0.05899 0.77542 0.0
C1069 C 0.05208 0.07071 0.74837 0.0
C1070 C 0.05386 0.0974 0.74766 0.0
C1071 C 0.03576 0.11217 0.77023 0.0
H1072 H 0.62743 0.94977 0.71337 0.0
H1073 H 0.56528 0.98768 0.64483 0.0
H1074 H 0.59757 0.91875 0.74385 0.0
H1075 H 0.53563 0.95635 0.67491 0.0
H1076 H 0.48965 0.9292 0.79436 0.0
H1077 H 0.5224 0.95365 0.75602 0.0
H1078 H 0.56478 0.88447 0.73011 0.0
H1079 H 0.53209 0.85975 0.76887 0.0
C1080 C 0.60756 0.95103 0.70358 0.0
C1081 C 0.59861 0.97168 0.67777 0.0
C1082 C 0.59049 0.93324 0.72113 0.0
C1083 C 0.56427 0.93578 0.71291 0.0
C1084 C 0.55573 0.95452 0.68278 0.0
C1085 C 0.57278 0.97229 0.66516 0.0
C1086 C 0.50612 0.91916 0.78126 0.0
C1087 C 0.50804 0.89246 0.78425 0.0
C1088 C 0.52468 0.93314 0.75871 0.0
C1089 C 0.54563 0.92078 0.73893 0.0
C1090 C 0.5486 0.89437 0.7446 0.0
C1091 C 0.52994 0.88029 0.76704 0.0
H1092 H 0.6329 0.53828 0.28663 0.0
H1093 H 0.56686 0.49972 0.34137 0.0
H1094 H 0.60507 0.57073 0.25401 0.0
H1095 H 0.53934 0.53218 0.3087 0.0
H1096 H 0.50282 0.55983 0.1795 0.0
H1097 H 0.53479 0.53552 0.22013 0.0
H1098 H 0.56803 0.60529 0.26991 0.0
H1099 H 0.53582 0.63003 0.22947 0.0
C1100 C 0.61258 0.53719 0.29306 0.0
C1101 C 0.60201 0.516 0.31547 0.0
C1102 C 0.59672 0.55575 0.27428 0.0
C1103 C 0.57018 0.55329 0.27775 0.0
C1104 C 0.55982 0.53398 0.30479 0.0
C1105 C 0.57563 0.51556 0.32384 0.0
C1106 C 0.51719 0.57015 0.19822 0.0
C1107 C 0.5164 0.59689 0.20188 0.0
C1108 C 0.53529 0.55618 0.22192 0.0
C1109 C 0.55316 0.56863 0.2492 0.0
C1110 C 0.55408 0.59536 0.24961 0.0
C1111 C 0.53574 0.60943 0.2262 0.0
H1112 H 0.85511 0.53436 0.71612 0.0
H1113 H 0.9224 0.49694 0.66334 0.0
H1114 H 0.88203 0.56735 0.74931 0.0
H1115 H 0.94897 0.52991 0.69657 0.0
H1116 H 0.94998 0.62933 0.76621 0.0
H1117 H 0.91758 0.60259 0.73078 0.0
H1118 H 0.95405 0.53531 0.78434 0.0
H1119 H 0.98634 0.56167 0.81993 0.0
C1120 C 0.87552 0.53354 0.71046 0.0
C1121 C 0.88668 0.51264 0.68808 0.0
C1122 C 0.89084 0.55239 0.72958 0.0
C1123 C 0.91745 0.5505 0.72658 0.0
C1124 C 0.92843 0.53125 0.7002 0.0
C1125 C 0.91317 0.51254 0.68081 0.0
C1126 C 0.95072 0.60888 0.77151 0.0
C1127 C 0.97114 0.59758 0.79502 0.0
C1128 C 0.93224 0.59366 0.75102 0.0
C1129 C 0.93403 0.56702 0.75372 0.0
C1130 C 0.95285 0.55587 0.78082 0.0
C1131 C 0.97116 0.57101 0.80156 0.0
H1132 H 0.92268 0.9883 0.33729 0.0
H1133 H 0.85751 0.95221 0.27457 0.0
H1134 H 0.95018 0.95488 0.30777 0.0
H1135 H 0.88538 0.91874 0.24531 0.0
H1136 H 0.95648 0.85795 0.23258 0.0
H1137 H 0.92306 0.88284 0.26977 0.0
H1138 H 0.95523 0.95215 0.216 0.0
H1139 H 0.98832 0.92774 0.17845 0.0
C1140 C 0.91404 0.97286 0.31855 0.0
C1141 C 0.88804 0.97337 0.30707 0.0
C1142 C 0.92982 0.95383 0.30154 0.0
C1143 C 0.91979 0.93488 0.27345 0.0
C1144 C 0.89341 0.93343 0.2666 0.0
C1145 C 0.87757 0.9526 0.28336 0.0
C1146 C 0.95608 0.87844 0.22777 0.0
C1147 C 0.97539 0.89092 0.20325 0.0
C1148 C 0.93705 0.89258 0.24925 0.0
C1149 C 0.9373 0.91926 0.24663 0.0
C1150 C 0.95522 0.93154 0.21925 0.0
C1151 C 0.974 0.91751 0.19749 0.0
H1152 H 0.48276 0.22474 0.12456 0.0
H1153 H 0.51033 0.17546 0.01941 0.0
H1154 H 0.46509 0.25376 0.06822 0.0
H1155 H 0.4937 0.20431 0.9636 0.0
H1156 H 0.48446 0.26057 0.86542 0.0
H1157 H 0.46684 0.23098 0.92083 0.0
H1158 H 0.49149 0.28156 0.02682 0.0
H1159 H 0.50806 0.31096 0.97186 0.0
C1160 C 0.48419 0.21966 0.08951 0.0
C1161 C 0.49861 0.1984 0.07614 0.0
C1162 C 0.47421 0.2363 0.05717 0.0
C1163 C 0.47871 0.23191 0.01123 0.0
C1164 C 0.48986 0.2086 -0.0016 0.0
C1165 C 0.49976 0.1921 0.03053 0.0
C1166 C 0.485 0.26576 0.90051 0.0
C1167 C 0.49834 0.28753 0.91461 0.0
C1168 C 0.47505 0.24879 0.93232 0.0
C1169 C 0.47853 0.25337 0.97847 0.0
C1170 C 0.48848 0.2771 0.99184 0.0
C1171 C 0.49833 0.29394 0.96022 0.0
H1172 H 0.24282 0.5233 0.38037 0.0
H1173 H 0.17474 0.48824 0.43309 0.0
H1174 H 0.26723 0.50738 0.44374 0.0
H1175 H 0.19913 0.47224 0.49748 0.0
H1176 H 0.2407 0.51586 0.62071 0.0
H1177 H 0.21557 0.5022 0.55642 0.0
H1178 H 0.28389 0.47299 0.49344 0.0
H1179 H 0.30897 0.48702 0.55803 0.0
C1180 C 0.2334 0.5113 0.40488 0.0
C1181 C 0.20712 0.50698 0.40249 0.0
C1182 C 0.24734 0.50196 0.44098 0.0
C1183 C 0.23503 0.48861 0.4757 0.0
C1184 C 0.20904 0.48246 0.47118 0.0
C1185 C 0.19513 0.49157 0.43455 0.0
C1186 C 0.25001 0.50533 0.59407 0.0
C1187 C 0.27655 0.50248 0.59372 0.0
C1188 C 0.23567 0.49738 0.55732 0.0
C1189 C 0.24789 0.48688 0.51963 0.0
C1190 C 0.27409 0.48122 0.52193 0.0
C1191 C 0.2884 0.48915 0.55878 0.0
H1192 H 0.97476 0.24235 0.1191 0.0
H1193 H 0.00104 0.3121 0.05817 0.0
H1194 H 0.98868 0.21836 0.05371 0.0
H1195 H 0.01552 0.28817 0.99262 0.0
H1196 H 0.9691 0.24732 0.87558 0.0
H1197 H 0.98393 0.27132 0.9402 0.0
H1198 H 0.01753 0.20266 -0.00506 0.0
H1199 H 0.00237 0.17869 0.92968 0.0
C1200 C 0.98497 0.25226 0.09276 0.0
C1201 C 0.98698 0.27891 0.09343 0.0
C1202 C 0.99296 0.23857 0.05516 0.0
C1203 C 0.00279 0.25145 0.01753 0.0
C1204 C 0.00772 0.27778 0.02083 0.0
C1205 C -0.00032 0.29145 0.05845 0.0
C1206 C 0.98075 0.23772 0.9004 0.0
C1207 C 0.98479 0.21136 0.89788 0.0
C1208 C 0.98935 0.25142 0.93748 0.0
C1209 C 0.00175 0.23884 0.97303 0.0
C1210 C 0.00791 0.21283 0.96824 0.0
C1211 C -0.00057 0.19916 0.93086 0.0
H1212 H 0.24109 0.9593 0.38288 0.0
H1213 H 0.30856 0.00058 0.42277 0.0
H1214 H 0.21872 0.97481 0.44919 0.0
H1215 H 0.28644 0.01543 0.49048 0.0
H1216 H 0.24969 0.96556 0.61747 0.0
H1217 H 0.27276 0.97892 0.55043 0.0
H1218 H 0.20441 0.01499 0.50012 0.0
H1219 H 0.18157 0.00226 0.5682 0.0
C1220 C 0.25073 0.97247 0.40517 0.0
C1221 C 0.27636 0.97882 0.39824 0.0
C1222 C 0.23795 0.9815 0.44285 0.0
C1223 C 0.25092 -0.00364 0.47472 0.0
C1224 C 0.27605 0.00424 0.46605 0.0
C1225 C 0.28864 -0.00426 0.42757 0.0
C1226 C 0.2401 0.97758 0.59317 0.0
C1227 C 0.21406 0.983 0.59753 0.0
C1228 C 0.25325 0.98532 0.55496 0.0
C1229 C 0.24024 -0.00213 0.52022 0.0
C1230 C 0.21481 0.0055 0.5267 0.0
C1231 C 0.2018 -0.00175 0.56548 0.0
H1232 H 0.50432 0.72464 0.12017 0.0
H1233 H 0.47604 0.6744 0.0171 0.0
H1234 H 0.52075 0.75359 0.06254 0.0
H1235 H 0.49152 0.70314 0.96005 0.0
H1236 H 0.50098 0.75878 0.8599 0.0
H1237 H 0.51838 0.72947 0.91609 0.0
H1238 H 0.49352 0.78079 0.02086 0.0
H1239 H 0.47708 0.80987 0.96513 0.0
C1240 C 0.50248 0.71934 0.08527 0.0
C1241 C 0.48828 0.69778 0.07291 0.0
C1242 C 0.51175 0.73594 0.05222 0.0
C1243 C 0.5068 0.73116 0.00654 0.0
C1244 C 0.49574 0.70768 -0.00538 0.0
C1245 C 0.48652 0.69124 0.02745 0.0
C1246 C 0.50035 0.76418 0.89489 0.0
C1247 C 0.48705 0.78611 0.90843 0.0
C1248 C 0.51016 0.74737 0.92713 0.0
C1249 C 0.50665 0.75231 0.97317 0.0
C1250 C 0.4966 0.77611 0.98597 0.0
C1251 C 0.48684 0.79277 0.95393 0.0
H1252 H 0.73764 0.47304 0.62454 0.0
H1253 H 0.80828 0.50119 0.56955 0.0
H1254 H 0.71506 0.48681 0.55732 0.0
H1255 H 0.78584 0.51471 0.5018 0.0
H1256 H 0.74749 0.45811 0.39106 0.0
H1257 H 0.76983 0.47504 0.45615 0.0
H1258 H 0.70303 0.51896 0.49189 0.0
H1259 H 0.68094 0.50249 0.4253 0.0
C1260 C 0.74796 0.48364 0.59919 0.0
C1261 C 0.77452 0.48615 0.60179 0.0
C1262 C 0.7351 0.49155 0.5607 0.0
C1263 C 0.74886 0.50146 0.52422 0.0
C1264 C 0.77488 0.50709 0.52952 0.0
C1265 C 0.78767 0.49945 0.56824 0.0
C1266 C 0.73805 0.4722 0.41184 0.0
C1267 C 0.71269 0.47908 0.40366 0.0
C1268 C 0.75082 0.48207 0.44885 0.0
C1269 C 0.73812 0.4984 0.47889 0.0
C1270 C 0.71324 0.50662 0.46894 0.0
C1271 C 0.70067 0.49721 0.43109 0.0
H1272 H 0.01771 0.67896 0.96894 0.0
H1273 H 0.98086 0.72593 0.8694 0.0
H1274 H 0.00165 0.70624 0.02769 0.0
H1275 H 0.96401 0.75347 0.92888 0.0
H1276 H 0.0056 0.81318 0.02368 0.0
H1277 H 0.98995 0.78319 0.96871 0.0
H1278 H 0.9728 0.72929 0.0742 0.0
H1279 H 0.98932 0.75957 0.12951 0.0
C1280 C 0.00537 0.69476 0.95983 0.0
C1281 C 0.00115 0.70087 0.9147 0.0
C1282 C -0.00421 0.71029 -0.00633 0.0
C1283 C 0.98194 0.73249 0.98312 0.0
C1284 C 0.97504 0.73678 0.93808 0.0
C1285 C 0.98459 0.72102 0.90401 0.0
C1286 C -0.00243 0.79529 0.03528 0.0
C1287 C -0.00064 0.78829 0.08053 0.0
C1288 C 0.9883 0.77808 0.00372 0.0
C1289 C 0.98083 0.75341 0.0168 0.0
C1290 C 0.97904 0.74792 0.06295 0.0
C1291 C 0.98834 0.76528 0.0947 0.0
H1292 H 0.81049 0.98719 0.42749 0.0
H1293 H 0.7404 0.01344 0.36756 0.0
H1294 H 0.78691 0.97312 0.49373 0.0
H1295 H 0.71672 -0.00061 0.43341 0.0
H1296 H 0.67952 0.98396 0.56196 0.0
H1297 H 0.70327 0.96808 0.49664 0.0
H1298 H 0.7695 0.01055 0.54002 0.0
H1299 H 0.74561 0.02674 0.6039 0.0
C1300 C 0.78984 0.98854 0.42755 0.0
C1301 C 0.77708 0.00134 0.39297 0.0
C1302 C 0.77639 0.98057 0.46536 0.0
C1303 C 0.75011 0.98553 0.46886 0.0
C1304 C 0.73694 -0.00484 0.43147 0.0
C1305 C 0.75044 0.00328 0.39382 0.0
C1306 C 0.69945 0.98903 0.55807 0.0
C1307 C 0.71091 0.00657 0.58727 0.0
C1308 C 0.71297 0.97996 0.52095 0.0
C1309 C 0.73819 0.98801 0.51343 0.0
C1310 C 0.75023 0.00366 0.54531 0.0
C1311 C 0.73657 0.01313 0.58164 0.0
loop_
_geom_bond_atom_site_label_1
_geom_bond_atom_site_label_2
_geom_bond_distance
_geom_bond_site_symmetry_2
_ccdc_geom_bond_type
Sc0 O3 2.025 . S
Sc0 O10 2.105 . S
Sc0 O13 2.105 . S
Sc0 O16 2.105 . S
Sc0 O19 2.105 . S
Sc1 O3 2.025 . S
Sc1 O11 2.105 . S
Sc1 O15 2.105 . S
Sc1 O17 2.105 . S
Sc1 O21 2.105 . S
Sc2 O3 2.025 . S
Sc2 O12 2.105 . S
Sc2 O14 2.105 . S
Sc2 O18 2.105 . S
Sc2 O20 2.105 . S
O3 Sc0 2.025 . S
O3 Sc1 2.025 . S
O3 Sc2 2.025 . S
C4 O10 1.268 . S
C4 O20 1.268 . S
C5 O11 1.268 . S
C5 O19 1.268 . S
C6 O12 1.268 . S
C6 O21 1.268 . S
C7 O13 1.268 . S
C7 O17 1.268 . S
C8 O14 1.268 . S
C8 O16 1.268 . S
C9 O15 1.268 . S
C9 O18 1.268 . S
O10 Sc0 2.105 . S
O10 C4 1.268 . S
O11 Sc1 2.105 . S
O11 C5 1.268 . S
O12 Sc2 2.105 . S
O12 C6 1.268 . S
O13 Sc0 2.105 . S
O13 C7 1.268 . S
O14 Sc2 2.105 . S
O14 C8 1.268 . S
O15 Sc1 2.105 . S
O15 C9 1.268 . S
O16 Sc0 2.105 . S
O16 C8 1.268 . S
O17 Sc1 2.105 . S
O17 C7 1.268 . S
O18 Sc2 2.105 . S
O18 C9 1.268 . S
O19 Sc0 2.105 . S
O19 C5 1.268 . S
O20 Sc2 2.105 . S
O20 C4 1.268 . S
O21 Sc1 2.105 . S
O21 C6 1.268 . S
Sc22 O25 2.025 . S
Sc22 O32 2.105 . S
Sc22 O35 2.105 . S
Sc22 O38 2.105 . S
Sc22 O41 2.105 . S
Sc23 O25 2.025 . S
Sc23 O33 2.105 . S
Sc23 O37 2.105 . S
Sc23 O39 2.105 . S
Sc23 O43 2.105 . S
Sc24 O25 2.025 . S
Sc24 O34 2.105 . S
Sc24 O36 2.105 . S
Sc24 O40 2.105 . S
Sc24 O42 2.105 . S
O25 Sc22 2.025 . S
O25 Sc23 2.025 . S
O25 Sc24 2.025 . S
C26 O32 1.268 . S
C26 O42 1.268 . S
C27 O33 1.268 . S
C27 O41 1.268 . S
C28 O34 1.268 . S
C28 O43 1.268 . S
C29 O35 1.268 . S
C29 O39 1.268 . S
C30 O36 1.268 . S
C30 O38 1.268 . S
C31 O37 1.268 . S
C31 O40 1.268 . S
O32 Sc22 2.105 . S
O32 C26 1.268 . S
O33 Sc23 2.105 . S
O33 C27 1.268 . S
O34 Sc24 2.105 . S
O34 C28 1.268 . S
O35 Sc22 2.105 . S
O35 C29 1.268 . S
O36 Sc24 2.105 . S
O36 C30 1.268 . S
O37 Sc23 2.105 . S
O37 C31 1.268 . S
O38 Sc22 2.105 . S
O38 C30 1.268 . S
O39 Sc23 2.105 . S
O39 C29 1.268 . S
O40 Sc24 2.105 . S
O40 C31 1.268 . S
O41 Sc22 2.105 . S
O41 C27 1.268 . S
O42 Sc24 2.105 . S
O42 C26 1.268 . S
O43 Sc23 2.105 . S
O43 C28 1.268 . S
Sc44 O47 2.025 . S
Sc44 O54 2.105 . S
Sc44 O57 2.105 . S
Sc44 O60 2.105 . S
Sc44 O63 2.105 . S
Sc45 O47 2.025 . S
Sc45 O55 2.105 . S
Sc45 O59 2.105 . S
Sc45 O61 2.105 . S
Sc45 O65 2.105 . S
Sc46 O47 2.025 . S
Sc46 O56 2.105 . S
Sc46 O58 2.105 . S
Sc46 O62 2.105 . S
Sc46 O64 2.105 . S
O47 Sc44 2.025 . S
O47 Sc45 2.025 . S
O47 Sc46 2.025 . S
C48 O54 1.268 . S
C48 O64 1.268 . S
C49 O55 1.268 . S
C49 O63 1.268 . S
C50 O56 1.268 . S
C50 O65 1.268 . S
C51 O57 1.268 . S
C51 O61 1.268 . S
C52 O58 1.268 . S
C52 O60 1.268 . S
C53 O59 1.268 . S
C53 O62 1.268 . S
O54 Sc44 2.105 . S
O54 C48 1.268 . S
O55 Sc45 2.105 . S
O55 C49 1.268 . S
O56 Sc46 2.105 . S
O56 C50 1.268 . S
O57 Sc44 2.105 . S
O57 C51 1.268 . S
O58 Sc46 2.105 . S
O58 C52 1.268 . S
O59 Sc45 2.105 . S
O59 C53 1.268 . S
O60 Sc44 2.105 . S
O60 C52 1.268 . S
O61 Sc45 2.105 . S
O61 C51 1.268 . S
O62 Sc46 2.105 . S
O62 C53 1.268 . S
O63 Sc44 2.105 . S
O63 C49 1.268 . S
O64 Sc46 2.105 . S
O64 C48 1.268 . S
O65 Sc45 2.105 . S
O65 C50 1.268 . S
Sc66 O69 2.025 . S
Sc66 O76 2.105 . S
Sc66 O79 2.105 . S
Sc66 O82 2.105 . S
Sc66 O85 2.105 . S
Sc67 O69 2.025 . S
Sc67 O77 2.105 . S
Sc67 O81 2.105 . S
Sc67 O83 2.105 . S
Sc67 O87 2.105 . S
Sc68 O69 2.025 . S
Sc68 O78 2.105 . S
Sc68 O80 2.105 . S
Sc68 O84 2.105 . S
Sc68 O86 2.105 . S
O69 Sc66 2.025 . S
O69 Sc67 2.025 . S
O69 Sc68 2.025 . S
C70 O76 1.268 . S
C70 O86 1.268 . S
C71 O77 1.268 . S
C71 O85 1.268 . S
C72 O78 1.268 . S
C72 O87 1.268 . S
C73 O79 1.268 . S
C73 O83 1.268 . S
C74 O80 1.268 . S
C74 O82 1.268 . S
C75 O81 1.268 . S
C75 O84 1.268 . S
O76 Sc66 2.105 . S
O76 C70 1.268 . S
O77 Sc67 2.105 . S
O77 C71 1.268 . S
O78 Sc68 2.105 . S
O78 C72 1.268 . S
O79 Sc66 2.105 . S
O79 C73 1.268 . S
O80 Sc68 2.105 . S
O80 C74 1.268 . S
O81 Sc67 2.105 . S
O81 C75 1.268 . S
O82 Sc66 2.105 . S
O82 C74 1.268 . S
O83 Sc67 2.105 . S
O83 C73 1.268 . S
O84 Sc68 2.105 . S
O84 C75 1.268 . S
O85 Sc66 2.105 . S
O85 C71 1.268 . S
O86 Sc68 2.105 . S
O86 C70 1.268 . S
O87 Sc67 2.105 . S
O87 C72 1.268 . S
Sc88 O91 2.025 . S
Sc88 O98 2.105 . S
Sc88 O101 2.105 . S
Sc88 O104 2.105 . S
Sc88 O107 2.105 . S
Sc89 O91 2.025 . S
Sc89 O99 2.105 . S
Sc89 O103 2.105 . S
Sc89 O105 2.105 . S
Sc89 O109 2.105 . S
Sc90 O91 2.025 . S
Sc90 O100 2.105 . S
Sc90 O102 2.105 . S
Sc90 O106 2.105 . S
Sc90 O108 2.105 . S
O91 Sc88 2.025 . S
O91 Sc89 2.025 . S
O91 Sc90 2.025 . S
C92 O98 1.268 . S
C92 O108 1.268 . S
C93 O99 1.268 . S
C93 O107 1.268 . S
C94 O100 1.268 . S
C94 O109 1.268 . S
C95 O101 1.268 . S
C95 O105 1.268 . S
C96 O102 1.268 . S
C96 O104 1.268 . S
C97 O103 1.268 . S
C97 O106 1.268 . S
O98 Sc88 2.105 . S
O98 C92 1.268 . S
O99 Sc89 2.105 . S
O99 C93 1.268 . S
O100 Sc90 2.105 . S
O100 C94 1.268 . S
O101 Sc88 2.105 . S
O101 C95 1.268 . S
O102 Sc90 2.105 . S
O102 C96 1.268 . S
O103 Sc89 2.105 . S
O103 C97 1.268 . S
O104 Sc88 2.105 . S
O104 C96 1.268 . S
O105 Sc89 2.105 . S
O105 C95 1.268 . S
O106 Sc90 2.105 . S
O106 C97 1.268 . S
O107 Sc88 2.105 . S
O107 C93 1.268 . S
O108 Sc90 2.105 . S
O108 C92 1.268 . S
O109 Sc89 2.105 . S
O109 C94 1.268 . S
Sc110 O113 2.025 . S
Sc110 O120 2.105 . S
Sc110 O123 2.105 . S
Sc110 O126 2.105 . S
Sc110 O129 2.105 . S
Sc111 O113 2.025 . S
Sc111 O121 2.105 . S
Sc111 O125 2.105 . S
Sc111 O127 2.105 . S
Sc111 O131 2.105 . S
Sc112 O113 2.025 . S
Sc112 O122 2.105 . S
Sc112 O124 2.105 . S
Sc112 O128 2.105 . S
Sc112 O130 2.105 . S
O113 Sc110 2.025 . S
O113 Sc111 2.025 . S
O113 Sc112 2.025 . S
C114 O120 1.268 . S
C114 O130 1.268 . S
C115 O121 1.268 . S
C115 O129 1.268 . S
C116 O122 1.268 . S
C116 O131 1.268 . S
C117 O123 1.268 . S
C117 O127 1.268 . S
C118 O124 1.268 . S
C118 O126 1.268 . S
C119 O125 1.268 . S
C119 O128 1.268 . S
O120 Sc110 2.105 . S
O120 C114 1.268 . S
O121 Sc111 2.105 . S
O121 C115 1.268 . S
O122 Sc112 2.105 . S
O122 C116 1.268 . S
O123 Sc110 2.105 . S
O123 C117 1.268 . S
O124 Sc112 2.105 . S
O124 C118 1.268 . S
O125 Sc111 2.105 . S
O125 C119 1.268 . S
O126 Sc110 2.105 . S
O126 C118 1.268 . S
O127 Sc111 2.105 . S
O127 C117 1.268 . S
O128 Sc112 2.105 . S
O128 C119 1.268 . S
O129 Sc110 2.105 . S
O129 C115 1.268 . S
O130 Sc112 2.105 . S
O130 C114 1.268 . S
O131 Sc111 2.105 . S
O131 C116 1.268 . S
Sc132 O135 2.025 . S
Sc132 O142 2.105 . S
Sc132 O145 2.105 . S
Sc132 O148 2.105 . S
Sc132 O151 2.105 . S
Sc133 O135 2.025 . S
Sc133 O143 2.105 . S
Sc133 O147 2.105 . S
Sc133 O149 2.105 . S
Sc133 O153 2.105 . S
Sc134 O135 2.025 . S
Sc134 O144 2.105 . S
Sc134 O146 2.105 . S
Sc134 O150 2.105 . S
Sc134 O152 2.105 . S
O135 Sc132 2.025 . S
O135 Sc133 2.025 . S
O135 Sc134 2.025 . S
C136 O142 1.268 . S
C136 O152 1.268 . S
C137 O143 1.268 . S
C137 O151 1.268 . S
C138 O144 1.268 . S
C138 O153 1.268 . S
C139 O145 1.268 . S
C139 O149 1.268 . S
C140 O146 1.268 . S
C140 O148 1.268 . S
C141 O147 1.268 . S
C141 O150 1.268 . S
O142 Sc132 2.105 . S
O142 C136 1.268 . S
O143 Sc133 2.105 . S
O143 C137 1.268 . S
O144 Sc134 2.105 . S
O144 C138 1.268 . S
O145 Sc132 2.105 . S
O145 C139 1.268 . S
O146 Sc134 2.105 . S
O146 C140 1.268 . S
O147 Sc133 2.105 . S
O147 C141 1.268 . S
O148 Sc132 2.105 . S
O148 C140 1.268 . S
O149 Sc133 2.105 . S
O149 C139 1.268 . S
O150 Sc134 2.105 . S
O150 C141 1.268 . S
O151 Sc132 2.105 . S
O151 C137 1.268 . S
O152 Sc134 2.105 . S
O152 C136 1.268 . S
O153 Sc133 2.105 . S
O153 C138 1.268 . S
Sc154 O157 2.025 . S
Sc154 O164 2.105 . S
Sc154 O167 2.105 . S
Sc154 O170 2.105 . S
Sc154 O173 2.105 . S
Sc155 O157 2.025 . S
Sc155 O165 2.105 . S
Sc155 O169 2.105 . S
Sc155 O171 2.105 . S
Sc155 O175 2.105 . S
Sc156 O157 2.025 . S
Sc156 O166 2.105 . S
Sc156 O168 2.105 . S
Sc156 O172 2.105 . S
Sc156 O174 2.105 . S
O157 Sc154 2.025 . S
O157 Sc155 2.025 . S
O157 Sc156 2.025 . S
C158 O164 1.268 . S
C158 O174 1.268 . S
C159 O165 1.268 . S
C159 O173 1.268 . S
C160 O166 1.268 . S
C160 O175 1.268 . S
C161 O167 1.268 . S
C161 O171 1.268 . S
C162 O168 1.268 . S
C162 O170 1.268 . S
C163 O169 1.268 . S
C163 O172 1.268 . S
O164 Sc154 2.105 . S
O164 C158 1.268 . S
O165 Sc155 2.105 . S
O165 C159 1.268 . S
O166 Sc156 2.105 . S
O166 C160 1.268 . S
O167 Sc154 2.105 . S
O167 C161 1.268 . S
O168 Sc156 2.105 . S
O168 C162 1.268 . S
O169 Sc155 2.105 . S
O169 C163 1.268 . S
O170 Sc154 2.105 . S
O170 C162 1.268 . S
O171 Sc155 2.105 . S
O171 C161 1.268 . S
O172 Sc156 2.105 . S
O172 C163 1.268 . S
O173 Sc154 2.105 . S
O173 C159 1.268 . S
O174 Sc156 2.105 . S
O174 C158 1.268 . S
O175 Sc155 2.105 . S
O175 C160 1.268 . S
Sc176 O179 2.025 . S
Sc176 O186 2.105 . S
Sc176 O189 2.105 . S
Sc176 O192 2.105 . S
Sc176 O195 2.105 . S
Sc177 O179 2.025 . S
Sc177 O187 2.105 . S
Sc177 O191 2.105 . S
Sc177 O193 2.105 . S
Sc177 O197 2.105 . S
Sc178 O179 2.025 . S
Sc178 O188 2.105 . S
Sc178 O190 2.105 . S
Sc178 O194 2.105 . S
Sc178 O196 2.105 . S
O179 Sc176 2.025 . S
O179 Sc177 2.025 . S
O179 Sc178 2.025 . S
C180 O186 1.268 . S
C180 O196 1.268 . S
C181 O187 1.268 . S
C181 O195 1.268 . S
C182 O188 1.268 . S
C182 O197 1.268 . S
C183 O189 1.268 . S
C183 O193 1.268 . S
C184 O190 1.268 . S
C184 O192 1.268 . S
C185 O191 1.268 . S
C185 O194 1.268 . S
O186 Sc176 2.105 . S
O186 C180 1.268 . S
O187 Sc177 2.105 . S
O187 C181 1.268 . S
O188 Sc178 2.105 . S
O188 C182 1.268 . S
O189 Sc176 2.105 . S
O189 C183 1.268 . S
O190 Sc178 2.105 . S
O190 C184 1.268 . S
O191 Sc177 2.105 . S
O191 C185 1.268 . S
O192 Sc176 2.105 . S
O192 C184 1.268 . S
O193 Sc177 2.105 . S
O193 C183 1.268 . S
O194 Sc178 2.105 . S
O194 C185 1.268 . S
O195 Sc176 2.105 . S
O195 C181 1.268 . S
O196 Sc178 2.105 . S
O196 C180 1.268 . S
O197 Sc177 2.105 . S
O197 C182 1.268 . S
Sc198 O201 2.025 . S
Sc198 O208 2.105 . S
Sc198 O211 2.105 . S
Sc198 O214 2.105 . S
Sc198 O217 2.105 . S
Sc199 O201 2.025 . S
Sc199 O209 2.105 . S
Sc199 O213 2.105 . S
Sc199 O215 2.105 . S
Sc199 O219 2.105 . S
Sc200 O201 2.025 . S
Sc200 O210 2.105 . S
Sc200 O212 2.105 . S
Sc200 O216 2.105 . S
Sc200 O218 2.105 . S
O201 Sc198 2.025 . S
O201 Sc199 2.025 . S
O201 Sc200 2.025 . S
C202 O208 1.268 . S
C202 O218 1.268 . S
C203 O209 1.268 . S
C203 O217 1.268 . S
C204 O210 1.268 . S
C204 O219 1.268 . S
C205 O211 1.268 . S
C205 O215 1.268 . S
C206 O212 1.268 . S
C206 O214 1.268 . S
C207 O213 1.268 . S
C207 O216 1.268 . S
O208 Sc198 2.105 . S
O208 C202 1.268 . S
O209 Sc199 2.105 . S
O209 C203 1.268 . S
O210 Sc200 2.105 . S
O210 C204 1.268 . S
O211 Sc198 2.105 . S
O211 C205 1.268 . S
O212 Sc200 2.105 . S
O212 C206 1.268 . S
O213 Sc199 2.105 . S
O213 C207 1.268 . S
O214 Sc198 2.105 . S
O214 C206 1.268 . S
O215 Sc199 2.105 . S
O215 C205 1.268 . S
O216 Sc200 2.105 . S
O216 C207 1.268 . S
O217 Sc198 2.105 . S
O217 C203 1.268 . S
O218 Sc200 2.105 . S
O218 C202 1.268 . S
O219 Sc199 2.105 . S
O219 C204 1.268 . S
Sc220 O223 2.025 . S
Sc220 O230 2.105 . S
Sc220 O233 2.105 . S
Sc220 O236 2.105 . S
Sc220 O239 2.105 . S
Sc221 O223 2.025 . S
Sc221 O231 2.105 . S
Sc221 O235 2.105 . S
Sc221 O237 2.105 . S
Sc221 O241 2.105 . S
Sc222 O223 2.025 . S
Sc222 O232 2.105 . S
Sc222 O234 2.105 . S
Sc222 O238 2.105 . S
Sc222 O240 2.105 . S
O223 Sc220 2.025 . S
O223 Sc221 2.025 . S
O223 Sc222 2.025 . S
C224 O230 1.268 . S
C224 O240 1.268 . S
C225 O231 1.268 . S
C225 O239 1.268 . S
C226 O232 1.268 . S
C226 O241 1.268 . S
C227 O233 1.268 . S
C227 O237 1.268 . S
C228 O234 1.268 . S
C228 O236 1.268 . S
C229 O235 1.268 . S
C229 O238 1.268 . S
O230 Sc220 2.105 . S
O230 C224 1.268 . S
O231 Sc221 2.105 . S
O231 C225 1.268 . S
O232 Sc222 2.105 . S
O232 C226 1.268 . S
O233 Sc220 2.105 . S
O233 C227 1.268 . S
O234 Sc222 2.105 . S
O234 C228 1.268 . S
O235 Sc221 2.105 . S
O235 C229 1.268 . S
O236 Sc220 2.105 . S
O236 C228 1.268 . S
O237 Sc221 2.105 . S
O237 C227 1.268 . S
O238 Sc222 2.105 . S
O238 C229 1.268 . S
O239 Sc220 2.105 . S
O239 C225 1.268 . S
O240 Sc222 2.105 . S
O240 C224 1.268 . S
O241 Sc221 2.105 . S
O241 C226 1.268 . S
Sc242 O245 2.025 . S
Sc242 O252 2.105 . S
Sc242 O255 2.105 . S
Sc242 O258 2.105 . S
Sc242 O261 2.105 . S
Sc243 O245 2.025 . S
Sc243 O253 2.105 . S
Sc243 O257 2.105 . S
Sc243 O259 2.105 . S
Sc243 O263 2.105 . S
Sc244 O245 2.025 . S
Sc244 O254 2.105 . S
Sc244 O256 2.105 . S
Sc244 O260 2.105 . S
Sc244 O262 2.105 . S
O245 Sc242 2.025 . S
O245 Sc243 2.025 . S
O245 Sc244 2.025 . S
C246 O252 1.268 . S
C246 O262 1.268 . S
C247 O253 1.268 . S
C247 O261 1.268 . S
C248 O254 1.268 . S
C248 O263 1.268 . S
C249 O255 1.268 . S
C249 O259 1.268 . S
C250 O256 1.268 . S
C250 O258 1.268 . S
C251 O257 1.268 . S
C251 O260 1.268 . S
O252 Sc242 2.105 . S
O252 C246 1.268 . S
O253 Sc243 2.105 . S
O253 C247 1.268 . S
O254 Sc244 2.105 . S
O254 C248 1.268 . S
O255 Sc242 2.105 . S
O255 C249 1.268 . S
O256 Sc244 2.105 . S
O256 C250 1.268 . S
O257 Sc243 2.105 . S
O257 C251 1.268 . S
O258 Sc242 2.105 . S
O258 C250 1.268 . S
O259 Sc243 2.105 . S
O259 C249 1.268 . S
O260 Sc244 2.105 . S
O260 C251 1.268 . S
O261 Sc242 2.105 . S
O261 C247 1.268 . S
O262 Sc244 2.105 . S
O262 C246 1.268 . S
O263 Sc243 2.105 . S
O263 C248 1.268 . S
Sc264 O267 2.025 . S
Sc264 O274 2.105 . S
Sc264 O277 2.105 . S
Sc264 O280 2.105 . S
Sc264 O283 2.105 . S
Sc265 O267 2.025 . S
Sc265 O275 2.105 . S
Sc265 O279 2.105 . S
Sc265 O281 2.105 . S
Sc265 O285 2.105 . S
Sc266 O267 2.025 . S
Sc266 O276 2.105 . S
Sc266 O278 2.105 . S
Sc266 O282 2.105 . S
Sc266 O284 2.105 . S
O267 Sc264 2.025 . S
O267 Sc265 2.025 . S
O267 Sc266 2.025 . S
C268 O274 1.268 . S
C268 O284 1.268 . S
C269 O275 1.268 . S
C269 O283 1.268 . S
C270 O276 1.268 . S
C270 O285 1.268 . S
C271 O277 1.268 . S
C271 O281 1.268 . S
C272 O278 1.268 . S
C272 O280 1.268 . S
C273 O279 1.268 . S
C273 O282 1.268 . S
O274 Sc264 2.105 . S
O274 C268 1.268 . S
O275 Sc265 2.105 . S
O275 C269 1.268 . S
O276 Sc266 2.105 . S
O276 C270 1.268 . S
O277 Sc264 2.105 . S
O277 C271 1.268 . S
O278 Sc266 2.105 . S
O278 C272 1.268 . S
O279 Sc265 2.105 . S
O279 C273 1.268 . S
O280 Sc264 2.105 . S
O280 C272 1.268 . S
O281 Sc265 2.105 . S
O281 C271 1.268 . S
O282 Sc266 2.105 . S
O282 C273 1.268 . S
O283 Sc264 2.105 . S
O283 C269 1.268 . S
O284 Sc266 2.105 . S
O284 C268 1.268 . S
O285 Sc265 2.105 . S
O285 C270 1.268 . S
Sc286 O289 2.025 . S
Sc286 O296 2.105 . S
Sc286 O299 2.105 . S
Sc286 O302 2.105 . S
Sc286 O305 2.105 . S
Sc287 O289 2.025 . S
Sc287 O297 2.105 . S
Sc287 O301 2.105 . S
Sc287 O303 2.105 . S
Sc287 O307 2.105 . S
Sc288 O289 2.025 . S
Sc288 O298 2.105 . S
Sc288 O300 2.105 . S
Sc288 O304 2.105 . S
Sc288 O306 2.105 . S
O289 Sc286 2.025 . S
O289 Sc287 2.025 . S
O289 Sc288 2.025 . S
C290 O296 1.268 . S
C290 O306 1.268 . S
C291 O297 1.268 . S
C291 O305 1.268 . S
C292 O298 1.268 . S
C292 O307 1.268 . S
C293 O299 1.268 . S
C293 O303 1.268 . S
C294 O300 1.268 . S
C294 O302 1.268 . S
C295 O301 1.268 . S
C295 O304 1.268 . S
O296 Sc286 2.105 . S
O296 C290 1.268 . S
O297 Sc287 2.105 . S
O297 C291 1.268 . S
O298 Sc288 2.105 . S
O298 C292 1.268 . S
O299 Sc286 2.105 . S
O299 C293 1.268 . S
O300 Sc288 2.105 . S
O300 C294 1.268 . S
O301 Sc287 2.105 . S
O301 C295 1.268 . S
O302 Sc286 2.105 . S
O302 C294 1.268 . S
O303 Sc287 2.105 . S
O303 C293 1.268 . S
O304 Sc288 2.105 . S
O304 C295 1.268 . S
O305 Sc286 2.105 . S
O305 C291 1.268 . S
O306 Sc288 2.105 . S
O306 C290 1.268 . S
O307 Sc287 2.105 . S
O307 C292 1.268 . S
Sc308 O311 2.025 . S
Sc308 O318 2.105 . S
Sc308 O321 2.105 . S
Sc308 O324 2.105 . S
Sc308 O327 2.105 . S
Sc309 O311 2.025 . S
Sc309 O319 2.105 . S
Sc309 O323 2.105 . S
Sc309 O325 2.105 . S
Sc309 O329 2.105 . S
Sc310 O311 2.025 . S
Sc310 O320 2.105 . S
Sc310 O322 2.105 . S
Sc310 O326 2.105 . S
Sc310 O328 2.105 . S
O311 Sc308 2.025 . S
O311 Sc309 2.025 . S
O311 Sc310 2.025 . S
C312 O318 1.268 . S
C312 O328 1.268 . S
C313 O319 1.268 . S
C313 O327 1.268 . S
C314 O320 1.268 . S
C314 O329 1.268 . S
C315 O321 1.268 . S
C315 O325 1.268 . S
C316 O322 1.268 . S
C316 O324 1.268 . S
C317 O323 1.268 . S
C317 O326 1.268 . S
O318 Sc308 2.105 . S
O318 C312 1.268 . S
O319 Sc309 2.105 . S
O319 C313 1.268 . S
O320 Sc310 2.105 . S
O320 C314 1.268 . S
O321 Sc308 2.105 . S
O321 C315 1.268 . S
O322 Sc310 2.105 . S
O322 C316 1.268 . S
O323 Sc309 2.105 . S
O323 C317 1.268 . S
O324 Sc308 2.105 . S
O324 C316 1.268 . S
O325 Sc309 2.105 . S
O325 C315 1.268 . S
O326 Sc310 2.105 . S
O326 C317 1.268 . S
O327 Sc308 2.105 . S
O327 C313 1.268 . S
O328 Sc310 2.105 . S
O328 C312 1.268 . S
O329 Sc309 2.105 . S
O329 C314 1.268 . S
Sc330 O333 2.025 . S
Sc330 O340 2.105 . S
Sc330 O343 2.105 . S
Sc330 O346 2.105 . S
Sc330 O349 2.105 . S
Sc331 O333 2.025 . S
Sc331 O341 2.105 . S
Sc331 O345 2.105 . S
Sc331 O347 2.105 . S
Sc331 O351 2.105 . S
Sc332 O333 2.025 . S
Sc332 O342 2.105 . S
Sc332 O344 2.105 . S
Sc332 O348 2.105 . S
Sc332 O350 2.105 . S
O333 Sc330 2.025 . S
O333 Sc331 2.025 . S
O333 Sc332 2.025 . S
C334 O340 1.268 . S
C334 O350 1.268 . S
C335 O341 1.268 . S
C335 O349 1.268 . S
C336 O342 1.268 . S
C336 O351 1.268 . S
C337 O343 1.268 . S
C337 O347 1.268 . S
C338 O344 1.268 . S
C338 O346 1.268 . S
C339 O345 1.268 . S
C339 O348 1.268 . S
O340 Sc330 2.105 . S
O340 C334 1.268 . S
O341 Sc331 2.105 . S
O341 C335 1.268 . S
O342 Sc332 2.105 . S
O342 C336 1.268 . S
O343 Sc330 2.105 . S
O343 C337 1.268 . S
O344 Sc332 2.105 . S
O344 C338 1.268 . S
O345 Sc331 2.105 . S
O345 C339 1.268 . S
O346 Sc330 2.105 . S
O346 C338 1.268 . S
O347 Sc331 2.105 . S
O347 C337 1.268 . S
O348 Sc332 2.105 . S
O348 C339 1.268 . S
O349 Sc330 2.105 . S
O349 C335 1.268 . S
O350 Sc332 2.105 . S
O350 C334 1.268 . S
O351 Sc331 2.105 . S
O351 C336 1.268 . S
H352 C360 0.950 . S
H353 C365 0.950 . S
H354 C362 0.950 . S
H355 C364 0.950 . S
H356 C366 0.950 . S
H357 C368 0.950 . S
H358 C370 0.950 . S
H359 C371 0.950 . S
C360 H352 0.950 . S
C360 C361 1.386 . S
C360 C362 1.391 . S
C361 C360 1.386 . S
C361 C365 1.393 . S
C362 H354 0.950 . S
C362 C360 1.391 . S
C362 C363 1.400 . S
C363 C362 1.400 . S
C363 C364 1.398 . S
C363 C369 1.491 . S
C364 H355 0.950 . S
C364 C363 1.398 . S
C364 C365 1.391 . S
C365 H353 0.950 . S
C365 C361 1.393 . S
C365 C364 1.391 . S
C366 H356 0.950 . S
C366 C367 1.386 . S
C366 C368 1.391 . S
C367 C366 1.386 . S
C367 C371 1.393 . S
C368 H357 0.950 . S
C368 C366 1.391 . S
C368 C369 1.400 . S
C369 C363 1.491 . S
C369 C368 1.400 . S
C369 C370 1.398 . S
C370 H358 0.950 . S
C370 C369 1.398 . S
C370 C371 1.391 . S
C371 H359 0.950 . S
C371 C367 1.393 . S
C371 C370 1.391 . S
H372 C380 0.950 . S
H373 C385 0.950 . S
H374 C382 0.950 . S
H375 C384 0.950 . S
H376 C386 0.950 . S
H377 C388 0.950 . S
H378 C390 0.950 . S
H379 C391 0.950 . S
C380 H372 0.950 . S
C380 C381 1.386 . S
C380 C382 1.391 . S
C381 C380 1.386 . S
C381 C385 1.393 . S
C382 H374 0.950 . S
C382 C380 1.391 . S
C382 C383 1.400 . S
C383 C382 1.400 . S
C383 C384 1.398 . S
C383 C389 1.491 . S
C384 H375 0.950 . S
C384 C383 1.398 . S
C384 C385 1.391 . S
C385 H373 0.950 . S
C385 C381 1.393 . S
C385 C384 1.391 . S
C386 H376 0.950 . S
C386 C387 1.386 . S
C386 C388 1.391 . S
C387 C386 1.386 . S
C387 C391 1.393 . S
C388 H377 0.950 . S
C388 C386 1.391 . S
C388 C389 1.400 . S
C389 C383 1.491 . S
C389 C388 1.400 . S
C389 C390 1.398 . S
C390 H378 0.950 . S
C390 C389 1.398 . S
C390 C391 1.391 . S
C391 H379 0.950 . S
C391 C387 1.393 . S
C391 C390 1.391 . S
H392 C400 0.950 . S
H393 C405 0.950 . S
H394 C402 0.950 . S
H395 C404 0.950 . S
H396 C406 0.950 . S
H397 C408 0.950 . S
H398 C410 0.950 . S
H399 C411 0.950 . S
C400 H392 0.950 . S
C400 C401 1.386 . S
C400 C402 1.391 . S
C401 C400 1.386 . S
C401 C405 1.393 . S
C402 H394 0.950 . S
C402 C400 1.391 . S
C402 C403 1.400 . S
C403 C402 1.400 . S
C403 C404 1.398 . S
C403 C409 1.491 . S
C404 H395 0.950 . S
C404 C403 1.398 . S
C404 C405 1.391 . S
C405 H393 0.950 . S
C405 C401 1.393 . S
C405 C404 1.391 . S
C406 H396 0.950 . S
C406 C407 1.386 . S
C406 C408 1.391 . S
C407 C406 1.386 . S
C407 C411 1.393 . S
C408 H397 0.950 . S
C408 C406 1.391 . S
C408 C409 1.400 . S
C409 C403 1.491 . S
C409 C408 1.400 . S
C409 C410 1.398 . S
C410 H398 0.950 . S
C410 C409 1.398 . S
C410 C411 1.391 . S
C411 H399 0.950 . S
C411 C407 1.393 . S
C411 C410 1.391 . S
H412 C420 0.950 . S
H413 C425 0.950 . S
H414 C422 0.950 . S
H415 C424 0.950 . S
H416 C426 0.950 . S
H417 C428 0.950 . S
H418 C430 0.950 . S
H419 C431 0.950 . S
C420 H412 0.950 . S
C420 C421 1.386 . S
C420 C422 1.391 . S
C421 C420 1.386 . S
C421 C425 1.393 . S
C422 H414 0.950 . S
C422 C420 1.391 . S
C422 C423 1.400 . S
C423 C422 1.400 . S
C423 C424 1.398 . S
C423 C429 1.491 . S
C424 H415 0.950 . S
C424 C423 1.398 . S
C424 C425 1.391 . S
C425 H413 0.950 . S
C425 C421 1.393 . S
C425 C424 1.391 . S
C426 H416 0.950 . S
C426 C427 1.386 . S
C426 C428 1.391 . S
C427 C426 1.386 . S
C427 C431 1.393 . S
C428 H417 0.950 . S
C428 C426 1.391 . S
C428 C429 1.400 . S
C429 C423 1.491 . S
C429 C428 1.400 . S
C429 C430 1.398 . S
C430 H418 0.950 . S
C430 C429 1.398 . S
C430 C431 1.391 . S
C431 H419 0.950 . S
C431 C427 1.393 . S
C431 C430 1.391 . S
H432 C440 0.950 . S
H433 C445 0.950 . S
H434 C442 0.950 . S
H435 C444 0.950 . S
H436 C446 0.950 . S
H437 C448 0.950 . S
H438 C450 0.950 . S
H439 C451 0.950 . S
C440 H432 0.950 . S
C440 C441 1.386 . S
C440 C442 1.391 . S
C441 C440 1.386 . S
C441 C445 1.393 . S
C442 H434 0.950 . S
C442 C440 1.391 . S
C442 C443 1.400 . S
C443 C442 1.400 . S
C443 C444 1.398 . S
C443 C449 1.491 . S
C444 H435 0.950 . S
C444 C443 1.398 . S
C444 C445 1.391 . S
C445 H433 0.950 . S
C445 C441 1.393 . S
C445 C444 1.391 . S
C446 H436 0.950 . S
C446 C447 1.386 . S
C446 C448 1.391 . S
C447 C446 1.386 . S
C447 C451 1.393 . S
C448 H437 0.950 . S
C448 C446 1.391 . S
C448 C449 1.400 . S
C449 C443 1.491 . S
C449 C448 1.400 . S
C449 C450 1.398 . S
C450 H438 0.950 . S
C450 C449 1.398 . S
C450 C451 1.391 . S
C451 H439 0.950 . S
C451 C447 1.393 . S
C451 C450 1.391 . S
H452 C460 0.950 . S
H453 C465 0.950 . S
H454 C462 0.950 . S
H455 C464 0.950 . S
H456 C466 0.950 . S
H457 C468 0.950 . S
H458 C470 0.950 . S
H459 C471 0.950 . S
C460 H452 0.950 . S
C460 C461 1.386 . S
C460 C462 1.391 . S
C461 C460 1.386 . S
C461 C465 1.393 . S
C462 H454 0.950 . S
C462 C460 1.391 . S
C462 C463 1.400 . S
C463 C462 1.400 . S
C463 C464 1.398 . S
C463 C469 1.491 . S
C464 H455 0.950 . S
C464 C463 1.398 . S
C464 C465 1.391 . S
C465 H453 0.950 . S
C465 C461 1.393 . S
C465 C464 1.391 . S
C466 H456 0.950 . S
C466 C467 1.386 . S
C466 C468 1.391 . S
C467 C466 1.386 . S
C467 C471 1.393 . S
C468 H457 0.950 . S
C468 C466 1.391 . S
C468 C469 1.400 . S
C469 C463 1.491 . S
C469 C468 1.400 . S
C469 C470 1.398 . S
C470 H458 0.950 . S
C470 C469 1.398 . S
C470 C471 1.391 . S
C471 H459 0.950 . S
C471 C467 1.393 . S
C471 C470 1.391 . S
H472 C480 0.950 . S
H473 C485 0.950 . S
H474 C482 0.950 . S
H475 C484 0.950 . S
H476 C486 0.950 . S
H477 C488 0.950 . S
H478 C490 0.950 . S
H479 C491 0.950 . S
C480 H472 0.950 . S
C480 C481 1.386 . S
C480 C482 1.391 . S
C481 C480 1.386 . S
C481 C485 1.393 . S
C482 H474 0.950 . S
C482 C480 1.391 . S
C482 C483 1.400 . S
C483 C482 1.400 . S
C483 C484 1.398 . S
C483 C489 1.491 . S
C484 H475 0.950 . S
C484 C483 1.398 . S
C484 C485 1.391 . S
C485 H473 0.950 . S
C485 C481 1.393 . S
C485 C484 1.391 . S
C486 H476 0.950 . S
C486 C487 1.386 . S
C486 C488 1.391 . S
C487 C486 1.386 . S
C487 C491 1.393 . S
C488 H477 0.950 . S
C488 C486 1.391 . S
C488 C489 1.400 . S
C489 C483 1.491 . S
C489 C488 1.400 . S
C489 C490 1.398 . S
C490 H478 0.950 . S
C490 C489 1.398 . S
C490 C491 1.391 . S
C491 H479 0.950 . S
C491 C487 1.393 . S
C491 C490 1.391 . S
H492 C500 0.950 . S
H493 C505 0.950 . S
H494 C502 0.950 . S
H495 C504 0.950 . S
H496 C506 0.950 . S
H497 C508 0.950 . S
H498 C510 0.950 . S
H499 C511 0.950 . S
C500 H492 0.950 . S
C500 C501 1.386 . S
C500 C502 1.391 . S
C501 C500 1.386 . S
C501 C505 1.393 . S
C502 H494 0.950 . S
C502 C500 1.391 . S
C502 C503 1.400 . S
C503 C502 1.400 . S
C503 C504 1.398 . S
C503 C509 1.491 . S
C504 H495 0.950 . S
C504 C503 1.398 . S
C504 C505 1.391 . S
C505 H493 0.950 . S
C505 C501 1.393 . S
C505 C504 1.391 . S
C506 H496 0.950 . S
C506 C507 1.386 . S
C506 C508 1.391 . S
C507 C506 1.386 . S
C507 C511 1.393 . S
C508 H497 0.950 . S
C508 C506 1.391 . S
C508 C509 1.400 . S
C509 C503 1.491 . S
C509 C508 1.400 . S
C509 C510 1.398 . S
C510 H498 0.950 . S
C510 C509 1.398 . S
C510 C511 1.391 . S
C511 H499 0.950 . S
C511 C507 1.393 . S
C511 C510 1.391 . S
H512 C520 0.950 . S
H513 C525 0.950 . S
H514 C522 0.950 . S
H515 C524 0.950 . S
H516 C526 0.950 . S
H517 C528 0.950 . S
H518 C530 0.950 . S
H519 C531 0.950 . S
C520 H512 0.950 . S
C520 C521 1.386 . S
C520 C522 1.391 . S
C521 C520 1.386 . S
C521 C525 1.393 . S
C522 H514 0.950 . S
C522 C520 1.391 . S
C522 C523 1.400 . S
C523 C522 1.400 . S
C523 C524 1.398 . S
C523 C529 1.491 . S
C524 H515 0.950 . S
C524 C523 1.398 . S
C524 C525 1.391 . S
C525 H513 0.950 . S
C525 C521 1.393 . S
C525 C524 1.391 . S
C526 H516 0.950 . S
C526 C527 1.386 . S
C526 C528 1.391 . S
C527 C526 1.386 . S
C527 C531 1.393 . S
C528 H517 0.950 . S
C528 C526 1.391 . S
C528 C529 1.400 . S
C529 C523 1.491 . S
C529 C528 1.400 . S
C529 C530 1.398 . S
C530 H518 0.950 . S
C530 C529 1.398 . S
C530 C531 1.391 . S
C531 H519 0.950 . S
C531 C527 1.393 . S
C531 C530 1.391 . S
H532 C540 0.950 . S
H533 C545 0.950 . S
H534 C542 0.950 . S
H535 C544 0.950 . S
H536 C546 0.950 . S
H537 C548 0.950 . S
H538 C550 0.950 . S
H539 C551 0.950 . S
C540 H532 0.950 . S
C540 C541 1.386 . S
C540 C542 1.391 . S
C541 C540 1.386 . S
C541 C545 1.393 . S
C542 H534 0.950 . S
C542 C540 1.391 . S
C542 C543 1.400 . S
C543 C542 1.400 . S
C543 C544 1.398 . S
C543 C549 1.491 . S
C544 H535 0.950 . S
C544 C543 1.398 . S
C544 C545 1.391 . S
C545 H533 0.950 . S
C545 C541 1.393 . S
C545 C544 1.391 . S
C546 H536 0.950 . S
C546 C547 1.386 . S
C546 C548 1.391 . S
C547 C546 1.386 . S
C547 C551 1.393 . S
C548 H537 0.950 . S
C548 C546 1.391 . S
C548 C549 1.400 . S
C549 C543 1.491 . S
C549 C548 1.400 . S
C549 C550 1.398 . S
C550 H538 0.950 . S
C550 C549 1.398 . S
C550 C551 1.391 . S
C551 H539 0.950 . S
C551 C547 1.393 . S
C551 C550 1.391 . S
H552 C560 0.950 . S
H553 C565 0.950 . S
H554 C562 0.950 . S
H555 C564 0.950 . S
H556 C566 0.950 . S
H557 C568 0.950 . S
H558 C570 0.950 . S
H559 C571 0.950 . S
C560 H552 0.950 . S
C560 C561 1.386 . S
C560 C562 1.391 . S
C561 C560 1.386 . S
C561 C565 1.393 . S
C562 H554 0.950 . S
C562 C560 1.391 . S
C562 C563 1.400 . S
C563 C562 1.400 . S
C563 C564 1.398 . S
C563 C569 1.491 . S
C564 H555 0.950 . S
C564 C563 1.398 . S
C564 C565 1.391 . S
C565 H553 0.950 . S
C565 C561 1.393 . S
C565 C564 1.391 . S
C566 H556 0.950 . S
C566 C567 1.386 . S
C566 C568 1.391 . S
C567 C566 1.386 . S
C567 C571 1.393 . S
C568 H557 0.950 . S
C568 C566 1.391 . S
C568 C569 1.400 . S
C569 C563 1.491 . S
C569 C568 1.400 . S
C569 C570 1.398 . S
C570 H558 0.950 . S
C570 C569 1.398 . S
C570 C571 1.391 . S
C571 H559 0.950 . S
C571 C567 1.393 . S
C571 C570 1.391 . S
H572 C580 0.950 . S
H573 C585 0.950 . S
H574 C582 0.950 . S
H575 C584 0.950 . S
H576 C586 0.950 . S
H577 C588 0.950 . S
H578 C590 0.950 . S
H579 C591 0.950 . S
C580 H572 0.950 . S
C580 C581 1.386 . S
C580 C582 1.391 . S
C581 C580 1.386 . S
C581 C585 1.393 . S
C582 H574 0.950 . S
C582 C580 1.391 . S
C582 C583 1.400 . S
C583 C582 1.400 . S
C583 C584 1.398 . S
C583 C589 1.491 . S
C584 H575 0.950 . S
C584 C583 1.398 . S
C584 C585 1.391 . S
C585 H573 0.950 . S
C585 C581 1.393 . S
C585 C584 1.391 . S
C586 H576 0.950 . S
C586 C587 1.386 . S
C586 C588 1.391 . S
C587 C586 1.386 . S
C587 C591 1.393 . S
C588 H577 0.950 . S
C588 C586 1.391 . S
C588 C589 1.400 . S
C589 C583 1.491 . S
C589 C588 1.400 . S
C589 C590 1.398 . S
C590 H578 0.950 . S
C590 C589 1.398 . S
C590 C591 1.391 . S
C591 H579 0.950 . S
C591 C587 1.393 . S
C591 C590 1.391 . S
H592 C600 0.950 . S
H593 C605 0.950 . S
H594 C602 0.950 . S
H595 C604 0.950 . S
H596 C606 0.950 . S
H597 C608 0.950 . S
H598 C610 0.950 . S
H599 C611 0.950 . S
C600 H592 0.950 . S
C600 C601 1.386 . S
C600 C602 1.391 . S
C601 C600 1.386 . S
C601 C605 1.393 . S
C602 H594 0.950 . S
C602 C600 1.391 . S
C602 C603 1.400 . S
C603 C602 1.400 . S
C603 C604 1.398 . S
C603 C609 1.491 . S
C604 H595 0.950 . S
C604 C603 1.398 . S
C604 C605 1.391 . S
C605 H593 0.950 . S
C605 C601 1.393 . S
C605 C604 1.391 . S
C606 H596 0.950 . S
C606 C607 1.386 . S
C606 C608 1.391 . S
C607 C606 1.386 . S
C607 C611 1.393 . S
C608 H597 0.950 . S
C608 C606 1.391 . S
C608 C609 1.400 . S
C609 C603 1.491 . S
C609 C608 1.400 . S
C609 C610 1.398 . S
C610 H598 0.950 . S
C610 C609 1.398 . S
C610 C611 1.391 . S
C611 H599 0.950 . S
C611 C607 1.393 . S
C611 C610 1.391 . S
H612 C620 0.950 . S
H613 C625 0.950 . S
H614 C622 0.950 . S
H615 C624 0.950 . S
H616 C626 0.950 . S
H617 C628 0.950 . S
H618 C630 0.950 . S
H619 C631 0.950 . S
C620 H612 0.950 . S
C620 C621 1.386 . S
C620 C622 1.391 . S
C621 C620 1.386 . S
C621 C625 1.393 . S
C622 H614 0.950 . S
C622 C620 1.391 . S
C622 C623 1.400 . S
C623 C622 1.400 . S
C623 C624 1.398 . S
C623 C629 1.491 . S
C624 H615 0.950 . S
C624 C623 1.398 . S
C624 C625 1.391 . S
C625 H613 0.950 . S
C625 C621 1.393 . S
C625 C624 1.391 . S
C626 H616 0.950 . S
C626 C627 1.386 . S
C626 C628 1.391 . S
C627 C626 1.386 . S
C627 C631 1.393 . S
C628 H617 0.950 . S
C628 C626 1.391 . S
C628 C629 1.400 . S
C629 C623 1.491 . S
C629 C628 1.400 . S
C629 C630 1.398 . S
C630 H618 0.950 . S
C630 C629 1.398 . S
C630 C631 1.391 . S
C631 H619 0.950 . S
C631 C627 1.393 . S
C631 C630 1.391 . S
H632 C640 0.950 . S
H633 C645 0.950 . S
H634 C642 0.950 . S
H635 C644 0.950 . S
H636 C646 0.950 . S
H637 C648 0.950 . S
H638 C650 0.950 . S
H639 C651 0.950 . S
C640 H632 0.950 . S
C640 C641 1.386 . S
C640 C642 1.391 . S
C641 C640 1.386 . S
C641 C645 1.393 . S
C642 H634 0.950 . S
C642 C640 1.391 . S
C642 C643 1.400 . S
C643 C642 1.400 . S
C643 C644 1.398 . S
C643 C649 1.491 . S
C644 H635 0.950 . S
C644 C643 1.398 . S
C644 C645 1.391 . S
C645 H633 0.950 . S
C645 C641 1.393 . S
C645 C644 1.391 . S
C646 H636 0.950 . S
C646 C647 1.386 . S
C646 C648 1.391 . S
C647 C646 1.386 . S
C647 C651 1.393 . S
C648 H637 0.950 . S
C648 C646 1.391 . S
C648 C649 1.400 . S
C649 C643 1.491 . S
C649 C648 1.400 . S
C649 C650 1.398 . S
C650 H638 0.950 . S
C650 C649 1.398 . S
C650 C651 1.391 . S
C651 H639 0.950 . S
C651 C647 1.393 . S
C651 C650 1.391 . S
H652 C660 0.950 . S
H653 C665 0.950 . S
H654 C662 0.950 . S
H655 C664 0.950 . S
H656 C666 0.950 . S
H657 C668 0.950 . S
H658 C670 0.950 . S
H659 C671 0.950 . S
C660 H652 0.950 . S
C660 C661 1.386 . S
C660 C662 1.391 . S
C661 C660 1.386 . S
C661 C665 1.393 . S
C662 H654 0.950 . S
C662 C660 1.391 . S
C662 C663 1.400 . S
C663 C662 1.400 . S
C663 C664 1.398 . S
C663 C669 1.491 . S
C664 H655 0.950 . S
C664 C663 1.398 . S
C664 C665 1.391 . S
C665 H653 0.950 . S
C665 C661 1.393 . S
C665 C664 1.391 . S
C666 H656 0.950 . S
C666 C667 1.386 . S
C666 C668 1.391 . S
C667 C666 1.386 . S
C667 C671 1.393 . S
C668 H657 0.950 . S
C668 C666 1.391 . S
C668 C669 1.400 . S
C669 C663 1.491 . S
C669 C668 1.400 . S
C669 C670 1.398 . S
C670 H658 0.950 . S
C670 C669 1.398 . S
C670 C671 1.391 . S
C671 H659 0.950 . S
C671 C667 1.393 . S
C671 C670 1.391 . S
H672 C680 0.950 . S
H673 C685 0.950 . S
H674 C682 0.950 . S
H675 C684 0.950 . S
H676 C686 0.950 . S
H677 C688 0.950 . S
H678 C690 0.950 . S
H679 C691 0.950 . S
C680 H672 0.950 . S
C680 C681 1.386 . S
C680 C682 1.391 1_554 S
C681 C680 1.386 . S
C681 C685 1.393 . S
C682 H674 0.950 . S
C682 C680 1.391 1_556 S
C682 C683 1.400 . S
C683 C682 1.400 . S
C683 C684 1.398 1_556 S
C683 C689 1.491 . S
C684 H675 0.950 . S
C684 C683 1.398 1_554 S
C684 C685 1.391 . S
C685 H673 0.950 . S
C685 C681 1.393 . S
C685 C684 1.391 . S
C686 H676 0.950 . S
C686 C687 1.386 . S
C686 C688 1.391 . S
C687 C686 1.386 . S
C687 C691 1.393 . S
C688 H677 0.950 . S
C688 C686 1.391 . S
C688 C689 1.400 . S
C689 C683 1.491 . S
C689 C688 1.400 . S
C689 C690 1.398 . S
C690 H678 0.950 . S
C690 C689 1.398 . S
C690 C691 1.391 . S
C691 H679 0.950 . S
C691 C687 1.393 . S
C691 C690 1.391 . S
H692 C700 0.950 . S
H693 C705 0.950 . S
H694 C702 0.950 . S
H695 C704 0.950 . S
H696 C706 0.950 . S
H697 C708 0.950 . S
H698 C710 0.950 . S
H699 C711 0.950 . S
C700 H692 0.950 . S
C700 C701 1.386 . S
C700 C702 1.391 . S
C701 C700 1.386 . S
C701 C705 1.393 . S
C702 H694 0.950 . S
C702 C700 1.391 . S
C702 C703 1.400 . S
C703 C702 1.400 . S
C703 C704 1.398 . S
C703 C709 1.491 . S
C704 H695 0.950 . S
C704 C703 1.398 . S
C704 C705 1.391 . S
C705 H693 0.950 . S
C705 C701 1.393 . S
C705 C704 1.391 . S
C706 H696 0.950 . S
C706 C707 1.386 . S
C706 C708 1.391 . S
C707 C706 1.386 . S
C707 C711 1.393 . S
C708 H697 0.950 . S
C708 C706 1.391 . S
C708 C709 1.400 . S
C709 C703 1.491 . S
C709 C708 1.400 . S
C709 C710 1.398 . S
C710 H698 0.950 . S
C710 C709 1.398 . S
C710 C711 1.391 . S
C711 H699 0.950 . S
C711 C707 1.393 . S
C711 C710 1.391 . S
H712 C720 0.950 . S
H713 C725 0.950 . S
H714 C722 0.950 . S
H715 C724 0.950 . S
H716 C726 0.950 . S
H717 C728 0.950 . S
H718 C730 0.950 . S
H719 C731 0.950 . S
C720 H712 0.950 . S
C720 C721 1.386 . S
C720 C722 1.391 1_554 S
C721 C720 1.386 . S
C721 C725 1.393 . S
C722 H714 0.950 . S
C722 C720 1.391 1_556 S
C722 C723 1.400 . S
C723 C722 1.400 . S
C723 C724 1.398 1_556 S
C723 C729 1.491 . S
C724 H715 0.950 . S
C724 C723 1.398 1_554 S
C724 C725 1.391 . S
C725 H713 0.950 . S
C725 C721 1.393 . S
C725 C724 1.391 . S
C726 H716 0.950 . S
C726 C727 1.386 . S
C726 C728 1.391 . S
C727 C726 1.386 . S
C727 C731 1.393 . S
C728 H717 0.950 . S
C728 C726 1.391 . S
C728 C729 1.400 . S
C729 C723 1.491 . S
C729 C728 1.400 . S
C729 C730 1.398 . S
C730 H718 0.950 . S
C730 C729 1.398 . S
C730 C731 1.391 . S
C731 H719 0.950 . S
C731 C727 1.393 . S
C731 C730 1.391 . S
H732 C740 0.950 . S
H733 C745 0.950 . S
H734 C742 0.950 . S
H735 C744 0.950 . S
H736 C746 0.950 . S
H737 C748 0.950 . S
H738 C750 0.950 . S
H739 C751 0.950 . S
C740 H732 0.950 . S
C740 C741 1.386 . S
C740 C742 1.391 . S
C741 C740 1.386 . S
C741 C745 1.393 . S
C742 H734 0.950 . S
C742 C740 1.391 . S
C742 C743 1.400 . S
C743 C742 1.400 . S
C743 C744 1.398 . S
C743 C749 1.491 . S
C744 H735 0.950 . S
C744 C743 1.398 . S
C744 C745 1.391 . S
C745 H733 0.950 . S
C745 C741 1.393 . S
C745 C744 1.391 . S
C746 H736 0.950 . S
C746 C747 1.386 . S
C746 C748 1.391 . S
C747 C746 1.386 . S
C747 C751 1.393 . S
C748 H737 0.950 . S
C748 C746 1.391 . S
C748 C749 1.400 . S
C749 C743 1.491 . S
C749 C748 1.400 . S
C749 C750 1.398 . S
C750 H738 0.950 . S
C750 C749 1.398 . S
C750 C751 1.391 . S
C751 H739 0.950 . S
C751 C747 1.393 . S
C751 C750 1.391 . S
H752 C760 0.950 . S
H753 C765 0.950 . S
H754 C762 0.950 1_554 S
H755 C764 0.950 . S
H756 C766 0.950 . S
H757 C768 0.950 . S
H758 C770 0.950 . S
H759 C771 0.950 . S
C760 H752 0.950 . S
C760 C761 1.386 . S
C760 C762 1.391 . S
C761 C760 1.386 . S
C761 C765 1.393 . S
C762 H754 0.950 1_556 S
C762 C760 1.391 . S
C762 C763 1.400 1_556 S
C763 C762 1.400 1_554 S
C763 C764 1.398 . S
C763 C769 1.491 . S
C764 H755 0.950 . S
C764 C763 1.398 . S
C764 C765 1.391 1_554 S
C765 H753 0.950 . S
C765 C761 1.393 . S
C765 C764 1.391 1_556 S
C766 H756 0.950 . S
C766 C767 1.386 . S
C766 C768 1.391 . S
C767 C766 1.386 . S
C767 C771 1.393 . S
C768 H757 0.950 . S
C768 C766 1.391 . S
C768 C769 1.400 . S
C769 C763 1.491 . S
C769 C768 1.400 . S
C769 C770 1.398 . S
C770 H758 0.950 . S
C770 C769 1.398 . S
C770 C771 1.391 . S
C771 H759 0.950 . S
C771 C767 1.393 . S
C771 C770 1.391 . S
H772 C780 0.950 . S
H773 C785 0.950 . S
H774 C782 0.950 . S
H775 C784 0.950 . S
H776 C786 0.950 . S
H777 C788 0.950 . S
H778 C790 0.950 . S
H779 C791 0.950 . S
C780 H772 0.950 . S
C780 C781 1.386 . S
C780 C782 1.391 . S
C781 C780 1.386 . S
C781 C785 1.393 . S
C782 H774 0.950 . S
C782 C780 1.391 . S
C782 C783 1.400 . S
C783 C782 1.400 . S
C783 C784 1.398 . S
C783 C789 1.491 . S
C784 H775 0.950 . S
C784 C783 1.398 . S
C784 C785 1.391 . S
C785 H773 0.950 . S
C785 C781 1.393 . S
C785 C784 1.391 . S
C786 H776 0.950 . S
C786 C787 1.386 . S
C786 C788 1.391 . S
C787 C786 1.386 . S
C787 C791 1.393 . S
C788 H777 0.950 . S
C788 C786 1.391 . S
C788 C789 1.400 . S
C789 C783 1.491 . S
C789 C788 1.400 . S
C789 C790 1.398 . S
C790 H778 0.950 . S
C790 C789 1.398 . S
C790 C791 1.391 . S
C791 H779 0.950 . S
C791 C787 1.393 . S
C791 C790 1.391 . S
H792 C800 0.950 . S
H793 C805 0.950 . S
H794 C802 0.950 . S
H795 C804 0.951 . S
H796 C806 0.950 . S
H797 C808 0.950 . S
H798 C810 0.950 . S
H799 C811 0.950 . S
C800 H792 0.950 . S
C800 C801 1.386 . S
C800 C802 1.391 1_556 S
C801 C800 1.386 . S
C801 C805 1.393 . S
C802 H794 0.950 . S
C802 C800 1.391 1_554 S
C802 C803 1.400 . S
C803 C802 1.400 . S
C803 C804 1.398 1_554 S
C803 C809 1.491 . S
C804 H795 0.951 . S
C804 C803 1.398 1_556 S
C804 C805 1.391 . S
C805 H793 0.950 . S
C805 C801 1.393 . S
C805 C804 1.391 . S
C806 H796 0.950 . S
C806 C807 1.386 . S
C806 C808 1.391 . S
C807 C806 1.386 . S
C807 C811 1.393 . S
C808 H797 0.950 . S
C808 C806 1.391 . S
C808 C809 1.400 . S
C809 C803 1.491 . S
C809 C808 1.400 . S
C809 C810 1.398 . S
C810 H798 0.950 . S
C810 C809 1.398 . S
C810 C811 1.391 . S
C811 H799 0.950 . S
C811 C807 1.393 . S
C811 C810 1.391 . S
H812 C820 0.950 . S
H813 C825 0.950 . S
H814 C822 0.950 . S
H815 C824 0.950 . S
H816 C826 0.950 . S
H817 C828 0.950 . S
H818 C830 0.950 . S
H819 C831 0.950 . S
C820 H812 0.950 . S
C820 C821 1.386 . S
C820 C822 1.391 . S
C821 C820 1.386 . S
C821 C825 1.393 . S
C822 H814 0.950 . S
C822 C820 1.391 . S
C822 C823 1.400 . S
C823 C822 1.400 . S
C823 C824 1.398 . S
C823 C829 1.491 . S
C824 H815 0.950 . S
C824 C823 1.398 . S
C824 C825 1.391 . S
C825 H813 0.950 . S
C825 C821 1.393 . S
C825 C824 1.391 . S
C826 H816 0.950 . S
C826 C827 1.386 . S
C826 C828 1.391 . S
C827 C826 1.386 . S
C827 C831 1.393 . S
C828 H817 0.950 . S
C828 C826 1.391 . S
C828 C829 1.400 . S
C829 C823 1.491 . S
C829 C828 1.400 . S
C829 C830 1.398 . S
C830 H818 0.950 . S
C830 C829 1.398 . S
C830 C831 1.391 . S
C831 H819 0.950 . S
C831 C827 1.393 . S
C831 C830 1.391 . S
H832 C840 0.950 . S
H833 C845 0.950 . S
H834 C842 0.950 . S
H835 C844 0.950 . S
H836 C846 0.950 . S
H837 C848 0.950 . S
H838 C850 0.950 . S
H839 C851 0.950 . S
C840 H832 0.950 . S
C840 C841 1.386 . S
C840 C842 1.391 . S
C841 C840 1.386 . S
C841 C845 1.393 . S
C842 H834 0.950 . S
C842 C840 1.391 . S
C842 C843 1.400 1_556 S
C843 C842 1.400 1_554 S
C843 C844 1.398 . S
C843 C849 1.491 . S
C844 H835 0.950 . S
C844 C843 1.398 . S
C844 C845 1.391 1_554 S
C845 H833 0.950 . S
C845 C841 1.393 . S
C845 C844 1.391 1_556 S
C846 H836 0.950 . S
C846 C847 1.386 . S
C846 C848 1.391 . S
C847 C846 1.386 . S
C847 C851 1.393 . S
C848 H837 0.950 . S
C848 C846 1.391 . S
C848 C849 1.400 . S
C849 C843 1.491 . S
C849 C848 1.400 . S
C849 C850 1.398 . S
C850 H838 0.950 . S
C850 C849 1.398 . S
C850 C851 1.391 . S
C851 H839 0.950 . S
C851 C847 1.393 . S
C851 C850 1.391 . S
H852 C860 0.950 . S
H853 C865 0.950 . S
H854 C862 0.950 . S
H855 C864 0.950 . S
H856 C866 0.950 . S
H857 C868 0.950 . S
H858 C870 0.950 . S
H859 C871 0.950 . S
C860 H852 0.950 . S
C860 C861 1.386 . S
C860 C862 1.391 . S
C861 C860 1.386 . S
C861 C865 1.393 . S
C862 H854 0.950 . S
C862 C860 1.391 . S
C862 C863 1.400 . S
C863 C862 1.400 . S
C863 C864 1.398 . S
C863 C869 1.491 . S
C864 H855 0.950 . S
C864 C863 1.398 . S
C864 C865 1.391 . S
C865 H853 0.950 . S
C865 C861 1.393 . S
C865 C864 1.391 . S
C866 H856 0.950 . S
C866 C867 1.386 . S
C866 C868 1.391 . S
C867 C866 1.386 . S
C867 C871 1.393 . S
C868 H857 0.950 . S
C868 C866 1.391 . S
C868 C869 1.400 . S
C869 C863 1.491 . S
C869 C868 1.400 . S
C869 C870 1.398 . S
C870 H858 0.950 . S
C870 C869 1.398 . S
C870 C871 1.391 . S
C871 H859 0.950 . S
C871 C867 1.393 . S
C871 C870 1.391 . S
H872 C880 0.950 . S
H873 C885 0.950 . S
H874 C882 0.950 . S
H875 C884 0.950 . S
H876 C886 0.950 . S
H877 C888 0.950 . S
H878 C890 0.950 . S
H879 C891 0.950 . S
C880 H872 0.950 . S
C880 C881 1.386 . S
C880 C882 1.391 1_556 S
C881 C880 1.386 . S
C881 C885 1.393 . S
C882 H874 0.950 . S
C882 C880 1.391 1_554 S
C882 C883 1.400 . S
C883 C882 1.400 . S
C883 C884 1.398 . S
C883 C889 1.491 . S
C884 H875 0.950 . S
C884 C883 1.398 . S
C884 C885 1.391 1_554 S
C885 H873 0.950 . S
C885 C881 1.393 . S
C885 C884 1.391 1_556 S
C886 H876 0.950 . S
C886 C887 1.386 . S
C886 C888 1.391 . S
C887 C886 1.386 . S
C887 C891 1.393 . S
C888 H877 0.950 . S
C888 C886 1.391 . S
C888 C889 1.400 . S
C889 C883 1.491 . S
C889 C888 1.400 . S
C889 C890 1.398 . S
C890 H878 0.950 . S
C890 C889 1.398 . S
C890 C891 1.391 . S
C891 H879 0.950 . S
C891 C887 1.393 . S
C891 C890 1.391 . S
H892 C900 0.950 . S
H893 C905 0.950 . S
H894 C902 0.950 . S
H895 C904 0.950 . S
H896 C906 0.950 . S
H897 C908 0.950 . S
H898 C910 0.950 . S
H899 C911 0.950 . S
C900 H892 0.950 . S
C900 C901 1.386 . S
C900 C902 1.391 . S
C901 C900 1.386 . S
C901 C905 1.393 . S
C902 H894 0.950 . S
C902 C900 1.391 . S
C902 C903 1.400 . S
C903 C902 1.400 . S
C903 C904 1.398 . S
C903 C909 1.491 . S
C904 H895 0.950 . S
C904 C903 1.398 . S
C904 C905 1.391 . S
C905 H893 0.950 . S
C905 C901 1.393 . S
C905 C904 1.391 . S
C906 H896 0.950 . S
C906 C907 1.386 . S
C906 C908 1.391 . S
C907 C906 1.386 . S
C907 C911 1.393 . S
C908 H897 0.950 . S
C908 C906 1.391 . S
C908 C909 1.400 . S
C909 C903 1.491 . S
C909 C908 1.400 . S
C909 C910 1.398 . S
C910 H898 0.950 . S
C910 C909 1.398 . S
C910 C911 1.391 . S
C911 H899 0.950 . S
C911 C907 1.393 . S
C911 C910 1.391 . S
H912 C920 0.950 . S
H913 C925 0.950 . S
H914 C922 0.950 . S
H915 C924 0.950 . S
H916 C926 0.950 . S
H917 C928 0.950 . S
H918 C930 0.950 . S
H919 C931 0.950 . S
C920 H912 0.950 . S
C920 C921 1.386 . S
C920 C922 1.391 . S
C921 C920 1.386 . S
C921 C925 1.393 . S
C922 H914 0.950 . S
C922 C920 1.391 . S
C922 C923 1.400 . S
C923 C922 1.400 . S
C923 C924 1.398 . S
C923 C929 1.491 . S
C924 H915 0.950 . S
C924 C923 1.398 . S
C924 C925 1.391 . S
C925 H913 0.950 . S
C925 C921 1.393 . S
C925 C924 1.391 . S
C926 H916 0.950 . S
C926 C927 1.386 . S
C926 C928 1.391 . S
C927 C926 1.386 . S
C927 C931 1.393 . S
C928 H917 0.950 . S
C928 C926 1.391 . S
C928 C929 1.400 1_554 S
C929 C923 1.491 . S
C929 C928 1.400 1_556 S
C929 C930 1.398 . S
C930 H918 0.950 . S
C930 C929 1.398 . S
C930 C931 1.391 1_556 S
C931 H919 0.950 . S
C931 C927 1.393 . S
C931 C930 1.391 1_554 S
H932 C940 0.950 . S
H933 C945 0.950 . S
H934 C942 0.950 . S
H935 C944 0.950 . S
H936 C946 0.950 . S
H937 C948 0.950 . S
H938 C950 0.950 . S
H939 C951 0.950 . S
C940 H932 0.950 . S
C940 C941 1.386 . S
C940 C942 1.391 . S
C941 C940 1.386 . S
C941 C945 1.393 . S
C942 H934 0.950 . S
C942 C940 1.391 . S
C942 C943 1.400 . S
C943 C942 1.400 . S
C943 C944 1.398 . S
C943 C949 1.491 . S
C944 H935 0.950 . S
C944 C943 1.398 . S
C944 C945 1.391 . S
C945 H933 0.950 . S
C945 C941 1.393 . S
C945 C944 1.391 . S
C946 H936 0.950 . S
C946 C947 1.386 . S
C946 C948 1.391 . S
C947 C946 1.386 . S
C947 C951 1.393 . S
C948 H937 0.950 . S
C948 C946 1.391 . S
C948 C949 1.400 . S
C949 C943 1.491 . S
C949 C948 1.400 . S
C949 C950 1.398 . S
C950 H938 0.950 . S
C950 C949 1.398 . S
C950 C951 1.391 . S
C951 H939 0.950 . S
C951 C947 1.393 . S
C951 C950 1.391 . S
H952 C960 0.950 . S
H953 C965 0.950 . S
H954 C962 0.950 . S
H955 C964 0.950 . S
H956 C966 0.950 . S
H957 C968 0.950 . S
H958 C970 0.950 . S
H959 C971 0.950 . S
C960 H952 0.950 . S
C960 C961 1.386 . S
C960 C962 1.391 . S
C961 C960 1.386 . S
C961 C965 1.393 . S
C962 H954 0.950 . S
C962 C960 1.391 . S
C962 C963 1.400 . S
C963 C962 1.400 . S
C963 C964 1.398 . S
C963 C969 1.491 . S
C964 H955 0.950 . S
C964 C963 1.398 . S
C964 C965 1.391 . S
C965 H953 0.950 . S
C965 C961 1.393 . S
C965 C964 1.391 . S
C966 H956 0.950 . S
C966 C967 1.386 . S
C966 C968 1.391 1_554 S
C967 C966 1.386 . S
C967 C971 1.393 . S
C968 H957 0.950 . S
C968 C966 1.391 1_556 S
C968 C969 1.400 . S
C969 C963 1.491 . S
C969 C968 1.400 . S
C969 C970 1.398 1_556 S
C970 H958 0.950 . S
C970 C969 1.398 1_554 S
C970 C971 1.391 . S
C971 H959 0.950 . S
C971 C967 1.393 . S
C971 C970 1.391 . S
H972 C980 0.950 . S
H973 C985 0.950 . S
H974 C982 0.950 . S
H975 C984 0.950 . S
H976 C986 0.950 . S
H977 C988 0.950 . S
H978 C990 0.950 . S
H979 C991 0.950 . S
C980 H972 0.950 . S
C980 C981 1.386 . S
C980 C982 1.391 . S
C981 C980 1.386 . S
C981 C985 1.393 . S
C982 H974 0.950 . S
C982 C980 1.391 . S
C982 C983 1.400 . S
C983 C982 1.400 . S
C983 C984 1.398 . S
C983 C989 1.491 . S
C984 H975 0.950 . S
C984 C983 1.398 . S
C984 C985 1.391 . S
C985 H973 0.950 . S
C985 C981 1.393 . S
C985 C984 1.391 . S
C986 H976 0.950 . S
C986 C987 1.386 . S
C986 C988 1.391 . S
C987 C986 1.386 . S
C987 C991 1.393 . S
C988 H977 0.950 . S
C988 C986 1.391 . S
C988 C989 1.400 . S
C989 C983 1.491 . S
C989 C988 1.400 . S
C989 C990 1.398 . S
C990 H978 0.950 . S
C990 C989 1.398 . S
C990 C991 1.391 . S
C991 H979 0.950 . S
C991 C987 1.393 . S
C991 C990 1.391 . S
H992 C1000 0.950 . S
H993 C1005 0.950 1_565 S
H994 C1002 0.950 . S
H995 C1004 0.950 . S
H996 C1006 0.950 . S
H997 C1008 0.950 . S
H998 C1010 0.950 . S
H999 C1011 0.950 . S
C1000 H992 0.950 . S
C1000 C1001 1.386 . S
C1000 C1002 1.391 . S
C1001 C1000 1.386 . S
C1001 C1005 1.393 . S
C1002 H994 0.950 . S
C1002 C1000 1.391 . S
C1002 C1003 1.400 . S
C1003 C1002 1.400 . S
C1003 C1004 1.398 . S
C1003 C1009 1.491 . S
C1004 H995 0.950 . S
C1004 C1003 1.398 . S
C1004 C1005 1.391 . S
C1005 H993 0.950 1_545 S
C1005 C1001 1.393 . S
C1005 C1004 1.391 . S
C1006 H996 0.950 . S
C1006 C1007 1.386 . S
C1006 C1008 1.391 . S
C1007 C1006 1.386 . S
C1007 C1011 1.393 . S
C1008 H997 0.950 . S
C1008 C1006 1.391 . S
C1008 C1009 1.400 . S
C1009 C1003 1.491 . S
C1009 C1008 1.400 . S
C1009 C1010 1.398 . S
C1010 H998 0.950 . S
C1010 C1009 1.398 . S
C1010 C1011 1.391 . S
C1011 H999 0.950 . S
C1011 C1007 1.393 . S
C1011 C1010 1.391 . S
H1012 C1020 0.950 . S
H1013 C1025 0.950 . S
H1014 C1022 0.950 . S
H1015 C1024 0.950 . S
H1016 C1026 0.950 . S
H1017 C1028 0.950 . S
H1018 C1030 0.950 . S
H1019 C1031 0.950 . S
C1020 H1012 0.950 . S
C1020 C1021 1.386 . S
C1020 C1022 1.391 . S
C1021 C1020 1.386 . S
C1021 C1025 1.393 . S
C1022 H1014 0.950 . S
C1022 C1020 1.391 . S
C1022 C1023 1.400 . S
C1023 C1022 1.400 . S
C1023 C1024 1.398 . S
C1023 C1029 1.491 . S
C1024 H1015 0.950 . S
C1024 C1023 1.398 . S
C1024 C1025 1.391 . S
C1025 H1013 0.950 . S
C1025 C1021 1.393 . S
C1025 C1024 1.391 . S
C1026 H1016 0.950 . S
C1026 C1027 1.386 . S
C1026 C1028 1.391 . S
C1027 C1026 1.386 . S
C1027 C1031 1.393 . S
C1028 H1017 0.950 . S
C1028 C1026 1.391 . S
C1028 C1029 1.400 . S
C1029 C1023 1.491 . S
C1029 C1028 1.400 . S
C1029 C1030 1.398 . S
C1030 H1018 0.950 . S
C1030 C1029 1.398 . S
C1030 C1031 1.391 . S
C1031 H1019 0.950 . S
C1031 C1027 1.393 . S
C1031 C1030 1.391 . S
H1032 C1040 0.950 . S
H1033 C1045 0.950 1_655 S
H1034 C1042 0.950 . S
H1035 C1044 0.950 . S
H1036 C1046 0.950 . S
H1037 C1048 0.950 . S
H1038 C1050 0.950 . S
H1039 C1051 0.950 . S
C1040 H1032 0.950 . S
C1040 C1041 1.386 . S
C1040 C1042 1.391 . S
C1041 C1040 1.386 . S
C1041 C1045 1.393 . S
C1042 H1034 0.950 . S
C1042 C1040 1.391 . S
C1042 C1043 1.400 . S
C1043 C1042 1.400 . S
C1043 C1044 1.398 . S
C1043 C1049 1.491 . S
C1044 H1035 0.950 . S
C1044 C1043 1.398 . S
C1044 C1045 1.391 . S
C1045 H1033 0.950 1_455 S
C1045 C1041 1.393 . S
C1045 C1044 1.391 . S
C1046 H1036 0.950 . S
C1046 C1047 1.386 . S
C1046 C1048 1.391 . S
C1047 C1046 1.386 . S
C1047 C1051 1.393 . S
C1048 H1037 0.950 . S
C1048 C1046 1.391 . S
C1048 C1049 1.400 . S
C1049 C1043 1.491 . S
C1049 C1048 1.400 . S
C1049 C1050 1.398 . S
C1050 H1038 0.950 . S
C1050 C1049 1.398 . S
C1050 C1051 1.391 . S
C1051 H1039 0.950 . S
C1051 C1047 1.393 . S
C1051 C1050 1.391 . S
H1052 C1060 0.950 . S
H1053 C1065 0.950 1_565 S
H1054 C1062 0.950 . S
H1055 C1064 0.950 . S
H1056 C1066 0.950 1_655 S
H1057 C1068 0.950 . S
H1058 C1070 0.950 . S
H1059 C1071 0.950 . S
C1060 H1052 0.950 . S
C1060 C1061 1.386 . S
C1060 C1062 1.391 . S
C1061 C1060 1.386 . S
C1061 C1065 1.393 . S
C1062 H1054 0.950 . S
C1062 C1060 1.391 . S
C1062 C1063 1.400 . S
C1063 C1062 1.400 . S
C1063 C1064 1.398 . S
C1063 C1069 1.491 . S
C1064 H1055 0.950 . S
C1064 C1063 1.398 . S
C1064 C1065 1.391 . S
C1065 H1053 0.950 1_545 S
C1065 C1061 1.393 . S
C1065 C1064 1.391 . S
C1066 H1056 0.950 1_455 S
C1066 C1067 1.386 . S
C1066 C1068 1.391 . S
C1067 C1066 1.386 . S
C1067 C1071 1.393 . S
C1068 H1057 0.950 . S
C1068 C1066 1.391 . S
C1068 C1069 1.400 . S
C1069 C1063 1.491 . S
C1069 C1068 1.400 . S
C1069 C1070 1.398 . S
C1070 H1058 0.950 . S
C1070 C1069 1.398 . S
C1070 C1071 1.391 . S
C1071 H1059 0.950 . S
C1071 C1067 1.393 . S
C1071 C1070 1.391 . S
H1072 C1080 0.950 . S
H1073 C1085 0.950 . S
H1074 C1082 0.950 . S
H1075 C1084 0.950 . S
H1076 C1086 0.950 . S
H1077 C1088 0.950 . S
H1078 C1090 0.950 . S
H1079 C1091 0.950 . S
C1080 H1072 0.950 . S
C1080 C1081 1.386 . S
C1080 C1082 1.391 . S
C1081 C1080 1.386 . S
C1081 C1085 1.393 . S
C1082 H1074 0.950 . S
C1082 C1080 1.391 . S
C1082 C1083 1.400 . S
C1083 C1082 1.400 . S
C1083 C1084 1.398 . S
C1083 C1089 1.491 . S
C1084 H1075 0.950 . S
C1084 C1083 1.398 . S
C1084 C1085 1.391 . S
C1085 H1073 0.950 . S
C1085 C1081 1.393 . S
C1085 C1084 1.391 . S
C1086 H1076 0.950 . S
C1086 C1087 1.386 . S
C1086 C1088 1.391 . S
C1087 C1086 1.386 . S
C1087 C1091 1.393 . S
C1088 H1077 0.950 . S
C1088 C1086 1.391 . S
C1088 C1089 1.400 . S
C1089 C1083 1.491 . S
C1089 C1088 1.400 . S
C1089 C1090 1.398 . S
C1090 H1078 0.950 . S
C1090 C1089 1.398 . S
C1090 C1091 1.391 . S
C1091 H1079 0.950 . S
C1091 C1087 1.393 . S
C1091 C1090 1.391 . S
H1092 C1100 0.950 . S
H1093 C1105 0.950 . S
H1094 C1102 0.950 . S
H1095 C1104 0.950 . S
H1096 C1106 0.950 . S
H1097 C1108 0.950 . S
H1098 C1110 0.950 . S
H1099 C1111 0.950 . S
C1100 H1092 0.950 . S
C1100 C1101 1.386 . S
C1100 C1102 1.391 . S
C1101 C1100 1.386 . S
C1101 C1105 1.393 . S
C1102 H1094 0.950 . S
C1102 C1100 1.391 . S
C1102 C1103 1.400 . S
C1103 C1102 1.400 . S
C1103 C1104 1.398 . S
C1103 C1109 1.491 . S
C1104 H1095 0.950 . S
C1104 C1103 1.398 . S
C1104 C1105 1.391 . S
C1105 H1093 0.950 . S
C1105 C1101 1.393 . S
C1105 C1104 1.391 . S
C1106 H1096 0.950 . S
C1106 C1107 1.386 . S
C1106 C1108 1.391 . S
C1107 C1106 1.386 . S
C1107 C1111 1.393 . S
C1108 H1097 0.950 . S
C1108 C1106 1.391 . S
C1108 C1109 1.400 . S
C1109 C1103 1.491 . S
C1109 C1108 1.400 . S
C1109 C1110 1.398 . S
C1110 H1098 0.950 . S
C1110 C1109 1.398 . S
C1110 C1111 1.391 . S
C1111 H1099 0.950 . S
C1111 C1107 1.393 . S
C1111 C1110 1.391 . S
H1112 C1120 0.950 . S
H1113 C1125 0.950 . S
H1114 C1122 0.950 . S
H1115 C1124 0.950 . S
H1116 C1126 0.950 1_455 S
H1117 C1128 0.950 . S
H1118 C1130 0.950 . S
H1119 C1131 0.950 . S
C1120 H1112 0.950 . S
C1120 C1121 1.386 . S
C1120 C1122 1.391 . S
C1121 C1120 1.386 . S
C1121 C1125 1.393 . S
C1122 H1114 0.950 . S
C1122 C1120 1.391 . S
C1122 C1123 1.400 . S
C1123 C1122 1.400 . S
C1123 C1124 1.398 . S
C1123 C1129 1.491 . S
C1124 H1115 0.950 . S
C1124 C1123 1.398 . S
C1124 C1125 1.391 . S
C1125 H1113 0.950 . S
C1125 C1121 1.393 . S
C1125 C1124 1.391 . S
C1126 H1116 0.950 1_655 S
C1126 C1127 1.386 . S
C1126 C1128 1.391 . S
C1127 C1126 1.386 . S
C1127 C1131 1.393 . S
C1128 H1117 0.950 . S
C1128 C1126 1.391 . S
C1128 C1129 1.400 . S
C1129 C1123 1.491 . S
C1129 C1128 1.400 . S
C1129 C1130 1.398 . S
C1130 H1118 0.950 . S
C1130 C1129 1.398 . S
C1130 C1131 1.391 . S
C1131 H1119 0.950 . S
C1131 C1127 1.393 . S
C1131 C1130 1.391 . S
H1132 C1140 0.950 . S
H1133 C1145 0.950 . S
H1134 C1142 0.950 . S
H1135 C1144 0.950 . S
H1136 C1146 0.950 . S
H1137 C1148 0.950 . S
H1138 C1150 0.950 . S
H1139 C1151 0.950 1_455 S
C1140 H1132 0.950 . S
C1140 C1141 1.386 . S
C1140 C1142 1.391 . S
C1141 C1140 1.386 . S
C1141 C1145 1.393 . S
C1142 H1134 0.950 . S
C1142 C1140 1.391 . S
C1142 C1143 1.400 . S
C1143 C1142 1.400 . S
C1143 C1144 1.398 . S
C1143 C1149 1.491 . S
C1144 H1135 0.950 . S
C1144 C1143 1.398 . S
C1144 C1145 1.391 . S
C1145 H1133 0.950 . S
C1145 C1141 1.393 . S
C1145 C1144 1.391 . S
C1146 H1136 0.950 . S
C1146 C1147 1.386 . S
C1146 C1148 1.391 . S
C1147 C1146 1.386 . S
C1147 C1151 1.393 . S
C1148 H1137 0.950 . S
C1148 C1146 1.391 . S
C1148 C1149 1.400 . S
C1149 C1143 1.491 . S
C1149 C1148 1.400 . S
C1149 C1150 1.398 . S
C1150 H1138 0.950 . S
C1150 C1149 1.398 . S
C1150 C1151 1.391 . S
C1151 H1139 0.950 1_655 S
C1151 C1147 1.393 . S
C1151 C1150 1.391 . S
H1152 C1160 0.950 . S
H1153 C1165 0.950 . S
H1154 C1162 0.950 . S
H1155 C1164 0.950 1_556 S
H1156 C1166 0.950 . S
H1157 C1168 0.950 . S
H1158 C1170 0.950 1_554 S
H1159 C1171 0.950 . S
C1160 H1152 0.950 . S
C1160 C1161 1.386 . S
C1160 C1162 1.391 . S
C1161 C1160 1.386 . S
C1161 C1165 1.393 . S
C1162 H1154 0.950 . S
C1162 C1160 1.391 . S
C1162 C1163 1.400 . S
C1163 C1162 1.400 . S
C1163 C1164 1.398 . S
C1163 C1169 1.491 1_554 S
C1164 H1155 0.950 1_554 S
C1164 C1163 1.398 . S
C1164 C1165 1.391 . S
C1165 H1153 0.950 . S
C1165 C1161 1.393 . S
C1165 C1164 1.391 . S
C1166 H1156 0.950 . S
C1166 C1167 1.386 . S
C1166 C1168 1.391 . S
C1167 C1166 1.386 . S
C1167 C1171 1.393 . S
C1168 H1157 0.950 . S
C1168 C1166 1.391 . S
C1168 C1169 1.400 . S
C1169 C1163 1.491 1_556 S
C1169 C1168 1.400 . S
C1169 C1170 1.398 . S
C1170 H1158 0.950 1_556 S
C1170 C1169 1.398 . S
C1170 C1171 1.391 . S
C1171 H1159 0.950 . S
C1171 C1167 1.393 . S
C1171 C1170 1.391 . S
H1172 C1180 0.950 . S
H1173 C1185 0.950 . S
H1174 C1182 0.950 . S
H1175 C1184 0.950 . S
H1176 C1186 0.950 . S
H1177 C1188 0.950 . S
H1178 C1190 0.950 . S
H1179 C1191 0.950 . S
C1180 H1172 0.950 . S
C1180 C1181 1.386 . S
C1180 C1182 1.391 . S
C1181 C1180 1.386 . S
C1181 C1185 1.393 . S
C1182 H1174 0.950 . S
C1182 C1180 1.391 . S
C1182 C1183 1.400 . S
C1183 C1182 1.400 . S
C1183 C1184 1.398 . S
C1183 C1189 1.491 . S
C1184 H1175 0.950 . S
C1184 C1183 1.398 . S
C1184 C1185 1.391 . S
C1185 H1173 0.950 . S
C1185 C1181 1.393 . S
C1185 C1184 1.391 . S
C1186 H1176 0.950 . S
C1186 C1187 1.386 . S
C1186 C1188 1.391 . S
C1187 C1186 1.386 . S
C1187 C1191 1.393 . S
C1188 H1177 0.950 . S
C1188 C1186 1.391 . S
C1188 C1189 1.400 . S
C1189 C1183 1.491 . S
C1189 C1188 1.400 . S
C1189 C1190 1.398 . S
C1190 H1178 0.950 . S
C1190 C1189 1.398 . S
C1190 C1191 1.391 . S
C1191 H1179 0.950 . S
C1191 C1187 1.393 . S
C1191 C1190 1.391 . S
H1192 C1200 0.950 . S
H1193 C1205 0.950 . S
H1194 C1202 0.950 . S
H1195 C1204 0.950 1_556 S
H1196 C1206 0.950 . S
H1197 C1208 0.950 . S
H1198 C1210 0.950 1_554 S
H1199 C1211 0.950 . S
C1200 H1192 0.950 . S
C1200 C1201 1.386 . S
C1200 C1202 1.391 . S
C1201 C1200 1.386 . S
C1201 C1205 1.393 . S
C1202 H1194 0.950 . S
C1202 C1200 1.391 . S
C1202 C1203 1.400 . S
C1203 C1202 1.400 . S
C1203 C1204 1.398 . S
C1203 C1209 1.491 1_554 S
C1204 H1195 0.950 1_554 S
C1204 C1203 1.398 . S
C1204 C1205 1.391 . S
C1205 H1193 0.950 . S
C1205 C1201 1.393 . S
C1205 C1204 1.391 . S
C1206 H1196 0.950 . S
C1206 C1207 1.386 . S
C1206 C1208 1.391 . S
C1207 C1206 1.386 . S
C1207 C1211 1.393 . S
C1208 H1197 0.950 . S
C1208 C1206 1.391 . S
C1208 C1209 1.400 . S
C1209 C1203 1.491 1_556 S
C1209 C1208 1.400 . S
C1209 C1210 1.398 . S
C1210 H1198 0.950 1_556 S
C1210 C1209 1.398 . S
C1210 C1211 1.391 . S
C1211 H1199 0.950 . S
C1211 C1207 1.393 . S
C1211 C1210 1.391 . S
H1212 C1220 0.950 . S
H1213 C1225 0.950 1_545 S
H1214 C1222 0.950 . S
H1215 C1224 0.950 1_545 S
H1216 C1226 0.950 1_545 S
H1217 C1228 0.950 1_545 S
H1218 C1230 0.950 . S
H1219 C1231 0.950 . S
C1220 H1212 0.950 . S
C1220 C1221 1.386 . S
C1220 C1222 1.391 . S
C1221 C1220 1.386 . S
C1221 C1225 1.393 . S
C1222 H1214 0.950 . S
C1222 C1220 1.391 . S
C1222 C1223 1.400 . S
C1223 C1222 1.400 . S
C1223 C1224 1.398 . S
C1223 C1229 1.491 . S
C1224 H1215 0.950 1_565 S
C1224 C1223 1.398 . S
C1224 C1225 1.391 . S
C1225 H1213 0.950 1_565 S
C1225 C1221 1.393 . S
C1225 C1224 1.391 . S
C1226 H1216 0.950 1_565 S
C1226 C1227 1.386 . S
C1226 C1228 1.391 . S
C1227 C1226 1.386 . S
C1227 C1231 1.393 . S
C1228 H1217 0.950 1_565 S
C1228 C1226 1.391 . S
C1228 C1229 1.400 . S
C1229 C1223 1.491 . S
C1229 C1228 1.400 . S
C1229 C1230 1.398 . S
C1230 H1218 0.950 . S
C1230 C1229 1.398 . S
C1230 C1231 1.391 . S
C1231 H1219 0.950 . S
C1231 C1227 1.393 . S
C1231 C1230 1.391 . S
H1232 C1240 0.950 . S
H1233 C1245 0.950 . S
H1234 C1242 0.950 . S
H1235 C1244 0.950 1_556 S
H1236 C1246 0.950 . S
H1237 C1248 0.950 . S
H1238 C1250 0.950 1_554 S
H1239 C1251 0.950 . S
C1240 H1232 0.950 . S
C1240 C1241 1.386 . S
C1240 C1242 1.391 . S
C1241 C1240 1.386 . S
C1241 C1245 1.393 . S
C1242 H1234 0.950 . S
C1242 C1240 1.391 . S
C1242 C1243 1.400 . S
C1243 C1242 1.400 . S
C1243 C1244 1.398 . S
C1243 C1249 1.491 1_554 S
C1244 H1235 0.950 1_554 S
C1244 C1243 1.398 . S
C1244 C1245 1.391 . S
C1245 H1233 0.950 . S
C1245 C1241 1.393 . S
C1245 C1244 1.391 . S
C1246 H1236 0.950 . S
C1246 C1247 1.386 . S
C1246 C1248 1.391 . S
C1247 C1246 1.386 . S
C1247 C1251 1.393 . S
C1248 H1237 0.950 . S
C1248 C1246 1.391 . S
C1248 C1249 1.400 . S
C1249 C1243 1.491 1_556 S
C1249 C1248 1.400 . S
C1249 C1250 1.398 . S
C1250 H1238 0.950 1_556 S
C1250 C1249 1.398 . S
C1250 C1251 1.391 . S
C1251 H1239 0.950 . S
C1251 C1247 1.393 . S
C1251 C1250 1.391 . S
H1252 C1260 0.950 . S
H1253 C1265 0.950 . S
H1254 C1262 0.950 . S
H1255 C1264 0.950 . S
H1256 C1266 0.950 . S
H1257 C1268 0.950 . S
H1258 C1270 0.950 . S
H1259 C1271 0.950 . S
C1260 H1252 0.950 . S
C1260 C1261 1.386 . S
C1260 C1262 1.391 . S
C1261 C1260 1.386 . S
C1261 C1265 1.393 . S
C1262 H1254 0.950 . S
C1262 C1260 1.391 . S
C1262 C1263 1.400 . S
C1263 C1262 1.400 . S
C1263 C1264 1.398 . S
C1263 C1269 1.491 . S
C1264 H1255 0.950 . S
C1264 C1263 1.398 . S
C1264 C1265 1.391 . S
C1265 H1253 0.950 . S
C1265 C1261 1.393 . S
C1265 C1264 1.391 . S
C1266 H1256 0.950 . S
C1266 C1267 1.386 . S
C1266 C1268 1.391 . S
C1267 C1266 1.386 . S
C1267 C1271 1.393 . S
C1268 H1257 0.950 . S
C1268 C1266 1.391 . S
C1268 C1269 1.400 . S
C1269 C1263 1.491 . S
C1269 C1268 1.400 . S
C1269 C1270 1.398 . S
C1270 H1258 0.950 . S
C1270 C1269 1.398 . S
C1270 C1271 1.391 . S
C1271 H1259 0.950 . S
C1271 C1267 1.393 . S
C1271 C1270 1.391 . S
H1272 C1280 0.950 . S
H1273 C1285 0.962 . S
H1274 C1282 0.950 . S
H1275 C1284 0.952 . S
H1276 C1286 0.950 . S
H1277 C1288 0.985 . S
H1278 C1290 0.950 . S
H1279 C1291 0.950 . S
C1280 H1272 0.950 . S
C1280 C1281 1.386 . S
C1280 C1282 1.391 . S
C1281 C1280 1.386 . S
C1281 C1285 1.381 1_455 S
C1282 H1274 0.950 . S
C1282 C1280 1.391 . S
C1282 C1283 1.400 . S
C1283 C1282 1.400 . S
C1283 C1284 1.396 1_455 S
C1283 C1289 1.491 1_556 S
C1284 H1275 0.952 . S
C1284 C1283 1.396 1_655 S
C1284 C1285 1.391 . S
C1285 H1273 0.962 . S
C1285 C1281 1.381 1_655 S
C1285 C1284 1.391 . S
C1286 H1276 0.950 . S
C1286 C1287 1.386 1_655 S
C1286 C1288 1.392 . S
C1287 C1286 1.386 1_455 S
C1287 C1291 1.393 . S
C1288 H1277 0.985 . S
C1288 C1286 1.392 . S
C1288 C1289 1.366 1_655 S
C1289 C1283 1.491 1_554 S
C1289 C1288 1.366 1_455 S
C1289 C1290 1.398 . S
C1290 H1278 0.950 . S
C1290 C1289 1.398 . S
C1290 C1291 1.391 . S
C1291 H1279 0.950 . S
C1291 C1287 1.393 . S
C1291 C1290 1.391 . S
H1292 C1300 0.950 . S
H1293 C1305 0.974 . S
H1294 C1302 0.950 . S
H1295 C1304 0.964 . S
H1296 C1306 0.950 . S
H1297 C1308 0.950 . S
H1298 C1310 0.950 . S
H1299 C1311 0.950 . S
C1300 H1292 0.950 . S
C1300 C1301 1.386 . S
C1300 C1302 1.391 . S
C1301 C1300 1.386 . S
C1301 C1305 1.369 1_545 S
C1302 H1294 0.950 . S
C1302 C1300 1.391 . S
C1302 C1303 1.400 . S
C1303 C1302 1.400 . S
C1303 C1304 1.385 1_545 S
C1303 C1309 1.491 . S
C1304 H1295 0.964 . S
C1304 C1303 1.385 1_565 S
C1304 C1305 1.391 . S
C1305 H1293 0.974 . S
C1305 C1301 1.369 1_565 S
C1305 C1304 1.391 . S
C1306 H1296 0.950 . S
C1306 C1307 1.386 1_565 S
C1306 C1308 1.391 . S
C1307 C1306 1.386 1_545 S
C1307 C1311 1.393 . S
C1308 H1297 0.950 . S
C1308 C1306 1.391 . S
C1308 C1309 1.400 1_565 S
C1309 C1303 1.491 . S
C1309 C1308 1.400 1_545 S
C1309 C1310 1.398 . S
C1310 H1298 0.950 . S
C1310 C1309 1.398 . S
C1310 C1311 1.391 . S
C1311 H1299 0.950 . S
C1311 C1307 1.393 . S
C1311 C1310 1.391 . S
C361 C7 1.120 . S
C367 C202 1.150 . S
C381 C29 1.139 . S
C387 C224 1.158 . S
C401 C246 1.158 . S
C407 C51 1.139 . S
C421 C184 1.138 . S
C427 C73 1.114 . S
C441 C95 1.142 . S
C447 C338 1.140 . S
C461 C272 1.148 . S
C467 C116 1.118 . S
C481 C294 1.132 . S
C487 C138 1.119 . S
C501 C316 1.156 . S
C507 C160 1.145 . S
C521 C30 1.157 . S
C527 C185 1.143 . S
C541 C203 1.114 . S
C547 C52 1.136 . S
C561 C74 1.157 . S
C567 C225 1.143 . S
C581 C8 1.140 . S
C587 C247 1.114 . S
C601 C158 1.136 . S
C607 C273 1.137 . S
C621 C96 1.158 . S
C627 C295 1.142 . S
C641 C317 1.141 . S
C647 C114 1.139 . S
C661 C136 1.133 . S
C667 C339 1.117 . S
C681 C4 1.454 . S
C687 C337 1.494 . S
C701 C26 1.476 . S
C707 C271 1.510 . S
C721 C48 1.466 . S
C727 C293 1.505 . S
C741 C315 1.510 . S
C747 C70 1.480 . S
C761 C92 1.477 . S
C767 C204 1.510 . S
C781 C118 1.455 . S
C787 C226 1.493 . S
C801 C140 1.467 . S
C807 C248 1.506 . S
C821 C183 1.503 . S
C827 C162 1.462 . S
C841 C180 1.454 . S
C847 C159 1.493 . S
C861 C206 1.480 . S
C867 C97 1.511 . S
C881 C228 1.476 . S
C887 C115 1.510 . S
C901 C250 1.462 . S
C907 C137 1.495 . S
C921 C31 1.499 . S
C927 C268 1.471 . S
C941 C53 1.509 . S
C947 C290 1.481 . S
C961 C75 1.505 . S
C967 C312 1.465 . S
C981 C334 1.454 . S
C987 C9 1.493 . S
C1001 C161 1.339 1_545 S
C1007 C6 1.354 . S
C1021 C94 1.342 . S
C1027 C28 1.327 . S
C1041 C50 1.344 1_455 S
C1047 C117 1.356 . S
C1061 C72 1.351 1_545 S
C1067 C139 1.359 1_455 S
C1081 C335 1.323 1_565 S
C1087 C181 1.337 . S
C1101 C207 1.319 . S
C1107 C269 1.326 . S
C1121 C291 1.327 . S
C1127 C229 1.342 1_655 S
C1141 C251 1.358 1_565 S
C1147 C313 1.347 1_655 S
C1161 C5 1.264 . S
C1167 C93 1.297 . S
C1181 C119 1.274 . S
C1187 C27 1.300 . S
C1201 C49 1.270 . S
C1207 C141 1.301 . S
C1221 C163 1.276 . S
C1227 C71 1.299 . S
C1241 C270 1.300 . S
C1247 C182 1.266 . S
C1261 C292 1.291 . S
C1267 C205 1.265 . S
C1281 C227 1.271 . S
C1287 C314 1.281 . S
C1301 C249 1.271 . S
C1307 C336 1.281 . S
