# Generated by pormake.
# Topology skb, (5)-cn, num edge types: 1
# Building blocks:
#     Node 0, Type 0, BuildingBlock: XOMCOT_clean_sbu_0, # of connection points: 5
#     Node 1, Type 0, BuildingBlock: XOMCOT_clean_sbu_0, # of connection points: 5
#     Node 2, Type 0, BuildingBlock: XOMCOT_clean_sbu_0, # of connection points: 5
#     Node 3, Type 0, BuildingBlock: XOMCOT_clean_sbu_0, # of connection points: 5
#     Node 4, Type 0, BuildingBlock: XOMCOT_clean_sbu_0, # of connection points: 5
#     Node 5, Type 0, BuildingBlock: XOMCOT_clean_sbu_0, # of connection points: 5
#     Node 6, Type 0, BuildingBlock: XOMCOT_clean_sbu_0, # of connection points: 5
#     Node 7, Type 0, BuildingBlock: XOMCOT_clean_sbu_0, # of connection points: 5
#     Node 8, Type 0, BuildingBlock: XOMCOT_clean_sbu_0, # of connection points: 5
#     Node 9, Type 0, BuildingBlock: XOMCOT_clean_sbu_0, # of connection points: 5
#     Node 10, Type 0, BuildingBlock: XOMCOT_clean_sbu_0, # of connection points: 5
#     Node 11, Type 0, BuildingBlock: XOMCOT_clean_sbu_0, # of connection points: 5
#     Node 12, Type 0, BuildingBlock: XOMCOT_clean_sbu_0, # of connection points: 5
#     Node 13, Type 0, BuildingBlock: XOMCOT_clean_sbu_0, # of connection points: 5
#     Node 14, Type 0, BuildingBlock: XOMCOT_clean_sbu_0, # of connection points: 5
#     Node 15, Type 0, BuildingBlock: XOMCOT_clean_sbu_0, # of connection points: 5
#     Edge 16, Type (0, 0), BuildingBlock: AJUNOK_clean_linker_0, # of connection points: 2
#     Edge 17, Type (0, 0), BuildingBlock: AJUNOK_clean_linker_0, # of connection points: 2
#     Edge 18, Type (0, 0), BuildingBlock: AJUNOK_clean_linker_0, # of connection points: 2
#     Edge 19, Type (0, 0), BuildingBlock: AJUNOK_clean_linker_0, # of connection points: 2
#     Edge 20, Type (0, 0), BuildingBlock: AJUNOK_clean_linker_0, # of connection points: 2
#     Edge 21, Type (0, 0), BuildingBlock: AJUNOK_clean_linker_0, # of connection points: 2
#     Edge 22, Type (0, 0), BuildingBlock: AJUNOK_clean_linker_0, # of connection points: 2
#     Edge 23, Type (0, 0), BuildingBlock: AJUNOK_clean_linker_0, # of connection points: 2
#     Edge 24, Type (0, 0), BuildingBlock: AJUNOK_clean_linker_0, # of connection points: 2
#     Edge 25, Type (0, 0), BuildingBlock: AJUNOK_clean_linker_0, # of connection points: 2
#     Edge 26, Type (0, 0), BuildingBlock: AJUNOK_clean_linker_0, # of connection points: 2
#     Edge 27, Type (0, 0), BuildingBlock: AJUNOK_clean_linker_0, # of connection points: 2
#     Edge 28, Type (0, 0), BuildingBlock: AJUNOK_clean_linker_0, # of connection points: 2
#     Edge 29, Type (0, 0), BuildingBlock: AJUNOK_clean_linker_0, # of connection points: 2
#     Edge 30, Type (0, 0), BuildingBlock: AJUNOK_clean_linker_0, # of connection points: 2
#     Edge 31, Type (0, 0), BuildingBlock: AJUNOK_clean_linker_0, # of connection points: 2
#     Edge 32, Type (0, 0), BuildingBlock: AJUNOK_clean_linker_0, # of connection points: 2
#     Edge 33, Type (0, 0), BuildingBlock: AJUNOK_clean_linker_0, # of connection points: 2
#     Edge 34, Type (0, 0), BuildingBlock: AJUNOK_clean_linker_0, # of connection points: 2
#     Edge 35, Type (0, 0), BuildingBlock: AJUNOK_clean_linker_0, # of connection points: 2
#     Edge 36, Type (0, 0), BuildingBlock: AJUNOK_clean_linker_0, # of connection points: 2
#     Edge 37, Type (0, 0), BuildingBlock: AJUNOK_clean_linker_0, # of connection points: 2
#     Edge 38, Type (0, 0), BuildingBlock: AJUNOK_clean_linker_0, # of connection points: 2
#     Edge 39, Type (0, 0), BuildingBlock: AJUNOK_clean_linker_0, # of connection points: 2
#     Edge 40, Type (0, 0), BuildingBlock: AJUNOK_clean_linker_0, # of connection points: 2
#     Edge 41, Type (0, 0), BuildingBlock: AJUNOK_clean_linker_0, # of connection points: 2
#     Edge 42, Type (0, 0), BuildingBlock: AJUNOK_clean_linker_0, # of connection points: 2
#     Edge 43, Type (0, 0), BuildingBlock: AJUNOK_clean_linker_0, # of connection points: 2
#     Edge 44, Type (0, 0), BuildingBlock: AJUNOK_clean_linker_0, # of connection points: 2
#     Edge 45, Type (0, 0), BuildingBlock: AJUNOK_clean_linker_0, # of connection points: 2
#     Edge 46, Type (0, 0), BuildingBlock: AJUNOK_clean_linker_0, # of connection points: 2
#     Edge 47, Type (0, 0), BuildingBlock: AJUNOK_clean_linker_0, # of connection points: 2
#     Edge 48, Type (0, 0), BuildingBlock: AJUNOK_clean_linker_0, # of connection points: 2
#     Edge 49, Type (0, 0), BuildingBlock: AJUNOK_clean_linker_0, # of connection points: 2
#     Edge 50, Type (0, 0), BuildingBlock: AJUNOK_clean_linker_0, # of connection points: 2
#     Edge 51, Type (0, 0), BuildingBlock: AJUNOK_clean_linker_0, # of connection points: 2
#     Edge 52, Type (0, 0), BuildingBlock: AJUNOK_clean_linker_0, # of connection points: 2
#     Edge 53, Type (0, 0), BuildingBlock: AJUNOK_clean_linker_0, # of connection points: 2
#     Edge 54, Type (0, 0), BuildingBlock: AJUNOK_clean_linker_0, # of connection points: 2
#     Edge 55, Type (0, 0), BuildingBlock: AJUNOK_clean_linker_0, # of connection points: 2
# Relax obj value: 0.083
# Max RMSD: 0.131
# Mean RMSD: 0.131
data_MOF--net-skb--node1-XOMCOT_clean_sbu_0--edge1-AJUNOK_clean_linker_0
_symmetry_space_group_name_H-M    P1
_symmetry_Int_Tables_number       1
_symmetry_cell_setting            triclinic
loop_
_symmetry_equiv_pos_as_xyz
'x, y, z'
_cell_length_a     38.446626
_cell_length_b     19.982716
_cell_length_c     53.189577
_cell_angle_alpha  90.372996
_cell_angle_beta   91.20416
_cell_angle_gamma 89.742034
loop_
_atom_site_label
_atom_site_type_symbol
_atom_site_fract_x
_atom_site_fract_y
_atom_site_fract_z
_atom_type_partial_charge
Co0 Co 0.20207 0.04192 0.15607 0.0
C1 C 0.19365 0.0458 0.09857 0.0
C2 C 0.2441 0.07166 0.11344 0.0
C3 C 0.24506 0.07487 0.08774 0.0
N4 N 0.21205 0.05309 0.12052 0.0
N5 N 0.21339 0.05902 0.07852 0.0
H6 H 0.16694 0.03055 0.09665 0.0
H7 H 0.26573 0.08128 0.12626 0.0
C8 C 0.22247 0.18089 0.17801 0.0
O9 O 0.2083 0.17059 0.19987 0.0
N10 N 0.19477 0.03118 0.1918 0.0
C11 C 0.16674 1.00636 0.20328 0.0
C12 C 0.17486 0.99777 0.22848 0.0
C13 C 0.21974 0.03521 0.20995 0.0
N14 N 0.20821 1.01643 0.23267 0.0
C15 C 0.13323 0.0238 0.13824 0.0
C16 C 0.10153 0.12026 0.16712 0.0
C17 C 0.08071 0.07245 0.15441 0.0
C18 C 0.09725 0.02614 0.13889 0.0
C19 C 0.13794 0.11822 0.16489 0.0
N20 N 0.15351 0.06884 0.15115 0.0
H21 H 0.1446 0.98195 0.12852 0.0
H22 H 0.15335 0.15267 0.17594 0.0
H23 H 0.14264 0.99231 0.19386 0.0
H24 H 0.24605 0.05107 0.20641 0.0
O25 O 0.19439 0.94782 0.15169 0.0
O26 O 0.2459 0.99226 0.15977 0.0
O27 O 0.21999 0.13702 0.16041 0.0
C28 C 0.2273 0.93867 0.15562 0.0
H29 H 0.26744 0.08655 0.07657 0.0
H30 H 0.15806 0.97583 0.24221 0.0
H31 H 0.09022 0.15643 0.1798 0.0
H32 H 0.0826 0.98906 0.12822 0.0
Co33 Co 0.80893 0.0631 0.15505 0.0
C34 C 0.81057 0.05833 0.09714 0.0
C35 C 0.76361 0.02556 0.11397 0.0
C36 C 0.75933 0.02055 0.08845 0.0
N37 N 0.79567 0.04895 0.11978 0.0
N38 N 0.78864 0.04188 0.0778 0.0
H39 H 0.83629 0.07749 0.09433 0.0
H40 H 0.74433 1.01269 0.12763 0.0
C41 C 0.79229 0.92569 0.17793 0.0
O42 O 0.80604 0.93964 0.20013 0.0
N43 N 0.81817 0.07626 0.19081 0.0
C44 C 0.84759 0.09395 0.20345 0.0
C45 C 0.84006 0.10182 0.22865 0.0
C46 C 0.79312 0.07654 0.20825 0.0
N47 N 0.80578 0.09117 0.23137 0.0
C48 C 0.87591 0.08236 0.13597 0.0
C49 C 0.91113 0.99125 0.16578 0.0
C50 C 0.93008 0.04052 0.15323 0.0
C51 C 0.91195 0.08289 0.13678 0.0
C52 C 0.87459 0.99026 0.16346 0.0
N53 N 0.85731 0.03786 0.14961 0.0
H54 H 0.86317 0.12228 0.12585 0.0
H55 H 0.86048 0.95557 0.17473 0.0
H56 H 0.87254 0.10221 0.19503 0.0
H57 H 0.76605 0.06538 0.20416 0.0
O58 O 0.81527 0.15686 0.15018 0.0
O59 O 0.76498 0.11028 0.1591 0.0
O60 O 0.79335 0.96787 0.16003 0.0
C61 C 0.78262 0.16444 0.15463 0.0
H62 H 0.73647 1.0019 0.07852 0.0
H63 H 0.85806 0.11597 0.24366 0.0
H64 H 0.92413 0.95647 0.17841 0.0
H65 H 0.92534 0.11932 0.12557 0.0
Co66 Co 0.20055 0.07986 0.89559 0.0
C67 C 0.19379 0.06705 0.95264 0.0
C68 C 0.24428 0.046 0.93806 0.0
C69 C 0.24562 0.03566 0.96344 0.0
N70 N 0.21192 0.06553 0.93099 0.0
N71 N 0.214 0.04887 0.97264 0.0
H72 H 0.16659 0.0793 0.95407 0.0
H73 H 0.26563 0.03895 0.92538 0.0
C74 C 0.22173 0.94234 0.87262 0.0
O75 O 0.20768 0.95343 0.85033 0.0
N76 N 0.19172 0.09411 0.86004 0.0
C77 C 0.16313 0.11992 0.84847 0.0
C78 C 0.16982 0.12756 0.82322 0.0
C79 C 0.21565 0.08915 0.84199 0.0
N80 N 0.20283 0.1078 0.81932 0.0
C81 C 0.13148 0.09612 0.91146 0.0
C82 C 0.10214 1.00027 0.88016 0.0
C83 C 0.08055 0.04861 0.89118 0.0
C84 C 0.0956 0.09474 0.90796 0.0
C85 C 0.13814 1.00218 0.88481 0.0
N86 N 0.15258 0.05173 0.89939 0.0
H87 H 0.14234 0.1368 0.92243 0.0
H88 H 0.15423 0.96771 0.87473 0.0
H89 H 0.13922 0.13294 0.8577 0.0
H90 H 0.24203 0.07166 0.84539 0.0
O91 O 0.19298 0.17404 0.90109 0.0
O92 O 0.24391 0.12811 0.89272 0.0
O93 O 0.21874 0.98524 0.89042 0.0
C94 C 0.22585 0.18202 0.89735 0.0
H95 H 0.26826 0.02025 0.97443 0.0
H96 H 0.15168 0.14489 0.80882 0.0
H97 H 0.09178 0.96399 0.86683 0.0
H98 H 0.07993 0.13204 0.91739 0.0
Co99 Co 0.81236 0.05113 0.89551 0.0
C100 C 0.80654 0.03791 0.95195 0.0
C101 C 0.82772 0.13155 0.94009 0.0
C102 C 0.82713 0.13173 0.96583 0.0
N103 N 0.81519 0.07268 0.93124 0.0
N104 N 0.81405 0.07302 0.97318 0.0
H105 H 0.79492 0.98873 0.95167 0.0
H106 H 0.83684 0.17184 0.92848 0.0
C107 C 0.78523 0.18741 0.87478 0.0
O108 O 0.79571 0.17845 0.85167 0.0
N109 N 0.80889 0.03142 0.8597 0.0
C110 C 0.83338 1.00145 0.84565 0.0
C111 C 0.82038 0.9928 0.82152 0.0
C112 C 0.78075 0.03786 0.84418 0.0
N113 N 0.7874 1.01559 0.82073 0.0
C114 C 0.8826 0.04955 0.90918 0.0
C115 C 0.90923 0.11642 0.8687 0.0
C116 C 0.93173 0.08021 0.8848 0.0
C117 C 0.91812 0.05004 0.90595 0.0
C118 C 0.8732 0.11605 0.87301 0.0
N119 N 0.86031 0.08033 0.89256 0.0
H120 H 0.87286 0.01992 0.92437 0.0
H121 H 0.85585 0.13947 0.85954 0.0
H122 H 0.85888 0.98632 0.85253 0.0
H123 H 0.75608 0.05878 0.84985 0.0
O124 O 0.82379 0.95889 0.9012 0.0
O125 O 0.77017 0.99981 0.90029 0.0
O126 O 0.7912 0.14326 0.89158 0.0
C127 C 0.79075 0.94772 0.90235 0.0
H128 H 0.83497 0.1723 0.97827 0.0
H129 H 0.83391 0.97099 0.80579 0.0
H130 H 0.9191 0.14136 0.85232 0.0
H131 H 0.93473 0.02357 0.9193 0.0
Co132 Co 0.1906 0.52745 0.65658 0.0
C133 C 0.19962 0.524 0.60013 0.0
C134 C 0.17108 0.60914 0.61351 0.0
C135 C 0.17241 0.61304 0.58784 0.0
N136 N 0.18753 0.55288 0.62133 0.0
N137 N 0.19032 0.5598 0.57949 0.0
H138 H 0.21484 0.47836 0.59965 0.0
H139 H 0.15875 0.64509 0.62578 0.0
C140 C 0.21076 0.66475 0.68041 0.0
O141 O 0.19607 0.6544 0.70205 0.0
N142 N 0.19399 0.50434 0.6919 0.0
C143 C 0.17202 0.46432 0.70413 0.0
C144 C 0.18462 0.45505 0.72826 0.0
C145 C 0.22023 0.51729 0.70852 0.0
N146 N 0.21468 0.48921 0.73116 0.0
C147 C 0.12108 0.51569 0.64233 0.0
C148 C 0.08979 0.58047 0.68182 0.0
C149 C 0.06909 0.54461 0.66431 0.0
C150 C 0.08542 0.51238 0.64442 0.0
C151 C 0.12617 0.58158 0.67924 0.0
N152 N 0.14138 0.54933 0.65953 0.0
H153 H 0.13264 0.4877 0.62719 0.0
H154 H 0.14167 0.60499 0.69375 0.0
H155 H 0.14881 0.44214 0.69587 0.0
H156 H 0.24279 0.5469 0.70416 0.0
O157 O 0.18255 0.43477 0.64895 0.0
O158 O 0.23464 0.48108 0.65148 0.0
O159 O 0.20914 0.6212 0.66271 0.0
C160 C 0.2159 0.42707 0.64831 0.0
H161 H 0.16196 0.6529 0.57619 0.0
H162 H 0.17295 0.42386 0.7423 0.0
H163 H 0.07815 0.60649 0.69748 0.0
H164 H 0.07083 0.48279 0.63073 0.0
Co165 Co 0.79708 0.56873 0.66037 0.0
C166 C 0.81213 0.5585 0.60474 0.0
C167 C 0.7642 0.51327 0.61536 0.0
C168 C 0.76887 0.50102 0.59024 0.0
N169 N 0.79152 0.5482 0.62472 0.0
N170 N 0.79907 0.529 0.58365 0.0
H171 H 0.83605 0.58639 0.60521 0.0
H172 H 0.74227 0.49731 0.62619 0.0
C173 C 0.77709 0.43635 0.68586 0.0
O174 O 0.79076 0.45489 0.70761 0.0
N175 N 0.80101 0.58905 0.69603 0.0
C176 C 0.82898 0.6121 0.70902 0.0
C177 C 0.81945 0.62516 0.73341 0.0
C178 C 0.7747 0.59038 0.71247 0.0
N179 N 0.78529 0.61145 0.7356 0.0
C180 C 0.86782 0.5878 0.64988 0.0
C181 C 0.8964 0.47801 0.67375 0.0
C182 C 0.91841 0.52664 0.66378 0.0
C183 C 0.90347 0.5816 0.65174 0.0
C184 C 0.86003 0.48646 0.67159 0.0
N185 N 0.84607 0.54158 0.65991 0.0
H186 H 0.85818 0.63186 0.64058 0.0
H187 H 0.84369 0.44937 0.67973 0.0
H188 H 0.85441 0.62004 0.70133 0.0
H189 H 0.74866 0.57379 0.70764 0.0
O190 O 0.80482 0.66144 0.65372 0.0
O191 O 0.75289 0.61898 0.65894 0.0
O192 O 0.77918 0.47432 0.66664 0.0
C193 C 0.7719 0.67178 0.65494 0.0
H194 H 0.75107 0.47485 0.57761 0.0
H195 H 0.83634 0.64418 0.74831 0.0
H196 H 0.90711 0.43422 0.68302 0.0
H197 H 0.91936 0.62081 0.644 0.0
Co198 Co 0.22121 0.56134 0.39883 0.0
C199 C 0.21163 0.56028 0.45522 0.0
C200 C 0.25626 0.50635 0.44224 0.0
C201 C 0.25563 0.50123 0.46781 0.0
N202 N 0.22862 0.54243 0.43416 0.0
N203 N 0.22803 0.53597 0.47617 0.0
H204 H 0.18836 0.59095 0.45526 0.0
H205 H 0.27594 0.48536 0.43026 0.0
C206 C 0.22871 0.42027 0.37576 0.0
O207 O 0.20418 0.43156 0.35882 0.0
N208 N 0.21638 0.57774 0.36255 0.0
C209 C 0.18902 0.56512 0.34682 0.0
C210 C 0.19882 0.57435 0.32244 0.0
C211 C 0.24253 0.59395 0.34705 0.0
N212 N 0.23256 0.59196 0.32251 0.0
C213 C 0.15073 0.59488 0.39497 0.0
C214 C 0.12109 0.48115 0.41394 0.0
C215 C 0.09976 0.53683 0.40801 0.0
C216 C 0.11519 0.59315 0.39794 0.0
C217 C 0.15746 0.48484 0.41048 0.0
N218 N 0.1717 0.54154 0.40091 0.0
H219 H 0.1613 0.63959 0.38691 0.0
H220 H 0.17404 0.44333 0.41595 0.0
H221 H 0.16428 0.54475 0.35201 0.0
H222 H 0.26863 0.60546 0.35353 0.0
O223 O 0.21563 0.65503 0.40607 0.0
O224 O 0.26636 0.60746 0.39945 0.0
O225 O 0.23685 0.46526 0.39205 0.0
C226 C 0.24872 0.662 0.40428 0.0
H227 H 0.27396 0.47299 0.47927 0.0
H228 H 0.18287 0.5645 0.30582 0.0
H229 H 0.10994 0.4363 0.42166 0.0
H230 H 0.09978 0.6362 0.39221 0.0
Co231 Co 0.82676 0.53028 0.40172 0.0
C232 C 0.83384 0.52755 0.45941 0.0
C233 C 0.78696 0.57091 0.4441 0.0
C234 C 0.78603 0.57642 0.46969 0.0
N235 N 0.81702 0.54146 0.43731 0.0
N236 N 0.81539 0.54945 0.47929 0.0
H237 H 0.85855 0.50226 0.46134 0.0
H238 H 0.76662 0.58685 0.4311 0.0
C239 C 0.80894 0.66897 0.37999 0.0
O240 O 0.8238 0.65609 0.3585 0.0
N241 N 0.83269 0.52064 0.36561 0.0
C242 C 0.86141 0.51121 0.35183 0.0
C243 C 0.85138 0.50615 0.32668 0.0
C244 C 0.8058 0.51923 0.34878 0.0
N245 N 0.81642 0.51088 0.32505 0.0
C246 C 0.89522 0.50409 0.41913 0.0
C247 C 0.92921 0.61061 0.39838 0.0
C248 C 0.94879 0.5581 0.40925 0.0
C249 C 0.9312 0.50568 0.42023 0.0
C250 C 0.8925 0.60693 0.39754 0.0
N251 N 0.87592 0.5529 0.40737 0.0
H252 H 0.88322 0.46102 0.42721 0.0
H253 H 0.87793 0.64565 0.38801 0.0
H254 H 0.8877 0.50774 0.35933 0.0
H255 H 0.77884 0.52606 0.3537 0.0
O256 O 0.83337 0.43616 0.40498 0.0
O257 O 0.78217 0.4836 0.39795 0.0
O258 O 0.81049 0.62652 0.3979 0.0
C259 C 0.80053 0.42897 0.40092 0.0
H260 H 0.76496 0.59696 0.48057 0.0
H261 H 0.86833 0.49884 0.31089 0.0
H262 H 0.94212 0.65238 0.38974 0.0
H263 H 0.94528 0.46485 0.42918 0.0
Co264 Co 0.68943 0.04424 0.65417 0.0
C265 C 0.7055 0.03153 0.59883 0.0
C266 C 0.67987 0.12326 0.60894 0.0
C267 C 0.68391 0.12264 0.5834 0.0
N268 N 0.69299 0.06605 0.61872 0.0
N269 N 0.69997 0.06527 0.5771 0.0
H270 H 0.71759 0.98263 0.59997 0.0
H271 H 0.66734 0.16233 0.61967 0.0
C272 C 0.70485 0.17817 0.68099 0.0
O273 O 0.68957 0.15865 0.70149 0.0
N274 N 0.68662 0.0241 0.6898 0.0
C275 C 0.65959 1.00007 0.70265 0.0
C276 C 0.66978 0.99285 0.72756 0.0
C277 C 0.71316 0.02827 0.70679 0.0
N278 N 0.70337 1.01156 0.73019 0.0
C279 C 0.62282 0.02764 0.63367 0.0
C280 C 0.58497 0.10713 0.66567 0.0
C281 C 0.56756 0.06463 0.64847 0.0
C282 C 0.58689 0.02612 0.63199 0.0
C283 C 0.62158 0.10677 0.66692 0.0
N284 N 0.63998 0.06555 0.65144 0.0
H285 H 0.637 0.99574 0.621 0.0
H286 H 0.63456 0.13683 0.681 0.0
H287 H 0.63426 0.98845 0.69459 0.0
H288 H 0.73907 0.04396 0.702 0.0
O289 O 0.68342 0.9507 0.64715 0.0
O290 O 0.73446 0.99848 0.65401 0.0
O291 O 0.70529 0.14006 0.66149 0.0
C292 C 0.71667 0.94368 0.64984 0.0
H293 H 0.67575 0.16134 0.57037 0.0
H294 H 0.65353 0.97617 0.74264 0.0
H295 H 0.57048 0.13802 0.67862 0.0
H296 H 0.57426 0.9937 0.61819 0.0
Co297 Co 0.29672 0.05307 0.65334 0.0
C298 C 0.31125 0.05646 0.59787 0.0
C299 C 0.2671 0.9968 0.60727 0.0
C300 C 0.27184 0.99167 0.58185 0.0
N301 N 0.29199 0.03646 0.61746 0.0
N302 N 0.29962 0.02867 0.57595 0.0
H303 H 0.33357 0.08911 0.59964 0.0
H304 H 0.24676 0.97294 0.61765 0.0
C305 C 0.29337 0.90612 0.668 0.0
O306 O 0.3265 0.90512 0.6743 0.0
N307 N 0.29928 0.06572 0.68994 0.0
C308 C 0.32261 0.03652 0.70586 0.0
C309 C 0.31212 0.04461 0.73008 0.0
C310 C 0.27406 0.0893 0.70518 0.0
N311 N 0.28143 0.07712 0.72972 0.0
C312 C 0.36642 0.08001 0.66355 0.0
C313 C 0.39766 0.98174 0.63521 0.0
C314 C 0.41815 0.03226 0.64657 0.0
C315 C 0.40205 0.08029 0.66138 0.0
C316 C 0.36126 0.98274 0.6382 0.0
N317 N 0.34617 0.03125 0.65268 0.0
H318 H 0.35487 0.12064 0.67399 0.0
H319 H 0.34526 0.94628 0.62833 0.0
H320 H 0.34491 1.00712 0.70054 0.0
H321 H 0.24955 0.10992 0.69849 0.0
O322 O 0.30447 0.14601 0.64746 0.0
O323 O 0.25246 0.10231 0.65186 0.0
O324 O 0.27887 0.95935 0.6596 0.0
C325 C 0.27138 0.15553 0.64818 0.0
H326 H 0.25578 0.96366 0.56857 0.0
H327 H 0.32515 0.02459 0.74665 0.0
H328 H 0.40942 0.94375 0.62349 0.0
H329 H 0.41688 0.1194 0.67084 0.0
Co330 Co 0.71905 0.05992 0.39659 0.0
C331 C 0.71552 0.05178 0.45395 0.0
C332 C 0.76023 1.00544 0.43798 0.0
C333 C 0.76231 0.99766 0.46357 0.0
N334 N 0.73057 0.03812 0.43164 0.0
N335 N 0.73439 0.02744 0.47373 0.0
H336 H 0.69197 0.08014 0.45622 0.0
H337 H 0.7792 0.98783 0.42472 0.0
C338 C 0.72665 0.9117 0.39724 0.0
O339 O 0.70477 0.91192 0.4159 0.0
N340 N 0.71105 0.0802 0.36141 0.0
C341 C 0.68384 0.11017 0.34973 0.0
C342 C 0.69182 0.11856 0.32472 0.0
C343 C 0.73517 0.07183 0.34362 0.0
N344 N 0.72441 0.09516 0.32095 0.0
C345 C 0.65109 0.08035 0.41405 0.0
C346 C 0.61661 0.99437 0.3815 0.0
C347 C 0.59726 0.04023 0.39582 0.0
C348 C 0.61514 0.08265 0.41241 0.0
C349 C 0.65319 0.99356 0.38377 0.0
N350 N 0.67007 0.03686 0.39986 0.0
H351 H 0.66339 0.11898 0.4251 0.0
H352 H 0.66786 0.96201 0.37123 0.0
H353 H 0.66011 0.12558 0.35872 0.0
H354 H 0.76075 0.05117 0.34758 0.0
O355 O 0.71358 0.15248 0.40482 0.0
O356 O 0.76356 0.10544 0.39469 0.0
O357 O 0.73386 0.9666 0.38638 0.0
C358 C 0.74626 0.15953 0.4006 0.0
H359 H 0.78264 0.97096 0.47371 0.0
H360 H 0.67457 0.13978 0.31055 0.0
H361 H 0.60372 0.96134 0.36808 0.0
H362 H 0.60164 0.12103 0.42293 0.0
Co363 Co 0.32807 0.03335 0.39562 0.0
C364 C 0.32716 0.03055 0.45235 0.0
C365 C 0.3515 0.11811 0.43807 0.0
C366 C 0.35154 0.12265 0.46378 0.0
N367 N 0.33668 0.05999 0.43064 0.0
N368 N 0.33616 0.06782 0.47293 0.0
H369 H 0.31252 0.98464 0.45306 0.0
H370 H 0.36035 0.15685 0.42585 0.0
C371 C 0.30718 0.16737 0.37116 0.0
O372 O 0.32284 0.15155 0.3502 0.0
N373 N 0.31914 1.00708 0.36069 0.0
C374 C 0.33766 0.96229 0.34735 0.0
C375 C 0.32202 0.95339 0.32419 0.0
C376 C 0.29156 0.02282 0.34554 0.0
N377 N 0.29314 0.9918 0.32283 0.0
C378 C 0.39914 1.00207 0.38764 0.0
C379 C 0.42591 0.12856 0.38244 0.0
C380 C 0.44847 0.07318 0.38313 0.0
C381 C 0.43452 1.00969 0.38493 0.0
C382 C 0.38974 0.11848 0.38431 0.0
N383 N 0.37665 0.05552 0.38778 0.0
H384 H 0.39073 0.95161 0.39019 0.0
H385 H 0.37306 0.16182 0.38444 0.0
H386 H 0.36043 0.9357 0.35398 0.0
H387 H 0.27123 0.05722 0.35093 0.0
O388 O 0.33664 0.94119 0.40375 0.0
O389 O 0.28478 0.98718 0.40436 0.0
O390 O 0.30837 0.12725 0.38985 0.0
C391 C 0.30384 0.93311 0.40656 0.0
H392 H 0.36159 0.16419 0.47484 0.0
H393 H 0.33102 0.92009 0.30954 0.0
H394 H 0.43614 0.17884 0.38142 0.0
H395 H 0.45124 0.96585 0.38577 0.0
Co396 Co 0.70416 0.53608 0.16371 0.0
C397 C 0.6954 0.53521 0.1059 0.0
C398 C 0.7373 0.59462 0.12067 0.0
C399 C 0.73699 0.60001 0.09505 0.0
N400 N 0.71037 0.55653 0.12795 0.0
N401 N 0.71072 0.56287 0.08574 0.0
H402 H 0.67495 0.49877 0.10408 0.0
H403 H 0.7568 0.616 0.13321 0.0
C404 C 0.71064 0.68349 0.16297 0.0
O405 O 0.68511 0.68313 0.14615 0.0
N406 N 0.7022 0.51755 0.19935 0.0
C407 C 0.67876 0.48355 0.21262 0.0
C408 C 0.69142 0.47754 0.23709 0.0
C409 C 0.72871 0.53072 0.21563 0.0
N410 N 0.72289 0.5075 0.23896 0.0
C411 C 0.63369 0.52562 0.14812 0.0
C412 C 0.6052 0.60828 0.18403 0.0
C413 C 0.5831 0.56864 0.16876 0.0
C414 C 0.59788 0.5287 0.15021 0.0
C415 C 0.64146 0.60437 0.18102 0.0
N416 N 0.65531 0.56296 0.16319 0.0
H417 H 0.64378 0.48807 0.13579 0.0
H418 H 0.65837 0.63117 0.19405 0.0
H419 H 0.65476 0.46309 0.20496 0.0
H420 H 0.75269 0.55356 0.2099 0.0
O421 O 0.69564 0.44427 0.15626 0.0
O422 O 0.74808 0.48738 0.16318 0.0
O423 O 0.72114 0.62871 0.17278 0.0
C424 C 0.72874 0.43475 0.15881 0.0
H425 H 0.75559 0.62685 0.08395 0.0
H426 H 0.67861 0.45216 0.25221 0.0
H427 H 0.59479 0.63914 0.19892 0.0
H428 H 0.58189 0.49722 0.13803 0.0
Co429 Co 0.31231 0.56957 0.15591 0.0
C430 C 0.3159 0.56487 0.09877 0.0
C431 C 0.27517 0.50559 0.11386 0.0
C432 C 0.27393 0.49894 0.08818 0.0
N433 N 0.30231 0.54477 0.12083 0.0
N434 N 0.2996 0.53589 0.07874 0.0
H435 H 0.33613 0.60146 0.09692 0.0
H436 H 0.25671 0.48447 0.12661 0.0
C437 C 0.30446 0.42055 0.15748 0.0
O438 O 0.32745 0.41709 0.13956 0.0
N439 N 0.31993 0.5938 0.19079 0.0
C440 C 0.3467 0.62778 0.20148 0.0
C441 C 0.34034 0.63603 0.22677 0.0
C442 C 0.29743 0.58321 0.2094 0.0
N443 N 0.30933 0.60811 0.23154 0.0
C444 C 0.38195 0.58228 0.14002 0.0
C445 C 0.41199 0.50168 0.17648 0.0
C446 C 0.43318 0.54478 0.16286 0.0
C447 C 0.41785 0.58277 0.14364 0.0
C448 C 0.37588 0.50188 0.17196 0.0
N449 N 0.36111 0.54317 0.15423 0.0
H450 H 0.37102 0.61906 0.12753 0.0
H451 H 0.35969 0.47379 0.18442 0.0
H452 H 0.369 0.64599 0.19156 0.0
H453 H 0.27266 0.55832 0.20673 0.0
O454 O 0.31803 0.66191 0.14688 0.0
O455 O 0.26796 0.61573 0.15673 0.0
O456 O 0.29657 0.47758 0.1669 0.0
C457 C 0.28509 0.66945 0.15086 0.0
H458 H 0.25467 0.47157 0.07716 0.0
H459 H 0.35665 0.66212 0.24043 0.0
H460 H 0.42289 0.47139 0.19153 0.0
H461 H 0.4333 0.61566 0.13228 0.0
Co462 Co 0.70496 0.58132 0.9032 0.0
C463 C 0.69819 0.56497 0.95995 0.0
C464 C 0.74418 0.52123 0.94466 0.0
C465 C 0.74411 0.50847 0.97 0.0
N466 N 0.71511 0.5555 0.93803 0.0
N467 N 0.71515 0.53568 0.97956 0.0
H468 H 0.67435 0.59266 0.96203 0.0
H469 H 0.76423 0.50635 0.93177 0.0
C470 C 0.70985 0.43234 0.90226 0.0
O471 O 0.68787 0.43294 0.92085 0.0
N472 N 0.69712 0.60579 0.86845 0.0
C473 C 0.67483 0.65184 0.85908 0.0
C474 C 0.68199 0.6613 0.83403 0.0
C475 C 0.71746 0.58798 0.84916 0.0
N476 N 0.70881 0.62092 0.82777 0.0
C477 C 0.63679 0.60577 0.9198 0.0
C478 C 0.60183 0.51686 0.88861 0.0
C479 C 0.58265 0.56146 0.90353 0.0
C480 C 0.60079 0.60652 0.91898 0.0
C481 C 0.63844 0.51832 0.88978 0.0
N482 N 0.65553 0.56164 0.90574 0.0
H483 H 0.64936 0.64432 0.93081 0.0
H484 H 0.65287 0.48702 0.87701 0.0
H485 H 0.65598 0.67916 0.87 0.0
H486 H 0.73905 0.55333 0.85106 0.0
O487 O 0.70185 0.67375 0.91279 0.0
O488 O 0.7506 0.62368 0.90195 0.0
O489 O 0.71797 0.48746 0.89186 0.0
C490 C 0.73468 0.67869 0.90861 0.0
H491 H 0.76438 0.48315 0.98075 0.0
H492 H 0.66972 0.69816 0.82193 0.0
H493 H 0.58872 0.48231 0.87587 0.0
H494 H 0.58728 0.64438 0.92975 0.0
Co495 Co 0.30996 0.55078 0.89584 0.0
C496 C 0.31469 0.55396 0.95314 0.0
C497 C 0.27161 0.60872 0.93735 0.0
C498 C 0.27044 0.6141 0.96305 0.0
N499 N 0.2999 0.57273 0.93086 0.0
N500 N 0.29743 0.57959 0.97294 0.0
H501 H 0.33683 0.52124 0.9553 0.0
H502 H 0.25253 0.62881 0.92418 0.0
C503 C 0.30176 0.69968 0.89601 0.0
O504 O 0.32392 0.70135 0.91517 0.0
N505 N 0.31718 0.52992 0.86082 0.0
C506 C 0.3408 0.48872 0.85046 0.0
C507 C 0.33094 0.47702 0.82564 0.0
C508 C 0.29354 0.54261 0.84241 0.0
N509 N 0.30089 0.51022 0.8208 0.0
C510 C 0.37875 0.53316 0.91421 0.0
C511 C 0.41133 0.62623 0.88489 0.0
C512 C 0.43157 0.58391 0.9004 0.0
C513 C 0.41465 0.53673 0.91487 0.0
C514 C 0.37479 0.62062 0.88465 0.0
N515 N 0.35885 0.57526 0.89973 0.0
H516 H 0.36743 0.49251 0.92419 0.0
H517 H 0.35957 0.65045 0.87156 0.0
H518 H 0.36232 0.46556 0.86059 0.0
H519 H 0.27045 0.57253 0.84529 0.0
O520 O 0.31608 0.45856 0.90396 0.0
O521 O 0.26547 0.50392 0.89325 0.0
O522 O 0.29433 0.64369 0.88551 0.0
C523 C 0.28338 0.45031 0.89912 0.0
H524 H 0.25047 0.63909 0.97372 0.0
H525 H 0.34362 0.44329 0.81269 0.0
H526 H 0.42358 0.66218 0.87281 0.0
H527 H 0.42915 0.50038 0.92596 0.0
C528 C 0.26456 0.99789 0.25475 0.0
C529 C 0.2287 1.0115 0.25575 0.0
C530 C 0.28515 0.99247 0.27665 0.0
C531 C 0.27093 0.99991 0.30071 0.0
H532 H 0.27692 0.99035 0.23686 0.0
H533 H 0.31265 0.98263 0.27461 0.0
S534 S 0.17843 0.03753 0.31391 0.0
N535 N 0.17991 0.03479 0.28292 0.0
N536 N 0.21844 0.0218 0.32419 0.0
C537 C 0.2351 1.01397 0.3021 0.0
C538 C 0.21404 0.0201 0.27964 0.0
C539 C 0.7923 0.04855 0.27338 0.0
C540 C 0.78612 0.09462 0.25403 0.0
C541 C 0.77175 0.04861 0.2949 0.0
C542 C 0.74456 0.09557 0.29814 0.0
H543 H 0.81263 1.01127 0.27152 0.0
H544 H 0.77703 1.0108 0.30895 0.0
S545 S 0.72024 0.23009 0.2529 0.0
N546 N 0.75208 0.18905 0.23916 0.0
N547 N 0.71447 0.19228 0.28001 0.0
C548 C 0.73878 0.14291 0.27886 0.0
C549 C 0.75934 0.14169 0.25674 0.0
C550 C 0.2587 0.03432 0.76936 0.0
C551 C 0.25912 0.0847 0.751 0.0
C552 C 0.23978 0.04206 0.79131 0.0
C553 C 0.2202 0.10022 0.79578 0.0
H554 H 0.27334 0.98846 0.76683 0.0
H555 H 0.24053 1.00217 0.805 0.0
S556 S 0.21211 0.24688 0.75369 0.0
N557 N 0.23796 0.19468 0.73861 0.0
N558 N 0.20181 0.20892 0.78003 0.0
C559 C 0.21943 0.15035 0.77734 0.0
C560 C 0.239 0.14262 0.7549 0.0
C561 C 0.71876 0.96793 0.77261 0.0
C562 C 0.72397 1.01469 0.75329 0.0
C563 C 0.73893 0.96943 0.795 0.0
C564 C 0.76493 0.01772 0.79883 0.0
H565 H 0.69947 0.92901 0.77019 0.0
H566 H 0.73478 0.93185 0.80919 0.0
S567 S 0.78716 0.15491 0.75576 0.0
N568 N 0.75568 0.11398 0.74079 0.0
N569 N 0.79395 0.11491 0.78252 0.0
C570 C 0.77 0.06541 0.78011 0.0
C571 C 0.74943 0.06439 0.75742 0.0
C572 C 0.27256 0.49802 0.75251 0.0
C573 C 0.23604 0.49495 0.7538 0.0
C574 C 0.29362 0.50255 0.77443 0.0
C575 C 0.27894 0.50501 0.79845 0.0
H576 H 0.28498 0.49597 0.73444 0.0
H577 H 0.32158 0.50483 0.77259 0.0
S578 S 0.18469 0.49844 0.81217 0.0
N579 N 0.1862 0.49603 0.7812 0.0
N580 N 0.22556 0.50182 0.82215 0.0
C581 C 0.24247 0.50173 0.79997 0.0
C582 C 0.2211 0.49735 0.77773 0.0
C583 C 0.78178 0.60289 0.78186 0.0
C584 C 0.76536 0.61477 0.75839 0.0
C585 C 0.76319 0.60488 0.80426 0.0
C586 C 0.72723 0.61872 0.80428 0.0
H587 H 0.80927 0.59113 0.78297 0.0
H588 H 0.77734 0.59625 0.82174 0.0
S589 S 0.6717 0.65423 0.74791 0.0
N590 N 0.711 0.6429 0.73666 0.0
N591 N 0.67578 0.64371 0.77859 0.0
C592 C 0.71039 0.63067 0.78094 0.0
C593 C 0.72945 0.6292 0.75808 0.0
C594 C 0.25635 0.62745 0.25569 0.0
C595 C 0.2914 0.60781 0.25496 0.0
C596 C 0.23781 0.6243 0.27804 0.0
C597 C 0.25343 0.60031 0.30046 0.0
H598 H 0.24323 0.64531 0.2388 0.0
H599 H 0.21086 0.64021 0.2777 0.0
S600 S 0.34453 0.53939 0.30771 0.0
N601 N 0.34116 0.56304 0.27806 0.0
N602 N 0.30616 0.55441 0.32 0.0
C603 C 0.28869 0.5807 0.2999 0.0
C604 C 0.30768 0.58503 0.27716 0.0
C605 C 0.74623 0.45815 0.27873 0.0
C606 C 0.74664 0.50934 0.26058 0.0
C607 C 0.76941 0.45846 0.29957 0.0
C608 C 0.79432 0.50918 0.30285 0.0
H609 H 0.72809 0.41711 0.27675 0.0
H610 H 0.76802 0.41864 0.31322 0.0
S611 S 0.80466 0.65791 0.26271 0.0
N612 N 0.77279 0.61537 0.24889 0.0
N613 N 0.81702 0.61351 0.28744 0.0
C614 C 0.79501 0.56075 0.28517 0.0
C615 C 0.77106 0.56139 0.2642 0.0
C616 C 0.26405 0.2472 0.15232 0.0
C617 C 0.24298 0.24306 0.17362 0.0
C618 C 0.28431 0.30388 0.14771 0.0
C619 C 0.28425 0.35969 0.16401 0.0
H620 H 0.26516 0.2061 0.139 0.0
H621 H 0.29971 0.30417 0.13089 0.0
S622 S 0.23401 0.37508 0.22266 0.0
N623 N 0.22374 0.30031 0.21145 0.0
N624 N 0.26149 0.407 0.20259 0.0
C625 C 0.2634 0.35649 0.18544 0.0
C626 C 0.24292 0.29829 0.19029 0.0
C627 C 0.74527 0.76191 0.19052 0.0
C628 C 0.73168 0.74449 0.16664 0.0
C629 C 0.76543 0.8199 0.19402 0.0
C630 C 0.77333 0.86164 0.17365 0.0
H631 H 0.73971 0.73123 0.20666 0.0
H632 H 0.77443 0.83247 0.21289 0.0
S633 S 0.74832 0.83075 0.10661 0.0
N634 N 0.72988 0.76948 0.12204 0.0
N635 N 0.76894 0.87607 0.1282 0.0
C636 C 0.76124 0.84229 0.14945 0.0
C637 C 0.74011 0.78437 0.14605 0.0
C638 C 0.26209 0.87405 0.89996 0.0
C639 C 0.242 0.87966 0.87759 0.0
C640 C 0.28184 0.81656 0.90535 0.0
C641 C 0.28223 0.76145 0.88876 0.0
H642 H 0.26274 0.9145 0.91359 0.0
H643 H 0.29644 0.81507 0.92298 0.0
S644 S 0.23476 0.75007 0.82733 0.0
N645 N 0.2243 0.82472 0.83841 0.0
N646 N 0.26115 0.71647 0.84868 0.0
C647 C 0.26247 0.76621 0.86621 0.0
C648 C 0.24249 0.82522 0.86059 0.0
C649 C 0.74455 0.36265 0.87189 0.0
C650 C 0.72782 0.36883 0.89513 0.0
C651 C 0.76271 0.30389 0.86531 0.0
C652 C 0.76536 0.24913 0.88183 0.0
H653 H 0.7436 0.40356 0.85862 0.0
H654 H 0.77508 0.30181 0.84721 0.0
S655 S 0.72685 0.24044 0.94537 0.0
N656 N 0.71551 0.31505 0.93485 0.0
N657 N 0.74945 0.2056 0.92272 0.0
C658 C 0.74873 0.25487 0.90519 0.0
C659 C 0.73003 0.31432 0.91175 0.0
C660 C 0.74306 0.86757 0.91153 0.0
C661 C 0.77776 0.87857 0.9052 0.0
C662 C 0.73001 0.80257 0.91348 0.0
C663 C 0.751 0.74577 0.90891 0.0
H664 H 0.72573 0.90944 0.91486 0.0
H665 H 0.70286 0.79712 0.91807 0.0
S666 S 0.84404 0.74729 0.89214 0.0
N667 N 0.83336 0.82707 0.89488 0.0
N668 N 0.80846 0.70501 0.89828 0.0
C669 C 0.78593 0.75594 0.90299 0.0
C670 C 0.79938 0.82228 0.90119 0.0
C671 C 0.23289 0.37149 0.89936 0.0
C672 C 0.26888 0.38194 0.89856 0.0
C673 C 0.21927 0.30648 0.89911 0.0
C674 C 0.24115 0.24972 0.89774 0.0
H675 H 0.21515 0.41364 0.90042 0.0
H676 H 0.19131 0.30083 0.89987 0.0
S677 S 0.33732 0.25025 0.89405 0.0
N678 N 0.32624 0.32999 0.89555 0.0
N679 N 0.30047 0.20846 0.895 0.0
C680 C 0.27714 0.25958 0.89658 0.0
C681 C 0.29104 0.32554 0.89702 0.0
C682 C 0.77608 0.35294 0.15015 0.0
C683 C 0.74243 0.36606 0.15843 0.0
C684 C 0.78847 0.28718 0.14864 0.0
C685 C 0.76775 0.23243 0.15562 0.0
H686 H 0.79267 0.3935 0.14439 0.0
H687 H 0.81459 0.2794 0.14192 0.0
S688 S 0.67871 0.24147 0.18073 0.0
N689 N 0.68908 0.31993 0.17507 0.0
N690 N 0.71267 0.19634 0.17238 0.0
C691 C 0.73428 0.24514 0.16442 0.0
C692 C 0.72157 0.31204 0.16582 0.0
C693 C 0.27711 0.85912 0.14998 0.0
C694 C 0.2419 0.87008 0.15511 0.0
C695 C 0.29055 0.79392 0.14801 0.0
C696 C 0.26935 0.73728 0.15133 0.0
H697 H 0.29429 0.90107 0.14708 0.0
H698 H 0.31792 0.78807 0.14406 0.0
S699 S 0.17557 0.73937 0.16633 0.0
N700 N 0.18617 0.81903 0.16424 0.0
N701 N 0.21151 0.69697 0.16066 0.0
C702 C 0.23415 0.74772 0.15673 0.0
C703 C 0.22043 0.81398 0.15861 0.0
C704 C 0.22091 0.78813 0.68666 0.0
C705 C 0.23181 0.72608 0.67682 0.0
C706 C 0.24057 0.84659 0.68327 0.0
C707 C 0.27241 0.84458 0.67068 0.0
H708 H 0.19679 0.7917 0.69676 0.0
H709 H 0.23116 0.89343 0.69099 0.0
S710 S 0.3128 0.6949 0.6417 0.0
N711 N 0.27643 0.6667 0.65369 0.0
N712 N 0.3139 0.77573 0.64836 0.0
C713 C 0.28376 0.7829 0.66101 0.0
C714 C 0.26332 0.72389 0.6638 0.0
C715 C 0.74718 0.33889 0.70549 0.0
C716 C 0.75916 0.37026 0.6837 0.0
C717 C 0.72951 0.27757 0.70427 0.0
C718 C 0.7232 0.24408 0.68121 0.0
H719 H 0.75112 0.36224 0.72376 0.0
H720 H 0.72098 0.25607 0.72172 0.0
S721 S 0.75026 0.30339 0.61853 0.0
N722 N 0.76413 0.36206 0.63826 0.0
N723 N 0.73107 0.24691 0.63595 0.0
C724 C 0.73537 0.27445 0.65923 0.0
C725 C 0.75321 0.33737 0.66047 0.0
C726 C 0.25463 0.32292 0.3522 0.0
C727 C 0.24838 0.35548 0.37526 0.0
C728 C 0.27402 0.26298 0.35106 0.0
C729 C 0.28743 0.23201 0.37298 0.0
H730 H 0.24492 0.34451 0.33477 0.0
H731 H 0.27813 0.24028 0.33281 0.0
S732 S 0.27743 0.29561 0.43824 0.0
N733 N 0.25681 0.35144 0.42061 0.0
N734 N 0.29253 0.2387 0.41859 0.0
C735 C 0.28095 0.26363 0.39621 0.0
C736 C 0.26171 0.32528 0.39731 0.0
C737 C 0.76942 0.74128 0.40565 0.0
C738 C 0.78858 0.73212 0.38357 0.0
C739 C 0.74891 0.79844 0.40947 0.0
C740 C 0.74685 0.84986 0.39156 0.0
H741 H 0.77008 0.70394 0.42027 0.0
H742 H 0.73507 0.80273 0.42694 0.0
S743 S 0.79156 0.85156 0.33035 0.0
N744 N 0.80372 0.78 0.34326 0.0
N745 N 0.76559 0.88797 0.3507 0.0
C746 C 0.76585 0.84184 0.36937 0.0
C747 C 0.78656 0.78302 0.36532 0.0
C748 C 0.75224 0.34808 0.40655 0.0
C749 C 0.78626 0.36097 0.39925 0.0
C750 C 0.73994 0.28235 0.40735 0.0
C751 C 0.76115 0.22738 0.40064 0.0
H752 H 0.73536 0.38869 0.41231 0.0
H753 H 0.71349 0.2748 0.41333 0.0
S754 S 0.8515 0.23585 0.37811 0.0
N755 N 0.84057 0.31439 0.38379 0.0
N756 N 0.8172 0.19097 0.38524 0.0
C757 C 0.79498 0.23993 0.39274 0.0
C758 C 0.80757 0.30676 0.39201 0.0
C759 C 0.24139 0.78637 0.40511 0.0
C760 C 0.2638 0.73012 0.40655 0.0
C761 C 0.25418 0.85202 0.40629 0.0
C762 C 0.28992 0.86422 0.40915 0.0
H763 H 0.21361 0.77987 0.40241 0.0
H764 H 0.23603 0.8933 0.40415 0.0
S765 S 0.35933 0.73452 0.41634 0.0
N766 N 0.32314 0.69117 0.41253 0.0
N767 N 0.34751 0.81399 0.41527 0.0
C768 C 0.31253 0.80832 0.41167 0.0
C769 C 0.29943 0.74148 0.41019 0.0
C770 C 0.72243 0.75366 0.65077 0.0
C771 C 0.75825 0.74126 0.65301 0.0
C772 C 0.70954 0.81933 0.64916 0.0
C773 C 0.7319 0.87534 0.64997 0.0
H774 H 0.70419 0.71248 0.65027 0.0
H775 H 0.6816 0.82604 0.64765 0.0
S776 S 0.82801 0.87026 0.65576 0.0
N777 N 0.81617 0.79099 0.65587 0.0
N778 N 0.79157 0.91377 0.65306 0.0
C779 C 0.76776 0.8637 0.6521 0.0
C780 C 0.781 0.79688 0.65357 0.0
C781 C 0.20863 0.3029 0.64898 0.0
C782 C 0.23067 0.35868 0.64625 0.0
C783 C 0.22168 0.23725 0.64906 0.0
C784 C 0.25729 0.22468 0.64623 0.0
H785 H 0.18101 0.30985 0.65174 0.0
H786 H 0.20383 0.1963 0.65183 0.0
S787 S 0.32573 0.35307 0.63665 0.0
N788 N 0.2895 0.39676 0.63953 0.0
N789 N 0.31434 0.27393 0.63927 0.0
C790 C 0.27951 0.28005 0.64268 0.0
C791 C 0.26615 0.34686 0.6428 0.0
C792 C 0.99073 0.99437 0.15809 0.0
C793 C 0.96828 0.0499 0.15732 0.0
C794 C 0.02692 1.00261 0.15857 0.0
C795 C 0.04232 0.06668 0.15774 0.0
H796 H 0.98036 0.94408 0.15732 0.0
H797 H 0.04296 0.95793 0.15889 0.0
S798 S 0.99489 0.22864 0.15987 0.0
N799 N 0.96403 0.17151 0.15997 0.0
N800 N 0.0319 0.18674 0.15862 0.0
C801 C 0.02016 0.1227 0.15856 0.0
C802 C 0.98326 0.11434 0.1588 0.0
C803 C 0.02754 0.11786 0.88107 0.0
C804 C 0.0428 0.05411 0.88478 0.0
C805 C 0.99135 0.12604 0.87889 0.0
C806 C 0.96925 0.07066 0.88009 0.0
H807 H 0.04362 0.16222 0.88088 0.0
H808 H 0.9806 0.17618 0.87786 0.0
S809 S 0.99584 0.89244 0.88545 0.0
N810 N 0.03277 0.93425 0.88701 0.0
N811 N 0.96496 0.94937 0.88167 0.0
C812 C 0.98423 1.00626 0.88144 0.0
C813 C 0.02096 0.99798 0.88406 0.0
C814 C 0.97498 0.53608 0.64273 0.0
C815 C 0.9569 0.5225 0.66479 0.0
C816 C 0.01081 0.54571 0.64321 0.0
C817 C 0.0306 0.53992 0.66564 0.0
H818 H 0.96107 0.5415 0.62491 0.0
H819 H 0.0231 0.55808 0.6257 0.0
S820 S 0.99612 0.50102 0.7285 0.0
N821 N 0.96126 0.50283 0.70979 0.0
N822 N 0.0296 0.51653 0.71047 0.0
C823 C 0.01311 0.5244 0.68785 0.0
C824 C 0.97612 0.51598 0.68743 0.0
C825 C 1.00379 0.4979 0.39834 0.0
C826 C 0.98736 0.55454 0.40885 0.0
C827 C 0.04015 0.49016 0.39938 0.0
C828 C 0.06137 0.53851 0.41118 0.0
H829 H 0.98833 0.45951 0.38902 0.0
H830 H 0.05176 0.44732 0.39014 0.0
S831 S 0.03089 0.69203 0.44401 0.0
N832 N 0.99484 0.65711 0.43287 0.0
N833 N 0.06304 0.64248 0.43531 0.0
C834 C 0.04508 0.59411 0.42258 0.0
C835 C 0.00816 0.60227 0.42123 0.0
C836 C 0.47835 0.9853 0.65103 0.0
C837 C 0.45621 0.03781 0.6435 0.0
C838 C 0.51446 0.99485 0.65296 0.0
C839 C 0.52941 0.05735 0.64771 0.0
H840 H 0.46763 0.93754 0.65638 0.0
H841 H 0.53082 0.95338 0.65894 0.0
S842 S 0.48316 0.20821 0.62457 0.0
N843 N 0.45213 0.1526 0.62856 0.0
N844 N 0.51992 0.17044 0.63283 0.0
C845 C 0.50775 0.10938 0.63937 0.0
C846 C 0.47116 0.09953 0.63703 0.0
C847 C 0.50798 0.06992 0.36521 0.0
C848 C 0.48657 0.07831 0.38611 0.0
C849 C 0.54374 0.05622 0.36837 0.0
C850 C 0.559 0.04915 0.39254 0.0
H851 H 0.49678 0.0717 0.34637 0.0
H852 H 0.55951 0.0512 0.35183 0.0
S853 S 0.51299 0.06141 0.45312 0.0
N854 N 0.48257 0.07659 0.43151 0.0
N855 N 0.54918 0.04858 0.43761 0.0
C856 C 0.53754 0.05691 0.41351 0.0
C857 C 0.50151 0.07208 0.41025 0.0
C858 C 0.52865 0.50153 0.1723 0.0
C859 C 0.54488 0.56475 0.1722 0.0
C860 C 0.49238 0.49536 0.1706 0.0
C861 C 0.47094 0.55221 0.16877 0.0
H862 H 0.54424 0.45622 0.17263 0.0
H863 H 0.4812 0.44574 0.16941 0.0
S864 S 0.50003 0.72919 0.17181 0.0
N865 N 0.53651 0.68521 0.17276 0.0
N866 N 0.46821 0.67394 0.17041 0.0
C867 C 0.48667 0.61577 0.17065 0.0
C868 C 0.52366 0.62199 0.17224 0.0
C869 C 0.48918 0.57855 0.87879 0.0
C870 C 0.47024 0.58441 0.90107 0.0
C871 C 0.52549 0.56894 0.87958 0.0
C872 C 0.54398 0.56469 0.90267 0.0
H873 H 0.47577 0.57968 0.86069 0.0
H874 H 0.53922 0.56571 0.86203 0.0
S875 S 0.50637 0.57719 0.96628 0.0
N876 N 0.47286 0.5875 0.94678 0.0
N877 N 0.54033 0.56557 0.94828 0.0
C878 C 0.52518 0.5703 0.92501 0.0
C879 C 0.48859 0.58133 0.9242 0.0
C880 C 0.21893 0.99196 1.01335 0.0
C881 C 0.20557 0.04524 0.99884 0.0
C882 C 0.21874 0.99434 0.03966 0.0
C883 C 0.20501 0.04982 0.05236 0.0
H884 H 0.23142 0.94989 1.00425 0.0
H885 H 0.23132 0.95453 0.05022 0.0
S886 S 0.16477 0.19996 1.02344 0.0
N887 N 0.17632 0.15323 0.99922 0.0
N888 N 0.17597 0.15729 0.0489 0.0
C889 C 0.18957 0.1014 0.03823 0.0
C890 C 0.18972 0.09909 1.01135 0.0
C891 C 0.83308 0.03687 1.01535 0.0
C892 C 0.80633 0.05691 0.99862 0.0
C893 C 0.82719 0.03174 0.04126 0.0
C894 C 0.79444 0.0472 0.05118 0.0
H895 H 0.85882 0.02665 1.00835 0.0
H896 H 0.84834 1.01582 0.05361 0.0
S897 S 0.71714 0.10831 1.01488 0.0
N898 N 0.74694 0.09534 0.99345 0.0
N899 N 0.73562 0.08738 0.04204 0.0
C900 C 0.76765 0.06793 0.03443 0.0
C901 C 0.77369 0.07247 1.00816 0.0
C902 C 0.17444 0.54876 0.53453 0.0
C903 C 0.20001 0.54932 0.55385 0.0
C904 C 0.18363 0.54535 0.50911 0.0
C905 C 0.21874 0.54358 0.50221 0.0
H906 H 0.14718 0.55099 0.53921 0.0
H907 H 0.1632 0.54329 0.49482 0.0
S908 S 0.29525 0.55399 0.54606 0.0
N909 N 0.26139 0.55295 0.56463 0.0
N910 N 0.27911 0.54968 0.51708 0.0
C911 C 0.24449 0.54652 0.52154 0.0
C912 C 0.23501 0.54855 0.54731 0.0
C913 C 0.82349 0.59845 0.52137 0.0
C914 C 0.82208 0.54139 0.50574 0.0
C915 C 0.819 0.59354 0.54743 0.0
C916 C 0.81207 0.53154 0.55851 0.0
H917 H 0.82571 0.64756 0.51308 0.0
H918 H 0.8181 0.63893 0.55864 0.0
S919 S 0.80913 0.36686 0.52611 0.0
N920 N 0.81639 0.42085 0.50342 0.0
N921 N 0.80729 0.4114 0.55235 0.0
C922 C 0.81291 0.47375 0.54331 0.0
C923 C 0.8181 0.47872 0.51691 0.0
C924 C 0.68296 0.04305 0.53307 0.0
C925 C 0.70898 0.04661 0.55196 0.0
C926 C 0.69142 0.03543 0.50768 0.0
C927 C 0.72632 0.0324 0.50016 0.0
H928 H 0.65586 0.0475 0.53803 0.0
H929 H 0.67045 0.03252 0.49382 0.0
S930 S 0.80399 0.0443 0.54285 0.0
N931 N 0.77062 0.04806 0.56186 0.0
N932 N 0.78711 0.03648 0.51418 0.0
C933 C 0.7526 0.03588 0.5191 0.0
C934 C 0.74378 0.04239 0.54498 0.0
C935 C 0.32403 0.1112 0.51573 0.0
C936 C 0.32859 0.05638 0.49914 0.0
C937 C 0.31629 0.1019 0.54115 0.0
C938 C 0.31232 0.03752 0.55093 0.0
H939 H 0.3255 0.16199 0.50895 0.0
H940 H 0.31196 0.14529 0.553 0.0
S941 S 0.32469 0.87718 0.51678 0.0
N942 N 0.3313 0.93506 0.4954 0.0
N943 N 0.31551 0.91804 0.54292 0.0
C944 C 0.31757 0.9823 0.53492 0.0
C945 C 0.32593 0.99158 0.50911 0.0
C946 C 0.69913 0.60817 0.04351 0.0
C947 C 0.70385 0.55246 0.05931 0.0
C948 C 0.70028 0.60167 1.01723 0.0
C949 C 0.7071 0.53941 1.00589 0.0
H950 H 0.69618 0.65759 0.05169 0.0
H951 H 0.69817 0.6462 1.0058 0.0
S952 S 0.71875 0.37756 0.03878 0.0
N953 N 0.71315 0.4326 0.0617 0.0
N954 N 0.71605 0.42027 1.0123 0.0
C955 C 0.71017 0.48285 1.02142 0.0
C956 C 0.70833 0.48936 0.04815 0.0
C957 C 0.3021 0.62254 1.01647 0.0
C958 C 0.30369 0.56849 0.99939 0.0
C959 C 0.30314 0.61207 0.04259 0.0
C960 C 0.30499 0.54707 0.05241 0.0
H961 H 0.29903 0.67307 1.00951 0.0
H962 H 0.30053 0.65459 0.05514 0.0
S963 S 0.31121 0.38914 1.01587 0.0
N964 N 0.30889 0.44811 0.99426 0.0
N965 N 0.31004 0.42836 0.04329 0.0
C966 C 0.30778 0.49292 0.03558 0.0
C967 C 0.30738 0.50363 1.00906 0.0
loop_
_geom_bond_atom_site_label_1
_geom_bond_atom_site_label_2
_geom_bond_distance
_geom_bond_site_symmetry_2
_ccdc_geom_bond_type
Co0 N4 2.148 . S
Co0 N10 2.128 . S
Co0 N20 2.194 . S
Co0 O25 2.351 1_545 S
Co0 O26 2.155 1_545 S
Co0 O27 2.096 . S
C1 N4 1.301 . S
C1 N5 1.328 . S
C1 H6 0.930 1_545 S
C2 C3 1.333 . S
C2 N4 1.317 . S
C2 H7 0.930 . S
C3 C2 1.333 . S
C3 N5 1.350 . S
C3 H29 0.931 . S
N4 Co0 2.148 . S
N4 C1 1.301 . S
N4 C2 1.317 . S
N5 C1 1.328 . S
N5 C3 1.350 . S
H6 C1 0.930 1_565 S
H7 C2 0.930 . S
C8 O9 1.224 . S
C8 O27 1.247 . S
O9 C8 1.224 . S
N10 Co0 2.128 . S
N10 C11 1.360 . S
N10 C13 1.311 . S
C11 N10 1.360 . S
C11 C12 1.365 . S
C11 H23 0.922 1_545 S
C12 C11 1.365 . S
C12 N14 1.375 . S
C12 H30 0.931 1_545 S
C13 N10 1.311 . S
C13 N14 1.347 . S
C13 H24 0.929 . S
N14 C12 1.375 . S
N14 C13 1.347 . S
C15 C18 1.365 . S
C15 N20 1.328 1_565 S
C15 H21 0.929 . S
C16 C17 1.362 . S
C16 C19 1.378 . S
C16 H31 0.929 . S
C17 C16 1.362 . S
C17 C18 1.366 1_545 S
C18 C15 1.365 . S
C18 C17 1.366 1_565 S
C18 H32 0.930 . S
C19 C16 1.378 . S
C19 N20 1.315 . S
C19 H22 0.930 . S
N20 Co0 2.194 . S
N20 C15 1.328 1_545 S
N20 C19 1.315 . S
H21 C15 0.929 . S
H22 C19 0.930 . S
H23 C11 0.922 1_565 S
H24 C13 0.929 . S
O25 Co0 2.351 1_565 S
O25 C28 1.244 . S
O26 Co0 2.155 1_565 S
O26 C28 1.240 . S
O27 Co0 2.096 . S
O27 C8 1.247 . S
C28 O25 1.244 . S
C28 O26 1.240 . S
H29 C3 0.931 . S
H30 C12 0.931 1_565 S
H31 C16 0.929 . S
H32 C18 0.930 . S
Co33 N37 2.148 . S
Co33 N43 2.128 . S
Co33 N53 2.194 . S
Co33 O58 2.351 . S
Co33 O59 2.155 . S
Co33 O60 2.096 1_545 S
C34 N37 1.301 . S
C34 N38 1.328 . S
C34 H39 0.930 . S
C35 C36 1.333 . S
C35 N37 1.317 1_565 S
C35 H40 0.930 . S
C36 C35 1.333 . S
C36 N38 1.350 1_565 S
C36 H62 0.931 . S
N37 Co33 2.148 . S
N37 C34 1.301 . S
N37 C35 1.317 1_545 S
N38 C34 1.328 . S
N38 C36 1.350 1_545 S
H39 C34 0.930 . S
H40 C35 0.930 . S
C41 O42 1.224 . S
C41 O60 1.247 . S
O42 C41 1.224 . S
N43 Co33 2.128 . S
N43 C44 1.355 . S
N43 C46 1.307 1_545 S
C44 N43 1.355 . S
C44 C45 1.363 . S
C44 H56 0.929 . S
C45 C44 1.363 . S
C45 N47 1.375 . S
C45 H63 0.931 . S
C46 N43 1.307 1_565 S
C46 N47 1.346 1_565 S
C46 H57 0.933 . S
N47 C45 1.375 . S
N47 C46 1.346 1_545 S
C48 C51 1.365 . S
C48 N53 1.328 . S
C48 H54 0.929 . S
C49 C50 1.362 1_565 S
C49 C52 1.378 . S
C49 H64 0.929 . S
C50 C49 1.362 1_545 S
C50 C51 1.366 . S
C51 C48 1.365 . S
C51 C50 1.366 . S
C51 H65 0.930 . S
C52 C49 1.378 . S
C52 N53 1.315 1_565 S
C52 H55 0.930 . S
N53 Co33 2.194 . S
N53 C48 1.328 . S
N53 C52 1.315 1_545 S
H54 C48 0.929 . S
H55 C52 0.930 . S
H56 C44 0.929 . S
H57 C46 0.933 . S
O58 Co33 2.351 . S
O58 C61 1.244 . S
O59 Co33 2.155 . S
O59 C61 1.240 . S
O60 Co33 2.096 1_565 S
O60 C41 1.247 . S
C61 O58 1.244 . S
C61 O59 1.240 . S
H62 C36 0.931 . S
H63 C45 0.931 . S
H64 C49 0.929 . S
H65 C51 0.930 . S
Co66 N70 2.148 . S
Co66 N76 2.128 . S
Co66 N86 2.194 . S
Co66 O91 2.351 . S
Co66 O92 2.155 . S
Co66 O93 2.096 1_545 S
C67 N70 1.301 . S
C67 N71 1.328 . S
C67 H72 0.930 . S
C68 C69 1.333 . S
C68 N70 1.317 1_565 S
C68 H73 0.930 . S
C69 C68 1.333 . S
C69 N71 1.350 1_565 S
C69 H95 0.931 . S
N70 Co66 2.148 . S
N70 C67 1.301 . S
N70 C68 1.317 1_545 S
N71 C67 1.328 . S
N71 C69 1.350 1_545 S
H72 C67 0.930 . S
H73 C68 0.930 . S
C74 O75 1.224 . S
C74 O93 1.247 . S
O75 C74 1.224 . S
N76 Co66 2.128 . S
N76 C77 1.355 . S
N76 C79 1.307 1_545 S
C77 N76 1.355 . S
C77 C78 1.363 . S
C77 H89 0.929 . S
C78 C77 1.363 . S
C78 N80 1.375 . S
C78 H96 0.931 . S
C79 N76 1.307 1_565 S
C79 N80 1.346 1_565 S
C79 H90 0.933 . S
N80 C78 1.375 . S
N80 C79 1.346 1_545 S
C81 C84 1.365 . S
C81 N86 1.328 . S
C81 H87 0.929 . S
C82 C83 1.362 1_565 S
C82 C85 1.378 . S
C82 H97 0.929 . S
C83 C82 1.362 1_545 S
C83 C84 1.366 . S
C84 C81 1.365 . S
C84 C83 1.366 . S
C84 H98 0.930 . S
C85 C82 1.378 . S
C85 N86 1.315 1_565 S
C85 H88 0.930 . S
N86 Co66 2.194 . S
N86 C81 1.328 . S
N86 C85 1.315 1_545 S
H87 C81 0.929 . S
H88 C85 0.930 . S
H89 C77 0.929 . S
H90 C79 0.933 . S
O91 Co66 2.351 . S
O91 C94 1.244 . S
O92 Co66 2.155 . S
O92 C94 1.240 . S
O93 Co66 2.096 1_565 S
O93 C74 1.247 . S
C94 O91 1.244 . S
C94 O92 1.240 . S
H95 C69 0.931 . S
H96 C78 0.931 . S
H97 C82 0.929 . S
H98 C84 0.930 . S
Co99 N103 2.148 . S
Co99 N109 2.128 . S
Co99 N119 2.194 . S
Co99 O124 2.351 1_545 S
Co99 O125 2.155 1_545 S
Co99 O126 2.096 . S
C100 N103 1.301 . S
C100 N104 1.328 . S
C100 H105 0.930 1_545 S
C101 C102 1.333 . S
C101 N103 1.317 . S
C101 H106 0.930 . S
C102 C101 1.333 . S
C102 N104 1.350 . S
C102 H128 0.931 . S
N103 Co99 2.148 . S
N103 C100 1.301 . S
N103 C101 1.317 . S
N104 C100 1.328 . S
N104 C102 1.350 . S
H105 C100 0.930 1_565 S
H106 C101 0.930 . S
C107 O108 1.224 . S
C107 O126 1.247 . S
O108 C107 1.224 . S
N109 Co99 2.128 . S
N109 C110 1.360 . S
N109 C112 1.311 . S
C110 N109 1.360 . S
C110 C111 1.365 . S
C110 H122 0.922 1_545 S
C111 C110 1.365 . S
C111 N113 1.375 . S
C111 H129 0.931 1_545 S
C112 N109 1.311 . S
C112 N113 1.347 . S
C112 H123 0.929 . S
N113 C111 1.375 . S
N113 C112 1.347 . S
C114 C117 1.365 . S
C114 N119 1.328 1_565 S
C114 H120 0.929 . S
C115 C116 1.362 . S
C115 C118 1.378 . S
C115 H130 0.929 . S
C116 C115 1.362 . S
C116 C117 1.366 1_545 S
C117 C114 1.365 . S
C117 C116 1.366 1_565 S
C117 H131 0.930 . S
C118 C115 1.378 . S
C118 N119 1.315 . S
C118 H121 0.930 . S
N119 Co99 2.194 . S
N119 C114 1.328 1_545 S
N119 C118 1.315 . S
H120 C114 0.929 . S
H121 C118 0.930 . S
H122 C110 0.922 1_565 S
H123 C112 0.929 . S
O124 Co99 2.351 1_565 S
O124 C127 1.244 . S
O125 Co99 2.155 1_565 S
O125 C127 1.240 . S
O126 Co99 2.096 . S
O126 C107 1.247 . S
C127 O124 1.244 . S
C127 O125 1.240 . S
H128 C102 0.931 . S
H129 C111 0.931 1_565 S
H130 C115 0.929 . S
H131 C117 0.930 . S
Co132 N136 2.148 . S
Co132 N142 2.128 . S
Co132 N152 2.194 . S
Co132 O157 2.351 . S
Co132 O158 2.155 . S
Co132 O159 2.096 . S
C133 N136 1.301 . S
C133 N137 1.328 . S
C133 H138 0.930 . S
C134 C135 1.333 . S
C134 N136 1.317 . S
C134 H139 0.930 . S
C135 C134 1.333 . S
C135 N137 1.350 . S
C135 H161 0.931 . S
N136 Co132 2.148 . S
N136 C133 1.301 . S
N136 C134 1.317 . S
N137 C133 1.328 . S
N137 C135 1.350 . S
H138 C133 0.930 . S
H139 C134 0.930 . S
C140 O141 1.224 . S
C140 O159 1.247 . S
O141 C140 1.224 . S
N142 Co132 2.128 . S
N142 C143 1.355 . S
N142 C145 1.311 . S
C143 N142 1.355 . S
C143 C144 1.363 . S
C143 H155 0.929 . S
C144 C143 1.363 . S
C144 N146 1.375 . S
C144 H162 0.931 . S
C145 N142 1.311 . S
C145 N146 1.347 . S
C145 H156 0.929 . S
N146 C144 1.375 . S
N146 C145 1.347 . S
C147 C150 1.365 . S
C147 N152 1.328 . S
C147 H153 0.929 . S
C148 C149 1.362 . S
C148 C151 1.378 . S
C148 H163 0.929 . S
C149 C148 1.362 . S
C149 C150 1.366 . S
C150 C147 1.365 . S
C150 C149 1.366 . S
C150 H164 0.930 . S
C151 C148 1.378 . S
C151 N152 1.315 . S
C151 H154 0.930 . S
N152 Co132 2.194 . S
N152 C147 1.328 . S
N152 C151 1.315 . S
H153 C147 0.929 . S
H154 C151 0.930 . S
H155 C143 0.929 . S
H156 C145 0.929 . S
O157 Co132 2.351 . S
O157 C160 1.244 . S
O158 Co132 2.155 . S
O158 C160 1.240 . S
O159 Co132 2.096 . S
O159 C140 1.247 . S
C160 O157 1.244 . S
C160 O158 1.240 . S
H161 C135 0.931 . S
H162 C144 0.931 . S
H163 C148 0.929 . S
H164 C150 0.930 . S
Co165 N169 2.148 . S
Co165 N175 2.128 . S
Co165 N185 2.194 . S
Co165 O190 2.351 . S
Co165 O191 2.155 . S
Co165 O192 2.096 . S
C166 N169 1.301 . S
C166 N170 1.328 . S
C166 H171 0.930 . S
C167 C168 1.333 . S
C167 N169 1.317 . S
C167 H172 0.930 . S
C168 C167 1.333 . S
C168 N170 1.350 . S
C168 H194 0.931 . S
N169 Co165 2.148 . S
N169 C166 1.301 . S
N169 C167 1.317 . S
N170 C166 1.328 . S
N170 C168 1.350 . S
H171 C166 0.930 . S
H172 C167 0.930 . S
C173 O174 1.224 . S
C173 O192 1.247 . S
O174 C173 1.224 . S
N175 Co165 2.128 . S
N175 C176 1.355 . S
N175 C178 1.311 . S
C176 N175 1.355 . S
C176 C177 1.363 . S
C176 H188 0.929 . S
C177 C176 1.363 . S
C177 N179 1.375 . S
C177 H195 0.931 . S
C178 N175 1.311 . S
C178 N179 1.347 . S
C178 H189 0.929 . S
N179 C177 1.375 . S
N179 C178 1.347 . S
C180 C183 1.365 . S
C180 N185 1.328 . S
C180 H186 0.929 . S
C181 C182 1.362 . S
C181 C184 1.378 . S
C181 H196 0.929 . S
C182 C181 1.362 . S
C182 C183 1.366 . S
C183 C180 1.365 . S
C183 C182 1.366 . S
C183 H197 0.930 . S
C184 C181 1.378 . S
C184 N185 1.315 . S
C184 H187 0.930 . S
N185 Co165 2.194 . S
N185 C180 1.328 . S
N185 C184 1.315 . S
H186 C180 0.929 . S
H187 C184 0.930 . S
H188 C176 0.929 . S
H189 C178 0.929 . S
O190 Co165 2.351 . S
O190 C193 1.244 . S
O191 Co165 2.155 . S
O191 C193 1.240 . S
O192 Co165 2.096 . S
O192 C173 1.247 . S
C193 O190 1.244 . S
C193 O191 1.240 . S
H194 C168 0.931 . S
H195 C177 0.931 . S
H196 C181 0.929 . S
H197 C183 0.930 . S
Co198 N202 2.148 . S
Co198 N208 2.128 . S
Co198 N218 2.194 . S
Co198 O223 2.351 . S
Co198 O224 2.155 . S
Co198 O225 2.096 . S
C199 N202 1.301 . S
C199 N203 1.328 . S
C199 H204 0.930 . S
C200 C201 1.333 . S
C200 N202 1.317 . S
C200 H205 0.930 . S
C201 C200 1.333 . S
C201 N203 1.350 . S
C201 H227 0.931 . S
N202 Co198 2.148 . S
N202 C199 1.301 . S
N202 C200 1.317 . S
N203 C199 1.328 . S
N203 C201 1.350 . S
H204 C199 0.930 . S
H205 C200 0.930 . S
C206 O207 1.224 . S
C206 O225 1.247 . S
O207 C206 1.224 . S
N208 Co198 2.128 . S
N208 C209 1.355 . S
N208 C211 1.311 . S
C209 N208 1.355 . S
C209 C210 1.363 . S
C209 H221 0.929 . S
C210 C209 1.363 . S
C210 N212 1.375 . S
C210 H228 0.931 . S
C211 N208 1.311 . S
C211 N212 1.347 . S
C211 H222 0.929 . S
N212 C210 1.375 . S
N212 C211 1.347 . S
C213 C216 1.365 . S
C213 N218 1.328 . S
C213 H219 0.929 . S
C214 C215 1.362 . S
C214 C217 1.378 . S
C214 H229 0.929 . S
C215 C214 1.362 . S
C215 C216 1.366 . S
C216 C213 1.365 . S
C216 C215 1.366 . S
C216 H230 0.930 . S
C217 C214 1.378 . S
C217 N218 1.315 . S
C217 H220 0.930 . S
N218 Co198 2.194 . S
N218 C213 1.328 . S
N218 C217 1.315 . S
H219 C213 0.929 . S
H220 C217 0.930 . S
H221 C209 0.929 . S
H222 C211 0.929 . S
O223 Co198 2.351 . S
O223 C226 1.244 . S
O224 Co198 2.155 . S
O224 C226 1.240 . S
O225 Co198 2.096 . S
O225 C206 1.247 . S
C226 O223 1.244 . S
C226 O224 1.240 . S
H227 C201 0.931 . S
H228 C210 0.931 . S
H229 C214 0.929 . S
H230 C216 0.930 . S
Co231 N235 2.148 . S
Co231 N241 2.128 . S
Co231 N251 2.194 . S
Co231 O256 2.351 . S
Co231 O257 2.155 . S
Co231 O258 2.096 . S
C232 N235 1.301 . S
C232 N236 1.328 . S
C232 H237 0.930 . S
C233 C234 1.333 . S
C233 N235 1.317 . S
C233 H238 0.930 . S
C234 C233 1.333 . S
C234 N236 1.350 . S
C234 H260 0.931 . S
N235 Co231 2.148 . S
N235 C232 1.301 . S
N235 C233 1.317 . S
N236 C232 1.328 . S
N236 C234 1.350 . S
H237 C232 0.930 . S
H238 C233 0.930 . S
C239 O240 1.224 . S
C239 O258 1.247 . S
O240 C239 1.224 . S
N241 Co231 2.128 . S
N241 C242 1.355 . S
N241 C244 1.311 . S
C242 N241 1.355 . S
C242 C243 1.363 . S
C242 H254 0.929 . S
C243 C242 1.363 . S
C243 N245 1.375 . S
C243 H261 0.931 . S
C244 N241 1.311 . S
C244 N245 1.347 . S
C244 H255 0.929 . S
N245 C243 1.375 . S
N245 C244 1.347 . S
C246 C249 1.365 . S
C246 N251 1.328 . S
C246 H252 0.929 . S
C247 C248 1.362 . S
C247 C250 1.378 . S
C247 H262 0.929 . S
C248 C247 1.362 . S
C248 C249 1.366 . S
C249 C246 1.365 . S
C249 C248 1.366 . S
C249 H263 0.930 . S
C250 C247 1.378 . S
C250 N251 1.315 . S
C250 H253 0.930 . S
N251 Co231 2.194 . S
N251 C246 1.328 . S
N251 C250 1.315 . S
H252 C246 0.929 . S
H253 C250 0.930 . S
H254 C242 0.929 . S
H255 C244 0.929 . S
O256 Co231 2.351 . S
O256 C259 1.244 . S
O257 Co231 2.155 . S
O257 C259 1.240 . S
O258 Co231 2.096 . S
O258 C239 1.247 . S
C259 O256 1.244 . S
C259 O257 1.240 . S
H260 C234 0.931 . S
H261 C243 0.931 . S
H262 C247 0.929 . S
H263 C249 0.930 . S
Co264 N268 2.148 . S
Co264 N274 2.128 . S
Co264 N284 2.194 . S
Co264 O289 2.351 1_545 S
Co264 O290 2.155 1_545 S
Co264 O291 2.096 . S
C265 N268 1.301 . S
C265 N269 1.328 . S
C265 H270 0.930 1_545 S
C266 C267 1.333 . S
C266 N268 1.317 . S
C266 H271 0.930 . S
C267 C266 1.333 . S
C267 N269 1.350 . S
C267 H293 0.931 . S
N268 Co264 2.148 . S
N268 C265 1.301 . S
N268 C266 1.317 . S
N269 C265 1.328 . S
N269 C267 1.350 . S
H270 C265 0.930 1_565 S
H271 C266 0.930 . S
C272 O273 1.224 . S
C272 O291 1.247 . S
O273 C272 1.224 . S
N274 Co264 2.128 . S
N274 C275 1.360 . S
N274 C277 1.311 . S
C275 N274 1.360 . S
C275 C276 1.365 . S
C275 H287 0.922 1_545 S
C276 C275 1.365 . S
C276 N278 1.375 . S
C276 H294 0.931 1_545 S
C277 N274 1.311 . S
C277 N278 1.347 . S
C277 H288 0.929 . S
N278 C276 1.375 . S
N278 C277 1.347 . S
C279 C282 1.365 . S
C279 N284 1.328 1_565 S
C279 H285 0.929 . S
C280 C281 1.362 . S
C280 C283 1.378 . S
C280 H295 0.929 . S
C281 C280 1.362 . S
C281 C282 1.366 1_545 S
C282 C279 1.365 . S
C282 C281 1.366 1_565 S
C282 H296 0.930 . S
C283 C280 1.378 . S
C283 N284 1.315 . S
C283 H286 0.930 . S
N284 Co264 2.194 . S
N284 C279 1.328 1_545 S
N284 C283 1.315 . S
H285 C279 0.929 . S
H286 C283 0.930 . S
H287 C275 0.922 1_565 S
H288 C277 0.929 . S
O289 Co264 2.351 1_565 S
O289 C292 1.244 . S
O290 Co264 2.155 1_565 S
O290 C292 1.240 . S
O291 Co264 2.096 . S
O291 C272 1.247 . S
C292 O289 1.244 . S
C292 O290 1.240 . S
H293 C267 0.931 . S
H294 C276 0.931 1_565 S
H295 C280 0.929 . S
H296 C282 0.930 . S
Co297 N301 2.148 . S
Co297 N307 2.128 . S
Co297 N317 2.194 . S
Co297 O322 2.351 . S
Co297 O323 2.155 . S
Co297 O324 2.096 1_545 S
C298 N301 1.301 . S
C298 N302 1.328 . S
C298 H303 0.930 . S
C299 C300 1.333 . S
C299 N301 1.317 1_565 S
C299 H304 0.930 . S
C300 C299 1.333 . S
C300 N302 1.350 1_565 S
C300 H326 0.931 . S
N301 Co297 2.148 . S
N301 C298 1.301 . S
N301 C299 1.317 1_545 S
N302 C298 1.328 . S
N302 C300 1.350 1_545 S
H303 C298 0.930 . S
H304 C299 0.930 . S
C305 O306 1.224 . S
C305 O324 1.247 . S
O306 C305 1.224 . S
N307 Co297 2.128 . S
N307 C308 1.355 . S
N307 C310 1.307 1_545 S
C308 N307 1.355 . S
C308 C309 1.363 . S
C308 H320 0.929 . S
C309 C308 1.363 . S
C309 N311 1.375 . S
C309 H327 0.931 . S
C310 N307 1.307 1_565 S
C310 N311 1.346 1_565 S
C310 H321 0.933 . S
N311 C309 1.375 . S
N311 C310 1.346 1_545 S
C312 C315 1.365 . S
C312 N317 1.328 . S
C312 H318 0.929 . S
C313 C314 1.362 1_565 S
C313 C316 1.378 . S
C313 H328 0.929 . S
C314 C313 1.362 1_545 S
C314 C315 1.366 . S
C315 C312 1.365 . S
C315 C314 1.366 . S
C315 H329 0.930 . S
C316 C313 1.378 . S
C316 N317 1.315 1_565 S
C316 H319 0.930 . S
N317 Co297 2.194 . S
N317 C312 1.328 . S
N317 C316 1.315 1_545 S
H318 C312 0.929 . S
H319 C316 0.930 . S
H320 C308 0.929 . S
H321 C310 0.933 . S
O322 Co297 2.351 . S
O322 C325 1.244 . S
O323 Co297 2.155 . S
O323 C325 1.240 . S
O324 Co297 2.096 1_565 S
O324 C305 1.247 . S
C325 O322 1.244 . S
C325 O323 1.240 . S
H326 C300 0.931 . S
H327 C309 0.931 . S
H328 C313 0.929 . S
H329 C315 0.930 . S
Co330 N334 2.148 . S
Co330 N340 2.128 . S
Co330 N350 2.194 . S
Co330 O355 2.351 . S
Co330 O356 2.155 . S
Co330 O357 2.096 1_545 S
C331 N334 1.301 . S
C331 N335 1.328 . S
C331 H336 0.930 . S
C332 C333 1.333 . S
C332 N334 1.317 1_565 S
C332 H337 0.930 . S
C333 C332 1.333 . S
C333 N335 1.350 1_565 S
C333 H359 0.931 . S
N334 Co330 2.148 . S
N334 C331 1.301 . S
N334 C332 1.317 1_545 S
N335 C331 1.328 . S
N335 C333 1.350 1_545 S
H336 C331 0.930 . S
H337 C332 0.930 . S
C338 O339 1.224 . S
C338 O357 1.247 . S
O339 C338 1.224 . S
N340 Co330 2.128 . S
N340 C341 1.355 . S
N340 C343 1.307 1_545 S
C341 N340 1.355 . S
C341 C342 1.363 . S
C341 H353 0.929 . S
C342 C341 1.363 . S
C342 N344 1.375 . S
C342 H360 0.931 . S
C343 N340 1.307 1_565 S
C343 N344 1.346 1_565 S
C343 H354 0.933 . S
N344 C342 1.375 . S
N344 C343 1.346 1_545 S
C345 C348 1.365 . S
C345 N350 1.328 . S
C345 H351 0.929 . S
C346 C347 1.362 1_565 S
C346 C349 1.378 . S
C346 H361 0.929 . S
C347 C346 1.362 1_545 S
C347 C348 1.366 . S
C348 C345 1.365 . S
C348 C347 1.366 . S
C348 H362 0.930 . S
C349 C346 1.378 . S
C349 N350 1.315 1_565 S
C349 H352 0.930 . S
N350 Co330 2.194 . S
N350 C345 1.328 . S
N350 C349 1.315 1_545 S
H351 C345 0.929 . S
H352 C349 0.930 . S
H353 C341 0.929 . S
H354 C343 0.933 . S
O355 Co330 2.351 . S
O355 C358 1.244 . S
O356 Co330 2.155 . S
O356 C358 1.240 . S
O357 Co330 2.096 1_565 S
O357 C338 1.247 . S
C358 O355 1.244 . S
C358 O356 1.240 . S
H359 C333 0.931 . S
H360 C342 0.931 . S
H361 C346 0.929 . S
H362 C348 0.930 . S
Co363 N367 2.148 . S
Co363 N373 2.128 . S
Co363 N383 2.194 . S
Co363 O388 2.351 1_545 S
Co363 O389 2.155 1_545 S
Co363 O390 2.096 . S
C364 N367 1.301 . S
C364 N368 1.328 . S
C364 H369 0.930 1_545 S
C365 C366 1.333 . S
C365 N367 1.317 . S
C365 H370 0.930 . S
C366 C365 1.333 . S
C366 N368 1.350 . S
C366 H392 0.931 . S
N367 Co363 2.148 . S
N367 C364 1.301 . S
N367 C365 1.317 . S
N368 C364 1.328 . S
N368 C366 1.350 . S
H369 C364 0.930 1_565 S
H370 C365 0.930 . S
C371 O372 1.224 . S
C371 O390 1.247 . S
O372 C371 1.224 . S
N373 Co363 2.128 . S
N373 C374 1.360 . S
N373 C376 1.311 . S
C374 N373 1.360 . S
C374 C375 1.365 . S
C374 H386 0.922 1_545 S
C375 C374 1.365 . S
C375 N377 1.375 . S
C375 H393 0.931 1_545 S
C376 N373 1.311 . S
C376 N377 1.347 . S
C376 H387 0.929 . S
N377 C375 1.375 . S
N377 C376 1.347 . S
C378 C381 1.365 . S
C378 N383 1.328 1_565 S
C378 H384 0.929 . S
C379 C380 1.362 . S
C379 C382 1.378 . S
C379 H394 0.929 . S
C380 C379 1.362 . S
C380 C381 1.366 1_545 S
C381 C378 1.365 . S
C381 C380 1.366 1_565 S
C381 H395 0.930 . S
C382 C379 1.378 . S
C382 N383 1.315 . S
C382 H385 0.930 . S
N383 Co363 2.194 . S
N383 C378 1.328 1_545 S
N383 C382 1.315 . S
H384 C378 0.929 . S
H385 C382 0.930 . S
H386 C374 0.922 1_565 S
H387 C376 0.929 . S
O388 Co363 2.351 1_565 S
O388 C391 1.244 . S
O389 Co363 2.155 1_565 S
O389 C391 1.240 . S
O390 Co363 2.096 . S
O390 C371 1.247 . S
C391 O388 1.244 . S
C391 O389 1.240 . S
H392 C366 0.931 . S
H393 C375 0.931 1_565 S
H394 C379 0.929 . S
H395 C381 0.930 . S
Co396 N400 2.148 . S
Co396 N406 2.128 . S
Co396 N416 2.194 . S
Co396 O421 2.351 . S
Co396 O422 2.155 . S
Co396 O423 2.096 . S
C397 N400 1.301 . S
C397 N401 1.328 . S
C397 H402 0.930 . S
C398 C399 1.333 . S
C398 N400 1.317 . S
C398 H403 0.930 . S
C399 C398 1.333 . S
C399 N401 1.350 . S
C399 H425 0.931 . S
N400 Co396 2.148 . S
N400 C397 1.301 . S
N400 C398 1.317 . S
N401 C397 1.328 . S
N401 C399 1.350 . S
H402 C397 0.930 . S
H403 C398 0.930 . S
C404 O405 1.224 . S
C404 O423 1.247 . S
O405 C404 1.224 . S
N406 Co396 2.128 . S
N406 C407 1.355 . S
N406 C409 1.311 . S
C407 N406 1.355 . S
C407 C408 1.363 . S
C407 H419 0.929 . S
C408 C407 1.363 . S
C408 N410 1.375 . S
C408 H426 0.931 . S
C409 N406 1.311 . S
C409 N410 1.347 . S
C409 H420 0.929 . S
N410 C408 1.375 . S
N410 C409 1.347 . S
C411 C414 1.365 . S
C411 N416 1.328 . S
C411 H417 0.929 . S
C412 C413 1.362 . S
C412 C415 1.378 . S
C412 H427 0.929 . S
C413 C412 1.362 . S
C413 C414 1.366 . S
C414 C411 1.365 . S
C414 C413 1.366 . S
C414 H428 0.930 . S
C415 C412 1.378 . S
C415 N416 1.315 . S
C415 H418 0.930 . S
N416 Co396 2.194 . S
N416 C411 1.328 . S
N416 C415 1.315 . S
H417 C411 0.929 . S
H418 C415 0.930 . S
H419 C407 0.929 . S
H420 C409 0.929 . S
O421 Co396 2.351 . S
O421 C424 1.244 . S
O422 Co396 2.155 . S
O422 C424 1.240 . S
O423 Co396 2.096 . S
O423 C404 1.247 . S
C424 O421 1.244 . S
C424 O422 1.240 . S
H425 C399 0.931 . S
H426 C408 0.931 . S
H427 C412 0.929 . S
H428 C414 0.930 . S
Co429 N433 2.148 . S
Co429 N439 2.128 . S
Co429 N449 2.194 . S
Co429 O454 2.351 . S
Co429 O455 2.155 . S
Co429 O456 2.096 . S
C430 N433 1.301 . S
C430 N434 1.328 . S
C430 H435 0.930 . S
C431 C432 1.333 . S
C431 N433 1.317 . S
C431 H436 0.930 . S
C432 C431 1.333 . S
C432 N434 1.350 . S
C432 H458 0.931 . S
N433 Co429 2.148 . S
N433 C430 1.301 . S
N433 C431 1.317 . S
N434 C430 1.328 . S
N434 C432 1.350 . S
H435 C430 0.930 . S
H436 C431 0.930 . S
C437 O438 1.224 . S
C437 O456 1.247 . S
O438 C437 1.224 . S
N439 Co429 2.128 . S
N439 C440 1.355 . S
N439 C442 1.311 . S
C440 N439 1.355 . S
C440 C441 1.363 . S
C440 H452 0.929 . S
C441 C440 1.363 . S
C441 N443 1.375 . S
C441 H459 0.931 . S
C442 N439 1.311 . S
C442 N443 1.347 . S
C442 H453 0.929 . S
N443 C441 1.375 . S
N443 C442 1.347 . S
C444 C447 1.365 . S
C444 N449 1.328 . S
C444 H450 0.929 . S
C445 C446 1.362 . S
C445 C448 1.378 . S
C445 H460 0.929 . S
C446 C445 1.362 . S
C446 C447 1.366 . S
C447 C444 1.365 . S
C447 C446 1.366 . S
C447 H461 0.930 . S
C448 C445 1.378 . S
C448 N449 1.315 . S
C448 H451 0.930 . S
N449 Co429 2.194 . S
N449 C444 1.328 . S
N449 C448 1.315 . S
H450 C444 0.929 . S
H451 C448 0.930 . S
H452 C440 0.929 . S
H453 C442 0.929 . S
O454 Co429 2.351 . S
O454 C457 1.244 . S
O455 Co429 2.155 . S
O455 C457 1.240 . S
O456 Co429 2.096 . S
O456 C437 1.247 . S
C457 O454 1.244 . S
C457 O455 1.240 . S
H458 C432 0.931 . S
H459 C441 0.931 . S
H460 C445 0.929 . S
H461 C447 0.930 . S
Co462 N466 2.148 . S
Co462 N472 2.128 . S
Co462 N482 2.194 . S
Co462 O487 2.351 . S
Co462 O488 2.155 . S
Co462 O489 2.096 . S
C463 N466 1.301 . S
C463 N467 1.328 . S
C463 H468 0.930 . S
C464 C465 1.333 . S
C464 N466 1.317 . S
C464 H469 0.930 . S
C465 C464 1.333 . S
C465 N467 1.350 . S
C465 H491 0.931 . S
N466 Co462 2.148 . S
N466 C463 1.301 . S
N466 C464 1.317 . S
N467 C463 1.328 . S
N467 C465 1.350 . S
H468 C463 0.930 . S
H469 C464 0.930 . S
C470 O471 1.224 . S
C470 O489 1.247 . S
O471 C470 1.224 . S
N472 Co462 2.128 . S
N472 C473 1.355 . S
N472 C475 1.311 . S
C473 N472 1.355 . S
C473 C474 1.363 . S
C473 H485 0.929 . S
C474 C473 1.363 . S
C474 N476 1.375 . S
C474 H492 0.931 . S
C475 N472 1.311 . S
C475 N476 1.347 . S
C475 H486 0.929 . S
N476 C474 1.375 . S
N476 C475 1.347 . S
C477 C480 1.365 . S
C477 N482 1.328 . S
C477 H483 0.929 . S
C478 C479 1.362 . S
C478 C481 1.378 . S
C478 H493 0.929 . S
C479 C478 1.362 . S
C479 C480 1.366 . S
C480 C477 1.365 . S
C480 C479 1.366 . S
C480 H494 0.930 . S
C481 C478 1.378 . S
C481 N482 1.315 . S
C481 H484 0.930 . S
N482 Co462 2.194 . S
N482 C477 1.328 . S
N482 C481 1.315 . S
H483 C477 0.929 . S
H484 C481 0.930 . S
H485 C473 0.929 . S
H486 C475 0.929 . S
O487 Co462 2.351 . S
O487 C490 1.244 . S
O488 Co462 2.155 . S
O488 C490 1.240 . S
O489 Co462 2.096 . S
O489 C470 1.247 . S
C490 O487 1.244 . S
C490 O488 1.240 . S
H491 C465 0.931 . S
H492 C474 0.931 . S
H493 C478 0.929 . S
H494 C480 0.930 . S
Co495 N499 2.148 . S
Co495 N505 2.128 . S
Co495 N515 2.194 . S
Co495 O520 2.351 . S
Co495 O521 2.155 . S
Co495 O522 2.096 . S
C496 N499 1.301 . S
C496 N500 1.328 . S
C496 H501 0.930 . S
C497 C498 1.333 . S
C497 N499 1.317 . S
C497 H502 0.930 . S
C498 C497 1.333 . S
C498 N500 1.350 . S
C498 H524 0.931 . S
N499 Co495 2.148 . S
N499 C496 1.301 . S
N499 C497 1.317 . S
N500 C496 1.328 . S
N500 C498 1.350 . S
H501 C496 0.930 . S
H502 C497 0.930 . S
C503 O504 1.224 . S
C503 O522 1.247 . S
O504 C503 1.224 . S
N505 Co495 2.128 . S
N505 C506 1.355 . S
N505 C508 1.311 . S
C506 N505 1.355 . S
C506 C507 1.363 . S
C506 H518 0.929 . S
C507 C506 1.363 . S
C507 N509 1.375 . S
C507 H525 0.931 . S
C508 N505 1.311 . S
C508 N509 1.347 . S
C508 H519 0.929 . S
N509 C507 1.375 . S
N509 C508 1.347 . S
C510 C513 1.365 . S
C510 N515 1.328 . S
C510 H516 0.929 . S
C511 C512 1.362 . S
C511 C514 1.378 . S
C511 H526 0.929 . S
C512 C511 1.362 . S
C512 C513 1.366 . S
C513 C510 1.365 . S
C513 C512 1.366 . S
C513 H527 0.930 . S
C514 C511 1.378 . S
C514 N515 1.315 . S
C514 H517 0.930 . S
N515 Co495 2.194 . S
N515 C510 1.328 . S
N515 C514 1.315 . S
H516 C510 0.929 . S
H517 C514 0.930 . S
H518 C506 0.929 . S
H519 C508 0.929 . S
O520 Co495 2.351 . S
O520 C523 1.244 . S
O521 Co495 2.155 . S
O521 C523 1.240 . S
O522 Co495 2.096 . S
O522 C503 1.247 . S
C523 O520 1.244 . S
C523 O521 1.240 . S
H524 C498 0.931 . S
H525 C507 0.931 . S
H526 C511 0.929 . S
H527 C513 0.930 . S
C528 C529 1.369 . S
C528 C530 1.419 . S
C528 H532 0.930 . S
C529 C528 1.369 . S
C529 C538 1.429 . S
C530 C528 1.419 . S
C530 C531 1.363 . S
C530 H533 0.929 . S
C531 C530 1.363 . S
C531 C537 1.428 . S
H532 C528 0.930 . S
H533 C530 0.929 . S
S534 N535 1.613 . S
S534 N536 1.610 . S
N535 S534 1.613 . S
N535 C538 1.350 . S
N536 S534 1.610 . S
N536 C537 1.351 . S
C537 C531 1.428 . S
C537 N536 1.351 . S
C537 C538 1.434 . S
C538 C529 1.429 . S
C538 N535 1.350 . S
C538 C537 1.434 . S
C539 C540 1.369 . S
C539 C541 1.419 . S
C539 H543 0.930 . S
C540 C539 1.369 . S
C540 C549 1.429 1_565 S
C541 C539 1.419 . S
C541 C542 1.363 . S
C541 H544 0.929 . S
C542 C541 1.363 . S
C542 C548 1.428 1_565 S
H543 C539 0.930 . S
H544 C541 0.929 . S
S545 N546 1.613 . S
S545 N547 1.610 . S
N546 S545 1.613 . S
N546 C549 1.350 . S
N547 S545 1.610 . S
N547 C548 1.351 . S
C548 C542 1.428 1_545 S
C548 N547 1.351 . S
C548 C549 1.434 . S
C549 C540 1.429 1_545 S
C549 N546 1.350 . S
C549 C548 1.434 . S
C550 C551 1.369 . S
C550 C552 1.419 . S
C550 H554 0.930 . S
C551 C550 1.369 . S
C551 C560 1.429 1_565 S
C552 C550 1.419 . S
C552 C553 1.363 . S
C552 H555 0.929 . S
C553 C552 1.363 . S
C553 C559 1.428 1_565 S
H554 C550 0.930 . S
H555 C552 0.929 . S
S556 N557 1.613 . S
S556 N558 1.610 . S
N557 S556 1.613 . S
N557 C560 1.350 . S
N558 S556 1.610 . S
N558 C559 1.351 . S
C559 C553 1.428 1_545 S
C559 N558 1.351 . S
C559 C560 1.434 . S
C560 C551 1.429 1_545 S
C560 N557 1.350 . S
C560 C559 1.434 . S
C561 C562 1.369 . S
C561 C563 1.419 . S
C561 H565 0.930 1_545 S
C562 C561 1.369 . S
C562 C571 1.429 . S
C563 C561 1.419 . S
C563 C564 1.363 . S
C563 H566 0.929 1_545 S
C564 C563 1.363 . S
C564 C570 1.428 . S
H565 C561 0.930 1_565 S
H566 C563 0.929 1_565 S
S567 N568 1.613 . S
S567 N569 1.610 . S
N568 S567 1.613 . S
N568 C571 1.350 . S
N569 S567 1.610 . S
N569 C570 1.351 . S
C570 C564 1.428 . S
C570 N569 1.351 . S
C570 C571 1.434 . S
C571 C562 1.429 . S
C571 N568 1.350 . S
C571 C570 1.434 . S
C572 C573 1.369 . S
C572 C574 1.419 . S
C572 H576 0.930 . S
C573 C572 1.369 . S
C573 C582 1.429 . S
C574 C572 1.419 . S
C574 C575 1.363 . S
C574 H577 0.929 . S
C575 C574 1.363 . S
C575 C581 1.428 . S
H576 C572 0.930 . S
H577 C574 0.929 . S
S578 N579 1.613 . S
S578 N580 1.610 . S
N579 S578 1.613 . S
N579 C582 1.350 . S
N580 S578 1.610 . S
N580 C581 1.351 . S
C581 C575 1.428 . S
C581 N580 1.351 . S
C581 C582 1.434 . S
C582 C573 1.429 . S
C582 N579 1.350 . S
C582 C581 1.434 . S
C583 C584 1.369 . S
C583 C585 1.419 . S
C583 H587 0.930 . S
C584 C583 1.369 . S
C584 C593 1.429 . S
C585 C583 1.419 . S
C585 C586 1.363 . S
C585 H588 0.929 . S
C586 C585 1.363 . S
C586 C592 1.428 . S
H587 C583 0.930 . S
H588 C585 0.929 . S
S589 N590 1.613 . S
S589 N591 1.610 . S
N590 S589 1.613 . S
N590 C593 1.350 . S
N591 S589 1.610 . S
N591 C592 1.351 . S
C592 C586 1.428 . S
C592 N591 1.351 . S
C592 C593 1.434 . S
C593 C584 1.429 . S
C593 N590 1.350 . S
C593 C592 1.434 . S
C594 C595 1.369 . S
C594 C596 1.419 . S
C594 H598 0.930 . S
C595 C594 1.369 . S
C595 C604 1.429 . S
C596 C594 1.419 . S
C596 C597 1.363 . S
C596 H599 0.929 . S
C597 C596 1.363 . S
C597 C603 1.428 . S
H598 C594 0.930 . S
H599 C596 0.929 . S
S600 N601 1.613 . S
S600 N602 1.610 . S
N601 S600 1.613 . S
N601 C604 1.350 . S
N602 S600 1.610 . S
N602 C603 1.351 . S
C603 C597 1.428 . S
C603 N602 1.351 . S
C603 C604 1.434 . S
C604 C595 1.429 . S
C604 N601 1.350 . S
C604 C603 1.434 . S
C605 C606 1.369 . S
C605 C607 1.419 . S
C605 H609 0.930 . S
C606 C605 1.369 . S
C606 C615 1.429 . S
C607 C605 1.419 . S
C607 C608 1.363 . S
C607 H610 0.929 . S
C608 C607 1.363 . S
C608 C614 1.428 . S
H609 C605 0.930 . S
H610 C607 0.929 . S
S611 N612 1.613 . S
S611 N613 1.610 . S
N612 S611 1.613 . S
N612 C615 1.350 . S
N613 S611 1.610 . S
N613 C614 1.351 . S
C614 C608 1.428 . S
C614 N613 1.351 . S
C614 C615 1.434 . S
C615 C606 1.429 . S
C615 N612 1.350 . S
C615 C614 1.434 . S
C616 C617 1.369 . S
C616 C618 1.419 . S
C616 H620 0.930 . S
C617 C616 1.369 . S
C617 C626 1.429 . S
C618 C616 1.419 . S
C618 C619 1.363 . S
C618 H621 0.929 . S
C619 C618 1.363 . S
C619 C625 1.428 . S
H620 C616 0.930 . S
H621 C618 0.929 . S
S622 N623 1.613 . S
S622 N624 1.610 . S
N623 S622 1.613 . S
N623 C626 1.350 . S
N624 S622 1.610 . S
N624 C625 1.351 . S
C625 C619 1.428 . S
C625 N624 1.351 . S
C625 C626 1.434 . S
C626 C617 1.429 . S
C626 N623 1.350 . S
C626 C625 1.434 . S
C627 C628 1.369 . S
C627 C629 1.419 . S
C627 H631 0.930 . S
C628 C627 1.369 . S
C628 C637 1.429 . S
C629 C627 1.419 . S
C629 C630 1.363 . S
C629 H632 0.929 . S
C630 C629 1.363 . S
C630 C636 1.428 . S
H631 C627 0.930 . S
H632 C629 0.929 . S
S633 N634 1.613 . S
S633 N635 1.610 . S
N634 S633 1.613 . S
N634 C637 1.350 . S
N635 S633 1.610 . S
N635 C636 1.351 . S
C636 C630 1.428 . S
C636 N635 1.351 . S
C636 C637 1.434 . S
C637 C628 1.429 . S
C637 N634 1.350 . S
C637 C636 1.434 . S
C638 C639 1.369 . S
C638 C640 1.419 . S
C638 H642 0.930 . S
C639 C638 1.369 . S
C639 C648 1.429 . S
C640 C638 1.419 . S
C640 C641 1.363 . S
C640 H643 0.929 . S
C641 C640 1.363 . S
C641 C647 1.428 . S
H642 C638 0.930 . S
H643 C640 0.929 . S
S644 N645 1.613 . S
S644 N646 1.610 . S
N645 S644 1.613 . S
N645 C648 1.350 . S
N646 S644 1.610 . S
N646 C647 1.351 . S
C647 C641 1.428 . S
C647 N646 1.351 . S
C647 C648 1.434 . S
C648 C639 1.429 . S
C648 N645 1.350 . S
C648 C647 1.434 . S
C649 C650 1.369 . S
C649 C651 1.419 . S
C649 H653 0.930 . S
C650 C649 1.369 . S
C650 C659 1.429 . S
C651 C649 1.419 . S
C651 C652 1.363 . S
C651 H654 0.929 . S
C652 C651 1.363 . S
C652 C658 1.428 . S
H653 C649 0.930 . S
H654 C651 0.929 . S
S655 N656 1.613 . S
S655 N657 1.610 . S
N656 S655 1.613 . S
N656 C659 1.350 . S
N657 S655 1.610 . S
N657 C658 1.351 . S
C658 C652 1.428 . S
C658 N657 1.351 . S
C658 C659 1.434 . S
C659 C650 1.429 . S
C659 N656 1.350 . S
C659 C658 1.434 . S
C660 C661 1.369 . S
C660 C662 1.419 . S
C660 H664 0.930 . S
C661 C660 1.369 . S
C661 C670 1.429 . S
C662 C660 1.419 . S
C662 C663 1.363 . S
C662 H665 0.929 . S
C663 C662 1.363 . S
C663 C669 1.428 . S
H664 C660 0.930 . S
H665 C662 0.929 . S
S666 N667 1.613 . S
S666 N668 1.610 . S
N667 S666 1.613 . S
N667 C670 1.350 . S
N668 S666 1.610 . S
N668 C669 1.351 . S
C669 C663 1.428 . S
C669 N668 1.351 . S
C669 C670 1.434 . S
C670 C661 1.429 . S
C670 N667 1.350 . S
C670 C669 1.434 . S
C671 C672 1.369 . S
C671 C673 1.419 . S
C671 H675 0.930 . S
C672 C671 1.369 . S
C672 C681 1.429 . S
C673 C671 1.419 . S
C673 C674 1.363 . S
C673 H676 0.929 . S
C674 C673 1.363 . S
C674 C680 1.428 . S
H675 C671 0.930 . S
H676 C673 0.929 . S
S677 N678 1.613 . S
S677 N679 1.610 . S
N678 S677 1.613 . S
N678 C681 1.350 . S
N679 S677 1.610 . S
N679 C680 1.351 . S
C680 C674 1.428 . S
C680 N679 1.351 . S
C680 C681 1.434 . S
C681 C672 1.429 . S
C681 N678 1.350 . S
C681 C680 1.434 . S
C682 C683 1.369 . S
C682 C684 1.419 . S
C682 H686 0.930 . S
C683 C682 1.369 . S
C683 C692 1.429 . S
C684 C682 1.419 . S
C684 C685 1.363 . S
C684 H687 0.929 . S
C685 C684 1.363 . S
C685 C691 1.428 . S
H686 C682 0.930 . S
H687 C684 0.929 . S
S688 N689 1.613 . S
S688 N690 1.610 . S
N689 S688 1.613 . S
N689 C692 1.350 . S
N690 S688 1.610 . S
N690 C691 1.351 . S
C691 C685 1.428 . S
C691 N690 1.351 . S
C691 C692 1.434 . S
C692 C683 1.429 . S
C692 N689 1.350 . S
C692 C691 1.434 . S
C693 C694 1.369 . S
C693 C695 1.419 . S
C693 H697 0.930 . S
C694 C693 1.369 . S
C694 C703 1.429 . S
C695 C693 1.419 . S
C695 C696 1.363 . S
C695 H698 0.929 . S
C696 C695 1.363 . S
C696 C702 1.428 . S
H697 C693 0.930 . S
H698 C695 0.929 . S
S699 N700 1.613 . S
S699 N701 1.610 . S
N700 S699 1.613 . S
N700 C703 1.350 . S
N701 S699 1.610 . S
N701 C702 1.351 . S
C702 C696 1.428 . S
C702 N701 1.351 . S
C702 C703 1.434 . S
C703 C694 1.429 . S
C703 N700 1.350 . S
C703 C702 1.434 . S
C704 C705 1.369 . S
C704 C706 1.419 . S
C704 H708 0.930 . S
C705 C704 1.369 . S
C705 C714 1.429 . S
C706 C704 1.419 . S
C706 C707 1.363 . S
C706 H709 0.929 . S
C707 C706 1.363 . S
C707 C713 1.428 . S
H708 C704 0.930 . S
H709 C706 0.929 . S
S710 N711 1.613 . S
S710 N712 1.610 . S
N711 S710 1.613 . S
N711 C714 1.350 . S
N712 S710 1.610 . S
N712 C713 1.351 . S
C713 C707 1.428 . S
C713 N712 1.351 . S
C713 C714 1.434 . S
C714 C705 1.429 . S
C714 N711 1.350 . S
C714 C713 1.434 . S
C715 C716 1.369 . S
C715 C717 1.419 . S
C715 H719 0.930 . S
C716 C715 1.369 . S
C716 C725 1.429 . S
C717 C715 1.419 . S
C717 C718 1.363 . S
C717 H720 0.929 . S
C718 C717 1.363 . S
C718 C724 1.428 . S
H719 C715 0.930 . S
H720 C717 0.929 . S
S721 N722 1.613 . S
S721 N723 1.610 . S
N722 S721 1.613 . S
N722 C725 1.350 . S
N723 S721 1.610 . S
N723 C724 1.351 . S
C724 C718 1.428 . S
C724 N723 1.351 . S
C724 C725 1.434 . S
C725 C716 1.429 . S
C725 N722 1.350 . S
C725 C724 1.434 . S
C726 C727 1.369 . S
C726 C728 1.419 . S
C726 H730 0.930 . S
C727 C726 1.369 . S
C727 C736 1.429 . S
C728 C726 1.419 . S
C728 C729 1.363 . S
C728 H731 0.929 . S
C729 C728 1.363 . S
C729 C735 1.428 . S
H730 C726 0.930 . S
H731 C728 0.929 . S
S732 N733 1.613 . S
S732 N734 1.610 . S
N733 S732 1.613 . S
N733 C736 1.350 . S
N734 S732 1.610 . S
N734 C735 1.351 . S
C735 C729 1.428 . S
C735 N734 1.351 . S
C735 C736 1.434 . S
C736 C727 1.429 . S
C736 N733 1.350 . S
C736 C735 1.434 . S
C737 C738 1.369 . S
C737 C739 1.419 . S
C737 H741 0.930 . S
C738 C737 1.369 . S
C738 C747 1.429 . S
C739 C737 1.419 . S
C739 C740 1.363 . S
C739 H742 0.929 . S
C740 C739 1.363 . S
C740 C746 1.428 . S
H741 C737 0.930 . S
H742 C739 0.929 . S
S743 N744 1.613 . S
S743 N745 1.610 . S
N744 S743 1.613 . S
N744 C747 1.350 . S
N745 S743 1.610 . S
N745 C746 1.351 . S
C746 C740 1.428 . S
C746 N745 1.351 . S
C746 C747 1.434 . S
C747 C738 1.429 . S
C747 N744 1.350 . S
C747 C746 1.434 . S
C748 C749 1.369 . S
C748 C750 1.419 . S
C748 H752 0.930 . S
C749 C748 1.369 . S
C749 C758 1.429 . S
C750 C748 1.419 . S
C750 C751 1.363 . S
C750 H753 0.929 . S
C751 C750 1.363 . S
C751 C757 1.428 . S
H752 C748 0.930 . S
H753 C750 0.929 . S
S754 N755 1.613 . S
S754 N756 1.610 . S
N755 S754 1.613 . S
N755 C758 1.350 . S
N756 S754 1.610 . S
N756 C757 1.351 . S
C757 C751 1.428 . S
C757 N756 1.351 . S
C757 C758 1.434 . S
C758 C749 1.429 . S
C758 N755 1.350 . S
C758 C757 1.434 . S
C759 C760 1.369 . S
C759 C761 1.419 . S
C759 H763 0.930 . S
C760 C759 1.369 . S
C760 C769 1.429 . S
C761 C759 1.419 . S
C761 C762 1.363 . S
C761 H764 0.929 . S
C762 C761 1.363 . S
C762 C768 1.428 . S
H763 C759 0.930 . S
H764 C761 0.929 . S
S765 N766 1.613 . S
S765 N767 1.610 . S
N766 S765 1.613 . S
N766 C769 1.350 . S
N767 S765 1.610 . S
N767 C768 1.351 . S
C768 C762 1.428 . S
C768 N767 1.351 . S
C768 C769 1.434 . S
C769 C760 1.429 . S
C769 N766 1.350 . S
C769 C768 1.434 . S
C770 C771 1.369 . S
C770 C772 1.419 . S
C770 H774 0.930 . S
C771 C770 1.369 . S
C771 C780 1.429 . S
C772 C770 1.419 . S
C772 C773 1.363 . S
C772 H775 0.929 . S
C773 C772 1.363 . S
C773 C779 1.428 . S
H774 C770 0.930 . S
H775 C772 0.929 . S
S776 N777 1.613 . S
S776 N778 1.610 . S
N777 S776 1.613 . S
N777 C780 1.350 . S
N778 S776 1.610 . S
N778 C779 1.351 . S
C779 C773 1.428 . S
C779 N778 1.351 . S
C779 C780 1.434 . S
C780 C771 1.429 . S
C780 N777 1.350 . S
C780 C779 1.434 . S
C781 C782 1.369 . S
C781 C783 1.419 . S
C781 H785 0.930 . S
C782 C781 1.369 . S
C782 C791 1.429 . S
C783 C781 1.419 . S
C783 C784 1.363 . S
C783 H786 0.929 . S
C784 C783 1.363 . S
C784 C790 1.428 . S
H785 C781 0.930 . S
H786 C783 0.929 . S
S787 N788 1.613 . S
S787 N789 1.610 . S
N788 S787 1.613 . S
N788 C791 1.350 . S
N789 S787 1.610 . S
N789 C790 1.351 . S
C790 C784 1.428 . S
C790 N789 1.351 . S
C790 C791 1.434 . S
C791 C782 1.429 . S
C791 N788 1.350 . S
C791 C790 1.434 . S
C792 C793 1.369 1_565 S
C792 C794 1.419 1_655 S
C792 H796 0.930 . S
C793 C792 1.369 1_545 S
C793 C802 1.429 . S
C794 C792 1.419 1_455 S
C794 C795 1.363 1_565 S
C794 H797 0.929 . S
C795 C794 1.363 1_545 S
C795 C801 1.428 . S
H796 C792 0.930 . S
H797 C794 0.929 . S
S798 N799 1.613 . S
S798 N800 1.610 1_655 S
N799 S798 1.613 . S
N799 C802 1.350 . S
N800 S798 1.610 1_455 S
N800 C801 1.351 . S
C801 C795 1.428 . S
C801 N800 1.351 . S
C801 C802 1.434 1_455 S
C802 C793 1.429 . S
C802 N799 1.350 . S
C802 C801 1.434 1_655 S
C803 C804 1.369 . S
C803 C805 1.419 1_455 S
C803 H807 0.930 . S
C804 C803 1.369 . S
C804 C813 1.429 1_545 S
C805 C803 1.419 1_655 S
C805 C806 1.363 . S
C805 H808 0.929 . S
C806 C805 1.363 . S
C806 C812 1.428 1_545 S
H807 C803 0.930 . S
H808 C805 0.929 . S
S809 N810 1.613 1_655 S
S809 N811 1.610 . S
N810 S809 1.613 1_455 S
N810 C813 1.350 . S
N811 S809 1.610 . S
N811 C812 1.351 . S
C812 C806 1.428 1_565 S
C812 N811 1.351 . S
C812 C813 1.434 1_655 S
C813 C804 1.429 1_565 S
C813 N810 1.350 . S
C813 C812 1.434 1_455 S
C814 C815 1.369 . S
C814 C816 1.419 1_655 S
C814 H818 0.930 . S
C815 C814 1.369 . S
C815 C824 1.429 . S
C816 C814 1.419 1_455 S
C816 C817 1.363 . S
C816 H819 0.929 . S
C817 C816 1.363 . S
C817 C823 1.428 . S
H818 C814 0.930 . S
H819 C816 0.929 . S
S820 N821 1.613 1_455 S
S820 N822 1.610 . S
N821 S820 1.613 1_655 S
N821 C824 1.350 . S
N822 S820 1.610 . S
N822 C823 1.351 . S
C823 C817 1.428 . S
C823 N822 1.351 . S
C823 C824 1.434 1_455 S
C824 C815 1.429 . S
C824 N821 1.350 . S
C824 C823 1.434 1_655 S
C825 C826 1.369 . S
C825 C827 1.419 1_655 S
C825 H829 0.930 . S
C826 C825 1.369 . S
C826 C835 1.429 . S
C827 C825 1.419 1_455 S
C827 C828 1.363 . S
C827 H830 0.929 . S
C828 C827 1.363 . S
C828 C834 1.428 . S
H829 C825 0.930 . S
H830 C827 0.929 . S
S831 N832 1.613 1_455 S
S831 N833 1.610 . S
N832 S831 1.613 1_655 S
N832 C835 1.350 . S
N833 S831 1.610 . S
N833 C834 1.351 . S
C834 C828 1.428 . S
C834 N833 1.351 . S
C834 C835 1.434 1_455 S
C835 C826 1.429 . S
C835 N832 1.350 . S
C835 C834 1.434 1_655 S
C836 C837 1.369 1_565 S
C836 C838 1.419 1_565 S
C836 H840 0.930 . S
C837 C836 1.369 1_545 S
C837 C846 1.429 . S
C838 C836 1.419 1_545 S
C838 C839 1.363 . S
C838 H841 0.929 1_545 S
C839 C838 1.363 . S
C839 C845 1.428 . S
H840 C836 0.930 . S
H841 C838 0.929 1_565 S
S842 N843 1.613 . S
S842 N844 1.610 . S
N843 S842 1.613 . S
N843 C846 1.350 . S
N844 S842 1.610 . S
N844 C845 1.351 . S
C845 C839 1.428 . S
C845 N844 1.351 . S
C845 C846 1.434 . S
C846 C837 1.429 . S
C846 N843 1.350 . S
C846 C845 1.434 . S
C847 C848 1.369 . S
C847 C849 1.419 . S
C847 H851 0.930 . S
C848 C847 1.369 . S
C848 C857 1.429 1_545 S
C849 C847 1.419 . S
C849 C850 1.363 . S
C849 H852 0.929 . S
C850 C849 1.363 . S
C850 C856 1.428 1_545 S
H851 C847 0.930 . S
H852 C849 0.929 . S
S853 N854 1.613 . S
S853 N855 1.610 . S
N854 S853 1.613 . S
N854 C857 1.350 . S
N855 S853 1.610 . S
N855 C856 1.351 . S
C856 C850 1.428 1_565 S
C856 N855 1.351 . S
C856 C857 1.434 . S
C857 C848 1.429 1_565 S
C857 N854 1.350 . S
C857 C856 1.434 . S
C858 C859 1.369 . S
C858 C860 1.419 . S
C858 H862 0.930 . S
C859 C858 1.369 . S
C859 C868 1.429 . S
C860 C858 1.419 . S
C860 C861 1.363 . S
C860 H863 0.929 . S
C861 C860 1.363 . S
C861 C867 1.428 . S
H862 C858 0.930 . S
H863 C860 0.929 . S
S864 N865 1.613 . S
S864 N866 1.610 . S
N865 S864 1.613 . S
N865 C868 1.350 . S
N866 S864 1.610 . S
N866 C867 1.351 . S
C867 C861 1.428 . S
C867 N866 1.351 . S
C867 C868 1.434 . S
C868 C859 1.429 . S
C868 N865 1.350 . S
C868 C867 1.434 . S
C869 C870 1.369 . S
C869 C871 1.419 . S
C869 H873 0.930 . S
C870 C869 1.369 . S
C870 C879 1.429 . S
C871 C869 1.419 . S
C871 C872 1.363 . S
C871 H874 0.929 . S
C872 C871 1.363 . S
C872 C878 1.428 . S
H873 C869 0.930 . S
H874 C871 0.929 . S
S875 N876 1.613 . S
S875 N877 1.610 . S
N876 S875 1.613 . S
N876 C879 1.350 . S
N877 S875 1.610 . S
N877 C878 1.351 . S
C878 C872 1.428 . S
C878 N877 1.351 . S
C878 C879 1.434 . S
C879 C870 1.429 . S
C879 N876 1.350 . S
C879 C878 1.434 . S
C880 C881 1.369 . S
C880 C882 1.419 1_556 S
C880 H884 0.930 1_545 S
C881 C880 1.369 . S
C881 C890 1.429 . S
C882 C880 1.419 1_554 S
C882 C883 1.363 . S
C882 H885 0.929 1_545 S
C883 C882 1.363 . S
C883 C889 1.428 . S
H884 C880 0.930 1_565 S
H885 C882 0.929 1_565 S
S886 N887 1.613 1_554 S
S886 N888 1.610 . S
N887 S886 1.613 1_556 S
N887 C890 1.350 . S
N888 S886 1.610 . S
N888 C889 1.351 . S
C889 C883 1.428 . S
C889 N888 1.351 . S
C889 C890 1.434 1_554 S
C890 C881 1.429 . S
C890 N887 1.350 . S
C890 C889 1.434 1_556 S
C891 C892 1.369 . S
C891 C893 1.419 1_556 S
C891 H895 0.930 . S
C892 C891 1.369 . S
C892 C901 1.429 . S
C893 C891 1.419 1_554 S
C893 C894 1.363 . S
C893 H896 0.929 . S
C894 C893 1.363 . S
C894 C900 1.428 . S
H895 C891 0.930 . S
H896 C893 0.929 . S
S897 N898 1.613 . S
S897 N899 1.610 1_556 S
N898 S897 1.613 . S
N898 C901 1.350 . S
N899 S897 1.610 1_554 S
N899 C900 1.351 . S
C900 C894 1.428 . S
C900 N899 1.351 . S
C900 C901 1.434 1_554 S
C901 C892 1.429 . S
C901 N898 1.350 . S
C901 C900 1.434 1_556 S
C902 C903 1.369 . S
C902 C904 1.419 . S
C902 H906 0.930 . S
C903 C902 1.369 . S
C903 C912 1.429 . S
C904 C902 1.419 . S
C904 C905 1.363 . S
C904 H907 0.929 . S
C905 C904 1.363 . S
C905 C911 1.428 . S
H906 C902 0.930 . S
H907 C904 0.929 . S
S908 N909 1.613 . S
S908 N910 1.610 . S
N909 S908 1.613 . S
N909 C912 1.350 . S
N910 S908 1.610 . S
N910 C911 1.351 . S
C911 C905 1.428 . S
C911 N910 1.351 . S
C911 C912 1.434 . S
C912 C903 1.429 . S
C912 N909 1.350 . S
C912 C911 1.434 . S
C913 C914 1.369 . S
C913 C915 1.419 . S
C913 H917 0.930 . S
C914 C913 1.369 . S
C914 C923 1.429 . S
C915 C913 1.419 . S
C915 C916 1.363 . S
C915 H918 0.929 . S
C916 C915 1.363 . S
C916 C922 1.428 . S
H917 C913 0.930 . S
H918 C915 0.929 . S
S919 N920 1.613 . S
S919 N921 1.610 . S
N920 S919 1.613 . S
N920 C923 1.350 . S
N921 S919 1.610 . S
N921 C922 1.351 . S
C922 C916 1.428 . S
C922 N921 1.351 . S
C922 C923 1.434 . S
C923 C914 1.429 . S
C923 N920 1.350 . S
C923 C922 1.434 . S
C924 C925 1.369 1_565 S
C924 C926 1.419 1_565 S
C924 H928 0.930 . S
C925 C924 1.369 1_545 S
C925 C934 1.429 . S
C926 C924 1.419 1_545 S
C926 C927 1.363 . S
C926 H929 0.929 1_545 S
C927 C926 1.363 . S
C927 C933 1.428 . S
H928 C924 0.930 . S
H929 C926 0.929 1_565 S
S930 N931 1.613 . S
S930 N932 1.610 . S
N931 S930 1.613 . S
N931 C934 1.350 . S
N932 S930 1.610 . S
N932 C933 1.351 . S
C933 C927 1.428 . S
C933 N932 1.351 . S
C933 C934 1.434 . S
C934 C925 1.429 . S
C934 N931 1.350 . S
C934 C933 1.434 . S
C935 C936 1.369 . S
C935 C937 1.419 . S
C935 H939 0.930 . S
C936 C935 1.369 . S
C936 C945 1.429 1_545 S
C937 C935 1.419 . S
C937 C938 1.363 . S
C937 H940 0.929 . S
C938 C937 1.363 . S
C938 C944 1.428 1_545 S
H939 C935 0.930 . S
H940 C937 0.929 . S
S941 N942 1.613 . S
S941 N943 1.610 . S
N942 S941 1.613 . S
N942 C945 1.350 . S
N943 S941 1.610 . S
N943 C944 1.351 . S
C944 C938 1.428 1_565 S
C944 N943 1.351 . S
C944 C945 1.434 . S
C945 C936 1.429 1_565 S
C945 N942 1.350 . S
C945 C944 1.434 . S
C946 C947 1.369 . S
C946 C948 1.419 1_554 S
C946 H950 0.930 . S
C947 C946 1.369 . S
C947 C956 1.429 . S
C948 C946 1.419 1_556 S
C948 C949 1.363 . S
C948 H951 0.929 . S
C949 C948 1.363 . S
C949 C955 1.428 . S
H950 C946 0.930 . S
H951 C948 0.929 . S
S952 N953 1.613 1_556 S
S952 N954 1.610 . S
N953 S952 1.613 1_554 S
N953 C956 1.350 . S
N954 S952 1.610 . S
N954 C955 1.351 . S
C955 C949 1.428 . S
C955 N954 1.351 . S
C955 C956 1.434 1_556 S
C956 C947 1.429 . S
C956 N953 1.350 . S
C956 C955 1.434 1_554 S
C957 C958 1.369 . S
C957 C959 1.419 1_556 S
C957 H961 0.930 . S
C958 C957 1.369 . S
C958 C967 1.429 . S
C959 C957 1.419 1_554 S
C959 C960 1.363 . S
C959 H962 0.929 . S
C960 C959 1.363 . S
C960 C966 1.428 . S
H961 C957 0.930 . S
H962 C959 0.929 . S
S963 N964 1.613 1_554 S
S963 N965 1.610 . S
N964 S963 1.613 1_556 S
N964 C967 1.350 . S
N965 S963 1.610 . S
N965 C966 1.351 . S
C966 C960 1.428 . S
C966 N965 1.351 . S
C966 C967 1.434 1_554 S
C967 C958 1.429 . S
C967 N964 1.350 . S
C967 C966 1.434 1_556 S
C529 N14 1.649 . S
C531 N377 1.646 . S
C540 N47 1.643 1_565 S
C542 N344 1.645 1_565 S
C551 N311 1.644 1_565 S
C553 N80 1.644 1_565 S
C562 N278 1.649 . S
C564 N113 1.650 . S
C573 N146 1.651 . S
C575 N509 1.648 . S
C584 N179 1.643 . S
C586 N476 1.647 . S
C595 N443 1.651 . S
C597 N212 1.650 . S
C606 N410 1.647 . S
C608 N245 1.650 . S
C617 C8 1.142 . S
C619 C437 1.139 . S
C628 C404 1.142 . S
C630 C41 1.138 . S
C639 C74 1.141 . S
C641 C503 1.139 . S
C650 C470 1.137 . S
C652 C107 1.142 . S
C661 C127 1.590 . S
C663 C490 1.590 . S
C672 C523 1.589 . S
C674 C94 1.590 . S
C683 C424 1.589 . S
C685 C61 1.590 . S
C694 C28 1.590 . S
C696 C457 1.590 . S
C705 C140 1.143 . S
C707 C305 1.138 . S
C716 C173 1.140 . S
C718 C272 1.140 . S
C727 C206 1.140 . S
C729 C371 1.139 . S
C738 C239 1.140 . S
C740 C338 1.140 . S
C749 C259 1.592 . S
C751 C358 1.593 . S
C760 C226 1.591 . S
C762 C391 1.590 . S
C771 C193 1.589 . S
C773 C292 1.591 . S
C782 C160 1.593 . S
C784 C325 1.590 . S
C793 C50 1.502 . S
C795 C17 1.505 . S
C804 C83 1.506 . S
C806 C116 1.503 . S
C815 C182 1.506 . S
C817 C149 1.506 . S
C826 C248 1.506 . S
C828 C215 1.503 . S
C837 C314 1.502 . S
C839 C281 1.504 . S
C848 C380 1.502 . S
C850 C347 1.504 . S
C859 C413 1.507 . S
C861 C446 1.504 . S
C870 C512 1.502 . S
C872 C479 1.504 . S
C881 N71 1.510 . S
C883 N5 1.503 . S
C892 N104 1.500 . S
C894 N38 1.505 . S
C903 N137 1.503 . S
C905 N203 1.503 . S
C914 N236 1.509 . S
C916 N170 1.501 . S
C925 N269 1.500 . S
C927 N335 1.507 . S
C936 N368 1.510 . S
C938 N302 1.502 . S
C947 N401 1.505 . S
C949 N467 1.501 . S
C958 N500 1.510 . S
C960 N434 1.502 . S
