# Generated by pormake.
# Topology vmg, (6)-cn, num edge types: 1
# Building blocks:
#     Node 0, Type 0, BuildingBlock: IZENUY_clean_sbu_0, # of connection points: 6
#     Node 1, Type 0, BuildingBlock: IZENUY_clean_sbu_0, # of connection points: 6
#     Node 2, Type 0, BuildingBlock: IZENUY_clean_sbu_0, # of connection points: 6
#     Node 3, Type 0, BuildingBlock: IZENUY_clean_sbu_0, # of connection points: 6
#     Node 4, Type 0, BuildingBlock: IZENUY_clean_sbu_0, # of connection points: 6
#     Node 5, Type 0, BuildingBlock: IZENUY_clean_sbu_0, # of connection points: 6
#     Node 6, Type 0, BuildingBlock: IZENUY_clean_sbu_0, # of connection points: 6
#     Node 7, Type 0, BuildingBlock: IZENUY_clean_sbu_0, # of connection points: 6
#     Edge 8, Type (0, 0), BuildingBlock: KIFKEQ_clean_linker_1, # of connection points: 2
#     Edge 9, Type (0, 0), BuildingBlock: KIFKEQ_clean_linker_1, # of connection points: 2
#     Edge 10, Type (0, 0), BuildingBlock: KIFKEQ_clean_linker_1, # of connection points: 2
#     Edge 11, Type (0, 0), BuildingBlock: KIFKEQ_clean_linker_1, # of connection points: 2
#     Edge 12, Type (0, 0), BuildingBlock: KIFKEQ_clean_linker_1, # of connection points: 2
#     Edge 13, Type (0, 0), BuildingBlock: KIFKEQ_clean_linker_1, # of connection points: 2
#     Edge 14, Type (0, 0), BuildingBlock: KIFKEQ_clean_linker_1, # of connection points: 2
#     Edge 15, Type (0, 0), BuildingBlock: KIFKEQ_clean_linker_1, # of connection points: 2
#     Edge 16, Type (0, 0), BuildingBlock: KIFKEQ_clean_linker_1, # of connection points: 2
#     Edge 17, Type (0, 0), BuildingBlock: KIFKEQ_clean_linker_1, # of connection points: 2
#     Edge 18, Type (0, 0), BuildingBlock: KIFKEQ_clean_linker_1, # of connection points: 2
#     Edge 19, Type (0, 0), BuildingBlock: KIFKEQ_clean_linker_1, # of connection points: 2
#     Edge 20, Type (0, 0), BuildingBlock: KIFKEQ_clean_linker_1, # of connection points: 2
#     Edge 21, Type (0, 0), BuildingBlock: KIFKEQ_clean_linker_1, # of connection points: 2
#     Edge 22, Type (0, 0), BuildingBlock: KIFKEQ_clean_linker_1, # of connection points: 2
#     Edge 23, Type (0, 0), BuildingBlock: KIFKEQ_clean_linker_1, # of connection points: 2
#     Edge 24, Type (0, 0), BuildingBlock: KIFKEQ_clean_linker_1, # of connection points: 2
#     Edge 25, Type (0, 0), BuildingBlock: KIFKEQ_clean_linker_1, # of connection points: 2
#     Edge 26, Type (0, 0), BuildingBlock: KIFKEQ_clean_linker_1, # of connection points: 2
#     Edge 27, Type (0, 0), BuildingBlock: KIFKEQ_clean_linker_1, # of connection points: 2
#     Edge 28, Type (0, 0), BuildingBlock: KIFKEQ_clean_linker_1, # of connection points: 2
#     Edge 29, Type (0, 0), BuildingBlock: KIFKEQ_clean_linker_1, # of connection points: 2
#     Edge 30, Type (0, 0), BuildingBlock: KIFKEQ_clean_linker_1, # of connection points: 2
#     Edge 31, Type (0, 0), BuildingBlock: KIFKEQ_clean_linker_1, # of connection points: 2
# Relax obj value: 0.255
# Max RMSD: 0.238
# Mean RMSD: 0.238
data_MOF--net-vmg--node1-IZENUY_clean_sbu_0--edge1-KIFKEQ_clean_linker_1
_symmetry_space_group_name_H-M    P1
_symmetry_Int_Tables_number       1
_symmetry_cell_setting            triclinic
loop_
_symmetry_equiv_pos_as_xyz
'x, y, z'
_cell_length_a     28.531018
_cell_length_b     44.97114
_cell_length_c     26.762735
_cell_angle_alpha  89.986826
_cell_angle_beta   100.46527
_cell_angle_gamma 89.954345
loop_
_atom_site_label
_atom_site_type_symbol
_atom_site_fract_x
_atom_site_fract_y
_atom_site_fract_z
_atom_type_partial_charge
Fe0 Fe 0.24741 0.39165 0.19818 0.0
Fe1 Fe 0.17729 0.4052 0.09972 0.0
O2 O 0.22299 0.41673 0.1493 0.0
Fe3 Fe 0.24355 0.4538 0.15048 0.0
O4 O 0.22365 0.46039 0.20954 0.0
O5 O 0.25796 0.4207 0.24841 0.0
O6 O 0.18995 0.38598 0.21618 0.0
C7 C 0.15223 0.37849 0.18672 0.0
C8 C 0.32804 0.4208 0.1867 0.0
O9 O 0.14987 0.37901 0.13894 0.0
C10 C 0.23487 0.44352 0.0501 0.0
O11 O 0.2405 0.35837 0.15613 0.0
O12 O 0.21493 0.37708 0.08008 0.0
O13 O 0.30454 0.4449 0.18305 0.0
O14 O 0.3068 0.39609 0.18386 0.0
C15 C 0.14436 0.46016 0.11307 0.0
O16 O 0.19631 0.42969 0.0517 0.0
O17 O 0.26375 0.44917 0.09059 0.0
C18 C 0.23445 0.35636 0.10791 0.0
O19 O 0.13673 0.43279 0.11638 0.0
O20 O 0.18665 0.46975 0.11814 0.0
C21 C 0.23806 0.44597 0.24967 0.0
Fe22 Fe 0.76631 0.45303 0.36978 0.0
Fe23 Fe 0.76296 0.39112 0.32126 0.0
O24 O 0.78514 0.41562 0.3718 0.0
Fe25 Fe 0.82683 0.4029 0.4242 0.0
O26 O 0.87046 0.42903 0.41123 0.0
O27 O 0.82348 0.46787 0.40511 0.0
O28 O 0.78978 0.45935 0.31309 0.0
C29 C 0.77681 0.44583 0.27184 0.0
C30 C 0.76799 0.44282 0.46915 0.0
O31 O 0.75663 0.42051 0.27109 0.0
C32 C 0.76773 0.3554 0.41052 0.0
O33 O 0.70591 0.44511 0.33377 0.0
O34 O 0.70244 0.39627 0.33109 0.0
O35 O 0.8063 0.42809 0.47069 0.0
O36 O 0.7421 0.44881 0.42707 0.0
C37 C 0.85726 0.37613 0.34006 0.0
O38 O 0.76598 0.35755 0.36271 0.0
O39 O 0.78535 0.37596 0.43981 0.0
C40 C 0.68185 0.42119 0.32818 0.0
O41 O 0.82195 0.38479 0.30815 0.0
O42 O 0.85585 0.37602 0.38722 0.0
C43 C 0.86505 0.4567 0.41188 0.0
Fe44 Fe 0.76913 0.56995 0.86764 0.0
Fe45 Fe 0.76014 0.63229 0.82078 0.0
O46 O 0.78696 0.60753 0.8689 0.0
Fe47 Fe 0.83253 0.62011 0.91761 0.0
O48 O 0.87431 0.59425 0.89908 0.0
O49 O 0.8282 0.55531 0.89757 0.0
O50 O 0.7874 0.56451 0.80744 0.0
C51 C 0.77065 0.57873 0.76777 0.0
C52 C 0.7799 0.57923 0.96845 0.0
O53 O 0.74939 0.60342 0.77019 0.0
C54 C 0.77254 0.66724 0.91138 0.0
O55 O 0.70679 0.57774 0.83734 0.0
O56 O 0.70208 0.62656 0.83727 0.0
O57 O 0.81714 0.59432 0.96608 0.0
O58 O 0.75055 0.5733 0.92852 0.0
C59 C 0.85409 0.64738 0.82974 0.0
O60 O 0.76655 0.66551 0.8631 0.0
O61 O 0.79318 0.64667 0.93874 0.0
C62 C 0.68217 0.60144 0.83484 0.0
O63 O 0.81653 0.63886 0.80117 0.0
O64 O 0.85666 0.64768 0.87761 0.0
C65 C 0.86946 0.56656 0.90138 0.0
Fe66 Fe 0.24829 0.63113 0.69781 0.0
Fe67 Fe 0.18191 0.62016 0.59584 0.0
O68 O 0.22578 0.6074 0.64639 0.0
Fe69 Fe 0.24655 0.57056 0.64551 0.0
O70 O 0.22465 0.56205 0.70243 0.0
O71 O 0.25651 0.60074 0.74618 0.0
O72 O 0.18975 0.63596 0.7129 0.0
C73 C 0.15324 0.64466 0.68283 0.0
C74 C 0.33007 0.60274 0.68804 0.0
O75 O 0.15299 0.6457 0.63535 0.0
C76 C 0.2418 0.58316 0.54673 0.0
O77 O 0.24328 0.66547 0.65796 0.0
O78 O 0.22115 0.6484 0.58015 0.0
O79 O 0.30669 0.57868 0.68113 0.0
O80 O 0.30873 0.62737 0.68645 0.0
C81 C 0.14781 0.56508 0.60517 0.0
O82 O 0.20252 0.59656 0.54708 0.0
O83 O 0.26925 0.57738 0.58798 0.0
C84 C 0.23985 0.6684 0.61002 0.0
O85 O 0.14019 0.59242 0.60891 0.0
O86 O 0.19011 0.55536 0.60992 0.0
C87 C 0.23791 0.57488 0.74435 0.0
Fe88 Fe 0.74618 0.89053 0.19673 0.0
Fe89 Fe 0.67774 0.90673 0.09816 0.0
O90 O 0.7226 0.91687 0.14961 0.0
Fe91 Fe 0.74318 0.95397 0.15457 0.0
O92 O 0.72115 0.95873 0.21292 0.0
O93 O 0.75516 0.91826 0.24937 0.0
O94 O 0.68824 0.88387 0.21264 0.0
C95 C 0.65068 0.87744 0.18205 0.0
C96 C 0.82724 0.92052 0.19024 0.0
O97 O 0.6487 0.87969 0.13446 0.0
C98 C 0.73819 0.9461 0.05402 0.0
O99 O 0.74051 0.85841 0.15204 0.0
O100 O 0.71512 0.87897 0.07744 0.0
O101 O 0.80354 0.94449 0.18854 0.0
O102 O 0.80606 0.89582 0.1844 0.0
C103 C 0.6447 0.96122 0.11439 0.0
O104 O 0.69893 0.93238 0.05274 0.0
O105 O 0.76551 0.95091 0.09587 0.0
C106 C 0.73359 0.85736 0.10366 0.0
O107 O 0.63701 0.93382 0.11581 0.0
O108 O 0.68709 0.97077 0.12123 0.0
C109 C 0.73469 0.94326 0.25208 0.0
Fe110 Fe 0.26556 0.95482 0.36543 0.0
Fe111 Fe 0.26282 0.89116 0.3243 0.0
O112 O 0.28629 0.91774 0.37094 0.0
Fe113 Fe 0.33123 0.90785 0.42248 0.0
O114 O 0.3718 0.93476 0.40413 0.0
O115 O 0.32164 0.97172 0.39847 0.0
O116 O 0.28753 0.95927 0.30701 0.0
C117 C 0.27411 0.9436 0.2681 0.0
C118 C 0.2707 0.94738 0.4661 0.0
O119 O 0.25376 0.91861 0.27117 0.0
C120 C 0.27518 0.85867 0.41806 0.0
O121 O 0.2052 0.9452 0.33165 0.0
O122 O 0.20295 0.89655 0.33655 0.0
O123 O 0.31009 0.93377 0.46747 0.0
O124 O 0.24331 0.95208 0.42423 0.0
C125 C 0.35832 0.87802 0.33916 0.0
O126 O 0.2686 0.85932 0.36965 0.0
O127 O 0.29389 0.88036 0.44382 0.0
C128 C 0.18164 0.92122 0.33031 0.0
O129 O 0.32077 0.88436 0.30846 0.0
O130 O 0.36025 0.8805 0.3867 0.0
C131 C 0.36406 0.96217 0.40527 0.0
Fe132 Fe 0.26836 0.06955 0.86428 0.0
Fe133 Fe 0.25968 0.13312 0.82268 0.0
O134 O 0.28597 0.10719 0.86918 0.0
Fe135 Fe 0.33092 0.11852 0.91962 0.0
O136 O 0.373 0.09321 0.90039 0.0
O137 O 0.32689 0.05422 0.89502 0.0
O138 O 0.28844 0.06612 0.80463 0.0
C139 C 0.27216 0.08135 0.76596 0.0
C140 C 0.27581 0.07645 0.96544 0.0
O141 O 0.25019 0.10562 0.76991 0.0
C142 C 0.27195 0.16606 0.91585 0.0
O143 O 0.20634 0.07772 0.83286 0.0
O144 O 0.20101 0.12638 0.83725 0.0
O145 O 0.31355 0.09166 0.96584 0.0
O146 O 0.24803 0.07111 0.92415 0.0
C147 C 0.35432 0.14796 0.83434 0.0
O148 O 0.26506 0.16523 0.86745 0.0
O149 O 0.29176 0.14467 0.94165 0.0
C150 C 0.18127 0.10118 0.83186 0.0
O151 O 0.31656 0.14068 0.80479 0.0
O152 O 0.35654 0.14687 0.88216 0.0
C153 C 0.36824 0.06552 0.90084 0.0
Fe154 Fe 0.74878 0.13252 0.69775 0.0
Fe155 Fe 0.67738 0.11766 0.6012 0.0
O156 O 0.72253 0.10647 0.65154 0.0
Fe157 Fe 0.74036 0.06885 0.6566 0.0
O158 O 0.72056 0.0655 0.7164 0.0
O159 O 0.7586 0.10512 0.75076 0.0
O160 O 0.69195 0.14006 0.71583 0.0
C161 C 0.65415 0.14733 0.68632 0.0
C162 C 0.82731 0.10064 0.68848 0.0
O163 O 0.65185 0.14616 0.6385 0.0
C164 C 0.73244 0.07558 0.55534 0.0
O165 O 0.74302 0.16453 0.65264 0.0
O166 O 0.71639 0.14368 0.57873 0.0
O167 O 0.80241 0.07713 0.68771 0.0
O168 O 0.80739 0.1258 0.683 0.0
C169 C 0.64042 0.06474 0.62068 0.0
O170 O 0.6946 0.0907 0.55508 0.0
O171 O 0.76041 0.07031 0.59655 0.0
C172 C 0.73618 0.16515 0.60421 0.0
O173 O 0.63557 0.09243 0.62097 0.0
O174 O 0.6818 0.05346 0.62623 0.0
C175 C 0.73681 0.08082 0.75493 0.0
H176 H 0.61726 0.37674 0.33078 0.0
H177 H 0.62848 0.46789 0.28354 0.0
H178 H 0.53232 0.37722 0.29589 0.0
H179 H 0.54395 0.46807 0.24655 0.0
H180 H 0.38193 0.46774 0.22851 0.0
H181 H 0.46651 0.46825 0.26421 0.0
H182 H 0.47788 0.37667 0.21862 0.0
H183 H 0.39256 0.37585 0.18491 0.0
C184 C 0.60155 0.39689 0.31282 0.0
C185 C 0.62963 0.42228 0.30999 0.0
C186 C 0.55286 0.39709 0.29231 0.0
C187 C 0.53106 0.42258 0.26779 0.0
C188 C 0.55916 0.44813 0.26565 0.0
C189 C 0.60776 0.44804 0.2868 0.0
C190 C 0.40253 0.44776 0.22569 0.0
C191 C 0.38043 0.42171 0.2039 0.0
C192 C 0.45123 0.44808 0.2461 0.0
C193 C 0.47932 0.42247 0.24467 0.0
C194 C 0.45735 0.39665 0.22152 0.0
C195 C 0.40846 0.39622 0.20171 0.0
H196 H 0.62961 0.55539 0.78745 0.0
H197 H 0.61667 0.64458 0.84322 0.0
H198 H 0.54522 0.5554 0.75031 0.0
H199 H 0.53171 0.64421 0.80806 0.0
H200 H 0.39448 0.64817 0.6928 0.0
H201 H 0.47912 0.64695 0.72947 0.0
H202 H 0.46713 0.55393 0.76616 0.0
H203 H 0.38322 0.55491 0.72748 0.0
C204 C 0.60848 0.57477 0.79275 0.0
C205 C 0.62984 0.60001 0.8182 0.0
C206 C 0.55996 0.57479 0.77145 0.0
C207 C 0.53147 0.59991 0.77569 0.0
C208 C 0.55264 0.62473 0.80287 0.0
C209 C 0.60128 0.62485 0.82355 0.0
C210 C 0.41009 0.62741 0.70831 0.0
C211 C 0.38212 0.60165 0.70713 0.0
C212 C 0.45856 0.62675 0.72985 0.0
C213 C 0.48011 0.6004 0.75135 0.0
C214 C 0.45212 0.57454 0.74945 0.0
C215 C 0.40384 0.57512 0.72732 0.0
H216 H 0.11768 0.87615 0.33348 0.0
H217 H 0.12722 0.96733 0.28552 0.0
H218 H 0.03241 0.8763 0.29942 0.0
H219 H 0.04262 0.96716 0.24971 0.0
H220 H 0.88127 0.96698 0.23398 0.0
H221 H 0.96586 0.96718 0.26971 0.0
H222 H 0.9769 0.87598 0.22207 0.0
H223 H 0.8916 0.87547 0.1881 0.0
C224 C 0.10158 0.89622 0.31562 0.0
C225 C 0.1293 0.92174 0.31238 0.0
C226 C 0.05271 0.89624 0.29563 0.0
C227 C 0.03041 0.92169 0.27141 0.0
C228 C 0.05819 0.94728 0.26869 0.0
C229 C 0.10689 0.94736 0.28916 0.0
C230 C 0.90176 0.94701 0.23077 0.0
C231 C 0.87958 0.92119 0.20817 0.0
C232 C 0.95047 0.94715 0.25119 0.0
C233 C 0.97849 0.92157 0.24903 0.0
C234 C 0.95641 0.89592 0.22542 0.0
C235 C 0.90753 0.89569 0.20547 0.0
H236 H 0.12846 0.05389 0.7885 0.0
H237 H 0.11532 0.14509 0.83467 0.0
H238 H 0.04388 0.05302 0.75169 0.0
H239 H 0.03043 0.14394 0.79948 0.0
H240 H 0.89283 0.14465 0.68507 0.0
H241 H 0.97775 0.14378 0.72017 0.0
H242 H 0.96524 0.05294 0.76884 0.0
H243 H 0.88062 0.05353 0.73213 0.0
C244 C 0.10737 0.07361 0.79159 0.0
C245 C 0.12882 0.0996 0.81443 0.0
C246 C 0.05871 0.07311 0.7705 0.0
C247 C 0.03012 0.0985 0.77205 0.0
C248 C 0.05139 0.12417 0.79639 0.0
C249 C 0.10008 0.12476 0.81707 0.0
C250 C 0.90828 0.12439 0.70284 0.0
C251 C 0.87979 0.09918 0.70577 0.0
C252 C 0.95699 0.12396 0.72348 0.0
C253 C 0.97853 0.0984 0.74805 0.0
C254 C 0.95019 0.07295 0.74986 0.0
C255 C 0.90151 0.07329 0.72881 0.0
H256 H 0.25188 0.34988 0.01205 0.0
H257 H 0.23662 0.29936 0.14529 0.0
H258 H 0.25933 0.30412 0.96587 0.0
H259 H 0.24197 0.25325 0.09845 0.0
H260 H 0.29998 0.17695 0.01697 0.0
H261 H 0.29267 0.22222 0.06332 0.0
H262 H 0.2165 0.26326 0.9262 0.0
H263 H 0.22596 0.21781 0.87874 0.0
C264 C 0.25015 0.32889 0.03152 0.0
C265 C 0.2438 0.32825 0.08244 0.0
C266 C 0.25384 0.30257 1.00477 0.0
C267 C 0.25069 0.27476 0.02793 0.0
C268 C 0.24516 0.27416 0.0793 0.0
C269 C 0.24212 0.30059 0.10635 0.0
C270 C 0.28141 0.1955 0.99641 0.0
C271 C 0.26365 0.19363 0.9438 0.0
C272 C 0.27694 0.22158 0.02336 0.0
C273 C 0.25397 0.24664 0.99886 0.0
C274 C 0.23522 0.24464 0.94635 0.0
C275 C 0.24023 0.2185 0.91908 0.0
H276 H 0.77413 0.29846 0.37515 0.0
H277 H 0.74045 0.34837 0.50175 0.0
H278 H 0.77026 0.25231 0.42243 0.0
H279 H 0.73468 0.30247 0.54824 0.0
H280 H 0.77443 0.21898 0.6414 0.0
H281 H 0.78165 0.26438 0.59295 0.0
H282 H 0.72042 0.21881 0.45425 0.0
H283 H 0.71533 0.17366 0.50176 0.0
C284 C 0.76471 0.29949 0.41254 0.0
C285 C 0.75758 0.32703 0.43466 0.0
C286 C 0.76263 0.27305 0.43987 0.0
C287 C 0.75274 0.27353 0.48969 0.0
C288 C 0.7437 0.30112 0.51072 0.0
C289 C 0.74635 0.32747 0.48372 0.0
C290 C 0.76307 0.21864 0.60053 0.0
C291 C 0.74422 0.19259 0.57576 0.0
C292 C 0.76673 0.24475 0.57267 0.0
C293 C 0.75128 0.24548 0.51945 0.0
C294 C 0.73335 0.2192 0.49486 0.0
C295 C 0.73014 0.1932 0.52246 0.0
H296 H 0.70243 0.84553 1.00341 0.0
H297 H 0.78075 0.80591 0.14069 0.0
H298 H 0.70968 0.80016 0.9573 0.0
H299 H 0.79008 0.76034 0.09339 0.0
H300 H 0.757 0.67318 1.00813 0.0
H301 H 0.74854 0.71872 0.05463 0.0
H302 H 0.76079 0.77013 0.92104 0.0
H303 H 0.76715 0.72427 0.87398 0.0
C304 C 0.72191 0.82722 0.0238 0.0
C305 C 0.74106 0.82951 0.07605 0.0
C306 C 0.72633 0.80109 0.99698 0.0
C307 C 0.75062 0.77638 0.02122 0.0
C308 C 0.77042 0.7787 0.07344 0.0
C309 C 0.76545 0.8049 0.10061 0.0
C310 C 0.75737 0.69424 0.98852 0.0
C311 C 0.76259 0.6951 0.93725 0.0
C312 C 0.75309 0.72044 0.01545 0.0
C313 C 0.75447 0.74834 0.99206 0.0
C314 C 0.75891 0.74914 0.94038 0.0
C315 C 0.76255 0.72284 0.9132 0.0
H316 H 0.23432 0.72533 0.64619 0.0
H317 H 0.26798 0.67551 0.5195 0.0
H318 H 0.23945 0.77161 0.5994 0.0
H319 H 0.2749 0.72141 0.47355 0.0
H320 H 0.23641 0.80503 0.38064 0.0
H321 H 0.22831 0.75971 0.42894 0.0
H322 H 0.29033 0.80481 0.56783 0.0
H323 H 0.2964 0.84991 0.52045 0.0
C324 C 0.24397 0.72434 0.60891 0.0
C325 C 0.25071 0.69682 0.58655 0.0
C326 C 0.24677 0.75084 0.58186 0.0
C327 C 0.25693 0.75036 0.53213 0.0
C328 C 0.26564 0.72277 0.51097 0.0
C329 C 0.26231 0.69641 0.53766 0.0
C330 C 0.24783 0.80528 0.42151 0.0
C331 C 0.26713 0.83119 0.44637 0.0
C332 C 0.24362 0.77922 0.44929 0.0
C333 C 0.25898 0.7784 0.50252 0.0
C334 C 0.27746 0.80452 0.5272 0.0
C335 C 0.28123 0.83048 0.49967 0.0
H336 H 0.96087 0.58628 0.92578 0.0
H337 H 0.87433 0.50753 0.92793 0.0
H338 H 0.02692 0.56171 0.97881 0.0
H339 H 0.9421 0.48197 0.97869 0.0
H340 H 0.05002 0.45686 0.11834 0.0
H341 H 0.98432 0.48173 0.06271 0.0
H342 H 0.08573 0.52624 0.9861 0.0
H343 H 0.15073 0.50305 0.04373 0.0
C344 C 0.95628 0.56336 0.93645 0.0
C345 C 0.91201 0.549 0.92318 0.0
C346 C 0.99446 0.54916 0.96684 0.0
C347 C 0.98981 0.51993 0.98381 0.0
C348 C 0.94653 0.5048 0.96756 0.0
C349 C 0.90789 0.51926 0.93775 0.0
C350 C 0.05796 0.4726 0.09037 0.0
C351 C 0.10528 0.47847 0.08585 0.0
C352 C 0.02044 0.48643 0.05786 0.0
C353 C 0.02958 0.50581 0.01943 0.0
C354 C 0.07716 0.51194 0.01571 0.0
C355 C 0.11457 0.49871 0.04895 0.0
H356 H 0.1501 0.52299 0.53328 0.0
H357 H 0.05553 0.56771 0.61769 0.0
H358 H 0.08228 0.49944 0.48008 0.0
H359 H 0.98739 0.54268 0.5666 0.0
H360 H 0.86949 0.51567 0.43971 0.0
H361 H 0.93916 0.54204 0.48527 0.0
H362 H 0.02503 0.46328 0.47861 0.0
H363 H 0.95703 0.43798 0.43079 0.0
C364 C 0.11479 0.52695 0.54149 0.0
C365 C 0.1079 0.5468 0.5799 0.0
C366 C 0.07579 0.51357 0.51086 0.0
C367 C 0.02914 0.51922 0.51878 0.0
C368 C 0.0226 0.53835 0.55855 0.0
C369 C 0.0616 0.55227 0.58843 0.0
C370 C 0.90357 0.50434 0.44703 0.0
C371 C 0.90755 0.47467 0.43208 0.0
C372 C 0.94337 0.51926 0.47378 0.0
C373 C 0.98768 0.50466 0.48645 0.0
C374 C 0.99183 0.47545 0.46928 0.0
C375 C 0.95249 0.4608 0.44203 0.0
H376 H 0.65095 1.00327 0.04349 0.0
H377 H 0.55081 0.95891 0.12116 0.0
H378 H 0.58556 0.02574 0.98508 0.0
H379 H 0.48483 0.98304 0.06488 0.0
H380 H 0.37306 1.00694 0.93091 0.0
H381 H 0.44141 0.98199 0.98193 0.0
H382 H 0.52663 0.0609 0.97476 0.0
H383 H 0.46003 0.08469 0.92137 0.0
C384 C 0.61484 0.99928 0.04923 0.0
C385 C 0.6058 0.97973 0.08722 0.0
C386 C 0.57719 0.01204 0.01553 0.0
C387 C 0.52962 1.00611 0.0198 0.0
C388 C 0.52084 0.98753 0.05945 0.0
C389 C 0.55856 0.97417 0.09239 0.0
C390 C 0.40683 0.01855 0.93911 0.0
C391 C 0.41088 0.04789 0.92249 0.0
C392 C 0.44584 1.00448 0.96913 0.0
C393 C 0.48946 0.01961 0.98358 0.0
C394 C 0.49399 0.04833 0.96435 0.0
C395 C 0.45545 0.06211 0.93376 0.0
H396 H 0.35767 1.00343 0.47729 0.0
H397 H 0.45783 0.96035 0.39794 0.0
H398 H 0.42301 0.0253 0.53643 0.0
H399 H 0.52378 0.98396 0.45494 0.0
H400 H 0.63575 1.00645 0.58913 0.0
H401 H 0.56731 0.98191 0.5377 0.0
H402 H 0.48179 0.0604 0.54821 0.0
H403 H 0.54848 0.08372 0.60205 0.0
C404 C 0.39377 0.99964 0.47133 0.0
C405 C 0.40284 0.9806 0.43267 0.0
C406 C 0.4314 0.01205 0.50546 0.0
C407 C 0.47897 1.00629 0.50093 0.0
C408 C 0.48777 0.98829 0.46058 0.0
C409 C 0.45007 0.97525 0.42722 0.0
C410 C 0.60189 0.01802 0.58162 0.0
C411 C 0.59778 0.04714 0.59922 0.0
C412 C 0.56282 1.0042 0.55134 0.0
C413 C 0.51912 0.01939 0.53762 0.0
C414 C 0.51451 0.0478 0.55798 0.0
C415 C 0.5531 0.06131 0.58884 0.0
H416 H 0.05896 0.38108 0.14023 0.0
H417 H 0.14917 0.35888 0.28292 0.0
H418 H 0.98892 0.37542 0.17906 0.0
H419 H 0.07896 0.35152 0.32148 0.0
H420 H 0.94932 0.38281 0.38896 0.0
H421 H 0.02104 0.37865 0.35204 0.0
H422 H 0.93636 0.34574 0.21241 0.0
H423 H 0.86462 0.35175 0.24863 0.0
C424 C 0.06374 0.37413 0.1796 0.0
C425 C 0.10966 0.37048 0.20845 0.0
C426 C 0.02342 0.37073 0.20203 0.0
C427 C 0.02783 0.36308 0.25379 0.0
C428 C 0.07388 0.35806 0.28193 0.0
C429 C 0.11425 0.36199 0.25969 0.0
C430 C 0.94629 0.37413 0.35074 0.0
C431 C 0.90137 0.36775 0.32162 0.0
C432 C 0.9875 0.37166 0.32941 0.0
C433 C 0.98485 0.36222 0.27869 0.0
C434 C 0.93999 0.35394 0.25094 0.0
C435 C 0.89878 0.35702 0.2719 0.0
H436 H 0.06714 0.66669 0.6327 0.0
H437 H 0.1413 0.63986 0.78122 0.0
H438 H 0.99459 0.67445 0.66754 0.0
H439 H 0.06909 0.64626 0.81525 0.0
H440 H 0.93989 0.671 0.87643 0.0
H441 H 0.01174 0.67732 0.84007 0.0
H442 H 0.93594 0.64544 0.69538 0.0
H443 H 0.86411 0.64049 0.73097 0.0
C444 C 0.06813 0.66269 0.67278 0.0
C445 C 0.11013 0.65258 0.70399 0.0
C446 C 0.02641 0.66691 0.69278 0.0
C447 C 0.02559 0.66084 0.74435 0.0
C448 C 0.06816 0.65172 0.77569 0.0
C449 C 0.10977 0.6478 0.7559 0.0
C450 C 0.93839 0.66592 0.83662 0.0
C451 C 0.8962 0.65513 0.8068 0.0
C452 C 0.97974 0.66929 0.81576 0.0
C453 C 0.98011 0.66157 0.76475 0.0
C454 C 0.93722 0.65204 0.73451 0.0
C455 C 0.89586 0.64901 0.75515 0.0
H456 H 0.36247 0.85476 0.24575 0.0
H457 H 0.45147 0.88317 0.38555 0.0
H458 H 0.43287 0.84785 0.20743 0.0
H459 H 0.52174 0.87773 0.34673 0.0
H460 H 0.6466 0.85469 0.27584 0.0
H461 H 0.57622 0.84806 0.31429 0.0
H462 H 0.48727 0.87731 0.17453 0.0
H463 H 0.55751 0.88247 0.13561 0.0
C464 C 0.3972 0.85926 0.26847 0.0
C465 C 0.40137 0.86952 0.31871 0.0
C466 C 0.43763 0.85558 0.24633 0.0
C467 C 0.48328 0.86257 0.27353 0.0
C468 C 0.48747 0.87166 0.32458 0.0
C469 C 0.44706 0.87488 0.34697 0.0
C470 C 0.61186 0.85911 0.25305 0.0
C471 C 0.60765 0.86911 0.20266 0.0
C472 C 0.57145 0.85559 0.27527 0.0
C473 C 0.52577 0.86249 0.24796 0.0
C474 C 0.52155 0.87132 0.19677 0.0
C475 C 0.56195 0.87438 0.17432 0.0
H476 H 0.64347 0.14189 0.78511 0.0
H477 H 0.56749 0.1694 0.63784 0.0
H478 H 0.57151 0.1472 0.82015 0.0
H479 H 0.49538 0.17627 0.67366 0.0
H480 H 0.3649 0.14275 0.73548 0.0
H481 H 0.43691 0.14772 0.70048 0.0
H482 H 0.51342 0.17605 0.84719 0.0
H483 H 0.44122 0.16952 0.88296 0.0
C484 C 0.61162 0.14985 0.76035 0.0
C485 C 0.61142 0.15511 0.70844 0.0
C486 C 0.57009 0.15309 0.78069 0.0
C487 C 0.52703 0.16206 0.74998 0.0
C488 C 0.52742 0.16871 0.69848 0.0
C489 C 0.56896 0.16506 0.67791 0.0
C490 C 0.39684 0.15047 0.76031 0.0
C491 C 0.3971 0.15561 0.81226 0.0
C492 C 0.4384 0.15352 0.73998 0.0
C493 C 0.48158 0.16218 0.77077 0.0
C494 C 0.48128 0.16873 0.82231 0.0
C495 C 0.43968 0.16528 0.84286 0.0
H496 H 0.16742 0.44943 0.96455 0.0
H497 H 0.31006 0.47736 0.03117 0.0
H498 H 0.16794 0.48291 0.89393 0.0
H499 H 0.31122 0.51036 0.95871 0.0
H500 H 0.27474 0.58862 0.84477 0.0
H501 H 0.27594 0.55636 0.9191 0.0
H502 H 0.20303 0.48789 0.82146 0.0
H503 H 0.20001 0.5199 0.7489 0.0
C504 C 0.19944 0.46218 0.96361 0.0
C505 C 0.23885 0.46046 1.00351 0.0
C506 C 0.1997 0.48151 0.92296 0.0
C507 C 0.23966 0.49938 0.9205 0.0
C508 C 0.27961 0.49724 0.95978 0.0
C509 C 0.27918 0.47801 1.00092 0.0
C510 C 0.25854 0.56681 0.83952 0.0
C511 C 0.23721 0.55699 0.79082 0.0
C512 C 0.25966 0.5482 0.88193 0.0
C513 C 0.23945 0.51951 0.87629 0.0
C514 C 0.21814 0.50997 0.82757 0.0
C515 C 0.21673 0.52843 0.78568 0.0
H516 H 0.81156 0.43523 0.56834 0.0
H517 H 0.70927 0.49065 0.47163 0.0
H518 H 0.80952 0.469 0.63905 0.0
H519 H 0.70923 0.52518 0.54112 0.0
H520 H 0.69454 0.57159 0.6905 0.0
H521 H 0.68904 0.53673 0.6195 0.0
H522 H 0.83871 0.51577 0.66575 0.0
H523 H 0.84294 0.54922 0.73783 0.0
C524 C 0.78835 0.45447 0.56228 0.0
C525 C 0.76083 0.46023 0.51423 0.0
C526 C 0.78764 0.47413 0.60263 0.0
C527 C 0.76004 0.50034 0.59571 0.0
C528 C 0.73075 0.50527 0.54824 0.0
C529 C 0.73085 0.48536 0.50818 0.0
C530 C 0.72631 0.55991 0.68457 0.0
C531 C 0.7692 0.56309 0.71924 0.0
C532 C 0.72324 0.5398 0.64409 0.0
C533 C 0.76324 0.52286 0.63719 0.0
C534 C 0.80672 0.52754 0.6706 0.0
C535 C 0.80947 0.54711 0.71143 0.0
H536 H 0.82817 0.4957 0.26487 0.0
H537 H 0.73189 0.4348 0.17272 0.0
H538 H 0.82676 0.52792 0.19282 0.0
H539 H 0.73236 0.46693 0.09855 0.0
H540 H 0.70369 0.54884 0.99277 0.0
H541 H 0.70395 0.51465 0.06387 0.0
H542 H 0.85353 0.53294 0.1163 0.0
H543 H 0.85266 0.5678 0.04714 0.0
C544 C 0.80712 0.48888 0.22885 0.0
C545 C 0.77984 0.46264 0.22479 0.0
C546 C 0.80667 0.5074 0.18717 0.0
C547 C 0.77952 0.50016 0.1396 0.0
C548 C 0.75319 0.47342 0.13484 0.0
C549 C 0.75336 0.4548 0.1771 0.0
C550 C 0.73637 0.54589 0.02009 0.0
C551 C 0.77795 0.56142 0.01465 0.0
C552 C 0.73671 0.52595 0.06042 0.0
C553 C 0.77877 0.52089 0.09592 0.0
C554 C 0.82019 0.53661 0.09042 0.0
C555 C 0.81968 0.55676 0.05067 0.0
H556 H 0.16513 0.47488 0.27958 0.0
H557 H 0.31446 0.45469 0.32541 0.0
H558 H 0.16904 0.50884 0.35103 0.0
H559 H 0.3198 0.49022 0.39521 0.0
H560 H 0.30274 0.53684 0.54223 0.0
H561 H 0.30188 0.50208 0.47323 0.0
H562 H 0.19546 0.55572 0.3779 0.0
H563 H 0.19412 0.5896 0.44866 0.0
C564 C 0.19873 0.47759 0.30555 0.0
C565 C 0.23932 0.46198 0.29771 0.0
C566 C 0.20131 0.49748 0.34595 0.0
C567 C 0.24498 0.50293 0.37864 0.0
C568 C 0.28539 0.48651 0.3714 0.0
C569 C 0.28244 0.46601 0.33156 0.0
C570 C 0.27957 0.54155 0.50635 0.0
C571 C 0.24817 0.56599 0.50116 0.0
C572 C 0.27917 0.5215 0.46648 0.0
C573 C 0.24805 0.52561 0.41988 0.0
C574 C 0.21885 0.55117 0.41367 0.0
C575 C 0.21856 0.57094 0.45399 0.0
H576 H 0.79834 0.99322 0.05185 0.0
H577 H 0.69259 0.94001 0.95547 0.0
H578 H 0.79841 0.02828 0.98291 0.0
H579 H 0.69443 0.97429 0.88546 0.0
H580 H 0.66321 0.05465 0.78782 0.0
H581 H 0.66676 0.02196 0.8609 0.0
H582 H 0.81798 0.03913 0.9034 0.0
H583 H 0.8133 0.07322 0.83138 0.0
C584 C 0.77598 0.98854 0.01548 0.0
C585 C 0.74514 0.96385 1.0093 0.0
C586 C 0.77604 1.00874 0.97581 0.0
C587 C 0.74576 1.00456 0.92872 0.0
C588 C 0.71712 0.97884 0.92167 0.0
C589 C 0.71652 0.95888 0.96158 0.0
C590 C 0.69687 0.05197 0.81372 0.0
C591 C 0.73786 0.06655 0.80451 0.0
C592 C 0.69919 0.03283 0.85508 0.0
C593 C 0.74292 0.0272 0.88752 0.0
C594 C 0.78362 0.04296 0.87948 0.0
C595 C 0.78102 0.06264 0.83846 0.0
H596 H 0.34552 0.05429 0.73391 0.0
H597 H 0.19612 0.07461 0.68875 0.0
H598 H 0.34191 0.02183 0.66057 0.0
H599 H 0.19133 0.04076 0.61644 0.0
H600 H 0.2117 0.99517 0.46792 0.0
H601 H 0.21167 0.03 0.53719 0.0
H602 H 0.31311 0.97454 0.63517 0.0
H603 H 0.31495 0.94048 0.56489 0.0
C604 C 0.31201 0.05202 0.70764 0.0
C605 C 0.27121 0.06702 0.71648 0.0
C606 C 0.30963 0.03302 0.66611 0.0
C607 C 0.26604 0.02797 0.63311 0.0
C608 C 0.22557 0.04414 0.6408 0.0
C609 C 0.22824 0.06367 0.68201 0.0
C610 C 0.23348 0.99013 0.50447 0.0
C611 C 0.26364 0.9651 0.51078 0.0
C612 C 0.23345 1.0102 0.54432 0.0
C613 C 0.26307 1.00552 0.59168 0.0
C614 C 0.29098 0.97946 0.59878 0.0
C615 C 0.29157 0.95964 0.55871 0.0
H616 H 0.34829 0.97181 0.23956 0.0
H617 H 0.20059 0.94943 0.18783 0.0
H618 H 0.34681 1.00382 0.16596 0.0
H619 H 0.19766 0.98294 0.11542 0.0
H620 H 0.21919 0.02779 0.96836 0.0
H621 H 0.21942 0.9935 0.03815 0.0
H622 H 0.31949 0.05006 0.13541 0.0
H623 H 0.32135 0.08356 0.0642 0.0
C624 C 0.31561 0.97355 0.21182 0.0
C625 C 0.27474 0.95797 0.21881 0.0
C626 C 0.31441 0.99233 0.17008 0.0
C627 C 0.27184 0.99665 0.13495 0.0
C628 C 0.23128 0.98009 0.14118 0.0
C629 C 0.23286 0.96074 0.18253 0.0
C630 C 0.24091 0.03316 1.00478 0.0
C631 C 0.27048 0.05845 0.01056 0.0
C632 C 0.24094 0.0134 0.04506 0.0
C633 C 0.26991 0.01859 0.09261 0.0
C634 C 0.29773 0.04471 0.09904 0.0
C635 C 0.29836 0.06423 0.05839 0.0
H636 H 0.68672 0.08289 0.45671 0.0
H637 H 0.78934 0.02703 0.55203 0.0
H638 H 0.68876 0.04966 0.38522 0.0
H639 H 0.7893 0.99299 0.48195 0.0
H640 H 0.80823 0.94927 0.33221 0.0
H641 H 0.81103 0.98269 0.40467 0.0
H642 H 0.66181 1.00356 0.35413 0.0
H643 H 0.66048 0.97166 0.28043 0.0
C644 C 0.70984 0.06359 0.46235 0.0
C645 C 0.7378 0.05771 0.51011 0.0
C646 C 0.71058 0.04423 0.42153 0.0
C647 C 0.7386 0.01816 0.42771 0.0
C648 C 0.76763 0.01286 0.47522 0.0
C649 C 0.76755 0.03247 0.51567 0.0
C650 C 0.77594 0.96058 0.33749 0.0
C651 C 0.73407 0.95782 0.3012 0.0
C652 C 0.77744 0.97987 0.37888 0.0
C653 C 0.7368 0.99638 0.38518 0.0
C654 C 0.69427 0.99211 0.34997 0.0
C655 C 0.69315 0.9734 0.30817 0.0
loop_
_geom_bond_atom_site_label_1
_geom_bond_atom_site_label_2
_geom_bond_distance
_geom_bond_site_symmetry_2
_ccdc_geom_bond_type
Fe0 O2 1.918 . S
Fe0 O5 1.997 . S
Fe0 O6 2.002 . S
Fe0 O11 1.976 . S
Fe0 O14 1.996 . S
Fe1 O2 1.918 . S
Fe1 O9 1.997 . S
Fe1 O12 1.996 . S
Fe1 O16 1.976 . S
Fe1 O19 2.002 . S
O2 Fe0 1.918 . S
O2 Fe1 1.918 . S
O2 Fe3 1.918 . S
Fe3 O2 1.918 . S
Fe3 O4 2.002 . S
Fe3 O13 1.976 . S
Fe3 O17 1.996 . S
Fe3 O20 1.997 . S
O4 Fe3 2.002 . S
O4 C21 1.295 . S
O5 Fe0 1.997 . S
O5 C21 1.235 . S
O6 Fe0 2.002 . S
O6 C7 1.295 . S
C7 O6 1.295 . S
C7 O9 1.235 . S
C8 O13 1.287 . S
C8 O14 1.255 . S
O9 Fe1 1.997 . S
O9 C7 1.235 . S
C10 O16 1.287 . S
C10 O17 1.255 . S
O11 Fe0 1.976 . S
O11 C18 1.287 . S
O12 Fe1 1.996 . S
O12 C18 1.255 . S
O13 Fe3 1.976 . S
O13 C8 1.287 . S
O14 Fe0 1.996 . S
O14 C8 1.255 . S
C15 O19 1.295 . S
C15 O20 1.235 . S
O16 Fe1 1.976 . S
O16 C10 1.287 . S
O17 Fe3 1.996 . S
O17 C10 1.255 . S
C18 O11 1.287 . S
C18 O12 1.255 . S
O19 Fe1 2.002 . S
O19 C15 1.295 . S
O20 Fe3 1.997 . S
O20 C15 1.235 . S
C21 O4 1.295 . S
C21 O5 1.235 . S
Fe22 O24 1.918 . S
Fe22 O27 1.997 . S
Fe22 O28 2.002 . S
Fe22 O33 1.976 . S
Fe22 O36 1.996 . S
Fe23 O24 1.918 . S
Fe23 O31 1.997 . S
Fe23 O34 1.996 . S
Fe23 O38 1.976 . S
Fe23 O41 2.002 . S
O24 Fe22 1.918 . S
O24 Fe23 1.918 . S
O24 Fe25 1.918 . S
Fe25 O24 1.918 . S
Fe25 O26 2.002 . S
Fe25 O35 1.976 . S
Fe25 O39 1.996 . S
Fe25 O42 1.997 . S
O26 Fe25 2.002 . S
O26 C43 1.295 . S
O27 Fe22 1.997 . S
O27 C43 1.235 . S
O28 Fe22 2.002 . S
O28 C29 1.295 . S
C29 O28 1.295 . S
C29 O31 1.235 . S
C30 O35 1.287 . S
C30 O36 1.255 . S
O31 Fe23 1.997 . S
O31 C29 1.235 . S
C32 O38 1.287 . S
C32 O39 1.255 . S
O33 Fe22 1.976 . S
O33 C40 1.287 . S
O34 Fe23 1.996 . S
O34 C40 1.255 . S
O35 Fe25 1.976 . S
O35 C30 1.287 . S
O36 Fe22 1.996 . S
O36 C30 1.255 . S
C37 O41 1.295 . S
C37 O42 1.235 . S
O38 Fe23 1.976 . S
O38 C32 1.287 . S
O39 Fe25 1.996 . S
O39 C32 1.255 . S
C40 O33 1.287 . S
C40 O34 1.255 . S
O41 Fe23 2.002 . S
O41 C37 1.295 . S
O42 Fe25 1.997 . S
O42 C37 1.235 . S
C43 O26 1.295 . S
C43 O27 1.235 . S
Fe44 O46 1.918 . S
Fe44 O49 1.997 . S
Fe44 O50 2.002 . S
Fe44 O55 1.976 . S
Fe44 O58 1.996 . S
Fe45 O46 1.918 . S
Fe45 O53 1.997 . S
Fe45 O56 1.996 . S
Fe45 O60 1.976 . S
Fe45 O63 2.002 . S
O46 Fe44 1.918 . S
O46 Fe45 1.918 . S
O46 Fe47 1.918 . S
Fe47 O46 1.918 . S
Fe47 O48 2.002 . S
Fe47 O57 1.976 . S
Fe47 O61 1.996 . S
Fe47 O64 1.997 . S
O48 Fe47 2.002 . S
O48 C65 1.295 . S
O49 Fe44 1.997 . S
O49 C65 1.235 . S
O50 Fe44 2.002 . S
O50 C51 1.295 . S
C51 O50 1.295 . S
C51 O53 1.235 . S
C52 O57 1.287 . S
C52 O58 1.255 . S
O53 Fe45 1.997 . S
O53 C51 1.235 . S
C54 O60 1.287 . S
C54 O61 1.255 . S
O55 Fe44 1.976 . S
O55 C62 1.287 . S
O56 Fe45 1.996 . S
O56 C62 1.255 . S
O57 Fe47 1.976 . S
O57 C52 1.287 . S
O58 Fe44 1.996 . S
O58 C52 1.255 . S
C59 O63 1.295 . S
C59 O64 1.235 . S
O60 Fe45 1.976 . S
O60 C54 1.287 . S
O61 Fe47 1.996 . S
O61 C54 1.255 . S
C62 O55 1.287 . S
C62 O56 1.255 . S
O63 Fe45 2.002 . S
O63 C59 1.295 . S
O64 Fe47 1.997 . S
O64 C59 1.235 . S
C65 O48 1.295 . S
C65 O49 1.235 . S
Fe66 O68 1.918 . S
Fe66 O71 1.997 . S
Fe66 O72 2.002 . S
Fe66 O77 1.976 . S
Fe66 O80 1.996 . S
Fe67 O68 1.918 . S
Fe67 O75 1.997 . S
Fe67 O78 1.996 . S
Fe67 O82 1.976 . S
Fe67 O85 2.002 . S
O68 Fe66 1.918 . S
O68 Fe67 1.918 . S
O68 Fe69 1.918 . S
Fe69 O68 1.918 . S
Fe69 O70 2.002 . S
Fe69 O79 1.976 . S
Fe69 O83 1.996 . S
Fe69 O86 1.997 . S
O70 Fe69 2.002 . S
O70 C87 1.295 . S
O71 Fe66 1.997 . S
O71 C87 1.235 . S
O72 Fe66 2.002 . S
O72 C73 1.295 . S
C73 O72 1.295 . S
C73 O75 1.235 . S
C74 O79 1.287 . S
C74 O80 1.255 . S
O75 Fe67 1.997 . S
O75 C73 1.235 . S
C76 O82 1.287 . S
C76 O83 1.255 . S
O77 Fe66 1.976 . S
O77 C84 1.287 . S
O78 Fe67 1.996 . S
O78 C84 1.255 . S
O79 Fe69 1.976 . S
O79 C74 1.287 . S
O80 Fe66 1.996 . S
O80 C74 1.255 . S
C81 O85 1.295 . S
C81 O86 1.235 . S
O82 Fe67 1.976 . S
O82 C76 1.287 . S
O83 Fe69 1.996 . S
O83 C76 1.255 . S
C84 O77 1.287 . S
C84 O78 1.255 . S
O85 Fe67 2.002 . S
O85 C81 1.295 . S
O86 Fe69 1.997 . S
O86 C81 1.235 . S
C87 O70 1.295 . S
C87 O71 1.235 . S
Fe88 O90 1.918 . S
Fe88 O93 1.997 . S
Fe88 O94 2.002 . S
Fe88 O99 1.976 . S
Fe88 O102 1.996 . S
Fe89 O90 1.918 . S
Fe89 O97 1.997 . S
Fe89 O100 1.996 . S
Fe89 O104 1.976 . S
Fe89 O107 2.002 . S
O90 Fe88 1.918 . S
O90 Fe89 1.918 . S
O90 Fe91 1.918 . S
Fe91 O90 1.918 . S
Fe91 O92 2.002 . S
Fe91 O101 1.976 . S
Fe91 O105 1.996 . S
Fe91 O108 1.997 . S
O92 Fe91 2.002 . S
O92 C109 1.295 . S
O93 Fe88 1.997 . S
O93 C109 1.235 . S
O94 Fe88 2.002 . S
O94 C95 1.295 . S
C95 O94 1.295 . S
C95 O97 1.235 . S
C96 O101 1.287 . S
C96 O102 1.255 . S
O97 Fe89 1.997 . S
O97 C95 1.235 . S
C98 O104 1.287 . S
C98 O105 1.255 . S
O99 Fe88 1.976 . S
O99 C106 1.287 . S
O100 Fe89 1.996 . S
O100 C106 1.255 . S
O101 Fe91 1.976 . S
O101 C96 1.287 . S
O102 Fe88 1.996 . S
O102 C96 1.255 . S
C103 O107 1.295 . S
C103 O108 1.235 . S
O104 Fe89 1.976 . S
O104 C98 1.287 . S
O105 Fe91 1.996 . S
O105 C98 1.255 . S
C106 O99 1.287 . S
C106 O100 1.255 . S
O107 Fe89 2.002 . S
O107 C103 1.295 . S
O108 Fe91 1.997 . S
O108 C103 1.235 . S
C109 O92 1.295 . S
C109 O93 1.235 . S
Fe110 O112 1.918 . S
Fe110 O115 1.997 . S
Fe110 O116 2.002 . S
Fe110 O121 1.976 . S
Fe110 O124 1.996 . S
Fe111 O112 1.918 . S
Fe111 O119 1.997 . S
Fe111 O122 1.996 . S
Fe111 O126 1.976 . S
Fe111 O129 2.002 . S
O112 Fe110 1.918 . S
O112 Fe111 1.918 . S
O112 Fe113 1.918 . S
Fe113 O112 1.918 . S
Fe113 O114 2.002 . S
Fe113 O123 1.976 . S
Fe113 O127 1.996 . S
Fe113 O130 1.997 . S
O114 Fe113 2.002 . S
O114 C131 1.295 . S
O115 Fe110 1.997 . S
O115 C131 1.235 . S
O116 Fe110 2.002 . S
O116 C117 1.295 . S
C117 O116 1.295 . S
C117 O119 1.235 . S
C118 O123 1.287 . S
C118 O124 1.255 . S
O119 Fe111 1.997 . S
O119 C117 1.235 . S
C120 O126 1.287 . S
C120 O127 1.255 . S
O121 Fe110 1.976 . S
O121 C128 1.287 . S
O122 Fe111 1.996 . S
O122 C128 1.255 . S
O123 Fe113 1.976 . S
O123 C118 1.287 . S
O124 Fe110 1.996 . S
O124 C118 1.255 . S
C125 O129 1.295 . S
C125 O130 1.235 . S
O126 Fe111 1.976 . S
O126 C120 1.287 . S
O127 Fe113 1.996 . S
O127 C120 1.255 . S
C128 O121 1.287 . S
C128 O122 1.255 . S
O129 Fe111 2.002 . S
O129 C125 1.295 . S
O130 Fe113 1.997 . S
O130 C125 1.235 . S
C131 O114 1.295 . S
C131 O115 1.235 . S
Fe132 O134 1.918 . S
Fe132 O137 1.997 . S
Fe132 O138 2.002 . S
Fe132 O143 1.976 . S
Fe132 O146 1.996 . S
Fe133 O134 1.918 . S
Fe133 O141 1.997 . S
Fe133 O144 1.996 . S
Fe133 O148 1.976 . S
Fe133 O151 2.002 . S
O134 Fe132 1.918 . S
O134 Fe133 1.918 . S
O134 Fe135 1.918 . S
Fe135 O134 1.918 . S
Fe135 O136 2.002 . S
Fe135 O145 1.976 . S
Fe135 O149 1.996 . S
Fe135 O152 1.997 . S
O136 Fe135 2.002 . S
O136 C153 1.295 . S
O137 Fe132 1.997 . S
O137 C153 1.235 . S
O138 Fe132 2.002 . S
O138 C139 1.295 . S
C139 O138 1.295 . S
C139 O141 1.235 . S
C140 O145 1.287 . S
C140 O146 1.255 . S
O141 Fe133 1.997 . S
O141 C139 1.235 . S
C142 O148 1.287 . S
C142 O149 1.255 . S
O143 Fe132 1.976 . S
O143 C150 1.287 . S
O144 Fe133 1.996 . S
O144 C150 1.255 . S
O145 Fe135 1.976 . S
O145 C140 1.287 . S
O146 Fe132 1.996 . S
O146 C140 1.255 . S
C147 O151 1.295 . S
C147 O152 1.235 . S
O148 Fe133 1.976 . S
O148 C142 1.287 . S
O149 Fe135 1.996 . S
O149 C142 1.255 . S
C150 O143 1.287 . S
C150 O144 1.255 . S
O151 Fe133 2.002 . S
O151 C147 1.295 . S
O152 Fe135 1.997 . S
O152 C147 1.235 . S
C153 O136 1.295 . S
C153 O137 1.235 . S
Fe154 O156 1.918 . S
Fe154 O159 1.997 . S
Fe154 O160 2.002 . S
Fe154 O165 1.976 . S
Fe154 O168 1.996 . S
Fe155 O156 1.918 . S
Fe155 O163 1.997 . S
Fe155 O166 1.996 . S
Fe155 O170 1.976 . S
Fe155 O173 2.002 . S
O156 Fe154 1.918 . S
O156 Fe155 1.918 . S
O156 Fe157 1.918 . S
Fe157 O156 1.918 . S
Fe157 O158 2.002 . S
Fe157 O167 1.976 . S
Fe157 O171 1.996 . S
Fe157 O174 1.997 . S
O158 Fe157 2.002 . S
O158 C175 1.295 . S
O159 Fe154 1.997 . S
O159 C175 1.235 . S
O160 Fe154 2.002 . S
O160 C161 1.295 . S
C161 O160 1.295 . S
C161 O163 1.235 . S
C162 O167 1.287 . S
C162 O168 1.255 . S
O163 Fe155 1.997 . S
O163 C161 1.235 . S
C164 O170 1.287 . S
C164 O171 1.255 . S
O165 Fe154 1.976 . S
O165 C172 1.287 . S
O166 Fe155 1.996 . S
O166 C172 1.255 . S
O167 Fe157 1.976 . S
O167 C162 1.287 . S
O168 Fe154 1.996 . S
O168 C162 1.255 . S
C169 O173 1.295 . S
C169 O174 1.235 . S
O170 Fe155 1.976 . S
O170 C164 1.287 . S
O171 Fe157 1.996 . S
O171 C164 1.255 . S
C172 O165 1.287 . S
C172 O166 1.255 . S
O173 Fe155 2.002 . S
O173 C169 1.295 . S
O174 Fe157 1.997 . S
O174 C169 1.235 . S
C175 O158 1.295 . S
C175 O159 1.235 . S
H176 C184 0.950 . S
H177 C189 0.950 . S
H178 C186 0.950 . S
H179 C188 0.950 . S
H180 C190 0.950 . S
H181 C192 0.950 . S
H182 C194 0.950 . S
H183 C195 0.950 . S
C184 H176 0.950 . S
C184 C185 1.386 . S
C184 C186 1.391 . S
C185 C184 1.386 . S
C185 C189 1.393 . S
C186 H178 0.950 . S
C186 C184 1.391 . S
C186 C187 1.400 . S
C187 C186 1.400 . S
C187 C188 1.398 . S
C187 C193 1.491 . S
C188 H179 0.950 . S
C188 C187 1.398 . S
C188 C189 1.391 . S
C189 H177 0.950 . S
C189 C185 1.393 . S
C189 C188 1.391 . S
C190 H180 0.950 . S
C190 C191 1.386 . S
C190 C192 1.391 . S
C191 C190 1.386 . S
C191 C195 1.393 . S
C192 H181 0.950 . S
C192 C190 1.391 . S
C192 C193 1.400 . S
C193 C187 1.491 . S
C193 C192 1.400 . S
C193 C194 1.398 . S
C194 H182 0.950 . S
C194 C193 1.398 . S
C194 C195 1.391 . S
C195 H183 0.950 . S
C195 C191 1.393 . S
C195 C194 1.391 . S
H196 C204 0.950 . S
H197 C209 0.950 . S
H198 C206 0.950 . S
H199 C208 0.950 . S
H200 C210 0.950 . S
H201 C212 0.950 . S
H202 C214 0.950 . S
H203 C215 0.950 . S
C204 H196 0.950 . S
C204 C205 1.386 . S
C204 C206 1.391 . S
C205 C204 1.386 . S
C205 C209 1.393 . S
C206 H198 0.950 . S
C206 C204 1.391 . S
C206 C207 1.400 . S
C207 C206 1.400 . S
C207 C208 1.398 . S
C207 C213 1.491 . S
C208 H199 0.950 . S
C208 C207 1.398 . S
C208 C209 1.391 . S
C209 H197 0.950 . S
C209 C205 1.393 . S
C209 C208 1.391 . S
C210 H200 0.950 . S
C210 C211 1.386 . S
C210 C212 1.391 . S
C211 C210 1.386 . S
C211 C215 1.393 . S
C212 H201 0.950 . S
C212 C210 1.391 . S
C212 C213 1.400 . S
C213 C207 1.491 . S
C213 C212 1.400 . S
C213 C214 1.398 . S
C214 H202 0.950 . S
C214 C213 1.398 . S
C214 C215 1.391 . S
C215 H203 0.950 . S
C215 C211 1.393 . S
C215 C214 1.391 . S
H216 C224 0.950 . S
H217 C229 0.950 . S
H218 C226 0.950 . S
H219 C228 0.950 . S
H220 C230 0.950 . S
H221 C232 0.950 . S
H222 C234 0.950 . S
H223 C235 0.950 . S
C224 H216 0.950 . S
C224 C225 1.386 . S
C224 C226 1.391 . S
C225 C224 1.386 . S
C225 C229 1.393 . S
C226 H218 0.950 . S
C226 C224 1.391 . S
C226 C227 1.400 . S
C227 C226 1.400 . S
C227 C228 1.398 . S
C227 C233 1.491 1_455 S
C228 H219 0.950 . S
C228 C227 1.398 . S
C228 C229 1.391 . S
C229 H217 0.950 . S
C229 C225 1.393 . S
C229 C228 1.391 . S
C230 H220 0.950 . S
C230 C231 1.386 . S
C230 C232 1.391 . S
C231 C230 1.386 . S
C231 C235 1.393 . S
C232 H221 0.950 . S
C232 C230 1.391 . S
C232 C233 1.400 . S
C233 C227 1.491 1_655 S
C233 C232 1.400 . S
C233 C234 1.398 . S
C234 H222 0.950 . S
C234 C233 1.398 . S
C234 C235 1.391 . S
C235 H223 0.950 . S
C235 C231 1.393 . S
C235 C234 1.391 . S
H236 C244 0.950 . S
H237 C249 0.950 . S
H238 C246 0.950 . S
H239 C248 0.950 . S
H240 C250 0.950 . S
H241 C252 0.950 . S
H242 C254 0.950 . S
H243 C255 0.950 . S
C244 H236 0.950 . S
C244 C245 1.386 . S
C244 C246 1.391 . S
C245 C244 1.386 . S
C245 C249 1.393 . S
C246 H238 0.950 . S
C246 C244 1.391 . S
C246 C247 1.400 . S
C247 C246 1.400 . S
C247 C248 1.398 . S
C247 C253 1.491 1_455 S
C248 H239 0.950 . S
C248 C247 1.398 . S
C248 C249 1.391 . S
C249 H237 0.950 . S
C249 C245 1.393 . S
C249 C248 1.391 . S
C250 H240 0.950 . S
C250 C251 1.386 . S
C250 C252 1.391 . S
C251 C250 1.386 . S
C251 C255 1.393 . S
C252 H241 0.950 . S
C252 C250 1.391 . S
C252 C253 1.400 . S
C253 C247 1.491 1_655 S
C253 C252 1.400 . S
C253 C254 1.398 . S
C254 H242 0.950 . S
C254 C253 1.398 . S
C254 C255 1.391 . S
C255 H243 0.950 . S
C255 C251 1.393 . S
C255 C254 1.391 . S
H256 C264 0.959 . S
H257 C269 0.950 . S
H258 C266 0.950 . S
H259 C268 0.950 . S
H260 C270 0.959 . S
H261 C272 0.950 . S
H262 C274 0.950 . S
H263 C275 0.950 . S
C264 H256 0.959 . S
C264 C265 1.386 . S
C264 C266 1.391 1_554 S
C265 C264 1.386 . S
C265 C269 1.393 . S
C266 H258 0.950 . S
C266 C264 1.391 1_556 S
C266 C267 1.400 1_556 S
C267 C266 1.400 1_554 S
C267 C268 1.398 . S
C267 C273 1.491 1_554 S
C268 H259 0.950 . S
C268 C267 1.398 . S
C268 C269 1.391 . S
C269 H257 0.950 . S
C269 C265 1.393 . S
C269 C268 1.391 . S
C270 H260 0.959 . S
C270 C271 1.386 . S
C270 C272 1.391 1_556 S
C271 C270 1.386 . S
C271 C275 1.393 . S
C272 H261 0.950 . S
C272 C270 1.391 1_554 S
C272 C273 1.400 1_554 S
C273 C267 1.491 1_556 S
C273 C272 1.400 1_556 S
C273 C274 1.398 . S
C274 H262 0.950 . S
C274 C273 1.398 . S
C274 C275 1.391 . S
C275 H263 0.950 . S
C275 C271 1.393 . S
C275 C274 1.391 . S
H276 C284 0.950 . S
H277 C289 0.950 . S
H278 C286 0.950 . S
H279 C288 0.950 . S
H280 C290 0.950 . S
H281 C292 0.950 . S
H282 C294 0.950 . S
H283 C295 0.950 . S
C284 H276 0.950 . S
C284 C285 1.386 . S
C284 C286 1.391 . S
C285 C284 1.386 . S
C285 C289 1.393 . S
C286 H278 0.950 . S
C286 C284 1.391 . S
C286 C287 1.400 . S
C287 C286 1.400 . S
C287 C288 1.398 . S
C287 C293 1.491 . S
C288 H279 0.950 . S
C288 C287 1.398 . S
C288 C289 1.391 . S
C289 H277 0.950 . S
C289 C285 1.393 . S
C289 C288 1.391 . S
C290 H280 0.950 . S
C290 C291 1.386 . S
C290 C292 1.391 . S
C291 C290 1.386 . S
C291 C295 1.393 . S
C292 H281 0.950 . S
C292 C290 1.391 . S
C292 C293 1.400 . S
C293 C287 1.491 . S
C293 C292 1.400 . S
C293 C294 1.398 . S
C294 H282 0.950 . S
C294 C293 1.398 . S
C294 C295 1.391 . S
C295 H283 0.950 . S
C295 C291 1.393 . S
C295 C294 1.391 . S
H296 C304 0.950 . S
H297 C309 0.950 . S
H298 C306 0.950 . S
H299 C308 0.950 . S
H300 C310 0.950 . S
H301 C312 0.950 . S
H302 C314 0.950 . S
H303 C315 0.950 . S
C304 H296 0.950 . S
C304 C305 1.386 . S
C304 C306 1.391 1_554 S
C305 C304 1.386 . S
C305 C309 1.393 . S
C306 H298 0.950 . S
C306 C304 1.391 1_556 S
C306 C307 1.400 1_556 S
C307 C306 1.400 1_554 S
C307 C308 1.398 . S
C307 C313 1.491 1_554 S
C308 H299 0.950 . S
C308 C307 1.398 . S
C308 C309 1.391 . S
C309 H297 0.950 . S
C309 C305 1.393 . S
C309 C308 1.391 . S
C310 H300 0.950 . S
C310 C311 1.386 . S
C310 C312 1.391 1_556 S
C311 C310 1.386 . S
C311 C315 1.393 . S
C312 H301 0.950 . S
C312 C310 1.391 1_554 S
C312 C313 1.400 1_554 S
C313 C307 1.491 1_556 S
C313 C312 1.400 1_556 S
C313 C314 1.398 . S
C314 H302 0.950 . S
C314 C313 1.398 . S
C314 C315 1.391 . S
C315 H303 0.950 . S
C315 C311 1.393 . S
C315 C314 1.391 . S
H316 C324 0.950 . S
H317 C329 0.950 . S
H318 C326 0.950 . S
H319 C328 0.950 . S
H320 C330 0.950 . S
H321 C332 0.950 . S
H322 C334 0.950 . S
H323 C335 0.950 . S
C324 H316 0.950 . S
C324 C325 1.386 . S
C324 C326 1.391 . S
C325 C324 1.386 . S
C325 C329 1.393 . S
C326 H318 0.950 . S
C326 C324 1.391 . S
C326 C327 1.400 . S
C327 C326 1.400 . S
C327 C328 1.398 . S
C327 C333 1.491 . S
C328 H319 0.950 . S
C328 C327 1.398 . S
C328 C329 1.391 . S
C329 H317 0.950 . S
C329 C325 1.393 . S
C329 C328 1.391 . S
C330 H320 0.950 . S
C330 C331 1.386 . S
C330 C332 1.391 . S
C331 C330 1.386 . S
C331 C335 1.393 . S
C332 H321 0.950 . S
C332 C330 1.391 . S
C332 C333 1.400 . S
C333 C327 1.491 . S
C333 C332 1.400 . S
C333 C334 1.398 . S
C334 H322 0.950 . S
C334 C333 1.398 . S
C334 C335 1.391 . S
C335 H323 0.950 . S
C335 C331 1.393 . S
C335 C334 1.391 . S
H336 C344 0.950 . S
H337 C349 0.950 . S
H338 C346 0.950 . S
H339 C348 0.946 1_554 S
H340 C350 0.950 . S
H341 C352 0.950 . S
H342 C354 0.946 1_556 S
H343 C355 0.950 . S
C344 H336 0.950 . S
C344 C345 1.386 . S
C344 C346 1.391 . S
C345 C344 1.386 . S
C345 C349 1.393 . S
C346 H338 0.950 . S
C346 C344 1.391 . S
C346 C347 1.400 . S
C347 C346 1.400 . S
C347 C348 1.400 . S
C347 C353 1.491 1_656 S
C348 H339 0.946 1_556 S
C348 C347 1.400 . S
C348 C349 1.393 . S
C349 H337 0.950 . S
C349 C345 1.393 . S
C349 C348 1.393 . S
C350 H340 0.950 . S
C350 C351 1.386 . S
C350 C352 1.391 . S
C351 C350 1.386 . S
C351 C355 1.393 . S
C352 H341 0.950 . S
C352 C350 1.391 . S
C352 C353 1.400 . S
C353 C347 1.491 1_454 S
C353 C352 1.400 . S
C353 C354 1.400 . S
C354 H342 0.946 1_554 S
C354 C353 1.400 . S
C354 C355 1.393 . S
C355 H343 0.950 . S
C355 C351 1.393 . S
C355 C354 1.393 . S
H356 C364 0.950 . S
H357 C369 0.950 . S
H358 C366 0.950 . S
H359 C368 0.952 1_655 S
H360 C370 0.950 . S
H361 C372 0.950 . S
H362 C374 0.952 1_455 S
H363 C375 0.950 . S
C364 H356 0.950 . S
C364 C365 1.386 . S
C364 C366 1.391 . S
C365 C364 1.386 . S
C365 C369 1.393 . S
C366 H358 0.950 . S
C366 C364 1.391 . S
C366 C367 1.400 . S
C367 C366 1.400 . S
C367 C368 1.398 . S
C367 C373 1.491 1_455 S
C368 H359 0.952 1_455 S
C368 C367 1.398 . S
C368 C369 1.391 . S
C369 H357 0.950 . S
C369 C365 1.393 . S
C369 C368 1.391 . S
C370 H360 0.950 . S
C370 C371 1.386 . S
C370 C372 1.391 . S
C371 C370 1.386 . S
C371 C375 1.393 . S
C372 H361 0.950 . S
C372 C370 1.391 . S
C372 C373 1.400 . S
C373 C367 1.491 1_655 S
C373 C372 1.400 . S
C373 C374 1.398 . S
C374 H362 0.952 1_655 S
C374 C373 1.398 . S
C374 C375 1.391 . S
C375 H363 0.950 . S
C375 C371 1.393 . S
C375 C374 1.391 . S
H376 C384 0.950 . S
H377 C389 0.950 . S
H378 C386 0.950 . S
H379 C388 0.950 . S
H380 C390 0.950 . S
H381 C392 0.950 . S
H382 C394 0.950 . S
H383 C395 0.950 . S
C384 H376 0.950 . S
C384 C385 1.386 . S
C384 C386 1.391 1_564 S
C385 C384 1.386 . S
C385 C389 1.393 . S
C386 H378 0.950 . S
C386 C384 1.391 1_546 S
C386 C387 1.400 1_546 S
C387 C386 1.400 1_564 S
C387 C388 1.398 . S
C387 C393 1.491 1_564 S
C388 H379 0.950 . S
C388 C387 1.398 . S
C388 C389 1.391 . S
C389 H377 0.950 . S
C389 C385 1.393 . S
C389 C388 1.391 . S
C390 H380 0.950 . S
C390 C391 1.386 . S
C390 C392 1.391 1_546 S
C391 C390 1.386 . S
C391 C395 1.393 . S
C392 H381 0.950 . S
C392 C390 1.391 1_564 S
C392 C393 1.400 1_564 S
C393 C387 1.491 1_546 S
C393 C392 1.400 1_546 S
C393 C394 1.398 . S
C394 H382 0.950 . S
C394 C393 1.398 . S
C394 C395 1.391 . S
C395 H383 0.950 . S
C395 C391 1.393 . S
C395 C394 1.391 . S
H396 C404 0.937 1_545 S
H397 C409 0.950 . S
H398 C406 0.950 . S
H399 C408 0.950 . S
H400 C410 0.937 1_565 S
H401 C412 0.950 . S
H402 C414 0.950 . S
H403 C415 0.950 . S
C404 H396 0.937 1_565 S
C404 C405 1.407 . S
C404 C406 1.383 1_565 S
C405 C404 1.407 . S
C405 C409 1.393 . S
C406 H398 0.950 . S
C406 C404 1.383 1_545 S
C406 C407 1.400 1_545 S
C407 C406 1.400 1_565 S
C407 C408 1.398 . S
C407 C413 1.491 1_565 S
C408 H399 0.950 . S
C408 C407 1.398 . S
C408 C409 1.391 . S
C409 H397 0.950 . S
C409 C405 1.393 . S
C409 C408 1.391 . S
C410 H400 0.937 1_545 S
C410 C411 1.407 . S
C410 C412 1.383 1_545 S
C411 C410 1.407 . S
C411 C415 1.393 . S
C412 H401 0.950 . S
C412 C410 1.383 1_565 S
C412 C413 1.400 1_565 S
C413 C407 1.491 1_545 S
C413 C412 1.400 1_545 S
C413 C414 1.398 . S
C414 H402 0.950 . S
C414 C413 1.398 . S
C414 C415 1.391 . S
C415 H403 0.950 . S
C415 C411 1.393 . S
C415 C414 1.391 . S
H416 C424 0.950 . S
H417 C429 0.950 . S
H418 C426 0.950 . S
H419 C428 0.950 . S
H420 C430 0.950 . S
H421 C432 0.950 . S
H422 C434 0.950 . S
H423 C435 0.950 . S
C424 H416 0.950 . S
C424 C425 1.386 . S
C424 C426 1.391 . S
C425 C424 1.386 . S
C425 C429 1.393 . S
C426 H418 0.950 . S
C426 C424 1.391 . S
C426 C427 1.400 . S
C427 C426 1.400 . S
C427 C428 1.398 . S
C427 C433 1.491 1_455 S
C428 H419 0.950 . S
C428 C427 1.398 . S
C428 C429 1.391 . S
C429 H417 0.950 . S
C429 C425 1.393 . S
C429 C428 1.391 . S
C430 H420 0.950 . S
C430 C431 1.386 . S
C430 C432 1.391 . S
C431 C430 1.386 . S
C431 C435 1.393 . S
C432 H421 0.950 . S
C432 C430 1.391 . S
C432 C433 1.400 . S
C433 C427 1.491 1_655 S
C433 C432 1.400 . S
C433 C434 1.398 . S
C434 H422 0.950 . S
C434 C433 1.398 . S
C434 C435 1.391 . S
C435 H423 0.950 . S
C435 C431 1.393 . S
C435 C434 1.391 . S
H436 C444 0.950 . S
H437 C449 0.950 . S
H438 C446 0.950 1_655 S
H439 C448 0.950 . S
H440 C450 0.950 . S
H441 C452 0.950 1_455 S
H442 C454 0.950 . S
H443 C455 0.950 . S
C444 H436 0.950 . S
C444 C445 1.386 . S
C444 C446 1.391 . S
C445 C444 1.386 . S
C445 C449 1.393 . S
C446 H438 0.950 1_455 S
C446 C444 1.391 . S
C446 C447 1.400 . S
C447 C446 1.400 . S
C447 C448 1.398 . S
C447 C453 1.491 1_455 S
C448 H439 0.950 . S
C448 C447 1.398 . S
C448 C449 1.391 . S
C449 H437 0.950 . S
C449 C445 1.393 . S
C449 C448 1.391 . S
C450 H440 0.950 . S
C450 C451 1.386 . S
C450 C452 1.391 . S
C451 C450 1.386 . S
C451 C455 1.393 . S
C452 H441 0.950 1_655 S
C452 C450 1.391 . S
C452 C453 1.400 . S
C453 C447 1.491 1_655 S
C453 C452 1.400 . S
C453 C454 1.398 . S
C454 H442 0.950 . S
C454 C453 1.398 . S
C454 C455 1.391 . S
C455 H443 0.950 . S
C455 C451 1.393 . S
C455 C454 1.391 . S
H456 C464 0.950 . S
H457 C469 0.950 . S
H458 C466 0.950 . S
H459 C468 0.950 . S
H460 C470 0.950 . S
H461 C472 0.950 . S
H462 C474 0.950 . S
H463 C475 0.950 . S
C464 H456 0.950 . S
C464 C465 1.386 . S
C464 C466 1.391 . S
C465 C464 1.386 . S
C465 C469 1.393 . S
C466 H458 0.950 . S
C466 C464 1.391 . S
C466 C467 1.400 . S
C467 C466 1.400 . S
C467 C468 1.398 . S
C467 C473 1.491 . S
C468 H459 0.950 . S
C468 C467 1.398 . S
C468 C469 1.391 . S
C469 H457 0.950 . S
C469 C465 1.393 . S
C469 C468 1.391 . S
C470 H460 0.950 . S
C470 C471 1.386 . S
C470 C472 1.391 . S
C471 C470 1.386 . S
C471 C475 1.393 . S
C472 H461 0.950 . S
C472 C470 1.391 . S
C472 C473 1.400 . S
C473 C467 1.491 . S
C473 C472 1.400 . S
C473 C474 1.398 . S
C474 H462 0.950 . S
C474 C473 1.398 . S
C474 C475 1.391 . S
C475 H463 0.950 . S
C475 C471 1.393 . S
C475 C474 1.391 . S
H476 C484 0.950 . S
H477 C489 0.950 . S
H478 C486 0.950 . S
H479 C488 0.950 . S
H480 C490 0.950 . S
H481 C492 0.950 . S
H482 C494 0.950 . S
H483 C495 0.950 . S
C484 H476 0.950 . S
C484 C485 1.386 . S
C484 C486 1.391 . S
C485 C484 1.386 . S
C485 C489 1.393 . S
C486 H478 0.950 . S
C486 C484 1.391 . S
C486 C487 1.400 . S
C487 C486 1.400 . S
C487 C488 1.398 . S
C487 C493 1.491 . S
C488 H479 0.950 . S
C488 C487 1.398 . S
C488 C489 1.391 . S
C489 H477 0.950 . S
C489 C485 1.393 . S
C489 C488 1.391 . S
C490 H480 0.950 . S
C490 C491 1.386 . S
C490 C492 1.391 . S
C491 C490 1.386 . S
C491 C495 1.393 . S
C492 H481 0.950 . S
C492 C490 1.391 . S
C492 C493 1.400 . S
C493 C487 1.491 . S
C493 C492 1.400 . S
C493 C494 1.398 . S
C494 H482 0.950 . S
C494 C493 1.398 . S
C494 C495 1.391 . S
C495 H483 0.950 . S
C495 C491 1.393 . S
C495 C494 1.391 . S
H496 C504 0.950 . S
H497 C509 0.950 1_554 S
H498 C506 0.950 . S
H499 C508 0.950 . S
H500 C510 0.950 . S
H501 C512 0.950 . S
H502 C514 0.950 . S
H503 C515 0.950 . S
C504 H496 0.950 . S
C504 C505 1.386 . S
C504 C506 1.391 . S
C505 C504 1.386 . S
C505 C509 1.393 . S
C506 H498 0.950 . S
C506 C504 1.391 . S
C506 C507 1.400 . S
C507 C506 1.400 . S
C507 C508 1.398 . S
C507 C513 1.491 . S
C508 H499 0.950 . S
C508 C507 1.398 . S
C508 C509 1.391 . S
C509 H497 0.950 1_556 S
C509 C505 1.393 . S
C509 C508 1.391 . S
C510 H500 0.950 . S
C510 C511 1.386 . S
C510 C512 1.391 . S
C511 C510 1.386 . S
C511 C515 1.393 . S
C512 H501 0.950 . S
C512 C510 1.391 . S
C512 C513 1.400 . S
C513 C507 1.491 . S
C513 C512 1.400 . S
C513 C514 1.398 . S
C514 H502 0.950 . S
C514 C513 1.398 . S
C514 C515 1.391 . S
C515 H503 0.950 . S
C515 C511 1.393 . S
C515 C514 1.391 . S
H516 C524 0.950 . S
H517 C529 0.950 . S
H518 C526 0.950 . S
H519 C528 0.950 . S
H520 C530 0.950 . S
H521 C532 0.950 . S
H522 C534 0.950 . S
H523 C535 0.950 . S
C524 H516 0.950 . S
C524 C525 1.386 . S
C524 C526 1.391 . S
C525 C524 1.386 . S
C525 C529 1.393 . S
C526 H518 0.950 . S
C526 C524 1.391 . S
C526 C527 1.400 . S
C527 C526 1.400 . S
C527 C528 1.398 . S
C527 C533 1.491 . S
C528 H519 0.950 . S
C528 C527 1.398 . S
C528 C529 1.391 . S
C529 H517 0.950 . S
C529 C525 1.393 . S
C529 C528 1.391 . S
C530 H520 0.950 . S
C530 C531 1.386 . S
C530 C532 1.391 . S
C531 C530 1.386 . S
C531 C535 1.393 . S
C532 H521 0.950 . S
C532 C530 1.391 . S
C532 C533 1.400 . S
C533 C527 1.491 . S
C533 C532 1.400 . S
C533 C534 1.398 . S
C534 H522 0.950 . S
C534 C533 1.398 . S
C534 C535 1.391 . S
C535 H523 0.950 . S
C535 C531 1.393 . S
C535 C534 1.391 . S
H536 C544 0.950 . S
H537 C549 0.950 . S
H538 C546 0.950 . S
H539 C548 0.950 . S
H540 C550 0.961 . S
H541 C552 0.950 . S
H542 C554 0.950 . S
H543 C555 0.950 . S
C544 H536 0.950 . S
C544 C545 1.386 . S
C544 C546 1.391 . S
C545 C544 1.386 . S
C545 C549 1.393 . S
C546 H538 0.950 . S
C546 C544 1.391 . S
C546 C547 1.400 . S
C547 C546 1.400 . S
C547 C548 1.398 . S
C547 C553 1.491 . S
C548 H539 0.950 . S
C548 C547 1.398 . S
C548 C549 1.391 . S
C549 H537 0.950 . S
C549 C545 1.393 . S
C549 C548 1.391 . S
C550 H540 0.961 . S
C550 C551 1.386 . S
C550 C552 1.391 . S
C551 C550 1.386 . S
C551 C555 1.393 . S
C552 H541 0.950 . S
C552 C550 1.391 . S
C552 C553 1.400 . S
C553 C547 1.491 . S
C553 C552 1.400 . S
C553 C554 1.398 . S
C554 H542 0.950 . S
C554 C553 1.398 . S
C554 C555 1.391 . S
C555 H543 0.950 . S
C555 C551 1.393 . S
C555 C554 1.391 . S
H556 C564 0.950 . S
H557 C569 0.950 . S
H558 C566 0.950 . S
H559 C568 0.950 . S
H560 C570 0.950 . S
H561 C572 0.950 . S
H562 C574 0.950 . S
H563 C575 0.950 . S
C564 H556 0.950 . S
C564 C565 1.386 . S
C564 C566 1.391 . S
C565 C564 1.386 . S
C565 C569 1.393 . S
C566 H558 0.950 . S
C566 C564 1.391 . S
C566 C567 1.400 . S
C567 C566 1.400 . S
C567 C568 1.398 . S
C567 C573 1.491 . S
C568 H559 0.950 . S
C568 C567 1.398 . S
C568 C569 1.391 . S
C569 H557 0.950 . S
C569 C565 1.393 . S
C569 C568 1.391 . S
C570 H560 0.950 . S
C570 C571 1.386 . S
C570 C572 1.391 . S
C571 C570 1.386 . S
C571 C575 1.393 . S
C572 H561 0.950 . S
C572 C570 1.391 . S
C572 C573 1.400 . S
C573 C567 1.491 . S
C573 C572 1.400 . S
C573 C574 1.398 . S
C574 H562 0.950 . S
C574 C573 1.398 . S
C574 C575 1.391 . S
C575 H563 0.950 . S
C575 C571 1.393 . S
C575 C574 1.391 . S
H576 C584 0.950 . S
H577 C589 0.950 . S
H578 C586 0.950 . S
H579 C588 0.950 . S
H580 C590 0.950 . S
H581 C592 0.950 . S
H582 C594 0.950 1_565 S
H583 C595 0.950 . S
C584 H576 0.950 . S
C584 C585 1.386 . S
C584 C586 1.391 . S
C585 C584 1.386 . S
C585 C589 1.393 . S
C586 H578 0.950 . S
C586 C584 1.391 . S
C586 C587 1.400 . S
C587 C586 1.400 . S
C587 C588 1.398 . S
C587 C593 1.483 1_565 S
C588 H579 0.950 . S
C588 C587 1.398 . S
C588 C589 1.391 . S
C589 H577 0.950 . S
C589 C585 1.393 . S
C589 C588 1.391 . S
C590 H580 0.950 . S
C590 C591 1.386 . S
C590 C592 1.391 . S
C591 C590 1.386 . S
C591 C595 1.393 . S
C592 H581 0.950 . S
C592 C590 1.391 . S
C592 C593 1.408 . S
C593 C587 1.483 1_545 S
C593 C592 1.408 . S
C593 C594 1.399 . S
C594 H582 0.950 1_545 S
C594 C593 1.399 . S
C594 C595 1.391 . S
C595 H583 0.950 . S
C595 C591 1.393 . S
C595 C594 1.391 . S
H596 C604 0.950 . S
H597 C609 0.950 . S
H598 C606 0.950 . S
H599 C608 0.950 1_565 S
H600 C610 0.950 . S
H601 C612 0.950 . S
H602 C614 0.950 . S
H603 C615 0.950 . S
C604 H596 0.950 . S
C604 C605 1.386 . S
C604 C606 1.391 . S
C605 C604 1.386 . S
C605 C609 1.393 . S
C606 H598 0.950 . S
C606 C604 1.391 . S
C606 C607 1.392 1_545 S
C607 C606 1.392 1_565 S
C607 C608 1.397 1_565 S
C607 C613 1.500 . S
C608 H599 0.950 1_545 S
C608 C607 1.397 1_545 S
C608 C609 1.391 . S
C609 H597 0.950 . S
C609 C605 1.393 . S
C609 C608 1.391 . S
C610 H600 0.950 . S
C610 C611 1.386 . S
C610 C612 1.391 . S
C611 C610 1.386 . S
C611 C615 1.393 . S
C612 H601 0.950 . S
C612 C610 1.391 . S
C612 C613 1.400 . S
C613 C607 1.500 . S
C613 C612 1.400 . S
C613 C614 1.398 . S
C614 H602 0.950 . S
C614 C613 1.398 . S
C614 C615 1.391 . S
C615 H603 0.950 . S
C615 C611 1.393 . S
C615 C614 1.391 . S
H616 C624 0.950 . S
H617 C629 0.950 . S
H618 C626 0.950 . S
H619 C628 0.950 . S
H620 C630 0.950 . S
H621 C632 0.950 . S
H622 C634 0.950 1_565 S
H623 C635 0.950 . S
C624 H616 0.950 . S
C624 C625 1.386 . S
C624 C626 1.391 . S
C625 C624 1.386 . S
C625 C629 1.393 . S
C626 H618 0.950 . S
C626 C624 1.391 . S
C626 C627 1.406 . S
C627 C626 1.406 . S
C627 C628 1.397 1_565 S
C627 C633 1.486 1_565 S
C628 H619 0.950 . S
C628 C627 1.397 1_545 S
C628 C629 1.391 1_545 S
C629 H617 0.950 . S
C629 C625 1.393 . S
C629 C628 1.391 1_565 S
C630 H620 0.950 . S
C630 C631 1.386 . S
C630 C632 1.391 . S
C631 C630 1.386 . S
C631 C635 1.393 . S
C632 H621 0.950 . S
C632 C630 1.391 . S
C632 C633 1.400 . S
C633 C627 1.486 1_545 S
C633 C632 1.400 . S
C633 C634 1.398 . S
C634 H622 0.950 1_545 S
C634 C633 1.398 . S
C634 C635 1.391 . S
C635 H623 0.950 . S
C635 C631 1.393 . S
C635 C634 1.391 . S
H636 C644 0.950 . S
H637 C649 0.950 . S
H638 C646 0.950 1_565 S
H639 C648 0.950 . S
H640 C650 0.950 . S
H641 C652 0.950 . S
H642 C654 0.950 . S
H643 C655 0.950 . S
C644 H636 0.950 . S
C644 C645 1.386 . S
C644 C646 1.391 . S
C645 C644 1.386 . S
C645 C649 1.393 . S
C646 H638 0.950 1_545 S
C646 C644 1.391 . S
C646 C647 1.400 . S
C647 C646 1.400 . S
C647 C648 1.398 . S
C647 C653 1.485 1_545 S
C648 H639 0.950 . S
C648 C647 1.398 . S
C648 C649 1.391 . S
C649 H637 0.950 . S
C649 C645 1.393 . S
C649 C648 1.391 . S
C650 H640 0.950 . S
C650 C651 1.386 . S
C650 C652 1.391 1_565 S
C651 C650 1.386 . S
C651 C655 1.393 . S
C652 H641 0.950 . S
C652 C650 1.391 1_545 S
C652 C653 1.398 1_545 S
C653 C647 1.485 1_565 S
C653 C652 1.398 1_565 S
C653 C654 1.406 . S
C654 H642 0.950 . S
C654 C653 1.406 . S
C654 C655 1.391 . S
C655 H643 0.950 . S
C655 C651 1.393 . S
C655 C654 1.391 . S
C185 C40 1.361 . S
C191 C8 1.361 . S
C205 C62 1.358 . S
C211 C74 1.359 . S
C225 C128 1.359 . S
C231 C96 1.358 . S
C245 C150 1.357 . S
C251 C162 1.357 . S
C265 C18 1.625 . S
C271 C142 1.625 . S
C285 C32 1.629 . S
C291 C172 1.629 . S
C305 C106 1.621 . S
C311 C54 1.621 . S
C325 C84 1.628 . S
C331 C120 1.628 . S
C345 C65 0.993 . S
C351 C15 0.993 . S
C365 C81 1.012 . S
C371 C43 1.012 . S
C385 C103 0.977 . S
C391 C153 0.977 . S
C405 C131 0.997 . S
C411 C169 0.997 . S
C425 C7 1.547 . S
C431 C37 1.544 . S
C445 C73 1.542 . S
C451 C59 1.551 . S
C465 C125 1.553 . S
C471 C95 1.554 . S
C485 C161 1.550 . S
C491 C147 1.543 . S
C505 C10 1.248 1_556 S
C511 C87 1.297 . S
C525 C30 1.258 . S
C531 C51 1.302 . S
C545 C29 1.307 . S
C551 C52 1.275 1_554 S
C565 C21 1.304 . S
C571 C76 1.267 . S
C585 C98 1.268 1_556 S
C591 C175 1.304 . S
C605 C139 1.298 . S
C611 C118 1.247 . S
C625 C117 1.302 . S
C631 C140 1.263 1_554 S
C645 C164 1.264 . S
C651 C109 1.303 . S
