# Generated by pormake.
# Topology smc, (6)-cn, num edge types: 1
# Building blocks:
#     Node 0, Type 0, BuildingBlock: KUMJIN_clean_sbu_0, # of connection points: 6
#     Node 1, Type 0, BuildingBlock: KUMJIN_clean_sbu_0, # of connection points: 6
#     Node 2, Type 0, BuildingBlock: KUMJIN_clean_sbu_0, # of connection points: 6
#     Node 3, Type 0, BuildingBlock: KUMJIN_clean_sbu_0, # of connection points: 6
#     Node 4, Type 0, BuildingBlock: KUMJIN_clean_sbu_0, # of connection points: 6
#     Node 5, Type 0, BuildingBlock: KUMJIN_clean_sbu_0, # of connection points: 6
#     Node 6, Type 0, BuildingBlock: KUMJIN_clean_sbu_0, # of connection points: 6
#     Node 7, Type 0, BuildingBlock: KUMJIN_clean_sbu_0, # of connection points: 6
#     Node 8, Type 0, BuildingBlock: KUMJIN_clean_sbu_0, # of connection points: 6
#     Edge 9, Type (0, 0), BuildingBlock: OJICUG_clean_linker_0, # of connection points: 2
#     Edge 10, Type (0, 0), BuildingBlock: OJICUG_clean_linker_0, # of connection points: 2
#     Edge 11, Type (0, 0), BuildingBlock: OJICUG_clean_linker_0, # of connection points: 2
#     Edge 12, Type (0, 0), BuildingBlock: OJICUG_clean_linker_0, # of connection points: 2
#     Edge 13, Type (0, 0), BuildingBlock: OJICUG_clean_linker_0, # of connection points: 2
#     Edge 14, Type (0, 0), BuildingBlock: OJICUG_clean_linker_0, # of connection points: 2
#     Edge 15, Type (0, 0), BuildingBlock: OJICUG_clean_linker_0, # of connection points: 2
#     Edge 16, Type (0, 0), BuildingBlock: OJICUG_clean_linker_0, # of connection points: 2
#     Edge 17, Type (0, 0), BuildingBlock: OJICUG_clean_linker_0, # of connection points: 2
#     Edge 18, Type (0, 0), BuildingBlock: OJICUG_clean_linker_0, # of connection points: 2
#     Edge 19, Type (0, 0), BuildingBlock: OJICUG_clean_linker_0, # of connection points: 2
#     Edge 20, Type (0, 0), BuildingBlock: OJICUG_clean_linker_0, # of connection points: 2
#     Edge 21, Type (0, 0), BuildingBlock: OJICUG_clean_linker_0, # of connection points: 2
#     Edge 22, Type (0, 0), BuildingBlock: OJICUG_clean_linker_0, # of connection points: 2
#     Edge 23, Type (0, 0), BuildingBlock: OJICUG_clean_linker_0, # of connection points: 2
#     Edge 24, Type (0, 0), BuildingBlock: OJICUG_clean_linker_0, # of connection points: 2
#     Edge 25, Type (0, 0), BuildingBlock: OJICUG_clean_linker_0, # of connection points: 2
#     Edge 26, Type (0, 0), BuildingBlock: OJICUG_clean_linker_0, # of connection points: 2
#     Edge 27, Type (0, 0), BuildingBlock: OJICUG_clean_linker_0, # of connection points: 2
#     Edge 28, Type (0, 0), BuildingBlock: OJICUG_clean_linker_0, # of connection points: 2
#     Edge 29, Type (0, 0), BuildingBlock: OJICUG_clean_linker_0, # of connection points: 2
#     Edge 30, Type (0, 0), BuildingBlock: OJICUG_clean_linker_0, # of connection points: 2
#     Edge 31, Type (0, 0), BuildingBlock: OJICUG_clean_linker_0, # of connection points: 2
#     Edge 32, Type (0, 0), BuildingBlock: OJICUG_clean_linker_0, # of connection points: 2
#     Edge 33, Type (0, 0), BuildingBlock: OJICUG_clean_linker_0, # of connection points: 2
#     Edge 34, Type (0, 0), BuildingBlock: OJICUG_clean_linker_0, # of connection points: 2
#     Edge 35, Type (0, 0), BuildingBlock: OJICUG_clean_linker_0, # of connection points: 2
# Relax obj value: 0.112
# Max RMSD: 0.304
# Mean RMSD: 0.304
data_MOF--net-smc--node1-KUMJIN_clean_sbu_0--edge1-OJICUG_clean_linker_0
_symmetry_space_group_name_H-M    P1
_symmetry_Int_Tables_number       1
_symmetry_cell_setting            triclinic
loop_
_symmetry_equiv_pos_as_xyz
'x, y, z'
_cell_length_a     29.500638
_cell_length_b     29.473667
_cell_length_c     29.000201
_cell_angle_alpha  89.909623
_cell_angle_beta   90.180014
_cell_angle_gamma 119.92796
loop_
_atom_site_label
_atom_site_type_symbol
_atom_site_fract_x
_atom_site_fract_y
_atom_site_fract_z
_atom_type_partial_charge
Eu0 Eu 0.0793 0.52579 0.97356 0.0
C1 C 1.03123 0.32881 0.09136 0.0
C2 C 0.07177 0.28784 0.04892 0.0
C3 C 0.06287 0.27792 0.13205 0.0
C4 C 0.04837 0.31948 0.05 0.0
C5 C 1.0371 0.30706 0.1327 0.0
C6 C 0.08005 0.26818 0.09026 0.0
C7 C 0.98802 0.34107 0.17152 0.0
N8 N 1.00698 0.35766 0.09089 0.0
C9 C 0.9835 0.36222 0.12983 0.0
C10 C 1.01565 0.31408 0.17316 0.0
Eu11 Eu 1.00305 0.39398 0.01903 0.0
N12 N 1.04016 0.3394 0.01061 0.0
C13 C 0.05097 0.32593 0.96868 0.0
C14 C 0.08516 0.27597 1.00624 0.0
C15 C 0.07398 0.29444 0.96597 0.0
H16 H 0.96164 0.38255 0.12914 0.0
H17 H 0.08365 0.28479 0.93293 0.0
H18 H 0.09868 0.24447 0.09017 0.0
H19 H 0.96988 0.34545 0.20222 0.0
H20 H 0.04315 0.34022 0.93717 0.0
H21 H 0.08932 0.6202 0.13994 0.0
H22 H 0.10319 0.25179 1.00394 0.0
H23 H 1.02209 0.5341 0.87203 0.0
H24 H 0.09509 0.55791 0.08934 0.0
H25 H 0.9784 0.57922 0.84249 0.0
H26 H 0.06875 0.26183 0.16347 0.0
H27 H 0.0565 0.67698 0.11033 0.0
H28 H 1.02046 0.70404 0.0449 0.0
H29 H 1.01872 0.29746 0.20545 0.0
H30 H 0.98751 0.69064 0.9655 0.0
N31 N 0.06501 0.57667 0.02971 0.0
C32 C 0.08025 0.58124 0.07491 0.0
C33 C 0.05876 0.64915 0.08744 0.0
C34 C 0.04263 0.64427 0.04151 0.0
C35 C 0.07714 0.6171 0.10428 0.0
C36 C 0.04596 0.60708 0.01305 0.0
H37 H 0.96956 0.64289 0.89104 0.0
N38 N 1.03042 0.56311 0.94134 0.0
C39 C 0.99104 0.58457 0.87814 0.0
C40 C 1.02762 0.59967 0.96798 0.0
C41 C 1.01426 0.55705 0.89613 0.0
C42 C 0.98667 0.62088 0.90546 0.0
C43 C 1.00579 0.62953 0.95057 0.0
O44 O 0.12954 0.57702 0.91855 0.0
O45 O 0.08299 0.45415 0.98958 0.0
O46 O 0.06328 0.43317 0.07362 0.0
O47 O 0.12095 0.51403 0.03951 0.0
O48 O 0.10847 0.48665 0.92547 0.0
O49 O 0.15426 0.59692 0.989 0.0
O50 O 0.91938 0.36136 0.03195 0.0
O51 O 1.00119 0.46677 0.99867 0.0
O52 O 1.02562 0.47194 0.91467 0.0
O53 O 0.99789 0.3882 0.94237 0.0
O54 O 0.97244 0.43591 0.06339 0.0
O55 O 0.94524 0.31749 0.99143 0.0
C56 C 0.1092 0.45383 0.95476 0.0
C57 C 0.17263 0.66784 0.93831 0.0
C58 C 0.22465 0.76321 0.94947 0.0
C59 C 0.21796 0.71242 0.95555 0.0
C60 C 0.18524 0.76867 0.92755 0.0
C61 C 0.13641 0.67578 0.91308 0.0
C62 C 0.14173 0.72527 0.90904 0.0
C63 C 0.10722 0.47812 0.07353 0.0
C64 C 0.16239 0.61335 0.94646 0.0
C65 C 1.0038 0.66729 0.97848 0.0
C66 C 1.02253 0.6749 0.02369 0.0
C67 C 0.97935 0.47161 0.0342 0.0
C68 C 0.86832 0.26999 0.03604 0.0
C69 C 0.81433 0.25195 0.03289 0.0
C70 C 0.77815 0.20814 0.05863 0.0
C71 C 0.79737 0.18323 0.08783 0.0
C72 C 0.88621 0.24389 0.06475 0.0
C73 C 0.85085 0.20087 0.0906 0.0
C74 C 1.00012 0.41999 0.90967 0.0
C75 C 0.90554 0.31751 0.01097 0.0
H76 H 0.2481 0.70782 0.97272 0.0
H77 H 0.18973 0.80711 0.92217 0.0
H78 H 0.1039 0.64383 0.89591 0.0
H79 H 0.11266 0.73017 0.89029 0.0
H80 H 0.80079 0.27263 0.01099 0.0
H81 H 0.77105 0.1492 0.10789 0.0
H82 H 0.92745 0.25683 0.06736 0.0
H83 H 0.86494 0.18098 0.11282 0.0
Eu84 Eu 0.55366 0.56389 0.98253 0.0
C85 C 0.75236 0.72683 0.0882 0.0
C86 C 0.77774 0.80696 0.04618 0.0
C87 C 0.79395 0.81029 0.12858 0.0
C88 C 0.75444 0.75194 0.04729 0.0
C89 C 0.77257 0.75576 0.12913 0.0
C90 C 0.79673 0.83589 0.08711 0.0
C91 C 0.75229 0.67529 0.16794 0.0
N92 N 0.73057 0.67392 0.08795 0.0
C93 C 0.73301 0.64825 0.12644 0.0
C94 C 0.77095 0.72908 0.16942 0.0
Eu95 Eu 0.69053 0.63063 0.01785 0.0
N96 N 0.73459 0.72279 1.00844 0.0
C97 C 0.74062 0.74666 0.9667 0.0
C98 C 0.78137 0.83135 1.00395 0.0
C99 C 0.7632 0.80115 0.96405 0.0
H100 H 0.71855 0.60667 0.12575 0.0
H101 H 0.76555 0.82002 0.93159 0.0
H102 H 0.81412 0.8781 0.08697 0.0
H103 H 0.75232 0.65456 0.19875 0.0
H104 H 0.72635 0.72391 0.93551 0.0
H105 H 0.47776 0.47948 0.15363 0.0
H106 H 0.79847 0.87346 1.00168 0.0
H107 H 0.5393 0.49877 0.88008 0.0
H108 H 0.53205 0.54822 0.09994 0.0
H109 H 0.49567 0.40934 0.85149 0.0
H110 H 0.80917 0.83307 0.15987 0.0
H111 H 0.42238 0.38876 0.1262 0.0
H112 H 0.39195 0.32507 0.06126 0.0
H113 H 0.78474 0.75005 0.2015 0.0
H114 H 0.39929 0.30563 0.98036 0.0
N115 N 0.51061 0.49879 0.0407 0.0
C116 C 0.50944 0.50961 0.08643 0.0
C117 C 0.44682 0.4192 0.10196 0.0
C118 C 0.44808 0.40784 0.05542 0.0
C119 C 0.47806 0.47023 0.11756 0.0
C120 C 0.481 0.4488 0.02517 0.0
H121 H 0.43943 0.33612 0.90301 0.0
N122 N 0.51728 0.47773 0.95082 0.0
C123 C 0.49313 0.41664 0.8877 0.0
C124 C 0.48481 0.43792 0.97924 0.0
C125 C 0.5199 0.46768 0.90492 0.0
C126 C 0.46096 0.37552 0.91674 0.0
C127 C 0.4557 0.38586 0.96278 0.0
O128 O 0.49876 0.5618 0.93042 0.0
O129 O 0.6233 0.64289 0.99271 0.0
O130 O 0.65192 0.64436 0.07725 0.0
O131 O 0.56784 0.61751 0.04854 0.0
O132 O 0.58304 0.62869 0.93089 0.0
O133 O 0.48038 0.56156 1.00214 0.0
O134 O 0.72847 0.58295 0.01964 0.0
O135 O 0.61927 0.55263 1.00338 0.0
O136 O 0.60555 0.56005 0.92401 0.0
O137 O 0.68812 0.62923 0.94104 0.0
O138 O 0.65924 0.55873 0.06396 0.0
O139 O 0.76894 0.65976 0.98942 0.0
C140 C 0.61801 0.66506 0.95682 0.0
C141 C 0.40859 0.51141 0.95126 0.0
C142 C 0.31287 0.46907 0.95874 0.0
C143 C 0.36358 0.51275 0.96627 0.0
C144 C 0.30802 0.42406 0.93762 0.0
C145 C 0.40127 0.46711 0.9269 0.0
C146 C 0.35191 0.4234 0.92141 0.0
C147 C 0.60615 0.64118 0.08038 0.0
C148 C 0.46283 0.55567 0.95996 0.0
C149 C 0.42208 0.3456 0.99257 0.0
C150 C 0.41795 0.35665 0.03863 0.0
C151 C 0.62053 0.52754 0.03818 0.0
C152 C 0.81977 0.6285 0.02701 0.0
C153 C 0.83695 0.59178 0.02364 0.0
C154 C 0.8808 0.59855 0.04899 0.0
C155 C 0.90711 0.64297 0.07753 0.0
C156 C 0.84681 0.67238 0.05563 0.0
C157 C 0.89028 0.67949 0.08065 0.0
C158 C 0.65584 0.59147 0.91369 0.0
C159 C 0.77213 0.61909 1.00234 0.0
H160 H 0.36782 0.54756 0.9829 0.0
H161 H 0.26983 0.39035 0.93109 0.0
H162 H 0.4335 0.46629 0.91108 0.0
H163 H 0.34756 0.3894 0.90321 0.0
H164 H 0.81543 0.55751 1.00206 0.0
H165 H 0.94137 0.65011 0.09708 0.0
H166 H 0.83422 0.701 0.05889 0.0
H167 H 0.91102 0.71345 0.10265 0.0
Eu168 Eu 0.51305 1.00188 0.97918 0.0
C169 C 0.35997 0.04015 0.09485 0.0
C170 C 0.27724 0.98798 0.0557 0.0
C171 C 0.27946 0.99745 0.13905 0.0
C172 C 0.33226 1.01844 0.05466 0.0
C173 C 0.33399 0.03026 0.13741 0.0
C174 C 0.25107 0.97675 0.0982 0.0
C175 C 0.41698 0.08984 0.173 0.0
N176 N 0.4127 0.07124 0.09227 0.0
C177 C 0.4408 0.09915 0.12994 0.0
C178 C 0.36377 0.05385 0.17692 0.0
Eu179 Eu 0.45131 0.07395 0.02006 0.0
N180 N 0.35893 0.02858 0.01436 0.0
C181 C 0.33265 1.01385 0.97336 0.0
C182 C 0.25018 0.9703 0.01393 0.0
C183 C 0.27796 0.9841 0.97256 0.0
H184 H 0.48192 0.12726 0.12744 0.0
H185 H 0.2572 0.97108 0.94014 0.0
H186 H 0.20888 0.95264 0.09979 0.0
H187 H 0.43986 0.10999 0.20311 0.0
H188 H 0.35362 1.02385 0.94126 0.0
H189 H 0.59473 0.99071 0.14718 0.0
H190 H 0.2079 0.94681 0.0132 0.0
H191 H 0.57932 0.05814 0.87884 0.0
H192 H 0.52663 0.98007 0.09425 0.0
H193 H 0.66891 0.10613 0.85141 0.0
H194 H 0.25872 0.98873 0.1715 0.0
H195 H 0.68616 0.0311 0.12091 0.0
H196 H 0.75081 0.07122 0.05747 0.0
H197 H 0.34614 0.04527 0.21047 0.0
H198 H 0.77131 0.10517 0.97853 0.0
N199 N 0.57731 1.01764 0.03713 0.0
C200 C 0.56568 0.99972 0.08155 0.0
C201 C 0.65609 1.02749 0.09716 0.0
C202 C 0.66815 0.04507 0.05172 0.0
C203 C 0.60466 1.00496 0.11215 0.0
C204 C 0.6276 0.0399 0.02209 0.0
H205 H 0.74167 0.1204 0.90267 0.0
N206 N 0.59959 0.05318 0.94912 0.0
C207 C 0.66127 0.09404 0.88714 0.0
C208 C 0.63909 0.05862 0.97721 0.0
C209 C 0.61008 0.06843 0.90379 0.0
C210 C 0.70213 0.1015 0.91601 0.0
C211 C 0.69133 0.08278 0.9612 0.0
O212 O 0.51759 0.95303 0.92454 0.0
O213 O 0.43487 0.99373 0.99197 0.0
O214 O 0.43998 1.0208 0.07877 0.0
O215 O 0.45852 0.96028 0.04419 0.0
O216 O 0.44765 0.97065 0.92816 0.0
O217 O 0.51113 0.92783 0.99501 0.0
O218 O 0.50341 0.15933 0.01763 0.0
O219 O 0.52793 0.07887 1.00338 0.0
O220 O 0.51546 0.05889 0.92174 0.0
O221 O 0.44778 0.0725 0.94334 0.0
O222 O 0.52281 0.10896 0.06642 0.0
O223 O 0.4226 0.12669 0.99948 0.0
C224 C 0.41179 0.96772 0.95561 0.0
C225 C 0.56506 0.90999 0.94597 0.0
C226 C 0.60627 0.85569 0.95546 0.0
C227 C 0.56222 0.86261 0.96018 0.0
C228 C 0.65308 0.89674 0.93797 0.0
C229 C 0.61142 0.94823 0.92505 0.0
C230 C 0.65538 0.94246 0.92241 0.0
C231 C 0.43872 0.97577 0.07873 0.0
C232 C 0.52057 0.92006 0.95275 0.0
C233 C 0.73123 0.08705 0.99041 0.0
C234 C 0.71957 0.06781 0.03538 0.0
C235 C 0.55307 0.10181 0.03935 0.0
C236 C 0.46437 0.20983 0.0364 0.0
C237 C 0.50195 0.26342 0.031 0.0
C238 C 0.50083 0.30189 0.05944 0.0
C239 C 0.46132 0.28526 0.09313 0.0
C240 C 0.42548 0.19499 0.07011 0.0
C241 C 0.42415 0.23249 0.09826 0.0
C242 C 0.48405 0.07863 0.91396 0.0
C243 C 0.46653 0.16946 1.00772 0.0
H244 H 0.52602 0.83121 0.97404 0.0
H245 H 0.68708 0.89216 0.93379 0.0
H246 H 0.61385 0.98255 0.90997 0.0
H247 H 0.69098 0.97304 0.907 0.0
H248 H 0.53217 0.27484 1.00516 0.0
H249 H 0.45798 0.31317 0.11499 0.0
H250 H 0.39597 0.15435 0.07478 0.0
H251 H 0.39388 0.22062 0.12407 0.0
Eu252 Eu 0.75574 0.86193 0.30975 0.0
C253 C 0.70443 0.66749 0.43205 0.0
C254 C 0.75488 0.63213 0.39756 0.0
C255 C 0.73473 0.61963 0.47919 0.0
C256 C 0.72893 0.6613 0.39397 0.0
C257 C 0.70587 0.64547 0.47482 0.0
C258 C 0.75916 0.61289 0.44067 0.0
C259 C 0.64608 0.67165 0.50448 0.0
N260 N 0.67665 0.69258 0.42659 0.0
C261 C 0.64583 0.69292 0.46158 0.0
C262 C 0.67669 0.64836 0.5114 0.0
Eu263 Eu 0.68033 0.7292 0.35273 0.0
N264 N 0.72371 0.67998 0.35268 0.0
C265 C 0.73801 0.66561 0.31311 0.0
C266 C 0.77341 0.6209 0.35736 0.0
C267 C 0.76358 0.63643 0.31483 0.0
H268 H 0.62053 0.70913 0.45684 0.0
H269 H 0.77571 0.62598 0.2833 0.0
H270 H 0.77962 0.59109 0.44424 0.0
H271 H 0.62207 0.67289 0.53186 0.0
H272 H 0.7299 0.67656 0.27996 0.0
H273 H 0.75992 0.95551 0.47541 0.0
H274 H 0.79321 0.59831 0.3586 0.0
H275 H 0.70369 0.87177 0.20638 0.0
H276 H 0.77139 0.89663 0.42532 0.0
H277 H 0.65764 0.91421 0.17519 0.0
H278 H 0.73705 0.60328 0.5118 0.0
H279 H 0.72332 1.00869 0.44492 0.0
H280 H 0.68725 0.03411 0.37853 0.0
H281 H 0.67595 0.63099 0.54446 0.0
H282 H 0.6567 1.02061 0.2984 0.0
N283 N 0.73883 0.91171 0.36524 0.0
C284 C 0.75391 0.91737 0.41057 0.0
C285 C 0.72754 0.98181 0.42229 0.0
C286 C 0.71238 0.97653 0.37607 0.0
C287 C 0.748 0.95178 0.43963 0.0
C288 C 0.71821 0.94055 0.34794 0.0
H289 H 0.64332 0.97459 0.22355 0.0
N290 N 0.7068 0.89818 0.27578 0.0
C291 C 0.66858 0.91901 0.21128 0.0
C292 C 0.70133 0.93322 0.30235 0.0
C293 C 0.69286 0.89285 0.23003 0.0
C294 C 0.66116 0.95351 0.2385 0.0
C295 C 0.67847 0.96185 0.28421 0.0
O296 O 0.80672 0.9133 0.25512 0.0
O297 O 0.7609 0.79097 0.32605 0.0
O298 O 0.73211 0.77022 0.41222 0.0
O299 O 0.7937 0.84876 0.37736 0.0
O300 O 0.793 0.82735 0.26459 0.0
O301 O 0.82825 0.93494 0.32615 0.0
O302 O 0.59582 0.69689 0.34479 0.0
O303 O 0.67721 0.80147 0.33267 0.0
O304 O 0.69787 0.80689 0.25318 0.0
O305 O 0.68657 0.72708 0.27618 0.0
O306 O 0.6437 0.76714 0.39506 0.0
O307 O 0.62949 0.64836 0.33059 0.0
C308 C 0.78905 0.79129 0.29259 0.0
C309 C 0.84721 1.00446 0.27381 0.0
C310 C 0.89784 0.09998 0.28368 0.0
C311 C 0.89194 0.0497 0.29086 0.0
C312 C 0.85813 0.10434 0.26109 0.0
C313 C 0.81092 1.01127 0.24759 0.0
C314 C 0.81526 0.06027 0.2427 0.0
C315 C 0.77735 0.8137 0.41219 0.0
C316 C 0.83778 0.95053 0.28336 0.0
C317 C 0.67382 0.99822 0.31193 0.0
C318 C 0.69112 1.00584 0.35757 0.0
C319 C 0.65258 0.80445 0.36702 0.0
C320 C 0.54436 0.60769 0.36216 0.0
C321 C 0.49218 0.59285 0.35215 0.0
C322 C 0.45098 0.55345 0.37801 0.0
C323 C 0.46332 0.53006 0.41473 0.0
C324 C 0.55555 0.58308 0.39831 0.0
C325 C 0.51515 0.54472 0.4246 0.0
C326 C 0.67879 0.75581 0.24623 0.0
C327 C 0.58654 0.65001 0.33551 0.0
H328 H 0.92236 0.04601 0.30855 0.0
H329 H 0.86209 0.14243 0.25486 0.0
H330 H 0.77932 0.97892 0.23016 0.0
H331 H 0.78607 0.06427 0.22322 0.0
H332 H 0.48394 0.61246 0.32448 0.0
H333 H 0.43301 0.49949 0.43535 0.0
H334 H 0.59541 0.59349 0.40635 0.0
H335 H 0.524 0.526 0.45257 0.0
Eu336 Eu 0.22702 0.90799 0.31238 0.0
C337 C 0.42598 0.05455 0.42668 0.0
C338 C 0.4528 0.13806 0.39015 0.0
C339 C 0.4729 0.13491 0.47103 0.0
C340 C 0.42745 0.08294 0.38819 0.0
C341 C 0.44959 0.08023 0.46833 0.0
C342 C 0.47451 0.16379 0.43203 0.0
C343 C 0.42859 0.99632 0.50036 0.0
N344 N 0.40256 1.0017 0.42299 0.0
C345 C 0.40558 0.97261 0.45841 0.0
C346 C 0.44992 0.05025 0.50566 0.0
Eu347 Eu 0.36114 0.96421 0.35166 0.0
N348 N 0.406 0.05685 0.34832 0.0
C349 C 0.41293 0.08373 0.30824 0.0
C350 C 0.45657 0.16567 0.34971 0.0
C351 C 0.43726 0.13838 0.3084 0.0
H352 H 0.38975 0.93099 0.45466 0.0
H353 H 0.44142 0.15941 0.27663 0.0
H354 H 0.49361 0.20606 0.43435 0.0
H355 H 0.43 0.97292 0.52845 0.0
H356 H 0.39959 0.06309 0.27607 0.0
H357 H 0.13689 0.80317 0.4733 0.0
H358 H 0.47565 0.20802 0.34975 0.0
H359 H 0.20445 0.86297 0.20323 0.0
H360 H 0.19791 0.87772 0.42696 0.0
H361 H 0.15166 0.77978 0.16192 0.0
H362 H 0.49065 0.15531 0.50281 0.0
H363 H 0.07868 0.7181 0.43631 0.0
H364 H 0.04878 0.66395 0.36466 0.0
H365 H 0.46772 0.06846 0.53823 0.0
H366 H 0.05482 0.65683 0.28087 0.0
N367 N 0.17594 0.8367 0.36284 0.0
C368 C 0.17334 0.84153 0.40955 0.0
C369 C 0.10568 0.75099 0.41536 0.0
C370 C 0.10831 0.74593 0.36767 0.0
C371 C 0.13846 0.79894 0.43636 0.0
C372 C 0.1441 0.79005 0.34184 0.0
H373 H 0.09344 0.69928 0.20535 0.0
N374 N 0.18176 0.82895 0.27004 0.0
C375 C 0.15082 0.78068 0.19921 0.0
C376 C 0.14748 0.78598 0.29435 0.0
C377 C 0.18167 0.82752 0.22289 0.0
C378 C 0.11777 0.73546 0.22383 0.0
C379 C 0.11497 0.73788 0.27183 0.0
O380 O 0.18592 0.93273 0.26524 0.0
O381 O 0.29819 0.98395 0.32794 0.0
O382 O 0.32276 0.97355 0.41357 0.0
O383 O 0.24152 0.95433 0.38278 0.0
O384 O 0.26488 0.97513 0.26313 0.0
O385 O 0.15089 0.90015 0.33098 0.0
O386 O 0.39688 0.91432 0.3511 0.0
O387 O 0.2878 0.88997 0.33386 0.0
O388 O 0.277 0.89568 0.25645 0.0
O389 O 0.35837 0.9658 0.27437 0.0
O390 O 0.32473 0.8895 0.39447 0.0
O391 O 0.43898 0.99178 0.32256 0.0
C392 C 0.29656 1.00926 0.29257 0.0
C393 C 0.09312 0.88036 0.26625 0.0
C394 C 0.99662 0.83039 0.2641 0.0
C395 C 0.04413 0.86206 0.28836 0.0
C396 C 0.9995 0.81769 0.21775 0.0
C397 C 0.09364 0.86713 0.21973 0.0
C398 C 0.04738 0.83563 0.19608 0.0
C399 C 0.27814 0.97295 0.4164 0.0
C400 C 0.1438 0.91458 0.29031 0.0
C401 C 0.07988 0.69401 0.2976 0.0
C402 C 0.07637 0.6981 0.34532 0.0
C403 C 0.28587 0.86193 0.36747 0.0
C404 C 0.48851 0.95831 0.35912 0.0
C405 C 0.50575 0.9215 0.35521 0.0
C406 C 0.54944 0.92779 0.38081 0.0
C407 C 0.57533 0.97167 0.41002 0.0
C408 C 0.51568 1.00179 0.38816 0.0
C409 C 0.55869 1.00826 0.41343 0.0
C410 C 0.3276 0.92729 0.24666 0.0
C411 C 0.44112 0.9502 0.3344 0.0
H412 H 0.0431 0.87263 0.32394 0.0
H413 H 0.96456 0.79521 0.19722 0.0
H414 H 0.1299 0.88162 0.20098 0.0
H415 H 0.04862 0.82594 0.16028 0.0
H416 H 0.4846 0.8877 0.33304 0.0
H417 H 0.6093 0.97847 0.42984 0.0
H418 H 0.50359 0.03076 0.39154 0.0
H419 H 0.57931 0.04189 0.43582 0.0
Eu420 Eu 0.18345 0.33936 0.30845 0.0
C421 C 0.04496 0.38579 0.42376 0.0
C422 C 0.95848 0.33151 0.39105 0.0
C423 C 0.96885 0.34762 0.47361 0.0
C424 C 1.01318 0.36149 0.38579 0.0
C425 C 1.02306 0.37976 0.46793 0.0
C426 C 0.93661 0.32373 0.4353 0.0
C427 C 0.10911 0.44217 0.49679 0.0
N428 N 0.09718 0.41676 0.4173 0.0
C429 C 0.12877 0.44797 0.45214 0.0
C430 C 0.0564 0.40663 0.5049 0.0
Eu431 Eu 0.12722 0.41648 0.34201 0.0
N432 N 1.03541 0.36914 0.34346 0.0
C433 C 1.00535 0.3519 0.30465 0.0
C434 C 0.92734 0.31128 0.35154 0.0
C435 C 0.95083 0.3223 0.3081 0.0
H436 H 0.16992 0.47436 0.44589 0.0
H437 H 0.92698 0.30752 0.27737 0.0
H438 H 0.89471 0.30018 0.44015 0.0
H439 H 0.13472 0.46421 0.52502 0.0
H440 H 1.0234 0.36001 0.27114 0.0
H441 H 0.29531 0.37305 0.46742 0.0
H442 H 0.88514 0.28808 0.35414 0.0
H443 H 0.22407 0.35486 0.19786 0.0
H444 H 0.21712 0.34942 0.42081 0.0
H445 H 0.30681 0.38983 0.15492 0.0
H446 H 0.95125 0.34203 0.50723 0.0
H447 H 0.38088 0.4057 0.42953 0.0
H448 H 0.43374 0.43206 0.35693 0.0
H449 H 1.04208 0.4004 0.53982 0.0
H450 H 0.4373 0.43968 0.27249 0.0
N451 N 0.25776 0.37165 0.35699 0.0
C452 C 0.25419 0.36551 0.40379 0.0
C453 C 0.34676 0.39666 0.40885 0.0
C454 C 0.3503 0.40262 0.36091 0.0
C455 C 0.29853 0.37825 0.43038 0.0
C456 C 0.30439 0.38904 0.33541 0.0
H457 H 0.39052 0.42496 0.19715 0.0
N458 N 0.26105 0.37685 0.26375 0.0
C459 C 0.30734 0.39173 0.1922 0.0
C460 C 0.30622 0.39263 0.28761 0.0
C461 C 0.26066 0.37301 0.21668 0.0
C462 C 0.35447 0.41131 0.21616 0.0
C463 C 0.35423 0.4106 0.26438 0.0
O464 O 0.17932 0.2749 0.26707 0.0
O465 O 0.10556 0.33295 0.31902 0.0
O466 O 0.13913 0.37861 0.40485 0.0
O467 O 0.12949 0.30297 0.37274 0.0
O468 O 0.11904 0.30743 0.25651 0.0
O469 O 0.19095 0.27663 0.34099 0.0
O470 O 0.16878 0.49951 0.35839 0.0
O471 O 0.20059 0.4112 0.3456 0.0
O472 O 0.18996 0.39626 0.24888 0.0
O473 O 0.1201 0.40848 0.2657 0.0
O474 O 0.20802 0.47926 0.31883 0.0
O475 O 0.09653 0.46685 0.31878 0.0
C476 C 0.08299 0.30547 0.28322 0.0
C477 C 0.17121 0.1977 0.30278 0.0
C478 C 0.19322 0.12818 0.30397 0.0
C479 C 0.20852 0.18133 0.29975 0.0
C480 C 0.1401 0.09138 0.31053 0.0
C481 C 0.11837 0.16068 0.30934 0.0
C482 C 0.10291 0.10758 0.31292 0.0
C483 C 0.12305 0.32836 0.40778 0.0
C484 C 0.18961 0.25395 0.30222 0.0
C485 C 0.40015 0.42562 0.28979 0.0
C486 C 0.39811 0.42119 0.33787 0.0
C487 C 0.23283 0.4556 0.32988 0.0
C488 C 0.12372 0.54605 0.36127 0.0
C489 C 0.15907 0.60001 0.35625 0.0
C490 C 0.1528 0.63702 0.38184 0.0
C491 C 0.10999 0.619 0.41207 0.0
C492 C 0.08123 0.52897 0.39134 0.0
C493 C 0.07437 0.56546 0.41646 0.0
C494 C 0.15804 0.41475 0.23821 0.0
C495 C 0.13507 0.50884 0.33765 0.0
H496 H 0.24954 0.21002 0.29518 0.0
H497 H 0.12747 0.05012 0.31376 0.0
H498 H 0.08943 0.17288 0.31232 0.0
H499 H 0.06207 0.07895 0.31803 0.0
H500 H 0.19245 0.61301 0.33356 0.0
H501 H 0.10375 0.64636 0.43211 0.0
H502 H 0.05394 0.48761 0.39588 0.0
H503 H 1.0416 0.5522 0.4398 0.0
Eu504 Eu 0.41412 0.1937 0.64771 0.0
C505 C 0.36866 1.00274 0.76315 0.0
C506 C 0.41609 0.96623 0.72455 0.0
C507 C 0.40195 0.95529 0.80722 0.0
C508 C 0.3895 0.9949 0.72303 0.0
C509 C 0.37332 0.98155 0.80535 0.0
C510 C 0.42335 0.94771 0.76697 0.0
C511 C 0.31734 1.00996 0.84015 0.0
N512 N 0.34138 0.02854 0.76057 0.0
C513 C 0.31369 0.03023 0.7977 0.0
C514 C 0.34775 0.986 0.84416 0.0
Eu515 Eu 0.3374 0.061 0.68703 0.0
N516 N 0.38145 1.01272 0.68227 0.0
C517 C 0.39579 1.00011 0.6416 0.0
C518 C 0.43331 0.95564 0.68322 0.0
C519 C 0.42242 0.97196 0.64156 0.0
H520 H 0.29033 0.04903 0.79468 0.0
H521 H 0.43479 0.96305 0.60946 0.0
H522 H 0.44424 0.9262 0.76884 0.0
H523 H 0.29659 1.01283 0.8696 0.0
H524 H 0.38793 1.01242 0.609 0.0
H525 H 0.4137 0.28807 0.80946 0.0
H526 H 0.45391 0.9338 0.683 0.0
H527 H 0.36936 0.20513 0.54069 0.0
H528 H 0.42684 0.22857 0.75994 0.0
H529 H 0.32457 0.24744 0.50607 0.0
H530 H 0.40681 0.9397 0.83941 0.0
H531 H 0.37656 0.34004 0.77696 0.0
H532 H 0.34155 0.3645 0.70865 0.0
H533 H 0.34996 0.96967 0.87694 0.0
H534 H 0.31382 0.35049 0.62762 0.0
N535 N 0.39341 0.24222 0.70014 0.0
C536 C 0.40837 0.24869 0.7454 0.0
C537 C 0.38115 0.31282 0.7551 0.0
C538 C 0.36671 0.30689 0.70858 0.0
C539 C 0.40182 0.28336 0.77362 0.0
C540 C 0.37306 0.27057 0.68156 0.0
H541 H 0.3051 0.30543 0.55281 0.0
N542 N 0.36588 0.22884 0.6099 0.0
C543 C 0.33259 0.25122 0.54273 0.0
C544 C 0.358 0.263 0.63555 0.0
C545 C 0.35618 0.22528 0.56326 0.0
C546 C 0.32214 0.28429 0.56912 0.0
C547 C 0.33617 0.29173 0.61569 0.0
O548 O 0.47138 0.24769 0.59787 0.0
O549 O 0.41923 0.12161 0.65975 0.0
O550 O 0.38215 0.10946 0.74816 0.0
O551 O 0.45362 0.17716 0.71133 0.0
O552 O 0.44045 0.15613 0.59541 0.0
O553 O 0.48586 0.26523 0.66981 0.0
O554 O 0.25655 1.02246 0.71036 0.0
O555 O 0.34592 0.14166 0.69012 0.0
O556 O 0.35445 0.13934 0.59153 0.0
O557 O 0.33918 0.05685 0.61111 0.0
O558 O 0.27476 0.08157 0.66846 0.0
O559 O 0.28145 0.9819 0.66306 0.0
C560 C 0.44449 0.12391 0.62322 0.0
C561 C 0.50892 0.3374 0.61919 0.0
C562 C 0.559 0.43302 0.62865 0.0
C563 C 0.55359 0.38289 0.636 0.0
C564 C 0.51879 0.43686 0.60643 0.0
C565 C 0.47249 0.34394 0.59294 0.0
C566 C 0.47616 0.39261 0.58816 0.0
C567 C 0.4319 0.14537 0.74761 0.0
C568 C 0.49962 0.28336 0.62818 0.0
C569 C 0.33021 0.32802 0.64243 0.0
C570 C 0.34597 0.33599 0.68858 0.0
C571 C 0.30046 0.1303 0.67801 0.0
C572 C 0.20462 0.93066 0.70822 0.0
C573 C 0.15084 0.91158 0.70102 0.0
C574 C 0.11308 0.86699 0.72474 0.0
C575 C 0.13021 0.84151 0.75538 0.0
C576 C 0.22078 0.90437 0.73845 0.0
C577 C 0.18359 0.85985 0.7618 0.0
C578 C 0.33383 0.08832 0.58274 0.0
C579 C 0.24258 0.98014 0.68632 0.0
H580 H 0.58432 0.37955 0.65347 0.0
H581 H 0.52229 0.47475 0.60014 0.0
H582 H 0.4414 0.31164 0.57513 0.0
H583 H 0.44675 0.39624 0.56871 0.0
H584 H 0.13846 0.93245 0.67807 0.0
H585 H 0.10228 0.80707 0.77416 0.0
H586 H 0.26194 0.91857 0.74442 0.0
H587 H 0.19617 0.83973 0.78534 0.0
Eu588 Eu 0.89368 0.24719 0.63629 0.0
C589 C 0.07972 0.37358 0.76716 0.0
C590 C 0.11421 0.46397 0.74372 0.0
C591 C 0.12809 0.44386 0.82199 0.0
C592 C 0.08671 0.41002 0.7334 0.0
C593 C 0.10145 0.39025 0.81146 0.0
C594 C 0.134 0.4806 0.78841 0.0
C595 C 0.0732 0.30002 0.8303 0.0
N596 N 0.05396 0.32197 0.75602 0.0
C597 C 0.05224 0.28534 0.78602 0.0
C598 C 0.09748 0.35267 0.8433 0.0
Eu599 Eu 1.02508 0.30168 0.67912 0.0
N600 N 0.06857 0.39295 0.69009 0.0
C601 C 0.07916 0.42764 0.65501 0.0
C602 C 0.12237 0.4997 0.70842 0.0
C603 C 0.10521 0.48143 0.66376 0.0
H604 H 1.03392 0.24472 0.77564 0.0
H605 H 0.11271 0.50878 0.63592 0.0
H606 H 0.15522 0.52188 0.79699 0.0
H607 H 0.07113 0.27071 0.85399 0.0
H608 H 0.06802 0.41408 0.62012 0.0
H609 H 0.7918 0.12983 0.78685 0.0
H610 H 0.14316 0.54145 0.715 0.0
H611 H 0.88523 0.2084 0.52442 0.0
H612 H 0.85197 0.20981 0.74499 0.0
H613 H 0.8487 0.12677 0.47998 0.0
H614 H 0.14537 0.45737 0.85564 0.0
H615 H 0.74703 0.04509 0.74598 0.0
H616 H 0.73313 0.99442 0.67306 0.0
H617 H 0.11442 0.36417 0.87743 0.0
H618 H 0.75208 0.99311 0.59087 0.0
N619 N 0.84488 0.17102 0.6813 0.0
C620 C 0.83465 0.17313 0.72692 0.0
C621 C 0.77461 0.08003 0.72755 0.0
C622 C 0.78502 0.07796 0.68081 0.0
C623 C 0.79983 0.12777 0.75075 0.0
C624 C 0.82071 0.12478 0.65817 0.0
H625 H 0.79622 0.04181 0.51915 0.0
N626 N 0.86326 0.17037 0.59 0.0
C627 C 0.84453 0.12532 0.51711 0.0
C628 C 0.83123 0.12422 0.61161 0.0
C629 C 0.86687 0.17158 0.54278 0.0
C630 C 0.81466 0.0775 0.5393 0.0
C631 C 0.80616 0.07659 0.58675 0.0
O632 O 0.83829 0.25263 0.58914 0.0
O633 O 0.96426 0.32348 0.65366 0.0
O634 O 0.97542 0.28979 0.74109 0.0
O635 O 0.90708 0.29397 0.70538 0.0
O636 O 0.9287 0.31814 0.5908 0.0
O637 O 0.82137 0.24349 0.66141 0.0
O638 O 0.06471 0.25656 0.68538 0.0
O639 O 0.94522 0.22894 0.67769 0.0
O640 O 0.95198 0.24775 0.58032 0.0
O641 O 1.02992 0.31807 0.60429 0.0
O642 O 1.0069 0.22057 0.65636 0.0
O643 O 0.10786 0.33651 0.66007 0.0
C644 C 0.96319 0.35054 0.61962 0.0
C645 C 0.74885 0.19771 0.61045 0.0
C646 C 0.65319 0.15137 0.61993 0.0
C647 C 0.70319 0.19583 0.62819 0.0
C648 C 0.64966 0.10872 0.5955 0.0
C649 C 0.74266 0.15602 0.58262 0.0
C650 C 0.69407 0.11137 0.57653 0.0
C651 C 0.93813 0.30176 0.74192 0.0
C652 C 0.80273 0.24215 0.62041 0.0
C653 C 0.77155 0.02989 0.60946 0.0
C654 C 0.76063 0.03066 0.65623 0.0
C655 C 0.95772 0.19626 0.66378 0.0
C656 C 0.15497 0.29941 0.69723 0.0
C657 C 0.16934 0.26088 0.69102 0.0
C658 C 0.21082 0.26213 0.71641 0.0
C659 C 0.23689 0.30265 0.74896 0.0
C660 C 0.18171 0.33932 0.72957 0.0
C661 C 0.2224 0.34073 0.75536 0.0
C662 C 1.00269 0.28208 0.57354 0.0
C663 C 0.10964 0.29436 0.67148 0.0
H664 H 0.70633 0.22881 0.64734 0.0
H665 H 0.61192 0.07458 0.58846 0.0
H666 H 0.77516 0.158 0.56462 0.0
H667 H 0.69066 0.07935 0.5557 0.0
H668 H 0.14729 0.22942 0.66679 0.0
H669 H 0.26951 0.30604 0.76886 0.0
H670 H 0.17095 0.36902 0.73517 0.0
H671 H 0.24304 0.37165 0.78034 0.0
Eu672 Eu 0.84305 0.6693 0.64733 0.0
C673 C 0.69718 0.72768 0.75578 0.0
C674 C 0.61374 0.67695 0.71725 0.0
C675 C 0.61653 0.69952 0.79809 0.0
C676 C 0.66886 0.70303 0.71651 0.0
C677 C 0.67137 0.72711 0.79679 0.0
C678 C 0.58774 0.6744 0.75846 0.0
C679 C 0.7558 0.78445 0.8308 0.0
N680 N 0.75022 0.75358 0.75346 0.0
C681 C 0.7796 0.78375 0.78958 0.0
C682 C 0.70147 0.75532 0.83486 0.0
Eu683 Eu 0.7873 0.74782 0.68286 0.0
N684 N 0.69515 0.70629 0.67714 0.0
C685 C 0.66883 0.68819 0.63648 0.0
C686 C 0.5864 0.6551 0.67631 0.0
C687 C 0.61406 0.66131 0.63566 0.0
H688 H 0.82147 0.80755 0.78708 0.0
H689 H 0.59293 0.64487 0.60396 0.0
H690 H 0.5454 0.65411 0.75979 0.0
H691 H 0.77979 0.80795 0.85906 0.0
H692 H 0.68994 0.69337 0.60486 0.0
H693 H 0.93139 0.67899 0.81716 0.0
H694 H 0.54403 0.63438 0.6755 0.0
H695 H 0.89983 0.69771 0.5426 0.0
H696 H 0.86243 0.66851 0.76448 0.0
H697 H 0.98672 0.72908 0.50868 0.0
H698 H 0.59599 0.69829 0.82922 0.0
H699 H 1.01931 0.70474 0.78748 0.0
H700 H 0.07998 0.72927 0.72041 0.0
H701 H 0.68317 0.75606 0.86696 0.0
H702 H 0.09585 0.74607 0.63747 0.0
N703 N 0.90895 0.68691 0.70376 0.0
C704 C 0.8997 0.67899 0.75009 0.0
C705 C 0.98874 0.69974 0.7637 0.0
C706 C 0.99847 0.70841 0.71646 0.0
C707 C 0.9392 0.68524 0.78057 0.0
C708 C 0.95733 0.70154 0.68686 0.0
H709 H 0.06187 0.74734 0.5587 0.0
N710 N 0.92631 0.70433 0.61214 0.0
C711 C 0.98179 0.72504 0.54571 0.0
C712 C 0.96632 0.71093 0.63992 0.0
C713 C 0.93276 0.70841 0.5653 0.0
C714 C 1.024 0.73496 0.57402 0.0
C715 C 1.01644 0.72699 0.62158 0.0
O716 O 0.83202 0.61175 0.59424 0.0
O717 O 0.76699 0.66557 0.65916 0.0
O718 O 0.76843 0.69405 0.74279 0.0
O719 O 0.79034 0.63312 0.71417 0.0
O720 O 0.77807 0.64112 0.59576 0.0
O721 O 0.84327 0.59732 0.66663 0.0
O722 O 0.83944 0.83268 0.68138 0.0
O723 O 0.86214 0.74854 0.66764 0.0
O724 O 0.85717 0.73123 0.59048 0.0
O725 O 0.78744 0.74403 0.60561 0.0
O726 O 0.85977 0.78335 0.72862 0.0
O727 O 0.76184 0.79955 0.65278 0.0
C728 C 0.74293 0.63915 0.62349 0.0
C729 C 0.83413 0.53183 0.61051 0.0
C730 C 0.87166 0.47453 0.60727 0.0
C731 C 0.87249 0.51946 0.62481 0.0
C732 C 0.83121 0.44124 0.5772 0.0
C733 C 0.7947 0.49841 0.57984 0.0
C734 C 0.79288 0.45302 0.56383 0.0
C735 C 0.76843 0.6496 0.74602 0.0
C736 C 0.83749 0.58155 0.62389 0.0
C737 C 0.05721 0.73376 0.65098 0.0
C738 C 0.04815 0.72415 0.69821 0.0
C739 C 0.88863 0.77328 0.70237 0.0
C740 C 0.79882 0.88322 0.68786 0.0
C741 C 0.83691 0.93598 0.68133 0.0
C742 C 0.83375 0.97605 0.70496 0.0
C743 C 0.79217 0.96186 0.73608 0.0
C744 C 0.75729 0.87027 0.71831 0.0
C745 C 0.75429 0.90946 0.7425 0.0
C746 C 0.82632 0.75067 0.57906 0.0
C747 C 0.80447 0.84231 0.66419 0.0
H748 H 0.90389 0.54568 0.6476 0.0
H749 H 0.82965 0.40623 0.56366 0.0
H750 H 0.76551 0.50754 0.56779 0.0
H751 H 0.76219 0.42736 0.5403 0.0
H752 H 0.86921 0.94553 0.65816 0.0
H753 H 0.78785 0.99118 0.75472 0.0
H754 H 0.72731 0.82996 0.72359 0.0
H755 H 0.72226 0.89924 0.76611 0.0
C756 C 0.25615 0.50756 0.94221 0.0
C757 C 0.26403 0.47097 0.9664 0.0
H758 H 0.20216 0.5304 0.91882 0.0
C759 C 0.22135 0.43021 0.9898 0.0
H760 H 0.288 0.53895 0.92329 0.0
C761 C 0.17146 0.42515 0.98747 0.0
C762 C 0.1624 0.45936 0.96051 0.0
H763 H 0.22628 0.40127 1.00878 0.0
H764 H 0.14033 0.39408 1.00639 0.0
C765 C 0.20621 0.50171 0.93905 0.0
C766 C 0.63458 0.79731 0.99425 0.0
C767 C 0.60313 0.80425 0.96164 0.0
H768 H 0.66251 0.74721 0.01937 0.0
C769 C 0.57647 0.76529 0.92857 0.0
H770 H 0.65629 0.82729 0.01977 0.0
C771 C 0.58246 0.72121 0.927 0.0
C772 C 0.61497 0.7143 0.95874 0.0
H773 H 0.55272 0.77002 0.90253 0.0
H774 H 0.56088 0.69221 0.90082 0.0
C775 C 0.63923 0.75209 0.99343 0.0
C776 C 0.35965 0.87503 0.92691 0.0
C777 C 0.36373 0.91445 0.9573 0.0
H778 H 0.31397 0.79621 0.90251 0.0
C779 C 0.32364 0.9004 0.98969 0.0
H780 H 0.39 0.88274 0.90215 0.0
C781 C 0.27913 0.85004 0.98939 0.0
C782 C 0.27516 0.81174 0.95809 0.0
H783 H 0.32602 0.92843 0.01453 0.0
H784 H 0.24731 0.84137 0.01285 0.0
C785 C 0.31641 0.82456 0.92762 0.0
C786 C 0.5563 0.38208 0.00995 0.0
C787 C 0.53879 0.35935 0.05379 0.0
H788 H 0.59631 0.45332 0.97048 0.0
C789 C 0.55435 0.39293 0.09238 0.0
H790 H 0.54579 0.35786 0.97936 0.0
C791 C 0.58202 0.44733 0.08701 0.0
C792 C 0.59483 0.4698 0.04297 0.0
H793 H 0.54386 0.37726 0.12695 0.0
H794 H 0.5915 0.47191 0.11732 0.0
C795 C 0.58451 0.43683 1.00468 0.0
C796 C 0.63329 0.13785 0.08771 0.0
C797 C 0.6105 0.13292 0.04419 0.0
H798 H 0.70384 0.16599 0.12665 0.0
C799 C 0.64278 0.1595 1.00658 0.0
H800 H 0.60902 0.11935 0.1176 0.0
C801 C 0.69736 0.18598 0.0115 0.0
C802 C 0.72053 0.18703 0.05438 0.0
H803 H 0.62587 0.15808 0.97303 0.0
H804 H 0.72119 0.20314 0.98116 0.0
C805 C 0.68765 0.16435 0.09275 0.0
C806 C 0.92463 0.50676 0.99947 0.0
C807 C 0.95001 0.50004 0.03771 0.0
H808 H 0.88384 0.54426 0.97253 0.0
C809 C 0.94575 0.5192 0.08072 0.0
H810 H 0.92539 0.49028 0.96631 0.0
C811 C 0.92136 0.54924 0.08462 0.0
C812 C 0.90002 0.56035 0.04563 0.0
H813 H 0.96322 0.51273 0.11112 0.0
H814 H 0.92026 0.56471 0.11818 0.0
C815 C 0.90019 0.53704 1.00327 0.0
C816 C 0.84909 0.75598 0.27581 0.0
C817 C 0.83923 0.79143 0.29972 0.0
H818 H 0.90553 0.73756 0.24984 0.0
C819 C 0.88239 0.83614 0.319 0.0
H820 H 0.81816 0.72267 0.2584 0.0
C821 C 0.93392 0.84701 0.31118 0.0
C822 C 0.94353 0.81309 0.2842 0.0
H823 H 0.87685 0.86557 0.33615 0.0
H824 H 0.966 0.8841 0.32286 0.0
C825 C 0.90012 0.76562 0.26963 0.0
C826 C 0.24611 0.09398 0.34217 0.0
C827 C 0.23212 0.11044 0.30198 0.0
H828 H 0.27958 0.05117 0.37041 0.0
C829 C 0.25001 0.10332 0.25943 0.0
H830 H 0.23263 0.09895 0.37549 0.0
C831 C 0.27719 0.07567 0.25685 0.0
C832 C 0.28762 0.0549 0.29685 0.0
H833 H 0.23943 0.11552 0.22786 0.0
H834 H 0.28514 0.06637 0.22299 0.0
C835 C 0.27394 0.06708 0.33946 0.0
C836 C 0.99689 0.23837 0.32056 0.0
C837 C 1.03548 0.25206 0.28663 0.0
H838 H 0.92201 0.17917 0.34643 0.0
C839 C 1.03088 0.21203 0.25682 0.0
H840 H 1.00014 0.26671 0.34562 0.0
C841 C 0.98827 0.16136 0.25918 0.0
C842 C 0.94822 0.14891 0.2909 0.0
H843 H 0.06053 0.21931 0.23147 0.0
H844 H 0.98532 0.13247 0.23444 0.0
C845 C 0.95289 0.18772 0.32191 0.0
C846 C 0.24062 0.78 0.41379 0.0
C847 C 0.25498 0.80411 0.3704 0.0
H848 H 0.19658 0.70854 0.45139 0.0
C849 C 0.24061 0.77256 0.33075 0.0
H850 H 0.2525 0.80341 0.44494 0.0
C851 C 0.20874 0.718 0.33437 0.0
C852 C 0.19094 0.69416 0.37775 0.0
H853 H 0.25275 0.79016 0.29696 0.0
H854 H 0.19628 0.69479 0.30313 0.0
C855 C 0.20842 0.72574 0.41743 0.0
C856 C 0.30373 0.49185 0.38838 0.0
C857 C 0.28848 0.48517 0.342 0.0
H858 H 0.36708 0.52046 0.43635 0.0
C859 C 0.3266 0.5075 0.30758 0.0
H860 H 0.27461 0.4766 0.41546 0.0
C861 C 0.37965 0.53139 0.31925 0.0
C862 C 0.39531 0.5349 0.36573 0.0
H863 H 0.31529 0.50364 0.27158 0.0
H864 H 0.40802 0.54455 0.29164 0.0
C865 C 0.35664 0.5168 0.40019 0.0
C866 C 0.5902 0.87863 0.41653 0.0
C867 C 0.56938 0.89003 0.3773 0.0
H868 H 0.63307 0.84339 0.44351 0.0
C869 C 0.57173 0.86827 0.33472 0.0
H870 H 0.58753 0.89286 0.45023 0.0
C871 C 0.59777 0.83935 0.33108 0.0
C872 C 0.62254 0.83242 0.36976 0.0
H873 H 0.55584 0.87573 0.30379 0.0
H874 H 0.60007 0.82399 0.29781 0.0
C875 C 0.61618 0.85006 0.4128 0.0
C876 C 0.56448 0.11255 0.65725 0.0
C877 C 0.60346 0.15091 0.62888 0.0
H878 H 0.48462 0.07508 0.67913 0.0
C879 C 0.5903 0.18095 0.60044 0.0
H880 H 0.57342 0.08809 0.67896 0.0
C881 C 0.53897 0.17138 0.59866 0.0
C882 C 0.49891 0.13192 0.62593 0.0
H883 H 0.61916 0.20992 0.57746 0.0
H884 H 0.53104 0.19531 0.57537 0.0
C885 C 0.51312 0.10411 0.65652 0.0
C886 C 0.96735 0.42957 0.58503 0.0
C887 C 0.96163 0.39997 0.6249 0.0
H888 H 0.944 0.47783 0.54865 0.0
C889 C 0.93668 0.40716 0.66325 0.0
H890 H 0.9844 0.42424 0.55424 0.0
C891 C 0.91244 0.43763 0.65977 0.0
C892 C 0.91295 0.46153 0.61783 0.0
H893 H 0.92965 0.38427 0.69395 0.0
H894 H 0.88851 0.43759 0.68805 0.0
C895 C 0.94346 0.46009 0.58155 0.0
C896 C 0.65593 0.57375 0.6601 0.0
C897 C 0.6955 0.58581 0.62764 0.0
H898 H 0.581 0.51552 0.6865 0.0
C899 C 0.69163 0.54451 0.6001 0.0
H900 H 0.65755 0.60379 0.68196 0.0
C901 C 0.64969 0.49363 0.60423 0.0
C902 C 0.60918 0.48236 0.63512 0.0
H903 H 0.721 0.55124 0.5748 0.0
H904 H 0.64738 0.46366 0.58113 0.0
C905 C 0.6126 0.52287 0.66323 0.0
C906 C 0.89181 0.04957 0.65103 0.0
C907 C 0.87178 0.03242 0.69572 0.0
H908 H 0.93527 0.11537 0.60617 0.0
C909 C 0.88531 0.07021 0.73068 0.0
H910 H 0.88229 1.02201 0.62304 0.0
C911 C 0.91397 0.12359 0.72038 0.0
C912 C 0.93024 0.14021 0.67511 0.0
H913 H 0.87251 0.05872 0.76585 0.0
H914 H 0.92247 0.15192 0.74757 0.0
C915 C 0.92166 0.10305 0.64109 0.0
C916 C 0.97952 0.8187 0.66871 0.0
C917 C 0.94633 0.80049 0.70723 0.0
H918 H 0.05849 0.85358 0.64391 0.0
C919 C 0.96865 0.80947 0.75143 0.0
H920 H 0.96334 0.81381 0.63431 0.0
C921 C 1.02274 0.83194 0.757 0.0
C922 C 0.05601 0.84732 0.71849 0.0
H923 H 0.94399 0.79713 0.78175 0.0
H924 H 1.03852 0.83671 0.79156 0.0
C925 C 1.03394 0.84187 0.67428 0.0
C926 C 0.27505 0.17837 0.73359 0.0
C927 C 0.27393 0.16019 0.68876 0.0
H928 H 0.25442 0.22284 0.77809 0.0
C929 C 0.24566 0.16915 0.65454 0.0
H930 H 0.29455 0.16971 0.76106 0.0
C931 C 0.224 0.20105 0.66367 0.0
C932 C 0.22825 0.22288 0.70787 0.0
H933 H 0.24313 0.15418 0.61996 0.0
H934 H 0.20631 0.21052 0.63527 0.0
C935 C 0.25215 0.20903 0.74316 0.0
C936 C 0.14938 0.48337 0.1949 0.0
C937 C 0.16263 0.44347 0.1946 0.0
H938 H 0.12392 0.52842 0.15577 0.0
C939 C 0.17136 0.42687 0.15206 0.0
H940 H 0.14265 0.49735 0.22726 0.0
C941 C 0.16141 0.4457 0.11091 0.0
C942 C 0.14306 0.48179 0.11118 0.0
H943 H 0.18075 0.39578 0.15049 0.0
H944 H 0.16232 0.42729 0.07921 0.0
C945 C 0.13964 0.50222 0.15378 0.0
C946 C 0.65061 0.75307 0.16232 0.0
C947 C 0.64845 0.72762 0.20389 0.0
H948 H 0.63403 0.74479 0.09003 0.0
C949 C 0.61857 0.67236 0.20461 0.0
H950 H 0.6729 0.79531 0.16011 0.0
C951 C 0.5961 0.6434 0.16441 0.0
C952 C 0.6022 0.66847 0.12191 0.0
H953 H 0.61496 0.65081 0.23592 0.0
H954 H 0.57866 0.60124 0.16592 0.0
C955 C 0.62767 0.72377 0.12192 0.0
C956 C 0.43517 0.95282 0.16135 0.0
C957 C 0.40943 0.9421 0.11869 0.0
H958 H 0.42949 0.95546 0.23448 0.0
C959 C 0.35421 0.91758 0.1191 0.0
H960 H 0.47749 0.97342 0.16283 0.0
C961 C 0.32609 0.90817 0.16067 0.0
C962 C 0.35273 0.92364 0.20297 0.0
H963 H 0.33289 0.91023 0.08723 0.0
H964 H 0.28435 0.89318 0.15918 0.0
C965 C 0.40733 0.94349 0.20268 0.0
C966 C 0.49715 0.09339 0.82714 0.0
C967 C 0.48482 0.10603 0.87022 0.0
H968 H 0.49135 0.09781 0.75373 0.0
C969 C 0.46565 0.1414 0.87129 0.0
H970 H 0.51131 0.06592 0.82482 0.0
C971 C 0.45441 0.15965 0.83071 0.0
C972 C 0.46289 0.14405 0.78758 0.0
H973 H 0.45612 0.15263 0.90379 0.0
H974 H 0.43525 0.18278 0.83315 0.0
C975 C 0.48606 0.11214 0.78625 0.0
C976 C 0.99221 0.41843 0.8221 0.0
C977 C 0.97554 0.39355 0.865 0.0
H978 H 0.99238 0.40856 0.74895 0.0
C979 C 0.93809 0.33949 0.86535 0.0
H980 H 1.02129 0.4596 0.82029 0.0
C981 C 0.92126 0.31031 0.82451 0.0
C982 C 0.94037 0.33435 0.78186 0.0
H983 H 0.92363 0.31871 0.89761 0.0
H984 H 0.89597 0.26824 0.82656 0.0
C985 C 0.97498 0.38903 0.78104 0.0
C986 C 0.68228 0.60336 0.78585 0.0
C987 C 0.73513 0.61571 0.78429 0.0
H988 H 0.61493 0.58454 0.82745 0.0
C989 C 0.7579 0.61068 0.82504 0.0
H990 H 0.66408 0.60936 0.7561 0.0
C991 C 0.72981 0.59777 0.86667 0.0
C992 C 0.67821 0.5891 0.86846 0.0
H993 H 0.79877 0.62151 0.82573 0.0
H994 H 0.74981 0.59817 0.89819 0.0
C995 C 0.6539 0.58954 0.82718 0.0
C996 C 0.82996 0.77986 0.45066 0.0
C997 C 0.81191 0.81621 0.45057 0.0
H998 H 0.849 0.73018 0.49124 0.0
C999 C 0.80853 0.83712 0.49288 0.0
H1000 H 0.83113 0.76155 0.41865 0.0
C1001 C 0.81843 0.81893 0.53428 0.0
C1002 C 0.83151 0.77892 0.53476 0.0
H1003 H 0.79305 0.86355 0.49443 0.0
H1004 H 0.81188 0.83355 0.56629 0.0
C1005 C 0.8398 0.76143 0.49231 0.0
C1006 C 0.25169 0.98283 0.4962 0.0
C1007 C 0.27736 1.00584 0.4549 0.0
H1008 H 0.24912 0.9919 0.56935 0.0
C1009 C 0.3161 0.0595 0.45552 0.0
H1010 H 0.22329 0.94141 0.49748 0.0
C1011 C 0.33082 0.08864 0.49641 0.0
C1012 C 0.30824 0.0644 0.53816 0.0
H1013 H 0.33881 0.07814 0.42507 0.0
H1014 H 0.36345 0.12837 0.49588 0.0
C1015 C 0.26702 1.01181 0.5374 0.0
C1016 C 1.00894 0.25727 0.4898 0.0
C1017 C 1.03253 0.28287 0.53138 0.0
H1018 H 1.01999 0.24955 0.41751 0.0
C1019 C 0.08767 0.31387 0.53246 0.0
H1020 H 0.96695 0.23268 0.48746 0.0
C1021 C 0.1176 0.32364 0.49267 0.0
C1022 C 0.09395 0.30184 0.45039 0.0
H1023 H 0.10811 0.33354 0.56372 0.0
H1024 H 0.15918 0.35143 0.4944 0.0
C1025 C 1.03951 0.26666 0.44965 0.0
loop_
_geom_bond_atom_site_label_1
_geom_bond_atom_site_label_2
_geom_bond_distance
_geom_bond_site_symmetry_2
_ccdc_geom_bond_type
Eu0 N31 2.648 1_456 S
Eu0 N38 2.609 . S
Eu0 O44 2.558 . S
Eu0 O45 2.612 1_556 S
Eu0 O47 2.339 1_556 S
Eu0 O48 2.563 . S
Eu0 O49 2.419 1_556 S
Eu0 O51 2.378 1_456 S
Eu0 O52 2.432 . S
Eu0 C64 2.848 . S
C1 C4 1.429 . S
C1 C5 1.411 . S
C1 N8 1.377 1_455 S
C2 C4 1.420 1_556 S
C2 C6 1.423 1_556 S
C2 C14 1.392 . S
C3 C5 1.420 . S
C3 C6 1.351 . S
C3 H26 0.931 . S
C4 C1 1.429 . S
C4 C2 1.420 1_554 S
C4 N12 1.362 1_554 S
C5 C1 1.411 . S
C5 C3 1.420 . S
C5 C10 1.395 . S
C6 C2 1.423 1_554 S
C6 C3 1.351 . S
C6 H18 0.930 . S
C7 C9 1.400 . S
C7 C10 1.386 1_655 S
C7 H19 0.930 . S
N8 C1 1.377 1_655 S
N8 C9 1.321 . S
N8 Eu11 2.609 . S
C9 C7 1.400 . S
C9 N8 1.321 . S
C9 H16 0.930 . S
C10 C5 1.395 . S
C10 C7 1.386 1_455 S
C10 H29 0.930 . S
Eu11 N8 2.609 . S
Eu11 N12 2.657 1_654 S
Eu11 O45 2.380 1_655 S
Eu11 O46 2.432 . S
Eu11 O50 2.558 . S
Eu11 O51 2.614 . S
Eu11 O53 2.339 1_554 S
Eu11 O54 2.563 . S
Eu11 O55 2.419 1_554 S
Eu11 C75 2.848 . S
N12 C4 1.362 1_556 S
N12 Eu11 2.657 1_456 S
N12 C13 1.334 . S
C13 N12 1.334 . S
C13 C15 1.413 . S
C13 H20 0.929 . S
C14 C2 1.392 . S
C14 C15 1.367 . S
C14 H22 0.930 . S
C15 C13 1.413 . S
C15 C14 1.367 . S
C15 H17 0.930 . S
H16 C9 0.930 . S
H17 C15 0.930 . S
H18 C6 0.930 . S
H19 C7 0.930 . S
H20 C13 0.929 . S
H21 C35 0.930 . S
H22 C14 0.930 . S
H23 C41 0.930 . S
H24 C32 0.915 1_455 S
H25 C39 0.930 . S
H26 C3 0.931 . S
H27 C33 0.930 . S
H28 C66 0.930 . S
H29 C10 0.930 . S
H30 C65 0.931 . S
N31 Eu0 2.648 1_654 S
N31 C32 1.336 . S
N31 C36 1.369 1_554 S
C32 H24 0.915 1_655 S
C32 N31 1.336 . S
C32 C35 1.413 . S
C33 H27 0.930 . S
C33 C34 1.392 . S
C33 C35 1.367 . S
C34 C33 1.392 . S
C34 C36 1.420 1_554 S
C34 C66 1.423 1_554 S
C35 H21 0.930 . S
C35 C32 1.413 . S
C35 C33 1.367 . S
C36 N31 1.369 1_556 S
C36 C34 1.420 1_556 S
C36 C40 1.429 . S
H37 C42 0.930 . S
N38 Eu0 2.609 . S
N38 C40 1.377 1_455 S
N38 C41 1.321 . S
C39 H25 0.930 . S
C39 C41 1.400 . S
C39 C42 1.386 1_455 S
C40 C36 1.429 . S
C40 N38 1.377 1_655 S
C40 C43 1.411 . S
C41 H23 0.930 . S
C41 N38 1.321 . S
C41 C39 1.400 . S
C42 H37 0.930 . S
C42 C39 1.386 1_655 S
C42 C43 1.395 . S
C43 C40 1.411 . S
C43 C42 1.395 . S
C43 C65 1.420 . S
O44 Eu0 2.558 . S
O44 C64 1.257 . S
O45 Eu0 2.612 1_554 S
O45 Eu11 2.380 1_455 S
O45 C56 1.276 1_554 S
O46 Eu11 2.432 . S
O46 C63 1.264 1_655 S
O47 Eu0 2.339 1_554 S
O47 C63 1.254 . S
O48 Eu0 2.563 . S
O48 C56 1.235 . S
O49 Eu0 2.419 1_554 S
O49 C64 1.249 1_554 S
O50 Eu11 2.558 . S
O50 C75 1.257 . S
O51 Eu0 2.378 1_654 S
O51 Eu11 2.614 . S
O51 C67 1.278 . S
O52 Eu0 2.432 . S
O52 C74 1.264 1_455 S
O53 Eu11 2.339 1_556 S
O53 C74 1.254 . S
O54 Eu11 2.563 . S
O54 C67 1.235 . S
O55 Eu11 2.419 1_556 S
O55 C75 1.249 1_556 S
C56 O45 1.276 1_556 S
C56 O48 1.235 . S
C57 C59 1.393 1_556 S
C57 C61 1.395 . S
C57 C64 1.492 . S
C58 C59 1.392 . S
C58 C60 1.386 1_554 S
C59 C57 1.393 1_554 S
C59 C58 1.392 . S
C59 H76 0.930 . S
C60 C58 1.386 1_556 S
C60 C62 1.395 . S
C60 H77 0.930 . S
C61 C57 1.395 . S
C61 C62 1.379 . S
C61 H78 0.930 . S
C62 C60 1.395 . S
C62 C61 1.379 . S
C62 H79 0.930 . S
C63 O46 1.264 1_455 S
C63 O47 1.254 . S
C64 Eu0 2.848 . S
C64 O44 1.257 . S
C64 O49 1.249 1_556 S
C64 C57 1.492 . S
C65 H30 0.931 . S
C65 C43 1.420 . S
C65 C66 1.351 . S
C66 H28 0.930 . S
C66 C34 1.423 1_556 S
C66 C65 1.351 . S
C67 O51 1.278 . S
C67 O54 1.235 . S
C68 C69 1.393 1_554 S
C68 C72 1.395 . S
C68 C75 1.492 . S
C69 C68 1.393 1_556 S
C69 C70 1.392 . S
C69 H80 0.930 . S
C70 C69 1.392 . S
C70 C71 1.388 1_556 S
C71 C70 1.388 1_554 S
C71 C73 1.395 . S
C71 H81 0.930 . S
C72 C68 1.395 . S
C72 C73 1.379 . S
C72 H82 0.930 . S
C73 C71 1.395 . S
C73 C72 1.379 . S
C73 H83 0.930 . S
C74 O52 1.264 1_655 S
C74 O53 1.254 . S
C75 Eu11 2.848 . S
C75 O50 1.257 . S
C75 O55 1.249 1_554 S
C75 C68 1.492 . S
H76 C59 0.930 . S
H77 C60 0.930 . S
H78 C61 0.930 . S
H79 C62 0.930 . S
H80 C69 0.930 . S
H81 C71 0.930 . S
H82 C72 0.930 . S
H83 C73 0.930 . S
Eu84 N115 2.657 1_556 S
Eu84 N122 2.609 . S
Eu84 O128 2.558 . S
Eu84 O129 2.612 1_556 S
Eu84 O131 2.339 1_556 S
Eu84 O132 2.563 . S
Eu84 O133 2.419 1_556 S
Eu84 O135 2.378 1_556 S
Eu84 O136 2.432 . S
Eu84 C148 2.848 . S
C85 C88 1.429 . S
C85 C89 1.411 . S
C85 N92 1.377 . S
C86 C88 1.420 1_556 S
C86 C90 1.423 1_556 S
C86 C98 1.392 . S
C87 C89 1.420 . S
C87 C90 1.351 . S
C87 H110 0.931 . S
C88 C85 1.429 . S
C88 C86 1.420 1_554 S
C88 N96 1.362 1_554 S
C89 C85 1.411 . S
C89 C87 1.420 . S
C89 C94 1.395 . S
C90 C86 1.423 1_554 S
C90 C87 1.351 . S
C90 H102 0.930 . S
C91 C93 1.400 . S
C91 C94 1.386 . S
C91 H103 0.930 . S
N92 C85 1.377 . S
N92 C93 1.321 . S
N92 Eu95 2.609 . S
C93 C91 1.400 . S
C93 N92 1.321 . S
C93 H100 0.930 . S
C94 C89 1.395 . S
C94 C91 1.386 . S
C94 H113 0.930 . S
Eu95 N92 2.609 . S
Eu95 N96 2.657 1_554 S
Eu95 O129 2.380 . S
Eu95 O130 2.432 . S
Eu95 O134 2.558 . S
Eu95 O135 2.614 . S
Eu95 O137 2.339 1_554 S
Eu95 O138 2.563 . S
Eu95 O139 2.419 1_554 S
Eu95 C159 2.848 . S
N96 C88 1.362 1_556 S
N96 Eu95 2.657 1_556 S
N96 C97 1.334 . S
C97 N96 1.334 . S
C97 C99 1.413 . S
C97 H104 0.929 . S
C98 C86 1.392 . S
C98 C99 1.367 . S
C98 H106 0.930 . S
C99 C97 1.413 . S
C99 C98 1.367 . S
C99 H101 0.930 . S
H100 C93 0.930 . S
H101 C99 0.930 . S
H102 C90 0.930 . S
H103 C91 0.930 . S
H104 C97 0.929 . S
H105 C119 0.930 . S
H106 C98 0.930 . S
H107 C125 0.930 . S
H108 C116 0.929 . S
H109 C123 0.930 . S
H110 C87 0.931 . S
H111 C117 0.930 . S
H112 C150 0.930 . S
H113 C94 0.930 . S
H114 C149 0.931 . S
N115 Eu84 2.657 1_554 S
N115 C116 1.334 . S
N115 C120 1.362 1_554 S
C116 H108 0.929 . S
C116 N115 1.334 . S
C116 C119 1.413 . S
C117 H111 0.930 . S
C117 C118 1.392 . S
C117 C119 1.367 . S
C118 C117 1.392 . S
C118 C120 1.420 1_554 S
C118 C150 1.423 1_554 S
C119 H105 0.930 . S
C119 C116 1.413 . S
C119 C117 1.367 . S
C120 N115 1.362 1_556 S
C120 C118 1.420 1_556 S
C120 C124 1.429 . S
H121 C126 0.930 . S
N122 Eu84 2.609 . S
N122 C124 1.377 . S
N122 C125 1.321 . S
C123 H109 0.930 . S
C123 C125 1.400 . S
C123 C126 1.386 . S
C124 C120 1.429 . S
C124 N122 1.377 . S
C124 C127 1.411 . S
C125 H107 0.930 . S
C125 N122 1.321 . S
C125 C123 1.400 . S
C126 H121 0.930 . S
C126 C123 1.386 . S
C126 C127 1.395 . S
C127 C124 1.411 . S
C127 C126 1.395 . S
C127 C149 1.420 . S
O128 Eu84 2.558 . S
O128 C148 1.257 . S
O129 Eu84 2.612 1_554 S
O129 Eu95 2.380 . S
O129 C140 1.276 1_554 S
O130 Eu95 2.432 . S
O130 C147 1.264 . S
O131 Eu84 2.339 1_554 S
O131 C147 1.254 . S
O132 Eu84 2.563 . S
O132 C140 1.235 . S
O133 Eu84 2.419 1_554 S
O133 C148 1.249 1_554 S
O134 Eu95 2.558 . S
O134 C159 1.257 . S
O135 Eu84 2.378 1_554 S
O135 Eu95 2.614 . S
O135 C151 1.278 . S
O136 Eu84 2.432 . S
O136 C158 1.264 . S
O137 Eu95 2.339 1_556 S
O137 C158 1.254 . S
O138 Eu95 2.563 . S
O138 C151 1.235 . S
O139 Eu95 2.419 1_556 S
O139 C159 1.249 1_556 S
C140 O129 1.276 1_556 S
C140 O132 1.235 . S
C141 C143 1.393 1_556 S
C141 C145 1.395 . S
C141 C148 1.492 . S
C142 C143 1.392 . S
C142 C144 1.386 1_554 S
C143 C141 1.393 1_554 S
C143 C142 1.392 . S
C143 H160 0.930 . S
C144 C142 1.386 1_556 S
C144 C146 1.395 . S
C144 H161 0.930 . S
C145 C141 1.395 . S
C145 C146 1.379 . S
C145 H162 0.930 . S
C146 C144 1.395 . S
C146 C145 1.379 . S
C146 H163 0.930 . S
C147 O130 1.264 . S
C147 O131 1.254 . S
C148 Eu84 2.848 . S
C148 O128 1.257 . S
C148 O133 1.249 1_556 S
C148 C141 1.492 . S
C149 H114 0.931 . S
C149 C127 1.420 . S
C149 C150 1.351 . S
C150 H112 0.930 . S
C150 C118 1.423 1_556 S
C150 C149 1.351 . S
C151 O135 1.278 . S
C151 O138 1.235 . S
C152 C153 1.393 1_554 S
C152 C156 1.395 . S
C152 C159 1.492 . S
C153 C152 1.393 1_556 S
C153 C154 1.392 . S
C153 H164 0.930 . S
C154 C153 1.392 . S
C154 C155 1.388 1_556 S
C155 C154 1.388 1_554 S
C155 C157 1.395 . S
C155 H165 0.930 . S
C156 C152 1.395 . S
C156 C157 1.379 . S
C156 H166 0.930 . S
C157 C155 1.395 . S
C157 C156 1.379 . S
C157 H167 0.930 . S
C158 O136 1.264 . S
C158 O137 1.254 . S
C159 Eu95 2.848 . S
C159 O134 1.257 . S
C159 O139 1.249 1_554 S
C159 C152 1.492 . S
H160 C143 0.930 . S
H161 C144 0.930 . S
H162 C145 0.930 . S
H163 C146 0.930 . S
H164 C153 0.930 . S
H165 C155 0.930 . S
H166 C156 0.930 . S
H167 C157 0.930 . S
Eu168 N199 2.657 1_566 S
Eu168 N206 2.609 . S
Eu168 O212 2.558 . S
Eu168 O213 2.612 1_556 S
Eu168 O215 2.339 1_556 S
Eu168 O216 2.563 . S
Eu168 O217 2.419 1_556 S
Eu168 O219 2.378 1_566 S
Eu168 O220 2.434 . S
Eu168 C232 2.848 . S
C169 C172 1.429 . S
C169 C173 1.411 . S
C169 N176 1.377 1_565 S
C170 C172 1.420 1_556 S
C170 C174 1.423 1_556 S
C170 C182 1.392 . S
C171 C173 1.420 . S
C171 C174 1.351 . S
C171 H194 0.931 . S
C172 C169 1.429 . S
C172 C170 1.420 1_554 S
C172 N180 1.364 1_564 S
C173 C169 1.411 . S
C173 C171 1.420 . S
C173 C178 1.395 . S
C174 C170 1.423 1_554 S
C174 C171 1.351 . S
C174 H186 0.930 . S
C175 C177 1.400 . S
C175 C178 1.386 1_545 S
C175 H187 0.930 . S
N176 C169 1.377 1_545 S
N176 C177 1.321 . S
N176 Eu179 2.609 . S
C177 C175 1.400 . S
C177 N176 1.321 . S
C177 H184 0.930 . S
C178 C173 1.395 . S
C178 C175 1.386 1_565 S
C178 H197 0.930 . S
Eu179 N176 2.609 . S
Eu179 N180 2.657 1_554 S
Eu179 O213 2.380 1_545 S
Eu179 O214 2.432 . S
Eu179 O218 2.558 . S
Eu179 O219 2.614 . S
Eu179 O221 2.339 1_554 S
Eu179 O222 2.563 . S
Eu179 O223 2.419 1_554 S
Eu179 C243 2.848 . S
N180 C172 1.364 1_546 S
N180 Eu179 2.657 1_556 S
N180 C181 1.332 1_545 S
C181 N180 1.332 1_565 S
C181 C183 1.413 . S
C181 H188 0.929 1_565 S
C182 C170 1.392 . S
C182 C183 1.367 . S
C182 H190 0.930 . S
C183 C181 1.413 . S
C183 C182 1.367 . S
C183 H185 0.930 . S
H184 C177 0.930 . S
H185 C183 0.930 . S
H186 C174 0.930 . S
H187 C175 0.930 . S
H188 C181 0.929 1_545 S
H189 C203 0.930 . S
H190 C182 0.930 . S
H191 C209 0.930 . S
H192 C200 0.929 . S
H193 C207 0.930 . S
H194 C171 0.931 . S
H195 C201 0.930 . S
H196 C234 0.930 . S
H197 C178 0.930 . S
H198 C233 0.931 . S
N199 Eu168 2.657 1_544 S
N199 C200 1.334 . S
N199 C204 1.362 1_554 S
C200 H192 0.929 . S
C200 N199 1.334 . S
C200 C203 1.413 . S
C201 H195 0.930 . S
C201 C202 1.392 . S
C201 C203 1.367 . S
C202 C201 1.392 . S
C202 C204 1.420 1_554 S
C202 C234 1.423 1_554 S
C203 H189 0.930 . S
C203 C200 1.413 . S
C203 C201 1.367 . S
C204 N199 1.362 1_556 S
C204 C202 1.420 1_556 S
C204 C208 1.429 . S
H205 C210 0.930 . S
N206 Eu168 2.609 . S
N206 C208 1.377 1_565 S
N206 C209 1.321 . S
C207 H193 0.930 . S
C207 C209 1.400 . S
C207 C210 1.386 1_565 S
C208 C204 1.429 . S
C208 N206 1.377 1_545 S
C208 C211 1.411 . S
C209 H191 0.930 . S
C209 N206 1.321 . S
C209 C207 1.400 . S
C210 H205 0.930 . S
C210 C207 1.386 1_545 S
C210 C211 1.395 . S
C211 C208 1.411 . S
C211 C210 1.395 . S
C211 C233 1.420 . S
O212 Eu168 2.558 . S
O212 C232 1.257 . S
O213 Eu168 2.612 1_554 S
O213 Eu179 2.380 1_565 S
O213 C224 1.276 1_554 S
O214 Eu179 2.432 . S
O214 C231 1.264 1_545 S
O215 Eu168 2.339 1_554 S
O215 C231 1.254 . S
O216 Eu168 2.563 . S
O216 C224 1.235 . S
O217 Eu168 2.419 1_554 S
O217 C232 1.249 1_554 S
O218 Eu179 2.558 . S
O218 C243 1.257 . S
O219 Eu168 2.378 1_544 S
O219 Eu179 2.614 . S
O219 C235 1.278 . S
O220 Eu168 2.434 . S
O220 C242 1.260 1_565 S
O221 Eu179 2.339 1_556 S
O221 C242 1.254 . S
O222 Eu179 2.563 . S
O222 C235 1.235 . S
O223 Eu179 2.419 1_556 S
O223 C243 1.249 1_556 S
C224 O213 1.276 1_556 S
C224 O216 1.235 . S
C225 C227 1.393 1_556 S
C225 C229 1.395 . S
C225 C232 1.492 . S
C226 C227 1.392 . S
C226 C228 1.386 1_554 S
C227 C225 1.393 1_554 S
C227 C226 1.392 . S
C227 H244 0.930 . S
C228 C226 1.386 1_556 S
C228 C230 1.395 . S
C228 H245 0.930 . S
C229 C225 1.395 . S
C229 C230 1.379 . S
C229 H246 0.930 . S
C230 C228 1.395 . S
C230 C229 1.379 . S
C230 H247 0.930 . S
C231 O214 1.264 1_565 S
C231 O215 1.254 . S
C232 Eu168 2.848 . S
C232 O212 1.257 . S
C232 O217 1.249 1_556 S
C232 C225 1.492 . S
C233 H198 0.931 . S
C233 C211 1.420 . S
C233 C234 1.351 . S
C234 H196 0.930 . S
C234 C202 1.423 1_556 S
C234 C233 1.351 . S
C235 O219 1.278 . S
C235 O222 1.235 . S
C236 C237 1.393 1_554 S
C236 C240 1.395 . S
C236 C243 1.492 . S
C237 C236 1.393 1_556 S
C237 C238 1.392 . S
C237 H248 0.930 . S
C238 C237 1.392 . S
C238 C239 1.387 1_556 S
C239 C238 1.387 1_554 S
C239 C241 1.395 . S
C239 H249 0.930 . S
C240 C236 1.395 . S
C240 C241 1.379 . S
C240 H250 0.930 . S
C241 C239 1.395 . S
C241 C240 1.379 . S
C241 H251 0.930 . S
C242 O220 1.260 1_545 S
C242 O221 1.254 . S
C243 Eu179 2.848 . S
C243 O218 1.257 . S
C243 O223 1.249 1_554 S
C243 C236 1.492 . S
H244 C227 0.930 . S
H245 C228 0.930 . S
H246 C229 0.930 . S
H247 C230 0.930 . S
H248 C237 0.930 . S
H249 C239 0.930 . S
H250 C240 0.930 . S
H251 C241 0.930 . S
Eu252 N283 2.657 . S
Eu252 N290 2.609 . S
Eu252 O296 2.558 . S
Eu252 O297 2.612 . S
Eu252 O299 2.339 . S
Eu252 O300 2.563 . S
Eu252 O301 2.419 . S
Eu252 O303 2.380 . S
Eu252 O304 2.432 . S
Eu252 C316 2.848 . S
C253 C256 1.429 . S
C253 C257 1.411 . S
C253 N260 1.377 . S
C254 C256 1.420 . S
C254 C258 1.423 . S
C254 C266 1.392 . S
C255 C257 1.420 . S
C255 C258 1.351 . S
C255 H278 0.931 . S
C256 C253 1.429 . S
C256 C254 1.420 . S
C256 N264 1.362 . S
C257 C253 1.411 . S
C257 C255 1.420 . S
C257 C262 1.395 . S
C258 C254 1.423 . S
C258 C255 1.351 . S
C258 H270 0.930 . S
C259 C261 1.400 . S
C259 C262 1.386 . S
C259 H271 0.930 . S
N260 C253 1.377 . S
N260 C261 1.321 . S
N260 Eu263 2.609 . S
C261 C259 1.400 . S
C261 N260 1.321 . S
C261 H268 0.930 . S
C262 C257 1.395 . S
C262 C259 1.386 . S
C262 H281 0.930 . S
Eu263 N260 2.609 . S
Eu263 N264 2.657 . S
Eu263 O297 2.380 . S
Eu263 O298 2.432 . S
Eu263 O302 2.558 . S
Eu263 O303 2.612 . S
Eu263 O305 2.339 . S
Eu263 O306 2.563 . S
Eu263 O307 2.419 . S
Eu263 C327 2.848 . S
N264 C256 1.362 . S
N264 Eu263 2.657 . S
N264 C265 1.334 . S
C265 N264 1.334 . S
C265 C267 1.413 . S
C265 H272 0.929 . S
C266 C254 1.392 . S
C266 C267 1.367 . S
C266 H274 0.930 . S
C267 C265 1.413 . S
C267 C266 1.367 . S
C267 H269 0.930 . S
H268 C261 0.930 . S
H269 C267 0.930 . S
H270 C258 0.930 . S
H271 C259 0.930 . S
H272 C265 0.929 . S
H273 C287 0.930 . S
H274 C266 0.930 . S
H275 C293 0.930 . S
H276 C284 0.929 . S
H277 C291 0.930 . S
H278 C255 0.931 . S
H279 C285 0.930 . S
H280 C318 0.917 1_545 S
H281 C262 0.930 . S
H282 C317 0.931 . S
N283 Eu252 2.657 . S
N283 C284 1.334 . S
N283 C288 1.362 . S
C284 H276 0.929 . S
C284 N283 1.334 . S
C284 C287 1.413 . S
C285 H279 0.930 . S
C285 C286 1.392 . S
C285 C287 1.367 . S
C286 C285 1.392 . S
C286 C288 1.420 . S
C286 C318 1.435 . S
C287 H273 0.930 . S
C287 C284 1.413 . S
C287 C285 1.367 . S
C288 N283 1.362 . S
C288 C286 1.420 . S
C288 C292 1.429 . S
H289 C294 0.930 1_545 S
N290 Eu252 2.609 . S
N290 C292 1.377 . S
N290 C293 1.321 . S
C291 H277 0.930 . S
C291 C293 1.400 . S
C291 C294 1.386 . S
C292 C288 1.429 . S
C292 N290 1.377 . S
C292 C295 1.411 . S
C293 H275 0.930 . S
C293 N290 1.321 . S
C293 C291 1.400 . S
C294 H289 0.930 1_565 S
C294 C291 1.386 . S
C294 C295 1.395 . S
C295 C292 1.411 . S
C295 C294 1.395 . S
C295 C317 1.420 1_565 S
O296 Eu252 2.558 . S
O296 C316 1.257 . S
O297 Eu252 2.612 . S
O297 Eu263 2.380 . S
O297 C308 1.276 . S
O298 Eu263 2.432 . S
O298 C315 1.264 . S
O299 Eu252 2.339 . S
O299 C315 1.254 . S
O300 Eu252 2.563 . S
O300 C308 1.235 . S
O301 Eu252 2.419 . S
O301 C316 1.249 . S
O302 Eu263 2.558 . S
O302 C327 1.257 . S
O303 Eu252 2.380 . S
O303 Eu263 2.612 . S
O303 C319 1.276 . S
O304 Eu252 2.432 . S
O304 C326 1.264 . S
O305 Eu263 2.339 . S
O305 C326 1.254 . S
O306 Eu263 2.563 . S
O306 C319 1.235 . S
O307 Eu263 2.419 . S
O307 C327 1.249 . S
C308 O297 1.276 . S
C308 O300 1.235 . S
C309 C311 1.393 . S
C309 C313 1.395 . S
C309 C316 1.492 1_545 S
C310 C311 1.392 . S
C310 C312 1.386 . S
C311 C309 1.393 . S
C311 C310 1.392 . S
C311 H328 0.930 . S
C312 C310 1.386 . S
C312 C314 1.395 . S
C312 H329 0.930 . S
C313 C309 1.395 . S
C313 C314 1.379 . S
C313 H330 0.930 . S
C314 C312 1.395 . S
C314 C313 1.379 . S
C314 H331 0.930 . S
C315 O298 1.264 . S
C315 O299 1.254 . S
C316 Eu252 2.848 . S
C316 O296 1.257 . S
C316 O301 1.249 . S
C316 C309 1.492 1_565 S
C317 H282 0.931 . S
C317 C295 1.420 1_545 S
C317 C318 1.351 1_545 S
C318 H280 0.917 1_565 S
C318 C286 1.435 . S
C318 C317 1.351 1_565 S
C319 O303 1.276 . S
C319 O306 1.235 . S
C320 C321 1.393 . S
C320 C324 1.395 . S
C320 C327 1.492 . S
C321 C320 1.393 . S
C321 C322 1.392 . S
C321 H332 0.930 . S
C322 C321 1.392 . S
C322 C323 1.386 . S
C323 C322 1.386 . S
C323 C325 1.395 . S
C323 H333 0.930 . S
C324 C320 1.395 . S
C324 C325 1.379 . S
C324 H334 0.930 . S
C325 C323 1.395 . S
C325 C324 1.379 . S
C325 H335 0.930 . S
C326 O304 1.264 . S
C326 O305 1.254 . S
C327 Eu263 2.848 . S
C327 O302 1.257 . S
C327 O307 1.249 . S
C327 C320 1.492 . S
H328 C311 0.930 . S
H329 C312 0.930 . S
H330 C313 0.930 . S
H331 C314 0.930 . S
H332 C321 0.930 . S
H333 C323 0.930 . S
H334 C324 0.930 . S
H335 C325 0.930 . S
Eu336 N367 2.657 . S
Eu336 N374 2.609 . S
Eu336 O380 2.558 . S
Eu336 O381 2.612 . S
Eu336 O383 2.339 . S
Eu336 O384 2.563 . S
Eu336 O385 2.419 . S
Eu336 O387 2.380 . S
Eu336 O388 2.432 . S
Eu336 C400 2.848 . S
C337 C340 1.429 . S
C337 C341 1.411 . S
C337 N344 1.377 1_545 S
C338 C340 1.420 . S
C338 C342 1.423 . S
C338 C350 1.392 . S
C339 C341 1.420 . S
C339 C342 1.351 . S
C339 H362 0.931 . S
C340 C337 1.429 . S
C340 C338 1.420 . S
C340 N348 1.362 1_545 S
C341 C337 1.411 . S
C341 C339 1.420 . S
C341 C346 1.395 . S
C342 C338 1.423 . S
C342 C339 1.351 . S
C342 H354 0.930 . S
C343 C345 1.400 1_545 S
C343 C346 1.386 . S
C343 H355 0.930 . S
N344 C337 1.377 1_565 S
N344 C345 1.321 . S
N344 Eu347 2.609 . S
C345 C343 1.400 1_565 S
C345 N344 1.321 . S
C345 H352 0.930 . S
C346 C341 1.395 . S
C346 C343 1.386 . S
C346 H365 0.930 . S
Eu347 N344 2.609 . S
Eu347 N348 2.657 . S
Eu347 O381 2.380 . S
Eu347 O382 2.432 . S
Eu347 O386 2.558 . S
Eu347 O387 2.612 . S
Eu347 O389 2.339 . S
Eu347 O390 2.563 . S
Eu347 O391 2.419 . S
Eu347 C411 2.848 . S
N348 C340 1.362 1_565 S
N348 Eu347 2.657 . S
N348 C349 1.334 . S
C349 N348 1.334 . S
C349 C351 1.413 1_565 S
C349 H356 0.929 . S
C350 C338 1.392 . S
C350 C351 1.367 . S
C350 H358 0.930 . S
C351 C349 1.413 1_545 S
C351 C350 1.367 . S
C351 H353 0.930 . S
H352 C345 0.930 . S
H353 C351 0.930 . S
H354 C342 0.930 . S
H355 C343 0.930 . S
H356 C349 0.929 . S
H357 C371 0.930 . S
H358 C350 0.930 . S
H359 C377 0.930 . S
H360 C368 0.929 . S
H361 C375 0.930 . S
H362 C339 0.931 . S
H363 C369 0.930 . S
H364 C402 0.930 1_655 S
H365 C346 0.930 . S
H366 C401 0.931 1_655 S
N367 Eu336 2.657 . S
N367 C368 1.334 . S
N367 C372 1.362 . S
C368 H360 0.929 . S
C368 N367 1.334 . S
C368 C371 1.413 . S
C369 H363 0.930 . S
C369 C370 1.392 . S
C369 C371 1.367 . S
C370 C369 1.392 . S
C370 C372 1.420 . S
C370 C402 1.423 . S
C371 H357 0.930 . S
C371 C368 1.413 . S
C371 C369 1.367 . S
C372 N367 1.362 . S
C372 C370 1.420 . S
C372 C376 1.429 . S
H373 C378 0.930 . S
N374 Eu336 2.609 . S
N374 C376 1.377 . S
N374 C377 1.321 . S
C375 H361 0.930 . S
C375 C377 1.400 . S
C375 C378 1.386 . S
C376 C372 1.429 . S
C376 N374 1.377 . S
C376 C379 1.411 . S
C377 H359 0.930 . S
C377 N374 1.321 . S
C377 C375 1.400 . S
C378 H373 0.930 . S
C378 C375 1.386 . S
C378 C379 1.395 . S
C379 C376 1.411 . S
C379 C378 1.395 . S
C379 C401 1.420 . S
O380 Eu336 2.558 . S
O380 C400 1.257 . S
O381 Eu336 2.612 . S
O381 Eu347 2.380 . S
O381 C392 1.276 . S
O382 Eu347 2.432 . S
O382 C399 1.264 . S
O383 Eu336 2.339 . S
O383 C399 1.254 . S
O384 Eu336 2.563 . S
O384 C392 1.235 . S
O385 Eu336 2.419 . S
O385 C400 1.249 . S
O386 Eu347 2.558 . S
O386 C411 1.257 . S
O387 Eu336 2.380 . S
O387 Eu347 2.612 . S
O387 C403 1.276 . S
O388 Eu336 2.432 . S
O388 C410 1.264 . S
O389 Eu347 2.339 . S
O389 C410 1.254 . S
O390 Eu347 2.563 . S
O390 C403 1.235 . S
O391 Eu347 2.419 . S
O391 C411 1.249 . S
C392 O381 1.276 . S
C392 O384 1.235 . S
C393 C395 1.393 . S
C393 C397 1.395 . S
C393 C400 1.492 1_655 S
C394 C395 1.392 . S
C394 C396 1.386 . S
C395 C393 1.393 . S
C395 C394 1.392 . S
C395 H412 0.930 1_655 S
C396 C394 1.386 . S
C396 C398 1.395 . S
C396 H413 0.930 . S
C397 C393 1.395 . S
C397 C398 1.379 . S
C397 H414 0.930 . S
C398 C396 1.395 . S
C398 C397 1.379 . S
C398 H415 0.930 . S
C399 O382 1.264 . S
C399 O383 1.254 . S
C400 Eu336 2.848 . S
C400 O380 1.257 . S
C400 O385 1.249 . S
C400 C393 1.492 1_455 S
C401 H366 0.931 1_455 S
C401 C379 1.420 . S
C401 C402 1.351 . S
C402 H364 0.930 1_455 S
C402 C370 1.423 . S
C402 C401 1.351 . S
C403 O387 1.276 . S
C403 O390 1.235 . S
C404 C405 1.393 . S
C404 C408 1.395 . S
C404 C411 1.492 . S
C405 C404 1.393 . S
C405 C406 1.392 . S
C405 H416 0.930 . S
C406 C405 1.392 . S
C406 C407 1.386 . S
C407 C406 1.386 . S
C407 C409 1.395 . S
C407 H417 0.930 . S
C408 C404 1.395 . S
C408 C409 1.379 . S
C408 H418 0.930 . S
C409 C407 1.395 . S
C409 C408 1.379 . S
C409 H419 0.930 . S
C410 O388 1.264 . S
C410 O389 1.254 . S
C411 Eu347 2.848 . S
C411 O386 1.257 . S
C411 O391 1.249 . S
C411 C404 1.492 . S
H412 C395 0.930 1_455 S
H413 C396 0.930 . S
H414 C397 0.930 . S
H415 C398 0.930 . S
H416 C405 0.930 . S
H417 C407 0.930 . S
H418 C408 0.930 . S
H419 C409 0.930 . S
Eu420 N451 2.657 . S
Eu420 N458 2.609 . S
Eu420 O464 2.558 . S
Eu420 O465 2.612 . S
Eu420 O467 2.339 . S
Eu420 O468 2.563 . S
Eu420 O469 2.419 . S
Eu420 O471 2.380 . S
Eu420 O472 2.432 . S
Eu420 C484 2.848 . S
C421 C424 1.429 . S
C421 C425 1.411 . S
C421 N428 1.377 1_655 S
C422 C424 1.420 . S
C422 C426 1.423 . S
C422 C434 1.392 . S
C423 C425 1.420 . S
C423 C426 1.351 . S
C423 H446 0.931 . S
C424 C421 1.429 . S
C424 C422 1.420 . S
C424 N432 1.362 1_655 S
C425 C421 1.411 . S
C425 C423 1.420 . S
C425 C430 1.395 . S
C426 C422 1.423 . S
C426 C423 1.351 . S
C426 H438 0.930 . S
C427 C429 1.400 1_655 S
C427 C430 1.386 . S
C427 H439 0.930 1_655 S
N428 C421 1.377 1_455 S
N428 C429 1.321 . S
N428 Eu431 2.609 . S
C429 C427 1.400 1_455 S
C429 N428 1.321 . S
C429 H436 0.930 . S
C430 C425 1.395 . S
C430 C427 1.386 . S
C430 H449 0.930 . S
Eu431 N428 2.609 . S
Eu431 N432 2.657 . S
Eu431 O465 2.380 . S
Eu431 O466 2.432 . S
Eu431 O470 2.558 . S
Eu431 O471 2.612 . S
Eu431 O473 2.339 . S
Eu431 O474 2.563 . S
Eu431 O475 2.419 . S
Eu431 C495 2.848 . S
N432 C424 1.362 1_455 S
N432 Eu431 2.657 . S
N432 C433 1.334 . S
C433 N432 1.334 . S
C433 C435 1.413 1_455 S
C433 H440 0.929 . S
C434 C422 1.392 . S
C434 C435 1.367 . S
C434 H442 0.930 . S
C435 C433 1.413 1_655 S
C435 C434 1.367 . S
C435 H437 0.930 . S
H436 C429 0.930 . S
H437 C435 0.930 . S
H438 C426 0.930 . S
H439 C427 0.930 1_455 S
H440 C433 0.929 . S
H441 C455 0.930 . S
H442 C434 0.930 . S
H443 C461 0.930 . S
H444 C452 0.929 . S
H445 C459 0.930 . S
H446 C423 0.931 . S
H447 C453 0.930 . S
H448 C486 0.930 . S
H449 C430 0.930 . S
H450 C485 0.931 . S
N451 Eu420 2.657 . S
N451 C452 1.334 . S
N451 C456 1.362 . S
C452 H444 0.929 . S
C452 N451 1.334 . S
C452 C455 1.413 . S
C453 H447 0.930 . S
C453 C454 1.392 . S
C453 C455 1.367 . S
C454 C453 1.392 . S
C454 C456 1.420 . S
C454 C486 1.423 . S
C455 H441 0.930 . S
C455 C452 1.413 . S
C455 C453 1.367 . S
C456 N451 1.362 . S
C456 C454 1.420 . S
C456 C460 1.429 . S
H457 C462 0.930 . S
N458 Eu420 2.609 . S
N458 C460 1.377 . S
N458 C461 1.321 . S
C459 H445 0.930 . S
C459 C461 1.400 . S
C459 C462 1.386 . S
C460 C456 1.429 . S
C460 N458 1.377 . S
C460 C463 1.411 . S
C461 H443 0.930 . S
C461 N458 1.321 . S
C461 C459 1.400 . S
C462 H457 0.930 . S
C462 C459 1.386 . S
C462 C463 1.395 . S
C463 C460 1.411 . S
C463 C462 1.395 . S
C463 C485 1.420 . S
O464 Eu420 2.558 . S
O464 C484 1.257 . S
O465 Eu420 2.612 . S
O465 Eu431 2.380 . S
O465 C476 1.276 . S
O466 Eu431 2.432 . S
O466 C483 1.264 . S
O467 Eu420 2.339 . S
O467 C483 1.254 . S
O468 Eu420 2.563 . S
O468 C476 1.235 . S
O469 Eu420 2.419 . S
O469 C484 1.249 . S
O470 Eu431 2.558 . S
O470 C495 1.257 . S
O471 Eu420 2.380 . S
O471 Eu431 2.612 . S
O471 C487 1.276 . S
O472 Eu420 2.432 . S
O472 C494 1.264 . S
O473 Eu431 2.339 . S
O473 C494 1.254 . S
O474 Eu431 2.563 . S
O474 C487 1.235 . S
O475 Eu431 2.419 . S
O475 C495 1.249 . S
C476 O465 1.276 . S
C476 O468 1.235 . S
C477 C479 1.393 . S
C477 C481 1.395 . S
C477 C484 1.492 . S
C478 C479 1.392 . S
C478 C480 1.386 . S
C479 C477 1.393 . S
C479 C478 1.392 . S
C479 H496 0.930 . S
C480 C478 1.386 . S
C480 C482 1.395 . S
C480 H497 0.930 . S
C481 C477 1.395 . S
C481 C482 1.379 . S
C481 H498 0.930 . S
C482 C480 1.395 . S
C482 C481 1.379 . S
C482 H499 0.930 . S
C483 O466 1.264 . S
C483 O467 1.254 . S
C484 Eu420 2.848 . S
C484 O464 1.257 . S
C484 O469 1.249 . S
C484 C477 1.492 . S
C485 H450 0.931 . S
C485 C463 1.420 . S
C485 C486 1.351 . S
C486 H448 0.930 . S
C486 C454 1.423 . S
C486 C485 1.351 . S
C487 O471 1.276 . S
C487 O474 1.235 . S
C488 C489 1.393 . S
C488 C492 1.395 . S
C488 C495 1.492 . S
C489 C488 1.393 . S
C489 C490 1.392 . S
C489 H500 0.930 . S
C490 C489 1.392 . S
C490 C491 1.386 . S
C491 C490 1.386 . S
C491 C493 1.395 . S
C491 H501 0.930 . S
C492 C488 1.395 . S
C492 C493 1.379 . S
C492 H502 0.930 . S
C493 C491 1.395 . S
C493 C492 1.379 . S
C493 H503 0.930 . S
C494 O472 1.264 . S
C494 O473 1.254 . S
C495 Eu431 2.848 . S
C495 O470 1.257 . S
C495 O475 1.249 . S
C495 C488 1.492 . S
H496 C479 0.930 . S
H497 C480 0.930 . S
H498 C481 0.930 . S
H499 C482 0.930 . S
H500 C489 0.930 . S
H501 C491 0.930 . S
H502 C492 0.930 . S
H503 C493 0.930 . S
Eu504 N535 2.657 . S
Eu504 N542 2.609 . S
Eu504 O548 2.558 . S
Eu504 O549 2.612 . S
Eu504 O551 2.339 . S
Eu504 O552 2.563 . S
Eu504 O553 2.419 . S
Eu504 O555 2.380 . S
Eu504 O556 2.432 . S
Eu504 C568 2.848 . S
C505 C508 1.429 . S
C505 C509 1.411 . S
C505 N512 1.377 1_565 S
C506 C508 1.420 . S
C506 C510 1.423 . S
C506 C518 1.392 . S
C507 C509 1.420 . S
C507 C510 1.351 . S
C507 H530 0.931 . S
C508 C505 1.429 . S
C508 C506 1.420 . S
C508 N516 1.362 1_565 S
C509 C505 1.411 . S
C509 C507 1.420 . S
C509 C514 1.395 . S
C510 C506 1.423 . S
C510 C507 1.351 . S
C510 H522 0.930 . S
C511 C513 1.400 1_565 S
C511 C514 1.386 . S
C511 H523 0.930 . S
N512 C505 1.377 1_545 S
N512 C513 1.321 . S
N512 Eu515 2.609 . S
C513 C511 1.400 1_545 S
C513 N512 1.321 . S
C513 H520 0.930 . S
C514 C509 1.395 . S
C514 C511 1.386 . S
C514 H533 0.930 . S
Eu515 N512 2.609 . S
Eu515 N516 2.657 . S
Eu515 O549 2.380 . S
Eu515 O550 2.432 . S
Eu515 O554 2.558 1_545 S
Eu515 O555 2.612 . S
Eu515 O557 2.339 . S
Eu515 O558 2.563 . S
Eu515 O559 2.419 1_545 S
Eu515 C579 2.848 1_545 S
N516 C508 1.362 1_545 S
N516 Eu515 2.657 . S
N516 C517 1.334 . S
C517 N516 1.334 . S
C517 C519 1.413 . S
C517 H524 0.929 . S
C518 C506 1.392 . S
C518 C519 1.367 1_565 S
C518 H526 0.930 . S
C519 C517 1.413 . S
C519 C518 1.367 1_545 S
C519 H521 0.930 . S
H520 C513 0.930 . S
H521 C519 0.930 . S
H522 C510 0.930 . S
H523 C511 0.930 . S
H524 C517 0.929 . S
H525 C539 0.930 . S
H526 C518 0.930 . S
H527 C545 0.930 . S
H528 C536 0.929 . S
H529 C543 0.930 . S
H530 C507 0.931 . S
H531 C537 0.930 . S
H532 C570 0.930 . S
H533 C514 0.930 . S
H534 C569 0.931 . S
N535 Eu504 2.657 . S
N535 C536 1.334 . S
N535 C540 1.362 . S
C536 H528 0.929 . S
C536 N535 1.334 . S
C536 C539 1.413 . S
C537 H531 0.930 . S
C537 C538 1.392 . S
C537 C539 1.367 . S
C538 C537 1.392 . S
C538 C540 1.420 . S
C538 C570 1.423 . S
C539 H525 0.930 . S
C539 C536 1.413 . S
C539 C537 1.367 . S
C540 N535 1.362 . S
C540 C538 1.420 . S
C540 C544 1.429 . S
H541 C546 0.930 . S
N542 Eu504 2.609 . S
N542 C544 1.377 . S
N542 C545 1.321 . S
C543 H529 0.930 . S
C543 C545 1.400 . S
C543 C546 1.386 . S
C544 C540 1.429 . S
C544 N542 1.377 . S
C544 C547 1.411 . S
C545 H527 0.930 . S
C545 N542 1.321 . S
C545 C543 1.400 . S
C546 H541 0.930 . S
C546 C543 1.386 . S
C546 C547 1.395 . S
C547 C544 1.411 . S
C547 C546 1.395 . S
C547 C569 1.420 . S
O548 Eu504 2.558 . S
O548 C568 1.257 . S
O549 Eu504 2.612 . S
O549 Eu515 2.380 . S
O549 C560 1.276 . S
O550 Eu515 2.432 . S
O550 C567 1.264 . S
O551 Eu504 2.339 . S
O551 C567 1.254 . S
O552 Eu504 2.563 . S
O552 C560 1.235 . S
O553 Eu504 2.419 . S
O553 C568 1.249 . S
O554 Eu515 2.558 1_565 S
O554 C579 1.257 . S
O555 Eu504 2.380 . S
O555 Eu515 2.612 . S
O555 C571 1.276 . S
O556 Eu504 2.432 . S
O556 C578 1.264 . S
O557 Eu515 2.339 . S
O557 C578 1.254 . S
O558 Eu515 2.563 . S
O558 C571 1.235 . S
O559 Eu515 2.419 1_565 S
O559 C579 1.249 . S
C560 O549 1.276 . S
C560 O552 1.235 . S
C561 C563 1.393 . S
C561 C565 1.395 . S
C561 C568 1.492 . S
C562 C563 1.392 . S
C562 C564 1.386 . S
C563 C561 1.393 . S
C563 C562 1.392 . S
C563 H580 0.930 . S
C564 C562 1.386 . S
C564 C566 1.395 . S
C564 H581 0.930 . S
C565 C561 1.395 . S
C565 C566 1.379 . S
C565 H582 0.930 . S
C566 C564 1.395 . S
C566 C565 1.379 . S
C566 H583 0.930 . S
C567 O550 1.264 . S
C567 O551 1.254 . S
C568 Eu504 2.848 . S
C568 O548 1.257 . S
C568 O553 1.249 . S
C568 C561 1.492 . S
C569 H534 0.931 . S
C569 C547 1.420 . S
C569 C570 1.351 . S
C570 H532 0.930 . S
C570 C538 1.423 . S
C570 C569 1.351 . S
C571 O555 1.276 . S
C571 O558 1.235 . S
C572 C573 1.393 . S
C572 C576 1.395 . S
C572 C579 1.492 . S
C573 C572 1.393 . S
C573 C574 1.392 . S
C573 H584 0.930 . S
C574 C573 1.392 . S
C574 C575 1.386 . S
C575 C574 1.386 . S
C575 C577 1.395 . S
C575 H585 0.930 . S
C576 C572 1.395 . S
C576 C577 1.379 . S
C576 H586 0.930 . S
C577 C575 1.395 . S
C577 C576 1.379 . S
C577 H587 0.930 . S
C578 O556 1.264 . S
C578 O557 1.254 . S
C579 Eu515 2.848 1_565 S
C579 O554 1.257 . S
C579 O559 1.249 . S
C579 C572 1.492 . S
H580 C563 0.930 . S
H581 C564 0.930 . S
H582 C565 0.930 . S
H583 C566 0.930 . S
H584 C573 0.930 . S
H585 C575 0.930 . S
H586 C576 0.930 . S
H587 C577 0.930 . S
Eu588 N619 2.657 . S
Eu588 N626 2.609 . S
Eu588 O632 2.558 . S
Eu588 O633 2.612 . S
Eu588 O635 2.339 . S
Eu588 O636 2.563 . S
Eu588 O637 2.419 . S
Eu588 O639 2.380 . S
Eu588 O640 2.432 . S
Eu588 C652 2.848 . S
C589 C592 1.429 . S
C589 C593 1.411 . S
C589 N596 1.377 1_455 S
C590 C592 1.420 . S
C590 C594 1.423 . S
C590 C602 1.392 . S
C591 C593 1.420 . S
C591 C594 1.351 . S
C591 H614 0.931 . S
C592 C589 1.429 . S
C592 C590 1.420 . S
C592 N600 1.362 1_455 S
C593 C589 1.411 . S
C593 C591 1.420 . S
C593 C598 1.395 . S
C594 C590 1.423 . S
C594 C591 1.351 . S
C594 H606 0.930 . S
C595 C597 1.400 1_455 S
C595 C598 1.386 . S
C595 H607 0.930 . S
N596 C589 1.377 1_655 S
N596 C597 1.321 . S
N596 Eu599 2.609 . S
C597 C595 1.400 1_655 S
C597 N596 1.321 . S
C597 H604 0.930 . S
C598 C593 1.395 . S
C598 C595 1.386 . S
C598 H617 0.930 . S
Eu599 N596 2.609 . S
Eu599 N600 2.657 . S
Eu599 O633 2.380 . S
Eu599 O634 2.432 . S
Eu599 O638 2.558 1_655 S
Eu599 O639 2.612 . S
Eu599 O641 2.339 . S
Eu599 O642 2.563 . S
Eu599 O643 2.419 1_655 S
Eu599 C663 2.848 1_655 S
N600 C592 1.362 1_655 S
N600 Eu599 2.657 . S
N600 C601 1.334 . S
C601 N600 1.334 . S
C601 C603 1.413 1_655 S
C601 H608 0.929 . S
C602 C590 1.392 . S
C602 C603 1.367 . S
C602 H610 0.930 . S
C603 C601 1.413 1_455 S
C603 C602 1.367 . S
C603 H605 0.930 . S
H604 C597 0.930 . S
H605 C603 0.930 . S
H606 C594 0.930 . S
H607 C595 0.930 . S
H608 C601 0.929 . S
H609 C623 0.930 . S
H610 C602 0.930 . S
H611 C629 0.930 . S
H612 C620 0.929 . S
H613 C627 0.930 . S
H614 C591 0.931 . S
H615 C621 0.930 . S
H616 C654 0.930 . S
H617 C598 0.930 . S
H618 C653 0.931 . S
N619 Eu588 2.657 . S
N619 C620 1.334 . S
N619 C624 1.362 . S
C620 H612 0.929 . S
C620 N619 1.334 . S
C620 C623 1.413 . S
C621 H615 0.930 . S
C621 C622 1.392 . S
C621 C623 1.367 1_565 S
C622 C621 1.392 . S
C622 C624 1.420 1_565 S
C622 C654 1.423 . S
C623 H609 0.930 . S
C623 C620 1.413 . S
C623 C621 1.367 1_545 S
C624 N619 1.362 . S
C624 C622 1.420 1_545 S
C624 C628 1.429 . S
H625 C630 0.930 1_565 S
N626 Eu588 2.609 . S
N626 C628 1.377 . S
N626 C629 1.321 . S
C627 H613 0.930 . S
C627 C629 1.400 . S
C627 C630 1.386 . S
C628 C624 1.429 . S
C628 N626 1.377 . S
C628 C631 1.411 . S
C629 H611 0.930 . S
C629 N626 1.321 . S
C629 C627 1.400 . S
C630 H625 0.930 1_545 S
C630 C627 1.386 . S
C630 C631 1.395 . S
C631 C628 1.411 . S
C631 C630 1.395 . S
C631 C653 1.420 1_545 S
O632 Eu588 2.558 . S
O632 C652 1.257 . S
O633 Eu588 2.612 . S
O633 Eu599 2.380 . S
O633 C644 1.276 . S
O634 Eu599 2.432 . S
O634 C651 1.264 . S
O635 Eu588 2.339 . S
O635 C651 1.254 . S
O636 Eu588 2.563 . S
O636 C644 1.235 . S
O637 Eu588 2.419 . S
O637 C652 1.249 . S
O638 Eu599 2.558 1_455 S
O638 C663 1.257 . S
O639 Eu588 2.380 . S
O639 Eu599 2.612 . S
O639 C655 1.276 . S
O640 Eu588 2.432 . S
O640 C662 1.264 . S
O641 Eu599 2.339 . S
O641 C662 1.254 . S
O642 Eu599 2.563 . S
O642 C655 1.235 . S
O643 Eu599 2.419 1_455 S
O643 C663 1.249 . S
C644 O633 1.276 . S
C644 O636 1.235 . S
C645 C647 1.393 . S
C645 C649 1.395 . S
C645 C652 1.492 . S
C646 C647 1.392 . S
C646 C648 1.386 . S
C647 C645 1.393 . S
C647 C646 1.392 . S
C647 H664 0.930 . S
C648 C646 1.386 . S
C648 C650 1.395 . S
C648 H665 0.930 . S
C649 C645 1.395 . S
C649 C650 1.379 . S
C649 H666 0.930 . S
C650 C648 1.395 . S
C650 C649 1.379 . S
C650 H667 0.930 . S
C651 O634 1.264 . S
C651 O635 1.254 . S
C652 Eu588 2.848 . S
C652 O632 1.257 . S
C652 O637 1.249 . S
C652 C645 1.492 . S
C653 H618 0.931 . S
C653 C631 1.420 1_565 S
C653 C654 1.351 . S
C654 H616 0.930 . S
C654 C622 1.423 . S
C654 C653 1.351 . S
C655 O639 1.276 . S
C655 O642 1.235 . S
C656 C657 1.393 . S
C656 C660 1.395 . S
C656 C663 1.492 . S
C657 C656 1.393 . S
C657 C658 1.392 . S
C657 H668 0.930 . S
C658 C657 1.392 . S
C658 C659 1.386 . S
C659 C658 1.386 . S
C659 C661 1.395 . S
C659 H669 0.930 . S
C660 C656 1.395 . S
C660 C661 1.379 . S
C660 H670 0.930 . S
C661 C659 1.395 . S
C661 C660 1.379 . S
C661 H671 0.930 . S
C662 O640 1.264 . S
C662 O641 1.254 . S
C663 Eu599 2.848 1_455 S
C663 O638 1.257 . S
C663 O643 1.249 . S
C663 C656 1.492 . S
H664 C647 0.930 . S
H665 C648 0.930 . S
H666 C649 0.930 . S
H667 C650 0.930 . S
H668 C657 0.930 . S
H669 C659 0.930 . S
H670 C660 0.930 . S
H671 C661 0.930 . S
Eu672 N703 2.657 . S
Eu672 N710 2.609 . S
Eu672 O716 2.558 . S
Eu672 O717 2.612 . S
Eu672 O719 2.339 . S
Eu672 O720 2.563 . S
Eu672 O721 2.419 . S
Eu672 O723 2.380 . S
Eu672 O724 2.432 . S
Eu672 C736 2.848 . S
C673 C676 1.429 . S
C673 C677 1.411 . S
C673 N680 1.377 . S
C674 C676 1.420 . S
C674 C678 1.423 . S
C674 C686 1.392 . S
C675 C677 1.420 . S
C675 C678 1.351 . S
C675 H698 0.931 . S
C676 C673 1.429 . S
C676 C674 1.420 . S
C676 N684 1.362 . S
C677 C673 1.411 . S
C677 C675 1.420 . S
C677 C682 1.395 . S
C678 C674 1.423 . S
C678 C675 1.351 . S
C678 H690 0.930 . S
C679 C681 1.400 . S
C679 C682 1.386 . S
C679 H691 0.930 . S
N680 C673 1.377 . S
N680 C681 1.321 . S
N680 Eu683 2.609 . S
C681 C679 1.400 . S
C681 N680 1.321 . S
C681 H688 0.930 . S
C682 C677 1.395 . S
C682 C679 1.386 . S
C682 H701 0.930 . S
Eu683 N680 2.609 . S
Eu683 N684 2.657 . S
Eu683 O717 2.380 . S
Eu683 O718 2.432 . S
Eu683 O722 2.558 . S
Eu683 O723 2.612 . S
Eu683 O725 2.339 . S
Eu683 O726 2.563 . S
Eu683 O727 2.419 . S
Eu683 C747 2.848 . S
N684 C676 1.362 . S
N684 Eu683 2.657 . S
N684 C685 1.334 . S
C685 N684 1.334 . S
C685 C687 1.413 . S
C685 H692 0.929 . S
C686 C674 1.392 . S
C686 C687 1.367 . S
C686 H694 0.930 . S
C687 C685 1.413 . S
C687 C686 1.367 . S
C687 H689 0.930 . S
H688 C681 0.930 . S
H689 C687 0.930 . S
H690 C678 0.930 . S
H691 C679 0.930 . S
H692 C685 0.929 . S
H693 C707 0.930 . S
H694 C686 0.930 . S
H695 C713 0.930 . S
H696 C704 0.929 . S
H697 C711 0.930 . S
H698 C675 0.931 . S
H699 C705 0.930 . S
H700 C738 0.930 . S
H701 C682 0.930 . S
H702 C737 0.931 . S
N703 Eu672 2.657 . S
N703 C704 1.334 . S
N703 C708 1.362 . S
C704 H696 0.929 . S
C704 N703 1.334 . S
C704 C707 1.413 . S
C705 H699 0.930 . S
C705 C706 1.392 . S
C705 C707 1.367 1_455 S
C706 C705 1.392 . S
C706 C708 1.420 1_455 S
C706 C738 1.423 . S
C707 H693 0.930 . S
C707 C704 1.413 . S
C707 C705 1.367 1_655 S
C708 N703 1.362 . S
C708 C706 1.420 1_655 S
C708 C712 1.429 . S
H709 C714 0.930 1_455 S
N710 Eu672 2.609 . S
N710 C712 1.377 . S
N710 C713 1.321 . S
C711 H697 0.930 . S
C711 C713 1.400 . S
C711 C714 1.386 . S
C712 C708 1.429 . S
C712 N710 1.377 . S
C712 C715 1.411 1_655 S
C713 H695 0.930 . S
C713 N710 1.321 . S
C713 C711 1.400 . S
C714 H709 0.930 1_655 S
C714 C711 1.386 . S
C714 C715 1.395 1_655 S
C715 C712 1.411 1_455 S
C715 C714 1.395 1_455 S
C715 C737 1.420 . S
O716 Eu672 2.558 . S
O716 C736 1.257 . S
O717 Eu672 2.612 . S
O717 Eu683 2.380 . S
O717 C728 1.276 . S
O718 Eu683 2.432 . S
O718 C735 1.264 . S
O719 Eu672 2.339 . S
O719 C735 1.254 . S
O720 Eu672 2.563 . S
O720 C728 1.235 . S
O721 Eu672 2.419 . S
O721 C736 1.249 . S
O722 Eu683 2.558 . S
O722 C747 1.257 . S
O723 Eu672 2.380 . S
O723 Eu683 2.612 . S
O723 C739 1.276 . S
O724 Eu672 2.432 . S
O724 C746 1.264 . S
O725 Eu683 2.339 . S
O725 C746 1.254 . S
O726 Eu683 2.563 . S
O726 C739 1.235 . S
O727 Eu683 2.419 . S
O727 C747 1.249 . S
C728 O717 1.276 . S
C728 O720 1.235 . S
C729 C731 1.393 . S
C729 C733 1.395 . S
C729 C736 1.492 . S
C730 C731 1.392 . S
C730 C732 1.386 . S
C731 C729 1.393 . S
C731 C730 1.392 . S
C731 H748 0.930 . S
C732 C730 1.386 . S
C732 C734 1.395 . S
C732 H749 0.930 . S
C733 C729 1.395 . S
C733 C734 1.379 . S
C733 H750 0.930 . S
C734 C732 1.395 . S
C734 C733 1.379 . S
C734 H751 0.930 . S
C735 O718 1.264 . S
C735 O719 1.254 . S
C736 Eu672 2.848 . S
C736 O716 1.257 . S
C736 O721 1.249 . S
C736 C729 1.492 . S
C737 H702 0.931 . S
C737 C715 1.420 . S
C737 C738 1.351 . S
C738 H700 0.930 . S
C738 C706 1.423 . S
C738 C737 1.351 . S
C739 O723 1.276 . S
C739 O726 1.235 . S
C740 C741 1.393 . S
C740 C744 1.395 . S
C740 C747 1.492 . S
C741 C740 1.393 . S
C741 C742 1.392 . S
C741 H752 0.930 . S
C742 C741 1.392 . S
C742 C743 1.386 . S
C743 C742 1.386 . S
C743 C745 1.395 . S
C743 H753 0.930 . S
C744 C740 1.395 . S
C744 C745 1.379 . S
C744 H754 0.930 . S
C745 C743 1.395 . S
C745 C744 1.379 . S
C745 H755 0.930 . S
C746 O724 1.264 . S
C746 O725 1.254 . S
C747 Eu683 2.848 . S
C747 O722 1.257 . S
C747 O727 1.249 . S
C747 C740 1.492 . S
H748 C731 0.930 . S
H749 C732 0.930 . S
H750 C733 0.930 . S
H751 C734 0.930 . S
H752 C741 0.930 . S
H753 C743 0.930 . S
H754 C744 0.930 . S
H755 C745 0.930 . S
C756 C757 1.387 1_556 S
C756 H760 0.950 . S
C756 C765 1.390 . S
C757 C756 1.387 1_554 S
C757 C759 1.387 . S
H758 C765 0.950 . S
C759 C757 1.387 . S
C759 C761 1.390 . S
C759 H763 0.950 . S
H760 C756 0.950 . S
C761 C759 1.390 . S
C761 C762 1.387 . S
C761 H764 0.950 . S
C762 C761 1.387 . S
C762 C765 1.387 1_554 S
H763 C759 0.950 . S
H764 C761 0.950 . S
C765 C756 1.390 . S
C765 H758 0.950 . S
C765 C762 1.387 1_556 S
C766 C767 1.387 . S
C766 H770 0.950 . S
C766 C775 1.390 . S
C767 C766 1.387 . S
C767 C769 1.387 1_554 S
H768 C775 0.950 . S
C769 C767 1.387 1_556 S
C769 C771 1.390 . S
C769 H773 0.950 . S
H770 C766 0.950 . S
C771 C769 1.390 . S
C771 C772 1.387 1_556 S
C771 H774 0.950 . S
C772 C771 1.387 1_554 S
C772 C775 1.387 . S
H773 C769 0.950 . S
H774 C771 0.950 . S
C775 C766 1.390 . S
C775 H768 0.950 . S
C775 C772 1.387 . S
C776 C777 1.387 . S
C776 H780 0.950 . S
C776 C785 1.390 . S
C777 C776 1.387 . S
C777 C779 1.387 1_554 S
H778 C785 0.950 . S
C779 C777 1.387 1_556 S
C779 C781 1.390 . S
C779 H783 0.950 . S
H780 C776 0.950 . S
C781 C779 1.390 . S
C781 C782 1.387 1_556 S
C781 H784 0.950 . S
C782 C781 1.387 1_554 S
C782 C785 1.387 . S
H783 C779 0.950 . S
H784 C781 0.950 . S
C785 C776 1.390 . S
C785 H778 0.950 . S
C785 C782 1.387 . S
C786 C787 1.387 . S
C786 H790 0.950 . S
C786 C795 1.390 . S
C787 C786 1.387 . S
C787 C789 1.387 1_556 S
H788 C795 0.950 . S
C789 C787 1.387 1_554 S
C789 C791 1.390 . S
C789 H793 0.950 . S
H790 C786 0.950 . S
C791 C789 1.390 . S
C791 C792 1.395 . S
C791 H794 0.950 . S
C792 C791 1.395 . S
C792 C795 1.378 1_554 S
H793 C789 0.950 . S
H794 C791 0.950 . S
C795 C786 1.390 . S
C795 H788 0.950 . S
C795 C792 1.378 1_556 S
C796 C797 1.389 . S
C796 H800 0.950 . S
C796 C805 1.390 . S
C797 C796 1.389 . S
C797 C799 1.385 1_554 S
H798 C805 0.950 . S
C799 C797 1.385 1_556 S
C799 C801 1.390 . S
C799 H803 0.950 . S
H800 C796 0.950 . S
C801 C799 1.390 . S
C801 C802 1.387 . S
C801 H804 0.950 . S
C802 C801 1.387 . S
C802 C805 1.387 1_556 S
H803 C799 0.950 . S
H804 C801 0.950 . S
C805 C796 1.390 . S
C805 H798 0.950 . S
C805 C802 1.387 1_554 S
C806 C807 1.383 1_556 S
C806 H810 0.950 . S
C806 C815 1.390 . S
C807 C806 1.383 1_554 S
C807 C809 1.391 . S
H808 C815 0.950 . S
C809 C807 1.391 . S
C809 C811 1.390 . S
C809 H813 0.950 . S
H810 C806 0.950 . S
C811 C809 1.390 . S
C811 C812 1.387 1_554 S
C811 H814 0.950 . S
C812 C811 1.387 1_556 S
C812 C815 1.387 . S
H813 C809 0.950 . S
H814 C811 0.950 . S
C815 C806 1.390 . S
C815 H808 0.950 . S
C815 C812 1.387 . S
C816 C817 1.387 . S
C816 H820 0.950 . S
C816 C825 1.390 . S
C817 C816 1.387 . S
C817 C819 1.387 . S
H818 C825 0.950 . S
C819 C817 1.387 . S
C819 C821 1.390 . S
C819 H823 0.950 . S
H820 C816 0.950 . S
C821 C819 1.390 . S
C821 C822 1.387 . S
C821 H824 0.950 . S
C822 C821 1.387 . S
C822 C825 1.387 . S
H823 C819 0.950 . S
H824 C821 0.950 . S
C825 C816 1.390 . S
C825 H818 0.950 . S
C825 C822 1.387 . S
C826 C827 1.387 . S
C826 H830 0.950 . S
C826 C835 1.390 1_545 S
C827 C826 1.387 . S
C827 C829 1.387 . S
H828 C835 0.950 . S
C829 C827 1.387 . S
C829 C831 1.390 . S
C829 H833 0.950 . S
H830 C826 0.950 . S
C831 C829 1.390 . S
C831 C832 1.387 1_545 S
C831 H834 0.950 . S
C832 C831 1.387 1_565 S
C832 C835 1.387 . S
H833 C829 0.950 . S
H834 C831 0.950 . S
C835 C826 1.390 1_565 S
C835 H828 0.950 . S
C835 C832 1.387 . S
C836 C837 1.387 . S
C836 H840 0.950 . S
C836 C845 1.390 1_455 S
C837 C836 1.387 . S
C837 C839 1.387 . S
H838 C845 0.950 . S
C839 C837 1.387 . S
C839 C841 1.390 1_455 S
C839 H843 0.950 . S
H840 C836 0.950 . S
C841 C839 1.390 1_655 S
C841 C842 1.387 . S
C841 H844 0.950 . S
C842 C841 1.387 . S
C842 C845 1.387 . S
H843 C839 0.950 . S
H844 C841 0.950 . S
C845 C836 1.390 1_655 S
C845 H838 0.950 . S
C845 C842 1.387 . S
C846 C847 1.387 . S
C846 H850 0.950 . S
C846 C855 1.390 . S
C847 C846 1.387 . S
C847 C849 1.387 . S
H848 C855 0.950 . S
C849 C847 1.387 . S
C849 C851 1.390 . S
C849 H853 0.950 . S
H850 C846 0.950 . S
C851 C849 1.390 . S
C851 C852 1.387 . S
C851 H854 0.950 . S
C852 C851 1.387 . S
C852 C855 1.387 . S
H853 C849 0.950 . S
H854 C851 0.950 . S
C855 C846 1.390 . S
C855 H848 0.950 . S
C855 C852 1.387 . S
C856 C857 1.387 . S
C856 H860 0.950 . S
C856 C865 1.390 . S
C857 C856 1.387 . S
C857 C859 1.387 . S
H858 C865 0.950 . S
C859 C857 1.387 . S
C859 C861 1.390 . S
C859 H863 0.950 . S
H860 C856 0.950 . S
C861 C859 1.390 . S
C861 C862 1.387 . S
C861 H864 0.950 . S
C862 C861 1.387 . S
C862 C865 1.387 . S
H863 C859 0.950 . S
H864 C861 0.950 . S
C865 C856 1.390 . S
C865 H858 0.950 . S
C865 C862 1.387 . S
C866 C867 1.387 . S
C866 H870 0.950 . S
C866 C875 1.390 . S
C867 C866 1.387 . S
C867 C869 1.387 . S
H868 C875 0.950 . S
C869 C867 1.387 . S
C869 C871 1.390 . S
C869 H873 0.950 . S
H870 C866 0.950 . S
C871 C869 1.390 . S
C871 C872 1.387 . S
C871 H874 0.950 . S
C872 C871 1.387 . S
C872 C875 1.387 . S
H873 C869 0.950 . S
H874 C871 0.950 . S
C875 C866 1.390 . S
C875 H868 0.950 . S
C875 C872 1.387 . S
C876 C877 1.387 . S
C876 H880 0.950 . S
C876 C885 1.390 . S
C877 C876 1.387 . S
C877 C879 1.387 . S
H878 C885 0.950 . S
C879 C877 1.387 . S
C879 C881 1.390 . S
C879 H883 0.950 . S
H880 C876 0.950 . S
C881 C879 1.390 . S
C881 C882 1.387 . S
C881 H884 0.950 . S
C882 C881 1.387 . S
C882 C885 1.387 . S
H883 C879 0.950 . S
H884 C881 0.950 . S
C885 C876 1.390 . S
C885 H878 0.950 . S
C885 C882 1.387 . S
C886 C887 1.387 . S
C886 H890 0.950 . S
C886 C895 1.390 . S
C887 C886 1.387 . S
C887 C889 1.387 . S
H888 C895 0.950 . S
C889 C887 1.387 . S
C889 C891 1.390 . S
C889 H893 0.950 . S
H890 C886 0.950 . S
C891 C889 1.390 . S
C891 C892 1.387 . S
C891 H894 0.950 . S
C892 C891 1.387 . S
C892 C895 1.387 . S
H893 C889 0.950 . S
H894 C891 0.950 . S
C895 C886 1.390 . S
C895 H888 0.950 . S
C895 C892 1.387 . S
C896 C897 1.387 . S
C896 H900 0.950 . S
C896 C905 1.390 . S
C897 C896 1.387 . S
C897 C899 1.387 . S
H898 C905 0.950 . S
C899 C897 1.387 . S
C899 C901 1.390 . S
C899 H903 0.950 . S
H900 C896 0.950 . S
C901 C899 1.390 . S
C901 C902 1.387 . S
C901 H904 0.950 . S
C902 C901 1.387 . S
C902 C905 1.387 . S
H903 C899 0.950 . S
H904 C901 0.950 . S
C905 C896 1.390 . S
C905 H898 0.950 . S
C905 C902 1.387 . S
C906 C907 1.387 1_545 S
C906 H910 0.950 1_545 S
C906 C915 1.390 . S
C907 C906 1.387 1_565 S
C907 C909 1.387 . S
H908 C915 0.950 . S
C909 C907 1.387 . S
C909 C911 1.390 1_565 S
C909 H913 0.950 . S
H910 C906 0.950 1_565 S
C911 C909 1.390 1_545 S
C911 C912 1.387 . S
C911 H914 0.950 . S
C912 C911 1.387 . S
C912 C915 1.387 . S
H913 C909 0.950 . S
H914 C911 0.950 . S
C915 C906 1.390 . S
C915 H908 0.950 . S
C915 C912 1.387 . S
C916 C917 1.387 . S
C916 H920 0.950 . S
C916 C925 1.390 1_655 S
C917 C916 1.387 . S
C917 C919 1.387 . S
H918 C925 0.950 . S
C919 C917 1.387 . S
C919 C921 1.390 1_655 S
C919 H923 0.950 . S
H920 C916 0.950 . S
C921 C919 1.390 1_455 S
C921 C922 1.387 . S
C921 H924 0.950 . S
C922 C921 1.387 . S
C922 C925 1.387 . S
H923 C919 0.950 . S
H924 C921 0.950 . S
C925 C916 1.390 1_455 S
C925 H918 0.950 . S
C925 C922 1.387 . S
C926 C927 1.387 . S
C926 H930 0.950 . S
C926 C935 1.390 . S
C927 C926 1.387 . S
C927 C929 1.387 . S
H928 C935 0.950 . S
C929 C927 1.387 . S
C929 C931 1.390 . S
C929 H933 0.950 . S
H930 C926 0.950 . S
C931 C929 1.390 . S
C931 C932 1.387 . S
C931 H934 0.950 . S
C932 C931 1.387 . S
C932 C935 1.387 . S
H933 C929 0.950 . S
H934 C931 0.950 . S
C935 C926 1.390 . S
C935 H928 0.950 . S
C935 C932 1.387 . S
C936 C937 1.387 . S
C936 H940 0.950 . S
C936 C945 1.390 . S
C937 C936 1.387 . S
C937 C939 1.387 . S
H938 C945 0.950 . S
C939 C937 1.387 . S
C939 C941 1.390 . S
C939 H943 0.950 . S
H940 C936 0.950 . S
C941 C939 1.390 . S
C941 C942 1.387 . S
C941 H944 0.950 . S
C942 C941 1.387 . S
C942 C945 1.387 . S
H943 C939 0.950 . S
H944 C941 0.950 . S
C945 C936 1.390 . S
C945 H938 0.950 . S
C945 C942 1.387 . S
C946 C947 1.387 . S
C946 H950 0.950 . S
C946 C955 1.390 . S
C947 C946 1.387 . S
C947 C949 1.387 . S
H948 C955 0.950 . S
C949 C947 1.387 . S
C949 C951 1.390 . S
C949 H953 0.950 . S
H950 C946 0.950 . S
C951 C949 1.390 . S
C951 C952 1.387 . S
C951 H954 0.950 . S
C952 C951 1.387 . S
C952 C955 1.387 . S
H953 C949 0.950 . S
H954 C951 0.950 . S
C955 C946 1.390 . S
C955 H948 0.950 . S
C955 C952 1.387 . S
C956 C957 1.387 . S
C956 H960 0.950 . S
C956 C965 1.390 . S
C957 C956 1.387 . S
C957 C959 1.387 . S
H958 C965 0.950 . S
C959 C957 1.387 . S
C959 C961 1.390 . S
C959 H963 0.950 . S
H960 C956 0.950 . S
C961 C959 1.390 . S
C961 C962 1.387 . S
C961 H964 0.950 . S
C962 C961 1.387 . S
C962 C965 1.387 . S
H963 C959 0.950 . S
H964 C961 0.950 . S
C965 C956 1.390 . S
C965 H958 0.950 . S
C965 C962 1.387 . S
C966 C967 1.387 . S
C966 H970 0.950 . S
C966 C975 1.390 . S
C967 C966 1.387 . S
C967 C969 1.387 . S
H968 C975 0.950 . S
C969 C967 1.387 . S
C969 C971 1.390 . S
C969 H973 0.950 . S
H970 C966 0.950 . S
C971 C969 1.390 . S
C971 C972 1.387 . S
C971 H974 0.950 . S
C972 C971 1.387 . S
C972 C975 1.387 . S
H973 C969 0.950 . S
H974 C971 0.950 . S
C975 C966 1.390 . S
C975 H968 0.950 . S
C975 C972 1.387 . S
C976 C977 1.387 . S
C976 H980 0.950 . S
C976 C985 1.390 . S
C977 C976 1.387 . S
C977 C979 1.387 . S
H978 C985 0.950 . S
C979 C977 1.387 . S
C979 C981 1.390 . S
C979 H983 0.950 . S
H980 C976 0.950 . S
C981 C979 1.390 . S
C981 C982 1.387 . S
C981 H984 0.950 . S
C982 C981 1.387 . S
C982 C985 1.387 . S
H983 C979 0.950 . S
H984 C981 0.950 . S
C985 C976 1.390 . S
C985 H978 0.950 . S
C985 C982 1.387 . S
C986 C987 1.387 . S
C986 H990 0.950 . S
C986 C995 1.390 . S
C987 C986 1.387 . S
C987 C989 1.387 . S
H988 C995 0.950 . S
C989 C987 1.387 . S
C989 C991 1.390 . S
C989 H993 0.950 . S
H990 C986 0.950 . S
C991 C989 1.390 . S
C991 C992 1.387 . S
C991 H994 0.950 . S
C992 C991 1.387 . S
C992 C995 1.387 . S
H993 C989 0.950 . S
H994 C991 0.950 . S
C995 C986 1.390 . S
C995 H988 0.950 . S
C995 C992 1.387 . S
C996 C997 1.387 . S
C996 H1000 0.950 . S
C996 C1005 1.390 . S
C997 C996 1.387 . S
C997 C999 1.387 . S
H998 C1005 0.950 . S
C999 C997 1.387 . S
C999 C1001 1.390 . S
C999 H1003 0.950 . S
H1000 C996 0.950 . S
C1001 C999 1.390 . S
C1001 C1002 1.387 . S
C1001 H1004 0.950 . S
C1002 C1001 1.387 . S
C1002 C1005 1.387 . S
H1003 C999 0.950 . S
H1004 C1001 0.950 . S
C1005 C996 1.390 . S
C1005 H998 0.950 . S
C1005 C1002 1.387 . S
C1006 C1007 1.387 . S
C1006 H1010 0.950 . S
C1006 C1015 1.390 1_565 S
C1007 C1006 1.387 . S
C1007 C1009 1.387 . S
H1008 C1015 0.950 . S
C1009 C1007 1.387 . S
C1009 C1011 1.390 1_565 S
C1009 H1013 0.950 . S
H1010 C1006 0.950 . S
C1011 C1009 1.390 1_545 S
C1011 C1012 1.387 . S
C1011 H1014 0.950 . S
C1012 C1011 1.387 . S
C1012 C1015 1.387 . S
H1013 C1009 0.950 . S
H1014 C1011 0.950 . S
C1015 C1006 1.390 1_545 S
C1015 H1008 0.950 . S
C1015 C1012 1.387 . S
C1016 C1017 1.387 . S
C1016 H1020 0.950 . S
C1016 C1025 1.390 1_655 S
C1017 C1016 1.387 . S
C1017 C1019 1.387 1_655 S
H1018 C1025 0.950 . S
C1019 C1017 1.387 1_455 S
C1019 C1021 1.390 . S
C1019 H1023 0.950 . S
H1020 C1016 0.950 . S
C1021 C1019 1.390 . S
C1021 C1022 1.387 . S
C1021 H1024 0.950 . S
C1022 C1021 1.387 . S
C1022 C1025 1.387 . S
H1023 C1019 0.950 . S
H1024 C1021 0.950 . S
C1025 C1016 1.390 1_455 S
C1025 H1018 0.950 . S
C1025 C1022 1.387 . S
C757 C142 1.181 . S
C762 C56 1.385 1_554 S
C767 C226 1.177 . S
C772 C140 1.379 1_554 S
C777 C224 1.380 1_554 S
C782 C58 1.180 . S
C787 C238 1.271 . S
C792 C151 1.457 . S
C797 C235 1.455 . S
C802 C70 1.266 . S
C807 C67 1.456 . S
C812 C154 1.268 . S
C817 C308 1.384 . S
C822 C394 1.178 . S
C827 C478 1.177 . S
C832 C392 1.380 . S
C837 C476 1.380 . S
C842 C310 1.176 . S
C847 C403 1.454 . S
C852 C490 1.266 . S
C857 C487 1.454 . S
C862 C322 1.270 . S
C867 C406 1.270 . S
C872 C319 1.454 . S
C877 C646 1.175 . S
C882 C560 1.381 . S
C887 C644 1.385 . S
C892 C730 1.180 . S
C897 C728 1.383 . S
C902 C562 1.176 . S
C907 C742 1.267 . S
C912 C655 1.455 . S
C917 C739 1.455 . S
C922 C574 1.270 . S
C927 C571 1.454 . S
C932 C658 1.271 . S
C937 C494 2.581 . S
C942 C63 2.658 . S
C947 C326 2.581 . S
C952 C147 2.657 . S
C957 C231 2.657 . S
C962 C410 2.581 . S
C967 C242 2.583 . S
C972 C567 2.658 . S
C977 C74 2.581 . S
C982 C651 2.657 . S
C987 C735 2.656 . S
C992 C158 2.582 . S
C997 C315 2.657 . S
C1002 C746 2.583 . S
C1007 C399 2.658 . S
C1012 C578 2.583 . S
C1017 C662 2.582 . S
C1022 C483 2.656 . S
