# Generated by pormake.
# Topology ukb, (4)-cn, num edge types: 1
# Building blocks:
#     Node 0, Type 0, BuildingBlock: AZAVOO_clean_sbu_0, # of connection points: 4
#     Node 1, Type 0, BuildingBlock: AZAVOO_clean_sbu_0, # of connection points: 4
#     Node 2, Type 0, BuildingBlock: AZAVOO_clean_sbu_0, # of connection points: 4
#     Node 3, Type 0, BuildingBlock: AZAVOO_clean_sbu_0, # of connection points: 4
#     Node 4, Type 0, BuildingBlock: AZAVOO_clean_sbu_0, # of connection points: 4
#     Node 5, Type 0, BuildingBlock: AZAVOO_clean_sbu_0, # of connection points: 4
#     Node 6, Type 0, BuildingBlock: AZAVOO_clean_sbu_0, # of connection points: 4
#     Node 7, Type 0, BuildingBlock: AZAVOO_clean_sbu_0, # of connection points: 4
#     Node 8, Type 0, BuildingBlock: AZAVOO_clean_sbu_0, # of connection points: 4
#     Node 9, Type 0, BuildingBlock: AZAVOO_clean_sbu_0, # of connection points: 4
#     Node 10, Type 0, BuildingBlock: AZAVOO_clean_sbu_0, # of connection points: 4
#     Node 11, Type 0, BuildingBlock: AZAVOO_clean_sbu_0, # of connection points: 4
#     Node 12, Type 0, BuildingBlock: AZAVOO_clean_sbu_0, # of connection points: 4
#     Node 13, Type 0, BuildingBlock: AZAVOO_clean_sbu_0, # of connection points: 4
#     Node 14, Type 0, BuildingBlock: AZAVOO_clean_sbu_0, # of connection points: 4
#     Node 15, Type 0, BuildingBlock: AZAVOO_clean_sbu_0, # of connection points: 4
#     Edge 16, Type (0, 0), BuildingBlock: AJUNOK_clean_linker_0, # of connection points: 2
#     Edge 17, Type (0, 0), BuildingBlock: AJUNOK_clean_linker_0, # of connection points: 2
#     Edge 18, Type (0, 0), BuildingBlock: AJUNOK_clean_linker_0, # of connection points: 2
#     Edge 19, Type (0, 0), BuildingBlock: AJUNOK_clean_linker_0, # of connection points: 2
#     Edge 20, Type (0, 0), BuildingBlock: AJUNOK_clean_linker_0, # of connection points: 2
#     Edge 21, Type (0, 0), BuildingBlock: AJUNOK_clean_linker_0, # of connection points: 2
#     Edge 22, Type (0, 0), BuildingBlock: AJUNOK_clean_linker_0, # of connection points: 2
#     Edge 23, Type (0, 0), BuildingBlock: AJUNOK_clean_linker_0, # of connection points: 2
#     Edge 24, Type (0, 0), BuildingBlock: AJUNOK_clean_linker_0, # of connection points: 2
#     Edge 25, Type (0, 0), BuildingBlock: AJUNOK_clean_linker_0, # of connection points: 2
#     Edge 26, Type (0, 0), BuildingBlock: AJUNOK_clean_linker_0, # of connection points: 2
#     Edge 27, Type (0, 0), BuildingBlock: AJUNOK_clean_linker_0, # of connection points: 2
#     Edge 28, Type (0, 0), BuildingBlock: AJUNOK_clean_linker_0, # of connection points: 2
#     Edge 29, Type (0, 0), BuildingBlock: AJUNOK_clean_linker_0, # of connection points: 2
#     Edge 30, Type (0, 0), BuildingBlock: AJUNOK_clean_linker_0, # of connection points: 2
#     Edge 31, Type (0, 0), BuildingBlock: AJUNOK_clean_linker_0, # of connection points: 2
#     Edge 32, Type (0, 0), BuildingBlock: AJUNOK_clean_linker_0, # of connection points: 2
#     Edge 33, Type (0, 0), BuildingBlock: AJUNOK_clean_linker_0, # of connection points: 2
#     Edge 34, Type (0, 0), BuildingBlock: AJUNOK_clean_linker_0, # of connection points: 2
#     Edge 35, Type (0, 0), BuildingBlock: AJUNOK_clean_linker_0, # of connection points: 2
#     Edge 36, Type (0, 0), BuildingBlock: AJUNOK_clean_linker_0, # of connection points: 2
#     Edge 37, Type (0, 0), BuildingBlock: AJUNOK_clean_linker_0, # of connection points: 2
#     Edge 38, Type (0, 0), BuildingBlock: AJUNOK_clean_linker_0, # of connection points: 2
#     Edge 39, Type (0, 0), BuildingBlock: AJUNOK_clean_linker_0, # of connection points: 2
#     Edge 40, Type (0, 0), BuildingBlock: AJUNOK_clean_linker_0, # of connection points: 2
#     Edge 41, Type (0, 0), BuildingBlock: AJUNOK_clean_linker_0, # of connection points: 2
#     Edge 42, Type (0, 0), BuildingBlock: AJUNOK_clean_linker_0, # of connection points: 2
#     Edge 43, Type (0, 0), BuildingBlock: AJUNOK_clean_linker_0, # of connection points: 2
#     Edge 44, Type (0, 0), BuildingBlock: AJUNOK_clean_linker_0, # of connection points: 2
#     Edge 45, Type (0, 0), BuildingBlock: AJUNOK_clean_linker_0, # of connection points: 2
#     Edge 46, Type (0, 0), BuildingBlock: AJUNOK_clean_linker_0, # of connection points: 2
#     Edge 47, Type (0, 0), BuildingBlock: AJUNOK_clean_linker_0, # of connection points: 2
# Relax obj value: 0.166
# Max RMSD: 0.204
# Mean RMSD: 0.180
data_MOF--net-ukb--node1-AZAVOO_clean_sbu_0--edge1-AJUNOK_clean_linker_0
_symmetry_space_group_name_H-M    P1
_symmetry_Int_Tables_number       1
_symmetry_cell_setting            triclinic
loop_
_symmetry_equiv_pos_as_xyz
'x, y, z'
_cell_length_a     29.664455
_cell_length_b     32.587969
_cell_length_c     30.466459
_cell_angle_alpha  90.084035
_cell_angle_beta   89.938013
_cell_angle_gamma 90.112827
loop_
_atom_site_label
_atom_site_type_symbol
_atom_site_fract_x
_atom_site_fract_y
_atom_site_fract_z
_atom_type_partial_charge
Mg0 Mg 0.52383 0.12845 0.1551 0.0
O1 O 0.54204 0.17645 0.20784 0.0
O2 O 0.56076 0.14253 0.26889 0.0
Mg3 Mg 0.55045 0.07452 0.25701 0.0
C4 C 0.55621 0.17585 0.24749 0.0
C5 C 0.49128 0.16892 0.07011 0.0
O6 O 0.49822 0.13071 0.05805 0.0
O7 O 0.45485 0.11771 0.1857 0.0
O8 O 0.47418 0.08393 0.24642 0.0
O9 O 0.59551 0.1264 0.13652 0.0
O10 O 0.5661 0.08619 0.18731 0.0
C11 C 0.44431 0.09936 0.22118 0.0
C12 C 0.60164 0.10009 0.16767 0.0
O13 O 0.4966 0.17831 0.11027 0.0
Mg14 Mg 0.29432 0.52718 0.67795 0.0
O15 O 0.2361 0.55938 0.7163 0.0
O16 O 0.26475 0.56829 0.78331 0.0
Mg17 Mg 0.33778 0.54742 0.78809 0.0
C18 C 0.23241 0.57197 0.75604 0.0
C19 C 0.27888 0.49647 0.59018 0.0
O20 O 0.32214 0.49506 0.59935 0.0
O21 O 0.28472 0.46574 0.71294 0.0
O22 O 0.32104 0.48012 0.77528 0.0
O23 O 0.32421 0.58777 0.65698 0.0
O24 O 0.34179 0.55391 0.71712 0.0
C25 C 0.30246 0.45447 0.74918 0.0
C26 C 0.34838 0.58496 0.69217 0.0
O27 O 0.2518 0.50847 0.61995 0.0
Mg28 Mg 0.97461 0.33298 0.15417 0.0
O29 O 0.95919 0.28087 0.20219 0.0
O30 O 0.94559 0.30676 0.26886 0.0
Mg31 Mg 0.95557 0.37565 0.26379 0.0
C32 C 0.94811 0.2765 0.24243 0.0
C33 C 0.99862 0.294 0.06349 0.0
O34 O 0.98851 0.33147 0.05108 0.0
O35 O 0.04563 0.34105 0.1811 0.0
O36 O 0.03095 0.36787 0.24696 0.0
O37 O 0.90184 0.33641 0.14116 0.0
O38 O 0.93498 0.37205 0.19388 0.0
C39 C 0.05882 0.35536 0.21787 0.0
C40 C 0.89811 0.35955 0.17552 0.0
O41 O 0.99832 0.28563 0.10419 0.0
Mg42 Mg 0.2032 0.93258 0.67458 0.0
O43 O 0.25821 0.89799 0.71435 0.0
O44 O 0.22826 0.88889 0.78094 0.0
Mg45 Mg 0.15699 0.91469 0.78424 0.0
C46 C 0.26057 0.88434 0.75369 0.0
C47 C 0.23621 0.97626 0.59366 0.0
O48 O 0.20435 0.00065 0.60831 0.0
O49 O 0.21602 -0.00627 0.70951 0.0
O50 O 0.17959 0.98083 0.77223 0.0
O51 O 0.17099 0.87321 0.65382 0.0
O52 O 0.15297 0.90872 0.71301 0.0
C53 C 0.19988 0.00557 0.74635 0.0
C54 C 0.14611 0.87734 0.68844 0.0
O55 O 0.24912 0.94659 0.61756 0.0
Mg56 Mg 0.52164 0.32935 0.84523 0.0
O57 O 0.54149 0.278 0.79726 0.0
O58 O 0.55719 0.30619 0.73201 0.0
Mg59 Mg 0.54616 0.37485 0.73806 0.0
C60 C 0.5543 0.27514 0.75728 0.0
C61 C 0.491 0.29361 0.9341 0.0
O62 O 0.49819 0.33232 0.94403 0.0
O63 O 0.45247 0.3355 0.81401 0.0
O64 O 0.47004 0.36487 0.75015 0.0
O65 O 0.5931 0.33474 0.86309 0.0
O66 O 0.56253 0.36961 0.80864 0.0
C67 C 0.44096 0.35053 0.77709 0.0
C68 C 0.59847 0.35815 0.82923 0.0
O69 O 0.49575 0.28235 0.8944 0.0
Mg70 Mg 0.20344 0.52961 0.32498 0.0
O71 O 0.25974 0.56617 0.28902 0.0
O72 O 0.22911 0.58273 0.22428 0.0
Mg73 Mg 0.15723 0.55826 0.21827 0.0
C74 C 0.26175 0.58366 0.25148 0.0
C75 C 0.22157 0.49223 0.40873 0.0
O76 O 0.17917 0.4865 0.39783 0.0
O77 O 0.21377 0.47158 0.28422 0.0
O78 O 0.17604 0.49036 0.22418 0.0
O79 O 0.17385 0.58775 0.35213 0.0
O80 O 0.15388 0.55813 0.28978 0.0
C81 C 0.19544 0.46295 0.24738 0.0
C82 C 0.14847 0.58722 0.31765 0.0
O83 O 0.24775 0.50846 0.38051 0.0
Mg84 Mg 0.98249 0.13308 0.83519 0.0
O85 O 0.96434 0.1868 0.79026 0.0
O86 O 0.95328 0.16313 0.72225 0.0
Mg87 Mg 0.96522 0.09435 0.72381 0.0
C88 C 0.95385 0.19238 0.75007 0.0
C89 C 1.0016 0.16791 0.92804 0.0
O90 O 0.98895 0.13023 0.93725 0.0
O91 O 0.05363 0.12925 0.80751 0.0
O92 O 0.0403 0.10276 0.74133 0.0
O93 O 0.91029 0.12532 0.84903 0.0
O94 O 0.94426 0.09395 0.79388 0.0
C95 C 0.06764 0.11544 0.7708 0.0
C96 C 0.90711 0.10314 0.81389 0.0
O97 O 0.00448 0.17848 0.88799 0.0
Mg98 Mg 0.30417 0.9199 0.33036 0.0
O99 O 0.24957 0.88508 0.28973 0.0
O100 O 0.28225 0.87356 0.22491 0.0
Mg101 Mg 0.35449 0.89728 0.22348 0.0
C102 C 0.24856 0.87033 0.25073 0.0
C103 C 0.26857 0.96915 0.4065 0.0
O104 O 0.30017 -0.00703 0.39021 0.0
O105 O 0.29483 0.98002 0.29263 0.0
O106 O 0.33301 0.96408 0.23166 0.0
O107 O 0.334 0.86062 0.3545 0.0
O108 O 0.35541 0.89398 0.29496 0.0
C109 C 0.31236 0.99007 0.25579 0.0
C110 C 0.36062 0.8635 0.32099 0.0
O111 O 0.25673 0.93737 0.38515 0.0
Mg112 Mg 0.51411 0.74754 0.80778 0.0
O113 O 0.4468 0.78182 0.8007 0.0
O114 O 0.39183 0.73828 0.81948 0.0
Mg115 Mg 0.42369 0.67631 0.83762 0.0
C116 C 0.40509 0.77339 0.80596 0.0
C117 C 0.57695 0.81159 0.76703 0.0
O118 O 0.58179 0.7805 0.73997 0.0
O119 O 0.51123 0.75164 0.88322 0.0
O120 O 0.45899 0.70361 0.89738 0.0
O121 O 0.50421 0.726 0.73858 0.0
O122 O 0.48261 0.69233 0.79819 0.0
C123 C 0.48836 0.7297 0.91009 0.0
C124 C 0.48298 0.69549 0.75626 0.0
O125 O 0.55147 0.80753 0.80034 0.0
Mg126 Mg 0.65259 0.4005 0.33715 0.0
O127 O 0.71301 0.38789 0.29162 0.0
O128 O 0.68577 0.37179 0.22538 0.0
Mg129 Mg 0.60897 0.3751 0.22767 0.0
C130 C 0.7188 0.37788 0.25145 0.0
C131 C 0.68372 0.4299 0.4282 0.0
O132 O 0.64047 0.42314 0.4341 0.0
O133 O 0.64401 0.46265 0.30454 0.0
O134 O 0.61457 0.44429 0.23988 0.0
O135 O 0.6461 0.33395 0.35324 0.0
O136 O 0.61084 0.36409 0.29845 0.0
C137 C 0.62769 0.47177 0.26701 0.0
C138 C 0.62002 0.33092 0.31935 0.0
O139 O 0.7 0.42521 0.38988 0.0
Mg140 Mg 0.98201 0.71737 0.80931 0.0
O141 O 0.04688 0.67895 0.79923 0.0
O142 O 0.10532 0.71998 0.81488 0.0
Mg143 Mg 0.07867 0.78321 0.83439 0.0
C144 C 0.08921 0.68544 0.80274 0.0
C145 C 0.91406 0.65519 0.77202 0.0
O146 O 0.9115 0.68441 0.74247 0.0
O147 O 0.98813 0.71337 0.88442 0.0
O148 O 0.04743 0.75485 0.89563 0.0
O149 O 0.98947 0.73835 0.73977 0.0
O150 O 0.01656 0.7706 0.79829 0.0
C151 C 0.01628 0.73129 0.90988 0.0
C152 C 0.0133 0.7678 0.75643 0.0
O153 O 0.94031 0.65969 0.80461 0.0
Mg154 Mg 0.84375 0.05338 0.32723 0.0
O155 O 0.78551 0.06534 0.27897 0.0
O156 O 0.81621 0.07467 0.21264 0.0
Mg157 Mg 0.89293 0.07087 0.21793 0.0
C158 C 0.78188 0.07236 0.23783 0.0
C159 C 0.80779 0.03114 0.41937 0.0
O160 O 0.85044 0.03934 0.42715 0.0
O161 O 0.85168 0.98888 0.29868 0.0
O162 O 0.88471 0.00345 0.23462 0.0
O163 O 0.85153 0.1206 0.34064 0.0
O164 O 0.88664 0.0877 0.28722 0.0
C165 C 0.86937 0.97767 0.26232 0.0
C166 C 0.87743 0.12181 0.30649 0.0
O167 O 0.79397 0.03222 0.37989 0.0
Mg168 Mg 0.51997 0.70904 0.19821 0.0
O169 O 0.44873 0.68111 0.20439 0.0
O170 O 0.39987 0.73229 0.19529 0.0
Mg171 Mg 0.4391 0.7915 0.18003 0.0
C172 C 0.40835 0.69468 0.20369 0.0
C173 C 0.58154 0.64008 0.22489 0.0
O174 O 0.59599 0.67162 0.24784 0.0
O175 O 0.51444 0.7124 0.12325 0.0
O176 O 0.46772 0.76587 0.11574 0.0
O177 O 0.51469 0.72358 0.26965 0.0
O178 O 0.49641 0.7659 0.21555 0.0
C179 C 0.49347 0.73843 0.09944 0.0
C180 C 0.49669 0.75762 0.25673 0.0
O181 O 0.54959 0.6455 0.19777 0.0
Mg182 Mg 0.84054 0.41313 0.67013 0.0
O183 O 0.78179 0.39772 0.71698 0.0
O184 O 0.81175 0.38855 0.78359 0.0
Mg185 Mg 0.88815 0.39645 0.77999 0.0
C186 C 0.77781 0.38969 0.75789 0.0
C187 C 0.80546 0.4348 0.57772 0.0
O188 O 0.8485 0.42816 0.57041 0.0
O189 O 0.84431 0.47747 0.69961 0.0
O190 O 0.87637 0.46373 0.76426 0.0
O191 O 0.85214 0.34667 0.65568 0.0
O192 O 0.8844 0.38022 0.71036 0.0
C193 C 0.86029 0.48905 0.73654 0.0
C194 C 0.87743 0.34606 0.69024 0.0
O195 O 0.79104 0.43281 0.61698 0.0
Mg196 Mg 0.98717 0.74322 0.19916 0.0
O197 O 0.05675 0.77543 0.205 0.0
O198 O 0.10919 0.72746 0.1928 0.0
Mg199 Mg 0.07419 0.66643 0.17815 0.0
C200 C 0.09796 0.76431 0.20195 0.0
C201 C 0.9242 0.81054 0.23087 0.0
O202 O 0.91714 0.78137 0.25979 0.0
O203 O 0.99187 0.74129 0.12391 0.0
O204 O 0.04537 0.69356 0.11515 0.0
O205 O 0.99396 0.72778 0.27015 0.0
O206 O 0.01538 0.68801 0.21469 0.0
C207 C 0.017 0.71901 0.09945 0.0
C208 C 0.01416 0.69515 0.25613 0.0
O209 O 0.95214 0.80444 0.19989 0.0
Mg210 Mg 0.65611 0.05414 0.6637 0.0
O211 O 0.7183 0.06533 0.70727 0.0
O212 O 0.69358 0.07473 0.7759 0.0
Mg213 Mg 0.61659 0.071 0.77673 0.0
C214 C 0.72559 0.07211 0.74798 0.0
C215 C 0.68531 0.03058 0.56894 0.0
O216 O 0.6421 0.03766 0.56348 0.0
O217 O 0.64915 0.98939 0.69177 0.0
O218 O 0.62154 0.00355 0.75828 0.0
O219 O 0.64811 0.12157 0.65191 0.0
O220 O 0.6169 0.08834 0.70733 0.0
C221 C 0.63367 0.97786 0.72894 0.0
C222 C 0.62489 0.12259 0.68787 0.0
O223 O 0.70159 0.03302 0.60747 0.0
C224 C 0.38289 0.08059 0.27319 0.0
C225 C 0.3967 0.08816 0.22975 0.0
C226 C 0.34672 0.05413 0.28214 0.0
C227 C 0.32449 0.03338 0.24785 0.0
H228 H 0.40314 0.0915 0.30041 0.0
H229 H 0.34123 0.04504 0.31593 0.0
S230 S 0.33814 0.05314 0.12894 0.0
N231 N 0.37746 0.08161 0.15242 0.0
N232 N 0.31068 0.03052 0.16946 0.0
C233 C 0.33265 0.04653 0.20467 0.0
C234 C 0.36886 0.07414 0.1955 0.0
C235 C 0.32823 0.39797 0.79707 0.0
C236 C 0.31723 0.41141 0.75448 0.0
C237 C 0.36556 0.37251 0.80421 0.0
C238 C 0.39285 0.35984 0.76891 0.0
H239 H 0.31215 0.41194 0.82532 0.0
H240 H 0.37627 0.36738 0.83774 0.0
S241 S 0.3676 0.37323 0.65073 0.0
N242 N 0.32812 0.39983 0.67625 0.0
N243 N 0.39868 0.35251 0.68976 0.0
C244 C 0.37693 0.36648 0.7261 0.0
C245 C 0.33855 0.3919 0.71883 0.0
C246 C 0.13078 0.38341 0.18829 0.0
C247 C 0.1069 0.36632 0.22378 0.0
C248 C 0.16726 0.41002 0.19562 0.0
C249 C 0.1809 0.42016 0.23859 0.0
H250 H 0.11782 0.38064 0.15518 0.0
H251 H 0.18058 0.42704 0.16794 0.0
S252 S 0.13988 0.37095 0.34093 0.0
N253 N 0.10706 0.35218 0.30199 0.0
N254 N 0.17616 0.40144 0.31581 0.0
C255 C 0.16306 0.39673 0.27336 0.0
C256 C 0.12549 0.37019 0.26596 0.0
C257 C 0.16885 0.06973 0.71653 0.0
C258 C 0.18853 0.0494 0.75243 0.0
C259 C 0.13263 0.09669 0.72288 0.0
C260 C 0.11603 0.10495 0.7653 0.0
H261 H 0.17622 0.05995 0.68328 0.0
H262 H 0.11429 0.10716 0.69428 0.0
S263 S 0.16907 0.07269 0.86991 0.0
N264 N 0.19836 0.04886 0.83146 0.0
N265 N 0.13127 0.10056 0.8437 0.0
C266 C 0.14195 0.09182 0.80132 0.0
C267 C 0.17836 0.06389 0.79476 0.0
C268 C 0.59857 0.88211 0.79009 0.0
C269 C 0.59748 0.85193 0.75719 0.0
C270 C 0.6127 0.92204 0.78091 0.0
C271 C 0.62604 0.93373 0.7383 0.0
H272 H 0.58732 0.87519 0.82311 0.0
H273 H 0.61167 0.94423 0.8074 0.0
S274 S 0.63342 0.8651 0.64121 0.0
N275 N 0.6143 0.83536 0.68094 0.0
N276 N 0.64057 0.91084 0.66353 0.0
C277 C 0.62751 0.90329 0.70553 0.0
C278 C 0.61326 0.86232 0.715 0.0
C279 C 0.58324 0.56537 0.20778 0.0
C280 C 0.59833 0.5982 0.23387 0.0
C281 C 0.59431 0.52488 0.21803 0.0
C282 C 0.62077 0.51537 0.25499 0.0
H283 H 0.56171 0.57077 0.17969 0.0
H284 H 0.58067 0.50082 0.19735 0.0
S285 S 0.67265 0.59048 0.33164 0.0
N286 N 0.64408 0.61886 0.29653 0.0
N287 N 0.66479 0.54252 0.31589 0.0
C288 C 0.63783 0.54802 0.28034 0.0
C289 C 0.62669 0.58945 0.26973 0.0
C290 C 0.88226 0.60241 0.72126 0.0
C291 C 0.89194 0.61528 0.76435 0.0
C292 C 0.86883 0.56196 0.71253 0.0
C293 C 0.86455 0.53322 0.74667 0.0
H294 H 0.88765 0.62292 0.69379 0.0
H295 H 0.86451 0.55261 0.67866 0.0
S296 S 0.87636 0.55436 0.86595 0.0
N297 N 0.8896 0.59813 0.84193 0.0
N298 N 0.8639 0.52229 0.82575 0.0
C299 C 0.87014 0.54686 0.7902 0.0
C300 C 0.884 0.58787 0.799 0.0
C301 C 0.87729 0.90487 0.28703 0.0
C302 C 0.87586 0.9336 0.25267 0.0
C303 C 0.89096 0.86436 0.27932 0.0
C304 C 0.90383 0.85135 0.23707 0.0
H305 H 0.87 0.91415 0.32045 0.0
H306 H 0.89356 0.84375 0.30707 0.0
S307 S 0.89783 0.91237 0.13466 0.0
N308 N 0.88227 0.94448 0.17375 0.0
N309 N 0.90858 0.86858 0.15964 0.0
C310 C 0.8995 0.87889 0.202 0.0
C311 C 0.8853 0.91996 0.2097 0.0
C312 C 0.55604 0.25247 0.25143 0.0
C313 C 0.57099 0.21477 0.26826 0.0
C314 C 0.57161 0.2897 0.26869 0.0
C315 C 0.60322 0.29082 0.30315 0.0
H316 H 0.53214 0.25333 0.22457 0.0
H317 H 0.55868 0.31781 0.25468 0.0
S318 S 0.65323 0.2006 0.359 0.0
N319 N 0.61913 0.18078 0.32179 0.0
N320 N 0.64858 0.25082 0.35389 0.0
C321 C 0.61808 0.25336 0.32073 0.0
C322 C 0.60196 0.21536 0.30337 0.0
C323 C 0.15777 0.60627 0.73993 0.0
C324 C 0.19187 0.59588 0.77023 0.0
C325 C 0.12294 0.6337 0.75123 0.0
C326 C 0.12134 0.65205 0.793 0.0
H327 H 0.15882 0.59438 0.70673 0.0
H328 H 0.09844 0.64212 0.7265 0.0
S329 S 0.19818 0.63213 0.88614 0.0
N330 N 0.21815 0.60359 0.8458 0.0
N331 N 0.15379 0.65578 0.86575 0.0
C332 C 0.15362 0.64065 0.82413 0.0
C333 C 0.18852 0.61235 0.81312 0.0
C334 C 0.91569 0.18898 0.31825 0.0
C335 C 0.89487 0.16106 0.28953 0.0
C336 C 0.93408 0.22587 0.30263 0.0
C337 C 0.93231 0.23595 0.25773 0.0
H338 H 0.91819 0.18207 0.35294 0.0
H339 H 0.94969 0.24666 0.32589 0.0
S340 S 0.87581 0.17547 0.17025 0.0
N341 N 0.86941 0.14784 0.21517 0.0
N342 N 0.90493 0.21627 0.1854 0.0
C343 C 0.91085 0.20846 0.22886 0.0
C344 C 0.89181 0.17123 0.24489 0.0
C345 C 0.29426 0.83129 0.80304 0.0
C346 C 0.29966 0.85881 0.76769 0.0
C347 C 0.32874 0.80443 0.81554 0.0
C348 C 0.37057 0.80435 0.79389 0.0
H349 H 0.26256 0.8295 0.82061 0.0
H350 H 0.3224 0.78332 0.8423 0.0
S351 S 0.40307 0.87097 0.70022 0.0
N352 N 0.35077 0.88466 0.71168 0.0
N353 N 0.41598 0.83464 0.73577 0.0
C354 C 0.37707 0.83236 0.75923 0.0
C355 C 0.34155 0.85937 0.74595 0.0
C356 C 0.56709 0.22569 0.69574 0.0
C357 C 0.5708 0.23536 0.74065 0.0
C358 C 0.58545 0.18935 0.67876 0.0
C359 C 0.60827 0.16164 0.70608 0.0
H360 H 0.54976 0.24629 0.67359 0.0
H361 H 0.5812 0.1826 0.64418 0.0
S362 S 0.6334 0.17584 0.82436 0.0
N363 N 0.60249 0.21603 0.81121 0.0
N364 N 0.63805 0.14857 0.7789 0.0
C365 C 0.61353 0.17161 0.75063 0.0
C366 C 0.59447 0.20829 0.76804 0.0
C367 C 0.3783 0.6241 0.22179 0.0
C368 C 0.37051 0.66654 0.21589 0.0
C369 C 0.34343 0.5972 0.23446 0.0
C370 C 0.2995 0.61173 0.24139 0.0
H371 H 0.41158 0.61142 0.21645 0.0
H372 H 0.35067 0.5648 0.23801 0.0
S373 S 0.26129 0.71971 0.23493 0.0
N374 N 0.31514 0.72161 0.22133 0.0
N375 N 0.25018 0.67086 0.24426 0.0
C376 C 0.29127 0.65386 0.23654 0.0
C377 C 0.32657 0.6813 0.22401 0.0
C378 C 0.9189 0.28092 0.67698 0.0
C379 C 0.89686 0.30735 0.7064 0.0
C380 C 0.93858 0.24432 0.69157 0.0
C381 C 0.93686 0.23294 0.73612 0.0
H382 H 0.92123 0.28874 0.64249 0.0
H383 H 0.95504 0.2247 0.66773 0.0
S384 S 0.87801 0.28937 0.82518 0.0
N385 N 0.87082 0.31794 0.78108 0.0
N386 N 0.90858 0.24992 0.80894 0.0
C387 C 0.91439 0.25901 0.76574 0.0
C388 C 0.89411 0.29603 0.75074 0.0
C389 C 0.13128 0.82133 0.24713 0.0
C390 C 0.13442 0.79425 0.21124 0.0
C391 C 0.16792 0.84639 0.25937 0.0
C392 C 0.20877 0.84589 0.23563 0.0
H393 H 0.10095 0.82198 0.26696 0.0
H394 H 0.16436 0.86587 0.28799 0.0
S395 S 0.23215 0.78239 0.13643 0.0
N396 N 0.18033 0.76973 0.1508 0.0
N397 N 0.24863 0.81702 0.17261 0.0
C398 C 0.21137 0.81993 0.19848 0.0
C399 C 0.17441 0.79406 0.18664 0.0
C400 C 0.41992 0.59997 0.72983 0.0
C401 C 0.38473 0.61399 0.7029 0.0
C402 C 0.45393 0.6263 0.74376 0.0
C403 C 0.45423 0.6676 0.73121 0.0
H404 H 0.42079 0.56849 0.74121 0.0
H405 H 0.47914 0.61465 0.76625 0.0
S406 S 0.37134 0.71945 0.6595 0.0
N407 N 0.35338 0.67146 0.66226 0.0
N408 N 0.41783 0.72154 0.68929 0.0
C409 C 0.42073 0.68186 0.70256 0.0
C410 C 0.38576 0.65483 0.68817 0.0
C411 C 0.81597 0.34336 0.17963 0.0
C412 C 0.85299 0.36599 0.19566 0.0
C413 C 0.77302 0.34727 0.19813 0.0
C414 C 0.76515 0.37368 0.2338 0.0
H415 H 0.82005 0.32206 0.15259 0.0
H416 H 0.74579 0.32909 0.1845 0.0
S417 S 0.84953 0.44189 0.28662 0.0
N418 N 0.87813 0.41762 0.24801 0.0
N419 N 0.79748 0.42406 0.28368 0.0
C420 C 0.80164 0.3967 0.25022 0.0
C421 C 0.84547 0.39313 0.23091 0.0
C422 C 0.04048 0.83696 0.7408 0.0
C423 C 0.04095 0.79523 0.72988 0.0
C424 C 0.07409 0.86323 0.7258 0.0
C425 C 0.10961 0.84864 0.69953 0.0
H426 H 0.01511 0.849 0.76297 0.0
H427 H 0.07282 0.89507 0.73603 0.0
S428 S 0.12488 0.74181 0.66041 0.0
N429 N 0.07828 0.74025 0.69017 0.0
N430 N 0.14204 0.7901 0.66124 0.0
C431 C 0.10924 0.80729 0.68636 0.0
C432 C 0.07468 0.78037 0.70178 0.0
C433 C 0.65467 0.06867 0.22251 0.0
C434 C 0.64796 0.09102 0.18355 0.0
C435 C 0.69796 0.06286 0.23992 0.0
C436 C 0.73644 0.0785 0.21862 0.0
H437 H 0.62638 0.05585 0.24017 0.0
H438 H 0.70126 0.04578 0.27022 0.0
S439 S 0.73788 0.13774 0.11455 0.0
N440 N 0.68408 0.12784 0.12345 0.0
N441 N 0.76513 0.11659 0.15586 0.0
C442 C 0.7304 0.10002 0.17905 0.0
C443 C 0.68633 0.10629 0.16157 0.0
C444 C 0.47258 0.82541 0.28146 0.0
C445 C 0.46857 0.78276 0.28541 0.0
C446 C 0.43797 0.85116 0.29525 0.0
C447 C 0.3981 0.83511 0.31338 0.0
H448 H 0.50137 0.8388 0.26481 0.0
H449 H 0.44171 0.88386 0.2899 0.0
S450 S 0.37235 0.7255 0.33321 0.0
N451 N 0.42312 0.72532 0.31079 0.0
N452 N 0.35758 0.77425 0.33734 0.0
C453 C 0.39482 0.79268 0.3204 0.0
C454 C 0.43032 0.76628 0.30621 0.0
C455 C 0.6936 0.39718 0.75607 0.0
C456 C 0.73244 0.3814 0.77644 0.0
C457 C 0.6505 0.39029 0.77375 0.0
C458 C 0.64448 0.36689 0.81214 0.0
H459 H 0.6965 0.41544 0.72652 0.0
H460 H 0.6218 0.40341 0.75704 0.0
S461 S 0.73545 0.31749 0.87721 0.0
N462 N 0.76207 0.34068 0.83666 0.0
N463 N 0.68153 0.32749 0.86966 0.0
C464 C 0.68318 0.35082 0.83271 0.0
C465 C 0.72697 0.35808 0.81491 0.0
C466 C 0.07078 0.60087 0.29456 0.0
C467 C 0.11156 0.61624 0.31126 0.0
C468 C 0.03663 0.62726 0.2813 0.0
C469 C 0.04213 0.66983 0.28442 0.0
H470 H 0.06602 0.56818 0.2898 0.0
H471 H 0.007 0.61437 0.26563 0.0
S472 S 0.14156 0.72543 0.32789 0.0
N473 N 0.15484 0.67638 0.33267 0.0
N474 N 0.09011 0.72654 0.30713 0.0
C475 C 0.08145 0.68571 0.30372 0.0
C476 C 0.11646 0.65866 0.31738 0.0
C477 C 0.82335 0.10757 0.81853 0.0
C478 C 0.8617 0.09295 0.79615 0.0
C479 C 0.77981 0.10035 0.80278 0.0
C480 C 0.77244 0.07847 0.76364 0.0
H481 H 0.82675 0.12514 0.84855 0.0
H482 H 0.75169 0.11268 0.82127 0.0
S483 S 0.86066 0.03109 0.69362 0.0
N484 N 0.88896 0.05318 0.7339 0.0
N485 N 0.80698 0.04081 0.70343 0.0
C486 C 0.81025 0.0632 0.74098 0.0
C487 C 0.85484 0.07005 0.75746 0.0
C488 C 0.48553 0.19049 0.99158 0.0
C489 C 0.48425 0.20117 0.03636 0.0
C490 C 0.48549 0.22053 0.95874 0.0
C491 C 0.48417 0.26259 0.96923 0.0
H492 H 0.48833 0.15868 0.98161 0.0
H493 H 0.4883 0.21057 0.92491 0.0
S494 S 0.47402 0.30676 0.08132 0.0
N495 N 0.47686 0.25675 0.08933 0.0
N496 N 0.47672 0.31321 0.02765 0.0
C497 C 0.48 0.27366 0.01378 0.0
C498 C 0.48004 0.24299 0.0473 0.0
C499 C 0.28159 0.49213 0.46612 0.0
C500 C 0.236 0.48703 0.45492 0.0
C501 C 0.29525 0.49326 0.51005 0.0
C502 C 0.26378 0.48989 0.54451 0.0
H503 H 0.30685 0.49655 0.44085 0.0
H504 H 0.3306 0.49858 0.51691 0.0
S505 S 0.14107 0.47126 0.53305 0.0
N506 N 0.15978 0.47463 0.48213 0.0
N507 N 0.1857 0.47757 0.56466 0.0
C508 C 0.21844 0.48272 0.53389 0.0
C509 C 0.20451 0.48101 0.48911 0.0
C510 C 0.00733 0.27139 0.98537 0.0
C511 C 0.00493 0.2611 0.03017 0.0
C512 C 0.00823 0.24103 0.95273 0.0
C513 C 0.00646 0.19905 0.96345 0.0
H514 H 0.00736 0.30322 0.97519 0.0
H515 H 0.0087 0.25075 0.91874 0.0
S516 S 0.00396 0.1555 0.07607 0.0
N517 N 0.00392 0.20564 0.08367 0.0
N518 N 0.00546 0.1487 0.02239 0.0
C519 C 0.00606 0.18823 0.0082 0.0
C520 C 0.00537 0.21919 0.0415 0.0
C521 C 0.25505 0.93632 0.4788 0.0
C522 C 0.25757 0.97232 0.45355 0.0
C523 C 0.25021 0.9381 0.52441 0.0
C524 C 0.24666 0.97593 0.54637 0.0
H525 H 0.25808 0.90646 0.46339 0.0
H526 H 0.24812 0.90952 0.54244 0.0
S527 S 0.25054 0.07902 0.49527 0.0
N528 N 0.25663 0.04688 0.45368 0.0
N529 N 0.24535 0.0502 0.53959 0.0
C530 C 0.24849 0.01217 0.52153 0.0
C531 C 0.25456 0.01037 0.47507 0.0
C532 C 0.4959 0.6971 0.98345 0.0
C533 C 0.4959 0.73305 0.9578 0.0
C534 C 0.49755 0.69895 0.02936 0.0
C535 C 0.49801 0.73687 0.05121 0.0
H536 H 0.49372 0.66724 0.96787 0.0
H537 H 0.4963 0.67059 0.04786 0.0
S538 S 0.50138 0.8398 0.99918 0.0
N539 N 0.49947 0.80745 0.95742 0.0
N540 N 0.50117 0.8112 0.04392 0.0
C541 C 0.49955 0.77303 0.02594 0.0
C542 C 0.49893 0.77106 0.97914 0.0
C543 C 0.79029 0.43641 0.4969 0.0
C544 C 0.77381 0.43923 0.54018 0.0
C545 C 0.76103 0.43533 0.46082 0.0
C546 C 0.71396 0.43697 0.46641 0.0
H547 H 0.82611 0.43362 0.49071 0.0
H548 H 0.77553 0.43166 0.42841 0.0
S549 S 0.6536 0.44979 0.5725 0.0
N550 N 0.70734 0.44755 0.58623 0.0
N551 N 0.65238 0.44555 0.51853 0.0
C552 C 0.69707 0.44214 0.50933 0.0
C553 C 0.72694 0.44327 0.54614 0.0
C554 C 0.05471 0.71809 0.02678 0.0
C555 C 0.01476 0.72254 0.0512 0.0
C556 C 0.05439 0.71992 0.98099 0.0
C557 C 0.01399 0.72528 0.95773 0.0
H558 H 0.08672 0.71375 0.04322 0.0
H559 H 0.08616 0.71727 0.9636 0.0
S560 S 0.90001 0.73738 0.00585 0.0
N561 N 0.93353 0.73218 0.04878 0.0
N562 N 0.93287 0.73463 0.9621 0.0
C563 C 0.9736 0.72898 0.98149 0.0
C564 C 0.97402 0.72801 0.02841 0.0
C565 C 0.76269 0.02684 0.53607 0.0
C566 C 0.71563 0.02533 0.53037 0.0
C567 C 0.7921 0.02707 0.50003 0.0
C568 C 0.77583 0.02567 0.45663 0.0
H569 H 0.77709 0.02931 0.56863 0.0
H570 H 0.82791 0.02959 0.50641 0.0
S571 S 0.65567 0.01656 0.4237 0.0
N572 N 0.65424 0.0188 0.47782 0.0
N573 N 0.70949 0.0192 0.41016 0.0
C574 C 0.72894 0.02195 0.45044 0.0
C575 C 0.69891 0.0218 0.48723 0.0
loop_
_geom_bond_atom_site_label_1
_geom_bond_atom_site_label_2
_geom_bond_distance
_geom_bond_site_symmetry_2
_ccdc_geom_bond_type
Mg0 O1 2.028 . S
Mg0 O7 1.986 . S
Mg0 O9 2.114 . S
Mg0 O10 2.251 . S
Mg0 O13 2.010 . S
O1 Mg0 2.028 . S
O1 C4 1.250 . S
O2 Mg3 2.028 . S
O2 C4 1.248 . S
Mg3 O2 2.028 . S
Mg3 O8 2.032 . S
Mg3 O10 2.079 . S
C4 O1 1.250 . S
C4 O2 1.248 . S
C5 O6 1.264 . S
C5 O13 1.249 . S
O6 C5 1.264 . S
O7 Mg0 1.986 . S
O7 C11 1.246 . S
O8 Mg3 2.032 . S
O8 C11 1.259 . S
O9 Mg0 2.114 . S
O9 C12 1.252 . S
O10 Mg0 2.251 . S
O10 Mg3 2.079 . S
O10 C12 1.273 . S
C11 O7 1.246 . S
C11 O8 1.259 . S
C12 O9 1.252 . S
C12 O10 1.273 . S
O13 Mg0 2.010 . S
O13 C5 1.249 . S
Mg14 O15 2.028 . S
Mg14 O21 1.986 . S
Mg14 O23 2.114 . S
Mg14 O24 2.251 . S
Mg14 O27 2.010 . S
O15 Mg14 2.028 . S
O15 C18 1.250 . S
O16 Mg17 2.028 . S
O16 C18 1.248 . S
Mg17 O16 2.028 . S
Mg17 O22 2.032 . S
Mg17 O24 2.079 . S
C18 O15 1.250 . S
C18 O16 1.248 . S
C19 O20 1.264 . S
C19 O27 1.249 . S
O20 C19 1.264 . S
O21 Mg14 1.986 . S
O21 C25 1.246 . S
O22 Mg17 2.032 . S
O22 C25 1.259 . S
O23 Mg14 2.114 . S
O23 C26 1.252 . S
O24 Mg14 2.251 . S
O24 Mg17 2.079 . S
O24 C26 1.273 . S
C25 O21 1.246 . S
C25 O22 1.259 . S
C26 O23 1.252 . S
C26 O24 1.273 . S
O27 Mg14 2.010 . S
O27 C19 1.249 . S
Mg28 O29 2.028 . S
Mg28 O35 1.986 1_655 S
Mg28 O37 2.114 . S
Mg28 O38 2.251 . S
Mg28 O41 2.010 . S
O29 Mg28 2.028 . S
O29 C32 1.250 . S
O30 Mg31 2.028 . S
O30 C32 1.248 . S
Mg31 O30 2.028 . S
Mg31 O36 2.032 1_655 S
Mg31 O38 2.079 . S
C32 O29 1.250 . S
C32 O30 1.248 . S
C33 O34 1.264 . S
C33 O41 1.249 . S
O34 C33 1.264 . S
O35 Mg28 1.986 1_455 S
O35 C39 1.246 . S
O36 Mg31 2.032 1_455 S
O36 C39 1.259 . S
O37 Mg28 2.114 . S
O37 C40 1.252 . S
O38 Mg28 2.251 . S
O38 Mg31 2.079 . S
O38 C40 1.273 . S
C39 O35 1.246 . S
C39 O36 1.259 . S
C40 O37 1.252 . S
C40 O38 1.273 . S
O41 Mg28 2.010 . S
O41 C33 1.249 . S
Mg42 O43 2.028 . S
Mg42 O49 1.972 1_565 S
Mg42 O51 2.114 . S
Mg42 O52 2.251 . S
Mg42 O55 2.010 . S
O43 Mg42 2.028 . S
O43 C46 1.250 . S
O44 Mg45 2.028 . S
O44 C46 1.248 . S
Mg45 O44 2.028 . S
Mg45 O50 2.032 . S
Mg45 O52 2.079 . S
C46 O43 1.250 . S
C46 O44 1.248 . S
C47 O48 1.264 . S
C47 O55 1.249 . S
O48 C47 1.264 . S
O49 Mg42 1.972 1_545 S
O49 C53 1.251 . S
O50 Mg45 2.032 . S
O50 C53 1.259 1_565 S
O51 Mg42 2.114 . S
O51 C54 1.252 . S
O52 Mg42 2.251 . S
O52 Mg45 2.079 . S
O52 C54 1.273 . S
C53 O49 1.251 . S
C53 O50 1.259 1_545 S
C54 O51 1.252 . S
C54 O52 1.273 . S
O55 Mg42 2.010 . S
O55 C47 1.249 . S
Mg56 O57 2.028 . S
Mg56 O63 1.986 . S
Mg56 O65 2.114 . S
Mg56 O66 2.251 . S
Mg56 O69 2.010 . S
O57 Mg56 2.028 . S
O57 C60 1.250 . S
O58 Mg59 2.028 . S
O58 C60 1.248 . S
Mg59 O58 2.028 . S
Mg59 O64 2.032 . S
Mg59 O66 2.079 . S
C60 O57 1.250 . S
C60 O58 1.248 . S
C61 O62 1.264 . S
C61 O69 1.249 . S
O62 C61 1.264 . S
O63 Mg56 1.986 . S
O63 C67 1.246 . S
O64 Mg59 2.032 . S
O64 C67 1.259 . S
O65 Mg56 2.114 . S
O65 C68 1.252 . S
O66 Mg56 2.251 . S
O66 Mg59 2.079 . S
O66 C68 1.273 . S
C67 O63 1.246 . S
C67 O64 1.259 . S
C68 O65 1.252 . S
C68 O66 1.273 . S
O69 Mg56 2.010 . S
O69 C61 1.249 . S
Mg70 O71 2.028 . S
Mg70 O77 1.986 . S
Mg70 O79 2.114 . S
Mg70 O80 2.251 . S
Mg70 O83 2.010 . S
O71 Mg70 2.028 . S
O71 C74 1.250 . S
O72 Mg73 2.028 . S
O72 C74 1.248 . S
Mg73 O72 2.028 . S
Mg73 O78 2.032 . S
Mg73 O80 2.079 . S
C74 O71 1.250 . S
C74 O72 1.248 . S
C75 O76 1.264 . S
C75 O83 1.249 . S
O76 C75 1.264 . S
O77 Mg70 1.986 . S
O77 C81 1.246 . S
O78 Mg73 2.032 . S
O78 C81 1.259 . S
O79 Mg70 2.114 . S
O79 C82 1.252 . S
O80 Mg70 2.251 . S
O80 Mg73 2.079 . S
O80 C82 1.273 . S
C81 O77 1.246 . S
C81 O78 1.259 . S
C82 O79 1.252 . S
C82 O80 1.273 . S
O83 Mg70 2.010 . S
O83 C75 1.249 . S
Mg84 O85 2.028 . S
Mg84 O91 1.986 1_655 S
Mg84 O93 2.114 . S
Mg84 O94 2.251 . S
Mg84 O97 2.010 . S
O85 Mg84 2.028 . S
O85 C88 1.250 . S
O86 Mg87 2.028 . S
O86 C88 1.248 . S
Mg87 O86 2.028 . S
Mg87 O92 2.032 1_655 S
Mg87 O94 2.079 . S
C88 O85 1.250 . S
C88 O86 1.248 . S
C89 O90 1.264 . S
C89 O97 1.249 . S
O90 C89 1.264 . S
O91 Mg84 1.986 1_455 S
O91 C95 1.246 . S
O92 Mg87 2.032 1_455 S
O92 C95 1.259 . S
O93 Mg84 2.114 . S
O93 C96 1.252 . S
O94 Mg84 2.251 . S
O94 Mg87 2.079 . S
O94 C96 1.273 . S
C95 O91 1.246 . S
C95 O92 1.259 . S
C96 O93 1.252 . S
C96 O94 1.273 . S
O97 Mg84 2.010 . S
O97 C89 1.249 . S
Mg98 O99 2.028 . S
Mg98 O105 1.972 1_565 S
Mg98 O107 2.114 . S
Mg98 O108 2.251 . S
Mg98 O111 2.010 . S
O99 Mg98 2.028 . S
O99 C102 1.250 . S
O100 Mg101 2.028 . S
O100 C102 1.248 . S
Mg101 O100 2.028 . S
Mg101 O106 2.032 . S
Mg101 O108 2.079 . S
C102 O99 1.250 . S
C102 O100 1.248 . S
C103 O104 1.264 . S
C103 O111 1.249 . S
O104 C103 1.264 . S
O105 Mg98 1.972 1_545 S
O105 C109 1.251 . S
O106 Mg101 2.032 . S
O106 C109 1.259 1_565 S
O107 Mg98 2.114 . S
O107 C110 1.252 . S
O108 Mg98 2.251 . S
O108 Mg101 2.079 . S
O108 C110 1.273 . S
C109 O105 1.251 . S
C109 O106 1.259 1_545 S
C110 O107 1.252 . S
C110 O108 1.273 . S
O111 Mg98 2.010 . S
O111 C103 1.249 . S
Mg112 O113 2.028 . S
Mg112 O119 1.986 . S
Mg112 O121 2.114 . S
Mg112 O122 2.251 . S
Mg112 O125 2.010 . S
O113 Mg112 2.028 . S
O113 C116 1.250 . S
O114 Mg115 2.028 . S
O114 C116 1.248 . S
Mg115 O114 2.028 . S
Mg115 O120 2.032 . S
Mg115 O122 2.079 . S
C116 O113 1.250 . S
C116 O114 1.248 . S
C117 O118 1.264 . S
C117 O125 1.249 . S
O118 C117 1.264 . S
O119 Mg112 1.986 . S
O119 C123 1.246 . S
O120 Mg115 2.032 . S
O120 C123 1.259 . S
O121 Mg112 2.114 . S
O121 C124 1.252 . S
O122 Mg112 2.251 . S
O122 Mg115 2.079 . S
O122 C124 1.273 . S
C123 O119 1.246 . S
C123 O120 1.259 . S
C124 O121 1.252 . S
C124 O122 1.273 . S
O125 Mg112 2.010 . S
O125 C117 1.249 . S
Mg126 O127 2.028 . S
Mg126 O133 1.986 . S
Mg126 O135 2.114 . S
Mg126 O136 2.251 . S
Mg126 O139 2.010 . S
O127 Mg126 2.028 . S
O127 C130 1.250 . S
O128 Mg129 2.028 . S
O128 C130 1.248 . S
Mg129 O128 2.028 . S
Mg129 O134 2.032 . S
Mg129 O136 2.079 . S
C130 O127 1.250 . S
C130 O128 1.248 . S
C131 O132 1.264 . S
C131 O139 1.249 . S
O132 C131 1.264 . S
O133 Mg126 1.986 . S
O133 C137 1.246 . S
O134 Mg129 2.032 . S
O134 C137 1.259 . S
O135 Mg126 2.114 . S
O135 C138 1.252 . S
O136 Mg126 2.251 . S
O136 Mg129 2.079 . S
O136 C138 1.273 . S
C137 O133 1.246 . S
C137 O134 1.259 . S
C138 O135 1.252 . S
C138 O136 1.273 . S
O139 Mg126 2.010 . S
O139 C131 1.249 . S
Mg140 O141 2.028 . S
Mg140 O147 1.986 . S
Mg140 O149 2.114 . S
Mg140 O150 2.251 . S
Mg140 O153 2.010 1_455 S
O141 Mg140 2.028 . S
O141 C144 1.250 . S
O142 Mg143 2.028 . S
O142 C144 1.248 . S
Mg143 O142 2.028 . S
Mg143 O148 2.032 . S
Mg143 O150 2.079 . S
C144 O141 1.250 . S
C144 O142 1.248 . S
C145 O146 1.264 . S
C145 O153 1.249 . S
O146 C145 1.264 . S
O147 Mg140 1.986 . S
O147 C151 1.246 . S
O148 Mg143 2.032 . S
O148 C151 1.259 . S
O149 Mg140 2.114 . S
O149 C152 1.252 . S
O150 Mg140 2.251 . S
O150 Mg143 2.079 . S
O150 C152 1.273 . S
C151 O147 1.246 . S
C151 O148 1.259 . S
C152 O149 1.252 . S
C152 O150 1.273 . S
O153 Mg140 2.010 1_655 S
O153 C145 1.249 . S
Mg154 O155 2.028 . S
Mg154 O161 1.986 1_545 S
Mg154 O163 2.114 . S
Mg154 O164 2.251 . S
Mg154 O167 2.010 . S
O155 Mg154 2.028 . S
O155 C158 1.250 . S
O156 Mg157 2.028 . S
O156 C158 1.248 . S
Mg157 O156 2.028 . S
Mg157 O162 2.032 1_545 S
Mg157 O164 2.079 . S
C158 O155 1.250 . S
C158 O156 1.248 . S
C159 O160 1.264 . S
C159 O167 1.249 . S
O160 C159 1.264 . S
O161 Mg154 1.986 1_565 S
O161 C165 1.246 . S
O162 Mg157 2.032 1_565 S
O162 C165 1.259 . S
O163 Mg154 2.114 . S
O163 C166 1.252 . S
O164 Mg154 2.251 . S
O164 Mg157 2.079 . S
O164 C166 1.273 . S
C165 O161 1.246 . S
C165 O162 1.259 . S
C166 O163 1.252 . S
C166 O164 1.273 . S
O167 Mg154 2.010 . S
O167 C159 1.249 . S
Mg168 O169 2.028 . S
Mg168 O175 1.986 . S
Mg168 O177 2.114 . S
Mg168 O178 2.251 . S
Mg168 O181 2.010 . S
O169 Mg168 2.028 . S
O169 C172 1.250 . S
O170 Mg171 2.028 . S
O170 C172 1.248 . S
Mg171 O170 2.028 . S
Mg171 O176 2.032 . S
Mg171 O178 2.079 . S
C172 O169 1.250 . S
C172 O170 1.248 . S
C173 O174 1.264 . S
C173 O181 1.249 . S
O174 C173 1.264 . S
O175 Mg168 1.986 . S
O175 C179 1.246 . S
O176 Mg171 2.032 . S
O176 C179 1.259 . S
O177 Mg168 2.114 . S
O177 C180 1.252 . S
O178 Mg168 2.251 . S
O178 Mg171 2.079 . S
O178 C180 1.273 . S
C179 O175 1.246 . S
C179 O176 1.259 . S
C180 O177 1.252 . S
C180 O178 1.273 . S
O181 Mg168 2.010 . S
O181 C173 1.249 . S
Mg182 O183 2.028 . S
Mg182 O189 1.986 . S
Mg182 O191 2.114 . S
Mg182 O192 2.251 . S
Mg182 O195 2.010 . S
O183 Mg182 2.028 . S
O183 C186 1.250 . S
O184 Mg185 2.028 . S
O184 C186 1.248 . S
Mg185 O184 2.028 . S
Mg185 O190 2.032 . S
Mg185 O192 2.079 . S
C186 O183 1.250 . S
C186 O184 1.248 . S
C187 O188 1.264 . S
C187 O195 1.249 . S
O188 C187 1.264 . S
O189 Mg182 1.986 . S
O189 C193 1.246 . S
O190 Mg185 2.032 . S
O190 C193 1.259 . S
O191 Mg182 2.114 . S
O191 C194 1.252 . S
O192 Mg182 2.251 . S
O192 Mg185 2.079 . S
O192 C194 1.273 . S
C193 O189 1.246 . S
C193 O190 1.259 . S
C194 O191 1.252 . S
C194 O192 1.273 . S
O195 Mg182 2.010 . S
O195 C187 1.249 . S
Mg196 O197 2.028 . S
Mg196 O203 1.986 . S
Mg196 O205 2.114 . S
Mg196 O206 2.251 . S
Mg196 O209 2.010 1_455 S
O197 Mg196 2.028 . S
O197 C200 1.250 . S
O198 Mg199 2.028 . S
O198 C200 1.248 . S
Mg199 O198 2.028 . S
Mg199 O204 2.032 . S
Mg199 O206 2.079 . S
C200 O197 1.250 . S
C200 O198 1.248 . S
C201 O202 1.264 . S
C201 O209 1.249 . S
O202 C201 1.264 . S
O203 Mg196 1.986 . S
O203 C207 1.246 . S
O204 Mg199 2.032 . S
O204 C207 1.259 . S
O205 Mg196 2.114 . S
O205 C208 1.252 . S
O206 Mg196 2.251 . S
O206 Mg199 2.079 . S
O206 C208 1.273 . S
C207 O203 1.246 . S
C207 O204 1.259 . S
C208 O205 1.252 . S
C208 O206 1.273 . S
O209 Mg196 2.010 1_655 S
O209 C201 1.249 . S
Mg210 O211 2.028 . S
Mg210 O217 1.986 1_545 S
Mg210 O219 2.114 . S
Mg210 O220 2.251 . S
Mg210 O223 2.010 . S
O211 Mg210 2.028 . S
O211 C214 1.250 . S
O212 Mg213 2.028 . S
O212 C214 1.248 . S
Mg213 O212 2.028 . S
Mg213 O218 2.032 1_545 S
Mg213 O220 2.079 . S
C214 O211 1.250 . S
C214 O212 1.248 . S
C215 O216 1.264 . S
C215 O223 1.249 . S
O216 C215 1.264 . S
O217 Mg210 1.986 1_565 S
O217 C221 1.246 . S
O218 Mg213 2.032 1_565 S
O218 C221 1.259 . S
O219 Mg210 2.114 . S
O219 C222 1.252 . S
O220 Mg210 2.251 . S
O220 Mg213 2.079 . S
O220 C222 1.273 . S
C221 O217 1.246 . S
C221 O218 1.259 . S
C222 O219 1.252 . S
C222 O220 1.273 . S
O223 Mg210 2.010 . S
O223 C215 1.249 . S
C224 C225 1.369 . S
C224 C226 1.419 . S
C224 H228 0.930 . S
C225 C224 1.369 . S
C225 C234 1.429 . S
C226 C224 1.419 . S
C226 C227 1.363 . S
C226 H229 0.929 . S
C227 C226 1.363 . S
C227 C233 1.428 . S
H228 C224 0.930 . S
H229 C226 0.929 . S
S230 N231 1.613 . S
S230 N232 1.610 . S
N231 S230 1.613 . S
N231 C234 1.350 . S
N232 S230 1.610 . S
N232 C233 1.351 . S
C233 C227 1.428 . S
C233 N232 1.351 . S
C233 C234 1.434 . S
C234 C225 1.429 . S
C234 N231 1.350 . S
C234 C233 1.434 . S
C235 C236 1.369 . S
C235 C237 1.419 . S
C235 H239 0.930 . S
C236 C235 1.369 . S
C236 C245 1.429 . S
C237 C235 1.419 . S
C237 C238 1.363 . S
C237 H240 0.929 . S
C238 C237 1.363 . S
C238 C244 1.428 . S
H239 C235 0.930 . S
H240 C237 0.929 . S
S241 N242 1.613 . S
S241 N243 1.610 . S
N242 S241 1.613 . S
N242 C245 1.350 . S
N243 S241 1.610 . S
N243 C244 1.351 . S
C244 C238 1.428 . S
C244 N243 1.351 . S
C244 C245 1.434 . S
C245 C236 1.429 . S
C245 N242 1.350 . S
C245 C244 1.434 . S
C246 C247 1.369 . S
C246 C248 1.419 . S
C246 H250 0.930 . S
C247 C246 1.369 . S
C247 C256 1.429 . S
C248 C246 1.419 . S
C248 C249 1.363 . S
C248 H251 0.929 . S
C249 C248 1.363 . S
C249 C255 1.428 . S
H250 C246 0.930 . S
H251 C248 0.929 . S
S252 N253 1.613 . S
S252 N254 1.610 . S
N253 S252 1.613 . S
N253 C256 1.350 . S
N254 S252 1.610 . S
N254 C255 1.351 . S
C255 C249 1.428 . S
C255 N254 1.351 . S
C255 C256 1.434 . S
C256 C247 1.429 . S
C256 N253 1.350 . S
C256 C255 1.434 . S
C257 C258 1.369 . S
C257 C259 1.419 . S
C257 H261 0.930 . S
C258 C257 1.369 . S
C258 C267 1.429 . S
C259 C257 1.419 . S
C259 C260 1.363 . S
C259 H262 0.929 . S
C260 C259 1.363 . S
C260 C266 1.428 . S
H261 C257 0.930 . S
H262 C259 0.929 . S
S263 N264 1.613 . S
S263 N265 1.610 . S
N264 S263 1.613 . S
N264 C267 1.350 . S
N265 S263 1.610 . S
N265 C266 1.351 . S
C266 C260 1.428 . S
C266 N265 1.351 . S
C266 C267 1.434 . S
C267 C258 1.429 . S
C267 N264 1.350 . S
C267 C266 1.434 . S
C268 C269 1.369 . S
C268 C270 1.419 . S
C268 H272 0.930 . S
C269 C268 1.369 . S
C269 C278 1.429 . S
C270 C268 1.419 . S
C270 C271 1.363 . S
C270 H273 0.929 . S
C271 C270 1.363 . S
C271 C277 1.428 . S
H272 C268 0.930 . S
H273 C270 0.929 . S
S274 N275 1.613 . S
S274 N276 1.610 . S
N275 S274 1.613 . S
N275 C278 1.350 . S
N276 S274 1.610 . S
N276 C277 1.351 . S
C277 C271 1.428 . S
C277 N276 1.351 . S
C277 C278 1.434 . S
C278 C269 1.429 . S
C278 N275 1.350 . S
C278 C277 1.434 . S
C279 C280 1.369 . S
C279 C281 1.419 . S
C279 H283 0.930 . S
C280 C279 1.369 . S
C280 C289 1.429 . S
C281 C279 1.419 . S
C281 C282 1.363 . S
C281 H284 0.929 . S
C282 C281 1.363 . S
C282 C288 1.428 . S
H283 C279 0.930 . S
H284 C281 0.929 . S
S285 N286 1.613 . S
S285 N287 1.610 . S
N286 S285 1.613 . S
N286 C289 1.350 . S
N287 S285 1.610 . S
N287 C288 1.351 . S
C288 C282 1.428 . S
C288 N287 1.351 . S
C288 C289 1.434 . S
C289 C280 1.429 . S
C289 N286 1.350 . S
C289 C288 1.434 . S
C290 C291 1.369 . S
C290 C292 1.419 . S
C290 H294 0.930 . S
C291 C290 1.369 . S
C291 C300 1.429 . S
C292 C290 1.419 . S
C292 C293 1.363 . S
C292 H295 0.929 . S
C293 C292 1.363 . S
C293 C299 1.428 . S
H294 C290 0.930 . S
H295 C292 0.929 . S
S296 N297 1.613 . S
S296 N298 1.610 . S
N297 S296 1.613 . S
N297 C300 1.350 . S
N298 S296 1.610 . S
N298 C299 1.351 . S
C299 C293 1.428 . S
C299 N298 1.351 . S
C299 C300 1.434 . S
C300 C291 1.429 . S
C300 N297 1.350 . S
C300 C299 1.434 . S
C301 C302 1.369 . S
C301 C303 1.419 . S
C301 H305 0.930 . S
C302 C301 1.369 . S
C302 C311 1.429 . S
C303 C301 1.419 . S
C303 C304 1.363 . S
C303 H306 0.929 . S
C304 C303 1.363 . S
C304 C310 1.428 . S
H305 C301 0.930 . S
H306 C303 0.929 . S
S307 N308 1.613 . S
S307 N309 1.610 . S
N308 S307 1.613 . S
N308 C311 1.350 . S
N309 S307 1.610 . S
N309 C310 1.351 . S
C310 C304 1.428 . S
C310 N309 1.351 . S
C310 C311 1.434 . S
C311 C302 1.429 . S
C311 N308 1.350 . S
C311 C310 1.434 . S
C312 C313 1.369 . S
C312 C314 1.419 . S
C312 H316 0.930 . S
C313 C312 1.369 . S
C313 C322 1.429 . S
C314 C312 1.419 . S
C314 C315 1.363 . S
C314 H317 0.929 . S
C315 C314 1.363 . S
C315 C321 1.428 . S
H316 C312 0.930 . S
H317 C314 0.929 . S
S318 N319 1.613 . S
S318 N320 1.610 . S
N319 S318 1.613 . S
N319 C322 1.350 . S
N320 S318 1.610 . S
N320 C321 1.351 . S
C321 C315 1.428 . S
C321 N320 1.351 . S
C321 C322 1.434 . S
C322 C313 1.429 . S
C322 N319 1.350 . S
C322 C321 1.434 . S
C323 C324 1.369 . S
C323 C325 1.419 . S
C323 H327 0.930 . S
C324 C323 1.369 . S
C324 C333 1.429 . S
C325 C323 1.419 . S
C325 C326 1.363 . S
C325 H328 0.929 . S
C326 C325 1.363 . S
C326 C332 1.428 . S
H327 C323 0.930 . S
H328 C325 0.929 . S
S329 N330 1.613 . S
S329 N331 1.610 . S
N330 S329 1.613 . S
N330 C333 1.350 . S
N331 S329 1.610 . S
N331 C332 1.351 . S
C332 C326 1.428 . S
C332 N331 1.351 . S
C332 C333 1.434 . S
C333 C324 1.429 . S
C333 N330 1.350 . S
C333 C332 1.434 . S
C334 C335 1.369 . S
C334 C336 1.419 . S
C334 H338 0.930 . S
C335 C334 1.369 . S
C335 C344 1.429 . S
C336 C334 1.419 . S
C336 C337 1.363 . S
C336 H339 0.929 . S
C337 C336 1.363 . S
C337 C343 1.428 . S
H338 C334 0.930 . S
H339 C336 0.929 . S
S340 N341 1.613 . S
S340 N342 1.610 . S
N341 S340 1.613 . S
N341 C344 1.350 . S
N342 S340 1.610 . S
N342 C343 1.351 . S
C343 C337 1.428 . S
C343 N342 1.351 . S
C343 C344 1.434 . S
C344 C335 1.429 . S
C344 N341 1.350 . S
C344 C343 1.434 . S
C345 C346 1.369 . S
C345 C347 1.419 . S
C345 H349 0.930 . S
C346 C345 1.369 . S
C346 C355 1.429 . S
C347 C345 1.419 . S
C347 C348 1.363 . S
C347 H350 0.929 . S
C348 C347 1.363 . S
C348 C354 1.428 . S
H349 C345 0.930 . S
H350 C347 0.929 . S
S351 N352 1.613 . S
S351 N353 1.610 . S
N352 S351 1.613 . S
N352 C355 1.350 . S
N353 S351 1.610 . S
N353 C354 1.351 . S
C354 C348 1.428 . S
C354 N353 1.351 . S
C354 C355 1.434 . S
C355 C346 1.429 . S
C355 N352 1.350 . S
C355 C354 1.434 . S
C356 C357 1.369 . S
C356 C358 1.419 . S
C356 H360 0.930 . S
C357 C356 1.369 . S
C357 C366 1.429 . S
C358 C356 1.419 . S
C358 C359 1.363 . S
C358 H361 0.929 . S
C359 C358 1.363 . S
C359 C365 1.428 . S
H360 C356 0.930 . S
H361 C358 0.929 . S
S362 N363 1.613 . S
S362 N364 1.610 . S
N363 S362 1.613 . S
N363 C366 1.350 . S
N364 S362 1.610 . S
N364 C365 1.351 . S
C365 C359 1.428 . S
C365 N364 1.351 . S
C365 C366 1.434 . S
C366 C357 1.429 . S
C366 N363 1.350 . S
C366 C365 1.434 . S
C367 C368 1.369 . S
C367 C369 1.419 . S
C367 H371 0.930 . S
C368 C367 1.369 . S
C368 C377 1.429 . S
C369 C367 1.419 . S
C369 C370 1.363 . S
C369 H372 0.929 . S
C370 C369 1.363 . S
C370 C376 1.428 . S
H371 C367 0.930 . S
H372 C369 0.929 . S
S373 N374 1.613 . S
S373 N375 1.610 . S
N374 S373 1.613 . S
N374 C377 1.350 . S
N375 S373 1.610 . S
N375 C376 1.351 . S
C376 C370 1.428 . S
C376 N375 1.351 . S
C376 C377 1.434 . S
C377 C368 1.429 . S
C377 N374 1.350 . S
C377 C376 1.434 . S
C378 C379 1.369 . S
C378 C380 1.419 . S
C378 H382 0.930 . S
C379 C378 1.369 . S
C379 C388 1.429 . S
C380 C378 1.419 . S
C380 C381 1.363 . S
C380 H383 0.929 . S
C381 C380 1.363 . S
C381 C387 1.428 . S
H382 C378 0.930 . S
H383 C380 0.929 . S
S384 N385 1.613 . S
S384 N386 1.610 . S
N385 S384 1.613 . S
N385 C388 1.350 . S
N386 S384 1.610 . S
N386 C387 1.351 . S
C387 C381 1.428 . S
C387 N386 1.351 . S
C387 C388 1.434 . S
C388 C379 1.429 . S
C388 N385 1.350 . S
C388 C387 1.434 . S
C389 C390 1.369 . S
C389 C391 1.419 . S
C389 H393 0.930 . S
C390 C389 1.369 . S
C390 C399 1.429 . S
C391 C389 1.419 . S
C391 C392 1.363 . S
C391 H394 0.929 . S
C392 C391 1.363 . S
C392 C398 1.428 . S
H393 C389 0.930 . S
H394 C391 0.929 . S
S395 N396 1.613 . S
S395 N397 1.610 . S
N396 S395 1.613 . S
N396 C399 1.350 . S
N397 S395 1.610 . S
N397 C398 1.351 . S
C398 C392 1.428 . S
C398 N397 1.351 . S
C398 C399 1.434 . S
C399 C390 1.429 . S
C399 N396 1.350 . S
C399 C398 1.434 . S
C400 C401 1.369 . S
C400 C402 1.419 . S
C400 H404 0.930 . S
C401 C400 1.369 . S
C401 C410 1.429 . S
C402 C400 1.419 . S
C402 C403 1.363 . S
C402 H405 0.929 . S
C403 C402 1.363 . S
C403 C409 1.428 . S
H404 C400 0.930 . S
H405 C402 0.929 . S
S406 N407 1.613 . S
S406 N408 1.610 . S
N407 S406 1.613 . S
N407 C410 1.350 . S
N408 S406 1.610 . S
N408 C409 1.351 . S
C409 C403 1.428 . S
C409 N408 1.351 . S
C409 C410 1.434 . S
C410 C401 1.429 . S
C410 N407 1.350 . S
C410 C409 1.434 . S
C411 C412 1.369 . S
C411 C413 1.419 . S
C411 H415 0.930 . S
C412 C411 1.369 . S
C412 C421 1.429 . S
C413 C411 1.419 . S
C413 C414 1.363 . S
C413 H416 0.929 . S
C414 C413 1.363 . S
C414 C420 1.428 . S
H415 C411 0.930 . S
H416 C413 0.929 . S
S417 N418 1.613 . S
S417 N419 1.610 . S
N418 S417 1.613 . S
N418 C421 1.350 . S
N419 S417 1.610 . S
N419 C420 1.351 . S
C420 C414 1.428 . S
C420 N419 1.351 . S
C420 C421 1.434 . S
C421 C412 1.429 . S
C421 N418 1.350 . S
C421 C420 1.434 . S
C422 C423 1.369 . S
C422 C424 1.419 . S
C422 H426 0.930 . S
C423 C422 1.369 . S
C423 C432 1.429 . S
C424 C422 1.419 . S
C424 C425 1.363 . S
C424 H427 0.929 . S
C425 C424 1.363 . S
C425 C431 1.428 . S
H426 C422 0.930 . S
H427 C424 0.929 . S
S428 N429 1.613 . S
S428 N430 1.610 . S
N429 S428 1.613 . S
N429 C432 1.350 . S
N430 S428 1.610 . S
N430 C431 1.351 . S
C431 C425 1.428 . S
C431 N430 1.351 . S
C431 C432 1.434 . S
C432 C423 1.429 . S
C432 N429 1.350 . S
C432 C431 1.434 . S
C433 C434 1.369 . S
C433 C435 1.419 . S
C433 H437 0.930 . S
C434 C433 1.369 . S
C434 C443 1.429 . S
C435 C433 1.419 . S
C435 C436 1.363 . S
C435 H438 0.929 . S
C436 C435 1.363 . S
C436 C442 1.428 . S
H437 C433 0.930 . S
H438 C435 0.929 . S
S439 N440 1.613 . S
S439 N441 1.610 . S
N440 S439 1.613 . S
N440 C443 1.350 . S
N441 S439 1.610 . S
N441 C442 1.351 . S
C442 C436 1.428 . S
C442 N441 1.351 . S
C442 C443 1.434 . S
C443 C434 1.429 . S
C443 N440 1.350 . S
C443 C442 1.434 . S
C444 C445 1.369 . S
C444 C446 1.419 . S
C444 H448 0.930 . S
C445 C444 1.369 . S
C445 C454 1.429 . S
C446 C444 1.419 . S
C446 C447 1.363 . S
C446 H449 0.929 . S
C447 C446 1.363 . S
C447 C453 1.428 . S
H448 C444 0.930 . S
H449 C446 0.929 . S
S450 N451 1.613 . S
S450 N452 1.610 . S
N451 S450 1.613 . S
N451 C454 1.350 . S
N452 S450 1.610 . S
N452 C453 1.351 . S
C453 C447 1.428 . S
C453 N452 1.351 . S
C453 C454 1.434 . S
C454 C445 1.429 . S
C454 N451 1.350 . S
C454 C453 1.434 . S
C455 C456 1.369 . S
C455 C457 1.419 . S
C455 H459 0.930 . S
C456 C455 1.369 . S
C456 C465 1.429 . S
C457 C455 1.419 . S
C457 C458 1.363 . S
C457 H460 0.929 . S
C458 C457 1.363 . S
C458 C464 1.428 . S
H459 C455 0.930 . S
H460 C457 0.929 . S
S461 N462 1.613 . S
S461 N463 1.610 . S
N462 S461 1.613 . S
N462 C465 1.350 . S
N463 S461 1.610 . S
N463 C464 1.351 . S
C464 C458 1.428 . S
C464 N463 1.351 . S
C464 C465 1.434 . S
C465 C456 1.429 . S
C465 N462 1.350 . S
C465 C464 1.434 . S
C466 C467 1.369 . S
C466 C468 1.419 . S
C466 H470 0.930 . S
C467 C466 1.369 . S
C467 C476 1.429 . S
C468 C466 1.419 . S
C468 C469 1.363 . S
C468 H471 0.929 . S
C469 C468 1.363 . S
C469 C475 1.428 . S
H470 C466 0.930 . S
H471 C468 0.929 . S
S472 N473 1.613 . S
S472 N474 1.610 . S
N473 S472 1.613 . S
N473 C476 1.350 . S
N474 S472 1.610 . S
N474 C475 1.351 . S
C475 C469 1.428 . S
C475 N474 1.351 . S
C475 C476 1.434 . S
C476 C467 1.429 . S
C476 N473 1.350 . S
C476 C475 1.434 . S
C477 C478 1.369 . S
C477 C479 1.419 . S
C477 H481 0.930 . S
C478 C477 1.369 . S
C478 C487 1.429 . S
C479 C477 1.419 . S
C479 C480 1.363 . S
C479 H482 0.929 . S
C480 C479 1.363 . S
C480 C486 1.428 . S
H481 C477 0.930 . S
H482 C479 0.929 . S
S483 N484 1.613 . S
S483 N485 1.610 . S
N484 S483 1.613 . S
N484 C487 1.350 . S
N485 S483 1.610 . S
N485 C486 1.351 . S
C486 C480 1.428 . S
C486 N485 1.351 . S
C486 C487 1.434 . S
C487 C478 1.429 . S
C487 N484 1.350 . S
C487 C486 1.434 . S
C488 C489 1.369 . S
C488 C490 1.419 1_554 S
C488 H492 0.930 . S
C489 C488 1.369 . S
C489 C498 1.429 . S
C490 C488 1.419 1_556 S
C490 C491 1.363 . S
C490 H493 0.929 . S
C491 C490 1.363 . S
C491 C497 1.428 . S
H492 C488 0.930 . S
H493 C490 0.929 . S
S494 N495 1.613 . S
S494 N496 1.610 1_554 S
N495 S494 1.613 . S
N495 C498 1.350 . S
N496 S494 1.610 1_556 S
N496 C497 1.351 . S
C497 C491 1.428 . S
C497 N496 1.351 . S
C497 C498 1.434 1_556 S
C498 C489 1.429 . S
C498 N495 1.350 . S
C498 C497 1.434 1_554 S
C499 C500 1.369 . S
C499 C501 1.419 . S
C499 H503 0.930 . S
C500 C499 1.369 . S
C500 C509 1.429 . S
C501 C499 1.419 . S
C501 C502 1.363 . S
C501 H504 0.929 . S
C502 C501 1.363 . S
C502 C508 1.428 . S
H503 C499 0.930 . S
H504 C501 0.929 . S
S505 N506 1.613 . S
S505 N507 1.610 . S
N506 S505 1.613 . S
N506 C509 1.350 . S
N507 S505 1.610 . S
N507 C508 1.351 . S
C508 C502 1.428 . S
C508 N507 1.351 . S
C508 C509 1.434 . S
C509 C500 1.429 . S
C509 N506 1.350 . S
C509 C508 1.434 . S
C510 C511 1.369 . S
C510 C512 1.419 1_554 S
C510 H514 0.930 . S
C511 C510 1.369 . S
C511 C520 1.429 . S
C512 C510 1.419 1_556 S
C512 C513 1.363 . S
C512 H515 0.929 . S
C513 C512 1.363 . S
C513 C519 1.428 . S
H514 C510 0.930 . S
H515 C512 0.929 . S
S516 N517 1.613 . S
S516 N518 1.598 1_554 S
N517 S516 1.613 . S
N517 C520 1.350 . S
N518 S516 1.598 1_556 S
N518 C519 1.352 . S
C519 C513 1.428 . S
C519 N518 1.352 . S
C519 C520 1.434 1_556 S
C520 C511 1.429 . S
C520 N517 1.350 . S
C520 C519 1.434 1_554 S
C521 C522 1.369 . S
C521 C523 1.419 . S
C521 H525 0.930 . S
C522 C521 1.369 . S
C522 C531 1.429 . S
C523 C521 1.419 . S
C523 C524 1.363 . S
C523 H526 0.929 . S
C524 C523 1.363 . S
C524 C530 1.428 . S
H525 C521 0.930 . S
H526 C523 0.929 . S
S527 N528 1.613 . S
S527 N529 1.610 . S
N528 S527 1.613 . S
N528 C531 1.350 1_545 S
N529 S527 1.610 . S
N529 C530 1.351 1_545 S
C530 C524 1.428 . S
C530 N529 1.351 1_565 S
C530 C531 1.434 . S
C531 C522 1.429 . S
C531 N528 1.350 1_565 S
C531 C530 1.434 . S
C532 C533 1.369 . S
C532 C534 1.419 1_556 S
C532 H536 0.930 . S
C533 C532 1.369 . S
C533 C542 1.452 . S
C534 C532 1.419 1_554 S
C534 C535 1.363 . S
C534 H537 0.929 . S
C535 C534 1.363 . S
C535 C541 1.428 . S
H536 C532 0.930 . S
H537 C534 0.929 . S
S538 N539 1.613 . S
S538 N540 1.610 . S
N539 S538 1.613 . S
N539 C542 1.348 1_554 S
N540 S538 1.610 . S
N540 C541 1.351 . S
C541 C535 1.428 . S
C541 N540 1.351 . S
C541 C542 1.411 1_554 S
C542 C533 1.452 . S
C542 N539 1.348 1_556 S
C542 C541 1.411 1_556 S
C543 C544 1.369 . S
C543 C545 1.419 . S
C543 H547 0.930 . S
C544 C543 1.369 . S
C544 C553 1.429 . S
C545 C543 1.419 . S
C545 C546 1.363 . S
C545 H548 0.929 . S
C546 C545 1.363 . S
C546 C552 1.428 . S
H547 C543 0.930 . S
H548 C545 0.929 . S
S549 N550 1.613 . S
S549 N551 1.610 . S
N550 S549 1.613 . S
N550 C553 1.350 . S
N551 S549 1.610 . S
N551 C552 1.351 . S
C552 C546 1.428 . S
C552 N551 1.351 . S
C552 C553 1.434 . S
C553 C544 1.429 . S
C553 N550 1.350 . S
C553 C552 1.434 . S
C554 C555 1.369 . S
C554 C556 1.419 1_554 S
C554 H558 0.930 . S
C555 C554 1.369 . S
C555 C564 1.445 . S
C556 C554 1.419 1_556 S
C556 C557 1.363 . S
C556 H559 0.929 . S
C557 C556 1.363 . S
C557 C563 1.428 . S
H558 C554 0.930 . S
H559 C556 0.929 . S
S560 N561 1.613 1_655 S
S560 N562 1.610 1_655 S
N561 S560 1.613 1_455 S
N561 C564 1.348 1_556 S
N562 S560 1.610 1_455 S
N562 C563 1.351 . S
C563 C557 1.428 . S
C563 N562 1.351 . S
C563 C564 1.417 1_556 S
C564 C555 1.445 . S
C564 N561 1.348 1_554 S
C564 C563 1.417 1_554 S
C565 C566 1.369 . S
C565 C567 1.419 . S
C565 H569 0.930 . S
C566 C565 1.369 . S
C566 C575 1.429 . S
C567 C565 1.419 . S
C567 C568 1.363 . S
C567 H570 0.929 . S
C568 C567 1.363 . S
C568 C574 1.428 . S
H569 C565 0.930 . S
H570 C567 0.929 . S
S571 N572 1.613 . S
S571 N573 1.610 . S
N572 S571 1.613 . S
N572 C575 1.350 1_565 S
N573 S571 1.610 . S
N573 C574 1.351 1_565 S
C574 C568 1.428 . S
C574 N573 1.351 1_545 S
C574 C575 1.434 . S
C575 C566 1.429 . S
C575 N572 1.350 1_545 S
C575 C574 1.434 . S
C225 C11 1.316 . S
C227 C109 1.321 . S
C236 C25 1.319 . S
C238 C67 1.308 . S
C247 C39 1.307 . S
C249 C81 1.318 . S
C258 C53 1.321 . S
C260 C95 1.315 . S
C269 C117 1.202 . S
C271 C221 1.290 . S
C280 C173 1.197 . S
C282 C137 1.288 . S
C291 C145 1.201 . S
C293 C193 1.286 . S
C302 C165 1.287 . S
C304 C201 1.200 . S
C313 C4 1.254 . S
C315 C138 1.348 . S
C324 C18 1.389 . S
C326 C144 1.475 . S
C335 C166 1.347 . S
C337 C32 1.259 . S
C346 C46 1.382 . S
C348 C116 1.472 . S
C357 C60 1.256 . S
C359 C222 1.347 . S
C368 C172 1.471 . S
C370 C74 1.385 . S
C379 C194 1.347 . S
C381 C88 1.260 . S
C390 C200 1.471 . S
C392 C102 1.384 . S
C401 C26 1.250 . S
C403 C124 1.218 . S
C412 C40 1.309 . S
C414 C130 1.248 . S
C423 C152 1.209 . S
C425 C54 1.252 . S
C434 C12 1.310 . S
C436 C158 1.252 . S
C445 C180 1.214 . S
C447 C110 1.252 . S
C456 C186 1.246 . S
C458 C68 1.310 . S
C467 C82 1.250 . S
C469 C208 1.218 . S
C478 C96 1.308 . S
C480 C214 1.250 . S
C489 C5 1.326 . S
C491 C61 1.312 . S
C500 C75 1.302 . S
C502 C19 1.308 . S
C511 C33 1.326 . S
C513 C89 1.312 . S
C522 C103 1.301 . S
C524 C47 1.306 . S
C533 C123 1.552 . S
C535 C179 1.546 . S
C544 C187 1.363 . S
C546 C131 1.365 . S
C555 C207 1.552 . S
C557 C151 1.546 . S
C566 C215 1.362 . S
C568 C159 1.366 . S
