# Generated by pormake.
# Topology uom, (4)-cn, num edge types: 1
# Building blocks:
#     Node 0, Type 0, BuildingBlock: KOZSID_clean_sbu_0, # of connection points: 4
#     Node 1, Type 0, BuildingBlock: KOZSID_clean_sbu_0, # of connection points: 4
#     Node 2, Type 0, BuildingBlock: KOZSID_clean_sbu_0, # of connection points: 4
#     Node 3, Type 0, BuildingBlock: KOZSID_clean_sbu_0, # of connection points: 4
#     Node 4, Type 0, BuildingBlock: KOZSID_clean_sbu_0, # of connection points: 4
#     Node 5, Type 0, BuildingBlock: KOZSID_clean_sbu_0, # of connection points: 4
#     Edge 6, Type (0, 0), BuildingBlock: OJICUG_clean_linker_0, # of connection points: 2
#     Edge 7, Type (0, 0), BuildingBlock: OJICUG_clean_linker_0, # of connection points: 2
#     Edge 8, Type (0, 0), BuildingBlock: OJICUG_clean_linker_0, # of connection points: 2
#     Edge 9, Type (0, 0), BuildingBlock: OJICUG_clean_linker_0, # of connection points: 2
#     Edge 10, Type (0, 0), BuildingBlock: OJICUG_clean_linker_0, # of connection points: 2
#     Edge 11, Type (0, 0), BuildingBlock: OJICUG_clean_linker_0, # of connection points: 2
#     Edge 12, Type (0, 0), BuildingBlock: OJICUG_clean_linker_0, # of connection points: 2
#     Edge 13, Type (0, 0), BuildingBlock: OJICUG_clean_linker_0, # of connection points: 2
#     Edge 14, Type (0, 0), BuildingBlock: OJICUG_clean_linker_0, # of connection points: 2
#     Edge 15, Type (0, 0), BuildingBlock: OJICUG_clean_linker_0, # of connection points: 2
#     Edge 16, Type (0, 0), BuildingBlock: OJICUG_clean_linker_0, # of connection points: 2
#     Edge 17, Type (0, 0), BuildingBlock: OJICUG_clean_linker_0, # of connection points: 2
# Relax obj value: 0.158
# Max RMSD: 0.175
# Mean RMSD: 0.175
data_MOF--net-uom--node1-KOZSID_clean_sbu_0--edge1-OJICUG_clean_linker_0
_symmetry_space_group_name_H-M    P1
_symmetry_Int_Tables_number       1
_symmetry_cell_setting            triclinic
loop_
_symmetry_equiv_pos_as_xyz
'x, y, z'
_cell_length_a     30.289822
_cell_length_b     30.39367
_cell_length_c     31.045176
_cell_angle_alpha  90.014554
_cell_angle_beta   90.018954
_cell_angle_gamma 119.95567
loop_
_atom_site_label
_atom_site_type_symbol
_atom_site_fract_x
_atom_site_fract_y
_atom_site_fract_z
_atom_type_partial_charge
C0 C 0.33351 0.10422 0.13732 0.0
C1 C 0.30812 0.07488 0.1731 0.0
C2 C 0.29605 0.02598 0.16415 0.0
C3 C 0.3124 0.02698 0.12284 0.0
N4 N 0.33356 0.07365 0.10519 0.0
Co5 Co 0.34943 0.08904 0.04301 0.0
N6 N 0.30679 0.01681 0.02582 0.0
C7 C 0.29134 0.97667 0.05214 0.0
C8 C 0.26133 0.93125 0.03156 0.0
C9 C 0.258 0.9437 0.98964 0.0
C10 C 0.28646 0.99626 0.98688 0.0
N11 N 0.36501 0.10468 0.98101 0.0
C12 C 0.33969 0.0773 0.94569 0.0
C13 C 0.36439 0.10262 0.90831 0.0
C14 C 0.4066 0.14718 0.92093 0.0
C15 C 0.40543 0.14661 0.9652 0.0
N16 N 0.39231 0.1611 0.05993 0.0
C17 C 0.43125 0.19629 0.03638 0.0
C18 C 0.45884 0.24145 0.05787 0.0
C19 C 0.43575 0.23406 0.09735 0.0
C20 C 0.39436 0.18485 0.09762 0.0
N21 N 0.40864 0.07971 0.04897 0.0
C22 C 0.49997 0.07784 0.05212 0.0
C23 C 0.46459 0.05259 0.01921 0.0
C24 C 0.41927 0.05425 0.01806 0.0
C25 C 0.48767 0.10186 0.08453 0.0
C26 C 0.44153 0.10167 0.08274 0.0
N27 N 0.29107 0.09865 0.03712 0.0
C28 C 0.2546 0.14868 0.01313 0.0
C29 C 0.20872 0.11483 0.03319 0.0
C30 C 0.20424 0.07222 0.05423 0.0
C31 C 0.24571 0.06452 0.05542 0.0
C32 C 0.29566 0.1401 0.01582 0.0
H33 H 0.24122 0.03129 0.07169 0.0
H34 H 0.33129 0.16723 1.00119 0.0
H35 H 0.39361 0.03628 0.9914 0.0
H36 H 0.43327 0.12082 0.10802 0.0
C37 C 0.29596 0.98387 0.0968 0.0
C38 C 0.36008 0.16082 0.13508 0.0
C39 C 0.29545 0.02545 0.94672 0.0
C40 C 0.43624 0.1873 0.9927 0.0
H41 H 0.29665 0.08603 0.20206 0.0
H42 H 0.27362 0.99286 0.18399 0.0
H43 H 0.24172 0.89375 0.04579 0.0
H44 H 0.23657 0.91708 0.9643 0.0
H45 H 0.35343 0.08989 0.87546 0.0
H46 H 0.43391 0.17704 0.90025 0.0
H47 H 0.4913 0.27595 0.04607 0.0
H48 H 0.44863 0.26167 0.12313 0.0
H49 H 0.47283 0.03355 0.9936 0.0
H50 H 0.51385 0.12119 0.11082 0.0
H51 H 0.25898 0.18196 0.99649 0.0
H52 H 0.16886 0.045 0.06956 0.0
C53 C 0.32947 0.34902 0.46478 0.0
C54 C 0.35067 0.34494 0.50316 0.0
C55 C 0.39217 0.34028 0.49237 0.0
C56 C 0.39412 0.34182 0.44814 0.0
N57 N 0.35626 0.34681 0.43059 0.0
Co58 Co 0.34611 0.35153 0.36803 0.0
N59 N 0.38728 0.3198 0.35255 0.0
C60 C 0.4234 0.31989 0.37785 0.0
C61 C 0.45078 0.30133 0.35729 0.0
C62 C 0.43054 0.28885 0.31656 0.0
C63 C 0.39091 0.29947 0.31463 0.0
N64 N 0.33579 0.3557 0.30523 0.0
C65 C 0.33652 0.32607 0.27255 0.0
C66 C 0.31536 0.33407 0.23566 0.0
C67 C 0.30523 0.37227 0.24477 0.0
C68 C 0.31844 0.38445 0.2871 0.0
N69 N 0.30514 0.38365 0.38377 0.0
C70 C 0.29358 0.41135 0.35721 0.0
C71 C 0.26361 0.42777 0.37654 0.0
C72 C 0.25625 0.40953 0.41791 0.0
C73 C 0.28253 0.38314 0.4217 0.0
N74 N 0.40761 0.41834 0.36648 0.0
C75 C 0.50038 0.50939 0.36947 0.0
C76 C 0.48989 0.47472 0.33599 0.0
C77 C 0.44299 0.42978 0.33473 0.0
C78 C 0.46286 0.4986 0.4005 0.0
C79 C 0.41687 0.45274 0.39859 0.0
N80 N 0.28527 0.28528 0.36972 0.0
C81 C 0.19833 0.23064 0.34918 0.0
C82 C 0.19825 0.19023 0.37057 0.0
C83 C 0.24218 0.1981 0.39201 0.0
C84 C 0.28564 0.24603 0.39085 0.0
C85 C 0.24211 0.27799 0.34948 0.0
H86 H 0.31959 0.25142 0.40688 0.0
H87 H 0.24102 0.30864 0.33316 0.0
H88 H 0.43588 0.40368 0.3086 0.0
H89 H 0.38932 0.44461 0.42375 0.0
C90 C 0.4256 0.3314 0.42193 0.0
C91 C 0.28754 0.36027 0.46203 0.0
C92 C 0.35986 0.29299 0.2756 0.0
C93 C 0.30174 0.41118 0.31286 0.0
H94 H 0.33801 0.34612 0.53551 0.0
H95 H 0.41704 0.33501 0.51418 0.0
H96 H 0.48118 0.29651 0.37048 0.0
H97 H 0.44407 0.27427 0.29112 0.0
H98 H 0.30526 0.31331 0.20575 0.0
H99 H 0.28587 0.38595 0.2241 0.0
H100 H 0.24667 0.44805 0.3617 0.0
H101 H 0.23366 0.41474 0.44218 0.0
H102 H 0.51775 0.48231 0.31099 0.0
H103 H 0.46964 0.52467 0.4268 0.0
H104 H 0.1646 0.22577 0.33275 0.0
H105 H 0.24312 0.16734 0.40882 0.0
C106 C 0.08117 0.33147 0.80085 0.0
C107 C 0.10476 0.34971 0.84037 0.0
C108 C 0.15322 0.38856 0.83179 0.0
C109 C 0.15656 0.39212 0.78766 0.0
N110 N 0.11324 0.35781 0.76813 0.0
Co111 Co 0.10181 0.35036 0.70506 0.0
N112 N 0.17597 0.38628 0.69264 0.0
C113 C 0.21297 0.41685 0.7202 0.0
C114 C 0.26086 0.43526 0.70319 0.0
C115 C 0.25336 0.41528 0.66237 0.0
C116 C 0.20104 0.38596 0.65646 0.0
N117 N 0.09037 0.34313 0.64197 0.0
C118 C 0.12231 0.34672 0.60977 0.0
C119 C 0.09871 0.33956 0.57 0.0
C120 C 0.05042 0.33108 0.57785 0.0
C121 C 0.04719 0.33374 0.62183 0.0
N122 N 0.02768 0.31412 0.71752 0.0
C123 C 0.99082 0.30679 0.68939 0.0
C124 C 0.94287 0.27862 0.70657 0.0
C125 C 0.95018 0.26794 0.7481 0.0
C126 C 0.00246 0.29068 0.75423 0.0
N127 N 0.10246 0.4148 0.70336 0.0
C128 C 0.10496 0.50802 0.7016 0.0
C129 C 0.13175 0.49657 0.67101 0.0
C130 C 0.12975 0.44978 0.67229 0.0
C131 C 0.07661 0.4715 0.73295 0.0
C132 C 0.07607 0.42535 0.7334 0.0
N133 N 0.1013 0.28659 0.7067 0.0
C134 C 0.06556 0.20039 0.68339 0.0
C135 C 0.10253 0.19614 0.70695 0.0
C136 C 0.13845 0.23752 0.73085 0.0
C137 C 0.13738 0.28266 0.73005 0.0
C138 C 0.06536 0.24596 0.68399 0.0
H139 H 0.16602 0.31451 0.74796 0.0
H140 H 0.03641 0.2485 0.66582 0.0
H141 H 0.15066 0.44208 0.64824 0.0
H142 H 0.0543 0.39819 0.75813 0.0
C143 C 0.20154 0.41953 0.76366 0.0
C144 C 0.02737 0.29195 0.79553 0.0
C145 C 0.17609 0.36085 0.61562 0.0
C146 C 0.00233 0.31828 0.64556 0.0
H147 H 0.08859 0.33645 0.87203 0.0
H148 H 0.18306 0.41007 0.85497 0.0
H149 H 0.29701 0.4585 0.71919 0.0
H150 H 0.28312 0.42158 0.63979 0.0
H151 H 0.11476 0.3406 0.53862 0.0
H152 H 0.02064 0.32198 0.55439 0.0
H153 H 0.90678 0.26519 0.69027 0.0
H154 H 0.92028 0.24566 0.77092 0.0
H155 H 0.15481 0.52376 0.64654 0.0
H156 H 0.05459 0.4782 0.75684 0.0
H157 H 0.03697 0.16869 0.6649 0.0
H158 H 0.16774 0.23534 0.74918 0.0
C159 C 0.87203 0.09556 0.13797 0.0
C160 C 0.88374 0.12285 0.17625 0.0
C161 C 0.88858 0.16912 0.16668 0.0
C162 C 0.88059 0.16822 0.12311 0.0
N163 N 0.87151 0.12437 0.10467 0.0
Co164 Co 0.86256 0.10957 0.04196 0.0
N165 N 0.8937 0.18247 0.02657 0.0
C166 C 0.89973 0.21986 0.05332 0.0
C167 C 0.92473 0.26685 0.03421 0.0
C168 C 0.93484 0.25834 0.99287 0.0
C169 C 0.91498 0.20631 0.98884 0.0
N170 N 0.85337 0.09475 0.9794 0.0
C171 C 0.87748 0.12556 0.94543 0.0
C172 C 0.8592 0.09955 0.90689 0.0
C173 C 0.82258 0.05081 0.9174 0.0
C174 C 0.82035 0.04976 0.96164 0.0
N175 N 0.83185 0.03671 0.05705 0.0
C176 C 0.80126 -0.00231 0.03117 0.0
C177 C 0.78414 0.95131 0.05045 0.0
C178 C 0.80502 0.96191 0.09102 0.0
C179 C 0.83412 0.01443 0.09431 0.0
N180 N 0.79521 0.10368 0.04454 0.0
C181 C 0.69849 0.09423 0.04736 0.0
C182 C 0.73341 0.1233 0.01531 0.0
C183 C 0.7813 0.12709 0.01417 0.0
C184 C 0.71287 0.07006 0.07804 0.0
C185 C 0.76159 0.07579 0.0764 0.0
N186 N 0.92929 0.11548 0.0392 0.0
C187 C 0.98362 0.08513 0.0128 0.0
C188 C 0.02521 0.1249 0.03384 0.0
C189 C 0.0181 0.15997 0.05749 0.0
C190 C 0.96983 0.15481 0.05948 0.0
C191 C 0.93582 0.08083 0.01621 0.0
H192 H 0.96534 0.18262 0.07744 0.0
H193 H 0.90409 0.04942 1.00034 0.0
H194 H 0.80705 0.14891 0.98859 0.0
H195 H 0.77199 0.05754 0.10094 0.0
C196 C 0.89169 0.21067 0.09767 0.0
C197 C 0.85878 0.04171 0.13454 0.0
C198 C 0.91481 0.18015 0.94869 0.0
C199 C 0.79595 0.00606 0.98743 0.0
H200 H 0.88894 0.11118 0.20783 0.0
H201 H 0.89955 0.20067 0.18853 0.0
H202 H 0.93693 0.3033 0.04921 0.0
H203 H 0.95514 0.28734 0.9689 0.0
H204 H 0.87101 0.11428 0.87464 0.0
H205 H 0.80181 0.01941 0.89544 0.0
H206 H 0.76042 0.91416 0.03638 0.0
H207 H 0.79871 0.93411 0.11557 0.0
H208 H 0.72347 0.14235 0.99091 0.0
H209 H 0.68697 0.04763 0.10355 0.0
H210 H 0.98777 0.05688 0.99476 0.0
H211 H 0.04961 0.19119 0.07416 0.0
C212 C 0.87904 0.85239 0.46471 0.0
C213 C 0.86191 0.85807 0.50469 0.0
C214 C 0.82059 0.86432 0.4972 0.0
C215 C 0.8147 0.86209 0.45322 0.0
N216 N 0.84993 0.85522 0.43284 0.0
Co217 Co 0.85359 0.84829 0.36984 0.0
N218 N 0.81543 0.88425 0.3583 0.0
C219 C 0.78084 0.88396 0.38561 0.0
C220 C 0.74939 0.89832 0.36621 0.0
C221 C 0.76563 0.90852 0.3242 0.0
C222 C 0.80823 0.90266 0.32061 0.0
N223 N 0.85671 0.84088 0.30676 0.0
C224 C 0.84778 0.8652 0.2741 0.0
C225 C 0.84443 0.84094 0.23523 0.0
C226 C 0.8547 0.80257 0.24386 0.0
C227 C 0.86191 0.80406 0.2876 0.0
N228 N 0.89165 0.81233 0.3817 0.0
C229 C 0.89676 0.78105 0.35412 0.0
C230 C 0.92653 0.76272 0.37062 0.0
C231 C 0.94048 0.78352 0.41115 0.0
C232 C 0.91797 0.81317 0.41746 0.0
N233 N 0.78923 0.78365 0.37149 0.0
C234 C 0.69586 0.69312 0.37451 0.0
C235 C 0.70526 0.72944 0.34292 0.0
C236 C 0.75222 0.774 0.34163 0.0
C237 C 0.7343 0.70239 0.40424 0.0
C238 C 0.78063 0.74818 0.40244 0.0
N239 N 0.91709 0.91196 0.36806 0.0
C240 C 0.00369 0.96012 0.34437 0.0
C241 C 0.01017 0.00133 0.36909 0.0
C242 C 0.96911 0.99745 0.39274 0.0
C243 C 0.92254 0.95243 0.39141 0.0
C244 C 0.95682 0.91557 0.3445 0.0
H245 H 0.89103 0.95001 0.40957 0.0
H246 H 0.95281 0.88377 0.32597 0.0
H247 H 0.75827 0.80075 0.31647 0.0
H248 H 0.80936 0.75504 0.42621 0.0
C249 C 0.78153 0.87272 0.42951 0.0
C250 C 0.91905 0.83884 0.45834 0.0
C251 C 0.83645 0.90702 0.28011 0.0
C252 C 0.88004 0.77678 0.3112 0.0
H253 H 0.87696 0.8567 0.53597 0.0
H254 H 0.79832 0.87082 0.52095 0.0
H255 H 0.71753 0.89977 0.38045 0.0
H256 H 0.74562 0.91571 0.29883 0.0
H257 H 0.83436 0.84909 0.204 0.0
H258 H 0.85708 0.77705 0.22088 0.0
H259 H 0.93842 0.73875 0.35455 0.0
H260 H 0.9644 0.77735 0.43332 0.0
H261 H 0.67662 0.72317 0.319 0.0
H262 H 0.72823 0.67495 0.42912 0.0
H263 H 0.03486 0.96204 0.32575 0.0
H264 H 0.97286 0.02909 0.41169 0.0
C265 C 0.13254 0.87856 0.79566 0.0
C266 C 0.10884 0.86032 0.83512 0.0
C267 C 0.06081 0.82072 0.82644 0.0
C268 C 0.05781 0.81676 0.78231 0.0
N269 N 0.10091 0.85152 0.76285 0.0
Co270 Co 0.11257 0.85863 0.69975 0.0
N271 N 0.03844 0.8209 0.68694 0.0
C272 C 0.00167 0.7901 0.71454 0.0
C273 C 0.95371 0.77022 0.69727 0.0
C274 C 0.96089 0.78942 0.6562 0.0
C275 C 0.01311 0.81977 0.6504 0.0
N276 N 0.12429 0.86558 0.63664 0.0
C277 C 0.09211 0.86045 0.60407 0.0
C278 C 0.11616 0.86792 0.5645 0.0
C279 C 0.16494 0.87814 0.57283 0.0
C280 C 0.16803 0.87615 0.61688 0.0
N281 N 0.18667 0.89663 0.7126 0.0
C282 C 0.22398 0.90468 0.68475 0.0
C283 C 0.27172 0.93346 0.70225 0.0
C284 C 0.2638 0.94381 0.74371 0.0
C285 C 0.21142 0.92038 0.74943 0.0
N286 N 0.11383 0.79512 0.69874 0.0
C287 C 0.11272 0.70255 0.69892 0.0
C288 C 0.0859 0.71299 0.66758 0.0
C289 C 0.08722 0.75948 0.66789 0.0
C290 C 0.14065 0.73988 0.72986 0.0
C291 C 0.14051 0.78569 0.72932 0.0
N292 N 0.11116 0.92145 0.70083 0.0
C293 C 0.14627 0.00804 0.67887 0.0
C294 C 0.10921 0.01151 0.70296 0.0
C295 C 0.07311 0.96932 0.72591 0.0
C296 C 0.07453 0.92442 0.72414 0.0
C297 C 0.14681 0.9626 0.67849 0.0
H298 H 0.04599 0.8921 0.74162 0.0
H299 H 0.17606 0.96075 0.66021 0.0
H300 H 0.06614 0.76631 0.64338 0.0
H301 H 0.16181 0.81339 0.75386 0.0
C302 C 0.01314 0.78831 0.75814 0.0
C303 C 0.18614 0.91872 0.79058 0.0
C304 C 0.03776 0.84439 0.60933 0.0
C305 C 0.2129 0.89285 0.64092 0.0
H306 H 0.12467 0.87405 0.8668 0.0
H307 H 0.03099 0.79893 0.84953 0.0
H308 H 0.91767 0.74646 0.71321 0.0
H309 H 0.93096 0.78189 0.63337 0.0
H310 H 0.10005 0.86585 0.53293 0.0
H311 H 0.19505 0.88779 0.5496 0.0
H312 H 0.30802 0.94734 0.68623 0.0
H313 H 0.2933 0.96619 0.76684 0.0
H314 H 0.0632 0.68517 0.64335 0.0
H315 H 0.16273 0.73401 0.75426 0.0
H316 H 0.17492 0.04032 0.66099 0.0
H317 H 0.04366 0.97085 0.74453 0.0
C318 C 0.3603 0.18259 0.21534 0.0
C319 C 0.35902 0.19401 0.17147 0.0
H320 H 0.35421 0.19992 0.28122 0.0
C321 C 0.36028 0.24006 0.16227 0.0
H322 H 0.36559 0.15139 0.22491 0.0
C323 C 0.36384 0.27335 0.19533 0.0
C324 C 0.35888 0.25895 0.23905 0.0
H325 H 0.36084 0.25167 0.12921 0.0
H326 H 0.37205 0.31091 0.18609 0.0
C327 C 0.35659 0.21242 0.24821 0.0
C328 C 0.26953 0.4064 0.52119 0.0
C329 C 0.25982 0.36043 0.5021 0.0
H330 H 0.25005 0.4426 0.57122 0.0
C331 C 0.22381 0.31461 0.52154 0.0
H332 H 0.2975 0.44229 0.50722 0.0
C333 C 0.19722 0.31479 0.55865 0.0
C334 C 0.20652 0.36079 0.57742 0.0
H335 H 0.21581 0.27866 0.50766 0.0
H336 H 0.16912 0.27895 0.57263 0.0
C337 C 0.24277 0.40658 0.55805 0.0
C338 C 0.98125 0.2006 0.89118 0.0
C339 C 0.94363 0.20908 0.9094 0.0
H340 H 0.0371 0.22021 0.84099 0.0
C341 C 0.93262 0.24389 0.88915 0.0
H342 H 0.9902 0.17366 0.90587 0.0
C343 C 0.95959 0.27069 0.85235 0.0
C344 C 0.99722 0.26223 0.83407 0.0
H345 H 0.90314 0.2505 0.9019 0.0
H346 H 0.9512 0.29829 0.83825 0.0
C347 C 0.00795 0.2271 0.85409 0.0
C348 C 0.88316 0.98377 0.17384 0.0
C349 C 0.85776 0.01179 0.17369 0.0
H350 H 0.90036 0.93315 0.20767 0.0
C351 C 0.82994 0.00956 0.21056 0.0
H352 H 0.90626 0.98574 0.14647 0.0
C353 C 0.82682 0.97961 0.24609 0.0
C354 C 0.84708 0.94656 0.2448 0.0
H355 H 0.81019 0.03098 0.21203 0.0
H356 H 0.80872 0.98374 0.27426 0.0
C357 C 0.87857 0.95241 0.20896 0.0
C358 C 0.97118 0.79622 0.55197 0.0
C359 C 0.00691 0.84275 0.57072 0.0
H360 H 0.91473 0.75839 0.50267 0.0
C361 C 0.01465 0.88793 0.55141 0.0
H362 H 0.965 0.76078 0.5656 0.0
C363 C 0.98663 0.88658 0.51475 0.0
C364 C 0.95068 0.84003 0.49618 0.0
H365 H 0.04226 0.92433 0.56487 0.0
H366 H 0.99298 0.92197 0.50086 0.0
C367 C 0.94295 0.79486 0.51555 0.0
C368 C 0.27839 0.96334 0.88605 0.0
C369 C 0.26877 -0.00058 0.90573 0.0
H370 H 0.2594 0.90911 0.83485 0.0
C371 C 0.23316 0.01011 0.88644 0.0
H372 H 0.30583 0.95455 0.90007 0.0
C373 C 0.20691 0.98444 0.84883 0.0
C374 C 0.21619 0.948 0.82939 0.0
H375 H 0.22509 0.03779 0.90087 0.0
H376 H 0.17908 0.99281 0.83502 0.0
C377 C 0.25211 0.93763 0.84858 0.0
C378 C 0.14221 0.12387 0.99373 0.0
C379 C 0.16524 0.12345 0.03277 0.0
H380 H 0.07871 0.12429 0.96357 0.0
C381 C 0.14415 0.12716 0.07185 0.0
H382 H 0.15799 0.12074 0.96332 0.0
C383 C 0.09958 0.1298 0.07201 0.0
C384 C 0.07514 0.12787 0.0331 0.0
H385 H 0.16161 0.12688 0.10225 0.0
H386 H 0.08307 0.13122 0.10258 0.0
C387 C 0.09703 0.12559 0.9939 0.0
C388 C 0.0831 0.07061 0.40894 0.0
C389 C 0.05951 0.04852 0.36965 0.0
H390 H 0.14685 0.13317 0.43986 0.0
C391 C 0.0829 0.07198 0.33075 0.0
H392 H 0.06565 0.0527 0.43924 0.0
C393 C 0.12872 0.1178 0.33112 0.0
C394 C 0.152 0.14022 0.37038 0.0
H395 H 0.06511 0.05549 0.30014 0.0
H396 H 0.14582 0.13599 0.30081 0.0
C397 C 0.12942 0.11609 0.4093 0.0
C398 C 0.10511 0.12716 0.6664 0.0
C399 C 0.10418 0.14887 0.706 0.0
H400 H 0.10793 0.06614 0.63458 0.0
C401 C 0.10525 0.12553 0.74462 0.0
H402 H 0.10468 0.14502 0.63631 0.0
C403 C 0.10674 0.08053 0.74363 0.0
C404 C 0.10792 0.05897 0.70402 0.0
H405 H 0.10438 0.14182 0.77544 0.0
H406 H 0.10742 0.0628 0.77371 0.0
C407 C 0.10733 0.08257 0.66541 0.0
C408 C 0.64305 0.13346 0.05064 0.0
C409 C 0.64751 0.08969 0.04901 0.0
H410 H 0.59256 0.16373 0.05365 0.0
C411 C 0.60311 0.04174 0.04875 0.0
H412 H 0.67677 0.17081 0.05101 0.0
C413 C 0.55498 0.03771 0.04943 0.0
C414 C 0.5506 0.08153 0.0515 0.0
H415 H 0.60569 0.00748 0.04733 0.0
H416 H 0.52121 0.00042 0.04877 0.0
C417 C 0.59504 0.1294 0.05235 0.0
C418 C 0.64305 0.59838 0.37335 0.0
C419 C 0.64597 0.64586 0.37583 0.0
H420 H 0.59414 0.51767 0.36866 0.0
C421 C 0.60084 0.64821 0.37724 0.0
H422 H 0.67741 0.59579 0.37195 0.0
C423 C 0.55346 0.60376 0.37594 0.0
C424 C 0.55048 0.55633 0.37227 0.0
H425 H 0.60231 0.68451 0.3792 0.0
H426 H 0.51914 0.60647 0.37681 0.0
C427 C 0.59562 0.55394 0.37114 0.0
C428 C 0.11029 0.62835 0.66095 0.0
C429 C 0.11108 0.65286 0.6996 0.0
H430 H 0.10645 0.56316 0.63119 0.0
C431 C 0.10977 0.62928 0.73891 0.0
H432 H 0.1119 0.64564 0.63007 0.0
C433 C 0.10796 0.58248 0.73956 0.0
C434 C 0.10686 0.55783 0.70092 0.0
H435 H 0.10959 0.64666 0.76931 0.0
H436 H 0.10791 0.56591 0.77045 0.0
C437 C 0.10792 0.5813 0.6616 0.0
loop_
_geom_bond_atom_site_label_1
_geom_bond_atom_site_label_2
_geom_bond_distance
_geom_bond_site_symmetry_2
_ccdc_geom_bond_type
C0 C1 1.443 . S
C0 N4 1.376 . S
C0 C38 1.389 . S
C1 C0 1.443 . S
C1 C2 1.340 . S
C1 H41 0.951 . S
C2 C1 1.340 . S
C2 C3 1.439 . S
C2 H42 0.950 . S
C3 C2 1.439 . S
C3 N4 1.374 . S
C3 C37 1.395 . S
N4 C0 1.376 . S
N4 C3 1.374 . S
N4 Co5 2.008 . S
Co5 N4 2.008 . S
Co5 N6 1.995 . S
Co5 N11 2.008 1_554 S
Co5 N16 1.995 . S
Co5 N21 2.282 . S
Co5 N27 2.282 . S
N6 Co5 1.995 . S
N6 C7 1.376 . S
N6 C10 1.383 1_554 S
C7 N6 1.376 . S
C7 C8 1.446 . S
C7 C37 1.391 . S
C8 C7 1.446 . S
C8 C9 1.339 1_554 S
C8 H43 0.949 1_545 S
C9 C8 1.339 1_556 S
C9 C10 1.439 . S
C9 H44 0.950 . S
C10 N6 1.383 1_556 S
C10 C9 1.439 . S
C10 C39 1.392 . S
N11 Co5 2.008 1_556 S
N11 C12 1.376 . S
N11 C15 1.374 . S
C12 N11 1.376 . S
C12 C13 1.443 . S
C12 C39 1.389 . S
C13 C12 1.443 . S
C13 C14 1.340 . S
C13 H45 0.951 . S
C14 C13 1.340 . S
C14 C15 1.439 . S
C14 H46 0.950 . S
C15 N11 1.374 . S
C15 C14 1.439 . S
C15 C40 1.395 . S
N16 Co5 1.995 . S
N16 C17 1.376 . S
N16 C20 1.383 . S
C17 N16 1.376 . S
C17 C18 1.446 . S
C17 C40 1.391 1_554 S
C18 C17 1.446 . S
C18 C19 1.339 . S
C18 H47 0.949 . S
C19 C18 1.339 . S
C19 C20 1.439 . S
C19 H48 0.950 . S
C20 N16 1.383 . S
C20 C19 1.439 . S
C20 C38 1.392 . S
N21 Co5 2.282 . S
N21 C24 1.332 . S
N21 C26 1.332 . S
C22 C23 1.386 . S
C22 C25 1.388 . S
C23 C22 1.386 . S
C23 C24 1.382 . S
C23 H49 0.950 . S
C24 N21 1.332 . S
C24 C23 1.382 . S
C24 H35 0.952 . S
C25 C22 1.388 . S
C25 C26 1.382 . S
C25 H50 0.950 . S
C26 N21 1.332 . S
C26 C25 1.382 . S
C26 H36 0.948 . S
N27 Co5 2.282 . S
N27 C31 1.332 . S
N27 C32 1.332 . S
C28 C29 1.388 . S
C28 C32 1.382 . S
C28 H51 0.950 . S
C29 C28 1.388 . S
C29 C30 1.386 . S
C30 C29 1.386 . S
C30 C31 1.382 . S
C30 H52 0.950 . S
C31 N27 1.332 . S
C31 C30 1.382 . S
C31 H33 0.952 . S
C32 N27 1.332 . S
C32 C28 1.382 . S
C32 H34 0.948 . S
H33 C31 0.952 . S
H34 C32 0.948 . S
H35 C24 0.952 . S
H36 C26 0.948 . S
C37 C3 1.395 . S
C37 C7 1.391 . S
C38 C0 1.389 . S
C38 C20 1.392 . S
C39 C10 1.392 . S
C39 C12 1.389 . S
C40 C15 1.395 . S
C40 C17 1.391 1_556 S
H41 C1 0.951 . S
H42 C2 0.950 . S
H43 C8 0.949 1_565 S
H44 C9 0.950 . S
H45 C13 0.951 . S
H46 C14 0.950 . S
H47 C18 0.949 . S
H48 C19 0.950 . S
H49 C23 0.950 . S
H50 C25 0.950 . S
H51 C28 0.950 . S
H52 C30 0.950 . S
C53 C54 1.443 . S
C53 N57 1.376 . S
C53 C91 1.389 . S
C54 C53 1.443 . S
C54 C55 1.340 . S
C54 H94 0.951 . S
C55 C54 1.340 . S
C55 C56 1.439 . S
C55 H95 0.950 . S
C56 C55 1.439 . S
C56 N57 1.374 . S
C56 C90 1.395 . S
N57 C53 1.376 . S
N57 C56 1.374 . S
N57 Co58 2.008 . S
Co58 N57 2.008 . S
Co58 N59 1.995 . S
Co58 N64 2.008 . S
Co58 N69 1.995 . S
Co58 N74 2.282 . S
Co58 N80 2.282 . S
N59 Co58 1.995 . S
N59 C60 1.376 . S
N59 C63 1.383 . S
C60 N59 1.376 . S
C60 C61 1.446 . S
C60 C90 1.391 . S
C61 C60 1.446 . S
C61 C62 1.339 . S
C61 H96 0.949 . S
C62 C61 1.339 . S
C62 C63 1.439 . S
C62 H97 0.950 . S
C63 N59 1.383 . S
C63 C62 1.439 . S
C63 C92 1.392 . S
N64 Co58 2.008 . S
N64 C65 1.376 . S
N64 C68 1.374 . S
C65 N64 1.376 . S
C65 C66 1.443 . S
C65 C92 1.389 . S
C66 C65 1.443 . S
C66 C67 1.340 . S
C66 H98 0.951 . S
C67 C66 1.340 . S
C67 C68 1.439 . S
C67 H99 0.950 . S
C68 N64 1.374 . S
C68 C67 1.439 . S
C68 C93 1.395 . S
N69 Co58 1.995 . S
N69 C70 1.376 . S
N69 C73 1.383 . S
C70 N69 1.376 . S
C70 C71 1.446 . S
C70 C93 1.391 . S
C71 C70 1.446 . S
C71 C72 1.339 . S
C71 H100 0.949 . S
C72 C71 1.339 . S
C72 C73 1.439 . S
C72 H101 0.950 . S
C73 N69 1.383 . S
C73 C72 1.439 . S
C73 C91 1.392 . S
N74 Co58 2.282 . S
N74 C77 1.332 . S
N74 C79 1.332 . S
C75 C76 1.386 . S
C75 C78 1.388 . S
C76 C75 1.386 . S
C76 C77 1.382 . S
C76 H102 0.950 . S
C77 N74 1.332 . S
C77 C76 1.382 . S
C77 H88 0.952 . S
C78 C75 1.388 . S
C78 C79 1.382 . S
C78 H103 0.950 . S
C79 N74 1.332 . S
C79 C78 1.382 . S
C79 H89 0.948 . S
N80 Co58 2.282 . S
N80 C84 1.332 . S
N80 C85 1.332 . S
C81 C82 1.388 . S
C81 C85 1.382 . S
C81 H104 0.950 . S
C82 C81 1.388 . S
C82 C83 1.386 . S
C83 C82 1.386 . S
C83 C84 1.382 . S
C83 H105 0.950 . S
C84 N80 1.332 . S
C84 C83 1.382 . S
C84 H86 0.952 . S
C85 N80 1.332 . S
C85 C81 1.382 . S
C85 H87 0.948 . S
H86 C84 0.952 . S
H87 C85 0.948 . S
H88 C77 0.952 . S
H89 C79 0.948 . S
C90 C56 1.395 . S
C90 C60 1.391 . S
C91 C53 1.389 . S
C91 C73 1.392 . S
C92 C63 1.392 . S
C92 C65 1.389 . S
C93 C68 1.395 . S
C93 C70 1.391 . S
H94 C54 0.951 . S
H95 C55 0.950 . S
H96 C61 0.949 . S
H97 C62 0.950 . S
H98 C66 0.951 . S
H99 C67 0.950 . S
H100 C71 0.949 . S
H101 C72 0.950 . S
H102 C76 0.950 . S
H103 C78 0.950 . S
H104 C81 0.950 . S
H105 C83 0.950 . S
C106 C107 1.443 . S
C106 N110 1.376 . S
C106 C144 1.389 1_455 S
C107 C106 1.443 . S
C107 C108 1.340 . S
C107 H147 0.951 . S
C108 C107 1.340 . S
C108 C109 1.439 . S
C108 H148 0.950 . S
C109 C108 1.439 . S
C109 N110 1.374 . S
C109 C143 1.395 . S
N110 C106 1.376 . S
N110 C109 1.374 . S
N110 Co111 2.008 . S
Co111 N110 2.008 . S
Co111 N112 1.995 . S
Co111 N117 2.008 . S
Co111 N122 1.995 1_455 S
Co111 N127 2.282 . S
Co111 N133 2.282 . S
N112 Co111 1.995 . S
N112 C113 1.376 . S
N112 C116 1.383 . S
C113 N112 1.376 . S
C113 C114 1.446 . S
C113 C143 1.391 . S
C114 C113 1.446 . S
C114 C115 1.339 . S
C114 H149 0.949 . S
C115 C114 1.339 . S
C115 C116 1.439 . S
C115 H150 0.950 . S
C116 N112 1.383 . S
C116 C115 1.439 . S
C116 C145 1.392 . S
N117 Co111 2.008 . S
N117 C118 1.376 . S
N117 C121 1.374 1_455 S
C118 N117 1.376 . S
C118 C119 1.443 . S
C118 C145 1.389 . S
C119 C118 1.443 . S
C119 C120 1.340 1_455 S
C119 H151 0.951 . S
C120 C119 1.340 1_655 S
C120 C121 1.439 . S
C120 H152 0.950 . S
C121 N117 1.374 1_655 S
C121 C120 1.439 . S
C121 C146 1.395 . S
N122 Co111 1.995 1_655 S
N122 C123 1.376 . S
N122 C126 1.383 . S
C123 N122 1.376 . S
C123 C124 1.446 . S
C123 C146 1.391 . S
C124 C123 1.446 . S
C124 C125 1.339 . S
C124 H153 0.949 . S
C125 C124 1.339 . S
C125 C126 1.439 . S
C125 H154 0.950 . S
C126 N122 1.383 . S
C126 C125 1.439 . S
C126 C144 1.392 . S
N127 Co111 2.282 . S
N127 C130 1.332 1_455 S
N127 C132 1.332 . S
C128 C129 1.386 1_455 S
C128 C131 1.388 . S
C129 C128 1.386 1_655 S
C129 C130 1.382 . S
C129 H155 0.950 . S
C130 N127 1.332 1_655 S
C130 C129 1.382 . S
C130 H141 0.952 . S
C131 C128 1.388 . S
C131 C132 1.382 . S
C131 H156 0.950 . S
C132 N127 1.332 . S
C132 C131 1.382 . S
C132 H142 0.948 . S
N133 Co111 2.282 . S
N133 C137 1.332 . S
N133 C138 1.332 1_455 S
C134 C135 1.388 1_655 S
C134 C138 1.382 . S
C134 H157 0.950 . S
C135 C134 1.388 1_455 S
C135 C136 1.386 . S
C136 C135 1.386 . S
C136 C137 1.382 . S
C136 H158 0.950 . S
C137 N133 1.332 . S
C137 C136 1.382 . S
C137 H139 0.952 . S
C138 N133 1.332 1_655 S
C138 C134 1.382 . S
C138 H140 0.948 . S
H139 C137 0.952 . S
H140 C138 0.948 . S
H141 C130 0.952 . S
H142 C132 0.948 . S
C143 C109 1.395 . S
C143 C113 1.391 . S
C144 C106 1.389 1_655 S
C144 C126 1.392 . S
C145 C116 1.392 . S
C145 C118 1.389 . S
C146 C121 1.395 . S
C146 C123 1.391 . S
H147 C107 0.951 . S
H148 C108 0.950 . S
H149 C114 0.949 . S
H150 C115 0.950 . S
H151 C119 0.951 . S
H152 C120 0.950 . S
H153 C124 0.949 . S
H154 C125 0.950 . S
H155 C129 0.950 . S
H156 C131 0.950 . S
H157 C134 0.950 . S
H158 C136 0.950 . S
C159 C160 1.443 . S
C159 N163 1.376 . S
C159 C197 1.389 1_545 S
C160 C159 1.443 . S
C160 C161 1.340 . S
C160 H200 0.951 . S
C161 C160 1.340 . S
C161 C162 1.439 . S
C161 H201 0.950 . S
C162 C161 1.439 . S
C162 N163 1.374 . S
C162 C196 1.395 . S
N163 C159 1.376 . S
N163 C162 1.374 . S
N163 Co164 2.008 . S
Co164 N163 2.008 . S
Co164 N165 1.995 . S
Co164 N170 2.008 1_554 S
Co164 N175 1.995 1_545 S
Co164 N180 2.282 . S
Co164 N186 2.282 . S
N165 Co164 1.995 . S
N165 C166 1.376 . S
N165 C169 1.383 1_554 S
C166 N165 1.376 . S
C166 C167 1.446 . S
C166 C196 1.391 . S
C167 C166 1.446 . S
C167 C168 1.339 1_554 S
C167 H202 0.949 . S
C168 C167 1.339 1_556 S
C168 C169 1.439 . S
C168 H203 0.950 . S
C169 N165 1.383 1_556 S
C169 C168 1.439 . S
C169 C198 1.392 . S
N170 Co164 2.008 1_556 S
N170 C171 1.376 . S
N170 C174 1.374 1_545 S
C171 N170 1.376 . S
C171 C172 1.443 . S
C171 C198 1.389 . S
C172 C171 1.443 . S
C172 C173 1.340 1_545 S
C172 H204 0.951 . S
C173 C172 1.340 1_565 S
C173 C174 1.439 . S
C173 H205 0.950 . S
C174 N170 1.374 1_565 S
C174 C173 1.439 . S
C174 C199 1.395 . S
N175 Co164 1.995 1_565 S
N175 C176 1.376 . S
N175 C179 1.383 . S
C176 N175 1.376 . S
C176 C177 1.446 . S
C176 C199 1.391 1_554 S
C177 C176 1.446 . S
C177 C178 1.339 . S
C177 H206 0.949 . S
C178 C177 1.339 . S
C178 C179 1.439 . S
C178 H207 0.950 . S
C179 N175 1.383 . S
C179 C178 1.439 . S
C179 C197 1.392 . S
N180 Co164 2.282 . S
N180 C183 1.332 1_545 S
N180 C185 1.332 . S
C181 C182 1.386 1_545 S
C181 C184 1.388 . S
C182 C181 1.386 1_565 S
C182 C183 1.382 . S
C182 H208 0.950 . S
C183 N180 1.332 1_565 S
C183 C182 1.382 . S
C183 H194 0.952 . S
C184 C181 1.388 . S
C184 C185 1.382 . S
C184 H209 0.950 . S
C185 N180 1.332 . S
C185 C184 1.382 . S
C185 H195 0.948 . S
N186 Co164 2.282 . S
N186 C190 1.332 . S
N186 C191 1.332 1_545 S
C187 C188 1.388 1_565 S
C187 C191 1.382 . S
C187 H210 0.950 . S
C188 C187 1.388 1_545 S
C188 C189 1.386 . S
C189 C188 1.386 . S
C189 C190 1.382 . S
C189 H211 0.950 1_655 S
C190 N186 1.332 . S
C190 C189 1.382 . S
C190 H192 0.952 . S
C191 N186 1.332 1_565 S
C191 C187 1.382 . S
C191 H193 0.948 . S
H192 C190 0.952 . S
H193 C191 0.948 . S
H194 C183 0.952 . S
H195 C185 0.948 . S
C196 C162 1.395 . S
C196 C166 1.391 . S
C197 C159 1.389 1_565 S
C197 C179 1.392 . S
C198 C169 1.392 . S
C198 C171 1.389 . S
C199 C174 1.395 . S
C199 C176 1.391 1_556 S
H200 C160 0.951 . S
H201 C161 0.950 . S
H202 C167 0.949 . S
H203 C168 0.950 . S
H204 C172 0.951 . S
H205 C173 0.950 . S
H206 C177 0.949 . S
H207 C178 0.950 . S
H208 C182 0.950 . S
H209 C184 0.950 . S
H210 C187 0.950 . S
H211 C189 0.950 1_455 S
C212 C213 1.443 . S
C212 N216 1.376 . S
C212 C250 1.389 . S
C213 C212 1.443 . S
C213 C214 1.340 . S
C213 H253 0.951 . S
C214 C213 1.340 . S
C214 C215 1.439 . S
C214 H254 0.950 . S
C215 C214 1.439 . S
C215 N216 1.374 . S
C215 C249 1.395 . S
N216 C212 1.376 . S
N216 C215 1.374 . S
N216 Co217 2.008 . S
Co217 N216 2.008 . S
Co217 N218 1.995 . S
Co217 N223 2.008 . S
Co217 N228 1.995 . S
Co217 N233 2.282 . S
Co217 N239 2.282 . S
N218 Co217 1.995 . S
N218 C219 1.376 . S
N218 C222 1.383 . S
C219 N218 1.376 . S
C219 C220 1.446 . S
C219 C249 1.391 . S
C220 C219 1.446 . S
C220 C221 1.339 . S
C220 H255 0.949 . S
C221 C220 1.339 . S
C221 C222 1.439 . S
C221 H256 0.950 . S
C222 N218 1.383 . S
C222 C221 1.439 . S
C222 C251 1.392 . S
N223 Co217 2.008 . S
N223 C224 1.376 . S
N223 C227 1.374 . S
C224 N223 1.376 . S
C224 C225 1.443 . S
C224 C251 1.389 . S
C225 C224 1.443 . S
C225 C226 1.340 . S
C225 H257 0.951 . S
C226 C225 1.340 . S
C226 C227 1.439 . S
C226 H258 0.950 . S
C227 N223 1.374 . S
C227 C226 1.439 . S
C227 C252 1.395 . S
N228 Co217 1.995 . S
N228 C229 1.376 . S
N228 C232 1.383 . S
C229 N228 1.376 . S
C229 C230 1.446 . S
C229 C252 1.391 . S
C230 C229 1.446 . S
C230 C231 1.339 . S
C230 H259 0.949 1_655 S
C231 C230 1.339 . S
C231 C232 1.439 . S
C231 H260 0.950 1_655 S
C232 N228 1.383 . S
C232 C231 1.439 . S
C232 C250 1.392 . S
N233 Co217 2.282 . S
N233 C236 1.332 . S
N233 C238 1.332 . S
C234 C235 1.386 . S
C234 C237 1.388 . S
C235 C234 1.386 . S
C235 C236 1.382 . S
C235 H261 0.950 . S
C236 N233 1.332 . S
C236 C235 1.382 . S
C236 H247 0.952 . S
C237 C234 1.388 . S
C237 C238 1.382 . S
C237 H262 0.950 . S
C238 N233 1.332 . S
C238 C237 1.382 . S
C238 H248 0.948 . S
N239 Co217 2.282 . S
N239 C243 1.332 . S
N239 C244 1.332 1_655 S
C240 C241 1.388 . S
C240 C244 1.382 . S
C240 H263 0.950 . S
C241 C240 1.388 . S
C241 C242 1.386 . S
C242 C241 1.386 . S
C242 C243 1.382 1_455 S
C242 H264 0.950 1_565 S
C243 N239 1.332 . S
C243 C242 1.382 1_655 S
C243 H245 0.952 . S
C244 N239 1.332 1_455 S
C244 C240 1.382 . S
C244 H246 0.948 . S
H245 C243 0.952 . S
H246 C244 0.948 . S
H247 C236 0.952 . S
H248 C238 0.948 . S
C249 C215 1.395 . S
C249 C219 1.391 . S
C250 C212 1.389 . S
C250 C232 1.392 . S
C251 C222 1.392 . S
C251 C224 1.389 . S
C252 C227 1.395 . S
C252 C229 1.391 . S
H253 C213 0.951 . S
H254 C214 0.950 . S
H255 C220 0.949 . S
H256 C221 0.950 . S
H257 C225 0.951 . S
H258 C226 0.950 . S
H259 C230 0.949 1_455 S
H260 C231 0.950 1_455 S
H261 C235 0.950 . S
H262 C237 0.950 . S
H263 C240 0.950 . S
H264 C242 0.950 1_545 S
C265 C266 1.443 . S
C265 N269 1.376 . S
C265 C303 1.389 . S
C266 C265 1.443 . S
C266 C267 1.340 . S
C266 H306 0.951 . S
C267 C266 1.340 . S
C267 C268 1.439 . S
C267 H307 0.950 . S
C268 C267 1.439 . S
C268 N269 1.374 . S
C268 C302 1.395 . S
N269 C265 1.376 . S
N269 C268 1.374 . S
N269 Co270 2.008 . S
Co270 N269 2.008 . S
Co270 N271 1.995 . S
Co270 N276 2.008 . S
Co270 N281 1.995 . S
Co270 N286 2.282 . S
Co270 N292 2.282 . S
N271 Co270 1.995 . S
N271 C272 1.376 . S
N271 C275 1.383 . S
C272 N271 1.376 . S
C272 C273 1.446 . S
C272 C302 1.391 . S
C273 C272 1.446 . S
C273 C274 1.339 . S
C273 H308 0.949 1_455 S
C274 C273 1.339 . S
C274 C275 1.439 . S
C274 H309 0.950 . S
C275 N271 1.383 . S
C275 C274 1.439 . S
C275 C304 1.392 . S
N276 Co270 2.008 . S
N276 C277 1.376 . S
N276 C280 1.374 . S
C277 N276 1.376 . S
C277 C278 1.443 . S
C277 C304 1.389 . S
C278 C277 1.443 . S
C278 C279 1.340 . S
C278 H310 0.951 . S
C279 C278 1.340 . S
C279 C280 1.439 . S
C279 H311 0.950 . S
C280 N276 1.374 . S
C280 C279 1.439 . S
C280 C305 1.395 . S
N281 Co270 1.995 . S
N281 C282 1.376 . S
N281 C285 1.383 . S
C282 N281 1.376 . S
C282 C283 1.446 . S
C282 C305 1.391 . S
C283 C282 1.446 . S
C283 C284 1.339 . S
C283 H312 0.949 1_565 S
C284 C283 1.339 . S
C284 C285 1.439 . S
C284 H313 0.950 1_565 S
C285 N281 1.383 . S
C285 C284 1.439 . S
C285 C303 1.392 . S
N286 Co270 2.282 . S
N286 C289 1.332 . S
N286 C291 1.332 . S
C287 C288 1.386 . S
C287 C290 1.388 . S
C288 C287 1.386 . S
C288 C289 1.382 . S
C288 H314 0.950 . S
C289 N286 1.332 . S
C289 C288 1.382 . S
C289 H300 0.952 . S
C290 C287 1.388 . S
C290 C291 1.382 . S
C290 H315 0.950 . S
C291 N286 1.332 . S
C291 C290 1.382 . S
C291 H301 0.948 . S
N292 Co270 2.282 . S
N292 C296 1.332 . S
N292 C297 1.332 1_565 S
C293 C294 1.388 . S
C293 C297 1.382 . S
C293 H316 0.950 . S
C294 C293 1.388 . S
C294 C295 1.386 . S
C295 C294 1.386 . S
C295 C296 1.382 1_545 S
C295 H317 0.950 . S
C296 N292 1.332 . S
C296 C295 1.382 1_565 S
C296 H298 0.952 . S
C297 N292 1.332 1_545 S
C297 C293 1.382 . S
C297 H299 0.948 . S
H298 C296 0.952 . S
H299 C297 0.948 . S
H300 C289 0.952 . S
H301 C291 0.948 . S
C302 C268 1.395 . S
C302 C272 1.391 . S
C303 C265 1.389 . S
C303 C285 1.392 . S
C304 C275 1.392 . S
C304 C277 1.389 . S
C305 C280 1.395 . S
C305 C282 1.391 . S
H306 C266 0.951 . S
H307 C267 0.950 . S
H308 C273 0.949 1_655 S
H309 C274 0.950 . S
H310 C278 0.951 . S
H311 C279 0.950 . S
H312 C283 0.949 1_545 S
H313 C284 0.950 1_545 S
H314 C288 0.950 . S
H315 C290 0.950 . S
H316 C293 0.950 . S
H317 C295 0.950 . S
C318 C319 1.387 . S
C318 H322 0.950 . S
C318 C327 1.390 . S
C319 C318 1.387 . S
C319 C321 1.387 . S
H320 C327 0.950 . S
C321 C319 1.387 . S
C321 C323 1.390 . S
C321 H325 0.950 . S
H322 C318 0.950 . S
C323 C321 1.390 . S
C323 C324 1.387 . S
C323 H326 0.950 . S
C324 C323 1.387 . S
C324 C327 1.387 . S
H325 C321 0.950 . S
H326 C323 0.950 . S
C327 C318 1.390 . S
C327 H320 0.950 . S
C327 C324 1.387 . S
C328 C329 1.387 . S
C328 H332 0.950 . S
C328 C337 1.390 . S
C329 C328 1.387 . S
C329 C331 1.387 . S
H330 C337 0.950 . S
C331 C329 1.387 . S
C331 C333 1.390 . S
C331 H335 0.950 . S
H332 C328 0.950 . S
C333 C331 1.390 . S
C333 C334 1.387 . S
C333 H336 0.950 . S
C334 C333 1.387 . S
C334 C337 1.387 . S
H335 C331 0.950 . S
H336 C333 0.950 . S
C337 C328 1.390 . S
C337 H330 0.950 . S
C337 C334 1.387 . S
C338 C339 1.387 . S
C338 H342 0.950 . S
C338 C347 1.390 . S
C339 C338 1.387 . S
C339 C341 1.387 . S
H340 C347 0.950 . S
C341 C339 1.387 . S
C341 C343 1.390 . S
C341 H345 0.950 . S
H342 C338 0.950 . S
C343 C341 1.390 . S
C343 C344 1.387 . S
C343 H346 0.950 . S
C344 C343 1.387 . S
C344 C347 1.387 . S
H345 C341 0.950 . S
H346 C343 0.950 . S
C347 C338 1.390 . S
C347 H340 0.950 . S
C347 C344 1.387 . S
C348 C349 1.387 . S
C348 H352 0.950 . S
C348 C357 1.390 . S
C349 C348 1.387 . S
C349 C351 1.387 . S
H350 C357 0.950 . S
C351 C349 1.387 . S
C351 C353 1.390 . S
C351 H355 0.950 . S
H352 C348 0.950 . S
C353 C351 1.390 . S
C353 C354 1.387 . S
C353 H356 0.950 . S
C354 C353 1.387 . S
C354 C357 1.387 . S
H355 C351 0.950 . S
H356 C353 0.950 . S
C357 C348 1.390 . S
C357 H350 0.950 . S
C357 C354 1.387 . S
C358 C359 1.387 . S
C358 H362 0.950 . S
C358 C367 1.390 1_455 S
C359 C358 1.387 . S
C359 C361 1.387 . S
H360 C367 0.950 . S
C361 C359 1.387 . S
C361 C363 1.390 . S
C361 H365 0.950 . S
H362 C358 0.950 . S
C363 C361 1.390 . S
C363 C364 1.394 . S
C363 H366 0.950 . S
C364 C363 1.394 . S
C364 C367 1.396 1_455 S
H365 C361 0.950 . S
H366 C363 0.950 . S
C367 C358 1.390 1_655 S
C367 H360 0.950 . S
C367 C364 1.396 1_655 S
C368 C369 1.387 . S
C368 H372 0.950 . S
C368 C377 1.390 1_545 S
C369 C368 1.387 . S
C369 C371 1.387 . S
H370 C377 0.950 . S
C371 C369 1.387 . S
C371 C373 1.390 . S
C371 H375 0.950 . S
H372 C368 0.950 . S
C373 C371 1.390 . S
C373 C374 1.387 1_545 S
C373 H376 0.950 . S
C374 C373 1.387 1_565 S
C374 C377 1.387 . S
H375 C371 0.950 . S
H376 C373 0.950 . S
C377 C368 1.390 1_565 S
C377 H370 0.950 . S
C377 C374 1.387 . S
C378 C379 1.387 . S
C378 H382 0.950 1_554 S
C378 C387 1.390 . S
C379 C378 1.387 . S
C379 C381 1.387 . S
H380 C387 0.950 1_556 S
C381 C379 1.387 . S
C381 C383 1.390 . S
C381 H385 0.950 . S
H382 C378 0.950 1_556 S
C383 C381 1.390 . S
C383 C384 1.387 . S
C383 H386 0.950 . S
C384 C383 1.387 . S
C384 C387 1.387 . S
H385 C381 0.950 . S
H386 C383 0.950 . S
C387 C378 1.390 . S
C387 H380 0.950 1_554 S
C387 C384 1.387 . S
C388 C389 1.387 . S
C388 H392 0.950 . S
C388 C397 1.390 . S
C389 C388 1.387 . S
C389 C391 1.387 . S
H390 C397 0.950 . S
C391 C389 1.387 . S
C391 C393 1.390 . S
C391 H395 0.950 . S
H392 C388 0.950 . S
C393 C391 1.390 . S
C393 C394 1.387 . S
C393 H396 0.950 . S
C394 C393 1.387 . S
C394 C397 1.387 . S
H395 C391 0.950 . S
H396 C393 0.950 . S
C397 C388 1.390 . S
C397 H390 0.950 . S
C397 C394 1.387 . S
C398 C399 1.387 . S
C398 H402 0.950 . S
C398 C407 1.390 . S
C399 C398 1.387 . S
C399 C401 1.387 . S
H400 C407 0.950 . S
C401 C399 1.387 . S
C401 C403 1.390 . S
C401 H405 0.950 . S
H402 C398 0.950 . S
C403 C401 1.390 . S
C403 C404 1.387 . S
C403 H406 0.950 . S
C404 C403 1.387 . S
C404 C407 1.387 . S
H405 C401 0.950 . S
H406 C403 0.950 . S
C407 C398 1.390 . S
C407 H400 0.950 . S
C407 C404 1.387 . S
C408 C409 1.387 . S
C408 H412 0.950 . S
C408 C417 1.390 . S
C409 C408 1.387 . S
C409 C411 1.387 1_554 S
H410 C417 0.950 . S
C411 C409 1.387 1_556 S
C411 C413 1.390 . S
C411 H415 0.950 . S
H412 C408 0.950 . S
C413 C411 1.390 . S
C413 C414 1.387 1_556 S
C413 H416 0.950 . S
C414 C413 1.387 1_554 S
C414 C417 1.387 . S
H415 C411 0.950 . S
H416 C413 0.950 . S
C417 C408 1.390 . S
C417 H410 0.950 . S
C417 C414 1.387 . S
C418 C419 1.387 . S
C418 H422 0.950 . S
C418 C427 1.390 . S
C419 C418 1.387 . S
C419 C421 1.387 . S
H420 C427 0.950 . S
C421 C419 1.387 . S
C421 C423 1.390 . S
C421 H425 0.950 . S
H422 C418 0.950 . S
C423 C421 1.390 . S
C423 C424 1.387 . S
C423 H426 0.950 . S
C424 C423 1.387 . S
C424 C427 1.387 . S
H425 C421 0.950 . S
H426 C423 0.950 . S
C427 C418 1.390 . S
C427 H420 0.950 . S
C427 C424 1.387 . S
C428 C429 1.387 . S
C428 H432 0.950 . S
C428 C437 1.390 . S
C429 C428 1.387 . S
C429 C431 1.387 . S
H430 C437 0.950 . S
C431 C429 1.387 . S
C431 C433 1.390 . S
C431 H435 0.950 . S
H432 C428 0.950 . S
C433 C431 1.390 . S
C433 C434 1.387 . S
C433 H436 0.950 . S
C434 C433 1.387 . S
C434 C437 1.387 . S
H435 C431 0.950 . S
H436 C433 0.950 . S
C437 C428 1.390 . S
C437 H430 0.950 . S
C437 C434 1.387 . S
C319 C38 1.930 . S
C324 C92 1.858 . S
C329 C91 1.931 . S
C334 C145 1.858 . S
C339 C198 1.857 . S
C344 C144 1.930 . S
C349 C197 1.931 . S
C354 C251 1.856 . S
C359 C304 1.858 . S
C364 C250 1.918 1_455 S
C369 C39 1.858 . S
C374 C303 1.931 . S
C379 C29 1.767 . S
C384 C188 1.767 1_455 S
C389 C241 1.763 1_545 S
C394 C82 1.763 . S
C399 C135 1.767 . S
C404 C294 1.767 . S
C409 C181 1.934 . S
C414 C22 1.934 . S
C419 C234 1.934 . S
C424 C75 1.934 . S
C429 C287 1.931 . S
C434 C128 1.931 . S
