# Generated by pormake.
# Topology zfs, (5)-cn, num edge types: 1
# Building blocks:
#     Node 0, Type 0, BuildingBlock: XOMCOT_clean_sbu_1, # of connection points: 5
#     Node 1, Type 0, BuildingBlock: XOMCOT_clean_sbu_1, # of connection points: 5
#     Node 2, Type 0, BuildingBlock: XOMCOT_clean_sbu_1, # of connection points: 5
#     Node 3, Type 0, BuildingBlock: XOMCOT_clean_sbu_1, # of connection points: 5
#     Node 4, Type 0, BuildingBlock: XOMCOT_clean_sbu_1, # of connection points: 5
#     Node 5, Type 0, BuildingBlock: XOMCOT_clean_sbu_1, # of connection points: 5
#     Node 6, Type 0, BuildingBlock: XOMCOT_clean_sbu_1, # of connection points: 5
#     Node 7, Type 0, BuildingBlock: XOMCOT_clean_sbu_1, # of connection points: 5
#     Edge 8, Type (0, 0), BuildingBlock: XIVTED_clean_linker_0, # of connection points: 2
#     Edge 9, Type (0, 0), BuildingBlock: XIVTED_clean_linker_0, # of connection points: 2
#     Edge 10, Type (0, 0), BuildingBlock: XIVTED_clean_linker_0, # of connection points: 2
#     Edge 11, Type (0, 0), BuildingBlock: XIVTED_clean_linker_0, # of connection points: 2
#     Edge 12, Type (0, 0), BuildingBlock: XIVTED_clean_linker_0, # of connection points: 2
#     Edge 13, Type (0, 0), BuildingBlock: XIVTED_clean_linker_0, # of connection points: 2
#     Edge 14, Type (0, 0), BuildingBlock: XIVTED_clean_linker_0, # of connection points: 2
#     Edge 15, Type (0, 0), BuildingBlock: XIVTED_clean_linker_0, # of connection points: 2
#     Edge 16, Type (0, 0), BuildingBlock: XIVTED_clean_linker_0, # of connection points: 2
#     Edge 17, Type (0, 0), BuildingBlock: XIVTED_clean_linker_0, # of connection points: 2
#     Edge 18, Type (0, 0), BuildingBlock: XIVTED_clean_linker_0, # of connection points: 2
#     Edge 19, Type (0, 0), BuildingBlock: XIVTED_clean_linker_0, # of connection points: 2
#     Edge 20, Type (0, 0), BuildingBlock: XIVTED_clean_linker_0, # of connection points: 2
#     Edge 21, Type (0, 0), BuildingBlock: XIVTED_clean_linker_0, # of connection points: 2
#     Edge 22, Type (0, 0), BuildingBlock: XIVTED_clean_linker_0, # of connection points: 2
#     Edge 23, Type (0, 0), BuildingBlock: XIVTED_clean_linker_0, # of connection points: 2
#     Edge 24, Type (0, 0), BuildingBlock: XIVTED_clean_linker_0, # of connection points: 2
#     Edge 25, Type (0, 0), BuildingBlock: XIVTED_clean_linker_0, # of connection points: 2
#     Edge 26, Type (0, 0), BuildingBlock: XIVTED_clean_linker_0, # of connection points: 2
#     Edge 27, Type (0, 0), BuildingBlock: XIVTED_clean_linker_0, # of connection points: 2
# Relax obj value: 0.146
# Max RMSD: 0.154
# Mean RMSD: 0.154
data_MOF--net-zfs--node1-XOMCOT_clean_sbu_1--edge1-XIVTED_clean_linker_0
_symmetry_space_group_name_H-M    P1
_symmetry_Int_Tables_number       1
_symmetry_cell_setting            triclinic
loop_
_symmetry_equiv_pos_as_xyz
'x, y, z'
_cell_length_a     34.71301
_cell_length_b     34.801161
_cell_length_c     40.814832
_cell_angle_alpha  89.988898
_cell_angle_beta   89.943354
_cell_angle_gamma 90.069504
loop_
_atom_site_label
_atom_site_type_symbol
_atom_site_fract_x
_atom_site_fract_y
_atom_site_fract_z
_atom_type_partial_charge
C0 C 0.09175 0.27292 0.23192 0.0
C1 C 0.11596 0.26661 0.25797 0.0
N2 N 0.10559 0.23333 0.27243 0.0
N3 N 0.06611 0.24389 0.23012 0.0
C4 C 0.07531 0.22014 0.25498 0.0
H5 H 0.09301 0.29685 0.21504 0.0
Co6 Co 0.02853 0.238 0.19827 0.0
C7 C 0.96111 0.21758 0.24131 0.0
O8 O 0.94087 0.24559 0.22861 0.0
N9 N 0.99107 0.23218 0.16465 0.0
C10 C 0.94523 0.24406 0.12765 0.0
C11 C 0.95708 0.25029 0.15932 0.0
C12 C 0.99876 0.21511 0.1356 0.0
N13 N 0.97164 0.22192 0.11283 0.0
O14 O 0.05151 0.18937 0.18552 0.0
H15 H 0.94401 0.27115 0.17536 0.0
H16 H 0.02593 0.20185 0.12963 0.0
O17 O 0.99533 0.21135 0.23091 0.0
C18 C 0.08364 0.19454 0.17082 0.0
O19 O 0.09656 0.22984 0.1676 0.0
N20 N 0.00986 0.28737 0.20886 0.0
C21 C 0.99857 0.36594 0.21999 0.0
C22 C 0.99603 0.33936 0.24586 0.0
C23 C 1.00226 0.30021 0.23986 0.0
C24 C 0.01288 0.31287 0.18363 0.0
C25 C 1.00641 0.35194 0.18844 0.0
H26 H 1.00301 0.28055 0.26035 0.0
H27 H 0.02144 0.30289 0.15961 0.0
H28 H 0.06011 0.19365 0.26005 0.0
H29 H 0.13992 0.28466 0.26513 0.0
H30 H 0.92126 0.25795 0.11552 0.0
H31 H 0.99127 0.34884 0.27079 0.0
H32 H 0.00852 0.37109 0.16761 0.0
C33 C 0.74503 0.09664 0.48593 0.0
C34 C 0.75128 0.12084 0.51197 0.0
N35 N 0.78397 0.10983 0.5271 0.0
N36 N 0.77348 0.07037 0.48483 0.0
C37 C 0.7969 0.07922 0.51002 0.0
H38 H 0.72146 0.09817 0.46867 0.0
Co39 Co 0.77859 0.03251 0.45331 0.0
C40 C 0.79704 0.96533 0.49543 0.0
O41 O 0.76855 0.94652 0.48152 0.0
N42 N 0.78431 0.99623 0.42001 0.0
C43 C 0.80603 0.95339 0.38407 0.0
C44 C 0.80392 0.96294 0.41674 0.0
C45 C 0.77617 0.00675 0.38903 0.0
N46 N 0.78874 0.98129 0.36653 0.0
O47 O 0.82682 0.05473 0.43906 0.0
H48 H 0.81901 0.94806 0.436 0.0
H49 H 0.7638 0.0344 0.38326 0.0
O50 O 0.8053 0.99932 0.48561 0.0
C51 C 0.82085 0.08485 0.42196 0.0
O52 O 0.7853 0.09733 0.41901 0.0
N53 N 0.72904 0.01322 0.46527 0.0
C54 C 0.65149 0.99933 0.48085 0.0
C55 C 0.67963 1.00107 0.5055 0.0
C56 C 0.71807 0.00849 0.49726 0.0
C57 C 0.70192 0.01158 0.4411 0.0
C58 C 0.66329 1.00416 0.44826 0.0
H59 H 0.73879 0.01197 0.51679 0.0
H60 H 0.70943 0.01825 0.41616 0.0
H61 H 0.82287 0.06342 0.51571 0.0
H62 H 0.73356 0.14514 0.51874 0.0
H63 H 0.82124 0.92891 0.37415 0.0
H64 H 0.67191 0.99775 0.53105 0.0
H65 H 0.64252 1.00442 0.42848 0.0
C66 C 0.92517 0.74086 0.73317 0.0
C67 C 0.90111 0.74736 0.7593 0.0
N68 N 0.91149 0.78079 0.77347 0.0
N69 N 0.95071 0.76995 0.73098 0.0
C70 C 0.94159 0.79392 0.75571 0.0
H71 H 0.92398 0.71668 0.71656 0.0
Co72 Co 0.9884 0.77478 0.6991 0.0
C73 C 0.05614 0.79939 0.73978 0.0
O74 O 0.07768 0.77334 0.72567 0.0
N75 N 0.02602 0.77922 0.66526 0.0
C76 C 0.07108 0.76494 0.62808 0.0
C77 C 0.05893 0.75926 0.65975 0.0
C78 C 0.01928 0.79681 0.63625 0.0
N79 N 0.04588 0.78849 0.61335 0.0
O80 O 0.96497 0.82253 0.68468 0.0
H81 H 0.07115 0.73801 0.67595 0.0
H82 H 0.99298 0.8117 0.63036 0.0
O83 O 0.02104 0.80328 0.73087 0.0
C84 C 0.93319 0.81662 0.6697 0.0
O85 O 0.92057 0.78111 0.66733 0.0
N86 N 1.00766 0.72637 0.71172 0.0
C87 C 0.02137 0.6493 0.72699 0.0
C88 C 0.02457 0.67792 0.7511 0.0
C89 C 0.01716 0.71631 0.74305 0.0
C90 C 1.00358 0.69879 0.68825 0.0
C91 C 0.01106 0.66027 0.69514 0.0
H92 H 0.01718 0.73755 0.76235 0.0
H93 H 0.99342 0.70668 0.66412 0.0
H94 H 0.95685 0.82043 0.7606 0.0
H95 H 0.87732 0.72924 0.76679 0.0
H96 H 0.09433 0.74988 0.61592 0.0
H97 H 0.03178 0.67061 0.77614 0.0
H98 H 1.00695 0.63906 0.67604 0.0
C99 C 0.27038 0.91548 0.98758 0.0
C100 C 0.26367 0.89179 0.01393 0.0
N101 N 0.23077 0.90316 0.02859 0.0
N102 N 0.24201 0.94181 0.98587 0.0
C103 C 0.21823 0.93349 0.01098 0.0
H104 H 0.29413 0.91348 0.97049 0.0
Co105 Co 0.2364 0.97905 0.95385 0.0
C106 C 0.21913 0.04605 -0.00292 0.0
O107 O 0.24832 0.06498 0.98434 0.0
N108 N 0.22998 0.01484 0.9203 0.0
C109 C 0.21098 0.05906 0.88444 0.0
C110 C 0.21381 0.04995 0.91722 0.0
C111 C 0.23546 1.003 0.88925 0.0
N112 N 0.22461 0.02926 0.86685 0.0
O113 O 0.18768 0.95693 0.94087 0.0
H114 H 0.20207 0.06701 0.93685 0.0
H115 H 0.24546 0.97441 0.88343 0.0
O116 O 0.21062 0.01264 0.98617 0.0
C117 C 0.19275 0.92601 0.92462 0.0
O118 O 0.22791 0.91242 0.92194 0.0
N119 N 0.28644 0.99821 0.96429 0.0
C120 C 0.36513 0.01066 0.97606 0.0
C121 C 0.33864 0.00944 0.00208 0.0
C122 C 0.2995 1.00276 0.99571 0.0
C123 C 0.31195 0.99969 0.93886 0.0
C124 C 0.35099 0.0066 0.9441 0.0
H125 H 0.27997 0.99947 0.01618 0.0
H126 H 0.30282 0.99341 0.91427 0.0
H127 H 0.19217 0.94939 0.01613 0.0
H128 H 0.28116 0.86752 0.02117 0.0
H129 H 0.19843 0.085 0.87452 0.0
H130 H 0.34826 0.0116 0.02724 0.0
H131 H 0.37016 0.00744 0.92316 0.0
C132 C 0.09158 0.74023 0.26156 0.0
C133 C 0.11633 0.74671 0.23587 0.0
N134 N 0.10657 0.78028 0.2217 0.0
N135 N 0.06632 0.76954 0.26347 0.0
C136 C 0.0762 0.79356 0.23896 0.0
H137 H 0.09202 0.71584 0.27799 0.0
Co138 Co 0.02834 0.77477 0.29505 0.0
C139 C 0.9615 0.79969 0.25339 0.0
O140 O 0.9397 0.77319 0.26665 0.0
N141 N 0.99049 0.77959 0.32858 0.0
C142 C 0.94457 0.7661 0.36522 0.0
C143 C 0.95685 0.76062 0.33356 0.0
C144 C 0.9976 0.79632 0.35789 0.0
N145 N 0.97047 0.78845 0.38048 0.0
O146 O 0.05211 0.82236 0.30955 0.0
H147 H 0.94419 0.73992 0.3171 0.0
H148 H 0.02441 0.81013 0.36414 0.0
O149 O 0.99635 0.8036 0.26302 0.0
C150 C 0.08386 0.81654 0.32456 0.0
O151 O 0.09642 0.78106 0.32711 0.0
N152 N 0.00863 0.72651 0.28233 0.0
C153 C 0.99438 0.64955 0.26688 0.0
C154 C 0.99227 0.67817 0.24267 0.0
C155 C 0.99994 0.71647 0.25082 0.0
C156 C 0.01154 0.69894 0.30595 0.0
C157 C 1.00377 0.66048 0.29894 0.0
H158 H 1.0008 0.73768 0.23149 0.0
H159 H 0.02108 0.70675 0.33029 0.0
H160 H 0.06201 0.8207 0.2344 0.0
H161 H 0.1395 0.72802 0.2281 0.0
H162 H 0.92064 0.75161 0.37697 0.0
H163 H 0.98578 0.67089 0.21748 0.0
H164 H 1.00702 0.63926 0.31815 0.0
C165 C 0.27147 0.09953 0.50612 0.0
C166 C 0.26557 0.12353 0.47986 0.0
N167 N 0.23305 0.11234 0.46456 0.0
N168 N 0.24289 0.07329 0.50718 0.0
C169 C 0.21985 0.08188 0.48169 0.0
H170 H 0.29482 0.10124 0.5236 0.0
Co171 Co 0.23607 0.0364 0.53934 0.0
C172 C 0.22054 0.96869 0.49656 0.0
O173 O 0.24952 0.95051 0.51027 0.0
N174 N 0.2284 1.00112 0.5731 0.0
C175 C 0.20864 0.95701 0.60898 0.0
C176 C 0.21303 0.96553 0.57619 0.0
C177 C 0.23177 0.01384 0.60412 0.0
N178 N 0.22014 0.98777 0.6263 0.0
O179 O 0.18699 0.05868 0.55104 0.0
H180 H 0.20271 0.94771 0.55648 0.0
H181 H 0.24177 0.0424 0.61028 0.0
O182 O 0.21126 1.00224 0.50672 0.0
C183 C 0.1913 0.08992 0.567 0.0
O184 O 0.22621 0.10402 0.5703 0.0
N185 N 0.28637 0.01707 0.53018 0.0
C186 C 0.36512 1.00327 0.5199 0.0
C187 C 0.33945 1.00524 0.49338 0.0
C188 C 0.30031 0.01256 0.499 0.0
C189 C 0.31105 0.01496 0.55612 0.0
C190 C 0.35014 0.00747 0.5516 0.0
H191 H 0.28145 0.01617 0.47816 0.0
H192 H 0.30115 0.02099 0.58058 0.0
H193 H 0.19322 0.06688 0.4765 0.0
H194 H 0.28378 0.14733 0.47264 0.0
H195 H 0.19576 0.93132 0.6192 0.0
H196 H 0.34972 1.00305 0.4684 0.0
H197 H 0.36867 1.00609 0.5729 0.0
C198 C 0.92186 0.27197 0.76067 0.0
C199 C 0.89774 0.26565 0.73452 0.0
N200 N 0.90859 0.23273 0.71979 0.0
N201 N 0.94778 0.2432 0.76228 0.0
C202 C 0.9389 0.21968 0.73718 0.0
H203 H 0.92055 0.29586 0.77758 0.0
Co204 Co 0.98562 0.23723 0.79388 0.0
C205 C 0.05189 0.2177 0.749 0.0
O206 O 0.07214 0.24664 0.76017 0.0
N207 N 0.02327 0.23117 0.82711 0.0
C208 C 0.07045 0.24145 0.86319 0.0
C209 C 0.05841 0.24738 0.83151 0.0
C210 C 0.01501 0.21561 0.85665 0.0
N211 N 0.04298 0.22144 0.87888 0.0
O212 O 0.96287 0.18839 0.80657 0.0
H213 H 0.0724 0.26685 0.8148 0.0
H214 H 0.98715 0.20419 0.86319 0.0
O215 O 0.01846 0.21087 0.76092 0.0
C216 C 0.93064 0.19293 0.82123 0.0
O217 O 0.9171 0.22797 0.82444 0.0
N218 N 1.00429 0.28679 0.78345 0.0
C219 C 0.01611 0.36544 0.7728 0.0
C220 C 0.01692 0.33926 0.74657 0.0
C221 C 0.01046 0.30009 0.75236 0.0
C222 C 1.00296 0.3119 0.80906 0.0
C223 C 0.0097 0.351 0.80444 0.0
H224 H 0.0085 0.28077 0.73169 0.0
H225 H 0.99546 0.30168 0.83327 0.0
H226 H 0.95376 0.19297 0.73231 0.0
H227 H 0.87425 0.28397 0.72686 0.0
H228 H 0.09559 0.25408 0.87463 0.0
H229 H 0.02056 0.34909 0.72159 0.0
H230 H 0.0089 0.36984 0.82554 0.0
C231 C 0.74513 0.91468 0.00696 0.0
C232 C 0.75173 0.89037 0.98104 0.0
N233 N 0.78465 0.90139 0.96621 0.0
N234 N 0.77368 0.94092 0.00831 0.0
C235 C 0.79741 0.93203 0.98331 0.0
H236 H 0.72121 0.91329 0.02394 0.0
Co237 Co 0.77906 0.97856 0.03997 0.0
C238 C 0.79775 0.0452 -0.00323 0.0
O239 O 0.76878 0.0644 0.00949 0.0
N240 N 0.78504 0.0146 0.07331 0.0
C241 C 0.80421 0.05871 0.10939 0.0
C242 C 0.80154 0.04966 0.07656 0.0
C243 C 0.7792 1.00272 0.10431 0.0
N244 N 0.79046 0.02878 0.12661 0.0
O245 O 0.82737 0.95632 0.05377 0.0
H246 H 0.81405 0.06647 0.05709 0.0
H247 H 0.7682 0.9745 0.11043 0.0
O248 O 0.8058 0.01166 0.00767 0.0
C249 C 0.82209 0.92556 0.07021 0.0
O250 O 0.78688 0.91202 0.07294 0.0
N251 N 0.72953 0.99798 0.02852 0.0
C252 C 0.65177 0.01194 0.01415 0.0
C253 C 0.67937 0.00983 0.98905 0.0
C254 C 0.71794 1.00238 -0.00331 0.0
C255 C 0.70298 1.00011 0.05315 0.0
C256 C 0.66424 0.00755 0.04658 0.0
H257 H 0.73825 0.99865 0.97685 0.0
H258 H 0.71107 0.99385 0.07804 0.0
H259 H 0.82408 0.94708 0.97834 0.0
H260 H 0.73362 0.86658 0.97362 0.0
H261 H 0.81783 0.0839 0.1198 0.0
H262 H 0.67114 0.01287 0.9636 0.0
H263 H 0.6439 0.00765 0.06672 0.0
H264 H 0.95595 0.5932 0.30097 0.0
H265 H 0.03999 0.42367 0.19059 0.0
H266 H 0.0243 0.61151 0.21399 0.0
H267 H 0.95156 0.40489 0.2634 0.0
H268 H 0.0355 0.4924 0.20018 0.0
H269 H 0.95476 0.52418 0.28899 0.0
C270 C 0.97051 0.58272 0.27926 0.0
C271 C 0.99027 0.60819 0.25845 0.0
C272 C 0.01686 0.47333 0.21395 0.0
C273 C 0.98921 0.52929 0.24473 0.0
C274 C 0.01921 0.43391 0.20833 0.0
C275 C 0.99579 0.40815 0.22593 0.0
C276 C 0.99124 0.48746 0.23765 0.0
C277 C 0.9704 0.42347 0.24939 0.0
C278 C 0.96971 0.54337 0.2724 0.0
C279 C 0.00835 0.59307 0.23052 0.0
N280 N 0.96886 0.4621 0.25462 0.0
N281 N 1.00764 0.55464 0.22465 0.0
H282 H 0.6123 0.0331 0.53162 0.0
H283 H 0.40401 0.9593 0.47433 0.0
H284 H 0.59516 0.95861 0.44834 0.0
H285 H 0.42319 0.03961 0.55327 0.0
H286 H 0.47384 0.95553 0.46593 0.0
H287 H 0.54321 0.03148 0.54222 0.0
C288 C 0.59413 0.01591 0.5158 0.0
C289 C 0.60975 0.99595 0.48902 0.0
C290 C 0.4627 0.97381 0.48519 0.0
C291 C 0.53007 0.9946 0.50068 0.0
C292 C 0.4228 0.97613 0.48989 0.0
C293 C 0.40751 0.99965 0.51468 0.0
C294 C 0.48755 0.99522 0.50536 0.0
C295 C 0.43346 0.02049 0.53428 0.0
C296 C 0.55451 0.0153 0.5217 0.0
C297 C 0.58442 0.97482 0.46904 0.0
N298 N 0.47202 0.01781 0.52917 0.0
N299 N 0.54587 0.97479 0.47521 0.0
H300 H 0.05825 0.59284 0.69196 0.0
H301 H 0.97713 0.42328 0.80427 0.0
H302 H 0.99299 0.61128 0.78059 0.0
H303 H 0.06154 0.40439 0.72815 0.0
H304 H 0.98202 0.49209 0.79497 0.0
H305 H 0.05929 0.52382 0.70377 0.0
C306 C 0.04433 0.58239 0.714 0.0
C307 C 0.02547 0.6079 0.73531 0.0
C308 C 0.99969 0.47297 0.78041 0.0
C309 C 0.02638 0.52895 0.74887 0.0
C310 C 0.99712 0.43351 0.78584 0.0
C311 C 0.01925 0.4077 0.7672 0.0
C312 C 0.02424 0.48708 0.75587 0.0
C313 C 0.04367 0.42301 0.74296 0.0
C314 C 0.04504 0.54302 0.72077 0.0
C315 C 0.00822 0.59279 0.76365 0.0
N316 N 0.04543 0.46167 0.73795 0.0
N317 N 0.00883 0.55434 0.76944 0.0
H318 H 0.40441 0.05421 0.02178 0.0
H319 H 0.6116 0.97745 0.96439 0.0
H320 H 0.42264 0.97209 0.94404 0.0
H321 H 0.59609 0.05309 0.04715 0.0
H322 H 0.54243 0.97916 0.95461 0.0
H323 H 0.47433 0.05693 0.0304 0.0
C324 C 0.42301 0.03675 0.00655 0.0
C325 C 0.40747 0.01316 0.98193 0.0
C326 C 0.55409 0.99556 0.97485 0.0
C327 C 0.48751 0.01636 0.9915 0.0
C328 C 0.59376 0.9949 0.98027 0.0
C329 C 0.60988 0.01521 0.00663 0.0
C330 C 0.53006 0.01668 0.99591 0.0
C331 C 0.58495 0.03664 0.02675 0.0
C332 C 0.46293 0.03846 0.01137 0.0
C333 C 0.43313 0.99138 0.96282 0.0
N334 N 0.54631 0.03675 0.02103 0.0
N335 N 0.47169 0.99354 0.968 0.0
H336 H 0.2382 0.18698 0.44593 0.0
H337 H 0.10502 0.1574 0.28823 0.0
H338 H 0.18711 0.07827 0.41935 0.0
H339 H 0.14774 0.2678 0.32012 0.0
H340 H 0.13611 0.12753 0.33529 0.0
H341 H 0.20727 0.21662 0.39864 0.0
C342 C 0.22068 0.16928 0.43003 0.0
C343 C 0.21524 0.13008 0.4366 0.0
C344 C 0.13864 0.15831 0.33199 0.0
C345 C 0.1794 0.16389 0.38258 0.0
C346 C 0.12068 0.17545 0.3052 0.0
C347 C 0.12368 0.21525 0.30016 0.0
C348 C 0.15984 0.18108 0.35391 0.0
C349 C 0.14503 0.237 0.32273 0.0
C350 C 0.2028 0.18627 0.40314 0.0
C351 C 0.1917 0.10867 0.41543 0.0
N352 N 0.16229 0.21963 0.3486 0.0
N353 N 0.17468 0.12585 0.38932 0.0
H354 H 0.74883 0.15243 0.57412 0.0
H355 H 0.94304 0.18608 0.67536 0.0
H356 H 0.8595 0.10769 0.54458 0.0
H357 H 0.83419 0.23836 0.70019 0.0
H358 H 0.91257 0.15532 0.62828 0.0
H359 H 0.77934 0.18284 0.62121 0.0
C360 C 0.77957 0.14914 0.57739 0.0
C361 C 0.8016 0.12749 0.55525 0.0
C362 C 0.89535 0.17355 0.64401 0.0
C363 C 0.8367 0.16192 0.60941 0.0
C364 C 0.91269 0.19094 0.67101 0.0
C365 C 0.8911 0.21479 0.69177 0.0
C366 C 0.85611 0.17995 0.63779 0.0
C367 C 0.85201 0.22057 0.68463 0.0
C368 C 0.79696 0.16637 0.60441 0.0
C369 C 0.84125 0.12367 0.56116 0.0
N370 N 0.83574 0.2032 0.65828 0.0
N371 N 0.85753 0.14075 0.58767 0.0
H372 H 0.77991 0.82673 0.94773 0.0
H373 H 0.91228 0.8567 0.78936 0.0
H374 H 0.83106 0.93549 0.92127 0.0
H375 H 0.87006 0.74621 0.82163 0.0
H376 H 0.88172 0.88646 0.8368 0.0
H377 H 0.811 0.79717 0.90043 0.0
C378 C 0.79751 0.84444 0.93186 0.0
C379 C 0.80287 0.88364 0.93843 0.0
C380 C 0.87919 0.85569 0.83349 0.0
C381 C 0.83886 0.84995 0.8844 0.0
C382 C 0.89683 0.83861 0.80648 0.0
C383 C 0.89377 0.79882 0.80142 0.0
C384 C 0.85826 0.83285 0.8556 0.0
C385 C 0.87276 0.77701 0.82421 0.0
C386 C 0.81547 0.8275 0.90497 0.0
C387 C 0.82652 0.90509 0.91733 0.0
N388 N 0.8558 0.79432 0.85028 0.0
N389 N 0.84359 0.88797 0.89119 0.0
H390 H 0.15493 0.90639 0.04512 0.0
H391 H 0.18124 0.77344 0.20315 0.0
H392 H 0.26445 0.86057 0.07638 0.0
H393 H 0.0741 0.82841 0.17738 0.0
H394 H 0.21186 0.80368 0.15588 0.0
H395 H 0.12455 0.87717 0.09284 0.0
C396 C 0.1727 0.89044 0.06209 0.0
C397 C 0.21241 0.88603 0.05667 0.0
C398 C 0.18166 0.80919 0.16058 0.0
C399 C 0.17758 0.85199 0.11122 0.0
C400 C 0.16411 0.79173 0.18745 0.0
C401 C 0.12504 0.79836 0.19417 0.0
C402 C 0.15995 0.83333 0.14016 0.0
C403 C 0.10438 0.82286 0.17331 0.0
C404 C 0.15525 0.87356 0.08928 0.0
C405 C 0.23373 0.86435 0.07928 0.0
N406 N 0.12207 0.83938 0.14717 0.0
N407 N 0.21604 0.84813 0.10554 0.0
H408 H 0.99503 0.15844 0.08051 0.0
H409 H 0.05731 0.27596 0.92417 0.0
H410 H 0.96449 0.27738 0.06725 0.0
H411 H 0.01468 0.16048 0.91204 0.0
H412 H 0.03822 0.27388 0.98194 0.0
H413 H 0.01461 0.1554 0.02243 0.0
C414 C 0.99187 0.1836 0.06512 0.0
C415 C 0.97768 0.21802 0.07825 0.0
C416 C 0.03351 0.24886 0.96667 0.0
C417 C 1.00128 0.21528 0.01308 0.0
C418 C 0.04483 0.24984 0.93396 0.0
C419 C 0.03773 0.21821 0.91362 0.0
C420 C 0.01563 0.2158 0.97916 0.0
C421 C 0.02065 0.1853 0.92721 0.0
C422 C 1.00312 0.18192 0.03228 0.0
C423 C 0.97462 0.25017 0.05776 0.0
N424 N 0.01021 0.18481 0.95932 0.0
N425 N 0.98687 0.24819 0.02625 0.0
H426 H 0.77421 0.08066 0.17379 0.0
H427 H 0.8295 0.94086 0.32058 0.0
H428 H 0.81065 0.96375 0.15813 0.0
H429 H 0.74729 0.03341 0.33111 0.0
H430 H 0.83117 0.9529 0.26183 0.0
H431 H 0.77394 0.06876 0.2332 0.0
C432 C 0.78236 0.05264 0.183 0.0
C433 C 0.79204 0.02302 0.16134 0.0
C434 C 0.81284 0.9705 0.27719 0.0
C435 C 0.79209 0.00924 0.22858 0.0
C436 C 0.81168 0.96358 0.31084 0.0
C437 C 0.78855 0.98638 0.33139 0.0
C438 C 0.79112 1.00068 0.26396 0.0
C439 C 0.76633 0.01555 0.31679 0.0
C440 C 0.78198 0.04576 0.21669 0.0
C441 C 0.80238 0.98708 0.17419 0.0
N442 N 0.76842 0.02202 0.28406 0.0
N443 N 0.80226 0.98119 0.20704 0.0
H444 H 0.02261 0.85216 0.58114 0.0
H445 H 0.95901 0.73328 0.42589 0.0
H446 H 0.05281 0.73315 0.56755 0.0
H447 H 0.99701 0.85036 0.4135 0.0
H448 H 0.97933 0.7357 0.4832 0.0
H449 H 1.00199 0.85514 0.52338 0.0
C450 C 0.02552 0.82698 0.56575 0.0
C451 C 0.0398 0.79252 0.57877 0.0
C452 C 0.98279 0.76099 0.46799 0.0
C453 C 0.01512 0.79524 0.51391 0.0
C454 C 0.97072 0.75981 0.43552 0.0
C455 C 0.97617 0.79179 0.41518 0.0
C456 C 0.99987 0.79454 0.48028 0.0
C457 C 0.99234 0.82524 0.42863 0.0
C458 C 0.01368 0.82864 0.53308 0.0
C459 C 0.0426 0.7604 0.55822 0.0
N460 N 1.00363 0.82585 0.46052 0.0
N461 N 0.02982 0.76237 0.5269 0.0
H462 H 0.19868 0.05261 0.65763 0.0
H463 H 0.26507 0.97666 0.83143 0.0
H464 H 0.23614 0.93611 0.67369 0.0
H465 H 0.18392 0.07006 0.82133 0.0
H466 H 0.26114 0.96542 0.77286 0.0
H467 H 0.1988 0.06336 0.71695 0.0
C468 C 0.20693 0.02934 0.67377 0.0
C469 C 0.21773 0.9935 0.66101 0.0
C470 C 0.24408 0.98825 0.78356 0.0
C471 C 0.21819 1.0056 0.72847 0.0
C472 C 0.24616 0.99472 0.81713 0.0
C473 C 0.22432 0.02409 0.83177 0.0
C474 C 0.22057 0.0117 0.76418 0.0
C475 C 0.2014 0.0472 0.81137 0.0
C476 C 0.20679 0.0354 0.7075 0.0
C477 C 0.22758 0.96404 0.68276 0.0
N478 N 0.20019 0.04055 0.77857 0.0
N479 N 0.228 0.97085 0.71553 0.0
H480 H 0.16009 0.1895 0.16043 0.0
H481 H 0.14996 0.02313 0.02494 0.0
H482 H 0.0536 0.13084 0.13901 0.0
H483 H 0.2405 0.10759 0.03383 0.0
H484 H 0.11674 0.05326 0.07182 0.0
H485 H 0.19316 0.14881 0.12102 0.0
C486 C 0.14378 0.16746 0.14779 0.0
C487 C 0.10403 0.1637 0.15286 0.0
C488 C 0.14392 0.06499 0.06343 0.0
C489 C 0.14166 0.11738 0.10675 0.0
C490 C 0.16287 0.04789 0.03671 0.0
C491 C 0.19796 0.06305 0.0252 0.0
C492 C 0.1606 0.09698 0.07899 0.0
C493 C 0.21341 0.09503 0.04149 0.0
C494 C 0.16264 0.14439 0.12505 0.0
C495 C 0.08436 0.13452 0.13589 0.0
N496 N 0.19473 0.11075 0.06743 0.0
N497 N 0.10331 0.11272 0.11317 0.0
H498 H 0.90108 0.24024 0.27903 0.0
H499 H 0.88346 0.05296 0.38981 0.0
H500 H 0.98509 0.1494 0.27068 0.0
H501 H 0.82571 0.16037 0.40827 0.0
H502 H 0.92306 0.08527 0.3476 0.0
H503 H 0.87383 0.20882 0.32645 0.0
C504 C 0.91384 0.21347 0.28709 0.0
C505 C 0.94533 0.19736 0.2705 0.0
C506 C 0.90225 0.10181 0.36143 0.0
C507 C 0.9138 0.1607 0.32568 0.0
C508 C 0.87993 0.0835 0.38567 0.0
C509 C 0.8512 0.10408 0.40243 0.0
C510 C 0.89546 0.14075 0.35406 0.0
C511 C 0.8473 0.14336 0.39577 0.0
C512 C 0.89831 0.19556 0.31451 0.0
C513 C 0.96071 0.16276 0.28265 0.0
N514 N 0.86879 0.1602 0.37203 0.0
N515 N 0.94453 0.1453 0.30939 0.0
H516 H 0.77515 0.90194 0.5294 0.0
H517 H 0.96296 0.88233 0.64054 0.0
H518 H 0.86505 0.98763 0.52585 0.0
H519 H 0.8577 0.81834 0.65419 0.0
H520 H 0.92971 0.92293 0.59981 0.0
H521 H 0.80729 0.87148 0.57513 0.0
C522 C 0.80183 0.91439 0.53818 0.0
C523 C 0.81748 0.94733 0.52349 0.0
C524 C 0.91384 0.9004 0.6122 0.0
C525 C 0.8549 0.91219 0.57657 0.0
C526 C 0.93269 0.87745 0.6356 0.0
C527 C 0.91309 0.84675 0.65059 0.0
C528 C 0.8753 0.89236 0.6039 0.0
C529 C 0.87407 0.84139 0.64301 0.0
C530 C 0.82016 0.89701 0.56458 0.0
C531 C 0.85202 0.96218 0.53638 0.0
N532 N 0.8567 0.86361 0.62011 0.0
N533 N 0.86981 0.94431 0.56207 0.0
H534 H 0.11802 0.77815 0.77577 0.0
H535 H 0.13196 0.95991 0.89165 0.0
H536 H 0.02913 0.86467 0.77187 0.0
H537 H 0.18555 0.85061 0.91111 0.0
H538 H 0.09295 0.9291 0.84834 0.0
H539 H 0.14397 0.80817 0.82436 0.0
C540 C 0.10394 0.80369 0.78504 0.0
C541 C 0.07141 0.81899 0.76941 0.0
C542 C 0.11263 0.91182 0.86267 0.0
C543 C 0.10137 0.85392 0.8259 0.0
C544 C 0.1346 0.92928 0.88753 0.0
C545 C 0.16211 0.90772 0.90484 0.0
C546 C 0.11864 0.87281 0.85518 0.0
C547 C 0.16493 0.86834 0.89818 0.0
C548 C 0.11869 0.82073 0.81313 0.0
C549 C 0.05434 0.85198 0.78309 0.0
N550 N 0.14393 0.85237 0.87374 0.0
N551 N 0.06978 0.86868 0.81045 0.0
H552 H 0.05438 0.88272 0.35291 0.0
H553 H 0.2435 0.90592 0.4623 0.0
H554 H 0.15936 0.81829 0.34016 0.0
H555 H 0.15179 0.9894 0.46668 0.0
H556 H 0.2113 0.87453 0.41702 0.0
H557 H 0.08787 0.92419 0.39289 0.0
C558 C 0.08463 0.8779 0.3579 0.0
C559 C 0.1041 0.84687 0.34337 0.0
C560 C 0.19805 0.89978 0.42765 0.0
C561 C 0.14218 0.89349 0.3892 0.0
C562 C 0.21642 0.91769 0.45379 0.0
C563 C 0.20026 0.95026 0.46861 0.0
C564 C 0.16275 0.91404 0.41608 0.0
C565 C 0.16522 0.96426 0.45606 0.0
C566 C 0.10362 0.90134 0.38087 0.0
C567 C 0.1431 0.8416 0.351 0.0
N568 N 0.14741 0.94586 0.43065 0.0
N569 N 0.16062 0.86434 0.37347 0.0
H570 H 0.17975 0.16577 0.57518 0.0
H571 H 0.02808 0.14786 0.72268 0.0
H572 H 0.1335 0.05563 0.60332 0.0
H573 H 0.10854 0.24092 0.70775 0.0
H574 H 0.05481 0.11573 0.67361 0.0
H575 H 0.13974 0.1965 0.61656 0.0
C576 C 0.16038 0.14815 0.58965 0.0
C577 C 0.15988 0.10818 0.58583 0.0
C578 C 0.06634 0.14324 0.68121 0.0
C579 C 0.11474 0.14306 0.63429 0.0
C580 C 0.05119 0.16154 0.70915 0.0
C581 C 0.06636 0.19697 0.71963 0.0
C582 C 0.09618 0.16102 0.66341 0.0
C583 C 0.09613 0.21348 0.70104 0.0
C584 C 0.13778 0.16564 0.61351 0.0
C585 C 0.13434 0.08664 0.60531 0.0
N586 N 0.10984 0.19549 0.674 0.0
N587 N 0.11309 0.10431 0.62916 0.0
H588 H 0.85424 0.18577 0.83102 0.0
H589 H 0.86679 0.02212 0.96875 0.0
H590 H 0.96204 0.13065 0.85395 0.0
H591 H 0.77602 0.10606 0.9595 0.0
H592 H 0.89956 0.05177 0.92132 0.0
H593 H 0.8219 0.14489 0.87082 0.0
C594 C 0.871 0.16443 0.84405 0.0
C595 C 0.91088 0.16174 0.8393 0.0
C596 C 0.87243 0.06347 0.92977 0.0
C597 C 0.8741 0.11527 0.88586 0.0
C598 C 0.85374 0.04665 0.95679 0.0
C599 C 0.81874 0.06184 0.96836 0.0
C600 C 0.85552 0.09515 0.91396 0.0
C601 C 0.80307 0.09351 0.95182 0.0
C602 C 0.85257 0.14126 0.86701 0.0
C603 C 0.93116 0.13346 0.8568 0.0
N604 N 0.82146 0.10892 0.92559 0.0
N605 N 0.91261 0.11158 0.87975 0.0
H606 H 0.98925 0.86577 0.22293 0.0
H607 H 0.83005 0.84982 0.08163 0.0
H608 H 0.90025 0.77939 0.21615 0.0
H609 H 0.88229 0.95902 0.10432 0.0
H610 H 0.86979 0.81944 0.12328 0.0
H611 H 0.9621 0.89718 0.17367 0.0
C612 C 0.96417 0.85342 0.21116 0.0
C613 C 0.94679 0.82008 0.22395 0.0
C614 C 0.87307 0.84999 0.119 0.0
C615 C 0.91648 0.85509 0.16756 0.0
C616 C 0.85057 0.86729 0.09501 0.0
C617 C 0.85281 0.90695 0.08961 0.0
C618 C 0.89785 0.87248 0.13827 0.0
C619 C 0.87997 0.92824 0.10763 0.0
C620 C 0.94878 0.87131 0.18314 0.0
C621 C 0.91449 0.8052 0.20761 0.0
N622 N 0.90117 0.91081 0.13161 0.0
N623 N 0.90063 0.82265 0.18041 0.0
loop_
_geom_bond_atom_site_label_1
_geom_bond_atom_site_label_2
_geom_bond_distance
_geom_bond_site_symmetry_2
_ccdc_geom_bond_type
C0 C1 1.351 . S
C0 N3 1.368 . S
C0 H5 0.931 . S
C1 C0 1.351 . S
C1 N2 1.373 . S
C1 H29 0.930 . S
N2 C1 1.373 . S
N2 C4 1.340 . S
N3 C0 1.368 . S
N3 C4 1.321 . S
N3 Co6 2.135 . S
C4 N2 1.340 . S
C4 N3 1.321 . S
C4 H28 0.930 . S
H5 C0 0.931 . S
Co6 N3 2.135 . S
Co6 N9 2.121 . S
Co6 O14 2.055 . S
Co6 O17 2.039 . S
Co6 N20 2.140 . S
C7 O8 1.227 . S
C7 O17 1.265 . S
O8 C7 1.227 . S
N9 Co6 2.121 . S
N9 C11 1.375 . S
N9 C12 1.313 . S
C10 C11 1.338 1_655 S
C10 N13 1.377 1_655 S
C10 H30 0.930 . S
C11 N9 1.375 . S
C11 C10 1.338 1_455 S
C11 H15 0.931 1_455 S
C12 N9 1.313 . S
C12 N13 1.344 . S
C12 H16 0.930 . S
N13 C10 1.377 1_455 S
N13 C12 1.344 . S
O14 Co6 2.055 . S
O14 C18 1.253 . S
H15 C11 0.931 1_655 S
H16 C12 0.930 . S
O17 Co6 2.039 . S
O17 C7 1.265 . S
C18 O14 1.253 . S
C18 O19 1.227 . S
O19 C18 1.227 . S
N20 Co6 2.140 . S
N20 C23 1.346 . S
N20 C24 1.345 . S
C21 C22 1.387 . S
C21 C25 1.391 . S
C22 C21 1.387 . S
C22 C23 1.369 . S
C22 H31 0.929 . S
C23 N20 1.346 . S
C23 C22 1.369 . S
C23 H26 0.928 . S
C24 N20 1.345 . S
C24 C25 1.371 . S
C24 H27 0.931 . S
C25 C21 1.391 . S
C25 C24 1.371 . S
C25 H32 0.930 . S
H26 C23 0.928 . S
H27 C24 0.931 . S
H28 C4 0.930 . S
H29 C1 0.930 . S
H30 C10 0.930 . S
H31 C22 0.929 . S
H32 C25 0.930 . S
C33 C34 1.351 . S
C33 N36 1.368 . S
C33 H38 0.931 . S
C34 C33 1.351 . S
C34 N35 1.373 . S
C34 H62 0.930 . S
N35 C34 1.373 . S
N35 C37 1.340 . S
N36 C33 1.368 . S
N36 C37 1.321 . S
N36 Co39 2.135 . S
C37 N35 1.340 . S
C37 N36 1.321 . S
C37 H61 0.930 . S
H38 C33 0.931 . S
Co39 N36 2.135 . S
Co39 N42 2.121 . S
Co39 O47 2.055 . S
Co39 O50 2.039 . S
Co39 N53 2.140 . S
C40 O41 1.227 . S
C40 O50 1.265 . S
O41 C40 1.227 . S
N42 Co39 2.121 . S
N42 C44 1.375 . S
N42 C45 1.313 . S
C43 C44 1.338 1_565 S
C43 N46 1.377 1_565 S
C43 H63 0.930 . S
C44 N42 1.375 . S
C44 C43 1.338 1_545 S
C44 H48 0.931 1_545 S
C45 N42 1.313 . S
C45 N46 1.344 . S
C45 H49 0.930 . S
N46 C43 1.377 1_545 S
N46 C45 1.344 . S
O47 Co39 2.055 . S
O47 C51 1.253 . S
H48 C44 0.931 1_565 S
H49 C45 0.930 . S
O50 Co39 2.039 . S
O50 C40 1.265 . S
C51 O47 1.253 . S
C51 O52 1.227 . S
O52 C51 1.227 . S
N53 Co39 2.140 . S
N53 C56 1.346 . S
N53 C57 1.345 . S
C54 C55 1.387 . S
C54 C58 1.391 . S
C55 C54 1.387 . S
C55 C56 1.369 . S
C55 H64 0.929 . S
C56 N53 1.346 . S
C56 C55 1.369 . S
C56 H59 0.928 . S
C57 N53 1.345 . S
C57 C58 1.371 . S
C57 H60 0.931 . S
C58 C54 1.391 . S
C58 C57 1.371 . S
C58 H65 0.930 . S
H59 C56 0.928 . S
H60 C57 0.931 . S
H61 C37 0.930 . S
H62 C34 0.930 . S
H63 C43 0.930 . S
H64 C55 0.929 . S
H65 C58 0.930 . S
C66 C67 1.351 . S
C66 N69 1.368 . S
C66 H71 0.931 . S
C67 C66 1.351 . S
C67 N68 1.373 . S
C67 H95 0.930 . S
N68 C67 1.373 . S
N68 C70 1.340 . S
N69 C66 1.368 . S
N69 C70 1.321 . S
N69 Co72 2.135 . S
C70 N68 1.340 . S
C70 N69 1.321 . S
C70 H94 0.930 . S
H71 C66 0.931 . S
Co72 N69 2.135 . S
Co72 N75 2.121 . S
Co72 O80 2.055 . S
Co72 O83 2.039 . S
Co72 N86 2.140 . S
C73 O74 1.227 . S
C73 O83 1.265 . S
O74 C73 1.227 . S
N75 Co72 2.121 . S
N75 C77 1.375 . S
N75 C78 1.313 . S
C76 C77 1.338 1_455 S
C76 N79 1.377 1_455 S
C76 H96 0.930 . S
C77 N75 1.375 . S
C77 C76 1.338 1_655 S
C77 H81 0.931 1_655 S
C78 N75 1.313 . S
C78 N79 1.344 . S
C78 H82 0.930 . S
N79 C76 1.377 1_655 S
N79 C78 1.344 . S
O80 Co72 2.055 . S
O80 C84 1.253 . S
H81 C77 0.931 1_455 S
H82 C78 0.930 . S
O83 Co72 2.039 . S
O83 C73 1.265 . S
C84 O80 1.253 . S
C84 O85 1.227 . S
O85 C84 1.227 . S
N86 Co72 2.140 . S
N86 C89 1.346 . S
N86 C90 1.345 . S
C87 C88 1.387 . S
C87 C91 1.391 . S
C88 C87 1.387 . S
C88 C89 1.369 . S
C88 H97 0.929 . S
C89 N86 1.346 . S
C89 C88 1.369 . S
C89 H92 0.928 . S
C90 N86 1.345 . S
C90 C91 1.371 . S
C90 H93 0.931 . S
C91 C87 1.391 . S
C91 C90 1.371 . S
C91 H98 0.930 . S
H92 C89 0.928 . S
H93 C90 0.931 . S
H94 C70 0.930 . S
H95 C67 0.930 . S
H96 C76 0.930 . S
H97 C88 0.929 . S
H98 C91 0.930 . S
C99 C100 1.351 1_556 S
C99 N102 1.368 . S
C99 H104 0.931 . S
C100 C99 1.351 1_554 S
C100 N101 1.373 . S
C100 H128 0.930 . S
N101 C100 1.373 . S
N101 C103 1.340 . S
N102 C99 1.368 . S
N102 C103 1.321 1_556 S
N102 Co105 2.135 . S
C103 N101 1.340 . S
C103 N102 1.321 1_554 S
C103 H127 0.930 . S
H104 C99 0.931 . S
Co105 N102 2.135 . S
Co105 N108 2.121 . S
Co105 O113 2.055 . S
Co105 O116 2.039 . S
Co105 N119 2.140 . S
C106 O107 1.227 . S
C106 O116 1.265 . S
O107 C106 1.227 . S
N108 Co105 2.121 . S
N108 C110 1.375 . S
N108 C111 1.313 . S
C109 C110 1.338 1_545 S
C109 N112 1.377 1_545 S
C109 H129 0.930 . S
C110 N108 1.375 . S
C110 C109 1.338 1_565 S
C110 H114 0.931 1_565 S
C111 N108 1.313 . S
C111 N112 1.344 . S
C111 H115 0.930 . S
N112 C109 1.377 1_565 S
N112 C111 1.344 . S
O113 Co105 2.055 . S
O113 C117 1.253 . S
H114 C110 0.931 1_545 S
H115 C111 0.930 . S
O116 Co105 2.039 . S
O116 C106 1.265 . S
C117 O113 1.253 . S
C117 O118 1.227 . S
O118 C117 1.227 . S
N119 Co105 2.140 . S
N119 C122 1.346 . S
N119 C123 1.345 . S
C120 C121 1.387 . S
C120 C124 1.391 . S
C121 C120 1.387 . S
C121 C122 1.369 . S
C121 H130 0.929 1_556 S
C122 N119 1.346 . S
C122 C121 1.369 . S
C122 H125 0.928 1_556 S
C123 N119 1.345 . S
C123 C124 1.371 . S
C123 H126 0.931 . S
C124 C120 1.391 . S
C124 C123 1.371 . S
C124 H131 0.930 . S
H125 C122 0.928 1_554 S
H126 C123 0.931 . S
H127 C103 0.930 . S
H128 C100 0.930 . S
H129 C109 0.930 . S
H130 C121 0.929 1_554 S
H131 C124 0.930 . S
C132 C133 1.351 . S
C132 N135 1.368 . S
C132 H137 0.931 . S
C133 C132 1.351 . S
C133 N134 1.373 . S
C133 H161 0.930 . S
N134 C133 1.373 . S
N134 C136 1.340 . S
N135 C132 1.368 . S
N135 C136 1.321 . S
N135 Co138 2.135 . S
C136 N134 1.340 . S
C136 N135 1.321 . S
C136 H160 0.930 . S
H137 C132 0.931 . S
Co138 N135 2.135 . S
Co138 N141 2.121 . S
Co138 O146 2.055 . S
Co138 O149 2.039 . S
Co138 N152 2.140 . S
C139 O140 1.227 . S
C139 O149 1.265 . S
O140 C139 1.227 . S
N141 Co138 2.121 . S
N141 C143 1.375 . S
N141 C144 1.313 . S
C142 C143 1.338 1_655 S
C142 N145 1.377 1_655 S
C142 H162 0.930 . S
C143 N141 1.375 . S
C143 C142 1.338 1_455 S
C143 H147 0.931 1_455 S
C144 N141 1.313 . S
C144 N145 1.344 . S
C144 H148 0.930 . S
N145 C142 1.377 1_455 S
N145 C144 1.344 . S
O146 Co138 2.055 . S
O146 C150 1.253 . S
H147 C143 0.931 1_655 S
H148 C144 0.930 . S
O149 Co138 2.039 . S
O149 C139 1.265 . S
C150 O146 1.253 . S
C150 O151 1.227 . S
O151 C150 1.227 . S
N152 Co138 2.140 . S
N152 C155 1.346 . S
N152 C156 1.345 . S
C153 C154 1.387 . S
C153 C157 1.391 . S
C154 C153 1.387 . S
C154 C155 1.369 . S
C154 H163 0.929 . S
C155 N152 1.346 . S
C155 C154 1.369 . S
C155 H158 0.928 . S
C156 N152 1.345 . S
C156 C157 1.371 . S
C156 H159 0.931 . S
C157 C153 1.391 . S
C157 C156 1.371 . S
C157 H164 0.930 . S
H158 C155 0.928 . S
H159 C156 0.931 . S
H160 C136 0.930 . S
H161 C133 0.930 . S
H162 C142 0.930 . S
H163 C154 0.929 . S
H164 C157 0.930 . S
C165 C166 1.351 . S
C165 N168 1.368 . S
C165 H170 0.931 . S
C166 C165 1.351 . S
C166 N167 1.373 . S
C166 H194 0.930 . S
N167 C166 1.373 . S
N167 C169 1.340 . S
N168 C165 1.368 . S
N168 C169 1.321 . S
N168 Co171 2.135 . S
C169 N167 1.340 . S
C169 N168 1.321 . S
C169 H193 0.930 . S
H170 C165 0.931 . S
Co171 N168 2.135 . S
Co171 N174 2.121 . S
Co171 O179 2.055 . S
Co171 O182 2.039 . S
Co171 N185 2.140 . S
C172 O173 1.227 . S
C172 O182 1.265 . S
O173 C172 1.227 . S
N174 Co171 2.121 . S
N174 C176 1.375 . S
N174 C177 1.313 . S
C175 C176 1.338 1_565 S
C175 N178 1.377 1_565 S
C175 H195 0.930 . S
C176 N174 1.375 . S
C176 C175 1.338 1_545 S
C176 H180 0.931 1_545 S
C177 N174 1.313 . S
C177 N178 1.344 . S
C177 H181 0.930 . S
N178 C175 1.377 1_545 S
N178 C177 1.344 . S
O179 Co171 2.055 . S
O179 C183 1.253 . S
H180 C176 0.931 1_565 S
H181 C177 0.930 . S
O182 Co171 2.039 . S
O182 C172 1.265 . S
C183 O179 1.253 . S
C183 O184 1.227 . S
O184 C183 1.227 . S
N185 Co171 2.140 . S
N185 C188 1.346 . S
N185 C189 1.345 . S
C186 C187 1.387 . S
C186 C190 1.391 . S
C187 C186 1.387 . S
C187 C188 1.369 . S
C187 H196 0.929 . S
C188 N185 1.346 . S
C188 C187 1.369 . S
C188 H191 0.928 . S
C189 N185 1.345 . S
C189 C190 1.371 . S
C189 H192 0.931 . S
C190 C186 1.391 . S
C190 C189 1.371 . S
C190 H197 0.930 . S
H191 C188 0.928 . S
H192 C189 0.931 . S
H193 C169 0.930 . S
H194 C166 0.930 . S
H195 C175 0.930 . S
H196 C187 0.929 . S
H197 C190 0.930 . S
C198 C199 1.351 . S
C198 N201 1.368 . S
C198 H203 0.931 . S
C199 C198 1.351 . S
C199 N200 1.373 . S
C199 H227 0.930 . S
N200 C199 1.373 . S
N200 C202 1.340 . S
N201 C198 1.368 . S
N201 C202 1.321 . S
N201 Co204 2.135 . S
C202 N200 1.340 . S
C202 N201 1.321 . S
C202 H226 0.930 . S
H203 C198 0.931 . S
Co204 N201 2.135 . S
Co204 N207 2.121 . S
Co204 O212 2.055 . S
Co204 O215 2.039 . S
Co204 N218 2.140 . S
C205 O206 1.227 . S
C205 O215 1.265 . S
O206 C205 1.227 . S
N207 Co204 2.121 . S
N207 C209 1.375 . S
N207 C210 1.313 . S
C208 C209 1.338 1_455 S
C208 N211 1.377 1_455 S
C208 H228 0.930 . S
C209 N207 1.375 . S
C209 C208 1.338 1_655 S
C209 H213 0.931 1_655 S
C210 N207 1.313 . S
C210 N211 1.344 . S
C210 H214 0.930 . S
N211 C208 1.377 1_655 S
N211 C210 1.344 . S
O212 Co204 2.055 . S
O212 C216 1.253 . S
H213 C209 0.931 1_455 S
H214 C210 0.930 . S
O215 Co204 2.039 . S
O215 C205 1.265 . S
C216 O212 1.253 . S
C216 O217 1.227 . S
O217 C216 1.227 . S
N218 Co204 2.140 . S
N218 C221 1.346 . S
N218 C222 1.345 . S
C219 C220 1.387 . S
C219 C223 1.391 . S
C220 C219 1.387 . S
C220 C221 1.369 . S
C220 H229 0.929 . S
C221 N218 1.346 . S
C221 C220 1.369 . S
C221 H224 0.928 . S
C222 N218 1.345 . S
C222 C223 1.371 . S
C222 H225 0.931 . S
C223 C219 1.391 . S
C223 C222 1.371 . S
C223 H230 0.930 . S
H224 C221 0.928 . S
H225 C222 0.931 . S
H226 C202 0.930 . S
H227 C199 0.930 . S
H228 C208 0.930 . S
H229 C220 0.929 . S
H230 C223 0.930 . S
C231 C232 1.351 1_554 S
C231 N234 1.368 . S
C231 H236 0.931 . S
C232 C231 1.351 1_556 S
C232 N233 1.373 . S
C232 H260 0.930 . S
N233 C232 1.373 . S
N233 C235 1.340 . S
N234 C231 1.368 . S
N234 C235 1.321 1_554 S
N234 Co237 2.135 . S
C235 N233 1.340 . S
C235 N234 1.321 1_556 S
C235 H259 0.930 . S
H236 C231 0.931 . S
Co237 N234 2.135 . S
Co237 N240 2.121 . S
Co237 O245 2.055 . S
Co237 O248 2.039 . S
Co237 N251 2.140 . S
C238 O239 1.227 . S
C238 O248 1.265 . S
O239 C238 1.227 . S
N240 Co237 2.121 . S
N240 C242 1.375 . S
N240 C243 1.313 . S
C241 C242 1.338 1_545 S
C241 N244 1.377 1_545 S
C241 H261 0.930 . S
C242 N240 1.375 . S
C242 C241 1.338 1_565 S
C242 H246 0.931 1_565 S
C243 N240 1.313 . S
C243 N244 1.344 . S
C243 H247 0.930 . S
N244 C241 1.377 1_565 S
N244 C243 1.344 . S
O245 Co237 2.055 . S
O245 C249 1.253 . S
H246 C242 0.931 1_545 S
H247 C243 0.930 . S
O248 Co237 2.039 . S
O248 C238 1.265 . S
C249 O245 1.253 . S
C249 O250 1.227 . S
O250 C249 1.227 . S
N251 Co237 2.140 . S
N251 C254 1.346 . S
N251 C255 1.345 . S
C252 C253 1.387 . S
C252 C256 1.391 . S
C253 C252 1.387 . S
C253 C254 1.369 . S
C253 H262 0.929 1_554 S
C254 N251 1.346 . S
C254 C253 1.369 . S
C254 H257 0.928 1_554 S
C255 N251 1.345 . S
C255 C256 1.371 . S
C255 H258 0.931 . S
C256 C252 1.391 . S
C256 C255 1.371 . S
C256 H263 0.930 . S
H257 C254 0.928 1_556 S
H258 C255 0.931 . S
H259 C235 0.930 . S
H260 C232 0.930 . S
H261 C241 0.930 . S
H262 C253 0.929 1_556 S
H263 C256 0.930 . S
H264 C270 0.930 . S
H265 C274 0.930 . S
H266 C279 0.929 . S
H267 C277 0.929 . S
H268 C272 0.929 . S
H269 C278 0.929 . S
C270 H264 0.930 . S
C270 C271 1.367 . S
C270 C278 1.378 . S
C271 C270 1.367 . S
C271 C279 1.433 . S
C272 H268 0.929 . S
C272 C274 1.378 . S
C272 C276 1.350 . S
C273 C276 1.463 . S
C273 C278 1.350 . S
C273 N281 1.427 . S
C274 H265 0.930 . S
C274 C272 1.378 . S
C274 C275 1.367 . S
C275 C274 1.367 . S
C275 C277 1.433 . S
C276 C272 1.350 . S
C276 C273 1.463 . S
C276 N280 1.427 . S
C277 H267 0.929 . S
C277 C275 1.433 . S
C277 N280 1.384 . S
C278 H269 0.929 . S
C278 C270 1.378 . S
C278 C273 1.350 . S
C279 H266 0.929 . S
C279 C271 1.433 . S
C279 N281 1.384 . S
N280 C276 1.427 . S
N280 C277 1.384 . S
N281 C273 1.427 . S
N281 C279 1.384 . S
H282 C288 0.930 . S
H283 C292 0.930 . S
H284 C297 0.929 . S
H285 C295 0.929 . S
H286 C290 0.929 . S
H287 C296 0.929 . S
C288 H282 0.930 . S
C288 C289 1.367 . S
C288 C296 1.378 . S
C289 C288 1.367 . S
C289 C297 1.433 . S
C290 H286 0.929 . S
C290 C292 1.378 . S
C290 C294 1.350 . S
C291 C294 1.463 . S
C291 C296 1.350 . S
C291 N299 1.427 . S
C292 H283 0.930 . S
C292 C290 1.378 . S
C292 C293 1.367 . S
C293 C292 1.367 . S
C293 C295 1.433 . S
C294 C290 1.350 . S
C294 C291 1.463 . S
C294 N298 1.427 . S
C295 H285 0.929 . S
C295 C293 1.433 . S
C295 N298 1.384 . S
C296 H287 0.929 . S
C296 C288 1.378 . S
C296 C291 1.350 . S
C297 H284 0.929 . S
C297 C289 1.433 . S
C297 N299 1.384 . S
N298 C294 1.427 . S
N298 C295 1.384 . S
N299 C291 1.427 . S
N299 C297 1.384 . S
H300 C306 0.930 . S
H301 C310 0.930 . S
H302 C315 0.929 . S
H303 C313 0.929 . S
H304 C308 0.929 . S
H305 C314 0.929 . S
C306 H300 0.930 . S
C306 C307 1.367 . S
C306 C314 1.378 . S
C307 C306 1.367 . S
C307 C315 1.433 . S
C308 H304 0.929 . S
C308 C310 1.378 . S
C308 C312 1.350 . S
C309 C312 1.463 . S
C309 C314 1.350 . S
C309 N317 1.427 . S
C310 H301 0.930 . S
C310 C308 1.378 . S
C310 C311 1.367 . S
C311 C310 1.367 . S
C311 C313 1.433 . S
C312 C308 1.350 . S
C312 C309 1.463 . S
C312 N316 1.427 . S
C313 H303 0.929 . S
C313 C311 1.433 . S
C313 N316 1.384 . S
C314 H305 0.929 . S
C314 C306 1.378 . S
C314 C309 1.350 . S
C315 H302 0.929 . S
C315 C307 1.433 . S
C315 N317 1.384 . S
N316 C312 1.427 . S
N316 C313 1.384 . S
N317 C309 1.427 . S
N317 C315 1.384 . S
H318 C324 0.930 1_554 S
H319 C328 0.930 1_556 S
H320 C333 0.929 . S
H321 C331 0.929 . S
H322 C326 0.929 . S
H323 C332 0.929 . S
C324 H318 0.930 1_556 S
C324 C325 1.367 . S
C324 C332 1.378 1_556 S
C325 C324 1.367 . S
C325 C333 1.433 . S
C326 H322 0.929 . S
C326 C328 1.378 1_556 S
C326 C330 1.350 1_556 S
C327 C330 1.463 1_556 S
C327 C332 1.350 1_556 S
C327 N335 1.427 . S
C328 H319 0.930 1_554 S
C328 C326 1.378 1_554 S
C328 C329 1.367 . S
C329 C328 1.367 . S
C329 C331 1.433 . S
C330 C326 1.350 1_554 S
C330 C327 1.463 1_554 S
C330 N334 1.427 . S
C331 H321 0.929 . S
C331 C329 1.433 . S
C331 N334 1.384 . S
C332 H323 0.929 . S
C332 C324 1.378 1_554 S
C332 C327 1.350 1_554 S
C333 H320 0.929 . S
C333 C325 1.433 . S
C333 N335 1.384 . S
N334 C330 1.427 . S
N334 C331 1.384 . S
N335 C327 1.427 . S
N335 C333 1.384 . S
H336 C342 0.930 . S
H337 C346 0.930 . S
H338 C351 0.929 . S
H339 C349 0.929 . S
H340 C344 0.929 . S
H341 C350 0.929 . S
C342 H336 0.930 . S
C342 C343 1.367 . S
C342 C350 1.378 . S
C343 C342 1.367 . S
C343 C351 1.433 . S
C344 H340 0.929 . S
C344 C346 1.378 . S
C344 C348 1.350 . S
C345 C348 1.463 . S
C345 C350 1.350 . S
C345 N353 1.427 . S
C346 H337 0.930 . S
C346 C344 1.378 . S
C346 C347 1.367 . S
C347 C346 1.367 . S
C347 C349 1.433 . S
C348 C344 1.350 . S
C348 C345 1.463 . S
C348 N352 1.427 . S
C349 H339 0.929 . S
C349 C347 1.433 . S
C349 N352 1.384 . S
C350 H341 0.929 . S
C350 C342 1.378 . S
C350 C345 1.350 . S
C351 H338 0.929 . S
C351 C343 1.433 . S
C351 N353 1.384 . S
N352 C348 1.427 . S
N352 C349 1.384 . S
N353 C345 1.427 . S
N353 C351 1.384 . S
H354 C360 0.930 . S
H355 C364 0.930 . S
H356 C369 0.929 . S
H357 C367 0.929 . S
H358 C362 0.929 . S
H359 C368 0.929 . S
C360 H354 0.930 . S
C360 C361 1.367 . S
C360 C368 1.378 . S
C361 C360 1.367 . S
C361 C369 1.433 . S
C362 H358 0.929 . S
C362 C364 1.378 . S
C362 C366 1.350 . S
C363 C366 1.463 . S
C363 C368 1.350 . S
C363 N371 1.427 . S
C364 H355 0.930 . S
C364 C362 1.378 . S
C364 C365 1.367 . S
C365 C364 1.367 . S
C365 C367 1.433 . S
C366 C362 1.350 . S
C366 C363 1.463 . S
C366 N370 1.427 . S
C367 H357 0.929 . S
C367 C365 1.433 . S
C367 N370 1.384 . S
C368 H359 0.929 . S
C368 C360 1.378 . S
C368 C363 1.350 . S
C369 H356 0.929 . S
C369 C361 1.433 . S
C369 N371 1.384 . S
N370 C366 1.427 . S
N370 C367 1.384 . S
N371 C363 1.427 . S
N371 C369 1.384 . S
H372 C378 0.930 . S
H373 C382 0.930 . S
H374 C387 0.929 . S
H375 C385 0.929 . S
H376 C380 0.929 . S
H377 C386 0.929 . S
C378 H372 0.930 . S
C378 C379 1.367 . S
C378 C386 1.378 . S
C379 C378 1.367 . S
C379 C387 1.433 . S
C380 H376 0.929 . S
C380 C382 1.378 . S
C380 C384 1.350 . S
C381 C384 1.463 . S
C381 C386 1.350 . S
C381 N389 1.427 . S
C382 H373 0.930 . S
C382 C380 1.378 . S
C382 C383 1.367 . S
C383 C382 1.367 . S
C383 C385 1.433 . S
C384 C380 1.350 . S
C384 C381 1.463 . S
C384 N388 1.427 . S
C385 H375 0.929 . S
C385 C383 1.433 . S
C385 N388 1.384 . S
C386 H377 0.929 . S
C386 C378 1.378 . S
C386 C381 1.350 . S
C387 H374 0.929 . S
C387 C379 1.433 . S
C387 N389 1.384 . S
N388 C384 1.427 . S
N388 C385 1.384 . S
N389 C381 1.427 . S
N389 C387 1.384 . S
H390 C396 0.930 . S
H391 C400 0.930 . S
H392 C405 0.929 . S
H393 C403 0.929 . S
H394 C398 0.929 . S
H395 C404 0.929 . S
C396 H390 0.930 . S
C396 C397 1.367 . S
C396 C404 1.378 . S
C397 C396 1.367 . S
C397 C405 1.433 . S
C398 H394 0.929 . S
C398 C400 1.378 . S
C398 C402 1.350 . S
C399 C402 1.463 . S
C399 C404 1.350 . S
C399 N407 1.427 . S
C400 H391 0.930 . S
C400 C398 1.378 . S
C400 C401 1.367 . S
C401 C400 1.367 . S
C401 C403 1.433 . S
C402 C398 1.350 . S
C402 C399 1.463 . S
C402 N406 1.427 . S
C403 H393 0.929 . S
C403 C401 1.433 . S
C403 N406 1.384 . S
C404 H395 0.929 . S
C404 C396 1.378 . S
C404 C399 1.350 . S
C405 H392 0.929 . S
C405 C397 1.433 . S
C405 N407 1.384 . S
N406 C402 1.427 . S
N406 C403 1.384 . S
N407 C399 1.427 . S
N407 C405 1.384 . S
H408 C414 0.930 . S
H409 C418 0.930 . S
H410 C423 0.929 . S
H411 C421 0.929 . S
H412 C416 0.929 . S
H413 C422 0.929 . S
C414 H408 0.930 . S
C414 C415 1.367 1_655 S
C414 C422 1.378 . S
C415 C414 1.367 1_455 S
C415 C423 1.433 . S
C416 H412 0.929 . S
C416 C418 1.378 . S
C416 C420 1.350 1_455 S
C417 C420 1.463 1_454 S
C417 C422 1.350 1_455 S
C417 N425 1.427 . S
C418 H409 0.930 . S
C418 C416 1.378 . S
C418 C419 1.367 1_455 S
C419 C418 1.367 1_655 S
C419 C421 1.433 . S
C420 C416 1.350 1_655 S
C420 C417 1.463 1_656 S
C420 N424 1.427 . S
C421 H411 0.929 . S
C421 C419 1.433 . S
C421 N424 1.384 . S
C422 H413 0.929 . S
C422 C414 1.378 . S
C422 C417 1.350 1_655 S
C423 H410 0.929 . S
C423 C415 1.433 . S
C423 N425 1.384 . S
N424 C420 1.427 . S
N424 C421 1.384 . S
N425 C417 1.427 . S
N425 C423 1.384 . S
H426 C432 0.930 . S
H427 C436 0.930 . S
H428 C441 0.929 . S
H429 C439 0.929 . S
H430 C434 0.929 . S
H431 C440 0.929 . S
C432 H426 0.930 . S
C432 C433 1.367 1_545 S
C432 C440 1.378 . S
C433 C432 1.367 1_565 S
C433 C441 1.433 . S
C434 H430 0.929 . S
C434 C436 1.378 . S
C434 C438 1.350 1_565 S
C435 C438 1.463 1_565 S
C435 C440 1.350 1_565 S
C435 N443 1.427 . S
C436 H427 0.930 . S
C436 C434 1.378 . S
C436 C437 1.367 1_565 S
C437 C436 1.367 1_545 S
C437 C439 1.433 . S
C438 C434 1.350 1_545 S
C438 C435 1.463 1_545 S
C438 N442 1.427 . S
C439 H429 0.929 . S
C439 C437 1.433 . S
C439 N442 1.384 . S
C440 H431 0.929 . S
C440 C432 1.378 . S
C440 C435 1.350 1_545 S
C441 H428 0.929 . S
C441 C433 1.433 . S
C441 N443 1.384 . S
N442 C438 1.427 . S
N442 C439 1.384 . S
N443 C435 1.427 . S
N443 C441 1.384 . S
H444 C450 0.930 . S
H445 C454 0.930 . S
H446 C459 0.929 . S
H447 C457 0.929 . S
H448 C452 0.929 . S
H449 C458 0.929 . S
C450 H444 0.930 . S
C450 C451 1.367 1_455 S
C450 C458 1.378 . S
C451 C450 1.367 1_655 S
C451 C459 1.433 . S
C452 H448 0.929 . S
C452 C454 1.378 . S
C452 C456 1.350 1_655 S
C453 C456 1.463 1_655 S
C453 C458 1.350 1_655 S
C453 N461 1.427 . S
C454 H445 0.930 . S
C454 C452 1.378 . S
C454 C455 1.367 1_655 S
C455 C454 1.367 1_455 S
C455 C457 1.433 . S
C456 C452 1.350 1_455 S
C456 C453 1.463 1_455 S
C456 N460 1.427 . S
C457 H447 0.929 . S
C457 C455 1.433 . S
C457 N460 1.384 . S
C458 H449 0.929 . S
C458 C450 1.378 . S
C458 C453 1.350 1_455 S
C459 H446 0.929 . S
C459 C451 1.433 . S
C459 N461 1.384 . S
N460 C456 1.427 . S
N460 C457 1.384 . S
N461 C453 1.427 . S
N461 C459 1.384 . S
H462 C468 0.930 . S
H463 C472 0.930 . S
H464 C477 0.929 . S
H465 C475 0.929 . S
H466 C470 0.929 . S
H467 C476 0.929 . S
C468 H462 0.930 . S
C468 C469 1.367 . S
C468 C476 1.378 . S
C469 C468 1.367 . S
C469 C477 1.433 1_545 S
C470 H466 0.929 . S
C470 C472 1.378 . S
C470 C474 1.350 . S
C471 C474 1.463 1_545 S
C471 C476 1.350 . S
C471 N479 1.427 1_545 S
C472 H463 0.930 . S
C472 C470 1.378 . S
C472 C473 1.367 . S
C473 C472 1.367 . S
C473 C475 1.433 1_565 S
C474 C470 1.350 . S
C474 C471 1.463 1_565 S
C474 N478 1.427 1_565 S
C475 H465 0.929 . S
C475 C473 1.433 1_545 S
C475 N478 1.384 . S
C476 H467 0.929 . S
C476 C468 1.378 . S
C476 C471 1.350 . S
C477 H464 0.929 . S
C477 C469 1.433 1_565 S
C477 N479 1.384 . S
N478 C474 1.427 1_545 S
N478 C475 1.384 . S
N479 C471 1.427 1_565 S
N479 C477 1.384 . S
H480 C486 0.930 . S
H481 C490 0.930 1_556 S
H482 C495 0.929 . S
H483 C493 0.929 . S
H484 C488 0.929 . S
H485 C494 0.929 . S
C486 H480 0.930 . S
C486 C487 1.367 . S
C486 C494 1.378 . S
C487 C486 1.367 . S
C487 C495 1.433 . S
C488 H484 0.929 . S
C488 C490 1.378 . S
C488 C492 1.350 . S
C489 C492 1.463 . S
C489 C494 1.350 . S
C489 N497 1.427 . S
C490 H481 0.930 1_554 S
C490 C488 1.378 . S
C490 C491 1.367 . S
C491 C490 1.367 . S
C491 C493 1.433 . S
C492 C488 1.350 . S
C492 C489 1.463 . S
C492 N496 1.427 . S
C493 H483 0.929 . S
C493 C491 1.433 . S
C493 N496 1.384 . S
C494 H485 0.929 . S
C494 C486 1.378 . S
C494 C489 1.350 . S
C495 H482 0.929 . S
C495 C487 1.433 . S
C495 N497 1.384 . S
N496 C492 1.427 . S
N496 C493 1.384 . S
N497 C489 1.427 . S
N497 C495 1.384 . S
H498 C504 0.930 . S
H499 C508 0.930 . S
H500 C513 0.929 . S
H501 C511 0.929 . S
H502 C506 0.929 . S
H503 C512 0.929 . S
C504 H498 0.930 . S
C504 C505 1.367 . S
C504 C512 1.378 . S
C505 C504 1.367 . S
C505 C513 1.433 . S
C506 H502 0.929 . S
C506 C508 1.378 . S
C506 C510 1.350 . S
C507 C510 1.463 . S
C507 C512 1.350 . S
C507 N515 1.427 . S
C508 H499 0.930 . S
C508 C506 1.378 . S
C508 C509 1.367 . S
C509 C508 1.367 . S
C509 C511 1.433 . S
C510 C506 1.350 . S
C510 C507 1.463 . S
C510 N514 1.427 . S
C511 H501 0.929 . S
C511 C509 1.433 . S
C511 N514 1.384 . S
C512 H503 0.929 . S
C512 C504 1.378 . S
C512 C507 1.350 . S
C513 H500 0.929 . S
C513 C505 1.433 . S
C513 N515 1.384 . S
N514 C510 1.427 . S
N514 C511 1.384 . S
N515 C507 1.427 . S
N515 C513 1.384 . S
H516 C522 0.904 1_545 S
H517 C526 0.930 . S
H518 C531 0.929 . S
H519 C529 0.929 . S
H520 C524 0.929 . S
H521 C530 0.929 . S
C522 H516 0.904 1_565 S
C522 C523 1.367 . S
C522 C530 1.378 . S
C523 C522 1.367 . S
C523 C531 1.433 . S
C524 H520 0.929 . S
C524 C526 1.378 . S
C524 C528 1.350 . S
C525 C528 1.463 . S
C525 C530 1.350 . S
C525 N533 1.427 . S
C526 H517 0.930 . S
C526 C524 1.378 . S
C526 C527 1.367 . S
C527 C526 1.367 . S
C527 C529 1.433 . S
C528 C524 1.350 . S
C528 C525 1.463 . S
C528 N532 1.427 . S
C529 H519 0.929 . S
C529 C527 1.433 . S
C529 N532 1.384 . S
C530 H521 0.929 . S
C530 C522 1.378 . S
C530 C525 1.350 . S
C531 H518 0.929 . S
C531 C523 1.433 . S
C531 N533 1.384 . S
N532 C528 1.427 . S
N532 C529 1.384 . S
N533 C525 1.427 . S
N533 C531 1.384 . S
H534 C540 0.930 . S
H535 C544 0.930 . S
H536 C549 0.929 . S
H537 C547 0.929 . S
H538 C542 0.929 . S
H539 C548 0.929 . S
C540 H534 0.930 . S
C540 C541 1.367 . S
C540 C548 1.378 . S
C541 C540 1.367 . S
C541 C549 1.433 . S
C542 H538 0.929 . S
C542 C544 1.378 . S
C542 C546 1.350 . S
C543 C546 1.463 . S
C543 C548 1.350 . S
C543 N551 1.427 . S
C544 H535 0.930 . S
C544 C542 1.378 . S
C544 C545 1.367 . S
C545 C544 1.367 . S
C545 C547 1.433 . S
C546 C542 1.350 . S
C546 C543 1.463 . S
C546 N550 1.427 . S
C547 H537 0.929 . S
C547 C545 1.433 . S
C547 N550 1.384 . S
C548 H539 0.929 . S
C548 C540 1.378 . S
C548 C543 1.350 . S
C549 H536 0.929 . S
C549 C541 1.433 . S
C549 N551 1.384 . S
N550 C546 1.427 . S
N550 C547 1.384 . S
N551 C543 1.427 . S
N551 C549 1.384 . S
H552 C558 0.930 . S
H553 C562 0.930 . S
H554 C567 0.929 . S
H555 C565 0.929 1_545 S
H556 C560 0.929 . S
H557 C566 0.929 . S
C558 H552 0.930 . S
C558 C559 1.367 . S
C558 C566 1.378 . S
C559 C558 1.367 . S
C559 C567 1.433 . S
C560 H556 0.929 . S
C560 C562 1.378 . S
C560 C564 1.350 . S
C561 C564 1.463 . S
C561 C566 1.350 . S
C561 N569 1.427 . S
C562 H553 0.930 . S
C562 C560 1.378 . S
C562 C563 1.367 . S
C563 C562 1.367 . S
C563 C565 1.433 . S
C564 C560 1.350 . S
C564 C561 1.463 . S
C564 N568 1.427 . S
C565 H555 0.929 1_565 S
C565 C563 1.433 . S
C565 N568 1.384 . S
C566 H557 0.929 . S
C566 C558 1.378 . S
C566 C561 1.350 . S
C567 H554 0.929 . S
C567 C559 1.433 . S
C567 N569 1.384 . S
N568 C564 1.427 . S
N568 C565 1.384 . S
N569 C561 1.427 . S
N569 C567 1.384 . S
H570 C576 0.930 . S
H571 C580 0.930 . S
H572 C585 0.929 . S
H573 C583 0.929 . S
H574 C578 0.929 . S
H575 C584 0.929 . S
C576 H570 0.930 . S
C576 C577 1.367 . S
C576 C584 1.378 . S
C577 C576 1.367 . S
C577 C585 1.433 . S
C578 H574 0.929 . S
C578 C580 1.378 . S
C578 C582 1.350 . S
C579 C582 1.463 . S
C579 C584 1.350 . S
C579 N587 1.427 . S
C580 H571 0.930 . S
C580 C578 1.378 . S
C580 C581 1.367 . S
C581 C580 1.367 . S
C581 C583 1.433 . S
C582 C578 1.350 . S
C582 C579 1.463 . S
C582 N586 1.427 . S
C583 H573 0.929 . S
C583 C581 1.433 . S
C583 N586 1.384 . S
C584 H575 0.929 . S
C584 C576 1.378 . S
C584 C579 1.350 . S
C585 H572 0.929 . S
C585 C577 1.433 . S
C585 N587 1.384 . S
N586 C582 1.427 . S
N586 C583 1.384 . S
N587 C579 1.427 . S
N587 C585 1.384 . S
H588 C594 0.930 . S
H589 C598 0.930 1_554 S
H590 C603 0.929 . S
H591 C601 0.929 . S
H592 C596 0.929 . S
H593 C602 0.929 . S
C594 H588 0.930 . S
C594 C595 1.367 . S
C594 C602 1.378 . S
C595 C594 1.367 . S
C595 C603 1.433 . S
C596 H592 0.929 . S
C596 C598 1.378 . S
C596 C600 1.350 . S
C597 C600 1.463 . S
C597 C602 1.350 . S
C597 N605 1.427 . S
C598 H589 0.930 1_556 S
C598 C596 1.378 . S
C598 C599 1.367 . S
C599 C598 1.367 . S
C599 C601 1.433 . S
C600 C596 1.350 . S
C600 C597 1.463 . S
C600 N604 1.427 . S
C601 H591 0.929 . S
C601 C599 1.433 . S
C601 N604 1.384 . S
C602 H593 0.929 . S
C602 C594 1.378 . S
C602 C597 1.350 . S
C603 H590 0.929 . S
C603 C595 1.433 . S
C603 N605 1.384 . S
N604 C600 1.427 . S
N604 C601 1.384 . S
N605 C597 1.427 . S
N605 C603 1.384 . S
H606 C612 0.930 . S
H607 C616 0.930 . S
H608 C621 0.929 . S
H609 C619 0.929 . S
H610 C614 0.929 . S
H611 C620 0.929 . S
C612 H606 0.930 . S
C612 C613 1.367 . S
C612 C620 1.378 . S
C613 C612 1.367 . S
C613 C621 1.433 . S
C614 H610 0.929 . S
C614 C616 1.378 . S
C614 C618 1.350 . S
C615 C618 1.463 . S
C615 C620 1.350 . S
C615 N623 1.427 . S
C616 H607 0.930 . S
C616 C614 1.378 . S
C616 C617 1.367 . S
C617 C616 1.367 . S
C617 C619 1.433 . S
C618 C614 1.350 . S
C618 C615 1.463 . S
C618 N622 1.427 . S
C619 H609 0.929 . S
C619 C617 1.433 . S
C619 N622 1.384 . S
C620 H611 0.929 . S
C620 C612 1.378 . S
C620 C615 1.350 . S
C621 H608 0.929 . S
C621 C613 1.433 . S
C621 N623 1.384 . S
N622 C618 1.427 . S
N622 C619 1.384 . S
N623 C615 1.427 . S
N623 C621 1.384 . S
C271 C153 1.294 . S
C275 C21 1.297 . S
C289 C54 1.292 . S
C293 C186 1.288 . S
C307 C87 1.294 . S
C311 C219 1.297 . S
C325 C120 1.289 . S
C329 C252 1.294 . S
C343 N167 0.691 . S
C347 N2 0.690 . S
C361 N35 0.710 . S
C365 N200 0.710 . S
C379 N233 0.682 . S
C383 N68 0.683 . S
C397 N101 0.689 . S
C401 N134 0.691 . S
C415 N13 1.027 . S
C419 N211 1.029 . S
C433 N244 1.027 . S
C437 N46 1.027 . S
C451 N79 1.027 . S
C455 N145 1.029 . S
C469 N178 1.029 . S
C473 N112 1.028 . S
C487 C18 1.999 . S
C491 C106 1.999 1_544 S
C505 C7 1.994 1_655 S
C509 C51 1.995 . S
C523 C40 1.992 1_565 S
C527 C84 1.998 . S
C541 C73 1.994 1_455 S
C545 C117 1.995 . S
C559 C150 1.996 . S
C563 C172 1.997 1_565 S
C577 C183 2.001 . S
C581 C205 1.998 1_455 S
C595 C216 1.999 . S
C599 C238 1.999 1_546 S
C613 C139 1.995 1_655 S
C617 C249 2.002 . S
