# Generated by pormake.
# Topology ukj, (4)-cn, num edge types: 1
# Building blocks:
#     Node 0, Type 0, BuildingBlock: QUQFOY_clean_sbu_1, # of connection points: 4
#     Node 1, Type 0, BuildingBlock: QUQFOY_clean_sbu_1, # of connection points: 4
#     Node 2, Type 0, BuildingBlock: QUQFOY_clean_sbu_1, # of connection points: 4
#     Node 3, Type 0, BuildingBlock: QUQFOY_clean_sbu_1, # of connection points: 4
#     Node 4, Type 0, BuildingBlock: QUQFOY_clean_sbu_1, # of connection points: 4
#     Node 5, Type 0, BuildingBlock: QUQFOY_clean_sbu_1, # of connection points: 4
#     Node 6, Type 0, BuildingBlock: QUQFOY_clean_sbu_1, # of connection points: 4
#     Node 7, Type 0, BuildingBlock: QUQFOY_clean_sbu_1, # of connection points: 4
#     Node 8, Type 0, BuildingBlock: QUQFOY_clean_sbu_1, # of connection points: 4
#     Node 9, Type 0, BuildingBlock: QUQFOY_clean_sbu_1, # of connection points: 4
#     Node 10, Type 0, BuildingBlock: QUQFOY_clean_sbu_1, # of connection points: 4
#     Node 11, Type 0, BuildingBlock: QUQFOY_clean_sbu_1, # of connection points: 4
#     Node 12, Type 0, BuildingBlock: QUQFOY_clean_sbu_1, # of connection points: 4
#     Node 13, Type 0, BuildingBlock: QUQFOY_clean_sbu_1, # of connection points: 4
#     Node 14, Type 0, BuildingBlock: QUQFOY_clean_sbu_1, # of connection points: 4
#     Node 15, Type 0, BuildingBlock: QUQFOY_clean_sbu_1, # of connection points: 4
#     Node 16, Type 0, BuildingBlock: QUQFOY_clean_sbu_1, # of connection points: 4
#     Node 17, Type 0, BuildingBlock: QUQFOY_clean_sbu_1, # of connection points: 4
#     Node 18, Type 0, BuildingBlock: QUQFOY_clean_sbu_1, # of connection points: 4
#     Node 19, Type 0, BuildingBlock: QUQFOY_clean_sbu_1, # of connection points: 4
#     Node 20, Type 0, BuildingBlock: QUQFOY_clean_sbu_1, # of connection points: 4
#     Node 21, Type 0, BuildingBlock: QUQFOY_clean_sbu_1, # of connection points: 4
#     Node 22, Type 0, BuildingBlock: QUQFOY_clean_sbu_1, # of connection points: 4
#     Node 23, Type 0, BuildingBlock: QUQFOY_clean_sbu_1, # of connection points: 4
#     Node 24, Type 0, BuildingBlock: QUQFOY_clean_sbu_1, # of connection points: 4
#     Node 25, Type 0, BuildingBlock: QUQFOY_clean_sbu_1, # of connection points: 4
#     Node 26, Type 0, BuildingBlock: QUQFOY_clean_sbu_1, # of connection points: 4
#     Node 27, Type 0, BuildingBlock: QUQFOY_clean_sbu_1, # of connection points: 4
#     Node 28, Type 0, BuildingBlock: QUQFOY_clean_sbu_1, # of connection points: 4
#     Node 29, Type 0, BuildingBlock: QUQFOY_clean_sbu_1, # of connection points: 4
#     Node 30, Type 0, BuildingBlock: QUQFOY_clean_sbu_1, # of connection points: 4
#     Node 31, Type 0, BuildingBlock: QUQFOY_clean_sbu_1, # of connection points: 4
#     Edge 32, Type (0, 0), BuildingBlock: UVAHIK_clean_linker_0, # of connection points: 2
#     Edge 33, Type (0, 0), BuildingBlock: UVAHIK_clean_linker_0, # of connection points: 2
#     Edge 34, Type (0, 0), BuildingBlock: UVAHIK_clean_linker_0, # of connection points: 2
#     Edge 35, Type (0, 0), BuildingBlock: UVAHIK_clean_linker_0, # of connection points: 2
#     Edge 36, Type (0, 0), BuildingBlock: UVAHIK_clean_linker_0, # of connection points: 2
#     Edge 37, Type (0, 0), BuildingBlock: UVAHIK_clean_linker_0, # of connection points: 2
#     Edge 38, Type (0, 0), BuildingBlock: UVAHIK_clean_linker_0, # of connection points: 2
#     Edge 39, Type (0, 0), BuildingBlock: UVAHIK_clean_linker_0, # of connection points: 2
#     Edge 40, Type (0, 0), BuildingBlock: UVAHIK_clean_linker_0, # of connection points: 2
#     Edge 41, Type (0, 0), BuildingBlock: UVAHIK_clean_linker_0, # of connection points: 2
#     Edge 42, Type (0, 0), BuildingBlock: UVAHIK_clean_linker_0, # of connection points: 2
#     Edge 43, Type (0, 0), BuildingBlock: UVAHIK_clean_linker_0, # of connection points: 2
#     Edge 44, Type (0, 0), BuildingBlock: UVAHIK_clean_linker_0, # of connection points: 2
#     Edge 45, Type (0, 0), BuildingBlock: UVAHIK_clean_linker_0, # of connection points: 2
#     Edge 46, Type (0, 0), BuildingBlock: UVAHIK_clean_linker_0, # of connection points: 2
#     Edge 47, Type (0, 0), BuildingBlock: UVAHIK_clean_linker_0, # of connection points: 2
#     Edge 48, Type (0, 0), BuildingBlock: UVAHIK_clean_linker_0, # of connection points: 2
#     Edge 49, Type (0, 0), BuildingBlock: UVAHIK_clean_linker_0, # of connection points: 2
#     Edge 50, Type (0, 0), BuildingBlock: UVAHIK_clean_linker_0, # of connection points: 2
#     Edge 51, Type (0, 0), BuildingBlock: UVAHIK_clean_linker_0, # of connection points: 2
#     Edge 52, Type (0, 0), BuildingBlock: UVAHIK_clean_linker_0, # of connection points: 2
#     Edge 53, Type (0, 0), BuildingBlock: UVAHIK_clean_linker_0, # of connection points: 2
#     Edge 54, Type (0, 0), BuildingBlock: UVAHIK_clean_linker_0, # of connection points: 2
#     Edge 55, Type (0, 0), BuildingBlock: UVAHIK_clean_linker_0, # of connection points: 2
#     Edge 56, Type (0, 0), BuildingBlock: UVAHIK_clean_linker_0, # of connection points: 2
#     Edge 57, Type (0, 0), BuildingBlock: UVAHIK_clean_linker_0, # of connection points: 2
#     Edge 58, Type (0, 0), BuildingBlock: UVAHIK_clean_linker_0, # of connection points: 2
#     Edge 59, Type (0, 0), BuildingBlock: UVAHIK_clean_linker_0, # of connection points: 2
#     Edge 60, Type (0, 0), BuildingBlock: UVAHIK_clean_linker_0, # of connection points: 2
#     Edge 61, Type (0, 0), BuildingBlock: UVAHIK_clean_linker_0, # of connection points: 2
#     Edge 62, Type (0, 0), BuildingBlock: UVAHIK_clean_linker_0, # of connection points: 2
#     Edge 63, Type (0, 0), BuildingBlock: UVAHIK_clean_linker_0, # of connection points: 2
#     Edge 64, Type (0, 0), BuildingBlock: UVAHIK_clean_linker_0, # of connection points: 2
#     Edge 65, Type (0, 0), BuildingBlock: UVAHIK_clean_linker_0, # of connection points: 2
#     Edge 66, Type (0, 0), BuildingBlock: UVAHIK_clean_linker_0, # of connection points: 2
#     Edge 67, Type (0, 0), BuildingBlock: UVAHIK_clean_linker_0, # of connection points: 2
#     Edge 68, Type (0, 0), BuildingBlock: UVAHIK_clean_linker_0, # of connection points: 2
#     Edge 69, Type (0, 0), BuildingBlock: UVAHIK_clean_linker_0, # of connection points: 2
#     Edge 70, Type (0, 0), BuildingBlock: UVAHIK_clean_linker_0, # of connection points: 2
#     Edge 71, Type (0, 0), BuildingBlock: UVAHIK_clean_linker_0, # of connection points: 2
#     Edge 72, Type (0, 0), BuildingBlock: UVAHIK_clean_linker_0, # of connection points: 2
#     Edge 73, Type (0, 0), BuildingBlock: UVAHIK_clean_linker_0, # of connection points: 2
#     Edge 74, Type (0, 0), BuildingBlock: UVAHIK_clean_linker_0, # of connection points: 2
#     Edge 75, Type (0, 0), BuildingBlock: UVAHIK_clean_linker_0, # of connection points: 2
#     Edge 76, Type (0, 0), BuildingBlock: UVAHIK_clean_linker_0, # of connection points: 2
#     Edge 77, Type (0, 0), BuildingBlock: UVAHIK_clean_linker_0, # of connection points: 2
#     Edge 78, Type (0, 0), BuildingBlock: UVAHIK_clean_linker_0, # of connection points: 2
#     Edge 79, Type (0, 0), BuildingBlock: UVAHIK_clean_linker_0, # of connection points: 2
#     Edge 80, Type (0, 0), BuildingBlock: UVAHIK_clean_linker_0, # of connection points: 2
#     Edge 81, Type (0, 0), BuildingBlock: UVAHIK_clean_linker_0, # of connection points: 2
#     Edge 82, Type (0, 0), BuildingBlock: UVAHIK_clean_linker_0, # of connection points: 2
#     Edge 83, Type (0, 0), BuildingBlock: UVAHIK_clean_linker_0, # of connection points: 2
#     Edge 84, Type (0, 0), BuildingBlock: UVAHIK_clean_linker_0, # of connection points: 2
#     Edge 85, Type (0, 0), BuildingBlock: UVAHIK_clean_linker_0, # of connection points: 2
#     Edge 86, Type (0, 0), BuildingBlock: UVAHIK_clean_linker_0, # of connection points: 2
#     Edge 87, Type (0, 0), BuildingBlock: UVAHIK_clean_linker_0, # of connection points: 2
#     Edge 88, Type (0, 0), BuildingBlock: UVAHIK_clean_linker_0, # of connection points: 2
#     Edge 89, Type (0, 0), BuildingBlock: UVAHIK_clean_linker_0, # of connection points: 2
#     Edge 90, Type (0, 0), BuildingBlock: UVAHIK_clean_linker_0, # of connection points: 2
#     Edge 91, Type (0, 0), BuildingBlock: UVAHIK_clean_linker_0, # of connection points: 2
#     Edge 92, Type (0, 0), BuildingBlock: UVAHIK_clean_linker_0, # of connection points: 2
#     Edge 93, Type (0, 0), BuildingBlock: UVAHIK_clean_linker_0, # of connection points: 2
#     Edge 94, Type (0, 0), BuildingBlock: UVAHIK_clean_linker_0, # of connection points: 2
#     Edge 95, Type (0, 0), BuildingBlock: UVAHIK_clean_linker_0, # of connection points: 2
# Relax obj value: 0.040
# Max RMSD: 0.113
# Mean RMSD: 0.111
data_MOF--net-ukj--node1-QUQFOY_clean_sbu_1--edge1-UVAHIK_clean_linker_0
_symmetry_space_group_name_H-M    P1
_symmetry_Int_Tables_number       1
_symmetry_cell_setting            triclinic
loop_
_symmetry_equiv_pos_as_xyz
'x, y, z'
_cell_length_a     33.855962
_cell_length_b     106.93505
_cell_length_c     73.495399
_cell_angle_alpha  90.011218
_cell_angle_beta   90.010901
_cell_angle_gamma 89.996542
loop_
_atom_site_label
_atom_site_type_symbol
_atom_site_fract_x
_atom_site_fract_y
_atom_site_fract_z
_atom_type_partial_charge
O0 O 0.11604 0.34438 0.23654 0.0
Cd1 Cd 0.12583 0.33891 0.26302 0.0
Cd2 Cd 0.09412 0.36171 0.26855 0.0
O3 O 0.08026 0.36137 0.24105 0.0
O4 O 0.13369 0.32044 0.26084 0.0
O5 O 0.08246 0.32885 0.27488 0.0
C6 C 0.10017 0.31896 0.2689 0.0
C7 C 0.052 0.36663 0.29265 0.0
C8 C 0.09567 0.3534 0.23031 0.0
C9 C 0.17997 0.35826 0.27789 0.0
O10 O 0.15185 0.36577 0.27449 0.0
O11 O 0.17517 0.34653 0.2758 0.0
O12 O 0.06344 0.37506 0.28123 0.0
O13 O 0.06171 0.35515 0.28941 0.0
O14 O 0.12811 0.92621 0.23865 0.0
Cd15 Cd 0.12023 0.93156 0.26531 0.0
Cd16 Cd 0.14923 0.90837 0.26968 0.0
O17 O 0.16212 0.90876 0.24209 0.0
O18 O 0.11294 0.95007 0.26325 0.0
O19 O 0.16442 0.94149 0.27684 0.0
C20 C 0.14678 0.95144 0.27104 0.0
C21 C 0.19165 0.9039 0.29381 0.0
C22 C 0.14696 0.91706 0.23182 0.0
C23 C 0.06434 0.91258 0.27986 0.0
O24 O 0.09129 0.9048 0.27584 0.0
O25 O 0.07071 0.92428 0.27837 0.0
O26 O 0.17976 0.89523 0.28287 0.0
O27 O 0.18222 0.91533 0.29001 0.0
O28 O 0.1176 0.92642 0.03232 0.0
Cd29 Cd 0.12678 0.9319 1.0058 0.0
Cd30 Cd 0.0942 0.9093 1.0004 0.0
O31 O 0.08052 0.90971 0.02791 0.0
O32 O 0.1347 0.95038 1.00787 0.0
O33 O 0.08304 0.94193 0.99419 0.0
C34 C 0.1009 0.95183 1.00004 0.0
C35 C 0.05187 0.90467 0.97626 0.0
C36 C 0.09672 0.91754 0.03861 0.0
C37 C 0.17995 0.91238 0.99074 0.0
O38 O 0.1517 0.90498 0.99439 0.0
O39 O 0.17553 0.92414 0.9927 0.0
O40 O 0.06277 0.89616 0.98766 0.0
O41 O 0.06219 0.9161 0.97957 0.0
O42 O 0.12571 0.34416 0.03015 0.0
Cd43 Cd 0.11847 0.33902 1.00338 0.0
Cd44 Cd 0.15064 0.36171 0.99928 0.0
O45 O 0.16291 0.36096 0.02694 0.0
O46 O 0.11068 0.32051 1.0049 0.0
O47 O 0.16298 0.32916 0.99207 0.0
C48 C 0.14493 0.31918 0.99747 0.0
C49 C 0.19363 0.36646 0.97546 0.0
C50 C 0.14597 0.35295 0.03711 0.0
C51 C 0.0655 0.35865 0.98859 0.0
O52 O 0.09333 0.36604 0.99291 0.0
O53 O 0.07021 0.34686 0.99 0.0
O54 O 0.18259 0.37491 0.98694 0.0
O55 O 0.18316 0.35502 0.97857 0.0
O56 O 0.87512 0.67699 0.78137 0.0
Cd57 Cd 0.86823 0.68231 0.75463 0.0
Cd58 Cd 0.89741 0.65916 0.75041 0.0
O59 O 0.90982 0.65968 0.77805 0.0
O60 O 0.86105 0.70082 0.75655 0.0
O61 O 0.91291 0.69215 0.74338 0.0
C62 C 0.89516 0.70214 0.74899 0.0
C63 C 0.94011 0.65406 0.72666 0.0
C64 C 0.8941 0.6679 0.78826 0.0
C65 C 0.81281 0.66333 0.73977 0.0
O66 O 0.83958 0.65555 0.74405 0.0
O67 O 0.81919 0.67503 0.7412 0.0
O68 O 0.92795 0.64568 0.738 0.0
O69 O 0.93081 0.66559 0.72983 0.0
O70 O 0.86742 0.09445 0.7825 0.0
Cd71 Cd 0.87682 0.08893 0.75599 0.0
Cd72 Cd 0.84741 0.11204 0.75067 0.0
O73 O 0.83315 0.11174 0.7781 0.0
O74 O 0.88408 0.07044 0.75827 0.0
O75 O 0.83318 0.07897 0.74413 0.0
C76 C 0.8506 0.06904 0.75016 0.0
C77 C 0.80573 0.11701 0.72645 0.0
C78 C 0.84781 0.10362 0.78879 0.0
C79 C 0.93278 0.10791 0.74137 0.0
O80 O 0.90552 0.11569 0.74496 0.0
O81 O 0.92663 0.09622 0.74317 0.0
O82 O 0.81746 0.12545 0.7378 0.0
O83 O 0.81499 0.1055 0.7298 0.0
O84 O 0.87738 0.09427 0.98897 0.0
Cd85 Cd 0.87003 0.08914 0.01573 0.0
Cd86 Cd 0.90228 0.11184 0.01988 0.0
O87 O 0.91453 0.11108 0.99222 0.0
O88 O 0.86225 0.07063 0.01421 0.0
O89 O 0.91451 0.07929 0.02709 0.0
C90 C 0.89648 0.06931 0.02167 0.0
C91 C 0.94545 0.11664 0.04361 0.0
C92 C 0.89765 0.10306 0.98204 0.0
C93 C 0.81704 0.10878 0.03048 0.0
O94 O 0.84496 0.11616 0.02626 0.0
O95 O 0.82168 0.097 0.02902 0.0
O96 O 0.93421 0.12507 0.03214 0.0
O97 O 0.93502 0.10519 0.04056 0.0
O98 O 0.86439 0.67591 0.9877 0.0
Cd99 Cd 0.87424 0.68127 0.01422 0.0
Cd100 Cd 0.84167 0.65865 0.01953 0.0
O101 O 0.8274 0.65918 0.99208 0.0
O102 O 0.88264 0.69972 0.01218 0.0
O103 O 0.83106 0.6914 0.02606 0.0
C104 C 0.84906 0.70126 0.02015 0.0
C105 C 0.79971 0.65409 0.04382 0.0
C106 C 0.84336 0.66707 0.9814 0.0
C107 C 0.92764 0.66162 0.0288 0.0
O108 O 0.89927 0.65425 0.02521 0.0
O109 O 0.9232 0.67339 0.02701 0.0
O110 O 0.81025 0.64556 0.03236 0.0
O111 O 0.81023 0.66549 0.0405 0.0
O112 O 0.11428 0.8456 0.73686 0.0
Cd113 Cd 0.12455 0.83988 0.76321 0.0
Cd114 Cd 0.09591 0.86311 0.76893 0.0
O115 O 0.08129 0.86312 0.74154 0.0
O116 O 0.13199 0.82143 0.76049 0.0
O117 O 0.08147 0.82973 0.77517 0.0
C118 C 0.09884 0.81989 0.76882 0.0
C119 C 0.05458 0.86758 0.79347 0.0
C120 C 0.09514 0.85492 0.73073 0.0
C121 C 0.1814 0.85865 0.77778 0.0
O122 O 0.1542 0.86652 0.77455 0.0
O123 O 0.17495 0.84699 0.77576 0.0
O124 O 0.06645 0.87628 0.78258 0.0
O125 O 0.06349 0.85614 0.78946 0.0
O126 O 0.12608 0.42656 0.73803 0.0
Cd127 Cd 0.11895 0.4321 0.76467 0.0
Cd128 Cd 0.14796 0.40893 0.76922 0.0
O129 O 0.16029 0.40916 0.74157 0.0
O130 O 0.11188 0.45061 0.76248 0.0
O131 O 0.16359 0.44201 0.77585 0.0
C132 C 0.14592 0.45196 0.77009 0.0
C133 C 0.19064 0.40438 0.79323 0.0
C134 C 0.14481 0.41737 0.73125 0.0
C135 C 0.06331 0.41326 0.77975 0.0
O136 O 0.09011 0.40544 0.77567 0.0
O137 O 0.0697 0.42495 0.77809 0.0
O138 O 0.17841 0.39573 0.78233 0.0
O139 O 0.18146 0.41583 0.78942 0.0
O140 O 0.11449 0.42542 0.53198 0.0
Cd141 Cd 0.12489 0.43097 0.50558 0.0
Cd142 Cd 0.09302 0.40822 0.49994 0.0
O143 O 0.07867 0.40846 0.52738 0.0
O144 O 0.13302 0.44942 0.50792 0.0
O145 O 0.08198 0.44115 0.49357 0.0
C146 C 0.09972 0.45098 0.4997 0.0
C147 C 0.05132 0.40406 0.4754 0.0
C148 C 0.09399 0.41641 0.53816 0.0
C149 C 0.17904 0.41154 0.49089 0.0
O150 O 0.15076 0.40408 0.4942 0.0
O151 O 0.17435 0.42328 0.49293 0.0
O152 O 0.06214 0.39531 0.48643 0.0
O153 O 0.06136 0.41542 0.47932 0.0
O154 O 0.12596 0.8442 0.53087 0.0
Cd155 Cd 0.11926 0.83883 0.50417 0.0
Cd156 Cd 0.15154 0.86148 0.49978 0.0
O157 O 0.16339 0.86093 0.52749 0.0
O158 O 0.1117 0.82033 0.50594 0.0
O159 O 0.16409 0.82896 0.49316 0.0
C160 C 0.14608 0.81899 0.49864 0.0
C161 C 0.19484 0.86621 0.47609 0.0
C162 C 0.14618 0.85304 0.53775 0.0
C163 C 0.06653 0.85832 0.48885 0.0
O164 O 0.09431 0.86574 0.49314 0.0
O165 O 0.07118 0.84655 0.49048 0.0
O166 O 0.18347 0.87468 0.48747 0.0
O167 O 0.18454 0.85477 0.47924 0.0
O168 O 0.87916 0.17586 0.28112 0.0
Cd169 Cd 0.87122 0.1812 0.25447 0.0
Cd170 Cd 0.90298 0.15843 0.24995 0.0
O171 O 0.91541 0.15887 0.27761 0.0
O172 O 0.86329 0.19969 0.25637 0.0
O173 O 0.91525 0.1912 0.24303 0.0
C174 C 0.89725 0.20112 0.2487 0.0
C175 C 0.94589 0.15424 0.22591 0.0
C176 C 0.89906 0.16692 0.28792 0.0
C177 C 0.81769 0.16174 0.23956 0.0
O178 O 0.84557 0.15428 0.24353 0.0
O179 O 0.8225 0.1735 0.24127 0.0
O180 O 0.93469 0.1455 0.2369 0.0
O181 O 0.93562 0.1656 0.22967 0.0
O182 O 0.86841 0.59472 0.2813 0.0
Cd183 Cd 0.87532 0.58928 0.2546 0.0
Cd184 Cd 0.8461 0.61243 0.25031 0.0
O185 O 0.83394 0.61208 0.27797 0.0
O186 O 0.88266 0.57077 0.25663 0.0
O187 O 0.83073 0.57936 0.2434 0.0
C188 C 0.84859 0.56941 0.24905 0.0
C189 C 0.80317 0.61691 0.22639 0.0
C190 C 0.84962 0.60386 0.28819 0.0
C191 C 0.93063 0.60823 0.23955 0.0
O192 O 0.90385 0.61602 0.24379 0.0
O193 O 0.92432 0.59653 0.24111 0.0
O194 O 0.8153 0.62558 0.23728 0.0
O195 O 0.81261 0.60547 0.23016 0.0
O196 O 0.88145 0.59482 0.4872 0.0
Cd197 Cd 0.87114 0.58899 0.51349 0.0
Cd198 Cd 0.90038 0.61208 0.51946 0.0
O199 O 0.91523 0.61215 0.49209 0.0
O200 O 0.86381 0.57053 0.51066 0.0
O201 O 0.91429 0.57882 0.52539 0.0
C202 C 0.89699 0.56899 0.51897 0.0
C203 C 0.94146 0.6164 0.54414 0.0
C204 C 0.901 0.60408 0.48118 0.0
C205 C 0.8147 0.60782 0.52815 0.0
O206 O 0.84212 0.61562 0.52496 0.0
O207 O 0.82086 0.59615 0.52611 0.0
O208 O 0.92996 0.62515 0.53324 0.0
O209 O 0.93237 0.60499 0.54005 0.0
O210 O 0.86754 0.17561 0.48716 0.0
Cd211 Cd 0.87708 0.18138 0.51355 0.0
Cd212 Cd 0.84786 0.15828 0.5192 0.0
O213 O 0.83368 0.15825 0.49176 0.0
O214 O 0.88437 0.19984 0.51087 0.0
O215 O 0.83356 0.19148 0.52525 0.0
C216 C 0.85096 0.20134 0.51899 0.0
C217 C 0.8062 0.15401 0.54367 0.0
C218 C 0.84817 0.16635 0.48098 0.0
C219 C 0.93319 0.16255 0.52849 0.0
O220 O 0.90597 0.15473 0.52504 0.0
O221 O 0.92699 0.17423 0.52648 0.0
O222 O 0.81787 0.14524 0.53284 0.0
O223 O 0.81545 0.16541 0.5396 0.0
O224 O 0.62134 0.34416 0.73614 0.0
Cd225 Cd 0.62784 0.33899 0.76295 0.0
Cd226 Cd 0.5952 0.3616 0.76696 0.0
O227 O 0.58362 0.36085 0.73925 0.0
O228 O 0.63556 0.32047 0.76155 0.0
O229 O 0.58296 0.3292 0.77403 0.0
C230 C 0.60111 0.31919 0.7688 0.0
C231 C 0.55157 0.36627 0.79055 0.0
C232 C 0.60104 0.35292 0.72912 0.0
C233 C 0.68008 0.35866 0.77815 0.0
O234 O 0.65226 0.36601 0.77368 0.0
O235 O 0.6756 0.34687 0.77666 0.0
O236 O 0.56277 0.37474 0.77914 0.0
O237 O 0.56224 0.35485 0.78747 0.0
O238 O 0.63247 0.92573 0.73637 0.0
Cd239 Cd 0.62234 0.93114 0.76284 0.0
Cd240 Cd 0.65413 0.9084 0.76832 0.0
O241 O 0.66859 0.90882 0.7409 0.0
O242 O 0.61443 0.94962 0.76075 0.0
O243 O 0.66549 0.94118 0.77491 0.0
C244 C 0.64783 0.95108 0.76893 0.0
C245 C 0.69577 0.90366 0.79267 0.0
C246 C 0.65312 0.91677 0.73015 0.0
C247 C 0.56813 0.91169 0.77735 0.0
O248 O 0.59634 0.90422 0.77392 0.0
O249 O 0.57293 0.92344 0.77546 0.0
O250 O 0.68493 0.89518 0.7812 0.0
O251 O 0.68575 0.91511 0.78934 0.0
O252 O 0.62102 0.92636 0.5302 0.0
Cd253 Cd 0.62792 0.93184 0.50353 0.0
Cd254 Cd 0.5986 0.90872 0.49914 0.0
O255 O 0.58641 0.90903 0.5268 0.0
O256 O 0.63522 0.95035 0.5057 0.0
O257 O 0.58323 0.9418 0.49248 0.0
C258 C 0.60106 0.95173 0.49822 0.0
C259 C 0.55567 0.90426 0.47521 0.0
C260 C 0.60213 0.91723 0.53705 0.0
C261 C 0.68317 0.9129 0.48841 0.0
O262 O 0.65635 0.90512 0.49262 0.0
O263 O 0.67691 0.9246 0.48999 0.0
O264 O 0.56779 0.89558 0.48608 0.0
O265 O 0.56513 0.91569 0.479 0.0
O266 O 0.63244 0.3448 0.53009 0.0
Cd267 Cd 0.6218 0.33904 0.50379 0.0
Cd268 Cd 0.65078 0.36217 0.49787 0.0
O269 O 0.66579 0.36223 0.52522 0.0
O270 O 0.61443 0.32058 0.5066 0.0
O271 O 0.66475 0.32886 0.49176 0.0
C272 C 0.64751 0.31904 0.49821 0.0
C273 C 0.6918 0.36647 0.47316 0.0
C274 C 0.65186 0.35409 0.53611 0.0
C275 C 0.56506 0.35786 0.48933 0.0
O276 O 0.59247 0.36568 0.49244 0.0
O277 O 0.57131 0.34619 0.49136 0.0
O278 O 0.6803 0.37523 0.48404 0.0
O279 O 0.68271 0.35507 0.47727 0.0
O280 O 0.37352 0.67696 0.28225 0.0
Cd281 Cd 0.36689 0.68214 0.25546 0.0
Cd282 Cd 0.39901 0.65944 0.25137 0.0
O283 O 0.41065 0.66014 0.27909 0.0
O284 O 0.35951 0.70067 0.25688 0.0
O285 O 0.41182 0.69186 0.24427 0.0
C286 C 0.39389 0.7019 0.24954 0.0
C287 C 0.4424 0.65463 0.22775 0.0
C288 C 0.39356 0.66813 0.28924 0.0
C289 C 0.31413 0.66259 0.24028 0.0
O290 O 0.34183 0.65517 0.24467 0.0
O291 O 0.31883 0.67437 0.24183 0.0
O292 O 0.43101 0.6462 0.23918 0.0
O293 O 0.43208 0.66608 0.23082 0.0
O294 O 0.36758 0.09467 0.28271 0.0
Cd295 Cd 0.3767 0.08904 0.25624 0.0
Cd296 Cd 0.34741 0.11217 0.25081 0.0
O297 O 0.33331 0.11196 0.27826 0.0
O298 O 0.38393 0.07056 0.25866 0.0
O299 O 0.33291 0.07904 0.24455 0.0
C300 C 0.35037 0.06913 0.25063 0.0
C301 C 0.30574 0.1172 0.2266 0.0
C302 C 0.34806 0.10387 0.28898 0.0
C303 C 0.43269 0.10793 0.24142 0.0
O304 O 0.40554 0.11574 0.24502 0.0
O305 O 0.42644 0.09625 0.24327 0.0
O306 O 0.31763 0.12562 0.23793 0.0
O307 O 0.3148 0.10567 0.22997 0.0
O308 O 0.3794 0.09458 0.48886 0.0
Cd309 Cd 0.37153 0.0892 0.5155 0.0
Cd310 Cd 0.40334 0.11198 0.52003 0.0
O311 O 0.41576 0.11154 0.49238 0.0
O312 O 0.36348 0.07072 0.51351 0.0
O313 O 0.4156 0.07915 0.52682 0.0
C314 C 0.3975 0.06925 0.5211 0.0
C315 C 0.44619 0.11623 0.54409 0.0
C316 C 0.39934 0.1035 0.48207 0.0
C317 C 0.31806 0.10866 0.53045 0.0
O318 O 0.34592 0.11612 0.52644 0.0
O319 O 0.32288 0.0969 0.52876 0.0
O320 O 0.43495 0.12494 0.53307 0.0
O321 O 0.436 0.10486 0.54035 0.0
O322 O 0.3642 0.67588 0.48848 0.0
Cd323 Cd 0.37501 0.68142 0.51485 0.0
Cd324 Cd 0.34296 0.65871 0.52062 0.0
O325 O 0.32831 0.65895 0.4932 0.0
O326 O 0.38326 0.69987 0.51247 0.0
O327 O 0.33224 0.69164 0.52689 0.0
C328 C 0.34998 0.70146 0.52069 0.0
C329 C 0.30144 0.6546 0.54523 0.0
C330 C 0.34353 0.66689 0.48237 0.0
C331 C 0.42918 0.66194 0.52938 0.0
O332 O 0.40074 0.65451 0.52619 0.0
O333 O 0.4246 0.67368 0.52733 0.0
O334 O 0.31209 0.64583 0.53419 0.0
O335 O 0.31157 0.66595 0.5413 0.0
O336 O 0.61587 0.84467 0.2367 0.0
Cd337 Cd 0.62538 0.83925 0.26321 0.0
Cd338 Cd 0.59335 0.86195 0.2686 0.0
O339 O 0.57939 0.86151 0.24112 0.0
O340 O 0.63305 0.82076 0.26123 0.0
O341 O 0.58174 0.8293 0.27503 0.0
C342 C 0.59939 0.81936 0.26919 0.0
C343 C 0.5513 0.8667 0.29279 0.0
C344 C 0.59519 0.8536 0.23041 0.0
C345 C 0.67917 0.85871 0.27804 0.0
O346 O 0.65101 0.86616 0.27447 0.0
O347 O 0.67449 0.84696 0.27611 0.0
O348 O 0.56229 0.87517 0.28135 0.0
O349 O 0.56139 0.85525 0.28951 0.0
O350 O 0.62649 0.42621 0.23561 0.0
Cd351 Cd 0.61958 0.4315 0.26237 0.0
Cd352 Cd 0.64935 0.40847 0.26652 0.0
O353 O 0.66198 0.40906 0.23892 0.0
O354 O 0.61207 0.45001 0.26058 0.0
O355 O 0.66414 0.44138 0.27365 0.0
C356 C 0.64618 0.45135 0.26813 0.0
C357 C 0.69195 0.40356 0.2904 0.0
C358 C 0.64586 0.4172 0.2287 0.0
C359 C 0.56464 0.41235 0.27709 0.0
O360 O 0.59158 0.40465 0.27273 0.0
O361 O 0.57077 0.42407 0.2758 0.0
O362 O 0.68028 0.39512 0.27903 0.0
O363 O 0.68223 0.41505 0.28718 0.0
O364 O 0.6141 0.42548 0.02957 0.0
Cd365 Cd 0.62405 0.43131 1.00325 0.0
Cd366 Cd 0.59512 0.40813 0.99739 0.0
O367 O 0.58075 0.40804 0.02481 0.0
O368 O 0.6315 0.44976 1.00617 0.0
O369 O 0.58081 0.44153 0.99152 0.0
C370 C 0.59822 0.45133 0.99796 0.0
C371 C 0.55354 0.40369 0.97292 0.0
C372 C 0.59487 0.41617 0.03566 0.0
C373 C 0.68056 0.41257 0.98837 0.0
O374 O 0.65335 0.40471 0.99162 0.0
O375 O 0.67424 0.42423 0.9905 0.0
O376 O 0.56554 0.39498 0.98376 0.0
O377 O 0.56247 0.41513 0.97695 0.0
O378 O 0.62664 0.84424 0.03043 0.0
Cd379 Cd 0.61924 0.8388 1.00377 0.0
Cd380 Cd 0.64855 0.86192 0.99935 0.0
O381 O 0.66113 0.86159 0.02698 0.0
O382 O 0.61188 0.8203 1.00591 0.0
O383 O 0.66366 0.82884 0.99252 0.0
C384 C 0.6459 0.81891 0.9983 0.0
C385 C 0.69118 0.86633 0.9753 0.0
C386 C 0.6456 0.85337 0.03725 0.0
C387 C 0.56376 0.85778 0.98892 0.0
O388 O 0.59071 0.86554 0.99303 0.0
O389 O 0.57 0.84608 0.99046 0.0
O390 O 0.67927 0.87503 0.9862 0.0
O391 O 0.68168 0.85491 0.97912 0.0
O392 O 0.37793 0.17653 0.78109 0.0
Cd393 Cd 0.37054 0.18171 0.75435 0.0
Cd394 Cd 0.40257 0.15898 0.75009 0.0
O395 O 0.41483 0.15968 0.77776 0.0
O396 O 0.36283 0.20022 0.7559 0.0
O397 O 0.41499 0.19155 0.74296 0.0
C398 C 0.397 0.20154 0.74839 0.0
C399 C 0.44565 0.15411 0.72636 0.0
C400 C 0.39807 0.16769 0.78799 0.0
C401 C 0.31731 0.16215 0.73955 0.0
O402 O 0.34519 0.15473 0.74371 0.0
O403 O 0.32206 0.17392 0.74107 0.0
O404 O 0.43429 0.1457 0.73782 0.0
O405 O 0.4354 0.16558 0.72942 0.0
O406 O 0.36932 0.59471 0.78241 0.0
Cd407 Cd 0.37621 0.58951 0.75563 0.0
Cd408 Cd 0.34404 0.61223 0.75151 0.0
O409 O 0.33216 0.61152 0.77921 0.0
O410 O 0.38403 0.571 0.75715 0.0
O411 O 0.3316 0.57965 0.74441 0.0
C412 C 0.34974 0.56967 0.74975 0.0
C413 C 0.30079 0.61711 0.72784 0.0
C414 C 0.3492 0.60353 0.78937 0.0
C415 C 0.42902 0.60908 0.74056 0.0
O416 O 0.40128 0.6165 0.74492 0.0
O417 O 0.42431 0.5973 0.74209 0.0
O418 O 0.3122 0.62551 0.73931 0.0
O419 O 0.31101 0.60564 0.73089 0.0
O420 O 0.38016 0.59494 0.98854 0.0
Cd421 Cd 0.36993 0.58909 0.01482 0.0
Cd422 Cd 0.39872 0.61229 0.02081 0.0
O423 O 0.4133 0.61241 0.99341 0.0
O424 O 0.36253 0.57065 0.01186 0.0
O425 O 0.41303 0.57887 0.02666 0.0
C426 C 0.3957 0.56906 0.02016 0.0
C427 C 0.44002 0.61679 0.04537 0.0
C428 C 0.39936 0.60428 0.98251 0.0
C429 C 0.31317 0.60779 0.02959 0.0
O430 O 0.34041 0.61567 0.02646 0.0
O431 O 0.31954 0.59614 0.02744 0.0
O432 O 0.42804 0.62548 0.03449 0.0
O433 O 0.43125 0.60534 0.04134 0.0
O434 O 0.367 0.17613 0.98728 0.0
Cd435 Cd 0.3765 0.1819 0.01367 0.0
Cd436 Cd 0.34736 0.15878 0.01934 0.0
O437 O 0.33311 0.15878 0.9919 0.0
O438 O 0.38367 0.20037 0.01101 0.0
O439 O 0.33281 0.19197 0.02531 0.0
C440 C 0.35017 0.20184 0.01907 0.0
C441 C 0.30581 0.15445 0.04384 0.0
C442 C 0.3476 0.16688 0.98111 0.0
C443 C 0.43268 0.16309 0.02861 0.0
O444 O 0.40549 0.15526 0.02515 0.0
O445 O 0.42644 0.17476 0.02661 0.0
O446 O 0.31749 0.1457 0.03297 0.0
O447 O 0.31496 0.16586 0.03979 0.0
C448 C 0.09076 0.36666 0.20214 0.0
C449 C 0.09256 0.35479 0.21034 0.0
C450 C 0.09391 0.36785 0.18318 0.0
C451 C 0.08292 0.35039 0.14034 0.0
H452 H 0.1657 0.37178 0.1213 0.0
C453 C 0.13893 0.34356 0.06792 0.0
C454 C 0.14645 0.35415 0.05717 0.0
C455 C 0.13264 0.34471 0.08659 0.0
C456 C 0.14208 0.3659 0.12635 0.0
H457 H 0.09718 0.33489 0.20516 0.0
H458 H 0.10151 0.33694 0.17223 0.0
H459 H 0.15 0.37225 0.15384 0.0
H460 H 0.15508 0.37422 0.05772 0.0
H461 H 0.14344 0.3763 0.09051 0.0
H462 H 0.07472 0.34399 0.11309 0.0
C463 C 0.09807 0.34533 0.18036 0.0
C464 C 0.13306 0.36619 0.14497 0.0
C465 C 0.09569 0.34415 0.19922 0.0
C466 C 0.14955 0.36589 0.06569 0.0
C467 C 0.14279 0.36706 0.08446 0.0
C468 C 0.09164 0.35017 0.12179 0.0
C469 C 0.09801 0.35718 0.17214 0.0
C470 C 0.10401 0.35821 0.15219 0.0
C471 C 0.13311 0.35651 0.09503 0.0
C472 C 0.12205 0.35766 0.1146 0.0
H473 H 0.08872 0.37502 0.21041 0.0
H474 H 0.0936 0.3771 0.17716 0.0
H475 H 0.05998 0.34427 0.14549 0.0
H476 H 0.13683 0.33437 0.0618 0.0
H477 H 0.1266 0.33632 0.09436 0.0
C478 C 0.0905 0.9043 0.06676 0.0
C479 C 0.09385 0.91615 0.05859 0.0
C480 C 0.09364 0.90303 0.08571 0.0
C481 C 0.08535 0.92063 0.12859 0.0
H482 H 0.16452 0.8979 0.14762 0.0
C483 C 0.14238 0.92653 0.20097 0.0
C484 C 0.14771 0.91582 0.21177 0.0
C485 C 0.13612 0.92548 0.18229 0.0
C486 C 0.14191 0.90416 0.14257 0.0
H487 H 0.10127 0.93596 0.06385 0.0
H488 H 0.10566 0.93378 0.09674 0.0
H489 H 0.14879 0.8977 0.11508 0.0
H490 H 0.15259 0.89563 0.21129 0.0
H491 H 0.14105 0.89374 0.17846 0.0
H492 H 0.07825 0.92715 0.15584 0.0
C493 C 0.10098 0.92547 0.08859 0.0
C494 C 0.13287 0.90403 0.12395 0.0
C495 C 0.09858 0.92671 0.06974 0.0
C496 C 0.14877 0.90404 0.20328 0.0
C497 C 0.14206 0.90297 0.18449 0.0
C498 C 0.09412 0.9207 0.14713 0.0
C499 C 0.0993 0.91361 0.09678 0.0
C500 C 0.10516 0.91248 0.11673 0.0
C501 C 0.13447 0.91368 0.17388 0.0
C502 C 0.12326 0.91271 0.15432 0.0
H503 H 0.08718 0.89599 0.05847 0.0
H504 H 0.09205 0.89379 0.09169 0.0
H505 H 0.06343 0.92711 0.12345 0.0
H506 H 0.1419 0.93575 0.20707 0.0
H507 H 0.13172 0.93395 0.17448 0.0
C508 C 0.88786 0.67721 0.81917 0.0
C509 C 0.89436 0.6666 0.80832 0.0
C510 C 0.88139 0.67604 0.83782 0.0
C511 C 0.8887 0.65458 0.87735 0.0
H512 H 0.80849 0.67685 0.89666 0.0
C513 C 0.83733 0.65396 0.95312 0.0
C514 C 0.8401 0.66577 0.96142 0.0
C515 C 0.84035 0.65281 0.93415 0.0
C516 C 0.83089 0.67056 0.89146 0.0
H517 H 0.901 0.64645 0.80866 0.0
H518 H 0.88907 0.64434 0.84141 0.0
H519 H 0.82339 0.67716 0.86428 0.0
H520 H 0.8463 0.68565 0.95641 0.0
H521 H 0.85044 0.68369 0.92347 0.0
H522 H 0.89595 0.64803 0.90477 0.0
C523 C 0.88935 0.6536 0.83546 0.0
C524 C 0.8397 0.67079 0.87293 0.0
C525 C 0.89627 0.6548 0.81671 0.0
C526 C 0.84406 0.67643 0.9504 0.0
C527 C 0.84632 0.67531 0.93153 0.0
C528 C 0.87959 0.65429 0.89596 0.0
C529 C 0.88068 0.6642 0.84613 0.0
C530 C 0.86946 0.66306 0.86568 0.0
C531 C 0.8453 0.66349 0.92321 0.0
C532 C 0.85124 0.66249 0.90325 0.0
H533 H 0.88669 0.68645 0.81315 0.0
H534 H 0.87614 0.68444 0.84569 0.0
H535 H 0.91179 0.64852 0.87226 0.0
H536 H 0.83463 0.64558 0.96132 0.0
H537 H 0.83929 0.6436 0.92805 0.0
C538 C 0.89062 0.09369 0.95121 0.0
C539 C 0.8982 0.10427 0.96197 0.0
C540 C 0.88443 0.09484 0.93254 0.0
C541 C 0.89436 0.116 0.89281 0.0
H542 H 0.81193 0.09452 0.87358 0.0
C543 C 0.84338 0.11687 0.81698 0.0
C544 C 0.84481 0.105 0.80876 0.0
C545 C 0.84653 0.11805 0.83594 0.0
C546 C 0.83496 0.10059 0.87875 0.0
H547 H 0.90705 0.12433 0.96145 0.0
H548 H 0.8956 0.12641 0.92865 0.0
H549 H 0.82655 0.09421 0.90599 0.0
H550 H 0.84878 0.08508 0.81393 0.0
H551 H 0.85315 0.08711 0.84686 0.0
H552 H 0.9025 0.12233 0.86533 0.0
C553 C 0.89482 0.11718 0.93469 0.0
C554 C 0.84361 0.10036 0.89731 0.0
C555 C 0.90147 0.116 0.95347 0.0
C556 C 0.84759 0.09435 0.81987 0.0
C557 C 0.84999 0.09551 0.83874 0.0
C558 C 0.88542 0.1163 0.87418 0.0
C559 C 0.88507 0.10664 0.92411 0.0
C560 C 0.87413 0.1078 0.90453 0.0
C561 C 0.85028 0.10736 0.84697 0.0
C562 C 0.85625 0.10837 0.86693 0.0
H563 H 0.8884 0.08449 0.95733 0.0
H564 H 0.87833 0.08646 0.92476 0.0
H565 H 0.91806 0.12184 0.89788 0.0
H566 H 0.8416 0.12524 0.80873 0.0
H567 H 0.84648 0.12729 0.84197 0.0
C568 C 0.09168 0.86824 0.70258 0.0
C569 C 0.09179 0.85636 0.71078 0.0
C570 C 0.09477 0.86939 0.68362 0.0
C571 C 0.08115 0.85203 0.64078 0.0
H572 H 0.16678 0.87225 0.6217 0.0
C573 C 0.13755 0.84402 0.56871 0.0
C574 C 0.14628 0.85443 0.55779 0.0
C575 C 0.13104 0.8454 0.58733 0.0
C576 C 0.14238 0.86671 0.62676 0.0
H577 H 0.09326 0.83641 0.70558 0.0
H578 H 0.09752 0.8384 0.67266 0.0
H579 H 0.15099 0.87304 0.65421 0.0
H580 H 0.15686 0.87442 0.558 0.0
H581 H 0.14494 0.87689 0.59071 0.0
H582 H 0.07237 0.84563 0.61357 0.0
C583 C 0.09543 0.84683 0.68079 0.0
C584 C 0.13331 0.86718 0.64537 0.0
C585 C 0.0931 0.84569 0.69965 0.0
C586 C 0.15037 0.86621 0.5661 0.0
C587 C 0.14345 0.86762 0.58482 0.0
C588 C 0.08997 0.85163 0.62225 0.0
C589 C 0.09711 0.85867 0.67257 0.0
C590 C 0.10321 0.8596 0.65261 0.0
C591 C 0.13257 0.85726 0.59555 0.0
C592 C 0.1214 0.85868 0.61506 0.0
H593 H 0.09107 0.87662 0.71086 0.0
H594 H 0.09581 0.87863 0.6776 0.0
H595 H 0.05742 0.84623 0.64594 0.0
H596 H 0.13469 0.83479 0.56277 0.0
H597 H 0.12404 0.83715 0.59524 0.0
C598 C 0.09397 0.42567 0.56924 0.0
C599 C 0.09063 0.41503 0.55813 0.0
C600 C 0.09622 0.4245 0.5881 0.0
C601 C 0.13023 0.40348 0.62359 0.0
H602 H 0.07355 0.42621 0.65531 0.0
C603 C 0.14691 0.40414 0.7029 0.0
C604 C 0.14506 0.41598 0.7112 0.0
C605 C 0.13995 0.40287 0.68416 0.0
C606 C 0.08998 0.41987 0.64665 0.0
H607 H 0.08622 0.39482 0.55808 0.0
H608 H 0.09079 0.39275 0.59133 0.0
H609 H 0.05857 0.42587 0.62294 0.0
H610 H 0.13748 0.43581 0.70619 0.0
H611 H 0.12677 0.43367 0.67369 0.0
H612 H 0.16259 0.39778 0.64729 0.0
C613 C 0.09142 0.40199 0.58531 0.0
C614 C 0.08113 0.41962 0.62812 0.0
C615 C 0.08844 0.40318 0.56634 0.0
C616 C 0.13859 0.42654 0.70025 0.0
C617 C 0.13204 0.42529 0.68162 0.0
C618 C 0.13934 0.40379 0.6422 0.0
C619 C 0.09577 0.41265 0.59634 0.0
C620 C 0.10169 0.41162 0.61631 0.0
C621 C 0.13127 0.41342 0.6734 0.0
C622 C 0.11994 0.41222 0.65388 0.0
H623 H 0.09577 0.43492 0.5633 0.0
H624 H 0.09989 0.43288 0.59622 0.0
H625 H 0.14675 0.39728 0.61476 0.0
H626 H 0.15163 0.39582 0.71102 0.0
H627 H 0.13964 0.39359 0.67827 0.0
C628 C 0.89249 0.17617 0.31884 0.0
C629 C 0.8997 0.16561 0.30797 0.0
C630 C 0.88617 0.17495 0.33749 0.0
C631 C 0.89524 0.15369 0.37708 0.0
H632 H 0.81257 0.17515 0.39611 0.0
C633 C 0.84409 0.15296 0.45289 0.0
C634 C 0.8452 0.16487 0.46101 0.0
C635 C 0.84731 0.15172 0.43394 0.0
C636 C 0.83567 0.16908 0.391 0.0
H637 H 0.90787 0.14552 0.30829 0.0
H638 H 0.89629 0.14332 0.34108 0.0
H639 H 0.82758 0.17548 0.36374 0.0
H640 H 0.84867 0.18478 0.45568 0.0
H641 H 0.85322 0.18263 0.42279 0.0
H642 H 0.90316 0.14736 0.40458 0.0
C643 C 0.89583 0.15258 0.33512 0.0
C644 C 0.84452 0.16932 0.37246 0.0
C645 C 0.90257 0.15383 0.31635 0.0
C646 C 0.84773 0.17548 0.44982 0.0
C647 C 0.85022 0.17426 0.43097 0.0
C648 C 0.88613 0.15338 0.39569 0.0
C649 C 0.88636 0.16311 0.34579 0.0
C650 C 0.87514 0.16189 0.36532 0.0
C651 C 0.85082 0.16237 0.42283 0.0
C652 C 0.85689 0.16131 0.40288 0.0
H653 H 0.89059 0.1854 0.31282 0.0
H654 H 0.88028 0.18331 0.34535 0.0
H655 H 0.91899 0.14785 0.37205 0.0
H656 H 0.84251 0.14462 0.46122 0.0
H657 H 0.84751 0.14246 0.42799 0.0
C658 C 0.84704 0.61697 0.31665 0.0
C659 C 0.84955 0.60518 0.30825 0.0
C660 C 0.85406 0.61822 0.33539 0.0
C661 C 0.90545 0.60142 0.37265 0.0
H662 H 0.84696 0.62334 0.40488 0.0
C663 C 0.90209 0.59506 0.44996 0.0
C664 C 0.90437 0.60564 0.46124 0.0
C665 C 0.8998 0.59634 0.43112 0.0
C666 C 0.86396 0.61734 0.39597 0.0
H667 H 0.85838 0.58537 0.3131 0.0
H668 H 0.86926 0.58747 0.34559 0.0
H669 H 0.83108 0.62293 0.37236 0.0
H670 H 0.90691 0.62588 0.46161 0.0
H671 H 0.9023 0.62816 0.42839 0.0
H672 H 0.93742 0.59553 0.39626 0.0
C673 C 0.8634 0.59584 0.33774 0.0
C674 C 0.85482 0.61708 0.37735 0.0
C675 C 0.85676 0.59461 0.31911 0.0
C676 C 0.90551 0.61756 0.45322 0.0
C677 C 0.90251 0.61887 0.43427 0.0
C678 C 0.91434 0.60162 0.39119 0.0
C679 C 0.86348 0.60768 0.34604 0.0
C680 C 0.87484 0.60888 0.36556 0.0
C681 C 0.89918 0.60825 0.42306 0.0
C682 C 0.89317 0.60937 0.40311 0.0
H683 H 0.84173 0.62529 0.30861 0.0
H684 H 0.85382 0.62747 0.34136 0.0
H685 H 0.92232 0.59527 0.3639 0.0
H686 H 0.90112 0.58574 0.45575 0.0
H687 H 0.89694 0.58799 0.42287 0.0
C688 C 0.65425 0.34496 0.56723 0.0
C689 C 0.65543 0.3556 0.55604 0.0
C690 C 0.652 0.34615 0.58609 0.0
C691 C 0.61393 0.36656 0.62138 0.0
H692 H 0.67521 0.34523 0.65334 0.0
C693 C 0.59672 0.36592 0.70062 0.0
C694 C 0.60108 0.3542 0.70906 0.0
C695 C 0.60368 0.36725 0.68189 0.0
C696 C 0.6575 0.35116 0.64461 0.0
H697 H 0.65602 0.37586 0.55585 0.0
H698 H 0.6514 0.37796 0.58909 0.0
H699 H 0.69012 0.34573 0.62096 0.0
H700 H 0.61323 0.33457 0.70432 0.0
H701 H 0.62392 0.33677 0.67182 0.0
H702 H 0.58037 0.37168 0.645 0.0
C703 C 0.6525 0.3687 0.58313 0.0
C704 C 0.66631 0.35151 0.62608 0.0
C705 C 0.65551 0.3675 0.56417 0.0
C706 C 0.61015 0.34375 0.69827 0.0
C707 C 0.61668 0.34505 0.67964 0.0
C708 C 0.60486 0.36615 0.63999 0.0
C709 C 0.65025 0.35802 0.59424 0.0
C710 C 0.64414 0.35901 0.61419 0.0
C711 C 0.61485 0.35686 0.67128 0.0
C712 C 0.62597 0.35821 0.65175 0.0
H713 H 0.6541 0.33566 0.56135 0.0
H714 H 0.64999 0.33775 0.59428 0.0
H715 H 0.59616 0.37236 0.61249 0.0
H716 H 0.58997 0.37416 0.70862 0.0
H717 H 0.60196 0.37648 0.6759 0.0
C718 C 0.65272 0.92602 0.69907 0.0
C719 C 0.65642 0.9154 0.71018 0.0
C720 C 0.65044 0.92483 0.6802 0.0
C721 C 0.61689 0.9037 0.64478 0.0
H722 H 0.67315 0.92646 0.61296 0.0
C723 C 0.60017 0.90411 0.56548 0.0
C724 C 0.60192 0.91591 0.5571 0.0
C725 C 0.60714 0.90291 0.58423 0.0
C726 C 0.65684 0.92011 0.62164 0.0
H727 H 0.66145 0.89519 0.71023 0.0
H728 H 0.65682 0.89309 0.67699 0.0
H729 H 0.68812 0.92623 0.64534 0.0
H730 H 0.60932 0.93577 0.56196 0.0
H731 H 0.62001 0.93376 0.59448 0.0
H732 H 0.58464 0.89788 0.6211 0.0
C733 C 0.65594 0.90233 0.68301 0.0
C734 C 0.66568 0.91993 0.64018 0.0
C735 C 0.65895 0.90354 0.70197 0.0
C736 C 0.6083 0.92652 0.56797 0.0
C737 C 0.61483 0.92535 0.58662 0.0
C738 C 0.60778 0.90395 0.62617 0.0
C739 C 0.65123 0.91298 0.67197 0.0
C740 C 0.64528 0.91191 0.65202 0.0
C741 C 0.61571 0.91351 0.59491 0.0
C742 C 0.62703 0.91238 0.61445 0.0
H743 H 0.65066 0.93527 0.705 0.0
H744 H 0.64651 0.93319 0.67208 0.0
H745 H 0.6005 0.89748 0.65363 0.0
H746 H 0.59552 0.89575 0.55742 0.0
H747 H 0.60753 0.89364 0.59018 0.0
C748 C 0.38539 0.67736 0.32011 0.0
C749 C 0.39361 0.66685 0.3093 0.0
C750 C 0.37891 0.67611 0.33876 0.0
C751 C 0.38923 0.65483 0.37835 0.0
H752 H 0.30609 0.676 0.39763 0.0
C753 C 0.33846 0.65366 0.45419 0.0
C754 C 0.33987 0.66551 0.46243 0.0
C755 C 0.34137 0.65251 0.43521 0.0
C756 C 0.32931 0.67001 0.39244 0.0
H757 H 0.40323 0.64682 0.30971 0.0
H758 H 0.39127 0.64457 0.34244 0.0
H759 H 0.32084 0.67645 0.36523 0.0
H760 H 0.34346 0.68544 0.45731 0.0
H761 H 0.34734 0.68347 0.42437 0.0
H762 H 0.39745 0.64843 0.40579 0.0
C763 C 0.39022 0.65382 0.33647 0.0
C764 C 0.33803 0.67033 0.37389 0.0
C765 C 0.39716 0.6551 0.31773 0.0
C766 C 0.34228 0.67618 0.45134 0.0
C767 C 0.34441 0.67506 0.43247 0.0
C768 C 0.38021 0.65443 0.39696 0.0
C769 C 0.3799 0.66428 0.3471 0.0
C770 C 0.36882 0.663 0.36665 0.0
C771 C 0.34482 0.66321 0.4242 0.0
C772 C 0.35078 0.66225 0.40424 0.0
H773 H 0.38294 0.68657 0.31407 0.0
H774 H 0.37236 0.68444 0.34658 0.0
H775 H 0.41315 0.64908 0.37327 0.0
H776 H 0.337 0.64527 0.46243 0.0
H777 H 0.34144 0.64327 0.42915 0.0
C778 C 0.39314 0.0942 0.45117 0.0
C779 C 0.40002 0.10479 0.46202 0.0
C780 C 0.38683 0.09538 0.43252 0.0
C781 C 0.39522 0.11665 0.39288 0.0
H782 H 0.31335 0.09487 0.37386 0.0
C783 C 0.34373 0.11721 0.3171 0.0
C784 C 0.34526 0.10532 0.30895 0.0
C785 C 0.34703 0.11845 0.33605 0.0
C786 C 0.33623 0.10103 0.37897 0.0
H787 H 0.4076 0.12491 0.46166 0.0
H788 H 0.39599 0.12703 0.42886 0.0
H789 H 0.32836 0.09462 0.40623 0.0
H790 H 0.34961 0.08542 0.31424 0.0
H791 H 0.35429 0.08756 0.34713 0.0
H792 H 0.40288 0.12299 0.36538 0.0
C793 C 0.39581 0.11778 0.43484 0.0
C794 C 0.34508 0.10083 0.3975 0.0
C795 C 0.40256 0.11657 0.45361 0.0
C796 C 0.34833 0.09471 0.32012 0.0
C797 C 0.3509 0.09593 0.33897 0.0
C798 C 0.3861 0.11691 0.37427 0.0
C799 C 0.38667 0.10722 0.42419 0.0
C800 C 0.37542 0.10837 0.40465 0.0
C801 C 0.35105 0.1078 0.34714 0.0
C802 C 0.35715 0.10887 0.36708 0.0
H803 H 0.39151 0.08497 0.45721 0.0
H804 H 0.38121 0.087 0.42467 0.0
H805 H 0.41875 0.12257 0.39791 0.0
H806 H 0.34173 0.12555 0.3088 0.0
H807 H 0.34687 0.12771 0.34202 0.0
C808 C 0.58926 0.86681 0.20223 0.0
C809 C 0.59213 0.85497 0.21044 0.0
C810 C 0.59232 0.86803 0.18327 0.0
C811 C 0.58309 0.8504 0.14045 0.0
H812 H 0.66338 0.8727 0.12134 0.0
C813 C 0.64013 0.84402 0.06815 0.0
C814 C 0.6461 0.85467 0.0573 0.0
C815 C 0.63376 0.84516 0.08681 0.0
C816 C 0.64045 0.86656 0.12641 0.0
H817 H 0.59858 0.83512 0.20525 0.0
H818 H 0.60282 0.8372 0.17234 0.0
H819 H 0.64764 0.87304 0.15387 0.0
H820 H 0.65195 0.87484 0.05766 0.0
H821 H 0.64021 0.87688 0.09045 0.0
H822 H 0.57569 0.84386 0.11323 0.0
C823 C 0.59859 0.84555 0.18046 0.0
C824 C 0.63141 0.86678 0.14503 0.0
C825 C 0.59626 0.84436 0.19932 0.0
C826 C 0.64763 0.86647 0.06571 0.0
C827 C 0.64081 0.86763 0.08448 0.0
C828 C 0.59186 0.85024 0.12191 0.0
C829 C 0.59742 0.8574 0.17223 0.0
C830 C 0.60329 0.85848 0.15228 0.0
C831 C 0.63262 0.85699 0.09514 0.0
C832 C 0.6214 0.85807 0.1147 0.0
H833 H 0.58641 0.87515 0.21049 0.0
H834 H 0.59114 0.87727 0.17724 0.0
H835 H 0.56086 0.84404 0.14562 0.0
H836 H 0.63928 0.83478 0.06212 0.0
H837 H 0.62888 0.83673 0.09467 0.0
C838 C 0.59108 0.40278 0.06373 0.0
C839 C 0.59162 0.41468 0.05561 0.0
C840 C 0.59416 0.40156 0.08269 0.0
C841 C 0.58136 0.41889 0.12563 0.0
H842 H 0.66587 0.39816 0.14463 0.0
C843 C 0.63808 0.42639 0.19778 0.0
C844 C 0.64605 0.41588 0.20864 0.0
C845 C 0.6316 0.42511 0.17914 0.0
C846 C 0.64178 0.40385 0.13958 0.0
H847 H 0.5939 0.43461 0.06093 0.0
H848 H 0.59819 0.43251 0.09383 0.0
H849 H 0.65007 0.39754 0.1121 0.0
H850 H 0.65535 0.39583 0.20831 0.0
H851 H 0.6435 0.39354 0.17557 0.0
H852 H 0.57292 0.42528 0.15287 0.0
C853 C 0.59574 0.42411 0.08565 0.0
C854 C 0.63269 0.40348 0.12097 0.0
C855 C 0.5934 0.42531 0.0668 0.0
C856 C 0.64945 0.40411 0.20026 0.0
C857 C 0.64257 0.4028 0.18152 0.0
C858 C 0.5902 0.41921 0.14416 0.0
C859 C 0.59696 0.41224 0.09381 0.0
C860 C 0.60302 0.41123 0.11376 0.0
C861 C 0.63241 0.41326 0.17085 0.0
C862 C 0.62123 0.41196 0.15132 0.0
H863 H 0.59008 0.39442 0.05541 0.0
H864 H 0.59483 0.3923 0.08865 0.0
H865 H 0.55793 0.42483 0.12049 0.0
H866 H 0.63576 0.43561 0.20378 0.0
H867 H 0.62515 0.43342 0.17127 0.0
C868 C 0.40205 0.15467 0.81647 0.0
C869 C 0.39853 0.16642 0.80805 0.0
C870 C 0.39531 0.15341 0.83523 0.0
C871 C 0.34323 0.16994 0.8726 0.0
H872 H 0.40291 0.14821 0.90464 0.0
C873 C 0.34671 0.17604 0.94999 0.0
C874 C 0.34454 0.16541 0.96115 0.0
C875 C 0.34913 0.17485 0.93113 0.0
C876 C 0.3856 0.15416 0.89578 0.0
H877 H 0.38821 0.18616 0.81283 0.0
H878 H 0.37792 0.18405 0.84536 0.0
H879 H 0.41861 0.14878 0.87211 0.0
H880 H 0.3424 0.14515 0.9613 0.0
H881 H 0.3473 0.14305 0.92806 0.0
H882 H 0.31115 0.17563 0.89628 0.0
C883 C 0.38431 0.17572 0.83753 0.0
C884 C 0.39462 0.15451 0.87716 0.0
C885 C 0.39062 0.17695 0.81887 0.0
C886 C 0.34371 0.15351 0.953 0.0
C887 C 0.34687 0.15231 0.93404 0.0
C888 C 0.33447 0.16965 0.89114 0.0
C889 C 0.38521 0.16389 0.84587 0.0
C890 C 0.37412 0.16264 0.86542 0.0
C891 C 0.35002 0.16298 0.92295 0.0
C892 C 0.35605 0.16197 0.903 0.0
H893 H 0.4079 0.14638 0.80845 0.0
H894 H 0.3963 0.14416 0.84122 0.0
H895 H 0.32598 0.17602 0.8639 0.0
H896 H 0.34744 0.18533 0.95588 0.0
H897 H 0.35184 0.18324 0.92297 0.0
C898 C 0.35755 0.5943 0.82023 0.0
C899 C 0.34899 0.60479 0.80944 0.0
C900 C 0.36392 0.59555 0.83888 0.0
C901 C 0.35249 0.61663 0.87859 0.0
H902 H 0.43705 0.59593 0.89766 0.0
C903 C 0.40292 0.61773 0.95449 0.0
C904 C 0.4027 0.60582 0.96257 0.0
C905 C 0.39986 0.61897 0.93553 0.0
C906 C 0.41342 0.60179 0.89253 0.0
H907 H 0.33858 0.62478 0.80991 0.0
H908 H 0.35028 0.62703 0.84268 0.0
H909 H 0.4223 0.59552 0.86526 0.0
H910 H 0.40102 0.58589 0.95718 0.0
H911 H 0.3968 0.58804 0.92427 0.0
H912 H 0.34381 0.62283 0.9061 0.0
C913 C 0.35173 0.6178 0.83666 0.0
C914 C 0.40472 0.6015 0.87398 0.0
C915 C 0.34495 0.61652 0.81791 0.0
C916 C 0.40128 0.5952 0.95134 0.0
C917 C 0.39897 0.59642 0.93248 0.0
C918 C 0.36146 0.61699 0.89721 0.0
C919 C 0.36243 0.60736 0.84727 0.0
C920 C 0.37345 0.60864 0.86682 0.0
C921 C 0.39742 0.6083 0.92437 0.0
C922 C 0.3914 0.60934 0.90441 0.0
H923 H 0.36037 0.58511 0.81416 0.0
H924 H 0.37078 0.58724 0.84669 0.0
H925 H 0.32821 0.62224 0.87355 0.0
H926 H 0.40363 0.62608 0.96284 0.0
H927 H 0.39893 0.62824 0.9296 0.0
C928 C 0.95588 0.21493 0.24254 0.0
C929 C 0.91646 0.2136 0.24823 0.0
C930 C 0.97553 0.2264 0.24447 0.0
C931 C 0.97174 0.25557 0.27166 0.0
H932 H 0.046 0.26787 0.23577 0.0
C933 C 0.0417 0.30512 0.27525 0.0
C934 C 0.08104 0.30647 0.26943 0.0
C935 C 0.02206 0.29365 0.27333 0.0
C936 C 0.02575 0.2645 0.24606 0.0
H937 H 0.86631 0.22347 0.25972 0.0
H938 H 0.90028 0.24343 0.2628 0.0
H939 H 0.01032 0.24846 0.23009 0.0
H940 H 0.13106 0.29663 0.25779 0.0
H941 H 0.09714 0.27666 0.25478 0.0
H942 H 0.98718 0.2716 0.28764 0.0
C943 C 0.91633 0.23557 0.25717 0.0
C944 C 0.00521 0.25336 0.24277 0.0
C945 C 0.89672 0.22413 0.25524 0.0
C946 C 0.10072 0.29595 0.26235 0.0
C947 C 0.08112 0.28451 0.26046 0.0
C948 C 0.99229 0.2667 0.27496 0.0
C949 C 0.95623 0.2368 0.25216 0.0
C950 C 0.97789 0.24874 0.25552 0.0
C951 C 0.04128 0.28326 0.26556 0.0
C952 C 0.01961 0.27132 0.26221 0.0
H953 H 0.97204 0.20701 0.23717 0.0
H954 H 0.00632 0.22696 0.24056 0.0
H955 H 0.95147 0.25219 0.28195 0.0
H956 H 0.02558 0.31303 0.28067 0.0
H957 H 0.99132 0.29308 0.27732 0.0
C958 C 0.20557 0.96516 0.27738 0.0
C959 C 0.16622 0.96389 0.27155 0.0
C960 C 0.22542 0.97659 0.27551 0.0
C961 C 0.20976 0.0106 0.26724 0.0
H962 H 0.31747 1.00946 0.24941 0.0
C963 C 0.2917 0.05537 0.24426 0.0
C964 C 0.33098 0.05667 0.25017 0.0
C965 C 0.27187 0.04394 0.24616 0.0
C966 C 0.28754 1.00996 0.25454 0.0
H967 H 0.11649 0.97381 0.25977 0.0
H968 H 0.15098 0.99363 0.25648 0.0
H969 H 0.2823 0.99002 0.25552 0.0
H970 H 0.38063 0.04681 0.2621 0.0
H971 H 0.34619 0.02697 0.26542 0.0
H972 H 0.21499 0.03054 0.26624 0.0
C973 C 0.16655 0.98586 0.26262 0.0
C974 C 0.26738 0.99879 0.25811 0.0
C975 C 0.14676 0.97444 0.26446 0.0
C976 C 0.35042 0.04615 0.25735 0.0
C977 C 0.33066 0.03473 0.25921 0.0
C978 C 0.22992 0.02177 0.26366 0.0
C979 C 0.20637 0.98703 0.2678 0.0
C980 C 0.22821 0.99896 0.26451 0.0
C981 C 0.29089 0.03352 0.25396 0.0
C982 C 0.26908 0.0216 0.25726 0.0
H983 H 0.22146 0.95723 0.28288 0.0
H984 H 0.25587 0.97721 0.27993 0.0
H985 H 0.17983 0.0111 0.27238 0.0
H986 H 0.27582 0.06328 0.23867 0.0
H987 H 0.24146 0.04329 0.24168 0.0
C988 C 0.10141 0.97485 1.0066 0.0
C989 C 0.08163 0.96431 0.99964 0.0
C990 C 0.08173 0.98627 1.00865 0.0
C991 C 0.99207 1.00395 0.99481 0.0
H992 H 0.01142 0.02222 0.03953 0.0
C993 C 0.89621 0.04627 0.0153 0.0
C994 C 0.91596 0.05686 0.02209 0.0
C995 C 0.91603 0.03488 0.01323 0.0
C996 C 0.00593 0.01731 0.02689 0.0
H997 H 0.02589 0.95769 0.98877 0.0
H998 H 0.99149 0.9776 0.99239 0.0
H999 H 0.04729 1.00289 0.03356 0.0
H1000 H 0.97181 0.06361 0.03268 0.0
H1001 H 0.00644 0.04373 0.02907 0.0
H1002 H 0.95065 0.01837 0.98816 0.0
C1003 C 0.02237 0.97706 0.99616 0.0
C1004 C 0.02659 1.00622 0.02343 0.0
C1005 C 0.04209 0.96562 0.99409 0.0
C1006 C 0.95563 0.05563 0.02748 0.0
C1007 C 0.97549 0.04422 0.02542 0.0
C1008 C 0.97139 0.01504 0.99828 0.0
C1009 C 0.04171 0.98747 1.00382 0.0
C1010 C 0.01997 0.99939 1.00733 0.0
C1011 C 0.95616 0.03376 0.01791 0.0
C1012 C 0.978 0.02187 0.01437 0.0
H1013 H 0.1319 0.9742 0.01096 0.0
H1014 H 0.09783 0.99413 0.01423 0.0
H1015 H 0.98658 0.99905 0.98216 0.0
H1016 H 0.86562 0.04685 0.01106 0.0
H1017 H 0.89997 0.02697 1.00776 0.0
C1018 C 0.3502 0.2248 0.0122 0.0
C1019 C 0.3307 0.21429 0.01937 0.0
C1020 C 0.33037 0.23619 0.01013 0.0
C1021 C 0.24089 0.25386 0.02424 0.0
H1022 H 0.25937 0.27203 0.97937 0.0
C1023 C 0.14471 0.29616 1.00391 0.0
C1024 C 0.16439 0.30673 0.99703 0.0
C1025 C 0.16454 0.28476 1.00595 0.0
C1026 C 0.25412 0.26715 0.99205 0.0
H1027 H 0.27529 0.20766 0.03056 0.0
H1028 H 0.24059 0.22752 0.02689 0.0
H1029 H 0.29535 0.25271 0.98528 0.0
H1030 H 0.22011 0.31345 0.98629 0.0
H1031 H 0.25475 0.29357 0.98984 0.0
H1032 H 0.19959 0.2683 0.03099 0.0
C1033 C 0.27138 0.22699 0.02299 0.0
C1034 C 0.27484 0.25606 0.99548 0.0
C1035 C 0.29128 0.21558 0.02508 0.0
C1036 C 0.20399 0.30549 0.99155 0.0
C1037 C 0.22385 0.29407 0.99358 0.0
C1038 C 0.22014 0.26494 0.02081 0.0
C1039 C 0.29045 0.23738 0.01514 0.0
C1040 C 0.26856 0.24927 0.01163 0.0
C1041 C 0.2046 0.28363 1.00116 0.0
C1042 C 0.22645 0.27173 1.00465 0.0
H1043 H 0.38061 0.22417 1.00772 0.0
H1044 H 0.34628 0.24405 1.00441 0.0
H1045 H 0.23565 0.24899 0.03694 0.0
H1046 H 0.11418 0.29675 1.00823 0.0
H1047 H 0.14853 0.27686 0.01148 0.0
C1048 C 0.95418 0.71581 0.74289 0.0
C1049 C 0.91471 0.71457 0.74855 0.0
C1050 C 0.97405 0.72724 0.7448 0.0
C1051 C 0.97077 0.75643 0.77191 0.0
H1052 H 0.04455 0.76873 0.7358 0.0
C1053 C 0.04056 0.806 0.77532 0.0
C1054 C 0.07975 0.80739 0.76933 0.0
C1055 C 0.02096 0.79452 0.77345 0.0
C1056 C 0.02445 0.76535 0.74616 0.0
H1057 H 0.86472 0.72455 0.75997 0.0
H1058 H 0.89907 0.74444 0.76304 0.0
H1059 H 0.00886 0.7493 0.73026 0.0
H1060 H 0.1296 0.79761 0.75743 0.0
H1061 H 0.0958 0.77762 0.75451 0.0
H1062 H 0.98639 0.77247 0.78783 0.0
C1063 C 0.91498 0.73654 0.75745 0.0
C1064 C 0.0039 0.75421 0.74294 0.0
C1065 C 0.89516 0.72514 0.75552 0.0
C1066 C 0.09936 0.7969 0.76212 0.0
C1067 C 0.07983 0.78545 0.76028 0.0
C1068 C 0.99135 0.76757 0.77514 0.0
C1069 C 0.95491 0.73769 0.75245 0.0
C1070 C 0.97672 0.74961 0.75576 0.0
C1071 C 0.04011 0.78416 0.76557 0.0
C1072 C 0.01849 0.77219 0.76231 0.0
H1073 H 0.9702 0.70785 0.73755 0.0
H1074 H 0.00485 0.72775 0.7409 0.0
H1075 H 0.95061 0.75307 0.78225 0.0
H1076 H 0.0245 0.81389 0.78085 0.0
H1077 H 0.99031 0.79392 0.77757 0.0
C1078 C 0.6475 0.97409 0.76239 0.0
C1079 C 0.66691 0.96358 0.76963 0.0
C1080 C 0.66712 0.98555 0.7607 0.0
C1081 C 0.76784 0.99864 0.7569 0.0
H1082 H 0.71486 0.03033 0.76474 0.0
C1083 C 0.85054 0.04604 0.75677 0.0
C1084 C 0.83125 0.05658 0.74953 0.0
C1085 C 0.83078 0.03461 0.75847 0.0
C1086 C 0.72996 0.02157 0.76223 0.0
H1087 H 0.72184 0.95704 0.78143 0.0
H1088 H 0.75595 0.97709 0.77874 0.0
H1089 H 0.67971 0.01084 0.77059 0.0
H1090 H 0.77635 0.06319 0.73779 0.0
H1091 H 0.742 0.04318 0.7405 0.0
H1092 H 0.81808 1.00937 0.74853 0.0
C1093 C 0.72568 0.97641 0.77407 0.0
C1094 C 0.70981 1.01038 0.76565 0.0
C1095 C 0.70599 0.96494 0.77579 0.0
C1096 C 0.79211 0.05527 0.74342 0.0
C1097 C 0.77229 0.04383 0.74515 0.0
C1098 C 0.78798 1.00983 0.75347 0.0
C1099 C 0.70672 0.9868 0.76619 0.0
C1100 C 0.72848 0.99876 0.76304 0.0
C1101 C 0.79116 0.0334 0.75299 0.0
C1102 C 0.76933 0.02145 0.7561 0.0
H1103 H 0.61744 0.97339 0.75744 0.0
H1104 H 0.65165 0.99329 0.75443 0.0
H1105 H 0.78295 0.98988 0.75439 0.0
H1106 H 0.88063 0.0467 0.76168 0.0
H1107 H 0.8462 0.02685 0.76472 0.0
C1108 C 0.70496 0.80519 0.9925 0.0
C1109 C 0.6654 0.80646 0.99802 0.0
C1110 C 0.7248 0.79377 0.99464 0.0
C1111 C 0.72097 0.76474 0.02211 0.0
H1112 H 0.79596 0.75231 0.98662 0.0
C1113 C 0.79072 0.7152 0.02631 0.0
C1114 C 0.83011 0.71379 0.02062 0.0
C1115 C 0.77121 0.72667 0.02427 0.0
C1116 C 0.77552 0.75572 0.99681 0.0
H1117 H 0.61522 0.79655 1.00938 0.0
H1118 H 0.64952 0.77668 0.0128 0.0
H1119 H 0.76028 0.77168 0.98063 0.0
H1120 H 0.88041 0.72354 1.00908 0.0
H1121 H 0.84672 0.74354 1.00586 0.0
H1122 H 0.73621 0.74879 0.03829 0.0
C1123 C 0.66553 0.78455 1.00717 0.0
C1124 C 0.75497 0.76683 0.99333 0.0
C1125 C 0.64573 0.79593 1.00504 0.0
C1126 C 0.85001 0.72426 0.01355 0.0
C1127 C 0.83055 0.73572 0.01153 0.0
C1128 C 0.74153 0.75363 0.02559 0.0
C1129 C 0.70556 0.78337 1.00235 0.0
C1130 C 0.72735 0.77148 1.00592 0.0
C1131 C 0.79064 0.73702 0.0165 0.0
C1132 C 0.7691 0.74897 0.01298 0.0
H1133 H 0.72106 0.81312 0.98713 0.0
H1134 H 0.75568 0.79324 0.99086 0.0
H1135 H 0.70049 0.76814 0.03228 0.0
H1136 H 0.77443 0.70731 0.03172 0.0
H1137 H 0.74041 0.72729 0.02815 0.0
C1138 C 0.29074 0.55595 0.74386 0.0
C1139 C 0.33041 0.5572 0.74924 0.0
C1140 C 0.27109 0.54448 0.74575 0.0
C1141 C 0.27579 0.51508 0.77237 0.0
H1142 H 0.19987 0.50314 0.73694 0.0
C1143 C 0.20513 0.46562 0.77588 0.0
C1144 C 0.16549 0.4644 0.77045 0.0
C1145 C 0.22495 0.47705 0.77389 0.0
C1146 C 0.2206 0.50641 0.7471 0.0
H1147 H 0.38095 0.54721 0.7601 0.0
H1148 H 0.34696 0.52724 0.76311 0.0
H1149 H 0.23552 0.52256 0.73128 0.0
H1150 H 0.11517 0.4744 0.75939 0.0
H1151 H 0.14941 0.49431 0.75625 0.0
H1152 H 0.26085 0.49894 0.7882 0.0
C1153 C 0.33074 0.53516 0.75777 0.0
C1154 C 0.24112 0.51756 0.74382 0.0
C1155 C 0.35035 0.5466 0.75587 0.0
C1156 C 0.14574 0.47498 0.76365 0.0
C1157 C 0.16551 0.48639 0.76168 0.0
C1158 C 0.25526 0.50394 0.77565 0.0
C1159 C 0.29062 0.534 0.75308 0.0
C1160 C 0.26902 0.52204 0.75641 0.0
C1161 C 0.2056 0.48753 0.76643 0.0
C1162 C 0.22734 0.49946 0.76307 0.0
H1163 H 0.27442 0.56393 0.73878 0.0
H1164 H 0.24014 0.54397 0.74211 0.0
H1165 H 0.29652 0.51836 0.78253 0.0
H1166 H 0.22129 0.45765 0.78107 0.0
H1167 H 0.25587 0.47754 0.77759 0.0
C1168 C 0.89694 0.54606 0.51186 0.0
C1169 C 0.9162 0.5565 0.5194 0.0
C1170 C 0.91663 0.53463 0.50998 0.0
C1171 C 0.00436 0.51664 0.5254 0.0
H1172 H 0.98891 0.49869 0.48008 0.0
C1173 C 0.1003 0.47396 0.50655 0.0
C1174 C 0.08082 0.46352 0.49912 0.0
C1175 C 0.08082 0.48543 0.50834 0.0
C1176 C 0.99329 0.50351 0.49288 0.0
H1177 H 0.97098 0.56295 0.53145 0.0
H1178 H 0.00541 0.54301 0.52815 0.0
H1179 H 0.95319 0.51813 0.48552 0.0
H1180 H 0.02589 0.45712 0.48715 0.0
H1181 H 0.99184 0.47714 0.49029 0.0
H1182 H 0.04446 0.50201 0.53277 0.0
C1183 C 0.97493 0.54363 0.52378 0.0
C1184 C 0.97273 0.51466 0.49604 0.0
C1185 C 0.95519 0.55509 0.52566 0.0
C1186 C 0.04185 0.46498 0.49285 0.0
C1187 C 0.02233 0.47648 0.49464 0.0
C1188 C 0.02493 0.50548 0.52225 0.0
C1189 C 0.95614 0.53332 0.51558 0.0
C1190 C 0.97792 0.52137 0.51235 0.0
C1191 C 0.04131 0.48679 0.50275 0.0
C1192 C 0.0197 0.49876 0.50594 0.0
H1193 H 0.86687 0.54678 0.50694 0.0
H1194 H 0.90094 0.52683 0.50396 0.0
H1195 H 0.00872 0.52144 0.53821 0.0
H1196 H 0.13036 0.4732 0.51147 0.0
H1197 H 0.09665 0.49322 0.51429 0.0
C1198 C 0.29174 0.71541 0.52698 0.0
C1199 C 0.33104 0.71399 0.52116 0.0
C1200 C 0.27218 0.72688 0.52493 0.0
C1201 C 0.27618 0.75589 0.49732 0.0
H1202 H 0.20112 0.7683 0.53279 0.0
C1203 C 0.20532 0.80532 0.49297 0.0
C1204 C 0.16569 0.80656 0.49841 0.0
C1205 C 0.22525 0.79392 0.49514 0.0
C1206 C 0.22162 0.7649 0.52262 0.0
H1207 H 0.38114 0.72371 0.50939 0.0
H1208 H 0.3474 0.7437 0.50618 0.0
H1209 H 0.23701 0.74898 0.53884 0.0
H1210 H 0.11552 0.7966 0.50969 0.0
H1211 H 0.15 0.77676 0.5132 0.0
H1212 H 0.2608 0.77183 0.48112 0.0
C1213 C 0.33132 0.7359 0.51195 0.0
C1214 C 0.24228 0.75381 0.52612 0.0
C1215 C 0.35081 0.72444 0.51396 0.0
C1216 C 0.14606 0.79601 0.5054 0.0
C1217 C 0.16597 0.78464 0.50759 0.0
C1218 C 0.25555 0.76699 0.49383 0.0
C1219 C 0.29148 0.73721 0.51703 0.0
C1220 C 0.26985 0.74915 0.51351 0.0
C1221 C 0.20604 0.7835 0.50283 0.0
C1222 C 0.22793 0.77163 0.50642 0.0
H1223 H 0.27554 0.70754 0.53248 0.0
H1224 H 0.24144 0.7275 0.5289 0.0
H1225 H 0.29661 0.75249 0.48712 0.0
H1226 H 0.2214 0.81326 0.48763 0.0
H1227 H 0.25616 0.79342 0.49142 0.0
C1228 C 0.84912 0.54636 0.2553 0.0
C1229 C 0.82923 0.55694 0.24857 0.0
C1230 C 0.82955 0.53491 0.25713 0.0
C1231 C 0.74032 0.51725 0.24281 0.0
H1232 H 0.75983 0.49849 0.28708 0.0
C1233 C 0.64554 0.47442 0.26204 0.0
C1234 C 0.66548 0.46383 0.2687 0.0
C1235 C 0.66508 0.48588 0.26025 0.0
C1236 C 0.7543 0.50354 0.27456 0.0
H1237 H 0.77338 0.56364 0.23792 0.0
H1238 H 0.73915 0.54366 0.24116 0.0
H1239 H 0.79522 0.518 0.28167 0.0
H1240 H 0.72138 0.45712 0.27927 0.0
H1241 H 0.75555 0.47711 0.27612 0.0
H1242 H 0.6994 0.50279 0.23569 0.0
C1243 C 0.77004 0.54419 0.24491 0.0
C1244 C 0.77467 0.51473 0.27143 0.0
C1245 C 0.78966 0.55567 0.24307 0.0
C1246 C 0.70507 0.4651 0.27418 0.0
C1247 C 0.72466 0.47658 0.27238 0.0
C1248 C 0.71995 0.50606 0.24594 0.0
C1249 C 0.78953 0.53372 0.2523 0.0
C1250 C 0.768 0.52173 0.2555 0.0
C1251 C 0.70512 0.48706 0.26505 0.0
C1252 C 0.72663 0.49906 0.26187 0.0
H1253 H 0.87966 0.54698 0.25961 0.0
H1254 H 0.84575 0.527 0.26251 0.0
H1255 H 0.7348 0.52229 0.23028 0.0
H1256 H 0.615 0.4738 0.25774 0.0
H1257 H 0.64885 0.4938 0.25491 0.0
C1258 C 0.64755 0.29611 0.50536 0.0
C1259 C 0.66671 0.30655 0.49776 0.0
C1260 C 0.66728 0.28469 0.50723 0.0
C1261 C 0.76811 0.27167 0.51085 0.0
H1262 H 0.71501 0.23989 0.50399 0.0
C1263 C 0.85083 0.22426 0.51183 0.0
C1264 C 0.83164 0.21381 0.51938 0.0
C1265 C 0.83106 0.23567 0.50993 0.0
C1266 C 0.73015 0.24868 0.50623 0.0
H1267 H 0.7213 0.31298 0.48552 0.0
H1268 H 0.75561 0.29298 0.48855 0.0
H1269 H 0.67972 0.25931 0.49783 0.0
H1270 H 0.77695 0.20734 0.53148 0.0
H1271 H 0.74258 0.22733 0.52842 0.0
H1272 H 0.81854 0.26104 0.51925 0.0
C1273 C 0.72545 0.2937 0.49334 0.0
C1274 C 0.70992 0.25983 0.50262 0.0
C1275 C 0.70565 0.30514 0.49143 0.0
C1276 C 0.79262 0.21519 0.52561 0.0
C1277 C 0.77279 0.22662 0.52368 0.0
C1278 C 0.78834 0.26052 0.51445 0.0
C1279 C 0.70675 0.28339 0.50157 0.0
C1280 C 0.72862 0.27148 0.50488 0.0
C1281 C 0.79153 0.23696 0.51551 0.0
C1282 C 0.76965 0.24887 0.51219 0.0
H1283 H 0.61761 0.29686 0.51044 0.0
H1284 H 0.65201 0.27701 0.51377 0.0
H1285 H 0.78325 0.28045 0.51308 0.0
H1286 H 0.88083 0.22354 0.50683 0.0
H1287 H 0.84637 0.24336 0.50344 0.0
C1288 C 0.39651 0.22462 0.75443 0.0
C1289 C 0.41642 0.214 0.74785 0.0
C1290 C 0.41622 0.23604 0.75635 0.0
C1291 C 0.50633 0.25353 0.74268 0.0
H1292 H 0.48585 0.27227 0.78688 0.0
C1293 C 0.60155 0.29611 0.76274 0.0
C1294 C 0.58162 0.30674 0.76927 0.0
C1295 C 0.58181 0.28469 0.76079 0.0
C1296 C 0.49166 0.26723 0.77438 0.0
H1297 H 0.47245 0.20721 0.73754 0.0
H1298 H 0.5069 0.22713 0.74093 0.0
H1299 H 0.45011 0.25288 0.78114 0.0
H1300 H 0.52552 0.31356 0.77947 0.0
H1301 H 0.49103 0.29364 0.77604 0.0
H1302 H 0.5479 0.26788 0.73593 0.0
C1303 C 0.47591 0.22665 0.7445 0.0
C1304 C 0.47109 0.2561 0.77105 0.0
C1305 C 0.45615 0.21521 0.74256 0.0
C1306 C 0.54183 0.30555 0.77448 0.0
C1307 C 0.52206 0.29411 0.77252 0.0
C1308 C 0.52692 0.26465 0.74601 0.0
C1309 C 0.4564 0.23716 0.75177 0.0
C1310 C 0.4781 0.2491 0.75515 0.0
C1311 C 0.54159 0.28359 0.7653 0.0
C1312 C 0.51989 0.27165 0.76192 0.0
H1313 H 0.36587 0.22405 0.75858 0.0
H1314 H 0.40001 0.24399 0.76163 0.0
H1315 H 0.51215 0.24849 0.73019 0.0
H1316 H 0.63223 0.29666 0.75865 0.0
H1317 H 0.59804 0.27674 0.75554 0.0
C1318 C 0.39673 0.04625 0.51447 0.0
C1319 C 0.4167 0.05676 0.5214 0.0
C1320 C 0.41628 0.03482 0.51232 0.0
C1321 C 0.50589 0.01703 0.52586 0.0
H1322 H 0.48602 0.99889 0.48107 0.0
C1323 C 0.60131 0.97471 0.50495 0.0
C1324 C 0.58151 0.96417 0.49803 0.0
C1325 C 0.58153 0.9861 0.50716 0.0
C1326 C 0.49165 1.00376 0.49373 0.0
H1327 H 0.47266 0.06332 0.53209 0.0
H1328 H 0.50684 0.04339 0.52831 0.0
H1329 H 0.45036 0.01824 0.48722 0.0
H1330 H 0.52561 0.95749 0.48742 0.0
H1331 H 0.49103 0.97736 0.49129 0.0
H1332 H 0.54721 1.00255 0.53237 0.0
C1333 C 0.47591 0.04396 0.52464 0.0
C1334 C 0.47112 0.01486 0.49729 0.0
C1335 C 0.45631 0.05541 0.5268 0.0
C1336 C 0.54182 0.96543 0.4927 0.0
C1337 C 0.52199 0.97684 0.49492 0.0
C1338 C 0.52643 1.00593 0.5223 0.0
C1339 C 0.45637 0.03358 0.51702 0.0
C1340 C 0.47794 0.02165 0.51341 0.0
C1341 C 0.54139 0.98726 0.50252 0.0
C1342 C 0.51964 0.99915 0.50618 0.0
H1343 H 0.36617 0.04693 0.51022 0.0
H1344 H 0.40004 0.02697 0.50677 0.0
H1345 H 0.51154 0.0219 0.53852 0.0
H1346 H 0.63192 0.97411 0.50914 0.0
H1347 H 0.59765 0.99398 0.51269 0.0
C1348 C 0.54058 0.80565 0.27545 0.0
C1349 C 0.58004 0.8069 0.26978 0.0
C1350 C 0.52076 0.79421 0.27359 0.0
C1351 C 0.52449 0.76486 0.24672 0.0
H1352 H 0.44894 0.75301 0.28237 0.0
C1353 C 0.45322 0.71547 0.24358 0.0
C1354 C 0.41356 0.71432 0.24901 0.0
C1355 C 0.4732 0.72688 0.24546 0.0
C1356 C 0.46957 0.75625 0.27215 0.0
H1357 H 0.6301 0.79692 0.25843 0.0
H1358 H 0.59588 0.77699 0.25552 0.0
H1359 H 0.48503 0.77235 0.28798 0.0
H1360 H 0.36338 0.72445 0.25997 0.0
H1361 H 0.39795 0.74431 0.26296 0.0
H1362 H 0.50906 0.74875 0.23091 0.0
C1363 C 0.5799 0.7849 0.26105 0.0
C1364 C 0.49034 0.76736 0.2754 0.0
C1365 C 0.59966 0.79632 0.26289 0.0
C1366 C 0.39396 0.72497 0.2557 0.0
C1367 C 0.4139 0.73635 0.25759 0.0
C1368 C 0.50374 0.75375 0.24349 0.0
C1369 C 0.53994 0.78374 0.26601 0.0
C1370 C 0.51811 0.77181 0.26273 0.0
C1371 C 0.45401 0.7374 0.25284 0.0
C1372 C 0.47595 0.7493 0.25614 0.0
H1373 H 0.52449 0.81362 0.28072 0.0
H1374 H 0.48994 0.79371 0.27745 0.0
H1375 H 0.54508 0.76811 0.23649 0.0
H1376 H 0.46928 0.70744 0.23846 0.0
H1377 H 0.50412 0.72731 0.24175 0.0
C1378 C 0.54002 0.46528 0.9915 0.0
C1379 C 0.57904 0.46383 0.9977 0.0
C1380 C 0.52028 0.47671 0.99357 0.0
C1381 C 0.53613 0.51054 1.00318 0.0
H1382 H 0.4276 0.50932 0.01992 0.0
C1383 C 0.45385 0.55512 0.02672 0.0
C1384 C 0.41486 0.55657 0.02047 0.0
C1385 C 0.47358 0.54368 0.02468 0.0
C1386 C 0.45778 0.50985 0.0151 0.0
H1387 H 0.62834 0.47344 0.01035 0.0
H1388 H 0.59406 0.49328 0.01398 0.0
H1389 H 0.46272 0.48991 0.0135 0.0
H1390 H 0.36561 0.54695 1.00779 0.0
H1391 H 0.39989 0.5271 1.00423 0.0
H1392 H 0.53119 0.53047 1.00478 0.0
C1393 C 0.57866 0.48564 1.00741 0.0
C1394 C 0.47791 0.4987 0.01135 0.0
C1395 C 0.59833 0.47422 1.00536 0.0
C1396 C 0.39559 0.54617 0.01281 0.0
C1397 C 0.41526 0.53475 0.0108 0.0
C1398 C 0.516 0.52168 1.00693 0.0
C1399 C 0.53913 0.48698 1.00185 0.0
C1400 C 0.51736 0.49889 1.00533 0.0
C1401 C 0.45476 0.53341 0.0164 0.0
C1402 C 0.47654 0.5215 0.01294 0.0
H1403 H 0.52426 0.45747 0.98554 0.0
H1404 H 0.49007 0.47747 0.98886 0.0
H1405 H 0.5663 0.51107 0.99836 0.0
H1406 H 0.46959 0.56293 0.03268 0.0
H1407 H 0.50378 0.54293 0.02942 0.0
C1408 C 0.02535 0.41028 0.44467 0.0
C1409 C 0.03301 0.40091 0.45761 0.0
C1410 C 0.01553 0.40712 0.42673 0.0
C1411 C 0.98829 0.38039 0.39614 0.0
H1412 H 0.04715 0.39946 0.36044 0.0
C1413 C 0.02995 0.36175 0.32452 0.0
C1414 C 0.03337 0.37035 0.31013 0.0
C1415 C 0.02017 0.36583 0.34208 0.0
C1416 C 0.02982 0.39415 0.37012 0.0
H1417 H 0.03374 0.38086 0.46209 0.0
H1418 H 0.01727 0.37537 0.43091 0.0
H1419 H 0.04705 0.40612 0.39198 0.0
H1420 H 0.02607 0.38984 0.30265 0.0
H1421 H 0.00839 0.39688 0.3331 0.0
H1422 H 0.97233 0.36815 0.37419 0.0
C1423 C 0.01842 0.38517 0.43455 0.0
C1424 C 0.02971 0.398 0.38829 0.0
C1425 C 0.02806 0.38833 0.45249 0.0
C1426 C 0.02402 0.38296 0.31343 0.0
C1427 C 0.01417 0.38703 0.33095 0.0
C1428 C 0.9885 0.37651 0.37791 0.0
C1429 C 0.0133 0.39451 0.42127 0.0
C1430 C 0.00947 0.39108 0.40163 0.0
C1431 C 0.01352 0.37859 0.34563 0.0
C1432 C 0.00975 0.38325 0.36471 0.0
H1433 H 0.02869 0.42007 0.44816 0.0
H1434 H 0.01094 0.41457 0.41699 0.0
H1435 H 0.9719 0.37491 0.40597 0.0
H1436 H 0.03704 0.35198 0.32247 0.0
H1437 H 0.02012 0.35907 0.35305 0.0
C1438 C 0.21943 0.90993 0.32428 0.0
C1439 C 0.21057 0.90062 0.31141 0.0
C1440 C 0.22988 0.9067 0.34212 0.0
C1441 C 0.25693 0.87981 0.37243 0.0
H1442 H 0.20054 0.89917 0.40866 0.0
C1443 C 0.21668 0.86127 0.44422 0.0
C1444 C 0.2138 0.86986 0.45865 0.0
C1445 C 0.22637 0.86534 0.42665 0.0
C1446 C 0.21721 0.89378 0.39883 0.0
H1447 H 0.20836 0.88058 0.30693 0.0
H1448 H 0.22597 0.87497 0.33794 0.0
H1449 H 0.19974 0.90586 0.37714 0.0
H1450 H 0.22212 0.88929 0.46621 0.0
H1451 H 0.23971 0.89631 0.43574 0.0
H1452 H 0.27313 0.86747 0.39421 0.0
C1453 C 0.22526 0.88478 0.33431 0.0
C1454 C 0.21679 0.89764 0.38067 0.0
C1455 C 0.21497 0.88801 0.31648 0.0
C1456 C 0.22374 0.88243 0.45539 0.0
C1457 C 0.23352 0.88648 0.43786 0.0
C1458 C 0.25726 0.87592 0.39065 0.0
C1459 C 0.23158 0.89408 0.34754 0.0
C1460 C 0.23609 0.89062 0.36714 0.0
C1461 C 0.23349 0.87808 0.42313 0.0
C1462 C 0.2369 0.88276 0.40405 0.0
H1463 H 0.21654 0.91974 0.32084 0.0
H1464 H 0.23539 0.91412 0.35182 0.0
H1465 H 0.27259 0.87426 0.36245 0.0
H1466 H 0.20913 0.85153 0.44623 0.0
H1467 H 0.22589 0.8586 0.41565 0.0
C1468 C 0.02727 0.86147 0.824 0.0
C1469 C 0.0361 0.87082 0.81119 0.0
C1470 C 0.01702 0.86466 0.84188 0.0
C1471 C 0.99036 0.89148 0.87238 0.0
H1472 H 0.04657 0.87196 0.90848 0.0
C1473 C 0.0307 0.90974 0.94434 0.0
C1474 C 0.03326 0.9011 0.95871 0.0
C1475 C 0.02112 0.90575 0.92672 0.0
C1476 C 0.02995 0.87739 0.89868 0.0
H1477 H 0.03854 0.89087 0.80686 0.0
H1478 H 0.0213 0.8964 0.83793 0.0
H1479 H 0.04727 0.86536 0.87691 0.0
H1480 H 0.02456 0.88166 0.96611 0.0
H1481 H 0.0072 0.87477 0.93554 0.0
H1482 H 0.97432 0.90377 0.89425 0.0
C1483 C 0.02186 0.8866 0.83423 0.0
C1484 C 0.03031 0.87359 0.88049 0.0
C1485 C 0.03195 0.88342 0.81636 0.0
C1486 C 0.02319 0.88856 0.95533 0.0
C1487 C 0.01353 0.88458 0.93776 0.0
C1488 C 0.99009 0.89532 0.89063 0.0
C1489 C 0.0155 0.87727 0.8474 0.0
C1490 C 0.01107 0.88067 0.86702 0.0
C1491 C 0.01381 0.89303 0.92309 0.0
C1492 C 0.01039 0.88842 0.90398 0.0
H1493 H 0.02997 0.85167 0.82047 0.0
H1494 H 0.01149 0.85721 0.85154 0.0
H1495 H 0.97474 0.89708 0.86244 0.0
H1496 H 0.03836 0.91947 0.94645 0.0
H1497 H 0.0218 0.91252 0.91577 0.0
C1498 C 0.21858 0.41035 0.8237 0.0
C1499 C 0.2096 0.40106 0.81081 0.0
C1500 C 0.22898 0.40709 0.84153 0.0
C1501 C 0.25563 0.38014 0.87179 0.0
H1502 H 0.19942 0.39952 0.90805 0.0
C1503 C 0.21519 0.36155 0.94354 0.0
C1504 C 0.21245 0.37012 0.958 0.0
C1505 C 0.22485 0.36563 0.92598 0.0
C1506 C 0.21605 0.39412 0.89822 0.0
H1507 H 0.20714 0.38103 0.80629 0.0
H1508 H 0.22466 0.37537 0.83728 0.0
H1509 H 0.19878 0.40625 0.87655 0.0
H1510 H 0.22094 0.38953 0.96561 0.0
H1511 H 0.23849 0.39658 0.93514 0.0
H1512 H 0.27163 0.36775 0.89355 0.0
C1513 C 0.22408 0.38518 0.83368 0.0
C1514 C 0.21571 0.39801 0.88006 0.0
C1515 C 0.21384 0.38844 0.81585 0.0
C1516 C 0.22246 0.38269 0.95477 0.0
C1517 C 0.23221 0.38676 0.93724 0.0
C1518 C 0.25588 0.37622 0.89001 0.0
C1519 C 0.23051 0.39446 0.84693 0.0
C1520 C 0.23494 0.39098 0.86652 0.0
C1521 C 0.23209 0.37837 0.92248 0.0
C1522 C 0.23558 0.38307 0.90342 0.0
H1523 H 0.21582 0.42016 0.82027 0.0
H1524 H 0.23457 0.41449 0.85125 0.0
H1525 H 0.27123 0.37457 0.8618 0.0
H1526 H 0.20758 0.35181 0.94553 0.0
H1527 H 0.22429 0.35891 0.91496 0.0
C1528 C 0.96295 0.65883 0.69489 0.0
C1529 C 0.95907 0.65026 0.70929 0.0
C1530 C 0.9729 0.65471 0.67738 0.0
C1531 C 0.96308 0.62633 0.64943 0.0
H1532 H 0.02098 0.64555 0.61355 0.0
C1533 C 0.9676 0.61021 0.57485 0.0
C1534 C 0.95966 0.61958 0.56195 0.0
C1535 C 0.97744 0.61337 0.59279 0.0
C1536 C 0.00462 0.64007 0.62339 0.0
H1537 H 0.96579 0.63078 0.71687 0.0
H1538 H 0.98385 0.62365 0.68651 0.0
H1539 H 0.02066 0.65231 0.64533 0.0
H1540 H 0.95844 0.63963 0.55753 0.0
H1541 H 0.97503 0.64512 0.58871 0.0
H1542 H 0.94582 0.61435 0.62757 0.0
C1543 C 0.97825 0.63351 0.6886 0.0
C1544 C 0.00446 0.64396 0.64162 0.0
C1545 C 0.96819 0.63763 0.70607 0.0
C1546 C 0.96433 0.63216 0.5671 0.0
C1547 C 0.97404 0.63532 0.58503 0.0
C1548 C 0.96317 0.62247 0.63125 0.0
C1549 C 0.9793 0.64192 0.67389 0.0
C1550 C 0.98317 0.63723 0.65483 0.0
C1551 C 0.97947 0.62598 0.59827 0.0
C1552 C 0.9834 0.62939 0.61791 0.0
H1553 H 0.95604 0.66863 0.69687 0.0
H1554 H 0.97324 0.66145 0.66639 0.0
H1555 H 0.94571 0.62103 0.6591 0.0
H1556 H 0.96447 0.60042 0.57134 0.0
H1557 H 0.98224 0.60591 0.60251 0.0
C1558 C 0.77786 0.13332 0.7056 0.0
C1559 C 0.78717 0.12071 0.70895 0.0
C1560 C 0.76798 0.13734 0.68808 0.0
C1561 C 0.74245 0.12668 0.64113 0.0
H1562 H 0.80068 0.15634 0.62699 0.0
C1563 C 0.78308 0.1383 0.56663 0.0
C1564 C 0.78769 0.15087 0.56142 0.0
C1565 C 0.77317 0.13518 0.58455 0.0
C1566 C 0.78344 0.1482 0.6307 0.0
H1567 H 0.79075 0.1023 0.69669 0.0
H1568 H 0.77385 0.10933 0.66609 0.0
H1569 H 0.80065 0.14977 0.65857 0.0
H1570 H 0.78251 0.17005 0.57067 0.0
H1571 H 0.76437 0.16463 0.60182 0.0
H1572 H 0.72617 0.12497 0.61304 0.0
C1573 C 0.77391 0.11612 0.67703 0.0
C1574 C 0.78346 0.14441 0.64889 0.0
C1575 C 0.78369 0.11208 0.6946 0.0
C1576 C 0.77944 0.16027 0.57424 0.0
C1577 C 0.76939 0.15715 0.59216 0.0
C1578 C 0.74235 0.1305 0.62287 0.0
C1579 C 0.76728 0.12888 0.67343 0.0
C1580 C 0.76351 0.13349 0.65433 0.0
C1581 C 0.76748 0.14456 0.59771 0.0
C1582 C 0.76343 0.1412 0.61736 0.0
H1583 H 0.77993 0.14021 0.71636 0.0
H1584 H 0.76219 0.14719 0.68589 0.0
H1585 H 0.72636 0.11831 0.64486 0.0
H1586 H 0.7892 0.1308 0.55712 0.0
H1587 H 0.77228 0.12539 0.58828 0.0
C1588 C 0.96967 0.13846 0.20318 0.0
C1589 C 0.96478 0.15105 0.20826 0.0
C1590 C 0.97961 0.13528 0.18529 0.0
C1591 C 0.96912 0.14813 0.139 0.0
H1592 H 0.02585 0.11812 0.12504 0.0
C1593 C 0.97433 0.13293 0.06421 0.0
C1594 C 0.96456 0.12034 0.06099 0.0
C1595 C 0.98444 0.13701 0.08169 0.0
C1596 C 0.00988 0.12652 0.12872 0.0
H1597 H 0.96961 0.17019 0.19882 0.0
H1598 H 0.98791 0.16466 0.16774 0.0
H1599 H 0.02624 0.12491 0.15681 0.0
H1600 H 0.96049 0.102 0.07344 0.0
H1601 H 0.97787 0.10912 0.10394 0.0
H1602 H 0.95188 0.1496 0.11112 0.0
C1603 C 0.98302 0.15722 0.17747 0.0
C1604 C 0.01006 0.13042 0.14694 0.0
C1605 C 0.97289 0.1604 0.19536 0.0
C1606 C 0.9679 0.11176 0.07542 0.0
C1607 C 0.97795 0.11585 0.09294 0.0
C1608 C 0.96904 0.14426 0.12083 0.0
C1609 C 0.98511 0.1446 0.17202 0.0
C1610 C 0.98909 0.14116 0.15239 0.0
C1611 C 0.98495 0.12861 0.09642 0.0
C1612 C 0.98886 0.1333 0.11547 0.0
H1613 H 0.96364 0.131 0.21275 0.0
H1614 H 0.98065 0.12547 0.18165 0.0
H1615 H 0.95194 0.15629 0.14264 0.0
H1616 H 0.97236 0.13978 0.0534 0.0
H1617 H 0.99051 0.14685 0.08379 0.0
C1618 C 0.77891 0.65919 0.07579 0.0
C1619 C 0.78121 0.65055 0.0614 0.0
C1620 C 0.7693 0.65522 0.09341 0.0
C1621 C 0.77748 0.62684 0.12142 0.0
H1622 H 0.72276 0.64664 0.15769 0.0
C1623 C 0.77489 0.61088 0.19602 0.0
C1624 C 0.78407 0.6202 0.20883 0.0
C1625 C 0.76443 0.6141 0.17818 0.0
C1626 C 0.73823 0.64101 0.14774 0.0
H1627 H 0.77202 0.63113 0.05399 0.0
H1628 H 0.75461 0.62427 0.08456 0.0
H1629 H 0.72249 0.65335 0.12589 0.0
H1630 H 0.7868 0.64024 0.21323 0.0
H1631 H 0.76921 0.64583 0.18222 0.0
H1632 H 0.79452 0.61475 0.14317 0.0
C1633 C 0.76117 0.63407 0.08236 0.0
C1634 C 0.73805 0.64486 0.1295 0.0
C1635 C 0.77087 0.63803 0.06478 0.0
C1636 C 0.77995 0.6328 0.20373 0.0
C1637 C 0.76967 0.63602 0.18589 0.0
C1638 C 0.77776 0.62302 0.1396 0.0
C1639 C 0.76169 0.64252 0.09703 0.0
C1640 C 0.75818 0.63791 0.11614 0.0
C1641 C 0.76307 0.62671 0.1727 0.0
C1642 C 0.75868 0.63014 0.15309 0.0
H1643 H 0.78678 0.6689 0.07368 0.0
H1644 H 0.77017 0.66198 0.10437 0.0
H1645 H 0.79396 0.62136 0.11161 0.0
H1646 H 0.77756 0.60107 0.19951 0.0
H1647 H 0.75869 0.60667 0.16852 0.0
C1648 C 0.52612 0.40982 0.94241 0.0
C1649 C 0.53491 0.40047 0.95522 0.0
C1650 C 0.51575 0.40663 0.92454 0.0
C1651 C 0.48869 0.37982 0.89409 0.0
H1652 H 0.54517 0.39922 0.85795 0.0
C1653 C 0.52947 0.36132 0.82236 0.0
C1654 C 0.5324 0.36991 0.80793 0.0
C1655 C 0.51961 0.36538 0.83991 0.0
C1656 C 0.52846 0.39382 0.86776 0.0
H1657 H 0.53714 0.38041 0.95957 0.0
H1658 H 0.51968 0.37489 0.92852 0.0
H1659 H 0.54588 0.40587 0.88949 0.0
H1660 H 0.52398 0.38933 0.80036 0.0
H1661 H 0.50611 0.39635 0.83081 0.0
H1662 H 0.47256 0.3675 0.87226 0.0
C1663 C 0.52037 0.38469 0.93221 0.0
C1664 C 0.52884 0.39766 0.88593 0.0
C1665 C 0.53059 0.38787 0.95007 0.0
C1666 C 0.52233 0.38247 0.81118 0.0
C1667 C 0.51238 0.38652 0.82869 0.0
C1668 C 0.4884 0.37595 0.87586 0.0
C1669 C 0.51405 0.39403 0.91904 0.0
C1670 C 0.50953 0.39061 0.89943 0.0
C1671 C 0.51237 0.37812 0.84342 0.0
C1672 C 0.50881 0.3828 0.8625 0.0
H1673 H 0.52896 0.41961 0.94593 0.0
H1674 H 0.51026 0.41408 0.91488 0.0
H1675 H 0.473 0.37425 0.90405 0.0
H1676 H 0.53712 0.35158 0.82036 0.0
H1677 H 0.52006 0.35865 0.85091 0.0
C1678 C 0.71459 0.88219 0.9526 0.0
C1679 C 0.71018 0.86958 0.9577 0.0
C1680 C 0.72487 0.88539 0.93476 0.0
C1681 C 0.71634 0.87245 0.88845 0.0
H1682 H 0.77265 0.9026 0.8748 0.0
C1683 C 0.72388 0.88748 0.81364 0.0
C1684 C 0.71405 0.90004 0.81027 0.0
C1685 C 0.73336 0.88347 0.83123 0.0
C1686 C 0.75679 0.89416 0.87839 0.0
H1687 H 0.71613 0.85045 0.94835 0.0
H1688 H 0.73498 0.85602 0.91735 0.0
H1689 H 0.77213 0.89587 0.90659 0.0
H1690 H 0.70914 0.91841 0.82256 0.0
H1691 H 0.72538 0.91141 0.85325 0.0
H1692 H 0.7001 0.87087 0.86046 0.0
C1693 C 0.72948 0.86345 0.92702 0.0
C1694 C 0.75647 0.8903 0.89663 0.0
C1695 C 0.71903 0.86025 0.94487 0.0
C1696 C 0.71662 0.90867 0.82466 0.0
C1697 C 0.72602 0.90465 0.84229 0.0
C1698 C 0.71676 0.87628 0.87027 0.0
C1699 C 0.73118 0.87607 0.92156 0.0
C1700 C 0.73566 0.87949 0.90195 0.0
C1701 C 0.73313 0.89191 0.84591 0.0
C1702 C 0.73644 0.88729 0.86501 0.0
H1703 H 0.70799 0.88963 0.96212 0.0
H1704 H 0.72559 0.89519 0.9311 0.0
H1705 H 0.69931 0.86424 0.892 0.0
H1706 H 0.7225 0.88059 0.80285 0.0
H1707 H 0.73954 0.87365 0.83343 0.0
C1708 C 0.52754 0.9103 0.44481 0.0
C1709 C 0.53653 0.90098 0.45765 0.0
C1710 C 0.517 0.90707 0.42698 0.0
C1711 C 0.49011 0.88018 0.39663 0.0
H1712 H 0.54633 0.8996 0.36043 0.0
C1713 C 0.5302 0.86173 0.32475 0.0
C1714 C 0.53281 0.87033 0.31033 0.0
C1715 C 0.52068 0.86577 0.34236 0.0
C1716 C 0.52971 0.89419 0.37025 0.0
H1717 H 0.53885 0.88094 0.4621 0.0
H1718 H 0.52111 0.87534 0.43111 0.0
H1719 H 0.5471 0.90627 0.39196 0.0
H1720 H 0.52428 0.88977 0.30285 0.0
H1721 H 0.50701 0.89674 0.33338 0.0
H1722 H 0.47399 0.86784 0.37483 0.0
C1723 C 0.52178 0.88515 0.43475 0.0
C1724 C 0.53011 0.89805 0.38842 0.0
C1725 C 0.53215 0.88837 0.45258 0.0
C1726 C 0.52287 0.8829 0.31366 0.0
C1727 C 0.51326 0.88692 0.33122 0.0
C1728 C 0.48979 0.8763 0.37841 0.0
C1729 C 0.51536 0.89445 0.42154 0.0
C1730 C 0.51086 0.891 0.40194 0.0
C1731 C 0.51348 0.87851 0.34592 0.0
C1732 C 0.5101 0.88316 0.36502 0.0
H1733 H 0.53041 0.9201 0.44827 0.0
H1734 H 0.51142 0.9145 0.4173 0.0
H1735 H 0.47449 0.87461 0.40661 0.0
H1736 H 0.53776 0.85199 0.32269 0.0
H1737 H 0.52131 0.85902 0.35334 0.0
C1738 C 0.71459 0.3822 0.45015 0.0
C1739 C 0.71005 0.36962 0.45536 0.0
C1740 C 0.72444 0.38532 0.43223 0.0
C1741 C 0.71436 0.37231 0.38604 0.0
H1742 H 0.77151 0.40221 0.37197 0.0
C1743 C 0.72018 0.38726 0.31116 0.0
C1744 C 0.71079 0.39986 0.30784 0.0
C1745 C 0.73009 0.38322 0.32868 0.0
C1746 C 0.75541 0.39384 0.37568 0.0
H1747 H 0.71521 0.35044 0.44609 0.0
H1748 H 0.73324 0.35587 0.41493 0.0
H1749 H 0.77152 0.39554 0.40379 0.0
H1750 H 0.70715 0.41825 0.32015 0.0
H1751 H 0.72411 0.4112 0.35072 0.0
H1752 H 0.69733 0.37075 0.35814 0.0
C1753 C 0.72823 0.36335 0.42459 0.0
C1754 C 0.75539 0.39001 0.39393 0.0
C1755 C 0.71823 0.36022 0.44252 0.0
C1756 C 0.71427 0.40848 0.32221 0.0
C1757 C 0.72408 0.40443 0.33977 0.0
C1758 C 0.71446 0.37611 0.36784 0.0
C1759 C 0.73014 0.37594 0.41905 0.0
C1760 C 0.73428 0.37931 0.39941 0.0
C1761 C 0.73073 0.39166 0.34335 0.0
C1762 C 0.73443 0.38704 0.36244 0.0
H1763 H 0.70851 0.38969 0.45967 0.0
H1764 H 0.72533 0.39511 0.4285 0.0
H1765 H 0.69711 0.36417 0.38972 0.0
H1766 H 0.7181 0.38037 0.30039 0.0
H1767 H 0.7359 0.37337 0.33084 0.0
C1768 C 0.47114 0.63833 0.20712 0.0
C1769 C 0.46137 0.65092 0.21034 0.0
C1770 C 0.4809 0.63424 0.1896 0.0
C1771 C 0.50495 0.64471 0.14239 0.0
H1772 H 0.44711 0.61483 0.12887 0.0
C1773 C 0.46281 0.63265 0.06819 0.0
C1774 C 0.45848 0.62005 0.06309 0.0
C1775 C 0.47294 0.63587 0.08605 0.0
C1776 C 0.46424 0.62303 0.1324 0.0
H1777 H 0.45698 0.66924 0.19786 0.0
H1778 H 0.47372 0.6621 0.16731 0.0
H1779 H 0.4479 0.62154 0.16039 0.0
H1780 H 0.46427 0.60092 0.07249 0.0
H1781 H 0.48278 0.60652 0.10354 0.0
H1782 H 0.52036 0.64633 0.11419 0.0
C1783 C 0.47408 0.65538 0.17833 0.0
C1784 C 0.46466 0.62691 0.15056 0.0
C1785 C 0.4644 0.65949 0.19588 0.0
C1786 C 0.46713 0.61072 0.07597 0.0
C1787 C 0.4774 0.61394 0.09384 0.0
C1788 C 0.50461 0.6408 0.12417 0.0
C1789 C 0.48104 0.64262 0.17485 0.0
C1790 C 0.48446 0.63791 0.15578 0.0
C1791 C 0.47914 0.62656 0.09928 0.0
C1792 C 0.48365 0.63002 0.11888 0.0
H1793 H 0.46939 0.63149 0.21795 0.0
H1794 H 0.48696 0.6244 0.18751 0.0
H1795 H 0.52091 0.65314 0.14594 0.0
H1796 H 0.45638 0.64009 0.05864 0.0
H1797 H 0.47367 0.64568 0.0897 0.0
C1798 C 0.278 0.13353 0.20576 0.0
C1799 C 0.28721 0.12091 0.2091 0.0
C1800 C 0.26815 0.13757 0.18824 0.0
C1801 C 0.24255 0.12695 0.14127 0.0
H1802 H 0.30078 0.15662 0.12718 0.0
C1803 C 0.28287 0.13869 0.06676 0.0
C1804 C 0.28742 0.15127 0.06159 0.0
C1805 C 0.27308 0.13553 0.08468 0.0
C1806 C 0.28354 0.14847 0.13088 0.0
H1807 H 0.29066 0.10251 0.19682 0.0
H1808 H 0.27383 0.10957 0.16623 0.0
H1809 H 0.30082 0.15001 0.15874 0.0
H1810 H 0.28224 0.17043 0.07093 0.0
H1811 H 0.26431 0.16495 0.10208 0.0
H1812 H 0.22619 0.12527 0.11319 0.0
C1813 C 0.27393 0.11635 0.17717 0.0
C1814 C 0.2836 0.14466 0.14906 0.0
C1815 C 0.28368 0.11229 0.19474 0.0
C1816 C 0.27922 0.16064 0.07446 0.0
C1817 C 0.26928 0.15749 0.09238 0.0
C1818 C 0.24242 0.13079 0.12303 0.0
C1819 C 0.2674 0.12911 0.17358 0.0
C1820 C 0.26364 0.13374 0.15449 0.0
C1821 C 0.26743 0.14489 0.09789 0.0
C1822 C 0.26348 0.1415 0.11753 0.0
H1823 H 0.28012 0.14042 0.21653 0.0
H1824 H 0.26243 0.14742 0.18606 0.0
H1825 H 0.22645 0.11858 0.145 0.0
H1826 H 0.28896 0.13121 0.05722 0.0
H1827 H 0.27222 0.12574 0.08838 0.0
C1828 C 0.46803 0.15895 0.69453 0.0
C1829 C 0.46468 0.15039 0.70897 0.0
C1830 C 0.47802 0.15484 0.67701 0.0
C1831 C 0.46902 0.1264 0.64917 0.0
H1832 H 0.52624 0.14569 0.61316 0.0
C1833 C 0.47306 0.11013 0.5747 0.0
C1834 C 0.46499 0.11945 0.56175 0.0
C1835 C 0.48312 0.11335 0.59259 0.0
C1836 C 0.51006 0.1402 0.62303 0.0
H1837 H 0.47239 0.13095 0.7166 0.0
H1838 H 0.49045 0.12385 0.68622 0.0
H1839 H 0.52584 0.15253 0.6449 0.0
H1840 H 0.46382 0.13949 0.55719 0.0
H1841 H 0.48071 0.14508 0.58828 0.0
H1842 H 0.45194 0.11434 0.62739 0.0
C1843 C 0.48443 0.13369 0.6883 0.0
C1844 C 0.50986 0.14413 0.64124 0.0
C1845 C 0.47437 0.13779 0.70578 0.0
C1846 C 0.46983 0.13205 0.56679 0.0
C1847 C 0.4797 0.13527 0.58468 0.0
C1848 C 0.46911 0.12251 0.63102 0.0
C1849 C 0.48496 0.14207 0.67355 0.0
C1850 C 0.48884 0.13737 0.65451 0.0
C1851 C 0.48517 0.12597 0.59799 0.0
C1852 C 0.4891 0.12945 0.61761 0.0
H1853 H 0.46068 0.16871 0.69649 0.0
H1854 H 0.47796 0.16156 0.666 0.0
H1855 H 0.45186 0.12107 0.65889 0.0
H1856 H 0.46982 0.10033 0.57127 0.0
H1857 H 0.48799 0.10592 0.60235 0.0
C1858 C 0.27253 0.63346 0.70719 0.0
C1859 C 0.28186 0.62085 0.71044 0.0
C1860 C 0.26274 0.63756 0.68968 0.0
C1861 C 0.27882 0.64472 0.65055 0.0
H1862 H 0.22115 0.62557 0.61451 0.0
C1863 C 0.27552 0.66086 0.57596 0.0
C1864 C 0.2831 0.65147 0.56303 0.0
C1865 C 0.26552 0.65771 0.59389 0.0
C1866 C 0.23747 0.63102 0.62439 0.0
H1867 H 0.28544 0.60249 0.69802 0.0
H1868 H 0.26859 0.60964 0.66747 0.0
H1869 H 0.22107 0.61879 0.64627 0.0
H1870 H 0.28358 0.63142 0.55855 0.0
H1871 H 0.2668 0.62596 0.5897 0.0
H1872 H 0.29651 0.65668 0.62875 0.0
C1873 C 0.26863 0.61638 0.67847 0.0
C1874 C 0.23739 0.62713 0.64261 0.0
C1875 C 0.27837 0.61227 0.69602 0.0
C1876 C 0.27795 0.6389 0.56814 0.0
C1877 C 0.26813 0.63576 0.58606 0.0
C1878 C 0.27901 0.64857 0.63238 0.0
C1879 C 0.2621 0.62915 0.67496 0.0
C1880 C 0.25855 0.63384 0.65589 0.0
C1881 C 0.26303 0.6451 0.59934 0.0
C1882 C 0.25887 0.64168 0.61897 0.0
H1883 H 0.27464 0.64032 0.71799 0.0
H1884 H 0.25703 0.64742 0.68756 0.0
H1885 H 0.29609 0.65 0.66029 0.0
H1886 H 0.27901 0.67064 0.57248 0.0
H1887 H 0.26096 0.66517 0.60362 0.0
C1888 C 0.25324 0.35614 0.28314 0.0
C1889 C 0.21888 0.36353 0.28312 0.0
C1890 C 0.29033 0.36164 0.28598 0.0
C1891 C 0.33993 0.39196 0.28033 0.0
H1892 H 0.4249 0.37663 0.30773 0.0
C1893 C 0.49294 0.41541 0.28512 0.0
C1894 C 0.52537 0.40741 0.28245 0.0
C1895 C 0.45521 0.41047 0.28825 0.0
C1896 C 0.40152 0.38101 0.29994 0.0
H1897 H 0.19642 0.38235 0.28718 0.0
H1898 H 0.26069 0.39182 0.29223 0.0
H1899 H 0.35967 0.36685 0.30741 0.0
H1900 H 0.54376 0.38795 0.2818 0.0
H1901 H 0.47838 0.37944 0.28689 0.0
H1902 H 0.38173 0.4059 0.27239 0.0
C1903 C 0.25917 0.38185 0.28969 0.0
C1904 C 0.36418 0.37539 0.29977 0.0
C1905 C 0.22227 0.37639 0.28687 0.0
C1906 C 0.51949 0.39442 0.28373 0.0
C1907 C 0.48191 0.3895 0.28681 0.0
C1908 C 0.37722 0.39754 0.28043 0.0
C1909 C 0.29371 0.37461 0.28885 0.0
C1910 C 0.33304 0.38076 0.28984 0.0
C1911 C 0.44913 0.39744 0.28877 0.0
C1912 C 0.40864 0.39207 0.29008 0.0
H1913 H 0.25166 0.34622 0.28029 0.0
H1914 H 0.31645 0.35582 0.28516 0.0
H1915 H 0.31675 0.39624 0.27229 0.0
H1916 H 0.49645 0.42546 0.28431 0.0
H1917 H 0.43069 0.41687 0.28998 0.0
C1918 C 0.75226 0.85664 0.28389 0.0
C1919 C 0.71796 0.86404 0.28333 0.0
C1920 C 0.78926 0.86216 0.28691 0.0
C1921 C 0.83945 0.89236 0.28097 0.0
H1922 H 0.92262 0.87738 0.30991 0.0
C1923 C 0.99227 0.91581 0.28703 0.0
C1924 C 0.02479 0.90776 0.285 0.0
C1925 C 0.95434 0.91093 0.28984 0.0
C1926 C 0.89976 0.88165 0.30169 0.0
H1927 H 0.69548 0.88294 0.28657 0.0
H1928 H 0.75957 0.89244 0.29193 0.0
H1929 H 0.85739 0.86762 0.30902 0.0
H1930 H 0.04308 0.88828 0.28518 0.0
H1931 H 0.97738 0.87988 0.28973 0.0
H1932 H 0.88181 0.90617 0.27318 0.0
C1933 C 0.75809 0.88243 0.28968 0.0
C1934 C 0.86242 0.87605 0.30119 0.0
C1935 C 0.72129 0.87695 0.28668 0.0
C1936 C 0.01875 0.89479 0.28662 0.0
C1937 C 0.98097 0.88994 0.28938 0.0
C1938 C 0.87676 0.89792 0.2814 0.0
C1939 C 0.79261 0.87517 0.28942 0.0
C1940 C 0.83193 0.8813 0.29071 0.0
C1941 C 0.94814 0.89792 0.29067 0.0
C1942 C 0.90754 0.89258 0.29161 0.0
H1943 H 0.75074 0.84667 0.28136 0.0
H1944 H 0.81536 0.85631 0.28655 0.0
H1945 H 0.8168 0.89654 0.27252 0.0
H1946 H 0.9959 0.92584 0.28593 0.0
H1947 H 0.92976 0.91736 0.29106 0.0
C1948 C 0.25301 0.91428 0.98472 0.0
C1949 C 0.21854 0.90697 0.98532 0.0
C1950 C 0.28984 0.90868 0.9816 0.0
C1951 C 0.3393 0.87834 0.98743 0.0
H1952 H 0.42274 0.89315 0.95848 0.0
C1953 C 0.49173 0.85464 0.98158 0.0
C1954 C 0.52435 0.86265 0.98365 0.0
C1955 C 0.45389 0.85956 0.97868 0.0
C1956 C 0.3998 0.88892 0.9667 0.0
H1957 H 0.19555 0.88813 0.98202 0.0
H1958 H 0.25935 0.87848 0.97651 0.0
H1959 H 0.35771 0.90306 0.95939 0.0
H1960 H 0.54292 0.88209 0.98338 0.0
H1961 H 0.47739 0.89058 0.97867 0.0
H1962 H 0.38137 0.86445 0.99522 0.0
C1963 C 0.25814 0.88848 0.9788 0.0
C1964 C 0.36257 0.89461 0.96721 0.0
C1965 C 0.22151 0.89405 0.98189 0.0
C1966 C 0.51851 0.87562 0.98193 0.0
C1967 C 0.48083 0.88052 0.97907 0.0
C1968 C 0.37649 0.8727 0.98699 0.0
C1969 C 0.29284 0.89566 0.97904 0.0
C1970 C 0.332 0.88943 0.9777 0.0
C1971 C 0.44788 0.87259 0.97777 0.0
C1972 C 0.40737 0.87798 0.97679 0.0
H1973 H 0.25176 0.92425 0.9873 0.0
H1974 H 0.3161 0.91446 0.98195 0.0
H1975 H 0.31657 0.87422 0.99588 0.0
H1976 H 0.4952 0.8446 0.98275 0.0
H1977 H 0.42923 0.85317 0.97745 0.0
C1978 C 0.99261 0.3567 0.98219 0.0
C1979 C 0.02693 0.36407 0.98317 0.0
C1980 C 0.95569 0.3623 0.97927 0.0
C1981 C 0.90571 0.39239 0.98651 0.0
H1982 H 0.82238 0.37804 0.95699 0.0
C1983 C 0.75278 0.41594 0.98166 0.0
C1984 C 0.72025 0.40785 0.98326 0.0
C1985 C 0.79074 0.41113 0.97867 0.0
C1986 C 0.84528 0.38214 0.96538 0.0
H1987 H 0.04958 0.383 0.98069 0.0
H1988 H 0.98561 0.39264 0.9755 0.0
H1989 H 0.88761 0.36826 0.95736 0.0
H1990 H 0.70201 0.38838 0.98217 0.0
H1991 H 0.76774 0.38009 0.97732 0.0
H1992 H 0.8634 0.40602 0.995 0.0
C1993 C 0.98701 0.3826 0.97736 0.0
C1994 C 0.88263 0.37652 0.96558 0.0
C1995 C 0.02374 0.37704 0.98026 0.0
C1996 C 0.72634 0.39492 0.98107 0.0
C1997 C 0.76414 0.39014 0.97813 0.0
C1998 C 0.8684 0.39796 0.98639 0.0
C1999 C 0.95245 0.37535 0.97728 0.0
C2000 C 0.91317 0.38153 0.97626 0.0
C2001 C 0.79696 0.39814 0.97722 0.0
C2002 C 0.83756 0.39284 0.97598 0.0
H2003 H 0.99403 0.3467 0.98438 0.0
H2004 H 0.92954 0.35646 0.97936 0.0
H2005 H 0.92841 0.39638 0.99513 0.0
H2006 H 0.74913 0.42595 0.9832 0.0
H2007 H 0.8153 0.41759 0.97776 0.0
C2008 C 0.74099 0.66655 0.73212 0.0
C2009 C 0.77345 0.6585 0.73435 0.0
C2010 C 0.70316 0.66168 0.72902 0.0
C2011 C 0.64897 0.63243 0.71666 0.0
H2012 H 0.5654 0.64714 0.74565 0.0
C2013 C 0.50188 0.60713 0.73415 0.0
C2014 C 0.46747 0.61447 0.73492 0.0
C2015 C 0.53871 0.61272 0.73102 0.0
C2016 C 0.58821 0.64302 0.73723 0.0
H2017 H 0.79179 0.63903 0.73419 0.0
H2018 H 0.72625 0.63063 0.72913 0.0
H2019 H 0.63029 0.65684 0.74529 0.0
H2020 H 0.44453 0.63332 0.73185 0.0
H2021 H 0.50834 0.64296 0.72628 0.0
H2022 H 0.60687 0.61838 0.70908 0.0
C2023 C 0.72982 0.64069 0.72955 0.0
C2024 C 0.62546 0.64861 0.73698 0.0
C2025 C 0.76749 0.64553 0.73261 0.0
C2026 C 0.47046 0.62739 0.73159 0.0
C2027 C 0.5071 0.63295 0.72847 0.0
C2028 C 0.61167 0.62679 0.71698 0.0
C2029 C 0.69702 0.64867 0.72807 0.0
C2030 C 0.65647 0.64333 0.72687 0.0
C2031 C 0.54177 0.62575 0.7286 0.0
C2032 C 0.58096 0.63197 0.7274 0.0
H2033 H 0.74456 0.67658 0.73329 0.0
H2034 H 0.67861 0.66811 0.72766 0.0
H2035 H 0.67203 0.6282 0.70852 0.0
H2036 H 0.50059 0.59716 0.73666 0.0
H2037 H 0.56493 0.60692 0.73129 0.0
C2038 C 0.97819 0.12571 0.73435 0.0
C2039 C 0.97228 0.11275 0.73617 0.0
C2040 C 0.01582 0.13057 0.73122 0.0
C2041 C 0.12051 0.12274 0.73821 0.0
H2042 H 0.13813 0.15276 0.7097 0.0
C2043 C 0.2754 0.14382 0.73108 0.0
C2044 C 0.27862 0.15676 0.73424 0.0
C2045 C 0.23859 0.13827 0.72838 0.0
C2046 C 0.1336 0.14441 0.71776 0.0
H2047 H 0.00129 0.09468 0.73532 0.0
H2048 H 0.06717 0.10317 0.72958 0.0
H2049 H 0.07295 0.14295 0.70979 0.0
H2050 H 0.24567 0.1741 0.7361 0.0
H2051 H 0.18106 0.16435 0.73143 0.0
H2052 H 0.18093 0.12426 0.74636 0.0
C2053 C 0.0426 0.10959 0.7309 0.0
C2054 C 0.09628 0.13877 0.71783 0.0
C2055 C 0.00481 0.10471 0.73408 0.0
C2056 C 0.24422 0.16412 0.73371 0.0
C2057 C 0.20723 0.15853 0.73099 0.0
C2058 C 0.15779 0.12832 0.73807 0.0
C2059 C 0.04865 0.1226 0.72976 0.0
C2060 C 0.08914 0.12795 0.72825 0.0
C2061 C 0.20398 0.14549 0.72876 0.0
C2062 C 0.1647 0.13929 0.728 0.0
H2063 H 0.95385 0.13221 0.73584 0.0
H2064 H 0.01932 0.14062 0.73067 0.0
H2065 H 0.11598 0.11457 0.74667 0.0
H2066 H 0.30129 0.13787 0.73117 0.0
H2067 H 0.23718 0.12825 0.72632 0.0
C2068 C 0.50476 0.16637 0.03577 0.0
C2069 C 0.47222 0.15832 0.03388 0.0
C2070 C 0.54258 0.16152 0.03898 0.0
C2071 C 0.5964 0.13243 0.05244 0.0
H2072 H 0.68075 0.14671 0.0235 0.0
C2073 C 0.74398 0.10689 0.03649 0.0
C2074 C 0.77842 0.11422 0.0358 0.0
C2075 C 0.70705 0.11252 0.03923 0.0
C2076 C 0.6577 0.14271 0.03189 0.0
H2077 H 0.45382 0.13886 0.03463 0.0
H2078 H 0.51932 0.13049 0.03985 0.0
H2079 H 0.61584 0.15642 0.0232 0.0
H2080 H 0.80124 0.13311 0.03861 0.0
H2081 H 0.73724 0.14281 0.04348 0.0
H2082 H 0.63829 0.11848 0.06067 0.0
C2083 C 0.51582 0.14054 0.03911 0.0
C2084 C 0.62044 0.14831 0.03177 0.0
C2085 C 0.47816 0.14537 0.03596 0.0
C2086 C 0.77531 0.12718 0.03882 0.0
C2087 C 0.73857 0.13277 0.04154 0.0
C2088 C 0.6337 0.12678 0.05249 0.0
C2089 C 0.54866 0.14852 0.04036 0.0
C2090 C 0.58917 0.14318 0.04188 0.0
C2091 C 0.70391 0.12557 0.04132 0.0
C2092 C 0.66468 0.1318 0.0421 0.0
H2093 H 0.50121 0.17639 0.03433 0.0
H2094 H 0.56716 0.16796 0.04014 0.0
H2095 H 0.57315 0.12832 0.0606 0.0
H2096 H 0.74534 0.0969 0.0342 0.0
H2097 H 0.68084 0.10672 0.03891 0.0
C2098 C 0.24084 0.60441 0.03601 0.0
C2099 C 0.27338 0.6125 0.03456 0.0
C2100 C 0.20281 0.6092 0.03884 0.0
C2101 C 0.14797 0.6382 0.0519 0.0
H2102 H 0.06536 0.62391 0.02189 0.0
C2103 C 0.00071 0.66356 0.03478 0.0
C2104 C 0.96639 0.65618 0.03392 0.0
C2105 C 0.03767 0.65798 0.03764 0.0
C2106 C 0.08792 0.62792 0.03057 0.0
H2107 H 0.29156 0.63197 0.03574 0.0
H2108 H 0.22572 0.64025 0.04031 0.0
H2109 H 0.13041 0.61429 0.02225 0.0
H2110 H 0.94385 0.63723 0.03642 0.0
H2111 H 0.0079 0.62763 0.04147 0.0
H2112 H 0.10548 0.65207 0.05975 0.0
C2113 C 0.22935 0.63021 0.03951 0.0
C2114 C 0.12525 0.62236 0.03083 0.0
C2115 C 0.26722 0.62543 0.03673 0.0
C2116 C 0.96967 0.64321 0.03679 0.0
C2117 C 0.00645 0.63767 0.03961 0.0
C2118 C 0.11062 0.6438 0.05156 0.0
C2119 C 0.19653 0.62219 0.04028 0.0
C2120 C 0.1559 0.62749 0.04135 0.0
C2121 C 0.04097 0.64493 0.03967 0.0
C2122 C 0.08027 0.63877 0.04078 0.0
H2123 H 0.24454 0.5944 0.03449 0.0
H2124 H 0.17824 0.60274 0.03965 0.0
H2125 H 0.17071 0.6423 0.06037 0.0
H2126 H -0.00077 0.67357 0.03263 0.0
H2127 H 0.0638 0.66382 0.03754 0.0
C2128 C 0.49502 0.91386 0.78302 0.0
C2129 C 0.52916 0.90638 0.78239 0.0
C2130 C 0.45786 0.90839 0.7858 0.0
C2131 C 0.40698 0.87841 0.77895 0.0
H2132 H 0.32406 0.89319 0.80826 0.0
C2133 C 0.25362 0.85522 0.78438 0.0
C2134 C 0.22122 0.86335 0.78272 0.0
C2135 C 0.29169 0.85998 0.78721 0.0
C2136 C 0.34684 0.88897 0.79993 0.0
H2137 H 0.55116 0.8874 0.78524 0.0
H2138 H 0.48678 0.87799 0.79016 0.0
H2139 H 0.38952 0.9028 0.80772 0.0
H2140 H 0.20332 0.88285 0.78349 0.0
H2141 H 0.26925 0.89107 0.78805 0.0
H2142 H 0.36433 0.86481 0.7707 0.0
C2143 C 0.48853 0.88801 0.78817 0.0
C2144 C 0.38432 0.8945 0.79963 0.0
C2145 C 0.52549 0.89344 0.78541 0.0
C2146 C 0.22754 0.87629 0.78466 0.0
C2147 C 0.26546 0.88103 0.78743 0.0
C2148 C 0.36954 0.87294 0.77917 0.0
C2149 C 0.45419 0.89537 0.78799 0.0
C2150 C 0.41472 0.88932 0.78903 0.0
C2151 C 0.29815 0.87297 0.78842 0.0
C2152 C 0.33884 0.87821 0.78951 0.0
H2153 H 0.4968 0.92385 0.78074 0.0
H2154 H 0.43189 0.9143 0.78551 0.0
H2155 H 0.42959 0.8743 0.77041 0.0
H2156 H 0.24978 0.8452 0.78304 0.0
H2157 H 0.31615 0.85349 0.7882 0.0
C2158 C 0.72113 0.37709 0.78705 0.0
C2159 C 0.71836 0.36414 0.78388 0.0
C2160 C 0.75763 0.38271 0.79025 0.0
C2161 C 0.862 0.37678 0.80234 0.0
H2162 H 0.88094 0.40662 0.77363 0.0
C2163 C 0.01797 0.39552 0.78715 0.0
C2164 C 0.02389 0.40848 0.78515 0.0
C2165 C 0.98028 0.39068 0.79015 0.0
C2166 C 0.87601 0.39846 0.78205 0.0
H2167 H 0.75175 0.34686 0.78251 0.0
H2168 H 0.81584 0.35675 0.78805 0.0
H2169 H 0.81616 0.39684 0.77312 0.0
H2170 H 0.99486 0.42655 0.78567 0.0
H2171 H 0.92885 0.41808 0.7912 0.0
H2172 H 0.92214 0.37833 0.81109 0.0
C2173 C 0.78954 0.36251 0.78812 0.0
C2174 C 0.83883 0.39282 0.78171 0.0
C2175 C 0.75285 0.35685 0.7849 0.0
C2176 C 0.99133 0.41652 0.78706 0.0
C2177 C 0.95347 0.41166 0.7901 0.0
C2178 C 0.89922 0.38247 0.80276 0.0
C2179 C 0.79239 0.37556 0.79037 0.0
C2180 C 0.83148 0.38184 0.79168 0.0
C2181 C 0.94739 0.39865 0.7913 0.0
C2182 C 0.90685 0.39329 0.79241 0.0
H2183 H 0.69513 0.38298 0.7866 0.0
H2184 H 0.7587 0.39274 0.79231 0.0
H2185 H 0.85711 0.36842 0.81035 0.0
H2186 H 0.04234 0.38902 0.78583 0.0
H2187 H 0.97678 0.38062 0.79078 0.0
C2188 C 0.22145 0.39328 0.48261 0.0
C2189 C 0.21795 0.40621 0.48577 0.0
C2190 C 0.25834 0.38781 0.47979 0.0
C2191 C 0.36254 0.39417 0.46826 0.0
H2192 H 0.38226 0.36436 0.49694 0.0
C2193 C 0.51915 0.37559 0.48264 0.0
C2194 C 0.52525 0.36264 0.48453 0.0
C2195 C 0.4813 0.38042 0.48002 0.0
C2196 C 0.37713 0.37252 0.48854 0.0
H2197 H 0.25054 0.42362 0.4876 0.0
H2198 H 0.31532 0.41401 0.48268 0.0
H2199 H 0.31719 0.37397 0.49743 0.0
H2200 H 0.49631 0.34456 0.48426 0.0
H2201 H 0.43003 0.35298 0.47934 0.0
H2202 H 0.42267 0.39277 0.45948 0.0
C2203 C 0.28927 0.40814 0.48235 0.0
C2204 C 0.33979 0.37807 0.48888 0.0
C2205 C 0.25219 0.41364 0.48521 0.0
C2206 C 0.49265 0.35458 0.48295 0.0
C2207 C 0.45463 0.35942 0.48026 0.0
C2208 C 0.39991 0.38858 0.46784 0.0
C2209 C 0.29277 0.39512 0.48002 0.0
C2210 C 0.33215 0.38902 0.47889 0.0
C2211 C 0.44842 0.37243 0.47911 0.0
C2212 C 0.40781 0.37776 0.47816 0.0
H2213 H 0.19571 0.38726 0.48273 0.0
H2214 H 0.25996 0.3778 0.47769 0.0
H2215 H 0.35741 0.40251 0.46025 0.0
H2216 H 0.54353 0.38211 0.48374 0.0
H2217 H 0.47772 0.39047 0.47943 0.0
C2218 C 0.99361 0.85641 0.48251 0.0
C2219 C 0.02809 0.86371 0.48318 0.0
C2220 C 0.9568 0.86203 0.47941 0.0
C2221 C 0.90763 0.89237 0.48558 0.0
H2222 H 0.82345 0.87763 0.457 0.0
C2223 C 0.75501 0.91607 0.48072 0.0
C2224 C 0.72248 0.90805 0.48293 0.0
C2225 C 0.79279 0.91116 0.47757 0.0
C2226 C 0.84661 0.88185 0.46511 0.0
H2227 H 0.05116 0.88254 0.47993 0.0
H2228 H 0.98739 0.89222 0.47441 0.0
H2229 H 0.8885 0.86773 0.4575 0.0
H2230 H 0.70395 0.8886 0.48268 0.0
H2231 H 0.76936 0.88014 0.47755 0.0
H2232 H 0.86576 0.90625 0.49368 0.0
C2233 C 0.98857 0.88221 0.47666 0.0
C2234 C 0.88385 0.87616 0.46539 0.0
C2235 C 0.02518 0.87663 0.47976 0.0
C2236 C 0.7283 0.89508 0.48112 0.0
C2237 C 0.76591 0.8902 0.47802 0.0
C2238 C 0.87044 0.89801 0.48538 0.0
C2239 C 0.95383 0.87505 0.47691 0.0
C2240 C 0.91469 0.88131 0.47576 0.0
C2241 C 0.7988 0.89814 0.47656 0.0
C2242 C 0.83929 0.89276 0.47531 0.0
H2243 H 0.99482 0.84644 0.4851 0.0
H2244 H 0.93052 0.85626 0.47976 0.0
H2245 H 0.93056 0.89647 0.49395 0.0
H2246 H 0.75155 0.9261 0.48195 0.0
H2247 H 0.81739 0.91757 0.47623 0.0
C2248 C 0.50463 0.10464 0.23402 0.0
C2249 C 0.47221 0.11272 0.23616 0.0
C2250 C 0.54246 0.10948 0.23081 0.0
C2251 C 0.59642 0.13863 0.21778 0.0
H2252 H 0.68099 0.12398 0.24621 0.0
C2253 C 0.74459 0.1638 0.2338 0.0
C2254 C 0.77893 0.15641 0.23424 0.0
C2255 C 0.70754 0.15825 0.23106 0.0
C2256 C 0.65787 0.12808 0.23795 0.0
H2257 H 0.454 0.1322 0.23586 0.0
H2258 H 0.51953 0.14054 0.23063 0.0
H2259 H 0.61596 0.11435 0.24651 0.0
H2260 H 0.80143 0.13752 0.23096 0.0
H2261 H 0.73722 0.12797 0.22609 0.0
H2262 H 0.63838 0.1526 0.2097 0.0
C2263 C 0.51592 0.13049 0.23118 0.0
C2264 C 0.62054 0.12253 0.23808 0.0
C2265 C 0.47825 0.12568 0.23433 0.0
C2266 C 0.77559 0.14349 0.23095 0.0
C2267 C 0.73873 0.13798 0.22823 0.0
C2268 C 0.63379 0.14423 0.21773 0.0
C2269 C 0.54866 0.12249 0.22968 0.0
C2270 C 0.5892 0.1278 0.22816 0.0
C2271 C 0.70418 0.14523 0.22871 0.0
C2272 C 0.66485 0.13907 0.22793 0.0
H2273 H 0.501 0.09462 0.23527 0.0
H2274 H 0.56695 0.10303 0.22946 0.0
H2275 H 0.57311 0.14284 0.20976 0.0
H2276 H 0.74613 0.17377 0.23629 0.0
H2277 H 0.68141 0.16409 0.23158 0.0
C2278 C 0.00243 0.60501 0.23185 0.0
C2279 C 0.96995 0.61305 0.23407 0.0
C2280 C 0.04023 0.60989 0.2287 0.0
C2281 C 0.09429 0.63915 0.21626 0.0
H2282 H 0.178 0.6245 0.24522 0.0
C2283 C 0.24128 0.66453 0.23381 0.0
C2284 C 0.27572 0.6572 0.23457 0.0
C2285 C 0.20447 0.65892 0.23065 0.0
C2286 C 0.15514 0.6286 0.23681 0.0
H2287 H 0.95155 0.63252 0.23384 0.0
H2288 H 0.01703 0.64094 0.2287 0.0
H2289 H 0.11315 0.61476 0.24489 0.0
H2290 H 0.29874 0.63836 0.23143 0.0
H2291 H 0.23499 0.62871 0.2258 0.0
H2292 H 0.13631 0.65323 0.20868 0.0
C2293 C 0.0135 0.63088 0.22917 0.0
C2294 C 0.11792 0.62299 0.23658 0.0
C2295 C 0.97586 0.62602 0.23227 0.0
C2296 C 0.27279 0.64429 0.23118 0.0
C2297 C 0.23618 0.63871 0.22803 0.0
C2298 C 0.13156 0.64481 0.21657 0.0
C2299 C 0.04633 0.62291 0.2277 0.0
C2300 C 0.08686 0.62826 0.22647 0.0
C2301 C 0.20148 0.6459 0.22819 0.0
C2302 C 0.16232 0.63966 0.22698 0.0
H2303 H -0.0011 0.59498 0.23307 0.0
H2304 H 0.06479 0.60347 0.22735 0.0
H2305 H 0.07119 0.64337 0.20813 0.0
H2306 H 0.24251 0.6745 0.23637 0.0
H2307 H 0.17822 0.6647 0.23093 0.0
C2308 C 0.7424 0.6046 0.53487 0.0
C2309 C 0.77503 0.61264 0.53312 0.0
C2310 C 0.70451 0.60948 0.53781 0.0
C2311 C 0.65055 0.63867 0.55075 0.0
H2312 H 0.56652 0.62419 0.5218 0.0
C2313 C 0.50253 0.66394 0.5346 0.0
C2314 C 0.46817 0.65656 0.53427 0.0
C2315 C 0.53963 0.65839 0.53718 0.0
C2316 C 0.5895 0.62826 0.53018 0.0
H2317 H 0.79349 0.63209 0.53382 0.0
H2318 H 0.7279 0.64051 0.53855 0.0
H2319 H 0.6315 0.61451 0.52172 0.0
H2320 H 0.44578 0.63764 0.53745 0.0
H2321 H 0.51007 0.62809 0.54201 0.0
H2322 H 0.60851 0.65265 0.55873 0.0
C2323 C 0.73137 0.63045 0.53793 0.0
C2324 C 0.62679 0.62267 0.53019 0.0
C2325 C 0.76909 0.62559 0.53505 0.0
C2326 C 0.47161 0.64362 0.5374 0.0
C2327 C 0.50852 0.6381 0.53994 0.0
C2328 C 0.61324 0.64431 0.55065 0.0
C2329 C 0.69845 0.62249 0.53904 0.0
C2330 C 0.65793 0.62786 0.54033 0.0
C2331 C 0.54304 0.64536 0.53945 0.0
C2332 C 0.58237 0.63921 0.54026 0.0
H2333 H 0.74593 0.59458 0.53353 0.0
H2334 H 0.67988 0.60306 0.53888 0.0
H2335 H 0.67368 0.64283 0.55894 0.0
H2336 H 0.50094 0.67393 0.53223 0.0
H2337 H 0.56575 0.66423 0.53666 0.0
C2338 C 0.00517 0.16584 0.53583 0.0
C2339 C 0.97272 0.15777 0.53376 0.0
C2340 C 0.043 0.161 0.53906 0.0
C2341 C 0.0969 0.13186 0.55224 0.0
H2342 H 0.18147 0.14643 0.52375 0.0
C2343 C 0.24496 0.10662 0.53623 0.0
C2344 C 0.27932 0.11399 0.53579 0.0
C2345 C 0.20793 0.11217 0.53897 0.0
C2346 C 0.15835 0.14235 0.53202 0.0
H2347 H 0.95445 0.1383 0.53422 0.0
H2348 H 0.01997 0.12995 0.53947 0.0
H2349 H 0.11647 0.15608 0.52341 0.0
H2350 H 0.30187 0.13288 0.53906 0.0
H2351 H 0.23769 0.14245 0.54393 0.0
H2352 H 0.13882 0.11789 0.56036 0.0
C2353 C 0.01639 0.14 0.53886 0.0
C2354 C 0.12104 0.14791 0.53187 0.0
C2355 C 0.97872 0.14482 0.53568 0.0
C2356 C 0.27601 0.12691 0.53907 0.0
C2357 C 0.23917 0.13244 0.54179 0.0
C2358 C 0.13424 0.12624 0.5523 0.0
C2359 C 0.04916 0.148 0.54028 0.0
C2360 C 0.08969 0.14268 0.54182 0.0
C2361 C 0.20461 0.1252 0.54131 0.0
C2362 C 0.1653 0.13138 0.54207 0.0
H2363 H 0.00157 0.17587 0.53451 0.0
H2364 H 0.06751 0.16745 0.54036 0.0
H2365 H 0.07359 0.12767 0.56028 0.0
H2366 H 0.24648 0.09664 0.53374 0.0
H2367 H 0.18179 0.10635 0.53846 0.0
loop_
_geom_bond_atom_site_label_1
_geom_bond_atom_site_label_2
_geom_bond_distance
_geom_bond_site_symmetry_2
_ccdc_geom_bond_type
O0 Cd1 2.223 . S
O0 C8 1.315 . S
Cd1 O0 2.223 . S
Cd1 O4 2.297 . S
Cd1 O5 2.439 . S
Cd1 O11 2.240 . S
Cd2 O3 2.240 . S
Cd2 O10 2.223 . S
Cd2 O12 2.297 . S
Cd2 O13 2.439 . S
O3 Cd2 2.240 . S
O3 C8 1.279 . S
O4 Cd1 2.297 . S
O4 C6 1.247 . S
O5 Cd1 2.439 . S
O5 C6 1.208 . S
C6 O4 1.247 . S
C6 O5 1.208 . S
C7 O12 1.247 . S
C7 O13 1.208 . S
C8 O0 1.315 . S
C8 O3 1.279 . S
C9 O10 1.315 . S
C9 O11 1.279 . S
O10 Cd2 2.223 . S
O10 C9 1.315 . S
O11 Cd1 2.240 . S
O11 C9 1.279 . S
O12 Cd2 2.297 . S
O12 C7 1.247 . S
O13 Cd2 2.439 . S
O13 C7 1.208 . S
O14 Cd15 2.223 . S
O14 C22 1.315 . S
Cd15 O14 2.223 . S
Cd15 O18 2.297 . S
Cd15 O19 2.439 . S
Cd15 O25 2.240 . S
Cd16 O17 2.240 . S
Cd16 O24 2.223 . S
Cd16 O26 2.297 . S
Cd16 O27 2.439 . S
O17 Cd16 2.240 . S
O17 C22 1.279 . S
O18 Cd15 2.297 . S
O18 C20 1.247 . S
O19 Cd15 2.439 . S
O19 C20 1.208 . S
C20 O18 1.247 . S
C20 O19 1.208 . S
C21 O26 1.247 . S
C21 O27 1.208 . S
C22 O14 1.315 . S
C22 O17 1.279 . S
C23 O24 1.315 . S
C23 O25 1.279 . S
O24 Cd16 2.223 . S
O24 C23 1.315 . S
O25 Cd15 2.240 . S
O25 C23 1.279 . S
O26 Cd16 2.297 . S
O26 C21 1.247 . S
O27 Cd16 2.439 . S
O27 C21 1.208 . S
O28 Cd29 2.223 . S
O28 C36 1.315 . S
Cd29 O28 2.223 . S
Cd29 O32 2.297 . S
Cd29 O33 2.439 1_554 S
Cd29 O39 2.240 1_554 S
Cd30 O31 2.240 1_556 S
Cd30 O38 2.223 1_556 S
Cd30 O40 2.297 . S
Cd30 O41 2.439 . S
O31 Cd30 2.240 1_554 S
O31 C36 1.279 . S
O32 Cd29 2.297 . S
O32 C34 1.247 . S
O33 Cd29 2.439 1_556 S
O33 C34 1.208 1_556 S
C34 O32 1.247 . S
C34 O33 1.208 1_554 S
C35 O40 1.247 . S
C35 O41 1.208 . S
C36 O28 1.315 . S
C36 O31 1.279 . S
C37 O38 1.315 . S
C37 O39 1.279 1_554 S
O38 Cd30 2.223 1_554 S
O38 C37 1.315 . S
O39 Cd29 2.240 1_556 S
O39 C37 1.279 1_556 S
O40 Cd30 2.297 . S
O40 C35 1.247 . S
O41 Cd30 2.439 . S
O41 C35 1.208 . S
O42 Cd43 2.223 . S
O42 C50 1.315 . S
Cd43 O42 2.223 . S
Cd43 O46 2.297 . S
Cd43 O47 2.439 1_554 S
Cd43 O53 2.240 1_554 S
Cd44 O45 2.240 1_556 S
Cd44 O52 2.223 1_556 S
Cd44 O54 2.297 . S
Cd44 O55 2.439 . S
O45 Cd44 2.240 1_554 S
O45 C50 1.279 . S
O46 Cd43 2.297 . S
O46 C48 1.247 . S
O47 Cd43 2.439 1_556 S
O47 C48 1.208 1_556 S
C48 O46 1.247 . S
C48 O47 1.208 1_554 S
C49 O54 1.247 . S
C49 O55 1.208 . S
C50 O42 1.315 . S
C50 O45 1.279 . S
C51 O52 1.315 . S
C51 O53 1.279 1_554 S
O52 Cd44 2.223 1_554 S
O52 C51 1.315 . S
O53 Cd43 2.240 1_556 S
O53 C51 1.279 1_556 S
O54 Cd44 2.297 . S
O54 C49 1.247 . S
O55 Cd44 2.439 . S
O55 C49 1.208 . S
O56 Cd57 2.223 . S
O56 C64 1.315 . S
Cd57 O56 2.223 . S
Cd57 O60 2.297 . S
Cd57 O61 2.439 . S
Cd57 O67 2.240 . S
Cd58 O59 2.240 . S
Cd58 O66 2.223 . S
Cd58 O68 2.297 . S
Cd58 O69 2.439 . S
O59 Cd58 2.240 . S
O59 C64 1.279 . S
O60 Cd57 2.297 . S
O60 C62 1.247 . S
O61 Cd57 2.439 . S
O61 C62 1.208 . S
C62 O60 1.247 . S
C62 O61 1.208 . S
C63 O68 1.247 . S
C63 O69 1.208 . S
C64 O56 1.315 . S
C64 O59 1.279 . S
C65 O66 1.315 . S
C65 O67 1.279 . S
O66 Cd58 2.223 . S
O66 C65 1.315 . S
O67 Cd57 2.240 . S
O67 C65 1.279 . S
O68 Cd58 2.297 . S
O68 C63 1.247 . S
O69 Cd58 2.439 . S
O69 C63 1.208 . S
O70 Cd71 2.223 . S
O70 C78 1.315 . S
Cd71 O70 2.223 . S
Cd71 O74 2.297 . S
Cd71 O75 2.439 . S
Cd71 O81 2.240 . S
Cd72 O73 2.240 . S
Cd72 O80 2.223 . S
Cd72 O82 2.297 . S
Cd72 O83 2.439 . S
O73 Cd72 2.240 . S
O73 C78 1.279 . S
O74 Cd71 2.297 . S
O74 C76 1.247 . S
O75 Cd71 2.439 . S
O75 C76 1.208 . S
C76 O74 1.247 . S
C76 O75 1.208 . S
C77 O82 1.247 . S
C77 O83 1.208 . S
C78 O70 1.315 . S
C78 O73 1.279 . S
C79 O80 1.315 . S
C79 O81 1.279 . S
O80 Cd72 2.223 . S
O80 C79 1.315 . S
O81 Cd71 2.240 . S
O81 C79 1.279 . S
O82 Cd72 2.297 . S
O82 C77 1.247 . S
O83 Cd72 2.439 . S
O83 C77 1.208 . S
O84 Cd85 2.223 . S
O84 C92 1.315 . S
Cd85 O84 2.223 . S
Cd85 O88 2.297 . S
Cd85 O89 2.439 1_556 S
Cd85 O95 2.240 1_556 S
Cd86 O87 2.240 1_554 S
Cd86 O94 2.223 1_554 S
Cd86 O96 2.297 . S
Cd86 O97 2.439 . S
O87 Cd86 2.240 1_556 S
O87 C92 1.279 . S
O88 Cd85 2.297 . S
O88 C90 1.247 . S
O89 Cd85 2.439 1_554 S
O89 C90 1.208 1_554 S
C90 O88 1.247 . S
C90 O89 1.208 1_556 S
C91 O96 1.247 . S
C91 O97 1.208 . S
C92 O84 1.315 . S
C92 O87 1.279 . S
C93 O94 1.315 . S
C93 O95 1.279 1_556 S
O94 Cd86 2.223 1_556 S
O94 C93 1.315 . S
O95 Cd85 2.240 1_554 S
O95 C93 1.279 1_554 S
O96 Cd86 2.297 . S
O96 C91 1.247 . S
O97 Cd86 2.439 . S
O97 C91 1.208 . S
O98 Cd99 2.223 . S
O98 C106 1.315 . S
Cd99 O98 2.223 . S
Cd99 O102 2.297 . S
Cd99 O103 2.439 1_556 S
Cd99 O109 2.240 1_556 S
Cd100 O101 2.240 1_554 S
Cd100 O108 2.223 1_554 S
Cd100 O110 2.297 . S
Cd100 O111 2.439 . S
O101 Cd100 2.240 1_556 S
O101 C106 1.279 . S
O102 Cd99 2.297 . S
O102 C104 1.247 . S
O103 Cd99 2.439 1_554 S
O103 C104 1.208 1_554 S
C104 O102 1.247 . S
C104 O103 1.208 1_556 S
C105 O110 1.247 . S
C105 O111 1.208 . S
C106 O98 1.315 . S
C106 O101 1.279 . S
C107 O108 1.315 . S
C107 O109 1.279 1_556 S
O108 Cd100 2.223 1_556 S
O108 C107 1.315 . S
O109 Cd99 2.240 1_554 S
O109 C107 1.279 1_554 S
O110 Cd100 2.297 . S
O110 C105 1.247 . S
O111 Cd100 2.439 . S
O111 C105 1.208 . S
O112 Cd113 2.223 . S
O112 C120 1.315 . S
Cd113 O112 2.223 . S
Cd113 O116 2.297 . S
Cd113 O117 2.439 . S
Cd113 O123 2.240 . S
Cd114 O115 2.240 . S
Cd114 O122 2.223 . S
Cd114 O124 2.297 . S
Cd114 O125 2.439 . S
O115 Cd114 2.240 . S
O115 C120 1.279 . S
O116 Cd113 2.297 . S
O116 C118 1.247 . S
O117 Cd113 2.439 . S
O117 C118 1.208 . S
C118 O116 1.247 . S
C118 O117 1.208 . S
C119 O124 1.247 . S
C119 O125 1.208 . S
C120 O112 1.315 . S
C120 O115 1.279 . S
C121 O122 1.315 . S
C121 O123 1.279 . S
O122 Cd114 2.223 . S
O122 C121 1.315 . S
O123 Cd113 2.240 . S
O123 C121 1.279 . S
O124 Cd114 2.297 . S
O124 C119 1.247 . S
O125 Cd114 2.439 . S
O125 C119 1.208 . S
O126 Cd127 2.223 . S
O126 C134 1.315 . S
Cd127 O126 2.223 . S
Cd127 O130 2.297 . S
Cd127 O131 2.439 . S
Cd127 O137 2.240 . S
Cd128 O129 2.240 . S
Cd128 O136 2.223 . S
Cd128 O138 2.297 . S
Cd128 O139 2.439 . S
O129 Cd128 2.240 . S
O129 C134 1.279 . S
O130 Cd127 2.297 . S
O130 C132 1.247 . S
O131 Cd127 2.439 . S
O131 C132 1.208 . S
C132 O130 1.247 . S
C132 O131 1.208 . S
C133 O138 1.247 . S
C133 O139 1.208 . S
C134 O126 1.315 . S
C134 O129 1.279 . S
C135 O136 1.315 . S
C135 O137 1.279 . S
O136 Cd128 2.223 . S
O136 C135 1.315 . S
O137 Cd127 2.240 . S
O137 C135 1.279 . S
O138 Cd128 2.297 . S
O138 C133 1.247 . S
O139 Cd128 2.439 . S
O139 C133 1.208 . S
O140 Cd141 2.223 . S
O140 C148 1.315 . S
Cd141 O140 2.223 . S
Cd141 O144 2.297 . S
Cd141 O145 2.439 . S
Cd141 O151 2.240 . S
Cd142 O143 2.240 . S
Cd142 O150 2.223 . S
Cd142 O152 2.297 . S
Cd142 O153 2.439 . S
O143 Cd142 2.240 . S
O143 C148 1.279 . S
O144 Cd141 2.297 . S
O144 C146 1.247 . S
O145 Cd141 2.439 . S
O145 C146 1.208 . S
C146 O144 1.247 . S
C146 O145 1.208 . S
C147 O152 1.247 . S
C147 O153 1.208 . S
C148 O140 1.315 . S
C148 O143 1.279 . S
C149 O150 1.315 . S
C149 O151 1.279 . S
O150 Cd142 2.223 . S
O150 C149 1.315 . S
O151 Cd141 2.240 . S
O151 C149 1.279 . S
O152 Cd142 2.297 . S
O152 C147 1.247 . S
O153 Cd142 2.439 . S
O153 C147 1.208 . S
O154 Cd155 2.223 . S
O154 C162 1.315 . S
Cd155 O154 2.223 . S
Cd155 O158 2.297 . S
Cd155 O159 2.439 . S
Cd155 O165 2.240 . S
Cd156 O157 2.240 . S
Cd156 O164 2.223 . S
Cd156 O166 2.297 . S
Cd156 O167 2.439 . S
O157 Cd156 2.240 . S
O157 C162 1.279 . S
O158 Cd155 2.297 . S
O158 C160 1.247 . S
O159 Cd155 2.439 . S
O159 C160 1.208 . S
C160 O158 1.247 . S
C160 O159 1.208 . S
C161 O166 1.247 . S
C161 O167 1.208 . S
C162 O154 1.315 . S
C162 O157 1.279 . S
C163 O164 1.315 . S
C163 O165 1.279 . S
O164 Cd156 2.223 . S
O164 C163 1.315 . S
O165 Cd155 2.240 . S
O165 C163 1.279 . S
O166 Cd156 2.297 . S
O166 C161 1.247 . S
O167 Cd156 2.439 . S
O167 C161 1.208 . S
O168 Cd169 2.223 . S
O168 C176 1.315 . S
Cd169 O168 2.223 . S
Cd169 O172 2.297 . S
Cd169 O173 2.439 . S
Cd169 O179 2.240 . S
Cd170 O171 2.240 . S
Cd170 O178 2.223 . S
Cd170 O180 2.297 . S
Cd170 O181 2.439 . S
O171 Cd170 2.240 . S
O171 C176 1.279 . S
O172 Cd169 2.297 . S
O172 C174 1.247 . S
O173 Cd169 2.439 . S
O173 C174 1.208 . S
C174 O172 1.247 . S
C174 O173 1.208 . S
C175 O180 1.247 . S
C175 O181 1.208 . S
C176 O168 1.315 . S
C176 O171 1.279 . S
C177 O178 1.315 . S
C177 O179 1.279 . S
O178 Cd170 2.223 . S
O178 C177 1.315 . S
O179 Cd169 2.240 . S
O179 C177 1.279 . S
O180 Cd170 2.297 . S
O180 C175 1.247 . S
O181 Cd170 2.439 . S
O181 C175 1.208 . S
O182 Cd183 2.223 . S
O182 C190 1.315 . S
Cd183 O182 2.223 . S
Cd183 O186 2.297 . S
Cd183 O187 2.439 . S
Cd183 O193 2.240 . S
Cd184 O185 2.240 . S
Cd184 O192 2.223 . S
Cd184 O194 2.297 . S
Cd184 O195 2.439 . S
O185 Cd184 2.240 . S
O185 C190 1.279 . S
O186 Cd183 2.297 . S
O186 C188 1.247 . S
O187 Cd183 2.439 . S
O187 C188 1.208 . S
C188 O186 1.247 . S
C188 O187 1.208 . S
C189 O194 1.247 . S
C189 O195 1.208 . S
C190 O182 1.315 . S
C190 O185 1.279 . S
C191 O192 1.315 . S
C191 O193 1.279 . S
O192 Cd184 2.223 . S
O192 C191 1.315 . S
O193 Cd183 2.240 . S
O193 C191 1.279 . S
O194 Cd184 2.297 . S
O194 C189 1.247 . S
O195 Cd184 2.439 . S
O195 C189 1.208 . S
O196 Cd197 2.223 . S
O196 C204 1.315 . S
Cd197 O196 2.223 . S
Cd197 O200 2.297 . S
Cd197 O201 2.439 . S
Cd197 O207 2.240 . S
Cd198 O199 2.240 . S
Cd198 O206 2.223 . S
Cd198 O208 2.297 . S
Cd198 O209 2.439 . S
O199 Cd198 2.240 . S
O199 C204 1.279 . S
O200 Cd197 2.297 . S
O200 C202 1.247 . S
O201 Cd197 2.439 . S
O201 C202 1.208 . S
C202 O200 1.247 . S
C202 O201 1.208 . S
C203 O208 1.247 . S
C203 O209 1.208 . S
C204 O196 1.315 . S
C204 O199 1.279 . S
C205 O206 1.315 . S
C205 O207 1.279 . S
O206 Cd198 2.223 . S
O206 C205 1.315 . S
O207 Cd197 2.240 . S
O207 C205 1.279 . S
O208 Cd198 2.297 . S
O208 C203 1.247 . S
O209 Cd198 2.439 . S
O209 C203 1.208 . S
O210 Cd211 2.223 . S
O210 C218 1.315 . S
Cd211 O210 2.223 . S
Cd211 O214 2.297 . S
Cd211 O215 2.439 . S
Cd211 O221 2.240 . S
Cd212 O213 2.240 . S
Cd212 O220 2.223 . S
Cd212 O222 2.297 . S
Cd212 O223 2.439 . S
O213 Cd212 2.240 . S
O213 C218 1.279 . S
O214 Cd211 2.297 . S
O214 C216 1.247 . S
O215 Cd211 2.439 . S
O215 C216 1.208 . S
C216 O214 1.247 . S
C216 O215 1.208 . S
C217 O222 1.247 . S
C217 O223 1.208 . S
C218 O210 1.315 . S
C218 O213 1.279 . S
C219 O220 1.315 . S
C219 O221 1.279 . S
O220 Cd212 2.223 . S
O220 C219 1.315 . S
O221 Cd211 2.240 . S
O221 C219 1.279 . S
O222 Cd212 2.297 . S
O222 C217 1.247 . S
O223 Cd212 2.439 . S
O223 C217 1.208 . S
O224 Cd225 2.223 . S
O224 C232 1.315 . S
Cd225 O224 2.223 . S
Cd225 O228 2.297 . S
Cd225 O229 2.439 . S
Cd225 O235 2.240 . S
Cd226 O227 2.240 . S
Cd226 O234 2.223 . S
Cd226 O236 2.297 . S
Cd226 O237 2.439 . S
O227 Cd226 2.240 . S
O227 C232 1.279 . S
O228 Cd225 2.297 . S
O228 C230 1.247 . S
O229 Cd225 2.439 . S
O229 C230 1.208 . S
C230 O228 1.247 . S
C230 O229 1.208 . S
C231 O236 1.247 . S
C231 O237 1.208 . S
C232 O224 1.315 . S
C232 O227 1.279 . S
C233 O234 1.315 . S
C233 O235 1.279 . S
O234 Cd226 2.223 . S
O234 C233 1.315 . S
O235 Cd225 2.240 . S
O235 C233 1.279 . S
O236 Cd226 2.297 . S
O236 C231 1.247 . S
O237 Cd226 2.439 . S
O237 C231 1.208 . S
O238 Cd239 2.223 . S
O238 C246 1.315 . S
Cd239 O238 2.223 . S
Cd239 O242 2.297 . S
Cd239 O243 2.439 . S
Cd239 O249 2.240 . S
Cd240 O241 2.240 . S
Cd240 O248 2.223 . S
Cd240 O250 2.297 . S
Cd240 O251 2.439 . S
O241 Cd240 2.240 . S
O241 C246 1.279 . S
O242 Cd239 2.297 . S
O242 C244 1.247 . S
O243 Cd239 2.439 . S
O243 C244 1.208 . S
C244 O242 1.247 . S
C244 O243 1.208 . S
C245 O250 1.247 . S
C245 O251 1.208 . S
C246 O238 1.315 . S
C246 O241 1.279 . S
C247 O248 1.315 . S
C247 O249 1.279 . S
O248 Cd240 2.223 . S
O248 C247 1.315 . S
O249 Cd239 2.240 . S
O249 C247 1.279 . S
O250 Cd240 2.297 . S
O250 C245 1.247 . S
O251 Cd240 2.439 . S
O251 C245 1.208 . S
O252 Cd253 2.223 . S
O252 C260 1.315 . S
Cd253 O252 2.223 . S
Cd253 O256 2.297 . S
Cd253 O257 2.439 . S
Cd253 O263 2.240 . S
Cd254 O255 2.240 . S
Cd254 O262 2.223 . S
Cd254 O264 2.297 . S
Cd254 O265 2.439 . S
O255 Cd254 2.240 . S
O255 C260 1.279 . S
O256 Cd253 2.297 . S
O256 C258 1.247 . S
O257 Cd253 2.439 . S
O257 C258 1.208 . S
C258 O256 1.247 . S
C258 O257 1.208 . S
C259 O264 1.247 . S
C259 O265 1.208 . S
C260 O252 1.315 . S
C260 O255 1.279 . S
C261 O262 1.315 . S
C261 O263 1.279 . S
O262 Cd254 2.223 . S
O262 C261 1.315 . S
O263 Cd253 2.240 . S
O263 C261 1.279 . S
O264 Cd254 2.297 . S
O264 C259 1.247 . S
O265 Cd254 2.439 . S
O265 C259 1.208 . S
O266 Cd267 2.223 . S
O266 C274 1.315 . S
Cd267 O266 2.223 . S
Cd267 O270 2.297 . S
Cd267 O271 2.439 . S
Cd267 O277 2.240 . S
Cd268 O269 2.240 . S
Cd268 O276 2.223 . S
Cd268 O278 2.297 . S
Cd268 O279 2.439 . S
O269 Cd268 2.240 . S
O269 C274 1.279 . S
O270 Cd267 2.297 . S
O270 C272 1.247 . S
O271 Cd267 2.439 . S
O271 C272 1.208 . S
C272 O270 1.247 . S
C272 O271 1.208 . S
C273 O278 1.247 . S
C273 O279 1.208 . S
C274 O266 1.315 . S
C274 O269 1.279 . S
C275 O276 1.315 . S
C275 O277 1.279 . S
O276 Cd268 2.223 . S
O276 C275 1.315 . S
O277 Cd267 2.240 . S
O277 C275 1.279 . S
O278 Cd268 2.297 . S
O278 C273 1.247 . S
O279 Cd268 2.439 . S
O279 C273 1.208 . S
O280 Cd281 2.223 . S
O280 C288 1.315 . S
Cd281 O280 2.223 . S
Cd281 O284 2.297 . S
Cd281 O285 2.439 . S
Cd281 O291 2.240 . S
Cd282 O283 2.240 . S
Cd282 O290 2.223 . S
Cd282 O292 2.297 . S
Cd282 O293 2.439 . S
O283 Cd282 2.240 . S
O283 C288 1.279 . S
O284 Cd281 2.297 . S
O284 C286 1.247 . S
O285 Cd281 2.439 . S
O285 C286 1.208 . S
C286 O284 1.247 . S
C286 O285 1.208 . S
C287 O292 1.247 . S
C287 O293 1.208 . S
C288 O280 1.315 . S
C288 O283 1.279 . S
C289 O290 1.315 . S
C289 O291 1.279 . S
O290 Cd282 2.223 . S
O290 C289 1.315 . S
O291 Cd281 2.240 . S
O291 C289 1.279 . S
O292 Cd282 2.297 . S
O292 C287 1.247 . S
O293 Cd282 2.439 . S
O293 C287 1.208 . S
O294 Cd295 2.223 . S
O294 C302 1.315 . S
Cd295 O294 2.223 . S
Cd295 O298 2.297 . S
Cd295 O299 2.439 . S
Cd295 O305 2.240 . S
Cd296 O297 2.240 . S
Cd296 O304 2.223 . S
Cd296 O306 2.297 . S
Cd296 O307 2.439 . S
O297 Cd296 2.240 . S
O297 C302 1.279 . S
O298 Cd295 2.297 . S
O298 C300 1.247 . S
O299 Cd295 2.439 . S
O299 C300 1.208 . S
C300 O298 1.247 . S
C300 O299 1.208 . S
C301 O306 1.247 . S
C301 O307 1.208 . S
C302 O294 1.315 . S
C302 O297 1.279 . S
C303 O304 1.315 . S
C303 O305 1.279 . S
O304 Cd296 2.223 . S
O304 C303 1.315 . S
O305 Cd295 2.240 . S
O305 C303 1.279 . S
O306 Cd296 2.297 . S
O306 C301 1.247 . S
O307 Cd296 2.439 . S
O307 C301 1.208 . S
O308 Cd309 2.223 . S
O308 C316 1.315 . S
Cd309 O308 2.223 . S
Cd309 O312 2.297 . S
Cd309 O313 2.439 . S
Cd309 O319 2.240 . S
Cd310 O311 2.240 . S
Cd310 O318 2.223 . S
Cd310 O320 2.297 . S
Cd310 O321 2.439 . S
O311 Cd310 2.240 . S
O311 C316 1.279 . S
O312 Cd309 2.297 . S
O312 C314 1.247 . S
O313 Cd309 2.439 . S
O313 C314 1.208 . S
C314 O312 1.247 . S
C314 O313 1.208 . S
C315 O320 1.247 . S
C315 O321 1.208 . S
C316 O308 1.315 . S
C316 O311 1.279 . S
C317 O318 1.315 . S
C317 O319 1.279 . S
O318 Cd310 2.223 . S
O318 C317 1.315 . S
O319 Cd309 2.240 . S
O319 C317 1.279 . S
O320 Cd310 2.297 . S
O320 C315 1.247 . S
O321 Cd310 2.439 . S
O321 C315 1.208 . S
O322 Cd323 2.223 . S
O322 C330 1.315 . S
Cd323 O322 2.223 . S
Cd323 O326 2.297 . S
Cd323 O327 2.439 . S
Cd323 O333 2.240 . S
Cd324 O325 2.240 . S
Cd324 O332 2.223 . S
Cd324 O334 2.297 . S
Cd324 O335 2.439 . S
O325 Cd324 2.240 . S
O325 C330 1.279 . S
O326 Cd323 2.297 . S
O326 C328 1.247 . S
O327 Cd323 2.439 . S
O327 C328 1.208 . S
C328 O326 1.247 . S
C328 O327 1.208 . S
C329 O334 1.247 . S
C329 O335 1.208 . S
C330 O322 1.315 . S
C330 O325 1.279 . S
C331 O332 1.315 . S
C331 O333 1.279 . S
O332 Cd324 2.223 . S
O332 C331 1.315 . S
O333 Cd323 2.240 . S
O333 C331 1.279 . S
O334 Cd324 2.297 . S
O334 C329 1.247 . S
O335 Cd324 2.439 . S
O335 C329 1.208 . S
O336 Cd337 2.223 . S
O336 C344 1.315 . S
Cd337 O336 2.223 . S
Cd337 O340 2.297 . S
Cd337 O341 2.439 . S
Cd337 O347 2.240 . S
Cd338 O339 2.240 . S
Cd338 O346 2.223 . S
Cd338 O348 2.297 . S
Cd338 O349 2.439 . S
O339 Cd338 2.240 . S
O339 C344 1.279 . S
O340 Cd337 2.297 . S
O340 C342 1.247 . S
O341 Cd337 2.439 . S
O341 C342 1.208 . S
C342 O340 1.247 . S
C342 O341 1.208 . S
C343 O348 1.247 . S
C343 O349 1.208 . S
C344 O336 1.315 . S
C344 O339 1.279 . S
C345 O346 1.315 . S
C345 O347 1.279 . S
O346 Cd338 2.223 . S
O346 C345 1.315 . S
O347 Cd337 2.240 . S
O347 C345 1.279 . S
O348 Cd338 2.297 . S
O348 C343 1.247 . S
O349 Cd338 2.439 . S
O349 C343 1.208 . S
O350 Cd351 2.223 . S
O350 C358 1.315 . S
Cd351 O350 2.223 . S
Cd351 O354 2.297 . S
Cd351 O355 2.439 . S
Cd351 O361 2.240 . S
Cd352 O353 2.240 . S
Cd352 O360 2.223 . S
Cd352 O362 2.297 . S
Cd352 O363 2.439 . S
O353 Cd352 2.240 . S
O353 C358 1.279 . S
O354 Cd351 2.297 . S
O354 C356 1.247 . S
O355 Cd351 2.439 . S
O355 C356 1.208 . S
C356 O354 1.247 . S
C356 O355 1.208 . S
C357 O362 1.247 . S
C357 O363 1.208 . S
C358 O350 1.315 . S
C358 O353 1.279 . S
C359 O360 1.315 . S
C359 O361 1.279 . S
O360 Cd352 2.223 . S
O360 C359 1.315 . S
O361 Cd351 2.240 . S
O361 C359 1.279 . S
O362 Cd352 2.297 . S
O362 C357 1.247 . S
O363 Cd352 2.439 . S
O363 C357 1.208 . S
O364 Cd365 2.223 . S
O364 C372 1.315 . S
Cd365 O364 2.223 . S
Cd365 O368 2.297 . S
Cd365 O369 2.439 1_554 S
Cd365 O375 2.240 1_554 S
Cd366 O367 2.240 1_556 S
Cd366 O374 2.223 1_556 S
Cd366 O376 2.297 . S
Cd366 O377 2.439 . S
O367 Cd366 2.240 1_554 S
O367 C372 1.279 . S
O368 Cd365 2.297 . S
O368 C370 1.247 . S
O369 Cd365 2.439 1_556 S
O369 C370 1.208 1_556 S
C370 O368 1.247 . S
C370 O369 1.208 1_554 S
C371 O376 1.247 . S
C371 O377 1.208 . S
C372 O364 1.315 . S
C372 O367 1.279 . S
C373 O374 1.315 . S
C373 O375 1.279 1_554 S
O374 Cd366 2.223 1_554 S
O374 C373 1.315 . S
O375 Cd365 2.240 1_556 S
O375 C373 1.279 1_556 S
O376 Cd366 2.297 . S
O376 C371 1.247 . S
O377 Cd366 2.439 . S
O377 C371 1.208 . S
O378 Cd379 2.223 . S
O378 C386 1.315 . S
Cd379 O378 2.223 . S
Cd379 O382 2.297 . S
Cd379 O383 2.439 1_554 S
Cd379 O389 2.240 1_554 S
Cd380 O381 2.240 1_556 S
Cd380 O388 2.223 1_556 S
Cd380 O390 2.297 . S
Cd380 O391 2.439 . S
O381 Cd380 2.240 1_554 S
O381 C386 1.279 . S
O382 Cd379 2.297 . S
O382 C384 1.247 . S
O383 Cd379 2.439 1_556 S
O383 C384 1.208 1_556 S
C384 O382 1.247 . S
C384 O383 1.208 1_554 S
C385 O390 1.247 . S
C385 O391 1.208 . S
C386 O378 1.315 . S
C386 O381 1.279 . S
C387 O388 1.315 . S
C387 O389 1.279 1_554 S
O388 Cd380 2.223 1_554 S
O388 C387 1.315 . S
O389 Cd379 2.240 1_556 S
O389 C387 1.279 1_556 S
O390 Cd380 2.297 . S
O390 C385 1.247 . S
O391 Cd380 2.439 . S
O391 C385 1.208 . S
O392 Cd393 2.223 . S
O392 C400 1.315 . S
Cd393 O392 2.223 . S
Cd393 O396 2.297 . S
Cd393 O397 2.439 . S
Cd393 O403 2.240 . S
Cd394 O395 2.240 . S
Cd394 O402 2.223 . S
Cd394 O404 2.297 . S
Cd394 O405 2.439 . S
O395 Cd394 2.240 . S
O395 C400 1.279 . S
O396 Cd393 2.297 . S
O396 C398 1.247 . S
O397 Cd393 2.439 . S
O397 C398 1.208 . S
C398 O396 1.247 . S
C398 O397 1.208 . S
C399 O404 1.247 . S
C399 O405 1.208 . S
C400 O392 1.315 . S
C400 O395 1.279 . S
C401 O402 1.315 . S
C401 O403 1.279 . S
O402 Cd394 2.223 . S
O402 C401 1.315 . S
O403 Cd393 2.240 . S
O403 C401 1.279 . S
O404 Cd394 2.297 . S
O404 C399 1.247 . S
O405 Cd394 2.439 . S
O405 C399 1.208 . S
O406 Cd407 2.223 . S
O406 C414 1.315 . S
Cd407 O406 2.223 . S
Cd407 O410 2.297 . S
Cd407 O411 2.439 . S
Cd407 O417 2.240 . S
Cd408 O409 2.240 . S
Cd408 O416 2.223 . S
Cd408 O418 2.297 . S
Cd408 O419 2.439 . S
O409 Cd408 2.240 . S
O409 C414 1.279 . S
O410 Cd407 2.297 . S
O410 C412 1.247 . S
O411 Cd407 2.439 . S
O411 C412 1.208 . S
C412 O410 1.247 . S
C412 O411 1.208 . S
C413 O418 1.247 . S
C413 O419 1.208 . S
C414 O406 1.315 . S
C414 O409 1.279 . S
C415 O416 1.315 . S
C415 O417 1.279 . S
O416 Cd408 2.223 . S
O416 C415 1.315 . S
O417 Cd407 2.240 . S
O417 C415 1.279 . S
O418 Cd408 2.297 . S
O418 C413 1.247 . S
O419 Cd408 2.439 . S
O419 C413 1.208 . S
O420 Cd421 2.223 . S
O420 C428 1.315 . S
Cd421 O420 2.223 . S
Cd421 O424 2.297 . S
Cd421 O425 2.439 1_556 S
Cd421 O431 2.240 1_556 S
Cd422 O423 2.240 1_554 S
Cd422 O430 2.223 1_554 S
Cd422 O432 2.297 . S
Cd422 O433 2.439 . S
O423 Cd422 2.240 1_556 S
O423 C428 1.279 . S
O424 Cd421 2.297 . S
O424 C426 1.247 . S
O425 Cd421 2.439 1_554 S
O425 C426 1.208 1_554 S
C426 O424 1.247 . S
C426 O425 1.208 1_556 S
C427 O432 1.247 . S
C427 O433 1.208 . S
C428 O420 1.315 . S
C428 O423 1.279 . S
C429 O430 1.315 . S
C429 O431 1.279 1_556 S
O430 Cd422 2.223 1_556 S
O430 C429 1.315 . S
O431 Cd421 2.240 1_554 S
O431 C429 1.279 1_554 S
O432 Cd422 2.297 . S
O432 C427 1.247 . S
O433 Cd422 2.439 . S
O433 C427 1.208 . S
O434 Cd435 2.223 . S
O434 C442 1.315 . S
Cd435 O434 2.223 . S
Cd435 O438 2.297 . S
Cd435 O439 2.439 1_556 S
Cd435 O445 2.240 1_556 S
Cd436 O437 2.240 1_554 S
Cd436 O444 2.223 1_554 S
Cd436 O446 2.297 . S
Cd436 O447 2.439 . S
O437 Cd436 2.240 1_556 S
O437 C442 1.279 . S
O438 Cd435 2.297 . S
O438 C440 1.247 . S
O439 Cd435 2.439 1_554 S
O439 C440 1.208 1_554 S
C440 O438 1.247 . S
C440 O439 1.208 1_556 S
C441 O446 1.247 . S
C441 O447 1.208 . S
C442 O434 1.315 . S
C442 O437 1.279 . S
C443 O444 1.315 . S
C443 O445 1.279 1_556 S
O444 Cd436 2.223 1_556 S
O444 C443 1.315 . S
O445 Cd435 2.240 1_554 S
O445 C443 1.279 1_554 S
O446 Cd436 2.297 . S
O446 C441 1.247 . S
O447 Cd436 2.439 . S
O447 C441 1.208 . S
C448 C449 1.349 . S
C448 C450 1.327 . S
C448 H473 0.950 . S
C449 C448 1.349 . S
C449 C465 1.349 . S
C450 C448 1.327 . S
C450 C469 1.429 . S
C450 H474 0.950 . S
C451 C468 1.574 . S
C451 C470 1.368 . S
C451 H475 0.949 . S
H452 C456 0.949 . S
C453 C454 1.349 . S
C453 C455 1.327 . S
C453 H476 0.950 . S
C454 C453 1.349 . S
C454 C466 1.349 . S
C455 C453 1.327 . S
C455 C471 1.429 . S
C455 H477 0.950 . S
C456 H452 0.949 . S
C456 C464 1.574 . S
C456 C472 1.368 . S
H457 C465 0.950 . S
H458 C463 0.950 . S
H459 C464 0.949 . S
H460 C466 0.950 . S
H461 C467 0.950 . S
H462 C468 0.949 . S
C463 H458 0.950 . S
C463 C465 1.327 . S
C463 C469 1.429 . S
C464 C456 1.574 . S
C464 H459 0.949 . S
C464 C470 1.368 . S
C465 C449 1.349 . S
C465 H457 0.950 . S
C465 C463 1.327 . S
C466 C454 1.349 . S
C466 H460 0.950 . S
C466 C467 1.327 . S
C467 H461 0.950 . S
C467 C466 1.327 . S
C467 C471 1.429 . S
C468 C451 1.574 . S
C468 H462 0.949 . S
C468 C472 1.368 . S
C469 C450 1.429 . S
C469 C463 1.429 . S
C469 C470 1.523 . S
C470 C451 1.368 . S
C470 C464 1.368 . S
C470 C469 1.523 . S
C471 C455 1.429 . S
C471 C467 1.429 . S
C471 C472 1.523 . S
C472 C456 1.368 . S
C472 C468 1.368 . S
C472 C471 1.523 . S
H473 C448 0.950 . S
H474 C450 0.950 . S
H475 C451 0.949 . S
H476 C453 0.950 . S
H477 C455 0.950 . S
C478 C479 1.349 . S
C478 C480 1.327 . S
C478 H503 0.950 . S
C479 C478 1.349 . S
C479 C495 1.349 . S
C480 C478 1.327 . S
C480 C499 1.429 . S
C480 H504 0.950 . S
C481 C498 1.574 . S
C481 C500 1.368 . S
C481 H505 0.949 . S
H482 C486 0.949 . S
C483 C484 1.349 . S
C483 C485 1.327 . S
C483 H506 0.950 . S
C484 C483 1.349 . S
C484 C496 1.349 . S
C485 C483 1.327 . S
C485 C501 1.429 . S
C485 H507 0.950 . S
C486 H482 0.949 . S
C486 C494 1.574 . S
C486 C502 1.368 . S
H487 C495 0.950 . S
H488 C493 0.950 . S
H489 C494 0.949 . S
H490 C496 0.950 . S
H491 C497 0.950 . S
H492 C498 0.949 . S
C493 H488 0.950 . S
C493 C495 1.327 . S
C493 C499 1.429 . S
C494 C486 1.574 . S
C494 H489 0.949 . S
C494 C500 1.368 . S
C495 C479 1.349 . S
C495 H487 0.950 . S
C495 C493 1.327 . S
C496 C484 1.349 . S
C496 H490 0.950 . S
C496 C497 1.327 . S
C497 H491 0.950 . S
C497 C496 1.327 . S
C497 C501 1.429 . S
C498 C481 1.574 . S
C498 H492 0.949 . S
C498 C502 1.368 . S
C499 C480 1.429 . S
C499 C493 1.429 . S
C499 C500 1.523 . S
C500 C481 1.368 . S
C500 C494 1.368 . S
C500 C499 1.523 . S
C501 C485 1.429 . S
C501 C497 1.429 . S
C501 C502 1.523 . S
C502 C486 1.368 . S
C502 C498 1.368 . S
C502 C501 1.523 . S
H503 C478 0.950 . S
H504 C480 0.950 . S
H505 C481 0.949 . S
H506 C483 0.950 . S
H507 C485 0.950 . S
C508 C509 1.349 . S
C508 C510 1.327 . S
C508 H533 0.950 . S
C509 C508 1.349 . S
C509 C525 1.349 . S
C510 C508 1.327 . S
C510 C529 1.429 . S
C510 H534 0.950 . S
C511 C528 1.574 . S
C511 C530 1.368 . S
C511 H535 0.949 . S
H512 C516 0.949 . S
C513 C514 1.349 . S
C513 C515 1.327 . S
C513 H536 0.950 . S
C514 C513 1.349 . S
C514 C526 1.349 . S
C515 C513 1.327 . S
C515 C531 1.429 . S
C515 H537 0.950 . S
C516 H512 0.949 . S
C516 C524 1.574 . S
C516 C532 1.368 . S
H517 C525 0.950 . S
H518 C523 0.950 . S
H519 C524 0.949 . S
H520 C526 0.950 . S
H521 C527 0.950 . S
H522 C528 0.949 . S
C523 H518 0.950 . S
C523 C525 1.327 . S
C523 C529 1.429 . S
C524 C516 1.574 . S
C524 H519 0.949 . S
C524 C530 1.368 . S
C525 C509 1.349 . S
C525 H517 0.950 . S
C525 C523 1.327 . S
C526 C514 1.349 . S
C526 H520 0.950 . S
C526 C527 1.327 . S
C527 H521 0.950 . S
C527 C526 1.327 . S
C527 C531 1.429 . S
C528 C511 1.574 . S
C528 H522 0.949 . S
C528 C532 1.368 . S
C529 C510 1.429 . S
C529 C523 1.429 . S
C529 C530 1.523 . S
C530 C511 1.368 . S
C530 C524 1.368 . S
C530 C529 1.523 . S
C531 C515 1.429 . S
C531 C527 1.429 . S
C531 C532 1.523 . S
C532 C516 1.368 . S
C532 C528 1.368 . S
C532 C531 1.523 . S
H533 C508 0.950 . S
H534 C510 0.950 . S
H535 C511 0.949 . S
H536 C513 0.950 . S
H537 C515 0.950 . S
C538 C539 1.349 . S
C538 C540 1.327 . S
C538 H563 0.950 . S
C539 C538 1.349 . S
C539 C555 1.349 . S
C540 C538 1.327 . S
C540 C559 1.429 . S
C540 H564 0.950 . S
C541 C558 1.574 . S
C541 C560 1.368 . S
C541 H565 0.949 . S
H542 C546 0.949 . S
C543 C544 1.349 . S
C543 C545 1.327 . S
C543 H566 0.950 . S
C544 C543 1.349 . S
C544 C556 1.349 . S
C545 C543 1.327 . S
C545 C561 1.429 . S
C545 H567 0.950 . S
C546 H542 0.949 . S
C546 C554 1.574 . S
C546 C562 1.368 . S
H547 C555 0.950 . S
H548 C553 0.950 . S
H549 C554 0.949 . S
H550 C556 0.950 . S
H551 C557 0.950 . S
H552 C558 0.949 . S
C553 H548 0.950 . S
C553 C555 1.327 . S
C553 C559 1.429 . S
C554 C546 1.574 . S
C554 H549 0.949 . S
C554 C560 1.368 . S
C555 C539 1.349 . S
C555 H547 0.950 . S
C555 C553 1.327 . S
C556 C544 1.349 . S
C556 H550 0.950 . S
C556 C557 1.327 . S
C557 H551 0.950 . S
C557 C556 1.327 . S
C557 C561 1.429 . S
C558 C541 1.574 . S
C558 H552 0.949 . S
C558 C562 1.368 . S
C559 C540 1.429 . S
C559 C553 1.429 . S
C559 C560 1.523 . S
C560 C541 1.368 . S
C560 C554 1.368 . S
C560 C559 1.523 . S
C561 C545 1.429 . S
C561 C557 1.429 . S
C561 C562 1.523 . S
C562 C546 1.368 . S
C562 C558 1.368 . S
C562 C561 1.523 . S
H563 C538 0.950 . S
H564 C540 0.950 . S
H565 C541 0.949 . S
H566 C543 0.950 . S
H567 C545 0.950 . S
C568 C569 1.349 . S
C568 C570 1.327 . S
C568 H593 0.950 . S
C569 C568 1.349 . S
C569 C585 1.349 . S
C570 C568 1.327 . S
C570 C589 1.429 . S
C570 H594 0.950 . S
C571 C588 1.574 . S
C571 C590 1.368 . S
C571 H595 0.949 . S
H572 C576 0.949 . S
C573 C574 1.349 . S
C573 C575 1.327 . S
C573 H596 0.950 . S
C574 C573 1.349 . S
C574 C586 1.349 . S
C575 C573 1.327 . S
C575 C591 1.429 . S
C575 H597 0.950 . S
C576 H572 0.949 . S
C576 C584 1.574 . S
C576 C592 1.368 . S
H577 C585 0.950 . S
H578 C583 0.950 . S
H579 C584 0.949 . S
H580 C586 0.950 . S
H581 C587 0.950 . S
H582 C588 0.949 . S
C583 H578 0.950 . S
C583 C585 1.327 . S
C583 C589 1.429 . S
C584 C576 1.574 . S
C584 H579 0.949 . S
C584 C590 1.368 . S
C585 C569 1.349 . S
C585 H577 0.950 . S
C585 C583 1.327 . S
C586 C574 1.349 . S
C586 H580 0.950 . S
C586 C587 1.327 . S
C587 H581 0.950 . S
C587 C586 1.327 . S
C587 C591 1.429 . S
C588 C571 1.574 . S
C588 H582 0.949 . S
C588 C592 1.368 . S
C589 C570 1.429 . S
C589 C583 1.429 . S
C589 C590 1.523 . S
C590 C571 1.368 . S
C590 C584 1.368 . S
C590 C589 1.523 . S
C591 C575 1.429 . S
C591 C587 1.429 . S
C591 C592 1.523 . S
C592 C576 1.368 . S
C592 C588 1.368 . S
C592 C591 1.523 . S
H593 C568 0.950 . S
H594 C570 0.950 . S
H595 C571 0.949 . S
H596 C573 0.950 . S
H597 C575 0.950 . S
C598 C599 1.349 . S
C598 C600 1.327 . S
C598 H623 0.950 . S
C599 C598 1.349 . S
C599 C615 1.349 . S
C600 C598 1.327 . S
C600 C619 1.429 . S
C600 H624 0.950 . S
C601 C618 1.574 . S
C601 C620 1.368 . S
C601 H625 0.949 . S
H602 C606 0.949 . S
C603 C604 1.349 . S
C603 C605 1.327 . S
C603 H626 0.950 . S
C604 C603 1.349 . S
C604 C616 1.349 . S
C605 C603 1.327 . S
C605 C621 1.429 . S
C605 H627 0.950 . S
C606 H602 0.949 . S
C606 C614 1.574 . S
C606 C622 1.368 . S
H607 C615 0.950 . S
H608 C613 0.950 . S
H609 C614 0.949 . S
H610 C616 0.950 . S
H611 C617 0.950 . S
H612 C618 0.949 . S
C613 H608 0.950 . S
C613 C615 1.327 . S
C613 C619 1.429 . S
C614 C606 1.574 . S
C614 H609 0.949 . S
C614 C620 1.368 . S
C615 C599 1.349 . S
C615 H607 0.950 . S
C615 C613 1.327 . S
C616 C604 1.349 . S
C616 H610 0.950 . S
C616 C617 1.327 . S
C617 H611 0.950 . S
C617 C616 1.327 . S
C617 C621 1.429 . S
C618 C601 1.574 . S
C618 H612 0.949 . S
C618 C622 1.368 . S
C619 C600 1.429 . S
C619 C613 1.429 . S
C619 C620 1.523 . S
C620 C601 1.368 . S
C620 C614 1.368 . S
C620 C619 1.523 . S
C621 C605 1.429 . S
C621 C617 1.429 . S
C621 C622 1.523 . S
C622 C606 1.368 . S
C622 C618 1.368 . S
C622 C621 1.523 . S
H623 C598 0.950 . S
H624 C600 0.950 . S
H625 C601 0.949 . S
H626 C603 0.950 . S
H627 C605 0.950 . S
C628 C629 1.349 . S
C628 C630 1.327 . S
C628 H653 0.950 . S
C629 C628 1.349 . S
C629 C645 1.349 . S
C630 C628 1.327 . S
C630 C649 1.429 . S
C630 H654 0.950 . S
C631 C648 1.574 . S
C631 C650 1.368 . S
C631 H655 0.949 . S
H632 C636 0.949 . S
C633 C634 1.349 . S
C633 C635 1.327 . S
C633 H656 0.950 . S
C634 C633 1.349 . S
C634 C646 1.349 . S
C635 C633 1.327 . S
C635 C651 1.429 . S
C635 H657 0.950 . S
C636 H632 0.949 . S
C636 C644 1.574 . S
C636 C652 1.368 . S
H637 C645 0.950 . S
H638 C643 0.950 . S
H639 C644 0.949 . S
H640 C646 0.950 . S
H641 C647 0.950 . S
H642 C648 0.949 . S
C643 H638 0.950 . S
C643 C645 1.327 . S
C643 C649 1.429 . S
C644 C636 1.574 . S
C644 H639 0.949 . S
C644 C650 1.368 . S
C645 C629 1.349 . S
C645 H637 0.950 . S
C645 C643 1.327 . S
C646 C634 1.349 . S
C646 H640 0.950 . S
C646 C647 1.327 . S
C647 H641 0.950 . S
C647 C646 1.327 . S
C647 C651 1.429 . S
C648 C631 1.574 . S
C648 H642 0.949 . S
C648 C652 1.368 . S
C649 C630 1.429 . S
C649 C643 1.429 . S
C649 C650 1.523 . S
C650 C631 1.368 . S
C650 C644 1.368 . S
C650 C649 1.523 . S
C651 C635 1.429 . S
C651 C647 1.429 . S
C651 C652 1.523 . S
C652 C636 1.368 . S
C652 C648 1.368 . S
C652 C651 1.523 . S
H653 C628 0.950 . S
H654 C630 0.950 . S
H655 C631 0.949 . S
H656 C633 0.950 . S
H657 C635 0.950 . S
C658 C659 1.349 . S
C658 C660 1.327 . S
C658 H683 0.950 . S
C659 C658 1.349 . S
C659 C675 1.349 . S
C660 C658 1.327 . S
C660 C679 1.429 . S
C660 H684 0.950 . S
C661 C678 1.574 . S
C661 C680 1.368 . S
C661 H685 0.949 . S
H662 C666 0.949 . S
C663 C664 1.349 . S
C663 C665 1.327 . S
C663 H686 0.950 . S
C664 C663 1.349 . S
C664 C676 1.349 . S
C665 C663 1.327 . S
C665 C681 1.429 . S
C665 H687 0.950 . S
C666 H662 0.949 . S
C666 C674 1.574 . S
C666 C682 1.368 . S
H667 C675 0.950 . S
H668 C673 0.950 . S
H669 C674 0.949 . S
H670 C676 0.950 . S
H671 C677 0.950 . S
H672 C678 0.949 . S
C673 H668 0.950 . S
C673 C675 1.327 . S
C673 C679 1.429 . S
C674 C666 1.574 . S
C674 H669 0.949 . S
C674 C680 1.368 . S
C675 C659 1.349 . S
C675 H667 0.950 . S
C675 C673 1.327 . S
C676 C664 1.349 . S
C676 H670 0.950 . S
C676 C677 1.327 . S
C677 H671 0.950 . S
C677 C676 1.327 . S
C677 C681 1.429 . S
C678 C661 1.574 . S
C678 H672 0.949 . S
C678 C682 1.368 . S
C679 C660 1.429 . S
C679 C673 1.429 . S
C679 C680 1.523 . S
C680 C661 1.368 . S
C680 C674 1.368 . S
C680 C679 1.523 . S
C681 C665 1.429 . S
C681 C677 1.429 . S
C681 C682 1.523 . S
C682 C666 1.368 . S
C682 C678 1.368 . S
C682 C681 1.523 . S
H683 C658 0.950 . S
H684 C660 0.950 . S
H685 C661 0.949 . S
H686 C663 0.950 . S
H687 C665 0.950 . S
C688 C689 1.349 . S
C688 C690 1.327 . S
C688 H713 0.950 . S
C689 C688 1.349 . S
C689 C705 1.349 . S
C690 C688 1.327 . S
C690 C709 1.429 . S
C690 H714 0.950 . S
C691 C708 1.574 . S
C691 C710 1.368 . S
C691 H715 0.949 . S
H692 C696 0.949 . S
C693 C694 1.349 . S
C693 C695 1.327 . S
C693 H716 0.950 . S
C694 C693 1.349 . S
C694 C706 1.349 . S
C695 C693 1.327 . S
C695 C711 1.429 . S
C695 H717 0.950 . S
C696 H692 0.949 . S
C696 C704 1.574 . S
C696 C712 1.368 . S
H697 C705 0.950 . S
H698 C703 0.950 . S
H699 C704 0.949 . S
H700 C706 0.950 . S
H701 C707 0.950 . S
H702 C708 0.949 . S
C703 H698 0.950 . S
C703 C705 1.327 . S
C703 C709 1.429 . S
C704 C696 1.574 . S
C704 H699 0.949 . S
C704 C710 1.368 . S
C705 C689 1.349 . S
C705 H697 0.950 . S
C705 C703 1.327 . S
C706 C694 1.349 . S
C706 H700 0.950 . S
C706 C707 1.327 . S
C707 H701 0.950 . S
C707 C706 1.327 . S
C707 C711 1.429 . S
C708 C691 1.574 . S
C708 H702 0.949 . S
C708 C712 1.368 . S
C709 C690 1.429 . S
C709 C703 1.429 . S
C709 C710 1.523 . S
C710 C691 1.368 . S
C710 C704 1.368 . S
C710 C709 1.523 . S
C711 C695 1.429 . S
C711 C707 1.429 . S
C711 C712 1.523 . S
C712 C696 1.368 . S
C712 C708 1.368 . S
C712 C711 1.523 . S
H713 C688 0.950 . S
H714 C690 0.950 . S
H715 C691 0.949 . S
H716 C693 0.950 . S
H717 C695 0.950 . S
C718 C719 1.349 . S
C718 C720 1.327 . S
C718 H743 0.950 . S
C719 C718 1.349 . S
C719 C735 1.349 . S
C720 C718 1.327 . S
C720 C739 1.429 . S
C720 H744 0.950 . S
C721 C738 1.574 . S
C721 C740 1.368 . S
C721 H745 0.949 . S
H722 C726 0.949 . S
C723 C724 1.349 . S
C723 C725 1.327 . S
C723 H746 0.950 . S
C724 C723 1.349 . S
C724 C736 1.349 . S
C725 C723 1.327 . S
C725 C741 1.429 . S
C725 H747 0.950 . S
C726 H722 0.949 . S
C726 C734 1.574 . S
C726 C742 1.368 . S
H727 C735 0.950 . S
H728 C733 0.950 . S
H729 C734 0.949 . S
H730 C736 0.950 . S
H731 C737 0.950 . S
H732 C738 0.949 . S
C733 H728 0.950 . S
C733 C735 1.327 . S
C733 C739 1.429 . S
C734 C726 1.574 . S
C734 H729 0.949 . S
C734 C740 1.368 . S
C735 C719 1.349 . S
C735 H727 0.950 . S
C735 C733 1.327 . S
C736 C724 1.349 . S
C736 H730 0.950 . S
C736 C737 1.327 . S
C737 H731 0.950 . S
C737 C736 1.327 . S
C737 C741 1.429 . S
C738 C721 1.574 . S
C738 H732 0.949 . S
C738 C742 1.368 . S
C739 C720 1.429 . S
C739 C733 1.429 . S
C739 C740 1.523 . S
C740 C721 1.368 . S
C740 C734 1.368 . S
C740 C739 1.523 . S
C741 C725 1.429 . S
C741 C737 1.429 . S
C741 C742 1.523 . S
C742 C726 1.368 . S
C742 C738 1.368 . S
C742 C741 1.523 . S
H743 C718 0.950 . S
H744 C720 0.950 . S
H745 C721 0.949 . S
H746 C723 0.950 . S
H747 C725 0.950 . S
C748 C749 1.349 . S
C748 C750 1.327 . S
C748 H773 0.950 . S
C749 C748 1.349 . S
C749 C765 1.349 . S
C750 C748 1.327 . S
C750 C769 1.429 . S
C750 H774 0.950 . S
C751 C768 1.574 . S
C751 C770 1.368 . S
C751 H775 0.949 . S
H752 C756 0.949 . S
C753 C754 1.349 . S
C753 C755 1.327 . S
C753 H776 0.950 . S
C754 C753 1.349 . S
C754 C766 1.349 . S
C755 C753 1.327 . S
C755 C771 1.429 . S
C755 H777 0.950 . S
C756 H752 0.949 . S
C756 C764 1.574 . S
C756 C772 1.368 . S
H757 C765 0.950 . S
H758 C763 0.950 . S
H759 C764 0.949 . S
H760 C766 0.950 . S
H761 C767 0.950 . S
H762 C768 0.949 . S
C763 H758 0.950 . S
C763 C765 1.327 . S
C763 C769 1.429 . S
C764 C756 1.574 . S
C764 H759 0.949 . S
C764 C770 1.368 . S
C765 C749 1.349 . S
C765 H757 0.950 . S
C765 C763 1.327 . S
C766 C754 1.349 . S
C766 H760 0.950 . S
C766 C767 1.327 . S
C767 H761 0.950 . S
C767 C766 1.327 . S
C767 C771 1.429 . S
C768 C751 1.574 . S
C768 H762 0.949 . S
C768 C772 1.368 . S
C769 C750 1.429 . S
C769 C763 1.429 . S
C769 C770 1.523 . S
C770 C751 1.368 . S
C770 C764 1.368 . S
C770 C769 1.523 . S
C771 C755 1.429 . S
C771 C767 1.429 . S
C771 C772 1.523 . S
C772 C756 1.368 . S
C772 C768 1.368 . S
C772 C771 1.523 . S
H773 C748 0.950 . S
H774 C750 0.950 . S
H775 C751 0.949 . S
H776 C753 0.950 . S
H777 C755 0.950 . S
C778 C779 1.349 . S
C778 C780 1.327 . S
C778 H803 0.950 . S
C779 C778 1.349 . S
C779 C795 1.349 . S
C780 C778 1.327 . S
C780 C799 1.429 . S
C780 H804 0.950 . S
C781 C798 1.574 . S
C781 C800 1.368 . S
C781 H805 0.949 . S
H782 C786 0.949 . S
C783 C784 1.349 . S
C783 C785 1.327 . S
C783 H806 0.950 . S
C784 C783 1.349 . S
C784 C796 1.349 . S
C785 C783 1.327 . S
C785 C801 1.429 . S
C785 H807 0.950 . S
C786 H782 0.949 . S
C786 C794 1.574 . S
C786 C802 1.368 . S
H787 C795 0.950 . S
H788 C793 0.950 . S
H789 C794 0.949 . S
H790 C796 0.950 . S
H791 C797 0.950 . S
H792 C798 0.949 . S
C793 H788 0.950 . S
C793 C795 1.327 . S
C793 C799 1.429 . S
C794 C786 1.574 . S
C794 H789 0.949 . S
C794 C800 1.368 . S
C795 C779 1.349 . S
C795 H787 0.950 . S
C795 C793 1.327 . S
C796 C784 1.349 . S
C796 H790 0.950 . S
C796 C797 1.327 . S
C797 H791 0.950 . S
C797 C796 1.327 . S
C797 C801 1.429 . S
C798 C781 1.574 . S
C798 H792 0.949 . S
C798 C802 1.368 . S
C799 C780 1.429 . S
C799 C793 1.429 . S
C799 C800 1.523 . S
C800 C781 1.368 . S
C800 C794 1.368 . S
C800 C799 1.523 . S
C801 C785 1.429 . S
C801 C797 1.429 . S
C801 C802 1.523 . S
C802 C786 1.368 . S
C802 C798 1.368 . S
C802 C801 1.523 . S
H803 C778 0.950 . S
H804 C780 0.950 . S
H805 C781 0.949 . S
H806 C783 0.950 . S
H807 C785 0.950 . S
C808 C809 1.349 . S
C808 C810 1.327 . S
C808 H833 0.950 . S
C809 C808 1.349 . S
C809 C825 1.349 . S
C810 C808 1.327 . S
C810 C829 1.429 . S
C810 H834 0.950 . S
C811 C828 1.574 . S
C811 C830 1.368 . S
C811 H835 0.949 . S
H812 C816 0.949 . S
C813 C814 1.349 . S
C813 C815 1.327 . S
C813 H836 0.950 . S
C814 C813 1.349 . S
C814 C826 1.349 . S
C815 C813 1.327 . S
C815 C831 1.429 . S
C815 H837 0.950 . S
C816 H812 0.949 . S
C816 C824 1.574 . S
C816 C832 1.368 . S
H817 C825 0.950 . S
H818 C823 0.950 . S
H819 C824 0.949 . S
H820 C826 0.950 . S
H821 C827 0.950 . S
H822 C828 0.949 . S
C823 H818 0.950 . S
C823 C825 1.327 . S
C823 C829 1.429 . S
C824 C816 1.574 . S
C824 H819 0.949 . S
C824 C830 1.368 . S
C825 C809 1.349 . S
C825 H817 0.950 . S
C825 C823 1.327 . S
C826 C814 1.349 . S
C826 H820 0.950 . S
C826 C827 1.327 . S
C827 H821 0.950 . S
C827 C826 1.327 . S
C827 C831 1.429 . S
C828 C811 1.574 . S
C828 H822 0.949 . S
C828 C832 1.368 . S
C829 C810 1.429 . S
C829 C823 1.429 . S
C829 C830 1.523 . S
C830 C811 1.368 . S
C830 C824 1.368 . S
C830 C829 1.523 . S
C831 C815 1.429 . S
C831 C827 1.429 . S
C831 C832 1.523 . S
C832 C816 1.368 . S
C832 C828 1.368 . S
C832 C831 1.523 . S
H833 C808 0.950 . S
H834 C810 0.950 . S
H835 C811 0.949 . S
H836 C813 0.950 . S
H837 C815 0.950 . S
C838 C839 1.349 . S
C838 C840 1.327 . S
C838 H863 0.950 . S
C839 C838 1.349 . S
C839 C855 1.349 . S
C840 C838 1.327 . S
C840 C859 1.429 . S
C840 H864 0.950 . S
C841 C858 1.574 . S
C841 C860 1.368 . S
C841 H865 0.949 . S
H842 C846 0.949 . S
C843 C844 1.349 . S
C843 C845 1.327 . S
C843 H866 0.950 . S
C844 C843 1.349 . S
C844 C856 1.349 . S
C845 C843 1.327 . S
C845 C861 1.429 . S
C845 H867 0.950 . S
C846 H842 0.949 . S
C846 C854 1.574 . S
C846 C862 1.368 . S
H847 C855 0.950 . S
H848 C853 0.950 . S
H849 C854 0.949 . S
H850 C856 0.950 . S
H851 C857 0.950 . S
H852 C858 0.949 . S
C853 H848 0.950 . S
C853 C855 1.327 . S
C853 C859 1.429 . S
C854 C846 1.574 . S
C854 H849 0.949 . S
C854 C860 1.368 . S
C855 C839 1.349 . S
C855 H847 0.950 . S
C855 C853 1.327 . S
C856 C844 1.349 . S
C856 H850 0.950 . S
C856 C857 1.327 . S
C857 H851 0.950 . S
C857 C856 1.327 . S
C857 C861 1.429 . S
C858 C841 1.574 . S
C858 H852 0.949 . S
C858 C862 1.368 . S
C859 C840 1.429 . S
C859 C853 1.429 . S
C859 C860 1.523 . S
C860 C841 1.368 . S
C860 C854 1.368 . S
C860 C859 1.523 . S
C861 C845 1.429 . S
C861 C857 1.429 . S
C861 C862 1.523 . S
C862 C846 1.368 . S
C862 C858 1.368 . S
C862 C861 1.523 . S
H863 C838 0.950 . S
H864 C840 0.950 . S
H865 C841 0.949 . S
H866 C843 0.950 . S
H867 C845 0.950 . S
C868 C869 1.349 . S
C868 C870 1.327 . S
C868 H893 0.950 . S
C869 C868 1.349 . S
C869 C885 1.349 . S
C870 C868 1.327 . S
C870 C889 1.429 . S
C870 H894 0.950 . S
C871 C888 1.574 . S
C871 C890 1.368 . S
C871 H895 0.949 . S
H872 C876 0.949 . S
C873 C874 1.349 . S
C873 C875 1.327 . S
C873 H896 0.950 . S
C874 C873 1.349 . S
C874 C886 1.349 . S
C875 C873 1.327 . S
C875 C891 1.429 . S
C875 H897 0.950 . S
C876 H872 0.949 . S
C876 C884 1.574 . S
C876 C892 1.368 . S
H877 C885 0.950 . S
H878 C883 0.950 . S
H879 C884 0.949 . S
H880 C886 0.950 . S
H881 C887 0.950 . S
H882 C888 0.949 . S
C883 H878 0.950 . S
C883 C885 1.327 . S
C883 C889 1.429 . S
C884 C876 1.574 . S
C884 H879 0.949 . S
C884 C890 1.368 . S
C885 C869 1.349 . S
C885 H877 0.950 . S
C885 C883 1.327 . S
C886 C874 1.349 . S
C886 H880 0.950 . S
C886 C887 1.327 . S
C887 H881 0.950 . S
C887 C886 1.327 . S
C887 C891 1.429 . S
C888 C871 1.574 . S
C888 H882 0.949 . S
C888 C892 1.368 . S
C889 C870 1.429 . S
C889 C883 1.429 . S
C889 C890 1.523 . S
C890 C871 1.368 . S
C890 C884 1.368 . S
C890 C889 1.523 . S
C891 C875 1.429 . S
C891 C887 1.429 . S
C891 C892 1.523 . S
C892 C876 1.368 . S
C892 C888 1.368 . S
C892 C891 1.523 . S
H893 C868 0.950 . S
H894 C870 0.950 . S
H895 C871 0.949 . S
H896 C873 0.950 . S
H897 C875 0.950 . S
C898 C899 1.349 . S
C898 C900 1.327 . S
C898 H923 0.950 . S
C899 C898 1.349 . S
C899 C915 1.349 . S
C900 C898 1.327 . S
C900 C919 1.429 . S
C900 H924 0.950 . S
C901 C918 1.574 . S
C901 C920 1.368 . S
C901 H925 0.949 . S
H902 C906 0.949 . S
C903 C904 1.349 . S
C903 C905 1.327 . S
C903 H926 0.950 . S
C904 C903 1.349 . S
C904 C916 1.349 . S
C905 C903 1.327 . S
C905 C921 1.429 . S
C905 H927 0.950 . S
C906 H902 0.949 . S
C906 C914 1.574 . S
C906 C922 1.368 . S
H907 C915 0.950 . S
H908 C913 0.950 . S
H909 C914 0.949 . S
H910 C916 0.950 . S
H911 C917 0.950 . S
H912 C918 0.949 . S
C913 H908 0.950 . S
C913 C915 1.327 . S
C913 C919 1.429 . S
C914 C906 1.574 . S
C914 H909 0.949 . S
C914 C920 1.368 . S
C915 C899 1.349 . S
C915 H907 0.950 . S
C915 C913 1.327 . S
C916 C904 1.349 . S
C916 H910 0.950 . S
C916 C917 1.327 . S
C917 H911 0.950 . S
C917 C916 1.327 . S
C917 C921 1.429 . S
C918 C901 1.574 . S
C918 H912 0.949 . S
C918 C922 1.368 . S
C919 C900 1.429 . S
C919 C913 1.429 . S
C919 C920 1.523 . S
C920 C901 1.368 . S
C920 C914 1.368 . S
C920 C919 1.523 . S
C921 C905 1.429 . S
C921 C917 1.429 . S
C921 C922 1.523 . S
C922 C906 1.368 . S
C922 C918 1.368 . S
C922 C921 1.523 . S
H923 C898 0.950 . S
H924 C900 0.950 . S
H925 C901 0.949 . S
H926 C903 0.950 . S
H927 C905 0.950 . S
C928 C929 1.349 . S
C928 C930 1.327 . S
C928 H953 0.950 . S
C929 C928 1.349 . S
C929 C945 1.349 . S
C930 C928 1.327 . S
C930 C949 1.429 . S
C930 H954 0.950 . S
C931 C948 1.574 . S
C931 C950 1.368 1_455 S
C931 H955 0.949 . S
H932 C936 0.949 . S
C933 C934 1.349 . S
C933 C935 1.327 . S
C933 H956 0.950 . S
C934 C933 1.349 . S
C934 C946 1.349 . S
C935 C933 1.327 . S
C935 C951 1.429 . S
C935 H957 0.950 . S
C936 H932 0.949 . S
C936 C944 1.574 . S
C936 C952 1.368 1_655 S
H937 C945 0.950 . S
H938 C943 0.950 1_455 S
H939 C944 0.949 . S
H940 C946 0.950 . S
H941 C947 0.950 1_655 S
H942 C948 0.949 . S
C943 H938 0.950 1_655 S
C943 C945 1.327 . S
C943 C949 1.429 . S
C944 C936 1.574 . S
C944 H939 0.949 . S
C944 C950 1.368 . S
C945 C929 1.349 . S
C945 H937 0.950 . S
C945 C943 1.327 . S
C946 C934 1.349 . S
C946 H940 0.950 . S
C946 C947 1.327 . S
C947 H941 0.950 1_455 S
C947 C946 1.327 . S
C947 C951 1.429 . S
C948 C931 1.574 . S
C948 H942 0.949 . S
C948 C952 1.368 . S
C949 C930 1.429 . S
C949 C943 1.429 . S
C949 C950 1.523 . S
C950 C931 1.368 1_655 S
C950 C944 1.368 . S
C950 C949 1.523 . S
C951 C935 1.429 . S
C951 C947 1.429 . S
C951 C952 1.523 . S
C952 C936 1.368 1_455 S
C952 C948 1.368 . S
C952 C951 1.523 . S
H953 C928 0.950 . S
H954 C930 0.950 . S
H955 C931 0.949 . S
H956 C933 0.950 . S
H957 C935 0.950 . S
C958 C959 1.349 . S
C958 C960 1.327 . S
C958 H983 0.950 . S
C959 C958 1.349 . S
C959 C975 1.349 . S
C960 C958 1.327 . S
C960 C979 1.429 . S
C960 H984 0.950 . S
C961 C978 1.574 1_565 S
C961 C980 1.368 . S
C961 H985 0.949 . S
H962 C966 0.949 . S
C963 C964 1.349 . S
C963 C965 1.327 . S
C963 H986 0.950 . S
C964 C963 1.349 . S
C964 C976 1.349 . S
C965 C963 1.327 . S
C965 C981 1.429 . S
C965 H987 0.950 . S
C966 H962 0.949 . S
C966 C974 1.574 1_545 S
C966 C982 1.368 . S
H967 C975 0.950 . S
H968 C973 0.950 . S
H969 C974 0.949 . S
H970 C976 0.950 . S
H971 C977 0.950 . S
H972 C978 0.949 . S
C973 H968 0.950 . S
C973 C975 1.327 . S
C973 C979 1.429 . S
C974 C966 1.574 1_565 S
C974 H969 0.949 . S
C974 C980 1.368 . S
C975 C959 1.349 . S
C975 H967 0.950 . S
C975 C973 1.327 . S
C976 C964 1.349 . S
C976 H970 0.950 . S
C976 C977 1.327 . S
C977 H971 0.950 . S
C977 C976 1.327 . S
C977 C981 1.429 . S
C978 C961 1.574 1_545 S
C978 H972 0.949 . S
C978 C982 1.368 . S
C979 C960 1.429 . S
C979 C973 1.429 . S
C979 C980 1.523 . S
C980 C961 1.368 . S
C980 C974 1.368 . S
C980 C979 1.523 . S
C981 C965 1.429 . S
C981 C977 1.429 . S
C981 C982 1.523 . S
C982 C966 1.368 . S
C982 C978 1.368 . S
C982 C981 1.523 . S
H983 C958 0.950 . S
H984 C960 0.950 . S
H985 C961 0.949 . S
H986 C963 0.950 . S
H987 C965 0.950 . S
C988 C989 1.349 . S
C988 C990 1.327 . S
C988 H1013 0.950 . S
C989 C988 1.349 . S
C989 C1005 1.349 1_554 S
C990 C988 1.327 . S
C990 C1009 1.461 . S
C990 H1014 0.950 . S
C991 C1008 1.574 1_565 S
C991 C1010 1.358 1_656 S
C991 H1015 0.949 . S
H992 C996 0.949 . S
C993 C994 1.349 . S
C993 C995 1.327 . S
C993 H1016 0.950 . S
C994 C993 1.349 . S
C994 C1006 1.349 1_556 S
C995 C993 1.327 . S
C995 C1011 1.472 . S
C995 H1017 0.950 . S
C996 H992 0.949 . S
C996 C1004 1.574 1_545 S
C996 C1012 1.347 1_454 S
H997 C1005 0.950 . S
H998 C1003 0.950 1_655 S
H999 C1004 0.949 . S
H1000 C1006 0.950 . S
H1001 C1007 0.950 1_455 S
H1002 C1008 0.949 . S
C1003 H998 0.950 1_455 S
C1003 C1005 1.327 . S
C1003 C1009 1.398 1_556 S
C1004 C996 1.574 1_565 S
C1004 H999 0.949 . S
C1004 C1010 1.378 . S
C1005 C989 1.349 1_556 S
C1005 H997 0.950 . S
C1005 C1003 1.327 . S
C1006 C994 1.349 1_554 S
C1006 H1000 0.950 . S
C1006 C1007 1.327 . S
C1007 H1001 0.950 1_655 S
C1007 C1006 1.327 . S
C1007 C1011 1.388 1_554 S
C1008 C991 1.574 1_545 S
C1008 H1002 0.949 . S
C1008 C1012 1.390 . S
C1009 C990 1.461 . S
C1009 C1003 1.398 1_554 S
C1009 C1010 1.523 . S
C1010 C991 1.358 1_454 S
C1010 C1004 1.378 . S
C1010 C1009 1.523 . S
C1011 C995 1.472 . S
C1011 C1007 1.388 1_556 S
C1011 C1012 1.523 . S
C1012 C996 1.347 1_656 S
C1012 C1008 1.390 . S
C1012 C1011 1.523 . S
H1013 C988 0.950 . S
H1014 C990 0.950 . S
H1015 C991 0.949 . S
H1016 C993 0.950 . S
H1017 C995 0.950 . S
C1018 C1019 1.349 . S
C1018 C1020 1.327 . S
C1018 H1043 0.950 . S
C1019 C1018 1.349 . S
C1019 C1035 1.349 1_556 S
C1020 C1018 1.327 . S
C1020 C1039 1.462 . S
C1020 H1044 0.950 . S
C1021 C1038 1.574 . S
C1021 C1040 1.358 1_554 S
C1021 H1045 0.949 . S
H1022 C1026 0.949 . S
C1023 C1024 1.349 . S
C1023 C1025 1.327 . S
C1023 H1046 0.950 . S
C1024 C1023 1.349 . S
C1024 C1036 1.349 1_554 S
C1025 C1023 1.327 . S
C1025 C1041 1.472 . S
C1025 H1047 0.950 . S
C1026 H1022 0.949 . S
C1026 C1034 1.574 . S
C1026 C1042 1.347 1_556 S
H1027 C1035 0.950 . S
H1028 C1033 0.950 . S
H1029 C1034 0.949 . S
H1030 C1036 0.950 . S
H1031 C1037 0.950 . S
H1032 C1038 0.949 . S
C1033 H1028 0.950 . S
C1033 C1035 1.327 . S
C1033 C1039 1.397 1_554 S
C1034 C1026 1.574 . S
C1034 H1029 0.949 . S
C1034 C1040 1.379 . S
C1035 C1019 1.349 1_554 S
C1035 H1027 0.950 . S
C1035 C1033 1.327 . S
C1036 C1024 1.349 1_556 S
C1036 H1030 0.950 . S
C1036 C1037 1.327 . S
C1037 H1031 0.950 . S
C1037 C1036 1.327 . S
C1037 C1041 1.388 1_556 S
C1038 C1021 1.574 . S
C1038 H1032 0.949 . S
C1038 C1042 1.390 . S
C1039 C1020 1.462 . S
C1039 C1033 1.397 1_556 S
C1039 C1040 1.523 . S
C1040 C1021 1.358 1_556 S
C1040 C1034 1.379 . S
C1040 C1039 1.523 . S
C1041 C1025 1.472 . S
C1041 C1037 1.388 1_554 S
C1041 C1042 1.523 . S
C1042 C1026 1.347 1_554 S
C1042 C1038 1.390 . S
C1042 C1041 1.523 . S
H1043 C1018 0.950 . S
H1044 C1020 0.950 . S
H1045 C1021 0.949 . S
H1046 C1023 0.950 . S
H1047 C1025 0.950 . S
C1048 C1049 1.349 . S
C1048 C1050 1.327 . S
C1048 H1073 0.950 . S
C1049 C1048 1.349 . S
C1049 C1065 1.349 . S
C1050 C1048 1.327 . S
C1050 C1069 1.429 . S
C1050 H1074 0.950 . S
C1051 C1068 1.574 . S
C1051 C1070 1.368 1_455 S
C1051 H1075 0.949 . S
H1052 C1056 0.949 . S
C1053 C1054 1.349 . S
C1053 C1055 1.327 . S
C1053 H1076 0.950 . S
C1054 C1053 1.349 . S
C1054 C1066 1.349 . S
C1055 C1053 1.327 . S
C1055 C1071 1.429 . S
C1055 H1077 0.950 . S
C1056 H1052 0.949 . S
C1056 C1064 1.574 . S
C1056 C1072 1.368 1_655 S
H1057 C1065 0.950 . S
H1058 C1063 0.950 1_455 S
H1059 C1064 0.949 . S
H1060 C1066 0.950 . S
H1061 C1067 0.950 1_655 S
H1062 C1068 0.949 . S
C1063 H1058 0.950 1_655 S
C1063 C1065 1.327 . S
C1063 C1069 1.429 . S
C1064 C1056 1.574 . S
C1064 H1059 0.949 . S
C1064 C1070 1.368 . S
C1065 C1049 1.349 . S
C1065 H1057 0.950 . S
C1065 C1063 1.327 . S
C1066 C1054 1.349 . S
C1066 H1060 0.950 . S
C1066 C1067 1.327 . S
C1067 H1061 0.950 1_455 S
C1067 C1066 1.327 . S
C1067 C1071 1.429 . S
C1068 C1051 1.574 . S
C1068 H1062 0.949 . S
C1068 C1072 1.368 . S
C1069 C1050 1.429 . S
C1069 C1063 1.429 . S
C1069 C1070 1.523 . S
C1070 C1051 1.368 1_655 S
C1070 C1064 1.368 . S
C1070 C1069 1.523 . S
C1071 C1055 1.429 . S
C1071 C1067 1.429 . S
C1071 C1072 1.523 . S
C1072 C1056 1.368 1_455 S
C1072 C1068 1.368 . S
C1072 C1071 1.523 . S
H1073 C1048 0.950 . S
H1074 C1050 0.950 . S
H1075 C1051 0.949 . S
H1076 C1053 0.950 . S
H1077 C1055 0.950 . S
C1078 C1079 1.349 . S
C1078 C1080 1.327 . S
C1078 H1103 0.950 . S
C1079 C1078 1.349 . S
C1079 C1095 1.349 . S
C1080 C1078 1.327 . S
C1080 C1099 1.429 . S
C1080 H1104 0.950 . S
C1081 C1098 1.574 1_565 S
C1081 C1100 1.368 . S
C1081 H1105 0.949 . S
H1082 C1086 0.949 . S
C1083 C1084 1.349 . S
C1083 C1085 1.327 . S
C1083 H1106 0.950 . S
C1084 C1083 1.349 . S
C1084 C1096 1.349 . S
C1085 C1083 1.327 . S
C1085 C1101 1.429 . S
C1085 H1107 0.950 . S
C1086 H1082 0.949 . S
C1086 C1094 1.574 1_545 S
C1086 C1102 1.368 . S
H1087 C1095 0.950 . S
H1088 C1093 0.950 . S
H1089 C1094 0.949 . S
H1090 C1096 0.950 . S
H1091 C1097 0.950 . S
H1092 C1098 0.949 . S
C1093 H1088 0.950 . S
C1093 C1095 1.327 . S
C1093 C1099 1.429 . S
C1094 C1086 1.574 1_565 S
C1094 H1089 0.949 . S
C1094 C1100 1.368 . S
C1095 C1079 1.349 . S
C1095 H1087 0.950 . S
C1095 C1093 1.327 . S
C1096 C1084 1.349 . S
C1096 H1090 0.950 . S
C1096 C1097 1.327 . S
C1097 H1091 0.950 . S
C1097 C1096 1.327 . S
C1097 C1101 1.429 . S
C1098 C1081 1.574 1_545 S
C1098 H1092 0.949 . S
C1098 C1102 1.368 . S
C1099 C1080 1.429 . S
C1099 C1093 1.429 . S
C1099 C1100 1.523 . S
C1100 C1081 1.368 . S
C1100 C1094 1.368 . S
C1100 C1099 1.523 . S
C1101 C1085 1.429 . S
C1101 C1097 1.429 . S
C1101 C1102 1.523 . S
C1102 C1086 1.368 . S
C1102 C1098 1.368 . S
C1102 C1101 1.523 . S
H1103 C1078 0.950 . S
H1104 C1080 0.950 . S
H1105 C1081 0.949 . S
H1106 C1083 0.950 . S
H1107 C1085 0.950 . S
C1108 C1109 1.349 1_556 S
C1108 C1110 1.327 . S
C1108 H1133 0.950 . S
C1109 C1108 1.349 1_554 S
C1109 C1125 1.349 . S
C1110 C1108 1.327 . S
C1110 C1129 1.397 1_556 S
C1110 H1134 0.950 . S
C1111 C1128 1.574 . S
C1111 C1130 1.379 . S
C1111 H1135 0.949 . S
H1112 C1116 0.949 . S
C1113 C1114 1.349 1_554 S
C1113 C1115 1.327 . S
C1113 H1136 0.950 . S
C1114 C1113 1.349 1_556 S
C1114 C1126 1.349 . S
C1115 C1113 1.327 . S
C1115 C1131 1.387 1_554 S
C1115 H1137 0.950 . S
C1116 H1112 0.949 . S
C1116 C1124 1.574 . S
C1116 C1132 1.390 . S
H1117 C1125 0.950 . S
H1118 C1123 0.950 . S
H1119 C1124 0.949 . S
H1120 C1126 0.950 . S
H1121 C1127 0.950 . S
H1122 C1128 0.949 . S
C1123 H1118 0.950 . S
C1123 C1125 1.327 . S
C1123 C1129 1.462 . S
C1124 C1116 1.574 . S
C1124 H1119 0.949 . S
C1124 C1130 1.358 1_556 S
C1125 C1109 1.349 . S
C1125 H1117 0.950 . S
C1125 C1123 1.327 . S
C1126 C1114 1.349 . S
C1126 H1120 0.950 . S
C1126 C1127 1.327 . S
C1127 H1121 0.950 . S
C1127 C1126 1.327 . S
C1127 C1131 1.473 . S
C1128 C1111 1.574 . S
C1128 H1122 0.949 . S
C1128 C1132 1.346 1_554 S
C1129 C1110 1.397 1_554 S
C1129 C1123 1.462 . S
C1129 C1130 1.523 . S
C1130 C1111 1.379 . S
C1130 C1124 1.358 1_554 S
C1130 C1129 1.523 . S
C1131 C1115 1.387 1_556 S
C1131 C1127 1.473 . S
C1131 C1132 1.523 . S
C1132 C1116 1.390 . S
C1132 C1128 1.346 1_556 S
C1132 C1131 1.523 . S
H1133 C1108 0.950 . S
H1134 C1110 0.950 . S
H1135 C1111 0.949 . S
H1136 C1113 0.950 . S
H1137 C1115 0.950 . S
C1138 C1139 1.349 . S
C1138 C1140 1.327 . S
C1138 H1163 0.950 . S
C1139 C1138 1.349 . S
C1139 C1155 1.349 . S
C1140 C1138 1.327 . S
C1140 C1159 1.429 . S
C1140 H1164 0.950 . S
C1141 C1158 1.574 . S
C1141 C1160 1.368 . S
C1141 H1165 0.949 . S
H1142 C1146 0.949 . S
C1143 C1144 1.349 . S
C1143 C1145 1.327 . S
C1143 H1166 0.950 . S
C1144 C1143 1.349 . S
C1144 C1156 1.349 . S
C1145 C1143 1.327 . S
C1145 C1161 1.429 . S
C1145 H1167 0.950 . S
C1146 H1142 0.949 . S
C1146 C1154 1.574 . S
C1146 C1162 1.368 . S
H1147 C1155 0.950 . S
H1148 C1153 0.950 . S
H1149 C1154 0.949 . S
H1150 C1156 0.950 . S
H1151 C1157 0.950 . S
H1152 C1158 0.949 . S
C1153 H1148 0.950 . S
C1153 C1155 1.327 . S
C1153 C1159 1.429 . S
C1154 C1146 1.574 . S
C1154 H1149 0.949 . S
C1154 C1160 1.368 . S
C1155 C1139 1.349 . S
C1155 H1147 0.950 . S
C1155 C1153 1.327 . S
C1156 C1144 1.349 . S
C1156 H1150 0.950 . S
C1156 C1157 1.327 . S
C1157 H1151 0.950 . S
C1157 C1156 1.327 . S
C1157 C1161 1.429 . S
C1158 C1141 1.574 . S
C1158 H1152 0.949 . S
C1158 C1162 1.368 . S
C1159 C1140 1.429 . S
C1159 C1153 1.429 . S
C1159 C1160 1.523 . S
C1160 C1141 1.368 . S
C1160 C1154 1.368 . S
C1160 C1159 1.523 . S
C1161 C1145 1.429 . S
C1161 C1157 1.429 . S
C1161 C1162 1.523 . S
C1162 C1146 1.368 . S
C1162 C1158 1.368 . S
C1162 C1161 1.523 . S
H1163 C1138 0.950 . S
H1164 C1140 0.950 . S
H1165 C1141 0.949 . S
H1166 C1143 0.950 . S
H1167 C1145 0.950 . S
C1168 C1169 1.349 . S
C1168 C1170 1.327 . S
C1168 H1193 0.950 . S
C1169 C1168 1.349 . S
C1169 C1185 1.349 . S
C1170 C1168 1.327 . S
C1170 C1189 1.429 . S
C1170 H1194 0.950 1_655 S
C1171 C1188 1.574 . S
C1171 C1190 1.368 . S
C1171 H1195 0.949 . S
H1172 C1176 0.949 . S
C1173 C1174 1.349 . S
C1173 C1175 1.327 . S
C1173 H1196 0.950 . S
C1174 C1173 1.349 . S
C1174 C1186 1.349 . S
C1175 C1173 1.327 . S
C1175 C1191 1.429 . S
C1175 H1197 0.950 1_455 S
C1176 H1172 0.949 . S
C1176 C1184 1.574 . S
C1176 C1192 1.368 . S
H1177 C1185 0.950 . S
H1178 C1183 0.950 . S
H1179 C1184 0.949 . S
H1180 C1186 0.950 . S
H1181 C1187 0.950 . S
H1182 C1188 0.949 . S
C1183 H1178 0.950 . S
C1183 C1185 1.327 . S
C1183 C1189 1.429 . S
C1184 C1176 1.574 . S
C1184 H1179 0.949 . S
C1184 C1190 1.368 1_455 S
C1185 C1169 1.349 . S
C1185 H1177 0.950 . S
C1185 C1183 1.327 . S
C1186 C1174 1.349 . S
C1186 H1180 0.950 . S
C1186 C1187 1.327 . S
C1187 H1181 0.950 . S
C1187 C1186 1.327 . S
C1187 C1191 1.429 . S
C1188 C1171 1.574 . S
C1188 H1182 0.949 . S
C1188 C1192 1.368 1_655 S
C1189 C1170 1.429 . S
C1189 C1183 1.429 . S
C1189 C1190 1.523 . S
C1190 C1171 1.368 . S
C1190 C1184 1.368 1_655 S
C1190 C1189 1.523 . S
C1191 C1175 1.429 . S
C1191 C1187 1.429 . S
C1191 C1192 1.523 . S
C1192 C1176 1.368 . S
C1192 C1188 1.368 1_455 S
C1192 C1191 1.523 . S
H1193 C1168 0.950 . S
H1194 C1170 0.950 1_455 S
H1195 C1171 0.949 . S
H1196 C1173 0.950 . S
H1197 C1175 0.950 1_655 S
C1198 C1199 1.349 . S
C1198 C1200 1.327 . S
C1198 H1223 0.950 . S
C1199 C1198 1.349 . S
C1199 C1215 1.349 . S
C1200 C1198 1.327 . S
C1200 C1219 1.429 . S
C1200 H1224 0.950 . S
C1201 C1218 1.574 . S
C1201 C1220 1.368 . S
C1201 H1225 0.949 . S
H1202 C1206 0.949 . S
C1203 C1204 1.349 . S
C1203 C1205 1.327 . S
C1203 H1226 0.950 . S
C1204 C1203 1.349 . S
C1204 C1216 1.349 . S
C1205 C1203 1.327 . S
C1205 C1221 1.429 . S
C1205 H1227 0.950 . S
C1206 H1202 0.949 . S
C1206 C1214 1.574 . S
C1206 C1222 1.368 . S
H1207 C1215 0.950 . S
H1208 C1213 0.950 . S
H1209 C1214 0.949 . S
H1210 C1216 0.950 . S
H1211 C1217 0.950 . S
H1212 C1218 0.949 . S
C1213 H1208 0.950 . S
C1213 C1215 1.327 . S
C1213 C1219 1.429 . S
C1214 C1206 1.574 . S
C1214 H1209 0.949 . S
C1214 C1220 1.368 . S
C1215 C1199 1.349 . S
C1215 H1207 0.950 . S
C1215 C1213 1.327 . S
C1216 C1204 1.349 . S
C1216 H1210 0.950 . S
C1216 C1217 1.327 . S
C1217 H1211 0.950 . S
C1217 C1216 1.327 . S
C1217 C1221 1.429 . S
C1218 C1201 1.574 . S
C1218 H1212 0.949 . S
C1218 C1222 1.368 . S
C1219 C1200 1.429 . S
C1219 C1213 1.429 . S
C1219 C1220 1.523 . S
C1220 C1201 1.368 . S
C1220 C1214 1.368 . S
C1220 C1219 1.523 . S
C1221 C1205 1.429 . S
C1221 C1217 1.429 . S
C1221 C1222 1.523 . S
C1222 C1206 1.368 . S
C1222 C1218 1.368 . S
C1222 C1221 1.523 . S
H1223 C1198 0.950 . S
H1224 C1200 0.950 . S
H1225 C1201 0.949 . S
H1226 C1203 0.950 . S
H1227 C1205 0.950 . S
C1228 C1229 1.349 . S
C1228 C1230 1.327 . S
C1228 H1253 0.950 . S
C1229 C1228 1.349 . S
C1229 C1245 1.349 . S
C1230 C1228 1.327 . S
C1230 C1249 1.429 . S
C1230 H1254 0.950 . S
C1231 C1248 1.574 . S
C1231 C1250 1.368 . S
C1231 H1255 0.949 . S
H1232 C1236 0.949 . S
C1233 C1234 1.349 . S
C1233 C1235 1.327 . S
C1233 H1256 0.950 . S
C1234 C1233 1.349 . S
C1234 C1246 1.349 . S
C1235 C1233 1.327 . S
C1235 C1251 1.429 . S
C1235 H1257 0.950 . S
C1236 H1232 0.949 . S
C1236 C1244 1.574 . S
C1236 C1252 1.368 . S
H1237 C1245 0.950 . S
H1238 C1243 0.950 . S
H1239 C1244 0.949 . S
H1240 C1246 0.950 . S
H1241 C1247 0.950 . S
H1242 C1248 0.949 . S
C1243 H1238 0.950 . S
C1243 C1245 1.327 . S
C1243 C1249 1.429 . S
C1244 C1236 1.574 . S
C1244 H1239 0.949 . S
C1244 C1250 1.368 . S
C1245 C1229 1.349 . S
C1245 H1237 0.950 . S
C1245 C1243 1.327 . S
C1246 C1234 1.349 . S
C1246 H1240 0.950 . S
C1246 C1247 1.327 . S
C1247 H1241 0.950 . S
C1247 C1246 1.327 . S
C1247 C1251 1.429 . S
C1248 C1231 1.574 . S
C1248 H1242 0.949 . S
C1248 C1252 1.368 . S
C1249 C1230 1.429 . S
C1249 C1243 1.429 . S
C1249 C1250 1.523 . S
C1250 C1231 1.368 . S
C1250 C1244 1.368 . S
C1250 C1249 1.523 . S
C1251 C1235 1.429 . S
C1251 C1247 1.429 . S
C1251 C1252 1.523 . S
C1252 C1236 1.368 . S
C1252 C1248 1.368 . S
C1252 C1251 1.523 . S
H1253 C1228 0.950 . S
H1254 C1230 0.950 . S
H1255 C1231 0.949 . S
H1256 C1233 0.950 . S
H1257 C1235 0.950 . S
C1258 C1259 1.349 . S
C1258 C1260 1.327 . S
C1258 H1283 0.950 . S
C1259 C1258 1.349 . S
C1259 C1275 1.349 . S
C1260 C1258 1.327 . S
C1260 C1279 1.429 . S
C1260 H1284 0.950 . S
C1261 C1278 1.574 . S
C1261 C1280 1.368 . S
C1261 H1285 0.949 . S
H1262 C1266 0.949 . S
C1263 C1264 1.349 . S
C1263 C1265 1.327 . S
C1263 H1286 0.950 . S
C1264 C1263 1.349 . S
C1264 C1276 1.349 . S
C1265 C1263 1.327 . S
C1265 C1281 1.429 . S
C1265 H1287 0.950 . S
C1266 H1262 0.949 . S
C1266 C1274 1.574 . S
C1266 C1282 1.368 . S
H1267 C1275 0.950 . S
H1268 C1273 0.950 . S
H1269 C1274 0.949 . S
H1270 C1276 0.950 . S
H1271 C1277 0.950 . S
H1272 C1278 0.949 . S
C1273 H1268 0.950 . S
C1273 C1275 1.327 . S
C1273 C1279 1.429 . S
C1274 C1266 1.574 . S
C1274 H1269 0.949 . S
C1274 C1280 1.368 . S
C1275 C1259 1.349 . S
C1275 H1267 0.950 . S
C1275 C1273 1.327 . S
C1276 C1264 1.349 . S
C1276 H1270 0.950 . S
C1276 C1277 1.327 . S
C1277 H1271 0.950 . S
C1277 C1276 1.327 . S
C1277 C1281 1.429 . S
C1278 C1261 1.574 . S
C1278 H1272 0.949 . S
C1278 C1282 1.368 . S
C1279 C1260 1.429 . S
C1279 C1273 1.429 . S
C1279 C1280 1.523 . S
C1280 C1261 1.368 . S
C1280 C1274 1.368 . S
C1280 C1279 1.523 . S
C1281 C1265 1.429 . S
C1281 C1277 1.429 . S
C1281 C1282 1.523 . S
C1282 C1266 1.368 . S
C1282 C1278 1.368 . S
C1282 C1281 1.523 . S
H1283 C1258 0.950 . S
H1284 C1260 0.950 . S
H1285 C1261 0.949 . S
H1286 C1263 0.950 . S
H1287 C1265 0.950 . S
C1288 C1289 1.349 . S
C1288 C1290 1.327 . S
C1288 H1313 0.950 . S
C1289 C1288 1.349 . S
C1289 C1305 1.349 . S
C1290 C1288 1.327 . S
C1290 C1309 1.429 . S
C1290 H1314 0.950 . S
C1291 C1308 1.574 . S
C1291 C1310 1.368 . S
C1291 H1315 0.949 . S
H1292 C1296 0.949 . S
C1293 C1294 1.349 . S
C1293 C1295 1.327 . S
C1293 H1316 0.950 . S
C1294 C1293 1.349 . S
C1294 C1306 1.349 . S
C1295 C1293 1.327 . S
C1295 C1311 1.429 . S
C1295 H1317 0.950 . S
C1296 H1292 0.949 . S
C1296 C1304 1.574 . S
C1296 C1312 1.368 . S
H1297 C1305 0.950 . S
H1298 C1303 0.950 . S
H1299 C1304 0.949 . S
H1300 C1306 0.950 . S
H1301 C1307 0.950 . S
H1302 C1308 0.949 . S
C1303 H1298 0.950 . S
C1303 C1305 1.327 . S
C1303 C1309 1.429 . S
C1304 C1296 1.574 . S
C1304 H1299 0.949 . S
C1304 C1310 1.368 . S
C1305 C1289 1.349 . S
C1305 H1297 0.950 . S
C1305 C1303 1.327 . S
C1306 C1294 1.349 . S
C1306 H1300 0.950 . S
C1306 C1307 1.327 . S
C1307 H1301 0.950 . S
C1307 C1306 1.327 . S
C1307 C1311 1.429 . S
C1308 C1291 1.574 . S
C1308 H1302 0.949 . S
C1308 C1312 1.368 . S
C1309 C1290 1.429 . S
C1309 C1303 1.429 . S
C1309 C1310 1.523 . S
C1310 C1291 1.368 . S
C1310 C1304 1.368 . S
C1310 C1309 1.523 . S
C1311 C1295 1.429 . S
C1311 C1307 1.429 . S
C1311 C1312 1.523 . S
C1312 C1296 1.368 . S
C1312 C1308 1.368 . S
C1312 C1311 1.523 . S
H1313 C1288 0.950 . S
H1314 C1290 0.950 . S
H1315 C1291 0.949 . S
H1316 C1293 0.950 . S
H1317 C1295 0.950 . S
C1318 C1319 1.349 . S
C1318 C1320 1.327 . S
C1318 H1343 0.950 . S
C1319 C1318 1.349 . S
C1319 C1335 1.349 . S
C1320 C1318 1.327 . S
C1320 C1339 1.429 . S
C1320 H1344 0.950 . S
C1321 C1338 1.574 1_545 S
C1321 C1340 1.368 . S
C1321 H1345 0.949 . S
H1322 C1326 0.949 . S
C1323 C1324 1.349 . S
C1323 C1325 1.327 . S
C1323 H1346 0.950 . S
C1324 C1323 1.349 . S
C1324 C1336 1.349 . S
C1325 C1323 1.327 . S
C1325 C1341 1.429 . S
C1325 H1347 0.950 . S
C1326 H1322 0.949 . S
C1326 C1334 1.574 1_565 S
C1326 C1342 1.368 . S
H1327 C1335 0.950 . S
H1328 C1333 0.950 . S
H1329 C1334 0.949 . S
H1330 C1336 0.950 . S
H1331 C1337 0.950 . S
H1332 C1338 0.949 . S
C1333 H1328 0.950 . S
C1333 C1335 1.327 . S
C1333 C1339 1.429 . S
C1334 C1326 1.574 1_545 S
C1334 H1329 0.949 . S
C1334 C1340 1.368 . S
C1335 C1319 1.349 . S
C1335 H1327 0.950 . S
C1335 C1333 1.327 . S
C1336 C1324 1.349 . S
C1336 H1330 0.950 . S
C1336 C1337 1.327 . S
C1337 H1331 0.950 . S
C1337 C1336 1.327 . S
C1337 C1341 1.429 . S
C1338 C1321 1.574 1_565 S
C1338 H1332 0.949 . S
C1338 C1342 1.368 . S
C1339 C1320 1.429 . S
C1339 C1333 1.429 . S
C1339 C1340 1.523 . S
C1340 C1321 1.368 . S
C1340 C1334 1.368 . S
C1340 C1339 1.523 . S
C1341 C1325 1.429 . S
C1341 C1337 1.429 . S
C1341 C1342 1.523 . S
C1342 C1326 1.368 . S
C1342 C1338 1.368 . S
C1342 C1341 1.523 . S
H1343 C1318 0.950 . S
H1344 C1320 0.950 . S
H1345 C1321 0.949 . S
H1346 C1323 0.950 . S
H1347 C1325 0.950 . S
C1348 C1349 1.349 . S
C1348 C1350 1.327 . S
C1348 H1373 0.950 . S
C1349 C1348 1.349 . S
C1349 C1365 1.349 . S
C1350 C1348 1.327 . S
C1350 C1369 1.429 . S
C1350 H1374 0.950 . S
C1351 C1368 1.574 . S
C1351 C1370 1.368 . S
C1351 H1375 0.949 . S
H1352 C1356 0.949 . S
C1353 C1354 1.349 . S
C1353 C1355 1.327 . S
C1353 H1376 0.950 . S
C1354 C1353 1.349 . S
C1354 C1366 1.349 . S
C1355 C1353 1.327 . S
C1355 C1371 1.429 . S
C1355 H1377 0.950 . S
C1356 H1352 0.949 . S
C1356 C1364 1.574 . S
C1356 C1372 1.368 . S
H1357 C1365 0.950 . S
H1358 C1363 0.950 . S
H1359 C1364 0.949 . S
H1360 C1366 0.950 . S
H1361 C1367 0.950 . S
H1362 C1368 0.949 . S
C1363 H1358 0.950 . S
C1363 C1365 1.327 . S
C1363 C1369 1.429 . S
C1364 C1356 1.574 . S
C1364 H1359 0.949 . S
C1364 C1370 1.368 . S
C1365 C1349 1.349 . S
C1365 H1357 0.950 . S
C1365 C1363 1.327 . S
C1366 C1354 1.349 . S
C1366 H1360 0.950 . S
C1366 C1367 1.327 . S
C1367 H1361 0.950 . S
C1367 C1366 1.327 . S
C1367 C1371 1.429 . S
C1368 C1351 1.574 . S
C1368 H1362 0.949 . S
C1368 C1372 1.368 . S
C1369 C1350 1.429 . S
C1369 C1363 1.429 . S
C1369 C1370 1.523 . S
C1370 C1351 1.368 . S
C1370 C1364 1.368 . S
C1370 C1369 1.523 . S
C1371 C1355 1.429 . S
C1371 C1367 1.429 . S
C1371 C1372 1.523 . S
C1372 C1356 1.368 . S
C1372 C1368 1.368 . S
C1372 C1371 1.523 . S
H1373 C1348 0.950 . S
H1374 C1350 0.950 . S
H1375 C1351 0.949 . S
H1376 C1353 0.950 . S
H1377 C1355 0.950 . S
C1378 C1379 1.349 1_556 S
C1378 C1380 1.327 . S
C1378 H1403 0.950 . S
C1379 C1378 1.349 1_554 S
C1379 C1395 1.349 . S
C1380 C1378 1.327 . S
C1380 C1399 1.398 1_556 S
C1380 H1404 0.950 . S
C1381 C1398 1.574 . S
C1381 C1400 1.378 . S
C1381 H1405 0.949 . S
H1382 C1386 0.949 . S
C1383 C1384 1.349 1_554 S
C1383 C1385 1.327 . S
C1383 H1406 0.950 . S
C1384 C1383 1.349 1_556 S
C1384 C1396 1.349 . S
C1385 C1383 1.327 . S
C1385 C1401 1.388 1_554 S
C1385 H1407 0.950 . S
C1386 H1382 0.949 . S
C1386 C1394 1.574 . S
C1386 C1402 1.390 . S
H1387 C1395 0.950 . S
H1388 C1393 0.950 . S
H1389 C1394 0.949 . S
H1390 C1396 0.950 . S
H1391 C1397 0.950 . S
H1392 C1398 0.949 . S
C1393 H1388 0.950 . S
C1393 C1395 1.327 . S
C1393 C1399 1.461 . S
C1394 C1386 1.574 . S
C1394 H1389 0.949 . S
C1394 C1400 1.358 1_556 S
C1395 C1379 1.349 . S
C1395 H1387 0.950 . S
C1395 C1393 1.327 . S
C1396 C1384 1.349 . S
C1396 H1390 0.950 . S
C1396 C1397 1.327 . S
C1397 H1391 0.950 . S
C1397 C1396 1.327 . S
C1397 C1401 1.472 . S
C1398 C1381 1.574 . S
C1398 H1392 0.949 . S
C1398 C1402 1.347 1_554 S
C1399 C1380 1.398 1_554 S
C1399 C1393 1.461 . S
C1399 C1400 1.523 . S
C1400 C1381 1.378 . S
C1400 C1394 1.358 1_554 S
C1400 C1399 1.523 . S
C1401 C1385 1.388 1_556 S
C1401 C1397 1.472 . S
C1401 C1402 1.523 . S
C1402 C1386 1.390 . S
C1402 C1398 1.347 1_556 S
C1402 C1401 1.523 . S
H1403 C1378 0.950 . S
H1404 C1380 0.950 . S
H1405 C1381 0.949 . S
H1406 C1383 0.950 . S
H1407 C1385 0.950 . S
C1408 C1409 1.349 . S
C1408 C1410 1.327 . S
C1408 H1433 0.950 . S
C1409 C1408 1.349 . S
C1409 C1425 1.349 . S
C1410 C1408 1.327 . S
C1410 C1429 1.429 . S
C1410 H1434 0.950 . S
C1411 C1428 1.574 . S
C1411 C1430 1.368 . S
C1411 H1435 0.949 . S
H1412 C1416 0.949 . S
C1413 C1414 1.349 . S
C1413 C1415 1.327 . S
C1413 H1436 0.950 . S
C1414 C1413 1.349 . S
C1414 C1426 1.349 . S
C1415 C1413 1.327 . S
C1415 C1431 1.429 . S
C1415 H1437 0.950 . S
C1416 H1412 0.949 . S
C1416 C1424 1.574 . S
C1416 C1432 1.368 . S
H1417 C1425 0.950 . S
H1418 C1423 0.950 . S
H1419 C1424 0.949 . S
H1420 C1426 0.950 . S
H1421 C1427 0.950 . S
H1422 C1428 0.949 . S
C1423 H1418 0.950 . S
C1423 C1425 1.327 . S
C1423 C1429 1.429 . S
C1424 C1416 1.574 . S
C1424 H1419 0.949 . S
C1424 C1430 1.368 . S
C1425 C1409 1.349 . S
C1425 H1417 0.950 . S
C1425 C1423 1.327 . S
C1426 C1414 1.349 . S
C1426 H1420 0.950 . S
C1426 C1427 1.327 . S
C1427 H1421 0.950 . S
C1427 C1426 1.327 . S
C1427 C1431 1.429 . S
C1428 C1411 1.574 . S
C1428 H1422 0.949 . S
C1428 C1432 1.368 . S
C1429 C1410 1.429 . S
C1429 C1423 1.429 . S
C1429 C1430 1.523 . S
C1430 C1411 1.368 . S
C1430 C1424 1.368 . S
C1430 C1429 1.523 . S
C1431 C1415 1.429 . S
C1431 C1427 1.429 . S
C1431 C1432 1.523 . S
C1432 C1416 1.368 . S
C1432 C1428 1.368 . S
C1432 C1431 1.523 . S
H1433 C1408 0.950 . S
H1434 C1410 0.950 . S
H1435 C1411 0.949 . S
H1436 C1413 0.950 . S
H1437 C1415 0.950 . S
C1438 C1439 1.349 . S
C1438 C1440 1.327 . S
C1438 H1463 0.950 . S
C1439 C1438 1.349 . S
C1439 C1455 1.349 . S
C1440 C1438 1.327 . S
C1440 C1459 1.429 . S
C1440 H1464 0.950 . S
C1441 C1458 1.574 . S
C1441 C1460 1.368 . S
C1441 H1465 0.949 . S
H1442 C1446 0.949 . S
C1443 C1444 1.349 . S
C1443 C1445 1.327 . S
C1443 H1466 0.950 . S
C1444 C1443 1.349 . S
C1444 C1456 1.349 . S
C1445 C1443 1.327 . S
C1445 C1461 1.429 . S
C1445 H1467 0.950 . S
C1446 H1442 0.949 . S
C1446 C1454 1.574 . S
C1446 C1462 1.368 . S
H1447 C1455 0.950 . S
H1448 C1453 0.950 . S
H1449 C1454 0.949 . S
H1450 C1456 0.950 . S
H1451 C1457 0.950 . S
H1452 C1458 0.949 . S
C1453 H1448 0.950 . S
C1453 C1455 1.327 . S
C1453 C1459 1.429 . S
C1454 C1446 1.574 . S
C1454 H1449 0.949 . S
C1454 C1460 1.368 . S
C1455 C1439 1.349 . S
C1455 H1447 0.950 . S
C1455 C1453 1.327 . S
C1456 C1444 1.349 . S
C1456 H1450 0.950 . S
C1456 C1457 1.327 . S
C1457 H1451 0.950 . S
C1457 C1456 1.327 . S
C1457 C1461 1.429 . S
C1458 C1441 1.574 . S
C1458 H1452 0.949 . S
C1458 C1462 1.368 . S
C1459 C1440 1.429 . S
C1459 C1453 1.429 . S
C1459 C1460 1.523 . S
C1460 C1441 1.368 . S
C1460 C1454 1.368 . S
C1460 C1459 1.523 . S
C1461 C1445 1.429 . S
C1461 C1457 1.429 . S
C1461 C1462 1.523 . S
C1462 C1446 1.368 . S
C1462 C1458 1.368 . S
C1462 C1461 1.523 . S
H1463 C1438 0.950 . S
H1464 C1440 0.950 . S
H1465 C1441 0.949 . S
H1466 C1443 0.950 . S
H1467 C1445 0.950 . S
C1468 C1469 1.349 . S
C1468 C1470 1.327 . S
C1468 H1493 0.950 . S
C1469 C1468 1.349 . S
C1469 C1485 1.349 . S
C1470 C1468 1.327 . S
C1470 C1489 1.429 . S
C1470 H1494 0.950 . S
C1471 C1488 1.574 . S
C1471 C1490 1.368 . S
C1471 H1495 0.949 . S
H1472 C1476 0.949 . S
C1473 C1474 1.349 . S
C1473 C1475 1.327 . S
C1473 H1496 0.950 . S
C1474 C1473 1.349 . S
C1474 C1486 1.349 . S
C1475 C1473 1.327 . S
C1475 C1491 1.429 . S
C1475 H1497 0.950 . S
C1476 H1472 0.949 . S
C1476 C1484 1.574 . S
C1476 C1492 1.368 . S
H1477 C1485 0.950 . S
H1478 C1483 0.950 . S
H1479 C1484 0.949 . S
H1480 C1486 0.950 . S
H1481 C1487 0.950 . S
H1482 C1488 0.949 . S
C1483 H1478 0.950 . S
C1483 C1485 1.327 . S
C1483 C1489 1.429 . S
C1484 C1476 1.574 . S
C1484 H1479 0.949 . S
C1484 C1490 1.368 . S
C1485 C1469 1.349 . S
C1485 H1477 0.950 . S
C1485 C1483 1.327 . S
C1486 C1474 1.349 . S
C1486 H1480 0.950 . S
C1486 C1487 1.327 . S
C1487 H1481 0.950 . S
C1487 C1486 1.327 . S
C1487 C1491 1.429 . S
C1488 C1471 1.574 . S
C1488 H1482 0.949 . S
C1488 C1492 1.368 . S
C1489 C1470 1.429 . S
C1489 C1483 1.429 . S
C1489 C1490 1.523 . S
C1490 C1471 1.368 . S
C1490 C1484 1.368 . S
C1490 C1489 1.523 . S
C1491 C1475 1.429 . S
C1491 C1487 1.429 . S
C1491 C1492 1.523 . S
C1492 C1476 1.368 . S
C1492 C1488 1.368 . S
C1492 C1491 1.523 . S
H1493 C1468 0.950 . S
H1494 C1470 0.950 . S
H1495 C1471 0.949 . S
H1496 C1473 0.950 . S
H1497 C1475 0.950 . S
C1498 C1499 1.349 . S
C1498 C1500 1.327 . S
C1498 H1523 0.950 . S
C1499 C1498 1.349 . S
C1499 C1515 1.349 . S
C1500 C1498 1.327 . S
C1500 C1519 1.429 . S
C1500 H1524 0.950 . S
C1501 C1518 1.574 . S
C1501 C1520 1.368 . S
C1501 H1525 0.949 . S
H1502 C1506 0.949 . S
C1503 C1504 1.349 . S
C1503 C1505 1.327 . S
C1503 H1526 0.950 . S
C1504 C1503 1.349 . S
C1504 C1516 1.349 . S
C1505 C1503 1.327 . S
C1505 C1521 1.429 . S
C1505 H1527 0.950 . S
C1506 H1502 0.949 . S
C1506 C1514 1.574 . S
C1506 C1522 1.368 . S
H1507 C1515 0.950 . S
H1508 C1513 0.950 . S
H1509 C1514 0.949 . S
H1510 C1516 0.950 . S
H1511 C1517 0.950 . S
H1512 C1518 0.949 . S
C1513 H1508 0.950 . S
C1513 C1515 1.327 . S
C1513 C1519 1.429 . S
C1514 C1506 1.574 . S
C1514 H1509 0.949 . S
C1514 C1520 1.368 . S
C1515 C1499 1.349 . S
C1515 H1507 0.950 . S
C1515 C1513 1.327 . S
C1516 C1504 1.349 . S
C1516 H1510 0.950 . S
C1516 C1517 1.327 . S
C1517 H1511 0.950 . S
C1517 C1516 1.327 . S
C1517 C1521 1.429 . S
C1518 C1501 1.574 . S
C1518 H1512 0.949 . S
C1518 C1522 1.368 . S
C1519 C1500 1.429 . S
C1519 C1513 1.429 . S
C1519 C1520 1.523 . S
C1520 C1501 1.368 . S
C1520 C1514 1.368 . S
C1520 C1519 1.523 . S
C1521 C1505 1.429 . S
C1521 C1517 1.429 . S
C1521 C1522 1.523 . S
C1522 C1506 1.368 . S
C1522 C1518 1.368 . S
C1522 C1521 1.523 . S
H1523 C1498 0.950 . S
H1524 C1500 0.950 . S
H1525 C1501 0.949 . S
H1526 C1503 0.950 . S
H1527 C1505 0.950 . S
C1528 C1529 1.349 . S
C1528 C1530 1.327 . S
C1528 H1553 0.950 . S
C1529 C1528 1.349 . S
C1529 C1545 1.349 . S
C1530 C1528 1.327 . S
C1530 C1549 1.429 . S
C1530 H1554 0.950 . S
C1531 C1548 1.574 . S
C1531 C1550 1.368 . S
C1531 H1555 0.949 . S
H1532 C1536 0.949 . S
C1533 C1534 1.349 . S
C1533 C1535 1.327 . S
C1533 H1556 0.950 . S
C1534 C1533 1.349 . S
C1534 C1546 1.349 . S
C1535 C1533 1.327 . S
C1535 C1551 1.429 . S
C1535 H1557 0.950 . S
C1536 H1532 0.949 . S
C1536 C1544 1.574 . S
C1536 C1552 1.368 . S
H1537 C1545 0.950 . S
H1538 C1543 0.950 . S
H1539 C1544 0.949 . S
H1540 C1546 0.950 . S
H1541 C1547 0.950 . S
H1542 C1548 0.949 . S
C1543 H1538 0.950 . S
C1543 C1545 1.327 . S
C1543 C1549 1.429 . S
C1544 C1536 1.574 . S
C1544 H1539 0.949 . S
C1544 C1550 1.368 . S
C1545 C1529 1.349 . S
C1545 H1537 0.950 . S
C1545 C1543 1.327 . S
C1546 C1534 1.349 . S
C1546 H1540 0.950 . S
C1546 C1547 1.327 . S
C1547 H1541 0.950 . S
C1547 C1546 1.327 . S
C1547 C1551 1.429 . S
C1548 C1531 1.574 . S
C1548 H1542 0.949 . S
C1548 C1552 1.368 . S
C1549 C1530 1.429 . S
C1549 C1543 1.429 . S
C1549 C1550 1.523 . S
C1550 C1531 1.368 . S
C1550 C1544 1.368 . S
C1550 C1549 1.523 . S
C1551 C1535 1.429 . S
C1551 C1547 1.429 . S
C1551 C1552 1.523 . S
C1552 C1536 1.368 . S
C1552 C1548 1.368 . S
C1552 C1551 1.523 . S
H1553 C1528 0.950 . S
H1554 C1530 0.950 . S
H1555 C1531 0.949 . S
H1556 C1533 0.950 . S
H1557 C1535 0.950 . S
C1558 C1559 1.349 . S
C1558 C1560 1.327 . S
C1558 H1583 0.950 . S
C1559 C1558 1.349 . S
C1559 C1575 1.349 . S
C1560 C1558 1.327 . S
C1560 C1579 1.429 . S
C1560 H1584 0.950 . S
C1561 C1578 1.574 . S
C1561 C1580 1.368 . S
C1561 H1585 0.949 . S
H1562 C1566 0.949 . S
C1563 C1564 1.349 . S
C1563 C1565 1.327 . S
C1563 H1586 0.950 . S
C1564 C1563 1.349 . S
C1564 C1576 1.349 . S
C1565 C1563 1.327 . S
C1565 C1581 1.429 . S
C1565 H1587 0.950 . S
C1566 H1562 0.949 . S
C1566 C1574 1.574 . S
C1566 C1582 1.368 . S
H1567 C1575 0.950 . S
H1568 C1573 0.950 . S
H1569 C1574 0.949 . S
H1570 C1576 0.950 . S
H1571 C1577 0.950 . S
H1572 C1578 0.949 . S
C1573 H1568 0.950 . S
C1573 C1575 1.327 . S
C1573 C1579 1.429 . S
C1574 C1566 1.574 . S
C1574 H1569 0.949 . S
C1574 C1580 1.368 . S
C1575 C1559 1.349 . S
C1575 H1567 0.950 . S
C1575 C1573 1.327 . S
C1576 C1564 1.349 . S
C1576 H1570 0.950 . S
C1576 C1577 1.327 . S
C1577 H1571 0.950 . S
C1577 C1576 1.327 . S
C1577 C1581 1.429 . S
C1578 C1561 1.574 . S
C1578 H1572 0.949 . S
C1578 C1582 1.368 . S
C1579 C1560 1.429 . S
C1579 C1573 1.429 . S
C1579 C1580 1.523 . S
C1580 C1561 1.368 . S
C1580 C1574 1.368 . S
C1580 C1579 1.523 . S
C1581 C1565 1.429 . S
C1581 C1577 1.429 . S
C1581 C1582 1.523 . S
C1582 C1566 1.368 . S
C1582 C1578 1.368 . S
C1582 C1581 1.523 . S
H1583 C1558 0.950 . S
H1584 C1560 0.950 . S
H1585 C1561 0.949 . S
H1586 C1563 0.950 . S
H1587 C1565 0.950 . S
C1588 C1589 1.349 . S
C1588 C1590 1.327 . S
C1588 H1613 0.950 . S
C1589 C1588 1.349 . S
C1589 C1605 1.349 . S
C1590 C1588 1.327 . S
C1590 C1609 1.429 . S
C1590 H1614 0.950 . S
C1591 C1608 1.574 . S
C1591 C1610 1.368 . S
C1591 H1615 0.949 . S
H1592 C1596 0.949 . S
C1593 C1594 1.349 . S
C1593 C1595 1.327 . S
C1593 H1616 0.950 . S
C1594 C1593 1.349 . S
C1594 C1606 1.349 . S
C1595 C1593 1.327 . S
C1595 C1611 1.429 . S
C1595 H1617 0.950 . S
C1596 H1592 0.949 . S
C1596 C1604 1.574 . S
C1596 C1612 1.368 . S
H1597 C1605 0.950 . S
H1598 C1603 0.950 . S
H1599 C1604 0.949 . S
H1600 C1606 0.950 . S
H1601 C1607 0.950 . S
H1602 C1608 0.949 . S
C1603 H1598 0.950 . S
C1603 C1605 1.327 . S
C1603 C1609 1.429 . S
C1604 C1596 1.574 . S
C1604 H1599 0.949 . S
C1604 C1610 1.368 . S
C1605 C1589 1.349 . S
C1605 H1597 0.950 . S
C1605 C1603 1.327 . S
C1606 C1594 1.349 . S
C1606 H1600 0.950 . S
C1606 C1607 1.327 . S
C1607 H1601 0.950 . S
C1607 C1606 1.327 . S
C1607 C1611 1.429 . S
C1608 C1591 1.574 . S
C1608 H1602 0.949 . S
C1608 C1612 1.368 . S
C1609 C1590 1.429 . S
C1609 C1603 1.429 . S
C1609 C1610 1.523 . S
C1610 C1591 1.368 . S
C1610 C1604 1.368 . S
C1610 C1609 1.523 . S
C1611 C1595 1.429 . S
C1611 C1607 1.429 . S
C1611 C1612 1.523 . S
C1612 C1596 1.368 . S
C1612 C1608 1.368 . S
C1612 C1611 1.523 . S
H1613 C1588 0.950 . S
H1614 C1590 0.950 . S
H1615 C1591 0.949 . S
H1616 C1593 0.950 . S
H1617 C1595 0.950 . S
C1618 C1619 1.349 . S
C1618 C1620 1.327 . S
C1618 H1643 0.950 . S
C1619 C1618 1.349 . S
C1619 C1635 1.349 . S
C1620 C1618 1.327 . S
C1620 C1639 1.429 . S
C1620 H1644 0.950 . S
C1621 C1638 1.574 . S
C1621 C1640 1.368 . S
C1621 H1645 0.949 . S
H1622 C1626 0.949 . S
C1623 C1624 1.349 . S
C1623 C1625 1.327 . S
C1623 H1646 0.950 . S
C1624 C1623 1.349 . S
C1624 C1636 1.349 . S
C1625 C1623 1.327 . S
C1625 C1641 1.429 . S
C1625 H1647 0.950 . S
C1626 H1622 0.949 . S
C1626 C1634 1.574 . S
C1626 C1642 1.368 . S
H1627 C1635 0.950 . S
H1628 C1633 0.950 . S
H1629 C1634 0.949 . S
H1630 C1636 0.950 . S
H1631 C1637 0.950 . S
H1632 C1638 0.949 . S
C1633 H1628 0.950 . S
C1633 C1635 1.327 . S
C1633 C1639 1.429 . S
C1634 C1626 1.574 . S
C1634 H1629 0.949 . S
C1634 C1640 1.368 . S
C1635 C1619 1.349 . S
C1635 H1627 0.950 . S
C1635 C1633 1.327 . S
C1636 C1624 1.349 . S
C1636 H1630 0.950 . S
C1636 C1637 1.327 . S
C1637 H1631 0.950 . S
C1637 C1636 1.327 . S
C1637 C1641 1.429 . S
C1638 C1621 1.574 . S
C1638 H1632 0.949 . S
C1638 C1642 1.368 . S
C1639 C1620 1.429 . S
C1639 C1633 1.429 . S
C1639 C1640 1.523 . S
C1640 C1621 1.368 . S
C1640 C1634 1.368 . S
C1640 C1639 1.523 . S
C1641 C1625 1.429 . S
C1641 C1637 1.429 . S
C1641 C1642 1.523 . S
C1642 C1626 1.368 . S
C1642 C1638 1.368 . S
C1642 C1641 1.523 . S
H1643 C1618 0.950 . S
H1644 C1620 0.950 . S
H1645 C1621 0.949 . S
H1646 C1623 0.950 . S
H1647 C1625 0.950 . S
C1648 C1649 1.349 . S
C1648 C1650 1.327 . S
C1648 H1673 0.950 . S
C1649 C1648 1.349 . S
C1649 C1665 1.349 . S
C1650 C1648 1.327 . S
C1650 C1669 1.429 . S
C1650 H1674 0.950 . S
C1651 C1668 1.574 . S
C1651 C1670 1.368 . S
C1651 H1675 0.949 . S
H1652 C1656 0.949 . S
C1653 C1654 1.349 . S
C1653 C1655 1.327 . S
C1653 H1676 0.950 . S
C1654 C1653 1.349 . S
C1654 C1666 1.349 . S
C1655 C1653 1.327 . S
C1655 C1671 1.429 . S
C1655 H1677 0.950 . S
C1656 H1652 0.949 . S
C1656 C1664 1.574 . S
C1656 C1672 1.368 . S
H1657 C1665 0.950 . S
H1658 C1663 0.950 . S
H1659 C1664 0.949 . S
H1660 C1666 0.950 . S
H1661 C1667 0.950 . S
H1662 C1668 0.949 . S
C1663 H1658 0.950 . S
C1663 C1665 1.327 . S
C1663 C1669 1.429 . S
C1664 C1656 1.574 . S
C1664 H1659 0.949 . S
C1664 C1670 1.368 . S
C1665 C1649 1.349 . S
C1665 H1657 0.950 . S
C1665 C1663 1.327 . S
C1666 C1654 1.349 . S
C1666 H1660 0.950 . S
C1666 C1667 1.327 . S
C1667 H1661 0.950 . S
C1667 C1666 1.327 . S
C1667 C1671 1.429 . S
C1668 C1651 1.574 . S
C1668 H1662 0.949 . S
C1668 C1672 1.368 . S
C1669 C1650 1.429 . S
C1669 C1663 1.429 . S
C1669 C1670 1.523 . S
C1670 C1651 1.368 . S
C1670 C1664 1.368 . S
C1670 C1669 1.523 . S
C1671 C1655 1.429 . S
C1671 C1667 1.429 . S
C1671 C1672 1.523 . S
C1672 C1656 1.368 . S
C1672 C1668 1.368 . S
C1672 C1671 1.523 . S
H1673 C1648 0.950 . S
H1674 C1650 0.950 . S
H1675 C1651 0.949 . S
H1676 C1653 0.950 . S
H1677 C1655 0.950 . S
C1678 C1679 1.349 . S
C1678 C1680 1.327 . S
C1678 H1703 0.950 . S
C1679 C1678 1.349 . S
C1679 C1695 1.349 . S
C1680 C1678 1.327 . S
C1680 C1699 1.429 . S
C1680 H1704 0.950 . S
C1681 C1698 1.574 . S
C1681 C1700 1.368 . S
C1681 H1705 0.949 . S
H1682 C1686 0.949 . S
C1683 C1684 1.349 . S
C1683 C1685 1.327 . S
C1683 H1706 0.950 . S
C1684 C1683 1.349 . S
C1684 C1696 1.349 . S
C1685 C1683 1.327 . S
C1685 C1701 1.429 . S
C1685 H1707 0.950 . S
C1686 H1682 0.949 . S
C1686 C1694 1.574 . S
C1686 C1702 1.368 . S
H1687 C1695 0.950 . S
H1688 C1693 0.950 . S
H1689 C1694 0.949 . S
H1690 C1696 0.950 . S
H1691 C1697 0.950 . S
H1692 C1698 0.949 . S
C1693 H1688 0.950 . S
C1693 C1695 1.327 . S
C1693 C1699 1.429 . S
C1694 C1686 1.574 . S
C1694 H1689 0.949 . S
C1694 C1700 1.368 . S
C1695 C1679 1.349 . S
C1695 H1687 0.950 . S
C1695 C1693 1.327 . S
C1696 C1684 1.349 . S
C1696 H1690 0.950 . S
C1696 C1697 1.327 . S
C1697 H1691 0.950 . S
C1697 C1696 1.327 . S
C1697 C1701 1.429 . S
C1698 C1681 1.574 . S
C1698 H1692 0.949 . S
C1698 C1702 1.368 . S
C1699 C1680 1.429 . S
C1699 C1693 1.429 . S
C1699 C1700 1.523 . S
C1700 C1681 1.368 . S
C1700 C1694 1.368 . S
C1700 C1699 1.523 . S
C1701 C1685 1.429 . S
C1701 C1697 1.429 . S
C1701 C1702 1.523 . S
C1702 C1686 1.368 . S
C1702 C1698 1.368 . S
C1702 C1701 1.523 . S
H1703 C1678 0.950 . S
H1704 C1680 0.950 . S
H1705 C1681 0.949 . S
H1706 C1683 0.950 . S
H1707 C1685 0.950 . S
C1708 C1709 1.349 . S
C1708 C1710 1.327 . S
C1708 H1733 0.950 . S
C1709 C1708 1.349 . S
C1709 C1725 1.349 . S
C1710 C1708 1.327 . S
C1710 C1729 1.429 . S
C1710 H1734 0.950 . S
C1711 C1728 1.574 . S
C1711 C1730 1.368 . S
C1711 H1735 0.949 . S
H1712 C1716 0.949 . S
C1713 C1714 1.349 . S
C1713 C1715 1.327 . S
C1713 H1736 0.950 . S
C1714 C1713 1.349 . S
C1714 C1726 1.349 . S
C1715 C1713 1.327 . S
C1715 C1731 1.429 . S
C1715 H1737 0.950 . S
C1716 H1712 0.949 . S
C1716 C1724 1.574 . S
C1716 C1732 1.368 . S
H1717 C1725 0.950 . S
H1718 C1723 0.950 . S
H1719 C1724 0.949 . S
H1720 C1726 0.950 . S
H1721 C1727 0.950 . S
H1722 C1728 0.949 . S
C1723 H1718 0.950 . S
C1723 C1725 1.327 . S
C1723 C1729 1.429 . S
C1724 C1716 1.574 . S
C1724 H1719 0.949 . S
C1724 C1730 1.368 . S
C1725 C1709 1.349 . S
C1725 H1717 0.950 . S
C1725 C1723 1.327 . S
C1726 C1714 1.349 . S
C1726 H1720 0.950 . S
C1726 C1727 1.327 . S
C1727 H1721 0.950 . S
C1727 C1726 1.327 . S
C1727 C1731 1.429 . S
C1728 C1711 1.574 . S
C1728 H1722 0.949 . S
C1728 C1732 1.368 . S
C1729 C1710 1.429 . S
C1729 C1723 1.429 . S
C1729 C1730 1.523 . S
C1730 C1711 1.368 . S
C1730 C1724 1.368 . S
C1730 C1729 1.523 . S
C1731 C1715 1.429 . S
C1731 C1727 1.429 . S
C1731 C1732 1.523 . S
C1732 C1716 1.368 . S
C1732 C1728 1.368 . S
C1732 C1731 1.523 . S
H1733 C1708 0.950 . S
H1734 C1710 0.950 . S
H1735 C1711 0.949 . S
H1736 C1713 0.950 . S
H1737 C1715 0.950 . S
C1738 C1739 1.349 . S
C1738 C1740 1.327 . S
C1738 H1763 0.950 . S
C1739 C1738 1.349 . S
C1739 C1755 1.349 . S
C1740 C1738 1.327 . S
C1740 C1759 1.429 . S
C1740 H1764 0.950 . S
C1741 C1758 1.574 . S
C1741 C1760 1.368 . S
C1741 H1765 0.949 . S
H1742 C1746 0.949 . S
C1743 C1744 1.349 . S
C1743 C1745 1.327 . S
C1743 H1766 0.950 . S
C1744 C1743 1.349 . S
C1744 C1756 1.349 . S
C1745 C1743 1.327 . S
C1745 C1761 1.429 . S
C1745 H1767 0.950 . S
C1746 H1742 0.949 . S
C1746 C1754 1.574 . S
C1746 C1762 1.368 . S
H1747 C1755 0.950 . S
H1748 C1753 0.950 . S
H1749 C1754 0.949 . S
H1750 C1756 0.950 . S
H1751 C1757 0.950 . S
H1752 C1758 0.949 . S
C1753 H1748 0.950 . S
C1753 C1755 1.327 . S
C1753 C1759 1.429 . S
C1754 C1746 1.574 . S
C1754 H1749 0.949 . S
C1754 C1760 1.368 . S
C1755 C1739 1.349 . S
C1755 H1747 0.950 . S
C1755 C1753 1.327 . S
C1756 C1744 1.349 . S
C1756 H1750 0.950 . S
C1756 C1757 1.327 . S
C1757 H1751 0.950 . S
C1757 C1756 1.327 . S
C1757 C1761 1.429 . S
C1758 C1741 1.574 . S
C1758 H1752 0.949 . S
C1758 C1762 1.368 . S
C1759 C1740 1.429 . S
C1759 C1753 1.429 . S
C1759 C1760 1.523 . S
C1760 C1741 1.368 . S
C1760 C1754 1.368 . S
C1760 C1759 1.523 . S
C1761 C1745 1.429 . S
C1761 C1757 1.429 . S
C1761 C1762 1.523 . S
C1762 C1746 1.368 . S
C1762 C1758 1.368 . S
C1762 C1761 1.523 . S
H1763 C1738 0.950 . S
H1764 C1740 0.950 . S
H1765 C1741 0.949 . S
H1766 C1743 0.950 . S
H1767 C1745 0.950 . S
C1768 C1769 1.349 . S
C1768 C1770 1.327 . S
C1768 H1793 0.950 . S
C1769 C1768 1.349 . S
C1769 C1785 1.349 . S
C1770 C1768 1.327 . S
C1770 C1789 1.429 . S
C1770 H1794 0.950 . S
C1771 C1788 1.574 . S
C1771 C1790 1.368 . S
C1771 H1795 0.949 . S
H1772 C1776 0.949 . S
C1773 C1774 1.349 . S
C1773 C1775 1.327 . S
C1773 H1796 0.950 . S
C1774 C1773 1.349 . S
C1774 C1786 1.349 . S
C1775 C1773 1.327 . S
C1775 C1791 1.429 . S
C1775 H1797 0.950 . S
C1776 H1772 0.949 . S
C1776 C1784 1.574 . S
C1776 C1792 1.368 . S
H1777 C1785 0.950 . S
H1778 C1783 0.950 . S
H1779 C1784 0.949 . S
H1780 C1786 0.950 . S
H1781 C1787 0.950 . S
H1782 C1788 0.949 . S
C1783 H1778 0.950 . S
C1783 C1785 1.327 . S
C1783 C1789 1.429 . S
C1784 C1776 1.574 . S
C1784 H1779 0.949 . S
C1784 C1790 1.368 . S
C1785 C1769 1.349 . S
C1785 H1777 0.950 . S
C1785 C1783 1.327 . S
C1786 C1774 1.349 . S
C1786 H1780 0.950 . S
C1786 C1787 1.327 . S
C1787 H1781 0.950 . S
C1787 C1786 1.327 . S
C1787 C1791 1.429 . S
C1788 C1771 1.574 . S
C1788 H1782 0.949 . S
C1788 C1792 1.368 . S
C1789 C1770 1.429 . S
C1789 C1783 1.429 . S
C1789 C1790 1.523 . S
C1790 C1771 1.368 . S
C1790 C1784 1.368 . S
C1790 C1789 1.523 . S
C1791 C1775 1.429 . S
C1791 C1787 1.429 . S
C1791 C1792 1.523 . S
C1792 C1776 1.368 . S
C1792 C1788 1.368 . S
C1792 C1791 1.523 . S
H1793 C1768 0.950 . S
H1794 C1770 0.950 . S
H1795 C1771 0.949 . S
H1796 C1773 0.950 . S
H1797 C1775 0.950 . S
C1798 C1799 1.349 . S
C1798 C1800 1.327 . S
C1798 H1823 0.950 . S
C1799 C1798 1.349 . S
C1799 C1815 1.349 . S
C1800 C1798 1.327 . S
C1800 C1819 1.429 . S
C1800 H1824 0.950 . S
C1801 C1818 1.574 . S
C1801 C1820 1.368 . S
C1801 H1825 0.949 . S
H1802 C1806 0.949 . S
C1803 C1804 1.349 . S
C1803 C1805 1.327 . S
C1803 H1826 0.950 . S
C1804 C1803 1.349 . S
C1804 C1816 1.349 . S
C1805 C1803 1.327 . S
C1805 C1821 1.429 . S
C1805 H1827 0.950 . S
C1806 H1802 0.949 . S
C1806 C1814 1.574 . S
C1806 C1822 1.368 . S
H1807 C1815 0.950 . S
H1808 C1813 0.950 . S
H1809 C1814 0.949 . S
H1810 C1816 0.950 . S
H1811 C1817 0.950 . S
H1812 C1818 0.949 . S
C1813 H1808 0.950 . S
C1813 C1815 1.327 . S
C1813 C1819 1.429 . S
C1814 C1806 1.574 . S
C1814 H1809 0.949 . S
C1814 C1820 1.368 . S
C1815 C1799 1.349 . S
C1815 H1807 0.950 . S
C1815 C1813 1.327 . S
C1816 C1804 1.349 . S
C1816 H1810 0.950 . S
C1816 C1817 1.327 . S
C1817 H1811 0.950 . S
C1817 C1816 1.327 . S
C1817 C1821 1.429 . S
C1818 C1801 1.574 . S
C1818 H1812 0.949 . S
C1818 C1822 1.368 . S
C1819 C1800 1.429 . S
C1819 C1813 1.429 . S
C1819 C1820 1.523 . S
C1820 C1801 1.368 . S
C1820 C1814 1.368 . S
C1820 C1819 1.523 . S
C1821 C1805 1.429 . S
C1821 C1817 1.429 . S
C1821 C1822 1.523 . S
C1822 C1806 1.368 . S
C1822 C1818 1.368 . S
C1822 C1821 1.523 . S
H1823 C1798 0.950 . S
H1824 C1800 0.950 . S
H1825 C1801 0.949 . S
H1826 C1803 0.950 . S
H1827 C1805 0.950 . S
C1828 C1829 1.349 . S
C1828 C1830 1.327 . S
C1828 H1853 0.950 . S
C1829 C1828 1.349 . S
C1829 C1845 1.349 . S
C1830 C1828 1.327 . S
C1830 C1849 1.429 . S
C1830 H1854 0.950 . S
C1831 C1848 1.574 . S
C1831 C1850 1.368 . S
C1831 H1855 0.949 . S
H1832 C1836 0.949 . S
C1833 C1834 1.349 . S
C1833 C1835 1.327 . S
C1833 H1856 0.950 . S
C1834 C1833 1.349 . S
C1834 C1846 1.349 . S
C1835 C1833 1.327 . S
C1835 C1851 1.429 . S
C1835 H1857 0.950 . S
C1836 H1832 0.949 . S
C1836 C1844 1.574 . S
C1836 C1852 1.368 . S
H1837 C1845 0.950 . S
H1838 C1843 0.950 . S
H1839 C1844 0.949 . S
H1840 C1846 0.950 . S
H1841 C1847 0.950 . S
H1842 C1848 0.949 . S
C1843 H1838 0.950 . S
C1843 C1845 1.327 . S
C1843 C1849 1.429 . S
C1844 C1836 1.574 . S
C1844 H1839 0.949 . S
C1844 C1850 1.368 . S
C1845 C1829 1.349 . S
C1845 H1837 0.950 . S
C1845 C1843 1.327 . S
C1846 C1834 1.349 . S
C1846 H1840 0.950 . S
C1846 C1847 1.327 . S
C1847 H1841 0.950 . S
C1847 C1846 1.327 . S
C1847 C1851 1.429 . S
C1848 C1831 1.574 . S
C1848 H1842 0.949 . S
C1848 C1852 1.368 . S
C1849 C1830 1.429 . S
C1849 C1843 1.429 . S
C1849 C1850 1.523 . S
C1850 C1831 1.368 . S
C1850 C1844 1.368 . S
C1850 C1849 1.523 . S
C1851 C1835 1.429 . S
C1851 C1847 1.429 . S
C1851 C1852 1.523 . S
C1852 C1836 1.368 . S
C1852 C1848 1.368 . S
C1852 C1851 1.523 . S
H1853 C1828 0.950 . S
H1854 C1830 0.950 . S
H1855 C1831 0.949 . S
H1856 C1833 0.950 . S
H1857 C1835 0.950 . S
C1858 C1859 1.349 . S
C1858 C1860 1.327 . S
C1858 H1883 0.950 . S
C1859 C1858 1.349 . S
C1859 C1875 1.349 . S
C1860 C1858 1.327 . S
C1860 C1879 1.429 . S
C1860 H1884 0.950 . S
C1861 C1878 1.574 . S
C1861 C1880 1.368 . S
C1861 H1885 0.949 . S
H1862 C1866 0.949 . S
C1863 C1864 1.349 . S
C1863 C1865 1.327 . S
C1863 H1886 0.950 . S
C1864 C1863 1.349 . S
C1864 C1876 1.349 . S
C1865 C1863 1.327 . S
C1865 C1881 1.429 . S
C1865 H1887 0.950 . S
C1866 H1862 0.949 . S
C1866 C1874 1.574 . S
C1866 C1882 1.368 . S
H1867 C1875 0.950 . S
H1868 C1873 0.950 . S
H1869 C1874 0.949 . S
H1870 C1876 0.950 . S
H1871 C1877 0.950 . S
H1872 C1878 0.949 . S
C1873 H1868 0.950 . S
C1873 C1875 1.327 . S
C1873 C1879 1.429 . S
C1874 C1866 1.574 . S
C1874 H1869 0.949 . S
C1874 C1880 1.368 . S
C1875 C1859 1.349 . S
C1875 H1867 0.950 . S
C1875 C1873 1.327 . S
C1876 C1864 1.349 . S
C1876 H1870 0.950 . S
C1876 C1877 1.327 . S
C1877 H1871 0.950 . S
C1877 C1876 1.327 . S
C1877 C1881 1.429 . S
C1878 C1861 1.574 . S
C1878 H1872 0.949 . S
C1878 C1882 1.368 . S
C1879 C1860 1.429 . S
C1879 C1873 1.429 . S
C1879 C1880 1.523 . S
C1880 C1861 1.368 . S
C1880 C1874 1.368 . S
C1880 C1879 1.523 . S
C1881 C1865 1.429 . S
C1881 C1877 1.429 . S
C1881 C1882 1.523 . S
C1882 C1866 1.368 . S
C1882 C1878 1.368 . S
C1882 C1881 1.523 . S
H1883 C1858 0.950 . S
H1884 C1860 0.950 . S
H1885 C1861 0.949 . S
H1886 C1863 0.950 . S
H1887 C1865 0.950 . S
C1888 C1889 1.349 . S
C1888 C1890 1.327 . S
C1888 H1913 0.950 . S
C1889 C1888 1.349 . S
C1889 C1905 1.349 . S
C1890 C1888 1.327 . S
C1890 C1909 1.429 . S
C1890 H1914 0.950 . S
C1891 C1908 1.574 . S
C1891 C1910 1.368 . S
C1891 H1915 0.949 . S
H1892 C1896 0.949 . S
C1893 C1894 1.349 . S
C1893 C1895 1.327 . S
C1893 H1916 0.950 . S
C1894 C1893 1.349 . S
C1894 C1906 1.349 . S
C1895 C1893 1.327 . S
C1895 C1911 1.429 . S
C1895 H1917 0.950 . S
C1896 H1892 0.949 . S
C1896 C1904 1.574 . S
C1896 C1912 1.368 . S
H1897 C1905 0.950 . S
H1898 C1903 0.950 . S
H1899 C1904 0.949 . S
H1900 C1906 0.950 . S
H1901 C1907 0.950 . S
H1902 C1908 0.949 . S
C1903 H1898 0.950 . S
C1903 C1905 1.327 . S
C1903 C1909 1.429 . S
C1904 C1896 1.574 . S
C1904 H1899 0.949 . S
C1904 C1910 1.368 . S
C1905 C1889 1.349 . S
C1905 H1897 0.950 . S
C1905 C1903 1.327 . S
C1906 C1894 1.349 . S
C1906 H1900 0.950 . S
C1906 C1907 1.327 . S
C1907 H1901 0.950 . S
C1907 C1906 1.327 . S
C1907 C1911 1.429 . S
C1908 C1891 1.574 . S
C1908 H1902 0.949 . S
C1908 C1912 1.368 . S
C1909 C1890 1.429 . S
C1909 C1903 1.429 . S
C1909 C1910 1.523 . S
C1910 C1891 1.368 . S
C1910 C1904 1.368 . S
C1910 C1909 1.523 . S
C1911 C1895 1.429 . S
C1911 C1907 1.429 . S
C1911 C1912 1.523 . S
C1912 C1896 1.368 . S
C1912 C1908 1.368 . S
C1912 C1911 1.523 . S
H1913 C1888 0.950 . S
H1914 C1890 0.950 . S
H1915 C1891 0.949 . S
H1916 C1893 0.950 . S
H1917 C1895 0.950 . S
C1918 C1919 1.349 . S
C1918 C1920 1.327 . S
C1918 H1943 0.950 . S
C1919 C1918 1.349 . S
C1919 C1935 1.349 . S
C1920 C1918 1.327 . S
C1920 C1939 1.429 . S
C1920 H1944 0.950 . S
C1921 C1938 1.574 . S
C1921 C1940 1.368 . S
C1921 H1945 0.949 . S
H1922 C1926 0.949 . S
C1923 C1924 1.349 . S
C1923 C1925 1.327 1_455 S
C1923 H1946 0.950 . S
C1924 C1923 1.349 . S
C1924 C1936 1.349 . S
C1925 C1923 1.327 1_655 S
C1925 C1941 1.429 . S
C1925 H1947 0.950 . S
C1926 H1922 0.949 . S
C1926 C1934 1.574 . S
C1926 C1942 1.368 . S
H1927 C1935 0.950 . S
H1928 C1933 0.950 . S
H1929 C1934 0.949 . S
H1930 C1936 0.950 . S
H1931 C1937 0.950 . S
H1932 C1938 0.949 . S
C1933 H1928 0.950 . S
C1933 C1935 1.327 . S
C1933 C1939 1.429 . S
C1934 C1926 1.574 . S
C1934 H1929 0.949 . S
C1934 C1940 1.368 . S
C1935 C1919 1.349 . S
C1935 H1927 0.950 . S
C1935 C1933 1.327 . S
C1936 C1924 1.349 . S
C1936 H1930 0.950 . S
C1936 C1937 1.327 1_455 S
C1937 H1931 0.950 . S
C1937 C1936 1.327 1_655 S
C1937 C1941 1.429 . S
C1938 C1921 1.574 . S
C1938 H1932 0.949 . S
C1938 C1942 1.368 . S
C1939 C1920 1.429 . S
C1939 C1933 1.429 . S
C1939 C1940 1.523 . S
C1940 C1921 1.368 . S
C1940 C1934 1.368 . S
C1940 C1939 1.523 . S
C1941 C1925 1.429 . S
C1941 C1937 1.429 . S
C1941 C1942 1.523 . S
C1942 C1926 1.368 . S
C1942 C1938 1.368 . S
C1942 C1941 1.523 . S
H1943 C1918 0.950 . S
H1944 C1920 0.950 . S
H1945 C1921 0.949 . S
H1946 C1923 0.950 . S
H1947 C1925 0.950 . S
C1948 C1949 1.349 1_556 S
C1948 C1950 1.327 . S
C1948 H1973 0.950 . S
C1949 C1948 1.349 1_554 S
C1949 C1965 1.349 . S
C1950 C1948 1.327 . S
C1950 C1969 1.429 1_556 S
C1950 H1974 0.950 . S
C1951 C1968 1.574 . S
C1951 C1970 1.368 . S
C1951 H1975 0.949 . S
H1952 C1956 0.949 . S
C1953 C1954 1.349 . S
C1953 C1955 1.327 . S
C1953 H1976 0.950 . S
C1954 C1953 1.349 . S
C1954 C1966 1.349 1_554 S
C1955 C1953 1.327 . S
C1955 C1971 1.429 . S
C1955 H1977 0.950 . S
C1956 H1952 0.949 . S
C1956 C1964 1.574 . S
C1956 C1972 1.368 1_556 S
H1957 C1965 0.950 . S
H1958 C1963 0.950 . S
H1959 C1964 0.949 . S
H1960 C1966 0.950 . S
H1961 C1967 0.950 . S
H1962 C1968 0.949 . S
C1963 H1958 0.950 . S
C1963 C1965 1.327 . S
C1963 C1969 1.429 . S
C1964 C1956 1.574 . S
C1964 H1959 0.949 . S
C1964 C1970 1.368 1_556 S
C1965 C1949 1.349 . S
C1965 H1957 0.950 . S
C1965 C1963 1.327 . S
C1966 C1954 1.349 1_556 S
C1966 H1960 0.950 . S
C1966 C1967 1.327 . S
C1967 H1961 0.950 . S
C1967 C1966 1.327 . S
C1967 C1971 1.429 1_556 S
C1968 C1951 1.574 . S
C1968 H1962 0.949 . S
C1968 C1972 1.368 . S
C1969 C1950 1.429 1_554 S
C1969 C1963 1.429 . S
C1969 C1970 1.523 . S
C1970 C1951 1.368 . S
C1970 C1964 1.368 1_554 S
C1970 C1969 1.523 . S
C1971 C1955 1.429 . S
C1971 C1967 1.429 1_554 S
C1971 C1972 1.523 . S
C1972 C1956 1.368 1_554 S
C1972 C1968 1.368 . S
C1972 C1971 1.523 . S
H1973 C1948 0.950 . S
H1974 C1950 0.950 . S
H1975 C1951 0.949 . S
H1976 C1953 0.950 . S
H1977 C1955 0.950 . S
C1978 C1979 1.349 1_556 S
C1978 C1980 1.327 1_455 S
C1978 H2003 0.950 . S
C1979 C1978 1.349 1_554 S
C1979 C1995 1.349 . S
C1980 C1978 1.327 1_655 S
C1980 C1999 1.429 1_556 S
C1980 H2004 0.950 . S
C1981 C1998 1.574 . S
C1981 C2000 1.368 . S
C1981 H2005 0.949 . S
H1982 C1986 0.949 . S
C1983 C1984 1.349 . S
C1983 C1985 1.327 . S
C1983 H2006 0.950 . S
C1984 C1983 1.349 . S
C1984 C1996 1.349 1_554 S
C1985 C1983 1.327 . S
C1985 C2001 1.429 . S
C1985 H2007 0.950 . S
C1986 H1982 0.949 . S
C1986 C1994 1.574 . S
C1986 C2002 1.368 1_556 S
H1987 C1995 0.950 . S
H1988 C1993 0.950 . S
H1989 C1994 0.949 . S
H1990 C1996 0.950 . S
H1991 C1997 0.950 . S
H1992 C1998 0.949 . S
C1993 H1988 0.950 . S
C1993 C1995 1.327 1_655 S
C1993 C1999 1.429 . S
C1994 C1986 1.574 . S
C1994 H1989 0.949 . S
C1994 C2000 1.368 1_556 S
C1995 C1979 1.349 . S
C1995 H1987 0.950 . S
C1995 C1993 1.327 1_455 S
C1996 C1984 1.349 1_556 S
C1996 H1990 0.950 . S
C1996 C1997 1.327 . S
C1997 H1991 0.950 . S
C1997 C1996 1.327 . S
C1997 C2001 1.429 1_556 S
C1998 C1981 1.574 . S
C1998 H1992 0.949 . S
C1998 C2002 1.368 . S
C1999 C1980 1.429 1_554 S
C1999 C1993 1.429 . S
C1999 C2000 1.523 . S
C2000 C1981 1.368 . S
C2000 C1994 1.368 1_554 S
C2000 C1999 1.523 . S
C2001 C1985 1.429 . S
C2001 C1997 1.429 1_554 S
C2001 C2002 1.523 . S
C2002 C1986 1.368 1_554 S
C2002 C1998 1.368 . S
C2002 C2001 1.523 . S
H2003 C1978 0.950 . S
H2004 C1980 0.950 . S
H2005 C1981 0.949 . S
H2006 C1983 0.950 . S
H2007 C1985 0.950 . S
C2008 C2009 1.349 . S
C2008 C2010 1.327 . S
C2008 H2033 0.950 . S
C2009 C2008 1.349 . S
C2009 C2025 1.349 . S
C2010 C2008 1.327 . S
C2010 C2029 1.429 . S
C2010 H2034 0.950 . S
C2011 C2028 1.574 . S
C2011 C2030 1.368 . S
C2011 H2035 0.949 . S
H2012 C2016 0.949 . S
C2013 C2014 1.349 . S
C2013 C2015 1.327 . S
C2013 H2036 0.950 . S
C2014 C2013 1.349 . S
C2014 C2026 1.349 . S
C2015 C2013 1.327 . S
C2015 C2031 1.429 . S
C2015 H2037 0.950 . S
C2016 H2012 0.949 . S
C2016 C2024 1.574 . S
C2016 C2032 1.368 . S
H2017 C2025 0.950 . S
H2018 C2023 0.950 . S
H2019 C2024 0.949 . S
H2020 C2026 0.950 . S
H2021 C2027 0.950 . S
H2022 C2028 0.949 . S
C2023 H2018 0.950 . S
C2023 C2025 1.327 . S
C2023 C2029 1.429 . S
C2024 C2016 1.574 . S
C2024 H2019 0.949 . S
C2024 C2030 1.368 . S
C2025 C2009 1.349 . S
C2025 H2017 0.950 . S
C2025 C2023 1.327 . S
C2026 C2014 1.349 . S
C2026 H2020 0.950 . S
C2026 C2027 1.327 . S
C2027 H2021 0.950 . S
C2027 C2026 1.327 . S
C2027 C2031 1.429 . S
C2028 C2011 1.574 . S
C2028 H2022 0.949 . S
C2028 C2032 1.368 . S
C2029 C2010 1.429 . S
C2029 C2023 1.429 . S
C2029 C2030 1.523 . S
C2030 C2011 1.368 . S
C2030 C2024 1.368 . S
C2030 C2029 1.523 . S
C2031 C2015 1.429 . S
C2031 C2027 1.429 . S
C2031 C2032 1.523 . S
C2032 C2016 1.368 . S
C2032 C2028 1.368 . S
C2032 C2031 1.523 . S
H2033 C2008 0.950 . S
H2034 C2010 0.950 . S
H2035 C2011 0.949 . S
H2036 C2013 0.950 . S
H2037 C2015 0.950 . S
C2038 C2039 1.349 . S
C2038 C2040 1.327 1_655 S
C2038 H2063 0.950 . S
C2039 C2038 1.349 . S
C2039 C2055 1.349 . S
C2040 C2038 1.327 1_455 S
C2040 C2059 1.429 . S
C2040 H2064 0.950 . S
C2041 C2058 1.574 . S
C2041 C2060 1.368 . S
C2041 H2065 0.949 . S
H2042 C2046 0.949 . S
C2043 C2044 1.349 . S
C2043 C2045 1.327 . S
C2043 H2066 0.950 . S
C2044 C2043 1.349 . S
C2044 C2056 1.349 . S
C2045 C2043 1.327 . S
C2045 C2061 1.429 . S
C2045 H2067 0.950 . S
C2046 H2042 0.949 . S
C2046 C2054 1.574 . S
C2046 C2062 1.368 . S
H2047 C2055 0.950 . S
H2048 C2053 0.950 . S
H2049 C2054 0.949 . S
H2050 C2056 0.950 . S
H2051 C2057 0.950 . S
H2052 C2058 0.949 . S
C2053 H2048 0.950 . S
C2053 C2055 1.327 1_455 S
C2053 C2059 1.429 . S
C2054 C2046 1.574 . S
C2054 H2049 0.949 . S
C2054 C2060 1.368 . S
C2055 C2039 1.349 . S
C2055 H2047 0.950 . S
C2055 C2053 1.327 1_655 S
C2056 C2044 1.349 . S
C2056 H2050 0.950 . S
C2056 C2057 1.327 . S
C2057 H2051 0.950 . S
C2057 C2056 1.327 . S
C2057 C2061 1.429 . S
C2058 C2041 1.574 . S
C2058 H2052 0.949 . S
C2058 C2062 1.368 . S
C2059 C2040 1.429 . S
C2059 C2053 1.429 . S
C2059 C2060 1.523 . S
C2060 C2041 1.368 . S
C2060 C2054 1.368 . S
C2060 C2059 1.523 . S
C2061 C2045 1.429 . S
C2061 C2057 1.429 . S
C2061 C2062 1.523 . S
C2062 C2046 1.368 . S
C2062 C2058 1.368 . S
C2062 C2061 1.523 . S
H2063 C2038 0.950 . S
H2064 C2040 0.950 . S
H2065 C2041 0.949 . S
H2066 C2043 0.950 . S
H2067 C2045 0.950 . S
C2068 C2069 1.349 . S
C2068 C2070 1.327 . S
C2068 H2093 0.950 . S
C2069 C2068 1.349 . S
C2069 C2085 1.349 1_556 S
C2070 C2068 1.327 . S
C2070 C2089 1.429 . S
C2070 H2094 0.950 . S
C2071 C2088 1.574 . S
C2071 C2090 1.368 1_554 S
C2071 H2095 0.949 . S
H2072 C2076 0.949 . S
C2073 C2074 1.349 1_554 S
C2073 C2075 1.327 . S
C2073 H2096 0.950 . S
C2074 C2073 1.349 1_556 S
C2074 C2086 1.349 . S
C2075 C2073 1.327 . S
C2075 C2091 1.429 1_554 S
C2075 H2097 0.950 . S
C2076 H2072 0.949 . S
C2076 C2084 1.574 . S
C2076 C2092 1.368 . S
H2077 C2085 0.950 . S
H2078 C2083 0.950 . S
H2079 C2084 0.949 . S
H2080 C2086 0.950 . S
H2081 C2087 0.950 . S
H2082 C2088 0.949 . S
C2083 H2078 0.950 . S
C2083 C2085 1.327 . S
C2083 C2089 1.429 1_554 S
C2084 C2076 1.574 . S
C2084 H2079 0.949 . S
C2084 C2090 1.368 . S
C2085 C2069 1.349 1_554 S
C2085 H2077 0.950 . S
C2085 C2083 1.327 . S
C2086 C2074 1.349 . S
C2086 H2080 0.950 . S
C2086 C2087 1.327 . S
C2087 H2081 0.950 . S
C2087 C2086 1.327 . S
C2087 C2091 1.429 . S
C2088 C2071 1.574 . S
C2088 H2082 0.949 . S
C2088 C2092 1.368 1_554 S
C2089 C2070 1.429 . S
C2089 C2083 1.429 1_556 S
C2089 C2090 1.523 . S
C2090 C2071 1.368 1_556 S
C2090 C2084 1.368 . S
C2090 C2089 1.523 . S
C2091 C2075 1.429 1_556 S
C2091 C2087 1.429 . S
C2091 C2092 1.523 . S
C2092 C2076 1.368 . S
C2092 C2088 1.368 1_556 S
C2092 C2091 1.523 . S
H2093 C2068 0.950 . S
H2094 C2070 0.950 . S
H2095 C2071 0.949 . S
H2096 C2073 0.950 . S
H2097 C2075 0.950 . S
C2098 C2099 1.349 . S
C2098 C2100 1.327 . S
C2098 H2123 0.950 . S
C2099 C2098 1.349 . S
C2099 C2115 1.349 1_556 S
C2100 C2098 1.327 . S
C2100 C2119 1.429 . S
C2100 H2124 0.950 . S
C2101 C2118 1.574 . S
C2101 C2120 1.368 1_554 S
C2101 H2125 0.949 . S
H2102 C2106 0.949 . S
C2103 C2104 1.349 1_554 S
C2103 C2105 1.327 1_655 S
C2103 H2126 0.950 . S
C2104 C2103 1.349 1_556 S
C2104 C2116 1.349 . S
C2105 C2103 1.327 1_455 S
C2105 C2121 1.429 1_554 S
C2105 H2127 0.950 . S
C2106 H2102 0.949 . S
C2106 C2114 1.574 . S
C2106 C2122 1.368 . S
H2107 C2115 0.950 . S
H2108 C2113 0.950 . S
H2109 C2114 0.949 . S
H2110 C2116 0.950 . S
H2111 C2117 0.950 . S
H2112 C2118 0.949 . S
C2113 H2108 0.950 . S
C2113 C2115 1.327 . S
C2113 C2119 1.429 1_554 S
C2114 C2106 1.574 . S
C2114 H2109 0.949 . S
C2114 C2120 1.368 . S
C2115 C2099 1.349 1_554 S
C2115 H2107 0.950 . S
C2115 C2113 1.327 . S
C2116 C2104 1.349 . S
C2116 H2110 0.950 . S
C2116 C2117 1.327 1_655 S
C2117 H2111 0.950 . S
C2117 C2116 1.327 1_455 S
C2117 C2121 1.429 . S
C2118 C2101 1.574 . S
C2118 H2112 0.949 . S
C2118 C2122 1.368 1_554 S
C2119 C2100 1.429 . S
C2119 C2113 1.429 1_556 S
C2119 C2120 1.523 . S
C2120 C2101 1.368 1_556 S
C2120 C2114 1.368 . S
C2120 C2119 1.523 . S
C2121 C2105 1.429 1_556 S
C2121 C2117 1.429 . S
C2121 C2122 1.523 . S
C2122 C2106 1.368 . S
C2122 C2118 1.368 1_556 S
C2122 C2121 1.523 . S
H2123 C2098 0.950 . S
H2124 C2100 0.950 . S
H2125 C2101 0.949 . S
H2126 C2103 0.950 . S
H2127 C2105 0.950 . S
C2128 C2129 1.349 . S
C2128 C2130 1.327 . S
C2128 H2153 0.950 . S
C2129 C2128 1.349 . S
C2129 C2145 1.349 . S
C2130 C2128 1.327 . S
C2130 C2149 1.429 . S
C2130 H2154 0.950 . S
C2131 C2148 1.574 . S
C2131 C2150 1.368 . S
C2131 H2155 0.949 . S
H2132 C2136 0.949 . S
C2133 C2134 1.349 . S
C2133 C2135 1.327 . S
C2133 H2156 0.950 . S
C2134 C2133 1.349 . S
C2134 C2146 1.349 . S
C2135 C2133 1.327 . S
C2135 C2151 1.429 . S
C2135 H2157 0.950 . S
C2136 H2132 0.949 . S
C2136 C2144 1.574 . S
C2136 C2152 1.368 . S
H2137 C2145 0.950 . S
H2138 C2143 0.950 . S
H2139 C2144 0.949 . S
H2140 C2146 0.950 . S
H2141 C2147 0.950 . S
H2142 C2148 0.949 . S
C2143 H2138 0.950 . S
C2143 C2145 1.327 . S
C2143 C2149 1.429 . S
C2144 C2136 1.574 . S
C2144 H2139 0.949 . S
C2144 C2150 1.368 . S
C2145 C2129 1.349 . S
C2145 H2137 0.950 . S
C2145 C2143 1.327 . S
C2146 C2134 1.349 . S
C2146 H2140 0.950 . S
C2146 C2147 1.327 . S
C2147 H2141 0.950 . S
C2147 C2146 1.327 . S
C2147 C2151 1.429 . S
C2148 C2131 1.574 . S
C2148 H2142 0.949 . S
C2148 C2152 1.368 . S
C2149 C2130 1.429 . S
C2149 C2143 1.429 . S
C2149 C2150 1.523 . S
C2150 C2131 1.368 . S
C2150 C2144 1.368 . S
C2150 C2149 1.523 . S
C2151 C2135 1.429 . S
C2151 C2147 1.429 . S
C2151 C2152 1.523 . S
C2152 C2136 1.368 . S
C2152 C2148 1.368 . S
C2152 C2151 1.523 . S
H2153 C2128 0.950 . S
H2154 C2130 0.950 . S
H2155 C2131 0.949 . S
H2156 C2133 0.950 . S
H2157 C2135 0.950 . S
C2158 C2159 1.349 . S
C2158 C2160 1.327 . S
C2158 H2183 0.950 . S
C2159 C2158 1.349 . S
C2159 C2175 1.349 . S
C2160 C2158 1.327 . S
C2160 C2179 1.429 . S
C2160 H2184 0.950 . S
C2161 C2178 1.574 . S
C2161 C2180 1.368 . S
C2161 H2185 0.949 . S
H2162 C2166 0.949 . S
C2163 C2164 1.349 . S
C2163 C2165 1.327 1_455 S
C2163 H2186 0.950 . S
C2164 C2163 1.349 . S
C2164 C2176 1.349 . S
C2165 C2163 1.327 1_655 S
C2165 C2181 1.429 . S
C2165 H2187 0.950 . S
C2166 H2162 0.949 . S
C2166 C2174 1.574 . S
C2166 C2182 1.368 . S
H2167 C2175 0.950 . S
H2168 C2173 0.950 . S
H2169 C2174 0.949 . S
H2170 C2176 0.950 . S
H2171 C2177 0.950 . S
H2172 C2178 0.949 . S
C2173 H2168 0.950 . S
C2173 C2175 1.327 . S
C2173 C2179 1.429 . S
C2174 C2166 1.574 . S
C2174 H2169 0.949 . S
C2174 C2180 1.368 . S
C2175 C2159 1.349 . S
C2175 H2167 0.950 . S
C2175 C2173 1.327 . S
C2176 C2164 1.349 . S
C2176 H2170 0.950 . S
C2176 C2177 1.327 1_455 S
C2177 H2171 0.950 . S
C2177 C2176 1.327 1_655 S
C2177 C2181 1.429 . S
C2178 C2161 1.574 . S
C2178 H2172 0.949 . S
C2178 C2182 1.368 . S
C2179 C2160 1.429 . S
C2179 C2173 1.429 . S
C2179 C2180 1.523 . S
C2180 C2161 1.368 . S
C2180 C2174 1.368 . S
C2180 C2179 1.523 . S
C2181 C2165 1.429 . S
C2181 C2177 1.429 . S
C2181 C2182 1.523 . S
C2182 C2166 1.368 . S
C2182 C2178 1.368 . S
C2182 C2181 1.523 . S
H2183 C2158 0.950 . S
H2184 C2160 0.950 . S
H2185 C2161 0.949 . S
H2186 C2163 0.950 . S
H2187 C2165 0.950 . S
C2188 C2189 1.349 . S
C2188 C2190 1.327 . S
C2188 H2213 0.950 . S
C2189 C2188 1.349 . S
C2189 C2205 1.349 . S
C2190 C2188 1.327 . S
C2190 C2209 1.429 . S
C2190 H2214 0.950 . S
C2191 C2208 1.574 . S
C2191 C2210 1.368 . S
C2191 H2215 0.949 . S
H2192 C2196 0.949 . S
C2193 C2194 1.349 . S
C2193 C2195 1.327 . S
C2193 H2216 0.950 . S
C2194 C2193 1.349 . S
C2194 C2206 1.349 . S
C2195 C2193 1.327 . S
C2195 C2211 1.429 . S
C2195 H2217 0.950 . S
C2196 H2192 0.949 . S
C2196 C2204 1.574 . S
C2196 C2212 1.368 . S
H2197 C2205 0.950 . S
H2198 C2203 0.950 . S
H2199 C2204 0.949 . S
H2200 C2206 0.950 . S
H2201 C2207 0.950 . S
H2202 C2208 0.949 . S
C2203 H2198 0.950 . S
C2203 C2205 1.327 . S
C2203 C2209 1.429 . S
C2204 C2196 1.574 . S
C2204 H2199 0.949 . S
C2204 C2210 1.368 . S
C2205 C2189 1.349 . S
C2205 H2197 0.950 . S
C2205 C2203 1.327 . S
C2206 C2194 1.349 . S
C2206 H2200 0.950 . S
C2206 C2207 1.327 . S
C2207 H2201 0.950 . S
C2207 C2206 1.327 . S
C2207 C2211 1.429 . S
C2208 C2191 1.574 . S
C2208 H2202 0.949 . S
C2208 C2212 1.368 . S
C2209 C2190 1.429 . S
C2209 C2203 1.429 . S
C2209 C2210 1.523 . S
C2210 C2191 1.368 . S
C2210 C2204 1.368 . S
C2210 C2209 1.523 . S
C2211 C2195 1.429 . S
C2211 C2207 1.429 . S
C2211 C2212 1.523 . S
C2212 C2196 1.368 . S
C2212 C2208 1.368 . S
C2212 C2211 1.523 . S
H2213 C2188 0.950 . S
H2214 C2190 0.950 . S
H2215 C2191 0.949 . S
H2216 C2193 0.950 . S
H2217 C2195 0.950 . S
C2218 C2219 1.349 . S
C2218 C2220 1.327 1_455 S
C2218 H2243 0.950 . S
C2219 C2218 1.349 . S
C2219 C2235 1.349 . S
C2220 C2218 1.327 1_655 S
C2220 C2239 1.429 . S
C2220 H2244 0.950 . S
C2221 C2238 1.574 . S
C2221 C2240 1.368 . S
C2221 H2245 0.949 . S
H2222 C2226 0.949 . S
C2223 C2224 1.349 . S
C2223 C2225 1.327 . S
C2223 H2246 0.950 . S
C2224 C2223 1.349 . S
C2224 C2236 1.349 . S
C2225 C2223 1.327 . S
C2225 C2241 1.429 . S
C2225 H2247 0.950 . S
C2226 H2222 0.949 . S
C2226 C2234 1.574 . S
C2226 C2242 1.368 . S
H2227 C2235 0.950 . S
H2228 C2233 0.950 . S
H2229 C2234 0.949 . S
H2230 C2236 0.950 . S
H2231 C2237 0.950 . S
H2232 C2238 0.949 . S
C2233 H2228 0.950 . S
C2233 C2235 1.327 1_655 S
C2233 C2239 1.429 . S
C2234 C2226 1.574 . S
C2234 H2229 0.949 . S
C2234 C2240 1.368 . S
C2235 C2219 1.349 . S
C2235 H2227 0.950 . S
C2235 C2233 1.327 1_455 S
C2236 C2224 1.349 . S
C2236 H2230 0.950 . S
C2236 C2237 1.327 . S
C2237 H2231 0.950 . S
C2237 C2236 1.327 . S
C2237 C2241 1.429 . S
C2238 C2221 1.574 . S
C2238 H2232 0.949 . S
C2238 C2242 1.368 . S
C2239 C2220 1.429 . S
C2239 C2233 1.429 . S
C2239 C2240 1.523 . S
C2240 C2221 1.368 . S
C2240 C2234 1.368 . S
C2240 C2239 1.523 . S
C2241 C2225 1.429 . S
C2241 C2237 1.429 . S
C2241 C2242 1.523 . S
C2242 C2226 1.368 . S
C2242 C2238 1.368 . S
C2242 C2241 1.523 . S
H2243 C2218 0.950 . S
H2244 C2220 0.950 . S
H2245 C2221 0.949 . S
H2246 C2223 0.950 . S
H2247 C2225 0.950 . S
C2248 C2249 1.349 . S
C2248 C2250 1.327 . S
C2248 H2273 0.950 . S
C2249 C2248 1.349 . S
C2249 C2265 1.349 . S
C2250 C2248 1.327 . S
C2250 C2269 1.429 . S
C2250 H2274 0.950 . S
C2251 C2268 1.574 . S
C2251 C2270 1.368 . S
C2251 H2275 0.949 . S
H2252 C2256 0.949 . S
C2253 C2254 1.349 . S
C2253 C2255 1.327 . S
C2253 H2276 0.950 . S
C2254 C2253 1.349 . S
C2254 C2266 1.349 . S
C2255 C2253 1.327 . S
C2255 C2271 1.429 . S
C2255 H2277 0.950 . S
C2256 H2252 0.949 . S
C2256 C2264 1.574 . S
C2256 C2272 1.368 . S
H2257 C2265 0.950 . S
H2258 C2263 0.950 . S
H2259 C2264 0.949 . S
H2260 C2266 0.950 . S
H2261 C2267 0.950 . S
H2262 C2268 0.949 . S
C2263 H2258 0.950 . S
C2263 C2265 1.327 . S
C2263 C2269 1.429 . S
C2264 C2256 1.574 . S
C2264 H2259 0.949 . S
C2264 C2270 1.368 . S
C2265 C2249 1.349 . S
C2265 H2257 0.950 . S
C2265 C2263 1.327 . S
C2266 C2254 1.349 . S
C2266 H2260 0.950 . S
C2266 C2267 1.327 . S
C2267 H2261 0.950 . S
C2267 C2266 1.327 . S
C2267 C2271 1.429 . S
C2268 C2251 1.574 . S
C2268 H2262 0.949 . S
C2268 C2272 1.368 . S
C2269 C2250 1.429 . S
C2269 C2263 1.429 . S
C2269 C2270 1.523 . S
C2270 C2251 1.368 . S
C2270 C2264 1.368 . S
C2270 C2269 1.523 . S
C2271 C2255 1.429 . S
C2271 C2267 1.429 . S
C2271 C2272 1.523 . S
C2272 C2256 1.368 . S
C2272 C2268 1.368 . S
C2272 C2271 1.523 . S
H2273 C2248 0.950 . S
H2274 C2250 0.950 . S
H2275 C2251 0.949 . S
H2276 C2253 0.950 . S
H2277 C2255 0.950 . S
C2278 C2279 1.349 . S
C2278 C2280 1.327 1_655 S
C2278 H2303 0.950 . S
C2279 C2278 1.349 . S
C2279 C2295 1.349 . S
C2280 C2278 1.327 1_455 S
C2280 C2299 1.429 . S
C2280 H2304 0.950 . S
C2281 C2298 1.574 . S
C2281 C2300 1.368 . S
C2281 H2305 0.949 . S
H2282 C2286 0.949 . S
C2283 C2284 1.349 . S
C2283 C2285 1.327 . S
C2283 H2306 0.950 . S
C2284 C2283 1.349 . S
C2284 C2296 1.349 . S
C2285 C2283 1.327 . S
C2285 C2301 1.429 . S
C2285 H2307 0.950 . S
C2286 H2282 0.949 . S
C2286 C2294 1.574 . S
C2286 C2302 1.368 . S
H2287 C2295 0.950 . S
H2288 C2293 0.950 . S
H2289 C2294 0.949 . S
H2290 C2296 0.950 . S
H2291 C2297 0.950 . S
H2292 C2298 0.949 . S
C2293 H2288 0.950 . S
C2293 C2295 1.327 1_455 S
C2293 C2299 1.429 . S
C2294 C2286 1.574 . S
C2294 H2289 0.949 . S
C2294 C2300 1.368 . S
C2295 C2279 1.349 . S
C2295 H2287 0.950 . S
C2295 C2293 1.327 1_655 S
C2296 C2284 1.349 . S
C2296 H2290 0.950 . S
C2296 C2297 1.327 . S
C2297 H2291 0.950 . S
C2297 C2296 1.327 . S
C2297 C2301 1.429 . S
C2298 C2281 1.574 . S
C2298 H2292 0.949 . S
C2298 C2302 1.368 . S
C2299 C2280 1.429 . S
C2299 C2293 1.429 . S
C2299 C2300 1.523 . S
C2300 C2281 1.368 . S
C2300 C2294 1.368 . S
C2300 C2299 1.523 . S
C2301 C2285 1.429 . S
C2301 C2297 1.429 . S
C2301 C2302 1.523 . S
C2302 C2286 1.368 . S
C2302 C2298 1.368 . S
C2302 C2301 1.523 . S
H2303 C2278 0.950 . S
H2304 C2280 0.950 . S
H2305 C2281 0.949 . S
H2306 C2283 0.950 . S
H2307 C2285 0.950 . S
C2308 C2309 1.349 . S
C2308 C2310 1.327 . S
C2308 H2333 0.950 . S
C2309 C2308 1.349 . S
C2309 C2325 1.349 . S
C2310 C2308 1.327 . S
C2310 C2329 1.429 . S
C2310 H2334 0.950 . S
C2311 C2328 1.574 . S
C2311 C2330 1.368 . S
C2311 H2335 0.949 . S
H2312 C2316 0.949 . S
C2313 C2314 1.349 . S
C2313 C2315 1.327 . S
C2313 H2336 0.950 . S
C2314 C2313 1.349 . S
C2314 C2326 1.349 . S
C2315 C2313 1.327 . S
C2315 C2331 1.429 . S
C2315 H2337 0.950 . S
C2316 H2312 0.949 . S
C2316 C2324 1.574 . S
C2316 C2332 1.368 . S
H2317 C2325 0.950 . S
H2318 C2323 0.950 . S
H2319 C2324 0.949 . S
H2320 C2326 0.950 . S
H2321 C2327 0.950 . S
H2322 C2328 0.949 . S
C2323 H2318 0.950 . S
C2323 C2325 1.327 . S
C2323 C2329 1.429 . S
C2324 C2316 1.574 . S
C2324 H2319 0.949 . S
C2324 C2330 1.368 . S
C2325 C2309 1.349 . S
C2325 H2317 0.950 . S
C2325 C2323 1.327 . S
C2326 C2314 1.349 . S
C2326 H2320 0.950 . S
C2326 C2327 1.327 . S
C2327 H2321 0.950 . S
C2327 C2326 1.327 . S
C2327 C2331 1.429 . S
C2328 C2311 1.574 . S
C2328 H2322 0.949 . S
C2328 C2332 1.368 . S
C2329 C2310 1.429 . S
C2329 C2323 1.429 . S
C2329 C2330 1.523 . S
C2330 C2311 1.368 . S
C2330 C2324 1.368 . S
C2330 C2329 1.523 . S
C2331 C2315 1.429 . S
C2331 C2327 1.429 . S
C2331 C2332 1.523 . S
C2332 C2316 1.368 . S
C2332 C2328 1.368 . S
C2332 C2331 1.523 . S
H2333 C2308 0.950 . S
H2334 C2310 0.950 . S
H2335 C2311 0.949 . S
H2336 C2313 0.950 . S
H2337 C2315 0.950 . S
C2338 C2339 1.349 . S
C2338 C2340 1.327 1_655 S
C2338 H2363 0.950 . S
C2339 C2338 1.349 . S
C2339 C2355 1.349 . S
C2340 C2338 1.327 1_455 S
C2340 C2359 1.429 . S
C2340 H2364 0.950 . S
C2341 C2358 1.574 . S
C2341 C2360 1.368 . S
C2341 H2365 0.949 . S
H2342 C2346 0.949 . S
C2343 C2344 1.349 . S
C2343 C2345 1.327 . S
C2343 H2366 0.950 . S
C2344 C2343 1.349 . S
C2344 C2356 1.349 . S
C2345 C2343 1.327 . S
C2345 C2361 1.429 . S
C2345 H2367 0.950 . S
C2346 H2342 0.949 . S
C2346 C2354 1.574 . S
C2346 C2362 1.368 . S
H2347 C2355 0.950 . S
H2348 C2353 0.950 . S
H2349 C2354 0.949 . S
H2350 C2356 0.950 . S
H2351 C2357 0.950 . S
H2352 C2358 0.949 . S
C2353 H2348 0.950 . S
C2353 C2355 1.327 1_455 S
C2353 C2359 1.429 . S
C2354 C2346 1.574 . S
C2354 H2349 0.949 . S
C2354 C2360 1.368 . S
C2355 C2339 1.349 . S
C2355 H2347 0.950 . S
C2355 C2353 1.327 1_655 S
C2356 C2344 1.349 . S
C2356 H2350 0.950 . S
C2356 C2357 1.327 . S
C2357 H2351 0.950 . S
C2357 C2356 1.327 . S
C2357 C2361 1.429 . S
C2358 C2341 1.574 . S
C2358 H2352 0.949 . S
C2358 C2362 1.368 . S
C2359 C2340 1.429 . S
C2359 C2353 1.429 . S
C2359 C2360 1.523 . S
C2360 C2341 1.368 . S
C2360 C2354 1.368 . S
C2360 C2359 1.523 . S
C2361 C2345 1.429 . S
C2361 C2357 1.429 . S
C2361 C2362 1.523 . S
C2362 C2346 1.368 . S
C2362 C2358 1.368 . S
C2362 C2361 1.523 . S
H2363 C2338 0.950 . S
H2364 C2340 0.950 . S
H2365 C2341 0.949 . S
H2366 C2343 0.950 . S
H2367 C2345 0.950 . S
C449 C8 1.243 . S
C454 C50 1.251 . S
C479 C36 1.244 . S
C484 C22 1.250 . S
C509 C64 1.243 . S
C514 C106 1.251 . S
C539 C92 1.244 . S
C544 C78 1.250 . S
C569 C120 1.205 . S
C574 C162 1.204 . S
C599 C148 1.204 . S
C604 C134 1.205 . S
C629 C176 1.205 . S
C634 C218 1.204 . S
C659 C190 1.205 . S
C664 C204 1.204 . S
C689 C274 1.204 . S
C694 C232 1.205 . S
C719 C246 1.205 . S
C724 C260 1.204 . S
C749 C288 1.205 . S
C754 C330 1.204 . S
C779 C316 1.204 . S
C784 C302 1.205 . S
C809 C344 1.243 . S
C814 C386 1.251 . S
C839 C372 1.244 . S
C844 C358 1.250 . S
C869 C400 1.243 . S
C874 C442 1.251 . S
C899 C414 1.243 . S
C904 C428 1.251 . S
C929 C174 1.592 . S
C934 C6 1.592 . S
C959 C20 1.592 . S
C964 C300 1.592 . S
C989 C34 1.550 . S
C994 C90 1.549 . S
C1019 C440 1.550 . S
C1024 C48 1.549 . S
C1049 C62 1.592 . S
C1054 C118 1.592 . S
C1079 C244 1.592 . S
C1084 C76 1.592 . S
C1109 C384 1.550 . S
C1114 C104 1.549 . S
C1139 C412 1.592 . S
C1144 C132 1.592 . S
C1169 C202 1.561 . S
C1174 C146 1.561 . S
C1199 C328 1.561 . S
C1204 C160 1.561 . S
C1229 C188 1.592 . S
C1234 C356 1.592 . S
C1259 C272 1.561 . S
C1264 C216 1.561 . S
C1289 C398 1.592 . S
C1294 C230 1.592 . S
C1319 C314 1.561 . S
C1324 C258 1.561 . S
C1349 C342 1.592 . S
C1354 C286 1.592 . S
C1379 C370 1.550 . S
C1384 C426 1.549 . S
C1409 C147 1.304 . S
C1414 C7 1.304 . S
C1439 C21 1.304 . S
C1444 C161 1.304 . S
C1469 C119 1.266 . S
C1474 C35 1.258 . S
C1499 C133 1.266 . S
C1504 C49 1.258 . S
C1529 C63 1.304 . S
C1534 C203 1.304 . S
C1559 C77 1.304 . S
C1564 C217 1.304 . S
C1589 C175 1.266 . S
C1594 C91 1.258 . S
C1619 C105 1.266 . S
C1624 C189 1.258 . S
C1649 C371 1.266 . S
C1654 C231 1.259 . S
C1679 C385 1.266 . S
C1684 C245 1.258 . S
C1709 C259 1.304 . S
C1714 C343 1.304 . S
C1739 C273 1.304 . S
C1744 C357 1.304 . S
C1769 C287 1.266 . S
C1774 C427 1.258 . S
C1799 C301 1.266 . S
C1804 C441 1.258 . S
C1829 C399 1.304 . S
C1834 C315 1.304 . S
C1859 C413 1.304 . S
C1864 C329 1.304 . S
C1889 C9 1.579 . S
C1894 C359 1.579 . S
C1919 C345 1.579 . S
C1924 C23 1.579 . S
C1949 C37 1.559 . S
C1954 C387 1.559 . S
C1979 C51 1.559 . S
C1984 C373 1.559 . S
C2009 C65 1.579 . S
C2014 C415 1.579 . S
C2039 C79 1.579 . S
C2044 C401 1.579 . S
C2069 C443 1.559 . S
C2074 C93 1.559 . S
C2099 C429 1.559 . S
C2104 C107 1.559 . S
C2129 C247 1.578 . S
C2134 C121 1.578 . S
C2159 C233 1.578 . S
C2164 C135 1.578 . S
C2189 C149 1.564 . S
C2194 C275 1.564 . S
C2219 C163 1.564 . S
C2224 C261 1.564 . S
C2249 C303 1.578 . S
C2254 C177 1.578 . S
C2279 C191 1.578 . S
C2284 C289 1.578 . S
C2309 C205 1.564 . S
C2314 C331 1.564 . S
C2339 C219 1.564 . S
C2344 C317 1.564 . S
