# Generated by pormake.
# Topology uki, (4)-cn, num edge types: 1
# Building blocks:
#     Node 0, Type 0, BuildingBlock: KOZSID_clean_sbu_0, # of connection points: 4
#     Node 1, Type 0, BuildingBlock: KOZSID_clean_sbu_0, # of connection points: 4
#     Node 2, Type 0, BuildingBlock: KOZSID_clean_sbu_0, # of connection points: 4
#     Node 3, Type 0, BuildingBlock: KOZSID_clean_sbu_0, # of connection points: 4
#     Node 4, Type 0, BuildingBlock: KOZSID_clean_sbu_0, # of connection points: 4
#     Node 5, Type 0, BuildingBlock: KOZSID_clean_sbu_0, # of connection points: 4
#     Node 6, Type 0, BuildingBlock: KOZSID_clean_sbu_0, # of connection points: 4
#     Node 7, Type 0, BuildingBlock: KOZSID_clean_sbu_0, # of connection points: 4
#     Node 8, Type 0, BuildingBlock: KOZSID_clean_sbu_0, # of connection points: 4
#     Node 9, Type 0, BuildingBlock: KOZSID_clean_sbu_0, # of connection points: 4
#     Node 10, Type 0, BuildingBlock: KOZSID_clean_sbu_0, # of connection points: 4
#     Node 11, Type 0, BuildingBlock: KOZSID_clean_sbu_0, # of connection points: 4
#     Node 12, Type 0, BuildingBlock: KOZSID_clean_sbu_0, # of connection points: 4
#     Node 13, Type 0, BuildingBlock: KOZSID_clean_sbu_0, # of connection points: 4
#     Node 14, Type 0, BuildingBlock: KOZSID_clean_sbu_0, # of connection points: 4
#     Node 15, Type 0, BuildingBlock: KOZSID_clean_sbu_0, # of connection points: 4
#     Edge 16, Type (0, 0), BuildingBlock: OJICUG_clean_linker_0, # of connection points: 2
#     Edge 17, Type (0, 0), BuildingBlock: OJICUG_clean_linker_0, # of connection points: 2
#     Edge 18, Type (0, 0), BuildingBlock: OJICUG_clean_linker_0, # of connection points: 2
#     Edge 19, Type (0, 0), BuildingBlock: OJICUG_clean_linker_0, # of connection points: 2
#     Edge 20, Type (0, 0), BuildingBlock: OJICUG_clean_linker_0, # of connection points: 2
#     Edge 21, Type (0, 0), BuildingBlock: OJICUG_clean_linker_0, # of connection points: 2
#     Edge 22, Type (0, 0), BuildingBlock: OJICUG_clean_linker_0, # of connection points: 2
#     Edge 23, Type (0, 0), BuildingBlock: OJICUG_clean_linker_0, # of connection points: 2
#     Edge 24, Type (0, 0), BuildingBlock: OJICUG_clean_linker_0, # of connection points: 2
#     Edge 25, Type (0, 0), BuildingBlock: OJICUG_clean_linker_0, # of connection points: 2
#     Edge 26, Type (0, 0), BuildingBlock: OJICUG_clean_linker_0, # of connection points: 2
#     Edge 27, Type (0, 0), BuildingBlock: OJICUG_clean_linker_0, # of connection points: 2
#     Edge 28, Type (0, 0), BuildingBlock: OJICUG_clean_linker_0, # of connection points: 2
#     Edge 29, Type (0, 0), BuildingBlock: OJICUG_clean_linker_0, # of connection points: 2
#     Edge 30, Type (0, 0), BuildingBlock: OJICUG_clean_linker_0, # of connection points: 2
#     Edge 31, Type (0, 0), BuildingBlock: OJICUG_clean_linker_0, # of connection points: 2
#     Edge 32, Type (0, 0), BuildingBlock: OJICUG_clean_linker_0, # of connection points: 2
#     Edge 33, Type (0, 0), BuildingBlock: OJICUG_clean_linker_0, # of connection points: 2
#     Edge 34, Type (0, 0), BuildingBlock: OJICUG_clean_linker_0, # of connection points: 2
#     Edge 35, Type (0, 0), BuildingBlock: OJICUG_clean_linker_0, # of connection points: 2
#     Edge 36, Type (0, 0), BuildingBlock: OJICUG_clean_linker_0, # of connection points: 2
#     Edge 37, Type (0, 0), BuildingBlock: OJICUG_clean_linker_0, # of connection points: 2
#     Edge 38, Type (0, 0), BuildingBlock: OJICUG_clean_linker_0, # of connection points: 2
#     Edge 39, Type (0, 0), BuildingBlock: OJICUG_clean_linker_0, # of connection points: 2
#     Edge 40, Type (0, 0), BuildingBlock: OJICUG_clean_linker_0, # of connection points: 2
#     Edge 41, Type (0, 0), BuildingBlock: OJICUG_clean_linker_0, # of connection points: 2
#     Edge 42, Type (0, 0), BuildingBlock: OJICUG_clean_linker_0, # of connection points: 2
#     Edge 43, Type (0, 0), BuildingBlock: OJICUG_clean_linker_0, # of connection points: 2
#     Edge 44, Type (0, 0), BuildingBlock: OJICUG_clean_linker_0, # of connection points: 2
#     Edge 45, Type (0, 0), BuildingBlock: OJICUG_clean_linker_0, # of connection points: 2
#     Edge 46, Type (0, 0), BuildingBlock: OJICUG_clean_linker_0, # of connection points: 2
#     Edge 47, Type (0, 0), BuildingBlock: OJICUG_clean_linker_0, # of connection points: 2
# Relax obj value: 0.126
# Max RMSD: 0.238
# Mean RMSD: 0.238
data_MOF--net-uki--node1-KOZSID_clean_sbu_0--edge1-OJICUG_clean_linker_0
_symmetry_space_group_name_H-M    P1
_symmetry_Int_Tables_number       1
_symmetry_cell_setting            triclinic
loop_
_symmetry_equiv_pos_as_xyz
'x, y, z'
_cell_length_a     29.293474
_cell_length_b     29.295536
_cell_length_c     66.624507
_cell_angle_alpha  90.000248
_cell_angle_beta   90.005253
_cell_angle_gamma 90.001041
loop_
_atom_site_label
_atom_site_type_symbol
_atom_site_fract_x
_atom_site_fract_y
_atom_site_fract_z
_atom_type_partial_charge
C0 C 0.21212 0.22521 0.33415 0.0
C1 C 0.25539 0.2113 0.32823 0.0
C2 C 0.25615 0.21293 0.30771 0.0
C3 C 0.21353 0.22774 0.30221 0.0
N4 N 0.18555 0.23507 0.31793 0.0
Co5 Co 0.12152 0.25859 0.31626 0.0
N6 N 0.1182 0.24789 0.28665 0.0
C7 C 0.15407 0.23942 0.27455 0.0
C8 C 0.14237 0.23572 0.25468 0.0
C9 C 0.09626 0.24303 0.25408 0.0
C10 C 0.08243 0.25088 0.2737 0.0
N11 N 0.05726 0.28149 0.3148 0.0
C12 C 0.02619 0.27942 0.29968 0.0
C13 C 0.98511 0.29942 0.30531 0.0
C14 C 0.99083 0.31526 0.32441 0.0
C15 C 0.03479 0.30405 0.32939 0.0
N16 N 0.12498 0.27016 0.34578 0.0
C17 C 0.09475 0.29437 0.35672 0.0
C18 C 0.10486 0.29581 0.37678 0.0
C19 C 0.1443 0.27146 0.37873 0.0
C20 C 0.15641 0.25693 0.3596 0.0
N21 N 0.14508 0.32052 0.31078 0.0
C22 C 0.18767 0.3999 0.29606 0.0
C23 C 0.14467 0.38647 0.28908 0.0
C24 C 0.12419 0.34696 0.29655 0.0
C25 C 0.20757 0.37442 0.31159 0.0
C26 C 0.1853 0.33541 0.319 0.0
N27 N 0.09836 0.19639 0.32111 0.0
C28 C 0.04513 0.14424 0.33673 0.0
C29 C 0.0607 0.10822 0.32464 0.0
C30 C 0.0967 0.11707 0.31138 0.0
C31 C 0.1151 0.16095 0.30995 0.0
C32 C 0.06424 0.18803 0.33468 0.0
H33 H 0.14237 0.16618 0.29942 0.0
H34 H 0.05063 0.21521 0.34375 0.0
H35 H 0.09245 0.33684 0.2899 0.0
H36 H 0.20171 0.31639 0.3308 0.0
C37 C 0.19739 0.23143 0.28256 0.0
C38 C 0.19981 0.23396 0.3552 0.0
C39 C 0.03605 0.26558 0.27896 0.0
C40 C 0.0543 0.30997 0.34823 0.0
H41 H 0.28387 0.20217 0.33776 0.0
H42 H 0.28435 0.20408 0.29796 0.0
H43 H 0.16462 0.22829 0.24212 0.0
H44 H 0.07531 0.24365 0.2407 0.0
H45 H 0.95462 0.30348 0.29631 0.0
H46 H 0.96575 0.33249 0.33363 0.0
H47 H 0.08518 0.31152 0.38867 0.0
H48 H 0.16234 0.2655 0.39266 0.0
H49 H 0.12789 0.40493 0.27708 0.0
H50 H 0.24044 0.38406 0.31771 0.0
H51 H 1.01732 0.13907 0.3472 0.0
H52 H 0.1105 0.09022 0.30199 0.0
C53 C 0.27922 1.0102 0.72444 0.0
C54 C 0.29914 0.05133 0.71882 0.0
C55 C 0.31496 0.04569 0.69971 0.0
C56 C 0.3038 1.00173 0.69471 0.0
N57 N 0.28131 0.97918 0.7093 0.0
Co58 Co 0.25851 0.91487 0.7078 0.0
N59 N 0.27022 0.91145 0.67829 0.0
C60 C 0.29437 0.94175 0.66737 0.0
C61 C 0.29595 0.93165 0.64731 0.0
C62 C 0.27174 0.89213 0.64534 0.0
C63 C 0.25714 0.87998 0.66445 0.0
N64 N 0.23509 0.85081 0.7061 0.0
C65 C 0.22534 0.82423 0.68987 0.0
C66 C 0.21143 0.78096 0.69577 0.0
C67 C 0.21293 0.78019 0.71629 0.0
C68 C 0.22768 0.82282 0.72181 0.0
N69 N 0.2477 0.91816 0.73741 0.0
C70 C 0.23919 0.88226 0.7495 0.0
C71 C 0.23545 0.89392 0.76937 0.0
C72 C 0.24281 0.94002 0.76998 0.0
C73 C 0.2507 0.9539 0.75038 0.0
N74 N 0.19627 0.93794 0.7029 0.0
C75 C 0.108 0.97543 0.69934 0.0
C76 C 0.1169 0.93942 0.71259 0.0
C77 C 0.16082 0.92111 0.71404 0.0
C78 C 0.14403 0.99109 0.68727 0.0
C79 C 0.18787 0.97206 0.68934 0.0
N80 N 0.32047 0.89139 0.71334 0.0
C81 C 0.3743 0.82881 0.71271 0.0
C82 C 0.39966 0.84875 0.72828 0.0
C83 C 0.38624 0.89182 0.73516 0.0
C84 C 0.34683 0.91232 0.72759 0.0
C85 C 0.3354 0.85111 0.70519 0.0
H86 H 0.33672 0.94412 0.73418 0.0
H87 H 0.31648 0.83466 0.69338 0.0
H88 H 0.16607 0.89384 0.72456 0.0
H89 H 0.21505 0.98573 0.68028 0.0
C90 C 0.30981 0.98225 0.67587 0.0
C91 C 0.26546 1.00028 0.74516 0.0
C92 C 0.2342 0.83655 0.66882 0.0
C93 C 0.23125 0.83896 0.74146 0.0
H94 H 0.30319 0.0818 0.72783 0.0
H95 H 0.33216 0.07081 0.6905 0.0
H96 H 0.31165 0.95139 0.63543 0.0
H97 H 0.26588 0.87409 0.6314 0.0
H98 H 0.20237 0.75247 0.68623 0.0
H99 H 0.20404 0.75199 0.72603 0.0
H100 H 0.228 0.87164 0.78191 0.0
H101 H 0.24343 0.96093 0.78338 0.0
H102 H 0.09005 0.92555 0.72197 0.0
H103 H 0.13882 0.0189 0.67681 0.0
H104 H 0.38394 0.7959 0.70665 0.0
H105 H 0.40461 0.90865 0.74718 0.0
C106 C 0.82432 0.81101 0.33424 0.0
C107 C 0.78104 0.8249 0.32833 0.0
C108 C 0.78026 0.82331 0.30781 0.0
C109 C 0.82288 0.80853 0.3023 0.0
N110 N 0.85089 0.8012 0.31802 0.0
Co111 Co 0.91493 0.77772 0.31633 0.0
N112 N 0.91819 0.78843 0.28672 0.0
C113 C 0.88229 0.79689 0.27462 0.0
C114 C 0.89396 0.80061 0.25475 0.0
C115 C 0.94006 0.7933 0.25414 0.0
C116 C 0.95394 0.78545 0.27375 0.0
N117 N 0.9792 0.75485 0.31484 0.0
C118 C 1.01023 0.75693 0.29971 0.0
C119 C 0.05134 0.73697 0.30533 0.0
C120 C 0.04568 0.72113 0.32443 0.0
C121 C 1.00172 0.73231 0.32943 0.0
N122 N 0.91153 0.76613 0.34585 0.0
C123 C 0.94181 0.74196 0.35678 0.0
C124 C 0.93173 0.7405 0.37684 0.0
C125 C 0.89226 0.76479 0.3788 0.0
C126 C 0.8801 0.77932 0.35968 0.0
N127 N 0.89139 0.71577 0.31085 0.0
C128 C 0.84879 0.63641 0.29611 0.0
C129 C 0.89178 0.64985 0.28914 0.0
C130 C 0.91226 0.68936 0.2966 0.0
C131 C 0.82891 0.66187 0.31165 0.0
C132 C 0.85119 0.70086 0.31908 0.0
N133 N 0.93807 0.83992 0.32117 0.0
C134 C 0.99133 0.89209 0.33677 0.0
C135 C 0.97572 0.9281 0.32468 0.0
C136 C 0.93968 0.91925 0.31143 0.0
C137 C 0.92129 0.87536 0.31002 0.0
C138 C 0.97222 0.8483 0.33472 0.0
H139 H 0.89399 0.87012 0.2995 0.0
H140 H 0.98586 0.82112 0.3438 0.0
H141 H 0.94399 0.69948 0.28996 0.0
H142 H 0.83479 0.71986 0.33088 0.0
C143 C 0.83899 0.80487 0.28264 0.0
C144 C 0.83666 0.80221 0.35529 0.0
C145 C 1.00033 0.77076 0.27899 0.0
C146 C 0.98225 0.72639 0.34828 0.0
H147 H 0.75256 0.83399 0.33787 0.0
H148 H 0.75203 0.83215 0.29807 0.0
H149 H 0.87168 0.80803 0.2422 0.0
H150 H 0.96098 0.79269 0.24075 0.0
H151 H 0.08182 0.73292 0.29633 0.0
H152 H 0.07079 0.70392 0.33365 0.0
H153 H 0.95145 0.7248 0.38873 0.0
H154 H 0.87423 0.77072 0.39274 0.0
H155 H 0.90854 0.6314 0.27712 0.0
H156 H 0.79605 0.65221 0.31778 0.0
H157 H 0.01917 0.89728 0.34722 0.0
H158 H 0.92586 0.94609 0.30204 0.0
C159 C 0.75638 0.02531 0.72447 0.0
C160 C 0.73642 0.9842 0.71884 0.0
C161 C 0.7206 0.98986 0.69974 0.0
C162 C 0.7318 0.03382 0.69474 0.0
N163 N 0.75431 0.05634 0.70933 0.0
Co164 Co 0.77715 0.12063 0.70784 0.0
N165 N 0.76545 0.12408 0.67833 0.0
C166 C 0.74126 0.0938 0.66741 0.0
C167 C 0.7397 0.10392 0.64734 0.0
C168 C 0.76395 0.14341 0.64538 0.0
C169 C 0.77856 0.15554 0.6645 0.0
N170 N 0.80061 0.18468 0.70615 0.0
C171 C 0.81041 0.21125 0.68992 0.0
C172 C 0.82435 0.25451 0.69583 0.0
C173 C 0.82283 0.25527 0.71635 0.0
C174 C 0.80803 0.21266 0.72186 0.0
N175 N 0.78796 0.11733 0.73745 0.0
C176 C 0.79649 0.15321 0.74954 0.0
C177 C 0.80022 0.14154 0.76942 0.0
C178 C 0.79284 0.09545 0.77003 0.0
C179 C 0.78494 0.08158 0.75042 0.0
N180 N 0.83938 0.09753 0.70295 0.0
C181 C 0.92763 0.06001 0.69936 0.0
C182 C 0.91876 0.096 0.71263 0.0
C183 C 0.87484 0.11432 0.71409 0.0
C184 C 0.89159 0.04438 0.68729 0.0
C185 C 0.84776 0.06342 0.68938 0.0
N186 N 0.71521 0.14415 0.71338 0.0
C187 C 0.6614 0.20674 0.71274 0.0
C188 C 0.63601 0.18681 0.72829 0.0
C189 C 0.64942 0.14373 0.73518 0.0
C190 C 0.68883 0.12322 0.72762 0.0
C191 C 0.7003 0.18444 0.70523 0.0
H192 H 0.69892 0.09143 0.73421 0.0
H193 H 0.71925 0.20089 0.69342 0.0
H194 H 0.8696 0.14158 0.72462 0.0
H195 H 0.82057 0.04977 0.68031 0.0
C196 C 0.72579 0.05331 0.6759 0.0
C197 C 0.77014 0.03521 0.74519 0.0
C198 C 0.80157 0.19893 0.66887 0.0
C199 C 0.80446 0.19651 0.74152 0.0
H200 H 0.73236 0.95373 0.72785 0.0
H201 H 0.70339 0.96476 0.69052 0.0
H202 H 0.72398 0.0842 0.63547 0.0
H203 H 0.76983 0.16145 0.63144 0.0
H204 H 0.83345 0.28298 0.68629 0.0
H205 H 0.83174 0.28347 0.72609 0.0
H206 H 0.80768 0.16381 0.78196 0.0
H207 H 0.7922 0.07453 0.78342 0.0
H208 H 0.94561 0.10985 0.72201 0.0
H209 H 0.89678 1.01658 0.67682 0.0
H210 H 0.65177 0.23966 0.70667 0.0
H211 H 0.63103 0.12691 0.74719 0.0
C212 C 0.21175 0.31104 0.94017 0.0
C213 C 0.25503 0.32494 0.94607 0.0
C214 C 0.25583 0.32336 0.96659 0.0
C215 C 0.21321 0.30858 0.9721 0.0
N216 N 0.18519 0.30123 0.95639 0.0
Co217 Co 0.12115 0.27774 0.95809 0.0
N218 N 0.11791 0.28846 0.9877 0.0
C219 C 0.15382 0.29694 0.99979 0.0
C220 C 0.14216 0.30066 0.01967 0.0
C221 C 0.09606 0.29333 0.02028 0.0
C222 C 0.08217 0.28548 1.00067 0.0
N223 N 0.05689 0.25486 0.95959 0.0
C224 C 0.02586 0.25695 0.97472 0.0
C225 C 0.98475 0.23698 0.96911 0.0
C226 C 0.9904 0.22113 0.95 0.0
C227 C 0.03436 0.23233 0.945 0.0
N228 N 0.12454 0.26614 0.92857 0.0
C229 C 0.09425 0.24197 0.91765 0.0
C230 C 0.10432 0.2405 0.89758 0.0
C231 C 0.14379 0.2648 0.89561 0.0
C232 C 0.15595 0.27933 0.91474 0.0
N233 N 0.14471 0.2158 0.96357 0.0
C234 C 0.18732 0.13645 0.97831 0.0
C235 C 0.14433 0.14989 0.98529 0.0
C236 C 0.12384 0.18939 0.97782 0.0
C237 C 0.20719 0.16191 0.96277 0.0
C238 C 0.18491 0.20089 0.95534 0.0
N239 N 0.09801 0.33994 0.95324 0.0
C240 C 0.04474 0.3921 0.93765 0.0
C241 C 0.06035 0.42812 0.94973 0.0
C242 C 0.0964 0.41928 0.96298 0.0
C243 C 0.11479 0.37539 0.9644 0.0
C244 C 0.06385 0.34831 0.9397 0.0
H245 H 0.14209 0.37015 0.97491 0.0
H246 H 0.05021 0.32113 0.93063 0.0
H247 H 0.09212 0.19951 0.98447 0.0
H248 H 0.2013 0.2199 0.94354 0.0
C249 C 0.19711 0.30492 0.99176 0.0
C250 C 0.1994 0.30223 0.91912 0.0
C251 C 0.03578 0.27077 0.99544 0.0
C252 C 0.05381 0.2264 0.92615 0.0
H253 H 0.2835 0.33403 0.93652 0.0
H254 H 0.28406 0.33221 0.97633 0.0
H255 H 0.16445 0.30809 0.03221 0.0
H256 H 0.07515 0.29272 0.03367 0.0
H257 H 0.95428 0.23293 0.97812 0.0
H258 H 0.96529 0.20393 0.94079 0.0
H259 H 0.08459 0.2248 0.8857 0.0
H260 H 0.16181 0.27073 0.88168 0.0
H261 H 0.12758 0.13144 0.9973 0.0
H262 H 0.24005 0.15226 0.95664 0.0
H263 H 1.0169 0.39728 0.9272 0.0
H264 H 0.11022 0.44612 0.97236 0.0
C265 C 0.25674 1.01043 0.04997 0.0
C266 C 0.23672 0.05152 0.05558 0.0
C267 C 0.22079 0.04584 0.07466 0.0
C268 C 0.23197 1.00188 0.07967 0.0
N269 N 0.25459 0.97939 0.0651 0.0
Co270 Co 0.27744 0.91513 0.06659 0.0
N271 N 0.2658 0.91173 0.0961 0.0
C272 C 0.24155 0.94196 0.10701 0.0
C273 C 0.24011 0.93191 0.12708 0.0
C274 C 0.26452 0.89251 0.12906 0.0
C275 C 0.27909 0.88037 0.10994 0.0
N276 N 0.30091 0.8511 0.06828 0.0
C277 C 0.31082 0.8246 0.08451 0.0
C278 C 0.32473 0.78132 0.07862 0.0
C279 C 0.32306 0.78048 0.05809 0.0
C280 C 0.30822 0.82307 0.05257 0.0
N281 N 0.28822 0.91838 0.03698 0.0
C282 C 0.29666 0.88249 0.02489 0.0
C283 C 0.30044 0.89416 1.00502 0.0
C284 C 0.2932 0.94028 1.00442 0.0
C285 C 0.28532 0.95415 0.02403 0.0
N286 N 0.33965 0.93825 0.07146 0.0
C287 C 0.42786 0.97582 0.07503 0.0
C288 C 0.41901 0.93979 0.06177 0.0
C289 C 0.37511 0.92144 0.06033 0.0
C290 C 0.39182 0.99145 0.08709 0.0
C291 C 0.34801 0.97239 0.08502 0.0
N292 N 0.2155 0.8916 0.06108 0.0
C293 C 0.16156 0.82914 0.06188 0.0
C294 C 0.13612 0.84902 0.04633 0.0
C295 C 0.1496 0.892 0.03935 0.0
C296 C 0.18911 0.91247 0.04682 0.0
C297 C 0.20056 0.8514 0.06931 0.0
H298 H 0.19927 0.94419 0.04017 0.0
H299 H 0.21955 0.83501 0.08112 0.0
H300 H 0.36987 0.89416 0.0498 0.0
H301 H 0.32082 0.98604 0.09407 0.0
C302 C 0.22597 0.9824 0.0985 0.0
C303 C 0.27066 1.00054 0.02926 0.0
C304 C 0.30214 0.83701 0.10556 0.0
C305 C 0.30459 0.83918 0.03291 0.0
H306 H 0.23271 0.08201 0.04657 0.0
H307 H 0.20353 0.07093 0.08386 0.0
H308 H 0.22439 0.95162 0.13896 0.0
H309 H 0.27052 0.87454 0.143 0.0
H310 H 0.33391 0.75288 0.08816 0.0
H311 H 0.33193 0.75226 0.04836 0.0
H312 H 0.30787 0.87188 0.99248 0.0
H313 H 0.29265 0.96121 0.99103 0.0
H314 H 0.44587 0.92595 0.0524 0.0
H315 H 0.39701 0.01928 0.09755 0.0
H316 H 0.15188 0.7963 0.06801 0.0
H317 H 0.13118 0.90876 0.02732 0.0
C318 C 0.82396 0.72525 0.94024 0.0
C319 C 0.7807 0.71135 0.94616 0.0
C320 C 0.77995 0.71297 0.96669 0.0
C321 C 0.82257 0.72778 0.97218 0.0
N322 N 0.85055 0.73511 0.95645 0.0
Co323 Co 0.91458 0.75862 0.95811 0.0
N324 N 0.91791 0.74794 0.98772 0.0
C325 C 0.88205 0.73948 0.99983 0.0
C326 C 0.89376 0.73578 0.0197 0.0
C327 C 0.93987 0.74311 0.02029 0.0
C328 C 0.95369 0.75094 1.00067 0.0
N329 N 0.97884 0.78152 0.95957 0.0
C330 C 1.00992 0.77946 0.97469 0.0
C331 C 0.051 0.79945 0.96905 0.0
C332 C 0.04528 0.81528 0.94995 0.0
C333 C 1.00131 0.80406 0.94497 0.0
N334 N 0.9111 0.77019 0.92859 0.0
C335 C 0.94134 0.79437 0.91765 0.0
C336 C 0.93121 0.79582 0.89758 0.0
C337 C 0.89175 0.77149 0.89564 0.0
C338 C 0.87966 0.75696 0.91478 0.0
N339 N 0.89103 0.82056 0.96359 0.0
C340 C 0.84844 0.89993 0.97833 0.0
C341 C 0.89146 0.88651 0.98529 0.0
C342 C 0.91193 0.847 0.97782 0.0
C343 C 0.82853 0.87444 0.9628 0.0
C344 C 0.8508 0.83545 0.95538 0.0
N345 N 0.93773 0.69642 0.95326 0.0
C346 C 0.99095 0.64426 0.93765 0.0
C347 C 0.97539 0.60825 0.94975 0.0
C348 C 0.93939 0.6171 0.96301 0.0
C349 C 0.92099 0.66099 0.96443 0.0
C350 C 0.97184 0.68805 0.9397 0.0
H351 H 0.89373 0.66623 0.97497 0.0
H352 H 0.98545 0.71523 0.93062 0.0
H353 H 0.94368 0.8369 0.98446 0.0
H354 H 0.83437 0.81642 0.94359 0.0
C355 C 0.83873 0.73147 0.99183 0.0
C356 C 0.83625 0.73401 0.91919 0.0
C357 C 1.00007 0.76565 0.99541 0.0
C358 C 0.9818 0.80997 0.92613 0.0
H359 H 0.75221 0.70221 0.93664 0.0
H360 H 0.75175 0.70413 0.97644 0.0
H361 H 0.87151 0.72837 0.03226 0.0
H362 H 0.96082 0.74374 0.03367 0.0
H363 H 0.0815 0.80352 0.97804 0.0
H364 H 0.07036 0.83249 0.94072 0.0
H365 H 0.95089 0.81152 0.88569 0.0
H366 H 0.8737 0.76553 0.88172 0.0
H367 H 0.90824 0.90498 0.99729 0.0
H368 H 0.79565 0.88408 0.95669 0.0
H369 H 0.01876 0.63908 0.92718 0.0
H370 H 0.9256 0.59026 0.97241 0.0
C371 C 0.77919 0.02599 0.05 0.0
C372 C 0.79921 0.9849 0.0556 0.0
C373 C 0.81515 0.99057 0.07469 0.0
C374 C 0.80397 0.03453 0.07969 0.0
N375 N 0.78135 0.05703 0.06512 0.0
Co376 Co 0.7585 0.12129 0.06662 0.0
N377 N 0.77014 0.12467 0.09613 0.0
C378 C 0.79439 0.09443 0.10705 0.0
C379 C 0.79584 0.10447 0.12712 0.0
C380 C 0.77144 0.14388 0.12909 0.0
C381 C 0.75688 0.15603 0.10997 0.0
N382 N 0.73505 0.18532 0.06832 0.0
C383 C 0.72515 0.21182 0.08455 0.0
C384 C 0.71125 0.25511 0.07866 0.0
C385 C 0.71291 0.25595 0.05814 0.0
C386 C 0.72774 0.21336 0.05262 0.0
N387 N 0.74772 0.11805 0.03702 0.0
C388 C 0.73929 0.15396 0.02493 0.0
C389 C 0.73549 0.14229 1.00505 0.0
C390 C 0.74272 0.09617 1.00445 0.0
C391 C 0.7506 0.08229 0.02406 0.0
N392 N 0.69629 0.09818 0.07149 0.0
C393 C 0.60808 0.06061 0.07504 0.0
C394 C 0.61693 0.09665 0.06179 0.0
C395 C 0.66083 0.11499 0.06036 0.0
C396 C 0.64412 0.04496 0.08711 0.0
C397 C 0.68793 0.06403 0.08504 0.0
N398 N 0.82045 0.14481 0.06112 0.0
C399 C 0.8744 0.20726 0.06193 0.0
C400 C 0.89983 0.1874 0.04638 0.0
C401 C 0.88634 0.14443 0.03939 0.0
C402 C 0.84683 0.12395 0.04686 0.0
C403 C 0.83539 0.185 0.06936 0.0
H404 H 0.83667 0.09224 0.04021 0.0
H405 H 0.81641 0.20139 0.08117 0.0
H406 H 0.66608 0.14229 0.04984 0.0
H407 H 0.71512 0.05036 0.0941 0.0
C408 C 0.80997 0.054 0.09853 0.0
C409 C 0.76525 0.03589 0.02929 0.0
C410 C 0.73385 0.19941 0.10559 0.0
C411 C 0.73137 0.19726 0.03295 0.0
H412 H 0.80322 0.95442 0.04659 0.0
H413 H 0.83241 0.96548 0.08389 0.0
H414 H 0.81156 0.08475 0.139 0.0
H415 H 0.76545 0.16185 0.14304 0.0
H416 H 0.70208 0.28355 0.08821 0.0
H417 H 0.70405 0.28418 0.04841 0.0
H418 H 0.72807 0.16457 0.99251 0.0
H419 H 0.74325 0.07524 0.99106 0.0
H420 H 0.59007 0.1105 0.05242 0.0
H421 H 0.63893 1.01713 0.09756 0.0
H422 H 0.88408 0.2401 0.06807 0.0
H423 H 0.90475 0.12767 0.02736 0.0
C424 C 0.71107 0.72538 0.83485 0.0
C425 C 0.75437 0.71152 0.82897 0.0
C426 C 0.7552 0.71305 0.80845 0.0
C427 C 0.71258 0.72778 0.80291 0.0
N428 N 0.68453 0.73514 0.81861 0.0
Co429 Co 0.62047 0.75853 0.81687 0.0
N430 N 0.61725 0.74765 0.78728 0.0
C431 C 0.65317 0.73916 0.7752 0.0
C432 C 0.64153 0.73535 0.75533 0.0
C433 C 0.59543 0.74263 0.7547 0.0
C434 C 0.58152 0.75056 0.7743 0.0
N435 N 0.55616 0.7813 0.81535 0.0
C436 C 0.52515 0.77912 0.80021 0.0
C437 C 0.48401 0.79904 0.8058 0.0
C438 C 0.48962 0.81495 0.8249 0.0
C439 C 0.53359 0.80384 0.82992 0.0
N440 N 0.62384 0.7703 0.84638 0.0
C441 C 0.59352 0.79449 0.85728 0.0
C442 C 0.60358 0.79607 0.87735 0.0
C443 C 0.64306 0.77181 0.87934 0.0
C444 C 0.65525 0.75719 0.86024 0.0
N445 N 0.64395 0.82049 0.81132 0.0
C446 C 0.68657 0.89967 0.79636 0.0
C447 C 0.64351 0.88621 0.78947 0.0
C448 C 0.62302 0.8468 0.79705 0.0
C449 C 0.7065 0.87435 0.81194 0.0
C450 C 0.68421 0.83546 0.81947 0.0
N451 N 0.59742 0.6963 0.82179 0.0
C452 C 0.54429 0.64405 0.83743 0.0
C453 C 0.56 0.60801 0.82539 0.0
C454 C 0.59603 0.6169 0.81214 0.0
C455 C 0.6143 0.66083 0.81068 0.0
C456 C 0.56328 0.6879 0.83534 0.0
H457 H 0.64158 0.66608 0.80016 0.0
H458 H 0.54957 0.71509 0.84439 0.0
H459 H 0.59124 0.83666 0.79045 0.0
H460 H 0.70065 0.81656 0.8313 0.0
C461 C 0.69648 0.7313 0.78325 0.0
C462 C 0.69865 0.73418 0.85589 0.0
C463 C 0.53511 0.7653 0.7795 0.0
C464 C 0.55304 0.80992 0.84876 0.0
H465 H 0.78283 0.70247 0.83853 0.0
H466 H 0.78345 0.70419 0.79873 0.0
H467 H 0.66384 0.7279 0.7428 0.0
H468 H 0.57453 0.74318 0.7413 0.0
H469 H 0.45354 0.80302 0.79678 0.0
H470 H 0.46448 0.83216 0.83409 0.0
H471 H 0.58382 0.81179 0.88921 0.0
H472 H 0.66106 0.76593 0.89329 0.0
H473 H 0.62669 0.90454 0.77744 0.0
H474 H 0.73939 0.88403 0.81802 0.0
H475 H 0.51646 0.63884 0.84789 0.0
H476 H 0.60993 0.59005 0.80278 0.0
C477 C 0.77939 0.51037 0.22445 0.0
C478 C 0.79942 0.55145 0.21884 0.0
C479 C 0.81534 0.54576 0.19975 0.0
C480 C 0.80414 0.50181 0.19475 0.0
N481 N 0.78152 0.47932 0.20933 0.0
Co482 Co 0.75864 0.41507 0.20784 0.0
N483 N 0.77026 0.41167 0.17832 0.0
C484 C 0.79451 0.4419 0.16741 0.0
C485 C 0.79594 0.43184 0.14734 0.0
C486 C 0.77152 0.39245 0.14537 0.0
C487 C 0.75697 0.38031 0.16449 0.0
N488 N 0.73515 0.35105 0.20615 0.0
C489 C 0.72523 0.32455 0.18992 0.0
C490 C 0.71131 0.28127 0.19582 0.0
C491 C 0.71298 0.28044 0.21634 0.0
C492 C 0.72784 0.32302 0.22186 0.0
N493 N 0.74789 0.41833 0.23744 0.0
C494 C 0.73945 0.38244 0.24954 0.0
C495 C 0.73567 0.39412 0.26941 0.0
C496 C 0.74293 0.44023 0.27001 0.0
C497 C 0.7508 0.45409 0.2504 0.0
N498 N 0.69644 0.43821 0.20297 0.0
C499 C 0.60824 0.4758 0.19941 0.0
C500 C 0.61708 0.43978 0.21267 0.0
C501 C 0.66098 0.42142 0.21411 0.0
C502 C 0.64428 0.49143 0.18734 0.0
C503 C 0.68808 0.47235 0.18941 0.0
N504 N 0.82058 0.39152 0.21333 0.0
C505 C 0.87452 0.32907 0.21252 0.0
C506 C 0.89998 0.34894 0.22806 0.0
C507 C 0.8865 0.39191 0.23505 0.0
C508 C 0.84699 0.41239 0.22759 0.0
C509 C 0.83551 0.35133 0.2051 0.0
H510 H 0.83684 0.4441 0.23424 0.0
H511 H 0.8165 0.33494 0.19329 0.0
H512 H 0.66622 0.39414 0.22464 0.0
H513 H 0.71528 0.48599 0.18035 0.0
C514 C 0.81012 0.48232 0.17591 0.0
C515 C 0.76547 0.50049 0.24516 0.0
C516 C 0.73391 0.33695 0.16887 0.0
C517 C 0.7315 0.33913 0.24151 0.0
H518 H 0.80345 0.58194 0.22784 0.0
H519 H 0.83261 0.57084 0.19055 0.0
H520 H 0.81167 0.45154 0.13546 0.0
H521 H 0.76551 0.37447 0.13142 0.0
H522 H 0.70212 0.25283 0.18627 0.0
H523 H 0.70412 0.25221 0.22607 0.0
H524 H 0.72824 0.37184 0.28195 0.0
H525 H 0.74349 0.46116 0.28339 0.0
H526 H 0.59022 0.42595 0.22204 0.0
H527 H 0.6391 0.51925 0.17688 0.0
H528 H 0.88419 0.29623 0.20638 0.0
H529 H 0.90494 0.40867 0.24707 0.0
C530 C 0.32451 0.31029 0.83476 0.0
C531 C 0.28121 0.32417 0.82887 0.0
C532 C 0.28039 0.32259 0.80835 0.0
C533 C 0.323 0.30783 0.80282 0.0
N534 N 0.35103 0.30048 0.81853 0.0
Co535 Co 0.41509 0.27705 0.81681 0.0
N536 N 0.41834 0.28793 0.78721 0.0
C537 C 0.38244 0.2964 0.77513 0.0
C538 C 0.39409 0.3002 0.75526 0.0
C539 C 0.4402 0.29292 0.75464 0.0
C540 C 0.45409 0.285 0.77425 0.0
N541 N 0.47938 0.25426 0.81531 0.0
C542 C 0.51042 0.25642 0.80018 0.0
C543 C 0.55154 0.23647 0.80578 0.0
C544 C 0.54589 0.22056 0.82488 0.0
C545 C 0.50192 0.23169 0.82988 0.0
N546 N 0.41168 0.2653 0.84632 0.0
C547 C 0.44196 0.24107 0.85722 0.0
C548 C 0.43189 0.23952 0.87729 0.0
C549 C 0.39243 0.26383 0.87928 0.0
C550 C 0.38028 0.27846 0.86016 0.0
N551 N 0.39159 0.2151 0.81125 0.0
C552 C 0.34896 0.1359 0.79631 0.0
C553 C 0.39203 0.14936 0.78942 0.0
C554 C 0.41252 0.18877 0.79699 0.0
C555 C 0.32903 0.16125 0.81188 0.0
C556 C 0.35131 0.20016 0.8194 0.0
N557 N 0.43816 0.33928 0.82173 0.0
C558 C 0.49127 0.39151 0.8374 0.0
C559 C 0.47558 0.42756 0.82535 0.0
C560 C 0.43958 0.41868 0.81209 0.0
C561 C 0.42131 0.37475 0.81061 0.0
C562 C 0.47228 0.34767 0.8353 0.0
H563 H 0.39404 0.3695 0.80008 0.0
H564 H 0.48597 0.32047 0.84434 0.0
H565 H 0.4443 0.19891 0.7904 0.0
H566 H 0.33487 0.21908 0.83122 0.0
C567 C 0.33912 0.30428 0.78316 0.0
C568 C 0.33692 0.30154 0.8558 0.0
C569 C 0.50048 0.27026 0.77947 0.0
C570 C 0.48244 0.22561 0.84871 0.0
H571 H 0.25276 0.33326 0.83842 0.0
H572 H 0.25215 0.33146 0.79862 0.0
H573 H 0.3718 0.30764 0.74272 0.0
H574 H 0.46111 0.29235 0.74125 0.0
H575 H 0.58202 0.23247 0.79677 0.0
H576 H 0.57101 0.20332 0.83408 0.0
H577 H 0.45162 0.22379 0.88916 0.0
H578 H 0.37445 0.26975 0.89322 0.0
H579 H 0.40885 0.13101 0.7774 0.0
H580 H 0.29613 0.15158 0.81795 0.0
H581 H 0.51907 0.39672 0.84787 0.0
H582 H 0.4257 0.44553 0.80272 0.0
C583 C 0.25694 0.52602 0.22442 0.0
C584 C 0.23693 0.48493 0.21881 0.0
C585 C 0.22099 0.49062 0.19972 0.0
C586 C 0.23217 0.53458 0.19472 0.0
N587 N 0.25478 0.55707 0.20929 0.0
Co588 Co 0.27763 0.62133 0.20781 0.0
N589 N 0.26599 0.62473 0.17829 0.0
C590 C 0.24175 0.59449 0.16737 0.0
C591 C 0.2403 0.60454 0.1473 0.0
C592 C 0.2647 0.64395 0.14533 0.0
C593 C 0.27926 0.6561 0.16446 0.0
N594 N 0.30109 0.68537 0.20611 0.0
C595 C 0.31099 0.71188 0.18989 0.0
C596 C 0.32488 0.75516 0.19578 0.0
C597 C 0.32323 0.75599 0.2163 0.0
C598 C 0.30841 0.7134 0.22182 0.0
N599 N 0.28841 0.61808 0.23741 0.0
C600 C 0.29685 0.65398 0.2495 0.0
C601 C 0.30064 0.6423 0.26937 0.0
C602 C 0.29341 0.59618 0.26997 0.0
C603 C 0.28553 0.58231 0.25036 0.0
N604 N 0.33984 0.59822 0.20293 0.0
C605 C 0.42805 0.56064 0.19939 0.0
C606 C 0.4192 0.59668 0.21264 0.0
C607 C 0.3753 0.61503 0.21407 0.0
C608 C 0.39201 0.545 0.18732 0.0
C609 C 0.34821 0.56408 0.18938 0.0
N610 N 0.21569 0.64485 0.2133 0.0
C611 C 0.16174 0.7073 0.2125 0.0
C612 C 0.13631 0.68742 0.22805 0.0
C613 C 0.1498 0.64445 0.23504 0.0
C614 C 0.18931 0.62398 0.22756 0.0
C615 C 0.20074 0.68504 0.20508 0.0
H616 H 0.19947 0.59227 0.23421 0.0
H617 H 0.21973 0.70144 0.19327 0.0
H618 H 0.37006 0.64232 0.22459 0.0
H619 H 0.32101 0.55042 0.18032 0.0
C620 C 0.22617 0.55405 0.17588 0.0
C621 C 0.27088 0.53591 0.24512 0.0
C622 C 0.30228 0.69948 0.16884 0.0
C623 C 0.30477 0.69729 0.24148 0.0
H624 H 0.23292 0.45445 0.22781 0.0
H625 H 0.20373 0.46553 0.19052 0.0
H626 H 0.22458 0.58483 0.13543 0.0
H627 H 0.27068 0.66193 0.13139 0.0
H628 H 0.33405 0.7836 0.18624 0.0
H629 H 0.33209 0.78422 0.22604 0.0
H630 H 0.30807 0.66458 0.28192 0.0
H631 H 0.29287 0.57525 0.28336 0.0
H632 H 0.44606 0.61052 0.22201 0.0
H633 H 0.3972 0.51717 0.17687 0.0
H634 H 0.15206 0.74014 0.20637 0.0
H635 H 0.13138 0.62769 0.24706 0.0
C636 C 0.7115 0.81029 0.43963 0.0
C637 C 0.75479 0.82416 0.44552 0.0
C638 C 0.75561 0.82259 0.46605 0.0
C639 C 0.71299 0.80783 0.47157 0.0
N640 N 0.68496 0.80048 0.45586 0.0
Co641 Co 0.6209 0.77706 0.45757 0.0
N642 N 0.61764 0.78793 0.48717 0.0
C643 C 0.65354 0.7964 0.49926 0.0
C644 C 0.64188 0.8002 0.51913 0.0
C645 C 0.59577 0.79292 0.51974 0.0
C646 C 0.58188 0.78501 0.50013 0.0
N647 N 0.55661 0.75427 0.45906 0.0
C648 C 0.52557 0.75643 0.47419 0.0
C649 C 0.48444 0.73649 0.46858 0.0
C650 C 0.4901 0.72057 0.44949 0.0
C651 C 0.53407 0.7317 0.44449 0.0
N652 N 0.62432 0.76531 0.42806 0.0
C653 C 0.59405 0.74109 0.41715 0.0
C654 C 0.60413 0.73953 0.39709 0.0
C655 C 0.64359 0.76384 0.39511 0.0
C656 C 0.65573 0.77847 0.41422 0.0
N657 N 0.6444 0.71511 0.46313 0.0
C658 C 0.687 0.6359 0.47807 0.0
C659 C 0.64394 0.64936 0.48496 0.0
C660 C 0.62346 0.68878 0.47738 0.0
C661 C 0.70695 0.66125 0.4625 0.0
C662 C 0.68467 0.70016 0.45498 0.0
N663 N 0.59784 0.83929 0.45265 0.0
C664 C 0.54474 0.89152 0.43698 0.0
C665 C 0.56042 0.92757 0.44904 0.0
C666 C 0.59642 0.91868 0.4623 0.0
C667 C 0.61469 0.87475 0.46377 0.0
C668 C 0.56373 0.84768 0.43908 0.0
H669 H 0.64196 0.86951 0.4743 0.0
H670 H 0.55004 0.82048 0.43003 0.0
H671 H 0.59167 0.69892 0.48397 0.0
H672 H 0.70113 0.71908 0.44316 0.0
C673 C 0.69686 0.80428 0.49123 0.0
C674 C 0.6991 0.80155 0.41859 0.0
C675 C 0.53549 0.77027 0.49491 0.0
C676 C 0.55356 0.72563 0.42566 0.0
H677 H 0.78325 0.83326 0.43598 0.0
H678 H 0.78384 0.83145 0.47578 0.0
H679 H 0.66417 0.80764 0.53167 0.0
H680 H 0.57485 0.79236 0.53313 0.0
H681 H 0.45396 0.73249 0.47759 0.0
H682 H 0.46498 0.70334 0.44029 0.0
H683 H 0.5844 0.72381 0.38522 0.0
H684 H 0.66158 0.76976 0.38116 0.0
H685 H 0.62711 0.63101 0.49698 0.0
H686 H 0.73985 0.65158 0.45643 0.0
H687 H 0.51693 0.89673 0.42652 0.0
H688 H 0.6103 0.94554 0.47166 0.0
C689 C 0.75673 0.5102 0.54995 0.0
C690 C 0.73681 0.55132 0.55557 0.0
C691 C 0.721 0.54568 0.57468 0.0
C692 C 0.73216 0.50172 0.57968 0.0
N693 N 0.75466 0.47917 0.56509 0.0
Co694 Co 0.77745 0.41487 0.56658 0.0
N695 N 0.76577 0.41144 0.5961 0.0
C696 C 0.74162 0.44175 0.60702 0.0
C697 C 0.74005 0.43164 0.62708 0.0
C698 C 0.76426 0.39212 0.62905 0.0
C699 C 0.77885 0.37997 0.60993 0.0
N700 N 0.80088 0.3508 0.56828 0.0
C701 C 0.81064 0.32422 0.58451 0.0
C702 C 0.82455 0.28096 0.57861 0.0
C703 C 0.82304 0.28019 0.55808 0.0
C704 C 0.80828 0.32282 0.55257 0.0
N705 N 0.78825 0.41815 0.53698 0.0
C706 C 0.79676 0.38226 0.52489 0.0
C707 C 0.80049 0.39393 0.50501 0.0
C708 C 0.79313 0.44002 0.5044 0.0
C709 C 0.78524 0.45389 0.52401 0.0
N710 N 0.8397 0.43794 0.57147 0.0
C711 C 0.92796 0.47544 0.57503 0.0
C712 C 0.91907 0.43943 0.56178 0.0
C713 C 0.87514 0.42112 0.56034 0.0
C714 C 0.89194 0.49109 0.58711 0.0
C715 C 0.84811 0.47206 0.58504 0.0
N716 N 0.71549 0.39138 0.56105 0.0
C717 C 0.66167 0.32881 0.56169 0.0
C718 C 0.6363 0.34873 0.54613 0.0
C719 C 0.64971 0.39181 0.53924 0.0
C720 C 0.68912 0.41231 0.5468 0.0
C721 C 0.70057 0.35111 0.56921 0.0
H722 H 0.69923 0.4441 0.54021 0.0
H723 H 0.7195 0.33466 0.58102 0.0
H724 H 0.86989 0.39385 0.54981 0.0
H725 H 0.82093 0.48573 0.5941 0.0
C726 C 0.72617 0.48224 0.59852 0.0
C727 C 0.77048 0.50028 0.52923 0.0
C728 C 0.80178 0.33654 0.60556 0.0
C729 C 0.8047 0.33896 0.53291 0.0
H730 H 0.73276 0.58179 0.54656 0.0
H731 H 0.7038 0.5708 0.58389 0.0
H732 H 0.72435 0.45137 0.63896 0.0
H733 H 0.77012 0.37407 0.64299 0.0
H734 H 0.83361 0.25247 0.58815 0.0
H735 H 0.83192 0.25199 0.54834 0.0
H736 H 0.80793 0.37164 0.49247 0.0
H737 H 0.7925 0.46093 0.49101 0.0
H738 H 0.9459 0.42556 0.5524 0.0
H739 H 0.89715 0.5189 0.59757 0.0
H740 H 0.65202 0.2959 0.56776 0.0
H741 H 0.63133 0.40862 0.52722 0.0
C742 C 0.32493 0.22535 0.43955 0.0
C743 C 0.28162 0.21148 0.44542 0.0
C744 C 0.28078 0.21302 0.46595 0.0
C745 C 0.32339 0.22775 0.47149 0.0
N746 N 0.35145 0.23512 0.45579 0.0
Co747 Co 0.41551 0.25852 0.45753 0.0
N748 N 0.41871 0.24763 0.48713 0.0
C749 C 0.38278 0.23915 0.4992 0.0
C750 C 0.39441 0.23533 0.51908 0.0
C751 C 0.44051 0.24261 0.51971 0.0
C752 C 0.45444 0.25054 0.50012 0.0
N753 N 0.47981 0.28129 0.45907 0.0
C754 C 0.51082 0.27912 0.47421 0.0
C755 C 0.55196 0.29905 0.46862 0.0
C756 C 0.54636 0.31496 0.44953 0.0
C757 C 0.50239 0.30385 0.4445 0.0
N758 N 0.41216 0.27029 0.42803 0.0
C759 C 0.44247 0.29449 0.41713 0.0
C760 C 0.43243 0.29606 0.39706 0.0
C761 C 0.39296 0.27179 0.39506 0.0
C762 C 0.38076 0.25716 0.41417 0.0
N763 N 0.39202 0.32047 0.46309 0.0
C764 C 0.34939 0.39967 0.47803 0.0
C765 C 0.39244 0.3862 0.48493 0.0
C766 C 0.41294 0.34679 0.47736 0.0
C767 C 0.32948 0.37434 0.46245 0.0
C768 C 0.35177 0.33544 0.45493 0.0
N769 N 0.43857 0.19629 0.45262 0.0
C770 C 0.49171 0.14405 0.43698 0.0
C771 C 0.47599 0.108 0.44902 0.0
C772 C 0.43996 0.11689 0.46226 0.0
C773 C 0.42169 0.16082 0.46373 0.0
C774 C 0.47271 0.1879 0.43907 0.0
H775 H 0.3944 0.16607 0.47425 0.0
H776 H 0.48643 0.2151 0.43003 0.0
H777 H 0.44471 0.33664 0.48396 0.0
H778 H 0.33533 0.31653 0.4431 0.0
C779 C 0.33948 0.23128 0.49115 0.0
C780 C 0.33736 0.23415 0.41851 0.0
C781 C 0.50084 0.26528 0.49492 0.0
C782 C 0.48294 0.30993 0.42566 0.0
H783 H 0.25317 0.20242 0.43586 0.0
H784 H 0.25253 0.20416 0.47566 0.0
H785 H 0.37209 0.22788 0.53161 0.0
H786 H 0.46141 0.24316 0.53311 0.0
H787 H 0.58242 0.30303 0.47764 0.0
H788 H 0.5715 0.33218 0.44034 0.0
H789 H 0.4522 0.31178 0.3852 0.0
H790 H 0.37498 0.2659 0.38111 0.0
H791 H 0.40925 0.40454 0.49697 0.0
H792 H 0.29659 0.38402 0.45636 0.0
H793 H 0.51953 0.13885 0.42653 0.0
H794 H 0.42605 0.09003 0.47162 0.0
C795 C 0.27957 0.52533 0.5499 0.0
C796 C 0.29953 0.48422 0.55553 0.0
C797 C 0.31535 0.48988 0.57463 0.0
C798 C 0.30416 0.53384 0.57963 0.0
N799 N 0.28164 0.55637 0.56504 0.0
Co800 Co 0.25881 0.62065 0.56653 0.0
N801 N 0.27051 0.62411 0.59604 0.0
C802 C 0.29469 0.59383 0.60696 0.0
C803 C 0.29626 0.60394 0.62702 0.0
C804 C 0.27201 0.64344 0.62899 0.0
C805 C 0.2574 0.65556 0.60987 0.0
N806 N 0.23535 0.6847 0.56822 0.0
C807 C 0.22555 0.71127 0.58445 0.0
C808 C 0.21161 0.75453 0.57854 0.0
C809 C 0.21313 0.7553 0.55802 0.0
C810 C 0.22793 0.71268 0.55251 0.0
N811 N 0.24799 0.61735 0.53692 0.0
C812 C 0.23947 0.65323 0.52483 0.0
C813 C 0.23574 0.64156 0.50495 0.0
C814 C 0.24312 0.59547 0.50434 0.0
C815 C 0.25102 0.58161 0.52395 0.0
N816 N 0.19658 0.59755 0.57142 0.0
C817 C 0.10833 0.56003 0.575 0.0
C818 C 0.1172 0.59602 0.56174 0.0
C819 C 0.16112 0.61434 0.56028 0.0
C820 C 0.14437 0.5444 0.58707 0.0
C821 C 0.1882 0.56344 0.58499 0.0
N822 N 0.32075 0.64418 0.56099 0.0
C823 C 0.37456 0.70677 0.56163 0.0
C824 C 0.39994 0.68684 0.54608 0.0
C825 C 0.38654 0.64376 0.53919 0.0
C826 C 0.34713 0.62325 0.54675 0.0
C827 C 0.33566 0.68447 0.56914 0.0
H828 H 0.33703 0.59145 0.54016 0.0
H829 H 0.31671 0.70091 0.58095 0.0
H830 H 0.16635 0.6416 0.54975 0.0
H831 H 0.21539 0.54979 0.59405 0.0
C832 C 0.31017 0.55334 0.59846 0.0
C833 C 0.26581 0.53524 0.52918 0.0
C834 C 0.23439 0.69896 0.6055 0.0
C835 C 0.2315 0.69653 0.53285 0.0
H836 H 0.30359 0.45375 0.54652 0.0
H837 H 0.33257 0.46478 0.58385 0.0
H838 H 0.31198 0.58423 0.6389 0.0
H839 H 0.26613 0.66147 0.64293 0.0
H840 H 0.20252 0.78301 0.58808 0.0
H841 H 0.20423 0.78349 0.54828 0.0
H842 H 0.22828 0.66383 0.49241 0.0
H843 H 0.24376 0.57455 0.49095 0.0
H844 H 0.09035 0.60987 0.55236 0.0
H845 H 0.13918 0.5166 0.59754 0.0
H846 H 0.38419 0.73969 0.5677 0.0
H847 H 0.40493 0.62693 0.52718 0.0
C848 C 0.18875 0.47863 0.28101 0.0
C849 C 0.21219 0.43829 0.28603 0.0
H850 H 0.18961 0.54144 0.26446 0.0
C851 C 0.25748 0.43291 0.27933 0.0
H852 H 0.15395 0.48392 0.28599 0.0
C853 C 0.27779 0.46587 0.2669 0.0
C854 C 0.25339 0.50501 0.2612 0.0
H855 H 0.27624 0.40201 0.28274 0.0
H856 H 0.31171 0.45985 0.26099 0.0
C857 C 0.20918 0.51166 0.26878 0.0
C858 C 0.51108 0.82711 0.75584 0.0
C859 C 0.50432 0.78289 0.7634 0.0
H860 H 0.4836 0.88239 0.73858 0.0
C861 C 0.4652 0.75855 0.75761 0.0
H862 H 0.54084 0.84664 0.76023 0.0
C863 C 0.4324 0.77891 0.7451 0.0
C864 C 0.4379 0.8242 0.73842 0.0
H865 H 0.45909 0.72462 0.76349 0.0
H866 H 0.40152 0.76017 0.74163 0.0
C867 C 0.4782 0.84759 0.74354 0.0
C868 C 0.75861 0.57051 0.26695 0.0
C869 C 0.783 0.53137 0.26123 0.0
H870 H 0.76019 0.63434 0.28281 0.0
C871 C 0.82722 0.52471 0.2688 0.0
H872 H 0.72468 0.57654 0.26106 0.0
C873 C 0.84768 0.55771 0.28104 0.0
C874 C 0.82425 0.59804 0.28607 0.0
H875 H 0.84678 0.49492 0.26446 0.0
H876 H 0.88249 0.5524 0.28601 0.0
C877 C 0.77895 0.60344 0.27939 0.0
C878 C 0.52455 0.20845 0.75581 0.0
C879 C 0.5313 0.25267 0.76337 0.0
H880 H 0.55206 0.15318 0.73856 0.0
C881 C 0.57043 0.27701 0.7576 0.0
H882 H 0.49478 0.18892 0.76019 0.0
C883 C 0.60325 0.25665 0.74511 0.0
C884 C 0.59776 0.21136 0.73842 0.0
H885 H 0.57653 0.31093 0.76348 0.0
H886 H 0.63414 0.27538 0.74165 0.0
C887 C 0.55745 0.18797 0.74353 0.0
C888 C 0.27751 0.07056 1.00747 0.0
C889 C 0.25313 0.03142 0.01319 0.0
H890 H 0.27592 0.1344 0.99161 0.0
C891 C 0.20891 0.02475 1.00561 0.0
H892 H 0.31144 0.0766 0.01337 0.0
C893 C 0.18845 0.05775 0.99338 0.0
C894 C 0.21186 0.09808 0.98835 0.0
H895 H 0.18935 0.99496 1.00996 0.0
H896 H 0.15364 0.05244 0.98841 0.0
C897 C 0.25717 0.10349 0.99503 0.0
C898 C 0.05743 0.84797 0.03121 0.0
C899 C 0.09772 0.82451 0.03629 0.0
H900 H 0.99466 0.8471 0.01462 0.0
C901 C 0.10303 0.77915 0.02966 0.0
H902 H 0.05218 0.88281 0.03614 0.0
C903 C 0.07007 0.75881 0.01723 0.0
C904 C 0.03098 0.78322 1.01147 0.0
H905 H 0.13389 0.76036 0.03311 0.0
H906 H 0.07605 0.72483 1.01138 0.0
C907 C 0.0244 0.8275 0.01899 0.0
C908 C 0.84736 0.97865 0.99338 0.0
C909 C 0.82393 0.93831 0.98837 0.0
H910 H 0.8465 0.04145 1.00995 0.0
C911 C 0.77864 0.9329 0.99507 0.0
H912 H 0.88215 0.98396 0.9884 0.0
C913 C 0.75834 0.96585 1.00752 0.0
C914 C 0.78273 1.00499 0.01321 0.0
H915 H 0.75988 0.902 0.99167 0.0
H916 H 0.72443 0.95981 0.01343 0.0
C917 C 0.82693 1.01166 1.00562 0.0
C918 C 0.9785 0.18846 0.03126 0.0
C919 C 0.93822 0.21192 0.03634 0.0
H920 H 0.04126 0.18935 0.01466 0.0
C921 C 0.93289 0.25727 0.02971 0.0
H922 H 0.98377 0.15362 0.03619 0.0
C923 C 0.96583 0.27762 0.01728 0.0
C924 C 1.00491 0.25321 1.01151 0.0
H925 H 0.90203 0.27606 0.03317 0.0
H926 H 0.95983 0.3116 1.01143 0.0
C927 C 1.01152 0.20894 0.01903 0.0
C928 C 0.75645 0.9325 0.77959 0.0
C929 C 0.7111 0.93793 0.78621 0.0
H930 H 0.81082 0.95926 0.76127 0.0
C931 C 0.68768 0.97818 0.78105 0.0
H932 H 0.77523 0.90167 0.7831 0.0
C933 C 0.70818 1.01107 0.76877 0.0
C934 C 0.75247 1.00439 0.76127 0.0
H935 H 0.65284 0.98352 0.78597 0.0
H936 H 0.68862 0.04079 0.76435 0.0
C937 C 0.77684 0.96532 0.7671 0.0
C938 C 0.96604 0.25872 0.25715 0.0
C939 C 1.00514 0.28314 0.26289 0.0
H940 H 0.9022 0.26028 0.24129 0.0
C941 C 1.01173 0.32741 0.25537 0.0
H942 H 0.96006 0.22476 0.263 0.0
C943 C 0.97869 0.34788 0.24316 0.0
C944 C 0.93839 0.32442 0.23809 0.0
H945 H 0.04148 0.34699 0.25973 0.0
H946 H 0.98394 0.38271 0.23822 0.0
C947 C 0.93307 0.27907 0.24472 0.0
C948 C 0.32739 0.02445 0.76875 0.0
C949 C 0.28311 0.03112 0.76124 0.0
H950 H 0.38271 0.05203 0.78596 0.0
C951 C 0.25873 0.07019 0.76705 0.0
H952 H 0.34695 0.99473 0.76434 0.0
C953 C 0.2791 0.10303 0.77954 0.0
C954 C 0.32444 0.09763 0.78617 0.0
H955 H 0.22475 0.07623 0.76121 0.0
H956 H 0.26031 0.13387 0.78303 0.0
C957 C 0.34788 0.05737 0.78103 0.0
C958 C 0.0703 0.77762 0.25716 0.0
C959 C 0.03121 0.75321 0.26292 0.0
H960 H 0.1341 0.77608 0.24128 0.0
C961 C 0.02461 0.70894 0.25539 0.0
H962 H 0.07629 0.81159 0.26302 0.0
C963 C 0.05763 0.68847 0.24317 0.0
C964 C 0.09792 0.71194 0.23809 0.0
H965 H 0.99487 0.68935 0.25977 0.0
H966 H 0.05237 0.65364 0.23824 0.0
C967 C 0.10324 0.75729 0.24473 0.0
C968 C 0.77723 0.57019 0.50734 0.0
C969 C 0.75284 0.53112 0.51315 0.0
H970 H 0.77565 0.63386 0.49135 0.0
C971 C 0.70856 0.52446 0.50564 0.0
H972 H 0.8112 0.57623 0.51317 0.0
C973 C 0.68808 0.55737 0.49336 0.0
C974 C 0.71152 0.59763 0.48821 0.0
H975 H 0.68899 0.49473 0.51005 0.0
H976 H 0.65325 0.55204 0.48843 0.0
C977 C 0.75687 0.60303 0.49485 0.0
C978 C 0.60356 0.27889 0.52931 0.0
C979 C 0.59805 0.32418 0.53599 0.0
H980 H 0.57687 0.22461 0.51092 0.0
C981 C 0.55774 0.34757 0.53088 0.0
H982 H 0.63445 0.26017 0.53278 0.0
C983 C 0.52487 0.32708 0.51858 0.0
C984 C 0.53163 0.28287 0.51102 0.0
H985 H 0.55235 0.38236 0.53585 0.0
H986 H 0.49509 0.34661 0.5142 0.0
C987 C 0.57075 0.25853 0.5168 0.0
C988 C 0.25911 0.46534 0.50728 0.0
C989 C 0.28349 0.50441 0.5131 0.0
H990 H 0.26072 0.40168 0.49128 0.0
C991 C 0.32778 0.51108 0.50561 0.0
H992 H 0.22513 0.45929 0.5131 0.0
C993 C 0.34828 0.47818 0.49333 0.0
C994 C 0.32485 0.43793 0.48817 0.0
H995 H 0.34734 0.54081 0.51003 0.0
H996 H 0.38312 0.48352 0.48841 0.0
C997 C 0.2795 0.43251 0.49479 0.0
C998 C 0.51141 0.70847 0.51856 0.0
C999 C 0.50467 0.75268 0.511 0.0
H1000 H 0.4839 0.6532 0.53581 0.0
C1001 C 0.46554 0.77702 0.51676 0.0
H1002 H 0.54119 0.68894 0.51419 0.0
C1003 C 0.43271 0.75667 0.52926 0.0
C1004 C 0.4382 0.71138 0.53594 0.0
H1005 H 0.45943 0.81095 0.51088 0.0
H1006 H 0.40182 0.7754 0.53272 0.0
C1007 C 0.47851 0.68799 0.53084 0.0
C1008 C 0.28492 0.19176 0.39463 0.0
C1009 C 0.30134 0.23315 0.40252 0.0
H1010 H 0.23986 0.15949 0.37331 0.0
C1011 C 0.28455 0.27436 0.39463 0.0
H1012 H 0.29743 0.15957 0.40043 0.0
C1013 C 0.25272 0.27431 0.37899 0.0
C1014 C 0.23593 0.23305 0.37115 0.0
H1015 H 0.29654 0.30672 0.40048 0.0
H1016 H 0.2407 0.30664 0.37311 0.0
C1017 C 0.25238 0.19171 0.37908 0.0
C1018 C 0.19201 0.75144 0.62937 0.0
C1019 C 0.2334 0.73503 0.62147 0.0
H1020 H 0.15974 0.79646 0.6507 0.0
C1021 C 0.27461 0.75187 0.62935 0.0
H1022 H 0.15983 0.73891 0.62358 0.0
C1023 C 0.27457 0.7837 0.645 0.0
C1024 C 0.23331 0.80046 0.65285 0.0
H1025 H 0.30698 0.7399 0.6235 0.0
H1026 H 0.3069 0.79573 0.65086 0.0
C1027 C 0.19197 0.78398 0.64493 0.0
C1028 C 0.75145 0.84411 0.39473 0.0
C1029 C 0.73512 0.80267 0.4026 0.0
H1030 H 0.79644 0.87654 0.37343 0.0
C1031 C 0.75201 0.76151 0.39469 0.0
H1032 H 0.73887 0.87625 0.40055 0.0
C1033 C 0.78384 0.76168 0.37905 0.0
C1034 C 0.80054 0.80299 0.37124 0.0
H1035 H 0.74009 0.72911 0.40052 0.0
H1036 H 0.79593 0.72939 0.37316 0.0
C1037 C 0.784 0.84428 0.37918 0.0
C1038 C 0.76136 0.25185 0.64502 0.0
C1039 C 0.80257 0.23501 0.6529 0.0
H1040 H 0.72908 0.29573 0.62351 0.0
C1041 C 0.84396 0.25141 0.645 0.0
H1042 H 0.72899 0.23988 0.65087 0.0
C1043 C 0.84401 0.28396 0.62945 0.0
C1044 C 0.80267 0.30045 0.62153 0.0
H1045 H 0.87614 0.23887 0.65079 0.0
H1046 H 0.87623 0.29644 0.62367 0.0
C1047 C 0.76141 0.28369 0.62938 0.0
C1048 C 0.25205 0.34429 0.89522 0.0
C1049 C 0.23551 0.30301 0.90317 0.0
H1050 H 0.29716 0.37626 0.87384 0.0
C1051 C 0.2522 0.26169 0.89535 0.0
H1052 H 0.23961 0.37655 0.90097 0.0
C1053 C 0.28402 0.26152 0.8797 0.0
C1054 C 0.30091 0.30267 0.8718 0.0
H1055 H 0.24011 0.2294 0.90125 0.0
H1056 H 0.29592 0.22911 0.87387 0.0
C1057 C 0.28458 0.34412 0.87966 0.0
C1058 C 0.26195 0.75232 0.14503 0.0
C1059 C 0.3032 0.73554 0.15287 0.0
H1060 H 0.22955 0.79613 0.12353 0.0
C1061 C 0.34456 0.75199 0.14496 0.0
H1062 H 0.22961 0.7403 0.1509 0.0
C1063 C 0.34452 0.78455 0.12942 0.0
C1064 C 0.30313 0.80096 0.12153 0.0
H1065 H 0.37677 0.73949 0.15074 0.0
H1066 H 0.37671 0.79708 0.12363 0.0
C1067 C 0.26191 0.78414 0.12939 0.0
C1068 C 0.78332 0.77435 0.8954 0.0
C1069 C 0.80012 0.7331 0.90324 0.0
H1070 H 0.7395 0.80677 0.87391 0.0
C1071 C 0.78367 0.69175 0.89532 0.0
H1072 H 0.79535 0.80668 0.90127 0.0
C1073 C 0.75111 0.6918 0.87977 0.0
C1074 C 0.73468 0.73319 0.87188 0.0
H1075 H 0.79618 0.65954 0.90108 0.0
H1076 H 0.7386 0.65961 0.87396 0.0
C1077 C 0.75149 0.7744 0.87976 0.0
C1078 C 0.69154 0.25191 0.12947 0.0
C1079 C 0.73291 0.23546 0.12157 0.0
H1080 H 0.65936 0.29699 0.15079 0.0
C1081 C 0.77415 0.25224 0.12942 0.0
H1082 H 0.65933 0.2394 0.12368 0.0
C1083 C 0.77417 0.28407 0.14506 0.0
C1084 C 0.73294 0.30089 0.15291 0.0
H1085 H 0.8065 0.24023 0.12355 0.0
H1086 H 0.80653 0.29607 0.15092 0.0
C1087 C 0.69156 0.28447 0.14501 0.0
C1088 C 1.00832 0.9963 0.34323 0.0
C1089 C 0.99776 0.97414 0.32505 0.0
H1090 H 0.03587 0.05626 0.35742 0.0
C1091 C 1.00803 0.99654 0.30693 0.0
H1092 H 1.00065 0.98009 0.35744 0.0
C1093 C 0.02834 0.03977 0.30692 0.0
C1094 C 0.03866 0.06218 0.32503 0.0
H1095 H 1.00078 0.98038 0.29266 0.0
H1096 H 0.03555 0.05592 0.29265 0.0
C1097 C 0.02815 0.04004 0.34322 0.0
C1098 C 0.9959 0.02759 0.68078 0.0
C1099 C 0.97372 0.03805 0.69896 0.0
H1100 H 0.05594 1.00024 0.66656 0.0
C1101 C 0.99618 0.02779 0.71707 0.0
H1102 H 0.97965 0.03526 0.66657 0.0
C1103 C 0.03947 1.00761 0.71707 0.0
C1104 C 0.0619 0.99738 0.69895 0.0
H1105 H 0.98002 0.03497 0.73135 0.0
H1106 H 0.05565 1.0004 0.73134 0.0
C1107 C 0.03971 1.00788 0.68077 0.0
C1108 C 0.02806 0.49658 0.96747 0.0
C1109 C 0.03832 0.47416 0.94935 0.0
H1110 H 1.00055 0.55597 0.98175 0.0
C1111 C 0.02775 0.4963 0.93118 0.0
H1112 H 0.03532 0.48043 0.98174 0.0
C1113 C 1.00792 0.54005 0.93118 0.0
C1114 C 0.99742 0.56221 0.94936 0.0
H1115 H 0.03542 0.48008 0.91696 0.0
H1116 H 1.0002 0.55626 0.91697 0.0
C1117 C 1.00776 0.53981 0.96747 0.0
C1118 C 0.49608 1.00832 0.0936 0.0
C1119 C 0.47392 0.99782 0.07542 0.0
H1120 H 0.55608 0.03577 0.10781 0.0
C1121 C 0.49635 1.0081 0.05731 0.0
H1122 H 0.47985 1.00063 0.10781 0.0
C1123 C 0.53959 0.02835 0.05731 0.0
C1124 C 0.56202 0.03861 0.07543 0.0
H1125 H 0.48018 1.00089 0.04303 0.0
H1126 H 0.55576 0.03557 0.04304 0.0
C1127 C 0.53986 0.02809 0.0936 0.0
C1128 C 0.50774 0.49614 0.80765 0.0
C1129 C 0.4975 0.47367 0.82576 0.0
H1130 H 0.53507 0.55563 0.79339 0.0
C1131 C 0.50794 0.49586 0.84394 0.0
H1132 H 0.50058 0.47997 0.79337 0.0
C1133 C 0.5276 0.5397 0.84395 0.0
C1134 C 0.53808 0.56189 0.82578 0.0
H1135 H 0.50028 0.47961 0.85815 0.0
H1136 H 0.53522 0.55594 0.85816 0.0
C1137 C 0.52788 0.53944 0.80766 0.0
C1138 C 0.54003 0.50832 0.18084 0.0
C1139 C 0.56219 0.49781 0.19902 0.0
H1140 H 0.48004 0.53578 0.16662 0.0
C1141 C 0.53976 0.5081 0.21713 0.0
H1142 H 0.55626 0.50062 0.16663 0.0
C1143 C 0.49652 0.52837 0.21712 0.0
C1144 C 0.4741 0.53863 0.19901 0.0
H1145 H 0.55592 0.50089 0.23141 0.0
H1146 H 0.48035 0.53559 0.2314 0.0
C1147 C 0.49626 0.52811 0.18083 0.0
C1148 C 0.5084 0.03971 0.43045 0.0
C1149 C 0.49791 0.06189 0.44863 0.0
H1150 H 0.53572 0.97963 0.41624 0.0
C1151 C 0.50811 0.03943 0.46674 0.0
H1152 H 0.50077 0.05596 0.41624 0.0
C1153 C 0.52825 0.99613 0.46674 0.0
C1154 C 0.53849 0.97368 0.44863 0.0
H1155 H 0.50091 0.05561 0.48101 0.0
H1156 H 0.53541 0.97995 0.48102 0.0
C1157 C 0.52806 0.99587 0.43045 0.0
C1158 C 0.9965 0.50762 0.5573 0.0
C1159 C 0.97406 0.49739 0.57542 0.0
H1160 H 0.05594 0.53499 0.54302 0.0
C1161 C 0.99626 0.50789 0.59359 0.0
H1162 H 0.98031 0.50042 0.54303 0.0
C1163 C 0.04007 0.5276 0.59359 0.0
C1164 C 0.06224 0.53807 0.57541 0.0
H1165 H 0.98003 0.50024 0.60781 0.0
H1166 H 0.05632 0.53527 0.60779 0.0
C1167 C 0.03978 0.52781 0.5573 0.0
loop_
_geom_bond_atom_site_label_1
_geom_bond_atom_site_label_2
_geom_bond_distance
_geom_bond_site_symmetry_2
_ccdc_geom_bond_type
C0 C1 1.443 . S
C0 N4 1.376 . S
C0 C38 1.389 . S
C1 C0 1.443 . S
C1 C2 1.340 . S
C1 H41 0.951 . S
C2 C1 1.340 . S
C2 C3 1.439 . S
C2 H42 0.950 . S
C3 C2 1.439 . S
C3 N4 1.374 . S
C3 C37 1.395 . S
N4 C0 1.376 . S
N4 C3 1.374 . S
N4 Co5 2.008 . S
Co5 N4 2.008 . S
Co5 N6 1.995 . S
Co5 N11 2.008 . S
Co5 N16 1.995 . S
Co5 N21 2.282 . S
Co5 N27 2.282 . S
N6 Co5 1.995 . S
N6 C7 1.376 . S
N6 C10 1.383 . S
C7 N6 1.376 . S
C7 C8 1.446 . S
C7 C37 1.391 . S
C8 C7 1.446 . S
C8 C9 1.339 . S
C8 H43 0.949 . S
C9 C8 1.339 . S
C9 C10 1.439 . S
C9 H44 0.950 . S
C10 N6 1.383 . S
C10 C9 1.439 . S
C10 C39 1.392 1_455 S
N11 Co5 2.008 . S
N11 C12 1.376 1_455 S
N11 C15 1.374 . S
C12 N11 1.376 1_655 S
C12 C13 1.443 . S
C12 C39 1.389 . S
C13 C12 1.443 . S
C13 C14 1.340 . S
C13 H45 0.951 . S
C14 C13 1.340 . S
C14 C15 1.439 1_655 S
C14 H46 0.950 . S
C15 N11 1.374 . S
C15 C14 1.439 1_455 S
C15 C40 1.395 . S
N16 Co5 1.995 . S
N16 C17 1.376 . S
N16 C20 1.383 . S
C17 N16 1.376 . S
C17 C18 1.446 . S
C17 C40 1.391 . S
C18 C17 1.446 . S
C18 C19 1.339 . S
C18 H47 0.949 . S
C19 C18 1.339 . S
C19 C20 1.439 . S
C19 H48 0.950 . S
C20 N16 1.383 . S
C20 C19 1.439 . S
C20 C38 1.392 . S
N21 Co5 2.282 . S
N21 C24 1.332 . S
N21 C26 1.332 . S
C22 C23 1.386 . S
C22 C25 1.388 . S
C23 C22 1.386 . S
C23 C24 1.382 . S
C23 H49 0.950 . S
C24 N21 1.332 . S
C24 C23 1.382 . S
C24 H35 0.952 . S
C25 C22 1.388 . S
C25 C26 1.382 . S
C25 H50 0.950 . S
C26 N21 1.332 . S
C26 C25 1.382 . S
C26 H36 0.948 . S
N27 Co5 2.282 . S
N27 C31 1.332 . S
N27 C32 1.332 . S
C28 C29 1.388 . S
C28 C32 1.382 . S
C28 H51 0.950 . S
C29 C28 1.388 . S
C29 C30 1.386 . S
C30 C29 1.386 . S
C30 C31 1.382 . S
C30 H52 0.950 . S
C31 N27 1.332 . S
C31 C30 1.382 . S
C31 H33 0.952 . S
C32 N27 1.332 . S
C32 C28 1.382 . S
C32 H34 0.948 . S
H33 C31 0.952 . S
H34 C32 0.948 . S
H35 C24 0.952 . S
H36 C26 0.948 . S
C37 C3 1.395 . S
C37 C7 1.391 . S
C38 C0 1.389 . S
C38 C20 1.392 . S
C39 C10 1.392 1_655 S
C39 C12 1.389 . S
C40 C15 1.395 . S
C40 C17 1.391 . S
H41 C1 0.951 . S
H42 C2 0.950 . S
H43 C8 0.949 . S
H44 C9 0.950 . S
H45 C13 0.951 . S
H46 C14 0.950 . S
H47 C18 0.949 . S
H48 C19 0.950 . S
H49 C23 0.950 . S
H50 C25 0.950 . S
H51 C28 0.950 . S
H52 C30 0.950 . S
C53 C54 1.443 . S
C53 N57 1.376 1_545 S
C53 C91 1.389 . S
C54 C53 1.443 . S
C54 C55 1.340 . S
C54 H94 0.951 . S
C55 C54 1.340 . S
C55 C56 1.439 1_545 S
C55 H95 0.950 . S
C56 C55 1.439 1_565 S
C56 N57 1.374 . S
C56 C90 1.395 . S
N57 C53 1.376 1_565 S
N57 C56 1.374 . S
N57 Co58 2.008 . S
Co58 N57 2.008 . S
Co58 N59 1.995 . S
Co58 N64 2.008 . S
Co58 N69 1.995 . S
Co58 N74 2.282 . S
Co58 N80 2.282 . S
N59 Co58 1.995 . S
N59 C60 1.376 . S
N59 C63 1.383 . S
C60 N59 1.376 . S
C60 C61 1.446 . S
C60 C90 1.391 . S
C61 C60 1.446 . S
C61 C62 1.339 . S
C61 H96 0.949 . S
C62 C61 1.339 . S
C62 C63 1.439 . S
C62 H97 0.950 . S
C63 N59 1.383 . S
C63 C62 1.439 . S
C63 C92 1.392 . S
N64 Co58 2.008 . S
N64 C65 1.376 . S
N64 C68 1.374 . S
C65 N64 1.376 . S
C65 C66 1.443 . S
C65 C92 1.389 . S
C66 C65 1.443 . S
C66 C67 1.340 . S
C66 H98 0.951 . S
C67 C66 1.340 . S
C67 C68 1.439 . S
C67 H99 0.950 . S
C68 N64 1.374 . S
C68 C67 1.439 . S
C68 C93 1.395 . S
N69 Co58 1.995 . S
N69 C70 1.376 . S
N69 C73 1.383 . S
C70 N69 1.376 . S
C70 C71 1.446 . S
C70 C93 1.391 . S
C71 C70 1.446 . S
C71 C72 1.339 . S
C71 H100 0.949 . S
C72 C71 1.339 . S
C72 C73 1.439 . S
C72 H101 0.950 . S
C73 N69 1.383 . S
C73 C72 1.439 . S
C73 C91 1.392 1_565 S
N74 Co58 2.282 . S
N74 C77 1.332 . S
N74 C79 1.332 . S
C75 C76 1.386 . S
C75 C78 1.388 . S
C76 C75 1.386 . S
C76 C77 1.382 . S
C76 H102 0.950 . S
C77 N74 1.332 . S
C77 C76 1.382 . S
C77 H88 0.952 . S
C78 C75 1.388 . S
C78 C79 1.382 . S
C78 H103 0.950 . S
C79 N74 1.332 . S
C79 C78 1.382 . S
C79 H89 0.948 . S
N80 Co58 2.282 . S
N80 C84 1.332 . S
N80 C85 1.332 . S
C81 C82 1.388 . S
C81 C85 1.382 . S
C81 H104 0.950 . S
C82 C81 1.388 . S
C82 C83 1.386 . S
C83 C82 1.386 . S
C83 C84 1.382 . S
C83 H105 0.950 . S
C84 N80 1.332 . S
C84 C83 1.382 . S
C84 H86 0.952 . S
C85 N80 1.332 . S
C85 C81 1.382 . S
C85 H87 0.948 . S
H86 C84 0.952 . S
H87 C85 0.948 . S
H88 C77 0.952 . S
H89 C79 0.948 . S
C90 C56 1.395 . S
C90 C60 1.391 . S
C91 C53 1.389 . S
C91 C73 1.392 1_545 S
C92 C63 1.392 . S
C92 C65 1.389 . S
C93 C68 1.395 . S
C93 C70 1.391 . S
H94 C54 0.951 . S
H95 C55 0.950 . S
H96 C61 0.949 . S
H97 C62 0.950 . S
H98 C66 0.951 . S
H99 C67 0.950 . S
H100 C71 0.949 . S
H101 C72 0.950 . S
H102 C76 0.950 . S
H103 C78 0.950 . S
H104 C81 0.950 . S
H105 C83 0.950 . S
C106 C107 1.443 . S
C106 N110 1.376 . S
C106 C144 1.389 . S
C107 C106 1.443 . S
C107 C108 1.340 . S
C107 H147 0.951 . S
C108 C107 1.340 . S
C108 C109 1.439 . S
C108 H148 0.950 . S
C109 C108 1.439 . S
C109 N110 1.374 . S
C109 C143 1.395 . S
N110 C106 1.376 . S
N110 C109 1.374 . S
N110 Co111 2.008 . S
Co111 N110 2.008 . S
Co111 N112 1.995 . S
Co111 N117 2.008 . S
Co111 N122 1.995 . S
Co111 N127 2.282 . S
Co111 N133 2.282 . S
N112 Co111 1.995 . S
N112 C113 1.376 . S
N112 C116 1.383 . S
C113 N112 1.376 . S
C113 C114 1.446 . S
C113 C143 1.391 . S
C114 C113 1.446 . S
C114 C115 1.339 . S
C114 H149 0.949 . S
C115 C114 1.339 . S
C115 C116 1.439 . S
C115 H150 0.950 . S
C116 N112 1.383 . S
C116 C115 1.439 . S
C116 C145 1.392 1_655 S
N117 Co111 2.008 . S
N117 C118 1.376 1_655 S
N117 C121 1.374 . S
C118 N117 1.376 1_455 S
C118 C119 1.443 . S
C118 C145 1.389 . S
C119 C118 1.443 . S
C119 C120 1.340 . S
C119 H151 0.951 . S
C120 C119 1.340 . S
C120 C121 1.439 1_455 S
C120 H152 0.950 . S
C121 N117 1.374 . S
C121 C120 1.439 1_655 S
C121 C146 1.395 . S
N122 Co111 1.995 . S
N122 C123 1.376 . S
N122 C126 1.383 . S
C123 N122 1.376 . S
C123 C124 1.446 . S
C123 C146 1.391 . S
C124 C123 1.446 . S
C124 C125 1.339 . S
C124 H153 0.949 . S
C125 C124 1.339 . S
C125 C126 1.439 . S
C125 H154 0.950 . S
C126 N122 1.383 . S
C126 C125 1.439 . S
C126 C144 1.392 . S
N127 Co111 2.282 . S
N127 C130 1.332 . S
N127 C132 1.332 . S
C128 C129 1.386 . S
C128 C131 1.388 . S
C129 C128 1.386 . S
C129 C130 1.382 . S
C129 H155 0.950 . S
C130 N127 1.332 . S
C130 C129 1.382 . S
C130 H141 0.952 . S
C131 C128 1.388 . S
C131 C132 1.382 . S
C131 H156 0.950 . S
C132 N127 1.332 . S
C132 C131 1.382 . S
C132 H142 0.948 . S
N133 Co111 2.282 . S
N133 C137 1.332 . S
N133 C138 1.332 . S
C134 C135 1.388 . S
C134 C138 1.382 . S
C134 H157 0.950 . S
C135 C134 1.388 . S
C135 C136 1.386 . S
C136 C135 1.386 . S
C136 C137 1.382 . S
C136 H158 0.950 . S
C137 N133 1.332 . S
C137 C136 1.382 . S
C137 H139 0.952 . S
C138 N133 1.332 . S
C138 C134 1.382 . S
C138 H140 0.948 . S
H139 C137 0.952 . S
H140 C138 0.948 . S
H141 C130 0.952 . S
H142 C132 0.948 . S
C143 C109 1.395 . S
C143 C113 1.391 . S
C144 C106 1.389 . S
C144 C126 1.392 . S
C145 C116 1.392 1_455 S
C145 C118 1.389 . S
C146 C121 1.395 . S
C146 C123 1.391 . S
H147 C107 0.951 . S
H148 C108 0.950 . S
H149 C114 0.949 . S
H150 C115 0.950 . S
H151 C119 0.951 . S
H152 C120 0.950 . S
H153 C124 0.949 . S
H154 C125 0.950 . S
H155 C129 0.950 . S
H156 C131 0.950 . S
H157 C134 0.950 . S
H158 C136 0.950 . S
C159 C160 1.443 . S
C159 N163 1.376 1_565 S
C159 C197 1.389 . S
C160 C159 1.443 . S
C160 C161 1.340 . S
C160 H200 0.951 . S
C161 C160 1.340 . S
C161 C162 1.439 1_565 S
C161 H201 0.950 . S
C162 C161 1.439 1_545 S
C162 N163 1.374 . S
C162 C196 1.395 . S
N163 C159 1.376 1_545 S
N163 C162 1.374 . S
N163 Co164 2.008 . S
Co164 N163 2.008 . S
Co164 N165 1.995 . S
Co164 N170 2.008 . S
Co164 N175 1.995 . S
Co164 N180 2.282 . S
Co164 N186 2.282 . S
N165 Co164 1.995 . S
N165 C166 1.376 . S
N165 C169 1.383 . S
C166 N165 1.376 . S
C166 C167 1.446 . S
C166 C196 1.391 . S
C167 C166 1.446 . S
C167 C168 1.339 . S
C167 H202 0.949 . S
C168 C167 1.339 . S
C168 C169 1.439 . S
C168 H203 0.950 . S
C169 N165 1.383 . S
C169 C168 1.439 . S
C169 C198 1.392 . S
N170 Co164 2.008 . S
N170 C171 1.376 . S
N170 C174 1.374 . S
C171 N170 1.376 . S
C171 C172 1.443 . S
C171 C198 1.389 . S
C172 C171 1.443 . S
C172 C173 1.340 . S
C172 H204 0.951 . S
C173 C172 1.340 . S
C173 C174 1.439 . S
C173 H205 0.950 . S
C174 N170 1.374 . S
C174 C173 1.439 . S
C174 C199 1.395 . S
N175 Co164 1.995 . S
N175 C176 1.376 . S
N175 C179 1.383 . S
C176 N175 1.376 . S
C176 C177 1.446 . S
C176 C199 1.391 . S
C177 C176 1.446 . S
C177 C178 1.339 . S
C177 H206 0.949 . S
C178 C177 1.339 . S
C178 C179 1.439 . S
C178 H207 0.950 . S
C179 N175 1.383 . S
C179 C178 1.439 . S
C179 C197 1.392 1_545 S
N180 Co164 2.282 . S
N180 C183 1.332 . S
N180 C185 1.332 . S
C181 C182 1.386 . S
C181 C184 1.388 . S
C182 C181 1.386 . S
C182 C183 1.382 . S
C182 H208 0.950 . S
C183 N180 1.332 . S
C183 C182 1.382 . S
C183 H194 0.952 . S
C184 C181 1.388 . S
C184 C185 1.382 . S
C184 H209 0.950 . S
C185 N180 1.332 . S
C185 C184 1.382 . S
C185 H195 0.948 . S
N186 Co164 2.282 . S
N186 C190 1.332 . S
N186 C191 1.332 . S
C187 C188 1.388 . S
C187 C191 1.382 . S
C187 H210 0.950 . S
C188 C187 1.388 . S
C188 C189 1.386 . S
C189 C188 1.386 . S
C189 C190 1.382 . S
C189 H211 0.950 . S
C190 N186 1.332 . S
C190 C189 1.382 . S
C190 H192 0.952 . S
C191 N186 1.332 . S
C191 C187 1.382 . S
C191 H193 0.948 . S
H192 C190 0.952 . S
H193 C191 0.948 . S
H194 C183 0.952 . S
H195 C185 0.948 . S
C196 C162 1.395 . S
C196 C166 1.391 . S
C197 C159 1.389 . S
C197 C179 1.392 1_565 S
C198 C169 1.392 . S
C198 C171 1.389 . S
C199 C174 1.395 . S
C199 C176 1.391 . S
H200 C160 0.951 . S
H201 C161 0.950 . S
H202 C167 0.949 . S
H203 C168 0.950 . S
H204 C172 0.951 . S
H205 C173 0.950 . S
H206 C177 0.949 . S
H207 C178 0.950 . S
H208 C182 0.950 . S
H209 C184 0.950 . S
H210 C187 0.950 . S
H211 C189 0.950 . S
C212 C213 1.443 . S
C212 N216 1.376 . S
C212 C250 1.389 . S
C213 C212 1.443 . S
C213 C214 1.340 . S
C213 H253 0.951 . S
C214 C213 1.340 . S
C214 C215 1.439 . S
C214 H254 0.950 . S
C215 C214 1.439 . S
C215 N216 1.374 . S
C215 C249 1.395 . S
N216 C212 1.376 . S
N216 C215 1.374 . S
N216 Co217 2.008 . S
Co217 N216 2.008 . S
Co217 N218 1.995 . S
Co217 N223 2.008 . S
Co217 N228 1.995 . S
Co217 N233 2.282 . S
Co217 N239 2.282 . S
N218 Co217 1.995 . S
N218 C219 1.376 . S
N218 C222 1.383 . S
C219 N218 1.376 . S
C219 C220 1.446 . S
C219 C249 1.391 . S
C220 C219 1.446 . S
C220 C221 1.339 . S
C220 H255 0.949 1_556 S
C221 C220 1.339 . S
C221 C222 1.439 . S
C221 H256 0.950 1_556 S
C222 N218 1.383 . S
C222 C221 1.439 . S
C222 C251 1.392 1_455 S
N223 Co217 2.008 . S
N223 C224 1.376 1_455 S
N223 C227 1.374 . S
C224 N223 1.376 1_655 S
C224 C225 1.443 . S
C224 C251 1.389 . S
C225 C224 1.443 . S
C225 C226 1.340 . S
C225 H257 0.951 . S
C226 C225 1.340 . S
C226 C227 1.439 1_655 S
C226 H258 0.950 . S
C227 N223 1.374 . S
C227 C226 1.439 1_455 S
C227 C252 1.395 . S
N228 Co217 1.995 . S
N228 C229 1.376 . S
N228 C232 1.383 . S
C229 N228 1.376 . S
C229 C230 1.446 . S
C229 C252 1.391 . S
C230 C229 1.446 . S
C230 C231 1.339 . S
C230 H259 0.949 . S
C231 C230 1.339 . S
C231 C232 1.439 . S
C231 H260 0.950 . S
C232 N228 1.383 . S
C232 C231 1.439 . S
C232 C250 1.392 . S
N233 Co217 2.282 . S
N233 C236 1.332 . S
N233 C238 1.332 . S
C234 C235 1.386 . S
C234 C237 1.388 . S
C235 C234 1.386 . S
C235 C236 1.382 . S
C235 H261 0.950 . S
C236 N233 1.332 . S
C236 C235 1.382 . S
C236 H247 0.952 . S
C237 C234 1.388 . S
C237 C238 1.382 . S
C237 H262 0.950 . S
C238 N233 1.332 . S
C238 C237 1.382 . S
C238 H248 0.948 . S
N239 Co217 2.282 . S
N239 C243 1.332 . S
N239 C244 1.332 . S
C240 C241 1.388 . S
C240 C244 1.382 . S
C240 H263 0.950 . S
C241 C240 1.388 . S
C241 C242 1.386 . S
C242 C241 1.386 . S
C242 C243 1.382 . S
C242 H264 0.950 . S
C243 N239 1.332 . S
C243 C242 1.382 . S
C243 H245 0.952 . S
C244 N239 1.332 . S
C244 C240 1.382 . S
C244 H246 0.948 . S
H245 C243 0.952 . S
H246 C244 0.948 . S
H247 C236 0.952 . S
H248 C238 0.948 . S
C249 C215 1.395 . S
C249 C219 1.391 . S
C250 C212 1.389 . S
C250 C232 1.392 . S
C251 C222 1.392 1_655 S
C251 C224 1.389 . S
C252 C227 1.395 . S
C252 C229 1.391 . S
H253 C213 0.951 . S
H254 C214 0.950 . S
H255 C220 0.949 1_554 S
H256 C221 0.950 1_554 S
H257 C225 0.951 . S
H258 C226 0.950 . S
H259 C230 0.949 . S
H260 C231 0.950 . S
H261 C235 0.950 . S
H262 C237 0.950 . S
H263 C240 0.950 . S
H264 C242 0.950 . S
C265 C266 1.443 . S
C265 N269 1.376 1_545 S
C265 C303 1.389 . S
C266 C265 1.443 . S
C266 C267 1.340 . S
C266 H306 0.951 . S
C267 C266 1.340 . S
C267 C268 1.439 1_545 S
C267 H307 0.950 . S
C268 C267 1.439 1_565 S
C268 N269 1.374 . S
C268 C302 1.395 . S
N269 C265 1.376 1_565 S
N269 C268 1.374 . S
N269 Co270 2.008 . S
Co270 N269 2.008 . S
Co270 N271 1.995 . S
Co270 N276 2.008 . S
Co270 N281 1.995 . S
Co270 N286 2.282 . S
Co270 N292 2.282 . S
N271 Co270 1.995 . S
N271 C272 1.376 . S
N271 C275 1.383 . S
C272 N271 1.376 . S
C272 C273 1.446 . S
C272 C302 1.391 . S
C273 C272 1.446 . S
C273 C274 1.339 . S
C273 H308 0.949 . S
C274 C273 1.339 . S
C274 C275 1.439 . S
C274 H309 0.950 . S
C275 N271 1.383 . S
C275 C274 1.439 . S
C275 C304 1.392 . S
N276 Co270 2.008 . S
N276 C277 1.376 . S
N276 C280 1.374 . S
C277 N276 1.376 . S
C277 C278 1.443 . S
C277 C304 1.389 . S
C278 C277 1.443 . S
C278 C279 1.340 . S
C278 H310 0.951 . S
C279 C278 1.340 . S
C279 C280 1.439 . S
C279 H311 0.950 . S
C280 N276 1.374 . S
C280 C279 1.439 . S
C280 C305 1.395 . S
N281 Co270 1.995 . S
N281 C282 1.376 . S
N281 C285 1.383 . S
C282 N281 1.376 . S
C282 C283 1.446 . S
C282 C305 1.391 . S
C283 C282 1.446 . S
C283 C284 1.339 . S
C283 H312 0.949 1_554 S
C284 C283 1.339 . S
C284 C285 1.439 . S
C284 H313 0.950 1_554 S
C285 N281 1.383 . S
C285 C284 1.439 . S
C285 C303 1.392 1_565 S
N286 Co270 2.282 . S
N286 C289 1.332 . S
N286 C291 1.332 . S
C287 C288 1.386 . S
C287 C290 1.388 . S
C288 C287 1.386 . S
C288 C289 1.382 . S
C288 H314 0.950 . S
C289 N286 1.332 . S
C289 C288 1.382 . S
C289 H300 0.952 . S
C290 C287 1.388 . S
C290 C291 1.382 . S
C290 H315 0.950 . S
C291 N286 1.332 . S
C291 C290 1.382 . S
C291 H301 0.948 . S
N292 Co270 2.282 . S
N292 C296 1.332 . S
N292 C297 1.332 . S
C293 C294 1.388 . S
C293 C297 1.382 . S
C293 H316 0.950 . S
C294 C293 1.388 . S
C294 C295 1.386 . S
C295 C294 1.386 . S
C295 C296 1.382 . S
C295 H317 0.950 . S
C296 N292 1.332 . S
C296 C295 1.382 . S
C296 H298 0.952 . S
C297 N292 1.332 . S
C297 C293 1.382 . S
C297 H299 0.948 . S
H298 C296 0.952 . S
H299 C297 0.948 . S
H300 C289 0.952 . S
H301 C291 0.948 . S
C302 C268 1.395 . S
C302 C272 1.391 . S
C303 C265 1.389 . S
C303 C285 1.392 1_545 S
C304 C275 1.392 . S
C304 C277 1.389 . S
C305 C280 1.395 . S
C305 C282 1.391 . S
H306 C266 0.951 . S
H307 C267 0.950 . S
H308 C273 0.949 . S
H309 C274 0.950 . S
H310 C278 0.951 . S
H311 C279 0.950 . S
H312 C283 0.949 1_556 S
H313 C284 0.950 1_556 S
H314 C288 0.950 . S
H315 C290 0.950 . S
H316 C293 0.950 . S
H317 C295 0.950 . S
C318 C319 1.443 . S
C318 N322 1.376 . S
C318 C356 1.389 . S
C319 C318 1.443 . S
C319 C320 1.340 . S
C319 H359 0.951 . S
C320 C319 1.340 . S
C320 C321 1.439 . S
C320 H360 0.950 . S
C321 C320 1.439 . S
C321 N322 1.374 . S
C321 C355 1.395 . S
N322 C318 1.376 . S
N322 C321 1.374 . S
N322 Co323 2.008 . S
Co323 N322 2.008 . S
Co323 N324 1.995 . S
Co323 N329 2.008 . S
Co323 N334 1.995 . S
Co323 N339 2.282 . S
Co323 N345 2.282 . S
N324 Co323 1.995 . S
N324 C325 1.376 . S
N324 C328 1.383 . S
C325 N324 1.376 . S
C325 C326 1.446 . S
C325 C355 1.391 . S
C326 C325 1.446 . S
C326 C327 1.339 . S
C326 H361 0.949 1_556 S
C327 C326 1.339 . S
C327 C328 1.439 . S
C327 H362 0.950 1_556 S
C328 N324 1.383 . S
C328 C327 1.439 . S
C328 C357 1.392 1_655 S
N329 Co323 2.008 . S
N329 C330 1.376 1_655 S
N329 C333 1.374 . S
C330 N329 1.376 1_455 S
C330 C331 1.443 . S
C330 C357 1.389 . S
C331 C330 1.443 . S
C331 C332 1.340 . S
C331 H363 0.951 . S
C332 C331 1.340 . S
C332 C333 1.439 1_455 S
C332 H364 0.950 . S
C333 N329 1.374 . S
C333 C332 1.439 1_655 S
C333 C358 1.395 . S
N334 Co323 1.995 . S
N334 C335 1.376 . S
N334 C338 1.383 . S
C335 N334 1.376 . S
C335 C336 1.446 . S
C335 C358 1.391 . S
C336 C335 1.446 . S
C336 C337 1.339 . S
C336 H365 0.949 . S
C337 C336 1.339 . S
C337 C338 1.439 . S
C337 H366 0.950 . S
C338 N334 1.383 . S
C338 C337 1.439 . S
C338 C356 1.392 . S
N339 Co323 2.282 . S
N339 C342 1.332 . S
N339 C344 1.332 . S
C340 C341 1.386 . S
C340 C343 1.388 . S
C341 C340 1.386 . S
C341 C342 1.382 . S
C341 H367 0.950 . S
C342 N339 1.332 . S
C342 C341 1.382 . S
C342 H353 0.952 . S
C343 C340 1.388 . S
C343 C344 1.382 . S
C343 H368 0.950 . S
C344 N339 1.332 . S
C344 C343 1.382 . S
C344 H354 0.948 . S
N345 Co323 2.282 . S
N345 C349 1.332 . S
N345 C350 1.332 . S
C346 C347 1.388 . S
C346 C350 1.382 . S
C346 H369 0.950 . S
C347 C346 1.388 . S
C347 C348 1.386 . S
C348 C347 1.386 . S
C348 C349 1.382 . S
C348 H370 0.950 . S
C349 N345 1.332 . S
C349 C348 1.382 . S
C349 H351 0.952 . S
C350 N345 1.332 . S
C350 C346 1.382 . S
C350 H352 0.948 . S
H351 C349 0.952 . S
H352 C350 0.948 . S
H353 C342 0.952 . S
H354 C344 0.948 . S
C355 C321 1.395 . S
C355 C325 1.391 . S
C356 C318 1.389 . S
C356 C338 1.392 . S
C357 C328 1.392 1_455 S
C357 C330 1.389 . S
C358 C333 1.395 . S
C358 C335 1.391 . S
H359 C319 0.951 . S
H360 C320 0.950 . S
H361 C326 0.949 1_554 S
H362 C327 0.950 1_554 S
H363 C331 0.951 . S
H364 C332 0.950 . S
H365 C336 0.949 . S
H366 C337 0.950 . S
H367 C341 0.950 . S
H368 C343 0.950 . S
H369 C346 0.950 . S
H370 C348 0.950 . S
C371 C372 1.443 . S
C371 N375 1.376 1_565 S
C371 C409 1.389 . S
C372 C371 1.443 . S
C372 C373 1.340 . S
C372 H412 0.951 . S
C373 C372 1.340 . S
C373 C374 1.439 1_565 S
C373 H413 0.950 . S
C374 C373 1.439 1_545 S
C374 N375 1.374 . S
C374 C408 1.395 . S
N375 C371 1.376 1_545 S
N375 C374 1.374 . S
N375 Co376 2.008 . S
Co376 N375 2.008 . S
Co376 N377 1.995 . S
Co376 N382 2.008 . S
Co376 N387 1.995 . S
Co376 N392 2.282 . S
Co376 N398 2.282 . S
N377 Co376 1.995 . S
N377 C378 1.376 . S
N377 C381 1.383 . S
C378 N377 1.376 . S
C378 C379 1.446 . S
C378 C408 1.391 . S
C379 C378 1.446 . S
C379 C380 1.339 . S
C379 H414 0.949 . S
C380 C379 1.339 . S
C380 C381 1.439 . S
C380 H415 0.950 . S
C381 N377 1.383 . S
C381 C380 1.439 . S
C381 C410 1.392 . S
N382 Co376 2.008 . S
N382 C383 1.376 . S
N382 C386 1.374 . S
C383 N382 1.376 . S
C383 C384 1.443 . S
C383 C410 1.389 . S
C384 C383 1.443 . S
C384 C385 1.340 . S
C384 H416 0.951 . S
C385 C384 1.340 . S
C385 C386 1.439 . S
C385 H417 0.950 . S
C386 N382 1.374 . S
C386 C385 1.439 . S
C386 C411 1.395 . S
N387 Co376 1.995 . S
N387 C388 1.376 . S
N387 C391 1.383 . S
C388 N387 1.376 . S
C388 C389 1.446 . S
C388 C411 1.391 . S
C389 C388 1.446 . S
C389 C390 1.339 . S
C389 H418 0.949 1_554 S
C390 C389 1.339 . S
C390 C391 1.439 . S
C390 H419 0.950 1_554 S
C391 N387 1.383 . S
C391 C390 1.439 . S
C391 C409 1.392 1_545 S
N392 Co376 2.282 . S
N392 C395 1.332 . S
N392 C397 1.332 . S
C393 C394 1.386 . S
C393 C396 1.388 . S
C394 C393 1.386 . S
C394 C395 1.382 . S
C394 H420 0.950 . S
C395 N392 1.332 . S
C395 C394 1.382 . S
C395 H406 0.952 . S
C396 C393 1.388 . S
C396 C397 1.382 . S
C396 H421 0.950 . S
C397 N392 1.332 . S
C397 C396 1.382 . S
C397 H407 0.948 . S
N398 Co376 2.282 . S
N398 C402 1.332 . S
N398 C403 1.332 . S
C399 C400 1.388 . S
C399 C403 1.382 . S
C399 H422 0.950 . S
C400 C399 1.388 . S
C400 C401 1.386 . S
C401 C400 1.386 . S
C401 C402 1.382 . S
C401 H423 0.950 . S
C402 N398 1.332 . S
C402 C401 1.382 . S
C402 H404 0.952 . S
C403 N398 1.332 . S
C403 C399 1.382 . S
C403 H405 0.948 . S
H404 C402 0.952 . S
H405 C403 0.948 . S
H406 C395 0.952 . S
H407 C397 0.948 . S
C408 C374 1.395 . S
C408 C378 1.391 . S
C409 C371 1.389 . S
C409 C391 1.392 1_565 S
C410 C381 1.392 . S
C410 C383 1.389 . S
C411 C386 1.395 . S
C411 C388 1.391 . S
H412 C372 0.951 . S
H413 C373 0.950 . S
H414 C379 0.949 . S
H415 C380 0.950 . S
H416 C384 0.951 . S
H417 C385 0.950 . S
H418 C389 0.949 1_556 S
H419 C390 0.950 1_556 S
H420 C394 0.950 . S
H421 C396 0.950 . S
H422 C399 0.950 . S
H423 C401 0.950 . S
C424 C425 1.443 . S
C424 N428 1.376 . S
C424 C462 1.389 . S
C425 C424 1.443 . S
C425 C426 1.340 . S
C425 H465 0.951 . S
C426 C425 1.340 . S
C426 C427 1.439 . S
C426 H466 0.950 . S
C427 C426 1.439 . S
C427 N428 1.374 . S
C427 C461 1.395 . S
N428 C424 1.376 . S
N428 C427 1.374 . S
N428 Co429 2.008 . S
Co429 N428 2.008 . S
Co429 N430 1.995 . S
Co429 N435 2.008 . S
Co429 N440 1.995 . S
Co429 N445 2.282 . S
Co429 N451 2.282 . S
N430 Co429 1.995 . S
N430 C431 1.376 . S
N430 C434 1.383 . S
C431 N430 1.376 . S
C431 C432 1.446 . S
C431 C461 1.391 . S
C432 C431 1.446 . S
C432 C433 1.339 . S
C432 H467 0.949 . S
C433 C432 1.339 . S
C433 C434 1.439 . S
C433 H468 0.950 . S
C434 N430 1.383 . S
C434 C433 1.439 . S
C434 C463 1.392 . S
N435 Co429 2.008 . S
N435 C436 1.376 . S
N435 C439 1.374 . S
C436 N435 1.376 . S
C436 C437 1.443 . S
C436 C463 1.389 . S
C437 C436 1.443 . S
C437 C438 1.340 . S
C437 H469 0.951 . S
C438 C437 1.340 . S
C438 C439 1.439 . S
C438 H470 0.950 . S
C439 N435 1.374 . S
C439 C438 1.439 . S
C439 C464 1.395 . S
N440 Co429 1.995 . S
N440 C441 1.376 . S
N440 C444 1.383 . S
C441 N440 1.376 . S
C441 C442 1.446 . S
C441 C464 1.391 . S
C442 C441 1.446 . S
C442 C443 1.339 . S
C442 H471 0.949 . S
C443 C442 1.339 . S
C443 C444 1.439 . S
C443 H472 0.950 . S
C444 N440 1.383 . S
C444 C443 1.439 . S
C444 C462 1.392 . S
N445 Co429 2.282 . S
N445 C448 1.332 . S
N445 C450 1.332 . S
C446 C447 1.386 . S
C446 C449 1.388 . S
C447 C446 1.386 . S
C447 C448 1.382 . S
C447 H473 0.950 . S
C448 N445 1.332 . S
C448 C447 1.382 . S
C448 H459 0.952 . S
C449 C446 1.388 . S
C449 C450 1.382 . S
C449 H474 0.950 . S
C450 N445 1.332 . S
C450 C449 1.382 . S
C450 H460 0.948 . S
N451 Co429 2.282 . S
N451 C455 1.332 . S
N451 C456 1.332 . S
C452 C453 1.388 . S
C452 C456 1.382 . S
C452 H475 0.950 . S
C453 C452 1.388 . S
C453 C454 1.386 . S
C454 C453 1.386 . S
C454 C455 1.382 . S
C454 H476 0.950 . S
C455 N451 1.332 . S
C455 C454 1.382 . S
C455 H457 0.952 . S
C456 N451 1.332 . S
C456 C452 1.382 . S
C456 H458 0.948 . S
H457 C455 0.952 . S
H458 C456 0.948 . S
H459 C448 0.952 . S
H460 C450 0.948 . S
C461 C427 1.395 . S
C461 C431 1.391 . S
C462 C424 1.389 . S
C462 C444 1.392 . S
C463 C434 1.392 . S
C463 C436 1.389 . S
C464 C439 1.395 . S
C464 C441 1.391 . S
H465 C425 0.951 . S
H466 C426 0.950 . S
H467 C432 0.949 . S
H468 C433 0.950 . S
H469 C437 0.951 . S
H470 C438 0.950 . S
H471 C442 0.949 . S
H472 C443 0.950 . S
H473 C447 0.950 . S
H474 C449 0.950 . S
H475 C452 0.950 . S
H476 C454 0.950 . S
C477 C478 1.443 . S
C477 N481 1.376 . S
C477 C515 1.389 . S
C478 C477 1.443 . S
C478 C479 1.340 . S
C478 H518 0.951 . S
C479 C478 1.340 . S
C479 C480 1.439 . S
C479 H519 0.950 . S
C480 C479 1.439 . S
C480 N481 1.374 . S
C480 C514 1.395 . S
N481 C477 1.376 . S
N481 C480 1.374 . S
N481 Co482 2.008 . S
Co482 N481 2.008 . S
Co482 N483 1.995 . S
Co482 N488 2.008 . S
Co482 N493 1.995 . S
Co482 N498 2.282 . S
Co482 N504 2.282 . S
N483 Co482 1.995 . S
N483 C484 1.376 . S
N483 C487 1.383 . S
C484 N483 1.376 . S
C484 C485 1.446 . S
C484 C514 1.391 . S
C485 C484 1.446 . S
C485 C486 1.339 . S
C485 H520 0.949 . S
C486 C485 1.339 . S
C486 C487 1.439 . S
C486 H521 0.950 . S
C487 N483 1.383 . S
C487 C486 1.439 . S
C487 C516 1.392 . S
N488 Co482 2.008 . S
N488 C489 1.376 . S
N488 C492 1.374 . S
C489 N488 1.376 . S
C489 C490 1.443 . S
C489 C516 1.389 . S
C490 C489 1.443 . S
C490 C491 1.340 . S
C490 H522 0.951 . S
C491 C490 1.340 . S
C491 C492 1.439 . S
C491 H523 0.950 . S
C492 N488 1.374 . S
C492 C491 1.439 . S
C492 C517 1.395 . S
N493 Co482 1.995 . S
N493 C494 1.376 . S
N493 C497 1.383 . S
C494 N493 1.376 . S
C494 C495 1.446 . S
C494 C517 1.391 . S
C495 C494 1.446 . S
C495 C496 1.339 . S
C495 H524 0.949 . S
C496 C495 1.339 . S
C496 C497 1.439 . S
C496 H525 0.950 . S
C497 N493 1.383 . S
C497 C496 1.439 . S
C497 C515 1.392 . S
N498 Co482 2.282 . S
N498 C501 1.332 . S
N498 C503 1.332 . S
C499 C500 1.386 . S
C499 C502 1.388 . S
C500 C499 1.386 . S
C500 C501 1.382 . S
C500 H526 0.950 . S
C501 N498 1.332 . S
C501 C500 1.382 . S
C501 H512 0.952 . S
C502 C499 1.388 . S
C502 C503 1.382 . S
C502 H527 0.950 . S
C503 N498 1.332 . S
C503 C502 1.382 . S
C503 H513 0.948 . S
N504 Co482 2.282 . S
N504 C508 1.332 . S
N504 C509 1.332 . S
C505 C506 1.388 . S
C505 C509 1.382 . S
C505 H528 0.950 . S
C506 C505 1.388 . S
C506 C507 1.386 . S
C507 C506 1.386 . S
C507 C508 1.382 . S
C507 H529 0.950 . S
C508 N504 1.332 . S
C508 C507 1.382 . S
C508 H510 0.952 . S
C509 N504 1.332 . S
C509 C505 1.382 . S
C509 H511 0.948 . S
H510 C508 0.952 . S
H511 C509 0.948 . S
H512 C501 0.952 . S
H513 C503 0.948 . S
C514 C480 1.395 . S
C514 C484 1.391 . S
C515 C477 1.389 . S
C515 C497 1.392 . S
C516 C487 1.392 . S
C516 C489 1.389 . S
C517 C492 1.395 . S
C517 C494 1.391 . S
H518 C478 0.951 . S
H519 C479 0.950 . S
H520 C485 0.949 . S
H521 C486 0.950 . S
H522 C490 0.951 . S
H523 C491 0.950 . S
H524 C495 0.949 . S
H525 C496 0.950 . S
H526 C500 0.950 . S
H527 C502 0.950 . S
H528 C505 0.950 . S
H529 C507 0.950 . S
C530 C531 1.443 . S
C530 N534 1.376 . S
C530 C568 1.389 . S
C531 C530 1.443 . S
C531 C532 1.340 . S
C531 H571 0.951 . S
C532 C531 1.340 . S
C532 C533 1.439 . S
C532 H572 0.950 . S
C533 C532 1.439 . S
C533 N534 1.374 . S
C533 C567 1.395 . S
N534 C530 1.376 . S
N534 C533 1.374 . S
N534 Co535 2.008 . S
Co535 N534 2.008 . S
Co535 N536 1.995 . S
Co535 N541 2.008 . S
Co535 N546 1.995 . S
Co535 N551 2.282 . S
Co535 N557 2.282 . S
N536 Co535 1.995 . S
N536 C537 1.376 . S
N536 C540 1.383 . S
C537 N536 1.376 . S
C537 C538 1.446 . S
C537 C567 1.391 . S
C538 C537 1.446 . S
C538 C539 1.339 . S
C538 H573 0.949 . S
C539 C538 1.339 . S
C539 C540 1.439 . S
C539 H574 0.950 . S
C540 N536 1.383 . S
C540 C539 1.439 . S
C540 C569 1.392 . S
N541 Co535 2.008 . S
N541 C542 1.376 . S
N541 C545 1.374 . S
C542 N541 1.376 . S
C542 C543 1.443 . S
C542 C569 1.389 . S
C543 C542 1.443 . S
C543 C544 1.340 . S
C543 H575 0.951 . S
C544 C543 1.340 . S
C544 C545 1.439 . S
C544 H576 0.950 . S
C545 N541 1.374 . S
C545 C544 1.439 . S
C545 C570 1.395 . S
N546 Co535 1.995 . S
N546 C547 1.376 . S
N546 C550 1.383 . S
C547 N546 1.376 . S
C547 C548 1.446 . S
C547 C570 1.391 . S
C548 C547 1.446 . S
C548 C549 1.339 . S
C548 H577 0.949 . S
C549 C548 1.339 . S
C549 C550 1.439 . S
C549 H578 0.950 . S
C550 N546 1.383 . S
C550 C549 1.439 . S
C550 C568 1.392 . S
N551 Co535 2.282 . S
N551 C554 1.332 . S
N551 C556 1.332 . S
C552 C553 1.386 . S
C552 C555 1.388 . S
C553 C552 1.386 . S
C553 C554 1.382 . S
C553 H579 0.950 . S
C554 N551 1.332 . S
C554 C553 1.382 . S
C554 H565 0.952 . S
C555 C552 1.388 . S
C555 C556 1.382 . S
C555 H580 0.950 . S
C556 N551 1.332 . S
C556 C555 1.382 . S
C556 H566 0.948 . S
N557 Co535 2.282 . S
N557 C561 1.332 . S
N557 C562 1.332 . S
C558 C559 1.388 . S
C558 C562 1.382 . S
C558 H581 0.950 . S
C559 C558 1.388 . S
C559 C560 1.386 . S
C560 C559 1.386 . S
C560 C561 1.382 . S
C560 H582 0.950 . S
C561 N557 1.332 . S
C561 C560 1.382 . S
C561 H563 0.952 . S
C562 N557 1.332 . S
C562 C558 1.382 . S
C562 H564 0.948 . S
H563 C561 0.952 . S
H564 C562 0.948 . S
H565 C554 0.952 . S
H566 C556 0.948 . S
C567 C533 1.395 . S
C567 C537 1.391 . S
C568 C530 1.389 . S
C568 C550 1.392 . S
C569 C540 1.392 . S
C569 C542 1.389 . S
C570 C545 1.395 . S
C570 C547 1.391 . S
H571 C531 0.951 . S
H572 C532 0.950 . S
H573 C538 0.949 . S
H574 C539 0.950 . S
H575 C543 0.951 . S
H576 C544 0.950 . S
H577 C548 0.949 . S
H578 C549 0.950 . S
H579 C553 0.950 . S
H580 C555 0.950 . S
H581 C558 0.950 . S
H582 C560 0.950 . S
C583 C584 1.443 . S
C583 N587 1.376 . S
C583 C621 1.389 . S
C584 C583 1.443 . S
C584 C585 1.340 . S
C584 H624 0.951 . S
C585 C584 1.340 . S
C585 C586 1.439 . S
C585 H625 0.950 . S
C586 C585 1.439 . S
C586 N587 1.374 . S
C586 C620 1.395 . S
N587 C583 1.376 . S
N587 C586 1.374 . S
N587 Co588 2.008 . S
Co588 N587 2.008 . S
Co588 N589 1.995 . S
Co588 N594 2.008 . S
Co588 N599 1.995 . S
Co588 N604 2.282 . S
Co588 N610 2.282 . S
N589 Co588 1.995 . S
N589 C590 1.376 . S
N589 C593 1.383 . S
C590 N589 1.376 . S
C590 C591 1.446 . S
C590 C620 1.391 . S
C591 C590 1.446 . S
C591 C592 1.339 . S
C591 H626 0.949 . S
C592 C591 1.339 . S
C592 C593 1.439 . S
C592 H627 0.950 . S
C593 N589 1.383 . S
C593 C592 1.439 . S
C593 C622 1.392 . S
N594 Co588 2.008 . S
N594 C595 1.376 . S
N594 C598 1.374 . S
C595 N594 1.376 . S
C595 C596 1.443 . S
C595 C622 1.389 . S
C596 C595 1.443 . S
C596 C597 1.340 . S
C596 H628 0.951 . S
C597 C596 1.340 . S
C597 C598 1.439 . S
C597 H629 0.950 . S
C598 N594 1.374 . S
C598 C597 1.439 . S
C598 C623 1.395 . S
N599 Co588 1.995 . S
N599 C600 1.376 . S
N599 C603 1.383 . S
C600 N599 1.376 . S
C600 C601 1.446 . S
C600 C623 1.391 . S
C601 C600 1.446 . S
C601 C602 1.339 . S
C601 H630 0.949 . S
C602 C601 1.339 . S
C602 C603 1.439 . S
C602 H631 0.950 . S
C603 N599 1.383 . S
C603 C602 1.439 . S
C603 C621 1.392 . S
N604 Co588 2.282 . S
N604 C607 1.332 . S
N604 C609 1.332 . S
C605 C606 1.386 . S
C605 C608 1.388 . S
C606 C605 1.386 . S
C606 C607 1.382 . S
C606 H632 0.950 . S
C607 N604 1.332 . S
C607 C606 1.382 . S
C607 H618 0.952 . S
C608 C605 1.388 . S
C608 C609 1.382 . S
C608 H633 0.950 . S
C609 N604 1.332 . S
C609 C608 1.382 . S
C609 H619 0.948 . S
N610 Co588 2.282 . S
N610 C614 1.332 . S
N610 C615 1.332 . S
C611 C612 1.388 . S
C611 C615 1.382 . S
C611 H634 0.950 . S
C612 C611 1.388 . S
C612 C613 1.386 . S
C613 C612 1.386 . S
C613 C614 1.382 . S
C613 H635 0.950 . S
C614 N610 1.332 . S
C614 C613 1.382 . S
C614 H616 0.952 . S
C615 N610 1.332 . S
C615 C611 1.382 . S
C615 H617 0.948 . S
H616 C614 0.952 . S
H617 C615 0.948 . S
H618 C607 0.952 . S
H619 C609 0.948 . S
C620 C586 1.395 . S
C620 C590 1.391 . S
C621 C583 1.389 . S
C621 C603 1.392 . S
C622 C593 1.392 . S
C622 C595 1.389 . S
C623 C598 1.395 . S
C623 C600 1.391 . S
H624 C584 0.951 . S
H625 C585 0.950 . S
H626 C591 0.949 . S
H627 C592 0.950 . S
H628 C596 0.951 . S
H629 C597 0.950 . S
H630 C601 0.949 . S
H631 C602 0.950 . S
H632 C606 0.950 . S
H633 C608 0.950 . S
H634 C611 0.950 . S
H635 C613 0.950 . S
C636 C637 1.443 . S
C636 N640 1.376 . S
C636 C674 1.389 . S
C637 C636 1.443 . S
C637 C638 1.340 . S
C637 H677 0.951 . S
C638 C637 1.340 . S
C638 C639 1.439 . S
C638 H678 0.950 . S
C639 C638 1.439 . S
C639 N640 1.374 . S
C639 C673 1.395 . S
N640 C636 1.376 . S
N640 C639 1.374 . S
N640 Co641 2.008 . S
Co641 N640 2.008 . S
Co641 N642 1.995 . S
Co641 N647 2.008 . S
Co641 N652 1.995 . S
Co641 N657 2.282 . S
Co641 N663 2.282 . S
N642 Co641 1.995 . S
N642 C643 1.376 . S
N642 C646 1.383 . S
C643 N642 1.376 . S
C643 C644 1.446 . S
C643 C673 1.391 . S
C644 C643 1.446 . S
C644 C645 1.339 . S
C644 H679 0.949 . S
C645 C644 1.339 . S
C645 C646 1.439 . S
C645 H680 0.950 . S
C646 N642 1.383 . S
C646 C645 1.439 . S
C646 C675 1.392 . S
N647 Co641 2.008 . S
N647 C648 1.376 . S
N647 C651 1.374 . S
C648 N647 1.376 . S
C648 C649 1.443 . S
C648 C675 1.389 . S
C649 C648 1.443 . S
C649 C650 1.340 . S
C649 H681 0.951 . S
C650 C649 1.340 . S
C650 C651 1.439 . S
C650 H682 0.950 . S
C651 N647 1.374 . S
C651 C650 1.439 . S
C651 C676 1.395 . S
N652 Co641 1.995 . S
N652 C653 1.376 . S
N652 C656 1.383 . S
C653 N652 1.376 . S
C653 C654 1.446 . S
C653 C676 1.391 . S
C654 C653 1.446 . S
C654 C655 1.339 . S
C654 H683 0.949 . S
C655 C654 1.339 . S
C655 C656 1.439 . S
C655 H684 0.950 . S
C656 N652 1.383 . S
C656 C655 1.439 . S
C656 C674 1.392 . S
N657 Co641 2.282 . S
N657 C660 1.332 . S
N657 C662 1.332 . S
C658 C659 1.386 . S
C658 C661 1.388 . S
C659 C658 1.386 . S
C659 C660 1.382 . S
C659 H685 0.950 . S
C660 N657 1.332 . S
C660 C659 1.382 . S
C660 H671 0.952 . S
C661 C658 1.388 . S
C661 C662 1.382 . S
C661 H686 0.950 . S
C662 N657 1.332 . S
C662 C661 1.382 . S
C662 H672 0.948 . S
N663 Co641 2.282 . S
N663 C667 1.332 . S
N663 C668 1.332 . S
C664 C665 1.388 . S
C664 C668 1.382 . S
C664 H687 0.950 . S
C665 C664 1.388 . S
C665 C666 1.386 . S
C666 C665 1.386 . S
C666 C667 1.382 . S
C666 H688 0.950 . S
C667 N663 1.332 . S
C667 C666 1.382 . S
C667 H669 0.952 . S
C668 N663 1.332 . S
C668 C664 1.382 . S
C668 H670 0.948 . S
H669 C667 0.952 . S
H670 C668 0.948 . S
H671 C660 0.952 . S
H672 C662 0.948 . S
C673 C639 1.395 . S
C673 C643 1.391 . S
C674 C636 1.389 . S
C674 C656 1.392 . S
C675 C646 1.392 . S
C675 C648 1.389 . S
C676 C651 1.395 . S
C676 C653 1.391 . S
H677 C637 0.951 . S
H678 C638 0.950 . S
H679 C644 0.949 . S
H680 C645 0.950 . S
H681 C649 0.951 . S
H682 C650 0.950 . S
H683 C654 0.949 . S
H684 C655 0.950 . S
H685 C659 0.950 . S
H686 C661 0.950 . S
H687 C664 0.950 . S
H688 C666 0.950 . S
C689 C690 1.443 . S
C689 N693 1.376 . S
C689 C727 1.389 . S
C690 C689 1.443 . S
C690 C691 1.340 . S
C690 H730 0.951 . S
C691 C690 1.340 . S
C691 C692 1.439 . S
C691 H731 0.950 . S
C692 C691 1.439 . S
C692 N693 1.374 . S
C692 C726 1.395 . S
N693 C689 1.376 . S
N693 C692 1.374 . S
N693 Co694 2.008 . S
Co694 N693 2.008 . S
Co694 N695 1.995 . S
Co694 N700 2.008 . S
Co694 N705 1.995 . S
Co694 N710 2.282 . S
Co694 N716 2.282 . S
N695 Co694 1.995 . S
N695 C696 1.376 . S
N695 C699 1.383 . S
C696 N695 1.376 . S
C696 C697 1.446 . S
C696 C726 1.391 . S
C697 C696 1.446 . S
C697 C698 1.339 . S
C697 H732 0.949 . S
C698 C697 1.339 . S
C698 C699 1.439 . S
C698 H733 0.950 . S
C699 N695 1.383 . S
C699 C698 1.439 . S
C699 C728 1.392 . S
N700 Co694 2.008 . S
N700 C701 1.376 . S
N700 C704 1.374 . S
C701 N700 1.376 . S
C701 C702 1.443 . S
C701 C728 1.389 . S
C702 C701 1.443 . S
C702 C703 1.340 . S
C702 H734 0.951 . S
C703 C702 1.340 . S
C703 C704 1.439 . S
C703 H735 0.950 . S
C704 N700 1.374 . S
C704 C703 1.439 . S
C704 C729 1.395 . S
N705 Co694 1.995 . S
N705 C706 1.376 . S
N705 C709 1.383 . S
C706 N705 1.376 . S
C706 C707 1.446 . S
C706 C729 1.391 . S
C707 C706 1.446 . S
C707 C708 1.339 . S
C707 H736 0.949 . S
C708 C707 1.339 . S
C708 C709 1.439 . S
C708 H737 0.950 . S
C709 N705 1.383 . S
C709 C708 1.439 . S
C709 C727 1.392 . S
N710 Co694 2.282 . S
N710 C713 1.332 . S
N710 C715 1.332 . S
C711 C712 1.386 . S
C711 C714 1.388 . S
C712 C711 1.386 . S
C712 C713 1.382 . S
C712 H738 0.950 . S
C713 N710 1.332 . S
C713 C712 1.382 . S
C713 H724 0.952 . S
C714 C711 1.388 . S
C714 C715 1.382 . S
C714 H739 0.950 . S
C715 N710 1.332 . S
C715 C714 1.382 . S
C715 H725 0.948 . S
N716 Co694 2.282 . S
N716 C720 1.332 . S
N716 C721 1.332 . S
C717 C718 1.388 . S
C717 C721 1.382 . S
C717 H740 0.950 . S
C718 C717 1.388 . S
C718 C719 1.386 . S
C719 C718 1.386 . S
C719 C720 1.382 . S
C719 H741 0.950 . S
C720 N716 1.332 . S
C720 C719 1.382 . S
C720 H722 0.952 . S
C721 N716 1.332 . S
C721 C717 1.382 . S
C721 H723 0.948 . S
H722 C720 0.952 . S
H723 C721 0.948 . S
H724 C713 0.952 . S
H725 C715 0.948 . S
C726 C692 1.395 . S
C726 C696 1.391 . S
C727 C689 1.389 . S
C727 C709 1.392 . S
C728 C699 1.392 . S
C728 C701 1.389 . S
C729 C704 1.395 . S
C729 C706 1.391 . S
H730 C690 0.951 . S
H731 C691 0.950 . S
H732 C697 0.949 . S
H733 C698 0.950 . S
H734 C702 0.951 . S
H735 C703 0.950 . S
H736 C707 0.949 . S
H737 C708 0.950 . S
H738 C712 0.950 . S
H739 C714 0.950 . S
H740 C717 0.950 . S
H741 C719 0.950 . S
C742 C743 1.443 . S
C742 N746 1.376 . S
C742 C780 1.389 . S
C743 C742 1.443 . S
C743 C744 1.340 . S
C743 H783 0.951 . S
C744 C743 1.340 . S
C744 C745 1.439 . S
C744 H784 0.950 . S
C745 C744 1.439 . S
C745 N746 1.374 . S
C745 C779 1.395 . S
N746 C742 1.376 . S
N746 C745 1.374 . S
N746 Co747 2.008 . S
Co747 N746 2.008 . S
Co747 N748 1.995 . S
Co747 N753 2.008 . S
Co747 N758 1.995 . S
Co747 N763 2.282 . S
Co747 N769 2.282 . S
N748 Co747 1.995 . S
N748 C749 1.376 . S
N748 C752 1.383 . S
C749 N748 1.376 . S
C749 C750 1.446 . S
C749 C779 1.391 . S
C750 C749 1.446 . S
C750 C751 1.339 . S
C750 H785 0.949 . S
C751 C750 1.339 . S
C751 C752 1.439 . S
C751 H786 0.950 . S
C752 N748 1.383 . S
C752 C751 1.439 . S
C752 C781 1.392 . S
N753 Co747 2.008 . S
N753 C754 1.376 . S
N753 C757 1.374 . S
C754 N753 1.376 . S
C754 C755 1.443 . S
C754 C781 1.389 . S
C755 C754 1.443 . S
C755 C756 1.340 . S
C755 H787 0.951 . S
C756 C755 1.340 . S
C756 C757 1.439 . S
C756 H788 0.950 . S
C757 N753 1.374 . S
C757 C756 1.439 . S
C757 C782 1.395 . S
N758 Co747 1.995 . S
N758 C759 1.376 . S
N758 C762 1.383 . S
C759 N758 1.376 . S
C759 C760 1.446 . S
C759 C782 1.391 . S
C760 C759 1.446 . S
C760 C761 1.339 . S
C760 H789 0.949 . S
C761 C760 1.339 . S
C761 C762 1.439 . S
C761 H790 0.950 . S
C762 N758 1.383 . S
C762 C761 1.439 . S
C762 C780 1.392 . S
N763 Co747 2.282 . S
N763 C766 1.332 . S
N763 C768 1.332 . S
C764 C765 1.386 . S
C764 C767 1.388 . S
C765 C764 1.386 . S
C765 C766 1.382 . S
C765 H791 0.950 . S
C766 N763 1.332 . S
C766 C765 1.382 . S
C766 H777 0.952 . S
C767 C764 1.388 . S
C767 C768 1.382 . S
C767 H792 0.950 . S
C768 N763 1.332 . S
C768 C767 1.382 . S
C768 H778 0.948 . S
N769 Co747 2.282 . S
N769 C773 1.332 . S
N769 C774 1.332 . S
C770 C771 1.388 . S
C770 C774 1.382 . S
C770 H793 0.950 . S
C771 C770 1.388 . S
C771 C772 1.386 . S
C772 C771 1.386 . S
C772 C773 1.382 . S
C772 H794 0.950 . S
C773 N769 1.332 . S
C773 C772 1.382 . S
C773 H775 0.952 . S
C774 N769 1.332 . S
C774 C770 1.382 . S
C774 H776 0.948 . S
H775 C773 0.952 . S
H776 C774 0.948 . S
H777 C766 0.952 . S
H778 C768 0.948 . S
C779 C745 1.395 . S
C779 C749 1.391 . S
C780 C742 1.389 . S
C780 C762 1.392 . S
C781 C752 1.392 . S
C781 C754 1.389 . S
C782 C757 1.395 . S
C782 C759 1.391 . S
H783 C743 0.951 . S
H784 C744 0.950 . S
H785 C750 0.949 . S
H786 C751 0.950 . S
H787 C755 0.951 . S
H788 C756 0.950 . S
H789 C760 0.949 . S
H790 C761 0.950 . S
H791 C765 0.950 . S
H792 C767 0.950 . S
H793 C770 0.950 . S
H794 C772 0.950 . S
C795 C796 1.443 . S
C795 N799 1.376 . S
C795 C833 1.389 . S
C796 C795 1.443 . S
C796 C797 1.340 . S
C796 H836 0.951 . S
C797 C796 1.340 . S
C797 C798 1.439 . S
C797 H837 0.950 . S
C798 C797 1.439 . S
C798 N799 1.374 . S
C798 C832 1.395 . S
N799 C795 1.376 . S
N799 C798 1.374 . S
N799 Co800 2.008 . S
Co800 N799 2.008 . S
Co800 N801 1.995 . S
Co800 N806 2.008 . S
Co800 N811 1.995 . S
Co800 N816 2.282 . S
Co800 N822 2.282 . S
N801 Co800 1.995 . S
N801 C802 1.376 . S
N801 C805 1.383 . S
C802 N801 1.376 . S
C802 C803 1.446 . S
C802 C832 1.391 . S
C803 C802 1.446 . S
C803 C804 1.339 . S
C803 H838 0.949 . S
C804 C803 1.339 . S
C804 C805 1.439 . S
C804 H839 0.950 . S
C805 N801 1.383 . S
C805 C804 1.439 . S
C805 C834 1.392 . S
N806 Co800 2.008 . S
N806 C807 1.376 . S
N806 C810 1.374 . S
C807 N806 1.376 . S
C807 C808 1.443 . S
C807 C834 1.389 . S
C808 C807 1.443 . S
C808 C809 1.340 . S
C808 H840 0.951 . S
C809 C808 1.340 . S
C809 C810 1.439 . S
C809 H841 0.950 . S
C810 N806 1.374 . S
C810 C809 1.439 . S
C810 C835 1.395 . S
N811 Co800 1.995 . S
N811 C812 1.376 . S
N811 C815 1.383 . S
C812 N811 1.376 . S
C812 C813 1.446 . S
C812 C835 1.391 . S
C813 C812 1.446 . S
C813 C814 1.339 . S
C813 H842 0.949 . S
C814 C813 1.339 . S
C814 C815 1.439 . S
C814 H843 0.950 . S
C815 N811 1.383 . S
C815 C814 1.439 . S
C815 C833 1.392 . S
N816 Co800 2.282 . S
N816 C819 1.332 . S
N816 C821 1.332 . S
C817 C818 1.386 . S
C817 C820 1.388 . S
C818 C817 1.386 . S
C818 C819 1.382 . S
C818 H844 0.950 . S
C819 N816 1.332 . S
C819 C818 1.382 . S
C819 H830 0.952 . S
C820 C817 1.388 . S
C820 C821 1.382 . S
C820 H845 0.950 . S
C821 N816 1.332 . S
C821 C820 1.382 . S
C821 H831 0.948 . S
N822 Co800 2.282 . S
N822 C826 1.332 . S
N822 C827 1.332 . S
C823 C824 1.388 . S
C823 C827 1.382 . S
C823 H846 0.950 . S
C824 C823 1.388 . S
C824 C825 1.386 . S
C825 C824 1.386 . S
C825 C826 1.382 . S
C825 H847 0.950 . S
C826 N822 1.332 . S
C826 C825 1.382 . S
C826 H828 0.952 . S
C827 N822 1.332 . S
C827 C823 1.382 . S
C827 H829 0.948 . S
H828 C826 0.952 . S
H829 C827 0.948 . S
H830 C819 0.952 . S
H831 C821 0.948 . S
C832 C798 1.395 . S
C832 C802 1.391 . S
C833 C795 1.389 . S
C833 C815 1.392 . S
C834 C805 1.392 . S
C834 C807 1.389 . S
C835 C810 1.395 . S
C835 C812 1.391 . S
H836 C796 0.951 . S
H837 C797 0.950 . S
H838 C803 0.949 . S
H839 C804 0.950 . S
H840 C808 0.951 . S
H841 C809 0.950 . S
H842 C813 0.949 . S
H843 C814 0.950 . S
H844 C818 0.950 . S
H845 C820 0.950 . S
H846 C823 0.950 . S
H847 C825 0.950 . S
C848 C849 1.387 . S
C848 H852 0.950 . S
C848 C857 1.390 . S
C849 C848 1.387 . S
C849 C851 1.387 . S
H850 C857 0.950 . S
C851 C849 1.387 . S
C851 C853 1.390 . S
C851 H855 0.950 . S
H852 C848 0.950 . S
C853 C851 1.390 . S
C853 C854 1.387 . S
C853 H856 0.950 . S
C854 C853 1.387 . S
C854 C857 1.387 . S
H855 C851 0.950 . S
H856 C853 0.950 . S
C857 C848 1.390 . S
C857 H850 0.950 . S
C857 C854 1.387 . S
C858 C859 1.387 . S
C858 H862 0.950 . S
C858 C867 1.390 . S
C859 C858 1.387 . S
C859 C861 1.387 . S
H860 C867 0.950 . S
C861 C859 1.387 . S
C861 C863 1.390 . S
C861 H865 0.950 . S
H862 C858 0.950 . S
C863 C861 1.390 . S
C863 C864 1.387 . S
C863 H866 0.950 . S
C864 C863 1.387 . S
C864 C867 1.387 . S
H865 C861 0.950 . S
H866 C863 0.950 . S
C867 C858 1.390 . S
C867 H860 0.950 . S
C867 C864 1.387 . S
C868 C869 1.387 . S
C868 H872 0.950 . S
C868 C877 1.390 . S
C869 C868 1.387 . S
C869 C871 1.387 . S
H870 C877 0.950 . S
C871 C869 1.387 . S
C871 C873 1.390 . S
C871 H875 0.950 . S
H872 C868 0.950 . S
C873 C871 1.390 . S
C873 C874 1.387 . S
C873 H876 0.950 . S
C874 C873 1.387 . S
C874 C877 1.387 . S
H875 C871 0.950 . S
H876 C873 0.950 . S
C877 C868 1.390 . S
C877 H870 0.950 . S
C877 C874 1.387 . S
C878 C879 1.387 . S
C878 H882 0.950 . S
C878 C887 1.390 . S
C879 C878 1.387 . S
C879 C881 1.387 . S
H880 C887 0.950 . S
C881 C879 1.387 . S
C881 C883 1.390 . S
C881 H885 0.950 . S
H882 C878 0.950 . S
C883 C881 1.390 . S
C883 C884 1.387 . S
C883 H886 0.950 . S
C884 C883 1.387 . S
C884 C887 1.387 . S
H885 C881 0.950 . S
H886 C883 0.950 . S
C887 C878 1.390 . S
C887 H880 0.950 . S
C887 C884 1.387 . S
C888 C889 1.387 . S
C888 H892 0.950 . S
C888 C897 1.390 1_554 S
C889 C888 1.387 . S
C889 C891 1.387 1_554 S
H890 C897 0.949 . S
C891 C889 1.387 1_556 S
C891 C893 1.390 . S
C891 H895 0.950 1_545 S
H892 C888 0.950 . S
C893 C891 1.390 . S
C893 C894 1.387 . S
C893 H896 0.950 . S
C894 C893 1.387 . S
C894 C897 1.387 . S
H895 C891 0.950 1_565 S
H896 C893 0.950 . S
C897 C888 1.390 1_556 S
C897 H890 0.949 . S
C897 C894 1.387 . S
C898 C899 1.387 . S
C898 H902 0.950 . S
C898 C907 1.381 1_554 S
C899 C898 1.387 . S
C899 C901 1.387 . S
H900 C907 0.952 1_655 S
C901 C899 1.387 . S
C901 C903 1.390 1_554 S
C901 H905 0.950 . S
H902 C898 0.950 . S
C903 C901 1.390 1_556 S
C903 C904 1.387 . S
C903 H906 0.950 . S
C904 C903 1.387 . S
C904 C907 1.395 . S
H905 C901 0.950 . S
H906 C903 0.950 . S
C907 C898 1.381 1_556 S
C907 H900 0.952 1_455 S
C907 C904 1.395 . S
C908 C909 1.387 . S
C908 H912 0.950 . S
C908 C917 1.390 . S
C909 C908 1.387 . S
C909 C911 1.387 . S
H910 C917 0.950 1_545 S
C911 C909 1.387 . S
C911 C913 1.390 1_556 S
C911 H915 0.950 . S
H912 C908 0.950 . S
C913 C911 1.390 1_554 S
C913 C914 1.387 . S
C913 H916 0.950 . S
C914 C913 1.387 . S
C914 C917 1.387 1_554 S
H915 C911 0.950 . S
H916 C913 0.950 . S
C917 C908 1.390 . S
C917 H910 0.950 1_565 S
C917 C914 1.387 1_556 S
C918 C919 1.430 . S
C918 H922 0.943 1_554 S
C918 C927 1.354 1_554 S
C919 C918 1.430 . S
C919 C921 1.387 . S
H920 C927 0.950 . S
C921 C919 1.387 . S
C921 C923 1.390 . S
C921 H925 0.950 . S
H922 C918 0.943 1_556 S
C923 C921 1.390 . S
C923 C924 1.387 1_554 S
C923 H926 0.950 . S
C924 C923 1.387 1_556 S
C924 C927 1.387 . S
H925 C921 0.950 . S
H926 C923 0.950 . S
C927 C918 1.354 1_556 S
C927 H920 0.950 . S
C927 C924 1.387 . S
C928 C929 1.387 . S
C928 H932 0.950 . S
C928 C937 1.390 . S
C929 C928 1.387 . S
C929 C931 1.387 . S
H930 C937 0.950 . S
C931 C929 1.387 . S
C931 C933 1.390 . S
C931 H935 0.950 . S
H932 C928 0.950 . S
C933 C931 1.390 . S
C933 C934 1.387 . S
C933 H936 0.950 1_565 S
C934 C933 1.387 . S
C934 C937 1.387 . S
H935 C931 0.950 . S
H936 C933 0.950 1_545 S
C937 C928 1.390 . S
C937 H930 0.950 . S
C937 C934 1.387 . S
C938 C939 1.387 . S
C938 H942 0.950 . S
C938 C947 1.390 . S
C939 C938 1.387 . S
C939 C941 1.387 . S
H940 C947 0.950 . S
C941 C939 1.387 . S
C941 C943 1.390 . S
C941 H945 0.950 1_655 S
H942 C938 0.950 . S
C943 C941 1.390 . S
C943 C944 1.387 . S
C943 H946 0.950 . S
C944 C943 1.387 . S
C944 C947 1.387 . S
H945 C941 0.950 1_455 S
H946 C943 0.950 . S
C947 C938 1.390 . S
C947 H940 0.950 . S
C947 C944 1.387 . S
C948 C949 1.387 . S
C948 H952 0.950 1_545 S
C948 C957 1.390 . S
C949 C948 1.387 . S
C949 C951 1.387 . S
H950 C957 0.950 . S
C951 C949 1.387 . S
C951 C953 1.390 . S
C951 H955 0.950 . S
H952 C948 0.950 1_565 S
C953 C951 1.390 . S
C953 C954 1.387 . S
C953 H956 0.950 . S
C954 C953 1.387 . S
C954 C957 1.387 . S
H955 C951 0.950 . S
H956 C953 0.950 . S
C957 C948 1.390 . S
C957 H950 0.950 . S
C957 C954 1.387 . S
C958 C959 1.387 . S
C958 H962 0.950 . S
C958 C967 1.390 . S
C959 C958 1.387 . S
C959 C961 1.387 . S
H960 C967 0.950 . S
C961 C959 1.387 . S
C961 C963 1.390 . S
C961 H965 0.950 . S
H962 C958 0.950 . S
C963 C961 1.390 . S
C963 C964 1.387 . S
C963 H966 0.950 . S
C964 C963 1.387 . S
C964 C967 1.387 . S
H965 C961 0.950 . S
H966 C963 0.950 . S
C967 C958 1.390 . S
C967 H960 0.950 . S
C967 C964 1.387 . S
C968 C969 1.387 . S
C968 H972 0.950 . S
C968 C977 1.390 . S
C969 C968 1.387 . S
C969 C971 1.387 . S
H970 C977 0.950 . S
C971 C969 1.387 . S
C971 C973 1.390 . S
C971 H975 0.950 . S
H972 C968 0.950 . S
C973 C971 1.390 . S
C973 C974 1.387 . S
C973 H976 0.950 . S
C974 C973 1.387 . S
C974 C977 1.387 . S
H975 C971 0.950 . S
H976 C973 0.950 . S
C977 C968 1.390 . S
C977 H970 0.950 . S
C977 C974 1.387 . S
C978 C979 1.387 . S
C978 H982 0.950 . S
C978 C987 1.390 . S
C979 C978 1.387 . S
C979 C981 1.387 . S
H980 C987 0.950 . S
C981 C979 1.387 . S
C981 C983 1.390 . S
C981 H985 0.950 . S
H982 C978 0.950 . S
C983 C981 1.390 . S
C983 C984 1.387 . S
C983 H986 0.950 . S
C984 C983 1.387 . S
C984 C987 1.387 . S
H985 C981 0.950 . S
H986 C983 0.950 . S
C987 C978 1.390 . S
C987 H980 0.950 . S
C987 C984 1.387 . S
C988 C989 1.387 . S
C988 H992 0.950 . S
C988 C997 1.390 . S
C989 C988 1.387 . S
C989 C991 1.387 . S
H990 C997 0.950 . S
C991 C989 1.387 . S
C991 C993 1.390 . S
C991 H995 0.950 . S
H992 C988 0.950 . S
C993 C991 1.390 . S
C993 C994 1.387 . S
C993 H996 0.950 . S
C994 C993 1.387 . S
C994 C997 1.387 . S
H995 C991 0.950 . S
H996 C993 0.950 . S
C997 C988 1.390 . S
C997 H990 0.950 . S
C997 C994 1.387 . S
C998 C999 1.387 . S
C998 H1002 0.950 . S
C998 C1007 1.390 . S
C999 C998 1.387 . S
C999 C1001 1.387 . S
H1000 C1007 0.950 . S
C1001 C999 1.387 . S
C1001 C1003 1.390 . S
C1001 H1005 0.950 . S
H1002 C998 0.950 . S
C1003 C1001 1.390 . S
C1003 C1004 1.387 . S
C1003 H1006 0.950 . S
C1004 C1003 1.387 . S
C1004 C1007 1.387 . S
H1005 C1001 0.950 . S
H1006 C1003 0.950 . S
C1007 C998 1.390 . S
C1007 H1000 0.950 . S
C1007 C1004 1.387 . S
C1008 C1009 1.387 . S
C1008 H1012 0.950 . S
C1008 C1017 1.390 . S
C1009 C1008 1.387 . S
C1009 C1011 1.387 . S
H1010 C1017 0.950 . S
C1011 C1009 1.387 . S
C1011 C1013 1.390 . S
C1011 H1015 0.950 . S
H1012 C1008 0.950 . S
C1013 C1011 1.390 . S
C1013 C1014 1.387 . S
C1013 H1016 0.950 . S
C1014 C1013 1.387 . S
C1014 C1017 1.387 . S
H1015 C1011 0.950 . S
H1016 C1013 0.950 . S
C1017 C1008 1.390 . S
C1017 H1010 0.950 . S
C1017 C1014 1.387 . S
C1018 C1019 1.387 . S
C1018 H1022 0.950 . S
C1018 C1027 1.390 . S
C1019 C1018 1.387 . S
C1019 C1021 1.387 . S
H1020 C1027 0.950 . S
C1021 C1019 1.387 . S
C1021 C1023 1.390 . S
C1021 H1025 0.950 . S
H1022 C1018 0.950 . S
C1023 C1021 1.390 . S
C1023 C1024 1.387 . S
C1023 H1026 0.950 . S
C1024 C1023 1.387 . S
C1024 C1027 1.387 . S
H1025 C1021 0.950 . S
H1026 C1023 0.950 . S
C1027 C1018 1.390 . S
C1027 H1020 0.950 . S
C1027 C1024 1.387 . S
C1028 C1029 1.387 . S
C1028 H1032 0.950 . S
C1028 C1037 1.390 . S
C1029 C1028 1.387 . S
C1029 C1031 1.387 . S
H1030 C1037 0.950 . S
C1031 C1029 1.387 . S
C1031 C1033 1.390 . S
C1031 H1035 0.950 . S
H1032 C1028 0.950 . S
C1033 C1031 1.390 . S
C1033 C1034 1.387 . S
C1033 H1036 0.950 . S
C1034 C1033 1.387 . S
C1034 C1037 1.387 . S
H1035 C1031 0.950 . S
H1036 C1033 0.950 . S
C1037 C1028 1.390 . S
C1037 H1030 0.950 . S
C1037 C1034 1.387 . S
C1038 C1039 1.387 . S
C1038 H1042 0.950 . S
C1038 C1047 1.390 . S
C1039 C1038 1.387 . S
C1039 C1041 1.387 . S
H1040 C1047 0.950 . S
C1041 C1039 1.387 . S
C1041 C1043 1.390 . S
C1041 H1045 0.950 . S
H1042 C1038 0.950 . S
C1043 C1041 1.390 . S
C1043 C1044 1.387 . S
C1043 H1046 0.950 . S
C1044 C1043 1.387 . S
C1044 C1047 1.387 . S
H1045 C1041 0.950 . S
H1046 C1043 0.950 . S
C1047 C1038 1.390 . S
C1047 H1040 0.950 . S
C1047 C1044 1.387 . S
C1048 C1049 1.387 . S
C1048 H1052 0.950 . S
C1048 C1057 1.390 . S
C1049 C1048 1.387 . S
C1049 C1051 1.387 . S
H1050 C1057 0.950 . S
C1051 C1049 1.387 . S
C1051 C1053 1.390 . S
C1051 H1055 0.950 . S
H1052 C1048 0.950 . S
C1053 C1051 1.390 . S
C1053 C1054 1.387 . S
C1053 H1056 0.950 . S
C1054 C1053 1.387 . S
C1054 C1057 1.387 . S
H1055 C1051 0.950 . S
H1056 C1053 0.950 . S
C1057 C1048 1.390 . S
C1057 H1050 0.950 . S
C1057 C1054 1.387 . S
C1058 C1059 1.387 . S
C1058 H1062 0.950 . S
C1058 C1067 1.390 . S
C1059 C1058 1.387 . S
C1059 C1061 1.387 . S
H1060 C1067 0.950 . S
C1061 C1059 1.387 . S
C1061 C1063 1.390 . S
C1061 H1065 0.950 . S
H1062 C1058 0.950 . S
C1063 C1061 1.390 . S
C1063 C1064 1.387 . S
C1063 H1066 0.950 . S
C1064 C1063 1.387 . S
C1064 C1067 1.387 . S
H1065 C1061 0.950 . S
H1066 C1063 0.950 . S
C1067 C1058 1.390 . S
C1067 H1060 0.950 . S
C1067 C1064 1.387 . S
C1068 C1069 1.387 . S
C1068 H1072 0.950 . S
C1068 C1077 1.390 . S
C1069 C1068 1.387 . S
C1069 C1071 1.387 . S
H1070 C1077 0.950 . S
C1071 C1069 1.387 . S
C1071 C1073 1.390 . S
C1071 H1075 0.950 . S
H1072 C1068 0.950 . S
C1073 C1071 1.390 . S
C1073 C1074 1.387 . S
C1073 H1076 0.950 . S
C1074 C1073 1.387 . S
C1074 C1077 1.387 . S
H1075 C1071 0.950 . S
H1076 C1073 0.950 . S
C1077 C1068 1.390 . S
C1077 H1070 0.950 . S
C1077 C1074 1.387 . S
C1078 C1079 1.387 . S
C1078 H1082 0.950 . S
C1078 C1087 1.390 . S
C1079 C1078 1.387 . S
C1079 C1081 1.387 . S
H1080 C1087 0.950 . S
C1081 C1079 1.387 . S
C1081 C1083 1.390 . S
C1081 H1085 0.950 . S
H1082 C1078 0.950 . S
C1083 C1081 1.390 . S
C1083 C1084 1.387 . S
C1083 H1086 0.950 . S
C1084 C1083 1.387 . S
C1084 C1087 1.387 . S
H1085 C1081 0.950 . S
H1086 C1083 0.950 . S
C1087 C1078 1.390 . S
C1087 H1080 0.950 . S
C1087 C1084 1.387 . S
C1088 C1089 1.387 . S
C1088 H1092 0.950 . S
C1088 C1097 1.390 1_665 S
C1089 C1088 1.387 . S
C1089 C1091 1.387 . S
H1090 C1097 0.950 . S
C1091 C1089 1.387 . S
C1091 C1093 1.390 1_665 S
C1091 H1095 0.950 . S
H1092 C1088 0.950 . S
C1093 C1091 1.390 1_445 S
C1093 C1094 1.387 . S
C1093 H1096 0.950 . S
C1094 C1093 1.387 . S
C1094 C1097 1.387 . S
H1095 C1091 0.950 . S
H1096 C1093 0.950 . S
C1097 C1088 1.390 1_445 S
C1097 H1090 0.950 . S
C1097 C1094 1.387 . S
C1098 C1099 1.387 . S
C1098 H1102 0.950 . S
C1098 C1107 1.390 1_645 S
C1099 C1098 1.387 . S
C1099 C1101 1.387 . S
H1100 C1107 0.950 . S
C1101 C1099 1.387 . S
C1101 C1103 1.390 1_645 S
C1101 H1105 0.950 . S
H1102 C1098 0.950 . S
C1103 C1101 1.390 1_465 S
C1103 C1104 1.387 . S
C1103 H1106 0.950 . S
C1104 C1103 1.387 . S
C1104 C1107 1.387 . S
H1105 C1101 0.950 . S
H1106 C1103 0.950 . S
C1107 C1098 1.390 1_465 S
C1107 H1100 0.950 . S
C1107 C1104 1.387 . S
C1108 C1109 1.387 . S
C1108 H1112 0.950 . S
C1108 C1117 1.390 1_455 S
C1109 C1108 1.387 . S
C1109 C1111 1.387 . S
H1110 C1117 0.950 . S
C1111 C1109 1.387 . S
C1111 C1113 1.390 1_455 S
C1111 H1115 0.950 . S
H1112 C1108 0.950 . S
C1113 C1111 1.390 1_655 S
C1113 C1114 1.387 . S
C1113 H1116 0.950 . S
C1114 C1113 1.387 . S
C1114 C1117 1.387 . S
H1115 C1111 0.950 . S
H1116 C1113 0.950 . S
C1117 C1108 1.390 1_655 S
C1117 H1110 0.950 . S
C1117 C1114 1.387 . S
C1118 C1119 1.387 . S
C1118 H1122 0.950 . S
C1118 C1127 1.390 1_565 S
C1119 C1118 1.387 . S
C1119 C1121 1.387 . S
H1120 C1127 0.950 . S
C1121 C1119 1.387 . S
C1121 C1123 1.390 1_565 S
C1121 H1125 0.950 . S
H1122 C1118 0.950 . S
C1123 C1121 1.390 1_545 S
C1123 C1124 1.387 . S
C1123 H1126 0.950 . S
C1124 C1123 1.387 . S
C1124 C1127 1.387 . S
H1125 C1121 0.950 . S
H1126 C1123 0.950 . S
C1127 C1118 1.390 1_545 S
C1127 H1120 0.950 . S
C1127 C1124 1.387 . S
C1128 C1129 1.387 . S
C1128 H1132 0.950 . S
C1128 C1137 1.390 . S
C1129 C1128 1.387 . S
C1129 C1131 1.387 . S
H1130 C1137 0.950 . S
C1131 C1129 1.387 . S
C1131 C1133 1.390 . S
C1131 H1135 0.950 . S
H1132 C1128 0.950 . S
C1133 C1131 1.390 . S
C1133 C1134 1.387 . S
C1133 H1136 0.950 . S
C1134 C1133 1.387 . S
C1134 C1137 1.387 . S
H1135 C1131 0.950 . S
H1136 C1133 0.950 . S
C1137 C1128 1.390 . S
C1137 H1130 0.950 . S
C1137 C1134 1.387 . S
C1138 C1139 1.387 . S
C1138 H1142 0.950 . S
C1138 C1147 1.390 . S
C1139 C1138 1.387 . S
C1139 C1141 1.387 . S
H1140 C1147 0.950 . S
C1141 C1139 1.387 . S
C1141 C1143 1.390 . S
C1141 H1145 0.950 . S
H1142 C1138 0.950 . S
C1143 C1141 1.390 . S
C1143 C1144 1.387 . S
C1143 H1146 0.950 . S
C1144 C1143 1.387 . S
C1144 C1147 1.387 . S
H1145 C1141 0.950 . S
H1146 C1143 0.950 . S
C1147 C1138 1.390 . S
C1147 H1140 0.950 . S
C1147 C1144 1.387 . S
C1148 C1149 1.387 . S
C1148 H1152 0.950 . S
C1148 C1157 1.390 1_545 S
C1149 C1148 1.387 . S
C1149 C1151 1.387 . S
H1150 C1157 0.950 . S
C1151 C1149 1.387 . S
C1151 C1153 1.390 1_545 S
C1151 H1155 0.950 . S
H1152 C1148 0.950 . S
C1153 C1151 1.390 1_565 S
C1153 C1154 1.387 . S
C1153 H1156 0.950 . S
C1154 C1153 1.387 . S
C1154 C1157 1.387 . S
H1155 C1151 0.950 . S
H1156 C1153 0.950 . S
C1157 C1148 1.390 1_565 S
C1157 H1150 0.950 . S
C1157 C1154 1.387 . S
C1158 C1159 1.387 . S
C1158 H1162 0.950 . S
C1158 C1167 1.390 1_655 S
C1159 C1158 1.387 . S
C1159 C1161 1.387 . S
H1160 C1167 0.950 . S
C1161 C1159 1.387 . S
C1161 C1163 1.390 1_655 S
C1161 H1165 0.950 . S
H1162 C1158 0.950 . S
C1163 C1161 1.390 1_455 S
C1163 C1164 1.387 . S
C1163 H1166 0.950 . S
C1164 C1163 1.387 . S
C1164 C1167 1.387 . S
H1165 C1161 0.950 . S
H1166 C1163 0.950 . S
C1167 C1158 1.390 1_455 S
C1167 H1160 0.950 . S
C1167 C1164 1.387 . S
C849 C22 1.723 . S
C854 C621 1.809 . S
C859 C463 1.809 . S
C864 C82 1.725 . S
C869 C515 1.807 . S
C874 C128 1.722 . S
C879 C569 1.808 . S
C884 C188 1.724 . S
C889 C303 1.807 . S
C894 C234 1.722 . S
C899 C294 1.723 . S
C904 C357 1.808 . S
C909 C340 1.724 . S
C914 C409 1.809 . S
C919 C400 1.724 . S
C924 C251 1.809 . S
C929 C446 1.723 . S
C934 C197 1.808 . S
C939 C39 1.808 . S
C944 C506 1.722 . S
C949 C91 1.808 . S
C954 C552 1.723 . S
C959 C145 1.807 . S
C964 C612 1.721 . S
C969 C727 1.808 . S
C974 C658 1.723 . S
C979 C718 1.721 . S
C984 C781 1.807 . S
C989 C833 1.809 . S
C994 C764 1.724 . S
C999 C675 1.809 . S
C1004 C824 1.725 . S
C1009 C780 2.047 . S
C1014 C38 2.047 . S
C1019 C834 2.046 . S
C1024 C92 2.046 . S
C1029 C674 2.047 . S
C1034 C144 2.047 . S
C1039 C198 2.047 . S
C1044 C728 2.047 . S
C1049 C250 2.047 . S
C1054 C568 2.047 . S
C1059 C622 2.047 . S
C1064 C304 2.047 . S
C1069 C356 2.046 . S
C1074 C462 2.046 . S
C1079 C410 2.046 . S
C1084 C516 2.046 . S
C1089 C135 1.977 . S
C1094 C29 1.977 . S
C1099 C181 1.977 . S
C1104 C75 1.977 . S
C1109 C241 1.977 . S
C1114 C347 1.977 . S
C1119 C287 1.977 . S
C1124 C393 1.977 . S
C1129 C559 1.977 . S
C1134 C453 1.977 . S
C1139 C499 1.977 . S
C1144 C605 1.977 . S
C1149 C771 1.977 . S
C1154 C665 1.977 . S
C1159 C711 1.977 . S
C1164 C817 1.977 . S
