# Generated by pormake.
# Topology umo, (4)-cn, num edge types: 1
# Building blocks:
#     Node 0, Type 0, BuildingBlock: MUDLON_clean_sbu_0, # of connection points: 4
#     Node 1, Type 0, BuildingBlock: MUDLON_clean_sbu_0, # of connection points: 4
#     Node 2, Type 0, BuildingBlock: MUDLON_clean_sbu_0, # of connection points: 4
#     Node 3, Type 0, BuildingBlock: MUDLON_clean_sbu_0, # of connection points: 4
#     Node 4, Type 0, BuildingBlock: MUDLON_clean_sbu_0, # of connection points: 4
#     Node 5, Type 0, BuildingBlock: MUDLON_clean_sbu_0, # of connection points: 4
#     Node 6, Type 0, BuildingBlock: MUDLON_clean_sbu_0, # of connection points: 4
#     Node 7, Type 0, BuildingBlock: MUDLON_clean_sbu_0, # of connection points: 4
#     Node 8, Type 0, BuildingBlock: MUDLON_clean_sbu_0, # of connection points: 4
#     Node 9, Type 0, BuildingBlock: MUDLON_clean_sbu_0, # of connection points: 4
#     Node 10, Type 0, BuildingBlock: MUDLON_clean_sbu_0, # of connection points: 4
#     Node 11, Type 0, BuildingBlock: MUDLON_clean_sbu_0, # of connection points: 4
#     Edge 12, Type (0, 0), BuildingBlock: KIFKEQ_clean_linker_1, # of connection points: 2
#     Edge 13, Type (0, 0), BuildingBlock: KIFKEQ_clean_linker_1, # of connection points: 2
#     Edge 14, Type (0, 0), BuildingBlock: KIFKEQ_clean_linker_1, # of connection points: 2
#     Edge 15, Type (0, 0), BuildingBlock: KIFKEQ_clean_linker_1, # of connection points: 2
#     Edge 16, Type (0, 0), BuildingBlock: KIFKEQ_clean_linker_1, # of connection points: 2
#     Edge 17, Type (0, 0), BuildingBlock: KIFKEQ_clean_linker_1, # of connection points: 2
#     Edge 18, Type (0, 0), BuildingBlock: KIFKEQ_clean_linker_1, # of connection points: 2
#     Edge 19, Type (0, 0), BuildingBlock: KIFKEQ_clean_linker_1, # of connection points: 2
#     Edge 20, Type (0, 0), BuildingBlock: KIFKEQ_clean_linker_1, # of connection points: 2
#     Edge 21, Type (0, 0), BuildingBlock: KIFKEQ_clean_linker_1, # of connection points: 2
#     Edge 22, Type (0, 0), BuildingBlock: KIFKEQ_clean_linker_1, # of connection points: 2
#     Edge 23, Type (0, 0), BuildingBlock: KIFKEQ_clean_linker_1, # of connection points: 2
#     Edge 24, Type (0, 0), BuildingBlock: KIFKEQ_clean_linker_1, # of connection points: 2
#     Edge 25, Type (0, 0), BuildingBlock: KIFKEQ_clean_linker_1, # of connection points: 2
#     Edge 26, Type (0, 0), BuildingBlock: KIFKEQ_clean_linker_1, # of connection points: 2
#     Edge 27, Type (0, 0), BuildingBlock: KIFKEQ_clean_linker_1, # of connection points: 2
#     Edge 28, Type (0, 0), BuildingBlock: KIFKEQ_clean_linker_1, # of connection points: 2
#     Edge 29, Type (0, 0), BuildingBlock: KIFKEQ_clean_linker_1, # of connection points: 2
#     Edge 30, Type (0, 0), BuildingBlock: KIFKEQ_clean_linker_1, # of connection points: 2
#     Edge 31, Type (0, 0), BuildingBlock: KIFKEQ_clean_linker_1, # of connection points: 2
#     Edge 32, Type (0, 0), BuildingBlock: KIFKEQ_clean_linker_1, # of connection points: 2
#     Edge 33, Type (0, 0), BuildingBlock: KIFKEQ_clean_linker_1, # of connection points: 2
#     Edge 34, Type (0, 0), BuildingBlock: KIFKEQ_clean_linker_1, # of connection points: 2
#     Edge 35, Type (0, 0), BuildingBlock: KIFKEQ_clean_linker_1, # of connection points: 2
# Relax obj value: 0.142
# Max RMSD: 0.179
# Mean RMSD: 0.179
data_MOF--net-umo--node1-MUDLON_clean_sbu_0--edge1-KIFKEQ_clean_linker_1
_symmetry_space_group_name_H-M    P1
_symmetry_Int_Tables_number       1
_symmetry_cell_setting            triclinic
loop_
_symmetry_equiv_pos_as_xyz
'x, y, z'
_cell_length_a     51.074956
_cell_length_b     51.427523
_cell_length_c     39.522612
_cell_angle_alpha  90.001829
_cell_angle_beta   89.991248
_cell_angle_gamma 120.18381
loop_
_atom_site_label
_atom_site_type_symbol
_atom_site_fract_x
_atom_site_fract_y
_atom_site_fract_z
_atom_type_partial_charge
Mg0 Mg 0.16718 0.57524 0.4002 0.0
C1 C 0.14267 0.57037 0.47 0.0
O2 O 0.11988 0.56701 0.45136 0.0
C3 C 0.18861 0.54913 0.34595 0.0
O4 O 0.16458 0.54701 0.33113 0.0
C5 C 0.10428 0.52442 0.387 0.0
O6 O 0.11546 0.51004 0.40355 0.0
O7 O 0.1213 0.55229 0.38091 0.0
O8 O 0.16583 0.57243 0.45533 0.0
O9 O 0.18915 0.62297 0.38993 0.0
C10 C 0.18136 0.63959 0.40565 0.0
O11 O 0.1575 0.62701 0.42545 0.0
O12 O 0.19475 0.55908 0.37611 0.0
Mg13 Mg 0.5973 0.15827 0.5831 0.0
C14 C 0.58183 0.13592 0.65384 0.0
O15 O 0.56114 0.11323 0.63617 0.0
C16 C 0.63461 0.18573 0.52224 0.0
O17 O 0.60702 0.16926 0.51026 0.0
C18 C 0.58697 0.09657 0.57058 0.0
O19 O 0.61333 0.10893 0.58599 0.0
O20 O 0.57465 0.11235 0.56517 0.0
O21 O 0.60238 0.15862 0.63805 0.0
O22 O 0.57012 0.17901 0.57397 0.0
C23 C 0.55151 0.17836 0.59578 0.0
O24 O 0.54569 0.16154 0.62286 0.0
O25 O 0.6387 0.18525 0.55397 0.0
Mg26 Mg 0.42241 0.58983 0.7438 0.0
C27 C 0.4089 0.57219 0.81535 0.0
O28 O 0.39171 0.54711 0.79876 0.0
C29 C 0.44189 0.63209 0.68426 0.0
O30 O 0.44234 0.60901 0.67061 0.0
C31 C 0.46047 0.56019 0.74823 0.0
O32 O 0.45921 0.56553 0.78049 0.0
O33 O 0.44725 0.56817 0.72686 0.0
O34 O 0.42621 0.59588 0.79855 0.0
O35 O 0.3742 0.56043 0.7369 0.0
C36 C 0.35899 0.56211 0.71248 0.0
O37 O 0.37327 0.58052 0.6873 0.0
O38 O 0.43551 0.63104 0.71555 0.0
Mg39 Mg 0.82739 0.42363 0.91174 0.0
C40 C 0.84986 0.43094 0.98285 0.0
O41 O 0.87336 0.43437 0.96556 0.0
C42 C 0.80379 0.43875 0.85081 0.0
O43 O 0.82124 0.42928 0.83793 0.0
C44 C 0.89071 0.47305 0.89677 0.0
O45 O 0.8799 0.48891 0.91072 0.0
O46 O 0.87349 0.44484 0.89351 0.0
O47 O 0.82699 0.42811 0.96673 0.0
O48 O 0.80558 0.37568 0.90342 0.0
C49 C 0.81353 0.35983 0.92045 0.0
O50 O 0.83688 0.37324 0.94089 0.0
O51 O 0.80205 0.43985 0.88287 0.0
Mg52 Mg 0.38385 0.82684 0.08102 0.0
C53 C 0.40154 0.83616 0.15141 0.0
O54 O 0.42662 0.85178 0.13394 0.0
C55 C 0.34767 0.80278 1.01788 0.0
O56 O 0.37335 0.82498 1.00631 0.0
C57 C 0.39971 0.89188 0.08009 0.0
O58 O 0.38109 0.88282 0.10603 0.0
O59 O 0.40477 0.87311 0.06483 0.0
O60 O 0.37647 0.82328 0.13548 0.0
O61 O 0.4166 0.81215 0.07769 0.0
C62 C 0.41242 0.78928 0.06105 0.0
O63 O 0.38932 0.77628 0.0402 0.0
O64 O 0.34469 0.79811 0.04965 0.0
Mg65 Mg 0.57068 0.395 0.24424 0.0
C66 C 0.55786 0.4036 0.31557 0.0
O67 O 0.54868 0.41962 0.29885 0.0
C68 C 0.56016 0.36096 0.18095 0.0
O69 O 0.56597 0.38771 0.17099 0.0
C70 C 0.55319 0.43666 0.20874 0.0
O71 O 0.58078 0.44867 0.1965 0.0
O72 O 0.5435 0.41432 0.22866 0.0
O73 O 0.56652 0.38807 0.29893 0.0
O74 O 0.61846 0.42599 0.23683 0.0
C75 C 0.63321 0.44694 0.25805 0.0
O76 O 0.61837 0.45194 0.2819 0.0
O77 O 0.55954 0.35595 0.21258 0.0
Mg78 Mg 0.43263 0.81978 0.4716 0.0
C79 C 0.4179 0.79791 0.39948 0.0
O80 O 0.39462 0.77549 0.4147 0.0
C81 C 0.42937 0.78239 0.53074 0.0
O82 O 0.41056 0.79164 0.53944 0.0
C83 C 0.47416 0.87527 0.51385 0.0
O84 O 0.47471 0.85542 0.53432 0.0
O85 O 0.45867 0.86639 0.48682 0.0
O86 O 0.43895 0.81825 0.41739 0.0
O87 O 0.38506 0.805 0.47625 0.0
C88 C 0.37359 0.81553 0.45566 0.0
O89 O 0.39158 0.83716 0.4349 0.0
O90 O 0.4429 0.79078 0.50237 0.0
Mg91 Mg 0.61947 0.4476 0.63379 0.0
C92 C 0.59816 0.44514 0.56576 0.0
O93 O 0.57449 0.43563 0.5857 0.0
C94 C 0.65444 0.45109 0.6944 0.0
O95 O 0.62624 0.43796 0.70497 0.0
C96 C 0.57307 0.45578 0.67325 0.0
O97 O 0.56408 0.42805 0.68269 0.0
O98 O 0.59569 0.46921 0.65359 0.0
O99 O 0.62408 0.45495 0.57931 0.0
O100 O 0.59185 0.39916 0.63559 0.0
C101 C 0.6028 0.38714 0.61648 0.0
O102 O 0.62865 0.40467 0.60112 0.0
O103 O 0.65991 0.45932 0.66358 0.0
Mg104 Mg 0.16771 0.61736 0.79048 0.0
C105 C 0.14316 0.61001 0.72062 0.0
O106 O 0.1187 0.59197 0.73797 0.0
C107 C 0.19973 0.64956 0.85246 0.0
O108 O 0.18534 0.62118 0.86175 0.0
C109 C 0.10973 0.57116 0.82524 0.0
O110 O 0.12553 0.55777 0.83043 0.0
O111 O 0.12189 0.59617 0.80972 0.0
O112 O 0.16772 0.62637 0.7366 0.0
O113 O 0.18556 0.58711 0.79218 0.0
C114 C 0.17685 0.56602 0.77059 0.0
O115 O 0.15456 0.56081 0.74999 0.0
O116 O 0.1967 0.65596 0.82213 0.0
Mg117 Mg 0.56189 0.16566 0.97556 0.0
C118 C 0.54802 0.14031 0.90562 0.0
O119 O 0.54232 0.11656 0.92363 0.0
C120 C 0.56807 0.22213 1.00605 0.0
O121 O 0.59268 0.23364 0.98739 0.0
C122 C 0.51076 0.10846 1.00428 0.0
O123 O 0.49676 0.12387 1.00093 0.0
O124 O 0.53845 0.12057 0.99585 0.0
O125 O 0.55472 0.16463 0.92101 0.0
O126 O 0.61019 0.1843 0.98079 0.0
C127 C 0.62421 0.17614 0.9608 0.0
O128 O 0.60866 0.15432 0.93918 0.0
O129 O 0.54973 0.19393 1.00484 0.0
Mg130 Mg 0.38983 0.55698 0.1427 0.0
C131 C 0.40668 0.56583 0.07091 0.0
O132 O 0.43261 0.58099 0.08696 0.0
C133 C 0.34701 0.53944 0.20249 0.0
O134 O 0.36891 0.53694 0.21666 0.0
C135 C 0.41728 0.51714 0.14056 0.0
O136 O 0.40737 0.51377 0.1093 0.0
O137 O 0.41222 0.5333 0.16083 0.0
O138 O 0.38254 0.55113 0.08825 0.0
O139 O 0.42097 0.60477 0.14539 0.0
C140 C 0.41707 0.62281 0.16365 0.0
O141 O 0.39521 0.61192 0.18622 0.0
O142 O 0.34919 0.5465 0.17134 0.0
Mg143 Mg 0.82043 0.37911 0.30508 0.0
C144 C 0.84408 0.39148 0.23451 0.0
O145 O 0.86835 0.40912 0.25234 0.0
C146 C 0.79063 0.34263 0.36609 0.0
O147 O 0.8077 0.36987 0.3783 0.0
C148 C 0.88061 0.42433 0.33671 0.0
O149 O 0.86614 0.43904 0.342 0.0
O150 O 0.86676 0.39862 0.3227 0.0
O151 O 0.81972 0.37368 0.25014 0.0
O152 O 0.80344 0.40974 0.3126 0.0
C153 C 0.81211 0.43259 0.2936 0.0
O154 O 0.83361 0.43902 0.27133 0.0
O155 O 0.79127 0.33864 0.33436 0.0
H156 H 0.22883 0.67383 0.36366 0.0
H157 H 0.18296 0.67898 0.45312 0.0
H158 H 0.27106 0.72401 0.37528 0.0
H159 H 0.22541 0.72927 0.46475 0.0
H160 H 0.34339 0.81616 0.39898 0.0
H161 H 0.2911 0.77966 0.38405 0.0
H162 H 0.27733 0.73989 0.4834 0.0
H163 H 0.3295 0.7762 0.49831 0.0
C164 C 0.22737 0.68603 0.38525 0.0
C165 C 0.20285 0.67226 0.4078 0.0
C166 C 0.25148 0.71487 0.39179 0.0
C167 C 0.25162 0.73036 0.42115 0.0
C168 C 0.22594 0.71766 0.44211 0.0
C169 C 0.20163 0.68892 0.43535 0.0
C170 C 0.32892 0.80024 0.418 0.0
C171 C 0.34061 0.79872 0.44968 0.0
C172 C 0.29904 0.7793 0.40936 0.0
C173 C 0.28028 0.75683 0.43244 0.0
C174 C 0.29119 0.75711 0.46517 0.0
C175 C 0.32113 0.77777 0.47365 0.0
H176 H 0.55073 0.21037 0.54121 0.0
H177 H 0.53585 0.2013 0.64922 0.0
H178 H 0.55334 0.25898 0.54292 0.0
H179 H 0.53977 0.25038 0.6512 0.0
H180 H 0.55059 0.3429 0.64637 0.0
H181 H 0.52656 0.28847 0.63735 0.0
H182 H 0.59598 0.30377 0.56441 0.0
H183 H 0.61925 0.35735 0.57279 0.0
C184 C 0.54724 0.21842 0.56517 0.0
C185 C 0.54386 0.20245 0.59518 0.0
C186 C 0.54891 0.24633 0.56621 0.0
C187 C 0.54779 0.25898 0.59736 0.0
C188 C 0.54083 0.24138 0.62679 0.0
C189 C 0.53868 0.21322 0.62567 0.0
C190 C 0.56041 0.33449 0.62817 0.0
C191 C 0.58698 0.35437 0.61056 0.0
C192 C 0.54666 0.30339 0.62299 0.0
C193 C 0.55919 0.29175 0.59997 0.0
C194 C 0.58524 0.31186 0.58175 0.0
C195 C 0.5989 0.3427 0.58694 0.0
H196 H 0.22078 0.56747 0.81108 0.0
H197 H 0.17624 0.53436 0.71474 0.0
H198 H 0.25923 0.55518 0.79488 0.0
H199 H 0.21483 0.52196 0.69857 0.0
H200 H 0.31976 0.56809 0.67048 0.0
H201 H 0.26908 0.55785 0.68477 0.0
H202 H 0.27268 0.51672 0.77859 0.0
H203 H 0.32349 0.5271 0.7645 0.0
C204 C 0.21875 0.55683 0.78681 0.0
C205 C 0.19578 0.55234 0.764 0.0
C206 C 0.24068 0.54958 0.77758 0.0
C207 C 0.24019 0.53786 0.74529 0.0
C208 C 0.21591 0.53124 0.72347 0.0
C209 C 0.19377 0.53823 0.73284 0.0
C210 C 0.30944 0.55608 0.69369 0.0
C211 C 0.32594 0.54907 0.71669 0.0
C212 C 0.28029 0.55005 0.70181 0.0
C213 C 0.26714 0.53692 0.73308 0.0
C214 C 0.28249 0.5273 0.75457 0.0
C215 C 0.31157 0.53322 0.74641 0.0
H216 H 0.76879 0.32401 0.8763 0.0
H217 H 0.81137 0.32167 0.96985 0.0
H218 H 0.7279 0.27277 0.88641 0.0
H219 H 0.77022 0.27034 0.98001 0.0
H220 H 0.65915 0.1783 0.90735 0.0
H221 H 0.71127 0.21756 0.89582 0.0
H222 H 0.716 0.25647 0.99404 0.0
H223 H 0.66397 0.21748 1.00554 0.0
C224 C 0.76982 0.31226 0.89855 0.0
C225 C 0.79298 0.327 0.92254 0.0
C226 C 0.74652 0.28283 0.90423 0.0
C227 C 0.7458 0.26774 0.93416 0.0
C228 C 0.77019 0.2816 0.95685 0.0
C229 C 0.79374 0.31093 0.95095 0.0
C230 C 0.6716 0.19472 0.92688 0.0
C231 C 0.65735 0.19515 0.95715 0.0
C232 C 0.70139 0.2172 0.9202 0.0
C233 C 0.71752 0.24014 0.9439 0.0
C234 C 0.70418 0.23894 0.97539 0.0
C235 C 0.6743 0.21673 0.98189 0.0
H236 H 0.41037 0.74017 0.03179 0.0
H237 H 0.4487 0.80112 0.11651 0.0
H238 H 0.42417 0.70605 0.05851 0.0
H239 H 0.4622 0.76676 0.14324 0.0
H240 H 0.41173 0.66797 0.19337 0.0
H241 H 0.42325 0.71543 0.16713 0.0
H242 H 0.46509 0.69681 0.08285 0.0
H243 H 0.45388 0.64945 0.10907 0.0
C244 C 0.42255 0.74673 0.05557 0.0
C245 C 0.42789 0.77303 0.07229 0.0
C246 C 0.43061 0.72726 0.07082 0.0
C247 C 0.4439 0.73365 0.10316 0.0
C248 C 0.45172 0.76123 0.11846 0.0
C249 C 0.44403 0.78089 0.10302 0.0
C250 C 0.42427 0.67442 0.16981 0.0
C251 C 0.43124 0.65462 0.15298 0.0
C252 C 0.43101 0.7017 0.15484 0.0
C253 C 0.44466 0.70951 0.12271 0.0
C254 C 0.45425 0.69111 0.10744 0.0
C255 C 0.44783 0.66401 0.12257 0.0
H256 H 0.8137 0.47103 0.2448 0.0
H257 H 0.76965 0.42831 0.33867 0.0
H258 H 0.77657 0.48702 0.23603 0.0
H259 H 0.73263 0.44419 0.32982 0.0
H260 H 0.66957 0.47677 0.31194 0.0
H261 H 0.72034 0.48515 0.32236 0.0
H262 H 0.72199 0.45331 0.22169 0.0
H263 H 0.67144 0.44503 0.21121 0.0
C264 C 0.79662 0.46574 0.26402 0.0
C265 C 0.79422 0.44791 0.29213 0.0
C266 C 0.77534 0.47486 0.25891 0.0
C267 C 0.75154 0.4666 0.28203 0.0
C268 C 0.75083 0.45111 0.31165 0.0
C269 C 0.77191 0.44178 0.3166 0.0
C270 C 0.68115 0.47248 0.29164 0.0
C271 C 0.66628 0.45964 0.26097 0.0
C272 C 0.71018 0.47717 0.2977 0.0
C273 C 0.72492 0.46946 0.27305 0.0
C274 C 0.71129 0.4596 0.24116 0.0
C275 C 0.6822 0.45466 0.23521 0.0
H276 H 0.19092 0.63871 0.67641 0.0
H277 H 0.09519 0.5737 0.68042 0.0
H278 H 0.19103 0.62942 0.61576 0.0
H279 H 0.0955 0.56379 0.62047 0.0
H280 H 0.09899 0.57319 0.50658 0.0
H281 H 0.09979 0.58508 0.5661 0.0
H282 H 0.18675 0.59086 0.57711 0.0
H283 H 0.18638 0.57983 0.51688 0.0
C284 C 0.16987 0.62263 0.66434 0.0
C285 C 0.14303 0.60703 0.68329 0.0
C286 C 0.17001 0.61705 0.62966 0.0
C287 C 0.14331 0.59572 0.61319 0.0
C288 C 0.11641 0.58064 0.63211 0.0
C289 C 0.11625 0.58628 0.66663 0.0
C290 C 0.11826 0.57682 0.52165 0.0
C291 C 0.14259 0.57544 0.50692 0.0
C292 C 0.11867 0.58358 0.55591 0.0
C293 C 0.14332 0.58894 0.57652 0.0
C294 C 0.16759 0.5873 0.56189 0.0
C295 C 0.16725 0.58066 0.52745 0.0
H296 H 0.53801 0.09216 0.69302 0.0
H297 H 0.61688 0.18108 0.69884 0.0
H298 H 0.52887 0.0939 0.75295 0.0
H299 H 0.60819 0.18247 0.75954 0.0
H300 H 0.56488 0.18655 0.86011 0.0
H301 H 0.57367 0.18578 0.79937 0.0
H302 H 0.54861 0.09224 0.80675 0.0
H303 H 0.53903 0.09277 0.86678 0.0
C304 C 0.55369 0.11199 0.70718 0.0
C305 C 0.57826 0.13646 0.69106 0.0
C306 C 0.54847 0.11294 0.7417 0.0
C307 C 0.56777 0.13831 0.76121 0.0
C308 C 0.59262 0.16272 0.74521 0.0
C309 C 0.5978 0.16181 0.71049 0.0
C310 C 0.56091 0.16575 0.84863 0.0
C311 C 0.55111 0.13969 0.86833 0.0
C312 C 0.56628 0.16539 0.81388 0.0
C313 C 0.56195 0.13897 0.7981 0.0
C314 C 0.55179 0.11289 0.81784 0.0
C315 C 0.54636 0.11322 0.85241 0.0
H316 H 0.35742 0.5387 0.02855 0.0
H317 H 0.45486 0.59537 0.02851 0.0
H318 H 0.35729 0.5415 0.96679 0.0
H319 H 0.45476 0.59766 0.96712 0.0
H320 H 0.4416 0.61936 0.85881 0.0
H321 H 0.43992 0.6184 0.92065 0.0
H322 H 0.37293 0.52374 0.91818 0.0
H323 H 0.37414 0.52481 0.85673 0.0
C324 C 0.37878 0.55163 1.0154 0.0
C325 C 0.40612 0.56674 0.03347 0.0
C326 C 0.37874 0.55317 0.98002 0.0
C327 C 0.40603 0.56988 0.962 0.0
C328 C 0.4333 0.585 0.98017 0.0
C329 C 0.43335 0.58345 1.01543 0.0
C330 C 0.42647 0.5984 0.87151 0.0
C331 C 0.40808 0.57218 0.85282 0.0
C332 C 0.42558 0.5978 0.90693 0.0
C333 C 0.40627 0.57096 0.92438 0.0
C334 C 0.38773 0.54486 0.9056 0.0
C335 C 0.38862 0.54546 0.8703 0.0
H336 H 0.79736 0.36219 0.18894 0.0
H337 H 0.89178 0.4308 0.19588 0.0
H338 H 0.79827 0.37195 0.1282 0.0
H339 H 0.89242 0.44112 0.13597 0.0
H340 H 0.8935 0.43113 1.02253 0.0
H341 H 0.89116 0.41995 0.0824 0.0
H342 H 0.80182 0.40941 0.08796 0.0
H343 H 0.8038 0.41976 0.02728 0.0
C344 C 0.8183 0.37924 0.17753 0.0
C345 C 0.84453 0.39556 0.19729 0.0
C346 C 0.81875 0.38506 0.14279 0.0
C347 C 0.84542 0.40735 0.12709 0.0
C348 C 0.8716 0.42346 0.14695 0.0
C349 C 0.87119 0.41758 0.18147 0.0
C350 C 0.87337 0.42663 0.03645 0.0
C351 C 0.84888 0.42648 1.02004 0.0
C352 C 0.87207 0.42029 0.07094 0.0
C353 C 0.84633 0.41381 0.09017 0.0
C354 C 0.82186 0.41391 0.07387 0.0
C355 C 0.82311 0.42016 0.03916 0.0
H356 H 0.45258 0.8538 0.18842 0.0
H357 H 0.35505 0.80674 0.19721 0.0
H358 H 0.45679 0.84328 0.24725 0.0
H359 H 0.35932 0.79709 0.25702 0.0
H360 H 0.37657 0.75904 0.3536 0.0
H361 H 0.37227 0.76821 0.29386 0.0
H362 H 0.4515 0.85668 0.30268 0.0
H363 H 0.45639 0.84708 0.36186 0.0
C364 C 0.43196 0.84153 0.20306 0.0
C365 C 0.40344 0.83119 0.18807 0.0
C366 C 0.43442 0.83559 0.23698 0.0
C367 C 0.40844 0.81939 0.25708 0.0
C368 C 0.37983 0.80927 0.24221 0.0
C369 C 0.37735 0.81503 0.20801 0.0
C370 C 0.3933 0.78029 0.34264 0.0
C371 C 0.41694 0.80225 0.3625 0.0
C372 C 0.39062 0.7857 0.30845 0.0
C373 C 0.41141 0.81326 0.29335 0.0
C374 C 0.43529 0.83501 0.3132 0.0
C375 C 0.4381 0.82953 0.34725 0.0
H376 H 0.58811 0.38475 0.35743 0.0
H377 H 0.53836 0.43227 0.35756 0.0
H378 H 0.59888 0.3957 0.41779 0.0
H379 H 0.54952 0.44356 0.41727 0.0
H380 H 0.54647 0.42962 0.53106 0.0
H381 H 0.53641 0.41812 0.47131 0.0
H382 H 0.62881 0.4392 0.4562 0.0
H383 H 0.63885 0.45028 0.51671 0.0
C384 C 0.57925 0.39727 0.37036 0.0
C385 C 0.56224 0.4075 0.3527 0.0
C386 C 0.58573 0.40385 0.40482 0.0
C387 C 0.57516 0.4206 0.42233 0.0
C388 C 0.55776 0.43035 0.4047 0.0
C389 C 0.5514 0.4239 0.37037 0.0
C390 C 0.56479 0.43203 0.51507 0.0
C391 C 0.59352 0.44098 0.52869 0.0
C392 C 0.559 0.4255 0.48071 0.0
C393 C 0.58177 0.42771 0.45893 0.0
C394 C 0.61068 0.43696 0.4724 0.0
C395 C 0.61654 0.44363 0.50695 0.0
H396 H 0.91734 0.40039 0.32785 0.0
H397 H 0.91766 0.47986 0.36405 0.0
H398 H 0.97151 0.42427 0.33902 0.0
H399 H 0.97173 0.50351 0.37571 0.0
H400 H 0.07341 0.54857 0.35625 0.0
H401 H 0.01934 0.52387 0.34419 0.0
H402 H 0.00731 0.44104 0.38631 0.0
H403 H 0.06147 0.46557 0.3979 0.0
C404 C 0.9289 0.42286 0.33842 0.0
C405 C 0.91318 0.43824 0.34502 0.0
C406 C 0.95993 0.4365 0.34494 0.0
C407 C 0.97593 0.46582 0.35812 0.0
C408 C 0.96013 0.48106 0.36506 0.0
C409 C 0.92909 0.46742 0.35861 0.0
C410 C 0.05928 0.52504 0.36276 0.0
C411 C 0.07175 0.50904 0.37808 0.0
C412 C 0.02825 0.51095 0.35608 0.0
C413 C 0.00901 0.48055 0.3645 0.0
C414 C 0.02157 0.46442 0.37927 0.0
C415 C 0.0526 0.47852 0.38602 0.0
H416 H 0.50786 0.90233 0.57049 0.0
H417 H 0.47936 0.92173 0.47544 0.0
H418 H 0.53547 0.95593 0.58387 0.0
H419 H 0.5074 0.97518 0.4885 0.0
H420 H 0.53154 0.06383 0.54056 0.0
H421 H 0.50466 0.01037 0.52716 0.0
H422 H 0.57976 0.00294 0.56584 0.0
H423 H 0.60645 0.05635 0.5799 0.0
C424 C 0.5076 0.91801 0.55239 0.0
C425 C 0.49134 0.90774 0.52196 0.0
C426 C 0.52356 0.94873 0.55996 0.0
C427 C 0.52358 0.9698 0.53726 0.0
C428 C 0.50747 0.9595 0.50675 0.0
C429 C 0.49152 0.92885 0.4992 0.0
C430 C 0.54238 0.05083 0.54613 0.0
C431 C 0.57114 0.06435 0.5613 0.0
C432 C 0.52702 0.0202 0.5383 0.0
C433 C 0.54008 0.0024 0.54543 0.0
C434 C 0.56892 0.01596 0.56043 0.0
C435 C 0.5843 0.04661 0.56827 0.0
H436 H 0.48461 0.53409 0.78791 0.0
H437 H 0.4734 0.55144 0.68344 0.0
H438 H 0.51172 0.50874 0.76981 0.0
H439 H 0.50045 0.52591 0.66541 0.0
H440 H 0.58059 0.5094 0.65103 0.0
H441 H 0.55316 0.53443 0.66911 0.0
H442 H 0.50076 0.46182 0.73883 0.0
H443 H 0.52827 0.43672 0.72088 0.0
C444 C 0.48791 0.53249 0.76108 0.0
C445 C 0.47687 0.54481 0.7371 0.0
C446 C 0.50328 0.5178 0.75074 0.0
C447 C 0.50817 0.51533 0.71622 0.0
C448 C 0.49724 0.52772 0.69221 0.0
C449 C 0.48163 0.5422 0.70254 0.0
C450 C 0.56326 0.49876 0.67027 0.0
C451 C 0.55662 0.47107 0.68456 0.0
C452 C 0.54743 0.51303 0.68044 0.0
C453 C 0.5248 0.50004 0.70531 0.0
C454 C 0.51827 0.47246 0.71979 0.0
C455 C 0.53393 0.45804 0.7094 0.0
H456 H 0.07641 0.51773 0.85864 0.0
H457 H 0.07086 0.5926 0.81719 0.0
H458 H 0.0236 0.49426 0.87642 0.0
H459 H 0.01801 0.56888 0.8344 0.0
H460 H 0.93393 0.5325 0.90168 0.0
H461 H 0.98707 0.55625 0.88535 0.0
H462 H 0.97311 0.47038 0.85117 0.0
H463 H 0.92012 0.4465 0.86806 0.0
C464 C 0.06394 0.52917 0.85329 0.0
C465 C 0.07785 0.55703 0.83652 0.0
C466 C 0.03363 0.51563 0.86329 0.0
C467 C 0.01661 0.5297 0.85677 0.0
C468 C 0.0306 0.55765 0.84018 0.0
C469 C 0.06087 0.57116 0.83016 0.0
C470 C 0.94218 0.51868 0.89066 0.0
C471 C 0.92279 0.48761 0.88617 0.0
C472 C 0.97261 0.53233 0.88116 0.0
C473 C 0.98431 0.51519 0.86699 0.0
C474 C 0.96489 0.48413 0.86244 0.0
C475 C 0.93446 0.47049 0.87191 0.0
H476 H 0.45165 0.07574 0.0247 0.0
H477 H 0.53276 0.07019 1.01181 0.0
H478 H 0.42429 0.02337 0.04326 0.0
H479 H 0.50556 0.01814 0.03086 0.0
H480 H 0.43912 0.91731 0.02744 0.0
H481 H 0.46543 0.96973 1.00977 0.0
H482 H 0.42224 0.99106 0.09044 0.0
H483 H 0.39542 0.93836 0.10788 0.0
C484 C 0.46368 0.06342 0.026 0.0
C485 C 0.49434 0.07709 1.01666 0.0
C486 C 0.44804 0.03348 0.0368 0.0
C487 C 0.46273 0.0166 0.03837 0.0
C488 C 0.49348 0.03041 0.02942 0.0
C489 C 0.50912 0.06031 1.0187 0.0
C490 C 0.43516 0.93313 0.04142 0.0
C491 C 0.41522 0.92367 0.06913 0.0
C492 C 0.45039 0.96321 0.0314 0.0
C493 C 0.44604 0.98456 0.04883 0.0
C494 C 0.42585 0.97508 0.07632 0.0
C495 C 0.41061 0.94493 0.0864 0.0
H496 H 0.44193 0.49193 0.10033 0.0
H497 H 0.43521 0.51317 0.20466 0.0
H498 H 0.47488 0.47261 0.11726 0.0
H499 H 0.46818 0.4937 0.22151 0.0
H500 H 0.49991 0.42437 0.23836 0.0
H501 H 0.46653 0.44344 0.22224 0.0
H502 H 0.52793 0.49496 0.14164 0.0
H503 H 0.56146 0.47597 0.15774 0.0
C504 C 0.44733 0.49232 0.1269 0.0
C505 C 0.43599 0.5041 0.15118 0.0
C506 C 0.46637 0.48146 0.13651 0.0
C507 C 0.47416 0.48181 0.17064 0.0
C508 C 0.46238 0.49304 0.19503 0.0
C509 C 0.44361 0.50425 0.18537 0.0
C510 C 0.50632 0.43978 0.21721 0.0
C511 C 0.53329 0.44864 0.19925 0.0
C512 C 0.48728 0.4508 0.20813 0.0
C513 C 0.49464 0.4706 0.18068 0.0
C514 C 0.5216 0.47948 0.16273 0.0
C515 C 0.54085 0.46875 0.17206 0.0
H516 H 0.24496 0.56008 0.36471 0.0
H517 H 0.18036 0.52471 0.28272 0.0
H518 H 0.2816 0.5549 0.33015 0.0
H519 H 0.21665 0.51873 0.24851 0.0
H520 H 0.30213 0.55074 0.18345 0.0
H521 H 0.26278 0.5501 0.2188 0.0
H522 H 0.2944 0.52072 0.30397 0.0
H523 H 0.33433 0.52218 0.26878 0.0
C524 C 0.23839 0.55075 0.33951 0.0
C525 C 0.20978 0.54303 0.32643 0.0
C526 C 0.25938 0.54764 0.31969 0.0
C527 C 0.25223 0.53659 0.28636 0.0
C528 C 0.22319 0.52787 0.27378 0.0
C529 C 0.20228 0.53111 0.29353 0.0
C530 C 0.30056 0.5439 0.20964 0.0
C531 C 0.3215 0.53664 0.22328 0.0
C532 C 0.27785 0.54337 0.22993 0.0
C533 C 0.27538 0.53542 0.26436 0.0
C534 C 0.29588 0.52742 0.27775 0.0
C535 C 0.31868 0.52808 0.25748 0.0
H536 H 0.78251 0.34579 0.43386 0.0
H537 H 0.75214 0.28313 0.35034 0.0
H538 H 0.74681 0.30631 0.47117 0.0
H539 H 0.71683 0.24318 0.38808 0.0
H540 H 0.63128 0.19292 0.45432 0.0
H541 H 0.67046 0.22899 0.41695 0.0
H542 H 0.73411 0.26056 0.5 0.0
H543 H 0.6944 0.22483 0.53782 0.0
C544 C 0.76845 0.32346 0.42349 0.0
C545 C 0.77008 0.31772 0.38898 0.0
C546 C 0.74808 0.30068 0.44505 0.0
C547 C 0.72881 0.27145 0.43276 0.0
C548 C 0.73098 0.26551 0.39837 0.0
C549 C 0.75134 0.28838 0.37673 0.0
C550 C 0.65368 0.20737 0.46466 0.0
C551 C 0.65959 0.20608 0.4992 0.0
C552 C 0.67629 0.22798 0.44307 0.0
C553 C 0.70553 0.24785 0.45535 0.0
C554 C 0.71173 0.24595 0.48973 0.0
C555 C 0.68902 0.22532 0.51141 0.0
H556 H 0.44939 0.63765 0.61564 0.0
H557 H 0.44116 0.68294 0.70358 0.0
H558 H 0.44897 0.67557 0.57921 0.0
H559 H 0.44161 0.72143 0.66714 0.0
H560 H 0.40128 0.75876 0.59087 0.0
H561 H 0.40765 0.72482 0.62816 0.0
H562 H 0.4754 0.72711 0.56076 0.0
H563 H 0.4684 0.76065 0.52278 0.0
C564 C 0.44797 0.65597 0.62728 0.0
C565 C 0.44505 0.65708 0.66257 0.0
C566 C 0.4479 0.67786 0.60633 0.0
C567 C 0.44501 0.7015 0.62013 0.0
C568 C 0.44328 0.70324 0.65556 0.0
C569 C 0.44324 0.68127 0.67651 0.0
C570 C 0.41764 0.75215 0.58397 0.0
C571 C 0.43425 0.76238 0.55372 0.0
C572 C 0.42148 0.73282 0.60557 0.0
C573 C 0.44214 0.72324 0.59763 0.0
C574 C 0.45904 0.73374 0.56752 0.0
C575 C 0.45513 0.75308 0.54579 0.0
H576 H 0.76432 0.45816 0.86817 0.0
H577 H 0.80036 0.43483 0.78192 0.0
H578 H 0.73083 0.46589 0.83068 0.0
H579 H 0.76643 0.44168 0.74472 0.0
H580 H 0.64828 0.43422 0.76058 0.0
H581 H 0.68626 0.43517 0.7982 0.0
H582 H 0.75368 0.47634 0.71953 0.0
H583 H 0.71518 0.47461 0.68131 0.0
C584 C 0.76521 0.4548 0.84123 0.0
C585 C 0.7849 0.44567 0.82813 0.0
C586 C 0.74588 0.45907 0.81972 0.0
C587 C 0.74572 0.45422 0.78461 0.0
C588 C 0.76613 0.44601 0.77149 0.0
C589 C 0.78548 0.44184 0.79295 0.0
C590 C 0.67124 0.4437 0.75126 0.0
C591 C 0.6786 0.45416 0.71778 0.0
C592 C 0.69315 0.44446 0.77303 0.0
C593 C 0.72313 0.45581 0.76201 0.0
C594 C 0.73073 0.46706 0.72876 0.0
C595 C 0.70871 0.46624 0.70688 0.0
H596 H 0.29133 0.7551 0.03251 0.0
H597 H 0.35024 0.80371 0.94887 0.0
H598 H 0.25372 0.71962 0.99283 0.0
H599 H 0.3132 0.76784 0.90938 0.0
H600 H 0.23102 0.71089 0.84355 0.0
H601 H 0.26447 0.74924 0.88397 0.0
H602 H 0.24737 0.67969 0.9567 0.0
H603 H 0.21345 0.64168 0.9169 0.0
C604 C 0.29624 0.75827 1.00568 0.0
C605 C 0.32387 0.78218 0.99392 0.0
C606 C 0.27475 0.73781 0.9829 0.0
C607 C 0.28045 0.74069 0.94782 0.0
C608 C 0.3078 0.76507 0.93611 0.0
C609 C 0.32918 0.78558 0.95885 0.0
C610 C 0.2343 0.70385 0.86825 0.0
C611 C 0.21959 0.67321 0.87692 0.0
C612 C 0.25359 0.72582 0.89139 0.0
C613 C 0.25869 0.71762 0.92369 0.0
C614 C 0.24365 0.68696 0.93236 0.0
C615 C 0.22433 0.66508 0.90935 0.0
H616 H 0.55204 0.30436 0.19127 0.0
H617 H 0.56092 0.36651 0.11242 0.0
H618 H 0.55108 0.26957 0.14825 0.0
H619 H 0.55972 0.33187 0.06983 0.0
H620 H 0.59995 0.28332 1.01046 0.0
H621 H 0.59511 0.31509 0.05268 0.0
H622 H 0.52112 0.23664 0.09947 0.0
H623 H 0.52605 0.20461 0.05714 0.0
C624 C 0.55345 0.31046 0.16483 0.0
C625 C 0.55684 0.33835 0.15536 0.0
C626 C 0.55278 0.29049 0.14018 0.0
C627 C 0.55564 0.29811 0.10563 0.0
C628 C 0.558 0.32554 0.09623 0.0
C629 C 0.55855 0.34536 0.12073 0.0
C630 C 0.58247 0.27279 0.02955 0.0
C631 C 0.56338 0.24141 0.03036 0.0
C632 C 0.57961 0.29105 0.05371 0.0
C633 C 0.55771 0.2784 0.07945 0.0
C634 C 0.53837 0.24703 0.08013 0.0
C635 C 0.54106 0.22873 0.05572 0.0
loop_
_geom_bond_atom_site_label_1
_geom_bond_atom_site_label_2
_geom_bond_distance
_geom_bond_site_symmetry_2
_ccdc_geom_bond_type
Mg0 O7 2.141 . S
Mg0 O8 2.048 . S
Mg0 O9 2.048 . S
Mg0 O12 2.141 . S
C1 O2 1.313 . S
C1 O8 1.195 . S
O2 C1 1.313 . S
C3 O4 1.245 . S
C3 O12 1.289 . S
O4 C3 1.245 . S
C5 O6 1.245 . S
C5 O7 1.289 . S
O6 C5 1.245 . S
O7 Mg0 2.141 . S
O7 C5 1.289 . S
O8 Mg0 2.048 . S
O8 C1 1.195 . S
O9 Mg0 2.048 . S
O9 C10 1.195 . S
C10 O9 1.195 . S
C10 O11 1.313 . S
O11 C10 1.313 . S
O12 Mg0 2.141 . S
O12 C3 1.289 . S
Mg13 O20 2.141 . S
Mg13 O21 2.048 . S
Mg13 O22 2.048 . S
Mg13 O25 2.141 . S
C14 O15 1.313 . S
C14 O21 1.195 . S
O15 C14 1.313 . S
C16 O17 1.245 . S
C16 O25 1.289 . S
O17 C16 1.245 . S
C18 O19 1.245 . S
C18 O20 1.289 . S
O19 C18 1.245 . S
O20 Mg13 2.141 . S
O20 C18 1.289 . S
O21 Mg13 2.048 . S
O21 C14 1.195 . S
O22 Mg13 2.048 . S
O22 C23 1.195 . S
C23 O22 1.195 . S
C23 O24 1.313 . S
O24 C23 1.313 . S
O25 Mg13 2.141 . S
O25 C16 1.289 . S
Mg26 O33 2.141 . S
Mg26 O34 2.048 . S
Mg26 O35 2.048 . S
Mg26 O38 2.141 . S
C27 O28 1.313 . S
C27 O34 1.195 . S
O28 C27 1.313 . S
C29 O30 1.245 . S
C29 O38 1.289 . S
O30 C29 1.245 . S
C31 O32 1.245 . S
C31 O33 1.289 . S
O32 C31 1.245 . S
O33 Mg26 2.141 . S
O33 C31 1.289 . S
O34 Mg26 2.048 . S
O34 C27 1.195 . S
O35 Mg26 2.048 . S
O35 C36 1.195 . S
C36 O35 1.195 . S
C36 O37 1.313 . S
O37 C36 1.313 . S
O38 Mg26 2.141 . S
O38 C29 1.289 . S
Mg39 O46 2.141 . S
Mg39 O47 2.048 . S
Mg39 O48 2.048 . S
Mg39 O51 2.141 . S
C40 O41 1.313 . S
C40 O47 1.195 . S
O41 C40 1.313 . S
C42 O43 1.245 . S
C42 O51 1.289 . S
O43 C42 1.245 . S
C44 O45 1.245 . S
C44 O46 1.289 . S
O45 C44 1.245 . S
O46 Mg39 2.141 . S
O46 C44 1.289 . S
O47 Mg39 2.048 . S
O47 C40 1.195 . S
O48 Mg39 2.048 . S
O48 C49 1.195 . S
C49 O48 1.195 . S
C49 O50 1.313 . S
O50 C49 1.313 . S
O51 Mg39 2.141 . S
O51 C42 1.289 . S
Mg52 O59 2.141 . S
Mg52 O60 2.048 . S
Mg52 O61 2.048 . S
Mg52 O64 2.141 . S
C53 O54 1.313 . S
C53 O60 1.195 . S
O54 C53 1.313 . S
C55 O56 1.245 . S
C55 O64 1.289 . S
O56 C55 1.245 . S
C57 O58 1.245 . S
C57 O59 1.289 . S
O58 C57 1.245 . S
O59 Mg52 2.141 . S
O59 C57 1.289 . S
O60 Mg52 2.048 . S
O60 C53 1.195 . S
O61 Mg52 2.048 . S
O61 C62 1.195 . S
C62 O61 1.195 . S
C62 O63 1.313 . S
O63 C62 1.313 . S
O64 Mg52 2.141 . S
O64 C55 1.289 . S
Mg65 O72 2.141 . S
Mg65 O73 2.048 . S
Mg65 O74 2.048 . S
Mg65 O77 2.141 . S
C66 O67 1.313 . S
C66 O73 1.195 . S
O67 C66 1.313 . S
C68 O69 1.245 . S
C68 O77 1.289 . S
O69 C68 1.245 . S
C70 O71 1.245 . S
C70 O72 1.289 . S
O71 C70 1.245 . S
O72 Mg65 2.141 . S
O72 C70 1.289 . S
O73 Mg65 2.048 . S
O73 C66 1.195 . S
O74 Mg65 2.048 . S
O74 C75 1.195 . S
C75 O74 1.195 . S
C75 O76 1.313 . S
O76 C75 1.313 . S
O77 Mg65 2.141 . S
O77 C68 1.289 . S
Mg78 O85 2.141 . S
Mg78 O86 2.048 . S
Mg78 O87 2.048 . S
Mg78 O90 2.141 . S
C79 O80 1.313 . S
C79 O86 1.195 . S
O80 C79 1.313 . S
C81 O82 1.245 . S
C81 O90 1.289 . S
O82 C81 1.245 . S
C83 O84 1.245 . S
C83 O85 1.289 . S
O84 C83 1.245 . S
O85 Mg78 2.141 . S
O85 C83 1.289 . S
O86 Mg78 2.048 . S
O86 C79 1.195 . S
O87 Mg78 2.048 . S
O87 C88 1.195 . S
C88 O87 1.195 . S
C88 O89 1.313 . S
O89 C88 1.313 . S
O90 Mg78 2.141 . S
O90 C81 1.289 . S
Mg91 O98 2.141 . S
Mg91 O99 2.048 . S
Mg91 O100 2.048 . S
Mg91 O103 2.141 . S
C92 O93 1.313 . S
C92 O99 1.195 . S
O93 C92 1.313 . S
C94 O95 1.245 . S
C94 O103 1.289 . S
O95 C94 1.245 . S
C96 O97 1.245 . S
C96 O98 1.289 . S
O97 C96 1.245 . S
O98 Mg91 2.141 . S
O98 C96 1.289 . S
O99 Mg91 2.048 . S
O99 C92 1.195 . S
O100 Mg91 2.048 . S
O100 C101 1.195 . S
C101 O100 1.195 . S
C101 O102 1.313 . S
O102 C101 1.313 . S
O103 Mg91 2.141 . S
O103 C94 1.289 . S
Mg104 O111 2.141 . S
Mg104 O112 2.048 . S
Mg104 O113 2.048 . S
Mg104 O116 2.141 . S
C105 O106 1.313 . S
C105 O112 1.195 . S
O106 C105 1.313 . S
C107 O108 1.245 . S
C107 O116 1.289 . S
O108 C107 1.245 . S
C109 O110 1.245 . S
C109 O111 1.289 . S
O110 C109 1.245 . S
O111 Mg104 2.141 . S
O111 C109 1.289 . S
O112 Mg104 2.048 . S
O112 C105 1.195 . S
O113 Mg104 2.048 . S
O113 C114 1.195 . S
C114 O113 1.195 . S
C114 O115 1.313 . S
O115 C114 1.313 . S
O116 Mg104 2.141 . S
O116 C107 1.289 . S
Mg117 O124 2.141 . S
Mg117 O125 2.048 . S
Mg117 O126 2.048 . S
Mg117 O129 2.141 . S
C118 O119 1.313 . S
C118 O125 1.195 . S
O119 C118 1.313 . S
C120 O121 1.245 . S
C120 O129 1.289 . S
O121 C120 1.245 . S
C122 O123 1.245 . S
C122 O124 1.289 . S
O123 C122 1.245 . S
O124 Mg117 2.141 . S
O124 C122 1.289 . S
O125 Mg117 2.048 . S
O125 C118 1.195 . S
O126 Mg117 2.048 . S
O126 C127 1.195 . S
C127 O126 1.195 . S
C127 O128 1.313 . S
O128 C127 1.313 . S
O129 Mg117 2.141 . S
O129 C120 1.289 . S
Mg130 O137 2.141 . S
Mg130 O138 2.048 . S
Mg130 O139 2.048 . S
Mg130 O142 2.141 . S
C131 O132 1.313 . S
C131 O138 1.195 . S
O132 C131 1.313 . S
C133 O134 1.245 . S
C133 O142 1.289 . S
O134 C133 1.245 . S
C135 O136 1.245 . S
C135 O137 1.289 . S
O136 C135 1.245 . S
O137 Mg130 2.141 . S
O137 C135 1.289 . S
O138 Mg130 2.048 . S
O138 C131 1.195 . S
O139 Mg130 2.048 . S
O139 C140 1.195 . S
C140 O139 1.195 . S
C140 O141 1.313 . S
O141 C140 1.313 . S
O142 Mg130 2.141 . S
O142 C133 1.289 . S
Mg143 O150 2.141 . S
Mg143 O151 2.048 . S
Mg143 O152 2.048 . S
Mg143 O155 2.141 . S
C144 O145 1.313 . S
C144 O151 1.195 . S
O145 C144 1.313 . S
C146 O147 1.245 . S
C146 O155 1.289 . S
O147 C146 1.245 . S
C148 O149 1.245 . S
C148 O150 1.289 . S
O149 C148 1.245 . S
O150 Mg143 2.141 . S
O150 C148 1.289 . S
O151 Mg143 2.048 . S
O151 C144 1.195 . S
O152 Mg143 2.048 . S
O152 C153 1.195 . S
C153 O152 1.195 . S
C153 O154 1.313 . S
O154 C153 1.313 . S
O155 Mg143 2.141 . S
O155 C146 1.289 . S
H156 C164 0.950 . S
H157 C169 0.950 . S
H158 C166 0.950 . S
H159 C168 0.950 . S
H160 C170 0.950 . S
H161 C172 0.950 . S
H162 C174 0.950 . S
H163 C175 0.950 . S
C164 H156 0.950 . S
C164 C165 1.386 . S
C164 C166 1.391 . S
C165 C164 1.386 . S
C165 C169 1.393 . S
C166 H158 0.950 . S
C166 C164 1.391 . S
C166 C167 1.400 . S
C167 C166 1.400 . S
C167 C168 1.398 . S
C167 C173 1.491 . S
C168 H159 0.950 . S
C168 C167 1.398 . S
C168 C169 1.391 . S
C169 H157 0.950 . S
C169 C165 1.393 . S
C169 C168 1.391 . S
C170 H160 0.950 . S
C170 C171 1.386 . S
C170 C172 1.391 . S
C171 C170 1.386 . S
C171 C175 1.393 . S
C172 H161 0.950 . S
C172 C170 1.391 . S
C172 C173 1.400 . S
C173 C167 1.491 . S
C173 C172 1.400 . S
C173 C174 1.398 . S
C174 H162 0.950 . S
C174 C173 1.398 . S
C174 C175 1.391 . S
C175 H163 0.950 . S
C175 C171 1.393 . S
C175 C174 1.391 . S
H176 C184 0.950 . S
H177 C189 0.950 . S
H178 C186 0.950 . S
H179 C188 0.950 . S
H180 C190 0.950 . S
H181 C192 0.950 . S
H182 C194 0.950 . S
H183 C195 0.950 . S
C184 H176 0.950 . S
C184 C185 1.386 . S
C184 C186 1.391 . S
C185 C184 1.386 . S
C185 C189 1.393 . S
C186 H178 0.950 . S
C186 C184 1.391 . S
C186 C187 1.400 . S
C187 C186 1.400 . S
C187 C188 1.398 . S
C187 C193 1.491 . S
C188 H179 0.950 . S
C188 C187 1.398 . S
C188 C189 1.391 . S
C189 H177 0.950 . S
C189 C185 1.393 . S
C189 C188 1.391 . S
C190 H180 0.950 . S
C190 C191 1.386 . S
C190 C192 1.391 . S
C191 C190 1.386 . S
C191 C195 1.393 . S
C192 H181 0.950 . S
C192 C190 1.391 . S
C192 C193 1.400 . S
C193 C187 1.491 . S
C193 C192 1.400 . S
C193 C194 1.398 . S
C194 H182 0.950 . S
C194 C193 1.398 . S
C194 C195 1.391 . S
C195 H183 0.950 . S
C195 C191 1.393 . S
C195 C194 1.391 . S
H196 C204 0.950 . S
H197 C209 0.950 . S
H198 C206 0.950 . S
H199 C208 0.950 . S
H200 C210 0.950 . S
H201 C212 0.950 . S
H202 C214 0.950 . S
H203 C215 0.950 . S
C204 H196 0.950 . S
C204 C205 1.386 . S
C204 C206 1.391 . S
C205 C204 1.386 . S
C205 C209 1.393 . S
C206 H198 0.950 . S
C206 C204 1.391 . S
C206 C207 1.400 . S
C207 C206 1.400 . S
C207 C208 1.398 . S
C207 C213 1.491 . S
C208 H199 0.950 . S
C208 C207 1.398 . S
C208 C209 1.391 . S
C209 H197 0.950 . S
C209 C205 1.393 . S
C209 C208 1.391 . S
C210 H200 0.950 . S
C210 C211 1.386 . S
C210 C212 1.391 . S
C211 C210 1.386 . S
C211 C215 1.393 . S
C212 H201 0.950 . S
C212 C210 1.391 . S
C212 C213 1.400 . S
C213 C207 1.491 . S
C213 C212 1.400 . S
C213 C214 1.398 . S
C214 H202 0.950 . S
C214 C213 1.398 . S
C214 C215 1.391 . S
C215 H203 0.950 . S
C215 C211 1.393 . S
C215 C214 1.391 . S
H216 C224 0.950 . S
H217 C229 0.950 . S
H218 C226 0.950 . S
H219 C228 0.950 . S
H220 C230 0.950 . S
H221 C232 0.950 . S
H222 C234 0.950 . S
H223 C235 0.950 . S
C224 H216 0.950 . S
C224 C225 1.386 . S
C224 C226 1.391 . S
C225 C224 1.386 . S
C225 C229 1.393 . S
C226 H218 0.950 . S
C226 C224 1.391 . S
C226 C227 1.400 . S
C227 C226 1.400 . S
C227 C228 1.398 . S
C227 C233 1.491 . S
C228 H219 0.950 . S
C228 C227 1.398 . S
C228 C229 1.391 . S
C229 H217 0.950 . S
C229 C225 1.393 . S
C229 C228 1.391 . S
C230 H220 0.950 . S
C230 C231 1.386 . S
C230 C232 1.391 . S
C231 C230 1.386 . S
C231 C235 1.393 . S
C232 H221 0.950 . S
C232 C230 1.391 . S
C232 C233 1.400 . S
C233 C227 1.491 . S
C233 C232 1.400 . S
C233 C234 1.398 . S
C234 H222 0.950 . S
C234 C233 1.398 . S
C234 C235 1.391 . S
C235 H223 0.950 . S
C235 C231 1.393 . S
C235 C234 1.391 . S
H236 C244 0.950 . S
H237 C249 0.950 . S
H238 C246 0.950 . S
H239 C248 0.950 . S
H240 C250 0.950 . S
H241 C252 0.950 . S
H242 C254 0.950 . S
H243 C255 0.950 . S
C244 H236 0.950 . S
C244 C245 1.386 . S
C244 C246 1.391 . S
C245 C244 1.386 . S
C245 C249 1.393 . S
C246 H238 0.950 . S
C246 C244 1.391 . S
C246 C247 1.400 . S
C247 C246 1.400 . S
C247 C248 1.398 . S
C247 C253 1.491 . S
C248 H239 0.950 . S
C248 C247 1.398 . S
C248 C249 1.391 . S
C249 H237 0.950 . S
C249 C245 1.393 . S
C249 C248 1.391 . S
C250 H240 0.950 . S
C250 C251 1.386 . S
C250 C252 1.391 . S
C251 C250 1.386 . S
C251 C255 1.393 . S
C252 H241 0.950 . S
C252 C250 1.391 . S
C252 C253 1.400 . S
C253 C247 1.491 . S
C253 C252 1.400 . S
C253 C254 1.398 . S
C254 H242 0.950 . S
C254 C253 1.398 . S
C254 C255 1.391 . S
C255 H243 0.950 . S
C255 C251 1.393 . S
C255 C254 1.391 . S
H256 C264 0.950 . S
H257 C269 0.950 . S
H258 C266 0.950 . S
H259 C268 0.950 . S
H260 C270 0.950 . S
H261 C272 0.950 . S
H262 C274 0.950 . S
H263 C275 0.950 . S
C264 H256 0.950 . S
C264 C265 1.386 . S
C264 C266 1.391 . S
C265 C264 1.386 . S
C265 C269 1.393 . S
C266 H258 0.950 . S
C266 C264 1.391 . S
C266 C267 1.400 . S
C267 C266 1.400 . S
C267 C268 1.398 . S
C267 C273 1.491 . S
C268 H259 0.950 . S
C268 C267 1.398 . S
C268 C269 1.391 . S
C269 H257 0.950 . S
C269 C265 1.393 . S
C269 C268 1.391 . S
C270 H260 0.950 . S
C270 C271 1.386 . S
C270 C272 1.391 . S
C271 C270 1.386 . S
C271 C275 1.393 . S
C272 H261 0.950 . S
C272 C270 1.391 . S
C272 C273 1.400 . S
C273 C267 1.491 . S
C273 C272 1.400 . S
C273 C274 1.398 . S
C274 H262 0.950 . S
C274 C273 1.398 . S
C274 C275 1.391 . S
C275 H263 0.950 . S
C275 C271 1.393 . S
C275 C274 1.391 . S
H276 C284 0.950 . S
H277 C289 0.950 . S
H278 C286 0.950 . S
H279 C288 0.950 . S
H280 C290 0.950 . S
H281 C292 0.950 . S
H282 C294 0.950 . S
H283 C295 0.950 . S
C284 H276 0.950 . S
C284 C285 1.386 . S
C284 C286 1.391 . S
C285 C284 1.386 . S
C285 C289 1.393 . S
C286 H278 0.950 . S
C286 C284 1.391 . S
C286 C287 1.400 . S
C287 C286 1.400 . S
C287 C288 1.398 . S
C287 C293 1.491 . S
C288 H279 0.950 . S
C288 C287 1.398 . S
C288 C289 1.391 . S
C289 H277 0.950 . S
C289 C285 1.393 . S
C289 C288 1.391 . S
C290 H280 0.950 . S
C290 C291 1.386 . S
C290 C292 1.391 . S
C291 C290 1.386 . S
C291 C295 1.393 . S
C292 H281 0.950 . S
C292 C290 1.391 . S
C292 C293 1.400 . S
C293 C287 1.491 . S
C293 C292 1.400 . S
C293 C294 1.398 . S
C294 H282 0.950 . S
C294 C293 1.398 . S
C294 C295 1.391 . S
C295 H283 0.950 . S
C295 C291 1.393 . S
C295 C294 1.391 . S
H296 C304 0.950 . S
H297 C309 0.950 . S
H298 C306 0.950 . S
H299 C308 0.950 . S
H300 C310 0.950 . S
H301 C312 0.950 . S
H302 C314 0.950 . S
H303 C315 0.950 . S
C304 H296 0.950 . S
C304 C305 1.386 . S
C304 C306 1.391 . S
C305 C304 1.386 . S
C305 C309 1.393 . S
C306 H298 0.950 . S
C306 C304 1.391 . S
C306 C307 1.400 . S
C307 C306 1.400 . S
C307 C308 1.398 . S
C307 C313 1.491 . S
C308 H299 0.950 . S
C308 C307 1.398 . S
C308 C309 1.391 . S
C309 H297 0.950 . S
C309 C305 1.393 . S
C309 C308 1.391 . S
C310 H300 0.950 . S
C310 C311 1.386 . S
C310 C312 1.391 . S
C311 C310 1.386 . S
C311 C315 1.393 . S
C312 H301 0.950 . S
C312 C310 1.391 . S
C312 C313 1.400 . S
C313 C307 1.491 . S
C313 C312 1.400 . S
C313 C314 1.398 . S
C314 H302 0.950 . S
C314 C313 1.398 . S
C314 C315 1.391 . S
C315 H303 0.950 . S
C315 C311 1.393 . S
C315 C314 1.391 . S
H316 C324 0.950 . S
H317 C329 0.950 1_554 S
H318 C326 0.950 . S
H319 C328 0.950 . S
H320 C330 0.950 . S
H321 C332 0.950 . S
H322 C334 0.950 . S
H323 C335 0.950 . S
C324 H316 0.950 . S
C324 C325 1.386 . S
C324 C326 1.391 . S
C325 C324 1.386 . S
C325 C329 1.393 . S
C326 H318 0.950 . S
C326 C324 1.391 . S
C326 C327 1.400 . S
C327 C326 1.400 . S
C327 C328 1.398 . S
C327 C333 1.491 . S
C328 H319 0.950 . S
C328 C327 1.398 . S
C328 C329 1.391 . S
C329 H317 0.950 1_556 S
C329 C325 1.393 . S
C329 C328 1.391 . S
C330 H320 0.950 . S
C330 C331 1.386 . S
C330 C332 1.391 . S
C331 C330 1.386 . S
C331 C335 1.393 . S
C332 H321 0.950 . S
C332 C330 1.391 . S
C332 C333 1.400 . S
C333 C327 1.491 . S
C333 C332 1.400 . S
C333 C334 1.398 . S
C334 H322 0.950 . S
C334 C333 1.398 . S
C334 C335 1.391 . S
C335 H323 0.950 . S
C335 C331 1.393 . S
C335 C334 1.391 . S
H336 C344 0.950 . S
H337 C349 0.950 . S
H338 C346 0.950 . S
H339 C348 0.950 . S
H340 C350 0.950 . S
H341 C352 0.950 . S
H342 C354 0.950 . S
H343 C355 0.950 . S
C344 H336 0.950 . S
C344 C345 1.386 . S
C344 C346 1.391 . S
C345 C344 1.386 . S
C345 C349 1.393 . S
C346 H338 0.950 . S
C346 C344 1.391 . S
C346 C347 1.400 . S
C347 C346 1.400 . S
C347 C348 1.398 . S
C347 C353 1.491 . S
C348 H339 0.950 . S
C348 C347 1.398 . S
C348 C349 1.391 . S
C349 H337 0.950 . S
C349 C345 1.393 . S
C349 C348 1.391 . S
C350 H340 0.950 . S
C350 C351 1.386 . S
C350 C352 1.391 . S
C351 C350 1.386 . S
C351 C355 1.393 . S
C352 H341 0.950 . S
C352 C350 1.391 . S
C352 C353 1.400 . S
C353 C347 1.491 . S
C353 C352 1.400 . S
C353 C354 1.398 . S
C354 H342 0.950 . S
C354 C353 1.398 . S
C354 C355 1.391 . S
C355 H343 0.950 . S
C355 C351 1.393 . S
C355 C354 1.391 . S
H356 C364 0.950 . S
H357 C369 0.950 . S
H358 C366 0.950 . S
H359 C368 0.950 . S
H360 C370 0.950 . S
H361 C372 0.950 . S
H362 C374 0.950 . S
H363 C375 0.950 . S
C364 H356 0.950 . S
C364 C365 1.386 . S
C364 C366 1.391 . S
C365 C364 1.386 . S
C365 C369 1.393 . S
C366 H358 0.950 . S
C366 C364 1.391 . S
C366 C367 1.400 . S
C367 C366 1.400 . S
C367 C368 1.398 . S
C367 C373 1.491 . S
C368 H359 0.950 . S
C368 C367 1.398 . S
C368 C369 1.391 . S
C369 H357 0.950 . S
C369 C365 1.393 . S
C369 C368 1.391 . S
C370 H360 0.950 . S
C370 C371 1.386 . S
C370 C372 1.391 . S
C371 C370 1.386 . S
C371 C375 1.393 . S
C372 H361 0.950 . S
C372 C370 1.391 . S
C372 C373 1.400 . S
C373 C367 1.491 . S
C373 C372 1.400 . S
C373 C374 1.398 . S
C374 H362 0.950 . S
C374 C373 1.398 . S
C374 C375 1.391 . S
C375 H363 0.950 . S
C375 C371 1.393 . S
C375 C374 1.391 . S
H376 C384 0.950 . S
H377 C389 0.950 . S
H378 C386 0.950 . S
H379 C388 0.950 . S
H380 C390 0.950 . S
H381 C392 0.950 . S
H382 C394 0.950 . S
H383 C395 0.950 . S
C384 H376 0.950 . S
C384 C385 1.386 . S
C384 C386 1.391 . S
C385 C384 1.386 . S
C385 C389 1.393 . S
C386 H378 0.950 . S
C386 C384 1.391 . S
C386 C387 1.400 . S
C387 C386 1.400 . S
C387 C388 1.398 . S
C387 C393 1.491 . S
C388 H379 0.950 . S
C388 C387 1.398 . S
C388 C389 1.391 . S
C389 H377 0.950 . S
C389 C385 1.393 . S
C389 C388 1.391 . S
C390 H380 0.950 . S
C390 C391 1.386 . S
C390 C392 1.391 . S
C391 C390 1.386 . S
C391 C395 1.393 . S
C392 H381 0.950 . S
C392 C390 1.391 . S
C392 C393 1.400 . S
C393 C387 1.491 . S
C393 C392 1.400 . S
C393 C394 1.398 . S
C394 H382 0.950 . S
C394 C393 1.398 . S
C394 C395 1.391 . S
C395 H383 0.950 . S
C395 C391 1.393 . S
C395 C394 1.391 . S
H396 C404 0.950 . S
H397 C409 0.950 . S
H398 C406 0.950 . S
H399 C408 0.950 1_455 S
H400 C410 0.950 . S
H401 C412 0.950 . S
H402 C414 0.950 1_655 S
H403 C415 0.950 . S
C404 H396 0.950 . S
C404 C405 1.386 . S
C404 C406 1.391 . S
C405 C404 1.386 . S
C405 C409 1.393 . S
C406 H398 0.950 . S
C406 C404 1.391 . S
C406 C407 1.400 . S
C407 C406 1.400 . S
C407 C408 1.398 . S
C407 C413 1.491 1_655 S
C408 H399 0.950 1_655 S
C408 C407 1.398 . S
C408 C409 1.391 . S
C409 H397 0.950 . S
C409 C405 1.393 . S
C409 C408 1.391 . S
C410 H400 0.950 . S
C410 C411 1.386 . S
C410 C412 1.391 . S
C411 C410 1.386 . S
C411 C415 1.393 . S
C412 H401 0.950 . S
C412 C410 1.391 . S
C412 C413 1.400 . S
C413 C407 1.491 1_455 S
C413 C412 1.400 . S
C413 C414 1.398 . S
C414 H402 0.950 1_455 S
C414 C413 1.398 . S
C414 C415 1.391 . S
C415 H403 0.950 . S
C415 C411 1.393 . S
C415 C414 1.391 . S
H416 C424 0.950 . S
H417 C429 0.950 . S
H418 C426 0.950 . S
H419 C428 0.950 . S
H420 C430 0.950 . S
H421 C432 0.950 . S
H422 C434 0.950 . S
H423 C435 0.950 . S
C424 H416 0.950 . S
C424 C425 1.386 . S
C424 C426 1.391 . S
C425 C424 1.386 . S
C425 C429 1.393 . S
C426 H418 0.950 . S
C426 C424 1.391 . S
C426 C427 1.400 . S
C427 C426 1.400 . S
C427 C428 1.398 . S
C427 C433 1.491 1_565 S
C428 H419 0.950 . S
C428 C427 1.398 . S
C428 C429 1.391 . S
C429 H417 0.950 . S
C429 C425 1.393 . S
C429 C428 1.391 . S
C430 H420 0.950 . S
C430 C431 1.386 . S
C430 C432 1.391 . S
C431 C430 1.386 . S
C431 C435 1.393 . S
C432 H421 0.950 . S
C432 C430 1.391 . S
C432 C433 1.400 . S
C433 C427 1.491 1_545 S
C433 C432 1.400 . S
C433 C434 1.398 . S
C434 H422 0.950 . S
C434 C433 1.398 . S
C434 C435 1.391 . S
C435 H423 0.950 . S
C435 C431 1.393 . S
C435 C434 1.391 . S
H436 C444 0.950 . S
H437 C449 0.950 . S
H438 C446 0.950 . S
H439 C448 0.950 . S
H440 C450 0.950 . S
H441 C452 0.950 . S
H442 C454 0.950 . S
H443 C455 0.950 . S
C444 H436 0.950 . S
C444 C445 1.386 . S
C444 C446 1.391 . S
C445 C444 1.386 . S
C445 C449 1.393 . S
C446 H438 0.950 . S
C446 C444 1.391 . S
C446 C447 1.400 . S
C447 C446 1.400 . S
C447 C448 1.398 . S
C447 C453 1.491 . S
C448 H439 0.950 . S
C448 C447 1.398 . S
C448 C449 1.391 . S
C449 H437 0.950 . S
C449 C445 1.393 . S
C449 C448 1.391 . S
C450 H440 0.950 . S
C450 C451 1.386 . S
C450 C452 1.391 . S
C451 C450 1.386 . S
C451 C455 1.393 . S
C452 H441 0.950 . S
C452 C450 1.391 . S
C452 C453 1.400 . S
C453 C447 1.491 . S
C453 C452 1.400 . S
C453 C454 1.398 . S
C454 H442 0.950 . S
C454 C453 1.398 . S
C454 C455 1.391 . S
C455 H443 0.950 . S
C455 C451 1.393 . S
C455 C454 1.391 . S
H456 C464 0.950 . S
H457 C469 0.950 . S
H458 C466 0.950 1_655 S
H459 C468 0.950 . S
H460 C470 0.950 . S
H461 C472 0.950 1_455 S
H462 C474 0.950 . S
H463 C475 0.950 . S
C464 H456 0.950 . S
C464 C465 1.386 . S
C464 C466 1.391 . S
C465 C464 1.386 . S
C465 C469 1.393 . S
C466 H458 0.950 1_455 S
C466 C464 1.391 . S
C466 C467 1.400 . S
C467 C466 1.400 . S
C467 C468 1.398 . S
C467 C473 1.491 1_455 S
C468 H459 0.950 . S
C468 C467 1.398 . S
C468 C469 1.391 . S
C469 H457 0.950 . S
C469 C465 1.393 . S
C469 C468 1.391 . S
C470 H460 0.950 . S
C470 C471 1.386 . S
C470 C472 1.391 . S
C471 C470 1.386 . S
C471 C475 1.393 . S
C472 H461 0.950 1_655 S
C472 C470 1.391 . S
C472 C473 1.400 . S
C473 C467 1.491 1_655 S
C473 C472 1.400 . S
C473 C474 1.398 . S
C474 H462 0.950 . S
C474 C473 1.398 . S
C474 C475 1.391 . S
C475 H463 0.950 . S
C475 C471 1.393 . S
C475 C474 1.391 . S
H476 C484 0.950 . S
H477 C489 0.950 . S
H478 C486 0.950 . S
H479 C488 0.950 . S
H480 C490 0.950 . S
H481 C492 0.950 . S
H482 C494 0.950 . S
H483 C495 0.950 . S
C484 H476 0.950 . S
C484 C485 1.386 . S
C484 C486 1.391 1_556 S
C485 C484 1.386 . S
C485 C489 1.393 . S
C486 H478 0.950 . S
C486 C484 1.391 1_554 S
C486 C487 1.400 1_554 S
C487 C486 1.400 1_556 S
C487 C488 1.398 . S
C487 C493 1.491 1_546 S
C488 H479 0.950 . S
C488 C487 1.398 . S
C488 C489 1.391 . S
C489 H477 0.950 . S
C489 C485 1.393 . S
C489 C488 1.391 . S
C490 H480 0.950 . S
C490 C491 1.386 . S
C490 C492 1.391 1_554 S
C491 C490 1.386 . S
C491 C495 1.393 . S
C492 H481 0.950 . S
C492 C490 1.391 1_556 S
C492 C493 1.400 1_556 S
C493 C487 1.491 1_564 S
C493 C492 1.400 1_554 S
C493 C494 1.398 . S
C494 H482 0.950 . S
C494 C493 1.398 . S
C494 C495 1.391 . S
C495 H483 0.950 . S
C495 C491 1.393 . S
C495 C494 1.391 . S
H496 C504 0.950 . S
H497 C509 0.950 . S
H498 C506 0.950 . S
H499 C508 0.950 . S
H500 C510 0.950 . S
H501 C512 0.950 . S
H502 C514 0.950 . S
H503 C515 0.950 . S
C504 H496 0.950 . S
C504 C505 1.386 . S
C504 C506 1.391 . S
C505 C504 1.386 . S
C505 C509 1.393 . S
C506 H498 0.950 . S
C506 C504 1.391 . S
C506 C507 1.400 . S
C507 C506 1.400 . S
C507 C508 1.398 . S
C507 C513 1.491 . S
C508 H499 0.950 . S
C508 C507 1.398 . S
C508 C509 1.391 . S
C509 H497 0.950 . S
C509 C505 1.393 . S
C509 C508 1.391 . S
C510 H500 0.950 . S
C510 C511 1.386 . S
C510 C512 1.391 . S
C511 C510 1.386 . S
C511 C515 1.393 . S
C512 H501 0.950 . S
C512 C510 1.391 . S
C512 C513 1.400 . S
C513 C507 1.491 . S
C513 C512 1.400 . S
C513 C514 1.398 . S
C514 H502 0.950 . S
C514 C513 1.398 . S
C514 C515 1.391 . S
C515 H503 0.950 . S
C515 C511 1.393 . S
C515 C514 1.391 . S
H516 C524 0.950 . S
H517 C529 0.950 . S
H518 C526 0.950 . S
H519 C528 0.950 . S
H520 C530 0.950 . S
H521 C532 0.950 . S
H522 C534 0.950 . S
H523 C535 0.950 . S
C524 H516 0.950 . S
C524 C525 1.386 . S
C524 C526 1.391 . S
C525 C524 1.386 . S
C525 C529 1.393 . S
C526 H518 0.950 . S
C526 C524 1.391 . S
C526 C527 1.400 . S
C527 C526 1.400 . S
C527 C528 1.398 . S
C527 C533 1.491 . S
C528 H519 0.950 . S
C528 C527 1.398 . S
C528 C529 1.391 . S
C529 H517 0.950 . S
C529 C525 1.393 . S
C529 C528 1.391 . S
C530 H520 0.950 . S
C530 C531 1.386 . S
C530 C532 1.391 . S
C531 C530 1.386 . S
C531 C535 1.393 . S
C532 H521 0.950 . S
C532 C530 1.391 . S
C532 C533 1.400 . S
C533 C527 1.491 . S
C533 C532 1.400 . S
C533 C534 1.398 . S
C534 H522 0.950 . S
C534 C533 1.398 . S
C534 C535 1.391 . S
C535 H523 0.950 . S
C535 C531 1.393 . S
C535 C534 1.391 . S
H536 C544 0.950 . S
H537 C549 0.950 . S
H538 C546 0.950 . S
H539 C548 0.950 . S
H540 C550 0.950 . S
H541 C552 0.950 . S
H542 C554 0.950 . S
H543 C555 0.950 . S
C544 H536 0.950 . S
C544 C545 1.386 . S
C544 C546 1.391 . S
C545 C544 1.386 . S
C545 C549 1.393 . S
C546 H538 0.950 . S
C546 C544 1.391 . S
C546 C547 1.400 . S
C547 C546 1.400 . S
C547 C548 1.398 . S
C547 C553 1.491 . S
C548 H539 0.950 . S
C548 C547 1.398 . S
C548 C549 1.391 . S
C549 H537 0.950 . S
C549 C545 1.393 . S
C549 C548 1.391 . S
C550 H540 0.950 . S
C550 C551 1.386 . S
C550 C552 1.391 . S
C551 C550 1.386 . S
C551 C555 1.393 . S
C552 H541 0.950 . S
C552 C550 1.391 . S
C552 C553 1.400 . S
C553 C547 1.491 . S
C553 C552 1.400 . S
C553 C554 1.398 . S
C554 H542 0.950 . S
C554 C553 1.398 . S
C554 C555 1.391 . S
C555 H543 0.950 . S
C555 C551 1.393 . S
C555 C554 1.391 . S
H556 C564 0.950 . S
H557 C569 0.950 . S
H558 C566 0.950 . S
H559 C568 0.950 . S
H560 C570 0.950 . S
H561 C572 0.950 . S
H562 C574 0.950 . S
H563 C575 0.950 . S
C564 H556 0.950 . S
C564 C565 1.386 . S
C564 C566 1.391 . S
C565 C564 1.386 . S
C565 C569 1.393 . S
C566 H558 0.950 . S
C566 C564 1.391 . S
C566 C567 1.400 . S
C567 C566 1.400 . S
C567 C568 1.398 . S
C567 C573 1.491 . S
C568 H559 0.950 . S
C568 C567 1.398 . S
C568 C569 1.391 . S
C569 H557 0.950 . S
C569 C565 1.393 . S
C569 C568 1.391 . S
C570 H560 0.950 . S
C570 C571 1.386 . S
C570 C572 1.391 . S
C571 C570 1.386 . S
C571 C575 1.393 . S
C572 H561 0.950 . S
C572 C570 1.391 . S
C572 C573 1.400 . S
C573 C567 1.491 . S
C573 C572 1.400 . S
C573 C574 1.398 . S
C574 H562 0.950 . S
C574 C573 1.398 . S
C574 C575 1.391 . S
C575 H563 0.950 . S
C575 C571 1.393 . S
C575 C574 1.391 . S
H576 C584 0.950 . S
H577 C589 0.950 . S
H578 C586 0.950 . S
H579 C588 0.950 . S
H580 C590 0.950 . S
H581 C592 0.950 . S
H582 C594 0.950 . S
H583 C595 0.950 . S
C584 H576 0.950 . S
C584 C585 1.386 . S
C584 C586 1.391 . S
C585 C584 1.386 . S
C585 C589 1.393 . S
C586 H578 0.950 . S
C586 C584 1.391 . S
C586 C587 1.400 . S
C587 C586 1.400 . S
C587 C588 1.398 . S
C587 C593 1.491 . S
C588 H579 0.950 . S
C588 C587 1.398 . S
C588 C589 1.391 . S
C589 H577 0.950 . S
C589 C585 1.393 . S
C589 C588 1.391 . S
C590 H580 0.950 . S
C590 C591 1.386 . S
C590 C592 1.391 . S
C591 C590 1.386 . S
C591 C595 1.393 . S
C592 H581 0.950 . S
C592 C590 1.391 . S
C592 C593 1.400 . S
C593 C587 1.491 . S
C593 C592 1.400 . S
C593 C594 1.398 . S
C594 H582 0.950 . S
C594 C593 1.398 . S
C594 C595 1.391 . S
C595 H583 0.950 . S
C595 C591 1.393 . S
C595 C594 1.391 . S
H596 C604 0.950 1_554 S
H597 C609 0.950 . S
H598 C606 0.950 . S
H599 C608 0.950 . S
H600 C610 0.950 . S
H601 C612 0.950 . S
H602 C614 0.950 . S
H603 C615 0.950 . S
C604 H596 0.950 1_556 S
C604 C605 1.386 . S
C604 C606 1.391 . S
C605 C604 1.386 . S
C605 C609 1.393 . S
C606 H598 0.950 . S
C606 C604 1.391 . S
C606 C607 1.400 . S
C607 C606 1.400 . S
C607 C608 1.398 . S
C607 C613 1.491 . S
C608 H599 0.950 . S
C608 C607 1.398 . S
C608 C609 1.391 . S
C609 H597 0.950 . S
C609 C605 1.393 . S
C609 C608 1.391 . S
C610 H600 0.950 . S
C610 C611 1.386 . S
C610 C612 1.391 . S
C611 C610 1.386 . S
C611 C615 1.393 . S
C612 H601 0.950 . S
C612 C610 1.391 . S
C612 C613 1.400 . S
C613 C607 1.491 . S
C613 C612 1.400 . S
C613 C614 1.398 . S
C614 H602 0.950 . S
C614 C613 1.398 . S
C614 C615 1.391 . S
C615 H603 0.950 . S
C615 C611 1.393 . S
C615 C614 1.391 . S
H616 C624 0.950 . S
H617 C629 0.950 . S
H618 C626 0.950 . S
H619 C628 0.950 . S
H620 C630 0.950 . S
H621 C632 0.950 . S
H622 C634 0.950 . S
H623 C635 0.950 . S
C624 H616 0.950 . S
C624 C625 1.386 . S
C624 C626 1.391 . S
C625 C624 1.386 . S
C625 C629 1.393 . S
C626 H618 0.950 . S
C626 C624 1.391 . S
C626 C627 1.400 . S
C627 C626 1.400 . S
C627 C628 1.398 . S
C627 C633 1.491 . S
C628 H619 0.950 . S
C628 C627 1.398 . S
C628 C629 1.391 . S
C629 H617 0.950 . S
C629 C625 1.393 . S
C629 C628 1.391 . S
C630 H620 0.950 . S
C630 C631 1.386 . S
C630 C632 1.391 . S
C631 C630 1.386 . S
C631 C635 1.393 . S
C632 H621 0.950 . S
C632 C630 1.391 . S
C632 C633 1.400 . S
C633 C627 1.491 . S
C633 C632 1.400 . S
C633 C634 1.398 . S
C634 H622 0.950 . S
C634 C633 1.398 . S
C634 C635 1.391 . S
C635 H623 0.950 . S
C635 C631 1.393 . S
C635 C634 1.391 . S
C165 C10 1.490 . S
C171 C88 1.498 . S
C185 C23 1.488 . S
C191 C101 1.502 . S
C205 C114 1.497 . S
C211 C36 1.512 . S
C225 C49 1.492 . S
C231 C127 1.496 . S
C245 C62 1.488 . S
C251 C140 1.508 . S
C265 C153 1.505 . S
C271 C75 1.488 . S
C285 C105 1.700 . S
C291 C1 1.702 . S
C305 C14 1.708 . S
C311 C118 1.715 . S
C325 C131 1.705 1_556 S
C331 C27 1.715 . S
C345 C144 1.700 . S
C351 C40 1.703 1_554 S
C365 C53 1.714 . S
C371 C79 1.710 . S
C385 C66 1.707 . S
C391 C92 1.698 . S
C405 C148 1.876 . S
C411 C5 1.861 . S
C425 C83 1.865 . S
C431 C18 1.852 . S
C445 C31 1.853 . S
C451 C96 1.862 . S
C465 C109 1.854 . S
C471 C44 1.870 . S
C485 C122 1.868 . S
C491 C57 1.853 . S
C505 C135 1.857 . S
C511 C70 1.856 . S
C525 C3 1.419 . S
C531 C133 1.411 . S
C545 C146 1.408 . S
C551 C16 1.421 . S
C565 C29 1.407 . S
C571 C81 1.419 . S
C585 C42 1.415 . S
C591 C94 1.415 . S
C605 C55 1.421 1_556 S
C611 C107 1.409 . S
C625 C68 1.418 . S
C631 C120 1.413 1_554 S
