# Generated by pormake.
# Topology sra, (4)-cn, num edge types: 1
# Building blocks:
#     Node 0, Type 0, BuildingBlock: GALJAG_clean_sbu_0, # of connection points: 4
#     Node 1, Type 0, BuildingBlock: GALJAG_clean_sbu_0, # of connection points: 4
#     Node 2, Type 0, BuildingBlock: GALJAG_clean_sbu_0, # of connection points: 4
#     Node 3, Type 0, BuildingBlock: GALJAG_clean_sbu_0, # of connection points: 4
#     Node 4, Type 0, BuildingBlock: GALJAG_clean_sbu_0, # of connection points: 4
#     Node 5, Type 0, BuildingBlock: GALJAG_clean_sbu_0, # of connection points: 4
#     Node 6, Type 0, BuildingBlock: GALJAG_clean_sbu_0, # of connection points: 4
#     Node 7, Type 0, BuildingBlock: GALJAG_clean_sbu_0, # of connection points: 4
#     Edge 8, Type (0, 0), BuildingBlock: FUNLAD_clean_linker_1, # of connection points: 2
#     Edge 9, Type (0, 0), BuildingBlock: FUNLAD_clean_linker_1, # of connection points: 2
#     Edge 10, Type (0, 0), BuildingBlock: FUNLAD_clean_linker_1, # of connection points: 2
#     Edge 11, Type (0, 0), BuildingBlock: FUNLAD_clean_linker_1, # of connection points: 2
#     Edge 12, Type (0, 0), BuildingBlock: FUNLAD_clean_linker_1, # of connection points: 2
#     Edge 13, Type (0, 0), BuildingBlock: FUNLAD_clean_linker_1, # of connection points: 2
#     Edge 14, Type (0, 0), BuildingBlock: FUNLAD_clean_linker_1, # of connection points: 2
#     Edge 15, Type (0, 0), BuildingBlock: FUNLAD_clean_linker_1, # of connection points: 2
#     Edge 16, Type (0, 0), BuildingBlock: FUNLAD_clean_linker_1, # of connection points: 2
#     Edge 17, Type (0, 0), BuildingBlock: FUNLAD_clean_linker_1, # of connection points: 2
#     Edge 18, Type (0, 0), BuildingBlock: FUNLAD_clean_linker_1, # of connection points: 2
#     Edge 19, Type (0, 0), BuildingBlock: FUNLAD_clean_linker_1, # of connection points: 2
#     Edge 20, Type (0, 0), BuildingBlock: FUNLAD_clean_linker_1, # of connection points: 2
#     Edge 21, Type (0, 0), BuildingBlock: FUNLAD_clean_linker_1, # of connection points: 2
#     Edge 22, Type (0, 0), BuildingBlock: FUNLAD_clean_linker_1, # of connection points: 2
#     Edge 23, Type (0, 0), BuildingBlock: FUNLAD_clean_linker_1, # of connection points: 2
# Relax obj value: 0.075
# Max RMSD: 0.110
# Mean RMSD: 0.110
data_MOF--net-sra--node1-GALJAG_clean_sbu_0--edge1-FUNLAD_clean_linker_1
_symmetry_space_group_name_H-M    P1
_symmetry_Int_Tables_number       1
_symmetry_cell_setting            triclinic
loop_
_symmetry_equiv_pos_as_xyz
'x, y, z'
_cell_length_a     29.097495
_cell_length_b     56.108274
_cell_length_c     29.960596
_cell_angle_alpha  89.827416
_cell_angle_beta   89.739986
_cell_angle_gamma 89.869468
loop_
_atom_site_label
_atom_site_type_symbol
_atom_site_fract_x
_atom_site_fract_y
_atom_site_fract_z
_atom_type_partial_charge
In0 In 0.04882 0.09929 0.16063 0.0
O1 O 0.05155 0.08197 0.09217 0.0
O2 O 0.05611 0.05951 0.1496 0.0
C3 C 0.05241 0.14575 0.13855 0.0
C4 C 0.96007 0.0945 0.18327 0.0
C5 C 0.12486 0.09626 0.21108 0.0
O6 O 0.07183 0.12997 0.1152 0.0
O7 O 0.03146 0.13814 0.17259 0.0
O8 O 0.08513 0.09472 0.22803 0.0
O9 O 0.12582 0.09922 0.16939 0.0
C10 C 0.05533 0.06108 0.10764 0.0
O11 O 0.99176 0.09313 0.21201 0.0
O12 O 0.97326 0.09801 0.14365 0.0
In13 In 0.04106 0.37734 0.13377 0.0
O14 O 0.04688 0.39171 0.06286 0.0
O15 O 0.04555 0.41651 0.1169 0.0
C16 C 0.03422 0.33018 0.12228 0.0
C17 C 0.12884 0.37985 0.16172 0.0
C18 C 0.95535 0.38515 0.16572 0.0
O19 O 0.02671 0.34472 0.09085 0.0
O20 O 0.04475 0.33941 0.15923 0.0
O21 O 0.98971 0.38466 0.19165 0.0
O22 O 0.96466 0.38197 0.12513 0.0
C23 C 0.04785 0.41322 0.07525 0.0
O24 O 0.09589 0.38711 0.18613 0.0
O25 O 0.1172 0.37144 0.1245 0.0
In26 In 0.0457 0.89138 0.8156 0.0
O27 O 0.01049 0.89427 0.74719 0.0
O28 O 0.96911 0.89482 0.80595 0.0
C29 C 0.13565 0.89281 0.79536 0.0
C30 C 0.04305 0.93095 0.86529 0.0
C31 C 0.03457 0.84581 0.84138 0.0
O32 O 0.1051 0.89611 0.76599 0.0
O33 O 0.12078 0.88888 0.83427 0.0
O34 O 0.01846 0.86294 0.86375 0.0
O35 O 0.05613 0.85166 0.80645 0.0
C36 C 0.9706 0.8955 0.76394 0.0
O37 O 0.0437 0.91035 0.88247 0.0
O38 O 0.0435 0.93157 0.82323 0.0
In39 In 0.04794 0.61481 0.86095 0.0
O40 O 0.05005 0.59905 0.93095 0.0
O41 O 0.05482 0.57543 0.87519 0.0
C42 C 0.044 0.66201 0.87305 0.0
C43 C 0.13336 0.61228 0.82572 0.0
C44 C 0.95956 0.60814 0.83778 0.0
O45 O 0.05622 0.64799 0.9039 0.0
O46 O 0.03384 0.65225 0.83648 0.0
O47 O 0.9916 0.60728 0.80887 0.0
O48 O 0.97239 0.61204 0.87723 0.0
C49 C 0.05395 0.57787 0.91711 0.0
O50 O 0.09853 0.60629 0.803 0.0
O51 O 0.12458 0.6195 0.86457 0.0
In52 In 0.55072 0.60411 0.66547 0.0
O53 O 0.49249 0.59784 0.717 0.0
O54 O 0.47571 0.61186 0.65282 0.0
C55 C 0.63084 0.59482 0.70811 0.0
C56 C 0.54162 0.5667 0.61141 0.0
C57 C 0.56711 0.64927 0.63989 0.0
O58 O 0.59768 0.60496 0.72798 0.0
O59 O 0.62269 0.58883 0.6686 0.0
O60 O 0.57811 0.63178 0.61567 0.0
O61 O 0.54836 0.64396 0.67659 0.0
C62 C 0.46148 0.60511 0.69055 0.0
O63 O 0.54897 0.58749 0.59652 0.0
O64 O 0.53859 0.56488 0.65336 0.0
In65 In 0.5472 0.87986 0.62567 0.0
O66 O 0.5903 0.88743 0.68756 0.0
O67 O 0.62434 0.88487 0.62444 0.0
C68 C 0.46079 0.88098 0.65825 0.0
C69 C 0.54692 0.91677 0.56858 0.0
C70 C 0.55611 0.83299 0.60951 0.0
O71 O 0.49456 0.88812 0.681 0.0
O72 O 0.47079 0.8732 0.62008 0.0
O73 O 0.54087 0.84724 0.58043 0.0
O74 O 0.56679 0.84233 0.64623 0.0
C75 C 0.62775 0.88816 0.66597 0.0
O76 O 0.55599 0.89583 0.55593 0.0
O77 O 0.53787 0.91895 0.60956 0.0
In78 In 0.53976 0.39072 0.33345 0.0
O79 O 0.48813 0.3934 0.27497 0.0
O80 O 0.46284 0.3907 0.34178 0.0
C81 C 0.62836 0.3909 0.30644 0.0
C82 C 0.53904 0.4327 0.3754 0.0
C83 C 0.53727 0.34565 0.36291 0.0
O84 O 0.59583 0.39246 0.27845 0.0
O85 O 0.61592 0.38937 0.34666 0.0
O86 O 0.53721 0.36315 0.38937 0.0
O87 O 0.53873 0.35093 0.32188 0.0
C88 C 0.45353 0.39238 0.30089 0.0
O89 O 0.53694 0.41308 0.39619 0.0
O90 O 0.5416 0.43117 0.33342 0.0
In91 In 0.54791 0.11532 0.34595 0.0
O92 O 0.60332 0.10407 0.29586 0.0
O93 O 0.62402 0.12165 0.35552 0.0
C94 C 0.46765 0.1048 0.30682 0.0
C95 C 0.54894 0.08116 0.40852 0.0
C96 C 0.53835 0.1628 0.34994 0.0
O97 O 0.50522 0.1043 0.28546 0.0
O98 O 0.47084 0.11049 0.34738 0.0
O99 O 0.53977 0.15007 0.38484 0.0
O100 O 0.54179 0.15163 0.31365 0.0
C101 C 0.63591 0.11197 0.31936 0.0
O102 O 0.54256 0.1028 0.41845 0.0
O103 O 0.55486 0.077 0.36753 0.0
H104 H 1.0053 0.29759 0.0927 0.0
C105 C 0.02997 0.30432 0.11666 0.0
H106 H 0.08062 0.29641 0.16426 0.0
H107 H 0.02059 0.19567 0.22734 0.0
H108 H 0.01732 0.2187 0.29529 0.0
H109 H 0.02613 0.26239 0.29351 0.0
H110 H 0.03924 0.28318 0.22388 0.0
C111 C 0.05577 0.28926 0.14087 0.0
C112 C 0.04824 0.26301 0.14071 0.0
C113 C 0.03865 0.25124 0.18169 0.0
C114 C 0.03159 0.22618 0.18249 0.0
C115 C 0.02464 0.21475 0.22429 0.0
C116 C 0.02288 0.22775 0.26377 0.0
C117 C 0.02797 0.25232 0.26278 0.0
C118 C 0.03573 0.26402 0.22241 0.0
H119 H 0.08605 0.17753 0.11001 0.0
C120 C 0.05623 0.17131 0.12859 0.0
H121 H 0.99499 0.18019 0.16217 0.0
H122 H 0.07524 0.2787 0.05761 0.0
H123 H 0.07168 0.25638 0.98862 0.0
H124 H 0.04595 0.21451 0.98846 0.0
H125 H 0.02564 0.1945 0.05756 0.0
C126 C 0.02469 0.18682 0.14385 0.0
C127 C 0.0319 0.21307 0.14204 0.0
C128 C 0.03968 0.225 0.10085 0.0
C129 C 0.05036 0.24972 0.10046 0.0
C130 C 0.06344 0.26048 0.05951 0.0
C131 C 0.06207 0.24778 0.01966 0.0
C132 C 0.04789 0.22417 0.01961 0.0
C133 C 0.03677 0.21282 0.05961 0.0
H134 H 0.9968 0.81642 0.87392 0.0
C135 C 0.02671 0.82079 0.85367 0.0
H136 H 0.08467 0.80829 0.81867 0.0
H137 H 1.00085 0.71534 0.93648 0.0
H138 H 0.00968 0.73942 0.00296 0.0
H139 H 0.03799 0.78076 -0.00231 0.0
H140 H 0.05569 0.79851 0.92585 0.0
C141 C 0.05489 0.80354 0.83885 0.0
C142 C 0.04375 0.77778 0.84368 0.0
C143 C 0.03721 0.76719 0.88634 0.0
C144 C 0.02489 0.74273 0.88972 0.0
C145 C 0.01357 0.7333 0.93227 0.0
C146 C 0.01801 0.74701 0.97067 0.0
C147 C 0.03366 0.77032 0.96767 0.0
C148 C 0.04325 0.78038 0.92611 0.0
H149 H 0.07037 0.6957 0.90021 0.0
C150 C 0.04496 0.68801 0.87807 0.0
H151 H 0.99152 0.69391 0.83247 0.0
H152 H 0.05001 0.79278 0.75644 0.0
H153 H 0.04677 0.76802 0.69066 0.0
H154 H 0.035 0.72464 0.69709 0.0
H155 H 0.0254 0.70591 0.76917 0.0
C156 C 0.017 0.70205 0.85399 0.0
C157 C 0.02393 0.72831 0.85086 0.0
C158 C 0.03118 0.73883 0.80825 0.0
C159 C 0.03998 0.76367 0.80463 0.0
C160 C 0.04481 0.77389 0.76148 0.0
C161 C 0.04281 0.75989 0.72326 0.0
C162 C 0.03605 0.7355 0.72688 0.0
C163 C 0.03035 0.72499 0.76868 0.0
H164 H 0.60611 0.67789 0.60611 0.0
C165 C 0.57649 0.67408 0.62713 0.0
H166 H 0.51988 0.68744 0.66298 0.0
H167 H 0.57982 0.78944 0.71107 0.0
H168 H 0.57157 0.77074 0.78331 0.0
H169 H 0.56076 0.72731 0.79005 0.0
H170 H 0.55713 0.70245 0.72441 0.0
C171 C 0.5495 0.69177 0.64224 0.0
C172 C 0.5615 0.71742 0.63705 0.0
C173 C 0.56581 0.73158 0.67598 0.0
C174 C 0.57412 0.75645 0.67215 0.0
C175 C 0.57525 0.77033 0.71167 0.0
C176 C 0.57033 0.75984 0.75358 0.0
C177 C 0.5641 0.73542 0.75737 0.0
C178 C 0.56183 0.72138 0.71924 0.0
H179 H 0.5317 0.79916 0.58119 0.0
C180 C 0.5572 0.80708 0.60294 0.0
H181 H 0.61195 0.80166 0.64728 0.0
H182 H 0.54896 0.69654 0.55503 0.0
H183 H 0.56535 0.71432 0.48296 0.0
H184 H 0.5926 0.75584 0.4772 0.0
H185 H 0.60173 0.78005 0.54352 0.0
C186 C 0.58646 0.79328 0.62608 0.0
C187 C 0.58045 0.76696 0.6294 0.0
C188 C 0.57922 0.7525 0.59063 0.0
C189 C 0.5674 0.72797 0.59426 0.0
C190 C 0.56106 0.71473 0.5546 0.0
C191 C 0.56988 0.72481 0.51289 0.0
C192 C 0.58494 0.74822 0.50962 0.0
C193 C 0.5896 0.76199 0.54792 0.0
H194 H 0.53459 0.3175 0.41464 0.0
C195 C 0.53575 0.32085 0.3789 0.0
H196 H 0.53551 0.30579 0.31442 0.0
H197 H 0.60872 0.21175 0.42467 0.0
H198 H 0.67728 0.23484 0.43998 0.0
H199 H 0.6809 0.27758 0.42079 0.0
H200 H 0.61605 0.29752 0.38649 0.0
C201 C 0.53588 0.30255 0.35021 0.0
C202 C 0.53293 0.27744 0.36559 0.0
C203 C 0.57125 0.26617 0.38588 0.0
C204 C 0.56948 0.24145 0.39629 0.0
C205 C 0.60834 0.23047 0.41595 0.0
C206 C 0.6479 0.24351 0.42491 0.0
C207 C 0.64991 0.26758 0.41416 0.0
C208 C 0.61226 0.27885 0.39468 0.0
H209 H 0.53238 0.19795 0.31834 0.0
C210 C 0.53356 0.18884 0.35041 0.0
H211 H 0.53437 0.19301 0.42054 0.0
H212 H 0.45234 0.29412 0.33024 0.0
H213 H 0.38343 0.27107 0.31622 0.0
H214 H 0.38032 0.22822 0.33487 0.0
H215 H 0.44625 0.20817 0.3675 0.0
C216 C 0.53158 0.20161 0.38812 0.0
C217 C 0.52991 0.22804 0.38543 0.0
C218 C 0.49074 0.23959 0.36745 0.0
C219 C 0.49238 0.26429 0.35718 0.0
C220 C 0.45303 0.27533 0.33852 0.0
C221 C 0.4132 0.26233 0.33044 0.0
C222 C 0.41146 0.23821 0.3409 0.0
C223 C 0.44962 0.22689 0.35932 0.0
H224 H 0.42213 0.09737 0.2497 0.0
C225 C 0.42309 0.10009 0.28559 0.0
H226 H 0.38466 0.10344 0.3452 0.0
H227 H 0.2047 0.13917 0.24962 0.0
H228 H 0.22923 0.1749 0.28786 0.0
H229 H 0.30381 0.17621 0.32657 0.0
H230 H 0.35432 0.14183 0.32714 0.0
C231 C 0.38389 0.10008 0.3095 0.0
C232 C 0.33822 0.0986 0.28774 0.0
C233 C 0.30866 0.11874 0.28858 0.0
C234 C 0.26554 0.11793 0.26655 0.0
C235 C 0.23745 0.1386 0.2665 0.0
C236 C 0.2512 0.1593 0.28817 0.0
C237 C 0.29318 0.16005 0.30995 0.0
C238 C 0.3218 0.14011 0.31012 0.0
H239 H 0.16435 0.09441 0.27401 0.0
C240 C 0.16713 0.09539 0.23787 0.0
H241 H 0.2117 0.09682 0.18199 0.0
H242 H 0.38423 0.05594 0.28438 0.0
H243 H 0.35961 0.02017 0.24611 0.0
H244 H 0.28559 0.01912 0.20633 0.0
H245 H 0.23552 0.05378 0.20497 0.0
C246 C 0.20865 0.09652 0.21816 0.0
C247 C 0.25191 0.09688 0.24417 0.0
C248 C 0.28106 0.07662 0.24402 0.0
C249 C 0.32409 0.07737 0.26626 0.0
C250 C 0.3518 0.05659 0.26693 0.0
C251 C 0.33793 0.03587 0.24534 0.0
C252 C 0.29623 0.03527 0.22299 0.0
C253 C 0.2679 0.05531 0.22235 0.0
H254 H 0.70177 0.38855 0.32232 0.0
C255 C 0.67773 0.39037 0.29482 0.0
H256 H 0.67131 0.39419 0.22499 0.0
H257 H 0.87643 0.43337 0.20694 0.0
H258 H 0.83239 0.4693 0.19223 0.0
H259 H 0.7481 0.46971 0.20134 0.0
H260 H 0.70727 0.43421 0.22531 0.0
C261 C 0.69435 0.39159 0.25303 0.0
C262 C 0.74511 0.39078 0.24482 0.0
C263 C 0.76844 0.41154 0.23005 0.0
C264 C 0.81708 0.41123 0.22428 0.0
C265 C 0.8395 0.43245 0.21081 0.0
C266 C 0.81466 0.45324 0.20255 0.0
C267 C 0.7672 0.45348 0.20773 0.0
C268 C 0.74419 0.43297 0.22146 0.0
H269 H 0.88182 0.3905 0.15349 0.0
C270 C 0.90719 0.38879 0.17988 0.0
H271 H 0.91692 0.38594 0.24947 0.0
H272 H 0.71115 0.3472 0.26981 0.0
H273 H 0.75529 0.31143 0.28495 0.0
H274 H 0.83966 0.31119 0.27667 0.0
H275 H 0.88041 0.34674 0.25298 0.0
C276 C 0.89275 0.38885 0.22246 0.0
C277 C 0.8424 0.39003 0.23262 0.0
C278 C 0.81914 0.36932 0.24773 0.0
C279 C 0.77047 0.36959 0.25329 0.0
C280 C 0.7481 0.34827 0.26639 0.0
C281 C 0.773 0.32752 0.27485 0.0
C282 C 0.8205 0.32738 0.27011 0.0
C283 C 0.84346 0.34793 0.25653 0.0
H284 H 0.20842 0.88873 0.81325 0.0
C285 C 0.18527 0.89266 0.78579 0.0
H286 H 0.18034 0.90116 0.71721 0.0
H287 H 0.38733 0.93717 0.70742 0.0
H288 H 0.34652 0.97491 0.70444 0.0
H289 H 0.26268 0.97668 0.71671 0.0
H290 H 0.21905 0.94069 0.73175 0.0
C291 C 0.20265 0.89649 0.74489 0.0
C292 C 0.25314 0.89529 0.73705 0.0
C293 C 0.27813 0.91649 0.72857 0.0
C294 C 0.32654 0.91549 0.72193 0.0
C295 C 0.35057 0.93691 0.71299 0.0
C296 C 0.32757 0.9587 0.71119 0.0
C297 C 0.28036 0.95969 0.71808 0.0
C298 C 0.25574 0.9389 0.72667 0.0
H299 H 0.38699 0.87393 0.652 0.0
C300 C 0.41279 0.88171 0.67368 0.0
H301 H 0.42438 0.90083 0.73321 0.0
H302 H 0.21523 0.85101 0.74934 0.0
H303 H 0.25641 0.81355 0.75536 0.0
H304 H 0.34092 0.81221 0.74873 0.0
H305 H 0.38464 0.84832 0.73533 0.0
C306 C 0.39953 0.892 0.71198 0.0
C307 C 0.3498 0.89328 0.72367 0.0
C308 C 0.32496 0.87216 0.73342 0.0
C309 C 0.27646 0.87308 0.73914 0.0
C310 C 0.25227 0.85151 0.74636 0.0
C311 C 0.27546 0.82983 0.74961 0.0
C312 C 0.32301 0.82907 0.74572 0.0
C313 C 0.34765 0.84991 0.73774 0.0
H314 H 0.70034 0.57961 0.70875 0.0
C315 C 0.67726 0.59149 0.72676 0.0
H316 H 0.67269 0.61811 0.77605 0.0
H317 H 0.87345 0.56124 0.81131 0.0
H318 H 0.82693 0.52753 0.83439 0.0
H319 H 0.7424 0.52902 0.8289 0.0
H320 H 0.70388 0.56416 0.79982 0.0
C321 C 0.69425 0.6048 0.75994 0.0
C322 C 0.74481 0.60481 0.76879 0.0
C323 C 0.7668 0.58443 0.78711 0.0
C324 C 0.81552 0.58389 0.79171 0.0
C325 C 0.83655 0.56292 0.8084 0.0
C326 C 0.81026 0.54338 0.82153 0.0
C327 C 0.76267 0.54419 0.81832 0.0
C328 C 0.74101 0.56442 0.80134 0.0
H329 H 0.88656 0.60536 0.85599 0.0
C330 C 0.9102 0.60543 0.82777 0.0
H331 H 0.91576 0.60544 0.75753 0.0
H332 H 0.71397 0.64676 0.73263 0.0
H333 H 0.76031 0.68084 0.71146 0.0
H334 H 0.84441 0.68031 0.72139 0.0
H335 H 0.88277 0.64562 0.75226 0.0
C336 C 0.89306 0.60421 0.78634 0.0
C337 C 0.84221 0.60402 0.77923 0.0
C338 C 0.82017 0.62448 0.76138 0.0
C339 C 0.77152 0.62489 0.7562 0.0
C340 C 0.75067 0.64552 0.73776 0.0
C341 C 0.77688 0.66522 0.72541 0.0
C342 C 0.82423 0.66492 0.73096 0.0
C343 C 0.84581 0.64486 0.74871 0.0
H344 H 0.67313 0.89292 0.72416 0.0
C345 C 0.67243 0.89133 0.68803 0.0
H346 H 0.71165 0.89013 0.62847 0.0
H347 H 0.88605 0.93874 0.71596 0.0
H348 H 0.85793 0.97118 0.66983 0.0
H349 H 0.78367 0.96804 0.63089 0.0
H350 H 0.73693 0.93245 0.63807 0.0
C351 C 0.71199 0.89113 0.66469 0.0
C352 C 0.75734 0.89263 0.68714 0.0
C353 C 0.78467 0.91333 0.68181 0.0
C354 C 0.82773 0.91504 0.70387 0.0
C355 C 0.85353 0.93628 0.69928 0.0
C356 C 0.83769 0.9551 0.67304 0.0
C357 C 0.79586 0.95334 0.65114 0.0
C358 C 0.76943 0.93278 0.65547 0.0
H359 H 0.93146 0.89565 0.70065 0.0
C360 C 0.92854 0.89665 0.73676 0.0
H361 H 0.88399 0.89812 0.79252 0.0
H362 H 0.71605 0.84919 0.69995 0.0
H363 H 0.74439 0.81666 0.74556 0.0
H364 H 0.81833 0.81992 0.78499 0.0
H365 H 0.86451 0.85569 0.77872 0.0
C366 C 0.88693 0.89789 0.75634 0.0
C367 C 0.84354 0.89587 0.7307 0.0
C368 C 0.8166 0.87497 0.7353 0.0
C369 C 0.77366 0.87324 0.71314 0.0
C370 C 0.74829 0.85179 0.71704 0.0
C371 C 0.76432 0.83287 0.74289 0.0
C372 C 0.80595 0.8347 0.76505 0.0
C373 C 0.83203 0.8554 0.76129 0.0
H374 H 0.38941 0.61377 0.67623 0.0
C375 C 0.41195 0.60611 0.70137 0.0
H376 H 0.41492 0.58948 0.76458 0.0
H377 H 0.21304 0.64758 0.75854 0.0
H378 H 0.25875 0.68365 0.75732 0.0
H379 H 0.34338 0.68163 0.75362 0.0
H380 H 0.38271 0.64356 0.75015 0.0
C381 C 0.39346 0.59811 0.73971 0.0
C382 C 0.34264 0.59941 0.74731 0.0
C383 C 0.32024 0.62183 0.75138 0.0
C384 C 0.27154 0.62297 0.75597 0.0
C385 C 0.25001 0.64563 0.75715 0.0
C386 C 0.27582 0.6665 0.75611 0.0
C387 C 0.32344 0.66536 0.75383 0.0
C388 C 0.34557 0.64336 0.75152 0.0
H389 H 0.20744 0.61752 0.83321 0.0
C390 C 0.18149 0.61119 0.8101 0.0
H391 H 0.17026 0.5954 0.7472 0.0
H392 H 0.37417 0.55366 0.73953 0.0
H393 H 0.32852 0.51757 0.74305 0.0
H394 H 0.24459 0.51952 0.75441 0.0
H395 H 0.20564 0.55758 0.76191 0.0
C396 C 0.19514 0.60275 0.7703 0.0
C397 C 0.24533 0.6017 0.75912 0.0
C398 C 0.26768 0.57932 0.75491 0.0
C399 C 0.31629 0.57818 0.74895 0.0
C400 C 0.3375 0.55557 0.74452 0.0
C401 C 0.3117 0.5347 0.74646 0.0
C402 C 0.26443 0.5358 0.75282 0.0
C403 C 0.2425 0.55778 0.75708 0.0
H404 H 0.70963 0.11885 0.32781 0.0
C405 C 0.68457 0.1102 0.30651 0.0
H406 H 0.67472 0.08857 0.24973 0.0
H407 H 0.88316 0.13715 0.22547 0.0
H408 H 0.842 0.17419 0.21323 0.0
H409 H 0.75757 0.17595 0.22057 0.0
H410 H 0.71395 0.14074 0.2409 0.0
C411 C 0.69896 0.0982 0.27041 0.0
C412 C 0.74887 0.09647 0.26005 0.0
C413 C 0.77359 0.11702 0.24641 0.0
C414 C 0.82199 0.11577 0.24032 0.0
C415 C 0.84615 0.13685 0.22896 0.0
C416 C 0.82298 0.15829 0.2221 0.0
C417 C 0.77548 0.1593 0.22639 0.0
C418 C 0.75089 0.13898 0.23836 0.0
H419 H 0.88652 0.09569 0.16731 0.0
C420 C 0.9109 0.09364 0.19446 0.0
H421 H 0.9189 0.08957 0.2642 0.0
H422 H 0.7116 0.05374 0.2854 0.0
H423 H 0.75255 0.01638 0.29542 0.0
H424 H 0.83627 0.01395 0.28266 0.0
H425 H 0.87963 0.04894 0.26005 0.0
C426 C 0.89534 0.09202 0.23653 0.0
C427 C 0.84526 0.09372 0.24597 0.0
C428 C 0.82049 0.07313 0.25902 0.0
C429 C 0.77218 0.07449 0.26601 0.0
C430 C 0.74829 0.05368 0.27938 0.0
C431 C 0.77138 0.03212 0.28526 0.0
C432 C 0.81852 0.03076 0.27809 0.0
C433 C 0.84298 0.05096 0.26511 0.0
H434 H 0.20205 0.37167 0.15224 0.0
C435 C 0.17779 0.38055 0.17439 0.0
H436 H 0.17074 0.40182 0.23207 0.0
H437 H 0.37562 0.34909 0.25497 0.0
H438 H 0.3317 0.31308 0.2684 0.0
H439 H 0.2473 0.31306 0.26087 0.0
H440 H 0.20639 0.34898 0.23936 0.0
C441 C 0.19387 0.39184 0.2105 0.0
C442 C 0.24436 0.39236 0.21949 0.0
C443 C 0.26767 0.37139 0.23341 0.0
C444 C 0.3162 0.37163 0.23939 0.0
C445 C 0.33869 0.35015 0.25147 0.0
C446 C 0.31392 0.3293 0.25899 0.0
C447 C 0.26642 0.32927 0.25462 0.0
C448 C 0.24339 0.34999 0.242 0.0
H449 H 0.3792 0.39041 0.31237 0.0
C450 C 0.40514 0.39233 0.28635 0.0
H451 H 0.41625 0.39666 0.21704 0.0
H452 H 0.21069 0.43553 0.19232 0.0
H453 H 0.25453 0.47176 0.18029 0.0
H454 H 0.33831 0.47243 0.19251 0.0
H455 H 0.37891 0.43681 0.21653 0.0
C456 C 0.39142 0.39397 0.24375 0.0
C457 C 0.3413 0.39306 0.23302 0.0
C458 C 0.31802 0.41399 0.21897 0.0
C459 C 0.26956 0.41365 0.2123 0.0
C460 C 0.24734 0.43482 0.19813 0.0
C461 C 0.27209 0.45574 0.1911 0.0
C462 C 0.31928 0.45611 0.19796 0.0
C463 C 0.34216 0.43555 0.21177 0.0
H464 H 0.0623 0.02261 0.09552 0.0
C465 C 0.05762 0.03982 0.07937 0.0
H466 H 0.04596 0.05792 0.01846 0.0
H467 H 0.13124 0.95304 0.95521 0.0
H468 H 0.20383 0.96805 0.98301 0.0
H469 H 0.20765 0.00669 0.02194 0.0
H470 H 0.13889 0.03049 0.03343 0.0
C471 C 0.05261 0.041 0.03499 0.0
C472 C 0.05137 0.01885 0.00822 0.0
C473 C 0.09201 0.00533 0.00149 0.0
C474 C 0.08991 0.98325 0.97858 0.0
C475 C 0.13092 0.96999 0.97236 0.0
C476 C 0.17282 0.9784 0.98811 0.0
C477 C 0.17495 0.00014 0.01007 0.0
C478 C 0.13517 0.01355 0.01668 0.0
H479 H 0.03961 0.96981 0.87438 0.0
C480 C 0.0423 0.95285 0.89185 0.0
H481 H 0.05032 0.93575 0.95433 0.0
H482 H 0.96748 0.04089 0.01463 0.0
H483 H 0.89501 0.02599 0.98641 0.0
H484 H 0.89128 0.98746 0.94712 0.0
H485 H 0.96001 0.96363 0.93576 0.0
C486 C 0.0458 0.95246 0.93641 0.0
C487 C 0.04737 0.97503 0.96184 0.0
C488 C 1.00681 0.98865 0.96822 0.0
C489 C 0.00888 0.01071 0.99119 0.0
C490 C 0.96787 0.02398 -0.00264 0.0
C491 C 0.92602 0.01563 0.98137 0.0
C492 C 0.92393 0.99395 0.95922 0.0
C493 C 0.9637 0.9805 0.95272 0.0
H494 H 0.05415 0.56078 0.9835 0.0
C495 C 0.0562 0.55746 0.94782 0.0
H496 H 0.06011 0.53148 0.897 0.0
H497 H 0.12949 0.47124 0.07592 0.0
H498 H 0.19772 0.49595 0.07214 0.0
H499 H 0.20315 0.52908 0.01805 0.0
H500 H 0.14031 0.53776 0.96758 0.0
C501 C 0.05957 0.53505 0.93264 0.0
C502 C 0.05774 0.51445 0.96367 0.0
C503 C 0.09503 0.50954 0.9926 0.0
C504 C 0.09211 0.49028 0.02336 0.0
C505 C 0.1298 0.48571 0.05195 0.0
C506 C 0.16924 0.49971 0.05006 0.0
C507 C 0.17228 0.51838 0.01964 0.0
C508 C 0.13581 0.52326 0.99105 0.0
H509 H 0.05261 0.42896 0.00781 0.0
C510 C 0.05058 0.43303 0.04322 0.0
H511 H 0.04882 0.46004 0.09222 0.0
H512 H 0.98085 0.51878 0.91175 0.0
H513 H 0.91251 0.4942 0.91566 0.0
H514 H 0.90669 0.46133 0.97025 0.0
H515 H 0.96923 0.45275 0.02096 0.0
C516 C 0.04961 0.45578 0.05686 0.0
C517 C 0.05227 0.47582 0.02458 0.0
C518 C 0.01502 0.48069 -0.00446 0.0
C519 C 0.01803 0.49988 0.96465 0.0
C520 C 0.98043 0.50441 0.93591 0.0
C521 C 0.94092 0.49047 0.93785 0.0
C522 C 0.93766 0.47195 0.96853 0.0
C523 C 0.97404 0.46711 -0.00274 0.0
H524 H 0.54309 0.4719 0.3781 0.0
C525 C 0.53899 0.45585 0.39813 0.0
H526 H 0.5316 0.44152 0.463 0.0
H527 H 0.6242 0.5294 0.55741 0.0
H528 H 0.68436 0.49965 0.56431 0.0
H529 H 0.67811 0.46093 0.52605 0.0
H530 H 0.61177 0.45178 0.48054 0.0
C531 C 0.53436 0.45749 0.44255 0.0
C532 C 0.53751 0.48082 0.46547 0.0
C533 C 0.57624 0.48569 0.49241 0.0
C534 C 0.57956 0.50784 0.51493 0.0
C535 C 0.6193 0.51258 0.54054 0.0
C536 C 0.65428 0.49573 0.54452 0.0
C537 C 0.65078 0.47395 0.52295 0.0
C538 C 0.61242 0.46891 0.49702 0.0
H539 H 0.53302 0.52844 0.59852 0.0
C540 C 0.5387 0.54565 0.58266 0.0
H541 H 0.54939 0.56393 0.52162 0.0
H542 H 0.45752 0.47671 0.41791 0.0
H543 H 0.39816 0.5068 0.41009 0.0
H544 H 0.40481 0.54559 0.44806 0.0
H545 H 0.47086 0.55444 0.49432 0.0
C546 C 0.54465 0.54688 0.53832 0.0
C547 C 0.54366 0.52485 0.5111 0.0
C548 C 0.50555 0.52027 0.48322 0.0
C549 C 0.50215 0.49809 0.46072 0.0
C550 C 0.46259 0.49351 0.43475 0.0
C551 C 0.42806 0.51058 0.43022 0.0
C552 C 0.43177 0.5324 0.45165 0.0
C553 C 0.46987 0.53726 0.47807 0.0
H554 H 0.55572 0.93415 0.50292 0.0
C555 C 0.54763 0.93723 0.5379 0.0
H556 H 0.53262 0.96277 0.58764 0.0
H557 H 0.62758 0.04631 0.47888 0.0
H558 H 0.68263 0.04024 0.53833 0.0
H559 H 0.67417 0.00673 0.59121 0.0
H560 H 0.61071 0.97903 0.58476 0.0
C561 C 0.53921 0.95942 0.55247 0.0
C562 C 0.54249 0.98023 0.52203 0.0
C563 C 0.57916 0.99658 0.52702 0.0
C564 C 0.58366 0.01608 0.49696 0.0
C565 C 0.62175 0.03156 0.50147 0.0
C566 C 0.65382 0.02819 0.53531 0.0
C567 C 0.64909 0.00931 0.56505 0.0
C568 C 0.6124 0.99357 0.56101 0.0
H569 H 0.54078 0.06645 0.47662 0.0
C570 C 0.54828 0.062 0.44206 0.0
H571 H 0.56178 0.03465 0.39547 0.0
H572 H 0.46546 0.95351 0.50631 0.0
H573 H 0.41003 0.95971 0.44721 0.0
H574 H 0.41831 0.99327 0.39442 0.0
H575 H 0.48192 0.02089 0.4006 0.0
C576 C 0.55567 0.03925 0.43022 0.0
C577 C 0.5509 0.01937 0.46259 0.0
C578 C 0.51385 0.00321 0.45802 0.0
C579 C 0.5094 0.9837 0.48804 0.0
C580 C 0.47122 0.96827 0.48369 0.0
C581 C 0.43893 0.97172 0.45009 0.0
C582 C 0.44357 0.99062 0.4204 0.0
C583 C 0.48038 0.0063 0.42425 0.0
loop_
_geom_bond_atom_site_label_1
_geom_bond_atom_site_label_2
_geom_bond_distance
_geom_bond_site_symmetry_2
_ccdc_geom_bond_type
In0 O1 2.294 . S
In0 O2 2.326 . S
In0 O6 2.266 . S
In0 O7 2.326 . S
In0 O8 2.266 . S
In0 O9 2.326 . S
In0 O11 2.294 1_455 S
In0 O12 2.326 1_455 S
O1 In0 2.294 . S
O1 C10 1.240 . S
O2 In0 2.326 . S
O2 C10 1.252 . S
C3 O6 1.252 . S
C3 O7 1.260 . S
C4 O11 1.240 . S
C4 O12 1.252 . S
C5 O8 1.252 . S
C5 O9 1.260 . S
O6 In0 2.266 . S
O6 C3 1.252 . S
O7 In0 2.326 . S
O7 C3 1.260 . S
O8 In0 2.266 . S
O8 C5 1.252 . S
O9 In0 2.326 . S
O9 C5 1.260 . S
C10 O1 1.240 . S
C10 O2 1.252 . S
O11 In0 2.294 1_655 S
O11 C4 1.240 . S
O12 In0 2.326 1_655 S
O12 C4 1.252 . S
In13 O14 2.294 . S
In13 O15 2.326 . S
In13 O19 2.266 . S
In13 O20 2.326 . S
In13 O21 2.266 1_455 S
In13 O22 2.326 1_455 S
In13 O24 2.294 . S
In13 O25 2.326 . S
O14 In13 2.294 . S
O14 C23 1.240 . S
O15 In13 2.326 . S
O15 C23 1.252 . S
C16 O19 1.252 . S
C16 O20 1.260 . S
C17 O24 1.240 . S
C17 O25 1.252 . S
C18 O21 1.252 . S
C18 O22 1.260 . S
O19 In13 2.266 . S
O19 C16 1.252 . S
O20 In13 2.326 . S
O20 C16 1.260 . S
O21 In13 2.266 1_655 S
O21 C18 1.252 . S
O22 In13 2.326 1_655 S
O22 C18 1.260 . S
C23 O14 1.240 . S
C23 O15 1.252 . S
O24 In13 2.294 . S
O24 C17 1.240 . S
O25 In13 2.326 . S
O25 C17 1.252 . S
In26 O27 2.294 1_455 S
In26 O28 2.326 1_455 S
In26 O32 2.266 . S
In26 O33 2.326 . S
In26 O34 2.266 . S
In26 O35 2.326 . S
In26 O37 2.294 . S
In26 O38 2.326 . S
O27 In26 2.294 1_655 S
O27 C36 1.240 . S
O28 In26 2.326 1_655 S
O28 C36 1.252 . S
C29 O32 1.252 . S
C29 O33 1.260 . S
C30 O37 1.240 . S
C30 O38 1.252 . S
C31 O34 1.252 . S
C31 O35 1.260 . S
O32 In26 2.266 . S
O32 C29 1.252 . S
O33 In26 2.326 . S
O33 C29 1.260 . S
O34 In26 2.266 . S
O34 C31 1.252 . S
O35 In26 2.326 . S
O35 C31 1.260 . S
C36 O27 1.240 . S
C36 O28 1.252 . S
O37 In26 2.294 . S
O37 C30 1.240 . S
O38 In26 2.326 . S
O38 C30 1.252 . S
In39 O40 2.294 . S
In39 O41 2.326 . S
In39 O45 2.266 . S
In39 O46 2.326 . S
In39 O47 2.266 1_455 S
In39 O48 2.326 1_455 S
In39 O50 2.294 . S
In39 O51 2.326 . S
O40 In39 2.294 . S
O40 C49 1.240 . S
O41 In39 2.326 . S
O41 C49 1.252 . S
C42 O45 1.252 . S
C42 O46 1.260 . S
C43 O50 1.240 . S
C43 O51 1.252 . S
C44 O47 1.252 . S
C44 O48 1.260 . S
O45 In39 2.266 . S
O45 C42 1.252 . S
O46 In39 2.326 . S
O46 C42 1.260 . S
O47 In39 2.266 1_655 S
O47 C44 1.252 . S
O48 In39 2.326 1_655 S
O48 C44 1.260 . S
C49 O40 1.240 . S
C49 O41 1.252 . S
O50 In39 2.294 . S
O50 C43 1.240 . S
O51 In39 2.326 . S
O51 C43 1.252 . S
In52 O53 2.294 . S
In52 O54 2.326 . S
In52 O58 2.266 . S
In52 O59 2.326 . S
In52 O60 2.266 . S
In52 O61 2.326 . S
In52 O63 2.294 . S
In52 O64 2.326 . S
O53 In52 2.294 . S
O53 C62 1.240 . S
O54 In52 2.326 . S
O54 C62 1.252 . S
C55 O58 1.252 . S
C55 O59 1.260 . S
C56 O63 1.240 . S
C56 O64 1.252 . S
C57 O60 1.252 . S
C57 O61 1.260 . S
O58 In52 2.266 . S
O58 C55 1.252 . S
O59 In52 2.326 . S
O59 C55 1.260 . S
O60 In52 2.266 . S
O60 C57 1.252 . S
O61 In52 2.326 . S
O61 C57 1.260 . S
C62 O53 1.240 . S
C62 O54 1.252 . S
O63 In52 2.294 . S
O63 C56 1.240 . S
O64 In52 2.326 . S
O64 C56 1.252 . S
In65 O66 2.294 . S
In65 O67 2.326 . S
In65 O71 2.266 . S
In65 O72 2.326 . S
In65 O73 2.266 . S
In65 O74 2.326 . S
In65 O76 2.294 . S
In65 O77 2.326 . S
O66 In65 2.294 . S
O66 C75 1.240 . S
O67 In65 2.326 . S
O67 C75 1.252 . S
C68 O71 1.252 . S
C68 O72 1.260 . S
C69 O76 1.240 . S
C69 O77 1.252 . S
C70 O73 1.252 . S
C70 O74 1.260 . S
O71 In65 2.266 . S
O71 C68 1.252 . S
O72 In65 2.326 . S
O72 C68 1.260 . S
O73 In65 2.266 . S
O73 C70 1.252 . S
O74 In65 2.326 . S
O74 C70 1.260 . S
C75 O66 1.240 . S
C75 O67 1.252 . S
O76 In65 2.294 . S
O76 C69 1.240 . S
O77 In65 2.326 . S
O77 C69 1.252 . S
In78 O79 2.294 . S
In78 O80 2.326 . S
In78 O84 2.266 . S
In78 O85 2.326 . S
In78 O86 2.266 . S
In78 O87 2.326 . S
In78 O89 2.294 . S
In78 O90 2.326 . S
O79 In78 2.294 . S
O79 C88 1.240 . S
O80 In78 2.326 . S
O80 C88 1.252 . S
C81 O84 1.252 . S
C81 O85 1.260 . S
C82 O89 1.240 . S
C82 O90 1.252 . S
C83 O86 1.252 . S
C83 O87 1.260 . S
O84 In78 2.266 . S
O84 C81 1.252 . S
O85 In78 2.326 . S
O85 C81 1.260 . S
O86 In78 2.266 . S
O86 C83 1.252 . S
O87 In78 2.326 . S
O87 C83 1.260 . S
C88 O79 1.240 . S
C88 O80 1.252 . S
O89 In78 2.294 . S
O89 C82 1.240 . S
O90 In78 2.326 . S
O90 C82 1.252 . S
In91 O92 2.294 . S
In91 O93 2.326 . S
In91 O97 2.266 . S
In91 O98 2.326 . S
In91 O99 2.266 . S
In91 O100 2.326 . S
In91 O102 2.294 . S
In91 O103 2.326 . S
O92 In91 2.294 . S
O92 C101 1.240 . S
O93 In91 2.326 . S
O93 C101 1.252 . S
C94 O97 1.252 . S
C94 O98 1.260 . S
C95 O102 1.240 . S
C95 O103 1.252 . S
C96 O99 1.252 . S
C96 O100 1.260 . S
O97 In91 2.266 . S
O97 C94 1.252 . S
O98 In91 2.326 . S
O98 C94 1.260 . S
O99 In91 2.266 . S
O99 C96 1.252 . S
O100 In91 2.326 . S
O100 C96 1.260 . S
C101 O92 1.240 . S
C101 O93 1.252 . S
O102 In91 2.294 . S
O102 C95 1.240 . S
O103 In91 2.326 . S
O103 C95 1.252 . S
H104 C105 0.935 1_655 S
C105 H104 0.935 1_455 S
C105 C111 1.265 . S
H106 C111 0.950 . S
H107 C115 0.949 . S
H108 C116 0.950 . S
H109 C117 0.951 . S
H110 C118 0.951 . S
C111 C105 1.265 . S
C111 H106 0.950 . S
C111 C112 1.478 . S
C112 C111 1.478 . S
C112 C113 1.397 . S
C112 C129 1.394 . S
C113 C112 1.397 . S
C113 C114 1.438 . S
C113 C118 1.429 . S
C114 C113 1.438 . S
C114 C115 1.428 . S
C114 C127 1.394 . S
C115 H107 0.949 . S
C115 C114 1.428 . S
C115 C116 1.345 . S
C116 H108 0.950 . S
C116 C115 1.345 . S
C116 C117 1.424 . S
C117 H109 0.951 . S
C117 C116 1.424 . S
C117 C118 1.347 . S
C118 H110 0.951 . S
C118 C113 1.429 . S
C118 C117 1.347 . S
H119 C120 0.951 . S
C120 H119 0.951 . S
C120 C126 1.265 . S
H121 C126 0.950 1_655 S
H122 C130 0.949 . S
H123 C131 0.950 . S
H124 C132 0.951 1_655 S
H125 C133 0.951 . S
C126 C120 1.265 . S
C126 H121 0.950 1_455 S
C126 C127 1.478 . S
C127 C114 1.394 . S
C127 C126 1.478 . S
C127 C128 1.397 . S
C128 C127 1.397 . S
C128 C129 1.438 . S
C128 C133 1.429 . S
C129 C112 1.394 . S
C129 C128 1.438 . S
C129 C130 1.428 . S
C130 H122 0.949 . S
C130 C129 1.428 . S
C130 C131 1.345 . S
C131 H123 0.950 . S
C131 C130 1.345 . S
C131 C132 1.424 . S
C132 H124 0.951 1_455 S
C132 C131 1.424 . S
C132 C133 1.347 . S
C133 H125 0.951 . S
C133 C128 1.429 . S
C133 C132 1.347 . S
H134 C135 0.951 . S
C135 H134 0.951 . S
C135 C141 1.265 . S
H136 C141 0.950 . S
H137 C145 0.949 . S
H138 C146 0.950 . S
H139 C147 0.951 . S
H140 C148 0.951 . S
C141 C135 1.265 . S
C141 H136 0.950 . S
C141 C142 1.478 . S
C142 C141 1.478 . S
C142 C143 1.397 . S
C142 C159 1.394 . S
C143 C142 1.397 . S
C143 C144 1.438 . S
C143 C148 1.429 . S
C144 C143 1.438 . S
C144 C145 1.428 . S
C144 C157 1.394 . S
C145 H137 0.949 . S
C145 C144 1.428 . S
C145 C146 1.345 . S
C146 H138 0.950 . S
C146 C145 1.345 . S
C146 C147 1.424 . S
C147 H139 0.951 . S
C147 C146 1.424 . S
C147 C148 1.347 . S
C148 H140 0.951 . S
C148 C143 1.429 . S
C148 C147 1.347 . S
H149 C150 0.951 . S
C150 H149 0.951 . S
C150 C156 1.265 . S
H151 C156 0.950 1_655 S
H152 C160 0.949 . S
H153 C161 0.950 . S
H154 C162 0.951 . S
H155 C163 0.951 1_655 S
C156 C150 1.265 . S
C156 H151 0.950 1_455 S
C156 C157 1.478 . S
C157 C144 1.394 . S
C157 C156 1.478 . S
C157 C158 1.397 . S
C158 C157 1.397 . S
C158 C159 1.438 . S
C158 C163 1.429 . S
C159 C142 1.394 . S
C159 C158 1.438 . S
C159 C160 1.428 . S
C160 H152 0.949 . S
C160 C159 1.428 . S
C160 C161 1.345 . S
C161 H153 0.950 . S
C161 C160 1.345 . S
C161 C162 1.424 1_455 S
C162 H154 0.951 . S
C162 C161 1.424 1_655 S
C162 C163 1.347 1_655 S
C163 H155 0.951 1_455 S
C163 C158 1.429 . S
C163 C162 1.347 1_455 S
H164 C165 0.951 . S
C165 H164 0.951 . S
C165 C171 1.265 . S
H166 C171 0.950 . S
H167 C175 0.949 . S
H168 C176 0.950 . S
H169 C177 0.951 . S
H170 C178 0.951 . S
C171 C165 1.265 . S
C171 H166 0.950 . S
C171 C172 1.478 . S
C172 C171 1.478 . S
C172 C173 1.397 . S
C172 C189 1.394 . S
C173 C172 1.397 . S
C173 C174 1.438 . S
C173 C178 1.429 . S
C174 C173 1.438 . S
C174 C175 1.428 . S
C174 C187 1.394 . S
C175 H167 0.949 . S
C175 C174 1.428 . S
C175 C176 1.345 . S
C176 H168 0.950 . S
C176 C175 1.345 . S
C176 C177 1.424 . S
C177 H169 0.951 . S
C177 C176 1.424 . S
C177 C178 1.347 . S
C178 H170 0.951 . S
C178 C173 1.429 . S
C178 C177 1.347 . S
H179 C180 0.951 . S
C180 H179 0.951 . S
C180 C186 1.265 . S
H181 C186 0.950 . S
H182 C190 0.949 . S
H183 C191 0.950 . S
H184 C192 0.951 . S
H185 C193 0.951 . S
C186 C180 1.265 . S
C186 H181 0.950 . S
C186 C187 1.478 . S
C187 C174 1.394 . S
C187 C186 1.478 . S
C187 C188 1.397 . S
C188 C187 1.397 . S
C188 C189 1.438 . S
C188 C193 1.429 . S
C189 C172 1.394 . S
C189 C188 1.438 . S
C189 C190 1.428 . S
C190 H182 0.949 . S
C190 C189 1.428 . S
C190 C191 1.345 . S
C191 H183 0.950 . S
C191 C190 1.345 . S
C191 C192 1.424 . S
C192 H184 0.951 . S
C192 C191 1.424 . S
C192 C193 1.347 . S
C193 H185 0.951 . S
C193 C188 1.429 . S
C193 C192 1.347 . S
H194 C195 0.951 . S
C195 H194 0.951 . S
C195 C201 1.265 . S
H196 C201 0.950 . S
H197 C205 0.949 . S
H198 C206 0.950 . S
H199 C207 0.951 . S
H200 C208 0.951 . S
C201 C195 1.265 . S
C201 H196 0.950 . S
C201 C202 1.478 . S
C202 C201 1.478 . S
C202 C203 1.397 . S
C202 C219 1.394 . S
C203 C202 1.397 . S
C203 C204 1.438 . S
C203 C208 1.429 . S
C204 C203 1.438 . S
C204 C205 1.428 . S
C204 C217 1.394 . S
C205 H197 0.949 . S
C205 C204 1.428 . S
C205 C206 1.345 . S
C206 H198 0.950 . S
C206 C205 1.345 . S
C206 C207 1.424 . S
C207 H199 0.951 . S
C207 C206 1.424 . S
C207 C208 1.347 . S
C208 H200 0.951 . S
C208 C203 1.429 . S
C208 C207 1.347 . S
H209 C210 0.951 . S
C210 H209 0.951 . S
C210 C216 1.265 . S
H211 C216 0.950 . S
H212 C220 0.949 . S
H213 C221 0.950 . S
H214 C222 0.951 . S
H215 C223 0.951 . S
C216 C210 1.265 . S
C216 H211 0.950 . S
C216 C217 1.478 . S
C217 C204 1.394 . S
C217 C216 1.478 . S
C217 C218 1.397 . S
C218 C217 1.397 . S
C218 C219 1.438 . S
C218 C223 1.429 . S
C219 C202 1.394 . S
C219 C218 1.438 . S
C219 C220 1.428 . S
C220 H212 0.949 . S
C220 C219 1.428 . S
C220 C221 1.345 . S
C221 H213 0.950 . S
C221 C220 1.345 . S
C221 C222 1.424 . S
C222 H214 0.951 . S
C222 C221 1.424 . S
C222 C223 1.347 . S
C223 H215 0.951 . S
C223 C218 1.429 . S
C223 C222 1.347 . S
H224 C225 0.951 . S
C225 H224 0.951 . S
C225 C231 1.265 . S
H226 C231 0.950 . S
H227 C235 0.949 . S
H228 C236 0.950 . S
H229 C237 0.951 . S
H230 C238 0.951 . S
C231 C225 1.265 . S
C231 H226 0.950 . S
C231 C232 1.478 . S
C232 C231 1.478 . S
C232 C233 1.397 . S
C232 C249 1.394 . S
C233 C232 1.397 . S
C233 C234 1.438 . S
C233 C238 1.429 . S
C234 C233 1.438 . S
C234 C235 1.428 . S
C234 C247 1.394 . S
C235 H227 0.949 . S
C235 C234 1.428 . S
C235 C236 1.345 . S
C236 H228 0.950 . S
C236 C235 1.345 . S
C236 C237 1.424 . S
C237 H229 0.951 . S
C237 C236 1.424 . S
C237 C238 1.347 . S
C238 H230 0.951 . S
C238 C233 1.429 . S
C238 C237 1.347 . S
H239 C240 0.951 . S
C240 H239 0.951 . S
C240 C246 1.265 . S
H241 C246 0.950 . S
H242 C250 0.949 . S
H243 C251 0.950 . S
H244 C252 0.951 . S
H245 C253 0.951 . S
C246 C240 1.265 . S
C246 H241 0.950 . S
C246 C247 1.478 . S
C247 C234 1.394 . S
C247 C246 1.478 . S
C247 C248 1.397 . S
C248 C247 1.397 . S
C248 C249 1.438 . S
C248 C253 1.429 . S
C249 C232 1.394 . S
C249 C248 1.438 . S
C249 C250 1.428 . S
C250 H242 0.949 . S
C250 C249 1.428 . S
C250 C251 1.345 . S
C251 H243 0.950 . S
C251 C250 1.345 . S
C251 C252 1.424 . S
C252 H244 0.951 . S
C252 C251 1.424 . S
C252 C253 1.347 . S
C253 H245 0.951 . S
C253 C248 1.429 . S
C253 C252 1.347 . S
H254 C255 0.951 . S
C255 H254 0.951 . S
C255 C261 1.265 . S
H256 C261 0.950 . S
H257 C265 0.949 . S
H258 C266 0.950 . S
H259 C267 0.951 . S
H260 C268 0.951 . S
C261 C255 1.265 . S
C261 H256 0.950 . S
C261 C262 1.478 . S
C262 C261 1.478 . S
C262 C263 1.397 . S
C262 C279 1.394 . S
C263 C262 1.397 . S
C263 C264 1.438 . S
C263 C268 1.429 . S
C264 C263 1.438 . S
C264 C265 1.428 . S
C264 C277 1.394 . S
C265 H257 0.949 . S
C265 C264 1.428 . S
C265 C266 1.345 . S
C266 H258 0.950 . S
C266 C265 1.345 . S
C266 C267 1.424 . S
C267 H259 0.951 . S
C267 C266 1.424 . S
C267 C268 1.347 . S
C268 H260 0.951 . S
C268 C263 1.429 . S
C268 C267 1.347 . S
H269 C270 0.951 . S
C270 H269 0.951 . S
C270 C276 1.265 . S
H271 C276 0.950 . S
H272 C280 0.949 . S
H273 C281 0.950 . S
H274 C282 0.951 . S
H275 C283 0.951 . S
C276 C270 1.265 . S
C276 H271 0.950 . S
C276 C277 1.478 . S
C277 C264 1.394 . S
C277 C276 1.478 . S
C277 C278 1.397 . S
C278 C277 1.397 . S
C278 C279 1.438 . S
C278 C283 1.429 . S
C279 C262 1.394 . S
C279 C278 1.438 . S
C279 C280 1.428 . S
C280 H272 0.949 . S
C280 C279 1.428 . S
C280 C281 1.345 . S
C281 H273 0.950 . S
C281 C280 1.345 . S
C281 C282 1.424 . S
C282 H274 0.951 . S
C282 C281 1.424 . S
C282 C283 1.347 . S
C283 H275 0.951 . S
C283 C278 1.429 . S
C283 C282 1.347 . S
H284 C285 0.951 . S
C285 H284 0.951 . S
C285 C291 1.265 . S
H286 C291 0.950 . S
H287 C295 0.949 . S
H288 C296 0.950 . S
H289 C297 0.951 . S
H290 C298 0.951 . S
C291 C285 1.265 . S
C291 H286 0.950 . S
C291 C292 1.478 . S
C292 C291 1.478 . S
C292 C293 1.397 . S
C292 C309 1.394 . S
C293 C292 1.397 . S
C293 C294 1.438 . S
C293 C298 1.429 . S
C294 C293 1.438 . S
C294 C295 1.428 . S
C294 C307 1.394 . S
C295 H287 0.949 . S
C295 C294 1.428 . S
C295 C296 1.345 . S
C296 H288 0.950 . S
C296 C295 1.345 . S
C296 C297 1.424 . S
C297 H289 0.951 . S
C297 C296 1.424 . S
C297 C298 1.347 . S
C298 H290 0.951 . S
C298 C293 1.429 . S
C298 C297 1.347 . S
H299 C300 0.951 . S
C300 H299 0.951 . S
C300 C306 1.265 . S
H301 C306 0.950 . S
H302 C310 0.949 . S
H303 C311 0.950 . S
H304 C312 0.951 . S
H305 C313 0.951 . S
C306 C300 1.265 . S
C306 H301 0.950 . S
C306 C307 1.478 . S
C307 C294 1.394 . S
C307 C306 1.478 . S
C307 C308 1.397 . S
C308 C307 1.397 . S
C308 C309 1.438 . S
C308 C313 1.429 . S
C309 C292 1.394 . S
C309 C308 1.438 . S
C309 C310 1.428 . S
C310 H302 0.949 . S
C310 C309 1.428 . S
C310 C311 1.345 . S
C311 H303 0.950 . S
C311 C310 1.345 . S
C311 C312 1.424 . S
C312 H304 0.951 . S
C312 C311 1.424 . S
C312 C313 1.347 . S
C313 H305 0.951 . S
C313 C308 1.429 . S
C313 C312 1.347 . S
H314 C315 0.951 . S
C315 H314 0.951 . S
C315 C321 1.265 . S
H316 C321 0.950 . S
H317 C325 0.949 . S
H318 C326 0.950 . S
H319 C327 0.951 . S
H320 C328 0.951 . S
C321 C315 1.265 . S
C321 H316 0.950 . S
C321 C322 1.478 . S
C322 C321 1.478 . S
C322 C323 1.397 . S
C322 C339 1.394 . S
C323 C322 1.397 . S
C323 C324 1.438 . S
C323 C328 1.429 . S
C324 C323 1.438 . S
C324 C325 1.428 . S
C324 C337 1.394 . S
C325 H317 0.949 . S
C325 C324 1.428 . S
C325 C326 1.345 . S
C326 H318 0.950 . S
C326 C325 1.345 . S
C326 C327 1.424 . S
C327 H319 0.951 . S
C327 C326 1.424 . S
C327 C328 1.347 . S
C328 H320 0.951 . S
C328 C323 1.429 . S
C328 C327 1.347 . S
H329 C330 0.951 . S
C330 H329 0.951 . S
C330 C336 1.265 . S
H331 C336 0.950 . S
H332 C340 0.949 . S
H333 C341 0.950 . S
H334 C342 0.951 . S
H335 C343 0.951 . S
C336 C330 1.265 . S
C336 H331 0.950 . S
C336 C337 1.478 . S
C337 C324 1.394 . S
C337 C336 1.478 . S
C337 C338 1.397 . S
C338 C337 1.397 . S
C338 C339 1.438 . S
C338 C343 1.429 . S
C339 C322 1.394 . S
C339 C338 1.438 . S
C339 C340 1.428 . S
C340 H332 0.949 . S
C340 C339 1.428 . S
C340 C341 1.345 . S
C341 H333 0.950 . S
C341 C340 1.345 . S
C341 C342 1.424 . S
C342 H334 0.951 . S
C342 C341 1.424 . S
C342 C343 1.347 . S
C343 H335 0.951 . S
C343 C338 1.429 . S
C343 C342 1.347 . S
H344 C345 0.951 . S
C345 H344 0.951 . S
C345 C351 1.265 . S
H346 C351 0.950 . S
H347 C355 0.949 . S
H348 C356 0.950 . S
H349 C357 0.951 . S
H350 C358 0.951 . S
C351 C345 1.265 . S
C351 H346 0.950 . S
C351 C352 1.478 . S
C352 C351 1.478 . S
C352 C353 1.397 . S
C352 C369 1.394 . S
C353 C352 1.397 . S
C353 C354 1.438 . S
C353 C358 1.429 . S
C354 C353 1.438 . S
C354 C355 1.428 . S
C354 C367 1.394 . S
C355 H347 0.949 . S
C355 C354 1.428 . S
C355 C356 1.345 . S
C356 H348 0.950 . S
C356 C355 1.345 . S
C356 C357 1.424 . S
C357 H349 0.951 . S
C357 C356 1.424 . S
C357 C358 1.347 . S
C358 H350 0.951 . S
C358 C353 1.429 . S
C358 C357 1.347 . S
H359 C360 0.951 . S
C360 H359 0.951 . S
C360 C366 1.265 . S
H361 C366 0.950 . S
H362 C370 0.949 . S
H363 C371 0.950 . S
H364 C372 0.951 . S
H365 C373 0.951 . S
C366 C360 1.265 . S
C366 H361 0.950 . S
C366 C367 1.478 . S
C367 C354 1.394 . S
C367 C366 1.478 . S
C367 C368 1.397 . S
C368 C367 1.397 . S
C368 C369 1.438 . S
C368 C373 1.429 . S
C369 C352 1.394 . S
C369 C368 1.438 . S
C369 C370 1.428 . S
C370 H362 0.949 . S
C370 C369 1.428 . S
C370 C371 1.345 . S
C371 H363 0.950 . S
C371 C370 1.345 . S
C371 C372 1.424 . S
C372 H364 0.951 . S
C372 C371 1.424 . S
C372 C373 1.347 . S
C373 H365 0.951 . S
C373 C368 1.429 . S
C373 C372 1.347 . S
H374 C375 0.951 . S
C375 H374 0.951 . S
C375 C381 1.265 . S
H376 C381 0.950 . S
H377 C385 0.949 . S
H378 C386 0.950 . S
H379 C387 0.951 . S
H380 C388 0.951 . S
C381 C375 1.265 . S
C381 H376 0.950 . S
C381 C382 1.478 . S
C382 C381 1.478 . S
C382 C383 1.397 . S
C382 C399 1.394 . S
C383 C382 1.397 . S
C383 C384 1.438 . S
C383 C388 1.429 . S
C384 C383 1.438 . S
C384 C385 1.428 . S
C384 C397 1.394 . S
C385 H377 0.949 . S
C385 C384 1.428 . S
C385 C386 1.345 . S
C386 H378 0.950 . S
C386 C385 1.345 . S
C386 C387 1.424 . S
C387 H379 0.951 . S
C387 C386 1.424 . S
C387 C388 1.347 . S
C388 H380 0.951 . S
C388 C383 1.429 . S
C388 C387 1.347 . S
H389 C390 0.951 . S
C390 H389 0.951 . S
C390 C396 1.265 . S
H391 C396 0.950 . S
H392 C400 0.949 . S
H393 C401 0.950 . S
H394 C402 0.951 . S
H395 C403 0.951 . S
C396 C390 1.265 . S
C396 H391 0.950 . S
C396 C397 1.478 . S
C397 C384 1.394 . S
C397 C396 1.478 . S
C397 C398 1.397 . S
C398 C397 1.397 . S
C398 C399 1.438 . S
C398 C403 1.429 . S
C399 C382 1.394 . S
C399 C398 1.438 . S
C399 C400 1.428 . S
C400 H392 0.949 . S
C400 C399 1.428 . S
C400 C401 1.345 . S
C401 H393 0.950 . S
C401 C400 1.345 . S
C401 C402 1.424 . S
C402 H394 0.951 . S
C402 C401 1.424 . S
C402 C403 1.347 . S
C403 H395 0.951 . S
C403 C398 1.429 . S
C403 C402 1.347 . S
H404 C405 0.951 . S
C405 H404 0.951 . S
C405 C411 1.265 . S
H406 C411 0.950 . S
H407 C415 0.949 . S
H408 C416 0.950 . S
H409 C417 0.951 . S
H410 C418 0.951 . S
C411 C405 1.265 . S
C411 H406 0.950 . S
C411 C412 1.478 . S
C412 C411 1.478 . S
C412 C413 1.397 . S
C412 C429 1.394 . S
C413 C412 1.397 . S
C413 C414 1.438 . S
C413 C418 1.429 . S
C414 C413 1.438 . S
C414 C415 1.428 . S
C414 C427 1.394 . S
C415 H407 0.949 . S
C415 C414 1.428 . S
C415 C416 1.345 . S
C416 H408 0.950 . S
C416 C415 1.345 . S
C416 C417 1.424 . S
C417 H409 0.951 . S
C417 C416 1.424 . S
C417 C418 1.347 . S
C418 H410 0.951 . S
C418 C413 1.429 . S
C418 C417 1.347 . S
H419 C420 0.951 . S
C420 H419 0.951 . S
C420 C426 1.265 . S
H421 C426 0.950 . S
H422 C430 0.949 . S
H423 C431 0.950 . S
H424 C432 0.951 . S
H425 C433 0.951 . S
C426 C420 1.265 . S
C426 H421 0.950 . S
C426 C427 1.478 . S
C427 C414 1.394 . S
C427 C426 1.478 . S
C427 C428 1.397 . S
C428 C427 1.397 . S
C428 C429 1.438 . S
C428 C433 1.429 . S
C429 C412 1.394 . S
C429 C428 1.438 . S
C429 C430 1.428 . S
C430 H422 0.949 . S
C430 C429 1.428 . S
C430 C431 1.345 . S
C431 H423 0.950 . S
C431 C430 1.345 . S
C431 C432 1.424 . S
C432 H424 0.951 . S
C432 C431 1.424 . S
C432 C433 1.347 . S
C433 H425 0.951 . S
C433 C428 1.429 . S
C433 C432 1.347 . S
H434 C435 0.951 . S
C435 H434 0.951 . S
C435 C441 1.265 . S
H436 C441 0.950 . S
H437 C445 0.949 . S
H438 C446 0.950 . S
H439 C447 0.951 . S
H440 C448 0.951 . S
C441 C435 1.265 . S
C441 H436 0.950 . S
C441 C442 1.478 . S
C442 C441 1.478 . S
C442 C443 1.397 . S
C442 C459 1.394 . S
C443 C442 1.397 . S
C443 C444 1.438 . S
C443 C448 1.429 . S
C444 C443 1.438 . S
C444 C445 1.428 . S
C444 C457 1.394 . S
C445 H437 0.949 . S
C445 C444 1.428 . S
C445 C446 1.345 . S
C446 H438 0.950 . S
C446 C445 1.345 . S
C446 C447 1.424 . S
C447 H439 0.951 . S
C447 C446 1.424 . S
C447 C448 1.347 . S
C448 H440 0.951 . S
C448 C443 1.429 . S
C448 C447 1.347 . S
H449 C450 0.951 . S
C450 H449 0.951 . S
C450 C456 1.265 . S
H451 C456 0.950 . S
H452 C460 0.949 . S
H453 C461 0.950 . S
H454 C462 0.951 . S
H455 C463 0.951 . S
C456 C450 1.265 . S
C456 H451 0.950 . S
C456 C457 1.478 . S
C457 C444 1.394 . S
C457 C456 1.478 . S
C457 C458 1.397 . S
C458 C457 1.397 . S
C458 C459 1.438 . S
C458 C463 1.429 . S
C459 C442 1.394 . S
C459 C458 1.438 . S
C459 C460 1.428 . S
C460 H452 0.949 . S
C460 C459 1.428 . S
C460 C461 1.345 . S
C461 H453 0.950 . S
C461 C460 1.345 . S
C461 C462 1.424 . S
C462 H454 0.951 . S
C462 C461 1.424 . S
C462 C463 1.347 . S
C463 H455 0.951 . S
C463 C458 1.429 . S
C463 C462 1.347 . S
H464 C465 0.957 . S
C465 H464 0.957 . S
C465 C471 1.265 . S
H466 C471 0.950 . S
H467 C475 0.949 . S
H468 C476 0.950 . S
H469 C477 0.951 1_554 S
H470 C478 0.951 . S
C471 C465 1.265 . S
C471 H466 0.950 . S
C471 C472 1.478 . S
C472 C471 1.478 . S
C472 C473 1.397 . S
C472 C489 1.394 1_455 S
C473 C472 1.397 . S
C473 C474 1.438 1_544 S
C473 C478 1.429 . S
C474 C473 1.438 1_566 S
C474 C475 1.428 . S
C474 C487 1.394 . S
C475 H467 0.949 . S
C475 C474 1.428 . S
C475 C476 1.345 . S
C476 H468 0.950 . S
C476 C475 1.345 . S
C476 C477 1.425 1_565 S
C477 H469 0.951 1_556 S
C477 C476 1.425 1_545 S
C477 C478 1.346 1_556 S
C478 H470 0.951 . S
C478 C473 1.429 . S
C478 C477 1.346 1_554 S
H479 C480 0.951 . S
C480 H479 0.951 . S
C480 C486 1.265 . S
H481 C486 0.950 1_655 S
H482 C490 0.949 . S
H483 C491 0.950 . S
H484 C492 0.951 1_556 S
H485 C493 0.951 . S
C486 C480 1.265 . S
C486 H481 0.950 1_455 S
C486 C487 1.478 . S
C487 C474 1.394 . S
C487 C486 1.478 . S
C487 C488 1.397 1_455 S
C488 C487 1.397 1_655 S
C488 C489 1.438 1_566 S
C488 C493 1.429 . S
C489 C472 1.394 1_655 S
C489 C488 1.438 1_544 S
C489 C490 1.428 . S
C490 H482 0.949 . S
C490 C489 1.428 . S
C490 C491 1.345 . S
C491 H483 0.950 . S
C491 C490 1.345 . S
C491 C492 1.425 1_545 S
C492 H484 0.951 1_554 S
C492 C491 1.425 1_565 S
C492 C493 1.346 1_554 S
C493 H485 0.951 . S
C493 C488 1.429 . S
C493 C492 1.346 1_556 S
H494 C495 0.951 . S
C495 H494 0.951 . S
C495 C501 1.265 . S
H496 C501 0.950 . S
H497 C505 0.949 . S
H498 C506 0.950 . S
H499 C507 0.951 . S
H500 C508 0.951 . S
C501 C495 1.265 . S
C501 H496 0.950 . S
C501 C502 1.478 . S
C502 C501 1.478 . S
C502 C503 1.397 1_556 S
C502 C519 1.394 . S
C503 C502 1.397 1_554 S
C503 C504 1.438 . S
C503 C508 1.429 . S
C504 C503 1.438 . S
C504 C505 1.428 . S
C504 C517 1.394 . S
C505 H497 0.949 . S
C505 C504 1.428 . S
C505 C506 1.345 . S
C506 H498 0.950 . S
C506 C505 1.345 . S
C506 C507 1.424 . S
C507 H499 0.951 . S
C507 C506 1.424 . S
C507 C508 1.347 . S
C508 H500 0.951 . S
C508 C503 1.429 . S
C508 C507 1.347 . S
H509 C510 0.951 . S
C510 H509 0.951 . S
C510 C516 1.265 . S
H511 C516 0.950 . S
H512 C520 0.949 . S
H513 C521 0.950 . S
H514 C522 0.951 1_655 S
H515 C523 0.951 . S
C516 C510 1.265 . S
C516 H511 0.950 . S
C516 C517 1.478 . S
C517 C504 1.394 . S
C517 C516 1.478 . S
C517 C518 1.397 1_554 S
C518 C517 1.397 1_556 S
C518 C519 1.438 . S
C518 C523 1.429 . S
C519 C502 1.394 . S
C519 C518 1.438 . S
C519 C520 1.428 . S
C520 H512 0.949 . S
C520 C519 1.428 . S
C520 C521 1.345 . S
C521 H513 0.950 . S
C521 C520 1.345 . S
C521 C522 1.424 . S
C522 H514 0.951 1_455 S
C522 C521 1.424 . S
C522 C523 1.347 . S
C523 H515 0.951 . S
C523 C518 1.429 . S
C523 C522 1.347 . S
H524 C525 0.951 . S
C525 H524 0.951 . S
C525 C531 1.265 . S
H526 C531 0.950 . S
H527 C535 0.949 . S
H528 C536 0.950 . S
H529 C537 0.951 . S
H530 C538 0.951 . S
C531 C525 1.265 . S
C531 H526 0.950 . S
C531 C532 1.478 . S
C532 C531 1.478 . S
C532 C533 1.397 . S
C532 C549 1.394 . S
C533 C532 1.397 . S
C533 C534 1.438 . S
C533 C538 1.429 . S
C534 C533 1.438 . S
C534 C535 1.428 . S
C534 C547 1.394 . S
C535 H527 0.949 . S
C535 C534 1.428 . S
C535 C536 1.345 . S
C536 H528 0.950 . S
C536 C535 1.345 . S
C536 C537 1.424 . S
C537 H529 0.951 . S
C537 C536 1.424 . S
C537 C538 1.347 . S
C538 H530 0.951 . S
C538 C533 1.429 . S
C538 C537 1.347 . S
H539 C540 0.951 . S
C540 H539 0.951 . S
C540 C546 1.265 . S
H541 C546 0.950 . S
H542 C550 0.949 . S
H543 C551 0.950 . S
H544 C552 0.951 . S
H545 C553 0.951 . S
C546 C540 1.265 . S
C546 H541 0.950 . S
C546 C547 1.478 . S
C547 C534 1.394 . S
C547 C546 1.478 . S
C547 C548 1.397 . S
C548 C547 1.397 . S
C548 C549 1.438 . S
C548 C553 1.429 . S
C549 C532 1.394 . S
C549 C548 1.438 . S
C549 C550 1.428 . S
C550 H542 0.949 . S
C550 C549 1.428 . S
C550 C551 1.345 . S
C551 H543 0.950 . S
C551 C550 1.345 . S
C551 C552 1.424 . S
C552 H544 0.951 . S
C552 C551 1.424 . S
C552 C553 1.347 . S
C553 H545 0.951 . S
C553 C548 1.429 . S
C553 C552 1.347 . S
H554 C555 0.951 . S
C555 H554 0.951 . S
C555 C561 1.265 . S
H556 C561 0.950 . S
H557 C565 0.949 . S
H558 C566 0.950 . S
H559 C567 0.951 . S
H560 C568 0.951 1_565 S
C561 C555 1.265 . S
C561 H556 0.950 . S
C561 C562 1.478 . S
C562 C561 1.478 . S
C562 C563 1.397 1_565 S
C562 C579 1.394 . S
C563 C562 1.397 1_545 S
C563 C564 1.438 . S
C563 C568 1.429 . S
C564 C563 1.438 . S
C564 C565 1.428 . S
C564 C577 1.394 . S
C565 H557 0.949 . S
C565 C564 1.428 . S
C565 C566 1.345 . S
C566 H558 0.950 . S
C566 C565 1.345 . S
C566 C567 1.424 . S
C567 H559 0.951 . S
C567 C566 1.424 . S
C567 C568 1.347 . S
C568 H560 0.951 1_545 S
C568 C563 1.429 . S
C568 C567 1.347 . S
H569 C570 0.951 . S
C570 H569 0.951 . S
C570 C576 1.265 . S
H571 C576 0.950 . S
H572 C580 0.949 . S
H573 C581 0.950 . S
H574 C582 0.951 . S
H575 C583 0.951 1_545 S
C576 C570 1.265 . S
C576 H571 0.950 . S
C576 C577 1.478 . S
C577 C564 1.394 . S
C577 C576 1.478 . S
C577 C578 1.397 1_545 S
C578 C577 1.397 1_565 S
C578 C579 1.438 . S
C578 C583 1.429 . S
C579 C562 1.394 . S
C579 C578 1.438 . S
C579 C580 1.428 . S
C580 H572 0.949 . S
C580 C579 1.428 . S
C580 C581 1.345 . S
C581 H573 0.950 . S
C581 C580 1.345 . S
C581 C582 1.424 . S
C582 H574 0.951 . S
C582 C581 1.424 . S
C582 C583 1.347 . S
C583 H575 0.951 1_565 S
C583 C578 1.429 . S
C583 C582 1.347 . S
C105 C16 1.457 . S
C120 C3 1.453 . S
C135 C31 1.435 . S
C150 C42 1.437 . S
C165 C57 1.455 . S
C180 C70 1.455 . S
C195 C83 1.436 . S
C210 C96 1.436 . S
C225 C94 1.683 . S
C240 C5 1.686 . S
C255 C81 1.659 . S
C270 C18 1.659 . S
C285 C29 1.659 . S
C300 C68 1.662 . S
C315 C55 1.659 . S
C330 C44 1.659 . S
C345 C75 1.175 . S
C360 C36 1.173 . S
C375 C62 1.160 . S
C390 C43 1.163 . S
C405 C101 1.164 . S
C420 C4 1.159 . S
C435 C17 1.162 . S
C450 C88 1.161 . S
C465 C10 1.399 . S
C480 C30 1.396 . S
C495 C49 1.397 . S
C510 C23 1.405 . S
C525 C82 1.396 . S
C540 C56 1.404 . S
C555 C69 1.406 . S
C570 C95 1.397 . S
