# Generated by pormake.
# Topology acs-g, (3)-cn, num edge types: 1
# Building blocks:
#     Node 0, Type 0, BuildingBlock: WUSLED_clean_sbu_0, # of connection points: 3
#     Node 1, Type 0, BuildingBlock: WUSLED_clean_sbu_0, # of connection points: 3
#     Node 2, Type 0, BuildingBlock: WUSLED_clean_sbu_0, # of connection points: 3
#     Node 3, Type 0, BuildingBlock: WUSLED_clean_sbu_0, # of connection points: 3
#     Node 4, Type 0, BuildingBlock: WUSLED_clean_sbu_0, # of connection points: 3
#     Node 5, Type 0, BuildingBlock: WUSLED_clean_sbu_0, # of connection points: 3
#     Node 6, Type 0, BuildingBlock: WUSLED_clean_sbu_0, # of connection points: 3
#     Node 7, Type 0, BuildingBlock: WUSLED_clean_sbu_0, # of connection points: 3
#     Node 8, Type 0, BuildingBlock: WUSLED_clean_sbu_0, # of connection points: 3
#     Node 9, Type 0, BuildingBlock: WUSLED_clean_sbu_0, # of connection points: 3
#     Node 10, Type 0, BuildingBlock: WUSLED_clean_sbu_0, # of connection points: 3
#     Node 11, Type 0, BuildingBlock: WUSLED_clean_sbu_0, # of connection points: 3
#     Edge 12, Type (0, 0), BuildingBlock: OJICUG_clean_linker_0, # of connection points: 2
#     Edge 13, Type (0, 0), BuildingBlock: OJICUG_clean_linker_0, # of connection points: 2
#     Edge 14, Type (0, 0), BuildingBlock: OJICUG_clean_linker_0, # of connection points: 2
#     Edge 15, Type (0, 0), BuildingBlock: OJICUG_clean_linker_0, # of connection points: 2
#     Edge 16, Type (0, 0), BuildingBlock: OJICUG_clean_linker_0, # of connection points: 2
#     Edge 17, Type (0, 0), BuildingBlock: OJICUG_clean_linker_0, # of connection points: 2
#     Edge 18, Type (0, 0), BuildingBlock: OJICUG_clean_linker_0, # of connection points: 2
#     Edge 19, Type (0, 0), BuildingBlock: OJICUG_clean_linker_0, # of connection points: 2
#     Edge 20, Type (0, 0), BuildingBlock: OJICUG_clean_linker_0, # of connection points: 2
#     Edge 21, Type (0, 0), BuildingBlock: OJICUG_clean_linker_0, # of connection points: 2
#     Edge 22, Type (0, 0), BuildingBlock: OJICUG_clean_linker_0, # of connection points: 2
#     Edge 23, Type (0, 0), BuildingBlock: OJICUG_clean_linker_0, # of connection points: 2
#     Edge 24, Type (0, 0), BuildingBlock: OJICUG_clean_linker_0, # of connection points: 2
#     Edge 25, Type (0, 0), BuildingBlock: OJICUG_clean_linker_0, # of connection points: 2
#     Edge 26, Type (0, 0), BuildingBlock: OJICUG_clean_linker_0, # of connection points: 2
#     Edge 27, Type (0, 0), BuildingBlock: OJICUG_clean_linker_0, # of connection points: 2
#     Edge 28, Type (0, 0), BuildingBlock: OJICUG_clean_linker_0, # of connection points: 2
#     Edge 29, Type (0, 0), BuildingBlock: OJICUG_clean_linker_0, # of connection points: 2
# Relax obj value: 0.022
# Max RMSD: 0.019
# Mean RMSD: 0.019
data_MOF--net-acs-g--node1-WUSLED_clean_sbu_0--edge1-OJICUG_clean_linker_0
_symmetry_space_group_name_H-M    P1
_symmetry_Int_Tables_number       1
_symmetry_cell_setting            triclinic
loop_
_symmetry_equiv_pos_as_xyz
'x, y, z'
_cell_length_a     62.821255
_cell_length_b     62.77855
_cell_length_c     51.840017
_cell_angle_alpha  89.999909
_cell_angle_beta   89.977646
_cell_angle_gamma 119.98404
loop_
_atom_site_label
_atom_site_type_symbol
_atom_site_fract_x
_atom_site_fract_y
_atom_site_fract_z
_atom_type_partial_charge
C0 C 0.26739 0.38613 0.20184 0.0
C1 C 0.27515 0.40116 0.22384 0.0
C2 C 0.23267 0.38439 0.23772 0.0
C3 C 0.25799 0.40031 0.24158 0.0
C4 C 0.22499 0.36904 0.21582 0.0
C5 C 0.24224 0.36997 0.19799 0.0
U6 U 0.33365 0.41562 0.18245 0.0
O7 O 0.3559 0.40126 0.16487 0.0
O8 O 0.35274 0.43072 0.14565 0.0
C9 C 0.36095 0.41515 0.1442 0.0
C10 C 0.28563 0.38792 0.18282 0.0
C11 C 0.35912 0.40338 0.11877 0.0
C12 C 0.36568 0.37487 0.09257 0.0
C13 C 0.3638 0.38374 0.11675 0.0
C14 C 0.3577 0.40467 0.0718 0.0
C15 C 0.36314 0.38554 0.06975 0.0
C16 C 0.35579 0.41352 0.09597 0.0
C17 C 0.37825 0.46384 0.23137 0.0
C18 C 0.42052 0.49569 0.22359 0.0
C19 C 0.40326 0.48975 0.26657 0.0
C20 C 0.38104 0.47044 0.25746 0.0
C21 C 0.42319 0.50288 0.24969 0.0
C22 C 0.39821 0.47631 0.2145 0.0
C23 C 0.35392 0.44496 0.22213 0.0
O24 O 0.29724 0.40908 0.17062 0.0
O25 O 0.30044 0.3802 0.19094 0.0
O26 O 0.34983 0.42229 0.2214 0.0
O27 O 0.34548 0.45089 0.20182 0.0
H28 H 0.29453 0.41372 0.22717 0.0
H29 H 0.26458 0.4121 0.25839 0.0
H30 H 0.20564 0.35674 0.21214 0.0
H31 H 0.23592 0.35827 0.18109 0.0
H32 H 0.36958 0.35992 0.09177 0.0
H33 H 0.36679 0.37569 0.13387 0.0
H34 H 0.35597 0.4136 0.0547 0.0
H35 H 0.35259 0.42894 0.09671 0.0
H36 H 0.43558 0.50522 0.21015 0.0
H37 H 0.40449 0.49496 0.28666 0.0
H38 H 0.36577 0.46106 0.27072 0.0
H39 H 0.39639 0.47138 0.19426 0.0
C40 C 0.8896 0.26408 0.69984 0.0
C41 C 0.88271 0.27046 0.72305 0.0
C42 C 0.85691 0.22718 0.73416 0.0
C43 C 0.86657 0.25223 0.74005 0.0
C44 C 0.86394 0.22087 0.71085 0.0
C45 C 0.88017 0.23919 0.69385 0.0
U46 U 0.92396 0.33117 0.68307 0.0
O47 O 0.9613 0.35569 0.66806 0.0
O48 O 0.9291 0.35119 0.64672 0.0
C49 C 0.95313 0.36102 0.6471 0.0
C50 C 0.90615 0.28346 0.68181 0.0
C51 C 0.96499 0.36089 0.62256 0.0
C52 C 0.96506 0.34253 0.58121 0.0
C53 C 0.95424 0.34097 0.60536 0.0
C54 C 0.99775 0.38359 0.59159 0.0
C55 C 0.98682 0.36401 0.5739 0.0
C56 C 0.98695 0.38202 0.61561 0.0
C57 C 0.91499 0.37246 0.73214 0.0
C58 C 0.93937 0.41691 0.73648 0.0
C59 C 0.90017 0.39438 0.75837 0.0
C60 C 0.89703 0.37242 0.74818 0.0
C61 C 0.92143 0.41692 0.7528 0.0
C62 C 0.93617 0.39484 0.7262 0.0
C63 C 0.91113 0.34881 0.7223 0.0
O64 O 0.8961 0.29447 0.66938 0.0
O65 O 0.928 0.29895 0.69112 0.0
O66 O 0.93028 0.34562 0.72267 0.0
O67 O 0.89808 0.34073 0.70107 0.0
H68 H 0.88967 0.28961 0.72792 0.0
H69 H 0.86127 0.25778 0.75756 0.0
H70 H 0.85703 0.20178 0.70582 0.0
H71 H 0.88527 0.23392 0.676 0.0
H72 H 0.95628 0.32699 0.56821 0.0
H73 H 0.9373 0.32443 0.61037 0.0
H74 H 0.01423 0.40056 0.58656 0.0
H75 H 0.99546 0.39765 0.62855 0.0
H76 H 0.95602 0.43391 0.73191 0.0
H77 H 0.88574 0.39371 0.77039 0.0
H78 H 0.88051 0.35532 0.75285 0.0
H79 H 0.95024 0.39524 0.71379 0.0
C80 C 0.62802 0.8863 0.19751 0.0
C81 C 0.61375 0.87913 0.22007 0.0
C82 C 0.63111 0.85359 0.23275 0.0
C83 C 0.6153 0.86298 0.23752 0.0
C84 C 0.64539 0.86085 0.21006 0.0
C85 C 0.64386 0.87709 0.1926 0.0
U86 U 0.59575 0.92053 0.17857 0.0
O87 O 0.60885 0.95801 0.16373 0.0
O88 O 0.58216 0.92586 0.14147 0.0
C89 C 0.59593 0.94994 0.14239 0.0
C90 C 0.62585 0.90296 0.17906 0.0
C91 C 0.60797 0.96263 0.11818 0.0
C92 C 0.62446 0.96334 0.07542 0.0
C93 C 0.6162 0.95206 0.0996 0.0
C94 C 0.61716 0.99616 0.08858 0.0
C95 C 0.62437 0.98519 0.06944 0.0
C96 C 0.60908 0.985 0.11265 0.0
C97 C 0.54312 0.91104 0.22452 0.0
C98 C 0.52734 0.93692 0.24069 0.0
C99 C 0.50006 0.89302 0.23636 0.0
C100 C 0.51954 0.89046 0.22712 0.0
C101 C 0.50374 0.91625 0.2434 0.0
C102 C 0.54685 0.93437 0.23128 0.0
C103 C 0.56355 0.90732 0.21618 0.0
O104 O 0.60532 0.89294 0.1657 0.0
O105 O 0.63174 0.92472 0.18834 0.0
O106 O 0.58595 0.9263 0.21766 0.0
O107 O 0.55972 0.89425 0.19511 0.0
H108 H 0.60126 0.88591 0.22409 0.0
H109 H 0.60373 0.8575 0.25452 0.0
H110 H 0.6579 0.85413 0.2059 0.0
H111 H 0.65498 0.8824 0.17527 0.0
H112 H 0.62983 0.95441 0.06104 0.0
H113 H 0.61549 0.93476 0.10345 0.0
H114 H 0.61723 0.01315 0.08472 0.0
H115 H 0.60283 0.99347 0.12669 0.0
H116 H 0.5307 0.95509 0.24576 0.0
H117 H 0.48221 0.87668 0.23857 0.0
H118 H 0.51624 0.87225 0.22235 0.0
H119 H 0.56484 0.95061 0.22957 0.0
C120 C 0.74527 0.62094 0.69877 0.0
C121 C 0.73792 0.60509 0.72012 0.0
C122 C 0.78049 0.6229 0.73404 0.0
C123 C 0.75533 0.60603 0.73755 0.0
C124 C 0.78775 0.63908 0.71283 0.0
C125 C 0.77026 0.63805 0.6953 0.0
U126 U 0.67873 0.59178 0.68084 0.0
O127 O 0.65629 0.60595 0.66345 0.0
O128 O 0.65894 0.57608 0.64446 0.0
C129 C 0.65077 0.59167 0.64304 0.0
C130 C 0.72677 0.61913 0.6801 0.0
C131 C 0.65214 0.60281 0.61739 0.0
C132 C 0.65646 0.63673 0.59065 0.0
C133 C 0.65841 0.62758 0.61467 0.0
C134 C 0.6426 0.59678 0.57149 0.0
C135 C 0.64817 0.62134 0.56882 0.0
C136 C 0.64448 0.58764 0.59547 0.0
C137 C 0.63492 0.54455 0.73092 0.0
C138 C 0.59057 0.51959 0.72672 0.0
C139 C 0.61114 0.51408 0.76349 0.0
C140 C 0.6337 0.53257 0.7541 0.0
C141 C 0.58928 0.50722 0.74988 0.0
C142 C 0.61325 0.53812 0.7173 0.0
C143 C 0.65914 0.5631 0.72114 0.0
O144 O 0.71477 0.59783 0.66823 0.0
O145 O 0.71229 0.62718 0.68844 0.0
O146 O 0.66339 0.58581 0.72009 0.0
O147 O 0.66699 0.55669 0.70071 0.0
H148 H 0.71867 0.59183 0.7232 0.0
H149 H 0.74906 0.59357 0.75386 0.0
H150 H 0.80698 0.65215 0.70948 0.0
H151 H 0.77626 0.65041 0.67891 0.0
H152 H 0.66114 0.6558 0.58924 0.0
H153 H 0.66424 0.63978 0.63118 0.0
H154 H 0.63579 0.58427 0.55526 0.0
H155 H 0.63914 0.56839 0.59702 0.0
H156 H 0.57408 0.51492 0.71587 0.0
H157 H 0.61097 0.50469 0.78109 0.0
H158 H 0.65031 0.53724 0.76477 0.0
H159 H 0.61391 0.54725 0.69933 0.0
C160 C 0.12735 0.74491 0.20223 0.0
C161 C 0.1337 0.73765 0.22521 0.0
C162 C 0.15975 0.78051 0.23779 0.0
C163 C 0.14972 0.75524 0.24281 0.0
C164 C 0.15316 0.78767 0.21475 0.0
C165 C 0.13709 0.77 0.19713 0.0
U166 U 0.09113 0.67821 0.18386 0.0
O167 O 0.05478 0.65548 0.1661 0.0
O168 O 0.08767 0.65884 0.14731 0.0
C169 C 0.06387 0.65036 0.14568 0.0
C170 C 0.11117 0.72623 0.18341 0.0
C171 C 0.05417 0.65184 0.12001 0.0
C172 C 0.05208 0.64401 0.07377 0.0
C173 C 0.06302 0.64597 0.09781 0.0
C174 C 0.02338 0.65421 0.09343 0.0
C175 C 0.03183 0.64767 0.07131 0.0
C176 C 0.0344 0.65625 0.1175 0.0
C177 C 0.09449 0.63419 0.23368 0.0
C178 C 0.08292 0.59151 0.22643 0.0
C179 C 0.09594 0.60949 0.26891 0.0
C180 C 0.09906 0.63175 0.25963 0.0
C181 C 0.08817 0.58917 0.25236 0.0
C182 C 0.08605 0.61387 0.21716 0.0
C183 C 0.09998 0.65847 0.22418 0.0
O184 O 0.12098 0.71458 0.17181 0.0
O185 O 0.08861 0.7114 0.19143 0.0
O186 O 0.08137 0.66247 0.22298 0.0
O187 O 0.11454 0.66679 0.20399 0.0
H188 H 0.12647 0.71832 0.2294 0.0
H189 H 0.15466 0.74902 0.26009 0.0
H190 H 0.16032 0.80694 0.21038 0.0
H191 H 0.13239 0.77594 0.17947 0.0
H192 H 0.05886 0.63857 0.05729 0.0
H193 H 0.07793 0.64205 0.09915 0.0
H194 H 0.008 0.65741 0.0922 0.0
H195 H 0.02695 0.66062 0.13421 0.0
H196 H 0.07664 0.57615 0.21324 0.0
H197 H 0.1005 0.6085 0.28886 0.0
H198 H 0.10567 0.64731 0.27263 0.0
H199 H 0.08236 0.61543 0.19704 0.0
C200 C 0.38689 0.12504 0.70087 0.0
C201 C 0.40016 0.13167 0.72407 0.0
C202 C 0.38287 0.15755 0.73562 0.0
C203 C 0.39816 0.14774 0.74127 0.0
C204 C 0.36949 0.15072 0.71235 0.0
C205 C 0.37149 0.13458 0.69513 0.0
U206 U 0.41892 0.09007 0.6837 0.0
O207 O 0.40605 0.05325 0.66738 0.0
O208 O 0.43457 0.0859 0.64732 0.0
C209 C 0.41975 0.06194 0.64656 0.0
C210 C 0.38975 0.10873 0.68253 0.0
C211 C 0.40808 0.0511 0.62135 0.0
C212 C 0.41139 0.05027 0.57452 0.0
C213 C 0.42047 0.06201 0.59822 0.0
C214 C 0.37702 0.0166 0.59636 0.0
C215 C 0.3898 0.02719 0.57331 0.0
C216 C 0.38608 0.02836 0.62009 0.0
C217 C 0.46752 0.09679 0.73394 0.0
C218 C 0.50086 0.08818 0.72788 0.0
C219 C 0.49304 0.0992 0.77021 0.0
C220 C 0.47336 0.10097 0.7602 0.0
C221 C 0.50732 0.09323 0.7541 0.0
C222 C 0.4811 0.08999 0.71786 0.0
C223 C 0.44815 0.10109 0.72377 0.0
O224 O 0.41108 0.11881 0.67065 0.0
O225 O 0.38279 0.08652 0.69123 0.0
O226 O 0.42581 0.08199 0.72321 0.0
O227 O 0.4538 0.11488 0.70301 0.0
H228 H 0.41229 0.12461 0.72875 0.0
H229 H 0.40904 0.15288 0.75876 0.0
H230 H 0.35736 0.15773 0.7075 0.0
H231 H 0.36113 0.12968 0.67729 0.0
H232 H 0.42194 0.05883 0.55725 0.0
H233 H 0.4377 0.07927 0.59849 0.0
H234 H 0.3602 0.99897 0.59613 0.0
H235 H 0.37617 0.01924 0.63749 0.0
H236 H 0.5116 0.0837 0.71495 0.0
H237 H 0.49726 0.10279 0.79055 0.0
H238 H 0.46299 0.10615 0.7729 0.0
H239 H 0.47682 0.08668 0.6975 0.0
C240 C 0.62614 0.7462 0.34041 0.0
C241 C 0.61334 0.73925 0.31692 0.0
C242 C 0.63043 0.78228 0.30485 0.0
C243 C 0.61549 0.75709 0.29931 0.0
C244 C 0.64335 0.78913 0.3284 0.0
C245 C 0.64121 0.77123 0.34601 0.0
U246 U 0.59337 0.67953 0.35939 0.0
O247 O 0.60585 0.65562 0.37664 0.0
O248 O 0.57782 0.66083 0.39632 0.0
C249 C 0.59231 0.65134 0.39748 0.0
C250 C 0.62306 0.72729 0.35924 0.0
C251 C 0.60392 0.65256 0.42281 0.0
C252 C 0.59923 0.64562 0.46925 0.0
C253 C 0.58996 0.64777 0.44546 0.0
C254 C 0.63695 0.65347 0.44843 0.0
C255 C 0.62268 0.64802 0.471 0.0
C256 C 0.62768 0.65569 0.4246 0.0
C257 C 0.54383 0.63658 0.31044 0.0
C258 C 0.52496 0.59227 0.30537 0.0
C259 C 0.50653 0.61399 0.28522 0.0
C260 C 0.52512 0.63611 0.29534 0.0
C261 C 0.50628 0.5918 0.2899 0.0
C262 C 0.54359 0.6145 0.31558 0.0
C263 C 0.56351 0.66048 0.3199 0.0
O264 O 0.60181 0.71659 0.3713 0.0
O265 O 0.62964 0.7116 0.35103 0.0
O266 O 0.58584 0.66365 0.32039 0.0
O267 O 0.55821 0.66931 0.34034 0.0
H268 H 0.60145 0.71998 0.31234 0.0
H269 H 0.60497 0.75112 0.2816 0.0
H270 H 0.65519 0.80834 0.33318 0.0
H271 H 0.6512 0.77692 0.36407 0.0
H272 H 0.58755 0.64104 0.4861 0.0
H273 H 0.57145 0.64483 0.44468 0.0
H274 H 0.65517 0.65569 0.4491 0.0
H275 H 0.63891 0.65921 0.40754 0.0
H276 H 0.52539 0.57555 0.30925 0.0
H277 H 0.49218 0.61427 0.2739 0.0
H278 H 0.52494 0.65296 0.29128 0.0
H279 H 0.55787 0.61447 0.32725 0.0
C280 C 0.88478 0.62097 0.8412 0.0
C281 C 0.87665 0.60529 0.81971 0.0
C282 C 0.85184 0.62298 0.80552 0.0
C283 C 0.86034 0.60626 0.80208 0.0
C284 C 0.8604 0.639 0.82687 0.0
C285 C 0.87669 0.63794 0.8446 0.0
U286 U 0.92154 0.59135 0.86032 0.0
O287 O 0.95793 0.6054 0.87813 0.0
O288 O 0.92516 0.57587 0.89708 0.0
C289 C 0.94893 0.59134 0.89866 0.0
C290 C 0.90119 0.61906 0.86016 0.0
C291 C 0.95854 0.60271 0.92426 0.0
C292 C 0.98878 0.63639 0.95076 0.0
C293 C 0.97783 0.62716 0.92671 0.0
C294 C 0.96099 0.59721 0.9705 0.0
C295 C 0.98075 0.62141 0.9729 0.0
C296 C 0.95011 0.58798 0.94649 0.0
C297 C 0.9183 0.54354 0.81108 0.0
C298 C 0.93024 0.51273 0.81859 0.0
C299 C 0.91696 0.51723 0.77607 0.0
C300 C 0.91367 0.53631 0.78519 0.0
C301 C 0.92498 0.50495 0.79271 0.0
C302 C 0.92693 0.53189 0.82771 0.0
C303 C 0.91273 0.56232 0.82039 0.0
O304 O 0.89163 0.59781 0.8722 0.0
O305 O 0.92374 0.62683 0.85208 0.0
O306 O 0.93126 0.58498 0.82134 0.0
O307 O 0.89824 0.55622 0.84062 0.0
H308 H 0.88278 0.59212 0.8167 0.0
H309 H 0.85442 0.59393 0.78567 0.0
H310 H 0.85405 0.65195 0.83019 0.0
H311 H 0.88276 0.65016 0.8611 0.0
H312 H 1.00378 0.65519 0.95194 0.0
H313 H 0.98493 0.639 0.90997 0.0
H314 H 0.95455 0.585 0.987 0.0
H315 H 0.93559 0.56896 0.94519 0.0
H316 H 0.9367 0.50387 0.83185 0.0
H317 H 0.91237 0.51153 0.75616 0.0
H318 H 0.9069 0.54506 0.77212 0.0
H319 H 0.93067 0.53731 0.84778 0.0
C320 C 0.2679 0.88241 0.3451 0.0
C321 C 0.27465 0.8764 0.32158 0.0
C322 C 0.23155 0.85074 0.30976 0.0
C323 C 0.25668 0.86074 0.30409 0.0
C324 C 0.2249 0.85698 0.33334 0.0
C325 C 0.24295 0.87269 0.35086 0.0
U326 U 0.33492 0.91811 0.36214 0.0
O327 O 0.3581 0.95419 0.38024 0.0
O328 O 0.35492 0.92097 0.39808 0.0
C329 C 0.36356 0.94478 0.40013 0.0
C330 C 0.28697 0.89825 0.36376 0.0
C331 C 0.36252 0.95411 0.42609 0.0
C332 C 0.35474 0.98048 0.45443 0.0
C333 C 0.35285 0.96978 0.43017 0.0
C334 C 0.37532 0.95949 0.47108 0.0
C335 C 0.36628 0.9757 0.47511 0.0
C336 C 0.37351 0.9489 0.44687 0.0
C337 C 0.37783 0.91533 0.31018 0.0
C338 C 0.41802 0.91893 0.31482 0.0
C339 C 0.40278 0.92048 0.27235 0.0
C340 C 0.38133 0.91787 0.28343 0.0
C341 C 0.42116 0.92049 0.28785 0.0
C342 C 0.39653 0.91637 0.32591 0.0
C343 C 0.35386 0.90984 0.32078 0.0
O344 O 0.29874 0.88815 0.37451 0.0
O345 O 0.30173 0.92093 0.35599 0.0
O346 O 0.34989 0.92844 0.32274 0.0
O347 O 0.34579 0.8949 0.34071 0.0
H348 H 0.29386 0.88362 0.31687 0.0
H349 H 0.26251 0.85606 0.28636 0.0
H350 H 0.20576 0.84983 0.33822 0.0
H351 H 0.23741 0.87713 0.36894 0.0
H352 H 0.34734 0.99266 0.45694 0.0
H353 H 0.34429 0.97421 0.41454 0.0
H354 H 0.38464 0.95566 0.48639 0.0
H355 H 0.38139 0.93714 0.44418 0.0
H356 H 0.43173 0.9187 0.3273 0.0
H357 H 0.40479 0.92209 0.25158 0.0
H358 H 0.36715 0.9172 0.27099 0.0
H359 H 0.39422 0.91448 0.34665 0.0
C360 C 0.38601 0.26579 0.8408 0.0
C361 C 0.39953 0.27253 0.81774 0.0
C362 C 0.38255 0.2294 0.80619 0.0
C363 C 0.39782 0.25454 0.80062 0.0
C364 C 0.36897 0.22275 0.82935 0.0
C365 C 0.37068 0.24082 0.84649 0.0
U366 U 0.41649 0.33288 0.85727 0.0
O367 O 0.40243 0.35609 0.87318 0.0
O368 O 0.43172 0.35331 0.89333 0.0
C369 C 0.41638 0.36184 0.89383 0.0
C370 C 0.38836 0.28492 0.85892 0.0
C371 C 0.40452 0.36084 0.91883 0.0
C372 C 0.39457 0.347 0.96339 0.0
C373 C 0.40347 0.34543 0.93906 0.0
C374 C 0.38684 0.37871 0.94737 0.0
C375 C 0.38648 0.36393 0.96795 0.0
C376 C 0.3958 0.37721 0.92314 0.0
C377 C 0.46454 0.3753 0.80706 0.0
C378 C 0.48844 0.4199 0.80923 0.0
C379 C 0.49663 0.39812 0.77561 0.0
C380 C 0.47798 0.3758 0.78531 0.0
C381 C 0.5022 0.42048 0.78747 0.0
C382 C 0.46975 0.39746 0.81897 0.0
C383 C 0.44568 0.35137 0.81715 0.0
O384 O 0.40967 0.29676 0.87077 0.0
O385 O 0.38083 0.29962 0.84999 0.0
O386 O 0.42307 0.3474 0.81765 0.0
O387 O 0.45169 0.34379 0.83808 0.0
H388 H 0.41159 0.29175 0.81309 0.0
H389 H 0.40885 0.26035 0.78323 0.0
H390 H 0.35686 0.20359 0.83414 0.0
H391 H 0.36011 0.2353 0.8642 0.0
H392 H 0.39428 0.33512 0.97871 0.0
H393 H 0.41001 0.33257 0.93629 0.0
H394 H 0.38108 0.39218 0.95021 0.0
H395 H 0.39659 0.38941 0.90791 0.0
H396 H 0.49211 0.43677 0.81871 0.0
H397 H 0.5071 0.39777 0.75918 0.0
H398 H 0.47426 0.35883 0.77598 0.0
H399 H 0.45951 0.39736 0.83583 0.0
C400 C 0.12813 0.387 0.34419 0.0
C401 C 0.13803 0.40389 0.3238 0.0
C402 C 0.16176 0.38509 0.30938 0.0
C403 C 0.15468 0.40297 0.30661 0.0
C404 C 0.15154 0.36796 0.32968 0.0
C405 C 0.13488 0.36895 0.34699 0.0
U406 U 0.09187 0.41737 0.36176 0.0
O407 O 0.0542 0.4033 0.37648 0.0
O408 O 0.08585 0.43128 0.39831 0.0
C409 C 0.06189 0.41655 0.39766 0.0
C410 C 0.11088 0.3885 0.36235 0.0
C411 C 0.05002 0.40409 0.42202 0.0
C412 C 0.05048 0.38606 0.46346 0.0
C413 C 0.06126 0.39555 0.43936 0.0
C414 C 0.01683 0.39287 0.45274 0.0
C415 C 0.02827 0.38493 0.4706 0.0
C416 C 0.0276 0.40233 0.42877 0.0
C417 C 0.10032 0.4681 0.31346 0.0
C418 C 0.07529 0.48744 0.30893 0.0
C419 C 0.11473 0.50489 0.2874 0.0
C420 C 0.11823 0.4863 0.29762 0.0
C421 C 0.09316 0.50564 0.29275 0.0
C422 C 0.07885 0.4688 0.31922 0.0
C423 C 0.10453 0.4485 0.32316 0.0
O424 O 0.12012 0.40913 0.3755 0.0
O425 O 0.08903 0.38174 0.35279 0.0
O426 O 0.0857 0.42598 0.32232 0.0
O427 O 0.11732 0.45338 0.34456 0.0
H428 H 0.13291 0.41788 0.32123 0.0
H429 H 0.16186 0.41619 0.29099 0.0
H430 H 0.15675 0.35408 0.33248 0.0
H431 H 0.1274 0.35576 0.36261 0.0
H432 H 0.05966 0.37986 0.47658 0.0
H433 H 0.07857 0.39669 0.43452 0.0
H434 H 0.99998 0.39268 0.45763 0.0
H435 H 0.01871 0.40896 0.41573 0.0
H436 H 0.05842 0.48741 0.31334 0.0
H437 H 0.12911 0.51886 0.2755 0.0
H438 H 0.13497 0.48611 0.29308 0.0
H439 H 0.06481 0.45489 0.33148 0.0
C440 C 0.74803 0.12175 0.83851 0.0
C441 C 0.74154 0.12889 0.81553 0.0
C442 C 0.78473 0.15453 0.80407 0.0
C443 C 0.75968 0.14507 0.79848 0.0
C444 C 0.79115 0.14723 0.82713 0.0
C445 C 0.77293 0.13095 0.84419 0.0
U446 U 0.68138 0.08931 0.85654 0.0
O447 O 0.65587 0.05208 0.87126 0.0
O448 O 0.66216 0.08462 0.89334 0.0
C449 C 0.65107 0.06048 0.8924 0.0
C450 C 0.72874 0.10534 0.8567 0.0
C451 C 0.64972 0.04769 0.91671 0.0
C452 C 0.66688 0.04451 0.95771 0.0
C453 C 0.66989 0.05564 0.93344 0.0
C454 C 0.62382 0.01705 0.9483 0.0
C455 C 0.64362 0.02548 0.96562 0.0
C456 C 0.62686 0.02802 0.92414 0.0
C457 C 0.64025 0.10105 0.81018 0.0
C458 C 0.59634 0.07632 0.80187 0.0
C459 C 0.61789 0.11993 0.79233 0.0
C460 C 0.63981 0.12181 0.80094 0.0
C461 C 0.5959 0.09718 0.79266 0.0
C462 C 0.61832 0.07825 0.81068 0.0
C463 C 0.66391 0.10382 0.81863 0.0
O464 O 0.71866 0.11586 0.86995 0.0
O465 O 0.71249 0.08383 0.84722 0.0
O466 O 0.66629 0.08419 0.8173 0.0
O467 O 0.6732 0.11666 0.8398 0.0
H468 H 0.7224 0.12214 0.81092 0.0
H469 H 0.75405 0.15058 0.78117 0.0
H470 H 0.81024 0.15399 0.83194 0.0
H471 H 0.77827 0.12568 0.86187 0.0
H472 H 0.68245 0.05145 0.97067 0.0
H473 H 0.6877 0.07085 0.92805 0.0
H474 H 0.60578 1.0022 0.95365 0.0
H475 H 0.61109 0.02159 0.91151 0.0
H476 H 0.57964 0.0586 0.80258 0.0
H477 H 0.61823 0.13628 0.78505 0.0
H478 H 0.65654 0.13953 0.80028 0.0
H479 H 0.61816 0.06196 0.81784 0.0
C480 C 0.21771 0.40659 0.2662 0.0
C481 C 0.21445 0.38433 0.25619 0.0
H482 H 0.20395 0.42425 0.2909 0.0
C483 C 0.19374 0.36219 0.26399 0.0
H484 H 0.23329 0.424 0.26041 0.0
C485 C 0.17675 0.36235 0.28142 0.0
C486 C 0.17999 0.38466 0.29129 0.0
H487 H 0.19078 0.34471 0.25682 0.0
H488 H 0.16089 0.34502 0.28688 0.0
C489 C 0.20072 0.40675 0.28349 0.0
C490 C 0.80093 0.16934 0.75927 0.0
C491 C 0.80396 0.17239 0.78616 0.0
H492 H 0.81506 0.18415 0.72186 0.0
C493 C 0.82509 0.19312 0.79578 0.0
H494 H 0.78503 0.15345 0.75118 0.0
C495 C 0.84244 0.21063 0.77894 0.0
C496 C 0.83915 0.20784 0.75205 0.0
H497 H 0.82795 0.19618 0.81636 0.0
H498 H 0.85842 0.22643 0.78702 0.0
C499 C 0.81831 0.18682 0.74243 0.0
C500 C 0.63158 0.82217 0.29536 0.0
C501 C 0.63193 0.80121 0.28639 0.0
H502 H 0.63133 0.85519 0.28561 0.0
C503 C 0.63294 0.79811 0.25962 0.0
H504 H 0.63059 0.82507 0.31582 0.0
C505 C 0.63313 0.81529 0.24226 0.0
C506 C 0.63226 0.83598 0.25122 0.0
H507 H 0.63351 0.78233 0.25204 0.0
H508 H 0.63337 0.81202 0.22177 0.0
C509 C 0.63172 0.83931 0.27801 0.0
C510 C 0.79676 0.60094 0.76099 0.0
C511 C 0.79898 0.62316 0.75223 0.0
H512 H 0.81144 0.58348 0.78472 0.0
C513 C 0.81882 0.64544 0.76109 0.0
H514 H 0.78187 0.58345 0.75435 0.0
C515 C 0.83592 0.64546 0.77848 0.0
C516 C 0.83368 0.6232 0.78719 0.0
H517 H 0.82096 0.66287 0.75487 0.0
H518 H 0.85105 0.66291 0.78487 0.0
C519 C 0.81388 0.60096 0.77821 0.0
C520 C 0.19129 0.81238 0.30037 0.0
C521 C 0.21248 0.83343 0.29135 0.0
H522 H 0.15796 0.77945 0.29069 0.0
C523 C 0.21568 0.83738 0.26456 0.0
H524 H 0.1883 0.80861 0.32084 0.0
C525 C 0.19841 0.82049 0.24724 0.0
C526 C 0.17747 0.79918 0.25625 0.0
H527 H 0.23162 0.85354 0.25692 0.0
H528 H 0.2018 0.82386 0.22676 0.0
C529 C 0.17402 0.79549 0.28305 0.0
C530 C 0.38103 0.18918 0.79755 0.0
C531 C 0.3813 0.21032 0.78813 0.0
H532 H 0.38099 0.15588 0.7885 0.0
C533 C 0.38114 0.21346 0.76126 0.0
H534 H 0.38135 0.18625 0.8181 0.0
C535 C 0.38119 0.19616 0.74427 0.0
C536 C 0.38144 0.17528 0.75369 0.0
H537 H 0.38104 0.22936 0.75331 0.0
H538 H 0.38165 0.19949 0.72372 0.0
C539 C 0.38111 0.17189 0.78056 0.0
C540 C 0.45539 0.52515 0.2838 0.0
C541 C 0.44598 0.52487 0.25909 0.0
H542 H 0.48161 0.54642 0.31298 0.0
C543 C 0.45759 0.54636 0.24404 0.0
H544 H 0.44708 0.50884 0.29578 0.0
C545 C 0.47755 0.5678 0.25378 0.0
C546 C 0.48638 0.56836 0.27885 0.0
H547 H 0.45074 0.54691 0.22503 0.0
H548 H 0.48587 0.58407 0.24174 0.0
C549 C 0.47535 0.54664 0.29357 0.0
C550 C 0.93387 0.46161 0.74858 0.0
C551 C 0.92445 0.44021 0.76373 0.0
H552 H 0.94186 0.49894 0.74595 0.0
C553 C 0.91689 0.44092 0.78911 0.0
H554 H 0.93975 0.46171 0.72892 0.0
C555 C 0.91781 0.46215 0.79877 0.0
C556 C 0.92639 0.48327 0.78331 0.0
H557 H 0.90993 0.42491 0.80148 0.0
H558 H 0.91097 0.46168 0.81806 0.0
C559 C 0.93483 0.48288 0.75826 0.0
C560 C 0.45948 0.90531 0.24299 0.0
C561 C 0.48301 0.91863 0.25398 0.0
H562 H 0.42164 0.89529 0.24512 0.0
C563 C 0.48631 0.9334 0.2757 0.0
H564 H 0.45637 0.89396 0.2261 0.0
C565 C 0.46637 0.93433 0.28654 0.0
C566 C 0.44274 0.92064 0.27579 0.0
H567 H 0.50418 0.94373 0.28474 0.0
H568 H 0.46944 0.94572 0.30339 0.0
C569 C 0.43961 0.9063 0.25374 0.0
C570 C 0.53933 0.4621 0.79499 0.0
C571 C 0.52302 0.44404 0.77772 0.0
H572 H 0.57268 0.49639 0.79978 0.0
C573 C 0.52766 0.448 0.75109 0.0
H574 H 0.53643 0.45964 0.81562 0.0
C575 C 0.54868 0.4689 0.742 0.0
C576 C 0.56555 0.48644 0.75933 0.0
H577 H 0.51527 0.43467 0.73721 0.0
H578 H 0.55217 0.4708 0.72144 0.0
C579 C 0.56031 0.48305 0.7859 0.0
C580 C 0.096 0.55395 0.24654 0.0
C581 C 0.08708 0.56626 0.26187 0.0
H582 H 0.10452 0.52502 0.24406 0.0
C583 C 0.07863 0.55741 0.28692 0.0
H584 H 0.10286 0.56036 0.22726 0.0
C585 C 0.07993 0.53732 0.29672 0.0
C586 C 0.08972 0.52561 0.2817 0.0
H587 H 0.07134 0.56625 0.29913 0.0
H588 H 0.07403 0.53151 0.31637 0.0
C589 C 0.09727 0.53387 0.25632 0.0
C590 C 0.54554 0.1126 0.78106 0.0
C591 C 0.52957 0.09358 0.76445 0.0
H592 H 0.57872 0.12846 0.80314 0.0
C593 C 0.5353 0.07534 0.7576 0.0
H594 H 0.54184 0.1271 0.78649 0.0
C595 C 0.55659 0.0762 0.7671 0.0
C596 C 0.57269 0.09545 0.78343 0.0
H597 H 0.52328 0.06037 0.74498 0.0
H598 H 0.56071 0.06209 0.76124 0.0
C599 C 0.56682 0.11353 0.7904 0.0
C600 C 0.35365 0.37678 0.02232 0.0
C601 C 0.36767 0.3779 0.04398 0.0
H602 H 0.34821 0.37104 0.98154 0.0
C603 C 0.38699 0.37291 0.04056 0.0
H604 H 0.33839 0.3801 0.02426 0.0
C605 C 0.39257 0.36765 1.01607 0.0
C606 C 0.37903 0.36728 0.9943 0.0
H607 H 0.39847 0.37399 0.05666 0.0
H608 H 0.40814 0.36482 1.01407 0.0
C609 C 0.35927 0.37155 0.99781 0.0
C610 C 0.9921 0.36332 0.5008 0.0
C611 C 0.01771 0.37698 0.49702 0.0
H612 H 0.96231 0.34863 0.52778 0.0
C613 C 0.03307 0.38448 0.51883 0.0
H614 H 0.9797 0.3569 0.48447 0.0
C615 C 0.02308 0.37943 0.54373 0.0
C616 C 0.99746 0.36677 0.54751 0.0
H617 H 0.05285 0.39516 0.51675 0.0
H618 H 0.03549 0.38591 0.56005 0.0
C619 C 0.98211 0.3583 0.5257 0.0
C620 C 0.65517 0.00843 1.00395 0.0
C621 C 0.63933 0.01539 0.99231 0.0
H622 H 0.66275 0.99311 0.03747 0.0
C623 C 0.6189 0.01252 1.0063 0.0
H624 H 0.67101 0.01036 0.99359 0.0
C625 C 0.61428 1.00285 0.03123 0.0
C626 C 0.62989 0.99565 0.04289 0.0
H627 H 0.60649 0.01794 0.99801 0.0
H628 H 0.59821 1.0007 0.0413 0.0
C629 C 0.65036 0.99842 0.02895 0.0
C630 C 0.63283 0.64496 0.54301 0.0
C631 C 0.64391 0.63025 0.54372 0.0
H632 H 0.61777 0.66237 0.51965 0.0
C633 C 0.64945 0.62289 0.52022 0.0
H634 H 0.6281 0.6508 0.5607 0.0
C635 C 0.64331 0.62934 0.49666 0.0
C636 C 0.63142 0.64329 0.49597 0.0
H637 H 0.65822 0.6118 0.52001 0.0
H638 H 0.6471 0.62261 0.47901 0.0
C639 C 0.62664 0.65136 0.51945 0.0
C640 C 0.99291 0.63027 0.04514 0.0
C641 C 0.01876 0.64313 0.04612 0.0
H642 H 0.96068 0.61365 0.02143 0.0
C643 C 0.03192 0.65025 0.02276 0.0
H644 H 0.98215 0.62429 0.0627 0.0
C645 C 0.01959 0.64394 0.99906 0.0
C646 C 0.99376 0.63029 0.99808 0.0
H647 H 0.05182 0.66041 0.02277 0.0
H648 H 0.03036 0.649 0.98149 0.0
C649 C 0.98059 0.62391 0.02144 0.0
C650 C 0.37763 0.01361 0.50152 0.0
C651 C 0.37008 0.98841 0.50043 0.0
H652 H 0.38948 0.04553 0.52526 0.0
C653 C 0.3676 0.97582 0.52368 0.0
H654 H 0.37995 0.02395 0.484 0.0
C655 C 0.37327 0.98824 0.54731 0.0
C656 C 0.38162 0.01361 0.54835 0.0
H657 H 0.36157 0.95636 0.5236 0.0
H658 H 0.37191 0.97808 0.56471 0.0
C659 C 0.38337 0.02605 0.52517 0.0
loop_
_geom_bond_atom_site_label_1
_geom_bond_atom_site_label_2
_geom_bond_distance
_geom_bond_site_symmetry_2
_ccdc_geom_bond_type
C0 C1 1.264 . S
C0 C5 1.479 . S
C0 C10 1.465 . S
C1 C0 1.264 . S
C1 C3 1.339 . S
C1 H28 0.931 . S
C2 C3 1.395 . S
C2 C4 1.320 . S
C3 C1 1.339 . S
C3 C2 1.395 . S
C3 H29 0.929 . S
C4 C2 1.320 . S
C4 C5 1.405 . S
C4 H30 0.930 . S
C5 C0 1.479 . S
C5 C4 1.405 . S
C5 H31 0.931 . S
U6 O7 2.454 . S
U6 O8 2.458 . S
U6 C9 2.984 . S
U6 C10 2.847 . S
U6 C23 2.882 . S
U6 O24 2.441 . S
U6 O25 2.420 . S
U6 O26 2.455 . S
U6 O27 2.449 . S
O7 U6 2.454 . S
O7 C9 1.353 . S
O8 U6 2.458 . S
O8 C9 1.286 . S
C9 U6 2.984 . S
C9 O7 1.353 . S
C9 O8 1.286 . S
C9 C11 1.363 . S
C10 C0 1.465 . S
C10 U6 2.847 . S
C10 O24 1.249 . S
C10 O25 1.202 . S
C11 C9 1.363 . S
C11 C13 1.408 . S
C11 C16 1.342 . S
C12 C13 1.310 . S
C12 C15 1.461 . S
C12 H32 0.932 . S
C13 C11 1.408 . S
C13 C12 1.310 . S
C13 H33 0.930 . S
C14 C15 1.474 . S
C14 C16 1.285 . S
C14 H34 0.929 . S
C15 C12 1.461 . S
C15 C14 1.474 . S
C16 C11 1.342 . S
C16 C14 1.285 . S
C16 H35 0.930 . S
C17 C20 1.424 . S
C17 C22 1.245 . S
C17 C23 1.428 . S
C18 C21 1.260 . S
C18 C22 1.477 . S
C18 H36 0.932 . S
C19 C20 1.384 . S
C19 C21 1.479 . S
C19 H37 0.929 . S
C20 C17 1.424 . S
C20 C19 1.384 . S
C20 H38 0.928 . S
C21 C18 1.260 . S
C21 C19 1.479 . S
C22 C17 1.245 . S
C22 C18 1.477 . S
C22 H39 0.932 . S
C23 U6 2.882 . S
C23 C17 1.428 . S
C23 O26 1.301 . S
C23 O27 1.282 . S
O24 U6 2.441 . S
O24 C10 1.249 . S
O25 U6 2.420 . S
O25 C10 1.202 . S
O26 U6 2.455 . S
O26 C23 1.301 . S
O27 U6 2.449 . S
O27 C23 1.282 . S
H28 C1 0.931 . S
H29 C3 0.929 . S
H30 C4 0.930 . S
H31 C5 0.931 . S
H32 C12 0.932 . S
H33 C13 0.930 . S
H34 C14 0.929 . S
H35 C16 0.930 . S
H36 C18 0.932 . S
H37 C19 0.929 . S
H38 C20 0.928 . S
H39 C22 0.932 . S
C40 C41 1.264 . S
C40 C45 1.479 . S
C40 C50 1.465 . S
C41 C40 1.264 . S
C41 C43 1.339 . S
C41 H68 0.931 . S
C42 C43 1.395 . S
C42 C44 1.320 . S
C43 C41 1.339 . S
C43 C42 1.395 . S
C43 H69 0.929 . S
C44 C42 1.320 . S
C44 C45 1.405 . S
C44 H70 0.930 . S
C45 C40 1.479 . S
C45 C44 1.405 . S
C45 H71 0.931 . S
U46 O47 2.454 . S
U46 O48 2.458 . S
U46 C49 2.984 . S
U46 C50 2.847 . S
U46 C63 2.882 . S
U46 O64 2.441 . S
U46 O65 2.420 . S
U46 O66 2.455 . S
U46 O67 2.449 . S
O47 U46 2.454 . S
O47 C49 1.353 . S
O48 U46 2.458 . S
O48 C49 1.286 . S
C49 U46 2.984 . S
C49 O47 1.353 . S
C49 O48 1.286 . S
C49 C51 1.363 . S
C50 C40 1.465 . S
C50 U46 2.847 . S
C50 O64 1.249 . S
C50 O65 1.202 . S
C51 C49 1.363 . S
C51 C53 1.408 . S
C51 C56 1.342 1_655 S
C52 C53 1.306 1_455 S
C52 C55 1.463 . S
C52 H72 0.935 1_455 S
C53 C51 1.408 . S
C53 C52 1.306 1_655 S
C53 H73 0.930 . S
C54 C55 1.474 . S
C54 C56 1.285 . S
C54 H74 0.929 . S
C55 C52 1.463 . S
C55 C54 1.474 . S
C56 C51 1.342 1_455 S
C56 C54 1.285 . S
C56 H75 0.930 . S
C57 C60 1.424 . S
C57 C62 1.245 1_655 S
C57 C63 1.428 . S
C58 C61 1.260 1_455 S
C58 C62 1.477 . S
C58 H76 0.932 . S
C59 C60 1.384 . S
C59 C61 1.479 . S
C59 H77 0.929 . S
C60 C57 1.424 . S
C60 C59 1.384 . S
C60 H78 0.928 . S
C61 C58 1.260 1_655 S
C61 C59 1.479 . S
C62 C57 1.245 1_455 S
C62 C58 1.477 . S
C62 H79 0.932 . S
C63 U46 2.882 . S
C63 C57 1.428 . S
C63 O66 1.301 . S
C63 O67 1.282 . S
O64 U46 2.441 . S
O64 C50 1.249 . S
O65 U46 2.420 . S
O65 C50 1.202 . S
O66 U46 2.455 . S
O66 C63 1.301 . S
O67 U46 2.449 . S
O67 C63 1.282 . S
H68 C41 0.931 . S
H69 C43 0.929 . S
H70 C44 0.930 . S
H71 C45 0.931 . S
H72 C52 0.935 1_655 S
H73 C53 0.930 . S
H74 C54 0.929 . S
H75 C56 0.930 . S
H76 C58 0.932 . S
H77 C59 0.929 . S
H78 C60 0.928 . S
H79 C62 0.932 . S
C80 C81 1.264 . S
C80 C85 1.479 . S
C80 C90 1.465 . S
C81 C80 1.264 . S
C81 C83 1.339 . S
C81 H108 0.931 . S
C82 C83 1.395 . S
C82 C84 1.320 . S
C83 C81 1.339 . S
C83 C82 1.395 . S
C83 H109 0.929 . S
C84 C82 1.320 . S
C84 C85 1.405 . S
C84 H110 0.930 . S
C85 C80 1.479 . S
C85 C84 1.405 . S
C85 H111 0.931 . S
U86 O87 2.454 . S
U86 O88 2.458 . S
U86 C89 2.984 . S
U86 C90 2.847 . S
U86 C103 2.882 . S
U86 O104 2.441 . S
U86 O105 2.420 . S
U86 O106 2.455 . S
U86 O107 2.449 . S
O87 U86 2.454 . S
O87 C89 1.353 . S
O88 U86 2.458 . S
O88 C89 1.286 . S
C89 U86 2.984 . S
C89 O87 1.353 . S
C89 O88 1.286 . S
C89 C91 1.363 . S
C90 C80 1.465 . S
C90 U86 2.847 . S
C90 O104 1.249 . S
C90 O105 1.202 . S
C91 C89 1.363 . S
C91 C93 1.408 . S
C91 C96 1.342 1_565 S
C92 C93 1.309 1_545 S
C92 C95 1.466 . S
C92 H112 0.928 1_545 S
C93 C91 1.408 . S
C93 C92 1.309 1_565 S
C93 H113 0.930 . S
C94 C95 1.474 . S
C94 C96 1.285 . S
C94 H114 0.929 . S
C95 C92 1.466 . S
C95 C94 1.474 . S
C96 C91 1.342 1_545 S
C96 C94 1.285 . S
C96 H115 0.930 . S
C97 C100 1.424 . S
C97 C102 1.245 1_565 S
C97 C103 1.428 . S
C98 C101 1.260 1_545 S
C98 C102 1.477 . S
C98 H116 0.932 . S
C99 C100 1.384 . S
C99 C101 1.479 . S
C99 H117 0.929 . S
C100 C97 1.424 . S
C100 C99 1.384 . S
C100 H118 0.928 . S
C101 C98 1.260 1_565 S
C101 C99 1.479 . S
C102 C97 1.245 1_545 S
C102 C98 1.477 . S
C102 H119 0.932 . S
C103 U86 2.882 . S
C103 C97 1.428 . S
C103 O106 1.301 . S
C103 O107 1.282 . S
O104 U86 2.441 . S
O104 C90 1.249 . S
O105 U86 2.420 . S
O105 C90 1.202 . S
O106 U86 2.455 . S
O106 C103 1.301 . S
O107 U86 2.449 . S
O107 C103 1.282 . S
H108 C81 0.931 . S
H109 C83 0.929 . S
H110 C84 0.930 . S
H111 C85 0.931 . S
H112 C92 0.928 1_565 S
H113 C93 0.930 . S
H114 C94 0.929 . S
H115 C96 0.930 . S
H116 C98 0.932 . S
H117 C99 0.929 . S
H118 C100 0.928 . S
H119 C102 0.932 . S
C120 C121 1.264 . S
C120 C125 1.479 . S
C120 C130 1.465 . S
C121 C120 1.264 . S
C121 C123 1.339 . S
C121 H148 0.931 . S
C122 C123 1.395 . S
C122 C124 1.320 . S
C123 C121 1.339 . S
C123 C122 1.395 . S
C123 H149 0.929 . S
C124 C122 1.320 . S
C124 C125 1.405 . S
C124 H150 0.930 . S
C125 C120 1.479 . S
C125 C124 1.405 . S
C125 H151 0.931 . S
U126 O127 2.454 . S
U126 O128 2.458 . S
U126 C129 2.984 . S
U126 C130 2.847 . S
U126 C143 2.882 . S
U126 O144 2.441 . S
U126 O145 2.420 . S
U126 O146 2.455 . S
U126 O147 2.449 . S
O127 U126 2.454 . S
O127 C129 1.353 . S
O128 U126 2.458 . S
O128 C129 1.286 . S
C129 U126 2.984 . S
C129 O127 1.353 . S
C129 O128 1.286 . S
C129 C131 1.363 . S
C130 C120 1.465 . S
C130 U126 2.847 . S
C130 O144 1.249 . S
C130 O145 1.202 . S
C131 C129 1.363 . S
C131 C133 1.408 . S
C131 C136 1.342 . S
C132 C133 1.310 . S
C132 C135 1.461 . S
C132 H152 0.932 . S
C133 C131 1.408 . S
C133 C132 1.310 . S
C133 H153 0.930 . S
C134 C135 1.474 . S
C134 C136 1.285 . S
C134 H154 0.929 . S
C135 C132 1.461 . S
C135 C134 1.474 . S
C136 C131 1.342 . S
C136 C134 1.285 . S
C136 H155 0.930 . S
C137 C140 1.424 . S
C137 C142 1.245 . S
C137 C143 1.428 . S
C138 C141 1.260 . S
C138 C142 1.477 . S
C138 H156 0.932 . S
C139 C140 1.384 . S
C139 C141 1.479 . S
C139 H157 0.929 . S
C140 C137 1.424 . S
C140 C139 1.384 . S
C140 H158 0.928 . S
C141 C138 1.260 . S
C141 C139 1.479 . S
C142 C137 1.245 . S
C142 C138 1.477 . S
C142 H159 0.932 . S
C143 U126 2.882 . S
C143 C137 1.428 . S
C143 O146 1.301 . S
C143 O147 1.282 . S
O144 U126 2.441 . S
O144 C130 1.249 . S
O145 U126 2.420 . S
O145 C130 1.202 . S
O146 U126 2.455 . S
O146 C143 1.301 . S
O147 U126 2.449 . S
O147 C143 1.282 . S
H148 C121 0.931 . S
H149 C123 0.929 . S
H150 C124 0.930 . S
H151 C125 0.931 . S
H152 C132 0.932 . S
H153 C133 0.930 . S
H154 C134 0.929 . S
H155 C136 0.930 . S
H156 C138 0.932 . S
H157 C139 0.929 . S
H158 C140 0.928 . S
H159 C142 0.932 . S
C160 C161 1.264 . S
C160 C165 1.479 . S
C160 C170 1.465 . S
C161 C160 1.264 . S
C161 C163 1.339 . S
C161 H188 0.931 . S
C162 C163 1.395 . S
C162 C164 1.320 . S
C163 C161 1.339 . S
C163 C162 1.395 . S
C163 H189 0.929 . S
C164 C162 1.320 . S
C164 C165 1.405 . S
C164 H190 0.930 . S
C165 C160 1.479 . S
C165 C164 1.405 . S
C165 H191 0.931 . S
U166 O167 2.454 . S
U166 O168 2.458 . S
U166 C169 2.984 . S
U166 C170 2.847 . S
U166 C183 2.882 . S
U166 O184 2.441 . S
U166 O185 2.420 . S
U166 O186 2.455 . S
U166 O187 2.449 . S
O167 U166 2.454 . S
O167 C169 1.353 . S
O168 U166 2.458 . S
O168 C169 1.286 . S
C169 U166 2.984 . S
C169 O167 1.353 . S
C169 O168 1.286 . S
C169 C171 1.363 . S
C170 C160 1.465 . S
C170 U166 2.847 . S
C170 O184 1.249 . S
C170 O185 1.202 . S
C171 C169 1.363 . S
C171 C173 1.408 . S
C171 C176 1.342 1_455 S
C172 C173 1.306 1_655 S
C172 C175 1.463 . S
C172 H192 0.935 1_655 S
C173 C171 1.408 . S
C173 C172 1.306 1_455 S
C173 H193 0.930 . S
C174 C175 1.474 . S
C174 C176 1.285 . S
C174 H194 0.929 . S
C175 C172 1.463 . S
C175 C174 1.474 . S
C176 C171 1.342 1_655 S
C176 C174 1.285 . S
C176 H195 0.930 . S
C177 C180 1.424 . S
C177 C182 1.245 1_455 S
C177 C183 1.428 . S
C178 C181 1.260 1_655 S
C178 C182 1.477 . S
C178 H196 0.932 . S
C179 C180 1.384 . S
C179 C181 1.479 . S
C179 H197 0.929 . S
C180 C177 1.424 . S
C180 C179 1.384 . S
C180 H198 0.928 . S
C181 C178 1.260 1_455 S
C181 C179 1.479 . S
C182 C177 1.245 1_655 S
C182 C178 1.477 . S
C182 H199 0.932 . S
C183 U166 2.882 . S
C183 C177 1.428 . S
C183 O186 1.301 . S
C183 O187 1.282 . S
O184 U166 2.441 . S
O184 C170 1.249 . S
O185 U166 2.420 . S
O185 C170 1.202 . S
O186 U166 2.455 . S
O186 C183 1.301 . S
O187 U166 2.449 . S
O187 C183 1.282 . S
H188 C161 0.931 . S
H189 C163 0.929 . S
H190 C164 0.930 . S
H191 C165 0.931 . S
H192 C172 0.935 1_455 S
H193 C173 0.930 . S
H194 C174 0.929 . S
H195 C176 0.930 . S
H196 C178 0.932 . S
H197 C179 0.929 . S
H198 C180 0.928 . S
H199 C182 0.932 . S
C200 C201 1.264 . S
C200 C205 1.479 . S
C200 C210 1.465 . S
C201 C200 1.264 . S
C201 C203 1.339 . S
C201 H228 0.931 . S
C202 C203 1.395 . S
C202 C204 1.320 . S
C203 C201 1.339 . S
C203 C202 1.395 . S
C203 H229 0.929 . S
C204 C202 1.320 . S
C204 C205 1.405 . S
C204 H230 0.930 . S
C205 C200 1.479 . S
C205 C204 1.405 . S
C205 H231 0.931 . S
U206 O207 2.454 . S
U206 O208 2.458 . S
U206 C209 2.984 . S
U206 C210 2.847 . S
U206 C223 2.882 . S
U206 O224 2.441 . S
U206 O225 2.420 . S
U206 O226 2.455 . S
U206 O227 2.449 . S
O207 U206 2.454 . S
O207 C209 1.353 . S
O208 U206 2.458 . S
O208 C209 1.286 . S
C209 U206 2.984 . S
C209 O207 1.353 . S
C209 O208 1.286 . S
C209 C211 1.363 . S
C210 C200 1.465 . S
C210 U206 2.847 . S
C210 O224 1.249 . S
C210 O225 1.202 . S
C211 C209 1.363 . S
C211 C213 1.408 . S
C211 C216 1.342 1_545 S
C212 C213 1.309 1_565 S
C212 C215 1.466 . S
C212 H232 0.928 1_565 S
C213 C211 1.408 . S
C213 C212 1.309 1_545 S
C213 H233 0.930 . S
C214 C215 1.474 . S
C214 C216 1.285 . S
C214 H234 0.929 . S
C215 C212 1.466 . S
C215 C214 1.474 . S
C216 C211 1.342 1_565 S
C216 C214 1.285 . S
C216 H235 0.930 . S
C217 C220 1.424 . S
C217 C222 1.245 1_545 S
C217 C223 1.428 . S
C218 C221 1.260 1_565 S
C218 C222 1.477 . S
C218 H236 0.932 . S
C219 C220 1.384 . S
C219 C221 1.479 . S
C219 H237 0.929 . S
C220 C217 1.424 . S
C220 C219 1.384 . S
C220 H238 0.928 . S
C221 C218 1.260 1_545 S
C221 C219 1.479 . S
C222 C217 1.245 1_565 S
C222 C218 1.477 . S
C222 H239 0.932 . S
C223 U206 2.882 . S
C223 C217 1.428 . S
C223 O226 1.301 . S
C223 O227 1.282 . S
O224 U206 2.441 . S
O224 C210 1.249 . S
O225 U206 2.420 . S
O225 C210 1.202 . S
O226 U206 2.455 . S
O226 C223 1.301 . S
O227 U206 2.449 . S
O227 C223 1.282 . S
H228 C201 0.931 . S
H229 C203 0.929 . S
H230 C204 0.930 . S
H231 C205 0.931 . S
H232 C212 0.928 1_545 S
H233 C213 0.930 . S
H234 C214 0.929 . S
H235 C216 0.930 . S
H236 C218 0.932 . S
H237 C219 0.929 . S
H238 C220 0.928 . S
H239 C222 0.932 . S
C240 C241 1.264 . S
C240 C245 1.479 . S
C240 C250 1.465 . S
C241 C240 1.264 . S
C241 C243 1.339 . S
C241 H268 0.931 . S
C242 C243 1.395 . S
C242 C244 1.320 . S
C243 C241 1.339 . S
C243 C242 1.395 . S
C243 H269 0.929 . S
C244 C242 1.320 . S
C244 C245 1.405 . S
C244 H270 0.930 . S
C245 C240 1.479 . S
C245 C244 1.405 . S
C245 H271 0.931 . S
U246 O247 2.454 . S
U246 O248 2.458 . S
U246 C249 2.984 . S
U246 C250 2.847 . S
U246 C263 2.882 . S
U246 O264 2.441 . S
U246 O265 2.420 . S
U246 O266 2.455 . S
U246 O267 2.449 . S
O247 U246 2.454 . S
O247 C249 1.353 . S
O248 U246 2.458 . S
O248 C249 1.286 . S
C249 U246 2.984 . S
C249 O247 1.353 . S
C249 O248 1.286 . S
C249 C251 1.363 . S
C250 C240 1.465 . S
C250 U246 2.847 . S
C250 O264 1.249 . S
C250 O265 1.202 . S
C251 C249 1.363 . S
C251 C253 1.408 . S
C251 C256 1.342 . S
C252 C253 1.310 . S
C252 C255 1.461 . S
C252 H272 0.932 . S
C253 C251 1.408 . S
C253 C252 1.310 . S
C253 H273 0.930 . S
C254 C255 1.474 . S
C254 C256 1.285 . S
C254 H274 0.929 . S
C255 C252 1.461 . S
C255 C254 1.474 . S
C256 C251 1.342 . S
C256 C254 1.285 . S
C256 H275 0.930 . S
C257 C260 1.424 . S
C257 C262 1.245 . S
C257 C263 1.428 . S
C258 C261 1.260 . S
C258 C262 1.477 . S
C258 H276 0.932 . S
C259 C260 1.384 . S
C259 C261 1.479 . S
C259 H277 0.929 . S
C260 C257 1.424 . S
C260 C259 1.384 . S
C260 H278 0.928 . S
C261 C258 1.260 . S
C261 C259 1.479 . S
C262 C257 1.245 . S
C262 C258 1.477 . S
C262 H279 0.932 . S
C263 U246 2.882 . S
C263 C257 1.428 . S
C263 O266 1.301 . S
C263 O267 1.282 . S
O264 U246 2.441 . S
O264 C250 1.249 . S
O265 U246 2.420 . S
O265 C250 1.202 . S
O266 U246 2.455 . S
O266 C263 1.301 . S
O267 U246 2.449 . S
O267 C263 1.282 . S
H268 C241 0.931 . S
H269 C243 0.929 . S
H270 C244 0.930 . S
H271 C245 0.931 . S
H272 C252 0.932 . S
H273 C253 0.930 . S
H274 C254 0.929 . S
H275 C256 0.930 . S
H276 C258 0.932 . S
H277 C259 0.929 . S
H278 C260 0.928 . S
H279 C262 0.932 . S
C280 C281 1.264 . S
C280 C285 1.479 . S
C280 C290 1.465 . S
C281 C280 1.264 . S
C281 C283 1.339 . S
C281 H308 0.931 . S
C282 C283 1.395 . S
C282 C284 1.320 . S
C283 C281 1.339 . S
C283 C282 1.395 . S
C283 H309 0.929 . S
C284 C282 1.320 . S
C284 C285 1.405 . S
C284 H310 0.930 . S
C285 C280 1.479 . S
C285 C284 1.405 . S
C285 H311 0.931 . S
U286 O287 2.454 . S
U286 O288 2.458 . S
U286 C289 2.984 . S
U286 C290 2.847 . S
U286 C303 2.882 . S
U286 O304 2.441 . S
U286 O305 2.420 . S
U286 O306 2.455 . S
U286 O307 2.449 . S
O287 U286 2.454 . S
O287 C289 1.353 . S
O288 U286 2.458 . S
O288 C289 1.286 . S
C289 U286 2.984 . S
C289 O287 1.353 . S
C289 O288 1.286 . S
C289 C291 1.363 . S
C290 C280 1.465 . S
C290 U286 2.847 . S
C290 O304 1.249 . S
C290 O305 1.202 . S
C291 C289 1.363 . S
C291 C293 1.408 . S
C291 C296 1.342 1_655 S
C292 C293 1.309 1_455 S
C292 C295 1.466 . S
C292 H312 0.928 1_455 S
C293 C291 1.408 . S
C293 C292 1.309 1_655 S
C293 H313 0.930 . S
C294 C295 1.474 . S
C294 C296 1.285 . S
C294 H314 0.929 . S
C295 C292 1.466 . S
C295 C294 1.474 . S
C296 C291 1.342 1_455 S
C296 C294 1.285 . S
C296 H315 0.930 . S
C297 C300 1.424 . S
C297 C302 1.245 1_655 S
C297 C303 1.428 . S
C298 C301 1.260 1_455 S
C298 C302 1.477 . S
C298 H316 0.932 . S
C299 C300 1.384 . S
C299 C301 1.479 . S
C299 H317 0.929 . S
C300 C297 1.424 . S
C300 C299 1.384 . S
C300 H318 0.928 . S
C301 C298 1.260 1_655 S
C301 C299 1.479 . S
C302 C297 1.245 1_455 S
C302 C298 1.477 . S
C302 H319 0.932 . S
C303 U286 2.882 . S
C303 C297 1.428 . S
C303 O306 1.301 . S
C303 O307 1.282 . S
O304 U286 2.441 . S
O304 C290 1.249 . S
O305 U286 2.420 . S
O305 C290 1.202 . S
O306 U286 2.455 . S
O306 C303 1.301 . S
O307 U286 2.449 . S
O307 C303 1.282 . S
H308 C281 0.931 . S
H309 C283 0.929 . S
H310 C284 0.930 . S
H311 C285 0.931 . S
H312 C292 0.928 1_655 S
H313 C293 0.930 . S
H314 C294 0.929 . S
H315 C296 0.930 . S
H316 C298 0.932 . S
H317 C299 0.929 . S
H318 C300 0.928 . S
H319 C302 0.932 . S
C320 C321 1.264 . S
C320 C325 1.479 . S
C320 C330 1.465 . S
C321 C320 1.264 . S
C321 C323 1.339 . S
C321 H348 0.931 . S
C322 C323 1.395 . S
C322 C324 1.320 . S
C323 C321 1.339 . S
C323 C322 1.395 . S
C323 H349 0.929 . S
C324 C322 1.320 . S
C324 C325 1.405 . S
C324 H350 0.930 . S
C325 C320 1.479 . S
C325 C324 1.405 . S
C325 H351 0.931 . S
U326 O327 2.454 . S
U326 O328 2.458 . S
U326 C329 2.984 . S
U326 C330 2.847 . S
U326 C343 2.882 . S
U326 O344 2.441 . S
U326 O345 2.420 . S
U326 O346 2.455 . S
U326 O347 2.449 . S
O327 U326 2.454 . S
O327 C329 1.353 . S
O328 U326 2.458 . S
O328 C329 1.286 . S
C329 U326 2.984 . S
C329 O327 1.353 . S
C329 O328 1.286 . S
C329 C331 1.363 . S
C330 C320 1.465 . S
C330 U326 2.847 . S
C330 O344 1.249 . S
C330 O345 1.202 . S
C331 C329 1.363 . S
C331 C333 1.408 . S
C331 C336 1.342 1_565 S
C332 C333 1.306 1_545 S
C332 C335 1.463 . S
C332 H352 0.935 1_545 S
C333 C331 1.408 . S
C333 C332 1.306 1_565 S
C333 H353 0.930 . S
C334 C335 1.474 . S
C334 C336 1.285 . S
C334 H354 0.929 . S
C335 C332 1.463 . S
C335 C334 1.474 . S
C336 C331 1.342 1_545 S
C336 C334 1.285 . S
C336 H355 0.930 . S
C337 C340 1.424 . S
C337 C342 1.245 1_565 S
C337 C343 1.428 . S
C338 C341 1.260 1_545 S
C338 C342 1.477 . S
C338 H356 0.932 . S
C339 C340 1.384 . S
C339 C341 1.479 . S
C339 H357 0.929 . S
C340 C337 1.424 . S
C340 C339 1.384 . S
C340 H358 0.928 . S
C341 C338 1.260 1_565 S
C341 C339 1.479 . S
C342 C337 1.245 1_545 S
C342 C338 1.477 . S
C342 H359 0.932 . S
C343 U326 2.882 . S
C343 C337 1.428 . S
C343 O346 1.301 . S
C343 O347 1.282 . S
O344 U326 2.441 . S
O344 C330 1.249 . S
O345 U326 2.420 . S
O345 C330 1.202 . S
O346 U326 2.455 . S
O346 C343 1.301 . S
O347 U326 2.449 . S
O347 C343 1.282 . S
H348 C321 0.931 . S
H349 C323 0.929 . S
H350 C324 0.930 . S
H351 C325 0.931 . S
H352 C332 0.935 1_565 S
H353 C333 0.930 . S
H354 C334 0.929 . S
H355 C336 0.930 . S
H356 C338 0.932 . S
H357 C339 0.929 . S
H358 C340 0.928 . S
H359 C342 0.932 . S
C360 C361 1.264 . S
C360 C365 1.479 . S
C360 C370 1.465 . S
C361 C360 1.264 . S
C361 C363 1.339 . S
C361 H388 0.931 . S
C362 C363 1.395 . S
C362 C364 1.320 . S
C363 C361 1.339 . S
C363 C362 1.395 . S
C363 H389 0.929 . S
C364 C362 1.320 . S
C364 C365 1.405 . S
C364 H390 0.930 . S
C365 C360 1.479 . S
C365 C364 1.405 . S
C365 H391 0.931 . S
U366 O367 2.454 . S
U366 O368 2.458 . S
U366 C369 2.984 . S
U366 C370 2.847 . S
U366 C383 2.882 . S
U366 O384 2.441 . S
U366 O385 2.420 . S
U366 O386 2.455 . S
U366 O387 2.449 . S
O367 U366 2.454 . S
O367 C369 1.353 . S
O368 U366 2.458 . S
O368 C369 1.286 . S
C369 U366 2.984 . S
C369 O367 1.353 . S
C369 O368 1.286 . S
C369 C371 1.363 . S
C370 C360 1.465 . S
C370 U366 2.847 . S
C370 O384 1.249 . S
C370 O385 1.202 . S
C371 C369 1.363 . S
C371 C373 1.408 . S
C371 C376 1.342 . S
C372 C373 1.310 . S
C372 C375 1.461 . S
C372 H392 0.932 . S
C373 C371 1.408 . S
C373 C372 1.310 . S
C373 H393 0.930 . S
C374 C375 1.474 . S
C374 C376 1.285 . S
C374 H394 0.929 . S
C375 C372 1.461 . S
C375 C374 1.474 . S
C376 C371 1.342 . S
C376 C374 1.285 . S
C376 H395 0.930 . S
C377 C380 1.424 . S
C377 C382 1.245 . S
C377 C383 1.428 . S
C378 C381 1.260 . S
C378 C382 1.477 . S
C378 H396 0.932 . S
C379 C380 1.384 . S
C379 C381 1.479 . S
C379 H397 0.929 . S
C380 C377 1.424 . S
C380 C379 1.384 . S
C380 H398 0.928 . S
C381 C378 1.260 . S
C381 C379 1.479 . S
C382 C377 1.245 . S
C382 C378 1.477 . S
C382 H399 0.932 . S
C383 U366 2.882 . S
C383 C377 1.428 . S
C383 O386 1.301 . S
C383 O387 1.282 . S
O384 U366 2.441 . S
O384 C370 1.249 . S
O385 U366 2.420 . S
O385 C370 1.202 . S
O386 U366 2.455 . S
O386 C383 1.301 . S
O387 U366 2.449 . S
O387 C383 1.282 . S
H388 C361 0.931 . S
H389 C363 0.929 . S
H390 C364 0.930 . S
H391 C365 0.931 . S
H392 C372 0.932 . S
H393 C373 0.930 . S
H394 C374 0.929 . S
H395 C376 0.930 . S
H396 C378 0.932 . S
H397 C379 0.929 . S
H398 C380 0.928 . S
H399 C382 0.932 . S
C400 C401 1.264 . S
C400 C405 1.479 . S
C400 C410 1.465 . S
C401 C400 1.264 . S
C401 C403 1.339 . S
C401 H428 0.931 . S
C402 C403 1.395 . S
C402 C404 1.320 . S
C403 C401 1.339 . S
C403 C402 1.395 . S
C403 H429 0.929 . S
C404 C402 1.320 . S
C404 C405 1.405 . S
C404 H430 0.930 . S
C405 C400 1.479 . S
C405 C404 1.405 . S
C405 H431 0.931 . S
U406 O407 2.454 . S
U406 O408 2.458 . S
U406 C409 2.984 . S
U406 C410 2.847 . S
U406 C423 2.882 . S
U406 O424 2.441 . S
U406 O425 2.420 . S
U406 O426 2.455 . S
U406 O427 2.449 . S
O407 U406 2.454 . S
O407 C409 1.353 . S
O408 U406 2.458 . S
O408 C409 1.286 . S
C409 U406 2.984 . S
C409 O407 1.353 . S
C409 O408 1.286 . S
C409 C411 1.363 . S
C410 C400 1.465 . S
C410 U406 2.847 . S
C410 O424 1.249 . S
C410 O425 1.202 . S
C411 C409 1.363 . S
C411 C413 1.408 . S
C411 C416 1.342 1_455 S
C412 C413 1.309 1_655 S
C412 C415 1.466 . S
C412 H432 0.928 1_655 S
C413 C411 1.408 . S
C413 C412 1.309 1_455 S
C413 H433 0.930 . S
C414 C415 1.474 . S
C414 C416 1.285 . S
C414 H434 0.929 . S
C415 C412 1.466 . S
C415 C414 1.474 . S
C416 C411 1.342 1_655 S
C416 C414 1.285 . S
C416 H435 0.930 . S
C417 C420 1.424 . S
C417 C422 1.245 1_455 S
C417 C423 1.428 . S
C418 C421 1.260 1_655 S
C418 C422 1.477 . S
C418 H436 0.932 . S
C419 C420 1.384 . S
C419 C421 1.479 . S
C419 H437 0.929 . S
C420 C417 1.424 . S
C420 C419 1.384 . S
C420 H438 0.928 . S
C421 C418 1.260 1_455 S
C421 C419 1.479 . S
C422 C417 1.245 1_655 S
C422 C418 1.477 . S
C422 H439 0.932 . S
C423 U406 2.882 . S
C423 C417 1.428 . S
C423 O426 1.301 . S
C423 O427 1.282 . S
O424 U406 2.441 . S
O424 C410 1.249 . S
O425 U406 2.420 . S
O425 C410 1.202 . S
O426 U406 2.455 . S
O426 C423 1.301 . S
O427 U406 2.449 . S
O427 C423 1.282 . S
H428 C401 0.931 . S
H429 C403 0.929 . S
H430 C404 0.930 . S
H431 C405 0.931 . S
H432 C412 0.928 1_455 S
H433 C413 0.930 . S
H434 C414 0.929 . S
H435 C416 0.930 . S
H436 C418 0.932 . S
H437 C419 0.929 . S
H438 C420 0.928 . S
H439 C422 0.932 . S
C440 C441 1.264 . S
C440 C445 1.479 . S
C440 C450 1.465 . S
C441 C440 1.264 . S
C441 C443 1.339 . S
C441 H468 0.931 . S
C442 C443 1.395 . S
C442 C444 1.320 . S
C443 C441 1.339 . S
C443 C442 1.395 . S
C443 H469 0.929 . S
C444 C442 1.320 . S
C444 C445 1.405 . S
C444 H470 0.930 . S
C445 C440 1.479 . S
C445 C444 1.405 . S
C445 H471 0.931 . S
U446 O447 2.454 . S
U446 O448 2.458 . S
U446 C449 2.984 . S
U446 C450 2.847 . S
U446 C463 2.882 . S
U446 O464 2.441 . S
U446 O465 2.420 . S
U446 O466 2.455 . S
U446 O467 2.449 . S
O447 U446 2.454 . S
O447 C449 1.353 . S
O448 U446 2.458 . S
O448 C449 1.286 . S
C449 U446 2.984 . S
C449 O447 1.353 . S
C449 O448 1.286 . S
C449 C451 1.363 . S
C450 C440 1.465 . S
C450 U446 2.847 . S
C450 O464 1.249 . S
C450 O465 1.202 . S
C451 C449 1.363 . S
C451 C453 1.408 . S
C451 C456 1.342 1_545 S
C452 C453 1.306 1_565 S
C452 C455 1.463 . S
C452 H472 0.935 1_565 S
C453 C451 1.408 . S
C453 C452 1.306 1_545 S
C453 H473 0.930 . S
C454 C455 1.474 . S
C454 C456 1.285 . S
C454 H474 0.929 . S
C455 C452 1.463 . S
C455 C454 1.474 . S
C456 C451 1.342 1_565 S
C456 C454 1.285 . S
C456 H475 0.930 . S
C457 C460 1.424 . S
C457 C462 1.245 1_545 S
C457 C463 1.428 . S
C458 C461 1.260 1_565 S
C458 C462 1.477 . S
C458 H476 0.932 . S
C459 C460 1.384 . S
C459 C461 1.479 . S
C459 H477 0.929 . S
C460 C457 1.424 . S
C460 C459 1.384 . S
C460 H478 0.928 . S
C461 C458 1.260 1_545 S
C461 C459 1.479 . S
C462 C457 1.245 1_565 S
C462 C458 1.477 . S
C462 H479 0.932 . S
C463 U446 2.882 . S
C463 C457 1.428 . S
C463 O466 1.301 . S
C463 O467 1.282 . S
O464 U446 2.441 . S
O464 C450 1.249 . S
O465 U446 2.420 . S
O465 C450 1.202 . S
O466 U446 2.455 . S
O466 C463 1.301 . S
O467 U446 2.449 . S
O467 C463 1.282 . S
H468 C441 0.931 . S
H469 C443 0.929 . S
H470 C444 0.930 . S
H471 C445 0.931 . S
H472 C452 0.935 1_545 S
H473 C453 0.930 . S
H474 C454 0.929 . S
H475 C456 0.930 . S
H476 C458 0.932 . S
H477 C459 0.929 . S
H478 C460 0.928 . S
H479 C462 0.932 . S
C480 C481 1.387 . S
C480 H484 0.950 . S
C480 C489 1.390 . S
C481 C480 1.387 . S
C481 C483 1.387 . S
H482 C489 0.950 . S
C483 C481 1.387 . S
C483 C485 1.390 . S
C483 H487 0.950 . S
H484 C480 0.950 . S
C485 C483 1.390 . S
C485 C486 1.387 . S
C485 H488 0.950 . S
C486 C485 1.387 . S
C486 C489 1.387 . S
H487 C483 0.950 . S
H488 C485 0.950 . S
C489 C480 1.390 . S
C489 H482 0.950 . S
C489 C486 1.387 . S
C490 C491 1.387 . S
C490 H494 0.950 . S
C490 C499 1.390 . S
C491 C490 1.387 . S
C491 C493 1.387 . S
H492 C499 0.950 . S
C493 C491 1.387 . S
C493 C495 1.390 . S
C493 H497 0.950 . S
H494 C490 0.950 . S
C495 C493 1.390 . S
C495 C496 1.387 . S
C495 H498 0.950 . S
C496 C495 1.387 . S
C496 C499 1.387 . S
H497 C493 0.950 . S
H498 C495 0.950 . S
C499 C490 1.390 . S
C499 H492 0.950 . S
C499 C496 1.387 . S
C500 C501 1.387 . S
C500 H504 0.950 . S
C500 C509 1.390 . S
C501 C500 1.387 . S
C501 C503 1.387 . S
H502 C509 0.950 . S
C503 C501 1.387 . S
C503 C505 1.390 . S
C503 H507 0.950 . S
H504 C500 0.950 . S
C505 C503 1.390 . S
C505 C506 1.387 . S
C505 H508 0.950 . S
C506 C505 1.387 . S
C506 C509 1.387 . S
H507 C503 0.950 . S
H508 C505 0.950 . S
C509 C500 1.390 . S
C509 H502 0.950 . S
C509 C506 1.387 . S
C510 C511 1.387 . S
C510 H514 0.950 . S
C510 C519 1.390 . S
C511 C510 1.387 . S
C511 C513 1.387 . S
H512 C519 0.950 . S
C513 C511 1.387 . S
C513 C515 1.390 . S
C513 H517 0.950 . S
H514 C510 0.950 . S
C515 C513 1.390 . S
C515 C516 1.387 . S
C515 H518 0.950 . S
C516 C515 1.387 . S
C516 C519 1.387 . S
H517 C513 0.950 . S
H518 C515 0.950 . S
C519 C510 1.390 . S
C519 H512 0.950 . S
C519 C516 1.387 . S
C520 C521 1.387 . S
C520 H524 0.950 . S
C520 C529 1.390 . S
C521 C520 1.387 . S
C521 C523 1.387 . S
H522 C529 0.950 . S
C523 C521 1.387 . S
C523 C525 1.390 . S
C523 H527 0.950 . S
H524 C520 0.950 . S
C525 C523 1.390 . S
C525 C526 1.387 . S
C525 H528 0.950 . S
C526 C525 1.387 . S
C526 C529 1.387 . S
H527 C523 0.950 . S
H528 C525 0.950 . S
C529 C520 1.390 . S
C529 H522 0.950 . S
C529 C526 1.387 . S
C530 C531 1.387 . S
C530 H534 0.950 . S
C530 C539 1.390 . S
C531 C530 1.387 . S
C531 C533 1.387 . S
H532 C539 0.950 . S
C533 C531 1.387 . S
C533 C535 1.390 . S
C533 H537 0.950 . S
H534 C530 0.950 . S
C535 C533 1.390 . S
C535 C536 1.387 . S
C535 H538 0.950 . S
C536 C535 1.387 . S
C536 C539 1.387 . S
H537 C533 0.950 . S
H538 C535 0.950 . S
C539 C530 1.390 . S
C539 H532 0.950 . S
C539 C536 1.387 . S
C540 C541 1.387 . S
C540 H544 0.950 . S
C540 C549 1.390 . S
C541 C540 1.387 . S
C541 C543 1.387 . S
H542 C549 0.950 . S
C543 C541 1.387 . S
C543 C545 1.390 . S
C543 H547 0.950 . S
H544 C540 0.950 . S
C545 C543 1.390 . S
C545 C546 1.387 . S
C545 H548 0.950 . S
C546 C545 1.387 . S
C546 C549 1.387 . S
H547 C543 0.950 . S
H548 C545 0.950 . S
C549 C540 1.390 . S
C549 H542 0.950 . S
C549 C546 1.387 . S
C550 C551 1.387 . S
C550 H554 0.950 . S
C550 C559 1.390 . S
C551 C550 1.387 . S
C551 C553 1.387 . S
H552 C559 0.950 . S
C553 C551 1.387 . S
C553 C555 1.390 . S
C553 H557 0.950 . S
H554 C550 0.950 . S
C555 C553 1.390 . S
C555 C556 1.387 . S
C555 H558 0.950 . S
C556 C555 1.387 . S
C556 C559 1.387 . S
H557 C553 0.950 . S
H558 C555 0.950 . S
C559 C550 1.390 . S
C559 H552 0.950 . S
C559 C556 1.387 . S
C560 C561 1.387 . S
C560 H564 0.950 . S
C560 C569 1.390 . S
C561 C560 1.387 . S
C561 C563 1.387 1_565 S
H562 C569 0.950 . S
C563 C561 1.387 1_545 S
C563 C565 1.390 . S
C563 H567 0.950 . S
H564 C560 0.950 . S
C565 C563 1.390 . S
C565 C566 1.387 1_545 S
C565 H568 0.950 . S
C566 C565 1.387 1_565 S
C566 C569 1.387 . S
H567 C563 0.950 . S
H568 C565 0.950 . S
C569 C560 1.390 . S
C569 H562 0.950 . S
C569 C566 1.387 . S
C570 C571 1.387 . S
C570 H574 0.950 . S
C570 C579 1.390 . S
C571 C570 1.387 . S
C571 C573 1.387 . S
H572 C579 0.950 . S
C573 C571 1.387 . S
C573 C575 1.390 . S
C573 H577 0.950 . S
H574 C570 0.950 . S
C575 C573 1.390 . S
C575 C576 1.387 . S
C575 H578 0.950 . S
C576 C575 1.387 . S
C576 C579 1.387 . S
H577 C573 0.950 . S
H578 C575 0.950 . S
C579 C570 1.390 . S
C579 H572 0.950 . S
C579 C576 1.387 . S
C580 C581 1.387 . S
C580 H584 0.950 . S
C580 C589 1.390 . S
C581 C580 1.387 . S
C581 C583 1.387 . S
H582 C589 0.950 . S
C583 C581 1.387 . S
C583 C585 1.390 . S
C583 H587 0.952 1_455 S
H584 C580 0.950 . S
C585 C583 1.390 . S
C585 C586 1.387 . S
C585 H588 0.946 . S
C586 C585 1.387 . S
C586 C589 1.387 . S
H587 C583 0.952 1_655 S
H588 C585 0.946 . S
C589 C580 1.390 . S
C589 H582 0.950 . S
C589 C586 1.387 . S
C590 C591 1.387 . S
C590 H594 0.950 . S
C590 C599 1.390 . S
C591 C590 1.387 . S
C591 C593 1.387 1_545 S
H592 C599 0.950 . S
C593 C591 1.387 1_565 S
C593 C595 1.390 . S
C593 H597 0.950 . S
H594 C590 0.950 . S
C595 C593 1.390 . S
C595 C596 1.387 1_565 S
C595 H598 0.950 . S
C596 C595 1.387 1_545 S
C596 C599 1.387 . S
H597 C593 0.950 . S
H598 C595 0.950 . S
C599 C590 1.390 . S
C599 H592 0.950 . S
C599 C596 1.387 . S
C600 C601 1.387 . S
C600 H604 0.950 . S
C600 C609 1.390 1_554 S
C601 C600 1.387 . S
C601 C603 1.387 . S
H602 C609 0.950 . S
C603 C601 1.387 . S
C603 C605 1.390 1_554 S
C603 H607 0.950 . S
H604 C600 0.950 . S
C605 C603 1.390 1_556 S
C605 C606 1.387 . S
C605 H608 0.950 . S
C606 C605 1.387 . S
C606 C609 1.387 . S
H607 C603 0.950 . S
H608 C605 0.950 . S
C609 C600 1.390 1_556 S
C609 H602 0.950 . S
C609 C606 1.387 . S
C610 C611 1.387 . S
C610 H614 0.950 . S
C610 C619 1.390 . S
C611 C610 1.387 . S
C611 C613 1.387 1_655 S
H612 C619 0.950 . S
C613 C611 1.387 1_455 S
C613 C615 1.390 . S
C613 H617 0.950 . S
H614 C610 0.950 . S
C615 C613 1.390 . S
C615 C616 1.387 . S
C615 H618 0.950 . S
C616 C615 1.387 . S
C616 C619 1.387 1_455 S
H617 C613 0.950 . S
H618 C615 0.950 . S
C619 C610 1.390 . S
C619 H612 0.950 . S
C619 C616 1.387 1_655 S
C620 C621 1.387 . S
C620 H624 0.950 . S
C620 C629 1.390 1_566 S
C621 C620 1.387 . S
C621 C623 1.387 . S
H622 C629 0.950 . S
C623 C621 1.387 . S
C623 C625 1.390 1_566 S
C623 H627 0.950 . S
H624 C620 0.950 . S
C625 C623 1.390 1_544 S
C625 C626 1.387 . S
C625 H628 0.950 . S
C626 C625 1.387 . S
C626 C629 1.387 . S
H627 C623 0.950 . S
H628 C625 0.950 . S
C629 C620 1.390 1_544 S
C629 H622 0.950 . S
C629 C626 1.387 . S
C630 C631 1.387 . S
C630 H634 0.950 . S
C630 C639 1.390 . S
C631 C630 1.387 . S
C631 C633 1.387 . S
H632 C639 0.950 . S
C633 C631 1.387 . S
C633 C635 1.390 . S
C633 H637 0.950 . S
H634 C630 0.950 . S
C635 C633 1.390 . S
C635 C636 1.387 . S
C635 H638 0.950 . S
C636 C635 1.387 . S
C636 C639 1.387 . S
H637 C633 0.950 . S
H638 C635 0.950 . S
C639 C630 1.390 . S
C639 H632 0.950 . S
C639 C636 1.387 . S
C640 C641 1.387 . S
C640 H644 0.950 . S
C640 C649 1.390 1_654 S
C641 C640 1.387 . S
C641 C643 1.387 . S
H642 C649 0.950 . S
C643 C641 1.387 . S
C643 C645 1.390 1_654 S
C643 H647 0.950 . S
H644 C640 0.950 . S
C645 C643 1.390 1_456 S
C645 C646 1.387 . S
C645 H648 0.950 . S
C646 C645 1.387 . S
C646 C649 1.387 . S
H647 C643 0.950 . S
H648 C645 0.950 . S
C649 C640 1.390 1_456 S
C649 H642 0.950 . S
C649 C646 1.387 . S
C650 C651 1.387 . S
C650 H654 0.950 . S
C650 C659 1.390 1_545 S
C651 C650 1.387 . S
C651 C653 1.387 . S
H652 C659 0.950 . S
C653 C651 1.387 . S
C653 C655 1.390 1_545 S
C653 H657 0.950 . S
H654 C650 0.950 . S
C655 C653 1.390 1_565 S
C655 C656 1.387 . S
C655 H658 0.950 . S
C656 C655 1.387 . S
C656 C659 1.387 . S
H657 C653 0.950 . S
H658 C655 0.950 . S
C659 C650 1.390 1_565 S
C659 H652 0.950 . S
C659 C656 1.387 . S
C481 C2 2.078 . S
C486 C402 2.078 . S
C491 C442 2.077 . S
C496 C42 2.077 . S
C501 C242 2.076 . S
C506 C82 2.076 . S
C511 C122 2.077 . S
C516 C282 2.077 . S
C521 C322 2.078 . S
C526 C162 2.078 . S
C531 C362 2.076 . S
C536 C202 2.076 . S
C541 C21 2.194 . S
C546 C261 2.194 . S
C551 C61 2.194 . S
C556 C301 2.194 . S
C561 C101 2.193 . S
C566 C341 2.193 . S
C571 C381 2.194 . S
C576 C141 2.194 . S
C581 C181 2.194 . S
C586 C421 2.194 . S
C591 C221 2.194 . S
C596 C461 2.194 . S
C601 C15 2.265 . S
C606 C375 2.264 . S
C611 C415 2.265 . S
C616 C55 2.266 . S
C621 C455 2.266 . S
C626 C95 2.267 . S
C631 C135 2.267 . S
C636 C255 2.267 . S
C641 C175 2.264 . S
C646 C295 2.264 . S
C651 C335 2.266 . S
C656 C215 2.267 . S
