# Generated by pormake.
# Topology vmb, (5)-cn, num edge types: 1
# Building blocks:
#     Node 0, Type 0, BuildingBlock: XOMCOT_clean_sbu_0, # of connection points: 5
#     Node 1, Type 0, BuildingBlock: XOMCOT_clean_sbu_0, # of connection points: 5
#     Node 2, Type 0, BuildingBlock: XOMCOT_clean_sbu_0, # of connection points: 5
#     Node 3, Type 0, BuildingBlock: XOMCOT_clean_sbu_0, # of connection points: 5
#     Node 4, Type 0, BuildingBlock: XOMCOT_clean_sbu_0, # of connection points: 5
#     Node 5, Type 0, BuildingBlock: XOMCOT_clean_sbu_0, # of connection points: 5
#     Node 6, Type 0, BuildingBlock: XOMCOT_clean_sbu_0, # of connection points: 5
#     Node 7, Type 0, BuildingBlock: XOMCOT_clean_sbu_0, # of connection points: 5
#     Edge 8, Type (0, 0), BuildingBlock: TEMPAE_clean_linker_10, # of connection points: 2
#     Edge 9, Type (0, 0), BuildingBlock: TEMPAE_clean_linker_10, # of connection points: 2
#     Edge 10, Type (0, 0), BuildingBlock: TEMPAE_clean_linker_10, # of connection points: 2
#     Edge 11, Type (0, 0), BuildingBlock: TEMPAE_clean_linker_10, # of connection points: 2
#     Edge 12, Type (0, 0), BuildingBlock: TEMPAE_clean_linker_10, # of connection points: 2
#     Edge 13, Type (0, 0), BuildingBlock: TEMPAE_clean_linker_10, # of connection points: 2
#     Edge 14, Type (0, 0), BuildingBlock: TEMPAE_clean_linker_10, # of connection points: 2
#     Edge 15, Type (0, 0), BuildingBlock: TEMPAE_clean_linker_10, # of connection points: 2
#     Edge 16, Type (0, 0), BuildingBlock: TEMPAE_clean_linker_10, # of connection points: 2
#     Edge 17, Type (0, 0), BuildingBlock: TEMPAE_clean_linker_10, # of connection points: 2
#     Edge 18, Type (0, 0), BuildingBlock: TEMPAE_clean_linker_10, # of connection points: 2
#     Edge 19, Type (0, 0), BuildingBlock: TEMPAE_clean_linker_10, # of connection points: 2
#     Edge 20, Type (0, 0), BuildingBlock: TEMPAE_clean_linker_10, # of connection points: 2
#     Edge 21, Type (0, 0), BuildingBlock: TEMPAE_clean_linker_10, # of connection points: 2
#     Edge 22, Type (0, 0), BuildingBlock: TEMPAE_clean_linker_10, # of connection points: 2
#     Edge 23, Type (0, 0), BuildingBlock: TEMPAE_clean_linker_10, # of connection points: 2
#     Edge 24, Type (0, 0), BuildingBlock: TEMPAE_clean_linker_10, # of connection points: 2
#     Edge 25, Type (0, 0), BuildingBlock: TEMPAE_clean_linker_10, # of connection points: 2
#     Edge 26, Type (0, 0), BuildingBlock: TEMPAE_clean_linker_10, # of connection points: 2
#     Edge 27, Type (0, 0), BuildingBlock: TEMPAE_clean_linker_10, # of connection points: 2
# Relax obj value: 0.128
# Max RMSD: 0.193
# Mean RMSD: 0.193
data_MOF--net-vmb--node1-XOMCOT_clean_sbu_0--edge1-TEMPAE_clean_linker_10
_symmetry_space_group_name_H-M    P1
_symmetry_Int_Tables_number       1
_symmetry_cell_setting            triclinic
loop_
_symmetry_equiv_pos_as_xyz
'x, y, z'
_cell_length_a     37.906121
_cell_length_b     43.432844
_cell_length_c     30.294468
_cell_angle_alpha  89.968105
_cell_angle_beta   117.39408
_cell_angle_gamma 89.902753
loop_
_atom_site_label
_atom_site_type_symbol
_atom_site_fract_x
_atom_site_fract_y
_atom_site_fract_z
_atom_type_partial_charge
Co0 Co 0.29051 0.08535 0.432 0.0
C1 C 0.37357 0.06443 0.4639 0.0
C2 C 0.36732 0.11231 0.44554 0.0
C3 C 0.40514 0.10302 0.45549 0.0
N4 N 0.34771 0.08835 0.45256 0.0
N5 N 0.4088 0.0728 0.46662 0.0
H6 H 0.36619 0.04078 0.46673 0.0
H7 H 0.35442 0.13458 0.43105 0.0
C8 C 0.30952 0.14759 0.47727 0.0
O9 O 0.34018 0.13473 0.51458 0.0
N10 N 0.23389 0.08068 0.41011 0.0
C11 C 0.21859 0.05754 0.42552 0.0
C12 C 0.17804 0.05843 0.39942 0.0
C13 C 0.20206 0.09525 0.37387 0.0
N14 N 0.16742 0.08186 0.36654 0.0
C15 C 0.32034 0.05264 0.5251 0.0
C16 C 0.27967 0.08766 0.5632 0.0
C17 C 0.30048 0.06156 0.58926 0.0
C18 C 0.32161 0.04424 0.57024 0.0
C19 C 0.27895 0.09509 0.51818 0.0
N20 N 0.29949 0.07794 0.49973 0.0
H21 H 0.33369 0.03744 0.50914 0.0
H22 H 0.25976 0.11368 0.49672 0.0
H23 H 0.23589 0.04044 0.45298 0.0
H24 H 0.20425 0.11409 0.35187 0.0
O25 O 0.29177 0.04363 0.41164 0.0
O26 O 0.28126 0.08521 0.36422 0.0
O27 O 0.28637 0.13123 0.44007 0.0
C28 C 0.28578 0.05547 0.36926 0.0
H29 H 0.42723 0.11687 0.45152 0.0
H30 H 0.15785 0.04251 0.40363 0.0
H31 H 0.26262 0.10148 0.57636 0.0
H32 H 0.3369 0.02325 0.58837 0.0
Co33 Co 0.75933 0.08205 0.07086 0.0
C34 C 0.67568 0.06136 0.03677 0.0
C35 C 0.68166 0.10949 0.05322 0.0
C36 C 0.64326 0.10079 0.04102 0.0
N37 N 0.70185 0.08502 0.04864 0.0
N38 N 0.63973 0.07045 0.031 0.0
H39 H 0.68309 0.03751 0.03532 0.0
H40 H 0.69433 0.13183 0.06723 0.0
C41 C 0.74069 0.1439 0.02376 0.0
O42 O 0.71081 0.13084 0.98587 0.0
N43 N 0.81619 0.07805 0.09439 0.0
C44 C 0.83342 0.05506 0.08132 0.0
C45 C 0.87368 0.05986 0.10324 0.0
C46 C 0.84646 0.09625 0.12534 0.0
N47 N 0.88192 0.08567 0.13084 0.0
C48 C 0.73106 0.04851 0.97918 0.0
C49 C 0.77264 0.08226 0.94108 0.0
C50 C 0.75164 0.05617 0.91549 0.0
C51 C 0.73018 0.03945 0.93461 0.0
C52 C 0.77275 0.0905 0.98552 0.0
N53 N 0.75171 0.07395 0.0039 0.0
H54 H 0.71738 0.03372 -0.00478 0.0
H55 H 0.79163 0.10928 0.00653 0.0
H56 H 0.81765 0.03611 0.05716 0.0
H57 H 0.84266 0.11674 0.14305 0.0
O58 O 0.75808 0.04045 0.09139 0.0
O59 O 0.76735 0.08204 0.13833 0.0
O60 O 0.76311 0.12783 0.06188 0.0
C61 C 0.763 0.05228 0.13325 0.0
H62 H 0.62046 0.11519 0.04243 0.0
H63 H 0.89548 0.04512 0.1001 0.0
H64 H 0.79 0.09559 0.92782 0.0
H65 H 0.71477 0.01847 0.9169 0.0
Co66 Co 0.75718 0.92324 0.56387 0.0
C67 C 0.67386 0.9409 0.53096 0.0
C68 C 0.68603 0.89611 0.5648 0.0
C69 C 0.64813 0.90493 0.55537 0.0
N70 N 0.70208 0.91875 0.54951 0.0
N71 N 0.64059 0.93315 0.53416 0.0
H72 H 0.6786 0.96316 0.51854 0.0
H73 H 0.70151 0.87543 0.58385 0.0
C74 C 0.78221 0.86512 0.53384 0.0
O75 O 0.80311 0.88227 0.51879 0.0
N76 N 0.81311 0.92887 0.57974 0.0
C77 C 0.82831 0.94737 0.55684 0.0
C78 C 0.869 0.9468 0.58261 0.0
C79 C 0.84544 0.91726 0.6195 0.0
N80 N 0.87988 0.92804 0.62213 0.0
C81 C 0.73773 0.96447 0.48221 0.0
C82 C 0.71474 0.9203 0.40861 0.0
C83 C 0.71887 0.95085 0.39736 0.0
C84 C 0.72842 0.97335 0.43397 0.0
C85 C 0.72328 0.91259 0.45721 0.0
N86 N 0.73863 0.93406 0.49429 0.0
H87 H 0.747 0.98201 0.5105 0.0
H88 H 0.71802 0.88926 0.46464 0.0
H89 H 0.81183 0.96094 0.52403 0.0
H90 H 0.84378 0.90212 0.64686 0.0
O91 O 0.75727 0.96362 0.58989 0.0
O92 O 0.7727 0.92041 0.63393 0.0
O93 O 0.76071 0.8778 0.55128 0.0
C94 C 0.76781 0.95012 0.63239 0.0
H95 H 0.62815 0.89197 0.56477 0.0
H96 H 0.88913 0.95955 0.5732 0.0
H97 H 0.70589 0.90256 0.38042 0.0
H98 H 0.73127 0.99731 0.42617 0.0
Co99 Co 0.28664 0.92386 0.93092 0.0
C100 C 0.36857 0.94526 0.95798 0.0
C101 C 0.36297 0.89675 0.94378 0.0
C102 C 0.40052 0.90584 0.95252 0.0
N103 N 0.34284 0.92147 0.9474 0.0
N104 N 0.40393 0.93633 0.96165 0.0
H105 H 0.36112 0.96903 0.96014 0.0
H106 H 0.35112 0.87379 0.93388 0.0
C107 C 0.27585 0.85664 0.91208 0.0
O108 O 0.26663 0.86211 0.86539 0.0
N109 N 0.23074 0.92707 0.91429 0.0
C110 C 0.21569 0.94769 0.93435 0.0
C111 C 0.17512 0.94492 0.91186 0.0
C112 C 0.19875 0.91238 0.87881 0.0
N113 N 0.16426 0.92275 0.87689 0.0
C114 C 0.31798 0.9593 0.02077 0.0
C115 C 0.29444 0.9193 0.07322 0.0
C116 C 0.3113 0.94757 0.09453 0.0
C117 C 0.32389 0.96746 0.06817 0.0
C118 C 0.28879 0.91217 0.02569 0.0
N119 N 0.30058 0.93198 -2e-05 0.0
H120 H 0.32513 0.97588 -0.00027 0.0
H121 H 0.27238 0.89162 0.00865 0.0
H122 H 0.2329 0.9644 0.96244 0.0
H123 H 0.20058 0.895 0.85439 0.0
O124 O 0.28458 0.96541 0.90757 0.0
O125 O 0.27318 0.92332 0.86156 0.0
O126 O 0.2858 0.87866 0.94319 0.0
C127 C 0.27625 0.95313 0.86477 0.0
H128 H 0.4234 0.89126 0.95171 0.0
H129 H 0.15499 0.95924 0.91916 0.0
H130 H 0.284 0.90339 0.09218 0.0
H131 H 0.33594 0.98995 0.08267 0.0
Co132 Co 0.78443 0.58274 0.41578 0.0
C133 C 0.86944 0.56529 0.45743 0.0
C134 C 0.86327 0.61421 0.45551 0.0
C135 C 0.90257 0.60703 0.46954 0.0
N136 N 0.84243 0.58793 0.4493 0.0
N137 N 0.90616 0.57617 0.47017 0.0
H138 H 0.86214 0.54124 0.45031 0.0
H139 H 0.85053 0.63706 0.44694 0.0
C140 C 0.7948 0.6373 0.47958 0.0
O141 O 0.82137 0.6209 0.51637 0.0
N142 N 0.72744 0.576 0.38102 0.0
C143 C 0.71128 0.54819 0.37959 0.0
C144 C 0.67116 0.54981 0.34996 0.0
C145 C 0.69655 0.59445 0.35175 0.0
N146 N 0.66169 0.57871 0.33206 0.0
C147 C 0.80466 0.53756 0.49293 0.0
C148 C 0.75384 0.55972 0.52793 0.0
C149 C 0.77523 0.53262 0.54811 0.0
C150 C 0.80104 0.52162 0.53046 0.0
C151 C 0.75858 0.57508 0.49067 0.0
N152 N 0.78446 0.56438 0.47428 0.0
H153 H 0.82182 0.52712 0.47706 0.0
H154 H 0.74011 0.59494 0.47351 0.0
H155 H 0.72782 0.52784 0.39851 0.0
H156 H 0.69959 0.61833 0.34387 0.0
O157 O 0.79131 0.54603 0.38558 0.0
O158 O 0.78468 0.59325 0.35419 0.0
O159 O 0.77643 0.62549 0.43614 0.0
C160 C 0.79082 0.56399 0.35097 0.0
H161 H 0.92597 0.62321 0.47517 0.0
H162 H 0.65039 0.53101 0.34198 0.0
H163 H 0.73324 0.56873 0.54034 0.0
H164 H 0.81701 0.50014 0.54403 0.0
Co165 Co 0.25237 0.58373 0.05751 0.0
C166 C 0.1676 0.56401 0.01788 0.0
C167 C 0.17776 0.60915 0.04944 0.0
C168 C 0.14015 0.59998 0.03989 0.0
N169 N 0.19504 0.58684 0.0349 0.0
N170 N 0.13388 0.57152 0.02018 0.0
H171 H 0.17328 0.54107 0.00929 0.0
H172 H 0.19258 0.62978 0.06918 0.0
C173 C 0.23047 0.64467 0.00893 0.0
O174 O 0.19892 0.63116 0.97421 0.0
N175 N 0.30929 0.58009 0.08207 0.0
C176 C 0.32771 0.55713 0.07073 0.0
C177 C 0.36797 0.5623 0.09455 0.0
C178 C 0.33871 0.59873 0.11351 0.0
N179 N 0.37476 0.58836 0.12121 0.0
C180 C 0.22896 0.54707 0.9696 0.0
C181 C 0.26636 0.58296 0.92832 0.0
C182 C 0.2491 0.55512 0.90565 0.0
C183 C 0.22968 0.53728 0.92626 0.0
C184 C 0.26485 0.59193 0.97148 0.0
N185 N 0.24565 0.5744 -0.0087 0.0
H186 H 0.2179 0.53133 0.9876 0.0
H187 H 0.28167 0.61197 -0.00932 0.0
H188 H 0.31283 0.53784 0.04687 0.0
H189 H 0.33391 0.61917 0.13046 0.0
O190 O 0.25075 0.54262 0.07953 0.0
O191 O 0.25966 0.58505 0.12467 0.0
O192 O 0.2555 0.62921 0.0462 0.0
C193 C 0.25469 0.55532 0.12036 0.0
H194 H 0.11979 0.61265 0.04906 0.0
H195 H 0.39072 0.54773 0.09335 0.0
H196 H 0.28232 0.59709 0.91399 0.0
H197 H 0.21745 0.51496 0.91093 0.0
Co198 Co 0.2553 0.43118 0.55024 0.0
C199 C 0.17433 0.45061 0.52648 0.0
C200 C 0.18499 0.40421 0.55408 0.0
C201 C 0.14781 0.41335 0.54711 0.0
N202 N 0.20145 0.42766 0.54107 0.0
N203 N 0.14121 0.44259 0.52981 0.0
H204 H 0.17965 0.47328 0.51598 0.0
H205 H 0.19949 0.38246 0.56917 0.0
C206 C 0.27114 0.37473 0.50677 0.0
O207 O 0.28592 0.39299 0.48497 0.0
N208 N 0.31028 0.43554 0.56072 0.0
C209 C 0.32365 0.44798 0.53027 0.0
C210 C 0.3644 0.44719 0.55321 0.0
C211 C 0.34382 0.42736 0.60203 0.0
N212 N 0.37728 0.43444 0.59856 0.0
C213 C 0.23677 0.47432 0.47147 0.0
C214 C 0.19599 0.43377 0.39427 0.0
C215 C 0.20431 0.46342 0.38377 0.0
C216 C 0.22312 0.48435 0.42272 0.0
C217 C 0.20943 0.42496 0.44365 0.0
N218 N 0.23293 0.44422 0.48142 0.0
H219 H 0.25304 0.49024 0.50133 0.0
H220 H 0.2018 0.40236 0.45135 0.0
H221 H 0.30577 0.45605 0.4929 0.0
H222 H 0.34384 0.41693 0.63445 0.0
O223 O 0.25896 0.4708 0.58009 0.0
O224 O 0.27456 0.42633 0.62084 0.0
O225 O 0.25583 0.38618 0.53301 0.0
C226 C 0.27095 0.4561 0.6219 0.0
H227 H 0.1275 0.39964 0.55489 0.0
H228 H 0.38303 0.455 0.53708 0.0
H229 H 0.18037 0.41736 0.36472 0.0
H230 H 0.2297 0.50759 0.41578 0.0
Co231 Co 0.78395 0.42088 0.91919 0.0
C232 C 0.86356 0.44311 0.94005 0.0
C233 C 0.86086 0.39377 0.93544 0.0
C234 C 0.8988 0.40305 0.94614 0.0
N235 N 0.83893 0.41895 0.93191 0.0
N236 N 0.90039 0.4341 0.94891 0.0
H237 H 0.85482 0.46681 0.94045 0.0
H238 H 0.85013 0.37034 0.93066 0.0
C239 C 0.77867 0.36921 0.98206 0.0
O240 O 0.76594 0.38885 0.00435 0.0
N241 N 0.72785 0.42327 0.90568 0.0
C242 C 0.71337 0.43179 0.9372 0.0
C243 C 0.67269 0.43213 0.91256 0.0
C244 C 0.69478 0.41853 0.86178 0.0
N245 N 0.6608 0.42407 0.86494 0.0
C246 C 0.78823 0.47145 0.98046 0.0
C247 C 0.84023 0.44504 0.07026 0.0
C248 C 0.82232 0.47332 0.06959 0.0
C249 C 0.79749 0.48722 0.02421 0.0
C250 C 0.83004 0.42998 0.02532 0.0
N251 N 0.80175 0.44217 0.98176 0.0
H252 H 0.76765 0.48179 0.94558 0.0
H253 H 0.84351 0.40797 0.02567 0.0
H254 H 0.73059 0.4377 0.97587 0.0
H255 H 0.69535 0.41208 0.82766 0.0
O256 O 0.77641 0.45639 0.87846 0.0
O257 O 0.76777 0.40805 0.85158 0.0
O258 O 0.78869 0.3785 0.94934 0.0
C259 C 0.76754 0.43733 0.84189 0.0
H260 H 0.92318 0.38811 0.95088 0.0
H261 H 0.65339 0.43797 0.92877 0.0
H262 H 0.86005 0.43404 0.10505 0.0
H263 H 0.7836 0.50929 0.02278 0.0
C264 C 0.2769 0.95355 0.14698 0.0
C265 C 0.31102 0.95796 0.14082 0.0
C266 C 0.27378 0.96653 0.18725 0.0
C267 C 0.30544 0.9845 0.22192 0.0
C268 C 0.34078 0.9878 0.21739 0.0
C269 C 0.34313 0.97447 0.17671 0.0
C270 C 0.23568 0.96249 0.19104 0.0
C271 C 0.37523 0.00669 0.25402 0.0
C272 C 0.2779 0.04907 0.28379 0.0
C273 C 0.28844 0.03653 0.33077 0.0
C274 C 0.28334 0.03227 0.24801 0.0
C275 C 0.29989 1.00232 0.2598 0.0
C276 C 0.31036 0.98943 0.30709 0.0
C277 C 0.30434 0.00671 0.34209 0.0
C278 C 0.27171 0.04668 0.19777 0.0
C279 C 0.32829 0.95762 0.32085 0.0
H280 H 0.25172 0.94122 0.11896 0.0
H281 H 0.3697 0.97759 0.17227 0.0
H282 H 0.24219 0.95514 0.22911 0.0
H283 H 0.21972 0.98484 0.18372 0.0
H284 H 0.21563 0.94528 0.16409 0.0
H285 H 0.40196 1.00435 0.24815 0.0
H286 H 0.36655 0.03134 0.2501 0.0
H287 H 0.38314 0.99972 0.2927 0.0
H288 H 0.26571 0.07217 0.27508 0.0
H289 H 0.313 0.99712 0.3787 0.0
H290 H 0.24925 0.03215 0.16803 0.0
H291 H 0.29799 0.04801 0.19088 0.0
H292 H 0.25925 0.07021 0.19466 0.0
H293 H 0.30783 0.94041 0.29448 0.0
H294 H 0.33465 0.95094 0.35921 0.0
H295 H 0.35641 0.95659 0.31796 0.0
C296 C 0.73545 0.00636 0.15506 0.0
C297 C 0.75821 0.03331 0.1702 0.0
C298 C 0.72647 0.98977 0.18823 0.0
C299 C 0.74141 1.00012 0.23779 0.0
C300 C 0.76562 0.02673 0.2537 0.0
C301 C 0.77332 0.04328 0.21941 0.0
C302 C 0.69999 0.96184 0.1699 0.0
C303 C 0.78278 0.03802 0.3067 0.0
C304 C 0.6934 0.98183 0.3197 0.0
C305 C 0.71891 0.95897 0.35038 0.0
C306 C 0.69872 0.99402 0.28037 0.0
C307 C 0.73111 0.98368 0.27305 0.0
C308 C 0.75574 0.95951 0.30256 0.0
C309 C 0.74902 0.94718 0.3407 0.0
C310 C 0.67112 0.01911 0.24849 0.0
C311 C 0.79097 0.94831 0.29642 0.0
H312 H 0.72326 0.99889 0.11671 0.0
H313 H 0.79092 0.06414 0.23097 0.0
H314 H 0.71511 0.94145 0.19296 0.0
H315 H 0.67254 0.96577 0.17361 0.0
H316 H 0.69154 0.95648 0.13044 0.0
H317 H 0.803 0.05794 0.31372 0.0
H318 H 0.75841 0.04504 0.31519 0.0
H319 H 0.79948 0.0192 0.33282 0.0
H320 H 0.67025 0.99088 0.32765 0.0
H321 H 0.76903 0.92977 0.36518 0.0
H322 H 0.66089 0.01417 0.20851 0.0
H323 H 0.68723 0.04136 0.25691 0.0
H324 H 0.64471 0.02175 0.25497 0.0
H325 H 0.78212 0.94315 0.25687 0.0
H326 H 0.80469 0.92737 0.31894 0.0
H327 H 0.81378 0.9667 0.3082 0.0
C328 C 0.76534 0.99953 0.67229 0.0
C329 C 0.77093 0.96753 0.67562 0.0
C330 C 0.76413 0.01611 0.71116 0.0
C331 C 0.76847 1.0002 0.75409 0.0
C332 C 0.77552 0.96807 0.7584 0.0
C333 C 0.77676 0.95208 0.71902 0.0
C334 C 0.75689 0.05043 0.70561 0.0
C335 C 0.78033 0.95042 0.80383 0.0
C336 C 0.79265 0.04309 0.87314 0.0
C337 C 0.75525 0.04452 0.87195 0.0
C338 C 0.79727 0.02944 0.83429 0.0
C339 C 0.76372 0.01685 0.79357 0.0
C340 C 0.7257 0.01902 0.79143 0.0
C341 C 0.72192 0.03288 0.83074 0.0
C342 C 0.83822 0.02755 0.83761 0.0
C343 C 0.68923 0.00593 0.74831 0.0
H344 H 0.76098 0.01157 0.63879 0.0
H345 H 0.7811 0.92734 0.72168 0.0
H346 H 0.72776 0.05579 0.7042 0.0
H347 H 0.77996 0.06266 0.73824 0.0
H348 H 0.75691 0.0596 0.67138 0.0
H349 H 0.78767 0.92578 0.80239 0.0
H350 H 0.80416 0.96084 0.83791 0.0
H351 H 0.7524 0.95173 0.80712 0.0
H352 H 0.81859 0.05165 0.90533 0.0
H353 H 0.69296 0.03426 0.82961 0.0
H354 H 0.83778 0.0369 0.80327 0.0
H355 H 0.84767 1.00311 0.84082 0.0
H356 H 0.86071 0.04036 0.87007 0.0
H357 H 0.68583 0.01578 0.71277 0.0
H358 H 0.66165 0.01061 0.75145 0.0
H359 H 0.69259 0.98064 0.74647 0.0
C360 C 0.28147 1.00357 0.82917 0.0
C361 C 0.27448 0.9718 0.82334 0.0
C362 C 0.28445 0.02098 0.7921 0.0
C363 C 0.28045 0.00611 0.74854 0.0
C364 C 0.27199 0.97425 0.74173 0.0
C365 C 0.26901 0.95746 0.77927 0.0
C366 C 0.29311 0.05501 0.80018 0.0
C367 C 0.26744 0.95768 0.69556 0.0
C368 C 0.25887 0.05007 0.63129 0.0
C369 C 0.29641 0.05042 0.63277 0.0
C370 C 0.25351 0.03684 0.66988 0.0
C371 C 0.28645 0.02348 0.71058 0.0
C372 C 0.32468 0.02471 0.71322 0.0
C373 C 0.32921 0.03823 0.67415 0.0
C374 C 0.21234 0.03593 0.66597 0.0
C375 C 0.36048 0.0107 0.7563 0.0
H376 H 0.28568 0.01473 0.86324 0.0
H377 H 0.26355 0.93289 0.77463 0.0
H378 H 0.32277 0.05985 0.8029 0.0
H379 H 0.271 0.06832 0.76806 0.0
H380 H 0.29271 0.06342 0.83458 0.0
H381 H 0.25936 0.93307 0.69525 0.0
H382 H 0.24422 0.96902 0.66187 0.0
H383 H 0.29571 0.95888 0.69306 0.0
H384 H 0.23328 0.05902 0.59898 0.0
H385 H 0.3583 0.03877 0.67553 0.0
H386 H 0.21291 0.04445 0.7008 0.0
H387 H 0.20161 0.0118 0.66073 0.0
H388 H 0.19072 0.04994 0.63437 0.0
H389 H 0.36339 0.01979 0.79203 0.0
H390 H 0.38849 0.01537 0.75424 0.0
H391 H 0.35661 0.9854 0.75669 0.0
C392 C 0.79402 0.56963 0.2711 0.0
C393 C 0.80057 0.55187 0.31272 0.0
C394 C 0.80273 0.55779 0.23422 0.0
C395 C 0.81852 0.52766 0.23962 0.0
C396 C 0.82699 0.51026 0.28279 0.0
C397 C 0.81771 0.52256 0.3188 0.0
C398 C 0.79333 0.57691 0.18848 0.0
C399 C 0.84415 0.47815 0.28992 0.0
C400 C 0.78892 0.48392 0.12061 0.0
C401 C 0.82339 0.48583 0.11495 0.0
C402 C 0.78731 0.49712 0.16157 0.0
C403 C 0.821 0.51281 0.19733 0.0
C404 C 0.85627 0.5144 0.19218 0.0
C405 C 0.85711 0.50064 0.15076 0.0
C406 C 0.74936 0.49459 0.16617 0.0
C407 C 0.89257 0.53111 0.22972 0.0
H408 H 0.78122 0.59246 0.26675 0.0
H409 H 0.82367 0.50905 0.35161 0.0
H410 H 0.81911 0.5773 0.18053 0.0
H411 H 0.76808 0.56644 0.15585 0.0
H412 H 0.78526 0.60099 0.19246 0.0
H413 H 0.85261 0.46898 0.32773 0.0
H414 H 0.82194 0.46242 0.26225 0.0
H415 H 0.87075 0.47789 0.28364 0.0
H416 H 0.76304 0.47223 0.09253 0.0
H417 H 0.88358 0.50202 0.14571 0.0
H418 H 0.73728 0.5179 0.16601 0.0
H419 H 0.75549 0.48351 0.202 0.0
H420 H 0.72622 0.481 0.13547 0.0
H421 H 0.88551 0.55586 0.23027 0.0
H422 H 0.91809 0.52909 0.22132 0.0
H423 H 0.9016 0.52189 0.26758 0.0
C424 C 0.21359 0.51731 0.13624 0.0
C425 C 0.24559 0.5379 0.15509 0.0
C426 C 0.20075 0.50314 0.16776 0.0
C427 C 0.22156 0.50886 0.21939 0.0
C428 C 0.25466 0.52902 0.23869 0.0
C429 C 0.26578 0.54387 0.20598 0.0
C430 C 0.16434 0.48285 0.14573 0.0
C431 C 0.2781 0.5351 0.2938 0.0
C432 C 0.1808 0.49857 0.31079 0.0
C433 C 0.19973 0.47124 0.33425 0.0
C434 C 0.18476 0.50986 0.26999 0.0
C435 C 0.20921 0.49379 0.25378 0.0
C436 C 0.22602 0.46506 0.27521 0.0
C437 C 0.22068 0.45394 0.31503 0.0
C438 C 0.16527 0.54006 0.24676 0.0
C439 C 0.25269 0.44749 0.25932 0.0
H440 H 0.19747 0.51334 0.09651 0.0
H441 H 0.29028 0.56005 0.22011 0.0
H442 H 0.17185 0.4594 0.16198 0.0
H443 H 0.14132 0.49225 0.155 0.0
H444 H 0.1514 0.48101 0.10464 0.0
H445 H 0.30419 0.55015 0.30279 0.0
H446 H 0.25878 0.54629 0.30764 0.0
H447 H 0.2887 0.51304 0.31424 0.0
H448 H 0.16457 0.5118 0.32589 0.0
H449 H 0.23567 0.43295 0.33378 0.0
H450 H 0.15158 0.53875 0.20561 0.0
H451 H 0.18804 0.55848 0.25891 0.0
H452 H 0.14206 0.54677 0.25766 0.0
H453 H 0.2387 0.44543 0.21827 0.0
H454 H 0.25974 0.42403 0.2758 0.0
H455 H 0.28096 0.46026 0.27128 0.0
C456 C 0.22302 0.52971 0.82285 0.0
C457 C 0.25479 0.54314 0.86382 0.0
C458 C 0.2287 0.5165 0.78446 0.0
C459 C 0.2671 0.51667 0.78749 0.0
C460 C 0.29918 0.53056 0.82845 0.0
C461 C 0.29262 0.54368 0.86623 0.0
C462 C 0.19373 0.50205 0.74098 0.0
C463 C 0.34051 0.53103 0.8328 0.0
C464 C 0.28364 0.45559 0.71015 0.0
C465 C 0.27594 0.47222 0.66704 0.0
C466 C 0.28253 0.47011 0.75075 0.0
C467 C 0.27354 0.50192 0.74785 0.0
C468 C 0.26789 0.51913 0.70549 0.0
C469 C 0.26919 0.50403 0.66549 0.0
C470 C 0.28898 0.45114 0.79565 0.0
C471 C 0.25846 0.55314 0.70134 0.0
H472 H 0.19376 0.52948 0.82096 0.0
H473 H 0.31736 0.55361 0.89838 0.0
H474 H 0.18946 0.51294 0.70572 0.0
H475 H 0.1996 0.47722 0.73868 0.0
H476 H 0.1657 0.50436 0.74395 0.0
H477 H 0.36191 0.5437 0.86627 0.0
H478 H 0.35145 0.50711 0.83472 0.0
H479 H 0.33998 0.54193 0.79938 0.0
H480 H 0.289 0.431 0.71149 0.0
H481 H 0.26342 0.51701 0.63226 0.0
H482 H 0.2608 0.44974 0.79834 0.0
H483 H 0.3113 0.46225 0.83018 0.0
H484 H 0.29911 0.42737 0.79386 0.0
H485 H 0.22874 0.55669 0.69926 0.0
H486 H 0.25843 0.56366 0.66789 0.0
H487 H 0.28033 0.56548 0.73478 0.0
C488 C 0.75691 0.42851 0.75523 0.0
C489 C 0.75977 0.4488 0.79263 0.0
C490 C 0.75483 0.43979 0.71071 0.0
C491 C 0.75577 0.47198 0.70402 0.0
C492 C 0.75633 0.4925 0.74053 0.0
C493 C 0.75825 0.48063 0.7844 0.0
C494 C 0.75382 0.41734 0.67213 0.0
C495 C 0.75729 0.527 0.73462 0.0
C496 C 0.80321 0.50495 0.62902 0.0
C497 C 0.76992 0.51537 0.58651 0.0
C498 C 0.79885 0.48959 0.66678 0.0
C499 C 0.76025 0.48446 0.66153 0.0
C500 C 0.72645 0.49394 0.61786 0.0
C501 C 0.73171 0.50948 0.58081 0.0
C502 C 0.8356 0.48003 0.71316 0.0
C503 C 0.6849 0.48854 0.61101 0.0
H504 H 0.75786 0.40387 0.76146 0.0
H505 H 0.76001 0.49641 0.81306 0.0
H506 H 0.73072 0.42412 0.63456 0.0
H507 H 0.78283 0.41767 0.67145 0.0
H508 H 0.7479 0.39343 0.67993 0.0
H509 H 0.75448 0.53972 0.76466 0.0
H510 H 0.78574 0.53367 0.73517 0.0
H511 H 0.73293 0.53443 0.69832 0.0
H512 H 0.83273 0.50966 0.6334 0.0
H513 H 0.70597 0.51711 0.54742 0.0
H514 H 0.83395 0.4553 0.72117 0.0
H515 H 0.83752 0.49332 0.74546 0.0
H516 H 0.86328 0.48393 0.70991 0.0
H517 H 0.68113 0.4641 0.61864 0.0
H518 H 0.66187 0.49449 0.57288 0.0
H519 H 0.67979 0.50276 0.63795 0.0
C520 C 0.58662 0.95161 0.55208 0.0
C521 C 0.6063 0.95251 0.52257 0.0
C522 C 0.55422 0.97119 0.54243 0.0
C523 C 0.54056 0.99194 0.50172 0.0
C524 C 0.55993 0.9926 0.47131 0.0
C525 C 0.59273 0.97313 0.48238 0.0
C526 C 0.53501 0.97004 0.57637 0.0
C527 C 0.54601 0.0139 0.42705 0.0
C528 C 0.43496 0.02327 0.45352 0.0
C529 C 0.44173 0.05284 0.47443 0.0
C530 C 0.46675 1.00348 0.46121 0.0
C531 C 0.5064 0.01319 0.49146 0.0
C532 C 0.51334 0.04309 0.51259 0.0
C533 C 0.48097 0.06264 0.50334 0.0
C534 C 0.45785 0.97216 0.43693 0.0
C535 C 0.55498 0.05427 0.54566 0.0
H536 H 0.59727 0.9361 0.58361 0.0
H537 H 0.60759 0.97376 0.45922 0.0
H538 H 0.53695 0.99297 0.59348 0.0
H539 H 0.50302 0.9644 0.55466 0.0
H540 H 0.54917 0.95272 0.6065 0.0
H541 H 0.56338 0.01096 0.40616 0.0
H542 H 0.51418 0.00964 0.40143 0.0
H543 H 0.5486 0.03818 0.43947 0.0
H544 H 0.40469 0.01578 0.43044 0.0
H545 H 0.48624 0.08541 0.51972 0.0
H546 H 0.46882 0.95393 0.46585 0.0
H547 H 0.47365 0.96925 0.41415 0.0
H548 H 0.42555 0.96862 0.41274 0.0
H549 H 0.56973 0.03872 0.57822 0.0
H550 H 0.5554 0.07808 0.55929 0.0
H551 H 0.57284 0.05371 0.52519 0.0
C552 C 0.45913 0.95173 0.94439 0.0
C553 C 0.4376 0.95569 0.9712 0.0
C554 C 0.49173 0.97072 0.95298 0.0
C555 C 0.50384 0.9937 -0.00968 0.0
C556 C 0.48238 0.99753 0.01786 0.0
C557 C 0.44921 0.9788 0.00746 0.0
C558 C 0.51308 0.9663 0.92192 0.0
C559 C 0.49476 0.02117 0.05879 0.0
C560 C 0.61077 0.02242 0.04393 0.0
C561 C 0.60581 0.05124 0.02087 0.0
C562 C 0.57788 1.00362 0.03468 0.0
C563 C 0.53909 0.01356 0.00077 0.0
C564 C 0.53405 0.04253 0.97697 0.0
C565 C 0.5674 0.06117 0.98784 0.0
C566 C 0.58458 0.97336 0.06193 0.0
C567 C 0.49344 0.0537 0.9396 0.0
H568 H 0.44991 0.93411 0.91596 0.0
H569 H 0.43275 0.9817 0.02844 0.0
H570 H 0.51315 0.98821 0.90309 0.0
H571 H 0.54454 0.9599 0.94612 0.0
H572 H 0.49918 0.94814 0.89326 0.0
H573 H 0.47547 0.02083 0.07744 0.0
H574 H 0.52591 0.01686 0.08707 0.0
H575 H 0.49368 0.04455 0.04348 0.0
H576 H 0.64039 0.01491 0.07007 0.0
H577 H 0.56362 0.08334 0.96976 0.0
H578 H 0.57037 0.95429 0.0353 0.0
H579 H 0.57063 0.9742 0.08706 0.0
H580 H 0.61662 0.96798 0.08436 0.0
H581 H 0.47959 0.03668 0.9091 0.0
H582 H 0.49466 0.07634 0.92327 0.0
H583 H 0.4738 0.05586 0.95753 0.0
C584 C 0.97883 0.5671 0.51182 0.0
C585 C 0.94049 0.55826 0.4769 0.0
C586 C 1.01221 0.54891 0.5204 0.0
C587 C 1.00721 0.52138 0.49299 0.0
C588 C 0.96864 0.51283 0.45672 0.0
C589 C 0.93585 0.53127 0.44926 0.0
C590 C 0.05275 0.55887 0.55945 0.0
C591 C 0.96188 0.48398 0.42607 0.0
C592 C 0.09652 0.48609 0.48528 0.0
C593 C 0.10741 0.4621 0.52025 0.0
C594 C 0.06417 0.50558 0.47615 0.0
C595 C 0.04211 0.50118 0.50277 0.0
C596 C 0.05298 0.47706 0.5382 0.0
C597 C 0.08534 0.45781 0.54639 0.0
C598 C 0.05345 0.5308 0.43776 0.0
C599 C 0.03046 0.47163 0.56761 0.0
H600 H 0.98253 0.58786 0.53332 0.0
H601 H 0.90646 0.52464 0.42137 0.0
H602 H 0.06535 0.54113 0.58909 0.0
H603 H 0.0733 0.56103 0.54281 0.0
H604 H 0.05181 0.58121 0.57671 0.0
H605 H 0.93027 0.48117 0.39812 0.0
H606 H 0.98037 0.48447 0.40641 0.0
H607 H 0.9711 0.46351 0.45078 0.0
H608 H 0.11304 0.48939 0.46448 0.0
H609 H 0.0938 0.4397 0.57398 0.0
H610 H 0.05441 0.5535 0.45504 0.0
H611 H 0.02263 0.52745 0.40796 0.0
H612 H 0.07377 0.53141 0.42058 0.0
H613 H 0.0311 0.49271 0.58865 0.0
H614 H 0.04292 0.45219 0.59424 0.0
H615 H 0.99884 0.46663 0.54198 0.0
C616 C 0.08761 0.53031 0.971 0.0
C617 C 0.10067 0.55149 0.01026 0.0
C618 C 0.05513 0.5108 0.96063 0.0
C619 C 0.03551 0.51213 -0.0093 0.0
C620 C 0.04905 0.53312 0.03096 0.0
C621 C 0.08125 0.55264 0.04004 0.0
C622 C 0.04155 0.48895 0.91716 0.0
C623 C 0.02955 0.53493 0.06454 0.0
C624 C 0.92892 0.4831 0.93838 0.0
C625 C 0.93425 0.45355 0.95928 0.0
C626 C 0.96155 0.50226 0.94799 0.0
C627 C 1.00059 0.49183 0.97976 0.0
C628 C 1.00619 0.46207 0.00118 0.0
C629 C 0.97302 0.44325 -0.00955 0.0
C630 C 0.95422 0.53366 0.92394 0.0
C631 C 0.04723 0.4502 0.03577 0.0
H632 H 0.10246 0.52943 0.94784 0.0
H633 H 0.09169 0.56851 0.07103 0.0
H634 H 0.04281 0.4649 0.93013 0.0
H635 H 1.01017 0.4939 0.89031 0.0
H636 H 0.05997 0.49068 0.89744 0.0
H637 H 0.0441 0.55204 0.09482 0.0
H638 H 0.99779 0.5413 0.04254 0.0
H639 H 0.03059 0.51207 0.08146 0.0
H640 H 0.89915 0.49107 0.91378 0.0
H641 H 0.97737 0.42062 0.00719 0.0
H642 H 0.97031 0.53575 0.90137 0.0
H643 H 0.96595 0.55175 0.95297 0.0
H644 H 0.92216 0.53819 0.89959 0.0
H645 H 0.06591 0.44984 0.01635 0.0
H646 H 0.04658 0.42664 0.04965 0.0
H647 H 0.06186 0.46584 0.06812 0.0
C648 C 0.10014 0.06395 0.30923 0.0
C649 C 0.12723 0.08828 0.32915 0.0
C650 C 0.06005 0.06922 0.2763 0.0
C651 C 0.04625 0.09973 0.26213 0.0
C652 C 0.07356 0.12451 0.28086 0.0
C653 C 0.11384 0.11849 0.31419 0.0
C654 C 0.03236 0.04196 0.25698 0.0
C655 C 0.0601 0.15731 0.26635 0.0
C656 C 0.94919 0.09769 0.1434 0.0
C657 C 0.92139 0.09711 0.16183 0.0
C658 C 0.98987 0.10182 0.1752 0.0
C659 C 1.00325 0.10483 0.227 0.0
C660 C 0.97488 0.10681 0.24526 0.0
C661 C 0.93416 0.10311 0.21231 0.0
C662 C 1.01873 0.10011 0.15375 0.0
C663 C 0.98772 0.10992 0.30013 0.0
H664 H 0.11039 0.0405 0.3196 0.0
H665 H 0.13458 0.13737 0.32959 0.0
H666 H 1.00769 0.04444 0.26683 0.0
H667 H 1.01898 0.04103 0.21584 0.0
H668 H 0.04773 0.01974 0.27224 0.0
H669 H 0.08529 0.17379 0.28162 0.0
H670 H 0.04447 0.15962 0.22527 0.0
H671 H 0.03862 0.16376 0.28019 0.0
H672 H 0.93919 0.09331 0.10422 0.0
H673 H 0.91269 0.10249 0.22659 0.0
H674 H 0.03335 0.07719 0.16203 0.0
H675 H 0.04235 0.11772 0.17082 0.0
H676 H 1.00364 0.10342 0.11278 0.0
H677 H 1.00034 0.08769 0.31888 0.0
H678 H 0.9625 0.11616 0.30753 0.0
H679 H 1.01128 0.12759 0.317 0.0
C680 C 0.09338 0.91876 0.85622 0.0
C681 C 0.1237 0.91501 0.84225 0.0
C682 C 0.05312 0.91655 0.82136 0.0
C683 C 0.0426 0.91011 0.77104 0.0
C684 C 0.07304 0.904 0.75733 0.0
C685 C 0.11324 0.90657 0.79307 0.0
C686 C 0.02188 0.92324 0.83788 0.0
C687 C 0.06318 0.89665 0.70424 0.0
C688 C 0.93297 0.89424 0.68279 0.0
C689 C 0.9201 0.92318 0.66051 0.0
C690 C 0.97292 0.8893 0.7182 0.0
C691 C 1.00037 0.91403 0.73218 0.0
C692 C 0.98719 0.94336 0.71022 0.0
C693 C 0.94745 0.94748 0.67466 0.0
C694 C 0.98586 0.85763 0.7403 0.0
C695 C 1.01503 0.97058 0.72453 0.0
H696 H 0.10117 0.92453 0.89438 0.0
H697 H 0.13635 0.90361 0.78185 0.0
H698 H 1.00738 0.94562 0.82207 0.0
H699 H 0.99843 0.90535 0.82389 0.0
H700 H 0.03463 0.92442 0.879 0.0
H701 H 0.08948 0.88803 0.70095 0.0
H702 H 0.03926 0.87916 0.68872 0.0
H703 H 0.05208 0.91774 0.68117 0.0
H704 H 0.912 0.87536 0.67161 0.0
H705 H 0.93755 0.97 0.65814 0.0
H706 H 0.99779 0.85862 0.78127 0.0
H707 H 1.01019 0.84921 0.73271 0.0
H708 H 0.96111 0.84076 0.72515 0.0
H709 H 0.02724 0.97517 0.76494 0.0
H710 H 1.00012 0.99182 0.70387 0.0
H711 H 0.0405 0.96541 0.71716 0.0
C712 C 0.43661 0.6136 0.13427 0.0
C713 C 0.41348 0.60005 0.15405 0.0
C714 C 0.47772 0.61782 0.16367 0.0
C715 C 0.49622 0.60732 0.2136 0.0
C716 C 0.47227 0.59572 0.23459 0.0
C717 C 0.4311 0.59232 0.2045 0.0
C718 C 0.50176 0.63097 0.13997 0.0
C719 C 0.49055 0.58399 0.2874 0.0
C720 C 0.59648 0.56794 0.26179 0.0
C721 C 0.62206 0.58867 0.29767 0.0
C722 C 0.55595 0.5743 0.23335 0.0
C723 C 0.54025 0.60246 0.24021 0.0
C724 C 0.56633 0.62448 0.27411 0.0
C725 C 0.60706 0.61728 0.30266 0.0
C726 C 0.52961 0.5501 0.19754 0.0
C727 C 0.55098 0.65501 0.2818 0.0
H728 H 0.4228 0.61923 0.09501 0.0
H729 H 0.41311 0.58138 0.2193 0.0
H730 H 0.52515 0.64665 0.166 0.0
H731 H 0.51675 0.61197 0.13062 0.0
H732 H 0.48276 0.64375 0.10524 0.0
H733 H 0.46782 0.57976 0.3002 0.0
H734 H 0.5064 0.56204 0.28988 0.0
H735 H 0.51266 0.60061 0.313 0.0
H736 H 0.60814 0.54608 0.25707 0.0
H737 H 0.6267 0.63334 0.33039 0.0
H738 H 0.51326 0.55994 0.15962 0.0
H739 H 0.50721 0.54224 0.20903 0.0
H740 H 0.54669 0.52973 0.19579 0.0
H741 H 0.53048 0.66554 0.24557 0.0
H742 H 0.5755 0.67139 0.30287 0.0
H743 H 0.53393 0.65139 0.30288 0.0
C744 C 0.6089 0.40472 0.7838 0.0
C745 C 0.62021 0.42362 0.82572 0.0
C746 C 0.56931 0.40423 0.74584 0.0
C747 C 0.54034 0.4231 0.74982 0.0
C748 C 0.55158 0.4421 0.79208 0.0
C749 C 0.59122 0.4422 0.82922 0.0
C750 C 0.55852 0.38372 0.70129 0.0
C751 C 0.52183 0.46276 0.79777 0.0
C752 C 0.44809 0.44943 0.63482 0.0
C753 C 0.41829 0.4306 0.63569 0.0
C754 C 0.48797 0.4465 0.6707 0.0
C755 C 0.49864 0.42432 0.70898 0.0
C756 C 0.46894 0.40494 0.70992 0.0
C757 C 0.42917 0.40829 0.6733 0.0
C758 C 0.51857 0.46776 0.66834 0.0
C759 C 0.47909 0.38105 0.75018 0.0
H760 H 0.63089 0.3901 0.78088 0.0
H761 H 0.59958 0.45739 0.86075 0.0
H762 H 0.5341 0.36796 0.69684 0.0
H763 H 0.54751 0.39793 0.66705 0.0
H764 H 0.58414 0.36975 0.70441 0.0
H765 H 0.53498 0.47526 0.83378 0.0
H766 H 0.50999 0.47993 0.7672 0.0
H767 H 0.49629 0.449 0.7951 0.0
H768 H 0.4402 0.46711 0.60666 0.0
H769 H 0.40664 0.39335 0.67409 0.0
H770 H 0.54362 0.45422 0.66892 0.0
H771 H 0.53097 0.48295 0.70147 0.0
H772 H 0.50593 0.48244 0.63448 0.0
H773 H 0.50316 0.36579 0.75183 0.0
H774 H 0.45307 0.36667 0.74425 0.0
H775 H 0.49028 0.39256 0.78685 0.0
C776 C 0.2575 0.32042 0.52326 0.0
C777 C 0.27173 0.34104 0.49952 0.0
C778 C 0.26022 0.28843 0.51831 0.0
C779 C 0.27763 0.2769 0.48908 0.0
C780 C 0.29098 0.29762 0.46397 0.0
C781 C 0.28784 0.32937 0.46946 0.0
C782 C 0.24549 0.26697 0.54543 0.0
C783 C 0.30979 0.28628 0.43251 0.0
C784 C 0.32838 0.1989 0.51856 0.0
C785 C 0.30077 0.18055 0.48017 0.0
C786 C 0.32075 0.2301 0.52244 0.0
C787 C 0.28451 0.24331 0.48721 0.0
C788 C 0.2562 0.22484 0.44876 0.0
C789 C 0.26473 0.19367 0.44556 0.0
C790 C 0.35186 0.24908 0.56376 0.0
C791 C 0.21716 0.23812 0.41067 0.0
H792 H 0.24487 0.32925 0.54638 0.0
H793 H 0.29875 0.34505 0.45071 0.0
H794 H 0.22486 0.24973 0.51934 0.0
H795 H 0.27093 0.25414 0.57445 0.0
H796 H 0.22999 0.27947 0.56349 0.0
H797 H 0.31672 0.30536 0.41334 0.0
H798 H 0.33775 0.27379 0.45625 0.0
H799 H 0.28973 0.26982 0.4041 0.0
H800 H 0.35628 0.18897 0.5455 0.0
H801 H 0.24309 0.17956 0.41604 0.0
H802 H 0.33881 0.26026 0.58583 0.0
H803 H 0.36248 0.26768 0.54773 0.0
H804 H 0.37784 0.23506 0.58922 0.0
H805 H 0.20145 0.24941 0.42948 0.0
H806 H 0.19738 0.2203 0.38489 0.0
H807 H 0.22267 0.25606 0.3885 0.0
C808 C 0.76529 0.32592 0.02649 0.0
C809 C 0.77947 0.33598 -0.00647 0.0
C810 C 0.76214 0.29449 0.03446 0.0
C811 C 0.77365 0.2725 0.00911 0.0
C812 C 0.78962 0.28243 0.97745 0.0
C813 C 0.79224 0.3141 0.9699 0.0
C814 C 0.74483 0.28484 0.06838 0.0
C815 C 0.80254 0.25962 0.95014 0.0
C816 C 0.78585 0.18961 0.05443 0.0
C817 C 0.74933 0.17681 0.02079 0.0
C818 C 0.79457 0.22063 0.05065 0.0
C819 C 0.76591 0.23929 0.01271 0.0
C820 C 0.72898 0.22649 0.9788 0.0
C821 C 0.72123 0.1954 0.98313 0.0
C822 C 0.83436 0.23346 0.08721 0.0
C823 C 0.69746 0.24571 0.93814 0.0
H824 H 0.7555 0.34261 0.04513 0.0
H825 H 0.80344 0.32165 0.94461 0.0
H826 H 0.71597 0.27312 0.04635 0.0
H827 H 0.76481 0.26814 0.09654 0.0
H828 H 0.73988 0.30471 0.08795 0.0
H829 H 0.81774 0.27095 0.93069 0.0
H830 H 0.82289 0.24222 0.97637 0.0
H831 H 0.77622 0.24713 0.92222 0.0
H832 H 0.80784 0.17529 0.08337 0.0
H833 H 0.69291 0.1857 0.95707 0.0
H834 H 0.83008 0.25244 0.10878 0.0
H835 H 0.84981 0.24331 0.067 0.0
H836 H 0.85383 0.21569 0.11362 0.0
H837 H 0.68872 0.2652 0.95472 0.0
H838 H 0.67046 0.23217 0.91453 0.0
H839 H 0.70942 0.25568 0.91405 0.0
C840 C 0.76056 0.68822 0.44944 0.0
C841 C 0.7881 0.66991 0.48821 0.0
C842 C 0.75622 0.71969 0.45667 0.0
C843 C 0.78006 0.73317 0.50371 0.0
C844 C 0.80688 0.71457 0.54338 0.0
C845 C 0.81052 0.6832 0.53518 0.0
C846 C 0.72714 0.73875 0.41352 0.0
C847 C 0.83291 0.72804 0.59406 0.0
C848 C 0.80616 0.81782 0.50905 0.0
C849 C 0.78113 0.83134 0.52622 0.0
C850 C 0.80571 0.786 0.50112 0.0
C851 C 0.77951 0.76709 0.51047 0.0
C852 C 0.75396 0.78053 0.52756 0.0
C853 C 0.75512 0.81252 0.53536 0.0
C854 C 0.83361 0.77259 0.48312 0.0
C855 C 0.72556 0.76108 0.53781 0.0
H856 H 0.74293 0.67813 0.41311 0.0
H857 H 0.83174 0.66926 0.56548 0.0
H858 H 0.70753 0.75212 0.42462 0.0
H859 H 0.74358 0.75554 0.40234 0.0
H860 H 0.70834 0.72437 0.38076 0.0
H861 H 0.85013 0.7101 0.62187 0.0
H862 H 0.8541 0.74462 0.59143 0.0
H863 H 0.81459 0.74093 0.60773 0.0
H864 H 0.82643 0.8321 0.50195 0.0
H865 H 0.73557 0.82278 0.54847 0.0
H866 H 0.81647 0.7599 0.44785 0.0
H867 H 0.85403 0.75584 0.51079 0.0
H868 H 0.85169 0.79052 0.47683 0.0
H869 H 0.70581 0.74794 0.50402 0.0
H870 H 0.70689 0.77513 0.54964 0.0
H871 H 0.74242 0.74405 0.56742 0.0
C872 C 0.26714 0.79968 0.89757 0.0
C873 C 0.27354 0.82504 0.92895 0.0
C874 C 0.26291 0.76992 0.91271 0.0
C875 C 0.26436 0.76562 0.95987 0.0
C876 C 0.27157 0.79101 -0.00798 0.0
C877 C 0.27653 0.8203 0.9764 0.0
C878 C 0.25609 0.7432 0.87786 0.0
C879 C 0.27267 0.78745 0.04226 0.0
C880 C 0.20858 0.69684 0.97312 0.0
C881 C 0.23961 0.67636 0.0004 0.0
C882 C 0.21636 0.72622 0.96059 0.0
C883 C 0.25607 0.7349 0.97453 0.0
C884 C 0.2876 0.71435 0.00245 0.0
C885 C 0.279 0.68539 0.01568 0.0
C886 C 0.18203 0.74783 0.93204 0.0
C887 C 0.33023 0.7226 0.01708 0.0
H888 H 0.26516 0.80307 0.86105 0.0
H889 H 0.28178 0.83961 0.00115 0.0
H890 H 0.27761 0.72444 0.89732 0.0
H891 H 0.22587 0.73373 0.86571 0.0
H892 H 0.25902 0.74998 0.84433 0.0
H893 H 0.27983 0.80938 0.06344 0.0
H894 H 0.24338 0.77924 0.03737 0.0
H895 H 0.29505 0.76991 0.06473 0.0
H896 H 0.17813 0.68982 0.96145 0.0
H897 H 0.30297 0.66933 0.03622 0.0
H898 H 0.18031 0.75311 0.89527 0.0
H899 H 0.18676 0.76994 0.95232 0.0
H900 H 0.15312 0.73803 0.92607 0.0
H901 H 0.33373 0.72697 0.98321 0.0
H902 H 0.35128 0.70411 0.03911 0.0
H903 H 0.33849 0.74411 0.03925 0.0
loop_
_geom_bond_atom_site_label_1
_geom_bond_atom_site_label_2
_geom_bond_distance
_geom_bond_site_symmetry_2
_ccdc_geom_bond_type
Co0 N4 2.148 . S
Co0 N10 2.128 . S
Co0 N20 2.194 . S
Co0 O25 2.351 . S
Co0 O26 2.155 . S
Co0 O27 2.096 . S
C1 N4 1.301 . S
C1 N5 1.328 . S
C1 H6 0.930 . S
C2 C3 1.333 . S
C2 N4 1.317 . S
C2 H7 0.930 . S
C3 C2 1.333 . S
C3 N5 1.350 . S
C3 H29 0.931 . S
N4 Co0 2.148 . S
N4 C1 1.301 . S
N4 C2 1.317 . S
N5 C1 1.328 . S
N5 C3 1.350 . S
H6 C1 0.930 . S
H7 C2 0.930 . S
C8 O9 1.224 . S
C8 O27 1.247 . S
O9 C8 1.224 . S
N10 Co0 2.128 . S
N10 C11 1.355 . S
N10 C13 1.311 . S
C11 N10 1.355 . S
C11 C12 1.363 . S
C11 H23 0.929 . S
C12 C11 1.363 . S
C12 N14 1.375 . S
C12 H30 0.931 . S
C13 N10 1.311 . S
C13 N14 1.347 . S
C13 H24 0.929 . S
N14 C12 1.375 . S
N14 C13 1.347 . S
C15 C18 1.365 . S
C15 N20 1.328 . S
C15 H21 0.929 . S
C16 C17 1.362 . S
C16 C19 1.378 . S
C16 H31 0.929 . S
C17 C16 1.362 . S
C17 C18 1.366 . S
C18 C15 1.365 . S
C18 C17 1.366 . S
C18 H32 0.930 1_545 S
C19 C16 1.378 . S
C19 N20 1.315 . S
C19 H22 0.930 . S
N20 Co0 2.194 . S
N20 C15 1.328 . S
N20 C19 1.315 . S
H21 C15 0.929 . S
H22 C19 0.930 . S
H23 C11 0.929 . S
H24 C13 0.929 . S
O25 Co0 2.351 . S
O25 C28 1.244 . S
O26 Co0 2.155 . S
O26 C28 1.240 . S
O27 Co0 2.096 . S
O27 C8 1.247 . S
C28 O25 1.244 . S
C28 O26 1.240 . S
H29 C3 0.931 . S
H30 C12 0.931 . S
H31 C16 0.929 . S
H32 C18 0.930 1_565 S
Co33 N37 2.148 . S
Co33 N43 2.128 . S
Co33 N53 2.194 . S
Co33 O58 2.351 . S
Co33 O59 2.155 . S
Co33 O60 2.096 . S
C34 N37 1.301 . S
C34 N38 1.328 . S
C34 H39 0.930 . S
C35 C36 1.333 . S
C35 N37 1.317 . S
C35 H40 0.930 . S
C36 C35 1.333 . S
C36 N38 1.350 . S
C36 H62 0.932 1_554 S
N37 Co33 2.148 . S
N37 C34 1.301 . S
N37 C35 1.317 . S
N38 C34 1.328 . S
N38 C36 1.350 . S
H39 C34 0.930 . S
H40 C35 0.930 . S
C41 O42 1.224 . S
C41 O60 1.247 . S
O42 C41 1.224 . S
N43 Co33 2.128 . S
N43 C44 1.355 . S
N43 C46 1.311 . S
C44 N43 1.355 . S
C44 C45 1.363 . S
C44 H56 0.929 . S
C45 C44 1.363 . S
C45 N47 1.375 . S
C45 H63 0.931 . S
C46 N43 1.311 . S
C46 N47 1.347 . S
C46 H57 0.929 . S
N47 C45 1.375 . S
N47 C46 1.347 . S
C48 C51 1.365 1_554 S
C48 N53 1.328 . S
C48 H54 0.929 . S
C49 C50 1.362 . S
C49 C52 1.378 . S
C49 H64 0.929 . S
C50 C49 1.362 . S
C50 C51 1.366 . S
C51 C48 1.365 1_556 S
C51 C50 1.366 . S
C51 H65 0.930 1_545 S
C52 C49 1.378 . S
C52 N53 1.315 1_556 S
C52 H55 0.930 . S
N53 Co33 2.194 . S
N53 C48 1.328 . S
N53 C52 1.315 1_554 S
H54 C48 0.929 . S
H55 C52 0.930 . S
H56 C44 0.929 . S
H57 C46 0.929 . S
O58 Co33 2.351 . S
O58 C61 1.244 . S
O59 Co33 2.155 . S
O59 C61 1.240 . S
O60 Co33 2.096 . S
O60 C41 1.247 . S
C61 O58 1.244 . S
C61 O59 1.240 . S
H62 C36 0.932 1_556 S
H63 C45 0.931 . S
H64 C49 0.929 . S
H65 C51 0.930 1_565 S
Co66 N70 2.148 . S
Co66 N76 2.128 . S
Co66 N86 2.194 . S
Co66 O91 2.351 . S
Co66 O92 2.155 . S
Co66 O93 2.096 . S
C67 N70 1.301 . S
C67 N71 1.328 . S
C67 H72 0.930 . S
C68 C69 1.333 . S
C68 N70 1.317 . S
C68 H73 0.930 . S
C69 C68 1.333 . S
C69 N71 1.350 . S
C69 H95 0.931 . S
N70 Co66 2.148 . S
N70 C67 1.301 . S
N70 C68 1.317 . S
N71 C67 1.328 . S
N71 C69 1.350 . S
H72 C67 0.930 . S
H73 C68 0.930 . S
C74 O75 1.224 . S
C74 O93 1.247 . S
O75 C74 1.224 . S
N76 Co66 2.128 . S
N76 C77 1.355 . S
N76 C79 1.311 . S
C77 N76 1.355 . S
C77 C78 1.363 . S
C77 H89 0.929 . S
C78 C77 1.363 . S
C78 N80 1.375 . S
C78 H96 0.931 . S
C79 N76 1.311 . S
C79 N80 1.347 . S
C79 H90 0.929 . S
N80 C78 1.375 . S
N80 C79 1.347 . S
C81 C84 1.365 . S
C81 N86 1.328 . S
C81 H87 0.929 . S
C82 C83 1.362 . S
C82 C85 1.378 . S
C82 H97 0.929 . S
C83 C82 1.362 . S
C83 C84 1.366 . S
C84 C81 1.365 . S
C84 C83 1.366 . S
C84 H98 0.930 1_565 S
C85 C82 1.378 . S
C85 N86 1.315 . S
C85 H88 0.930 . S
N86 Co66 2.194 . S
N86 C81 1.328 . S
N86 C85 1.315 . S
H87 C81 0.929 . S
H88 C85 0.930 . S
H89 C77 0.929 . S
H90 C79 0.929 . S
O91 Co66 2.351 . S
O91 C94 1.244 . S
O92 Co66 2.155 . S
O92 C94 1.240 . S
O93 Co66 2.096 . S
O93 C74 1.247 . S
C94 O91 1.244 . S
C94 O92 1.240 . S
H95 C69 0.931 . S
H96 C78 0.931 . S
H97 C82 0.929 . S
H98 C84 0.930 1_545 S
Co99 N103 2.148 . S
Co99 N109 2.128 . S
Co99 N119 2.194 . S
Co99 O124 2.351 . S
Co99 O125 2.155 . S
Co99 O126 2.096 . S
C100 N103 1.301 . S
C100 N104 1.328 . S
C100 H105 0.930 . S
C101 C102 1.333 . S
C101 N103 1.317 . S
C101 H106 0.930 . S
C102 C101 1.333 . S
C102 N104 1.350 . S
C102 H128 0.932 1_556 S
N103 Co99 2.148 . S
N103 C100 1.301 . S
N103 C101 1.317 . S
N104 C100 1.328 . S
N104 C102 1.350 . S
H105 C100 0.930 . S
H106 C101 0.930 . S
C107 O108 1.224 . S
C107 O126 1.247 . S
O108 C107 1.224 . S
N109 Co99 2.128 . S
N109 C110 1.355 . S
N109 C112 1.311 . S
C110 N109 1.355 . S
C110 C111 1.363 . S
C110 H122 0.929 . S
C111 C110 1.363 . S
C111 N113 1.375 . S
C111 H129 0.931 . S
C112 N109 1.311 . S
C112 N113 1.347 . S
C112 H123 0.929 . S
N113 C111 1.375 . S
N113 C112 1.347 . S
C114 C117 1.365 1_556 S
C114 N119 1.328 . S
C114 H120 0.929 . S
C115 C116 1.362 . S
C115 C118 1.378 . S
C115 H130 0.929 . S
C116 C115 1.362 . S
C116 C117 1.366 . S
C117 C114 1.365 1_554 S
C117 C116 1.366 . S
C117 H131 0.930 1_565 S
C118 C115 1.378 . S
C118 N119 1.315 1_554 S
C118 H121 0.930 . S
N119 Co99 2.194 . S
N119 C114 1.328 . S
N119 C118 1.315 1_556 S
H120 C114 0.929 . S
H121 C118 0.930 . S
H122 C110 0.929 . S
H123 C112 0.929 . S
O124 Co99 2.351 . S
O124 C127 1.244 . S
O125 Co99 2.155 . S
O125 C127 1.240 . S
O126 Co99 2.096 . S
O126 C107 1.247 . S
C127 O124 1.244 . S
C127 O125 1.240 . S
H128 C102 0.932 1_554 S
H129 C111 0.931 . S
H130 C115 0.929 . S
H131 C117 0.930 1_545 S
Co132 N136 2.148 . S
Co132 N142 2.128 . S
Co132 N152 2.194 . S
Co132 O157 2.351 . S
Co132 O158 2.155 . S
Co132 O159 2.096 . S
C133 N136 1.301 . S
C133 N137 1.328 . S
C133 H138 0.930 . S
C134 C135 1.333 . S
C134 N136 1.317 . S
C134 H139 0.930 . S
C135 C134 1.333 . S
C135 N137 1.350 . S
C135 H161 0.931 . S
N136 Co132 2.148 . S
N136 C133 1.301 . S
N136 C134 1.317 . S
N137 C133 1.328 . S
N137 C135 1.350 . S
H138 C133 0.930 . S
H139 C134 0.930 . S
C140 O141 1.224 . S
C140 O159 1.247 . S
O141 C140 1.224 . S
N142 Co132 2.128 . S
N142 C143 1.355 . S
N142 C145 1.311 . S
C143 N142 1.355 . S
C143 C144 1.363 . S
C143 H155 0.929 . S
C144 C143 1.363 . S
C144 N146 1.375 . S
C144 H162 0.931 . S
C145 N142 1.311 . S
C145 N146 1.347 . S
C145 H156 0.929 . S
N146 C144 1.375 . S
N146 C145 1.347 . S
C147 C150 1.365 . S
C147 N152 1.328 . S
C147 H153 0.929 . S
C148 C149 1.362 . S
C148 C151 1.378 . S
C148 H163 0.929 . S
C149 C148 1.362 . S
C149 C150 1.366 . S
C150 C147 1.365 . S
C150 C149 1.366 . S
C150 H164 0.930 . S
C151 C148 1.378 . S
C151 N152 1.315 . S
C151 H154 0.930 . S
N152 Co132 2.194 . S
N152 C147 1.328 . S
N152 C151 1.315 . S
H153 C147 0.929 . S
H154 C151 0.930 . S
H155 C143 0.929 . S
H156 C145 0.929 . S
O157 Co132 2.351 . S
O157 C160 1.244 . S
O158 Co132 2.155 . S
O158 C160 1.240 . S
O159 Co132 2.096 . S
O159 C140 1.247 . S
C160 O157 1.244 . S
C160 O158 1.240 . S
H161 C135 0.931 . S
H162 C144 0.931 . S
H163 C148 0.929 . S
H164 C150 0.930 . S
Co165 N169 2.148 . S
Co165 N175 2.128 . S
Co165 N185 2.194 . S
Co165 O190 2.351 . S
Co165 O191 2.155 . S
Co165 O192 2.096 . S
C166 N169 1.301 . S
C166 N170 1.328 . S
C166 H171 0.930 . S
C167 C168 1.333 . S
C167 N169 1.317 . S
C167 H172 0.930 . S
C168 C167 1.333 . S
C168 N170 1.350 . S
C168 H194 0.932 1_554 S
N169 Co165 2.148 . S
N169 C166 1.301 . S
N169 C167 1.317 . S
N170 C166 1.328 . S
N170 C168 1.350 . S
H171 C166 0.930 . S
H172 C167 0.930 . S
C173 O174 1.224 . S
C173 O192 1.247 . S
O174 C173 1.224 . S
N175 Co165 2.128 . S
N175 C176 1.355 . S
N175 C178 1.311 . S
C176 N175 1.355 . S
C176 C177 1.363 . S
C176 H188 0.929 . S
C177 C176 1.363 . S
C177 N179 1.375 . S
C177 H195 0.931 . S
C178 N175 1.311 . S
C178 N179 1.347 . S
C178 H189 0.929 . S
N179 C177 1.375 . S
N179 C178 1.347 . S
C180 C183 1.365 1_554 S
C180 N185 1.328 . S
C180 H186 0.929 . S
C181 C182 1.362 . S
C181 C184 1.378 . S
C181 H196 0.929 . S
C182 C181 1.362 . S
C182 C183 1.366 . S
C183 C180 1.365 1_556 S
C183 C182 1.366 . S
C183 H197 0.930 . S
C184 C181 1.378 . S
C184 N185 1.315 1_556 S
C184 H187 0.930 . S
N185 Co165 2.194 . S
N185 C180 1.328 . S
N185 C184 1.315 1_554 S
H186 C180 0.929 . S
H187 C184 0.930 . S
H188 C176 0.929 . S
H189 C178 0.929 . S
O190 Co165 2.351 . S
O190 C193 1.244 . S
O191 Co165 2.155 . S
O191 C193 1.240 . S
O192 Co165 2.096 . S
O192 C173 1.247 . S
C193 O190 1.244 . S
C193 O191 1.240 . S
H194 C168 0.932 1_556 S
H195 C177 0.931 . S
H196 C181 0.929 . S
H197 C183 0.930 . S
Co198 N202 2.148 . S
Co198 N208 2.128 . S
Co198 N218 2.194 . S
Co198 O223 2.351 . S
Co198 O224 2.155 . S
Co198 O225 2.096 . S
C199 N202 1.301 . S
C199 N203 1.328 . S
C199 H204 0.930 . S
C200 C201 1.333 . S
C200 N202 1.317 . S
C200 H205 0.930 . S
C201 C200 1.333 . S
C201 N203 1.350 . S
C201 H227 0.931 . S
N202 Co198 2.148 . S
N202 C199 1.301 . S
N202 C200 1.317 . S
N203 C199 1.328 . S
N203 C201 1.350 . S
H204 C199 0.930 . S
H205 C200 0.930 . S
C206 O207 1.224 . S
C206 O225 1.247 . S
O207 C206 1.224 . S
N208 Co198 2.128 . S
N208 C209 1.355 . S
N208 C211 1.311 . S
C209 N208 1.355 . S
C209 C210 1.363 . S
C209 H221 0.929 . S
C210 C209 1.363 . S
C210 N212 1.375 . S
C210 H228 0.931 . S
C211 N208 1.311 . S
C211 N212 1.347 . S
C211 H222 0.929 . S
N212 C210 1.375 . S
N212 C211 1.347 . S
C213 C216 1.365 . S
C213 N218 1.328 . S
C213 H219 0.929 . S
C214 C215 1.362 . S
C214 C217 1.378 . S
C214 H229 0.929 . S
C215 C214 1.362 . S
C215 C216 1.366 . S
C216 C213 1.365 . S
C216 C215 1.366 . S
C216 H230 0.930 . S
C217 C214 1.378 . S
C217 N218 1.315 . S
C217 H220 0.930 . S
N218 Co198 2.194 . S
N218 C213 1.328 . S
N218 C217 1.315 . S
H219 C213 0.929 . S
H220 C217 0.930 . S
H221 C209 0.929 . S
H222 C211 0.929 . S
O223 Co198 2.351 . S
O223 C226 1.244 . S
O224 Co198 2.155 . S
O224 C226 1.240 . S
O225 Co198 2.096 . S
O225 C206 1.247 . S
C226 O223 1.244 . S
C226 O224 1.240 . S
H227 C201 0.931 . S
H228 C210 0.931 . S
H229 C214 0.929 . S
H230 C216 0.930 . S
Co231 N235 2.148 . S
Co231 N241 2.128 . S
Co231 N251 2.194 . S
Co231 O256 2.351 . S
Co231 O257 2.155 . S
Co231 O258 2.096 . S
C232 N235 1.301 . S
C232 N236 1.328 . S
C232 H237 0.930 . S
C233 C234 1.333 . S
C233 N235 1.317 . S
C233 H238 0.930 . S
C234 C233 1.333 . S
C234 N236 1.350 . S
C234 H260 0.932 1_556 S
N235 Co231 2.148 . S
N235 C232 1.301 . S
N235 C233 1.317 . S
N236 C232 1.328 . S
N236 C234 1.350 . S
H237 C232 0.930 . S
H238 C233 0.930 . S
C239 O240 1.224 . S
C239 O258 1.247 . S
O240 C239 1.224 . S
N241 Co231 2.128 . S
N241 C242 1.355 . S
N241 C244 1.311 . S
C242 N241 1.355 . S
C242 C243 1.363 . S
C242 H254 0.929 . S
C243 C242 1.363 . S
C243 N245 1.375 . S
C243 H261 0.931 . S
C244 N241 1.311 . S
C244 N245 1.347 . S
C244 H255 0.929 . S
N245 C243 1.375 . S
N245 C244 1.347 . S
C246 C249 1.365 1_556 S
C246 N251 1.328 . S
C246 H252 0.929 . S
C247 C248 1.362 . S
C247 C250 1.378 . S
C247 H262 0.929 . S
C248 C247 1.362 . S
C248 C249 1.366 . S
C249 C246 1.365 1_554 S
C249 C248 1.366 . S
C249 H263 0.930 . S
C250 C247 1.378 . S
C250 N251 1.315 1_554 S
C250 H253 0.930 . S
N251 Co231 2.194 . S
N251 C246 1.328 . S
N251 C250 1.315 1_556 S
H252 C246 0.929 . S
H253 C250 0.930 . S
H254 C242 0.929 . S
H255 C244 0.929 . S
O256 Co231 2.351 . S
O256 C259 1.244 . S
O257 Co231 2.155 . S
O257 C259 1.240 . S
O258 Co231 2.096 . S
O258 C239 1.247 . S
C259 O256 1.244 . S
C259 O257 1.240 . S
H260 C234 0.932 1_554 S
H261 C243 0.931 . S
H262 C247 0.929 . S
H263 C249 0.930 . S
C264 C265 1.391 . S
C264 C266 1.403 . S
C264 H280 0.931 . S
C265 C264 1.391 . S
C265 C269 1.376 . S
C266 C264 1.403 . S
C266 C267 1.366 1_565 S
C266 C270 1.525 1_565 S
C267 C266 1.366 1_545 S
C267 C268 1.410 1_545 S
C267 C275 1.503 . S
C268 C267 1.410 1_565 S
C268 C269 1.392 . S
C268 C271 1.511 . S
C269 C265 1.376 . S
C269 C268 1.392 . S
C269 H281 0.929 . S
C270 C266 1.525 1_545 S
C270 H282 0.962 . S
C270 H283 0.962 . S
C270 H284 0.960 1_545 S
C271 C268 1.511 . S
C271 H285 0.961 1_565 S
C271 H286 0.961 1_565 S
C271 H287 0.961 . S
C272 C273 1.370 . S
C272 C274 1.363 . S
C272 H288 0.931 . S
C273 C272 1.370 . S
C273 C277 1.408 . S
C274 C272 1.363 . S
C274 C275 1.370 . S
C274 C278 1.524 . S
C275 C267 1.503 . S
C275 C274 1.370 . S
C275 C276 1.403 1_545 S
C276 C275 1.403 1_565 S
C276 C277 1.404 1_565 S
C276 C279 1.539 . S
C277 C273 1.408 . S
C277 C276 1.404 1_545 S
C277 H289 0.930 1_545 S
C278 C274 1.524 . S
C278 H290 0.956 . S
C278 H291 0.961 . S
C278 H292 0.961 . S
C279 C276 1.539 . S
C279 H293 0.958 . S
C279 H294 0.961 . S
C279 H295 0.960 . S
H280 C264 0.931 . S
H281 C269 0.929 . S
H282 C270 0.962 . S
H283 C270 0.962 . S
H284 C270 0.960 1_565 S
H285 C271 0.961 1_545 S
H286 C271 0.961 1_545 S
H287 C271 0.961 . S
H288 C272 0.931 . S
H289 C277 0.930 1_565 S
H290 C278 0.956 . S
H291 C278 0.961 . S
H292 C278 0.961 . S
H293 C279 0.958 . S
H294 C279 0.961 . S
H295 C279 0.960 . S
C296 C297 1.391 . S
C296 C298 1.394 . S
C296 H312 0.931 . S
C297 C296 1.391 . S
C297 C301 1.376 . S
C298 C296 1.394 . S
C298 C299 1.369 . S
C298 C302 1.531 1_545 S
C299 C298 1.369 . S
C299 C300 1.410 . S
C299 C307 1.503 . S
C300 C299 1.410 . S
C300 C301 1.392 . S
C300 C303 1.511 . S
C301 C297 1.376 . S
C301 C300 1.392 . S
C301 H313 0.929 . S
C302 C298 1.531 1_565 S
C302 H314 0.960 . S
C302 H315 0.962 1_565 S
C302 H316 0.960 . S
C303 C300 1.511 . S
C303 H317 0.961 . S
C303 H318 0.961 . S
C303 H319 0.961 . S
C304 C305 1.370 1_545 S
C304 C306 1.363 . S
C304 H320 0.931 . S
C305 C304 1.370 1_565 S
C305 C309 1.408 . S
C306 C304 1.363 . S
C306 C307 1.370 . S
C306 C310 1.524 . S
C307 C299 1.503 . S
C307 C306 1.370 . S
C307 C308 1.403 1_545 S
C308 C307 1.403 1_565 S
C308 C309 1.404 . S
C308 C311 1.539 . S
C309 C305 1.408 . S
C309 C308 1.404 . S
C309 H321 0.930 . S
C310 C306 1.524 . S
C310 H322 0.956 . S
C310 H323 0.961 . S
C310 H324 0.961 . S
C311 C308 1.539 . S
C311 H325 0.958 . S
C311 H326 0.961 . S
C311 H327 0.960 . S
H312 C296 0.931 . S
H313 C301 0.929 . S
H314 C302 0.960 . S
H315 C302 0.962 1_545 S
H316 C302 0.960 . S
H317 C303 0.961 . S
H318 C303 0.961 . S
H319 C303 0.961 . S
H320 C304 0.931 . S
H321 C309 0.930 . S
H322 C310 0.956 . S
H323 C310 0.961 . S
H324 C310 0.961 . S
H325 C311 0.958 . S
H326 C311 0.961 . S
H327 C311 0.960 . S
C328 C329 1.391 . S
C328 C330 1.394 . S
C328 H344 0.931 . S
C329 C328 1.391 . S
C329 C333 1.376 . S
C330 C328 1.394 . S
C330 C331 1.369 . S
C330 C334 1.531 1_565 S
C331 C330 1.369 . S
C331 C332 1.410 . S
C331 C339 1.503 . S
C332 C331 1.410 . S
C332 C333 1.392 . S
C332 C335 1.511 . S
C333 C329 1.376 . S
C333 C332 1.392 . S
C333 H345 0.929 . S
C334 C330 1.531 1_545 S
C334 H346 0.960 . S
C334 H347 0.962 1_545 S
C334 H348 0.960 . S
C335 C332 1.511 . S
C335 H349 0.961 . S
C335 H350 0.961 . S
C335 H351 0.961 . S
C336 C337 1.370 1_565 S
C336 C338 1.363 . S
C336 H352 0.931 . S
C337 C336 1.370 1_545 S
C337 C341 1.408 . S
C338 C336 1.363 . S
C338 C339 1.370 . S
C338 C342 1.524 . S
C339 C331 1.503 . S
C339 C338 1.370 . S
C339 C340 1.403 1_565 S
C340 C339 1.403 1_545 S
C340 C341 1.404 . S
C340 C343 1.539 . S
C341 C337 1.408 . S
C341 C340 1.404 . S
C341 H353 0.930 . S
C342 C338 1.524 . S
C342 H354 0.956 . S
C342 H355 0.961 . S
C342 H356 0.961 . S
C343 C340 1.539 . S
C343 H357 0.958 . S
C343 H358 0.961 . S
C343 H359 0.960 . S
H344 C328 0.931 . S
H345 C333 0.929 . S
H346 C334 0.960 . S
H347 C334 0.962 1_565 S
H348 C334 0.960 . S
H349 C335 0.961 . S
H350 C335 0.961 . S
H351 C335 0.961 . S
H352 C336 0.931 . S
H353 C341 0.930 . S
H354 C342 0.956 . S
H355 C342 0.961 . S
H356 C342 0.961 . S
H357 C343 0.958 . S
H358 C343 0.961 . S
H359 C343 0.960 . S
C360 C361 1.391 . S
C360 C362 1.388 1_565 S
C360 H376 0.927 1_565 S
C361 C360 1.391 . S
C361 C365 1.376 . S
C362 C360 1.388 1_545 S
C362 C363 1.361 1_545 S
C362 C366 1.544 . S
C363 C362 1.361 1_565 S
C363 C364 1.410 . S
C363 C371 1.503 . S
C364 C363 1.410 . S
C364 C365 1.392 . S
C364 C367 1.511 . S
C365 C361 1.376 . S
C365 C364 1.392 . S
C365 H377 0.929 . S
C366 C362 1.544 . S
C366 H378 0.960 . S
C366 H379 0.962 . S
C366 H380 0.960 . S
C367 C364 1.511 . S
C367 H381 0.961 . S
C367 H382 0.961 . S
C367 H383 0.961 . S
C368 C369 1.370 1_565 S
C368 C370 1.363 . S
C368 H384 0.931 . S
C369 C368 1.370 1_545 S
C369 C373 1.408 . S
C370 C368 1.363 . S
C370 C371 1.370 . S
C370 C374 1.524 . S
C371 C363 1.503 . S
C371 C370 1.370 . S
C371 C372 1.403 1_565 S
C372 C371 1.403 1_545 S
C372 C373 1.404 . S
C372 C375 1.539 . S
C373 C369 1.408 . S
C373 C372 1.404 . S
C373 H385 0.930 . S
C374 C370 1.524 . S
C374 H386 0.956 . S
C374 H387 0.961 . S
C374 H388 0.961 . S
C375 C372 1.539 . S
C375 H389 0.958 . S
C375 H390 0.961 . S
C375 H391 0.960 . S
H376 C360 0.927 1_545 S
H377 C365 0.929 . S
H378 C366 0.960 . S
H379 C366 0.962 . S
H380 C366 0.960 . S
H381 C367 0.961 . S
H382 C367 0.961 . S
H383 C367 0.961 . S
H384 C368 0.931 . S
H385 C373 0.930 . S
H386 C374 0.956 . S
H387 C374 0.961 . S
H388 C374 0.961 . S
H389 C375 0.958 . S
H390 C375 0.961 . S
H391 C375 0.960 . S
C392 C393 1.391 . S
C392 C394 1.394 . S
C392 H408 0.931 . S
C393 C392 1.391 . S
C393 C397 1.376 . S
C394 C392 1.394 . S
C394 C395 1.369 . S
C394 C398 1.531 . S
C395 C394 1.369 . S
C395 C396 1.410 . S
C395 C403 1.503 . S
C396 C395 1.410 . S
C396 C397 1.392 . S
C396 C399 1.511 . S
C397 C393 1.376 . S
C397 C396 1.392 . S
C397 H409 0.929 . S
C398 C394 1.531 . S
C398 H410 0.960 . S
C398 H411 0.962 . S
C398 H412 0.960 . S
C399 C396 1.511 . S
C399 H413 0.961 . S
C399 H414 0.961 . S
C399 H415 0.961 . S
C400 C401 1.370 . S
C400 C402 1.363 . S
C400 H416 0.931 . S
C401 C400 1.370 . S
C401 C405 1.408 . S
C402 C400 1.363 . S
C402 C403 1.370 . S
C402 C406 1.524 . S
C403 C395 1.503 . S
C403 C402 1.370 . S
C403 C404 1.403 . S
C404 C403 1.403 . S
C404 C405 1.404 . S
C404 C407 1.539 . S
C405 C401 1.408 . S
C405 C404 1.404 . S
C405 H417 0.930 . S
C406 C402 1.524 . S
C406 H418 0.956 . S
C406 H419 0.961 . S
C406 H420 0.961 . S
C407 C404 1.539 . S
C407 H421 0.958 . S
C407 H422 0.961 . S
C407 H423 0.960 . S
H408 C392 0.931 . S
H409 C397 0.929 . S
H410 C398 0.960 . S
H411 C398 0.962 . S
H412 C398 0.960 . S
H413 C399 0.961 . S
H414 C399 0.961 . S
H415 C399 0.961 . S
H416 C400 0.931 . S
H417 C405 0.930 . S
H418 C406 0.956 . S
H419 C406 0.961 . S
H420 C406 0.961 . S
H421 C407 0.958 . S
H422 C407 0.961 . S
H423 C407 0.960 . S
C424 C425 1.391 . S
C424 C426 1.394 . S
C424 H440 0.931 . S
C425 C424 1.391 . S
C425 C429 1.376 . S
C426 C424 1.394 . S
C426 C427 1.369 . S
C426 C430 1.531 . S
C427 C426 1.369 . S
C427 C428 1.410 . S
C427 C435 1.503 . S
C428 C427 1.410 . S
C428 C429 1.392 . S
C428 C431 1.511 . S
C429 C425 1.376 . S
C429 C428 1.392 . S
C429 H441 0.929 . S
C430 C426 1.531 . S
C430 H442 0.960 . S
C430 H443 0.962 . S
C430 H444 0.960 . S
C431 C428 1.511 . S
C431 H445 0.961 . S
C431 H446 0.961 . S
C431 H447 0.961 . S
C432 C433 1.370 . S
C432 C434 1.363 . S
C432 H448 0.931 . S
C433 C432 1.370 . S
C433 C437 1.408 . S
C434 C432 1.363 . S
C434 C435 1.370 . S
C434 C438 1.524 . S
C435 C427 1.503 . S
C435 C434 1.370 . S
C435 C436 1.403 . S
C436 C435 1.403 . S
C436 C437 1.404 . S
C436 C439 1.539 . S
C437 C433 1.408 . S
C437 C436 1.404 . S
C437 H449 0.930 . S
C438 C434 1.524 . S
C438 H450 0.956 . S
C438 H451 0.961 . S
C438 H452 0.961 . S
C439 C436 1.539 . S
C439 H453 0.958 . S
C439 H454 0.961 . S
C439 H455 0.960 . S
H440 C424 0.931 . S
H441 C429 0.929 . S
H442 C430 0.960 . S
H443 C430 0.962 . S
H444 C430 0.960 . S
H445 C431 0.961 . S
H446 C431 0.961 . S
H447 C431 0.961 . S
H448 C432 0.931 . S
H449 C437 0.930 . S
H450 C438 0.956 . S
H451 C438 0.961 . S
H452 C438 0.961 . S
H453 C439 0.958 . S
H454 C439 0.961 . S
H455 C439 0.960 . S
C456 C457 1.391 . S
C456 C458 1.394 . S
C456 H472 0.931 . S
C457 C456 1.391 . S
C457 C461 1.376 . S
C458 C456 1.394 . S
C458 C459 1.369 . S
C458 C462 1.531 . S
C459 C458 1.369 . S
C459 C460 1.410 . S
C459 C467 1.503 . S
C460 C459 1.410 . S
C460 C461 1.392 . S
C460 C463 1.511 . S
C461 C457 1.376 . S
C461 C460 1.392 . S
C461 H473 0.929 . S
C462 C458 1.531 . S
C462 H474 0.960 . S
C462 H475 0.962 . S
C462 H476 0.960 . S
C463 C460 1.511 . S
C463 H477 0.961 . S
C463 H478 0.961 . S
C463 H479 0.961 . S
C464 C465 1.370 . S
C464 C466 1.363 . S
C464 H480 0.931 . S
C465 C464 1.370 . S
C465 C469 1.408 . S
C466 C464 1.363 . S
C466 C467 1.370 . S
C466 C470 1.524 . S
C467 C459 1.503 . S
C467 C466 1.370 . S
C467 C468 1.403 . S
C468 C467 1.403 . S
C468 C469 1.404 . S
C468 C471 1.539 . S
C469 C465 1.408 . S
C469 C468 1.404 . S
C469 H481 0.930 . S
C470 C466 1.524 . S
C470 H482 0.956 . S
C470 H483 0.961 . S
C470 H484 0.961 . S
C471 C468 1.539 . S
C471 H485 0.958 . S
C471 H486 0.961 . S
C471 H487 0.960 . S
H472 C456 0.931 . S
H473 C461 0.929 . S
H474 C462 0.960 . S
H475 C462 0.962 . S
H476 C462 0.960 . S
H477 C463 0.961 . S
H478 C463 0.961 . S
H479 C463 0.961 . S
H480 C464 0.931 . S
H481 C469 0.930 . S
H482 C470 0.956 . S
H483 C470 0.961 . S
H484 C470 0.961 . S
H485 C471 0.958 . S
H486 C471 0.961 . S
H487 C471 0.960 . S
C488 C489 1.391 . S
C488 C490 1.394 . S
C488 H504 0.931 . S
C489 C488 1.391 . S
C489 C493 1.376 . S
C490 C488 1.394 . S
C490 C491 1.369 . S
C490 C494 1.531 . S
C491 C490 1.369 . S
C491 C492 1.410 . S
C491 C499 1.503 . S
C492 C491 1.410 . S
C492 C493 1.392 . S
C492 C495 1.511 . S
C493 C489 1.376 . S
C493 C492 1.392 . S
C493 H505 0.929 . S
C494 C490 1.531 . S
C494 H506 0.960 . S
C494 H507 0.962 . S
C494 H508 0.960 . S
C495 C492 1.511 . S
C495 H509 0.961 . S
C495 H510 0.961 . S
C495 H511 0.961 . S
C496 C497 1.370 . S
C496 C498 1.363 . S
C496 H512 0.931 . S
C497 C496 1.370 . S
C497 C501 1.408 . S
C498 C496 1.363 . S
C498 C499 1.370 . S
C498 C502 1.524 . S
C499 C491 1.503 . S
C499 C498 1.370 . S
C499 C500 1.403 . S
C500 C499 1.403 . S
C500 C501 1.404 . S
C500 C503 1.539 . S
C501 C497 1.408 . S
C501 C500 1.404 . S
C501 H513 0.930 . S
C502 C498 1.524 . S
C502 H514 0.956 . S
C502 H515 0.961 . S
C502 H516 0.961 . S
C503 C500 1.539 . S
C503 H517 0.958 . S
C503 H518 0.961 . S
C503 H519 0.960 . S
H504 C488 0.931 . S
H505 C493 0.929 . S
H506 C494 0.960 . S
H507 C494 0.962 . S
H508 C494 0.960 . S
H509 C495 0.961 . S
H510 C495 0.961 . S
H511 C495 0.961 . S
H512 C496 0.931 . S
H513 C501 0.930 . S
H514 C502 0.956 . S
H515 C502 0.961 . S
H516 C502 0.961 . S
H517 C503 0.958 . S
H518 C503 0.961 . S
H519 C503 0.960 . S
C520 C521 1.391 . S
C520 C522 1.394 . S
C520 H536 0.931 . S
C521 C520 1.391 . S
C521 C525 1.376 . S
C522 C520 1.394 . S
C522 C523 1.369 . S
C522 C526 1.531 . S
C523 C522 1.369 . S
C523 C524 1.410 1_565 S
C523 C531 1.503 1_565 S
C524 C523 1.410 1_545 S
C524 C525 1.392 1_545 S
C524 C527 1.511 . S
C525 C521 1.376 . S
C525 C524 1.392 1_565 S
C525 H537 0.929 . S
C526 C522 1.531 . S
C526 H538 0.960 . S
C526 H539 0.962 . S
C526 H540 0.960 . S
C527 C524 1.511 . S
C527 H541 0.961 . S
C527 H542 0.961 . S
C527 H543 0.961 . S
C528 C529 1.370 . S
C528 C530 1.363 . S
C528 H544 0.931 . S
C529 C528 1.370 . S
C529 C533 1.408 . S
C530 C528 1.363 . S
C530 C531 1.370 . S
C530 C534 1.524 1_545 S
C531 C523 1.503 1_545 S
C531 C530 1.370 . S
C531 C532 1.403 . S
C532 C531 1.403 . S
C532 C533 1.404 . S
C532 C535 1.539 . S
C533 C529 1.408 . S
C533 C532 1.404 . S
C533 H545 0.930 . S
C534 C530 1.524 1_565 S
C534 H546 0.956 . S
C534 H547 0.961 1_565 S
C534 H548 0.958 1_565 S
C535 C532 1.539 . S
C535 H549 0.958 . S
C535 H550 0.961 . S
C535 H551 0.960 . S
H536 C520 0.931 . S
H537 C525 0.929 . S
H538 C526 0.960 . S
H539 C526 0.962 . S
H540 C526 0.960 . S
H541 C527 0.961 . S
H542 C527 0.961 . S
H543 C527 0.961 . S
H544 C528 0.931 . S
H545 C533 0.930 . S
H546 C534 0.956 . S
H547 C534 0.961 1_545 S
H548 C534 0.958 1_545 S
H549 C535 0.958 . S
H550 C535 0.961 . S
H551 C535 0.960 . S
C552 C553 1.391 . S
C552 C554 1.394 . S
C552 H568 0.931 . S
C553 C552 1.391 . S
C553 C557 1.376 1_556 S
C554 C552 1.394 . S
C554 C555 1.369 . S
C554 C558 1.531 . S
C555 C554 1.369 . S
C555 C556 1.410 1_556 S
C555 C563 1.503 1_565 S
C556 C555 1.410 1_554 S
C556 C557 1.392 . S
C556 C559 1.511 1_565 S
C557 C553 1.376 1_554 S
C557 C556 1.392 . S
C557 H569 0.929 . S
C558 C554 1.531 . S
C558 H570 0.960 . S
C558 H571 0.962 . S
C558 H572 0.960 . S
C559 C556 1.511 1_545 S
C559 H573 0.961 . S
C559 H574 0.961 . S
C559 H575 0.961 . S
C560 C561 1.370 . S
C560 C562 1.363 . S
C560 H576 0.931 . S
C561 C560 1.370 . S
C561 C565 1.408 1_554 S
C562 C560 1.363 . S
C562 C563 1.370 1_554 S
C562 C566 1.524 1_545 S
C563 C555 1.503 1_545 S
C563 C562 1.370 1_556 S
C563 C564 1.403 . S
C564 C563 1.403 . S
C564 C565 1.404 . S
C564 C567 1.539 . S
C565 C561 1.408 1_556 S
C565 C564 1.404 . S
C565 H577 0.930 . S
C566 C562 1.524 1_565 S
C566 H578 0.956 . S
C566 H579 0.961 . S
C566 H580 0.961 . S
C567 C564 1.539 . S
C567 H581 0.958 . S
C567 H582 0.961 . S
C567 H583 0.960 . S
H568 C552 0.931 . S
H569 C557 0.929 . S
H570 C558 0.960 . S
H571 C558 0.962 . S
H572 C558 0.960 . S
H573 C559 0.961 . S
H574 C559 0.961 . S
H575 C559 0.961 . S
H576 C560 0.931 . S
H577 C565 0.930 . S
H578 C566 0.956 . S
H579 C566 0.961 . S
H580 C566 0.961 . S
H581 C567 0.958 . S
H582 C567 0.961 . S
H583 C567 0.960 . S
C584 C585 1.391 . S
C584 C586 1.394 . S
C584 H600 0.931 . S
C585 C584 1.391 . S
C585 C589 1.376 . S
C586 C584 1.394 . S
C586 C587 1.369 . S
C586 C590 1.531 1_655 S
C587 C586 1.369 . S
C587 C588 1.410 . S
C587 C595 1.503 1_655 S
C588 C587 1.410 . S
C588 C589 1.392 . S
C588 C591 1.511 . S
C589 C585 1.376 . S
C589 C588 1.392 . S
C589 H601 0.929 . S
C590 C586 1.531 1_455 S
C590 H602 0.960 . S
C590 H603 0.962 . S
C590 H604 0.960 . S
C591 C588 1.511 . S
C591 H605 0.961 . S
C591 H606 0.961 . S
C591 H607 0.961 . S
C592 C593 1.370 . S
C592 C594 1.363 . S
C592 H608 0.931 . S
C593 C592 1.370 . S
C593 C597 1.408 . S
C594 C592 1.363 . S
C594 C595 1.370 . S
C594 C598 1.528 . S
C595 C587 1.503 1_455 S
C595 C594 1.370 . S
C595 C596 1.403 . S
C596 C595 1.403 . S
C596 C597 1.404 . S
C596 C599 1.539 . S
C597 C593 1.408 . S
C597 C596 1.404 . S
C597 H609 0.930 . S
C598 C594 1.528 . S
C598 H610 0.957 . S
C598 H611 0.945 1_455 S
C598 H612 0.972 . S
C599 C596 1.539 . S
C599 H613 0.958 . S
C599 H614 0.961 . S
C599 H615 0.960 . S
H600 C584 0.931 . S
H601 C589 0.929 . S
H602 C590 0.960 . S
H603 C590 0.962 . S
H604 C590 0.960 . S
H605 C591 0.961 . S
H606 C591 0.961 . S
H607 C591 0.961 . S
H608 C592 0.931 . S
H609 C597 0.930 . S
H610 C598 0.957 . S
H611 C598 0.945 1_655 S
H612 C598 0.972 . S
H613 C599 0.958 . S
H614 C599 0.961 . S
H615 C599 0.960 . S
C616 C617 1.391 . S
C616 C618 1.394 . S
C616 H632 0.931 . S
C617 C616 1.391 . S
C617 C621 1.376 . S
C618 C616 1.394 . S
C618 C619 1.369 . S
C618 C622 1.531 . S
C619 C618 1.369 . S
C619 C620 1.410 . S
C619 C627 1.503 1_455 S
C620 C619 1.410 . S
C620 C621 1.392 . S
C620 C623 1.511 1_455 S
C621 C617 1.376 . S
C621 C620 1.392 . S
C621 H633 0.929 . S
C622 C618 1.531 . S
C622 H634 0.960 . S
C622 H635 0.962 1_554 S
C622 H636 0.960 . S
C623 C620 1.511 1_655 S
C623 H637 0.961 . S
C623 H638 0.961 . S
C623 H639 0.961 . S
C624 C625 1.370 . S
C624 C626 1.363 . S
C624 H640 0.931 . S
C625 C624 1.370 . S
C625 C629 1.408 1_556 S
C626 C624 1.363 . S
C626 C627 1.370 1_556 S
C626 C630 1.524 . S
C627 C619 1.503 1_655 S
C627 C626 1.370 1_554 S
C627 C628 1.403 . S
C628 C627 1.403 . S
C628 C629 1.404 . S
C628 C631 1.539 1_655 S
C629 C625 1.408 1_554 S
C629 C628 1.404 . S
C629 H641 0.930 . S
C630 C626 1.524 . S
C630 H642 0.956 . S
C630 H643 0.961 . S
C630 H644 0.961 . S
C631 C628 1.539 1_455 S
C631 H645 0.958 . S
C631 H646 0.961 . S
C631 H647 0.960 . S
H632 C616 0.931 . S
H633 C621 0.929 . S
H634 C622 0.960 . S
H635 C622 0.962 1_556 S
H636 C622 0.960 . S
H637 C623 0.961 . S
H638 C623 0.961 . S
H639 C623 0.961 . S
H640 C624 0.931 . S
H641 C629 0.930 . S
H642 C630 0.956 . S
H643 C630 0.961 . S
H644 C630 0.961 . S
H645 C631 0.958 . S
H646 C631 0.961 . S
H647 C631 0.960 . S
C648 C649 1.391 . S
C648 C650 1.394 . S
C648 H664 0.931 . S
C649 C648 1.391 . S
C649 C653 1.376 . S
C650 C648 1.394 . S
C650 C651 1.369 . S
C650 C654 1.531 . S
C651 C650 1.369 . S
C651 C652 1.410 . S
C651 C659 1.503 1_455 S
C652 C651 1.410 . S
C652 C653 1.392 . S
C652 C655 1.511 . S
C653 C649 1.376 . S
C653 C652 1.392 . S
C653 H665 0.929 . S
C654 C650 1.531 . S
C654 H666 0.960 . S
C654 H667 0.962 . S
C654 H668 0.960 . S
C655 C652 1.511 . S
C655 H669 0.961 . S
C655 H670 0.961 1_455 S
C655 H671 0.961 1_455 S
C656 C657 1.370 . S
C656 C658 1.363 . S
C656 H672 0.931 . S
C657 C656 1.370 . S
C657 C661 1.408 . S
C658 C656 1.363 . S
C658 C659 1.370 . S
C658 C662 1.524 . S
C659 C651 1.503 1_655 S
C659 C658 1.370 . S
C659 C660 1.403 . S
C660 C659 1.403 . S
C660 C661 1.404 . S
C660 C663 1.539 . S
C661 C657 1.408 . S
C661 C660 1.404 . S
C661 H673 0.930 . S
C662 C658 1.524 . S
C662 H674 0.956 1_655 S
C662 H675 0.961 1_655 S
C662 H676 0.961 . S
C663 C660 1.539 . S
C663 H677 0.958 . S
C663 H678 0.961 . S
C663 H679 0.960 . S
H664 C648 0.931 . S
H665 C653 0.929 . S
H666 C654 0.960 . S
H667 C654 0.962 . S
H668 C654 0.960 . S
H669 C655 0.961 . S
H670 C655 0.961 1_655 S
H671 C655 0.961 1_655 S
H672 C656 0.931 . S
H673 C661 0.930 . S
H674 C662 0.956 1_455 S
H675 C662 0.961 1_455 S
H676 C662 0.961 . S
H677 C663 0.958 . S
H678 C663 0.961 . S
H679 C663 0.960 . S
C680 C681 1.391 . S
C680 C682 1.394 . S
C680 H696 0.931 . S
C681 C680 1.391 . S
C681 C685 1.376 . S
C682 C680 1.394 . S
C682 C683 1.369 . S
C682 C686 1.531 . S
C683 C682 1.369 . S
C683 C684 1.410 . S
C683 C691 1.503 1_455 S
C684 C683 1.410 . S
C684 C685 1.392 . S
C684 C687 1.511 . S
C685 C681 1.376 . S
C685 C684 1.392 . S
C685 H697 0.929 . S
C686 C682 1.531 . S
C686 H698 0.960 1_455 S
C686 H699 0.962 1_455 S
C686 H700 0.960 . S
C687 C684 1.511 . S
C687 H701 0.961 . S
C687 H702 0.961 . S
C687 H703 0.961 . S
C688 C689 1.370 . S
C688 C690 1.363 . S
C688 H704 0.931 . S
C689 C688 1.370 . S
C689 C693 1.408 . S
C690 C688 1.363 . S
C690 C691 1.370 . S
C690 C694 1.524 . S
C691 C683 1.503 1_655 S
C691 C690 1.370 . S
C691 C692 1.403 . S
C692 C691 1.403 . S
C692 C693 1.404 . S
C692 C695 1.539 . S
C693 C689 1.408 . S
C693 C692 1.404 . S
C693 H705 0.930 . S
C694 C690 1.524 . S
C694 H706 0.956 . S
C694 H707 0.961 1_655 S
C694 H708 0.961 . S
C695 C692 1.539 . S
C695 H709 0.958 . S
C695 H710 0.961 . S
C695 H711 0.960 1_655 S
H696 C680 0.931 . S
H697 C685 0.929 . S
H698 C686 0.960 1_655 S
H699 C686 0.962 1_655 S
H700 C686 0.960 . S
H701 C687 0.961 . S
H702 C687 0.961 . S
H703 C687 0.961 . S
H704 C688 0.931 . S
H705 C693 0.930 . S
H706 C694 0.956 . S
H707 C694 0.961 1_455 S
H708 C694 0.961 . S
H709 C695 0.958 . S
H710 C695 0.961 . S
H711 C695 0.960 1_455 S
C712 C713 1.391 . S
C712 C714 1.394 . S
C712 H728 0.931 . S
C713 C712 1.391 . S
C713 C717 1.376 . S
C714 C712 1.394 . S
C714 C715 1.369 . S
C714 C718 1.531 . S
C715 C714 1.369 . S
C715 C716 1.410 . S
C715 C723 1.503 . S
C716 C715 1.410 . S
C716 C717 1.392 . S
C716 C719 1.511 . S
C717 C713 1.376 . S
C717 C716 1.392 . S
C717 H729 0.929 . S
C718 C714 1.531 . S
C718 H730 0.960 . S
C718 H731 0.962 . S
C718 H732 0.960 . S
C719 C716 1.511 . S
C719 H733 0.961 . S
C719 H734 0.961 . S
C719 H735 0.961 . S
C720 C721 1.370 . S
C720 C722 1.363 . S
C720 H736 0.931 . S
C721 C720 1.370 . S
C721 C725 1.408 . S
C722 C720 1.363 . S
C722 C723 1.370 . S
C722 C726 1.524 . S
C723 C715 1.503 . S
C723 C722 1.370 . S
C723 C724 1.403 . S
C724 C723 1.403 . S
C724 C725 1.404 . S
C724 C727 1.539 . S
C725 C721 1.408 . S
C725 C724 1.404 . S
C725 H737 0.930 . S
C726 C722 1.524 . S
C726 H738 0.956 . S
C726 H739 0.961 . S
C726 H740 0.961 . S
C727 C724 1.539 . S
C727 H741 0.958 . S
C727 H742 0.961 . S
C727 H743 0.960 . S
H728 C712 0.931 . S
H729 C717 0.929 . S
H730 C718 0.960 . S
H731 C718 0.962 . S
H732 C718 0.960 . S
H733 C719 0.961 . S
H734 C719 0.961 . S
H735 C719 0.961 . S
H736 C720 0.931 . S
H737 C725 0.930 . S
H738 C726 0.956 . S
H739 C726 0.961 . S
H740 C726 0.961 . S
H741 C727 0.958 . S
H742 C727 0.961 . S
H743 C727 0.960 . S
C744 C745 1.391 . S
C744 C746 1.394 . S
C744 H760 0.931 . S
C745 C744 1.391 . S
C745 C749 1.376 . S
C746 C744 1.394 . S
C746 C747 1.369 . S
C746 C750 1.531 . S
C747 C746 1.369 . S
C747 C748 1.410 . S
C747 C755 1.503 . S
C748 C747 1.410 . S
C748 C749 1.392 . S
C748 C751 1.511 . S
C749 C745 1.376 . S
C749 C748 1.392 . S
C749 H761 0.929 . S
C750 C746 1.531 . S
C750 H762 0.960 . S
C750 H763 0.962 . S
C750 H764 0.960 . S
C751 C748 1.511 . S
C751 H765 0.961 . S
C751 H766 0.961 . S
C751 H767 0.961 . S
C752 C753 1.370 . S
C752 C754 1.363 . S
C752 H768 0.931 . S
C753 C752 1.370 . S
C753 C757 1.408 . S
C754 C752 1.363 . S
C754 C755 1.370 . S
C754 C758 1.524 . S
C755 C747 1.503 . S
C755 C754 1.370 . S
C755 C756 1.403 . S
C756 C755 1.403 . S
C756 C757 1.404 . S
C756 C759 1.539 . S
C757 C753 1.408 . S
C757 C756 1.404 . S
C757 H769 0.930 . S
C758 C754 1.524 . S
C758 H770 0.956 . S
C758 H771 0.961 . S
C758 H772 0.961 . S
C759 C756 1.539 . S
C759 H773 0.958 . S
C759 H774 0.961 . S
C759 H775 0.960 . S
H760 C744 0.931 . S
H761 C749 0.929 . S
H762 C750 0.960 . S
H763 C750 0.962 . S
H764 C750 0.960 . S
H765 C751 0.961 . S
H766 C751 0.961 . S
H767 C751 0.961 . S
H768 C752 0.931 . S
H769 C757 0.930 . S
H770 C758 0.956 . S
H771 C758 0.961 . S
H772 C758 0.961 . S
H773 C759 0.958 . S
H774 C759 0.961 . S
H775 C759 0.960 . S
C776 C777 1.391 . S
C776 C778 1.394 . S
C776 H792 0.931 . S
C777 C776 1.391 . S
C777 C781 1.376 . S
C778 C776 1.394 . S
C778 C779 1.369 . S
C778 C782 1.531 . S
C779 C778 1.369 . S
C779 C780 1.410 . S
C779 C787 1.503 . S
C780 C779 1.410 . S
C780 C781 1.392 . S
C780 C783 1.511 . S
C781 C777 1.376 . S
C781 C780 1.392 . S
C781 H793 0.929 . S
C782 C778 1.531 . S
C782 H794 0.960 . S
C782 H795 0.962 . S
C782 H796 0.960 . S
C783 C780 1.511 . S
C783 H797 0.961 . S
C783 H798 0.961 . S
C783 H799 0.961 . S
C784 C785 1.370 . S
C784 C786 1.363 . S
C784 H800 0.931 . S
C785 C784 1.370 . S
C785 C789 1.408 . S
C786 C784 1.363 . S
C786 C787 1.370 . S
C786 C790 1.524 . S
C787 C779 1.503 . S
C787 C786 1.370 . S
C787 C788 1.403 . S
C788 C787 1.403 . S
C788 C789 1.404 . S
C788 C791 1.539 . S
C789 C785 1.408 . S
C789 C788 1.404 . S
C789 H801 0.930 . S
C790 C786 1.524 . S
C790 H802 0.956 . S
C790 H803 0.961 . S
C790 H804 0.961 . S
C791 C788 1.539 . S
C791 H805 0.958 . S
C791 H806 0.961 . S
C791 H807 0.960 . S
H792 C776 0.931 . S
H793 C781 0.929 . S
H794 C782 0.960 . S
H795 C782 0.962 . S
H796 C782 0.960 . S
H797 C783 0.961 . S
H798 C783 0.961 . S
H799 C783 0.961 . S
H800 C784 0.931 . S
H801 C789 0.930 . S
H802 C790 0.956 . S
H803 C790 0.961 . S
H804 C790 0.961 . S
H805 C791 0.958 . S
H806 C791 0.961 . S
H807 C791 0.960 . S
C808 C809 1.391 1_554 S
C808 C810 1.394 . S
C808 H824 0.931 . S
C809 C808 1.391 1_556 S
C809 C813 1.376 . S
C810 C808 1.394 . S
C810 C811 1.369 1_554 S
C810 C814 1.531 . S
C811 C810 1.369 1_556 S
C811 C812 1.410 . S
C811 C819 1.503 1_556 S
C812 C811 1.410 . S
C812 C813 1.392 . S
C812 C815 1.511 . S
C813 C809 1.376 . S
C813 C812 1.392 . S
C813 H825 0.929 . S
C814 C810 1.531 . S
C814 H826 0.960 . S
C814 H827 0.962 . S
C814 H828 0.960 . S
C815 C812 1.511 . S
C815 H829 0.961 . S
C815 H830 0.961 . S
C815 H831 0.961 . S
C816 C817 1.370 . S
C816 C818 1.363 . S
C816 H832 0.931 . S
C817 C816 1.370 . S
C817 C821 1.408 . S
C818 C816 1.363 . S
C818 C819 1.370 . S
C818 C822 1.524 1_554 S
C819 C811 1.503 1_554 S
C819 C818 1.370 . S
C819 C820 1.403 . S
C820 C819 1.403 . S
C820 C821 1.404 . S
C820 C823 1.539 . S
C821 C817 1.408 . S
C821 C820 1.404 . S
C821 H833 0.930 . S
C822 C818 1.524 1_556 S
C822 H834 0.956 1_556 S
C822 H835 0.961 . S
C822 H836 0.961 . S
C823 C820 1.539 . S
C823 H837 0.958 . S
C823 H838 0.961 . S
C823 H839 0.960 . S
H824 C808 0.931 . S
H825 C813 0.929 . S
H826 C814 0.960 . S
H827 C814 0.962 . S
H828 C814 0.960 . S
H829 C815 0.961 . S
H830 C815 0.961 . S
H831 C815 0.961 . S
H832 C816 0.931 . S
H833 C821 0.930 . S
H834 C822 0.956 1_554 S
H835 C822 0.961 . S
H836 C822 0.961 . S
H837 C823 0.958 . S
H838 C823 0.961 . S
H839 C823 0.960 . S
C840 C841 1.391 . S
C840 C842 1.394 . S
C840 H856 0.931 . S
C841 C840 1.391 . S
C841 C845 1.376 . S
C842 C840 1.394 . S
C842 C843 1.369 . S
C842 C846 1.531 . S
C843 C842 1.369 . S
C843 C844 1.410 . S
C843 C851 1.503 . S
C844 C843 1.410 . S
C844 C845 1.392 . S
C844 C847 1.511 . S
C845 C841 1.376 . S
C845 C844 1.392 . S
C845 H857 0.929 . S
C846 C842 1.531 . S
C846 H858 0.960 . S
C846 H859 0.962 . S
C846 H860 0.960 . S
C847 C844 1.511 . S
C847 H861 0.961 . S
C847 H862 0.961 . S
C847 H863 0.961 . S
C848 C849 1.370 . S
C848 C850 1.363 . S
C848 H864 0.931 . S
C849 C848 1.370 . S
C849 C853 1.408 . S
C850 C848 1.363 . S
C850 C851 1.370 . S
C850 C854 1.524 . S
C851 C843 1.503 . S
C851 C850 1.370 . S
C851 C852 1.403 . S
C852 C851 1.403 . S
C852 C853 1.404 . S
C852 C855 1.539 . S
C853 C849 1.408 . S
C853 C852 1.404 . S
C853 H865 0.930 . S
C854 C850 1.524 . S
C854 H866 0.956 . S
C854 H867 0.961 . S
C854 H868 0.961 . S
C855 C852 1.539 . S
C855 H869 0.958 . S
C855 H870 0.961 . S
C855 H871 0.960 . S
H856 C840 0.931 . S
H857 C845 0.929 . S
H858 C846 0.960 . S
H859 C846 0.962 . S
H860 C846 0.960 . S
H861 C847 0.961 . S
H862 C847 0.961 . S
H863 C847 0.961 . S
H864 C848 0.931 . S
H865 C853 0.930 . S
H866 C854 0.956 . S
H867 C854 0.961 . S
H868 C854 0.961 . S
H869 C855 0.958 . S
H870 C855 0.961 . S
H871 C855 0.960 . S
C872 C873 1.391 . S
C872 C874 1.394 . S
C872 H888 0.931 . S
C873 C872 1.391 . S
C873 C877 1.381 . S
C874 C872 1.394 . S
C874 C875 1.369 . S
C874 C878 1.531 . S
C875 C874 1.369 . S
C875 C876 1.410 1_556 S
C875 C883 1.503 1_556 S
C876 C875 1.410 1_554 S
C876 C877 1.389 1_554 S
C876 C879 1.511 . S
C877 C873 1.381 . S
C877 C876 1.389 1_556 S
C877 H889 0.926 1_556 S
C878 C874 1.531 . S
C878 H890 0.960 . S
C878 H891 0.962 . S
C878 H892 0.960 . S
C879 C876 1.511 . S
C879 H893 0.961 . S
C879 H894 0.961 . S
C879 H895 0.961 . S
C880 C881 1.370 . S
C880 C882 1.363 . S
C880 H896 0.931 . S
C881 C880 1.370 . S
C881 C885 1.408 . S
C882 C880 1.363 . S
C882 C883 1.370 . S
C882 C886 1.524 . S
C883 C875 1.503 1_554 S
C883 C882 1.370 . S
C883 C884 1.403 1_554 S
C884 C883 1.403 1_556 S
C884 C885 1.404 1_556 S
C884 C887 1.539 . S
C885 C881 1.408 . S
C885 C884 1.404 1_554 S
C885 H897 0.930 . S
C886 C882 1.524 . S
C886 H898 0.956 . S
C886 H899 0.961 . S
C886 H900 0.961 . S
C887 C884 1.539 . S
C887 H901 0.958 . S
C887 H902 0.961 . S
C887 H903 0.960 . S
H888 C872 0.931 . S
H889 C877 0.926 1_554 S
H890 C878 0.960 . S
H891 C878 0.962 . S
H892 C878 0.960 . S
H893 C879 0.961 . S
H894 C879 0.961 . S
H895 C879 0.961 . S
H896 C880 0.931 . S
H897 C885 0.930 . S
H898 C886 0.956 . S
H899 C886 0.961 . S
H900 C886 0.961 . S
H901 C887 0.958 . S
H902 C887 0.961 . S
H903 C887 0.960 . S
C265 C116 0.923 . S
C273 C28 0.954 . S
C297 C61 0.959 . S
C305 C83 0.940 . S
C329 C94 0.964 . S
C337 C50 0.935 . S
C361 C127 0.961 . S
C369 C17 0.938 . S
C393 C160 0.929 . S
C401 C248 0.951 . S
C425 C193 0.956 . S
C433 C215 0.942 . S
C457 C182 0.944 . S
C465 C226 0.946 . S
C489 C259 0.926 . S
C497 C149 0.954 . S
C521 N71 2.027 . S
C529 N5 2.046 . S
C553 N104 2.030 . S
C561 N38 2.045 . S
C585 N137 2.046 . S
C593 N203 2.039 . S
C617 N170 2.027 . S
C625 N236 2.046 . S
C649 N14 1.748 . S
C657 N47 1.752 . S
C681 N113 1.728 . S
C689 N80 1.754 . S
C713 N179 1.783 . S
C721 N146 1.776 . S
C745 N245 1.789 . S
C753 N212 1.766 . S
C777 C206 1.535 . S
C785 C8 1.514 . S
C809 C239 1.499 . S
C817 C41 1.527 . S
C841 C140 1.526 . S
C849 C74 1.519 . S
C873 C107 1.537 . S
C881 C173 1.513 . S
