# Generated by pormake.
# Topology ukg, (4)-cn, num edge types: 1
# Building blocks:
#     Node 0, Type 0, BuildingBlock: CEKHIL_clean_sbu_0, # of connection points: 4
#     Node 1, Type 0, BuildingBlock: CEKHIL_clean_sbu_0, # of connection points: 4
#     Node 2, Type 0, BuildingBlock: CEKHIL_clean_sbu_0, # of connection points: 4
#     Node 3, Type 0, BuildingBlock: CEKHIL_clean_sbu_0, # of connection points: 4
#     Node 4, Type 0, BuildingBlock: CEKHIL_clean_sbu_0, # of connection points: 4
#     Node 5, Type 0, BuildingBlock: CEKHIL_clean_sbu_0, # of connection points: 4
#     Node 6, Type 0, BuildingBlock: CEKHIL_clean_sbu_0, # of connection points: 4
#     Node 7, Type 0, BuildingBlock: CEKHIL_clean_sbu_0, # of connection points: 4
#     Edge 8, Type (0, 0), BuildingBlock: OJICUG_clean_linker_0, # of connection points: 2
#     Edge 9, Type (0, 0), BuildingBlock: OJICUG_clean_linker_0, # of connection points: 2
#     Edge 10, Type (0, 0), BuildingBlock: OJICUG_clean_linker_0, # of connection points: 2
#     Edge 11, Type (0, 0), BuildingBlock: OJICUG_clean_linker_0, # of connection points: 2
#     Edge 12, Type (0, 0), BuildingBlock: OJICUG_clean_linker_0, # of connection points: 2
#     Edge 13, Type (0, 0), BuildingBlock: OJICUG_clean_linker_0, # of connection points: 2
#     Edge 14, Type (0, 0), BuildingBlock: OJICUG_clean_linker_0, # of connection points: 2
#     Edge 15, Type (0, 0), BuildingBlock: OJICUG_clean_linker_0, # of connection points: 2
#     Edge 16, Type (0, 0), BuildingBlock: OJICUG_clean_linker_0, # of connection points: 2
#     Edge 17, Type (0, 0), BuildingBlock: OJICUG_clean_linker_0, # of connection points: 2
#     Edge 18, Type (0, 0), BuildingBlock: OJICUG_clean_linker_0, # of connection points: 2
#     Edge 19, Type (0, 0), BuildingBlock: OJICUG_clean_linker_0, # of connection points: 2
#     Edge 20, Type (0, 0), BuildingBlock: OJICUG_clean_linker_0, # of connection points: 2
#     Edge 21, Type (0, 0), BuildingBlock: OJICUG_clean_linker_0, # of connection points: 2
#     Edge 22, Type (0, 0), BuildingBlock: OJICUG_clean_linker_0, # of connection points: 2
#     Edge 23, Type (0, 0), BuildingBlock: OJICUG_clean_linker_0, # of connection points: 2
# Relax obj value: 0.122
# Max RMSD: 0.207
# Mean RMSD: 0.201
data_MOF--net-ukg--node1-CEKHIL_clean_sbu_0--edge1-OJICUG_clean_linker_0
_symmetry_space_group_name_H-M    P1
_symmetry_Int_Tables_number       1
_symmetry_cell_setting            triclinic
loop_
_symmetry_equiv_pos_as_xyz
'x, y, z'
_cell_length_a     22.008985
_cell_length_b     21.554355
_cell_length_c     27.489391
_cell_angle_alpha  89.988613
_cell_angle_beta   90.023328
_cell_angle_gamma 89.624534
loop_
_atom_site_label
_atom_site_type_symbol
_atom_site_fract_x
_atom_site_fract_y
_atom_site_fract_z
_atom_type_partial_charge
Co0 Co 0.04256 0.60852 0.16274 0.0
O1 O 0.0755 0.53047 0.14085 0.0
O2 O 0.05521 0.60984 0.09255 0.0
C3 C 0.96479 0.56804 0.2062 0.0
O4 O 0.00657 0.69492 0.17395 0.0
Co5 Co 0.0408 0.63429 0.27485 0.0
O6 O 0.98117 0.69773 0.25345 0.0
C7 C 0.15007 0.66652 0.21611 0.0
C8 C 0.07137 0.55181 0.09698 0.0
C9 C 0.98005 0.72056 0.21066 0.0
O10 O 0.12625 0.64423 0.17686 0.0
O11 O 0.12445 0.66304 0.25788 0.0
O12 O 0.96092 0.57499 0.15959 0.0
O13 O 0.01801 0.57784 0.22435 0.0
Co14 Co 0.34396 0.50027 0.63065 0.0
O15 O 0.41976 0.52045 0.59976 0.0
O16 O 0.34117 0.48183 0.56083 0.0
C17 C 0.38594 0.44574 0.6921 0.0
O18 O 0.26004 0.47102 0.65437 0.0
Co19 Co 0.32446 0.55539 0.73466 0.0
O20 O 0.25112 0.5032 0.73247 0.0
C21 C 0.30177 0.63387 0.64893 0.0
C22 C 0.39805 0.49857 0.55968 0.0
C23 C 0.2311 0.47435 0.69535 0.0
O24 O 0.31126 0.58757 0.62026 0.0
O25 O 0.30958 0.63165 0.69499 0.0
O26 O 0.37697 0.42071 0.64994 0.0
O27 O 0.37637 0.50494 0.69418 0.0
Co28 Co 0.46616 0.88896 0.16104 0.0
O29 O 0.43196 0.96682 0.13986 0.0
O30 O 0.45218 0.88804 0.09101 0.0
C31 C 0.54442 0.92975 0.20376 0.0
O32 O 0.50339 0.8029 0.17148 0.0
Co33 Co 0.47041 0.86238 0.27304 0.0
O34 O 0.53058 0.80009 0.25062 0.0
C35 C 0.36046 0.82908 0.21544 0.0
C36 C 0.43553 0.94586 0.09585 0.0
C37 C 0.53116 0.77753 0.20775 0.0
O38 O 0.38314 0.85214 0.17603 0.0
O39 O 0.38691 0.83253 0.25689 0.0
O40 O 0.54737 0.92344 0.15706 0.0
O41 O 0.49163 0.91936 0.22247 0.0
Co42 Co 0.15778 0.00135 0.6307 0.0
O43 O 0.08123 0.98437 0.59974 0.0
O44 O 0.16116 0.02007 0.5609 0.0
C45 C 0.11778 0.05665 0.6924 0.0
O46 O 0.24265 0.02726 0.65461 0.0
Co47 Co 0.17537 0.94425 0.73414 0.0
O48 O 0.25075 0.99356 0.73238 0.0
C49 C 0.18688 0.86469 0.6482 0.0
C50 C 0.1037 0.00545 0.55969 0.0
C51 C 0.2715 0.02256 0.69557 0.0
O52 O 0.18654 0.91266 0.62025 0.0
O53 O 0.17553 0.8671 0.69378 0.0
O54 O 0.12774 0.08202 0.65048 0.0
O55 O 0.12539 0.9972 0.69402 0.0
Co56 Co 0.97387 0.29306 0.87525 0.0
O57 O 0.91459 0.2571 0.91849 0.0
O58 O 0.89602 0.33504 0.86832 0.0
C59 C 0.00599 0.20317 0.84208 0.0
O60 O 0.02455 0.33883 0.82346 0.0
Co61 Co 0.11028 0.26148 0.89029 0.0
O62 O 0.11554 0.2903 0.82198 0.0
C63 C 0.0535 0.35917 0.95097 0.0
C64 C 0.87506 0.29392 0.89865 0.0
C65 C 0.07665 0.3274 0.80337 0.0
O66 O 1.00306 0.35289 0.92747 0.0
O67 O 0.09999 0.32426 0.94381 0.0
O68 O 0.95626 0.22971 0.82783 0.0
O69 O 0.03044 0.2269 0.8807 0.0
Co70 Co 0.61802 0.47141 0.32828 0.0
O71 O 0.54045 0.4471 0.35456 0.0
O72 O 0.62079 0.4686 0.39921 0.0
C73 C 0.58114 0.54551 0.27819 0.0
O74 O 0.70418 0.50049 0.31168 0.0
Co75 Co 0.63808 0.45267 0.21615 0.0
O76 O 0.7059 0.50993 0.22979 0.0
C77 C 0.66256 0.34899 0.28483 0.0
C78 C 0.56294 0.45589 0.39744 0.0
C79 C 0.72959 0.518 0.27166 0.0
O80 O 0.64768 0.38237 0.32199 0.0
O81 O 0.65698 0.36739 0.24072 0.0
O82 O 0.58981 0.55671 0.32388 0.0
O83 O 0.58718 0.4882 0.26542 0.0
Co84 Co 0.52859 0.20692 0.87468 0.0
O85 O 0.58749 0.24383 0.9178 0.0
O86 O 0.60697 0.16599 0.86779 0.0
C87 C 0.49528 0.29647 0.8415 0.0
O88 O 0.47846 0.16014 0.8231 0.0
Co89 Co 0.39183 0.23648 0.88962 0.0
O90 O 0.38686 0.20738 0.82137 0.0
C91 C 0.45 0.13964 0.95042 0.0
C92 C 0.62743 0.20742 0.89808 0.0
C93 C 0.42619 0.17063 0.80297 0.0
O94 O 0.50036 0.1468 0.92701 0.0
O95 O 0.40296 0.17377 0.94317 0.0
O96 O 0.54517 0.27041 0.82711 0.0
O97 O 0.47113 0.27237 0.88008 0.0
Co98 Co 0.88883 0.02936 0.32631 0.0
O99 O 0.96414 0.05884 0.35357 0.0
O100 O 0.88375 0.03403 0.39704 0.0
C101 C 0.93125 0.9554 0.27868 0.0
O102 O 0.80482 0.99514 0.3089 0.0
Co103 Co 0.87109 0.04122 0.21318 0.0
O104 O 0.80558 0.98151 0.22739 0.0
C105 C 0.82823 0.14158 0.28011 0.0
C106 C 0.941 0.04937 0.39615 0.0
C107 C 0.78094 0.97495 0.26906 0.0
O108 O 0.85356 0.11607 0.3176 0.0
O109 O 0.83355 0.12035 0.23678 0.0
O110 O 0.92194 0.94574 0.32447 0.0
O111 O 0.92257 0.01179 0.26436 0.0
C112 C 0.02526 0.46549 0.98276 0.0
C113 C 0.05967 0.41044 0.98695 0.0
H114 H 0.00395 0.55491 0.01323 0.0
C115 C 0.1023 0.40566 0.02495 0.0
H116 H 0.99266 0.47106 0.95353 0.0
C117 C 0.10846 0.45337 0.05909 0.0
C118 C 0.0734 0.50788 0.05547 0.0
H119 H 0.12983 0.36416 0.02916 0.0
H120 H 0.13971 0.44694 0.08917 0.0
C121 C 0.03252 0.514 0.0164 0.0
C122 C 0.41869 0.46043 0.47413 0.0
C123 C 0.43938 0.48727 0.51755 0.0
H124 H 0.44161 0.42845 0.40253 0.0
C125 C 0.50196 0.5 0.52208 0.0
H126 H 0.3711 0.44933 0.46957 0.0
C127 C 0.5426 0.4871 0.48411 0.0
C128 C 0.52183 0.46138 0.44033 0.0
H129 H 0.51989 0.52007 0.55518 0.0
H130 H 0.59004 0.49881 0.48865 0.0
C131 C 0.45938 0.44787 0.43592 0.0
C132 C 0.47304 0.98465 0.01519 0.0
C133 C 0.43256 0.99011 0.05455 0.0
H134 H 0.51181 0.02837 0.95223 0.0
C135 C 0.39706 0.04428 0.05861 0.0
H136 H 0.50194 0.94402 0.01167 0.0
C137 C 0.40238 0.09227 0.02457 0.0
C138 C 0.44463 0.08814 0.98629 0.0
H139 H 0.3661 0.05021 0.08892 0.0
H140 H 0.37452 0.13348 0.02909 0.0
C141 C 0.4795 0.03345 0.98169 0.0
C142 C 0.95998 0.01888 0.48317 0.0
C143 C 0.98139 0.04453 0.43957 0.0
H144 H 0.98168 0.98547 0.55434 0.0
C145 C 0.04397 0.05778 0.43573 0.0
H146 H 0.91244 0.00734 0.48731 0.0
C147 C 0.08417 0.04472 0.47422 0.0
C148 C 0.06283 0.01775 0.51739 0.0
H149 H 0.06225 0.07709 0.40249 0.0
H150 H 0.13189 0.05543 0.47003 0.0
C151 C 1.0001 0.0056 0.52145 0.0
C152 C 0.23304 0.72481 0.2574 0.0
C153 C 0.20647 0.70457 0.21371 0.0
H154 H 0.29913 0.78076 0.2922 0.0
C155 C 0.2299 0.72761 0.16956 0.0
H156 H 0.21653 0.70876 0.2923 0.0
C157 C 0.27859 0.76992 0.16948 0.0
C158 C 0.30449 0.79028 0.21357 0.0
H159 H 0.21005 0.71386 0.1352 0.0
H160 H 0.29631 0.78602 0.13501 0.0
C161 C 0.28061 0.76701 0.25735 0.0
C162 C 0.20676 0.6932 0.64014 0.0
C163 C 0.26932 0.68892 0.63078 0.0
H164 H 0.13069 0.75373 0.65222 0.0
C165 C 0.30101 0.74213 0.61648 0.0
H166 H 0.18181 0.65276 0.65208 0.0
C167 C 0.27129 0.79991 0.61555 0.0
C168 C 0.21018 0.80491 0.63006 0.0
H169 H 0.34955 0.7399 0.61017 0.0
H170 H 0.29769 0.84126 0.6087 0.0
C171 C 0.1775 0.75083 0.64017 0.0
C172 C 0.72159 0.23834 0.94372 0.0
C173 C 0.69228 0.22486 0.89955 0.0
H174 H 0.8036 0.27014 0.97827 0.0
C175 C 0.72218 0.23821 0.8557 0.0
H176 H 0.69888 0.22979 0.978 0.0
C177 C 0.78002 0.26483 0.85588 0.0
C178 C 0.81005 0.27701 0.8999 0.0
H179 H 0.69994 0.22989 0.82116 0.0
H180 H 0.80219 0.27392 0.82144 0.0
C181 C 0.78079 0.26251 0.94388 0.0
C182 C 0.69302 0.2452 0.25464 0.0
C183 C 0.69606 0.28977 0.29162 0.0
H184 H 0.73201 0.16498 0.22214 0.0
C185 C 0.7405 0.28274 0.32826 0.0
H186 H 0.65926 0.249 0.22606 0.0
C187 C 0.78347 0.234 0.32586 0.0
C188 C 0.78286 0.19238 0.28645 0.0
H189 H 0.74443 0.31694 0.35692 0.0
H190 H 0.8184 0.23049 0.35349 0.0
C191 C 0.73568 0.1975 0.25203 0.0
C192 C 0.80216 0.59409 0.23989 0.0
C193 C 0.79124 0.544 0.27119 0.0
H194 H 0.86638 0.64053 0.19481 0.0
C195 C 0.84081 0.5092 0.28894 0.0
H196 H 0.76469 0.62134 0.22549 0.0
C197 C 0.8997 0.52035 0.27123 0.0
C198 C 0.90882 0.56587 0.23546 0.0
H199 H 0.83328 0.46962 0.31242 0.0
H200 H 0.93667 0.48993 0.28205 0.0
C201 C 0.86026 0.60463 0.22196 0.0
C202 C 0.43566 0.35033 0.72151 0.0
C203 C 0.4097 0.40814 0.73263 0.0
H204 H 0.4831 0.27076 0.74735 0.0
C205 C 0.40795 0.42811 0.78137 0.0
H206 H 0.43766 0.33342 0.68443 0.0
C207 C 0.43308 0.39065 0.81827 0.0
C208 C 0.46116 0.33404 0.80618 0.0
H209 H 0.38768 0.47243 0.79077 0.0
H210 H 0.43269 0.4068 0.85557 0.0
C211 C 0.46168 0.31424 0.75765 0.0
C212 C 0.61085 0.97458 0.26922 0.0
C213 C 0.60097 0.93067 0.23239 0.0
H214 H 0.6781 0.02283 0.31133 0.0
C215 C 0.64899 0.89187 0.21775 0.0
H216 H 0.57428 0.00491 0.28098 0.0
C217 C 0.7073 0.90082 0.23582 0.0
C218 C 0.71903 0.94957 0.26821 0.0
H219 H 0.64225 0.85711 0.18982 0.0
H220 H 0.74433 0.87356 0.22075 0.0
C221 C 0.66997 0.98427 0.28697 0.0
C222 C 0.06965 0.11028 0.8185 0.0
C223 C 0.04003 0.16608 0.80648 0.0
H224 H 0.11705 0.02983 0.79087 0.0
C225 C 0.03881 0.18596 0.75794 0.0
H226 H 0.07073 0.09414 0.8558 0.0
C227 C 0.06584 0.15077 0.72176 0.0
C228 C 0.09336 0.09373 0.73285 0.0
H229 H 0.01633 0.22891 0.74771 0.0
H230 H 0.06338 0.16764 0.68466 0.0
C231 C 0.09562 0.07361 0.78154 0.0
C232 C 0.13991 0.33622 0.72842 0.0
C233 C 0.09802 0.36356 0.76092 0.0
H234 H 0.21458 0.35104 0.6797 0.0
C235 C 0.08941 0.42803 0.75953 0.0
H236 H 0.14717 0.28644 0.72855 0.0
C237 C 0.12827 0.46494 0.73161 0.0
C238 C 0.17558 0.43787 0.70415 0.0
H239 H 0.05777 0.45038 0.78422 0.0
H240 H 0.12559 0.5149 0.73563 0.0
C241 C 0.1782 0.37312 0.69999 0.0
C242 C 0.62213 0.64453 0.24877 0.0
C243 C 0.57927 0.59718 0.24352 0.0
H244 H 0.64169 0.74036 0.23777 0.0
C245 C 0.52917 0.60621 0.21274 0.0
H246 H 0.6612 0.63833 0.27231 0.0
C247 C 0.51779 0.66517 0.19297 0.0
C248 C 0.55668 0.71474 0.20399 0.0
H249 H 0.49556 0.57012 0.20848 0.0
H250 H 0.47493 0.67367 0.17466 0.0
C251 C 0.61129 0.70274 0.22864 0.0
C252 C 0.41264 0.06887 0.76112 0.0
C253 C 0.40513 0.1335 0.76096 0.0
H254 H 0.37543 0.9818 0.73871 0.0
C255 C 0.36419 0.16038 0.72746 0.0
H256 H 0.44346 0.04689 0.78668 0.0
C257 C 0.32584 0.12313 0.69934 0.0
C258 C 0.3273 0.05849 0.70491 0.0
H259 H 0.35768 0.21026 0.72651 0.0
H260 H 0.29025 0.14511 0.67808 0.0
C261 C 0.37361 0.03163 0.73358 0.0
C262 C 0.99416 0.83289 0.19541 0.0
C263 C 0.95521 0.78368 0.20731 0.0
H264 H 0.01667 0.92833 0.20923 0.0
C265 C 0.90118 0.79626 0.23248 0.0
H266 H 0.03664 0.82388 0.17671 0.0
C267 C 0.89074 0.85492 0.25186 0.0
C268 C 0.93344 0.90223 0.2454 0.0
H269 H 0.87079 0.75892 0.24232 0.0
H270 H 0.85196 0.86164 0.27559 0.0
C271 C 0.98317 0.89234 0.21442 0.0
loop_
_geom_bond_atom_site_label_1
_geom_bond_atom_site_label_2
_geom_bond_distance
_geom_bond_site_symmetry_2
_ccdc_geom_bond_type
Co0 O1 2.216 . S
Co0 O2 2.091 1_455 S
Co0 O4 2.004 1_455 S
Co0 O10 2.021 . S
Co0 O12 2.137 1_455 S
Co0 O13 2.244 . S
O1 Co0 2.216 . S
O1 C8 1.247 . S
O2 Co0 2.091 1_655 S
O2 C8 1.261 1_655 S
C3 O12 1.247 . S
C3 O13 1.272 1_655 S
O4 Co0 2.004 1_655 S
O4 C9 1.259 . S
Co5 O6 2.061 . S
Co5 O11 2.052 . S
Co5 O13 2.135 . S
O6 Co5 2.061 . S
O6 C9 1.235 1_455 S
C7 O10 1.238 . S
C7 O11 1.241 . S
C8 O1 1.247 . S
C8 O2 1.261 1_455 S
C9 O4 1.259 . S
C9 O6 1.235 1_655 S
O10 Co0 2.021 . S
O10 C7 1.238 . S
O11 Co5 2.052 . S
O11 C7 1.241 . S
O12 Co0 2.137 1_655 S
O12 C3 1.247 . S
O13 Co0 2.244 . S
O13 C3 1.272 1_455 S
O13 Co5 2.135 . S
Co14 O15 2.216 . S
Co14 O16 2.091 . S
Co14 O18 2.004 . S
Co14 O24 2.021 . S
Co14 O26 2.137 . S
Co14 O27 2.244 . S
O15 Co14 2.216 . S
O15 C22 1.247 . S
O16 Co14 2.091 . S
O16 C22 1.261 . S
C17 O26 1.247 . S
C17 O27 1.272 . S
O18 Co14 2.004 . S
O18 C23 1.259 . S
Co19 O20 2.061 . S
Co19 O25 2.052 . S
Co19 O27 2.135 . S
O20 Co19 2.061 . S
O20 C23 1.235 . S
C21 O24 1.238 . S
C21 O25 1.241 . S
C22 O15 1.247 . S
C22 O16 1.261 . S
C23 O18 1.259 . S
C23 O20 1.235 . S
O24 Co14 2.021 . S
O24 C21 1.238 . S
O25 Co19 2.052 . S
O25 C21 1.241 . S
O26 Co14 2.137 . S
O26 C17 1.247 . S
O27 Co14 2.244 . S
O27 C17 1.272 . S
O27 Co19 2.135 . S
Co28 O29 2.216 . S
Co28 O30 2.091 . S
Co28 O32 2.004 . S
Co28 O38 2.021 . S
Co28 O40 2.137 . S
Co28 O41 2.244 . S
O29 Co28 2.216 . S
O29 C36 1.247 . S
O30 Co28 2.091 . S
O30 C36 1.261 . S
C31 O40 1.247 . S
C31 O41 1.272 . S
O32 Co28 2.004 . S
O32 C37 1.259 . S
Co33 O34 2.061 . S
Co33 O39 2.052 . S
Co33 O41 2.135 . S
O34 Co33 2.061 . S
O34 C37 1.235 . S
C35 O38 1.238 . S
C35 O39 1.241 . S
C36 O29 1.247 . S
C36 O30 1.261 . S
C37 O32 1.259 . S
C37 O34 1.235 . S
O38 Co28 2.021 . S
O38 C35 1.238 . S
O39 Co33 2.052 . S
O39 C35 1.241 . S
O40 Co28 2.137 . S
O40 C31 1.247 . S
O41 Co28 2.244 . S
O41 C31 1.272 . S
O41 Co33 2.135 . S
Co42 O43 2.216 . S
Co42 O44 2.091 1_565 S
Co42 O46 2.004 1_565 S
Co42 O52 2.021 . S
Co42 O54 2.137 1_565 S
Co42 O55 2.244 . S
O43 Co42 2.216 . S
O43 C50 1.247 . S
O44 Co42 2.091 1_545 S
O44 C50 1.261 1_545 S
C45 O54 1.247 . S
C45 O55 1.272 1_545 S
O46 Co42 2.004 1_545 S
O46 C51 1.259 . S
Co47 O48 2.061 . S
Co47 O53 2.052 . S
Co47 O55 2.135 . S
O48 Co47 2.061 . S
O48 C51 1.235 1_565 S
C49 O52 1.238 . S
C49 O53 1.241 . S
C50 O43 1.247 . S
C50 O44 1.261 1_565 S
C51 O46 1.259 . S
C51 O48 1.235 1_545 S
O52 Co42 2.021 . S
O52 C49 1.238 . S
O53 Co47 2.052 . S
O53 C49 1.241 . S
O54 Co42 2.137 1_545 S
O54 C45 1.247 . S
O55 Co42 2.244 . S
O55 C45 1.272 1_565 S
O55 Co47 2.135 . S
Co56 O57 2.216 . S
Co56 O58 2.091 . S
Co56 O60 2.004 1_655 S
Co56 O66 2.021 . S
Co56 O68 2.137 . S
Co56 O69 2.244 1_655 S
O57 Co56 2.216 . S
O57 C64 1.247 . S
O58 Co56 2.091 . S
O58 C64 1.261 . S
C59 O68 1.247 1_455 S
C59 O69 1.272 . S
O60 Co56 2.004 1_455 S
O60 C65 1.259 . S
Co61 O62 2.061 . S
Co61 O67 2.052 . S
Co61 O69 2.135 . S
O62 Co61 2.061 . S
O62 C65 1.235 . S
C63 O66 1.238 1_455 S
C63 O67 1.241 . S
C64 O57 1.247 . S
C64 O58 1.261 . S
C65 O60 1.259 . S
C65 O62 1.235 . S
O66 Co56 2.021 . S
O66 C63 1.238 1_655 S
O67 Co61 2.052 . S
O67 C63 1.241 . S
O68 Co56 2.137 . S
O68 C59 1.247 1_655 S
O69 Co56 2.244 1_455 S
O69 C59 1.272 . S
O69 Co61 2.135 . S
Co70 O71 2.216 . S
Co70 O72 2.091 . S
Co70 O74 2.004 . S
Co70 O80 2.021 . S
Co70 O82 2.137 . S
Co70 O83 2.244 . S
O71 Co70 2.216 . S
O71 C78 1.247 . S
O72 Co70 2.091 . S
O72 C78 1.261 . S
C73 O82 1.247 . S
C73 O83 1.272 . S
O74 Co70 2.004 . S
O74 C79 1.259 . S
Co75 O76 2.061 . S
Co75 O81 2.052 . S
Co75 O83 2.135 . S
O76 Co75 2.061 . S
O76 C79 1.235 . S
C77 O80 1.238 . S
C77 O81 1.241 . S
C78 O71 1.247 . S
C78 O72 1.261 . S
C79 O74 1.259 . S
C79 O76 1.235 . S
O80 Co70 2.021 . S
O80 C77 1.238 . S
O81 Co75 2.052 . S
O81 C77 1.241 . S
O82 Co70 2.137 . S
O82 C73 1.247 . S
O83 Co70 2.244 . S
O83 C73 1.272 . S
O83 Co75 2.135 . S
Co84 O85 2.216 . S
Co84 O86 2.091 . S
Co84 O88 2.004 . S
Co84 O94 2.021 . S
Co84 O96 2.137 . S
Co84 O97 2.244 . S
O85 Co84 2.216 . S
O85 C92 1.247 . S
O86 Co84 2.091 . S
O86 C92 1.261 . S
C87 O96 1.247 . S
C87 O97 1.272 . S
O88 Co84 2.004 . S
O88 C93 1.259 . S
Co89 O90 2.061 . S
Co89 O95 2.052 . S
Co89 O97 2.135 . S
O90 Co89 2.061 . S
O90 C93 1.235 . S
C91 O94 1.238 . S
C91 O95 1.241 . S
C92 O85 1.247 . S
C92 O86 1.261 . S
C93 O88 1.259 . S
C93 O90 1.235 . S
O94 Co84 2.021 . S
O94 C91 1.238 . S
O95 Co89 2.052 . S
O95 C91 1.241 . S
O96 Co84 2.137 . S
O96 C87 1.247 . S
O97 Co84 2.244 . S
O97 C87 1.272 . S
O97 Co89 2.135 . S
Co98 O99 2.216 . S
Co98 O100 2.091 1_545 S
Co98 O102 2.004 1_545 S
Co98 O108 2.021 . S
Co98 O110 2.137 1_545 S
Co98 O111 2.244 . S
O99 Co98 2.216 . S
O99 C106 1.247 . S
O100 Co98 2.091 1_565 S
O100 C106 1.261 1_565 S
C101 O110 1.247 . S
C101 O111 1.272 1_565 S
O102 Co98 2.004 1_565 S
O102 C107 1.259 . S
Co103 O104 2.061 . S
Co103 O109 2.052 . S
Co103 O111 2.135 . S
O104 Co103 2.061 . S
O104 C107 1.235 1_545 S
C105 O108 1.238 . S
C105 O109 1.241 . S
C106 O99 1.247 . S
C106 O100 1.261 1_545 S
C107 O102 1.259 . S
C107 O104 1.235 1_565 S
O108 Co98 2.021 . S
O108 C105 1.238 . S
O109 Co103 2.052 . S
O109 C105 1.241 . S
O110 Co98 2.137 1_565 S
O110 C101 1.247 . S
O111 Co98 2.244 . S
O111 C101 1.272 1_545 S
O111 Co103 2.135 . S
C112 C113 1.388 . S
C112 H116 0.950 . S
C112 C121 1.390 1_655 S
C113 C112 1.388 . S
C113 C115 1.386 1_656 S
H114 C121 0.950 . S
C115 C113 1.386 1_454 S
C115 C117 1.390 . S
C115 H119 0.950 . S
H116 C112 0.950 . S
C117 C115 1.390 . S
C117 C118 1.387 . S
C117 H120 0.950 . S
C118 C117 1.387 . S
C118 C121 1.387 1_554 S
H119 C115 0.950 . S
H120 C117 0.950 . S
C121 C112 1.390 1_455 S
C121 H114 0.950 . S
C121 C118 1.387 1_556 S
C122 C123 1.387 . S
C122 H126 0.950 . S
C122 C131 1.390 . S
C123 C122 1.387 . S
C123 C125 1.387 . S
H124 C131 0.950 . S
C125 C123 1.387 . S
C125 C127 1.390 . S
C125 H129 0.950 . S
H126 C122 0.950 . S
C127 C125 1.390 . S
C127 C128 1.387 . S
C127 H130 0.950 . S
C128 C127 1.387 . S
C128 C131 1.387 . S
H129 C125 0.950 . S
H130 C127 0.950 . S
C131 C122 1.390 . S
C131 H124 0.950 . S
C131 C128 1.387 . S
C132 C133 1.387 1_556 S
C132 H136 0.950 . S
C132 C141 1.390 1_565 S
C133 C132 1.387 1_554 S
C133 C135 1.387 1_565 S
H134 C141 0.950 . S
C135 C133 1.387 1_545 S
C135 C137 1.390 . S
C135 H139 0.950 . S
H136 C132 0.950 . S
C137 C135 1.390 . S
C137 C138 1.387 1_554 S
C137 H140 0.950 . S
C138 C137 1.387 1_556 S
C138 C141 1.387 . S
H139 C135 0.950 . S
H140 C137 0.950 . S
C141 C132 1.390 1_545 S
C141 H134 0.950 . S
C141 C138 1.387 . S
C142 C143 1.387 1_565 S
C142 H146 0.950 . S
C142 C151 1.390 1_655 S
C143 C142 1.387 1_545 S
C143 C145 1.387 . S
H144 C151 0.950 . S
C145 C143 1.387 . S
C145 C147 1.390 1_655 S
C145 H149 0.950 . S
H146 C142 0.950 . S
C147 C145 1.390 1_455 S
C147 C148 1.387 1_545 S
C147 H150 0.950 . S
C148 C147 1.387 1_565 S
C148 C151 1.387 . S
H149 C145 0.950 . S
H150 C147 0.950 . S
C151 C142 1.390 1_455 S
C151 H144 0.950 . S
C151 C148 1.387 . S
C152 C153 1.387 . S
C152 H156 0.950 . S
C152 C161 1.390 . S
C153 C152 1.387 . S
C153 C155 1.387 . S
H154 C161 0.950 . S
C155 C153 1.387 . S
C155 C157 1.390 . S
C155 H159 0.950 . S
H156 C152 0.950 . S
C157 C155 1.390 . S
C157 C158 1.387 . S
C157 H160 0.950 . S
C158 C157 1.387 . S
C158 C161 1.387 . S
H159 C155 0.950 . S
H160 C157 0.950 . S
C161 C152 1.390 . S
C161 H154 0.950 . S
C161 C158 1.387 . S
C162 C163 1.387 . S
C162 H166 0.950 . S
C162 C171 1.390 . S
C163 C162 1.387 . S
C163 C165 1.387 . S
H164 C171 0.950 . S
C165 C163 1.387 . S
C165 C167 1.390 . S
C165 H169 0.950 . S
H166 C162 0.950 . S
C167 C165 1.390 . S
C167 C168 1.387 . S
C167 H170 0.950 . S
C168 C167 1.387 . S
C168 C171 1.387 . S
H169 C165 0.950 . S
H170 C167 0.950 . S
C171 C162 1.390 . S
C171 H164 0.950 . S
C171 C168 1.387 . S
C172 C173 1.387 . S
C172 H176 0.950 . S
C172 C181 1.390 . S
C173 C172 1.387 . S
C173 C175 1.387 . S
H174 C181 0.950 . S
C175 C173 1.387 . S
C175 C177 1.390 . S
C175 H179 0.950 . S
H176 C172 0.950 . S
C177 C175 1.390 . S
C177 C178 1.387 . S
C177 H180 0.950 . S
C178 C177 1.387 . S
C178 C181 1.387 . S
H179 C175 0.950 . S
H180 C177 0.950 . S
C181 C172 1.390 . S
C181 H174 0.950 . S
C181 C178 1.387 . S
C182 C183 1.387 . S
C182 H186 0.950 . S
C182 C191 1.390 . S
C183 C182 1.387 . S
C183 C185 1.387 . S
H184 C191 0.950 . S
C185 C183 1.387 . S
C185 C187 1.390 . S
C185 H189 0.950 . S
H186 C182 0.950 . S
C187 C185 1.390 . S
C187 C188 1.387 . S
C187 H190 0.950 . S
C188 C187 1.387 . S
C188 C191 1.387 . S
H189 C185 0.950 . S
H190 C187 0.950 . S
C191 C182 1.390 . S
C191 H184 0.950 . S
C191 C188 1.387 . S
C192 C193 1.387 . S
C192 H196 0.950 . S
C192 C201 1.390 . S
C193 C192 1.387 . S
C193 C195 1.387 . S
H194 C201 0.950 . S
C195 C193 1.387 . S
C195 C197 1.390 . S
C195 H199 0.950 . S
H196 C192 0.950 . S
C197 C195 1.390 . S
C197 C198 1.387 . S
C197 H200 0.950 . S
C198 C197 1.387 . S
C198 C201 1.387 . S
H199 C195 0.950 . S
H200 C197 0.950 . S
C201 C192 1.390 . S
C201 H194 0.950 . S
C201 C198 1.387 . S
C202 C203 1.387 . S
C202 H206 0.950 . S
C202 C211 1.390 . S
C203 C202 1.387 . S
C203 C205 1.387 . S
H204 C211 0.950 . S
C205 C203 1.387 . S
C205 C207 1.390 . S
C205 H209 0.950 . S
H206 C202 0.950 . S
C207 C205 1.390 . S
C207 C208 1.387 . S
C207 H210 0.950 . S
C208 C207 1.387 . S
C208 C211 1.387 . S
H209 C205 0.950 . S
H210 C207 0.950 . S
C211 C202 1.390 . S
C211 H204 0.950 . S
C211 C208 1.387 . S
C212 C213 1.387 . S
C212 H216 0.950 . S
C212 C221 1.390 . S
C213 C212 1.387 . S
C213 C215 1.387 . S
H214 C221 0.950 . S
C215 C213 1.387 . S
C215 C217 1.390 . S
C215 H219 0.950 . S
H216 C212 0.950 . S
C217 C215 1.390 . S
C217 C218 1.387 . S
C217 H220 0.950 . S
C218 C217 1.387 . S
C218 C221 1.387 . S
H219 C215 0.950 . S
H220 C217 0.950 . S
C221 C212 1.390 . S
C221 H214 0.950 . S
C221 C218 1.387 . S
C222 C223 1.387 . S
C222 H226 0.950 . S
C222 C231 1.390 . S
C223 C222 1.387 . S
C223 C225 1.387 . S
H224 C231 0.950 . S
C225 C223 1.387 . S
C225 C227 1.390 . S
C225 H229 0.950 . S
H226 C222 0.950 . S
C227 C225 1.390 . S
C227 C228 1.387 . S
C227 H230 0.950 . S
C228 C227 1.387 . S
C228 C231 1.387 . S
H229 C225 0.950 . S
H230 C227 0.950 . S
C231 C222 1.390 . S
C231 H224 0.950 . S
C231 C228 1.387 . S
C232 C233 1.387 . S
C232 H236 0.950 . S
C232 C241 1.390 . S
C233 C232 1.387 . S
C233 C235 1.387 . S
H234 C241 0.950 . S
C235 C233 1.387 . S
C235 C237 1.390 . S
C235 H239 0.950 . S
H236 C232 0.950 . S
C237 C235 1.390 . S
C237 C238 1.387 . S
C237 H240 0.950 . S
C238 C237 1.387 . S
C238 C241 1.387 . S
H239 C235 0.950 . S
H240 C237 0.950 . S
C241 C232 1.390 . S
C241 H234 0.950 . S
C241 C238 1.387 . S
C242 C243 1.387 . S
C242 H246 0.950 . S
C242 C251 1.390 . S
C243 C242 1.387 . S
C243 C245 1.387 . S
H244 C251 0.950 . S
C245 C243 1.387 . S
C245 C247 1.390 . S
C245 H249 0.950 . S
H246 C242 0.950 . S
C247 C245 1.390 . S
C247 C248 1.387 . S
C247 H250 0.950 . S
C248 C247 1.387 . S
C248 C251 1.387 . S
H249 C245 0.950 . S
H250 C247 0.950 . S
C251 C242 1.390 . S
C251 H244 0.950 . S
C251 C248 1.387 . S
C252 C253 1.387 . S
C252 H256 0.950 1_545 S
C252 C261 1.390 . S
C253 C252 1.387 . S
C253 C255 1.387 . S
H254 C261 0.950 1_565 S
C255 C253 1.387 . S
C255 C257 1.390 . S
C255 H259 0.950 . S
H256 C252 0.950 1_565 S
C257 C255 1.390 . S
C257 C258 1.387 . S
C257 H260 0.950 . S
C258 C257 1.387 . S
C258 C261 1.387 . S
H259 C255 0.950 . S
H260 C257 0.950 . S
C261 C252 1.390 . S
C261 H254 0.950 1_545 S
C261 C258 1.387 . S
C262 C263 1.387 . S
C262 H266 0.950 1_655 S
C262 C271 1.390 . S
C263 C262 1.387 . S
C263 C265 1.387 . S
H264 C271 0.950 . S
C265 C263 1.387 . S
C265 C267 1.390 . S
C265 H269 0.950 . S
H266 C262 0.950 1_455 S
C267 C265 1.390 . S
C267 C268 1.387 . S
C267 H270 0.950 . S
C268 C267 1.387 . S
C268 C271 1.387 . S
H269 C265 0.950 . S
H270 C267 0.950 . S
C271 C262 1.390 . S
C271 H264 0.950 . S
C271 C268 1.387 . S
C113 C63 1.585 1_655 S
C118 C8 1.621 . S
C123 C22 1.612 . S
C128 C78 1.611 . S
C133 C36 1.620 . S
C138 C91 1.585 . S
C143 C106 1.613 . S
C148 C50 1.614 . S
C153 C7 1.550 . S
C158 C35 1.550 . S
C163 C21 1.491 . S
C168 C49 1.491 . S
C173 C92 1.442 . S
C178 C64 1.442 . S
C183 C77 1.437 . S
C188 C105 1.437 . S
C193 C79 1.212 . S
C198 C3 1.225 . S
C203 C17 1.168 . S
C208 C87 1.170 . S
C213 C31 1.225 . S
C218 C107 1.215 . S
C223 C59 1.173 . S
C228 C45 1.171 . S
C233 C65 1.116 . S
C238 C23 1.113 . S
C243 C73 1.182 . S
C248 C37 1.154 . S
C253 C93 1.117 . S
C258 C51 1.110 . S
C263 C9 1.153 . S
C268 C101 1.182 . S
