# Generated by pormake.
# Topology fnt, (5)-cn, num edge types: 1
# Building blocks:
#     Node 0, Type 0, BuildingBlock: XOMCOT_clean_sbu_1, # of connection points: 5
#     Node 1, Type 0, BuildingBlock: XOMCOT_clean_sbu_1, # of connection points: 5
#     Node 2, Type 0, BuildingBlock: XOMCOT_clean_sbu_1, # of connection points: 5
#     Node 3, Type 0, BuildingBlock: XOMCOT_clean_sbu_1, # of connection points: 5
#     Node 4, Type 0, BuildingBlock: XOMCOT_clean_sbu_1, # of connection points: 5
#     Node 5, Type 0, BuildingBlock: XOMCOT_clean_sbu_1, # of connection points: 5
#     Edge 6, Type (0, 0), BuildingBlock: FUNLAD_clean_linker_1, # of connection points: 2
#     Edge 7, Type (0, 0), BuildingBlock: FUNLAD_clean_linker_1, # of connection points: 2
#     Edge 8, Type (0, 0), BuildingBlock: FUNLAD_clean_linker_1, # of connection points: 2
#     Edge 9, Type (0, 0), BuildingBlock: FUNLAD_clean_linker_1, # of connection points: 2
#     Edge 10, Type (0, 0), BuildingBlock: FUNLAD_clean_linker_1, # of connection points: 2
#     Edge 11, Type (0, 0), BuildingBlock: FUNLAD_clean_linker_1, # of connection points: 2
#     Edge 12, Type (0, 0), BuildingBlock: FUNLAD_clean_linker_1, # of connection points: 2
#     Edge 13, Type (0, 0), BuildingBlock: FUNLAD_clean_linker_1, # of connection points: 2
#     Edge 14, Type (0, 0), BuildingBlock: FUNLAD_clean_linker_1, # of connection points: 2
#     Edge 15, Type (0, 0), BuildingBlock: FUNLAD_clean_linker_1, # of connection points: 2
#     Edge 16, Type (0, 0), BuildingBlock: FUNLAD_clean_linker_1, # of connection points: 2
#     Edge 17, Type (0, 0), BuildingBlock: FUNLAD_clean_linker_1, # of connection points: 2
#     Edge 18, Type (0, 0), BuildingBlock: FUNLAD_clean_linker_1, # of connection points: 2
#     Edge 19, Type (0, 0), BuildingBlock: FUNLAD_clean_linker_1, # of connection points: 2
#     Edge 20, Type (0, 0), BuildingBlock: FUNLAD_clean_linker_1, # of connection points: 2
# Relax obj value: 0.138
# Max RMSD: 0.169
# Mean RMSD: 0.169
data_MOF--net-fnt--node1-XOMCOT_clean_sbu_1--edge1-FUNLAD_clean_linker_1
_symmetry_space_group_name_H-M    P1
_symmetry_Int_Tables_number       1
_symmetry_cell_setting            triclinic
loop_
_symmetry_equiv_pos_as_xyz
'x, y, z'
_cell_length_a     28.532045
_cell_length_b     28.569985
_cell_length_c     49.558579
_cell_angle_alpha  90.154537
_cell_angle_beta   89.723288
_cell_angle_gamma 119.6429
loop_
_atom_site_label
_atom_site_type_symbol
_atom_site_fract_x
_atom_site_fract_y
_atom_site_fract_z
_atom_type_partial_charge
C0 C 0.15341 0.35788 0.07481 0.0
C1 C 0.13027 0.35132 0.1 0.0
N2 N 0.12132 0.3038 0.11011 0.0
N3 N 0.15876 0.31461 0.06893 0.0
C4 C 0.13908 0.28255 0.09092 0.0
H5 H 0.16529 0.39194 0.06153 0.0
Co6 Co 0.18793 0.3031 0.037 0.0
C7 C 0.11562 0.19038 1.02328 0.0
O8 O 0.11587 0.20662 0.99853 0.0
N9 N 0.21869 0.29041 1.00495 0.0
C10 C 0.26192 0.25713 0.98079 0.0
C11 C 0.24814 0.26514 1.00621 0.0
C12 C 0.21512 0.29691 0.97793 0.0
N13 N 0.24081 0.27679 0.96288 0.0
O14 O 0.2461 0.30665 0.05756 0.0
H15 H 0.25734 0.2508 1.02448 0.0
H16 H 0.19183 0.31324 0.96904 0.0
O17 O 0.14278 0.22461 0.04168 0.0
C18 C 0.27937 0.35701 0.05949 0.0
O19 O 0.26488 0.39082 0.0499 0.0
N20 N 0.13533 0.30877 1.01749 0.0
C21 C 0.07363 0.35651 1.00512 0.0
C22 C 0.04956 0.30522 1.01696 0.0
C23 C 0.08141 0.28206 1.02333 0.0
C24 C 0.15815 0.35683 1.00429 0.0
C25 C 0.12773 0.38051 0.99705 0.0
H26 H 0.06411 0.24625 0.0357 0.0
H27 H 0.20142 0.37949 1.00158 0.0
H28 H 0.13765 0.24414 0.09287 0.0
H29 H 0.12072 0.37941 0.10985 0.0
H30 H 0.28427 0.23667 0.97612 0.0
H31 H 0.00794 0.28572 1.02365 0.0
H32 H 0.14776 0.41946 0.98726 0.0
C33 C 0.81312 0.16889 0.41867 0.0
C34 C 0.79856 0.15651 0.44534 0.0
N35 N 0.82131 0.12816 0.45472 0.0
N36 N 0.84488 0.14849 0.41108 0.0
C37 C 0.84951 0.12433 0.43365 0.0
H38 H 0.79896 0.18896 0.40523 0.0
Co39 Co 0.86855 0.14881 0.37524 0.0
C40 C 0.87553 0.04739 0.38321 0.0
O41 O 0.82787 0.01541 0.37291 0.0
N42 N 0.89374 0.14959 0.33922 0.0
C43 C 0.90849 0.12187 0.29957 0.0
C44 C 0.88408 0.10598 0.32435 0.0
C45 C 0.92384 0.19176 0.32254 0.0
N46 N 0.9338 0.17596 0.29844 0.0
O47 O 0.93691 0.2081 0.38437 0.0
H48 H 0.85909 0.06475 0.33047 0.0
H49 H 0.93801 0.23341 0.32771 0.0
O50 O 0.89342 0.09809 0.38495 0.0
C51 C 0.929 0.24796 0.38134 0.0
O52 O 0.8821 0.23857 0.37193 0.0
N53 N 0.79793 0.09601 0.36585 0.0
C54 C 0.68737 0.05058 0.35808 0.0
C55 C 0.7071 0.03284 0.37913 0.0
C56 C 0.7626 0.05694 0.38307 0.0
C57 C 0.7788 0.11122 0.34434 0.0
C58 C 0.72378 0.08832 0.33977 0.0
H59 H 0.77676 0.04678 0.40108 0.0
H60 H 0.80579 0.14488 0.33188 0.0
H61 H 0.87069 0.10172 0.43435 0.0
H62 H 0.77084 0.16511 0.45632 0.0
H63 H 0.90589 0.09531 0.28332 0.0
H64 H 0.67991 0.00396 0.39379 0.0
H65 H 0.7101 0.10265 0.32302 0.0
C66 C 0.64683 0.89989 0.77876 0.0
C67 C 0.65729 0.88772 0.8041 0.0
N68 N 0.69821 0.87705 0.80212 0.0
N69 N 0.68102 0.89721 0.76073 0.0
C70 C 0.71201 0.88345 0.7757 0.0
H71 H 0.61448 0.90763 0.77379 0.0
Co72 Co 0.6776 0.90131 0.72288 0.0
C73 C 0.78448 0.92495 0.70237 0.0
O74 O 0.76114 0.89353 0.68157 0.0
N75 N 0.67354 0.90589 0.68454 0.0
C76 C 0.65247 0.88897 0.64097 0.0
C77 C 0.642 0.86755 0.66658 0.0
C78 C 0.70198 0.9506 0.66916 0.0
N79 N 0.69053 0.94125 0.6426 0.0
O80 O 0.68497 0.97168 0.72573 0.0
H81 H 0.61284 0.82643 0.67139 0.0
H82 H 0.7314 0.98932 0.67727 0.0
O83 O 0.7561 0.93118 0.7206 0.0
C84 C 0.63642 0.96244 0.72449 0.0
O85 O 0.59765 0.91214 0.72246 0.0
N86 N 0.66226 0.8298 0.72082 0.0
C87 C 0.61287 0.71814 0.72021 0.0
C88 C 0.6692 0.74936 0.72157 0.0
C89 C 0.69345 0.80577 0.72194 0.0
C90 C 0.60756 0.79942 0.72159 0.0
C91 C 0.58208 0.74382 0.72085 0.0
H92 H 0.73665 0.8293 0.72385 0.0
H93 H 0.5833 0.81875 0.72232 0.0
H94 H 0.74258 0.87575 0.76725 0.0
H95 H 0.63459 0.88451 0.82221 0.0
H96 H 0.63277 0.86758 0.62272 0.0
H97 H 0.69399 0.73042 0.7222 0.0
H98 H 0.53847 0.72111 0.72113 0.0
C99 C 0.76844 0.61518 0.10101 0.0
C100 C 0.7889 0.61927 0.12656 0.0
N101 N 0.83686 0.66505 0.1279 0.0
N102 N 0.80304 0.65828 0.08626 0.0
C103 C 0.8444 0.68782 0.10325 0.0
H104 H 0.73151 0.58179 0.09348 0.0
Co105 Co 0.79707 0.66935 0.0494 0.0
C106 C 0.87189 0.78598 0.04056 0.0
O107 O 0.88533 0.77578 1.01675 0.0
N108 N 0.79033 0.68003 1.01193 0.0
C109 C 0.7916 0.67674 0.96699 0.0
C110 C 0.80188 0.65808 0.99049 0.0
C111 C 0.77177 0.71103 1.00069 0.0
N112 N 0.773 0.71044 0.97341 0.0
O113 O 0.73 0.66752 0.05628 0.0
H114 H 0.8167 0.62998 0.99144 0.0
H115 H 0.75854 0.73452 1.01233 0.0
O116 O 0.8379 0.74741 0.05536 0.0
C117 C 0.69377 0.61915 0.05122 0.0
O118 O 0.70901 0.58612 0.04121 0.0
N119 N 0.85815 0.66279 0.04308 0.0
C120 C 0.92986 0.62415 0.03566 0.0
C121 C 0.94908 0.67902 0.04077 0.0
C122 C 0.91234 0.69758 0.04503 0.0
C123 C 0.83928 0.60937 0.03885 0.0
C124 C 0.87407 0.58938 1.03451 0.0
H125 H 0.92778 0.73906 0.05067 0.0
H126 H 0.79635 0.58197 0.03837 0.0
H127 H 0.88036 0.72458 0.09745 0.0
H128 H 0.77064 0.58963 0.14241 0.0
H129 H 0.7967 0.66546 0.9468 0.0
H130 H 0.99197 0.70694 0.04213 0.0
H131 H 0.85692 0.54699 1.02992 0.0
C132 C 0.16051 0.75166 0.43103 0.0
C133 C 0.17002 0.7738 0.45651 0.0
N134 N 0.15381 0.81081 0.45718 0.0
N135 N 0.13823 0.77435 0.41567 0.0
C136 C 0.13449 0.81009 0.43228 0.0
H137 H 0.17153 0.72262 0.42388 0.0
Co138 Co 0.12574 0.76433 0.37842 0.0
C139 C 0.06994 0.82402 0.36484 0.0
O140 O 0.09968 0.84202 0.3429 0.0
N141 N 0.11279 0.75321 0.34057 0.0
C142 C 0.12039 0.75179 0.29579 0.0
C143 C 0.14794 0.76545 0.31982 0.0
C144 C 0.06385 0.73032 0.32842 0.0
N145 N 0.06746 0.7302 0.30125 0.0
O146 O 0.0689 0.69281 0.3846 0.0
H147 H 0.19104 0.78324 0.32152 0.0
H148 H 0.02617 0.71558 0.33932 0.0
O149 O 0.07599 0.79249 0.38085 0.0
C150 C 0.08983 0.66266 0.38197 0.0
O151 O 0.14094 0.6849 0.37502 0.0
N152 N 0.18605 0.83207 0.3731 0.0
C153 C 0.2895 0.91994 0.3688 0.0
C154 C 0.24592 0.92764 0.3751 0.0
C155 C 0.19434 0.88281 0.37792 0.0
C156 C 0.2285 0.82426 0.36802 0.0
C157 C 0.28011 0.86737 0.36497 0.0
H158 H 0.16223 0.88932 0.38493 0.0
H159 H 0.22197 0.78376 0.36617 0.0
H160 H 0.1203 0.83712 0.42596 0.0
H161 H 0.18948 0.76479 0.47276 0.0
H162 H 0.13819 0.75716 0.27592 0.0
H163 H 0.25201 0.96767 0.37874 0.0
H164 H 0.31219 0.8592 0.3596 0.0
C165 C 0.38762 0.21018 0.73546 0.0
C166 C 0.39175 0.22651 0.76188 0.0
N167 N 0.34176 0.20778 0.77189 0.0
N168 N 0.33514 0.18056 0.72879 0.0
C169 C 0.308 0.17968 0.75151 0.0
H170 H 0.4209 0.22044 0.72176 0.0
Co171 Co 0.31142 0.15422 0.69387 0.0
C172 C 0.19363 0.1069 0.69588 0.0
O173 O 0.19654 0.13099 0.67292 0.0
N174 N 0.28805 0.12712 0.65782 0.0
C175 C 0.26453 0.11807 0.61433 0.0
C176 C 0.28139 0.15208 0.63613 0.0
C177 C 0.27452 0.07739 0.6482 0.0
N178 N 0.26013 0.07095 0.62192 0.0
O179 O 0.32444 0.0961 0.70124 0.0
H180 H 0.28667 0.19211 0.63578 0.0
H181 H 0.27494 0.04601 0.66018 0.0
O182 O 0.23664 0.11269 0.70687 0.0
C183 C 0.37231 0.11109 0.69312 0.0
O184 O 0.39812 0.15642 0.67954 0.0
N185 N 0.30706 0.21605 0.68721 0.0
C186 C 0.3355 0.32386 0.6851 0.0
C187 C 0.29104 0.28772 0.70056 0.0
C188 C 0.27724 0.23346 0.70132 0.0
C189 C 0.35064 0.25131 0.67239 0.0
C190 C 0.36437 0.30501 0.67023 0.0
H191 H 0.2458 0.20697 0.71502 0.0
H192 H 0.37619 0.23783 0.663 0.0
H193 H 0.26452 0.15968 0.75293 0.0
H194 H 0.42874 0.25143 0.77278 0.0
H195 H 0.25693 0.12796 0.59436 0.0
H196 H 0.2692 0.30184 0.71298 0.0
H197 H 0.40002 0.33247 0.65886 0.0
H198 H 0.3527 0.35082 0.06716 0.0
C199 C 0.33636 0.37802 0.06694 0.0
H200 H 0.35281 0.45872 0.06913 0.0
H201 H 0.5939 0.56394 0.10843 0.0
H202 H 0.55104 0.55778 0.15171 0.0
H203 H 0.45201 0.50622 0.1565 0.0
H204 H 0.39517 0.45994 0.11804 0.0
C205 C 0.36939 0.4317 0.06884 0.0
C206 C 0.42903 0.45781 0.06665 0.0
C207 C 0.46163 0.48521 0.08917 0.0
C208 C 0.51874 0.51545 0.08634 0.0
C209 C 0.55035 0.54109 0.10935 0.0
C210 C 0.52626 0.53778 0.13433 0.0
C211 C 0.47048 0.50874 0.13703 0.0
C212 C 0.43834 0.48256 0.1148 0.0
H213 H 0.62127 0.62577 0.0619 0.0
C214 C 0.63615 0.59809 0.05769 0.0
H215 H 0.61779 0.51706 0.05374 0.0
H216 H 0.37824 0.41413 1.0185 0.0
H217 H 0.42103 0.4208 0.9754 0.0
H218 H 0.52004 0.47219 0.97069 0.0
H219 H 0.5767 0.51759 1.00915 0.0
C220 C 0.60246 0.54437 0.05805 0.0
C221 C 0.54297 0.51869 0.06087 0.0
C222 C 0.51033 0.49168 0.03827 0.0
C223 C 0.45331 0.46153 0.04108 0.0
C224 C 0.42177 0.43659 1.01786 0.0
C225 C 0.44583 0.4403 0.99285 0.0
C226 C 0.50154 0.46922 0.9902 0.0
C227 C 0.53359 0.49486 1.01252 0.0
H228 H 0.01206 0.31342 0.39082 0.0
C229 C 0.97091 0.30396 0.38675 0.0
H230 H 0.91624 0.33327 0.38246 0.0
H231 H 0.04218 0.55775 0.43592 0.0
H232 H 0.9853 0.50761 0.47374 0.0
H233 H 0.93327 0.40831 0.47284 0.0
H234 H 0.93834 0.35854 0.43417 0.0
C235 C 0.95787 0.3432 0.38549 0.0
C236 C -0.0028 0.4013 0.38812 0.0
C237 C -0.00635 0.42977 0.41077 0.0
C238 C 0.02291 0.48697 0.4111 0.0
C239 C 0.01965 0.51434 0.43428 0.0
C240 C 0.98741 0.48603 0.45622 0.0
C241 C 0.95814 0.43012 0.45572 0.0
C242 C 0.96118 0.40208 0.43335 0.0
H243 H 0.01489 0.58431 0.38755 0.0
C244 C 0.05859 0.60404 0.38629 0.0
H245 H 0.12784 0.59509 0.38652 0.0
H246 H 0.01417 0.3588 0.34174 0.0
H247 H 0.07207 0.40866 0.30432 0.0
H248 H 0.12307 0.50797 0.30487 0.0
H249 H 0.11616 0.55788 0.3428 0.0
C250 C 0.08413 0.57515 0.38794 0.0
C251 C 0.05493 0.51543 0.38852 0.0
C252 C 0.06054 0.48688 0.3664 0.0
C253 C 0.03142 0.42966 0.36614 0.0
C254 C 0.03592 0.4022 0.34327 0.0
C255 C 0.06895 0.43036 0.32155 0.0
C256 C 0.09767 0.48625 0.32187 0.0
C257 C 0.09347 0.51439 0.34388 0.0
H258 H 0.3787 0.04269 0.71029 0.0
C259 C 0.40092 0.08189 0.70068 0.0
H260 H 0.47672 0.14399 0.68711 0.0
H261 H 0.55384 0.01578 0.77152 0.0
H262 H 0.51279 0.04285 0.80685 0.0
H263 H 0.46103 0.08832 0.79561 0.0
H264 H 0.44933 0.10632 0.7491 0.0
C265 C 0.45467 0.1049 0.69685 0.0
C266 C 0.48644 0.07832 0.70412 0.0
C267 C 0.49386 0.06934 0.73152 0.0
C268 C 0.5246 0.0441 0.73805 0.0
C269 C 0.53066 0.03463 0.7655 0.0
C270 C 0.50759 0.05022 0.78596 0.0
C271 C 0.47841 0.07579 0.77963 0.0
C272 C 0.4717 0.08556 0.75279 0.0
H273 H 0.65328 0.04679 0.71888 0.0
C274 C 0.62218 0.00553 0.72281 0.0
H275 H 0.53906 0.95093 0.7286 0.0
H276 H 0.48329 0.09314 0.64968 0.0
H277 H 0.52648 0.06834 0.61464 0.0
H278 H 0.57988 0.02471 0.62602 0.0
H279 H 0.59073 0.00603 0.67246 0.0
C280 C 0.56969 0.99196 0.72376 0.0
C281 C 0.54878 0.02894 0.7173 0.0
C282 C 0.5435 0.04021 0.68998 0.0
C283 C 0.51244 0.0651 0.6834 0.0
C284 C 0.50683 0.07483 0.65589 0.0
C285 C 0.53122 0.06058 0.63553 0.0
C286 C 0.56126 0.036 0.64194 0.0
C287 C 0.56724 0.02559 0.66876 0.0
H288 H 0.59356 0.63734 0.73478 0.0
C289 C 0.58489 0.6588 0.7193 0.0
H290 H 0.53776 0.65475 0.68599 0.0
H291 H 0.46605 0.39683 0.71125 0.0
H292 H 0.56 0.42201 0.70516 0.0
H293 H 0.62919 0.51678 0.69743 0.0
H294 H 0.60497 0.58689 0.69614 0.0
C295 C 0.54506 0.63207 0.70139 0.0
C296 C 0.50405 0.57426 0.70463 0.0
C297 C 0.51904 0.53373 0.70458 0.0
C298 C 0.47892 0.47889 0.70805 0.0
C299 C 0.49482 0.43909 0.7084 0.0
C300 C 0.5486 0.45296 0.70489 0.0
C301 C 0.58756 0.50632 0.70061 0.0
C302 C 0.57316 0.54633 0.70025 0.0
H303 H 0.3671 0.40578 0.66906 0.0
C304 C 0.35837 0.38231 0.68751 0.0
H305 H 0.37858 0.38335 0.72848 0.0
H306 H 0.46064 0.64165 0.70603 0.0
H307 H 0.36639 0.61524 0.71026 0.0
H308 H 0.29702 0.51957 0.71466 0.0
H309 H 0.32204 0.44979 0.715 0.0
C310 C 0.38207 0.40693 0.71062 0.0
C311 C 0.42386 0.46457 0.71025 0.0
C312 C 0.40872 0.50474 0.71005 0.0
C313 C 0.44881 0.55973 0.70735 0.0
C314 C 0.4323 0.59912 0.70765 0.0
C315 C 0.37811 0.58453 0.71016 0.0
C316 C 0.33906 0.5307 0.71263 0.0
C317 C 0.35396 0.49108 0.71269 0.0
H318 H 0.00681 0.62991 1.0219 0.0
C319 C 0.96765 0.60339 1.03092 0.0
H320 H 0.91683 0.52628 0.04773 0.0
H321 H 0.03568 0.44588 0.96215 0.0
H322 H 0.98668 0.46477 0.92795 0.0
H323 H 0.93659 0.51189 0.93973 0.0
H324 H 0.93575 0.54102 0.98563 0.0
C325 C 0.95383 0.5522 0.03682 0.0
C326 C 0.9876 0.52823 1.02911 0.0
C327 C 0.98693 0.51091 1.00218 0.0
C328 C 0.01459 0.48252 0.9955 0.0
C329 C 0.01439 0.46663 0.9684 0.0
C330 C 0.98655 0.47734 0.94857 0.0
C331 C 0.95843 0.50395 0.95519 0.0
C332 C 0.95839 0.52057 0.98164 0.0
H333 H 0.00069 0.3656 1.00539 0.0
C334 C 0.04455 0.3875 1.00517 0.0
H335 H 0.11429 0.46318 1.01183 0.0
H336 H -0.00222 0.55731 0.0823 0.0
H337 H 0.04536 0.53691 0.1167 0.0
H338 H 0.09168 0.4858 0.10538 0.0
H339 H 0.09083 0.4549 0.05968 0.0
C340 C 0.07083 0.44113 1.0093 0.0
C341 C 0.0418 0.4707 1.01587 0.0
C342 C 0.04295 0.48854 0.04272 0.0
C343 C 0.01579 0.51739 0.04933 0.0
C344 C 0.01734 0.5347 0.07628 0.0
C345 C 0.0446 0.52339 0.0962 0.0
C346 C 0.07075 0.4947 0.08982 0.0
C347 C 0.07005 0.47733 0.06345 0.0
H348 H 0.35027 0.00388 0.35774 0.0
C349 C 0.34463 0.96629 0.36609 0.0
H350 H 0.38222 0.9254 0.38283 0.0
H351 H 0.57952 0.05603 0.30147 0.0
H352 H 0.5153 0.01604 0.26479 0.0
H353 H 0.41739 0.96827 0.27387 0.0
H354 H 0.38311 0.96066 0.31934 0.0
C355 C 0.38749 0.9611 0.37239 0.0
C356 C 0.44352 0.00158 0.36553 0.0
C357 C 0.46229 0.00603 0.33855 0.0
C358 C 0.51857 0.03251 0.3333 0.0
C359 C 0.53697 0.03581 0.30643 0.0
C360 C 0.50062 0.01312 0.28525 0.0
C361 C 0.4455 0.98629 0.29036 0.0
C362 C 0.42632 0.98237 0.31665 0.0
H363 H 0.60112 -0.00476 0.36637 0.0
C364 C 0.62959 0.03403 0.35763 0.0
H365 H 0.6396 0.1085 0.34316 0.0
H366 H 0.42 0.00759 0.4185 0.0
H367 H 0.48478 0.04973 0.45483 0.0
H368 H 0.58265 0.09485 0.44562 0.0
H369 H 0.61629 0.09813 0.40006 0.0
C370 C 0.61222 0.06825 0.35057 0.0
C371 C 0.55522 0.05293 0.355 0.0
C372 C 0.53662 0.05307 0.3815 0.0
C373 C 0.48049 0.0272 0.38677 0.0
C374 C 0.46249 0.0264 0.41353 0.0
C375 C 0.49918 0.0506 0.43448 0.0
C376 C 0.55428 0.07602 0.4293 0.0
C377 C 0.57304 0.07742 0.40313 0.0
H378 H 0.05977 0.1071 1.01182 0.0
C379 C 0.08071 0.13265 1.02899 0.0
H380 H 0.09319 0.13393 0.07115 0.0
H381 H 0.86632 0.90982 1.03317 0.0
H382 H 0.82886 0.96943 1.02952 0.0
H383 H 0.88459 0.06655 0.03914 0.0
H384 H 0.97861 0.10474 0.05209 0.0
C385 C 0.07214 0.11015 0.05356 0.0
C386 C 0.03503 0.05095 0.0562 0.0
C387 C 0.9795 0.0287 0.05011 0.0
C388 C 0.94695 0.97243 0.04541 0.0
C389 C 0.8926 0.95199 0.03759 0.0
C390 C 0.87059 0.98581 0.03536 0.0
C391 C 0.902 0.04052 0.04072 0.0
C392 C 0.95587 0.06195 0.04798 0.0
H393 H 0.88606 0.84981 0.07029 0.0
C394 C 0.89915 0.8417 0.05107 0.0
H395 H 0.95486 0.87371 1.01886 0.0
H396 H 0.13714 0.0796 0.0723 0.0
H397 H 0.17342 0.01936 0.07901 0.0
H398 H 0.11657 0.92145 0.07192 0.0
H399 H 0.02313 0.88311 0.05797 0.0
C400 C 0.94012 0.88199 0.03752 0.0
C401 C 0.96972 0.93835 0.0477 0.0
C402 C 0.02373 0.95995 0.05653 0.0
C403 C 0.05641 0.01634 0.06083 0.0
C404 C 0.11066 0.03703 0.06881 0.0
C405 C 0.13189 0.00291 0.07278 0.0
C406 C 0.09989 0.94777 0.06877 0.0
C407 C 0.04643 0.92631 0.06069 0.0
H408 H 0.00392 0.82454 0.38813 0.0
C409 C 0.03432 0.84532 0.37263 0.0
H410 H 0.07086 0.9118 0.34615 0.0
H411 H 0.87662 0.95355 0.33503 0.0
H412 H 0.88013 0.92065 0.29041 0.0
H413 H 0.93924 0.88233 0.28085 0.0
H414 H -0.00431 0.87735 0.31579 0.0
C415 C 0.04043 0.8909 0.36163 0.0
C416 C 0.00359 0.91206 0.36815 0.0
C417 C 0.97023 0.91378 0.34754 0.0
C418 C 0.9353 0.93468 0.35321 0.0
C419 C 0.90323 0.93711 0.33206 0.0
C420 C 0.90494 0.9185 0.30628 0.0
C421 C 0.9383 0.89705 0.30088 0.0
C422 C 0.97061 0.89458 0.32116 0.0
H423 H 0.95544 0.05458 0.38962 0.0
C424 C 0.91262 0.0262 0.38749 0.0
H425 H 0.85265 0.945 0.38222 0.0
H426 H 0.06734 0.92086 0.41138 0.0
H427 H 0.06263 0.95237 0.45624 0.0
H428 H -0.00232 0.98324 0.46678 0.0
H429 H 0.93763 0.98357 0.4323 0.0
C430 C 0.89529 0.97329 0.38507 0.0
C431 C 0.93333 0.95316 0.37956 0.0
C432 C 0.96683 0.95171 0.40016 0.0
C433 C 0.00279 0.93197 0.39433 0.0
C434 C 0.03778 0.93344 0.4149 0.0
C435 C 0.03577 0.9518 0.44072 0.0
C436 C -0.00069 0.96933 0.44664 0.0
C437 C 0.96517 0.96943 0.42666 0.0
H438 H 0.13919 0.05929 0.72953 0.0
C439 C 0.14117 0.07755 0.71005 0.0
H440 H 0.09899 0.09443 0.68029 0.0
H441 H 0.8832 0.8908 0.73053 0.0
H442 H 0.92358 0.8353 0.71999 0.0
H443 H 0.01862 0.87678 0.70537 0.0
H444 H 0.07409 0.97372 0.70176 0.0
C445 C 0.09645 0.07436 0.69928 0.0
C446 C 0.04292 0.04856 0.71297 0.0
C447 C 0.01112 0.9917 0.7146 0.0
C448 C 0.95569 0.96761 0.72192 0.0
C449 C 0.92496 0.91086 0.7241 0.0
C450 C 0.94772 0.87865 0.71828 0.0
C451 C 0.00127 0.90203 0.71013 0.0
C452 C 0.03276 0.95784 0.7082 0.0
H453 H 0.86482 0.94673 0.68703 0.0
C454 C 0.84351 0.95023 0.7045 0.0
H455 H 0.8517 0.9804 0.74425 0.0
H456 H 0.09503 0.15828 0.71674 0.0
H457 H 0.0548 0.21339 0.72842 0.0
H458 H 0.95787 0.17148 0.73935 0.0
H459 H 0.9006 0.07426 0.73884 0.0
C460 C 0.87176 0.97557 0.72665 0.0
C461 C 0.9317 0.00023 0.72637 0.0
C462 C 0.96462 0.05694 0.72728 0.0
C463 C 0.02034 0.0811 0.72062 0.0
C464 C 0.05228 0.13795 0.72123 0.0
C465 C 0.02976 0.16999 0.728 0.0
C466 C 0.97519 0.14639 0.73418 0.0
C467 C 0.94275 0.09054 0.73378 0.0
H468 H 0.22084 0.29034 0.92207 0.0
C469 C 0.24111 0.27344 0.93371 0.0
H470 H 0.28331 0.23001 0.93178 0.0
H471 H 0.20924 0.11488 0.82154 0.0
H472 H 0.15085 0.04201 0.85154 0.0
H473 H 0.14206 0.05939 0.89956 0.0
H474 H 0.1918 0.14982 0.91794 0.0
C475 C 0.26458 0.24887 0.92059 0.0
C476 C 0.26216 0.24106 0.89069 0.0
C477 C 0.23201 0.18823 0.88002 0.0
C478 C 0.23656 0.17829 0.85221 0.0
C479 C 0.20697 0.12483 0.84241 0.0
C480 C 0.17331 0.08258 0.85941 0.0
C481 C 0.16841 0.09235 0.88646 0.0
C482 C 0.19734 0.14442 0.89677 0.0
H483 H 0.36276 0.2359 0.8133 0.0
C484 C 0.32989 0.21835 0.79884 0.0
H485 H 0.24713 0.19184 0.79283 0.0
H486 H 0.32429 0.34754 0.90408 0.0
H487 H 0.37782 0.4212 0.87348 0.0
H488 H 0.38124 0.40469 0.82481 0.0
H489 H 0.33193 0.31417 0.80653 0.0
C490 C 0.28092 0.20959 0.80665 0.0
C491 C 0.27124 0.22124 0.83499 0.0
C492 C 0.29825 0.27471 0.84521 0.0
C493 C 0.29451 0.28452 0.87316 0.0
C494 C 0.32446 0.3379 0.88299 0.0
C495 C 0.35548 0.38059 0.86563 0.0
C496 C 0.35754 0.37128 0.83824 0.0
C497 C 0.32934 0.31908 0.82804 0.0
H498 H 0.09206 0.23932 0.14003 0.0
C499 C 0.09694 0.27875 0.13558 0.0
H500 H 0.08482 0.34159 0.15032 0.0
H501 H 0.90779 0.13133 0.22269 0.0
H502 H 0.86296 0.09422 0.18021 0.0
H503 H 0.90344 0.13993 0.13721 0.0
H504 H 0.98914 0.22275 0.13641 0.0
C505 C 0.07909 0.30164 0.15379 0.0
C506 C 0.05318 0.27462 0.17988 0.0
C507 C 0.00246 0.22652 0.18008 0.0
C508 C 0.97869 0.20056 0.20498 0.0
C509 C 0.92804 0.15255 0.20445 0.0
C510 C 0.90164 0.1309 0.18019 0.0
C511 C 0.92445 0.1566 0.15598 0.0
C512 C 0.97402 0.20398 0.15581 0.0
H513 H 0.96768 0.25028 0.27474 0.0
C514 C 0.96216 0.20985 0.27562 0.0
H515 H 0.97631 0.1521 0.25632 0.0
H516 H 0.14871 0.36794 0.18699 0.0
H517 H 0.19291 0.40605 0.22954 0.0
H518 H 0.1527 0.36027 0.27257 0.0
H519 H 0.06798 0.27636 0.27337 0.0
C520 C 0.98143 0.19229 0.25539 0.0
C521 C 0.005 0.22303 0.22982 0.0
C522 C 0.05504 0.27192 0.22968 0.0
C523 C 0.07877 0.29795 0.20474 0.0
C524 C 0.12879 0.34657 0.20526 0.0
C525 C 0.15473 0.36882 0.22955 0.0
C526 C 0.13206 0.34307 0.25378 0.0
C527 C 0.08308 0.29502 0.25396 0.0
H528 H 0.8229 0.0691 0.48211 0.0
C529 C 0.81117 0.09981 0.48013 0.0
H530 H 0.77326 0.1385 0.49926 0.0
H531 H 0.61944 0.95186 0.57654 0.0
H532 H 0.55632 0.95548 0.54524 0.0
H533 H 0.58856 0.01199 0.50438 0.0
H534 H 0.68403 0.06554 0.49467 0.0
C535 C 0.78562 0.10833 0.50095 0.0
C536 C 0.76701 0.07296 0.52546 0.0
C537 C 0.71087 0.04125 0.53076 0.0
C538 C 0.69217 0.00767 0.55405 0.0
C539 C 0.63589 0.97724 0.55893 0.0
C540 C 0.59916 0.97907 0.54117 0.0
C541 C 0.61731 0.01097 0.5182 0.0
C542 C 0.67236 0.04169 0.51294 0.0
H543 H 0.73759 0.02266 0.62611 0.0
C544 C 0.71414 0.98018 0.62099 0.0
H545 H 0.68509 0.92324 0.58933 0.0
H546 H 0.87709 0.1334 0.5236 0.0
H547 H 0.94018 0.12794 0.55426 0.0
H548 H 0.90777 0.06488 0.5927 0.0
H549 H 0.81213 0.00767 0.60105 0.0
C550 C 0.70855 0.96542 0.59478 0.0
C551 C 0.72941 0.00502 0.57199 0.0
C552 C 0.7856 0.03694 0.56682 0.0
C553 C 0.80438 0.07169 0.54387 0.0
C554 C 0.86062 0.1049 0.54004 0.0
C555 C 0.8973 0.1024 0.55759 0.0
C556 C 0.87905 0.06701 0.57928 0.0
C557 C 0.82395 0.03453 0.58392 0.0
H558 H 0.74745 0.84319 0.81653 0.0
C559 C 0.71879 0.85594 0.82256 0.0
H560 H 0.67496 0.86316 0.85537 0.0
H561 H 0.70923 0.66461 0.9004 0.0
H562 H 0.65059 0.61245 0.86374 0.0
H563 H 0.62178 0.65537 0.8295 0.0
H564 H 0.65166 0.75069 0.83159 0.0
C565 C 0.70193 0.84904 0.84849 0.0
C566 C 0.71988 0.82286 0.86899 0.0
C567 C 0.70165 0.7668 0.86763 0.0
C568 C 0.7178 0.74188 0.88761 0.0
C569 C 0.69872 0.6858 0.88571 0.0
C570 C 0.66477 0.65525 0.86483 0.0
C571 C 0.64858 0.67941 0.84554 0.0
C572 C 0.6664 0.73438 0.8469 0.0
H573 H 0.73316 0.75673 0.96327 0.0
C574 C 0.75681 0.73945 0.95529 0.0
H575 H 0.7945 0.72934 0.92072 0.0
H576 H 0.76041 0.93035 0.87824 0.0
H577 H 0.81903 0.98269 0.91497 0.0
H578 H 0.84876 0.94009 0.94895 0.0
H579 H 0.81977 0.84493 0.94661 0.0
C580 C 0.7708 0.74626 0.92892 0.0
C581 C 0.75158 0.77269 0.90923 0.0
C582 C 0.76948 0.82869 0.91071 0.0
C583 C 0.7531 0.85356 0.89077 0.0
C584 C 0.77151 0.90944 0.89282 0.0
C585 C 0.80532 0.94 0.91375 0.0
C586 C 0.82202 0.916 0.9329 0.0
C587 C 0.80472 0.86114 0.93141 0.0
H588 H 0.91563 0.71784 0.1458 0.0
C589 C 0.87546 0.68426 0.14969 0.0
H590 H 0.82436 0.62758 0.17868 0.0
H591 H 0.00763 0.62741 0.24867 0.0
H592 H 0.96597 0.53833 0.22867 0.0
H593 H 0.89651 0.5121 0.19351 0.0
H594 H 0.86833 0.57474 0.17808 0.0
C595 C 0.8639 0.66155 0.17441 0.0
C596 C 0.90569 0.678 0.19596 0.0
C597 C 0.92134 0.64063 0.20503 0.0
C598 C 0.96144 0.65571 0.22536 0.0
C599 C 0.97707 0.61795 0.23351 0.0
C600 C 0.95357 0.56669 0.22215 0.0
C601 C 0.91446 0.55192 0.20236 0.0
C602 C 0.89851 0.58829 0.19375 0.0
H603 H 0.98232 0.68712 0.28989 0.0
C604 C 0.02329 0.71177 0.28243 0.0
H605 H 0.07146 0.75296 0.2486 0.0
H606 H 0.88043 0.75725 0.18602 0.0
H607 H 0.92212 0.84618 0.20621 0.0
H608 H -0.00638 0.87312 0.24031 0.0
H609 H 0.02334 0.81095 0.25476 0.0
C610 C 0.03125 0.72579 0.25616 0.0
C611 C 0.98582 0.70811 0.2367 0.0
C612 C 0.9695 0.74513 0.22804 0.0
C613 C 0.929 0.72993 0.20791 0.0
C614 C 0.91212 0.76713 0.20056 0.0
C615 C 0.93545 0.81823 0.21214 0.0
C616 C 0.97564 0.83337 0.23138 0.0
C617 C 0.99248 0.79737 0.2394 0.0
H618 H 0.25562 0.99391 0.61265 0.0
C619 C 0.2464 0.02427 0.60532 0.0
H620 H 0.21412 0.04786 0.57325 0.0
H621 H 0.26247 0.93244 0.47876 0.0
H622 H 0.32949 0.0255 0.47055 0.0
H623 H 0.34528 0.09609 0.50384 0.0
H624 H 0.29442 0.07391 0.54565 0.0
C625 C 0.22351 0.0179 0.58084 0.0
C626 C 0.21539 0.97396 0.56176 0.0
C627 C 0.24494 0.98759 0.53716 0.0
C628 C 0.23527 0.94697 0.51775 0.0
C629 C 0.26687 0.96172 0.49386 0.0
C630 C 0.30585 0.01502 0.48895 0.0
C631 C 0.31478 0.05475 0.5077 0.0
C632 C 0.28504 0.04143 0.53159 0.0
H633 H 0.14951 0.87912 0.47421 0.0
C634 C 0.1611 0.84883 0.47826 0.0
H635 H 0.19466 0.81957 0.50723 0.0
H636 H 0.14971 0.93385 0.60613 0.0
H637 H 0.08365 0.84047 0.6146 0.0
H638 H 0.06813 0.76992 0.58133 0.0
H639 H 0.11833 0.79245 0.53922 0.0
C640 C 0.18411 0.85008 0.50215 0.0
C641 C 0.19528 0.89271 0.52269 0.0
C642 C 0.16665 0.87884 0.54754 0.0
C643 C 0.17627 0.91951 0.56697 0.0
C644 C 0.1452 0.90461 0.591 0.0
C645 C 0.10685 0.85112 0.59606 0.0
C646 C 0.09807 0.8114 0.57731 0.0
C647 C 0.12728 0.82487 0.55325 0.0
loop_
_geom_bond_atom_site_label_1
_geom_bond_atom_site_label_2
_geom_bond_distance
_geom_bond_site_symmetry_2
_ccdc_geom_bond_type
C0 C1 1.351 . S
C0 N3 1.368 . S
C0 H5 0.931 . S
C1 C0 1.351 . S
C1 N2 1.373 . S
C1 H29 0.930 . S
N2 C1 1.373 . S
N2 C4 1.340 . S
N3 C0 1.368 . S
N3 C4 1.321 . S
N3 Co6 2.135 . S
C4 N2 1.340 . S
C4 N3 1.321 . S
C4 H28 0.930 . S
H5 C0 0.931 . S
Co6 N3 2.135 . S
Co6 N9 2.121 1_554 S
Co6 O14 2.055 . S
Co6 O17 2.039 . S
Co6 N20 2.140 . S
C7 O8 1.227 . S
C7 O17 1.265 . S
O8 C7 1.227 . S
N9 Co6 2.121 1_556 S
N9 C11 1.375 . S
N9 C12 1.313 . S
C10 C11 1.338 . S
C10 N13 1.377 . S
C10 H30 0.930 . S
C11 N9 1.375 . S
C11 C10 1.338 . S
C11 H15 0.931 . S
C12 N9 1.313 . S
C12 N13 1.344 . S
C12 H16 0.930 . S
N13 C10 1.377 . S
N13 C12 1.344 . S
O14 Co6 2.055 . S
O14 C18 1.253 . S
H15 C11 0.931 . S
H16 C12 0.930 . S
O17 Co6 2.039 . S
O17 C7 1.265 . S
C18 O14 1.253 . S
C18 O19 1.227 . S
O19 C18 1.227 . S
N20 Co6 2.140 . S
N20 C23 1.346 . S
N20 C24 1.345 1_554 S
C21 C22 1.387 1_556 S
C21 C25 1.391 . S
C22 C21 1.387 1_554 S
C22 C23 1.369 . S
C22 H31 0.929 . S
C23 N20 1.346 . S
C23 C22 1.369 . S
C23 H26 0.928 . S
C24 N20 1.345 1_556 S
C24 C25 1.371 . S
C24 H27 0.931 . S
C25 C21 1.391 . S
C25 C24 1.371 . S
C25 H32 0.930 . S
H26 C23 0.928 . S
H27 C24 0.931 . S
H28 C4 0.930 . S
H29 C1 0.930 . S
H30 C10 0.930 . S
H31 C22 0.929 . S
H32 C25 0.930 . S
C33 C34 1.351 . S
C33 N36 1.368 . S
C33 H38 0.931 . S
C34 C33 1.351 . S
C34 N35 1.373 . S
C34 H62 0.930 . S
N35 C34 1.373 . S
N35 C37 1.340 . S
N36 C33 1.368 . S
N36 C37 1.321 . S
N36 Co39 2.135 . S
C37 N35 1.340 . S
C37 N36 1.321 . S
C37 H61 0.930 . S
H38 C33 0.931 . S
Co39 N36 2.135 . S
Co39 N42 2.121 . S
Co39 O47 2.055 . S
Co39 O50 2.039 . S
Co39 N53 2.140 . S
C40 O41 1.227 . S
C40 O50 1.265 . S
O41 C40 1.227 . S
N42 Co39 2.121 . S
N42 C44 1.375 . S
N42 C45 1.313 . S
C43 C44 1.338 . S
C43 N46 1.377 . S
C43 H63 0.930 . S
C44 N42 1.375 . S
C44 C43 1.338 . S
C44 H48 0.931 . S
C45 N42 1.313 . S
C45 N46 1.344 . S
C45 H49 0.930 . S
N46 C43 1.377 . S
N46 C45 1.344 . S
O47 Co39 2.055 . S
O47 C51 1.253 . S
H48 C44 0.931 . S
H49 C45 0.930 . S
O50 Co39 2.039 . S
O50 C40 1.265 . S
C51 O47 1.253 . S
C51 O52 1.227 . S
O52 C51 1.227 . S
N53 Co39 2.140 . S
N53 C56 1.346 . S
N53 C57 1.345 . S
C54 C55 1.387 . S
C54 C58 1.391 . S
C55 C54 1.387 . S
C55 C56 1.369 . S
C55 H64 0.929 . S
C56 N53 1.346 . S
C56 C55 1.369 . S
C56 H59 0.928 . S
C57 N53 1.345 . S
C57 C58 1.371 . S
C57 H60 0.931 . S
C58 C54 1.391 . S
C58 C57 1.371 . S
C58 H65 0.930 . S
H59 C56 0.928 . S
H60 C57 0.931 . S
H61 C37 0.930 . S
H62 C34 0.930 . S
H63 C43 0.930 . S
H64 C55 0.929 . S
H65 C58 0.930 . S
C66 C67 1.351 . S
C66 N69 1.368 . S
C66 H71 0.931 . S
C67 C66 1.351 . S
C67 N68 1.373 . S
C67 H95 0.930 . S
N68 C67 1.373 . S
N68 C70 1.340 . S
N69 C66 1.368 . S
N69 C70 1.321 . S
N69 Co72 2.135 . S
C70 N68 1.340 . S
C70 N69 1.321 . S
C70 H94 0.930 . S
H71 C66 0.931 . S
Co72 N69 2.135 . S
Co72 N75 2.121 . S
Co72 O80 2.055 . S
Co72 O83 2.039 . S
Co72 N86 2.140 . S
C73 O74 1.227 . S
C73 O83 1.265 . S
O74 C73 1.227 . S
N75 Co72 2.121 . S
N75 C77 1.375 . S
N75 C78 1.313 . S
C76 C77 1.338 . S
C76 N79 1.377 . S
C76 H96 0.930 . S
C77 N75 1.375 . S
C77 C76 1.338 . S
C77 H81 0.931 . S
C78 N75 1.313 . S
C78 N79 1.344 . S
C78 H82 0.930 . S
N79 C76 1.377 . S
N79 C78 1.344 . S
O80 Co72 2.055 . S
O80 C84 1.253 . S
H81 C77 0.931 . S
H82 C78 0.930 . S
O83 Co72 2.039 . S
O83 C73 1.265 . S
C84 O80 1.253 . S
C84 O85 1.227 . S
O85 C84 1.227 . S
N86 Co72 2.140 . S
N86 C89 1.346 . S
N86 C90 1.345 . S
C87 C88 1.387 . S
C87 C91 1.391 . S
C88 C87 1.387 . S
C88 C89 1.369 . S
C88 H97 0.929 . S
C89 N86 1.346 . S
C89 C88 1.369 . S
C89 H92 0.928 . S
C90 N86 1.345 . S
C90 C91 1.371 . S
C90 H93 0.931 . S
C91 C87 1.391 . S
C91 C90 1.371 . S
C91 H98 0.930 . S
H92 C89 0.928 . S
H93 C90 0.931 . S
H94 C70 0.930 . S
H95 C67 0.930 . S
H96 C76 0.930 . S
H97 C88 0.929 . S
H98 C91 0.930 . S
C99 C100 1.351 . S
C99 N102 1.368 . S
C99 H104 0.931 . S
C100 C99 1.351 . S
C100 N101 1.373 . S
C100 H128 0.930 . S
N101 C100 1.373 . S
N101 C103 1.340 . S
N102 C99 1.368 . S
N102 C103 1.321 . S
N102 Co105 2.135 . S
C103 N101 1.340 . S
C103 N102 1.321 . S
C103 H127 0.930 . S
H104 C99 0.931 . S
Co105 N102 2.135 . S
Co105 N108 2.121 1_554 S
Co105 O113 2.055 . S
Co105 O116 2.039 . S
Co105 N119 2.140 . S
C106 O107 1.227 . S
C106 O116 1.265 . S
O107 C106 1.227 . S
N108 Co105 2.121 1_556 S
N108 C110 1.375 . S
N108 C111 1.313 . S
C109 C110 1.338 . S
C109 N112 1.377 . S
C109 H129 0.930 . S
C110 N108 1.375 . S
C110 C109 1.338 . S
C110 H114 0.931 . S
C111 N108 1.313 . S
C111 N112 1.344 . S
C111 H115 0.930 . S
N112 C109 1.377 . S
N112 C111 1.344 . S
O113 Co105 2.055 . S
O113 C117 1.253 . S
H114 C110 0.931 . S
H115 C111 0.930 . S
O116 Co105 2.039 . S
O116 C106 1.265 . S
C117 O113 1.253 . S
C117 O118 1.227 . S
O118 C117 1.227 . S
N119 Co105 2.140 . S
N119 C122 1.346 . S
N119 C123 1.345 1_554 S
C120 C121 1.387 1_556 S
C120 C124 1.391 . S
C121 C120 1.387 1_554 S
C121 C122 1.369 . S
C121 H130 0.929 . S
C122 N119 1.346 . S
C122 C121 1.369 . S
C122 H125 0.928 . S
C123 N119 1.345 1_556 S
C123 C124 1.371 . S
C123 H126 0.931 . S
C124 C120 1.391 . S
C124 C123 1.371 . S
C124 H131 0.930 . S
H125 C122 0.928 . S
H126 C123 0.931 . S
H127 C103 0.930 . S
H128 C100 0.930 . S
H129 C109 0.930 . S
H130 C121 0.929 . S
H131 C124 0.930 . S
C132 C133 1.351 . S
C132 N135 1.368 . S
C132 H137 0.931 . S
C133 C132 1.351 . S
C133 N134 1.373 . S
C133 H161 0.930 . S
N134 C133 1.373 . S
N134 C136 1.340 . S
N135 C132 1.368 . S
N135 C136 1.321 . S
N135 Co138 2.135 . S
C136 N134 1.340 . S
C136 N135 1.321 . S
C136 H160 0.930 . S
H137 C132 0.931 . S
Co138 N135 2.135 . S
Co138 N141 2.121 . S
Co138 O146 2.055 . S
Co138 O149 2.039 . S
Co138 N152 2.140 . S
C139 O140 1.227 . S
C139 O149 1.265 . S
O140 C139 1.227 . S
N141 Co138 2.121 . S
N141 C143 1.375 . S
N141 C144 1.313 . S
C142 C143 1.338 . S
C142 N145 1.377 . S
C142 H162 0.930 . S
C143 N141 1.375 . S
C143 C142 1.338 . S
C143 H147 0.931 . S
C144 N141 1.313 . S
C144 N145 1.344 . S
C144 H148 0.930 . S
N145 C142 1.377 . S
N145 C144 1.344 . S
O146 Co138 2.055 . S
O146 C150 1.253 . S
H147 C143 0.931 . S
H148 C144 0.930 . S
O149 Co138 2.039 . S
O149 C139 1.265 . S
C150 O146 1.253 . S
C150 O151 1.227 . S
O151 C150 1.227 . S
N152 Co138 2.140 . S
N152 C155 1.346 . S
N152 C156 1.345 . S
C153 C154 1.387 . S
C153 C157 1.391 . S
C154 C153 1.387 . S
C154 C155 1.369 . S
C154 H163 0.929 . S
C155 N152 1.346 . S
C155 C154 1.369 . S
C155 H158 0.928 . S
C156 N152 1.345 . S
C156 C157 1.371 . S
C156 H159 0.931 . S
C157 C153 1.391 . S
C157 C156 1.371 . S
C157 H164 0.930 . S
H158 C155 0.928 . S
H159 C156 0.931 . S
H160 C136 0.930 . S
H161 C133 0.930 . S
H162 C142 0.930 . S
H163 C154 0.929 . S
H164 C157 0.930 . S
C165 C166 1.351 . S
C165 N168 1.368 . S
C165 H170 0.931 . S
C166 C165 1.351 . S
C166 N167 1.373 . S
C166 H194 0.930 . S
N167 C166 1.373 . S
N167 C169 1.340 . S
N168 C165 1.368 . S
N168 C169 1.321 . S
N168 Co171 2.135 . S
C169 N167 1.340 . S
C169 N168 1.321 . S
C169 H193 0.930 . S
H170 C165 0.931 . S
Co171 N168 2.135 . S
Co171 N174 2.121 . S
Co171 O179 2.055 . S
Co171 O182 2.039 . S
Co171 N185 2.140 . S
C172 O173 1.227 . S
C172 O182 1.265 . S
O173 C172 1.227 . S
N174 Co171 2.121 . S
N174 C176 1.375 . S
N174 C177 1.313 . S
C175 C176 1.338 . S
C175 N178 1.377 . S
C175 H195 0.930 . S
C176 N174 1.375 . S
C176 C175 1.338 . S
C176 H180 0.931 . S
C177 N174 1.313 . S
C177 N178 1.344 . S
C177 H181 0.930 . S
N178 C175 1.377 . S
N178 C177 1.344 . S
O179 Co171 2.055 . S
O179 C183 1.253 . S
H180 C176 0.931 . S
H181 C177 0.930 . S
O182 Co171 2.039 . S
O182 C172 1.265 . S
C183 O179 1.253 . S
C183 O184 1.227 . S
O184 C183 1.227 . S
N185 Co171 2.140 . S
N185 C188 1.346 . S
N185 C189 1.345 . S
C186 C187 1.387 . S
C186 C190 1.391 . S
C187 C186 1.387 . S
C187 C188 1.369 . S
C187 H196 0.929 . S
C188 N185 1.346 . S
C188 C187 1.369 . S
C188 H191 0.928 . S
C189 N185 1.345 . S
C189 C190 1.371 . S
C189 H192 0.931 . S
C190 C186 1.391 . S
C190 C189 1.371 . S
C190 H197 0.930 . S
H191 C188 0.928 . S
H192 C189 0.931 . S
H193 C169 0.930 . S
H194 C166 0.930 . S
H195 C175 0.930 . S
H196 C187 0.929 . S
H197 C190 0.930 . S
H198 C199 0.951 . S
C199 H198 0.951 . S
C199 C205 1.265 . S
H200 C205 0.950 . S
H201 C209 0.949 . S
H202 C210 0.950 . S
H203 C211 0.951 . S
H204 C212 0.951 . S
C205 C199 1.265 . S
C205 H200 0.950 . S
C205 C206 1.478 . S
C206 C205 1.478 . S
C206 C207 1.397 . S
C206 C223 1.394 1_554 S
C207 C206 1.397 . S
C207 C208 1.438 . S
C207 C212 1.429 . S
C208 C207 1.438 . S
C208 C209 1.428 . S
C208 C221 1.394 . S
C209 H201 0.949 . S
C209 C208 1.428 . S
C209 C210 1.345 . S
C210 H202 0.950 . S
C210 C209 1.345 . S
C210 C211 1.424 . S
C211 H203 0.951 . S
C211 C210 1.424 . S
C211 C212 1.347 . S
C212 H204 0.951 . S
C212 C207 1.429 . S
C212 C211 1.347 . S
H213 C214 0.951 . S
C214 H213 0.951 . S
C214 C220 1.265 . S
H215 C220 0.950 . S
H216 C224 0.949 . S
H217 C225 0.950 . S
H218 C226 0.951 . S
H219 C227 0.951 . S
C220 C214 1.265 . S
C220 H215 0.950 . S
C220 C221 1.478 . S
C221 C208 1.394 . S
C221 C220 1.478 . S
C221 C222 1.397 1_554 S
C222 C221 1.397 1_556 S
C222 C223 1.438 . S
C222 C227 1.429 . S
C223 C206 1.394 1_556 S
C223 C222 1.438 . S
C223 C224 1.428 . S
C224 H216 0.949 . S
C224 C223 1.428 . S
C224 C225 1.345 . S
C225 H217 0.950 . S
C225 C224 1.345 . S
C225 C226 1.424 . S
C226 H218 0.951 . S
C226 C225 1.424 . S
C226 C227 1.347 . S
C227 H219 0.951 . S
C227 C222 1.429 . S
C227 C226 1.347 . S
H228 C229 0.951 . S
C229 H228 0.951 . S
C229 C235 1.265 . S
H230 C235 0.950 . S
H231 C239 0.949 1_455 S
H232 C240 0.950 . S
H233 C241 0.951 . S
H234 C242 0.951 . S
C235 C229 1.265 . S
C235 H230 0.950 . S
C235 C236 1.478 . S
C236 C235 1.478 . S
C236 C237 1.397 . S
C236 C253 1.394 1_655 S
C237 C236 1.397 . S
C237 C238 1.438 . S
C237 C242 1.429 . S
C238 C237 1.438 . S
C238 C239 1.428 . S
C238 C251 1.394 1_655 S
C239 H231 0.949 1_655 S
C239 C238 1.428 . S
C239 C240 1.345 . S
C240 H232 0.950 . S
C240 C239 1.345 . S
C240 C241 1.424 . S
C241 H233 0.951 . S
C241 C240 1.424 . S
C241 C242 1.347 . S
C242 H234 0.951 . S
C242 C237 1.429 . S
C242 C241 1.347 . S
H243 C244 0.951 . S
C244 H243 0.951 . S
C244 C250 1.265 . S
H245 C250 0.950 . S
H246 C254 0.949 1_655 S
H247 C255 0.950 . S
H248 C256 0.951 . S
H249 C257 0.951 . S
C250 C244 1.265 . S
C250 H245 0.950 . S
C250 C251 1.478 . S
C251 C238 1.394 1_455 S
C251 C250 1.478 . S
C251 C252 1.397 . S
C252 C251 1.397 . S
C252 C253 1.438 . S
C252 C257 1.429 . S
C253 C236 1.394 1_455 S
C253 C252 1.438 . S
C253 C254 1.428 . S
C254 H246 0.949 1_455 S
C254 C253 1.428 . S
C254 C255 1.345 . S
C255 H247 0.950 . S
C255 C254 1.345 . S
C255 C256 1.424 . S
C256 H248 0.951 . S
C256 C255 1.424 . S
C256 C257 1.347 . S
C257 H249 0.951 . S
C257 C252 1.429 . S
C257 C256 1.347 . S
H258 C259 0.951 . S
C259 H258 0.951 . S
C259 C265 1.265 . S
H260 C265 0.950 1_565 S
H261 C269 0.949 . S
H262 C270 0.950 . S
H263 C271 0.951 . S
H264 C272 0.951 . S
C265 C259 1.265 . S
C265 H260 0.950 1_545 S
C265 C266 1.478 . S
C266 C265 1.478 . S
C266 C267 1.397 1_545 S
C266 C283 1.394 . S
C267 C266 1.397 1_565 S
C267 C268 1.438 . S
C267 C272 1.429 . S
C268 C267 1.438 . S
C268 C269 1.428 . S
C268 C281 1.394 . S
C269 H261 0.949 . S
C269 C268 1.428 . S
C269 C270 1.345 . S
C270 H262 0.950 . S
C270 C269 1.345 . S
C270 C271 1.424 . S
C271 H263 0.951 . S
C271 C270 1.424 . S
C271 C272 1.347 . S
C272 H264 0.951 . S
C272 C267 1.429 . S
C272 C271 1.347 . S
H273 C274 0.951 . S
C274 H273 0.951 . S
C274 C280 1.265 . S
H275 C280 0.950 1_545 S
H276 C284 0.949 . S
H277 C285 0.950 . S
H278 C286 0.951 . S
H279 C287 0.951 . S
C280 C274 1.265 . S
C280 H275 0.950 1_565 S
C280 C281 1.478 . S
C281 C268 1.394 . S
C281 C280 1.478 . S
C281 C282 1.397 1_565 S
C282 C281 1.397 1_545 S
C282 C283 1.438 . S
C282 C287 1.429 . S
C283 C266 1.394 . S
C283 C282 1.438 . S
C283 C284 1.428 . S
C284 H276 0.949 . S
C284 C283 1.428 . S
C284 C285 1.345 . S
C285 H277 0.950 . S
C285 C284 1.345 . S
C285 C286 1.424 . S
C286 H278 0.951 . S
C286 C285 1.424 . S
C286 C287 1.347 . S
C287 H279 0.951 . S
C287 C282 1.429 . S
C287 C286 1.347 . S
H288 C289 0.951 . S
C289 H288 0.951 . S
C289 C295 1.265 . S
H290 C295 0.950 . S
H291 C299 0.949 . S
H292 C300 0.950 . S
H293 C301 0.951 . S
H294 C302 0.951 . S
C295 C289 1.265 . S
C295 H290 0.950 . S
C295 C296 1.478 . S
C296 C295 1.478 . S
C296 C297 1.397 . S
C296 C313 1.394 . S
C297 C296 1.397 . S
C297 C298 1.438 . S
C297 C302 1.429 . S
C298 C297 1.438 . S
C298 C299 1.428 . S
C298 C311 1.394 . S
C299 H291 0.949 . S
C299 C298 1.428 . S
C299 C300 1.345 . S
C300 H292 0.950 . S
C300 C299 1.345 . S
C300 C301 1.424 . S
C301 H293 0.951 . S
C301 C300 1.424 . S
C301 C302 1.347 . S
C302 H294 0.951 . S
C302 C297 1.429 . S
C302 C301 1.347 . S
H303 C304 0.951 . S
C304 H303 0.951 . S
C304 C310 1.265 . S
H305 C310 0.950 . S
H306 C314 0.949 . S
H307 C315 0.950 . S
H308 C316 0.951 . S
H309 C317 0.951 . S
C310 C304 1.265 . S
C310 H305 0.950 . S
C310 C311 1.478 . S
C311 C298 1.394 . S
C311 C310 1.478 . S
C311 C312 1.397 . S
C312 C311 1.397 . S
C312 C313 1.438 . S
C312 C317 1.429 . S
C313 C296 1.394 . S
C313 C312 1.438 . S
C313 C314 1.428 . S
C314 H306 0.949 . S
C314 C313 1.428 . S
C314 C315 1.345 . S
C315 H307 0.950 . S
C315 C314 1.345 . S
C315 C316 1.424 . S
C316 H308 0.951 . S
C316 C315 1.424 . S
C316 C317 1.347 . S
C317 H309 0.951 . S
C317 C312 1.429 . S
C317 C316 1.347 . S
H318 C319 0.951 . S
C319 H318 0.951 . S
C319 C325 1.265 . S
H320 C325 0.950 . S
H321 C329 0.949 1_455 S
H322 C330 0.950 . S
H323 C331 0.951 . S
H324 C332 0.951 . S
C325 C319 1.265 . S
C325 H320 0.950 . S
C325 C326 1.478 . S
C326 C325 1.478 . S
C326 C327 1.397 . S
C326 C343 1.394 1_656 S
C327 C326 1.397 . S
C327 C328 1.438 . S
C327 C332 1.429 . S
C328 C327 1.438 . S
C328 C329 1.428 . S
C328 C341 1.394 1_655 S
C329 H321 0.949 1_655 S
C329 C328 1.428 . S
C329 C330 1.345 . S
C330 H322 0.950 . S
C330 C329 1.345 . S
C330 C331 1.424 . S
C331 H323 0.951 . S
C331 C330 1.424 . S
C331 C332 1.347 . S
C332 H324 0.951 . S
C332 C327 1.429 . S
C332 C331 1.347 . S
H333 C334 0.951 . S
C334 H333 0.951 . S
C334 C340 1.265 . S
H335 C340 0.950 . S
H336 C344 0.949 1_655 S
H337 C345 0.950 . S
H338 C346 0.951 . S
H339 C347 0.951 . S
C340 C334 1.265 . S
C340 H335 0.950 . S
C340 C341 1.478 . S
C341 C328 1.394 1_455 S
C341 C340 1.478 . S
C341 C342 1.397 1_556 S
C342 C341 1.397 1_554 S
C342 C343 1.438 . S
C342 C347 1.429 . S
C343 C326 1.394 1_454 S
C343 C342 1.438 . S
C343 C344 1.428 . S
C344 H336 0.949 1_455 S
C344 C343 1.428 . S
C344 C345 1.345 . S
C345 H337 0.950 . S
C345 C344 1.345 . S
C345 C346 1.424 . S
C346 H338 0.951 . S
C346 C345 1.424 . S
C346 C347 1.347 . S
C347 H339 0.951 . S
C347 C342 1.429 . S
C347 C346 1.347 . S
H348 C349 0.951 . S
C349 H348 0.951 . S
C349 C355 1.265 . S
H350 C355 0.950 . S
H351 C359 0.949 . S
H352 C360 0.950 . S
H353 C361 0.951 . S
H354 C362 0.951 . S
C355 C349 1.265 . S
C355 H350 0.950 . S
C355 C356 1.478 . S
C356 C355 1.478 . S
C356 C357 1.397 . S
C356 C373 1.394 . S
C357 C356 1.397 . S
C357 C358 1.438 1_565 S
C357 C362 1.429 . S
C358 C357 1.438 1_545 S
C358 C359 1.428 . S
C358 C371 1.394 . S
C359 H351 0.949 . S
C359 C358 1.428 . S
C359 C360 1.345 1_545 S
C360 H352 0.950 . S
C360 C359 1.345 1_565 S
C360 C361 1.424 . S
C361 H353 0.951 . S
C361 C360 1.424 . S
C361 C362 1.347 . S
C362 H354 0.951 . S
C362 C357 1.429 . S
C362 C361 1.347 . S
H363 C364 0.951 . S
C364 H363 0.951 . S
C364 C370 1.265 . S
H365 C370 0.950 . S
H366 C374 0.949 . S
H367 C375 0.950 . S
H368 C376 0.951 . S
H369 C377 0.951 . S
C370 C364 1.265 . S
C370 H365 0.950 . S
C370 C371 1.478 . S
C371 C358 1.394 . S
C371 C370 1.478 . S
C371 C372 1.397 . S
C372 C371 1.397 . S
C372 C373 1.438 1_545 S
C372 C377 1.429 . S
C373 C356 1.394 . S
C373 C372 1.438 1_565 S
C373 C374 1.428 . S
C374 H366 0.949 . S
C374 C373 1.428 . S
C374 C375 1.345 1_565 S
C375 H367 0.950 . S
C375 C374 1.345 1_545 S
C375 C376 1.424 . S
C376 H368 0.951 . S
C376 C375 1.424 . S
C376 C377 1.347 . S
C377 H369 0.951 . S
C377 C372 1.429 . S
C377 C376 1.347 . S
H378 C379 0.951 . S
C379 H378 0.951 . S
C379 C385 1.265 . S
H380 C385 0.950 . S
H381 C389 0.949 . S
H382 C390 0.950 . S
H383 C391 0.951 . S
H384 C392 0.951 . S
C385 C379 1.265 . S
C385 H380 0.950 . S
C385 C386 1.478 . S
C386 C385 1.478 . S
C386 C387 1.397 1_454 S
C386 C403 1.394 . S
C387 C386 1.397 1_656 S
C387 C388 1.438 1_545 S
C387 C392 1.429 . S
C388 C387 1.438 1_565 S
C388 C389 1.428 . S
C388 C401 1.394 1_556 S
C389 H381 0.949 . S
C389 C388 1.428 . S
C389 C390 1.345 . S
C390 H382 0.950 . S
C390 C389 1.345 . S
C390 C391 1.424 1_565 S
C391 H383 0.951 . S
C391 C390 1.424 1_545 S
C391 C392 1.347 . S
C392 H384 0.951 . S
C392 C387 1.429 . S
C392 C391 1.347 . S
H393 C394 0.951 . S
C394 H393 0.951 . S
C394 C400 1.265 . S
H395 C400 0.950 . S
H396 C404 0.949 . S
H397 C405 0.950 . S
H398 C406 0.951 . S
H399 C407 0.951 . S
C400 C394 1.265 . S
C400 H395 0.950 . S
C400 C401 1.478 . S
C401 C388 1.394 1_554 S
C401 C400 1.478 . S
C401 C402 1.397 1_655 S
C402 C401 1.397 1_455 S
C402 C403 1.438 1_565 S
C402 C407 1.429 . S
C403 C386 1.394 . S
C403 C402 1.438 1_545 S
C403 C404 1.428 . S
C404 H396 0.949 . S
C404 C403 1.428 . S
C404 C405 1.345 . S
C405 H397 0.950 . S
C405 C404 1.345 . S
C405 C406 1.424 1_545 S
C406 H398 0.951 . S
C406 C405 1.424 1_565 S
C406 C407 1.347 . S
C407 H399 0.951 . S
C407 C402 1.429 . S
C407 C406 1.347 . S
H408 C409 0.951 . S
C409 H408 0.951 . S
C409 C415 1.265 . S
H410 C415 0.950 . S
H411 C419 0.949 . S
H412 C420 0.946 1_655 S
H413 C421 0.951 . S
H414 C422 0.951 1_565 S
C415 C409 1.265 . S
C415 H410 0.950 . S
C415 C416 1.478 . S
C416 C415 1.478 . S
C416 C417 1.397 1_565 S
C416 C433 1.394 . S
C417 C416 1.397 1_545 S
C417 C418 1.438 1_455 S
C417 C422 1.429 . S
C418 C417 1.438 1_655 S
C418 C419 1.428 . S
C418 C431 1.394 . S
C419 H411 0.949 . S
C419 C418 1.428 . S
C419 C420 1.345 1_655 S
C420 H412 0.946 1_455 S
C420 C419 1.345 1_455 S
C420 C421 1.424 . S
C421 H413 0.951 . S
C421 C420 1.424 . S
C421 C422 1.347 . S
C422 H414 0.951 1_545 S
C422 C417 1.429 . S
C422 C421 1.347 . S
H423 C424 0.951 . S
C424 H423 0.951 . S
C424 C430 1.265 . S
H425 C430 0.950 . S
H426 C434 0.949 . S
H427 C435 0.946 1_455 S
H428 C436 0.951 . S
H429 C437 0.951 1_545 S
C430 C424 1.265 . S
C430 H425 0.950 . S
C430 C431 1.478 . S
C431 C418 1.394 . S
C431 C430 1.478 . S
C431 C432 1.397 1_545 S
C432 C431 1.397 1_565 S
C432 C433 1.438 1_655 S
C432 C437 1.429 . S
C433 C416 1.394 . S
C433 C432 1.438 1_455 S
C433 C434 1.428 . S
C434 H426 0.949 . S
C434 C433 1.428 . S
C434 C435 1.345 1_455 S
C435 H427 0.946 1_655 S
C435 C434 1.345 1_655 S
C435 C436 1.424 . S
C436 H428 0.951 . S
C436 C435 1.424 . S
C436 C437 1.347 . S
C437 H429 0.951 1_565 S
C437 C432 1.429 . S
C437 C436 1.347 . S
H438 C439 0.951 . S
C439 H438 0.951 . S
C439 C445 1.265 . S
H440 C445 0.950 . S
H441 C449 0.949 . S
H442 C450 0.950 . S
H443 C451 0.951 . S
H444 C452 0.951 . S
C445 C439 1.265 . S
C445 H440 0.950 . S
C445 C446 1.478 . S
C446 C445 1.478 . S
C446 C447 1.397 1_545 S
C446 C463 1.394 . S
C447 C446 1.397 1_565 S
C447 C448 1.438 1_455 S
C447 C452 1.429 . S
C448 C447 1.438 1_655 S
C448 C449 1.428 . S
C448 C461 1.394 . S
C449 H441 0.949 . S
C449 C448 1.428 . S
C449 C450 1.345 . S
C450 H442 0.950 . S
C450 C449 1.345 . S
C450 C451 1.424 1_655 S
C451 H443 0.951 . S
C451 C450 1.424 1_455 S
C451 C452 1.347 . S
C452 H444 0.951 . S
C452 C447 1.429 . S
C452 C451 1.347 . S
H453 C454 0.951 . S
C454 H453 0.951 . S
C454 C460 1.265 . S
H455 C460 0.950 . S
H456 C464 0.949 . S
H457 C465 0.950 . S
H458 C466 0.951 . S
H459 C467 0.951 . S
C460 C454 1.265 . S
C460 H455 0.950 . S
C460 C461 1.478 . S
C461 C448 1.394 . S
C461 C460 1.478 . S
C461 C462 1.397 1_565 S
C462 C461 1.397 1_545 S
C462 C463 1.438 1_655 S
C462 C467 1.429 . S
C463 C446 1.394 . S
C463 C462 1.438 1_455 S
C463 C464 1.428 . S
C464 H456 0.949 . S
C464 C463 1.428 . S
C464 C465 1.345 . S
C465 H457 0.950 . S
C465 C464 1.345 . S
C465 C466 1.424 1_455 S
C466 H458 0.951 . S
C466 C465 1.424 1_655 S
C466 C467 1.347 . S
C467 H459 0.951 . S
C467 C462 1.429 . S
C467 C466 1.347 . S
H468 C469 0.951 . S
C469 H468 0.951 . S
C469 C475 1.265 . S
H470 C475 0.950 . S
H471 C479 0.949 . S
H472 C480 0.950 . S
H473 C481 0.951 . S
H474 C482 0.951 . S
C475 C469 1.265 . S
C475 H470 0.950 . S
C475 C476 1.478 . S
C476 C475 1.478 . S
C476 C477 1.397 . S
C476 C493 1.394 . S
C477 C476 1.397 . S
C477 C478 1.438 . S
C477 C482 1.429 . S
C478 C477 1.438 . S
C478 C479 1.428 . S
C478 C491 1.394 . S
C479 H471 0.949 . S
C479 C478 1.428 . S
C479 C480 1.345 . S
C480 H472 0.950 . S
C480 C479 1.345 . S
C480 C481 1.424 . S
C481 H473 0.951 . S
C481 C480 1.424 . S
C481 C482 1.347 . S
C482 H474 0.951 . S
C482 C477 1.429 . S
C482 C481 1.347 . S
H483 C484 0.951 . S
C484 H483 0.951 . S
C484 C490 1.265 . S
H485 C490 0.950 . S
H486 C494 0.949 . S
H487 C495 0.950 . S
H488 C496 0.951 . S
H489 C497 0.951 . S
C490 C484 1.265 . S
C490 H485 0.950 . S
C490 C491 1.478 . S
C491 C478 1.394 . S
C491 C490 1.478 . S
C491 C492 1.397 . S
C492 C491 1.397 . S
C492 C493 1.438 . S
C492 C497 1.429 . S
C493 C476 1.394 . S
C493 C492 1.438 . S
C493 C494 1.428 . S
C494 H486 0.949 . S
C494 C493 1.428 . S
C494 C495 1.345 . S
C495 H487 0.950 . S
C495 C494 1.345 . S
C495 C496 1.424 . S
C496 H488 0.951 . S
C496 C495 1.424 . S
C496 C497 1.347 . S
C497 H489 0.951 . S
C497 C492 1.429 . S
C497 C496 1.347 . S
H498 C499 0.951 . S
C499 H498 0.951 . S
C499 C505 1.265 . S
H500 C505 0.950 . S
H501 C509 0.949 . S
H502 C510 0.950 . S
H503 C511 0.951 . S
H504 C512 0.951 . S
C505 C499 1.265 . S
C505 H500 0.950 . S
C505 C506 1.478 . S
C506 C505 1.478 . S
C506 C507 1.397 . S
C506 C523 1.394 . S
C507 C506 1.397 . S
C507 C508 1.438 . S
C507 C512 1.429 . S
C508 C507 1.438 . S
C508 C509 1.428 1_455 S
C508 C521 1.394 . S
C509 H501 0.949 . S
C509 C508 1.428 1_655 S
C509 C510 1.345 . S
C510 H502 0.950 . S
C510 C509 1.345 . S
C510 C511 1.424 1_655 S
C511 H503 0.951 . S
C511 C510 1.424 1_455 S
C511 C512 1.347 . S
C512 H504 0.951 . S
C512 C507 1.429 . S
C512 C511 1.347 . S
H513 C514 0.951 . S
C514 H513 0.951 . S
C514 C520 1.265 . S
H515 C520 0.950 1_455 S
H516 C524 0.949 . S
H517 C525 0.950 . S
H518 C526 0.951 . S
H519 C527 0.951 1_655 S
C520 C514 1.265 . S
C520 H515 0.950 1_655 S
C520 C521 1.478 1_655 S
C521 C508 1.394 . S
C521 C520 1.478 1_455 S
C521 C522 1.397 . S
C522 C521 1.397 . S
C522 C523 1.438 . S
C522 C527 1.429 . S
C523 C506 1.394 . S
C523 C522 1.438 . S
C523 C524 1.428 . S
C524 H516 0.949 . S
C524 C523 1.428 . S
C524 C525 1.345 . S
C525 H517 0.950 . S
C525 C524 1.345 . S
C525 C526 1.424 . S
C526 H518 0.951 . S
C526 C525 1.424 . S
C526 C527 1.347 . S
C527 H519 0.951 1_455 S
C527 C522 1.429 . S
C527 C526 1.347 . S
H528 C529 0.951 . S
C529 H528 0.951 . S
C529 C535 1.265 . S
H530 C535 0.950 . S
H531 C539 0.949 . S
H532 C540 0.950 . S
H533 C541 0.951 . S
H534 C542 0.951 . S
C535 C529 1.265 . S
C535 H530 0.950 . S
C535 C536 1.478 . S
C536 C535 1.478 . S
C536 C537 1.397 . S
C536 C553 1.394 . S
C537 C536 1.397 . S
C537 C538 1.438 1_545 S
C537 C542 1.429 . S
C538 C537 1.438 1_565 S
C538 C539 1.428 . S
C538 C551 1.394 . S
C539 H531 0.949 . S
C539 C538 1.428 . S
C539 C540 1.345 . S
C540 H532 0.950 . S
C540 C539 1.345 . S
C540 C541 1.424 . S
C541 H533 0.951 . S
C541 C540 1.424 . S
C541 C542 1.347 1_565 S
C542 H534 0.951 . S
C542 C537 1.429 . S
C542 C541 1.347 1_545 S
H543 C544 0.951 . S
C544 H543 0.951 . S
C544 C550 1.265 . S
H545 C550 0.950 . S
H546 C554 0.949 . S
H547 C555 0.950 . S
H548 C556 0.951 . S
H549 C557 0.951 . S
C550 C544 1.265 . S
C550 H545 0.950 . S
C550 C551 1.478 . S
C551 C538 1.394 . S
C551 C550 1.478 . S
C551 C552 1.397 1_565 S
C552 C551 1.397 1_545 S
C552 C553 1.438 . S
C552 C557 1.429 . S
C553 C536 1.394 . S
C553 C552 1.438 . S
C553 C554 1.428 . S
C554 H546 0.949 . S
C554 C553 1.428 . S
C554 C555 1.345 . S
C555 H547 0.950 . S
C555 C554 1.345 . S
C555 C556 1.424 . S
C556 H548 0.951 . S
C556 C555 1.424 . S
C556 C557 1.347 . S
C557 H549 0.951 . S
C557 C552 1.429 . S
C557 C556 1.347 . S
H558 C559 0.951 . S
C559 H558 0.951 . S
C559 C565 1.265 . S
H560 C565 0.950 . S
H561 C569 0.949 . S
H562 C570 0.950 . S
H563 C571 0.951 . S
H564 C572 0.951 . S
C565 C559 1.265 . S
C565 H560 0.950 . S
C565 C566 1.478 . S
C566 C565 1.478 . S
C566 C567 1.397 . S
C566 C583 1.394 . S
C567 C566 1.397 . S
C567 C568 1.438 . S
C567 C572 1.429 . S
C568 C567 1.438 . S
C568 C569 1.428 . S
C568 C581 1.394 . S
C569 H561 0.949 . S
C569 C568 1.428 . S
C569 C570 1.345 . S
C570 H562 0.950 . S
C570 C569 1.345 . S
C570 C571 1.424 . S
C571 H563 0.951 . S
C571 C570 1.424 . S
C571 C572 1.347 . S
C572 H564 0.951 . S
C572 C567 1.429 . S
C572 C571 1.347 . S
H573 C574 0.951 . S
C574 H573 0.951 . S
C574 C580 1.265 . S
H575 C580 0.950 . S
H576 C584 0.949 . S
H577 C585 0.950 . S
H578 C586 0.951 . S
H579 C587 0.951 . S
C580 C574 1.265 . S
C580 H575 0.950 . S
C580 C581 1.478 . S
C581 C568 1.394 . S
C581 C580 1.478 . S
C581 C582 1.397 . S
C582 C581 1.397 . S
C582 C583 1.438 . S
C582 C587 1.429 . S
C583 C566 1.394 . S
C583 C582 1.438 . S
C583 C584 1.428 . S
C584 H576 0.949 . S
C584 C583 1.428 . S
C584 C585 1.345 . S
C585 H577 0.950 . S
C585 C584 1.345 . S
C585 C586 1.424 . S
C586 H578 0.951 . S
C586 C585 1.424 . S
C586 C587 1.347 . S
C587 H579 0.951 . S
C587 C582 1.429 . S
C587 C586 1.347 . S
H588 C589 0.951 . S
C589 H588 0.951 . S
C589 C595 1.265 . S
H590 C595 0.950 . S
H591 C599 0.949 . S
H592 C600 0.950 . S
H593 C601 0.951 . S
H594 C602 0.951 . S
C595 C589 1.265 . S
C595 H590 0.950 . S
C595 C596 1.478 . S
C596 C595 1.478 . S
C596 C597 1.397 . S
C596 C613 1.394 . S
C597 C596 1.397 . S
C597 C598 1.438 . S
C597 C602 1.429 . S
C598 C597 1.438 . S
C598 C599 1.428 . S
C598 C611 1.394 1_655 S
C599 H591 0.949 . S
C599 C598 1.428 . S
C599 C600 1.345 . S
C600 H592 0.950 . S
C600 C599 1.345 . S
C600 C601 1.424 . S
C601 H593 0.951 . S
C601 C600 1.424 . S
C601 C602 1.347 . S
C602 H594 0.951 . S
C602 C597 1.429 . S
C602 C601 1.347 . S
H603 C604 0.951 . S
C604 H603 0.951 . S
C604 C610 1.265 . S
H605 C610 0.950 . S
H606 C614 0.949 . S
H607 C615 0.950 . S
H608 C616 0.951 . S
H609 C617 0.951 . S
C610 C604 1.265 . S
C610 H605 0.950 . S
C610 C611 1.478 . S
C611 C598 1.394 1_455 S
C611 C610 1.478 . S
C611 C612 1.397 . S
C612 C611 1.397 . S
C612 C613 1.438 1_455 S
C612 C617 1.429 . S
C613 C596 1.394 . S
C613 C612 1.438 1_655 S
C613 C614 1.428 . S
C614 H606 0.949 . S
C614 C613 1.428 . S
C614 C615 1.345 1_655 S
C615 H607 0.950 . S
C615 C614 1.345 1_455 S
C615 C616 1.424 . S
C616 H608 0.951 . S
C616 C615 1.424 . S
C616 C617 1.347 . S
C617 H609 0.951 . S
C617 C612 1.429 . S
C617 C616 1.347 . S
H618 C619 0.951 . S
C619 H618 0.951 . S
C619 C625 1.265 . S
H620 C625 0.950 . S
H621 C629 0.949 . S
H622 C630 0.950 . S
H623 C631 0.951 . S
H624 C632 0.951 . S
C625 C619 1.265 . S
C625 H620 0.950 . S
C625 C626 1.478 . S
C626 C625 1.478 . S
C626 C627 1.397 . S
C626 C643 1.394 1_545 S
C627 C626 1.397 . S
C627 C628 1.438 1_545 S
C627 C632 1.429 . S
C628 C627 1.438 1_565 S
C628 C629 1.428 1_565 S
C628 C641 1.394 . S
C629 H621 0.949 . S
C629 C628 1.428 1_545 S
C629 C630 1.345 . S
C630 H622 0.950 . S
C630 C629 1.345 . S
C630 C631 1.424 . S
C631 H623 0.951 . S
C631 C630 1.424 . S
C631 C632 1.347 . S
C632 H624 0.951 . S
C632 C627 1.429 . S
C632 C631 1.347 . S
H633 C634 0.951 . S
C634 H633 0.951 . S
C634 C640 1.265 . S
H635 C640 0.950 . S
H636 C644 0.949 . S
H637 C645 0.950 . S
H638 C646 0.951 . S
H639 C647 0.951 . S
C640 C634 1.265 . S
C640 H635 0.950 . S
C640 C641 1.478 . S
C641 C628 1.394 . S
C641 C640 1.478 . S
C641 C642 1.397 . S
C642 C641 1.397 . S
C642 C643 1.438 . S
C642 C647 1.429 . S
C643 C626 1.394 1_565 S
C643 C642 1.438 . S
C643 C644 1.428 . S
C644 H636 0.949 . S
C644 C643 1.428 . S
C644 C645 1.345 . S
C645 H637 0.950 . S
C645 C644 1.345 . S
C645 C646 1.424 . S
C646 H638 0.951 . S
C646 C645 1.424 . S
C646 C647 1.347 . S
C647 H639 0.951 . S
C647 C642 1.429 . S
C647 C646 1.347 . S
C199 C18 1.650 . S
C214 C117 1.651 . S
C229 C51 1.650 . S
C244 C150 1.650 . S
C259 C183 1.619 . S
C274 C84 1.617 . S
C289 C87 0.893 . S
C304 C186 0.890 . S
C319 C120 0.938 . S
C334 C21 0.938 . S
C349 C153 0.935 . S
C364 C54 0.941 . S
C379 C7 0.695 . S
C394 C106 0.695 . S
C409 C139 0.693 . S
C424 C40 0.698 . S
C439 C172 0.687 . S
C454 C73 0.685 . S
C469 N13 1.632 . S
C484 N167 1.741 . S
C499 N2 1.742 . S
C514 N46 1.639 . S
C529 N35 1.773 . S
C544 N79 1.683 . S
C559 N68 1.756 . S
C574 N112 1.682 . S
C589 N101 1.757 . S
C604 N145 1.608 . S
C619 N178 1.692 . S
C634 N134 1.773 . S
