# Generated by pormake.
# Topology wht, (6)-cn, num edge types: 1
# Building blocks:
#     Node 0, Type 0, BuildingBlock: OJICUG_clean_sbu_0, # of connection points: 6
#     Node 1, Type 0, BuildingBlock: OJICUG_clean_sbu_0, # of connection points: 6
#     Node 2, Type 0, BuildingBlock: OJICUG_clean_sbu_0, # of connection points: 6
#     Node 3, Type 0, BuildingBlock: OJICUG_clean_sbu_0, # of connection points: 6
#     Node 4, Type 0, BuildingBlock: OJICUG_clean_sbu_0, # of connection points: 6
#     Node 5, Type 0, BuildingBlock: OJICUG_clean_sbu_0, # of connection points: 6
#     Node 6, Type 0, BuildingBlock: OJICUG_clean_sbu_0, # of connection points: 6
#     Node 7, Type 0, BuildingBlock: OJICUG_clean_sbu_0, # of connection points: 6
#     Edge 8, Type (0, 0), BuildingBlock: ZUJKAS_clean_linker_0, # of connection points: 2
#     Edge 9, Type (0, 0), BuildingBlock: ZUJKAS_clean_linker_0, # of connection points: 2
#     Edge 10, Type (0, 0), BuildingBlock: ZUJKAS_clean_linker_0, # of connection points: 2
#     Edge 11, Type (0, 0), BuildingBlock: ZUJKAS_clean_linker_0, # of connection points: 2
#     Edge 12, Type (0, 0), BuildingBlock: ZUJKAS_clean_linker_0, # of connection points: 2
#     Edge 13, Type (0, 0), BuildingBlock: ZUJKAS_clean_linker_0, # of connection points: 2
#     Edge 14, Type (0, 0), BuildingBlock: ZUJKAS_clean_linker_0, # of connection points: 2
#     Edge 15, Type (0, 0), BuildingBlock: ZUJKAS_clean_linker_0, # of connection points: 2
#     Edge 16, Type (0, 0), BuildingBlock: ZUJKAS_clean_linker_0, # of connection points: 2
#     Edge 17, Type (0, 0), BuildingBlock: ZUJKAS_clean_linker_0, # of connection points: 2
#     Edge 18, Type (0, 0), BuildingBlock: ZUJKAS_clean_linker_0, # of connection points: 2
#     Edge 19, Type (0, 0), BuildingBlock: ZUJKAS_clean_linker_0, # of connection points: 2
#     Edge 20, Type (0, 0), BuildingBlock: ZUJKAS_clean_linker_0, # of connection points: 2
#     Edge 21, Type (0, 0), BuildingBlock: ZUJKAS_clean_linker_0, # of connection points: 2
#     Edge 22, Type (0, 0), BuildingBlock: ZUJKAS_clean_linker_0, # of connection points: 2
#     Edge 23, Type (0, 0), BuildingBlock: ZUJKAS_clean_linker_0, # of connection points: 2
#     Edge 24, Type (0, 0), BuildingBlock: ZUJKAS_clean_linker_0, # of connection points: 2
#     Edge 25, Type (0, 0), BuildingBlock: ZUJKAS_clean_linker_0, # of connection points: 2
#     Edge 26, Type (0, 0), BuildingBlock: ZUJKAS_clean_linker_0, # of connection points: 2
#     Edge 27, Type (0, 0), BuildingBlock: ZUJKAS_clean_linker_0, # of connection points: 2
#     Edge 28, Type (0, 0), BuildingBlock: ZUJKAS_clean_linker_0, # of connection points: 2
#     Edge 29, Type (0, 0), BuildingBlock: ZUJKAS_clean_linker_0, # of connection points: 2
#     Edge 30, Type (0, 0), BuildingBlock: ZUJKAS_clean_linker_0, # of connection points: 2
#     Edge 31, Type (0, 0), BuildingBlock: ZUJKAS_clean_linker_0, # of connection points: 2
# Relax obj value: 0.284
# Max RMSD: 0.260
# Mean RMSD: 0.260
data_MOF--net-wht--node1-OJICUG_clean_sbu_0--edge1-ZUJKAS_clean_linker_0
_symmetry_space_group_name_H-M    P1
_symmetry_Int_Tables_number       1
_symmetry_cell_setting            triclinic
loop_
_symmetry_equiv_pos_as_xyz
'x, y, z'
_cell_length_a     33.934918
_cell_length_b     33.95858
_cell_length_c     63.551495
_cell_angle_alpha  90.085724
_cell_angle_beta   89.952671
_cell_angle_gamma 90.135984
loop_
_atom_site_label
_atom_site_type_symbol
_atom_site_fract_x
_atom_site_fract_y
_atom_site_fract_z
_atom_type_partial_charge
Sc0 Sc 0.08313 0.18268 0.13389 0.0
Sc1 Sc 0.16379 0.24199 0.14834 0.0
Sc2 Sc 0.06687 0.27642 0.15613 0.0
O3 O 0.10455 0.23359 0.14626 0.0
C4 C 0.02242 0.24539 0.11532 0.0
C5 C 0.15391 0.2032 0.10286 0.0
C6 C 0.13396 0.32662 0.13352 0.0
C7 C 0.15807 0.15091 0.15912 0.0
C8 C 0.02481 0.19758 0.17227 0.0
C9 C 0.13391 0.27908 0.19149 0.0
O10 O 0.03872 0.2118 0.11555 0.0
O11 O 0.17324 0.22309 0.11634 0.0
O12 O 0.09867 0.32246 0.13988 0.0
O13 O 0.12503 0.14616 0.15007 0.0
O14 O 0.03032 0.23469 0.17281 0.0
O15 O 0.16021 0.26265 0.18027 0.0
O16 O 0.04275 0.17488 0.15954 0.0
O17 O 0.17514 0.18411 0.16034 0.0
O18 O 0.09935 0.28617 0.18478 0.0
O19 O 0.12105 0.18688 0.10697 0.0
O20 O 0.0302 0.272 0.12873 0.0
O21 O 0.16015 0.30051 0.13617 0.0
Sc22 Sc 0.20708 0.55912 0.40913 0.0
Sc23 Sc 0.24966 0.65151 0.3979 0.0
Sc24 Sc 0.30293 0.56508 0.38828 0.0
O25 O 0.25323 0.59192 0.39855 0.0
C26 C 0.28227 0.51458 0.42835 0.0
C27 C 0.20827 0.63041 0.44169 0.0
C28 C 0.33901 0.64219 0.41031 0.0
C29 C 0.16363 0.62675 0.38313 0.0
C30 C 0.23605 0.50624 0.37135 0.0
C31 C 0.29061 0.63088 0.35386 0.0
O32 O 0.24527 0.52026 0.4268 0.0
O33 O 0.22462 0.65448 0.42906 0.0
O34 O 0.34215 0.60862 0.40161 0.0
O35 O 0.1635 0.59359 0.39242 0.0
O36 O 0.2715 0.518 0.37286 0.0
O37 O 0.27388 0.65473 0.36649 0.0
O38 O 0.20837 0.52035 0.38246 0.0
O39 O 0.19288 0.65001 0.38356 0.0
O40 O 0.30137 0.59651 0.35919 0.0
O41 O 0.20101 0.59476 0.43688 0.0
O42 O 0.3074 0.53135 0.41651 0.0
O43 O 0.30644 0.66018 0.41182 0.0
Sc44 Sc 0.91992 0.80011 0.6349 0.0
Sc45 Sc 0.83875 0.73873 0.64369 0.0
Sc46 Sc 0.93389 0.70746 0.6582 0.0
O47 O 0.89754 0.74878 0.64574 0.0
C48 C 0.98647 0.73882 0.62078 0.0
C49 C 0.85786 0.78017 0.59975 0.0
C50 C 0.87385 0.65608 0.63061 0.0
C51 C 0.83809 0.82829 0.65562 0.0
C52 C 0.96909 0.78869 0.67642 0.0
C53 C 0.86013 0.70159 0.68854 0.0
O54 O 0.97117 0.77292 0.62122 0.0
O55 O 0.8342 0.76333 0.61241 0.0
O56 O 0.90478 0.65901 0.64187 0.0
O57 O 0.87118 0.83469 0.64678 0.0
O58 O 0.96729 0.75116 0.67587 0.0
O59 O 0.83561 0.71266 0.67464 0.0
O60 O 0.95083 0.81062 0.66354 0.0
O61 O 0.82377 0.79397 0.6577 0.0
O62 O 0.89702 0.70019 0.68527 0.0
O63 O 0.89157 0.79278 0.60518 0.0
O64 O 0.97436 0.71072 0.63227 0.0
O65 O 0.84838 0.68313 0.62901 0.0
Sc66 Sc 0.69248 0.41326 0.88416 0.0
Sc67 Sc 0.75781 0.33483 0.8915 0.0
Sc68 Sc 0.7855 0.43108 0.9063 0.0
O69 O 0.74517 0.39301 0.89421 0.0
C70 C 0.75069 0.48211 0.8693 0.0
C71 C 0.71474 0.3534 0.84813 0.0
C72 C 0.83819 0.37458 0.87776 0.0
C73 C 0.66858 0.32969 0.90446 0.0
C74 C 0.704 0.46292 0.92552 0.0
C75 C 0.79578 0.35733 0.93614 0.0
O76 O 0.71705 0.46567 0.87013 0.0
O77 O 0.73297 0.33005 0.86031 0.0
O78 O 0.83434 0.4049 0.88934 0.0
O79 O 0.66056 0.36295 0.89631 0.0
O80 O 0.74147 0.46262 0.92426 0.0
O81 O 0.785 0.33251 0.92224 0.0
O82 O 0.6819 0.44347 0.91313 0.0
O83 O 0.70348 0.31653 0.90569 0.0
O84 O 0.79544 0.3943 0.9331 0.0
O85 O 0.70005 0.3858 0.85421 0.0
O86 O 0.77951 0.47121 0.88057 0.0
O87 O 0.81246 0.34762 0.87636 0.0
Sc88 Sc 0.55756 0.20493 0.57702 0.0
Sc89 Sc 0.65181 0.24585 0.58548 0.0
Sc90 Sc 0.56721 0.29822 0.59984 0.0
O91 O 0.59226 0.24968 0.58726 0.0
C92 C 0.51223 0.28262 0.56118 0.0
C93 C 0.62405 0.2083 0.54176 0.0
C94 C 0.64281 0.33614 0.57692 0.0
C95 C 0.6283 0.15895 0.59921 0.0
C96 C 0.50902 0.23095 0.61666 0.0
C97 C 0.63609 0.28082 0.63148 0.0
O98 O 0.51677 0.24537 0.56214 0.0
O99 O 0.65032 0.22295 0.55375 0.0
O100 O 0.61103 0.33834 0.58745 0.0
O101 O 0.59384 0.15987 0.59133 0.0
O102 O 0.51994 0.26659 0.61499 0.0
O103 O 0.65934 0.26785 0.61732 0.0
O104 O 0.52292 0.20374 0.6052 0.0
O105 O 0.65175 0.18803 0.5985 0.0
O106 O 0.6007 0.29088 0.6279 0.0
O107 O 0.589 0.20136 0.54781 0.0
O108 O 0.53175 0.30674 0.57246 0.0
O109 O 0.659 0.30356 0.57252 0.0
Sc110 Sc 0.18214 0.08828 0.85558 0.0
Sc111 Sc 0.24556 0.16481 0.83986 0.0
Sc112 Sc 0.27477 0.06598 0.83329 0.0
O113 O 0.23407 0.10629 0.84281 0.0
C114 C 0.2419 0.02639 0.87532 0.0
C115 C 0.20494 0.16103 0.88497 0.0
C116 C 0.32872 0.13129 0.855 0.0
C117 C 0.15426 0.16192 0.82833 0.0
C118 C 0.19419 0.02622 0.8184 0.0
C119 C 0.28096 0.13118 0.79714 0.0
O120 O 0.20988 0.04566 0.87558 0.0
O121 O 0.22782 0.17726 0.87172 0.0
O122 O 0.3225 0.0958 0.84944 0.0
O123 O 0.14782 0.1291 0.83733 0.0
O124 O 0.2312 0.0315 0.81652 0.0
O125 O 0.26531 0.15855 0.80791 0.0
O126 O 0.17314 0.04463 0.8317 0.0
O127 O 0.18797 0.17818 0.82797 0.0
O128 O 0.28686 0.09682 0.80439 0.0
O129 O 0.18611 0.12946 0.88111 0.0
O130 O 0.26772 0.03046 0.861 0.0
O131 O 0.3041 0.15867 0.85174 0.0
Sc132 Sc 0.43175 0.77857 0.0778 0.0
Sc133 Sc 0.33672 0.74829 0.09332 0.0
Sc134 Sc 0.41651 0.68389 0.09888 0.0
O135 O 0.395 0.73686 0.08986 0.0
C136 C 0.465 0.6991 0.0572 0.0
C137 C 0.35634 0.78886 0.04904 0.0
C138 C 0.3334 0.65973 0.07834 0.0
C139 C 0.37516 0.82896 0.10755 0.0
C140 C 0.48435 0.74297 0.11424 0.0
C141 C 0.35627 0.70176 0.13563 0.0
O142 O 0.46328 0.73646 0.05861 0.0
O143 O 0.33257 0.77648 0.06305 0.0
O144 O 0.36733 0.65175 0.0857 0.0
O145 O 0.40534 0.82599 0.09578 0.0
O146 O 0.46788 0.70932 0.11359 0.0
O147 O 0.33363 0.72226 0.12413 0.0
O148 O 0.47331 0.77168 0.1029 0.0
O149 O 0.3487 0.80271 0.10889 0.0
O150 O 0.38832 0.68713 0.12896 0.0
O151 O 0.39348 0.7895 0.0516 0.0
O152 O 0.44735 0.67617 0.06987 0.0
O153 O 0.31906 0.69423 0.07864 0.0
Sc154 Sc 0.70239 0.93142 0.3242 0.0
Sc155 Sc 0.7404 0.83939 0.33944 0.0
Sc156 Sc 0.795 0.92502 0.34818 0.0
O157 O 0.74593 0.8986 0.33709 0.0
C158 C 0.78153 0.97116 0.30607 0.0
C159 C 0.70258 0.85699 0.29427 0.0
C160 C 0.82998 0.8447 0.32879 0.0
C161 C 0.65528 0.86864 0.35202 0.0
C162 C 0.7287 0.9875 0.36106 0.0
C163 C 0.77801 0.86338 0.38369 0.0
O164 O 0.7441 0.96786 0.30698 0.0
O165 O 0.71462 0.83353 0.30846 0.0
O166 O 0.83337 0.87793 0.33792 0.0
O167 O 0.65591 0.89901 0.34029 0.0
O168 O 0.76411 0.97545 0.36054 0.0
O169 O 0.76505 0.83767 0.37083 0.0
O170 O 0.70162 0.97217 0.34997 0.0
O171 O 0.68419 0.8454 0.35404 0.0
O172 O 0.78734 0.89813 0.37826 0.0
O173 O 0.69896 0.8938 0.29723 0.0
O174 O 0.80461 0.95413 0.3189 0.0
O175 O 0.79683 0.82842 0.32559 0.0
H176 H 0.00762 0.11959 0.1774 0.0
H177 H 0.95559 0.09066 0.19876 0.0
H178 H 0.92071 0.20621 0.21985 0.0
H179 H 0.97325 0.23574 0.19862 0.0
H180 H 0.92684 0.15289 0.25201 0.0
H181 H 0.8374 0.08988 0.18756 0.0
H182 H 0.88811 0.07566 0.18537 0.0
H183 H 0.87489 0.12682 0.18311 0.0
C184 C 0.98894 0.13901 0.18652 0.0
C185 C 0.99456 0.18006 0.1862 0.0
C186 C 0.95892 0.12239 0.19856 0.0
C187 C 0.93367 0.1464 0.21038 0.0
C188 C 0.9396 0.18728 0.21054 0.0
H189 H 0.74425 0.02323 0.27962 0.0
H190 H 0.77554 0.07144 0.25616 0.0
C191 C 0.96976 0.20403 0.1985 0.0
C192 C 0.90279 0.12813 0.22353 0.0
H193 H 0.82938 0.05937 0.22182 0.0
C194 C 0.90495 0.1331 0.2454 0.0
C195 C 0.8737 0.10299 0.21485 0.0
C196 C 0.86807 0.09886 0.19141 0.0
C197 C 0.88086 0.11111 0.2589 0.0
C198 C 0.85456 0.0831 0.25025 0.0
C199 C 0.85009 0.08045 0.22838 0.0
C200 C 0.83501 0.05347 0.26362 0.0
C201 C 0.88478 0.11697 0.28234 0.0
C202 C 0.85817 0.02673 0.27487 0.0
C203 C 0.84061 -0.00075 0.28812 0.0
C204 C 0.79938 -0.00219 0.29032 0.0
C205 C 0.77607 0.02365 0.27833 0.0
C206 C 0.79382 0.05126 0.265 0.0
H207 H 0.89615 0.14686 0.28614 0.0
H208 H 0.85607 0.11265 0.29043 0.0
H209 H 0.90599 0.09517 0.28867 0.0
H210 H 0.89001 0.02737 0.27354 0.0
H211 H 0.85951 0.97955 0.29688 0.0
H212 H 0.35881 0.49745 0.43736 0.0
H213 H 0.38362 0.44581 0.46014 0.0
H214 H 0.2648 0.41299 0.47677 0.0
H215 H 0.23922 0.46511 0.45385 0.0
H216 H 0.31806 0.41945 0.51131 0.0
H217 H 0.37909 0.32647 0.4478 0.0
H218 H 0.39371 0.377 0.44496 0.0
H219 H 0.34237 0.36392 0.44308 0.0
C220 C 0.33774 0.47941 0.44581 0.0
C221 C 0.29695 0.48527 0.44361 0.0
C222 C 0.35204 0.44967 0.45871 0.0
C223 C 0.32597 0.42502 0.46962 0.0
C224 C 0.28527 0.43145 0.46816 0.0
H225 H 0.45892 0.24196 0.53684 0.0
H226 H 0.40529 0.26957 0.51573 0.0
C227 C 0.2708 0.46132 0.45515 0.0
C228 C 0.34216 0.39375 0.4831 0.0
H229 H 0.41057 0.32049 0.48198 0.0
C230 C 0.33748 0.39707 0.50494 0.0
C231 C 0.36668 0.36401 0.47471 0.0
C232 C 0.37043 0.35732 0.45132 0.0
C233 C 0.35986 0.37389 0.51866 0.0
C234 C 0.38787 0.34744 0.51021 0.0
C235 C 0.38956 0.34133 0.48841 0.0
C236 C 0.41911 0.33013 0.52338 0.0
C237 C 0.35459 0.37919 0.54206 0.0
C238 C 0.44517 0.35517 0.53407 0.0
C239 C 0.47583 0.33969 0.54597 0.0
C240 C 0.48125 0.29873 0.54732 0.0
C241 C 0.45557 0.27364 0.53616 0.0
C242 C 0.4248 0.28928 0.5242 0.0
H243 H 0.32413 0.3888 0.54588 0.0
H244 H 0.36096 0.35153 0.55071 0.0
H245 H 0.37511 0.40239 0.54771 0.0
H246 H 0.44201 0.38686 0.53307 0.0
H247 H 0.49512 0.35995 0.5542 0.0
H248 H -0.00256 0.86339 0.6747 0.0
H249 H 0.03905 0.89708 0.70005 0.0
H250 H 0.04036 0.79331 0.73913 0.0
H251 H -0.00086 0.75857 0.71328 0.0
H252 H 0.02066 0.91371 0.74001 0.0
H253 H 0.15669 0.82303 0.73688 0.0
H254 H 0.11814 0.81906 0.71743 0.0
H255 H 0.11228 0.79628 0.74274 0.0
C256 C 0.00657 0.84751 0.68863 0.0
C257 C 0.99477 0.8083 0.69204 0.0
C258 C 0.03051 0.86685 0.70309 0.0
C259 C 0.04307 0.84764 0.72137 0.0
C260 C 0.03161 0.80841 0.72489 0.0
H261 H 0.12619 0.98706 0.82694 0.0
H262 H 0.0912 0.94041 0.80453 0.0
C263 C 0.00786 0.78872 0.71021 0.0
C264 C 0.06627 0.87006 0.73706 0.0
H265 H 0.15536 0.87491 0.76187 0.0
C266 C 0.05008 0.90516 0.74483 0.0
C267 C 0.10479 0.85902 0.7431 0.0
C268 C 0.12426 0.82248 0.7345 0.0
C269 C 0.0715 0.92992 0.75823 0.0
C270 C 0.10974 0.91858 0.76463 0.0
C271 C 0.12593 0.88331 0.75702 0.0
C272 C 0.13332 0.94348 0.77901 0.0
C273 C 0.05337 0.96862 0.76482 0.0
C274 C 0.16965 0.95919 0.77248 0.0
C275 C 0.19015 0.98553 0.78544 0.0
C276 C 0.17435 -0.00329 0.80499 0.0
C277 C 0.13871 0.9797 0.81175 0.0
C278 C 0.11864 0.95303 0.79898 0.0
H279 H 0.02941 0.97771 0.75396 0.0
H280 H 0.0404 0.96546 0.78076 0.0
H281 H 0.07581 0.99245 0.76534 0.0
H282 H 0.18154 0.95195 0.75713 0.0
H283 H 0.21767 -0.00199 0.7799 0.0
H284 H 0.47252 0.62111 0.04787 0.0
H285 H 0.52151 0.59043 0.02525 0.0
H286 H 0.56668 0.70469 0.00804 0.0
H287 H 0.51753 0.73615 0.03082 0.0
H288 H 0.55531 0.64767 0.97371 0.0
H289 H 0.64164 0.58847 0.04051 0.0
H290 H 0.58972 0.57869 0.04251 0.0
H291 H 0.60723 0.62869 0.04334 0.0
C292 C 0.49261 0.63992 0.03922 0.0
C293 C 0.49136 0.68113 0.04136 0.0
C294 C 0.52072 0.62226 0.02639 0.0
C295 C 0.54813 0.64536 0.01548 0.0
C296 C 0.54594 0.6865 0.01664 0.0
H297 H 0.73915 0.51748 0.95141 0.0
H298 H 0.70617 0.56715 0.97314 0.0
C299 C 0.51776 0.70434 0.02957 0.0
C300 C 0.57883 0.62581 0.00288 0.0
H301 H 0.65147 0.55705 0.00696 0.0
C302 C 0.57691 0.62846 0.98092 0.0
C303 C 0.60735 0.60139 0.01243 0.0
C304 C 0.61197 0.59936 0.03601 0.0
C305 C 0.60097 0.60489 0.96819 0.0
C306 C 0.627 0.57786 0.97778 0.0
C307 C 0.63103 0.57745 -0.00029 0.0
C308 C 0.64732 0.54731 0.96541 0.0
C309 C 0.59747 0.60816 0.94459 0.0
C310 C 0.62503 0.51898 0.95465 0.0
C311 C 0.64359 0.49053 0.9424 0.0
C312 C 0.68491 0.48981 0.94072 0.0
C313 C 0.70728 0.51725 0.95231 0.0
C314 C 0.68856 0.54576 0.96464 0.0
H315 H 0.58582 0.63738 0.93985 0.0
H316 H 0.62642 0.60348 0.93682 0.0
H317 H 0.57671 0.5853 0.93879 0.0
H318 H 0.59314 0.51915 0.95556 0.0
H319 H 0.62541 0.46968 0.93387 0.0
H320 H 0.08663 0.31566 0.22047 0.0
H321 H 0.10668 0.34549 0.25378 0.0
H322 H 0.22527 0.30376 0.24437 0.0
H323 H 0.20579 0.27397 0.21093 0.0
H324 H 0.14652 0.31313 0.29111 0.0
H325 H 0.23333 0.42652 0.24787 0.0
H326 H 0.19677 0.39609 0.23511 0.0
H327 H 0.24407 0.37599 0.24167 0.0
C328 C 0.11691 0.31238 0.22554 0.0
C329 C 0.14473 0.29289 0.21283 0.0
C330 C 0.12823 0.32934 0.24462 0.0
C331 C 0.1675 0.3272 0.25129 0.0
C332 C 0.19491 0.30607 0.23928 0.0
H333 H 0.28767 0.46188 0.34832 0.0
H334 H 0.2721 0.41391 0.32091 0.0
C335 C 0.18365 0.28904 0.22019 0.0
C336 C 0.18024 0.34955 0.27001 0.0
H337 H 0.23338 0.43028 0.28476 0.0
C338 C 0.16569 0.33863 0.28982 0.0
C339 C 0.20519 0.38274 0.26813 0.0
C340 C 0.22062 0.39637 0.24707 0.0
C341 C 0.17554 0.36018 0.30794 0.0
C342 C 0.19983 0.39389 0.30599 0.0
C343 C 0.21485 0.40434 0.2862 0.0
C344 C 0.2089 0.41991 0.32403 0.0
C345 C 0.16012 0.34649 0.32897 0.0
C346 C 0.17848 0.43911 0.3349 0.0
C347 C 0.18724 0.46648 0.35064 0.0
C348 C 0.22663 0.47552 0.3556 0.0
C349 C 0.25702 0.45577 0.34486 0.0
C350 C 0.2482 0.42826 0.32922 0.0
H351 H 0.15264 0.31462 0.32871 0.0
H352 H 0.18196 0.35189 0.34166 0.0
H353 H 0.13286 0.36298 0.33283 0.0
H354 H 0.14796 0.43385 0.33076 0.0
H355 H 0.16312 0.4813 0.3585 0.0
H356 H 0.01827 0.66781 0.60956 0.0
H357 H 0.06684 0.65524 0.58206 0.0
H358 H 0.0764 0.77993 0.5702 0.0
H359 H 0.02722 0.79284 0.59738 0.0
H360 H 0.06197 0.73835 0.5349 0.0
H361 H 0.18505 0.66922 0.57822 0.0
H362 H 0.13873 0.64565 0.58349 0.0
H363 H 0.14624 0.69609 0.59133 0.0
C364 C 0.03113 0.69265 0.60136 0.0
C365 C 0.01867 0.73132 0.60561 0.0
C366 C 0.05917 0.68541 0.58575 0.0
C367 C 0.07567 0.71671 0.57432 0.0
C368 C 0.06418 0.75541 0.57894 0.0
H369 H 0.21202 0.70583 0.45712 0.0
H370 H 0.18508 0.73014 0.49039 0.0
C371 C 0.03598 0.76268 0.59445 0.0
C372 C 0.10152 0.7087 0.55608 0.0
H373 H 0.18364 0.6584 0.54074 0.0
C374 C 0.08898 0.72151 0.53621 0.0
C375 C 0.13667 0.68668 0.55787 0.0
C376 C 0.15269 0.67396 0.57892 0.0
C377 C 0.10962 0.71126 0.51792 0.0
C378 C 0.14394 0.68801 0.51965 0.0
C379 C 0.15726 0.67623 0.53955 0.0
C380 C 0.1644 0.6731 0.50078 0.0
C381 C 0.09353 0.72378 0.49683 0.0
C382 C 0.16278 0.63283 0.49605 0.0
C383 C 0.17809 0.61879 0.47711 0.0
C384 C 0.19543 0.64484 0.46258 0.0
C385 C 0.19861 0.685 0.46786 0.0
C386 C 0.1832 0.69899 0.48683 0.0
H387 H 0.06321 0.73585 0.49807 0.0
H388 H 0.11284 0.74695 0.49007 0.0
H389 H 0.09314 0.69854 0.48569 0.0
H390 H 0.14841 0.61244 0.5067 0.0
H391 H 0.17542 0.58765 0.47368 0.0
H392 H 0.69944 0.50878 0.8392 0.0
H393 H 0.7141 0.55414 0.81035 0.0
H394 H 0.83141 0.57147 0.83468 0.0
H395 H 0.81737 0.52617 0.8635 0.0
H396 H 0.74676 0.63673 0.80959 0.0
H397 H 0.84279 0.52184 0.77409 0.0
H398 H 0.80654 0.51082 0.79405 0.0
H399 H 0.85255 0.53335 0.80121 0.0
C400 C 0.72818 0.52267 0.83863 0.0
C401 C 0.75743 0.51339 0.85352 0.0
C402 C 0.73641 0.54864 0.82217 0.0
C403 C 0.77391 0.56561 0.82036 0.0
C404 C 0.8024 0.55823 0.83579 0.0
H405 H 0.90293 0.68611 0.7239 0.0
H406 H 0.87945 0.6575 0.75676 0.0
C407 C 0.79428 0.53231 0.85223 0.0
C408 C 0.78455 0.58822 0.80142 0.0
H409 H 0.8428 0.5842 0.75779 0.0
C410 C 0.76766 0.62538 0.79818 0.0
C411 C 0.81157 0.57294 0.78662 0.0
C412 C 0.82925 0.53242 0.78898 0.0
C413 C 0.7781 0.64829 0.78065 0.0
C414 C 0.8056 0.63317 0.76602 0.0
C415 C 0.82195 0.59577 0.76917 0.0
C416 C 0.8183 0.65537 0.74724 0.0
C417 C 0.76043 0.68872 0.77816 0.0
C418 C 0.79149 0.66414 0.73114 0.0
C419 C 0.8048 0.68059 0.71227 0.0
C420 C 0.84519 0.68806 0.70917 0.0
C421 C 0.87168 0.68042 0.72567 0.0
C422 C 0.85833 0.66419 0.7445 0.0
H423 H 0.74721 0.69954 0.79308 0.0
H424 H 0.78302 0.7102 0.77281 0.0
H425 H 0.73685 0.68751 0.76609 0.0
H426 H 0.76057 0.65684 0.73283 0.0
H427 H 0.78364 0.68604 0.69987 0.0
H428 H 0.98473 0.3151 0.10775 0.0
H429 H 0.94026 0.33047 0.07874 0.0
H430 H 0.95123 0.21172 0.0554 0.0
H431 H 0.99559 0.19578 0.08441 0.0
H432 H 0.96223 0.32298 0.03544 0.0
H433 H 0.83051 0.23266 0.05548 0.0
H434 H 0.86754 0.24577 0.07469 0.0
H435 H 0.87704 0.20743 0.0559 0.0
C436 C 0.97742 0.29205 0.09661 0.0
C437 C 0.99383 0.2542 0.09841 0.0
C438 C 0.95198 0.30092 0.08007 0.0
C439 C 0.94221 0.27208 0.06515 0.0
C440 C 0.95793 0.23414 0.06702 0.0
H441 H 0.81636 0.2817 0.94642 0.0
H442 H 0.85002 0.25982 0.97838 0.0
C443 C 0.98349 0.22521 0.08353 0.0
C444 C 0.91801 0.28268 0.04676 0.0
H445 H 0.83028 0.26461 0.02232 0.0
C446 C 0.9333 0.31039 0.0326 0.0
C447 C 0.88055 0.26577 0.04308 0.0
C448 C 0.86265 0.23645 0.05814 0.0
C449 C 0.91216 0.32159 0.0147 0.0
C450 C 0.87437 0.30523 0.01117 0.0
C451 C 0.8592 0.27716 0.0252 0.0
C452 C 0.85029 0.31738 -0.007 0.0
C453 C 0.93074 0.35035 -0.00048 0.0
C454 C 0.8382 0.35662 0.99108 0.0
C455 C 0.81922 0.36928 0.97288 0.0
C456 C 0.81169 0.34277 0.95632 0.0
C457 C 0.82187 0.3029 0.95883 0.0
C458 C 0.84107 0.29032 0.97706 0.0
H459 H 0.96321 0.35214 0.00161 0.0
H460 H 0.92437 0.34195 0.98298 0.0
H461 H 0.91839 0.38012 0.00234 0.0
H462 H 0.8444 0.37772 0.00346 0.0
H463 H 0.81128 0.40006 0.97162 0.0
H464 H 0.57467 0.19186 0.50902 0.0
H465 H 0.59217 0.16388 0.47489 0.0
H466 H 0.71528 0.16903 0.49144 0.0
H467 H 0.69818 0.19777 0.52559 0.0
H468 H 0.69879 0.18881 0.44857 0.0
H469 H 0.62826 0.0484 0.47332 0.0
H470 H 0.59656 0.09059 0.47458 0.0
H471 H 0.63879 0.08776 0.49158 0.0
C472 C 0.60553 0.18749 0.50535 0.0
C473 C 0.63503 0.1964 0.52016 0.0
C474 C 0.61543 0.17148 0.48584 0.0
C475 C 0.65489 0.16367 0.48091 0.0
C476 C 0.68461 0.1747 0.49507 0.0
H477 H 0.77798 0.0279 0.38756 0.0
H478 H 0.75958 0.0753 0.41472 0.0
C479 C 0.67477 0.19106 0.51457 0.0
C480 C 0.66484 0.14119 0.46173 0.0
H481 H 0.65208 0.05148 0.43852 0.0
C482 C 0.68859 0.15882 0.44629 0.0
C483 C 0.6516 0.10199 0.45897 0.0
C484 C 0.6277 0.08085 0.47555 0.0
C485 C 0.69909 0.13827 0.42794 0.0
C486 C 0.68576 0.09913 0.42522 0.0
C487 C 0.66189 0.08166 0.44062 0.0
C488 C 0.6975 0.07474 0.40703 0.0
C489 C 0.72401 0.15859 0.41155 0.0
C490 C 0.66861 0.05874 0.39375 0.0
C491 C 0.67892 0.03141 0.3783 0.0
C492 C 0.71832 0.01934 0.37598 0.0
C493 C 0.74736 0.03648 0.3889 0.0
C494 C 0.73699 0.06385 0.40433 0.0
H495 H 0.72323 0.19113 0.41337 0.0
H496 H 0.75505 0.1489 0.41325 0.0
H497 H 0.71401 0.15079 0.39544 0.0
H498 H 0.63791 0.06664 0.39575 0.0
H499 H 0.65579 0.01891 0.36861 0.0
H500 H 0.2801 0.20256 0.77718 0.0
H501 H 0.31093 0.21934 0.74364 0.0
H502 H 0.3458 0.09835 0.73516 0.0
H503 H 0.31491 0.08103 0.76861 0.0
H504 H 0.39303 0.20654 0.737 0.0
H505 H 0.3013 0.13064 0.67689 0.0
H506 H 0.28344 0.14162 0.70304 0.0
H507 H 0.31603 0.10077 0.69884 0.0
C508 C 0.29369 0.1793 0.76805 0.0
C509 C 0.29529 0.14046 0.7757 0.0
C510 C 0.31124 0.18899 0.74888 0.0
C511 C 0.3303 0.16002 0.73692 0.0
C512 C 0.33063 0.12098 0.74404 0.0
H513 H 0.48815 0.15753 0.63059 0.0
H514 H 0.44278 0.14133 0.65922 0.0
C515 C 0.31319 0.11123 0.76324 0.0
C516 C 0.35352 0.17139 0.71825 0.0
H517 H 0.36276 0.15674 0.66536 0.0
C518 C 0.38625 0.19601 0.72128 0.0
C519 C 0.34468 0.15715 0.6979 0.0
C520 C 0.30928 0.13131 0.69384 0.0
C521 C 0.41104 0.20617 0.70453 0.0
C522 C 0.4022 0.19207 0.68411 0.0
C523 C 0.3693 0.16758 0.68104 0.0
C524 C 0.42738 0.20187 0.66588 0.0
C525 C 0.44717 0.23086 0.70898 0.0
C526 C 0.43293 0.2412 0.65987 0.0
C527 C 0.45906 0.25061 0.64368 0.0
C528 C 0.47971 0.22077 0.63301 0.0
C529 C 0.47281 0.18123 0.63852 0.0
C530 C 0.44687 0.17189 0.65484 0.0
H531 H 0.45514 0.23044 0.72593 0.0
H532 H 0.47285 0.22038 0.6997 0.0
H533 H 0.44122 0.26185 0.70451 0.0
H534 H 0.41744 0.26467 0.66791 0.0
H535 H 0.46327 0.28132 0.63965 0.0
H536 H 0.27915 0.80509 0.04013 0.0
H537 H 0.25329 0.83849 0.00903 0.0
H538 H 0.37026 0.84389 0.98263 0.0
H539 H 0.39652 0.81046 0.01354 0.0
H540 H 0.28035 0.91521 -0.00321 0.0
H541 H 0.30013 0.80446 0.93335 0.0
H542 H 0.29877 0.79146 0.96091 0.0
H543 H 0.34275 0.81212 0.94963 0.0
C544 C 0.29934 0.81276 0.02757 0.0
C545 C 0.33998 0.80528 0.02938 0.0
C546 C 0.28447 0.83184 0.00984 0.0
C547 C 0.30985 0.84322 -0.00646 0.0
C548 C 0.35015 0.8347 -0.00506 0.0
H549 H 0.31057 0.98757 0.88381 0.0
H550 H 0.32349 0.94194 0.91261 0.0
C551 C 0.36511 0.81585 0.01269 0.0
C552 C 0.29506 0.86737 0.976 0.0
H553 H 0.28778 0.87055 0.92253 0.0
C554 C 0.2814 0.90537 0.98055 0.0
C555 C 0.29679 0.85429 0.95492 0.0
C556 C 0.31008 0.81322 0.94934 0.0
C557 C 0.27089 0.93141 0.96445 0.0
C558 C 0.27333 0.91861 0.9433 0.0
C559 C 0.28602 0.88021 0.93878 0.0
C560 C 0.26463 0.94529 0.92559 0.0
C561 C 0.25896 0.97288 0.97017 0.0
C562 C 0.22708 0.96184 0.92325 0.0
C563 C 0.21963 0.98821 0.90691 0.0
C564 C 0.24954 -0.00192 0.89248 0.0
C565 C 0.28688 0.98067 0.89464 0.0
C566 C 0.29433 0.95453 0.91105 0.0
H567 H 0.26762 0.98063 0.98652 0.0
H568 H 0.27247 0.99456 0.95925 0.0
H569 H 0.22646 0.97558 0.96898 0.0
H570 H 0.20356 0.95442 0.93408 0.0
H571 H 0.19043 0.00075 0.90558 0.0
H572 H 0.52602 0.81083 0.12101 0.0
H573 H 0.57227 0.82446 0.14946 0.0
H574 H 0.56046 0.705 0.17148 0.0
H575 H 0.51419 0.69078 0.14299 0.0
H576 H 0.54663 0.81426 0.1924 0.0
H577 H 0.68176 0.72825 0.17381 0.0
H578 H 0.64652 0.74234 0.15389 0.0
H579 H 0.63533 0.70283 0.17163 0.0
C580 C 0.5337 0.78716 0.13164 0.0
C581 C 0.51606 0.74978 0.12981 0.0
C582 C 0.56023 0.79503 0.14785 0.0
C583 C 0.56988 0.76565 0.16241 0.0
C584 C 0.55379 0.72784 0.16016 0.0
H585 H 0.68636 0.78007 0.28413 0.0
H586 H 0.65702 0.75563 0.25136 0.0
C587 C 0.52715 0.7199 0.14394 0.0
C588 C 0.59278 0.7761 0.18132 0.0
H589 H 0.6798 0.76064 0.20688 0.0
C590 C 0.5758 0.80266 0.19555 0.0
C591 C 0.6305 0.76036 0.18541 0.0
C592 C 0.6499 0.73202 0.17037 0.0
C593 C 0.59563 0.81415 0.21383 0.0
C594 C 0.63382 0.79929 0.21771 0.0
C595 C 0.65061 0.7721 0.2037 0.0
C596 C 0.65663 0.81256 0.23616 0.0
C597 C 0.57535 0.8418 0.22898 0.0
C598 C 0.66731 0.85229 0.23801 0.0
C599 C 0.68369 0.86638 0.25666 0.0
C600 C 0.69002 0.84086 0.27373 0.0
C601 C 0.68167 0.8005 0.2713 0.0
C602 C 0.66499 0.78646 0.25262 0.0
H603 H 0.54295 0.84237 0.22646 0.0
H604 H 0.58122 0.83327 0.24554 0.0
H605 H 0.58679 0.8721 0.22657 0.0
H606 H 0.66163 0.87269 0.22528 0.0
H607 H 0.69038 0.89751 0.25787 0.0
H608 H 0.14767 0.14683 0.91401 0.0
H609 H 0.14641 0.16798 0.95063 0.0
H610 H 0.25382 0.2338 0.94127 0.0
H611 H 0.25551 0.2126 0.90437 0.0
H612 H 0.25506 0.17978 0.97554 0.0
H613 H 0.12305 0.27494 0.9784 0.0
H614 H 0.11388 0.22927 0.96501 0.0
H615 H 0.14865 0.26383 0.95416 0.0
C616 C 0.17075 0.16631 0.91959 0.0
C617 C 0.20175 0.17796 0.90631 0.0
C618 C 0.1698 0.1786 0.94049 0.0
C619 C 0.19977 0.20279 0.94852 0.0
C620 C 0.23027 0.2154 0.93523 0.0
H621 H 0.21633 0.24342 0.08557 0.0
H622 H 0.23372 0.24766 0.04821 0.0
C623 C 0.23109 0.20335 0.91419 0.0
C624 C 0.20066 0.21135 0.97127 0.0
H625 H 0.14202 0.24408 0.01114 0.0
C626 C 0.23096 0.19476 0.98338 0.0
C627 C 0.1692 0.23099 0.98133 0.0
C628 C 0.13706 0.25112 0.96903 0.0
C629 C 0.22893 0.19466 0.00543 0.0
C630 C 0.19597 0.21178 0.01539 0.0
C631 C 0.16708 0.23067 0.00333 0.0
C632 C 0.18856 0.20685 0.03807 0.0
C633 C 0.26052 0.17409 0.01792 0.0
C634 C 0.1579 0.18201 0.04457 0.0
C635 C 0.14791 0.17941 0.06578 0.0
C636 C 0.16829 0.20186 0.08089 0.0
C637 C 0.2001 0.22564 0.07436 0.0
C638 C 0.21009 0.22818 0.05306 0.0
H639 H 0.28305 0.16013 0.00766 0.0
H640 H 0.27544 0.19565 0.02839 0.0
H641 H 0.24707 0.1511 0.02807 0.0
H642 H 0.1411 0.16527 0.03314 0.0
H643 H 0.12339 0.1607 0.07021 0.0
H644 H 0.28804 0.72335 0.1556 0.0
H645 H 0.27288 0.71755 0.19311 0.0
H646 H 0.3855 0.66261 0.20376 0.0
H647 H 0.40114 0.66822 0.16642 0.0
H648 H 0.27226 0.64591 0.2182 0.0
H649 H 0.38071 0.75712 0.24599 0.0
H650 H 0.36384 0.75471 0.21906 0.0
H651 H 0.40044 0.72077 0.22833 0.0
C652 C 0.30958 0.70995 0.16589 0.0
C653 C 0.34587 0.69637 0.15801 0.0
C654 C 0.30086 0.70674 0.18729 0.0
C655 C 0.3284 0.6903 0.2011 0.0
C656 C 0.36424 0.67603 0.19329 0.0
H657 H 0.31919 0.58603 0.32164 0.0
H658 H 0.32521 0.60414 0.28472 0.0
C659 C 0.37295 0.67902 0.17193 0.0
C660 C 0.31952 0.68707 0.22369 0.0
H661 H 0.35265 0.71501 0.27212 0.0
C662 C 0.28943 0.66135 0.23002 0.0
C663 C 0.34178 0.70769 0.23894 0.0
C664 C 0.37329 0.73693 0.2328 0.0
C665 C 0.28224 0.65425 0.25137 0.0
C666 C 0.30597 0.67322 0.2666 0.0
C667 C 0.33478 0.70037 0.2603 0.0
C668 C 0.30294 0.6632 0.28904 0.0
C669 C 0.24986 0.62599 0.25752 0.0
C670 C 0.28941 0.69096 0.30367 0.0
C671 C 0.28591 0.68079 0.32488 0.0
C672 C 0.29628 0.64279 0.33172 0.0
C673 C 0.31082 0.6155 0.31696 0.0
C674 C 0.3141 0.62566 0.29583 0.0
H675 H 0.22842 0.62148 0.24453 0.0
H676 H 0.26302 0.59702 0.26144 0.0
H677 H 0.23382 0.63679 0.27163 0.0
H678 H 0.281 0.72021 0.29861 0.0
H679 H 0.27473 0.70253 0.33583 0.0
H680 H 0.79447 0.79139 0.40057 0.0
H681 H 0.80269 0.77553 0.43789 0.0
H682 H 0.7751 0.89577 0.45434 0.0
H683 H 0.76893 0.91212 0.41713 0.0
H684 H 0.83704 0.87391 0.4742 0.0
H685 H 0.72488 0.75681 0.4837 0.0
H686 H 0.75951 0.74492 0.46337 0.0
H687 H 0.72773 0.78698 0.46041 0.0
C688 C 0.78993 0.81426 0.41222 0.0
C689 C 0.78134 0.85298 0.40605 0.0
C690 C 0.79423 0.80512 0.43352 0.0
C691 C 0.78879 0.8343 0.44894 0.0
C692 C 0.77938 0.87278 0.44273 0.0
H693 H 0.78331 0.78858 0.58413 0.0
H694 H 0.76483 0.80202 0.54753 0.0
C695 C 0.77599 0.88211 0.42148 0.0
C696 C 0.79585 0.82573 0.47144 0.0
H697 H 0.77282 0.76253 0.51132 0.0
C698 C 0.82263 0.84978 0.48234 0.0
C699 C 0.77661 0.79466 0.48218 0.0
C700 C 0.74527 0.76967 0.47186 0.0
C701 C 0.83132 0.84324 0.50355 0.0
C702 C 0.81404 0.81064 0.51391 0.0
C703 C 0.7865 0.78711 0.50322 0.0
C704 C 0.8247 0.80038 0.53575 0.0
C705 C 0.85847 0.87177 0.51466 0.0
C706 C 0.86426 0.79393 0.54106 0.0
C707 C 0.87488 0.78709 0.56188 0.0
C708 C 0.84598 0.78546 0.57768 0.0
C709 C 0.80613 0.78983 0.57222 0.0
C710 C 0.79558 0.79747 0.55138 0.0
H711 H 0.85836 0.90112 0.50695 0.0
H712 H 0.85 0.87563 0.53142 0.0
H713 H 0.88907 0.86039 0.51402 0.0
H714 H 0.88704 0.79471 0.52912 0.0
H715 H 0.90575 0.78303 0.56562 0.0
H716 H 0.59294 0.26945 0.66668 0.0
H717 H 0.61362 0.27874 0.70306 0.0
H718 H 0.73084 0.30893 0.6821 0.0
H719 H 0.71056 0.29802 0.64541 0.0
H720 H 0.73156 0.26399 0.71796 0.0
H721 H 0.62747 0.38808 0.72675 0.0
H722 H 0.60273 0.34384 0.71876 0.0
H723 H 0.63852 0.36626 0.70155 0.0
C724 C 0.62318 0.27791 0.66982 0.0
C725 C 0.65004 0.28376 0.6533 0.0
C726 C 0.63491 0.28328 0.69058 0.0
C727 C 0.67338 0.29565 0.69517 0.0
C728 C 0.70089 0.29974 0.67879 0.0
H729 H 0.71655 0.40502 0.81583 0.0
H730 H 0.71273 0.39058 0.77831 0.0
C731 C 0.68932 0.29359 0.65792 0.0
C732 C 0.68396 0.30579 0.71703 0.0
H733 H 0.65378 0.36161 0.75852 0.0
C734 C 0.71494 0.28563 0.72683 0.0
C735 C 0.66272 0.33465 0.72836 0.0
C736 C 0.63132 0.35974 0.71824 0.0
C737 C 0.72439 0.29268 0.74801 0.0
C738 C 0.70138 0.31971 0.7597 0.0
C739 C 0.67115 0.34056 0.74964 0.0
C740 C 0.70788 0.32741 0.78235 0.0
C741 C 0.75915 0.27154 0.75749 0.0
C742 C 0.70677 0.29665 0.79711 0.0
C743 C 0.70973 0.30484 0.81861 0.0
C744 C 0.71257 0.34396 0.8256 0.0
C745 C 0.71379 0.37461 0.81083 0.0
C746 C 0.71181 0.36638 0.78941 0.0
H747 H 0.78068 0.26261 0.74521 0.0
H748 H 0.77453 0.29022 0.76926 0.0
H749 H 0.74865 0.24439 0.76544 0.0
H750 H 0.70259 0.26646 0.79207 0.0
H751 H 0.70861 0.28077 0.82977 0.0
H752 H 0.22191 0.14662 0.18553 0.0
H753 H 0.26746 0.09112 0.18879 0.0
H754 H 0.19206 0.0212 0.14874 0.0
H755 H 0.14575 0.07535 0.14635 0.0
H756 H 0.22573 0.97626 0.1768 0.0
H757 H 0.34023 0.07242 0.14053 0.0
H758 H 0.32272 0.08769 0.1659 0.0
H759 H 0.28996 0.0882 0.14365 0.0
C760 C 0.2146 0.11902 0.17789 0.0
C761 C 0.18059 0.11561 0.16535 0.0
C762 C 0.24084 0.08748 0.17961 0.0
C763 C 0.23393 0.05253 0.16836 0.0
C764 C 0.19828 0.048 0.15741 0.0
H765 H 0.3638 0.90248 0.09244 0.0
H766 H 0.33638 0.9582 0.11202 0.0
C767 C 0.17172 0.0791 0.15606 0.0
C768 C 0.26473 0.02193 0.16597 0.0
H769 H 0.35442 0.00553 0.1432 0.0
C770 C 0.25416 0.98261 0.16974 0.0
C771 C 0.30177 0.03041 0.15667 0.0
C772 C 0.31438 0.07188 0.15127 0.0
C773 C 0.27801 0.9514 0.16296 0.0
C774 C 0.31452 0.95986 0.15307 0.0
C775 C 0.32648 -0.0008 0.1508 0.0
C776 C 0.33781 0.92887 0.14231 0.0
C777 C 0.26217 0.90995 0.16497 0.0
C778 C 0.34963 0.89469 0.15295 0.0
C779 C 0.36426 0.86259 0.14165 0.0
C780 C 0.36887 0.86496 0.11975 0.0
C781 C 0.36078 0.90035 0.10938 0.0
C782 C 0.34507 0.93205 0.12057 0.0
H783 H 0.23011 0.90951 0.16856 0.0
H784 H 0.26704 0.89299 0.15025 0.0
H785 H 0.27758 0.89471 0.178 0.0
H786 H 0.34559 0.89204 0.16978 0.0
H787 H 0.37046 0.83537 0.14988 0.0
H788 H 0.41372 0.6274 0.3967 0.0
H789 H 0.46879 0.67312 0.39701 0.0
H790 H 0.4022 0.75337 0.43585 0.0
H791 H 0.34603 0.7082 0.43488 0.0
H792 H 0.42714 0.79005 0.40296 0.0
H793 H 0.55402 0.70937 0.43468 0.0
H794 H 0.53197 0.68026 0.41434 0.0
H795 H 0.50422 0.69152 0.43783 0.0
C796 C 0.41113 0.65412 0.40593 0.0
C797 C 0.3753 0.66432 0.41558 0.0
C798 C 0.44288 0.68027 0.40619 0.0
C799 C 0.43985 0.71669 0.41657 0.0
C800 C 0.40521 0.72549 0.4277 0.0
H801 H 0.65133 0.85631 0.39381 0.0
H802 H 0.5961 0.82836 0.41355 0.0
C803 C 0.37318 0.69958 0.42719 0.0
C804 C 0.47027 0.74741 0.41301 0.0
H805 H 0.56949 0.75954 0.40823 0.0
C806 C 0.4583 0.78376 0.40462 0.0
C807 C 0.51093 0.73982 0.41554 0.0
C808 C 0.5259 0.70325 0.42633 0.0
C809 C 0.48585 0.8114 0.3973 0.0
C810 C 0.52638 0.80182 0.39769 0.0
C811 C 0.53841 0.76675 0.40749 0.0
C812 C 0.55667 0.82596 0.38679 0.0
C813 C 0.47105 0.85025 0.38902 0.0
C814 C 0.55253 0.8353 0.36532 0.0
C815 C 0.58376 0.85237 0.35418 0.0
C816 C 0.61984 0.85921 0.36424 0.0
C817 C 0.62355 0.85135 0.38582 0.0
C818 C 0.59211 0.83526 0.39705 0.0
H819 H 0.44361 0.85925 0.39726 0.0
H820 H 0.49333 0.874 0.3909 0.0
H821 H 0.46388 0.8471 0.37207 0.0
H822 H 0.52603 0.82735 0.35684 0.0
H823 H 0.58065 0.85759 0.33745 0.0
H824 H 0.58584 0.09242 0.60954 0.0
H825 H 0.6098 0.03429 0.62852 0.0
H826 H 0.72553 0.08656 0.63234 0.0
H827 H 0.70215 0.14436 0.6139 0.0
H828 H 0.66765 0.98433 0.61631 0.0
H829 H 0.70987 0.05082 0.69224 0.0
H830 H 0.67817 0.07564 0.6737 0.0
H831 H 0.73099 0.07801 0.67086 0.0
C832 C 0.61632 0.09156 0.61454 0.0
C833 C 0.642 0.12313 0.61022 0.0
C834 C 0.62987 0.05848 0.62548 0.0
C835 C 0.66914 0.05666 0.63237 0.0
C836 C 0.69477 0.08792 0.62786 0.0
H837 H 0.85537 0.90679 0.65173 0.0
H838 H 0.8082 0.96091 0.65163 0.0
C839 C 0.68137 0.12083 0.61705 0.0
C840 C 0.68503 0.02083 0.64244 0.0
H841 H 0.74621 0.99166 0.68206 0.0
C842 C 0.68384 0.98551 0.63101 0.0
C843 C 0.70599 0.02247 0.66167 0.0
C844 C 0.70595 0.05873 0.67541 0.0
C845 C 0.70587 0.95278 0.63737 0.0
C846 C 0.72929 0.95552 0.65572 0.0
C847 C 0.72838 0.98987 0.66793 0.0
C848 C 0.75845 0.92482 0.66072 0.0
C849 C 0.70618 0.91645 0.62363 0.0
C850 C 0.7463 0.88718 0.66696 0.0
C851 C 0.77317 0.8561 0.66705 0.0
C852 C 0.81254 0.86227 0.66076 0.0
C853 C 0.82525 0.90087 0.65643 0.0
C854 C 0.79836 0.93189 0.65641 0.0
H855 H 0.6895 0.92069 0.60878 0.0
H856 H 0.73693 0.90815 0.61965 0.0
H857 H 0.69271 0.89149 0.63232 0.0
H858 H 0.71561 0.88139 0.67053 0.0
H859 H 0.76239 0.82686 0.67071 0.0
H860 H 0.39227 0.08388 0.86443 0.0
H861 H 0.45313 0.10338 0.88264 0.0
H862 H 0.40899 0.22183 0.88879 0.0
H863 H 0.34865 0.20293 0.87112 0.0
H864 H 0.50553 0.15912 0.86931 0.0
H865 H 0.44989 0.20219 0.94747 0.0
H866 H 0.42143 0.17216 0.92954 0.0
H867 H 0.42131 0.22507 0.92722 0.0
C868 C 0.39543 0.11397 0.86986 0.0
C869 C 0.36555 0.14181 0.86622 0.0
C870 C 0.4301 0.12498 0.88034 0.0
C871 C 0.43512 0.1638 0.88754 0.0
C872 C 0.40527 0.19141 0.884 0.0
H873 H 0.58961 0.34602 0.90426 0.0
H874 H 0.53571 0.29843 0.90552 0.0
C875 C 0.37088 0.18057 0.87358 0.0
C876 C 0.47291 0.17736 0.89667 0.0
H877 H 0.50912 0.23698 0.93543 0.0
C878 C 0.50679 0.17506 0.88409 0.0
C879 C 0.47445 0.198 0.91602 0.0
C880 C 0.43985 0.19911 0.93091 0.0
C881 C 0.54105 0.19602 0.88936 0.0
C882 C 0.5414 0.2194 0.90781 0.0
C883 C 0.5086 0.21922 0.92122 0.0
C884 C 0.57321 0.24831 0.91161 0.0
C885 C 0.57551 0.19549 0.87431 0.0
C886 C 0.61184 0.23605 0.91568 0.0
C887 C 0.64284 0.2632 0.91495 0.0
C888 C 0.63559 0.303 0.91007 0.0
C889 C 0.59636 0.31559 0.90782 0.0
C890 C 0.56546 0.28844 0.90859 0.0
H891 H 0.5687 0.17933 0.85954 0.0
H892 H 0.58446 0.22602 0.87023 0.0
H893 H 0.60102 0.18098 0.88195 0.0
H894 H 0.61824 0.20521 0.9183 0.0
H895 H 0.67263 0.25247 0.91696 0.0
H896 H 0.86701 0.582 0.64644 0.0
H897 H 0.83562 0.52594 0.62882 0.0
H898 H 0.82984 0.59265 0.57111 0.0
H899 H 0.85917 0.64926 0.58911 0.0
H900 H 0.76121 0.56694 0.57988 0.0
H901 H 0.86222 0.44118 0.58837 0.0
H902 H 0.85328 0.46298 0.61359 0.0
H903 H 0.87786 0.49114 0.5934 0.0
C904 C 0.86029 0.58401 0.62981 0.0
C905 C 0.86556 0.61959 0.61903 0.0
C906 C 0.84246 0.55196 0.6197 0.0
C907 C 0.83062 0.55484 0.59852 0.0
C908 C 0.83866 0.58965 0.58741 0.0
H909 H 0.70758 0.34551 0.55156 0.0
H910 H 0.75307 0.40143 0.55139 0.0
C911 C 0.8556 0.62186 0.59764 0.0
C912 C 0.80494 0.52414 0.58898 0.0
H913 H 0.79274 0.4248 0.58447 0.0
C914 C 0.76857 0.53589 0.58049 0.0
C915 C 0.81455 0.48365 0.58933 0.0
C916 C 0.85433 0.4691 0.59645 0.0
C917 C 0.74074 0.50825 0.57352 0.0
C918 C 0.74887 0.46767 0.57576 0.0
C919 C 0.78616 0.45592 0.58302 0.0
C920 C 0.71817 0.43704 0.57261 0.0
C921 C 0.70274 0.52295 0.56408 0.0
C922 C 0.68274 0.43899 0.584 0.0
C923 C 0.65641 0.40736 0.58388 0.0
C924 C 0.66539 0.3727 0.57275 0.0
C925 C 0.6998 0.37169 0.56037 0.0
C926 C 0.72594 0.40358 0.56031 0.0
H927 H 0.70726 0.55162 0.55602 0.0
H928 H 0.6903 0.50161 0.5526 0.0
H929 H 0.68089 0.52772 0.57683 0.0
H930 H 0.67645 0.464 0.59402 0.0
H931 H 0.6304 0.40911 0.59373 0.0
H932 H 0.07656 0.14966 0.83705 0.0
H933 H 0.02328 0.19614 0.83221 0.0
H934 H 0.10082 0.27311 0.79738 0.0
H935 H 0.15513 0.22714 0.80297 0.0
H936 H 0.06928 0.31232 0.82723 0.0
H937 H 0.94813 0.23252 0.78931 0.0
H938 H 0.96465 0.20292 0.8108 0.0
H939 H -0.00224 0.21347 0.78923 0.0
C940 C 0.08212 0.17582 0.82777 0.0
C941 C 0.12025 0.18491 0.82064 0.0
C942 C 0.05138 0.20237 0.82484 0.0
C943 C 0.05781 0.23809 0.81423 0.0
C944 C 0.09513 0.24576 0.8056 0.0
H945 H 0.84183 0.36894 0.83552 0.0
H946 H 0.89843 0.34783 0.81446 0.0
C947 C 0.12613 0.21943 0.8088 0.0
C948 C 0.02759 0.26948 0.81546 0.0
H949 H 0.92805 0.28078 0.81663 0.0
C950 C 0.03844 0.3059 0.8243 0.0
C951 C 0.98745 0.26199 0.81107 0.0
C952 C 0.97404 0.22571 0.79933 0.0
C953 C 0.00994 0.33308 0.83088 0.0
C954 C 0.96962 0.32288 0.82932 0.0
C955 C 0.95892 0.2884 0.81843 0.0
C956 C 0.93844 0.34446 0.84095 0.0
C957 C 0.0235 0.37185 0.83999 0.0
C958 C 0.94238 0.35109 0.86273 0.0
C959 C 0.91036 0.36427 0.87463 0.0
C960 C 0.87375 0.36986 0.86499 0.0
C961 C 0.87009 0.36494 0.84316 0.0
C962 C 0.90231 0.35279 0.83118 0.0
H963 H 0.0506 0.38228 0.83189 0.0
H964 H 0.00052 0.39493 0.83865 0.0
H965 H 0.031 0.36778 0.85684 0.0
H966 H 0.96938 0.34364 0.87084 0.0
H967 H 0.91343 0.36724 0.89152 0.0
H968 H 0.25702 0.66365 0.06434 0.0
H969 H 0.20975 0.60933 0.06289 0.0
H970 H 0.30254 0.52713 0.07715 0.0
H971 H 0.35014 0.58091 0.07843 0.0
H972 H 0.24154 0.49796 0.04855 0.0
H973 H 0.1833 0.56558 0.12237 0.0
H974 H 0.18432 0.5954 0.09902 0.0
H975 H 0.22973 0.58064 0.1111 0.0
C976 C 0.26767 0.63392 0.06661 0.0
C977 C 0.30726 0.62676 0.07206 0.0
C978 C 0.24054 0.60296 0.06579 0.0
C979 C 0.2526 0.5645 0.0704 0.0
C980 C 0.29269 0.55675 0.07368 0.0
H981 H 0.20651 0.34498 0.11792 0.0
H982 H 0.22605 0.40327 0.09853 0.0
C983 C 0.31985 0.5876 0.07447 0.0
C984 C 0.22351 0.53328 0.07499 0.0
H985 H 0.16297 0.5017 0.11441 0.0
C986 C 0.22361 0.49902 0.06267 0.0
C987 C 0.19996 0.53495 0.09337 0.0
C988 C 0.19924 0.57095 0.10736 0.0
C989 C 0.20253 0.46545 0.06895 0.0
C990 C 0.1817 0.4661 0.08824 0.0
C991 C 0.17908 0.50132 0.09967 0.0
C992 C 0.168 0.42951 0.09853 0.0
C993 C 0.20399 0.42916 0.05526 0.0
C994 C 0.12901 0.42545 0.10563 0.0
C995 C 0.11767 0.3921 0.11709 0.0
C996 C 0.14531 0.36254 0.12177 0.0
C997 C 0.18432 0.36698 0.11461 0.0
C998 C 0.19551 0.40013 0.10323 0.0
H999 H 0.20742 0.43719 0.03841 0.0
H1000 H 0.2299 0.41116 0.05975 0.0
H1001 H 0.17701 0.41091 0.05709 0.0
H1002 H 0.10751 0.44819 0.10245 0.0
H1003 H 0.08739 0.38957 0.12232 0.0
H1004 H 0.90653 0.86677 0.33559 0.0
H1005 H 0.96343 0.82322 0.33764 0.0
H1006 H 0.89246 0.72599 0.31584 0.0
H1007 H 0.83522 0.76922 0.3136 0.0
H1008 H 0.95396 0.75621 0.36594 0.0
H1009 H 0.00232 0.71305 0.28539 0.0
H1010 H 0.97645 0.75852 0.29059 0.0
H1011 H 0.95023 0.71264 0.2909 0.0
C1012 C 0.90315 0.83643 0.33061 0.0
C1013 C 0.86606 0.82138 0.3248 0.0
C1014 C 0.93575 0.81161 0.33179 0.0
C1015 C 0.93197 0.77148 0.32697 0.0
C1016 C 0.89596 0.75699 0.31945 0.0
H1017 H 0.08781 0.59856 0.38629 0.0
H1018 H 0.02852 0.62724 0.37043 0.0
C1019 C 0.86325 0.7818 0.31827 0.0
C1020 C 0.9636 0.74407 0.33309 0.0
H1021 H 0.03454 0.68253 0.31404 0.0
C1022 C 0.97148 0.73989 0.35462 0.0
C1023 C 0.98603 0.72283 0.31822 0.0
C1024 C 0.97869 0.72694 0.29494 0.0
C1025 C 0.00197 0.71569 0.36175 0.0
C1026 C 0.02478 0.69468 0.3469 0.0
C1027 C 0.01652 0.6983 0.32534 0.0
C1028 C 0.06013 0.67273 0.35354 0.0
C1029 C 0.01059 0.71405 0.38504 0.0
C1030 C 0.09734 0.68795 0.34859 0.0
C1031 C 0.13101 0.67186 0.35762 0.0
C1032 C 0.12812 0.64008 0.37173 0.0
C1033 C 0.09095 0.62319 0.37561 0.0
C1034 C 0.05712 0.63952 0.36659 0.0
H1035 H 0.9942 0.73688 0.394 0.0
H1036 H 0.00191 0.68475 0.39124 0.0
H1037 H 0.0426 0.71807 0.38799 0.0
H1038 H 0.1002 0.71355 0.33854 0.0
H1039 H 0.15926 0.68518 0.354 0.0
loop_
_geom_bond_atom_site_label_1
_geom_bond_atom_site_label_2
_geom_bond_distance
_geom_bond_site_symmetry_2
_ccdc_geom_bond_type
Sc0 O3 2.025 . S
Sc0 O10 2.105 . S
Sc0 O13 2.105 . S
Sc0 O16 2.105 . S
Sc0 O19 2.105 . S
Sc1 O3 2.025 . S
Sc1 O11 2.105 . S
Sc1 O15 2.105 . S
Sc1 O17 2.105 . S
Sc1 O21 2.105 . S
Sc2 O3 2.025 . S
Sc2 O12 2.105 . S
Sc2 O14 2.105 . S
Sc2 O18 2.105 . S
Sc2 O20 2.105 . S
O3 Sc0 2.025 . S
O3 Sc1 2.025 . S
O3 Sc2 2.025 . S
C4 O10 1.268 . S
C4 O20 1.268 . S
C5 O11 1.268 . S
C5 O19 1.268 . S
C6 O12 1.268 . S
C6 O21 1.268 . S
C7 O13 1.268 . S
C7 O17 1.268 . S
C8 O14 1.268 . S
C8 O16 1.268 . S
C9 O15 1.268 . S
C9 O18 1.268 . S
O10 Sc0 2.105 . S
O10 C4 1.268 . S
O11 Sc1 2.105 . S
O11 C5 1.268 . S
O12 Sc2 2.105 . S
O12 C6 1.268 . S
O13 Sc0 2.105 . S
O13 C7 1.268 . S
O14 Sc2 2.105 . S
O14 C8 1.268 . S
O15 Sc1 2.105 . S
O15 C9 1.268 . S
O16 Sc0 2.105 . S
O16 C8 1.268 . S
O17 Sc1 2.105 . S
O17 C7 1.268 . S
O18 Sc2 2.105 . S
O18 C9 1.268 . S
O19 Sc0 2.105 . S
O19 C5 1.268 . S
O20 Sc2 2.105 . S
O20 C4 1.268 . S
O21 Sc1 2.105 . S
O21 C6 1.268 . S
Sc22 O25 2.025 . S
Sc22 O32 2.105 . S
Sc22 O35 2.105 . S
Sc22 O38 2.105 . S
Sc22 O41 2.105 . S
Sc23 O25 2.025 . S
Sc23 O33 2.105 . S
Sc23 O37 2.105 . S
Sc23 O39 2.105 . S
Sc23 O43 2.105 . S
Sc24 O25 2.025 . S
Sc24 O34 2.105 . S
Sc24 O36 2.105 . S
Sc24 O40 2.105 . S
Sc24 O42 2.105 . S
O25 Sc22 2.025 . S
O25 Sc23 2.025 . S
O25 Sc24 2.025 . S
C26 O32 1.268 . S
C26 O42 1.268 . S
C27 O33 1.268 . S
C27 O41 1.268 . S
C28 O34 1.268 . S
C28 O43 1.268 . S
C29 O35 1.268 . S
C29 O39 1.268 . S
C30 O36 1.268 . S
C30 O38 1.268 . S
C31 O37 1.268 . S
C31 O40 1.268 . S
O32 Sc22 2.105 . S
O32 C26 1.268 . S
O33 Sc23 2.105 . S
O33 C27 1.268 . S
O34 Sc24 2.105 . S
O34 C28 1.268 . S
O35 Sc22 2.105 . S
O35 C29 1.268 . S
O36 Sc24 2.105 . S
O36 C30 1.268 . S
O37 Sc23 2.105 . S
O37 C31 1.268 . S
O38 Sc22 2.105 . S
O38 C30 1.268 . S
O39 Sc23 2.105 . S
O39 C29 1.268 . S
O40 Sc24 2.105 . S
O40 C31 1.268 . S
O41 Sc22 2.105 . S
O41 C27 1.268 . S
O42 Sc24 2.105 . S
O42 C26 1.268 . S
O43 Sc23 2.105 . S
O43 C28 1.268 . S
Sc44 O47 2.025 . S
Sc44 O54 2.105 . S
Sc44 O57 2.105 . S
Sc44 O60 2.105 . S
Sc44 O63 2.105 . S
Sc45 O47 2.025 . S
Sc45 O55 2.105 . S
Sc45 O59 2.105 . S
Sc45 O61 2.105 . S
Sc45 O65 2.105 . S
Sc46 O47 2.025 . S
Sc46 O56 2.105 . S
Sc46 O58 2.105 . S
Sc46 O62 2.105 . S
Sc46 O64 2.105 . S
O47 Sc44 2.025 . S
O47 Sc45 2.025 . S
O47 Sc46 2.025 . S
C48 O54 1.268 . S
C48 O64 1.268 . S
C49 O55 1.268 . S
C49 O63 1.268 . S
C50 O56 1.268 . S
C50 O65 1.268 . S
C51 O57 1.268 . S
C51 O61 1.268 . S
C52 O58 1.268 . S
C52 O60 1.268 . S
C53 O59 1.268 . S
C53 O62 1.268 . S
O54 Sc44 2.105 . S
O54 C48 1.268 . S
O55 Sc45 2.105 . S
O55 C49 1.268 . S
O56 Sc46 2.105 . S
O56 C50 1.268 . S
O57 Sc44 2.105 . S
O57 C51 1.268 . S
O58 Sc46 2.105 . S
O58 C52 1.268 . S
O59 Sc45 2.105 . S
O59 C53 1.268 . S
O60 Sc44 2.105 . S
O60 C52 1.268 . S
O61 Sc45 2.105 . S
O61 C51 1.268 . S
O62 Sc46 2.105 . S
O62 C53 1.268 . S
O63 Sc44 2.105 . S
O63 C49 1.268 . S
O64 Sc46 2.105 . S
O64 C48 1.268 . S
O65 Sc45 2.105 . S
O65 C50 1.268 . S
Sc66 O69 2.025 . S
Sc66 O76 2.105 . S
Sc66 O79 2.105 . S
Sc66 O82 2.105 . S
Sc66 O85 2.105 . S
Sc67 O69 2.025 . S
Sc67 O77 2.105 . S
Sc67 O81 2.105 . S
Sc67 O83 2.105 . S
Sc67 O87 2.105 . S
Sc68 O69 2.025 . S
Sc68 O78 2.105 . S
Sc68 O80 2.105 . S
Sc68 O84 2.105 . S
Sc68 O86 2.105 . S
O69 Sc66 2.025 . S
O69 Sc67 2.025 . S
O69 Sc68 2.025 . S
C70 O76 1.268 . S
C70 O86 1.268 . S
C71 O77 1.268 . S
C71 O85 1.268 . S
C72 O78 1.268 . S
C72 O87 1.268 . S
C73 O79 1.268 . S
C73 O83 1.268 . S
C74 O80 1.268 . S
C74 O82 1.268 . S
C75 O81 1.268 . S
C75 O84 1.268 . S
O76 Sc66 2.105 . S
O76 C70 1.268 . S
O77 Sc67 2.105 . S
O77 C71 1.268 . S
O78 Sc68 2.105 . S
O78 C72 1.268 . S
O79 Sc66 2.105 . S
O79 C73 1.268 . S
O80 Sc68 2.105 . S
O80 C74 1.268 . S
O81 Sc67 2.105 . S
O81 C75 1.268 . S
O82 Sc66 2.105 . S
O82 C74 1.268 . S
O83 Sc67 2.105 . S
O83 C73 1.268 . S
O84 Sc68 2.105 . S
O84 C75 1.268 . S
O85 Sc66 2.105 . S
O85 C71 1.268 . S
O86 Sc68 2.105 . S
O86 C70 1.268 . S
O87 Sc67 2.105 . S
O87 C72 1.268 . S
Sc88 O91 2.025 . S
Sc88 O98 2.105 . S
Sc88 O101 2.105 . S
Sc88 O104 2.105 . S
Sc88 O107 2.105 . S
Sc89 O91 2.025 . S
Sc89 O99 2.105 . S
Sc89 O103 2.105 . S
Sc89 O105 2.105 . S
Sc89 O109 2.105 . S
Sc90 O91 2.025 . S
Sc90 O100 2.105 . S
Sc90 O102 2.105 . S
Sc90 O106 2.105 . S
Sc90 O108 2.105 . S
O91 Sc88 2.025 . S
O91 Sc89 2.025 . S
O91 Sc90 2.025 . S
C92 O98 1.268 . S
C92 O108 1.268 . S
C93 O99 1.268 . S
C93 O107 1.268 . S
C94 O100 1.268 . S
C94 O109 1.268 . S
C95 O101 1.268 . S
C95 O105 1.268 . S
C96 O102 1.268 . S
C96 O104 1.268 . S
C97 O103 1.268 . S
C97 O106 1.268 . S
O98 Sc88 2.105 . S
O98 C92 1.268 . S
O99 Sc89 2.105 . S
O99 C93 1.268 . S
O100 Sc90 2.105 . S
O100 C94 1.268 . S
O101 Sc88 2.105 . S
O101 C95 1.268 . S
O102 Sc90 2.105 . S
O102 C96 1.268 . S
O103 Sc89 2.105 . S
O103 C97 1.268 . S
O104 Sc88 2.105 . S
O104 C96 1.268 . S
O105 Sc89 2.105 . S
O105 C95 1.268 . S
O106 Sc90 2.105 . S
O106 C97 1.268 . S
O107 Sc88 2.105 . S
O107 C93 1.268 . S
O108 Sc90 2.105 . S
O108 C92 1.268 . S
O109 Sc89 2.105 . S
O109 C94 1.268 . S
Sc110 O113 2.025 . S
Sc110 O120 2.105 . S
Sc110 O123 2.105 . S
Sc110 O126 2.105 . S
Sc110 O129 2.105 . S
Sc111 O113 2.025 . S
Sc111 O121 2.105 . S
Sc111 O125 2.105 . S
Sc111 O127 2.105 . S
Sc111 O131 2.105 . S
Sc112 O113 2.025 . S
Sc112 O122 2.105 . S
Sc112 O124 2.105 . S
Sc112 O128 2.105 . S
Sc112 O130 2.105 . S
O113 Sc110 2.025 . S
O113 Sc111 2.025 . S
O113 Sc112 2.025 . S
C114 O120 1.268 . S
C114 O130 1.268 . S
C115 O121 1.268 . S
C115 O129 1.268 . S
C116 O122 1.268 . S
C116 O131 1.268 . S
C117 O123 1.268 . S
C117 O127 1.268 . S
C118 O124 1.268 . S
C118 O126 1.268 . S
C119 O125 1.268 . S
C119 O128 1.268 . S
O120 Sc110 2.105 . S
O120 C114 1.268 . S
O121 Sc111 2.105 . S
O121 C115 1.268 . S
O122 Sc112 2.105 . S
O122 C116 1.268 . S
O123 Sc110 2.105 . S
O123 C117 1.268 . S
O124 Sc112 2.105 . S
O124 C118 1.268 . S
O125 Sc111 2.105 . S
O125 C119 1.268 . S
O126 Sc110 2.105 . S
O126 C118 1.268 . S
O127 Sc111 2.105 . S
O127 C117 1.268 . S
O128 Sc112 2.105 . S
O128 C119 1.268 . S
O129 Sc110 2.105 . S
O129 C115 1.268 . S
O130 Sc112 2.105 . S
O130 C114 1.268 . S
O131 Sc111 2.105 . S
O131 C116 1.268 . S
Sc132 O135 2.025 . S
Sc132 O142 2.105 . S
Sc132 O145 2.105 . S
Sc132 O148 2.105 . S
Sc132 O151 2.105 . S
Sc133 O135 2.025 . S
Sc133 O143 2.105 . S
Sc133 O147 2.105 . S
Sc133 O149 2.105 . S
Sc133 O153 2.105 . S
Sc134 O135 2.025 . S
Sc134 O144 2.105 . S
Sc134 O146 2.105 . S
Sc134 O150 2.105 . S
Sc134 O152 2.105 . S
O135 Sc132 2.025 . S
O135 Sc133 2.025 . S
O135 Sc134 2.025 . S
C136 O142 1.268 . S
C136 O152 1.268 . S
C137 O143 1.268 . S
C137 O151 1.268 . S
C138 O144 1.268 . S
C138 O153 1.268 . S
C139 O145 1.268 . S
C139 O149 1.268 . S
C140 O146 1.268 . S
C140 O148 1.268 . S
C141 O147 1.268 . S
C141 O150 1.268 . S
O142 Sc132 2.105 . S
O142 C136 1.268 . S
O143 Sc133 2.105 . S
O143 C137 1.268 . S
O144 Sc134 2.105 . S
O144 C138 1.268 . S
O145 Sc132 2.105 . S
O145 C139 1.268 . S
O146 Sc134 2.105 . S
O146 C140 1.268 . S
O147 Sc133 2.105 . S
O147 C141 1.268 . S
O148 Sc132 2.105 . S
O148 C140 1.268 . S
O149 Sc133 2.105 . S
O149 C139 1.268 . S
O150 Sc134 2.105 . S
O150 C141 1.268 . S
O151 Sc132 2.105 . S
O151 C137 1.268 . S
O152 Sc134 2.105 . S
O152 C136 1.268 . S
O153 Sc133 2.105 . S
O153 C138 1.268 . S
Sc154 O157 2.025 . S
Sc154 O164 2.105 . S
Sc154 O167 2.105 . S
Sc154 O170 2.105 . S
Sc154 O173 2.105 . S
Sc155 O157 2.025 . S
Sc155 O165 2.105 . S
Sc155 O169 2.105 . S
Sc155 O171 2.105 . S
Sc155 O175 2.105 . S
Sc156 O157 2.025 . S
Sc156 O166 2.105 . S
Sc156 O168 2.105 . S
Sc156 O172 2.105 . S
Sc156 O174 2.105 . S
O157 Sc154 2.025 . S
O157 Sc155 2.025 . S
O157 Sc156 2.025 . S
C158 O164 1.268 . S
C158 O174 1.268 . S
C159 O165 1.268 . S
C159 O173 1.268 . S
C160 O166 1.268 . S
C160 O175 1.268 . S
C161 O167 1.268 . S
C161 O171 1.268 . S
C162 O168 1.268 . S
C162 O170 1.268 . S
C163 O169 1.268 . S
C163 O172 1.268 . S
O164 Sc154 2.105 . S
O164 C158 1.268 . S
O165 Sc155 2.105 . S
O165 C159 1.268 . S
O166 Sc156 2.105 . S
O166 C160 1.268 . S
O167 Sc154 2.105 . S
O167 C161 1.268 . S
O168 Sc156 2.105 . S
O168 C162 1.268 . S
O169 Sc155 2.105 . S
O169 C163 1.268 . S
O170 Sc154 2.105 . S
O170 C162 1.268 . S
O171 Sc155 2.105 . S
O171 C161 1.268 . S
O172 Sc156 2.105 . S
O172 C163 1.268 . S
O173 Sc154 2.105 . S
O173 C159 1.268 . S
O174 Sc156 2.105 . S
O174 C158 1.268 . S
O175 Sc155 2.105 . S
O175 C160 1.268 . S
H176 C184 0.929 1_455 S
H177 C186 0.930 . S
H178 C188 0.930 . S
H179 C191 0.929 . S
H180 C194 0.930 . S
H181 C196 0.960 . S
H182 C196 0.960 . S
H183 C196 0.960 . S
C184 H176 0.929 1_655 S
C184 C185 1.377 . S
C184 C186 1.384 . S
C185 C184 1.377 . S
C185 C191 1.390 . S
C186 H177 0.930 . S
C186 C184 1.384 . S
C186 C187 1.372 . S
C187 C186 1.372 . S
C187 C188 1.400 . S
C187 C192 1.490 . S
C188 H178 0.930 . S
C188 C187 1.400 . S
C188 C191 1.386 . S
H189 C205 0.930 . S
H190 C206 0.931 . S
C191 H179 0.929 . S
C191 C185 1.390 . S
C191 C188 1.386 . S
C192 C187 1.490 . S
C192 C194 1.395 . S
C192 C195 1.403 . S
H193 C199 0.930 . S
C194 H180 0.930 . S
C194 C192 1.395 . S
C194 C197 1.403 . S
C195 C192 1.403 . S
C195 C196 1.524 . S
C195 C199 1.400 . S
C196 H181 0.960 . S
C196 H182 0.960 . S
C196 H183 0.960 . S
C196 C195 1.524 . S
C197 C194 1.403 . S
C197 C198 1.392 . S
C197 C201 1.495 . S
C198 C197 1.392 . S
C198 C199 1.385 . S
C198 C200 1.478 . S
C199 H193 0.930 . S
C199 C195 1.400 . S
C199 C198 1.385 . S
C200 C198 1.478 . S
C200 C202 1.381 . S
C200 C206 1.383 . S
C201 C197 1.495 . S
C201 H207 0.959 . S
C201 H208 0.961 . S
C201 H209 0.960 . S
C202 C200 1.381 . S
C202 C203 1.394 1_545 S
C202 H210 0.930 . S
C203 C202 1.394 1_565 S
C203 C204 1.383 1_565 S
C203 H211 0.929 . S
C204 C203 1.383 1_545 S
C204 C205 1.377 . S
C205 H189 0.930 . S
C205 C204 1.377 . S
C205 C206 1.379 . S
C206 H190 0.931 . S
C206 C200 1.383 . S
C206 C205 1.379 . S
H207 C201 0.959 . S
H208 C201 0.961 . S
H209 C201 0.960 . S
H210 C202 0.930 . S
H211 C203 0.929 . S
H212 C220 0.929 . S
H213 C222 0.930 . S
H214 C224 0.930 . S
H215 C227 0.929 . S
H216 C230 0.930 . S
H217 C232 0.960 . S
H218 C232 0.960 . S
H219 C232 0.960 . S
C220 H212 0.929 . S
C220 C221 1.377 . S
C220 C222 1.384 . S
C221 C220 1.377 . S
C221 C227 1.390 . S
C222 H213 0.930 . S
C222 C220 1.384 . S
C222 C223 1.372 . S
C223 C222 1.372 . S
C223 C224 1.400 . S
C223 C228 1.490 . S
C224 H214 0.930 . S
C224 C223 1.400 . S
C224 C227 1.386 . S
H225 C241 0.930 . S
H226 C242 0.931 . S
C227 H215 0.929 . S
C227 C221 1.390 . S
C227 C224 1.386 . S
C228 C223 1.490 . S
C228 C230 1.395 . S
C228 C231 1.403 . S
H229 C235 0.930 . S
C230 H216 0.930 . S
C230 C228 1.395 . S
C230 C233 1.403 . S
C231 C228 1.403 . S
C231 C232 1.524 . S
C231 C235 1.400 . S
C232 H217 0.960 . S
C232 H218 0.960 . S
C232 H219 0.960 . S
C232 C231 1.524 . S
C233 C230 1.403 . S
C233 C234 1.392 . S
C233 C237 1.495 . S
C234 C233 1.392 . S
C234 C235 1.385 . S
C234 C236 1.478 . S
C235 H229 0.930 . S
C235 C231 1.400 . S
C235 C234 1.385 . S
C236 C234 1.478 . S
C236 C238 1.381 . S
C236 C242 1.383 . S
C237 C233 1.495 . S
C237 H243 0.959 . S
C237 H244 0.961 . S
C237 H245 0.960 . S
C238 C236 1.381 . S
C238 C239 1.394 . S
C238 H246 0.930 . S
C239 C238 1.394 . S
C239 C240 1.383 . S
C239 H247 0.929 . S
C240 C239 1.383 . S
C240 C241 1.377 . S
C241 H225 0.930 . S
C241 C240 1.377 . S
C241 C242 1.379 . S
C242 H226 0.931 . S
C242 C236 1.383 . S
C242 C241 1.379 . S
H243 C237 0.959 . S
H244 C237 0.961 . S
H245 C237 0.960 . S
H246 C238 0.930 . S
H247 C239 0.929 . S
H248 C256 0.929 . S
H249 C258 0.930 . S
H250 C260 0.930 . S
H251 C263 0.929 . S
H252 C266 0.930 . S
H253 C268 0.960 . S
H254 C268 0.960 . S
H255 C268 0.960 . S
C256 H248 0.929 . S
C256 C257 1.377 . S
C256 C258 1.384 . S
C257 C256 1.377 . S
C257 C263 1.390 . S
C258 H249 0.930 . S
C258 C256 1.384 . S
C258 C259 1.372 . S
C259 C258 1.372 . S
C259 C260 1.400 . S
C259 C264 1.490 . S
C260 H250 0.930 . S
C260 C259 1.400 . S
C260 C263 1.386 . S
H261 C277 0.930 . S
H262 C278 0.931 . S
C263 H251 0.929 . S
C263 C257 1.390 . S
C263 C260 1.386 . S
C264 C259 1.490 . S
C264 C266 1.395 . S
C264 C267 1.403 . S
H265 C271 0.930 . S
C266 H252 0.930 . S
C266 C264 1.395 . S
C266 C269 1.403 . S
C267 C264 1.403 . S
C267 C268 1.524 . S
C267 C271 1.400 . S
C268 H253 0.960 . S
C268 H254 0.960 . S
C268 H255 0.960 . S
C268 C267 1.524 . S
C269 C266 1.403 . S
C269 C270 1.392 . S
C269 C273 1.495 . S
C270 C269 1.392 . S
C270 C271 1.385 . S
C270 C272 1.478 . S
C271 H265 0.930 . S
C271 C267 1.400 . S
C271 C270 1.385 . S
C272 C270 1.478 . S
C272 C274 1.381 . S
C272 C278 1.383 . S
C273 C269 1.495 . S
C273 H279 0.959 . S
C273 H280 0.961 . S
C273 H281 0.965 . S
C274 C272 1.381 . S
C274 C275 1.394 1_565 S
C274 H282 0.923 1_565 S
C275 C274 1.394 1_545 S
C275 C276 1.383 1_545 S
C275 H283 0.929 . S
C276 C275 1.383 1_565 S
C276 C277 1.377 . S
C277 H261 0.930 . S
C277 C276 1.377 . S
C277 C278 1.379 . S
C278 H262 0.931 . S
C278 C272 1.383 . S
C278 C277 1.379 . S
H279 C273 0.959 . S
H280 C273 0.961 . S
H281 C273 0.965 . S
H282 C274 0.923 1_545 S
H283 C275 0.929 . S
H284 C292 0.929 . S
H285 C294 0.930 . S
H286 C296 0.930 . S
H287 C299 0.929 . S
H288 C302 0.930 . S
H289 C304 0.960 . S
H290 C304 0.960 . S
H291 C304 0.960 . S
C292 H284 0.929 . S
C292 C293 1.377 . S
C292 C294 1.384 . S
C293 C292 1.377 . S
C293 C299 1.390 . S
C294 H285 0.930 . S
C294 C292 1.384 . S
C294 C295 1.372 . S
C295 C294 1.372 . S
C295 C296 1.400 . S
C295 C300 1.490 . S
C296 H286 0.930 . S
C296 C295 1.400 . S
C296 C299 1.386 . S
H297 C313 0.930 . S
H298 C314 0.931 . S
C299 H287 0.929 . S
C299 C293 1.390 . S
C299 C296 1.386 . S
C300 C295 1.490 . S
C300 C302 1.365 1_554 S
C300 C303 1.403 . S
H301 C307 0.930 . S
C302 H288 0.930 . S
C302 C300 1.365 1_556 S
C302 C305 1.434 . S
C303 C300 1.403 . S
C303 C304 1.524 . S
C303 C307 1.400 1_554 S
C304 H289 0.960 . S
C304 H290 0.960 . S
C304 H291 0.960 . S
C304 C303 1.524 . S
C305 C302 1.434 . S
C305 C306 1.392 . S
C305 C309 1.495 . S
C306 C305 1.392 . S
C306 C307 1.385 . S
C306 C308 1.478 . S
C307 H301 0.930 . S
C307 C303 1.400 1_556 S
C307 C306 1.385 . S
C308 C306 1.478 . S
C308 C310 1.381 . S
C308 C314 1.383 . S
C309 C305 1.495 . S
C309 H315 0.959 . S
C309 H316 0.961 . S
C309 H317 0.960 . S
C310 C308 1.381 . S
C310 C311 1.394 . S
C310 H318 0.930 . S
C311 C310 1.394 . S
C311 C312 1.383 . S
C311 H319 0.929 . S
C312 C311 1.383 . S
C312 C313 1.377 . S
C313 H297 0.930 . S
C313 C312 1.377 . S
C313 C314 1.379 . S
C314 H298 0.931 . S
C314 C308 1.383 . S
C314 C313 1.379 . S
H315 C309 0.959 . S
H316 C309 0.961 . S
H317 C309 0.960 . S
H318 C310 0.930 . S
H319 C311 0.929 . S
H320 C328 0.929 . S
H321 C330 0.930 . S
H322 C332 0.930 . S
H323 C335 0.929 . S
H324 C338 0.930 . S
H325 C340 0.960 . S
H326 C340 0.960 . S
H327 C340 0.960 . S
C328 H320 0.929 . S
C328 C329 1.377 . S
C328 C330 1.384 . S
C329 C328 1.377 . S
C329 C335 1.390 . S
C330 H321 0.930 . S
C330 C328 1.384 . S
C330 C331 1.372 . S
C331 C330 1.372 . S
C331 C332 1.400 . S
C331 C336 1.490 . S
C332 H322 0.930 . S
C332 C331 1.400 . S
C332 C335 1.386 . S
H333 C349 0.930 . S
H334 C350 0.931 . S
C335 H323 0.929 . S
C335 C329 1.390 . S
C335 C332 1.386 . S
C336 C331 1.490 . S
C336 C338 1.395 . S
C336 C339 1.403 . S
H337 C343 0.930 . S
C338 H324 0.930 . S
C338 C336 1.395 . S
C338 C341 1.403 . S
C339 C336 1.403 . S
C339 C340 1.524 . S
C339 C343 1.400 . S
C340 H325 0.960 . S
C340 H326 0.960 . S
C340 H327 0.960 . S
C340 C339 1.524 . S
C341 C338 1.403 . S
C341 C342 1.392 . S
C341 C345 1.495 . S
C342 C341 1.392 . S
C342 C343 1.385 . S
C342 C344 1.478 . S
C343 H337 0.930 . S
C343 C339 1.400 . S
C343 C342 1.385 . S
C344 C342 1.478 . S
C344 C346 1.381 . S
C344 C350 1.383 . S
C345 C341 1.495 . S
C345 H351 0.959 . S
C345 H352 0.961 . S
C345 H353 0.960 . S
C346 C344 1.381 . S
C346 C347 1.394 . S
C346 H354 0.930 . S
C347 C346 1.394 . S
C347 C348 1.383 . S
C347 H355 0.929 . S
C348 C347 1.383 . S
C348 C349 1.377 . S
C349 H333 0.930 . S
C349 C348 1.377 . S
C349 C350 1.379 . S
C350 H334 0.931 . S
C350 C344 1.383 . S
C350 C349 1.379 . S
H351 C345 0.959 . S
H352 C345 0.961 . S
H353 C345 0.960 . S
H354 C346 0.930 . S
H355 C347 0.929 . S
H356 C364 0.929 1_655 S
H357 C366 0.930 . S
H358 C368 0.930 . S
H359 C371 0.929 . S
H360 C374 0.930 . S
H361 C376 0.960 . S
H362 C376 0.960 . S
H363 C376 0.960 . S
C364 H356 0.929 1_455 S
C364 C365 1.377 . S
C364 C366 1.384 . S
C365 C364 1.377 . S
C365 C371 1.390 . S
C366 H357 0.930 . S
C366 C364 1.384 . S
C366 C367 1.372 . S
C367 C366 1.372 . S
C367 C368 1.400 . S
C367 C372 1.490 . S
C368 H358 0.930 . S
C368 C367 1.400 . S
C368 C371 1.386 . S
H369 C385 0.930 . S
H370 C386 0.931 . S
C371 H359 0.929 . S
C371 C365 1.390 . S
C371 C368 1.386 . S
C372 C367 1.490 . S
C372 C374 1.395 . S
C372 C375 1.403 . S
H373 C379 0.930 . S
C374 H360 0.930 . S
C374 C372 1.395 . S
C374 C377 1.403 . S
C375 C372 1.403 . S
C375 C376 1.524 . S
C375 C379 1.400 . S
C376 H361 0.960 . S
C376 H362 0.960 . S
C376 H363 0.960 . S
C376 C375 1.524 . S
C377 C374 1.403 . S
C377 C378 1.392 . S
C377 C381 1.495 . S
C378 C377 1.392 . S
C378 C379 1.385 . S
C378 C380 1.478 . S
C379 H373 0.930 . S
C379 C375 1.400 . S
C379 C378 1.385 . S
C380 C378 1.478 . S
C380 C382 1.381 . S
C380 C386 1.383 . S
C381 C377 1.495 . S
C381 H387 0.959 . S
C381 H388 0.961 . S
C381 H389 0.960 . S
C382 C380 1.381 . S
C382 C383 1.394 . S
C382 H390 0.930 . S
C383 C382 1.394 . S
C383 C384 1.383 . S
C383 H391 0.929 . S
C384 C383 1.383 . S
C384 C385 1.377 . S
C385 H369 0.930 . S
C385 C384 1.377 . S
C385 C386 1.379 . S
C386 H370 0.931 . S
C386 C380 1.383 . S
C386 C385 1.379 . S
H387 C381 0.959 . S
H388 C381 0.961 . S
H389 C381 0.960 . S
H390 C382 0.930 . S
H391 C383 0.929 . S
H392 C400 0.929 . S
H393 C402 0.930 . S
H394 C404 0.930 . S
H395 C407 0.929 . S
H396 C410 0.930 . S
H397 C412 0.960 . S
H398 C412 0.960 . S
H399 C412 0.960 . S
C400 H392 0.929 . S
C400 C401 1.377 . S
C400 C402 1.384 . S
C401 C400 1.377 . S
C401 C407 1.390 . S
C402 H393 0.930 . S
C402 C400 1.384 . S
C402 C403 1.372 . S
C403 C402 1.372 . S
C403 C404 1.400 . S
C403 C408 1.490 . S
C404 H394 0.930 . S
C404 C403 1.400 . S
C404 C407 1.386 . S
H405 C421 0.930 . S
H406 C422 0.931 . S
C407 H395 0.929 . S
C407 C401 1.390 . S
C407 C404 1.386 . S
C408 C403 1.490 . S
C408 C410 1.395 . S
C408 C411 1.403 . S
H409 C415 0.930 . S
C410 H396 0.930 . S
C410 C408 1.395 . S
C410 C413 1.403 . S
C411 C408 1.403 . S
C411 C412 1.524 . S
C411 C415 1.400 . S
C412 H397 0.960 . S
C412 H398 0.960 . S
C412 H399 0.960 . S
C412 C411 1.524 . S
C413 C410 1.403 . S
C413 C414 1.392 . S
C413 C417 1.495 . S
C414 C413 1.392 . S
C414 C415 1.385 . S
C414 C416 1.478 . S
C415 H409 0.930 . S
C415 C411 1.400 . S
C415 C414 1.385 . S
C416 C414 1.478 . S
C416 C418 1.381 . S
C416 C422 1.383 . S
C417 C413 1.495 . S
C417 H423 0.959 . S
C417 H424 0.961 . S
C417 H425 0.960 . S
C418 C416 1.381 . S
C418 C419 1.394 . S
C418 H426 0.930 . S
C419 C418 1.394 . S
C419 C420 1.383 . S
C419 H427 0.929 . S
C420 C419 1.383 . S
C420 C421 1.377 . S
C421 H405 0.930 . S
C421 C420 1.377 . S
C421 C422 1.379 . S
C422 H406 0.931 . S
C422 C416 1.383 . S
C422 C421 1.379 . S
H423 C417 0.959 . S
H424 C417 0.961 . S
H425 C417 0.960 . S
H426 C418 0.930 . S
H427 C419 0.929 . S
H428 C436 0.929 . S
H429 C438 0.930 . S
H430 C440 0.930 . S
H431 C443 0.929 . S
H432 C446 0.930 . S
H433 C448 0.960 . S
H434 C448 0.960 . S
H435 C448 0.960 . S
C436 H428 0.929 . S
C436 C437 1.377 . S
C436 C438 1.384 . S
C437 C436 1.377 . S
C437 C443 1.390 . S
C438 H429 0.930 . S
C438 C436 1.384 . S
C438 C439 1.372 . S
C439 C438 1.372 . S
C439 C440 1.400 . S
C439 C444 1.490 . S
C440 H430 0.930 . S
C440 C439 1.400 . S
C440 C443 1.386 . S
H441 C457 0.930 . S
H442 C458 0.931 . S
C443 H431 0.929 . S
C443 C437 1.390 . S
C443 C440 1.386 . S
C444 C439 1.490 . S
C444 C446 1.395 . S
C444 C447 1.403 . S
H445 C451 0.930 . S
C446 H432 0.930 . S
C446 C444 1.395 . S
C446 C449 1.403 . S
C447 C444 1.403 . S
C447 C448 1.524 . S
C447 C451 1.400 . S
C448 H433 0.960 . S
C448 H434 0.960 . S
C448 H435 0.960 . S
C448 C447 1.524 . S
C449 C446 1.403 . S
C449 C450 1.392 . S
C449 C453 1.495 1_554 S
C450 C449 1.392 . S
C450 C451 1.385 . S
C450 C452 1.478 1_554 S
C451 H445 0.930 . S
C451 C447 1.400 . S
C451 C450 1.385 . S
C452 C450 1.478 1_556 S
C452 C454 1.381 . S
C452 C458 1.383 . S
C453 C449 1.495 1_556 S
C453 H459 0.959 1_556 S
C453 H460 0.961 . S
C453 H461 0.960 . S
C454 C452 1.381 . S
C454 C455 1.394 . S
C454 H462 0.930 . S
C455 C454 1.394 . S
C455 C456 1.383 . S
C455 H463 0.929 . S
C456 C455 1.383 . S
C456 C457 1.377 . S
C457 H441 0.930 . S
C457 C456 1.377 . S
C457 C458 1.379 . S
C458 H442 0.931 . S
C458 C452 1.383 . S
C458 C457 1.379 . S
H459 C453 0.959 1_554 S
H460 C453 0.961 . S
H461 C453 0.960 . S
H462 C454 0.930 . S
H463 C455 0.929 . S
H464 C472 0.929 . S
H465 C474 0.930 . S
H466 C476 0.930 . S
H467 C479 0.929 . S
H468 C482 0.930 . S
H469 C484 0.960 . S
H470 C484 0.960 . S
H471 C484 0.960 . S
C472 H464 0.929 . S
C472 C473 1.377 . S
C472 C474 1.384 . S
C473 C472 1.377 . S
C473 C479 1.390 . S
C474 H465 0.930 . S
C474 C472 1.384 . S
C474 C475 1.372 . S
C475 C474 1.372 . S
C475 C476 1.400 . S
C475 C480 1.490 . S
C476 H466 0.930 . S
C476 C475 1.400 . S
C476 C479 1.386 . S
H477 C493 0.930 1_565 S
H478 C494 0.931 . S
C479 H467 0.929 . S
C479 C473 1.390 . S
C479 C476 1.386 . S
C480 C475 1.490 . S
C480 C482 1.395 . S
C480 C483 1.403 . S
H481 C487 0.930 . S
C482 H468 0.930 . S
C482 C480 1.395 . S
C482 C485 1.403 . S
C483 C480 1.403 . S
C483 C484 1.524 . S
C483 C487 1.400 . S
C484 H469 0.960 . S
C484 H470 0.960 . S
C484 H471 0.960 . S
C484 C483 1.524 . S
C485 C482 1.403 . S
C485 C486 1.392 . S
C485 C489 1.495 . S
C486 C485 1.392 . S
C486 C487 1.385 . S
C486 C488 1.478 . S
C487 H481 0.930 . S
C487 C483 1.400 . S
C487 C486 1.385 . S
C488 C486 1.478 . S
C488 C490 1.381 . S
C488 C494 1.383 . S
C489 C485 1.495 . S
C489 H495 0.959 . S
C489 H496 0.961 . S
C489 H497 0.960 . S
C490 C488 1.381 . S
C490 C491 1.394 . S
C490 H498 0.930 . S
C491 C490 1.394 . S
C491 C492 1.383 . S
C491 H499 0.929 . S
C492 C491 1.383 . S
C492 C493 1.377 . S
C493 H477 0.930 1_545 S
C493 C492 1.377 . S
C493 C494 1.379 . S
C494 H478 0.931 . S
C494 C488 1.383 . S
C494 C493 1.379 . S
H495 C489 0.959 . S
H496 C489 0.961 . S
H497 C489 0.960 . S
H498 C490 0.930 . S
H499 C491 0.929 . S
H500 C508 0.929 . S
H501 C510 0.930 . S
H502 C512 0.930 . S
H503 C515 0.929 . S
H504 C518 0.930 . S
H505 C520 0.960 . S
H506 C520 0.960 . S
H507 C520 0.960 . S
C508 H500 0.929 . S
C508 C509 1.377 . S
C508 C510 1.384 . S
C509 C508 1.377 . S
C509 C515 1.390 . S
C510 H501 0.930 . S
C510 C508 1.384 . S
C510 C511 1.372 . S
C511 C510 1.372 . S
C511 C512 1.400 . S
C511 C516 1.490 . S
C512 H502 0.930 . S
C512 C511 1.400 . S
C512 C515 1.386 . S
H513 C529 0.930 . S
H514 C530 0.931 . S
C515 H503 0.929 . S
C515 C509 1.390 . S
C515 C512 1.386 . S
C516 C511 1.490 . S
C516 C518 1.395 . S
C516 C519 1.403 . S
H517 C523 0.930 . S
C518 H504 0.930 . S
C518 C516 1.395 . S
C518 C521 1.403 . S
C519 C516 1.403 . S
C519 C520 1.524 . S
C519 C523 1.400 . S
C520 H505 0.960 . S
C520 H506 0.960 . S
C520 H507 0.960 . S
C520 C519 1.524 . S
C521 C518 1.403 . S
C521 C522 1.392 . S
C521 C525 1.495 . S
C522 C521 1.392 . S
C522 C523 1.385 . S
C522 C524 1.478 . S
C523 H517 0.930 . S
C523 C519 1.400 . S
C523 C522 1.385 . S
C524 C522 1.478 . S
C524 C526 1.381 . S
C524 C530 1.383 . S
C525 C521 1.495 . S
C525 H531 0.959 . S
C525 H532 0.961 . S
C525 H533 0.960 . S
C526 C524 1.381 . S
C526 C527 1.394 . S
C526 H534 0.930 . S
C527 C526 1.394 . S
C527 C528 1.383 . S
C527 H535 0.929 . S
C528 C527 1.383 . S
C528 C529 1.377 . S
C529 H513 0.930 . S
C529 C528 1.377 . S
C529 C530 1.379 . S
C530 H514 0.931 . S
C530 C524 1.383 . S
C530 C529 1.379 . S
H531 C525 0.959 . S
H532 C525 0.961 . S
H533 C525 0.960 . S
H534 C526 0.930 . S
H535 C527 0.929 . S
H536 C544 0.929 . S
H537 C546 0.930 . S
H538 C548 0.930 1_556 S
H539 C551 0.929 . S
H540 C554 0.930 1_554 S
H541 C556 0.960 . S
H542 C556 0.960 . S
H543 C556 0.960 . S
C544 H536 0.929 . S
C544 C545 1.377 . S
C544 C546 1.384 . S
C545 C544 1.377 . S
C545 C551 1.390 . S
C546 H537 0.930 . S
C546 C544 1.384 . S
C546 C547 1.372 . S
C547 C546 1.372 . S
C547 C548 1.400 . S
C547 C552 1.490 1_554 S
C548 H538 0.930 1_554 S
C548 C547 1.400 . S
C548 C551 1.386 . S
H549 C565 0.930 . S
H550 C566 0.931 . S
C551 H539 0.929 . S
C551 C545 1.390 . S
C551 C548 1.386 . S
C552 C547 1.490 1_556 S
C552 C554 1.395 . S
C552 C555 1.403 . S
H553 C559 0.930 . S
C554 H540 0.930 1_556 S
C554 C552 1.395 . S
C554 C557 1.403 . S
C555 C552 1.403 . S
C555 C556 1.524 . S
C555 C559 1.400 . S
C556 H541 0.960 . S
C556 H542 0.960 . S
C556 H543 0.960 . S
C556 C555 1.524 . S
C557 C554 1.403 . S
C557 C558 1.392 . S
C557 C561 1.495 . S
C558 C557 1.392 . S
C558 C559 1.385 . S
C558 C560 1.478 . S
C559 H553 0.930 . S
C559 C555 1.400 . S
C559 C558 1.385 . S
C560 C558 1.478 . S
C560 C562 1.381 . S
C560 C566 1.383 . S
C561 C557 1.495 . S
C561 H567 0.959 . S
C561 H568 0.961 . S
C561 H569 0.960 . S
C562 C560 1.381 . S
C562 C563 1.394 . S
C562 H570 0.930 . S
C563 C562 1.394 . S
C563 C564 1.383 . S
C563 H571 0.936 . S
C564 C563 1.383 . S
C564 C565 1.377 . S
C565 H549 0.930 . S
C565 C564 1.377 . S
C565 C566 1.379 . S
C566 H550 0.931 . S
C566 C560 1.383 . S
C566 C565 1.379 . S
H567 C561 0.959 . S
H568 C561 0.961 . S
H569 C561 0.960 . S
H570 C562 0.930 . S
H571 C563 0.936 . S
H572 C580 0.929 . S
H573 C582 0.930 . S
H574 C584 0.930 . S
H575 C587 0.929 . S
H576 C590 0.930 . S
H577 C592 0.960 . S
H578 C592 0.960 . S
H579 C592 0.960 . S
C580 H572 0.929 . S
C580 C581 1.377 . S
C580 C582 1.384 . S
C581 C580 1.377 . S
C581 C587 1.390 . S
C582 H573 0.930 . S
C582 C580 1.384 . S
C582 C583 1.372 . S
C583 C582 1.372 . S
C583 C584 1.400 . S
C583 C588 1.490 . S
C584 H574 0.930 . S
C584 C583 1.400 . S
C584 C587 1.386 . S
H585 C601 0.930 . S
H586 C602 0.931 . S
C587 H575 0.929 . S
C587 C581 1.390 . S
C587 C584 1.386 . S
C588 C583 1.490 . S
C588 C590 1.395 . S
C588 C591 1.403 . S
H589 C595 0.930 . S
C590 H576 0.930 . S
C590 C588 1.395 . S
C590 C593 1.403 . S
C591 C588 1.403 . S
C591 C592 1.524 . S
C591 C595 1.400 . S
C592 H577 0.960 . S
C592 H578 0.960 . S
C592 H579 0.960 . S
C592 C591 1.524 . S
C593 C590 1.403 . S
C593 C594 1.392 . S
C593 C597 1.495 . S
C594 C593 1.392 . S
C594 C595 1.385 . S
C594 C596 1.478 . S
C595 H589 0.930 . S
C595 C591 1.400 . S
C595 C594 1.385 . S
C596 C594 1.478 . S
C596 C598 1.381 . S
C596 C602 1.383 . S
C597 C593 1.495 . S
C597 H603 0.959 . S
C597 H604 0.961 . S
C597 H605 0.960 . S
C598 C596 1.381 . S
C598 C599 1.394 . S
C598 H606 0.930 . S
C599 C598 1.394 . S
C599 C600 1.383 . S
C599 H607 0.929 . S
C600 C599 1.383 . S
C600 C601 1.377 . S
C601 H585 0.930 . S
C601 C600 1.377 . S
C601 C602 1.379 . S
C602 H586 0.931 . S
C602 C596 1.383 . S
C602 C601 1.379 . S
H603 C597 0.959 . S
H604 C597 0.961 . S
H605 C597 0.960 . S
H606 C598 0.930 . S
H607 C599 0.929 . S
H608 C616 0.929 . S
H609 C618 0.930 . S
H610 C620 0.930 . S
H611 C623 0.929 . S
H612 C626 0.930 . S
H613 C628 0.960 . S
H614 C628 0.960 . S
H615 C628 0.960 . S
C616 H608 0.929 . S
C616 C617 1.377 . S
C616 C618 1.384 . S
C617 C616 1.377 . S
C617 C623 1.390 . S
C618 H609 0.930 . S
C618 C616 1.384 . S
C618 C619 1.372 . S
C619 C618 1.372 . S
C619 C620 1.400 . S
C619 C624 1.490 . S
C620 H610 0.930 . S
C620 C619 1.400 . S
C620 C623 1.386 . S
H621 C637 0.930 . S
H622 C638 0.931 . S
C623 H611 0.929 . S
C623 C617 1.390 . S
C623 C620 1.386 . S
C624 C619 1.490 . S
C624 C626 1.395 . S
C624 C627 1.403 . S
H625 C631 0.930 . S
C626 H612 0.930 . S
C626 C624 1.395 . S
C626 C629 1.403 1_556 S
C627 C624 1.403 . S
C627 C628 1.524 . S
C627 C631 1.400 1_556 S
C628 H613 0.960 . S
C628 H614 0.960 . S
C628 H615 0.960 . S
C628 C627 1.524 . S
C629 C626 1.403 1_554 S
C629 C630 1.392 . S
C629 C633 1.495 . S
C630 C629 1.392 . S
C630 C631 1.385 . S
C630 C632 1.478 . S
C631 H625 0.930 . S
C631 C627 1.400 1_554 S
C631 C630 1.385 . S
C632 C630 1.478 . S
C632 C634 1.381 . S
C632 C638 1.383 . S
C633 C629 1.495 . S
C633 H639 0.959 . S
C633 H640 0.961 . S
C633 H641 0.960 . S
C634 C632 1.381 . S
C634 C635 1.394 . S
C634 H642 0.930 . S
C635 C634 1.394 . S
C635 C636 1.383 . S
C635 H643 0.929 . S
C636 C635 1.383 . S
C636 C637 1.377 . S
C637 H621 0.930 . S
C637 C636 1.377 . S
C637 C638 1.379 . S
C638 H622 0.931 . S
C638 C632 1.383 . S
C638 C637 1.379 . S
H639 C633 0.959 . S
H640 C633 0.961 . S
H641 C633 0.960 . S
H642 C634 0.930 . S
H643 C635 0.929 . S
H644 C652 0.929 . S
H645 C654 0.930 . S
H646 C656 0.930 . S
H647 C659 0.929 . S
H648 C662 0.930 . S
H649 C664 0.960 . S
H650 C664 0.960 . S
H651 C664 0.960 . S
C652 H644 0.929 . S
C652 C653 1.377 . S
C652 C654 1.384 . S
C653 C652 1.377 . S
C653 C659 1.390 . S
C654 H645 0.930 . S
C654 C652 1.384 . S
C654 C655 1.372 . S
C655 C654 1.372 . S
C655 C656 1.400 . S
C655 C660 1.490 . S
C656 H646 0.930 . S
C656 C655 1.400 . S
C656 C659 1.386 . S
H657 C673 0.930 . S
H658 C674 0.931 . S
C659 H647 0.929 . S
C659 C653 1.390 . S
C659 C656 1.386 . S
C660 C655 1.490 . S
C660 C662 1.395 . S
C660 C663 1.403 . S
H661 C667 0.930 . S
C662 H648 0.930 . S
C662 C660 1.395 . S
C662 C665 1.403 . S
C663 C660 1.403 . S
C663 C664 1.524 . S
C663 C667 1.400 . S
C664 H649 0.960 . S
C664 H650 0.960 . S
C664 H651 0.960 . S
C664 C663 1.524 . S
C665 C662 1.403 . S
C665 C666 1.392 . S
C665 C669 1.495 . S
C666 C665 1.392 . S
C666 C667 1.385 . S
C666 C668 1.478 . S
C667 H661 0.930 . S
C667 C663 1.400 . S
C667 C666 1.385 . S
C668 C666 1.478 . S
C668 C670 1.381 . S
C668 C674 1.383 . S
C669 C665 1.495 . S
C669 H675 0.959 . S
C669 H676 0.961 . S
C669 H677 0.960 . S
C670 C668 1.381 . S
C670 C671 1.394 . S
C670 H678 0.930 . S
C671 C670 1.394 . S
C671 C672 1.383 . S
C671 H679 0.929 . S
C672 C671 1.383 . S
C672 C673 1.377 . S
C673 H657 0.930 . S
C673 C672 1.377 . S
C673 C674 1.379 . S
C674 H658 0.931 . S
C674 C668 1.383 . S
C674 C673 1.379 . S
H675 C669 0.959 . S
H676 C669 0.961 . S
H677 C669 0.960 . S
H678 C670 0.930 . S
H679 C671 0.929 . S
H680 C688 0.929 . S
H681 C690 0.930 . S
H682 C692 0.930 . S
H683 C695 0.929 . S
H684 C698 0.930 . S
H685 C700 0.960 . S
H686 C700 0.960 . S
H687 C700 0.960 . S
C688 H680 0.929 . S
C688 C689 1.377 . S
C688 C690 1.384 . S
C689 C688 1.377 . S
C689 C695 1.390 . S
C690 H681 0.930 . S
C690 C688 1.384 . S
C690 C691 1.372 . S
C691 C690 1.372 . S
C691 C692 1.400 . S
C691 C696 1.490 . S
C692 H682 0.930 . S
C692 C691 1.400 . S
C692 C695 1.386 . S
H693 C709 0.930 . S
H694 C710 0.931 . S
C695 H683 0.929 . S
C695 C689 1.390 . S
C695 C692 1.386 . S
C696 C691 1.490 . S
C696 C698 1.395 . S
C696 C699 1.403 . S
H697 C703 0.930 . S
C698 H684 0.930 . S
C698 C696 1.395 . S
C698 C701 1.403 . S
C699 C696 1.403 . S
C699 C700 1.524 . S
C699 C703 1.400 . S
C700 H685 0.960 . S
C700 H686 0.960 . S
C700 H687 0.960 . S
C700 C699 1.524 . S
C701 C698 1.403 . S
C701 C702 1.392 . S
C701 C705 1.495 . S
C702 C701 1.392 . S
C702 C703 1.385 . S
C702 C704 1.478 . S
C703 H697 0.930 . S
C703 C699 1.400 . S
C703 C702 1.385 . S
C704 C702 1.478 . S
C704 C706 1.381 . S
C704 C710 1.383 . S
C705 C701 1.495 . S
C705 H711 0.959 . S
C705 H712 0.961 . S
C705 H713 0.960 . S
C706 C704 1.381 . S
C706 C707 1.394 . S
C706 H714 0.930 . S
C707 C706 1.394 . S
C707 C708 1.383 . S
C707 H715 0.929 . S
C708 C707 1.383 . S
C708 C709 1.377 . S
C709 H693 0.930 . S
C709 C708 1.377 . S
C709 C710 1.379 . S
C710 H694 0.931 . S
C710 C704 1.383 . S
C710 C709 1.379 . S
H711 C705 0.959 . S
H712 C705 0.961 . S
H713 C705 0.960 . S
H714 C706 0.930 . S
H715 C707 0.929 . S
H716 C724 0.929 . S
H717 C726 0.930 . S
H718 C728 0.930 . S
H719 C731 0.929 . S
H720 C734 0.930 . S
H721 C736 0.960 . S
H722 C736 0.960 . S
H723 C736 0.960 . S
C724 H716 0.929 . S
C724 C725 1.377 . S
C724 C726 1.384 . S
C725 C724 1.377 . S
C725 C731 1.390 . S
C726 H717 0.930 . S
C726 C724 1.384 . S
C726 C727 1.372 . S
C727 C726 1.372 . S
C727 C728 1.400 . S
C727 C732 1.490 . S
C728 H718 0.930 . S
C728 C727 1.400 . S
C728 C731 1.386 . S
H729 C745 0.930 . S
H730 C746 0.931 . S
C731 H719 0.929 . S
C731 C725 1.390 . S
C731 C728 1.386 . S
C732 C727 1.490 . S
C732 C734 1.395 . S
C732 C735 1.403 . S
H733 C739 0.930 . S
C734 H720 0.930 . S
C734 C732 1.395 . S
C734 C737 1.403 . S
C735 C732 1.403 . S
C735 C736 1.524 . S
C735 C739 1.400 . S
C736 H721 0.960 . S
C736 H722 0.960 . S
C736 H723 0.960 . S
C736 C735 1.524 . S
C737 C734 1.403 . S
C737 C738 1.392 . S
C737 C741 1.495 . S
C738 C737 1.392 . S
C738 C739 1.385 . S
C738 C740 1.478 . S
C739 H733 0.930 . S
C739 C735 1.400 . S
C739 C738 1.385 . S
C740 C738 1.478 . S
C740 C742 1.381 . S
C740 C746 1.383 . S
C741 C737 1.495 . S
C741 H747 0.959 . S
C741 H748 0.961 . S
C741 H749 0.960 . S
C742 C740 1.381 . S
C742 C743 1.394 . S
C742 H750 0.930 . S
C743 C742 1.394 . S
C743 C744 1.383 . S
C743 H751 0.929 . S
C744 C743 1.383 . S
C744 C745 1.377 . S
C745 H729 0.930 . S
C745 C744 1.377 . S
C745 C746 1.379 . S
C746 H730 0.931 . S
C746 C740 1.383 . S
C746 C745 1.379 . S
H747 C741 0.959 . S
H748 C741 0.961 . S
H749 C741 0.960 . S
H750 C742 0.930 . S
H751 C743 0.929 . S
H752 C760 0.929 . S
H753 C762 0.930 . S
H754 C764 0.930 . S
H755 C767 0.929 . S
H756 C770 0.930 . S
H757 C772 0.960 . S
H758 C772 0.960 . S
H759 C772 0.960 . S
C760 H752 0.929 . S
C760 C761 1.377 . S
C760 C762 1.384 . S
C761 C760 1.377 . S
C761 C767 1.390 . S
C762 H753 0.930 . S
C762 C760 1.384 . S
C762 C763 1.372 . S
C763 C762 1.372 . S
C763 C764 1.400 . S
C763 C768 1.490 . S
C764 H754 0.930 . S
C764 C763 1.400 . S
C764 C767 1.386 . S
H765 C781 0.930 . S
H766 C782 0.931 . S
C767 H755 0.929 . S
C767 C761 1.390 . S
C767 C764 1.386 . S
C768 C763 1.490 . S
C768 C770 1.395 1_545 S
C768 C771 1.403 . S
H769 C775 0.930 1_545 S
C770 H756 0.930 . S
C770 C768 1.395 1_565 S
C770 C773 1.403 . S
C771 C768 1.403 . S
C771 C772 1.524 . S
C771 C775 1.400 1_545 S
C772 H757 0.960 . S
C772 H758 0.960 . S
C772 H759 0.960 . S
C772 C771 1.524 . S
C773 C770 1.403 . S
C773 C774 1.392 . S
C773 C777 1.495 . S
C774 C773 1.392 . S
C774 C775 1.385 . S
C774 C776 1.478 . S
C775 H769 0.930 1_565 S
C775 C771 1.400 1_565 S
C775 C774 1.385 . S
C776 C774 1.478 . S
C776 C778 1.381 . S
C776 C782 1.383 . S
C777 C773 1.495 . S
C777 H783 0.959 . S
C777 H784 0.961 . S
C777 H785 0.960 . S
C778 C776 1.381 . S
C778 C779 1.394 . S
C778 H786 0.930 . S
C779 C778 1.394 . S
C779 C780 1.383 . S
C779 H787 0.929 . S
C780 C779 1.383 . S
C780 C781 1.377 . S
C781 H765 0.930 . S
C781 C780 1.377 . S
C781 C782 1.379 . S
C782 H766 0.931 . S
C782 C776 1.383 . S
C782 C781 1.379 . S
H783 C777 0.959 . S
H784 C777 0.961 . S
H785 C777 0.960 . S
H786 C778 0.930 . S
H787 C779 0.929 . S
H788 C796 0.929 . S
H789 C798 0.930 . S
H790 C800 0.930 . S
H791 C803 0.929 . S
H792 C806 0.930 . S
H793 C808 0.960 . S
H794 C808 0.960 . S
H795 C808 0.960 . S
C796 H788 0.929 . S
C796 C797 1.377 . S
C796 C798 1.384 . S
C797 C796 1.377 . S
C797 C803 1.390 . S
C798 H789 0.930 . S
C798 C796 1.384 . S
C798 C799 1.372 . S
C799 C798 1.372 . S
C799 C800 1.400 . S
C799 C804 1.490 . S
C800 H790 0.930 . S
C800 C799 1.400 . S
C800 C803 1.386 . S
H801 C817 0.930 . S
H802 C818 0.931 . S
C803 H791 0.929 . S
C803 C797 1.390 . S
C803 C800 1.386 . S
C804 C799 1.490 . S
C804 C806 1.395 . S
C804 C807 1.403 . S
H805 C811 0.930 . S
C806 H792 0.930 . S
C806 C804 1.395 . S
C806 C809 1.403 . S
C807 C804 1.403 . S
C807 C808 1.524 . S
C807 C811 1.400 . S
C808 H793 0.960 . S
C808 H794 0.960 . S
C808 H795 0.960 . S
C808 C807 1.524 . S
C809 C806 1.403 . S
C809 C810 1.392 . S
C809 C813 1.495 . S
C810 C809 1.392 . S
C810 C811 1.385 . S
C810 C812 1.478 . S
C811 H805 0.930 . S
C811 C807 1.400 . S
C811 C810 1.385 . S
C812 C810 1.478 . S
C812 C814 1.381 . S
C812 C818 1.383 . S
C813 C809 1.495 . S
C813 H819 0.959 . S
C813 H820 0.961 . S
C813 H821 0.960 . S
C814 C812 1.381 . S
C814 C815 1.394 . S
C814 H822 0.930 . S
C815 C814 1.394 . S
C815 C816 1.383 . S
C815 H823 0.929 . S
C816 C815 1.383 . S
C816 C817 1.377 . S
C817 H801 0.930 . S
C817 C816 1.377 . S
C817 C818 1.379 . S
C818 H802 0.931 . S
C818 C812 1.383 . S
C818 C817 1.379 . S
H819 C813 0.959 . S
H820 C813 0.961 . S
H821 C813 0.960 . S
H822 C814 0.930 . S
H823 C815 0.929 . S
H824 C832 0.929 . S
H825 C834 0.930 . S
H826 C836 0.930 . S
H827 C839 0.929 . S
H828 C842 0.930 . S
H829 C844 0.960 . S
H830 C844 0.960 . S
H831 C844 0.960 . S
C832 H824 0.929 . S
C832 C833 1.377 . S
C832 C834 1.384 . S
C833 C832 1.377 . S
C833 C839 1.390 . S
C834 H825 0.930 . S
C834 C832 1.384 . S
C834 C835 1.372 . S
C835 C834 1.372 . S
C835 C836 1.400 . S
C835 C840 1.490 . S
C836 H826 0.930 . S
C836 C835 1.400 . S
C836 C839 1.386 . S
H837 C853 0.930 . S
H838 C854 0.931 . S
C839 H827 0.929 . S
C839 C833 1.390 . S
C839 C836 1.386 . S
C840 C835 1.490 . S
C840 C842 1.395 1_545 S
C840 C843 1.403 . S
H841 C847 0.932 . S
C842 H828 0.930 . S
C842 C840 1.395 1_565 S
C842 C845 1.403 . S
C843 C840 1.403 . S
C843 C844 1.524 . S
C843 C847 1.418 . S
C844 H829 0.960 . S
C844 H830 0.960 . S
C844 H831 0.960 . S
C844 C843 1.524 . S
C845 C842 1.403 . S
C845 C846 1.392 . S
C845 C849 1.495 . S
C846 C845 1.392 . S
C846 C847 1.366 1_565 S
C846 C848 1.478 . S
C847 H841 0.932 . S
C847 C843 1.418 . S
C847 C846 1.366 1_545 S
C848 C846 1.478 . S
C848 C850 1.381 . S
C848 C854 1.383 . S
C849 C845 1.495 . S
C849 H855 0.959 . S
C849 H856 0.961 . S
C849 H857 0.960 . S
C850 C848 1.381 . S
C850 C851 1.394 . S
C850 H858 0.930 . S
C851 C850 1.394 . S
C851 C852 1.383 . S
C851 H859 0.929 . S
C852 C851 1.383 . S
C852 C853 1.377 . S
C853 H837 0.930 . S
C853 C852 1.377 . S
C853 C854 1.379 . S
C854 H838 0.931 . S
C854 C848 1.383 . S
C854 C853 1.379 . S
H855 C849 0.959 . S
H856 C849 0.961 . S
H857 C849 0.960 . S
H858 C850 0.930 . S
H859 C851 0.929 . S
H860 C868 0.929 . S
H861 C870 0.930 . S
H862 C872 0.930 . S
H863 C875 0.929 . S
H864 C878 0.930 . S
H865 C880 0.960 . S
H866 C880 0.960 . S
H867 C880 0.960 . S
C868 H860 0.929 . S
C868 C869 1.377 . S
C868 C870 1.384 . S
C869 C868 1.377 . S
C869 C875 1.390 . S
C870 H861 0.930 . S
C870 C868 1.384 . S
C870 C871 1.372 . S
C871 C870 1.372 . S
C871 C872 1.400 . S
C871 C876 1.490 . S
C872 H862 0.930 . S
C872 C871 1.400 . S
C872 C875 1.386 . S
H873 C889 0.930 . S
H874 C890 0.931 . S
C875 H863 0.929 . S
C875 C869 1.390 . S
C875 C872 1.386 . S
C876 C871 1.490 . S
C876 C878 1.395 . S
C876 C879 1.403 . S
H877 C883 0.930 . S
C878 H864 0.930 . S
C878 C876 1.395 . S
C878 C881 1.403 . S
C879 C876 1.403 . S
C879 C880 1.524 . S
C879 C883 1.400 . S
C880 H865 0.960 . S
C880 H866 0.960 . S
C880 H867 0.960 . S
C880 C879 1.524 . S
C881 C878 1.403 . S
C881 C882 1.392 . S
C881 C885 1.495 . S
C882 C881 1.392 . S
C882 C883 1.385 . S
C882 C884 1.478 . S
C883 H877 0.930 . S
C883 C879 1.400 . S
C883 C882 1.385 . S
C884 C882 1.478 . S
C884 C886 1.381 . S
C884 C890 1.383 . S
C885 C881 1.495 . S
C885 H891 0.959 . S
C885 H892 0.961 . S
C885 H893 0.960 . S
C886 C884 1.381 . S
C886 C887 1.394 . S
C886 H894 0.930 . S
C887 C886 1.394 . S
C887 C888 1.383 . S
C887 H895 0.929 . S
C888 C887 1.383 . S
C888 C889 1.377 . S
C889 H873 0.930 . S
C889 C888 1.377 . S
C889 C890 1.379 . S
C890 H874 0.931 . S
C890 C884 1.383 . S
C890 C889 1.379 . S
H891 C885 0.959 . S
H892 C885 0.961 . S
H893 C885 0.960 . S
H894 C886 0.930 . S
H895 C887 0.929 . S
H896 C904 0.929 . S
H897 C906 0.930 . S
H898 C908 0.930 . S
H899 C911 0.929 . S
H900 C914 0.930 . S
H901 C916 0.960 . S
H902 C916 0.960 . S
H903 C916 0.960 . S
C904 H896 0.929 . S
C904 C905 1.377 . S
C904 C906 1.384 . S
C905 C904 1.377 . S
C905 C911 1.390 . S
C906 H897 0.930 . S
C906 C904 1.384 . S
C906 C907 1.372 . S
C907 C906 1.372 . S
C907 C908 1.400 . S
C907 C912 1.490 . S
C908 H898 0.930 . S
C908 C907 1.400 . S
C908 C911 1.386 . S
H909 C925 0.930 . S
H910 C926 0.931 . S
C911 H899 0.929 . S
C911 C905 1.390 . S
C911 C908 1.386 . S
C912 C907 1.490 . S
C912 C914 1.395 . S
C912 C915 1.403 . S
H913 C919 0.930 . S
C914 H900 0.930 . S
C914 C912 1.395 . S
C914 C917 1.403 . S
C915 C912 1.403 . S
C915 C916 1.524 . S
C915 C919 1.400 . S
C916 H901 0.960 . S
C916 H902 0.960 . S
C916 H903 0.960 . S
C916 C915 1.524 . S
C917 C914 1.403 . S
C917 C918 1.392 . S
C917 C921 1.495 . S
C918 C917 1.392 . S
C918 C919 1.385 . S
C918 C920 1.478 . S
C919 H913 0.930 . S
C919 C915 1.400 . S
C919 C918 1.385 . S
C920 C918 1.478 . S
C920 C922 1.381 . S
C920 C926 1.383 . S
C921 C917 1.495 . S
C921 H927 0.959 . S
C921 H928 0.961 . S
C921 H929 0.960 . S
C922 C920 1.381 . S
C922 C923 1.394 . S
C922 H930 0.930 . S
C923 C922 1.394 . S
C923 C924 1.383 . S
C923 H931 0.929 . S
C924 C923 1.383 . S
C924 C925 1.377 . S
C925 H909 0.930 . S
C925 C924 1.377 . S
C925 C926 1.379 . S
C926 H910 0.931 . S
C926 C920 1.383 . S
C926 C925 1.379 . S
H927 C921 0.959 . S
H928 C921 0.961 . S
H929 C921 0.960 . S
H930 C922 0.930 . S
H931 C923 0.929 . S
H932 C940 0.929 . S
H933 C942 0.930 . S
H934 C944 0.930 . S
H935 C947 0.929 . S
H936 C950 0.930 . S
H937 C952 0.960 . S
H938 C952 0.960 . S
H939 C952 0.960 . S
C940 H932 0.929 . S
C940 C941 1.377 . S
C940 C942 1.384 . S
C941 C940 1.377 . S
C941 C947 1.390 . S
C942 H933 0.930 . S
C942 C940 1.384 . S
C942 C943 1.372 . S
C943 C942 1.372 . S
C943 C944 1.400 . S
C943 C948 1.490 . S
C944 H934 0.930 . S
C944 C943 1.400 . S
C944 C947 1.386 . S
H945 C961 0.930 . S
H946 C962 0.931 . S
C947 H935 0.929 . S
C947 C941 1.390 . S
C947 C944 1.386 . S
C948 C943 1.490 . S
C948 C950 1.395 . S
C948 C951 1.403 1_455 S
H949 C955 0.930 . S
C950 H936 0.930 . S
C950 C948 1.395 . S
C950 C953 1.403 . S
C951 C948 1.403 1_655 S
C951 C952 1.524 . S
C951 C955 1.400 . S
C952 H937 0.960 . S
C952 H938 0.960 . S
C952 H939 0.960 . S
C952 C951 1.524 . S
C953 C950 1.403 . S
C953 C954 1.392 1_455 S
C953 C957 1.495 . S
C954 C953 1.392 1_655 S
C954 C955 1.385 . S
C954 C956 1.478 . S
C955 H949 0.930 . S
C955 C951 1.400 . S
C955 C954 1.385 . S
C956 C954 1.478 . S
C956 C958 1.381 . S
C956 C962 1.383 . S
C957 C953 1.495 . S
C957 H963 0.959 . S
C957 H964 0.961 . S
C957 H965 0.960 . S
C958 C956 1.381 . S
C958 C959 1.394 . S
C958 H966 0.930 . S
C959 C958 1.394 . S
C959 C960 1.383 . S
C959 H967 0.929 . S
C960 C959 1.383 . S
C960 C961 1.377 . S
C961 H945 0.930 . S
C961 C960 1.377 . S
C961 C962 1.379 . S
C962 H946 0.931 . S
C962 C956 1.383 . S
C962 C961 1.379 . S
H963 C957 0.959 . S
H964 C957 0.961 . S
H965 C957 0.960 . S
H966 C958 0.930 . S
H967 C959 0.929 . S
H968 C976 0.929 . S
H969 C978 0.930 . S
H970 C980 0.930 . S
H971 C983 0.929 . S
H972 C986 0.930 . S
H973 C988 0.960 . S
H974 C988 0.960 . S
H975 C988 0.960 . S
C976 H968 0.929 . S
C976 C977 1.377 . S
C976 C978 1.384 . S
C977 C976 1.377 . S
C977 C983 1.390 . S
C978 H969 0.930 . S
C978 C976 1.384 . S
C978 C979 1.372 . S
C979 C978 1.372 . S
C979 C980 1.400 . S
C979 C984 1.490 . S
C980 H970 0.930 . S
C980 C979 1.400 . S
C980 C983 1.386 . S
H981 C997 0.930 . S
H982 C998 0.931 . S
C983 H971 0.929 . S
C983 C977 1.390 . S
C983 C980 1.386 . S
C984 C979 1.490 . S
C984 C986 1.395 . S
C984 C987 1.403 . S
H985 C991 0.930 . S
C986 H972 0.930 . S
C986 C984 1.395 . S
C986 C989 1.403 . S
C987 C984 1.403 . S
C987 C988 1.524 . S
C987 C991 1.400 . S
C988 H973 0.960 . S
C988 H974 0.960 . S
C988 H975 0.960 . S
C988 C987 1.524 . S
C989 C986 1.403 . S
C989 C990 1.392 . S
C989 C993 1.495 . S
C990 C989 1.392 . S
C990 C991 1.385 . S
C990 C992 1.478 . S
C991 H985 0.930 . S
C991 C987 1.400 . S
C991 C990 1.385 . S
C992 C990 1.478 . S
C992 C994 1.381 . S
C992 C998 1.383 . S
C993 C989 1.495 . S
C993 H999 0.959 . S
C993 H1000 0.961 . S
C993 H1001 0.960 . S
C994 C992 1.381 . S
C994 C995 1.394 . S
C994 H1002 0.930 . S
C995 C994 1.394 . S
C995 C996 1.383 . S
C995 H1003 0.929 . S
C996 C995 1.383 . S
C996 C997 1.377 . S
C997 H981 0.930 . S
C997 C996 1.377 . S
C997 C998 1.379 . S
C998 H982 0.931 . S
C998 C992 1.383 . S
C998 C997 1.379 . S
H999 C993 0.959 . S
H1000 C993 0.961 . S
H1001 C993 0.960 . S
H1002 C994 0.930 . S
H1003 C995 0.929 . S
H1004 C1012 0.929 . S
H1005 C1014 0.930 . S
H1006 C1016 0.930 . S
H1007 C1019 0.929 . S
H1008 C1022 0.930 . S
H1009 C1024 0.960 . S
H1010 C1024 0.960 . S
H1011 C1024 0.960 . S
C1012 H1004 0.929 . S
C1012 C1013 1.377 . S
C1012 C1014 1.384 . S
C1013 C1012 1.377 . S
C1013 C1019 1.390 . S
C1014 H1005 0.930 . S
C1014 C1012 1.384 . S
C1014 C1015 1.372 . S
C1015 C1014 1.372 . S
C1015 C1016 1.400 . S
C1015 C1020 1.490 . S
C1016 H1006 0.930 . S
C1016 C1015 1.400 . S
C1016 C1019 1.386 . S
H1017 C1033 0.930 . S
H1018 C1034 0.931 . S
C1019 H1007 0.929 . S
C1019 C1013 1.390 . S
C1019 C1016 1.386 . S
C1020 C1015 1.490 . S
C1020 C1022 1.395 1_655 S
C1020 C1023 1.403 . S
H1021 C1027 0.930 . S
C1022 H1008 0.930 . S
C1022 C1020 1.395 1_455 S
C1022 C1025 1.403 . S
C1023 C1020 1.403 . S
C1023 C1024 1.524 . S
C1023 C1027 1.400 1_655 S
C1024 H1009 0.960 . S
C1024 H1010 0.960 . S
C1024 H1011 0.960 . S
C1024 C1023 1.524 . S
C1025 C1022 1.403 . S
C1025 C1026 1.392 . S
C1025 C1029 1.495 . S
C1026 C1025 1.392 . S
C1026 C1027 1.385 . S
C1026 C1028 1.478 . S
C1027 H1021 0.930 . S
C1027 C1023 1.400 1_455 S
C1027 C1026 1.385 . S
C1028 C1026 1.478 . S
C1028 C1030 1.381 . S
C1028 C1034 1.383 . S
C1029 C1025 1.495 . S
C1029 H1035 0.959 . S
C1029 H1036 0.961 . S
C1029 H1037 0.960 . S
C1030 C1028 1.381 . S
C1030 C1031 1.394 . S
C1030 H1038 0.930 . S
C1031 C1030 1.394 . S
C1031 C1032 1.383 . S
C1031 H1039 0.929 . S
C1032 C1031 1.383 . S
C1032 C1033 1.377 . S
C1033 H1017 0.930 . S
C1033 C1032 1.377 . S
C1033 C1034 1.379 . S
C1034 H1018 0.931 . S
C1034 C1028 1.383 . S
C1034 C1033 1.379 . S
H1035 C1029 0.959 . S
H1036 C1029 0.961 . S
H1037 C1029 0.960 . S
H1038 C1030 0.930 . S
H1039 C1031 0.929 . S
C185 C8 1.674 1_655 S
C204 C158 1.668 1_545 S
C221 C26 1.674 . S
C240 C92 1.667 . S
C257 C52 1.673 1_455 S
C276 C118 1.671 1_565 S
C293 C136 1.674 . S
C312 C74 1.669 . S
C329 C9 1.315 . S
C348 C30 1.400 . S
C365 C48 1.396 1_455 S
C384 C27 1.286 . S
C401 C70 1.395 . S
C420 C53 1.318 . S
C437 C4 1.394 1_655 S
C456 C75 1.290 . S
C473 C93 1.324 . S
C492 C162 1.383 1_545 S
C509 C119 1.326 . S
C528 C96 1.382 . S
C545 C137 1.323 . S
C564 C114 1.394 1_565 S
C581 C140 1.394 . S
C600 C159 1.303 . S
C617 C115 0.585 . S
C636 C5 0.558 . S
C653 C141 0.602 . S
C672 C31 0.640 . S
C689 C163 0.594 . S
C708 C49 0.587 . S
C725 C97 0.600 . S
C744 C71 0.633 . S
C761 C7 1.325 . S
C780 C139 1.323 . S
C797 C28 1.314 . S
C816 C161 1.370 . S
C833 C95 1.355 . S
C852 C51 1.283 . S
C869 C116 1.351 . S
C888 C73 1.305 . S
C905 C50 1.347 . S
C924 C94 1.332 . S
C941 C117 1.316 . S
C960 C72 1.365 . S
C977 C138 1.315 . S
C996 C6 1.363 . S
C1013 C160 1.327 . S
C1032 C29 1.316 . S
