# Generated by pormake.
# Topology wji, (4)-cn, num edge types: 1
# Building blocks:
#     Node 0, Type 0, BuildingBlock: KUFVIS_clean_sbu_0, # of connection points: 4
#     Node 1, Type 0, BuildingBlock: KUFVIS_clean_sbu_0, # of connection points: 4
#     Node 2, Type 0, BuildingBlock: KUFVIS_clean_sbu_0, # of connection points: 4
#     Node 3, Type 0, BuildingBlock: KUFVIS_clean_sbu_0, # of connection points: 4
#     Node 4, Type 0, BuildingBlock: KUFVIS_clean_sbu_0, # of connection points: 4
#     Node 5, Type 0, BuildingBlock: KUFVIS_clean_sbu_0, # of connection points: 4
#     Node 6, Type 0, BuildingBlock: KUFVIS_clean_sbu_0, # of connection points: 4
#     Node 7, Type 0, BuildingBlock: KUFVIS_clean_sbu_0, # of connection points: 4
#     Node 8, Type 0, BuildingBlock: KUFVIS_clean_sbu_0, # of connection points: 4
#     Node 9, Type 0, BuildingBlock: KUFVIS_clean_sbu_0, # of connection points: 4
#     Node 10, Type 0, BuildingBlock: KUFVIS_clean_sbu_0, # of connection points: 4
#     Node 11, Type 0, BuildingBlock: KUFVIS_clean_sbu_0, # of connection points: 4
#     Edge 12, Type (0, 0), BuildingBlock: UVAHIK_clean_linker_0, # of connection points: 2
#     Edge 13, Type (0, 0), BuildingBlock: UVAHIK_clean_linker_0, # of connection points: 2
#     Edge 14, Type (0, 0), BuildingBlock: UVAHIK_clean_linker_0, # of connection points: 2
#     Edge 15, Type (0, 0), BuildingBlock: UVAHIK_clean_linker_0, # of connection points: 2
#     Edge 16, Type (0, 0), BuildingBlock: UVAHIK_clean_linker_0, # of connection points: 2
#     Edge 17, Type (0, 0), BuildingBlock: UVAHIK_clean_linker_0, # of connection points: 2
#     Edge 18, Type (0, 0), BuildingBlock: UVAHIK_clean_linker_0, # of connection points: 2
#     Edge 19, Type (0, 0), BuildingBlock: UVAHIK_clean_linker_0, # of connection points: 2
#     Edge 20, Type (0, 0), BuildingBlock: UVAHIK_clean_linker_0, # of connection points: 2
#     Edge 21, Type (0, 0), BuildingBlock: UVAHIK_clean_linker_0, # of connection points: 2
#     Edge 22, Type (0, 0), BuildingBlock: UVAHIK_clean_linker_0, # of connection points: 2
#     Edge 23, Type (0, 0), BuildingBlock: UVAHIK_clean_linker_0, # of connection points: 2
#     Edge 24, Type (0, 0), BuildingBlock: UVAHIK_clean_linker_0, # of connection points: 2
#     Edge 25, Type (0, 0), BuildingBlock: UVAHIK_clean_linker_0, # of connection points: 2
#     Edge 26, Type (0, 0), BuildingBlock: UVAHIK_clean_linker_0, # of connection points: 2
#     Edge 27, Type (0, 0), BuildingBlock: UVAHIK_clean_linker_0, # of connection points: 2
#     Edge 28, Type (0, 0), BuildingBlock: UVAHIK_clean_linker_0, # of connection points: 2
#     Edge 29, Type (0, 0), BuildingBlock: UVAHIK_clean_linker_0, # of connection points: 2
#     Edge 30, Type (0, 0), BuildingBlock: UVAHIK_clean_linker_0, # of connection points: 2
#     Edge 31, Type (0, 0), BuildingBlock: UVAHIK_clean_linker_0, # of connection points: 2
#     Edge 32, Type (0, 0), BuildingBlock: UVAHIK_clean_linker_0, # of connection points: 2
#     Edge 33, Type (0, 0), BuildingBlock: UVAHIK_clean_linker_0, # of connection points: 2
#     Edge 34, Type (0, 0), BuildingBlock: UVAHIK_clean_linker_0, # of connection points: 2
#     Edge 35, Type (0, 0), BuildingBlock: UVAHIK_clean_linker_0, # of connection points: 2
# Relax obj value: 0.188
# Max RMSD: 0.112
# Mean RMSD: 0.112
data_MOF--net-wji--node1-KUFVIS_clean_sbu_0--edge1-UVAHIK_clean_linker_0
_symmetry_space_group_name_H-M    P1
_symmetry_Int_Tables_number       1
_symmetry_cell_setting            triclinic
loop_
_symmetry_equiv_pos_as_xyz
'x, y, z'
_cell_length_a     73.306114
_cell_length_b     73.298448
_cell_length_c     29.788219
_cell_angle_alpha  90.026468
_cell_angle_beta   89.976692
_cell_angle_gamma 119.97782
loop_
_atom_site_label
_atom_site_type_symbol
_atom_site_fract_x
_atom_site_fract_y
_atom_site_fract_z
_atom_type_partial_charge
Mn0 Mn 0.41813 0.32024 0.4418 0.0
Mn1 Mn 0.42249 0.36827 0.43601 0.0
C2 C 0.39537 0.32741 0.48161 0.0
C3 C 0.42684 0.29714 0.47739 0.0
C4 C 0.40265 0.33565 0.3626 0.0
O5 O 0.44788 0.33852 0.41707 0.0
O6 O 0.44899 0.36987 0.41557 0.0
C7 C 0.45487 0.38964 0.50637 0.0
N8 N 0.43536 0.38357 0.48972 0.0
C9 C 0.42824 0.40115 0.54963 0.0
C10 C 0.44829 0.40768 0.56733 0.0
C11 C 0.46162 0.40181 0.54572 0.0
C12 C 0.42231 0.38892 0.51054 0.0
H13 H 0.46522 0.38528 0.4897 0.0
C14 C 0.4573 0.3583 0.40933 0.0
O15 O 0.41993 0.29389 0.43629 0.0
O16 O 0.42946 0.31411 0.49667 0.0
N17 N 0.39797 0.36901 0.45535 0.0
C18 C 0.37873 0.36049 0.4353 0.0
C19 C 0.36324 0.3642 0.45373 0.0
C20 C 0.36781 0.37689 0.49213 0.0
C21 C 0.38781 0.38568 0.51185 0.0
C22 C 0.40254 0.38128 0.49223 0.0
H23 H 0.3752 0.35088 0.40556 0.0
O24 O 0.39 0.30812 0.47187 0.0
O25 O 0.41372 0.34179 0.46742 0.0
O26 O 0.40498 0.32117 0.381 0.0
O27 O 0.40872 0.35365 0.38014 0.0
C28 C 0.39368 0.39855 0.55033 0.0
C29 C 0.41384 0.4062 0.56935 0.0
H30 H 0.45358 0.41711 0.59761 0.0
H31 H 0.4771 0.40673 0.55925 0.0
H32 H 0.34785 0.35737 0.43829 0.0
H33 H 0.35584 0.37974 0.50624 0.0
H34 H 0.38267 0.40236 0.56607 0.0
H35 H 0.41802 0.41575 0.59945 0.0
Mn36 Mn 0.09739 0.41891 0.59805 0.0
Mn37 Mn 0.0553 0.42595 0.59477 0.0
C38 C 0.06717 0.3967 0.63777 0.0
C39 C 0.12903 0.42652 0.63288 0.0
C40 C 0.06742 0.40675 0.51827 0.0
O41 O 0.10979 0.44898 0.57406 0.0
O42 O 0.08109 0.45277 0.58005 0.0
C43 C 0.06528 0.45541 0.67095 0.0
N44 N 0.052 0.43672 0.65073 0.0
C45 C 0.02601 0.42778 0.70865 0.0
C46 C 0.03938 0.44697 0.73004 0.0
C47 C 0.05915 0.46079 0.7112 0.0
C48 C 0.03304 0.42321 0.66879 0.0
H49 H 0.08041 0.46614 0.6564 0.0
C50 C 0.10063 0.45989 0.57164 0.0
O51 O 0.12504 0.41968 0.59173 0.0
O52 O 0.11507 0.42957 0.65268 0.0
N53 N 0.02939 0.40103 0.60934 0.0
C54 C 0.01897 0.3826 0.5861 0.0
C55 C 0.99936 0.36662 0.60172 0.0
C56 C 0.99056 0.36986 0.64071 0.0
C57 C 0.00152 0.38903 0.66386 0.0
C58 C 0.02107 0.4043 0.6469 0.0
H59 H 0.02559 0.38007 0.55596 0.0
O60 O 0.08058 0.3907 0.62766 0.0
O61 O 0.0719 0.41536 0.62424 0.0
O62 O 0.08282 0.40638 0.53751 0.0
O63 O 0.05693 0.41447 0.53608 0.0
C64 C 0.99387 0.39352 0.70326 0.0
C65 C 0.00608 0.41293 0.72555 0.0
H66 H 0.03469 0.45119 0.76105 0.0
H67 H 0.06959 0.4756 0.72756 0.0
H68 H 0.99102 0.35187 0.58368 0.0
H69 H 0.97543 0.35751 0.65265 0.0
H70 H 0.97875 0.38206 0.71707 0.0
H71 H 1.00015 0.41609 0.75614 0.0
Mn72 Mn 0.6783 0.08945 0.76844 0.0
Mn73 Mn 0.63048 0.04826 0.79217 0.0
C74 C 0.67545 0.0624 0.8136 0.0
C75 C 0.7042 0.12327 0.79048 0.0
C76 C 0.65259 0.05372 0.70226 0.0
O77 O 0.65843 0.10013 0.75019 0.0
O78 O 0.62774 0.07289 0.77465 0.0
C79 C 0.62131 0.06561 0.87323 0.0
N80 N 0.6235 0.05013 0.85308 0.0
C81 C 0.6158 0.03068 0.92205 0.0
C82 C 0.61328 0.04632 0.94349 0.0
C83 C 0.61608 0.06388 0.91895 0.0
C84 C 0.62089 0.03319 0.87637 0.0
H85 H 0.62364 0.07922 0.85461 0.0
C86 C 0.63874 0.09136 0.75807 0.0
O87 O 0.70387 0.11673 0.74968 0.0
O88 O 0.68958 0.11042 0.81727 0.0
N89 N 0.63078 0.02339 0.81043 0.0
C90 C 0.63478 0.01023 0.78535 0.0
C91 C 0.63287 0.99196 0.80508 0.0
C92 C 0.62682 0.98739 0.85027 0.0
C93 C 0.62271 0.00114 0.87534 0.0
C94 C 0.62455 0.01892 0.85369 0.0
H95 H 0.63941 0.01363 0.75059 0.0
O96 O 0.69316 0.0751 0.79424 0.0
O97 O 0.66017 0.06613 0.80626 0.0
O98 O 0.66994 0.07053 0.71174 0.0
O99 O 0.637 0.04505 0.72943 0.0
C100 C 0.61729 0.99813 0.92118 0.0
C101 C 0.61397 0.01299 0.94453 0.0
H102 H 0.6094 0.04509 0.97887 0.0
H103 H 0.61431 0.0761 0.93529 0.0
H104 H 0.6361 0.98144 0.78554 0.0
H105 H 0.62547 0.97334 0.86543 0.0
H106 H 0.61609 0.98468 0.9389 0.0
H107 H 0.6103 0.01096 0.97993 0.0
Mn108 Mn 0.59051 0.67655 0.94381 0.0
Mn109 Mn 0.59173 0.6314 0.95483 0.0
C110 C 0.61704 0.67588 0.98436 0.0
C111 C 0.57986 0.69964 0.97179 0.0
C112 C 0.60698 0.65829 0.87146 0.0
O113 O 0.56051 0.65458 0.92703 0.0
O114 O 0.56396 0.62578 0.93159 0.0
C115 C 0.56008 0.61301 0.02761 0.0
N116 N 0.57987 0.61953 0.01195 0.0
C117 C 0.5892 0.60843 0.07982 0.0
C118 C 0.5689 0.60148 0.09658 0.0
C119 C 0.55431 0.60388 0.07042 0.0
C120 C 0.5941 0.61753 0.03706 0.0
H121 H 0.54874 0.61471 0.00763 0.0
C122 C 0.55319 0.63479 0.92336 0.0
O123 O 0.58546 0.70054 0.93002 0.0
O124 O 0.57991 0.68512 0.9963 0.0
N125 N 0.61735 0.63413 0.97791 0.0
C126 C 0.63635 0.64181 0.95715 0.0
C127 C 0.65284 0.641 0.97931 0.0
C128 C 0.64952 0.63199 0.02226 0.0
C129 C 0.62972 0.62386 0.04265 0.0
C130 C 0.6139 0.62513 0.01896 0.0
H131 H 0.63892 0.6486 0.92408 0.0
O132 O 0.61983 0.6934 0.96755 0.0
O133 O 0.59885 0.65927 0.97684 0.0
O134 O 0.60166 0.67181 0.88331 0.0
O135 O 0.6046 0.64301 0.89613 0.0
C136 C 0.62506 0.61451 0.08551 0.0
C137 C 0.60476 0.6067 0.10395 0.0
H138 H 0.56438 0.59437 0.12955 0.0
H139 H 0.53862 0.59863 0.08315 0.0
H140 H 0.66805 0.64726 0.96327 0.0
H141 H 0.66225 0.63133 0.03919 0.0
H142 H 0.63698 0.61328 0.10457 0.0
H143 H 0.60118 0.59939 0.13675 0.0
Mn144 Mn 0.91289 0.58601 0.12147 0.0
Mn145 Mn 0.9612 0.59192 0.13363 0.0
C146 C 0.93961 0.61608 0.15472 0.0
C147 C 0.87939 0.57395 0.1525 0.0
C148 C 0.94409 0.59683 0.04453 0.0
O149 O 0.90774 0.55607 0.11293 0.0
O150 O 0.94014 0.56149 0.1296 0.0
C151 C 0.95751 0.57272 0.22286 0.0
N152 N 0.96704 0.58974 0.1952 0.0
C153 C 0.99242 0.61029 0.25197 0.0
C154 C 0.983 0.59287 0.28092 0.0
C155 C 0.96539 0.57408 0.26642 0.0
C156 C 0.98387 0.60798 0.20896 0.0
H157 H 0.94412 0.55818 0.21162 0.0
C158 C 0.92062 0.5494 0.12008 0.0
O159 O 0.88253 0.57704 0.10949 0.0
O160 O 0.8954 0.57712 0.17653 0.0
N161 N 0.98276 0.62084 0.13827 0.0
C162 C 0.98961 0.63629 0.10657 0.0
C163 C 0.00659 0.65638 0.11641 0.0
C164 C 0.01649 0.66031 0.15848 0.0
C165 C 0.00925 0.64412 0.1904 0.0
C166 C 0.99217 0.62446 0.17884 0.0
H167 H 0.98217 0.63334 0.07406 0.0
O168 O 0.92338 0.61624 0.13788 0.0
O169 O 0.93956 0.59844 0.1513 0.0
O170 O 0.92675 0.59495 0.05876 0.0
O171 O 0.95711 0.5949 0.06961 0.0
C172 C 0.01829 0.64672 0.23325 0.0
C173 C 0.00993 0.62984 0.26393 0.0
H174 H 0.98911 0.59364 0.31432 0.0
H175 H 0.95803 0.56062 0.28864 0.0
H176 H 0.01208 0.66878 0.09157 0.0
H177 H 0.0296 0.67582 0.16596 0.0
H178 H 0.03169 0.66166 0.24302 0.0
H179 H 0.01718 0.63222 0.29655 0.0
Mn180 Mn 0.31948 0.90706 0.28339 0.0
Mn181 Mn 0.36392 0.95319 0.29921 0.0
C182 C 0.31807 0.93486 0.31723 0.0
C183 C 0.29629 0.87378 0.31309 0.0
C184 C 0.34296 0.93815 0.20824 0.0
O185 O 0.34282 0.89967 0.27547 0.0
O186 O 0.37084 0.93029 0.29759 0.0
C187 C 0.37426 0.94627 0.39119 0.0
N188 N 0.37013 0.95793 0.3617 0.0
C189 C 0.37358 0.98234 0.41957 0.0
C190 C 0.37792 0.97059 0.45055 0.0
C191 C 0.37825 0.95249 0.43631 0.0
C192 C 0.36969 0.97533 0.37505 0.0
H193 H 0.37433 0.93224 0.38042 0.0
C194 C 0.36223 0.91083 0.28648 0.0
O195 O 0.29684 0.87729 0.27014 0.0
O196 O 0.30945 0.88929 0.33779 0.0
N197 N 0.35904 0.97649 0.30206 0.0
C198 C 0.35282 0.98495 0.26881 0.0
C199 C 0.35132 0.00297 0.27771 0.0
C200 C 0.35635 0.01217 0.32057 0.0
C201 C 0.36275 0.00319 0.35418 0.0
C202 C 0.36401 0.98528 0.34333 0.0
H203 H 0.34904 0.97806 0.23571 0.0
O204 O 0.30123 0.91946 0.29958 0.0
O205 O 0.33484 0.93329 0.314 0.0
O206 O 0.32619 0.92172 0.22157 0.0
O207 O 0.35833 0.94983 0.23413 0.0
C208 C 0.36752 0.01107 0.39826 0.0
C209 C 0.37245 0.00041 0.43113 0.0
H210 H 0.38082 0.97508 0.48545 0.0
H211 H 0.38147 0.94331 0.46013 0.0
H212 H 0.34631 0.00976 0.2516 0.0
H213 H 0.35505 0.02599 0.32743 0.0
H214 H 0.36699 0.02508 0.40752 0.0
H215 H 0.37497 0.00614 0.46521 0.0
Mn216 Mn 0.68038 0.58527 0.38688 0.0
Mn217 Mn 0.63684 0.58709 0.35976 0.0
C218 C 0.68318 0.61401 0.34788 0.0
C219 C 0.70422 0.57453 0.36418 0.0
C220 C 0.65496 0.59474 0.45446 0.0
O221 O 0.6567 0.55478 0.39529 0.0
O222 O 0.62965 0.5573 0.36621 0.0
C223 C 0.62924 0.56792 0.26931 0.0
N224 N 0.63239 0.58422 0.29637 0.0
C225 C 0.62967 0.60348 0.23382 0.0
C226 C 0.62629 0.58684 0.2053 0.0
C227 C 0.62613 0.56902 0.22311 0.0
C228 C 0.63281 0.60154 0.27952 0.0
H229 H 0.62929 0.55428 0.28283 0.0
C230 C 0.63768 0.54653 0.38149 0.0
O231 O 0.70255 0.57826 0.40628 0.0
O232 O 0.69181 0.57653 0.33643 0.0
N233 N 0.64189 0.61516 0.35183 0.0
C234 C 0.64724 0.63059 0.38312 0.0
C235 C 0.6486 0.64969 0.37054 0.0
C236 C 0.64424 0.65265 0.3261 0.0
C237 C 0.63872 0.63653 0.29455 0.0
C238 C 0.63764 0.61785 0.309 0.0
H239 H 0.65041 0.62836 0.41743 0.0
O240 O 0.69933 0.61563 0.36922 0.0
O241 O 0.66624 0.59581 0.35046 0.0
O242 O 0.67179 0.5942 0.44546 0.0
O243 O 0.64067 0.59092 0.4253 0.0
C244 C 0.63455 0.63838 0.2492 0.0
C245 C 0.6305 0.6221 0.21868 0.0
H246 H 0.62404 0.58764 0.16963 0.0
H247 H 0.62368 0.5562 0.20125 0.0
H248 H 0.65293 0.66208 0.39508 0.0
H249 H 0.64537 0.66743 0.31646 0.0
H250 H 0.63485 0.65247 0.2372 0.0
H251 H 0.62836 0.62428 0.18363 0.0
Mn252 Mn 0.08739 0.67976 0.55801 0.0
Mn253 Mn 0.04014 0.63758 0.5353 0.0
C254 C 0.06269 0.68353 0.51675 0.0
C255 C 0.12216 0.70129 0.53373 0.0
C256 C 0.05195 0.65874 0.62688 0.0
O257 O 0.09222 0.65508 0.57006 0.0
O258 O 0.06088 0.62825 0.54729 0.0
C259 C 0.0494 0.62317 0.45001 0.0
N260 N 0.03805 0.63008 0.4734 0.0
C261 C 0.01615 0.62542 0.40935 0.0
C262 C 0.02748 0.61804 0.38471 0.0
C263 C 0.04425 0.61705 0.40503 0.0
C264 C 0.02201 0.63129 0.45404 0.0
H265 H 0.06217 0.6222 0.46567 0.0
C266 C 0.07985 0.63562 0.56117 0.0
O267 O 0.11712 0.70117 0.57569 0.0
O268 O 0.10729 0.68863 0.50715 0.0
N269 N 0.01892 0.64478 0.52249 0.0
C270 C 0.0103 0.65323 0.55027 0.0
C271 C 0.99381 0.65604 0.53457 0.0
C272 C 0.98625 0.64999 0.49063 0.0
C273 C 0.99541 0.64139 0.46266 0.0
C274 C 0.01187 0.63906 0.48006 0.0
H275 H 0.01604 0.65794 0.58404 0.0
O276 O 0.0778 0.69967 0.53699 0.0
O277 O 0.06254 0.66591 0.52179 0.0
O278 O 0.07037 0.67393 0.61714 0.0
O279 O 0.04042 0.64432 0.59902 0.0
C280 C 0.98894 0.63515 0.4181 0.0
C281 C 0.99931 0.62724 0.39147 0.0
H282 H 0.02352 0.61306 0.35021 0.0
H283 H 0.05309 0.61144 0.38615 0.0
H284 H 0.98692 0.66281 0.55631 0.0
H285 H 0.97353 0.65217 0.47862 0.0
H286 H 0.97606 0.63647 0.40385 0.0
H287 H 0.99415 0.62271 0.35731 0.0
Mn288 Mn 0.4097 0.08772 0.72767 0.0
Mn289 Mn 0.409 0.0426 0.70257 0.0
C290 C 0.38377 0.06301 0.68128 0.0
C291 C 0.42107 0.12269 0.70709 0.0
C292 C 0.39247 0.04926 0.79059 0.0
O293 O 0.43944 0.09476 0.74494 0.0
O294 O 0.43648 0.06344 0.72864 0.0
C295 C 0.44099 0.05978 0.6304 0.0
N296 N 0.42121 0.04556 0.64456 0.0
C297 C 0.41259 0.02823 0.57294 0.0
C298 C 0.4329 0.04256 0.5576 0.0
C299 C 0.44713 0.05849 0.58642 0.0
C300 C 0.40731 0.03036 0.61695 0.0
H301 H 0.45204 0.07199 0.65247 0.0
C302 C 0.44697 0.08241 0.74288 0.0
O303 O 0.41492 0.11627 0.74798 0.0
O304 O 0.42116 0.10911 0.6797 0.0
N305 N 0.38358 0.02088 0.67624 0.0
C306 C 0.36438 0.00871 0.69565 0.0
C307 C 0.34823 0.99223 0.67096 0.0
C308 C 0.35205 0.98833 0.62677 0.0
C309 C 0.37194 0.00106 0.60753 0.0
C310 C 0.38744 0.01718 0.63382 0.0
H311 H 0.36137 0.01168 0.72953 0.0
O312 O 0.38077 0.07675 0.70234 0.0
O313 O 0.40181 0.06413 0.68801 0.0
O314 O 0.39733 0.06851 0.78409 0.0
O315 O 0.39592 0.0384 0.76184 0.0
C316 C 0.37698 0.99844 0.56328 0.0
C317 C 0.39737 0.01196 0.54615 0.0
H318 H 0.4377 0.04156 0.52371 0.0
H319 H 0.46282 0.06968 0.57483 0.0
H320 H 0.33289 0.98254 0.68597 0.0
H321 H 0.33961 0.97554 0.6079 0.0
H322 H 0.36524 0.98615 0.54219 0.0
H323 H 0.40133 0.00986 0.51232 0.0
Mn324 Mn 0.31961 0.41393 0.90884 0.0
Mn325 Mn 0.3665 0.41581 0.90373 0.0
C326 C 0.32428 0.39108 0.86295 0.0
C327 C 0.29652 0.42431 0.87984 0.0
C328 C 0.3359 0.39541 0.98044 0.0
O329 O 0.33961 0.44314 0.93413 0.0
O330 O 0.36984 0.4421 0.93054 0.0
C331 C 0.38693 0.45024 0.83709 0.0
N332 N 0.38047 0.43005 0.84974 0.0
C333 C 0.39534 0.42405 0.7832 0.0
C334 C 0.40223 0.44479 0.76954 0.0
C335 C 0.3979 0.4579 0.7965 0.0
C336 C 0.38425 0.4172 0.82368 0.0
H337 H 0.38381 0.46045 0.85783 0.0
C338 C 0.35941 0.45132 0.94019 0.0
O339 O 0.29413 0.4168 0.92032 0.0
O340 O 0.31267 0.42657 0.8576 0.0
N341 N 0.36567 0.39153 0.8776 0.0
C342 C 0.35764 0.37182 0.89511 0.0
C343 C 0.36015 0.3566 0.87163 0.0
C344 C 0.37122 0.3619 0.83081 0.0
C345 C 0.37967 0.38239 0.81385 0.0
C346 C 0.3765 0.39683 0.83852 0.0
H347 H 0.34939 0.36775 0.92673 0.0
O348 O 0.30557 0.38617 0.87656 0.0
O349 O 0.33952 0.40889 0.87732 0.0
O350 O 0.32189 0.39972 0.96703 0.0
O351 O 0.3529 0.40047 0.95918 0.0
C352 C 0.39121 0.38908 0.77353 0.0
C353 C 0.39906 0.4099 0.75823 0.0
H354 H 0.4108 0.4508 0.73839 0.0
H355 H 0.40312 0.47392 0.78616 0.0
H356 H 0.35366 0.34085 0.88509 0.0
H357 H 0.37317 0.35014 0.81283 0.0
H358 H 0.39399 0.37828 0.7538 0.0
H359 H 0.40772 0.41479 0.72694 0.0
Mn360 Mn 0.90437 0.31622 0.06782 0.0
Mn361 Mn 0.94703 0.36498 0.06428 0.0
C362 C 0.93209 0.32378 0.01984 0.0
C363 C 0.87128 0.29187 0.03911 0.0
C364 C 0.93976 0.33361 0.13799 0.0
O365 O 0.89336 0.33395 0.09735 0.0
O366 O 0.92302 0.36573 0.09331 0.0
C367 C 0.93025 0.38424 0.00118 0.0
N368 N 0.94521 0.37915 0.01205 0.0
C369 C 0.96508 0.39599 0.9454 0.0
C370 C 0.94993 0.4015 0.93361 0.0
C371 C 0.9324 0.39551 0.96154 0.0
C372 C 0.962 0.38461 0.98512 0.0
H373 H 0.9168 0.37978 0.02261 0.0
C374 C 0.90369 0.35379 0.10422 0.0
O375 O 0.8773 0.28918 0.07844 0.0
O376 O 0.88403 0.30896 0.01792 0.0
N377 N 0.97132 0.36665 0.03618 0.0
C378 C 0.9842 0.35961 0.05159 0.0
C379 C 0.00219 0.36379 0.02687 0.0
C380 C 0.00696 0.37548 0.98694 0.0
C381 C 0.99368 0.38288 0.97213 0.0
C382 C 0.97589 0.37809 0.99802 0.0
H383 H 0.98074 0.35086 0.08246 0.0
O384 O 0.91941 0.30453 0.03221 0.0
O385 O 0.9283 0.33792 0.03633 0.0
O386 O 0.92191 0.31876 0.12436 0.0
O387 O 0.95038 0.35126 0.11796 0.0
C388 C 0.9974 0.39481 0.93268 0.0
C389 C 0.98306 0.4013 0.91922 0.0
H390 H 0.95157 0.41024 0.90313 0.0
H391 H 0.9206 0.39964 0.95262 0.0
H392 H 0.0124 0.35809 0.03865 0.0
H393 H 0.02086 0.37869 0.96795 0.0
H394 H 0.01108 0.39885 0.91209 0.0
H395 H 0.98593 0.4102 0.88844 0.0
Mn396 Mn 0.58185 0.9006 0.22506 0.0
Mn397 Mn 0.5777 0.94269 0.19568 0.0
C398 C 0.60678 0.92612 0.17786 0.0
C399 C 0.57294 0.86599 0.20746 0.0
C400 C 0.59366 0.93816 0.28718 0.0
O401 O 0.55146 0.89164 0.24283 0.0
O402 O 0.5499 0.91929 0.2144 0.0
C403 C 0.5516 0.92377 0.11475 0.0
N404 N 0.56898 0.9398 0.13451 0.0
C405 C 0.58089 0.95808 0.0643 0.0
C406 C 0.56281 0.94209 0.04339 0.0
C407 C 0.54816 0.92478 0.0687 0.0
C408 C 0.58342 0.95628 0.1103 0.0
H409 H 0.54064 0.91017 0.13382 0.0
C410 C 0.54135 0.90109 0.23271 0.0
O411 O 0.57919 0.87346 0.24768 0.0
O412 O 0.57139 0.87831 0.17866 0.0
N413 N 0.60333 0.96661 0.17589 0.0
C414 C 0.62066 0.97988 0.20037 0.0
C415 C 0.63713 0.99775 0.1797 0.0
C416 C 0.63556 0.00184 0.13422 0.0
C417 C 0.61757 0.98797 0.10974 0.0
C418 C 0.60152 0.97061 0.13232 0.0
H419 H 0.62189 0.9769 0.23541 0.0
O420 O 0.61104 0.91329 0.1991 0.0
O421 O 0.58812 0.92341 0.18462 0.0
O422 O 0.59318 0.92068 0.27967 0.0
O423 O 0.58741 0.94694 0.25868 0.0
C424 C 0.61507 0.99044 0.06364 0.0
C425 C 0.59681 0.97536 0.04093 0.0
H426 H 0.56022 0.94274 0.00776 0.0
H427 H 0.53437 0.91215 0.05269 0.0
H428 H 0.65099 0.00836 0.19878 0.0
H429 H 0.64831 0.01563 0.11841 0.0
H430 H 0.6273 0.00359 0.04516 0.0
H431 H 0.59518 0.97684 0.00533 0.0
C432 C 0.33816 0.3937 0.06361 0.0
C433 C 0.33264 0.38336 0.02202 0.0
C434 C 0.34079 0.38376 0.10124 0.0
C435 C 0.357 0.34503 0.1262 0.0
H436 H 0.34379 0.3513 0.24924 0.0
C437 C 0.40259 0.34092 0.28041 0.0
C438 C 0.3913 0.33167 0.31985 0.0
C439 C 0.39227 0.34262 0.24249 0.0
C440 C 0.34735 0.34914 0.21502 0.0
H441 H 0.32439 0.35432 0.98729 0.0
H442 H 0.32881 0.33687 0.05289 0.0
H443 H 0.33008 0.3631 0.18779 0.0
H444 H 0.36052 0.31664 0.3509 0.0
H445 H 0.34234 0.31948 0.28449 0.0
H446 H 0.37476 0.33164 0.15342 0.0
C447 C 0.33128 0.35265 0.05657 0.0
C448 C 0.33965 0.35608 0.17987 0.0
C449 C 0.32859 0.36255 0.01914 0.0
C450 C 0.36942 0.32335 0.32035 0.0
C451 C 0.35911 0.32526 0.28263 0.0
C452 C 0.36486 0.33828 0.16133 0.0
C453 C 0.33816 0.36341 0.09767 0.0
C454 C 0.34459 0.35434 0.13506 0.0
C455 C 0.37053 0.33548 0.24371 0.0
C456 C 0.36036 0.34051 0.20618 0.0
H457 H 0.34181 0.40992 0.06628 0.0
H458 H 0.34625 0.39254 0.1323 0.0
H459 H 0.36132 0.34367 0.09211 0.0
H460 H 0.41957 0.34798 0.27981 0.0
H461 H 0.40156 0.35079 0.21326 0.0
C462 C 0.05662 0.40744 0.43965 0.0
C463 C 0.05974 0.39641 0.47447 0.0
C464 C 0.04504 0.39681 0.4016 0.0
C465 C 0.00059 0.34707 0.36933 0.0
H466 H 0.01736 0.36727 0.24761 0.0
C467 C 0.94353 0.33393 0.2212 0.0
C468 C 0.94951 0.33072 0.1785 0.0
C469 C 0.95655 0.33724 0.25841 0.0
C470 C 0.0125 0.36123 0.28132 0.0
H471 H 0.05342 0.36574 0.49708 0.0
H472 H 0.03263 0.34691 0.43055 0.0
H473 H 0.0428 0.38293 0.30867 0.0
H474 H 0.97277 0.32691 0.14142 0.0
H475 H 0.99557 0.33282 0.20611 0.0
H476 H 0.96995 0.32604 0.34212 0.0
C477 C 0.03955 0.36386 0.43242 0.0
C478 C 0.02705 0.37029 0.31624 0.0
C479 C 0.05162 0.37462 0.4701 0.0
C480 C 0.9679 0.32945 0.17402 0.0
C481 C 0.98096 0.3329 0.21099 0.0
C482 C 0.98589 0.33824 0.33441 0.0
C483 C 0.03584 0.37483 0.39821 0.0
C484 C 0.02118 0.36349 0.36066 0.0
C485 C 0.97584 0.33764 0.25323 0.0
C486 C 0.99165 0.34539 0.29008 0.0
H487 H 0.06242 0.42419 0.44276 0.0
H488 H 0.04227 0.40563 0.37597 0.0
H489 H 0.9956 0.34169 0.40337 0.0
H490 H 0.9296 0.33535 0.2252 0.0
H491 H 0.95226 0.34097 0.2905 0.0
C492 C 0.60327 0.96898 0.33795 0.0
C493 C 0.60249 0.94963 0.33023 0.0
C494 C 0.61193 0.98036 0.37736 0.0
C495 C 0.62401 0.97453 0.49467 0.0
H496 H 0.6544 0.03564 0.49135 0.0
C497 C 0.63118 0.02382 0.64978 0.0
C498 C 0.65002 0.04277 0.6585 0.0
C499 C 0.62838 0.01276 0.60993 0.0
C500 C 0.64622 0.0186 0.49292 0.0
H501 H 0.61043 0.92723 0.35859 0.0
H502 H 0.6256 0.94721 0.4278 0.0
H503 H 0.64453 0.0157 0.42129 0.0
H504 H 0.6807 0.06486 0.63122 0.0
H505 H 0.6757 0.04541 0.5609 0.0
H506 H 0.62563 0.97742 0.56626 0.0
C507 C 0.61933 0.95344 0.40309 0.0
C508 C 0.64032 0.00713 0.45272 0.0
C509 C 0.61065 0.94199 0.36336 0.0
C510 C 0.66598 0.05039 0.62571 0.0
C511 C 0.6631 0.03925 0.5854 0.0
C512 C 0.6299 0.98599 0.53482 0.0
C513 C 0.62013 0.97283 0.41048 0.0
C514 C 0.62866 0.98494 0.45307 0.0
C515 C 0.64428 0.02019 0.57724 0.0
C516 C 0.64059 0.00817 0.53451 0.0
H517 H 0.59716 0.97548 0.31347 0.0
H518 H 0.61182 0.99495 0.38216 0.0
H519 H 0.61501 0.9575 0.49635 0.0
H520 H 0.6184 0.01733 0.67387 0.0
H521 H 0.6135 0.99844 0.60451 0.0
C522 C 0.6331 0.60164 0.509 0.0
C523 C 0.65196 0.60166 0.49959 0.0
C524 C 0.6306 0.61016 0.54882 0.0
C525 C 0.64942 0.62423 0.66457 0.0
H526 H 0.62366 0.65925 0.65605 0.0
C527 C 0.63568 0.66064 0.82304 0.0
C528 C 0.61607 0.65955 0.8266 0.0
C529 C 0.64246 0.65684 0.78204 0.0
C530 C 0.63071 0.64939 0.65916 0.0
H531 H 0.68274 0.61016 0.52612 0.0
H532 H 0.67819 0.62485 0.59655 0.0
H533 H 0.63084 0.64545 0.58794 0.0
H534 H 0.58842 0.65436 0.79004 0.0
H535 H 0.60002 0.64744 0.71818 0.0
H536 H 0.64873 0.62756 0.73576 0.0
C537 C 0.66541 0.61826 0.57249 0.0
C538 C 0.63488 0.6415 0.62007 0.0
C539 C 0.668 0.60981 0.53218 0.0
C540 C 0.60378 0.65566 0.7879 0.0
C541 C 0.61046 0.65163 0.7468 0.0
C542 C 0.64512 0.632 0.70373 0.0
C543 C 0.64681 0.61889 0.58078 0.0
C544 C 0.64401 0.62858 0.62231 0.0
C545 C 0.62961 0.65152 0.74366 0.0
C546 C 0.63549 0.6445 0.70164 0.0
H547 H 0.62024 0.5954 0.48512 0.0
H548 H 0.6159 0.60993 0.55455 0.0
H549 H 0.65626 0.61416 0.66749 0.0
H550 H 0.6455 0.66374 0.85238 0.0
H551 H 0.65753 0.65748 0.78079 0.0
C552 C 0.05385 0.66967 0.70859 0.0
C553 C 0.04224 0.65757 0.67147 0.0
C554 C 0.04388 0.66742 0.75028 0.0
C555 C 0.99068 0.64623 0.80206 0.0
H556 H 0.01526 0.63475 0.90561 0.0
C557 C 0.94854 0.61892 0.97634 0.0
C558 C 0.95113 0.6033 0.99779 0.0
C559 C 0.95977 0.62847 0.93685 0.0
C560 C 0.00817 0.63793 0.87697 0.0
H561 H 0.01082 0.634 0.64932 0.0
H562 H 0.99393 0.63031 0.72055 0.0
H563 H 0.0358 0.64788 0.83676 0.0
H564 H 0.96623 0.58438 0.99325 0.0
H565 H 0.98516 0.60045 0.92431 0.0
H566 H 0.96267 0.63528 0.84157 0.0
C567 C 0.01059 0.64163 0.71785 0.0
C568 C 0.02008 0.64576 0.83774 0.0
C569 C 0.02047 0.64364 0.67686 0.0
C570 C 0.96402 0.59649 0.9776 0.0
C571 C 0.97511 0.60591 0.93841 0.0
C572 C 0.97877 0.63842 0.84132 0.0
C573 C 0.02209 0.65333 0.7552 0.0
C574 C 0.01122 0.6493 0.79933 0.0
C575 C 0.97373 0.6225 0.91836 0.0
C576 C 0.98713 0.63348 0.87871 0.0
H577 H 0.07061 0.68053 0.70566 0.0
H578 H 0.05317 0.67663 0.77862 0.0
H579 H 0.9835 0.6491 0.77315 0.0
H580 H 0.93894 0.62467 0.99151 0.0
H581 H 0.95828 0.64115 0.92202 0.0
C582 C 0.37219 0.01607 0.83423 0.0
C583 C 0.38257 0.03824 0.83334 0.0
C584 C 0.36531 0.00505 0.87439 0.0
C585 C 0.3523 0.00601 0.9925 0.0
H586 H 0.37188 0.96588 0.00509 0.0
C587 C 0.32763 0.94547 0.13978 0.0
C588 C 0.34472 0.94558 0.16145 0.0
C589 C 0.33066 0.95626 0.09904 0.0
C590 C 0.36627 0.97698 0.00211 0.0
H591 H 0.39259 0.06608 0.87435 0.0
H592 H 0.38046 0.04651 0.94562 0.0
H593 H 0.38006 0.987 0.93715 0.0
H594 H 0.37808 0.95634 0.15692 0.0
H595 H 0.38319 0.97446 0.08552 0.0
H596 H 0.33856 0.99585 0.05799 0.0
C597 C 0.37776 0.03785 0.91454 0.0
C598 C 0.37088 0.98903 0.96313 0.0
C599 C 0.3847 0.04904 0.87383 0.0
C600 C 0.3646 0.95585 0.14078 0.0
C601 C 0.36753 0.96627 0.09995 0.0
C602 C 0.34745 0.9937 0.03154 0.0
C603 C 0.36862 0.01576 0.91518 0.0
C604 C 0.36397 0.00367 0.95779 0.0
C605 C 0.35073 0.96696 0.07902 0.0
C606 C 0.35451 0.97914 0.03677 0.0
H607 H 0.36994 0.00706 0.8039 0.0
H608 H 0.35793 0.98803 0.87366 0.0
H609 H 0.3467 0.01711 0.98916 0.0
H610 H 0.31223 0.93797 0.15538 0.0
H611 H 0.3174 0.95641 0.08343 0.0
C612 C 0.6063 0.51404 0.35292 0.0
C613 C 0.6241 0.52328 0.38098 0.0
C614 C 0.593 0.49231 0.35211 0.0
C615 C 0.57298 0.44601 0.42175 0.0
H616 H 0.54715 0.41804 0.30967 0.0
C617 C 0.49468 0.36717 0.41982 0.0
C618 C 0.47953 0.36935 0.3953 0.0
C619 C 0.51617 0.38166 0.41397 0.0
C620 C 0.55436 0.4255 0.34124 0.0
H621 H 0.64199 0.51675 0.42992 0.0
H622 H 0.61812 0.47839 0.42935 0.0
H623 H 0.57884 0.45272 0.30838 0.0
H624 H 0.47472 0.38717 0.34342 0.0
H625 H 0.51197 0.412 0.33228 0.0
H626 H 0.5477 0.41936 0.4546 0.0
C627 C 0.61477 0.48821 0.40767 0.0
C628 C 0.57247 0.44535 0.34051 0.0
C629 C 0.6284 0.51012 0.40796 0.0
C630 C 0.48615 0.38511 0.36249 0.0
C631 C 0.50751 0.39928 0.35607 0.0
C632 C 0.5548 0.42611 0.42249 0.0
C633 C 0.59694 0.47913 0.37964 0.0
C634 C 0.58136 0.45624 0.38072 0.0
C635 C 0.52274 0.39825 0.38292 0.0
C636 C 0.54474 0.41613 0.38219 0.0
H637 H 0.6025 0.52361 0.33147 0.0
H638 H 0.57919 0.48587 0.33078 0.0
H639 H 0.57944 0.45405 0.45326 0.0
H640 H 0.48989 0.35528 0.44575 0.0
H641 H 0.52757 0.38047 0.43504 0.0
C642 C 0.11927 0.49641 0.5993 0.0
C643 C 0.11299 0.48255 0.56273 0.0
C644 C 0.12354 0.51709 0.59351 0.0
C645 C 0.10452 0.54359 0.51872 0.0
H646 H 0.13499 0.59007 0.60131 0.0
C647 C 0.10971 0.62789 0.56516 0.0
C648 C 0.08796 0.62072 0.56377 0.0
C649 C 0.1171 0.61358 0.56208 0.0
C650 C 0.1266 0.57737 0.57756 0.0
H651 H 0.10799 0.47957 0.49101 0.0
H652 H 0.11659 0.51609 0.48011 0.0
H653 H 0.14359 0.56188 0.59717 0.0
H654 H 0.05696 0.59279 0.56059 0.0
H655 H 0.06974 0.56809 0.55611 0.0
H656 H 0.08747 0.55888 0.49929 0.0
C657 C 0.11768 0.51095 0.51358 0.0
C658 C 0.13141 0.56112 0.57539 0.0
C659 C 0.1131 0.49015 0.51956 0.0
C660 C 0.07382 0.59894 0.56118 0.0
C661 C 0.08116 0.58475 0.55824 0.0
C662 C 0.09983 0.5598 0.52074 0.0
C663 C 0.12163 0.52426 0.5509 0.0
C664 C 0.11993 0.54366 0.54697 0.0
C665 C 0.10286 0.59188 0.55753 0.0
C666 C 0.11023 0.57646 0.55134 0.0
H667 H 0.11893 0.4907 0.63301 0.0
H668 H 0.12636 0.52669 0.62315 0.0
H669 H 0.0951 0.5304 0.49677 0.0
H670 H 0.12105 0.64457 0.567 0.0
H671 H 0.13392 0.61955 0.56174 0.0
C672 C 0.47617 0.07594 0.76266 0.0
C673 C 0.46951 0.09043 0.7526 0.0
C674 C 0.49745 0.08208 0.76186 0.0
C675 C 0.53858 0.09478 0.71578 0.0
H676 H 0.58463 0.14031 0.78074 0.0
C677 C 0.6195 0.10269 0.70699 0.0
C678 C 0.6276 0.10298 0.74971 0.0
C679 C 0.60382 0.10811 0.7017 0.0
C680 C 0.57195 0.12766 0.76203 0.0
H681 H 0.4801 0.12314 0.73728 0.0
H682 H 0.51773 0.13399 0.73642 0.0
H683 H 0.54901 0.13538 0.78659 0.0
H684 H 0.6272 0.11061 0.81969 0.0
H685 H 0.5997 0.11978 0.81087 0.0
H686 H 0.56084 0.08627 0.69274 0.0
C687 C 0.50626 0.11784 0.74458 0.0
C688 C 0.55163 0.12493 0.76529 0.0
C689 C 0.48478 0.11165 0.7453 0.0
C690 C 0.62115 0.11036 0.7864 0.0
C691 C 0.60548 0.11573 0.78121 0.0
C692 C 0.55876 0.09756 0.7123 0.0
C693 C 0.51264 0.10285 0.75105 0.0
C694 C 0.53467 0.10799 0.74337 0.0
C695 C 0.59588 0.11365 0.7392 0.0
C696 C 0.57561 0.11364 0.73639 0.0
H697 H 0.46483 0.05954 0.76905 0.0
H698 H 0.502 0.07032 0.76804 0.0
H699 H 0.5258 0.08177 0.69798 0.0
H700 H 0.62415 0.09683 0.67837 0.0
H701 H 0.59697 0.10665 0.66876 0.0
C702 C 0.51543 0.62468 0.93495 0.0
C703 C 0.53049 0.62074 0.91486 0.0
C704 C 0.49426 0.60869 0.93727 0.0
C705 C 0.46527 0.55113 0.94217 0.0
H706 H 0.41464 0.55524 0.93478 0.0
C707 C 0.37257 0.48915 0.92458 0.0
C708 C 0.37211 0.47362 0.95289 0.0
C709 C 0.38974 0.50974 0.92578 0.0
C710 C 0.42867 0.5539 0.93704 0.0
H711 H 0.53499 0.59797 0.87737 0.0
H712 H 0.49814 0.57048 0.87996 0.0
H713 H 0.44903 0.58623 0.91811 0.0
H714 H 0.38772 0.46766 0.00776 0.0
H715 H 0.417 0.50375 0.01184 0.0
H716 H 0.44536 0.51896 0.95969 0.0
C717 C 0.50267 0.58555 0.89531 0.0
C718 C 0.44833 0.57164 0.92764 0.0
C719 C 0.52374 0.60134 0.89347 0.0
C720 C 0.38774 0.47943 0.98571 0.0
C721 C 0.40463 0.50003 0.98753 0.0
C722 C 0.44581 0.53358 0.95157 0.0
C723 C 0.48789 0.58865 0.91924 0.0
C724 C 0.46681 0.57031 0.9295 0.0
C725 C 0.40655 0.51505 0.95563 0.0
C726 C 0.4272 0.53462 0.94901 0.0
H727 H 0.52026 0.63946 0.95199 0.0
H728 H 0.48325 0.61158 0.95586 0.0
H729 H 0.4792 0.54964 0.9449 0.0
H730 H 0.36083 0.4849 0.89849 0.0
H731 H 0.39069 0.52087 0.90071 0.0
C732 C 0.89805 0.37479 0.162 0.0
C733 C 0.8927 0.36465 0.12026 0.0
C734 C 0.89387 0.39106 0.17116 0.0
C735 C 0.87193 0.42344 0.12094 0.0
H736 H 0.92231 0.46891 0.17475 0.0
C737 C 0.92741 0.51943 0.11372 0.0
C738 C 0.9129 0.52646 0.11932 0.0
C739 C 0.92109 0.49817 0.11787 0.0
C740 C 0.90813 0.45642 0.15951 0.0
H741 H 0.87772 0.36237 0.05642 0.0
H742 H 0.8712 0.39127 0.07123 0.0
H743 H 0.91638 0.43347 0.17799 0.0
H744 H 0.88008 0.51647 0.13191 0.0
H745 H 0.86899 0.47898 0.13965 0.0
H746 H 0.86466 0.44711 0.09988 0.0
C747 C 0.87791 0.38641 0.09782 0.0
C748 C 0.90447 0.43588 0.16211 0.0
C749 C 0.88162 0.36978 0.0892 0.0
C750 C 0.89163 0.51152 0.12735 0.0
C751 C 0.88529 0.49008 0.13182 0.0
C752 C 0.87573 0.44416 0.118 0.0
C753 C 0.88505 0.39804 0.13798 0.0
C754 C 0.88661 0.41911 0.14185 0.0
C755 C 0.90011 0.48328 0.12821 0.0
C756 C 0.89426 0.46095 0.136 0.0
H757 H 0.9068 0.37117 0.18623 0.0
H758 H 0.89896 0.39914 0.20306 0.0
H759 H 0.85783 0.41093 0.10557 0.0
H760 H 0.94384 0.53043 0.10676 0.0
H761 H 0.9328 0.49342 0.11341 0.0
C762 C 0.36905 0.88093 0.26969 0.0
C763 C 0.37573 0.90103 0.28781 0.0
C764 C 0.38249 0.87245 0.27005 0.0
C765 C 0.42078 0.8683 0.24444 0.0
H766 H 0.46196 0.88266 0.33943 0.0
C767 C 0.50611 0.89509 0.21093 0.0
C768 C 0.51837 0.89075 0.24054 0.0
C769 C 0.48494 0.88779 0.21961 0.0
C770 C 0.45031 0.87797 0.31302 0.0
H771 H 0.40155 0.92753 0.32215 0.0
H772 H 0.42474 0.913 0.32215 0.0
H773 H 0.43082 0.88584 0.35256 0.0
H774 H 0.5178 0.87464 0.3019 0.0
H775 H 0.48043 0.86226 0.31815 0.0
H776 H 0.44076 0.86133 0.2043 0.0
C777 C 0.40911 0.9036 0.30811 0.0
C778 C 0.43259 0.88005 0.32033 0.0
C779 C 0.39583 0.91208 0.3075 0.0
C780 C 0.50869 0.87814 0.27842 0.0
C781 C 0.48738 0.87113 0.28772 0.0
C782 C 0.43847 0.86618 0.23718 0.0
C783 C 0.40276 0.88379 0.28899 0.0
C784 C 0.41823 0.87633 0.28532 0.0
C785 C 0.4754 0.87619 0.25861 0.0
C786 C 0.454 0.87211 0.27058 0.0
H787 H 0.35363 0.87193 0.25449 0.0
H788 H 0.37712 0.85712 0.25513 0.0
H789 H 0.41004 0.86524 0.21678 0.0
H790 H 0.51301 0.90476 0.18147 0.0
H791 H 0.47638 0.89234 0.19689 0.0
C792 C 0.33517 0.39505 0.7839 0.0
C793 C 0.3267 0.3819 0.82129 0.0
C794 C 0.33837 0.38724 0.74399 0.0
C795 C 0.32917 0.33855 0.68395 0.0
H796 H 0.38299 0.37818 0.63162 0.0
C797 C 0.36303 0.32365 0.51883 0.0
C798 C 0.38485 0.33162 0.51867 0.0
C799 C 0.35355 0.32799 0.55497 0.0
C800 C 0.36785 0.36691 0.64534 0.0
H801 H 0.31336 0.35006 0.84611 0.0
H802 H 0.3204 0.33644 0.77679 0.0
H803 H 0.36944 0.38929 0.69231 0.0
H804 H 0.41361 0.34833 0.55722 0.0
H805 H 0.39723 0.35564 0.62032 0.0
H806 H 0.32788 0.3162 0.63547 0.0
C807 C 0.32411 0.3527 0.77785 0.0
C808 C 0.35999 0.3733 0.68052 0.0
C809 C 0.32031 0.36048 0.81765 0.0
C810 C 0.39686 0.34275 0.556 0.0
C811 C 0.38745 0.34687 0.5921 0.0
C812 C 0.33693 0.33223 0.64768 0.0
C813 C 0.3337 0.36619 0.74092 0.0
C814 C 0.34075 0.3592 0.70097 0.0
C815 C 0.36578 0.33997 0.59164 0.0
C816 C 0.35655 0.34634 0.62848 0.0
H817 H 0.33954 0.41151 0.7857 0.0
H818 H 0.34503 0.39793 0.71587 0.0
H819 H 0.31415 0.32733 0.69854 0.0
H820 H 0.35349 0.31462 0.49056 0.0
H821 H 0.33683 0.3225 0.55368 0.0
C822 C 0.93998 0.33709 0.9423 0.0
C823 C 0.94437 0.32778 0.97859 0.0
C824 C 0.95127 0.34112 0.9025 0.0
C825 C 0.98933 0.33111 0.83939 0.0
H826 H 0.00537 0.38599 0.79034 0.0
C827 C 0.03745 0.36482 0.67373 0.0
C828 C 0.05227 0.3864 0.67463 0.0
C829 C 0.02355 0.35552 0.70983 0.0
C830 C 0.00098 0.37057 0.8032 0.0
H831 H 0.96268 0.31388 0.00147 0.0
H832 H 0.98358 0.32207 0.9323 0.0
H833 H 0.98122 0.37276 0.85219 0.0
H834 H 0.06584 0.4148 0.71475 0.0
H835 H 0.04197 0.39874 0.7777 0.0
H836 H 0.00933 0.32919 0.78912 0.0
C837 C 0.97116 0.32596 0.93423 0.0
C838 C 0.98705 0.36292 0.83899 0.0
C839 C 0.95945 0.3215 0.97393 0.0
C840 C 0.05395 0.39828 0.71279 0.0
C841 C 0.04031 0.38906 0.74879 0.0
C842 C 0.0031 0.33869 0.80264 0.0
C843 C 0.96744 0.3362 0.89837 0.0
C844 C 0.98126 0.34327 0.85815 0.0
C845 C 0.02469 0.36768 0.74743 0.0
C846 C 0.00927 0.35867 0.78463 0.0
H847 H 0.92784 0.34137 0.9448 0.0
H848 H 0.9475 0.34841 0.8752 0.0
H849 H 0.98498 0.31577 0.853 0.0
H850 H 0.03629 0.35535 0.64478 0.0
H851 H 0.01165 0.33903 0.70786 0.0
C852 C 0.64128 0.95363 0.1462 0.0
C853 C 0.62001 0.93857 0.1401 0.0
C854 C 0.65323 0.96606 0.11 0.0
C855 C 0.65218 0.97159 0.98501 0.0
H856 H 0.68272 0.03132 0.01171 0.0
C857 C 0.68074 0.03355 0.8436 0.0
C858 C 0.67498 0.04891 0.8505 0.0
C859 C 0.67974 0.02056 0.87911 0.0
C860 C 0.67434 0.01468 0.00366 0.0
H861 H 0.59508 0.92273 0.09138 0.0
H862 H 0.61553 0.9445 0.02852 0.0
H863 H 0.67028 0.006 0.07286 0.0
H864 H 0.66603 0.06457 0.90003 0.0
H865 H 0.66392 0.04185 0.96185 0.0
H866 H 0.6555 0.98033 0.9158 0.0
C867 C 0.62321 0.94704 0.0608 0.0
C868 C 0.66735 1.00011 0.03878 0.0
C869 C 0.61133 0.93478 0.09693 0.0
C870 C 0.66986 0.0523 0.89382 0.0
C871 C 0.66902 0.03951 0.92932 0.0
C872 C 0.65928 0.98615 0.94988 0.0
C873 C 0.64414 0.96327 0.06705 0.0
C874 C 0.65538 0.9784 0.02995 0.0
C875 C 0.67346 0.02314 0.92222 0.0
C876 C 0.66967 0.00788 0.95886 0.0
H877 H 0.64838 0.95633 0.17919 0.0
H878 H 0.66941 0.97814 0.11585 0.0
H879 H 0.64347 0.95496 0.97691 0.0
H880 H 0.68533 0.03115 0.81052 0.0
H881 H 0.68357 0.00832 0.87268 0.0
C882 C 0.65294 0.68645 0.01352 0.0
C883 C 0.63109 0.67649 0.0201 0.0
C884 C 0.66609 0.68715 0.04838 0.0
C885 C 0.66874 0.68336 0.17099 0.0
H886 H 0.69964 0.65414 0.1485 0.0
C887 C 0.69346 0.64981 0.31754 0.0
C888 C 0.68628 0.62836 0.31066 0.0
C889 C 0.69494 0.66261 0.28115 0.0
C890 C 0.69135 0.66262 0.15531 0.0
H891 H 0.60587 0.6611 0.06849 0.0
H892 H 0.62874 0.66238 0.12945 0.0
H893 H 0.68524 0.66418 0.08552 0.0
H894 H 0.67713 0.60378 0.26096 0.0
H895 H 0.67922 0.62566 0.19801 0.0
H896 H 0.67391 0.681 0.24073 0.0
C897 C 0.63575 0.66937 0.09741 0.0
C898 C 0.68322 0.66845 0.11921 0.0
C899 C 0.62265 0.66834 0.06247 0.0
C900 C 0.68222 0.62023 0.26699 0.0
C901 C 0.68382 0.63293 0.23082 0.0
C902 C 0.67717 0.67785 0.20705 0.0
C903 C 0.65756 0.67861 0.09062 0.0
C904 C 0.6708 0.67773 0.127 0.0
C905 C 0.68966 0.65415 0.23745 0.0
C906 C 0.68725 0.66607 0.19976 0.0
H907 H 0.65973 0.69319 0.98119 0.0
H908 H 0.68285 0.69432 0.04241 0.0
H909 H 0.65948 0.69084 0.17771 0.0
H910 H 0.69707 0.6564 0.35107 0.0
H911 H 0.69963 0.67894 0.28735 0.0
C912 C 0.04001 0.69671 0.48363 0.0
C913 C 0.05197 0.68674 0.47866 0.0
C914 C 0.02931 0.69867 0.44662 0.0
C915 C 0.02525 0.69361 0.322 0.0
H916 H 0.96504 0.66408 0.34295 0.0
C917 C 0.96393 0.65318 0.17967 0.0
C918 C 0.95229 0.63155 0.18907 0.0
C919 C 0.97594 0.66742 0.21355 0.0
C920 C 0.98184 0.67284 0.33659 0.0
H921 H 0.06403 0.67292 0.4314 0.0
H922 H 0.04541 0.67611 0.36718 0.0
H923 H 0.98909 0.67781 0.40654 0.0
H924 H 0.94255 0.60782 0.24094 0.0
H925 H 0.96328 0.63249 0.29992 0.0
H926 H 0.01786 0.68748 0.25211 0.0
C927 C 0.04406 0.68239 0.39916 0.0
C928 C 0.99562 0.68078 0.37296 0.0
C929 C 0.05443 0.68021 0.43603 0.0
C930 C 0.95179 0.62443 0.2329 0.0
C931 C 0.96339 0.63857 0.26671 0.0
C932 C 0.01145 0.68598 0.28555 0.0
C933 C 0.03105 0.69125 0.40413 0.0
C934 C 0.01739 0.68988 0.36616 0.0
C935 C 0.97571 0.66017 0.25736 0.0
C936 C 0.98967 0.67428 0.2929 0.0
H937 H 0.0383 0.7022 0.51628 0.0
H938 H 0.01934 0.70552 0.45135 0.0
H939 H 0.04202 0.70096 0.31582 0.0
H940 H 0.96418 0.65891 0.14604 0.0
H941 H 0.98548 0.684 0.20558 0.0
C942 C 0.32089 0.94452 0.39702 0.0
C943 C 0.31608 0.94746 0.35311 0.0
C944 C 0.31978 0.95643 0.4321 0.0
C945 C 0.32638 0.00802 0.45313 0.0
H946 H 0.31572 0.9867 0.57509 0.0
C947 C 0.34811 0.03901 0.64924 0.0
C948 C 0.36999 0.0512 0.6436 0.0
C949 C 0.3353 0.02752 0.61309 0.0
C950 C 0.31856 0.99293 0.54128 0.0
H951 H 0.30481 0.96383 0.31123 0.0
H952 H 0.30331 0.98543 0.37303 0.0
H953 H 0.30242 0.96211 0.51237 0.0
H954 H 0.39553 0.06299 0.59557 0.0
H955 H 0.37331 0.04292 0.5325 0.0
H956 H 0.34387 0.0388 0.48219 0.0
C957 C 0.30806 0.97392 0.38019 0.0
C958 C 0.31098 0.97885 0.50533 0.0
C959 C 0.30895 0.96168 0.34493 0.0
C960 C 0.37873 0.05311 0.60084 0.0
C961 C 0.36596 0.04192 0.56466 0.0
C962 C 0.33437 0.0221 0.48912 0.0
C963 C 0.31373 0.97157 0.42411 0.0
C964 C 0.31592 0.98621 0.4609 0.0
C965 C 0.34416 0.02868 0.57057 0.0
C966 C 0.33144 0.0146 0.53345 0.0
H967 H 0.32602 0.93327 0.4041 0.0
H968 H 0.32471 0.95448 0.46516 0.0
H969 H 0.33002 0.01422 0.41931 0.0
H970 H 0.34107 0.03778 0.68188 0.0
H971 H 0.31854 0.0175 0.6185 0.0
C972 C 0.43011 0.26458 0.48143 0.0
C973 C 0.43003 0.28161 0.50291 0.0
C974 C 0.4319 0.24939 0.5066 0.0
C975 C 0.4203 0.22475 0.61723 0.0
H976 H 0.45958 0.20617 0.58466 0.0
C977 C 0.42396 0.15838 0.71639 0.0
C978 C 0.42629 0.14378 0.69004 0.0
C979 C 0.42701 0.17726 0.69734 0.0
C980 C 0.44832 0.21096 0.59404 0.0
H981 H 0.43191 0.2961 0.56761 0.0
H982 H 0.43461 0.26942 0.61128 0.0
H983 H 0.45917 0.23437 0.54217 0.0
H984 H 0.43422 0.13786 0.62338 0.0
H985 H 0.43883 0.1699 0.59045 0.0
H986 H 0.40871 0.20079 0.66773 0.0
C987 C 0.43341 0.26789 0.57507 0.0
C988 C 0.44818 0.2272 0.56968 0.0
C989 C 0.43198 0.28322 0.54995 0.0
C990 C 0.43231 0.14872 0.64486 0.0
C991 C 0.43517 0.16733 0.6259 0.0
C992 C 0.42018 0.20826 0.64117 0.0
C993 C 0.43327 0.25076 0.55373 0.0
C994 C 0.43402 0.2341 0.5807 0.0
C995 C 0.43237 0.18183 0.65157 0.0
C996 C 0.43398 0.20089 0.62948 0.0
H997 H 0.42859 0.26289 0.44528 0.0
H998 H 0.43165 0.23626 0.48932 0.0
H999 H 0.40913 0.22973 0.62633 0.0
H1000 H 0.41933 0.15504 0.75129 0.0
H1001 H 0.42497 0.18816 0.71838 0.0
C1002 C 0.26331 0.42659 0.88106 0.0
C1003 C 0.28078 0.42837 0.85771 0.0
C1004 C 0.24772 0.42872 0.8583 0.0
C1005 C 0.23645 0.44631 0.74845 0.0
H1006 H 0.17833 0.40938 0.78312 0.0
C1007 C 0.16424 0.42829 0.6362 0.0
C1008 C 0.14776 0.42935 0.65784 0.0
C1009 C 0.18122 0.42986 0.66106 0.0
C1010 C 0.19451 0.41989 0.77324 0.0
H1011 H 0.2957 0.43408 0.79228 0.0
H1012 H 0.2685 0.43706 0.75277 0.0
H1013 H 0.20646 0.40939 0.82666 0.0
H1014 H 0.13629 0.43308 0.72247 0.0
H1015 H 0.16562 0.43545 0.76554 0.0
H1016 H 0.22423 0.45615 0.69394 0.0
C1017 C 0.26691 0.43462 0.78872 0.0
C1018 C 0.21069 0.42003 0.7984 0.0
C1019 C 0.28253 0.43275 0.81147 0.0
C1020 C 0.14873 0.43223 0.70466 0.0
C1021 C 0.16547 0.43347 0.72947 0.0
C1022 C 0.22024 0.44591 0.7229 0.0
C1023 C 0.24915 0.43244 0.81161 0.0
C1024 C 0.23192 0.43318 0.78629 0.0
C1025 C 0.18182 0.43216 0.70804 0.0
C1026 C 0.19911 0.43267 0.735 0.0
H1027 H 0.26154 0.42326 0.91671 0.0
H1028 H 0.23449 0.42731 0.87732 0.0
H1029 H 0.25256 0.45699 0.73847 0.0
H1030 H 0.16393 0.42607 0.6002 0.0
H1031 H 0.1936 0.42872 0.64372 0.0
C1032 C 0.84137 0.25463 0.0318 0.0
C1033 C 0.85192 0.27558 0.01669 0.0
C1034 C 0.82492 0.23886 0.00648 0.0
C1035 C 0.80371 0.22776 0.88999 0.0
H1036 H 0.75517 0.18125 0.94649 0.0
C1037 C 0.74165 0.15327 0.79276 0.0
C1038 C 0.72076 0.14379 0.80804 0.0
C1039 C 0.75772 0.17046 0.81607 0.0
C1040 C 0.7685 0.19424 0.93003 0.0
H1041 H 0.85281 0.29659 0.96438 0.0
H1042 H 0.82388 0.26936 0.92116 0.0
H1043 H 0.78216 0.20878 0.99288 0.0
H1044 H 0.70003 0.14576 0.85728 0.0
H1045 H 0.72767 0.17596 0.89655 0.0
H1046 H 0.78973 0.21341 0.82704 0.0
C1047 C 0.82863 0.26489 0.95175 0.0
C1048 C 0.78416 0.20991 0.95678 0.0
C1049 C 0.8451 0.28057 0.97683 0.0
C1050 C 0.71605 0.1526 0.84503 0.0
C1051 C 0.73195 0.1698 0.86786 0.0
C1052 C 0.78799 0.2121 0.86319 0.0
C1053 C 0.8186 0.24375 0.96565 0.0
C1054 C 0.80195 0.22693 0.93716 0.0
C1055 C 0.75309 0.17851 0.85476 0.0
C1056 C 0.77011 0.19519 0.88285 0.0
H1057 H 0.84637 0.25027 0.06218 0.0
H1058 H 0.81766 0.22274 0.01813 0.0
H1059 H 0.81736 0.24045 0.87367 0.0
H1060 H 0.74571 0.14667 0.76454 0.0
H1061 H 0.77384 0.17676 0.80503 0.0
C1062 C 0.55504 0.8347 0.15762 0.0
C1063 C 0.56938 0.84523 0.19257 0.0
C1064 C 0.55415 0.81717 0.13691 0.0
C1065 C 0.58804 0.79629 0.10737 0.0
H1066 H 0.53627 0.74503 0.07769 0.0
C1067 C 0.58447 0.73594 0.97641 0.0
C1068 C 0.57516 0.71519 0.9925 0.0
C1069 C 0.58258 0.75131 0.00071 0.0
C1070 C 0.55084 0.75928 0.0857 0.0
H1071 H 0.59365 0.84538 0.2342 0.0
H1072 H 0.59241 0.81479 0.1972 0.0
H1073 H 0.53503 0.77182 0.12477 0.0
H1074 H 0.55574 0.69399 0.04525 0.0
H1075 H 0.55188 0.7206 0.0867 0.0
H1076 H 0.60381 0.78394 0.06761 0.0
C1077 C 0.58172 0.82006 0.18625 0.0
C1078 C 0.55013 0.77457 0.11261 0.0
C1079 C 0.58228 0.83739 0.2077 0.0
C1080 C 0.56308 0.70987 0.03202 0.0
C1081 C 0.56084 0.72508 0.05574 0.0
C1082 C 0.58871 0.78116 0.07981 0.0
C1083 C 0.56791 0.81005 0.15006 0.0
C1084 C 0.56873 0.79322 0.12382 0.0
C1085 C 0.57097 0.74607 0.04096 0.0
C1086 C 0.57012 0.76249 0.06871 0.0
H1087 H 0.54498 0.84049 0.14517 0.0
H1088 H 0.54344 0.80987 0.10901 0.0
H1089 H 0.60259 0.81063 0.11501 0.0
H1090 H 0.59401 0.74051 0.94626 0.0
H1091 H 0.59041 0.76736 0.9884 0.0
C1092 C 0.72057 0.56566 0.30072 0.0
C1093 C 0.7202 0.56952 0.34688 0.0
C1094 C 0.73652 0.5629 0.28235 0.0
C1095 C 0.79119 0.57544 0.30388 0.0
H1096 H 0.78091 0.53933 0.20049 0.0
C1097 C 0.85752 0.56673 0.22155 0.0
C1098 C 0.85923 0.56883 0.17455 0.0
C1099 C 0.83966 0.56427 0.24378 0.0
C1100 C 0.78403 0.54956 0.22918 0.0
H1101 H 0.736 0.57277 0.41027 0.0
H1102 H 0.76386 0.56751 0.37824 0.0
H1103 H 0.7513 0.5388 0.23921 0.0
H1104 H 0.84309 0.56914 0.1139 0.0
H1105 H 0.81164 0.56465 0.15289 0.0
H1106 H 0.82393 0.58615 0.29378 0.0
C1107 C 0.7519 0.567 0.35612 0.0
C1108 C 0.76707 0.54929 0.25143 0.0
C1109 C 0.73586 0.56985 0.37459 0.0
C1110 C 0.84224 0.56754 0.1501 0.0
C1111 C 0.82423 0.56493 0.17244 0.0
C1112 C 0.80812 0.57556 0.28186 0.0
C1113 C 0.75259 0.56378 0.30958 0.0
C1114 C 0.77044 0.56248 0.28869 0.0
C1115 C 0.82295 0.56372 0.21963 0.0
C1116 C 0.80476 0.56281 0.24393 0.0
H1117 H 0.70879 0.56531 0.27825 0.0
H1118 H 0.73662 0.56084 0.24638 0.0
H1119 H 0.79449 0.58608 0.33186 0.0
H1120 H 0.87025 0.56753 0.24152 0.0
H1121 H 0.83903 0.56303 0.28005 0.0
C1122 C 0.15824 0.73364 0.5393 0.0
C1123 C 0.14316 0.71618 0.51488 0.0
C1124 C 0.17662 0.74912 0.5181 0.0
C1125 C 0.19471 0.77163 0.40609 0.0
H1126 H 0.25084 0.79827 0.45685 0.0
C1127 C 0.26598 0.83644 0.30894 0.0
C1128 C 0.2807 0.85367 0.33437 0.0
C1129 C 0.25046 0.8182 0.33035 0.0
C1130 C 0.23523 0.79115 0.44233 0.0
H1131 H 0.13619 0.70061 0.44996 0.0
H1132 H 0.16796 0.72741 0.41351 0.0
H1133 H 0.22161 0.76959 0.49743 0.0
H1134 H 0.29092 0.86506 0.40221 0.0
H1135 H 0.26381 0.83384 0.43909 0.0
H1136 H 0.20794 0.79347 0.35184 0.0
C1137 C 0.16552 0.72938 0.44865 0.0
C1138 C 0.21851 0.77469 0.46564 0.0
C1139 C 0.14734 0.71397 0.46972 0.0
C1140 C 0.27988 0.85207 0.38147 0.0
C1141 C 0.26435 0.83401 0.40276 0.0
C1142 C 0.21133 0.7882 0.38305 0.0
C1143 C 0.1801 0.7474 0.47217 0.0
C1144 C 0.19807 0.76478 0.44776 0.0
C1145 C 0.24926 0.81687 0.37762 0.0
C1146 C 0.23183 0.79828 0.4009 0.0
H1147 H 0.15545 0.73578 0.5741 0.0
H1148 H 0.18761 0.76288 0.53706 0.0
H1149 H 0.17906 0.76449 0.39173 0.0
H1150 H 0.26626 0.83716 0.27262 0.0
H1151 H 0.23931 0.80519 0.30981 0.0
loop_
_geom_bond_atom_site_label_1
_geom_bond_atom_site_label_2
_geom_bond_distance
_geom_bond_site_symmetry_2
_ccdc_geom_bond_type
Mn0 O5 2.095 . S
Mn0 O15 2.162 . S
Mn0 O16 2.297 . S
Mn0 O24 2.385 . S
Mn0 O25 2.209 . S
Mn0 O26 2.094 . S
Mn1 O6 2.121 . S
Mn1 N8 2.257 . S
Mn1 N17 2.282 . S
Mn1 O25 2.215 . S
Mn1 O27 2.117 . S
C2 O24 1.234 . S
C2 O25 1.283 . S
C3 O15 1.281 . S
C3 O16 1.236 . S
C4 O26 1.240 . S
C4 O27 1.264 . S
O5 Mn0 2.095 . S
O5 C14 1.250 . S
O6 Mn1 2.121 . S
O6 C14 1.258 . S
C7 N8 1.326 . S
C7 C11 1.460 . S
C7 H13 0.929 . S
N8 Mn1 2.257 . S
N8 C7 1.326 . S
N8 C12 1.362 . S
C9 C10 1.258 . S
C9 C12 1.431 . S
C9 C29 1.449 . S
C10 C9 1.258 . S
C10 C11 1.477 . S
C10 H30 0.931 . S
C11 C7 1.460 . S
C11 C10 1.477 . S
C11 H31 0.930 . S
C12 N8 1.362 . S
C12 C9 1.431 . S
C12 C22 1.476 . S
H13 C7 0.929 . S
C14 O5 1.250 . S
C14 O6 1.258 . S
O15 Mn0 2.162 . S
O15 C3 1.281 . S
O16 Mn0 2.297 . S
O16 C3 1.236 . S
N17 Mn1 2.282 . S
N17 C18 1.328 . S
N17 C22 1.318 . S
C18 N17 1.328 . S
C18 C19 1.457 . S
C18 H23 0.929 . S
C19 C18 1.457 . S
C19 C20 1.291 . S
C19 H32 0.931 . S
C20 C19 1.291 . S
C20 C21 1.373 . S
C20 H33 0.929 . S
C21 C20 1.373 . S
C21 C22 1.396 . S
C21 C28 1.403 . S
C22 C12 1.476 . S
C22 N17 1.318 . S
C22 C21 1.396 . S
H23 C18 0.929 . S
O24 Mn0 2.385 . S
O24 C2 1.234 . S
O25 Mn0 2.209 . S
O25 Mn1 2.215 . S
O25 C2 1.283 . S
O26 Mn0 2.094 . S
O26 C4 1.240 . S
O27 Mn1 2.117 . S
O27 C4 1.264 . S
C28 C21 1.403 . S
C28 C29 1.399 . S
C28 H34 0.929 . S
C29 C9 1.449 . S
C29 C28 1.399 . S
C29 H35 0.930 . S
H30 C10 0.931 . S
H31 C11 0.930 . S
H32 C19 0.931 . S
H33 C20 0.929 . S
H34 C28 0.929 . S
H35 C29 0.930 . S
Mn36 O41 2.095 . S
Mn36 O51 2.162 . S
Mn36 O52 2.297 . S
Mn36 O60 2.385 . S
Mn36 O61 2.209 . S
Mn36 O62 2.094 . S
Mn37 O42 2.121 . S
Mn37 N44 2.257 . S
Mn37 N53 2.282 . S
Mn37 O61 2.215 . S
Mn37 O63 2.117 . S
C38 O60 1.234 . S
C38 O61 1.283 . S
C39 O51 1.281 . S
C39 O52 1.236 . S
C40 O62 1.240 . S
C40 O63 1.264 . S
O41 Mn36 2.095 . S
O41 C50 1.250 . S
O42 Mn37 2.121 . S
O42 C50 1.258 . S
C43 N44 1.326 . S
C43 C47 1.460 . S
C43 H49 0.929 . S
N44 Mn37 2.257 . S
N44 C43 1.326 . S
N44 C48 1.362 . S
C45 C46 1.258 . S
C45 C48 1.431 . S
C45 C65 1.449 1_455 S
C46 C45 1.258 . S
C46 C47 1.477 . S
C46 H66 0.931 . S
C47 C43 1.460 . S
C47 C46 1.477 . S
C47 H67 0.930 . S
C48 N44 1.362 . S
C48 C45 1.431 . S
C48 C58 1.476 . S
H49 C43 0.929 . S
C50 O41 1.250 . S
C50 O42 1.258 . S
O51 Mn36 2.162 . S
O51 C39 1.281 . S
O52 Mn36 2.297 . S
O52 C39 1.236 . S
N53 Mn37 2.282 . S
N53 C54 1.328 . S
N53 C58 1.318 . S
C54 N53 1.328 . S
C54 C55 1.443 1_455 S
C54 H59 0.929 . S
C55 C54 1.443 1_655 S
C55 C56 1.310 . S
C55 H68 0.927 . S
C56 C55 1.310 . S
C56 C57 1.373 . S
C56 H69 0.929 . S
C57 C56 1.373 . S
C57 C58 1.396 1_655 S
C57 C64 1.403 . S
C58 C48 1.476 . S
C58 N53 1.318 . S
C58 C57 1.396 1_455 S
H59 C54 0.929 . S
O60 Mn36 2.385 . S
O60 C38 1.234 . S
O61 Mn36 2.209 . S
O61 Mn37 2.215 . S
O61 C38 1.283 . S
O62 Mn36 2.094 . S
O62 C40 1.240 . S
O63 Mn37 2.117 . S
O63 C40 1.264 . S
C64 C57 1.403 . S
C64 C65 1.399 . S
C64 H70 0.929 . S
C65 C45 1.449 1_655 S
C65 C64 1.399 . S
C65 H71 0.930 . S
H66 C46 0.931 . S
H67 C47 0.930 . S
H68 C55 0.927 . S
H69 C56 0.929 . S
H70 C64 0.929 . S
H71 C65 0.930 . S
Mn72 O77 2.095 . S
Mn72 O87 2.162 . S
Mn72 O88 2.297 . S
Mn72 O96 2.385 . S
Mn72 O97 2.209 . S
Mn72 O98 2.094 . S
Mn73 O78 2.121 . S
Mn73 N80 2.257 . S
Mn73 N89 2.282 . S
Mn73 O97 2.215 . S
Mn73 O99 2.117 . S
C74 O96 1.234 . S
C74 O97 1.283 . S
C75 O87 1.281 . S
C75 O88 1.236 . S
C76 O98 1.240 . S
C76 O99 1.264 . S
O77 Mn72 2.095 . S
O77 C86 1.250 . S
O78 Mn73 2.121 . S
O78 C86 1.258 . S
C79 N80 1.326 . S
C79 C83 1.460 . S
C79 H85 0.929 . S
N80 Mn73 2.257 . S
N80 C79 1.326 . S
N80 C84 1.362 . S
C81 C82 1.258 . S
C81 C84 1.431 . S
C81 C101 1.449 1_545 S
C82 C81 1.258 . S
C82 C83 1.477 . S
C82 H102 0.931 . S
C83 C79 1.460 . S
C83 C82 1.477 . S
C83 H103 0.930 . S
C84 N80 1.362 . S
C84 C81 1.431 . S
C84 C94 1.476 . S
H85 C79 0.929 . S
C86 O77 1.250 . S
C86 O78 1.258 . S
O87 Mn72 2.162 . S
O87 C75 1.281 . S
O88 Mn72 2.297 . S
O88 C75 1.236 . S
N89 Mn73 2.282 . S
N89 C90 1.328 . S
N89 C94 1.318 . S
C90 N89 1.328 . S
C90 C91 1.429 1_545 S
C90 H95 0.929 . S
C91 C90 1.429 1_565 S
C91 C92 1.298 . S
C91 H104 0.952 . S
C92 C91 1.298 . S
C92 C93 1.373 . S
C92 H105 0.929 . S
C93 C92 1.373 . S
C93 C94 1.396 1_565 S
C93 C100 1.403 . S
C94 C84 1.476 . S
C94 N89 1.318 . S
C94 C93 1.396 1_545 S
H95 C90 0.929 . S
O96 Mn72 2.385 . S
O96 C74 1.234 . S
O97 Mn72 2.209 . S
O97 Mn73 2.215 . S
O97 C74 1.283 . S
O98 Mn72 2.094 . S
O98 C76 1.240 . S
O99 Mn73 2.117 . S
O99 C76 1.264 . S
C100 C93 1.403 . S
C100 C101 1.399 . S
C100 H106 0.929 . S
C101 C81 1.449 1_565 S
C101 C100 1.399 . S
C101 H107 0.930 . S
H102 C82 0.931 . S
H103 C83 0.930 . S
H104 C91 0.952 . S
H105 C92 0.929 . S
H106 C100 0.929 . S
H107 C101 0.930 . S
Mn108 O113 2.095 . S
Mn108 O123 2.162 . S
Mn108 O124 2.297 . S
Mn108 O132 2.385 . S
Mn108 O133 2.209 . S
Mn108 O134 2.094 . S
Mn109 O114 2.121 . S
Mn109 N116 2.257 . S
Mn109 N125 2.282 . S
Mn109 O133 2.215 . S
Mn109 O135 2.117 . S
C110 O132 1.234 . S
C110 O133 1.283 . S
C111 O123 1.281 . S
C111 O124 1.236 . S
C112 O134 1.240 . S
C112 O135 1.264 . S
O113 Mn108 2.095 . S
O113 C122 1.250 . S
O114 Mn109 2.121 . S
O114 C122 1.258 . S
C115 N116 1.326 1_554 S
C115 C119 1.460 . S
C115 H121 0.929 1_554 S
N116 Mn109 2.257 . S
N116 C115 1.326 1_556 S
N116 C120 1.362 1_556 S
C117 C118 1.258 . S
C117 C120 1.431 . S
C117 C137 1.449 . S
C118 C117 1.258 . S
C118 C119 1.477 . S
C118 H138 0.931 . S
C119 C115 1.460 . S
C119 C118 1.477 . S
C119 H139 0.930 . S
C120 N116 1.362 1_554 S
C120 C117 1.431 . S
C120 C130 1.476 1_554 S
H121 C115 0.929 1_556 S
C122 O113 1.250 . S
C122 O114 1.258 . S
O123 Mn108 2.162 . S
O123 C111 1.281 . S
O124 Mn108 2.297 . S
O124 C111 1.236 . S
N125 Mn109 2.282 . S
N125 C126 1.328 . S
N125 C130 1.318 . S
C126 N125 1.328 . S
C126 C127 1.457 . S
C126 H131 0.929 . S
C127 C126 1.457 . S
C127 C128 1.291 . S
C127 H140 0.931 . S
C128 C127 1.291 . S
C128 C129 1.364 1_556 S
C128 H141 0.929 . S
C129 C128 1.364 1_554 S
C129 C130 1.388 1_554 S
C129 C136 1.420 . S
C130 C120 1.476 1_556 S
C130 N125 1.318 . S
C130 C129 1.388 1_556 S
H131 C126 0.929 . S
O132 Mn108 2.385 . S
O132 C110 1.234 . S
O133 Mn108 2.209 . S
O133 Mn109 2.215 . S
O133 C110 1.283 . S
O134 Mn108 2.094 . S
O134 C112 1.240 . S
O135 Mn109 2.117 . S
O135 C112 1.264 . S
C136 C129 1.420 . S
C136 C137 1.399 . S
C136 H142 0.929 . S
C137 C117 1.449 . S
C137 C136 1.399 . S
C137 H143 0.930 . S
H138 C118 0.931 . S
H139 C119 0.930 . S
H140 C127 0.931 . S
H141 C128 0.929 . S
H142 C136 0.929 . S
H143 C137 0.930 . S
Mn144 O149 2.095 . S
Mn144 O159 2.162 . S
Mn144 O160 2.297 . S
Mn144 O168 2.385 . S
Mn144 O169 2.209 . S
Mn144 O170 2.094 . S
Mn145 O150 2.121 . S
Mn145 N152 2.257 . S
Mn145 N161 2.282 . S
Mn145 O169 2.215 . S
Mn145 O171 2.117 . S
C146 O168 1.234 . S
C146 O169 1.283 . S
C147 O159 1.281 . S
C147 O160 1.236 . S
C148 O170 1.240 . S
C148 O171 1.264 . S
O149 Mn144 2.095 . S
O149 C158 1.250 . S
O150 Mn145 2.121 . S
O150 C158 1.258 . S
C151 N152 1.326 . S
C151 C155 1.460 . S
C151 H157 0.929 . S
N152 Mn145 2.257 . S
N152 C151 1.326 . S
N152 C156 1.362 . S
C153 C154 1.258 . S
C153 C156 1.431 . S
C153 C173 1.449 1_655 S
C154 C153 1.258 . S
C154 C155 1.477 . S
C154 H174 0.931 . S
C155 C151 1.460 . S
C155 C154 1.477 . S
C155 H175 0.930 . S
C156 N152 1.362 . S
C156 C153 1.431 . S
C156 C166 1.476 . S
H157 C151 0.929 . S
C158 O149 1.250 . S
C158 O150 1.258 . S
O159 Mn144 2.162 . S
O159 C147 1.281 . S
O160 Mn144 2.297 . S
O160 C147 1.236 . S
N161 Mn145 2.282 . S
N161 C162 1.328 . S
N161 C166 1.318 . S
C162 N161 1.328 . S
C162 C163 1.442 1_655 S
C162 H167 0.929 . S
C163 C162 1.442 1_455 S
C163 C164 1.310 . S
C163 H176 0.927 . S
C164 C163 1.310 . S
C164 C165 1.373 . S
C164 H177 0.929 . S
C165 C164 1.373 . S
C165 C166 1.396 1_455 S
C165 C172 1.403 . S
C166 C156 1.476 . S
C166 N161 1.318 . S
C166 C165 1.396 1_655 S
H167 C162 0.929 . S
O168 Mn144 2.385 . S
O168 C146 1.234 . S
O169 Mn144 2.209 . S
O169 Mn145 2.215 . S
O169 C146 1.283 . S
O170 Mn144 2.094 . S
O170 C148 1.240 . S
O171 Mn145 2.117 . S
O171 C148 1.264 . S
C172 C165 1.403 . S
C172 C173 1.399 . S
C172 H178 0.929 . S
C173 C153 1.449 1_455 S
C173 C172 1.399 . S
C173 H179 0.930 . S
H174 C154 0.931 . S
H175 C155 0.930 . S
H176 C163 0.927 . S
H177 C164 0.929 . S
H178 C172 0.929 . S
H179 C173 0.930 . S
Mn180 O185 2.095 . S
Mn180 O195 2.162 . S
Mn180 O196 2.297 . S
Mn180 O204 2.385 . S
Mn180 O205 2.209 . S
Mn180 O206 2.094 . S
Mn181 O186 2.121 . S
Mn181 N188 2.257 . S
Mn181 N197 2.282 . S
Mn181 O205 2.215 . S
Mn181 O207 2.117 . S
C182 O204 1.234 . S
C182 O205 1.283 . S
C183 O195 1.281 . S
C183 O196 1.236 . S
C184 O206 1.240 . S
C184 O207 1.264 . S
O185 Mn180 2.095 . S
O185 C194 1.250 . S
O186 Mn181 2.121 . S
O186 C194 1.258 . S
C187 N188 1.326 . S
C187 C191 1.460 . S
C187 H193 0.929 . S
N188 Mn181 2.257 . S
N188 C187 1.326 . S
N188 C192 1.362 . S
C189 C190 1.258 . S
C189 C192 1.431 . S
C189 C209 1.449 1_565 S
C190 C189 1.258 . S
C190 C191 1.477 . S
C190 H210 0.931 . S
C191 C187 1.460 . S
C191 C190 1.477 . S
C191 H211 0.930 . S
C192 N188 1.362 . S
C192 C189 1.431 . S
C192 C202 1.476 . S
H193 C187 0.929 . S
C194 O185 1.250 . S
C194 O186 1.258 . S
O195 Mn180 2.162 . S
O195 C183 1.281 . S
O196 Mn180 2.297 . S
O196 C183 1.236 . S
N197 Mn181 2.282 . S
N197 C198 1.328 . S
N197 C202 1.318 . S
C198 N197 1.328 . S
C198 C199 1.430 1_565 S
C198 H203 0.929 . S
C199 C198 1.430 1_545 S
C199 C200 1.298 . S
C199 H212 0.952 . S
C200 C199 1.298 . S
C200 C201 1.373 . S
C200 H213 0.929 . S
C201 C200 1.373 . S
C201 C202 1.396 1_545 S
C201 C208 1.403 . S
C202 C192 1.476 . S
C202 N197 1.318 . S
C202 C201 1.396 1_565 S
H203 C198 0.929 . S
O204 Mn180 2.385 . S
O204 C182 1.234 . S
O205 Mn180 2.209 . S
O205 Mn181 2.215 . S
O205 C182 1.283 . S
O206 Mn180 2.094 . S
O206 C184 1.240 . S
O207 Mn181 2.117 . S
O207 C184 1.264 . S
C208 C201 1.403 . S
C208 C209 1.399 . S
C208 H214 0.929 . S
C209 C189 1.449 1_545 S
C209 C208 1.399 . S
C209 H215 0.930 . S
H210 C190 0.931 . S
H211 C191 0.930 . S
H212 C199 0.952 . S
H213 C200 0.929 . S
H214 C208 0.929 . S
H215 C209 0.930 . S
Mn216 O221 2.095 . S
Mn216 O231 2.162 . S
Mn216 O232 2.297 . S
Mn216 O240 2.385 . S
Mn216 O241 2.209 . S
Mn216 O242 2.094 . S
Mn217 O222 2.121 . S
Mn217 N224 2.257 . S
Mn217 N233 2.282 . S
Mn217 O241 2.215 . S
Mn217 O243 2.117 . S
C218 O240 1.234 . S
C218 O241 1.283 . S
C219 O231 1.281 . S
C219 O232 1.236 . S
C220 O242 1.240 . S
C220 O243 1.264 . S
O221 Mn216 2.095 . S
O221 C230 1.250 . S
O222 Mn217 2.121 . S
O222 C230 1.258 . S
C223 N224 1.326 . S
C223 C227 1.460 . S
C223 H229 0.929 . S
N224 Mn217 2.257 . S
N224 C223 1.326 . S
N224 C228 1.362 . S
C225 C226 1.258 . S
C225 C228 1.431 . S
C225 C245 1.449 . S
C226 C225 1.258 . S
C226 C227 1.477 . S
C226 H246 0.931 . S
C227 C223 1.460 . S
C227 C226 1.477 . S
C227 H247 0.930 . S
C228 N224 1.362 . S
C228 C225 1.431 . S
C228 C238 1.476 . S
H229 C223 0.929 . S
C230 O221 1.250 . S
C230 O222 1.258 . S
O231 Mn216 2.162 . S
O231 C219 1.281 . S
O232 Mn216 2.297 . S
O232 C219 1.236 . S
N233 Mn217 2.282 . S
N233 C234 1.328 . S
N233 C238 1.318 . S
C234 N233 1.328 . S
C234 C235 1.457 . S
C234 H239 0.929 . S
C235 C234 1.457 . S
C235 C236 1.291 . S
C235 H248 0.931 . S
C236 C235 1.291 . S
C236 C237 1.373 . S
C236 H249 0.929 . S
C237 C236 1.373 . S
C237 C238 1.396 . S
C237 C244 1.403 . S
C238 C228 1.476 . S
C238 N233 1.318 . S
C238 C237 1.396 . S
H239 C234 0.929 . S
O240 Mn216 2.385 . S
O240 C218 1.234 . S
O241 Mn216 2.209 . S
O241 Mn217 2.215 . S
O241 C218 1.283 . S
O242 Mn216 2.094 . S
O242 C220 1.240 . S
O243 Mn217 2.117 . S
O243 C220 1.264 . S
C244 C237 1.403 . S
C244 C245 1.399 . S
C244 H250 0.929 . S
C245 C225 1.449 . S
C245 C244 1.399 . S
C245 H251 0.930 . S
H246 C226 0.931 . S
H247 C227 0.930 . S
H248 C235 0.931 . S
H249 C236 0.929 . S
H250 C244 0.929 . S
H251 C245 0.930 . S
Mn252 O257 2.095 . S
Mn252 O267 2.162 . S
Mn252 O268 2.297 . S
Mn252 O276 2.385 . S
Mn252 O277 2.209 . S
Mn252 O278 2.094 . S
Mn253 O258 2.121 . S
Mn253 N260 2.257 . S
Mn253 N269 2.282 . S
Mn253 O277 2.215 . S
Mn253 O279 2.117 . S
C254 O276 1.234 . S
C254 O277 1.283 . S
C255 O267 1.281 . S
C255 O268 1.236 . S
C256 O278 1.240 . S
C256 O279 1.264 . S
O257 Mn252 2.095 . S
O257 C266 1.250 . S
O258 Mn253 2.121 . S
O258 C266 1.258 . S
C259 N260 1.326 . S
C259 C263 1.460 . S
C259 H265 0.929 . S
N260 Mn253 2.257 . S
N260 C259 1.326 . S
N260 C264 1.362 . S
C261 C262 1.258 . S
C261 C264 1.431 . S
C261 C281 1.449 1_455 S
C262 C261 1.258 . S
C262 C263 1.477 . S
C262 H282 0.931 . S
C263 C259 1.460 . S
C263 C262 1.477 . S
C263 H283 0.930 . S
C264 N260 1.362 . S
C264 C261 1.431 . S
C264 C274 1.476 . S
H265 C259 0.929 . S
C266 O257 1.250 . S
C266 O258 1.258 . S
O267 Mn252 2.162 . S
O267 C255 1.281 . S
O268 Mn252 2.297 . S
O268 C255 1.236 . S
N269 Mn253 2.282 . S
N269 C270 1.328 . S
N269 C274 1.318 . S
C270 N269 1.328 . S
C270 C271 1.430 1_455 S
C270 H275 0.929 . S
C271 C270 1.430 1_655 S
C271 C272 1.298 . S
C271 H284 0.952 . S
C272 C271 1.298 . S
C272 C273 1.373 . S
C272 H285 0.929 . S
C273 C272 1.373 . S
C273 C274 1.396 1_655 S
C273 C280 1.403 . S
C274 C264 1.476 . S
C274 N269 1.318 . S
C274 C273 1.396 1_455 S
H275 C270 0.929 . S
O276 Mn252 2.385 . S
O276 C254 1.234 . S
O277 Mn252 2.209 . S
O277 Mn253 2.215 . S
O277 C254 1.283 . S
O278 Mn252 2.094 . S
O278 C256 1.240 . S
O279 Mn253 2.117 . S
O279 C256 1.264 . S
C280 C273 1.403 . S
C280 C281 1.399 . S
C280 H286 0.929 . S
C281 C261 1.449 1_655 S
C281 C280 1.399 . S
C281 H287 0.930 . S
H282 C262 0.931 . S
H283 C263 0.930 . S
H284 C271 0.952 . S
H285 C272 0.929 . S
H286 C280 0.929 . S
H287 C281 0.930 . S
Mn288 O293 2.095 . S
Mn288 O303 2.162 . S
Mn288 O304 2.297 . S
Mn288 O312 2.385 . S
Mn288 O313 2.209 . S
Mn288 O314 2.094 . S
Mn289 O294 2.121 . S
Mn289 N296 2.257 . S
Mn289 N305 2.282 . S
Mn289 O313 2.215 . S
Mn289 O315 2.117 . S
C290 O312 1.234 . S
C290 O313 1.283 . S
C291 O303 1.281 . S
C291 O304 1.236 . S
C292 O314 1.240 . S
C292 O315 1.264 . S
O293 Mn288 2.095 . S
O293 C302 1.250 . S
O294 Mn289 2.121 . S
O294 C302 1.258 . S
C295 N296 1.326 . S
C295 C299 1.460 . S
C295 H301 0.929 . S
N296 Mn289 2.257 . S
N296 C295 1.326 . S
N296 C300 1.362 . S
C297 C298 1.258 . S
C297 C300 1.431 . S
C297 C317 1.449 1_545 S
C298 C297 1.258 . S
C298 C299 1.477 . S
C298 H318 0.931 . S
C299 C295 1.460 . S
C299 C298 1.477 . S
C299 H319 0.930 . S
C300 N296 1.362 . S
C300 C297 1.431 . S
C300 C310 1.476 . S
H301 C295 0.929 . S
C302 O293 1.250 . S
C302 O294 1.258 . S
O303 Mn288 2.162 . S
O303 C291 1.281 . S
O304 Mn288 2.297 . S
O304 C291 1.236 . S
N305 Mn289 2.282 . S
N305 C306 1.328 . S
N305 C310 1.318 . S
C306 N305 1.328 . S
C306 C307 1.442 1_545 S
C306 H311 0.929 . S
C307 C306 1.442 1_565 S
C307 C308 1.310 . S
C307 H320 0.927 . S
C308 C307 1.310 . S
C308 C309 1.373 . S
C308 H321 0.929 . S
C309 C308 1.373 . S
C309 C310 1.396 1_565 S
C309 C316 1.403 . S
C310 C300 1.476 . S
C310 N305 1.318 . S
C310 C309 1.396 1_545 S
H311 C306 0.929 . S
O312 Mn288 2.385 . S
O312 C290 1.234 . S
O313 Mn288 2.209 . S
O313 Mn289 2.215 . S
O313 C290 1.283 . S
O314 Mn288 2.094 . S
O314 C292 1.240 . S
O315 Mn289 2.117 . S
O315 C292 1.264 . S
C316 C309 1.403 . S
C316 C317 1.399 . S
C316 H322 0.929 . S
C317 C297 1.449 1_565 S
C317 C316 1.399 . S
C317 H323 0.930 . S
H318 C298 0.931 . S
H319 C299 0.930 . S
H320 C307 0.927 . S
H321 C308 0.929 . S
H322 C316 0.929 . S
H323 C317 0.930 . S
Mn324 O329 2.095 . S
Mn324 O339 2.162 . S
Mn324 O340 2.297 . S
Mn324 O348 2.385 . S
Mn324 O349 2.209 . S
Mn324 O350 2.094 . S
Mn325 O330 2.121 . S
Mn325 N332 2.257 . S
Mn325 N341 2.282 . S
Mn325 O349 2.215 . S
Mn325 O351 2.117 . S
C326 O348 1.234 . S
C326 O349 1.283 . S
C327 O339 1.281 . S
C327 O340 1.236 . S
C328 O350 1.240 . S
C328 O351 1.264 . S
O329 Mn324 2.095 . S
O329 C338 1.250 . S
O330 Mn325 2.121 . S
O330 C338 1.258 . S
C331 N332 1.326 . S
C331 C335 1.460 . S
C331 H337 0.929 . S
N332 Mn325 2.257 . S
N332 C331 1.326 . S
N332 C336 1.362 . S
C333 C334 1.258 . S
C333 C336 1.431 . S
C333 C353 1.449 . S
C334 C333 1.258 . S
C334 C335 1.477 . S
C334 H354 0.931 . S
C335 C331 1.460 . S
C335 C334 1.477 . S
C335 H355 0.930 . S
C336 N332 1.362 . S
C336 C333 1.431 . S
C336 C346 1.476 . S
H337 C331 0.929 . S
C338 O329 1.250 . S
C338 O330 1.258 . S
O339 Mn324 2.162 . S
O339 C327 1.281 . S
O340 Mn324 2.297 . S
O340 C327 1.236 . S
N341 Mn325 2.282 . S
N341 C342 1.328 . S
N341 C346 1.318 . S
C342 N341 1.328 . S
C342 C343 1.457 . S
C342 H347 0.929 . S
C343 C342 1.457 . S
C343 C344 1.291 . S
C343 H356 0.931 . S
C344 C343 1.291 . S
C344 C345 1.373 . S
C344 H357 0.929 . S
C345 C344 1.373 . S
C345 C346 1.396 . S
C345 C352 1.403 . S
C346 C336 1.476 . S
C346 N341 1.318 . S
C346 C345 1.396 . S
H347 C342 0.929 . S
O348 Mn324 2.385 . S
O348 C326 1.234 . S
O349 Mn324 2.209 . S
O349 Mn325 2.215 . S
O349 C326 1.283 . S
O350 Mn324 2.094 . S
O350 C328 1.240 . S
O351 Mn325 2.117 . S
O351 C328 1.264 . S
C352 C345 1.403 . S
C352 C353 1.399 . S
C352 H358 0.929 . S
C353 C333 1.449 . S
C353 C352 1.399 . S
C353 H359 0.930 . S
H354 C334 0.931 . S
H355 C335 0.930 . S
H356 C343 0.931 . S
H357 C344 0.929 . S
H358 C352 0.929 . S
H359 C353 0.930 . S
Mn360 O365 2.095 . S
Mn360 O375 2.162 . S
Mn360 O376 2.297 . S
Mn360 O384 2.385 . S
Mn360 O385 2.209 . S
Mn360 O386 2.094 . S
Mn361 O366 2.121 . S
Mn361 N368 2.257 . S
Mn361 N377 2.282 . S
Mn361 O385 2.215 . S
Mn361 O387 2.117 . S
C362 O384 1.234 . S
C362 O385 1.283 . S
C363 O375 1.281 . S
C363 O376 1.236 . S
C364 O386 1.240 . S
C364 O387 1.264 . S
O365 Mn360 2.095 . S
O365 C374 1.250 . S
O366 Mn361 2.121 . S
O366 C374 1.258 . S
C367 N368 1.326 1_556 S
C367 C371 1.460 . S
C367 H373 0.929 1_556 S
N368 Mn361 2.257 . S
N368 C367 1.326 1_554 S
N368 C372 1.362 1_554 S
C369 C370 1.258 . S
C369 C372 1.431 . S
C369 C389 1.449 1_655 S
C370 C369 1.258 . S
C370 C371 1.477 . S
C370 H390 0.931 . S
C371 C367 1.460 . S
C371 C370 1.477 . S
C371 H391 0.930 . S
C372 N368 1.362 1_556 S
C372 C369 1.431 . S
C372 C382 1.476 1_556 S
H373 C367 0.929 1_554 S
C374 O365 1.250 . S
C374 O366 1.258 . S
O375 Mn360 2.162 . S
O375 C363 1.281 . S
O376 Mn360 2.297 . S
O376 C363 1.236 . S
N377 Mn361 2.282 . S
N377 C378 1.328 . S
N377 C382 1.318 . S
C378 N377 1.328 . S
C378 C379 1.429 1_655 S
C378 H383 0.929 . S
C379 C378 1.429 1_455 S
C379 C380 1.298 . S
C379 H392 0.952 . S
C380 C379 1.298 . S
C380 C381 1.364 1_554 S
C380 H393 0.929 . S
C381 C380 1.364 1_556 S
C381 C382 1.388 1_456 S
C381 C388 1.420 . S
C382 C372 1.476 1_554 S
C382 N377 1.318 . S
C382 C381 1.388 1_654 S
H383 C378 0.929 . S
O384 Mn360 2.385 . S
O384 C362 1.234 . S
O385 Mn360 2.209 . S
O385 Mn361 2.215 . S
O385 C362 1.283 . S
O386 Mn360 2.094 . S
O386 C364 1.240 . S
O387 Mn361 2.117 . S
O387 C364 1.264 . S
C388 C381 1.420 . S
C388 C389 1.399 . S
C388 H394 0.929 . S
C389 C369 1.449 1_455 S
C389 C388 1.399 . S
C389 H395 0.930 . S
H390 C370 0.931 . S
H391 C371 0.930 . S
H392 C379 0.952 . S
H393 C380 0.929 . S
H394 C388 0.929 . S
H395 C389 0.930 . S
Mn396 O401 2.095 . S
Mn396 O411 2.162 . S
Mn396 O412 2.297 . S
Mn396 O420 2.385 . S
Mn396 O421 2.209 . S
Mn396 O422 2.094 . S
Mn397 O402 2.121 . S
Mn397 N404 2.257 . S
Mn397 N413 2.282 . S
Mn397 O421 2.215 . S
Mn397 O423 2.117 . S
C398 O420 1.234 . S
C398 O421 1.283 . S
C399 O411 1.281 . S
C399 O412 1.236 . S
C400 O422 1.240 . S
C400 O423 1.264 . S
O401 Mn396 2.095 . S
O401 C410 1.250 . S
O402 Mn397 2.121 . S
O402 C410 1.258 . S
C403 N404 1.326 . S
C403 C407 1.460 . S
C403 H409 0.929 . S
N404 Mn397 2.257 . S
N404 C403 1.326 . S
N404 C408 1.362 . S
C405 C406 1.258 . S
C405 C408 1.431 . S
C405 C425 1.449 1_565 S
C406 C405 1.258 . S
C406 C407 1.477 . S
C406 H426 0.931 . S
C407 C403 1.460 . S
C407 C406 1.477 . S
C407 H427 0.930 . S
C408 N404 1.362 . S
C408 C405 1.431 . S
C408 C418 1.476 . S
H409 C403 0.929 . S
C410 O401 1.250 . S
C410 O402 1.258 . S
O411 Mn396 2.162 . S
O411 C399 1.281 . S
O412 Mn396 2.297 . S
O412 C399 1.236 . S
N413 Mn397 2.282 . S
N413 C414 1.328 . S
N413 C418 1.318 . S
C414 N413 1.328 . S
C414 C415 1.443 1_565 S
C414 H419 0.929 . S
C415 C414 1.443 1_545 S
C415 C416 1.310 . S
C415 H428 0.927 . S
C416 C415 1.310 . S
C416 C417 1.373 . S
C416 H429 0.929 . S
C417 C416 1.373 . S
C417 C418 1.396 1_545 S
C417 C424 1.403 . S
C418 C408 1.476 . S
C418 N413 1.318 . S
C418 C417 1.396 1_565 S
H419 C414 0.929 . S
O420 Mn396 2.385 . S
O420 C398 1.234 . S
O421 Mn396 2.209 . S
O421 Mn397 2.215 . S
O421 C398 1.283 . S
O422 Mn396 2.094 . S
O422 C400 1.240 . S
O423 Mn397 2.117 . S
O423 C400 1.264 . S
C424 C417 1.403 . S
C424 C425 1.399 . S
C424 H430 0.929 . S
C425 C405 1.449 1_545 S
C425 C424 1.399 . S
C425 H431 0.930 . S
H426 C406 0.931 . S
H427 C407 0.930 . S
H428 C415 0.927 . S
H429 C416 0.929 . S
H430 C424 0.929 . S
H431 C425 0.930 . S
C432 C433 1.349 . S
C432 C434 1.327 . S
C432 H457 0.950 . S
C433 C432 1.349 . S
C433 C449 1.349 . S
C434 C432 1.327 . S
C434 C453 1.429 . S
C434 H458 0.950 . S
C435 C452 1.574 . S
C435 C454 1.368 . S
C435 H459 0.949 . S
H436 C440 0.949 . S
C437 C438 1.349 . S
C437 C439 1.327 . S
C437 H460 0.950 . S
C438 C437 1.349 . S
C438 C450 1.349 . S
C439 C437 1.327 . S
C439 C455 1.429 . S
C439 H461 0.950 . S
C440 H436 0.949 . S
C440 C448 1.574 . S
C440 C456 1.368 . S
H441 C449 0.950 1_556 S
H442 C447 0.950 . S
H443 C448 0.949 . S
H444 C450 0.950 . S
H445 C451 0.950 . S
H446 C452 0.949 . S
C447 H442 0.950 . S
C447 C449 1.327 . S
C447 C453 1.429 . S
C448 C440 1.574 . S
C448 H443 0.949 . S
C448 C454 1.368 . S
C449 C433 1.349 . S
C449 H441 0.950 1_554 S
C449 C447 1.327 . S
C450 C438 1.349 . S
C450 H444 0.950 . S
C450 C451 1.327 . S
C451 H445 0.950 . S
C451 C450 1.327 . S
C451 C455 1.429 . S
C452 C435 1.574 . S
C452 H446 0.949 . S
C452 C456 1.368 . S
C453 C434 1.429 . S
C453 C447 1.429 . S
C453 C454 1.523 . S
C454 C435 1.368 . S
C454 C448 1.368 . S
C454 C453 1.523 . S
C455 C439 1.429 . S
C455 C451 1.429 . S
C455 C456 1.523 . S
C456 C440 1.368 . S
C456 C452 1.368 . S
C456 C455 1.523 . S
H457 C432 0.950 . S
H458 C434 0.950 . S
H459 C435 0.949 . S
H460 C437 0.950 . S
H461 C439 0.950 . S
C462 C463 1.349 . S
C462 C464 1.327 . S
C462 H487 0.950 . S
C463 C462 1.349 . S
C463 C479 1.349 . S
C464 C462 1.327 . S
C464 C483 1.429 . S
C464 H488 0.950 . S
C465 C482 1.574 . S
C465 C484 1.368 1_655 S
C465 H489 0.949 . S
H466 C470 0.949 . S
C467 C468 1.349 . S
C467 C469 1.327 . S
C467 H490 0.950 . S
C468 C467 1.349 . S
C468 C480 1.349 . S
C469 C467 1.327 . S
C469 C485 1.429 . S
C469 H491 0.950 . S
C470 H466 0.949 . S
C470 C478 1.574 . S
C470 C486 1.368 1_455 S
H471 C479 0.950 . S
H472 C477 0.950 . S
H473 C478 0.949 . S
H474 C480 0.950 . S
H475 C481 0.950 . S
H476 C482 0.949 . S
C477 H472 0.950 . S
C477 C479 1.327 . S
C477 C483 1.429 . S
C478 C470 1.574 . S
C478 H473 0.949 . S
C478 C484 1.368 . S
C479 C463 1.349 . S
C479 H471 0.950 . S
C479 C477 1.327 . S
C480 C468 1.349 . S
C480 H474 0.950 . S
C480 C481 1.327 . S
C481 H475 0.950 . S
C481 C480 1.327 . S
C481 C485 1.429 . S
C482 C465 1.574 . S
C482 H476 0.949 . S
C482 C486 1.368 . S
C483 C464 1.429 . S
C483 C477 1.429 . S
C483 C484 1.523 . S
C484 C465 1.368 1_455 S
C484 C478 1.368 . S
C484 C483 1.523 . S
C485 C469 1.429 . S
C485 C481 1.429 . S
C485 C486 1.523 . S
C486 C470 1.368 1_655 S
C486 C482 1.368 . S
C486 C485 1.523 . S
H487 C462 0.950 . S
H488 C464 0.950 . S
H489 C465 0.949 . S
H490 C467 0.950 . S
H491 C469 0.950 . S
C492 C493 1.349 . S
C492 C494 1.327 . S
C492 H517 0.950 . S
C493 C492 1.349 . S
C493 C509 1.349 . S
C494 C492 1.327 . S
C494 C513 1.429 . S
C494 H518 0.950 . S
C495 C512 1.574 1_565 S
C495 C514 1.368 . S
C495 H519 0.949 . S
H496 C500 0.949 . S
C497 C498 1.349 . S
C497 C499 1.327 . S
C497 H520 0.950 . S
C498 C497 1.349 . S
C498 C510 1.349 . S
C499 C497 1.327 . S
C499 C515 1.429 . S
C499 H521 0.950 . S
C500 H496 0.949 . S
C500 C508 1.574 1_545 S
C500 C516 1.368 . S
H501 C509 0.950 . S
H502 C507 0.950 . S
H503 C508 0.949 . S
H504 C510 0.950 . S
H505 C511 0.950 . S
H506 C512 0.949 . S
C507 H502 0.950 . S
C507 C509 1.327 . S
C507 C513 1.429 . S
C508 C500 1.574 1_565 S
C508 H503 0.949 . S
C508 C514 1.368 . S
C509 C493 1.349 . S
C509 H501 0.950 . S
C509 C507 1.327 . S
C510 C498 1.349 . S
C510 H504 0.950 . S
C510 C511 1.327 . S
C511 H505 0.950 . S
C511 C510 1.327 . S
C511 C515 1.429 . S
C512 C495 1.574 1_545 S
C512 H506 0.949 . S
C512 C516 1.368 . S
C513 C494 1.429 . S
C513 C507 1.429 . S
C513 C514 1.523 . S
C514 C495 1.368 . S
C514 C508 1.368 . S
C514 C513 1.523 . S
C515 C499 1.429 . S
C515 C511 1.429 . S
C515 C516 1.523 . S
C516 C500 1.368 . S
C516 C512 1.368 . S
C516 C515 1.523 . S
H517 C492 0.950 . S
H518 C494 0.950 . S
H519 C495 0.949 . S
H520 C497 0.950 . S
H521 C499 0.950 . S
C522 C523 1.349 . S
C522 C524 1.327 . S
C522 H547 0.950 . S
C523 C522 1.349 . S
C523 C539 1.349 . S
C524 C522 1.327 . S
C524 C543 1.429 . S
C524 H548 0.950 . S
C525 C542 1.574 . S
C525 C544 1.368 . S
C525 H549 0.949 . S
H526 C530 0.949 . S
C527 C528 1.349 . S
C527 C529 1.327 . S
C527 H550 0.950 . S
C528 C527 1.349 . S
C528 C540 1.349 . S
C529 C527 1.327 . S
C529 C545 1.429 . S
C529 H551 0.950 . S
C530 H526 0.949 . S
C530 C538 1.574 . S
C530 C546 1.368 . S
H531 C539 0.950 . S
H532 C537 0.950 . S
H533 C538 0.949 . S
H534 C540 0.950 . S
H535 C541 0.950 . S
H536 C542 0.949 . S
C537 H532 0.950 . S
C537 C539 1.327 . S
C537 C543 1.429 . S
C538 C530 1.574 . S
C538 H533 0.949 . S
C538 C544 1.368 . S
C539 C523 1.349 . S
C539 H531 0.950 . S
C539 C537 1.327 . S
C540 C528 1.349 . S
C540 H534 0.950 . S
C540 C541 1.327 . S
C541 H535 0.950 . S
C541 C540 1.327 . S
C541 C545 1.429 . S
C542 C525 1.574 . S
C542 H536 0.949 . S
C542 C546 1.368 . S
C543 C524 1.429 . S
C543 C537 1.429 . S
C543 C544 1.523 . S
C544 C525 1.368 . S
C544 C538 1.368 . S
C544 C543 1.523 . S
C545 C529 1.429 . S
C545 C541 1.429 . S
C545 C546 1.523 . S
C546 C530 1.368 . S
C546 C542 1.368 . S
C546 C545 1.523 . S
H547 C522 0.950 . S
H548 C524 0.950 . S
H549 C525 0.949 . S
H550 C527 0.950 . S
H551 C529 0.950 . S
C552 C553 1.349 . S
C552 C554 1.327 . S
C552 H577 0.950 . S
C553 C552 1.349 . S
C553 C569 1.349 . S
C554 C552 1.327 . S
C554 C573 1.429 . S
C554 H578 0.950 . S
C555 C572 1.574 1_455 S
C555 C574 1.368 . S
C555 H579 0.949 . S
H556 C560 0.949 . S
C557 C558 1.349 . S
C557 C559 1.327 . S
C557 H580 0.950 . S
C558 C557 1.349 . S
C558 C570 1.349 . S
C559 C557 1.327 . S
C559 C575 1.429 . S
C559 H581 0.950 . S
C560 H556 0.949 . S
C560 C568 1.574 1_655 S
C560 C576 1.368 . S
H561 C569 0.950 . S
H562 C567 0.950 . S
H563 C568 0.949 . S
H564 C570 0.950 . S
H565 C571 0.950 . S
H566 C572 0.949 . S
C567 H562 0.950 . S
C567 C569 1.327 . S
C567 C573 1.429 . S
C568 C560 1.574 1_455 S
C568 H563 0.949 . S
C568 C574 1.368 . S
C569 C553 1.349 . S
C569 H561 0.950 . S
C569 C567 1.327 . S
C570 C558 1.349 . S
C570 H564 0.950 . S
C570 C571 1.327 . S
C571 H565 0.950 . S
C571 C570 1.327 . S
C571 C575 1.429 . S
C572 C555 1.574 1_655 S
C572 H566 0.949 . S
C572 C576 1.368 . S
C573 C554 1.429 . S
C573 C567 1.429 . S
C573 C574 1.523 . S
C574 C555 1.368 . S
C574 C568 1.368 . S
C574 C573 1.523 . S
C575 C559 1.429 . S
C575 C571 1.429 . S
C575 C576 1.523 . S
C576 C560 1.368 . S
C576 C572 1.368 . S
C576 C575 1.523 . S
H577 C552 0.950 . S
H578 C554 0.950 . S
H579 C555 0.949 . S
H580 C557 0.950 . S
H581 C559 0.950 . S
C582 C583 1.349 . S
C582 C584 1.327 . S
C582 H607 0.950 . S
C583 C582 1.349 . S
C583 C599 1.349 . S
C584 C582 1.327 . S
C584 C603 1.429 . S
C584 H608 0.950 . S
C585 C602 1.574 . S
C585 C604 1.368 1_554 S
C585 H609 0.949 . S
H586 C590 0.949 . S
C587 C588 1.349 . S
C587 C589 1.327 . S
C587 H610 0.950 . S
C588 C587 1.349 . S
C588 C600 1.349 . S
C589 C587 1.327 . S
C589 C605 1.429 . S
C589 H611 0.950 . S
C590 H586 0.949 . S
C590 C598 1.574 . S
C590 C606 1.368 1_556 S
H591 C599 0.950 . S
H592 C597 0.950 . S
H593 C598 0.949 . S
H594 C600 0.950 . S
H595 C601 0.950 . S
H596 C602 0.949 . S
C597 H592 0.950 . S
C597 C599 1.327 . S
C597 C603 1.429 . S
C598 C590 1.574 . S
C598 H593 0.949 . S
C598 C604 1.368 1_565 S
C599 C583 1.349 . S
C599 H591 0.950 . S
C599 C597 1.327 . S
C600 C588 1.349 . S
C600 H594 0.950 . S
C600 C601 1.327 . S
C601 H595 0.950 . S
C601 C600 1.327 . S
C601 C605 1.429 . S
C602 C585 1.574 . S
C602 H596 0.949 . S
C602 C606 1.368 1_545 S
C603 C584 1.429 . S
C603 C597 1.429 . S
C603 C604 1.523 . S
C604 C585 1.368 1_556 S
C604 C598 1.368 1_545 S
C604 C603 1.523 . S
C605 C589 1.429 . S
C605 C601 1.429 . S
C605 C606 1.523 . S
C606 C590 1.368 1_554 S
C606 C602 1.368 1_565 S
C606 C605 1.523 . S
H607 C582 0.950 . S
H608 C584 0.950 . S
H609 C585 0.949 . S
H610 C587 0.950 . S
H611 C589 0.950 . S
C612 C613 1.349 . S
C612 C614 1.327 . S
C612 H637 0.950 . S
C613 C612 1.349 . S
C613 C629 1.349 . S
C614 C612 1.327 . S
C614 C633 1.429 . S
C614 H638 0.950 . S
C615 C632 1.574 . S
C615 C634 1.368 . S
C615 H639 0.949 . S
H616 C620 0.949 . S
C617 C618 1.349 . S
C617 C619 1.327 . S
C617 H640 0.950 . S
C618 C617 1.349 . S
C618 C630 1.349 . S
C619 C617 1.327 . S
C619 C635 1.429 . S
C619 H641 0.950 . S
C620 H616 0.949 . S
C620 C628 1.574 . S
C620 C636 1.368 . S
H621 C629 0.950 . S
H622 C627 0.950 . S
H623 C628 0.949 . S
H624 C630 0.950 . S
H625 C631 0.950 . S
H626 C632 0.949 . S
C627 H622 0.950 . S
C627 C629 1.327 . S
C627 C633 1.429 . S
C628 C620 1.574 . S
C628 H623 0.949 . S
C628 C634 1.368 . S
C629 C613 1.349 . S
C629 H621 0.950 . S
C629 C627 1.327 . S
C630 C618 1.349 . S
C630 H624 0.950 . S
C630 C631 1.327 . S
C631 H625 0.950 . S
C631 C630 1.327 . S
C631 C635 1.429 . S
C632 C615 1.574 . S
C632 H626 0.949 . S
C632 C636 1.368 . S
C633 C614 1.429 . S
C633 C627 1.429 . S
C633 C634 1.523 . S
C634 C615 1.368 . S
C634 C628 1.368 . S
C634 C633 1.523 . S
C635 C619 1.429 . S
C635 C631 1.429 . S
C635 C636 1.523 . S
C636 C620 1.368 . S
C636 C632 1.368 . S
C636 C635 1.523 . S
H637 C612 0.950 . S
H638 C614 0.950 . S
H639 C615 0.949 . S
H640 C617 0.950 . S
H641 C619 0.950 . S
C642 C643 1.349 . S
C642 C644 1.327 . S
C642 H667 0.950 . S
C643 C642 1.349 . S
C643 C659 1.349 . S
C644 C642 1.327 . S
C644 C663 1.429 . S
C644 H668 0.950 . S
C645 C662 1.574 . S
C645 C664 1.368 . S
C645 H669 0.949 . S
H646 C650 0.949 . S
C647 C648 1.349 . S
C647 C649 1.327 . S
C647 H670 0.950 . S
C648 C647 1.349 . S
C648 C660 1.349 . S
C649 C647 1.327 . S
C649 C665 1.429 . S
C649 H671 0.950 . S
C650 H646 0.949 . S
C650 C658 1.574 . S
C650 C666 1.368 . S
H651 C659 0.950 . S
H652 C657 0.950 . S
H653 C658 0.949 . S
H654 C660 0.950 . S
H655 C661 0.950 . S
H656 C662 0.949 . S
C657 H652 0.950 . S
C657 C659 1.327 . S
C657 C663 1.429 . S
C658 C650 1.574 . S
C658 H653 0.949 . S
C658 C664 1.368 . S
C659 C643 1.349 . S
C659 H651 0.950 . S
C659 C657 1.327 . S
C660 C648 1.349 . S
C660 H654 0.950 . S
C660 C661 1.327 . S
C661 H655 0.950 . S
C661 C660 1.327 . S
C661 C665 1.429 . S
C662 C645 1.574 . S
C662 H656 0.949 . S
C662 C666 1.368 . S
C663 C644 1.429 . S
C663 C657 1.429 . S
C663 C664 1.523 . S
C664 C645 1.368 . S
C664 C658 1.368 . S
C664 C663 1.523 . S
C665 C649 1.429 . S
C665 C661 1.429 . S
C665 C666 1.523 . S
C666 C650 1.368 . S
C666 C662 1.368 . S
C666 C665 1.523 . S
H667 C642 0.950 . S
H668 C644 0.950 . S
H669 C645 0.949 . S
H670 C647 0.950 . S
H671 C649 0.950 . S
C672 C673 1.349 . S
C672 C674 1.327 . S
C672 H697 0.950 . S
C673 C672 1.349 . S
C673 C689 1.349 . S
C674 C672 1.327 . S
C674 C693 1.429 . S
C674 H698 0.950 . S
C675 C692 1.574 . S
C675 C694 1.368 . S
C675 H699 0.949 . S
H676 C680 0.949 . S
C677 C678 1.349 . S
C677 C679 1.327 . S
C677 H700 0.950 . S
C678 C677 1.349 . S
C678 C690 1.349 . S
C679 C677 1.327 . S
C679 C695 1.429 . S
C679 H701 0.950 . S
C680 H676 0.949 . S
C680 C688 1.574 . S
C680 C696 1.368 . S
H681 C689 0.950 . S
H682 C687 0.950 . S
H683 C688 0.949 . S
H684 C690 0.950 . S
H685 C691 0.950 . S
H686 C692 0.949 . S
C687 H682 0.950 . S
C687 C689 1.327 . S
C687 C693 1.429 . S
C688 C680 1.574 . S
C688 H683 0.949 . S
C688 C694 1.368 . S
C689 C673 1.349 . S
C689 H681 0.950 . S
C689 C687 1.327 . S
C690 C678 1.349 . S
C690 H684 0.950 . S
C690 C691 1.327 . S
C691 H685 0.950 . S
C691 C690 1.327 . S
C691 C695 1.429 . S
C692 C675 1.574 . S
C692 H686 0.949 . S
C692 C696 1.368 . S
C693 C674 1.429 . S
C693 C687 1.429 . S
C693 C694 1.523 . S
C694 C675 1.368 . S
C694 C688 1.368 . S
C694 C693 1.523 . S
C695 C679 1.429 . S
C695 C691 1.429 . S
C695 C696 1.523 . S
C696 C680 1.368 . S
C696 C692 1.368 . S
C696 C695 1.523 . S
H697 C672 0.950 . S
H698 C674 0.950 . S
H699 C675 0.949 . S
H700 C677 0.950 . S
H701 C679 0.950 . S
C702 C703 1.349 . S
C702 C704 1.327 . S
C702 H727 0.950 . S
C703 C702 1.349 . S
C703 C719 1.349 . S
C704 C702 1.327 . S
C704 C723 1.429 . S
C704 H728 0.950 . S
C705 C722 1.574 . S
C705 C724 1.368 . S
C705 H729 0.949 . S
H706 C710 0.949 . S
C707 C708 1.349 . S
C707 C709 1.327 . S
C707 H730 0.950 . S
C708 C707 1.349 . S
C708 C720 1.349 . S
C709 C707 1.327 . S
C709 C725 1.429 . S
C709 H731 0.950 . S
C710 H706 0.949 . S
C710 C718 1.574 . S
C710 C726 1.368 . S
H711 C719 0.950 . S
H712 C717 0.950 . S
H713 C718 0.949 . S
H714 C720 0.950 . S
H715 C721 0.950 . S
H716 C722 0.949 . S
C717 H712 0.950 . S
C717 C719 1.327 . S
C717 C723 1.429 . S
C718 C710 1.574 . S
C718 H713 0.949 . S
C718 C724 1.368 . S
C719 C703 1.349 . S
C719 H711 0.950 . S
C719 C717 1.327 . S
C720 C708 1.349 . S
C720 H714 0.950 . S
C720 C721 1.327 . S
C721 H715 0.950 . S
C721 C720 1.327 . S
C721 C725 1.429 . S
C722 C705 1.574 . S
C722 H716 0.949 . S
C722 C726 1.368 . S
C723 C704 1.429 . S
C723 C717 1.429 . S
C723 C724 1.523 . S
C724 C705 1.368 . S
C724 C718 1.368 . S
C724 C723 1.523 . S
C725 C709 1.429 . S
C725 C721 1.429 . S
C725 C726 1.523 . S
C726 C710 1.368 . S
C726 C722 1.368 . S
C726 C725 1.523 . S
H727 C702 0.950 . S
H728 C704 0.950 . S
H729 C705 0.949 . S
H730 C707 0.950 . S
H731 C709 0.950 . S
C732 C733 1.349 . S
C732 C734 1.327 . S
C732 H757 0.950 . S
C733 C732 1.349 . S
C733 C749 1.349 . S
C734 C732 1.327 . S
C734 C753 1.429 . S
C734 H758 0.950 . S
C735 C752 1.574 . S
C735 C754 1.368 . S
C735 H759 0.949 . S
H736 C740 0.949 . S
C737 C738 1.349 . S
C737 C739 1.327 . S
C737 H760 0.950 . S
C738 C737 1.349 . S
C738 C750 1.349 . S
C739 C737 1.327 . S
C739 C755 1.429 . S
C739 H761 0.950 . S
C740 H736 0.949 . S
C740 C748 1.574 . S
C740 C756 1.368 . S
H741 C749 0.950 . S
H742 C747 0.950 . S
H743 C748 0.949 . S
H744 C750 0.950 . S
H745 C751 0.950 . S
H746 C752 0.949 . S
C747 H742 0.950 . S
C747 C749 1.327 . S
C747 C753 1.429 . S
C748 C740 1.574 . S
C748 H743 0.949 . S
C748 C754 1.368 . S
C749 C733 1.349 . S
C749 H741 0.950 . S
C749 C747 1.327 . S
C750 C738 1.349 . S
C750 H744 0.950 . S
C750 C751 1.327 . S
C751 H745 0.950 . S
C751 C750 1.327 . S
C751 C755 1.429 . S
C752 C735 1.574 . S
C752 H746 0.949 . S
C752 C756 1.368 . S
C753 C734 1.429 . S
C753 C747 1.429 . S
C753 C754 1.523 . S
C754 C735 1.368 . S
C754 C748 1.368 . S
C754 C753 1.523 . S
C755 C739 1.429 . S
C755 C751 1.429 . S
C755 C756 1.523 . S
C756 C740 1.368 . S
C756 C752 1.368 . S
C756 C755 1.523 . S
H757 C732 0.950 . S
H758 C734 0.950 . S
H759 C735 0.949 . S
H760 C737 0.950 . S
H761 C739 0.950 . S
C762 C763 1.349 . S
C762 C764 1.327 . S
C762 H787 0.950 . S
C763 C762 1.349 . S
C763 C779 1.349 . S
C764 C762 1.327 . S
C764 C783 1.429 . S
C764 H788 0.950 . S
C765 C782 1.574 . S
C765 C784 1.368 . S
C765 H789 0.949 . S
H766 C770 0.949 . S
C767 C768 1.349 . S
C767 C769 1.327 . S
C767 H790 0.950 . S
C768 C767 1.349 . S
C768 C780 1.349 . S
C769 C767 1.327 . S
C769 C785 1.429 . S
C769 H791 0.950 . S
C770 H766 0.949 . S
C770 C778 1.574 . S
C770 C786 1.368 . S
H771 C779 0.950 . S
H772 C777 0.950 . S
H773 C778 0.949 . S
H774 C780 0.950 . S
H775 C781 0.950 . S
H776 C782 0.949 . S
C777 H772 0.950 . S
C777 C779 1.327 . S
C777 C783 1.429 . S
C778 C770 1.574 . S
C778 H773 0.949 . S
C778 C784 1.368 . S
C779 C763 1.349 . S
C779 H771 0.950 . S
C779 C777 1.327 . S
C780 C768 1.349 . S
C780 H774 0.950 . S
C780 C781 1.327 . S
C781 H775 0.950 . S
C781 C780 1.327 . S
C781 C785 1.429 . S
C782 C765 1.574 . S
C782 H776 0.949 . S
C782 C786 1.368 . S
C783 C764 1.429 . S
C783 C777 1.429 . S
C783 C784 1.523 . S
C784 C765 1.368 . S
C784 C778 1.368 . S
C784 C783 1.523 . S
C785 C769 1.429 . S
C785 C781 1.429 . S
C785 C786 1.523 . S
C786 C770 1.368 . S
C786 C782 1.368 . S
C786 C785 1.523 . S
H787 C762 0.950 . S
H788 C764 0.950 . S
H789 C765 0.949 . S
H790 C767 0.950 . S
H791 C769 0.950 . S
C792 C793 1.349 . S
C792 C794 1.327 . S
C792 H817 0.950 . S
C793 C792 1.349 . S
C793 C809 1.349 . S
C794 C792 1.327 . S
C794 C813 1.429 . S
C794 H818 0.950 . S
C795 C812 1.574 . S
C795 C814 1.368 . S
C795 H819 0.949 . S
H796 C800 0.949 . S
C797 C798 1.349 . S
C797 C799 1.327 . S
C797 H820 0.950 . S
C798 C797 1.349 . S
C798 C810 1.349 . S
C799 C797 1.327 . S
C799 C815 1.429 . S
C799 H821 0.950 . S
C800 H796 0.949 . S
C800 C808 1.574 . S
C800 C816 1.368 . S
H801 C809 0.950 . S
H802 C807 0.950 . S
H803 C808 0.949 . S
H804 C810 0.950 . S
H805 C811 0.950 . S
H806 C812 0.949 . S
C807 H802 0.950 . S
C807 C809 1.327 . S
C807 C813 1.429 . S
C808 C800 1.574 . S
C808 H803 0.949 . S
C808 C814 1.368 . S
C809 C793 1.349 . S
C809 H801 0.950 . S
C809 C807 1.327 . S
C810 C798 1.349 . S
C810 H804 0.950 . S
C810 C811 1.327 . S
C811 H805 0.950 . S
C811 C810 1.327 . S
C811 C815 1.429 . S
C812 C795 1.574 . S
C812 H806 0.949 . S
C812 C816 1.368 . S
C813 C794 1.429 . S
C813 C807 1.429 . S
C813 C814 1.523 . S
C814 C795 1.368 . S
C814 C808 1.368 . S
C814 C813 1.523 . S
C815 C799 1.429 . S
C815 C811 1.429 . S
C815 C816 1.523 . S
C816 C800 1.368 . S
C816 C812 1.368 . S
C816 C815 1.523 . S
H817 C792 0.950 . S
H818 C794 0.950 . S
H819 C795 0.949 . S
H820 C797 0.950 . S
H821 C799 0.950 . S
C822 C823 1.349 . S
C822 C824 1.327 . S
C822 H847 0.950 . S
C823 C822 1.349 . S
C823 C839 1.349 . S
C824 C822 1.327 . S
C824 C843 1.429 . S
C824 H848 0.950 . S
C825 C842 1.574 1_655 S
C825 C844 1.368 . S
C825 H849 0.949 . S
H826 C830 0.949 . S
C827 C828 1.349 . S
C827 C829 1.327 . S
C827 H850 0.950 . S
C828 C827 1.349 . S
C828 C840 1.349 . S
C829 C827 1.327 . S
C829 C845 1.429 . S
C829 H851 0.950 . S
C830 H826 0.949 . S
C830 C838 1.574 1_455 S
C830 C846 1.368 . S
H831 C839 0.950 . S
H832 C837 0.950 . S
H833 C838 0.949 . S
H834 C840 0.950 . S
H835 C841 0.950 . S
H836 C842 0.949 . S
C837 H832 0.950 . S
C837 C839 1.327 . S
C837 C843 1.429 . S
C838 C830 1.574 1_655 S
C838 H833 0.949 . S
C838 C844 1.368 . S
C839 C823 1.349 . S
C839 H831 0.950 . S
C839 C837 1.327 . S
C840 C828 1.349 . S
C840 H834 0.950 . S
C840 C841 1.327 . S
C841 H835 0.950 . S
C841 C840 1.327 . S
C841 C845 1.429 . S
C842 C825 1.574 1_455 S
C842 H836 0.949 . S
C842 C846 1.368 . S
C843 C824 1.429 . S
C843 C837 1.429 . S
C843 C844 1.523 . S
C844 C825 1.368 . S
C844 C838 1.368 . S
C844 C843 1.523 . S
C845 C829 1.429 . S
C845 C841 1.429 . S
C845 C846 1.523 . S
C846 C830 1.368 . S
C846 C842 1.368 . S
C846 C845 1.523 . S
H847 C822 0.950 . S
H848 C824 0.950 . S
H849 C825 0.949 . S
H850 C827 0.950 . S
H851 C829 0.950 . S
C852 C853 1.349 . S
C852 C854 1.327 . S
C852 H877 0.950 . S
C853 C852 1.349 . S
C853 C869 1.349 . S
C854 C852 1.327 . S
C854 C873 1.429 . S
C854 H878 0.950 . S
C855 C872 1.574 . S
C855 C874 1.368 1_556 S
C855 H879 0.949 . S
H856 C860 0.949 . S
C857 C858 1.349 . S
C857 C859 1.327 . S
C857 H880 0.950 . S
C858 C857 1.349 . S
C858 C870 1.349 . S
C859 C857 1.327 . S
C859 C875 1.429 . S
C859 H881 0.950 . S
C860 H856 0.949 . S
C860 C868 1.574 . S
C860 C876 1.368 1_554 S
H861 C869 0.950 . S
H862 C867 0.950 . S
H863 C868 0.949 . S
H864 C870 0.950 . S
H865 C871 0.950 . S
H866 C872 0.949 . S
C867 H862 0.950 . S
C867 C869 1.327 . S
C867 C873 1.429 . S
C868 C860 1.574 . S
C868 H863 0.949 . S
C868 C874 1.368 1_545 S
C869 C853 1.349 . S
C869 H861 0.950 . S
C869 C867 1.327 . S
C870 C858 1.349 . S
C870 H864 0.950 . S
C870 C871 1.327 . S
C871 H865 0.950 . S
C871 C870 1.327 . S
C871 C875 1.429 . S
C872 C855 1.574 . S
C872 H866 0.949 . S
C872 C876 1.368 1_565 S
C873 C854 1.429 . S
C873 C867 1.429 . S
C873 C874 1.523 . S
C874 C855 1.368 1_554 S
C874 C868 1.368 1_565 S
C874 C873 1.523 . S
C875 C859 1.429 . S
C875 C871 1.429 . S
C875 C876 1.523 . S
C876 C860 1.368 1_556 S
C876 C872 1.368 1_545 S
C876 C875 1.523 . S
H877 C852 0.950 . S
H878 C854 0.950 . S
H879 C855 0.949 . S
H880 C857 0.950 . S
H881 C859 0.950 . S
C882 C883 1.349 . S
C882 C884 1.327 . S
C882 H907 0.950 1_554 S
C883 C882 1.349 . S
C883 C899 1.349 . S
C884 C882 1.327 . S
C884 C903 1.429 . S
C884 H908 0.950 . S
C885 C902 1.574 . S
C885 C904 1.368 . S
C885 H909 0.949 . S
H886 C890 0.949 . S
C887 C888 1.349 . S
C887 C889 1.327 . S
C887 H910 0.950 . S
C888 C887 1.349 . S
C888 C900 1.349 . S
C889 C887 1.327 . S
C889 C905 1.429 . S
C889 H911 0.950 . S
C890 H886 0.949 . S
C890 C898 1.574 . S
C890 C906 1.368 . S
H891 C899 0.950 . S
H892 C897 0.950 . S
H893 C898 0.949 . S
H894 C900 0.950 . S
H895 C901 0.950 . S
H896 C902 0.949 . S
C897 H892 0.950 . S
C897 C899 1.327 . S
C897 C903 1.429 . S
C898 C890 1.574 . S
C898 H893 0.949 . S
C898 C904 1.368 . S
C899 C883 1.349 . S
C899 H891 0.950 . S
C899 C897 1.327 . S
C900 C888 1.349 . S
C900 H894 0.950 . S
C900 C901 1.327 . S
C901 H895 0.950 . S
C901 C900 1.327 . S
C901 C905 1.429 . S
C902 C885 1.574 . S
C902 H896 0.949 . S
C902 C906 1.368 . S
C903 C884 1.429 . S
C903 C897 1.429 . S
C903 C904 1.523 . S
C904 C885 1.368 . S
C904 C898 1.368 . S
C904 C903 1.523 . S
C905 C889 1.429 . S
C905 C901 1.429 . S
C905 C906 1.523 . S
C906 C890 1.368 . S
C906 C902 1.368 . S
C906 C905 1.523 . S
H907 C882 0.950 1_556 S
H908 C884 0.950 . S
H909 C885 0.949 . S
H910 C887 0.950 . S
H911 C889 0.950 . S
C912 C913 1.349 . S
C912 C914 1.327 . S
C912 H937 0.950 . S
C913 C912 1.349 . S
C913 C929 1.349 . S
C914 C912 1.327 . S
C914 C933 1.429 . S
C914 H938 0.950 . S
C915 C932 1.574 . S
C915 C934 1.368 . S
C915 H939 0.949 . S
H916 C920 0.949 . S
C917 C918 1.349 . S
C917 C919 1.327 . S
C917 H940 0.950 . S
C918 C917 1.349 . S
C918 C930 1.349 . S
C919 C917 1.327 . S
C919 C935 1.429 . S
C919 H941 0.950 . S
C920 H916 0.949 . S
C920 C928 1.574 . S
C920 C936 1.368 . S
H921 C929 0.950 . S
H922 C927 0.950 . S
H923 C928 0.949 . S
H924 C930 0.950 . S
H925 C931 0.950 . S
H926 C932 0.949 . S
C927 H922 0.950 . S
C927 C929 1.327 . S
C927 C933 1.429 . S
C928 C920 1.574 . S
C928 H923 0.949 . S
C928 C934 1.368 1_655 S
C929 C913 1.349 . S
C929 H921 0.950 . S
C929 C927 1.327 . S
C930 C918 1.349 . S
C930 H924 0.950 . S
C930 C931 1.327 . S
C931 H925 0.950 . S
C931 C930 1.327 . S
C931 C935 1.429 . S
C932 C915 1.574 . S
C932 H926 0.949 . S
C932 C936 1.368 1_455 S
C933 C914 1.429 . S
C933 C927 1.429 . S
C933 C934 1.523 . S
C934 C915 1.368 . S
C934 C928 1.368 1_455 S
C934 C933 1.523 . S
C935 C919 1.429 . S
C935 C931 1.429 . S
C935 C936 1.523 . S
C936 C920 1.368 . S
C936 C932 1.368 1_655 S
C936 C935 1.523 . S
H937 C912 0.950 . S
H938 C914 0.950 . S
H939 C915 0.949 . S
H940 C917 0.950 . S
H941 C919 0.950 . S
C942 C943 1.349 . S
C942 C944 1.327 . S
C942 H967 0.950 . S
C943 C942 1.349 . S
C943 C959 1.349 . S
C944 C942 1.327 . S
C944 C963 1.429 . S
C944 H968 0.950 . S
C945 C962 1.574 . S
C945 C964 1.368 1_545 S
C945 H969 0.949 . S
H946 C950 0.949 . S
C947 C948 1.349 . S
C947 C949 1.327 . S
C947 H970 0.950 . S
C948 C947 1.349 . S
C948 C960 1.349 . S
C949 C947 1.327 . S
C949 C965 1.429 . S
C949 H971 0.950 . S
C950 H946 0.949 . S
C950 C958 1.574 . S
C950 C966 1.368 1_565 S
H951 C959 0.950 . S
H952 C957 0.950 . S
H953 C958 0.949 . S
H954 C960 0.950 . S
H955 C961 0.950 . S
H956 C962 0.949 . S
C957 H952 0.950 . S
C957 C959 1.327 . S
C957 C963 1.429 . S
C958 C950 1.574 . S
C958 H953 0.949 . S
C958 C964 1.368 . S
C959 C943 1.349 . S
C959 H951 0.950 . S
C959 C957 1.327 . S
C960 C948 1.349 . S
C960 H954 0.950 . S
C960 C961 1.327 . S
C961 H955 0.950 . S
C961 C960 1.327 . S
C961 C965 1.429 . S
C962 C945 1.574 . S
C962 H956 0.949 . S
C962 C966 1.368 . S
C963 C944 1.429 . S
C963 C957 1.429 . S
C963 C964 1.523 . S
C964 C945 1.368 1_565 S
C964 C958 1.368 . S
C964 C963 1.523 . S
C965 C949 1.429 . S
C965 C961 1.429 . S
C965 C966 1.523 . S
C966 C950 1.368 1_545 S
C966 C962 1.368 . S
C966 C965 1.523 . S
H967 C942 0.950 . S
H968 C944 0.950 . S
H969 C945 0.949 . S
H970 C947 0.950 . S
H971 C949 0.950 . S
C972 C973 1.349 . S
C972 C974 1.327 . S
C972 H997 0.950 . S
C973 C972 1.349 . S
C973 C989 1.349 . S
C974 C972 1.327 . S
C974 C993 1.429 . S
C974 H998 0.950 . S
C975 C992 1.574 . S
C975 C994 1.368 . S
C975 H999 0.949 . S
H976 C980 0.949 . S
C977 C978 1.349 . S
C977 C979 1.327 . S
C977 H1000 0.950 . S
C978 C977 1.349 . S
C978 C990 1.349 . S
C979 C977 1.327 . S
C979 C995 1.429 . S
C979 H1001 0.950 . S
C980 H976 0.949 . S
C980 C988 1.574 . S
C980 C996 1.368 . S
H981 C989 0.950 . S
H982 C987 0.950 . S
H983 C988 0.949 . S
H984 C990 0.950 . S
H985 C991 0.950 . S
H986 C992 0.949 . S
C987 H982 0.950 . S
C987 C989 1.327 . S
C987 C993 1.429 . S
C988 C980 1.574 . S
C988 H983 0.949 . S
C988 C994 1.368 . S
C989 C973 1.349 . S
C989 H981 0.950 . S
C989 C987 1.327 . S
C990 C978 1.349 . S
C990 H984 0.950 . S
C990 C991 1.327 . S
C991 H985 0.950 . S
C991 C990 1.327 . S
C991 C995 1.429 . S
C992 C975 1.574 . S
C992 H986 0.949 . S
C992 C996 1.368 . S
C993 C974 1.429 . S
C993 C987 1.429 . S
C993 C994 1.523 . S
C994 C975 1.368 . S
C994 C988 1.368 . S
C994 C993 1.523 . S
C995 C979 1.429 . S
C995 C991 1.429 . S
C995 C996 1.523 . S
C996 C980 1.368 . S
C996 C992 1.368 . S
C996 C995 1.523 . S
H997 C972 0.950 . S
H998 C974 0.950 . S
H999 C975 0.949 . S
H1000 C977 0.950 . S
H1001 C979 0.950 . S
C1002 C1003 1.349 . S
C1002 C1004 1.327 . S
C1002 H1027 0.950 . S
C1003 C1002 1.349 . S
C1003 C1019 1.349 . S
C1004 C1002 1.327 . S
C1004 C1023 1.429 . S
C1004 H1028 0.950 . S
C1005 C1022 1.574 . S
C1005 C1024 1.368 . S
C1005 H1029 0.949 . S
H1006 C1010 0.949 . S
C1007 C1008 1.349 . S
C1007 C1009 1.327 . S
C1007 H1030 0.950 . S
C1008 C1007 1.349 . S
C1008 C1020 1.349 . S
C1009 C1007 1.327 . S
C1009 C1025 1.429 . S
C1009 H1031 0.950 . S
C1010 H1006 0.949 . S
C1010 C1018 1.574 . S
C1010 C1026 1.368 . S
H1011 C1019 0.950 . S
H1012 C1017 0.950 . S
H1013 C1018 0.949 . S
H1014 C1020 0.950 . S
H1015 C1021 0.950 . S
H1016 C1022 0.949 . S
C1017 H1012 0.950 . S
C1017 C1019 1.327 . S
C1017 C1023 1.429 . S
C1018 C1010 1.574 . S
C1018 H1013 0.949 . S
C1018 C1024 1.368 . S
C1019 C1003 1.349 . S
C1019 H1011 0.950 . S
C1019 C1017 1.327 . S
C1020 C1008 1.349 . S
C1020 H1014 0.950 . S
C1020 C1021 1.327 . S
C1021 H1015 0.950 . S
C1021 C1020 1.327 . S
C1021 C1025 1.429 . S
C1022 C1005 1.574 . S
C1022 H1016 0.949 . S
C1022 C1026 1.368 . S
C1023 C1004 1.429 . S
C1023 C1017 1.429 . S
C1023 C1024 1.523 . S
C1024 C1005 1.368 . S
C1024 C1018 1.368 . S
C1024 C1023 1.523 . S
C1025 C1009 1.429 . S
C1025 C1021 1.429 . S
C1025 C1026 1.523 . S
C1026 C1010 1.368 . S
C1026 C1022 1.368 . S
C1026 C1025 1.523 . S
H1027 C1002 0.950 . S
H1028 C1004 0.950 . S
H1029 C1005 0.949 . S
H1030 C1007 0.950 . S
H1031 C1009 0.950 . S
C1032 C1033 1.349 . S
C1032 C1034 1.327 . S
C1032 H1057 0.950 . S
C1033 C1032 1.349 . S
C1033 C1049 1.349 1_554 S
C1034 C1032 1.327 . S
C1034 C1053 1.429 1_554 S
C1034 H1058 0.950 . S
C1035 C1052 1.574 . S
C1035 C1054 1.368 . S
C1035 H1059 0.949 . S
H1036 C1040 0.949 . S
C1037 C1038 1.349 . S
C1037 C1039 1.327 . S
C1037 H1060 0.950 . S
C1038 C1037 1.349 . S
C1038 C1050 1.349 . S
C1039 C1037 1.327 . S
C1039 C1055 1.429 . S
C1039 H1061 0.950 . S
C1040 H1036 0.949 . S
C1040 C1048 1.574 . S
C1040 C1056 1.368 . S
H1041 C1049 0.950 . S
H1042 C1047 0.950 . S
H1043 C1048 0.949 . S
H1044 C1050 0.950 . S
H1045 C1051 0.950 . S
H1046 C1052 0.949 . S
C1047 H1042 0.950 . S
C1047 C1049 1.327 . S
C1047 C1053 1.429 . S
C1048 C1040 1.574 . S
C1048 H1043 0.949 . S
C1048 C1054 1.368 . S
C1049 C1033 1.349 1_556 S
C1049 H1041 0.950 . S
C1049 C1047 1.327 . S
C1050 C1038 1.349 . S
C1050 H1044 0.950 . S
C1050 C1051 1.327 . S
C1051 H1045 0.950 . S
C1051 C1050 1.327 . S
C1051 C1055 1.429 . S
C1052 C1035 1.574 . S
C1052 H1046 0.949 . S
C1052 C1056 1.368 . S
C1053 C1034 1.429 1_556 S
C1053 C1047 1.429 . S
C1053 C1054 1.523 . S
C1054 C1035 1.368 . S
C1054 C1048 1.368 . S
C1054 C1053 1.523 . S
C1055 C1039 1.429 . S
C1055 C1051 1.429 . S
C1055 C1056 1.523 . S
C1056 C1040 1.368 . S
C1056 C1052 1.368 . S
C1056 C1055 1.523 . S
H1057 C1032 0.950 . S
H1058 C1034 0.950 . S
H1059 C1035 0.949 . S
H1060 C1037 0.950 . S
H1061 C1039 0.950 . S
C1062 C1063 1.349 . S
C1062 C1064 1.327 . S
C1062 H1087 0.950 . S
C1063 C1062 1.349 . S
C1063 C1079 1.349 . S
C1064 C1062 1.327 . S
C1064 C1083 1.429 . S
C1064 H1088 0.950 . S
C1065 C1082 1.574 . S
C1065 C1084 1.368 . S
C1065 H1089 0.949 . S
H1066 C1070 0.949 . S
C1067 C1068 1.349 . S
C1067 C1069 1.327 1_556 S
C1067 H1090 0.950 . S
C1068 C1067 1.349 . S
C1068 C1080 1.349 . S
C1069 C1067 1.327 1_554 S
C1069 C1085 1.429 . S
C1069 H1091 0.950 . S
C1070 H1066 0.949 . S
C1070 C1078 1.574 . S
C1070 C1086 1.368 . S
H1071 C1079 0.950 . S
H1072 C1077 0.950 . S
H1073 C1078 0.949 . S
H1074 C1080 0.950 . S
H1075 C1081 0.950 . S
H1076 C1082 0.949 . S
C1077 H1072 0.950 . S
C1077 C1079 1.327 . S
C1077 C1083 1.429 . S
C1078 C1070 1.574 . S
C1078 H1073 0.949 . S
C1078 C1084 1.368 . S
C1079 C1063 1.349 . S
C1079 H1071 0.950 . S
C1079 C1077 1.327 . S
C1080 C1068 1.349 . S
C1080 H1074 0.950 . S
C1080 C1081 1.327 1_556 S
C1081 H1075 0.950 . S
C1081 C1080 1.327 1_554 S
C1081 C1085 1.429 . S
C1082 C1065 1.574 . S
C1082 H1076 0.949 . S
C1082 C1086 1.368 . S
C1083 C1064 1.429 . S
C1083 C1077 1.429 . S
C1083 C1084 1.523 . S
C1084 C1065 1.368 . S
C1084 C1078 1.368 . S
C1084 C1083 1.523 . S
C1085 C1069 1.429 . S
C1085 C1081 1.429 . S
C1085 C1086 1.523 . S
C1086 C1070 1.368 . S
C1086 C1082 1.368 . S
C1086 C1085 1.523 . S
H1087 C1062 0.950 . S
H1088 C1064 0.950 . S
H1089 C1065 0.949 . S
H1090 C1067 0.950 . S
H1091 C1069 0.950 . S
C1092 C1093 1.349 . S
C1092 C1094 1.327 . S
C1092 H1117 0.950 . S
C1093 C1092 1.349 . S
C1093 C1109 1.349 . S
C1094 C1092 1.327 . S
C1094 C1113 1.429 . S
C1094 H1118 0.950 . S
C1095 C1112 1.574 . S
C1095 C1114 1.368 . S
C1095 H1119 0.949 . S
H1096 C1100 0.949 . S
C1097 C1098 1.349 . S
C1097 C1099 1.327 . S
C1097 H1120 0.950 . S
C1098 C1097 1.349 . S
C1098 C1110 1.349 . S
C1099 C1097 1.327 . S
C1099 C1115 1.429 . S
C1099 H1121 0.950 . S
C1100 H1096 0.949 . S
C1100 C1108 1.574 . S
C1100 C1116 1.368 . S
H1101 C1109 0.950 . S
H1102 C1107 0.950 . S
H1103 C1108 0.949 . S
H1104 C1110 0.950 . S
H1105 C1111 0.950 . S
H1106 C1112 0.949 . S
C1107 H1102 0.950 . S
C1107 C1109 1.327 . S
C1107 C1113 1.429 . S
C1108 C1100 1.574 . S
C1108 H1103 0.949 . S
C1108 C1114 1.368 . S
C1109 C1093 1.349 . S
C1109 H1101 0.950 . S
C1109 C1107 1.327 . S
C1110 C1098 1.349 . S
C1110 H1104 0.950 . S
C1110 C1111 1.327 . S
C1111 H1105 0.950 . S
C1111 C1110 1.327 . S
C1111 C1115 1.429 . S
C1112 C1095 1.574 . S
C1112 H1106 0.949 . S
C1112 C1116 1.368 . S
C1113 C1094 1.429 . S
C1113 C1107 1.429 . S
C1113 C1114 1.523 . S
C1114 C1095 1.368 . S
C1114 C1108 1.368 . S
C1114 C1113 1.523 . S
C1115 C1099 1.429 . S
C1115 C1111 1.429 . S
C1115 C1116 1.523 . S
C1116 C1100 1.368 . S
C1116 C1112 1.368 . S
C1116 C1115 1.523 . S
H1117 C1092 0.950 . S
H1118 C1094 0.950 . S
H1119 C1095 0.949 . S
H1120 C1097 0.950 . S
H1121 C1099 0.950 . S
C1122 C1123 1.349 . S
C1122 C1124 1.327 . S
C1122 H1147 0.950 . S
C1123 C1122 1.349 . S
C1123 C1139 1.349 . S
C1124 C1122 1.327 . S
C1124 C1143 1.429 . S
C1124 H1148 0.950 . S
C1125 C1142 1.574 . S
C1125 C1144 1.368 . S
C1125 H1149 0.949 . S
H1126 C1130 0.949 . S
C1127 C1128 1.349 . S
C1127 C1129 1.327 . S
C1127 H1150 0.950 . S
C1128 C1127 1.349 . S
C1128 C1140 1.349 . S
C1129 C1127 1.327 . S
C1129 C1145 1.429 . S
C1129 H1151 0.950 . S
C1130 H1126 0.949 . S
C1130 C1138 1.574 . S
C1130 C1146 1.368 . S
H1131 C1139 0.950 . S
H1132 C1137 0.950 . S
H1133 C1138 0.949 . S
H1134 C1140 0.950 . S
H1135 C1141 0.950 . S
H1136 C1142 0.949 . S
C1137 H1132 0.950 . S
C1137 C1139 1.327 . S
C1137 C1143 1.429 . S
C1138 C1130 1.574 . S
C1138 H1133 0.949 . S
C1138 C1144 1.368 . S
C1139 C1123 1.349 . S
C1139 H1131 0.950 . S
C1139 C1137 1.327 . S
C1140 C1128 1.349 . S
C1140 H1134 0.950 . S
C1140 C1141 1.327 . S
C1141 H1135 0.950 . S
C1141 C1140 1.327 . S
C1141 C1145 1.429 . S
C1142 C1125 1.574 . S
C1142 H1136 0.949 . S
C1142 C1146 1.368 . S
C1143 C1124 1.429 . S
C1143 C1137 1.429 . S
C1143 C1144 1.523 . S
C1144 C1125 1.368 . S
C1144 C1138 1.368 . S
C1144 C1143 1.523 . S
C1145 C1129 1.429 . S
C1145 C1141 1.429 . S
C1145 C1146 1.523 . S
C1146 C1130 1.368 . S
C1146 C1142 1.368 . S
C1146 C1145 1.523 . S
H1147 C1122 0.950 . S
H1148 C1124 0.950 . S
H1149 C1125 0.949 . S
H1150 C1127 0.950 . S
H1151 C1129 0.950 . S
C433 C328 1.463 1_554 S
C438 C4 1.463 . S
C463 C40 1.463 . S
C468 C364 1.463 . S
C493 C400 1.463 . S
C498 C76 1.463 . S
C523 C220 1.463 . S
C528 C112 1.463 . S
C553 C256 1.463 . S
C558 C148 1.463 1_556 S
C583 C292 1.463 . S
C588 C184 1.463 . S
C613 C230 1.343 . S
C618 C14 1.343 . S
C643 C50 1.343 . S
C648 C266 1.343 . S
C673 C302 1.343 . S
C678 C86 1.343 . S
C703 C122 1.343 . S
C708 C338 1.343 . S
C733 C374 1.343 . S
C738 C158 1.343 . S
C763 C194 1.344 . S
C768 C410 1.343 . S
C793 C326 1.288 . S
C798 C2 1.288 . S
C823 C362 1.288 1_556 S
C828 C38 1.288 . S
C853 C398 1.288 . S
C858 C74 1.288 . S
C883 C110 1.288 1_554 S
C888 C218 1.288 . S
C913 C254 1.288 . S
C918 C146 1.288 . S
C943 C182 1.288 . S
C948 C290 1.288 . S
C973 C3 1.101 . S
C978 C291 1.101 . S
C1003 C327 1.101 . S
C1008 C39 1.101 . S
C1033 C363 1.102 . S
C1038 C75 1.102 . S
C1063 C399 1.101 . S
C1068 C111 1.101 . S
C1093 C219 1.101 . S
C1098 C147 1.101 . S
C1123 C255 1.101 . S
C1128 C183 1.101 . S
