# Generated by pormake.
# Topology sth, (5)-cn, num edge types: 1
# Building blocks:
#     Node 0, Type 0, BuildingBlock: XOMCOT_clean_sbu_1, # of connection points: 5
#     Node 1, Type 0, BuildingBlock: XOMCOT_clean_sbu_1, # of connection points: 5
#     Node 2, Type 0, BuildingBlock: XOMCOT_clean_sbu_1, # of connection points: 5
#     Node 3, Type 0, BuildingBlock: XOMCOT_clean_sbu_1, # of connection points: 5
#     Node 4, Type 0, BuildingBlock: XOMCOT_clean_sbu_1, # of connection points: 5
#     Node 5, Type 0, BuildingBlock: XOMCOT_clean_sbu_1, # of connection points: 5
#     Node 6, Type 0, BuildingBlock: XOMCOT_clean_sbu_1, # of connection points: 5
#     Node 7, Type 0, BuildingBlock: XOMCOT_clean_sbu_1, # of connection points: 5
#     Node 8, Type 0, BuildingBlock: XOMCOT_clean_sbu_1, # of connection points: 5
#     Node 9, Type 0, BuildingBlock: XOMCOT_clean_sbu_1, # of connection points: 5
#     Node 10, Type 0, BuildingBlock: XOMCOT_clean_sbu_1, # of connection points: 5
#     Node 11, Type 0, BuildingBlock: XOMCOT_clean_sbu_1, # of connection points: 5
#     Node 12, Type 0, BuildingBlock: XOMCOT_clean_sbu_1, # of connection points: 5
#     Node 13, Type 0, BuildingBlock: XOMCOT_clean_sbu_1, # of connection points: 5
#     Node 14, Type 0, BuildingBlock: XOMCOT_clean_sbu_1, # of connection points: 5
#     Node 15, Type 0, BuildingBlock: XOMCOT_clean_sbu_1, # of connection points: 5
#     Node 16, Type 0, BuildingBlock: XOMCOT_clean_sbu_1, # of connection points: 5
#     Node 17, Type 0, BuildingBlock: XOMCOT_clean_sbu_1, # of connection points: 5
#     Edge 18, Type (0, 0), BuildingBlock: MIFKUJ_clean_linker_0, # of connection points: 2
#     Edge 19, Type (0, 0), BuildingBlock: MIFKUJ_clean_linker_0, # of connection points: 2
#     Edge 20, Type (0, 0), BuildingBlock: MIFKUJ_clean_linker_0, # of connection points: 2
#     Edge 21, Type (0, 0), BuildingBlock: MIFKUJ_clean_linker_0, # of connection points: 2
#     Edge 22, Type (0, 0), BuildingBlock: MIFKUJ_clean_linker_0, # of connection points: 2
#     Edge 23, Type (0, 0), BuildingBlock: MIFKUJ_clean_linker_0, # of connection points: 2
#     Edge 24, Type (0, 0), BuildingBlock: MIFKUJ_clean_linker_0, # of connection points: 2
#     Edge 25, Type (0, 0), BuildingBlock: MIFKUJ_clean_linker_0, # of connection points: 2
#     Edge 26, Type (0, 0), BuildingBlock: MIFKUJ_clean_linker_0, # of connection points: 2
#     Edge 27, Type (0, 0), BuildingBlock: MIFKUJ_clean_linker_0, # of connection points: 2
#     Edge 28, Type (0, 0), BuildingBlock: MIFKUJ_clean_linker_0, # of connection points: 2
#     Edge 29, Type (0, 0), BuildingBlock: MIFKUJ_clean_linker_0, # of connection points: 2
#     Edge 30, Type (0, 0), BuildingBlock: MIFKUJ_clean_linker_0, # of connection points: 2
#     Edge 31, Type (0, 0), BuildingBlock: MIFKUJ_clean_linker_0, # of connection points: 2
#     Edge 32, Type (0, 0), BuildingBlock: MIFKUJ_clean_linker_0, # of connection points: 2
#     Edge 33, Type (0, 0), BuildingBlock: MIFKUJ_clean_linker_0, # of connection points: 2
#     Edge 34, Type (0, 0), BuildingBlock: MIFKUJ_clean_linker_0, # of connection points: 2
#     Edge 35, Type (0, 0), BuildingBlock: MIFKUJ_clean_linker_0, # of connection points: 2
#     Edge 36, Type (0, 0), BuildingBlock: MIFKUJ_clean_linker_0, # of connection points: 2
#     Edge 37, Type (0, 0), BuildingBlock: MIFKUJ_clean_linker_0, # of connection points: 2
#     Edge 38, Type (0, 0), BuildingBlock: MIFKUJ_clean_linker_0, # of connection points: 2
#     Edge 39, Type (0, 0), BuildingBlock: MIFKUJ_clean_linker_0, # of connection points: 2
#     Edge 40, Type (0, 0), BuildingBlock: MIFKUJ_clean_linker_0, # of connection points: 2
#     Edge 41, Type (0, 0), BuildingBlock: MIFKUJ_clean_linker_0, # of connection points: 2
#     Edge 42, Type (0, 0), BuildingBlock: MIFKUJ_clean_linker_0, # of connection points: 2
#     Edge 43, Type (0, 0), BuildingBlock: MIFKUJ_clean_linker_0, # of connection points: 2
#     Edge 44, Type (0, 0), BuildingBlock: MIFKUJ_clean_linker_0, # of connection points: 2
#     Edge 45, Type (0, 0), BuildingBlock: MIFKUJ_clean_linker_0, # of connection points: 2
#     Edge 46, Type (0, 0), BuildingBlock: MIFKUJ_clean_linker_0, # of connection points: 2
#     Edge 47, Type (0, 0), BuildingBlock: MIFKUJ_clean_linker_0, # of connection points: 2
#     Edge 48, Type (0, 0), BuildingBlock: MIFKUJ_clean_linker_0, # of connection points: 2
#     Edge 49, Type (0, 0), BuildingBlock: MIFKUJ_clean_linker_0, # of connection points: 2
#     Edge 50, Type (0, 0), BuildingBlock: MIFKUJ_clean_linker_0, # of connection points: 2
#     Edge 51, Type (0, 0), BuildingBlock: MIFKUJ_clean_linker_0, # of connection points: 2
#     Edge 52, Type (0, 0), BuildingBlock: MIFKUJ_clean_linker_0, # of connection points: 2
#     Edge 53, Type (0, 0), BuildingBlock: MIFKUJ_clean_linker_0, # of connection points: 2
#     Edge 54, Type (0, 0), BuildingBlock: MIFKUJ_clean_linker_0, # of connection points: 2
#     Edge 55, Type (0, 0), BuildingBlock: MIFKUJ_clean_linker_0, # of connection points: 2
#     Edge 56, Type (0, 0), BuildingBlock: MIFKUJ_clean_linker_0, # of connection points: 2
#     Edge 57, Type (0, 0), BuildingBlock: MIFKUJ_clean_linker_0, # of connection points: 2
#     Edge 58, Type (0, 0), BuildingBlock: MIFKUJ_clean_linker_0, # of connection points: 2
#     Edge 59, Type (0, 0), BuildingBlock: MIFKUJ_clean_linker_0, # of connection points: 2
#     Edge 60, Type (0, 0), BuildingBlock: MIFKUJ_clean_linker_0, # of connection points: 2
#     Edge 61, Type (0, 0), BuildingBlock: MIFKUJ_clean_linker_0, # of connection points: 2
#     Edge 62, Type (0, 0), BuildingBlock: MIFKUJ_clean_linker_0, # of connection points: 2
# Relax obj value: 0.158
# Max RMSD: 0.184
# Mean RMSD: 0.184
data_MOF--net-sth--node1-XOMCOT_clean_sbu_1--edge1-MIFKUJ_clean_linker_0
_symmetry_space_group_name_H-M    P1
_symmetry_Int_Tables_number       1
_symmetry_cell_setting            triclinic
loop_
_symmetry_equiv_pos_as_xyz
'x, y, z'
_cell_length_a     52.539887
_cell_length_b     52.516615
_cell_length_c     96.148527
_cell_angle_alpha  89.897507
_cell_angle_beta   89.940149
_cell_angle_gamma 120.125
loop_
_atom_site_label
_atom_site_type_symbol
_atom_site_fract_x
_atom_site_fract_y
_atom_site_fract_z
_atom_type_partial_charge
C0 C 0.16682 0.32827 0.21542 0.0
C1 C 0.19488 0.34716 0.21066 0.0
N2 N 0.20815 0.33141 0.20803 0.0
N3 N 0.16225 0.30059 0.2159 0.0
C4 C 0.18793 0.3033 0.21133 0.0
H5 H 0.15069 0.33439 0.21825 0.0
Co6 Co 0.12726 0.2666 0.22167 0.0
C7 C 0.07776 0.27543 0.21166 0.0
O8 O 0.05985 0.25749 0.22123 0.0
N9 N 0.09234 0.23194 0.22731 0.0
C10 C 0.05676 0.1952 0.23952 0.0
C11 C 0.0825 0.22187 0.24028 0.0
C12 C 0.0723 0.21055 0.21887 0.0
N13 N 0.05033 0.18806 0.22602 0.0
O14 O 0.12922 0.24527 0.20589 0.0
H15 H 0.09326 0.23284 0.2498 0.0
H16 H 0.07344 0.21177 0.20763 0.0
O17 O 0.10439 0.28082 0.21105 0.0
C18 C 0.14217 0.23168 0.21018 0.0
O19 O 0.15235 0.23634 0.22295 0.0
N20 N 0.12756 0.2862 0.23817 0.0
C21 C 0.13319 0.30812 0.26528 0.0
C22 C 0.1161 0.31239 0.25528 0.0
C23 C 0.11364 0.30134 0.24172 0.0
C24 C 0.14512 0.28297 0.24757 0.0
C25 C 0.14795 0.29333 0.26113 0.0
H26 H 0.10071 0.30522 0.23425 0.0
H27 H 0.15623 0.27118 0.2446 0.0
H28 H 0.19196 0.28512 0.21048 0.0
H29 H 0.20448 0.37059 0.20893 0.0
H30 H 0.04405 0.18184 0.24826 0.0
H31 H 0.10481 0.32425 0.25785 0.0
H32 H 0.161 0.28889 0.26838 0.0
C33 C 0.71449 0.87944 0.23178 0.0
C34 C 0.69617 0.88788 0.22581 0.0
N35 N 0.69978 0.88883 0.21194 0.0
N36 N 0.72945 0.87435 0.22176 0.0
C37 C 0.72012 0.88058 0.20972 0.0
H38 H 0.71753 0.87848 0.24283 0.0
Co39 Co 0.76058 0.86641 0.22478 0.0
C40 C 0.73751 0.80538 0.21474 0.0
O41 O 0.74889 0.80117 0.22603 0.0
N42 N 0.79311 0.8595 0.22771 0.0
C43 C 0.82534 0.84799 0.23667 0.0
C44 C 0.79874 0.84643 0.23853 0.0
C45 C 0.81705 0.86844 0.21934 0.0
N46 N 0.83705 0.86206 0.22464 0.0
O47 O 0.78223 0.89269 0.20966 0.0
H48 H 0.78429 0.83532 0.24718 0.0
H49 H 0.82026 0.87995 0.20961 0.0
O50 O 0.74057 0.8309 0.21243 0.0
C51 C 0.79432 0.91794 0.21553 0.0
O52 O 0.78766 0.91916 0.2286 0.0
N53 N 0.74113 0.84493 0.24101 0.0
C54 C 0.71739 0.82458 0.26742 0.0
C55 C 0.70177 0.8095 0.25548 0.0
C56 C 0.71397 0.82024 0.24226 0.0
C57 C 0.75535 0.86075 0.25256 0.0
C58 C 0.74435 0.85055 0.26584 0.0
H59 H 0.70121 0.80935 0.23313 0.0
H60 H 0.77578 0.88138 0.25141 0.0
H61 H 0.72874 0.87997 0.19958 0.0
H62 H 0.68239 0.89441 0.23134 0.0
H63 H 0.83508 0.839 0.24361 0.0
H64 H 0.6803 0.78991 0.25638 0.0
H65 H 0.75651 0.86325 0.27482 0.0
C66 C 0.12788 0.84062 0.23127 0.0
C67 C 0.11539 0.81259 0.22608 0.0
N68 N 0.12213 0.81423 0.21247 0.0
N69 N 0.14287 0.8602 0.22108 0.0
C70 C 0.13903 0.84341 0.20969 0.0
H71 H 0.12495 0.84639 0.24171 0.0
Co72 Co 0.15793 0.90109 0.22294 0.0
C73 C 0.22055 0.92553 0.21402 0.0
O74 O 0.22902 0.93684 0.22644 0.0
N75 N 0.17254 0.94271 0.22467 0.0
C76 C 0.19754 0.99033 0.23055 0.0
C77 C 0.19393 0.96294 0.23301 0.0
C78 C 0.16338 0.95884 0.2174 0.0
N79 N 0.17823 0.98766 0.22073 0.0
O80 O 0.13517 0.89977 0.20688 0.0
H81 H 0.20619 0.95846 0.24066 0.0
H82 H 0.14639 0.95002 0.20964 0.0
O83 O 0.19299 0.91016 0.21116 0.0
C84 C 0.10915 0.88983 0.2117 0.0
O85 O 0.10459 0.88332 0.225 0.0
N86 N 0.17563 0.90021 0.23995 0.0
C87 C 0.188 0.89204 0.26741 0.0
C88 C 0.19957 0.88401 0.25613 0.0
C89 C 0.19256 0.88766 0.24244 0.0
C90 C 0.16348 0.9071 0.25081 0.0
C91 C 0.16992 0.90393 0.26452 0.0
H92 H 0.1999 0.8796 0.23388 0.0
H93 H 0.14821 0.91478 0.24879 0.0
H94 H 0.14677 0.85242 0.19941 0.0
H95 H 0.1016 0.7925 0.23182 0.0
H96 H 0.21269 0.01054 0.23583 0.0
H97 H 0.21288 0.87389 0.25787 0.0
H98 H 0.1604 0.91045 0.27279 0.0
C99 C 0.29365 0.17955 0.78071 0.0
C100 C 0.30966 0.20847 0.78468 0.0
N101 N 0.3172 0.20959 0.79816 0.0
N102 N 0.29146 0.16203 0.79145 0.0
C103 C 0.30596 0.18099 0.80201 0.0
H104 H 0.28316 0.17169 0.77072 0.0
Co105 Co 0.2659 0.12065 0.7914 0.0
C106 C 0.312 0.10527 0.80077 0.0
O107 O 0.31625 0.09954 0.788 0.0
N108 N 0.23924 0.07932 0.79174 0.0
C109 C 0.21852 0.03048 0.79059 0.0
C110 C 0.24432 0.05692 0.78922 0.0
C111 C 0.21003 0.06566 0.79462 0.0
N112 N 0.19698 0.03603 0.79406 0.0
O113 O 0.2464 0.12461 0.80763 0.0
H114 H 0.26517 0.05934 0.78623 0.0
H115 H 0.19822 0.07711 0.79677 0.0
O116 O 0.2936 0.11408 0.8033 0.0
C117 C 0.2302 0.13454 0.80306 0.0
O118 O 0.23005 0.13905 0.78962 0.0
N119 N 0.28242 0.1179 0.77396 0.0
C120 C 0.29931 0.1206 0.74587 0.0
C121 C 0.32003 0.13743 0.75614 0.0
C122 C 0.31115 0.13591 0.77004 0.0
C123 C 0.26208 0.10174 0.76403 0.0
C124 C 0.27013 0.10199 0.75018 0.0
H125 H 0.32726 0.15011 0.77761 0.0
H126 H 0.23896 0.08939 0.76661 0.0
H127 H 0.30654 0.17385 0.81251 0.0
H128 H 0.31464 0.22718 0.77813 0.0
H129 H 0.21587 1.00881 0.78925 0.0
H130 H 0.34271 0.15275 0.75344 0.0
H131 H 0.25314 0.0882 0.74286 0.0
C132 C 0.8394 0.12694 0.77892 0.0
C133 C 0.81118 0.11471 0.78378 0.0
N134 N 0.81172 0.11431 0.79775 0.0
N135 N 0.85839 0.13506 0.78969 0.0
C136 C 0.84068 0.12709 0.80112 0.0
H137 H 0.84518 0.12814 0.76807 0.0
Co138 Co 0.89906 0.14677 0.78781 0.0
C139 C 0.93225 0.20877 0.79736 0.0
O140 O 0.94816 0.21398 0.78608 0.0
N141 N 0.93992 0.15736 0.78599 0.0
C142 C 0.98609 0.1744 0.77855 0.0
C143 C 0.95929 0.1715 0.77548 0.0
C144 C 0.95608 0.15179 0.79528 0.0
N145 N 0.98403 0.16189 0.79098 0.0
O146 O 0.89547 0.12237 0.80357 0.0
H147 H 0.95517 0.18054 0.76625 0.0
H148 H 0.94795 0.14111 0.80521 0.0
O149 O 0.91093 0.18249 0.79971 0.0
C150 C 0.88396 0.09635 0.7986 0.0
O151 O 0.87618 0.09243 0.78544 0.0
N152 N 0.90057 0.16649 0.77104 0.0
C153 C 0.89421 0.18199 0.74389 0.0
C154 C 0.89291 0.19787 0.75539 0.0
C155 C 0.89553 0.18936 0.76895 0.0
C156 C 0.90108 0.1505 0.75999 0.0
C157 C 0.89861 0.15818 0.74641 0.0
H158 H 0.89224 0.20029 0.77769 0.0
H159 H 0.90323 0.13133 0.76181 0.0
H160 H 0.84866 0.12872 0.81165 0.0
H161 H 0.79158 0.10578 0.77742 0.0
H162 H 1.00561 0.18477 0.77208 0.0
H163 H 0.88864 0.21584 0.75395 0.0
H164 H 0.89985 0.14527 0.73795 0.0
C165 C 0.88441 0.70674 0.78112 0.0
C166 C 0.89528 0.68988 0.78637 0.0
N167 N 0.898 0.69359 0.80022 0.0
N168 N 0.87954 0.72106 0.79154 0.0
C169 C 0.88797 0.71233 0.80316 0.0
H170 H 0.88203 0.70946 0.77016 0.0
Co171 Co 0.87119 0.75236 0.78886 0.0
C172 C 0.81 0.72943 0.7985 0.0
O173 O 0.80675 0.74209 0.78741 0.0
N174 N 0.86418 0.78495 0.78624 0.0
C175 C 0.8528 0.81768 0.77771 0.0
C176 C 0.85357 0.79246 0.77504 0.0
C177 C 0.86961 0.80658 0.79558 0.0
N178 N 0.86298 0.82666 0.79062 0.0
O179 O 0.89605 0.77308 0.8044 0.0
H180 H 0.84546 0.78016 0.76556 0.0
H181 H 0.87757 0.80735 0.80601 0.0
O182 O 0.83507 0.73146 0.80081 0.0
C183 C 0.92226 0.78555 0.79959 0.0
O184 O 0.9261 0.77931 0.7868 0.0
N185 N 0.85056 0.73388 0.77235 0.0
C186 C 0.83044 0.71177 0.74577 0.0
C187 C 0.81475 0.69585 0.75757 0.0
C188 C 0.82539 0.7072 0.77087 0.0
C189 C 0.86706 0.74821 0.76093 0.0
C190 C 0.85701 0.73804 0.74756 0.0
H191 H 0.81391 0.69415 0.77988 0.0
H192 H 0.88803 0.76816 0.76228 0.0
H193 H 0.88878 0.72119 0.81341 0.0
H194 H 0.90182 0.67675 0.78032 0.0
H195 H 0.84534 0.82864 0.77064 0.0
H196 H 0.79466 0.67485 0.7565 0.0
H197 H 0.87018 0.75035 0.73867 0.0
C198 C 0.85124 0.64157 0.56398 0.0
C199 C 0.87881 0.65834 0.55847 0.0
N200 N 0.87742 0.65367 0.54469 0.0
N201 N 0.83173 0.62632 0.5538 0.0
C202 C 0.84858 0.63446 0.54205 0.0
H203 H 0.84659 0.63958 0.57498 0.0
Co204 Co 0.7921 0.59482 0.55688 0.0
C205 C 0.75374 0.61823 0.54799 0.0
O206 O 0.73836 0.60632 0.55933 0.0
N207 N 0.75258 0.56216 0.55995 0.0
C208 C 0.70985 0.5291 0.5696 0.0
C209 C 0.73507 0.5556 0.57131 0.0
C210 C 0.73653 0.53889 0.55136 0.0
N211 N 0.71059 0.5183 0.55702 0.0
O212 O 0.79547 0.57426 0.54107 0.0
H213 H 0.73945 0.56917 0.58039 0.0
H214 H 0.74355 0.53708 0.54106 0.0
O215 O 0.77633 0.61562 0.5454 0.0
C216 C 0.80939 0.56192 0.54575 0.0
O217 O 0.81947 0.56796 0.55855 0.0
N218 N 0.79089 0.61296 0.57366 0.0
C219 C 0.79696 0.63455 0.60084 0.0
C220 C 0.79493 0.65035 0.58943 0.0
C221 C 0.7923 0.63936 0.57585 0.0
C222 C 0.7941 0.59813 0.58454 0.0
C223 C 0.79621 0.60795 0.59813 0.0
H224 H 0.79269 0.65263 0.56718 0.0
H225 H 0.79459 0.5781 0.5826 0.0
H226 H 0.84031 0.62487 0.53193 0.0
H227 H 0.89868 0.67202 0.56432 0.0
H228 H 0.69257 0.51855 0.57727 0.0
H229 H 0.7964 0.67148 0.5909 0.0
H230 H 0.79729 0.59458 0.60644 0.0
C231 C 0.38047 0.21707 0.56256 0.0
C232 C 0.36395 0.22735 0.55633 0.0
N233 N 0.36753 0.22739 0.5425 0.0
N234 N 0.39458 0.21023 0.55277 0.0
C235 C 0.38593 0.21661 0.54054 0.0
H236 H 0.38334 0.21671 0.57364 0.0
Co237 Co 0.42598 0.20276 0.55642 0.0
C238 C 0.40413 0.14074 0.54828 0.0
O239 O 0.41696 0.13858 0.55957 0.0
N240 N 0.45864 0.19657 0.55995 0.0
C241 C 0.49263 0.18837 0.56956 0.0
C242 C 0.46699 0.18864 0.57178 0.0
C243 C 0.47997 0.20066 0.55068 0.0
N244 N 0.50091 0.19607 0.55629 0.0
O245 O 0.44684 0.22588 0.54032 0.0
H246 H 0.45523 0.18249 0.5815 0.0
H247 H 0.47998 0.20626 0.53987 0.0
O248 O 0.40557 0.16537 0.54547 0.0
C249 C 0.45899 0.25282 0.54404 0.0
O250 O 0.45213 0.25867 0.55631 0.0
N251 N 0.40748 0.18413 0.57335 0.0
C252 C 0.38474 0.16898 0.60046 0.0
C253 C 0.36984 0.15053 0.5891 0.0
C254 C 0.38137 0.15872 0.57556 0.0
C255 C 0.4214 0.20277 0.58416 0.0
C256 C 0.41099 0.19534 0.59773 0.0
H257 H 0.36874 0.14522 0.56691 0.0
H258 H 0.44115 0.22363 0.58217 0.0
H259 H 0.3948 0.21571 0.53051 0.0
H260 H 0.35142 0.23569 0.56162 0.0
H261 H 0.50444 0.18313 0.5772 0.0
H262 H 0.34898 0.13045 0.59057 0.0
H263 H 0.4236 0.21035 0.606 0.0
C264 C 0.78601 0.16901 0.5648 0.0
C265 C 0.77306 0.14024 0.56053 0.0
N266 N 0.78122 0.13981 0.5473 0.0
N267 N 0.80255 0.18692 0.55437 0.0
C268 C 0.79925 0.16844 0.54379 0.0
H269 H 0.78257 0.17655 0.57471 0.0
Co270 Co 0.81876 0.2282 0.55482 0.0
C271 C 0.87921 0.24339 0.54387 0.0
O272 O 0.8902 0.24821 0.55644 0.0
N273 N 0.83409 0.26962 0.55487 0.0
C274 C 0.86398 0.31822 0.5552 0.0
C275 C 0.86203 0.29137 0.5571 0.0
C276 C 0.81947 0.28409 0.5518 0.0
N277 N 0.83716 0.3137 0.5518 0.0
O278 O 0.79393 0.22486 0.53931 0.0
H279 H 0.88006 0.28826 0.56 0.0
H280 H 0.79623 0.27318 0.54959 0.0
O281 O 0.85184 0.2349 0.542 0.0
C282 C 0.76849 0.2156 0.54471 0.0
O283 O 0.76563 0.21157 0.55824 0.0
N284 N 0.83933 0.23015 0.57164 0.0
C285 C 0.85698 0.22705 0.59889 0.0
C286 C 0.85921 0.21011 0.58819 0.0
C287 C 0.84994 0.21169 0.5747 0.0
C288 C 0.83622 0.24598 0.58211 0.0
C289 C 0.84552 0.24532 0.59563 0.0
H290 H 0.85083 0.19762 0.56674 0.0
H291 H 0.82513 0.25828 0.58023 0.0
H292 H 0.80824 0.17586 0.53347 0.0
H293 H 0.75803 0.12109 0.56657 0.0
H294 H 0.88392 0.33939 0.55596 0.0
H295 H 0.86757 0.19537 0.59026 0.0
H296 H 0.84226 0.25788 0.60365 0.0
C297 C 0.99826 0.49981 0.13038 0.0
C298 C 0.01812 0.52741 0.13529 0.0
N299 N 1.00346 0.54165 0.13828 0.0
N300 N 0.97107 0.49653 0.13016 0.0
C301 C 0.97505 0.52249 0.13505 0.0
H302 H 1.00335 0.48312 0.12719 0.0
Co303 Co 0.93614 0.46268 0.12422 0.0
C304 C 0.9393 0.41115 0.13697 0.0
O305 O 0.91757 0.3916 0.12935 0.0
N306 N 0.90059 0.42908 0.11835 0.0
C307 C 0.86373 0.39559 0.10552 0.0
C308 C 0.89158 0.41988 0.10523 0.0
C309 C 0.87728 0.41045 0.12637 0.0
N310 N 0.85469 0.38952 0.11886 0.0
O311 O 0.91464 0.46731 0.13934 0.0
H312 H 0.90423 0.43018 0.09594 0.0
H313 H 0.87705 0.41213 0.13757 0.0
O314 O 0.94778 0.43858 0.13566 0.0
C315 C 0.90335 0.48126 0.13355 0.0
O316 O 0.91039 0.48939 0.1205 0.0
N317 N 0.95605 0.46059 0.10828 0.0
C318 C 0.97736 0.46203 0.08138 0.0
C319 C 0.97333 0.4399 0.0909 0.0
C320 C 0.96271 0.43959 0.10436 0.0
C321 C 0.96062 0.4826 0.09931 0.0
C322 C 0.97124 0.48379 0.0859 0.0
H323 H 0.95898 0.42196 0.1113 0.0
H324 H 0.95485 0.49882 0.10243 0.0
H325 H 0.95761 0.52756 0.13613 0.0
H326 H 0.04145 0.53609 0.1368 0.0
H327 H 0.85134 0.38319 0.09654 0.0
H328 H 0.97794 0.42275 0.08791 0.0
H329 H 0.97339 0.501 0.07894 0.0
C330 C 0.50644 0.45304 0.11477 0.0
C331 C 0.47871 0.44108 0.12029 0.0
N332 N 0.48109 0.44677 0.13401 0.0
N333 N 0.52661 0.46662 0.12488 0.0
C334 C 0.51041 0.46249 0.13656 0.0
H335 H 0.51145 0.45041 0.10415 0.0
Co336 Co 0.56708 0.47981 0.12237 0.0
C337 C 0.59705 0.5424 0.13123 0.0
O338 O 0.61081 0.54878 0.11924 0.0
N339 N 0.60827 0.49223 0.11991 0.0
C340 C 0.6543 0.51162 0.11198 0.0
C341 C 0.62734 0.50899 0.10979 0.0
C342 C 0.62487 0.48514 0.12814 0.0
N343 N 0.65285 0.49639 0.12351 0.0
O344 O 0.56538 0.45596 0.13807 0.0
H345 H 0.6227 0.51967 0.10138 0.0
H346 H 0.61669 0.47187 0.13739 0.0
O347 O 0.57832 0.51541 0.13419 0.0
C348 C 0.55511 0.43049 0.13256 0.0
O349 O 0.54818 0.42761 0.1193 0.0
N350 N 0.56627 0.49838 0.10564 0.0
C351 C 0.55787 0.5125 0.07853 0.0
C352 C 0.55379 0.52648 0.09012 0.0
C353 C 0.55753 0.51865 0.10365 0.0
C354 C 0.56899 0.48382 0.09453 0.0
C355 C 0.56577 0.49105 0.08098 0.0
H356 H 0.55247 0.52808 0.11247 0.0
H357 H 0.5738 0.4663 0.09624 0.0
H358 H 0.51983 0.46897 0.14685 0.0
H359 H 0.45825 0.42812 0.11472 0.0
H360 H 0.67356 0.5244 0.10558 0.0
H361 H 0.54673 0.54247 0.08878 0.0
H362 H 0.56933 0.47965 0.0725 0.0
C363 C 0.51863 0.02454 0.13208 0.0
C364 C 0.52604 1.00501 0.13765 0.0
N365 N 0.55547 0.01888 0.13921 0.0
N366 N 0.5432 0.05087 0.1301 0.0
C367 C 0.56536 0.04659 0.13445 0.0
H368 H 0.49655 0.01985 0.12979 0.0
Co369 Co 0.54408 0.08527 0.1235 0.0
C370 C 0.48668 0.07931 0.13336 0.0
O371 O 0.48703 0.09623 0.1232 0.0
N372 N 0.54555 0.12023 0.11712 0.0
C373 C 0.55043 0.15797 0.10449 0.0
C374 C 0.54698 0.13019 0.10404 0.0
C375 C 0.54842 0.14257 0.12528 0.0
N376 N 0.55153 0.16596 0.11791 0.0
O377 O 0.56945 0.10783 0.13857 0.0
H378 H 0.54606 0.11846 0.09468 0.0
H379 H 0.54852 0.14166 0.13651 0.0
O380 O 0.50793 0.07406 0.13454 0.0
C381 C 0.59535 0.11933 0.13342 0.0
O382 O 0.59826 0.11074 0.12098 0.0
N383 N 0.52293 0.06444 0.10751 0.0
C384 C 0.50407 0.04178 0.08073 0.0
C385 C 0.48371 0.03866 0.09106 0.0
C386 C 0.49354 0.04987 0.10447 0.0
C387 C 0.54268 0.06617 0.09783 0.0
C388 C 0.53387 0.05534 0.08441 0.0
H389 H 0.47738 0.04661 0.11219 0.0
H390 H 0.56581 0.07727 0.10039 0.0
H391 H 0.58825 0.06361 0.13454 0.0
H392 H 0.51082 0.98228 0.14034 0.0
H393 H 0.55206 0.17111 0.0955 0.0
H394 H 0.46038 0.02762 0.08882 0.0
H395 H 0.55056 0.0586 0.07687 0.0
C396 C 0.51796 0.98186 0.89752 0.0
C397 C 0.54506 0.99993 0.89182 0.0
N398 N 0.54475 0.99249 0.87842 0.0
N399 N 0.4997 0.9626 0.88789 0.0
C400 C 0.51689 0.96988 0.87627 0.0
H401 H 0.51298 0.98236 0.90835 0.0
Co402 Co 0.46098 0.92931 0.89133 0.0
C403 C 0.41807 0.94681 0.88159 0.0
O404 O 0.40084 0.93117 0.89188 0.0
N405 N 0.42284 0.89532 0.89467 0.0
C406 C 0.38104 0.86061 0.90442 0.0
C407 C 0.40725 0.88595 0.9067 0.0
C408 C 0.40516 0.87462 0.88526 0.0
N409 N 0.37973 0.85341 0.89096 0.0
O410 O 0.46485 0.9093 0.87543 0.0
H411 H 0.41353 0.89681 0.91662 0.0
H412 H 0.41031 0.87544 0.87432 0.0
O413 O 0.44311 0.94835 0.88004 0.0
C414 C 0.48038 0.89809 0.87928 0.0
O415 O 0.49278 0.90516 0.89161 0.0
N416 N 0.45877 0.94685 0.90813 0.0
C417 C 0.46347 0.96839 0.93523 0.0
C418 C 0.45584 0.98062 0.92406 0.0
C419 C 0.45403 0.96982 0.9105 0.0
C420 C 0.46689 0.93534 0.91882 0.0
C421 C 0.46886 0.94534 0.93238 0.0
H422 H 0.45003 0.98075 0.902 0.0
H423 H 0.47165 0.91792 0.91672 0.0
H424 H 0.5094 0.95814 0.86654 0.0
H425 H 0.56402 0.0162 0.8975 0.0
H426 H 0.36416 0.8483 0.91211 0.0
H427 H 0.4523 0.999 0.92571 0.0
H428 H 0.47456 0.93495 0.94058 0.0
C429 C 0.05134 0.55423 0.90009 0.0
C430 C 0.03309 0.56382 0.89524 0.0
N431 N 0.03031 0.55983 0.88138 0.0
N432 N 0.06002 0.54359 0.88946 0.0
C433 C 0.04704 0.54762 0.8781 0.0
H434 H 0.05884 0.55628 0.9107 0.0
Co435 Co 0.08881 0.53196 0.89126 0.0
C436 C 0.05845 0.46983 0.88174 0.0
O437 O 0.06775 0.46358 0.89318 0.0
N438 N 0.1189 0.52113 0.89301 0.0
C439 C 0.14775 0.50388 0.90045 0.0
C440 C 0.12314 0.50576 0.90321 0.0
C441 C 0.14171 0.52814 0.88414 0.0
N442 N 0.15956 0.51806 0.88845 0.0
O443 O 0.10973 0.55656 0.87549 0.0
H444 H 0.10905 0.49557 0.91209 0.0
H445 H 0.1451 0.53998 0.8745 0.0
O446 O 0.06488 0.4965 0.87933 0.0
C447 C 0.12396 0.58253 0.88056 0.0
O448 O 0.12005 0.58607 0.89377 0.0
N449 N 0.07043 0.51228 0.90806 0.0
C450 C 0.04861 0.49668 0.93526 0.0
C451 C 0.03098 0.4815 0.92375 0.0
C452 C 0.0421 0.49011 0.91018 0.0
C453 C 0.08735 0.5277 0.91913 0.0
C454 C 0.07721 0.51993 0.93273 0.0
H455 H 0.02761 0.47976 0.90144 0.0
H456 H 0.10902 0.54646 0.91733 0.0
H457 H 0.05054 0.54256 0.86761 0.0
H458 H 0.02387 0.57448 0.90141 0.0
H459 H 0.15647 0.49317 0.90692 0.0
H460 H 1.00844 0.46402 0.92521 0.0
H461 H 0.09168 0.53237 0.9412 0.0
C462 C 0.46104 0.50067 0.89867 0.0
C463 C 0.45194 0.4731 0.89349 0.0
N464 N 0.45595 0.47518 0.87962 0.0
N465 N 0.47143 0.52057 0.88822 0.0
C466 C 0.46768 0.50424 0.87665 0.0
H467 H 0.45906 0.50561 0.90939 0.0
Co468 Co 0.48303 0.56089 0.89035 0.0
C469 C 0.54543 0.5924 0.8809 0.0
O470 O 0.55207 0.60704 0.89262 0.0
N471 N 0.49397 0.60186 0.89242 0.0
C472 C 0.51261 0.64825 0.89982 0.0
C473 C 0.51091 0.62171 0.90223 0.0
C474 C 0.48574 0.61757 0.88417 0.0
N475 N 0.49669 0.64566 0.88846 0.0
O476 O 0.45879 0.55775 0.87462 0.0
H477 H 0.52226 0.6179 0.9106 0.0
H478 H 0.47245 0.609 0.87496 0.0
O479 O 0.51855 0.57288 0.87837 0.0
C480 C 0.43259 0.54556 0.87949 0.0
O481 O 0.42845 0.53746 0.89263 0.0
N482 N 0.50253 0.56166 0.90703 0.0
C483 C 0.52057 0.55783 0.9339 0.0
C484 C 0.53347 0.55258 0.92226 0.0
C485 C 0.52388 0.55431 0.90884 0.0
C486 C 0.48835 0.56445 0.91831 0.0
C487 C 0.49757 0.56354 0.93178 0.0
H488 H 0.53302 0.54902 0.89997 0.0
H489 H 0.46983 0.56779 0.91678 0.0
H490 H 0.4727 0.51336 0.86624 0.0
H491 H 0.44169 0.45281 0.89943 0.0
H492 H 0.52448 0.6679 0.90607 0.0
H493 H 0.55065 0.54711 0.92354 0.0
H494 H 0.48626 0.56655 0.9405 0.0
C495 C 0.64515 0.84798 0.44964 0.0
C496 C 0.66407 0.87439 0.45576 0.0
N497 N 0.65966 0.87152 0.46957 0.0
N498 N 0.62899 0.82783 0.4595 0.0
C499 C 0.63823 0.84316 0.47161 0.0
H500 H 0.64279 0.84442 0.43856 0.0
Co501 Co 0.59757 0.78858 0.45619 0.0
C502 C 0.62148 0.75044 0.46507 0.0
O503 O 0.61042 0.73529 0.45363 0.0
N504 N 0.56518 0.74911 0.45296 0.0
C505 C 0.53397 0.70547 0.44354 0.0
C506 C 0.55971 0.73151 0.44173 0.0
C507 C 0.54187 0.73249 0.46149 0.0
N508 N 0.52262 0.70595 0.45599 0.0
O509 O 0.57666 0.79152 0.47204 0.0
H510 H 0.57375 0.73626 0.43277 0.0
H511 H 0.53918 0.73932 0.47171 0.0
O512 O 0.61813 0.77258 0.46764 0.0
C513 C 0.56487 0.80622 0.46768 0.0
O514 O 0.57107 0.81696 0.45497 0.0
N515 N 0.61609 0.78795 0.43941 0.0
C516 C 0.63784 0.79423 0.4122 0.0
C517 C 0.6536 0.7922 0.4236 0.0
C518 C 0.64253 0.78948 0.43719 0.0
C519 C 0.60135 0.79128 0.42854 0.0
C520 C 0.61125 0.79353 0.41493 0.0
H521 H 0.65574 0.78979 0.44586 0.0
H522 H 0.58127 0.79167 0.43051 0.0
H523 H 0.62893 0.83395 0.48169 0.0
H524 H 0.67886 0.89469 0.45038 0.0
H525 H 0.52429 0.68759 0.43613 0.0
H526 H 0.67472 0.79368 0.42211 0.0
H527 H 0.59793 0.79464 0.40664 0.0
C528 C 0.17313 0.78727 0.44657 0.0
C529 C 0.14473 0.77666 0.45096 0.0
N530 N 0.14503 0.7823 0.46463 0.0
N531 N 0.19176 0.80017 0.45729 0.0
C532 C 0.1739 0.79645 0.46827 0.0
H533 H 0.17969 0.78484 0.43622 0.0
Co534 Co 0.23272 0.81489 0.45587 0.0
C535 C 0.25989 0.87634 0.46608 0.0
O536 O 0.27455 0.88452 0.45433 0.0
N537 N 0.2746 0.82895 0.45452 0.0
C538 C 0.32175 0.85009 0.44787 0.0
C539 C 0.29477 0.84704 0.44504 0.0
C540 C 0.29064 0.82175 0.4631 0.0
N541 N 0.31916 0.83403 0.45922 0.0
O542 O 0.23006 0.79008 0.47121 0.0
H543 H 0.29078 0.85803 0.43655 0.0
H544 H 0.28188 0.80792 0.47219 0.0
O545 O 0.24155 0.84892 0.46834 0.0
C546 C 0.22399 0.76591 0.46527 0.0
O547 O 0.2193 0.76372 0.45178 0.0
N548 N 0.23327 0.83491 0.43938 0.0
C549 C 0.22917 0.85318 0.41255 0.0
C550 C 0.22158 0.86412 0.42421 0.0
C551 C 0.22344 0.85438 0.4376 0.0
C552 C 0.23848 0.82255 0.42806 0.0
C553 C 0.23741 0.83193 0.41464 0.0
H554 H 0.21635 0.86189 0.44647 0.0
H555 H 0.24371 0.80526 0.4295 0.0
H556 H 0.18186 0.80343 0.47874 0.0
H557 H 0.1252 0.76451 0.44466 0.0
H558 H 0.34161 0.86275 0.4418 0.0
H559 H 0.21416 0.87986 0.42298 0.0
H560 H 0.24223 0.82199 0.40591 0.0
C561 C 0.18078 0.35571 0.46264 0.0
C562 C 0.18956 0.3365 0.46729 0.0
N563 N 0.21862 0.35195 0.46991 0.0
N564 N 0.20422 0.38327 0.46218 0.0
C565 C 0.22697 0.3802 0.46674 0.0
H566 H 0.15862 0.34982 0.45975 0.0
Co567 Co 0.20405 0.41729 0.45588 0.0
C568 C 0.14427 0.40774 0.46403 0.0
O569 O 0.14497 0.42468 0.45379 0.0
N570 N 0.20477 0.45191 0.44971 0.0
C571 C 0.21349 0.49155 0.43749 0.0
C572 C 0.21088 0.46417 0.4369 0.0
C573 C 0.20399 0.47253 0.4579 0.0
N574 N 0.20928 0.49687 0.45074 0.0
O575 O 0.22624 0.43905 0.47194 0.0
H576 H 0.21445 0.45461 0.42771 0.0
H577 H 0.20067 0.47014 0.46904 0.0
O578 O 0.16604 0.40345 0.46577 0.0
C579 C 0.25326 0.45258 0.46825 0.0
O580 O 0.25997 0.44701 0.45588 0.0
N581 N 0.18581 0.39746 0.43916 0.0
C582 C 0.17035 0.37605 0.41191 0.0
C583 C 0.14864 0.37048 0.42195 0.0
C584 C 0.15679 0.3812 0.43555 0.0
C585 C 0.207 0.40143 0.42981 0.0
C586 C 0.19989 0.39142 0.41615 0.0
H587 H 0.13961 0.37599 0.44302 0.0
H588 H 0.22988 0.41378 0.43284 0.0
H589 H 0.24939 0.39813 0.46753 0.0
H590 H 0.17554 0.31302 0.46883 0.0
H591 H 0.2187 0.50663 0.42885 0.0
H592 H 0.12549 0.35783 0.41937 0.0
H593 H 0.21763 0.39662 0.4089 0.0
H594 H 0.43426 0.39192 0.13399 0.0
H595 H 0.39015 0.37281 0.14839 0.0
H596 H 0.42798 0.45543 0.17033 0.0
H597 H 0.4729 0.47441 0.15599 0.0
H598 H 0.39682 0.41042 0.18798 0.0
H599 H 0.37767 0.43932 0.14393 0.0
H600 H 0.37613 0.44146 0.11834 0.0
H601 H 0.31713 0.34804 0.11686 0.0
H602 H 0.31865 0.34527 0.14244 0.0
H603 H 0.256 0.38561 0.21158 0.0
H604 H 0.30446 0.40517 0.2007 0.0
H605 H 0.27507 0.32187 0.1804 0.0
H606 H 0.2265 0.30223 0.19123 0.0
H607 H 0.30243 0.36936 0.16234 0.0
H608 H 0.32203 0.34146 0.20692 0.0
H609 H 0.32351 0.34071 0.23254 0.0
H610 H 0.38118 0.43443 0.23303 0.0
H611 H 0.3797 0.4358 0.20741 0.0
C612 C 0.43326 0.40596 0.14195 0.0
C613 C 0.45682 0.43482 0.14373 0.0
C614 C 0.40798 0.39505 0.15016 0.0
C615 C 0.40524 0.4129 0.16022 0.0
C616 C 0.42939 0.44127 0.16256 0.0
C617 C 0.45505 0.45212 0.15441 0.0
C618 C 0.37668 0.40208 0.16774 0.0
C619 C 0.37625 0.40186 0.18236 0.0
C620 C 0.34962 0.39047 0.16048 0.0
C621 C 0.34848 0.39207 0.1451 0.0
C622 C 0.36452 0.41921 0.13814 0.0
C623 C 0.36363 0.42053 0.12364 0.0
C624 C 0.34659 0.39489 0.11598 0.0
C625 C 0.33034 0.36788 0.12281 0.0
C626 C 0.33119 0.36642 0.13731 0.0
C627 C 0.25986 0.37143 0.20483 0.0
C628 C 0.23729 0.34235 0.20226 0.0
C629 C 0.28767 0.38258 0.19869 0.0
C630 C 0.29353 0.36498 0.18976 0.0
C631 C 0.27113 0.33587 0.18727 0.0
C632 C 0.24341 0.32459 0.19354 0.0
C633 C 0.32253 0.37732 0.18254 0.0
C634 C 0.32302 0.37794 0.16796 0.0
C635 C 0.34955 0.38954 0.18985 0.0
C636 C 0.35049 0.38877 0.20525 0.0
C637 C 0.33481 0.36195 0.2125 0.0
C638 C 0.33569 0.3614 0.22702 0.0
C639 C 0.35236 0.38752 0.23441 0.0
C640 C 0.36824 0.41422 0.22729 0.0
C641 C 0.36741 0.41489 0.21277 0.0
H642 H 0.35303 0.38705 0.24566 0.0
H643 H 0.34594 0.39597 0.10475 0.0
H644 H 0.64487 0.88049 0.21307 0.0
H645 H 0.62369 0.90283 0.19822 0.0
H646 H 0.70334 0.94464 0.17377 0.0
H647 H 0.72481 0.92225 0.18881 0.0
H648 H 0.68333 0.98338 0.18123 0.0
H649 H 0.64356 0.88884 0.16 0.0
H650 H 0.61868 0.83463 0.15957 0.0
H651 H 0.54056 0.82913 0.1767 0.0
H652 H 0.56511 0.88332 0.17743 0.0
H653 H 0.61239 0.03441 0.13377 0.0
H654 H 0.64002 0.01256 0.14377 0.0
H655 H 0.56445 0.95415 0.16862 0.0
H656 H 0.53685 0.97555 0.15857 0.0
H657 H 0.58672 0.92418 0.15805 0.0
H658 H 0.62711 0.01712 0.18195 0.0
H659 H 0.65137 0.07119 0.18358 0.0
H660 H 0.72741 0.07973 0.16255 0.0
H661 H 0.70342 0.02566 0.16063 0.0
C662 C 0.65781 0.89424 0.20446 0.0
C663 C 0.68649 0.89953 0.2021 0.0
C664 C 0.64564 0.90695 0.19594 0.0
C665 C 0.66181 0.92536 0.18481 0.0
C666 C 0.6904 0.93048 0.18228 0.0
C667 C 0.70254 0.91746 0.19078 0.0
C668 C 0.64878 0.9396 0.17617 0.0
C669 C 0.6625 0.97047 0.1759 0.0
C670 C 0.62128 0.92281 0.16947 0.0
C671 C 0.60627 0.89018 0.16885 0.0
C672 C 0.62113 0.87608 0.16375 0.0
C673 C 0.60708 0.84535 0.16345 0.0
C674 C 0.57807 0.82845 0.16812 0.0
C675 C 0.56303 0.84225 0.17308 0.0
C676 C 0.57699 0.87298 0.17343 0.0
C677 C 0.60176 0.01706 0.14143 0.0
C678 C 0.5723 1.0067 0.1453 0.0
C679 C 0.6176 1.00455 0.14716 0.0
C680 C 0.60447 0.98171 0.15706 0.0
C681 C 0.57513 0.97153 0.16095 0.0
C682 C 0.55928 0.9838 0.15516 0.0
C683 C 0.62087 0.96804 0.16336 0.0
C684 C 0.60775 0.9372 0.16319 0.0
C685 C 0.64878 0.98489 0.16976 0.0
C686 C 0.66332 0.01736 0.17099 0.0
C687 C 0.64891 0.03053 0.17758 0.0
C688 C 0.66263 0.06117 0.17857 0.0
C689 C 0.69087 0.07888 0.17313 0.0
C690 C 0.70551 0.06598 0.16673 0.0
C691 C 0.69187 0.03534 0.16569 0.0
H692 H 0.70142 0.10259 0.1739 0.0
H693 H 0.56724 0.80466 0.16789 0.0
H694 H 0.97654 0.56113 0.15586 0.0
H695 H 0.99779 0.60985 0.16647 0.0
H696 H 0.07912 0.63745 0.14439 0.0
H697 H 0.05813 0.58839 0.1341 0.0
H698 H 0.09199 0.6567 0.1693 0.0
H699 H 0.02782 0.66071 0.13535 0.0
H700 H 0.98113 0.64395 0.12283 0.0
H701 H 0.94018 0.64942 0.1605 0.0
H702 H 0.98652 0.66584 0.17329 0.0
H703 H 0.14948 0.80752 0.18989 0.0
H704 H 0.13063 0.76377 0.17489 0.0
H705 H 0.04995 0.72182 0.19858 0.0
H706 H 0.06848 0.7652 0.21338 0.0
H707 H 0.03929 0.7129 0.17072 0.0
H708 H 0.10326 0.70524 0.20465 0.0
H709 H 0.15036 0.72236 0.21684 0.0
H710 H 0.19244 0.72492 0.17813 0.0
H711 H 0.14562 0.70816 0.16568 0.0
C712 C 0.99883 0.57768 0.15315 0.0
C713 C 0.01559 0.57086 0.1441 0.0
C714 C 1.011 0.60564 0.1592 0.0
C715 C 0.04003 0.62774 0.1561 0.0
C716 C 0.05673 0.62094 0.147 0.0
C717 C 0.0447 0.59284 0.14111 0.0
C718 C 0.05323 0.65755 0.16267 0.0
C719 C 0.08063 0.66917 0.16935 0.0
C720 C 0.03845 0.67393 0.16298 0.0
C721 C 1.0106 0.66429 0.1553 0.0
C722 C 1.00881 0.65816 0.14098 0.0
C723 C 0.98241 0.64875 0.13384 0.0
C724 C 0.95769 0.64556 0.14087 0.0
C725 C 0.95934 0.65187 0.15507 0.0
C726 C 0.98568 0.66127 0.16226 0.0
C727 C 0.12763 0.78905 0.19176 0.0
C728 C 0.11065 0.78969 0.20293 0.0
C729 C 0.11692 0.76401 0.18326 0.0
C730 C 0.08893 0.7393 0.18569 0.0
C731 C 0.0716 0.74047 0.1965 0.0
C732 C 0.08236 0.76524 0.20504 0.0
C733 C 0.07776 0.7117 0.1774 0.0
C734 C 0.05073 0.70052 0.17046 0.0
C735 C 0.09296 0.69584 0.17674 0.0
C736 C 0.12105 0.70579 0.18422 0.0
C737 C 0.12261 0.70968 0.19872 0.0
C738 C 0.14924 0.71928 0.20568 0.0
C739 C 0.1744 0.72482 0.19825 0.0
C740 C 0.17295 0.72068 0.18386 0.0
C741 C 0.14637 0.71112 0.17685 0.0
H742 H 0.195 0.73224 0.20366 0.0
H743 H 0.93727 0.63825 0.13532 0.0
H744 H 0.43383 0.46929 0.85345 0.0
H745 H 0.41215 0.42462 0.83907 0.0
H746 H 0.43404 0.3801 0.8705 0.0
H747 H 0.45604 0.42463 0.88468 0.0
H748 H 0.44358 0.36557 0.84505 0.0
H749 H 0.36548 0.3714 0.86818 0.0
H750 H 0.33599 0.3942 0.87461 0.0
H751 H 0.314 0.39536 0.83171 0.0
H752 H 0.34398 0.37332 0.82498 0.0
H753 H 0.3471 0.21745 0.8225 0.0
H754 H 0.372 0.26256 0.83644 0.0
H755 H 0.34561 0.30684 0.80695 0.0
H756 H 0.31983 0.26199 0.79346 0.0
H757 H 0.33869 0.3214 0.8317 0.0
H758 H 0.41757 0.31732 0.8083 0.0
H759 H 0.44729 0.29498 0.8015 0.0
H760 H 0.46751 0.29042 0.84437 0.0
H761 H 0.43758 0.31241 0.85144 0.0
C762 C 0.43451 0.45016 0.85714 0.0
C763 C 0.44646 0.45047 0.87027 0.0
C764 C 0.42186 0.42451 0.84899 0.0
C765 C 0.42098 0.3987 0.85378 0.0
C766 C 0.43424 0.39954 0.86656 0.0
C767 C 0.44669 0.42502 0.87472 0.0
C768 C 0.40528 0.37044 0.84585 0.0
C769 C 0.42056 0.3558 0.84224 0.0
C770 C 0.37532 0.35771 0.84199 0.0
C771 C 0.3573 0.37104 0.84605 0.0
C772 C 0.35463 0.37683 0.8601 0.0
C773 C 0.33782 0.38963 0.8638 0.0
C774 C 0.32327 0.39642 0.85357 0.0
C775 C 0.32543 0.39032 0.83962 0.0
C776 C 0.34235 0.37768 0.83585 0.0
C777 C 0.34641 0.23671 0.81904 0.0
C778 C 0.33165 0.23591 0.80669 0.0
C779 C 0.36093 0.26266 0.82697 0.0
C780 C 0.36119 0.28847 0.82267 0.0
C781 C 0.34599 0.28745 0.81051 0.0
C782 C 0.33144 0.26164 0.80267 0.0
C783 C 0.37704 0.3166 0.83074 0.0
C784 C 0.36174 0.33118 0.83445 0.0
C785 C 0.407 0.32932 0.83463 0.0
C786 C 0.42509 0.31622 0.8304 0.0
C787 C 0.42818 0.31136 0.81628 0.0
C788 C 0.44509 0.29879 0.81238 0.0
C789 C 0.45921 0.29121 0.8225 0.0
C790 C 0.45652 0.29626 0.83654 0.0
C791 C 0.43961 0.3088 0.8405 0.0
H792 H 0.47229 0.28148 0.81946 0.0
H793 H 0.31023 0.40628 0.85646 0.0
H794 H 0.80537 0.12934 0.82414 0.0
H795 H 0.75987 0.107 0.83809 0.0
H796 H 0.71448 0.04421 0.80539 0.0
H797 H 0.75939 0.06629 0.79158 0.0
H798 H 0.68166 0.06531 0.81344 0.0
H799 H 0.73303 0.0243 0.83636 0.0
H800 H 0.77422 0.02391 0.84842 0.0
H801 H 0.76859 0.07567 0.88152 0.0
H802 H 0.72758 0.0767 0.86956 0.0
H803 H 0.55265 0.96792 0.85482 0.0
H804 H 0.59778 0.98719 0.84084 0.0
H805 H 0.64057 0.06297 0.86754 0.0
H806 H 0.59567 0.04496 0.88104 0.0
H807 H 0.67392 0.03328 0.86256 0.0
H808 H 0.62148 0.07352 0.83799 0.0
H809 H 0.57898 0.07021 0.82548 0.0
H810 H 0.58548 0.0144 0.7948 0.0
H811 H 0.62779 0.01705 0.80726 0.0
C812 C 0.78575 0.11057 0.82004 0.0
C813 C 0.786 0.09994 0.80666 0.0
C814 C 0.75971 0.09777 0.828 0.0
C815 C 0.73351 0.07387 0.8228 0.0
C816 C 0.73412 0.0628 0.80962 0.0
C817 C 0.75993 0.07556 0.80169 0.0
C818 C 0.70516 0.0608 0.83077 0.0
C819 C 0.68 0.05797 0.82413 0.0
C820 C 0.70272 0.0513 0.84476 0.0
C821 C 0.72745 0.05086 0.85198 0.0
C822 C 0.74075 0.03583 0.84615 0.0
C823 C 0.76402 0.03544 0.85298 0.0
C824 C 0.77408 0.04983 0.86571 0.0
C825 C 0.76081 0.06458 0.87165 0.0
C826 C 0.73753 0.06505 0.86485 0.0
C827 C 0.57143 0.98889 0.85761 0.0
C828 C 0.57029 1.00452 0.86928 0.0
C829 C 0.59735 0.99979 0.84966 0.0
C830 C 0.62273 0.02636 0.85327 0.0
C831 C 0.62147 0.04221 0.86468 0.0
C832 C 0.5956 0.03169 0.87245 0.0
C833 C 0.65072 0.03798 0.84522 0.0
C834 C 0.67573 0.04055 0.85186 0.0
C835 C 0.65293 0.04673 0.83115 0.0
C836 C 0.62756 0.04519 0.82364 0.0
C837 C 0.61366 0.06031 0.82865 0.0
C838 C 0.58965 0.05861 0.82155 0.0
C839 C 0.57947 0.04203 0.80938 0.0
C840 C 0.59335 0.02719 0.80425 0.0
C841 C 0.61736 0.02879 0.81132 0.0
H842 H 0.56088 0.04074 0.80389 0.0
H843 H 0.79209 0.04949 0.87098 0.0
H844 H 0.04314 0.57847 0.8544 0.0
H845 H 0.02004 0.60048 0.84038 0.0
H846 H 0.96037 0.58698 0.87413 0.0
H847 H 0.98243 0.56405 0.88785 0.0
H848 H 0.93163 0.5763 0.85093 0.0
H849 H 0.02418 0.6552 0.86741 0.0
H850 H 0.07802 0.68206 0.87063 0.0
H851 H 0.09056 0.69088 0.82637 0.0
H852 H 0.03677 0.66371 0.82288 0.0
H853 H 0.88552 0.67662 0.82738 0.0
H854 H 0.90777 0.65394 0.8417 0.0
H855 H 0.96502 0.66266 0.8076 0.0
H856 H 0.94347 0.68558 0.79354 0.0
H857 H 0.99491 0.6762 0.83127 0.0
H858 H 0.90219 0.59679 0.81493 0.0
H859 H 0.84833 0.5698 0.81182 0.0
H860 H 0.83619 0.56235 0.85612 0.0
H861 H 0.89002 0.58966 0.85949 0.0
C862 C 0.02475 0.5797 0.85872 0.0
C863 C 0.01495 0.56979 0.87235 0.0
C864 C 1.01175 0.59264 0.85075 0.0
C865 C 0.98877 0.59608 0.85627 0.0
C866 C 0.97813 0.58489 0.86961 0.0
C867 C 0.99099 0.57195 0.87752 0.0
C868 C 0.9762 0.61195 0.84844 0.0
C869 C 0.94551 0.59829 0.84679 0.0
C870 C 0.99413 0.64055 0.84281 0.0
C871 C 0.02646 0.65716 0.84489 0.0
C872 C 0.03843 0.66271 0.85836 0.0
C873 C 0.06893 0.678 0.86024 0.0
C874 C 0.0877 0.6881 0.84871 0.0
C875 C 0.07599 0.68301 0.83529 0.0
C876 C 0.0455 0.66768 0.83336 0.0
C877 C 0.90307 0.67396 0.82305 0.0
C878 C 0.91236 0.68251 0.80924 0.0
C879 C 0.91565 0.6608 0.83118 0.0
C880 C 0.93787 0.65611 0.82568 0.0
C881 C 0.94788 0.6658 0.81211 0.0
C882 C 0.93529 0.67871 0.80401 0.0
C883 C 0.95037 0.64053 0.83377 0.0
C884 C 0.98105 0.65425 0.83546 0.0
C885 C 0.93244 0.61204 0.83947 0.0
C886 C 0.90011 0.59554 0.83746 0.0
C887 C 0.88803 0.58959 0.82401 0.0
C888 C 0.85751 0.5742 0.8222 0.0
C889 C 0.83885 0.56444 0.83377 0.0
C890 C 0.85067 0.56998 0.84717 0.0
C891 C 0.88118 0.58539 0.84903 0.0
H892 H 0.81523 0.55253 0.83234 0.0
H893 H 0.1113 0.69992 0.85018 0.0
H894 H 0.75322 0.70729 0.79074 0.0
H895 H 0.70879 0.67982 0.80445 0.0
H896 H 0.76048 0.68162 0.83963 0.0
H897 H 0.8058 0.709 0.82563 0.0
H898 H 0.70993 0.62872 0.8379 0.0
H899 H 0.7332 0.72879 0.83766 0.0
H900 H 0.74653 0.77707 0.82751 0.0
H901 H 0.66623 0.73736 0.80406 0.0
H902 H 0.65262 0.68873 0.81391 0.0
H903 H 0.6 0.60479 0.88837 0.0
H904 H 0.64364 0.62241 0.87375 0.0
H905 H 0.59155 0.61278 0.83741 0.0
H906 H 0.54728 0.59458 0.85216 0.0
H907 H 0.64225 0.66882 0.83989 0.0
H908 H 0.61885 0.56822 0.8415 0.0
H909 H 0.60635 0.52112 0.85274 0.0
H910 H 0.68786 0.56357 0.87521 0.0
H911 H 0.70068 0.61106 0.86426 0.0
C912 C 0.7554 0.70194 0.8014 0.0
C913 C 0.7833 0.71085 0.80713 0.0
C914 C 0.72978 0.68618 0.80926 0.0
C915 C 0.73111 0.67919 0.82322 0.0
C916 C 0.75882 0.68695 0.82891 0.0
C917 C 0.78472 0.70263 0.82092 0.0
C918 C 0.70346 0.66449 0.83173 0.0
C919 C 0.69537 0.63773 0.8385 0.0
C920 C 0.68398 0.67582 0.83235 0.0
C921 C 0.69202 0.70505 0.82643 0.0
C922 C 0.71848 0.7303 0.83026 0.0
C923 C 0.72608 0.75774 0.82457 0.0
C924 C 0.70728 0.76026 0.81512 0.0
C925 C 0.6808 0.73536 0.81137 0.0
C926 C 0.67312 0.70785 0.81701 0.0
C927 C 0.59765 0.60586 0.87723 0.0
C928 C 0.57016 0.59826 0.87142 0.0
C929 C 0.62268 0.61589 0.86887 0.0
C930 C 0.62102 0.61892 0.85445 0.0
C931 C 0.59339 0.61056 0.84851 0.0
C932 C 0.56807 0.59996 0.85691 0.0
C933 C 0.64858 0.63293 0.84593 0.0
C934 C 0.65674 0.65972 0.83923 0.0
C935 C 0.66822 0.62181 0.84556 0.0
C936 C 0.66061 0.59327 0.85214 0.0
C937 C 0.634 0.56758 0.84893 0.0
C938 C 0.62688 0.54079 0.85523 0.0
C939 C 0.64627 0.53936 0.86471 0.0
C940 C 0.67285 0.56472 0.86788 0.0
C941 C 0.68007 0.59157 0.86161 0.0
H942 H 0.64071 0.5186 0.86957 0.0
H943 H 0.71319 0.78153 0.81073 0.0
H944 H 0.36589 0.94594 0.88272 0.0
H945 H 0.35058 0.97584 0.86994 0.0
H946 H 0.43344 0.0183 0.84801 0.0
H947 H 0.44942 0.98848 0.86116 0.0
H948 H 0.41809 0.05829 0.85578 0.0
H949 H 0.36987 0.96656 0.83198 0.0
H950 H 0.33975 0.91269 0.82941 0.0
H951 H 0.2653 0.91414 0.84696 0.0
H952 H 0.29511 0.968 0.84982 0.0
H953 H 0.3672 0.11375 0.80079 0.0
H954 H 0.38704 0.09053 0.81593 0.0
H955 H 0.30765 0.05256 0.84055 0.0
H956 H 0.28774 0.07623 0.82536 0.0
H957 H 0.322 0.01112 0.83139 0.0
H958 H 0.37148 0.10432 0.85445 0.0
H959 H 0.40237 0.15829 0.85605 0.0
H960 H 0.47539 0.15414 0.83852 0.0
H961 H 0.4448 0.10014 0.83662 0.0
C962 C 0.38101 0.96151 0.87516 0.0
C963 C 0.40896 0.9646 0.87297 0.0
C964 C 0.37207 0.9786 0.86777 0.0
C965 C 0.39058 0.99917 0.85782 0.0
C966 C 0.41864 1.00254 0.8556 0.0
C967 C 0.42771 0.98534 0.86306 0.0
C968 C 0.38035 0.01703 0.84993 0.0
C969 C 0.39729 0.04793 0.85027 0.0
C970 C 0.35287 1.00371 0.84295 0.0
C971 C 0.33482 0.97131 0.84123 0.0
C972 C 0.34714 0.95537 0.83539 0.0
C973 C 0.33011 0.92484 0.83387 0.0
C974 C 0.30065 0.90999 0.83805 0.0
C975 C 0.28814 0.92567 0.84374 0.0
C976 C 0.30508 0.95621 0.8453 0.0
C977 C 0.35432 0.10121 0.80969 0.0
C978 C 0.32603 0.09709 0.81197 0.0
C979 C 0.36569 0.08787 0.81834 0.0
C980 C 0.34892 0.06973 0.82942 0.0
C981 C 0.32106 0.0665 0.83209 0.0
C982 C 0.30982 0.0803 0.82352 0.0
C983 C 0.35958 0.05233 0.83735 0.0
C984 C 0.34275 0.02148 0.83695 0.0
C985 C 0.38726 0.06571 0.84412 0.0
C986 C 0.40575 0.09818 0.84528 0.0
C987 C 0.39405 0.11493 0.85082 0.0
C988 C 0.41152 0.14553 0.85181 0.0
C989 C 0.4408 0.15965 0.84736 0.0
C990 C 0.45269 0.14318 0.84195 0.0
C991 C 0.43531 0.11257 0.84093 0.0
H992 H 0.45429 0.18334 0.84813 0.0
H993 H 0.28749 0.88635 0.83686 0.0
H994 H 0.0159 0.4158 0.88988 0.0
H995 H 0.98883 0.37162 0.87581 0.0
H996 H 0.03093 0.42193 0.83881 0.0
H997 H 0.05738 0.46686 0.85299 0.0
H998 H 0.97628 0.38108 0.83281 0.0
H999 H 0.05565 0.37917 0.85631 0.0
H1000 H 0.08583 0.38166 0.87645 0.0
H1001 H 1.01116 0.30688 0.89485 0.0
H1002 H 0.98041 0.30419 0.8749 0.0
H1003 H 0.96621 0.26663 0.79085 0.0
H1004 H 0.9812 0.30938 0.80545 0.0
H1005 H 0.92966 0.25326 0.83935 0.0
H1006 H 0.91444 0.20953 0.82459 0.0
H1007 H 0.98557 0.2955 0.84757 0.0
H1008 H 0.90746 0.29579 0.8222 0.0
H1009 H 0.87946 0.29367 0.80124 0.0
H1010 H 0.95438 0.37194 0.78539 0.0
H1011 H 0.98298 0.37431 0.80616 0.0
C1012 C 0.01906 0.4176 0.8787 0.0
C1013 C 0.03893 0.4448 0.87255 0.0
C1014 C 1.00371 0.39219 0.87066 0.0
C1015 C 1.0084 0.393 0.85624 0.0
C1016 C 0.02703 0.42053 0.84992 0.0
C1017 C 0.04209 0.44626 0.85801 0.0
C1018 C 0.99483 0.36495 0.84801 0.0
C1019 C 0.9786 0.36252 0.83598 0.0
C1020 C 0.99717 0.34024 0.85222 0.0
C1021 C 0.01566 0.34166 0.86418 0.0
C1022 C 0.04562 0.36338 0.8647 0.0
C1023 C 0.06283 0.36481 0.87607 0.0
C1024 C 0.0504 0.34449 0.88694 0.0
C1025 C 0.02075 0.32263 0.88643 0.0
C1026 C 1.00342 0.32113 0.87509 0.0
C1027 C 0.95775 0.26309 0.80138 0.0
C1028 C 0.93906 0.23439 0.80651 0.0
C1029 C 0.96629 0.2878 0.80972 0.0
C1030 C 0.95638 0.2848 0.82349 0.0
C1031 C 0.93752 0.25622 0.82873 0.0
C1032 C 0.92872 0.23123 0.82027 0.0
C1033 C 0.96707 0.31166 0.83238 0.0
C1034 C 0.98294 0.31393 0.8445 0.0
C1035 C 0.96468 0.3363 0.82816 0.0
C1036 C 0.94743 0.33511 0.81571 0.0
C1037 C 0.91803 0.31245 0.8142 0.0
C1038 C 0.90204 0.31122 0.80236 0.0
C1039 C 0.91515 0.33263 0.79198 0.0
C1040 C 0.94425 0.35536 0.79344 0.0
C1041 C 0.96035 0.35669 0.80526 0.0
H1042 H 0.90274 0.33162 0.78281 0.0
H1043 H 0.06377 0.34564 0.89574 0.0
H1044 H 0.72118 0.80255 0.187 0.0
H1045 H 0.6931 0.75775 0.17292 0.0
H1046 H 0.68267 0.70424 0.20895 0.0
H1047 H 0.71108 0.74826 0.22272 0.0
H1048 H 0.69756 0.68337 0.18877 0.0
H1049 H 0.62512 0.71315 0.19413 0.0
H1050 H 0.60568 0.74713 0.19242 0.0
H1051 H 0.61728 0.75156 0.1481 0.0
H1052 H 0.63715 0.71788 0.14956 0.0
H1053 H 0.5952 0.54345 0.16005 0.0
H1054 H 0.6139 0.58753 0.17487 0.0
H1055 H 0.6331 0.6419 0.13831 0.0
H1056 H 0.61457 0.59845 0.12365 0.0
H1057 H 0.6124 0.6618 0.15877 0.0
H1058 H 0.6864 0.63345 0.15383 0.0
H1059 H 0.70547 0.59916 0.1556 0.0
H1060 H 0.69022 0.59201 0.19969 0.0
H1061 H 0.67067 0.62596 0.19814 0.0
C1062 C 0.71269 0.78119 0.19188 0.0
C1063 C 0.71869 0.77912 0.20596 0.0
C1064 C 0.69652 0.75552 0.18385 0.0
C1065 C 0.68557 0.72731 0.18982 0.0
C1066 C 0.69099 0.72549 0.20397 0.0
C1067 C 0.70732 0.75088 0.21187 0.0
C1068 C 0.6694 0.69949 0.1815 0.0
C1069 C 0.67866 0.6786 0.1824 0.0
C1070 C 0.64502 0.69315 0.17288 0.0
C1071 C 0.6329 0.71323 0.17197 0.0
C1072 C 0.62371 0.72153 0.18403 0.0
C1073 C 0.61259 0.74071 0.1831 0.0
C1074 C 0.61033 0.75157 0.17016 0.0
C1075 C 0.61909 0.74317 0.15811 0.0
C1076 C 0.63026 0.72402 0.15898 0.0
C1077 C 0.60285 0.56474 0.15524 0.0
C1078 C 0.60361 0.56742 0.14067 0.0
C1079 C 0.61374 0.58998 0.16369 0.0
C1080 C 0.62534 0.61825 0.15771 0.0
C1081 C 0.62441 0.62053 0.14322 0.0
C1082 C 0.61388 0.59556 0.13483 0.0
C1083 C 0.64038 0.64572 0.16627 0.0
C1084 C 0.6311 0.66658 0.1653 0.0
C1085 C 0.66469 0.65207 0.17488 0.0
C1086 C 0.67677 0.63196 0.17584 0.0
C1087 C 0.68693 0.6244 0.16388 0.0
C1088 C 0.69785 0.60506 0.16485 0.0
C1089 C 0.69896 0.59334 0.17775 0.0
C1090 C 0.68929 0.60106 0.18971 0.0
C1091 C 0.6783 0.62035 0.18879 0.0
H1092 H 0.70735 0.57831 0.17848 0.0
H1093 H 0.60174 0.76644 0.16947 0.0
H1094 H 0.2231 0.94177 0.18655 0.0
H1095 H 0.2673 0.96449 0.17174 0.0
H1096 H 0.31542 0.94838 0.20356 0.0
H1097 H 0.27187 0.92683 0.21842 0.0
H1098 H 0.34612 1.00205 0.19624 0.0
H1099 H 0.29598 0.91182 0.1708 0.0
H1100 H 0.25506 0.87167 0.15787 0.0
H1101 H 0.26015 0.93344 0.1271 0.0
H1102 H 0.30087 0.97405 0.13996 0.0
H1103 H 0.47722 0.04411 0.15635 0.0
H1104 H 0.43091 0.01466 0.16916 0.0
H1105 H 0.38738 0.04561 0.1417 0.0
H1106 H 0.43337 0.07531 0.12904 0.0
H1107 H 0.35467 0.98407 0.14631 0.0
H1108 H 0.40465 0.07406 0.1726 0.0
H1109 H 0.44629 0.11328 0.18559 0.0
H1110 H 0.44189 0.04953 0.21499 0.0
H1111 H 0.40045 0.00985 0.20205 0.0
C1112 C 0.2429 0.94232 0.19016 0.0
C1113 C 0.24402 0.93244 0.20361 0.0
C1114 C 0.26825 0.95543 0.18171 0.0
C1115 C 0.29499 0.95836 0.18649 0.0
C1116 C 0.29536 0.94678 0.19962 0.0
C1117 C 0.27032 0.9342 0.20808 0.0
C1118 C 0.32315 0.97535 0.17847 0.0
C1119 C 0.34795 0.99764 0.18538 0.0
C1120 C 0.32575 0.97037 0.16418 0.0
C1121 C 0.30127 0.94603 0.15642 0.0
C1122 C 0.28821 0.91689 0.16134 0.0
C1123 C 0.26509 0.89403 0.15401 0.0
C1124 C 0.25496 0.90001 0.14169 0.0
C1125 C 0.26799 0.92885 0.13666 0.0
C1126 C 0.29111 0.95179 0.14396 0.0
C1127 C 0.45785 0.04481 0.1531 0.0
C1128 C 0.45919 0.0623 0.1417 0.0
C1129 C 0.43135 0.0279 0.16041 0.0
C1130 C 0.40558 0.02786 0.15638 0.0
C1131 C 0.40687 0.04514 0.14498 0.0
C1132 C 0.43334 0.06232 0.1378 0.0
C1133 C 0.37738 0.01028 0.16417 0.0
C1134 C 0.35266 0.98813 0.1572 0.0
C1135 C 0.37486 0.01513 0.17844 0.0
C1136 C 0.39967 0.03896 0.18627 0.0
C1137 C 0.41273 0.06837 0.18176 0.0
C1138 C 0.43626 0.09069 0.18913 0.0
C1139 C 0.44679 0.08389 0.20108 0.0
C1140 C 0.43374 0.05476 0.20572 0.0
C1141 C 0.41022 0.03235 0.19837 0.0
H1142 H 0.465 0.1012 0.20678 0.0
H1143 H 0.23705 0.88229 0.13603 0.0
H1144 H 0.11031 0.32904 0.19851 0.0
H1145 H 0.09147 0.35615 0.18515 0.0
H1146 H 1.0028 0.28441 0.191 0.0
H1147 H 0.02129 0.25763 0.20447 0.0
H1148 H 0.01619 0.3067 0.16317 0.0
H1149 H 0.02561 0.34161 0.21076 0.0
H1150 H 0.05355 0.36469 0.23214 0.0
H1151 H 0.11112 0.44327 0.20926 0.0
H1152 H 0.08374 0.42045 0.18769 0.0
H1153 H 0.91946 0.35634 0.14752 0.0
H1154 H 0.94732 0.33748 0.15963 0.0
H1155 H 0.02514 0.42349 0.15778 0.0
H1156 H 0.99682 0.44285 0.14601 0.0
H1157 H 0.02424 0.39858 0.18172 0.0
H1158 H 0.01435 0.36766 0.13478 0.0
H1159 H 0.98911 0.34602 0.11265 0.0
H1160 H 0.93695 0.26226 0.1327 0.0
H1161 H 0.96157 0.2835 0.15501 0.0
C1162 C 0.08684 0.31899 0.19682 0.0
C1163 C 0.06728 0.2912 0.20257 0.0
C1164 C 0.07609 0.33454 0.18926 0.0
C1165 C 0.04568 0.32236 0.18713 0.0
C1166 C 0.02631 0.29426 0.1925 0.0
C1167 C 0.03694 0.27901 0.20024 0.0
C1168 C 0.03358 0.33875 0.17956 0.0
C1169 C 0.0178 0.3267 0.16725 0.0
C1170 C 0.03659 0.36544 0.18461 0.0
C1171 C 0.05286 0.3792 0.19759 0.0
C1172 C 0.04439 0.36371 0.21027 0.0
C1173 C 0.06009 0.37676 0.22242 0.0
C1174 C 0.08416 0.4054 0.22205 0.0
C1175 C 0.09251 0.42107 0.20953 0.0
C1176 C 0.0769 0.40809 0.19734 0.0
C1177 C 0.94245 0.37138 0.14978 0.0
C1178 C 0.95595 0.40106 0.14567 0.0
C1179 C 0.95846 0.36049 0.15664 0.0
C1180 C 0.98865 0.37878 0.15929 0.0
C1181 C 1.00197 0.40881 0.15576 0.0
C1182 C 0.98575 0.41988 0.14904 0.0
C1183 C 1.00603 0.36608 0.16546 0.0
C1184 C 0.02287 0.3788 0.17749 0.0
C1185 C 1.00446 0.34022 0.16002 0.0
C1186 C 0.98968 0.32725 0.1466 0.0
C1187 C 0.99736 0.34467 0.13449 0.0
C1188 C 0.98318 0.33247 0.12191 0.0
C1189 C 0.9614 0.3028 0.12128 0.0
C1190 C 0.95381 0.28525 0.13322 0.0
C1191 C 0.9679 0.29735 0.14583 0.0
H1192 H 0.95045 0.29339 0.11153 0.0
H1193 H 0.09628 0.41547 0.23148 0.0
H1194 H 0.09307 0.77682 0.45691 0.0
H1195 H 0.0474 0.75514 0.47026 0.0
H1196 H 0.09184 0.74387 0.50537 0.0
H1197 H 0.13778 0.76516 0.49182 0.0
H1198 H 0.03987 0.69421 0.5005 0.0
H1199 H 0.07118 0.79648 0.50534 0.0
H1200 H 0.08836 0.84721 0.49738 0.0
H1201 H 1.00946 0.81706 0.47343 0.0
H1202 H 0.99198 0.76604 0.4811 0.0
H1203 H 0.93089 0.66174 0.55135 0.0
H1204 H 0.97506 0.68333 0.53702 0.0
H1205 H 0.9263 0.69086 0.50277 0.0
H1206 H 0.88157 0.66946 0.51738 0.0
H1207 H 0.97939 0.74174 0.50648 0.0
H1208 H 0.94743 0.63958 0.50217 0.0
H1209 H 0.93011 0.58895 0.51034 0.0
H1210 H 1.01016 0.61885 0.53331 0.0
H1211 H 0.02779 0.66977 0.52545 0.0
C1212 C 0.09322 0.76987 0.4675 0.0
C1213 C 0.11914 0.77265 0.47326 0.0
C1214 C 0.06706 0.75763 0.47517 0.0
C1215 C 0.06602 0.74793 0.48889 0.0
C1216 C 0.092 0.75118 0.49481 0.0
C1217 C 0.11835 0.76361 0.48711 0.0
C1218 C 0.03754 0.73341 0.49675 0.0
C1219 C 0.0269 0.70482 0.50198 0.0
C1220 C 0.01996 0.74673 0.49832 0.0
C1221 C 0.0304 0.77739 0.49369 0.0
C1222 C 0.0576 0.80062 0.49829 0.0
C1223 C 0.06737 0.82944 0.49384 0.0
C1224 C 0.05005 0.83534 0.48487 0.0
C1225 C 0.02287 0.81244 0.48036 0.0
C1226 C 1.01301 0.78358 0.48477 0.0
C1227 C 0.92944 0.66799 0.54078 0.0
C1228 C 0.90268 0.66411 0.53556 0.0
C1229 C 0.95476 0.68013 0.53253 0.0
C1230 C 0.95415 0.68863 0.51875 0.0
C1231 C 0.92737 0.68446 0.51337 0.0
C1232 C 0.90178 0.67205 0.52166 0.0
C1233 C 0.98183 0.70263 0.51029 0.0
C1234 C 0.99233 0.7311 0.50495 0.0
C1235 C 0.99928 0.6892 0.50861 0.0
C1236 C 0.98883 0.65856 0.51331 0.0
C1237 C 0.96125 0.63541 0.50905 0.0
C1238 C 0.95139 0.60665 0.51361 0.0
C1239 C 0.969 0.6007 0.52236 0.0
C1240 C 0.99654 0.6235 0.52654 0.0
C1241 C 1.00649 0.65232 0.52202 0.0
H1242 H 0.96133 0.57841 0.52588 0.0
H1243 H 0.05765 0.85767 0.48144 0.0
H1244 H 0.26371 0.37796 0.48821 0.0
H1245 H 0.29195 0.35693 0.49824 0.0
H1246 H 0.24304 0.27902 0.47319 0.0
H1247 H 0.21394 0.29955 0.4637 0.0
H1248 H 0.24739 0.26185 0.49697 0.0
H1249 H 0.31925 0.33544 0.467 0.0
H1250 H 0.34951 0.38503 0.45691 0.0
H1251 H 0.38884 0.41844 0.49677 0.0
H1252 H 0.35854 0.36913 0.50714 0.0
H1253 H 0.34235 0.20637 0.51731 0.0
H1254 H 0.32001 0.22761 0.502 0.0
H1255 H 0.34807 0.30066 0.53019 0.0
H1256 H 0.36999 0.27949 0.54536 0.0
H1257 H 0.35584 0.31839 0.50248 0.0
H1258 H 0.27966 0.24436 0.53219 0.0
H1259 H 0.24976 0.19412 0.54165 0.0
H1260 H 0.21955 0.16082 0.50056 0.0
H1261 H 0.24961 0.21085 0.49084 0.0
C1262 C 0.25925 0.35649 0.48476 0.0
C1263 C 0.23662 0.34042 0.47516 0.0
C1264 C 0.27551 0.34446 0.49045 0.0
C1265 C 0.27014 0.31643 0.48636 0.0
C1266 C 0.24774 0.3006 0.4766 0.0
C1267 C 0.23109 0.31236 0.47115 0.0
C1268 C 0.28692 0.30309 0.49264 0.0
C1269 C 0.27117 0.27415 0.49787 0.0
C1270 C 0.318 0.31896 0.49409 0.0
C1271 C 0.33644 0.34862 0.48787 0.0
C1272 C 0.33423 0.3534 0.47363 0.0
C1273 C 0.3514 0.38146 0.46786 0.0
C1274 C 0.37104 0.40488 0.4762 0.0
C1275 C 0.37361 0.40028 0.49033 0.0
C1276 C 0.35646 0.37227 0.49615 0.0
C1277 C 0.34407 0.22717 0.52005 0.0
C1278 C 0.35763 0.24117 0.53255 0.0
C1279 C 0.33122 0.23923 0.51137 0.0
C1280 C 0.33213 0.26566 0.51501 0.0
C1281 C 0.34702 0.28029 0.52715 0.0
C1282 C 0.3594 0.2681 0.53585 0.0
C1283 C 0.31622 0.27747 0.50677 0.0
C1284 C 0.33211 0.3061 0.50128 0.0
C1285 C 0.28535 0.26124 0.50492 0.0
C1286 C 0.26712 0.23125 0.51078 0.0
C1287 C 0.26681 0.22628 0.52517 0.0
C1288 C 0.24981 0.19786 0.53058 0.0
C1289 C 0.23284 0.17428 0.52171 0.0
C1290 C 0.23275 0.17909 0.50741 0.0
C1291 C 0.24975 0.20747 0.50195 0.0
H1292 H 0.21969 0.15229 0.52592 0.0
H1293 H 0.3843 0.42659 0.47172 0.0
H1294 H 0.71658 0.91414 0.47037 0.0
H1295 H 0.73827 0.95909 0.48439 0.0
H1296 H 0.65452 0.92925 0.50446 0.0
H1297 H 0.63282 0.8839 0.49046 0.0
H1298 H 0.68069 0.98736 0.49334 0.0
H1299 H 0.70823 0.93092 0.52274 0.0
H1300 H 0.73034 0.90022 0.52794 0.0
H1301 H 0.81455 0.96961 0.514 0.0
H1302 H 0.79284 1.00059 0.50852 0.0
H1303 H 0.72557 0.09411 0.54673 0.0
H1304 H 0.70664 0.04869 0.53331 0.0
H1305 H 0.79227 0.08089 0.51483 0.0
H1306 H 0.81129 0.12688 0.52826 0.0
H1307 H 0.76657 0.02215 0.5248 0.0
H1308 H 0.74243 0.07814 0.49496 0.0
H1309 H 0.72301 0.11003 0.48755 0.0
H1310 H 0.63598 0.04372 0.49989 0.0
H1311 H 0.65498 0.01154 0.50761 0.0
C1312 C 0.70297 0.91695 0.47797 0.0
C1313 C 0.67306 0.89548 0.47938 0.0
C1314 C 0.71537 0.94263 0.48598 0.0
C1315 C 0.69807 0.94762 0.4955 0.0
C1316 C 0.66832 0.92587 0.49719 0.0
C1317 C 0.65599 0.89987 0.48931 0.0
C1318 C 0.71078 0.97627 0.50302 0.0
C1319 C 0.69909 0.9947 0.50043 0.0
C1320 C 0.73572 0.98653 0.51176 0.0
C1321 C 0.74883 0.96797 0.51509 0.0
C1322 C 0.7314 0.93954 0.52066 0.0
C1323 C 0.74388 0.92211 0.52369 0.0
C1324 C 0.77381 0.93293 0.52127 0.0
C1325 C 0.79135 0.96124 0.51585 0.0
C1326 C 0.77898 0.97876 0.5128 0.0
C1327 C 0.74037 0.09157 0.53978 0.0
C1328 C 0.76996 0.11401 0.53858 0.0
C1329 C 0.72949 0.06563 0.53207 0.0
C1330 C 0.74799 0.06128 0.52305 0.0
C1331 C 0.77758 0.08372 0.52174 0.0
C1332 C 0.78839 0.11003 0.52932 0.0
C1333 C 0.73617 0.03302 0.51527 0.0
C1334 C 0.74807 0.01473 0.51777 0.0
C1335 C 0.71174 0.02306 0.50624 0.0
C1336 C 0.7002 0.04255 0.50201 0.0
C1337 C 0.71921 0.07049 0.49628 0.0
C1338 C 0.70828 0.08859 0.49198 0.0
C1339 C 0.67831 0.07892 0.49326 0.0
C1340 C 0.65921 0.05118 0.49891 0.0
C1341 C 0.67005 0.03299 0.50325 0.0
H1342 H 0.66992 0.09289 0.48977 0.0
H1343 H 0.78343 0.9194 0.52362 0.0
H1344 H 0.37665 0.13435 0.52279 0.0
H1345 H 0.34841 0.08874 0.50935 0.0
H1346 H 0.36274 0.04001 0.54154 0.0
H1347 H 0.39133 0.08502 0.55464 0.0
H1348 H 0.37046 0.02176 0.51819 0.0
H1349 H 0.29478 0.03841 0.53633 0.0
H1350 H 0.26939 0.06647 0.54044 0.0
H1351 H 0.25844 0.07126 0.49644 0.0
H1352 H 0.28412 0.04353 0.49206 0.0
H1353 H 0.2678 0.87733 0.49448 0.0
H1354 H 0.28789 0.92114 0.50955 0.0
H1355 H 0.28574 0.97273 0.47511 0.0
H1356 H 0.26613 0.92943 0.46015 0.0
H1357 H 0.27049 0.98865 0.49982 0.0
H1358 H 0.34735 0.97297 0.48198 0.0
H1359 H 0.37179 0.94395 0.478 0.0
H1360 H 0.37977 0.93674 0.52208 0.0
H1361 H 0.3549 0.96533 0.52632 0.0
C1362 C 0.37375 0.1139 0.52698 0.0
C1363 C 0.38641 0.11357 0.53982 0.0
C1364 C 0.35743 0.08773 0.51932 0.0
C1365 C 0.35308 0.0606 0.52443 0.0
C1366 C 0.36573 0.06043 0.53725 0.0
C1367 C 0.38212 0.08641 0.54479 0.0
C1368 C 0.33584 0.03231 0.51653 0.0
C1369 C 0.34843 0.01445 0.51438 0.0
C1370 C 0.3072 0.02262 0.51127 0.0
C1371 C 0.29164 0.03917 0.51387 0.0
C1372 C 0.28714 0.04563 0.52753 0.0
C1373 C 0.27267 0.06144 0.52991 0.0
C1374 C 0.26238 0.07071 0.51871 0.0
C1375 C 0.26647 0.0641 0.50511 0.0
C1376 C 0.28096 0.04832 0.50267 0.0
C1377 C 0.27081 0.89782 0.49029 0.0
C1378 C 0.26534 0.89995 0.47616 0.0
C1379 C 0.28254 0.92293 0.49885 0.0
C1380 C 0.28868 0.95043 0.49343 0.0
C1381 C 0.28127 0.95191 0.47957 0.0
C1382 C 0.27004 0.92709 0.47101 0.0
C1383 C 0.30505 0.9782 0.50168 0.0
C1384 C 0.29241 0.99598 0.50379 0.0
C1385 C 0.33359 0.98778 0.50698 0.0
C1386 C 0.34895 0.97099 0.50447 0.0
C1387 C 0.35412 0.96501 0.49082 0.0
C1388 C 0.36806 0.94866 0.48852 0.0
C1389 C 0.37723 0.93842 0.49978 0.0
C1390 C 0.37258 0.94463 0.51337 0.0
C1391 C 0.35857 0.96091 0.51573 0.0
H1392 H 0.38797 0.92573 0.49797 0.0
H1393 H 0.25119 0.08296 0.52057 0.0
H1394 H 0.09364 0.41008 0.46174 0.0
H1395 H 0.04678 0.37983 0.47352 0.0
H1396 H 0.08403 0.33554 0.49629 0.0
H1397 H 0.13112 0.36543 0.48421 0.0
H1398 H 0.03077 0.29647 0.48723 0.0
H1399 H 0.07079 0.38818 0.51152 0.0
H1400 H 0.0927 0.4419 0.51391 0.0
H1401 H 0.01629 0.43698 0.49508 0.0
H1402 H 0.99409 0.38325 0.4924 0.0
H1403 H 0.92686 0.23671 0.5423 0.0
H1404 H 0.96879 0.26173 0.52659 0.0
H1405 H 0.92356 0.29807 0.50389 0.0
H1406 H 0.88118 0.27282 0.51978 0.0
H1407 H 0.97884 0.34054 0.51153 0.0
H1408 H 0.93764 0.24762 0.48871 0.0
H1409 H 0.9161 0.19385 0.48696 0.0
H1410 H 0.99507 0.20097 0.5038 0.0
H1411 H 0.01696 0.25476 0.50585 0.0
C1412 C 0.09206 0.39406 0.46931 0.0
C1413 C 0.11636 0.39037 0.47204 0.0
C1414 C 0.06513 0.37677 0.47611 0.0
C1415 C 0.06175 0.35552 0.48597 0.0
C1416 C 0.08598 0.35178 0.48876 0.0
C1417 C 0.113 0.36904 0.4819 0.0
C1418 C 0.03283 0.33698 0.49316 0.0
C1419 C 0.01963 0.30616 0.49269 0.0
C1420 C 0.01767 0.34943 0.49997 0.0
C1421 C 0.03092 0.38172 0.50162 0.0
C1422 C 0.05876 0.39858 0.50779 0.0
C1423 C 0.07122 0.42903 0.50921 0.0
C1424 C 0.05594 0.44286 0.50461 0.0
C1425 C 0.02813 0.42624 0.49861 0.0
C1426 C 0.01558 0.39579 0.49715 0.0
C1427 C 0.92543 0.24931 0.5337 0.0
C1428 C 0.90058 0.25255 0.5322 0.0
C1429 C 0.9495 0.26366 0.52471 0.0
C1430 C 0.94947 0.28181 0.51398 0.0
C1431 C 0.92412 0.28414 0.51206 0.0
C1432 C 0.89975 0.26942 0.52103 0.0
C1433 C 0.97688 0.30006 0.50567 0.0
C1434 C 0.98986 0.33085 0.50597 0.0
C1435 C 0.9919 0.28758 0.49878 0.0
C1436 C 0.97886 0.25523 0.49753 0.0
C1437 C 0.95034 0.23771 0.49215 0.0
C1438 C 0.93808 0.20722 0.49108 0.0
C1439 C 0.95418 0.19399 0.49529 0.0
C1440 C 0.98262 0.21124 0.50055 0.0
C1441 C 0.99497 0.24174 0.50165 0.0
H1442 H 0.94465 0.17038 0.49446 0.0
H1443 H 0.06562 0.46643 0.50572 0.0
H1444 H 0.76255 0.63067 0.51977 0.0
H1445 H 0.74376 0.65693 0.50574 0.0
H1446 H 0.70845 0.674 0.54282 0.0
H1447 H 0.72593 0.64703 0.55659 0.0
H1448 H 0.66911 0.65725 0.52461 0.0
H1449 H 0.7721 0.72866 0.52398 0.0
H1450 H 0.82495 0.74729 0.52002 0.0
H1451 H 0.80856 0.72648 0.47661 0.0
H1452 H 0.75552 0.70736 0.48034 0.0
H1453 H 0.63248 0.7592 0.49333 0.0
H1454 H 0.65897 0.74123 0.50781 0.0
H1455 H 0.67813 0.70622 0.47131 0.0
H1456 H 0.6516 0.72355 0.45696 0.0
H1457 H 0.72652 0.73406 0.48935 0.0
H1458 H 0.62284 0.66126 0.4909 0.0
H1459 H 0.57044 0.64424 0.49527 0.0
H1460 H 0.58965 0.67035 0.53803 0.0
H1461 H 0.64229 0.68794 0.53385 0.0
C1462 C 0.75104 0.64032 0.5249 0.0
C1463 C 0.7456 0.63656 0.53929 0.0
C1464 C 0.74034 0.65545 0.51688 0.0
C1465 C 0.72462 0.66772 0.52316 0.0
C1466 C 0.72014 0.66464 0.53761 0.0
C1467 C 0.73029 0.6492 0.54551 0.0
C1468 C 0.71166 0.68269 0.51483 0.0
C1469 C 0.68198 0.6744 0.51708 0.0
C1470 C 0.72794 0.70478 0.50476 0.0
C1471 C 0.7598 0.7163 0.50247 0.0
C1472 C 0.77974 0.72785 0.51361 0.0
C1473 C 0.80973 0.73854 0.5114 0.0
C1474 C 0.82009 0.73799 0.49808 0.0
C1475 C 0.80049 0.72684 0.48693 0.0
C1476 C 0.77047 0.7161 0.48908 0.0
C1477 C 0.64264 0.74797 0.48841 0.0
C1478 C 0.63968 0.7426 0.47401 0.0
C1479 C 0.6577 0.73763 0.49668 0.0
C1480 C 0.67046 0.72219 0.49066 0.0
C1481 C 0.66856 0.71804 0.47622 0.0
C1482 C 0.65318 0.72785 0.46804 0.0
C1483 C 0.68434 0.70877 0.49932 0.0
C1484 C 0.71397 0.71716 0.49703 0.0
C1485 C 0.66818 0.68701 0.50948 0.0
C1486 C 0.63653 0.67623 0.51203 0.0
C1487 C 0.61592 0.6636 0.50121 0.0
C1488 C 0.58618 0.65381 0.50365 0.0
C1489 C 0.57673 0.6563 0.51691 0.0
C1490 C 0.59701 0.66849 0.52776 0.0
C1491 C 0.6268 0.67837 0.52536 0.0
H1492 H 0.55369 0.64871 0.51878 0.0
H1493 H 0.84332 0.74627 0.49639 0.0
H1494 H 0.18086 0.32957 0.28281 0.0
H1495 H 0.18252 0.33981 0.30761 0.0
H1496 H 0.09286 0.32125 0.30625 0.0
H1497 H 0.09033 0.30942 0.28144 0.0
H1498 H 0.13702 0.3752 0.32239 0.0
H1499 H 0.09827 0.2705 0.31842 0.0
H1500 H 0.09822 0.22636 0.30968 0.0
H1501 H 0.18269 0.25577 0.32832 0.0
H1502 H 0.18345 0.30035 0.33698 0.0
H1503 H 0.12517 0.37345 0.3962 0.0
H1504 H 0.11456 0.36069 0.37165 0.0
H1505 H 0.18846 0.34644 0.36908 0.0
H1506 H 0.19789 0.35706 0.39376 0.0
H1507 H 0.14726 0.30698 0.35462 0.0
H1508 H 0.18965 0.41188 0.35718 0.0
H1509 H 0.19405 0.45855 0.36513 0.0
H1510 H 0.10848 0.43236 0.34863 0.0
H1511 H 0.10341 0.38534 0.34074 0.0
C1512 C 0.16131 0.32738 0.28772 0.0
C1513 C 0.13526 0.31808 0.28005 0.0
C1514 C 0.16243 0.33352 0.30192 0.0
C1515 C 0.13774 0.33102 0.3088 0.0
C1516 C 0.11217 0.3233 0.30112 0.0
C1517 C 0.11085 0.31669 0.2869 0.0
C1518 C 0.13852 0.33516 0.32412 0.0
C1519 C 0.13872 0.36006 0.3295 0.0
C1520 C 0.14157 0.31581 0.33332 0.0
C1521 C 0.14103 0.28889 0.32824 0.0
C1522 C 0.11694 0.26768 0.32056 0.0
C1523 C 0.11677 0.24256 0.31563 0.0
C1524 C 0.14047 0.2383 0.31842 0.0
C1525 C 0.16436 0.25911 0.32616 0.0
C1526 C 0.16466 0.2843 0.33109 0.0
C1527 C 0.13887 0.36707 0.39051 0.0
C1528 C 0.16264 0.36665 0.39706 0.0
C1529 C 0.13302 0.36019 0.37636 0.0
C1530 C 0.15109 0.35322 0.36832 0.0
C1531 C 0.17425 0.35194 0.37494 0.0
C1532 C 0.17986 0.3584 0.3891 0.0
C1533 C 0.1462 0.34741 0.35305 0.0
C1534 C 0.14526 0.32211 0.34762 0.0
C1535 C 0.14303 0.36673 0.34379 0.0
C1536 C 0.14601 0.39496 0.34852 0.0
C1537 C 0.17168 0.41598 0.35535 0.0
C1538 C 0.17431 0.44251 0.35982 0.0
C1539 C 0.15152 0.44838 0.35742 0.0
C1540 C 0.12609 0.42776 0.3505 0.0
C1541 C 0.12333 0.40117 0.34602 0.0
H1542 H 0.15361 0.46893 0.36089 0.0
H1543 H 0.14029 0.21883 0.3146 0.0
H1544 H 0.7376 0.80221 0.2872 0.0
H1545 H 0.72352 0.79383 0.3119 0.0
H1546 H 0.65841 0.8193 0.30449 0.0
H1547 H 0.67199 0.82694 0.27971 0.0
H1548 H 0.70199 0.85107 0.32659 0.0
H1549 H 0.63339 0.75218 0.31109 0.0
H1550 H 0.61991 0.70533 0.29941 0.0
H1551 H 0.67628 0.69184 0.32703 0.0
H1552 H 0.69042 0.73886 0.33875 0.0
H1553 H 0.63186 0.826 0.39101 0.0
H1554 H 0.64512 0.82795 0.36676 0.0
H1555 H 0.68468 0.77491 0.37564 0.0
H1556 H 0.66896 0.77056 0.39994 0.0
H1557 H 0.65699 0.75681 0.35274 0.0
H1558 H 0.72601 0.85259 0.36868 0.0
H1559 H 0.74389 0.90032 0.38038 0.0
H1560 H 0.6938 0.92161 0.35227 0.0
H1561 H 0.67529 0.87382 0.34051 0.0
C1562 C 0.71974 0.80519 0.29082 0.0
C1563 C 0.70554 0.81479 0.28161 0.0
C1564 C 0.7118 0.80053 0.3049 0.0
C1565 C 0.68993 0.80595 0.31001 0.0
C1566 C 0.67528 0.81492 0.30073 0.0
C1567 C 0.68285 0.81905 0.2866 0.0
C1568 C 0.68381 0.80425 0.32517 0.0
C1569 C 0.69177 0.83044 0.33231 0.0
C1570 C 0.67181 0.77751 0.33269 0.0
C1571 C 0.6632 0.74919 0.3257 0.0
C1572 C 0.64312 0.73937 0.31459 0.0
C1573 C 0.63532 0.71274 0.30798 0.0
C1574 C 0.6473 0.69566 0.31245 0.0
C1575 C 0.66705 0.70512 0.32356 0.0
C1576 C 0.67494 0.73174 0.3302 0.0
C1577 C 0.64299 0.81429 0.38788 0.0
C1578 C 0.64889 0.79773 0.39755 0.0
C1579 C 0.65112 0.81594 0.37394 0.0
C1580 C 0.66644 0.80204 0.36928 0.0
C1581 C 0.67295 0.78593 0.37892 0.0
C1582 C 0.66424 0.78376 0.39289 0.0
C1583 C 0.67468 0.80371 0.35428 0.0
C1584 C 0.6673 0.77755 0.34712 0.0
C1585 C 0.68793 0.83066 0.34677 0.0
C1586 C 0.69908 0.8595 0.35378 0.0
C1587 C 0.71864 0.86736 0.36505 0.0
C1588 C 0.72891 0.89444 0.37169 0.0
C1589 C 0.71994 0.91396 0.36709 0.0
C1590 C 0.70072 0.90646 0.35583 0.0
C1591 C 0.69036 0.87939 0.34916 0.0
H1592 H 0.72791 0.93491 0.37224 0.0
H1593 H 0.64122 0.67505 0.30732 0.0
H1594 H 0.14879 0.87218 0.28907 0.0
H1595 H 0.15832 0.86822 0.31354 0.0
H1596 H 0.24874 0.89603 0.30389 0.0
H1597 H 0.23951 0.90066 0.27923 0.0
H1598 H 0.22314 0.84873 0.32259 0.0
H1599 H 0.23299 0.94433 0.31783 0.0
H1600 H 0.21724 0.97945 0.31072 0.0
H1601 H 0.14128 0.9355 0.33718 0.0
H1602 H 0.15634 0.89983 0.34429 0.0
H1603 H 0.27081 0.87098 0.39222 0.0
H1604 H 0.26597 0.88014 0.36769 0.0
H1605 H 0.17818 0.86394 0.37555 0.0
H1606 H 0.18336 0.85558 0.40025 0.0
H1607 H 0.20436 0.90699 0.35746 0.0
H1608 H 0.19185 0.81041 0.36155 0.0
H1609 H 0.20524 0.77342 0.36848 0.0
H1610 H 0.28314 0.81661 0.34322 0.0
H1611 H 0.27043 0.85413 0.33629 0.0
C1612 C 0.17083 0.87774 0.29211 0.0
C1613 C 0.19353 0.88727 0.28216 0.0
C1614 C 0.17619 0.87534 0.30613 0.0
C1615 C 0.20436 0.88234 0.3106 0.0
C1616 C 0.22685 0.89068 0.30067 0.0
C1617 C 0.22152 0.89321 0.28658 0.0
C1618 C 0.21017 0.88119 0.32568 0.0
C1619 C 0.21953 0.86183 0.3302 0.0
C1620 C 0.20464 0.89766 0.33565 0.0
C1621 C 0.19568 0.91926 0.3315 0.0
C1622 C 0.21281 0.94202 0.32205 0.0
C1623 C 0.20403 0.96205 0.31804 0.0
C1624 C 0.17825 0.95967 0.32348 0.0
C1625 C 0.16124 0.9373 0.33297 0.0
C1626 C 0.1699 0.91719 0.337 0.0
C1627 C 0.2506 0.8697 0.38873 0.0
C1628 C 0.22738 0.86238 0.39812 0.0
C1629 C 0.24777 0.87476 0.37469 0.0
C1630 C 0.22142 0.872 0.36964 0.0
C1631 C 0.19868 0.86604 0.37914 0.0
C1632 C 0.20166 0.86135 0.39327 0.0
C1633 C 0.21729 0.87442 0.35444 0.0
C1634 C 0.20817 0.89399 0.34988 0.0
C1635 C 0.22273 0.85788 0.34443 0.0
C1636 C 0.23034 0.83525 0.34851 0.0
C1637 C 0.21195 0.81214 0.35755 0.0
C1638 C 0.2194 0.79106 0.36147 0.0
C1639 C 0.24506 0.79271 0.35632 0.0
C1640 C 0.26329 0.81539 0.34721 0.0
C1641 C 0.25597 0.83656 0.34328 0.0
H1642 H 0.25079 0.77637 0.35937 0.0
H1643 H 0.17148 0.97519 0.32035 0.0
H1644 H 0.35483 0.11445 0.61322 0.0
H1645 H 0.33738 0.10338 0.63731 0.0
H1646 H 0.37269 0.19599 0.64505 0.0
H1647 H 0.38799 0.20693 0.62094 0.0
H1648 H 0.36295 0.11521 0.6611 0.0
H1649 H 0.33645 0.20939 0.66927 0.0
H1650 H 0.3176 0.23636 0.65572 0.0
H1651 H 0.27434 0.16338 0.62767 0.0
H1652 H 0.29259 0.13583 0.64115 0.0
H1653 H 0.35238 0.13351 0.73372 0.0
H1654 H 0.36522 0.14 0.70907 0.0
H1655 H 0.27689 0.11907 0.69881 0.0
H1656 H 0.26477 0.11545 0.72329 0.0
H1657 H 0.30955 0.15992 0.68338 0.0
H1658 H 0.30594 0.06948 0.69429 0.0
H1659 H 0.31805 0.03614 0.70704 0.0
H1660 H 0.40895 0.0899 0.69557 0.0
H1661 H 0.39744 0.12377 0.6829 0.0
C1662 C 0.35835 0.13241 0.61996 0.0
C1663 C 0.37303 0.16163 0.61502 0.0
C1664 C 0.34866 0.12607 0.63382 0.0
C1665 C 0.35341 0.14878 0.64307 0.0
C1666 C 0.36815 0.17791 0.63815 0.0
C1667 C 0.37739 0.1842 0.62431 0.0
C1668 C 0.34343 0.14233 0.65788 0.0
C1669 C 0.35115 0.12489 0.66595 0.0
C1670 C 0.32746 0.15436 0.66425 0.0
C1671 C 0.31612 0.17066 0.65616 0.0
C1672 C 0.32281 0.19905 0.66025 0.0
C1673 C 0.31225 0.21445 0.65257 0.0
C1674 C 0.29486 0.20162 0.64082 0.0
C1675 C 0.2879 0.17333 0.63675 0.0
C1676 C 0.29837 0.15783 0.64439 0.0
C1677 C 0.33572 0.13063 0.72627 0.0
C1678 C 0.30734 0.1236 0.73071 0.0
C1679 C 0.343 0.13388 0.71207 0.0
C1680 C 0.32192 0.12948 0.70191 0.0
C1681 C 0.29366 0.1225 0.70633 0.0
C1682 C 0.28657 0.11992 0.72047 0.0
C1683 C 0.32926 0.13297 0.68671 0.0
C1684 C 0.32118 0.15003 0.67856 0.0
C1685 C 0.34386 0.11964 0.68018 0.0
C1686 C 0.35087 0.0993 0.68776 0.0
C1687 C 0.32854 0.07429 0.69457 0.0
C1688 C 0.33529 0.05529 0.70177 0.0
C1689 C 0.36426 0.06094 0.70214 0.0
C1690 C 0.38653 0.08557 0.69529 0.0
C1691 C 0.3799 0.10466 0.68808 0.0
H1692 H 0.36944 0.0462 0.70772 0.0
H1693 H 0.28673 0.21359 0.63489 0.0
H1694 H 0.91613 0.23646 0.73152 0.0
H1695 H 0.91183 0.24708 0.70702 0.0
H1696 H 0.85872 0.15407 0.69888 0.0
H1697 H 0.86251 0.14337 0.72321 0.0
H1698 H 0.90242 0.18105 0.67982 0.0
H1699 H 0.82818 0.19752 0.70059 0.0
H1700 H 0.80964 0.22067 0.71692 0.0
H1701 H 0.87025 0.30585 0.70007 0.0
H1702 H 0.88943 0.28322 0.68377 0.0
H1703 H 0.84294 0.17667 0.61331 0.0
H1704 H 0.8517 0.17187 0.63787 0.0
H1705 H 0.89637 0.26631 0.64233 0.0
H1706 H 0.8871 0.27115 0.61778 0.0
H1707 H 0.86101 0.24228 0.66336 0.0
H1708 H 0.93394 0.22658 0.64187 0.0
H1709 H 0.95352 0.2043 0.62561 0.0
H1710 H 0.89763 0.11928 0.64385 0.0
H1711 H 0.87741 0.14098 0.66011 0.0
C1712 C 0.9032 0.21832 0.72455 0.0
C1713 C 0.88998 0.18906 0.72933 0.0
C1714 C 0.90083 0.22441 0.71053 0.0
C1715 C 0.88505 0.20135 0.70107 0.0
C1716 C 0.87128 0.17222 0.70592 0.0
C1717 C 0.87356 0.16615 0.71986 0.0
C1718 C 0.8833 0.20718 0.68603 0.0
C1719 C 0.89311 0.19422 0.67622 0.0
C1720 C 0.87203 0.22511 0.6813 0.0
C1721 C 0.86046 0.23871 0.69107 0.0
C1722 C 0.83773 0.22121 0.70045 0.0
C1723 C 0.82707 0.23423 0.70969 0.0
C1724 C 0.83882 0.26472 0.70956 0.0
C1725 C 0.86121 0.28224 0.70018 0.0
C1726 C 0.87196 0.26933 0.69093 0.0
C1727 C 0.85506 0.19644 0.61946 0.0
C1728 C 0.86446 0.2243 0.61356 0.0
C1729 C 0.86006 0.19369 0.63353 0.0
C1730 C 0.87505 0.21875 0.642 0.0
C1731 C 0.88473 0.24662 0.63607 0.0
C1732 C 0.87946 0.24937 0.62203 0.0
C1733 C 0.87976 0.21577 0.65709 0.0
C1734 C 0.87055 0.22929 0.66693 0.0
C1735 C 0.8918 0.1985 0.66186 0.0
C1736 C 0.90399 0.18538 0.65213 0.0
C1737 C 0.92567 0.2031 0.64235 0.0
C1738 C 0.93691 0.19058 0.63315 0.0
C1739 C 0.92678 0.16039 0.63368 0.0
C1740 C 0.90544 0.14266 0.64344 0.0
C1741 C 0.89411 0.15506 0.65267 0.0
H1742 H 0.9355 0.15074 0.62654 0.0
H1743 H 0.83054 0.27476 0.71672 0.0
H1744 H 0.82927 0.66504 0.73297 0.0
H1745 H 0.82076 0.65252 0.70812 0.0
H1746 H 0.80136 0.72228 0.70163 0.0
H1747 H 0.81064 0.73531 0.72639 0.0
H1748 H 0.76233 0.66388 0.68702 0.0
H1749 H 0.86408 0.74033 0.694 0.0
H1750 H 0.91241 0.76129 0.70548 0.0
H1751 H 0.91994 0.68725 0.69231 0.0
H1752 H 0.87137 0.66559 0.68096 0.0
H1753 H 0.77375 0.66608 0.61314 0.0
H1754 H 0.77789 0.68132 0.63745 0.0
H1755 H 0.83066 0.6414 0.64618 0.0
H1756 H 0.82898 0.62869 0.62187 0.0
H1757 H 0.85199 0.68723 0.65998 0.0
H1758 H 0.75224 0.60858 0.65405 0.0
H1759 H 0.70268 0.58303 0.64366 0.0
H1760 H 0.68947 0.65435 0.65556 0.0
H1761 H 0.73913 0.68049 0.66588 0.0
C1762 C 0.82253 0.67719 0.72626 0.0
C1763 C 0.82036 0.70094 0.73151 0.0
C1764 C 0.81779 0.67014 0.71211 0.0
C1765 C 0.81047 0.68653 0.70306 0.0
C1766 C 0.80683 0.7093 0.70846 0.0
C1767 C 0.81211 0.7167 0.72255 0.0
C1768 C 0.80912 0.68152 0.68783 0.0
C1769 C 0.78191 0.66925 0.68102 0.0
C1770 C 0.8346 0.68799 0.68012 0.0
C1771 C 0.86397 0.70121 0.68676 0.0
C1772 C 0.87592 0.7284 0.69366 0.0
C1773 C 0.90338 0.74042 0.70012 0.0
C1774 C 0.91921 0.72557 0.69965 0.0
C1775 C 0.90764 0.69871 0.69268 0.0
C1776 C 0.88016 0.68656 0.68623 0.0
C1777 C 0.78669 0.66102 0.62017 0.0
C1778 C 0.80052 0.64556 0.61547 0.0
C1779 C 0.78865 0.66935 0.63417 0.0
C1780 C 0.80393 0.66185 0.64385 0.0
C1781 C 0.8185 0.6473 0.63905 0.0
C1782 C 0.8171 0.63959 0.62508 0.0
C1783 C 0.80493 0.66889 0.65898 0.0
C1784 C 0.83222 0.68177 0.66584 0.0
C1785 C 0.77936 0.6623 0.66677 0.0
C1786 C 0.74951 0.64663 0.66059 0.0
C1787 C 0.73884 0.6189 0.65436 0.0
C1788 C 0.71072 0.6043 0.6485 0.0
C1789 C 0.69297 0.6171 0.64891 0.0
C1790 C 0.70327 0.64449 0.65522 0.0
C1791 C 0.73139 0.6592 0.66109 0.0
H1792 H 0.67121 0.60577 0.64436 0.0
H1793 H 0.94046 0.73492 0.70466 0.0
H1794 H 0.01512 0.50935 0.06537 0.0
H1795 H 0.02425 0.51034 0.04043 0.0
H1796 H 0.96935 0.41593 0.03876 0.0
H1797 H 0.95959 0.41475 0.06379 0.0
H1798 H 0.02063 0.43771 0.02213 0.0
H1799 H 0.94059 0.45558 0.02885 0.0
H1800 H 0.91529 0.47983 0.03919 0.0
H1801 H 0.98176 0.56311 0.02281 0.0
H1802 H 1.00773 0.53943 0.01255 0.0
H1803 H 0.01493 0.44217 0.94751 0.0
H1804 H 0.99964 0.43148 0.97199 0.0
H1805 H 0.04236 0.52458 0.98045 0.0
H1806 H 0.05667 0.53529 0.95611 0.0
H1807 H 0.99179 0.49772 0.99341 0.0
H1808 H 0.07413 0.48171 0.98856 0.0
H1809 H 0.10116 0.45882 0.97866 0.0
H1810 H 0.03211 0.37355 0.99167 0.0
H1811 H 1.00448 0.39593 1.00149 0.0
C1812 C 1.00498 0.48873 0.05974 0.0
C1813 C 0.98626 0.462 0.06661 0.0
C1814 C 1.01031 0.48934 0.04546 0.0
C1815 C 0.99708 0.46327 0.03766 0.0
C1816 C 0.97971 0.43634 0.04456 0.0
C1817 C 0.97426 0.4357 0.0589 0.0
C1818 C 1.00038 0.46458 0.02223 0.0
C1819 C 0.01388 0.4504 0.0158 0.0
C1820 C 0.99195 0.48148 0.01398 0.0
C1821 C 0.97623 0.49575 0.02002 0.0
C1822 C 0.94993 0.4791 0.02754 0.0
C1823 C 0.93545 0.49274 0.03337 0.0
C1824 C 0.94694 0.523 0.03168 0.0
C1825 C 0.9729 0.53967 0.02412 0.0
C1826 C 0.98749 0.52615 0.01828 0.0
C1827 C 0.02072 0.46031 0.95457 0.0
C1828 C 0.03738 0.48959 0.94986 0.0
C1829 C 1.01222 0.45419 0.9686 0.0
C1830 C 0.02024 0.47722 0.97818 0.0
C1831 C 0.036 0.50638 0.97335 0.0
C1832 C 0.04442 0.51248 0.9594 0.0
C1833 C 1.01272 0.47142 0.99327 0.0
C1834 C 0.99831 0.48474 0.99967 0.0
C1835 C 0.0205 0.4539 1.00148 0.0
C1836 C 0.03709 0.44044 0.99561 0.0
C1837 C 0.06461 0.45805 0.98921 0.0
C1838 C 0.08005 0.44518 0.98363 0.0
C1839 C 0.06832 0.41474 0.9845 0.0
C1840 C 0.04114 0.39712 0.99098 0.0
C1841 C 0.02559 0.40988 0.99656 0.0
H1842 H 0.08031 0.40481 0.98018 0.0
H1843 H 0.9357 0.53352 0.03621 0.0
H1844 H 0.53317 0.47398 0.05682 0.0
H1845 H 0.5302 0.48524 0.0325 0.0
H1846 H 0.56747 0.57704 0.0426 0.0
H1847 H 0.57176 0.5662 0.06707 0.0
H1848 H 0.51602 0.5517 0.02397 0.0
H1849 H 0.61125 0.56001 0.02855 0.0
H1850 H 0.64519 0.54278 0.0356 0.0
H1851 H 0.5999 0.46746 0.00902 0.0
H1852 H 0.56537 0.48401 1.00198 0.0
H1853 H 0.53674 0.59909 0.9542 0.0
H1854 H 0.54615 0.5945 0.97873 0.0
H1855 H 0.53256 0.50763 0.97089 0.0
H1856 H 0.52437 0.51281 0.94617 0.0
H1857 H 0.57416 0.53307 0.98891 0.0
H1858 H 0.47775 0.52044 0.98513 0.0
H1859 H 0.44037 0.53338 0.97838 0.0
H1860 H 0.48311 0.61123 1.00354 0.0
H1861 H 0.52101 0.59896 0.01028 0.0
C1862 C 0.5411 0.49669 0.05393 0.0
C1863 C 0.5533 0.51928 0.06395 0.0
C1864 C 0.53916 0.50301 0.04 0.0
C1865 C 0.54899 0.53201 0.03572 0.0
C1866 C 0.55988 0.55451 0.04571 0.0
C1867 C 0.56218 0.54824 0.0597 0.0
C1868 C 0.5483 0.53857 0.02073 0.0
C1869 C 0.52912 0.54818 0.0163 0.0
C1870 C 0.56464 0.53296 0.01072 0.0
C1871 C 0.58557 0.52313 0.01483 0.0
C1872 C 0.60838 0.53965 0.02429 0.0
C1873 C 0.62775 0.53003 0.02827 0.0
C1874 C 0.62467 0.50401 0.02278 0.0
C1875 C 0.60225 0.4876 0.01327 0.0
C1876 C 0.58279 0.49711 0.00927 0.0
C1877 C 0.53616 0.57919 0.95771 0.0
C1878 C 0.52971 0.55624 0.94833 0.0
C1879 C 0.5413 0.57646 0.97175 0.0
C1880 C 0.5393 0.55039 0.97681 0.0
C1881 C 0.53409 0.52792 0.9673 0.0
C1882 C 0.52947 0.53088 0.95318 0.0
C1883 C 0.54176 0.54622 0.99201 0.0
C1884 C 0.56121 0.5369 0.99652 0.0
C1885 C 0.5252 0.55156 1.00208 0.0
C1886 C 0.50239 0.55894 0.99809 0.0
C1887 C 0.47929 0.54043 0.98914 0.0
C1888 C 0.458 0.54763 0.98533 0.0
C1889 C 0.45941 0.57315 0.9905 0.0
C1890 C 0.48208 0.59149 0.99952 0.0
C1891 C 0.50346 0.58442 1.00335 0.0
H1892 H 0.4429 0.57869 0.98753 0.0
H1893 H 0.63969 0.49659 0.02588 0.0
H1894 H 0.52524 0.0158 0.06303 0.0
H1895 H 0.51514 1.00582 0.03828 0.0
H1896 H 0.45176 0.03494 0.04026 0.0
H1897 H 0.46229 0.04578 0.06509 0.0
H1898 H 0.43342 0.98332 0.02368 0.0
H1899 H 0.51579 0.08109 0.02786 0.0
H1900 H 0.56431 0.11915 0.03649 0.0
H1901 H 0.60472 0.07425 0.0175 0.0
H1902 H 0.55635 0.03564 0.00893 0.0
H1903 H 0.42894 0.98601 0.94912 0.0
H1904 H 0.43289 1.00125 0.9735 0.0
H1905 H 0.50847 0.99039 0.97862 0.0
H1906 H 0.50552 0.97665 0.95429 0.0
H1907 H 0.51802 0.03743 0.99157 0.0
H1908 H 0.43652 0.93748 0.98954 0.0
H1909 H 0.38835 0.89767 0.98142 0.0
H1910 H 0.34681 0.94479 0.99656 0.0
H1911 H 0.39482 0.98509 1.00462 0.0
C1912 C 0.50917 0.02017 0.05825 0.0
C1913 C 0.49494 0.03205 0.06608 0.0
C1914 C 0.50333 0.01431 0.04409 0.0
C1915 C 0.48304 0.02006 0.03736 0.0
C1916 C 0.46758 0.03042 0.04523 0.0
C1917 C 0.47355 0.03648 0.05945 0.0
C1918 C 0.47918 0.01641 0.02202 0.0
C1919 C 0.45175 0.9955 0.01661 0.0
C1920 C 0.50321 0.032 0.01282 0.0
C1921 C 0.53239 0.05535 0.01784 0.0
C1922 C 0.53499 0.07921 0.02561 0.0
C1923 C 0.56247 0.1009 0.03048 0.0
C1924 C 0.58757 0.09909 0.02757 0.0
C1925 C 0.58525 0.07561 0.01975 0.0
C1926 C 0.55781 0.05383 0.01488 0.0
C1927 C 0.44664 0.98731 0.95539 0.0
C1928 C 0.46665 0.97968 0.94975 0.0
C1929 C 0.44869 0.99571 0.96939 0.0
C1930 C 0.47066 0.99646 0.97804 0.0
C1931 C 0.4912 0.98984 0.97226 0.0
C1932 C 0.48928 0.98166 0.95832 0.0
C1933 C 0.4724 1.00369 0.99315 0.0
C1934 C 0.49952 0.02542 0.99856 0.0
C1935 C 0.44814 0.98864 1.00233 0.0
C1936 C 0.41929 0.96444 0.99752 0.0
C1937 C 0.41714 0.93945 0.99104 0.0
C1938 C 0.38987 0.91678 0.98647 0.0
C1939 C 0.36455 0.91874 0.98843 0.0
C1940 C 0.36644 0.94334 0.99502 0.0
C1941 C 0.39367 0.96609 0.99959 0.0
H1942 H 0.34345 0.90117 0.98489 0.0
H1943 H 0.60883 0.1159 0.03135 0.0
H1944 H 0.21993 0.04385 0.21549 0.0
H1945 H 0.21226 0.08414 0.20832 0.0
H1946 H 0.11852 0.02424 0.20714 0.0
H1947 H 0.12642 0.98351 0.21362 0.0
H1948 H 0.1295 0.06206 0.18854 0.0
H1949 H 0.15529 0.07085 0.23613 0.0
H1950 H 0.1839 0.07328 0.2569 0.0
H1951 H 0.25857 0.15192 0.24117 0.0
H1952 H 0.23052 0.14974 0.22019 0.0
H1953 H 0.09654 0.17706 0.20554 0.0
H1954 H 0.10073 0.13324 0.2019 0.0
H1955 H 0.19424 0.18859 0.19552 0.0
H1956 H 0.18986 0.23229 0.19941 0.0
H1957 H 0.18127 0.15206 0.21738 0.0
H1958 H 0.14657 0.141 0.16953 0.0
H1959 H 0.11066 0.13621 0.15172 0.0
H1960 H 0.04323 0.05881 0.17217 0.0
H1961 H 0.0787 0.06329 0.19017 0.0
C1962 C 0.19772 0.03931 0.21363 0.0
C1963 C 0.17372 0.01074 0.2154 0.0
C1964 C 0.19329 0.06234 0.20958 0.0
C1965 C 0.16466 0.05755 0.20772 0.0
C1966 C 0.14076 0.02865 0.20873 0.0
C1967 C 0.14526 1.00541 0.21245 0.0
C1968 C 0.15975 0.08291 0.20552 0.0
C1969 C 0.14073 0.08166 0.19491 0.0
C1970 C 0.17393 0.10848 0.21391 0.0
C1971 C 0.1909 0.10996 0.22653 0.0
C1972 C 0.17788 0.08855 0.23706 0.0
C1973 C 0.19398 0.0899 0.24887 0.0
C1974 C 0.22306 0.1127 0.25034 0.0
C1975 C 0.23606 0.13425 0.24001 0.0
C1976 C 0.22007 0.13298 0.22816 0.0
C1977 C 0.11757 0.17984 0.20247 0.0
C1978 C 0.1427 0.20797 0.20237 0.0
C1979 C 0.12007 0.15476 0.20054 0.0
C1980 C 0.14784 0.15756 0.19843 0.0
C1981 C 0.17259 0.18587 0.1971 0.0
C1982 C 0.17006 0.21085 0.19915 0.0
C1983 C 0.15196 0.13168 0.20009 0.0
C1984 C 0.17049 0.13267 0.21084 0.0
C1985 C 0.13633 0.10557 0.19222 0.0
C1986 C 0.11525 0.10258 0.18123 0.0
C1987 C 0.12406 0.12303 0.17026 0.0
C1988 C 0.10379 0.12035 0.16013 0.0
C1989 C 0.07468 0.09724 0.16083 0.0
C1990 C 0.06579 0.07669 0.17164 0.0
C1991 C 0.08598 0.07925 0.18178 0.0
H1992 H 0.05901 0.09524 0.15299 0.0
H1993 H 0.2355 0.1137 0.25949 0.0
H1994 H 0.80649 0.9727 0.22171 0.0
H1995 H 0.85083 0.01848 0.21649 0.0
H1996 H 0.88037 0.97262 0.18963 0.0
H1997 H 0.83568 0.9257 0.19545 0.0
H1998 H 0.92351 1.00683 0.20539 0.0
H1999 H 0.86365 0.02658 0.17682 0.0
H2000 H 0.82014 0.0287 0.16893 0.0
H2001 H 0.83232 0.08884 0.20187 0.0
H2002 H 0.87563 0.08676 0.21012 0.0
H2003 H 0.04693 0.15944 0.20184 0.0
H2004 H 1.00483 0.11345 0.19345 0.0
H2005 H 0.95414 0.11193 0.22903 0.0
H2006 H 0.99624 0.15727 0.23765 0.0
H2007 H 0.92586 0.1021 0.20089 0.0
H2008 H 0.98329 0.0722 0.23034 0.0
H2009 H 0.02816 0.07017 0.2356 0.0
H2010 H 0.02192 0.02917 0.19618 0.0
H2011 H 0.97745 0.03171 0.19051 0.0
C2012 C 0.82201 0.9723 0.21441 0.0
C2013 C 0.81755 0.94551 0.20903 0.0
C2014 C 0.84745 0.99872 0.21132 0.0
C2015 C 0.86908 0.9994 0.20249 0.0
C2016 C 0.86402 0.97281 0.19644 0.0
C2017 C 0.83834 0.94602 0.19964 0.0
C2018 C 0.8978 0.02753 0.20102 0.0
C2019 C 0.92405 0.02759 0.20399 0.0
C2020 C 0.89895 0.05488 0.19904 0.0
C2021 C 0.87295 0.05645 0.19411 0.0
C2022 C 0.85699 0.04015 0.18244 0.0
C2023 C 0.83234 0.04135 0.17789 0.0
C2024 C 0.82347 0.05888 0.18489 0.0
C2025 C 0.83925 0.0753 0.19644 0.0
C2026 C 0.8639 0.07417 0.20104 0.0
C2027 C 0.0269 0.14931 0.2079 0.0
C2028 C 0.02519 0.16185 0.22056 0.0
C2029 C 1.00284 0.12302 0.20307 0.0
C2030 C 0.97643 0.10922 0.21066 0.0
C2031 C 0.97437 0.12217 0.22304 0.0
C2032 C 0.99852 0.14801 0.22801 0.0
C2033 C 0.95074 0.08108 0.20599 0.0
C2034 C 0.92523 0.08121 0.20185 0.0
C2035 C 0.95055 0.05405 0.20642 0.0
C2036 C 0.9773 0.05259 0.20991 0.0
C2037 C 0.99171 0.06314 0.2227 0.0
C2038 C 0.01706 0.06186 0.22577 0.0
C2039 C 0.02801 0.04974 0.21619 0.0
C2040 C 0.01355 0.03875 0.20355 0.0
C2041 C 0.98829 0.04014 0.2004 0.0
H2042 H 0.04762 0.04875 0.21858 0.0
H2043 H 0.80437 0.05977 0.18136 0.0
H2044 H 0.85418 0.86965 0.19742 0.0
H2045 H 0.90228 0.88026 0.18832 0.0
H2046 H 0.93225 0.88154 0.2302 0.0
H2047 H 0.885 0.87183 0.23927 0.0
H2048 H 0.9742 0.9252 0.21551 0.0
H2049 H 0.90655 0.82027 0.20914 0.0
H2050 H 0.86227 0.77748 0.1995 0.0
H2051 H 0.89267 0.80839 0.15803 0.0
H2052 H 0.93699 0.85157 0.16746 0.0
H2053 H 0.05478 0.84299 0.21104 0.0
H2054 H 1.00982 0.84358 0.20576 0.0
H2055 H 0.06115 0.93205 0.18975 0.0
H2056 H 0.10653 0.93131 0.19495 0.0
H2057 H 0.98016 0.85145 0.18567 0.0
H2058 H 0.02575 0.97082 0.204 0.0
H2059 H 0.06692 0.01007 0.21723 0.0
H2060 H 0.07887 0.94534 0.23897 0.0
H2061 H 0.03721 0.90567 0.22619 0.0
C2062 C 0.87117 0.87255 0.20467 0.0
C2063 C 0.86556 0.86952 0.21908 0.0
C2064 C 0.89859 0.87845 0.19945 0.0
C2065 C 0.92087 0.8815 0.20857 0.0
C2066 C 0.91549 0.87931 0.22294 0.0
C2067 C 0.88825 0.87339 0.22812 0.0
C2068 C 0.94954 0.88581 0.20344 0.0
C2069 C 0.97557 0.90939 0.20876 0.0
C2070 C 0.95141 0.86522 0.19464 0.0
C2071 C 0.92484 0.8393 0.18899 0.0
C2072 C 0.90366 0.81804 0.19797 0.0
C2073 C 0.87858 0.79371 0.19255 0.0
C2074 C 0.8746 0.79027 0.17816 0.0
C2075 C 0.89574 0.81112 0.16917 0.0
C2076 C 0.92084 0.83552 0.17455 0.0
C2077 C 0.05649 0.8621 0.20582 0.0
C2078 C 0.08414 0.88715 0.20353 0.0
C2079 C 0.03072 0.86248 0.20284 0.0
C2080 C 0.032 0.88809 0.19764 0.0
C2081 C 0.0596 0.91216 0.19395 0.0
C2082 C 0.08557 0.91166 0.19683 0.0
C2083 C 1.00483 0.89034 0.19815 0.0
C2084 C 0.97901 0.86799 0.19195 0.0
C2085 C 1.00306 0.91173 0.20644 0.0
C2086 C 0.02879 0.93532 0.2139 0.0
C2087 C 0.03724 0.96498 0.21157 0.0
C2088 C 0.06052 0.98728 0.21906 0.0
C2089 C 0.07555 0.98021 0.22891 0.0
C2090 C 0.06726 0.95079 0.23132 0.0
C2091 C 0.04379 0.92838 0.22395 0.0
H2092 H 0.09364 0.99752 0.23466 0.0
H2093 H 0.85518 0.77141 0.17398 0.0
H2094 H 0.0408 0.20417 0.79283 0.0
H2095 H 0.08176 0.19851 0.80092 0.0
H2096 H 0.02104 0.10814 0.812 0.0
H2097 H 0.97969 0.11423 0.80426 0.0
H2098 H 0.06795 0.13287 0.83011 0.0
H2099 H 0.05464 0.12295 0.78108 0.0
H2100 H 0.04736 0.13638 0.75744 0.0
H2101 H 0.13076 0.21646 0.75956 0.0
H2102 H 0.13834 0.20373 0.78332 0.0
H2103 H 0.18134 0.09289 0.81687 0.0
H2104 H 0.13732 0.09692 0.82082 0.0
H2105 H 0.18745 0.18967 0.81132 0.0
H2106 H 0.23096 0.18541 0.80702 0.0
H2107 H 0.14278 0.15875 0.79303 0.0
H2108 H 0.15524 0.16556 0.84297 0.0
H2109 H 0.16093 0.14843 0.86603 0.0
H2110 H 0.07778 0.06891 0.86124 0.0
H2111 H 0.07176 0.0854 0.83806 0.0
C2112 C 0.03619 0.18328 0.79722 0.0
C2113 C 1.0072 0.15954 0.79777 0.0
C2114 C 0.05956 0.18001 0.80184 0.0
C2115 C 0.0546 0.15268 0.80676 0.0
C2116 C 0.02545 0.1294 0.80819 0.0
C2117 C 1.00187 0.13285 0.80377 0.0
C2118 C 0.08009 0.14807 0.80901 0.0
C2119 C 0.08419 0.13823 0.82198 0.0
C2120 C 0.10126 0.15486 0.79838 0.0
C2121 C 0.09694 0.16249 0.78403 0.0
C2122 C 0.07134 0.14351 0.77654 0.0
C2123 C 0.06717 0.15099 0.76312 0.0
C2124 C 0.08855 0.17728 0.75701 0.0
C2125 C 0.1142 0.19612 0.76431 0.0
C2126 C 0.11846 0.18877 0.77775 0.0
C2127 C 0.18326 0.11437 0.81635 0.0
C2128 C 0.20951 0.13887 0.81168 0.0
C2129 C 0.15803 0.11665 0.81853 0.0
C2130 C 0.15897 0.14356 0.81619 0.0
C2131 C 0.18613 0.16866 0.81312 0.0
C2132 C 0.21111 0.16631 0.81083 0.0
C2133 C 0.13145 0.14478 0.81433 0.0
C2134 C 0.12671 0.15356 0.80125 0.0
C2135 C 0.10963 0.13644 0.82477 0.0
C2136 C 0.11319 0.1266 0.83872 0.0
C2137 C 0.13829 0.14431 0.84678 0.0
C2138 C 0.14154 0.13474 0.85989 0.0
C2139 C 0.11977 0.10756 0.86508 0.0
C2140 C 0.09464 0.08994 0.8572 0.0
C2141 C 0.09128 0.0994 0.84408 0.0
H2142 H 0.12234 0.10019 0.87523 0.0
H2143 H 0.08528 0.18304 0.74662 0.0
H2144 H 0.83856 0.04102 0.7974 0.0
H2145 H 0.83849 0.99632 0.804 0.0
H2146 H 0.92372 0.04818 0.82306 0.0
H2147 H 0.92384 0.09348 0.81628 0.0
H2148 H 0.92421 1.00947 0.80527 0.0
H2149 H 0.86282 1.00099 0.84288 0.0
H2150 H 0.82238 1.00274 0.85504 0.0
H2151 H 0.75915 0.93232 0.82956 0.0
H2152 H 0.79917 0.93046 0.81707 0.0
H2153 H 0.90665 0.86413 0.80794 0.0
H2154 H 0.91384 0.91104 0.81713 0.0
H2155 H 0.83332 0.8946 0.79735 0.0
H2156 H 0.82608 0.84802 0.78836 0.0
H2157 H 0.8383 0.91786 0.82305 0.0
H2158 H 0.9012 0.93863 0.78181 0.0
H2159 H 0.94152 0.93832 0.76876 0.0
H2160 H 1.00176 0.98574 0.80178 0.0
H2161 H 0.96173 0.98626 0.81504 0.0
C2162 C 0.85685 0.04293 0.80344 0.0
C2163 C 0.88112 0.07074 0.80638 0.0
C2164 C 0.85679 0.01728 0.80724 0.0
C2165 C 0.88101 0.01868 0.81413 0.0
C2166 C 0.9047 0.04648 0.81781 0.0
C2167 C 0.90464 0.07237 0.81406 0.0
C2168 C 0.88243 0.99115 0.81584 0.0
C2169 C 0.90583 0.98964 0.80957 0.0
C2170 C 0.85841 0.96507 0.82135 0.0
C2171 C 0.83409 0.96562 0.82901 0.0
C2172 C 0.8403 0.98594 0.83982 0.0
C2173 C 0.81744 0.98696 0.84677 0.0
C2174 C 0.78823 0.96766 0.84307 0.0
C2175 C 0.7818 0.94724 0.83243 0.0
C2176 C 0.80458 0.94615 0.82543 0.0
C2177 C 0.89028 0.87037 0.80582 0.0
C2178 C 0.8659 0.85253 0.79736 0.0
C2179 C 0.89448 0.89723 0.81098 0.0
C2180 C 0.87422 0.90653 0.80785 0.0
C2181 C 0.84926 0.888 0.79993 0.0
C2182 C 0.84523 0.86145 0.79471 0.0
C2183 C 0.87934 0.93613 0.81192 0.0
C2184 C 0.85714 0.93794 0.81923 0.0
C2185 C 0.90446 0.96248 0.80744 0.0
C2186 C 0.92847 0.96224 0.79946 0.0
C2187 C 0.92303 0.94888 0.7863 0.0
C2188 C 0.94583 0.94876 0.77885 0.0
C2189 C 0.97418 0.96202 0.78444 0.0
C2190 C 0.9798 0.9755 0.79747 0.0
C2191 C 0.95708 0.97577 0.80494 0.0
H2192 H 0.99178 0.9618 0.77867 0.0
H2193 H 0.77057 0.96852 0.84845 0.0
H2194 H 0.16091 0.03931 0.81329 0.0
H2195 H 0.10998 1.00131 0.8187 0.0
H2196 H 0.11341 0.9463 0.78637 0.0
H2197 H 0.16418 0.98404 0.78103 0.0
H2198 H 0.06019 0.94868 0.78669 0.0
H2199 H 0.12452 0.93376 0.81835 0.0
H2200 H 0.16202 0.94984 0.8368 0.0
H2201 H 0.10669 0.96562 0.86411 0.0
H2202 H 0.06901 0.94997 0.84573 0.0
H2203 H 0.97899 0.80042 0.79664 0.0
H2204 H 0.02186 0.84827 0.8014 0.0
H2205 H 0.96702 0.87519 0.82268 0.0
H2206 H 0.9235 0.82686 0.81785 0.0
H2207 H 0.03987 0.89408 0.83134 0.0
H2208 H 0.97259 0.90454 0.80023 0.0
H2209 H 0.93457 0.88495 0.78198 0.0
H2210 H 0.99479 0.87844 0.75401 0.0
H2211 H 0.0329 0.89711 0.77227 0.0
C2212 C 0.15061 0.01927 0.80724 0.0
C2213 C 0.16653 0.01459 0.79675 0.0
C2214 C 0.1216 0.99754 0.81038 0.0
C2215 C 0.10791 0.97094 0.80295 0.0
C2216 C 0.1235 0.96666 0.79222 0.0
C2217 C 0.15257 0.98813 0.78923 0.0
C2218 C 0.07787 0.94679 0.80663 0.0
C2219 C 0.05564 0.93708 0.79655 0.0
C2220 C 0.07162 0.93191 0.81959 0.0
C2221 C 0.09415 0.94106 0.83063 0.0
C2222 C 0.12047 0.94089 0.82825 0.0
C2223 C 0.14173 0.94988 0.8387 0.0
C2224 C 0.13678 0.95884 0.85161 0.0
C2225 C 0.11052 0.95873 0.8541 0.0
C2226 C 0.08921 0.94979 0.84368 0.0
C2227 C 0.97608 0.8161 0.80276 0.0
C2228 C 0.9478 0.81006 0.80666 0.0
C2229 C 1.00065 0.84345 0.80548 0.0
C2230 C 0.99753 0.86535 0.8122 0.0
C2231 C 0.96981 0.85851 0.81744 0.0
C2232 C 0.94498 0.83088 0.8147 0.0
C2233 C 0.02242 0.89605 0.81139 0.0
C2234 C 0.04395 0.90664 0.82181 0.0
C2235 C 0.0279 0.91212 0.79884 0.0
C2236 C 1.00548 0.90193 0.78766 0.0
C2237 C 0.97762 0.89862 0.79024 0.0
C2238 C 0.95605 0.88767 0.7799 0.0
C2239 C 0.96225 0.88041 0.76685 0.0
C2240 C 0.99003 0.88408 0.76412 0.0
C2241 C 1.01161 0.8948 0.77447 0.0
H2242 H 0.94554 0.87199 0.75885 0.0
H2243 H 0.15326 0.96579 0.85969 0.0
H2244 H 0.76902 0.51858 0.52832 0.0
H2245 H 0.76754 0.47207 0.5229 0.0
H2246 H 0.85295 0.50564 0.5418 0.0
H2247 H 0.85433 0.55146 0.54717 0.0
H2248 H 0.84856 0.47295 0.52044 0.0
H2249 H 0.78509 0.46587 0.55939 0.0
H2250 H 0.74209 0.46497 0.57024 0.0
H2251 H 0.68414 0.39316 0.5439 0.0
H2252 H 0.72687 0.39412 0.53263 0.0
H2253 H 0.86722 0.37164 0.55871 0.0
H2254 H 0.85678 0.40983 0.55146 0.0
H2255 H 0.77914 0.34535 0.52993 0.0
H2256 H 0.78981 0.30675 0.53684 0.0
H2257 H 0.77067 0.38646 0.54581 0.0
H2258 H 0.83491 0.38765 0.51062 0.0
H2259 H 0.87846 0.38732 0.50128 0.0
H2260 H 0.93517 0.46946 0.52157 0.0
H2261 H 0.89198 0.47007 0.53123 0.0
C2262 C 0.78776 0.51625 0.53092 0.0
C2263 C 0.81157 0.53841 0.53838 0.0
C2264 C 0.78682 0.48959 0.52792 0.0
C2265 C 0.80984 0.48502 0.53224 0.0
C2266 C 0.8348 0.5084 0.53843 0.0
C2267 C 0.8356 0.53469 0.54149 0.0
C2268 C 0.80769 0.45565 0.53167 0.0
C2269 C 0.8314 0.454 0.52591 0.0
C2270 C 0.78481 0.43044 0.53843 0.0
C2271 C 0.75922 0.43041 0.545 0.0
C2272 C 0.76321 0.45015 0.55578 0.0
C2273 C 0.73888 0.44957 0.56203 0.0
C2274 C 0.71042 0.429 0.55777 0.0
C2275 C 0.70622 0.40907 0.54719 0.0
C2276 C 0.73048 0.4097 0.54083 0.0
C2277 C 0.84805 0.3654 0.55233 0.0
C2278 C 0.82965 0.33596 0.54824 0.0
C2279 C 0.84204 0.38735 0.54823 0.0
C2280 C 0.81744 0.38054 0.53997 0.0
C2281 C 0.79833 0.35111 0.53625 0.0
C2282 C 0.80445 0.32904 0.54028 0.0
C2283 C 0.81234 0.40459 0.53524 0.0
C2284 C 0.78731 0.40511 0.53996 0.0
C2285 C 0.83406 0.42888 0.52761 0.0
C2286 C 0.86016 0.42884 0.52169 0.0
C2287 C 0.85666 0.40557 0.51316 0.0
C2288 C 0.8813 0.40534 0.5078 0.0
C2289 C 0.90956 0.42834 0.51084 0.0
C2290 C 0.91326 0.45166 0.51922 0.0
C2291 C 0.8887 0.45198 0.52462 0.0
H2292 H 0.92861 0.42812 0.50669 0.0
H2293 H 0.69161 0.42851 0.56267 0.0
H2294 H 0.71596 0.48828 0.53489 0.0
H2295 H 0.67883 0.43958 0.5264 0.0
H2296 H 0.61845 0.43499 0.55799 0.0
H2297 H 0.65428 0.48351 0.5661 0.0
H2298 H 0.62368 0.38435 0.55689 0.0
H2299 H 0.61004 0.45077 0.52587 0.0
H2300 H 0.62704 0.48961 0.50794 0.0
H2301 H 0.64574 0.43693 0.48027 0.0
H2302 H 0.62916 0.39792 0.49814 0.0
H2303 H 0.47586 0.31045 0.54495 0.0
H2304 H 0.52476 0.35156 0.53991 0.0
H2305 H 0.54958 0.29203 0.52194 0.0
H2306 H 0.50005 0.25037 0.52686 0.0
H2307 H 0.57145 0.36766 0.51191 0.0
H2308 H 0.57964 0.2978 0.54392 0.0
H2309 H 0.5588 0.26043 0.56259 0.0
H2310 H 0.54839 0.32089 0.58861 0.0
H2311 H 0.56907 0.3586 0.57009 0.0
C2312 C 0.69469 0.4772 0.53993 0.0
C2313 C 0.68856 0.49013 0.55136 0.0
C2314 C 0.67351 0.4492 0.53508 0.0
C2315 C 0.64598 0.43348 0.54168 0.0
C2316 C 0.63971 0.44647 0.55288 0.0
C2317 C 0.6605 0.47441 0.55756 0.0
C2318 C 0.62309 0.40353 0.53715 0.0
C2319 C 0.61274 0.38053 0.54691 0.0
C2320 C 0.60894 0.39829 0.52408 0.0
C2321 C 0.61875 0.42165 0.51338 0.0
C2322 C 0.61802 0.4476 0.51601 0.0
C2323 C 0.62752 0.46961 0.50585 0.0
C2324 C 0.63757 0.46579 0.49299 0.0
C2325 C 0.63803 0.4399 0.49025 0.0
C2326 C 0.62858 0.41783 0.50038 0.0
C2327 C 0.49131 0.3061 0.53946 0.0
C2328 C 0.48431 0.27706 0.53661 0.0
C2329 C 0.51927 0.32969 0.53657 0.0
C2330 C 0.54089 0.3248 0.53075 0.0
C2331 C 0.53318 0.29622 0.52649 0.0
C2332 C 0.50488 0.27243 0.52933 0.0
C2333 C 0.57199 0.3488 0.53172 0.0
C2334 C 0.58354 0.37092 0.5215 0.0
C2335 C 0.58742 0.35329 0.54435 0.0
C2336 C 0.5757 0.33091 0.5556 0.0
C2337 C 0.57269 0.30303 0.55359 0.0
C2338 C 0.56091 0.2818 0.56413 0.0
C2339 C 0.55209 0.2882 0.57672 0.0
C2340 C 0.5552 0.31594 0.57884 0.0
C2341 C 0.56703 0.33728 0.56835 0.0
H2342 H 0.54295 0.2717 0.58485 0.0
H2343 H 0.64491 0.48285 0.48514 0.0
H2344 H 0.71364 0.1705 0.54757 0.0
H2345 H 0.66857 0.16969 0.54136 0.0
H2346 H 0.71867 0.25131 0.51877 0.0
H2347 H 0.76452 0.25246 0.52548 0.0
H2348 H 0.68324 0.25649 0.53567 0.0
H2349 H 0.66551 0.18371 0.50213 0.0
H2350 H 0.66187 0.1391 0.49174 0.0
H2351 H 0.5972 0.08535 0.52223 0.0
H2352 H 0.60071 0.12956 0.53294 0.0
H2353 H 0.53473 0.23526 0.53627 0.0
H2354 H 0.58116 0.24209 0.52661 0.0
H2355 H 0.57256 0.17058 0.55217 0.0
H2356 H 0.52651 0.1637 0.56168 0.0
H2357 H 0.58791 0.16709 0.52517 0.0
H2358 H 0.61755 0.24254 0.56161 0.0
H2359 H 0.62162 0.28742 0.57194 0.0
H2360 H 0.66328 0.33602 0.53475 0.0
H2361 H 0.65942 0.29138 0.5242 0.0
C2362 C 0.71502 0.18771 0.54082 0.0
C2363 C 0.7425 0.2114 0.53691 0.0
C2364 C 0.68912 0.1872 0.5372 0.0
C2365 C 0.6899 0.21025 0.52941 0.0
C2366 C 0.71737 0.23314 0.5247 0.0
C2367 C 0.74355 0.23364 0.52837 0.0
C2368 C 0.6624 0.21185 0.52808 0.0
C2369 C 0.6625 0.23718 0.53294 0.0
C2370 C 0.63512 0.18675 0.52458 0.0
C2371 C 0.63336 0.16005 0.51832 0.0
C2372 C 0.65066 0.16241 0.50669 0.0
C2373 C 0.64859 0.13716 0.50073 0.0
C2374 C 0.62924 0.10941 0.50631 0.0
C2375 C 0.61209 0.10685 0.5179 0.0
C2376 C 0.61406 0.13199 0.52389 0.0
C2377 C 0.54259 0.22076 0.53962 0.0
C2378 C 0.527 0.19898 0.54976 0.0
C2379 C 0.56924 0.22487 0.53421 0.0
C2380 C 0.58043 0.20693 0.53872 0.0
C2381 C 0.5644 0.1847 0.54853 0.0
C2382 C 0.53813 0.18087 0.55403 0.0
C2383 C 0.60889 0.21088 0.53353 0.0
C2384 C 0.60882 0.18664 0.5274 0.0
C2385 C 0.6361 0.23696 0.53578 0.0
C2386 C 0.63786 0.26356 0.54205 0.0
C2387 C 0.62735 0.26274 0.5556 0.0
C2388 C 0.62976 0.28816 0.56152 0.0
C2389 C 0.64266 0.31454 0.554 0.0
C2390 C 0.65327 0.31557 0.54056 0.0
C2391 C 0.65103 0.29023 0.53461 0.0
H2392 H 0.6444 0.33417 0.55858 0.0
H2393 H 0.62742 0.08985 0.50164 0.0
H2394 H 0.87087 0.45726 0.15776 0.0
H2395 H 0.82885 0.46202 0.16571 0.0
H2396 H 0.84335 0.52132 0.13152 0.0
H2397 H 0.88567 0.51831 0.12433 0.0
H2398 H 0.82391 0.53761 0.15153 0.0
H2399 H 0.79178 0.43667 0.13148 0.0
H2400 H 0.79392 0.39108 0.13426 0.0
H2401 H 0.76 0.38055 0.17582 0.0
H2402 H 0.75769 0.42615 0.17326 0.0
H2403 H 0.70515 0.51013 0.1114 0.0
H2404 H 0.74593 0.50794 0.12176 0.0
H2405 H 0.69588 0.47155 0.15935 0.0
H2406 H 0.65472 0.47457 0.14927 0.0
H2407 H 0.72935 0.44326 0.1485 0.0
H2408 H 0.74434 0.536 0.16328 0.0
H2409 H 0.74571 0.58339 0.16074 0.0
H2410 H 0.81348 0.61091 0.12978 0.0
H2411 H 0.81229 0.56354 0.13198 0.0
C2412 C 0.86544 0.4719 0.15224 0.0
C2413 C 0.88127 0.48695 0.14026 0.0
C2414 C 0.84123 0.47439 0.15668 0.0
C2415 C 0.83219 0.49139 0.14899 0.0
C2416 C 0.84949 0.50794 0.13767 0.0
C2417 C 0.87371 0.50593 0.13346 0.0
C2418 C 0.80353 0.49033 0.15135 0.0
C2419 C 0.80324 0.51694 0.15101 0.0
C2420 C 0.77627 0.4635 0.1513 0.0
C2421 C 0.77482 0.43478 0.15224 0.0
C2422 C 0.78459 0.42445 0.14116 0.0
C2423 C 0.78606 0.39878 0.14274 0.0
C2424 C 0.77762 0.38324 0.15531 0.0
C2425 C 0.76685 0.39283 0.16616 0.0
C2426 C 0.76536 0.4185 0.16464 0.0
C2427 C 0.70254 0.50198 0.12192 0.0
C2428 C 0.67645 0.4932 0.12951 0.0
C2429 C 0.72601 0.50054 0.12781 0.0
C2430 C 0.72409 0.49001 0.14138 0.0
C2431 C 0.69783 0.47995 0.14887 0.0
C2432 C 0.67427 0.4817 0.14303 0.0
C2433 C 0.75024 0.4905 0.14752 0.0
C2434 C 0.74991 0.46388 0.14949 0.0
C2435 C 0.777 0.51738 0.14903 0.0
C2436 C 0.77817 0.54615 0.14779 0.0
C2437 C 0.75944 0.55209 0.15587 0.0
C2438 C 0.76018 0.57896 0.1545 0.0
C2439 C 0.77963 0.60013 0.1451 0.0
C2440 C 0.79844 0.5945 0.13707 0.0
C2441 C 0.79779 0.56766 0.1384 0.0
H2442 H 0.78014 0.62091 0.14405 0.0
H2443 H 0.77902 0.36355 0.15661 0.0
H2444 H 0.54488 0.17939 0.14473 0.0
H2445 H 0.55046 0.22549 0.15328 0.0
H2446 H 0.57212 0.26203 0.1119 0.0
H2447 H 0.56807 0.2167 0.10333 0.0
H2448 H 0.605 0.3032 0.12985 0.0
H2449 H 0.50074 0.23105 0.12628 0.0
H2450 H 0.45603 0.18377 0.13166 0.0
H2451 H 0.46685 0.20503 0.17515 0.0
H2452 H 0.51183 0.25232 0.17003 0.0
H2453 H 0.51179 0.37469 0.1296 0.0
H2454 H 0.51495 0.33081 0.13371 0.0
H2455 H 0.59718 0.38269 0.15535 0.0
H2456 H 0.59437 0.42734 0.15078 0.0
H2457 H 0.51784 0.29834 0.15253 0.0
H2458 H 0.64228 0.35209 0.14669 0.0
H2459 H 0.68528 0.39928 0.13959 0.0
H2460 H 0.63121 0.41511 0.1115 0.0
H2461 H 0.588 0.36763 0.11819 0.0
C2462 C 0.55121 0.19718 0.13739 0.0
C2463 C 0.55559 0.19369 0.1232 0.0
C2464 C 0.55423 0.22366 0.14234 0.0
C2465 C 0.56128 0.24725 0.13323 0.0
C2466 C 0.5666 0.24423 0.11918 0.0
C2467 C 0.56386 0.21791 0.11424 0.0
C2468 C 0.5615 0.27444 0.13799 0.0
C2469 C 0.58603 0.30213 0.13493 0.0
C2470 C 0.53694 0.27327 0.14473 0.0
C2471 C 0.5098 0.24501 0.14779 0.0
C2472 C 0.49366 0.22554 0.137 0.0
C2473 C 0.46827 0.19876 0.14 0.0
C2474 C 0.45866 0.19135 0.15374 0.0
C2475 C 0.47436 0.21077 0.16451 0.0
C2476 C 0.49979 0.23756 0.16157 0.0
C2477 C 0.53013 0.37669 0.13563 0.0
C2478 C 0.553 0.40451 0.1397 0.0
C2479 C 0.53195 0.35148 0.13799 0.0
C2480 C 0.55671 0.35334 0.14451 0.0
C2481 C 0.57815 0.38071 0.14999 0.0
C2482 C 0.57637 0.40622 0.14754 0.0
C2483 C 0.56084 0.32717 0.1439 0.0
C2484 C 0.53716 0.29954 0.14779 0.0
C2485 C 0.58594 0.32842 0.13764 0.0
C2486 C 0.61183 0.35657 0.13314 0.0
C2487 C 0.63959 0.36561 0.13897 0.0
C2488 C 0.664 0.39241 0.13502 0.0
C2489 C 0.66095 0.4103 0.12518 0.0
C2490 C 0.63352 0.40128 0.11916 0.0
C2491 C 0.60907 0.37439 0.12301 0.0
H2492 H 0.67986 0.43109 0.12218 0.0
H2493 H 0.43901 0.17061 0.15605 0.0
H2494 H 0.65197 0.1347 0.12954 0.0
H2495 H 0.69487 0.18287 0.13291 0.0
H2496 H 0.64123 0.21194 0.15384 0.0
H2497 H 0.59747 0.1634 0.14988 0.0
H2498 H 0.67191 0.25015 0.13529 0.0
H2499 H 0.69872 0.20589 0.1708 0.0
H2500 H 0.70684 0.16844 0.18216 0.0
H2501 H 0.77286 0.18303 0.15183 0.0
H2502 H 0.76483 0.22021 0.14013 0.0
H2503 H 0.843 0.36501 0.14478 0.0
H2504 H 0.79725 0.32287 0.15297 0.0
H2505 H 0.75852 0.31512 0.11254 0.0
H2506 H 0.8035 0.35806 0.10454 0.0
H2507 H 0.77223 0.27013 0.14689 0.0
H2508 H 0.69486 0.28504 0.11039 0.0
H2509 H 0.68396 0.32329 0.10236 0.0
H2510 H 0.71563 0.36924 0.14104 0.0
H2511 H 0.72632 0.33093 0.14928 0.0
C2512 C 0.64937 0.15104 0.13523 0.0
C2513 C 0.62132 0.14525 0.13942 0.0
C2514 C 0.67407 0.17868 0.13724 0.0
C2515 C 0.67158 0.20124 0.14374 0.0
C2516 C 0.64381 0.19494 0.1488 0.0
C2517 C 0.61884 0.16709 0.1467 0.0
C2518 C 0.69734 0.23185 0.14369 0.0
C2519 C 0.69377 0.25453 0.13803 0.0
C2520 C 0.72597 0.23808 0.1475 0.0
C2521 C 0.73109 0.21584 0.15456 0.0
C2522 C 0.71486 0.20101 0.1665 0.0
C2523 C 0.71946 0.17983 0.17301 0.0
C2524 C 0.74036 0.17337 0.16772 0.0
C2525 C 0.75671 0.18809 0.15592 0.0
C2526 C 0.75218 0.20927 0.14936 0.0
C2527 C 0.82459 0.35481 0.13769 0.0
C2528 C 0.82719 0.36518 0.12395 0.0
C2529 C 0.79835 0.33045 0.14238 0.0
C2530 C 0.77389 0.31589 0.13352 0.0
C2531 C 0.77644 0.32635 0.11983 0.0
C2532 C 0.80259 0.35072 0.11514 0.0
C2533 C 0.74692 0.28819 0.13809 0.0
C2534 C 0.75031 0.26595 0.14448 0.0
C2535 C 0.71803 0.2826 0.13538 0.0
C2536 C 0.71225 0.30579 0.13027 0.0
C2537 C 0.69967 0.30345 0.11711 0.0
C2538 C 0.69346 0.32505 0.11254 0.0
C2539 C 0.69939 0.34885 0.12113 0.0
C2540 C 0.7114 0.35101 0.13433 0.0
C2541 C 0.71774 0.32951 0.13891 0.0
H2542 H 0.69449 0.3655 0.11759 0.0
H2543 H 0.74392 0.157 0.17278 0.0
H2544 H 0.43653 0.85331 0.86391 0.0
H2545 H 0.43398 0.80652 0.85809 0.0
H2546 H 0.52306 0.8414 0.87259 0.0
H2547 H 0.52561 0.88774 0.87832 0.0
H2548 H 0.51257 0.80483 0.85128 0.0
H2549 H 0.46237 0.8053 0.89404 0.0
H2550 H 0.42422 0.80972 0.90699 0.0
H2551 H 0.35673 0.73731 0.88398 0.0
H2552 H 0.39453 0.73299 0.87064 0.0
H2553 H 0.53538 0.7041 0.88835 0.0
H2554 H 0.52719 0.74321 0.87995 0.0
H2555 H 0.44006 0.67854 0.86641 0.0
H2556 H 0.44811 0.63902 0.87507 0.0
H2557 H 0.44012 0.72342 0.88117 0.0
H2558 H 0.4918 0.71645 0.84229 0.0
H2559 H 0.53081 0.71248 0.82994 0.0
H2560 H 0.59586 0.7965 0.84601 0.0
H2561 H 0.55732 0.8008 0.85863 0.0
C2562 C 0.45587 0.8513 0.86535 0.0
C2563 C 0.48119 0.87404 0.87169 0.0
C2564 C 0.45432 0.82447 0.86214 0.0
C2565 C 0.47813 0.82018 0.86518 0.0
C2566 C 0.50434 0.84401 0.87019 0.0
C2567 C 0.50579 0.87056 0.87348 0.0
C2568 C 0.47527 0.79047 0.8649 0.0
C2569 C 0.49662 0.78695 0.85774 0.0
C2570 C 0.45396 0.76674 0.87304 0.0
C2571 C 0.43127 0.76911 0.88121 0.0
C2572 C 0.4394 0.79048 0.89167 0.0
C2573 C 0.41784 0.79298 0.89908 0.0
C2574 C 0.38808 0.77387 0.89629 0.0
C2575 C 0.37979 0.75217 0.88611 0.0
C2576 C 0.40127 0.74974 0.87859 0.0
C2577 C 0.51449 0.69813 0.88356 0.0
C2578 C 0.49237 0.66843 0.88243 0.0
C2579 C 0.50991 0.72053 0.87863 0.0
C2580 C 0.48311 0.71388 0.8724 0.0
C2581 C 0.46098 0.68422 0.87111 0.0
C2582 C 0.46567 0.66166 0.87597 0.0
C2583 C 0.4782 0.7383 0.86799 0.0
C2584 C 0.45547 0.74084 0.87432 0.0
C2585 C 0.49832 0.76119 0.85914 0.0
C2586 C 0.52163 0.75889 0.85145 0.0
C2587 C 0.51444 0.73402 0.84326 0.0
C2588 C 0.53647 0.73171 0.8362 0.0
C2589 C 0.56579 0.75421 0.8372 0.0
C2590 C 0.57313 0.7791 0.84524 0.0
C2591 C 0.55119 0.7815 0.85232 0.0
H2592 H 0.58282 0.75238 0.83173 0.0
H2593 H 0.37146 0.77593 0.90201 0.0
H2594 H 0.32247 0.83531 0.89423 0.0
H2595 H 0.28079 0.78849 0.88681 0.0
H2596 H 0.34013 0.76651 0.86613 0.0
H2597 H 0.38216 0.81429 0.87332 0.0
H2598 H 0.28705 0.74403 0.85188 0.0
H2599 H 0.31644 0.73902 0.89806 0.0
H2600 H 0.33179 0.75568 0.92216 0.0
H2601 H 0.24901 0.75078 0.93012 0.0
H2602 H 0.23337 0.73449 0.90601 0.0
H2603 H 0.17009 0.58772 0.86462 0.0
H2604 H 0.21645 0.63418 0.86067 0.0
H2605 H 0.17631 0.68258 0.87639 0.0
H2606 H 0.13053 0.63657 0.88051 0.0
H2607 H 0.22504 0.6875 0.89211 0.0
H2608 H 0.19729 0.69276 0.8444 0.0
H2609 H 0.18372 0.67423 0.82043 0.0
H2610 H 0.26518 0.67457 0.81576 0.0
H2611 H 0.27906 0.69273 0.83978 0.0
C2612 C 0.32656 0.82072 0.88789 0.0
C2613 C 0.35547 0.8282 0.88448 0.0
C2614 C 0.30277 0.79392 0.88367 0.0
C2615 C 0.30731 0.77353 0.87623 0.0
C2616 C 0.33606 0.78175 0.87195 0.0
C2617 C 0.36003 0.80901 0.87602 0.0
C2618 C 0.2821 0.74305 0.87416 0.0
C2619 C 0.27373 0.73144 0.86068 0.0
C2620 C 0.26477 0.72633 0.88563 0.0
C2621 C 0.27386 0.73577 0.9002 0.0
C2622 C 0.30162 0.7417 0.90493 0.0
C2623 C 0.31035 0.75105 0.91859 0.0
C2624 C 0.29141 0.75437 0.92765 0.0
C2625 C 0.26366 0.74823 0.92309 0.0
C2626 C 0.25484 0.73889 0.90943 0.0
C2627 C 0.17082 0.60832 0.86665 0.0
C2628 C 0.14678 0.60854 0.87298 0.0
C2629 C 0.19738 0.63488 0.86444 0.0
C2630 C 0.19994 0.66184 0.86841 0.0
C2631 C 0.17491 0.66207 0.87332 0.0
C2632 C 0.14867 0.63574 0.87559 0.0
C2633 C 0.22913 0.68909 0.86981 0.0
C2634 C 0.23845 0.69994 0.88328 0.0
C2635 C 0.24738 0.70457 0.85837 0.0
C2636 C 0.23905 0.69376 0.84394 0.0
C2637 C 0.21218 0.6886 0.83831 0.0
C2638 C 0.20446 0.67823 0.8247 0.0
C2639 C 0.22354 0.67313 0.81659 0.0
C2640 C 0.25041 0.67848 0.82206 0.0
C2641 C 0.25822 0.68883 0.83566 0.0
H2642 H 0.21753 0.66511 0.80606 0.0
H2643 H 0.29821 0.76162 0.93823 0.0
H2644 H 0.37801 0.49873 0.88001 0.0
H2645 H 0.33269 0.49766 0.87372 0.0
H2646 H 0.38292 0.58466 0.85595 0.0
H2647 H 0.42875 0.58564 0.86224 0.0
H2648 H 0.34414 0.58275 0.87451 0.0
H2649 H 0.3363 0.52627 0.83526 0.0
H2650 H 0.33801 0.48802 0.82116 0.0
H2651 H 0.26893 0.42061 0.84592 0.0
H2652 H 0.26703 0.45843 0.86032 0.0
H2653 H 0.19889 0.5644 0.87269 0.0
H2654 H 0.2462 0.57269 0.86366 0.0
H2655 H 0.22841 0.48959 0.88111 0.0
H2656 H 0.18107 0.48092 0.88973 0.0
H2657 H 0.25329 0.49766 0.85588 0.0
H2658 H 0.27131 0.55725 0.89791 0.0
H2659 H 0.27022 0.59654 0.91146 0.0
H2660 H 0.32127 0.65973 0.87987 0.0
H2661 H 0.32234 0.62069 0.86606 0.0
C2662 C 0.37945 0.51721 0.87428 0.0
C2663 C 0.40693 0.54225 0.87164 0.0
C2664 C 0.35345 0.51659 0.87067 0.0
C2665 C 0.35421 0.54107 0.86433 0.0
C2666 C 0.38172 0.56548 0.86082 0.0
C2667 C 0.40794 0.56594 0.86432 0.0
C2668 C 0.32637 0.54201 0.86315 0.0
C2669 C 0.32444 0.56456 0.87006 0.0
C2670 C 0.30051 0.51826 0.85744 0.0
C2671 C 0.30157 0.49526 0.8489 0.0
C2672 C 0.3216 0.5033 0.83777 0.0
C2673 C 0.32258 0.48168 0.82971 0.0
C2674 C 0.30356 0.45192 0.83263 0.0
C2675 C 0.28358 0.44369 0.84365 0.0
C2676 C 0.28251 0.46522 0.85175 0.0
C2677 C 0.20485 0.54768 0.87436 0.0
C2678 C 0.18627 0.5221 0.88204 0.0
C2679 C 0.23202 0.55255 0.86929 0.0
C2680 C 0.24112 0.53193 0.87184 0.0
C2681 C 0.22201 0.50589 0.87901 0.0
C2682 C 0.195 0.50106 0.88407 0.0
C2683 C 0.27096 0.53761 0.86779 0.0
C2684 C 0.27318 0.51627 0.85994 0.0
C2685 C 0.2971 0.5626 0.87251 0.0
C2686 C 0.29657 0.58601 0.88088 0.0
C2687 C 0.28212 0.57948 0.89381 0.0
C2688 C 0.28153 0.60171 0.90154 0.0
C2689 C 0.29557 0.63059 0.8965 0.0
C2690 C 0.31033 0.63733 0.88374 0.0
C2691 C 0.31094 0.61517 0.87596 0.0
H2692 H 0.29508 0.64777 0.9025 0.0
H2693 H 0.30425 0.43526 0.82632 0.0
H2694 H 0.52048 0.76555 0.48466 0.0
H2695 H 0.47547 0.76626 0.49102 0.0
H2696 H 0.51245 0.85359 0.47362 0.0
H2697 H 0.55701 0.85297 0.46746 0.0
H2698 H 0.47903 0.84867 0.4951 0.0
H2699 H 0.46944 0.78848 0.45406 0.0
H2700 H 0.4686 0.7463 0.44231 0.0
H2701 H 0.40084 0.68658 0.47019 0.0
H2702 H 0.40195 0.72851 0.48236 0.0
H2703 H 0.37808 0.87158 0.45822 0.0
H2704 H 0.41667 0.86285 0.46677 0.0
H2705 H 0.35106 0.77862 0.48308 0.0
H2706 H 0.31215 0.78672 0.4741 0.0
H2707 H 0.39242 0.77359 0.46898 0.0
H2708 H 0.39305 0.83461 0.50515 0.0
H2709 H 0.39275 0.87719 0.51572 0.0
H2710 H 0.47658 0.93566 0.49708 0.0
H2711 H 0.47718 0.89352 0.48617 0.0
C2712 C 0.51933 0.78523 0.48267 0.0
C2713 C 0.5421 0.80909 0.47543 0.0
C2714 C 0.49349 0.78554 0.48618 0.0
C2715 C 0.49022 0.80974 0.48251 0.0
C2716 C 0.51422 0.83459 0.47652 0.0
C2717 C 0.53976 0.83421 0.47299 0.0
C2718 C 0.46129 0.80862 0.48324 0.0
C2719 C 0.46003 0.83218 0.48945 0.0
C2720 C 0.43604 0.78662 0.47627 0.0
C2721 C 0.43584 0.76156 0.46913 0.0
C2722 C 0.45453 0.76635 0.45773 0.0
C2723 C 0.45403 0.74251 0.45102 0.0
C2724 C 0.43464 0.71378 0.45548 0.0
C2725 C 0.41583 0.70884 0.46674 0.0
C2726 C 0.41644 0.73262 0.47357 0.0
C2727 C 0.37176 0.85114 0.46361 0.0
C2728 C 0.3419 0.8298 0.46536 0.0
C2729 C 0.39392 0.84631 0.46865 0.0
C2730 C 0.38686 0.82012 0.47571 0.0
C2731 C 0.35709 0.79895 0.4777 0.0
C2732 C 0.33483 0.80376 0.47264 0.0
C2733 C 0.41077 0.81449 0.48022 0.0
C2734 C 0.41102 0.78965 0.47501 0.0
C2735 C 0.4351 0.83535 0.48809 0.0
C2736 C 0.43511 0.86084 0.4948 0.0
C2737 C 0.41137 0.85656 0.50324 0.0
C2738 C 0.41114 0.88062 0.5093 0.0
C2739 C 0.43463 0.90911 0.50708 0.0
C2740 C 0.45842 0.91358 0.49881 0.0
C2741 C 0.45873 0.88959 0.49269 0.0
H2742 H 0.43441 0.92771 0.51178 0.0
H2743 H 0.4342 0.69535 0.45024 0.0
H2744 H 0.18073 0.5027 0.473 0.0
H2745 H 0.18481 0.54848 0.48183 0.0
H2746 H 0.24814 0.59759 0.44972 0.0
H2747 H 0.24421 0.55221 0.44093 0.0
H2748 H 0.26459 0.62443 0.47567 0.0
H2749 H 0.17795 0.57994 0.44591 0.0
H2750 H 0.12881 0.53987 0.43905 0.0
H2751 H 0.09417 0.54383 0.47895 0.0
H2752 H 0.14324 0.58372 0.4861 0.0
H2753 H 0.26567 0.75345 0.45815 0.0
H2754 H 0.26549 0.70787 0.46258 0.0
H2755 H 0.1921 0.68022 0.49073 0.0
H2756 H 0.19186 0.72616 0.48583 0.0
H2757 H 0.17871 0.63936 0.47315 0.0
H2758 H 0.26359 0.69041 0.50144 0.0
H2759 H 0.31308 0.72837 0.50914 0.0
H2760 H 0.35142 0.71189 0.47329 0.0
H2761 H 0.3023 0.67397 0.46537 0.0
C2762 C 0.19568 0.5233 0.46791 0.0
C2763 C 0.21201 0.52375 0.4562 0.0
C2764 C 0.1979 0.54941 0.47293 0.0
C2765 C 0.2167 0.57647 0.4664 0.0
C2766 C 0.2335 0.577 0.45493 0.0
C2767 C 0.23105 0.55096 0.44984 0.0
C2768 C 0.21847 0.60432 0.4711 0.0
C2769 C 0.24588 0.62784 0.47512 0.0
C2770 C 0.19379 0.60833 0.47094 0.0
C2771 C 0.1643 0.58453 0.4666 0.0
C2772 C 0.1599 0.5721 0.45326 0.0
C2773 C 0.13206 0.54946 0.44931 0.0
C2774 C 0.10841 0.53924 0.45857 0.0
C2775 C 0.11253 0.55172 0.47179 0.0
C2776 C 0.14033 0.57435 0.4758 0.0
C2777 C 0.25031 0.73821 0.46576 0.0
C2778 C 0.22909 0.74348 0.47183 0.0
C2779 C 0.25024 0.71204 0.46834 0.0
C2780 C 0.22898 0.69041 0.47714 0.0
C2781 C 0.20886 0.69653 0.48396 0.0
C2782 C 0.2089 0.7229 0.48131 0.0
C2783 C 0.22529 0.66024 0.47732 0.0
C2784 C 0.19745 0.63609 0.47414 0.0
C2785 C 0.24963 0.65563 0.47835 0.0
C2786 C 0.27919 0.67928 0.48282 0.0
C2787 C 0.28256 0.69501 0.49516 0.0
C2788 C 0.31059 0.71643 0.4996 0.0
C2789 C 0.33542 0.7223 0.4918 0.0
C2790 C 0.33225 0.70709 0.47943 0.0
C2791 C 0.30432 0.68559 0.47497 0.0
H2792 H 0.35711 0.7388 0.49528 0.0
H2793 H 0.08687 0.5217 0.4555 0.0
H2794 H 0.48555 0.71103 0.47426 0.0
H2795 H 0.43689 0.67141 0.48189 0.0
H2796 H 0.44921 0.60878 0.45818 0.0
H2797 H 0.49754 0.64769 0.45086 0.0
H2798 H 0.39769 0.60423 0.45204 0.0
H2799 H 0.45241 0.6113 0.49395 0.0
H2800 H 0.48341 0.6374 0.51417 0.0
H2801 H 0.41741 0.65618 0.52896 0.0
H2802 H 0.38618 0.63047 0.50872 0.0
H2803 H 0.30816 0.46292 0.47255 0.0
H2804 H 0.35144 0.51092 0.47687 0.0
H2805 H 0.29572 0.54787 0.48444 0.0
H2806 H 0.252 0.49945 0.48017 0.0
H2807 H 0.3633 0.57122 0.50034 0.0
H2808 H 0.30832 0.56279 0.45725 0.0
H2809 H 0.27791 0.53262 0.43766 0.0
H2810 H 0.34614 0.51495 0.42547 0.0
H2811 H 0.37677 0.54462 0.44515 0.0
C2812 C 0.47807 0.68872 0.4709 0.0
C2813 C 0.49533 0.68267 0.46176 0.0
C2814 C 0.45018 0.6661 0.47521 0.0
C2815 C 0.43914 0.63712 0.47045 0.0
C2816 C 0.45694 0.631 0.46181 0.0
C2817 C 0.48462 0.65338 0.45758 0.0
C2818 C 0.40873 0.61299 0.47377 0.0
C2819 C 0.3902 0.59733 0.46263 0.0
C2820 C 0.39848 0.60406 0.48757 0.0
C2821 C 0.41713 0.61927 0.49976 0.0
C2822 C 0.44462 0.62119 0.50147 0.0
C2823 C 0.4622 0.63587 0.51293 0.0
C2824 C 0.45242 0.64852 0.52282 0.0
C2825 C 0.42498 0.64642 0.52128 0.0
C2826 C 0.40732 0.63178 0.50982 0.0
C2827 C 0.30503 0.4809 0.47584 0.0
C2828 C 0.27675 0.47746 0.47605 0.0
C2829 C 0.32981 0.50834 0.4783 0.0
C2830 C 0.32682 0.53297 0.48091 0.0
C2831 C 0.29848 0.52905 0.48259 0.0
C2832 C 0.27349 0.50134 0.48019 0.0
C2833 C 0.35283 0.56264 0.4786 0.0
C2834 C 0.37054 0.579 0.48982 0.0
C2835 C 0.36251 0.57244 0.46488 0.0
C2836 C 0.34472 0.55574 0.4527 0.0
C2837 C 0.31677 0.55236 0.45042 0.0
C2838 C 0.29948 0.53534 0.43932 0.0
C2839 C 0.31003 0.52182 0.43035 0.0
C2840 C 0.33798 0.52541 0.43243 0.0
C2841 C 0.35532 0.54235 0.44354 0.0
H2842 H 0.29657 0.50859 0.42178 0.0
H2843 H 0.46607 0.65988 0.53169 0.0
loop_
_geom_bond_atom_site_label_1
_geom_bond_atom_site_label_2
_geom_bond_distance
_geom_bond_site_symmetry_2
_ccdc_geom_bond_type
C0 C1 1.351 . S
C0 N3 1.368 . S
C0 H5 0.931 . S
C1 C0 1.351 . S
C1 N2 1.373 . S
C1 H29 0.930 . S
N2 C1 1.373 . S
N2 C4 1.340 . S
N3 C0 1.368 . S
N3 C4 1.321 . S
N3 Co6 2.135 . S
C4 N2 1.340 . S
C4 N3 1.321 . S
C4 H28 0.930 . S
H5 C0 0.931 . S
Co6 N3 2.135 . S
Co6 N9 2.121 . S
Co6 O14 2.055 . S
Co6 O17 2.039 . S
Co6 N20 2.140 . S
C7 O8 1.227 . S
C7 O17 1.265 . S
O8 C7 1.227 . S
N9 Co6 2.121 . S
N9 C11 1.375 . S
N9 C12 1.313 . S
C10 C11 1.338 . S
C10 N13 1.377 . S
C10 H30 0.930 . S
C11 N9 1.375 . S
C11 C10 1.338 . S
C11 H15 0.931 . S
C12 N9 1.313 . S
C12 N13 1.344 . S
C12 H16 0.930 . S
N13 C10 1.377 . S
N13 C12 1.344 . S
O14 Co6 2.055 . S
O14 C18 1.253 . S
H15 C11 0.931 . S
H16 C12 0.930 . S
O17 Co6 2.039 . S
O17 C7 1.265 . S
C18 O14 1.253 . S
C18 O19 1.227 . S
O19 C18 1.227 . S
N20 Co6 2.140 . S
N20 C23 1.346 . S
N20 C24 1.345 . S
C21 C22 1.387 . S
C21 C25 1.391 . S
C22 C21 1.387 . S
C22 C23 1.369 . S
C22 H31 0.929 . S
C23 N20 1.346 . S
C23 C22 1.369 . S
C23 H26 0.928 . S
C24 N20 1.345 . S
C24 C25 1.371 . S
C24 H27 0.931 . S
C25 C21 1.391 . S
C25 C24 1.371 . S
C25 H32 0.930 . S
H26 C23 0.928 . S
H27 C24 0.931 . S
H28 C4 0.930 . S
H29 C1 0.930 . S
H30 C10 0.930 . S
H31 C22 0.929 . S
H32 C25 0.930 . S
C33 C34 1.351 . S
C33 N36 1.368 . S
C33 H38 0.931 . S
C34 C33 1.351 . S
C34 N35 1.373 . S
C34 H62 0.930 . S
N35 C34 1.373 . S
N35 C37 1.340 . S
N36 C33 1.368 . S
N36 C37 1.321 . S
N36 Co39 2.135 . S
C37 N35 1.340 . S
C37 N36 1.321 . S
C37 H61 0.930 . S
H38 C33 0.931 . S
Co39 N36 2.135 . S
Co39 N42 2.121 . S
Co39 O47 2.055 . S
Co39 O50 2.039 . S
Co39 N53 2.140 . S
C40 O41 1.227 . S
C40 O50 1.265 . S
O41 C40 1.227 . S
N42 Co39 2.121 . S
N42 C44 1.375 . S
N42 C45 1.313 . S
C43 C44 1.338 . S
C43 N46 1.377 . S
C43 H63 0.930 . S
C44 N42 1.375 . S
C44 C43 1.338 . S
C44 H48 0.931 . S
C45 N42 1.313 . S
C45 N46 1.344 . S
C45 H49 0.930 . S
N46 C43 1.377 . S
N46 C45 1.344 . S
O47 Co39 2.055 . S
O47 C51 1.253 . S
H48 C44 0.931 . S
H49 C45 0.930 . S
O50 Co39 2.039 . S
O50 C40 1.265 . S
C51 O47 1.253 . S
C51 O52 1.227 . S
O52 C51 1.227 . S
N53 Co39 2.140 . S
N53 C56 1.346 . S
N53 C57 1.345 . S
C54 C55 1.387 . S
C54 C58 1.391 . S
C55 C54 1.387 . S
C55 C56 1.369 . S
C55 H64 0.929 . S
C56 N53 1.346 . S
C56 C55 1.369 . S
C56 H59 0.928 . S
C57 N53 1.345 . S
C57 C58 1.371 . S
C57 H60 0.931 . S
C58 C54 1.391 . S
C58 C57 1.371 . S
C58 H65 0.930 . S
H59 C56 0.928 . S
H60 C57 0.931 . S
H61 C37 0.930 . S
H62 C34 0.930 . S
H63 C43 0.930 . S
H64 C55 0.929 . S
H65 C58 0.930 . S
C66 C67 1.351 . S
C66 N69 1.368 . S
C66 H71 0.931 . S
C67 C66 1.351 . S
C67 N68 1.373 . S
C67 H95 0.930 . S
N68 C67 1.373 . S
N68 C70 1.340 . S
N69 C66 1.368 . S
N69 C70 1.321 . S
N69 Co72 2.135 . S
C70 N68 1.340 . S
C70 N69 1.321 . S
C70 H94 0.930 . S
H71 C66 0.931 . S
Co72 N69 2.135 . S
Co72 N75 2.121 . S
Co72 O80 2.055 . S
Co72 O83 2.039 . S
Co72 N86 2.140 . S
C73 O74 1.227 . S
C73 O83 1.265 . S
O74 C73 1.227 . S
N75 Co72 2.121 . S
N75 C77 1.375 . S
N75 C78 1.313 . S
C76 C77 1.338 . S
C76 N79 1.377 . S
C76 H96 0.930 . S
C77 N75 1.375 . S
C77 C76 1.338 . S
C77 H81 0.931 . S
C78 N75 1.313 . S
C78 N79 1.344 . S
C78 H82 0.930 . S
N79 C76 1.377 . S
N79 C78 1.344 . S
O80 Co72 2.055 . S
O80 C84 1.253 . S
H81 C77 0.931 . S
H82 C78 0.930 . S
O83 Co72 2.039 . S
O83 C73 1.265 . S
C84 O80 1.253 . S
C84 O85 1.227 . S
O85 C84 1.227 . S
N86 Co72 2.140 . S
N86 C89 1.346 . S
N86 C90 1.345 . S
C87 C88 1.387 . S
C87 C91 1.391 . S
C88 C87 1.387 . S
C88 C89 1.369 . S
C88 H97 0.929 . S
C89 N86 1.346 . S
C89 C88 1.369 . S
C89 H92 0.928 . S
C90 N86 1.345 . S
C90 C91 1.371 . S
C90 H93 0.931 . S
C91 C87 1.391 . S
C91 C90 1.371 . S
C91 H98 0.930 . S
H92 C89 0.928 . S
H93 C90 0.931 . S
H94 C70 0.930 . S
H95 C67 0.930 . S
H96 C76 0.930 . S
H97 C88 0.929 . S
H98 C91 0.930 . S
C99 C100 1.351 . S
C99 N102 1.368 . S
C99 H104 0.931 . S
C100 C99 1.351 . S
C100 N101 1.373 . S
C100 H128 0.930 . S
N101 C100 1.373 . S
N101 C103 1.340 . S
N102 C99 1.368 . S
N102 C103 1.321 . S
N102 Co105 2.135 . S
C103 N101 1.340 . S
C103 N102 1.321 . S
C103 H127 0.930 . S
H104 C99 0.931 . S
Co105 N102 2.135 . S
Co105 N108 2.121 . S
Co105 O113 2.055 . S
Co105 O116 2.039 . S
Co105 N119 2.140 . S
C106 O107 1.227 . S
C106 O116 1.265 . S
O107 C106 1.227 . S
N108 Co105 2.121 . S
N108 C110 1.375 . S
N108 C111 1.313 . S
C109 C110 1.338 . S
C109 N112 1.377 . S
C109 H129 0.930 . S
C110 N108 1.375 . S
C110 C109 1.338 . S
C110 H114 0.931 . S
C111 N108 1.313 . S
C111 N112 1.344 . S
C111 H115 0.930 . S
N112 C109 1.377 . S
N112 C111 1.344 . S
O113 Co105 2.055 . S
O113 C117 1.253 . S
H114 C110 0.931 . S
H115 C111 0.930 . S
O116 Co105 2.039 . S
O116 C106 1.265 . S
C117 O113 1.253 . S
C117 O118 1.227 . S
O118 C117 1.227 . S
N119 Co105 2.140 . S
N119 C122 1.346 . S
N119 C123 1.345 . S
C120 C121 1.387 . S
C120 C124 1.391 . S
C121 C120 1.387 . S
C121 C122 1.369 . S
C121 H130 0.929 . S
C122 N119 1.346 . S
C122 C121 1.369 . S
C122 H125 0.928 . S
C123 N119 1.345 . S
C123 C124 1.371 . S
C123 H126 0.931 . S
C124 C120 1.391 . S
C124 C123 1.371 . S
C124 H131 0.930 . S
H125 C122 0.928 . S
H126 C123 0.931 . S
H127 C103 0.930 . S
H128 C100 0.930 . S
H129 C109 0.930 . S
H130 C121 0.929 . S
H131 C124 0.930 . S
C132 C133 1.351 . S
C132 N135 1.368 . S
C132 H137 0.931 . S
C133 C132 1.351 . S
C133 N134 1.373 . S
C133 H161 0.930 . S
N134 C133 1.373 . S
N134 C136 1.340 . S
N135 C132 1.368 . S
N135 C136 1.321 . S
N135 Co138 2.135 . S
C136 N134 1.340 . S
C136 N135 1.321 . S
C136 H160 0.930 . S
H137 C132 0.931 . S
Co138 N135 2.135 . S
Co138 N141 2.121 . S
Co138 O146 2.055 . S
Co138 O149 2.039 . S
Co138 N152 2.140 . S
C139 O140 1.227 . S
C139 O149 1.265 . S
O140 C139 1.227 . S
N141 Co138 2.121 . S
N141 C143 1.375 . S
N141 C144 1.313 . S
C142 C143 1.338 . S
C142 N145 1.377 . S
C142 H162 0.930 . S
C143 N141 1.375 . S
C143 C142 1.338 . S
C143 H147 0.931 . S
C144 N141 1.313 . S
C144 N145 1.344 . S
C144 H148 0.930 . S
N145 C142 1.377 . S
N145 C144 1.344 . S
O146 Co138 2.055 . S
O146 C150 1.253 . S
H147 C143 0.931 . S
H148 C144 0.930 . S
O149 Co138 2.039 . S
O149 C139 1.265 . S
C150 O146 1.253 . S
C150 O151 1.227 . S
O151 C150 1.227 . S
N152 Co138 2.140 . S
N152 C155 1.346 . S
N152 C156 1.345 . S
C153 C154 1.387 . S
C153 C157 1.391 . S
C154 C153 1.387 . S
C154 C155 1.369 . S
C154 H163 0.929 . S
C155 N152 1.346 . S
C155 C154 1.369 . S
C155 H158 0.928 . S
C156 N152 1.345 . S
C156 C157 1.371 . S
C156 H159 0.931 . S
C157 C153 1.391 . S
C157 C156 1.371 . S
C157 H164 0.930 . S
H158 C155 0.928 . S
H159 C156 0.931 . S
H160 C136 0.930 . S
H161 C133 0.930 . S
H162 C142 0.930 . S
H163 C154 0.929 . S
H164 C157 0.930 . S
C165 C166 1.351 . S
C165 N168 1.368 . S
C165 H170 0.931 . S
C166 C165 1.351 . S
C166 N167 1.373 . S
C166 H194 0.930 . S
N167 C166 1.373 . S
N167 C169 1.340 . S
N168 C165 1.368 . S
N168 C169 1.321 . S
N168 Co171 2.135 . S
C169 N167 1.340 . S
C169 N168 1.321 . S
C169 H193 0.930 . S
H170 C165 0.931 . S
Co171 N168 2.135 . S
Co171 N174 2.121 . S
Co171 O179 2.055 . S
Co171 O182 2.039 . S
Co171 N185 2.140 . S
C172 O173 1.227 . S
C172 O182 1.265 . S
O173 C172 1.227 . S
N174 Co171 2.121 . S
N174 C176 1.375 . S
N174 C177 1.313 . S
C175 C176 1.338 . S
C175 N178 1.377 . S
C175 H195 0.930 . S
C176 N174 1.375 . S
C176 C175 1.338 . S
C176 H180 0.931 . S
C177 N174 1.313 . S
C177 N178 1.344 . S
C177 H181 0.930 . S
N178 C175 1.377 . S
N178 C177 1.344 . S
O179 Co171 2.055 . S
O179 C183 1.253 . S
H180 C176 0.931 . S
H181 C177 0.930 . S
O182 Co171 2.039 . S
O182 C172 1.265 . S
C183 O179 1.253 . S
C183 O184 1.227 . S
O184 C183 1.227 . S
N185 Co171 2.140 . S
N185 C188 1.346 . S
N185 C189 1.345 . S
C186 C187 1.387 . S
C186 C190 1.391 . S
C187 C186 1.387 . S
C187 C188 1.369 . S
C187 H196 0.929 . S
C188 N185 1.346 . S
C188 C187 1.369 . S
C188 H191 0.928 . S
C189 N185 1.345 . S
C189 C190 1.371 . S
C189 H192 0.931 . S
C190 C186 1.391 . S
C190 C189 1.371 . S
C190 H197 0.930 . S
H191 C188 0.928 . S
H192 C189 0.931 . S
H193 C169 0.930 . S
H194 C166 0.930 . S
H195 C175 0.930 . S
H196 C187 0.929 . S
H197 C190 0.930 . S
C198 C199 1.351 . S
C198 N201 1.368 . S
C198 H203 0.931 . S
C199 C198 1.351 . S
C199 N200 1.373 . S
C199 H227 0.930 . S
N200 C199 1.373 . S
N200 C202 1.340 . S
N201 C198 1.368 . S
N201 C202 1.321 . S
N201 Co204 2.135 . S
C202 N200 1.340 . S
C202 N201 1.321 . S
C202 H226 0.930 . S
H203 C198 0.931 . S
Co204 N201 2.135 . S
Co204 N207 2.121 . S
Co204 O212 2.055 . S
Co204 O215 2.039 . S
Co204 N218 2.140 . S
C205 O206 1.227 . S
C205 O215 1.265 . S
O206 C205 1.227 . S
N207 Co204 2.121 . S
N207 C209 1.375 . S
N207 C210 1.313 . S
C208 C209 1.338 . S
C208 N211 1.377 . S
C208 H228 0.930 . S
C209 N207 1.375 . S
C209 C208 1.338 . S
C209 H213 0.931 . S
C210 N207 1.313 . S
C210 N211 1.344 . S
C210 H214 0.930 . S
N211 C208 1.377 . S
N211 C210 1.344 . S
O212 Co204 2.055 . S
O212 C216 1.253 . S
H213 C209 0.931 . S
H214 C210 0.930 . S
O215 Co204 2.039 . S
O215 C205 1.265 . S
C216 O212 1.253 . S
C216 O217 1.227 . S
O217 C216 1.227 . S
N218 Co204 2.140 . S
N218 C221 1.346 . S
N218 C222 1.345 . S
C219 C220 1.387 . S
C219 C223 1.391 . S
C220 C219 1.387 . S
C220 C221 1.369 . S
C220 H229 0.929 . S
C221 N218 1.346 . S
C221 C220 1.369 . S
C221 H224 0.928 . S
C222 N218 1.345 . S
C222 C223 1.371 . S
C222 H225 0.931 . S
C223 C219 1.391 . S
C223 C222 1.371 . S
C223 H230 0.930 . S
H224 C221 0.928 . S
H225 C222 0.931 . S
H226 C202 0.930 . S
H227 C199 0.930 . S
H228 C208 0.930 . S
H229 C220 0.929 . S
H230 C223 0.930 . S
C231 C232 1.351 . S
C231 N234 1.368 . S
C231 H236 0.931 . S
C232 C231 1.351 . S
C232 N233 1.373 . S
C232 H260 0.930 . S
N233 C232 1.373 . S
N233 C235 1.340 . S
N234 C231 1.368 . S
N234 C235 1.321 . S
N234 Co237 2.135 . S
C235 N233 1.340 . S
C235 N234 1.321 . S
C235 H259 0.930 . S
H236 C231 0.931 . S
Co237 N234 2.135 . S
Co237 N240 2.121 . S
Co237 O245 2.055 . S
Co237 O248 2.039 . S
Co237 N251 2.140 . S
C238 O239 1.227 . S
C238 O248 1.265 . S
O239 C238 1.227 . S
N240 Co237 2.121 . S
N240 C242 1.375 . S
N240 C243 1.313 . S
C241 C242 1.338 . S
C241 N244 1.377 . S
C241 H261 0.930 . S
C242 N240 1.375 . S
C242 C241 1.338 . S
C242 H246 0.931 . S
C243 N240 1.313 . S
C243 N244 1.344 . S
C243 H247 0.930 . S
N244 C241 1.377 . S
N244 C243 1.344 . S
O245 Co237 2.055 . S
O245 C249 1.253 . S
H246 C242 0.931 . S
H247 C243 0.930 . S
O248 Co237 2.039 . S
O248 C238 1.265 . S
C249 O245 1.253 . S
C249 O250 1.227 . S
O250 C249 1.227 . S
N251 Co237 2.140 . S
N251 C254 1.346 . S
N251 C255 1.345 . S
C252 C253 1.387 . S
C252 C256 1.391 . S
C253 C252 1.387 . S
C253 C254 1.369 . S
C253 H262 0.929 . S
C254 N251 1.346 . S
C254 C253 1.369 . S
C254 H257 0.928 . S
C255 N251 1.345 . S
C255 C256 1.371 . S
C255 H258 0.931 . S
C256 C252 1.391 . S
C256 C255 1.371 . S
C256 H263 0.930 . S
H257 C254 0.928 . S
H258 C255 0.931 . S
H259 C235 0.930 . S
H260 C232 0.930 . S
H261 C241 0.930 . S
H262 C253 0.929 . S
H263 C256 0.930 . S
C264 C265 1.351 . S
C264 N267 1.368 . S
C264 H269 0.931 . S
C265 C264 1.351 . S
C265 N266 1.373 . S
C265 H293 0.930 . S
N266 C265 1.373 . S
N266 C268 1.340 . S
N267 C264 1.368 . S
N267 C268 1.321 . S
N267 Co270 2.135 . S
C268 N266 1.340 . S
C268 N267 1.321 . S
C268 H292 0.930 . S
H269 C264 0.931 . S
Co270 N267 2.135 . S
Co270 N273 2.121 . S
Co270 O278 2.055 . S
Co270 O281 2.039 . S
Co270 N284 2.140 . S
C271 O272 1.227 . S
C271 O281 1.265 . S
O272 C271 1.227 . S
N273 Co270 2.121 . S
N273 C275 1.375 . S
N273 C276 1.313 . S
C274 C275 1.338 . S
C274 N277 1.377 . S
C274 H294 0.930 . S
C275 N273 1.375 . S
C275 C274 1.338 . S
C275 H279 0.931 . S
C276 N273 1.313 . S
C276 N277 1.344 . S
C276 H280 0.930 . S
N277 C274 1.377 . S
N277 C276 1.344 . S
O278 Co270 2.055 . S
O278 C282 1.253 . S
H279 C275 0.931 . S
H280 C276 0.930 . S
O281 Co270 2.039 . S
O281 C271 1.265 . S
C282 O278 1.253 . S
C282 O283 1.227 . S
O283 C282 1.227 . S
N284 Co270 2.140 . S
N284 C287 1.346 . S
N284 C288 1.345 . S
C285 C286 1.387 . S
C285 C289 1.391 . S
C286 C285 1.387 . S
C286 C287 1.369 . S
C286 H295 0.929 . S
C287 N284 1.346 . S
C287 C286 1.369 . S
C287 H290 0.928 . S
C288 N284 1.345 . S
C288 C289 1.371 . S
C288 H291 0.931 . S
C289 C285 1.391 . S
C289 C288 1.371 . S
C289 H296 0.930 . S
H290 C287 0.928 . S
H291 C288 0.931 . S
H292 C268 0.930 . S
H293 C265 0.930 . S
H294 C274 0.930 . S
H295 C286 0.929 . S
H296 C289 0.930 . S
C297 C298 1.351 . S
C297 N300 1.368 . S
C297 H302 0.931 . S
C298 C297 1.351 . S
C298 N299 1.373 . S
C298 H326 0.930 . S
N299 C298 1.373 . S
N299 C301 1.340 . S
N300 C297 1.368 . S
N300 C301 1.321 . S
N300 Co303 2.135 . S
C301 N299 1.340 . S
C301 N300 1.321 . S
C301 H325 0.930 . S
H302 C297 0.931 . S
Co303 N300 2.135 . S
Co303 N306 2.121 . S
Co303 O311 2.055 . S
Co303 O314 2.039 . S
Co303 N317 2.140 . S
C304 O305 1.227 . S
C304 O314 1.265 . S
O305 C304 1.227 . S
N306 Co303 2.121 . S
N306 C308 1.375 . S
N306 C309 1.313 . S
C307 C308 1.338 . S
C307 N310 1.377 . S
C307 H327 0.930 . S
C308 N306 1.375 . S
C308 C307 1.338 . S
C308 H312 0.931 . S
C309 N306 1.313 . S
C309 N310 1.344 . S
C309 H313 0.930 . S
N310 C307 1.377 . S
N310 C309 1.344 . S
O311 Co303 2.055 . S
O311 C315 1.253 . S
H312 C308 0.931 . S
H313 C309 0.930 . S
O314 Co303 2.039 . S
O314 C304 1.265 . S
C315 O311 1.253 . S
C315 O316 1.227 . S
O316 C315 1.227 . S
N317 Co303 2.140 . S
N317 C320 1.346 . S
N317 C321 1.345 . S
C318 C319 1.387 . S
C318 C322 1.391 . S
C319 C318 1.387 . S
C319 C320 1.369 . S
C319 H328 0.912 1_655 S
C320 N317 1.346 . S
C320 C319 1.369 . S
C320 H323 0.928 . S
C321 N317 1.345 . S
C321 C322 1.371 . S
C321 H324 0.931 . S
C322 C318 1.391 . S
C322 C321 1.371 . S
C322 H329 0.930 . S
H323 C320 0.928 . S
H324 C321 0.931 . S
H325 C301 0.930 . S
H326 C298 0.930 . S
H327 C307 0.930 . S
H328 C319 0.912 1_455 S
H329 C322 0.930 . S
C330 C331 1.351 . S
C330 N333 1.368 . S
C330 H335 0.931 . S
C331 C330 1.351 . S
C331 N332 1.373 . S
C331 H359 0.930 . S
N332 C331 1.373 . S
N332 C334 1.340 . S
N333 C330 1.368 . S
N333 C334 1.321 . S
N333 Co336 2.135 . S
C334 N332 1.340 . S
C334 N333 1.321 . S
C334 H358 0.930 . S
H335 C330 0.931 . S
Co336 N333 2.135 . S
Co336 N339 2.121 . S
Co336 O344 2.055 . S
Co336 O347 2.039 . S
Co336 N350 2.140 . S
C337 O338 1.227 . S
C337 O347 1.265 . S
O338 C337 1.227 . S
N339 Co336 2.121 . S
N339 C341 1.375 . S
N339 C342 1.313 . S
C340 C341 1.338 . S
C340 N343 1.377 . S
C340 H360 0.930 . S
C341 N339 1.375 . S
C341 C340 1.338 . S
C341 H345 0.931 . S
C342 N339 1.313 . S
C342 N343 1.344 . S
C342 H346 0.930 . S
N343 C340 1.377 . S
N343 C342 1.344 . S
O344 Co336 2.055 . S
O344 C348 1.253 . S
H345 C341 0.931 . S
H346 C342 0.930 . S
O347 Co336 2.039 . S
O347 C337 1.265 . S
C348 O344 1.253 . S
C348 O349 1.227 . S
O349 C348 1.227 . S
N350 Co336 2.140 . S
N350 C353 1.346 . S
N350 C354 1.345 . S
C351 C352 1.387 . S
C351 C355 1.391 . S
C352 C351 1.387 . S
C352 C353 1.369 . S
C352 H361 0.929 . S
C353 N350 1.346 . S
C353 C352 1.369 . S
C353 H356 0.928 . S
C354 N350 1.345 . S
C354 C355 1.371 . S
C354 H357 0.931 . S
C355 C351 1.391 . S
C355 C354 1.371 . S
C355 H362 0.930 . S
H356 C353 0.928 . S
H357 C354 0.931 . S
H358 C334 0.930 . S
H359 C331 0.930 . S
H360 C340 0.930 . S
H361 C352 0.929 . S
H362 C355 0.930 . S
C363 C364 1.351 . S
C363 N366 1.368 . S
C363 H368 0.931 . S
C364 C363 1.351 . S
C364 N365 1.373 . S
C364 H392 0.930 . S
N365 C364 1.373 . S
N365 C367 1.340 . S
N366 C363 1.368 . S
N366 C367 1.321 . S
N366 Co369 2.135 . S
C367 N365 1.340 . S
C367 N366 1.321 . S
C367 H391 0.930 . S
H368 C363 0.931 . S
Co369 N366 2.135 . S
Co369 N372 2.121 . S
Co369 O377 2.055 . S
Co369 O380 2.039 . S
Co369 N383 2.140 . S
C370 O371 1.227 . S
C370 O380 1.265 . S
O371 C370 1.227 . S
N372 Co369 2.121 . S
N372 C374 1.375 . S
N372 C375 1.313 . S
C373 C374 1.338 . S
C373 N376 1.377 . S
C373 H393 0.930 . S
C374 N372 1.375 . S
C374 C373 1.338 . S
C374 H378 0.931 . S
C375 N372 1.313 . S
C375 N376 1.344 . S
C375 H379 0.930 . S
N376 C373 1.377 . S
N376 C375 1.344 . S
O377 Co369 2.055 . S
O377 C381 1.253 . S
H378 C374 0.931 . S
H379 C375 0.930 . S
O380 Co369 2.039 . S
O380 C370 1.265 . S
C381 O377 1.253 . S
C381 O382 1.227 . S
O382 C381 1.227 . S
N383 Co369 2.140 . S
N383 C386 1.346 . S
N383 C387 1.345 . S
C384 C385 1.387 . S
C384 C388 1.391 . S
C385 C384 1.387 . S
C385 C386 1.369 . S
C385 H394 0.929 1_545 S
C386 N383 1.346 . S
C386 C385 1.369 . S
C386 H389 0.928 . S
C387 N383 1.345 . S
C387 C388 1.371 . S
C387 H390 0.931 . S
C388 C384 1.391 . S
C388 C387 1.371 . S
C388 H395 0.930 . S
H389 C386 0.928 . S
H390 C387 0.931 . S
H391 C367 0.930 . S
H392 C364 0.930 . S
H393 C373 0.930 . S
H394 C385 0.929 1_565 S
H395 C388 0.930 . S
C396 C397 1.351 . S
C396 N399 1.368 . S
C396 H401 0.931 . S
C397 C396 1.351 . S
C397 N398 1.373 . S
C397 H425 0.930 . S
N398 C397 1.373 . S
N398 C400 1.340 . S
N399 C396 1.368 . S
N399 C400 1.321 . S
N399 Co402 2.135 . S
C400 N398 1.340 . S
C400 N399 1.321 . S
C400 H424 0.930 . S
H401 C396 0.931 . S
Co402 N399 2.135 . S
Co402 N405 2.121 . S
Co402 O410 2.055 . S
Co402 O413 2.039 . S
Co402 N416 2.140 . S
C403 O404 1.227 . S
C403 O413 1.265 . S
O404 C403 1.227 . S
N405 Co402 2.121 . S
N405 C407 1.375 . S
N405 C408 1.313 . S
C406 C407 1.338 . S
C406 N409 1.377 . S
C406 H426 0.930 . S
C407 N405 1.375 . S
C407 C406 1.338 . S
C407 H411 0.931 . S
C408 N405 1.313 . S
C408 N409 1.344 . S
C408 H412 0.930 . S
N409 C406 1.377 . S
N409 C408 1.344 . S
O410 Co402 2.055 . S
O410 C414 1.253 . S
H411 C407 0.931 . S
H412 C408 0.930 . S
O413 Co402 2.039 . S
O413 C403 1.265 . S
C414 O410 1.253 . S
C414 O415 1.227 . S
O415 C414 1.227 . S
N416 Co402 2.140 . S
N416 C419 1.346 . S
N416 C420 1.345 . S
C417 C418 1.387 . S
C417 C421 1.391 . S
C418 C417 1.387 . S
C418 C419 1.369 . S
C418 H427 0.912 1_565 S
C419 N416 1.346 . S
C419 C418 1.369 . S
C419 H422 0.928 . S
C420 N416 1.345 . S
C420 C421 1.371 . S
C420 H423 0.931 . S
C421 C417 1.391 . S
C421 C420 1.371 . S
C421 H428 0.930 . S
H422 C419 0.928 . S
H423 C420 0.931 . S
H424 C400 0.930 . S
H425 C397 0.930 . S
H426 C406 0.930 . S
H427 C418 0.912 1_545 S
H428 C421 0.930 . S
C429 C430 1.351 . S
C429 N432 1.368 . S
C429 H434 0.931 . S
C430 C429 1.351 . S
C430 N431 1.373 . S
C430 H458 0.930 . S
N431 C430 1.373 . S
N431 C433 1.340 . S
N432 C429 1.368 . S
N432 C433 1.321 . S
N432 Co435 2.135 . S
C433 N431 1.340 . S
C433 N432 1.321 . S
C433 H457 0.930 . S
H434 C429 0.931 . S
Co435 N432 2.135 . S
Co435 N438 2.121 . S
Co435 O443 2.055 . S
Co435 O446 2.039 . S
Co435 N449 2.140 . S
C436 O437 1.227 . S
C436 O446 1.265 . S
O437 C436 1.227 . S
N438 Co435 2.121 . S
N438 C440 1.375 . S
N438 C441 1.313 . S
C439 C440 1.338 . S
C439 N442 1.377 . S
C439 H459 0.930 . S
C440 N438 1.375 . S
C440 C439 1.338 . S
C440 H444 0.931 . S
C441 N438 1.313 . S
C441 N442 1.344 . S
C441 H445 0.930 . S
N442 C439 1.377 . S
N442 C441 1.344 . S
O443 Co435 2.055 . S
O443 C447 1.253 . S
H444 C440 0.931 . S
H445 C441 0.930 . S
O446 Co435 2.039 . S
O446 C436 1.265 . S
C447 O443 1.253 . S
C447 O448 1.227 . S
O448 C447 1.227 . S
N449 Co435 2.140 . S
N449 C452 1.346 . S
N449 C453 1.345 . S
C450 C451 1.387 . S
C450 C454 1.391 . S
C451 C450 1.387 . S
C451 C452 1.369 . S
C451 H460 0.929 1_455 S
C452 N449 1.346 . S
C452 C451 1.369 . S
C452 H455 0.928 . S
C453 N449 1.345 . S
C453 C454 1.371 . S
C453 H456 0.931 . S
C454 C450 1.391 . S
C454 C453 1.371 . S
C454 H461 0.930 . S
H455 C452 0.928 . S
H456 C453 0.931 . S
H457 C433 0.930 . S
H458 C430 0.930 . S
H459 C439 0.930 . S
H460 C451 0.929 1_655 S
H461 C454 0.930 . S
C462 C463 1.351 . S
C462 N465 1.368 . S
C462 H467 0.931 . S
C463 C462 1.351 . S
C463 N464 1.373 . S
C463 H491 0.930 . S
N464 C463 1.373 . S
N464 C466 1.340 . S
N465 C462 1.368 . S
N465 C466 1.321 . S
N465 Co468 2.135 . S
C466 N464 1.340 . S
C466 N465 1.321 . S
C466 H490 0.930 . S
H467 C462 0.931 . S
Co468 N465 2.135 . S
Co468 N471 2.121 . S
Co468 O476 2.055 . S
Co468 O479 2.039 . S
Co468 N482 2.140 . S
C469 O470 1.227 . S
C469 O479 1.265 . S
O470 C469 1.227 . S
N471 Co468 2.121 . S
N471 C473 1.375 . S
N471 C474 1.313 . S
C472 C473 1.338 . S
C472 N475 1.377 . S
C472 H492 0.930 . S
C473 N471 1.375 . S
C473 C472 1.338 . S
C473 H477 0.931 . S
C474 N471 1.313 . S
C474 N475 1.344 . S
C474 H478 0.930 . S
N475 C472 1.377 . S
N475 C474 1.344 . S
O476 Co468 2.055 . S
O476 C480 1.253 . S
H477 C473 0.931 . S
H478 C474 0.930 . S
O479 Co468 2.039 . S
O479 C469 1.265 . S
C480 O476 1.253 . S
C480 O481 1.227 . S
O481 C480 1.227 . S
N482 Co468 2.140 . S
N482 C485 1.346 . S
N482 C486 1.345 . S
C483 C484 1.387 . S
C483 C487 1.391 . S
C484 C483 1.387 . S
C484 C485 1.369 . S
C484 H493 0.929 . S
C485 N482 1.346 . S
C485 C484 1.369 . S
C485 H488 0.928 . S
C486 N482 1.345 . S
C486 C487 1.371 . S
C486 H489 0.931 . S
C487 C483 1.391 . S
C487 C486 1.371 . S
C487 H494 0.930 . S
H488 C485 0.928 . S
H489 C486 0.931 . S
H490 C466 0.930 . S
H491 C463 0.930 . S
H492 C472 0.930 . S
H493 C484 0.929 . S
H494 C487 0.930 . S
C495 C496 1.351 . S
C495 N498 1.368 . S
C495 H500 0.931 . S
C496 C495 1.351 . S
C496 N497 1.373 . S
C496 H524 0.930 . S
N497 C496 1.373 . S
N497 C499 1.340 . S
N498 C495 1.368 . S
N498 C499 1.321 . S
N498 Co501 2.135 . S
C499 N497 1.340 . S
C499 N498 1.321 . S
C499 H523 0.930 . S
H500 C495 0.931 . S
Co501 N498 2.135 . S
Co501 N504 2.121 . S
Co501 O509 2.055 . S
Co501 O512 2.039 . S
Co501 N515 2.140 . S
C502 O503 1.227 . S
C502 O512 1.265 . S
O503 C502 1.227 . S
N504 Co501 2.121 . S
N504 C506 1.375 . S
N504 C507 1.313 . S
C505 C506 1.338 . S
C505 N508 1.377 . S
C505 H525 0.930 . S
C506 N504 1.375 . S
C506 C505 1.338 . S
C506 H510 0.931 . S
C507 N504 1.313 . S
C507 N508 1.344 . S
C507 H511 0.930 . S
N508 C505 1.377 . S
N508 C507 1.344 . S
O509 Co501 2.055 . S
O509 C513 1.253 . S
H510 C506 0.931 . S
H511 C507 0.930 . S
O512 Co501 2.039 . S
O512 C502 1.265 . S
C513 O509 1.253 . S
C513 O514 1.227 . S
O514 C513 1.227 . S
N515 Co501 2.140 . S
N515 C518 1.346 . S
N515 C519 1.345 . S
C516 C517 1.387 . S
C516 C520 1.391 . S
C517 C516 1.387 . S
C517 C518 1.369 . S
C517 H526 0.929 . S
C518 N515 1.346 . S
C518 C517 1.369 . S
C518 H521 0.928 . S
C519 N515 1.345 . S
C519 C520 1.371 . S
C519 H522 0.931 . S
C520 C516 1.391 . S
C520 C519 1.371 . S
C520 H527 0.930 . S
H521 C518 0.928 . S
H522 C519 0.931 . S
H523 C499 0.930 . S
H524 C496 0.930 . S
H525 C505 0.930 . S
H526 C517 0.929 . S
H527 C520 0.930 . S
C528 C529 1.351 . S
C528 N531 1.368 . S
C528 H533 0.931 . S
C529 C528 1.351 . S
C529 N530 1.373 . S
C529 H557 0.930 . S
N530 C529 1.373 . S
N530 C532 1.340 . S
N531 C528 1.368 . S
N531 C532 1.321 . S
N531 Co534 2.135 . S
C532 N530 1.340 . S
C532 N531 1.321 . S
C532 H556 0.930 . S
H533 C528 0.931 . S
Co534 N531 2.135 . S
Co534 N537 2.121 . S
Co534 O542 2.055 . S
Co534 O545 2.039 . S
Co534 N548 2.140 . S
C535 O536 1.227 . S
C535 O545 1.265 . S
O536 C535 1.227 . S
N537 Co534 2.121 . S
N537 C539 1.375 . S
N537 C540 1.313 . S
C538 C539 1.338 . S
C538 N541 1.377 . S
C538 H558 0.930 . S
C539 N537 1.375 . S
C539 C538 1.338 . S
C539 H543 0.931 . S
C540 N537 1.313 . S
C540 N541 1.344 . S
C540 H544 0.930 . S
N541 C538 1.377 . S
N541 C540 1.344 . S
O542 Co534 2.055 . S
O542 C546 1.253 . S
H543 C539 0.931 . S
H544 C540 0.930 . S
O545 Co534 2.039 . S
O545 C535 1.265 . S
C546 O542 1.253 . S
C546 O547 1.227 . S
O547 C546 1.227 . S
N548 Co534 2.140 . S
N548 C551 1.346 . S
N548 C552 1.345 . S
C549 C550 1.387 . S
C549 C553 1.391 . S
C550 C549 1.387 . S
C550 C551 1.369 . S
C550 H559 0.929 . S
C551 N548 1.346 . S
C551 C550 1.369 . S
C551 H554 0.928 . S
C552 N548 1.345 . S
C552 C553 1.371 . S
C552 H555 0.931 . S
C553 C549 1.391 . S
C553 C552 1.371 . S
C553 H560 0.930 . S
H554 C551 0.928 . S
H555 C552 0.931 . S
H556 C532 0.930 . S
H557 C529 0.930 . S
H558 C538 0.930 . S
H559 C550 0.929 . S
H560 C553 0.930 . S
C561 C562 1.351 . S
C561 N564 1.368 . S
C561 H566 0.931 . S
C562 C561 1.351 . S
C562 N563 1.373 . S
C562 H590 0.930 . S
N563 C562 1.373 . S
N563 C565 1.340 . S
N564 C561 1.368 . S
N564 C565 1.321 . S
N564 Co567 2.135 . S
C565 N563 1.340 . S
C565 N564 1.321 . S
C565 H589 0.930 . S
H566 C561 0.931 . S
Co567 N564 2.135 . S
Co567 N570 2.121 . S
Co567 O575 2.055 . S
Co567 O578 2.039 . S
Co567 N581 2.140 . S
C568 O569 1.227 . S
C568 O578 1.265 . S
O569 C568 1.227 . S
N570 Co567 2.121 . S
N570 C572 1.375 . S
N570 C573 1.313 . S
C571 C572 1.338 . S
C571 N574 1.377 . S
C571 H591 0.930 . S
C572 N570 1.375 . S
C572 C571 1.338 . S
C572 H576 0.931 . S
C573 N570 1.313 . S
C573 N574 1.344 . S
C573 H577 0.930 . S
N574 C571 1.377 . S
N574 C573 1.344 . S
O575 Co567 2.055 . S
O575 C579 1.253 . S
H576 C572 0.931 . S
H577 C573 0.930 . S
O578 Co567 2.039 . S
O578 C568 1.265 . S
C579 O575 1.253 . S
C579 O580 1.227 . S
O580 C579 1.227 . S
N581 Co567 2.140 . S
N581 C584 1.346 . S
N581 C585 1.345 . S
C582 C583 1.387 . S
C582 C586 1.391 . S
C583 C582 1.387 . S
C583 C584 1.369 . S
C583 H592 0.929 . S
C584 N581 1.346 . S
C584 C583 1.369 . S
C584 H587 0.928 . S
C585 N581 1.345 . S
C585 C586 1.371 . S
C585 H588 0.931 . S
C586 C582 1.391 . S
C586 C585 1.371 . S
C586 H593 0.930 . S
H587 C584 0.928 . S
H588 C585 0.931 . S
H589 C565 0.930 . S
H590 C562 0.930 . S
H591 C571 0.930 . S
H592 C583 0.929 . S
H593 C586 0.930 . S
H594 C612 0.951 . S
H595 C614 0.951 . S
H596 C616 0.950 . S
H597 C617 0.950 . S
H598 C619 0.950 . S
H599 C622 0.950 . S
H600 C623 0.950 . S
H601 C625 0.950 . S
H602 C626 0.950 . S
H603 C627 0.951 . S
H604 C629 0.951 . S
H605 C631 0.950 . S
H606 C632 0.950 . S
H607 C634 0.950 . S
H608 C637 0.950 . S
H609 C638 0.950 . S
H610 C640 0.950 . S
H611 C641 0.950 . S
C612 H594 0.951 . S
C612 C613 1.366 . S
C612 C614 1.388 . S
C613 C612 1.366 . S
C613 C617 1.385 . S
C614 H595 0.951 . S
C614 C612 1.388 . S
C614 C615 1.366 . S
C615 C614 1.366 . S
C615 C616 1.414 . S
C615 C618 1.499 . S
C616 H596 0.950 . S
C616 C615 1.414 . S
C616 C617 1.374 . S
C617 H597 0.950 . S
C617 C613 1.385 . S
C617 C616 1.374 . S
C618 C615 1.499 . S
C618 C619 1.373 . S
C618 C620 1.389 . S
C619 H598 0.950 . S
C619 C618 1.373 . S
C619 C635 1.377 . S
C620 C618 1.389 . S
C620 C621 1.524 . S
C620 C634 1.377 . S
C621 C620 1.524 . S
C621 C622 1.397 . S
C621 C626 1.363 . S
C622 H599 0.950 . S
C622 C621 1.397 . S
C622 C623 1.334 . S
C623 H600 0.950 . S
C623 C622 1.334 . S
C623 C624 1.287 . S
C624 C623 1.287 . S
C624 C625 1.524 . S
C624 H643 0.913 . S
C625 H601 0.950 . S
C625 C624 1.524 . S
C625 C626 1.415 . S
C626 H602 0.950 . S
C626 C621 1.363 . S
C626 C625 1.415 . S
C627 H603 0.951 . S
C627 C628 1.366 . S
C627 C629 1.388 . S
C628 C627 1.366 . S
C628 C632 1.385 . S
C629 H604 0.951 . S
C629 C627 1.388 . S
C629 C630 1.366 . S
C630 C629 1.366 . S
C630 C631 1.414 . S
C630 C633 1.499 . S
C631 H605 0.950 . S
C631 C630 1.414 . S
C631 C632 1.374 . S
C632 H606 0.950 . S
C632 C628 1.385 . S
C632 C631 1.374 . S
C633 C630 1.499 . S
C633 C634 1.373 . S
C633 C635 1.389 . S
C634 H607 0.950 . S
C634 C620 1.377 . S
C634 C633 1.373 . S
C635 C619 1.377 . S
C635 C633 1.389 . S
C635 C636 1.524 . S
C636 C635 1.524 . S
C636 C637 1.397 . S
C636 C641 1.363 . S
C637 H608 0.950 . S
C637 C636 1.397 . S
C637 C638 1.334 . S
C638 H609 0.950 . S
C638 C637 1.334 . S
C638 C639 1.287 . S
C639 C638 1.287 . S
C639 C640 1.524 . S
C639 H642 0.999 . S
C640 H610 0.950 . S
C640 C639 1.524 . S
C640 C641 1.415 . S
C641 H611 0.950 . S
C641 C636 1.363 . S
C641 C640 1.415 . S
H642 C639 0.999 . S
H643 C624 0.913 . S
H644 C662 0.951 . S
H645 C664 0.951 . S
H646 C666 0.950 . S
H647 C667 0.950 . S
H648 C669 0.950 . S
H649 C672 0.950 . S
H650 C673 0.950 . S
H651 C675 0.950 . S
H652 C676 0.950 . S
H653 C677 0.951 . S
H654 C679 0.951 . S
H655 C681 0.950 . S
H656 C682 0.950 . S
H657 C684 0.950 . S
H658 C687 0.950 1_565 S
H659 C688 0.950 . S
H660 C690 0.950 . S
H661 C691 0.950 . S
C662 H644 0.951 . S
C662 C663 1.366 . S
C662 C664 1.388 . S
C663 C662 1.366 . S
C663 C667 1.385 . S
C664 H645 0.951 . S
C664 C662 1.388 . S
C664 C665 1.366 . S
C665 C664 1.366 . S
C665 C666 1.414 . S
C665 C668 1.499 . S
C666 H646 0.950 . S
C666 C665 1.414 . S
C666 C667 1.374 . S
C667 H647 0.950 . S
C667 C663 1.385 . S
C667 C666 1.374 . S
C668 C665 1.499 . S
C668 C669 1.373 . S
C668 C670 1.389 . S
C669 H648 0.950 . S
C669 C668 1.373 . S
C669 C685 1.377 . S
C670 C668 1.389 . S
C670 C671 1.524 . S
C670 C684 1.377 . S
C671 C670 1.524 . S
C671 C672 1.397 . S
C671 C676 1.363 . S
C672 H649 0.950 . S
C672 C671 1.397 . S
C672 C673 1.334 . S
C673 H650 0.950 . S
C673 C672 1.334 . S
C673 C674 1.287 . S
C674 C673 1.287 . S
C674 C675 1.524 . S
C674 H693 0.913 . S
C675 H651 0.950 . S
C675 C674 1.524 . S
C675 C676 1.415 . S
C676 H652 0.950 . S
C676 C671 1.363 . S
C676 C675 1.415 . S
C677 H653 0.951 . S
C677 C678 1.366 1_545 S
C677 C679 1.388 1_545 S
C678 C677 1.366 1_565 S
C678 C682 1.385 . S
C679 H654 0.951 . S
C679 C677 1.388 1_565 S
C679 C680 1.366 . S
C680 C679 1.366 . S
C680 C681 1.414 . S
C680 C683 1.499 . S
C681 H655 0.950 . S
C681 C680 1.414 . S
C681 C682 1.374 . S
C682 H656 0.950 . S
C682 C678 1.385 . S
C682 C681 1.374 . S
C683 C680 1.499 . S
C683 C684 1.373 . S
C683 C685 1.389 . S
C684 H657 0.950 . S
C684 C670 1.377 . S
C684 C683 1.373 . S
C685 C669 1.377 . S
C685 C683 1.389 . S
C685 C686 1.524 . S
C686 C685 1.524 . S
C686 C687 1.397 1_565 S
C686 C691 1.363 1_565 S
C687 H658 0.950 1_545 S
C687 C686 1.397 1_545 S
C687 C688 1.334 . S
C688 H659 0.950 . S
C688 C687 1.334 . S
C688 C689 1.287 . S
C689 C688 1.287 . S
C689 C690 1.524 . S
C689 H692 0.999 . S
C690 H660 0.950 . S
C690 C689 1.524 . S
C690 C691 1.415 . S
C691 H661 0.950 . S
C691 C686 1.363 1_545 S
C691 C690 1.415 . S
H692 C689 0.999 . S
H693 C674 0.913 . S
H694 C712 0.951 . S
H695 C714 0.951 1_655 S
H696 C716 0.950 . S
H697 C717 0.950 . S
H698 C719 0.950 . S
H699 C722 0.975 . S
H700 C723 0.950 . S
H701 C725 0.950 . S
H702 C726 0.950 . S
H703 C727 0.951 . S
H704 C729 0.951 . S
H705 C731 0.950 . S
H706 C732 0.950 . S
H707 C734 0.950 . S
H708 C737 0.950 . S
H709 C738 0.950 . S
H710 C740 0.950 . S
H711 C741 0.950 . S
C712 H694 0.951 . S
C712 C713 1.366 1_655 S
C712 C714 1.388 1_655 S
C713 C712 1.366 1_455 S
C713 C717 1.385 . S
C714 H695 0.951 1_455 S
C714 C712 1.388 1_455 S
C714 C715 1.366 . S
C715 C714 1.366 . S
C715 C716 1.414 . S
C715 C718 1.499 . S
C716 H696 0.950 . S
C716 C715 1.414 . S
C716 C717 1.374 . S
C717 H697 0.950 . S
C717 C713 1.385 . S
C717 C716 1.374 . S
C718 C715 1.499 . S
C718 C719 1.373 . S
C718 C720 1.389 . S
C719 H698 0.950 . S
C719 C718 1.373 . S
C719 C735 1.377 . S
C720 C718 1.389 . S
C720 C721 1.524 . S
C720 C734 1.377 . S
C721 C720 1.524 . S
C721 C722 1.399 . S
C721 C726 1.363 1_455 S
C722 H699 0.975 . S
C722 C721 1.399 . S
C722 C723 1.307 1_455 S
C723 H700 0.950 . S
C723 C722 1.307 1_655 S
C723 C724 1.287 . S
C724 C723 1.287 . S
C724 C725 1.524 . S
C724 H743 0.913 . S
C725 H701 0.950 . S
C725 C724 1.524 . S
C725 C726 1.415 . S
C726 H702 0.950 . S
C726 C721 1.363 1_655 S
C726 C725 1.415 . S
C727 H703 0.951 . S
C727 C728 1.366 . S
C727 C729 1.388 . S
C728 C727 1.366 . S
C728 C732 1.385 . S
C729 H704 0.951 . S
C729 C727 1.388 . S
C729 C730 1.366 . S
C730 C729 1.366 . S
C730 C731 1.414 . S
C730 C733 1.499 . S
C731 H705 0.950 . S
C731 C730 1.414 . S
C731 C732 1.374 . S
C732 H706 0.950 . S
C732 C728 1.385 . S
C732 C731 1.374 . S
C733 C730 1.499 . S
C733 C734 1.373 . S
C733 C735 1.389 . S
C734 H707 0.950 . S
C734 C720 1.377 . S
C734 C733 1.373 . S
C735 C719 1.377 . S
C735 C733 1.389 . S
C735 C736 1.524 . S
C736 C735 1.524 . S
C736 C737 1.397 . S
C736 C741 1.363 . S
C737 H708 0.950 . S
C737 C736 1.397 . S
C737 C738 1.334 . S
C738 H709 0.950 . S
C738 C737 1.334 . S
C738 C739 1.287 . S
C739 C738 1.287 . S
C739 C740 1.524 . S
C739 H742 0.999 . S
C740 H710 0.950 . S
C740 C739 1.524 . S
C740 C741 1.415 . S
C741 H711 0.950 . S
C741 C736 1.363 . S
C741 C740 1.415 . S
H742 C739 0.999 . S
H743 C724 0.913 . S
H744 C762 0.951 . S
H745 C764 0.951 . S
H746 C766 0.950 . S
H747 C767 0.950 . S
H748 C769 0.950 . S
H749 C772 0.950 . S
H750 C773 0.950 . S
H751 C775 0.950 . S
H752 C776 0.950 . S
H753 C777 0.951 . S
H754 C779 0.951 . S
H755 C781 0.950 . S
H756 C782 0.950 . S
H757 C784 0.950 . S
H758 C787 0.950 . S
H759 C788 0.950 . S
H760 C790 0.950 . S
H761 C791 0.950 . S
C762 H744 0.951 . S
C762 C763 1.366 . S
C762 C764 1.388 . S
C763 C762 1.366 . S
C763 C767 1.385 . S
C764 H745 0.951 . S
C764 C762 1.388 . S
C764 C765 1.366 . S
C765 C764 1.366 . S
C765 C766 1.414 . S
C765 C768 1.499 . S
C766 H746 0.950 . S
C766 C765 1.414 . S
C766 C767 1.374 . S
C767 H747 0.950 . S
C767 C763 1.385 . S
C767 C766 1.374 . S
C768 C765 1.499 . S
C768 C769 1.373 . S
C768 C770 1.389 . S
C769 H748 0.950 . S
C769 C768 1.373 . S
C769 C785 1.377 . S
C770 C768 1.389 . S
C770 C771 1.524 . S
C770 C784 1.377 . S
C771 C770 1.524 . S
C771 C772 1.397 . S
C771 C776 1.363 . S
C772 H749 0.950 . S
C772 C771 1.397 . S
C772 C773 1.334 . S
C773 H750 0.950 . S
C773 C772 1.334 . S
C773 C774 1.287 . S
C774 C773 1.287 . S
C774 C775 1.524 . S
C774 H793 0.913 . S
C775 H751 0.950 . S
C775 C774 1.524 . S
C775 C776 1.415 . S
C776 H752 0.950 . S
C776 C771 1.363 . S
C776 C775 1.415 . S
C777 H753 0.951 . S
C777 C778 1.366 . S
C777 C779 1.388 . S
C778 C777 1.366 . S
C778 C782 1.385 . S
C779 H754 0.951 . S
C779 C777 1.388 . S
C779 C780 1.366 . S
C780 C779 1.366 . S
C780 C781 1.414 . S
C780 C783 1.499 . S
C781 H755 0.950 . S
C781 C780 1.414 . S
C781 C782 1.374 . S
C782 H756 0.950 . S
C782 C778 1.385 . S
C782 C781 1.374 . S
C783 C780 1.499 . S
C783 C784 1.373 . S
C783 C785 1.389 . S
C784 H757 0.950 . S
C784 C770 1.377 . S
C784 C783 1.373 . S
C785 C769 1.377 . S
C785 C783 1.389 . S
C785 C786 1.524 . S
C786 C785 1.524 . S
C786 C787 1.397 . S
C786 C791 1.363 . S
C787 H758 0.950 . S
C787 C786 1.397 . S
C787 C788 1.334 . S
C788 H759 0.950 . S
C788 C787 1.334 . S
C788 C789 1.287 . S
C789 C788 1.287 . S
C789 C790 1.524 . S
C789 H792 0.999 . S
C790 H760 0.950 . S
C790 C789 1.524 . S
C790 C791 1.415 . S
C791 H761 0.950 . S
C791 C786 1.363 . S
C791 C790 1.415 . S
H792 C789 0.999 . S
H793 C774 0.913 . S
H794 C812 0.951 . S
H795 C814 0.951 . S
H796 C816 0.950 . S
H797 C817 0.950 . S
H798 C819 0.950 . S
H799 C822 0.950 . S
H800 C823 0.950 . S
H801 C825 0.950 . S
H802 C826 0.950 . S
H803 C827 0.971 . S
H804 C829 0.951 . S
H805 C831 0.950 . S
H806 C832 0.950 . S
H807 C834 0.950 . S
H808 C837 0.950 . S
H809 C838 0.950 . S
H810 C840 0.950 . S
H811 C841 0.950 . S
C812 H794 0.951 . S
C812 C813 1.366 . S
C812 C814 1.388 . S
C813 C812 1.366 . S
C813 C817 1.385 . S
C814 H795 0.951 . S
C814 C812 1.388 . S
C814 C815 1.366 . S
C815 C814 1.366 . S
C815 C816 1.414 . S
C815 C818 1.499 . S
C816 H796 0.950 . S
C816 C815 1.414 . S
C816 C817 1.374 . S
C817 H797 0.950 . S
C817 C813 1.385 . S
C817 C816 1.374 . S
C818 C815 1.499 . S
C818 C819 1.373 . S
C818 C820 1.389 . S
C819 H798 0.950 . S
C819 C818 1.373 . S
C819 C835 1.377 . S
C820 C818 1.389 . S
C820 C821 1.524 . S
C820 C834 1.377 . S
C821 C820 1.524 . S
C821 C822 1.397 . S
C821 C826 1.363 . S
C822 H799 0.950 . S
C822 C821 1.397 . S
C822 C823 1.334 . S
C823 H800 0.950 . S
C823 C822 1.334 . S
C823 C824 1.287 . S
C824 C823 1.287 . S
C824 C825 1.524 . S
C824 H843 0.913 . S
C825 H801 0.950 . S
C825 C824 1.524 . S
C825 C826 1.415 . S
C826 H802 0.950 . S
C826 C821 1.363 . S
C826 C825 1.415 . S
C827 H803 0.971 . S
C827 C828 1.348 1_565 S
C827 C829 1.388 1_565 S
C828 C827 1.348 1_545 S
C828 C832 1.385 . S
C829 H804 0.951 . S
C829 C827 1.388 1_545 S
C829 C830 1.366 . S
C830 C829 1.366 . S
C830 C831 1.414 . S
C830 C833 1.499 . S
C831 H805 0.950 . S
C831 C830 1.414 . S
C831 C832 1.374 . S
C832 H806 0.950 . S
C832 C828 1.385 . S
C832 C831 1.374 . S
C833 C830 1.499 . S
C833 C834 1.373 . S
C833 C835 1.389 . S
C834 H807 0.950 . S
C834 C820 1.377 . S
C834 C833 1.373 . S
C835 C819 1.377 . S
C835 C833 1.389 . S
C835 C836 1.524 . S
C836 C835 1.524 . S
C836 C837 1.397 . S
C836 C841 1.363 . S
C837 H808 0.950 . S
C837 C836 1.397 . S
C837 C838 1.334 . S
C838 H809 0.950 . S
C838 C837 1.334 . S
C838 C839 1.287 . S
C839 C838 1.287 . S
C839 C840 1.524 . S
C839 H842 0.999 . S
C840 H810 0.950 . S
C840 C839 1.524 . S
C840 C841 1.415 . S
C841 H811 0.950 . S
C841 C836 1.363 . S
C841 C840 1.415 . S
H842 C839 0.999 . S
H843 C824 0.913 . S
H844 C862 0.951 1_455 S
H845 C864 0.951 . S
H846 C866 0.950 . S
H847 C867 0.950 . S
H848 C869 0.950 . S
H849 C872 0.970 . S
H850 C873 0.950 . S
H851 C875 0.950 . S
H852 C876 0.950 . S
H853 C877 0.951 . S
H854 C879 0.951 . S
H855 C881 0.950 . S
H856 C882 0.950 . S
H857 C884 0.950 . S
H858 C887 0.950 . S
H859 C888 0.950 . S
H860 C890 0.950 . S
H861 C891 0.950 . S
C862 H844 0.951 1_655 S
C862 C863 1.366 . S
C862 C864 1.388 . S
C863 C862 1.366 . S
C863 C867 1.385 . S
C864 H845 0.951 . S
C864 C862 1.388 . S
C864 C865 1.366 . S
C865 C864 1.366 . S
C865 C866 1.414 . S
C865 C868 1.499 . S
C866 H846 0.950 . S
C866 C865 1.414 . S
C866 C867 1.374 . S
C867 H847 0.950 . S
C867 C863 1.385 . S
C867 C866 1.374 . S
C868 C865 1.499 . S
C868 C869 1.373 . S
C868 C870 1.389 . S
C869 H848 0.950 . S
C869 C868 1.373 . S
C869 C885 1.377 . S
C870 C868 1.389 . S
C870 C871 1.549 . S
C870 C884 1.377 . S
C871 C870 1.549 . S
C871 C872 1.388 1_655 S
C871 C876 1.350 1_655 S
C872 H849 0.970 . S
C872 C871 1.388 1_455 S
C872 C873 1.334 . S
C873 H850 0.950 . S
C873 C872 1.334 . S
C873 C874 1.287 . S
C874 C873 1.287 . S
C874 C875 1.524 . S
C874 H893 0.913 . S
C875 H851 0.950 . S
C875 C874 1.524 . S
C875 C876 1.415 . S
C876 H852 0.950 . S
C876 C871 1.350 1_455 S
C876 C875 1.415 . S
C877 H853 0.951 . S
C877 C878 1.366 . S
C877 C879 1.388 . S
C878 C877 1.366 . S
C878 C882 1.385 . S
C879 H854 0.951 . S
C879 C877 1.388 . S
C879 C880 1.366 . S
C880 C879 1.366 . S
C880 C881 1.414 . S
C880 C883 1.499 . S
C881 H855 0.950 . S
C881 C880 1.414 . S
C881 C882 1.374 . S
C882 H856 0.950 . S
C882 C878 1.385 . S
C882 C881 1.374 . S
C883 C880 1.499 . S
C883 C884 1.373 . S
C883 C885 1.389 . S
C884 H857 0.950 . S
C884 C870 1.377 . S
C884 C883 1.373 . S
C885 C869 1.377 . S
C885 C883 1.389 . S
C885 C886 1.524 . S
C886 C885 1.524 . S
C886 C887 1.397 . S
C886 C891 1.363 . S
C887 H858 0.950 . S
C887 C886 1.397 . S
C887 C888 1.334 . S
C888 H859 0.950 . S
C888 C887 1.334 . S
C888 C889 1.287 . S
C889 C888 1.287 . S
C889 C890 1.524 . S
C889 H892 0.999 . S
C890 H860 0.950 . S
C890 C889 1.524 . S
C890 C891 1.415 . S
C891 H861 0.950 . S
C891 C886 1.363 . S
C891 C890 1.415 . S
H892 C889 0.999 . S
H893 C874 0.913 . S
H894 C912 0.951 . S
H895 C914 0.951 . S
H896 C916 0.950 . S
H897 C917 0.950 . S
H898 C919 0.950 . S
H899 C922 0.950 . S
H900 C923 0.950 . S
H901 C925 0.950 . S
H902 C926 0.950 . S
H903 C927 0.951 . S
H904 C929 0.951 . S
H905 C931 0.950 . S
H906 C932 0.950 . S
H907 C934 0.950 . S
H908 C937 0.950 . S
H909 C938 0.950 . S
H910 C940 0.950 . S
H911 C941 0.950 . S
C912 H894 0.951 . S
C912 C913 1.366 . S
C912 C914 1.388 . S
C913 C912 1.366 . S
C913 C917 1.385 . S
C914 H895 0.951 . S
C914 C912 1.388 . S
C914 C915 1.366 . S
C915 C914 1.366 . S
C915 C916 1.414 . S
C915 C918 1.499 . S
C916 H896 0.950 . S
C916 C915 1.414 . S
C916 C917 1.374 . S
C917 H897 0.950 . S
C917 C913 1.385 . S
C917 C916 1.374 . S
C918 C915 1.499 . S
C918 C919 1.373 . S
C918 C920 1.389 . S
C919 H898 0.950 . S
C919 C918 1.373 . S
C919 C935 1.377 . S
C920 C918 1.389 . S
C920 C921 1.524 . S
C920 C934 1.377 . S
C921 C920 1.524 . S
C921 C922 1.397 . S
C921 C926 1.363 . S
C922 H899 0.950 . S
C922 C921 1.397 . S
C922 C923 1.334 . S
C923 H900 0.950 . S
C923 C922 1.334 . S
C923 C924 1.287 . S
C924 C923 1.287 . S
C924 C925 1.524 . S
C924 H943 0.913 . S
C925 H901 0.950 . S
C925 C924 1.524 . S
C925 C926 1.415 . S
C926 H902 0.950 . S
C926 C921 1.363 . S
C926 C925 1.415 . S
C927 H903 0.951 . S
C927 C928 1.366 . S
C927 C929 1.388 . S
C928 C927 1.366 . S
C928 C932 1.385 . S
C929 H904 0.951 . S
C929 C927 1.388 . S
C929 C930 1.366 . S
C930 C929 1.366 . S
C930 C931 1.414 . S
C930 C933 1.499 . S
C931 H905 0.950 . S
C931 C930 1.414 . S
C931 C932 1.374 . S
C932 H906 0.950 . S
C932 C928 1.385 . S
C932 C931 1.374 . S
C933 C930 1.499 . S
C933 C934 1.373 . S
C933 C935 1.389 . S
C934 H907 0.950 . S
C934 C920 1.377 . S
C934 C933 1.373 . S
C935 C919 1.377 . S
C935 C933 1.389 . S
C935 C936 1.524 . S
C936 C935 1.524 . S
C936 C937 1.397 . S
C936 C941 1.363 . S
C937 H908 0.950 . S
C937 C936 1.397 . S
C937 C938 1.334 . S
C938 H909 0.950 . S
C938 C937 1.334 . S
C938 C939 1.287 . S
C939 C938 1.287 . S
C939 C940 1.524 . S
C939 H942 0.999 . S
C940 H910 0.950 . S
C940 C939 1.524 . S
C940 C941 1.415 . S
C941 H911 0.950 . S
C941 C936 1.363 . S
C941 C940 1.415 . S
H942 C939 0.999 . S
H943 C924 0.913 . S
H944 C962 0.951 . S
H945 C964 0.951 . S
H946 C966 0.950 . S
H947 C967 0.950 1_545 S
H948 C969 0.950 . S
H949 C972 0.950 . S
H950 C973 0.950 . S
H951 C975 0.950 . S
H952 C976 0.950 . S
H953 C977 0.951 . S
H954 C979 0.951 . S
H955 C981 0.950 . S
H956 C982 0.950 . S
H957 C984 0.950 . S
H958 C987 0.950 . S
H959 C988 0.950 . S
H960 C990 0.950 . S
H961 C991 0.950 . S
C962 H944 0.951 . S
C962 C963 1.366 . S
C962 C964 1.388 . S
C963 C962 1.366 . S
C963 C967 1.385 . S
C964 H945 0.951 . S
C964 C962 1.388 . S
C964 C965 1.366 . S
C965 C964 1.366 . S
C965 C966 1.414 1_565 S
C965 C968 1.499 1_565 S
C966 H946 0.950 . S
C966 C965 1.414 1_545 S
C966 C967 1.374 1_545 S
C967 H947 0.950 1_565 S
C967 C963 1.385 . S
C967 C966 1.374 1_565 S
C968 C965 1.499 1_545 S
C968 C969 1.373 . S
C968 C970 1.389 1_545 S
C969 H948 0.950 . S
C969 C968 1.373 . S
C969 C985 1.377 . S
C970 C968 1.389 1_565 S
C970 C971 1.524 . S
C970 C984 1.377 1_565 S
C971 C970 1.524 . S
C971 C972 1.397 . S
C971 C976 1.363 . S
C972 H949 0.950 . S
C972 C971 1.397 . S
C972 C973 1.334 . S
C973 H950 0.950 . S
C973 C972 1.334 . S
C973 C974 1.287 . S
C974 C973 1.287 . S
C974 C975 1.524 . S
C974 H993 0.913 . S
C975 H951 0.950 . S
C975 C974 1.524 . S
C975 C976 1.415 . S
C976 H952 0.950 . S
C976 C971 1.363 . S
C976 C975 1.415 . S
C977 H953 0.951 . S
C977 C978 1.366 . S
C977 C979 1.388 . S
C978 C977 1.366 . S
C978 C982 1.385 . S
C979 H954 0.951 . S
C979 C977 1.388 . S
C979 C980 1.366 . S
C980 C979 1.366 . S
C980 C981 1.414 . S
C980 C983 1.499 . S
C981 H955 0.950 . S
C981 C980 1.414 . S
C981 C982 1.374 . S
C982 H956 0.950 . S
C982 C978 1.385 . S
C982 C981 1.374 . S
C983 C980 1.499 . S
C983 C984 1.373 . S
C983 C985 1.389 . S
C984 H957 0.950 . S
C984 C970 1.377 1_545 S
C984 C983 1.373 . S
C985 C969 1.377 . S
C985 C983 1.389 . S
C985 C986 1.524 . S
C986 C985 1.524 . S
C986 C987 1.397 . S
C986 C991 1.363 . S
C987 H958 0.950 . S
C987 C986 1.397 . S
C987 C988 1.334 . S
C988 H959 0.950 . S
C988 C987 1.334 . S
C988 C989 1.287 . S
C989 C988 1.287 . S
C989 C990 1.524 . S
C989 H992 0.999 . S
C990 H960 0.950 . S
C990 C989 1.524 . S
C990 C991 1.415 . S
C991 H961 0.950 . S
C991 C986 1.363 . S
C991 C990 1.415 . S
H992 C989 0.999 . S
H993 C974 0.913 . S
H994 C1012 0.951 1_655 S
H995 C1014 0.951 . S
H996 C1016 0.950 . S
H997 C1017 0.950 . S
H998 C1019 0.950 . S
H999 C1022 0.950 . S
H1000 C1023 0.950 . S
H1001 C1025 0.950 . S
H1002 C1026 0.950 . S
H1003 C1027 0.951 . S
H1004 C1029 0.951 . S
H1005 C1031 0.950 . S
H1006 C1032 0.950 . S
H1007 C1034 0.950 . S
H1008 C1037 0.950 . S
H1009 C1038 0.950 . S
H1010 C1040 0.950 . S
H1011 C1041 0.950 . S
C1012 H994 0.951 1_455 S
C1012 C1013 1.366 . S
C1012 C1014 1.388 1_455 S
C1013 C1012 1.366 . S
C1013 C1017 1.385 . S
C1014 H995 0.951 . S
C1014 C1012 1.388 1_655 S
C1014 C1015 1.366 1_655 S
C1015 C1014 1.366 1_455 S
C1015 C1016 1.414 . S
C1015 C1018 1.499 1_455 S
C1016 H996 0.950 . S
C1016 C1015 1.414 . S
C1016 C1017 1.374 . S
C1017 H997 0.950 . S
C1017 C1013 1.385 . S
C1017 C1016 1.374 . S
C1018 C1015 1.499 1_655 S
C1018 C1019 1.373 . S
C1018 C1020 1.389 . S
C1019 H998 0.950 . S
C1019 C1018 1.373 . S
C1019 C1035 1.377 . S
C1020 C1018 1.389 . S
C1020 C1021 1.524 . S
C1020 C1034 1.377 . S
C1021 C1020 1.524 . S
C1021 C1022 1.397 1_655 S
C1021 C1026 1.363 . S
C1022 H999 0.950 . S
C1022 C1021 1.397 1_455 S
C1022 C1023 1.334 . S
C1023 H1000 0.950 . S
C1023 C1022 1.334 . S
C1023 C1024 1.287 . S
C1024 C1023 1.287 . S
C1024 C1025 1.524 1_455 S
C1024 H1043 0.913 . S
C1025 H1001 0.950 . S
C1025 C1024 1.524 1_655 S
C1025 C1026 1.415 . S
C1026 H1002 0.950 . S
C1026 C1021 1.363 . S
C1026 C1025 1.415 . S
C1027 H1003 0.951 . S
C1027 C1028 1.366 . S
C1027 C1029 1.388 . S
C1028 C1027 1.366 . S
C1028 C1032 1.385 . S
C1029 H1004 0.951 . S
C1029 C1027 1.388 . S
C1029 C1030 1.366 . S
C1030 C1029 1.366 . S
C1030 C1031 1.414 . S
C1030 C1033 1.499 . S
C1031 H1005 0.950 . S
C1031 C1030 1.414 . S
C1031 C1032 1.374 . S
C1032 H1006 0.950 . S
C1032 C1028 1.385 . S
C1032 C1031 1.374 . S
C1033 C1030 1.499 . S
C1033 C1034 1.373 . S
C1033 C1035 1.389 . S
C1034 H1007 0.950 . S
C1034 C1020 1.377 . S
C1034 C1033 1.373 . S
C1035 C1019 1.377 . S
C1035 C1033 1.389 . S
C1035 C1036 1.524 . S
C1036 C1035 1.524 . S
C1036 C1037 1.397 . S
C1036 C1041 1.363 . S
C1037 H1008 0.950 . S
C1037 C1036 1.397 . S
C1037 C1038 1.334 . S
C1038 H1009 0.950 . S
C1038 C1037 1.334 . S
C1038 C1039 1.287 . S
C1039 C1038 1.287 . S
C1039 C1040 1.524 . S
C1039 H1042 0.999 . S
C1040 H1010 0.950 . S
C1040 C1039 1.524 . S
C1040 C1041 1.415 . S
C1041 H1011 0.950 . S
C1041 C1036 1.363 . S
C1041 C1040 1.415 . S
H1042 C1039 0.999 . S
H1043 C1024 0.913 . S
H1044 C1062 0.951 . S
H1045 C1064 0.951 . S
H1046 C1066 0.950 . S
H1047 C1067 0.950 . S
H1048 C1069 0.950 . S
H1049 C1072 0.950 . S
H1050 C1073 0.950 . S
H1051 C1075 0.950 . S
H1052 C1076 0.950 . S
H1053 C1077 0.951 . S
H1054 C1079 0.951 . S
H1055 C1081 0.950 . S
H1056 C1082 0.950 . S
H1057 C1084 0.950 . S
H1058 C1087 0.950 . S
H1059 C1088 0.950 . S
H1060 C1090 0.950 . S
H1061 C1091 0.950 . S
C1062 H1044 0.951 . S
C1062 C1063 1.366 . S
C1062 C1064 1.388 . S
C1063 C1062 1.366 . S
C1063 C1067 1.385 . S
C1064 H1045 0.951 . S
C1064 C1062 1.388 . S
C1064 C1065 1.366 . S
C1065 C1064 1.366 . S
C1065 C1066 1.414 . S
C1065 C1068 1.499 . S
C1066 H1046 0.950 . S
C1066 C1065 1.414 . S
C1066 C1067 1.374 . S
C1067 H1047 0.950 . S
C1067 C1063 1.385 . S
C1067 C1066 1.374 . S
C1068 C1065 1.499 . S
C1068 C1069 1.373 . S
C1068 C1070 1.389 . S
C1069 H1048 0.950 . S
C1069 C1068 1.373 . S
C1069 C1085 1.377 . S
C1070 C1068 1.389 . S
C1070 C1071 1.524 . S
C1070 C1084 1.377 . S
C1071 C1070 1.524 . S
C1071 C1072 1.397 . S
C1071 C1076 1.363 . S
C1072 H1049 0.950 . S
C1072 C1071 1.397 . S
C1072 C1073 1.334 . S
C1073 H1050 0.950 . S
C1073 C1072 1.334 . S
C1073 C1074 1.287 . S
C1074 C1073 1.287 . S
C1074 C1075 1.524 . S
C1074 H1093 0.913 . S
C1075 H1051 0.950 . S
C1075 C1074 1.524 . S
C1075 C1076 1.415 . S
C1076 H1052 0.950 . S
C1076 C1071 1.363 . S
C1076 C1075 1.415 . S
C1077 H1053 0.951 . S
C1077 C1078 1.366 . S
C1077 C1079 1.388 . S
C1078 C1077 1.366 . S
C1078 C1082 1.385 . S
C1079 H1054 0.951 . S
C1079 C1077 1.388 . S
C1079 C1080 1.366 . S
C1080 C1079 1.366 . S
C1080 C1081 1.414 . S
C1080 C1083 1.499 . S
C1081 H1055 0.950 . S
C1081 C1080 1.414 . S
C1081 C1082 1.374 . S
C1082 H1056 0.950 . S
C1082 C1078 1.385 . S
C1082 C1081 1.374 . S
C1083 C1080 1.499 . S
C1083 C1084 1.373 . S
C1083 C1085 1.389 . S
C1084 H1057 0.950 . S
C1084 C1070 1.377 . S
C1084 C1083 1.373 . S
C1085 C1069 1.377 . S
C1085 C1083 1.389 . S
C1085 C1086 1.524 . S
C1086 C1085 1.524 . S
C1086 C1087 1.397 . S
C1086 C1091 1.363 . S
C1087 H1058 0.950 . S
C1087 C1086 1.397 . S
C1087 C1088 1.334 . S
C1088 H1059 0.950 . S
C1088 C1087 1.334 . S
C1088 C1089 1.287 . S
C1089 C1088 1.287 . S
C1089 C1090 1.524 . S
C1089 H1092 0.999 . S
C1090 H1060 0.950 . S
C1090 C1089 1.524 . S
C1090 C1091 1.415 . S
C1091 H1061 0.950 . S
C1091 C1086 1.363 . S
C1091 C1090 1.415 . S
H1092 C1089 0.999 . S
H1093 C1074 0.913 . S
H1094 C1112 0.951 . S
H1095 C1114 0.951 . S
H1096 C1116 0.950 . S
H1097 C1117 0.950 . S
H1098 C1119 0.950 . S
H1099 C1122 0.950 . S
H1100 C1123 0.950 . S
H1101 C1125 0.950 . S
H1102 C1126 0.950 . S
H1103 C1127 0.951 . S
H1104 C1129 0.951 1_565 S
H1105 C1131 0.950 . S
H1106 C1132 0.950 . S
H1107 C1134 0.950 . S
H1108 C1137 0.950 . S
H1109 C1138 0.950 . S
H1110 C1140 0.950 . S
H1111 C1141 0.950 1_565 S
C1112 H1094 0.951 . S
C1112 C1113 1.366 . S
C1112 C1114 1.388 . S
C1113 C1112 1.366 . S
C1113 C1117 1.385 . S
C1114 H1095 0.951 . S
C1114 C1112 1.388 . S
C1114 C1115 1.366 . S
C1115 C1114 1.366 . S
C1115 C1116 1.414 . S
C1115 C1118 1.499 . S
C1116 H1096 0.950 . S
C1116 C1115 1.414 . S
C1116 C1117 1.374 . S
C1117 H1097 0.950 . S
C1117 C1113 1.385 . S
C1117 C1116 1.374 . S
C1118 C1115 1.499 . S
C1118 C1119 1.373 . S
C1118 C1120 1.389 . S
C1119 H1098 0.950 . S
C1119 C1118 1.373 . S
C1119 C1135 1.377 . S
C1120 C1118 1.389 . S
C1120 C1121 1.524 . S
C1120 C1134 1.377 . S
C1121 C1120 1.524 . S
C1121 C1122 1.397 . S
C1121 C1126 1.363 . S
C1122 H1099 0.950 . S
C1122 C1121 1.397 . S
C1122 C1123 1.334 . S
C1123 H1100 0.950 . S
C1123 C1122 1.334 . S
C1123 C1124 1.287 . S
C1124 C1123 1.287 . S
C1124 C1125 1.524 . S
C1124 H1143 0.913 . S
C1125 H1101 0.950 . S
C1125 C1124 1.524 . S
C1125 C1126 1.415 . S
C1126 H1102 0.950 . S
C1126 C1121 1.363 . S
C1126 C1125 1.415 . S
C1127 H1103 0.951 . S
C1127 C1128 1.366 . S
C1127 C1129 1.388 . S
C1128 C1127 1.366 . S
C1128 C1132 1.385 . S
C1129 H1104 0.951 1_545 S
C1129 C1127 1.388 . S
C1129 C1130 1.366 . S
C1130 C1129 1.366 . S
C1130 C1131 1.414 . S
C1130 C1133 1.499 1_545 S
C1131 H1105 0.950 . S
C1131 C1130 1.414 . S
C1131 C1132 1.374 . S
C1132 H1106 0.950 . S
C1132 C1128 1.385 . S
C1132 C1131 1.374 . S
C1133 C1130 1.499 1_565 S
C1133 C1134 1.373 . S
C1133 C1135 1.389 . S
C1134 H1107 0.950 . S
C1134 C1120 1.377 . S
C1134 C1133 1.373 . S
C1135 C1119 1.377 . S
C1135 C1133 1.389 . S
C1135 C1136 1.524 1_565 S
C1136 C1135 1.524 1_545 S
C1136 C1137 1.397 . S
C1136 C1141 1.363 . S
C1137 H1108 0.950 . S
C1137 C1136 1.397 . S
C1137 C1138 1.334 . S
C1138 H1109 0.950 . S
C1138 C1137 1.334 . S
C1138 C1139 1.287 . S
C1139 C1138 1.287 . S
C1139 C1140 1.524 . S
C1139 H1142 0.999 . S
C1140 H1110 0.950 . S
C1140 C1139 1.524 . S
C1140 C1141 1.415 . S
C1141 H1111 0.950 1_545 S
C1141 C1136 1.363 . S
C1141 C1140 1.415 . S
H1142 C1139 0.999 . S
H1143 C1124 0.913 . S
H1144 C1162 0.951 . S
H1145 C1164 0.951 . S
H1146 C1166 0.950 . S
H1147 C1167 0.950 . S
H1148 C1169 0.950 . S
H1149 C1172 0.950 . S
H1150 C1173 0.950 . S
H1151 C1175 0.950 . S
H1152 C1176 0.950 . S
H1153 C1177 0.951 . S
H1154 C1179 0.951 . S
H1155 C1181 0.950 . S
H1156 C1182 0.949 1_455 S
H1157 C1184 0.950 . S
H1158 C1187 0.950 1_455 S
H1159 C1188 0.950 . S
H1160 C1190 0.950 . S
H1161 C1191 0.950 . S
C1162 H1144 0.951 . S
C1162 C1163 1.366 . S
C1162 C1164 1.388 . S
C1163 C1162 1.366 . S
C1163 C1167 1.385 . S
C1164 H1145 0.951 . S
C1164 C1162 1.388 . S
C1164 C1165 1.366 . S
C1165 C1164 1.366 . S
C1165 C1166 1.414 . S
C1165 C1168 1.499 . S
C1166 H1146 0.950 . S
C1166 C1165 1.414 . S
C1166 C1167 1.374 . S
C1167 H1147 0.950 . S
C1167 C1163 1.385 . S
C1167 C1166 1.374 . S
C1168 C1165 1.499 . S
C1168 C1169 1.373 . S
C1168 C1170 1.389 . S
C1169 H1148 0.950 . S
C1169 C1168 1.373 . S
C1169 C1185 1.377 . S
C1170 C1168 1.389 . S
C1170 C1171 1.524 . S
C1170 C1184 1.377 . S
C1171 C1170 1.524 . S
C1171 C1172 1.397 . S
C1171 C1176 1.363 . S
C1172 H1149 0.950 . S
C1172 C1171 1.397 . S
C1172 C1173 1.334 . S
C1173 H1150 0.950 . S
C1173 C1172 1.334 . S
C1173 C1174 1.287 . S
C1174 C1173 1.287 . S
C1174 C1175 1.524 . S
C1174 H1193 0.913 . S
C1175 H1151 0.950 . S
C1175 C1174 1.524 . S
C1175 C1176 1.415 . S
C1176 H1152 0.950 . S
C1176 C1171 1.363 . S
C1176 C1175 1.415 . S
C1177 H1153 0.951 . S
C1177 C1178 1.366 . S
C1177 C1179 1.388 . S
C1178 C1177 1.366 . S
C1178 C1182 1.391 . S
C1179 H1154 0.951 . S
C1179 C1177 1.388 . S
C1179 C1180 1.366 . S
C1180 C1179 1.366 . S
C1180 C1181 1.414 1_655 S
C1180 C1183 1.499 1_655 S
C1181 H1155 0.950 . S
C1181 C1180 1.414 1_455 S
C1181 C1182 1.368 1_455 S
C1182 H1156 0.949 1_655 S
C1182 C1178 1.391 . S
C1182 C1181 1.368 1_655 S
C1183 C1180 1.499 1_455 S
C1183 C1184 1.373 . S
C1183 C1185 1.389 . S
C1184 H1157 0.950 . S
C1184 C1170 1.377 . S
C1184 C1183 1.373 . S
C1185 C1169 1.377 . S
C1185 C1183 1.389 . S
C1185 C1186 1.524 1_455 S
C1186 C1185 1.524 1_655 S
C1186 C1187 1.397 . S
C1186 C1191 1.363 . S
C1187 H1158 0.950 1_655 S
C1187 C1186 1.397 . S
C1187 C1188 1.334 . S
C1188 H1159 0.950 . S
C1188 C1187 1.334 . S
C1188 C1189 1.287 . S
C1189 C1188 1.287 . S
C1189 C1190 1.524 . S
C1189 H1192 0.999 . S
C1190 H1160 0.950 . S
C1190 C1189 1.524 . S
C1190 C1191 1.415 . S
C1191 H1161 0.950 . S
C1191 C1186 1.363 . S
C1191 C1190 1.415 . S
H1192 C1189 0.999 . S
H1193 C1174 0.913 . S
H1194 C1212 0.951 . S
H1195 C1214 0.951 . S
H1196 C1216 0.950 . S
H1197 C1217 0.950 . S
H1198 C1219 0.950 . S
H1199 C1222 0.950 . S
H1200 C1223 0.950 . S
H1201 C1225 0.950 . S
H1202 C1226 0.950 1_655 S
H1203 C1227 0.951 . S
H1204 C1229 0.951 . S
H1205 C1231 0.950 . S
H1206 C1232 0.950 . S
H1207 C1234 0.950 . S
H1208 C1237 0.950 . S
H1209 C1238 0.950 . S
H1210 C1240 0.950 . S
H1211 C1241 0.950 1_455 S
C1212 H1194 0.951 . S
C1212 C1213 1.366 . S
C1212 C1214 1.388 . S
C1213 C1212 1.366 . S
C1213 C1217 1.385 . S
C1214 H1195 0.951 . S
C1214 C1212 1.388 . S
C1214 C1215 1.366 . S
C1215 C1214 1.366 . S
C1215 C1216 1.414 . S
C1215 C1218 1.499 . S
C1216 H1196 0.950 . S
C1216 C1215 1.414 . S
C1216 C1217 1.374 . S
C1217 H1197 0.950 . S
C1217 C1213 1.385 . S
C1217 C1216 1.374 . S
C1218 C1215 1.499 . S
C1218 C1219 1.373 . S
C1218 C1220 1.389 . S
C1219 H1198 0.950 . S
C1219 C1218 1.373 . S
C1219 C1235 1.377 1_455 S
C1220 C1218 1.389 . S
C1220 C1221 1.524 . S
C1220 C1234 1.377 1_455 S
C1221 C1220 1.524 . S
C1221 C1222 1.397 . S
C1221 C1226 1.363 . S
C1222 H1199 0.950 . S
C1222 C1221 1.397 . S
C1222 C1223 1.334 . S
C1223 H1200 0.950 . S
C1223 C1222 1.334 . S
C1223 C1224 1.287 . S
C1224 C1223 1.287 . S
C1224 C1225 1.524 . S
C1224 H1243 0.913 . S
C1225 H1201 0.950 . S
C1225 C1224 1.524 . S
C1225 C1226 1.415 . S
C1226 H1202 0.950 1_455 S
C1226 C1221 1.363 . S
C1226 C1225 1.415 . S
C1227 H1203 0.951 . S
C1227 C1228 1.366 . S
C1227 C1229 1.388 . S
C1228 C1227 1.366 . S
C1228 C1232 1.385 . S
C1229 H1204 0.951 . S
C1229 C1227 1.388 . S
C1229 C1230 1.366 . S
C1230 C1229 1.366 . S
C1230 C1231 1.414 . S
C1230 C1233 1.499 . S
C1231 H1205 0.950 . S
C1231 C1230 1.414 . S
C1231 C1232 1.374 . S
C1232 H1206 0.950 . S
C1232 C1228 1.385 . S
C1232 C1231 1.374 . S
C1233 C1230 1.499 . S
C1233 C1234 1.373 . S
C1233 C1235 1.389 . S
C1234 H1207 0.950 . S
C1234 C1220 1.377 1_655 S
C1234 C1233 1.373 . S
C1235 C1219 1.377 1_655 S
C1235 C1233 1.389 . S
C1235 C1236 1.524 . S
C1236 C1235 1.524 . S
C1236 C1237 1.397 . S
C1236 C1241 1.363 . S
C1237 H1208 0.950 . S
C1237 C1236 1.397 . S
C1237 C1238 1.334 . S
C1238 H1209 0.950 . S
C1238 C1237 1.334 . S
C1238 C1239 1.287 . S
C1239 C1238 1.287 . S
C1239 C1240 1.524 . S
C1239 H1242 0.999 . S
C1240 H1210 0.950 . S
C1240 C1239 1.524 . S
C1240 C1241 1.415 . S
C1241 H1211 0.950 1_655 S
C1241 C1236 1.363 . S
C1241 C1240 1.415 . S
H1242 C1239 0.999 . S
H1243 C1224 0.913 . S
H1244 C1262 0.951 . S
H1245 C1264 0.951 . S
H1246 C1266 0.950 . S
H1247 C1267 0.950 . S
H1248 C1269 0.950 . S
H1249 C1272 0.950 . S
H1250 C1273 0.950 . S
H1251 C1275 0.950 . S
H1252 C1276 0.950 . S
H1253 C1277 0.951 . S
H1254 C1279 0.951 . S
H1255 C1281 0.950 . S
H1256 C1282 0.950 . S
H1257 C1284 0.950 . S
H1258 C1287 0.950 . S
H1259 C1288 0.950 . S
H1260 C1290 0.950 . S
H1261 C1291 0.950 . S
C1262 H1244 0.951 . S
C1262 C1263 1.366 . S
C1262 C1264 1.388 . S
C1263 C1262 1.366 . S
C1263 C1267 1.385 . S
C1264 H1245 0.951 . S
C1264 C1262 1.388 . S
C1264 C1265 1.366 . S
C1265 C1264 1.366 . S
C1265 C1266 1.414 . S
C1265 C1268 1.499 . S
C1266 H1246 0.950 . S
C1266 C1265 1.414 . S
C1266 C1267 1.374 . S
C1267 H1247 0.950 . S
C1267 C1263 1.385 . S
C1267 C1266 1.374 . S
C1268 C1265 1.499 . S
C1268 C1269 1.373 . S
C1268 C1270 1.389 . S
C1269 H1248 0.950 . S
C1269 C1268 1.373 . S
C1269 C1285 1.377 . S
C1270 C1268 1.389 . S
C1270 C1271 1.524 . S
C1270 C1284 1.377 . S
C1271 C1270 1.524 . S
C1271 C1272 1.397 . S
C1271 C1276 1.363 . S
C1272 H1249 0.950 . S
C1272 C1271 1.397 . S
C1272 C1273 1.334 . S
C1273 H1250 0.950 . S
C1273 C1272 1.334 . S
C1273 C1274 1.287 . S
C1274 C1273 1.287 . S
C1274 C1275 1.524 . S
C1274 H1293 0.913 . S
C1275 H1251 0.950 . S
C1275 C1274 1.524 . S
C1275 C1276 1.415 . S
C1276 H1252 0.950 . S
C1276 C1271 1.363 . S
C1276 C1275 1.415 . S
C1277 H1253 0.951 . S
C1277 C1278 1.366 . S
C1277 C1279 1.388 . S
C1278 C1277 1.366 . S
C1278 C1282 1.385 . S
C1279 H1254 0.951 . S
C1279 C1277 1.388 . S
C1279 C1280 1.366 . S
C1280 C1279 1.366 . S
C1280 C1281 1.414 . S
C1280 C1283 1.499 . S
C1281 H1255 0.950 . S
C1281 C1280 1.414 . S
C1281 C1282 1.374 . S
C1282 H1256 0.950 . S
C1282 C1278 1.385 . S
C1282 C1281 1.374 . S
C1283 C1280 1.499 . S
C1283 C1284 1.373 . S
C1283 C1285 1.389 . S
C1284 H1257 0.950 . S
C1284 C1270 1.377 . S
C1284 C1283 1.373 . S
C1285 C1269 1.377 . S
C1285 C1283 1.389 . S
C1285 C1286 1.524 . S
C1286 C1285 1.524 . S
C1286 C1287 1.397 . S
C1286 C1291 1.363 . S
C1287 H1258 0.950 . S
C1287 C1286 1.397 . S
C1287 C1288 1.334 . S
C1288 H1259 0.950 . S
C1288 C1287 1.334 . S
C1288 C1289 1.287 . S
C1289 C1288 1.287 . S
C1289 C1290 1.524 . S
C1289 H1292 0.999 . S
C1290 H1260 0.950 . S
C1290 C1289 1.524 . S
C1290 C1291 1.415 . S
C1291 H1261 0.950 . S
C1291 C1286 1.363 . S
C1291 C1290 1.415 . S
H1292 C1289 0.999 . S
H1293 C1274 0.913 . S
H1294 C1312 0.951 . S
H1295 C1314 0.951 . S
H1296 C1316 0.950 . S
H1297 C1317 0.950 . S
H1298 C1319 0.950 . S
H1299 C1322 0.950 . S
H1300 C1323 0.950 . S
H1301 C1325 0.950 . S
H1302 C1326 0.950 . S
H1303 C1327 0.951 . S
H1304 C1329 0.951 . S
H1305 C1331 0.950 . S
H1306 C1332 0.950 . S
H1307 C1334 0.950 . S
H1308 C1337 0.950 . S
H1309 C1338 0.950 . S
H1310 C1340 0.950 . S
H1311 C1341 0.950 . S
C1312 H1294 0.951 . S
C1312 C1313 1.366 . S
C1312 C1314 1.388 . S
C1313 C1312 1.366 . S
C1313 C1317 1.385 . S
C1314 H1295 0.951 . S
C1314 C1312 1.388 . S
C1314 C1315 1.366 . S
C1315 C1314 1.366 . S
C1315 C1316 1.414 . S
C1315 C1318 1.499 . S
C1316 H1296 0.950 . S
C1316 C1315 1.414 . S
C1316 C1317 1.374 . S
C1317 H1297 0.950 . S
C1317 C1313 1.385 . S
C1317 C1316 1.374 . S
C1318 C1315 1.499 . S
C1318 C1319 1.373 . S
C1318 C1320 1.389 . S
C1319 H1298 0.950 . S
C1319 C1318 1.373 . S
C1319 C1335 1.377 1_565 S
C1320 C1318 1.389 . S
C1320 C1321 1.524 . S
C1320 C1334 1.377 1_565 S
C1321 C1320 1.524 . S
C1321 C1322 1.397 . S
C1321 C1326 1.363 . S
C1322 H1299 0.950 . S
C1322 C1321 1.397 . S
C1322 C1323 1.334 . S
C1323 H1300 0.950 . S
C1323 C1322 1.334 . S
C1323 C1324 1.287 . S
C1324 C1323 1.287 . S
C1324 C1325 1.524 . S
C1324 H1343 0.913 . S
C1325 H1301 0.950 . S
C1325 C1324 1.524 . S
C1325 C1326 1.415 . S
C1326 H1302 0.950 . S
C1326 C1321 1.363 . S
C1326 C1325 1.415 . S
C1327 H1303 0.951 . S
C1327 C1328 1.366 . S
C1327 C1329 1.388 . S
C1328 C1327 1.366 . S
C1328 C1332 1.385 . S
C1329 H1304 0.951 . S
C1329 C1327 1.388 . S
C1329 C1330 1.366 . S
C1330 C1329 1.366 . S
C1330 C1331 1.414 . S
C1330 C1333 1.499 . S
C1331 H1305 0.950 . S
C1331 C1330 1.414 . S
C1331 C1332 1.374 . S
C1332 H1306 0.950 . S
C1332 C1328 1.385 . S
C1332 C1331 1.374 . S
C1333 C1330 1.499 . S
C1333 C1334 1.373 . S
C1333 C1335 1.389 . S
C1334 H1307 0.950 . S
C1334 C1320 1.377 1_545 S
C1334 C1333 1.373 . S
C1335 C1319 1.377 1_545 S
C1335 C1333 1.389 . S
C1335 C1336 1.524 . S
C1336 C1335 1.524 . S
C1336 C1337 1.397 . S
C1336 C1341 1.363 . S
C1337 H1308 0.950 . S
C1337 C1336 1.397 . S
C1337 C1338 1.334 . S
C1338 H1309 0.950 . S
C1338 C1337 1.334 . S
C1338 C1339 1.287 . S
C1339 C1338 1.287 . S
C1339 C1340 1.524 . S
C1339 H1342 0.999 . S
C1340 H1310 0.950 . S
C1340 C1339 1.524 . S
C1340 C1341 1.415 . S
C1341 H1311 0.950 . S
C1341 C1336 1.363 . S
C1341 C1340 1.415 . S
H1342 C1339 0.999 . S
H1343 C1324 0.913 . S
H1344 C1362 0.951 . S
H1345 C1364 0.951 . S
H1346 C1366 0.950 . S
H1347 C1367 0.950 . S
H1348 C1369 0.950 . S
H1349 C1372 0.950 . S
H1350 C1373 0.950 . S
H1351 C1375 0.950 . S
H1352 C1376 0.950 . S
H1353 C1377 0.951 . S
H1354 C1379 0.951 . S
H1355 C1381 0.950 . S
H1356 C1382 0.950 . S
H1357 C1384 0.950 . S
H1358 C1387 0.950 . S
H1359 C1388 0.950 . S
H1360 C1390 0.950 . S
H1361 C1391 0.950 . S
C1362 H1344 0.951 . S
C1362 C1363 1.366 . S
C1362 C1364 1.388 . S
C1363 C1362 1.366 . S
C1363 C1367 1.385 . S
C1364 H1345 0.951 . S
C1364 C1362 1.388 . S
C1364 C1365 1.366 . S
C1365 C1364 1.366 . S
C1365 C1366 1.414 . S
C1365 C1368 1.499 . S
C1366 H1346 0.950 . S
C1366 C1365 1.414 . S
C1366 C1367 1.374 . S
C1367 H1347 0.950 . S
C1367 C1363 1.385 . S
C1367 C1366 1.374 . S
C1368 C1365 1.499 . S
C1368 C1369 1.373 . S
C1368 C1370 1.389 . S
C1369 H1348 0.950 . S
C1369 C1368 1.373 . S
C1369 C1385 1.377 1_545 S
C1370 C1368 1.389 . S
C1370 C1371 1.524 . S
C1370 C1384 1.377 1_545 S
C1371 C1370 1.524 . S
C1371 C1372 1.397 . S
C1371 C1376 1.363 . S
C1372 H1349 0.950 . S
C1372 C1371 1.397 . S
C1372 C1373 1.334 . S
C1373 H1350 0.950 . S
C1373 C1372 1.334 . S
C1373 C1374 1.287 . S
C1374 C1373 1.287 . S
C1374 C1375 1.524 . S
C1374 H1393 0.913 . S
C1375 H1351 0.950 . S
C1375 C1374 1.524 . S
C1375 C1376 1.415 . S
C1376 H1352 0.950 . S
C1376 C1371 1.363 . S
C1376 C1375 1.415 . S
C1377 H1353 0.951 . S
C1377 C1378 1.366 . S
C1377 C1379 1.388 . S
C1378 C1377 1.366 . S
C1378 C1382 1.385 . S
C1379 H1354 0.951 . S
C1379 C1377 1.388 . S
C1379 C1380 1.366 . S
C1380 C1379 1.366 . S
C1380 C1381 1.414 . S
C1380 C1383 1.499 . S
C1381 H1355 0.950 . S
C1381 C1380 1.414 . S
C1381 C1382 1.374 . S
C1382 H1356 0.950 . S
C1382 C1378 1.385 . S
C1382 C1381 1.374 . S
C1383 C1380 1.499 . S
C1383 C1384 1.373 . S
C1383 C1385 1.389 . S
C1384 H1357 0.950 . S
C1384 C1370 1.377 1_565 S
C1384 C1383 1.373 . S
C1385 C1369 1.377 1_565 S
C1385 C1383 1.389 . S
C1385 C1386 1.524 . S
C1386 C1385 1.524 . S
C1386 C1387 1.397 . S
C1386 C1391 1.363 . S
C1387 H1358 0.950 . S
C1387 C1386 1.397 . S
C1387 C1388 1.334 . S
C1388 H1359 0.950 . S
C1388 C1387 1.334 . S
C1388 C1389 1.287 . S
C1389 C1388 1.287 . S
C1389 C1390 1.524 . S
C1389 H1392 0.999 . S
C1390 H1360 0.950 . S
C1390 C1389 1.524 . S
C1390 C1391 1.415 . S
C1391 H1361 0.950 . S
C1391 C1386 1.363 . S
C1391 C1390 1.415 . S
H1392 C1389 0.999 . S
H1393 C1374 0.913 . S
H1394 C1412 0.951 . S
H1395 C1414 0.951 . S
H1396 C1416 0.950 . S
H1397 C1417 0.950 . S
H1398 C1419 0.950 . S
H1399 C1422 0.950 . S
H1400 C1423 0.950 . S
H1401 C1425 0.950 . S
H1402 C1426 0.979 . S
H1403 C1427 0.951 . S
H1404 C1429 0.951 . S
H1405 C1431 0.950 . S
H1406 C1432 0.950 . S
H1407 C1434 0.950 . S
H1408 C1437 0.950 . S
H1409 C1438 0.950 . S
H1410 C1440 0.950 . S
H1411 C1441 0.950 . S
C1412 H1394 0.951 . S
C1412 C1413 1.366 . S
C1412 C1414 1.388 . S
C1413 C1412 1.366 . S
C1413 C1417 1.385 . S
C1414 H1395 0.951 . S
C1414 C1412 1.388 . S
C1414 C1415 1.366 . S
C1415 C1414 1.366 . S
C1415 C1416 1.414 . S
C1415 C1418 1.499 . S
C1416 H1396 0.950 . S
C1416 C1415 1.414 . S
C1416 C1417 1.374 . S
C1417 H1397 0.950 . S
C1417 C1413 1.385 . S
C1417 C1416 1.374 . S
C1418 C1415 1.499 . S
C1418 C1419 1.373 . S
C1418 C1420 1.389 . S
C1419 H1398 0.950 . S
C1419 C1418 1.373 . S
C1419 C1435 1.377 1_455 S
C1420 C1418 1.389 . S
C1420 C1421 1.524 . S
C1420 C1434 1.377 1_455 S
C1421 C1420 1.524 . S
C1421 C1422 1.397 . S
C1421 C1426 1.363 . S
C1422 H1399 0.950 . S
C1422 C1421 1.397 . S
C1422 C1423 1.334 . S
C1423 H1400 0.950 . S
C1423 C1422 1.334 . S
C1423 C1424 1.287 . S
C1424 C1423 1.287 . S
C1424 C1425 1.524 . S
C1424 H1443 0.913 . S
C1425 H1401 0.950 . S
C1425 C1424 1.524 . S
C1425 C1426 1.415 . S
C1426 H1402 0.979 . S
C1426 C1421 1.363 . S
C1426 C1425 1.415 . S
C1427 H1403 0.951 . S
C1427 C1428 1.366 . S
C1427 C1429 1.388 . S
C1428 C1427 1.366 . S
C1428 C1432 1.385 . S
C1429 H1404 0.951 . S
C1429 C1427 1.388 . S
C1429 C1430 1.366 . S
C1430 C1429 1.366 . S
C1430 C1431 1.414 . S
C1430 C1433 1.499 . S
C1431 H1405 0.950 . S
C1431 C1430 1.414 . S
C1431 C1432 1.374 . S
C1432 H1406 0.950 . S
C1432 C1428 1.385 . S
C1432 C1431 1.374 . S
C1433 C1430 1.499 . S
C1433 C1434 1.373 . S
C1433 C1435 1.389 . S
C1434 H1407 0.950 . S
C1434 C1420 1.377 1_655 S
C1434 C1433 1.373 . S
C1435 C1419 1.377 1_655 S
C1435 C1433 1.389 . S
C1435 C1436 1.524 . S
C1436 C1435 1.524 . S
C1436 C1437 1.397 . S
C1436 C1441 1.363 . S
C1437 H1408 0.950 . S
C1437 C1436 1.397 . S
C1437 C1438 1.334 . S
C1438 H1409 0.950 . S
C1438 C1437 1.334 . S
C1438 C1439 1.287 . S
C1439 C1438 1.287 . S
C1439 C1440 1.524 . S
C1439 H1442 0.999 . S
C1440 H1410 0.950 . S
C1440 C1439 1.524 . S
C1440 C1441 1.415 . S
C1441 H1411 0.950 . S
C1441 C1436 1.363 . S
C1441 C1440 1.415 . S
H1442 C1439 0.999 . S
H1443 C1424 0.913 . S
H1444 C1462 0.951 . S
H1445 C1464 0.951 . S
H1446 C1466 0.950 . S
H1447 C1467 0.950 . S
H1448 C1469 0.950 . S
H1449 C1472 0.950 . S
H1450 C1473 0.950 . S
H1451 C1475 0.950 . S
H1452 C1476 0.950 . S
H1453 C1477 0.951 . S
H1454 C1479 0.951 . S
H1455 C1481 0.950 . S
H1456 C1482 0.950 . S
H1457 C1484 0.950 . S
H1458 C1487 0.950 . S
H1459 C1488 0.950 . S
H1460 C1490 0.950 . S
H1461 C1491 0.950 . S
C1462 H1444 0.951 . S
C1462 C1463 1.366 . S
C1462 C1464 1.388 . S
C1463 C1462 1.366 . S
C1463 C1467 1.385 . S
C1464 H1445 0.951 . S
C1464 C1462 1.388 . S
C1464 C1465 1.366 . S
C1465 C1464 1.366 . S
C1465 C1466 1.414 . S
C1465 C1468 1.499 . S
C1466 H1446 0.950 . S
C1466 C1465 1.414 . S
C1466 C1467 1.374 . S
C1467 H1447 0.950 . S
C1467 C1463 1.385 . S
C1467 C1466 1.374 . S
C1468 C1465 1.499 . S
C1468 C1469 1.373 . S
C1468 C1470 1.389 . S
C1469 H1448 0.950 . S
C1469 C1468 1.373 . S
C1469 C1485 1.377 . S
C1470 C1468 1.389 . S
C1470 C1471 1.524 . S
C1470 C1484 1.377 . S
C1471 C1470 1.524 . S
C1471 C1472 1.397 . S
C1471 C1476 1.363 . S
C1472 H1449 0.950 . S
C1472 C1471 1.397 . S
C1472 C1473 1.334 . S
C1473 H1450 0.950 . S
C1473 C1472 1.334 . S
C1473 C1474 1.287 . S
C1474 C1473 1.287 . S
C1474 C1475 1.524 . S
C1474 H1493 0.913 . S
C1475 H1451 0.950 . S
C1475 C1474 1.524 . S
C1475 C1476 1.415 . S
C1476 H1452 0.950 . S
C1476 C1471 1.363 . S
C1476 C1475 1.415 . S
C1477 H1453 0.951 . S
C1477 C1478 1.366 . S
C1477 C1479 1.388 . S
C1478 C1477 1.366 . S
C1478 C1482 1.385 . S
C1479 H1454 0.951 . S
C1479 C1477 1.388 . S
C1479 C1480 1.366 . S
C1480 C1479 1.366 . S
C1480 C1481 1.414 . S
C1480 C1483 1.499 . S
C1481 H1455 0.950 . S
C1481 C1480 1.414 . S
C1481 C1482 1.374 . S
C1482 H1456 0.950 . S
C1482 C1478 1.385 . S
C1482 C1481 1.374 . S
C1483 C1480 1.499 . S
C1483 C1484 1.373 . S
C1483 C1485 1.389 . S
C1484 H1457 0.950 . S
C1484 C1470 1.377 . S
C1484 C1483 1.373 . S
C1485 C1469 1.377 . S
C1485 C1483 1.389 . S
C1485 C1486 1.524 . S
C1486 C1485 1.524 . S
C1486 C1487 1.397 . S
C1486 C1491 1.363 . S
C1487 H1458 0.950 . S
C1487 C1486 1.397 . S
C1487 C1488 1.334 . S
C1488 H1459 0.950 . S
C1488 C1487 1.334 . S
C1488 C1489 1.287 . S
C1489 C1488 1.287 . S
C1489 C1490 1.524 . S
C1489 H1492 0.999 . S
C1490 H1460 0.950 . S
C1490 C1489 1.524 . S
C1490 C1491 1.415 . S
C1491 H1461 0.950 . S
C1491 C1486 1.363 . S
C1491 C1490 1.415 . S
H1492 C1489 0.999 . S
H1493 C1474 0.913 . S
H1494 C1512 0.951 . S
H1495 C1514 0.951 . S
H1496 C1516 0.950 . S
H1497 C1517 0.950 . S
H1498 C1519 0.950 . S
H1499 C1522 0.950 . S
H1500 C1523 0.950 . S
H1501 C1525 0.950 . S
H1502 C1526 0.950 . S
H1503 C1527 0.951 . S
H1504 C1529 0.951 . S
H1505 C1531 0.950 . S
H1506 C1532 0.950 . S
H1507 C1534 0.950 . S
H1508 C1537 0.950 . S
H1509 C1538 0.950 . S
H1510 C1540 0.950 . S
H1511 C1541 0.950 . S
C1512 H1494 0.951 . S
C1512 C1513 1.366 . S
C1512 C1514 1.388 . S
C1513 C1512 1.366 . S
C1513 C1517 1.385 . S
C1514 H1495 0.951 . S
C1514 C1512 1.388 . S
C1514 C1515 1.366 . S
C1515 C1514 1.366 . S
C1515 C1516 1.414 . S
C1515 C1518 1.499 . S
C1516 H1496 0.950 . S
C1516 C1515 1.414 . S
C1516 C1517 1.374 . S
C1517 H1497 0.950 . S
C1517 C1513 1.385 . S
C1517 C1516 1.374 . S
C1518 C1515 1.499 . S
C1518 C1519 1.373 . S
C1518 C1520 1.389 . S
C1519 H1498 0.950 . S
C1519 C1518 1.373 . S
C1519 C1535 1.377 . S
C1520 C1518 1.389 . S
C1520 C1521 1.524 . S
C1520 C1534 1.377 . S
C1521 C1520 1.524 . S
C1521 C1522 1.397 . S
C1521 C1526 1.363 . S
C1522 H1499 0.950 . S
C1522 C1521 1.397 . S
C1522 C1523 1.334 . S
C1523 H1500 0.950 . S
C1523 C1522 1.334 . S
C1523 C1524 1.287 . S
C1524 C1523 1.287 . S
C1524 C1525 1.524 . S
C1524 H1543 0.913 . S
C1525 H1501 0.950 . S
C1525 C1524 1.524 . S
C1525 C1526 1.415 . S
C1526 H1502 0.950 . S
C1526 C1521 1.363 . S
C1526 C1525 1.415 . S
C1527 H1503 0.951 . S
C1527 C1528 1.366 . S
C1527 C1529 1.388 . S
C1528 C1527 1.366 . S
C1528 C1532 1.385 . S
C1529 H1504 0.951 . S
C1529 C1527 1.388 . S
C1529 C1530 1.366 . S
C1530 C1529 1.366 . S
C1530 C1531 1.414 . S
C1530 C1533 1.499 . S
C1531 H1505 0.950 . S
C1531 C1530 1.414 . S
C1531 C1532 1.374 . S
C1532 H1506 0.950 . S
C1532 C1528 1.385 . S
C1532 C1531 1.374 . S
C1533 C1530 1.499 . S
C1533 C1534 1.373 . S
C1533 C1535 1.389 . S
C1534 H1507 0.950 . S
C1534 C1520 1.377 . S
C1534 C1533 1.373 . S
C1535 C1519 1.377 . S
C1535 C1533 1.389 . S
C1535 C1536 1.524 . S
C1536 C1535 1.524 . S
C1536 C1537 1.397 . S
C1536 C1541 1.363 . S
C1537 H1508 0.950 . S
C1537 C1536 1.397 . S
C1537 C1538 1.334 . S
C1538 H1509 0.950 . S
C1538 C1537 1.334 . S
C1538 C1539 1.287 . S
C1539 C1538 1.287 . S
C1539 C1540 1.524 . S
C1539 H1542 0.999 . S
C1540 H1510 0.950 . S
C1540 C1539 1.524 . S
C1540 C1541 1.415 . S
C1541 H1511 0.950 . S
C1541 C1536 1.363 . S
C1541 C1540 1.415 . S
H1542 C1539 0.999 . S
H1543 C1524 0.913 . S
H1544 C1562 0.951 . S
H1545 C1564 0.951 . S
H1546 C1566 0.950 . S
H1547 C1567 0.950 . S
H1548 C1569 0.950 . S
H1549 C1572 0.950 . S
H1550 C1573 0.950 . S
H1551 C1575 0.950 . S
H1552 C1576 0.950 . S
H1553 C1577 0.951 . S
H1554 C1579 0.951 . S
H1555 C1581 0.950 . S
H1556 C1582 0.950 . S
H1557 C1584 0.950 . S
H1558 C1587 0.950 . S
H1559 C1588 0.950 . S
H1560 C1590 0.950 . S
H1561 C1591 0.950 . S
C1562 H1544 0.951 . S
C1562 C1563 1.366 . S
C1562 C1564 1.388 . S
C1563 C1562 1.366 . S
C1563 C1567 1.385 . S
C1564 H1545 0.951 . S
C1564 C1562 1.388 . S
C1564 C1565 1.366 . S
C1565 C1564 1.366 . S
C1565 C1566 1.414 . S
C1565 C1568 1.499 . S
C1566 H1546 0.950 . S
C1566 C1565 1.414 . S
C1566 C1567 1.374 . S
C1567 H1547 0.950 . S
C1567 C1563 1.385 . S
C1567 C1566 1.374 . S
C1568 C1565 1.499 . S
C1568 C1569 1.373 . S
C1568 C1570 1.389 . S
C1569 H1548 0.950 . S
C1569 C1568 1.373 . S
C1569 C1585 1.377 . S
C1570 C1568 1.389 . S
C1570 C1571 1.524 . S
C1570 C1584 1.377 . S
C1571 C1570 1.524 . S
C1571 C1572 1.397 . S
C1571 C1576 1.363 . S
C1572 H1549 0.950 . S
C1572 C1571 1.397 . S
C1572 C1573 1.334 . S
C1573 H1550 0.950 . S
C1573 C1572 1.334 . S
C1573 C1574 1.287 . S
C1574 C1573 1.287 . S
C1574 C1575 1.524 . S
C1574 H1593 0.913 . S
C1575 H1551 0.950 . S
C1575 C1574 1.524 . S
C1575 C1576 1.415 . S
C1576 H1552 0.950 . S
C1576 C1571 1.363 . S
C1576 C1575 1.415 . S
C1577 H1553 0.951 . S
C1577 C1578 1.366 . S
C1577 C1579 1.388 . S
C1578 C1577 1.366 . S
C1578 C1582 1.385 . S
C1579 H1554 0.951 . S
C1579 C1577 1.388 . S
C1579 C1580 1.366 . S
C1580 C1579 1.366 . S
C1580 C1581 1.414 . S
C1580 C1583 1.499 . S
C1581 H1555 0.950 . S
C1581 C1580 1.414 . S
C1581 C1582 1.374 . S
C1582 H1556 0.950 . S
C1582 C1578 1.385 . S
C1582 C1581 1.374 . S
C1583 C1580 1.499 . S
C1583 C1584 1.373 . S
C1583 C1585 1.389 . S
C1584 H1557 0.950 . S
C1584 C1570 1.377 . S
C1584 C1583 1.373 . S
C1585 C1569 1.377 . S
C1585 C1583 1.389 . S
C1585 C1586 1.524 . S
C1586 C1585 1.524 . S
C1586 C1587 1.397 . S
C1586 C1591 1.363 . S
C1587 H1558 0.950 . S
C1587 C1586 1.397 . S
C1587 C1588 1.334 . S
C1588 H1559 0.950 . S
C1588 C1587 1.334 . S
C1588 C1589 1.287 . S
C1589 C1588 1.287 . S
C1589 C1590 1.524 . S
C1589 H1592 0.999 . S
C1590 H1560 0.950 . S
C1590 C1589 1.524 . S
C1590 C1591 1.415 . S
C1591 H1561 0.950 . S
C1591 C1586 1.363 . S
C1591 C1590 1.415 . S
H1592 C1589 0.999 . S
H1593 C1574 0.913 . S
H1594 C1612 0.951 . S
H1595 C1614 0.951 . S
H1596 C1616 0.950 . S
H1597 C1617 0.950 . S
H1598 C1619 0.950 . S
H1599 C1622 0.950 . S
H1600 C1623 0.950 . S
H1601 C1625 0.950 . S
H1602 C1626 0.950 . S
H1603 C1627 0.951 . S
H1604 C1629 0.951 . S
H1605 C1631 0.950 . S
H1606 C1632 0.950 . S
H1607 C1634 0.950 . S
H1608 C1637 0.950 . S
H1609 C1638 0.950 . S
H1610 C1640 0.950 . S
H1611 C1641 0.950 . S
C1612 H1594 0.951 . S
C1612 C1613 1.366 . S
C1612 C1614 1.388 . S
C1613 C1612 1.366 . S
C1613 C1617 1.385 . S
C1614 H1595 0.951 . S
C1614 C1612 1.388 . S
C1614 C1615 1.366 . S
C1615 C1614 1.366 . S
C1615 C1616 1.414 . S
C1615 C1618 1.499 . S
C1616 H1596 0.950 . S
C1616 C1615 1.414 . S
C1616 C1617 1.374 . S
C1617 H1597 0.950 . S
C1617 C1613 1.385 . S
C1617 C1616 1.374 . S
C1618 C1615 1.499 . S
C1618 C1619 1.373 . S
C1618 C1620 1.389 . S
C1619 H1598 0.950 . S
C1619 C1618 1.373 . S
C1619 C1635 1.377 . S
C1620 C1618 1.389 . S
C1620 C1621 1.524 . S
C1620 C1634 1.377 . S
C1621 C1620 1.524 . S
C1621 C1622 1.397 . S
C1621 C1626 1.363 . S
C1622 H1599 0.950 . S
C1622 C1621 1.397 . S
C1622 C1623 1.334 . S
C1623 H1600 0.950 . S
C1623 C1622 1.334 . S
C1623 C1624 1.287 . S
C1624 C1623 1.287 . S
C1624 C1625 1.524 . S
C1624 H1643 0.913 . S
C1625 H1601 0.950 . S
C1625 C1624 1.524 . S
C1625 C1626 1.415 . S
C1626 H1602 0.950 . S
C1626 C1621 1.363 . S
C1626 C1625 1.415 . S
C1627 H1603 0.951 . S
C1627 C1628 1.366 . S
C1627 C1629 1.388 . S
C1628 C1627 1.366 . S
C1628 C1632 1.385 . S
C1629 H1604 0.951 . S
C1629 C1627 1.388 . S
C1629 C1630 1.366 . S
C1630 C1629 1.366 . S
C1630 C1631 1.414 . S
C1630 C1633 1.499 . S
C1631 H1605 0.950 . S
C1631 C1630 1.414 . S
C1631 C1632 1.374 . S
C1632 H1606 0.950 . S
C1632 C1628 1.385 . S
C1632 C1631 1.374 . S
C1633 C1630 1.499 . S
C1633 C1634 1.373 . S
C1633 C1635 1.389 . S
C1634 H1607 0.950 . S
C1634 C1620 1.377 . S
C1634 C1633 1.373 . S
C1635 C1619 1.377 . S
C1635 C1633 1.389 . S
C1635 C1636 1.524 . S
C1636 C1635 1.524 . S
C1636 C1637 1.397 . S
C1636 C1641 1.363 . S
C1637 H1608 0.950 . S
C1637 C1636 1.397 . S
C1637 C1638 1.334 . S
C1638 H1609 0.950 . S
C1638 C1637 1.334 . S
C1638 C1639 1.287 . S
C1639 C1638 1.287 . S
C1639 C1640 1.524 . S
C1639 H1642 0.999 . S
C1640 H1610 0.950 . S
C1640 C1639 1.524 . S
C1640 C1641 1.415 . S
C1641 H1611 0.950 . S
C1641 C1636 1.363 . S
C1641 C1640 1.415 . S
H1642 C1639 0.999 . S
H1643 C1624 0.913 . S
H1644 C1662 0.951 . S
H1645 C1664 0.951 . S
H1646 C1666 0.950 . S
H1647 C1667 0.950 . S
H1648 C1669 0.950 . S
H1649 C1672 0.950 . S
H1650 C1673 0.950 . S
H1651 C1675 0.950 . S
H1652 C1676 0.950 . S
H1653 C1677 0.951 . S
H1654 C1679 0.951 . S
H1655 C1681 0.950 . S
H1656 C1682 0.950 . S
H1657 C1684 0.950 . S
H1658 C1687 0.950 . S
H1659 C1688 0.950 . S
H1660 C1690 0.950 . S
H1661 C1691 0.950 . S
C1662 H1644 0.951 . S
C1662 C1663 1.366 . S
C1662 C1664 1.388 . S
C1663 C1662 1.366 . S
C1663 C1667 1.385 . S
C1664 H1645 0.951 . S
C1664 C1662 1.388 . S
C1664 C1665 1.366 . S
C1665 C1664 1.366 . S
C1665 C1666 1.414 . S
C1665 C1668 1.499 . S
C1666 H1646 0.950 . S
C1666 C1665 1.414 . S
C1666 C1667 1.374 . S
C1667 H1647 0.950 . S
C1667 C1663 1.385 . S
C1667 C1666 1.374 . S
C1668 C1665 1.499 . S
C1668 C1669 1.373 . S
C1668 C1670 1.389 . S
C1669 H1648 0.950 . S
C1669 C1668 1.373 . S
C1669 C1685 1.377 . S
C1670 C1668 1.389 . S
C1670 C1671 1.524 . S
C1670 C1684 1.377 . S
C1671 C1670 1.524 . S
C1671 C1672 1.397 . S
C1671 C1676 1.363 . S
C1672 H1649 0.950 . S
C1672 C1671 1.397 . S
C1672 C1673 1.334 . S
C1673 H1650 0.950 . S
C1673 C1672 1.334 . S
C1673 C1674 1.287 . S
C1674 C1673 1.287 . S
C1674 C1675 1.524 . S
C1674 H1693 0.913 . S
C1675 H1651 0.950 . S
C1675 C1674 1.524 . S
C1675 C1676 1.415 . S
C1676 H1652 0.950 . S
C1676 C1671 1.363 . S
C1676 C1675 1.415 . S
C1677 H1653 0.951 . S
C1677 C1678 1.366 . S
C1677 C1679 1.388 . S
C1678 C1677 1.366 . S
C1678 C1682 1.385 . S
C1679 H1654 0.951 . S
C1679 C1677 1.388 . S
C1679 C1680 1.366 . S
C1680 C1679 1.366 . S
C1680 C1681 1.414 . S
C1680 C1683 1.499 . S
C1681 H1655 0.950 . S
C1681 C1680 1.414 . S
C1681 C1682 1.374 . S
C1682 H1656 0.950 . S
C1682 C1678 1.385 . S
C1682 C1681 1.374 . S
C1683 C1680 1.499 . S
C1683 C1684 1.373 . S
C1683 C1685 1.389 . S
C1684 H1657 0.950 . S
C1684 C1670 1.377 . S
C1684 C1683 1.373 . S
C1685 C1669 1.377 . S
C1685 C1683 1.389 . S
C1685 C1686 1.524 . S
C1686 C1685 1.524 . S
C1686 C1687 1.397 . S
C1686 C1691 1.363 . S
C1687 H1658 0.950 . S
C1687 C1686 1.397 . S
C1687 C1688 1.334 . S
C1688 H1659 0.950 . S
C1688 C1687 1.334 . S
C1688 C1689 1.287 . S
C1689 C1688 1.287 . S
C1689 C1690 1.524 . S
C1689 H1692 0.999 . S
C1690 H1660 0.950 . S
C1690 C1689 1.524 . S
C1690 C1691 1.415 . S
C1691 H1661 0.950 . S
C1691 C1686 1.363 . S
C1691 C1690 1.415 . S
H1692 C1689 0.999 . S
H1693 C1674 0.913 . S
H1694 C1712 0.951 . S
H1695 C1714 0.951 . S
H1696 C1716 0.950 . S
H1697 C1717 0.950 . S
H1698 C1719 0.950 . S
H1699 C1722 0.950 . S
H1700 C1723 0.950 . S
H1701 C1725 0.950 . S
H1702 C1726 0.950 . S
H1703 C1727 0.951 . S
H1704 C1729 0.951 . S
H1705 C1731 0.950 . S
H1706 C1732 0.950 . S
H1707 C1734 0.950 . S
H1708 C1737 0.950 . S
H1709 C1738 0.950 . S
H1710 C1740 0.950 . S
H1711 C1741 0.950 . S
C1712 H1694 0.951 . S
C1712 C1713 1.366 . S
C1712 C1714 1.388 . S
C1713 C1712 1.366 . S
C1713 C1717 1.385 . S
C1714 H1695 0.951 . S
C1714 C1712 1.388 . S
C1714 C1715 1.366 . S
C1715 C1714 1.366 . S
C1715 C1716 1.414 . S
C1715 C1718 1.499 . S
C1716 H1696 0.950 . S
C1716 C1715 1.414 . S
C1716 C1717 1.374 . S
C1717 H1697 0.950 . S
C1717 C1713 1.385 . S
C1717 C1716 1.374 . S
C1718 C1715 1.499 . S
C1718 C1719 1.373 . S
C1718 C1720 1.389 . S
C1719 H1698 0.950 . S
C1719 C1718 1.373 . S
C1719 C1735 1.377 . S
C1720 C1718 1.389 . S
C1720 C1721 1.524 . S
C1720 C1734 1.377 . S
C1721 C1720 1.524 . S
C1721 C1722 1.397 . S
C1721 C1726 1.363 . S
C1722 H1699 0.950 . S
C1722 C1721 1.397 . S
C1722 C1723 1.334 . S
C1723 H1700 0.950 . S
C1723 C1722 1.334 . S
C1723 C1724 1.287 . S
C1724 C1723 1.287 . S
C1724 C1725 1.524 . S
C1724 H1743 0.913 . S
C1725 H1701 0.950 . S
C1725 C1724 1.524 . S
C1725 C1726 1.415 . S
C1726 H1702 0.950 . S
C1726 C1721 1.363 . S
C1726 C1725 1.415 . S
C1727 H1703 0.951 . S
C1727 C1728 1.366 . S
C1727 C1729 1.388 . S
C1728 C1727 1.366 . S
C1728 C1732 1.385 . S
C1729 H1704 0.951 . S
C1729 C1727 1.388 . S
C1729 C1730 1.366 . S
C1730 C1729 1.366 . S
C1730 C1731 1.414 . S
C1730 C1733 1.499 . S
C1731 H1705 0.950 . S
C1731 C1730 1.414 . S
C1731 C1732 1.374 . S
C1732 H1706 0.950 . S
C1732 C1728 1.385 . S
C1732 C1731 1.374 . S
C1733 C1730 1.499 . S
C1733 C1734 1.373 . S
C1733 C1735 1.389 . S
C1734 H1707 0.950 . S
C1734 C1720 1.377 . S
C1734 C1733 1.373 . S
C1735 C1719 1.377 . S
C1735 C1733 1.389 . S
C1735 C1736 1.524 . S
C1736 C1735 1.524 . S
C1736 C1737 1.397 . S
C1736 C1741 1.363 . S
C1737 H1708 0.950 . S
C1737 C1736 1.397 . S
C1737 C1738 1.334 . S
C1738 H1709 0.950 . S
C1738 C1737 1.334 . S
C1738 C1739 1.287 . S
C1739 C1738 1.287 . S
C1739 C1740 1.524 . S
C1739 H1742 0.999 . S
C1740 H1710 0.950 . S
C1740 C1739 1.524 . S
C1740 C1741 1.415 . S
C1741 H1711 0.950 . S
C1741 C1736 1.363 . S
C1741 C1740 1.415 . S
H1742 C1739 0.999 . S
H1743 C1724 0.913 . S
H1744 C1762 0.951 . S
H1745 C1764 0.951 . S
H1746 C1766 0.950 . S
H1747 C1767 0.950 . S
H1748 C1769 0.950 . S
H1749 C1772 0.950 . S
H1750 C1773 0.950 . S
H1751 C1775 0.950 . S
H1752 C1776 0.950 . S
H1753 C1777 0.951 . S
H1754 C1779 0.951 . S
H1755 C1781 0.950 . S
H1756 C1782 0.950 . S
H1757 C1784 0.950 . S
H1758 C1787 0.950 . S
H1759 C1788 0.950 . S
H1760 C1790 0.950 . S
H1761 C1791 0.950 . S
C1762 H1744 0.951 . S
C1762 C1763 1.366 . S
C1762 C1764 1.388 . S
C1763 C1762 1.366 . S
C1763 C1767 1.385 . S
C1764 H1745 0.951 . S
C1764 C1762 1.388 . S
C1764 C1765 1.366 . S
C1765 C1764 1.366 . S
C1765 C1766 1.414 . S
C1765 C1768 1.499 . S
C1766 H1746 0.950 . S
C1766 C1765 1.414 . S
C1766 C1767 1.374 . S
C1767 H1747 0.950 . S
C1767 C1763 1.385 . S
C1767 C1766 1.374 . S
C1768 C1765 1.499 . S
C1768 C1769 1.373 . S
C1768 C1770 1.389 . S
C1769 H1748 0.950 . S
C1769 C1768 1.373 . S
C1769 C1785 1.377 . S
C1770 C1768 1.389 . S
C1770 C1771 1.524 . S
C1770 C1784 1.377 . S
C1771 C1770 1.524 . S
C1771 C1772 1.397 . S
C1771 C1776 1.363 . S
C1772 H1749 0.950 . S
C1772 C1771 1.397 . S
C1772 C1773 1.334 . S
C1773 H1750 0.950 . S
C1773 C1772 1.334 . S
C1773 C1774 1.287 . S
C1774 C1773 1.287 . S
C1774 C1775 1.524 . S
C1774 H1793 0.913 . S
C1775 H1751 0.950 . S
C1775 C1774 1.524 . S
C1775 C1776 1.415 . S
C1776 H1752 0.950 . S
C1776 C1771 1.363 . S
C1776 C1775 1.415 . S
C1777 H1753 0.951 . S
C1777 C1778 1.366 . S
C1777 C1779 1.388 . S
C1778 C1777 1.366 . S
C1778 C1782 1.385 . S
C1779 H1754 0.951 . S
C1779 C1777 1.388 . S
C1779 C1780 1.366 . S
C1780 C1779 1.366 . S
C1780 C1781 1.414 . S
C1780 C1783 1.499 . S
C1781 H1755 0.950 . S
C1781 C1780 1.414 . S
C1781 C1782 1.374 . S
C1782 H1756 0.950 . S
C1782 C1778 1.385 . S
C1782 C1781 1.374 . S
C1783 C1780 1.499 . S
C1783 C1784 1.373 . S
C1783 C1785 1.389 . S
C1784 H1757 0.950 . S
C1784 C1770 1.377 . S
C1784 C1783 1.373 . S
C1785 C1769 1.377 . S
C1785 C1783 1.389 . S
C1785 C1786 1.524 . S
C1786 C1785 1.524 . S
C1786 C1787 1.397 . S
C1786 C1791 1.363 . S
C1787 H1758 0.950 . S
C1787 C1786 1.397 . S
C1787 C1788 1.334 . S
C1788 H1759 0.950 . S
C1788 C1787 1.334 . S
C1788 C1789 1.287 . S
C1789 C1788 1.287 . S
C1789 C1790 1.524 . S
C1789 H1792 0.999 . S
C1790 H1760 0.950 . S
C1790 C1789 1.524 . S
C1790 C1791 1.415 . S
C1791 H1761 0.950 . S
C1791 C1786 1.363 . S
C1791 C1790 1.415 . S
H1792 C1789 0.999 . S
H1793 C1774 0.913 . S
H1794 C1812 0.951 . S
H1795 C1814 0.951 . S
H1796 C1816 0.950 . S
H1797 C1817 0.950 . S
H1798 C1819 0.950 . S
H1799 C1822 0.950 . S
H1800 C1823 0.950 . S
H1801 C1825 0.950 . S
H1802 C1826 0.950 . S
H1803 C1827 0.951 . S
H1804 C1829 0.951 . S
H1805 C1831 0.950 . S
H1806 C1832 0.950 . S
H1807 C1834 0.950 . S
H1808 C1837 0.950 . S
H1809 C1838 0.950 . S
H1810 C1840 0.950 . S
H1811 C1841 0.950 . S
C1812 H1794 0.951 . S
C1812 C1813 1.366 . S
C1812 C1814 1.388 . S
C1813 C1812 1.366 . S
C1813 C1817 1.385 . S
C1814 H1795 0.951 . S
C1814 C1812 1.388 . S
C1814 C1815 1.366 . S
C1815 C1814 1.366 . S
C1815 C1816 1.414 . S
C1815 C1818 1.499 . S
C1816 H1796 0.950 . S
C1816 C1815 1.414 . S
C1816 C1817 1.374 . S
C1817 H1797 0.950 . S
C1817 C1813 1.385 . S
C1817 C1816 1.374 . S
C1818 C1815 1.499 . S
C1818 C1819 1.373 1_655 S
C1818 C1820 1.389 . S
C1819 H1798 0.950 . S
C1819 C1818 1.373 1_455 S
C1819 C1835 1.377 1_554 S
C1820 C1818 1.389 . S
C1820 C1821 1.524 . S
C1820 C1834 1.377 1_554 S
C1821 C1820 1.524 . S
C1821 C1822 1.397 . S
C1821 C1826 1.363 . S
C1822 H1799 0.950 . S
C1822 C1821 1.397 . S
C1822 C1823 1.334 . S
C1823 H1800 0.950 . S
C1823 C1822 1.334 . S
C1823 C1824 1.287 . S
C1824 C1823 1.287 . S
C1824 C1825 1.524 . S
C1824 H1843 0.913 . S
C1825 H1801 0.950 . S
C1825 C1824 1.524 . S
C1825 C1826 1.415 . S
C1826 H1802 0.950 . S
C1826 C1821 1.363 . S
C1826 C1825 1.415 . S
C1827 H1803 0.951 . S
C1827 C1828 1.366 . S
C1827 C1829 1.388 . S
C1828 C1827 1.366 . S
C1828 C1832 1.385 . S
C1829 H1804 0.951 . S
C1829 C1827 1.388 . S
C1829 C1830 1.366 . S
C1830 C1829 1.366 . S
C1830 C1831 1.414 . S
C1830 C1833 1.499 . S
C1831 H1805 0.950 . S
C1831 C1830 1.414 . S
C1831 C1832 1.374 . S
C1832 H1806 0.950 . S
C1832 C1828 1.385 . S
C1832 C1831 1.374 . S
C1833 C1830 1.499 . S
C1833 C1834 1.373 1_455 S
C1833 C1835 1.389 . S
C1834 H1807 0.950 . S
C1834 C1820 1.377 1_556 S
C1834 C1833 1.373 1_655 S
C1835 C1819 1.377 1_556 S
C1835 C1833 1.389 . S
C1835 C1836 1.524 . S
C1836 C1835 1.524 . S
C1836 C1837 1.397 . S
C1836 C1841 1.363 . S
C1837 H1808 0.950 . S
C1837 C1836 1.397 . S
C1837 C1838 1.334 . S
C1838 H1809 0.950 . S
C1838 C1837 1.334 . S
C1838 C1839 1.287 . S
C1839 C1838 1.287 . S
C1839 C1840 1.524 . S
C1839 H1842 0.999 . S
C1840 H1810 0.950 . S
C1840 C1839 1.524 . S
C1840 C1841 1.415 . S
C1841 H1811 0.950 . S
C1841 C1836 1.363 . S
C1841 C1840 1.415 . S
H1842 C1839 0.999 . S
H1843 C1824 0.913 . S
H1844 C1862 0.951 . S
H1845 C1864 0.951 . S
H1846 C1866 0.950 . S
H1847 C1867 0.950 . S
H1848 C1869 0.950 . S
H1849 C1872 0.950 . S
H1850 C1873 0.950 . S
H1851 C1875 0.981 . S
H1852 C1876 0.950 1_556 S
H1853 C1877 0.951 . S
H1854 C1879 0.951 . S
H1855 C1881 0.950 . S
H1856 C1882 0.950 . S
H1857 C1884 0.950 . S
H1858 C1887 0.950 . S
H1859 C1888 0.950 . S
H1860 C1890 0.981 . S
H1861 C1891 0.950 1_554 S
C1862 H1844 0.951 . S
C1862 C1863 1.366 . S
C1862 C1864 1.388 . S
C1863 C1862 1.366 . S
C1863 C1867 1.385 . S
C1864 H1845 0.951 . S
C1864 C1862 1.388 . S
C1864 C1865 1.366 . S
C1865 C1864 1.366 . S
C1865 C1866 1.414 . S
C1865 C1868 1.499 . S
C1866 H1846 0.950 . S
C1866 C1865 1.414 . S
C1866 C1867 1.374 . S
C1867 H1847 0.950 . S
C1867 C1863 1.385 . S
C1867 C1866 1.374 . S
C1868 C1865 1.499 . S
C1868 C1869 1.373 . S
C1868 C1870 1.389 . S
C1869 H1848 0.950 . S
C1869 C1868 1.373 . S
C1869 C1885 1.377 1_554 S
C1870 C1868 1.389 . S
C1870 C1871 1.524 . S
C1870 C1884 1.377 1_554 S
C1871 C1870 1.524 . S
C1871 C1872 1.397 . S
C1871 C1876 1.363 . S
C1872 H1849 0.950 . S
C1872 C1871 1.397 . S
C1872 C1873 1.334 . S
C1873 H1850 0.950 . S
C1873 C1872 1.334 . S
C1873 C1874 1.287 . S
C1874 C1873 1.287 . S
C1874 C1875 1.524 . S
C1874 H1893 0.913 . S
C1875 H1851 0.981 . S
C1875 C1874 1.524 . S
C1875 C1876 1.415 . S
C1876 H1852 0.950 1_554 S
C1876 C1871 1.363 . S
C1876 C1875 1.415 . S
C1877 H1853 0.951 . S
C1877 C1878 1.366 . S
C1877 C1879 1.388 . S
C1878 C1877 1.366 . S
C1878 C1882 1.385 . S
C1879 H1854 0.951 . S
C1879 C1877 1.388 . S
C1879 C1880 1.366 . S
C1880 C1879 1.366 . S
C1880 C1881 1.414 . S
C1880 C1883 1.499 . S
C1881 H1855 0.950 . S
C1881 C1880 1.414 . S
C1881 C1882 1.374 . S
C1882 H1856 0.950 . S
C1882 C1878 1.385 . S
C1882 C1881 1.374 . S
C1883 C1880 1.499 . S
C1883 C1884 1.373 . S
C1883 C1885 1.389 . S
C1884 H1857 0.950 . S
C1884 C1870 1.377 1_556 S
C1884 C1883 1.373 . S
C1885 C1869 1.377 1_556 S
C1885 C1883 1.389 . S
C1885 C1886 1.524 . S
C1886 C1885 1.524 . S
C1886 C1887 1.397 . S
C1886 C1891 1.363 . S
C1887 H1858 0.950 . S
C1887 C1886 1.397 . S
C1887 C1888 1.334 . S
C1888 H1859 0.950 . S
C1888 C1887 1.334 . S
C1888 C1889 1.287 . S
C1889 C1888 1.287 . S
C1889 C1890 1.524 . S
C1889 H1892 0.999 . S
C1890 H1860 0.981 . S
C1890 C1889 1.524 . S
C1890 C1891 1.415 . S
C1891 H1861 0.950 1_556 S
C1891 C1886 1.363 . S
C1891 C1890 1.415 . S
H1892 C1889 0.999 . S
H1893 C1874 0.913 . S
H1894 C1912 0.951 . S
H1895 C1914 0.951 1_565 S
H1896 C1916 0.950 . S
H1897 C1917 0.950 . S
H1898 C1919 0.950 . S
H1899 C1922 0.950 . S
H1900 C1923 0.950 . S
H1901 C1925 0.950 . S
H1902 C1926 0.950 . S
H1903 C1927 0.951 . S
H1904 C1929 0.951 . S
H1905 C1931 0.950 . S
H1906 C1932 0.950 . S
H1907 C1934 0.950 . S
H1908 C1937 0.950 . S
H1909 C1938 0.950 . S
H1910 C1940 0.950 . S
H1911 C1941 0.950 . S
C1912 H1894 0.951 . S
C1912 C1913 1.366 . S
C1912 C1914 1.388 . S
C1913 C1912 1.366 . S
C1913 C1917 1.385 . S
C1914 H1895 0.951 1_545 S
C1914 C1912 1.388 . S
C1914 C1915 1.366 . S
C1915 C1914 1.366 . S
C1915 C1916 1.414 . S
C1915 C1918 1.499 . S
C1916 H1896 0.950 . S
C1916 C1915 1.414 . S
C1916 C1917 1.374 . S
C1917 H1897 0.950 . S
C1917 C1913 1.385 . S
C1917 C1916 1.374 . S
C1918 C1915 1.499 . S
C1918 C1919 1.373 1_545 S
C1918 C1920 1.389 . S
C1919 H1898 0.950 . S
C1919 C1918 1.373 1_565 S
C1919 C1935 1.377 1_554 S
C1920 C1918 1.389 . S
C1920 C1921 1.524 . S
C1920 C1934 1.377 1_554 S
C1921 C1920 1.524 . S
C1921 C1922 1.397 . S
C1921 C1926 1.363 . S
C1922 H1899 0.950 . S
C1922 C1921 1.397 . S
C1922 C1923 1.334 . S
C1923 H1900 0.950 . S
C1923 C1922 1.334 . S
C1923 C1924 1.287 . S
C1924 C1923 1.287 . S
C1924 C1925 1.524 . S
C1924 H1943 0.913 . S
C1925 H1901 0.950 . S
C1925 C1924 1.524 . S
C1925 C1926 1.415 . S
C1926 H1902 0.950 . S
C1926 C1921 1.363 . S
C1926 C1925 1.415 . S
C1927 H1903 0.951 . S
C1927 C1928 1.366 . S
C1927 C1929 1.388 . S
C1928 C1927 1.366 . S
C1928 C1932 1.385 . S
C1929 H1904 0.951 . S
C1929 C1927 1.388 . S
C1929 C1930 1.366 . S
C1930 C1929 1.366 . S
C1930 C1931 1.414 . S
C1930 C1933 1.499 . S
C1931 H1905 0.950 . S
C1931 C1930 1.414 . S
C1931 C1932 1.374 . S
C1932 H1906 0.950 . S
C1932 C1928 1.385 . S
C1932 C1931 1.374 . S
C1933 C1930 1.499 . S
C1933 C1934 1.373 1_565 S
C1933 C1935 1.389 . S
C1934 H1907 0.950 . S
C1934 C1920 1.377 1_556 S
C1934 C1933 1.373 1_545 S
C1935 C1919 1.377 1_556 S
C1935 C1933 1.389 . S
C1935 C1936 1.524 . S
C1936 C1935 1.524 . S
C1936 C1937 1.397 . S
C1936 C1941 1.363 . S
C1937 H1908 0.950 . S
C1937 C1936 1.397 . S
C1937 C1938 1.334 . S
C1938 H1909 0.950 . S
C1938 C1937 1.334 . S
C1938 C1939 1.287 . S
C1939 C1938 1.287 . S
C1939 C1940 1.524 . S
C1939 H1942 0.999 . S
C1940 H1910 0.950 . S
C1940 C1939 1.524 . S
C1940 C1941 1.415 . S
C1941 H1911 0.950 . S
C1941 C1936 1.363 . S
C1941 C1940 1.415 . S
H1942 C1939 0.999 . S
H1943 C1924 0.913 . S
H1944 C1962 0.951 . S
H1945 C1964 0.951 . S
H1946 C1966 0.950 . S
H1947 C1967 0.950 . S
H1948 C1969 0.950 . S
H1949 C1972 0.950 . S
H1950 C1973 0.950 . S
H1951 C1975 0.950 . S
H1952 C1976 0.950 . S
H1953 C1977 0.951 . S
H1954 C1979 0.951 . S
H1955 C1981 0.950 . S
H1956 C1982 0.950 . S
H1957 C1984 0.950 . S
H1958 C1987 0.950 . S
H1959 C1988 0.950 . S
H1960 C1990 0.950 . S
H1961 C1991 0.950 . S
C1962 H1944 0.951 . S
C1962 C1963 1.366 1_545 S
C1962 C1964 1.388 . S
C1963 C1962 1.366 1_565 S
C1963 C1967 1.385 . S
C1964 H1945 0.951 . S
C1964 C1962 1.388 . S
C1964 C1965 1.366 . S
C1965 C1964 1.366 . S
C1965 C1966 1.414 . S
C1965 C1968 1.499 . S
C1966 H1946 0.950 . S
C1966 C1965 1.414 . S
C1966 C1967 1.374 1_545 S
C1967 H1947 0.950 . S
C1967 C1963 1.385 . S
C1967 C1966 1.374 1_565 S
C1968 C1965 1.499 . S
C1968 C1969 1.373 . S
C1968 C1970 1.389 . S
C1969 H1948 0.950 . S
C1969 C1968 1.373 . S
C1969 C1985 1.377 . S
C1970 C1968 1.389 . S
C1970 C1971 1.524 . S
C1970 C1984 1.377 . S
C1971 C1970 1.524 . S
C1971 C1972 1.397 . S
C1971 C1976 1.363 . S
C1972 H1949 0.950 . S
C1972 C1971 1.397 . S
C1972 C1973 1.334 . S
C1973 H1950 0.950 . S
C1973 C1972 1.334 . S
C1973 C1974 1.287 . S
C1974 C1973 1.287 . S
C1974 C1975 1.524 . S
C1974 H1993 0.913 . S
C1975 H1951 0.950 . S
C1975 C1974 1.524 . S
C1975 C1976 1.415 . S
C1976 H1952 0.950 . S
C1976 C1971 1.363 . S
C1976 C1975 1.415 . S
C1977 H1953 0.951 . S
C1977 C1978 1.366 . S
C1977 C1979 1.388 . S
C1978 C1977 1.366 . S
C1978 C1982 1.385 . S
C1979 H1954 0.951 . S
C1979 C1977 1.388 . S
C1979 C1980 1.366 . S
C1980 C1979 1.366 . S
C1980 C1981 1.414 . S
C1980 C1983 1.499 . S
C1981 H1955 0.950 . S
C1981 C1980 1.414 . S
C1981 C1982 1.374 . S
C1982 H1956 0.950 . S
C1982 C1978 1.385 . S
C1982 C1981 1.374 . S
C1983 C1980 1.499 . S
C1983 C1984 1.373 . S
C1983 C1985 1.389 . S
C1984 H1957 0.950 . S
C1984 C1970 1.377 . S
C1984 C1983 1.373 . S
C1985 C1969 1.377 . S
C1985 C1983 1.389 . S
C1985 C1986 1.524 . S
C1986 C1985 1.524 . S
C1986 C1987 1.397 . S
C1986 C1991 1.363 . S
C1987 H1958 0.950 . S
C1987 C1986 1.397 . S
C1987 C1988 1.334 . S
C1988 H1959 0.950 . S
C1988 C1987 1.334 . S
C1988 C1989 1.287 . S
C1989 C1988 1.287 . S
C1989 C1990 1.524 . S
C1989 H1992 0.999 . S
C1990 H1960 0.950 . S
C1990 C1989 1.524 . S
C1990 C1991 1.415 . S
C1991 H1961 0.950 . S
C1991 C1986 1.363 . S
C1991 C1990 1.415 . S
H1992 C1989 0.999 . S
H1993 C1974 0.913 . S
H1994 C2012 0.951 . S
H1995 C2014 0.951 . S
H1996 C2016 0.950 . S
H1997 C2017 0.950 . S
H1998 C2019 0.950 . S
H1999 C2022 0.950 . S
H2000 C2023 0.950 . S
H2001 C2025 0.950 . S
H2002 C2026 0.950 . S
H2003 C2027 0.951 . S
H2004 C2029 0.951 . S
H2005 C2031 0.950 . S
H2006 C2032 0.950 . S
H2007 C2034 0.950 . S
H2008 C2037 0.950 . S
H2009 C2038 0.949 1_455 S
H2010 C2040 0.950 1_455 S
H2011 C2041 0.950 . S
C2012 H1994 0.951 . S
C2012 C2013 1.366 . S
C2012 C2014 1.388 . S
C2013 C2012 1.366 . S
C2013 C2017 1.385 . S
C2014 H1995 0.951 . S
C2014 C2012 1.388 . S
C2014 C2015 1.366 . S
C2015 C2014 1.366 . S
C2015 C2016 1.414 . S
C2015 C2018 1.499 1_565 S
C2016 H1996 0.950 . S
C2016 C2015 1.414 . S
C2016 C2017 1.374 . S
C2017 H1997 0.950 . S
C2017 C2013 1.385 . S
C2017 C2016 1.374 . S
C2018 C2015 1.499 1_545 S
C2018 C2019 1.373 . S
C2018 C2020 1.389 . S
C2019 H1998 0.950 . S
C2019 C2018 1.373 . S
C2019 C2035 1.377 . S
C2020 C2018 1.389 . S
C2020 C2021 1.524 . S
C2020 C2034 1.377 . S
C2021 C2020 1.524 . S
C2021 C2022 1.397 . S
C2021 C2026 1.363 . S
C2022 H1999 0.950 . S
C2022 C2021 1.397 . S
C2022 C2023 1.334 . S
C2023 H2000 0.950 . S
C2023 C2022 1.334 . S
C2023 C2024 1.287 . S
C2024 C2023 1.287 . S
C2024 C2025 1.524 . S
C2024 H2043 0.913 . S
C2025 H2001 0.950 . S
C2025 C2024 1.524 . S
C2025 C2026 1.415 . S
C2026 H2002 0.950 . S
C2026 C2021 1.363 . S
C2026 C2025 1.415 . S
C2027 H2003 0.951 . S
C2027 C2028 1.366 . S
C2027 C2029 1.388 1_455 S
C2028 C2027 1.366 . S
C2028 C2032 1.385 1_455 S
C2029 H2004 0.951 . S
C2029 C2027 1.388 1_655 S
C2029 C2030 1.366 . S
C2030 C2029 1.366 . S
C2030 C2031 1.414 . S
C2030 C2033 1.499 . S
C2031 H2005 0.950 . S
C2031 C2030 1.414 . S
C2031 C2032 1.374 . S
C2032 H2006 0.950 . S
C2032 C2028 1.385 1_655 S
C2032 C2031 1.374 . S
C2033 C2030 1.499 . S
C2033 C2034 1.373 . S
C2033 C2035 1.389 . S
C2034 H2007 0.950 . S
C2034 C2020 1.377 . S
C2034 C2033 1.373 . S
C2035 C2019 1.377 . S
C2035 C2033 1.389 . S
C2035 C2036 1.524 . S
C2036 C2035 1.524 . S
C2036 C2037 1.397 . S
C2036 C2041 1.363 . S
C2037 H2008 0.950 . S
C2037 C2036 1.397 . S
C2037 C2038 1.334 . S
C2038 H2009 0.949 1_655 S
C2038 C2037 1.334 . S
C2038 C2039 1.287 1_655 S
C2039 C2038 1.287 1_455 S
C2039 C2040 1.524 1_455 S
C2039 H2042 0.999 . S
C2040 H2010 0.950 1_655 S
C2040 C2039 1.524 1_655 S
C2040 C2041 1.415 . S
C2041 H2011 0.950 . S
C2041 C2036 1.363 . S
C2041 C2040 1.415 . S
H2042 C2039 0.999 . S
H2043 C2024 0.913 . S
H2044 C2062 0.951 . S
H2045 C2064 0.951 . S
H2046 C2066 0.950 . S
H2047 C2067 0.950 . S
H2048 C2069 0.950 . S
H2049 C2072 0.950 . S
H2050 C2073 0.950 . S
H2051 C2075 0.950 . S
H2052 C2076 0.950 . S
H2053 C2077 0.951 . S
H2054 C2079 0.951 . S
H2055 C2081 0.950 . S
H2056 C2082 0.950 . S
H2057 C2084 0.950 . S
H2058 C2087 0.950 . S
H2059 C2088 0.950 . S
H2060 C2090 0.950 . S
H2061 C2091 0.950 . S
C2062 H2044 0.951 . S
C2062 C2063 1.366 . S
C2062 C2064 1.388 . S
C2063 C2062 1.366 . S
C2063 C2067 1.385 . S
C2064 H2045 0.951 . S
C2064 C2062 1.388 . S
C2064 C2065 1.366 . S
C2065 C2064 1.366 . S
C2065 C2066 1.414 . S
C2065 C2068 1.499 . S
C2066 H2046 0.950 . S
C2066 C2065 1.414 . S
C2066 C2067 1.374 . S
C2067 H2047 0.950 . S
C2067 C2063 1.385 . S
C2067 C2066 1.374 . S
C2068 C2065 1.499 . S
C2068 C2069 1.373 . S
C2068 C2070 1.389 . S
C2069 H2048 0.950 . S
C2069 C2068 1.373 . S
C2069 C2085 1.377 . S
C2070 C2068 1.389 . S
C2070 C2071 1.524 . S
C2070 C2084 1.377 . S
C2071 C2070 1.524 . S
C2071 C2072 1.397 . S
C2071 C2076 1.363 . S
C2072 H2049 0.950 . S
C2072 C2071 1.397 . S
C2072 C2073 1.334 . S
C2073 H2050 0.950 . S
C2073 C2072 1.334 . S
C2073 C2074 1.287 . S
C2074 C2073 1.287 . S
C2074 C2075 1.524 . S
C2074 H2093 0.913 . S
C2075 H2051 0.950 . S
C2075 C2074 1.524 . S
C2075 C2076 1.415 . S
C2076 H2052 0.950 . S
C2076 C2071 1.363 . S
C2076 C2075 1.415 . S
C2077 H2053 0.951 . S
C2077 C2078 1.366 . S
C2077 C2079 1.388 . S
C2078 C2077 1.366 . S
C2078 C2082 1.385 . S
C2079 H2054 0.951 . S
C2079 C2077 1.388 . S
C2079 C2080 1.366 . S
C2080 C2079 1.366 . S
C2080 C2081 1.414 . S
C2080 C2083 1.499 1_455 S
C2081 H2055 0.950 . S
C2081 C2080 1.414 . S
C2081 C2082 1.374 . S
C2082 H2056 0.950 . S
C2082 C2078 1.385 . S
C2082 C2081 1.374 . S
C2083 C2080 1.499 1_655 S
C2083 C2084 1.373 . S
C2083 C2085 1.389 . S
C2084 H2057 0.950 . S
C2084 C2070 1.377 . S
C2084 C2083 1.373 . S
C2085 C2069 1.377 . S
C2085 C2083 1.389 . S
C2085 C2086 1.524 . S
C2086 C2085 1.524 . S
C2086 C2087 1.397 1_655 S
C2086 C2091 1.363 . S
C2087 H2058 0.950 . S
C2087 C2086 1.397 1_455 S
C2087 C2088 1.334 . S
C2088 H2059 0.950 . S
C2088 C2087 1.334 . S
C2088 C2089 1.287 . S
C2089 C2088 1.287 . S
C2089 C2090 1.524 1_455 S
C2089 H2092 0.999 . S
C2090 H2060 0.950 . S
C2090 C2089 1.524 1_655 S
C2090 C2091 1.415 . S
C2091 H2061 0.950 . S
C2091 C2086 1.363 . S
C2091 C2090 1.415 . S
H2092 C2089 0.999 . S
H2093 C2074 0.913 . S
H2094 C2112 0.951 . S
H2095 C2114 0.951 . S
H2096 C2116 0.950 . S
H2097 C2117 0.950 . S
H2098 C2119 0.950 . S
H2099 C2122 0.950 . S
H2100 C2123 0.950 . S
H2101 C2125 0.950 . S
H2102 C2126 0.950 . S
H2103 C2127 0.951 . S
H2104 C2129 0.951 . S
H2105 C2131 0.950 . S
H2106 C2132 0.950 . S
H2107 C2134 0.950 . S
H2108 C2137 0.950 . S
H2109 C2138 0.950 . S
H2110 C2140 0.950 . S
H2111 C2141 0.950 . S
C2112 H2094 0.951 . S
C2112 C2113 1.366 1_455 S
C2112 C2114 1.388 . S
C2113 C2112 1.366 1_655 S
C2113 C2117 1.385 . S
C2114 H2095 0.951 . S
C2114 C2112 1.388 . S
C2114 C2115 1.366 . S
C2115 C2114 1.366 . S
C2115 C2116 1.414 . S
C2115 C2118 1.499 . S
C2116 H2096 0.950 . S
C2116 C2115 1.414 . S
C2116 C2117 1.374 1_455 S
C2117 H2097 0.950 . S
C2117 C2113 1.385 . S
C2117 C2116 1.374 1_655 S
C2118 C2115 1.499 . S
C2118 C2119 1.373 . S
C2118 C2120 1.389 . S
C2119 H2098 0.950 . S
C2119 C2118 1.373 . S
C2119 C2135 1.377 . S
C2120 C2118 1.389 . S
C2120 C2121 1.524 . S
C2120 C2134 1.377 . S
C2121 C2120 1.524 . S
C2121 C2122 1.397 . S
C2121 C2126 1.363 . S
C2122 H2099 0.950 . S
C2122 C2121 1.397 . S
C2122 C2123 1.334 . S
C2123 H2100 0.950 . S
C2123 C2122 1.334 . S
C2123 C2124 1.287 . S
C2124 C2123 1.287 . S
C2124 C2125 1.524 . S
C2124 H2143 0.913 . S
C2125 H2101 0.950 . S
C2125 C2124 1.524 . S
C2125 C2126 1.415 . S
C2126 H2102 0.950 . S
C2126 C2121 1.363 . S
C2126 C2125 1.415 . S
C2127 H2103 0.951 . S
C2127 C2128 1.366 . S
C2127 C2129 1.388 . S
C2128 C2127 1.366 . S
C2128 C2132 1.385 . S
C2129 H2104 0.951 . S
C2129 C2127 1.388 . S
C2129 C2130 1.366 . S
C2130 C2129 1.366 . S
C2130 C2131 1.414 . S
C2130 C2133 1.499 . S
C2131 H2105 0.950 . S
C2131 C2130 1.414 . S
C2131 C2132 1.374 . S
C2132 H2106 0.950 . S
C2132 C2128 1.385 . S
C2132 C2131 1.374 . S
C2133 C2130 1.499 . S
C2133 C2134 1.373 . S
C2133 C2135 1.389 . S
C2134 H2107 0.950 . S
C2134 C2120 1.377 . S
C2134 C2133 1.373 . S
C2135 C2119 1.377 . S
C2135 C2133 1.389 . S
C2135 C2136 1.524 . S
C2136 C2135 1.524 . S
C2136 C2137 1.397 . S
C2136 C2141 1.363 . S
C2137 H2108 0.950 . S
C2137 C2136 1.397 . S
C2137 C2138 1.334 . S
C2138 H2109 0.950 . S
C2138 C2137 1.334 . S
C2138 C2139 1.287 . S
C2139 C2138 1.287 . S
C2139 C2140 1.524 . S
C2139 H2142 0.999 . S
C2140 H2110 0.950 . S
C2140 C2139 1.524 . S
C2140 C2141 1.415 . S
C2141 H2111 0.950 . S
C2141 C2136 1.363 . S
C2141 C2140 1.415 . S
H2142 C2139 0.999 . S
H2143 C2124 0.913 . S
H2144 C2162 0.951 . S
H2145 C2164 0.951 1_565 S
H2146 C2166 0.950 . S
H2147 C2167 0.950 . S
H2148 C2169 0.950 . S
H2149 C2172 0.950 . S
H2150 C2173 0.950 . S
H2151 C2175 0.950 . S
H2152 C2176 0.950 . S
H2153 C2177 0.951 . S
H2154 C2179 0.951 . S
H2155 C2181 0.950 . S
H2156 C2182 0.950 . S
H2157 C2184 0.950 . S
H2158 C2187 0.950 . S
H2159 C2188 0.950 . S
H2160 C2190 0.950 . S
H2161 C2191 0.950 . S
C2162 H2144 0.951 . S
C2162 C2163 1.366 . S
C2162 C2164 1.388 . S
C2163 C2162 1.366 . S
C2163 C2167 1.385 . S
C2164 H2145 0.951 1_545 S
C2164 C2162 1.388 . S
C2164 C2165 1.366 . S
C2165 C2164 1.366 . S
C2165 C2166 1.414 . S
C2165 C2168 1.499 1_545 S
C2166 H2146 0.950 . S
C2166 C2165 1.414 . S
C2166 C2167 1.374 . S
C2167 H2147 0.950 . S
C2167 C2163 1.385 . S
C2167 C2166 1.374 . S
C2168 C2165 1.499 1_565 S
C2168 C2169 1.373 . S
C2168 C2170 1.389 . S
C2169 H2148 0.950 . S
C2169 C2168 1.373 . S
C2169 C2185 1.377 . S
C2170 C2168 1.389 . S
C2170 C2171 1.524 . S
C2170 C2184 1.377 . S
C2171 C2170 1.524 . S
C2171 C2172 1.397 . S
C2171 C2176 1.363 . S
C2172 H2149 0.950 . S
C2172 C2171 1.397 . S
C2172 C2173 1.334 . S
C2173 H2150 0.950 . S
C2173 C2172 1.334 . S
C2173 C2174 1.287 . S
C2174 C2173 1.287 . S
C2174 C2175 1.524 . S
C2174 H2193 0.913 . S
C2175 H2151 0.950 . S
C2175 C2174 1.524 . S
C2175 C2176 1.415 . S
C2176 H2152 0.950 . S
C2176 C2171 1.363 . S
C2176 C2175 1.415 . S
C2177 H2153 0.951 . S
C2177 C2178 1.366 . S
C2177 C2179 1.388 . S
C2178 C2177 1.366 . S
C2178 C2182 1.385 . S
C2179 H2154 0.951 . S
C2179 C2177 1.388 . S
C2179 C2180 1.366 . S
C2180 C2179 1.366 . S
C2180 C2181 1.414 . S
C2180 C2183 1.499 . S
C2181 H2155 0.950 . S
C2181 C2180 1.414 . S
C2181 C2182 1.374 . S
C2182 H2156 0.950 . S
C2182 C2178 1.385 . S
C2182 C2181 1.374 . S
C2183 C2180 1.499 . S
C2183 C2184 1.373 . S
C2183 C2185 1.389 . S
C2184 H2157 0.950 . S
C2184 C2170 1.377 . S
C2184 C2183 1.373 . S
C2185 C2169 1.377 . S
C2185 C2183 1.389 . S
C2185 C2186 1.524 . S
C2186 C2185 1.524 . S
C2186 C2187 1.397 . S
C2186 C2191 1.363 . S
C2187 H2158 0.950 . S
C2187 C2186 1.397 . S
C2187 C2188 1.334 . S
C2188 H2159 0.950 . S
C2188 C2187 1.334 . S
C2188 C2189 1.287 . S
C2189 C2188 1.287 . S
C2189 C2190 1.524 . S
C2189 H2192 0.999 . S
C2190 H2160 0.950 . S
C2190 C2189 1.524 . S
C2190 C2191 1.415 . S
C2191 H2161 0.950 . S
C2191 C2186 1.363 . S
C2191 C2190 1.415 . S
H2192 C2189 0.999 . S
H2193 C2174 0.913 . S
H2194 C2212 0.951 . S
H2195 C2214 0.951 . S
H2196 C2216 0.950 . S
H2197 C2217 0.950 . S
H2198 C2219 0.950 . S
H2199 C2222 0.950 . S
H2200 C2223 0.950 . S
H2201 C2225 0.950 . S
H2202 C2226 0.950 . S
H2203 C2227 0.951 . S
H2204 C2229 0.951 . S
H2205 C2231 0.950 . S
H2206 C2232 0.950 . S
H2207 C2234 0.950 . S
H2208 C2237 0.950 . S
H2209 C2238 0.950 . S
H2210 C2240 0.950 . S
H2211 C2241 0.950 . S
C2212 H2194 0.951 . S
C2212 C2213 1.366 . S
C2212 C2214 1.388 1_545 S
C2213 C2212 1.366 . S
C2213 C2217 1.385 1_545 S
C2214 H2195 0.951 . S
C2214 C2212 1.388 1_565 S
C2214 C2215 1.366 . S
C2215 C2214 1.366 . S
C2215 C2216 1.414 . S
C2215 C2218 1.499 . S
C2216 H2196 0.950 . S
C2216 C2215 1.414 . S
C2216 C2217 1.374 . S
C2217 H2197 0.950 . S
C2217 C2213 1.385 1_565 S
C2217 C2216 1.374 . S
C2218 C2215 1.499 . S
C2218 C2219 1.373 . S
C2218 C2220 1.389 . S
C2219 H2198 0.950 . S
C2219 C2218 1.373 . S
C2219 C2235 1.377 . S
C2220 C2218 1.389 . S
C2220 C2221 1.524 . S
C2220 C2234 1.377 . S
C2221 C2220 1.524 . S
C2221 C2222 1.397 . S
C2221 C2226 1.363 . S
C2222 H2199 0.950 . S
C2222 C2221 1.397 . S
C2222 C2223 1.334 . S
C2223 H2200 0.950 . S
C2223 C2222 1.334 . S
C2223 C2224 1.287 . S
C2224 C2223 1.287 . S
C2224 C2225 1.524 . S
C2224 H2243 0.913 . S
C2225 H2201 0.950 . S
C2225 C2224 1.524 . S
C2225 C2226 1.415 . S
C2226 H2202 0.950 . S
C2226 C2221 1.363 . S
C2226 C2225 1.415 . S
C2227 H2203 0.951 . S
C2227 C2228 1.366 . S
C2227 C2229 1.388 . S
C2228 C2227 1.366 . S
C2228 C2232 1.385 . S
C2229 H2204 0.951 . S
C2229 C2227 1.388 . S
C2229 C2230 1.366 . S
C2230 C2229 1.366 . S
C2230 C2231 1.414 . S
C2230 C2233 1.499 1_655 S
C2231 H2205 0.950 . S
C2231 C2230 1.414 . S
C2231 C2232 1.374 . S
C2232 H2206 0.950 . S
C2232 C2228 1.385 . S
C2232 C2231 1.374 . S
C2233 C2230 1.499 1_455 S
C2233 C2234 1.373 . S
C2233 C2235 1.389 . S
C2234 H2207 0.950 . S
C2234 C2220 1.377 . S
C2234 C2233 1.373 . S
C2235 C2219 1.377 . S
C2235 C2233 1.389 . S
C2235 C2236 1.524 . S
C2236 C2235 1.524 . S
C2236 C2237 1.397 1_455 S
C2236 C2241 1.363 . S
C2237 H2208 0.950 . S
C2237 C2236 1.397 1_655 S
C2237 C2238 1.334 . S
C2238 H2209 0.950 . S
C2238 C2237 1.334 . S
C2238 C2239 1.287 . S
C2239 C2238 1.287 . S
C2239 C2240 1.524 1_655 S
C2239 H2242 0.999 . S
C2240 H2210 0.950 . S
C2240 C2239 1.524 1_455 S
C2240 C2241 1.415 . S
C2241 H2211 0.950 . S
C2241 C2236 1.363 . S
C2241 C2240 1.415 . S
H2242 C2239 0.999 . S
H2243 C2224 0.913 . S
H2244 C2262 0.951 . S
H2245 C2264 0.951 . S
H2246 C2266 0.950 . S
H2247 C2267 0.950 . S
H2248 C2269 0.950 . S
H2249 C2272 0.950 . S
H2250 C2273 0.950 . S
H2251 C2275 0.950 . S
H2252 C2276 0.950 . S
H2253 C2277 0.951 . S
H2254 C2279 0.951 . S
H2255 C2281 0.950 . S
H2256 C2282 0.950 . S
H2257 C2284 0.950 . S
H2258 C2287 0.950 . S
H2259 C2288 0.950 . S
H2260 C2290 0.950 . S
H2261 C2291 0.950 . S
C2262 H2244 0.951 . S
C2262 C2263 1.366 . S
C2262 C2264 1.388 . S
C2263 C2262 1.366 . S
C2263 C2267 1.385 . S
C2264 H2245 0.951 . S
C2264 C2262 1.388 . S
C2264 C2265 1.366 . S
C2265 C2264 1.366 . S
C2265 C2266 1.414 . S
C2265 C2268 1.499 . S
C2266 H2246 0.950 . S
C2266 C2265 1.414 . S
C2266 C2267 1.374 . S
C2267 H2247 0.950 . S
C2267 C2263 1.385 . S
C2267 C2266 1.374 . S
C2268 C2265 1.499 . S
C2268 C2269 1.373 . S
C2268 C2270 1.389 . S
C2269 H2248 0.950 . S
C2269 C2268 1.373 . S
C2269 C2285 1.377 . S
C2270 C2268 1.389 . S
C2270 C2271 1.524 . S
C2270 C2284 1.377 . S
C2271 C2270 1.524 . S
C2271 C2272 1.397 . S
C2271 C2276 1.363 . S
C2272 H2249 0.950 . S
C2272 C2271 1.397 . S
C2272 C2273 1.334 . S
C2273 H2250 0.950 . S
C2273 C2272 1.334 . S
C2273 C2274 1.287 . S
C2274 C2273 1.287 . S
C2274 C2275 1.524 . S
C2274 H2293 0.913 . S
C2275 H2251 0.950 . S
C2275 C2274 1.524 . S
C2275 C2276 1.415 . S
C2276 H2252 0.950 . S
C2276 C2271 1.363 . S
C2276 C2275 1.415 . S
C2277 H2253 0.951 . S
C2277 C2278 1.366 . S
C2277 C2279 1.388 . S
C2278 C2277 1.366 . S
C2278 C2282 1.385 . S
C2279 H2254 0.951 . S
C2279 C2277 1.388 . S
C2279 C2280 1.366 . S
C2280 C2279 1.366 . S
C2280 C2281 1.414 . S
C2280 C2283 1.499 . S
C2281 H2255 0.950 . S
C2281 C2280 1.414 . S
C2281 C2282 1.374 . S
C2282 H2256 0.950 . S
C2282 C2278 1.385 . S
C2282 C2281 1.374 . S
C2283 C2280 1.499 . S
C2283 C2284 1.373 . S
C2283 C2285 1.389 . S
C2284 H2257 0.950 . S
C2284 C2270 1.377 . S
C2284 C2283 1.373 . S
C2285 C2269 1.377 . S
C2285 C2283 1.389 . S
C2285 C2286 1.524 . S
C2286 C2285 1.524 . S
C2286 C2287 1.397 . S
C2286 C2291 1.363 . S
C2287 H2258 0.950 . S
C2287 C2286 1.397 . S
C2287 C2288 1.334 . S
C2288 H2259 0.950 . S
C2288 C2287 1.334 . S
C2288 C2289 1.287 . S
C2289 C2288 1.287 . S
C2289 C2290 1.524 . S
C2289 H2292 0.999 . S
C2290 H2260 0.950 . S
C2290 C2289 1.524 . S
C2290 C2291 1.415 . S
C2291 H2261 0.950 . S
C2291 C2286 1.363 . S
C2291 C2290 1.415 . S
H2292 C2289 0.999 . S
H2293 C2274 0.913 . S
H2294 C2312 0.951 . S
H2295 C2314 0.951 . S
H2296 C2316 0.950 . S
H2297 C2317 0.950 . S
H2298 C2319 0.950 . S
H2299 C2322 0.950 . S
H2300 C2323 0.950 . S
H2301 C2325 0.950 . S
H2302 C2326 0.950 . S
H2303 C2327 0.951 . S
H2304 C2329 0.951 . S
H2305 C2331 0.950 . S
H2306 C2332 0.950 . S
H2307 C2334 0.950 . S
H2308 C2337 0.950 . S
H2309 C2338 0.950 . S
H2310 C2340 0.950 . S
H2311 C2341 0.950 . S
C2312 H2294 0.951 . S
C2312 C2313 1.366 . S
C2312 C2314 1.388 . S
C2313 C2312 1.366 . S
C2313 C2317 1.385 . S
C2314 H2295 0.951 . S
C2314 C2312 1.388 . S
C2314 C2315 1.366 . S
C2315 C2314 1.366 . S
C2315 C2316 1.414 . S
C2315 C2318 1.499 . S
C2316 H2296 0.950 . S
C2316 C2315 1.414 . S
C2316 C2317 1.374 . S
C2317 H2297 0.950 . S
C2317 C2313 1.385 . S
C2317 C2316 1.374 . S
C2318 C2315 1.499 . S
C2318 C2319 1.373 . S
C2318 C2320 1.389 . S
C2319 H2298 0.950 . S
C2319 C2318 1.373 . S
C2319 C2335 1.377 . S
C2320 C2318 1.389 . S
C2320 C2321 1.524 . S
C2320 C2334 1.377 . S
C2321 C2320 1.524 . S
C2321 C2322 1.397 . S
C2321 C2326 1.363 . S
C2322 H2299 0.950 . S
C2322 C2321 1.397 . S
C2322 C2323 1.334 . S
C2323 H2300 0.950 . S
C2323 C2322 1.334 . S
C2323 C2324 1.287 . S
C2324 C2323 1.287 . S
C2324 C2325 1.524 . S
C2324 H2343 0.913 . S
C2325 H2301 0.950 . S
C2325 C2324 1.524 . S
C2325 C2326 1.415 . S
C2326 H2302 0.950 . S
C2326 C2321 1.363 . S
C2326 C2325 1.415 . S
C2327 H2303 0.951 . S
C2327 C2328 1.366 . S
C2327 C2329 1.388 . S
C2328 C2327 1.366 . S
C2328 C2332 1.385 . S
C2329 H2304 0.951 . S
C2329 C2327 1.388 . S
C2329 C2330 1.366 . S
C2330 C2329 1.366 . S
C2330 C2331 1.414 . S
C2330 C2333 1.499 . S
C2331 H2305 0.950 . S
C2331 C2330 1.414 . S
C2331 C2332 1.374 . S
C2332 H2306 0.950 . S
C2332 C2328 1.385 . S
C2332 C2331 1.374 . S
C2333 C2330 1.499 . S
C2333 C2334 1.373 . S
C2333 C2335 1.389 . S
C2334 H2307 0.950 . S
C2334 C2320 1.377 . S
C2334 C2333 1.373 . S
C2335 C2319 1.377 . S
C2335 C2333 1.389 . S
C2335 C2336 1.524 . S
C2336 C2335 1.524 . S
C2336 C2337 1.397 . S
C2336 C2341 1.363 . S
C2337 H2308 0.950 . S
C2337 C2336 1.397 . S
C2337 C2338 1.334 . S
C2338 H2309 0.950 . S
C2338 C2337 1.334 . S
C2338 C2339 1.287 . S
C2339 C2338 1.287 . S
C2339 C2340 1.524 . S
C2339 H2342 0.999 . S
C2340 H2310 0.950 . S
C2340 C2339 1.524 . S
C2340 C2341 1.415 . S
C2341 H2311 0.950 . S
C2341 C2336 1.363 . S
C2341 C2340 1.415 . S
H2342 C2339 0.999 . S
H2343 C2324 0.913 . S
H2344 C2362 0.951 . S
H2345 C2364 0.951 . S
H2346 C2366 0.950 . S
H2347 C2367 0.950 . S
H2348 C2369 0.950 . S
H2349 C2372 0.950 . S
H2350 C2373 0.950 . S
H2351 C2375 0.950 . S
H2352 C2376 0.950 . S
H2353 C2377 0.951 . S
H2354 C2379 0.951 . S
H2355 C2381 0.950 . S
H2356 C2382 0.950 . S
H2357 C2384 0.950 . S
H2358 C2387 0.950 . S
H2359 C2388 0.950 . S
H2360 C2390 0.950 . S
H2361 C2391 0.950 . S
C2362 H2344 0.951 . S
C2362 C2363 1.366 . S
C2362 C2364 1.388 . S
C2363 C2362 1.366 . S
C2363 C2367 1.385 . S
C2364 H2345 0.951 . S
C2364 C2362 1.388 . S
C2364 C2365 1.366 . S
C2365 C2364 1.366 . S
C2365 C2366 1.414 . S
C2365 C2368 1.499 . S
C2366 H2346 0.950 . S
C2366 C2365 1.414 . S
C2366 C2367 1.374 . S
C2367 H2347 0.950 . S
C2367 C2363 1.385 . S
C2367 C2366 1.374 . S
C2368 C2365 1.499 . S
C2368 C2369 1.373 . S
C2368 C2370 1.389 . S
C2369 H2348 0.950 . S
C2369 C2368 1.373 . S
C2369 C2385 1.377 . S
C2370 C2368 1.389 . S
C2370 C2371 1.524 . S
C2370 C2384 1.377 . S
C2371 C2370 1.524 . S
C2371 C2372 1.397 . S
C2371 C2376 1.363 . S
C2372 H2349 0.950 . S
C2372 C2371 1.397 . S
C2372 C2373 1.334 . S
C2373 H2350 0.950 . S
C2373 C2372 1.334 . S
C2373 C2374 1.287 . S
C2374 C2373 1.287 . S
C2374 C2375 1.524 . S
C2374 H2393 0.913 . S
C2375 H2351 0.950 . S
C2375 C2374 1.524 . S
C2375 C2376 1.415 . S
C2376 H2352 0.950 . S
C2376 C2371 1.363 . S
C2376 C2375 1.415 . S
C2377 H2353 0.951 . S
C2377 C2378 1.366 . S
C2377 C2379 1.388 . S
C2378 C2377 1.366 . S
C2378 C2382 1.385 . S
C2379 H2354 0.951 . S
C2379 C2377 1.388 . S
C2379 C2380 1.366 . S
C2380 C2379 1.366 . S
C2380 C2381 1.414 . S
C2380 C2383 1.499 . S
C2381 H2355 0.950 . S
C2381 C2380 1.414 . S
C2381 C2382 1.374 . S
C2382 H2356 0.950 . S
C2382 C2378 1.385 . S
C2382 C2381 1.374 . S
C2383 C2380 1.499 . S
C2383 C2384 1.373 . S
C2383 C2385 1.389 . S
C2384 H2357 0.950 . S
C2384 C2370 1.377 . S
C2384 C2383 1.373 . S
C2385 C2369 1.377 . S
C2385 C2383 1.389 . S
C2385 C2386 1.524 . S
C2386 C2385 1.524 . S
C2386 C2387 1.397 . S
C2386 C2391 1.363 . S
C2387 H2358 0.950 . S
C2387 C2386 1.397 . S
C2387 C2388 1.334 . S
C2388 H2359 0.950 . S
C2388 C2387 1.334 . S
C2388 C2389 1.287 . S
C2389 C2388 1.287 . S
C2389 C2390 1.524 . S
C2389 H2392 0.999 . S
C2390 H2360 0.950 . S
C2390 C2389 1.524 . S
C2390 C2391 1.415 . S
C2391 H2361 0.950 . S
C2391 C2386 1.363 . S
C2391 C2390 1.415 . S
H2392 C2389 0.999 . S
H2393 C2374 0.913 . S
H2394 C2412 0.951 . S
H2395 C2414 0.951 . S
H2396 C2416 0.950 . S
H2397 C2417 0.950 . S
H2398 C2419 0.950 . S
H2399 C2422 0.950 . S
H2400 C2423 0.950 . S
H2401 C2425 0.950 . S
H2402 C2426 0.950 . S
H2403 C2427 0.951 . S
H2404 C2429 0.951 . S
H2405 C2431 0.950 . S
H2406 C2432 0.950 . S
H2407 C2434 0.950 . S
H2408 C2437 0.950 . S
H2409 C2438 0.950 . S
H2410 C2440 0.950 . S
H2411 C2441 0.950 . S
C2412 H2394 0.951 . S
C2412 C2413 1.366 . S
C2412 C2414 1.388 . S
C2413 C2412 1.366 . S
C2413 C2417 1.385 . S
C2414 H2395 0.951 . S
C2414 C2412 1.388 . S
C2414 C2415 1.366 . S
C2415 C2414 1.366 . S
C2415 C2416 1.414 . S
C2415 C2418 1.499 . S
C2416 H2396 0.950 . S
C2416 C2415 1.414 . S
C2416 C2417 1.374 . S
C2417 H2397 0.950 . S
C2417 C2413 1.385 . S
C2417 C2416 1.374 . S
C2418 C2415 1.499 . S
C2418 C2419 1.373 . S
C2418 C2420 1.389 . S
C2419 H2398 0.950 . S
C2419 C2418 1.373 . S
C2419 C2435 1.377 . S
C2420 C2418 1.389 . S
C2420 C2421 1.524 . S
C2420 C2434 1.377 . S
C2421 C2420 1.524 . S
C2421 C2422 1.397 . S
C2421 C2426 1.363 . S
C2422 H2399 0.950 . S
C2422 C2421 1.397 . S
C2422 C2423 1.334 . S
C2423 H2400 0.950 . S
C2423 C2422 1.334 . S
C2423 C2424 1.287 . S
C2424 C2423 1.287 . S
C2424 C2425 1.524 . S
C2424 H2443 0.913 . S
C2425 H2401 0.950 . S
C2425 C2424 1.524 . S
C2425 C2426 1.415 . S
C2426 H2402 0.950 . S
C2426 C2421 1.363 . S
C2426 C2425 1.415 . S
C2427 H2403 0.951 . S
C2427 C2428 1.366 . S
C2427 C2429 1.388 . S
C2428 C2427 1.366 . S
C2428 C2432 1.385 . S
C2429 H2404 0.951 . S
C2429 C2427 1.388 . S
C2429 C2430 1.366 . S
C2430 C2429 1.366 . S
C2430 C2431 1.414 . S
C2430 C2433 1.499 . S
C2431 H2405 0.950 . S
C2431 C2430 1.414 . S
C2431 C2432 1.374 . S
C2432 H2406 0.950 . S
C2432 C2428 1.385 . S
C2432 C2431 1.374 . S
C2433 C2430 1.499 . S
C2433 C2434 1.373 . S
C2433 C2435 1.389 . S
C2434 H2407 0.950 . S
C2434 C2420 1.377 . S
C2434 C2433 1.373 . S
C2435 C2419 1.377 . S
C2435 C2433 1.389 . S
C2435 C2436 1.524 . S
C2436 C2435 1.524 . S
C2436 C2437 1.397 . S
C2436 C2441 1.363 . S
C2437 H2408 0.950 . S
C2437 C2436 1.397 . S
C2437 C2438 1.334 . S
C2438 H2409 0.950 . S
C2438 C2437 1.334 . S
C2438 C2439 1.287 . S
C2439 C2438 1.287 . S
C2439 C2440 1.524 . S
C2439 H2442 0.999 . S
C2440 H2410 0.950 . S
C2440 C2439 1.524 . S
C2440 C2441 1.415 . S
C2441 H2411 0.950 . S
C2441 C2436 1.363 . S
C2441 C2440 1.415 . S
H2442 C2439 0.999 . S
H2443 C2424 0.913 . S
H2444 C2462 0.951 . S
H2445 C2464 0.951 . S
H2446 C2466 0.950 . S
H2447 C2467 0.950 . S
H2448 C2469 0.950 . S
H2449 C2472 0.950 . S
H2450 C2473 0.950 . S
H2451 C2475 0.950 . S
H2452 C2476 0.950 . S
H2453 C2477 0.951 . S
H2454 C2479 0.951 . S
H2455 C2481 0.950 . S
H2456 C2482 0.950 . S
H2457 C2484 0.950 . S
H2458 C2487 0.950 . S
H2459 C2488 0.950 . S
H2460 C2490 0.950 . S
H2461 C2491 0.950 . S
C2462 H2444 0.951 . S
C2462 C2463 1.366 . S
C2462 C2464 1.388 . S
C2463 C2462 1.366 . S
C2463 C2467 1.385 . S
C2464 H2445 0.951 . S
C2464 C2462 1.388 . S
C2464 C2465 1.366 . S
C2465 C2464 1.366 . S
C2465 C2466 1.414 . S
C2465 C2468 1.499 . S
C2466 H2446 0.950 . S
C2466 C2465 1.414 . S
C2466 C2467 1.374 . S
C2467 H2447 0.950 . S
C2467 C2463 1.385 . S
C2467 C2466 1.374 . S
C2468 C2465 1.499 . S
C2468 C2469 1.373 . S
C2468 C2470 1.389 . S
C2469 H2448 0.950 . S
C2469 C2468 1.373 . S
C2469 C2485 1.377 . S
C2470 C2468 1.389 . S
C2470 C2471 1.524 . S
C2470 C2484 1.377 . S
C2471 C2470 1.524 . S
C2471 C2472 1.397 . S
C2471 C2476 1.363 . S
C2472 H2449 0.950 . S
C2472 C2471 1.397 . S
C2472 C2473 1.334 . S
C2473 H2450 0.950 . S
C2473 C2472 1.334 . S
C2473 C2474 1.287 . S
C2474 C2473 1.287 . S
C2474 C2475 1.524 . S
C2474 H2493 0.913 . S
C2475 H2451 0.950 . S
C2475 C2474 1.524 . S
C2475 C2476 1.415 . S
C2476 H2452 0.950 . S
C2476 C2471 1.363 . S
C2476 C2475 1.415 . S
C2477 H2453 0.951 . S
C2477 C2478 1.366 . S
C2477 C2479 1.388 . S
C2478 C2477 1.366 . S
C2478 C2482 1.385 . S
C2479 H2454 0.951 . S
C2479 C2477 1.388 . S
C2479 C2480 1.366 . S
C2480 C2479 1.366 . S
C2480 C2481 1.414 . S
C2480 C2483 1.499 . S
C2481 H2455 0.950 . S
C2481 C2480 1.414 . S
C2481 C2482 1.374 . S
C2482 H2456 0.950 . S
C2482 C2478 1.385 . S
C2482 C2481 1.374 . S
C2483 C2480 1.499 . S
C2483 C2484 1.373 . S
C2483 C2485 1.389 . S
C2484 H2457 0.950 . S
C2484 C2470 1.377 . S
C2484 C2483 1.373 . S
C2485 C2469 1.377 . S
C2485 C2483 1.389 . S
C2485 C2486 1.524 . S
C2486 C2485 1.524 . S
C2486 C2487 1.397 . S
C2486 C2491 1.363 . S
C2487 H2458 0.950 . S
C2487 C2486 1.397 . S
C2487 C2488 1.334 . S
C2488 H2459 0.950 . S
C2488 C2487 1.334 . S
C2488 C2489 1.287 . S
C2489 C2488 1.287 . S
C2489 C2490 1.524 . S
C2489 H2492 0.999 . S
C2490 H2460 0.950 . S
C2490 C2489 1.524 . S
C2490 C2491 1.415 . S
C2491 H2461 0.950 . S
C2491 C2486 1.363 . S
C2491 C2490 1.415 . S
H2492 C2489 0.999 . S
H2493 C2474 0.913 . S
H2494 C2512 0.951 . S
H2495 C2514 0.951 . S
H2496 C2516 0.950 . S
H2497 C2517 0.950 . S
H2498 C2519 0.950 . S
H2499 C2522 0.950 . S
H2500 C2523 0.950 . S
H2501 C2525 0.950 . S
H2502 C2526 0.950 . S
H2503 C2527 0.951 . S
H2504 C2529 0.951 . S
H2505 C2531 0.950 . S
H2506 C2532 0.950 . S
H2507 C2534 0.950 . S
H2508 C2537 0.950 . S
H2509 C2538 0.950 . S
H2510 C2540 0.950 . S
H2511 C2541 0.950 . S
C2512 H2494 0.951 . S
C2512 C2513 1.366 . S
C2512 C2514 1.388 . S
C2513 C2512 1.366 . S
C2513 C2517 1.385 . S
C2514 H2495 0.951 . S
C2514 C2512 1.388 . S
C2514 C2515 1.366 . S
C2515 C2514 1.366 . S
C2515 C2516 1.414 . S
C2515 C2518 1.499 . S
C2516 H2496 0.950 . S
C2516 C2515 1.414 . S
C2516 C2517 1.374 . S
C2517 H2497 0.950 . S
C2517 C2513 1.385 . S
C2517 C2516 1.374 . S
C2518 C2515 1.499 . S
C2518 C2519 1.373 . S
C2518 C2520 1.389 . S
C2519 H2498 0.950 . S
C2519 C2518 1.373 . S
C2519 C2535 1.377 . S
C2520 C2518 1.389 . S
C2520 C2521 1.524 . S
C2520 C2534 1.377 . S
C2521 C2520 1.524 . S
C2521 C2522 1.397 . S
C2521 C2526 1.363 . S
C2522 H2499 0.950 . S
C2522 C2521 1.397 . S
C2522 C2523 1.334 . S
C2523 H2500 0.950 . S
C2523 C2522 1.334 . S
C2523 C2524 1.287 . S
C2524 C2523 1.287 . S
C2524 C2525 1.524 . S
C2524 H2543 0.913 . S
C2525 H2501 0.950 . S
C2525 C2524 1.524 . S
C2525 C2526 1.415 . S
C2526 H2502 0.950 . S
C2526 C2521 1.363 . S
C2526 C2525 1.415 . S
C2527 H2503 0.951 . S
C2527 C2528 1.366 . S
C2527 C2529 1.388 . S
C2528 C2527 1.366 . S
C2528 C2532 1.385 . S
C2529 H2504 0.951 . S
C2529 C2527 1.388 . S
C2529 C2530 1.366 . S
C2530 C2529 1.366 . S
C2530 C2531 1.414 . S
C2530 C2533 1.499 . S
C2531 H2505 0.950 . S
C2531 C2530 1.414 . S
C2531 C2532 1.374 . S
C2532 H2506 0.950 . S
C2532 C2528 1.385 . S
C2532 C2531 1.374 . S
C2533 C2530 1.499 . S
C2533 C2534 1.373 . S
C2533 C2535 1.389 . S
C2534 H2507 0.950 . S
C2534 C2520 1.377 . S
C2534 C2533 1.373 . S
C2535 C2519 1.377 . S
C2535 C2533 1.389 . S
C2535 C2536 1.524 . S
C2536 C2535 1.524 . S
C2536 C2537 1.397 . S
C2536 C2541 1.363 . S
C2537 H2508 0.950 . S
C2537 C2536 1.397 . S
C2537 C2538 1.334 . S
C2538 H2509 0.950 . S
C2538 C2537 1.334 . S
C2538 C2539 1.287 . S
C2539 C2538 1.287 . S
C2539 C2540 1.524 . S
C2539 H2542 0.999 . S
C2540 H2510 0.950 . S
C2540 C2539 1.524 . S
C2540 C2541 1.415 . S
C2541 H2511 0.950 . S
C2541 C2536 1.363 . S
C2541 C2540 1.415 . S
H2542 C2539 0.999 . S
H2543 C2524 0.913 . S
H2544 C2562 0.951 . S
H2545 C2564 0.951 . S
H2546 C2566 0.950 . S
H2547 C2567 0.950 . S
H2548 C2569 0.950 . S
H2549 C2572 0.950 . S
H2550 C2573 0.950 . S
H2551 C2575 0.950 . S
H2552 C2576 0.950 . S
H2553 C2577 0.951 . S
H2554 C2579 0.951 . S
H2555 C2581 0.950 . S
H2556 C2582 0.950 . S
H2557 C2584 0.950 . S
H2558 C2587 0.950 . S
H2559 C2588 0.950 . S
H2560 C2590 0.950 . S
H2561 C2591 0.950 . S
C2562 H2544 0.951 . S
C2562 C2563 1.366 . S
C2562 C2564 1.388 . S
C2563 C2562 1.366 . S
C2563 C2567 1.385 . S
C2564 H2545 0.951 . S
C2564 C2562 1.388 . S
C2564 C2565 1.366 . S
C2565 C2564 1.366 . S
C2565 C2566 1.414 . S
C2565 C2568 1.499 . S
C2566 H2546 0.950 . S
C2566 C2565 1.414 . S
C2566 C2567 1.374 . S
C2567 H2547 0.950 . S
C2567 C2563 1.385 . S
C2567 C2566 1.374 . S
C2568 C2565 1.499 . S
C2568 C2569 1.373 . S
C2568 C2570 1.389 . S
C2569 H2548 0.950 . S
C2569 C2568 1.373 . S
C2569 C2585 1.377 . S
C2570 C2568 1.389 . S
C2570 C2571 1.524 . S
C2570 C2584 1.377 . S
C2571 C2570 1.524 . S
C2571 C2572 1.397 . S
C2571 C2576 1.363 . S
C2572 H2549 0.950 . S
C2572 C2571 1.397 . S
C2572 C2573 1.334 . S
C2573 H2550 0.950 . S
C2573 C2572 1.334 . S
C2573 C2574 1.287 . S
C2574 C2573 1.287 . S
C2574 C2575 1.524 . S
C2574 H2593 0.913 . S
C2575 H2551 0.950 . S
C2575 C2574 1.524 . S
C2575 C2576 1.415 . S
C2576 H2552 0.950 . S
C2576 C2571 1.363 . S
C2576 C2575 1.415 . S
C2577 H2553 0.951 . S
C2577 C2578 1.366 . S
C2577 C2579 1.388 . S
C2578 C2577 1.366 . S
C2578 C2582 1.385 . S
C2579 H2554 0.951 . S
C2579 C2577 1.388 . S
C2579 C2580 1.366 . S
C2580 C2579 1.366 . S
C2580 C2581 1.414 . S
C2580 C2583 1.499 . S
C2581 H2555 0.950 . S
C2581 C2580 1.414 . S
C2581 C2582 1.374 . S
C2582 H2556 0.950 . S
C2582 C2578 1.385 . S
C2582 C2581 1.374 . S
C2583 C2580 1.499 . S
C2583 C2584 1.373 . S
C2583 C2585 1.389 . S
C2584 H2557 0.950 . S
C2584 C2570 1.377 . S
C2584 C2583 1.373 . S
C2585 C2569 1.377 . S
C2585 C2583 1.389 . S
C2585 C2586 1.524 . S
C2586 C2585 1.524 . S
C2586 C2587 1.397 . S
C2586 C2591 1.363 . S
C2587 H2558 0.950 . S
C2587 C2586 1.397 . S
C2587 C2588 1.334 . S
C2588 H2559 0.950 . S
C2588 C2587 1.334 . S
C2588 C2589 1.287 . S
C2589 C2588 1.287 . S
C2589 C2590 1.524 . S
C2589 H2592 0.999 . S
C2590 H2560 0.950 . S
C2590 C2589 1.524 . S
C2590 C2591 1.415 . S
C2591 H2561 0.950 . S
C2591 C2586 1.363 . S
C2591 C2590 1.415 . S
H2592 C2589 0.999 . S
H2593 C2574 0.913 . S
H2594 C2612 0.951 . S
H2595 C2614 0.951 . S
H2596 C2616 0.950 . S
H2597 C2617 0.950 . S
H2598 C2619 0.950 . S
H2599 C2622 0.950 . S
H2600 C2623 0.950 . S
H2601 C2625 0.950 . S
H2602 C2626 0.950 . S
H2603 C2627 0.951 . S
H2604 C2629 0.951 . S
H2605 C2631 0.950 . S
H2606 C2632 0.950 . S
H2607 C2634 0.950 . S
H2608 C2637 0.950 . S
H2609 C2638 0.950 . S
H2610 C2640 0.950 . S
H2611 C2641 0.950 . S
C2612 H2594 0.951 . S
C2612 C2613 1.366 . S
C2612 C2614 1.388 . S
C2613 C2612 1.366 . S
C2613 C2617 1.385 . S
C2614 H2595 0.951 . S
C2614 C2612 1.388 . S
C2614 C2615 1.366 . S
C2615 C2614 1.366 . S
C2615 C2616 1.414 . S
C2615 C2618 1.499 . S
C2616 H2596 0.950 . S
C2616 C2615 1.414 . S
C2616 C2617 1.374 . S
C2617 H2597 0.950 . S
C2617 C2613 1.385 . S
C2617 C2616 1.374 . S
C2618 C2615 1.499 . S
C2618 C2619 1.373 . S
C2618 C2620 1.389 . S
C2619 H2598 0.950 . S
C2619 C2618 1.373 . S
C2619 C2635 1.377 . S
C2620 C2618 1.389 . S
C2620 C2621 1.524 . S
C2620 C2634 1.377 . S
C2621 C2620 1.524 . S
C2621 C2622 1.397 . S
C2621 C2626 1.363 . S
C2622 H2599 0.950 . S
C2622 C2621 1.397 . S
C2622 C2623 1.334 . S
C2623 H2600 0.950 . S
C2623 C2622 1.334 . S
C2623 C2624 1.287 . S
C2624 C2623 1.287 . S
C2624 C2625 1.524 . S
C2624 H2643 0.913 . S
C2625 H2601 0.950 . S
C2625 C2624 1.524 . S
C2625 C2626 1.415 . S
C2626 H2602 0.950 . S
C2626 C2621 1.363 . S
C2626 C2625 1.415 . S
C2627 H2603 0.951 . S
C2627 C2628 1.366 . S
C2627 C2629 1.388 . S
C2628 C2627 1.366 . S
C2628 C2632 1.385 . S
C2629 H2604 0.951 . S
C2629 C2627 1.388 . S
C2629 C2630 1.366 . S
C2630 C2629 1.366 . S
C2630 C2631 1.414 . S
C2630 C2633 1.499 . S
C2631 H2605 0.950 . S
C2631 C2630 1.414 . S
C2631 C2632 1.374 . S
C2632 H2606 0.950 . S
C2632 C2628 1.385 . S
C2632 C2631 1.374 . S
C2633 C2630 1.499 . S
C2633 C2634 1.373 . S
C2633 C2635 1.389 . S
C2634 H2607 0.950 . S
C2634 C2620 1.377 . S
C2634 C2633 1.373 . S
C2635 C2619 1.377 . S
C2635 C2633 1.389 . S
C2635 C2636 1.524 . S
C2636 C2635 1.524 . S
C2636 C2637 1.397 . S
C2636 C2641 1.363 . S
C2637 H2608 0.950 . S
C2637 C2636 1.397 . S
C2637 C2638 1.334 . S
C2638 H2609 0.950 . S
C2638 C2637 1.334 . S
C2638 C2639 1.287 . S
C2639 C2638 1.287 . S
C2639 C2640 1.524 . S
C2639 H2642 0.999 . S
C2640 H2610 0.950 . S
C2640 C2639 1.524 . S
C2640 C2641 1.415 . S
C2641 H2611 0.950 . S
C2641 C2636 1.363 . S
C2641 C2640 1.415 . S
H2642 C2639 0.999 . S
H2643 C2624 0.913 . S
H2644 C2662 0.951 . S
H2645 C2664 0.951 . S
H2646 C2666 0.950 . S
H2647 C2667 0.950 . S
H2648 C2669 0.950 . S
H2649 C2672 0.950 . S
H2650 C2673 0.950 . S
H2651 C2675 0.950 . S
H2652 C2676 0.950 . S
H2653 C2677 0.951 . S
H2654 C2679 0.951 . S
H2655 C2681 0.950 . S
H2656 C2682 0.950 . S
H2657 C2684 0.950 . S
H2658 C2687 0.950 . S
H2659 C2688 0.950 . S
H2660 C2690 0.950 . S
H2661 C2691 0.950 . S
C2662 H2644 0.951 . S
C2662 C2663 1.366 . S
C2662 C2664 1.388 . S
C2663 C2662 1.366 . S
C2663 C2667 1.385 . S
C2664 H2645 0.951 . S
C2664 C2662 1.388 . S
C2664 C2665 1.366 . S
C2665 C2664 1.366 . S
C2665 C2666 1.414 . S
C2665 C2668 1.499 . S
C2666 H2646 0.950 . S
C2666 C2665 1.414 . S
C2666 C2667 1.374 . S
C2667 H2647 0.950 . S
C2667 C2663 1.385 . S
C2667 C2666 1.374 . S
C2668 C2665 1.499 . S
C2668 C2669 1.373 . S
C2668 C2670 1.389 . S
C2669 H2648 0.950 . S
C2669 C2668 1.373 . S
C2669 C2685 1.377 . S
C2670 C2668 1.389 . S
C2670 C2671 1.524 . S
C2670 C2684 1.377 . S
C2671 C2670 1.524 . S
C2671 C2672 1.397 . S
C2671 C2676 1.363 . S
C2672 H2649 0.950 . S
C2672 C2671 1.397 . S
C2672 C2673 1.334 . S
C2673 H2650 0.950 . S
C2673 C2672 1.334 . S
C2673 C2674 1.287 . S
C2674 C2673 1.287 . S
C2674 C2675 1.524 . S
C2674 H2693 0.913 . S
C2675 H2651 0.950 . S
C2675 C2674 1.524 . S
C2675 C2676 1.415 . S
C2676 H2652 0.950 . S
C2676 C2671 1.363 . S
C2676 C2675 1.415 . S
C2677 H2653 0.951 . S
C2677 C2678 1.366 . S
C2677 C2679 1.388 . S
C2678 C2677 1.366 . S
C2678 C2682 1.385 . S
C2679 H2654 0.951 . S
C2679 C2677 1.388 . S
C2679 C2680 1.366 . S
C2680 C2679 1.366 . S
C2680 C2681 1.414 . S
C2680 C2683 1.499 . S
C2681 H2655 0.950 . S
C2681 C2680 1.414 . S
C2681 C2682 1.374 . S
C2682 H2656 0.950 . S
C2682 C2678 1.385 . S
C2682 C2681 1.374 . S
C2683 C2680 1.499 . S
C2683 C2684 1.373 . S
C2683 C2685 1.389 . S
C2684 H2657 0.950 . S
C2684 C2670 1.377 . S
C2684 C2683 1.373 . S
C2685 C2669 1.377 . S
C2685 C2683 1.389 . S
C2685 C2686 1.524 . S
C2686 C2685 1.524 . S
C2686 C2687 1.397 . S
C2686 C2691 1.363 . S
C2687 H2658 0.950 . S
C2687 C2686 1.397 . S
C2687 C2688 1.334 . S
C2688 H2659 0.950 . S
C2688 C2687 1.334 . S
C2688 C2689 1.287 . S
C2689 C2688 1.287 . S
C2689 C2690 1.524 . S
C2689 H2692 0.999 . S
C2690 H2660 0.950 . S
C2690 C2689 1.524 . S
C2690 C2691 1.415 . S
C2691 H2661 0.950 . S
C2691 C2686 1.363 . S
C2691 C2690 1.415 . S
H2692 C2689 0.999 . S
H2693 C2674 0.913 . S
H2694 C2712 0.951 . S
H2695 C2714 0.951 . S
H2696 C2716 0.950 . S
H2697 C2717 0.950 . S
H2698 C2719 0.950 . S
H2699 C2722 0.950 . S
H2700 C2723 0.950 . S
H2701 C2725 0.950 . S
H2702 C2726 0.950 . S
H2703 C2727 0.951 . S
H2704 C2729 0.951 . S
H2705 C2731 0.950 . S
H2706 C2732 0.950 . S
H2707 C2734 0.950 . S
H2708 C2737 0.950 . S
H2709 C2738 0.950 . S
H2710 C2740 0.950 . S
H2711 C2741 0.950 . S
C2712 H2694 0.951 . S
C2712 C2713 1.366 . S
C2712 C2714 1.388 . S
C2713 C2712 1.366 . S
C2713 C2717 1.385 . S
C2714 H2695 0.951 . S
C2714 C2712 1.388 . S
C2714 C2715 1.366 . S
C2715 C2714 1.366 . S
C2715 C2716 1.414 . S
C2715 C2718 1.499 . S
C2716 H2696 0.950 . S
C2716 C2715 1.414 . S
C2716 C2717 1.374 . S
C2717 H2697 0.950 . S
C2717 C2713 1.385 . S
C2717 C2716 1.374 . S
C2718 C2715 1.499 . S
C2718 C2719 1.373 . S
C2718 C2720 1.389 . S
C2719 H2698 0.950 . S
C2719 C2718 1.373 . S
C2719 C2735 1.377 . S
C2720 C2718 1.389 . S
C2720 C2721 1.524 . S
C2720 C2734 1.377 . S
C2721 C2720 1.524 . S
C2721 C2722 1.397 . S
C2721 C2726 1.363 . S
C2722 H2699 0.950 . S
C2722 C2721 1.397 . S
C2722 C2723 1.334 . S
C2723 H2700 0.950 . S
C2723 C2722 1.334 . S
C2723 C2724 1.287 . S
C2724 C2723 1.287 . S
C2724 C2725 1.524 . S
C2724 H2743 0.913 . S
C2725 H2701 0.950 . S
C2725 C2724 1.524 . S
C2725 C2726 1.415 . S
C2726 H2702 0.950 . S
C2726 C2721 1.363 . S
C2726 C2725 1.415 . S
C2727 H2703 0.951 . S
C2727 C2728 1.366 . S
C2727 C2729 1.388 . S
C2728 C2727 1.366 . S
C2728 C2732 1.385 . S
C2729 H2704 0.951 . S
C2729 C2727 1.388 . S
C2729 C2730 1.366 . S
C2730 C2729 1.366 . S
C2730 C2731 1.414 . S
C2730 C2733 1.499 . S
C2731 H2705 0.950 . S
C2731 C2730 1.414 . S
C2731 C2732 1.374 . S
C2732 H2706 0.950 . S
C2732 C2728 1.385 . S
C2732 C2731 1.374 . S
C2733 C2730 1.499 . S
C2733 C2734 1.373 . S
C2733 C2735 1.389 . S
C2734 H2707 0.950 . S
C2734 C2720 1.377 . S
C2734 C2733 1.373 . S
C2735 C2719 1.377 . S
C2735 C2733 1.389 . S
C2735 C2736 1.524 . S
C2736 C2735 1.524 . S
C2736 C2737 1.397 . S
C2736 C2741 1.363 . S
C2737 H2708 0.950 . S
C2737 C2736 1.397 . S
C2737 C2738 1.334 . S
C2738 H2709 0.950 . S
C2738 C2737 1.334 . S
C2738 C2739 1.287 . S
C2739 C2738 1.287 . S
C2739 C2740 1.524 . S
C2739 H2742 0.999 . S
C2740 H2710 0.950 . S
C2740 C2739 1.524 . S
C2740 C2741 1.415 . S
C2741 H2711 0.950 . S
C2741 C2736 1.363 . S
C2741 C2740 1.415 . S
H2742 C2739 0.999 . S
H2743 C2724 0.913 . S
H2744 C2762 0.951 . S
H2745 C2764 0.951 . S
H2746 C2766 0.950 . S
H2747 C2767 0.950 . S
H2748 C2769 0.950 . S
H2749 C2772 0.950 . S
H2750 C2773 0.950 . S
H2751 C2775 0.950 . S
H2752 C2776 0.950 . S
H2753 C2777 0.951 . S
H2754 C2779 0.951 . S
H2755 C2781 0.950 . S
H2756 C2782 0.950 . S
H2757 C2784 0.950 . S
H2758 C2787 0.950 . S
H2759 C2788 0.950 . S
H2760 C2790 0.950 . S
H2761 C2791 0.950 . S
C2762 H2744 0.951 . S
C2762 C2763 1.366 . S
C2762 C2764 1.388 . S
C2763 C2762 1.366 . S
C2763 C2767 1.385 . S
C2764 H2745 0.951 . S
C2764 C2762 1.388 . S
C2764 C2765 1.366 . S
C2765 C2764 1.366 . S
C2765 C2766 1.414 . S
C2765 C2768 1.499 . S
C2766 H2746 0.950 . S
C2766 C2765 1.414 . S
C2766 C2767 1.374 . S
C2767 H2747 0.950 . S
C2767 C2763 1.385 . S
C2767 C2766 1.374 . S
C2768 C2765 1.499 . S
C2768 C2769 1.373 . S
C2768 C2770 1.389 . S
C2769 H2748 0.950 . S
C2769 C2768 1.373 . S
C2769 C2785 1.377 . S
C2770 C2768 1.389 . S
C2770 C2771 1.524 . S
C2770 C2784 1.377 . S
C2771 C2770 1.524 . S
C2771 C2772 1.397 . S
C2771 C2776 1.363 . S
C2772 H2749 0.950 . S
C2772 C2771 1.397 . S
C2772 C2773 1.334 . S
C2773 H2750 0.950 . S
C2773 C2772 1.334 . S
C2773 C2774 1.287 . S
C2774 C2773 1.287 . S
C2774 C2775 1.524 . S
C2774 H2793 0.913 . S
C2775 H2751 0.950 . S
C2775 C2774 1.524 . S
C2775 C2776 1.415 . S
C2776 H2752 0.950 . S
C2776 C2771 1.363 . S
C2776 C2775 1.415 . S
C2777 H2753 0.951 . S
C2777 C2778 1.366 . S
C2777 C2779 1.388 . S
C2778 C2777 1.366 . S
C2778 C2782 1.385 . S
C2779 H2754 0.951 . S
C2779 C2777 1.388 . S
C2779 C2780 1.366 . S
C2780 C2779 1.366 . S
C2780 C2781 1.414 . S
C2780 C2783 1.499 . S
C2781 H2755 0.950 . S
C2781 C2780 1.414 . S
C2781 C2782 1.374 . S
C2782 H2756 0.950 . S
C2782 C2778 1.385 . S
C2782 C2781 1.374 . S
C2783 C2780 1.499 . S
C2783 C2784 1.373 . S
C2783 C2785 1.389 . S
C2784 H2757 0.950 . S
C2784 C2770 1.377 . S
C2784 C2783 1.373 . S
C2785 C2769 1.377 . S
C2785 C2783 1.389 . S
C2785 C2786 1.524 . S
C2786 C2785 1.524 . S
C2786 C2787 1.397 . S
C2786 C2791 1.363 . S
C2787 H2758 0.950 . S
C2787 C2786 1.397 . S
C2787 C2788 1.334 . S
C2788 H2759 0.950 . S
C2788 C2787 1.334 . S
C2788 C2789 1.287 . S
C2789 C2788 1.287 . S
C2789 C2790 1.524 . S
C2789 H2792 0.999 . S
C2790 H2760 0.950 . S
C2790 C2789 1.524 . S
C2790 C2791 1.415 . S
C2791 H2761 0.950 . S
C2791 C2786 1.363 . S
C2791 C2790 1.415 . S
H2792 C2789 0.999 . S
H2793 C2774 0.913 . S
H2794 C2812 0.951 . S
H2795 C2814 0.951 . S
H2796 C2816 0.950 . S
H2797 C2817 0.950 . S
H2798 C2819 0.950 . S
H2799 C2822 0.950 . S
H2800 C2823 0.950 . S
H2801 C2825 0.950 . S
H2802 C2826 0.950 . S
H2803 C2827 0.951 . S
H2804 C2829 0.951 . S
H2805 C2831 0.950 . S
H2806 C2832 0.950 . S
H2807 C2834 0.950 . S
H2808 C2837 0.950 . S
H2809 C2838 0.950 . S
H2810 C2840 0.950 . S
H2811 C2841 0.950 . S
C2812 H2794 0.951 . S
C2812 C2813 1.366 . S
C2812 C2814 1.388 . S
C2813 C2812 1.366 . S
C2813 C2817 1.385 . S
C2814 H2795 0.951 . S
C2814 C2812 1.388 . S
C2814 C2815 1.366 . S
C2815 C2814 1.366 . S
C2815 C2816 1.414 . S
C2815 C2818 1.499 . S
C2816 H2796 0.950 . S
C2816 C2815 1.414 . S
C2816 C2817 1.374 . S
C2817 H2797 0.950 . S
C2817 C2813 1.385 . S
C2817 C2816 1.374 . S
C2818 C2815 1.499 . S
C2818 C2819 1.373 . S
C2818 C2820 1.389 . S
C2819 H2798 0.950 . S
C2819 C2818 1.373 . S
C2819 C2835 1.377 . S
C2820 C2818 1.389 . S
C2820 C2821 1.524 . S
C2820 C2834 1.377 . S
C2821 C2820 1.524 . S
C2821 C2822 1.397 . S
C2821 C2826 1.363 . S
C2822 H2799 0.950 . S
C2822 C2821 1.397 . S
C2822 C2823 1.334 . S
C2823 H2800 0.950 . S
C2823 C2822 1.334 . S
C2823 C2824 1.287 . S
C2824 C2823 1.287 . S
C2824 C2825 1.524 . S
C2824 H2843 0.913 . S
C2825 H2801 0.950 . S
C2825 C2824 1.524 . S
C2825 C2826 1.415 . S
C2826 H2802 0.950 . S
C2826 C2821 1.363 . S
C2826 C2825 1.415 . S
C2827 H2803 0.951 . S
C2827 C2828 1.366 . S
C2827 C2829 1.388 . S
C2828 C2827 1.366 . S
C2828 C2832 1.385 . S
C2829 H2804 0.951 . S
C2829 C2827 1.388 . S
C2829 C2830 1.366 . S
C2830 C2829 1.366 . S
C2830 C2831 1.414 . S
C2830 C2833 1.499 . S
C2831 H2805 0.950 . S
C2831 C2830 1.414 . S
C2831 C2832 1.374 . S
C2832 H2806 0.950 . S
C2832 C2828 1.385 . S
C2832 C2831 1.374 . S
C2833 C2830 1.499 . S
C2833 C2834 1.373 . S
C2833 C2835 1.389 . S
C2834 H2807 0.950 . S
C2834 C2820 1.377 . S
C2834 C2833 1.373 . S
C2835 C2819 1.377 . S
C2835 C2833 1.389 . S
C2835 C2836 1.524 . S
C2836 C2835 1.524 . S
C2836 C2837 1.397 . S
C2836 C2841 1.363 . S
C2837 H2808 0.950 . S
C2837 C2836 1.397 . S
C2837 C2838 1.334 . S
C2838 H2809 0.950 . S
C2838 C2837 1.334 . S
C2838 C2839 1.287 . S
C2839 C2838 1.287 . S
C2839 C2840 1.524 . S
C2839 H2842 0.999 . S
C2840 H2810 0.950 . S
C2840 C2839 1.524 . S
C2840 C2841 1.415 . S
C2841 H2811 0.950 . S
C2841 C2836 1.363 . S
C2841 C2840 1.415 . S
H2842 C2839 0.999 . S
H2843 C2824 0.913 . S
C613 N332 1.799 . S
C628 N2 1.799 . S
C663 N35 1.799 . S
C678 N365 1.800 1_565 S
C713 N299 1.800 1_455 S
C728 N68 1.799 . S
C763 N464 1.800 . S
C778 N101 1.799 . S
C813 N134 1.800 . S
C828 N398 1.799 1_545 S
C863 N431 1.800 1_655 S
C878 N167 1.799 . S
C913 C172 1.754 . S
C928 C469 1.754 . S
C963 C403 1.753 . S
C978 C106 1.753 . S
C1013 C436 1.754 . S
C1028 C139 1.754 . S
C1063 C40 1.754 . S
C1078 C337 1.754 . S
C1113 C73 1.754 . S
C1128 C370 1.754 . S
C1163 C7 1.754 . S
C1178 C304 1.754 . S
C1213 N530 1.799 . S
C1228 N200 1.800 . S
C1263 N563 1.800 . S
C1278 N233 1.799 . S
C1313 N497 1.799 . S
C1328 N266 1.800 . S
C1363 C238 1.754 . S
C1378 C535 1.754 . S
C1413 C568 1.754 . S
C1428 C271 1.754 . S
C1463 C205 1.754 . S
C1478 C502 1.754 . S
C1513 C21 1.254 . S
C1528 C582 1.254 . S
C1563 C54 1.253 . S
C1578 C516 1.253 . S
C1613 C87 1.253 . S
C1628 C549 1.253 . S
C1663 C252 1.253 . S
C1678 C120 1.253 . S
C1713 C153 1.253 . S
C1728 C285 1.253 . S
C1763 C186 1.253 . S
C1778 C219 1.253 . S
C1813 C318 1.253 . S
C1828 C450 1.253 . S
C1863 C351 1.253 . S
C1878 C483 1.254 . S
C1913 C384 1.253 . S
C1928 C417 1.253 . S
C1963 N79 1.310 . S
C1978 C18 1.322 . S
C2013 C51 1.322 . S
C2028 N13 1.310 . S
C2063 N46 1.310 . S
C2078 C84 1.323 . S
C2113 N145 1.309 . S
C2128 C117 1.322 . S
C2163 C150 1.322 . S
C2178 N178 1.309 . S
C2213 N112 1.311 . S
C2228 C183 1.323 . S
C2263 C216 1.323 . S
C2278 N277 1.310 . S
C2313 N211 1.310 . S
C2328 C249 1.323 . S
C2363 C282 1.322 . S
C2378 N244 1.310 . S
C2413 C315 1.322 . S
C2428 N343 1.310 . S
C2463 N376 1.310 . S
C2478 C348 1.323 . S
C2513 C381 1.323 . S
C2528 N310 1.310 . S
C2563 C414 1.322 . S
C2578 N475 1.310 . S
C2613 N409 1.309 . S
C2628 C447 1.322 . S
C2663 C480 1.322 . S
C2678 N442 1.309 . S
C2713 C513 1.323 . S
C2728 N541 1.310 . S
C2763 N574 1.310 . S
C2778 C546 1.322 . S
C2813 N508 1.310 . S
C2828 C579 1.323 . S
