# Generated by pormake.
# Topology xbj, (5)-cn, num edge types: 1
# Building blocks:
#     Node 0, Type 0, BuildingBlock: BEQFEK_clean_sbu_0, # of connection points: 5
#     Node 1, Type 0, BuildingBlock: BEQFEK_clean_sbu_0, # of connection points: 5
#     Node 2, Type 0, BuildingBlock: BEQFEK_clean_sbu_0, # of connection points: 5
#     Node 3, Type 0, BuildingBlock: BEQFEK_clean_sbu_0, # of connection points: 5
#     Node 4, Type 0, BuildingBlock: BEQFEK_clean_sbu_0, # of connection points: 5
#     Node 5, Type 0, BuildingBlock: BEQFEK_clean_sbu_0, # of connection points: 5
#     Node 6, Type 0, BuildingBlock: BEQFEK_clean_sbu_0, # of connection points: 5
#     Node 7, Type 0, BuildingBlock: BEQFEK_clean_sbu_0, # of connection points: 5
#     Edge 8, Type (0, 0), BuildingBlock: ZUJKAS_clean_linker_0, # of connection points: 2
#     Edge 9, Type (0, 0), BuildingBlock: ZUJKAS_clean_linker_0, # of connection points: 2
#     Edge 10, Type (0, 0), BuildingBlock: ZUJKAS_clean_linker_0, # of connection points: 2
#     Edge 11, Type (0, 0), BuildingBlock: ZUJKAS_clean_linker_0, # of connection points: 2
#     Edge 12, Type (0, 0), BuildingBlock: ZUJKAS_clean_linker_0, # of connection points: 2
#     Edge 13, Type (0, 0), BuildingBlock: ZUJKAS_clean_linker_0, # of connection points: 2
#     Edge 14, Type (0, 0), BuildingBlock: ZUJKAS_clean_linker_0, # of connection points: 2
#     Edge 15, Type (0, 0), BuildingBlock: ZUJKAS_clean_linker_0, # of connection points: 2
#     Edge 16, Type (0, 0), BuildingBlock: ZUJKAS_clean_linker_0, # of connection points: 2
#     Edge 17, Type (0, 0), BuildingBlock: ZUJKAS_clean_linker_0, # of connection points: 2
#     Edge 18, Type (0, 0), BuildingBlock: ZUJKAS_clean_linker_0, # of connection points: 2
#     Edge 19, Type (0, 0), BuildingBlock: ZUJKAS_clean_linker_0, # of connection points: 2
#     Edge 20, Type (0, 0), BuildingBlock: ZUJKAS_clean_linker_0, # of connection points: 2
#     Edge 21, Type (0, 0), BuildingBlock: ZUJKAS_clean_linker_0, # of connection points: 2
#     Edge 22, Type (0, 0), BuildingBlock: ZUJKAS_clean_linker_0, # of connection points: 2
#     Edge 23, Type (0, 0), BuildingBlock: ZUJKAS_clean_linker_0, # of connection points: 2
#     Edge 24, Type (0, 0), BuildingBlock: ZUJKAS_clean_linker_0, # of connection points: 2
#     Edge 25, Type (0, 0), BuildingBlock: ZUJKAS_clean_linker_0, # of connection points: 2
#     Edge 26, Type (0, 0), BuildingBlock: ZUJKAS_clean_linker_0, # of connection points: 2
#     Edge 27, Type (0, 0), BuildingBlock: ZUJKAS_clean_linker_0, # of connection points: 2
# Relax obj value: 0.056
# Max RMSD: 0.117
# Mean RMSD: 0.113
data_MOF--net-xbj--node1-BEQFEK_clean_sbu_0--edge1-ZUJKAS_clean_linker_0
_symmetry_space_group_name_H-M    P1
_symmetry_Int_Tables_number       1
_symmetry_cell_setting            triclinic
loop_
_symmetry_equiv_pos_as_xyz
'x, y, z'
_cell_length_a     24.105721
_cell_length_b     24.107699
_cell_length_c     142.19482
_cell_angle_alpha  91.243643
_cell_angle_beta   91.222799
_cell_angle_gamma 89.920245
loop_
_atom_site_label
_atom_site_type_symbol
_atom_site_fract_x
_atom_site_fract_y
_atom_site_fract_z
_atom_type_partial_charge
Co0 Co 0.2334 0.81136 0.04525 0.0
Co1 Co 0.10299 0.79632 0.0421 0.0
C2 C 0.16125 0.90313 0.0381 0.0
O3 O 0.20827 0.88414 0.04075 0.0
O4 O 0.11731 0.87381 0.03834 0.0
C5 C 0.34353 0.85738 0.04895 0.0
O6 O 0.31912 0.9053 0.04752 0.0
C7 C 0.98072 0.81204 0.04449 0.0
C8 C 0.9497 0.73254 0.03844 0.0
C9 C 0.9322 0.78221 0.04247 0.0
N10 N 0.02451 0.78103 0.04181 0.0
N11 N 0.00542 0.73359 0.03822 0.0
C12 C 0.98539 0.87001 0.0484 0.0
H13 H 0.02639 0.88802 0.04689 0.0
H14 H 0.98098 0.8695 0.05614 0.0
H15 H 0.95187 0.8964 0.04542 0.0
C16 C 0.20369 0.77858 0.06433 0.0
N17 N 0.18971 0.78872 0.05533 0.0
N18 N 0.13588 0.78148 0.05405 0.0
C19 C 0.11407 0.76554 0.06221 0.0
C20 C 0.15624 0.76346 0.06899 0.0
C21 C 0.26069 0.78761 0.06846 0.0
H22 H 0.27733 0.82759 0.06604 0.0
H23 H 0.26083 0.78814 0.07626 0.0
H24 H 0.28846 0.75402 0.06591 0.0
O25 O 0.22648 0.75859 0.0345 0.0
O26 O 0.13568 0.74795 0.03226 0.0
H27 H 0.04811 0.72803 0.06999 0.0
H28 H 0.02912 0.78907 0.06353 0.0
C29 C 0.05441 0.75064 0.06339 0.0
H30 H 0.03988 0.72416 0.05737 0.0
H31 H 0.03052 0.70195 0.03554 0.0
O32 O 0.31445 0.81332 0.04866 0.0
C33 C 0.18539 0.7374 0.02996 0.0
Co34 Co 0.58499 0.74305 0.29599 0.0
Co35 Co 0.60498 0.61365 0.29261 0.0
C36 C 0.49571 0.66895 0.28805 0.0
O37 O 0.51258 0.71646 0.29099 0.0
O38 O 0.52703 0.6263 0.28837 0.0
C39 C 0.53914 0.85413 0.29861 0.0
O40 O 0.49202 0.83105 0.29588 0.0
C41 C 0.59187 0.49129 0.29481 0.0
C42 C 0.67178 0.46164 0.28927 0.0
C43 C 0.62258 0.44324 0.29299 0.0
N44 N 0.62195 0.53556 0.29231 0.0
N45 N 0.66964 0.51732 0.28903 0.0
C46 C 0.53404 0.49518 0.29839 0.0
H47 H 0.51518 0.53579 0.29673 0.0
H48 H 0.53514 0.4912 0.30614 0.0
H49 H 0.50802 0.46119 0.2953 0.0
C50 C 0.62071 0.71307 0.31515 0.0
N51 N 0.60977 0.69928 0.30609 0.0
N52 N 0.61927 0.64591 0.30472 0.0
C53 C 0.63754 0.62424 0.31288 0.0
C54 C 0.63892 0.66604 0.31975 0.0
C55 C 0.61022 0.76949 0.31935 0.0
H56 H 0.57055 0.78613 0.31649 0.0
H57 H 0.60827 0.76852 0.32713 0.0
H58 H 0.64402 0.79784 0.31735 0.0
O59 O 0.63722 0.7383 0.28555 0.0
O60 O 0.6521 0.6483 0.28314 0.0
H61 H 0.6822 0.55275 0.30799 0.0
H62 H 0.67969 0.5596 0.32062 0.0
C63 C 0.65582 0.56532 0.31396 0.0
H64 H 0.61883 0.53805 0.31389 0.0
H65 H 0.70069 0.54295 0.28656 0.0
O66 O 0.58219 0.8239 0.29949 0.0
C67 C 0.66019 0.69867 0.28104 0.0
Co68 Co 0.73821 0.30873 0.54365 0.0
Co69 Co 0.60732 0.29952 0.54362 0.0
C70 C 0.66259 0.40351 0.53813 0.0
O71 O 0.7103 0.38179 0.53951 0.0
O72 O 0.61809 0.37682 0.53963 0.0
C73 C 0.84829 0.35487 0.54737 0.0
O74 O 0.82263 0.40256 0.54853 0.0
C75 C 0.48443 0.3126 0.54428 0.0
C76 C 0.46036 0.22847 0.54851 0.0
C77 C 0.43877 0.28005 0.54636 0.0
N78 N 0.53068 0.28174 0.54535 0.0
N79 N 0.51578 0.23143 0.5478 0.0
C80 C 0.48425 0.36994 0.54047 0.0
H81 H 0.51473 0.37238 0.53477 0.0
H82 H 0.49687 0.39987 0.54615 0.0
H83 H 0.44281 0.38153 0.5376 0.0
C84 C 0.72415 0.2772 0.56336 0.0
N85 N 0.70331 0.28764 0.55472 0.0
N86 N 0.64877 0.28658 0.5549 0.0
C87 C 0.63312 0.27717 0.56377 0.0
C88 C 0.68034 0.27028 0.56939 0.0
C89 C 0.78485 0.27327 0.56568 0.0
H90 H 0.80631 0.25065 0.55994 0.0
H91 H 0.80251 0.31571 0.5663 0.0
H92 H 0.79252 0.25147 0.57238 0.0
O93 O 0.72343 0.25511 0.53334 0.0
O94 O 0.63155 0.2504 0.53309 0.0
H95 H 0.55435 0.24022 0.56622 0.0
H96 H 0.57331 0.29436 0.57457 0.0
C97 C 0.57458 0.28138 0.56704 0.0
H98 H 0.55101 0.3119 0.56282 0.0
H99 H 0.54363 0.199 0.54898 0.0
O100 O 0.82008 0.31143 0.54544 0.0
C101 C 0.67827 0.2366 0.52973 0.0
Co102 Co 0.07882 0.24295 0.79437 0.0
Co103 Co 0.09372 0.11268 0.79313 0.0
C104 C 0.98639 0.16613 0.7879 0.0
O105 O 0.00608 0.21417 0.78985 0.0
O106 O 0.01543 0.1224 0.78899 0.0
C107 C 0.04215 0.35422 0.79186 0.0
O108 O 0.0138 0.33092 0.78484 0.0
C109 C 0.07949 0.9913 0.79496 0.0
C110 C 0.16662 0.963 0.79444 0.0
C111 C 0.11271 0.94408 0.79522 0.0
N112 N 0.11242 0.0358 0.79403 0.0
N113 N 0.16439 0.01849 0.7937 0.0
C114 C 0.01814 0.99493 0.79623 0.0
H115 H 0.00732 0.03477 0.79979 0.0
H116 H 0.00308 0.9599 0.80041 0.0
H117 H 0.99705 0.99348 0.78921 0.0
C118 C 0.11482 0.22327 0.81394 0.0
N119 N 0.10328 0.20491 0.80512 0.0
N120 N 0.10867 0.15058 0.80471 0.0
C121 C 0.12362 0.13256 0.81331 0.0
C122 C 0.12809 0.17805 0.81942 0.0
C123 C 0.11367 0.28312 0.81696 0.0
H124 H 0.13708 0.30798 0.81191 0.0
H125 H 0.07009 0.29801 0.81684 0.0
H126 H 0.132 0.28967 0.82412 0.0
O127 O 0.13118 0.23349 0.784 0.0
O128 O 0.1399 0.1419 0.78303 0.0
H129 H 0.16729 0.05551 0.81258 0.0
H130 H 0.13148 0.06707 0.82348 0.0
C131 C 0.12915 0.07271 0.81576 0.0
H132 H 0.09308 0.0492 0.81281 0.0
H133 H 0.19839 0.04467 0.793 0.0
O134 O 0.07249 0.32396 0.79708 0.0
C135 C 0.15102 0.19006 0.7801 0.0
Co136 Co 0.14275 0.30096 0.94391 0.0
Co137 Co 0.27356 0.28764 0.94388 0.0
C138 C 0.22059 0.39435 0.9496 0.0
O139 O 0.17217 0.37427 0.94811 0.0
O140 O 0.26413 0.36563 0.94813 0.0
C141 C 0.03251 0.34183 0.9382 0.0
O142 O 0.05851 0.38106 0.93378 0.0
C143 C 0.39515 0.30228 0.94155 0.0
C144 C 0.42128 0.21506 0.93945 0.0
C145 C 0.44112 0.26892 0.93987 0.0
N146 N 0.35019 0.26945 0.94208 0.0
N147 N 0.36634 0.21739 0.94089 0.0
C148 C 0.39313 0.36427 0.94201 0.0
H149 H 0.39191 0.37818 0.94949 0.0
H150 H 0.35489 0.37923 0.9384 0.0
H151 H 0.43 0.38266 0.93873 0.0
C152 C 0.15611 0.262 0.92418 0.0
N153 N 0.17701 0.27603 0.93276 0.0
N154 N 0.23155 0.27276 0.93263 0.0
C155 C 0.24705 0.258 0.92387 0.0
C156 C 0.19978 0.25034 0.91827 0.0
C157 C 0.09548 0.25757 0.92181 0.0
H158 H 0.07286 0.24152 0.92788 0.0
H159 H 0.07909 0.29932 0.92015 0.0
H160 H 0.08799 0.22961 0.91561 0.0
O161 O 0.15722 0.24901 0.95409 0.0
O162 O 0.24891 0.24063 0.9543 0.0
H163 H 0.32458 0.21571 0.9227 0.0
H164 H 0.30834 0.25996 0.91298 0.0
C165 C 0.30588 0.25596 0.92071 0.0
H166 H 0.33011 0.28999 0.92417 0.0
H167 H 0.33958 0.18342 0.94094 0.0
O168 O 0.06046 0.30531 0.94256 0.0
C169 C 0.20172 0.22922 0.95762 0.0
Co170 Co 0.06455 0.66263 0.19371 0.0
Co171 Co 0.08775 0.7917 0.19495 0.0
C172 C 0.97966 0.74389 0.20072 0.0
O173 O 0.99527 0.69463 0.19865 0.0
O174 O 0.01104 0.78556 0.19952 0.0
C175 C 0.04375 0.55058 0.19789 0.0
O176 O 0.03735 0.57312 0.2063 0.0
C177 C 0.0766 0.91291 0.1924 0.0
C178 C 0.16348 0.94002 0.19463 0.0
C179 C 0.11047 0.95973 0.19272 0.0
N180 N 0.10832 0.86805 0.19408 0.0
N181 N 0.16014 0.88466 0.19542 0.0
C182 C 0.01591 0.90988 0.19004 0.0
H183 H 0.00549 0.86884 0.18679 0.0
H184 H 0.00353 0.94332 0.18518 0.0
H185 H 0.99217 0.9148 0.19661 0.0
C186 C 0.09162 0.68099 0.17393 0.0
N187 N 0.08576 0.69967 0.18283 0.0
N188 N 0.09548 0.75339 0.18327 0.0
C189 C 0.10806 0.77065 0.17462 0.0
C190 C 0.10602 0.72532 0.16843 0.0
C191 C 0.07935 0.62264 0.17072 0.0
H192 H 0.03864 0.60981 0.17344 0.0
H193 H 0.0784 0.6181 0.16294 0.0
H194 H 0.11145 0.59461 0.1737 0.0
O195 O 0.12216 0.66936 0.20373 0.0
O196 O 0.13731 0.76006 0.2047 0.0
H197 H 0.15661 0.84366 0.17729 0.0
H198 H 0.13702 0.83296 0.16509 0.0
C199 C 0.12291 0.82915 0.17242 0.0
H200 H 0.08629 0.85626 0.17351 0.0
H201 H 0.19329 0.85809 0.19688 0.0
O202 O 0.05455 0.58187 0.19108 0.0
C203 C 0.14671 0.71112 0.20752 0.0
Co204 Co 0.63339 0.79607 0.44228 0.0
Co205 Co 0.76445 0.78563 0.44439 0.0
C206 C 0.7053 0.89198 0.44871 0.0
O207 O 0.65828 0.8706 0.44655 0.0
O208 O 0.7501 0.86409 0.44806 0.0
C209 C 0.52379 0.8411 0.43813 0.0
O210 O 0.54912 0.88933 0.43848 0.0
C211 C 0.88636 0.8002 0.44163 0.0
C212 C 0.91724 0.72114 0.44732 0.0
C213 C 0.93475 0.77019 0.44346 0.0
N214 N 0.8426 0.76991 0.44428 0.0
N215 N 0.86159 0.72269 0.44764 0.0
C216 C 0.8818 0.85766 0.43792 0.0
H217 H 0.84115 0.87636 0.43961 0.0
H218 H 0.88535 0.85588 0.43015 0.0
H219 H 0.91585 0.88413 0.44087 0.0
C220 C 0.65847 0.75385 0.42323 0.0
N221 N 0.67489 0.77043 0.43193 0.0
N222 N 0.72924 0.76591 0.43274 0.0
C223 C 0.7491 0.74586 0.42456 0.0
C224 C 0.7049 0.7375 0.41828 0.0
C225 C 0.59967 0.75663 0.41966 0.0
H226 H 0.58242 0.79832 0.4213 0.0
H227 H 0.59628 0.74869 0.41196 0.0
H228 H 0.5745 0.72568 0.42335 0.0
O229 O 0.64311 0.74636 0.45304 0.0
O230 O 0.73473 0.74049 0.45453 0.0
H231 H 0.81475 0.70997 0.41617 0.0
H232 H 0.83321 0.77133 0.42307 0.0
C233 C 0.80884 0.73236 0.42297 0.0
H234 H 0.82484 0.70616 0.42874 0.0
H235 H 0.83647 0.69163 0.45026 0.0
O236 O 0.55208 0.79706 0.43928 0.0
C237 C 0.68639 0.72849 0.45727 0.0
Co238 Co 0.5665 0.14922 0.69266 0.0
Co239 Co 0.57798 0.28017 0.69437 0.0
C240 C 0.47254 0.22258 0.69892 0.0
O241 O 0.49302 0.17515 0.69686 0.0
O242 O 0.50057 0.26702 0.69815 0.0
C243 C 0.52341 0.03951 0.68714 0.0
O244 O 0.47712 0.0651 0.68482 0.0
C245 C 0.56291 0.40332 0.69285 0.0
C246 C 0.65068 0.42971 0.69334 0.0
C247 C 0.597 0.44989 0.69255 0.0
N248 N 0.59528 0.35788 0.69364 0.0
N249 N 0.6476 0.37424 0.69396 0.0
C250 C 0.50087 0.4021 0.6929 0.0
H251 H 0.48646 0.36892 0.6975 0.0
H252 H 0.48483 0.3932 0.68566 0.0
H253 H 0.48371 0.44227 0.69545 0.0
C254 C 0.60339 0.17137 0.67346 0.0
N255 N 0.58973 0.18864 0.68216 0.0
N256 N 0.59276 0.24315 0.68273 0.0
C257 C 0.60728 0.26239 0.67431 0.0
C258 C 0.61492 0.21752 0.66818 0.0
C259 C 0.60731 0.11165 0.67044 0.0
H260 H 0.62729 0.08743 0.67612 0.0
H261 H 0.56488 0.09501 0.66914 0.0
H262 H 0.63161 0.10636 0.66394 0.0
O263 O 0.61876 0.16018 0.70327 0.0
O264 O 0.62648 0.25167 0.70468 0.0
H265 H 0.64841 0.34086 0.67485 0.0
H266 H 0.60695 0.32884 0.66428 0.0
C267 C 0.60918 0.32262 0.67198 0.0
H268 H 0.57392 0.34471 0.67526 0.0
H269 H 0.68136 0.34733 0.69459 0.0
O270 O 0.56468 0.06771 0.69024 0.0
C271 C 0.63849 0.20315 0.70745 0.0
H272 H 0.21635 0.69097 0.07953 0.0
H273 H 0.20881 0.67517 0.09647 0.0
H274 H 0.07713 0.79628 0.09796 0.0
H275 H 0.0847 0.81214 0.08109 0.0
H276 H 0.22241 0.75474 0.11105 0.0
H277 H 0.01209 0.66194 0.11104 0.0
H278 H 0.05199 0.66718 0.10049 0.0
H279 H 0.0148 0.72643 0.10499 0.0
C280 C 0.18575 0.71392 0.08351 0.0
C281 C 0.15086 0.75247 0.07908 0.0
C282 C 0.18137 0.70481 0.09313 0.0
C283 C 0.1418 0.7339 0.09839 0.0
C284 C 0.107 0.77247 0.09396 0.0
H285 H 0.05241 0.789 0.15564 0.0
H286 H 0.06407 0.78785 0.13855 0.0
C287 C 0.1114 0.78157 0.08436 0.0
C288 C 0.13856 0.72631 0.10864 0.0
H289 H 0.04908 0.69381 0.12593 0.0
C290 C 0.18483 0.74072 0.11432 0.0
C291 C 0.08941 0.70798 0.11283 0.0
C292 C 0.0394 0.68947 0.10702 0.0
C293 C 0.18247 0.73949 0.12415 0.0
C294 C 0.13277 0.72271 0.12834 0.0
C295 C 0.087 0.7069 0.12266 0.0
C296 C 0.12663 0.72337 0.13864 0.0
C297 C 0.23231 0.75812 0.12999 0.0
C298 C 0.15779 0.68725 0.14427 0.0
C299 C 0.15133 0.68809 0.15401 0.0
C300 C 0.11358 0.72493 0.15819 0.0
C301 C 0.08222 0.76076 0.15254 0.0
C302 C 0.08863 0.7599 0.14282 0.0
H303 H 0.26329 0.77986 0.12573 0.0
H304 H 0.21954 0.78625 0.13585 0.0
H305 H 0.25272 0.72136 0.13311 0.0
H306 H 0.18674 0.65825 0.14114 0.0
H307 H 0.1758 0.66008 0.15828 0.0
H308 H 0.64728 0.65148 0.41025 0.0
H309 H 0.64414 0.62328 0.39356 0.0
H310 H 0.76248 0.7513 0.38759 0.0
H311 H 0.76584 0.77921 0.40426 0.0
H312 H 0.60947 0.6924 0.37954 0.0
H313 H 0.82299 0.61827 0.37285 0.0
H314 H 0.796 0.62602 0.38456 0.0
H315 H 0.82109 0.68548 0.37852 0.0
C316 C 0.67308 0.67294 0.40536 0.0
C317 C 0.70672 0.71741 0.40845 0.0
C318 C 0.67145 0.65676 0.39588 0.0
C319 C 0.70369 0.68469 0.38938 0.0
C320 C 0.73838 0.7283 0.39252 0.0
H321 H 0.71062 0.73039 0.33015 0.0
H322 H 0.72803 0.72785 0.34719 0.0
C323 C 0.74006 0.7444 0.40201 0.0
C324 C 0.69652 0.67245 0.37921 0.0
H325 H 0.76708 0.64044 0.35926 0.0
C326 C 0.64369 0.68014 0.37512 0.0
C327 C 0.74139 0.65676 0.37349 0.0
C328 C 0.79846 0.64562 0.37758 0.0
C329 C 0.63491 0.67479 0.36538 0.0
C330 C 0.68005 0.66045 0.35963 0.0
C331 C 0.73264 0.6514 0.36372 0.0
C332 C 0.67378 0.65793 0.34929 0.0
C333 C 0.57795 0.68686 0.36129 0.0
C334 C 0.63859 0.61864 0.34486 0.0
C335 C 0.62829 0.62039 0.33518 0.0
C336 C 0.65338 0.66121 0.32981 0.0
C337 C 0.69041 0.69898 0.33419 0.0
C338 C 0.70061 0.69731 0.34388 0.0
H339 H 0.55088 0.70812 0.36647 0.0
H340 H 0.5809 0.71316 0.355 0.0
H341 H 0.55771 0.64726 0.35906 0.0
H342 H 0.61804 0.58758 0.34893 0.0
H343 H 0.59942 0.59099 0.33193 0.0
H344 H 0.62225 0.19512 0.57915 0.0
H345 H 0.6206 0.18508 0.59625 0.0
H346 H 0.74357 0.31424 0.5997 0.0
H347 H 0.74344 0.32608 0.58263 0.0
H348 H 0.70338 0.1594 0.6092 0.0
H349 H 0.61846 0.37056 0.61612 0.0
H350 H 0.62009 0.3396 0.60447 0.0
H351 H 0.68197 0.36924 0.60975 0.0
C352 C 0.64872 0.22143 0.58358 0.0
C353 C 0.68273 0.26153 0.57963 0.0
C354 C 0.64803 0.21546 0.59331 0.0
C355 C 0.68135 0.2495 0.59922 0.0
C356 C 0.71682 0.28829 0.59526 0.0
H357 H 0.69927 0.27487 0.66051 0.0
H358 H 0.72088 0.28104 0.64377 0.0
C359 C 0.71721 0.29454 0.58552 0.0
C360 C 0.67775 0.24506 0.60953 0.0
H361 H 0.64085 0.31694 0.62937 0.0
C362 C 0.68988 0.19385 0.61362 0.0
C363 C 0.65999 0.29015 0.61526 0.0
C364 C 0.64387 0.34536 0.61119 0.0
C365 C 0.68447 0.18645 0.62331 0.0
C366 C 0.66617 0.23133 0.62899 0.0
C367 C 0.65513 0.2828 0.62495 0.0
C368 C 0.65541 0.22508 0.63907 0.0
C369 C 0.69825 0.13081 0.62742 0.0
C370 C 0.6113 0.19186 0.64189 0.0
C371 C 0.59857 0.18883 0.65139 0.0
C372 C 0.62982 0.21894 0.65818 0.0
C373 C 0.67439 0.25164 0.65536 0.0
C374 C 0.6869 0.25496 0.64585 0.0
H375 H 0.72353 0.10486 0.62257 0.0
H376 H 0.72116 0.13601 0.63424 0.0
H377 H 0.65917 0.10825 0.62873 0.0
H378 H 0.58594 0.16936 0.63671 0.0
H379 H 0.56349 0.16403 0.6534 0.0
H380 H 0.25091 0.16455 0.90919 0.0
H381 H 0.24661 0.14191 0.89223 0.0
H382 H 0.13772 0.28137 0.88778 0.0
H383 H 0.14221 0.3044 0.90466 0.0
H384 H 0.12129 0.14022 0.88023 0.0
H385 H 0.29584 0.2767 0.87012 0.0
H386 H 0.29539 0.24257 0.88132 0.0
H387 H 0.24987 0.30002 0.87925 0.0
C388 C 0.22626 0.19031 0.90455 0.0
C389 C 0.19675 0.23605 0.90815 0.0
C390 C 0.22373 0.17731 0.89493 0.0
C391 C 0.19195 0.21015 0.88885 0.0
C392 C 0.1624 0.25572 0.89243 0.0
H393 H 0.06358 0.22059 0.83316 0.0
H394 H 0.08269 0.22127 0.85017 0.0
C395 C 0.16476 0.2686 0.90203 0.0
C396 C 0.18902 0.19715 0.87871 0.0
H397 H 0.24108 0.23654 0.85779 0.0
C398 C 0.14784 0.16058 0.8753 0.0
C399 C 0.2241 0.22373 0.8724 0.0
C400 C 0.26908 0.26292 0.87589 0.0
C401 C 0.13944 0.15145 0.86561 0.0
C402 C 0.17278 0.18012 0.85927 0.0
C403 C 0.2156 0.2148 0.86271 0.0
C404 C 0.16107 0.17795 0.84906 0.0
C405 C 0.0944 0.11207 0.8622 0.0
C406 C 0.19931 0.15406 0.84288 0.0
C407 C 0.18843 0.15368 0.83319 0.0
C408 C 0.13963 0.1779 0.82961 0.0
C409 C 0.10159 0.20198 0.83581 0.0
C410 C 0.11225 0.202 0.84548 0.0
H411 H 0.08198 0.08346 0.86781 0.0
H412 H 0.05731 0.13631 0.86002 0.0
H413 H 0.10815 0.08716 0.85602 0.0
H414 H 0.23738 0.13572 0.84555 0.0
H415 H 0.21829 0.13509 0.82848 0.0
H416 H 0.10843 0.69105 0.01775 0.0
H417 H 0.12553 0.64334 0.00275 0.0
H418 H 0.3019 0.66205 0.0074 0.0
H419 H 0.28551 0.70942 0.02246 0.0
H420 H 0.18619 0.68812 0.98718 0.0
H421 H 0.27939 0.49451 0.00125 0.0
H422 H 0.23883 0.54142 0.00841 0.0
H423 H 0.30888 0.55877 0.00561 0.0
C424 C 0.15092 0.6845 0.01565 0.0
C425 C 0.19561 0.70395 0.02133 0.0
C426 C 0.16054 0.65753 0.00706 0.0
C427 C 0.21491 0.64921 0.00402 0.0
C428 C 0.25965 0.66771 0.0097 0.0
H429 H 0.31564 0.44527 0.95623 0.0
H430 H 0.32136 0.51964 0.96814 0.0
C431 C 0.25013 0.69473 0.01829 0.0
C432 C 0.22453 0.62157 -0.00517 0.0
H433 H 0.27322 0.50195 0.98484 0.0
C434 C 0.20557 0.64758 0.98663 0.0
C435 C 0.25032 0.56905 -0.00582 0.0
C436 C 0.27027 0.53891 0.00282 0.0
C437 C 0.21072 0.62173 0.97776 0.0
C438 C 0.23456 0.56823 0.97714 0.0
C439 C 0.2553 0.54319 0.98532 0.0
C440 C 0.23283 0.53434 0.96834 0.0
C441 C 0.1902 0.65172 0.96916 0.0
C442 C 0.18139 0.51976 0.96421 0.0
C443 C 0.17795 0.47743 0.95739 0.0
C444 C 0.22586 0.44837 0.95467 0.0
C445 C 0.27787 0.46646 0.95821 0.0
C446 C 0.28126 0.50896 0.96503 0.0
H447 H 0.19194 0.69743 0.9703 0.0
H448 H 0.21487 0.64043 0.96289 0.0
H449 H 0.14626 0.64029 0.96767 0.0
H450 H 0.14338 0.53807 0.96677 0.0
H451 H 0.13724 0.46483 0.95478 0.0
H452 H 0.70433 0.62539 0.26827 0.0
H453 H 0.74854 0.64715 0.25348 0.0
H454 H 0.73158 0.82201 0.25977 0.0
H455 H 0.68753 0.80097 0.2746 0.0
H456 H 0.69701 0.71653 0.23864 0.0
H457 H 0.89855 0.79746 0.25312 0.0
H458 H 0.85418 0.75352 0.2598 0.0
H459 H 0.83604 0.82486 0.25813 0.0
C460 C 0.71062 0.6685 0.26659 0.0
C461 C 0.69241 0.71144 0.27263 0.0
C462 C 0.73556 0.6808 0.25811 0.0
C463 C 0.74314 0.7361 0.25558 0.0
C464 C 0.7263 0.77908 0.26166 0.0
H465 H 0.9384 0.84039 0.20837 0.0
H466 H 0.86834 0.84799 0.2205 0.0
C467 C 0.70119 0.76689 0.27013 0.0
C468 C 0.76787 0.74852 0.24647 0.0
H469 H 0.88648 0.79479 0.23671 0.0
C470 C 0.73824 0.7341 0.23818 0.0
C471 C 0.82121 0.77217 0.24596 0.0
C472 C 0.85474 0.78774 0.2547 0.0
C473 C 0.76142 0.74125 0.22933 0.0
C474 C 0.81597 0.76224 0.22882 0.0
C475 C 0.84453 0.77893 0.23712 0.0
C476 C 0.84722 0.76076 0.21998 0.0
C477 C 0.72756 0.72565 0.22063 0.0
C478 C 0.8568 0.70964 0.2154 0.0
C479 C 0.89659 0.70514 0.20845 0.0
C480 C 0.92814 0.75159 0.20606 0.0
C481 C 0.91513 0.80371 0.21009 0.0
C482 C 0.87512 0.80817 0.21703 0.0
H483 H 0.68245 0.7305 0.22188 0.0
H484 H 0.73879 0.75128 0.21456 0.0
H485 H 0.73521 0.68141 0.21876 0.0
H486 H 0.83657 0.6723 0.21767 0.0
H487 H 0.90532 0.66441 0.20547 0.0
H488 H 0.76944 0.69176 0.46891 0.0
H489 H 0.76032 0.64541 0.48385 0.0
H490 H 0.58214 0.64694 0.48042 0.0
H491 H 0.59063 0.69451 0.46548 0.0
H492 H 0.61956 0.68155 0.49846 0.0
H493 H 0.71827 0.48361 0.48728 0.0
H494 H 0.76034 0.54324 0.48518 0.0
H495 H 0.69492 0.53472 0.47899 0.0
C496 C 0.72824 0.68187 0.47126 0.0
C497 C 0.68074 0.69659 0.46596 0.0
C498 C 0.72316 0.65528 0.47981 0.0
C499 C 0.67061 0.64226 0.48317 0.0
C500 C 0.62306 0.65662 0.47791 0.0
H501 H 0.57015 0.4535 0.53056 0.0
H502 H 0.56957 0.52244 0.51825 0.0
C503 C 0.62805 0.68349 0.46936 0.0
C504 C 0.66567 0.61402 0.49222 0.0
H505 H 0.70555 0.49744 0.50369 0.0
C506 C 0.63801 0.64114 0.49961 0.0
C507 C 0.68957 0.56124 0.49366 0.0
C508 C 0.71696 0.52871 0.48583 0.0
C509 C 0.63501 0.6173 0.50852 0.0
C510 C 0.66022 0.56526 0.50998 0.0
C511 C 0.68707 0.53788 0.50255 0.0
C512 C 0.65813 0.53662 0.51903 0.0
C513 C 0.60597 0.64807 0.51633 0.0
C514 C 0.70779 0.52377 0.5238 0.0
C515 C 0.70839 0.48418 0.5308 0.0
C516 C 0.65932 0.45637 0.53306 0.0
C517 C 0.60875 0.4737 0.52895 0.0
C518 C 0.60824 0.51335 0.52192 0.0
H519 H 0.59788 0.69209 0.51459 0.0
H520 H 0.5656 0.62773 0.51759 0.0
H521 H 0.63105 0.64666 0.52297 0.0
H522 H 0.74669 0.54147 0.52164 0.0
H523 H 0.74799 0.47239 0.53391 0.0
H524 H 0.93509 0.07273 0.78061 0.0
H525 H 0.86221 0.07032 0.76839 0.0
H526 H 0.84506 0.24807 0.77081 0.0
H527 H 0.91666 0.25099 0.78315 0.0
H528 H 0.74447 0.19284 0.76641 0.0
H529 H 0.91599 0.12666 0.74306 0.0
H530 H 0.90297 0.08176 0.75268 0.0
H531 H 0.92823 0.15092 0.755 0.0
C532 C 0.91467 0.11114 0.77876 0.0
C533 C 0.93278 0.16224 0.78268 0.0
C534 C 0.87324 0.10967 0.77174 0.0
C535 C 0.84971 0.15922 0.76852 0.0
C536 C 0.86328 0.20946 0.77313 0.0
H537 H 0.67517 0.28396 0.71993 0.0
H538 H 0.72394 0.27081 0.73499 0.0
C539 C 0.90438 0.21099 0.78018 0.0
C540 C 0.8169 0.16012 0.75963 0.0
H541 H 0.82858 0.14053 0.73591 0.0
C542 C 0.76257 0.181 0.75974 0.0
C543 C 0.84112 0.14524 0.75095 0.0
C544 C 0.90041 0.12533 0.75035 0.0
C545 C 0.73169 0.18739 0.75135 0.0
C546 C 0.75624 0.17318 0.74269 0.0
C547 C 0.81009 0.15133 0.74259 0.0
C548 C 0.72715 0.18132 0.73358 0.0
C549 C 0.67309 0.20916 0.75182 0.0
C550 C 0.71475 0.13547 0.7277 0.0
C551 C 0.68732 0.14278 0.71908 0.0
C552 C 0.67216 0.19622 0.71616 0.0
C553 C 0.68619 0.24228 0.72197 0.0
C554 C 0.7135 0.23484 0.73061 0.0
H555 H 0.65602 0.2055 0.75897 0.0
H556 H 0.67273 0.25368 0.74999 0.0
H557 H 0.64544 0.18655 0.7467 0.0
H558 H 0.72561 0.09391 0.72984 0.0
H559 H 0.67731 0.1064 0.71477 0.0
H560 H 0.18666 0.10654 0.76843 0.0
H561 H 0.23219 0.11525 0.7534 0.0
H562 H 0.23404 0.29334 0.75701 0.0
H563 H 0.18713 0.28526 0.77201 0.0
H564 H 0.19726 0.25898 0.73923 0.0
H565 H 0.39339 0.15262 0.74916 0.0
H566 H 0.33293 0.11174 0.75124 0.0
H567 H 0.34395 0.17574 0.75775 0.0
C568 C 0.19729 0.1476 0.76611 0.0
C569 C 0.18349 0.19522 0.77146 0.0
C570 C 0.2234 0.15246 0.75751 0.0
C571 C 0.23701 0.20488 0.75416 0.0
C572 C 0.22389 0.2525 0.7595 0.0
H573 H 0.42406 0.31294 0.70743 0.0
H574 H 0.35522 0.31028 0.71973 0.0
C575 C 0.19739 0.24775 0.76809 0.0
C576 C 0.26407 0.20982 0.74498 0.0
H577 H 0.37824 0.16905 0.7329 0.0
C578 C 0.23695 0.23957 0.73784 0.0
C579 C 0.31588 0.18457 0.74323 0.0
C580 C 0.34853 0.15485 0.75078 0.0
C581 C 0.26 0.2438 0.72889 0.0
C582 C 0.31123 0.21767 0.72712 0.0
C583 C 0.3384 0.18827 0.73428 0.0
C584 C 0.33971 0.22223 0.71809 0.0
C585 C 0.22936 0.27547 0.72137 0.0
C586 C 0.35179 0.17402 0.71284 0.0
C587 C 0.39121 0.17529 0.70581 0.0
C588 C 0.41969 0.22474 0.70402 0.0
C589 C 0.4032 0.2741 0.70865 0.0
C590 C 0.36365 0.27275 0.71567 0.0
H591 H 0.18545 0.28337 0.72322 0.0
H592 H 0.25002 0.31606 0.72047 0.0
H593 H 0.23037 0.25246 0.71453 0.0
H594 H 0.3336 0.13465 0.71463 0.0
H595 H 0.40241 0.13661 0.70232 0.0
H596 H 0.19336 0.79121 0.21901 0.0
H597 H 0.246 0.77828 0.23362 0.0
H598 H 0.23517 0.6007 0.22968 0.0
H599 H 0.18107 0.6131 0.21512 0.0
H600 H 0.20966 0.63493 0.24767 0.0
H601 H 0.40617 0.73116 0.23678 0.0
H602 H 0.34749 0.77608 0.2352 0.0
H603 H 0.35152 0.71219 0.22846 0.0
C604 C 0.20269 0.74934 0.22117 0.0
C605 C 0.18322 0.70317 0.21586 0.0
C606 C 0.23292 0.74206 0.22952 0.0
C607 C 0.24506 0.68855 0.23266 0.0
C608 C 0.22629 0.64233 0.22735 0.0
H609 H 0.45042 0.57781 0.27896 0.0
H610 H 0.37961 0.57907 0.26641 0.0
C611 C 0.19565 0.64954 0.21901 0.0
C612 C 0.27611 0.68112 0.24162 0.0
H613 H 0.39677 0.71619 0.25318 0.0
C614 C 0.25076 0.65227 0.24886 0.0
C615 C 0.32979 0.70359 0.24312 0.0
C616 C 0.36058 0.73198 0.23545 0.0
C617 C 0.27729 0.64666 0.25768 0.0
C618 C 0.33011 0.67059 0.25923 0.0
C619 C 0.35574 0.69863 0.25196 0.0
C620 C 0.36095 0.66633 0.26824 0.0
C621 C 0.24861 0.61626 0.26535 0.0
C622 C 0.37191 0.7145 0.27365 0.0
C623 C 0.41225 0.71403 0.28082 0.0
C624 C 0.44286 0.66548 0.28259 0.0
C625 C 0.42794 0.61601 0.27774 0.0
C626 C 0.38737 0.61653 0.27058 0.0
H627 H 0.20476 0.60637 0.26343 0.0
H628 H 0.27095 0.57686 0.26672 0.0
H629 H 0.24972 0.64147 0.27198 0.0
H630 H 0.35182 0.7533 0.27191 0.0
H631 H 0.42225 0.75276 0.28447 0.0
H632 H 0.7932 0.94131 0.45809 0.0
H633 H 0.78701 0.01378 0.47029 0.0
H634 H 0.61386 0.03729 0.46327 0.0
H635 H 0.61924 0.96465 0.4511 0.0
H636 H 0.74256 0.12971 0.47204 0.0
H637 H 0.62239 0.96832 0.49027 0.0
H638 H 0.66354 0.95247 0.4801 0.0
H639 H 0.59763 0.98642 0.47872 0.0
C640 C 0.7542 0.96308 0.45891 0.0
C641 C 0.70633 0.94617 0.45379 0.0
C642 C 0.7508 0.00451 0.46589 0.0
C643 C 0.69969 0.02967 0.46779 0.0
C644 C 0.65345 0.01752 0.46198 0.0
H645 H 0.59081 0.20222 0.51848 0.0
H646 H 0.59494 0.15505 0.50312 0.0
C647 C 0.6567 0.97604 0.45501 0.0
C648 C 0.69294 0.06175 0.47664 0.0
H649 H 0.63737 0.05285 0.49842 0.0
C650 C 0.71936 0.11324 0.47781 0.0
C651 C 0.6628 0.03971 0.48412 0.0
C652 C 0.63522 0.98353 0.48332 0.0
C653 C 0.71612 0.14363 0.48631 0.0
C654 C 0.68679 0.12107 0.49386 0.0
C655 C 0.65979 0.06992 0.49262 0.0
C656 C 0.68452 0.14913 0.50318 0.0
C657 C 0.74363 0.19976 0.48711 0.0
C658 C 0.73345 0.15974 0.50842 0.0
C659 C 0.7313 0.18659 0.5172 0.0
C660 C 0.68006 0.20286 0.52094 0.0
C661 C 0.63095 0.19026 0.51581 0.0
C662 C 0.63321 0.16358 0.50702 0.0
H663 H 0.75018 0.21764 0.48009 0.0
H664 H 0.71851 0.2293 0.49135 0.0
H665 H 0.78483 0.19535 0.49065 0.0
H666 H 0.77335 0.14739 0.5057 0.0
H667 H 0.76989 0.1953 0.52098 0.0
H668 H 0.24634 0.97631 0.03597 0.0
H669 H 0.25178 0.04631 0.02391 0.0
H670 H 0.07972 0.01876 0.01635 0.0
H671 H 0.07356 0.94875 0.02842 0.0
H672 H 0.22989 0.00467 0.00525 0.0
H673 H 0.10008 0.18889 0.01376 0.0
H674 H 0.12728 0.14326 0.02268 0.0
H675 H 0.06806 0.12274 0.01556 0.0
C676 C 0.20905 0.98637 0.03198 0.0
C677 C 0.15982 0.95603 0.03302 0.0
C678 C 0.2123 0.02648 0.02509 0.0
C679 C 0.16627 0.03737 0.01923 0.0
C680 C 0.11555 0.0113 0.02088 0.0
H681 H 0.10922 0.18495 0.96528 0.0
H682 H 0.10279 0.13813 0.98028 0.0
C683 C 0.11221 0.97108 0.02777 0.0
C684 C 0.17395 0.06744 0.01043 0.0
H685 H 0.12991 0.17894 -0.00205 0.0
C686 C 0.2086 0.04317 0.00368 0.0
C687 C 0.14535 0.11699 0.0084 0.0
C688 C 0.10837 0.14489 0.0155 0.0
C689 C 0.21454 0.06649 -0.00517 0.0
C690 C 0.18607 0.11622 0.99278 0.0
C691 C 0.15174 0.14082 -0.00043 0.0
C692 C 0.19073 0.14291 0.98357 0.0
C693 C 0.24963 0.03655 0.98766 0.0
C694 C 0.24242 0.16065 0.98042 0.0
C695 C 0.24639 0.18674 0.97179 0.0
C696 C 0.19854 0.19636 0.96624 0.0
C697 C 0.14688 0.17811 0.96939 0.0
C698 C 0.14306 0.15161 0.97797 0.0
H699 H 0.25562 0.99217 0.98938 0.0
H700 H 0.23061 0.03883 0.98049 0.0
H701 H 0.29118 0.05625 0.98755 0.0
H702 H 0.27957 0.15526 0.98473 0.0
H703 H 0.2867 0.20089 0.96963 0.0
H704 H 0.84424 0.75292 0.03124 0.0
H705 H 0.74618 0.77338 0.0335 0.0
H706 H 0.78744 0.86605 0.05896 0.0
H707 H 0.88578 0.8443 0.05689 0.0
H708 H 0.6994 0.79198 0.06095 0.0
H709 H 0.66534 0.9205 0.02952 0.0
H710 H 0.69643 0.8545 0.02683 0.0
H711 H 0.73377 0.90439 0.03411 0.0
C712 C 0.8326 0.77806 0.03729 0.0
C713 C 0.87318 0.79804 0.04376 0.0
C714 C 0.77649 0.79003 0.03854 0.0
C715 C 0.7595 0.82223 0.04629 0.0
C716 C 0.79971 0.84179 0.05284 0.0
H717 H 0.41794 0.94315 0.0494 0.0
H718 H 0.51925 0.93744 0.04985 0.0
C719 C 0.85608 0.82991 0.05158 0.0
C720 C 0.69952 0.83339 0.04768 0.0
H721 H 0.58409 0.88666 0.03683 0.0
C722 C 0.67424 0.8132 0.05573 0.0
C723 C 0.66682 0.86169 0.04093 0.0
C724 C 0.69201 0.88702 0.0324 0.0
C725 C 0.61679 0.81875 0.05703 0.0
C726 C 0.58365 0.84446 0.05003 0.0
C727 C 0.60933 0.86645 0.04216 0.0
C728 C 0.52216 0.84793 0.05057 0.0
C729 C 0.59219 0.79715 0.0659 0.0
C730 C 0.48993 0.79953 0.05088 0.0
C731 C 0.43192 0.80264 0.05065 0.0
C732 C 0.40488 0.85425 0.05003 0.0
C733 C 0.4373 0.90272 0.04989 0.0
C734 C 0.49529 0.89955 0.05013 0.0
H735 H 0.62394 0.79429 0.07165 0.0
H736 H 0.55777 0.8241 0.06835 0.0
H737 H 0.57544 0.75488 0.06448 0.0
H738 H 0.50961 0.75914 0.05101 0.0
H739 H 0.40832 0.76446 0.05072 0.0
H740 H 0.55808 0.39586 0.3066 0.0
H741 H 0.53741 0.29749 0.3084 0.0
H742 H 0.63774 0.25703 0.28446 0.0
H743 H 0.65648 0.35534 0.28235 0.0
H744 H 0.54016 0.20066 0.28385 0.0
H745 H 0.6425 0.18155 0.31899 0.0
H746 H 0.58922 0.23359 0.31844 0.0
H747 H 0.65122 0.24157 0.3118 0.0
C748 C 0.57466 0.36637 0.30157 0.0
C749 C 0.60808 0.38387 0.2942 0.0
C750 C 0.56366 0.30985 0.30273 0.0
C751 C 0.58655 0.2697 0.29663 0.0
C752 C 0.61965 0.28714 0.28926 0.0
H753 H 0.63262 0.91648 0.30213 0.0
H754 H 0.64081 0.0176 0.30213 0.0
C755 C 0.63047 0.34345 0.28808 0.0
C756 C 0.57601 0.20946 0.2978 0.0
H757 H 0.59535 0.10216 0.31286 0.0
C758 C 0.55203 0.17916 0.29021 0.0
C759 C 0.5922 0.18128 0.30605 0.0
C760 C 0.62069 0.21094 0.31426 0.0
C761 C 0.54404 0.12156 0.29062 0.0
C762 C 0.55929 0.0935 0.29893 0.0
C763 C 0.58314 0.12378 0.30654 0.0
C764 C 0.55318 0.03236 0.29967 0.0
C765 C 0.52108 0.09105 0.28201 0.0
C766 C 0.50098 0.00699 0.29857 0.0
C767 C 0.49617 0.94913 0.29852 0.0
C768 C 0.54346 0.91543 0.29965 0.0
C769 C 0.59536 0.94109 0.3012 0.0
C770 C 0.60013 0.99895 0.30121 0.0
H771 H 0.52481 0.11591 0.27556 0.0
H772 H 0.54283 0.05089 0.28088 0.0
H773 H 0.47642 0.08233 0.28299 0.0
H774 H 0.46399 0.03194 0.2976 0.0
H775 H 0.4555 0.93083 0.29739 0.0
H776 H 0.3524 0.21247 0.54156 0.0
H777 H 0.25318 0.2328 0.54237 0.0
H778 H 0.29018 0.39907 0.55234 0.0
H779 H 0.38971 0.37864 0.55176 0.0
H780 H 0.19646 0.27079 0.5593 0.0
H781 H 0.17694 0.41764 0.5297 0.0
H782 H 0.23415 0.36953 0.53076 0.0
H783 H 0.23179 0.43019 0.53827 0.0
C784 C 0.33946 0.25353 0.54386 0.0
C785 C 0.37895 0.29439 0.54636 0.0
C786 C 0.2828 0.26505 0.54431 0.0
C787 C 0.26444 0.31764 0.54728 0.0
C788 C 0.3036 0.35859 0.54983 0.0
H789 H 0.92238 0.43917 0.55115 0.0
H790 H 0.02388 0.43293 0.55192 0.0
C791 C 0.36045 0.34699 0.54942 0.0
C792 C 0.2042 0.32844 0.54805 0.0
H793 H 0.09592 0.39881 0.53803 0.0
C794 C 0.17444 0.29896 0.55468 0.0
C795 C 0.17585 0.36557 0.54208 0.0
C796 C 0.20599 0.39746 0.53474 0.0
C797 C 0.1168 0.30512 0.55543 0.0
C798 C 0.08803 0.34074 0.54922 0.0
C799 C 0.11804 0.37142 0.54276 0.0
C800 C 0.02657 0.34453 0.549 0.0
C801 C 0.08734 0.27358 0.56289 0.0
C802 C 0.99449 0.29704 0.54701 0.0
C803 C 0.93666 0.30038 0.5466 0.0
C804 C 0.90963 0.35149 0.54807 0.0
C805 C 0.94186 0.39915 0.55002 0.0
C806 C 0.99985 0.3957 0.55044 0.0
H807 H 0.11607 0.26261 0.56878 0.0
H808 H 0.05227 0.298 0.56578 0.0
H809 H 0.07057 0.23437 0.55975 0.0
H810 H 0.01422 0.25736 0.54565 0.0
H811 H 0.91321 0.2629 0.54503 0.0
H812 H 0.16842 0.86359 0.80457 0.0
H813 H 0.14746 0.76424 0.80472 0.0
H814 H 1.00121 0.79143 0.78745 0.0
H815 H 0.02245 0.89069 0.78711 0.0
H816 H 0.04619 0.70677 0.81041 0.0
H817 H 0.09651 0.67506 0.77265 0.0
H818 H 0.11835 0.73589 0.77937 0.0
H819 H 0.04759 0.72924 0.77533 0.0
C820 C 0.13152 0.84845 0.80087 0.0
C821 C 0.09668 0.88506 0.79594 0.0
C822 C 0.11954 0.79178 0.80099 0.0
C823 C 0.07299 0.77057 0.79606 0.0
C824 C 0.03747 0.80707 0.79127 0.0
H825 H 0.9769 0.42951 0.78272 0.0
H826 H 0.97959 0.53061 0.78434 0.0
C827 C 0.04929 0.86388 0.79118 0.0
C828 C 0.06311 0.70994 0.79564 0.0
H829 H 0.06592 0.59711 0.78074 0.0
C830 C 0.05027 0.68269 0.80393 0.0
C831 C 0.0685 0.67883 0.78716 0.0
C832 C 0.08388 0.70594 0.77812 0.0
C833 C 0.0423 0.62495 0.80397 0.0
C834 C 0.04871 0.59362 0.79552 0.0
C835 C 0.06095 0.62113 0.78721 0.0
C836 C 0.04428 0.53217 0.79513 0.0
C837 C 0.02634 0.59825 0.81302 0.0
C838 C 0.07967 0.49932 0.80068 0.0
C839 C 0.07798 0.44143 0.79981 0.0
C840 C 0.04139 0.41529 0.79328 0.0
C841 C 0.00561 0.44828 0.78781 0.0
C842 C 0.0071 0.50611 0.78872 0.0
H843 H 0.00669 0.6286 0.81791 0.0
H844 H 0.99724 0.56317 0.81167 0.0
H845 H 0.06421 0.582 0.81658 0.0
H846 H 0.10967 0.51845 0.8055 0.0
H847 H 0.10633 0.41727 0.80409 0.0
H848 H 0.96645 0.28548 0.95002 0.0
H849 H 0.86544 0.27898 0.94961 0.0
H850 H 0.85832 0.38342 0.92536 0.0
H851 H 0.95969 0.39197 0.92597 0.0
H852 H 0.77887 0.41142 0.93715 0.0
H853 H 0.77491 0.18359 0.93195 0.0
H854 H 0.8129 0.20321 0.94247 0.0
H855 H 0.83788 0.22331 0.93118 0.0
C856 C 0.94344 0.30704 0.94458 0.0
C857 C 0.97111 0.33887 0.93798 0.0
C858 C 0.88562 0.30298 0.94432 0.0
C859 C 0.8542 0.32946 0.9373 0.0
C860 C 0.88165 0.36224 0.9308 0.0
H861 H 0.51105 0.23061 0.92655 0.0
H862 H 0.60996 0.25053 0.92516 0.0
C863 C 0.93958 0.36707 0.93115 0.0
C864 C 0.79278 0.32312 0.93682 0.0
H865 H 0.68973 0.22612 0.93648 0.0
C866 C 0.75933 0.37091 0.93692 0.0
C867 C 0.7671 0.27031 0.93632 0.0
C868 C 0.80009 0.21727 0.93537 0.0
C869 C 0.70107 0.36731 0.93678 0.0
C870 C 0.67551 0.31443 0.93685 0.0
C871 C 0.70905 0.26674 0.93654 0.0
C872 C 0.61423 0.30702 0.93722 0.0
C873 C 0.66773 0.42025 0.93638 0.0
C874 C 0.58321 0.33245 0.94439 0.0
C875 C 0.52629 0.32196 0.94505 0.0
C876 C 0.49969 0.28493 0.93868 0.0
C877 C 0.5306 0.25955 0.93152 0.0
C878 C 0.58712 0.27086 0.93074 0.0
H879 H 0.69175 0.45416 0.93321 0.0
H880 H 0.62855 0.41429 0.93224 0.0
H881 H 0.65728 0.43385 0.94363 0.0
H882 H 0.60325 0.35901 0.94967 0.0
H883 H 0.50364 0.34096 0.95078 0.0
H884 H 0.01623 0.01499 0.1984 0.0
H885 H 0.99836 0.11478 0.19792 0.0
H886 H 0.15589 0.1394 0.18484 0.0
H887 H 0.1738 0.03964 0.1852 0.0
H888 H 0.14051 0.2062 0.20068 0.0
H889 H 0.95873 0.21883 0.17615 0.0
H890 H 0.95135 0.1708 0.18553 0.0
H891 H 1.00269 0.1582 0.17677 0.0
C892 C 0.04622 0.04127 0.19512 0.0
C893 C 0.096 0.01914 0.19166 0.0
C894 C 0.03605 0.09846 0.1949 0.0
C895 C 0.07545 0.13447 0.19122 0.0
C896 C 0.12475 0.11235 0.18765 0.0
H897 H 0.0579 0.48975 0.18158 0.0
H898 H 0.06315 0.38849 0.17979 0.0
C899 C 0.13493 0.05534 0.18787 0.0
C900 C 0.06767 0.19553 0.1918 0.0
H901 H 0.98394 0.30167 0.18458 0.0
C902 C 0.10636 0.22707 0.19713 0.0
C903 C 0.02334 0.2227 0.18711 0.0
C904 C 0.98184 0.19108 0.18099 0.0
C905 C 0.10156 0.28493 0.19802 0.0
C906 C 0.05646 0.31198 0.19354 0.0
C907 C 0.01818 0.28068 0.18807 0.0
C908 C 0.04888 0.37287 0.19446 0.0
C909 C 0.14518 0.31681 0.20366 0.0
C910 C 0.03783 0.39743 0.20326 0.0
C911 C 0.03477 0.45511 0.20431 0.0
C912 C 0.04265 0.48941 0.19657 0.0
C913 C 0.05185 0.46456 0.18769 0.0
C914 C 0.05476 0.40674 0.18665 0.0
H915 H 0.18331 0.29174 0.20484 0.0
H916 H 0.15662 0.35545 0.20005 0.0
H917 H 0.1284 0.32863 0.21062 0.0
H918 H 0.03244 0.37193 0.20935 0.0
H919 H 0.0273 0.47279 0.21123 0.0
H920 H 0.9813 0.83049 0.42929 0.0
H921 H 0.0798 0.85103 0.42729 0.0
H922 H 0.12047 0.76158 0.45245 0.0
H923 H 0.02228 0.74237 0.45466 0.0
H924 H 0.17537 0.86367 0.45143 0.0
H925 H 0.19624 0.73655 0.41858 0.0
H926 H 0.14277 0.7886 0.4184 0.0
H927 H 0.13723 0.73095 0.42611 0.0
C928 C 0.01097 0.81629 0.43452 0.0
C929 C 0.99374 0.78551 0.44222 0.0
C930 C 0.06742 0.82731 0.43328 0.0
C931 C 0.10752 0.80739 0.43968 0.0
C932 C 0.09028 0.77732 0.44742 0.0
H933 H 0.45821 0.74837 0.43755 0.0
H934 H 0.35683 0.74425 0.43726 0.0
C935 C 0.03411 0.76624 0.44865 0.0
C936 C 0.16765 0.81716 0.43839 0.0
H937 H 0.27631 0.78345 0.4243 0.0
C938 C 0.19742 0.84657 0.44546 0.0
C939 C 0.19635 0.79417 0.43064 0.0
C940 C 0.1668 0.76039 0.42302 0.0
C941 C 0.25521 0.85306 0.44508 0.0
C942 C 0.28393 0.83021 0.43733 0.0
C943 C 0.25411 0.8013 0.43019 0.0
C944 C 0.34531 0.83317 0.4368 0.0
C945 C 0.28528 0.88253 0.45315 0.0
C946 C 0.3725 0.88448 0.43641 0.0
C947 C 0.43052 0.88702 0.4366 0.0
C948 C 0.46244 0.83823 0.43715 0.0
C949 C 0.43497 0.78677 0.43718 0.0
C950 C 0.37699 0.78431 0.43699 0.0
H951 H 0.25901 0.88682 0.45945 0.0
H952 H 0.32384 0.86001 0.45514 0.0
H953 H 0.29703 0.92477 0.45097 0.0
H954 H 0.34884 0.92264 0.43608 0.0
H955 H 0.45028 0.92732 0.4365 0.0
H956 H 0.44545 0.96519 0.68028 0.0
H957 H 0.45014 0.86348 0.6806 0.0
H958 H 0.61319 0.8734 0.69355 0.0
H959 H 0.60925 0.97455 0.69323 0.0
H960 H 0.54234 0.78846 0.67288 0.0
H961 H 0.51159 0.77904 0.71145 0.0
H962 H 0.49036 0.83799 0.7046 0.0
H963 H 0.56223 0.82816 0.70769 0.0
C964 C 0.48243 0.94572 0.68315 0.0
C965 C 0.52685 0.97806 0.68677 0.0
C966 C 0.48501 0.88767 0.68332 0.0
C967 C 0.53174 0.86116 0.68719 0.0
C968 C 0.57653 0.89321 0.69062 0.0
H969 H 0.65094 0.53779 0.70066 0.0
H970 H 0.63082 0.6364 0.69893 0.0
C971 C 0.57421 0.95105 0.6904 0.0
C972 C 0.53392 0.79997 0.68782 0.0
H973 H 0.53879 0.69577 0.70368 0.0
C974 C 0.54095 0.76792 0.67959 0.0
C975 C 0.53219 0.77363 0.69659 0.0
C976 C 0.52327 0.80624 0.70561 0.0
C977 C 0.54864 0.71014 0.67993 0.0
C978 C 0.54793 0.6838 0.68874 0.0
C979 C 0.53936 0.71593 0.69694 0.0
C980 C 0.55917 0.62355 0.68971 0.0
C981 C 0.55988 0.67827 0.67092 0.0
C982 C 0.52537 0.58337 0.68516 0.0
C983 C 0.53709 0.52678 0.68609 0.0
C984 C 0.58222 0.5094 0.69173 0.0
C985 C 0.6157 0.5498 0.69631 0.0
C986 C 0.60416 0.60619 0.69534 0.0
H987 H 0.5724 0.70609 0.66521 0.0
H988 H 0.59305 0.64692 0.67202 0.0
H989 H 0.52158 0.6562 0.66853 0.0
H990 H 0.49001 0.59573 0.68087 0.0
H991 H 0.51155 0.49691 0.68222 0.0
loop_
_geom_bond_atom_site_label_1
_geom_bond_atom_site_label_2
_geom_bond_distance
_geom_bond_site_symmetry_2
_ccdc_geom_bond_type
Co0 O3 1.970 . S
Co0 N17 1.989 . S
Co0 O25 1.967 . S
Co0 O32 1.920 . S
Co1 O4 1.966 . S
Co1 N10 2.022 1_455 S
Co1 N18 1.993 . S
Co1 O26 1.941 . S
C2 O3 1.258 . S
C2 O4 1.263 . S
O3 Co0 1.970 . S
O3 C2 1.258 . S
O4 Co1 1.966 . S
O4 C2 1.263 . S
C5 O6 1.235 . S
C5 O32 1.289 . S
O6 C5 1.235 . S
C7 C9 1.400 . S
C7 N10 1.351 . S
C7 C12 1.501 . S
C8 C9 1.387 . S
C8 N11 1.341 . S
C9 C7 1.400 . S
C9 C8 1.387 . S
N10 Co1 2.022 1_655 S
N10 C7 1.351 . S
N10 N11 1.365 . S
N11 C8 1.341 . S
N11 N10 1.365 . S
N11 H31 0.862 . S
C12 C7 1.501 . S
C12 H13 0.961 1_655 S
C12 H14 0.961 . S
C12 H15 0.960 . S
H13 C12 0.961 1_455 S
H14 C12 0.961 . S
H15 C12 0.960 . S
C16 N17 1.342 . S
C16 C20 1.401 . S
C16 C21 1.499 . S
N17 Co0 1.989 . S
N17 C16 1.342 . S
N17 N18 1.388 . S
N18 Co1 1.993 . S
N18 N17 1.388 . S
N18 C19 1.346 . S
C19 N18 1.346 . S
C19 C20 1.396 . S
C19 C29 1.510 . S
C20 C16 1.401 . S
C20 C19 1.396 . S
C21 C16 1.499 . S
C21 H22 0.959 . S
C21 H23 0.960 . S
C21 H24 0.961 . S
H22 C21 0.959 . S
H23 C21 0.960 . S
H24 C21 0.961 . S
O25 Co0 1.967 . S
O25 C33 1.258 . S
O26 Co1 1.941 . S
O26 C33 1.266 . S
H27 C29 0.959 . S
H28 C29 0.961 . S
C29 C19 1.510 . S
C29 H27 0.959 . S
C29 H28 0.961 . S
C29 H30 0.961 . S
H30 C29 0.961 . S
H31 N11 0.862 . S
O32 Co0 1.920 . S
O32 C5 1.289 . S
C33 O25 1.258 . S
C33 O26 1.266 . S
Co34 O37 1.970 . S
Co34 N51 1.989 . S
Co34 O59 1.967 . S
Co34 O66 1.920 . S
Co35 O38 1.966 . S
Co35 N44 2.022 . S
Co35 N52 1.993 . S
Co35 O60 1.941 . S
C36 O37 1.258 . S
C36 O38 1.263 . S
O37 Co34 1.970 . S
O37 C36 1.258 . S
O38 Co35 1.966 . S
O38 C36 1.263 . S
C39 O40 1.235 . S
C39 O66 1.289 . S
O40 C39 1.235 . S
C41 C43 1.400 . S
C41 N44 1.351 . S
C41 C46 1.501 . S
C42 C43 1.387 . S
C42 N45 1.341 . S
C43 C41 1.400 . S
C43 C42 1.387 . S
N44 Co35 2.022 . S
N44 C41 1.351 . S
N44 N45 1.365 . S
N45 C42 1.341 . S
N45 N44 1.365 . S
N45 H65 0.862 . S
C46 C41 1.501 . S
C46 H47 0.961 . S
C46 H48 0.961 . S
C46 H49 0.960 . S
H47 C46 0.961 . S
H48 C46 0.961 . S
H49 C46 0.960 . S
C50 N51 1.342 . S
C50 C54 1.401 . S
C50 C55 1.499 . S
N51 Co34 1.989 . S
N51 C50 1.342 . S
N51 N52 1.388 . S
N52 Co35 1.993 . S
N52 N51 1.388 . S
N52 C53 1.346 . S
C53 N52 1.346 . S
C53 C54 1.396 . S
C53 C63 1.510 . S
C54 C50 1.401 . S
C54 C53 1.396 . S
C55 C50 1.499 . S
C55 H56 0.959 . S
C55 H57 0.960 . S
C55 H58 0.961 . S
H56 C55 0.959 . S
H57 C55 0.960 . S
H58 C55 0.961 . S
O59 Co34 1.967 . S
O59 C67 1.258 . S
O60 Co35 1.941 . S
O60 C67 1.266 . S
H61 C63 0.959 . S
H62 C63 0.961 . S
C63 C53 1.510 . S
C63 H61 0.959 . S
C63 H62 0.961 . S
C63 H64 0.960 . S
H64 C63 0.960 . S
H65 N45 0.862 . S
O66 Co34 1.920 . S
O66 C39 1.289 . S
C67 O59 1.258 . S
C67 O60 1.266 . S
Co68 O71 1.970 . S
Co68 N85 1.989 . S
Co68 O93 1.967 . S
Co68 O100 1.920 . S
Co69 O72 1.966 . S
Co69 N78 2.022 . S
Co69 N86 1.993 . S
Co69 O94 1.941 . S
C70 O71 1.258 . S
C70 O72 1.263 . S
O71 Co68 1.970 . S
O71 C70 1.258 . S
O72 Co69 1.966 . S
O72 C70 1.263 . S
C73 O74 1.235 . S
C73 O100 1.289 . S
O74 C73 1.235 . S
C75 C77 1.400 . S
C75 N78 1.351 . S
C75 C80 1.501 . S
C76 C77 1.387 . S
C76 N79 1.341 . S
C77 C75 1.400 . S
C77 C76 1.387 . S
N78 Co69 2.022 . S
N78 C75 1.351 . S
N78 N79 1.365 . S
N79 C76 1.341 . S
N79 N78 1.365 . S
N79 H99 0.862 . S
C80 C75 1.501 . S
C80 H81 0.961 . S
C80 H82 0.961 . S
C80 H83 0.960 . S
H81 C80 0.961 . S
H82 C80 0.961 . S
H83 C80 0.960 . S
C84 N85 1.342 . S
C84 C88 1.401 . S
C84 C89 1.499 . S
N85 Co68 1.989 . S
N85 C84 1.342 . S
N85 N86 1.388 . S
N86 Co69 1.993 . S
N86 N85 1.388 . S
N86 C87 1.346 . S
C87 N86 1.346 . S
C87 C88 1.396 . S
C87 C97 1.510 . S
C88 C84 1.401 . S
C88 C87 1.396 . S
C89 C84 1.499 . S
C89 H90 0.959 . S
C89 H91 0.960 . S
C89 H92 0.961 . S
H90 C89 0.959 . S
H91 C89 0.960 . S
H92 C89 0.961 . S
O93 Co68 1.967 . S
O93 C101 1.258 . S
O94 Co69 1.941 . S
O94 C101 1.266 . S
H95 C97 0.959 . S
H96 C97 0.961 . S
C97 C87 1.510 . S
C97 H95 0.959 . S
C97 H96 0.961 . S
C97 H98 0.960 . S
H98 C97 0.960 . S
H99 N79 0.862 . S
O100 Co68 1.920 . S
O100 C73 1.289 . S
C101 O93 1.258 . S
C101 O94 1.266 . S
Co102 O105 1.970 . S
Co102 N119 1.989 . S
Co102 O127 1.967 . S
Co102 O134 1.920 . S
Co103 O106 1.966 . S
Co103 N112 2.022 . S
Co103 N120 1.993 . S
Co103 O128 1.941 . S
C104 O105 1.258 . S
C104 O106 1.263 . S
O105 Co102 1.970 . S
O105 C104 1.258 . S
O106 Co103 1.966 . S
O106 C104 1.263 . S
C107 O108 1.235 . S
C107 O134 1.289 . S
O108 C107 1.235 . S
C109 C111 1.400 1_545 S
C109 N112 1.351 . S
C109 C114 1.501 . S
C110 C111 1.387 . S
C110 N113 1.341 1_565 S
C111 C109 1.400 1_565 S
C111 C110 1.387 . S
N112 Co103 2.022 . S
N112 C109 1.351 . S
N112 N113 1.365 . S
N113 C110 1.341 1_545 S
N113 N112 1.365 . S
N113 H133 0.862 . S
C114 C109 1.501 . S
C114 H115 0.961 . S
C114 H116 0.961 1_455 S
C114 H117 0.960 . S
H115 C114 0.961 . S
H116 C114 0.961 1_655 S
H117 C114 0.960 . S
C118 N119 1.342 . S
C118 C122 1.401 . S
C118 C123 1.499 . S
N119 Co102 1.989 . S
N119 C118 1.342 . S
N119 N120 1.388 . S
N120 Co103 1.993 . S
N120 N119 1.388 . S
N120 C121 1.346 . S
C121 N120 1.346 . S
C121 C122 1.396 . S
C121 C131 1.510 . S
C122 C118 1.401 . S
C122 C121 1.396 . S
C123 C118 1.499 . S
C123 H124 0.959 . S
C123 H125 0.960 . S
C123 H126 0.961 . S
H124 C123 0.959 . S
H125 C123 0.960 . S
H126 C123 0.961 . S
O127 Co102 1.967 . S
O127 C135 1.258 . S
O128 Co103 1.941 . S
O128 C135 1.266 . S
H129 C131 0.959 . S
H130 C131 0.961 . S
C131 C121 1.510 . S
C131 H129 0.959 . S
C131 H130 0.961 . S
C131 H132 0.960 . S
H132 C131 0.960 . S
H133 N113 0.862 . S
O134 Co102 1.920 . S
O134 C107 1.289 . S
C135 O127 1.258 . S
C135 O128 1.266 . S
Co136 O139 1.970 . S
Co136 N153 1.989 . S
Co136 O161 1.967 . S
Co136 O168 1.920 . S
Co137 O140 1.966 . S
Co137 N146 2.022 . S
Co137 N154 1.993 . S
Co137 O162 1.941 . S
C138 O139 1.258 . S
C138 O140 1.263 . S
O139 Co136 1.970 . S
O139 C138 1.258 . S
O140 Co137 1.966 . S
O140 C138 1.263 . S
C141 O142 1.235 . S
C141 O168 1.289 . S
O142 C141 1.235 . S
C143 C145 1.400 . S
C143 N146 1.351 . S
C143 C148 1.501 . S
C144 C145 1.387 . S
C144 N147 1.341 . S
C145 C143 1.400 . S
C145 C144 1.387 . S
N146 Co137 2.022 . S
N146 C143 1.351 . S
N146 N147 1.365 . S
N147 C144 1.341 . S
N147 N146 1.365 . S
N147 H167 0.862 . S
C148 C143 1.501 . S
C148 H149 0.961 . S
C148 H150 0.961 . S
C148 H151 0.960 . S
H149 C148 0.961 . S
H150 C148 0.961 . S
H151 C148 0.960 . S
C152 N153 1.342 . S
C152 C156 1.401 . S
C152 C157 1.499 . S
N153 Co136 1.989 . S
N153 C152 1.342 . S
N153 N154 1.388 . S
N154 Co137 1.993 . S
N154 N153 1.388 . S
N154 C155 1.346 . S
C155 N154 1.346 . S
C155 C156 1.396 . S
C155 C165 1.510 . S
C156 C152 1.401 . S
C156 C155 1.396 . S
C157 C152 1.499 . S
C157 H158 0.959 . S
C157 H159 0.960 . S
C157 H160 0.961 . S
H158 C157 0.959 . S
H159 C157 0.960 . S
H160 C157 0.961 . S
O161 Co136 1.967 . S
O161 C169 1.258 . S
O162 Co137 1.941 . S
O162 C169 1.266 . S
H163 C165 0.959 . S
H164 C165 0.961 . S
C165 C155 1.510 . S
C165 H163 0.959 . S
C165 H164 0.961 . S
C165 H166 0.960 . S
H166 C165 0.960 . S
H167 N147 0.862 . S
O168 Co136 1.920 . S
O168 C141 1.289 . S
C169 O161 1.258 . S
C169 O162 1.266 . S
Co170 O173 1.970 . S
Co170 N187 1.989 . S
Co170 O195 1.967 . S
Co170 O202 1.920 . S
Co171 O174 1.966 . S
Co171 N180 2.022 . S
Co171 N188 1.993 . S
Co171 O196 1.941 . S
C172 O173 1.258 . S
C172 O174 1.263 . S
O173 Co170 1.970 . S
O173 C172 1.258 . S
O174 Co171 1.966 . S
O174 C172 1.263 . S
C175 O176 1.235 . S
C175 O202 1.289 . S
O176 C175 1.235 . S
C177 C179 1.400 . S
C177 N180 1.351 . S
C177 C182 1.501 . S
C178 C179 1.387 . S
C178 N181 1.341 . S
C179 C177 1.400 . S
C179 C178 1.387 . S
N180 Co171 2.022 . S
N180 C177 1.351 . S
N180 N181 1.365 . S
N181 C178 1.341 . S
N181 N180 1.365 . S
N181 H201 0.862 . S
C182 C177 1.501 . S
C182 H183 0.961 . S
C182 H184 0.961 1_455 S
C182 H185 0.960 . S
H183 C182 0.961 . S
H184 C182 0.961 1_655 S
H185 C182 0.960 . S
C186 N187 1.342 . S
C186 C190 1.401 . S
C186 C191 1.499 . S
N187 Co170 1.989 . S
N187 C186 1.342 . S
N187 N188 1.388 . S
N188 Co171 1.993 . S
N188 N187 1.388 . S
N188 C189 1.346 . S
C189 N188 1.346 . S
C189 C190 1.396 . S
C189 C199 1.510 . S
C190 C186 1.401 . S
C190 C189 1.396 . S
C191 C186 1.499 . S
C191 H192 0.959 . S
C191 H193 0.960 . S
C191 H194 0.961 . S
H192 C191 0.959 . S
H193 C191 0.960 . S
H194 C191 0.961 . S
O195 Co170 1.967 . S
O195 C203 1.258 . S
O196 Co171 1.941 . S
O196 C203 1.266 . S
H197 C199 0.959 . S
H198 C199 0.961 . S
C199 C189 1.510 . S
C199 H197 0.959 . S
C199 H198 0.961 . S
C199 H200 0.960 . S
H200 C199 0.960 . S
H201 N181 0.862 . S
O202 Co170 1.920 . S
O202 C175 1.289 . S
C203 O195 1.258 . S
C203 O196 1.266 . S
Co204 O207 1.970 . S
Co204 N221 1.989 . S
Co204 O229 1.967 . S
Co204 O236 1.920 . S
Co205 O208 1.966 . S
Co205 N214 2.022 . S
Co205 N222 1.993 . S
Co205 O230 1.941 . S
C206 O207 1.258 . S
C206 O208 1.263 . S
O207 Co204 1.970 . S
O207 C206 1.258 . S
O208 Co205 1.966 . S
O208 C206 1.263 . S
C209 O210 1.235 . S
C209 O236 1.289 . S
O210 C209 1.235 . S
C211 C213 1.400 . S
C211 N214 1.351 . S
C211 C216 1.501 . S
C212 C213 1.387 . S
C212 N215 1.341 . S
C213 C211 1.400 . S
C213 C212 1.387 . S
N214 Co205 2.022 . S
N214 C211 1.351 . S
N214 N215 1.365 . S
N215 C212 1.341 . S
N215 N214 1.365 . S
N215 H235 0.862 . S
C216 C211 1.501 . S
C216 H217 0.961 . S
C216 H218 0.961 . S
C216 H219 0.960 . S
H217 C216 0.961 . S
H218 C216 0.961 . S
H219 C216 0.960 . S
C220 N221 1.342 . S
C220 C224 1.401 . S
C220 C225 1.499 . S
N221 Co204 1.989 . S
N221 C220 1.342 . S
N221 N222 1.388 . S
N222 Co205 1.993 . S
N222 N221 1.388 . S
N222 C223 1.346 . S
C223 N222 1.346 . S
C223 C224 1.396 . S
C223 C233 1.510 . S
C224 C220 1.401 . S
C224 C223 1.396 . S
C225 C220 1.499 . S
C225 H226 0.959 . S
C225 H227 0.960 . S
C225 H228 0.961 . S
H226 C225 0.959 . S
H227 C225 0.960 . S
H228 C225 0.961 . S
O229 Co204 1.967 . S
O229 C237 1.258 . S
O230 Co205 1.941 . S
O230 C237 1.266 . S
H231 C233 0.959 . S
H232 C233 0.961 . S
C233 C223 1.510 . S
C233 H231 0.959 . S
C233 H232 0.961 . S
C233 H234 0.960 . S
H234 C233 0.960 . S
H235 N215 0.862 . S
O236 Co204 1.920 . S
O236 C209 1.289 . S
C237 O229 1.258 . S
C237 O230 1.266 . S
Co238 O241 1.970 . S
Co238 N255 1.989 . S
Co238 O263 1.967 . S
Co238 O270 1.920 . S
Co239 O242 1.966 . S
Co239 N248 2.022 . S
Co239 N256 1.993 . S
Co239 O264 1.941 . S
C240 O241 1.258 . S
C240 O242 1.263 . S
O241 Co238 1.970 . S
O241 C240 1.258 . S
O242 Co239 1.966 . S
O242 C240 1.263 . S
C243 O244 1.235 . S
C243 O270 1.289 . S
O244 C243 1.235 . S
C245 C247 1.400 . S
C245 N248 1.351 . S
C245 C250 1.501 . S
C246 C247 1.387 . S
C246 N249 1.341 . S
C247 C245 1.400 . S
C247 C246 1.387 . S
N248 Co239 2.022 . S
N248 C245 1.351 . S
N248 N249 1.365 . S
N249 C246 1.341 . S
N249 N248 1.365 . S
N249 H269 0.862 . S
C250 C245 1.501 . S
C250 H251 0.961 . S
C250 H252 0.961 . S
C250 H253 0.960 . S
H251 C250 0.961 . S
H252 C250 0.961 . S
H253 C250 0.960 . S
C254 N255 1.342 . S
C254 C258 1.401 . S
C254 C259 1.499 . S
N255 Co238 1.989 . S
N255 C254 1.342 . S
N255 N256 1.388 . S
N256 Co239 1.993 . S
N256 N255 1.388 . S
N256 C257 1.346 . S
C257 N256 1.346 . S
C257 C258 1.396 . S
C257 C267 1.510 . S
C258 C254 1.401 . S
C258 C257 1.396 . S
C259 C254 1.499 . S
C259 H260 0.959 . S
C259 H261 0.960 . S
C259 H262 0.961 . S
H260 C259 0.959 . S
H261 C259 0.960 . S
H262 C259 0.961 . S
O263 Co238 1.967 . S
O263 C271 1.258 . S
O264 Co239 1.941 . S
O264 C271 1.266 . S
H265 C267 0.959 . S
H266 C267 0.961 . S
C267 C257 1.510 . S
C267 H265 0.959 . S
C267 H266 0.961 . S
C267 H268 0.960 . S
H268 C267 0.960 . S
H269 N249 0.862 . S
O270 Co238 1.920 . S
O270 C243 1.289 . S
C271 O263 1.258 . S
C271 O264 1.266 . S
H272 C280 0.929 . S
H273 C282 0.930 . S
H274 C284 0.930 . S
H275 C287 0.929 . S
H276 C290 0.930 . S
H277 C292 0.960 . S
H278 C292 0.960 . S
H279 C292 0.960 . S
C280 H272 0.929 . S
C280 C281 1.377 . S
C280 C282 1.384 . S
C281 C280 1.377 . S
C281 C287 1.390 . S
C282 H273 0.930 . S
C282 C280 1.384 . S
C282 C283 1.372 . S
C283 C282 1.372 . S
C283 C284 1.400 . S
C283 C288 1.490 . S
C284 H274 0.930 . S
C284 C283 1.400 . S
C284 C287 1.386 . S
H285 C301 0.930 . S
H286 C302 0.931 . S
C287 H275 0.929 . S
C287 C281 1.390 . S
C287 C284 1.386 . S
C288 C283 1.490 . S
C288 C290 1.395 . S
C288 C291 1.403 . S
H289 C295 0.930 . S
C290 H276 0.930 . S
C290 C288 1.395 . S
C290 C293 1.403 . S
C291 C288 1.403 . S
C291 C292 1.524 . S
C291 C295 1.400 . S
C292 H277 0.960 . S
C292 H278 0.960 . S
C292 H279 0.960 . S
C292 C291 1.524 . S
C293 C290 1.403 . S
C293 C294 1.392 . S
C293 C297 1.495 . S
C294 C293 1.392 . S
C294 C295 1.385 . S
C294 C296 1.478 . S
C295 H289 0.930 . S
C295 C291 1.400 . S
C295 C294 1.385 . S
C296 C294 1.478 . S
C296 C298 1.381 . S
C296 C302 1.383 . S
C297 C293 1.495 . S
C297 H303 0.959 . S
C297 H304 0.961 . S
C297 H305 0.960 . S
C298 C296 1.381 . S
C298 C299 1.394 . S
C298 H306 0.930 . S
C299 C298 1.394 . S
C299 C300 1.383 . S
C299 H307 0.929 . S
C300 C299 1.383 . S
C300 C301 1.377 . S
C301 H285 0.930 . S
C301 C300 1.377 . S
C301 C302 1.379 . S
C302 H286 0.931 . S
C302 C296 1.383 . S
C302 C301 1.379 . S
H303 C297 0.959 . S
H304 C297 0.961 . S
H305 C297 0.960 . S
H306 C298 0.930 . S
H307 C299 0.929 . S
H308 C316 0.929 . S
H309 C318 0.930 . S
H310 C320 0.930 . S
H311 C323 0.929 . S
H312 C326 0.930 . S
H313 C328 0.960 . S
H314 C328 0.960 . S
H315 C328 0.960 . S
C316 H308 0.929 . S
C316 C317 1.377 . S
C316 C318 1.384 . S
C317 C316 1.377 . S
C317 C323 1.390 . S
C318 H309 0.930 . S
C318 C316 1.384 . S
C318 C319 1.372 . S
C319 C318 1.372 . S
C319 C320 1.400 . S
C319 C324 1.490 . S
C320 H310 0.930 . S
C320 C319 1.400 . S
C320 C323 1.386 . S
H321 C337 0.930 . S
H322 C338 0.931 . S
C323 H311 0.929 . S
C323 C317 1.390 . S
C323 C320 1.386 . S
C324 C319 1.490 . S
C324 C326 1.395 . S
C324 C327 1.403 . S
H325 C331 0.930 . S
C326 H312 0.930 . S
C326 C324 1.395 . S
C326 C329 1.403 . S
C327 C324 1.403 . S
C327 C328 1.524 . S
C327 C331 1.400 . S
C328 H313 0.960 . S
C328 H314 0.960 . S
C328 H315 0.960 . S
C328 C327 1.524 . S
C329 C326 1.403 . S
C329 C330 1.392 . S
C329 C333 1.495 . S
C330 C329 1.392 . S
C330 C331 1.385 . S
C330 C332 1.478 . S
C331 H325 0.930 . S
C331 C327 1.400 . S
C331 C330 1.385 . S
C332 C330 1.478 . S
C332 C334 1.381 . S
C332 C338 1.383 . S
C333 C329 1.495 . S
C333 H339 0.959 . S
C333 H340 0.961 . S
C333 H341 0.960 . S
C334 C332 1.381 . S
C334 C335 1.394 . S
C334 H342 0.930 . S
C335 C334 1.394 . S
C335 C336 1.383 . S
C335 H343 0.929 . S
C336 C335 1.383 . S
C336 C337 1.377 . S
C337 H321 0.930 . S
C337 C336 1.377 . S
C337 C338 1.379 . S
C338 H322 0.931 . S
C338 C332 1.383 . S
C338 C337 1.379 . S
H339 C333 0.959 . S
H340 C333 0.961 . S
H341 C333 0.960 . S
H342 C334 0.930 . S
H343 C335 0.929 . S
H344 C352 0.929 . S
H345 C354 0.930 . S
H346 C356 0.930 . S
H347 C359 0.929 . S
H348 C362 0.930 . S
H349 C364 0.960 . S
H350 C364 0.960 . S
H351 C364 0.960 . S
C352 H344 0.929 . S
C352 C353 1.377 . S
C352 C354 1.384 . S
C353 C352 1.377 . S
C353 C359 1.390 . S
C354 H345 0.930 . S
C354 C352 1.384 . S
C354 C355 1.372 . S
C355 C354 1.372 . S
C355 C356 1.400 . S
C355 C360 1.490 . S
C356 H346 0.930 . S
C356 C355 1.400 . S
C356 C359 1.386 . S
H357 C373 0.930 . S
H358 C374 0.931 . S
C359 H347 0.929 . S
C359 C353 1.390 . S
C359 C356 1.386 . S
C360 C355 1.490 . S
C360 C362 1.395 . S
C360 C363 1.403 . S
H361 C367 0.930 . S
C362 H348 0.930 . S
C362 C360 1.395 . S
C362 C365 1.403 . S
C363 C360 1.403 . S
C363 C364 1.524 . S
C363 C367 1.400 . S
C364 H349 0.960 . S
C364 H350 0.960 . S
C364 H351 0.960 . S
C364 C363 1.524 . S
C365 C362 1.403 . S
C365 C366 1.392 . S
C365 C369 1.495 . S
C366 C365 1.392 . S
C366 C367 1.385 . S
C366 C368 1.478 . S
C367 H361 0.930 . S
C367 C363 1.400 . S
C367 C366 1.385 . S
C368 C366 1.478 . S
C368 C370 1.381 . S
C368 C374 1.383 . S
C369 C365 1.495 . S
C369 H375 0.959 . S
C369 H376 0.961 . S
C369 H377 0.960 . S
C370 C368 1.381 . S
C370 C371 1.394 . S
C370 H378 0.930 . S
C371 C370 1.394 . S
C371 C372 1.383 . S
C371 H379 0.929 . S
C372 C371 1.383 . S
C372 C373 1.377 . S
C373 H357 0.930 . S
C373 C372 1.377 . S
C373 C374 1.379 . S
C374 H358 0.931 . S
C374 C368 1.383 . S
C374 C373 1.379 . S
H375 C369 0.959 . S
H376 C369 0.961 . S
H377 C369 0.960 . S
H378 C370 0.930 . S
H379 C371 0.929 . S
H380 C388 0.929 . S
H381 C390 0.930 . S
H382 C392 0.930 . S
H383 C395 0.929 . S
H384 C398 0.930 . S
H385 C400 0.960 . S
H386 C400 0.960 . S
H387 C400 0.960 . S
C388 H380 0.929 . S
C388 C389 1.377 . S
C388 C390 1.384 . S
C389 C388 1.377 . S
C389 C395 1.390 . S
C390 H381 0.930 . S
C390 C388 1.384 . S
C390 C391 1.372 . S
C391 C390 1.372 . S
C391 C392 1.400 . S
C391 C396 1.490 . S
C392 H382 0.930 . S
C392 C391 1.400 . S
C392 C395 1.386 . S
H393 C409 0.930 . S
H394 C410 0.931 . S
C395 H383 0.929 . S
C395 C389 1.390 . S
C395 C392 1.386 . S
C396 C391 1.490 . S
C396 C398 1.395 . S
C396 C399 1.403 . S
H397 C403 0.930 . S
C398 H384 0.930 . S
C398 C396 1.395 . S
C398 C401 1.403 . S
C399 C396 1.403 . S
C399 C400 1.524 . S
C399 C403 1.400 . S
C400 H385 0.960 . S
C400 H386 0.960 . S
C400 H387 0.960 . S
C400 C399 1.524 . S
C401 C398 1.403 . S
C401 C402 1.392 . S
C401 C405 1.495 . S
C402 C401 1.392 . S
C402 C403 1.385 . S
C402 C404 1.478 . S
C403 H397 0.930 . S
C403 C399 1.400 . S
C403 C402 1.385 . S
C404 C402 1.478 . S
C404 C406 1.381 . S
C404 C410 1.383 . S
C405 C401 1.495 . S
C405 H411 0.959 . S
C405 H412 0.961 . S
C405 H413 0.960 . S
C406 C404 1.381 . S
C406 C407 1.394 . S
C406 H414 0.930 . S
C407 C406 1.394 . S
C407 C408 1.383 . S
C407 H415 0.929 . S
C408 C407 1.383 . S
C408 C409 1.377 . S
C409 H393 0.930 . S
C409 C408 1.377 . S
C409 C410 1.379 . S
C410 H394 0.931 . S
C410 C404 1.383 . S
C410 C409 1.379 . S
H411 C405 0.959 . S
H412 C405 0.961 . S
H413 C405 0.960 . S
H414 C406 0.930 . S
H415 C407 0.929 . S
H416 C424 0.929 . S
H417 C426 0.930 . S
H418 C428 0.930 . S
H419 C431 0.929 . S
H420 C434 0.928 . S
H421 C436 0.960 . S
H422 C436 0.960 . S
H423 C436 0.960 . S
C424 H416 0.929 . S
C424 C425 1.377 . S
C424 C426 1.384 . S
C425 C424 1.377 . S
C425 C431 1.390 . S
C426 H417 0.930 . S
C426 C424 1.384 . S
C426 C427 1.372 . S
C427 C426 1.372 . S
C427 C428 1.400 . S
C427 C432 1.490 . S
C428 H418 0.930 . S
C428 C427 1.400 . S
C428 C431 1.386 . S
H429 C445 0.930 . S
H430 C446 0.931 . S
C431 H419 0.929 . S
C431 C425 1.390 . S
C431 C428 1.386 . S
C432 C427 1.490 . S
C432 C434 1.414 . S
C432 C435 1.403 . S
H433 C439 0.939 . S
C434 H420 0.928 . S
C434 C432 1.414 . S
C434 C437 1.382 1_554 S
C435 C432 1.403 . S
C435 C436 1.524 . S
C435 C439 1.330 1_554 S
C436 H421 0.960 . S
C436 H422 0.960 . S
C436 H423 0.960 . S
C436 C435 1.524 . S
C437 C434 1.382 1_556 S
C437 C438 1.392 . S
C437 C441 1.495 . S
C438 C437 1.392 . S
C438 C439 1.452 . S
C438 C440 1.478 . S
C439 H433 0.939 . S
C439 C435 1.330 1_556 S
C439 C438 1.452 . S
C440 C438 1.478 . S
C440 C442 1.381 . S
C440 C446 1.383 . S
C441 C437 1.495 . S
C441 H447 0.959 . S
C441 H448 0.961 . S
C441 H449 0.960 . S
C442 C440 1.381 . S
C442 C443 1.394 . S
C442 H450 0.930 . S
C443 C442 1.394 . S
C443 C444 1.383 . S
C443 H451 0.929 . S
C444 C443 1.383 . S
C444 C445 1.377 . S
C445 H429 0.930 . S
C445 C444 1.377 . S
C445 C446 1.379 . S
C446 H430 0.931 . S
C446 C440 1.383 . S
C446 C445 1.379 . S
H447 C441 0.959 . S
H448 C441 0.961 . S
H449 C441 0.960 . S
H450 C442 0.930 . S
H451 C443 0.929 . S
H452 C460 0.929 . S
H453 C462 0.930 . S
H454 C464 0.930 . S
H455 C467 0.929 . S
H456 C470 0.930 . S
H457 C472 0.960 . S
H458 C472 0.960 . S
H459 C472 0.960 . S
C460 H452 0.929 . S
C460 C461 1.377 . S
C460 C462 1.384 . S
C461 C460 1.377 . S
C461 C467 1.390 . S
C462 H453 0.930 . S
C462 C460 1.384 . S
C462 C463 1.372 . S
C463 C462 1.372 . S
C463 C464 1.400 . S
C463 C468 1.490 . S
C464 H454 0.930 . S
C464 C463 1.400 . S
C464 C467 1.386 . S
H465 C481 0.930 1_455 S
H466 C482 0.931 . S
C467 H455 0.929 . S
C467 C461 1.390 . S
C467 C464 1.386 . S
C468 C463 1.490 . S
C468 C470 1.395 . S
C468 C471 1.403 . S
H469 C475 0.930 . S
C470 H456 0.930 . S
C470 C468 1.395 . S
C470 C473 1.403 . S
C471 C468 1.403 . S
C471 C472 1.524 . S
C471 C475 1.400 . S
C472 H457 0.960 . S
C472 H458 0.960 . S
C472 H459 0.960 . S
C472 C471 1.524 . S
C473 C470 1.403 . S
C473 C474 1.392 . S
C473 C477 1.495 . S
C474 C473 1.392 . S
C474 C475 1.385 . S
C474 C476 1.478 . S
C475 H469 0.930 . S
C475 C471 1.400 . S
C475 C474 1.385 . S
C476 C474 1.478 . S
C476 C478 1.381 . S
C476 C482 1.383 . S
C477 C473 1.495 . S
C477 H483 0.959 . S
C477 H484 0.961 . S
C477 H485 0.960 . S
C478 C476 1.381 . S
C478 C479 1.394 . S
C478 H486 0.930 . S
C479 C478 1.394 . S
C479 C480 1.383 . S
C479 H487 0.929 . S
C480 C479 1.383 . S
C480 C481 1.377 . S
C481 H465 0.930 1_655 S
C481 C480 1.377 . S
C481 C482 1.379 . S
C482 H466 0.931 . S
C482 C476 1.383 . S
C482 C481 1.379 . S
H483 C477 0.959 . S
H484 C477 0.961 . S
H485 C477 0.960 . S
H486 C478 0.930 . S
H487 C479 0.929 . S
H488 C496 0.929 . S
H489 C498 0.930 . S
H490 C500 0.930 . S
H491 C503 0.929 . S
H492 C506 0.930 . S
H493 C508 0.960 . S
H494 C508 0.960 . S
H495 C508 0.960 . S
C496 H488 0.929 . S
C496 C497 1.377 . S
C496 C498 1.384 . S
C497 C496 1.377 . S
C497 C503 1.390 . S
C498 H489 0.930 . S
C498 C496 1.384 . S
C498 C499 1.372 . S
C499 C498 1.372 . S
C499 C500 1.400 . S
C499 C504 1.490 . S
C500 H490 0.930 . S
C500 C499 1.400 . S
C500 C503 1.386 . S
H501 C517 0.930 . S
H502 C518 0.931 . S
C503 H491 0.929 . S
C503 C497 1.390 . S
C503 C500 1.386 . S
C504 C499 1.490 . S
C504 C506 1.395 . S
C504 C507 1.403 . S
H505 C511 0.930 . S
C506 H492 0.930 . S
C506 C504 1.395 . S
C506 C509 1.403 . S
C507 C504 1.403 . S
C507 C508 1.524 . S
C507 C511 1.400 . S
C508 H493 0.960 . S
C508 H494 0.960 . S
C508 H495 0.960 . S
C508 C507 1.524 . S
C509 C506 1.403 . S
C509 C510 1.392 . S
C509 C513 1.495 . S
C510 C509 1.392 . S
C510 C511 1.385 . S
C510 C512 1.478 . S
C511 H505 0.930 . S
C511 C507 1.400 . S
C511 C510 1.385 . S
C512 C510 1.478 . S
C512 C514 1.381 . S
C512 C518 1.383 . S
C513 C509 1.495 . S
C513 H519 0.959 . S
C513 H520 0.961 . S
C513 H521 0.960 . S
C514 C512 1.381 . S
C514 C515 1.394 . S
C514 H522 0.930 . S
C515 C514 1.394 . S
C515 C516 1.383 . S
C515 H523 0.929 . S
C516 C515 1.383 . S
C516 C517 1.377 . S
C517 H501 0.930 . S
C517 C516 1.377 . S
C517 C518 1.379 . S
C518 H502 0.931 . S
C518 C512 1.383 . S
C518 C517 1.379 . S
H519 C513 0.959 . S
H520 C513 0.961 . S
H521 C513 0.960 . S
H522 C514 0.930 . S
H523 C515 0.929 . S
H524 C532 0.929 . S
H525 C534 0.930 . S
H526 C536 0.930 . S
H527 C539 0.929 . S
H528 C542 0.930 . S
H529 C544 0.960 . S
H530 C544 0.960 . S
H531 C544 0.960 . S
C532 H524 0.929 . S
C532 C533 1.377 1_655 S
C532 C534 1.384 . S
C533 C532 1.377 1_455 S
C533 C539 1.390 . S
C534 H525 0.930 . S
C534 C532 1.384 . S
C534 C535 1.372 . S
C535 C534 1.372 . S
C535 C536 1.400 . S
C535 C540 1.490 . S
C536 H526 0.930 . S
C536 C535 1.400 . S
C536 C539 1.386 1_655 S
H537 C553 0.930 . S
H538 C554 0.931 . S
C539 H527 0.929 . S
C539 C533 1.390 . S
C539 C536 1.386 1_455 S
C540 C535 1.490 . S
C540 C542 1.395 . S
C540 C543 1.403 . S
H541 C547 0.930 . S
C542 H528 0.930 . S
C542 C540 1.395 . S
C542 C545 1.403 . S
C543 C540 1.403 . S
C543 C544 1.524 . S
C543 C547 1.400 . S
C544 H529 0.960 . S
C544 H530 0.960 . S
C544 H531 0.960 . S
C544 C543 1.524 . S
C545 C542 1.403 . S
C545 C546 1.392 . S
C545 C549 1.495 . S
C546 C545 1.392 . S
C546 C547 1.385 . S
C546 C548 1.478 . S
C547 H541 0.930 . S
C547 C543 1.400 . S
C547 C546 1.385 . S
C548 C546 1.478 . S
C548 C550 1.381 . S
C548 C554 1.383 . S
C549 C545 1.495 . S
C549 H555 0.959 . S
C549 H556 0.961 . S
C549 H557 0.960 . S
C550 C548 1.381 . S
C550 C551 1.394 . S
C550 H558 0.930 . S
C551 C550 1.394 . S
C551 C552 1.383 . S
C551 H559 0.929 . S
C552 C551 1.383 . S
C552 C553 1.377 . S
C553 H537 0.930 . S
C553 C552 1.377 . S
C553 C554 1.379 . S
C554 H538 0.931 . S
C554 C548 1.383 . S
C554 C553 1.379 . S
H555 C549 0.959 . S
H556 C549 0.961 . S
H557 C549 0.960 . S
H558 C550 0.930 . S
H559 C551 0.929 . S
H560 C568 0.929 . S
H561 C570 0.930 . S
H562 C572 0.930 . S
H563 C575 0.929 . S
H564 C578 0.930 . S
H565 C580 0.960 . S
H566 C580 0.960 . S
H567 C580 0.960 . S
C568 H560 0.929 . S
C568 C569 1.377 . S
C568 C570 1.384 . S
C569 C568 1.377 . S
C569 C575 1.390 . S
C570 H561 0.930 . S
C570 C568 1.384 . S
C570 C571 1.372 . S
C571 C570 1.372 . S
C571 C572 1.400 . S
C571 C576 1.490 . S
C572 H562 0.930 . S
C572 C571 1.400 . S
C572 C575 1.386 . S
H573 C589 0.930 . S
H574 C590 0.931 . S
C575 H563 0.929 . S
C575 C569 1.390 . S
C575 C572 1.386 . S
C576 C571 1.490 . S
C576 C578 1.395 . S
C576 C579 1.403 . S
H577 C583 0.930 . S
C578 H564 0.930 . S
C578 C576 1.395 . S
C578 C581 1.403 . S
C579 C576 1.403 . S
C579 C580 1.524 . S
C579 C583 1.400 . S
C580 H565 0.960 . S
C580 H566 0.960 . S
C580 H567 0.960 . S
C580 C579 1.524 . S
C581 C578 1.403 . S
C581 C582 1.392 . S
C581 C585 1.495 . S
C582 C581 1.392 . S
C582 C583 1.385 . S
C582 C584 1.478 . S
C583 H577 0.930 . S
C583 C579 1.400 . S
C583 C582 1.385 . S
C584 C582 1.478 . S
C584 C586 1.381 . S
C584 C590 1.383 . S
C585 C581 1.495 . S
C585 H591 0.959 . S
C585 H592 0.961 . S
C585 H593 0.960 . S
C586 C584 1.381 . S
C586 C587 1.394 . S
C586 H594 0.930 . S
C587 C586 1.394 . S
C587 C588 1.383 . S
C587 H595 0.929 . S
C588 C587 1.383 . S
C588 C589 1.377 . S
C589 H573 0.930 . S
C589 C588 1.377 . S
C589 C590 1.379 . S
C590 H574 0.931 . S
C590 C584 1.383 . S
C590 C589 1.379 . S
H591 C585 0.959 . S
H592 C585 0.961 . S
H593 C585 0.960 . S
H594 C586 0.930 . S
H595 C587 0.929 . S
H596 C604 0.929 . S
H597 C606 0.930 . S
H598 C608 0.930 . S
H599 C611 0.929 . S
H600 C614 0.930 . S
H601 C616 0.960 . S
H602 C616 0.960 . S
H603 C616 0.960 . S
C604 H596 0.929 . S
C604 C605 1.377 . S
C604 C606 1.384 . S
C605 C604 1.377 . S
C605 C611 1.390 . S
C606 H597 0.930 . S
C606 C604 1.384 . S
C606 C607 1.372 . S
C607 C606 1.372 . S
C607 C608 1.400 . S
C607 C612 1.490 . S
C608 H598 0.930 . S
C608 C607 1.400 . S
C608 C611 1.386 . S
H609 C625 0.930 . S
H610 C626 0.931 . S
C611 H599 0.929 . S
C611 C605 1.390 . S
C611 C608 1.386 . S
C612 C607 1.490 . S
C612 C614 1.395 . S
C612 C615 1.403 . S
H613 C619 0.930 . S
C614 H600 0.930 . S
C614 C612 1.395 . S
C614 C617 1.403 . S
C615 C612 1.403 . S
C615 C616 1.524 . S
C615 C619 1.400 . S
C616 H601 0.960 . S
C616 H602 0.960 . S
C616 H603 0.960 . S
C616 C615 1.524 . S
C617 C614 1.403 . S
C617 C618 1.392 . S
C617 C621 1.495 . S
C618 C617 1.392 . S
C618 C619 1.385 . S
C618 C620 1.478 . S
C619 H613 0.930 . S
C619 C615 1.400 . S
C619 C618 1.385 . S
C620 C618 1.478 . S
C620 C622 1.381 . S
C620 C626 1.383 . S
C621 C617 1.495 . S
C621 H627 0.959 . S
C621 H628 0.961 . S
C621 H629 0.960 . S
C622 C620 1.381 . S
C622 C623 1.394 . S
C622 H630 0.930 . S
C623 C622 1.394 . S
C623 C624 1.383 . S
C623 H631 0.929 . S
C624 C623 1.383 . S
C624 C625 1.377 . S
C625 H609 0.930 . S
C625 C624 1.377 . S
C625 C626 1.379 . S
C626 H610 0.931 . S
C626 C620 1.383 . S
C626 C625 1.379 . S
H627 C621 0.959 . S
H628 C621 0.961 . S
H629 C621 0.960 . S
H630 C622 0.930 . S
H631 C623 0.929 . S
H632 C640 0.929 . S
H633 C642 0.930 . S
H634 C644 0.930 . S
H635 C647 0.929 . S
H636 C650 0.930 . S
H637 C652 0.960 . S
H638 C652 0.960 . S
H639 C652 0.960 . S
C640 H632 0.929 . S
C640 C641 1.377 . S
C640 C642 1.384 . S
C641 C640 1.377 . S
C641 C647 1.390 . S
C642 H633 0.930 . S
C642 C640 1.384 . S
C642 C643 1.372 . S
C643 C642 1.372 . S
C643 C644 1.400 . S
C643 C648 1.490 . S
C644 H634 0.930 . S
C644 C643 1.400 . S
C644 C647 1.386 . S
H645 C661 0.930 . S
H646 C662 0.931 . S
C647 H635 0.929 . S
C647 C641 1.390 . S
C647 C644 1.386 . S
C648 C643 1.490 . S
C648 C650 1.395 1_565 S
C648 C651 1.403 . S
H649 C655 0.930 . S
C650 H636 0.930 . S
C650 C648 1.395 1_545 S
C650 C653 1.403 . S
C651 C648 1.403 . S
C651 C652 1.524 . S
C651 C655 1.400 1_565 S
C652 H637 0.960 . S
C652 H638 0.960 . S
C652 H639 0.960 . S
C652 C651 1.524 . S
C653 C650 1.403 . S
C653 C654 1.392 . S
C653 C657 1.495 . S
C654 C653 1.392 . S
C654 C655 1.385 . S
C654 C656 1.478 . S
C655 H649 0.930 . S
C655 C651 1.400 1_545 S
C655 C654 1.385 . S
C656 C654 1.478 . S
C656 C658 1.381 . S
C656 C662 1.383 . S
C657 C653 1.495 . S
C657 H663 0.959 . S
C657 H664 0.961 . S
C657 H665 0.960 . S
C658 C656 1.381 . S
C658 C659 1.394 . S
C658 H666 0.930 . S
C659 C658 1.394 . S
C659 C660 1.383 . S
C659 H667 0.929 . S
C660 C659 1.383 . S
C660 C661 1.377 . S
C661 H645 0.930 . S
C661 C660 1.377 . S
C661 C662 1.379 . S
C662 H646 0.931 . S
C662 C656 1.383 . S
C662 C661 1.379 . S
H663 C657 0.959 . S
H664 C657 0.961 . S
H665 C657 0.960 . S
H666 C658 0.930 . S
H667 C659 0.929 . S
H668 C676 0.929 . S
H669 C678 0.930 . S
H670 C680 0.930 . S
H671 C683 0.929 . S
H672 C686 0.945 . S
H673 C688 0.960 . S
H674 C688 0.960 . S
H675 C688 0.960 . S
C676 H668 0.929 . S
C676 C677 1.377 . S
C676 C678 1.384 . S
C677 C676 1.377 . S
C677 C683 1.390 . S
C678 H669 0.930 . S
C678 C676 1.384 . S
C678 C679 1.372 . S
C679 C678 1.372 . S
C679 C680 1.400 . S
C679 C684 1.490 . S
C680 H670 0.930 . S
C680 C679 1.400 . S
C680 C683 1.386 . S
H681 C697 0.930 . S
H682 C698 0.931 . S
C683 H671 0.929 . S
C683 C677 1.390 . S
C683 C680 1.386 . S
C684 C679 1.490 . S
C684 C686 1.457 . S
C684 C687 1.403 1_565 S
H685 C691 0.930 . S
C686 H672 0.945 . S
C686 C684 1.457 . S
C686 C689 1.332 1_554 S
C687 C684 1.403 1_545 S
C687 C688 1.524 . S
C687 C691 1.400 1_554 S
C688 H673 0.960 . S
C688 H674 0.960 . S
C688 H675 0.960 . S
C688 C687 1.524 . S
C689 C686 1.332 1_556 S
C689 C690 1.392 1_565 S
C689 C693 1.495 . S
C690 C689 1.392 1_545 S
C690 C691 1.385 . S
C690 C692 1.478 . S
C691 H685 0.930 . S
C691 C687 1.400 1_556 S
C691 C690 1.385 . S
C692 C690 1.478 . S
C692 C694 1.381 . S
C692 C698 1.383 . S
C693 C689 1.495 . S
C693 H699 0.959 . S
C693 H700 0.961 . S
C693 H701 0.953 1_565 S
C694 C692 1.381 . S
C694 C695 1.394 . S
C694 H702 0.930 . S
C695 C694 1.394 . S
C695 C696 1.383 . S
C695 H703 0.929 . S
C696 C695 1.383 . S
C696 C697 1.377 . S
C697 H681 0.930 . S
C697 C696 1.377 . S
C697 C698 1.379 . S
C698 H682 0.931 . S
C698 C692 1.383 . S
C698 C697 1.379 . S
H699 C693 0.959 . S
H700 C693 0.961 . S
H701 C693 0.953 1_545 S
H702 C694 0.930 . S
H703 C695 0.929 . S
H704 C712 0.929 . S
H705 C714 0.930 . S
H706 C716 0.930 . S
H707 C719 0.929 . S
H708 C722 0.930 . S
H709 C724 0.960 . S
H710 C724 0.960 . S
H711 C724 0.960 . S
C712 H704 0.929 . S
C712 C713 1.377 . S
C712 C714 1.384 . S
C713 C712 1.377 . S
C713 C719 1.390 . S
C714 H705 0.930 . S
C714 C712 1.384 . S
C714 C715 1.372 . S
C715 C714 1.372 . S
C715 C716 1.400 . S
C715 C720 1.490 . S
C716 H706 0.930 . S
C716 C715 1.400 . S
C716 C719 1.386 . S
H717 C733 0.930 . S
H718 C734 0.931 . S
C719 H707 0.929 . S
C719 C713 1.390 . S
C719 C716 1.386 . S
C720 C715 1.490 . S
C720 C722 1.395 . S
C720 C723 1.403 . S
H721 C727 0.930 . S
C722 H708 0.930 . S
C722 C720 1.395 . S
C722 C725 1.403 . S
C723 C720 1.403 . S
C723 C724 1.524 . S
C723 C727 1.400 . S
C724 H709 0.960 . S
C724 H710 0.960 . S
C724 H711 0.960 . S
C724 C723 1.524 . S
C725 C722 1.403 . S
C725 C726 1.392 . S
C725 C729 1.495 . S
C726 C725 1.392 . S
C726 C727 1.385 . S
C726 C728 1.478 . S
C727 H721 0.930 . S
C727 C723 1.400 . S
C727 C726 1.385 . S
C728 C726 1.478 . S
C728 C730 1.381 . S
C728 C734 1.383 . S
C729 C725 1.495 . S
C729 H735 0.959 . S
C729 H736 0.961 . S
C729 H737 0.960 . S
C730 C728 1.381 . S
C730 C731 1.394 . S
C730 H738 0.930 . S
C731 C730 1.394 . S
C731 C732 1.383 . S
C731 H739 0.929 . S
C732 C731 1.383 . S
C732 C733 1.377 . S
C733 H717 0.930 . S
C733 C732 1.377 . S
C733 C734 1.379 . S
C734 H718 0.931 . S
C734 C728 1.383 . S
C734 C733 1.379 . S
H735 C729 0.959 . S
H736 C729 0.961 . S
H737 C729 0.960 . S
H738 C730 0.930 . S
H739 C731 0.929 . S
H740 C748 0.929 . S
H741 C750 0.930 . S
H742 C752 0.930 . S
H743 C755 0.929 . S
H744 C758 0.930 . S
H745 C760 0.960 . S
H746 C760 0.960 . S
H747 C760 0.960 . S
C748 H740 0.929 . S
C748 C749 1.377 . S
C748 C750 1.384 . S
C749 C748 1.377 . S
C749 C755 1.390 . S
C750 H741 0.930 . S
C750 C748 1.384 . S
C750 C751 1.372 . S
C751 C750 1.372 . S
C751 C752 1.400 . S
C751 C756 1.490 . S
C752 H742 0.930 . S
C752 C751 1.400 . S
C752 C755 1.386 . S
H753 C769 0.930 . S
H754 C770 0.931 . S
C755 H743 0.929 . S
C755 C749 1.390 . S
C755 C752 1.386 . S
C756 C751 1.490 . S
C756 C758 1.395 . S
C756 C759 1.403 . S
H757 C763 0.930 . S
C758 H744 0.930 . S
C758 C756 1.395 . S
C758 C761 1.403 . S
C759 C756 1.403 . S
C759 C760 1.524 . S
C759 C763 1.400 . S
C760 H745 0.960 . S
C760 H746 0.960 . S
C760 H747 0.960 . S
C760 C759 1.524 . S
C761 C758 1.403 . S
C761 C762 1.392 . S
C761 C765 1.495 . S
C762 C761 1.392 . S
C762 C763 1.385 . S
C762 C764 1.478 . S
C763 H757 0.930 . S
C763 C759 1.400 . S
C763 C762 1.385 . S
C764 C762 1.478 . S
C764 C766 1.381 . S
C764 C770 1.383 . S
C765 C761 1.495 . S
C765 H771 0.959 . S
C765 H772 0.961 . S
C765 H773 0.960 . S
C766 C764 1.381 . S
C766 C767 1.394 1_545 S
C766 H774 0.930 . S
C767 C766 1.394 1_565 S
C767 C768 1.383 . S
C767 H775 0.929 . S
C768 C767 1.383 . S
C768 C769 1.377 . S
C769 H753 0.930 . S
C769 C768 1.377 . S
C769 C770 1.379 1_565 S
C770 H754 0.931 . S
C770 C764 1.383 . S
C770 C769 1.379 1_545 S
H771 C765 0.959 . S
H772 C765 0.961 . S
H773 C765 0.960 . S
H774 C766 0.930 . S
H775 C767 0.929 . S
H776 C784 0.929 . S
H777 C786 0.930 . S
H778 C788 0.930 . S
H779 C791 0.929 . S
H780 C794 0.930 . S
H781 C796 0.960 . S
H782 C796 0.960 . S
H783 C796 0.960 . S
C784 H776 0.929 . S
C784 C785 1.377 . S
C784 C786 1.384 . S
C785 C784 1.377 . S
C785 C791 1.390 . S
C786 H777 0.930 . S
C786 C784 1.384 . S
C786 C787 1.372 . S
C787 C786 1.372 . S
C787 C788 1.400 . S
C787 C792 1.490 . S
C788 H778 0.930 . S
C788 C787 1.400 . S
C788 C791 1.386 . S
H789 C805 0.930 . S
H790 C806 0.931 . S
C791 H779 0.929 . S
C791 C785 1.390 . S
C791 C788 1.386 . S
C792 C787 1.490 . S
C792 C794 1.395 . S
C792 C795 1.403 . S
H793 C799 0.930 . S
C794 H780 0.930 . S
C794 C792 1.395 . S
C794 C797 1.403 . S
C795 C792 1.403 . S
C795 C796 1.524 . S
C795 C799 1.400 . S
C796 H781 0.960 . S
C796 H782 0.960 . S
C796 H783 0.960 . S
C796 C795 1.524 . S
C797 C794 1.403 . S
C797 C798 1.392 . S
C797 C801 1.495 . S
C798 C797 1.392 . S
C798 C799 1.385 . S
C798 C800 1.478 1_455 S
C799 H793 0.930 . S
C799 C795 1.400 . S
C799 C798 1.385 . S
C800 C798 1.478 1_655 S
C800 C802 1.381 . S
C800 C806 1.383 . S
C801 C797 1.495 . S
C801 H807 0.959 . S
C801 H808 0.961 . S
C801 H809 0.960 . S
C802 C800 1.381 . S
C802 C803 1.394 . S
C802 H810 0.930 . S
C803 C802 1.394 . S
C803 C804 1.383 . S
C803 H811 0.929 . S
C804 C803 1.383 . S
C804 C805 1.377 . S
C805 H789 0.930 . S
C805 C804 1.377 . S
C805 C806 1.379 . S
C806 H790 0.931 . S
C806 C800 1.383 . S
C806 C805 1.379 . S
H807 C801 0.959 . S
H808 C801 0.961 . S
H809 C801 0.960 . S
H810 C802 0.930 . S
H811 C803 0.929 . S
H812 C820 0.929 . S
H813 C822 0.930 . S
H814 C824 0.930 . S
H815 C827 0.929 . S
H816 C830 0.930 . S
H817 C832 0.960 . S
H818 C832 0.960 . S
H819 C832 0.960 . S
C820 H812 0.929 . S
C820 C821 1.377 . S
C820 C822 1.384 . S
C821 C820 1.377 . S
C821 C827 1.390 . S
C822 H813 0.930 . S
C822 C820 1.384 . S
C822 C823 1.372 . S
C823 C822 1.372 . S
C823 C824 1.400 . S
C823 C828 1.490 . S
C824 H814 0.930 . S
C824 C823 1.400 . S
C824 C827 1.386 . S
H825 C841 0.930 . S
H826 C842 0.931 . S
C827 H815 0.929 . S
C827 C821 1.390 . S
C827 C824 1.386 . S
C828 C823 1.490 . S
C828 C830 1.395 . S
C828 C831 1.403 . S
H829 C835 0.930 . S
C830 H816 0.930 . S
C830 C828 1.395 . S
C830 C833 1.403 . S
C831 C828 1.403 . S
C831 C832 1.524 . S
C831 C835 1.400 . S
C832 H817 0.960 . S
C832 H818 0.960 . S
C832 H819 0.960 . S
C832 C831 1.524 . S
C833 C830 1.403 . S
C833 C834 1.392 . S
C833 C837 1.495 . S
C834 C833 1.392 . S
C834 C835 1.385 . S
C834 C836 1.478 . S
C835 H829 0.930 . S
C835 C831 1.400 . S
C835 C834 1.385 . S
C836 C834 1.478 . S
C836 C838 1.381 . S
C836 C842 1.383 . S
C837 C833 1.495 . S
C837 H843 0.959 . S
C837 H844 0.961 1_455 S
C837 H845 0.960 . S
C838 C836 1.381 . S
C838 C839 1.394 . S
C838 H846 0.930 . S
C839 C838 1.394 . S
C839 C840 1.383 . S
C839 H847 0.929 . S
C840 C839 1.383 . S
C840 C841 1.377 . S
C841 H825 0.930 . S
C841 C840 1.377 . S
C841 C842 1.379 . S
C842 H826 0.931 . S
C842 C836 1.383 . S
C842 C841 1.379 . S
H843 C837 0.959 . S
H844 C837 0.961 1_655 S
H845 C837 0.960 . S
H846 C838 0.930 . S
H847 C839 0.929 . S
H848 C856 0.929 . S
H849 C858 0.930 . S
H850 C860 0.930 . S
H851 C863 0.929 . S
H852 C866 0.930 . S
H853 C868 0.960 . S
H854 C868 0.960 . S
H855 C868 0.960 . S
C856 H848 0.929 . S
C856 C857 1.377 . S
C856 C858 1.384 . S
C857 C856 1.377 . S
C857 C863 1.390 . S
C858 H849 0.930 . S
C858 C856 1.384 . S
C858 C859 1.372 . S
C859 C858 1.372 . S
C859 C860 1.400 . S
C859 C864 1.490 . S
C860 H850 0.930 . S
C860 C859 1.400 . S
C860 C863 1.386 . S
H861 C877 0.930 . S
H862 C878 0.931 . S
C863 H851 0.929 . S
C863 C857 1.390 . S
C863 C860 1.386 . S
C864 C859 1.490 . S
C864 C866 1.395 . S
C864 C867 1.403 . S
H865 C871 0.930 . S
C866 H852 0.930 . S
C866 C864 1.395 . S
C866 C869 1.403 . S
C867 C864 1.403 . S
C867 C868 1.524 . S
C867 C871 1.400 . S
C868 H853 0.960 . S
C868 H854 0.960 . S
C868 H855 0.960 . S
C868 C867 1.524 . S
C869 C866 1.403 . S
C869 C870 1.392 . S
C869 C873 1.495 . S
C870 C869 1.392 . S
C870 C871 1.385 . S
C870 C872 1.478 . S
C871 H865 0.930 . S
C871 C867 1.400 . S
C871 C870 1.385 . S
C872 C870 1.478 . S
C872 C874 1.381 . S
C872 C878 1.383 . S
C873 C869 1.495 . S
C873 H879 0.959 . S
C873 H880 0.961 . S
C873 H881 0.960 . S
C874 C872 1.381 . S
C874 C875 1.394 . S
C874 H882 0.930 . S
C875 C874 1.394 . S
C875 C876 1.383 . S
C875 H883 0.929 . S
C876 C875 1.383 . S
C876 C877 1.377 . S
C877 H861 0.930 . S
C877 C876 1.377 . S
C877 C878 1.379 . S
C878 H862 0.931 . S
C878 C872 1.383 . S
C878 C877 1.379 . S
H879 C873 0.959 . S
H880 C873 0.961 . S
H881 C873 0.960 . S
H882 C874 0.930 . S
H883 C875 0.929 . S
H884 C892 0.929 . S
H885 C894 0.930 . S
H886 C896 0.930 . S
H887 C899 0.929 . S
H888 C902 0.930 . S
H889 C904 0.960 . S
H890 C904 0.960 . S
H891 C904 0.963 . S
C892 H884 0.929 . S
C892 C893 1.377 . S
C892 C894 1.384 . S
C893 C892 1.377 . S
C893 C899 1.390 . S
C894 H885 0.930 . S
C894 C892 1.384 . S
C894 C895 1.372 . S
C895 C894 1.372 . S
C895 C896 1.400 . S
C895 C900 1.490 . S
C896 H886 0.930 . S
C896 C895 1.400 . S
C896 C899 1.386 . S
H897 C913 0.930 . S
H898 C914 0.931 . S
C899 H887 0.929 . S
C899 C893 1.390 . S
C899 C896 1.386 . S
C900 C895 1.490 . S
C900 C902 1.395 . S
C900 C903 1.403 . S
H901 C907 0.930 . S
C902 H888 0.930 . S
C902 C900 1.395 . S
C902 C905 1.403 . S
C903 C900 1.403 . S
C903 C904 1.524 1_455 S
C903 C907 1.400 . S
C904 H889 0.960 . S
C904 H890 0.960 . S
C904 H891 0.963 . S
C904 C903 1.524 1_655 S
C905 C902 1.403 . S
C905 C906 1.392 . S
C905 C909 1.495 . S
C906 C905 1.392 . S
C906 C907 1.385 . S
C906 C908 1.478 . S
C907 H901 0.930 . S
C907 C903 1.400 . S
C907 C906 1.385 . S
C908 C906 1.478 . S
C908 C910 1.381 . S
C908 C914 1.383 . S
C909 C905 1.495 . S
C909 H915 0.959 . S
C909 H916 0.961 . S
C909 H917 0.960 . S
C910 C908 1.381 . S
C910 C911 1.394 . S
C910 H918 0.930 . S
C911 C910 1.394 . S
C911 C912 1.383 . S
C911 H919 0.929 . S
C912 C911 1.383 . S
C912 C913 1.377 . S
C913 H897 0.930 . S
C913 C912 1.377 . S
C913 C914 1.379 . S
C914 H898 0.931 . S
C914 C908 1.383 . S
C914 C913 1.379 . S
H915 C909 0.959 . S
H916 C909 0.961 . S
H917 C909 0.960 . S
H918 C910 0.930 . S
H919 C911 0.929 . S
H920 C928 0.929 1_655 S
H921 C930 0.930 . S
H922 C932 0.930 . S
H923 C935 0.929 1_655 S
H924 C938 0.930 . S
H925 C940 0.960 . S
H926 C940 0.960 . S
H927 C940 0.960 . S
C928 H920 0.929 1_455 S
C928 C929 1.377 1_455 S
C928 C930 1.384 . S
C929 C928 1.377 1_655 S
C929 C935 1.390 1_655 S
C930 H921 0.930 . S
C930 C928 1.384 . S
C930 C931 1.372 . S
C931 C930 1.372 . S
C931 C932 1.400 . S
C931 C936 1.490 . S
C932 H922 0.930 . S
C932 C931 1.400 . S
C932 C935 1.386 . S
H933 C949 0.930 . S
H934 C950 0.931 . S
C935 H923 0.929 1_455 S
C935 C929 1.390 1_455 S
C935 C932 1.386 . S
C936 C931 1.490 . S
C936 C938 1.395 . S
C936 C939 1.403 . S
H937 C943 0.930 . S
C938 H924 0.930 . S
C938 C936 1.395 . S
C938 C941 1.403 . S
C939 C936 1.403 . S
C939 C940 1.524 . S
C939 C943 1.400 . S
C940 H925 0.960 . S
C940 H926 0.960 . S
C940 H927 0.960 . S
C940 C939 1.524 . S
C941 C938 1.403 . S
C941 C942 1.392 . S
C941 C945 1.495 . S
C942 C941 1.392 . S
C942 C943 1.385 . S
C942 C944 1.478 . S
C943 H937 0.930 . S
C943 C939 1.400 . S
C943 C942 1.385 . S
C944 C942 1.478 . S
C944 C946 1.381 . S
C944 C950 1.383 . S
C945 C941 1.495 . S
C945 H951 0.959 . S
C945 H952 0.961 . S
C945 H953 0.960 . S
C946 C944 1.381 . S
C946 C947 1.394 . S
C946 H954 0.930 . S
C947 C946 1.394 . S
C947 C948 1.383 . S
C947 H955 0.929 . S
C948 C947 1.383 . S
C948 C949 1.377 . S
C949 H933 0.930 . S
C949 C948 1.377 . S
C949 C950 1.379 . S
C950 H934 0.931 . S
C950 C944 1.383 . S
C950 C949 1.379 . S
H951 C945 0.959 . S
H952 C945 0.961 . S
H953 C945 0.960 . S
H954 C946 0.930 . S
H955 C947 0.929 . S
H956 C964 0.929 . S
H957 C966 0.930 . S
H958 C968 0.930 . S
H959 C971 0.929 . S
H960 C974 0.930 . S
H961 C976 0.960 . S
H962 C976 0.960 . S
H963 C976 0.960 . S
C964 H956 0.929 . S
C964 C965 1.377 1_565 S
C964 C966 1.384 . S
C965 C964 1.377 1_545 S
C965 C971 1.390 1_545 S
C966 H957 0.930 . S
C966 C964 1.384 . S
C966 C967 1.372 . S
C967 C966 1.372 . S
C967 C968 1.400 . S
C967 C972 1.490 . S
C968 H958 0.930 . S
C968 C967 1.400 . S
C968 C971 1.386 . S
H969 C985 0.930 . S
H970 C986 0.931 . S
C971 H959 0.929 . S
C971 C965 1.390 1_565 S
C971 C968 1.386 . S
C972 C967 1.490 . S
C972 C974 1.395 . S
C972 C975 1.403 . S
H973 C979 0.930 . S
C974 H960 0.930 . S
C974 C972 1.395 . S
C974 C977 1.403 . S
C975 C972 1.403 . S
C975 C976 1.524 . S
C975 C979 1.400 . S
C976 H961 0.960 . S
C976 H962 0.960 . S
C976 H963 0.960 . S
C976 C975 1.524 . S
C977 C974 1.403 . S
C977 C978 1.392 . S
C977 C981 1.495 . S
C978 C977 1.392 . S
C978 C979 1.385 . S
C978 C980 1.478 . S
C979 H973 0.930 . S
C979 C975 1.400 . S
C979 C978 1.385 . S
C980 C978 1.478 . S
C980 C982 1.381 . S
C980 C986 1.383 . S
C981 C977 1.495 . S
C981 H987 0.959 . S
C981 H988 0.961 . S
C981 H989 0.960 . S
C982 C980 1.381 . S
C982 C983 1.394 . S
C982 H990 0.930 . S
C983 C982 1.394 . S
C983 C984 1.383 . S
C983 H991 0.929 . S
C984 C983 1.383 . S
C984 C985 1.377 . S
C985 H969 0.930 . S
C985 C984 1.377 . S
C985 C986 1.379 . S
C986 H970 0.931 . S
C986 C980 1.383 . S
C986 C985 1.379 . S
H987 C981 0.959 . S
H988 C981 0.961 . S
H989 C981 0.960 . S
H990 C982 0.930 . S
H991 C983 0.929 . S
C281 C20 1.415 . S
C300 C190 1.420 . S
C317 C224 1.444 . S
C336 C54 1.428 . S
C353 C88 1.413 . S
C372 C258 1.408 . S
C389 C156 1.444 . S
C408 C122 1.436 . S
C425 C33 0.944 . S
C444 C138 0.941 . S
C461 C67 0.935 . S
C480 C172 0.947 1_655 S
C497 C237 0.933 . S
C516 C70 0.951 . S
C533 C104 0.945 . S
C552 C271 0.915 . S
C569 C135 0.933 . S
C588 C240 0.951 . S
C605 C203 0.939 . S
C624 C36 0.959 . S
C641 C206 0.941 . S
C660 C101 0.923 . S
C677 C2 0.937 . S
C696 C169 0.948 . S
C713 C9 1.521 . S
C732 C5 1.621 . S
C749 C43 1.526 . S
C768 C39 1.612 . S
C785 C77 1.517 . S
C804 C73 1.617 . S
C821 C111 1.515 . S
C840 C107 1.607 . S
C857 C141 1.619 1_655 S
C876 C145 1.539 . S
C893 C179 1.527 1_545 S
C912 C175 1.620 . S
C929 C213 1.525 . S
C948 C209 1.610 . S
C965 C243 1.615 . S
C984 C247 1.504 . S
