# Generated by pormake.
# Topology umd, (4)-cn, num edge types: 1
# Building blocks:
#     Node 0, Type 0, BuildingBlock: MUDLON_clean_sbu_0, # of connection points: 4
#     Node 1, Type 0, BuildingBlock: MUDLON_clean_sbu_0, # of connection points: 4
#     Node 2, Type 0, BuildingBlock: MUDLON_clean_sbu_0, # of connection points: 4
#     Node 3, Type 0, BuildingBlock: MUDLON_clean_sbu_0, # of connection points: 4
#     Node 4, Type 0, BuildingBlock: MUDLON_clean_sbu_0, # of connection points: 4
#     Node 5, Type 0, BuildingBlock: MUDLON_clean_sbu_0, # of connection points: 4
#     Node 6, Type 0, BuildingBlock: MUDLON_clean_sbu_0, # of connection points: 4
#     Node 7, Type 0, BuildingBlock: MUDLON_clean_sbu_0, # of connection points: 4
#     Node 8, Type 0, BuildingBlock: MUDLON_clean_sbu_0, # of connection points: 4
#     Node 9, Type 0, BuildingBlock: MUDLON_clean_sbu_0, # of connection points: 4
#     Node 10, Type 0, BuildingBlock: MUDLON_clean_sbu_0, # of connection points: 4
#     Node 11, Type 0, BuildingBlock: MUDLON_clean_sbu_0, # of connection points: 4
#     Node 12, Type 0, BuildingBlock: MUDLON_clean_sbu_0, # of connection points: 4
#     Node 13, Type 0, BuildingBlock: MUDLON_clean_sbu_0, # of connection points: 4
#     Node 14, Type 0, BuildingBlock: MUDLON_clean_sbu_0, # of connection points: 4
#     Node 15, Type 0, BuildingBlock: MUDLON_clean_sbu_0, # of connection points: 4
#     Edge 16, Type (0, 0), BuildingBlock: ZUJKAS_clean_linker_0, # of connection points: 2
#     Edge 17, Type (0, 0), BuildingBlock: ZUJKAS_clean_linker_0, # of connection points: 2
#     Edge 18, Type (0, 0), BuildingBlock: ZUJKAS_clean_linker_0, # of connection points: 2
#     Edge 19, Type (0, 0), BuildingBlock: ZUJKAS_clean_linker_0, # of connection points: 2
#     Edge 20, Type (0, 0), BuildingBlock: ZUJKAS_clean_linker_0, # of connection points: 2
#     Edge 21, Type (0, 0), BuildingBlock: ZUJKAS_clean_linker_0, # of connection points: 2
#     Edge 22, Type (0, 0), BuildingBlock: ZUJKAS_clean_linker_0, # of connection points: 2
#     Edge 23, Type (0, 0), BuildingBlock: ZUJKAS_clean_linker_0, # of connection points: 2
#     Edge 24, Type (0, 0), BuildingBlock: ZUJKAS_clean_linker_0, # of connection points: 2
#     Edge 25, Type (0, 0), BuildingBlock: ZUJKAS_clean_linker_0, # of connection points: 2
#     Edge 26, Type (0, 0), BuildingBlock: ZUJKAS_clean_linker_0, # of connection points: 2
#     Edge 27, Type (0, 0), BuildingBlock: ZUJKAS_clean_linker_0, # of connection points: 2
#     Edge 28, Type (0, 0), BuildingBlock: ZUJKAS_clean_linker_0, # of connection points: 2
#     Edge 29, Type (0, 0), BuildingBlock: ZUJKAS_clean_linker_0, # of connection points: 2
#     Edge 30, Type (0, 0), BuildingBlock: ZUJKAS_clean_linker_0, # of connection points: 2
#     Edge 31, Type (0, 0), BuildingBlock: ZUJKAS_clean_linker_0, # of connection points: 2
#     Edge 32, Type (0, 0), BuildingBlock: ZUJKAS_clean_linker_0, # of connection points: 2
#     Edge 33, Type (0, 0), BuildingBlock: ZUJKAS_clean_linker_0, # of connection points: 2
#     Edge 34, Type (0, 0), BuildingBlock: ZUJKAS_clean_linker_0, # of connection points: 2
#     Edge 35, Type (0, 0), BuildingBlock: ZUJKAS_clean_linker_0, # of connection points: 2
#     Edge 36, Type (0, 0), BuildingBlock: ZUJKAS_clean_linker_0, # of connection points: 2
#     Edge 37, Type (0, 0), BuildingBlock: ZUJKAS_clean_linker_0, # of connection points: 2
#     Edge 38, Type (0, 0), BuildingBlock: ZUJKAS_clean_linker_0, # of connection points: 2
#     Edge 39, Type (0, 0), BuildingBlock: ZUJKAS_clean_linker_0, # of connection points: 2
#     Edge 40, Type (0, 0), BuildingBlock: ZUJKAS_clean_linker_0, # of connection points: 2
#     Edge 41, Type (0, 0), BuildingBlock: ZUJKAS_clean_linker_0, # of connection points: 2
#     Edge 42, Type (0, 0), BuildingBlock: ZUJKAS_clean_linker_0, # of connection points: 2
#     Edge 43, Type (0, 0), BuildingBlock: ZUJKAS_clean_linker_0, # of connection points: 2
#     Edge 44, Type (0, 0), BuildingBlock: ZUJKAS_clean_linker_0, # of connection points: 2
#     Edge 45, Type (0, 0), BuildingBlock: ZUJKAS_clean_linker_0, # of connection points: 2
#     Edge 46, Type (0, 0), BuildingBlock: ZUJKAS_clean_linker_0, # of connection points: 2
#     Edge 47, Type (0, 0), BuildingBlock: ZUJKAS_clean_linker_0, # of connection points: 2
# Relax obj value: 0.014
# Max RMSD: 0.192
# Mean RMSD: 0.192
data_MOF--net-umd--node1-MUDLON_clean_sbu_0--edge1-ZUJKAS_clean_linker_0
_symmetry_space_group_name_H-M    P1
_symmetry_Int_Tables_number       1
_symmetry_cell_setting            triclinic
loop_
_symmetry_equiv_pos_as_xyz
'x, y, z'
_cell_length_a     52.714686
_cell_length_b     52.694687
_cell_length_c     76.79547
_cell_angle_alpha  90.059422
_cell_angle_beta   89.942105
_cell_angle_gamma 89.956917
loop_
_atom_site_label
_atom_site_type_symbol
_atom_site_fract_x
_atom_site_fract_y
_atom_site_fract_z
_atom_type_partial_charge
Mg0 Mg 0.18923 0.45471 0.14778 0.0
C1 C 0.18938 0.48402 0.11337 0.0
O2 O 0.16776 0.49261 0.11951 0.0
C3 C 0.22023 0.46687 0.18056 0.0
O4 O 0.23275 0.44642 0.17586 0.0
C5 C 0.22484 0.41186 0.14296 0.0
O6 O 0.23679 0.43111 0.13582 0.0
O7 O 0.20289 0.41563 0.14937 0.0
O8 O 0.20277 0.46941 0.12282 0.0
O9 O 0.14793 0.45795 0.14791 0.0
C10 C 0.1388 0.47828 0.15437 0.0
O11 O 0.15449 0.4952 0.16083 0.0
O12 O 0.20256 0.47514 0.17081 0.0
Mg13 Mg 0.55926 0.19099 0.64548 0.0
C14 C 0.52919 0.19013 0.6116 0.0
O15 O 0.52306 0.1675 0.61739 0.0
C16 C 0.54738 0.22152 0.6788 0.0
O17 O 0.56583 0.23621 0.67328 0.0
C18 C 0.61313 0.20464 0.65813 0.0
O19 O 0.60646 0.19237 0.6723 0.0
O20 O 0.59773 0.2058 0.64542 0.0
O21 O 0.54254 0.20459 0.62119 0.0
O22 O 0.55778 0.14965 0.64546 0.0
C23 C 0.53815 0.13979 0.65235 0.0
O24 O 0.52087 0.15485 0.6591 0.0
O25 O 0.54017 0.20306 0.66933 0.0
Mg26 Mg 0.82287 0.56479 0.14796 0.0
C27 C 0.79245 0.55552 0.11443 0.0
O28 O 0.77764 0.57315 0.12101 0.0
C29 C 0.81921 0.52822 0.17898 0.0
O30 O 0.83771 0.51663 0.17071 0.0
C31 C 0.78832 0.60806 0.15552 0.0
O32 O 0.77668 0.58887 0.16294 0.0
O33 O 0.80946 0.60404 0.14797 0.0
O34 O 0.8111 0.54748 0.12339 0.0
O35 O 0.86414 0.56148 0.14868 0.0
C36 C 0.87361 0.54182 0.14153 0.0
O37 O 0.85829 0.52565 0.13386 0.0
O38 O 0.8087 0.54736 0.17192 0.0
Mg39 Mg 0.45515 0.82356 0.65066 0.0
C40 C 0.4589 0.82013 0.61296 0.0
O41 O 0.44175 0.83764 0.61619 0.0
C42 C 0.49089 0.82063 0.68214 0.0
O43 O 0.50199 0.83981 0.67431 0.0
C44 C 0.41121 0.79088 0.65942 0.0
O45 O 0.43027 0.77891 0.66675 0.0
O46 O 0.41555 0.81171 0.6516 0.0
O47 O 0.46961 0.80933 0.62584 0.0
O48 O 0.45966 0.86465 0.65046 0.0
C49 C 0.4796 0.87344 0.64332 0.0
O50 O 0.49578 0.85752 0.63623 0.0
O51 O 0.47259 0.80943 0.67457 0.0
Mg52 Mg 0.18619 0.56393 0.39025 0.0
C53 C 0.18123 0.55389 0.42772 0.0
O54 O 0.16182 0.56858 0.42402 0.0
C55 C 0.2178 0.5527 0.35773 0.0
O56 O 0.22933 0.57369 0.36245 0.0
C57 C 0.22148 0.60626 0.39819 0.0
O58 O 0.232 0.5869 0.40619 0.0
O59 O 0.20077 0.6027 0.39004 0.0
O60 O 0.19613 0.54743 0.41543 0.0
O61 O 0.14501 0.56151 0.38864 0.0
C62 C 0.1364 0.53957 0.38503 0.0
O63 O 0.1526 0.52112 0.38199 0.0
O64 O 0.20043 0.54369 0.36743 0.0
Mg65 Mg 0.45866 0.19227 0.89309 0.0
C66 C 0.49053 0.19179 0.92612 0.0
O67 O 0.49838 0.17027 0.91935 0.0
C68 C 0.46265 0.20423 0.85551 0.0
O69 O 0.43972 0.19469 0.85698 0.0
C70 C 0.41643 0.22894 0.88932 0.0
O71 O 0.43632 0.24227 0.88456 0.0
O72 O 0.41961 0.20585 0.89364 0.0
O73 O 0.47544 0.20567 0.91738 0.0
O74 O 0.46153 0.15101 0.89281 0.0
C75 C 0.48057 0.1413 0.88506 0.0
O76 O 0.49665 0.15643 0.87714 0.0
O77 O 0.47617 0.20632 0.86917 0.0
Mg78 Mg 0.82092 0.45291 0.3955 0.0
C79 C 0.79113 0.46307 0.42869 0.0
O80 O 0.77806 0.44369 0.42276 0.0
C81 C 0.81651 0.48726 0.36353 0.0
O82 O 0.83413 0.50004 0.37184 0.0
C83 C 0.79797 0.40253 0.38471 0.0
O84 O 0.79805 0.41395 0.36952 0.0
O85 O 0.80773 0.4138 0.39773 0.0
O86 O 0.80882 0.47219 0.41931 0.0
O87 O 0.86214 0.45617 0.39454 0.0
C88 C 0.87168 0.47643 0.40075 0.0
O89 O 0.85645 0.49332 0.4078 0.0
O90 O 0.80652 0.46809 0.3709 0.0
Mg91 Mg 0.56845 0.82604 0.89661 0.0
C92 C 0.53409 0.80734 0.92789 0.0
O93 O 0.51428 0.80964 0.91764 0.0
C94 C 0.53057 0.82169 0.86653 0.0
O95 O 0.51981 0.84095 0.87452 0.0
C96 C 0.61046 0.79069 0.8892 0.0
O97 O 0.59021 0.77809 0.88423 0.0
O98 O 0.60768 0.81323 0.89485 0.0
O99 O 0.55613 0.81222 0.92202 0.0
O100 O 0.56467 0.86729 0.89584 0.0
C101 C 0.54594 0.87735 0.90373 0.0
O102 O 0.53049 0.86266 0.91256 0.0
O103 O 0.54957 0.81092 0.87356 0.0
Mg104 Mg 0.83061 0.56374 0.89519 0.0
C105 C 0.82907 0.54492 0.93209 0.0
O106 O 0.85345 0.54894 0.92991 0.0
C107 C 0.82719 0.55902 0.85766 0.0
O108 O 0.84204 0.57854 0.86074 0.0
C109 C 0.81421 0.61632 0.90729 0.0
O110 O 0.81797 0.60614 0.92269 0.0
O111 O 0.81958 0.60349 0.89375 0.0
O112 O 0.81417 0.54853 0.91927 0.0
O113 O 0.87142 0.55725 0.89543 0.0
C114 C 0.87785 0.53397 0.89515 0.0
O115 O 0.85993 0.51665 0.89483 0.0
O116 O 0.81783 0.54723 0.87063 0.0
Mg117 Mg 0.45415 0.82064 0.39806 0.0
C118 C 0.46793 0.78958 0.43014 0.0
O119 O 0.45179 0.77362 0.42308 0.0
C120 C 0.45702 0.80207 0.36106 0.0
O121 O 0.43241 0.80203 0.36368 0.0
C122 C 0.39547 0.81184 0.39402 0.0
O123 O 0.39502 0.83267 0.38463 0.0
O124 O 0.4163 0.80434 0.40059 0.0
O125 O 0.47388 0.8096 0.42184 0.0
O126 O 0.45642 0.86192 0.39769 0.0
C127 C 0.47878 0.86992 0.40069 0.0
O128 O 0.49673 0.85316 0.40364 0.0
O129 O 0.47158 0.80788 0.37368 0.0
Mg130 Mg 0.19388 0.45501 0.89412 0.0
C131 C 0.21923 0.46489 0.92918 0.0
O132 O 0.23392 0.4463 0.92384 0.0
C133 C 0.20758 0.46145 0.85726 0.0
O134 O 0.20329 0.437 0.85884 0.0
C135 C 0.20929 0.39937 0.90303 0.0
O136 O 0.19256 0.40094 0.91568 0.0
O137 O 0.21249 0.41816 0.89291 0.0
O138 O 0.20223 0.47338 0.91897 0.0
O139 O 0.15283 0.45334 0.89201 0.0
C140 C 0.1387 0.454 0.90544 0.0
O141 O 0.1492 0.45299 0.92093 0.0
O142 O 0.2059 0.47537 0.87078 0.0
Mg143 Mg 0.56135 0.18598 0.39388 0.0
C144 C 0.54824 0.21515 0.42744 0.0
O145 O 0.56473 0.23159 0.42134 0.0
C146 C 0.55687 0.19922 0.35681 0.0
O147 O 0.58093 0.19332 0.35873 0.0
C148 C 0.61464 0.2046 0.40577 0.0
O149 O 0.60863 0.19481 0.42095 0.0
O150 O 0.59925 0.20249 0.3931 0.0
O151 O 0.54237 0.19598 0.41821 0.0
O152 O 0.56068 0.14475 0.39227 0.0
C153 C 0.55738 0.13134 0.40585 0.0
O154 O 0.55707 0.14254 0.42114 0.0
O155 O 0.54252 0.1987 0.37015 0.0
Mg156 Mg 0.81983 0.45294 0.64742 0.0
C157 C 0.81779 0.48025 0.61267 0.0
O158 O 0.84068 0.4869 0.61764 0.0
C159 C 0.81635 0.49251 0.67663 0.0
O160 O 0.83268 0.50467 0.66676 0.0
C161 C 0.78256 0.41205 0.64949 0.0
O162 O 0.769 0.43286 0.64788 0.0
O163 O 0.80661 0.41399 0.64963 0.0
O164 O 0.80404 0.46744 0.62308 0.0
O165 O 0.86094 0.45637 0.64582 0.0
C166 C 0.87483 0.45889 0.65924 0.0
O167 O 0.86445 0.45708 0.67475 0.0
O168 O 0.80696 0.47176 0.67116 0.0
Mg169 Mg 0.55731 0.82338 0.14824 0.0
C170 C 0.55656 0.81202 0.11071 0.0
O171 O 0.57927 0.82139 0.11351 0.0
C172 C 0.54998 0.81572 0.18564 0.0
O173 O 0.573 0.82504 0.18416 0.0
C174 C 0.61651 0.81482 0.14612 0.0
O175 O 0.61821 0.83713 0.13859 0.0
O176 O 0.59496 0.80659 0.15096 0.0
O177 O 0.54155 0.80967 0.12361 0.0
O178 O 0.55499 0.86465 0.14739 0.0
C179 C 0.53352 0.87259 0.14209 0.0
O180 O 0.51641 0.85577 0.13747 0.0
O181 O 0.53713 0.81215 0.17182 0.0
Mg182 Mg 0.18249 0.56663 0.64693 0.0
C183 C 0.19338 0.5667 0.6093 0.0
O184 O 0.18562 0.58991 0.61261 0.0
C185 C 0.19597 0.56081 0.68384 0.0
O186 O 0.18776 0.5843 0.68267 0.0
C187 C 0.22133 0.60617 0.64526 0.0
O188 O 0.23358 0.58493 0.64208 0.0
O189 O 0.19757 0.60509 0.64806 0.0
O190 O 0.19462 0.55098 0.62186 0.0
O191 O 0.14125 0.56419 0.6487 0.0
C192 C 0.12873 0.55315 0.63673 0.0
O193 O 0.14076 0.5452 0.62277 0.0
O194 O 0.19682 0.54739 0.67005 0.0
Mg195 Mg 0.45226 0.18869 0.14564 0.0
C196 C 0.4562 0.20367 0.10846 0.0
O197 O 0.43163 0.20403 0.11134 0.0
C198 C 0.45883 0.20091 0.18279 0.0
O199 O 0.43453 0.19577 0.18138 0.0
C200 C 0.39411 0.20165 0.14932 0.0
O201 O 0.39024 0.17753 0.15271 0.0
O202 O 0.41648 0.20945 0.14619 0.0
O203 O 0.47095 0.19845 0.12109 0.0
O204 O 0.45005 0.14741 0.14714 0.0
C205 C 0.4548 0.13385 0.1338 0.0
O206 O 0.45797 0.14503 0.11868 0.0
O207 O 0.47251 0.20013 0.16912 0.0
H208 H 0.10088 0.45008 0.13922 0.0
H209 H 0.05576 0.46112 0.13702 0.0
H210 H 0.06938 0.52995 0.16594 0.0
H211 H 0.1143 0.5193 0.16803 0.0
H212 H 0.01978 0.47062 0.16343 0.0
H213 H 0.03389 0.55568 0.12199 0.0
H214 H 0.05841 0.53226 0.12532 0.0
H215 H 0.05218 0.55587 0.1417 0.0
C216 C 0.09424 0.46753 0.14513 0.0
C217 C 0.11125 0.48389 0.15369 0.0
C218 C 0.06848 0.47383 0.14385 0.0
C219 C 0.05932 0.49661 0.15102 0.0
C220 C 0.07613 0.51258 0.15995 0.0
H221 H 0.91106 0.56952 0.15766 0.0
H222 H 0.95614 0.55847 0.16026 0.0
C223 C 0.10181 0.50635 0.16122 0.0
C224 C 0.03217 0.50365 0.14934 0.0
H225 H 0.99251 0.54945 0.13347 0.0
C226 C 0.01379 0.48777 0.1568 0.0
C227 C 0.02442 0.52611 0.14074 0.0
C228 C 0.04321 0.54337 0.13183 0.0
C229 C 0.98788 0.49395 0.15615 0.0
C230 C 0.98013 0.51642 0.14756 0.0
C231 C 0.99851 0.53231 0.14011 0.0
C232 C 0.95298 0.52338 0.14578 0.0
C233 C 0.96903 0.47664 0.16495 0.0
C234 C 0.93643 0.50759 0.13647 0.0
C235 C 0.91078 0.51384 0.13494 0.0
C236 C 0.90112 0.53611 0.14262 0.0
C237 C 0.91786 0.55221 0.15163 0.0
C238 C 0.94361 0.54593 0.15314 0.0
H239 H 0.97832 0.46414 0.1747 0.0
H240 H 0.9539 0.48774 0.17156 0.0
H241 H 0.95996 0.46435 0.15501 0.0
H242 H 0.94337 0.49039 0.13037 0.0
H243 H 0.8985 0.50106 0.12781 0.0
H244 H 0.45204 0.91172 0.65857 0.0
H245 H 0.46272 0.95696 0.65973 0.0
H246 H 0.531 0.94248 0.63039 0.0
H247 H 0.52042 0.89745 0.62899 0.0
H248 H 0.50675 0.9791 0.67407 0.0
H249 H 0.49805 1.0011 0.60363 0.0
H250 H 0.48504 0.97264 0.61317 0.0
H251 H 0.51839 0.97467 0.60846 0.0
C252 C 0.46921 0.9182 0.65224 0.0
C253 C 0.48532 0.90097 0.64363 0.0
C254 C 0.47531 0.94403 0.65294 0.0
C255 C 0.49748 0.95311 0.64495 0.0
C256 C 0.51356 0.93597 0.63636 0.0
H257 H 0.56754 0.10283 0.63707 0.0
H258 H 0.5589 0.0571 0.63588 0.0
C259 C 0.50751 0.91019 0.63566 0.0
C260 C 0.50431 0.98036 0.6461 0.0
H261 H 0.51589 0.03313 0.62156 0.0
C262 C 0.50864 0.99096 0.6626 0.0
C263 C 0.50695 0.99571 0.6311 0.0
C264 C 0.50166 0.98557 0.61309 0.0
C265 C 0.51581 0.01647 0.66451 0.0
C266 C 0.51827 0.03188 0.64952 0.0
C267 C 0.5141 0.02124 0.63301 0.0
C268 C 0.52408 0.05935 0.65075 0.0
C269 C 0.52106 0.0266 0.68253 0.0
C270 C 0.50729 0.07574 0.65938 0.0
C271 C 0.51215 0.10176 0.66009 0.0
C272 C 0.53386 0.112 0.65207 0.0
C273 C 0.55072 0.09554 0.64344 0.0
C274 C 0.54579 0.06943 0.64272 0.0
H275 H 0.52536 0.01108 0.69186 0.0
H276 H 0.53722 0.04011 0.68241 0.0
H277 H 0.50404 0.03683 0.68736 0.0
H278 H 0.49016 0.06846 0.66535 0.0
H279 H 0.49869 0.11387 0.66678 0.0
H280 H 0.11284 0.4959 0.37505 0.0
H281 H 0.06776 0.48572 0.37677 0.0
H282 H 0.05238 0.56015 0.39769 0.0
H283 H 0.09755 0.57072 0.3957 0.0
H284 H 0.03817 0.48382 0.40588 0.0
H285 H 0.99953 0.55451 0.35943 0.0
H286 H 0.03293 0.54716 0.36069 0.0
H287 H 0.01863 0.56814 0.37637 0.0
C288 C 0.09987 0.51025 0.37986 0.0
C289 C 0.1088 0.53417 0.3852 0.0
C290 C 0.07409 0.50435 0.38086 0.0
C291 C 0.05663 0.52223 0.38717 0.0
C292 C 0.06542 0.54623 0.39242 0.0
H293 H 0.89654 0.51905 0.41143 0.0
H294 H 0.94147 0.52914 0.40816 0.0
C295 C 0.09126 0.55221 0.39135 0.0
C296 C 0.02946 0.51522 0.38897 0.0
H297 H 0.96953 0.53184 0.37652 0.0
C298 C 0.02317 0.49423 0.39938 0.0
C299 C 0.00991 0.52881 0.38047 0.0
C300 C 0.01554 0.55076 0.36848 0.0
C301 C 0.99784 0.48674 0.40177 0.0
C302 C 0.97831 0.50044 0.39338 0.0
C303 C 0.98457 0.52139 0.38294 0.0
C304 C 0.95117 0.49372 0.39557 0.0
C305 C 0.99211 0.46462 0.4136 0.0
C306 C 0.94169 0.47042 0.38952 0.0
C307 C 0.91591 0.46454 0.39136 0.0
C308 C 0.89919 0.48191 0.39925 0.0
C309 C 0.90885 0.50518 0.40533 0.0
C310 C 0.93454 0.51104 0.40344 0.0
H311 H 0.00856 0.4597 0.42198 0.0
H312 H 0.97554 0.46885 0.42206 0.0
H313 H 0.9874 0.44776 0.40556 0.0
H314 H 0.95416 0.45694 0.38316 0.0
H315 H 0.90907 0.44653 0.38646 0.0
H316 H 0.50721 0.90367 0.9189 0.0
H317 H 0.49633 0.94835 0.91514 0.0
H318 H 0.56095 0.95819 0.88135 0.0
H319 H 0.57185 0.91325 0.88484 0.0
H320 H 0.52438 0.99166 0.92267 0.0
H321 H 0.50211 0.98582 0.85209 0.0
H322 H 0.50539 0.95802 0.86561 0.0
H323 H 0.53308 0.97444 0.85792 0.0
C324 C 0.51917 0.91529 0.91067 0.0
C325 C 0.54034 0.90482 0.90209 0.0
C326 C 0.5129 0.94085 0.90854 0.0
C327 C 0.52756 0.95649 0.89774 0.0
C328 C 0.54906 0.94631 0.88946 0.0
H329 H 0.51932 0.11535 0.86957 0.0
H330 H 0.53007 0.07051 0.87276 0.0
C331 C 0.55537 0.92067 0.89157 0.0
C332 C 0.52033 0.98349 0.89534 0.0
H333 H 0.50188 0.02681 0.8648 0.0
C334 C 0.51938 0.99934 0.91003 0.0
C335 C 0.51378 0.99344 0.87883 0.0
C336 C 0.51339 0.97704 0.86271 0.0
C337 C 0.51246 0.025 0.90862 0.0
C338 C 0.50589 0.03494 0.89213 0.0
C339 C 0.50687 0.01911 0.87743 0.0
C340 C 0.49853 0.06191 0.88979 0.0
C341 C 0.5128 0.04139 0.92475 0.0
C342 C 0.47688 0.07185 0.89801 0.0
C343 C 0.47064 0.09755 0.89622 0.0
C344 C 0.48592 0.11372 0.88611 0.0
C345 C 0.50718 0.10348 0.87752 0.0
C346 C 0.51337 0.07783 0.87931 0.0
H347 H 0.52399 0.03258 0.93541 0.0
H348 H 0.52086 0.0604 0.92187 0.0
H349 H 0.49308 0.04405 0.92949 0.0
H350 H 0.46488 0.05976 0.9059 0.0
H351 H 0.45408 0.10479 0.90295 0.0
H352 H 0.92022 0.56361 0.89076 0.0
H353 H 0.96468 0.54982 0.8912 0.0
H354 H 0.94075 0.47314 0.90191 0.0
H355 H 0.89652 0.48654 0.90097 0.0
H356 H 0.99267 0.52899 0.91655 0.0
H357 H 0.98754 0.46157 0.86141 0.0
H358 H 0.96246 0.48384 0.86616 0.0
H359 H 0.96465 0.45441 0.87797 0.0
C360 C 0.92447 0.54379 0.89311 0.0
C361 C 0.90484 0.52614 0.89567 0.0
C362 C 0.94986 0.53594 0.89337 0.0
C363 C 0.95606 0.51032 0.89621 0.0
C364 C 0.93647 0.49283 0.89916 0.0
H365 H 0.10247 0.45371 0.93099 0.0
H366 H 0.05812 0.46689 0.92852 0.0
C367 C 0.91115 0.50059 0.89873 0.0
C368 C 0.98297 0.50192 0.89663 0.0
H369 H 0.0242 0.45841 0.87959 0.0
C370 C 0.99962 0.51368 0.90838 0.0
C371 C 0.99216 0.48219 0.88577 0.0
C372 C 0.97583 0.46996 0.87199 0.0
C373 C 0.02501 0.50589 0.90987 0.0
C374 C 0.03383 0.48527 0.89968 0.0
C375 C 0.01735 0.47392 0.88762 0.0
C376 C 0.06025 0.47559 0.90101 0.0
C377 C 0.04222 0.52018 0.92213 0.0
C378 C 0.07585 0.47478 0.88619 0.0
C379 C 0.10107 0.46679 0.88749 0.0
C380 C 0.11124 0.45952 0.90367 0.0
C381 C 0.0953 0.45941 0.91837 0.0
C382 C 0.07 0.46718 0.91701 0.0
H383 H 0.03489 0.53955 0.9249 0.0
H384 H 0.04335 0.50983 0.93468 0.0
H385 H 0.06169 0.52187 0.91671 0.0
H386 H 0.06869 0.48096 0.87368 0.0
H387 H 0.1128 0.46709 0.87591 0.0
H388 H 0.54763 0.10417 0.37614 0.0
H389 H 0.53238 0.06045 0.37401 0.0
H390 H 0.53698 0.05297 0.42984 0.0
H391 H 0.55164 0.09684 0.43213 0.0
H392 H 0.55287 0.0157 0.38313 0.0
H393 H 0.46472 0.03108 0.42094 0.0
H394 H 0.4842 0.05695 0.41334 0.0
H395 H 0.49257 0.04001 0.43286 0.0
C396 C 0.54552 0.0932 0.38797 0.0
C397 C 0.55067 0.10409 0.40433 0.0
C398 C 0.53673 0.06821 0.38673 0.0
C399 C 0.53291 0.05361 0.40179 0.0
C400 C 0.53903 0.0641 0.41807 0.0
H401 H 0.52335 0.89162 0.41041 0.0
H402 H 0.535 0.93628 0.40966 0.0
C403 C 0.54765 0.08913 0.41935 0.0
C404 C 0.5229 0.02731 0.40047 0.0
H405 H 0.47644 0.98787 0.41565 0.0
C406 C 0.53605 0.00968 0.39013 0.0
C407 C 0.50061 0.01955 0.4093 0.0
C408 C 0.48455 0.03795 0.41958 0.0
C409 C 0.52809 0.98432 0.38891 0.0
C410 C 0.50672 0.97619 0.3986 0.0
C411 C 0.49299 0.99402 0.4084 0.0
C412 C 0.49905 0.94909 0.39932 0.0
C413 C 0.54262 0.96651 0.37715 0.0
C414 C 0.47452 0.94144 0.39441 0.0
C415 C 0.46762 0.91575 0.39502 0.0
C416 C 0.48514 0.89733 0.40059 0.0
C417 C 0.50945 0.90522 0.40585 0.0
C418 C 0.51624 0.93079 0.40533 0.0
H419 H 0.55273 0.97701 0.3667 0.0
H420 H 0.55705 0.95623 0.38494 0.0
H421 H 0.52985 0.95233 0.37102 0.0
H422 H 0.46085 0.9553 0.38989 0.0
H423 H 0.44874 0.9103 0.39092 0.0
H424 H 0.90756 0.47366 0.68497 0.0
H425 H 0.9503 0.49099 0.68153 0.0
H426 H 0.9457 0.47952 0.62602 0.0
H427 H 0.90274 0.46271 0.62927 0.0
H428 H 0.994 0.47111 0.66822 0.0
H429 H 0.96397 0.55404 0.62892 0.0
H430 H 0.94163 0.53414 0.64032 0.0
H431 H 0.95443 0.52426 0.61967 0.0
C432 C 0.91567 0.47468 0.67202 0.0
C433 C 0.90163 0.46698 0.65737 0.0
C434 C 0.9401 0.48465 0.67009 0.0
C435 C 0.95097 0.48712 0.65348 0.0
C436 C 0.93742 0.47847 0.63891 0.0
H437 H 0.09609 0.53338 0.61272 0.0
H438 H 0.05268 0.5186 0.61748 0.0
C439 C 0.91294 0.46865 0.64081 0.0
C440 C 0.97648 0.49871 0.65142 0.0
H441 H 0.00845 0.54646 0.63081 0.0
C442 C 0.99712 0.4877 0.66015 0.0
C443 C 0.98052 0.52046 0.64096 0.0
C444 C 0.95893 0.53409 0.63207 0.0
C445 C 0.02179 0.49741 0.65831 0.0
C446 C 0.02585 0.51883 0.64758 0.0
C447 C 1.00523 0.53001 0.639 0.0
C448 C 0.05157 0.52933 0.64465 0.0
C449 C 0.04346 0.48432 0.66746 0.0
C450 C 0.06507 0.54088 0.65827 0.0
C451 C 0.08987 0.54951 0.65558 0.0
C452 C 0.10161 0.54664 0.63923 0.0
C453 C 0.08767 0.53579 0.62549 0.0
C454 C 0.06286 0.52733 0.62817 0.0
H455 H 0.03788 0.46545 0.67265 0.0
H456 H 0.0598 0.48181 0.65848 0.0
H457 H 0.04987 0.49624 0.67853 0.0
H458 H 0.05652 0.5429 0.67103 0.0
H459 H 0.10006 0.55779 0.66642 0.0
H460 H 0.45928 0.10617 0.1639 0.0
H461 H 0.47391 0.06226 0.1668 0.0
H462 H 0.47785 0.0555 0.1109 0.0
H463 H 0.46375 0.09943 0.10788 0.0
H464 H 0.45509 0.0171 0.15543 0.0
H465 H 0.5489 0.03456 0.12524 0.0
H466 H 0.52799 0.05998 0.13178 0.0
H467 H 0.52307 0.04378 0.11142 0.0
C468 C 0.46307 0.09528 0.15221 0.0
C469 C 0.46055 0.10641 0.13565 0.0
C470 C 0.47151 0.0702 0.1539 0.0
C471 C 0.47762 0.05579 0.13908 0.0
C472 C 0.47398 0.06648 0.12253 0.0
H473 H 0.4911 0.89425 0.12848 0.0
H474 H 0.47879 0.93879 0.12891 0.0
C475 C 0.46568 0.09155 0.12083 0.0
C476 C 0.4877 0.02957 0.14087 0.0
H477 H 0.53701 0.99112 0.12894 0.0
C478 C 0.47309 0.01147 0.14975 0.0
C479 C 0.51146 0.02232 0.1338 0.0
C480 C 0.5289 0.04124 0.12519 0.0
C481 C 0.48111 0.98613 0.15115 0.0
C482 C 0.50413 0.97855 0.14315 0.0
C483 C 0.51923 0.99685 0.13487 0.0
C484 C 0.51228 0.95156 0.14262 0.0
C485 C 0.46487 0.96773 0.16126 0.0
C486 C 0.53576 0.94397 0.14955 0.0
C487 C 0.54306 0.91836 0.14917 0.0
C488 C 0.52699 0.89997 0.14178 0.0
C489 C 0.50383 0.90783 0.13445 0.0
C490 C 0.49664 0.93331 0.13478 0.0
H491 H 0.4527 0.97772 0.17091 0.0
H492 H 0.4522 0.95748 0.15211 0.0
H493 H 0.47667 0.95354 0.16823 0.0
H494 H 0.54824 0.95779 0.1555 0.0
H495 H 0.56103 0.91294 0.15488 0.0
H496 H 0.19027 0.51624 0.34078 0.0
H497 H 0.19547 0.50161 0.31082 0.0
H498 H 0.26146 0.54922 0.30508 0.0
H499 H 0.25592 0.56457 0.33493 0.0
H500 H 0.23051 0.55517 0.27828 0.0
H501 H 0.24386 0.45233 0.28905 0.0
H502 H 0.21518 0.46358 0.29897 0.0
H503 H 0.24538 0.4751 0.30658 0.0
C504 C 0.20615 0.52331 0.33326 0.0
C505 C 0.22271 0.54156 0.34029 0.0
C506 C 0.20918 0.51481 0.31612 0.0
C507 C 0.22909 0.524 0.30572 0.0
C508 C 0.246 0.54178 0.31285 0.0
H509 H 0.2587 0.45668 0.20342 0.0
H510 H 0.26336 0.47223 0.23327 0.0
C511 C 0.24284 0.55049 0.32994 0.0
C512 C 0.23123 0.51636 0.2871 0.0
H513 H 0.23258 0.4649 0.26004 0.0
C514 C 0.23125 0.53542 0.27431 0.0
C515 C 0.23261 0.49064 0.28185 0.0
C516 C 0.23454 0.46927 0.29485 0.0
C517 C 0.23177 0.52946 0.25647 0.0
C518 C 0.23156 0.5037 0.25122 0.0
C519 C 0.23241 0.48466 0.26401 0.0
C520 C 0.22986 0.49598 0.2326 0.0
C521 C 0.23277 0.55089 0.24347 0.0
C522 C 0.2096 0.50428 0.22218 0.0
C523 C 0.20706 0.49566 0.20503 0.0
C524 C 0.22449 0.47818 0.19802 0.0
C525 C 0.24495 0.47016 0.20839 0.0
C526 C 0.24761 0.47898 0.22549 0.0
H527 H 0.24128 0.56823 0.24927 0.0
H528 H 0.24392 0.54554 0.23175 0.0
H529 H 0.21319 0.55571 0.23933 0.0
H530 H 0.19527 0.51685 0.22746 0.0
H531 H 0.19091 0.50202 0.19749 0.0
H532 H 0.55883 0.25822 0.70291 0.0
H533 H 0.54593 0.25964 0.73358 0.0
H534 H 0.50115 0.19209 0.72626 0.0
H535 H 0.5138 0.19047 0.69565 0.0
H536 H 0.49462 0.25984 0.74936 0.0
H537 H 0.5525 0.17537 0.76653 0.0
H538 H 0.55769 0.19348 0.74689 0.0
H539 H 0.53188 0.17132 0.7481 0.0
C540 C 0.54602 0.24381 0.70776 0.0
C541 C 0.53748 0.22415 0.69682 0.0
C542 C 0.5387 0.24466 0.7253 0.0
C543 C 0.52292 0.22575 0.73222 0.0
C544 C 0.51364 0.20665 0.72121 0.0
H545 H 0.43597 0.20812 0.82529 0.0
H546 H 0.45223 0.2164 0.7961 0.0
C547 C 0.5208 0.20585 0.70368 0.0
C548 C 0.51659 0.22549 0.75104 0.0
H549 H 0.52347 0.1901 0.78797 0.0
C550 C 0.50107 0.24473 0.75786 0.0
C551 C 0.52537 0.20597 0.76214 0.0
C552 C 0.54297 0.18544 0.75564 0.0
C553 C 0.49325 0.24437 0.77537 0.0
C554 C 0.50105 0.22417 0.78626 0.0
C555 C 0.51741 0.20551 0.77959 0.0
C556 C 0.49121 0.2211 0.80425 0.0
C557 C 0.47657 0.26551 0.78206 0.0
C558 C 0.50777 0.22077 0.81857 0.0
C559 C 0.49851 0.21603 0.83538 0.0
C560 C 0.47257 0.21116 0.83808 0.0
C561 C 0.45606 0.2118 0.8237 0.0
C562 C 0.46528 0.21671 0.80698 0.0
H563 H 0.47811 0.28277 0.77382 0.0
H564 H 0.4565 0.25917 0.78186 0.0
H565 H 0.48154 0.27056 0.79568 0.0
H566 H 0.5279 0.22392 0.81671 0.0
H567 H 0.51173 0.21556 0.84616 0.0
H568 H 0.83568 0.48684 0.19724 0.0
H569 H 0.83013 0.47827 0.22829 0.0
H570 H 0.78501 0.54617 0.23348 0.0
H571 H 0.78988 0.55449 0.20237 0.0
H572 H 0.84701 0.50696 0.25417 0.0
H573 H 0.74297 0.49705 0.26126 0.0
H574 H 0.75856 0.49648 0.24032 0.0
H575 H 0.75187 0.52623 0.25092 0.0
C576 C 0.82415 0.4997 0.20491 0.0
C577 C 0.81323 0.52136 0.19728 0.0
C578 C 0.82103 0.49479 0.22269 0.0
C579 C 0.80695 0.51142 0.23326 0.0
C580 C 0.79546 0.53271 0.22559 0.0
H581 H 0.83233 0.52813 0.34449 0.0
H582 H 0.82831 0.53453 0.31309 0.0
C583 C 0.79839 0.53752 0.20776 0.0
C584 C 0.80623 0.50765 0.25248 0.0
H585 H 0.76656 0.50276 0.2876 0.0
C586 C 0.82938 0.50588 0.26144 0.0
C587 C 0.78326 0.50599 0.26201 0.0
C588 C 0.75776 0.50628 0.25312 0.0
C589 C 0.83025 0.50289 0.27959 0.0
C590 C 0.80733 0.50234 0.28921 0.0
C591 C 0.78413 0.50359 0.28026 0.0
C592 C 0.80722 0.49994 0.30852 0.0
C593 C 0.85579 0.4999 0.28824 0.0
C594 C 0.7955 0.47909 0.31656 0.0
C595 C 0.79747 0.47554 0.33459 0.0
C596 C 0.81124 0.49279 0.34492 0.0
C597 C 0.82182 0.51433 0.33692 0.0
C598 C 0.81968 0.51794 0.31894 0.0
H599 H 0.87056 0.49365 0.27883 0.0
H600 H 0.8618 0.51845 0.2937 0.0
H601 H 0.85491 0.48593 0.29904 0.0
H602 H 0.78562 0.46504 0.30881 0.0
H603 H 0.78905 0.45875 0.34031 0.0
H604 H 0.48899 0.83795 0.84838 0.0
H605 H 0.48041 0.83238 0.81733 0.0
H606 H 0.54832 0.78726 0.81216 0.0
H607 H 0.55654 0.79202 0.84326 0.0
H608 H 0.50859 0.84952 0.79173 0.0
H609 H 0.50032 0.74554 0.78378 0.0
H610 H 0.49969 0.76068 0.80487 0.0
H611 H 0.52946 0.75435 0.79417 0.0
C612 C 0.5018 0.82637 0.84072 0.0
C613 C 0.52345 0.81544 0.84833 0.0
C614 C 0.49691 0.82324 0.82294 0.0
C615 C 0.51357 0.8092 0.81236 0.0
C616 C 0.5348 0.79765 0.82005 0.0
H617 H 0.53091 0.83786 0.70148 0.0
H618 H 0.53724 0.83332 0.73286 0.0
C619 C 0.53956 0.80052 0.83787 0.0
C620 C 0.51004 0.80872 0.79311 0.0
H621 H 0.50689 0.76955 0.75765 0.0
C622 C 0.50802 0.83199 0.78433 0.0
C623 C 0.50905 0.78588 0.78339 0.0
C624 C 0.50948 0.76021 0.79206 0.0
C625 C 0.50544 0.83312 0.76616 0.0
C626 C 0.50567 0.81035 0.75634 0.0
C627 C 0.50717 0.78702 0.76513 0.0
C628 C 0.50365 0.81049 0.73702 0.0
C629 C 0.50195 0.85876 0.75772 0.0
C630 C 0.48355 0.79789 0.72872 0.0
C631 C 0.48014 0.80007 0.7107 0.0
C632 C 0.49672 0.81501 0.70064 0.0
C633 C 0.51762 0.82646 0.70886 0.0
C634 C 0.52116 0.82404 0.72683 0.0
H635 H 0.4949 0.87311 0.76717 0.0
H636 H 0.52049 0.86549 0.75266 0.0
H637 H 0.4884 0.85772 0.74668 0.0
H638 H 0.46991 0.78715 0.73627 0.0
H639 H 0.46386 0.79095 0.70481 0.0
H640 H 0.79893 0.51853 0.84558 0.0
H641 H 0.79338 0.50522 0.81507 0.0
H642 H 0.83921 0.56827 0.79817 0.0
H643 H 0.84492 0.58157 0.82826 0.0
H644 H 0.77387 0.53419 0.78508 0.0
H645 H 0.87423 0.50479 0.77695 0.0
H646 H 0.8597 0.50903 0.79806 0.0
H647 H 0.87042 0.53609 0.78586 0.0
C648 C 0.80775 0.52956 0.83534 0.0
C649 C 0.82254 0.55099 0.8394 0.0
C650 C 0.80454 0.52196 0.81794 0.0
C651 C 0.81621 0.53556 0.8044 0.0
C652 C 0.8304 0.55726 0.80843 0.0
H653 H 0.83727 0.53311 0.69359 0.0
H654 H 0.83464 0.54315 0.72462 0.0
C655 C 0.83357 0.56486 0.82569 0.0
C656 C 0.81409 0.52726 0.78598 0.0
H657 H 0.85009 0.50976 0.75098 0.0
C658 C 0.79043 0.52852 0.77763 0.0
C659 C 0.83574 0.5199 0.77632 0.0
C660 C 0.86143 0.51712 0.78476 0.0
C661 C 0.78809 0.52363 0.75967 0.0
C662 C 0.80993 0.51701 0.74993 0.0
C663 C 0.83341 0.51509 0.75842 0.0
C664 C 0.80914 0.51231 0.73085 0.0
C665 C 0.76248 0.52647 0.75115 0.0
C666 C 0.7954 0.49182 0.72398 0.0
C667 C 0.79683 0.48603 0.7062 0.0
C668 C 0.81216 0.50055 0.69496 0.0
C669 C 0.82525 0.52155 0.70182 0.0
C670 C 0.82382 0.52729 0.71958 0.0
H671 H 0.74897 0.53716 0.75951 0.0
H672 H 0.76422 0.53636 0.73844 0.0
H673 H 0.75438 0.50738 0.74869 0.0
H674 H 0.7843 0.47973 0.73246 0.0
H675 H 0.78658 0.46966 0.70139 0.0
H676 H 0.43032 0.78949 0.3319 0.0
H677 H 0.44566 0.78721 0.30195 0.0
H678 H 0.52144 0.80432 0.31945 0.0
H679 H 0.50628 0.80643 0.34959 0.0
H680 H 0.46786 0.82683 0.28389 0.0
H681 H 0.53279 0.74403 0.28661 0.0
H682 H 0.50943 0.75039 0.30328 0.0
H683 H 0.53881 0.76768 0.30295 0.0
C684 C 0.45034 0.79242 0.32947 0.0
C685 C 0.46707 0.79816 0.34319 0.0
C686 C 0.45906 0.79114 0.3123 0.0
C687 C 0.48471 0.79537 0.30845 0.0
C688 C 0.50163 0.80052 0.32214 0.0
H689 H 0.57466 0.8189 0.21669 0.0
H690 H 0.5575 0.81245 0.24582 0.0
C691 C 0.49292 0.80182 0.33937 0.0
C692 C 0.4933 0.79614 0.29002 0.0
H693 H 0.53491 0.76964 0.2611 0.0
C694 C 0.48235 0.81416 0.27885 0.0
C695 C 0.5122 0.77961 0.28347 0.0
C696 C 0.52386 0.75916 0.29464 0.0
C697 C 0.49032 0.81664 0.26147 0.0
C698 C 0.50946 0.80034 0.25498 0.0
C699 C 0.52018 0.78207 0.26608 0.0
C700 C 0.5197 0.80301 0.23705 0.0
C701 C 0.47884 0.83731 0.25039 0.0
C702 C 0.50424 0.79942 0.22234 0.0
C703 C 0.51402 0.80313 0.20554 0.0
C704 C 0.53945 0.81046 0.2032 0.0
C705 C 0.55495 0.81341 0.21797 0.0
C706 C 0.5452 0.80966 0.23468 0.0
H707 H 0.46845 0.85155 0.25835 0.0
H708 H 0.49373 0.84724 0.24276 0.0
H709 H 0.46523 0.82874 0.24108 0.0
H710 H 0.48458 0.79387 0.22387 0.0
H711 H 0.50162 0.80059 0.19445 0.0
H712 H 0.21642 0.43562 0.82716 0.0
H713 H 0.21953 0.45258 0.79772 0.0
H714 H 0.21114 0.52858 0.8178 0.0
H715 H 0.20833 0.51171 0.84751 0.0
H716 H 0.18198 0.47942 0.78127 0.0
H717 H 0.27054 0.53617 0.78393 0.0
H718 H 0.2626 0.51275 0.8002 0.0
H719 H 0.24801 0.54359 0.80075 0.0
C720 C 0.21557 0.456 0.8254 0.0
C721 C 0.21205 0.47232 0.83971 0.0
C722 C 0.21736 0.46565 0.80852 0.0
C723 C 0.21577 0.49185 0.80554 0.0
C724 C 0.2129 0.50832 0.81982 0.0
H725 H 0.19768 0.58595 0.71484 0.0
H726 H 0.20417 0.56823 0.74381 0.0
C727 C 0.21119 0.49865 0.83679 0.0
C728 C 0.21514 0.50153 0.78737 0.0
H729 H 0.24475 0.54132 0.75874 0.0
C730 C 0.19584 0.4928 0.7763 0.0
C731 C 0.23319 0.51902 0.78093 0.0
C732 C 0.25491 0.5283 0.792 0.0
C733 C 0.19372 0.50149 0.75909 0.0
C734 C 0.21168 0.51908 0.75265 0.0
C735 C 0.23109 0.52773 0.76368 0.0
C736 C 0.20972 0.52974 0.73481 0.0
C737 C 0.17177 0.4924 0.74813 0.0
C738 C 0.2113 0.51406 0.72003 0.0
C739 C 0.20752 0.52414 0.70334 0.0
C740 C 0.20218 0.5501 0.70118 0.0
C741 C 0.20158 0.56584 0.716 0.0
C742 C 0.20536 0.55577 0.73261 0.0
H743 H 0.15666 0.4835 0.75616 0.0
H744 H 0.16332 0.50833 0.74066 0.0
H745 H 0.17868 0.47801 0.73869 0.0
H746 H 0.21509 0.49396 0.72141 0.0
H747 H 0.20825 0.51153 0.69221 0.0
H748 H 0.50709 0.20428 0.34655 0.0
H749 H 0.49114 0.20843 0.31664 0.0
H750 H 0.56794 0.20988 0.29732 0.0
H751 H 0.58398 0.20548 0.32693 0.0
H752 H 0.50038 0.24553 0.29006 0.0
H753 H 0.53563 0.15007 0.2711 0.0
H754 H 0.53322 0.16011 0.29351 0.0
H755 H 0.55935 0.17052 0.28028 0.0
C756 C 0.52056 0.20569 0.33594 0.0
C757 C 0.5468 0.20424 0.33912 0.0
C758 C 0.51143 0.20805 0.31887 0.0
C759 C 0.52837 0.20895 0.30475 0.0
C760 C 0.55453 0.20866 0.30798 0.0
H761 H 0.50914 0.20534 0.19177 0.0
H762 H 0.52675 0.20997 0.22119 0.0
C763 C 0.56365 0.20623 0.32496 0.0
C764 C 0.51886 0.20945 0.28657 0.0
H765 H 0.51919 0.17577 0.24853 0.0
C766 C 0.50442 0.23028 0.28097 0.0
C767 C 0.52424 0.18954 0.27473 0.0
C768 C 0.53876 0.16617 0.2802 0.0
C769 C 0.49545 0.23186 0.26377 0.0
C770 C 0.50075 0.21189 0.25196 0.0
C771 C 0.51532 0.19115 0.25756 0.0
C772 C 0.49022 0.21133 0.23405 0.0
C773 C 0.48067 0.25504 0.25831 0.0
C774 C 0.4639 0.21056 0.23153 0.0
C775 C 0.45383 0.20788 0.21482 0.0
C776 C 0.46987 0.20576 0.20023 0.0
C777 C 0.49627 0.20701 0.20272 0.0
C778 C 0.50635 0.20962 0.21951 0.0
H779 H 0.48455 0.27146 0.26699 0.0
H780 H 0.48525 0.26051 0.2447 0.0
H781 H 0.46008 0.25081 0.25905 0.0
H782 H 0.45109 0.21129 0.24256 0.0
H783 H 0.43341 0.20695 0.2134 0.0
H784 H 0.18796 0.49893 0.94566 0.0
H785 H 0.18606 0.50841 0.97684 0.0
H786 H 0.2496 0.45856 0.98582 0.0
H787 H 0.25186 0.44921 0.9547 0.0
H788 H 0.17683 0.47239 1.00208 0.0
H789 H 0.26844 0.52026 1.01518 0.0
H790 H 0.25575 0.5167 0.99347 0.0
H791 H 0.27171 0.49061 1.00385 0.0
C792 C 0.20187 0.49037 0.95421 0.0
C793 C 0.22005 0.47327 0.94765 0.0
C794 C 0.20073 0.49579 0.97204 0.0
C795 C 0.21785 0.48442 0.98366 0.0
C796 C 0.23652 0.46799 0.97708 0.0
H797 H 0.22861 0.46287 0.09485 0.0
H798 H 0.23594 0.46539 0.06342 0.0
C799 C 0.23768 0.46254 0.95926 0.0
C800 C 0.21463 0.48774 1.00277 0.0
H801 H 0.24537 0.50553 0.04001 0.0
C802 C 0.1917 0.47993 1.01035 0.0
C803 C 0.23413 0.49739 1.01356 0.0
C804 C 0.25882 0.50694 1.00611 0.0
C805 C 0.18796 0.48081 0.02844 0.0
C806 C 0.20751 0.49027 0.03928 0.0
C807 C 0.23038 0.49834 0.0317 0.0
C808 C 0.20472 0.49108 0.05853 0.0
C809 C 0.16341 0.47071 0.03584 0.0
C810 C 0.18531 0.5054 0.06632 0.0
C811 C 0.18099 0.50392 0.08426 0.0
C812 C 0.19615 0.48825 0.09482 0.0
C813 C 0.21651 0.47506 0.08712 0.0
C814 C 0.22074 0.47648 0.06914 0.0
H815 H 0.15318 0.45854 0.02633 0.0
H816 H 0.1669 0.45949 0.04783 0.0
H817 H 0.15084 0.48686 0.03925 0.0
H818 H 0.17306 0.51723 0.05843 0.0
H819 H 0.1653 0.51452 0.08977 0.0
H820 H 0.56251 0.2496 0.45234 0.0
H821 H 0.55337 0.24805 0.48357 0.0
H822 H 0.50572 0.18263 0.47557 0.0
H823 H 0.51502 0.18375 0.44439 0.0
H824 H 0.50803 0.24852 0.50384 0.0
H825 H 0.5602 0.15724 0.50958 0.0
H826 H 0.5621 0.17697 0.49044 0.0
H827 H 0.53489 0.15708 0.49395 0.0
C828 C 0.5498 0.23507 0.45716 0.0
C829 C 0.53975 0.21661 0.44586 0.0
C830 C 0.54459 0.23424 0.47503 0.0
C831 C 0.52927 0.21494 0.48194 0.0
C832 C 0.51801 0.19739 0.47056 0.0
H833 H 0.50171 0.16332 0.58767 0.0
H834 H 0.49855 0.17117 0.5564 0.0
C835 C 0.52326 0.19815 0.45271 0.0
C836 C 0.52637 0.21222 0.50109 0.0
H837 H 0.53988 0.1724 0.53489 0.0
C838 C 0.51494 0.23188 0.51066 0.0
C839 C 0.53552 0.19054 0.50996 0.0
C840 C 0.54908 0.16933 0.50052 0.0
C841 C 0.51211 0.23025 0.52885 0.0
C842 C 0.52133 0.20858 0.5377 0.0
C843 C 0.53265 0.18892 0.52809 0.0
C844 C 0.52027 0.20598 0.55697 0.0
C845 C 0.49896 0.25156 0.5384 0.0
C846 C 0.53315 0.22318 0.56778 0.0
C847 C 0.53493 0.21879 0.58572 0.0
C848 C 0.52408 0.19694 0.59317 0.0
C849 C 0.51034 0.1803 0.58239 0.0
C850 C 0.50852 0.18474 0.56449 0.0
H851 H 0.48679 0.26292 0.52953 0.0
H852 H 0.48708 0.24417 0.54921 0.0
H853 H 0.51345 0.26443 0.54403 0.0
H854 H 0.54281 0.23942 0.56225 0.0
H855 H 0.54576 0.23194 0.5936 0.0
H856 H 0.82632 0.52882 0.09449 0.0
H857 H 0.82525 0.52242 0.063 0.0
H858 H 0.75193 0.55862 0.06065 0.0
H859 H 0.75323 0.56587 0.09213 0.0
H860 H 0.7943 0.4984 0.04019 0.0
H861 H 0.79212 0.60225 0.02769 0.0
H862 H 0.79767 0.5893 0.04906 0.0
H863 H 0.76599 0.59076 0.04042 0.0
C864 C 0.80981 0.5352 0.08733 0.0
C865 C 0.79 0.54818 0.09583 0.0
C866 C 0.80923 0.53152 0.06929 0.0
C867 C 0.7888 0.5406 0.05935 0.0
C868 C 0.76825 0.55211 0.06795 0.0
H869 H 0.78085 0.55181 0.94495 0.0
H870 H 0.76716 0.54785 0.97543 0.0
C871 C 0.76893 0.55607 0.08598 0.0
C872 C 0.78979 0.53904 0.04 0.0
H873 H 0.79173 0.57547 1.00319 0.0
C874 C 0.79354 0.51525 0.0321 0.0
C875 C 0.78884 0.56103 0.02939 0.0
C876 C 0.78617 0.58731 0.03703 0.0
C877 C 0.79682 0.51292 1.01399 0.0
C878 C 0.79645 0.53495 1.0035 0.0
C879 C 0.79181 0.5586 1.01127 0.0
C880 C 0.80344 0.53433 0.98476 0.0
C881 C 0.80097 0.48695 1.00623 0.0
C882 C 0.82827 0.52786 0.9799 0.0
C883 C 0.83616 0.5303 0.96262 0.0
C884 C 0.81936 0.53918 0.94978 0.0
C885 C 0.79417 0.54471 0.95451 0.0
C886 C 0.78635 0.54254 0.97191 0.0
H887 H 0.79379 0.47173 1.01494 0.0
H888 H 0.79148 0.48525 0.99338 0.0
H889 H 0.8216 0.48385 1.00428 0.0
H890 H 0.8419 0.5219 0.98963 0.0
H891 H 0.85569 0.52588 0.95941 0.0
H892 H 0.44032 0.84235 0.58372 0.0
H893 H 0.44773 0.8305 0.55353 0.0
H894 H 0.49786 0.7705 0.57 0.0
H895 H 0.49066 0.78244 0.60062 0.0
H896 H 0.51598 0.80015 0.54073 0.0
H897 H 0.41769 0.76616 0.53091 0.0
H898 H 0.41895 0.79746 0.54011 0.0
H899 H 0.43117 0.77097 0.55227 0.0
C900 C 0.45297 0.82662 0.58104 0.0
C901 C 0.46471 0.81318 0.59465 0.0
C902 C 0.45711 0.81983 0.56371 0.0
C903 C 0.47295 0.79934 0.55952 0.0
C904 C 0.48539 0.78627 0.57298 0.0
H905 H 0.45982 0.74875 0.45144 0.0
H906 H 0.46558 0.74677 0.48299 0.0
C907 C 0.48124 0.79309 0.59044 0.0
C908 C 0.47601 0.79179 0.541 0.0
H909 H 0.44132 0.77595 0.50513 0.0
C910 C 0.49978 0.79444 0.53296 0.0
C911 C 0.45498 0.78389 0.53094 0.0
C912 C 0.42931 0.77919 0.53902 0.0
C913 C 0.50273 0.79082 0.5149 0.0
C914 C 0.48123 0.78483 0.50462 0.0
C915 C 0.45781 0.78077 0.5129 0.0
C916 C 0.48192 0.7843 0.48523 0.0
C917 C 0.52879 0.79365 0.50703 0.0
C918 C 0.48972 0.80581 0.47585 0.0
C919 C 0.48666 0.8069 0.45776 0.0
C920 C 0.47532 0.78666 0.44869 0.0
C921 C 0.46855 0.7647 0.458 0.0
C922 C 0.47182 0.76354 0.47607 0.0
H923 H 0.54381 0.78909 0.51668 0.0
H924 H 0.53125 0.78117 0.49549 0.0
H925 H 0.53154 0.81363 0.5029 0.0
H926 H 0.49696 0.82234 0.48259 0.0
H927 H 0.49195 0.82417 0.45105 0.0
H928 H 0.22337 0.53053 0.44171 0.0
H929 H 0.23174 0.52204 0.47266 0.0
H930 H 0.15859 0.55321 0.486 0.0
H931 H 0.15001 0.56135 0.45543 0.0
H932 H 0.23475 0.55707 0.49878 0.0
H933 H 0.15889 0.4889 0.5146 0.0
H934 H 0.16812 0.49581 0.49244 0.0
H935 H 0.14603 0.51612 0.50375 0.0
C936 C 0.20893 0.53514 0.45124 0.0
C937 C 0.18602 0.54661 0.44609 0.0
C938 C 0.21374 0.53031 0.46891 0.0
C939 C 0.1956 0.53655 0.48165 0.0
C940 C 0.17261 0.54758 0.47643 0.0
H941 H 0.19697 0.59769 0.58118 0.0
H942 H 0.20238 0.58589 0.5508 0.0
C943 C 0.16784 0.55246 0.45889 0.0
C944 C 0.20118 0.53391 0.50053 0.0
H945 H 0.17397 0.51491 0.53872 0.0
C946 C 0.22181 0.54733 0.5075 0.0
C947 C 0.18466 0.52078 0.51195 0.0
C948 C 0.16336 0.50436 0.50526 0.0
C949 C 0.22507 0.54975 0.52557 0.0
C950 C 0.20697 0.53887 0.53697 0.0
C951 C 0.18763 0.52363 0.53002 0.0
C952 C 0.2059 0.54562 0.55575 0.0
C953 C 0.24746 0.56464 0.53228 0.0
C954 C 0.20562 0.52686 0.56876 0.0
C955 C 0.20234 0.53358 0.58631 0.0
C956 C 0.19893 0.55915 0.59108 0.0
C957 C 0.19957 0.57782 0.57801 0.0
C958 C 0.20292 0.57112 0.56059 0.0
H959 H 0.26372 0.5635 0.52309 0.0
H960 H 0.24205 0.58492 0.5335 0.0
H961 H 0.25369 0.5577 0.54524 0.0
H962 H 0.20761 0.50702 0.5653 0.0
H963 H 0.20181 0.51875 0.59606 0.0
H964 H 0.47148 0.23086 0.94581 0.0
H965 H 0.47431 0.23591 0.97736 0.0
H966 H 0.5236 0.1707 0.98027 0.0
H967 H 0.52056 0.16525 0.94873 0.0
H968 H 0.4832 0.16651 1.00174 0.0
H969 H 0.52753 0.26063 1.01145 0.0
H970 H 0.50102 0.26183 0.99683 0.0
H971 H 0.52883 0.24396 0.99089 0.0
C972 C 0.4834 0.21792 0.95308 0.0
C973 C 0.49567 0.19755 0.94472 0.0
C974 C 0.48513 0.22094 0.97115 0.0
C975 C 0.49937 0.20383 0.98121 0.0
C976 C 0.51258 0.18419 0.97278 0.0
H977 H 0.50496 0.19723 0.09622 0.0
H978 H 0.519 0.1981 0.06566 0.0
C979 C 0.51082 0.18112 0.95473 0.0
C980 C 0.49795 0.2046 1.00054 0.0
H981 H 0.50425 0.24366 0.03588 0.0
C982 C 0.48826 0.18323 1.00921 0.0
C983 C 0.50459 0.22639 1.01034 0.0
C984 C 0.51631 0.24941 1.00192 0.0
C985 C 0.48397 0.18348 0.02724 0.0
C986 C 0.48941 0.20566 0.03686 0.0
C987 C 0.50003 0.22671 0.0284 0.0
C988 C 0.48205 0.20774 0.0554 0.0
C989 C 0.4728 0.16035 0.03589 0.0
C990 C 0.45682 0.2133 0.05965 0.0
C991 C 0.44877 0.21282 0.07696 0.0
C992 C 0.46581 0.20672 0.09042 0.0
C993 C 0.49138 0.20203 0.08618 0.0
C994 C 0.49943 0.20252 0.06876 0.0
H995 H 0.47259 0.14362 0.02708 0.0
H996 H 0.48374 0.15551 0.04778 0.0
H997 H 0.45301 0.16452 0.03996 0.0
H998 H 0.44315 0.21733 0.04948 0.0
H999 H 0.42898 0.21664 0.07972 0.0
H1000 H 0.75505 0.44782 0.45205 0.0
H1001 H 0.75388 0.45615 0.48335 0.0
H1002 H 0.81995 0.50386 0.47862 0.0
H1003 H 0.82098 0.49603 0.44725 0.0
H1004 H 0.79101 0.44232 0.50558 0.0
H1005 H 0.77611 0.54608 0.51079 0.0
H1006 H 0.7705 0.52874 0.49087 0.0
H1007 H 0.80221 0.53784 0.49687 0.0
C1008 C 0.76902 0.46054 0.45758 0.0
C1009 C 0.78815 0.4712 0.44711 0.0
C1010 C 0.76833 0.46526 0.47551 0.0
C1011 C 0.78668 0.48081 0.48337 0.0
C1012 C 0.80524 0.49225 0.47285 0.0
H1013 H 0.84356 0.50525 0.58696 0.0
H1014 H 0.83337 0.50672 0.55593 0.0
C1015 C 0.80588 0.48763 0.45489 0.0
C1016 C 0.78797 0.48284 0.50268 0.0
H1017 H 0.79086 0.525 0.53652 0.0
C1018 C 0.79061 0.46039 0.51235 0.0
C1019 C 0.78763 0.50643 0.51153 0.0
C1020 C 0.78371 0.53113 0.502 0.0
C1021 C 0.7937 0.46087 0.53051 0.0
C1022 C 0.79374 0.48446 0.53934 0.0
C1023 C 0.79076 0.50693 0.52973 0.0
C1024 C 0.79813 0.48606 0.55842 0.0
C1025 C 0.79786 0.43615 0.54001 0.0
C1026 C 0.78126 0.4747 0.57023 0.0
C1027 C 0.78703 0.47378 0.58802 0.0
C1028 C 0.80978 0.48428 0.59433 0.0
C1029 C 0.82595 0.49684 0.58256 0.0
C1030 C 0.82015 0.49775 0.5648 0.0
H1031 H 0.80281 0.42043 0.53097 0.0
H1032 H 0.81325 0.43806 0.54979 0.0
H1033 H 0.7802 0.43084 0.54698 0.0
H1034 H 0.76393 0.46594 0.56563 0.0
H1035 H 0.77408 0.46409 0.59672 0.0
H1036 H 0.58708 0.80807 0.08234 0.0
H1037 H 0.57487 0.80086 0.05217 0.0
H1038 H 0.49648 0.79451 0.06759 0.0
H1039 H 0.5086 0.80184 0.09814 0.0
H1040 H 0.54675 0.75835 0.03697 0.0
H1041 H 0.49859 0.852 0.02963 0.0
H1042 H 0.52056 0.84588 0.04715 0.0
H1043 H 0.48957 0.83192 0.04756 0.0
C1044 C 0.56721 0.80503 0.07941 0.0
C1045 C 0.54878 0.80569 0.09266 0.0
C1046 C 0.56029 0.80083 0.06213 0.0
C1047 C 0.53478 0.79737 0.05762 0.0
C1048 C 0.51627 0.79738 0.0708 0.0
H1049 H 0.48991 0.80348 0.94687 0.0
H1050 H 0.48582 0.79709 0.97843 0.0
C1051 C 0.52323 0.80144 0.08823 0.0
C1052 C 0.52804 0.79457 0.03896 0.0
H1053 H 0.50515 0.82804 1.00429 0.0
C1054 C 0.53723 0.77337 0.02985 0.0
C1055 C 0.5155 0.81409 0.02972 0.0
C1056 C 0.50551 0.83738 0.03889 0.0
C1057 C 0.53522 0.77168 1.01165 0.0
C1058 C 0.52424 0.79202 1.00227 0.0
C1059 C 0.51365 0.81251 1.01148 0.0
C1060 C 0.52618 0.79377 0.98299 0.0
C1061 C 0.5454 0.74837 1.00262 0.0
C1062 C 0.55018 0.79409 0.97508 0.0
C1063 C 0.55258 0.79773 0.95716 0.0
C1064 C 0.53101 0.80135 0.94667 0.0
C1065 C 0.50689 0.80063 0.95454 0.0
C1066 C 0.50452 0.79703 0.97258 0.0
H1067 H 0.54473 0.73156 1.01133 0.0
H1068 H 0.53456 0.74407 0.99058 0.0
H1069 H 0.56554 0.75161 0.99902 0.0
H1070 H 0.56721 0.79225 0.98287 0.0
H1071 H 0.57146 0.79825 0.95159 0.0
H1072 H 0.27243 0.39991 0.13192 0.0
H1073 H 0.29502 0.35985 0.13524 0.0
H1074 H 0.22974 0.32698 0.16037 0.0
H1075 H 0.20673 0.36738 0.1572 0.0
H1076 H 0.30009 0.33327 0.17164 0.0
H1077 H 0.25592 0.27722 0.11803 0.0
H1078 H 0.25775 0.31142 0.11684 0.0
H1079 H 0.23659 0.29681 0.13208 0.0
C1080 C 0.2627 0.3842 0.13808 0.0
C1081 C 0.23774 0.38691 0.14433 0.0
C1082 C 0.27569 0.3613 0.13995 0.0
C1083 C 0.26401 0.34052 0.14798 0.0
C1084 C 0.23898 0.34284 0.15404 0.0
H1085 H 0.3436 0.19311 0.15652 0.0
H1086 H 0.30939 0.2248 0.15797 0.0
C1087 C 0.22591 0.36591 0.15223 0.0
C1088 C 0.27881 0.31694 0.15054 0.0
H1089 H 0.29184 0.25962 0.13174 0.0
C1090 C 0.29804 0.31696 0.16313 0.0
C1091 C 0.27592 0.2957 0.13948 0.0
C1092 C 0.25548 0.29503 0.12578 0.0
C1093 C 0.31517 0.29668 0.1645 0.0
C1094 C 0.31336 0.27613 0.15269 0.0
C1095 C 0.29326 0.27545 0.14071 0.0
C1096 C 0.33358 0.25659 0.15155 0.0
C1097 C 0.33545 0.29772 0.17834 0.0
C1098 C 0.35831 0.2639 0.14709 0.0
C1099 C 0.37776 0.24599 0.14623 0.0
C1100 C 0.37293 0.22023 0.14972 0.0
C1101 C 0.34798 0.21279 0.15382 0.0
C1102 C 0.32843 0.23085 0.15466 0.0
H1103 H 0.32965 0.31003 0.1894 0.0
H1104 H 0.33985 0.27848 0.1834 0.0
H1105 H 0.35303 0.3058 0.17265 0.0
H1106 H 0.3626 0.28358 0.14427 0.0
H1107 H 0.39666 0.25243 0.14289 0.0
H1108 H 0.73177 0.40304 0.64919 0.0
H1109 H 0.70993 0.36271 0.65277 0.0
H1110 H 0.78174 0.32422 0.65781 0.0
H1111 H 0.80403 0.36482 0.65403 0.0
H1112 H 0.74738 0.29941 0.63549 0.0
H1113 H 0.70167 0.32325 0.69824 0.0
H1114 H 0.69619 0.34716 0.68206 0.0
H1115 H 0.72799 0.34116 0.68956 0.0
C1116 C 0.74304 0.38607 0.6511 0.0
C1117 C 0.76968 0.38721 0.65143 0.0
C1118 C 0.73046 0.36302 0.65325 0.0
C1119 C 0.74417 0.34055 0.65592 0.0
C1120 C 0.77081 0.34141 0.65594 0.0
H1121 H 0.64876 0.21027 0.68389 0.0
H1122 H 0.68513 0.23918 0.68402 0.0
C1123 C 0.78349 0.3646 0.65378 0.0
C1124 C 0.73033 0.31628 0.65822 0.0
H1125 H 0.68228 0.28962 0.68169 0.0
C1126 C 0.73345 0.29702 0.64576 0.0
C1127 C 0.71255 0.31293 0.67184 0.0
C1128 C 0.70957 0.33212 0.68629 0.0
C1129 C 0.71804 0.27526 0.64591 0.0
C1130 C 0.69875 0.27298 0.65865 0.0
C1131 C 0.69683 0.29146 0.67178 0.0
C1132 C 0.67894 0.25296 0.65782 0.0
C1133 C 0.72235 0.25514 0.63224 0.0
C1134 C 0.66349 0.2509 0.64302 0.0
C1135 C 0.64278 0.23438 0.64288 0.0
C1136 C 0.63686 0.21974 0.65764 0.0
C1137 C 0.65279 0.22125 0.67229 0.0
C1138 C 0.67359 0.23777 0.6724 0.0
H1139 H 0.74244 0.25493 0.62784 0.0
H1140 H 0.71733 0.23598 0.63716 0.0
H1141 H 0.71037 0.25935 0.62072 0.0
H1142 H 0.66677 0.26287 0.63178 0.0
H1143 H 0.6309 0.2338 0.63139 0.0
H1144 H 0.80321 0.65108 0.13791 0.0
H1145 H 0.78098 0.69207 0.13678 0.0
H1146 H 0.72332 0.66288 0.17119 0.0
H1147 H 0.7453 0.6223 0.17253 0.0
H1148 H 0.73144 0.70085 0.12511 0.0
H1149 H 0.74099 0.73056 0.19384 0.0
H1150 H 0.7605 0.70601 0.1843 0.0
H1151 H 0.729 0.69883 0.19191 0.0
C1152 C 0.78596 0.65354 0.1454 0.0
C1153 C 0.77608 0.63342 0.15535 0.0
C1154 C 0.77328 0.67694 0.14472 0.0
C1155 C 0.75072 0.68068 0.15414 0.0
C1156 C 0.741 0.66066 0.16415 0.0
H1157 H 0.61985 0.77027 0.16399 0.0
H1158 H 0.65573 0.74114 0.16545 0.0
C1159 C 0.75354 0.63736 0.16479 0.0
C1160 C 0.7362 0.70476 0.15282 0.0
H1161 H 0.70666 0.74967 0.17773 0.0
C1162 C 0.72645 0.71191 0.13653 0.0
C1163 C 0.72979 0.71921 0.16773 0.0
C1164 C 0.74084 0.71342 0.1854 0.0
C1165 C 0.70908 0.73205 0.13497 0.0
C1166 C 0.70155 0.74553 0.15006 0.0
C1167 C 0.71235 0.73923 0.16619 0.0
C1168 C 0.6806 0.76434 0.1497 0.0
C1169 C 0.69775 0.7378 0.11737 0.0
C1170 C 0.68282 0.78735 0.14061 0.0
C1171 C 0.66224 0.80419 0.13977 0.0
C1172 C 0.63911 0.79822 0.14796 0.0
C1173 C 0.63729 0.77544 0.15743 0.0
C1174 C 0.65782 0.75876 0.15832 0.0
H1175 H 0.70283 0.72325 0.10748 0.0
H1176 H 0.67676 0.73897 0.1183 0.0
H1177 H 0.70481 0.75646 0.11277 0.0
H1178 H 0.70037 0.79217 0.13406 0.0
H1179 H 0.66429 0.82159 0.13241 0.0
H1180 H 0.2039 0.65345 0.65489 0.0
H1181 H 0.22841 0.69309 0.65625 0.0
H1182 H 0.29484 0.65319 0.63812 0.0
H1183 H 0.27072 0.61392 0.63661 0.0
H1184 H 0.27178 0.70262 0.67616 0.0
H1185 H 0.29292 0.71512 0.60624 0.0
H1186 H 0.26805 0.69439 0.61395 0.0
H1187 H 0.30048 0.68364 0.61344 0.0
C1188 C 0.22366 0.65324 0.65103 0.0
C1189 C 0.23534 0.63053 0.64561 0.0
C1190 C 0.23762 0.67587 0.65182 0.0
C1191 C 0.26332 0.67618 0.64697 0.0
C1192 C 0.27489 0.65355 0.64151 0.0
H1193 H 0.39615 0.74874 0.67703 0.0
H1194 H 0.35612 0.72612 0.67456 0.0
C1195 C 0.26107 0.63103 0.6408 0.0
C1196 C 0.27888 0.6995 0.64861 0.0
H1197 H 0.32236 0.73483 0.62635 0.0
C1198 C 0.28243 0.71007 0.66521 0.0
C1199 C 0.29239 0.7096 0.63428 0.0
C1200 C 0.28806 0.70027 0.61595 0.0
C1201 C 0.30064 0.72907 0.66807 0.0
C1202 C 0.31594 0.73735 0.65402 0.0
C1203 C 0.3109 0.72825 0.63719 0.0
C1204 C 0.33903 0.75296 0.65676 0.0
C1205 C 0.30383 0.73953 0.68622 0.0
C1206 C 0.34298 0.77552 0.6474 0.0
C1207 C 0.36611 0.78851 0.64869 0.0
C1208 C 0.38575 0.77895 0.6592 0.0
C1209 C 0.38145 0.75668 0.66883 0.0
C1210 C 0.35842 0.74381 0.66757 0.0
H1211 H 0.28572 0.73863 0.69361 0.0
H1212 H 0.318 0.72791 0.69333 0.0
H1213 H 0.31051 0.75951 0.68598 0.0
H1214 H 0.32836 0.78278 0.63884 0.0
H1215 H 0.36886 0.80556 0.64105 0.0
H1216 H 0.34963 0.81675 0.37729 0.0
H1217 H 0.31348 0.78746 0.37845 0.0
H1218 H 0.35388 0.74063 0.41515 0.0
H1219 H 0.38977 0.76969 0.41422 0.0
H1220 H 0.3145 0.7361 0.3694 0.0
H1221 H 0.28433 0.74737 0.43796 0.0
H1222 H 0.30453 0.77009 0.42712 0.0
H1223 H 0.31771 0.74137 0.43601 0.0
C1224 C 0.35064 0.80043 0.38581 0.0
C1225 C 0.3726 0.7956 0.39567 0.0
C1226 C 0.32999 0.78369 0.38643 0.0
C1227 C 0.33083 0.76205 0.39708 0.0
C1228 C 0.35255 0.75748 0.40714 0.0
H1229 H 0.26458 0.61923 0.41554 0.0
H1230 H 0.28749 0.65934 0.41458 0.0
C1231 C 0.37316 0.77407 0.40649 0.0
C1232 C 0.30999 0.74309 0.39684 0.0
H1233 H 0.27134 0.7088 0.42365 0.0
C1234 C 0.30464 0.73044 0.38117 0.0
C1235 C 0.29713 0.73579 0.41221 0.0
C1236 C 0.30102 0.74955 0.42924 0.0
C1237 C 0.28799 0.70962 0.38068 0.0
C1238 C 0.27612 0.70152 0.39625 0.0
C1239 C 0.28054 0.71497 0.41175 0.0
C1240 C 0.26111 0.67772 0.3971 0.0
C1241 C 0.28436 0.69555 0.36374 0.0
C1242 C 0.23837 0.67481 0.38778 0.0
C1243 C 0.22514 0.65173 0.38827 0.0
C1244 C 0.23443 0.63124 0.39814 0.0
C1245 C 0.2569 0.63452 0.40774 0.0
C1246 C 0.27003 0.6575 0.40725 0.0
H1247 H 0.29821 0.70159 0.35365 0.0
H1248 H 0.28629 0.67478 0.36576 0.0
H1249 H 0.26498 0.69928 0.35873 0.0
H1250 H 0.23094 0.69032 0.38007 0.0
H1251 H 0.20784 0.64986 0.38079 0.0
H1252 H 0.40289 0.27479 0.87597 0.0
H1253 H 0.36222 0.2966 0.87877 0.0
H1254 H 0.33203 0.23329 0.90758 0.0
H1255 H 0.37286 0.21104 0.90475 0.0
H1256 H 0.30897 0.27475 0.86917 0.0
H1257 H 0.3247 0.30198 0.93853 0.0
H1258 H 0.35101 0.29517 0.92417 0.0
H1259 H 0.33101 0.2699 0.93155 0.0
C1260 C 0.38761 0.26537 0.88283 0.0
C1261 C 0.39116 0.24121 0.89022 0.0
C1262 C 0.36436 0.27786 0.88437 0.0
C1263 C 0.34425 0.26659 0.89345 0.0
C1264 C 0.34744 0.24229 0.90058 0.0
H1265 H 0.20954 0.35589 0.92282 0.0
H1266 H 0.23881 0.31982 0.92042 0.0
C1267 C 0.37072 0.22962 0.89892 0.0
C1268 C 0.32033 0.28093 0.89574 0.0
H1269 H 0.2898 0.32017 0.92427 0.0
C1270 C 0.30449 0.28439 0.88128 0.0
C1271 C 0.31451 0.29325 0.91159 0.0
C1272 C 0.33112 0.29007 0.92742 0.0
C1273 C 0.28338 0.30062 0.88209 0.0
C1274 C 0.27847 0.31429 0.89762 0.0
C1275 C 0.29361 0.30979 0.91235 0.0
C1276 C 0.25939 0.33504 0.89838 0.0
C1277 C 0.26675 0.30316 0.86621 0.0
C1278 C 0.26129 0.35561 0.88687 0.0
C1279 C 0.24461 0.37611 0.88816 0.0
C1280 C 0.22579 0.3767 0.90116 0.0
C1281 C 0.22376 0.356 0.91264 0.0
C1282 C 0.24048 0.33539 0.91129 0.0
H1283 H 0.26719 0.28558 0.85821 0.0
H1284 H 0.24677 0.30731 0.86984 0.0
H1285 H 0.27392 0.31891 0.85799 0.0
H1286 H 0.27615 0.35617 0.87714 0.0
H1287 H 0.24687 0.39175 0.87916 0.0
H1288 H 0.63247 0.22678 0.37605 0.0
H1289 H 0.6674 0.25686 0.37321 0.0
H1290 H 0.68333 0.24971 0.42805 0.0
H1291 H 0.64848 0.21928 0.43101 0.0
H1292 H 0.66936 0.30299 0.39065 0.0
H1293 H 0.75416 0.24446 0.40597 0.0
H1294 H 0.72393 0.23066 0.40026 0.0
H1295 H 0.72903 0.24304 0.42177 0.0
C1296 C 0.64361 0.23126 0.38749 0.0
C1297 C 0.6376 0.22063 0.40378 0.0
C1298 C 0.66359 0.24849 0.38583 0.0
C1299 C 0.67812 0.2554 0.40038 0.0
C1300 C 0.67268 0.24431 0.41658 0.0
H1301 H 0.78966 0.37599 0.41496 0.0
H1302 H 0.76174 0.33928 0.41904 0.0
C1303 C 0.65266 0.227 0.41826 0.0
C1304 C 0.69744 0.27576 0.39874 0.0
H1305 H 0.76068 0.28882 0.40287 0.0
C1306 C 0.68934 0.29984 0.39326 0.0
C1307 C 0.72346 0.27169 0.40231 0.0
C1308 C 0.7333 0.24603 0.40777 0.0
C1309 C 0.70649 0.31996 0.39125 0.0
C1310 C 0.73256 0.31582 0.39454 0.0
C1311 C 0.74069 0.29188 0.40029 0.0
C1312 C 0.75152 0.33624 0.39185 0.0
C1313 C 0.69651 0.34563 0.38585 0.0
C1314 C 0.75563 0.34615 0.37514 0.0
C1315 C 0.77153 0.36707 0.37275 0.0
C1316 C 0.78372 0.37848 0.38704 0.0
C1317 C 0.78052 0.36772 0.40367 0.0
C1318 C 0.76458 0.34674 0.40604 0.0
H1319 H 0.67571 0.34724 0.38792 0.0
H1320 H 0.70608 0.36105 0.39321 0.0
H1321 H 0.70038 0.34855 0.37179 0.0
H1322 H 0.74601 0.33807 0.36398 0.0
H1323 H 0.77368 0.37472 0.35974 0.0
H1324 H 0.79814 0.6478 0.93348 0.0
H1325 H 0.76859 0.68345 0.93107 0.0
H1326 H 0.76752 0.67466 0.87526 0.0
H1327 H 0.79738 0.6393 0.87748 0.0
H1328 H 0.76627 0.72624 0.88655 0.0
H1329 H 0.69422 0.66638 0.9199 0.0
H1330 H 0.72311 0.67132 0.9318 0.0
H1331 H 0.72371 0.65362 0.91179 0.0
C1332 C 0.792 0.65372 0.92066 0.0
C1333 C 0.79984 0.64043 0.90569 0.0
C1334 C 0.77503 0.67406 0.91932 0.0
C1335 C 0.76548 0.68135 0.90302 0.0
C1336 C 0.77458 0.66926 0.88798 0.0
H1337 H 0.622 0.74429 0.87583 0.0
H1338 H 0.66131 0.72043 0.87904 0.0
C1339 C 0.79162 0.649 0.88928 0.0
C1340 C 0.74431 0.69983 0.9017 0.0
H1341 H 0.68164 0.70743 0.9117 0.0
C1342 C 0.7478 0.72228 0.89215 0.0
C1343 C 0.72015 0.69441 0.90884 0.0
C1344 C 0.71488 0.67005 0.91854 0.0
C1345 C 0.72767 0.73939 0.88945 0.0
C1346 C 0.70355 0.7339 0.89659 0.0
C1347 C 0.70021 0.71163 0.90632 0.0
C1348 C 0.68094 0.74993 0.89324 0.0
C1349 C 0.73203 0.76273 0.87851 0.0
C1350 C 0.67904 0.77467 0.89994 0.0
C1351 C 0.65644 0.78849 0.8981 0.0
C1352 C 0.63539 0.77766 0.88964 0.0
C1353 C 0.63775 0.75319 0.8825 0.0
C1354 C 0.66024 0.73949 0.88431 0.0
H1355 H 0.75042 0.76194 0.87144 0.0
H1356 H 0.71649 0.7651 0.86889 0.0
H1357 H 0.73212 0.77972 0.88705 0.0
H1358 H 0.69468 0.78295 0.90709 0.0
H1359 H 0.65519 0.80726 0.9038 0.0
loop_
_geom_bond_atom_site_label_1
_geom_bond_atom_site_label_2
_geom_bond_distance
_geom_bond_site_symmetry_2
_ccdc_geom_bond_type
Mg0 O7 2.141 . S
Mg0 O8 2.048 . S
Mg0 O9 2.048 . S
Mg0 O12 2.141 . S
C1 O2 1.313 . S
C1 O8 1.195 . S
O2 C1 1.313 . S
C3 O4 1.245 . S
C3 O12 1.289 . S
O4 C3 1.245 . S
C5 O6 1.245 . S
C5 O7 1.289 . S
O6 C5 1.245 . S
O7 Mg0 2.141 . S
O7 C5 1.289 . S
O8 Mg0 2.048 . S
O8 C1 1.195 . S
O9 Mg0 2.048 . S
O9 C10 1.195 . S
C10 O9 1.195 . S
C10 O11 1.313 . S
O11 C10 1.313 . S
O12 Mg0 2.141 . S
O12 C3 1.289 . S
Mg13 O20 2.141 . S
Mg13 O21 2.048 . S
Mg13 O22 2.048 . S
Mg13 O25 2.141 . S
C14 O15 1.313 . S
C14 O21 1.195 . S
O15 C14 1.313 . S
C16 O17 1.245 . S
C16 O25 1.289 . S
O17 C16 1.245 . S
C18 O19 1.245 . S
C18 O20 1.289 . S
O19 C18 1.245 . S
O20 Mg13 2.141 . S
O20 C18 1.289 . S
O21 Mg13 2.048 . S
O21 C14 1.195 . S
O22 Mg13 2.048 . S
O22 C23 1.195 . S
C23 O22 1.195 . S
C23 O24 1.313 . S
O24 C23 1.313 . S
O25 Mg13 2.141 . S
O25 C16 1.289 . S
Mg26 O33 2.141 . S
Mg26 O34 2.048 . S
Mg26 O35 2.048 . S
Mg26 O38 2.141 . S
C27 O28 1.313 . S
C27 O34 1.195 . S
O28 C27 1.313 . S
C29 O30 1.245 . S
C29 O38 1.289 . S
O30 C29 1.245 . S
C31 O32 1.245 . S
C31 O33 1.289 . S
O32 C31 1.245 . S
O33 Mg26 2.141 . S
O33 C31 1.289 . S
O34 Mg26 2.048 . S
O34 C27 1.195 . S
O35 Mg26 2.048 . S
O35 C36 1.195 . S
C36 O35 1.195 . S
C36 O37 1.313 . S
O37 C36 1.313 . S
O38 Mg26 2.141 . S
O38 C29 1.289 . S
Mg39 O46 2.141 . S
Mg39 O47 2.048 . S
Mg39 O48 2.048 . S
Mg39 O51 2.141 . S
C40 O41 1.313 . S
C40 O47 1.195 . S
O41 C40 1.313 . S
C42 O43 1.245 . S
C42 O51 1.289 . S
O43 C42 1.245 . S
C44 O45 1.245 . S
C44 O46 1.289 . S
O45 C44 1.245 . S
O46 Mg39 2.141 . S
O46 C44 1.289 . S
O47 Mg39 2.048 . S
O47 C40 1.195 . S
O48 Mg39 2.048 . S
O48 C49 1.195 . S
C49 O48 1.195 . S
C49 O50 1.313 . S
O50 C49 1.313 . S
O51 Mg39 2.141 . S
O51 C42 1.289 . S
Mg52 O59 2.141 . S
Mg52 O60 2.048 . S
Mg52 O61 2.048 . S
Mg52 O64 2.141 . S
C53 O54 1.313 . S
C53 O60 1.195 . S
O54 C53 1.313 . S
C55 O56 1.245 . S
C55 O64 1.289 . S
O56 C55 1.245 . S
C57 O58 1.245 . S
C57 O59 1.289 . S
O58 C57 1.245 . S
O59 Mg52 2.141 . S
O59 C57 1.289 . S
O60 Mg52 2.048 . S
O60 C53 1.195 . S
O61 Mg52 2.048 . S
O61 C62 1.195 . S
C62 O61 1.195 . S
C62 O63 1.313 . S
O63 C62 1.313 . S
O64 Mg52 2.141 . S
O64 C55 1.289 . S
Mg65 O72 2.141 . S
Mg65 O73 2.048 . S
Mg65 O74 2.048 . S
Mg65 O77 2.141 . S
C66 O67 1.313 . S
C66 O73 1.195 . S
O67 C66 1.313 . S
C68 O69 1.245 . S
C68 O77 1.289 . S
O69 C68 1.245 . S
C70 O71 1.245 . S
C70 O72 1.289 . S
O71 C70 1.245 . S
O72 Mg65 2.141 . S
O72 C70 1.289 . S
O73 Mg65 2.048 . S
O73 C66 1.195 . S
O74 Mg65 2.048 . S
O74 C75 1.195 . S
C75 O74 1.195 . S
C75 O76 1.313 . S
O76 C75 1.313 . S
O77 Mg65 2.141 . S
O77 C68 1.289 . S
Mg78 O85 2.141 . S
Mg78 O86 2.048 . S
Mg78 O87 2.048 . S
Mg78 O90 2.141 . S
C79 O80 1.313 . S
C79 O86 1.195 . S
O80 C79 1.313 . S
C81 O82 1.245 . S
C81 O90 1.289 . S
O82 C81 1.245 . S
C83 O84 1.245 . S
C83 O85 1.289 . S
O84 C83 1.245 . S
O85 Mg78 2.141 . S
O85 C83 1.289 . S
O86 Mg78 2.048 . S
O86 C79 1.195 . S
O87 Mg78 2.048 . S
O87 C88 1.195 . S
C88 O87 1.195 . S
C88 O89 1.313 . S
O89 C88 1.313 . S
O90 Mg78 2.141 . S
O90 C81 1.289 . S
Mg91 O98 2.141 . S
Mg91 O99 2.048 . S
Mg91 O100 2.048 . S
Mg91 O103 2.141 . S
C92 O93 1.313 . S
C92 O99 1.195 . S
O93 C92 1.313 . S
C94 O95 1.245 . S
C94 O103 1.289 . S
O95 C94 1.245 . S
C96 O97 1.245 . S
C96 O98 1.289 . S
O97 C96 1.245 . S
O98 Mg91 2.141 . S
O98 C96 1.289 . S
O99 Mg91 2.048 . S
O99 C92 1.195 . S
O100 Mg91 2.048 . S
O100 C101 1.195 . S
C101 O100 1.195 . S
C101 O102 1.313 . S
O102 C101 1.313 . S
O103 Mg91 2.141 . S
O103 C94 1.289 . S
Mg104 O111 2.141 . S
Mg104 O112 2.048 . S
Mg104 O113 2.048 . S
Mg104 O116 2.141 . S
C105 O106 1.313 . S
C105 O112 1.195 . S
O106 C105 1.313 . S
C107 O108 1.245 . S
C107 O116 1.289 . S
O108 C107 1.245 . S
C109 O110 1.245 . S
C109 O111 1.289 . S
O110 C109 1.245 . S
O111 Mg104 2.141 . S
O111 C109 1.289 . S
O112 Mg104 2.048 . S
O112 C105 1.195 . S
O113 Mg104 2.048 . S
O113 C114 1.195 . S
C114 O113 1.195 . S
C114 O115 1.313 . S
O115 C114 1.313 . S
O116 Mg104 2.141 . S
O116 C107 1.289 . S
Mg117 O124 2.141 . S
Mg117 O125 2.048 . S
Mg117 O126 2.048 . S
Mg117 O129 2.141 . S
C118 O119 1.313 . S
C118 O125 1.195 . S
O119 C118 1.313 . S
C120 O121 1.245 . S
C120 O129 1.289 . S
O121 C120 1.245 . S
C122 O123 1.245 . S
C122 O124 1.289 . S
O123 C122 1.245 . S
O124 Mg117 2.141 . S
O124 C122 1.289 . S
O125 Mg117 2.048 . S
O125 C118 1.195 . S
O126 Mg117 2.048 . S
O126 C127 1.195 . S
C127 O126 1.195 . S
C127 O128 1.313 . S
O128 C127 1.313 . S
O129 Mg117 2.141 . S
O129 C120 1.289 . S
Mg130 O137 2.141 . S
Mg130 O138 2.048 . S
Mg130 O139 2.048 . S
Mg130 O142 2.141 . S
C131 O132 1.313 . S
C131 O138 1.195 . S
O132 C131 1.313 . S
C133 O134 1.245 . S
C133 O142 1.289 . S
O134 C133 1.245 . S
C135 O136 1.245 . S
C135 O137 1.289 . S
O136 C135 1.245 . S
O137 Mg130 2.141 . S
O137 C135 1.289 . S
O138 Mg130 2.048 . S
O138 C131 1.195 . S
O139 Mg130 2.048 . S
O139 C140 1.195 . S
C140 O139 1.195 . S
C140 O141 1.313 . S
O141 C140 1.313 . S
O142 Mg130 2.141 . S
O142 C133 1.289 . S
Mg143 O150 2.141 . S
Mg143 O151 2.048 . S
Mg143 O152 2.048 . S
Mg143 O155 2.141 . S
C144 O145 1.313 . S
C144 O151 1.195 . S
O145 C144 1.313 . S
C146 O147 1.245 . S
C146 O155 1.289 . S
O147 C146 1.245 . S
C148 O149 1.245 . S
C148 O150 1.289 . S
O149 C148 1.245 . S
O150 Mg143 2.141 . S
O150 C148 1.289 . S
O151 Mg143 2.048 . S
O151 C144 1.195 . S
O152 Mg143 2.048 . S
O152 C153 1.195 . S
C153 O152 1.195 . S
C153 O154 1.313 . S
O154 C153 1.313 . S
O155 Mg143 2.141 . S
O155 C146 1.289 . S
Mg156 O163 2.141 . S
Mg156 O164 2.048 . S
Mg156 O165 2.048 . S
Mg156 O168 2.141 . S
C157 O158 1.313 . S
C157 O164 1.195 . S
O158 C157 1.313 . S
C159 O160 1.245 . S
C159 O168 1.289 . S
O160 C159 1.245 . S
C161 O162 1.245 . S
C161 O163 1.289 . S
O162 C161 1.245 . S
O163 Mg156 2.141 . S
O163 C161 1.289 . S
O164 Mg156 2.048 . S
O164 C157 1.195 . S
O165 Mg156 2.048 . S
O165 C166 1.195 . S
C166 O165 1.195 . S
C166 O167 1.313 . S
O167 C166 1.313 . S
O168 Mg156 2.141 . S
O168 C159 1.289 . S
Mg169 O176 2.141 . S
Mg169 O177 2.048 . S
Mg169 O178 2.048 . S
Mg169 O181 2.141 . S
C170 O171 1.313 . S
C170 O177 1.195 . S
O171 C170 1.313 . S
C172 O173 1.245 . S
C172 O181 1.289 . S
O173 C172 1.245 . S
C174 O175 1.245 . S
C174 O176 1.289 . S
O175 C174 1.245 . S
O176 Mg169 2.141 . S
O176 C174 1.289 . S
O177 Mg169 2.048 . S
O177 C170 1.195 . S
O178 Mg169 2.048 . S
O178 C179 1.195 . S
C179 O178 1.195 . S
C179 O180 1.313 . S
O180 C179 1.313 . S
O181 Mg169 2.141 . S
O181 C172 1.289 . S
Mg182 O189 2.141 . S
Mg182 O190 2.048 . S
Mg182 O191 2.048 . S
Mg182 O194 2.141 . S
C183 O184 1.313 . S
C183 O190 1.195 . S
O184 C183 1.313 . S
C185 O186 1.245 . S
C185 O194 1.289 . S
O186 C185 1.245 . S
C187 O188 1.245 . S
C187 O189 1.289 . S
O188 C187 1.245 . S
O189 Mg182 2.141 . S
O189 C187 1.289 . S
O190 Mg182 2.048 . S
O190 C183 1.195 . S
O191 Mg182 2.048 . S
O191 C192 1.195 . S
C192 O191 1.195 . S
C192 O193 1.313 . S
O193 C192 1.313 . S
O194 Mg182 2.141 . S
O194 C185 1.289 . S
Mg195 O202 2.141 . S
Mg195 O203 2.048 . S
Mg195 O204 2.048 . S
Mg195 O207 2.141 . S
C196 O197 1.313 . S
C196 O203 1.195 . S
O197 C196 1.313 . S
C198 O199 1.245 . S
C198 O207 1.289 . S
O199 C198 1.245 . S
C200 O201 1.245 . S
C200 O202 1.289 . S
O201 C200 1.245 . S
O202 Mg195 2.141 . S
O202 C200 1.289 . S
O203 Mg195 2.048 . S
O203 C196 1.195 . S
O204 Mg195 2.048 . S
O204 C205 1.195 . S
C205 O204 1.195 . S
C205 O206 1.313 . S
O206 C205 1.313 . S
O207 Mg195 2.141 . S
O207 C198 1.289 . S
H208 C216 0.929 . S
H209 C218 0.930 . S
H210 C220 0.930 . S
H211 C223 0.929 . S
H212 C226 0.930 . S
H213 C228 0.960 . S
H214 C228 0.960 . S
H215 C228 0.960 . S
C216 H208 0.929 . S
C216 C217 1.377 . S
C216 C218 1.384 . S
C217 C216 1.377 . S
C217 C223 1.390 . S
C218 H209 0.930 . S
C218 C216 1.384 . S
C218 C219 1.372 . S
C219 C218 1.372 . S
C219 C220 1.400 . S
C219 C224 1.490 . S
C220 H210 0.930 . S
C220 C219 1.400 . S
C220 C223 1.386 . S
H221 C237 0.930 . S
H222 C238 0.931 . S
C223 H211 0.929 . S
C223 C217 1.390 . S
C223 C220 1.386 . S
C224 C219 1.490 . S
C224 C226 1.395 . S
C224 C227 1.403 . S
H225 C231 0.930 . S
C226 H212 0.930 . S
C226 C224 1.395 . S
C226 C229 1.403 1_455 S
C227 C224 1.403 . S
C227 C228 1.524 . S
C227 C231 1.400 1_455 S
C228 H213 0.960 . S
C228 H214 0.960 . S
C228 H215 0.960 . S
C228 C227 1.524 . S
C229 C226 1.403 1_655 S
C229 C230 1.392 . S
C229 C233 1.495 . S
C230 C229 1.392 . S
C230 C231 1.385 . S
C230 C232 1.478 . S
C231 H225 0.930 . S
C231 C227 1.400 1_655 S
C231 C230 1.385 . S
C232 C230 1.478 . S
C232 C234 1.381 . S
C232 C238 1.383 . S
C233 C229 1.495 . S
C233 H239 0.959 . S
C233 H240 0.961 . S
C233 H241 0.960 . S
C234 C232 1.381 . S
C234 C235 1.394 . S
C234 H242 0.930 . S
C235 C234 1.394 . S
C235 C236 1.383 . S
C235 H243 0.929 . S
C236 C235 1.383 . S
C236 C237 1.377 . S
C237 H221 0.930 . S
C237 C236 1.377 . S
C237 C238 1.379 . S
C238 H222 0.931 . S
C238 C232 1.383 . S
C238 C237 1.379 . S
H239 C233 0.959 . S
H240 C233 0.961 . S
H241 C233 0.960 . S
H242 C234 0.930 . S
H243 C235 0.929 . S
H244 C252 0.929 . S
H245 C254 0.930 . S
H246 C256 0.930 . S
H247 C259 0.929 . S
H248 C262 0.930 . S
H249 C264 0.960 . S
H250 C264 0.960 . S
H251 C264 0.960 . S
C252 H244 0.929 . S
C252 C253 1.377 . S
C252 C254 1.384 . S
C253 C252 1.377 . S
C253 C259 1.390 . S
C254 H245 0.930 . S
C254 C252 1.384 . S
C254 C255 1.372 . S
C255 C254 1.372 . S
C255 C256 1.400 . S
C255 C260 1.490 . S
C256 H246 0.930 . S
C256 C255 1.400 . S
C256 C259 1.386 . S
H257 C273 0.930 . S
H258 C274 0.931 . S
C259 H247 0.929 . S
C259 C253 1.390 . S
C259 C256 1.386 . S
C260 C255 1.490 . S
C260 C262 1.395 . S
C260 C263 1.403 . S
H261 C267 0.930 . S
C262 H248 0.930 . S
C262 C260 1.395 . S
C262 C265 1.403 1_565 S
C263 C260 1.403 . S
C263 C264 1.524 . S
C263 C267 1.400 1_565 S
C264 H249 0.960 . S
C264 H250 0.960 . S
C264 H251 0.960 . S
C264 C263 1.524 . S
C265 C262 1.403 1_545 S
C265 C266 1.392 . S
C265 C269 1.495 . S
C266 C265 1.392 . S
C266 C267 1.385 . S
C266 C268 1.478 . S
C267 H261 0.930 . S
C267 C263 1.400 1_545 S
C267 C266 1.385 . S
C268 C266 1.478 . S
C268 C270 1.381 . S
C268 C274 1.383 . S
C269 C265 1.495 . S
C269 H275 0.959 . S
C269 H276 0.961 . S
C269 H277 0.960 . S
C270 C268 1.381 . S
C270 C271 1.394 . S
C270 H278 0.930 . S
C271 C270 1.394 . S
C271 C272 1.383 . S
C271 H279 0.929 . S
C272 C271 1.383 . S
C272 C273 1.377 . S
C273 H257 0.930 . S
C273 C272 1.377 . S
C273 C274 1.379 . S
C274 H258 0.931 . S
C274 C268 1.383 . S
C274 C273 1.379 . S
H275 C269 0.959 . S
H276 C269 0.961 . S
H277 C269 0.960 . S
H278 C270 0.930 . S
H279 C271 0.929 . S
H280 C288 0.929 . S
H281 C290 0.930 . S
H282 C292 0.930 . S
H283 C295 0.929 . S
H284 C298 0.930 . S
H285 C300 0.960 . S
H286 C300 0.960 . S
H287 C300 0.960 . S
C288 H280 0.929 . S
C288 C289 1.377 . S
C288 C290 1.384 . S
C289 C288 1.377 . S
C289 C295 1.390 . S
C290 H281 0.930 . S
C290 C288 1.384 . S
C290 C291 1.372 . S
C291 C290 1.372 . S
C291 C292 1.400 . S
C291 C296 1.490 . S
C292 H282 0.930 . S
C292 C291 1.400 . S
C292 C295 1.386 . S
H293 C309 0.930 . S
H294 C310 0.931 . S
C295 H283 0.929 . S
C295 C289 1.390 . S
C295 C292 1.386 . S
C296 C291 1.490 . S
C296 C298 1.395 . S
C296 C299 1.403 . S
H297 C303 0.930 . S
C298 H284 0.930 . S
C298 C296 1.395 . S
C298 C301 1.403 1_455 S
C299 C296 1.403 . S
C299 C300 1.524 . S
C299 C303 1.400 1_455 S
C300 H285 0.960 . S
C300 H286 0.960 . S
C300 H287 0.960 . S
C300 C299 1.524 . S
C301 C298 1.403 1_655 S
C301 C302 1.392 . S
C301 C305 1.495 . S
C302 C301 1.392 . S
C302 C303 1.385 . S
C302 C304 1.478 . S
C303 H297 0.930 . S
C303 C299 1.400 1_655 S
C303 C302 1.385 . S
C304 C302 1.478 . S
C304 C306 1.381 . S
C304 C310 1.383 . S
C305 C301 1.495 . S
C305 H311 0.959 . S
C305 H312 0.961 . S
C305 H313 0.960 . S
C306 C304 1.381 . S
C306 C307 1.394 . S
C306 H314 0.930 . S
C307 C306 1.394 . S
C307 C308 1.383 . S
C307 H315 0.929 . S
C308 C307 1.383 . S
C308 C309 1.377 . S
C309 H293 0.930 . S
C309 C308 1.377 . S
C309 C310 1.379 . S
C310 H294 0.931 . S
C310 C304 1.383 . S
C310 C309 1.379 . S
H311 C305 0.959 . S
H312 C305 0.961 . S
H313 C305 0.960 . S
H314 C306 0.930 . S
H315 C307 0.929 . S
H316 C324 0.929 . S
H317 C326 0.930 . S
H318 C328 0.930 . S
H319 C331 0.929 . S
H320 C334 0.930 . S
H321 C336 0.960 . S
H322 C336 0.960 . S
H323 C336 0.960 . S
C324 H316 0.929 . S
C324 C325 1.377 . S
C324 C326 1.384 . S
C325 C324 1.377 . S
C325 C331 1.390 . S
C326 H317 0.930 . S
C326 C324 1.384 . S
C326 C327 1.372 . S
C327 C326 1.372 . S
C327 C328 1.400 . S
C327 C332 1.490 . S
C328 H318 0.930 . S
C328 C327 1.400 . S
C328 C331 1.386 . S
H329 C345 0.930 . S
H330 C346 0.931 . S
C331 H319 0.929 . S
C331 C325 1.390 . S
C331 C328 1.386 . S
C332 C327 1.490 . S
C332 C334 1.395 . S
C332 C335 1.403 . S
H333 C339 0.930 . S
C334 H320 0.930 . S
C334 C332 1.395 . S
C334 C337 1.403 1_565 S
C335 C332 1.403 . S
C335 C336 1.524 . S
C335 C339 1.400 1_565 S
C336 H321 0.960 . S
C336 H322 0.960 . S
C336 H323 0.960 . S
C336 C335 1.524 . S
C337 C334 1.403 1_545 S
C337 C338 1.392 . S
C337 C341 1.495 . S
C338 C337 1.392 . S
C338 C339 1.385 . S
C338 C340 1.478 . S
C339 H333 0.930 . S
C339 C335 1.400 1_545 S
C339 C338 1.385 . S
C340 C338 1.478 . S
C340 C342 1.381 . S
C340 C346 1.383 . S
C341 C337 1.495 . S
C341 H347 0.959 . S
C341 H348 0.961 . S
C341 H349 0.960 . S
C342 C340 1.381 . S
C342 C343 1.394 . S
C342 H350 0.930 . S
C343 C342 1.394 . S
C343 C344 1.383 . S
C343 H351 0.929 . S
C344 C343 1.383 . S
C344 C345 1.377 . S
C345 H329 0.930 . S
C345 C344 1.377 . S
C345 C346 1.379 . S
C346 H330 0.931 . S
C346 C340 1.383 . S
C346 C345 1.379 . S
H347 C341 0.959 . S
H348 C341 0.961 . S
H349 C341 0.960 . S
H350 C342 0.930 . S
H351 C343 0.929 . S
H352 C360 0.929 . S
H353 C362 0.930 . S
H354 C364 0.930 . S
H355 C367 0.929 . S
H356 C370 0.930 . S
H357 C372 0.960 . S
H358 C372 0.960 . S
H359 C372 0.960 . S
C360 H352 0.929 . S
C360 C361 1.377 . S
C360 C362 1.384 . S
C361 C360 1.377 . S
C361 C367 1.390 . S
C362 H353 0.930 . S
C362 C360 1.384 . S
C362 C363 1.372 . S
C363 C362 1.372 . S
C363 C364 1.400 . S
C363 C368 1.490 . S
C364 H354 0.930 . S
C364 C363 1.400 . S
C364 C367 1.386 . S
H365 C381 0.930 . S
H366 C382 0.931 . S
C367 H355 0.929 . S
C367 C361 1.390 . S
C367 C364 1.386 . S
C368 C363 1.490 . S
C368 C370 1.395 . S
C368 C371 1.403 . S
H369 C375 0.930 . S
C370 H356 0.930 . S
C370 C368 1.395 . S
C370 C373 1.403 1_655 S
C371 C368 1.403 . S
C371 C372 1.524 . S
C371 C375 1.400 1_655 S
C372 H357 0.960 . S
C372 H358 0.960 . S
C372 H359 0.960 . S
C372 C371 1.524 . S
C373 C370 1.403 1_455 S
C373 C374 1.392 . S
C373 C377 1.495 . S
C374 C373 1.392 . S
C374 C375 1.385 . S
C374 C376 1.478 . S
C375 H369 0.930 . S
C375 C371 1.400 1_455 S
C375 C374 1.385 . S
C376 C374 1.478 . S
C376 C378 1.381 . S
C376 C382 1.383 . S
C377 C373 1.495 . S
C377 H383 0.959 . S
C377 H384 0.961 . S
C377 H385 0.960 . S
C378 C376 1.381 . S
C378 C379 1.394 . S
C378 H386 0.930 . S
C379 C378 1.394 . S
C379 C380 1.383 . S
C379 H387 0.929 . S
C380 C379 1.383 . S
C380 C381 1.377 . S
C381 H365 0.930 . S
C381 C380 1.377 . S
C381 C382 1.379 . S
C382 H366 0.931 . S
C382 C376 1.383 . S
C382 C381 1.379 . S
H383 C377 0.959 . S
H384 C377 0.961 . S
H385 C377 0.960 . S
H386 C378 0.930 . S
H387 C379 0.929 . S
H388 C396 0.929 . S
H389 C398 0.930 . S
H390 C400 0.930 . S
H391 C403 0.929 . S
H392 C406 0.930 . S
H393 C408 0.960 . S
H394 C408 0.960 . S
H395 C408 0.960 . S
C396 H388 0.929 . S
C396 C397 1.377 . S
C396 C398 1.384 . S
C397 C396 1.377 . S
C397 C403 1.390 . S
C398 H389 0.930 . S
C398 C396 1.384 . S
C398 C399 1.372 . S
C399 C398 1.372 . S
C399 C400 1.400 . S
C399 C404 1.490 . S
C400 H390 0.930 . S
C400 C399 1.400 . S
C400 C403 1.386 . S
H401 C417 0.930 . S
H402 C418 0.931 . S
C403 H391 0.929 . S
C403 C397 1.390 . S
C403 C400 1.386 . S
C404 C399 1.490 . S
C404 C406 1.395 . S
C404 C407 1.403 . S
H405 C411 0.930 . S
C406 H392 0.930 . S
C406 C404 1.395 . S
C406 C409 1.403 1_545 S
C407 C404 1.403 . S
C407 C408 1.524 . S
C407 C411 1.400 1_545 S
C408 H393 0.960 . S
C408 H394 0.960 . S
C408 H395 0.960 . S
C408 C407 1.524 . S
C409 C406 1.403 1_565 S
C409 C410 1.392 . S
C409 C413 1.495 . S
C410 C409 1.392 . S
C410 C411 1.385 . S
C410 C412 1.478 . S
C411 H405 0.930 . S
C411 C407 1.400 1_565 S
C411 C410 1.385 . S
C412 C410 1.478 . S
C412 C414 1.381 . S
C412 C418 1.383 . S
C413 C409 1.495 . S
C413 H419 0.959 . S
C413 H420 0.961 . S
C413 H421 0.960 . S
C414 C412 1.381 . S
C414 C415 1.394 . S
C414 H422 0.930 . S
C415 C414 1.394 . S
C415 C416 1.383 . S
C415 H423 0.929 . S
C416 C415 1.383 . S
C416 C417 1.377 . S
C417 H401 0.930 . S
C417 C416 1.377 . S
C417 C418 1.379 . S
C418 H402 0.931 . S
C418 C412 1.383 . S
C418 C417 1.379 . S
H419 C413 0.959 . S
H420 C413 0.961 . S
H421 C413 0.960 . S
H422 C414 0.930 . S
H423 C415 0.929 . S
H424 C432 0.929 . S
H425 C434 0.930 . S
H426 C436 0.930 . S
H427 C439 0.929 . S
H428 C442 0.930 . S
H429 C444 0.960 . S
H430 C444 0.960 . S
H431 C444 0.960 . S
C432 H424 0.929 . S
C432 C433 1.377 . S
C432 C434 1.384 . S
C433 C432 1.377 . S
C433 C439 1.390 . S
C434 H425 0.930 . S
C434 C432 1.384 . S
C434 C435 1.372 . S
C435 C434 1.372 . S
C435 C436 1.400 . S
C435 C440 1.490 . S
C436 H426 0.930 . S
C436 C435 1.400 . S
C436 C439 1.386 . S
H437 C453 0.930 . S
H438 C454 0.931 . S
C439 H427 0.929 . S
C439 C433 1.390 . S
C439 C436 1.386 . S
C440 C435 1.490 . S
C440 C442 1.395 . S
C440 C443 1.403 . S
H441 C447 0.930 . S
C442 H428 0.930 . S
C442 C440 1.395 . S
C442 C445 1.403 1_655 S
C443 C440 1.403 . S
C443 C444 1.524 . S
C443 C447 1.400 1_655 S
C444 H429 0.960 . S
C444 H430 0.960 . S
C444 H431 0.960 . S
C444 C443 1.524 . S
C445 C442 1.403 1_455 S
C445 C446 1.392 . S
C445 C449 1.495 . S
C446 C445 1.392 . S
C446 C447 1.385 . S
C446 C448 1.478 . S
C447 H441 0.930 . S
C447 C443 1.400 1_455 S
C447 C446 1.385 . S
C448 C446 1.478 . S
C448 C450 1.381 . S
C448 C454 1.383 . S
C449 C445 1.495 . S
C449 H455 0.959 . S
C449 H456 0.961 . S
C449 H457 0.960 . S
C450 C448 1.381 . S
C450 C451 1.394 . S
C450 H458 0.930 . S
C451 C450 1.394 . S
C451 C452 1.383 . S
C451 H459 0.929 . S
C452 C451 1.383 . S
C452 C453 1.377 . S
C453 H437 0.930 . S
C453 C452 1.377 . S
C453 C454 1.379 . S
C454 H438 0.931 . S
C454 C448 1.383 . S
C454 C453 1.379 . S
H455 C449 0.959 . S
H456 C449 0.961 . S
H457 C449 0.960 . S
H458 C450 0.930 . S
H459 C451 0.929 . S
H460 C468 0.929 . S
H461 C470 0.930 . S
H462 C472 0.930 . S
H463 C475 0.929 . S
H464 C478 0.930 . S
H465 C480 0.960 . S
H466 C480 0.960 . S
H467 C480 0.960 . S
C468 H460 0.929 . S
C468 C469 1.377 . S
C468 C470 1.384 . S
C469 C468 1.377 . S
C469 C475 1.390 . S
C470 H461 0.930 . S
C470 C468 1.384 . S
C470 C471 1.372 . S
C471 C470 1.372 . S
C471 C472 1.400 . S
C471 C476 1.490 . S
C472 H462 0.930 . S
C472 C471 1.400 . S
C472 C475 1.386 . S
H473 C489 0.930 . S
H474 C490 0.931 . S
C475 H463 0.929 . S
C475 C469 1.390 . S
C475 C472 1.386 . S
C476 C471 1.490 . S
C476 C478 1.395 . S
C476 C479 1.403 . S
H477 C483 0.930 . S
C478 H464 0.930 . S
C478 C476 1.395 . S
C478 C481 1.403 1_545 S
C479 C476 1.403 . S
C479 C480 1.524 . S
C479 C483 1.400 1_545 S
C480 H465 0.960 . S
C480 H466 0.960 . S
C480 H467 0.960 . S
C480 C479 1.524 . S
C481 C478 1.403 1_565 S
C481 C482 1.392 . S
C481 C485 1.495 . S
C482 C481 1.392 . S
C482 C483 1.385 . S
C482 C484 1.478 . S
C483 H477 0.930 . S
C483 C479 1.400 1_565 S
C483 C482 1.385 . S
C484 C482 1.478 . S
C484 C486 1.381 . S
C484 C490 1.383 . S
C485 C481 1.495 . S
C485 H491 0.959 . S
C485 H492 0.961 . S
C485 H493 0.960 . S
C486 C484 1.381 . S
C486 C487 1.394 . S
C486 H494 0.930 . S
C487 C486 1.394 . S
C487 C488 1.383 . S
C487 H495 0.929 . S
C488 C487 1.383 . S
C488 C489 1.377 . S
C489 H473 0.930 . S
C489 C488 1.377 . S
C489 C490 1.379 . S
C490 H474 0.931 . S
C490 C484 1.383 . S
C490 C489 1.379 . S
H491 C485 0.959 . S
H492 C485 0.961 . S
H493 C485 0.960 . S
H494 C486 0.930 . S
H495 C487 0.929 . S
H496 C504 0.929 . S
H497 C506 0.930 . S
H498 C508 0.930 . S
H499 C511 0.929 . S
H500 C514 0.930 . S
H501 C516 0.960 . S
H502 C516 0.960 . S
H503 C516 0.960 . S
C504 H496 0.929 . S
C504 C505 1.377 . S
C504 C506 1.384 . S
C505 C504 1.377 . S
C505 C511 1.390 . S
C506 H497 0.930 . S
C506 C504 1.384 . S
C506 C507 1.372 . S
C507 C506 1.372 . S
C507 C508 1.400 . S
C507 C512 1.490 . S
C508 H498 0.930 . S
C508 C507 1.400 . S
C508 C511 1.386 . S
H509 C525 0.930 . S
H510 C526 0.931 . S
C511 H499 0.929 . S
C511 C505 1.390 . S
C511 C508 1.386 . S
C512 C507 1.490 . S
C512 C514 1.395 . S
C512 C515 1.403 . S
H513 C519 0.930 . S
C514 H500 0.930 . S
C514 C512 1.395 . S
C514 C517 1.403 . S
C515 C512 1.403 . S
C515 C516 1.524 . S
C515 C519 1.400 . S
C516 H501 0.960 . S
C516 H502 0.960 . S
C516 H503 0.960 . S
C516 C515 1.524 . S
C517 C514 1.403 . S
C517 C518 1.392 . S
C517 C521 1.495 . S
C518 C517 1.392 . S
C518 C519 1.385 . S
C518 C520 1.478 . S
C519 H513 0.930 . S
C519 C515 1.400 . S
C519 C518 1.385 . S
C520 C518 1.478 . S
C520 C522 1.381 . S
C520 C526 1.383 . S
C521 C517 1.495 . S
C521 H527 0.959 . S
C521 H528 0.961 . S
C521 H529 0.960 . S
C522 C520 1.381 . S
C522 C523 1.394 . S
C522 H530 0.930 . S
C523 C522 1.394 . S
C523 C524 1.383 . S
C523 H531 0.929 . S
C524 C523 1.383 . S
C524 C525 1.377 . S
C525 H509 0.930 . S
C525 C524 1.377 . S
C525 C526 1.379 . S
C526 H510 0.931 . S
C526 C520 1.383 . S
C526 C525 1.379 . S
H527 C521 0.959 . S
H528 C521 0.961 . S
H529 C521 0.960 . S
H530 C522 0.930 . S
H531 C523 0.929 . S
H532 C540 0.929 . S
H533 C542 0.930 . S
H534 C544 0.930 . S
H535 C547 0.929 . S
H536 C550 0.930 . S
H537 C552 0.960 . S
H538 C552 0.960 . S
H539 C552 0.960 . S
C540 H532 0.929 . S
C540 C541 1.377 . S
C540 C542 1.384 . S
C541 C540 1.377 . S
C541 C547 1.390 . S
C542 H533 0.930 . S
C542 C540 1.384 . S
C542 C543 1.372 . S
C543 C542 1.372 . S
C543 C544 1.400 . S
C543 C548 1.490 . S
C544 H534 0.930 . S
C544 C543 1.400 . S
C544 C547 1.386 . S
H545 C561 0.930 . S
H546 C562 0.931 . S
C547 H535 0.929 . S
C547 C541 1.390 . S
C547 C544 1.386 . S
C548 C543 1.490 . S
C548 C550 1.395 . S
C548 C551 1.403 . S
H549 C555 0.930 . S
C550 H536 0.930 . S
C550 C548 1.395 . S
C550 C553 1.403 . S
C551 C548 1.403 . S
C551 C552 1.524 . S
C551 C555 1.400 . S
C552 H537 0.960 . S
C552 H538 0.960 . S
C552 H539 0.960 . S
C552 C551 1.524 . S
C553 C550 1.403 . S
C553 C554 1.392 . S
C553 C557 1.495 . S
C554 C553 1.392 . S
C554 C555 1.385 . S
C554 C556 1.478 . S
C555 H549 0.930 . S
C555 C551 1.400 . S
C555 C554 1.385 . S
C556 C554 1.478 . S
C556 C558 1.381 . S
C556 C562 1.383 . S
C557 C553 1.495 . S
C557 H563 0.959 . S
C557 H564 0.961 . S
C557 H565 0.960 . S
C558 C556 1.381 . S
C558 C559 1.394 . S
C558 H566 0.930 . S
C559 C558 1.394 . S
C559 C560 1.383 . S
C559 H567 0.929 . S
C560 C559 1.383 . S
C560 C561 1.377 . S
C561 H545 0.930 . S
C561 C560 1.377 . S
C561 C562 1.379 . S
C562 H546 0.931 . S
C562 C556 1.383 . S
C562 C561 1.379 . S
H563 C557 0.959 . S
H564 C557 0.961 . S
H565 C557 0.960 . S
H566 C558 0.930 . S
H567 C559 0.929 . S
H568 C576 0.929 . S
H569 C578 0.930 . S
H570 C580 0.930 . S
H571 C583 0.929 . S
H572 C586 0.930 . S
H573 C588 0.960 . S
H574 C588 0.960 . S
H575 C588 0.960 . S
C576 H568 0.929 . S
C576 C577 1.377 . S
C576 C578 1.384 . S
C577 C576 1.377 . S
C577 C583 1.390 . S
C578 H569 0.930 . S
C578 C576 1.384 . S
C578 C579 1.372 . S
C579 C578 1.372 . S
C579 C580 1.400 . S
C579 C584 1.490 . S
C580 H570 0.930 . S
C580 C579 1.400 . S
C580 C583 1.386 . S
H581 C597 0.930 . S
H582 C598 0.931 . S
C583 H571 0.929 . S
C583 C577 1.390 . S
C583 C580 1.386 . S
C584 C579 1.490 . S
C584 C586 1.395 . S
C584 C587 1.403 . S
H585 C591 0.930 . S
C586 H572 0.930 . S
C586 C584 1.395 . S
C586 C589 1.403 . S
C587 C584 1.403 . S
C587 C588 1.524 . S
C587 C591 1.400 . S
C588 H573 0.960 . S
C588 H574 0.960 . S
C588 H575 0.960 . S
C588 C587 1.524 . S
C589 C586 1.403 . S
C589 C590 1.392 . S
C589 C593 1.495 . S
C590 C589 1.392 . S
C590 C591 1.385 . S
C590 C592 1.478 . S
C591 H585 0.930 . S
C591 C587 1.400 . S
C591 C590 1.385 . S
C592 C590 1.478 . S
C592 C594 1.381 . S
C592 C598 1.383 . S
C593 C589 1.495 . S
C593 H599 0.959 . S
C593 H600 0.961 . S
C593 H601 0.960 . S
C594 C592 1.381 . S
C594 C595 1.394 . S
C594 H602 0.930 . S
C595 C594 1.394 . S
C595 C596 1.383 . S
C595 H603 0.929 . S
C596 C595 1.383 . S
C596 C597 1.377 . S
C597 H581 0.930 . S
C597 C596 1.377 . S
C597 C598 1.379 . S
C598 H582 0.931 . S
C598 C592 1.383 . S
C598 C597 1.379 . S
H599 C593 0.959 . S
H600 C593 0.961 . S
H601 C593 0.960 . S
H602 C594 0.930 . S
H603 C595 0.929 . S
H604 C612 0.929 . S
H605 C614 0.930 . S
H606 C616 0.930 . S
H607 C619 0.929 . S
H608 C622 0.930 . S
H609 C624 0.960 . S
H610 C624 0.960 . S
H611 C624 0.960 . S
C612 H604 0.929 . S
C612 C613 1.377 . S
C612 C614 1.384 . S
C613 C612 1.377 . S
C613 C619 1.390 . S
C614 H605 0.930 . S
C614 C612 1.384 . S
C614 C615 1.372 . S
C615 C614 1.372 . S
C615 C616 1.400 . S
C615 C620 1.490 . S
C616 H606 0.930 . S
C616 C615 1.400 . S
C616 C619 1.386 . S
H617 C633 0.930 . S
H618 C634 0.931 . S
C619 H607 0.929 . S
C619 C613 1.390 . S
C619 C616 1.386 . S
C620 C615 1.490 . S
C620 C622 1.395 . S
C620 C623 1.403 . S
H621 C627 0.930 . S
C622 H608 0.930 . S
C622 C620 1.395 . S
C622 C625 1.403 . S
C623 C620 1.403 . S
C623 C624 1.524 . S
C623 C627 1.400 . S
C624 H609 0.960 . S
C624 H610 0.960 . S
C624 H611 0.960 . S
C624 C623 1.524 . S
C625 C622 1.403 . S
C625 C626 1.392 . S
C625 C629 1.495 . S
C626 C625 1.392 . S
C626 C627 1.385 . S
C626 C628 1.478 . S
C627 H621 0.930 . S
C627 C623 1.400 . S
C627 C626 1.385 . S
C628 C626 1.478 . S
C628 C630 1.381 . S
C628 C634 1.383 . S
C629 C625 1.495 . S
C629 H635 0.959 . S
C629 H636 0.961 . S
C629 H637 0.960 . S
C630 C628 1.381 . S
C630 C631 1.394 . S
C630 H638 0.930 . S
C631 C630 1.394 . S
C631 C632 1.383 . S
C631 H639 0.929 . S
C632 C631 1.383 . S
C632 C633 1.377 . S
C633 H617 0.930 . S
C633 C632 1.377 . S
C633 C634 1.379 . S
C634 H618 0.931 . S
C634 C628 1.383 . S
C634 C633 1.379 . S
H635 C629 0.959 . S
H636 C629 0.961 . S
H637 C629 0.960 . S
H638 C630 0.930 . S
H639 C631 0.929 . S
H640 C648 0.929 . S
H641 C650 0.930 . S
H642 C652 0.930 . S
H643 C655 0.929 . S
H644 C658 0.930 . S
H645 C660 0.960 . S
H646 C660 0.960 . S
H647 C660 0.960 . S
C648 H640 0.929 . S
C648 C649 1.377 . S
C648 C650 1.384 . S
C649 C648 1.377 . S
C649 C655 1.390 . S
C650 H641 0.930 . S
C650 C648 1.384 . S
C650 C651 1.372 . S
C651 C650 1.372 . S
C651 C652 1.400 . S
C651 C656 1.490 . S
C652 H642 0.930 . S
C652 C651 1.400 . S
C652 C655 1.386 . S
H653 C669 0.930 . S
H654 C670 0.931 . S
C655 H643 0.929 . S
C655 C649 1.390 . S
C655 C652 1.386 . S
C656 C651 1.490 . S
C656 C658 1.395 . S
C656 C659 1.403 . S
H657 C663 0.930 . S
C658 H644 0.930 . S
C658 C656 1.395 . S
C658 C661 1.403 . S
C659 C656 1.403 . S
C659 C660 1.524 . S
C659 C663 1.400 . S
C660 H645 0.960 . S
C660 H646 0.960 . S
C660 H647 0.960 . S
C660 C659 1.524 . S
C661 C658 1.403 . S
C661 C662 1.392 . S
C661 C665 1.495 . S
C662 C661 1.392 . S
C662 C663 1.385 . S
C662 C664 1.478 . S
C663 H657 0.930 . S
C663 C659 1.400 . S
C663 C662 1.385 . S
C664 C662 1.478 . S
C664 C666 1.381 . S
C664 C670 1.383 . S
C665 C661 1.495 . S
C665 H671 0.959 . S
C665 H672 0.961 . S
C665 H673 0.960 . S
C666 C664 1.381 . S
C666 C667 1.394 . S
C666 H674 0.930 . S
C667 C666 1.394 . S
C667 C668 1.383 . S
C667 H675 0.929 . S
C668 C667 1.383 . S
C668 C669 1.377 . S
C669 H653 0.930 . S
C669 C668 1.377 . S
C669 C670 1.379 . S
C670 H654 0.931 . S
C670 C664 1.383 . S
C670 C669 1.379 . S
H671 C665 0.959 . S
H672 C665 0.961 . S
H673 C665 0.960 . S
H674 C666 0.930 . S
H675 C667 0.929 . S
H676 C684 0.929 . S
H677 C686 0.930 . S
H678 C688 0.930 . S
H679 C691 0.929 . S
H680 C694 0.930 . S
H681 C696 0.960 . S
H682 C696 0.960 . S
H683 C696 0.960 . S
C684 H676 0.929 . S
C684 C685 1.377 . S
C684 C686 1.384 . S
C685 C684 1.377 . S
C685 C691 1.390 . S
C686 H677 0.930 . S
C686 C684 1.384 . S
C686 C687 1.372 . S
C687 C686 1.372 . S
C687 C688 1.400 . S
C687 C692 1.490 . S
C688 H678 0.930 . S
C688 C687 1.400 . S
C688 C691 1.386 . S
H689 C705 0.930 . S
H690 C706 0.931 . S
C691 H679 0.929 . S
C691 C685 1.390 . S
C691 C688 1.386 . S
C692 C687 1.490 . S
C692 C694 1.395 . S
C692 C695 1.403 . S
H693 C699 0.930 . S
C694 H680 0.930 . S
C694 C692 1.395 . S
C694 C697 1.403 . S
C695 C692 1.403 . S
C695 C696 1.524 . S
C695 C699 1.400 . S
C696 H681 0.960 . S
C696 H682 0.960 . S
C696 H683 0.960 . S
C696 C695 1.524 . S
C697 C694 1.403 . S
C697 C698 1.392 . S
C697 C701 1.495 . S
C698 C697 1.392 . S
C698 C699 1.385 . S
C698 C700 1.478 . S
C699 H693 0.930 . S
C699 C695 1.400 . S
C699 C698 1.385 . S
C700 C698 1.478 . S
C700 C702 1.381 . S
C700 C706 1.383 . S
C701 C697 1.495 . S
C701 H707 0.959 . S
C701 H708 0.961 . S
C701 H709 0.960 . S
C702 C700 1.381 . S
C702 C703 1.394 . S
C702 H710 0.930 . S
C703 C702 1.394 . S
C703 C704 1.383 . S
C703 H711 0.929 . S
C704 C703 1.383 . S
C704 C705 1.377 . S
C705 H689 0.930 . S
C705 C704 1.377 . S
C705 C706 1.379 . S
C706 H690 0.931 . S
C706 C700 1.383 . S
C706 C705 1.379 . S
H707 C701 0.959 . S
H708 C701 0.961 . S
H709 C701 0.960 . S
H710 C702 0.930 . S
H711 C703 0.929 . S
H712 C720 0.929 . S
H713 C722 0.930 . S
H714 C724 0.930 . S
H715 C727 0.929 . S
H716 C730 0.930 . S
H717 C732 0.960 . S
H718 C732 0.960 . S
H719 C732 0.960 . S
C720 H712 0.929 . S
C720 C721 1.377 . S
C720 C722 1.384 . S
C721 C720 1.377 . S
C721 C727 1.390 . S
C722 H713 0.930 . S
C722 C720 1.384 . S
C722 C723 1.372 . S
C723 C722 1.372 . S
C723 C724 1.400 . S
C723 C728 1.490 . S
C724 H714 0.930 . S
C724 C723 1.400 . S
C724 C727 1.386 . S
H725 C741 0.930 . S
H726 C742 0.931 . S
C727 H715 0.929 . S
C727 C721 1.390 . S
C727 C724 1.386 . S
C728 C723 1.490 . S
C728 C730 1.395 . S
C728 C731 1.403 . S
H729 C735 0.930 . S
C730 H716 0.930 . S
C730 C728 1.395 . S
C730 C733 1.403 . S
C731 C728 1.403 . S
C731 C732 1.524 . S
C731 C735 1.400 . S
C732 H717 0.960 . S
C732 H718 0.960 . S
C732 H719 0.960 . S
C732 C731 1.524 . S
C733 C730 1.403 . S
C733 C734 1.392 . S
C733 C737 1.495 . S
C734 C733 1.392 . S
C734 C735 1.385 . S
C734 C736 1.478 . S
C735 H729 0.930 . S
C735 C731 1.400 . S
C735 C734 1.385 . S
C736 C734 1.478 . S
C736 C738 1.381 . S
C736 C742 1.383 . S
C737 C733 1.495 . S
C737 H743 0.959 . S
C737 H744 0.961 . S
C737 H745 0.960 . S
C738 C736 1.381 . S
C738 C739 1.394 . S
C738 H746 0.930 . S
C739 C738 1.394 . S
C739 C740 1.383 . S
C739 H747 0.929 . S
C740 C739 1.383 . S
C740 C741 1.377 . S
C741 H725 0.930 . S
C741 C740 1.377 . S
C741 C742 1.379 . S
C742 H726 0.931 . S
C742 C736 1.383 . S
C742 C741 1.379 . S
H743 C737 0.959 . S
H744 C737 0.961 . S
H745 C737 0.960 . S
H746 C738 0.930 . S
H747 C739 0.929 . S
H748 C756 0.929 . S
H749 C758 0.930 . S
H750 C760 0.930 . S
H751 C763 0.929 . S
H752 C766 0.930 . S
H753 C768 0.960 . S
H754 C768 0.960 . S
H755 C768 0.960 . S
C756 H748 0.929 . S
C756 C757 1.377 . S
C756 C758 1.384 . S
C757 C756 1.377 . S
C757 C763 1.390 . S
C758 H749 0.930 . S
C758 C756 1.384 . S
C758 C759 1.372 . S
C759 C758 1.372 . S
C759 C760 1.400 . S
C759 C764 1.490 . S
C760 H750 0.930 . S
C760 C759 1.400 . S
C760 C763 1.386 . S
H761 C777 0.930 . S
H762 C778 0.931 . S
C763 H751 0.929 . S
C763 C757 1.390 . S
C763 C760 1.386 . S
C764 C759 1.490 . S
C764 C766 1.395 . S
C764 C767 1.403 . S
H765 C771 0.930 . S
C766 H752 0.930 . S
C766 C764 1.395 . S
C766 C769 1.403 . S
C767 C764 1.403 . S
C767 C768 1.524 . S
C767 C771 1.400 . S
C768 H753 0.960 . S
C768 H754 0.960 . S
C768 H755 0.960 . S
C768 C767 1.524 . S
C769 C766 1.403 . S
C769 C770 1.392 . S
C769 C773 1.495 . S
C770 C769 1.392 . S
C770 C771 1.385 . S
C770 C772 1.478 . S
C771 H765 0.930 . S
C771 C767 1.400 . S
C771 C770 1.385 . S
C772 C770 1.478 . S
C772 C774 1.381 . S
C772 C778 1.383 . S
C773 C769 1.495 . S
C773 H779 0.959 . S
C773 H780 0.961 . S
C773 H781 0.960 . S
C774 C772 1.381 . S
C774 C775 1.394 . S
C774 H782 0.930 . S
C775 C774 1.394 . S
C775 C776 1.383 . S
C775 H783 0.929 . S
C776 C775 1.383 . S
C776 C777 1.377 . S
C777 H761 0.930 . S
C777 C776 1.377 . S
C777 C778 1.379 . S
C778 H762 0.931 . S
C778 C772 1.383 . S
C778 C777 1.379 . S
H779 C773 0.959 . S
H780 C773 0.961 . S
H781 C773 0.960 . S
H782 C774 0.930 . S
H783 C775 0.929 . S
H784 C792 0.929 . S
H785 C794 0.930 . S
H786 C796 0.930 . S
H787 C799 0.929 . S
H788 C802 0.930 . S
H789 C804 0.960 . S
H790 C804 0.960 . S
H791 C804 0.960 . S
C792 H784 0.929 . S
C792 C793 1.377 . S
C792 C794 1.384 . S
C793 C792 1.377 . S
C793 C799 1.390 . S
C794 H785 0.930 . S
C794 C792 1.384 . S
C794 C795 1.372 . S
C795 C794 1.372 . S
C795 C796 1.400 . S
C795 C800 1.490 . S
C796 H786 0.930 . S
C796 C795 1.400 . S
C796 C799 1.386 . S
H797 C813 0.930 . S
H798 C814 0.931 . S
C799 H787 0.929 . S
C799 C793 1.390 . S
C799 C796 1.386 . S
C800 C795 1.490 . S
C800 C802 1.395 . S
C800 C803 1.403 . S
H801 C807 0.930 . S
C802 H788 0.930 . S
C802 C800 1.395 . S
C802 C805 1.403 1_556 S
C803 C800 1.403 . S
C803 C804 1.524 . S
C803 C807 1.400 1_556 S
C804 H789 0.960 . S
C804 H790 0.960 . S
C804 H791 0.960 . S
C804 C803 1.524 . S
C805 C802 1.403 1_554 S
C805 C806 1.392 . S
C805 C809 1.495 . S
C806 C805 1.392 . S
C806 C807 1.385 . S
C806 C808 1.478 . S
C807 H801 0.930 . S
C807 C803 1.400 1_554 S
C807 C806 1.385 . S
C808 C806 1.478 . S
C808 C810 1.381 . S
C808 C814 1.383 . S
C809 C805 1.495 . S
C809 H815 0.959 . S
C809 H816 0.961 . S
C809 H817 0.960 . S
C810 C808 1.381 . S
C810 C811 1.394 . S
C810 H818 0.930 . S
C811 C810 1.394 . S
C811 C812 1.383 . S
C811 H819 0.929 . S
C812 C811 1.383 . S
C812 C813 1.377 . S
C813 H797 0.930 . S
C813 C812 1.377 . S
C813 C814 1.379 . S
C814 H798 0.931 . S
C814 C808 1.383 . S
C814 C813 1.379 . S
H815 C809 0.959 . S
H816 C809 0.961 . S
H817 C809 0.960 . S
H818 C810 0.930 . S
H819 C811 0.929 . S
H820 C828 0.929 . S
H821 C830 0.930 . S
H822 C832 0.930 . S
H823 C835 0.929 . S
H824 C838 0.930 . S
H825 C840 0.960 . S
H826 C840 0.960 . S
H827 C840 0.960 . S
C828 H820 0.929 . S
C828 C829 1.377 . S
C828 C830 1.384 . S
C829 C828 1.377 . S
C829 C835 1.390 . S
C830 H821 0.930 . S
C830 C828 1.384 . S
C830 C831 1.372 . S
C831 C830 1.372 . S
C831 C832 1.400 . S
C831 C836 1.490 . S
C832 H822 0.930 . S
C832 C831 1.400 . S
C832 C835 1.386 . S
H833 C849 0.930 . S
H834 C850 0.931 . S
C835 H823 0.929 . S
C835 C829 1.390 . S
C835 C832 1.386 . S
C836 C831 1.490 . S
C836 C838 1.395 . S
C836 C839 1.403 . S
H837 C843 0.930 . S
C838 H824 0.930 . S
C838 C836 1.395 . S
C838 C841 1.403 . S
C839 C836 1.403 . S
C839 C840 1.524 . S
C839 C843 1.400 . S
C840 H825 0.960 . S
C840 H826 0.960 . S
C840 H827 0.960 . S
C840 C839 1.524 . S
C841 C838 1.403 . S
C841 C842 1.392 . S
C841 C845 1.495 . S
C842 C841 1.392 . S
C842 C843 1.385 . S
C842 C844 1.478 . S
C843 H837 0.930 . S
C843 C839 1.400 . S
C843 C842 1.385 . S
C844 C842 1.478 . S
C844 C846 1.381 . S
C844 C850 1.383 . S
C845 C841 1.495 . S
C845 H851 0.959 . S
C845 H852 0.961 . S
C845 H853 0.960 . S
C846 C844 1.381 . S
C846 C847 1.394 . S
C846 H854 0.930 . S
C847 C846 1.394 . S
C847 C848 1.383 . S
C847 H855 0.929 . S
C848 C847 1.383 . S
C848 C849 1.377 . S
C849 H833 0.930 . S
C849 C848 1.377 . S
C849 C850 1.379 . S
C850 H834 0.931 . S
C850 C844 1.383 . S
C850 C849 1.379 . S
H851 C845 0.959 . S
H852 C845 0.961 . S
H853 C845 0.960 . S
H854 C846 0.930 . S
H855 C847 0.929 . S
H856 C864 0.929 . S
H857 C866 0.930 . S
H858 C868 0.930 . S
H859 C871 0.929 . S
H860 C874 0.930 . S
H861 C876 0.960 . S
H862 C876 0.960 . S
H863 C876 0.960 . S
C864 H856 0.929 . S
C864 C865 1.377 . S
C864 C866 1.384 . S
C865 C864 1.377 . S
C865 C871 1.390 . S
C866 H857 0.930 . S
C866 C864 1.384 . S
C866 C867 1.372 . S
C867 C866 1.372 . S
C867 C868 1.400 . S
C867 C872 1.490 . S
C868 H858 0.930 . S
C868 C867 1.400 . S
C868 C871 1.386 . S
H869 C885 0.930 . S
H870 C886 0.931 . S
C871 H859 0.929 . S
C871 C865 1.390 . S
C871 C868 1.386 . S
C872 C867 1.490 . S
C872 C874 1.395 . S
C872 C875 1.403 . S
H873 C879 0.930 . S
C874 H860 0.930 . S
C874 C872 1.395 . S
C874 C877 1.403 1_554 S
C875 C872 1.403 . S
C875 C876 1.524 . S
C875 C879 1.400 1_554 S
C876 H861 0.960 . S
C876 H862 0.960 . S
C876 H863 0.960 . S
C876 C875 1.524 . S
C877 C874 1.403 1_556 S
C877 C878 1.392 . S
C877 C881 1.495 . S
C878 C877 1.392 . S
C878 C879 1.385 . S
C878 C880 1.478 . S
C879 H873 0.930 . S
C879 C875 1.400 1_556 S
C879 C878 1.385 . S
C880 C878 1.478 . S
C880 C882 1.381 . S
C880 C886 1.383 . S
C881 C877 1.495 . S
C881 H887 0.959 . S
C881 H888 0.961 . S
C881 H889 0.960 . S
C882 C880 1.381 . S
C882 C883 1.394 . S
C882 H890 0.930 . S
C883 C882 1.394 . S
C883 C884 1.383 . S
C883 H891 0.929 . S
C884 C883 1.383 . S
C884 C885 1.377 . S
C885 H869 0.930 . S
C885 C884 1.377 . S
C885 C886 1.379 . S
C886 H870 0.931 . S
C886 C880 1.383 . S
C886 C885 1.379 . S
H887 C881 0.959 . S
H888 C881 0.961 . S
H889 C881 0.960 . S
H890 C882 0.930 . S
H891 C883 0.929 . S
H892 C900 0.929 . S
H893 C902 0.930 . S
H894 C904 0.930 . S
H895 C907 0.929 . S
H896 C910 0.930 . S
H897 C912 0.960 . S
H898 C912 0.960 . S
H899 C912 0.960 . S
C900 H892 0.929 . S
C900 C901 1.377 . S
C900 C902 1.384 . S
C901 C900 1.377 . S
C901 C907 1.390 . S
C902 H893 0.930 . S
C902 C900 1.384 . S
C902 C903 1.372 . S
C903 C902 1.372 . S
C903 C904 1.400 . S
C903 C908 1.490 . S
C904 H894 0.930 . S
C904 C903 1.400 . S
C904 C907 1.386 . S
H905 C921 0.930 . S
H906 C922 0.931 . S
C907 H895 0.929 . S
C907 C901 1.390 . S
C907 C904 1.386 . S
C908 C903 1.490 . S
C908 C910 1.395 . S
C908 C911 1.403 . S
H909 C915 0.930 . S
C910 H896 0.930 . S
C910 C908 1.395 . S
C910 C913 1.403 . S
C911 C908 1.403 . S
C911 C912 1.524 . S
C911 C915 1.400 . S
C912 H897 0.960 . S
C912 H898 0.960 . S
C912 H899 0.960 . S
C912 C911 1.524 . S
C913 C910 1.403 . S
C913 C914 1.392 . S
C913 C917 1.495 . S
C914 C913 1.392 . S
C914 C915 1.385 . S
C914 C916 1.478 . S
C915 H909 0.930 . S
C915 C911 1.400 . S
C915 C914 1.385 . S
C916 C914 1.478 . S
C916 C918 1.381 . S
C916 C922 1.383 . S
C917 C913 1.495 . S
C917 H923 0.959 . S
C917 H924 0.961 . S
C917 H925 0.960 . S
C918 C916 1.381 . S
C918 C919 1.394 . S
C918 H926 0.930 . S
C919 C918 1.394 . S
C919 C920 1.383 . S
C919 H927 0.929 . S
C920 C919 1.383 . S
C920 C921 1.377 . S
C921 H905 0.930 . S
C921 C920 1.377 . S
C921 C922 1.379 . S
C922 H906 0.931 . S
C922 C916 1.383 . S
C922 C921 1.379 . S
H923 C917 0.959 . S
H924 C917 0.961 . S
H925 C917 0.960 . S
H926 C918 0.930 . S
H927 C919 0.929 . S
H928 C936 0.929 . S
H929 C938 0.930 . S
H930 C940 0.930 . S
H931 C943 0.929 . S
H932 C946 0.930 . S
H933 C948 0.960 . S
H934 C948 0.960 . S
H935 C948 0.960 . S
C936 H928 0.929 . S
C936 C937 1.377 . S
C936 C938 1.384 . S
C937 C936 1.377 . S
C937 C943 1.390 . S
C938 H929 0.930 . S
C938 C936 1.384 . S
C938 C939 1.372 . S
C939 C938 1.372 . S
C939 C940 1.400 . S
C939 C944 1.490 . S
C940 H930 0.930 . S
C940 C939 1.400 . S
C940 C943 1.386 . S
H941 C957 0.930 . S
H942 C958 0.931 . S
C943 H931 0.929 . S
C943 C937 1.390 . S
C943 C940 1.386 . S
C944 C939 1.490 . S
C944 C946 1.395 . S
C944 C947 1.403 . S
H945 C951 0.930 . S
C946 H932 0.930 . S
C946 C944 1.395 . S
C946 C949 1.403 . S
C947 C944 1.403 . S
C947 C948 1.524 . S
C947 C951 1.400 . S
C948 H933 0.960 . S
C948 H934 0.960 . S
C948 H935 0.960 . S
C948 C947 1.524 . S
C949 C946 1.403 . S
C949 C950 1.392 . S
C949 C953 1.495 . S
C950 C949 1.392 . S
C950 C951 1.385 . S
C950 C952 1.478 . S
C951 H945 0.930 . S
C951 C947 1.400 . S
C951 C950 1.385 . S
C952 C950 1.478 . S
C952 C954 1.381 . S
C952 C958 1.383 . S
C953 C949 1.495 . S
C953 H959 0.959 . S
C953 H960 0.961 . S
C953 H961 0.960 . S
C954 C952 1.381 . S
C954 C955 1.394 . S
C954 H962 0.930 . S
C955 C954 1.394 . S
C955 C956 1.383 . S
C955 H963 0.929 . S
C956 C955 1.383 . S
C956 C957 1.377 . S
C957 H941 0.930 . S
C957 C956 1.377 . S
C957 C958 1.379 . S
C958 H942 0.931 . S
C958 C952 1.383 . S
C958 C957 1.379 . S
H959 C953 0.959 . S
H960 C953 0.961 . S
H961 C953 0.960 . S
H962 C954 0.930 . S
H963 C955 0.929 . S
H964 C972 0.929 . S
H965 C974 0.930 . S
H966 C976 0.930 . S
H967 C979 0.929 . S
H968 C982 0.930 . S
H969 C984 0.960 . S
H970 C984 0.960 . S
H971 C984 0.960 . S
C972 H964 0.929 . S
C972 C973 1.377 . S
C972 C974 1.384 . S
C973 C972 1.377 . S
C973 C979 1.390 . S
C974 H965 0.930 . S
C974 C972 1.384 . S
C974 C975 1.372 . S
C975 C974 1.372 . S
C975 C976 1.400 . S
C975 C980 1.490 . S
C976 H966 0.930 . S
C976 C975 1.400 . S
C976 C979 1.386 . S
H977 C993 0.930 . S
H978 C994 0.931 . S
C979 H967 0.929 . S
C979 C973 1.390 . S
C979 C976 1.386 . S
C980 C975 1.490 . S
C980 C982 1.395 . S
C980 C983 1.403 . S
H981 C987 0.930 . S
C982 H968 0.930 . S
C982 C980 1.395 . S
C982 C985 1.403 1_556 S
C983 C980 1.403 . S
C983 C984 1.524 . S
C983 C987 1.400 1_556 S
C984 H969 0.960 . S
C984 H970 0.960 . S
C984 H971 0.960 . S
C984 C983 1.524 . S
C985 C982 1.403 1_554 S
C985 C986 1.392 . S
C985 C989 1.495 . S
C986 C985 1.392 . S
C986 C987 1.385 . S
C986 C988 1.478 . S
C987 H981 0.930 . S
C987 C983 1.400 1_554 S
C987 C986 1.385 . S
C988 C986 1.478 . S
C988 C990 1.381 . S
C988 C994 1.383 . S
C989 C985 1.495 . S
C989 H995 0.959 . S
C989 H996 0.961 . S
C989 H997 0.960 . S
C990 C988 1.381 . S
C990 C991 1.394 . S
C990 H998 0.930 . S
C991 C990 1.394 . S
C991 C992 1.383 . S
C991 H999 0.929 . S
C992 C991 1.383 . S
C992 C993 1.377 . S
C993 H977 0.930 . S
C993 C992 1.377 . S
C993 C994 1.379 . S
C994 H978 0.931 . S
C994 C988 1.383 . S
C994 C993 1.379 . S
H995 C989 0.959 . S
H996 C989 0.961 . S
H997 C989 0.960 . S
H998 C990 0.930 . S
H999 C991 0.929 . S
H1000 C1008 0.929 . S
H1001 C1010 0.930 . S
H1002 C1012 0.930 . S
H1003 C1015 0.929 . S
H1004 C1018 0.930 . S
H1005 C1020 0.960 . S
H1006 C1020 0.960 . S
H1007 C1020 0.960 . S
C1008 H1000 0.929 . S
C1008 C1009 1.377 . S
C1008 C1010 1.384 . S
C1009 C1008 1.377 . S
C1009 C1015 1.390 . S
C1010 H1001 0.930 . S
C1010 C1008 1.384 . S
C1010 C1011 1.372 . S
C1011 C1010 1.372 . S
C1011 C1012 1.400 . S
C1011 C1016 1.490 . S
C1012 H1002 0.930 . S
C1012 C1011 1.400 . S
C1012 C1015 1.386 . S
H1013 C1029 0.930 . S
H1014 C1030 0.931 . S
C1015 H1003 0.929 . S
C1015 C1009 1.390 . S
C1015 C1012 1.386 . S
C1016 C1011 1.490 . S
C1016 C1018 1.395 . S
C1016 C1019 1.403 . S
H1017 C1023 0.930 . S
C1018 H1004 0.930 . S
C1018 C1016 1.395 . S
C1018 C1021 1.403 . S
C1019 C1016 1.403 . S
C1019 C1020 1.524 . S
C1019 C1023 1.400 . S
C1020 H1005 0.960 . S
C1020 H1006 0.960 . S
C1020 H1007 0.960 . S
C1020 C1019 1.524 . S
C1021 C1018 1.403 . S
C1021 C1022 1.392 . S
C1021 C1025 1.495 . S
C1022 C1021 1.392 . S
C1022 C1023 1.385 . S
C1022 C1024 1.478 . S
C1023 H1017 0.930 . S
C1023 C1019 1.400 . S
C1023 C1022 1.385 . S
C1024 C1022 1.478 . S
C1024 C1026 1.381 . S
C1024 C1030 1.383 . S
C1025 C1021 1.495 . S
C1025 H1031 0.959 . S
C1025 H1032 0.961 . S
C1025 H1033 0.960 . S
C1026 C1024 1.381 . S
C1026 C1027 1.394 . S
C1026 H1034 0.930 . S
C1027 C1026 1.394 . S
C1027 C1028 1.383 . S
C1027 H1035 0.929 . S
C1028 C1027 1.383 . S
C1028 C1029 1.377 . S
C1029 H1013 0.930 . S
C1029 C1028 1.377 . S
C1029 C1030 1.379 . S
C1030 H1014 0.931 . S
C1030 C1024 1.383 . S
C1030 C1029 1.379 . S
H1031 C1025 0.959 . S
H1032 C1025 0.961 . S
H1033 C1025 0.960 . S
H1034 C1026 0.930 . S
H1035 C1027 0.929 . S
H1036 C1044 0.929 . S
H1037 C1046 0.930 . S
H1038 C1048 0.930 . S
H1039 C1051 0.929 . S
H1040 C1054 0.930 . S
H1041 C1056 0.960 . S
H1042 C1056 0.960 . S
H1043 C1056 0.960 . S
C1044 H1036 0.929 . S
C1044 C1045 1.377 . S
C1044 C1046 1.384 . S
C1045 C1044 1.377 . S
C1045 C1051 1.390 . S
C1046 H1037 0.930 . S
C1046 C1044 1.384 . S
C1046 C1047 1.372 . S
C1047 C1046 1.372 . S
C1047 C1048 1.400 . S
C1047 C1052 1.490 . S
C1048 H1038 0.930 . S
C1048 C1047 1.400 . S
C1048 C1051 1.386 . S
H1049 C1065 0.930 . S
H1050 C1066 0.931 . S
C1051 H1039 0.929 . S
C1051 C1045 1.390 . S
C1051 C1048 1.386 . S
C1052 C1047 1.490 . S
C1052 C1054 1.395 . S
C1052 C1055 1.403 . S
H1053 C1059 0.930 . S
C1054 H1040 0.930 . S
C1054 C1052 1.395 . S
C1054 C1057 1.403 1_554 S
C1055 C1052 1.403 . S
C1055 C1056 1.524 . S
C1055 C1059 1.400 1_554 S
C1056 H1041 0.960 . S
C1056 H1042 0.960 . S
C1056 H1043 0.960 . S
C1056 C1055 1.524 . S
C1057 C1054 1.403 1_556 S
C1057 C1058 1.392 . S
C1057 C1061 1.495 . S
C1058 C1057 1.392 . S
C1058 C1059 1.385 . S
C1058 C1060 1.478 . S
C1059 H1053 0.930 . S
C1059 C1055 1.400 1_556 S
C1059 C1058 1.385 . S
C1060 C1058 1.478 . S
C1060 C1062 1.381 . S
C1060 C1066 1.383 . S
C1061 C1057 1.495 . S
C1061 H1067 0.959 . S
C1061 H1068 0.961 . S
C1061 H1069 0.960 . S
C1062 C1060 1.381 . S
C1062 C1063 1.394 . S
C1062 H1070 0.930 . S
C1063 C1062 1.394 . S
C1063 C1064 1.383 . S
C1063 H1071 0.929 . S
C1064 C1063 1.383 . S
C1064 C1065 1.377 . S
C1065 H1049 0.930 . S
C1065 C1064 1.377 . S
C1065 C1066 1.379 . S
C1066 H1050 0.931 . S
C1066 C1060 1.383 . S
C1066 C1065 1.379 . S
H1067 C1061 0.959 . S
H1068 C1061 0.961 . S
H1069 C1061 0.960 . S
H1070 C1062 0.930 . S
H1071 C1063 0.929 . S
H1072 C1080 0.929 . S
H1073 C1082 0.930 . S
H1074 C1084 0.930 . S
H1075 C1087 0.929 . S
H1076 C1090 0.930 . S
H1077 C1092 0.960 . S
H1078 C1092 0.960 . S
H1079 C1092 0.960 . S
C1080 H1072 0.929 . S
C1080 C1081 1.377 . S
C1080 C1082 1.384 . S
C1081 C1080 1.377 . S
C1081 C1087 1.390 . S
C1082 H1073 0.930 . S
C1082 C1080 1.384 . S
C1082 C1083 1.372 . S
C1083 C1082 1.372 . S
C1083 C1084 1.400 . S
C1083 C1088 1.490 . S
C1084 H1074 0.930 . S
C1084 C1083 1.400 . S
C1084 C1087 1.386 . S
H1085 C1101 0.930 . S
H1086 C1102 0.931 . S
C1087 H1075 0.929 . S
C1087 C1081 1.390 . S
C1087 C1084 1.386 . S
C1088 C1083 1.490 . S
C1088 C1090 1.395 . S
C1088 C1091 1.403 . S
H1089 C1095 0.930 . S
C1090 H1076 0.930 . S
C1090 C1088 1.395 . S
C1090 C1093 1.403 . S
C1091 C1088 1.403 . S
C1091 C1092 1.524 . S
C1091 C1095 1.400 . S
C1092 H1077 0.960 . S
C1092 H1078 0.960 . S
C1092 H1079 0.960 . S
C1092 C1091 1.524 . S
C1093 C1090 1.403 . S
C1093 C1094 1.392 . S
C1093 C1097 1.495 . S
C1094 C1093 1.392 . S
C1094 C1095 1.385 . S
C1094 C1096 1.478 . S
C1095 H1089 0.930 . S
C1095 C1091 1.400 . S
C1095 C1094 1.385 . S
C1096 C1094 1.478 . S
C1096 C1098 1.381 . S
C1096 C1102 1.383 . S
C1097 C1093 1.495 . S
C1097 H1103 0.959 . S
C1097 H1104 0.961 . S
C1097 H1105 0.960 . S
C1098 C1096 1.381 . S
C1098 C1099 1.394 . S
C1098 H1106 0.930 . S
C1099 C1098 1.394 . S
C1099 C1100 1.383 . S
C1099 H1107 0.929 . S
C1100 C1099 1.383 . S
C1100 C1101 1.377 . S
C1101 H1085 0.930 . S
C1101 C1100 1.377 . S
C1101 C1102 1.379 . S
C1102 H1086 0.931 . S
C1102 C1096 1.383 . S
C1102 C1101 1.379 . S
H1103 C1097 0.959 . S
H1104 C1097 0.961 . S
H1105 C1097 0.960 . S
H1106 C1098 0.930 . S
H1107 C1099 0.929 . S
H1108 C1116 0.929 . S
H1109 C1118 0.930 . S
H1110 C1120 0.930 . S
H1111 C1123 0.929 . S
H1112 C1126 0.930 . S
H1113 C1128 0.960 . S
H1114 C1128 0.960 . S
H1115 C1128 0.960 . S
C1116 H1108 0.929 . S
C1116 C1117 1.377 . S
C1116 C1118 1.384 . S
C1117 C1116 1.377 . S
C1117 C1123 1.390 . S
C1118 H1109 0.930 . S
C1118 C1116 1.384 . S
C1118 C1119 1.372 . S
C1119 C1118 1.372 . S
C1119 C1120 1.400 . S
C1119 C1124 1.490 . S
C1120 H1110 0.930 . S
C1120 C1119 1.400 . S
C1120 C1123 1.386 . S
H1121 C1137 0.930 . S
H1122 C1138 0.931 . S
C1123 H1111 0.929 . S
C1123 C1117 1.390 . S
C1123 C1120 1.386 . S
C1124 C1119 1.490 . S
C1124 C1126 1.395 . S
C1124 C1127 1.403 . S
H1125 C1131 0.930 . S
C1126 H1112 0.930 . S
C1126 C1124 1.395 . S
C1126 C1129 1.403 . S
C1127 C1124 1.403 . S
C1127 C1128 1.524 . S
C1127 C1131 1.400 . S
C1128 H1113 0.960 . S
C1128 H1114 0.960 . S
C1128 H1115 0.960 . S
C1128 C1127 1.524 . S
C1129 C1126 1.403 . S
C1129 C1130 1.392 . S
C1129 C1133 1.495 . S
C1130 C1129 1.392 . S
C1130 C1131 1.385 . S
C1130 C1132 1.478 . S
C1131 H1125 0.930 . S
C1131 C1127 1.400 . S
C1131 C1130 1.385 . S
C1132 C1130 1.478 . S
C1132 C1134 1.381 . S
C1132 C1138 1.383 . S
C1133 C1129 1.495 . S
C1133 H1139 0.959 . S
C1133 H1140 0.961 . S
C1133 H1141 0.960 . S
C1134 C1132 1.381 . S
C1134 C1135 1.394 . S
C1134 H1142 0.930 . S
C1135 C1134 1.394 . S
C1135 C1136 1.383 . S
C1135 H1143 0.929 . S
C1136 C1135 1.383 . S
C1136 C1137 1.377 . S
C1137 H1121 0.930 . S
C1137 C1136 1.377 . S
C1137 C1138 1.379 . S
C1138 H1122 0.931 . S
C1138 C1132 1.383 . S
C1138 C1137 1.379 . S
H1139 C1133 0.959 . S
H1140 C1133 0.961 . S
H1141 C1133 0.960 . S
H1142 C1134 0.930 . S
H1143 C1135 0.929 . S
H1144 C1152 0.929 . S
H1145 C1154 0.930 . S
H1146 C1156 0.930 . S
H1147 C1159 0.929 . S
H1148 C1162 0.930 . S
H1149 C1164 0.960 . S
H1150 C1164 0.960 . S
H1151 C1164 0.960 . S
C1152 H1144 0.929 . S
C1152 C1153 1.377 . S
C1152 C1154 1.384 . S
C1153 C1152 1.377 . S
C1153 C1159 1.390 . S
C1154 H1145 0.930 . S
C1154 C1152 1.384 . S
C1154 C1155 1.372 . S
C1155 C1154 1.372 . S
C1155 C1156 1.400 . S
C1155 C1160 1.490 . S
C1156 H1146 0.930 . S
C1156 C1155 1.400 . S
C1156 C1159 1.386 . S
H1157 C1173 0.930 . S
H1158 C1174 0.931 . S
C1159 H1147 0.929 . S
C1159 C1153 1.390 . S
C1159 C1156 1.386 . S
C1160 C1155 1.490 . S
C1160 C1162 1.395 . S
C1160 C1163 1.403 . S
H1161 C1167 0.930 . S
C1162 H1148 0.930 . S
C1162 C1160 1.395 . S
C1162 C1165 1.403 . S
C1163 C1160 1.403 . S
C1163 C1164 1.524 . S
C1163 C1167 1.400 . S
C1164 H1149 0.960 . S
C1164 H1150 0.960 . S
C1164 H1151 0.960 . S
C1164 C1163 1.524 . S
C1165 C1162 1.403 . S
C1165 C1166 1.392 . S
C1165 C1169 1.495 . S
C1166 C1165 1.392 . S
C1166 C1167 1.385 . S
C1166 C1168 1.478 . S
C1167 H1161 0.930 . S
C1167 C1163 1.400 . S
C1167 C1166 1.385 . S
C1168 C1166 1.478 . S
C1168 C1170 1.381 . S
C1168 C1174 1.383 . S
C1169 C1165 1.495 . S
C1169 H1175 0.959 . S
C1169 H1176 0.961 . S
C1169 H1177 0.960 . S
C1170 C1168 1.381 . S
C1170 C1171 1.394 . S
C1170 H1178 0.930 . S
C1171 C1170 1.394 . S
C1171 C1172 1.383 . S
C1171 H1179 0.929 . S
C1172 C1171 1.383 . S
C1172 C1173 1.377 . S
C1173 H1157 0.930 . S
C1173 C1172 1.377 . S
C1173 C1174 1.379 . S
C1174 H1158 0.931 . S
C1174 C1168 1.383 . S
C1174 C1173 1.379 . S
H1175 C1169 0.959 . S
H1176 C1169 0.961 . S
H1177 C1169 0.960 . S
H1178 C1170 0.930 . S
H1179 C1171 0.929 . S
H1180 C1188 0.929 . S
H1181 C1190 0.930 . S
H1182 C1192 0.930 . S
H1183 C1195 0.929 . S
H1184 C1198 0.930 . S
H1185 C1200 0.960 . S
H1186 C1200 0.960 . S
H1187 C1200 0.960 . S
C1188 H1180 0.929 . S
C1188 C1189 1.377 . S
C1188 C1190 1.384 . S
C1189 C1188 1.377 . S
C1189 C1195 1.390 . S
C1190 H1181 0.930 . S
C1190 C1188 1.384 . S
C1190 C1191 1.372 . S
C1191 C1190 1.372 . S
C1191 C1192 1.400 . S
C1191 C1196 1.490 . S
C1192 H1182 0.930 . S
C1192 C1191 1.400 . S
C1192 C1195 1.386 . S
H1193 C1209 0.930 . S
H1194 C1210 0.931 . S
C1195 H1183 0.929 . S
C1195 C1189 1.390 . S
C1195 C1192 1.386 . S
C1196 C1191 1.490 . S
C1196 C1198 1.395 . S
C1196 C1199 1.403 . S
H1197 C1203 0.930 . S
C1198 H1184 0.930 . S
C1198 C1196 1.395 . S
C1198 C1201 1.403 . S
C1199 C1196 1.403 . S
C1199 C1200 1.524 . S
C1199 C1203 1.400 . S
C1200 H1185 0.960 . S
C1200 H1186 0.960 . S
C1200 H1187 0.960 . S
C1200 C1199 1.524 . S
C1201 C1198 1.403 . S
C1201 C1202 1.392 . S
C1201 C1205 1.495 . S
C1202 C1201 1.392 . S
C1202 C1203 1.385 . S
C1202 C1204 1.478 . S
C1203 H1197 0.930 . S
C1203 C1199 1.400 . S
C1203 C1202 1.385 . S
C1204 C1202 1.478 . S
C1204 C1206 1.381 . S
C1204 C1210 1.383 . S
C1205 C1201 1.495 . S
C1205 H1211 0.959 . S
C1205 H1212 0.961 . S
C1205 H1213 0.960 . S
C1206 C1204 1.381 . S
C1206 C1207 1.394 . S
C1206 H1214 0.930 . S
C1207 C1206 1.394 . S
C1207 C1208 1.383 . S
C1207 H1215 0.929 . S
C1208 C1207 1.383 . S
C1208 C1209 1.377 . S
C1209 H1193 0.930 . S
C1209 C1208 1.377 . S
C1209 C1210 1.379 . S
C1210 H1194 0.931 . S
C1210 C1204 1.383 . S
C1210 C1209 1.379 . S
H1211 C1205 0.959 . S
H1212 C1205 0.961 . S
H1213 C1205 0.960 . S
H1214 C1206 0.930 . S
H1215 C1207 0.929 . S
H1216 C1224 0.929 . S
H1217 C1226 0.930 . S
H1218 C1228 0.930 . S
H1219 C1231 0.929 . S
H1220 C1234 0.930 . S
H1221 C1236 0.960 . S
H1222 C1236 0.960 . S
H1223 C1236 0.960 . S
C1224 H1216 0.929 . S
C1224 C1225 1.377 . S
C1224 C1226 1.384 . S
C1225 C1224 1.377 . S
C1225 C1231 1.390 . S
C1226 H1217 0.930 . S
C1226 C1224 1.384 . S
C1226 C1227 1.372 . S
C1227 C1226 1.372 . S
C1227 C1228 1.400 . S
C1227 C1232 1.490 . S
C1228 H1218 0.930 . S
C1228 C1227 1.400 . S
C1228 C1231 1.386 . S
H1229 C1245 0.930 . S
H1230 C1246 0.931 . S
C1231 H1219 0.929 . S
C1231 C1225 1.390 . S
C1231 C1228 1.386 . S
C1232 C1227 1.490 . S
C1232 C1234 1.395 . S
C1232 C1235 1.403 . S
H1233 C1239 0.930 . S
C1234 H1220 0.930 . S
C1234 C1232 1.395 . S
C1234 C1237 1.403 . S
C1235 C1232 1.403 . S
C1235 C1236 1.524 . S
C1235 C1239 1.400 . S
C1236 H1221 0.960 . S
C1236 H1222 0.960 . S
C1236 H1223 0.960 . S
C1236 C1235 1.524 . S
C1237 C1234 1.403 . S
C1237 C1238 1.392 . S
C1237 C1241 1.495 . S
C1238 C1237 1.392 . S
C1238 C1239 1.385 . S
C1238 C1240 1.478 . S
C1239 H1233 0.930 . S
C1239 C1235 1.400 . S
C1239 C1238 1.385 . S
C1240 C1238 1.478 . S
C1240 C1242 1.381 . S
C1240 C1246 1.383 . S
C1241 C1237 1.495 . S
C1241 H1247 0.959 . S
C1241 H1248 0.961 . S
C1241 H1249 0.960 . S
C1242 C1240 1.381 . S
C1242 C1243 1.394 . S
C1242 H1250 0.930 . S
C1243 C1242 1.394 . S
C1243 C1244 1.383 . S
C1243 H1251 0.929 . S
C1244 C1243 1.383 . S
C1244 C1245 1.377 . S
C1245 H1229 0.930 . S
C1245 C1244 1.377 . S
C1245 C1246 1.379 . S
C1246 H1230 0.931 . S
C1246 C1240 1.383 . S
C1246 C1245 1.379 . S
H1247 C1241 0.959 . S
H1248 C1241 0.961 . S
H1249 C1241 0.960 . S
H1250 C1242 0.930 . S
H1251 C1243 0.929 . S
H1252 C1260 0.929 . S
H1253 C1262 0.930 . S
H1254 C1264 0.930 . S
H1255 C1267 0.929 . S
H1256 C1270 0.930 . S
H1257 C1272 0.960 . S
H1258 C1272 0.960 . S
H1259 C1272 0.960 . S
C1260 H1252 0.929 . S
C1260 C1261 1.377 . S
C1260 C1262 1.384 . S
C1261 C1260 1.377 . S
C1261 C1267 1.390 . S
C1262 H1253 0.930 . S
C1262 C1260 1.384 . S
C1262 C1263 1.372 . S
C1263 C1262 1.372 . S
C1263 C1264 1.400 . S
C1263 C1268 1.490 . S
C1264 H1254 0.930 . S
C1264 C1263 1.400 . S
C1264 C1267 1.386 . S
H1265 C1281 0.930 . S
H1266 C1282 0.931 . S
C1267 H1255 0.929 . S
C1267 C1261 1.390 . S
C1267 C1264 1.386 . S
C1268 C1263 1.490 . S
C1268 C1270 1.395 . S
C1268 C1271 1.403 . S
H1269 C1275 0.930 . S
C1270 H1256 0.930 . S
C1270 C1268 1.395 . S
C1270 C1273 1.403 . S
C1271 C1268 1.403 . S
C1271 C1272 1.524 . S
C1271 C1275 1.400 . S
C1272 H1257 0.960 . S
C1272 H1258 0.960 . S
C1272 H1259 0.960 . S
C1272 C1271 1.524 . S
C1273 C1270 1.403 . S
C1273 C1274 1.392 . S
C1273 C1277 1.495 . S
C1274 C1273 1.392 . S
C1274 C1275 1.385 . S
C1274 C1276 1.478 . S
C1275 H1269 0.930 . S
C1275 C1271 1.400 . S
C1275 C1274 1.385 . S
C1276 C1274 1.478 . S
C1276 C1278 1.381 . S
C1276 C1282 1.383 . S
C1277 C1273 1.495 . S
C1277 H1283 0.959 . S
C1277 H1284 0.961 . S
C1277 H1285 0.960 . S
C1278 C1276 1.381 . S
C1278 C1279 1.394 . S
C1278 H1286 0.930 . S
C1279 C1278 1.394 . S
C1279 C1280 1.383 . S
C1279 H1287 0.929 . S
C1280 C1279 1.383 . S
C1280 C1281 1.377 . S
C1281 H1265 0.930 . S
C1281 C1280 1.377 . S
C1281 C1282 1.379 . S
C1282 H1266 0.931 . S
C1282 C1276 1.383 . S
C1282 C1281 1.379 . S
H1283 C1277 0.959 . S
H1284 C1277 0.961 . S
H1285 C1277 0.960 . S
H1286 C1278 0.930 . S
H1287 C1279 0.929 . S
H1288 C1296 0.929 . S
H1289 C1298 0.930 . S
H1290 C1300 0.930 . S
H1291 C1303 0.929 . S
H1292 C1306 0.930 . S
H1293 C1308 0.960 . S
H1294 C1308 0.960 . S
H1295 C1308 0.960 . S
C1296 H1288 0.929 . S
C1296 C1297 1.377 . S
C1296 C1298 1.384 . S
C1297 C1296 1.377 . S
C1297 C1303 1.390 . S
C1298 H1289 0.930 . S
C1298 C1296 1.384 . S
C1298 C1299 1.372 . S
C1299 C1298 1.372 . S
C1299 C1300 1.400 . S
C1299 C1304 1.490 . S
C1300 H1290 0.930 . S
C1300 C1299 1.400 . S
C1300 C1303 1.386 . S
H1301 C1317 0.930 . S
H1302 C1318 0.931 . S
C1303 H1291 0.929 . S
C1303 C1297 1.390 . S
C1303 C1300 1.386 . S
C1304 C1299 1.490 . S
C1304 C1306 1.395 . S
C1304 C1307 1.403 . S
H1305 C1311 0.930 . S
C1306 H1292 0.930 . S
C1306 C1304 1.395 . S
C1306 C1309 1.403 . S
C1307 C1304 1.403 . S
C1307 C1308 1.524 . S
C1307 C1311 1.400 . S
C1308 H1293 0.960 . S
C1308 H1294 0.960 . S
C1308 H1295 0.960 . S
C1308 C1307 1.524 . S
C1309 C1306 1.403 . S
C1309 C1310 1.392 . S
C1309 C1313 1.495 . S
C1310 C1309 1.392 . S
C1310 C1311 1.385 . S
C1310 C1312 1.478 . S
C1311 H1305 0.930 . S
C1311 C1307 1.400 . S
C1311 C1310 1.385 . S
C1312 C1310 1.478 . S
C1312 C1314 1.381 . S
C1312 C1318 1.383 . S
C1313 C1309 1.495 . S
C1313 H1319 0.959 . S
C1313 H1320 0.961 . S
C1313 H1321 0.960 . S
C1314 C1312 1.381 . S
C1314 C1315 1.394 . S
C1314 H1322 0.930 . S
C1315 C1314 1.394 . S
C1315 C1316 1.383 . S
C1315 H1323 0.929 . S
C1316 C1315 1.383 . S
C1316 C1317 1.377 . S
C1317 H1301 0.930 . S
C1317 C1316 1.377 . S
C1317 C1318 1.379 . S
C1318 H1302 0.931 . S
C1318 C1312 1.383 . S
C1318 C1317 1.379 . S
H1319 C1313 0.959 . S
H1320 C1313 0.961 . S
H1321 C1313 0.960 . S
H1322 C1314 0.930 . S
H1323 C1315 0.929 . S
H1324 C1332 0.929 . S
H1325 C1334 0.930 . S
H1326 C1336 0.930 . S
H1327 C1339 0.929 . S
H1328 C1342 0.930 . S
H1329 C1344 0.960 . S
H1330 C1344 0.960 . S
H1331 C1344 0.960 . S
C1332 H1324 0.929 . S
C1332 C1333 1.377 . S
C1332 C1334 1.384 . S
C1333 C1332 1.377 . S
C1333 C1339 1.390 . S
C1334 H1325 0.930 . S
C1334 C1332 1.384 . S
C1334 C1335 1.372 . S
C1335 C1334 1.372 . S
C1335 C1336 1.400 . S
C1335 C1340 1.490 . S
C1336 H1326 0.930 . S
C1336 C1335 1.400 . S
C1336 C1339 1.386 . S
H1337 C1353 0.930 . S
H1338 C1354 0.931 . S
C1339 H1327 0.929 . S
C1339 C1333 1.390 . S
C1339 C1336 1.386 . S
C1340 C1335 1.490 . S
C1340 C1342 1.395 . S
C1340 C1343 1.403 . S
H1341 C1347 0.930 . S
C1342 H1328 0.930 . S
C1342 C1340 1.395 . S
C1342 C1345 1.403 . S
C1343 C1340 1.403 . S
C1343 C1344 1.524 . S
C1343 C1347 1.400 . S
C1344 H1329 0.960 . S
C1344 H1330 0.960 . S
C1344 H1331 0.960 . S
C1344 C1343 1.524 . S
C1345 C1342 1.403 . S
C1345 C1346 1.392 . S
C1345 C1349 1.495 . S
C1346 C1345 1.392 . S
C1346 C1347 1.385 . S
C1346 C1348 1.478 . S
C1347 H1341 0.930 . S
C1347 C1343 1.400 . S
C1347 C1346 1.385 . S
C1348 C1346 1.478 . S
C1348 C1350 1.381 . S
C1348 C1354 1.383 . S
C1349 C1345 1.495 . S
C1349 H1355 0.959 . S
C1349 H1356 0.961 . S
C1349 H1357 0.960 . S
C1350 C1348 1.381 . S
C1350 C1351 1.394 . S
C1350 H1358 0.930 . S
C1351 C1350 1.394 . S
C1351 C1352 1.383 . S
C1351 H1359 0.929 . S
C1352 C1351 1.383 . S
C1352 C1353 1.377 . S
C1353 H1337 0.930 . S
C1353 C1352 1.377 . S
C1353 C1354 1.379 . S
C1354 H1338 0.931 . S
C1354 C1348 1.383 . S
C1354 C1353 1.379 . S
H1355 C1349 0.959 . S
H1356 C1349 0.961 . S
H1357 C1349 0.960 . S
H1358 C1350 0.930 . S
H1359 C1351 0.929 . S
C217 C10 1.946 . S
C236 C36 1.948 . S
C253 C49 1.947 . S
C272 C23 1.951 . S
C289 C62 1.949 . S
C308 C88 1.934 . S
C325 C101 1.951 . S
C344 C75 1.943 . S
C361 C114 1.881 . S
C380 C140 1.883 . S
C397 C153 1.881 . S
C416 C127 1.887 . S
C433 C166 1.875 . S
C452 C192 1.889 . S
C469 C205 1.881 . S
C488 C179 1.884 . S
C505 C55 1.531 . S
C524 C3 1.514 . S
C541 C16 1.532 . S
C560 C68 1.546 . S
C577 C29 1.529 . S
C596 C81 1.545 . S
C613 C94 1.529 . S
C632 C42 1.541 . S
C649 C107 1.558 . S
C668 C159 1.559 . S
C685 C120 1.556 . S
C704 C172 1.549 . S
C721 C133 1.558 . S
C740 C185 1.553 . S
C757 C146 1.558 . S
C776 C198 1.559 . S
C793 C131 1.544 . S
C812 C1 1.532 . S
C829 C144 1.543 . S
C848 C14 1.520 . S
C865 C27 1.534 . S
C884 C105 1.535 . S
C901 C40 1.533 . S
C920 C118 1.543 . S
C937 C53 1.530 . S
C956 C183 1.538 . S
C973 C66 1.533 . S
C992 C196 1.534 . S
C1009 C79 1.528 . S
C1028 C157 1.544 . S
C1045 C170 1.542 . S
C1064 C92 1.533 . S
C1081 C5 1.890 . S
C1100 C200 1.836 . S
C1117 C161 1.831 . S
C1136 C18 1.884 . S
C1153 C31 1.890 . S
C1172 C174 1.824 . S
C1189 C187 1.823 . S
C1208 C44 1.888 . S
C1225 C122 1.825 . S
C1244 C57 1.885 . S
C1261 C70 1.891 . S
C1280 C135 1.830 . S
C1297 C148 1.827 . S
C1316 C83 1.889 . S
C1333 C109 1.826 . S
C1352 C96 1.885 . S
