# Generated by pormake.
# Topology yfx, (5)-cn, num edge types: 1
# Building blocks:
#     Node 0, Type 0, BuildingBlock: XOMCOT_clean_sbu_0, # of connection points: 5
#     Node 1, Type 0, BuildingBlock: XOMCOT_clean_sbu_0, # of connection points: 5
#     Node 2, Type 0, BuildingBlock: XOMCOT_clean_sbu_0, # of connection points: 5
#     Node 3, Type 0, BuildingBlock: XOMCOT_clean_sbu_0, # of connection points: 5
#     Node 4, Type 0, BuildingBlock: XOMCOT_clean_sbu_0, # of connection points: 5
#     Node 5, Type 0, BuildingBlock: XOMCOT_clean_sbu_0, # of connection points: 5
#     Node 6, Type 0, BuildingBlock: XOMCOT_clean_sbu_0, # of connection points: 5
#     Node 7, Type 0, BuildingBlock: XOMCOT_clean_sbu_0, # of connection points: 5
#     Edge 8, Type (0, 0), None
#     Edge 9, Type (0, 0), None
#     Edge 10, Type (0, 0), None
#     Edge 11, Type (0, 0), None
#     Edge 12, Type (0, 0), None
#     Edge 13, Type (0, 0), None
#     Edge 14, Type (0, 0), None
#     Edge 15, Type (0, 0), None
#     Edge 16, Type (0, 0), None
#     Edge 17, Type (0, 0), None
#     Edge 18, Type (0, 0), None
#     Edge 19, Type (0, 0), None
#     Edge 20, Type (0, 0), None
#     Edge 21, Type (0, 0), None
#     Edge 22, Type (0, 0), None
#     Edge 23, Type (0, 0), None
#     Edge 24, Type (0, 0), None
#     Edge 25, Type (0, 0), None
#     Edge 26, Type (0, 0), None
#     Edge 27, Type (0, 0), None
# Relax obj value: 0.083
# Max RMSD: 0.107
# Mean RMSD: 0.107
data_MOF--net-yfx--node1-XOMCOT_clean_sbu_0--edge1-none
_symmetry_space_group_name_H-M    P1
_symmetry_Int_Tables_number       1
_symmetry_cell_setting            triclinic
loop_
_symmetry_equiv_pos_as_xyz
'x, y, z'
_cell_length_a     18.312257
_cell_length_b     18.312343
_cell_length_c     14.413865
_cell_angle_alpha  89.996737
_cell_angle_beta   89.998288
_cell_angle_gamma 89.999675
loop_
_atom_site_label
_atom_site_type_symbol
_atom_site_fract_x
_atom_site_fract_y
_atom_site_fract_z
_atom_type_partial_charge
Co0 Co 0.23093 0.36975 0.07863 0.0
C1 C 0.37098 0.29199 1.03459 0.0
C2 C 0.37958 0.37361 0.14149 0.0
C3 C 0.44743 0.34695 0.12387 0.0
N4 N 0.33165 0.34036 0.0851 0.0
N5 N 0.44242 0.29615 0.05631 0.0
H6 H 0.3485 0.25516 0.98349 0.0
H7 H 0.36587 0.41464 0.19228 0.0
C8 C 0.25688 0.53175 1.02368 0.0
O9 O 0.20538 0.5404 0.96113 0.0
N10 N 0.12975 0.40436 0.0747 0.0
C11 C 0.06902 0.37006 0.04408 0.0
C12 C 1.01046 0.41799 0.04856 0.0
C13 C 0.10651 0.47204 0.09964 0.0
N14 N 0.03473 0.48197 0.08286 0.0
C15 C 0.20421 0.27986 0.92361 0.0
C16 C 0.30721 0.34293 0.80791 0.0
C17 C 0.28452 0.27124 0.79019 0.0
C18 C 0.23001 0.24128 0.84707 0.0
C19 C 0.28126 0.37932 0.88742 0.0
N20 N 0.23269 0.34618 0.94658 0.0
H21 H 0.16722 0.25233 0.97005 0.0
H22 H 0.30666 0.43036 0.90569 0.0
H23 H 0.06704 0.31482 1.0182 0.0
H24 H 0.14115 0.51379 0.12901 0.0
O25 O 0.20443 0.27476 0.13073 0.0
O26 O 0.22942 0.37416 0.21158 0.0
O27 O 0.26792 0.47051 0.06233 0.0
C28 C 0.21919 0.30405 0.21103 0.0
H29 H 0.49668 0.36358 0.15902 0.0
H30 H 0.95544 0.4078 1.02437 0.0
H31 H 0.34795 0.36874 0.76443 0.0
H32 H 0.2088 0.18696 0.8347 0.0
Co33 Co 0.66163 0.23094 0.07863 0.0
C34 C 0.73938 0.37099 1.0346 0.0
C35 C 0.65777 0.37957 0.14152 0.0
C36 C 0.68442 0.44743 0.1239 0.0
N37 N 0.69102 0.33165 0.08512 0.0
N38 N 0.73522 0.44243 0.05633 0.0
H39 H 0.77621 0.34852 0.98348 0.0
H40 H 0.61674 0.36585 0.19231 0.0
C41 C 0.49964 0.2569 1.02366 0.0
O42 O 0.49098 0.2054 0.96112 0.0
N43 N 0.62702 0.12975 0.07468 0.0
C44 C 0.66133 0.06903 0.04406 0.0
C45 C 0.6134 1.01047 0.04854 0.0
C46 C 0.55934 0.10651 0.0996 0.0
N47 N 0.54942 0.03473 0.08283 0.0
C48 C 0.75153 0.20423 0.9236 0.0
C49 C 0.68847 0.30723 0.80791 0.0
C50 C 0.76015 0.28454 0.79017 0.0
C51 C 0.79011 0.23004 0.84706 0.0
C52 C 0.65208 0.28128 0.88742 0.0
N53 N 0.68521 0.23271 0.94657 0.0
H54 H 0.77907 0.16723 0.97003 0.0
H55 H 0.60104 0.30668 0.90569 0.0
H56 H 0.71658 0.06704 1.0182 0.0
H57 H 0.51758 0.14115 0.12897 0.0
O58 O 0.75662 0.20442 0.13072 0.0
O59 O 0.65722 0.22941 0.21158 0.0
O60 O 0.56087 0.26793 0.06232 0.0
C61 C 0.72732 0.21918 0.21102 0.0
H62 H 0.66779 0.49667 0.15906 0.0
H63 H 0.62361 0.95545 1.02436 0.0
H64 H 0.66265 0.34797 0.76443 0.0
H65 H 0.84443 0.20882 0.83468 0.0
Co66 Co 0.80044 0.66163 0.07865 0.0
C67 C 0.66041 0.7394 1.03461 0.0
C68 C 0.65181 0.65779 0.14153 0.0
C69 C 0.58395 0.68444 0.12389 0.0
N70 N 0.69973 0.69104 0.08514 0.0
N71 N 0.58896 0.73523 0.05632 0.0
H72 H 0.68288 0.77623 0.98349 0.0
H73 H 0.66552 0.61676 0.19233 0.0
C74 C 0.77446 0.49965 1.02368 0.0
O75 O 0.82596 0.491 0.96113 0.0
N76 N 0.90162 0.62699 0.0747 0.0
C77 C 0.96236 0.66125 0.04403 0.0
C78 C 0.02089 0.61327 0.04846 0.0
C79 C 0.92481 0.55929 0.09962 0.0
N80 N 0.99656 0.54929 0.08268 0.0
C81 C 0.82718 0.75151 0.92361 0.0
C82 C 0.72417 0.68846 0.80793 0.0
C83 C 0.74688 0.76014 0.79018 0.0
C84 C 0.80139 0.79009 0.84706 0.0
C85 C 0.75011 0.65208 0.88745 0.0
N86 N 0.79868 0.6852 0.94659 0.0
H87 H 0.86419 0.77904 0.97003 0.0
H88 H 0.72468 0.60105 0.90574 0.0
H89 H 0.96438 0.7165 1.01818 0.0
H90 H 0.89016 0.51758 0.12908 0.0
O91 O 0.82698 0.75662 0.13073 0.0
O92 O 0.80197 0.65722 0.2116 0.0
O93 O 0.76343 0.56088 0.06235 0.0
C94 C 0.81221 0.72733 0.21104 0.0
H95 H 0.5347 0.6678 0.15904 0.0
H96 H 0.07593 0.62344 1.02432 0.0
H97 H 0.68342 0.66265 0.76446 0.0
H98 H 0.82262 0.8444 0.83466 0.0
Co99 Co 0.36975 0.80045 0.07861 0.0
C100 C 0.29196 0.66042 1.03461 0.0
C101 C 0.37357 0.65182 0.14153 0.0
C102 C 0.3469 0.58397 0.12392 0.0
N103 N 0.34033 0.69974 0.08512 0.0
N104 N 0.29609 0.58898 0.05637 0.0
H105 H 0.25514 0.68289 0.98348 0.0
H106 H 0.4146 0.66552 0.19231 0.0
C107 C 0.53174 0.77446 1.02365 0.0
O108 O 0.5404 0.82598 0.96112 0.0
N109 N 0.4044 0.90162 0.07465 0.0
C110 C 0.37015 0.96236 0.04396 0.0
C111 C 0.41813 0.02089 0.04839 0.0
C112 C 0.47209 0.92481 0.09958 0.0
N113 N 0.4821 0.99656 0.08263 0.0
C114 C 0.27986 0.82718 0.92359 0.0
C115 C 0.34291 0.72416 0.80791 0.0
C116 C 0.27124 0.74687 0.79017 0.0
C117 C 0.24128 0.80138 0.84705 0.0
C118 C 0.3793 0.75011 0.88742 0.0
N119 N 0.34618 0.79868 0.94656 0.0
H120 H 0.25234 0.86419 0.97001 0.0
H121 H 0.43034 0.72469 0.90569 0.0
H122 H 0.3149 0.96438 1.0181 0.0
H123 H 0.5138 0.89017 0.12906 0.0
O124 O 0.27477 0.82699 0.13071 0.0
O125 O 0.37417 0.80198 0.21157 0.0
O126 O 0.4705 0.76342 0.0623 0.0
C127 C 0.30407 0.81223 0.21102 0.0
H128 H 0.36352 0.53472 0.15909 0.0
H129 H 0.40796 0.07592 1.02423 0.0
H130 H 0.36873 0.68342 0.76444 0.0
H131 H 0.18696 0.8226 0.83466 0.0
Co132 Co 0.73093 0.86975 0.57864 0.0
C133 C 0.87097 0.792 0.53459 0.0
C134 C 0.87958 0.87362 0.64148 0.0
C135 C 0.94743 0.84695 0.62386 0.0
N136 N 0.83165 0.84037 0.5851 0.0
N137 N 0.94242 0.79615 0.55631 0.0
H138 H 0.84849 0.75516 0.48349 0.0
H139 H 0.86587 0.91464 0.69227 0.0
C140 C 0.75687 0.03176 0.52368 0.0
O141 O 0.70537 0.04041 0.46113 0.0
N142 N 0.62974 0.90436 0.57472 0.0
C143 C 0.56902 0.87006 0.54409 0.0
C144 C 0.51046 0.91799 0.54858 0.0
C145 C 0.60651 0.97204 0.59965 0.0
N146 N 0.53472 0.98197 0.58288 0.0
C147 C 0.7042 0.77986 0.42361 0.0
C148 C 0.80721 0.84293 0.30792 0.0
C149 C 0.78452 0.77125 0.29019 0.0
C150 C 0.73001 0.74129 0.34707 0.0
C151 C 0.78125 0.87932 0.38743 0.0
N152 N 0.73269 0.84618 0.44658 0.0
H153 H 0.66721 0.75233 0.47005 0.0
H154 H 0.80666 0.93036 0.4057 0.0
H155 H 0.56703 0.81482 0.51821 0.0
H156 H 0.64115 1.01379 0.62902 0.0
O157 O 0.70443 0.77475 0.63073 0.0
O158 O 0.72943 0.87417 0.71159 0.0
O159 O 0.76792 0.97051 0.56233 0.0
C160 C 0.71922 0.80406 0.71101 0.0
H161 H 0.99668 0.86358 0.65901 0.0
H162 H 0.45544 0.9078 0.52439 0.0
H163 H 0.84795 0.86875 0.26445 0.0
H164 H 0.7088 0.68696 0.3347 0.0
Co165 Co 0.16163 0.73094 0.57863 0.0
C166 C 0.23938 0.87099 0.5346 0.0
C167 C 0.15776 0.87957 0.64151 0.0
C168 C 0.18442 0.94743 0.62389 0.0
N169 N 0.19101 0.83165 0.58511 0.0
N170 N 0.23522 0.94243 0.55633 0.0
H171 H 0.27622 0.84852 0.48349 0.0
H172 H 0.11674 0.86586 0.6923 0.0
C173 C 0.99964 0.75689 0.52366 0.0
O174 O 0.99098 0.70539 0.46113 0.0
N175 N 0.12702 0.62975 0.5747 0.0
C176 C 0.16133 0.56903 0.54408 0.0
C177 C 0.1134 0.51046 0.54856 0.0
C178 C 0.05934 0.60651 0.59962 0.0
N179 N 0.04942 0.53473 0.58284 0.0
C180 C 0.25153 0.70422 0.4236 0.0
C181 C 0.18846 0.80723 0.30791 0.0
C182 C 0.26014 0.78454 0.29018 0.0
C183 C 0.29011 0.73004 0.34706 0.0
C184 C 0.15207 0.78127 0.38743 0.0
N185 N 0.18521 0.7327 0.44657 0.0
H186 H 0.27907 0.66723 0.47003 0.0
H187 H 0.10103 0.80668 0.4057 0.0
H188 H 0.21658 0.56704 0.51821 0.0
H189 H 0.01758 0.64115 0.62898 0.0
O190 O 0.25663 0.70443 0.63072 0.0
O191 O 0.15721 0.72941 0.71159 0.0
O192 O 0.06087 0.76793 0.56232 0.0
C193 C 0.22732 0.71921 0.711 0.0
H194 H 0.16779 0.99668 0.65906 0.0
H195 H 0.12361 0.45545 0.52437 0.0
H196 H 0.16264 0.84797 0.26444 0.0
H197 H 0.34443 0.70882 0.33468 0.0
Co198 Co 0.30045 0.16163 0.57865 0.0
C199 C 0.16041 0.2394 0.53461 0.0
C200 C 0.1518 0.15778 0.64152 0.0
C201 C 0.08395 0.18443 0.62389 0.0
N202 N 0.19973 0.19104 0.58514 0.0
N203 N 0.08896 0.23523 0.55632 0.0
H204 H 0.18289 0.27623 0.48349 0.0
H205 H 0.16551 0.11676 0.69232 0.0
C206 C 0.27447 0.99965 0.52368 0.0
O207 O 0.32597 0.991 0.46114 0.0
N208 N 0.40162 0.12699 0.57471 0.0
C209 C 0.46236 0.16125 0.54404 0.0
C210 C 0.52089 0.11327 0.54848 0.0
C211 C 0.42481 0.05929 0.59963 0.0
N212 N 0.49656 0.04929 0.58269 0.0
C213 C 0.32719 0.25151 0.42361 0.0
C214 C 0.22417 0.18846 0.30794 0.0
C215 C 0.24688 0.26013 0.29019 0.0
C216 C 0.30139 0.29009 0.34706 0.0
C217 C 0.25011 0.15207 0.38746 0.0
N218 N 0.29869 0.1852 0.44659 0.0
H219 H 0.36419 0.27904 0.47003 0.0
H220 H 0.22469 0.10104 0.40574 0.0
H221 H 0.46439 0.2165 0.51819 0.0
H222 H 0.39016 0.01759 0.6291 0.0
O223 O 0.32698 0.25663 0.63073 0.0
O224 O 0.30196 0.15721 0.71161 0.0
O225 O 0.26343 0.06088 0.56235 0.0
C226 C 0.31218 0.22732 0.71102 0.0
H227 H 0.03469 0.1678 0.65903 0.0
H228 H 0.57593 0.12344 0.52433 0.0
H229 H 0.18342 0.16265 0.26448 0.0
H230 H 0.32262 0.3444 0.33466 0.0
Co231 Co 0.86975 0.30045 0.57862 0.0
C232 C 0.79196 0.16042 0.53461 0.0
C233 C 0.87357 0.15182 0.64152 0.0
C234 C 0.8469 0.08397 0.62392 0.0
N235 N 0.84033 0.19974 0.58512 0.0
N236 N 0.79609 0.08898 0.55636 0.0
H237 H 0.75514 0.1829 0.48348 0.0
H238 H 0.91461 0.16552 0.6923 0.0
C239 C 0.03174 0.27447 0.52366 0.0
O240 O 0.0404 0.32598 0.46112 0.0
N241 N 0.9044 0.40162 0.57466 0.0
C242 C 0.87015 0.46236 0.54397 0.0
C243 C 0.91813 0.52089 0.54841 0.0
C244 C 0.97209 0.42481 0.59959 0.0
N245 N 0.9821 0.49656 0.58265 0.0
C246 C 0.77986 0.32718 0.42359 0.0
C247 C 0.84292 0.22417 0.30792 0.0
C248 C 0.77125 0.24687 0.29018 0.0
C249 C 0.74128 0.30138 0.34705 0.0
C250 C 0.87931 0.25012 0.38742 0.0
N251 N 0.84618 0.29869 0.44656 0.0
H252 H 0.75234 0.36419 0.47001 0.0
H253 H 0.93034 0.2247 0.4057 0.0
H254 H 0.8149 0.46439 0.51811 0.0
H255 H 1.01379 0.39017 0.62907 0.0
O256 O 0.77476 0.32699 0.63071 0.0
O257 O 0.87418 0.30198 0.71157 0.0
O258 O 0.9705 0.26343 0.56231 0.0
C259 C 0.80407 0.3122 0.711 0.0
H260 H 0.86352 0.03471 0.65908 0.0
H261 H 0.90796 0.57593 0.52425 0.0
H262 H 0.86873 0.18342 0.26445 0.0
H263 H 0.68697 0.3226 0.33466 0.0
loop_
_geom_bond_atom_site_label_1
_geom_bond_atom_site_label_2
_geom_bond_distance
_geom_bond_site_symmetry_2
_ccdc_geom_bond_type
Co0 N4 2.148 . S
Co0 N10 2.128 . S
Co0 N20 2.194 1_554 S
Co0 O25 2.351 . S
Co0 O26 2.155 . S
Co0 O27 2.096 . S
C1 N4 1.301 . S
C1 N5 1.328 . S
C1 H6 0.930 . S
C2 C3 1.333 . S
C2 N4 1.317 . S
C2 H7 0.930 . S
C3 C2 1.333 . S
C3 N5 1.350 . S
C3 H29 0.931 . S
N4 Co0 2.148 . S
N4 C1 1.301 . S
N4 C2 1.317 . S
N5 C1 1.328 . S
N5 C3 1.350 . S
H6 C1 0.930 . S
H7 C2 0.930 . S
C8 O9 1.224 1_554 S
C8 O27 1.247 . S
O9 C8 1.224 1_556 S
N10 Co0 2.128 . S
N10 C11 1.355 . S
N10 C13 1.311 . S
C11 N10 1.355 . S
C11 C12 1.363 1_554 S
C11 H23 0.929 1_554 S
C12 C11 1.363 1_556 S
C12 N14 1.375 1_556 S
C12 H30 0.931 1_455 S
C13 N10 1.311 . S
C13 N14 1.347 . S
C13 H24 0.929 . S
N14 C12 1.375 1_554 S
N14 C13 1.347 . S
C15 C18 1.365 . S
C15 N20 1.328 . S
C15 H21 0.929 . S
C16 C17 1.362 . S
C16 C19 1.378 . S
C16 H31 0.929 . S
C17 C16 1.362 . S
C17 C18 1.366 . S
C18 C15 1.365 . S
C18 C17 1.366 . S
C18 H32 0.930 . S
C19 C16 1.378 . S
C19 N20 1.315 . S
C19 H22 0.930 . S
N20 Co0 2.194 1_556 S
N20 C15 1.328 . S
N20 C19 1.315 . S
H21 C15 0.929 . S
H22 C19 0.930 . S
H23 C11 0.929 1_556 S
H24 C13 0.929 . S
O25 Co0 2.351 . S
O25 C28 1.244 . S
O26 Co0 2.155 . S
O26 C28 1.240 . S
O27 Co0 2.096 . S
O27 C8 1.247 . S
C28 O25 1.244 . S
C28 O26 1.240 . S
H29 C3 0.931 . S
H30 C12 0.931 1_655 S
H31 C16 0.929 . S
H32 C18 0.930 . S
Co33 N37 2.148 . S
Co33 N43 2.128 . S
Co33 N53 2.194 1_554 S
Co33 O58 2.351 . S
Co33 O59 2.155 . S
Co33 O60 2.096 . S
C34 N37 1.301 . S
C34 N38 1.328 . S
C34 H39 0.930 . S
C35 C36 1.333 . S
C35 N37 1.317 . S
C35 H40 0.930 . S
C36 C35 1.333 . S
C36 N38 1.350 . S
C36 H62 0.931 . S
N37 Co33 2.148 . S
N37 C34 1.301 . S
N37 C35 1.317 . S
N38 C34 1.328 . S
N38 C36 1.350 . S
H39 C34 0.930 . S
H40 C35 0.930 . S
C41 O42 1.224 1_554 S
C41 O60 1.247 . S
O42 C41 1.224 1_556 S
N43 Co33 2.128 . S
N43 C44 1.355 . S
N43 C46 1.311 . S
C44 N43 1.355 . S
C44 C45 1.363 1_554 S
C44 H56 0.929 1_554 S
C45 C44 1.363 1_556 S
C45 N47 1.375 1_556 S
C45 H63 0.931 1_545 S
C46 N43 1.311 . S
C46 N47 1.347 . S
C46 H57 0.929 . S
N47 C45 1.375 1_554 S
N47 C46 1.347 . S
C48 C51 1.365 . S
C48 N53 1.328 . S
C48 H54 0.929 . S
C49 C50 1.362 . S
C49 C52 1.378 . S
C49 H64 0.929 . S
C50 C49 1.362 . S
C50 C51 1.366 . S
C51 C48 1.365 . S
C51 C50 1.366 . S
C51 H65 0.930 . S
C52 C49 1.378 . S
C52 N53 1.315 . S
C52 H55 0.930 . S
N53 Co33 2.194 1_556 S
N53 C48 1.328 . S
N53 C52 1.315 . S
H54 C48 0.929 . S
H55 C52 0.930 . S
H56 C44 0.929 1_556 S
H57 C46 0.929 . S
O58 Co33 2.351 . S
O58 C61 1.244 . S
O59 Co33 2.155 . S
O59 C61 1.240 . S
O60 Co33 2.096 . S
O60 C41 1.247 . S
C61 O58 1.244 . S
C61 O59 1.240 . S
H62 C36 0.931 . S
H63 C45 0.931 1_565 S
H64 C49 0.929 . S
H65 C51 0.930 . S
Co66 N70 2.148 . S
Co66 N76 2.128 . S
Co66 N86 2.194 1_554 S
Co66 O91 2.351 . S
Co66 O92 2.155 . S
Co66 O93 2.096 . S
C67 N70 1.301 . S
C67 N71 1.328 . S
C67 H72 0.930 . S
C68 C69 1.333 . S
C68 N70 1.317 . S
C68 H73 0.930 . S
C69 C68 1.333 . S
C69 N71 1.350 . S
C69 H95 0.931 . S
N70 Co66 2.148 . S
N70 C67 1.301 . S
N70 C68 1.317 . S
N71 C67 1.328 . S
N71 C69 1.350 . S
H72 C67 0.930 . S
H73 C68 0.930 . S
C74 O75 1.224 1_554 S
C74 O93 1.247 . S
O75 C74 1.224 1_556 S
N76 Co66 2.128 . S
N76 C77 1.355 . S
N76 C79 1.311 . S
C77 N76 1.355 . S
C77 C78 1.363 1_554 S
C77 H89 0.929 1_554 S
C78 C77 1.363 1_556 S
C78 N80 1.375 1_556 S
C78 H96 0.931 1_655 S
C79 N76 1.311 . S
C79 N80 1.347 . S
C79 H90 0.929 . S
N80 C78 1.375 1_554 S
N80 C79 1.347 . S
C81 C84 1.365 . S
C81 N86 1.328 . S
C81 H87 0.929 . S
C82 C83 1.362 . S
C82 C85 1.378 . S
C82 H97 0.929 . S
C83 C82 1.362 . S
C83 C84 1.366 . S
C84 C81 1.365 . S
C84 C83 1.366 . S
C84 H98 0.930 . S
C85 C82 1.378 . S
C85 N86 1.315 . S
C85 H88 0.930 . S
N86 Co66 2.194 1_556 S
N86 C81 1.328 . S
N86 C85 1.315 . S
H87 C81 0.929 . S
H88 C85 0.930 . S
H89 C77 0.929 1_556 S
H90 C79 0.929 . S
O91 Co66 2.351 . S
O91 C94 1.244 . S
O92 Co66 2.155 . S
O92 C94 1.240 . S
O93 Co66 2.096 . S
O93 C74 1.247 . S
C94 O91 1.244 . S
C94 O92 1.240 . S
H95 C69 0.931 . S
H96 C78 0.931 1_455 S
H97 C82 0.929 . S
H98 C84 0.930 . S
Co99 N103 2.148 . S
Co99 N109 2.128 . S
Co99 N119 2.194 1_554 S
Co99 O124 2.351 . S
Co99 O125 2.155 . S
Co99 O126 2.096 . S
C100 N103 1.301 . S
C100 N104 1.328 . S
C100 H105 0.930 . S
C101 C102 1.333 . S
C101 N103 1.317 . S
C101 H106 0.930 . S
C102 C101 1.333 . S
C102 N104 1.350 . S
C102 H128 0.931 . S
N103 Co99 2.148 . S
N103 C100 1.301 . S
N103 C101 1.317 . S
N104 C100 1.328 . S
N104 C102 1.350 . S
H105 C100 0.930 . S
H106 C101 0.930 . S
C107 O108 1.224 1_554 S
C107 O126 1.247 . S
O108 C107 1.224 1_556 S
N109 Co99 2.128 . S
N109 C110 1.355 . S
N109 C112 1.311 . S
C110 N109 1.355 . S
C110 C111 1.363 1_554 S
C110 H122 0.929 1_554 S
C111 C110 1.363 1_556 S
C111 N113 1.375 1_556 S
C111 H129 0.931 1_565 S
C112 N109 1.311 . S
C112 N113 1.347 . S
C112 H123 0.929 . S
N113 C111 1.375 1_554 S
N113 C112 1.347 . S
C114 C117 1.365 . S
C114 N119 1.328 . S
C114 H120 0.929 . S
C115 C116 1.362 . S
C115 C118 1.378 . S
C115 H130 0.929 . S
C116 C115 1.362 . S
C116 C117 1.366 . S
C117 C114 1.365 . S
C117 C116 1.366 . S
C117 H131 0.930 . S
C118 C115 1.378 . S
C118 N119 1.315 . S
C118 H121 0.930 . S
N119 Co99 2.194 1_556 S
N119 C114 1.328 . S
N119 C118 1.315 . S
H120 C114 0.929 . S
H121 C118 0.930 . S
H122 C110 0.929 1_556 S
H123 C112 0.929 . S
O124 Co99 2.351 . S
O124 C127 1.244 . S
O125 Co99 2.155 . S
O125 C127 1.240 . S
O126 Co99 2.096 . S
O126 C107 1.247 . S
C127 O124 1.244 . S
C127 O125 1.240 . S
H128 C102 0.931 . S
H129 C111 0.931 1_545 S
H130 C115 0.929 . S
H131 C117 0.930 . S
Co132 N136 2.148 . S
Co132 N142 2.128 . S
Co132 N152 2.194 . S
Co132 O157 2.351 . S
Co132 O158 2.155 . S
Co132 O159 2.096 . S
C133 N136 1.301 . S
C133 N137 1.328 . S
C133 H138 0.930 . S
C134 C135 1.333 . S
C134 N136 1.317 . S
C134 H139 0.930 . S
C135 C134 1.333 . S
C135 N137 1.350 . S
C135 H161 0.931 1_655 S
N136 Co132 2.148 . S
N136 C133 1.301 . S
N136 C134 1.317 . S
N137 C133 1.328 . S
N137 C135 1.350 . S
H138 C133 0.930 . S
H139 C134 0.930 . S
C140 O141 1.224 1_545 S
C140 O159 1.247 1_545 S
O141 C140 1.224 1_565 S
N142 Co132 2.128 . S
N142 C143 1.355 . S
N142 C145 1.311 . S
C143 N142 1.355 . S
C143 C144 1.363 . S
C143 H155 0.929 . S
C144 C143 1.363 . S
C144 N146 1.375 . S
C144 H162 0.931 . S
C145 N142 1.311 . S
C145 N146 1.347 . S
C145 H156 0.929 . S
N146 C144 1.375 . S
N146 C145 1.347 . S
C147 C150 1.365 . S
C147 N152 1.328 . S
C147 H153 0.929 . S
C148 C149 1.362 . S
C148 C151 1.378 . S
C148 H163 0.929 . S
C149 C148 1.362 . S
C149 C150 1.366 . S
C150 C147 1.365 . S
C150 C149 1.366 . S
C150 H164 0.930 . S
C151 C148 1.378 . S
C151 N152 1.315 . S
C151 H154 0.930 . S
N152 Co132 2.194 . S
N152 C147 1.328 . S
N152 C151 1.315 . S
H153 C147 0.929 . S
H154 C151 0.930 . S
H155 C143 0.929 . S
H156 C145 0.929 . S
O157 Co132 2.351 . S
O157 C160 1.244 . S
O158 Co132 2.155 . S
O158 C160 1.240 . S
O159 Co132 2.096 . S
O159 C140 1.247 1_565 S
C160 O157 1.244 . S
C160 O158 1.240 . S
H161 C135 0.931 1_455 S
H162 C144 0.931 . S
H163 C148 0.929 . S
H164 C150 0.930 . S
Co165 N169 2.148 . S
Co165 N175 2.128 . S
Co165 N185 2.194 . S
Co165 O190 2.351 . S
Co165 O191 2.155 . S
Co165 O192 2.096 . S
C166 N169 1.301 . S
C166 N170 1.328 . S
C166 H171 0.930 . S
C167 C168 1.333 . S
C167 N169 1.317 . S
C167 H172 0.930 . S
C168 C167 1.333 . S
C168 N170 1.350 . S
C168 H194 0.931 1_565 S
N169 Co165 2.148 . S
N169 C166 1.301 . S
N169 C167 1.317 . S
N170 C166 1.328 . S
N170 C168 1.350 . S
H171 C166 0.930 . S
H172 C167 0.930 . S
C173 O174 1.224 1_655 S
C173 O192 1.247 1_655 S
O174 C173 1.224 1_455 S
N175 Co165 2.128 . S
N175 C176 1.355 . S
N175 C178 1.311 . S
C176 N175 1.355 . S
C176 C177 1.363 . S
C176 H188 0.929 . S
C177 C176 1.363 . S
C177 N179 1.375 . S
C177 H195 0.931 . S
C178 N175 1.311 . S
C178 N179 1.347 . S
C178 H189 0.929 . S
N179 C177 1.375 . S
N179 C178 1.347 . S
C180 C183 1.365 . S
C180 N185 1.328 . S
C180 H186 0.929 . S
C181 C182 1.362 . S
C181 C184 1.378 . S
C181 H196 0.929 . S
C182 C181 1.362 . S
C182 C183 1.366 . S
C183 C180 1.365 . S
C183 C182 1.366 . S
C183 H197 0.930 . S
C184 C181 1.378 . S
C184 N185 1.315 . S
C184 H187 0.930 . S
N185 Co165 2.194 . S
N185 C180 1.328 . S
N185 C184 1.315 . S
H186 C180 0.929 . S
H187 C184 0.930 . S
H188 C176 0.929 . S
H189 C178 0.929 . S
O190 Co165 2.351 . S
O190 C193 1.244 . S
O191 Co165 2.155 . S
O191 C193 1.240 . S
O192 Co165 2.096 . S
O192 C173 1.247 1_455 S
C193 O190 1.244 . S
C193 O191 1.240 . S
H194 C168 0.931 1_545 S
H195 C177 0.931 . S
H196 C181 0.929 . S
H197 C183 0.930 . S
Co198 N202 2.148 . S
Co198 N208 2.128 . S
Co198 N218 2.194 . S
Co198 O223 2.351 . S
Co198 O224 2.155 . S
Co198 O225 2.096 . S
C199 N202 1.301 . S
C199 N203 1.328 . S
C199 H204 0.930 . S
C200 C201 1.333 . S
C200 N202 1.317 . S
C200 H205 0.930 . S
C201 C200 1.333 . S
C201 N203 1.350 . S
C201 H227 0.931 1_455 S
N202 Co198 2.148 . S
N202 C199 1.301 . S
N202 C200 1.317 . S
N203 C199 1.328 . S
N203 C201 1.350 . S
H204 C199 0.930 . S
H205 C200 0.930 . S
C206 O207 1.224 1_565 S
C206 O225 1.247 1_565 S
O207 C206 1.224 1_545 S
N208 Co198 2.128 . S
N208 C209 1.355 . S
N208 C211 1.311 . S
C209 N208 1.355 . S
C209 C210 1.363 . S
C209 H221 0.929 . S
C210 C209 1.363 . S
C210 N212 1.375 . S
C210 H228 0.931 . S
C211 N208 1.311 . S
C211 N212 1.347 . S
C211 H222 0.929 . S
N212 C210 1.375 . S
N212 C211 1.347 . S
C213 C216 1.365 . S
C213 N218 1.328 . S
C213 H219 0.929 . S
C214 C215 1.362 . S
C214 C217 1.378 . S
C214 H229 0.929 . S
C215 C214 1.362 . S
C215 C216 1.366 . S
C216 C213 1.365 . S
C216 C215 1.366 . S
C216 H230 0.930 . S
C217 C214 1.378 . S
C217 N218 1.315 . S
C217 H220 0.930 . S
N218 Co198 2.194 . S
N218 C213 1.328 . S
N218 C217 1.315 . S
H219 C213 0.929 . S
H220 C217 0.930 . S
H221 C209 0.929 . S
H222 C211 0.929 . S
O223 Co198 2.351 . S
O223 C226 1.244 . S
O224 Co198 2.155 . S
O224 C226 1.240 . S
O225 Co198 2.096 . S
O225 C206 1.247 1_545 S
C226 O223 1.244 . S
C226 O224 1.240 . S
H227 C201 0.931 1_655 S
H228 C210 0.931 . S
H229 C214 0.929 . S
H230 C216 0.930 . S
Co231 N235 2.148 . S
Co231 N241 2.128 . S
Co231 N251 2.194 . S
Co231 O256 2.351 . S
Co231 O257 2.155 . S
Co231 O258 2.096 . S
C232 N235 1.301 . S
C232 N236 1.328 . S
C232 H237 0.930 . S
C233 C234 1.333 . S
C233 N235 1.317 . S
C233 H238 0.930 . S
C234 C233 1.333 . S
C234 N236 1.350 . S
C234 H260 0.931 1_545 S
N235 Co231 2.148 . S
N235 C232 1.301 . S
N235 C233 1.317 . S
N236 C232 1.328 . S
N236 C234 1.350 . S
H237 C232 0.930 . S
H238 C233 0.930 . S
C239 O240 1.224 1_455 S
C239 O258 1.247 1_455 S
O240 C239 1.224 1_655 S
N241 Co231 2.128 . S
N241 C242 1.355 . S
N241 C244 1.311 . S
C242 N241 1.355 . S
C242 C243 1.363 . S
C242 H254 0.929 . S
C243 C242 1.363 . S
C243 N245 1.375 . S
C243 H261 0.931 . S
C244 N241 1.311 . S
C244 N245 1.347 . S
C244 H255 0.929 . S
N245 C243 1.375 . S
N245 C244 1.347 . S
C246 C249 1.365 . S
C246 N251 1.328 . S
C246 H252 0.929 . S
C247 C248 1.362 . S
C247 C250 1.378 . S
C247 H262 0.929 . S
C248 C247 1.362 . S
C248 C249 1.366 . S
C249 C246 1.365 . S
C249 C248 1.366 . S
C249 H263 0.930 . S
C250 C247 1.378 . S
C250 N251 1.315 . S
C250 H253 0.930 . S
N251 Co231 2.194 . S
N251 C246 1.328 . S
N251 C250 1.315 . S
H252 C246 0.929 . S
H253 C250 0.930 . S
H254 C242 0.929 . S
H255 C244 0.929 . S
O256 Co231 2.351 . S
O256 C259 1.244 . S
O257 Co231 2.155 . S
O257 C259 1.240 . S
O258 Co231 2.096 . S
O258 C239 1.247 1_655 S
C259 O256 1.244 . S
C259 O257 1.240 . S
H260 C234 0.931 1_565 S
H261 C243 0.931 . S
H262 C247 0.929 . S
H263 C249 0.930 . S
C41 N5 1.040 . S
N38 C74 1.040 . S
N71 C107 1.040 . S
C8 N104 1.040 . S
C173 N137 1.040 . S
C206 N170 1.040 . S
N203 C239 1.040 . S
N236 C140 1.040 . S
C215 C28 1.899 . S
C61 C248 1.899 . S
C94 C149 1.899 . S
C127 C182 1.899 . S
C160 C83 1.901 . S
C193 C116 1.901 . S
C226 C17 1.901 . S
C50 C259 1.901 . S
N80 N14 2.441 1_655 S
N47 N113 2.441 1_545 S
N212 N146 2.441 1_545 S
N179 N245 2.441 1_455 S
