# Generated by pormake.
# Topology zfm, (5)-cn, num edge types: 1
# Building blocks:
#     Node 0, Type 0, BuildingBlock: BEQFEK_clean_sbu_0, # of connection points: 5
#     Node 1, Type 0, BuildingBlock: BEQFEK_clean_sbu_0, # of connection points: 5
#     Node 2, Type 0, BuildingBlock: BEQFEK_clean_sbu_0, # of connection points: 5
#     Node 3, Type 0, BuildingBlock: BEQFEK_clean_sbu_0, # of connection points: 5
#     Node 4, Type 0, BuildingBlock: BEQFEK_clean_sbu_0, # of connection points: 5
#     Node 5, Type 0, BuildingBlock: BEQFEK_clean_sbu_0, # of connection points: 5
#     Node 6, Type 0, BuildingBlock: BEQFEK_clean_sbu_0, # of connection points: 5
#     Node 7, Type 0, BuildingBlock: BEQFEK_clean_sbu_0, # of connection points: 5
#     Node 8, Type 0, BuildingBlock: BEQFEK_clean_sbu_0, # of connection points: 5
#     Node 9, Type 0, BuildingBlock: BEQFEK_clean_sbu_0, # of connection points: 5
#     Node 10, Type 0, BuildingBlock: BEQFEK_clean_sbu_0, # of connection points: 5
#     Node 11, Type 0, BuildingBlock: BEQFEK_clean_sbu_0, # of connection points: 5
#     Node 12, Type 0, BuildingBlock: BEQFEK_clean_sbu_0, # of connection points: 5
#     Node 13, Type 0, BuildingBlock: BEQFEK_clean_sbu_0, # of connection points: 5
#     Node 14, Type 0, BuildingBlock: BEQFEK_clean_sbu_0, # of connection points: 5
#     Node 15, Type 0, BuildingBlock: BEQFEK_clean_sbu_0, # of connection points: 5
#     Edge 16, Type (0, 0), BuildingBlock: MIFKUJ_clean_linker_0, # of connection points: 2
#     Edge 17, Type (0, 0), BuildingBlock: MIFKUJ_clean_linker_0, # of connection points: 2
#     Edge 18, Type (0, 0), BuildingBlock: MIFKUJ_clean_linker_0, # of connection points: 2
#     Edge 19, Type (0, 0), BuildingBlock: MIFKUJ_clean_linker_0, # of connection points: 2
#     Edge 20, Type (0, 0), BuildingBlock: MIFKUJ_clean_linker_0, # of connection points: 2
#     Edge 21, Type (0, 0), BuildingBlock: MIFKUJ_clean_linker_0, # of connection points: 2
#     Edge 22, Type (0, 0), BuildingBlock: MIFKUJ_clean_linker_0, # of connection points: 2
#     Edge 23, Type (0, 0), BuildingBlock: MIFKUJ_clean_linker_0, # of connection points: 2
#     Edge 24, Type (0, 0), BuildingBlock: MIFKUJ_clean_linker_0, # of connection points: 2
#     Edge 25, Type (0, 0), BuildingBlock: MIFKUJ_clean_linker_0, # of connection points: 2
#     Edge 26, Type (0, 0), BuildingBlock: MIFKUJ_clean_linker_0, # of connection points: 2
#     Edge 27, Type (0, 0), BuildingBlock: MIFKUJ_clean_linker_0, # of connection points: 2
#     Edge 28, Type (0, 0), BuildingBlock: MIFKUJ_clean_linker_0, # of connection points: 2
#     Edge 29, Type (0, 0), BuildingBlock: MIFKUJ_clean_linker_0, # of connection points: 2
#     Edge 30, Type (0, 0), BuildingBlock: MIFKUJ_clean_linker_0, # of connection points: 2
#     Edge 31, Type (0, 0), BuildingBlock: MIFKUJ_clean_linker_0, # of connection points: 2
#     Edge 32, Type (0, 0), BuildingBlock: MIFKUJ_clean_linker_0, # of connection points: 2
#     Edge 33, Type (0, 0), BuildingBlock: MIFKUJ_clean_linker_0, # of connection points: 2
#     Edge 34, Type (0, 0), BuildingBlock: MIFKUJ_clean_linker_0, # of connection points: 2
#     Edge 35, Type (0, 0), BuildingBlock: MIFKUJ_clean_linker_0, # of connection points: 2
#     Edge 36, Type (0, 0), BuildingBlock: MIFKUJ_clean_linker_0, # of connection points: 2
#     Edge 37, Type (0, 0), BuildingBlock: MIFKUJ_clean_linker_0, # of connection points: 2
#     Edge 38, Type (0, 0), BuildingBlock: MIFKUJ_clean_linker_0, # of connection points: 2
#     Edge 39, Type (0, 0), BuildingBlock: MIFKUJ_clean_linker_0, # of connection points: 2
#     Edge 40, Type (0, 0), BuildingBlock: MIFKUJ_clean_linker_0, # of connection points: 2
#     Edge 41, Type (0, 0), BuildingBlock: MIFKUJ_clean_linker_0, # of connection points: 2
#     Edge 42, Type (0, 0), BuildingBlock: MIFKUJ_clean_linker_0, # of connection points: 2
#     Edge 43, Type (0, 0), BuildingBlock: MIFKUJ_clean_linker_0, # of connection points: 2
#     Edge 44, Type (0, 0), BuildingBlock: MIFKUJ_clean_linker_0, # of connection points: 2
#     Edge 45, Type (0, 0), BuildingBlock: MIFKUJ_clean_linker_0, # of connection points: 2
#     Edge 46, Type (0, 0), BuildingBlock: MIFKUJ_clean_linker_0, # of connection points: 2
#     Edge 47, Type (0, 0), BuildingBlock: MIFKUJ_clean_linker_0, # of connection points: 2
#     Edge 48, Type (0, 0), BuildingBlock: MIFKUJ_clean_linker_0, # of connection points: 2
#     Edge 49, Type (0, 0), BuildingBlock: MIFKUJ_clean_linker_0, # of connection points: 2
#     Edge 50, Type (0, 0), BuildingBlock: MIFKUJ_clean_linker_0, # of connection points: 2
#     Edge 51, Type (0, 0), BuildingBlock: MIFKUJ_clean_linker_0, # of connection points: 2
#     Edge 52, Type (0, 0), BuildingBlock: MIFKUJ_clean_linker_0, # of connection points: 2
#     Edge 53, Type (0, 0), BuildingBlock: MIFKUJ_clean_linker_0, # of connection points: 2
#     Edge 54, Type (0, 0), BuildingBlock: MIFKUJ_clean_linker_0, # of connection points: 2
#     Edge 55, Type (0, 0), BuildingBlock: MIFKUJ_clean_linker_0, # of connection points: 2
# Relax obj value: 0.147
# Max RMSD: 0.197
# Mean RMSD: 0.197
data_MOF--net-zfm--node1-BEQFEK_clean_sbu_0--edge1-MIFKUJ_clean_linker_0
_symmetry_space_group_name_H-M    P1
_symmetry_Int_Tables_number       1
_symmetry_cell_setting            triclinic
loop_
_symmetry_equiv_pos_as_xyz
'x, y, z'
_cell_length_a     36.471212
_cell_length_b     36.479779
_cell_length_c     94.254278
_cell_angle_alpha  89.994997
_cell_angle_beta   89.995668
_cell_angle_gamma 89.964963
loop_
_atom_site_label
_atom_site_type_symbol
_atom_site_fract_x
_atom_site_fract_y
_atom_site_fract_z
_atom_type_partial_charge
Co0 Co 0.4488 0.07841 0.14857 0.0
Co1 Co 0.45287 0.07914 0.11518 0.0
C2 C 0.41747 0.01746 0.13052 0.0
O3 O 0.42484 0.03248 0.14238 0.0
O4 O 0.42723 0.03215 0.11885 0.0
C5 C 0.46517 0.04849 0.17601 0.0
O6 O 0.47823 0.02092 0.1686 0.0
C7 C 0.46695 0.05843 0.08529 0.0
C8 C 0.47292 0.11289 0.0753 0.0
C9 C 0.47346 0.07567 0.07234 0.0
N10 N 0.46263 0.08437 0.09531 0.0
N11 N 0.46614 0.11682 0.08924 0.0
C12 C 0.46773 0.01822 0.08843 0.0
H13 H 0.47628 0.01341 0.09957 0.0
H14 H 0.48682 0.00375 0.08116 0.0
H15 H 0.43978 0.0068 0.08701 0.0
C16 C 0.52882 0.08992 0.14519 0.0
N17 N 0.49501 0.08481 0.13981 0.0
N18 N 0.49708 0.0832 0.12589 0.0
C19 C 0.53253 0.08611 0.12198 0.0
C20 C 0.55386 0.09076 0.13409 0.0
C21 C 0.53668 0.09576 0.16061 0.0
H22 H 0.51373 0.11081 0.16567 0.0
H23 H 0.5396 0.06876 0.1659 0.0
H24 H 0.56246 0.11143 0.16211 0.0
O25 O 0.41554 0.11892 0.14371 0.0
O26 O 0.41778 0.11913 0.12018 0.0
H27 H 0.54034 0.10691 0.10099 0.0
H28 H 0.57553 0.07513 0.10661 0.0
C29 C 0.5458 0.0814 0.10705 0.0
H30 H 0.53075 0.05866 0.10192 0.0
H31 H 0.4641 0.14168 0.09466 0.0
O32 O 0.45231 0.07626 0.16956 0.0
C33 C 0.40519 0.13175 0.13182 0.0
Co34 Co 0.42521 0.45865 0.64672 0.0
Co35 Co 0.41155 0.46167 0.61366 0.0
C36 C 0.47864 0.42615 0.62638 0.0
O37 O 0.46945 0.43445 0.63901 0.0
O38 O 0.45885 0.43535 0.61581 0.0
C39 C 0.45443 0.44816 0.67489 0.0
O40 O 0.47927 0.42856 0.66823 0.0
C41 C 0.42856 0.47777 0.58391 0.0
C42 C 0.37388 0.47601 0.57385 0.0
C43 C 0.41075 0.48136 0.57096 0.0
N44 N 0.40341 0.47046 0.59394 0.0
N45 N 0.37079 0.46933 0.58786 0.0
C46 C 0.46842 0.4832 0.58701 0.0
H47 H 0.4828 0.45649 0.58608 0.0
H48 H 0.47209 0.49343 0.59801 0.0
H49 H 0.48084 0.50281 0.57939 0.0
C50 C 0.41865 0.5391 0.64303 0.0
N51 N 0.41763 0.50467 0.63789 0.0
N52 N 0.4107 0.50585 0.62419 0.0
C53 C 0.40608 0.54101 0.62024 0.0
C54 C 0.41128 0.56337 0.63201 0.0
C55 C 0.42968 0.54829 0.6579 0.0
H56 H 0.40582 0.54419 0.66504 0.0
H57 H 0.45194 0.52966 0.66142 0.0
H58 H 0.43925 0.57705 0.65882 0.0
O59 O 0.3835 0.42458 0.64335 0.0
O60 O 0.37332 0.42776 0.62017 0.0
H61 H 0.37343 0.53455 0.60154 0.0
H62 H 0.38521 0.58135 0.60539 0.0
C63 C 0.3954 0.5527 0.60558 0.0
H64 H 0.41946 0.55026 0.59845 0.0
H65 H 0.3464 0.46405 0.59327 0.0
O66 O 0.42943 0.464 0.66773 0.0
C67 C 0.3659 0.4146 0.63233 0.0
Co68 Co 0.04846 0.42233 0.14911 0.0
Co69 Co 0.04777 0.42378 0.11557 0.0
C70 C 0.08546 0.48216 0.13221 0.0
O71 O 0.07646 0.46671 0.14382 0.0
O72 O 0.07545 0.46914 0.12026 0.0
C73 C 0.06876 0.43097 0.17791 0.0
O74 O 0.1004 0.43825 0.17187 0.0
C75 C 0.03374 0.44805 0.08609 0.0
C76 C 0.03352 0.3951 0.07473 0.0
C77 C 0.02937 0.43251 0.0727 0.0
N78 N 0.04014 0.42101 0.09549 0.0
N79 N 0.04018 0.38948 0.0886 0.0
C80 C 0.02947 0.48744 0.09019 0.0
H81 H 0.02127 0.48968 0.1015 0.0
H82 H 0.00876 0.50114 0.08338 0.0
H83 H 0.05616 0.50161 0.08884 0.0
C84 C 0.96832 0.4197 0.14441 0.0
N85 N 0.00296 0.42081 0.1395 0.0
N86 N 0.00242 0.42149 0.12553 0.0
C87 C 0.96726 0.42071 0.12112 0.0
C88 C 0.94451 0.4196 0.13293 0.0
C89 C 0.95859 0.4211 0.15983 0.0
H90 H 0.97298 0.44447 0.16489 0.0
H91 H 0.92865 0.42417 0.1615 0.0
H92 H 0.96825 0.39561 0.16507 0.0
O93 O 0.07914 0.3794 0.14421 0.0
O94 O 0.07962 0.38164 0.12067 0.0
H95 H 0.97115 0.39812 0.10023 0.0
H96 H 0.92596 0.41426 0.10474 0.0
C97 C 0.95571 0.41981 0.10588 0.0
H98 H 0.96219 0.44652 0.10086 0.0
H99 H 0.04436 0.36405 0.0934 0.0
O100 O 0.0415 0.42291 0.17009 0.0
C101 C 0.08992 0.36701 0.13228 0.0
Co102 Co 0.10002 0.04518 0.64817 0.0
Co103 Co 0.09949 0.04552 0.61461 0.0
C104 C 0.04209 0.08474 0.63099 0.0
O105 O 0.05717 0.07525 0.64262 0.0
O106 O 0.05488 0.07442 0.61907 0.0
C107 C 0.06733 0.03098 0.67519 0.0
O108 O 0.03821 0.02441 0.6674 0.0
C109 C 0.07755 0.04021 0.58432 0.0
C110 C 0.12909 0.02099 0.57449 0.0
C111 C 0.09298 0.02972 0.57144 0.0
N112 N 0.10327 0.03712 0.59452 0.0
N113 N 0.13404 0.02588 0.58852 0.0
C114 C 0.04001 0.05542 0.58688 0.0
H115 H 0.04247 0.08195 0.59253 0.0
H116 H 0.0244 0.03636 0.59378 0.0
H117 H 0.02481 0.06024 0.57688 0.0
C118 C 0.09884 0.96499 0.64311 0.0
N119 N 0.10033 -0.00017 0.63844 0.0
N120 N 0.09873 -7e-05 0.62448 0.0
C121 C 0.09517 0.96513 0.61986 0.0
C122 C 0.09536 0.94181 0.63152 0.0
C123 C 0.10066 0.95408 0.6584 0.0
H124 H 0.11966 0.97241 0.66422 0.0
H125 H 0.07298 0.95658 0.66318 0.0
H126 H 0.11 0.92526 0.65953 0.0
O127 O 0.14419 0.07365 0.64374 0.0
O128 O 0.14287 0.07569 0.62019 0.0
H129 H 0.11293 0.95647 0.59853 0.0
H130 H 0.07576 0.92694 0.60388 0.0
C131 C 0.08721 0.95499 0.60478 0.0
H132 H 0.06726 0.97462 0.6002 0.0
H133 H 0.15838 0.02118 0.59405 0.0
O134 O 0.09735 0.03921 0.66911 0.0
C135 C 0.15749 0.08459 0.63199 0.0
Co136 Co 0.45408 0.41912 0.85576 0.0
Co137 Co 0.45528 0.4193 0.88924 0.0
C138 C 0.42451 0.48228 0.87322 0.0
O139 O 0.4319 0.46656 0.86149 0.0
O140 O 0.43278 0.46746 0.88505 0.0
C141 C 0.43419 0.43233 0.82735 0.0
O142 O 0.40372 0.44234 0.83371 0.0
C143 C 0.46102 0.43717 0.91986 0.0
C144 C 0.47921 0.38398 0.92861 0.0
C145 C 0.47117 0.41977 0.93239 0.0
N146 N 0.46367 0.41288 0.90917 0.0
N147 N 0.47425 0.38109 0.91451 0.0
C148 C 0.44602 0.47508 0.91812 0.0
H149 H 0.42032 0.47367 0.91188 0.0
H150 H 0.46596 0.49202 0.91212 0.0
H151 H 0.43983 0.48822 0.92845 0.0
C152 C 0.53333 0.40513 0.86033 0.0
N153 N 0.4991 0.41087 0.86522 0.0
N154 N 0.49998 0.41327 0.87914 0.0
C155 C 0.53502 0.41052 0.88353 0.0
C156 C 0.55741 0.40468 0.87179 0.0
C157 C 0.54231 0.3994 0.845 0.0
H158 H 0.52039 0.38307 0.83985 0.0
H159 H 0.54368 0.42642 0.83962 0.0
H160 H 0.56894 0.38506 0.8437 0.0
O161 O 0.418 0.38061 0.86028 0.0
O162 O 0.4188 0.38135 0.88384 0.0
H163 H 0.54587 0.39197 0.90464 0.0
H164 H 0.57571 0.42829 0.89876 0.0
C165 C 0.54718 0.4178 0.89845 0.0
H166 H 0.529 0.43837 0.90349 0.0
H167 H 0.47842 0.35746 0.90848 0.0
O168 O 0.46075 0.42071 0.83484 0.0
C169 C 0.40621 0.36899 0.87217 0.0
Co170 Co 0.07195 0.44941 0.3593 0.0
Co171 Co 0.07617 0.45516 0.39284 0.0
C172 C 0.01327 0.41857 0.37813 0.0
O173 O 0.02613 0.42607 0.36592 0.0
O174 O 0.02994 0.42801 0.38943 0.0
C175 C 0.04601 0.43757 0.33068 0.0
O176 O 0.01954 0.41972 0.33712 0.0
C177 C 0.05266 0.46991 0.4222 0.0
C178 C 0.10559 0.47682 0.43325 0.0
C179 C 0.06801 0.47663 0.43545 0.0
N180 N 0.07991 0.46601 0.41269 0.0
N181 N 0.11148 0.47013 0.41938 0.0
C182 C 0.01287 0.46978 0.41833 0.0
H183 H 0.00919 0.48015 0.40735 0.0
H184 H 0.99671 0.48696 0.42577 0.0
H185 H 0.00243 0.44124 0.41877 0.0
C186 C 0.08078 0.52963 0.36204 0.0
N187 N 0.07782 0.49597 0.36777 0.0
N188 N 0.07923 0.4986 0.3817 0.0
C189 C 0.08321 0.53416 0.38526 0.0
C190 C 0.08456 0.55493 0.37293 0.0
C191 C 0.08067 0.53701 0.34643 0.0
H192 H 0.10128 0.51921 0.34118 0.0
H193 H 0.05338 0.52986 0.34202 0.0
H194 H 0.08692 0.56612 0.34404 0.0
O195 O 0.11325 0.41667 0.36451 0.0
O196 O 0.11669 0.42117 0.38799 0.0
H197 H 0.10879 0.53901 0.40556 0.0
H198 H 0.08156 0.57843 0.40065 0.0
C199 C 0.0833 0.5481 0.4002 0.0
H200 H 0.05965 0.5364 0.40603 0.0
H201 H 0.13707 0.46839 0.41447 0.0
O202 O 0.07088 0.45287 0.33809 0.0
C203 C 0.12795 0.40777 0.37629 0.0
Co204 Co 0.05164 0.0736 0.85516 0.0
Co205 Co 0.04822 0.07335 0.88869 0.0
C206 C 0.08164 0.01127 0.87289 0.0
O207 O 0.0749 0.02712 0.86113 0.0
O208 O 0.07198 0.02555 0.88465 0.0
C209 C 0.0354 0.04513 0.82736 0.0
O210 O 0.02194 0.01718 0.83444 0.0
C211 C 0.03801 0.05449 0.9192 0.0
C212 C 0.02341 0.10869 0.92801 0.0
C213 C 0.02814 0.07224 0.93171 0.0
N214 N 0.03835 0.07929 0.9086 0.0
N215 N 0.02986 0.11163 0.914 0.0
C216 C 0.04976 0.01547 0.91741 0.0
H217 H 0.07549 0.01462 0.91119 0.0
H218 H 0.02843 0.00034 0.91139 0.0
H219 H 0.05478 0.00179 0.92772 0.0
C220 C 0.97153 0.08496 0.85891 0.0
N221 N 0.00564 0.08031 0.8641 0.0
N222 N 0.00407 0.07897 0.87806 0.0
C223 C 0.96875 0.08196 0.88214 0.0
C224 C 0.94704 0.08617 0.87016 0.0
C225 C 0.96259 0.08891 0.8435 0.0
H226 H 0.98469 0.10418 0.838 0.0
H227 H 0.96033 0.06128 0.83867 0.0
H228 H 0.93612 0.10344 0.842 0.0
O229 O 0.0857 0.11343 0.86015 0.0
O230 O 0.08455 0.11194 0.8837 0.0
H231 H 0.95996 0.10336 0.90296 0.0
H232 H 0.92618 0.0702 0.89752 0.0
C233 C 0.95572 0.07734 0.8971 0.0
H234 H 0.9716 0.05538 0.90241 0.0
H235 H 0.0282 0.13573 0.90807 0.0
O236 O 0.0482 0.07241 0.83412 0.0
C237 C 0.09695 0.12503 0.87212 0.0
Co238 Co 0.41777 0.05141 0.35582 0.0
Co239 Co 0.42175 0.04956 0.38924 0.0
C240 C 0.48012 0.08575 0.37229 0.0
O241 O 0.46386 0.07724 0.36079 0.0
O242 O 0.46722 0.07631 0.38431 0.0
C243 C 0.44549 0.03322 0.3284 0.0
O244 O 0.47372 0.02164 0.33581 0.0
C245 C 0.44587 0.03989 0.41911 0.0
C246 C 0.39298 0.02809 0.4296 0.0
C247 C 0.43019 0.03168 0.43218 0.0
N248 N 0.41911 0.04056 0.40926 0.0
N249 N 0.3876 0.03361 0.41564 0.0
C250 C 0.485 0.04936 0.41604 0.0
H251 H 0.48607 0.07603 0.41044 0.0
H252 H 0.49693 0.02831 0.4089 0.0
H253 H 0.50166 0.05159 0.42582 0.0
C254 C 0.40935 0.97123 0.36028 0.0
N255 N 0.41414 0.0056 0.36516 0.0
N256 N 0.418 0.00462 0.37904 0.0
C257 C 0.41712 0.96941 0.38337 0.0
C258 C 0.41125 0.94701 0.37164 0.0
C259 C 0.40098 0.96208 0.34514 0.0
H260 H 0.38485 0.98446 0.34019 0.0
H261 H 0.42705 0.95893 0.33921 0.0
H262 H 0.38535 0.93606 0.34436 0.0
O263 O 0.37675 0.08373 0.36115 0.0
O264 O 0.38 0.08281 0.38468 0.0
H265 H 0.39981 0.96081 0.40478 0.0
H266 H 0.43388 0.92844 0.39872 0.0
C267 C 0.42493 0.95747 0.39827 0.0
H268 H 0.44688 0.97476 0.40287 0.0
H269 H 0.36238 0.03256 0.41043 0.0
O270 O 0.41775 0.04613 0.33486 0.0
C271 C 0.36527 0.09428 0.37324 0.0
Co272 Co 0.55301 0.92979 0.85594 0.0
Co273 Co 0.55284 0.92591 0.88944 0.0
C274 C 0.58316 0.99069 0.87403 0.0
O275 O 0.57578 0.97651 0.86201 0.0
O276 O 0.57513 0.97432 0.88557 0.0
C277 C 0.54693 0.95976 0.82763 0.0
O278 O 0.55054 0.99136 0.83416 0.0
C279 C 0.53852 0.94611 0.91924 0.0
C280 C 0.54145 0.89219 0.92986 0.0
C281 C 0.53557 0.92914 0.93241 0.0
N282 N 0.54588 0.92033 0.90944 0.0
N283 N 0.54779 0.88821 0.91588 0.0
C284 C 0.53202 0.9856 0.91576 0.0
H285 H 0.522 0.98839 0.9047 0.0
H286 H 0.51183 0.99789 0.92318 0.0
H287 H 0.55827 0.00076 0.9167 0.0
C288 C 0.47327 0.92077 0.86073 0.0
N289 N 0.50802 0.92222 0.86553 0.0
N290 N 0.50786 0.92033 0.87948 0.0
C291 C 0.47292 0.91738 0.88399 0.0
C292 C 0.44982 0.91772 0.87228 0.0
C293 C 0.46298 0.92618 0.8455 0.0
H294 H 0.47504 0.90377 0.83905 0.0
H295 H 0.47479 0.95239 0.84166 0.0
H296 H 0.43287 0.92677 0.84394 0.0
O297 O 0.5889 0.8903 0.86012 0.0
O298 O 0.58947 0.88873 0.88366 0.0
H299 H 0.4786 0.89334 0.90458 0.0
H300 H 0.43245 0.90713 0.90037 0.0
C301 C 0.4618 0.91454 0.89924 0.0
H302 H 0.46676 0.94117 0.90457 0.0
H303 H 0.5531 0.8635 0.9107 0.0
O304 O 0.54623 0.93041 0.83492 0.0
C305 C 0.60143 0.87754 0.87173 0.0
Co306 Co 0.58881 0.55115 0.35643 0.0
Co307 Co 0.57909 0.54838 0.38955 0.0
C308 C 0.52407 0.58568 0.37203 0.0
O309 O 0.54337 0.5789 0.36107 0.0
O310 O 0.5334 0.57384 0.38421 0.0
C311 C 0.56076 0.53583 0.32905 0.0
O312 O 0.53174 0.5268 0.33654 0.0
C313 C 0.55224 0.53547 0.4187 0.0
C314 C 0.60447 0.53096 0.43046 0.0
C315 C 0.56675 0.52989 0.43218 0.0
N316 N 0.58017 0.53973 0.40952 0.0
N317 N 0.61127 0.53716 0.41664 0.0
C318 C 0.51282 0.53438 0.41434 0.0
H319 H 0.50119 0.56244 0.41501 0.0
H320 H 0.51036 0.52482 0.4032 0.0
H321 H 0.49684 0.51601 0.4214 0.0
C322 C 0.5948 0.4706 0.36063 0.0
N323 N 0.59017 0.50495 0.36557 0.0
N324 N 0.58505 0.5037 0.3794 0.0
C325 C 0.58539 0.46839 0.38362 0.0
C326 C 0.59179 0.44634 0.37189 0.0
C327 C 0.59994 0.46111 0.34531 0.0
H328 H 0.61816 0.48148 0.34017 0.0
H329 H 0.57293 0.4618 0.33992 0.0
H330 H 0.61168 0.43327 0.34399 0.0
O331 O 0.63084 0.58141 0.36242 0.0
O332 O 0.61978 0.58315 0.38563 0.0
H333 H 0.60183 0.4677 0.40536 0.0
H334 H 0.58056 0.42575 0.39955 0.0
C335 C 0.57988 0.45605 0.39861 0.0
H336 H 0.55318 0.46642 0.40256 0.0
H337 H 0.63719 0.5394 0.41203 0.0
O338 O 0.58957 0.54628 0.33547 0.0
C339 C 0.63811 0.59322 0.37481 0.0
Co340 Co 0.95369 0.5791 0.85597 0.0
Co341 Co 0.95541 0.58326 0.88942 0.0
C342 C 0.91647 0.52279 0.8744 0.0
O343 O 0.92557 0.53602 0.8624 0.0
O344 O 0.92663 0.53783 0.88595 0.0
C345 C 0.92987 0.57132 0.82789 0.0
O346 O 0.89832 0.57141 0.83463 0.0
C347 C 0.96734 0.56318 0.91951 0.0
C348 C 0.97348 0.61774 0.92938 0.0
C349 C 0.9734 0.58057 0.93247 0.0
N350 N 0.96395 0.58896 0.90937 0.0
N351 N 0.9675 0.62148 0.91537 0.0
C352 C 0.96753 0.52291 0.91648 0.0
H353 H 0.97565 0.51778 0.90531 0.0
H354 H 0.98669 0.50838 0.9237 0.0
H355 H 0.93951 0.51184 0.91808 0.0
C356 C 0.03393 0.58149 0.86014 0.0
N357 N -0.00051 0.58171 0.86525 0.0
N358 N 0.00054 0.58285 0.8792 0.0
C359 C 0.03588 0.58317 0.88342 0.0
C360 C 0.05824 0.58235 0.87147 0.0
C361 C 0.04305 0.58135 0.84466 0.0
H362 H 0.02527 0.60126 0.83901 0.0
H363 H 0.03744 0.55372 0.84024 0.0
H364 H 0.0722 0.58852 0.84276 0.0
O365 O 0.92362 0.62287 0.85992 0.0
O366 O 0.92413 0.6254 0.88346 0.0
H367 H 0.03989 0.60736 0.90401 0.0
H368 H 0.07771 0.57727 0.89969 0.0
C369 C 0.04775 0.58152 0.89861 0.0
H370 H 0.03348 0.55861 0.90398 0.0
H371 H 0.9661 0.64627 0.90987 0.0
O372 O 0.95923 0.57459 0.83505 0.0
C373 C 0.91352 0.63778 0.87149 0.0
Co374 Co 0.92332 0.94885 0.3564 0.0
Co375 Co 0.92865 0.95713 0.3898 0.0
C376 C 0.98721 0.91919 0.37363 0.0
O377 O 0.96968 0.92419 0.36208 0.0
O378 O 0.9753 0.93182 0.38537 0.0
C379 C 0.94985 0.96102 0.32815 0.0
O380 O 0.979 0.973 0.33489 0.0
C381 C 0.95142 0.97015 0.41974 0.0
C382 C 0.89869 0.98679 0.42932 0.0
C383 C 0.93539 0.98128 0.43244 0.0
N384 N 0.92542 0.96977 0.40958 0.0
N385 N 0.89398 0.97956 0.41544 0.0
C386 C 0.98969 0.95661 0.41745 0.0
H387 H 0.98857 0.92966 0.41206 0.0
H388 H 0.00452 0.97596 0.41041 0.0
H389 H 0.00488 0.95314 0.42753 0.0
C390 C 0.91461 0.02966 0.35866 0.0
N391 N 0.91937 0.99622 0.36448 0.0
N392 N 0.9225 -0.00027 0.37835 0.0
C393 C 0.92056 0.03561 0.3817 0.0
C394 C 0.91513 0.05551 0.36938 0.0
C395 C 0.91009 0.03691 0.34315 0.0
H396 H 0.89289 0.01528 0.33826 0.0
H397 H 0.93743 0.03657 0.338 0.0
H398 H 0.8974 0.06416 0.34129 0.0
O399 O 0.88254 0.91747 0.36286 0.0
O400 O 0.88919 0.92073 0.38628 0.0
H401 H 0.90012 0.04604 0.40253 0.0
H402 H 0.93077 0.08084 0.39605 0.0
C403 C 0.92547 0.05088 0.39632 0.0
H404 H 0.94858 0.03686 0.4017 0.0
H405 H 0.86922 0.9813 0.40993 0.0
O406 O 0.92233 0.95012 0.33528 0.0
C407 C 0.87332 0.90778 0.37534 0.0
Co408 Co 0.54984 0.57357 0.14893 0.0
Co409 Co 0.54354 0.56901 0.11561 0.0
C410 C 0.57628 0.50794 0.132 0.0
O411 O 0.57078 0.52549 0.14349 0.0
O412 O 0.56622 0.52099 0.12007 0.0
C413 C 0.53281 0.54813 0.17684 0.0
O414 O 0.517 0.52124 0.16988 0.0
C415 C 0.53242 0.54839 0.0854 0.0
C416 C 0.51519 0.60162 0.07638 0.0
C417 C 0.52131 0.56526 0.07287 0.0
N418 N 0.53217 0.57359 0.09584 0.0
N419 N 0.52208 0.60534 0.09032 0.0
C420 C 0.54601 0.51 0.08731 0.0
H421 H 0.57198 0.51051 0.09339 0.0
H422 H 0.5256 0.49412 0.09351 0.0
H423 H 0.55122 0.49622 0.07703 0.0
C424 C 0.47032 0.58979 0.14586 0.0
N425 N 0.50351 0.58157 0.14043 0.0
N426 N 0.50052 0.5772 0.12662 0.0
C427 C 0.46505 0.58105 0.1229 0.0
C428 C 0.44475 0.58976 0.13492 0.0
C429 C 0.46366 0.59907 0.1611 0.0
H430 H 0.48801 0.61293 0.16566 0.0
H431 H 0.45867 0.57345 0.16714 0.0
H432 H 0.43933 0.61712 0.16225 0.0
O433 O 0.58541 0.61094 0.14291 0.0
O434 O 0.58149 0.60694 0.11946 0.0
H435 H 0.45194 0.59778 0.10176 0.0
H436 H 0.42134 0.56373 0.10891 0.0
C437 C 0.45036 0.57275 0.10841 0.0
H438 H 0.46677 0.55077 0.10335 0.0
H439 H 0.51973 0.62959 0.09613 0.0
O440 O 0.54754 0.57419 0.16994 0.0
C441 C 0.59577 0.62071 0.13059 0.0
Co442 Co 0.88762 0.5404 0.6485 0.0
Co443 Co 0.88632 0.53855 0.61497 0.0
C444 C 0.93902 0.58579 0.63047 0.0
O445 O 0.92614 0.57526 0.64235 0.0
O446 O 0.92713 0.57287 0.6188 0.0
C447 C 0.92229 0.53527 0.67575 0.0
O448 O 0.95243 0.53671 0.66813 0.0
C449 C 0.91087 0.52982 0.58532 0.0
C450 C 0.85908 0.51574 0.57448 0.0
C451 C 0.8962 0.52118 0.5721 0.0
N452 N 0.88362 0.52957 0.59496 0.0
N453 N 0.85272 0.52133 0.58838 0.0
C454 C 0.9504 0.53495 0.58908 0.0
H455 H 0.95531 0.52698 0.60028 0.0
H456 H 0.96829 0.51837 0.58204 0.0
H457 H 0.9577 0.5643 0.58785 0.0
C458 C 0.89249 0.46025 0.6442 0.0
N459 N 0.89109 0.49472 0.63914 0.0
N460 N 0.89184 0.49384 0.62519 0.0
C461 C 0.89476 0.45869 0.62091 0.0
C462 C 0.8949 0.43614 0.63282 0.0
C463 C 0.88911 0.45078 0.6596 0.0
H464 H 0.86899 0.46925 0.66476 0.0
H465 H 0.91608 0.45476 0.66482 0.0
H466 H 0.88022 0.42196 0.6611 0.0
O467 O 0.84067 0.56391 0.64419 0.0
O468 O 0.84026 0.56447 0.62061 0.0
H469 H 0.87326 0.4499 0.60009 0.0
H470 H 0.90985 0.41872 0.60485 0.0
C471 C 0.89976 0.44729 0.60577 0.0
H472 H 0.91994 0.46553 0.60059 0.0
H473 H 0.82735 0.51911 0.59342 0.0
O474 O 0.89142 0.5354 0.66948 0.0
C475 C 0.82563 0.57275 0.63249 0.0
Co476 Co 0.94819 0.90731 0.1481 0.0
Co477 Co 0.95146 0.9162 0.11478 0.0
C478 C 0.91158 0.97015 0.13219 0.0
O479 O 0.91943 0.95176 0.14327 0.0
O480 O 0.92332 0.96059 0.12001 0.0
C481 C 0.96358 0.93491 0.17575 0.0
O482 O 0.97451 0.96352 0.16841 0.0
C483 C 0.9594 0.94061 0.08475 0.0
C484 C 0.97883 0.88928 0.07481 0.0
C485 C 0.97043 0.92552 0.07186 0.0
N486 N 0.96176 0.9145 0.09482 0.0
N487 N 0.97321 0.88391 0.08875 0.0
C488 C 0.94441 0.9782 0.08738 0.0
H489 H 0.91884 0.9761 0.09367 0.0
H490 H 0.96454 0.99421 0.09366 0.0
H491 H 0.93814 0.9928 0.07735 0.0
C492 C 0.02889 0.90353 0.14408 0.0
N493 N 0.99453 0.90741 0.13906 0.0
N494 N 0.99592 0.91322 0.12529 0.0
C495 C 0.03129 0.91458 0.1212 0.0
C496 C 0.05343 0.908 0.13293 0.0
C497 C 0.0378 0.89378 0.15911 0.0
H498 H 0.01582 0.87638 0.16366 0.0
H499 H 0.03977 0.91925 0.16549 0.0
H500 H 0.06436 0.87902 0.15978 0.0
O501 O 0.9193 0.86473 0.14201 0.0
O502 O 0.91957 0.87294 0.11866 0.0
H503 H 0.04365 0.90078 0.09969 0.0
H504 H 0.07153 0.93725 0.10678 0.0
C505 C 0.04355 0.92535 0.10662 0.0
H506 H 0.02444 0.94588 0.10209 0.0
H507 H 0.97733 0.85932 0.09418 0.0
O508 O 0.95224 0.90669 0.16916 0.0
C509 C 0.90922 0.85524 0.12961 0.0
Co510 Co 0.57833 0.95918 0.64673 0.0
Co511 Co 0.59077 0.95534 0.61362 0.0
C512 C 0.52369 0.92372 0.62836 0.0
O513 O 0.53278 0.93572 0.64053 0.0
O514 O 0.54392 0.92902 0.61752 0.0
C515 C 0.56871 0.93927 0.67517 0.0
O516 O 0.56551 0.9072 0.66893 0.0
C517 C 0.57078 0.97112 0.58381 0.0
C518 C 0.62263 0.95872 0.57271 0.0
C519 C 0.5869 0.97033 0.57039 0.0
N520 N 0.59597 0.96075 0.59347 0.0
N521 N 0.62688 0.95343 0.58674 0.0
C522 C 0.53181 0.98 0.58747 0.0
H523 H 0.52478 0.97025 0.59823 0.0
H524 H 0.52798 0.01016 0.58735 0.0
H525 H 0.51287 0.96759 0.5796 0.0
C526 C 0.58422 0.03871 0.64052 0.0
N527 N 0.58593 0.00329 0.63655 0.0
N528 N 0.59277 0.00153 0.62286 0.0
C529 C 0.59716 0.03575 0.61779 0.0
C530 C 0.59133 0.06059 0.62874 0.0
C531 C 0.57218 0.05101 0.65494 0.0
H532 H 0.55229 0.03121 0.65945 0.0
H533 H 0.55932 0.07856 0.65455 0.0
H534 H 0.59641 0.05212 0.66205 0.0
O535 O 0.61833 0.92279 0.64362 0.0
O536 O 0.63006 0.92288 0.62048 0.0
H537 H 0.6207 0.07213 0.60214 0.0
H538 H 0.58381 0.04348 0.59591 0.0
C539 C 0.60827 0.04444 0.60287 0.0
H540 H 0.62843 0.02395 0.59906 0.0
H541 H 0.65085 0.94459 0.59173 0.0
O542 O 0.57469 0.96741 0.66754 0.0
C543 C 0.63636 0.91108 0.63295 0.0
H544 H 0.42491 0.09089 0.19407 0.0
H545 H 0.42201 0.08699 0.21988 0.0
H546 H 0.50158 -0.00064 0.21932 0.0
H547 H 0.50341 0.00215 0.19339 0.0
H548 H 0.45065 0.98303 0.23725 0.0
H549 H 0.52335 0.09013 0.22944 0.0
H550 H 0.53885 0.15055 0.21937 0.0
H551 H 0.44412 0.1978 0.23932 0.0
H552 H 0.42775 0.13753 0.24936 0.0
H553 H 0.49418 0.99708 0.31132 0.0
H554 H 0.49737 0.99834 0.28537 0.0
H555 H 0.40307 0.06962 0.28406 0.0
H556 H 0.39942 0.06826 0.30998 0.0
H557 H 0.46303 0.09383 0.26739 0.0
H558 H 0.39161 0.98455 0.27517 0.0
H559 H 0.37903 0.92385 0.28559 0.0
H560 H 0.47616 0.88056 0.26602 0.0
H561 H 0.48962 0.94119 0.25565 0.0
C562 C 0.44193 0.0709 0.19944 0.0
C563 C 0.46452 0.04692 0.19169 0.0
C564 C 0.44038 0.0688 0.21422 0.0
C565 C 0.46206 0.04331 0.22162 0.0
C566 C 0.48462 0.0193 0.21388 0.0
C567 C 0.48574 0.02099 0.19906 0.0
C568 C 0.46064 0.0413 0.23738 0.0
C569 C 0.45394 0.00721 0.24383 0.0
C570 C 0.4643 0.07289 0.24602 0.0
C571 C 0.47415 0.10923 0.24005 0.0
C572 C 0.50568 0.11335 0.2316 0.0
C573 C 0.51464 0.14758 0.22591 0.0
C574 C 0.49244 0.17797 0.22867 0.0
C575 C 0.46127 0.17422 0.23717 0.0
C576 C 0.45216 0.14004 0.24288 0.0
C577 C 0.474 0.01287 0.30551 0.0
C578 C 0.44655 0.03258 0.3127 0.0
C579 C 0.47582 0.01348 0.29069 0.0
C580 C 0.45041 0.03402 0.28283 0.0
C581 C 0.42294 0.05363 0.28996 0.0
C582 C 0.42082 0.05269 0.30476 0.0
C583 C 0.45295 0.03572 0.26715 0.0
C584 C 0.45988 0.06973 0.26076 0.0
C585 C 0.45 0.00403 0.2586 0.0
C586 C 0.44182 0.96751 0.26476 0.0
C587 C 0.41046 0.96217 0.27319 0.0
C588 C 0.40313 0.92776 0.27907 0.0
C589 C 0.42683 0.89839 0.2765 0.0
C590 C 0.45785 0.90335 0.26802 0.0
C591 C 0.46533 0.93773 0.26213 0.0
H592 H 0.42111 0.87177 0.28107 0.0
H593 H 0.49942 0.20445 0.22426 0.0
H594 H 0.49088 0.40907 0.81048 0.0
H595 H 0.4954 0.41319 0.78462 0.0
H596 H 0.38966 0.46616 0.78305 0.0
H597 H 0.38456 0.46136 0.8088 0.0
H598 H 0.39391 0.41601 0.76311 0.0
H599 H 0.47093 0.5145 0.7789 0.0
H600 H 0.52122 0.54303 0.79244 0.0
H601 H 0.59932 0.4738 0.77134 0.0
H602 H 0.5494 0.4445 0.7578 0.0
H603 H 0.40333 0.48032 0.6922 0.0
H604 H 0.40126 0.47925 0.71814 0.0
H605 H 0.50262 0.41835 0.71908 0.0
H606 H 0.50503 0.4194 0.69317 0.0
H607 H 0.50102 0.47273 0.73922 0.0
H608 H 0.42326 0.37435 0.72351 0.0
H609 H 0.37267 0.34661 0.70989 0.0
H610 H 0.29543 0.41698 0.7309 0.0
H611 H 0.34567 0.44553 0.74451 0.0
C612 C 0.46861 0.42162 0.80462 0.0
C613 C 0.43737 0.43492 0.81171 0.0
C614 C 0.4713 0.42413 0.78985 0.0
C615 C 0.44305 0.4404 0.78189 0.0
C616 C 0.41181 0.4535 0.78895 0.0
C617 C 0.40898 0.4508 0.80369 0.0
C618 C 0.44568 0.44332 0.76618 0.0
C619 C 0.41711 0.42889 0.75791 0.0
C620 C 0.47631 0.4594 0.75935 0.0
C621 C 0.50638 0.47706 0.76744 0.0
C622 C 0.4988 0.50517 0.77722 0.0
C623 C 0.52724 0.52151 0.78489 0.0
C624 C 0.56343 0.51017 0.78278 0.0
C625 C 0.57127 0.48252 0.77297 0.0
C626 C 0.54291 0.46606 0.76529 0.0
C627 C 0.42531 0.46689 0.69791 0.0
C628 C 0.45422 0.44972 0.6906 0.0
C629 C 0.42402 0.4662 0.71274 0.0
C630 C 0.45156 0.44833 0.72053 0.0
C631 C 0.48105 0.43221 0.71328 0.0
C632 C 0.4823 0.43276 0.69846 0.0
C633 C 0.44919 0.4456 0.73621 0.0
C634 C 0.47781 0.45996 0.74446 0.0
C635 C 0.41855 0.4296 0.74303 0.0
C636 C 0.38828 0.41233 0.73492 0.0
C637 C 0.39553 0.38412 0.72514 0.0
C638 C 0.36691 0.36821 0.71744 0.0
C639 C 0.33087 0.38009 0.7195 0.0
C640 C 0.32337 0.40784 0.7293 0.0
C641 C 0.3519 0.42388 0.73702 0.0
H642 H 0.30875 0.36774 0.71352 0.0
H643 H 0.58542 0.52285 0.78872 0.0
H644 H 0.1012 0.46364 0.31371 0.0
H645 H 0.10384 0.46329 0.28779 0.0
H646 H 0.99616 0.4145 0.28618 0.0
H647 H 0.99391 0.41356 0.31206 0.0
H648 H 0.03812 0.38161 0.26806 0.0
H649 H 0.01264 0.5077 0.27842 0.0
H650 H 0.02221 0.56775 0.28984 0.0
H651 H 0.12833 0.57619 0.27038 0.0
H652 H 0.11959 0.51593 0.25899 0.0
H653 H 0.00875 0.41352 0.19415 0.0
H654 H 0.00361 0.41564 0.22006 0.0
H655 H 0.11533 0.45359 0.22299 0.0
H656 H 0.12066 0.45175 0.19717 0.0
H657 H 0.06981 0.4926 0.24024 0.0
H658 H 0.09464 0.36547 0.23022 0.0
H659 H 0.08397 0.30567 0.21874 0.0
H660 H 0.97685 0.3001 0.23752 0.0
H661 H 0.9867 0.36013 0.24896 0.0
C662 C 0.07801 0.45297 0.30783 0.0
C663 C 0.04729 0.43876 0.31496 0.0
C664 C 0.07947 0.45295 0.29299 0.0
C665 C 0.04995 0.43936 0.28497 0.0
C666 C 0.01927 0.42518 0.29209 0.0
C667 C 0.01797 0.4248 0.30692 0.0
C668 C 0.05133 0.43913 0.26916 0.0
C669 C 0.04449 0.40607 0.26199 0.0
C670 C 0.06035 0.4708 0.26118 0.0
C671 C 0.06559 0.50714 0.26796 0.0
C672 C 0.03812 0.52224 0.27665 0.0
C673 C 0.04338 0.55633 0.28311 0.0
C674 C 0.07589 0.57573 0.28087 0.0
C675 C 0.10317 0.56111 0.27212 0.0
C676 C 0.09807 0.52701 0.26565 0.0
C677 C 0.03223 0.42232 0.20031 0.0
C678 C 0.06517 0.43232 0.19358 0.0
C679 C 0.02928 0.42341 0.21512 0.0
C680 C 0.0592 0.4345 0.22347 0.0
C681 C 0.0919 0.44496 0.21677 0.0
C682 C 0.09492 0.44374 0.20199 0.0
C683 C 0.0566 0.43515 0.23921 0.0
C684 C 0.06326 0.46826 0.24635 0.0
C685 C 0.04717 0.40361 0.24716 0.0
C686 C 0.04126 0.36747 0.24032 0.0
C687 C 0.06869 0.35163 0.23181 0.0
C688 C 0.06281 0.31767 0.22533 0.0
C689 C 0.02971 0.29915 0.22737 0.0
C690 C 0.00245 0.3145 0.23593 0.0
C691 C 0.00818 0.34848 0.24242 0.0
H692 H 0.02521 0.27285 0.22235 0.0
H693 H 0.07992 0.60211 0.28588 0.0
H694 H 0.07978 0.08536 0.81006 0.0
H695 H 0.08465 0.0821 0.78428 0.0
H696 H 0.99883 0.00067 0.78334 0.0
H697 H 0.99518 0.00258 0.80926 0.0
H698 H 0.04881 0.98078 0.76604 0.0
H699 H 0.98584 0.0942 0.77313 0.0
H700 H 0.9749 0.15574 0.78309 0.0
H701 H 0.07554 0.19412 0.76472 0.0
H702 H 0.08734 0.13266 0.75479 0.0
H703 H 0.01302 0.00111 0.69148 0.0
H704 H 0.0076 0.0025 0.71739 0.0
H705 H 0.10974 0.06149 0.72021 0.0
H706 H 0.11568 0.05979 0.69433 0.0
H707 H 0.05013 0.09266 0.73612 0.0
H708 H 0.11114 0.97669 0.72902 0.0
H709 H 0.1184 0.91515 0.71857 0.0
H710 H 0.01544 0.88201 0.73655 0.0
H711 H 0.00731 0.94357 0.74694 0.0
C712 C 0.06178 0.06692 0.80435 0.0
C713 C 0.03698 0.04433 0.81168 0.0
C714 C 0.06445 0.0652 0.78958 0.0
C715 C 0.04164 0.04162 0.78176 0.0
C716 C 0.01673 0.01912 0.78909 0.0
C717 C 0.01457 0.0203 0.8039 0.0
C718 C 0.04446 0.03976 0.766 0.0
C719 C 0.04849 0.00528 0.75952 0.0
C720 C 0.04469 0.07168 0.75741 0.0
C721 C 0.03763 0.10872 0.76333 0.0
C722 C 0.00577 0.11569 0.7713 0.0
C723 C 0.99939 0.15057 0.77692 0.0
C724 C 0.02455 0.1788 0.77457 0.0
C725 C 0.05609 0.17222 0.76655 0.0
C726 C 0.06262 0.13738 0.76091 0.0
C727 C 0.03444 0.0142 0.69762 0.0
C728 C 0.06479 0.03033 0.69087 0.0
C729 C 0.03132 0.0149 0.71241 0.0
C730 C 0.05829 0.03207 0.72068 0.0
C731 C 0.08864 0.04814 0.71399 0.0
C732 C 0.09205 0.04698 0.69922 0.0
C733 C 0.0545 0.03386 0.73632 0.0
C734 C 0.05028 0.06829 0.74273 0.0
C735 C 0.05348 0.00193 0.74481 0.0
C736 C 0.05844 0.96486 0.73863 0.0
C737 C 0.08989 0.95639 0.73064 0.0
C738 C 0.0942 0.92148 0.72475 0.0
C739 C 0.06735 0.89472 0.72686 0.0
C740 C 0.03619 0.90279 0.73491 0.0
C741 C 0.03173 0.93767 0.74081 0.0
H742 H 0.07074 0.86771 0.72229 0.0
H743 H 0.01956 0.20579 0.77894 0.0
H744 H 0.53993 0.8991 0.8107 0.0
H745 H 0.5419 0.89647 0.7848 0.0
H746 H 0.55418 0.01398 0.78304 0.0
H747 H 0.55171 0.01693 0.80893 0.0
H748 H 0.5073 0.9906 0.763 0.0
H749 H 0.62793 0.9577 0.77884 0.0
H750 H 0.6736 0.92274 0.79261 0.0
H751 H 0.63917 0.82317 0.77231 0.0
H752 H 0.59291 0.85748 0.75856 0.0
H753 H 0.57187 0.00129 0.6916 0.0
H754 H 0.56658 0.0054 0.71746 0.0
H755 H 0.55259 0.88817 0.7199 0.0
H756 H 0.55816 0.88376 0.69415 0.0
H757 H 0.60051 0.9121 0.73958 0.0
H758 H 0.47985 0.94533 0.72369 0.0
H759 H 0.4345 0.98057 0.70988 0.0
H760 H 0.46954 0.07994 0.73017 0.0
H761 H 0.51548 0.04533 0.74397 0.0
C762 C 0.54285 0.92443 0.80482 0.0
C763 C 0.54591 0.95821 0.81191 0.0
C764 C 0.54412 0.92286 0.79 0.0
C765 C 0.54876 0.95498 0.78197 0.0
C766 C 0.55071 0.98883 0.789 0.0
C767 C 0.54937 0.99044 0.80382 0.0
C768 C 0.55226 0.95323 0.76627 0.0
C769 C 0.52798 0.9738 0.75788 0.0
C770 C 0.57882 0.93079 0.75957 0.0
C771 C 0.60671 0.91011 0.76778 0.0
C772 C 0.6299 0.92831 0.7774 0.0
C773 C 0.65592 0.90862 0.78518 0.0
C774 C 0.65922 0.87075 0.78336 0.0
C775 C 0.63655 0.8525 0.77372 0.0
C776 C 0.61044 0.87206 0.76592 0.0
C777 C 0.56764 0.97639 0.69765 0.0
C778 C 0.56541 0.9422 0.6908 0.0
C779 C 0.56447 0.9788 0.71242 0.0
C780 C 0.55887 0.94711 0.72062 0.0
C781 C 0.5569 0.91297 0.71381 0.0
C782 C 0.56 0.91054 0.69906 0.0
C783 C 0.55546 0.94935 0.7363 0.0
C784 C 0.57981 0.9289 0.7447 0.0
C785 C 0.52903 0.97194 0.743 0.0
C786 C 0.50135 0.99279 0.73475 0.0
C787 C 0.47809 0.97474 0.72512 0.0
C788 C 0.45224 0.99459 0.71731 0.0
C789 C 0.44921 0.03249 0.71912 0.0
C790 C 0.47195 0.05059 0.72877 0.0
C791 C 0.49788 0.03087 0.73659 0.0
H792 H 0.42917 0.04781 0.71306 0.0
H793 H 0.67938 0.85555 0.7894 0.0
H794 H 0.50867 0.50407 0.31226 0.0
H795 H 0.5049 0.50522 0.28635 0.0
H796 H 0.60531 0.56739 0.28445 0.0
H797 H 0.60948 0.56617 0.31038 0.0
H798 H 0.54755 0.59666 0.26787 0.0
H799 H 0.60846 0.48121 0.27571 0.0
H800 H 0.61544 0.42007 0.28653 0.0
H801 H 0.51361 0.38584 0.26792 0.0
H802 H 0.50574 0.447 0.25715 0.0
H803 H 0.57839 0.5876 0.19397 0.0
H804 H 0.5835 0.58455 0.21975 0.0
H805 H 0.49623 0.50474 0.22101 0.0
H806 H 0.49207 0.50659 0.19511 0.0
H807 H 0.54718 0.48427 0.23823 0.0
H808 H 0.48411 0.59763 0.23076 0.0
H809 H 0.4734 0.65898 0.22059 0.0
H810 H 0.57396 0.69752 0.23898 0.0
H811 H 0.58552 0.63623 0.24911 0.0
C812 C 0.53007 0.51783 0.30634 0.0
C813 C 0.55938 0.53504 0.31337 0.0
C814 C 0.5279 0.51837 0.29154 0.0
C815 C 0.55488 0.5363 0.28351 0.0
C816 C 0.58422 0.55342 0.29048 0.0
C817 C 0.58663 0.55255 0.30528 0.0
C818 C 0.55202 0.53785 0.26784 0.0
C819 C 0.54798 0.57218 0.26134 0.0
C820 C 0.5514 0.50577 0.25944 0.0
C821 C 0.55635 0.46881 0.26574 0.0
C822 C 0.58742 0.46074 0.27401 0.0
C823 C 0.59156 0.42607 0.28012 0.0
C824 C 0.56493 0.39912 0.27795 0.0
C825 C 0.53418 0.40676 0.26961 0.0
C826 C 0.52989 0.44141 0.26349 0.0
C827 C 0.56013 0.56955 0.19974 0.0
C828 C 0.5347 0.54744 0.19252 0.0
C829 C 0.56298 0.56793 0.21451 0.0
C830 C 0.53985 0.54485 0.2224 0.0
C831 C 0.51438 0.52278 0.21518 0.0
C832 C 0.51193 0.52395 0.20038 0.0
C833 C 0.5427 0.54324 0.23814 0.0
C834 C 0.54672 0.50887 0.2447 0.0
C835 C 0.54276 0.5753 0.24663 0.0
C836 C 0.53585 0.61223 0.24058 0.0
C837 C 0.50407 0.61911 0.23255 0.0
C838 C 0.49783 0.65389 0.2268 0.0
C839 C 0.52303 0.6821 0.2291 0.0
C840 C 0.55448 0.67562 0.23719 0.0
C841 C 0.56088 0.64088 0.24295 0.0
H842 H 0.51814 0.70901 0.22464 0.0
H843 H 0.56817 0.3723 0.28271 0.0
H844 H 0.98362 0.5382 0.69245 0.0
H845 H 0.98652 0.54311 0.71829 0.0
H846 H 0.86847 0.53878 0.72049 0.0
H847 H 0.86528 0.53432 0.69464 0.0
H848 H 0.89495 0.59331 0.73658 0.0
H849 H 0.92131 0.46531 0.73013 0.0
H850 H 0.9542 0.412 0.72028 0.0
H851 H 0.05481 0.45061 0.73861 0.0
H852 H 0.02259 0.50445 0.74841 0.0
H853 H 0.87172 0.56371 0.80993 0.0
H854 H 0.87278 0.55702 0.7842 0.0
H855 H 0.99088 0.56325 0.78452 0.0
H856 H 0.99012 0.56951 0.81042 0.0
H857 H 0.96683 0.50901 0.76714 0.0
H858 H 0.94046 0.63624 0.774 0.0
H859 H 0.90775 0.68961 0.78388 0.0
H860 H 0.80753 0.65277 0.76472 0.0
H861 H 0.83954 0.59886 0.75488 0.0
C862 C 0.95826 0.53801 0.69843 0.0
C863 C 0.9242 0.53589 0.69146 0.0
C864 C 0.95998 0.5407 0.71322 0.0
C865 C 0.92772 0.54108 0.72135 0.0
C866 C 0.89372 0.53858 0.71443 0.0
C867 C 0.89196 0.5359 0.69965 0.0
C868 C 0.9293 0.54527 0.73702 0.0
C869 C 0.91027 0.57457 0.74328 0.0
C870 C 0.9502 0.5215 0.74573 0.0
C871 C 0.9696 0.48911 0.73988 0.0
C872 C 0.9505 0.4626 0.73196 0.0
C873 C 0.96901 0.43225 0.72641 0.0
C874 C 0.00659 0.42797 0.72878 0.0
C875 C 0.02571 0.45399 0.73676 0.0
C876 C 0.00734 0.48441 0.74232 0.0
C877 C 0.89798 0.56371 0.80457 0.0
C878 C 0.93084 0.56731 0.81225 0.0
C879 C 0.89851 0.56001 0.78983 0.0
C880 C 0.93188 0.5601 0.7824 0.0
C881 C 0.96481 0.5632 0.79003 0.0
C882 C 0.96432 0.5669 0.80482 0.0
C883 C 0.93216 0.55681 0.76669 0.0
C884 C 0.95159 0.52777 0.76043 0.0
C885 C 0.91166 0.58085 0.75796 0.0
C886 C 0.89234 0.61333 0.76381 0.0
C887 C 0.91138 0.63936 0.77198 0.0
C888 C 0.89298 0.66974 0.77756 0.0
C889 C 0.85557 0.67453 0.77496 0.0
C890 C 0.8365 0.649 0.76674 0.0
C891 C 0.85477 0.61855 0.76115 0.0
H892 H 0.84137 0.69807 0.77929 0.0
H893 H 0.02087 0.40446 0.72448 0.0
H894 H 0.90335 0.92211 0.31107 0.0
H895 H 0.90455 0.91774 0.28513 0.0
H896 H 0.99589 0.99261 0.28377 0.0
H897 H 0.9953 0.99671 0.30971 0.0
H898 H 0.937 0.00717 0.26349 0.0
H899 H 0.01506 0.90825 0.28007 0.0
H900 H 0.02828 0.85308 0.29431 0.0
H901 H 0.9402 0.79588 0.27375 0.0
H902 H 0.92612 0.85092 0.25953 0.0
H903 H 0.99729 0.98457 0.19305 0.0
H904 H 0.99382 0.98861 0.21888 0.0
H905 H 0.92357 0.89348 0.21978 0.0
H906 H 0.92808 0.88851 0.19396 0.0
H907 H 0.96904 0.88892 0.24058 0.0
H908 H 0.88989 0.98306 0.22377 0.0
H909 H 0.87137 0.03709 0.20977 0.0
H910 H 0.95321 0.10208 0.23071 0.0
H911 H 0.97258 0.0483 0.24471 0.0
C912 C 0.92358 0.9378 0.30525 0.0
C913 C 0.94935 0.95965 0.31244 0.0
C914 C 0.92426 0.9352 0.29045 0.0
C915 C 0.95041 0.95474 0.28257 0.0
C916 C 0.97551 0.97733 0.28968 0.0
C917 C 0.97522 0.97951 0.30449 0.0
C918 C 0.95221 0.95089 0.26692 0.0
C919 C 0.94442 0.98148 0.25844 0.0
C920 C 0.96062 0.917 0.2604 0.0
C921 C 0.96931 0.88381 0.26884 0.0
C922 C 0.99832 0.884 0.27867 0.0
C923 C 0.00601 0.85274 0.28672 0.0
C924 C 0.98503 0.82102 0.28496 0.0
C925 C 0.95639 0.82048 0.27511 0.0
C926 C 0.94857 0.85169 0.26705 0.0
C927 C 0.98121 0.96442 0.19875 0.0
C928 C 0.96281 0.93633 0.19145 0.0
C929 C 0.97904 0.9669 0.21353 0.0
C930 C 0.95778 0.94182 0.22131 0.0
C931 C 0.94004 0.91325 0.21405 0.0
C932 C 0.94262 0.91045 0.19927 0.0
C933 C 0.95414 0.94538 0.23699 0.0
C934 C 0.96152 0.91469 0.24553 0.0
C935 C 0.94456 0.97904 0.24356 0.0
C936 C 0.93292 0.01153 0.2352 0.0
C937 C 0.90413 0.0088 0.22532 0.0
C938 C 0.89344 0.03939 0.21739 0.0
C939 C 0.91116 0.07297 0.21932 0.0
C940 C 0.93954 0.07604 0.22921 0.0
C941 C 0.95036 0.04552 0.23716 0.0
H942 H 0.90285 0.09662 0.21317 0.0
H943 H 0.99101 0.79685 0.29121 0.0
H944 H 0.44372 0.01303 0.06074 0.0
H945 H 0.4546 0.98802 0.03706 0.0
H946 H 0.52723 0.07808 0.0277 0.0
H947 H 0.51696 0.10294 0.05147 0.0
H948 H 0.47942 0.06563 0.00619 0.0
H949 H 0.56155 0.99407 0.03492 0.0
H950 H 0.57837 0.95383 0.05491 0.0
H951 H 0.50413 0.87139 0.0397 0.0
H952 H 0.48646 0.91139 0.01972 0.0
H953 H 0.56034 0.9944 0.94331 0.0
H954 H 0.54878 0.01942 0.96695 0.0
H955 H 0.48257 0.92502 0.97714 0.0
H956 H 0.49441 0.89974 0.95354 0.0
H957 H 0.52664 0.9397 0.99832 0.0
H958 H 0.44427 0.01047 0.96964 0.0
H959 H 0.42648 0.05056 0.94972 0.0
H960 H 0.49954 0.13414 0.96484 0.0
H961 H 0.51817 0.09434 0.98474 0.0
C962 C 0.46276 0.02702 0.05381 0.0
C963 C 0.48027 0.05947 0.05815 0.0
C964 C 0.46868 0.01286 0.04021 0.0
C965 C 0.49209 0.03094 0.03067 0.0
C966 C 0.50913 0.06362 0.03489 0.0
C967 C 0.50327 0.07774 0.04849 0.0
C968 C 0.49847 0.01609 0.0162 0.0
C969 C 0.49018 0.03826 0.00446 0.0
C970 C 0.51165 0.98007 0.01395 0.0
C971 C 0.52242 0.95588 0.0259 0.0
C972 C 0.5486 0.96748 0.0359 0.0
C973 C 0.55832 0.94469 0.04722 0.0
C974 C 0.54226 0.91011 0.04859 0.0
C975 C 0.51651 0.89821 0.03863 0.0
C976 C 0.50665 0.92091 0.0273 0.0
C977 C 0.54268 0.97937 0.95047 0.0
C978 C 0.52761 0.94548 0.94646 0.0
C979 C 0.53622 0.99361 0.96402 0.0
C980 C 0.51431 0.9744 0.97378 0.0
C981 C 0.49948 0.94042 0.9698 0.0
C982 C 0.50618 0.92604 0.95631 0.0
C983 C 0.50756 0.98922 0.98825 0.0
C984 C 0.51581 0.96706 1.00002 0.0
C985 C 0.49418 0.0252 0.99052 0.0
C986 C 0.48287 0.04928 0.9786 0.0
C987 C 0.45675 0.0373 0.96866 0.0
C988 C 0.44648 0.05998 0.95738 0.0
C989 C 0.46194 0.09484 0.956 0.0
C990 C 0.48763 0.10712 0.96591 0.0
C991 C 0.49803 0.08452 0.9772 0.0
H992 H 0.45396 0.11236 0.94726 0.0
H993 H 0.54982 0.89251 0.05736 0.0
H994 H 0.50309 0.56182 0.44178 0.0
H995 H 0.47396 0.55332 0.46493 0.0
H996 H 0.55961 0.47788 0.47697 0.0
H997 H 0.5883 0.48551 0.4537 0.0
H998 H 0.4928 0.45298 0.48503 0.0
H999 H 0.5613 0.56517 0.48836 0.0
H1000 H 0.57989 0.6274 0.48113 0.0
H1001 H 0.46976 0.66584 0.48736 0.0
H1002 H 0.45038 0.60366 0.49445 0.0
H1003 H 0.47388 0.45295 0.55969 0.0
H1004 H 0.49808 0.46226 0.53577 0.0
H1005 H 0.40642 0.53252 0.52588 0.0
H1006 H 0.38229 0.52368 0.54993 0.0
H1007 H 0.47315 0.56058 0.51635 0.0
H1008 H 0.40544 0.44829 0.51396 0.0
H1009 H 0.38757 0.386 0.52137 0.0
H1010 H 0.49705 0.34767 0.51352 0.0
H1011 H 0.51573 0.40991 0.50627 0.0
C1012 C 0.51522 0.54275 0.44921 0.0
C1013 C 0.54765 0.52383 0.44583 0.0
C1014 C 0.49882 0.5383 0.46251 0.0
C1015 C 0.51475 0.51513 0.4727 0.0
C1016 C 0.54681 0.49583 0.46926 0.0
C1017 C 0.56324 0.50034 0.456 0.0
C1018 C 0.49858 0.5115 0.48708 0.0
C1019 C 0.48885 0.47646 0.49193 0.0
C1020 C 0.4927 0.54224 0.49597 0.0
C1021 C 0.50431 0.57968 0.49178 0.0
C1022 C 0.54098 0.58682 0.48808 0.0
C1023 C 0.55167 0.62209 0.48402 0.0
C1024 C 0.52599 0.65053 0.48374 0.0
C1025 C 0.48959 0.64377 0.48756 0.0
C1026 C 0.47875 0.60852 0.4916 0.0
C1027 C 0.45929 0.47101 0.55254 0.0
C1028 C 0.42654 0.48813 0.55674 0.0
C1029 C 0.47291 0.47595 0.53881 0.0
C1030 C 0.45393 0.49794 0.52904 0.0
C1031 C 0.42149 0.51549 0.53327 0.0
C1032 C 0.40771 0.51032 0.54697 0.0
C1033 C 0.46768 0.50205 0.51432 0.0
C1034 C 0.47694 0.53715 0.50942 0.0
C1035 C 0.47322 0.47135 0.50539 0.0
C1036 C 0.46207 0.43386 0.5097 0.0
C1037 C 0.42579 0.42666 0.51393 0.0
C1038 C 0.4155 0.39134 0.51808 0.0
C1039 C 0.44119 0.36291 0.51795 0.0
C1040 C 0.4772 0.36973 0.51364 0.0
C1041 C 0.48765 0.40502 0.50949 0.0
H1042 H 0.43316 0.33558 0.52116 0.0
H1043 H 0.53433 0.67782 0.4806 0.0
H1044 H 0.94382 0.51757 0.94401 0.0
H1045 H 0.95361 0.49313 0.96782 0.0
H1046 H 0.02352 0.58496 0.97772 0.0
H1047 H 0.0153 0.6086 0.95368 0.0
H1048 H 0.05265 0.52414 0.98783 0.0
H1049 H 0.93367 0.58008 0.9894 0.0
H1050 H 0.87007 0.59129 0.98164 0.0
H1051 H 0.84318 0.47853 0.98953 0.0
H1052 H 0.90678 0.46653 0.99716 0.0
H1053 H 0.05419 0.49894 0.06259 0.0
H1054 H 0.0432 0.52555 0.03916 0.0
H1055 H 0.97802 0.43151 0.02766 0.0
H1056 H 0.98805 0.40526 0.05121 0.0
H1057 H 0.94634 0.49457 0.01862 0.0
H1058 H 0.06597 0.43888 0.01672 0.0
H1059 H 0.1296 0.42819 0.02455 0.0
H1060 H 0.1551 0.54161 0.01745 0.0
H1061 H 0.09145 0.55309 0.00975 0.0
C1062 C 0.96207 0.53209 0.95108 0.0
C1063 C 0.97943 0.56466 0.9468 0.0
C1064 C 0.96712 0.5184 0.96482 0.0
C1065 C 0.98905 0.53737 0.97465 0.0
C1066 C 0.00652 0.56979 0.97036 0.0
C1067 C 0.00164 0.58336 0.95662 0.0
C1068 C 0.99372 0.52361 0.98941 0.0
C1069 C 0.02938 0.51817 0.99462 0.0
C1070 C 0.9634 0.51515 0.99822 0.0
C1071 C 0.92508 0.52234 0.99372 0.0
C1072 C 0.91426 0.55762 0.98938 0.0
C1073 C 0.8782 0.56412 0.98502 0.0
C1074 C 0.85262 0.53562 0.98506 0.0
C1075 C 0.86303 0.50057 0.98949 0.0
C1076 C 0.89907 0.49391 0.99385 0.0
C1077 C 0.03676 0.48434 0.05523 0.0
C1078 C 0.0215 0.45023 0.05886 0.0
C1079 C 0.03092 0.49936 0.04175 0.0
C1080 C 0.00999 0.4804 0.0316 0.0
C1081 C 0.99421 0.44667 0.03531 0.0
C1082 C 0.00011 0.43164 0.04875 0.0
C1083 C 0.00523 0.49511 0.017 0.0
C1084 C 0.96957 0.50068 0.01183 0.0
C1085 C 0.03554 0.50381 0.00824 0.0
C1086 C 0.07386 0.49692 0.0128 0.0
C1087 C 0.08507 0.4616 0.01693 0.0
C1088 C 0.12115 0.45539 0.02133 0.0
C1089 C 0.14635 0.48422 0.02154 0.0
C1090 C 0.13554 0.51931 0.0173 0.0
C1091 C 0.09947 0.52569 0.01291 0.0
H1092 H 0.17427 0.47936 0.02495 0.0
H1093 H 0.82472 0.54071 0.98167 0.0
H1094 H 0.12301 0.04728 0.54595 0.0
H1095 H 0.09598 0.03975 0.52235 0.0
H1096 H 0.9974 0.99649 0.54131 0.0
H1097 H 0.02494 0.00264 0.56487 0.0
H1098 H 0.0175 0.9561 0.51922 0.0
H1099 H 0.00096 0.08465 0.52787 0.0
H1100 H 0.02022 0.1474 0.5341 0.0
H1101 H 0.09355 0.14918 0.49847 0.0
H1102 H 0.07509 0.08623 0.49212 0.0
H1103 H 0.90508 0.96504 0.458 0.0
H1104 H 0.93146 0.97425 0.48158 0.0
H1105 H 0.02955 0.01854 0.4626 0.0
H1106 H 0.00249 0.01097 0.43901 0.0
H1107 H 0.00967 0.05855 0.48472 0.0
H1108 H 0.02633 0.92982 0.47615 0.0
H1109 H 0.00693 0.86711 0.46992 0.0
H1110 H 0.93332 0.86566 0.50547 0.0
H1111 H 0.95192 0.92859 0.5118 0.0
C1112 C 0.09547 0.0364 0.54507 0.0
C1113 C 0.07564 0.02663 0.55727 0.0
C1114 C 0.07998 0.03228 0.53159 0.0
C1115 C 0.04434 0.01824 0.53005 0.0
C1116 C 0.02475 0.0078 0.54224 0.0
C1117 C 0.0403 0.01184 0.55571 0.0
C1118 C 0.02789 0.01352 0.51573 0.0
C1119 C 0.01531 0.97864 0.51175 0.0
C1120 C 0.02585 0.04267 0.50584 0.0
C1121 C 0.03689 0.08059 0.5096 0.0
C1122 C 0.0214 0.09832 0.52142 0.0
C1123 C 0.03214 0.13394 0.52497 0.0
C1124 C 0.05816 0.15223 0.51671 0.0
C1125 C 0.07343 0.13497 0.50486 0.0
C1126 C 0.06281 0.09933 0.50128 0.0
C1127 C 0.93233 0.97663 0.45886 0.0
C1128 C 0.95221 0.98615 0.44663 0.0
C1129 C 0.94747 0.98169 0.47234 0.0
C1130 C 0.98288 0.9963 0.47388 0.0
C1131 C 0.0024 0.00675 0.46168 0.0
C1132 C 0.98715 0.00188 0.44819 0.0
C1133 C 0.99928 0.00113 0.48821 0.0
C1134 C 0.01186 0.03602 0.49219 0.0
C1135 C 0.00133 0.97197 0.49811 0.0
C1136 C 0.99028 0.93404 0.49437 0.0
C1137 C 0.00582 0.91623 0.48258 0.0
C1138 C 0.995 0.88063 0.47904 0.0
C1139 C 0.96885 0.86244 0.48728 0.0
C1140 C 0.95354 0.87979 0.49909 0.0
C1141 C 0.96424 0.91541 0.50267 0.0
H1142 H 0.9605 0.83489 0.48452 0.0
H1143 H 0.06644 0.17981 0.51947 0.0
H1144 H 0.49209 0.4984 0.06585 0.0
H1145 H 0.4834 0.47307 0.04204 0.0
H1146 H 0.52769 0.57204 0.02378 0.0
H1147 H 0.53702 0.59722 0.04759 0.0
H1148 H 0.46544 0.5502 0.01038 0.0
H1149 H 0.57906 0.49568 0.02508 0.0
H1150 H 0.61993 0.46089 0.04099 0.0
H1151 H 0.55127 0.36596 0.03671 0.0
H1152 H 0.50965 0.40038 0.02093 0.0
H1153 H 0.49825 0.48679 0.94024 0.0
H1154 H 0.50474 0.51107 0.96429 0.0
H1155 H 0.46096 0.41047 0.98135 0.0
H1156 H 0.45392 0.38625 0.95726 0.0
H1157 H 0.52169 0.4324 0.99554 0.0
H1158 H 0.40862 0.48659 0.98046 0.0
H1159 H 0.36785 0.52138 0.96452 0.0
H1160 H 0.43535 0.61691 0.96949 0.0
H1161 H 0.47688 0.58251 0.9853 0.0
C1162 C 0.50083 0.51436 0.05678 0.0
C1163 C 0.51634 0.5493 0.05857 0.0
C1164 C 0.49553 0.50001 0.04318 0.0
C1165 C 0.5054 0.52047 0.03115 0.0
C1166 C 0.52005 0.55573 0.03292 0.0
C1167 C 0.52543 0.57003 0.04651 0.0
C1168 C 0.50015 0.50529 0.01669 0.0
C1169 C 0.47809 0.52468 0.00707 0.0
C1170 C 0.51597 0.47155 0.01251 0.0
C1171 C 0.54102 0.45074 0.02195 0.0
C1172 C 0.5725 0.46748 0.02763 0.0
C1173 C 0.59583 0.44782 0.0366 0.0
C1174 C 0.58814 0.41127 0.03989 0.0
C1175 C 0.55715 0.39429 0.03417 0.0
C1176 C 0.53369 0.41386 0.0252 0.0
C1177 C 0.48911 0.47023 0.94909 0.0
C1178 C 0.47445 0.43509 0.94687 0.0
C1179 C 0.49313 0.48401 0.96283 0.0
C1180 C 0.48278 0.4628 0.9746 0.0
C1181 C 0.46891 0.42737 0.97242 0.0
C1182 C 0.46483 0.41362 0.95867 0.0
C1183 C 0.48707 0.47738 0.9892 0.0
C1184 C 0.50895 0.45788 0.99886 0.0
C1185 C 0.47109 0.51102 0.99341 0.0
C1186 C 0.44607 0.53185 0.98396 0.0
C1187 C 0.41495 0.51493 0.97806 0.0
C1188 C 0.39167 0.53459 0.96906 0.0
C1189 C 0.39906 0.5713 0.96596 0.0
C1190 C 0.42969 0.58845 0.97189 0.0
C1191 C 0.4531 0.56889 0.98088 0.0
H1192 H 0.38099 0.58649 0.959 0.0
H1193 H 0.60625 0.39609 0.04684 0.0
H1194 H 0.87912 0.47326 0.55105 0.0
H1195 H 0.90874 0.46619 0.52795 0.0
H1196 H 0.98487 0.5524 0.53853 0.0
H1197 H 0.95445 0.56054 0.56144 0.0
H1198 H 0.96004 0.56023 0.51198 0.0
H1199 H 0.01077 0.46229 0.53951 0.0
H1200 H 0.00897 0.40811 0.55514 0.0
H1201 H 0.95031 0.34792 0.52326 0.0
H1202 H 0.95122 0.40195 0.50752 0.0
H1203 H 0.08789 0.52323 0.4566 0.0
H1204 H 0.05891 0.53115 0.47985 0.0
H1205 H 0.97835 0.44927 0.46904 0.0
H1206 H 0.00761 0.44081 0.44589 0.0
H1207 H 0.0064 0.43933 0.49581 0.0
H1208 H 0.95515 0.53783 0.46848 0.0
H1209 H 0.95704 0.59216 0.45293 0.0
H1210 H 0.01747 0.65129 0.48461 0.0
H1211 H 0.01644 0.59709 0.50027 0.0
C1212 C 0.90222 0.49068 0.54847 0.0
C1213 C 0.91501 0.51682 0.55824 0.0
C1214 C 0.91926 0.48646 0.53529 0.0
C1215 C 0.9495 0.50828 0.53159 0.0
C1216 C 0.96185 0.53497 0.54121 0.0
C1217 C 0.94475 0.53923 0.5544 0.0
C1218 C 0.96785 0.50353 0.51762 0.0
C1219 C 0.97067 0.53391 0.50854 0.0
C1220 C 0.98102 0.469 0.51299 0.0
C1221 C 0.98077 0.43631 0.52238 0.0
C1222 C 0.99725 0.43759 0.53587 0.0
C1223 C 0.99641 0.4069 0.54475 0.0
C1224 C 0.97946 0.37463 0.54021 0.0
C1225 C 0.9634 0.37296 0.52677 0.0
C1226 C 0.96408 0.4036 0.51786 0.0
C1227 C 0.06389 0.50706 0.45917 0.0
C1228 C 0.04952 0.48203 0.4493 0.0
C1229 C 0.0473 0.51168 0.47242 0.0
C1230 C 0.01618 0.49113 0.47611 0.0
C1231 C 0.00216 0.46562 0.46637 0.0
C1232 C 0.01862 0.46116 0.45307 0.0
C1233 C 0.9985 0.496 0.49019 0.0
C1234 C 0.99582 0.46564 0.49928 0.0
C1235 C 0.98556 0.53055 0.49485 0.0
C1236 C 0.98605 0.56326 0.48549 0.0
C1237 C 0.96911 0.56231 0.47208 0.0
C1238 C 0.96998 0.5931 0.46326 0.0
C1239 C 0.98745 0.62512 0.46777 0.0
C1240 C 0.004 0.62645 0.48113 0.0
C1241 C 0.00326 0.59571 0.48999 0.0
H1242 H 0.98809 0.64894 0.46092 0.0
H1243 H 0.97883 0.35089 0.5471 0.0
H1244 H 0.99713 0.0064 0.93923 0.0
H1245 H 0.9875 0.98252 0.96316 0.0
H1246 H 0.03314 0.08167 0.98079 0.0
H1247 H 0.04465 0.10479 0.95683 0.0
H1248 H 0.05814 0.02459 0.99486 0.0
H1249 H 0.9393 0.06528 0.97975 0.0
H1250 H 0.88574 0.06891 0.96384 0.0
H1251 H 0.86743 0.95334 0.96877 0.0
H1252 H 0.9212 0.94893 0.98457 0.0
H1253 H 0.99624 0.99424 0.06536 0.0
H1254 H 0.00415 0.02098 0.04173 0.0
H1255 H 0.9634 0.92137 0.02276 0.0
H1256 H 0.95416 0.89509 0.04638 0.0
H1257 H 0.93535 0.98035 0.00965 0.0
H1258 H 0.05526 0.93987 0.02438 0.0
H1259 H 0.10865 0.93667 0.04039 0.0
H1260 H 0.12454 0.05281 0.03627 0.0
H1261 H 0.0709 0.05677 0.02039 0.0
C1262 C 0.00608 0.02266 0.94819 0.0
C1263 C 0.02264 0.05703 0.94614 0.0
C1264 C -0.0001 0.00929 0.96189 0.0
C1265 C 0.00929 0.03041 0.97382 0.0
C1266 C 0.02574 0.0648 0.97177 0.0
C1267 C 0.03217 0.07804 0.95808 0.0
C1268 C 0.00201 0.01674 0.98842 0.0
C1269 C 0.03115 0.01542 0.99814 0.0
C1270 C 0.96696 0.00411 0.99267 0.0
C1271 C 0.93448 0.00673 0.98324 0.0
C1272 C 0.924 0.0406 0.97737 0.0
C1273 C 0.89358 0.0428 0.96838 0.0
C1274 C 0.87325 0.01136 0.96527 0.0
C1275 C 0.88323 0.97766 0.97118 0.0
C1276 C 0.91366 0.9753 0.98016 0.0
C1277 C 0.98803 0.97844 0.05617 0.0
C1278 C 0.97377 0.94288 0.05772 0.0
C1279 C 0.9931 0.99352 0.04266 0.0
C1280 C 0.98461 0.97308 0.03046 0.0
C1281 C 0.97005 0.9377 0.03201 0.0
C1282 C 0.96492 0.92267 0.0455 0.0
C1283 C 0.9915 0.98811 0.01604 0.0
C1284 C 0.96229 0.98966 0.00636 0.0
C1285 C 0.02645 0.00105 0.01184 0.0
C1286 C 0.05885 0.99866 0.02131 0.0
C1287 C 0.06998 0.96476 0.02697 0.0
C1288 C 0.10031 0.96281 0.03601 0.0
C1289 C 0.11992 0.99453 0.03938 0.0
C1290 C 0.10929 0.02827 0.03368 0.0
C1291 C 0.07895 0.03038 0.02465 0.0
H1292 H 0.14339 0.99297 0.04638 0.0
H1293 H 0.84971 0.01312 0.95831 0.0
H1294 H 0.60793 0.94157 0.54504 0.0
H1295 H 0.58237 0.95363 0.52153 0.0
H1296 H 0.50406 0.02836 0.53985 0.0
H1297 H 0.53057 0.01817 0.56323 0.0
H1298 H 0.47375 0.9744 0.52038 0.0
H1299 H 0.56938 0.0647 0.52341 0.0
H1300 H 0.63248 0.08645 0.52749 0.0
H1301 H 0.67137 0.0182 0.49356 0.0
H1302 H 0.60852 0.9956 0.48941 0.0
H1303 H 0.4053 0.0558 0.45765 0.0
H1304 H 0.4326 0.04595 0.48106 0.0
H1305 H 0.52129 0.98543 0.46182 0.0
H1306 H 0.49388 0.99505 0.43838 0.0
H1307 H 0.54669 0.03176 0.48187 0.0
H1308 H 0.45291 0.94096 0.47856 0.0
H1309 H 0.39068 0.91693 0.47438 0.0
H1310 H 0.34923 0.98265 0.50861 0.0
H1311 H 0.41117 0.00751 0.51286 0.0
C1312 C 0.58532 0.96068 0.54411 0.0
C1313 C 0.57067 0.97798 0.55621 0.0
C1314 C 0.57074 0.96747 0.53065 0.0
C1315 C 0.54117 0.99165 0.529 0.0
C1316 C 0.52657 0.00918 0.54096 0.0
C1317 C 0.5415 0.00284 0.55441 0.0
C1318 C 0.52551 0.99863 0.51475 0.0
C1319 C 0.48945 0.98741 0.512 0.0
C1320 C 0.54649 0.01461 0.50375 0.0
C1321 C 0.5843 0.02814 0.50621 0.0
C1322 C 0.59144 0.05404 0.51691 0.0
C1323 C 0.62715 0.06659 0.51922 0.0
C1324 C 0.65594 0.05363 0.51082 0.0
C1325 C 0.64905 0.02816 0.50007 0.0
C1326 C 0.61338 0.01549 0.49773 0.0
C1327 C 0.43073 0.04056 0.45842 0.0
C1328 C 0.44792 0.0269 0.44618 0.0
C1329 C 0.44623 0.03485 0.47179 0.0
C1330 C 0.47891 0.01479 0.4732 0.0
C1331 C 0.49623 0.00124 0.46097 0.0
C1332 C 0.48072 0.007 0.44758 0.0
C1333 C 0.49473 0.00767 0.48746 0.0
C1334 C 0.53088 0.01877 0.49022 0.0
C1335 C 0.47393 0.99125 0.49845 0.0
C1336 C 0.43662 0.97639 0.49593 0.0
C1337 C 0.43047 0.95054 0.48512 0.0
C1338 C 0.39526 0.93672 0.48275 0.0
C1339 C 0.366 0.94833 0.4912 0.0
C1340 C 0.37191 0.97373 0.50206 0.0
C1341 C 0.40707 0.98768 0.50446 0.0
H1342 H 0.33876 0.93759 0.48936 0.0
H1343 H 0.68357 0.06339 0.51261 0.0
H1344 H 0.60027 0.13288 0.11818 0.0
H1345 H 0.66757 0.13072 0.11803 0.0
H1346 H 0.66558 0.05235 0.15227 0.0
H1347 H 0.59859 0.05321 0.15206 0.0
H1348 H 0.7229 0.10863 0.15424 0.0
H1349 H 0.66907 0.01957 0.12121 0.0
H1350 H 0.62969 0.00397 0.10081 0.0
H1351 H 0.6924 0.07596 0.07415 0.0
H1352 H 0.73176 0.09245 0.09449 0.0
H1353 H 0.86643 0.98416 0.1545 0.0
H1354 H 0.81267 0.02303 0.15469 0.0
H1355 H 0.83985 0.06298 0.11287 0.0
H1356 H 0.89314 0.02214 0.11229 0.0
H1357 H 0.77396 0.04319 0.11253 0.0
H1358 H 0.83775 0.12058 0.14422 0.0
H1359 H 0.87711 0.13705 0.16451 0.0
H1360 H 0.79818 0.0915 0.19333 0.0
H1361 H 0.75852 0.07432 0.17322 0.0
C1362 C 0.61429 0.11535 0.1257 0.0
C1363 C 0.59431 0.09291 0.13503 0.0
C1364 C 0.65262 0.11443 0.1257 0.0
C1365 C 0.67141 0.0914 0.13515 0.0
C1366 C 0.65152 0.07057 0.145 0.0
C1367 C 0.61327 0.07109 0.14487 0.0
C1368 C 0.71132 0.08537 0.13377 0.0
C1369 C 0.73435 0.09448 0.14514 0.0
C1370 C 0.72619 0.0681 0.12165 0.0
C1371 C 0.70303 0.05758 0.10939 0.0
C1372 C 0.67427 0.03226 0.11102 0.0
C1373 C 0.65198 0.02324 0.09947 0.0
C1374 C 0.65847 0.03905 0.0862 0.0
C1375 C 0.68735 0.0638 0.08444 0.0
C1376 C 0.70965 0.073 0.09598 0.0
C1377 C 0.86162 0.00182 0.14544 0.0
C1378 C 0.88394 -0.00026 0.13331 0.0
C1379 C 0.83085 0.02445 0.14563 0.0
C1380 C 0.8222 0.04646 0.13387 0.0
C1381 C 0.84585 0.04626 0.12208 0.0
C1382 C 0.87636 0.02297 0.12177 0.0
C1383 C 0.78606 0.06538 0.13325 0.0
C1384 C 0.76338 0.05854 0.12149 0.0
C1385 C 0.77175 0.08516 0.14497 0.0
C1386 C 0.79516 0.09607 0.15717 0.0
C1387 C 0.82882 0.11394 0.15488 0.0
C1388 C 0.85119 0.12341 0.16635 0.0
C1389 C 0.84017 0.11529 0.1802 0.0
C1390 C 0.80667 0.09782 0.1826 0.0
C1391 C 0.78417 0.0883 0.17116 0.0
H1392 H 0.85757 0.12255 0.18906 0.0
H1393 H 0.64117 0.03205 0.07727 0.0
H1394 H 0.47176 0.90866 0.6485 0.0
H1395 H 0.43407 0.85345 0.64965 0.0
H1396 H 0.4697 0.82311 0.60762 0.0
H1397 H 0.50664 0.87855 0.6062 0.0
H1398 H 0.40191 0.79706 0.61276 0.0
H1399 H 0.51934 0.80011 0.63596 0.0
H1400 H 0.56598 0.82315 0.65264 0.0
H1401 H 0.49397 0.80093 0.68766 0.0
H1402 H 0.44682 0.77784 0.67111 0.0
H1403 H 0.44613 0.60855 0.61351 0.0
H1404 H 0.44765 0.67551 0.6137 0.0
H1405 H 0.38249 0.67667 0.65187 0.0
H1406 H 0.37932 0.60931 0.65134 0.0
H1407 H 0.45263 0.71982 0.65145 0.0
H1408 H 0.33979 0.7044 0.62603 0.0
H1409 H 0.29996 0.67746 0.60766 0.0
H1410 H 0.37049 0.71986 0.57509 0.0
H1411 H 0.41108 0.7466 0.59327 0.0
C1412 C 0.47057 0.89091 0.6393 0.0
C1413 C 0.49295 0.89747 0.6274 0.0
C1414 C 0.44903 0.85936 0.63999 0.0
C1415 C 0.44998 0.83374 0.62889 0.0
C1416 C 0.4688 0.84241 0.61635 0.0
C1417 C 0.49004 0.87414 0.61558 0.0
C1418 C 0.43696 0.79577 0.63114 0.0
C1419 C 0.41275 0.78022 0.62127 0.0
C1420 C 0.45111 0.77386 0.6423 0.0
C1421 C 0.47944 0.78757 0.65229 0.0
C1422 C 0.51343 0.80022 0.64721 0.0
C1423 C 0.53995 0.81329 0.65664 0.0
C1424 C 0.5329 0.81361 0.6712 0.0
C1425 C 0.49936 0.80072 0.67636 0.0
C1426 C 0.47274 0.7876 0.66696 0.0
C1427 C 0.43149 0.62307 0.62178 0.0
C1428 C 0.41228 0.60387 0.63233 0.0
C1429 C 0.43251 0.66123 0.62191 0.0
C1430 C 0.41484 0.68084 0.63271 0.0
C1431 C 0.39608 0.66185 0.64341 0.0
C1432 C 0.39449 0.62354 0.64315 0.0
C1433 C 0.41787 0.72115 0.63301 0.0
C1434 C 0.44065 0.73701 0.64327 0.0
C1435 C 0.40315 0.74304 0.62202 0.0
C1436 C 0.37859 0.72735 0.61104 0.0
C1437 C 0.34696 0.70777 0.61496 0.0
C1438 C 0.32422 0.69256 0.60457 0.0
C1439 C 0.33272 0.6969 0.59022 0.0
C1440 C 0.36394 0.71653 0.58621 0.0
C1441 C 0.38679 0.73177 0.59656 0.0
H1442 H 0.31509 0.68509 0.58219 0.0
H1443 H 0.55345 0.82374 0.67849 0.0
H1444 H 0.8978 0.37171 0.14583 0.0
H1445 H 0.83041 0.37432 0.14619 0.0
H1446 H 0.83348 0.47279 0.12084 0.0
H1447 H 0.90061 0.47032 0.12058 0.0
H1448 H 0.7878 0.47955 0.14333 0.0
H1449 H 0.81121 0.39249 0.10599 0.0
H1450 H 0.83721 0.33608 0.09565 0.0
H1451 H 0.7764 0.27093 0.12541 0.0
H1452 H 0.75044 0.32703 0.13607 0.0
H1453 H 0.60865 0.47272 0.10951 0.0
H1454 H 0.66724 0.44068 0.11056 0.0
H1455 H 0.66215 0.44071 0.15624 0.0
H1456 H 0.60357 0.47277 0.15535 0.0
H1457 H 0.70787 0.38082 0.12438 0.0
H1458 H 0.73804 0.49067 0.16601 0.0
H1459 H 0.71179 0.54869 0.17491 0.0
H1460 H 0.66652 0.57108 0.13376 0.0
H1461 H 0.69322 0.51373 0.12456 0.0
C1462 C 0.88389 0.39385 0.14037 0.0
C1463 C 0.90407 0.4208 0.13316 0.0
C1464 C 0.84556 0.39521 0.14051 0.0
C1465 C 0.827 0.42362 0.13346 0.0
C1466 C 0.84728 0.45062 0.12632 0.0
C1467 C 0.8855 0.44914 0.12613 0.0
C1468 C 0.78645 0.42597 0.13372 0.0
C1469 C 0.77041 0.45782 0.13927 0.0
C1470 C 0.76373 0.39769 0.12836 0.0
C1471 C 0.7792 0.36397 0.12193 0.0
C1472 C 0.80363 0.36615 0.11041 0.0
C1473 C 0.81831 0.33424 0.10448 0.0
C1474 C 0.80855 0.29995 0.1099 0.0
C1475 C 0.78399 0.29751 0.12124 0.0
C1476 C 0.76927 0.32935 0.12723 0.0
C1477 C 0.61905 0.4645 0.11978 0.0
C1478 C 0.60209 0.47657 0.13236 0.0
C1479 C 0.65258 0.44597 0.12035 0.0
C1480 C 0.66936 0.43931 0.13348 0.0
C1481 C 0.64975 0.4461 0.146 0.0
C1482 C 0.61627 0.46459 0.14545 0.0
C1483 C 0.70955 0.43418 0.13409 0.0
C1484 C 0.72543 0.40211 0.12867 0.0
C1485 C 0.73235 0.46246 0.13938 0.0
C1486 C 0.71715 0.49765 0.14467 0.0
C1487 C 0.72257 0.50806 0.15887 0.0
C1488 C 0.70764 0.54084 0.16396 0.0
C1489 C 0.68729 0.56344 0.15493 0.0
C1490 C 0.68203 0.55344 0.14077 0.0
C1491 C 0.6971 0.52082 0.13561 0.0
H1492 H 0.67576 0.58875 0.15891 0.0
H1493 H 0.81993 0.27527 0.10529 0.0
H1494 H 0.94597 0.63874 0.65051 0.0
H1495 H 0.9798 0.69621 0.64859 0.0
H1496 H 0.02268 0.66265 0.608 0.0
H1497 H 0.98767 0.60516 0.60957 0.0
H1498 H 0.07396 0.69999 0.63259 0.0
H1499 H 0.97086 0.71275 0.60127 0.0
H1500 H 0.90658 0.71092 0.59329 0.0
H1501 H 0.87578 0.78373 0.62703 0.0
H1502 H 0.93972 0.78496 0.63554 0.0
H1503 H 0.12788 0.88731 0.61614 0.0
H1504 H 0.10907 0.82267 0.61484 0.0
H1505 H 0.02477 0.84335 0.64597 0.0
H1506 H 0.04287 0.90774 0.64701 0.0
H1507 H 0.99834 0.81005 0.6225 0.0
H1508 H 0.10119 0.79515 0.65436 0.0
H1509 H 0.16605 0.80013 0.66148 0.0
H1510 H 0.19793 0.73389 0.6259 0.0
H1511 H 0.13325 0.72893 0.61845 0.0
C1512 C 0.96313 0.64316 0.64128 0.0
C1513 C 0.96422 0.61743 0.63018 0.0
C1514 C 0.98227 0.67608 0.64019 0.0
C1515 C 0.00343 0.68355 0.62813 0.0
C1516 C 0.00634 0.6572 0.61736 0.0
C1517 C 0.98641 0.62449 0.61828 0.0
C1518 C 0.02055 0.71995 0.62666 0.0
C1519 C 0.05773 0.72409 0.63011 0.0
C1520 C 0.99902 0.7512 0.62365 0.0
C1521 C 0.96007 0.74848 0.61918 0.0
C1522 C 0.95028 0.72769 0.6072 0.0
C1523 C 0.91392 0.72695 0.60252 0.0
C1524 C 0.88715 0.74732 0.60961 0.0
C1525 C 0.8966 0.76814 0.6215 0.0
C1526 C 0.93286 0.76867 0.62631 0.0
C1527 C 0.10559 0.87777 0.62277 0.0
C1528 C 0.0868 0.90227 0.63168 0.0
C1529 C 0.09502 0.84095 0.62209 0.0
C1530 C 0.0656 0.82827 0.63034 0.0
C1531 C 0.04756 0.85261 0.63953 0.0
C1532 C 0.05808 0.88927 0.6402 0.0
C1533 C 0.05159 0.79042 0.6288 0.0
C1534 C 0.01483 0.786 0.6248 0.0
C1535 C 0.07357 0.75908 0.63127 0.0
C1536 C 0.11242 0.76205 0.63575 0.0
C1537 C 0.12206 0.78194 0.64798 0.0
C1538 C 0.15878 0.78469 0.65209 0.0
C1539 C 0.1861 0.76744 0.64412 0.0
C1540 C 0.17674 0.7473 0.63204 0.0
C1541 C 0.14005 0.74449 0.62788 0.0
H1542 H 0.21452 0.76959 0.64733 0.0
H1543 H 0.85904 0.74686 0.60593 0.0
H1544 H 0.60524 0.43864 0.85375 0.0
H1545 H 0.67222 0.43931 0.85517 0.0
H1546 H 0.66821 0.36814 0.89163 0.0
H1547 H 0.60116 0.36537 0.88972 0.0
H1548 H 0.70442 0.44845 0.89234 0.0
H1549 H 0.70757 0.32808 0.87157 0.0
H1550 H 0.69179 0.28057 0.854 0.0
H1551 H 0.7375 0.34669 0.82072 0.0
H1552 H 0.75325 0.39477 0.83809 0.0
H1553 H 0.89277 0.48302 0.89742 0.0
H1554 H 0.8383 0.44393 0.89846 0.0
H1555 H 0.82239 0.45807 0.85342 0.0
H1556 H 0.87734 0.4954 0.85217 0.0
H1557 H 0.798 0.394 0.86045 0.0
H1558 H 0.78439 0.51755 0.87921 0.0
H1559 H 0.79953 0.56815 0.89558 0.0
H1560 H 0.77047 0.50079 0.93119 0.0
H1561 H 0.75592 0.44951 0.91505 0.0
C1562 C 0.61861 0.42205 0.86175 0.0
C1563 C 0.59797 0.40201 0.87165 0.0
C1564 C 0.65684 0.42262 0.86259 0.0
C1565 C 0.67495 0.40364 0.87347 0.0
C1566 C 0.65459 0.38276 0.88313 0.0
C1567 C 0.61638 0.3815 0.88209 0.0
C1568 C 0.71456 0.40958 0.87564 0.0
C1569 C 0.72513 0.43589 0.88565 0.0
C1570 C 0.74111 0.39374 0.86664 0.0
C1571 C 0.73125 0.36517 0.85612 0.0
C1572 C 0.71388 0.33267 0.86049 0.0
C1573 C 0.70507 0.30558 0.85057 0.0
C1574 C 0.71354 0.31065 0.83625 0.0
C1575 C 0.73092 0.34281 0.83182 0.0
C1576 C 0.73986 0.36996 0.8417 0.0
C1577 C 0.87822 0.47693 0.88768 0.0
C1578 C 0.88899 0.49296 0.87477 0.0
C1579 C 0.84701 0.4547 0.8883 0.0
C1580 C 0.8256 0.44898 0.87609 0.0
C1581 C 0.83824 0.46224 0.86301 0.0
C1582 C 0.86971 0.48381 0.86233 0.0
C1583 C 0.788 0.43353 0.87702 0.0
C1584 C 0.77761 0.40579 0.86748 0.0
C1585 C 0.76133 0.44858 0.88629 0.0
C1586 C 0.76952 0.47959 0.89596 0.0
C1587 C 0.78143 0.51349 0.89054 0.0
C1588 C 0.78989 0.54228 0.89977 0.0
C1589 C 0.78599 0.53767 0.91441 0.0
C1590 C 0.77355 0.50428 0.91985 0.0
C1591 C 0.76524 0.47534 0.91068 0.0
H1592 H 0.79255 0.55999 0.92153 0.0
H1593 H 0.70672 0.28964 0.82859 0.0
H1594 H 0.13792 0.59984 0.38314 0.0
H1595 H 0.13745 0.6673 0.38355 0.0
H1596 H 0.03452 0.66734 0.36101 0.0
H1597 H 0.03515 0.60011 0.36048 0.0
H1598 H 0.12789 0.72465 0.36077 0.0
H1599 H 0.97966 0.72279 0.38179 0.0
H1600 H 0.93886 0.68178 0.39536 0.0
H1601 H 0.032 0.6348 0.4165 0.0
H1602 H 0.07325 0.67602 0.40328 0.0
H1603 H 0.01759 0.88327 0.35097 0.0
H1604 H 0.05298 0.82669 0.35198 0.0
H1605 H 0.06095 0.83662 0.39746 0.0
H1606 H 0.02543 0.89319 0.39659 0.0
H1607 H 0.0262 0.77525 0.38978 0.0
H1608 H 0.13809 0.83345 0.37776 0.0
H1609 H 0.18008 0.87375 0.36448 0.0
H1610 H 0.16312 0.80977 0.32682 0.0
H1611 H 0.12058 0.76936 0.33981 0.0
C1612 C 0.11561 0.61446 0.37807 0.0
C1613 C 0.08649 0.59517 0.37182 0.0
C1614 C 0.11548 0.65279 0.37824 0.0
C1615 C 0.08592 0.67209 0.37234 0.0
C1616 C 0.05757 0.65279 0.36559 0.0
C1617 C 0.05792 0.61456 0.36529 0.0
C1618 C 0.08243 0.71205 0.37448 0.0
C1619 C 0.10585 0.73594 0.36715 0.0
C1620 C 0.05424 0.72644 0.38311 0.0
C1621 C 0.02955 0.70229 0.39144 0.0
C1622 C 0.9914 0.70388 0.3894 0.0
C1623 C 0.9682 0.68058 0.39703 0.0
C1624 C 0.98284 0.65563 0.40676 0.0
C1625 C 0.0207 0.65406 0.40893 0.0
C1626 C 0.044 0.67737 0.40137 0.0
C1627 C 0.02788 0.87418 0.36116 0.0
C1628 C 0.01776 0.89233 0.37375 0.0
C1629 C 0.04834 0.84182 0.3617 0.0
C1630 C 0.05923 0.82721 0.37481 0.0
C1631 C 0.05256 0.84732 0.38724 0.0
C1632 C 0.0322 0.87973 0.38671 0.0
C1633 C 0.07101 0.78838 0.37573 0.0
C1634 C 0.04882 0.76438 0.38359 0.0
C1635 C 0.10051 0.77413 0.36767 0.0
C1636 C 0.12592 0.79847 0.35976 0.0
C1637 C 0.14304 0.82814 0.36661 0.0
C1638 C 0.16701 0.85097 0.35915 0.0
C1639 C 0.17423 0.84435 0.34482 0.0
C1640 C 0.15751 0.81486 0.33793 0.0
C1641 C 0.1335 0.79194 0.34535 0.0
H1642 H 0.19282 0.86205 0.33905 0.0
H1643 H 0.96484 0.63757 0.41262 0.0
H1644 H 0.90225 0.04191 0.85487 0.0
H1645 H 0.83514 0.03997 0.85543 0.0
H1646 H 0.83383 0.1306 0.88483 0.0
H1647 H 0.90121 0.13257 0.88428 0.0
H1648 H 0.79488 0.02641 0.87983 0.0
H1649 H 0.74841 0.1782 0.87697 0.0
H1650 H 0.76839 0.237 0.8666 0.0
H1651 H 0.82851 0.17933 0.8344 0.0
H1652 H 0.80827 0.12025 0.84438 0.0
H1653 H 0.61363 0.02291 0.89748 0.0
H1654 H 0.67056 0.05789 0.89758 0.0
H1655 H 0.66722 0.06505 0.85196 0.0
H1656 H 0.61017 0.03034 0.85169 0.0
H1657 H 0.70745 0.12447 0.86592 0.0
H1658 H 0.69947 0.99007 0.86358 0.0
H1659 H 0.67543 0.93149 0.8728 0.0
H1660 H 0.72483 0.95316 0.91329 0.0
H1661 H 0.74853 0.01224 0.90436 0.0
C1662 C 0.88757 0.06181 0.86124 0.0
C1663 C 0.90663 0.08737 0.86954 0.0
C1664 C 0.84935 0.06057 0.86161 0.0
C1665 C 0.82961 0.08518 0.87015 0.0
C1666 C 0.84859 0.11158 0.8781 0.0
C1667 C 0.88692 0.11258 0.87783 0.0
C1668 C 0.78941 0.0812 0.87149 0.0
C1669 C 0.77588 0.04799 0.87685 0.0
C1670 C 0.76461 0.1094 0.86763 0.0
C1671 C 0.77726 0.14476 0.86158 0.0
C1672 C 0.76588 0.17806 0.86767 0.0
C1673 C 0.77721 0.21145 0.86185 0.0
C1674 C 0.79986 0.21189 0.8499 0.0
C1675 C 0.81113 0.17895 0.84371 0.0
C1676 C 0.79979 0.14549 0.84947 0.0
C1677 C 0.62404 0.03326 0.88749 0.0
C1678 C 0.60812 0.02263 0.87453 0.0
C1679 C 0.65656 0.05341 0.88759 0.0
C1680 C 0.67344 0.06311 0.87475 0.0
C1681 C 0.65467 0.05754 0.86197 0.0
C1682 C 0.62214 0.0374 0.86184 0.0
C1683 C 0.71333 0.06997 0.87435 0.0
C1684 C 0.72671 0.10337 0.86913 0.0
C1685 C 0.73822 0.04191 0.8782 0.0
C1686 C 0.72548 0.00565 0.88335 0.0
C1687 C 0.70504 0.98239 0.87446 0.0
C1688 C 0.69137 0.94918 0.87965 0.0
C1689 C 0.69843 0.93872 0.89364 0.0
C1690 C 0.71925 0.96139 0.90247 0.0
C1691 C 0.73282 0.99473 0.89735 0.0
H1692 H 0.68799 0.91296 0.89763 0.0
H1693 H 0.80858 0.23776 0.8454 0.0
H1694 H 0.44518 0.90118 0.35295 0.0
H1695 H 0.44543 0.83418 0.35307 0.0
H1696 H 0.37582 0.83406 0.39005 0.0
H1697 H 0.37393 0.90133 0.38955 0.0
H1698 H 0.44386 0.79283 0.39218 0.0
H1699 H 0.33856 0.80347 0.36224 0.0
H1700 H 0.30296 0.82736 0.34201 0.0
H1701 H 0.38198 0.78269 0.31299 0.0
H1702 H 0.41834 0.75895 0.33305 0.0
H1703 H 0.47258 0.60386 0.39211 0.0
H1704 H 0.43393 0.6587 0.39217 0.0
H1705 H 0.47118 0.68526 0.34995 0.0
H1706 H 0.5082 0.62991 0.34953 0.0
H1707 H 0.40554 0.71072 0.35292 0.0
H1708 H 0.5171 0.71533 0.38086 0.0
H1709 H 0.55902 0.69449 0.39977 0.0
H1710 H 0.47555 0.71418 0.431 0.0
H1711 H 0.433 0.73472 0.41223 0.0
C1712 C 0.42911 0.88692 0.36087 0.0
C1713 C 0.40959 0.90644 0.37126 0.0
C1714 C 0.42938 0.84866 0.36096 0.0
C1715 C 0.41048 0.82928 0.37152 0.0
C1716 C 0.39049 0.84862 0.38179 0.0
C1717 C 0.38968 0.88694 0.38156 0.0
C1718 C 0.41449 0.78901 0.37244 0.0
C1719 C 0.43462 0.77462 0.38381 0.0
C1720 C 0.40326 0.76566 0.36129 0.0
C1721 C 0.38128 0.77958 0.34918 0.0
C1722 C 0.34849 0.79895 0.35155 0.0
C1723 C 0.32814 0.81242 0.34011 0.0
C1724 C 0.34023 0.80659 0.32623 0.0
C1725 C 0.37264 0.78718 0.32376 0.0
C1726 C 0.3931 0.77364 0.33516 0.0
C1727 C 0.47164 0.62081 0.38268 0.0
C1728 C 0.49412 0.61295 0.37094 0.0
C1729 C 0.44966 0.65225 0.38275 0.0
C1730 C 0.45061 0.67678 0.37125 0.0
C1731 C 0.47018 0.667 0.35901 0.0
C1732 C 0.49154 0.63527 0.35881 0.0
C1733 C 0.43571 0.71457 0.37253 0.0
C1734 C 0.41379 0.72862 0.36153 0.0
C1735 C 0.44612 0.73797 0.38384 0.0
C1736 C 0.47177 0.72611 0.39515 0.0
C1737 C 0.50767 0.71503 0.39176 0.0
C1738 C 0.53153 0.70329 0.40245 0.0
C1739 C 0.51991 0.7029 0.41657 0.0
C1740 C 0.48447 0.71441 0.42005 0.0
C1741 C 0.46047 0.72611 0.4094 0.0
H1742 H 0.53841 0.69377 0.42483 0.0
H1743 H 0.32445 0.81707 0.31739 0.0
H1744 H 0.11189 0.97588 0.89582 0.0
H1745 H 0.17046 0.94356 0.89562 0.0
H1746 H 0.17058 0.94501 0.84991 0.0
H1747 H 0.112 0.977 0.84992 0.0
H1748 H 0.21263 0.8818 0.87989 0.0
H1749 H 0.24166 0.00162 0.84334 0.0
H1750 H 0.21314 0.06062 0.8367 0.0
H1751 H 0.17211 0.07339 0.87911 0.0
H1752 H 0.20111 0.01494 0.88605 0.0
H1753 H 0.40118 0.8741 0.8582 0.0
H1754 H 0.33393 0.87882 0.85833 0.0
H1755 H 0.34091 0.97125 0.88679 0.0
H1756 H 0.40788 0.96698 0.88641 0.0
H1757 H 0.29394 0.98482 0.8658 0.0
H1758 H 0.31589 0.8872 0.89899 0.0
H1759 H 0.34125 0.82796 0.90692 0.0
H1760 H 0.28047 0.77224 0.87443 0.0
H1761 H 0.25493 0.83122 0.86623 0.0
C1762 C 0.12345 0.96792 0.88571 0.0
C1763 C 0.10791 0.98028 0.87289 0.0
C1764 C 0.15689 0.94917 0.88563 0.0
C1765 C 0.17503 0.9427 0.87276 0.0
C1766 C 0.15698 0.95006 0.85995 0.0
C1767 C 0.12353 0.96859 0.86 0.0
C1768 C 0.21519 0.93772 0.87273 0.0
C1769 C 0.23054 0.90408 0.87673 0.0
C1770 C 0.23832 0.96726 0.86894 0.0
C1771 C 0.22319 0.00375 0.86515 0.0
C1772 C 0.22683 0.01721 0.85126 0.0
C1773 C 0.21051 0.0505 0.84744 0.0
C1774 C 0.19057 0.07059 0.85745 0.0
C1775 C 0.18731 0.05768 0.87134 0.0
C1776 C 0.20377 0.02453 0.87523 0.0
C1777 C 0.38816 0.8954 0.86443 0.0
C1778 C 0.40941 0.92011 0.87233 0.0
C1779 C 0.34989 0.89795 0.86458 0.0
C1780 C 0.33243 0.9252 0.87268 0.0
C1781 C 0.3538 0.94999 0.8805 0.0
C1782 C 0.39195 0.94743 0.88034 0.0
C1783 C 0.29192 0.92855 0.87284 0.0
C1784 C 0.27632 0.96221 0.86887 0.0
C1785 C 0.26878 0.89918 0.87693 0.0
C1786 C 0.28378 0.86365 0.88192 0.0
C1787 C 0.3081 0.86233 0.89348 0.0
C1788 C 0.32244 0.8288 0.89804 0.0
C1789 C 0.3125 0.79636 0.89117 0.0
C1790 C 0.28809 0.79739 0.87975 0.0
C1791 C 0.27364 0.83085 0.87515 0.0
H1792 H 0.32366 0.77042 0.8947 0.0
H1793 H 0.1779 0.09628 0.85445 0.0
H1794 H 0.51946 0.10695 0.34897 0.0
H1795 H 0.5576 0.16168 0.3469 0.0
H1796 H 0.5463 0.1809 0.39186 0.0
H1797 H 0.50908 0.12594 0.39407 0.0
H1798 H 0.53009 0.2255 0.35085 0.0
H1799 H 0.61009 0.2375 0.40454 0.0
H1800 H 0.64672 0.19787 0.42029 0.0
H1801 H 0.66985 0.12562 0.38546 0.0
H1802 H 0.63383 0.16507 0.36944 0.0
H1803 H 0.5339 0.40275 0.3777 0.0
H1804 H 0.53062 0.33583 0.37574 0.0
H1805 H 0.64395 0.33252 0.36266 0.0
H1806 H 0.64716 0.39982 0.36458 0.0
H1807 H 0.62415 0.27751 0.3831 0.0
H1808 H 0.58719 0.32167 0.33796 0.0
H1809 H 0.55357 0.36121 0.32119 0.0
H1810 H 0.45122 0.31869 0.33653 0.0
H1811 H 0.4842 0.27932 0.35356 0.0
C1812 C 0.52612 0.12215 0.3585 0.0
C1813 C 0.51073 0.11237 0.37166 0.0
C1814 C 0.5479 0.15349 0.35729 0.0
C1815 C 0.55467 0.17563 0.36919 0.0
C1816 C 0.54198 0.16411 0.38253 0.0
C1817 C 0.52046 0.13261 0.38378 0.0
C1818 C 0.56921 0.21338 0.36739 0.0
C1819 C 0.5511 0.2366 0.35777 0.0
C1820 C 0.59704 0.22795 0.37622 0.0
C1821 C 0.61904 0.20421 0.38579 0.0
C1822 C 0.62317 0.2133 0.40021 0.0
C1823 C 0.64379 0.19082 0.40919 0.0
C1824 C 0.66054 0.15922 0.40389 0.0
C1825 C 0.65677 0.15005 0.38957 0.0
C1826 C 0.63619 0.17244 0.38053 0.0
C1827 C 0.55809 0.38761 0.37449 0.0
C1828 C 0.5907 0.40604 0.37122 0.0
C1829 C 0.55623 0.34956 0.37335 0.0
C1830 C 0.58699 0.32938 0.36896 0.0
C1831 C 0.61997 0.34769 0.36605 0.0
C1832 C 0.62172 0.38592 0.36707 0.0
C1833 C 0.58382 0.28926 0.36707 0.0
C1834 C 0.60387 0.26589 0.37599 0.0
C1835 C 0.55826 0.27429 0.35742 0.0
C1836 C 0.5382 0.29767 0.3471 0.0
C1837 C 0.5575 0.32093 0.33783 0.0
C1838 C 0.53856 0.34329 0.32827 0.0
C1839 C 0.50028 0.34249 0.32781 0.0
C1840 C 0.48087 0.31927 0.3369 0.0
C1841 C 0.49968 0.29689 0.3465 0.0
H1842 H 0.48567 0.35983 0.3204 0.0
H1843 H 0.67649 0.14185 0.41086 0.0
H1844 H 0.10782 0.62707 0.88447 0.0
H1845 H 0.17485 0.62123 0.88438 0.0
H1846 H 0.16634 0.52697 0.8569 0.0
H1847 H 0.09941 0.53211 0.85737 0.0
H1848 H 0.21229 0.5133 0.87781 0.0
H1849 H 0.19502 0.61094 0.84428 0.0
H1850 H 0.17173 0.67063 0.8359 0.0
H1851 H 0.23154 0.72551 0.86887 0.0
H1852 H 0.255 0.6661 0.87752 0.0
H1853 H 0.39691 0.51862 0.85011 0.0
H1854 H 0.33906 0.55216 0.84966 0.0
H1855 H 0.33512 0.55014 0.89533 0.0
H1856 H 0.393 0.51693 0.89597 0.0
H1857 H 0.29698 0.61444 0.8647 0.0
H1858 H 0.2636 0.49615 0.90113 0.0
H1859 H 0.29089 0.43686 0.90816 0.0
H1860 H 0.33271 0.42197 0.86596 0.0
H1861 H 0.30514 0.48083 0.85866 0.0
C1862 C 0.12042 0.60513 0.87844 0.0
C1863 C 0.09867 0.57999 0.87095 0.0
C1864 C 0.15862 0.60198 0.8783 0.0
C1865 C 0.17564 0.57383 0.87053 0.0
C1866 C 0.15382 0.54891 0.86295 0.0
C1867 C 0.11567 0.55199 0.86314 0.0
C1868 C 0.21608 0.56944 0.87069 0.0
C1869 C 0.23062 0.5355 0.87492 0.0
C1870 C 0.24023 0.59827 0.86687 0.0
C1871 C 0.2265 0.63405 0.86162 0.0
C1872 C 0.20304 0.63573 0.84979 0.0
C1873 C 0.18987 0.66951 0.84498 0.0
C1874 C 0.20013 0.70184 0.85186 0.0
C1875 C 0.22367 0.70045 0.86354 0.0
C1876 C 0.23696 0.66674 0.86839 0.0
C1877 C 0.38467 0.52669 0.86011 0.0
C1878 C 0.39891 0.51384 0.87308 0.0
C1879 C 0.35166 0.54613 0.8598 0.0
C1880 C 0.33261 0.55284 0.87245 0.0
C1881 C 0.34943 0.54491 0.88546 0.0
C1882 C 0.3825 0.52566 0.88579 0.0
C1883 C 0.29258 0.55872 0.87195 0.0
C1884 C 0.27832 0.59259 0.86765 0.0
C1885 C 0.2685 0.5297 0.87541 0.0
C1886 C 0.28256 0.49295 0.8794 0.0
C1887 C 0.27831 0.48001 0.89334 0.0
C1888 C 0.29395 0.44657 0.89738 0.0
C1889 C 0.31375 0.42579 0.88755 0.0
C1890 C 0.31758 0.43819 0.8736 0.0
C1891 C 0.30188 0.47153 0.8695 0.0
H1892 H 0.32588 0.39998 0.89071 0.0
H1893 H 0.18988 0.72797 0.84813 0.0
H1894 H -9e-05 0.36987 0.39933 0.0
H1895 H 0.96514 0.31335 0.39698 0.0
H1896 H 0.92209 0.35056 0.35683 0.0
H1897 H 0.95884 0.40642 0.35873 0.0
H1898 H 0.90246 0.28253 0.39317 0.0
H1899 H 0.92675 0.28333 0.33316 0.0
H1900 H 0.96443 0.31605 0.31544 0.0
H1901 H 0.04894 0.33229 0.34653 0.0
H1902 H 0.01195 0.29928 0.36435 0.0
H1903 H 0.85667 0.1012 0.37172 0.0
H1904 H 0.85765 0.16863 0.37152 0.0
H1905 H 0.97465 0.16625 0.36443 0.0
H1906 H 0.9732 0.09912 0.36418 0.0
H1907 H 0.94617 0.2194 0.34969 0.0
H1908 H 0.93648 0.17605 0.39782 0.0
H1909 H 0.90794 0.14193 0.41753 0.0
H1910 H 0.81029 0.20696 0.4135 0.0
H1911 H 0.83808 0.24107 0.3936 0.0
C1912 C 0.98212 0.36663 0.39021 0.0
C1913 C 0.98285 0.39204 0.37902 0.0
C1914 C 0.96212 0.33422 0.38889 0.0
C1915 C 0.94204 0.3271 0.37648 0.0
C1916 C 0.93836 0.35498 0.36629 0.0
C1917 C 0.9592 0.38697 0.36741 0.0
C1918 C 0.93086 0.28885 0.37328 0.0
C1919 C 0.91145 0.26887 0.38355 0.0
C1920 C 0.94333 0.27068 0.36087 0.0
C1921 C 0.96643 0.28922 0.35009 0.0
C1922 C 0.95347 0.2937 0.33617 0.0
C1923 C 0.97468 0.31232 0.32612 0.0
C1924 C 0.00901 0.32633 0.32987 0.0
C1925 C 0.02234 0.32148 0.34364 0.0
C1926 C 0.00129 0.30279 0.35371 0.0
C1927 C 0.88233 0.11537 0.36989 0.0
C1928 C 0.91487 0.09556 0.36795 0.0
C1929 C 0.88295 0.1537 0.36983 0.0
C1930 C 0.9163 0.17251 0.36812 0.0
C1931 C 0.94859 0.1524 0.36571 0.0
C1932 C 0.94786 0.11418 0.36562 0.0
C1933 C 0.91841 0.21292 0.36971 0.0
C1934 C 0.93615 0.23325 0.35911 0.0
C1935 C 0.90577 0.23101 0.38208 0.0
C1936 C 0.88916 0.21078 0.39412 0.0
C1937 C 0.90882 0.18289 0.40108 0.0
C1938 C 0.8928 0.16357 0.41228 0.0
C1939 C 0.85729 0.17221 0.41674 0.0
C1940 C 0.83777 0.20025 0.41002 0.0
C1941 C 0.85363 0.21957 0.39877 0.0
H1942 H 0.84493 0.15723 0.42542 0.0
H1943 H 0.02529 0.34091 0.3221 0.0
H1944 H 0.12518 0.50516 0.155 0.0
H1945 H 0.1796 0.54303 0.1547 0.0
H1946 H 0.16257 0.56608 0.11025 0.0
H1947 H 0.10864 0.52619 0.11031 0.0
H1948 H 0.22708 0.54413 0.11306 0.0
H1949 H 0.16183 0.63565 0.13753 0.0
H1950 H 0.12019 0.66332 0.15513 0.0
H1951 H 0.19119 0.62842 0.18887 0.0
H1952 H 0.23302 0.60005 0.1715 0.0
H1953 H 0.40143 0.63035 0.11732 0.0
H1954 H 0.33424 0.63132 0.11657 0.0
H1955 H 0.33047 0.56349 0.15401 0.0
H1956 H 0.39749 0.56105 0.15444 0.0
H1957 H 0.27379 0.62355 0.15178 0.0
H1958 H 0.32885 0.52019 0.12567 0.0
H1959 H 0.37115 0.49623 0.10747 0.0
H1960 H 0.31689 0.5606 0.07561 0.0
H1961 H 0.27464 0.58541 0.09371 0.0
C1962 C 0.13232 0.51897 0.14521 0.0
C1963 C 0.11276 0.51219 0.13262 0.0
C1964 C 0.16348 0.54106 0.14509 0.0
C1965 C 0.17533 0.55778 0.13247 0.0
C1966 C 0.15415 0.55339 0.12012 0.0
C1967 C 0.12323 0.53066 0.12017 0.0
C1968 C 0.21239 0.57481 0.13184 0.0
C1969 C 0.23676 0.56244 0.12132 0.0
C1970 C 0.22556 0.5985 0.14263 0.0
C1971 C 0.20054 0.61557 0.15318 0.0
C1972 C 0.16847 0.63365 0.14871 0.0
C1973 C 0.14484 0.6495 0.15865 0.0
C1974 C 0.15303 0.64761 0.17311 0.0
C1975 C 0.1849 0.6299 0.17766 0.0
C1976 C 0.20863 0.61399 0.16777 0.0
C1977 C 0.38622 0.61592 0.12545 0.0
C1978 C 0.40459 0.59521 0.13583 0.0
C1979 C 0.34794 0.61685 0.1251 0.0
C1980 C 0.32755 0.59746 0.13523 0.0
C1981 C 0.34583 0.57891 0.14618 0.0
C1982 C 0.3841 0.57755 0.14642 0.0
C1983 C 0.28774 0.59193 0.13332 0.0
C1984 C 0.26328 0.60627 0.14335 0.0
C1985 C 0.2742 0.57064 0.12196 0.0
C1986 C 0.2989 0.55493 0.11104 0.0
C1987 C 0.3261 0.52939 0.1148 0.0
C1988 C 0.35004 0.51564 0.10451 0.0
C1989 C 0.34678 0.52696 0.0904 0.0
C1990 C 0.31944 0.55192 0.08655 0.0
C1991 C 0.29549 0.56582 0.09681 0.0
H1992 H 0.36538 0.51634 0.08245 0.0
H1993 H 0.13469 0.65989 0.18079 0.0
H1994 H 0.02362 0.12912 0.65302 0.0
H1995 H 0.98278 0.18147 0.65259 0.0
H1996 H 0.95096 0.15495 0.60967 0.0
H1997 H 0.99365 0.10311 0.60981 0.0
H1998 H 0.96643 0.22188 0.61027 0.0
H1999 H 0.8887 0.15154 0.63931 0.0
H2000 H 0.87012 0.10996 0.65862 0.0
H2001 H 0.90534 0.1889 0.68952 0.0
H2002 H 0.92465 0.23079 0.67041 0.0
H2003 H 0.85759 0.38619 0.61678 0.0
H2004 H 0.86746 0.31964 0.61591 0.0
H2005 H 0.94731 0.3285 0.64946 0.0
H2006 H 0.93908 0.39509 0.64984 0.0
H2007 H 0.89208 0.2659 0.65095 0.0
H2008 H 0.98069 0.32835 0.61971 0.0
H2009 H 0.99479 0.3696 0.59971 0.0
H2010 H 0.93095 0.30202 0.57178 0.0
H2011 H 0.9159 0.26072 0.59171 0.0
C2012 C 0.00739 0.13383 0.64357 0.0
C2013 C 0.01214 0.11208 0.6314 0.0
C2014 C 0.98367 0.16377 0.64337 0.0
C2015 C 0.96325 0.1721 0.63116 0.0
C2016 C 0.96641 0.14918 0.61923 0.0
C2017 C 0.99078 0.11952 0.61932 0.0
C2018 C 0.94237 0.2071 0.63043 0.0
C2019 C 0.94931 0.23091 0.61901 0.0
C2020 C 0.91996 0.2193 0.64179 0.0
C2021 C 0.90826 0.1943 0.65339 0.0
C2022 C 0.8927 0.15998 0.65022 0.0
C2023 C 0.88201 0.13635 0.66114 0.0
C2024 C 0.88657 0.14677 0.67529 0.0
C2025 C 0.90179 0.18088 0.67855 0.0
C2026 C 0.91254 0.20462 0.66768 0.0
C2027 C 0.87728 0.37386 0.62394 0.0
C2028 C 0.89793 0.39573 0.63326 0.0
C2029 C 0.88256 0.33594 0.62353 0.0
C2030 C 0.90803 0.31938 0.63264 0.0
C2031 C 0.9273 0.3409 0.64244 0.0
C2032 C 0.92256 0.37885 0.64266 0.0
C2033 C 0.91742 0.28024 0.63113 0.0
C2034 C 0.90832 0.256 0.64209 0.0
C2035 C 0.9371 0.26732 0.61923 0.0
C2036 C 0.94679 0.29174 0.60723 0.0
C2037 C 0.96939 0.32247 0.60933 0.0
C2038 C 0.97759 0.34584 0.59801 0.0
C2039 C 0.96367 0.33851 0.58449 0.0
C2040 C 0.94164 0.30771 0.58227 0.0
C2041 C 0.93326 0.28432 0.59357 0.0
H2042 H 0.97004 0.35664 0.57574 0.0
H2043 H 0.8783 0.12842 0.68373 0.0
H2044 H 0.09726 0.94123 0.1525 0.0
H2045 H 0.16402 0.94565 0.15231 0.0
H2046 H 0.16788 0.88139 0.11389 0.0
H2047 H 0.10102 0.87489 0.11459 0.0
H2048 H 0.22546 0.86523 0.12998 0.0
H2049 H 0.17003 0.97459 0.11258 0.0
H2050 H 0.12861 0.02803 0.11255 0.0
H2051 H 0.181 0.06954 0.15004 0.0
H2052 H 0.22237 0.016 0.15044 0.0
H2053 H 0.38598 0.9841 0.10741 0.0
H2054 H 0.32913 0.94854 0.10765 0.0
H2055 H 0.33082 0.94722 0.15334 0.0
H2056 H 0.3878 0.98197 0.15331 0.0
H2057 H 0.27206 0.99289 0.13188 0.0
H2058 H 0.32705 0.87726 0.14834 0.0
H2059 H 0.36901 0.82473 0.14557 0.0
H2060 H 0.3181 0.79735 0.10589 0.0
H2061 H 0.27621 0.85014 0.10833 0.0
C2062 C 0.11237 0.92722 0.14423 0.0
C2063 C 0.09398 0.90804 0.13347 0.0
C2064 C 0.15051 0.93007 0.14404 0.0
C2065 C 0.17088 0.91455 0.1329 0.0
C2066 C 0.15271 0.8938 0.12253 0.0
C2067 C 0.11454 0.89047 0.12285 0.0
C2068 C 0.21064 0.92237 0.13157 0.0
C2069 C 0.23562 0.89316 0.13031 0.0
C2070 C 0.22395 0.95883 0.1318 0.0
C2071 C 0.19907 0.99109 0.13161 0.0
C2072 C 0.17253 0.99496 0.12089 0.0
C2073 C 0.14908 0.02529 0.1208 0.0
C2074 C 0.15212 0.05213 0.13131 0.0
C2075 C 0.17865 0.0487 0.14192 0.0
C2076 C 0.20211 0.01837 0.14208 0.0
C2077 C 0.37518 0.9749 0.11751 0.0
C2078 C 0.39101 0.98664 0.13035 0.0
C2079 C 0.34274 0.95446 0.1176 0.0
C2080 C 0.32596 0.94532 0.13051 0.0
C2081 C 0.34367 0.9537 0.14328 0.0
C2082 C 0.37618 0.9738 0.14322 0.0
C2083 C 0.2867 0.93583 0.13079 0.0
C2084 C 0.26179 0.96497 0.13165 0.0
C2085 C 0.27364 0.89951 0.12989 0.0
C2086 C 0.29891 0.86797 0.12841 0.0
C2087 C 0.32516 0.86037 0.13893 0.0
C2088 C 0.34883 0.83045 0.13745 0.0
C2089 C 0.34634 0.8078 0.12553 0.0
C2090 C 0.32008 0.81497 0.11509 0.0
C2091 C 0.29636 0.84487 0.11653 0.0
H2092 H 0.36466 0.78463 0.12441 0.0
H2093 H 0.13398 0.07562 0.13121 0.0
H2094 H 0.5275 0.39984 0.64603 0.0
H2095 H 0.56079 0.34185 0.64438 0.0
H2096 H 0.52885 0.33157 0.60054 0.0
H2097 H 0.49593 0.38962 0.60196 0.0
H2098 H 0.49955 0.2781 0.62064 0.0
H2099 H 0.61347 0.33287 0.60606 0.0
H2100 H 0.6658 0.37526 0.60812 0.0
H2101 H 0.6953 0.32691 0.64806 0.0
H2102 H 0.64278 0.28456 0.64635 0.0
H2103 H 0.55591 0.099 0.60817 0.0
H2104 H 0.54864 0.16513 0.60626 0.0
H2105 H 0.6088 0.17951 0.6453 0.0
H2106 H 0.61852 0.11301 0.64668 0.0
H2107 H 0.62631 0.23228 0.62768 0.0
H2108 H 0.51415 0.18135 0.64416 0.0
H2109 H 0.46005 0.14089 0.64464 0.0
H2110 H 0.42432 0.18426 0.60462 0.0
H2111 H 0.47862 0.22454 0.60375 0.0
C2112 C 0.52871 0.38601 0.63587 0.0
C2113 C 0.50824 0.3989 0.62423 0.0
C2114 C 0.54787 0.3529 0.63495 0.0
C2115 C 0.5468 0.33236 0.62239 0.0
C2116 C 0.52984 0.34711 0.61033 0.0
C2117 C 0.51102 0.38035 0.61118 0.0
C2118 C 0.55637 0.29304 0.62269 0.0
C2119 C 0.52736 0.26796 0.62188 0.0
C2120 C 0.59239 0.28025 0.62507 0.0
C2121 C 0.62393 0.30577 0.62614 0.0
C2122 C 0.63086 0.33152 0.61536 0.0
C2123 C 0.66063 0.35548 0.61645 0.0
C2124 C 0.6838 0.35385 0.62823 0.0
C2125 C 0.6773 0.32818 0.63894 0.0
C2126 C 0.64755 0.30416 0.63791 0.0
C2127 C 0.56838 0.11625 0.61617 0.0
C2128 C 0.58788 0.1009 0.62756 0.0
C2129 C 0.56376 0.15406 0.61517 0.0
C2130 C 0.57753 0.17729 0.62578 0.0
C2131 C 0.59779 0.16212 0.63702 0.0
C2132 C 0.603 0.12417 0.63788 0.0
C2133 C 0.56947 0.21714 0.62532 0.0
C2134 C 0.59855 0.24232 0.62629 0.0
C2135 C 0.53323 0.23027 0.62343 0.0
C2136 C 0.50074 0.20569 0.62381 0.0
C2137 C 0.49499 0.182 0.63538 0.0
C2138 C 0.46425 0.15914 0.63573 0.0
C2139 C 0.43884 0.15993 0.62465 0.0
C2140 C 0.44409 0.18362 0.61318 0.0
C2141 C 0.47486 0.20647 0.61275 0.0
H2142 H 0.41504 0.14225 0.62496 0.0
H2143 H 0.70685 0.37241 0.62905 0.0
H2144 H 0.12403 0.33789 0.10898 0.0
H2145 H 0.17645 0.29635 0.10865 0.0
H2146 H 0.17232 0.28819 0.15428 0.0
H2147 H 0.12025 0.3303 0.15476 0.0
H2148 H 0.23977 0.30403 0.14553 0.0
H2149 H 0.14814 0.21561 0.13279 0.0
H2150 H 0.0966 0.19039 0.11897 0.0
H2151 H 0.16218 0.19309 0.08114 0.0
H2152 H 0.214 0.21877 0.09471 0.0
H2153 H 0.36759 0.15995 0.1544 0.0
H2154 H 0.31389 0.19957 0.15387 0.0
H2155 H 0.32082 0.20569 0.10824 0.0
H2156 H 0.37434 0.16521 0.10862 0.0
H2157 H 0.25229 0.19129 0.11651 0.0
H2158 H 0.34414 0.27916 0.12936 0.0
H2159 H 0.39578 0.30383 0.14328 0.0
H2160 H 0.32962 0.3021 0.18096 0.0
H2161 H 0.27771 0.27695 0.1673 0.0
C2162 C 0.13383 0.32683 0.11895 0.0
C2163 C 0.118 0.33764 0.13191 0.0
C2164 C 0.16379 0.30295 0.11873 0.0
C2165 C 0.17828 0.28909 0.13144 0.0
C2166 C 0.16165 0.29867 0.14435 0.0
C2167 C 0.13176 0.32264 0.14459 0.0
C2168 C 0.21228 0.26674 0.13135 0.0
C2169 C 0.24231 0.27906 0.13935 0.0
C2170 C 0.21599 0.23483 0.12293 0.0
C2171 C 0.18484 0.21945 0.11475 0.0
C2172 C 0.15148 0.21112 0.1215 0.0
C2173 C 0.12223 0.19667 0.11372 0.0
C2174 C 0.12608 0.19023 0.09918 0.0
C2175 C 0.15922 0.19814 0.0924 0.0
C2176 C 0.18855 0.2126 0.10014 0.0
C2177 C 0.35809 0.17005 0.14424 0.0
C2178 C 0.37536 0.15935 0.13154 0.0
C2179 C 0.32735 0.19282 0.14397 0.0
C2180 C 0.31347 0.20584 0.13103 0.0
C2181 C 0.33108 0.19592 0.11835 0.0
C2182 C 0.36179 0.17295 0.11859 0.0
C2183 C 0.27967 0.22849 0.13075 0.0
C2184 C 0.24973 0.21629 0.12267 0.0
C2185 C 0.27601 0.26053 0.1391 0.0
C2186 C 0.30713 0.27588 0.14732 0.0
C2187 C 0.34068 0.2838 0.14063 0.0
C2188 C 0.36999 0.29791 0.14847 0.0
C2189 C 0.36601 0.30445 0.163 0.0
C2190 C 0.33268 0.29699 0.16971 0.0
C2191 C 0.30329 0.28285 0.16192 0.0
H2192 H 0.38874 0.31537 0.16905 0.0
H2193 H 0.10341 0.17904 0.09317 0.0
H2194 H 0.18834 0.12088 0.60948 0.0
H2195 H 0.22875 0.17417 0.61054 0.0
H2196 H 0.23439 0.16422 0.65609 0.0
H2197 H 0.1939 0.11112 0.65517 0.0
H2198 H 0.21313 0.23129 0.64843 0.0
H2199 H 0.30958 0.14994 0.63615 0.0
H2200 H 0.3432 0.10242 0.62288 0.0
H2201 H 0.3417 0.16995 0.58558 0.0
H2202 H 0.30745 0.21767 0.59855 0.0
H2203 H 0.34552 0.37607 0.65605 0.0
H2204 H 0.31172 0.31823 0.65675 0.0
H2205 H 0.29516 0.32386 0.6115 0.0
H2206 H 0.32879 0.38157 0.61064 0.0
H2207 H 0.32496 0.25776 0.62032 0.0
H2208 H 0.22465 0.3376 0.63314 0.0
H2209 H 0.19402 0.38535 0.64738 0.0
H2210 H 0.20629 0.31951 0.68484 0.0
H2211 H 0.23744 0.27153 0.67085 0.0
C2212 C 0.19884 0.12946 0.6197 0.0
C2213 C 0.18747 0.11196 0.63225 0.0
C2214 C 0.22204 0.15991 0.62028 0.0
C2215 C 0.23442 0.17325 0.63341 0.0
C2216 C 0.22495 0.15449 0.64586 0.0
C2217 C 0.20185 0.12405 0.6453 0.0
C2218 C 0.25381 0.20886 0.63426 0.0
C2219 C 0.23797 0.23685 0.64247 0.0
C2220 C 0.28579 0.21631 0.62627 0.0
C2221 C 0.30551 0.18724 0.6183 0.0
C2222 C 0.31595 0.15449 0.62507 0.0
C2223 C 0.33521 0.12753 0.6176 0.0
C2224 C 0.34448 0.13311 0.60339 0.0
C2225 C 0.33445 0.16564 0.59659 0.0
C2226 C 0.31509 0.19265 0.60399 0.0
C2227 C 0.33408 0.36541 0.64628 0.0
C2228 C 0.34008 0.38339 0.63327 0.0
C2229 C 0.31483 0.33232 0.64671 0.0
C2230 C 0.30121 0.31673 0.63416 0.0
C2231 C 0.30573 0.33537 0.62128 0.0
C2232 C 0.32477 0.36849 0.62084 0.0
C2233 C 0.28392 0.28007 0.6343 0.0
C2234 C 0.3002 0.25197 0.6263 0.0
C2235 C 0.25255 0.27239 0.64257 0.0
C2236 C 0.23371 0.30115 0.65097 0.0
C2237 C 0.22109 0.33344 0.64444 0.0
C2238 C 0.20358 0.36051 0.65246 0.0
C2239 C 0.1983 0.35551 0.66701 0.0
C2240 C 0.21044 0.32337 0.67357 0.0
C2241 C 0.22799 0.29621 0.6656 0.0
H2242 H 0.18474 0.37651 0.6732 0.0
H2243 H 0.35954 0.11228 0.59765 0.0
H2244 H 0.36358 0.34666 0.84994 0.0
H2245 H 0.30996 0.30669 0.85074 0.0
H2246 H 0.32429 0.29277 0.89584 0.0
H2247 H 0.37819 0.33261 0.89516 0.0
H2248 H 0.31082 0.22777 0.88235 0.0
H2249 H 0.25248 0.34679 0.88488 0.0
H2250 H 0.2391 0.41049 0.87768 0.0
H2251 H 0.2112 0.37379 0.8358 0.0
H2252 H 0.22327 0.30972 0.84287 0.0
H2253 H 0.13677 0.14715 0.89519 0.0
H2254 H 0.1893 0.18867 0.89552 0.0
H2255 H 0.17852 0.20527 0.8504 0.0
H2256 H 0.1258 0.16396 0.84995 0.0
H2257 H 0.1897 0.26963 0.86461 0.0
H2258 H 0.25015 0.15118 0.86174 0.0
H2259 H 0.26386 0.08743 0.86878 0.0
H2260 H 0.28779 0.12308 0.91117 0.0
H2261 H 0.27542 0.18722 0.90426 0.0
C2262 C 0.35556 0.3349 0.86002 0.0
C2263 C 0.37527 0.34276 0.87248 0.0
C2264 C 0.32467 0.31235 0.86048 0.0
C2265 C 0.31288 0.29721 0.87338 0.0
C2266 C 0.33287 0.30434 0.88578 0.0
C2267 C 0.36369 0.32705 0.88536 0.0
C2268 C 0.28016 0.27322 0.87381 0.0
C2269 C 0.2842 0.2371 0.87869 0.0
C2270 C 0.24567 0.28512 0.86873 0.0
C2271 C 0.23909 0.32358 0.86436 0.0
C2272 C 0.24369 0.35236 0.87412 0.0
C2273 C 0.23624 0.38849 0.87008 0.0
C2274 C 0.22478 0.39623 0.85626 0.0
C2275 C 0.22023 0.36778 0.84649 0.0
C2276 C 0.22708 0.33153 0.85053 0.0
C2277 C 0.14533 0.15985 0.88534 0.0
C2278 C 0.12702 0.15226 0.87254 0.0
C2279 C 0.17557 0.18332 0.88554 0.0
C2280 C 0.18806 0.19965 0.87295 0.0
C2281 C 0.16936 0.19283 0.86022 0.0
C2282 C 0.13922 0.16924 0.86 0.0
C2283 C 0.2204 0.22416 0.87309 0.0
C2284 C 0.21629 0.26036 0.86833 0.0
C2285 C 0.25483 0.21234 0.87826 0.0
C2286 C 0.26152 0.17384 0.88253 0.0
C2287 C 0.25814 0.14535 0.87258 0.0
C2288 C 0.26578 0.1092 0.87653 0.0
C2289 C 0.27621 0.10114 0.89045 0.0
C2290 C 0.27955 0.12932 0.90041 0.0
C2291 C 0.27252 0.16561 0.89646 0.0
H2292 H 0.2819 0.0731 0.89348 0.0
H2293 H 0.21923 0.42426 0.85315 0.0
H2294 H 0.33481 0.12537 0.39697 0.0
H2295 H 0.29412 0.17855 0.39799 0.0
H2296 H 0.29122 0.1826 0.35227 0.0
H2297 H 0.33205 0.12967 0.35111 0.0
H2298 H 0.30726 0.24891 0.36375 0.0
H2299 H 0.21724 0.15451 0.37072 0.0
H2300 H 0.1901 0.10008 0.38212 0.0
H2301 H 0.18446 0.1576 0.42181 0.0
H2302 H 0.21205 0.21225 0.41068 0.0
H2303 H 0.16047 0.37419 0.35356 0.0
H2304 H 0.20209 0.32179 0.35392 0.0
H2305 H 0.2012 0.32268 0.39968 0.0
H2306 H 0.15935 0.37503 0.39945 0.0
H2307 H 0.18824 0.25465 0.38912 0.0
H2308 H 0.27645 0.34956 0.38217 0.0
H2309 H 0.30394 0.40407 0.37097 0.0
H2310 H 0.31361 0.34589 0.33154 0.0
H2311 H 0.28566 0.29116 0.34246 0.0
C2312 C 0.32512 0.13721 0.38712 0.0
C2313 C 0.33685 0.12328 0.37395 0.0
C2314 C 0.30181 0.1676 0.38773 0.0
C2315 C 0.28969 0.18452 0.3752 0.0
C2316 C 0.3004 0.17002 0.36206 0.0
C2317 C 0.32361 0.13961 0.36143 0.0
C2318 C 0.26733 0.21844 0.37577 0.0
C2319 C 0.28098 0.25006 0.36913 0.0
C2320 C 0.23366 0.22017 0.38318 0.0
C2321 C 0.21708 0.18734 0.3899 0.0
C2322 C 0.21052 0.15545 0.38191 0.0
C2323 C 0.19499 0.12458 0.38831 0.0
C2324 C 0.18566 0.12534 0.40269 0.0
C2325 C 0.19175 0.15703 0.41068 0.0
C2326 C 0.20731 0.18797 0.40432 0.0
C2327 C 0.16946 0.36361 0.36371 0.0
C2328 C 0.15647 0.37882 0.37648 0.0
C2329 C 0.19334 0.33367 0.3639 0.0
C2330 C 0.2048 0.31841 0.37683 0.0
C2331 C 0.19263 0.33403 0.38959 0.0
C2332 C 0.16884 0.36408 0.38942 0.0
C2333 C 0.228 0.28505 0.37699 0.0
C2334 C 0.21456 0.25354 0.38377 0.0
C2335 C 0.26192 0.28344 0.36973 0.0
C2336 C 0.27861 0.31636 0.3631 0.0
C2337 C 0.28412 0.34848 0.37108 0.0
C2338 C 0.29985 0.3794 0.36478 0.0
C2339 C 0.31043 0.37848 0.35054 0.0
C2340 C 0.30536 0.34659 0.34257 0.0
C2341 C 0.2896 0.3156 0.34881 0.0
H2342 H 0.32263 0.40244 0.34569 0.0
H2343 H 0.17362 0.10142 0.40763 0.0
H2344 H 0.64543 0.85725 0.89384 0.0
H2345 H 0.70082 0.81969 0.89294 0.0
H2346 H 0.68461 0.80223 0.84814 0.0
H2347 H 0.62937 0.84042 0.84884 0.0
H2348 H 0.7015 0.73811 0.86302 0.0
H2349 H 0.74976 0.85832 0.85676 0.0
H2350 H 0.76169 0.92376 0.86138 0.0
H2351 H 0.80546 0.89707 0.90238 0.0
H2352 H 0.79381 0.83138 0.898 0.0
H2353 H 0.87595 0.66304 0.84837 0.0
H2354 H 0.82468 0.70605 0.8481 0.0
H2355 H 0.83639 0.72264 0.89316 0.0
H2356 H 0.8878 0.67945 0.8936 0.0
H2357 H 0.82242 0.78803 0.87753 0.0
H2358 H 0.77363 0.66575 0.88271 0.0
H2359 H 0.76611 0.60078 0.87608 0.0
H2360 H 0.72441 0.6327 0.83532 0.0
H2361 H 0.73207 0.6979 0.84164 0.0
C2362 C 0.65344 0.84528 0.88379 0.0
C2363 C 0.63294 0.85189 0.8714 0.0
C2364 C 0.68528 0.82403 0.88329 0.0
C2365 C 0.69699 0.80856 0.87045 0.0
C2366 C 0.67607 0.81411 0.85814 0.0
C2367 C 0.64449 0.83587 0.85858 0.0
C2368 C 0.73081 0.78609 0.86997 0.0
C2369 C 0.72802 0.74914 0.86601 0.0
C2370 C 0.76526 0.8004 0.87409 0.0
C2371 C 0.77062 0.83996 0.8771 0.0
C2372 C 0.76155 0.86642 0.86683 0.0
C2373 C 0.76851 0.90353 0.86936 0.0
C2374 C 0.78446 0.91453 0.88214 0.0
C2375 C 0.79324 0.88848 0.89246 0.0
C2376 C 0.78655 0.85129 0.88995 0.0
C2377 C 0.86807 0.67619 0.85821 0.0
C2378 C 0.88587 0.66755 0.87104 0.0
C2379 C 0.83863 0.70065 0.85803 0.0
C2380 C 0.82649 0.71708 0.87064 0.0
C2381 C 0.84532 0.71009 0.88333 0.0
C2382 C 0.87465 0.68537 0.88355 0.0
C2383 C 0.79302 0.74008 0.87066 0.0
C2384 C 0.79586 0.77705 0.87456 0.0
C2385 C 0.75866 0.72589 0.86636 0.0
C2386 C 0.75376 0.6867 0.86259 0.0
C2387 C 0.76313 0.65891 0.87229 0.0
C2388 C 0.7588 0.62205 0.8686 0.0
C2389 C 0.74492 0.61261 0.85528 0.0
C2390 C 0.73521 0.64004 0.84563 0.0
C2391 C 0.73949 0.67696 0.84927 0.0
H2392 H 0.74161 0.58405 0.85245 0.0
H2393 H 0.78994 0.94326 0.88406 0.0
H2394 H 0.87387 0.85511 0.39566 0.0
H2395 H 0.83661 0.79967 0.39653 0.0
H2396 H 0.77496 0.83738 0.36021 0.0
H2397 H 0.81416 0.89167 0.35871 0.0
H2398 H 0.77284 0.78076 0.40075 0.0
H2399 H 0.74571 0.76969 0.33984 0.0
H2400 H 0.77673 0.78555 0.3174 0.0
H2401 H 0.8811 0.78309 0.33845 0.0
H2402 H 0.85078 0.76675 0.36097 0.0
H2403 H 0.63068 0.65512 0.39019 0.0
H2404 H 0.67248 0.70709 0.39125 0.0
H2405 H 0.74968 0.64859 0.36481 0.0
H2406 H 0.70602 0.59778 0.36274 0.0
H2407 H 0.75027 0.71156 0.35632 0.0
H2408 H 0.76109 0.66535 0.40297 0.0
H2409 H 0.74115 0.64211 0.42629 0.0
H2410 H 0.68964 0.74533 0.43539 0.0
H2411 H 0.70885 0.76906 0.41204 0.0
C2412 C 0.85211 0.8517 0.38794 0.0
C2413 C 0.84698 0.87749 0.37706 0.0
C2414 C 0.8308 0.81996 0.38844 0.0
C2415 C 0.80342 0.81375 0.37824 0.0
C2416 C 0.79671 0.84081 0.36792 0.0
C2417 C 0.81881 0.87203 0.36714 0.0
C2418 C 0.78263 0.77866 0.37821 0.0
C2419 C 0.76802 0.76558 0.39103 0.0
C2420 C 0.77742 0.7579 0.36566 0.0
C2421 C 0.7959 0.76736 0.35212 0.0
C2422 C 0.77529 0.77239 0.33966 0.0
C2423 C 0.79275 0.78149 0.32693 0.0
C2424 C 0.83084 0.78545 0.32651 0.0
C2425 C 0.85158 0.78016 0.33881 0.0
C2426 C 0.83427 0.77101 0.35155 0.0
C2427 C 0.65679 0.65329 0.38474 0.0
C2428 C 0.66543 0.62249 0.37649 0.0
C2429 C 0.68086 0.68292 0.38543 0.0
C2430 C 0.71483 0.68168 0.3784 0.0
C2431 C 0.72372 0.65039 0.37035 0.0
C2432 C 0.69895 0.62127 0.36922 0.0
C2433 C 0.74002 0.71379 0.37885 0.0
C2434 C 0.75537 0.72644 0.36608 0.0
C2435 C 0.74772 0.73294 0.3916 0.0
C2436 C 0.7362 0.71889 0.4057 0.0
C2437 C 0.74532 0.68303 0.40991 0.0
C2438 C 0.73417 0.66977 0.42314 0.0
C2439 C 0.71408 0.69221 0.4323 0.0
C2440 C 0.70519 0.72798 0.42827 0.0
C2441 C 0.71625 0.74137 0.41505 0.0
H2442 H 0.70547 0.68189 0.44254 0.0
H2443 H 0.8443 0.79253 0.31665 0.0
H2444 H 0.62327 0.65183 0.10633 0.0
H2445 H 0.6794 0.68819 0.10395 0.0
H2446 H 0.69691 0.6812 0.14911 0.0
H2447 H 0.6407 0.6456 0.15166 0.0
H2448 H 0.6987 0.75542 0.11682 0.0
H2449 H 0.78783 0.66614 0.15427 0.0
H2450 H 0.79746 0.60112 0.16052 0.0
H2451 H 0.75448 0.56824 0.12008 0.0
H2452 H 0.74438 0.63299 0.11363 0.0
H2453 H 0.88188 0.81047 0.15035 0.0
H2454 H 0.83095 0.76743 0.14834 0.0
H2455 H 0.82378 0.78929 0.10346 0.0
H2456 H 0.87456 0.8327 0.10535 0.0
H2457 H 0.81807 0.70507 0.13299 0.0
H2458 H 0.73172 0.79316 0.09487 0.0
H2459 H 0.72479 0.8579 0.08773 0.0
H2460 H 0.76305 0.8927 0.12866 0.0
H2461 H 0.76969 0.82821 0.13609 0.0
C2462 C 0.63886 0.65834 0.11578 0.0
C2463 C 0.62753 0.6457 0.12919 0.0
C2464 C 0.67094 0.679 0.11438 0.0
C2465 C 0.69249 0.68681 0.12632 0.0
C2466 C 0.68089 0.67495 0.13974 0.0
C2467 C 0.6486 0.65481 0.14118 0.0
C2468 C 0.72687 0.70795 0.12493 0.0
C2469 C 0.72494 0.74424 0.1201 0.0
C2470 C 0.7609 0.69344 0.12942 0.0
C2471 C 0.76517 0.6544 0.13352 0.0
C2472 C 0.78031 0.64501 0.14674 0.0
C2473 C 0.78584 0.60822 0.15032 0.0
C2474 C 0.77669 0.5806 0.14068 0.0
C2475 C 0.76153 0.58968 0.12753 0.0
C2476 C 0.75566 0.6264 0.12395 0.0
C2477 C 0.86984 0.80582 0.14 0.0
C2478 C 0.88206 0.82537 0.12804 0.0
C2479 C 0.84077 0.78113 0.13888 0.0
C2480 C 0.82326 0.77565 0.1258 0.0
C2481 C 0.83661 0.79358 0.11369 0.0
C2482 C 0.86575 0.81826 0.11479 0.0
C2483 C 0.78984 0.75273 0.12508 0.0
C2484 C 0.79191 0.71613 0.12956 0.0
C2485 C 0.75595 0.76697 0.12023 0.0
C2486 C 0.75163 0.80586 0.11596 0.0
C2487 C 0.73855 0.81465 0.10235 0.0
C2488 C 0.73468 0.85129 0.09825 0.0
C2489 C 0.74361 0.8794 0.10772 0.0
C2490 C 0.75629 0.87091 0.12132 0.0
C2491 C 0.76016 0.83432 0.12547 0.0
H2492 H 0.74062 0.90774 0.10452 0.0
H2493 H 0.78137 0.55217 0.14341 0.0
H2494 H 0.78747 0.60164 0.60999 0.0
H2495 H 0.74945 0.65692 0.61054 0.0
H2496 H 0.75664 0.65926 0.65617 0.0
H2497 H 0.79397 0.6039 0.65583 0.0
H2498 H 0.68337 0.6851 0.6267 0.0
H2499 H 0.79434 0.75028 0.662 0.0
H2500 H 0.85784 0.73729 0.66949 0.0
H2501 H 0.87815 0.68139 0.6302 0.0
H2502 H 0.8156 0.69598 0.62211 0.0
H2503 H 0.63433 0.85999 0.65401 0.0
H2504 H 0.66511 0.80046 0.6542 0.0
H2505 H 0.72332 0.82916 0.61599 0.0
H2506 H 0.69185 0.8886 0.61545 0.0
H2507 H 0.76461 0.78831 0.64069 0.0
H2508 H 0.66063 0.78427 0.60804 0.0
H2509 H 0.59583 0.79474 0.60173 0.0
H2510 H 0.56164 0.72668 0.63646 0.0
H2511 H 0.62634 0.71616 0.64308 0.0
C2512 C 0.7799 0.61312 0.62018 0.0
C2513 C 0.79452 0.59883 0.63284 0.0
C2514 C 0.75806 0.64464 0.62046 0.0
C2515 C 0.751 0.66238 0.63337 0.0
C2516 C 0.76218 0.64601 0.6461 0.0
C2517 C 0.7836 0.61436 0.64585 0.0
C2518 C 0.7376 0.70056 0.63344 0.0
C2519 C 0.70108 0.70764 0.62975 0.0
C2520 C 0.76102 0.72989 0.63736 0.0
C2521 C 0.79986 0.7236 0.64156 0.0
C2522 C 0.81247 0.73563 0.65487 0.0
C2523 C 0.84838 0.72809 0.6592 0.0
C2524 C 0.87194 0.70834 0.65036 0.0
C2525 C 0.85979 0.69648 0.63708 0.0
C2526 C 0.82417 0.70462 0.63258 0.0
C2527 C 0.65439 0.85411 0.64584 0.0
C2528 C 0.66064 0.87896 0.63468 0.0
C2529 C 0.67179 0.82002 0.64595 0.0
C2530 C 0.69622 0.81055 0.63507 0.0
C2531 C 0.70452 0.83618 0.62447 0.0
C2532 C 0.68655 0.87003 0.62418 0.0
C2533 C 0.71033 0.77272 0.63408 0.0
C2534 C 0.74698 0.76572 0.63762 0.0
C2535 C 0.68713 0.74345 0.63006 0.0
C2536 C 0.64827 0.74966 0.62611 0.0
C2537 C 0.63929 0.7718 0.6144 0.0
C2538 C 0.6026 0.77766 0.61075 0.0
C2539 C 0.57466 0.76132 0.61867 0.0
C2540 C 0.58334 0.73921 0.63031 0.0
C2541 C 0.62001 0.73327 0.63401 0.0
H2542 H 0.54628 0.76572 0.61576 0.0
H2543 H 0.89966 0.70236 0.65375 0.0
loop_
_geom_bond_atom_site_label_1
_geom_bond_atom_site_label_2
_geom_bond_distance
_geom_bond_site_symmetry_2
_ccdc_geom_bond_type
Co0 O3 1.970 . S
Co0 N17 1.989 . S
Co0 O25 1.967 . S
Co0 O32 1.920 . S
Co1 O4 1.966 . S
Co1 N10 2.022 . S
Co1 N18 1.993 . S
Co1 O26 1.941 . S
C2 O3 1.258 . S
C2 O4 1.263 . S
O3 Co0 1.970 . S
O3 C2 1.258 . S
O4 Co1 1.966 . S
O4 C2 1.263 . S
C5 O6 1.235 . S
C5 O32 1.289 . S
O6 C5 1.235 . S
C7 C9 1.400 . S
C7 N10 1.351 . S
C7 C12 1.501 . S
C8 C9 1.387 . S
C8 N11 1.341 . S
C9 C7 1.400 . S
C9 C8 1.387 . S
N10 Co1 2.022 . S
N10 C7 1.351 . S
N10 N11 1.365 . S
N11 C8 1.341 . S
N11 N10 1.365 . S
N11 H31 0.862 . S
C12 C7 1.501 . S
C12 H13 0.961 . S
C12 H14 0.961 1_545 S
C12 H15 0.960 . S
H13 C12 0.961 . S
H14 C12 0.961 1_565 S
H15 C12 0.960 . S
C16 N17 1.342 . S
C16 C20 1.401 . S
C16 C21 1.499 . S
N17 Co0 1.989 . S
N17 C16 1.342 . S
N17 N18 1.388 . S
N18 Co1 1.993 . S
N18 N17 1.388 . S
N18 C19 1.346 . S
C19 N18 1.346 . S
C19 C20 1.396 . S
C19 C29 1.510 . S
C20 C16 1.401 . S
C20 C19 1.396 . S
C21 C16 1.499 . S
C21 H22 0.959 . S
C21 H23 0.960 . S
C21 H24 0.961 . S
H22 C21 0.959 . S
H23 C21 0.960 . S
H24 C21 0.961 . S
O25 Co0 1.967 . S
O25 C33 1.258 . S
O26 Co1 1.941 . S
O26 C33 1.266 . S
H27 C29 0.959 . S
H28 C29 0.961 . S
C29 C19 1.510 . S
C29 H27 0.959 . S
C29 H28 0.961 . S
C29 H30 0.960 . S
H30 C29 0.960 . S
H31 N11 0.862 . S
O32 Co0 1.920 . S
O32 C5 1.289 . S
C33 O25 1.258 . S
C33 O26 1.266 . S
Co34 O37 1.970 . S
Co34 N51 1.989 . S
Co34 O59 1.967 . S
Co34 O66 1.920 . S
Co35 O38 1.966 . S
Co35 N44 2.022 . S
Co35 N52 1.993 . S
Co35 O60 1.941 . S
C36 O37 1.258 . S
C36 O38 1.263 . S
O37 Co34 1.970 . S
O37 C36 1.258 . S
O38 Co35 1.966 . S
O38 C36 1.263 . S
C39 O40 1.235 . S
C39 O66 1.289 . S
O40 C39 1.235 . S
C41 C43 1.400 . S
C41 N44 1.351 . S
C41 C46 1.501 . S
C42 C43 1.387 . S
C42 N45 1.341 . S
C43 C41 1.400 . S
C43 C42 1.387 . S
N44 Co35 2.022 . S
N44 C41 1.351 . S
N44 N45 1.365 . S
N45 C42 1.341 . S
N45 N44 1.365 . S
N45 H65 0.862 . S
C46 C41 1.501 . S
C46 H47 0.961 . S
C46 H48 0.961 . S
C46 H49 0.960 . S
H47 C46 0.961 . S
H48 C46 0.961 . S
H49 C46 0.960 . S
C50 N51 1.342 . S
C50 C54 1.401 . S
C50 C55 1.499 . S
N51 Co34 1.989 . S
N51 C50 1.342 . S
N51 N52 1.388 . S
N52 Co35 1.993 . S
N52 N51 1.388 . S
N52 C53 1.346 . S
C53 N52 1.346 . S
C53 C54 1.396 . S
C53 C63 1.510 . S
C54 C50 1.401 . S
C54 C53 1.396 . S
C55 C50 1.499 . S
C55 H56 0.959 . S
C55 H57 0.960 . S
C55 H58 0.961 . S
H56 C55 0.959 . S
H57 C55 0.960 . S
H58 C55 0.961 . S
O59 Co34 1.967 . S
O59 C67 1.258 . S
O60 Co35 1.941 . S
O60 C67 1.266 . S
H61 C63 0.959 . S
H62 C63 0.961 . S
C63 C53 1.510 . S
C63 H61 0.959 . S
C63 H62 0.961 . S
C63 H64 0.960 . S
H64 C63 0.960 . S
H65 N45 0.862 . S
O66 Co34 1.920 . S
O66 C39 1.289 . S
C67 O59 1.258 . S
C67 O60 1.266 . S
Co68 O71 1.970 . S
Co68 N85 1.989 . S
Co68 O93 1.967 . S
Co68 O100 1.920 . S
Co69 O72 1.966 . S
Co69 N78 2.022 . S
Co69 N86 1.993 . S
Co69 O94 1.941 . S
C70 O71 1.258 . S
C70 O72 1.263 . S
O71 Co68 1.970 . S
O71 C70 1.258 . S
O72 Co69 1.966 . S
O72 C70 1.263 . S
C73 O74 1.235 . S
C73 O100 1.289 . S
O74 C73 1.235 . S
C75 C77 1.400 . S
C75 N78 1.351 . S
C75 C80 1.501 . S
C76 C77 1.387 . S
C76 N79 1.341 . S
C77 C75 1.400 . S
C77 C76 1.387 . S
N78 Co69 2.022 . S
N78 C75 1.351 . S
N78 N79 1.365 . S
N79 C76 1.341 . S
N79 N78 1.365 . S
N79 H99 0.862 . S
C80 C75 1.501 . S
C80 H81 0.961 . S
C80 H82 0.961 . S
C80 H83 0.960 . S
H81 C80 0.961 . S
H82 C80 0.961 . S
H83 C80 0.960 . S
C84 N85 1.342 . S
C84 C88 1.401 1_455 S
C84 C89 1.499 1_455 S
N85 Co68 1.989 . S
N85 C84 1.342 . S
N85 N86 1.388 . S
N86 Co69 1.993 . S
N86 N85 1.388 . S
N86 C87 1.363 . S
C87 N86 1.363 . S
C87 C88 1.385 1_455 S
C87 C97 1.505 1_455 S
C88 C84 1.401 1_655 S
C88 C87 1.385 1_655 S
C89 C84 1.499 1_655 S
C89 H90 0.959 1_655 S
C89 H91 0.960 . S
C89 H92 0.961 . S
H90 C89 0.959 1_455 S
H91 C89 0.960 . S
H92 C89 0.961 . S
O93 Co68 1.967 . S
O93 C101 1.258 . S
O94 Co69 1.941 . S
O94 C101 1.266 . S
H95 C97 0.959 . S
H96 C97 0.961 . S
C97 C87 1.505 1_655 S
C97 H95 0.959 . S
C97 H96 0.961 . S
C97 H98 0.960 1_655 S
H98 C97 0.960 1_455 S
H99 N79 0.862 . S
O100 Co68 1.920 . S
O100 C73 1.289 . S
C101 O93 1.258 . S
C101 O94 1.266 . S
Co102 O105 1.970 . S
Co102 N119 1.989 . S
Co102 O127 1.967 . S
Co102 O134 1.920 . S
Co103 O106 1.966 . S
Co103 N112 2.022 . S
Co103 N120 1.993 . S
Co103 O128 1.941 . S
C104 O105 1.258 . S
C104 O106 1.263 . S
O105 Co102 1.970 . S
O105 C104 1.258 . S
O106 Co103 1.966 . S
O106 C104 1.263 . S
C107 O108 1.235 . S
C107 O134 1.289 . S
O108 C107 1.235 . S
C109 C111 1.400 . S
C109 N112 1.351 . S
C109 C114 1.501 . S
C110 C111 1.387 . S
C110 N113 1.341 . S
C111 C109 1.400 . S
C111 C110 1.387 . S
N112 Co103 2.022 . S
N112 C109 1.351 . S
N112 N113 1.365 . S
N113 C110 1.341 . S
N113 N112 1.365 . S
N113 H133 0.862 . S
C114 C109 1.501 . S
C114 H115 0.961 . S
C114 H116 0.961 1_455 S
C114 H117 0.960 . S
H115 C114 0.961 . S
H116 C114 0.961 1_655 S
H117 C114 0.960 . S
C118 N119 1.342 . S
C118 C122 1.401 1_545 S
C118 C123 1.499 1_545 S
N119 Co102 1.989 . S
N119 C118 1.342 . S
N119 N120 1.388 . S
N120 Co103 1.993 . S
N120 N119 1.388 . S
N120 C121 1.363 . S
C121 N120 1.363 . S
C121 C122 1.385 1_545 S
C121 C131 1.505 1_545 S
C122 C118 1.401 1_565 S
C122 C121 1.385 1_565 S
C123 C118 1.499 1_565 S
C123 H124 0.959 1_565 S
C123 H125 0.960 . S
C123 H126 0.961 . S
H124 C123 0.959 1_545 S
H125 C123 0.960 . S
H126 C123 0.961 . S
O127 Co102 1.967 . S
O127 C135 1.258 . S
O128 Co103 1.941 . S
O128 C135 1.266 . S
H129 C131 0.959 . S
H130 C131 0.961 . S
C131 C121 1.505 1_565 S
C131 H129 0.959 . S
C131 H130 0.961 . S
C131 H132 0.960 1_565 S
H132 C131 0.960 1_545 S
H133 N113 0.862 . S
O134 Co102 1.920 . S
O134 C107 1.289 . S
C135 O127 1.258 . S
C135 O128 1.266 . S
Co136 O139 1.970 . S
Co136 N153 1.989 . S
Co136 O161 1.967 . S
Co136 O168 1.920 . S
Co137 O140 1.966 . S
Co137 N146 2.022 . S
Co137 N154 1.993 . S
Co137 O162 1.941 . S
C138 O139 1.258 . S
C138 O140 1.263 . S
O139 Co136 1.970 . S
O139 C138 1.258 . S
O140 Co137 1.966 . S
O140 C138 1.263 . S
C141 O142 1.235 . S
C141 O168 1.289 . S
O142 C141 1.235 . S
C143 C145 1.400 . S
C143 N146 1.351 . S
C143 C148 1.501 . S
C144 C145 1.387 . S
C144 N147 1.341 . S
C145 C143 1.400 . S
C145 C144 1.387 . S
N146 Co137 2.022 . S
N146 C143 1.351 . S
N146 N147 1.365 . S
N147 C144 1.341 . S
N147 N146 1.365 . S
N147 H167 0.862 . S
C148 C143 1.501 . S
C148 H149 0.961 . S
C148 H150 0.961 . S
C148 H151 0.960 . S
H149 C148 0.961 . S
H150 C148 0.961 . S
H151 C148 0.960 . S
C152 N153 1.342 . S
C152 C156 1.401 . S
C152 C157 1.499 . S
N153 Co136 1.989 . S
N153 C152 1.342 . S
N153 N154 1.388 . S
N154 Co137 1.993 . S
N154 N153 1.388 . S
N154 C155 1.346 . S
C155 N154 1.346 . S
C155 C156 1.396 . S
C155 C165 1.510 . S
C156 C152 1.401 . S
C156 C155 1.396 . S
C157 C152 1.499 . S
C157 H158 0.959 . S
C157 H159 0.960 . S
C157 H160 0.961 . S
H158 C157 0.959 . S
H159 C157 0.960 . S
H160 C157 0.961 . S
O161 Co136 1.967 . S
O161 C169 1.258 . S
O162 Co137 1.941 . S
O162 C169 1.266 . S
H163 C165 0.959 . S
H164 C165 0.961 . S
C165 C155 1.510 . S
C165 H163 0.959 . S
C165 H164 0.961 . S
C165 H166 0.960 . S
H166 C165 0.960 . S
H167 N147 0.862 . S
O168 Co136 1.920 . S
O168 C141 1.289 . S
C169 O161 1.258 . S
C169 O162 1.266 . S
Co170 O173 1.970 . S
Co170 N187 1.989 . S
Co170 O195 1.967 . S
Co170 O202 1.920 . S
Co171 O174 1.966 . S
Co171 N180 2.022 . S
Co171 N188 1.993 . S
Co171 O196 1.941 . S
C172 O173 1.258 . S
C172 O174 1.263 . S
O173 Co170 1.970 . S
O173 C172 1.258 . S
O174 Co171 1.966 . S
O174 C172 1.263 . S
C175 O176 1.235 . S
C175 O202 1.289 . S
O176 C175 1.235 . S
C177 C179 1.400 . S
C177 N180 1.351 . S
C177 C182 1.501 . S
C178 C179 1.387 . S
C178 N181 1.341 . S
C179 C177 1.400 . S
C179 C178 1.387 . S
N180 Co171 2.022 . S
N180 C177 1.351 . S
N180 N181 1.365 . S
N181 C178 1.341 . S
N181 N180 1.365 . S
N181 H201 0.862 . S
C182 C177 1.501 . S
C182 H183 0.961 . S
C182 H184 0.961 1_455 S
C182 H185 0.960 . S
H183 C182 0.961 . S
H184 C182 0.961 1_655 S
H185 C182 0.960 . S
C186 N187 1.342 . S
C186 C190 1.401 . S
C186 C191 1.499 . S
N187 Co170 1.989 . S
N187 C186 1.342 . S
N187 N188 1.388 . S
N188 Co171 1.993 . S
N188 N187 1.388 . S
N188 C189 1.346 . S
C189 N188 1.346 . S
C189 C190 1.396 . S
C189 C199 1.510 . S
C190 C186 1.401 . S
C190 C189 1.396 . S
C191 C186 1.499 . S
C191 H192 0.959 . S
C191 H193 0.960 . S
C191 H194 0.961 . S
H192 C191 0.959 . S
H193 C191 0.960 . S
H194 C191 0.961 . S
O195 Co170 1.967 . S
O195 C203 1.258 . S
O196 Co171 1.941 . S
O196 C203 1.266 . S
H197 C199 0.959 . S
H198 C199 0.961 . S
C199 C189 1.510 . S
C199 H197 0.959 . S
C199 H198 0.961 . S
C199 H200 0.960 . S
H200 C199 0.960 . S
H201 N181 0.862 . S
O202 Co170 1.920 . S
O202 C175 1.289 . S
C203 O195 1.258 . S
C203 O196 1.266 . S
Co204 O207 1.970 . S
Co204 N221 1.989 . S
Co204 O229 1.967 . S
Co204 O236 1.920 . S
Co205 O208 1.966 . S
Co205 N214 2.022 . S
Co205 N222 1.993 . S
Co205 O230 1.941 . S
C206 O207 1.258 . S
C206 O208 1.263 . S
O207 Co204 1.970 . S
O207 C206 1.258 . S
O208 Co205 1.966 . S
O208 C206 1.263 . S
C209 O210 1.235 . S
C209 O236 1.289 . S
O210 C209 1.235 . S
C211 C213 1.400 . S
C211 N214 1.351 . S
C211 C216 1.501 . S
C212 C213 1.387 . S
C212 N215 1.341 . S
C213 C211 1.400 . S
C213 C212 1.387 . S
N214 Co205 2.022 . S
N214 C211 1.351 . S
N214 N215 1.365 . S
N215 C212 1.341 . S
N215 N214 1.365 . S
N215 H235 0.862 . S
C216 C211 1.501 . S
C216 H217 0.961 . S
C216 H218 0.961 1_545 S
C216 H219 0.960 . S
H217 C216 0.961 . S
H218 C216 0.961 1_565 S
H219 C216 0.960 . S
C220 N221 1.342 . S
C220 C224 1.401 1_455 S
C220 C225 1.499 1_455 S
N221 Co204 1.989 . S
N221 C220 1.342 . S
N221 N222 1.388 . S
N222 Co205 1.993 . S
N222 N221 1.388 . S
N222 C223 1.363 . S
C223 N222 1.363 . S
C223 C224 1.385 1_455 S
C223 C233 1.505 1_455 S
C224 C220 1.401 1_655 S
C224 C223 1.385 1_655 S
C225 C220 1.499 1_655 S
C225 H226 0.959 1_655 S
C225 H227 0.960 . S
C225 H228 0.961 . S
H226 C225 0.959 1_455 S
H227 C225 0.960 . S
H228 C225 0.961 . S
O229 Co204 1.967 . S
O229 C237 1.258 . S
O230 Co205 1.941 . S
O230 C237 1.266 . S
H231 C233 0.959 . S
H232 C233 0.961 . S
C233 C223 1.505 1_655 S
C233 H231 0.959 . S
C233 H232 0.961 . S
C233 H234 0.960 1_655 S
H234 C233 0.960 1_455 S
H235 N215 0.862 . S
O236 Co204 1.920 . S
O236 C209 1.289 . S
C237 O229 1.258 . S
C237 O230 1.266 . S
Co238 O241 1.970 . S
Co238 N255 1.989 . S
Co238 O263 1.967 . S
Co238 O270 1.920 . S
Co239 O242 1.966 . S
Co239 N248 2.022 . S
Co239 N256 1.993 . S
Co239 O264 1.941 . S
C240 O241 1.258 . S
C240 O242 1.263 . S
O241 Co238 1.970 . S
O241 C240 1.258 . S
O242 Co239 1.966 . S
O242 C240 1.263 . S
C243 O244 1.235 . S
C243 O270 1.289 . S
O244 C243 1.235 . S
C245 C247 1.400 . S
C245 N248 1.351 . S
C245 C250 1.501 . S
C246 C247 1.387 . S
C246 N249 1.341 . S
C247 C245 1.400 . S
C247 C246 1.387 . S
N248 Co239 2.022 . S
N248 C245 1.351 . S
N248 N249 1.365 . S
N249 C246 1.341 . S
N249 N248 1.365 . S
N249 H269 0.862 . S
C250 C245 1.501 . S
C250 H251 0.961 . S
C250 H252 0.961 . S
C250 H253 0.960 . S
H251 C250 0.961 . S
H252 C250 0.961 . S
H253 C250 0.960 . S
C254 N255 1.342 . S
C254 C258 1.401 1_545 S
C254 C259 1.499 1_545 S
N255 Co238 1.989 . S
N255 C254 1.342 . S
N255 N256 1.388 . S
N256 Co239 1.993 . S
N256 N255 1.388 . S
N256 C257 1.363 . S
C257 N256 1.363 . S
C257 C258 1.385 1_545 S
C257 C267 1.505 1_545 S
C258 C254 1.401 1_565 S
C258 C257 1.385 1_565 S
C259 C254 1.499 1_565 S
C259 H260 0.959 1_565 S
C259 H261 0.960 . S
C259 H262 0.961 . S
H260 C259 0.959 1_545 S
H261 C259 0.960 . S
H262 C259 0.961 . S
O263 Co238 1.967 . S
O263 C271 1.258 . S
O264 Co239 1.941 . S
O264 C271 1.266 . S
H265 C267 0.959 . S
H266 C267 0.961 . S
C267 C257 1.505 1_565 S
C267 H265 0.959 . S
C267 H266 0.961 . S
C267 H268 0.960 1_565 S
H268 C267 0.960 1_545 S
H269 N249 0.862 . S
O270 Co238 1.920 . S
O270 C243 1.289 . S
C271 O263 1.258 . S
C271 O264 1.266 . S
Co272 O275 1.970 . S
Co272 N289 1.989 . S
Co272 O297 1.967 . S
Co272 O304 1.920 . S
Co273 O276 1.966 . S
Co273 N282 2.022 . S
Co273 N290 1.993 . S
Co273 O298 1.941 . S
C274 O275 1.258 . S
C274 O276 1.263 . S
O275 Co272 1.970 . S
O275 C274 1.258 . S
O276 Co273 1.966 . S
O276 C274 1.263 . S
C277 O278 1.235 . S
C277 O304 1.289 . S
O278 C277 1.235 . S
C279 C281 1.400 . S
C279 N282 1.351 . S
C279 C284 1.501 . S
C280 C281 1.387 . S
C280 N283 1.341 . S
C281 C279 1.400 . S
C281 C280 1.387 . S
N282 Co273 2.022 . S
N282 C279 1.351 . S
N282 N283 1.365 . S
N283 C280 1.341 . S
N283 N282 1.365 . S
N283 H303 0.862 . S
C284 C279 1.501 . S
C284 H285 0.961 . S
C284 H286 0.961 1_565 S
C284 H287 0.960 . S
H285 C284 0.961 . S
H286 C284 0.961 1_545 S
H287 C284 0.960 . S
C288 N289 1.342 . S
C288 C292 1.401 . S
C288 C293 1.499 . S
N289 Co272 1.989 . S
N289 C288 1.342 . S
N289 N290 1.388 . S
N290 Co273 1.993 . S
N290 N289 1.388 . S
N290 C291 1.346 . S
C291 N290 1.346 . S
C291 C292 1.396 . S
C291 C301 1.510 . S
C292 C288 1.401 . S
C292 C291 1.396 . S
C293 C288 1.499 . S
C293 H294 0.959 . S
C293 H295 0.960 . S
C293 H296 0.961 . S
H294 C293 0.959 . S
H295 C293 0.960 . S
H296 C293 0.961 . S
O297 Co272 1.967 . S
O297 C305 1.258 . S
O298 Co273 1.941 . S
O298 C305 1.266 . S
H299 C301 0.959 . S
H300 C301 0.961 . S
C301 C291 1.510 . S
C301 H299 0.959 . S
C301 H300 0.961 . S
C301 H302 0.960 . S
H302 C301 0.960 . S
H303 N283 0.862 . S
O304 Co272 1.920 . S
O304 C277 1.289 . S
C305 O297 1.258 . S
C305 O298 1.266 . S
Co306 O309 1.970 . S
Co306 N323 1.989 . S
Co306 O331 1.967 . S
Co306 O338 1.920 . S
Co307 O310 1.966 . S
Co307 N316 2.022 . S
Co307 N324 1.993 . S
Co307 O332 1.941 . S
C308 O309 1.258 . S
C308 O310 1.263 . S
O309 Co306 1.970 . S
O309 C308 1.258 . S
O310 Co307 1.966 . S
O310 C308 1.263 . S
C311 O312 1.235 . S
C311 O338 1.289 . S
O312 C311 1.235 . S
C313 C315 1.400 . S
C313 N316 1.351 . S
C313 C318 1.501 . S
C314 C315 1.387 . S
C314 N317 1.341 . S
C315 C313 1.400 . S
C315 C314 1.387 . S
N316 Co307 2.022 . S
N316 C313 1.351 . S
N316 N317 1.365 . S
N317 C314 1.341 . S
N317 N316 1.365 . S
N317 H337 0.862 . S
C318 C313 1.501 . S
C318 H319 0.961 . S
C318 H320 0.961 . S
C318 H321 0.960 . S
H319 C318 0.961 . S
H320 C318 0.961 . S
H321 C318 0.960 . S
C322 N323 1.342 . S
C322 C326 1.401 . S
C322 C327 1.499 . S
N323 Co306 1.989 . S
N323 C322 1.342 . S
N323 N324 1.388 . S
N324 Co307 1.993 . S
N324 N323 1.388 . S
N324 C325 1.346 . S
C325 N324 1.346 . S
C325 C326 1.396 . S
C325 C335 1.510 . S
C326 C322 1.401 . S
C326 C325 1.396 . S
C327 C322 1.499 . S
C327 H328 0.959 . S
C327 H329 0.960 . S
C327 H330 0.961 . S
H328 C327 0.959 . S
H329 C327 0.960 . S
H330 C327 0.961 . S
O331 Co306 1.967 . S
O331 C339 1.258 . S
O332 Co307 1.941 . S
O332 C339 1.266 . S
H333 C335 0.959 . S
H334 C335 0.961 . S
C335 C325 1.510 . S
C335 H333 0.959 . S
C335 H334 0.961 . S
C335 H336 0.960 . S
H336 C335 0.960 . S
H337 N317 0.862 . S
O338 Co306 1.920 . S
O338 C311 1.289 . S
C339 O331 1.258 . S
C339 O332 1.266 . S
Co340 O343 1.970 . S
Co340 N357 1.989 . S
Co340 O365 1.967 . S
Co340 O372 1.920 . S
Co341 O344 1.966 . S
Co341 N350 2.022 . S
Co341 N358 1.993 . S
Co341 O366 1.941 . S
C342 O343 1.258 . S
C342 O344 1.263 . S
O343 Co340 1.970 . S
O343 C342 1.258 . S
O344 Co341 1.966 . S
O344 C342 1.263 . S
C345 O346 1.235 . S
C345 O372 1.289 . S
O346 C345 1.235 . S
C347 C349 1.400 . S
C347 N350 1.351 . S
C347 C352 1.501 . S
C348 C349 1.387 . S
C348 N351 1.341 . S
C349 C347 1.400 . S
C349 C348 1.387 . S
N350 Co341 2.022 . S
N350 C347 1.351 . S
N350 N351 1.365 . S
N351 C348 1.341 . S
N351 N350 1.365 . S
N351 H371 0.862 . S
C352 C347 1.501 . S
C352 H353 0.961 . S
C352 H354 0.961 . S
C352 H355 0.960 . S
H353 C352 0.961 . S
H354 C352 0.961 . S
H355 C352 0.960 . S
C356 N357 1.342 . S
C356 C360 1.401 1_655 S
C356 C361 1.499 1_655 S
N357 Co340 1.989 . S
N357 C356 1.342 . S
N357 N358 1.388 . S
N358 Co341 1.993 . S
N358 N357 1.388 . S
N358 C359 1.363 . S
C359 N358 1.363 . S
C359 C360 1.385 1_655 S
C359 C369 1.505 1_655 S
C360 C356 1.401 1_455 S
C360 C359 1.385 1_455 S
C361 C356 1.499 1_455 S
C361 H362 0.959 1_455 S
C361 H363 0.960 . S
C361 H364 0.961 . S
H362 C361 0.959 1_655 S
H363 C361 0.960 . S
H364 C361 0.961 . S
O365 Co340 1.967 . S
O365 C373 1.258 . S
O366 Co341 1.941 . S
O366 C373 1.266 . S
H367 C369 0.959 . S
H368 C369 0.961 . S
C369 C359 1.505 1_455 S
C369 H367 0.959 . S
C369 H368 0.961 . S
C369 H370 0.960 1_455 S
H370 C369 0.960 1_655 S
H371 N351 0.862 . S
O372 Co340 1.920 . S
O372 C345 1.289 . S
C373 O365 1.258 . S
C373 O366 1.266 . S
Co374 O377 1.970 . S
Co374 N391 1.989 . S
Co374 O399 1.967 . S
Co374 O406 1.920 . S
Co375 O378 1.966 . S
Co375 N384 2.022 . S
Co375 N392 1.993 . S
Co375 O400 1.941 . S
C376 O377 1.258 . S
C376 O378 1.263 . S
O377 Co374 1.970 . S
O377 C376 1.258 . S
O378 Co375 1.966 . S
O378 C376 1.263 . S
C379 O380 1.235 . S
C379 O406 1.289 . S
O380 C379 1.235 . S
C381 C383 1.400 . S
C381 N384 1.351 . S
C381 C386 1.501 . S
C382 C383 1.387 . S
C382 N385 1.341 . S
C383 C381 1.400 . S
C383 C382 1.387 . S
N384 Co375 2.022 . S
N384 C381 1.351 . S
N384 N385 1.365 . S
N385 C382 1.341 . S
N385 N384 1.365 . S
N385 H405 0.862 . S
C386 C381 1.501 . S
C386 H387 0.961 . S
C386 H388 0.961 1_655 S
C386 H389 0.960 . S
H387 C386 0.961 . S
H388 C386 0.961 1_455 S
H389 C386 0.960 . S
C390 N391 1.342 . S
C390 C394 1.401 1_565 S
C390 C395 1.499 1_565 S
N391 Co374 1.989 . S
N391 C390 1.342 . S
N391 N392 1.388 . S
N392 Co375 1.993 . S
N392 N391 1.388 . S
N392 C393 1.363 . S
C393 N392 1.363 . S
C393 C394 1.385 1_565 S
C393 C403 1.505 1_565 S
C394 C390 1.401 1_545 S
C394 C393 1.385 1_545 S
C395 C390 1.499 1_545 S
C395 H396 0.959 1_545 S
C395 H397 0.960 . S
C395 H398 0.961 . S
H396 C395 0.959 1_565 S
H397 C395 0.960 . S
H398 C395 0.961 . S
O399 Co374 1.967 . S
O399 C407 1.258 . S
O400 Co375 1.941 . S
O400 C407 1.266 . S
H401 C403 0.959 . S
H402 C403 0.961 . S
C403 C393 1.505 1_545 S
C403 H401 0.959 . S
C403 H402 0.961 . S
C403 H404 0.960 1_545 S
H404 C403 0.960 1_565 S
H405 N385 0.862 . S
O406 Co374 1.920 . S
O406 C379 1.289 . S
C407 O399 1.258 . S
C407 O400 1.266 . S
Co408 O411 1.970 . S
Co408 N425 1.989 . S
Co408 O433 1.967 . S
Co408 O440 1.920 . S
Co409 O412 1.966 . S
Co409 N418 2.022 . S
Co409 N426 1.993 . S
Co409 O434 1.941 . S
C410 O411 1.258 . S
C410 O412 1.263 . S
O411 Co408 1.970 . S
O411 C410 1.258 . S
O412 Co409 1.966 . S
O412 C410 1.263 . S
C413 O414 1.235 . S
C413 O440 1.289 . S
O414 C413 1.235 . S
C415 C417 1.400 . S
C415 N418 1.351 . S
C415 C420 1.501 . S
C416 C417 1.387 . S
C416 N419 1.341 . S
C417 C415 1.400 . S
C417 C416 1.387 . S
N418 Co409 2.022 . S
N418 C415 1.351 . S
N418 N419 1.365 . S
N419 C416 1.341 . S
N419 N418 1.365 . S
N419 H439 0.862 . S
C420 C415 1.501 . S
C420 H421 0.961 . S
C420 H422 0.961 . S
C420 H423 0.960 . S
H421 C420 0.961 . S
H422 C420 0.961 . S
H423 C420 0.960 . S
C424 N425 1.342 . S
C424 C428 1.401 . S
C424 C429 1.499 . S
N425 Co408 1.989 . S
N425 C424 1.342 . S
N425 N426 1.388 . S
N426 Co409 1.993 . S
N426 N425 1.388 . S
N426 C427 1.346 . S
C427 N426 1.346 . S
C427 C428 1.396 . S
C427 C437 1.510 . S
C428 C424 1.401 . S
C428 C427 1.396 . S
C429 C424 1.499 . S
C429 H430 0.959 . S
C429 H431 0.960 . S
C429 H432 0.961 . S
H430 C429 0.959 . S
H431 C429 0.960 . S
H432 C429 0.961 . S
O433 Co408 1.967 . S
O433 C441 1.258 . S
O434 Co409 1.941 . S
O434 C441 1.266 . S
H435 C437 0.959 . S
H436 C437 0.961 . S
C437 C427 1.510 . S
C437 H435 0.959 . S
C437 H436 0.961 . S
C437 H438 0.960 . S
H438 C437 0.960 . S
H439 N419 0.862 . S
O440 Co408 1.920 . S
O440 C413 1.289 . S
C441 O433 1.258 . S
C441 O434 1.266 . S
Co442 O445 1.970 . S
Co442 N459 1.989 . S
Co442 O467 1.967 . S
Co442 O474 1.920 . S
Co443 O446 1.966 . S
Co443 N452 2.022 . S
Co443 N460 1.993 . S
Co443 O468 1.941 . S
C444 O445 1.258 . S
C444 O446 1.263 . S
O445 Co442 1.970 . S
O445 C444 1.258 . S
O446 Co443 1.966 . S
O446 C444 1.263 . S
C447 O448 1.235 . S
C447 O474 1.289 . S
O448 C447 1.235 . S
C449 C451 1.400 . S
C449 N452 1.351 . S
C449 C454 1.501 . S
C450 C451 1.387 . S
C450 N453 1.341 . S
C451 C449 1.400 . S
C451 C450 1.387 . S
N452 Co443 2.022 . S
N452 C449 1.351 . S
N452 N453 1.365 . S
N453 C450 1.341 . S
N453 N452 1.365 . S
N453 H473 0.862 . S
C454 C449 1.501 . S
C454 H455 0.961 . S
C454 H456 0.961 1_655 S
C454 H457 0.960 . S
H455 C454 0.961 . S
H456 C454 0.961 1_455 S
H457 C454 0.960 . S
C458 N459 1.342 . S
C458 C462 1.401 . S
C458 C463 1.499 . S
N459 Co442 1.989 . S
N459 C458 1.342 . S
N459 N460 1.388 . S
N460 Co443 1.993 . S
N460 N459 1.388 . S
N460 C461 1.346 . S
C461 N460 1.346 . S
C461 C462 1.396 . S
C461 C471 1.510 . S
C462 C458 1.401 . S
C462 C461 1.396 . S
C463 C458 1.499 . S
C463 H464 0.959 . S
C463 H465 0.960 . S
C463 H466 0.961 . S
H464 C463 0.959 . S
H465 C463 0.960 . S
H466 C463 0.961 . S
O467 Co442 1.967 . S
O467 C475 1.258 . S
O468 Co443 1.941 . S
O468 C475 1.266 . S
H469 C471 0.959 . S
H470 C471 0.961 . S
C471 C461 1.510 . S
C471 H469 0.959 . S
C471 H470 0.961 . S
C471 H472 0.960 . S
H472 C471 0.960 . S
H473 N453 0.862 . S
O474 Co442 1.920 . S
O474 C447 1.289 . S
C475 O467 1.258 . S
C475 O468 1.266 . S
Co476 O479 1.970 . S
Co476 N493 1.989 . S
Co476 O501 1.967 . S
Co476 O508 1.920 . S
Co477 O480 1.966 . S
Co477 N486 2.022 . S
Co477 N494 1.993 . S
Co477 O502 1.941 . S
C478 O479 1.258 . S
C478 O480 1.263 . S
O479 Co476 1.970 . S
O479 C478 1.258 . S
O480 Co477 1.966 . S
O480 C478 1.263 . S
C481 O482 1.235 . S
C481 O508 1.289 . S
O482 C481 1.235 . S
C483 C485 1.400 . S
C483 N486 1.351 . S
C483 C488 1.501 . S
C484 C485 1.387 . S
C484 N487 1.341 . S
C485 C483 1.400 . S
C485 C484 1.387 . S
N486 Co477 2.022 . S
N486 C483 1.351 . S
N486 N487 1.365 . S
N487 C484 1.341 . S
N487 N486 1.365 . S
N487 H507 0.862 . S
C488 C483 1.501 . S
C488 H489 0.961 . S
C488 H490 0.961 1_565 S
C488 H491 0.960 . S
H489 C488 0.961 . S
H490 C488 0.961 1_545 S
H491 C488 0.960 . S
C492 N493 1.342 . S
C492 C496 1.401 1_655 S
C492 C497 1.499 1_655 S
N493 Co476 1.989 . S
N493 C492 1.342 . S
N493 N494 1.388 . S
N494 Co477 1.993 . S
N494 N493 1.388 . S
N494 C495 1.363 . S
C495 N494 1.363 . S
C495 C496 1.385 1_655 S
C495 C505 1.505 1_655 S
C496 C492 1.401 1_455 S
C496 C495 1.385 1_455 S
C497 C492 1.499 1_455 S
C497 H498 0.959 1_455 S
C497 H499 0.960 . S
C497 H500 0.961 . S
H498 C497 0.959 1_655 S
H499 C497 0.960 . S
H500 C497 0.961 . S
O501 Co476 1.967 . S
O501 C509 1.258 . S
O502 Co477 1.941 . S
O502 C509 1.266 . S
H503 C505 0.959 . S
H504 C505 0.961 . S
C505 C495 1.505 1_455 S
C505 H503 0.959 . S
C505 H504 0.961 . S
C505 H506 0.960 1_455 S
H506 C505 0.960 1_655 S
H507 N487 0.862 . S
O508 Co476 1.920 . S
O508 C481 1.289 . S
C509 O501 1.258 . S
C509 O502 1.266 . S
Co510 O513 1.970 . S
Co510 N527 1.989 . S
Co510 O535 1.967 . S
Co510 O542 1.920 . S
Co511 O514 1.966 . S
Co511 N520 2.022 . S
Co511 N528 1.993 . S
Co511 O536 1.941 . S
C512 O513 1.258 . S
C512 O514 1.263 . S
O513 Co510 1.970 . S
O513 C512 1.258 . S
O514 Co511 1.966 . S
O514 C512 1.263 . S
C515 O516 1.235 . S
C515 O542 1.289 . S
O516 C515 1.235 . S
C517 C519 1.400 . S
C517 N520 1.351 . S
C517 C522 1.501 . S
C518 C519 1.387 . S
C518 N521 1.341 . S
C519 C517 1.400 . S
C519 C518 1.387 . S
N520 Co511 2.022 . S
N520 C517 1.351 . S
N520 N521 1.365 . S
N521 C518 1.341 . S
N521 N520 1.365 . S
N521 H541 0.862 . S
C522 C517 1.501 . S
C522 H523 0.961 . S
C522 H524 0.961 . S
C522 H525 0.960 . S
H523 C522 0.961 . S
H524 C522 0.961 . S
H525 C522 0.960 . S
C526 N527 1.342 . S
C526 C530 1.401 1_565 S
C526 C531 1.499 1_565 S
N527 Co510 1.989 . S
N527 C526 1.342 . S
N527 N528 1.388 . S
N528 Co511 1.993 . S
N528 N527 1.388 . S
N528 C529 1.363 . S
C529 N528 1.363 . S
C529 C530 1.385 1_565 S
C529 C539 1.505 1_565 S
C530 C526 1.401 1_545 S
C530 C529 1.385 1_545 S
C531 C526 1.499 1_545 S
C531 H532 0.959 1_545 S
C531 H533 0.960 . S
C531 H534 0.961 . S
H532 C531 0.959 1_565 S
H533 C531 0.960 . S
H534 C531 0.961 . S
O535 Co510 1.967 . S
O535 C543 1.258 . S
O536 Co511 1.941 . S
O536 C543 1.266 . S
H537 C539 0.959 . S
H538 C539 0.961 . S
C539 C529 1.505 1_545 S
C539 H537 0.959 . S
C539 H538 0.961 . S
C539 H540 0.960 1_545 S
H540 C539 0.960 1_565 S
H541 N521 0.862 . S
O542 Co510 1.920 . S
O542 C515 1.289 . S
C543 O535 1.258 . S
C543 O536 1.266 . S
H544 C562 0.951 . S
H545 C564 0.951 . S
H546 C566 0.950 . S
H547 C567 0.950 . S
H548 C569 0.950 . S
H549 C572 0.950 . S
H550 C573 0.950 . S
H551 C575 0.950 . S
H552 C576 0.950 . S
H553 C577 0.951 . S
H554 C579 0.951 . S
H555 C581 0.950 . S
H556 C582 0.950 . S
H557 C584 0.950 . S
H558 C587 0.950 1_545 S
H559 C588 0.950 . S
H560 C590 0.950 . S
H561 C591 0.950 . S
C562 H544 0.951 . S
C562 C563 1.366 . S
C562 C564 1.388 . S
C563 C562 1.366 . S
C563 C567 1.385 . S
C564 H545 0.951 . S
C564 C562 1.388 . S
C564 C565 1.366 . S
C565 C564 1.366 . S
C565 C566 1.414 . S
C565 C568 1.499 . S
C566 H546 0.950 . S
C566 C565 1.414 . S
C566 C567 1.374 . S
C567 H547 0.950 . S
C567 C563 1.385 . S
C567 C566 1.374 . S
C568 C565 1.499 . S
C568 C569 1.373 . S
C568 C570 1.389 . S
C569 H548 0.950 . S
C569 C568 1.373 . S
C569 C585 1.377 . S
C570 C568 1.389 . S
C570 C571 1.524 . S
C570 C584 1.377 . S
C571 C570 1.524 . S
C571 C572 1.397 . S
C571 C576 1.363 . S
C572 H549 0.950 . S
C572 C571 1.397 . S
C572 C573 1.334 . S
C573 H550 0.950 . S
C573 C572 1.334 . S
C573 C574 1.287 . S
C574 C573 1.287 . S
C574 C575 1.524 . S
C574 H593 0.913 . S
C575 H551 0.950 . S
C575 C574 1.524 . S
C575 C576 1.415 . S
C576 H552 0.950 . S
C576 C571 1.363 . S
C576 C575 1.415 . S
C577 H553 0.951 . S
C577 C578 1.366 . S
C577 C579 1.388 . S
C578 C577 1.366 . S
C578 C582 1.385 . S
C579 H554 0.951 . S
C579 C577 1.388 . S
C579 C580 1.366 . S
C580 C579 1.366 . S
C580 C581 1.414 . S
C580 C583 1.499 . S
C581 H555 0.950 . S
C581 C580 1.414 . S
C581 C582 1.374 . S
C582 H556 0.950 . S
C582 C578 1.385 . S
C582 C581 1.374 . S
C583 C580 1.499 . S
C583 C584 1.373 . S
C583 C585 1.389 . S
C584 H557 0.950 . S
C584 C570 1.377 . S
C584 C583 1.373 . S
C585 C569 1.377 . S
C585 C583 1.389 . S
C585 C586 1.524 . S
C586 C585 1.524 . S
C586 C587 1.397 1_545 S
C586 C591 1.363 1_545 S
C587 H558 0.950 1_565 S
C587 C586 1.397 1_565 S
C587 C588 1.334 . S
C588 H559 0.950 . S
C588 C587 1.334 . S
C588 C589 1.287 . S
C589 C588 1.287 . S
C589 C590 1.524 . S
C589 H592 0.999 . S
C590 H560 0.950 . S
C590 C589 1.524 . S
C590 C591 1.415 . S
C591 H561 0.950 . S
C591 C586 1.363 1_565 S
C591 C590 1.415 . S
H592 C589 0.999 . S
H593 C574 0.913 . S
H594 C612 0.951 . S
H595 C614 0.951 . S
H596 C616 0.950 . S
H597 C617 0.950 . S
H598 C619 0.950 . S
H599 C622 0.950 . S
H600 C623 0.950 . S
H601 C625 0.950 . S
H602 C626 0.950 . S
H603 C627 0.951 . S
H604 C629 0.951 . S
H605 C631 0.950 . S
H606 C632 0.950 . S
H607 C634 0.950 . S
H608 C637 0.950 . S
H609 C638 0.950 . S
H610 C640 0.950 . S
H611 C641 0.950 . S
C612 H594 0.951 . S
C612 C613 1.366 . S
C612 C614 1.388 . S
C613 C612 1.366 . S
C613 C617 1.385 . S
C614 H595 0.951 . S
C614 C612 1.388 . S
C614 C615 1.366 . S
C615 C614 1.366 . S
C615 C616 1.414 . S
C615 C618 1.499 . S
C616 H596 0.950 . S
C616 C615 1.414 . S
C616 C617 1.374 . S
C617 H597 0.950 . S
C617 C613 1.385 . S
C617 C616 1.374 . S
C618 C615 1.499 . S
C618 C619 1.373 . S
C618 C620 1.389 . S
C619 H598 0.950 . S
C619 C618 1.373 . S
C619 C635 1.377 . S
C620 C618 1.389 . S
C620 C621 1.524 . S
C620 C634 1.377 . S
C621 C620 1.524 . S
C621 C622 1.397 . S
C621 C626 1.363 . S
C622 H599 0.950 . S
C622 C621 1.397 . S
C622 C623 1.334 . S
C623 H600 0.950 . S
C623 C622 1.334 . S
C623 C624 1.287 . S
C624 C623 1.287 . S
C624 C625 1.524 . S
C624 H643 0.913 . S
C625 H601 0.950 . S
C625 C624 1.524 . S
C625 C626 1.415 . S
C626 H602 0.950 . S
C626 C621 1.363 . S
C626 C625 1.415 . S
C627 H603 0.951 . S
C627 C628 1.366 . S
C627 C629 1.388 . S
C628 C627 1.366 . S
C628 C632 1.385 . S
C629 H604 0.951 . S
C629 C627 1.388 . S
C629 C630 1.366 . S
C630 C629 1.366 . S
C630 C631 1.414 . S
C630 C633 1.499 . S
C631 H605 0.950 . S
C631 C630 1.414 . S
C631 C632 1.374 . S
C632 H606 0.950 . S
C632 C628 1.385 . S
C632 C631 1.374 . S
C633 C630 1.499 . S
C633 C634 1.373 . S
C633 C635 1.389 . S
C634 H607 0.950 . S
C634 C620 1.377 . S
C634 C633 1.373 . S
C635 C619 1.377 . S
C635 C633 1.389 . S
C635 C636 1.524 . S
C636 C635 1.524 . S
C636 C637 1.397 . S
C636 C641 1.363 . S
C637 H608 0.950 . S
C637 C636 1.397 . S
C637 C638 1.334 . S
C638 H609 0.950 . S
C638 C637 1.334 . S
C638 C639 1.287 . S
C639 C638 1.287 . S
C639 C640 1.524 . S
C639 H642 0.999 . S
C640 H610 0.950 . S
C640 C639 1.524 . S
C640 C641 1.415 . S
C641 H611 0.950 . S
C641 C636 1.363 . S
C641 C640 1.415 . S
H642 C639 0.999 . S
H643 C624 0.913 . S
H644 C662 0.951 . S
H645 C664 0.951 . S
H646 C666 0.950 . S
H647 C667 0.950 . S
H648 C669 0.950 . S
H649 C672 0.950 . S
H650 C673 0.950 . S
H651 C675 0.950 . S
H652 C676 0.950 . S
H653 C677 0.951 . S
H654 C679 0.951 . S
H655 C681 0.950 . S
H656 C682 0.950 . S
H657 C684 0.950 . S
H658 C687 0.950 . S
H659 C688 0.950 . S
H660 C690 0.950 1_655 S
H661 C691 0.950 1_655 S
C662 H644 0.951 . S
C662 C663 1.366 . S
C662 C664 1.388 . S
C663 C662 1.366 . S
C663 C667 1.385 . S
C664 H645 0.951 . S
C664 C662 1.388 . S
C664 C665 1.366 . S
C665 C664 1.366 . S
C665 C666 1.414 . S
C665 C668 1.499 . S
C666 H646 0.950 . S
C666 C665 1.414 . S
C666 C667 1.374 . S
C667 H647 0.950 . S
C667 C663 1.385 . S
C667 C666 1.374 . S
C668 C665 1.499 . S
C668 C669 1.373 . S
C668 C670 1.389 . S
C669 H648 0.950 . S
C669 C668 1.373 . S
C669 C685 1.377 . S
C670 C668 1.389 . S
C670 C671 1.524 . S
C670 C684 1.377 . S
C671 C670 1.524 . S
C671 C672 1.397 . S
C671 C676 1.363 . S
C672 H649 0.950 . S
C672 C671 1.397 . S
C672 C673 1.334 . S
C673 H650 0.950 . S
C673 C672 1.334 . S
C673 C674 1.287 . S
C674 C673 1.287 . S
C674 C675 1.524 . S
C674 H693 0.913 . S
C675 H651 0.950 . S
C675 C674 1.524 . S
C675 C676 1.415 . S
C676 H652 0.950 . S
C676 C671 1.363 . S
C676 C675 1.415 . S
C677 H653 0.951 . S
C677 C678 1.366 . S
C677 C679 1.388 . S
C678 C677 1.366 . S
C678 C682 1.385 . S
C679 H654 0.951 . S
C679 C677 1.388 . S
C679 C680 1.366 . S
C680 C679 1.366 . S
C680 C681 1.414 . S
C680 C683 1.499 . S
C681 H655 0.950 . S
C681 C680 1.414 . S
C681 C682 1.374 . S
C682 H656 0.950 . S
C682 C678 1.385 . S
C682 C681 1.374 . S
C683 C680 1.499 . S
C683 C684 1.373 . S
C683 C685 1.389 . S
C684 H657 0.950 . S
C684 C670 1.377 . S
C684 C683 1.373 . S
C685 C669 1.377 . S
C685 C683 1.389 . S
C685 C686 1.524 . S
C686 C685 1.524 . S
C686 C687 1.397 . S
C686 C691 1.363 . S
C687 H658 0.950 . S
C687 C686 1.397 . S
C687 C688 1.334 . S
C688 H659 0.950 . S
C688 C687 1.334 . S
C688 C689 1.287 . S
C689 C688 1.287 . S
C689 C690 1.524 . S
C689 H692 0.999 . S
C690 H660 0.950 1_455 S
C690 C689 1.524 . S
C690 C691 1.415 . S
C691 H661 0.950 1_455 S
C691 C686 1.363 . S
C691 C690 1.415 . S
H692 C689 0.999 . S
H693 C674 0.913 . S
H694 C712 0.951 . S
H695 C714 0.951 . S
H696 C716 0.950 . S
H697 C717 0.950 . S
H698 C719 0.950 . S
H699 C722 0.950 . S
H700 C723 0.950 . S
H701 C725 0.950 . S
H702 C726 0.950 . S
H703 C727 0.951 . S
H704 C729 0.951 . S
H705 C731 0.950 . S
H706 C732 0.950 . S
H707 C734 0.950 . S
H708 C737 0.950 1_545 S
H709 C738 0.950 . S
H710 C740 0.950 . S
H711 C741 0.950 . S
C712 H694 0.951 . S
C712 C713 1.366 . S
C712 C714 1.388 . S
C713 C712 1.366 . S
C713 C717 1.385 . S
C714 H695 0.951 . S
C714 C712 1.388 . S
C714 C715 1.366 . S
C715 C714 1.366 . S
C715 C716 1.414 . S
C715 C718 1.499 . S
C716 H696 0.950 . S
C716 C715 1.414 . S
C716 C717 1.374 . S
C717 H697 0.950 . S
C717 C713 1.385 . S
C717 C716 1.374 . S
C718 C715 1.499 . S
C718 C719 1.373 . S
C718 C720 1.389 . S
C719 H698 0.950 . S
C719 C718 1.373 . S
C719 C735 1.377 . S
C720 C718 1.389 . S
C720 C721 1.524 . S
C720 C734 1.377 . S
C721 C720 1.524 . S
C721 C722 1.397 . S
C721 C726 1.363 . S
C722 H699 0.950 . S
C722 C721 1.397 . S
C722 C723 1.334 . S
C723 H700 0.950 . S
C723 C722 1.334 . S
C723 C724 1.287 . S
C724 C723 1.287 . S
C724 C725 1.524 . S
C724 H743 0.913 . S
C725 H701 0.950 . S
C725 C724 1.524 . S
C725 C726 1.415 . S
C726 H702 0.950 . S
C726 C721 1.363 . S
C726 C725 1.415 . S
C727 H703 0.951 . S
C727 C728 1.366 . S
C727 C729 1.388 . S
C728 C727 1.366 . S
C728 C732 1.385 . S
C729 H704 0.951 . S
C729 C727 1.388 . S
C729 C730 1.366 . S
C730 C729 1.366 . S
C730 C731 1.414 . S
C730 C733 1.499 . S
C731 H705 0.950 . S
C731 C730 1.414 . S
C731 C732 1.374 . S
C732 H706 0.950 . S
C732 C728 1.385 . S
C732 C731 1.374 . S
C733 C730 1.499 . S
C733 C734 1.373 . S
C733 C735 1.389 . S
C734 H707 0.950 . S
C734 C720 1.377 . S
C734 C733 1.373 . S
C735 C719 1.377 . S
C735 C733 1.389 . S
C735 C736 1.524 . S
C736 C735 1.524 . S
C736 C737 1.397 1_545 S
C736 C741 1.363 1_545 S
C737 H708 0.950 1_565 S
C737 C736 1.397 1_565 S
C737 C738 1.334 . S
C738 H709 0.950 . S
C738 C737 1.334 . S
C738 C739 1.287 . S
C739 C738 1.287 . S
C739 C740 1.524 . S
C739 H742 0.999 . S
C740 H710 0.950 . S
C740 C739 1.524 . S
C740 C741 1.415 . S
C741 H711 0.950 . S
C741 C736 1.363 1_565 S
C741 C740 1.415 . S
H742 C739 0.999 . S
H743 C724 0.913 . S
H744 C762 0.951 . S
H745 C764 0.951 . S
H746 C766 0.950 . S
H747 C767 0.950 . S
H748 C769 0.950 . S
H749 C772 0.950 . S
H750 C773 0.950 . S
H751 C775 0.950 . S
H752 C776 0.950 . S
H753 C777 0.951 . S
H754 C779 0.951 . S
H755 C781 0.950 . S
H756 C782 0.950 . S
H757 C784 0.950 . S
H758 C787 0.950 . S
H759 C788 0.950 . S
H760 C790 0.950 . S
H761 C791 0.950 . S
C762 H744 0.951 . S
C762 C763 1.366 . S
C762 C764 1.388 . S
C763 C762 1.366 . S
C763 C767 1.385 . S
C764 H745 0.951 . S
C764 C762 1.388 . S
C764 C765 1.366 . S
C765 C764 1.366 . S
C765 C766 1.414 . S
C765 C768 1.499 . S
C766 H746 0.950 . S
C766 C765 1.414 . S
C766 C767 1.374 . S
C767 H747 0.950 . S
C767 C763 1.385 . S
C767 C766 1.374 . S
C768 C765 1.499 . S
C768 C769 1.373 . S
C768 C770 1.389 . S
C769 H748 0.950 . S
C769 C768 1.373 . S
C769 C785 1.377 . S
C770 C768 1.389 . S
C770 C771 1.524 . S
C770 C784 1.377 . S
C771 C770 1.524 . S
C771 C772 1.397 . S
C771 C776 1.363 . S
C772 H749 0.950 . S
C772 C771 1.397 . S
C772 C773 1.334 . S
C773 H750 0.950 . S
C773 C772 1.334 . S
C773 C774 1.287 . S
C774 C773 1.287 . S
C774 C775 1.524 . S
C774 H793 0.913 . S
C775 H751 0.950 . S
C775 C774 1.524 . S
C775 C776 1.415 . S
C776 H752 0.950 . S
C776 C771 1.363 . S
C776 C775 1.415 . S
C777 H753 0.951 . S
C777 C778 1.366 . S
C777 C779 1.388 . S
C778 C777 1.366 . S
C778 C782 1.385 . S
C779 H754 0.951 . S
C779 C777 1.388 . S
C779 C780 1.366 . S
C780 C779 1.366 . S
C780 C781 1.414 . S
C780 C783 1.499 . S
C781 H755 0.950 . S
C781 C780 1.414 . S
C781 C782 1.374 . S
C782 H756 0.950 . S
C782 C778 1.385 . S
C782 C781 1.374 . S
C783 C780 1.499 . S
C783 C784 1.373 . S
C783 C785 1.389 . S
C784 H757 0.950 . S
C784 C770 1.377 . S
C784 C783 1.373 . S
C785 C769 1.377 . S
C785 C783 1.389 . S
C785 C786 1.524 . S
C786 C785 1.524 . S
C786 C787 1.397 . S
C786 C791 1.363 1_565 S
C787 H758 0.950 . S
C787 C786 1.397 . S
C787 C788 1.334 . S
C788 H759 0.950 . S
C788 C787 1.334 . S
C788 C789 1.287 1_565 S
C789 C788 1.287 1_545 S
C789 C790 1.524 . S
C789 H792 0.999 . S
C790 H760 0.950 . S
C790 C789 1.524 . S
C790 C791 1.415 . S
C791 H761 0.950 . S
C791 C786 1.363 1_545 S
C791 C790 1.415 . S
H792 C789 0.999 . S
H793 C774 0.913 . S
H794 C812 0.951 . S
H795 C814 0.951 . S
H796 C816 0.950 . S
H797 C817 0.950 . S
H798 C819 0.950 . S
H799 C822 0.950 . S
H800 C823 0.950 . S
H801 C825 0.950 . S
H802 C826 0.950 . S
H803 C827 0.951 . S
H804 C829 0.951 . S
H805 C831 0.950 . S
H806 C832 0.950 . S
H807 C834 0.950 . S
H808 C837 0.950 . S
H809 C838 0.950 . S
H810 C840 0.950 . S
H811 C841 0.950 . S
C812 H794 0.951 . S
C812 C813 1.366 . S
C812 C814 1.388 . S
C813 C812 1.366 . S
C813 C817 1.385 . S
C814 H795 0.951 . S
C814 C812 1.388 . S
C814 C815 1.366 . S
C815 C814 1.366 . S
C815 C816 1.414 . S
C815 C818 1.499 . S
C816 H796 0.950 . S
C816 C815 1.414 . S
C816 C817 1.374 . S
C817 H797 0.950 . S
C817 C813 1.385 . S
C817 C816 1.374 . S
C818 C815 1.499 . S
C818 C819 1.373 . S
C818 C820 1.389 . S
C819 H798 0.950 . S
C819 C818 1.373 . S
C819 C835 1.377 . S
C820 C818 1.389 . S
C820 C821 1.524 . S
C820 C834 1.377 . S
C821 C820 1.524 . S
C821 C822 1.397 . S
C821 C826 1.363 . S
C822 H799 0.950 . S
C822 C821 1.397 . S
C822 C823 1.334 . S
C823 H800 0.950 . S
C823 C822 1.334 . S
C823 C824 1.287 . S
C824 C823 1.287 . S
C824 C825 1.524 . S
C824 H843 0.913 . S
C825 H801 0.950 . S
C825 C824 1.524 . S
C825 C826 1.415 . S
C826 H802 0.950 . S
C826 C821 1.363 . S
C826 C825 1.415 . S
C827 H803 0.951 . S
C827 C828 1.366 . S
C827 C829 1.388 . S
C828 C827 1.366 . S
C828 C832 1.385 . S
C829 H804 0.951 . S
C829 C827 1.388 . S
C829 C830 1.366 . S
C830 C829 1.366 . S
C830 C831 1.414 . S
C830 C833 1.499 . S
C831 H805 0.950 . S
C831 C830 1.414 . S
C831 C832 1.374 . S
C832 H806 0.950 . S
C832 C828 1.385 . S
C832 C831 1.374 . S
C833 C830 1.499 . S
C833 C834 1.373 . S
C833 C835 1.389 . S
C834 H807 0.950 . S
C834 C820 1.377 . S
C834 C833 1.373 . S
C835 C819 1.377 . S
C835 C833 1.389 . S
C835 C836 1.524 . S
C836 C835 1.524 . S
C836 C837 1.397 . S
C836 C841 1.363 . S
C837 H808 0.950 . S
C837 C836 1.397 . S
C837 C838 1.334 . S
C838 H809 0.950 . S
C838 C837 1.334 . S
C838 C839 1.287 . S
C839 C838 1.287 . S
C839 C840 1.524 . S
C839 H842 0.999 . S
C840 H810 0.950 . S
C840 C839 1.524 . S
C840 C841 1.415 . S
C841 H811 0.950 . S
C841 C836 1.363 . S
C841 C840 1.415 . S
H842 C839 0.999 . S
H843 C824 0.913 . S
H844 C862 0.951 . S
H845 C864 0.951 . S
H846 C866 0.950 . S
H847 C867 0.950 . S
H848 C869 0.950 . S
H849 C872 0.950 . S
H850 C873 0.950 . S
H851 C875 0.950 . S
H852 C876 0.950 . S
H853 C877 0.951 . S
H854 C879 0.951 . S
H855 C881 0.950 . S
H856 C882 0.950 . S
H857 C884 0.950 . S
H858 C887 0.950 . S
H859 C888 0.950 . S
H860 C890 0.950 . S
H861 C891 0.950 . S
C862 H844 0.951 . S
C862 C863 1.366 . S
C862 C864 1.388 . S
C863 C862 1.366 . S
C863 C867 1.385 . S
C864 H845 0.951 . S
C864 C862 1.388 . S
C864 C865 1.366 . S
C865 C864 1.366 . S
C865 C866 1.414 . S
C865 C868 1.499 . S
C866 H846 0.950 . S
C866 C865 1.414 . S
C866 C867 1.374 . S
C867 H847 0.950 . S
C867 C863 1.385 . S
C867 C866 1.374 . S
C868 C865 1.499 . S
C868 C869 1.373 . S
C868 C870 1.389 . S
C869 H848 0.950 . S
C869 C868 1.373 . S
C869 C885 1.377 . S
C870 C868 1.389 . S
C870 C871 1.524 . S
C870 C884 1.377 . S
C871 C870 1.524 . S
C871 C872 1.397 . S
C871 C876 1.363 1_655 S
C872 H849 0.950 . S
C872 C871 1.397 . S
C872 C873 1.334 . S
C873 H850 0.950 . S
C873 C872 1.334 . S
C873 C874 1.287 . S
C874 C873 1.287 . S
C874 C875 1.524 1_655 S
C874 H893 0.913 1_655 S
C875 H851 0.950 . S
C875 C874 1.524 1_455 S
C875 C876 1.415 . S
C876 H852 0.950 . S
C876 C871 1.363 1_455 S
C876 C875 1.415 . S
C877 H853 0.951 . S
C877 C878 1.366 . S
C877 C879 1.388 . S
C878 C877 1.366 . S
C878 C882 1.385 . S
C879 H854 0.951 . S
C879 C877 1.388 . S
C879 C880 1.366 . S
C880 C879 1.366 . S
C880 C881 1.414 . S
C880 C883 1.499 . S
C881 H855 0.950 . S
C881 C880 1.414 . S
C881 C882 1.374 . S
C882 H856 0.950 . S
C882 C878 1.385 . S
C882 C881 1.374 . S
C883 C880 1.499 . S
C883 C884 1.373 . S
C883 C885 1.389 . S
C884 H857 0.950 . S
C884 C870 1.377 . S
C884 C883 1.373 . S
C885 C869 1.377 . S
C885 C883 1.389 . S
C885 C886 1.524 . S
C886 C885 1.524 . S
C886 C887 1.397 . S
C886 C891 1.363 . S
C887 H858 0.950 . S
C887 C886 1.397 . S
C887 C888 1.334 . S
C888 H859 0.950 . S
C888 C887 1.334 . S
C888 C889 1.287 . S
C889 C888 1.287 . S
C889 C890 1.524 . S
C889 H892 0.999 . S
C890 H860 0.950 . S
C890 C889 1.524 . S
C890 C891 1.415 . S
C891 H861 0.950 . S
C891 C886 1.363 . S
C891 C890 1.415 . S
H892 C889 0.999 . S
H893 C874 0.913 1_455 S
H894 C912 0.951 . S
H895 C914 0.951 . S
H896 C916 0.950 . S
H897 C917 0.950 . S
H898 C919 0.950 . S
H899 C922 0.950 . S
H900 C923 0.950 . S
H901 C925 0.950 . S
H902 C926 0.950 . S
H903 C927 0.951 . S
H904 C929 0.951 . S
H905 C931 0.950 . S
H906 C932 0.950 . S
H907 C934 0.950 . S
H908 C937 0.950 1_565 S
H909 C938 0.950 . S
H910 C940 0.950 . S
H911 C941 0.950 . S
C912 H894 0.951 . S
C912 C913 1.366 . S
C912 C914 1.388 . S
C913 C912 1.366 . S
C913 C917 1.385 . S
C914 H895 0.951 . S
C914 C912 1.388 . S
C914 C915 1.366 . S
C915 C914 1.366 . S
C915 C916 1.414 . S
C915 C918 1.499 . S
C916 H896 0.950 . S
C916 C915 1.414 . S
C916 C917 1.374 . S
C917 H897 0.950 . S
C917 C913 1.385 . S
C917 C916 1.374 . S
C918 C915 1.499 . S
C918 C919 1.373 . S
C918 C920 1.389 . S
C919 H898 0.950 . S
C919 C918 1.373 . S
C919 C935 1.377 . S
C920 C918 1.389 . S
C920 C921 1.524 . S
C920 C934 1.377 . S
C921 C920 1.524 . S
C921 C922 1.397 . S
C921 C926 1.363 . S
C922 H899 0.950 . S
C922 C921 1.397 . S
C922 C923 1.334 . S
C923 H900 0.950 . S
C923 C922 1.334 . S
C923 C924 1.287 . S
C924 C923 1.287 . S
C924 C925 1.524 . S
C924 H943 0.913 . S
C925 H901 0.950 . S
C925 C924 1.524 . S
C925 C926 1.415 . S
C926 H902 0.950 . S
C926 C921 1.363 . S
C926 C925 1.415 . S
C927 H903 0.951 . S
C927 C928 1.366 . S
C927 C929 1.388 . S
C928 C927 1.366 . S
C928 C932 1.385 . S
C929 H904 0.951 . S
C929 C927 1.388 . S
C929 C930 1.366 . S
C930 C929 1.366 . S
C930 C931 1.414 . S
C930 C933 1.499 . S
C931 H905 0.950 . S
C931 C930 1.414 . S
C931 C932 1.374 . S
C932 H906 0.950 . S
C932 C928 1.385 . S
C932 C931 1.374 . S
C933 C930 1.499 . S
C933 C934 1.373 . S
C933 C935 1.389 . S
C934 H907 0.950 . S
C934 C920 1.377 . S
C934 C933 1.373 . S
C935 C919 1.377 . S
C935 C933 1.389 . S
C935 C936 1.524 1_565 S
C936 C935 1.524 1_545 S
C936 C937 1.397 . S
C936 C941 1.363 . S
C937 H908 0.950 1_545 S
C937 C936 1.397 . S
C937 C938 1.334 . S
C938 H909 0.950 . S
C938 C937 1.334 . S
C938 C939 1.287 . S
C939 C938 1.287 . S
C939 C940 1.524 . S
C939 H942 0.999 . S
C940 H910 0.950 . S
C940 C939 1.524 . S
C940 C941 1.415 . S
C941 H911 0.950 . S
C941 C936 1.363 . S
C941 C940 1.415 . S
H942 C939 0.999 . S
H943 C924 0.913 . S
H944 C962 0.951 . S
H945 C964 0.951 . S
H946 C966 0.950 . S
H947 C967 0.950 . S
H948 C969 0.950 . S
H949 C972 0.950 . S
H950 C973 0.950 . S
H951 C975 0.950 . S
H952 C976 0.950 . S
H953 C977 0.951 . S
H954 C979 0.951 . S
H955 C981 0.950 . S
H956 C982 0.950 . S
H957 C984 0.950 . S
H958 C987 0.950 . S
H959 C988 0.950 . S
H960 C990 0.950 . S
H961 C991 0.950 . S
C962 H944 0.951 . S
C962 C963 1.366 1_565 S
C962 C964 1.388 . S
C963 C962 1.366 1_545 S
C963 C967 1.385 . S
C964 H945 0.951 . S
C964 C962 1.388 . S
C964 C965 1.366 1_565 S
C965 C964 1.366 1_545 S
C965 C966 1.414 . S
C965 C968 1.499 . S
C966 H946 0.950 . S
C966 C965 1.414 . S
C966 C967 1.374 . S
C967 H947 0.950 . S
C967 C963 1.385 . S
C967 C966 1.374 . S
C968 C965 1.499 . S
C968 C969 1.373 . S
C968 C970 1.389 1_545 S
C969 H948 0.950 . S
C969 C968 1.373 . S
C969 C985 1.377 1_554 S
C970 C968 1.389 1_565 S
C970 C971 1.524 . S
C970 C984 1.377 1_554 S
C971 C970 1.524 . S
C971 C972 1.397 . S
C971 C976 1.363 . S
C972 H949 0.950 . S
C972 C971 1.397 . S
C972 C973 1.334 . S
C973 H950 0.950 . S
C973 C972 1.334 . S
C973 C974 1.287 . S
C974 C973 1.287 . S
C974 C975 1.524 . S
C974 H993 0.913 . S
C975 H951 0.950 . S
C975 C974 1.524 . S
C975 C976 1.415 . S
C976 H952 0.950 . S
C976 C971 1.363 . S
C976 C975 1.415 . S
C977 H953 0.951 . S
C977 C978 1.366 1_545 S
C977 C979 1.388 . S
C978 C977 1.366 1_565 S
C978 C982 1.385 . S
C979 H954 0.951 . S
C979 C977 1.388 . S
C979 C980 1.366 1_545 S
C980 C979 1.366 1_565 S
C980 C981 1.414 . S
C980 C983 1.499 . S
C981 H955 0.950 . S
C981 C980 1.414 . S
C981 C982 1.374 . S
C982 H956 0.950 . S
C982 C978 1.385 . S
C982 C981 1.374 . S
C983 C980 1.499 . S
C983 C984 1.373 . S
C983 C985 1.389 1_565 S
C984 H957 0.950 . S
C984 C970 1.377 1_556 S
C984 C983 1.373 . S
C985 C969 1.377 1_556 S
C985 C983 1.389 1_545 S
C985 C986 1.524 . S
C986 C985 1.524 . S
C986 C987 1.397 . S
C986 C991 1.363 . S
C987 H958 0.950 . S
C987 C986 1.397 . S
C987 C988 1.334 . S
C988 H959 0.950 . S
C988 C987 1.334 . S
C988 C989 1.287 . S
C989 C988 1.287 . S
C989 C990 1.524 . S
C989 H992 0.999 . S
C990 H960 0.950 . S
C990 C989 1.524 . S
C990 C991 1.415 . S
C991 H961 0.950 . S
C991 C986 1.363 . S
C991 C990 1.415 . S
H992 C989 0.999 . S
H993 C974 0.913 . S
H994 C1012 0.951 . S
H995 C1014 0.951 . S
H996 C1016 0.950 . S
H997 C1017 0.950 . S
H998 C1019 0.950 . S
H999 C1022 0.950 . S
H1000 C1023 0.950 . S
H1001 C1025 0.950 . S
H1002 C1026 0.950 . S
H1003 C1027 0.951 . S
H1004 C1029 0.951 . S
H1005 C1031 0.950 . S
H1006 C1032 0.950 . S
H1007 C1034 0.950 . S
H1008 C1037 0.950 . S
H1009 C1038 0.950 . S
H1010 C1040 0.950 . S
H1011 C1041 0.950 . S
C1012 H994 0.951 . S
C1012 C1013 1.366 . S
C1012 C1014 1.388 . S
C1013 C1012 1.366 . S
C1013 C1017 1.385 . S
C1014 H995 0.951 . S
C1014 C1012 1.388 . S
C1014 C1015 1.366 . S
C1015 C1014 1.366 . S
C1015 C1016 1.414 . S
C1015 C1018 1.499 . S
C1016 H996 0.950 . S
C1016 C1015 1.414 . S
C1016 C1017 1.374 . S
C1017 H997 0.950 . S
C1017 C1013 1.385 . S
C1017 C1016 1.374 . S
C1018 C1015 1.499 . S
C1018 C1019 1.373 . S
C1018 C1020 1.389 . S
C1019 H998 0.950 . S
C1019 C1018 1.373 . S
C1019 C1035 1.377 . S
C1020 C1018 1.389 . S
C1020 C1021 1.524 . S
C1020 C1034 1.377 . S
C1021 C1020 1.524 . S
C1021 C1022 1.397 . S
C1021 C1026 1.363 . S
C1022 H999 0.950 . S
C1022 C1021 1.397 . S
C1022 C1023 1.334 . S
C1023 H1000 0.950 . S
C1023 C1022 1.334 . S
C1023 C1024 1.287 . S
C1024 C1023 1.287 . S
C1024 C1025 1.524 . S
C1024 H1043 0.913 . S
C1025 H1001 0.950 . S
C1025 C1024 1.524 . S
C1025 C1026 1.415 . S
C1026 H1002 0.950 . S
C1026 C1021 1.363 . S
C1026 C1025 1.415 . S
C1027 H1003 0.951 . S
C1027 C1028 1.366 . S
C1027 C1029 1.388 . S
C1028 C1027 1.366 . S
C1028 C1032 1.385 . S
C1029 H1004 0.951 . S
C1029 C1027 1.388 . S
C1029 C1030 1.366 . S
C1030 C1029 1.366 . S
C1030 C1031 1.414 . S
C1030 C1033 1.499 . S
C1031 H1005 0.950 . S
C1031 C1030 1.414 . S
C1031 C1032 1.374 . S
C1032 H1006 0.950 . S
C1032 C1028 1.385 . S
C1032 C1031 1.374 . S
C1033 C1030 1.499 . S
C1033 C1034 1.373 . S
C1033 C1035 1.389 . S
C1034 H1007 0.950 . S
C1034 C1020 1.377 . S
C1034 C1033 1.373 . S
C1035 C1019 1.377 . S
C1035 C1033 1.389 . S
C1035 C1036 1.524 . S
C1036 C1035 1.524 . S
C1036 C1037 1.397 . S
C1036 C1041 1.363 . S
C1037 H1008 0.950 . S
C1037 C1036 1.397 . S
C1037 C1038 1.334 . S
C1038 H1009 0.950 . S
C1038 C1037 1.334 . S
C1038 C1039 1.287 . S
C1039 C1038 1.287 . S
C1039 C1040 1.524 . S
C1039 H1042 0.999 . S
C1040 H1010 0.950 . S
C1040 C1039 1.524 . S
C1040 C1041 1.415 . S
C1041 H1011 0.950 . S
C1041 C1036 1.363 . S
C1041 C1040 1.415 . S
H1042 C1039 0.999 . S
H1043 C1024 0.913 . S
H1044 C1062 0.951 . S
H1045 C1064 0.951 . S
H1046 C1066 0.950 . S
H1047 C1067 0.950 . S
H1048 C1069 0.950 . S
H1049 C1072 0.950 . S
H1050 C1073 0.950 . S
H1051 C1075 0.939 1_554 S
H1052 C1076 0.938 1_554 S
H1053 C1077 0.951 . S
H1054 C1079 0.951 . S
H1055 C1081 0.950 . S
H1056 C1082 0.950 . S
H1057 C1084 0.950 . S
H1058 C1087 0.950 . S
H1059 C1088 0.950 . S
H1060 C1090 0.939 1_556 S
H1061 C1091 0.938 1_556 S
C1062 H1044 0.951 . S
C1062 C1063 1.366 . S
C1062 C1064 1.388 . S
C1063 C1062 1.366 . S
C1063 C1067 1.385 . S
C1064 H1045 0.951 . S
C1064 C1062 1.388 . S
C1064 C1065 1.366 . S
C1065 C1064 1.366 . S
C1065 C1066 1.414 . S
C1065 C1068 1.499 . S
C1066 H1046 0.950 . S
C1066 C1065 1.414 . S
C1066 C1067 1.374 . S
C1067 H1047 0.950 . S
C1067 C1063 1.385 . S
C1067 C1066 1.374 . S
C1068 C1065 1.499 . S
C1068 C1069 1.373 1_655 S
C1068 C1070 1.389 . S
C1069 H1048 0.950 . S
C1069 C1068 1.373 1_455 S
C1069 C1085 1.377 1_556 S
C1070 C1068 1.389 . S
C1070 C1071 1.524 . S
C1070 C1084 1.377 1_556 S
C1071 C1070 1.524 . S
C1071 C1072 1.397 . S
C1071 C1076 1.373 . S
C1072 H1049 0.950 . S
C1072 C1071 1.397 . S
C1072 C1073 1.334 . S
C1073 H1050 0.950 . S
C1073 C1072 1.334 . S
C1073 C1074 1.287 . S
C1074 C1073 1.287 . S
C1074 C1075 1.524 . S
C1074 H1093 0.913 . S
C1075 H1051 0.939 1_556 S
C1075 C1074 1.524 . S
C1075 C1076 1.418 . S
C1076 H1052 0.938 1_556 S
C1076 C1071 1.373 . S
C1076 C1075 1.418 . S
C1077 H1053 0.951 . S
C1077 C1078 1.366 . S
C1077 C1079 1.388 . S
C1078 C1077 1.366 . S
C1078 C1082 1.385 . S
C1079 H1054 0.951 . S
C1079 C1077 1.388 . S
C1079 C1080 1.366 . S
C1080 C1079 1.366 . S
C1080 C1081 1.414 . S
C1080 C1083 1.499 . S
C1081 H1055 0.950 . S
C1081 C1080 1.414 . S
C1081 C1082 1.374 . S
C1082 H1056 0.950 . S
C1082 C1078 1.385 . S
C1082 C1081 1.374 . S
C1083 C1080 1.499 . S
C1083 C1084 1.373 1_455 S
C1083 C1085 1.389 . S
C1084 H1057 0.950 . S
C1084 C1070 1.377 1_554 S
C1084 C1083 1.373 1_655 S
C1085 C1069 1.377 1_554 S
C1085 C1083 1.389 . S
C1085 C1086 1.524 . S
C1086 C1085 1.524 . S
C1086 C1087 1.397 . S
C1086 C1091 1.373 . S
C1087 H1058 0.950 . S
C1087 C1086 1.397 . S
C1087 C1088 1.334 . S
C1088 H1059 0.950 . S
C1088 C1087 1.334 . S
C1088 C1089 1.287 . S
C1089 C1088 1.287 . S
C1089 C1090 1.524 . S
C1089 H1092 0.999 . S
C1090 H1060 0.939 1_554 S
C1090 C1089 1.524 . S
C1090 C1091 1.418 . S
C1091 H1061 0.938 1_554 S
C1091 C1086 1.373 . S
C1091 C1090 1.418 . S
H1092 C1089 0.999 . S
H1093 C1074 0.913 . S
H1094 C1112 0.951 . S
H1095 C1114 0.951 . S
H1096 C1116 0.950 . S
H1097 C1117 0.950 . S
H1098 C1119 0.950 . S
H1099 C1122 0.950 . S
H1100 C1123 0.950 . S
H1101 C1125 0.950 . S
H1102 C1126 0.950 . S
H1103 C1127 0.951 . S
H1104 C1129 0.951 . S
H1105 C1131 0.950 . S
H1106 C1132 0.950 . S
H1107 C1134 0.950 . S
H1108 C1137 0.950 . S
H1109 C1138 0.950 . S
H1110 C1140 0.950 . S
H1111 C1141 0.950 . S
C1112 H1094 0.951 . S
C1112 C1113 1.366 . S
C1112 C1114 1.388 . S
C1113 C1112 1.366 . S
C1113 C1117 1.385 1_455 S
C1114 H1095 0.951 . S
C1114 C1112 1.388 . S
C1114 C1115 1.366 . S
C1115 C1114 1.366 . S
C1115 C1116 1.414 1_455 S
C1115 C1118 1.499 . S
C1116 H1096 0.950 . S
C1116 C1115 1.414 1_655 S
C1116 C1117 1.374 . S
C1117 H1097 0.950 . S
C1117 C1113 1.385 1_655 S
C1117 C1116 1.374 . S
C1118 C1115 1.499 . S
C1118 C1119 1.373 1_445 S
C1118 C1120 1.389 . S
C1119 H1098 0.950 . S
C1119 C1118 1.373 1_665 S
C1119 C1135 1.377 . S
C1120 C1118 1.389 . S
C1120 C1121 1.524 . S
C1120 C1134 1.377 . S
C1121 C1120 1.524 . S
C1121 C1122 1.397 . S
C1121 C1126 1.363 . S
C1122 H1099 0.950 . S
C1122 C1121 1.397 . S
C1122 C1123 1.334 . S
C1123 H1100 0.950 . S
C1123 C1122 1.334 . S
C1123 C1124 1.287 . S
C1124 C1123 1.287 . S
C1124 C1125 1.524 . S
C1124 H1143 0.913 . S
C1125 H1101 0.950 . S
C1125 C1124 1.524 . S
C1125 C1126 1.415 . S
C1126 H1102 0.950 . S
C1126 C1121 1.363 . S
C1126 C1125 1.415 . S
C1127 H1103 0.951 . S
C1127 C1128 1.366 . S
C1127 C1129 1.388 . S
C1128 C1127 1.366 . S
C1128 C1132 1.385 1_655 S
C1129 H1104 0.951 . S
C1129 C1127 1.388 . S
C1129 C1130 1.366 . S
C1130 C1129 1.366 . S
C1130 C1131 1.414 1_655 S
C1130 C1133 1.499 . S
C1131 H1105 0.950 . S
C1131 C1130 1.414 1_455 S
C1131 C1132 1.374 . S
C1132 H1106 0.950 . S
C1132 C1128 1.385 1_455 S
C1132 C1131 1.374 . S
C1133 C1130 1.499 . S
C1133 C1134 1.373 1_665 S
C1133 C1135 1.389 . S
C1134 H1107 0.950 . S
C1134 C1120 1.377 . S
C1134 C1133 1.373 1_445 S
C1135 C1119 1.377 . S
C1135 C1133 1.389 . S
C1135 C1136 1.524 . S
C1136 C1135 1.524 . S
C1136 C1137 1.397 . S
C1136 C1141 1.363 . S
C1137 H1108 0.950 . S
C1137 C1136 1.397 . S
C1137 C1138 1.334 . S
C1138 H1109 0.950 . S
C1138 C1137 1.334 . S
C1138 C1139 1.287 . S
C1139 C1138 1.287 . S
C1139 C1140 1.524 . S
C1139 H1142 0.999 . S
C1140 H1110 0.950 . S
C1140 C1139 1.524 . S
C1140 C1141 1.415 . S
C1141 H1111 0.950 . S
C1141 C1136 1.363 . S
C1141 C1140 1.415 . S
H1142 C1139 0.999 . S
H1143 C1124 0.913 . S
H1144 C1162 0.951 . S
H1145 C1164 0.951 . S
H1146 C1166 0.950 . S
H1147 C1167 0.950 . S
H1148 C1169 0.950 . S
H1149 C1172 0.950 . S
H1150 C1173 0.950 . S
H1151 C1175 0.950 . S
H1152 C1176 0.957 . S
H1153 C1177 0.951 . S
H1154 C1179 0.951 . S
H1155 C1181 0.950 . S
H1156 C1182 0.950 . S
H1157 C1184 0.950 . S
H1158 C1187 0.950 . S
H1159 C1188 0.950 . S
H1160 C1190 0.950 . S
H1161 C1191 0.957 . S
C1162 H1144 0.951 . S
C1162 C1163 1.366 . S
C1162 C1164 1.388 . S
C1163 C1162 1.366 . S
C1163 C1167 1.385 . S
C1164 H1145 0.951 . S
C1164 C1162 1.388 . S
C1164 C1165 1.366 . S
C1165 C1164 1.366 . S
C1165 C1166 1.414 . S
C1165 C1168 1.499 . S
C1166 H1146 0.950 . S
C1166 C1165 1.414 . S
C1166 C1167 1.374 . S
C1167 H1147 0.950 . S
C1167 C1163 1.385 . S
C1167 C1166 1.374 . S
C1168 C1165 1.499 . S
C1168 C1169 1.373 . S
C1168 C1170 1.389 . S
C1169 H1148 0.950 . S
C1169 C1168 1.373 . S
C1169 C1185 1.377 1_554 S
C1170 C1168 1.389 . S
C1170 C1171 1.524 . S
C1170 C1184 1.377 1_554 S
C1171 C1170 1.524 . S
C1171 C1172 1.397 . S
C1171 C1176 1.363 . S
C1172 H1149 0.950 . S
C1172 C1171 1.397 . S
C1172 C1173 1.334 . S
C1173 H1150 0.950 . S
C1173 C1172 1.334 . S
C1173 C1174 1.287 . S
C1174 C1173 1.287 . S
C1174 C1175 1.524 . S
C1174 H1193 0.913 . S
C1175 H1151 0.950 . S
C1175 C1174 1.524 . S
C1175 C1176 1.415 . S
C1176 H1152 0.957 . S
C1176 C1171 1.363 . S
C1176 C1175 1.415 . S
C1177 H1153 0.951 . S
C1177 C1178 1.366 . S
C1177 C1179 1.388 . S
C1178 C1177 1.366 . S
C1178 C1182 1.385 . S
C1179 H1154 0.951 . S
C1179 C1177 1.388 . S
C1179 C1180 1.366 . S
C1180 C1179 1.366 . S
C1180 C1181 1.414 . S
C1180 C1183 1.499 . S
C1181 H1155 0.950 . S
C1181 C1180 1.414 . S
C1181 C1182 1.374 . S
C1182 H1156 0.950 . S
C1182 C1178 1.385 . S
C1182 C1181 1.374 . S
C1183 C1180 1.499 . S
C1183 C1184 1.373 . S
C1183 C1185 1.389 . S
C1184 H1157 0.950 . S
C1184 C1170 1.377 1_556 S
C1184 C1183 1.373 . S
C1185 C1169 1.377 1_556 S
C1185 C1183 1.389 . S
C1185 C1186 1.524 . S
C1186 C1185 1.524 . S
C1186 C1187 1.397 . S
C1186 C1191 1.363 . S
C1187 H1158 0.950 . S
C1187 C1186 1.397 . S
C1187 C1188 1.334 . S
C1188 H1159 0.950 . S
C1188 C1187 1.334 . S
C1188 C1189 1.287 . S
C1189 C1188 1.287 . S
C1189 C1190 1.524 . S
C1189 H1192 0.999 . S
C1190 H1160 0.950 . S
C1190 C1189 1.524 . S
C1190 C1191 1.415 . S
C1191 H1161 0.957 . S
C1191 C1186 1.363 . S
C1191 C1190 1.415 . S
H1192 C1189 0.999 . S
H1193 C1174 0.913 . S
H1194 C1212 0.951 . S
H1195 C1214 0.951 . S
H1196 C1216 0.950 . S
H1197 C1217 0.950 1_455 S
H1198 C1219 0.950 . S
H1199 C1222 0.950 . S
H1200 C1223 0.950 . S
H1201 C1225 0.950 . S
H1202 C1226 0.950 1_655 S
H1203 C1227 0.951 . S
H1204 C1229 0.951 . S
H1205 C1231 0.950 . S
H1206 C1232 0.950 1_655 S
H1207 C1234 0.950 . S
H1208 C1237 0.950 . S
H1209 C1238 0.950 . S
H1210 C1240 0.950 . S
H1211 C1241 0.950 1_455 S
C1212 H1194 0.951 . S
C1212 C1213 1.366 . S
C1212 C1214 1.388 . S
C1213 C1212 1.366 . S
C1213 C1217 1.385 . S
C1214 H1195 0.951 . S
C1214 C1212 1.388 . S
C1214 C1215 1.366 . S
C1215 C1214 1.366 . S
C1215 C1216 1.414 1_655 S
C1215 C1218 1.499 . S
C1216 H1196 0.950 . S
C1216 C1215 1.414 1_455 S
C1216 C1217 1.374 1_455 S
C1217 H1197 0.950 1_655 S
C1217 C1213 1.385 . S
C1217 C1216 1.374 1_655 S
C1218 C1215 1.499 . S
C1218 C1219 1.373 . S
C1218 C1220 1.389 1_655 S
C1219 H1198 0.950 . S
C1219 C1218 1.373 . S
C1219 C1235 1.377 . S
C1220 C1218 1.389 1_455 S
C1220 C1221 1.524 . S
C1220 C1234 1.377 . S
C1221 C1220 1.524 . S
C1221 C1222 1.397 . S
C1221 C1226 1.363 . S
C1222 H1199 0.950 . S
C1222 C1221 1.397 . S
C1222 C1223 1.334 . S
C1223 H1200 0.950 . S
C1223 C1222 1.334 . S
C1223 C1224 1.287 . S
C1224 C1223 1.287 . S
C1224 C1225 1.524 . S
C1224 H1243 0.913 . S
C1225 H1201 0.950 . S
C1225 C1224 1.524 . S
C1225 C1226 1.415 . S
C1226 H1202 0.950 1_455 S
C1226 C1221 1.363 . S
C1226 C1225 1.415 . S
C1227 H1203 0.951 . S
C1227 C1228 1.366 . S
C1227 C1229 1.388 . S
C1228 C1227 1.366 . S
C1228 C1232 1.385 . S
C1229 H1204 0.951 . S
C1229 C1227 1.388 . S
C1229 C1230 1.366 . S
C1230 C1229 1.366 . S
C1230 C1231 1.414 1_455 S
C1230 C1233 1.499 . S
C1231 H1205 0.950 . S
C1231 C1230 1.414 1_655 S
C1231 C1232 1.374 1_655 S
C1232 H1206 0.950 1_455 S
C1232 C1228 1.385 . S
C1232 C1231 1.374 1_455 S
C1233 C1230 1.499 . S
C1233 C1234 1.373 . S
C1233 C1235 1.389 1_455 S
C1234 H1207 0.950 . S
C1234 C1220 1.377 . S
C1234 C1233 1.373 . S
C1235 C1219 1.377 . S
C1235 C1233 1.389 1_655 S
C1235 C1236 1.524 . S
C1236 C1235 1.524 . S
C1236 C1237 1.397 . S
C1236 C1241 1.363 . S
C1237 H1208 0.950 . S
C1237 C1236 1.397 . S
C1237 C1238 1.334 . S
C1238 H1209 0.950 . S
C1238 C1237 1.334 . S
C1238 C1239 1.287 . S
C1239 C1238 1.287 . S
C1239 C1240 1.524 . S
C1239 H1242 0.999 . S
C1240 H1210 0.950 . S
C1240 C1239 1.524 . S
C1240 C1241 1.415 . S
C1241 H1211 0.950 1_655 S
C1241 C1236 1.363 . S
C1241 C1240 1.415 . S
H1242 C1239 0.999 . S
H1243 C1224 0.913 . S
H1244 C1262 0.951 . S
H1245 C1264 0.951 . S
H1246 C1266 0.950 . S
H1247 C1267 0.950 . S
H1248 C1269 0.950 . S
H1249 C1272 0.950 . S
H1250 C1273 0.950 . S
H1251 C1275 0.950 . S
H1252 C1276 0.950 . S
H1253 C1277 0.951 . S
H1254 C1279 0.951 . S
H1255 C1281 0.950 . S
H1256 C1282 0.950 . S
H1257 C1284 0.950 . S
H1258 C1287 0.950 . S
H1259 C1288 0.950 . S
H1260 C1290 0.950 . S
H1261 C1291 0.950 . S
C1262 H1244 0.951 . S
C1262 C1263 1.366 1_565 S
C1262 C1264 1.388 . S
C1263 C1262 1.366 1_545 S
C1263 C1267 1.385 . S
C1264 H1245 0.951 . S
C1264 C1262 1.388 . S
C1264 C1265 1.366 1_565 S
C1265 C1264 1.366 1_545 S
C1265 C1266 1.414 . S
C1265 C1268 1.499 . S
C1266 H1246 0.950 . S
C1266 C1265 1.414 . S
C1266 C1267 1.374 . S
C1267 H1247 0.950 . S
C1267 C1263 1.385 . S
C1267 C1266 1.374 . S
C1268 C1265 1.499 . S
C1268 C1269 1.373 . S
C1268 C1270 1.389 1_445 S
C1269 H1248 0.950 . S
C1269 C1268 1.373 . S
C1269 C1285 1.377 1_556 S
C1270 C1268 1.389 1_665 S
C1270 C1271 1.524 . S
C1270 C1284 1.377 1_556 S
C1271 C1270 1.524 . S
C1271 C1272 1.397 1_565 S
C1271 C1276 1.363 . S
C1272 H1249 0.950 . S
C1272 C1271 1.397 1_545 S
C1272 C1273 1.334 . S
C1273 H1250 0.950 . S
C1273 C1272 1.334 . S
C1273 C1274 1.287 1_545 S
C1274 C1273 1.287 1_565 S
C1274 C1275 1.524 . S
C1274 H1293 0.913 . S
C1275 H1251 0.950 . S
C1275 C1274 1.524 . S
C1275 C1276 1.415 . S
C1276 H1252 0.950 . S
C1276 C1271 1.363 . S
C1276 C1275 1.415 . S
C1277 H1253 0.951 . S
C1277 C1278 1.366 1_545 S
C1277 C1279 1.388 . S
C1278 C1277 1.366 1_565 S
C1278 C1282 1.385 . S
C1279 H1254 0.951 . S
C1279 C1277 1.388 . S
C1279 C1280 1.366 1_545 S
C1280 C1279 1.366 1_565 S
C1280 C1281 1.414 . S
C1280 C1283 1.499 . S
C1281 H1255 0.950 . S
C1281 C1280 1.414 . S
C1281 C1282 1.374 . S
C1282 H1256 0.950 . S
C1282 C1278 1.385 . S
C1282 C1281 1.374 . S
C1283 C1280 1.499 . S
C1283 C1284 1.373 . S
C1283 C1285 1.389 1_665 S
C1284 H1257 0.950 . S
C1284 C1270 1.377 1_554 S
C1284 C1283 1.373 . S
C1285 C1269 1.377 1_554 S
C1285 C1283 1.389 1_445 S
C1285 C1286 1.524 . S
C1286 C1285 1.524 . S
C1286 C1287 1.397 1_545 S
C1286 C1291 1.363 . S
C1287 H1258 0.950 . S
C1287 C1286 1.397 1_565 S
C1287 C1288 1.334 . S
C1288 H1259 0.950 . S
C1288 C1287 1.334 . S
C1288 C1289 1.287 1_565 S
C1289 C1288 1.287 1_545 S
C1289 C1290 1.524 . S
C1289 H1292 0.999 . S
C1290 H1260 0.950 . S
C1290 C1289 1.524 . S
C1290 C1291 1.415 . S
C1291 H1261 0.950 . S
C1291 C1286 1.363 . S
C1291 C1290 1.415 . S
H1292 C1289 0.999 . S
H1293 C1274 0.913 . S
H1294 C1312 0.951 . S
H1295 C1314 0.951 . S
H1296 C1316 0.950 . S
H1297 C1317 0.950 . S
H1298 C1319 0.950 . S
H1299 C1322 0.950 . S
H1300 C1323 0.950 . S
H1301 C1325 0.950 . S
H1302 C1326 0.950 . S
H1303 C1327 0.951 . S
H1304 C1329 0.951 . S
H1305 C1331 0.950 . S
H1306 C1332 0.950 . S
H1307 C1334 0.950 . S
H1308 C1337 0.950 . S
H1309 C1338 0.950 . S
H1310 C1340 0.950 . S
H1311 C1341 0.950 . S
C1312 H1294 0.951 . S
C1312 C1313 1.366 . S
C1312 C1314 1.388 . S
C1313 C1312 1.366 . S
C1313 C1317 1.385 . S
C1314 H1295 0.951 . S
C1314 C1312 1.388 . S
C1314 C1315 1.366 . S
C1315 C1314 1.366 . S
C1315 C1316 1.414 . S
C1315 C1318 1.499 . S
C1316 H1296 0.950 . S
C1316 C1315 1.414 . S
C1316 C1317 1.374 . S
C1317 H1297 0.950 . S
C1317 C1313 1.385 . S
C1317 C1316 1.374 . S
C1318 C1315 1.499 . S
C1318 C1319 1.373 . S
C1318 C1320 1.389 1_565 S
C1319 H1298 0.950 . S
C1319 C1318 1.373 . S
C1319 C1335 1.377 . S
C1320 C1318 1.389 1_545 S
C1320 C1321 1.524 . S
C1320 C1334 1.377 . S
C1321 C1320 1.524 . S
C1321 C1322 1.397 . S
C1321 C1326 1.363 . S
C1322 H1299 0.950 . S
C1322 C1321 1.397 . S
C1322 C1323 1.334 . S
C1323 H1300 0.950 . S
C1323 C1322 1.334 . S
C1323 C1324 1.287 . S
C1324 C1323 1.287 . S
C1324 C1325 1.524 . S
C1324 H1343 0.913 . S
C1325 H1301 0.950 . S
C1325 C1324 1.524 . S
C1325 C1326 1.415 . S
C1326 H1302 0.950 . S
C1326 C1321 1.363 . S
C1326 C1325 1.415 . S
C1327 H1303 0.951 . S
C1327 C1328 1.366 . S
C1327 C1329 1.388 . S
C1328 C1327 1.366 . S
C1328 C1332 1.385 . S
C1329 H1304 0.951 . S
C1329 C1327 1.388 . S
C1329 C1330 1.366 . S
C1330 C1329 1.366 . S
C1330 C1331 1.414 . S
C1330 C1333 1.499 . S
C1331 H1305 0.950 . S
C1331 C1330 1.414 . S
C1331 C1332 1.374 . S
C1332 H1306 0.950 . S
C1332 C1328 1.385 . S
C1332 C1331 1.374 . S
C1333 C1330 1.499 . S
C1333 C1334 1.373 . S
C1333 C1335 1.389 1_545 S
C1334 H1307 0.950 . S
C1334 C1320 1.377 . S
C1334 C1333 1.373 . S
C1335 C1319 1.377 . S
C1335 C1333 1.389 1_565 S
C1335 C1336 1.524 . S
C1336 C1335 1.524 . S
C1336 C1337 1.397 . S
C1336 C1341 1.363 . S
C1337 H1308 0.950 . S
C1337 C1336 1.397 . S
C1337 C1338 1.334 . S
C1338 H1309 0.950 . S
C1338 C1337 1.334 . S
C1338 C1339 1.287 . S
C1339 C1338 1.287 . S
C1339 C1340 1.524 . S
C1339 H1342 0.999 . S
C1340 H1310 0.950 . S
C1340 C1339 1.524 . S
C1340 C1341 1.415 . S
C1341 H1311 0.950 . S
C1341 C1336 1.363 . S
C1341 C1340 1.415 . S
H1342 C1339 0.999 . S
H1343 C1324 0.913 . S
H1344 C1362 0.951 . S
H1345 C1364 0.951 . S
H1346 C1366 0.950 1_565 S
H1347 C1367 0.950 . S
H1348 C1369 0.950 . S
H1349 C1372 0.950 1_565 S
H1350 C1373 0.950 1_565 S
H1351 C1375 0.950 . S
H1352 C1376 0.950 . S
H1353 C1377 0.951 . S
H1354 C1379 0.951 . S
H1355 C1381 0.950 . S
H1356 C1382 0.950 . S
H1357 C1384 0.950 . S
H1358 C1387 0.950 . S
H1359 C1388 0.950 . S
H1360 C1390 0.950 . S
H1361 C1391 0.950 . S
C1362 H1344 0.951 . S
C1362 C1363 1.366 . S
C1362 C1364 1.388 . S
C1363 C1362 1.366 . S
C1363 C1367 1.385 . S
C1364 H1345 0.951 . S
C1364 C1362 1.388 . S
C1364 C1365 1.366 . S
C1365 C1364 1.366 . S
C1365 C1366 1.414 . S
C1365 C1368 1.499 . S
C1366 H1346 0.950 1_545 S
C1366 C1365 1.414 . S
C1366 C1367 1.374 . S
C1367 H1347 0.950 . S
C1367 C1363 1.385 . S
C1367 C1366 1.374 . S
C1368 C1365 1.499 . S
C1368 C1369 1.373 . S
C1368 C1370 1.389 . S
C1369 H1348 0.950 . S
C1369 C1368 1.373 . S
C1369 C1385 1.377 . S
C1370 C1368 1.389 . S
C1370 C1371 1.524 . S
C1370 C1384 1.377 . S
C1371 C1370 1.524 . S
C1371 C1372 1.397 . S
C1371 C1376 1.363 . S
C1372 H1349 0.950 1_545 S
C1372 C1371 1.397 . S
C1372 C1373 1.334 . S
C1373 H1350 0.950 1_545 S
C1373 C1372 1.334 . S
C1373 C1374 1.287 . S
C1374 C1373 1.287 . S
C1374 C1375 1.524 . S
C1374 H1393 0.913 . S
C1375 H1351 0.950 . S
C1375 C1374 1.524 . S
C1375 C1376 1.415 . S
C1376 H1352 0.950 . S
C1376 C1371 1.363 . S
C1376 C1375 1.415 . S
C1377 H1353 0.951 . S
C1377 C1378 1.366 . S
C1377 C1379 1.388 . S
C1378 C1377 1.366 . S
C1378 C1382 1.385 1_565 S
C1379 H1354 0.951 . S
C1379 C1377 1.388 . S
C1379 C1380 1.366 . S
C1380 C1379 1.366 . S
C1380 C1381 1.414 1_565 S
C1380 C1383 1.499 1_565 S
C1381 H1355 0.950 . S
C1381 C1380 1.414 1_545 S
C1381 C1382 1.374 . S
C1382 H1356 0.950 . S
C1382 C1378 1.385 1_545 S
C1382 C1381 1.374 . S
C1383 C1380 1.499 1_545 S
C1383 C1384 1.373 . S
C1383 C1385 1.389 . S
C1384 H1357 0.950 . S
C1384 C1370 1.377 . S
C1384 C1383 1.373 . S
C1385 C1369 1.377 . S
C1385 C1383 1.389 . S
C1385 C1386 1.524 1_545 S
C1386 C1385 1.524 1_565 S
C1386 C1387 1.397 1_565 S
C1386 C1391 1.363 . S
C1387 H1358 0.950 . S
C1387 C1386 1.397 1_545 S
C1387 C1388 1.334 . S
C1388 H1359 0.950 . S
C1388 C1387 1.334 . S
C1388 C1389 1.287 1_545 S
C1389 C1388 1.287 1_565 S
C1389 C1390 1.524 . S
C1389 H1392 0.999 . S
C1390 H1360 0.950 . S
C1390 C1389 1.524 . S
C1390 C1391 1.415 . S
C1391 H1361 0.950 . S
C1391 C1386 1.363 . S
C1391 C1390 1.415 . S
H1392 C1389 0.999 . S
H1393 C1374 0.913 . S
H1394 C1412 0.951 . S
H1395 C1414 0.951 . S
H1396 C1416 0.950 . S
H1397 C1417 0.950 . S
H1398 C1419 0.950 . S
H1399 C1422 0.950 . S
H1400 C1423 0.950 . S
H1401 C1425 0.950 . S
H1402 C1426 0.950 . S
H1403 C1427 0.951 . S
H1404 C1429 0.951 . S
H1405 C1431 0.950 . S
H1406 C1432 0.950 . S
H1407 C1434 0.950 . S
H1408 C1437 0.950 . S
H1409 C1438 0.950 . S
H1410 C1440 0.950 . S
H1411 C1441 0.950 . S
C1412 H1394 0.951 . S
C1412 C1413 1.366 . S
C1412 C1414 1.388 . S
C1413 C1412 1.366 . S
C1413 C1417 1.385 . S
C1414 H1395 0.951 . S
C1414 C1412 1.388 . S
C1414 C1415 1.366 . S
C1415 C1414 1.366 . S
C1415 C1416 1.414 . S
C1415 C1418 1.499 . S
C1416 H1396 0.950 . S
C1416 C1415 1.414 . S
C1416 C1417 1.374 . S
C1417 H1397 0.950 . S
C1417 C1413 1.385 . S
C1417 C1416 1.374 . S
C1418 C1415 1.499 . S
C1418 C1419 1.373 . S
C1418 C1420 1.389 . S
C1419 H1398 0.950 . S
C1419 C1418 1.373 . S
C1419 C1435 1.377 . S
C1420 C1418 1.389 . S
C1420 C1421 1.524 . S
C1420 C1434 1.377 . S
C1421 C1420 1.524 . S
C1421 C1422 1.397 . S
C1421 C1426 1.363 . S
C1422 H1399 0.950 . S
C1422 C1421 1.397 . S
C1422 C1423 1.334 . S
C1423 H1400 0.950 . S
C1423 C1422 1.334 . S
C1423 C1424 1.287 . S
C1424 C1423 1.287 . S
C1424 C1425 1.524 . S
C1424 H1443 0.913 . S
C1425 H1401 0.950 . S
C1425 C1424 1.524 . S
C1425 C1426 1.415 . S
C1426 H1402 0.950 . S
C1426 C1421 1.363 . S
C1426 C1425 1.415 . S
C1427 H1403 0.951 . S
C1427 C1428 1.366 . S
C1427 C1429 1.388 . S
C1428 C1427 1.366 . S
C1428 C1432 1.385 . S
C1429 H1404 0.951 . S
C1429 C1427 1.388 . S
C1429 C1430 1.366 . S
C1430 C1429 1.366 . S
C1430 C1431 1.414 . S
C1430 C1433 1.499 . S
C1431 H1405 0.950 . S
C1431 C1430 1.414 . S
C1431 C1432 1.374 . S
C1432 H1406 0.950 . S
C1432 C1428 1.385 . S
C1432 C1431 1.374 . S
C1433 C1430 1.499 . S
C1433 C1434 1.373 . S
C1433 C1435 1.389 . S
C1434 H1407 0.950 . S
C1434 C1420 1.377 . S
C1434 C1433 1.373 . S
C1435 C1419 1.377 . S
C1435 C1433 1.389 . S
C1435 C1436 1.524 . S
C1436 C1435 1.524 . S
C1436 C1437 1.397 . S
C1436 C1441 1.363 . S
C1437 H1408 0.950 . S
C1437 C1436 1.397 . S
C1437 C1438 1.334 . S
C1438 H1409 0.950 . S
C1438 C1437 1.334 . S
C1438 C1439 1.287 . S
C1439 C1438 1.287 . S
C1439 C1440 1.524 . S
C1439 H1442 0.999 . S
C1440 H1410 0.950 . S
C1440 C1439 1.524 . S
C1440 C1441 1.415 . S
C1441 H1411 0.950 . S
C1441 C1436 1.363 . S
C1441 C1440 1.415 . S
H1442 C1439 0.999 . S
H1443 C1424 0.913 . S
H1444 C1462 0.951 . S
H1445 C1464 0.951 . S
H1446 C1466 0.950 . S
H1447 C1467 0.950 . S
H1448 C1469 0.950 . S
H1449 C1472 0.950 . S
H1450 C1473 0.950 . S
H1451 C1475 0.950 . S
H1452 C1476 0.950 . S
H1453 C1477 0.951 . S
H1454 C1479 0.951 . S
H1455 C1481 0.950 . S
H1456 C1482 0.950 . S
H1457 C1484 0.950 . S
H1458 C1487 0.950 . S
H1459 C1488 0.950 . S
H1460 C1490 0.950 . S
H1461 C1491 0.950 . S
C1462 H1444 0.951 . S
C1462 C1463 1.366 . S
C1462 C1464 1.388 . S
C1463 C1462 1.366 . S
C1463 C1467 1.385 . S
C1464 H1445 0.951 . S
C1464 C1462 1.388 . S
C1464 C1465 1.366 . S
C1465 C1464 1.366 . S
C1465 C1466 1.414 . S
C1465 C1468 1.499 . S
C1466 H1446 0.950 . S
C1466 C1465 1.414 . S
C1466 C1467 1.374 . S
C1467 H1447 0.950 . S
C1467 C1463 1.385 . S
C1467 C1466 1.374 . S
C1468 C1465 1.499 . S
C1468 C1469 1.373 . S
C1468 C1470 1.389 . S
C1469 H1448 0.950 . S
C1469 C1468 1.373 . S
C1469 C1485 1.377 . S
C1470 C1468 1.389 . S
C1470 C1471 1.524 . S
C1470 C1484 1.377 . S
C1471 C1470 1.524 . S
C1471 C1472 1.397 . S
C1471 C1476 1.363 . S
C1472 H1449 0.950 . S
C1472 C1471 1.397 . S
C1472 C1473 1.334 . S
C1473 H1450 0.950 . S
C1473 C1472 1.334 . S
C1473 C1474 1.287 . S
C1474 C1473 1.287 . S
C1474 C1475 1.524 . S
C1474 H1493 0.913 . S
C1475 H1451 0.950 . S
C1475 C1474 1.524 . S
C1475 C1476 1.415 . S
C1476 H1452 0.950 . S
C1476 C1471 1.363 . S
C1476 C1475 1.415 . S
C1477 H1453 0.951 . S
C1477 C1478 1.366 . S
C1477 C1479 1.388 . S
C1478 C1477 1.366 . S
C1478 C1482 1.385 . S
C1479 H1454 0.951 . S
C1479 C1477 1.388 . S
C1479 C1480 1.366 . S
C1480 C1479 1.366 . S
C1480 C1481 1.414 . S
C1480 C1483 1.499 . S
C1481 H1455 0.950 . S
C1481 C1480 1.414 . S
C1481 C1482 1.374 . S
C1482 H1456 0.950 . S
C1482 C1478 1.385 . S
C1482 C1481 1.374 . S
C1483 C1480 1.499 . S
C1483 C1484 1.373 . S
C1483 C1485 1.389 . S
C1484 H1457 0.950 . S
C1484 C1470 1.377 . S
C1484 C1483 1.373 . S
C1485 C1469 1.377 . S
C1485 C1483 1.389 . S
C1485 C1486 1.524 . S
C1486 C1485 1.524 . S
C1486 C1487 1.397 . S
C1486 C1491 1.363 . S
C1487 H1458 0.950 . S
C1487 C1486 1.397 . S
C1487 C1488 1.334 . S
C1488 H1459 0.950 . S
C1488 C1487 1.334 . S
C1488 C1489 1.287 . S
C1489 C1488 1.287 . S
C1489 C1490 1.524 . S
C1489 H1492 0.999 . S
C1490 H1460 0.950 . S
C1490 C1489 1.524 . S
C1490 C1491 1.415 . S
C1491 H1461 0.950 . S
C1491 C1486 1.363 . S
C1491 C1490 1.415 . S
H1492 C1489 0.999 . S
H1493 C1474 0.913 . S
H1494 C1512 0.951 . S
H1495 C1514 0.951 . S
H1496 C1516 0.950 . S
H1497 C1517 0.950 . S
H1498 C1519 0.950 . S
H1499 C1522 0.950 . S
H1500 C1523 0.950 . S
H1501 C1525 0.950 . S
H1502 C1526 0.950 . S
H1503 C1527 0.951 . S
H1504 C1529 0.951 . S
H1505 C1531 0.950 1_655 S
H1506 C1532 0.950 . S
H1507 C1534 0.950 . S
H1508 C1537 0.950 . S
H1509 C1538 0.950 . S
H1510 C1540 0.950 . S
H1511 C1541 0.950 . S
C1512 H1494 0.951 . S
C1512 C1513 1.366 . S
C1512 C1514 1.388 . S
C1513 C1512 1.366 . S
C1513 C1517 1.385 1_655 S
C1514 H1495 0.951 . S
C1514 C1512 1.388 . S
C1514 C1515 1.366 . S
C1515 C1514 1.366 . S
C1515 C1516 1.414 1_655 S
C1515 C1518 1.499 1_655 S
C1516 H1496 0.950 . S
C1516 C1515 1.414 1_455 S
C1516 C1517 1.374 . S
C1517 H1497 0.950 . S
C1517 C1513 1.385 1_455 S
C1517 C1516 1.374 . S
C1518 C1515 1.499 1_455 S
C1518 C1519 1.373 . S
C1518 C1520 1.389 1_455 S
C1519 H1498 0.950 . S
C1519 C1518 1.373 . S
C1519 C1535 1.377 . S
C1520 C1518 1.389 1_655 S
C1520 C1521 1.524 . S
C1520 C1534 1.377 . S
C1521 C1520 1.524 . S
C1521 C1522 1.397 . S
C1521 C1526 1.363 . S
C1522 H1499 0.950 . S
C1522 C1521 1.397 . S
C1522 C1523 1.334 . S
C1523 H1500 0.950 . S
C1523 C1522 1.334 . S
C1523 C1524 1.287 . S
C1524 C1523 1.287 . S
C1524 C1525 1.524 . S
C1524 H1543 0.913 . S
C1525 H1501 0.950 . S
C1525 C1524 1.524 . S
C1525 C1526 1.415 . S
C1526 H1502 0.950 . S
C1526 C1521 1.363 . S
C1526 C1525 1.415 . S
C1527 H1503 0.951 . S
C1527 C1528 1.366 . S
C1527 C1529 1.388 . S
C1528 C1527 1.366 . S
C1528 C1532 1.385 . S
C1529 H1504 0.951 . S
C1529 C1527 1.388 . S
C1529 C1530 1.366 . S
C1530 C1529 1.366 . S
C1530 C1531 1.414 . S
C1530 C1533 1.499 . S
C1531 H1505 0.950 1_455 S
C1531 C1530 1.414 . S
C1531 C1532 1.374 . S
C1532 H1506 0.950 . S
C1532 C1528 1.385 . S
C1532 C1531 1.374 . S
C1533 C1530 1.499 . S
C1533 C1534 1.373 1_455 S
C1533 C1535 1.389 . S
C1534 H1507 0.950 . S
C1534 C1520 1.377 . S
C1534 C1533 1.373 1_655 S
C1535 C1519 1.377 . S
C1535 C1533 1.389 . S
C1535 C1536 1.524 . S
C1536 C1535 1.524 . S
C1536 C1537 1.397 . S
C1536 C1541 1.363 . S
C1537 H1508 0.950 . S
C1537 C1536 1.397 . S
C1537 C1538 1.334 . S
C1538 H1509 0.950 . S
C1538 C1537 1.334 . S
C1538 C1539 1.287 . S
C1539 C1538 1.287 . S
C1539 C1540 1.524 . S
C1539 H1542 0.999 . S
C1540 H1510 0.950 . S
C1540 C1539 1.524 . S
C1540 C1541 1.415 . S
C1541 H1511 0.950 . S
C1541 C1536 1.363 . S
C1541 C1540 1.415 . S
H1542 C1539 0.999 . S
H1543 C1524 0.913 . S
H1544 C1562 0.951 . S
H1545 C1564 0.951 . S
H1546 C1566 0.950 . S
H1547 C1567 0.950 . S
H1548 C1569 0.950 . S
H1549 C1572 0.950 . S
H1550 C1573 0.950 . S
H1551 C1575 0.950 . S
H1552 C1576 0.950 . S
H1553 C1577 0.951 . S
H1554 C1579 0.951 . S
H1555 C1581 0.950 . S
H1556 C1582 0.950 . S
H1557 C1584 0.950 . S
H1558 C1587 0.950 . S
H1559 C1588 0.950 . S
H1560 C1590 0.950 . S
H1561 C1591 0.950 . S
C1562 H1544 0.951 . S
C1562 C1563 1.366 . S
C1562 C1564 1.388 . S
C1563 C1562 1.366 . S
C1563 C1567 1.385 . S
C1564 H1545 0.951 . S
C1564 C1562 1.388 . S
C1564 C1565 1.366 . S
C1565 C1564 1.366 . S
C1565 C1566 1.414 . S
C1565 C1568 1.499 . S
C1566 H1546 0.950 . S
C1566 C1565 1.414 . S
C1566 C1567 1.374 . S
C1567 H1547 0.950 . S
C1567 C1563 1.385 . S
C1567 C1566 1.374 . S
C1568 C1565 1.499 . S
C1568 C1569 1.373 . S
C1568 C1570 1.389 . S
C1569 H1548 0.950 . S
C1569 C1568 1.373 . S
C1569 C1585 1.377 . S
C1570 C1568 1.389 . S
C1570 C1571 1.524 . S
C1570 C1584 1.377 . S
C1571 C1570 1.524 . S
C1571 C1572 1.397 . S
C1571 C1576 1.363 . S
C1572 H1549 0.950 . S
C1572 C1571 1.397 . S
C1572 C1573 1.334 . S
C1573 H1550 0.950 . S
C1573 C1572 1.334 . S
C1573 C1574 1.287 . S
C1574 C1573 1.287 . S
C1574 C1575 1.524 . S
C1574 H1593 0.913 . S
C1575 H1551 0.950 . S
C1575 C1574 1.524 . S
C1575 C1576 1.415 . S
C1576 H1552 0.950 . S
C1576 C1571 1.363 . S
C1576 C1575 1.415 . S
C1577 H1553 0.951 . S
C1577 C1578 1.366 . S
C1577 C1579 1.388 . S
C1578 C1577 1.366 . S
C1578 C1582 1.385 . S
C1579 H1554 0.951 . S
C1579 C1577 1.388 . S
C1579 C1580 1.366 . S
C1580 C1579 1.366 . S
C1580 C1581 1.414 . S
C1580 C1583 1.499 . S
C1581 H1555 0.950 . S
C1581 C1580 1.414 . S
C1581 C1582 1.374 . S
C1582 H1556 0.950 . S
C1582 C1578 1.385 . S
C1582 C1581 1.374 . S
C1583 C1580 1.499 . S
C1583 C1584 1.373 . S
C1583 C1585 1.389 . S
C1584 H1557 0.950 . S
C1584 C1570 1.377 . S
C1584 C1583 1.373 . S
C1585 C1569 1.377 . S
C1585 C1583 1.389 . S
C1585 C1586 1.524 . S
C1586 C1585 1.524 . S
C1586 C1587 1.397 . S
C1586 C1591 1.363 . S
C1587 H1558 0.950 . S
C1587 C1586 1.397 . S
C1587 C1588 1.334 . S
C1588 H1559 0.950 . S
C1588 C1587 1.334 . S
C1588 C1589 1.287 . S
C1589 C1588 1.287 . S
C1589 C1590 1.524 . S
C1589 H1592 0.999 . S
C1590 H1560 0.950 . S
C1590 C1589 1.524 . S
C1590 C1591 1.415 . S
C1591 H1561 0.950 . S
C1591 C1586 1.363 . S
C1591 C1590 1.415 . S
H1592 C1589 0.999 . S
H1593 C1574 0.913 . S
H1594 C1612 0.951 . S
H1595 C1614 0.951 . S
H1596 C1616 0.950 . S
H1597 C1617 0.950 . S
H1598 C1619 0.950 . S
H1599 C1622 0.950 . S
H1600 C1623 0.950 . S
H1601 C1625 0.950 . S
H1602 C1626 0.950 . S
H1603 C1627 0.951 . S
H1604 C1629 0.951 1_455 S
H1605 C1631 0.950 . S
H1606 C1632 0.950 . S
H1607 C1634 0.950 . S
H1608 C1637 0.950 . S
H1609 C1638 0.950 . S
H1610 C1640 0.950 . S
H1611 C1641 0.950 . S
C1612 H1594 0.951 . S
C1612 C1613 1.366 . S
C1612 C1614 1.388 . S
C1613 C1612 1.366 . S
C1613 C1617 1.385 . S
C1614 H1595 0.951 . S
C1614 C1612 1.388 . S
C1614 C1615 1.366 . S
C1615 C1614 1.366 . S
C1615 C1616 1.414 . S
C1615 C1618 1.499 . S
C1616 H1596 0.950 . S
C1616 C1615 1.414 . S
C1616 C1617 1.374 . S
C1617 H1597 0.950 . S
C1617 C1613 1.385 . S
C1617 C1616 1.374 . S
C1618 C1615 1.499 . S
C1618 C1619 1.373 . S
C1618 C1620 1.389 1_455 S
C1619 H1598 0.950 . S
C1619 C1618 1.373 . S
C1619 C1635 1.377 . S
C1620 C1618 1.389 1_655 S
C1620 C1621 1.524 . S
C1620 C1634 1.377 . S
C1621 C1620 1.524 . S
C1621 C1622 1.397 . S
C1621 C1626 1.363 . S
C1622 H1599 0.950 . S
C1622 C1621 1.397 . S
C1622 C1623 1.334 . S
C1623 H1600 0.950 . S
C1623 C1622 1.334 . S
C1623 C1624 1.287 . S
C1624 C1623 1.287 . S
C1624 C1625 1.524 . S
C1624 H1643 0.913 . S
C1625 H1601 0.950 . S
C1625 C1624 1.524 . S
C1625 C1626 1.415 . S
C1626 H1602 0.950 . S
C1626 C1621 1.363 . S
C1626 C1625 1.415 . S
C1627 H1603 0.951 . S
C1627 C1628 1.366 . S
C1627 C1629 1.388 . S
C1628 C1627 1.366 . S
C1628 C1632 1.385 . S
C1629 H1604 0.951 1_655 S
C1629 C1627 1.388 . S
C1629 C1630 1.366 . S
C1630 C1629 1.366 . S
C1630 C1631 1.414 . S
C1630 C1633 1.499 1_655 S
C1631 H1605 0.950 . S
C1631 C1630 1.414 . S
C1631 C1632 1.374 . S
C1632 H1606 0.950 . S
C1632 C1628 1.385 . S
C1632 C1631 1.374 . S
C1633 C1630 1.499 1_455 S
C1633 C1634 1.373 1_455 S
C1633 C1635 1.389 . S
C1634 H1607 0.950 . S
C1634 C1620 1.377 . S
C1634 C1633 1.373 1_655 S
C1635 C1619 1.377 . S
C1635 C1633 1.389 . S
C1635 C1636 1.524 . S
C1636 C1635 1.524 . S
C1636 C1637 1.397 . S
C1636 C1641 1.363 . S
C1637 H1608 0.950 . S
C1637 C1636 1.397 . S
C1637 C1638 1.334 . S
C1638 H1609 0.950 . S
C1638 C1637 1.334 . S
C1638 C1639 1.287 . S
C1639 C1638 1.287 . S
C1639 C1640 1.524 . S
C1639 H1642 0.999 . S
C1640 H1610 0.950 . S
C1640 C1639 1.524 . S
C1640 C1641 1.415 . S
C1641 H1611 0.950 . S
C1641 C1636 1.363 . S
C1641 C1640 1.415 . S
H1642 C1639 0.999 . S
H1643 C1624 0.913 . S
H1644 C1662 0.951 . S
H1645 C1664 0.951 . S
H1646 C1666 0.950 . S
H1647 C1667 0.950 . S
H1648 C1669 0.950 . S
H1649 C1672 0.950 . S
H1650 C1673 0.950 . S
H1651 C1675 0.950 . S
H1652 C1676 0.950 . S
H1653 C1677 0.951 . S
H1654 C1679 0.951 . S
H1655 C1681 0.950 . S
H1656 C1682 0.950 . S
H1657 C1684 0.950 . S
H1658 C1687 0.950 . S
H1659 C1688 0.950 . S
H1660 C1690 0.950 . S
H1661 C1691 0.950 . S
C1662 H1644 0.951 . S
C1662 C1663 1.366 . S
C1662 C1664 1.388 . S
C1663 C1662 1.366 . S
C1663 C1667 1.385 . S
C1664 H1645 0.951 . S
C1664 C1662 1.388 . S
C1664 C1665 1.366 . S
C1665 C1664 1.366 . S
C1665 C1666 1.414 . S
C1665 C1668 1.499 . S
C1666 H1646 0.950 . S
C1666 C1665 1.414 . S
C1666 C1667 1.374 . S
C1667 H1647 0.950 . S
C1667 C1663 1.385 . S
C1667 C1666 1.374 . S
C1668 C1665 1.499 . S
C1668 C1669 1.373 1_545 S
C1668 C1670 1.389 . S
C1669 H1648 0.950 . S
C1669 C1668 1.373 1_565 S
C1669 C1685 1.376 . S
C1670 C1668 1.389 . S
C1670 C1671 1.524 . S
C1670 C1684 1.377 . S
C1671 C1670 1.524 . S
C1671 C1672 1.397 . S
C1671 C1676 1.363 . S
C1672 H1649 0.950 . S
C1672 C1671 1.397 . S
C1672 C1673 1.334 . S
C1673 H1650 0.950 . S
C1673 C1672 1.334 . S
C1673 C1674 1.287 . S
C1674 C1673 1.287 . S
C1674 C1675 1.524 . S
C1674 H1693 0.913 . S
C1675 H1651 0.950 . S
C1675 C1674 1.524 . S
C1675 C1676 1.415 . S
C1676 H1652 0.950 . S
C1676 C1671 1.363 . S
C1676 C1675 1.415 . S
C1677 H1653 0.951 . S
C1677 C1678 1.366 . S
C1677 C1679 1.388 . S
C1678 C1677 1.366 . S
C1678 C1682 1.385 . S
C1679 H1654 0.951 . S
C1679 C1677 1.388 . S
C1679 C1680 1.366 . S
C1680 C1679 1.366 . S
C1680 C1681 1.414 . S
C1680 C1683 1.499 1_565 S
C1681 H1655 0.950 . S
C1681 C1680 1.414 . S
C1681 C1682 1.374 . S
C1682 H1656 0.950 . S
C1682 C1678 1.385 . S
C1682 C1681 1.374 . S
C1683 C1680 1.499 1_545 S
C1683 C1684 1.373 . S
C1683 C1685 1.389 1_545 S
C1684 H1657 0.950 . S
C1684 C1670 1.377 . S
C1684 C1683 1.373 . S
C1685 C1669 1.376 . S
C1685 C1683 1.389 1_565 S
C1685 C1686 1.524 . S
C1686 C1685 1.524 . S
C1686 C1687 1.397 . S
C1686 C1691 1.363 . S
C1687 H1658 0.950 . S
C1687 C1686 1.397 . S
C1687 C1688 1.334 . S
C1688 H1659 0.950 . S
C1688 C1687 1.334 . S
C1688 C1689 1.287 . S
C1689 C1688 1.287 . S
C1689 C1690 1.524 . S
C1689 H1692 0.999 . S
C1690 H1660 0.950 . S
C1690 C1689 1.524 . S
C1690 C1691 1.415 . S
C1691 H1661 0.950 . S
C1691 C1686 1.363 . S
C1691 C1690 1.415 . S
H1692 C1689 0.999 . S
H1693 C1674 0.913 . S
H1694 C1712 0.951 . S
H1695 C1714 0.951 . S
H1696 C1716 0.950 . S
H1697 C1717 0.950 . S
H1698 C1719 0.950 . S
H1699 C1722 0.950 . S
H1700 C1723 0.950 . S
H1701 C1725 0.950 . S
H1702 C1726 0.950 . S
H1703 C1727 0.951 . S
H1704 C1729 0.951 . S
H1705 C1731 0.950 . S
H1706 C1732 0.950 . S
H1707 C1734 0.950 . S
H1708 C1737 0.950 . S
H1709 C1738 0.950 . S
H1710 C1740 0.950 . S
H1711 C1741 0.950 . S
C1712 H1694 0.951 . S
C1712 C1713 1.366 . S
C1712 C1714 1.388 . S
C1713 C1712 1.366 . S
C1713 C1717 1.385 . S
C1714 H1695 0.951 . S
C1714 C1712 1.388 . S
C1714 C1715 1.366 . S
C1715 C1714 1.366 . S
C1715 C1716 1.414 . S
C1715 C1718 1.499 . S
C1716 H1696 0.950 . S
C1716 C1715 1.414 . S
C1716 C1717 1.374 . S
C1717 H1697 0.950 . S
C1717 C1713 1.385 . S
C1717 C1716 1.374 . S
C1718 C1715 1.499 . S
C1718 C1719 1.373 . S
C1718 C1720 1.389 . S
C1719 H1698 0.950 . S
C1719 C1718 1.373 . S
C1719 C1735 1.377 . S
C1720 C1718 1.389 . S
C1720 C1721 1.524 . S
C1720 C1734 1.377 . S
C1721 C1720 1.524 . S
C1721 C1722 1.397 . S
C1721 C1726 1.363 . S
C1722 H1699 0.950 . S
C1722 C1721 1.397 . S
C1722 C1723 1.334 . S
C1723 H1700 0.950 . S
C1723 C1722 1.334 . S
C1723 C1724 1.287 . S
C1724 C1723 1.287 . S
C1724 C1725 1.524 . S
C1724 H1743 0.913 . S
C1725 H1701 0.950 . S
C1725 C1724 1.524 . S
C1725 C1726 1.415 . S
C1726 H1702 0.950 . S
C1726 C1721 1.363 . S
C1726 C1725 1.415 . S
C1727 H1703 0.951 . S
C1727 C1728 1.366 . S
C1727 C1729 1.388 . S
C1728 C1727 1.366 . S
C1728 C1732 1.385 . S
C1729 H1704 0.951 . S
C1729 C1727 1.388 . S
C1729 C1730 1.366 . S
C1730 C1729 1.366 . S
C1730 C1731 1.414 . S
C1730 C1733 1.499 . S
C1731 H1705 0.950 . S
C1731 C1730 1.414 . S
C1731 C1732 1.374 . S
C1732 H1706 0.950 . S
C1732 C1728 1.385 . S
C1732 C1731 1.374 . S
C1733 C1730 1.499 . S
C1733 C1734 1.373 . S
C1733 C1735 1.389 . S
C1734 H1707 0.950 . S
C1734 C1720 1.377 . S
C1734 C1733 1.373 . S
C1735 C1719 1.377 . S
C1735 C1733 1.389 . S
C1735 C1736 1.524 . S
C1736 C1735 1.524 . S
C1736 C1737 1.397 . S
C1736 C1741 1.363 . S
C1737 H1708 0.950 . S
C1737 C1736 1.397 . S
C1737 C1738 1.334 . S
C1738 H1709 0.950 . S
C1738 C1737 1.334 . S
C1738 C1739 1.287 . S
C1739 C1738 1.287 . S
C1739 C1740 1.524 . S
C1739 H1742 0.999 . S
C1740 H1710 0.950 . S
C1740 C1739 1.524 . S
C1740 C1741 1.415 . S
C1741 H1711 0.950 . S
C1741 C1736 1.363 . S
C1741 C1740 1.415 . S
H1742 C1739 0.999 . S
H1743 C1724 0.913 . S
H1744 C1762 0.951 . S
H1745 C1764 0.951 . S
H1746 C1766 0.950 . S
H1747 C1767 0.950 . S
H1748 C1769 0.950 . S
H1749 C1772 0.950 1_565 S
H1750 C1773 0.950 . S
H1751 C1775 0.950 . S
H1752 C1776 0.950 . S
H1753 C1777 0.951 . S
H1754 C1779 0.951 . S
H1755 C1781 0.950 1_545 S
H1756 C1782 0.950 1_545 S
H1757 C1784 0.950 . S
H1758 C1787 0.950 . S
H1759 C1788 0.950 . S
H1760 C1790 0.950 . S
H1761 C1791 0.950 . S
C1762 H1744 0.951 . S
C1762 C1763 1.366 . S
C1762 C1764 1.388 . S
C1763 C1762 1.366 . S
C1763 C1767 1.385 1_545 S
C1764 H1745 0.951 . S
C1764 C1762 1.388 . S
C1764 C1765 1.366 . S
C1765 C1764 1.366 . S
C1765 C1766 1.414 1_545 S
C1765 C1768 1.499 1_545 S
C1766 H1746 0.950 . S
C1766 C1765 1.414 1_565 S
C1766 C1767 1.374 . S
C1767 H1747 0.950 . S
C1767 C1763 1.385 1_565 S
C1767 C1766 1.374 . S
C1768 C1765 1.499 1_565 S
C1768 C1769 1.373 . S
C1768 C1770 1.389 1_565 S
C1769 H1748 0.950 . S
C1769 C1768 1.373 . S
C1769 C1785 1.377 . S
C1770 C1768 1.389 1_545 S
C1770 C1771 1.524 . S
C1770 C1784 1.377 . S
C1771 C1770 1.524 . S
C1771 C1772 1.397 . S
C1771 C1776 1.363 . S
C1772 H1749 0.950 1_545 S
C1772 C1771 1.397 . S
C1772 C1773 1.334 . S
C1773 H1750 0.950 . S
C1773 C1772 1.334 . S
C1773 C1774 1.287 . S
C1774 C1773 1.287 . S
C1774 C1775 1.524 . S
C1774 H1793 0.913 . S
C1775 H1751 0.950 . S
C1775 C1774 1.524 . S
C1775 C1776 1.415 . S
C1776 H1752 0.950 . S
C1776 C1771 1.363 . S
C1776 C1775 1.415 . S
C1777 H1753 0.951 . S
C1777 C1778 1.366 . S
C1777 C1779 1.388 . S
C1778 C1777 1.366 . S
C1778 C1782 1.385 . S
C1779 H1754 0.951 . S
C1779 C1777 1.388 . S
C1779 C1780 1.366 . S
C1780 C1779 1.366 . S
C1780 C1781 1.414 . S
C1780 C1783 1.499 . S
C1781 H1755 0.950 1_565 S
C1781 C1780 1.414 . S
C1781 C1782 1.374 . S
C1782 H1756 0.950 1_565 S
C1782 C1778 1.385 . S
C1782 C1781 1.374 . S
C1783 C1780 1.499 . S
C1783 C1784 1.373 1_565 S
C1783 C1785 1.389 . S
C1784 H1757 0.950 . S
C1784 C1770 1.377 . S
C1784 C1783 1.373 1_545 S
C1785 C1769 1.377 . S
C1785 C1783 1.389 . S
C1785 C1786 1.524 . S
C1786 C1785 1.524 . S
C1786 C1787 1.397 . S
C1786 C1791 1.363 . S
C1787 H1758 0.950 . S
C1787 C1786 1.397 . S
C1787 C1788 1.334 . S
C1788 H1759 0.950 . S
C1788 C1787 1.334 . S
C1788 C1789 1.287 . S
C1789 C1788 1.287 . S
C1789 C1790 1.524 . S
C1789 H1792 0.999 . S
C1790 H1760 0.950 . S
C1790 C1789 1.524 . S
C1790 C1791 1.415 . S
C1791 H1761 0.950 . S
C1791 C1786 1.363 . S
C1791 C1790 1.415 . S
H1792 C1789 0.999 . S
H1793 C1774 0.913 . S
H1794 C1812 0.951 . S
H1795 C1814 0.951 . S
H1796 C1816 0.950 . S
H1797 C1817 0.950 . S
H1798 C1819 0.950 . S
H1799 C1822 0.950 . S
H1800 C1823 0.950 . S
H1801 C1825 0.950 . S
H1802 C1826 0.950 . S
H1803 C1827 0.951 . S
H1804 C1829 0.951 . S
H1805 C1831 0.950 . S
H1806 C1832 0.950 . S
H1807 C1834 0.950 . S
H1808 C1837 0.950 . S
H1809 C1838 0.950 . S
H1810 C1840 0.950 . S
H1811 C1841 0.950 . S
C1812 H1794 0.951 . S
C1812 C1813 1.366 . S
C1812 C1814 1.388 . S
C1813 C1812 1.366 . S
C1813 C1817 1.385 . S
C1814 H1795 0.951 . S
C1814 C1812 1.388 . S
C1814 C1815 1.366 . S
C1815 C1814 1.366 . S
C1815 C1816 1.414 . S
C1815 C1818 1.499 . S
C1816 H1796 0.950 . S
C1816 C1815 1.414 . S
C1816 C1817 1.374 . S
C1817 H1797 0.950 . S
C1817 C1813 1.385 . S
C1817 C1816 1.374 . S
C1818 C1815 1.499 . S
C1818 C1819 1.373 . S
C1818 C1820 1.389 . S
C1819 H1798 0.950 . S
C1819 C1818 1.373 . S
C1819 C1835 1.377 . S
C1820 C1818 1.389 . S
C1820 C1821 1.524 . S
C1820 C1834 1.377 . S
C1821 C1820 1.524 . S
C1821 C1822 1.397 . S
C1821 C1826 1.363 . S
C1822 H1799 0.950 . S
C1822 C1821 1.397 . S
C1822 C1823 1.334 . S
C1823 H1800 0.950 . S
C1823 C1822 1.334 . S
C1823 C1824 1.287 . S
C1824 C1823 1.287 . S
C1824 C1825 1.524 . S
C1824 H1843 0.913 . S
C1825 H1801 0.950 . S
C1825 C1824 1.524 . S
C1825 C1826 1.415 . S
C1826 H1802 0.950 . S
C1826 C1821 1.363 . S
C1826 C1825 1.415 . S
C1827 H1803 0.951 . S
C1827 C1828 1.366 . S
C1827 C1829 1.388 . S
C1828 C1827 1.366 . S
C1828 C1832 1.385 . S
C1829 H1804 0.951 . S
C1829 C1827 1.388 . S
C1829 C1830 1.366 . S
C1830 C1829 1.366 . S
C1830 C1831 1.414 . S
C1830 C1833 1.499 . S
C1831 H1805 0.950 . S
C1831 C1830 1.414 . S
C1831 C1832 1.374 . S
C1832 H1806 0.950 . S
C1832 C1828 1.385 . S
C1832 C1831 1.374 . S
C1833 C1830 1.499 . S
C1833 C1834 1.373 . S
C1833 C1835 1.389 . S
C1834 H1807 0.950 . S
C1834 C1820 1.377 . S
C1834 C1833 1.373 . S
C1835 C1819 1.377 . S
C1835 C1833 1.389 . S
C1835 C1836 1.524 . S
C1836 C1835 1.524 . S
C1836 C1837 1.397 . S
C1836 C1841 1.363 . S
C1837 H1808 0.950 . S
C1837 C1836 1.397 . S
C1837 C1838 1.334 . S
C1838 H1809 0.950 . S
C1838 C1837 1.334 . S
C1838 C1839 1.287 . S
C1839 C1838 1.287 . S
C1839 C1840 1.524 . S
C1839 H1842 0.999 . S
C1840 H1810 0.950 . S
C1840 C1839 1.524 . S
C1840 C1841 1.415 . S
C1841 H1811 0.950 . S
C1841 C1836 1.363 . S
C1841 C1840 1.415 . S
H1842 C1839 0.999 . S
H1843 C1824 0.913 . S
H1844 C1862 0.951 . S
H1845 C1864 0.951 . S
H1846 C1866 0.950 . S
H1847 C1867 0.950 . S
H1848 C1869 0.950 . S
H1849 C1872 0.950 . S
H1850 C1873 0.950 . S
H1851 C1875 0.950 . S
H1852 C1876 0.950 . S
H1853 C1877 0.951 . S
H1854 C1879 0.951 . S
H1855 C1881 0.950 . S
H1856 C1882 0.950 . S
H1857 C1884 0.950 . S
H1858 C1887 0.950 . S
H1859 C1888 0.950 . S
H1860 C1890 0.950 . S
H1861 C1891 0.950 . S
C1862 H1844 0.951 . S
C1862 C1863 1.366 . S
C1862 C1864 1.388 . S
C1863 C1862 1.366 . S
C1863 C1867 1.385 . S
C1864 H1845 0.951 . S
C1864 C1862 1.388 . S
C1864 C1865 1.366 . S
C1865 C1864 1.366 . S
C1865 C1866 1.414 . S
C1865 C1868 1.499 . S
C1866 H1846 0.950 . S
C1866 C1865 1.414 . S
C1866 C1867 1.374 . S
C1867 H1847 0.950 . S
C1867 C1863 1.385 . S
C1867 C1866 1.374 . S
C1868 C1865 1.499 . S
C1868 C1869 1.373 . S
C1868 C1870 1.389 . S
C1869 H1848 0.950 . S
C1869 C1868 1.373 . S
C1869 C1885 1.377 . S
C1870 C1868 1.389 . S
C1870 C1871 1.524 . S
C1870 C1884 1.377 . S
C1871 C1870 1.524 . S
C1871 C1872 1.397 . S
C1871 C1876 1.363 . S
C1872 H1849 0.950 . S
C1872 C1871 1.397 . S
C1872 C1873 1.334 . S
C1873 H1850 0.950 . S
C1873 C1872 1.334 . S
C1873 C1874 1.287 . S
C1874 C1873 1.287 . S
C1874 C1875 1.524 . S
C1874 H1893 0.913 . S
C1875 H1851 0.950 . S
C1875 C1874 1.524 . S
C1875 C1876 1.415 . S
C1876 H1852 0.950 . S
C1876 C1871 1.363 . S
C1876 C1875 1.415 . S
C1877 H1853 0.951 . S
C1877 C1878 1.366 . S
C1877 C1879 1.388 . S
C1878 C1877 1.366 . S
C1878 C1882 1.385 . S
C1879 H1854 0.951 . S
C1879 C1877 1.388 . S
C1879 C1880 1.366 . S
C1880 C1879 1.366 . S
C1880 C1881 1.414 . S
C1880 C1883 1.499 . S
C1881 H1855 0.950 . S
C1881 C1880 1.414 . S
C1881 C1882 1.374 . S
C1882 H1856 0.950 . S
C1882 C1878 1.385 . S
C1882 C1881 1.374 . S
C1883 C1880 1.499 . S
C1883 C1884 1.373 . S
C1883 C1885 1.389 . S
C1884 H1857 0.950 . S
C1884 C1870 1.377 . S
C1884 C1883 1.373 . S
C1885 C1869 1.377 . S
C1885 C1883 1.389 . S
C1885 C1886 1.524 . S
C1886 C1885 1.524 . S
C1886 C1887 1.397 . S
C1886 C1891 1.363 . S
C1887 H1858 0.950 . S
C1887 C1886 1.397 . S
C1887 C1888 1.334 . S
C1888 H1859 0.950 . S
C1888 C1887 1.334 . S
C1888 C1889 1.287 . S
C1889 C1888 1.287 . S
C1889 C1890 1.524 . S
C1889 H1892 0.999 . S
C1890 H1860 0.950 . S
C1890 C1889 1.524 . S
C1890 C1891 1.415 . S
C1891 H1861 0.950 . S
C1891 C1886 1.363 . S
C1891 C1890 1.415 . S
H1892 C1889 0.999 . S
H1893 C1874 0.913 . S
H1894 C1912 0.951 . S
H1895 C1914 0.951 . S
H1896 C1916 0.950 . S
H1897 C1917 0.950 . S
H1898 C1919 0.950 . S
H1899 C1922 0.950 1_655 S
H1900 C1923 0.950 . S
H1901 C1925 0.950 . S
H1902 C1926 0.950 . S
H1903 C1927 0.951 . S
H1904 C1929 0.951 . S
H1905 C1931 0.950 1_455 S
H1906 C1932 0.944 1_455 S
H1907 C1934 0.950 1_455 S
H1908 C1937 0.950 . S
H1909 C1938 0.950 . S
H1910 C1940 0.950 . S
H1911 C1941 0.950 . S
C1912 H1894 0.951 . S
C1912 C1913 1.366 . S
C1912 C1914 1.388 . S
C1913 C1912 1.366 . S
C1913 C1917 1.385 1_455 S
C1914 H1895 0.951 . S
C1914 C1912 1.388 . S
C1914 C1915 1.366 . S
C1915 C1914 1.366 . S
C1915 C1916 1.414 1_455 S
C1915 C1918 1.499 1_455 S
C1916 H1896 0.950 . S
C1916 C1915 1.414 1_655 S
C1916 C1917 1.374 . S
C1917 H1897 0.950 . S
C1917 C1913 1.385 1_655 S
C1917 C1916 1.374 . S
C1918 C1915 1.499 1_655 S
C1918 C1919 1.373 . S
C1918 C1920 1.389 1_655 S
C1919 H1898 0.950 . S
C1919 C1918 1.373 . S
C1919 C1935 1.377 . S
C1920 C1918 1.389 1_455 S
C1920 C1921 1.524 . S
C1920 C1934 1.377 1_455 S
C1921 C1920 1.524 . S
C1921 C1922 1.397 . S
C1921 C1926 1.363 . S
C1922 H1899 0.950 1_455 S
C1922 C1921 1.397 . S
C1922 C1923 1.334 . S
C1923 H1900 0.950 . S
C1923 C1922 1.334 . S
C1923 C1924 1.287 . S
C1924 C1923 1.287 . S
C1924 C1925 1.524 . S
C1924 H1943 0.913 . S
C1925 H1901 0.950 . S
C1925 C1924 1.524 . S
C1925 C1926 1.415 . S
C1926 H1902 0.950 . S
C1926 C1921 1.363 . S
C1926 C1925 1.415 . S
C1927 H1903 0.951 . S
C1927 C1928 1.366 . S
C1927 C1929 1.388 . S
C1928 C1927 1.366 . S
C1928 C1932 1.385 . S
C1929 H1904 0.951 . S
C1929 C1927 1.388 . S
C1929 C1930 1.366 . S
C1930 C1929 1.366 . S
C1930 C1931 1.414 . S
C1930 C1933 1.499 . S
C1931 H1905 0.950 1_655 S
C1931 C1930 1.414 . S
C1931 C1932 1.374 . S
C1932 H1906 0.944 1_655 S
C1932 C1928 1.385 . S
C1932 C1931 1.374 . S
C1933 C1930 1.499 . S
C1933 C1934 1.373 . S
C1933 C1935 1.389 . S
C1934 H1907 0.950 1_655 S
C1934 C1920 1.377 1_655 S
C1934 C1933 1.373 . S
C1935 C1919 1.377 . S
C1935 C1933 1.389 . S
C1935 C1936 1.524 . S
C1936 C1935 1.524 . S
C1936 C1937 1.397 . S
C1936 C1941 1.363 . S
C1937 H1908 0.950 . S
C1937 C1936 1.397 . S
C1937 C1938 1.334 . S
C1938 H1909 0.950 . S
C1938 C1937 1.334 . S
C1938 C1939 1.287 . S
C1939 C1938 1.287 . S
C1939 C1940 1.524 . S
C1939 H1942 0.999 . S
C1940 H1910 0.950 . S
C1940 C1939 1.524 . S
C1940 C1941 1.415 . S
C1941 H1911 0.950 . S
C1941 C1936 1.363 . S
C1941 C1940 1.415 . S
H1942 C1939 0.999 . S
H1943 C1924 0.913 . S
H1944 C1962 0.951 . S
H1945 C1964 0.951 . S
H1946 C1966 0.950 . S
H1947 C1967 0.950 . S
H1948 C1969 0.950 . S
H1949 C1972 0.950 . S
H1950 C1973 0.950 . S
H1951 C1975 0.950 . S
H1952 C1976 0.950 . S
H1953 C1977 0.951 . S
H1954 C1979 0.951 . S
H1955 C1981 0.950 . S
H1956 C1982 0.950 . S
H1957 C1984 0.950 . S
H1958 C1987 0.950 . S
H1959 C1988 0.950 . S
H1960 C1990 0.950 . S
H1961 C1991 0.950 . S
C1962 H1944 0.951 . S
C1962 C1963 1.366 . S
C1962 C1964 1.388 . S
C1963 C1962 1.366 . S
C1963 C1967 1.385 . S
C1964 H1945 0.951 . S
C1964 C1962 1.388 . S
C1964 C1965 1.366 . S
C1965 C1964 1.366 . S
C1965 C1966 1.414 . S
C1965 C1968 1.499 . S
C1966 H1946 0.950 . S
C1966 C1965 1.414 . S
C1966 C1967 1.374 . S
C1967 H1947 0.950 . S
C1967 C1963 1.385 . S
C1967 C1966 1.374 . S
C1968 C1965 1.499 . S
C1968 C1969 1.373 . S
C1968 C1970 1.389 . S
C1969 H1948 0.950 . S
C1969 C1968 1.373 . S
C1969 C1985 1.377 . S
C1970 C1968 1.389 . S
C1970 C1971 1.524 . S
C1970 C1984 1.377 . S
C1971 C1970 1.524 . S
C1971 C1972 1.397 . S
C1971 C1976 1.363 . S
C1972 H1949 0.950 . S
C1972 C1971 1.397 . S
C1972 C1973 1.334 . S
C1973 H1950 0.950 . S
C1973 C1972 1.334 . S
C1973 C1974 1.287 . S
C1974 C1973 1.287 . S
C1974 C1975 1.524 . S
C1974 H1993 0.913 . S
C1975 H1951 0.950 . S
C1975 C1974 1.524 . S
C1975 C1976 1.415 . S
C1976 H1952 0.950 . S
C1976 C1971 1.363 . S
C1976 C1975 1.415 . S
C1977 H1953 0.951 . S
C1977 C1978 1.366 . S
C1977 C1979 1.388 . S
C1978 C1977 1.366 . S
C1978 C1982 1.385 . S
C1979 H1954 0.951 . S
C1979 C1977 1.388 . S
C1979 C1980 1.366 . S
C1980 C1979 1.366 . S
C1980 C1981 1.414 . S
C1980 C1983 1.499 . S
C1981 H1955 0.950 . S
C1981 C1980 1.414 . S
C1981 C1982 1.374 . S
C1982 H1956 0.950 . S
C1982 C1978 1.385 . S
C1982 C1981 1.374 . S
C1983 C1980 1.499 . S
C1983 C1984 1.373 . S
C1983 C1985 1.389 . S
C1984 H1957 0.950 . S
C1984 C1970 1.377 . S
C1984 C1983 1.373 . S
C1985 C1969 1.377 . S
C1985 C1983 1.389 . S
C1985 C1986 1.524 . S
C1986 C1985 1.524 . S
C1986 C1987 1.397 . S
C1986 C1991 1.363 . S
C1987 H1958 0.950 . S
C1987 C1986 1.397 . S
C1987 C1988 1.334 . S
C1988 H1959 0.950 . S
C1988 C1987 1.334 . S
C1988 C1989 1.287 . S
C1989 C1988 1.287 . S
C1989 C1990 1.524 . S
C1989 H1992 0.999 . S
C1990 H1960 0.950 . S
C1990 C1989 1.524 . S
C1990 C1991 1.415 . S
C1991 H1961 0.950 . S
C1991 C1986 1.363 . S
C1991 C1990 1.415 . S
H1992 C1989 0.999 . S
H1993 C1974 0.913 . S
H1994 C2012 0.951 . S
H1995 C2014 0.951 . S
H1996 C2016 0.950 . S
H1997 C2017 0.950 . S
H1998 C2019 0.950 . S
H1999 C2022 0.950 . S
H2000 C2023 0.950 1_655 S
H2001 C2025 0.950 . S
H2002 C2026 0.950 . S
H2003 C2027 0.951 . S
H2004 C2029 0.951 . S
H2005 C2031 0.950 1_455 S
H2006 C2032 0.971 . S
H2007 C2034 0.951 1_455 S
H2008 C2037 0.950 . S
H2009 C2038 0.950 . S
H2010 C2040 0.950 . S
H2011 C2041 0.950 . S
C2012 H1994 0.951 . S
C2012 C2013 1.366 . S
C2012 C2014 1.388 . S
C2013 C2012 1.366 . S
C2013 C2017 1.385 1_455 S
C2014 H1995 0.951 . S
C2014 C2012 1.388 . S
C2014 C2015 1.366 . S
C2015 C2014 1.366 . S
C2015 C2016 1.414 1_455 S
C2015 C2018 1.499 1_455 S
C2016 H1996 0.950 . S
C2016 C2015 1.414 1_655 S
C2016 C2017 1.374 . S
C2017 H1997 0.950 . S
C2017 C2013 1.385 1_655 S
C2017 C2016 1.374 . S
C2018 C2015 1.499 1_655 S
C2018 C2019 1.373 . S
C2018 C2020 1.389 1_655 S
C2019 H1998 0.950 . S
C2019 C2018 1.373 . S
C2019 C2035 1.377 . S
C2020 C2018 1.389 1_455 S
C2020 C2021 1.524 . S
C2020 C2034 1.377 1_455 S
C2021 C2020 1.524 . S
C2021 C2022 1.397 1_455 S
C2021 C2026 1.363 . S
C2022 H1999 0.950 . S
C2022 C2021 1.397 1_655 S
C2022 C2023 1.334 1_655 S
C2023 H2000 0.950 1_455 S
C2023 C2022 1.334 1_455 S
C2023 C2024 1.287 . S
C2024 C2023 1.287 . S
C2024 C2025 1.524 . S
C2024 H2043 0.913 . S
C2025 H2001 0.950 . S
C2025 C2024 1.524 . S
C2025 C2026 1.415 . S
C2026 H2002 0.950 . S
C2026 C2021 1.363 . S
C2026 C2025 1.415 . S
C2027 H2003 0.951 . S
C2027 C2028 1.366 . S
C2027 C2029 1.388 . S
C2028 C2027 1.366 . S
C2028 C2032 1.385 . S
C2029 H2004 0.951 . S
C2029 C2027 1.388 . S
C2029 C2030 1.366 . S
C2030 C2029 1.366 . S
C2030 C2031 1.414 . S
C2030 C2033 1.499 . S
C2031 H2005 0.950 1_655 S
C2031 C2030 1.414 . S
C2031 C2032 1.374 . S
C2032 H2006 0.971 . S
C2032 C2028 1.385 . S
C2032 C2031 1.374 . S
C2033 C2030 1.499 . S
C2033 C2034 1.373 . S
C2033 C2035 1.389 . S
C2034 H2007 0.951 1_655 S
C2034 C2020 1.377 1_655 S
C2034 C2033 1.373 . S
C2035 C2019 1.377 . S
C2035 C2033 1.389 . S
C2035 C2036 1.524 . S
C2036 C2035 1.524 . S
C2036 C2037 1.397 . S
C2036 C2041 1.363 . S
C2037 H2008 0.950 . S
C2037 C2036 1.397 . S
C2037 C2038 1.334 . S
C2038 H2009 0.950 . S
C2038 C2037 1.334 . S
C2038 C2039 1.287 . S
C2039 C2038 1.287 . S
C2039 C2040 1.524 . S
C2039 H2042 0.999 . S
C2040 H2010 0.950 . S
C2040 C2039 1.524 . S
C2040 C2041 1.415 . S
C2041 H2011 0.950 . S
C2041 C2036 1.363 . S
C2041 C2040 1.415 . S
H2042 C2039 0.999 . S
H2043 C2024 0.913 . S
H2044 C2062 0.951 . S
H2045 C2064 0.951 . S
H2046 C2066 0.950 . S
H2047 C2067 0.950 . S
H2048 C2069 0.950 . S
H2049 C2072 0.950 . S
H2050 C2073 0.950 . S
H2051 C2075 0.950 . S
H2052 C2076 0.950 . S
H2053 C2077 0.951 . S
H2054 C2079 0.951 . S
H2055 C2081 0.950 . S
H2056 C2082 0.950 . S
H2057 C2084 0.950 . S
H2058 C2087 0.950 . S
H2059 C2088 0.950 . S
H2060 C2090 0.950 . S
H2061 C2091 0.950 . S
C2062 H2044 0.951 . S
C2062 C2063 1.366 . S
C2062 C2064 1.388 . S
C2063 C2062 1.366 . S
C2063 C2067 1.385 . S
C2064 H2045 0.951 . S
C2064 C2062 1.388 . S
C2064 C2065 1.366 . S
C2065 C2064 1.366 . S
C2065 C2066 1.414 . S
C2065 C2068 1.499 . S
C2066 H2046 0.950 . S
C2066 C2065 1.414 . S
C2066 C2067 1.374 . S
C2067 H2047 0.950 . S
C2067 C2063 1.385 . S
C2067 C2066 1.374 . S
C2068 C2065 1.499 . S
C2068 C2069 1.373 . S
C2068 C2070 1.389 1_565 S
C2069 H2048 0.950 . S
C2069 C2068 1.373 . S
C2069 C2085 1.377 . S
C2070 C2068 1.389 1_545 S
C2070 C2071 1.524 . S
C2070 C2084 1.377 . S
C2071 C2070 1.524 . S
C2071 C2072 1.397 . S
C2071 C2076 1.363 . S
C2072 H2049 0.950 . S
C2072 C2071 1.397 . S
C2072 C2073 1.334 . S
C2073 H2050 0.950 . S
C2073 C2072 1.334 . S
C2073 C2074 1.287 . S
C2074 C2073 1.287 . S
C2074 C2075 1.524 . S
C2074 H2093 0.913 . S
C2075 H2051 0.950 . S
C2075 C2074 1.524 . S
C2075 C2076 1.415 . S
C2076 H2052 0.950 . S
C2076 C2071 1.363 . S
C2076 C2075 1.415 . S
C2077 H2053 0.951 . S
C2077 C2078 1.366 . S
C2077 C2079 1.388 1_545 S
C2078 C2077 1.366 . S
C2078 C2082 1.385 . S
C2079 H2054 0.951 . S
C2079 C2077 1.388 1_565 S
C2079 C2080 1.366 1_565 S
C2080 C2079 1.366 1_545 S
C2080 C2081 1.414 . S
C2080 C2083 1.499 1_545 S
C2081 H2055 0.950 . S
C2081 C2080 1.414 . S
C2081 C2082 1.374 . S
C2082 H2056 0.950 . S
C2082 C2078 1.385 . S
C2082 C2081 1.374 . S
C2083 C2080 1.499 1_565 S
C2083 C2084 1.373 1_565 S
C2083 C2085 1.389 . S
C2084 H2057 0.950 . S
C2084 C2070 1.377 . S
C2084 C2083 1.373 1_545 S
C2085 C2069 1.377 . S
C2085 C2083 1.389 . S
C2085 C2086 1.524 . S
C2086 C2085 1.524 . S
C2086 C2087 1.397 . S
C2086 C2091 1.363 . S
C2087 H2058 0.950 . S
C2087 C2086 1.397 . S
C2087 C2088 1.334 . S
C2088 H2059 0.950 . S
C2088 C2087 1.334 . S
C2088 C2089 1.287 . S
C2089 C2088 1.287 . S
C2089 C2090 1.524 . S
C2089 H2092 0.999 . S
C2090 H2060 0.950 . S
C2090 C2089 1.524 . S
C2090 C2091 1.415 . S
C2091 H2061 0.950 . S
C2091 C2086 1.363 . S
C2091 C2090 1.415 . S
H2092 C2089 0.999 . S
H2093 C2074 0.913 . S
H2094 C2112 0.951 . S
H2095 C2114 0.951 . S
H2096 C2116 0.950 . S
H2097 C2117 0.950 . S
H2098 C2119 0.950 . S
H2099 C2122 0.950 . S
H2100 C2123 0.950 . S
H2101 C2125 0.950 . S
H2102 C2126 0.950 . S
H2103 C2127 0.951 . S
H2104 C2129 0.951 . S
H2105 C2131 0.950 . S
H2106 C2132 0.950 . S
H2107 C2134 0.950 . S
H2108 C2137 0.950 . S
H2109 C2138 0.950 . S
H2110 C2140 0.950 . S
H2111 C2141 0.950 . S
C2112 H2094 0.951 . S
C2112 C2113 1.366 . S
C2112 C2114 1.388 . S
C2113 C2112 1.366 . S
C2113 C2117 1.385 . S
C2114 H2095 0.951 . S
C2114 C2112 1.388 . S
C2114 C2115 1.366 . S
C2115 C2114 1.366 . S
C2115 C2116 1.414 . S
C2115 C2118 1.499 . S
C2116 H2096 0.950 . S
C2116 C2115 1.414 . S
C2116 C2117 1.374 . S
C2117 H2097 0.950 . S
C2117 C2113 1.385 . S
C2117 C2116 1.374 . S
C2118 C2115 1.499 . S
C2118 C2119 1.373 . S
C2118 C2120 1.389 . S
C2119 H2098 0.950 . S
C2119 C2118 1.373 . S
C2119 C2135 1.377 . S
C2120 C2118 1.389 . S
C2120 C2121 1.524 . S
C2120 C2134 1.377 . S
C2121 C2120 1.524 . S
C2121 C2122 1.397 . S
C2121 C2126 1.363 . S
C2122 H2099 0.950 . S
C2122 C2121 1.397 . S
C2122 C2123 1.334 . S
C2123 H2100 0.950 . S
C2123 C2122 1.334 . S
C2123 C2124 1.287 . S
C2124 C2123 1.287 . S
C2124 C2125 1.524 . S
C2124 H2143 0.913 . S
C2125 H2101 0.950 . S
C2125 C2124 1.524 . S
C2125 C2126 1.415 . S
C2126 H2102 0.950 . S
C2126 C2121 1.363 . S
C2126 C2125 1.415 . S
C2127 H2103 0.951 . S
C2127 C2128 1.366 . S
C2127 C2129 1.388 . S
C2128 C2127 1.366 . S
C2128 C2132 1.385 . S
C2129 H2104 0.951 . S
C2129 C2127 1.388 . S
C2129 C2130 1.366 . S
C2130 C2129 1.366 . S
C2130 C2131 1.414 . S
C2130 C2133 1.499 . S
C2131 H2105 0.950 . S
C2131 C2130 1.414 . S
C2131 C2132 1.374 . S
C2132 H2106 0.950 . S
C2132 C2128 1.385 . S
C2132 C2131 1.374 . S
C2133 C2130 1.499 . S
C2133 C2134 1.373 . S
C2133 C2135 1.389 . S
C2134 H2107 0.950 . S
C2134 C2120 1.377 . S
C2134 C2133 1.373 . S
C2135 C2119 1.377 . S
C2135 C2133 1.389 . S
C2135 C2136 1.524 . S
C2136 C2135 1.524 . S
C2136 C2137 1.397 . S
C2136 C2141 1.363 . S
C2137 H2108 0.950 . S
C2137 C2136 1.397 . S
C2137 C2138 1.334 . S
C2138 H2109 0.950 . S
C2138 C2137 1.334 . S
C2138 C2139 1.287 . S
C2139 C2138 1.287 . S
C2139 C2140 1.524 . S
C2139 H2142 0.999 . S
C2140 H2110 0.950 . S
C2140 C2139 1.524 . S
C2140 C2141 1.415 . S
C2141 H2111 0.950 . S
C2141 C2136 1.363 . S
C2141 C2140 1.415 . S
H2142 C2139 0.999 . S
H2143 C2124 0.913 . S
H2144 C2162 0.951 . S
H2145 C2164 0.951 . S
H2146 C2166 0.950 . S
H2147 C2167 0.950 . S
H2148 C2169 0.950 . S
H2149 C2172 0.950 . S
H2150 C2173 0.950 . S
H2151 C2175 0.950 . S
H2152 C2176 0.950 . S
H2153 C2177 0.951 . S
H2154 C2179 0.951 . S
H2155 C2181 0.950 . S
H2156 C2182 0.950 . S
H2157 C2184 0.950 . S
H2158 C2187 0.950 . S
H2159 C2188 0.950 . S
H2160 C2190 0.950 . S
H2161 C2191 0.950 . S
C2162 H2144 0.951 . S
C2162 C2163 1.366 . S
C2162 C2164 1.388 . S
C2163 C2162 1.366 . S
C2163 C2167 1.385 . S
C2164 H2145 0.951 . S
C2164 C2162 1.388 . S
C2164 C2165 1.366 . S
C2165 C2164 1.366 . S
C2165 C2166 1.414 . S
C2165 C2168 1.499 . S
C2166 H2146 0.950 . S
C2166 C2165 1.414 . S
C2166 C2167 1.374 . S
C2167 H2147 0.950 . S
C2167 C2163 1.385 . S
C2167 C2166 1.374 . S
C2168 C2165 1.499 . S
C2168 C2169 1.373 . S
C2168 C2170 1.389 . S
C2169 H2148 0.950 . S
C2169 C2168 1.373 . S
C2169 C2185 1.377 . S
C2170 C2168 1.389 . S
C2170 C2171 1.524 . S
C2170 C2184 1.377 . S
C2171 C2170 1.524 . S
C2171 C2172 1.397 . S
C2171 C2176 1.363 . S
C2172 H2149 0.950 . S
C2172 C2171 1.397 . S
C2172 C2173 1.334 . S
C2173 H2150 0.950 . S
C2173 C2172 1.334 . S
C2173 C2174 1.287 . S
C2174 C2173 1.287 . S
C2174 C2175 1.524 . S
C2174 H2193 0.913 . S
C2175 H2151 0.950 . S
C2175 C2174 1.524 . S
C2175 C2176 1.415 . S
C2176 H2152 0.950 . S
C2176 C2171 1.363 . S
C2176 C2175 1.415 . S
C2177 H2153 0.951 . S
C2177 C2178 1.366 . S
C2177 C2179 1.388 . S
C2178 C2177 1.366 . S
C2178 C2182 1.385 . S
C2179 H2154 0.951 . S
C2179 C2177 1.388 . S
C2179 C2180 1.366 . S
C2180 C2179 1.366 . S
C2180 C2181 1.414 . S
C2180 C2183 1.499 . S
C2181 H2155 0.950 . S
C2181 C2180 1.414 . S
C2181 C2182 1.374 . S
C2182 H2156 0.950 . S
C2182 C2178 1.385 . S
C2182 C2181 1.374 . S
C2183 C2180 1.499 . S
C2183 C2184 1.373 . S
C2183 C2185 1.389 . S
C2184 H2157 0.950 . S
C2184 C2170 1.377 . S
C2184 C2183 1.373 . S
C2185 C2169 1.377 . S
C2185 C2183 1.389 . S
C2185 C2186 1.524 . S
C2186 C2185 1.524 . S
C2186 C2187 1.397 . S
C2186 C2191 1.363 . S
C2187 H2158 0.950 . S
C2187 C2186 1.397 . S
C2187 C2188 1.334 . S
C2188 H2159 0.950 . S
C2188 C2187 1.334 . S
C2188 C2189 1.287 . S
C2189 C2188 1.287 . S
C2189 C2190 1.524 . S
C2189 H2192 0.999 . S
C2190 H2160 0.950 . S
C2190 C2189 1.524 . S
C2190 C2191 1.415 . S
C2191 H2161 0.950 . S
C2191 C2186 1.363 . S
C2191 C2190 1.415 . S
H2192 C2189 0.999 . S
H2193 C2174 0.913 . S
H2194 C2212 0.951 . S
H2195 C2214 0.951 . S
H2196 C2216 0.950 . S
H2197 C2217 0.950 . S
H2198 C2219 0.950 . S
H2199 C2222 0.950 . S
H2200 C2223 0.950 . S
H2201 C2225 0.950 . S
H2202 C2226 0.950 . S
H2203 C2227 0.951 . S
H2204 C2229 0.951 . S
H2205 C2231 0.950 . S
H2206 C2232 0.950 . S
H2207 C2234 0.950 . S
H2208 C2237 0.950 . S
H2209 C2238 0.950 . S
H2210 C2240 0.950 . S
H2211 C2241 0.950 . S
C2212 H2194 0.951 . S
C2212 C2213 1.366 . S
C2212 C2214 1.388 . S
C2213 C2212 1.366 . S
C2213 C2217 1.385 . S
C2214 H2195 0.951 . S
C2214 C2212 1.388 . S
C2214 C2215 1.366 . S
C2215 C2214 1.366 . S
C2215 C2216 1.414 . S
C2215 C2218 1.499 . S
C2216 H2196 0.950 . S
C2216 C2215 1.414 . S
C2216 C2217 1.374 . S
C2217 H2197 0.950 . S
C2217 C2213 1.385 . S
C2217 C2216 1.374 . S
C2218 C2215 1.499 . S
C2218 C2219 1.373 . S
C2218 C2220 1.389 . S
C2219 H2198 0.950 . S
C2219 C2218 1.373 . S
C2219 C2235 1.377 . S
C2220 C2218 1.389 . S
C2220 C2221 1.524 . S
C2220 C2234 1.377 . S
C2221 C2220 1.524 . S
C2221 C2222 1.397 . S
C2221 C2226 1.363 . S
C2222 H2199 0.950 . S
C2222 C2221 1.397 . S
C2222 C2223 1.334 . S
C2223 H2200 0.950 . S
C2223 C2222 1.334 . S
C2223 C2224 1.287 . S
C2224 C2223 1.287 . S
C2224 C2225 1.524 . S
C2224 H2243 0.913 . S
C2225 H2201 0.950 . S
C2225 C2224 1.524 . S
C2225 C2226 1.415 . S
C2226 H2202 0.950 . S
C2226 C2221 1.363 . S
C2226 C2225 1.415 . S
C2227 H2203 0.951 . S
C2227 C2228 1.366 . S
C2227 C2229 1.388 . S
C2228 C2227 1.366 . S
C2228 C2232 1.385 . S
C2229 H2204 0.951 . S
C2229 C2227 1.388 . S
C2229 C2230 1.366 . S
C2230 C2229 1.366 . S
C2230 C2231 1.414 . S
C2230 C2233 1.499 . S
C2231 H2205 0.950 . S
C2231 C2230 1.414 . S
C2231 C2232 1.374 . S
C2232 H2206 0.950 . S
C2232 C2228 1.385 . S
C2232 C2231 1.374 . S
C2233 C2230 1.499 . S
C2233 C2234 1.373 . S
C2233 C2235 1.389 . S
C2234 H2207 0.950 . S
C2234 C2220 1.377 . S
C2234 C2233 1.373 . S
C2235 C2219 1.377 . S
C2235 C2233 1.389 . S
C2235 C2236 1.524 . S
C2236 C2235 1.524 . S
C2236 C2237 1.397 . S
C2236 C2241 1.363 . S
C2237 H2208 0.950 . S
C2237 C2236 1.397 . S
C2237 C2238 1.334 . S
C2238 H2209 0.950 . S
C2238 C2237 1.334 . S
C2238 C2239 1.287 . S
C2239 C2238 1.287 . S
C2239 C2240 1.524 . S
C2239 H2242 0.999 . S
C2240 H2210 0.950 . S
C2240 C2239 1.524 . S
C2240 C2241 1.415 . S
C2241 H2211 0.950 . S
C2241 C2236 1.363 . S
C2241 C2240 1.415 . S
H2242 C2239 0.999 . S
H2243 C2224 0.913 . S
H2244 C2262 0.951 . S
H2245 C2264 0.951 . S
H2246 C2266 0.950 . S
H2247 C2267 0.950 . S
H2248 C2269 0.950 . S
H2249 C2272 0.950 . S
H2250 C2273 0.950 . S
H2251 C2275 0.950 . S
H2252 C2276 0.950 . S
H2253 C2277 0.951 . S
H2254 C2279 0.951 . S
H2255 C2281 0.950 . S
H2256 C2282 0.950 . S
H2257 C2284 0.950 . S
H2258 C2287 0.950 . S
H2259 C2288 0.950 . S
H2260 C2290 0.950 . S
H2261 C2291 0.950 . S
C2262 H2244 0.951 . S
C2262 C2263 1.366 . S
C2262 C2264 1.388 . S
C2263 C2262 1.366 . S
C2263 C2267 1.385 . S
C2264 H2245 0.951 . S
C2264 C2262 1.388 . S
C2264 C2265 1.366 . S
C2265 C2264 1.366 . S
C2265 C2266 1.414 . S
C2265 C2268 1.499 . S
C2266 H2246 0.950 . S
C2266 C2265 1.414 . S
C2266 C2267 1.374 . S
C2267 H2247 0.950 . S
C2267 C2263 1.385 . S
C2267 C2266 1.374 . S
C2268 C2265 1.499 . S
C2268 C2269 1.373 . S
C2268 C2270 1.389 . S
C2269 H2248 0.950 . S
C2269 C2268 1.373 . S
C2269 C2285 1.377 . S
C2270 C2268 1.389 . S
C2270 C2271 1.524 . S
C2270 C2284 1.377 . S
C2271 C2270 1.524 . S
C2271 C2272 1.397 . S
C2271 C2276 1.363 . S
C2272 H2249 0.950 . S
C2272 C2271 1.397 . S
C2272 C2273 1.334 . S
C2273 H2250 0.950 . S
C2273 C2272 1.334 . S
C2273 C2274 1.287 . S
C2274 C2273 1.287 . S
C2274 C2275 1.524 . S
C2274 H2293 0.913 . S
C2275 H2251 0.950 . S
C2275 C2274 1.524 . S
C2275 C2276 1.415 . S
C2276 H2252 0.950 . S
C2276 C2271 1.363 . S
C2276 C2275 1.415 . S
C2277 H2253 0.951 . S
C2277 C2278 1.366 . S
C2277 C2279 1.388 . S
C2278 C2277 1.366 . S
C2278 C2282 1.385 . S
C2279 H2254 0.951 . S
C2279 C2277 1.388 . S
C2279 C2280 1.366 . S
C2280 C2279 1.366 . S
C2280 C2281 1.414 . S
C2280 C2283 1.499 . S
C2281 H2255 0.950 . S
C2281 C2280 1.414 . S
C2281 C2282 1.374 . S
C2282 H2256 0.950 . S
C2282 C2278 1.385 . S
C2282 C2281 1.374 . S
C2283 C2280 1.499 . S
C2283 C2284 1.373 . S
C2283 C2285 1.389 . S
C2284 H2257 0.950 . S
C2284 C2270 1.377 . S
C2284 C2283 1.373 . S
C2285 C2269 1.377 . S
C2285 C2283 1.389 . S
C2285 C2286 1.524 . S
C2286 C2285 1.524 . S
C2286 C2287 1.397 . S
C2286 C2291 1.363 . S
C2287 H2258 0.950 . S
C2287 C2286 1.397 . S
C2287 C2288 1.334 . S
C2288 H2259 0.950 . S
C2288 C2287 1.334 . S
C2288 C2289 1.287 . S
C2289 C2288 1.287 . S
C2289 C2290 1.524 . S
C2289 H2292 0.999 . S
C2290 H2260 0.950 . S
C2290 C2289 1.524 . S
C2290 C2291 1.415 . S
C2291 H2261 0.950 . S
C2291 C2286 1.363 . S
C2291 C2290 1.415 . S
H2292 C2289 0.999 . S
H2293 C2274 0.913 . S
H2294 C2312 0.951 . S
H2295 C2314 0.951 . S
H2296 C2316 0.950 . S
H2297 C2317 0.950 . S
H2298 C2319 0.950 . S
H2299 C2322 0.950 . S
H2300 C2323 0.950 . S
H2301 C2325 0.950 . S
H2302 C2326 0.950 . S
H2303 C2327 0.951 . S
H2304 C2329 0.951 . S
H2305 C2331 0.950 . S
H2306 C2332 0.950 . S
H2307 C2334 0.950 . S
H2308 C2337 0.950 . S
H2309 C2338 0.950 . S
H2310 C2340 0.950 . S
H2311 C2341 0.950 . S
C2312 H2294 0.951 . S
C2312 C2313 1.366 . S
C2312 C2314 1.388 . S
C2313 C2312 1.366 . S
C2313 C2317 1.385 . S
C2314 H2295 0.951 . S
C2314 C2312 1.388 . S
C2314 C2315 1.366 . S
C2315 C2314 1.366 . S
C2315 C2316 1.414 . S
C2315 C2318 1.499 . S
C2316 H2296 0.950 . S
C2316 C2315 1.414 . S
C2316 C2317 1.374 . S
C2317 H2297 0.950 . S
C2317 C2313 1.385 . S
C2317 C2316 1.374 . S
C2318 C2315 1.499 . S
C2318 C2319 1.373 . S
C2318 C2320 1.389 . S
C2319 H2298 0.950 . S
C2319 C2318 1.373 . S
C2319 C2335 1.377 . S
C2320 C2318 1.389 . S
C2320 C2321 1.524 . S
C2320 C2334 1.377 . S
C2321 C2320 1.524 . S
C2321 C2322 1.397 . S
C2321 C2326 1.363 . S
C2322 H2299 0.950 . S
C2322 C2321 1.397 . S
C2322 C2323 1.334 . S
C2323 H2300 0.950 . S
C2323 C2322 1.334 . S
C2323 C2324 1.287 . S
C2324 C2323 1.287 . S
C2324 C2325 1.524 . S
C2324 H2343 0.913 . S
C2325 H2301 0.950 . S
C2325 C2324 1.524 . S
C2325 C2326 1.415 . S
C2326 H2302 0.950 . S
C2326 C2321 1.363 . S
C2326 C2325 1.415 . S
C2327 H2303 0.951 . S
C2327 C2328 1.366 . S
C2327 C2329 1.388 . S
C2328 C2327 1.366 . S
C2328 C2332 1.385 . S
C2329 H2304 0.951 . S
C2329 C2327 1.388 . S
C2329 C2330 1.366 . S
C2330 C2329 1.366 . S
C2330 C2331 1.414 . S
C2330 C2333 1.499 . S
C2331 H2305 0.950 . S
C2331 C2330 1.414 . S
C2331 C2332 1.374 . S
C2332 H2306 0.950 . S
C2332 C2328 1.385 . S
C2332 C2331 1.374 . S
C2333 C2330 1.499 . S
C2333 C2334 1.373 . S
C2333 C2335 1.389 . S
C2334 H2307 0.950 . S
C2334 C2320 1.377 . S
C2334 C2333 1.373 . S
C2335 C2319 1.377 . S
C2335 C2333 1.389 . S
C2335 C2336 1.524 . S
C2336 C2335 1.524 . S
C2336 C2337 1.397 . S
C2336 C2341 1.363 . S
C2337 H2308 0.950 . S
C2337 C2336 1.397 . S
C2337 C2338 1.334 . S
C2338 H2309 0.950 . S
C2338 C2337 1.334 . S
C2338 C2339 1.287 . S
C2339 C2338 1.287 . S
C2339 C2340 1.524 . S
C2339 H2342 0.999 . S
C2340 H2310 0.950 . S
C2340 C2339 1.524 . S
C2340 C2341 1.415 . S
C2341 H2311 0.950 . S
C2341 C2336 1.363 . S
C2341 C2340 1.415 . S
H2342 C2339 0.999 . S
H2343 C2324 0.913 . S
H2344 C2362 0.951 . S
H2345 C2364 0.951 . S
H2346 C2366 0.950 . S
H2347 C2367 0.950 . S
H2348 C2369 0.950 . S
H2349 C2372 0.950 . S
H2350 C2373 0.950 . S
H2351 C2375 0.950 . S
H2352 C2376 0.950 . S
H2353 C2377 0.951 . S
H2354 C2379 0.951 . S
H2355 C2381 0.950 . S
H2356 C2382 0.950 . S
H2357 C2384 0.950 . S
H2358 C2387 0.950 . S
H2359 C2388 0.950 . S
H2360 C2390 0.950 . S
H2361 C2391 0.950 . S
C2362 H2344 0.951 . S
C2362 C2363 1.366 . S
C2362 C2364 1.388 . S
C2363 C2362 1.366 . S
C2363 C2367 1.385 . S
C2364 H2345 0.951 . S
C2364 C2362 1.388 . S
C2364 C2365 1.366 . S
C2365 C2364 1.366 . S
C2365 C2366 1.414 . S
C2365 C2368 1.499 . S
C2366 H2346 0.950 . S
C2366 C2365 1.414 . S
C2366 C2367 1.374 . S
C2367 H2347 0.950 . S
C2367 C2363 1.385 . S
C2367 C2366 1.374 . S
C2368 C2365 1.499 . S
C2368 C2369 1.373 . S
C2368 C2370 1.389 . S
C2369 H2348 0.950 . S
C2369 C2368 1.373 . S
C2369 C2385 1.377 . S
C2370 C2368 1.389 . S
C2370 C2371 1.524 . S
C2370 C2384 1.377 . S
C2371 C2370 1.524 . S
C2371 C2372 1.397 . S
C2371 C2376 1.363 . S
C2372 H2349 0.950 . S
C2372 C2371 1.397 . S
C2372 C2373 1.334 . S
C2373 H2350 0.950 . S
C2373 C2372 1.334 . S
C2373 C2374 1.287 . S
C2374 C2373 1.287 . S
C2374 C2375 1.524 . S
C2374 H2393 0.913 . S
C2375 H2351 0.950 . S
C2375 C2374 1.524 . S
C2375 C2376 1.415 . S
C2376 H2352 0.950 . S
C2376 C2371 1.363 . S
C2376 C2375 1.415 . S
C2377 H2353 0.951 . S
C2377 C2378 1.366 . S
C2377 C2379 1.388 . S
C2378 C2377 1.366 . S
C2378 C2382 1.385 . S
C2379 H2354 0.951 . S
C2379 C2377 1.388 . S
C2379 C2380 1.366 . S
C2380 C2379 1.366 . S
C2380 C2381 1.414 . S
C2380 C2383 1.499 . S
C2381 H2355 0.950 . S
C2381 C2380 1.414 . S
C2381 C2382 1.374 . S
C2382 H2356 0.950 . S
C2382 C2378 1.385 . S
C2382 C2381 1.374 . S
C2383 C2380 1.499 . S
C2383 C2384 1.373 . S
C2383 C2385 1.389 . S
C2384 H2357 0.950 . S
C2384 C2370 1.377 . S
C2384 C2383 1.373 . S
C2385 C2369 1.377 . S
C2385 C2383 1.389 . S
C2385 C2386 1.524 . S
C2386 C2385 1.524 . S
C2386 C2387 1.397 . S
C2386 C2391 1.363 . S
C2387 H2358 0.950 . S
C2387 C2386 1.397 . S
C2387 C2388 1.334 . S
C2388 H2359 0.950 . S
C2388 C2387 1.334 . S
C2388 C2389 1.287 . S
C2389 C2388 1.287 . S
C2389 C2390 1.524 . S
C2389 H2392 0.999 . S
C2390 H2360 0.950 . S
C2390 C2389 1.524 . S
C2390 C2391 1.415 . S
C2391 H2361 0.950 . S
C2391 C2386 1.363 . S
C2391 C2390 1.415 . S
H2392 C2389 0.999 . S
H2393 C2374 0.913 . S
H2394 C2412 0.951 . S
H2395 C2414 0.951 . S
H2396 C2416 0.950 . S
H2397 C2417 0.950 . S
H2398 C2419 0.950 . S
H2399 C2422 0.950 . S
H2400 C2423 0.950 . S
H2401 C2425 0.950 . S
H2402 C2426 0.950 . S
H2403 C2427 0.951 . S
H2404 C2429 0.951 . S
H2405 C2431 0.950 . S
H2406 C2432 0.950 . S
H2407 C2434 0.950 . S
H2408 C2437 0.950 . S
H2409 C2438 0.950 . S
H2410 C2440 0.950 . S
H2411 C2441 0.950 . S
C2412 H2394 0.951 . S
C2412 C2413 1.366 . S
C2412 C2414 1.388 . S
C2413 C2412 1.366 . S
C2413 C2417 1.385 . S
C2414 H2395 0.951 . S
C2414 C2412 1.388 . S
C2414 C2415 1.366 . S
C2415 C2414 1.366 . S
C2415 C2416 1.414 . S
C2415 C2418 1.499 . S
C2416 H2396 0.950 . S
C2416 C2415 1.414 . S
C2416 C2417 1.374 . S
C2417 H2397 0.950 . S
C2417 C2413 1.385 . S
C2417 C2416 1.374 . S
C2418 C2415 1.499 . S
C2418 C2419 1.373 . S
C2418 C2420 1.389 . S
C2419 H2398 0.950 . S
C2419 C2418 1.373 . S
C2419 C2435 1.377 . S
C2420 C2418 1.389 . S
C2420 C2421 1.524 . S
C2420 C2434 1.377 . S
C2421 C2420 1.524 . S
C2421 C2422 1.397 . S
C2421 C2426 1.363 . S
C2422 H2399 0.950 . S
C2422 C2421 1.397 . S
C2422 C2423 1.334 . S
C2423 H2400 0.950 . S
C2423 C2422 1.334 . S
C2423 C2424 1.287 . S
C2424 C2423 1.287 . S
C2424 C2425 1.524 . S
C2424 H2443 0.913 . S
C2425 H2401 0.950 . S
C2425 C2424 1.524 . S
C2425 C2426 1.415 . S
C2426 H2402 0.950 . S
C2426 C2421 1.363 . S
C2426 C2425 1.415 . S
C2427 H2403 0.951 . S
C2427 C2428 1.366 . S
C2427 C2429 1.388 . S
C2428 C2427 1.366 . S
C2428 C2432 1.385 . S
C2429 H2404 0.951 . S
C2429 C2427 1.388 . S
C2429 C2430 1.366 . S
C2430 C2429 1.366 . S
C2430 C2431 1.414 . S
C2430 C2433 1.499 . S
C2431 H2405 0.950 . S
C2431 C2430 1.414 . S
C2431 C2432 1.374 . S
C2432 H2406 0.950 . S
C2432 C2428 1.385 . S
C2432 C2431 1.374 . S
C2433 C2430 1.499 . S
C2433 C2434 1.373 . S
C2433 C2435 1.389 . S
C2434 H2407 0.950 . S
C2434 C2420 1.377 . S
C2434 C2433 1.373 . S
C2435 C2419 1.377 . S
C2435 C2433 1.389 . S
C2435 C2436 1.524 . S
C2436 C2435 1.524 . S
C2436 C2437 1.397 . S
C2436 C2441 1.363 . S
C2437 H2408 0.950 . S
C2437 C2436 1.397 . S
C2437 C2438 1.334 . S
C2438 H2409 0.950 . S
C2438 C2437 1.334 . S
C2438 C2439 1.287 . S
C2439 C2438 1.287 . S
C2439 C2440 1.524 . S
C2439 H2442 0.999 . S
C2440 H2410 0.950 . S
C2440 C2439 1.524 . S
C2440 C2441 1.415 . S
C2441 H2411 0.950 . S
C2441 C2436 1.363 . S
C2441 C2440 1.415 . S
H2442 C2439 0.999 . S
H2443 C2424 0.913 . S
H2444 C2462 0.951 . S
H2445 C2464 0.951 . S
H2446 C2466 0.950 . S
H2447 C2467 0.950 . S
H2448 C2469 0.950 . S
H2449 C2472 0.950 . S
H2450 C2473 0.950 . S
H2451 C2475 0.950 . S
H2452 C2476 0.950 . S
H2453 C2477 0.951 . S
H2454 C2479 0.951 . S
H2455 C2481 0.950 . S
H2456 C2482 0.950 . S
H2457 C2484 0.950 . S
H2458 C2487 0.950 . S
H2459 C2488 0.950 . S
H2460 C2490 0.950 . S
H2461 C2491 0.950 . S
C2462 H2444 0.951 . S
C2462 C2463 1.366 . S
C2462 C2464 1.388 . S
C2463 C2462 1.366 . S
C2463 C2467 1.385 . S
C2464 H2445 0.951 . S
C2464 C2462 1.388 . S
C2464 C2465 1.366 . S
C2465 C2464 1.366 . S
C2465 C2466 1.414 . S
C2465 C2468 1.499 . S
C2466 H2446 0.950 . S
C2466 C2465 1.414 . S
C2466 C2467 1.374 . S
C2467 H2447 0.950 . S
C2467 C2463 1.385 . S
C2467 C2466 1.374 . S
C2468 C2465 1.499 . S
C2468 C2469 1.373 . S
C2468 C2470 1.389 . S
C2469 H2448 0.950 . S
C2469 C2468 1.373 . S
C2469 C2485 1.377 . S
C2470 C2468 1.389 . S
C2470 C2471 1.524 . S
C2470 C2484 1.377 . S
C2471 C2470 1.524 . S
C2471 C2472 1.397 . S
C2471 C2476 1.363 . S
C2472 H2449 0.950 . S
C2472 C2471 1.397 . S
C2472 C2473 1.334 . S
C2473 H2450 0.950 . S
C2473 C2472 1.334 . S
C2473 C2474 1.287 . S
C2474 C2473 1.287 . S
C2474 C2475 1.524 . S
C2474 H2493 0.913 . S
C2475 H2451 0.950 . S
C2475 C2474 1.524 . S
C2475 C2476 1.415 . S
C2476 H2452 0.950 . S
C2476 C2471 1.363 . S
C2476 C2475 1.415 . S
C2477 H2453 0.951 . S
C2477 C2478 1.366 . S
C2477 C2479 1.388 . S
C2478 C2477 1.366 . S
C2478 C2482 1.385 . S
C2479 H2454 0.951 . S
C2479 C2477 1.388 . S
C2479 C2480 1.366 . S
C2480 C2479 1.366 . S
C2480 C2481 1.414 . S
C2480 C2483 1.499 . S
C2481 H2455 0.950 . S
C2481 C2480 1.414 . S
C2481 C2482 1.374 . S
C2482 H2456 0.950 . S
C2482 C2478 1.385 . S
C2482 C2481 1.374 . S
C2483 C2480 1.499 . S
C2483 C2484 1.373 . S
C2483 C2485 1.389 . S
C2484 H2457 0.950 . S
C2484 C2470 1.377 . S
C2484 C2483 1.373 . S
C2485 C2469 1.377 . S
C2485 C2483 1.389 . S
C2485 C2486 1.524 . S
C2486 C2485 1.524 . S
C2486 C2487 1.397 . S
C2486 C2491 1.363 . S
C2487 H2458 0.950 . S
C2487 C2486 1.397 . S
C2487 C2488 1.334 . S
C2488 H2459 0.950 . S
C2488 C2487 1.334 . S
C2488 C2489 1.287 . S
C2489 C2488 1.287 . S
C2489 C2490 1.524 . S
C2489 H2492 0.999 . S
C2490 H2460 0.950 . S
C2490 C2489 1.524 . S
C2490 C2491 1.415 . S
C2491 H2461 0.950 . S
C2491 C2486 1.363 . S
C2491 C2490 1.415 . S
H2492 C2489 0.999 . S
H2493 C2474 0.913 . S
H2494 C2512 0.951 . S
H2495 C2514 0.951 . S
H2496 C2516 0.950 . S
H2497 C2517 0.950 . S
H2498 C2519 0.950 . S
H2499 C2522 0.950 . S
H2500 C2523 0.950 . S
H2501 C2525 0.950 . S
H2502 C2526 0.950 . S
H2503 C2527 0.951 . S
H2504 C2529 0.951 . S
H2505 C2531 0.950 . S
H2506 C2532 0.950 . S
H2507 C2534 0.950 . S
H2508 C2537 0.950 . S
H2509 C2538 0.950 . S
H2510 C2540 0.950 . S
H2511 C2541 0.950 . S
C2512 H2494 0.951 . S
C2512 C2513 1.366 . S
C2512 C2514 1.388 . S
C2513 C2512 1.366 . S
C2513 C2517 1.385 . S
C2514 H2495 0.951 . S
C2514 C2512 1.388 . S
C2514 C2515 1.366 . S
C2515 C2514 1.366 . S
C2515 C2516 1.414 . S
C2515 C2518 1.499 . S
C2516 H2496 0.950 . S
C2516 C2515 1.414 . S
C2516 C2517 1.374 . S
C2517 H2497 0.950 . S
C2517 C2513 1.385 . S
C2517 C2516 1.374 . S
C2518 C2515 1.499 . S
C2518 C2519 1.373 . S
C2518 C2520 1.389 . S
C2519 H2498 0.950 . S
C2519 C2518 1.373 . S
C2519 C2535 1.377 . S
C2520 C2518 1.389 . S
C2520 C2521 1.524 . S
C2520 C2534 1.377 . S
C2521 C2520 1.524 . S
C2521 C2522 1.397 . S
C2521 C2526 1.363 . S
C2522 H2499 0.950 . S
C2522 C2521 1.397 . S
C2522 C2523 1.334 . S
C2523 H2500 0.950 . S
C2523 C2522 1.334 . S
C2523 C2524 1.287 . S
C2524 C2523 1.287 . S
C2524 C2525 1.524 . S
C2524 H2543 0.913 . S
C2525 H2501 0.950 . S
C2525 C2524 1.524 . S
C2525 C2526 1.415 . S
C2526 H2502 0.950 . S
C2526 C2521 1.363 . S
C2526 C2525 1.415 . S
C2527 H2503 0.951 . S
C2527 C2528 1.366 . S
C2527 C2529 1.388 . S
C2528 C2527 1.366 . S
C2528 C2532 1.385 . S
C2529 H2504 0.951 . S
C2529 C2527 1.388 . S
C2529 C2530 1.366 . S
C2530 C2529 1.366 . S
C2530 C2531 1.414 . S
C2530 C2533 1.499 . S
C2531 H2505 0.950 . S
C2531 C2530 1.414 . S
C2531 C2532 1.374 . S
C2532 H2506 0.950 . S
C2532 C2528 1.385 . S
C2532 C2531 1.374 . S
C2533 C2530 1.499 . S
C2533 C2534 1.373 . S
C2533 C2535 1.389 . S
C2534 H2507 0.950 . S
C2534 C2520 1.377 . S
C2534 C2533 1.373 . S
C2535 C2519 1.377 . S
C2535 C2533 1.389 . S
C2535 C2536 1.524 . S
C2536 C2535 1.524 . S
C2536 C2537 1.397 . S
C2536 C2541 1.363 . S
C2537 H2508 0.950 . S
C2537 C2536 1.397 . S
C2537 C2538 1.334 . S
C2538 H2509 0.950 . S
C2538 C2537 1.334 . S
C2538 C2539 1.287 . S
C2539 C2538 1.287 . S
C2539 C2540 1.524 . S
C2539 H2542 0.999 . S
C2540 H2510 0.950 . S
C2540 C2539 1.524 . S
C2540 C2541 1.415 . S
C2541 H2511 0.950 . S
C2541 C2536 1.363 . S
C2541 C2540 1.415 . S
H2542 C2539 0.999 . S
H2543 C2524 0.913 . S
C563 C5 1.540 . S
C578 C243 1.540 . S
C613 C141 1.541 . S
C628 C39 1.540 . S
C663 C175 1.540 . S
C678 C73 1.540 . S
C713 C209 1.540 . S
C728 C107 1.540 . S
C763 C277 1.540 . S
C778 C515 1.541 . S
C813 C311 1.540 . S
C828 C413 1.540 . S
C863 C447 1.540 . S
C878 C345 1.540 . S
C913 C379 1.540 . S
C928 C481 1.540 . S
C963 C9 1.518 . S
C978 C281 1.518 . S
C1013 C315 1.519 . S
C1028 C43 1.519 . S
C1063 C349 1.518 . S
C1078 C77 1.518 . S
C1113 C111 1.518 . S
C1128 C383 1.518 . S
C1163 C417 1.518 . S
C1178 C145 1.518 . S
C1213 C451 1.518 . S
C1228 C179 1.518 . S
C1263 C213 1.519 . S
C1278 C485 1.519 . S
C1313 C519 1.519 . S
C1328 C247 1.519 . S
C1363 C20 0.767 . S
C1378 C478 0.766 . S
C1413 C512 0.766 . S
C1428 C54 0.766 . S
C1463 C88 0.766 . S
C1478 C410 0.767 . S
C1513 C444 0.766 . S
C1528 C122 0.766 . S
C1563 C156 0.766 . S
C1578 C342 0.766 . S
C1613 C190 0.767 . S
C1628 C376 0.765 . S
C1663 C224 0.766 . S
C1678 C274 0.766 . S
C1713 C258 0.766 . S
C1728 C308 0.766 . S
C1763 C206 0.766 . S
C1778 C292 0.766 . S
C1813 C240 0.766 . S
C1828 C326 0.766 . S
C1863 C360 0.766 . S
C1878 C138 0.766 . S
C1913 C172 0.766 . S
C1928 C394 0.766 . S
C1963 C70 0.766 . S
C1978 C428 0.767 . S
C2013 C104 0.766 . S
C2028 C462 0.766 . S
C2063 C496 0.767 . S
C2078 C2 0.765 . S
C2113 C36 0.765 . S
C2128 C530 0.767 . S
C2163 C101 1.021 . S
C2178 C33 1.021 . S
C2213 C135 1.021 . S
C2228 C67 1.021 . S
C2263 C169 1.022 . S
C2278 C237 1.022 . S
C2313 C271 1.021 . S
C2328 C203 1.021 . S
C2363 C305 1.022 . S
C2378 C373 1.022 . S
C2413 C407 1.021 . S
C2428 C339 1.022 . S
C2463 C441 1.022 . S
C2478 C509 1.022 . S
C2513 C475 1.022 . S
C2528 C543 1.022 . S
