# Generated by pormake.
# Topology rkf, (6)-cn, num edge types: 1
# Building blocks:
#     Node 0, Type 0, BuildingBlock: BETDAH_clean_sbu_0, # of connection points: 6
#     Node 1, Type 0, BuildingBlock: BETDAH_clean_sbu_0, # of connection points: 6
#     Node 2, Type 0, BuildingBlock: BETDAH_clean_sbu_0, # of connection points: 6
#     Node 3, Type 0, BuildingBlock: BETDAH_clean_sbu_0, # of connection points: 6
#     Node 4, Type 0, BuildingBlock: BETDAH_clean_sbu_0, # of connection points: 6
#     Node 5, Type 0, BuildingBlock: BETDAH_clean_sbu_0, # of connection points: 6
#     Edge 6, Type (0, 0), BuildingBlock: UVAHIK_clean_linker_0, # of connection points: 2
#     Edge 7, Type (0, 0), BuildingBlock: UVAHIK_clean_linker_0, # of connection points: 2
#     Edge 8, Type (0, 0), BuildingBlock: UVAHIK_clean_linker_0, # of connection points: 2
#     Edge 9, Type (0, 0), BuildingBlock: UVAHIK_clean_linker_0, # of connection points: 2
#     Edge 10, Type (0, 0), BuildingBlock: UVAHIK_clean_linker_0, # of connection points: 2
#     Edge 11, Type (0, 0), BuildingBlock: UVAHIK_clean_linker_0, # of connection points: 2
#     Edge 12, Type (0, 0), BuildingBlock: UVAHIK_clean_linker_0, # of connection points: 2
#     Edge 13, Type (0, 0), BuildingBlock: UVAHIK_clean_linker_0, # of connection points: 2
#     Edge 14, Type (0, 0), BuildingBlock: UVAHIK_clean_linker_0, # of connection points: 2
#     Edge 15, Type (0, 0), BuildingBlock: UVAHIK_clean_linker_0, # of connection points: 2
#     Edge 16, Type (0, 0), BuildingBlock: UVAHIK_clean_linker_0, # of connection points: 2
#     Edge 17, Type (0, 0), BuildingBlock: UVAHIK_clean_linker_0, # of connection points: 2
#     Edge 18, Type (0, 0), BuildingBlock: UVAHIK_clean_linker_0, # of connection points: 2
#     Edge 19, Type (0, 0), BuildingBlock: UVAHIK_clean_linker_0, # of connection points: 2
#     Edge 20, Type (0, 0), BuildingBlock: UVAHIK_clean_linker_0, # of connection points: 2
#     Edge 21, Type (0, 0), BuildingBlock: UVAHIK_clean_linker_0, # of connection points: 2
#     Edge 22, Type (0, 0), BuildingBlock: UVAHIK_clean_linker_0, # of connection points: 2
#     Edge 23, Type (0, 0), BuildingBlock: UVAHIK_clean_linker_0, # of connection points: 2
# Relax obj value: 0.536
# Max RMSD: 0.247
# Mean RMSD: 0.247
data_MOF--net-rkf--node1-BETDAH_clean_sbu_0--edge1-UVAHIK_clean_linker_0
_symmetry_space_group_name_H-M    P1
_symmetry_Int_Tables_number       1
_symmetry_cell_setting            triclinic
loop_
_symmetry_equiv_pos_as_xyz
'x, y, z'
_cell_length_a     31.838139
_cell_length_b     31.742631
_cell_length_c     57.454851
_cell_angle_alpha  90.005355
_cell_angle_beta   90.009096
_cell_angle_gamma 120.1224
loop_
_atom_site_label
_atom_site_type_symbol
_atom_site_fract_x
_atom_site_fract_y
_atom_site_fract_z
_atom_type_partial_charge
Ho0 Ho 0.31041 0.11037 0.11901 0.0
Ho1 Ho 0.34348 0.2104 1.10237 0.0
C2 C 0.31447 0.18407 0.15797 0.0
C3 C 0.30528 0.02794 0.12747 0.0
C4 C 0.30858 0.00041 0.14715 0.0
C5 C 0.32021 0.96399 0.14294 0.0
C6 C 0.31602 0.9321 0.16073 0.0
C7 C 0.2998 0.93607 0.18295 0.0
C8 C 0.29124 0.97478 0.18739 0.0
C9 C 0.29577 0.0068 0.16965 0.0
C10 C 0.23572 0.12282 0.10678 0.0
C11 C 0.32285 0.13265 1.0617 0.0
C12 C 0.36121 0.29762 1.09317 0.0
C13 C 0.37163 0.32912 1.07278 0.0
C14 C 0.34976 0.31002 1.05121 0.0
C15 C 0.35986 0.34087 1.03214 0.0
C16 C 0.39249 0.3913 1.03421 0.0
C17 C 0.41504 0.41002 1.05578 0.0
C18 C 0.40459 0.37914 1.0749 0.0
C19 C 0.41451 0.19067 0.11268 0.0
O20 O 0.31508 0.14295 0.15476 0.0
O21 O 0.31953 0.21239 0.13987 0.0
O22 O 0.2677 0.0342 0.12743 0.0
O23 O 0.34539 0.0669 0.12112 0.0
O24 O 0.23704 0.10056 0.12552 0.0
O25 O 0.27624 0.14062 1.09667 0.0
O26 O 0.32953 0.17668 1.0662 0.0
O27 O 0.31895 0.10345 1.07933 0.0
O28 O 0.39479 0.28726 1.09861 0.0
O29 O 0.31731 0.26001 1.09493 0.0
O30 O 0.41506 0.21467 1.09432 0.0
O31 O 0.37697 0.17892 0.1244 0.0
H32 H 0.33052 0.95888 0.12565 0.0
H33 H 0.32367 0.90324 0.15684 0.0
H34 H 0.27812 0.97868 0.20418 0.0
H35 H 0.28689 0.03496 0.17321 0.0
H36 H 0.3245 0.27139 1.04917 0.0
H37 H 0.34112 0.32526 1.01593 0.0
H38 H 0.44074 0.44849 1.05791 0.0
H39 H 0.42218 0.39435 1.09141 0.0
Ho40 Ho 0.25671 0.31371 0.45052 0.0
Ho41 Ho 0.20797 0.36756 0.43554 0.0
C42 C 0.19795 0.331 0.49046 0.0
C43 C 0.32127 0.28854 0.45774 0.0
C44 C 0.35331 0.28943 0.47621 0.0
C45 C 0.36134 0.31709 0.49645 0.0
C46 C 0.39078 0.31584 0.51416 0.0
C47 C 0.41195 0.28627 0.51202 0.0
C48 C 0.40438 0.25946 0.49139 0.0
C49 C 0.37545 0.26121 0.47363 0.0
C50 C 0.16388 0.25481 0.43584 0.0
C51 C 0.2555 0.33624 0.39409 0.0
C52 C 0.15058 0.40182 0.42801 0.0
C53 C 0.12912 0.41346 0.40832 0.0
C54 C 0.12866 0.39528 0.38607 0.0
C55 C 0.1068 0.40566 0.36764 0.0
C56 C 0.08533 0.43466 0.37114 0.0
C57 C 0.08694 0.45366 0.39342 0.0
C58 C 0.10872 0.44311 0.41188 0.0
C59 C 0.30247 0.42431 0.44632 0.0
O60 O 0.23427 0.32279 0.48667 0.0
O61 O 0.17968 0.34407 0.4729 0.0
O62 O 0.27476 0.25931 0.46099 0.0
O63 O 0.33137 0.33082 0.44923 0.0
O64 O 0.18356 0.24588 0.45356 0.0
O65 O 0.19488 0.29499 0.42742 0.0
O66 O 0.22303 0.34982 0.39889 0.0
O67 O 0.2762 0.3256 0.41152 0.0
O68 O 0.19755 0.42907 0.4302 0.0
O69 O 0.13531 0.35562 0.43152 0.0
O70 O 0.28161 0.43209 0.42883 0.0
O71 O 0.27202 0.38765 0.45771 0.0
H72 H 0.34418 0.33885 0.49873 0.0
H73 H 0.3962 0.3373 0.5297 0.0
H74 H 0.41913 0.23549 0.48929 0.0
H75 H 0.36941 0.23955 0.45808 0.0
H76 H 0.14447 0.37244 0.38307 0.0
H77 H 0.10539 0.38964 0.3508 0.0
H78 H 0.0711 0.47637 0.39662 0.0
H79 H 0.10922 0.4577 0.42899 0.0
Ho80 Ho 0.01463 0.26775 0.78358 0.0
Ho81 Ho 0.91159 0.21904 0.76874 0.0
C82 C 0.93839 0.20864 0.82366 0.0
C83 C 0.10362 0.33445 0.79101 0.0
C84 C 0.13352 0.36712 0.80978 0.0
C85 C 0.16926 0.41496 0.80431 0.0
C86 C 0.20023 0.44593 0.82159 0.0
C87 C 0.19604 0.4294 0.84464 0.0
C88 C 0.15902 0.38177 0.85012 0.0
C89 C 0.12788 0.35101 0.83288 0.0
C90 C -0.01973 0.17497 0.76862 0.0
C91 C -0.00966 0.26711 0.72724 0.0
C92 C 0.8199 0.16085 0.76145 0.0
C93 C 0.78656 0.13623 0.74213 0.0
C94 C 0.80411 0.13462 0.72002 0.0
C95 C 0.77165 0.10984 0.70197 0.0
C96 C 0.72114 0.08651 0.70575 0.0
C97 C 0.70388 0.08915 0.72789 0.0
C98 C 0.73643 0.1139 0.74595 0.0
C99 C 0.94992 0.31331 0.78047 0.0
O100 O -0.01625 0.24337 0.81971 0.0
O101 O 0.9062 0.19196 0.80638 0.0
O102 O 0.08756 0.28787 0.79382 0.0
O103 O 0.07108 0.34341 0.78215 0.0
O104 O 0.00965 0.19479 0.78611 0.0
O105 O 0.9709 0.20596 0.76038 0.0
O106 O 0.94417 0.23473 0.73205 0.0
O107 O 0.02201 0.28721 0.7446 0.0
O108 O 0.84018 0.20821 0.76178 0.0
O109 O 0.85037 0.14587 0.76645 0.0
O110 O 0.92065 0.29306 0.7631 0.0
O111 O 0.95605 0.2823 0.79129 0.0
H112 H 0.17376 0.4281 0.78657 0.0
H113 H 0.22785 0.48254 0.81684 0.0
H114 H 0.15517 0.36746 0.86759 0.0
H115 H 0.10024 0.3143 0.83751 0.0
H116 H 0.84282 0.15185 0.71684 0.0
H117 H 0.78616 0.10773 0.68524 0.0
H118 H 0.66527 0.07188 0.73128 0.0
H119 H 0.72246 0.11522 0.76297 0.0
Ho120 Ho 0.83316 0.04072 0.11508 0.0
Ho121 Ho 0.75898 0.93463 0.10491 0.0
C122 C 0.80293 0.95965 0.15705 0.0
C123 C 0.87557 0.13021 0.12881 0.0
C124 C 0.87272 0.15891 0.14831 0.0
C125 C 0.84941 0.18613 0.14494 0.0
C126 C 0.8479 0.2152 0.16274 0.0
C127 C 0.87002 0.218 0.18425 0.0
C128 C 0.89299 0.19042 0.1877 0.0
C129 C 0.89434 0.16115 0.16991 0.0
C130 C 0.8694 -0.0093 1.09375 0.0
C131 C 0.80021 0.01429 1.06172 0.0
C132 C 0.70603 0.8452 1.09149 0.0
C133 C 0.70275 0.81442 1.07186 0.0
C134 C 0.73064 0.83474 1.05178 0.0
C135 C 0.72986 0.80446 1.03398 0.0
C136 C 0.70148 0.75349 1.03611 0.0
C137 C 0.67304 0.73342 1.05615 0.0
C138 C 0.67362 0.76377 1.07388 0.0
C139 C 0.72352 -0.0116 0.12443 0.0
O140 O 0.81977 0.00627 0.15157 0.0
O141 O 0.78166 0.92517 0.14103 0.0
O142 O 0.89321 0.10139 0.13282 0.0
O143 O 0.83775 0.11052 0.11509 0.0
O144 O 0.88649 0.037 1.09086 0.0
O145 O 0.83758 0.97451 0.10942 0.0
O146 O 0.78102 0.96763 1.06796 0.0
O147 O 0.81716 0.04907 1.07767 0.0
O148 O 0.695 0.87901 1.08731 0.0
O149 O 0.74491 0.86076 0.10434 0.0
O150 O 0.70715 0.9429 0.12911 0.0
O151 O 0.75523 0.00134 0.10894 0.0
H152 H 0.83267 0.18534 0.1284 0.0
H153 H 0.82961 0.23566 0.15961 0.0
H154 H 0.91118 0.19249 0.20395 0.0
H155 H 0.91292 0.14096 0.17299 0.0
H156 H 0.7538 0.87383 1.05013 0.0
H157 H 0.7528 0.8209 1.0189 0.0
H158 H 0.65078 0.69432 1.05817 0.0
H159 H 0.6521 0.74766 1.0894 0.0
Ho160 Ho 0.87142 0.84573 0.4495 0.0
Ho161 Ho 0.8994 0.77063 0.43702 0.0
C162 C 0.92171 0.81177 0.48977 0.0
C163 C 0.82679 0.88827 0.46594 0.0
C164 C 0.79384 0.88122 0.48554 0.0
C165 C 0.74326 0.85136 0.48282 0.0
C166 C 0.71168 0.8466 0.50077 0.0
C167 C 0.72995 0.8717 0.5218 0.0
C168 C 0.78051 0.90105 0.52464 0.0
C169 C 0.81213 0.90587 0.50667 0.0
C170 C 0.95706 0.88207 0.42751 0.0
C171 C 0.86166 0.81711 0.39552 0.0
C172 C 0.9319 0.71638 0.42081 0.0
C173 C 0.95339 0.71139 0.39925 0.0
C174 C 0.96671 0.74588 0.38143 0.0
C175 C -0.00951 0.7427 0.36169 0.0
C176 C 0.00123 0.70491 0.35948 0.0
C177 C -0.01345 0.6697 0.37717 0.0
C178 C 0.96279 0.67298 0.39692 0.0
C179 C 0.81228 0.73541 0.45849 0.0
O180 O 0.89246 0.82938 0.48515 0.0
O181 O 0.93368 0.79082 0.47305 0.0
O182 O 0.87238 0.90288 0.47066 0.0
O183 O 0.80897 0.85468 0.44985 0.0
O184 O 0.92931 0.90094 0.42605 0.0
O185 O 0.94118 0.84896 0.44257 0.0
O186 O 0.88568 0.79384 0.40081 0.0
O187 O 0.847 0.83541 0.41219 0.0
O188 O 0.88627 0.70457 0.41971 0.0
O189 O 0.9585 0.75663 0.43243 0.0
O190 O 0.84177 0.71922 0.46215 0.0
O191 O 0.82965 0.7675 0.44295 0.0
H192 H 0.72786 0.83207 0.46668 0.0
H193 H 0.67294 0.82355 0.49814 0.0
H194 H 0.79564 0.92157 0.54052 0.0
H195 H 0.85081 0.92956 0.5092 0.0
H196 H 0.95981 0.77588 0.38306 0.0
H197 H 0.00199 0.77085 0.34857 0.0
H198 H -0.00612 0.63995 0.37585 0.0
H199 H 0.95256 0.64603 0.41058 0.0
Ho200 Ho 0.10135 0.88032 0.78224 0.0
Ho201 Ho 0.20508 0.91059 0.77046 0.0
C202 C 0.18406 0.93091 0.82314 0.0
C203 C 0.01328 0.83639 0.79759 0.0
C204 C -0.01307 0.8062 0.81757 0.0
C205 C 0.01126 0.79661 0.83531 0.0
C206 C -0.01508 0.76511 0.8535 0.0
C207 C 0.93396 0.74251 0.85399 0.0
C208 C 0.90997 0.75211 0.83601 0.0
C209 C 0.93629 0.7837 0.81795 0.0
C210 C 0.15019 0.96613 0.76006 0.0
C211 C 0.1219 0.8706 0.72849 0.0
C212 C 0.29281 0.94511 0.75525 0.0
C213 C 0.32102 0.96791 0.73424 0.0
C214 C 0.29926 0.97555 0.71475 0.0
C215 C 0.32756 0.00083 0.69554 0.0
C216 C 0.37801 0.01898 0.69564 0.0
C217 C 0.39932 0.01008 0.71503 0.0
C218 C 0.37094 0.98464 0.73419 0.0
C219 C 0.15384 0.82311 0.79191 0.0
O220 O 0.13747 0.9008 0.81821 0.0
O221 O 0.21746 0.94434 0.80656 0.0
O222 O 0.0441 0.88248 0.80163 0.0
O223 O 0.03045 0.81647 0.78347 0.0
O224 O 0.10386 0.937 0.75805 0.0
O225 O 0.16745 0.95124 0.77554 0.0
O226 O 0.16906 0.89634 0.73399 0.0
O227 O 0.08859 0.85473 0.74505 0.0
O228 O 0.25928 0.89925 0.75353 0.0
O229 O 0.27808 0.97093 0.76669 0.0
O230 O 0.19933 0.85338 0.79574 0.0
O231 O 0.13897 0.8398 0.77616 0.0
H232 H 0.05043 0.81319 0.83498 0.0
H233 H 0.00429 0.75827 0.86711 0.0
H234 H 0.87085 0.73604 0.83616 0.0
H235 H 0.91707 0.79043 0.80421 0.0
H236 H 0.26075 0.96312 0.71464 0.0
H237 H 0.31023 0.00781 0.68101 0.0
H238 H 0.438 0.02338 0.7155 0.0
H239 H 0.38815 0.97896 0.74919 0.0
C240 C 0.89231 0.92762 1.08672 0.0
C241 C 0.87988 0.96095 1.07796 0.0
C242 C 0.91714 0.91165 1.07247 0.0
C243 C 0.00576 0.98443 1.02797 0.0
H244 H 0.06768 0.93076 1.06596 0.0
C245 C 0.19473 0.10452 1.06808 0.0
C246 C 0.19147 0.09831 1.09242 0.0
C247 C 0.15773 0.07082 1.05367 0.0
C248 C 0.05104 0.94575 1.05476 0.0
H249 H 0.87391 -0.00424 1.04687 0.0
H250 H 0.91007 0.96224 1.02134 0.0
H251 H -0.01823 0.88099 1.05676 0.0
H252 H 0.145 0.05474 0.12077 0.0
H253 H 0.07985 -0.00276 1.09574 0.0
H254 H 0.07429 0.05029 1.02728 0.0
C255 C 0.90548 0.95187 1.03951 0.0
C256 C 0.0017 0.91733 1.04952 0.0
C257 C 0.8839 0.97063 1.05406 0.0
C258 C 0.14882 0.06028 1.10211 0.0
C259 C 0.11209 0.02663 1.08774 0.0
C260 C 0.05508 0.01267 1.03297 0.0
C261 C 0.92912 0.92865 1.04926 0.0
C262 C -0.0228 0.93948 1.03954 0.0
C263 C 0.11693 0.03058 1.0634 0.0
C264 C 0.07625 -0.00463 1.0488 0.0
H265 H 0.88821 0.91866 0.10508 0.0
H266 H 0.93229 0.89173 1.08081 0.0
H267 H -0.01029 0.00223 1.01848 0.0
H268 H 0.22707 0.13372 1.06008 0.0
H269 H 0.16161 0.07545 1.03496 0.0
C270 C 0.04521 0.93227 0.42108 0.0
C271 C -0.00029 0.89713 0.41273 0.0
C272 C 0.08068 0.96376 0.40544 0.0
C273 C 0.05424 0.01951 0.3608 0.0
H274 H 0.18099 0.12 0.38144 0.0
C275 C 0.13508 0.22421 0.39571 0.0
C276 C 0.13299 0.21485 0.41984 0.0
C277 C 0.12402 0.18702 0.37965 0.0
C278 C 0.14614 0.09263 0.37455 0.0
H279 H 0.95868 0.86087 0.38178 0.0
H280 H 0.02015 0.91513 0.35467 0.0
H281 H 0.16432 0.03655 0.37776 0.0
H282 H 0.10951 0.15826 0.44594 0.0
H283 H 0.08773 0.09283 0.41784 0.0
H284 H 0.03392 0.07437 0.36135 0.0
C285 C 0.02873 0.9191 0.37308 0.0
C286 C 0.13663 0.04484 0.3724 0.0
C287 C -0.00685 0.88807 0.38872 0.0
C288 C 0.11213 0.16661 0.42753 0.0
C289 C 0.10014 0.12939 0.4115 0.0
C290 C 0.06359 0.06714 0.36325 0.0
C291 C 0.07013 0.96076 0.38142 0.0
C292 C 0.08882 0.00716 0.36848 0.0
C293 C 0.10897 0.14004 0.38767 0.0
C294 C 0.10804 0.10259 0.37243 0.0
H295 H 0.05105 0.93969 0.43957 0.0
H296 H 0.11261 -0.00502 0.41259 0.0
H297 H 0.01718 -0.00839 0.35709 0.0
H298 H 0.14987 0.26096 0.38923 0.0
H299 H 0.13033 0.19554 0.36128 0.0
C300 C 0.18798 0.05457 0.75403 0.0
C301 C 0.17741 0.00915 0.74538 0.0
C302 C 0.19027 0.08984 0.73874 0.0
C303 C 0.10454 0.06171 0.69549 0.0
H304 H 0.13073 0.18902 0.7154 0.0
C305 C -0.0164 0.14752 0.72837 0.0
C306 C -0.01156 0.14359 0.75258 0.0
C307 C 0.00933 0.13529 0.71271 0.0
C308 C 0.12328 0.15398 0.70875 0.0
H309 H 0.17095 0.9683 0.71412 0.0
H310 H 0.1754 0.02956 0.68757 0.0
H311 H 0.19769 0.17291 0.71184 0.0
H312 H 0.01665 0.11598 0.77911 0.0
H313 H 0.05945 0.09211 0.75164 0.0
H314 H 0.02931 0.04079 0.69607 0.0
C315 C 0.1813 0.03817 0.70596 0.0
C316 C 0.16163 0.14479 0.70669 0.0
C317 C 0.1784 0.00276 0.72126 0.0
C318 C 0.01277 0.11994 0.76062 0.0
C319 C 0.03746 0.10667 0.74496 0.0
C320 C 0.06622 0.07075 0.69787 0.0
C321 C 0.18094 0.07916 0.7148 0.0
C322 C 0.15169 0.097 0.70274 0.0
C323 C 0.03825 0.11712 0.72116 0.0
C324 C 0.07521 0.11556 0.70662 0.0
H325 H 0.18756 0.06027 0.77261 0.0
H326 H 0.191 0.12152 0.74622 0.0
H327 H 0.09545 0.02456 0.69195 0.0
H328 H 0.96406 0.16457 0.72159 0.0
H329 H 0.00929 0.14309 0.69436 0.0
C330 C 0.40331 0.46934 1.01748 0.0
C331 C 0.40066 0.42415 1.01419 0.0
C332 C 0.40302 0.49647 0.99838 0.0
C333 C 0.35326 0.5165 0.95889 0.0
H334 H 0.38398 0.49292 0.89676 0.0
C335 C 0.21788 0.45766 0.88588 0.0
C336 C 0.23218 0.45982 0.86261 0.0
C337 C 0.25251 0.47793 0.9035 0.0
C338 C 0.37593 0.50138 0.91386 0.0
H339 H 0.40101 0.37471 0.98825 0.0
H340 H 0.3976 0.42 0.95521 0.0
H341 H 0.42706 0.48547 0.92974 0.0
H342 H 0.29429 0.48963 0.83934 0.0
H343 H 0.35468 0.52693 0.86999 0.0
H344 H 0.30223 0.53254 0.943 0.0
C345 C 0.40071 0.43537 0.97238 0.0
C346 C 0.40024 0.49625 0.93289 0.0
C347 C 0.40167 0.40868 0.99141 0.0
C348 C 0.2819 0.48706 0.85711 0.0
C349 C 0.31664 0.50801 0.87474 0.0
C350 C 0.32977 0.52274 0.93981 0.0
C351 C 0.39943 0.47869 0.97561 0.0
C352 C 0.38655 0.5001 0.95571 0.0
C353 C 0.30244 0.50158 0.89826 0.0
C354 C 0.33817 0.51162 0.91722 0.0
H355 H 0.40275 0.48251 1.0348 0.0
H356 H 0.40316 0.53017 1.00154 0.0
H357 H 0.34189 0.52036 0.97612 0.0
H358 H 0.17983 0.43806 0.89066 0.0
H359 H 0.23977 0.47176 0.92132 0.0
C360 C 0.07567 0.4476 0.32898 0.0
C361 C 0.05836 0.44163 0.3519 0.0
C362 C 0.04582 0.44336 0.31034 0.0
C363 C 0.91628 0.37358 0.29829 0.0
H364 H 0.96599 0.41239 0.23571 0.0
C365 C 0.86641 0.23752 0.22613 0.0
C366 C 0.87156 0.25146 0.20266 0.0
C367 C 0.87483 0.27116 0.24367 0.0
C368 C 0.95058 0.40176 0.25297 0.0
H369 H -0.0018 0.43233 0.37338 0.0
H370 H 0.94663 0.42656 0.3408 0.0
H371 H 0.01218 0.4628 0.26837 0.0
H372 H 0.88602 0.31074 0.17913 0.0
H373 H 0.89962 0.36927 0.20983 0.0
H374 H 0.85517 0.31206 0.28292 0.0
C375 C -0.01722 0.43302 0.3372 0.0
C376 C -0.02249 0.43047 0.27177 0.0
C377 C 0.01255 0.43677 0.3559 0.0
C378 C 0.88176 0.29883 0.19707 0.0
C379 C 0.88992 0.33251 0.21466 0.0
C380 C 0.88896 0.34537 0.27948 0.0
C381 C -0.00195 0.43352 0.31418 0.0
C382 C 0.9625 0.41462 0.29471 0.0
C383 C 0.88827 0.31955 0.23817 0.0
C384 C 0.90764 0.35715 0.25677 0.0
H385 H 0.11132 0.45269 0.32538 0.0
H386 H 0.05909 0.44382 0.29294 0.0
H387 H 0.90308 0.36022 0.31565 0.0
H388 H 0.85764 0.20102 0.23098 0.0
H389 H 0.87376 0.2598 0.26153 0.0
C390 C 0.69698 0.07254 0.6638 0.0
C391 C 0.68712 0.05677 0.687 0.0
C392 C 0.67137 0.04071 0.6457 0.0
C393 C 0.61649 0.91072 0.63565 0.0
H394 H 0.62107 0.95523 0.57244 0.0
C395 C 0.70734 0.86733 0.56373 0.0
C396 C 0.69663 0.86984 0.54027 0.0
C397 C 0.68071 0.87345 0.58129 0.0
C398 C 0.61805 0.94119 0.58991 0.0
H399 H 0.63897 -0.00302 0.70954 0.0
H400 H 0.59329 0.94174 0.67789 0.0
H401 H 0.61571 0.00186 0.60461 0.0
H402 H 0.64717 0.87687 0.51676 0.0
H403 H 0.60005 0.88691 0.54753 0.0
H404 H 0.62024 0.85083 0.62097 0.0
C405 C 0.62171 0.97835 0.67366 0.0
C406 C 0.6156 0.96838 0.60841 0.0
C407 C 0.64767 0.01017 0.69182 0.0
C408 C 0.65631 0.87481 0.53472 0.0
C409 C 0.62951 0.88086 0.55233 0.0
C410 C 0.61817 0.88316 0.61715 0.0
C411 C 0.63501 -0.00759 0.65039 0.0
C412 C 0.61873 0.9555 0.63149 0.0
C413 C 0.64258 0.88209 0.57579 0.0
C414 C 0.62285 0.90018 0.5942 0.0
H415 H 0.72638 0.10869 0.65958 0.0
H416 H 0.68303 0.05304 0.62806 0.0
H417 H 0.61849 0.89921 0.65315 0.0
H418 H 0.73768 0.86267 0.56852 0.0
H419 H 0.69235 0.87473 0.59911 0.0
C420 C 0.71176 0.6832 1.02438 0.0
C421 C 0.70425 0.72172 1.01808 0.0
C422 C 0.72235 0.65838 1.0074 0.0
C423 C 0.79021 0.65368 0.97175 0.0
H424 H 0.74866 0.64409 0.90762 0.0
C425 C 0.92094 0.72856 0.89677 0.0
C426 C 0.90571 0.71207 0.87399 0.0
C427 C 0.88984 0.70576 0.9155 0.0
C428 C 0.76017 0.64506 0.92545 0.0
H429 H 0.6976 0.76164 0.98912 0.0
H430 H 0.71688 0.71924 0.95957 0.0
H431 H 0.69749 0.64535 0.93861 0.0
H432 H 0.84844 0.65552 0.85311 0.0
H433 H 0.79396 0.61543 0.88593 0.0
H434 H 0.85391 0.65551 0.95851 0.0
C435 C 0.71431 0.7077 0.97751 0.0
C436 C 0.73098 0.64634 0.94321 0.0
C437 C 0.70392 0.73254 0.99445 0.0
C438 C 0.86062 0.66959 0.87049 0.0
C439 C 0.82952 0.64661 0.88926 0.0
C440 C 0.81927 0.65203 0.95399 0.0
C441 C 0.72536 0.67153 0.98385 0.0
C442 C 0.74725 0.65394 0.96637 0.0
C443 C 0.8429 0.66587 0.91183 0.0
C444 C 0.80605 0.651 0.93057 0.0
H445 H 0.71228 0.67416 1.04252 0.0
H446 H 0.73036 0.63045 1.01279 0.0
H447 H 0.80378 0.65933 0.98943 0.0
H448 H 0.95537 0.76134 0.9 0.0
H449 H 0.90125 0.72206 0.93257 0.0
C450 C 0.02268 0.71707 0.31716 0.0
C451 C 0.03041 0.70438 0.3395 0.0
C452 C 0.05461 0.72379 0.29907 0.0
C453 C 0.18262 0.76244 0.29128 0.0
H454 H 0.14521 0.75119 0.22642 0.0
C455 C 0.29182 0.9081 0.22438 0.0
C456 C 0.28579 0.89694 0.20053 0.0
C457 C 0.26864 0.87134 0.24093 0.0
C458 C 0.15676 0.75371 0.24434 0.0
H459 H 0.07587 0.68554 0.36001 0.0
H460 H 0.1311 0.69623 0.32821 0.0
H461 H 0.08402 0.70545 0.2556 0.0
H462 H 0.25471 0.83771 0.17547 0.0
H463 H 0.21602 0.77357 0.20437 0.0
H464 H 0.25526 0.81141 0.28004 0.0
C465 C 0.10077 0.7018 0.32481 0.0
C466 C 0.12139 0.7279 0.26114 0.0
C467 C 0.06885 0.69525 0.34297 0.0
C468 C 0.26021 0.84774 0.19369 0.0
C469 C 0.23745 0.8109 0.21027 0.0
C470 C 0.21813 0.78786 0.27444 0.0
C471 C 0.09492 0.7177 0.30286 0.0
C472 C 0.13349 0.73411 0.28488 0.0
C473 C 0.23932 0.82249 0.234 0.0
C474 C 0.20517 0.78588 0.25091 0.0
H475 H -0.00711 0.72355 0.31385 0.0
H476 H 0.04916 0.73654 0.28248 0.0
H477 H 0.19335 0.76807 0.30941 0.0
H478 H 0.31218 0.94555 0.23024 0.0
H479 H 0.2709 0.88188 0.25901 0.0
C480 C 0.45111 0.0945 0.68103 0.0
C481 C 0.40845 0.05024 0.67631 0.0
C482 C 0.47543 0.12784 0.66316 0.0
C483 C 0.47853 0.14527 0.59889 0.0
H484 H 0.48847 0.26845 0.61536 0.0
C485 C 0.41918 0.27496 0.55463 0.0
C486 C 0.43744 0.27917 0.53196 0.0
C487 C 0.43719 0.25972 0.57287 0.0
C488 C 0.48672 0.23461 0.61053 0.0
H489 H 0.36029 0.00423 0.64902 0.0
H490 H 0.40196 0.06258 0.61794 0.0
H491 H 0.48055 0.21188 0.64593 0.0
H492 H 0.4922 0.27502 0.51117 0.0
H493 H 0.52278 0.24696 0.5431 0.0
H494 H 0.4805 0.16635 0.5634 0.0
C495 C 0.417 0.07162 0.63534 0.0
C496 C 0.4826 0.20231 0.62804 0.0
C497 C 0.39267 0.03839 0.65319 0.0
C498 C 0.47656 0.27106 0.52833 0.0
C499 C 0.4943 0.2553 0.54659 0.0
C500 C 0.48267 0.17761 0.58136 0.0
C501 C 0.45758 0.11744 0.64027 0.0
C502 C 0.4758 0.15621 0.62234 0.0
C503 C 0.47367 0.24799 0.56887 0.0
C504 C 0.48411 0.2214 0.58702 0.0
H505 H 0.46408 0.10469 0.69871 0.0
H506 H 0.50684 0.16268 0.66743 0.0
H507 H 0.47416 0.11032 0.59401 0.0
H508 H 0.38866 0.28019 0.55808 0.0
H509 H 0.41995 0.2537 0.58975 0.0
C510 C 0.4445 0.14767 0.13821 0.0
C511 C 0.45063 0.17611 0.11838 0.0
C512 C 0.4767 0.1309 0.14285 0.0
C513 C 0.59942 0.15354 0.13135 0.0
H514 H 0.54322 0.01413 0.13908 0.0
C515 C 0.71052 0.05849 0.11778 0.0
C516 C 0.69784 0.01513 0.12971 0.0
C517 C 0.68312 0.08133 0.12045 0.0
C518 C 0.55971 0.05326 0.13752 0.0
H519 H 0.49635 0.21131 1.08846 0.0
H520 H 0.5535 0.18295 1.09689 0.0
H521 H 0.4903 0.04874 0.13617 0.0
H522 H 0.64831 0.96301 0.1548 0.0
H523 H 0.60096 0.00371 0.1601 0.0
H524 H 0.66882 0.15843 0.13286 0.0
C525 C 0.52343 0.1732 0.10867 0.0
C526 C 0.52926 0.07301 0.13572 0.0
C527 C 0.49069 0.18925 1.1038 0.0
C528 C 0.6586 -0.00376 0.14527 0.0
C529 C 0.63133 0.01941 0.14814 0.0
C530 C 0.62994 0.13393 0.13353 0.0
C531 C 0.51628 0.14324 0.12803 0.0
C532 C 0.5488 0.12317 0.13211 0.0
C533 C 0.64257 0.06166 0.13533 0.0
C534 C 0.61048 0.08335 0.13606 0.0
H535 H 0.41422 0.13749 0.14992 0.0
H536 H 0.47061 0.10819 0.15798 0.0
H537 H 0.61538 0.19245 0.12891 0.0
H538 H 0.74047 0.0738 0.10556 0.0
H539 H 0.69262 0.11324 0.10999 0.0
C540 C 0.37527 0.44514 0.47114 0.0
C541 C 0.35355 0.45717 0.45303 0.0
C542 C 0.42425 0.4762 0.47677 0.0
C543 C 0.52341 0.6034 0.47169 0.0
H544 H 0.60959 0.55027 0.47201 0.0
C545 C 0.72824 0.7218 0.45502 0.0
C546 C 0.76035 0.70863 0.46486 0.0
C547 C 0.67823 0.6929 0.45852 0.0
C548 C 0.58609 0.56576 0.47254 0.0
H549 H 0.36542 0.51139 0.42694 0.0
H550 H 0.45032 0.56586 0.43701 0.0
H551 H 0.52212 0.49549 0.46922 0.0
H552 H 0.76584 0.65677 0.4873 0.0
H553 H 0.67844 0.6067 0.49389 0.0
H554 H 0.58704 0.67364 0.47482 0.0
C555 C 0.42975 0.53249 0.44684 0.0
C556 C 0.53591 0.53426 0.47086 0.0
C557 C 0.38122 0.50115 0.44098 0.0
C558 C 0.74179 0.66749 0.47932 0.0
C559 C 0.6917 0.63865 0.48295 0.0
C560 C 0.57348 0.63486 0.47363 0.0
C561 C 0.4519 0.52026 0.46467 0.0
C562 C 0.50422 0.55289 0.46977 0.0
C563 C 0.65916 0.65029 0.4721 0.0
C564 C 0.60562 0.61658 0.4734 0.0
H565 H 0.35455 0.4116 0.48077 0.0
H566 H 0.44043 0.46595 0.49063 0.0
H567 H 0.49968 0.61867 0.47124 0.0
H568 H 0.74154 0.75336 0.44379 0.0
H569 H 0.65449 0.70287 0.44963 0.0
C570 C 0.00426 0.38558 0.80528 0.0
C571 C 0.96912 0.36433 0.78765 0.0
C572 C 0.02303 0.43459 0.81131 0.0
C573 C -0.004 0.53456 0.80824 0.0
H574 H 0.13551 0.62052 0.80636 0.0
C575 C 0.08326 0.73866 0.78926 0.0
C576 C 0.12884 0.77135 0.79875 0.0
C577 C 0.06201 0.68873 0.79334 0.0
C578 C 0.09652 0.59704 0.80751 0.0
H579 H 0.92537 0.37704 0.76285 0.0
H580 H 0.95739 0.46197 0.77358 0.0
H581 H 0.10178 0.53265 0.80367 0.0
H582 H 0.18675 0.77802 0.82104 0.0
H583 H 0.14928 0.69061 0.82851 0.0
H584 H -0.00955 0.59868 0.81169 0.0
C585 C 0.97051 0.44101 0.78275 0.0
C586 C 0.07724 0.54667 0.80591 0.0
C587 C 0.95242 0.39248 0.7765 0.0
C588 C 0.15171 0.75348 0.81337 0.0
C589 C 0.13038 0.70344 0.81752 0.0
C590 C 0.01523 0.58482 0.81005 0.0
C591 C 0.00617 0.46269 0.80011 0.0
C592 C 0.02676 0.51509 0.80553 0.0
C593 C 0.08577 0.67034 0.80711 0.0
C594 C 0.06567 0.61681 0.80895 0.0
H595 H 0.01762 0.36455 0.8142 0.0
H596 H 0.05051 0.45047 0.82476 0.0
H597 H 0.95693 0.51092 0.80837 0.0
H598 H 0.06484 0.75142 0.7779 0.0
H599 H 0.02798 0.66443 0.78477 0.0
C600 C 0.31196 0.24524 0.18609 0.0
C601 C 0.30821 0.19952 0.18224 0.0
C602 C 0.30631 0.26013 0.20853 0.0
C603 C 0.30199 0.22969 0.27306 0.0
H604 H 0.25447 0.32003 0.27932 0.0
C605 C 0.29916 0.31229 0.36421 0.0
C606 C 0.26346 0.32491 0.36928 0.0
C607 C 0.30454 0.29788 0.34163 0.0
C608 C 0.2674 0.29442 0.27818 0.0
H609 H 0.29499 0.13373 0.19991 0.0
H610 H 0.28417 0.15882 0.23862 0.0
H611 H 0.2621 0.29246 0.24089 0.0
H612 H 0.20519 0.33157 0.35365 0.0
H613 H 0.21391 0.30608 0.31463 0.0
H614 H 0.30577 0.23036 0.31038 0.0
C615 C 0.29251 0.18404 0.22435 0.0
C616 C 0.27256 0.27892 0.25577 0.0
C617 C 0.29844 0.16926 0.20188 0.0
C618 C 0.23358 0.32289 0.35065 0.0
C619 C 0.23876 0.30817 0.32802 0.0
C620 C 0.29667 0.24504 0.29547 0.0
C621 C 0.29631 0.22993 0.22828 0.0
C622 C 0.29015 0.24625 0.25259 0.0
C623 C 0.2742 0.29494 0.32296 0.0
C624 C 0.27942 0.27798 0.29864 0.0
H625 H 0.3197 0.27008 0.17169 0.0
H626 H 0.31064 0.29603 0.21031 0.0
H627 H 0.31617 0.20511 0.27192 0.0
H628 H 0.32309 0.31318 0.37784 0.0
H629 H 0.33305 0.28932 0.3389 0.0
C630 C 0.13852 0.33446 0.51934 0.0
C631 C 0.17658 0.32497 0.51476 0.0
C632 C 0.11805 0.32826 0.54183 0.0
C633 C 0.14021 0.31273 0.60557 0.0
H634 H 0.00504 0.27603 0.61241 0.0
C635 C 0.05836 0.30987 0.69747 0.0
C636 C 0.00932 0.27567 0.70237 0.0
C637 C 0.0777 0.31578 0.67479 0.0
C638 C 0.04279 0.28591 0.61106 0.0
H639 H 0.22226 0.30097 0.53114 0.0
H640 H 0.18663 0.28962 0.56989 0.0
H641 H 0.0397 0.28504 0.57368 0.0
H642 H 0.94254 0.22078 0.68631 0.0
H643 H 0.97595 0.23068 0.647 0.0
H644 H 0.14304 0.31238 0.6429 0.0
C645 C 0.17281 0.30275 0.55619 0.0
C646 C 0.06314 0.29182 0.58854 0.0
C647 C 0.19331 0.30903 0.53369 0.0
C648 C -0.01975 0.24793 0.68347 0.0
C649 C -0.00034 0.25377 0.6607 0.0
C650 C 0.11988 0.30683 0.62806 0.0
C651 C 0.13461 0.31218 0.56085 0.0
C652 C 0.11242 0.30547 0.5852 0.0
C653 C 0.04903 0.28761 0.65583 0.0
C654 C 0.07068 0.29342 0.63141 0.0
H655 H 0.12435 0.34689 0.50547 0.0
H656 H 0.0895 0.33688 0.54428 0.0
H657 H 0.17827 0.32375 0.60426 0.0
H658 H 0.08233 0.33214 0.71131 0.0
H659 H 0.11544 0.34298 0.67218 0.0
C660 C 0.95675 0.19119 0.86477 0.0
C661 C 0.92277 0.18761 0.84794 0.0
C662 C 0.94185 0.17036 0.88719 0.0
C663 C 0.84264 0.13145 0.93105 0.0
H664 H 0.89441 0.05547 0.95862 0.0
C665 C 0.81996 0.07772 1.03011 0.0
C666 C 0.80751 0.02974 1.03629 0.0
C667 C 0.83125 0.09458 1.00695 0.0
C668 C 0.87935 0.07643 0.95122 0.0
H669 H 0.8459 0.15925 0.8423 0.0
H670 H 0.82034 0.1248 0.88139 0.0
H671 H 0.92039 0.09013 0.91948 0.0
H672 H 0.79675 0.96189 1.02195 0.0
H673 H 0.81808 -0.00818 0.98172 0.0
H674 H 0.80271 0.11902 0.96301 0.0
C675 C 0.85864 0.14321 0.87715 0.0
C676 C 0.89462 0.09672 0.92873 0.0
C677 C 0.87339 0.16296 0.85457 0.0
C678 C 0.80604 -0.00101 1.01814 0.0
C679 C 0.81868 0.01636 0.99498 0.0
C680 C 0.82832 0.1122 0.95373 0.0
C681 C 0.8925 0.14619 0.8939 0.0
C682 C 0.87643 0.12453 0.91814 0.0
C683 C 0.83167 0.0646 0.98895 0.0
C684 C 0.84623 0.08415 0.96428 0.0
H685 H -0.00495 0.20959 0.86052 0.0
H686 H 0.96926 0.17389 0.89947 0.0
H687 H 0.82781 0.1527 0.92375 0.0
H688 H 0.82156 0.10284 1.04331 0.0
H689 H 0.84111 0.13189 1.00326 0.0
C690 C 0.79044 0.89583 0.18767 0.0
C691 C 0.80884 0.94519 0.18163 0.0
C692 C 0.7967 0.88185 0.21022 0.0
C693 C 0.83121 0.92831 0.27238 0.0
H694 H 0.83909 0.8113 0.28047 0.0
C695 C 0.82837 0.85209 0.3656 0.0
C696 C 0.85408 0.82748 0.3704 0.0
C697 C 0.82347 0.86547 0.34276 0.0
C698 C 0.8374 0.84437 0.27875 0.0
H699 H 0.84884 0.01838 0.19555 0.0
H700 H 0.8602 -0.00554 0.23447 0.0
H701 H 0.83087 0.83685 0.24153 0.0
H702 H 0.89434 0.79747 0.35377 0.0
H703 H 0.88629 0.82106 0.31404 0.0
H704 H 0.83896 0.93659 0.30947 0.0
C705 C 0.84006 0.96602 0.22185 0.0
C706 C 0.83194 0.85889 0.25613 0.0
C707 C 0.83373 0.98 0.19925 0.0
C708 C 0.87407 0.8161 0.3511 0.0
C709 C 0.86925 0.82969 0.3281 0.0
C710 C 0.83665 0.91381 0.29495 0.0
C711 C 0.82178 0.91654 0.22792 0.0
C712 C 0.82849 0.90116 0.25235 0.0
C713 C 0.84419 0.8552 0.3234 0.0
C714 C 0.83958 0.87129 0.29878 0.0
H715 H 0.77095 0.8675 0.17489 0.0
H716 H 0.78105 0.84338 0.21379 0.0
H717 H 0.82834 0.96074 0.27078 0.0
H718 H 0.812 0.86161 0.37965 0.0
H719 H 0.80283 0.88377 0.34038 0.0
C720 C 0.9323 0.84075 0.53216 0.0
C721 C 0.94253 0.81683 0.5142 0.0
C722 C 0.9526 0.84663 0.5547 0.0
C723 C 0.05205 0.83969 0.58875 0.0
H724 H -0.02017 0.8437 0.64204 0.0
C725 C 0.13586 0.88334 0.68409 0.0
C726 C 0.10434 0.86245 0.70329 0.0
C727 C 0.11768 0.87799 0.661 0.0
C728 C 0.00076 0.84225 0.62755 0.0
H729 H -0.01695 0.78029 0.50677 0.0
H730 H 0.01752 0.7897 0.54571 0.0
H731 H 0.94535 0.83281 0.60332 0.0
H732 H 0.02812 0.8181 0.71225 0.0
H733 H -0.00279 0.80806 0.67287 0.0
H734 H 0.10702 0.84805 0.61321 0.0
C735 C -0.00574 0.80481 0.54241 0.0
C736 C -0.01903 0.83665 0.60494 0.0
C737 C 0.97395 0.79896 0.51985 0.0
C738 C 0.05412 0.83523 0.6983 0.0
C739 C 0.03607 0.82981 0.67538 0.0
C740 C 0.07191 0.84534 0.61143 0.0
C741 C -0.01584 0.82884 0.56044 0.0
C742 C 0.00598 0.83512 0.58492 0.0
C743 C 0.06719 0.85148 0.65612 0.0
C744 C 0.04664 0.84651 0.63144 0.0
H745 H 0.90871 0.85549 0.52879 0.0
H746 H 0.94399 0.86607 0.56754 0.0
H747 H 0.0734 0.83946 0.57415 0.0
H748 H 0.17469 0.90475 0.6869 0.0
H749 H 0.14343 0.89577 0.64703 0.0
C750 C 0.16511 0.93578 0.86616 0.0
C751 C 0.19909 0.9508 0.84777 0.0
C752 C 0.17899 0.95505 0.88893 0.0
C753 C 0.2795 0.06053 0.92278 0.0
H754 H 0.21504 0.97998 0.97645 0.0
C755 C 0.31399 0.14195 1.0179 0.0
C756 C 0.31244 0.11294 1.0369 0.0
C757 C 0.30118 0.12266 0.99508 0.0
C758 C 0.23395 0.00327 0.9618 0.0
H759 H 0.2752 -0.00126 0.83981 0.0
H760 H 0.29922 0.03184 0.87907 0.0
H761 H 0.19174 0.94595 0.93739 0.0
H762 H 0.29559 0.03982 1.04592 0.0
H763 H 0.27386 0.00659 1.00657 0.0
H764 H 0.3221 0.11769 0.94721 0.0
C765 C 0.26142 0.00537 0.87595 0.0
C766 C 0.21999 0.98367 0.93909 0.0
C767 C 0.24759 -0.01409 0.85322 0.0
C768 C 0.2977 0.06382 1.03201 0.0
C769 C 0.28462 0.04444 1.00923 0.0
C770 C 0.29325 0.08023 0.94549 0.0
C771 C 0.22748 -0.0095 0.8944 0.0
C772 C 0.24246 0.01176 0.91899 0.0
C773 C 0.28583 0.0733 0.99018 0.0
C774 C 0.27091 0.05207 0.96559 0.0
H775 H 0.12739 0.90907 0.86297 0.0
H776 H 0.15116 0.9426 0.9022 0.0
H777 H 0.29774 0.08411 0.90812 0.0
H778 H 0.32457 0.17975 1.02068 0.0
H779 H 0.30229 0.14648 0.98132 0.0
loop_
_geom_bond_atom_site_label_1
_geom_bond_atom_site_label_2
_geom_bond_distance
_geom_bond_site_symmetry_2
_ccdc_geom_bond_type
Ho0 C3 2.811 . S
Ho0 O20 2.322 . S
Ho0 O22 2.378 . S
Ho0 O23 2.524 . S
Ho0 O24 2.381 . S
Ho0 O25 2.669 1_554 S
Ho0 O27 2.346 1_554 S
Ho0 O31 2.305 . S
Ho1 C12 2.811 . S
Ho1 O21 2.346 1_556 S
Ho1 O25 2.305 . S
Ho1 O26 2.322 . S
Ho1 O28 2.378 . S
Ho1 O29 2.524 . S
Ho1 O30 2.381 . S
Ho1 O31 2.669 1_556 S
C2 O20 1.259 . S
C2 O21 1.268 . S
C3 Ho0 2.811 . S
C3 C4 1.488 . S
C3 O22 1.215 . S
C3 O23 1.289 . S
C4 C3 1.488 . S
C4 C5 1.348 . S
C4 C9 1.413 . S
C5 C4 1.348 . S
C5 C6 1.442 . S
C5 H32 0.930 . S
C6 C5 1.442 . S
C6 C7 1.381 . S
C6 H33 0.931 . S
C7 C6 1.381 . S
C7 C8 1.321 . S
C8 C7 1.321 . S
C8 C9 1.403 . S
C8 H34 0.934 1_545 S
C9 C4 1.413 . S
C9 C8 1.403 . S
C9 H35 0.930 . S
C10 O24 1.275 . S
C10 O25 1.256 1_554 S
C11 O26 1.259 . S
C11 O27 1.268 . S
C12 Ho1 2.811 . S
C12 C13 1.488 . S
C12 O28 1.215 . S
C12 O29 1.289 . S
C13 C12 1.488 . S
C13 C14 1.348 . S
C13 C18 1.413 . S
C14 C13 1.348 . S
C14 C15 1.442 . S
C14 H36 0.930 . S
C15 C14 1.442 . S
C15 C16 1.381 . S
C15 H37 0.931 . S
C16 C15 1.381 . S
C16 C17 1.321 . S
C17 C16 1.321 . S
C17 C18 1.403 . S
C17 H38 0.934 . S
C18 C13 1.413 . S
C18 C17 1.403 . S
C18 H39 0.930 . S
C19 O30 1.275 1_554 S
C19 O31 1.256 . S
O20 Ho0 2.322 . S
O20 C2 1.259 . S
O21 Ho1 2.346 1_554 S
O21 C2 1.268 . S
O22 Ho0 2.378 . S
O22 C3 1.215 . S
O23 Ho0 2.524 . S
O23 C3 1.289 . S
O24 Ho0 2.381 . S
O24 C10 1.275 . S
O25 Ho0 2.669 1_556 S
O25 Ho1 2.305 . S
O25 C10 1.256 1_556 S
O26 Ho1 2.322 . S
O26 C11 1.259 . S
O27 Ho0 2.346 1_556 S
O27 C11 1.268 . S
O28 Ho1 2.378 . S
O28 C12 1.215 . S
O29 Ho1 2.524 . S
O29 C12 1.289 . S
O30 Ho1 2.381 . S
O30 C19 1.275 1_556 S
O31 Ho0 2.305 . S
O31 Ho1 2.669 1_554 S
O31 C19 1.256 . S
H32 C5 0.930 . S
H33 C6 0.931 . S
H34 C8 0.934 1_565 S
H35 C9 0.930 . S
H36 C14 0.930 . S
H37 C15 0.931 . S
H38 C17 0.934 . S
H39 C18 0.930 . S
Ho40 C43 2.811 . S
Ho40 O60 2.322 . S
Ho40 O62 2.378 . S
Ho40 O63 2.524 . S
Ho40 O64 2.381 . S
Ho40 O65 2.669 . S
Ho40 O67 2.346 . S
Ho40 O71 2.305 . S
Ho41 C52 2.811 . S
Ho41 O61 2.346 . S
Ho41 O65 2.305 . S
Ho41 O66 2.322 . S
Ho41 O68 2.378 . S
Ho41 O69 2.524 . S
Ho41 O70 2.381 . S
Ho41 O71 2.669 . S
C42 O60 1.259 . S
C42 O61 1.268 . S
C43 Ho40 2.811 . S
C43 C44 1.488 . S
C43 O62 1.215 . S
C43 O63 1.289 . S
C44 C43 1.488 . S
C44 C45 1.348 . S
C44 C49 1.413 . S
C45 C44 1.348 . S
C45 C46 1.442 . S
C45 H72 0.930 . S
C46 C45 1.442 . S
C46 C47 1.381 . S
C46 H73 0.931 . S
C47 C46 1.381 . S
C47 C48 1.321 . S
C48 C47 1.321 . S
C48 C49 1.403 . S
C48 H74 0.934 . S
C49 C44 1.413 . S
C49 C48 1.403 . S
C49 H75 0.930 . S
C50 O64 1.275 . S
C50 O65 1.256 . S
C51 O66 1.259 . S
C51 O67 1.268 . S
C52 Ho41 2.811 . S
C52 C53 1.488 . S
C52 O68 1.215 . S
C52 O69 1.289 . S
C53 C52 1.488 . S
C53 C54 1.348 . S
C53 C58 1.413 . S
C54 C53 1.348 . S
C54 C55 1.442 . S
C54 H76 0.930 . S
C55 C54 1.442 . S
C55 C56 1.381 . S
C55 H77 0.931 . S
C56 C55 1.381 . S
C56 C57 1.321 . S
C57 C56 1.321 . S
C57 C58 1.403 . S
C57 H78 0.934 . S
C58 C53 1.413 . S
C58 C57 1.403 . S
C58 H79 0.930 . S
C59 O70 1.275 . S
C59 O71 1.256 . S
O60 Ho40 2.322 . S
O60 C42 1.259 . S
O61 Ho41 2.346 . S
O61 C42 1.268 . S
O62 Ho40 2.378 . S
O62 C43 1.215 . S
O63 Ho40 2.524 . S
O63 C43 1.289 . S
O64 Ho40 2.381 . S
O64 C50 1.275 . S
O65 Ho40 2.669 . S
O65 Ho41 2.305 . S
O65 C50 1.256 . S
O66 Ho41 2.322 . S
O66 C51 1.259 . S
O67 Ho40 2.346 . S
O67 C51 1.268 . S
O68 Ho41 2.378 . S
O68 C52 1.215 . S
O69 Ho41 2.524 . S
O69 C52 1.289 . S
O70 Ho41 2.381 . S
O70 C59 1.275 . S
O71 Ho40 2.305 . S
O71 Ho41 2.669 . S
O71 C59 1.256 . S
H72 C45 0.930 . S
H73 C46 0.931 . S
H74 C48 0.934 . S
H75 C49 0.930 . S
H76 C54 0.930 . S
H77 C55 0.931 . S
H78 C57 0.934 . S
H79 C58 0.930 . S
Ho80 C83 2.811 . S
Ho80 O100 2.315 1_455 S
Ho80 O102 2.378 . S
Ho80 O103 2.524 . S
Ho80 O104 2.381 . S
Ho80 O105 2.669 1_455 S
Ho80 O107 2.346 . S
Ho80 O111 2.305 . S
Ho81 C92 2.811 . S
Ho81 O101 2.346 . S
Ho81 O105 2.305 . S
Ho81 O106 2.322 1_655 S
Ho81 O108 2.378 . S
Ho81 O109 2.524 . S
Ho81 O110 2.381 . S
Ho81 O111 2.669 1_655 S
C82 O100 1.270 . S
C82 O101 1.268 . S
C83 Ho80 2.811 . S
C83 C84 1.488 . S
C83 O102 1.215 . S
C83 O103 1.289 . S
C84 C83 1.488 . S
C84 C85 1.348 . S
C84 C89 1.413 . S
C85 C84 1.348 . S
C85 C86 1.442 . S
C85 H112 0.930 . S
C86 C85 1.442 . S
C86 C87 1.381 . S
C86 H113 0.931 . S
C87 C86 1.381 . S
C87 C88 1.321 . S
C88 C87 1.321 . S
C88 C89 1.403 . S
C88 H114 0.934 . S
C89 C84 1.413 . S
C89 C88 1.403 . S
C89 H115 0.930 . S
C90 O104 1.275 . S
C90 O105 1.256 1_455 S
C91 O106 1.259 . S
C91 O107 1.268 . S
C92 Ho81 2.811 . S
C92 C93 1.488 . S
C92 O108 1.215 . S
C92 O109 1.289 . S
C93 C92 1.488 . S
C93 C94 1.348 . S
C93 C98 1.413 . S
C94 C93 1.348 . S
C94 C95 1.442 . S
C94 H116 0.930 . S
C95 C94 1.442 . S
C95 C96 1.381 . S
C95 H117 0.931 . S
C96 C95 1.381 . S
C96 C97 1.321 . S
C97 C96 1.321 . S
C97 C98 1.403 . S
C97 H118 0.934 . S
C98 C93 1.413 . S
C98 C97 1.403 . S
C98 H119 0.930 . S
C99 O110 1.275 . S
C99 O111 1.256 1_655 S
O100 Ho80 2.315 1_655 S
O100 C82 1.270 . S
O101 Ho81 2.346 . S
O101 C82 1.268 . S
O102 Ho80 2.378 . S
O102 C83 1.215 . S
O103 Ho80 2.524 . S
O103 C83 1.289 . S
O104 Ho80 2.381 . S
O104 C90 1.275 . S
O105 Ho80 2.669 1_655 S
O105 Ho81 2.305 . S
O105 C90 1.256 1_655 S
O106 Ho81 2.322 1_455 S
O106 C91 1.259 . S
O107 Ho80 2.346 . S
O107 C91 1.268 . S
O108 Ho81 2.378 . S
O108 C92 1.215 . S
O109 Ho81 2.524 . S
O109 C92 1.289 . S
O110 Ho81 2.381 . S
O110 C99 1.275 . S
O111 Ho80 2.305 . S
O111 Ho81 2.669 1_455 S
O111 C99 1.256 1_455 S
H112 C85 0.930 . S
H113 C86 0.931 . S
H114 C88 0.934 . S
H115 C89 0.930 . S
H116 C94 0.930 . S
H117 C95 0.931 . S
H118 C97 0.934 . S
H119 C98 0.930 . S
Ho120 C123 2.811 . S
Ho120 O140 2.321 1_545 S
Ho120 O142 2.378 . S
Ho120 O143 2.524 . S
Ho120 O144 2.381 . S
Ho120 O145 2.669 1_544 S
Ho120 O147 2.346 1_554 S
Ho120 O151 2.305 . S
Ho121 C132 2.811 . S
Ho121 O141 2.346 1_556 S
Ho121 O145 2.305 . S
Ho121 O146 2.322 1_565 S
Ho121 O148 2.378 . S
Ho121 O149 2.524 . S
Ho121 O150 2.381 . S
Ho121 O151 2.669 1_566 S
C122 O140 1.259 . S
C122 O141 1.268 . S
C123 Ho120 2.811 . S
C123 C124 1.488 . S
C123 O142 1.215 . S
C123 O143 1.289 . S
C124 C123 1.488 . S
C124 C125 1.348 . S
C124 C129 1.413 . S
C125 C124 1.348 . S
C125 C126 1.442 . S
C125 H152 0.930 . S
C126 C125 1.442 . S
C126 C127 1.381 . S
C126 H153 0.931 . S
C127 C126 1.381 . S
C127 C128 1.321 . S
C128 C127 1.321 . S
C128 C129 1.403 . S
C128 H154 0.934 . S
C129 C124 1.413 . S
C129 C128 1.403 . S
C129 H155 0.930 . S
C130 O144 1.275 . S
C130 O145 1.256 1_544 S
C131 O146 1.259 . S
C131 O147 1.268 . S
C132 Ho121 2.811 . S
C132 C133 1.488 . S
C132 O148 1.215 . S
C132 O149 1.289 . S
C133 C132 1.488 . S
C133 C134 1.348 . S
C133 C138 1.413 . S
C134 C133 1.348 . S
C134 C135 1.442 . S
C134 H156 0.930 . S
C135 C134 1.442 . S
C135 C136 1.381 . S
C135 H157 0.931 . S
C136 C135 1.381 . S
C136 C137 1.321 . S
C137 C136 1.321 . S
C137 C138 1.403 . S
C137 H158 0.934 . S
C138 C133 1.413 . S
C138 C137 1.403 . S
C138 H159 0.930 . S
C139 O150 1.275 1_554 S
C139 O151 1.256 1_565 S
O140 Ho120 2.321 1_565 S
O140 C122 1.259 . S
O141 Ho121 2.346 1_554 S
O141 C122 1.268 . S
O142 Ho120 2.378 . S
O142 C123 1.215 . S
O143 Ho120 2.524 . S
O143 C123 1.289 . S
O144 Ho120 2.381 . S
O144 C130 1.275 . S
O145 Ho120 2.669 1_566 S
O145 Ho121 2.305 . S
O145 C130 1.256 1_566 S
O146 Ho121 2.322 1_545 S
O146 C131 1.259 . S
O147 Ho120 2.346 1_556 S
O147 C131 1.268 . S
O148 Ho121 2.378 . S
O148 C132 1.215 . S
O149 Ho121 2.524 . S
O149 C132 1.289 . S
O150 Ho121 2.381 . S
O150 C139 1.275 1_556 S
O151 Ho120 2.305 . S
O151 Ho121 2.669 1_544 S
O151 C139 1.256 1_545 S
H152 C125 0.930 . S
H153 C126 0.931 . S
H154 C128 0.934 . S
H155 C129 0.930 . S
H156 C134 0.930 . S
H157 C135 0.931 . S
H158 C137 0.934 . S
H159 C138 0.930 . S
Ho160 C163 2.811 . S
Ho160 O180 2.322 . S
Ho160 O182 2.378 . S
Ho160 O183 2.524 . S
Ho160 O184 2.381 . S
Ho160 O185 2.669 . S
Ho160 O187 2.346 . S
Ho160 O191 2.305 . S
Ho161 C172 2.811 . S
Ho161 O181 2.346 . S
Ho161 O185 2.305 . S
Ho161 O186 2.322 . S
Ho161 O188 2.378 . S
Ho161 O189 2.524 . S
Ho161 O190 2.381 . S
Ho161 O191 2.669 . S
C162 O180 1.259 . S
C162 O181 1.268 . S
C163 Ho160 2.811 . S
C163 C164 1.488 . S
C163 O182 1.215 . S
C163 O183 1.289 . S
C164 C163 1.488 . S
C164 C165 1.348 . S
C164 C169 1.413 . S
C165 C164 1.348 . S
C165 C166 1.442 . S
C165 H192 0.930 . S
C166 C165 1.442 . S
C166 C167 1.381 . S
C166 H193 0.931 . S
C167 C166 1.381 . S
C167 C168 1.321 . S
C168 C167 1.321 . S
C168 C169 1.403 . S
C168 H194 0.934 . S
C169 C164 1.413 . S
C169 C168 1.403 . S
C169 H195 0.930 . S
C170 O184 1.275 . S
C170 O185 1.256 . S
C171 O186 1.259 . S
C171 O187 1.268 . S
C172 Ho161 2.811 . S
C172 C173 1.488 . S
C172 O188 1.215 . S
C172 O189 1.289 . S
C173 C172 1.488 . S
C173 C174 1.348 1_655 S
C173 C178 1.413 . S
C174 C173 1.348 1_455 S
C174 C175 1.442 . S
C174 H196 0.930 . S
C175 C174 1.442 . S
C175 C176 1.381 1_455 S
C175 H197 0.931 . S
C176 C175 1.381 1_655 S
C176 C177 1.321 . S
C177 C176 1.321 . S
C177 C178 1.403 . S
C177 H198 0.934 . S
C178 C173 1.413 . S
C178 C177 1.403 . S
C178 H199 0.930 . S
C179 O190 1.275 . S
C179 O191 1.256 . S
O180 Ho160 2.322 . S
O180 C162 1.259 . S
O181 Ho161 2.346 . S
O181 C162 1.268 . S
O182 Ho160 2.378 . S
O182 C163 1.215 . S
O183 Ho160 2.524 . S
O183 C163 1.289 . S
O184 Ho160 2.381 . S
O184 C170 1.275 . S
O185 Ho160 2.669 . S
O185 Ho161 2.305 . S
O185 C170 1.256 . S
O186 Ho161 2.322 . S
O186 C171 1.259 . S
O187 Ho160 2.346 . S
O187 C171 1.268 . S
O188 Ho161 2.378 . S
O188 C172 1.215 . S
O189 Ho161 2.524 . S
O189 C172 1.289 . S
O190 Ho161 2.381 . S
O190 C179 1.275 . S
O191 Ho160 2.305 . S
O191 Ho161 2.669 . S
O191 C179 1.256 . S
H192 C165 0.930 . S
H193 C166 0.931 . S
H194 C168 0.934 . S
H195 C169 0.930 . S
H196 C174 0.930 . S
H197 C175 0.931 . S
H198 C177 0.934 . S
H199 C178 0.930 . S
Ho200 C203 2.811 . S
Ho200 O220 2.322 . S
Ho200 O222 2.378 . S
Ho200 O223 2.524 . S
Ho200 O224 2.381 . S
Ho200 O225 2.669 . S
Ho200 O227 2.346 . S
Ho200 O231 2.305 . S
Ho201 C212 2.811 . S
Ho201 O221 2.346 . S
Ho201 O225 2.305 . S
Ho201 O226 2.322 . S
Ho201 O228 2.378 . S
Ho201 O229 2.524 . S
Ho201 O230 2.381 . S
Ho201 O231 2.669 . S
C202 O220 1.259 . S
C202 O221 1.268 . S
C203 Ho200 2.811 . S
C203 C204 1.488 . S
C203 O222 1.215 . S
C203 O223 1.289 . S
C204 C203 1.488 . S
C204 C205 1.348 . S
C204 C209 1.413 . S
C205 C204 1.348 . S
C205 C206 1.442 . S
C205 H232 0.930 . S
C206 C205 1.442 . S
C206 C207 1.381 . S
C206 H233 0.931 . S
C207 C206 1.381 . S
C207 C208 1.321 . S
C208 C207 1.321 . S
C208 C209 1.403 . S
C208 H234 0.934 1_455 S
C209 C204 1.413 . S
C209 C208 1.403 . S
C209 H235 0.930 . S
C210 O224 1.275 . S
C210 O225 1.256 . S
C211 O226 1.259 . S
C211 O227 1.268 . S
C212 Ho201 2.811 . S
C212 C213 1.488 . S
C212 O228 1.215 . S
C212 O229 1.289 . S
C213 C212 1.488 . S
C213 C214 1.348 1_565 S
C213 C218 1.413 . S
C214 C213 1.348 1_545 S
C214 C215 1.442 . S
C214 H236 0.930 . S
C215 C214 1.442 . S
C215 C216 1.381 1_545 S
C215 H237 0.931 . S
C216 C215 1.381 1_565 S
C216 C217 1.321 . S
C217 C216 1.321 . S
C217 C218 1.403 . S
C217 H238 0.934 . S
C218 C213 1.413 . S
C218 C217 1.403 . S
C218 H239 0.930 . S
C219 O230 1.275 . S
C219 O231 1.256 . S
O220 Ho200 2.322 . S
O220 C202 1.259 . S
O221 Ho201 2.346 . S
O221 C202 1.268 . S
O222 Ho200 2.378 . S
O222 C203 1.215 . S
O223 Ho200 2.524 . S
O223 C203 1.289 . S
O224 Ho200 2.381 . S
O224 C210 1.275 . S
O225 Ho200 2.669 . S
O225 Ho201 2.305 . S
O225 C210 1.256 . S
O226 Ho201 2.322 . S
O226 C211 1.259 . S
O227 Ho200 2.346 . S
O227 C211 1.268 . S
O228 Ho201 2.378 . S
O228 C212 1.215 . S
O229 Ho201 2.524 . S
O229 C212 1.289 . S
O230 Ho201 2.381 . S
O230 C219 1.275 . S
O231 Ho200 2.305 . S
O231 Ho201 2.669 . S
O231 C219 1.256 . S
H232 C205 0.930 . S
H233 C206 0.931 . S
H234 C208 0.934 1_655 S
H235 C209 0.930 . S
H236 C214 0.930 . S
H237 C215 0.931 . S
H238 C217 0.934 . S
H239 C218 0.930 . S
C240 C241 1.349 1_554 S
C240 C242 1.327 . S
C240 H265 0.950 . S
C241 C240 1.349 1_556 S
C241 C257 1.349 1_565 S
C242 C240 1.327 . S
C242 C261 1.429 1_564 S
C242 H266 0.950 . S
C243 C260 1.574 . S
C243 C262 1.368 . S
C243 H267 0.949 . S
H244 C248 0.949 . S
C245 C246 1.349 . S
C245 C247 1.327 . S
C245 H268 0.950 . S
C246 C245 1.349 . S
C246 C258 1.349 1_556 S
C247 C245 1.327 . S
C247 C263 1.429 . S
C247 H269 0.950 . S
C248 H244 0.949 . S
C248 C256 1.574 . S
C248 C264 1.368 1_554 S
H249 C257 0.950 . S
H250 C255 0.950 . S
H251 C256 0.949 . S
H252 C258 0.950 . S
H253 C259 0.950 . S
H254 C260 0.949 . S
C255 H250 0.950 . S
C255 C257 1.327 . S
C255 C261 1.429 . S
C256 C248 1.574 . S
C256 H251 0.949 . S
C256 C262 1.368 1_554 S
C257 C241 1.349 1_545 S
C257 H249 0.950 . S
C257 C255 1.327 . S
C258 C246 1.349 1_554 S
C258 H252 0.950 . S
C258 C259 1.327 . S
C259 H253 0.950 . S
C259 C258 1.327 . S
C259 C263 1.429 1_554 S
C260 C243 1.574 . S
C260 H254 0.949 . S
C260 C264 1.368 . S
C261 C242 1.429 1_546 S
C261 C255 1.429 . S
C261 C262 1.523 1_655 S
C262 C243 1.368 . S
C262 C256 1.368 1_556 S
C262 C261 1.523 1_455 S
C263 C247 1.429 . S
C263 C259 1.429 1_556 S
C263 C264 1.523 . S
C264 C248 1.368 1_556 S
C264 C260 1.368 . S
C264 C263 1.523 . S
H265 C240 0.950 . S
H266 C242 0.950 . S
H267 C243 0.949 . S
H268 C245 0.950 . S
H269 C247 0.950 . S
C270 C271 1.349 1_455 S
C270 C272 1.327 . S
C270 H295 0.950 . S
C271 C270 1.349 1_655 S
C271 C287 1.349 . S
C272 C270 1.327 . S
C272 C291 1.429 . S
C272 H296 0.950 . S
C273 C290 1.574 . S
C273 C292 1.368 . S
C273 H297 0.949 . S
H274 C278 0.949 . S
C275 C276 1.349 . S
C275 C277 1.327 . S
C275 H298 0.950 . S
C276 C275 1.349 . S
C276 C288 1.349 . S
C277 C275 1.327 . S
C277 C293 1.429 . S
C277 H299 0.950 . S
C278 H274 0.949 . S
C278 C286 1.574 . S
C278 C294 1.368 . S
H279 C287 0.950 . S
H280 C285 0.950 . S
H281 C286 0.949 . S
H282 C288 0.950 . S
H283 C289 0.950 . S
H284 C290 0.949 . S
C285 H280 0.950 . S
C285 C287 1.327 . S
C285 C291 1.429 1_655 S
C286 C278 1.574 . S
C286 H281 0.949 . S
C286 C292 1.368 . S
C287 C271 1.349 . S
C287 H279 0.950 . S
C287 C285 1.327 . S
C288 C276 1.349 . S
C288 H282 0.950 . S
C288 C289 1.327 . S
C289 H283 0.950 . S
C289 C288 1.327 . S
C289 C293 1.429 . S
C290 C273 1.574 . S
C290 H284 0.949 . S
C290 C294 1.368 . S
C291 C272 1.429 . S
C291 C285 1.429 1_455 S
C291 C292 1.523 1_565 S
C292 C273 1.368 . S
C292 C286 1.368 . S
C292 C291 1.523 1_545 S
C293 C277 1.429 . S
C293 C289 1.429 . S
C293 C294 1.523 . S
C294 C278 1.368 . S
C294 C290 1.368 . S
C294 C293 1.523 . S
H295 C270 0.950 . S
H296 C272 0.950 . S
H297 C273 0.949 . S
H298 C275 0.950 . S
H299 C277 0.950 . S
C300 C301 1.349 1_545 S
C300 C302 1.327 . S
C300 H325 0.950 . S
C301 C300 1.349 1_565 S
C301 C317 1.349 . S
C302 C300 1.327 . S
C302 C321 1.429 . S
C302 H326 0.950 . S
C303 C320 1.574 . S
C303 C322 1.368 . S
C303 H327 0.949 . S
H304 C308 0.949 . S
C305 C306 1.349 . S
C305 C307 1.327 . S
C305 H328 0.950 . S
C306 C305 1.349 . S
C306 C318 1.349 1_655 S
C307 C305 1.327 . S
C307 C323 1.429 1_655 S
C307 H329 0.950 . S
C308 H304 0.949 . S
C308 C316 1.574 . S
C308 C324 1.368 . S
H309 C317 0.950 . S
H310 C315 0.950 . S
H311 C316 0.949 . S
H312 C318 0.950 . S
H313 C319 0.950 . S
H314 C320 0.949 . S
C315 H310 0.950 . S
C315 C317 1.327 . S
C315 C321 1.429 1_565 S
C316 C308 1.574 . S
C316 H311 0.949 . S
C316 C322 1.368 . S
C317 C301 1.349 . S
C317 H309 0.950 . S
C317 C315 1.327 . S
C318 C306 1.349 1_455 S
C318 H312 0.950 . S
C318 C319 1.327 . S
C319 H313 0.950 . S
C319 C318 1.327 . S
C319 C323 1.429 . S
C320 C303 1.574 . S
C320 H314 0.949 . S
C320 C324 1.368 . S
C321 C302 1.429 . S
C321 C315 1.429 1_545 S
C321 C322 1.523 . S
C322 C303 1.368 . S
C322 C316 1.368 . S
C322 C321 1.523 . S
C323 C307 1.429 1_455 S
C323 C319 1.429 . S
C323 C324 1.523 . S
C324 C308 1.368 . S
C324 C320 1.368 . S
C324 C323 1.523 . S
H325 C300 0.950 . S
H326 C302 0.950 . S
H327 C303 0.949 . S
H328 C305 0.950 . S
H329 C307 0.950 . S
C330 C331 1.349 . S
C330 C332 1.327 . S
C330 H355 0.950 . S
C331 C330 1.349 . S
C331 C347 1.349 . S
C332 C330 1.327 . S
C332 C351 1.429 . S
C332 H356 0.950 . S
C333 C350 1.574 . S
C333 C352 1.368 . S
C333 H357 0.949 . S
H334 C338 0.949 . S
C335 C336 1.349 . S
C335 C337 1.327 . S
C335 H358 0.950 . S
C336 C335 1.349 . S
C336 C348 1.349 . S
C337 C335 1.327 . S
C337 C353 1.429 . S
C337 H359 0.950 . S
C338 H334 0.949 . S
C338 C346 1.574 . S
C338 C354 1.368 . S
H339 C347 0.950 . S
H340 C345 0.950 . S
H341 C346 0.949 . S
H342 C348 0.950 . S
H343 C349 0.950 . S
H344 C350 0.949 . S
C345 H340 0.950 . S
C345 C347 1.327 . S
C345 C351 1.429 . S
C346 C338 1.574 . S
C346 H341 0.949 . S
C346 C352 1.368 . S
C347 C331 1.349 . S
C347 H339 0.950 . S
C347 C345 1.327 . S
C348 C336 1.349 . S
C348 H342 0.950 . S
C348 C349 1.327 . S
C349 H343 0.950 . S
C349 C348 1.327 . S
C349 C353 1.429 . S
C350 C333 1.574 . S
C350 H344 0.949 . S
C350 C354 1.368 . S
C351 C332 1.429 . S
C351 C345 1.429 . S
C351 C352 1.523 . S
C352 C333 1.368 . S
C352 C346 1.368 . S
C352 C351 1.523 . S
C353 C337 1.429 . S
C353 C349 1.429 . S
C353 C354 1.523 . S
C354 C338 1.368 . S
C354 C350 1.368 . S
C354 C353 1.523 . S
H355 C330 0.950 . S
H356 C332 0.950 . S
H357 C333 0.949 . S
H358 C335 0.950 . S
H359 C337 0.950 . S
C360 C361 1.349 . S
C360 C362 1.327 . S
C360 H385 0.950 . S
C361 C360 1.349 . S
C361 C377 1.349 . S
C362 C360 1.327 . S
C362 C381 1.429 . S
C362 H386 0.950 . S
C363 C380 1.574 1_455 S
C363 C382 1.368 . S
C363 H387 0.949 . S
H364 C368 0.949 . S
C365 C366 1.349 . S
C365 C367 1.327 . S
C365 H388 0.950 . S
C366 C365 1.349 . S
C366 C378 1.349 . S
C367 C365 1.327 . S
C367 C383 1.429 . S
C367 H389 0.950 . S
C368 H364 0.949 . S
C368 C376 1.574 . S
C368 C384 1.368 1_455 S
H369 C377 0.950 . S
H370 C375 0.950 . S
H371 C376 0.949 . S
H372 C378 0.950 . S
H373 C379 0.950 . S
H374 C380 0.949 . S
C375 H370 0.950 . S
C375 C377 1.327 . S
C375 C381 1.429 . S
C376 C368 1.574 . S
C376 H371 0.949 . S
C376 C382 1.368 . S
C377 C361 1.349 . S
C377 H369 0.950 . S
C377 C375 1.327 . S
C378 C366 1.349 . S
C378 H372 0.950 . S
C378 C379 1.327 . S
C379 H373 0.950 . S
C379 C378 1.327 . S
C379 C383 1.429 . S
C380 C363 1.574 1_655 S
C380 H374 0.949 . S
C380 C384 1.368 . S
C381 C362 1.429 . S
C381 C375 1.429 . S
C381 C382 1.523 . S
C382 C363 1.368 . S
C382 C376 1.368 . S
C382 C381 1.523 . S
C383 C367 1.429 . S
C383 C379 1.429 . S
C383 C384 1.523 . S
C384 C368 1.368 1_655 S
C384 C380 1.368 . S
C384 C383 1.523 . S
H385 C360 0.950 . S
H386 C362 0.950 . S
H387 C363 0.949 . S
H388 C365 0.950 . S
H389 C367 0.950 . S
C390 C391 1.349 . S
C390 C392 1.327 . S
C390 H415 0.950 . S
C391 C390 1.349 . S
C391 C407 1.349 . S
C392 C390 1.327 . S
C392 C411 1.429 . S
C392 H416 0.950 . S
C393 C410 1.574 1_545 S
C393 C412 1.368 . S
C393 H417 0.949 . S
H394 C398 0.949 . S
C395 C396 1.349 . S
C395 C397 1.327 . S
C395 H418 0.950 . S
C396 C395 1.349 . S
C396 C408 1.349 . S
C397 C395 1.327 . S
C397 C413 1.429 . S
C397 H419 0.950 . S
C398 H394 0.949 . S
C398 C406 1.574 . S
C398 C414 1.368 1_545 S
H399 C407 0.950 . S
H400 C405 0.950 . S
H401 C406 0.949 . S
H402 C408 0.950 . S
H403 C409 0.950 . S
H404 C410 0.949 . S
C405 H400 0.950 . S
C405 C407 1.327 . S
C405 C411 1.429 . S
C406 C398 1.574 . S
C406 H401 0.949 . S
C406 C412 1.368 . S
C407 C391 1.349 . S
C407 H399 0.950 . S
C407 C405 1.327 . S
C408 C396 1.349 . S
C408 H402 0.950 . S
C408 C409 1.327 . S
C409 H403 0.950 . S
C409 C408 1.327 . S
C409 C413 1.429 . S
C410 C393 1.574 1_565 S
C410 H404 0.949 . S
C410 C414 1.368 . S
C411 C392 1.429 . S
C411 C405 1.429 . S
C411 C412 1.523 . S
C412 C393 1.368 . S
C412 C406 1.368 . S
C412 C411 1.523 . S
C413 C397 1.429 . S
C413 C409 1.429 . S
C413 C414 1.523 . S
C414 C398 1.368 1_565 S
C414 C410 1.368 . S
C414 C413 1.523 . S
H415 C390 0.950 . S
H416 C392 0.950 . S
H417 C393 0.949 . S
H418 C395 0.950 . S
H419 C397 0.950 . S
C420 C421 1.349 . S
C420 C422 1.327 . S
C420 H445 0.950 . S
C421 C420 1.349 . S
C421 C437 1.349 . S
C422 C420 1.327 . S
C422 C441 1.429 . S
C422 H446 0.950 . S
C423 C440 1.574 . S
C423 C442 1.368 . S
C423 H447 0.949 . S
H424 C428 0.949 . S
C425 C426 1.349 . S
C425 C427 1.327 . S
C425 H448 0.950 . S
C426 C425 1.349 . S
C426 C438 1.349 1_455 S
C427 C425 1.327 . S
C427 C443 1.429 1_455 S
C427 H449 0.950 . S
C428 H424 0.949 . S
C428 C436 1.574 . S
C428 C444 1.368 . S
H429 C437 0.950 . S
H430 C435 0.950 . S
H431 C436 0.949 . S
H432 C438 0.950 . S
H433 C439 0.950 . S
H434 C440 0.949 . S
C435 H430 0.950 . S
C435 C437 1.327 . S
C435 C441 1.429 . S
C436 C428 1.574 . S
C436 H431 0.949 . S
C436 C442 1.368 . S
C437 C421 1.349 . S
C437 H429 0.950 . S
C437 C435 1.327 . S
C438 C426 1.349 1_655 S
C438 H432 0.950 . S
C438 C439 1.327 . S
C439 H433 0.950 . S
C439 C438 1.327 . S
C439 C443 1.429 . S
C440 C423 1.574 . S
C440 H434 0.949 . S
C440 C444 1.368 . S
C441 C422 1.429 . S
C441 C435 1.429 . S
C441 C442 1.523 . S
C442 C423 1.368 . S
C442 C436 1.368 . S
C442 C441 1.523 . S
C443 C427 1.429 1_655 S
C443 C439 1.429 . S
C443 C444 1.523 . S
C444 C428 1.368 . S
C444 C440 1.368 . S
C444 C443 1.523 . S
H445 C420 0.950 . S
H446 C422 0.950 . S
H447 C423 0.949 . S
H448 C425 0.950 . S
H449 C427 0.950 . S
C450 C451 1.349 . S
C450 C452 1.327 1_655 S
C450 H475 0.950 . S
C451 C450 1.349 . S
C451 C467 1.349 1_655 S
C452 C450 1.327 1_455 S
C452 C471 1.429 . S
C452 H476 0.950 . S
C453 C470 1.574 . S
C453 C472 1.368 . S
C453 H477 0.949 . S
H454 C458 0.949 . S
C455 C456 1.349 . S
C455 C457 1.327 1_545 S
C455 H478 0.950 . S
C456 C455 1.349 . S
C456 C468 1.349 1_545 S
C457 C455 1.327 1_565 S
C457 C473 1.429 . S
C457 H479 0.950 . S
C458 H454 0.949 . S
C458 C466 1.574 . S
C458 C474 1.368 . S
H459 C467 0.950 . S
H460 C465 0.950 . S
H461 C466 0.949 . S
H462 C468 0.950 . S
H463 C469 0.950 . S
H464 C470 0.949 . S
C465 H460 0.950 . S
C465 C467 1.327 . S
C465 C471 1.429 . S
C466 C458 1.574 . S
C466 H461 0.949 . S
C466 C472 1.368 . S
C467 C451 1.349 1_455 S
C467 H459 0.950 . S
C467 C465 1.327 . S
C468 C456 1.349 1_565 S
C468 H462 0.950 . S
C468 C469 1.327 . S
C469 H463 0.950 . S
C469 C468 1.327 . S
C469 C473 1.429 . S
C470 C453 1.574 . S
C470 H464 0.949 . S
C470 C474 1.368 . S
C471 C452 1.429 . S
C471 C465 1.429 . S
C471 C472 1.523 . S
C472 C453 1.368 . S
C472 C466 1.368 . S
C472 C471 1.523 . S
C473 C457 1.429 . S
C473 C469 1.429 . S
C473 C474 1.523 . S
C474 C458 1.368 . S
C474 C470 1.368 . S
C474 C473 1.523 . S
H475 C450 0.950 . S
H476 C452 0.950 . S
H477 C453 0.949 . S
H478 C455 0.950 . S
H479 C457 0.950 . S
C480 C481 1.349 1_545 S
C480 C482 1.327 . S
C480 H505 0.950 . S
C481 C480 1.349 1_565 S
C481 C497 1.349 . S
C482 C480 1.327 . S
C482 C501 1.429 . S
C482 H506 0.950 . S
C483 C500 1.574 . S
C483 C502 1.368 . S
C483 H507 0.949 . S
H484 C488 0.949 . S
C485 C486 1.349 . S
C485 C487 1.327 . S
C485 H508 0.950 . S
C486 C485 1.349 . S
C486 C498 1.349 . S
C487 C485 1.327 . S
C487 C503 1.429 . S
C487 H509 0.950 . S
C488 H484 0.949 . S
C488 C496 1.574 . S
C488 C504 1.368 . S
H489 C497 0.950 . S
H490 C495 0.950 . S
H491 C496 0.949 . S
H492 C498 0.950 . S
H493 C499 0.950 . S
H494 C500 0.949 . S
C495 H490 0.950 . S
C495 C497 1.327 1_545 S
C495 C501 1.429 . S
C496 C488 1.574 . S
C496 H491 0.949 . S
C496 C502 1.368 . S
C497 C481 1.349 . S
C497 H489 0.950 . S
C497 C495 1.327 1_565 S
C498 C486 1.349 . S
C498 H492 0.950 . S
C498 C499 1.327 . S
C499 H493 0.950 . S
C499 C498 1.327 . S
C499 C503 1.429 . S
C500 C483 1.574 . S
C500 H494 0.949 . S
C500 C504 1.368 . S
C501 C482 1.429 . S
C501 C495 1.429 . S
C501 C502 1.523 . S
C502 C483 1.368 . S
C502 C496 1.368 . S
C502 C501 1.523 . S
C503 C487 1.429 . S
C503 C499 1.429 . S
C503 C504 1.523 . S
C504 C488 1.368 . S
C504 C500 1.368 . S
C504 C503 1.523 . S
H505 C480 0.950 . S
H506 C482 0.950 . S
H507 C483 0.949 . S
H508 C485 0.950 . S
H509 C487 0.950 . S
C510 C511 1.349 . S
C510 C512 1.327 . S
C510 H535 0.950 . S
C511 C510 1.349 . S
C511 C527 1.349 1_554 S
C512 C510 1.327 . S
C512 C531 1.429 . S
C512 H536 0.950 . S
C513 C530 1.574 . S
C513 C532 1.368 1_556 S
C513 H537 0.949 . S
H514 C518 0.949 . S
C515 C516 1.349 1_546 S
C515 C517 1.327 . S
C515 H538 0.950 . S
C516 C515 1.349 1_564 S
C516 C528 1.349 . S
C517 C515 1.327 . S
C517 C533 1.429 1_556 S
C517 H539 0.950 . S
C518 H514 0.949 . S
C518 C526 1.574 . S
C518 C534 1.368 . S
H519 C527 0.950 . S
H520 C525 0.950 . S
H521 C526 0.949 . S
H522 C528 0.950 . S
H523 C529 0.950 1_565 S
H524 C530 0.949 . S
C525 H520 0.950 . S
C525 C527 1.327 . S
C525 C531 1.429 1_556 S
C526 C518 1.574 . S
C526 H521 0.949 . S
C526 C532 1.368 . S
C527 C511 1.349 1_556 S
C527 H519 0.950 . S
C527 C525 1.327 . S
C528 C516 1.349 . S
C528 H522 0.950 . S
C528 C529 1.327 1_565 S
C529 H523 0.950 1_545 S
C529 C528 1.327 1_545 S
C529 C533 1.429 . S
C530 C513 1.574 . S
C530 H524 0.949 . S
C530 C534 1.368 1_556 S
C531 C512 1.429 . S
C531 C525 1.429 1_554 S
C531 C532 1.523 . S
C532 C513 1.368 1_554 S
C532 C526 1.368 . S
C532 C531 1.523 . S
C533 C517 1.429 1_554 S
C533 C529 1.429 . S
C533 C534 1.523 . S
C534 C518 1.368 . S
C534 C530 1.368 1_554 S
C534 C533 1.523 . S
H535 C510 0.950 . S
H536 C512 0.950 . S
H537 C513 0.949 . S
H538 C515 0.950 . S
H539 C517 0.950 . S
C540 C541 1.349 . S
C540 C542 1.327 . S
C540 H565 0.950 . S
C541 C540 1.349 . S
C541 C557 1.349 . S
C542 C540 1.327 . S
C542 C561 1.429 . S
C542 H566 0.950 . S
C543 C560 1.574 . S
C543 C562 1.368 . S
C543 H567 0.949 . S
H544 C548 0.949 . S
C545 C546 1.349 . S
C545 C547 1.327 . S
C545 H568 0.950 . S
C546 C545 1.349 . S
C546 C558 1.349 . S
C547 C545 1.327 . S
C547 C563 1.429 . S
C547 H569 0.950 . S
C548 H544 0.949 . S
C548 C556 1.574 . S
C548 C564 1.368 . S
H549 C557 0.950 . S
H550 C555 0.950 . S
H551 C556 0.949 . S
H552 C558 0.950 . S
H553 C559 0.950 . S
H554 C560 0.949 . S
C555 H550 0.950 . S
C555 C557 1.327 . S
C555 C561 1.429 . S
C556 C548 1.574 . S
C556 H551 0.949 . S
C556 C562 1.368 . S
C557 C541 1.349 . S
C557 H549 0.950 . S
C557 C555 1.327 . S
C558 C546 1.349 . S
C558 H552 0.950 . S
C558 C559 1.327 . S
C559 H553 0.950 . S
C559 C558 1.327 . S
C559 C563 1.429 . S
C560 C543 1.574 . S
C560 H554 0.949 . S
C560 C564 1.368 . S
C561 C542 1.429 . S
C561 C555 1.429 . S
C561 C562 1.523 . S
C562 C543 1.368 . S
C562 C556 1.368 . S
C562 C561 1.523 . S
C563 C547 1.429 . S
C563 C559 1.429 . S
C563 C564 1.523 . S
C564 C548 1.368 . S
C564 C560 1.368 . S
C564 C563 1.523 . S
H565 C540 0.950 . S
H566 C542 0.950 . S
H567 C543 0.949 . S
H568 C545 0.950 . S
H569 C547 0.950 . S
C570 C571 1.349 1_455 S
C570 C572 1.327 . S
C570 H595 0.950 . S
C571 C570 1.349 1_655 S
C571 C587 1.349 . S
C572 C570 1.327 . S
C572 C591 1.429 . S
C572 H596 0.950 . S
C573 C590 1.574 . S
C573 C592 1.368 . S
C573 H597 0.949 . S
H574 C578 0.949 . S
C575 C576 1.349 . S
C575 C577 1.327 . S
C575 H598 0.950 . S
C576 C575 1.349 . S
C576 C588 1.349 . S
C577 C575 1.327 . S
C577 C593 1.429 . S
C577 H599 0.950 . S
C578 H574 0.949 . S
C578 C586 1.574 . S
C578 C594 1.368 . S
H579 C587 0.950 . S
H580 C585 0.950 1_655 S
H581 C586 0.949 . S
H582 C588 0.950 . S
H583 C589 0.950 . S
H584 C590 0.949 . S
C585 H580 0.950 1_455 S
C585 C587 1.327 1_455 S
C585 C591 1.429 . S
C586 C578 1.574 . S
C586 H581 0.949 . S
C586 C592 1.368 . S
C587 C571 1.349 . S
C587 H579 0.950 . S
C587 C585 1.327 1_655 S
C588 C576 1.349 . S
C588 H582 0.950 . S
C588 C589 1.327 . S
C589 H583 0.950 . S
C589 C588 1.327 . S
C589 C593 1.429 . S
C590 C573 1.574 . S
C590 H584 0.949 . S
C590 C594 1.368 . S
C591 C572 1.429 . S
C591 C585 1.429 . S
C591 C592 1.523 . S
C592 C573 1.368 . S
C592 C586 1.368 . S
C592 C591 1.523 . S
C593 C577 1.429 . S
C593 C589 1.429 . S
C593 C594 1.523 . S
C594 C578 1.368 . S
C594 C590 1.368 . S
C594 C593 1.523 . S
H595 C570 0.950 . S
H596 C572 0.950 . S
H597 C573 0.949 . S
H598 C575 0.950 . S
H599 C577 0.950 . S
C600 C601 1.349 . S
C600 C602 1.327 . S
C600 H625 0.950 . S
C601 C600 1.349 . S
C601 C617 1.349 . S
C602 C600 1.327 . S
C602 C621 1.429 . S
C602 H626 0.950 . S
C603 C620 1.574 . S
C603 C622 1.368 . S
C603 H627 0.949 . S
H604 C608 0.949 . S
C605 C606 1.349 . S
C605 C607 1.327 . S
C605 H628 0.950 . S
C606 C605 1.349 . S
C606 C618 1.349 . S
C607 C605 1.327 . S
C607 C623 1.429 . S
C607 H629 0.950 . S
C608 H604 0.949 . S
C608 C616 1.574 . S
C608 C624 1.368 . S
H609 C617 0.950 . S
H610 C615 0.950 . S
H611 C616 0.949 . S
H612 C618 0.950 . S
H613 C619 0.950 . S
H614 C620 0.949 . S
C615 H610 0.950 . S
C615 C617 1.327 . S
C615 C621 1.429 . S
C616 C608 1.574 . S
C616 H611 0.949 . S
C616 C622 1.368 . S
C617 C601 1.349 . S
C617 H609 0.950 . S
C617 C615 1.327 . S
C618 C606 1.349 . S
C618 H612 0.950 . S
C618 C619 1.327 . S
C619 H613 0.950 . S
C619 C618 1.327 . S
C619 C623 1.429 . S
C620 C603 1.574 . S
C620 H614 0.949 . S
C620 C624 1.368 . S
C621 C602 1.429 . S
C621 C615 1.429 . S
C621 C622 1.523 . S
C622 C603 1.368 . S
C622 C616 1.368 . S
C622 C621 1.523 . S
C623 C607 1.429 . S
C623 C619 1.429 . S
C623 C624 1.523 . S
C624 C608 1.368 . S
C624 C620 1.368 . S
C624 C623 1.523 . S
H625 C600 0.950 . S
H626 C602 0.950 . S
H627 C603 0.949 . S
H628 C605 0.950 . S
H629 C607 0.950 . S
C630 C631 1.349 . S
C630 C632 1.327 . S
C630 H655 0.950 . S
C631 C630 1.349 . S
C631 C647 1.349 . S
C632 C630 1.327 . S
C632 C651 1.429 . S
C632 H656 0.950 . S
C633 C650 1.574 . S
C633 C652 1.368 . S
C633 H657 0.949 . S
H634 C638 0.949 . S
C635 C636 1.349 . S
C635 C637 1.327 . S
C635 H658 0.950 . S
C636 C635 1.349 . S
C636 C648 1.349 . S
C637 C635 1.327 . S
C637 C653 1.429 . S
C637 H659 0.950 . S
C638 H634 0.949 . S
C638 C646 1.574 . S
C638 C654 1.368 . S
H639 C647 0.950 . S
H640 C645 0.950 . S
H641 C646 0.949 . S
H642 C648 0.950 . S
H643 C649 0.950 . S
H644 C650 0.949 . S
C645 H640 0.950 . S
C645 C647 1.327 . S
C645 C651 1.429 . S
C646 C638 1.574 . S
C646 H641 0.949 . S
C646 C652 1.368 . S
C647 C631 1.349 . S
C647 H639 0.950 . S
C647 C645 1.327 . S
C648 C636 1.349 . S
C648 H642 0.950 . S
C648 C649 1.327 . S
C649 H643 0.950 . S
C649 C648 1.327 . S
C649 C653 1.429 . S
C650 C633 1.574 . S
C650 H644 0.949 . S
C650 C654 1.368 . S
C651 C632 1.429 . S
C651 C645 1.429 . S
C651 C652 1.523 . S
C652 C633 1.368 . S
C652 C646 1.368 . S
C652 C651 1.523 . S
C653 C637 1.429 . S
C653 C649 1.429 . S
C653 C654 1.523 . S
C654 C638 1.368 . S
C654 C650 1.368 . S
C654 C653 1.523 . S
H655 C630 0.950 . S
H656 C632 0.950 . S
H657 C633 0.949 . S
H658 C635 0.950 . S
H659 C637 0.950 . S
C660 C661 1.349 . S
C660 C662 1.327 . S
C660 H685 0.950 . S
C661 C660 1.349 . S
C661 C677 1.349 . S
C662 C660 1.327 . S
C662 C681 1.429 . S
C662 H686 0.950 . S
C663 C680 1.574 . S
C663 C682 1.368 . S
C663 H687 0.949 . S
H664 C668 0.949 . S
C665 C666 1.349 . S
C665 C667 1.327 . S
C665 H688 0.950 . S
C666 C665 1.349 . S
C666 C678 1.349 . S
C667 C665 1.327 . S
C667 C683 1.429 . S
C667 H689 0.950 . S
C668 H664 0.949 . S
C668 C676 1.574 . S
C668 C684 1.368 . S
H669 C677 0.950 . S
H670 C675 0.950 . S
H671 C676 0.949 . S
H672 C678 0.950 . S
H673 C679 0.950 . S
H674 C680 0.949 . S
C675 H670 0.950 . S
C675 C677 1.327 . S
C675 C681 1.429 . S
C676 C668 1.574 . S
C676 H671 0.949 . S
C676 C682 1.368 . S
C677 C661 1.349 . S
C677 H669 0.950 . S
C677 C675 1.327 . S
C678 C666 1.349 . S
C678 H672 0.950 . S
C678 C679 1.327 . S
C679 H673 0.950 . S
C679 C678 1.327 . S
C679 C683 1.429 . S
C680 C663 1.574 . S
C680 H674 0.949 . S
C680 C684 1.368 . S
C681 C662 1.429 . S
C681 C675 1.429 . S
C681 C682 1.523 . S
C682 C663 1.368 . S
C682 C676 1.368 . S
C682 C681 1.523 . S
C683 C667 1.429 . S
C683 C679 1.429 . S
C683 C684 1.523 . S
C684 C668 1.368 . S
C684 C680 1.368 . S
C684 C683 1.523 . S
H685 C660 0.950 . S
H686 C662 0.950 . S
H687 C663 0.949 . S
H688 C665 0.950 . S
H689 C667 0.950 . S
C690 C691 1.349 . S
C690 C692 1.327 . S
C690 H715 0.950 . S
C691 C690 1.349 . S
C691 C707 1.349 . S
C692 C690 1.327 . S
C692 C711 1.429 . S
C692 H716 0.950 . S
C693 C710 1.574 . S
C693 C712 1.368 . S
C693 H717 0.949 . S
H694 C698 0.949 . S
C695 C696 1.349 . S
C695 C697 1.327 . S
C695 H718 0.950 . S
C696 C695 1.349 . S
C696 C708 1.349 . S
C697 C695 1.327 . S
C697 C713 1.429 . S
C697 H719 0.950 . S
C698 H694 0.949 . S
C698 C706 1.574 . S
C698 C714 1.368 . S
H699 C707 0.950 . S
H700 C705 0.950 . S
H701 C706 0.949 . S
H702 C708 0.950 . S
H703 C709 0.950 . S
H704 C710 0.949 . S
C705 H700 0.950 . S
C705 C707 1.327 . S
C705 C711 1.429 . S
C706 C698 1.574 . S
C706 H701 0.949 . S
C706 C712 1.368 . S
C707 C691 1.349 . S
C707 H699 0.950 . S
C707 C705 1.327 . S
C708 C696 1.349 . S
C708 H702 0.950 . S
C708 C709 1.327 . S
C709 H703 0.950 . S
C709 C708 1.327 . S
C709 C713 1.429 . S
C710 C693 1.574 . S
C710 H704 0.949 . S
C710 C714 1.368 . S
C711 C692 1.429 . S
C711 C705 1.429 . S
C711 C712 1.523 . S
C712 C693 1.368 . S
C712 C706 1.368 . S
C712 C711 1.523 . S
C713 C697 1.429 . S
C713 C709 1.429 . S
C713 C714 1.523 . S
C714 C698 1.368 . S
C714 C710 1.368 . S
C714 C713 1.523 . S
H715 C690 0.950 . S
H716 C692 0.950 . S
H717 C693 0.949 . S
H718 C695 0.950 . S
H719 C697 0.950 . S
C720 C721 1.349 . S
C720 C722 1.327 . S
C720 H745 0.950 . S
C721 C720 1.349 . S
C721 C737 1.349 . S
C722 C720 1.327 . S
C722 C741 1.429 . S
C722 H746 0.950 . S
C723 C740 1.574 . S
C723 C742 1.368 . S
C723 H747 0.949 . S
H724 C728 0.949 . S
C725 C726 1.349 . S
C725 C727 1.327 . S
C725 H748 0.950 . S
C726 C725 1.349 . S
C726 C738 1.349 . S
C727 C725 1.327 . S
C727 C743 1.429 . S
C727 H749 0.950 . S
C728 H724 0.949 . S
C728 C736 1.574 . S
C728 C744 1.368 . S
H729 C737 0.950 . S
H730 C735 0.950 1_455 S
H731 C736 0.949 1_655 S
H732 C738 0.950 . S
H733 C739 0.950 . S
H734 C740 0.949 . S
C735 H730 0.950 1_655 S
C735 C737 1.327 . S
C735 C741 1.429 . S
C736 C728 1.574 . S
C736 H731 0.949 1_455 S
C736 C742 1.368 . S
C737 C721 1.349 . S
C737 H729 0.950 . S
C737 C735 1.327 . S
C738 C726 1.349 . S
C738 H732 0.950 . S
C738 C739 1.327 . S
C739 H733 0.950 . S
C739 C738 1.327 . S
C739 C743 1.429 . S
C740 C723 1.574 . S
C740 H734 0.949 . S
C740 C744 1.368 . S
C741 C722 1.429 . S
C741 C735 1.429 . S
C741 C742 1.523 1_655 S
C742 C723 1.368 . S
C742 C736 1.368 . S
C742 C741 1.523 1_455 S
C743 C727 1.429 . S
C743 C739 1.429 . S
C743 C744 1.523 . S
C744 C728 1.368 . S
C744 C740 1.368 . S
C744 C743 1.523 . S
H745 C720 0.950 . S
H746 C722 0.950 . S
H747 C723 0.949 . S
H748 C725 0.950 . S
H749 C727 0.950 . S
C750 C751 1.349 . S
C750 C752 1.327 . S
C750 H775 0.950 . S
C751 C750 1.349 . S
C751 C767 1.349 1_565 S
C752 C750 1.327 . S
C752 C771 1.429 . S
C752 H776 0.950 . S
C753 C770 1.574 . S
C753 C772 1.368 . S
C753 H777 0.949 . S
H754 C758 0.949 . S
C755 C756 1.349 . S
C755 C757 1.327 . S
C755 H778 0.950 . S
C756 C755 1.349 . S
C756 C768 1.349 . S
C757 C755 1.327 . S
C757 C773 1.429 . S
C757 H779 0.950 . S
C758 H754 0.949 . S
C758 C766 1.574 . S
C758 C774 1.368 1_565 S
H759 C767 0.950 . S
H760 C765 0.950 . S
H761 C766 0.949 . S
H762 C768 0.950 . S
H763 C769 0.950 1_565 S
H764 C770 0.949 . S
C765 H760 0.950 . S
C765 C767 1.327 . S
C765 C771 1.429 1_545 S
C766 C758 1.574 . S
C766 H761 0.949 . S
C766 C772 1.368 1_565 S
C767 C751 1.349 1_545 S
C767 H759 0.950 . S
C767 C765 1.327 . S
C768 C756 1.349 . S
C768 H762 0.950 . S
C768 C769 1.327 . S
C769 H763 0.950 1_545 S
C769 C768 1.327 . S
C769 C773 1.429 . S
C770 C753 1.574 . S
C770 H764 0.949 . S
C770 C774 1.368 . S
C771 C752 1.429 . S
C771 C765 1.429 1_565 S
C771 C772 1.523 1_565 S
C772 C753 1.368 . S
C772 C766 1.368 1_545 S
C772 C771 1.523 1_545 S
C773 C757 1.429 . S
C773 C769 1.429 . S
C773 C774 1.523 . S
C774 C758 1.368 1_545 S
C774 C770 1.368 . S
C774 C773 1.523 . S
H775 C750 0.950 . S
H776 C752 0.950 . S
H777 C753 0.949 . S
H778 C755 0.950 . S
H779 C757 0.950 . S
C241 C130 1.101 1_566 S
C246 C10 1.101 1_556 S
C271 C170 1.102 . S
C276 C50 1.102 . S
C301 C210 1.101 . S
C306 C90 1.101 1_655 S
C331 C16 0.573 . S
C336 C87 0.543 . S
C361 C56 0.573 . S
C366 C127 0.542 . S
C391 C96 0.573 . S
C396 C167 0.543 . S
C421 C136 0.573 . S
C426 C207 0.543 . S
C451 C176 0.573 . S
C456 C7 0.543 . S
C481 C216 0.573 . S
C486 C47 0.543 . S
C511 C19 1.008 . S
C516 C139 1.008 . S
C541 C59 1.009 . S
C546 C179 1.009 . S
C571 C99 1.008 . S
C576 C219 1.008 . S
C601 C2 3.910 . S
C606 C51 3.964 . S
C631 C42 3.910 . S
C636 C91 3.964 . S
C661 C82 3.910 . S
C666 C131 3.964 . S
C691 C122 3.911 . S
C696 C171 3.965 . S
C721 C162 3.911 . S
C726 C211 3.965 . S
C751 C202 3.910 . S
C756 C11 3.964 . S
