# Generated by pormake.
# Topology und, (4)-cn, num edge types: 1
# Building blocks:
#     Node 0, Type 0, BuildingBlock: QUQFOY_clean_sbu_3, # of connection points: 4
#     Node 1, Type 0, BuildingBlock: QUQFOY_clean_sbu_3, # of connection points: 4
#     Node 2, Type 0, BuildingBlock: QUQFOY_clean_sbu_3, # of connection points: 4
#     Node 3, Type 0, BuildingBlock: QUQFOY_clean_sbu_3, # of connection points: 4
#     Node 4, Type 0, BuildingBlock: QUQFOY_clean_sbu_3, # of connection points: 4
#     Node 5, Type 0, BuildingBlock: QUQFOY_clean_sbu_3, # of connection points: 4
#     Node 6, Type 0, BuildingBlock: QUQFOY_clean_sbu_3, # of connection points: 4
#     Node 7, Type 0, BuildingBlock: QUQFOY_clean_sbu_3, # of connection points: 4
#     Node 8, Type 0, BuildingBlock: QUQFOY_clean_sbu_3, # of connection points: 4
#     Node 9, Type 0, BuildingBlock: QUQFOY_clean_sbu_3, # of connection points: 4
#     Node 10, Type 0, BuildingBlock: QUQFOY_clean_sbu_3, # of connection points: 4
#     Node 11, Type 0, BuildingBlock: QUQFOY_clean_sbu_3, # of connection points: 4
#     Node 12, Type 0, BuildingBlock: QUQFOY_clean_sbu_3, # of connection points: 4
#     Node 13, Type 0, BuildingBlock: QUQFOY_clean_sbu_3, # of connection points: 4
#     Node 14, Type 0, BuildingBlock: QUQFOY_clean_sbu_3, # of connection points: 4
#     Node 15, Type 0, BuildingBlock: QUQFOY_clean_sbu_3, # of connection points: 4
#     Edge 16, Type (0, 0), BuildingBlock: TEMPAE_clean_linker_10, # of connection points: 2
#     Edge 17, Type (0, 0), BuildingBlock: TEMPAE_clean_linker_10, # of connection points: 2
#     Edge 18, Type (0, 0), BuildingBlock: TEMPAE_clean_linker_10, # of connection points: 2
#     Edge 19, Type (0, 0), BuildingBlock: TEMPAE_clean_linker_10, # of connection points: 2
#     Edge 20, Type (0, 0), BuildingBlock: TEMPAE_clean_linker_10, # of connection points: 2
#     Edge 21, Type (0, 0), BuildingBlock: TEMPAE_clean_linker_10, # of connection points: 2
#     Edge 22, Type (0, 0), BuildingBlock: TEMPAE_clean_linker_10, # of connection points: 2
#     Edge 23, Type (0, 0), BuildingBlock: TEMPAE_clean_linker_10, # of connection points: 2
#     Edge 24, Type (0, 0), BuildingBlock: TEMPAE_clean_linker_10, # of connection points: 2
#     Edge 25, Type (0, 0), BuildingBlock: TEMPAE_clean_linker_10, # of connection points: 2
#     Edge 26, Type (0, 0), BuildingBlock: TEMPAE_clean_linker_10, # of connection points: 2
#     Edge 27, Type (0, 0), BuildingBlock: TEMPAE_clean_linker_10, # of connection points: 2
#     Edge 28, Type (0, 0), BuildingBlock: TEMPAE_clean_linker_10, # of connection points: 2
#     Edge 29, Type (0, 0), BuildingBlock: TEMPAE_clean_linker_10, # of connection points: 2
#     Edge 30, Type (0, 0), BuildingBlock: TEMPAE_clean_linker_10, # of connection points: 2
#     Edge 31, Type (0, 0), BuildingBlock: TEMPAE_clean_linker_10, # of connection points: 2
#     Edge 32, Type (0, 0), BuildingBlock: TEMPAE_clean_linker_10, # of connection points: 2
#     Edge 33, Type (0, 0), BuildingBlock: TEMPAE_clean_linker_10, # of connection points: 2
#     Edge 34, Type (0, 0), BuildingBlock: TEMPAE_clean_linker_10, # of connection points: 2
#     Edge 35, Type (0, 0), BuildingBlock: TEMPAE_clean_linker_10, # of connection points: 2
#     Edge 36, Type (0, 0), BuildingBlock: TEMPAE_clean_linker_10, # of connection points: 2
#     Edge 37, Type (0, 0), BuildingBlock: TEMPAE_clean_linker_10, # of connection points: 2
#     Edge 38, Type (0, 0), BuildingBlock: TEMPAE_clean_linker_10, # of connection points: 2
#     Edge 39, Type (0, 0), BuildingBlock: TEMPAE_clean_linker_10, # of connection points: 2
#     Edge 40, Type (0, 0), BuildingBlock: TEMPAE_clean_linker_10, # of connection points: 2
#     Edge 41, Type (0, 0), BuildingBlock: TEMPAE_clean_linker_10, # of connection points: 2
#     Edge 42, Type (0, 0), BuildingBlock: TEMPAE_clean_linker_10, # of connection points: 2
#     Edge 43, Type (0, 0), BuildingBlock: TEMPAE_clean_linker_10, # of connection points: 2
#     Edge 44, Type (0, 0), BuildingBlock: TEMPAE_clean_linker_10, # of connection points: 2
#     Edge 45, Type (0, 0), BuildingBlock: TEMPAE_clean_linker_10, # of connection points: 2
#     Edge 46, Type (0, 0), BuildingBlock: TEMPAE_clean_linker_10, # of connection points: 2
#     Edge 47, Type (0, 0), BuildingBlock: TEMPAE_clean_linker_10, # of connection points: 2
# Relax obj value: 0.006
# Max RMSD: 0.046
# Mean RMSD: 0.046
data_MOF--net-und--node1-QUQFOY_clean_sbu_3--edge1-TEMPAE_clean_linker_10
_symmetry_space_group_name_H-M    P1
_symmetry_Int_Tables_number       1
_symmetry_cell_setting            triclinic
loop_
_symmetry_equiv_pos_as_xyz
'x, y, z'
_cell_length_a     62.006483
_cell_length_b     62.004159
_cell_length_c     23.04298
_cell_angle_alpha  89.988569
_cell_angle_beta   90.005082
_cell_angle_gamma 95.209477
loop_
_atom_site_label
_atom_site_type_symbol
_atom_site_fract_x
_atom_site_fract_y
_atom_site_fract_z
_atom_type_partial_charge
C0 C 0.25056 0.3164 0.11777 0.0
O1 O 0.27003 0.32425 0.11101 0.0
Cd2 Cd 0.27932 0.34704 0.02808 0.0
O3 O 0.2355 0.32284 0.08667 0.0
Cd4 Cd 0.22715 0.34912 0.01353 0.0
C5 C 0.25087 0.31659 0.92191 0.0
O6 O 0.257 0.37654 0.02896 0.0
O7 O 0.23759 0.3796 0.95169 0.0
O8 O 0.20272 0.36016 0.08515 0.0
C9 C 0.25346 0.38691 0.98283 0.0
O10 O 0.26868 0.32314 0.94654 0.0
C11 C 0.18598 0.35876 0.05324 0.0
O12 O 0.23295 0.32316 0.93818 0.0
O13 O 0.18819 0.35234 0.00127 0.0
C14 C 0.93968 0.98597 0.14141 0.0
O15 O 0.93717 0.96702 0.16264 0.0
Cd16 Cd 0.9189 0.96057 0.25381 0.0
O17 O 0.93182 0.00171 0.16652 0.0
Cd18 Cd 0.9103 0.01124 0.24945 0.0
C19 C 0.95068 -0.00231 0.33534 0.0
O20 O 0.88604 0.9784 0.2537 0.0
O21 O 0.88469 0.00078 0.32554 0.0
O22 O 0.8907 0.03111 0.18143 0.0
C23 C 0.87736 0.98326 0.30134 0.0
O24 O 0.94517 0.97813 0.32099 0.0
C25 C 0.89401 0.04932 0.20648 0.0
O26 O 0.94098 0.01327 0.31505 0.0
O27 O 0.90519 0.05002 0.25282 0.0
C28 C 0.22446 0.69646 0.64183 0.0
O29 O 0.20551 0.69353 0.62067 0.0
Cd30 Cd 0.19888 0.67497 0.53004 0.0
O31 O 0.2404 0.6889 0.61683 0.0
Cd32 Cd 0.25028 0.66758 0.53354 0.0
C33 C 0.2351 0.70747 0.44756 0.0
O34 O 0.21778 0.64285 0.53015 0.0
O35 O 0.2401 0.64145 0.45824 0.0
O36 O 0.27129 0.64839 0.59994 0.0
C37 C 0.22256 0.63417 0.48247 0.0
O38 O 0.21568 0.70152 0.4624 0.0
C39 C 0.28928 0.65247 0.57419 0.0
O40 O 0.25102 0.69817 0.4675 0.0
O41 O 0.28932 0.66391 0.52837 0.0
C42 C 0.54715 0.02932 0.66511 0.0
O43 O 0.55549 0.04816 0.67812 0.0
Cd44 Cd 0.5809 0.05227 0.758 0.0
O45 O 0.55419 0.01259 0.68726 0.0
Cd46 Cd 0.582 0.00014 0.7495 0.0
C47 C 0.55201 0.01868 0.85591 0.0
O48 O 0.60969 0.03001 0.74152 0.0
O49 O 0.61293 0.00796 0.81304 0.0
O50 O 0.59264 0.97884 0.66954 0.0
C51 C 0.62041 0.0247 0.78542 0.0
O52 O 0.55983 0.03763 0.8413 0.0
C53 C 0.59087 0.96083 0.69611 0.0
O54 O 0.55639 0.00195 0.82774 0.0
O55 O 0.58435 0.96091 0.7485 0.0
C56 C 0.71912 0.69838 0.9169 0.0
O57 O 0.70061 0.68958 0.9313 0.0
Cd58 Cd 0.69801 0.66547 0.01409 0.0
O59 O 0.73629 0.69235 0.93922 0.0
Cd60 Cd 0.75125 0.66656 0.00328 0.0
C61 C 0.73166 0.69764 0.10606 0.0
O62 O 0.72224 0.63835 -0.00067 0.0
O63 O 0.74509 0.63584 0.06926 0.0
O64 O 0.77169 0.6558 0.92215 0.0
C65 C 0.72803 0.62807 0.04345 0.0
O66 O 0.71288 0.68889 0.09293 0.0
C67 C 0.79016 0.65898 0.94597 0.0
O68 O 0.74853 0.69327 0.07843 0.0
O69 O 0.79078 0.66627 -0.00233 0.0
C70 C 0.05241 0.02441 0.84156 0.0
O71 O 0.06126 0.04312 0.82926 0.0
Cd72 Cd 0.0886 0.04716 0.75413 0.0
O73 O 0.05963 0.00746 0.82113 0.0
Cd74 Cd 0.0882 -0.00593 0.7631 0.0
C75 C 0.06128 0.01413 0.65185 0.0
O76 O 0.11565 0.02353 0.77649 0.0
O77 O 0.1213 0.00147 0.70678 0.0
O78 O 0.09658 0.97188 0.84362 0.0
C79 C 0.12777 0.01832 0.7354 0.0
O80 O 0.06905 0.03296 0.66776 0.0
C81 C 0.09454 0.95403 0.81631 0.0
O82 O 0.06481 -0.00277 0.6805 0.0
O83 O 0.0889 0.95461 0.76326 0.0
C84 C 0.76333 0.31275 0.42271 0.0
O85 O 0.78176 0.32234 0.43464 0.0
Cd86 Cd 0.7846 0.34779 0.51453 0.0
O87 O 0.74622 0.31857 0.44586 0.0
Cd88 Cd 0.7317 0.34501 0.5087 0.0
C89 C 0.75348 0.31645 0.61326 0.0
O90 O 0.75968 0.3743 0.49867 0.0
O91 O 0.73768 0.37676 0.57062 0.0
O92 O 0.7093 0.35267 0.42815 0.0
C93 C 0.75396 0.38494 0.54223 0.0
O94 O 0.77185 0.32555 0.5978 0.0
C95 C 0.69146 0.35049 0.45547 0.0
O96 O 0.73615 0.31975 0.58631 0.0
O97 O 0.69217 0.34512 0.50873 0.0
C98 C 0.43297 0.99336 0.36531 0.0
O99 O 0.42921 0.97434 0.34515 0.0
Cd100 Cd 0.40841 0.96792 0.25775 0.0
O101 O 0.42522 0.00936 0.34108 0.0
Cd102 Cd 0.40246 0.01954 0.26127 0.0
C103 C 0.4398 0.003 0.16952 0.0
O104 O 0.37686 0.9877 0.26295 0.0
O105 O 0.37433 0.00982 0.191 0.0
O106 O 0.38617 0.04106 0.33212 0.0
C107 C 0.36712 0.99261 0.21694 0.0
O108 O 0.43371 0.98376 0.18561 0.0
C109 C 0.38924 0.05889 0.30505 0.0
O110 O 0.43145 0.01929 0.19071 0.0
O111 O 0.39884 0.05862 0.25631 0.0
C112 C 0.75467 0.81208 0.61543 0.0
O113 O 0.77406 0.8156 0.59763 0.0
Cd114 Cd 0.78306 0.83818 0.51475 0.0
O115 O 0.7394 0.82112 0.59135 0.0
Cd116 Cd 0.73114 0.84629 0.51505 0.0
C117 C 0.74784 0.81036 0.41886 0.0
O118 O 0.76398 0.86987 0.52346 0.0
O119 O 0.74334 0.87611 0.45094 0.0
O120 O 0.70955 0.86212 0.5867 0.0
C121 C 0.76069 0.88114 0.47892 0.0
O122 O 0.76696 0.81534 0.43772 0.0
C123 C 0.69198 0.86024 0.55817 0.0
O124 O 0.73159 0.81886 0.43979 0.0
O125 O 0.69242 0.85152 0.50825 0.0
C126 C 0.43666 0.48677 0.67462 0.0
O127 O 0.42799 0.46807 0.68773 0.0
Cd128 Cd 0.40389 0.46454 0.7705 0.0
O129 O 0.43041 0.50362 0.69816 0.0
Cd130 Cd 0.40383 0.51669 0.76329 0.0
C131 C 0.43518 0.49743 0.86524 0.0
O132 O 0.37534 0.48744 0.75823 0.0
O133 O 0.37397 0.50949 0.83059 0.0
O134 O 0.39315 0.53811 0.6836 0.0
C135 C 0.36559 0.49298 0.80358 0.0
O136 O 0.42665 0.47866 0.85127 0.0
C137 C 0.39491 0.55609 0.71033 0.0
O138 O 0.43075 0.51435 0.83802 0.0
O139 O 0.40146 0.55593 0.76269 0.0
C140 C 0.72992 0.19838 0.122 0.0
O141 O 0.7109 0.19458 0.10183 0.0
Cd142 Cd 0.70481 0.17379 0.01429 0.0
O143 O 0.74587 0.1904 0.09821 0.0
Cd144 Cd 0.75637 0.16705 0.02033 0.0
C145 C 0.74124 0.20479 0.92818 0.0
O146 O 0.72414 0.14195 0.02008 0.0
O147 O 0.74674 0.13894 0.94971 0.0
O148 O 0.77678 0.15139 0.09493 0.0
C149 C 0.72911 0.13219 0.97422 0.0
O150 O 0.72186 0.1989 0.94349 0.0
C151 C 0.79482 0.15337 0.06862 0.0
O152 O 0.75729 0.19617 0.94984 0.0
O153 O 0.79516 0.16197 0.01844 0.0
C154 C 0.04866 0.53482 0.13123 0.0
O155 O 0.05163 0.55264 0.15852 0.0
Cd156 Cd 0.07423 0.55641 0.24422 0.0
O157 O 0.05704 0.5181 0.14895 0.0
Cd158 Cd 0.07905 0.50533 0.22621 0.0
C159 C 0.04409 0.51968 0.32833 0.0
O160 O 0.10524 0.53663 0.23047 0.0
O161 O 0.10748 0.51281 0.29817 0.0
O162 O 0.09574 0.4844 0.15412 0.0
C163 C 0.11491 0.53056 0.2753 0.0
O164 O 0.05196 0.53917 0.32083 0.0
C165 C 0.09097 0.46613 0.17792 0.0
O166 O 0.0497 0.50436 0.29652 0.0
O167 O 0.08032 0.46593 0.22511 0.0
C168 C 0.2194 0.20118 0.41817 0.0
O169 O 0.20209 0.19683 0.44693 0.0
Cd170 Cd 0.20103 0.17257 0.52941 0.0
O171 O 0.23683 0.19334 0.43268 0.0
Cd172 Cd 0.25221 0.17047 0.50418 0.0
C173 C 0.23823 0.20283 0.61258 0.0
O174 O 0.22195 0.143 0.50751 0.0
O175 O 0.24699 0.14039 0.57179 0.0
O176 O 0.27213 0.15789 0.42373 0.0
C177 C 0.22922 0.13265 0.54969 0.0
O178 O 0.21892 0.19423 0.60636 0.0
C179 C 0.29067 0.16097 0.44718 0.0
O180 O 0.25331 0.19853 0.57813 0.0
O181 O 0.29149 0.16894 0.49807 0.0
C182 C 0.55186 0.52009 0.37517 0.0
O183 O 0.55609 0.53915 0.35559 0.0
Cd184 Cd 0.57823 0.54589 0.27054 0.0
O185 O 0.55979 0.50407 0.35163 0.0
Cd186 Cd 0.58342 0.49396 0.27387 0.0
C187 C 0.54782 0.51159 0.17833 0.0
O188 O 0.60934 0.52553 0.27767 0.0
O189 O 0.61252 0.50345 0.20612 0.0
O190 O 0.59944 0.47192 0.34408 0.0
C191 C 0.6195 0.52067 0.23238 0.0
O192 O 0.55392 0.53069 0.19547 0.0
C193 C 0.59565 0.45412 0.3172 0.0
O194 O 0.55558 0.49507 0.20012 0.0
O195 O 0.58576 0.45465 0.26892 0.0
C196 C 0.26015 0.80973 0.94249 0.0
O197 O 0.27881 0.81862 0.9552 0.0
Cd198 Cd 0.28274 0.84593 0.03021 0.0
O199 O 0.24311 0.81688 0.96263 0.0
Cd200 Cd 0.22963 0.84554 0.0205 0.0
C201 C 0.24938 0.81877 0.13232 0.0
O202 O 0.25917 0.8728 0.00644 0.0
O203 O 0.23724 0.87889 0.07602 0.0
O204 O 0.2077 0.8534 0.93898 0.0
C205 C 0.25407 0.88515 0.04706 0.0
O206 O 0.26823 0.82651 0.11647 0.0
C207 C 0.18983 0.85219 0.96619 0.0
O208 O 0.23251 0.82223 0.10345 0.0
O209 O 0.19025 0.84713 0.0197 0.0
C210 C 0.93446 0.49893 0.83092 0.0
O211 O 0.92602 0.47967 0.82424 0.0
Cd212 Cd 0.90159 0.47235 0.74372 0.0
O213 O 0.92753 0.51445 0.80259 0.0
Cd214 Cd 0.89958 0.52451 0.73641 0.0
C215 C 0.93032 0.50253 0.63734 0.0
O216 O 0.87231 0.49476 0.75262 0.0
O217 O 0.86767 0.51503 0.678 0.0
O218 O 0.89021 0.54705 0.81441 0.0
C219 C 0.86095 0.49882 0.70875 0.0
O220 O 0.92424 0.48439 0.66088 0.0
C221 C 0.89126 0.56465 0.78603 0.0
O222 O 0.92395 0.52019 0.65627 0.0
O223 O 0.89663 0.56383 0.73277 0.0
C224 C 0.25762 0.29761 0.21092 0.0
C225 C 0.24493 0.29939 0.16122 0.0
C226 C 0.25189 0.28165 0.25269 0.0
C227 C 0.23339 0.26688 0.24349 0.0
C228 C 0.22066 0.26851 0.19311 0.0
C229 C 0.22645 0.28492 0.15287 0.0
C230 C 0.26562 0.28055 0.30655 0.0
C231 C 0.20118 0.25268 0.18112 0.0
C232 C 0.23405 0.21362 0.3228 0.0
C233 C 0.22026 0.21659 0.36967 0.0
C234 C 0.23778 0.22955 0.28011 0.0
C235 C 0.2279 0.24913 0.28547 0.0
C236 C 0.21341 0.25196 0.3318 0.0
C237 C 0.20952 0.23545 0.37316 0.0
C238 C 0.25283 0.2257 0.23036 0.0
C239 C 0.20287 0.2728 0.33922 0.0
H240 H 0.27181 0.3089 0.21757 0.0
H241 H 0.21671 0.28616 0.11415 0.0
H242 H 0.25536 0.28118 0.34587 0.0
H243 H 0.27307 0.26495 0.30767 0.0
H244 H 0.27873 0.29398 0.30865 0.0
H245 H 0.19287 0.25637 0.14007 0.0
H246 H 0.20626 0.23601 0.17834 0.0
H247 H 0.1894 0.25286 0.21728 0.0
H248 H 0.24227 0.19893 0.32017 0.0
H249 H 0.19907 0.23779 0.40991 0.0
H250 H 0.26763 0.23711 0.23345 0.0
H251 H 0.24493 0.2288 0.18834 0.0
H252 H 0.25774 0.20891 0.23007 0.0
H253 H 0.21552 0.28633 0.347 0.0
H254 H 0.19128 0.27204 0.37607 0.0
H255 H 0.19415 0.27668 0.29906 0.0
C256 C 0.9674 0.01802 0.41942 0.0
C257 C 0.96852 0.00213 0.37669 0.0
C258 C 0.98338 0.02092 0.46242 0.0
C259 C 0.00114 0.00808 0.46114 0.0
C260 C 0.00288 0.99282 0.41615 0.0
C261 C 0.9863 0.98975 0.37494 0.0
C262 C 0.98073 0.03694 0.51069 0.0
C263 C 0.02192 0.97933 0.41245 0.0
C264 C 0.04973 0.02626 0.55453 0.0
C265 C 0.04664 0.01207 0.60169 0.0
C266 C 0.03528 0.02487 0.5076 0.0
C267 C 0.01702 0.00943 0.50921 0.0
C268 C 0.0138 -0.00484 0.55701 0.0
C269 C 0.02888 -0.00357 0.60232 0.0
C270 C 0.03953 0.03985 0.45639 0.0
C271 C -0.00579 0.97884 0.56087 0.0
H272 H 0.95353 0.02747 0.42072 0.0
H273 H 0.98721 0.97764 0.34131 0.0
H274 H 0.97875 0.02819 0.55266 0.0
H275 H -0.00458 0.04847 0.51436 0.0
H276 H 0.96648 0.04629 0.50394 0.0
H277 H 0.02198 0.96996 0.37136 0.0
H278 H 0.03735 0.98983 0.41569 0.0
H279 H 0.02144 0.96778 0.4493 0.0
H280 H 0.06356 0.03828 0.55413 0.0
H281 H 0.02638 0.98565 0.63926 0.0
H282 H 0.02612 0.05039 0.45161 0.0
H283 H 0.04013 0.03026 0.41585 0.0
H284 H 0.05498 0.05028 0.46085 0.0
H285 H 0.97919 0.98724 0.55783 0.0
H286 H -0.00621 0.96944 0.60197 0.0
H287 H -0.00588 0.96735 0.524 0.0
C288 C 0.21707 0.72853 0.70075 0.0
C289 C 0.22874 0.71047 0.69272 0.0
C290 C 0.22316 0.74385 0.74378 0.0
C291 C 0.2409 0.74059 0.78049 0.0
C292 C 0.25204 0.72181 0.77435 0.0
C293 C 0.24602 0.70711 0.72984 0.0
C294 C 0.21113 0.7639 0.7485 0.0
C295 C 0.27056 0.71748 0.814 0.0
C296 C 0.26881 0.79074 0.85148 0.0
C297 C 0.25761 0.79085 0.90409 0.0
C298 C 0.26387 0.77412 0.811 0.0
C299 C 0.24788 0.75706 0.82474 0.0
C300 C 0.23756 0.75651 0.87946 0.0
C301 C 0.2423 0.77365 0.91816 0.0
C302 C 0.27487 0.77541 0.7525 0.0
C303 C 0.22096 0.73824 0.89634 0.0
H304 H 0.20389 0.73125 0.67152 0.0
H305 H 0.25498 0.69306 0.72362 0.0
H306 H 0.20421 0.7651 0.79263 0.0
H307 H 0.22253 0.77855 0.74164 0.0
H308 H 0.19779 0.76402 0.71635 0.0
H309 H 0.27646 0.70135 0.80608 0.0
H310 H 0.28424 0.73006 0.80754 0.0
H311 H 0.26545 0.71838 0.86002 0.0
H312 H 0.28052 0.80421 0.84074 0.0
H313 H 0.2338 0.77379 0.95929 0.0
H314 H 0.26266 0.77733 0.71809 0.0
H315 H 0.28236 0.7602 0.7433 0.0
H316 H 0.28759 0.7892 0.74966 0.0
H317 H 0.20619 0.73892 0.86949 0.0
H318 H 0.21629 0.73904 0.94278 0.0
H319 H 0.22732 0.72237 0.88803 0.0
C320 C 0.45617 0.02213 0.0831 0.0
C321 C 0.45708 0.00632 0.12613 0.0
C322 C 0.472 0.02452 0.03961 0.0
C323 C 0.48943 0.01126 0.04075 0.0
C324 C 0.4908 -0.00418 0.08548 0.0
C325 C 0.47435 0.99327 0.12716 0.0
C326 C 0.46973 0.04072 0.99154 0.0
C327 C 0.50952 0.98189 0.08903 0.0
C328 C 0.51879 0.00074 0.90115 0.0
C329 C 0.5366 0.01627 0.9043 0.0
C330 C 0.50312 -0.00085 0.94504 0.0
C331 C 0.50581 0.01295 -0.00608 0.0
C332 C 0.5241 0.02828 -0.00201 0.0
C333 C 0.53914 0.03002 0.95246 0.0
C334 C 0.48351 0.98301 0.93857 0.0
C335 C 0.5278 0.04276 0.05041 0.0
H336 H 0.44267 0.0321 0.08236 0.0
H337 H 0.4751 0.98121 0.16101 0.0
H338 H 0.48431 0.05247 0.98973 0.0
H339 H 0.46848 0.03223 0.94912 0.0
H340 H 0.45524 0.04981 -0.0028 0.0
H341 H 0.50895 0.97183 0.129 0.0
H342 H 0.50933 0.97098 0.05087 0.0
H343 H 0.52511 0.99221 0.08814 0.0
H344 H 0.51676 0.9903 0.86342 0.0
H345 H 0.55303 0.04195 0.9548 0.0
H346 H 0.46852 0.99149 0.9408 0.0
H347 H 0.48286 0.97118 0.97477 0.0
H348 H 0.48356 0.97398 0.89694 0.0
H349 H 0.51439 0.05333 0.05474 0.0
H350 H 0.54333 0.05317 0.04782 0.0
H351 H 0.52789 0.03279 0.09039 0.0
C352 C 0.2615 0.8073 0.22971 0.0
C353 C 0.2473 0.80416 0.18257 0.0
C354 C 0.26026 0.79276 0.27646 0.0
C355 C 0.24498 0.77438 0.27468 0.0
C356 C 0.23065 0.77117 0.22702 0.0
C357 C 0.23176 0.78633 0.1819 0.0
C358 C 0.2753 0.79702 0.32755 0.0
C359 C 0.2145 0.75145 0.22299 0.0
C360 C 0.2547 0.72466 0.36291 0.0
C361 C 0.23898 0.7254 0.40623 0.0
C362 C 0.25713 0.74077 0.32014 0.0
C363 C 0.24399 0.75828 0.32226 0.0
C364 C 0.22887 0.75963 0.36776 0.0
C365 C 0.22627 0.74292 0.40872 0.0
C366 C 0.27302 0.73853 0.2713 0.0
C367 C 0.21508 0.77842 0.37239 0.0
H368 H 0.27345 0.82119 0.23016 0.0
H369 H 0.22097 0.7838 0.14499 0.0
H370 H 0.26579 0.79719 0.36832 0.0
H371 H 0.28615 0.78383 0.33149 0.0
H372 H 0.28542 0.81268 0.32353 0.0
H373 H 0.20492 0.75113 0.18222 0.0
H374 H 0.22308 0.73652 0.22515 0.0
H375 H 0.20316 0.75104 0.26026 0.0
H376 H 0.26442 0.71099 0.36104 0.0
H377 H 0.21428 0.74355 0.4428 0.0
H378 H 0.28442 0.75333 0.26798 0.0
H379 H 0.26415 0.73673 0.22948 0.0
H380 H 0.28252 0.72433 0.27716 0.0
H381 H 0.22536 0.794 0.36947 0.0
H382 H 0.20579 0.77815 0.41365 0.0
H383 H 0.20345 0.77795 0.33574 0.0
C384 C 0.44474 0.01473 0.45261 0.0
C385 C 0.44775 -0.00238 0.41462 0.0
C386 C 0.45991 0.02062 0.49611 0.0
C387 C 0.47879 0.00953 0.50032 0.0
C388 C 0.48177 0.99205 0.46245 0.0
C389 C 0.466 0.98608 0.42046 0.0
C390 C 0.45586 0.03884 0.53705 0.0
C391 C 0.50193 0.98011 0.46511 0.0
C392 C 0.52866 0.03757 0.57273 0.0
C393 C 0.52874 0.02622 0.62513 0.0
C394 C 0.51229 0.03245 0.5316 0.0
C395 C 0.49545 0.01612 0.54443 0.0
C396 C 0.49497 0.00545 0.59868 0.0
C397 C 0.51184 0.01041 0.63804 0.0
C398 C 0.5135 0.04382 0.4736 0.0
C399 C 0.47692 0.98846 0.61462 0.0
H400 H 0.43055 0.02359 0.44804 0.0
H401 H 0.46842 0.97304 0.39047 0.0
H402 H 0.45679 0.03328 0.58269 0.0
H403 H 0.46855 0.05246 0.53128 0.0
H404 H 0.43979 0.04498 0.5299 0.0
H405 H 0.50189 0.96711 0.43193 0.0
H406 H 0.51647 0.99165 0.45836 0.0
H407 H 0.50346 0.97275 0.50862 0.0
H408 H 0.54189 0.04966 0.56286 0.0
H409 H 0.51193 0.00179 0.67901 0.0
H410 H 0.49832 0.05149 0.46522 0.0
H411 H 0.51519 0.03183 0.43852 0.0
H412 H 0.52735 0.05647 0.47102 0.0
H413 H 0.46096 -0.00517 0.60784 0.0
H414 H 0.47801 0.9831 0.66045 0.0
H415 H 0.47752 0.97412 0.58609 0.0
C416 C 0.23117 0.21654 0.71131 0.0
C417 C 0.24276 0.21876 0.65919 0.0
C418 C 0.23408 0.23233 0.75466 0.0
C419 C 0.24843 0.25104 0.7447 0.0
C420 C 0.26045 0.2532 0.69246 0.0
C421 C 0.25768 0.23681 0.6505 0.0
C422 C 0.22145 0.22922 0.81056 0.0
C423 C 0.27551 0.27318 0.67993 0.0
C424 C 0.23539 0.30011 0.83086 0.0
C425 C 0.25097 0.30058 0.87489 0.0
C426 C 0.23494 0.28453 0.78679 0.0
C427 C 0.25004 0.26873 0.78803 0.0
C428 C 0.26591 0.26923 0.83222 0.0
C429 C 0.26637 0.28538 0.8748 0.0
C430 C 0.21812 0.28478 0.73944 0.0
C431 C 0.28189 0.25228 0.83566 0.0
H432 H 0.21977 0.20245 0.71808 0.0
H433 H 0.26649 0.23856 0.60987 0.0
H434 H 0.23255 0.23131 0.84833 0.0
H435 H 0.20976 0.24166 0.81412 0.0
H436 H 0.21236 0.21297 0.81329 0.0
H437 H 0.28428 0.27195 0.63819 0.0
H438 H 0.26609 0.28756 0.67811 0.0
H439 H 0.28755 0.27603 0.71531 0.0
H440 H 0.22362 0.31202 0.83071 0.0
H441 H 0.27833 0.28567 0.90918 0.0
H442 H 0.20668 0.26999 0.74234 0.0
H443 H 0.22598 0.28468 0.6962 0.0
H444 H 0.20871 0.29916 0.74228 0.0
H445 H 0.27306 0.23608 0.84215 0.0
H446 H 0.29364 0.2554 0.87174 0.0
H447 H 0.291 0.25167 0.79437 0.0
C448 C 0.03311 0.03259 0.93254 0.0
C449 C 0.03342 0.02166 0.87957 0.0
C450 C 0.01648 0.02726 0.97275 0.0
C451 C -0.00037 0.01113 0.95842 0.0
C452 C -0.00077 0.00112 0.90328 0.0
C453 C 0.01637 0.00627 0.86483 0.0
C454 C 0.01758 0.03797 0.03164 0.0
C455 C 0.98119 0.98438 0.88578 0.0
C456 C 0.97174 0.97926 0.08158 0.0
C457 C 0.95348 0.99057 0.09026 0.0
C458 C 0.98689 0.98578 0.0385 0.0
C459 C 0.98328 0.00361 0.00247 0.0
C460 C 0.96429 0.01437 0.00918 0.0
C461 C 0.94973 0.0079 0.05367 0.0
C462 C 0.00716 0.97412 0.03306 0.0
C463 C 0.95959 0.03298 0.97026 0.0
H464 H 0.04647 0.04436 0.94379 0.0
H465 H 0.01664 -0.00202 0.82341 0.0
H466 H 0.00221 0.0451 0.0412 0.0
H467 H 0.01975 0.02565 0.06559 0.0
H468 H 0.03114 0.05091 0.03486 0.0
H469 H 0.98202 0.98005 0.8391 0.0
H470 H 0.98213 0.96946 0.91186 0.0
H471 H 0.9652 0.99041 0.89458 0.0
H472 H 0.97474 0.96603 0.11038 0.0
H473 H 0.93552 0.01658 0.06038 0.0
H474 H 0.02164 0.98569 0.04035 0.0
H475 H 0.00844 0.96752 0.9886 0.0
H476 H 0.0075 0.9606 0.06458 0.0
H477 H 0.9719 0.04685 0.9773 0.0
H478 H 0.9433 0.03849 0.97841 0.0
H479 H 0.96061 0.02816 0.92404 0.0
C480 C 0.71023 0.71518 0.82258 0.0
C481 C 0.72135 0.71634 0.87541 0.0
C482 C 0.7148 0.73116 0.78005 0.0
C483 C 0.73034 0.74882 0.79189 0.0
C484 C 0.7407 0.75054 0.84653 0.0
C485 C 0.7363 0.73407 0.88735 0.0
C486 C 0.70379 0.72867 0.72172 0.0
C487 C 0.75689 0.76945 0.86134 0.0
C488 C 0.76099 0.77845 0.6693 0.0
C489 C 0.74925 0.79652 0.66243 0.0
C490 C 0.75466 0.76249 0.71049 0.0
C491 C 0.73656 0.76508 0.74649 0.0
C492 C 0.72497 0.78357 0.74058 0.0
C493 C 0.7313 0.79896 0.69799 0.0
C494 C 0.76717 0.74276 0.71506 0.0
C495 C 0.70602 0.78716 0.77947 0.0
H496 H 0.69882 0.70129 0.81351 0.0
H497 H 0.74475 0.73493 0.92864 0.0
H498 H 0.69577 0.74343 0.71094 0.0
H499 H 0.71607 0.72668 0.68755 0.0
H500 H 0.6915 0.71447 0.7203 0.0
H501 H 0.76205 0.76923 0.90749 0.0
H502 H 0.77146 0.76907 0.83356 0.0
H503 H 0.74986 0.78496 0.8526 0.0
H504 H 0.77469 0.77645 0.6412 0.0
H505 H 0.72227 0.81301 0.69268 0.0
H506 H 0.75603 0.72784 0.70972 0.0
H507 H 0.7746 0.74205 0.75871 0.0
H508 H 0.78019 0.74274 0.68196 0.0
H509 H 0.69323 0.77356 0.77487 0.0
H510 H 0.69887 0.80253 0.76947 0.0
H511 H 0.71127 0.78754 0.82552 0.0
C512 C 0.77214 0.29514 0.32948 0.0
C513 C 0.7611 0.29439 0.38243 0.0
C514 C 0.76756 0.27881 0.28794 0.0
C515 C 0.75209 0.2612 0.30085 0.0
C516 C 0.74182 0.25988 0.35564 0.0
C517 C 0.74623 0.27669 0.39549 0.0
C518 C 0.77851 0.28087 0.22943 0.0
C519 C 0.72574 0.24105 0.37161 0.0
C520 C 0.72209 0.23112 0.17782 0.0
C521 C 0.73423 0.21335 0.17093 0.0
C522 C 0.72789 0.24699 0.2197 0.0
C523 C 0.74588 0.24459 0.2563 0.0
C524 C 0.75769 0.22624 0.25088 0.0
C525 C 0.75188 0.21095 0.20764 0.0
C526 C 0.71514 0.26656 0.2238 0.0
C527 C 0.77652 0.22285 0.29038 0.0
H528 H 0.7835 0.30899 0.3195 0.0
H529 H 0.73786 0.27613 0.43686 0.0
H530 H 0.78667 0.26609 0.21968 0.0
H531 H 0.76617 0.28241 0.19514 0.0
H532 H 0.79067 0.29514 0.22704 0.0
H533 H 0.72067 0.24158 0.41779 0.0
H534 H 0.7111 0.24117 0.34395 0.0
H535 H 0.7328 0.2255 0.36362 0.0
H536 H 0.70862 0.23309 0.14887 0.0
H537 H 0.76123 0.19712 0.20233 0.0
H538 H 0.72608 0.28154 0.2172 0.0
H539 H 0.70797 0.26754 0.26771 0.0
H540 H 0.7019 0.26618 0.19123 0.0
H541 H 0.78949 0.23622 0.28462 0.0
H542 H 0.78345 0.20725 0.28186 0.0
H543 H 0.77128 0.22313 0.3364 0.0
C544 C 0.76093 0.22127 0.84265 0.0
C545 C 0.74493 0.22217 0.88518 0.0
C546 C 0.76337 0.23702 0.7989 0.0
C547 C 0.74993 0.25431 0.79924 0.0
C548 C 0.73442 0.25575 0.84374 0.0
C549 C 0.73186 0.23943 0.88571 0.0
C550 C 0.77967 0.23471 0.75114 0.0
C551 C 0.72025 0.27431 0.8464 0.0
C552 C 0.76664 0.30398 0.70851 0.0
C553 C 0.75246 0.30087 0.66134 0.0
C554 C 0.76591 0.28901 0.75419 0.0
C555 C 0.75116 0.27024 0.75131 0.0
C556 C 0.73708 0.26687 0.70316 0.0
C557 C 0.73767 0.28244 0.65911 0.0
C558 C 0.78067 0.2934 0.8058 0.0
C559 C 0.72151 0.24676 0.69798 0.0
H560 H 0.77093 0.20781 0.84232 0.0
H561 H 0.71966 0.24018 0.91919 0.0
H562 H 0.77114 0.23253 0.70891 0.0
H563 H 0.7909 0.24962 0.74775 0.0
H564 H 0.78932 0.2207 0.75829 0.0
H565 H 0.71041 0.27403 0.88673 0.0
H566 H 0.73034 0.29001 0.84398 0.0
H567 H 0.7091 0.27354 0.80865 0.0
H568 H 0.77801 0.31833 0.71012 0.0
H569 H 0.72692 0.27995 0.62212 0.0
H570 H 0.79127 0.28007 0.81117 0.0
H571 H 0.77087 0.29401 0.84597 0.0
H572 H 0.79103 0.3089 0.80152 0.0
H573 H 0.73043 0.23209 0.7016 0.0
H574 H 0.71253 0.24609 0.6562 0.0
H575 H 0.7096 0.24619 0.73398 0.0
C576 C 0.74896 0.73191 0.14742 0.0
C577 C 0.73371 0.71392 0.15243 0.0
C578 C 0.75051 0.74808 0.19 0.0
C579 C 0.73696 0.74575 0.23943 0.0
C580 C 0.72172 0.72744 0.24502 0.0
C581 C 0.72003 0.71187 0.20082 0.0
C582 C 0.76655 0.76769 0.18196 0.0
C583 C 0.70748 0.72414 0.29803 0.0
C584 C 0.75763 0.77648 0.37282 0.0
C585 C 0.7446 0.79378 0.37345 0.0
C586 C 0.75491 0.76043 0.33016 0.0
C587 C 0.73926 0.76216 0.28617 0.0
C588 C 0.72613 0.77969 0.28637 0.0
C589 C 0.72873 0.79517 0.33077 0.0
C590 C 0.76877 0.74162 0.33221 0.0
C591 C 0.70969 0.78231 0.23913 0.0
H592 H 0.75932 0.73359 0.10947 0.0
H593 H 0.7083 0.69787 0.20459 0.0
H594 H 0.75815 0.7827 0.18507 0.0
H595 H 0.77887 0.76833 0.21696 0.0
H596 H 0.77501 0.76758 0.13946 0.0
H597 H 0.69663 0.70889 0.29584 0.0
H598 H 0.71769 0.72372 0.33751 0.0
H599 H 0.69739 0.7379 0.30303 0.0
H600 H 0.76974 0.77532 0.40636 0.0
H601 H 0.71877 0.80867 0.33127 0.0
H602 H 0.77914 0.7417 0.29298 0.0
H603 H 0.75835 0.72609 0.3323 0.0
H604 H 0.77937 0.74212 0.37115 0.0
H605 H 0.71789 0.7834 0.19627 0.0
H606 H 0.70094 0.797 0.24536 0.0
H607 H 0.69767 0.76794 0.23786 0.0
C608 C 0.51409 0.52219 0.13315 0.0
C609 C 0.53101 0.5087 0.1335 0.0
C610 C 0.49791 0.51985 0.09073 0.0
C611 C 0.49917 0.50414 0.04668 0.0
C612 C 0.51632 0.49053 0.04666 0.0
C613 C 0.5319 0.49274 0.09087 0.0
C614 C 0.47948 0.53419 0.09307 0.0
C615 C 0.51847 0.47403 -0.00069 0.0
C616 C 0.44879 0.48581 0.96067 0.0
C617 C 0.45123 0.49939 0.91215 0.0
C618 C 0.46419 0.48734 0.0053 0.0
C619 C 0.48274 0.50228 -2e-05 0.0
C620 C 0.48542 0.51579 0.9505 0.0
C621 C 0.4694 0.51443 0.90752 0.0
C622 C 0.4605 0.47318 0.05837 0.0
C623 C 0.5053 0.53149 0.9427 0.0
H624 H 0.51335 0.53437 0.16667 0.0
H625 H 0.54512 0.48243 0.09117 0.0
H626 H 0.4798 0.54465 0.05399 0.0
H627 H 0.46374 0.52411 0.09306 0.0
H628 H 0.48026 0.54471 0.13217 0.0
H629 H 0.53291 0.46489 0.00537 0.0
H630 H 0.50384 0.46234 -0.00191 0.0
H631 H 0.51972 0.48225 0.95649 0.0
H632 H 0.43463 0.47425 0.96412 0.0
H633 H 0.47135 0.52472 0.86947 0.0
H634 H 0.46044 0.48342 0.09785 0.0
H635 H 0.4739 0.46263 0.06327 0.0
H636 H 0.44496 0.46277 0.05627 0.0
H637 H 0.50621 0.54373 0.97792 0.0
H638 H 0.50536 0.54007 0.90035 0.0
H639 H 0.52011 0.52275 0.94561 0.0
C640 C 0.02919 0.52683 0.42562 0.0
C641 C 0.02772 0.51506 0.37374 0.0
C642 C 0.01322 0.52342 0.46837 0.0
C643 C -0.00495 0.50842 0.45791 0.0
C644 C -0.00647 0.49642 0.4056 0.0
C645 C 0.01013 0.49965 0.36436 0.0
C646 C 0.01569 0.53604 0.52443 0.0
C647 C 0.97409 0.48071 0.39247 0.0
C648 C 0.96175 0.48842 0.58798 0.0
C649 C 0.9459 0.50314 0.58922 0.0
C650 C 0.97776 0.48976 0.54494 0.0
C651 C 0.97742 0.50579 0.50135 0.0
C652 C 0.9609 0.52013 0.5011 0.0
C653 C 0.94551 0.51886 0.54574 0.0
C654 C -0.00451 0.47462 0.54747 0.0
C655 C 0.95973 0.53704 0.45431 0.0
H656 H 0.04293 0.53863 0.43287 0.0
H657 H 0.00896 0.49072 0.32385 0.0
H658 H 0.00257 0.54697 0.52828 0.0
H659 H 0.01422 0.5248 0.56202 0.0
H660 H 0.03151 0.54595 0.52726 0.0
H661 H 0.97557 0.47243 0.35009 0.0
H662 H 0.97188 0.46826 0.42704 0.0
H663 H 0.95925 0.48946 0.39176 0.0
H664 H 0.96213 0.47638 0.62201 0.0
H665 H 0.9331 0.53011 0.54657 0.0
H666 H 0.01135 0.48412 0.55407 0.0
H667 H -0.00355 0.4658 0.50583 0.0
H668 H 0.99298 0.46259 0.58314 0.0
H669 H 0.97395 0.54919 0.45754 0.0
H670 H 0.9448 0.5456 0.45756 0.0
H671 H 0.96024 0.52943 0.4108 0.0
C672 C 0.01495 0.54309 0.0805 0.0
C673 C 0.03391 0.53246 0.08132 0.0
C674 C -0.00099 0.53797 0.03828 0.0
C675 C 0.00251 0.52229 -0.0046 0.0
C676 C 0.02218 0.51242 -0.00571 0.0
C677 C 0.03755 0.51743 0.03781 0.0
C678 C 0.97806 0.54857 0.04114 0.0
C679 C 0.02672 0.49611 0.94821 0.0
C680 C 0.95394 0.49189 0.92289 0.0
C681 C 0.95239 0.50393 0.87194 0.0
C682 C 0.97014 0.49781 0.96386 0.0
C683 C 0.98536 0.51578 0.95252 0.0
C684 C 0.98423 0.52752 0.90023 0.0
C685 C 0.96757 0.5216 0.86086 0.0
C686 C 0.97072 0.48515 0.01973 0.0
C687 C 0.00056 0.54636 0.88595 0.0
H688 H 0.01207 0.5545 0.11465 0.0
H689 H 0.0523 0.50928 0.03847 0.0
H690 H 0.97495 0.55652 -0.00077 0.0
H691 H 0.96438 0.53606 0.04879 0.0
H692 H 0.97814 0.56085 0.07626 0.0
H693 H 0.04351 0.49125 0.9509 0.0
H694 H 0.01527 0.4814 0.95288 0.0
H695 H 0.02421 0.50287 0.90439 0.0
H696 H 0.94209 0.47832 0.93152 0.0
H697 H 0.96648 0.53078 0.82106 0.0
H698 H 0.96927 0.49612 0.05729 0.0
H699 H 0.98646 0.4781 0.02393 0.0
H700 H 0.9575 0.47183 0.02223 0.0
H701 H -0.00029 0.55936 0.91868 0.0
H702 H -0.00214 0.55324 0.8423 0.0
H703 H 0.0172 0.54113 0.8876 0.0
C704 C 0.45418 0.47818 0.581 0.0
C705 C 0.45472 0.48955 0.63344 0.0
C706 C 0.47043 0.48282 0.53924 0.0
C707 C 0.48778 0.49867 0.55148 0.0
C708 C 0.48881 0.50942 0.60563 0.0
C709 C 0.47206 0.50495 0.64562 0.0
C710 C 0.46864 0.4714 0.48136 0.0
C711 C 0.50739 0.52591 0.62094 0.0
C712 C 0.53864 0.49847 0.46081 0.0
C713 C 0.53643 0.51587 0.42311 0.0
C714 C 0.52306 0.49287 0.50346 0.0
C715 C 0.50457 0.50457 0.50716 0.0
C716 C 0.5023 0.52223 0.46931 0.0
C717 C 0.51848 0.52789 0.42815 0.0
C718 C 0.52633 0.47441 0.54436 0.0
C719 C 0.48258 0.53482 0.47145 0.0
H720 H 0.44061 0.4664 0.5717 0.0
H721 H 0.47248 0.51357 0.68662 0.0
H722 H 0.46732 0.48345 0.4462 0.0
H723 H 0.48344 0.46313 0.47279 0.0
H724 H 0.45435 0.45924 0.47913 0.0
H725 H 0.50653 0.53156 0.66656 0.0
H726 H 0.52306 0.51892 0.61444 0.0
H727 H 0.5073 0.54015 0.59185 0.0
H728 H 0.5526 0.48923 0.45685 0.0
H729 H 0.51666 0.54114 0.39837 0.0
H730 H 0.51302 0.46135 0.53902 0.0
H731 H 0.52584 0.48008 0.58997 0.0
H732 H 0.54199 0.46746 0.5369 0.0
H733 H 0.46772 0.52368 0.46509 0.0
H734 H 0.48302 0.54769 0.43781 0.0
H735 H 0.4813 0.54245 0.51468 0.0
C736 C 0.11614 0.44834 0.11401 0.0
C737 C 0.09897 0.44638 0.15366 0.0
C738 C 0.12612 0.43019 0.09593 0.0
C739 C 0.11833 0.40945 0.11685 0.0
C740 C 0.09985 0.40713 0.15312 0.0
C741 C 0.09057 0.42574 0.17203 0.0
C742 C 0.146 0.43347 0.05781 0.0
C743 C 0.09052 0.38523 0.17442 0.0
C744 C 0.14783 0.36787 0.03768 0.0
C745 C 0.16572 0.36678 0.07444 0.0
C746 C 0.1306 0.37979 0.05395 0.0
C747 C 0.13172 0.39116 0.10728 0.0
C748 C 0.14863 0.38819 0.14686 0.0
C749 C 0.16532 0.37582 0.13013 0.0
C750 C 0.11217 0.38169 0.01207 0.0
C751 C 0.15045 0.39997 0.2043 0.0
H752 H 0.1226 0.46426 0.09945 0.0
H753 H 0.07704 0.42415 0.20201 0.0
H754 H 0.16033 0.42872 0.0819 0.0
H755 H 0.14402 0.42306 0.01872 0.0
H756 H 0.14937 0.45056 0.04352 0.0
H757 H 0.07315 0.3854 0.18603 0.0
H758 H 0.09216 0.37249 0.14129 0.0
H759 H 0.09936 0.3808 0.21387 0.0
H760 H 0.14783 0.36049 -0.00496 0.0
H761 H 0.17888 0.37463 0.15931 0.0
H762 H 0.11493 0.3971 0.98764 0.0
H763 H 0.09656 0.38189 0.03559 0.0
H764 H 0.11084 0.36815 0.98032 0.0
H765 H 0.15417 0.41759 0.19643 0.0
H766 H 0.1634 0.39429 0.23225 0.0
H767 H 0.13492 0.3978 0.22826 0.0
C768 C 0.77226 0.91143 0.41159 0.0
C769 C 0.77729 0.89758 0.45671 0.0
C770 C 0.78819 0.92622 0.38745 0.0
C771 C 0.80966 0.92694 0.4086 0.0
C772 C 0.81476 0.9133 0.45491 0.0
C773 C 0.79844 0.89883 0.4787 0.0
C774 C 0.78215 0.94076 0.3386 0.0
C775 C 0.83754 0.91356 0.47824 0.0
C776 C 0.85472 0.94796 0.30687 0.0
C777 C 0.85992 0.96893 0.32835 0.0
C778 C 0.83842 0.93408 0.33283 0.0
C779 C 0.82696 0.94147 0.38093 0.0
C780 C 0.83201 0.96268 0.40251 0.0
C781 C 0.84854 0.97614 0.37609 0.0
C782 C 0.83355 0.91146 0.30902 0.0
C783 C 0.81993 0.97114 0.45337 0.0
H784 H 0.75588 0.91059 0.39474 0.0
H785 H 0.80239 0.8881 0.51349 0.0
H786 H 0.78703 0.95795 0.34947 0.0
H787 H 0.79096 0.93693 0.29855 0.0
H788 H 0.7645 0.93897 0.32929 0.0
H789 H 0.83866 0.90238 0.51558 0.0
H790 H 0.84855 0.9088 0.44346 0.0
H791 H 0.84348 0.93016 0.49223 0.0
H792 H 0.86355 0.94231 0.27011 0.0
H793 H 0.85246 0.99238 0.39269 0.0
H794 H 0.81642 0.90905 0.29471 0.0
H795 H 0.83575 0.89937 0.34353 0.0
H796 H 0.84412 0.90816 0.27173 0.0
H797 H 0.80236 0.97032 0.44349 0.0
H798 H 0.82568 0.98814 0.46437 0.0
H799 H 0.82187 0.96086 0.49209 0.0
C800 C 0.30677 0.62687 0.63761 0.0
C801 C 0.30888 0.6432 0.59547 0.0
C802 C 0.32459 0.61622 0.65498 0.0
C803 C 0.34517 0.62234 0.63043 0.0
C804 C 0.34771 0.63971 0.59043 0.0
C805 C 0.3294 0.6498 0.57273 0.0
C806 C 0.3211 0.59761 0.69739 0.0
C807 C 0.36951 0.6471 0.56466 0.0
C808 C 0.38697 0.59494 0.71473 0.0
C809 C 0.38706 0.57553 0.68353 0.0
C810 C 0.37525 0.61175 0.6944 0.0
C811 C 0.36312 0.60875 0.64253 0.0
C812 C 0.36501 0.59013 0.60812 0.0
C813 C 0.37714 0.57381 0.62886 0.0
C814 C 0.37431 0.63182 0.73097 0.0
C815 C 0.35233 0.58627 0.55251 0.0
H816 H 0.29096 0.62176 0.65552 0.0
H817 H 0.33112 0.66261 0.54059 0.0
H818 H 0.32492 0.58236 0.67611 0.0
H819 H 0.33211 0.60034 0.73512 0.0
H820 H 0.30418 0.59537 0.71367 0.0
H821 H 0.36973 0.66363 0.54591 0.0
H822 H 0.3825 0.64701 0.59776 0.0
H823 H 0.37331 0.63584 0.52948 0.0
H824 H 0.39498 0.59653 0.75652 0.0
H825 H 0.37747 0.55901 0.60397 0.0
H826 H 0.35905 0.63052 0.7564 0.0
H827 H 0.37439 0.64647 0.70327 0.0
H828 H 0.3881 0.63393 0.76185 0.0
H829 H 0.33489 0.58276 0.56296 0.0
H830 H 0.35768 0.57242 0.52741 0.0
H831 H 0.35397 0.6009 0.52464 0.0
C832 C 0.69293 0.11124 0.9672 0.0
C833 C 0.71435 0.11497 0.94778 0.0
C834 C 0.6784 0.09582 0.93998 0.0
C835 C 0.68558 0.08374 0.89276 0.0
C836 C 0.70734 0.08705 0.87396 0.0
C837 C 0.72146 0.10274 0.90155 0.0
C838 C 0.65523 0.09279 0.96091 0.0
C839 C 0.7156 0.07424 0.82421 0.0
C840 C 0.65083 0.03223 0.85533 0.0
C841 C 0.63845 0.03917 0.80916 0.0
C842 C 0.66672 0.04642 0.88193 0.0
C843 C 0.67011 0.06805 0.86214 0.0
C844 C 0.65809 0.07497 0.81449 0.0
C845 C 0.64245 0.06038 0.78831 0.0
C846 C 0.67947 0.03842 0.93216 0.0
C847 C 0.66122 0.09799 0.79244 0.0
H848 H 0.68738 0.12071 0.00282 0.0
H849 H 0.73807 0.10551 0.88664 0.0
H850 H 0.64414 0.09667 0.92535 0.0
H851 H 0.65094 0.07565 0.97324 0.0
H852 H 0.65235 0.10322 -0.00119 0.0
H853 H 0.73322 0.07809 0.81668 0.0
H854 H 0.71246 0.05663 0.83286 0.0
H855 H 0.70681 0.07771 0.78382 0.0
H856 H 0.64786 0.01579 0.87135 0.0
H857 H 0.63288 0.06582 0.7527 0.0
H858 H 0.67563 0.04715 0.97234 0.0
H859 H 0.69709 0.04184 0.92415 0.0
H860 H 0.67588 0.02076 0.93971 0.0
H861 H 0.65691 0.10928 0.82705 0.0
H862 H 0.65114 0.10055 0.7536 0.0
H863 H 0.67846 0.10232 0.78121 0.0
C864 C 0.13612 0.56642 0.28675 0.0
C865 C 0.13212 0.54473 0.30381 0.0
C866 C 0.1514 0.58047 0.31606 0.0
C867 C 0.16309 0.57252 0.36298 0.0
C868 C 0.15954 0.5505 0.37942 0.0
C869 C 0.14398 0.53687 0.34978 0.0
C870 C 0.15467 0.60392 0.29764 0.0
C871 C 0.17196 0.54143 0.42878 0.0
C872 C 0.21468 0.60605 0.40623 0.0
C873 C 0.20768 0.61753 0.45405 0.0
C874 C 0.20045 0.59091 0.37697 0.0
C875 C 0.17869 0.58744 0.39565 0.0
C876 C 0.17161 0.59874 0.44442 0.0
C877 C 0.18626 0.61358 0.47332 0.0
C878 C 0.2086 0.57891 0.32555 0.0
C879 C 0.14843 0.59555 0.46519 0.0
H880 H 0.12694 0.57257 0.25139 0.0
H881 H 0.14099 0.52004 0.36292 0.0
H882 H 0.15063 0.6145 0.33417 0.0
H883 H 0.1719 0.6083 0.28637 0.0
H884 H 0.1445 0.60743 0.2597 0.0
H885 H 0.16795 0.52372 0.43439 0.0
H886 H 0.18963 0.54456 0.42111 0.0
H887 H 0.16828 0.54965 0.46989 0.0
H888 H 0.23128 0.60896 0.39144 0.0
H889 H 0.18077 0.62248 0.51018 0.0
H890 H 0.19992 0.58325 0.28571 0.0
H891 H 0.20523 0.56119 0.33187 0.0
H892 H 0.22626 0.58267 0.31846 0.0
H893 H 0.13741 0.60027 0.4304 0.0
H894 H 0.14566 0.60523 0.50461 0.0
H895 H 0.14394 0.57821 0.47502 0.0
C896 C 0.59583 0.92118 0.6968 0.0
C897 C 0.59851 0.94136 0.66902 0.0
C898 C 0.60659 0.90371 0.67632 0.0
C899 C 0.62074 0.90685 0.62825 0.0
C900 C 0.62198 0.92664 0.59729 0.0
C901 C 0.61063 0.94356 0.61769 0.0
C902 C 0.60409 0.88249 0.70873 0.0
C903 C 0.63702 0.93076 0.54605 0.0
C904 C 0.67457 0.88334 0.62872 0.0
C905 C 0.67253 0.86937 0.58088 0.0
C906 C 0.6573 0.89468 0.64671 0.0
C907 C 0.63729 0.89157 0.61695 0.0
C908 C 0.63454 0.87614 0.57167 0.0
C909 C 0.65237 0.86541 0.55347 0.0
C910 C 0.66103 0.91116 0.69488 0.0
C911 C 0.6132 0.87178 0.5405 0.0
H912 H 0.58612 0.91928 0.7359 0.0
H913 H 0.61254 0.95905 0.59557 0.0
H914 H 0.6039 0.8686 0.67829 0.0
H915 H 0.61802 0.88156 0.73854 0.0
H916 H 0.589 0.88087 0.73499 0.0
H917 H 0.63459 0.94623 0.52367 0.0
H918 H 0.65407 0.93145 0.56114 0.0
H919 H 0.63458 0.9174 0.51414 0.0
H920 H 0.69007 0.88634 0.65039 0.0
H921 H 0.65064 0.85434 0.51702 0.0
H922 H 0.64855 0.90819 0.7291 0.0
H923 H 0.65965 0.92765 0.67736 0.0
H924 H 0.67724 0.91084 0.71524 0.0
H925 H 0.59941 0.87204 0.57112 0.0
H926 H 0.61205 0.85589 0.51786 0.0
H927 H 0.61157 0.88457 0.50755 0.0
C928 C 0.33569 0.48654 0.87562 0.0
C929 C 0.34745 0.47907 0.8289 0.0
C930 C 0.31943 0.47297 0.90286 0.0
C931 C 0.31507 0.4514 0.88324 0.0
C932 C 0.32665 0.44389 0.83547 0.0
C933 C 0.34262 0.45789 0.80859 0.0
C934 C 0.30714 0.48159 0.9531 0.0
C935 C 0.32251 0.42092 0.81363 0.0
C936 C 0.28965 0.40807 0.98421 0.0
C937 C 0.26855 0.40499 0.96209 0.0
C938 C 0.30487 0.42359 0.95991 0.0
C939 C 0.29866 0.43647 0.91307 0.0
C940 C 0.27709 0.43413 0.89251 0.0
C941 C 0.26231 0.41829 0.91703 0.0
C942 C 0.32781 0.42555 0.98263 0.0
C943 C 0.26982 0.44784 0.84329 0.0
H944 H 0.33932 0.50295 0.89125 0.0
H945 H 0.35175 0.45203 0.77265 0.0
H946 H 0.28947 0.47932 0.94457 0.0
H947 H 0.31022 0.47239 0.99309 0.0
H948 H 0.31181 0.49905 0.96125 0.0
H949 H 0.33281 0.4177 0.77572 0.0
H950 H 0.32572 0.4094 0.84879 0.0
H951 H 0.30528 0.41756 0.80095 0.0
H952 H 0.29452 0.39776 0.01894 0.0
H953 H 0.24594 0.41605 0.90018 0.0
H954 H 0.33292 0.4426 -0.00566 0.0
H955 H 0.33895 0.42079 0.94819 0.0
H956 H 0.3297 0.41518 0.02129 0.0
H957 H 0.27425 0.46526 0.8523 0.0
H958 H 0.25206 0.44532 0.83588 0.0
H959 H 0.2782 0.44381 0.80271 0.0
C960 C 0.81183 0.13321 0.14681 0.0
C961 C 0.81391 0.14432 0.09385 0.0
C962 C 0.82828 0.12118 0.16704 0.0
C963 C 0.8474 0.12051 0.13384 0.0
C964 C 0.85048 0.1334 0.08329 0.0
C965 C 0.83356 0.14507 0.06349 0.0
C966 C 0.8243 0.1076 0.22111 0.0
C967 C 0.87096 0.1336 0.04784 0.0
C968 C 0.88943 0.08908 0.20707 0.0
C969 C 0.88417 0.06838 0.18377 0.0
C970 C 0.87863 0.10679 0.18833 0.0
C971 C 0.86195 0.10345 0.1465 0.0
C972 C 0.85729 0.08276 0.12114 0.0
C973 C 0.8686 0.06555 0.13974 0.0
C974 C 0.88441 0.12877 0.21506 0.0
C975 C 0.83944 0.07844 0.07678 0.0
H976 H 0.79681 0.13285 0.171 0.0
H977 H 0.83538 0.15395 0.02299 0.0
H978 H 0.82198 0.09022 0.20891 0.0
H979 H 0.83845 0.10969 0.25063 0.0
H980 H 0.80971 0.11174 0.24519 0.0
H981 H 0.87278 0.14764 0.01774 0.0
H982 H 0.8854 0.13409 0.07642 0.0
H983 H 0.87054 0.11855 0.02168 0.0
H984 H 0.90167 0.09138 0.24064 0.0
H985 H 0.86455 0.04961 0.1213 0.0
H986 H 0.87187 0.13221 0.24721 0.0
H987 H 0.88491 0.14165 0.18152 0.0
H988 H 0.90031 0.12963 0.23759 0.0
H989 H 0.82359 0.08093 0.09688 0.0
H990 H 0.83863 0.06169 0.05931 0.0
H991 H 0.84188 0.08995 0.04002 0.0
C992 C 0.80687 0.6381 0.86914 0.0
C993 C 0.80955 0.65225 0.91647 0.0
C994 C 0.82439 0.62825 0.84633 0.0
C995 C 0.84527 0.6332 0.87033 0.0
C996 C 0.84847 0.64917 0.91416 0.0
C997 C 0.83044 0.65825 0.93764 0.0
C998 C 0.8201 0.61107 0.80012 0.0
C999 C 0.87064 0.65574 0.93881 0.0
C1000 C 0.87452 0.58291 0.86799 0.0
C1001 C 0.88416 0.58441 0.81294 0.0
C1002 C 0.86337 0.59973 0.88985 0.0
C1003 C 0.86234 0.61876 0.85644 0.0
C1004 C 0.87431 0.62145 0.80422 0.0
C1005 C 0.88485 0.60402 0.78242 0.0
C1006 C 0.85083 0.59612 0.94581 0.0
C1007 C 0.87465 0.64205 0.76929 0.0
H1008 H 0.79078 0.63354 0.85224 0.0
H1009 H 0.83263 0.66953 0.97357 0.0
H1010 H 0.831 0.61452 0.76252 0.0
H1011 H 0.82342 0.59505 0.81786 0.0
H1012 H 0.8031 0.60991 0.78433 0.0
H1013 H 0.87163 0.67254 0.95601 0.0
H1014 H 0.87389 0.64481 0.97527 0.0
H1015 H 0.88349 0.65463 0.90571 0.0
H1016 H 0.87429 0.56795 0.8924 0.0
H1017 H 0.89273 0.60545 0.74044 0.0
H1018 H 0.8332 0.59493 0.93644 0.0
H1019 H 0.85446 0.60997 0.97569 0.0
H1020 H 0.85458 0.58108 0.96841 0.0
H1021 H 0.85978 0.64171 0.74243 0.0
H1022 H 0.88886 0.64391 0.73974 0.0
H1023 H 0.87502 0.65641 0.79815 0.0
C1024 C 0.19498 0.10852 0.5583 0.0
C1025 C 0.21635 0.11406 0.57632 0.0
C1026 C 0.18202 0.09191 0.58586 0.0
C1027 C 0.19074 0.08046 0.63217 0.0
C1028 C 0.21248 0.08553 0.64949 0.0
C1029 C 0.22504 0.10237 0.62144 0.0
C1030 C 0.15883 0.08698 0.56639 0.0
C1031 C 0.22232 0.07347 0.69833 0.0
C1032 C 0.14898 0.05445 0.7363 0.0
C1033 C 0.14586 0.03333 0.71421 0.0
C1034 C 0.1642 0.06978 0.71134 0.0
C1035 C 0.17669 0.06373 0.66362 0.0
C1036 C 0.17447 0.04213 0.64324 0.0
C1037 C 0.15899 0.02717 0.66869 0.0
C1038 C 0.1661 0.09271 0.73414 0.0
C1039 C 0.18774 0.03506 0.59289 0.0
H1040 H 0.18818 0.11752 0.52346 0.0
H1041 H 0.24159 0.10653 0.63532 0.0
H1042 H 0.15583 0.06966 0.55418 0.0
H1043 H 0.14769 0.08991 0.60266 0.0
H1044 H 0.15472 0.09704 0.52876 0.0
H1045 H 0.23983 0.07854 0.70421 0.0
H1046 H 0.21379 0.07636 0.73953 0.0
H1047 H 0.2203 0.05578 0.68993 0.0
H1048 H 0.1389 0.05928 0.77157 0.0
H1049 H 0.15675 0.0108 0.65182 0.0
H1050 H 0.16044 0.10372 0.70055 0.0
H1051 H 0.18326 0.09819 0.74366 0.0
H1052 H 0.1564 0.09437 0.77415 0.0
H1053 H 0.18278 0.04303 0.55253 0.0
H1054 H 0.18569 0.01724 0.58631 0.0
H1055 H 0.20517 0.04012 0.59988 0.0
C1056 C 0.67268 0.3663 0.37277 0.0
C1057 C 0.67148 0.35689 0.42813 0.0
C1058 C 0.6559 0.37775 0.3518 0.0
C1059 C 0.63733 0.37938 0.38663 0.0
C1060 C 0.63475 0.36733 0.43873 0.0
C1061 C 0.65206 0.3564 0.45945 0.0
C1062 C 0.65926 0.39022 0.29571 0.0
C1063 C 0.61459 0.36768 0.4752 0.0
C1064 C 0.61977 0.43588 0.38307 0.0
C1065 C 0.6039 0.4342 0.33969 0.0
C1066 C 0.62997 0.41781 0.40071 0.0
C1067 C 0.62372 0.39738 0.3754 0.0
C1068 C 0.60655 0.39523 0.33474 0.0
C1069 C 0.59703 0.41381 0.31652 0.0
C1070 C 0.64841 0.42096 0.44376 0.0
C1071 C 0.59882 0.37362 0.30844 0.0
H1072 H 0.68747 0.36631 0.34768 0.0
H1073 H 0.65084 0.34867 0.50166 0.0
H1074 H 0.64466 0.38779 0.26791 0.0
H1075 H 0.66205 0.40779 0.30541 0.0
H1076 H 0.67337 0.38533 0.27083 0.0
H1077 H 0.61276 0.35373 0.50561 0.0
H1078 H 0.61553 0.3828 0.50117 0.0
H1079 H 0.59995 0.3674 0.44737 0.0
H1080 H 0.62505 0.45158 0.40136 0.0
H1081 H 0.58452 0.41242 0.28353 0.0
H1082 H 0.66367 0.41687 0.423 0.0
H1083 H 0.6453 0.40998 0.48141 0.0
H1084 H 0.65087 0.43785 0.46013 0.0
H1085 H 0.60863 0.37082 0.26936 0.0
H1086 H 0.58161 0.37324 0.2947 0.0
H1087 H 0.60052 0.36013 0.33926 0.0
C1088 C 0.34432 0.95737 0.21458 0.0
C1089 C 0.34907 0.97833 0.1926 0.0
C1090 C 0.32795 0.94326 0.1898 0.0
C1091 C 0.31593 0.9504 0.1424 0.0
C1092 C 0.32026 0.97173 0.121 0.0
C1093 C 0.33689 0.98543 0.14621 0.0
C1094 C 0.32384 0.92053 0.21346 0.0
C1095 C 0.30757 0.97994 0.07095 0.0
C1096 C 0.29019 0.9063 0.04466 0.0
C1097 C 0.26911 0.9034 0.06707 0.0
C1098 C 0.30546 0.92199 0.06782 0.0
C1099 C 0.29939 0.9352 0.114 0.0
C1100 C 0.27786 0.93305 0.135 0.0
C1101 C 0.26297 0.91706 0.11141 0.0
C1102 C 0.32832 0.9238 0.0445 0.0
C1103 C 0.27078 0.9471 0.18368 0.0
H1104 H 0.35373 0.95182 0.25038 0.0
H1105 H 0.34043 0.00169 0.12933 0.0
H1106 H 0.30666 0.91735 0.22681 0.0
H1107 H 0.32687 0.90864 0.1791 0.0
H1108 H 0.3343 0.91768 0.25134 0.0
H1109 H 0.31218 -0.00267 0.06156 0.0
H1110 H 0.31033 0.97041 0.03133 0.0
H1111 H 0.28997 0.97776 0.0805 0.0
H1112 H 0.29501 0.89578 0.01036 0.0
H1113 H 0.24663 0.91497 0.12857 0.0
H1114 H 0.33962 0.91942 0.079 0.0
H1115 H 0.33332 0.94074 0.03146 0.0
H1116 H 0.33011 0.91307 0.00653 0.0
H1117 H 0.27935 0.94339 0.22424 0.0
H1118 H 0.25306 0.94459 0.19167 0.0
H1119 H 0.27514 0.96445 0.17365 0.0
C1120 C 0.78851 0.40881 0.54256 0.0
C1121 C 0.76762 0.40379 0.56472 0.0
C1122 C 0.80247 0.42532 0.56726 0.0
C1123 C 0.79523 0.43723 0.61471 0.0
C1124 C 0.77387 0.4328 0.63587 0.0
C1125 C 0.76033 0.41601 0.61077 0.0
C1126 C 0.82521 0.42955 0.54375 0.0
C1127 C 0.76554 0.44542 0.68586 0.0
C1128 C 0.83951 0.46283 0.71229 0.0
C1129 C 0.84254 0.48383 0.68949 0.0
C1130 C 0.82365 0.44763 0.68948 0.0
C1131 C 0.81038 0.45375 0.64338 0.0
C1132 C 0.81265 0.47525 0.62221 0.0
C1133 C 0.82883 0.49002 0.64532 0.0
C1134 C 0.82175 0.42478 0.71288 0.0
C1135 C 0.79854 0.48241 0.57372 0.0
H1136 H 0.79422 0.39938 0.50704 0.0
H1137 H 0.74413 0.41224 0.62779 0.0
H1138 H 0.82838 0.44678 0.5308 0.0
H1139 H 0.83708 0.42643 0.57809 0.0
H1140 H 0.82811 0.41922 0.50566 0.0
H1141 H 0.74807 0.44095 0.69446 0.0
H1142 H 0.77481 0.44238 0.72576 0.0
H1143 H 0.76797 0.46305 0.67684 0.0
H1144 H 0.85011 0.45799 0.74641 0.0
H1145 H 0.83102 0.50632 0.62794 0.0
H1146 H 0.82618 0.41347 0.67846 0.0
H1147 H 0.80479 0.41981 0.72571 0.0
H1148 H 0.83242 0.42299 0.75098 0.0
H1149 H 0.8023 0.47399 0.53298 0.0
H1150 H 0.80097 0.50015 0.56609 0.0
H1151 H 0.7812 0.47794 0.58367 0.0
C1152 C 0.30719 0.14119 0.36745 0.0
C1153 C 0.30986 0.15331 0.41868 0.0
C1154 C 0.32391 0.1298 0.34595 0.0
C1155 C 0.34391 0.13092 0.37588 0.0
C1156 C 0.34751 0.1451 0.42373 0.0
C1157 C 0.33029 0.15599 0.44513 0.0
C1158 C 0.31935 0.11483 0.29479 0.0
C1159 C 0.36895 0.1474 0.45513 0.0
C1160 C 0.36662 0.07671 0.37601 0.0
C1161 C 0.38049 0.07852 0.32793 0.0
C1162 C 0.3556 0.09417 0.39416 0.0
C1163 C 0.35887 0.11413 0.36418 0.0
C1164 C 0.37419 0.11663 0.31859 0.0
C1165 C 0.38467 0.09864 0.30039 0.0
C1166 C 0.33927 0.09072 0.4428 0.0
C1167 C 0.37868 0.13789 0.28702 0.0
H1168 H 0.29153 0.13934 0.34622 0.0
H1169 H 0.33256 0.16571 0.48413 0.0
H1170 H 0.33264 0.117 0.26257 0.0
H1171 H 0.31837 0.09776 0.3099 0.0
H1172 H 0.30389 0.11756 0.2728 0.0
H1173 H 0.37086 0.16246 0.48145 0.0
H1174 H 0.36995 0.13342 0.48476 0.0
H1175 H 0.38262 0.14749 0.42403 0.0
H1176 H 0.36347 0.06126 0.39787 0.0
H1177 H 0.39564 0.1002 0.2637 0.0
H1178 H 0.32275 0.09223 0.42568 0.0
H1179 H 0.3425 0.10326 0.47676 0.0
H1180 H 0.3395 0.07454 0.46339 0.0
H1181 H 0.36583 0.13955 0.25425 0.0
H1182 H 0.3945 0.13883 0.26412 0.0
H1183 H 0.37861 0.15176 0.31741 0.0
C1184 C 0.64111 0.55654 0.22788 0.0
C1185 C 0.63741 0.53514 0.20826 0.0
C1186 C 0.65698 0.57094 0.20194 0.0
C1187 C 0.66955 0.56362 0.15589 0.0
C1188 C 0.66645 0.54181 0.13743 0.0
C1189 C 0.65029 0.52784 0.16364 0.0
C1190 C 0.65976 0.59417 0.2224 0.0
C1191 C 0.67978 0.53339 0.08899 0.0
C1192 C 0.69249 0.60596 0.04887 0.0
C1193 C 0.7137 0.61038 0.06939 0.0
C1194 C 0.67803 0.59055 0.07628 0.0
C1195 C 0.68508 0.57913 0.12488 0.0
C1196 C 0.70669 0.58299 0.14465 0.0
C1197 C 0.72075 0.59869 0.11678 0.0
C1198 C 0.65504 0.58692 0.05421 0.0
C1199 C 0.7148 0.57087 0.1959 0.0
H1200 H 0.63114 0.56223 0.26235 0.0
H1201 H 0.64757 0.51125 0.14873 0.0
H1202 H 0.67689 0.59874 0.23441 0.0
H1203 H 0.65565 0.60507 0.18665 0.0
H1204 H 0.64934 0.59702 0.26035 0.0
H1205 H 0.67645 0.51564 0.08281 0.0
H1206 H 0.67623 0.54159 0.04774 0.0
H1207 H 0.6973 0.53712 0.09803 0.0
H1208 H 0.68695 0.615 0.01233 0.0
H1209 H 0.73718 0.60199 0.13258 0.0
H1210 H 0.64362 0.59107 0.08866 0.0
H1211 H 0.65107 0.56959 0.04328 0.0
H1212 H 0.65229 0.59681 0.01514 0.0
H1213 H 0.70582 0.57483 0.23558 0.0
H1214 H 0.73238 0.5749 0.20372 0.0
H1215 H 0.71177 0.55315 0.18887 0.0
C1216 C 0.1723 0.87074 0.88604 0.0
C1217 C 0.17022 0.85922 0.93836 0.0
C1218 C 0.1554 0.88201 0.86512 0.0
C1219 C 0.1357 0.88118 0.89644 0.0
C1220 C 0.13258 0.8674 0.94527 0.0
C1221 C 0.15009 0.85683 0.96645 0.0
C1222 C 0.15952 0.89659 0.81296 0.0
C1223 C 0.11136 0.86507 0.97766 0.0
C1224 C 0.11402 0.9358 0.89332 0.0
C1225 C 0.10103 0.93409 0.84353 0.0
C1226 C 0.12418 0.91807 0.91374 0.0
C1227 C 0.12067 0.89794 0.88467 0.0
C1228 C 0.10567 0.89551 0.8383 0.0
C1229 C 0.09631 0.91379 0.8174 0.0
C1230 C 0.14024 0.92152 0.96299 0.0
C1231 C 0.10057 0.87404 0.80827 0.0
H1232 H 0.18774 0.87239 0.86365 0.0
H1233 H 0.14826 0.84753 0.00627 0.0
H1234 H 0.14636 0.89353 0.78065 0.0
H1235 H 0.15976 0.91378 0.82668 0.0
H1236 H 0.17517 0.89429 0.79143 0.0
H1237 H 0.10945 0.84972 0.00277 0.0
H1238 H 0.1108 0.87869 0.00866 0.0
H1239 H 0.09747 0.86551 0.94743 0.0
H1240 H 0.11757 0.95142 0.91403 0.0
H1241 H 0.08591 0.91232 0.77951 0.0
H1242 H 0.1568 0.91954 0.94674 0.0
H1243 H 0.13657 0.90929 -0.00251 0.0
H1244 H 0.14025 0.93788 0.98264 0.0
H1245 H 0.11266 0.87219 0.77355 0.0
H1246 H 0.0843 0.87304 0.78774 0.0
H1247 H 0.10121 0.86032 0.839 0.0
loop_
_geom_bond_atom_site_label_1
_geom_bond_atom_site_label_2
_geom_bond_distance
_geom_bond_site_symmetry_2
_ccdc_geom_bond_type
C0 O1 1.306 . S
C0 O3 1.160 . S
O1 C0 1.306 . S
O1 Cd2 2.228 . S
Cd2 O1 2.228 . S
Cd2 O6 2.273 . S
Cd2 O10 2.277 1_554 S
O3 C0 1.160 . S
O3 Cd4 2.203 . S
Cd4 O3 2.203 . S
Cd4 O6 2.411 . S
Cd4 O7 2.333 1_554 S
Cd4 O8 2.352 . S
Cd4 O12 2.277 1_554 S
Cd4 O13 2.356 . S
C5 O10 1.209 . S
C5 O12 1.226 . S
O6 Cd2 2.273 . S
O6 Cd4 2.411 . S
O6 C9 1.320 1_554 S
O7 Cd4 2.333 1_556 S
O7 C9 1.214 . S
O8 Cd4 2.352 . S
O8 C11 1.258 . S
C9 O6 1.320 1_556 S
C9 O7 1.214 . S
O10 Cd2 2.277 1_556 S
O10 C5 1.209 . S
C11 O8 1.258 . S
C11 O13 1.282 . S
O12 Cd4 2.277 1_556 S
O12 C5 1.226 . S
O13 Cd4 2.356 . S
O13 C11 1.282 . S
C14 O15 1.306 1_545 S
C14 O17 1.160 . S
O15 C14 1.306 1_565 S
O15 Cd16 2.228 . S
Cd16 O15 2.228 . S
Cd16 O20 2.273 . S
Cd16 O24 2.313 . S
O17 C14 1.160 . S
O17 Cd18 2.203 . S
Cd18 O17 2.203 . S
Cd18 O20 2.411 1_545 S
Cd18 O21 2.333 . S
Cd18 O22 2.352 . S
Cd18 O26 2.277 . S
Cd18 O27 2.356 . S
C19 O24 1.169 1_545 S
C19 O26 1.226 . S
O20 Cd16 2.273 . S
O20 Cd18 2.411 1_565 S
O20 C23 1.320 . S
O21 Cd18 2.333 . S
O21 C23 1.214 1_545 S
O22 Cd18 2.352 . S
O22 C25 1.258 . S
C23 O20 1.320 . S
C23 O21 1.214 1_565 S
O24 Cd16 2.313 . S
O24 C19 1.169 1_565 S
C25 O22 1.258 . S
C25 O27 1.282 . S
O26 Cd18 2.277 . S
O26 C19 1.226 . S
O27 Cd18 2.356 . S
O27 C25 1.282 . S
C28 O29 1.306 . S
C28 O31 1.160 . S
O29 C28 1.306 . S
O29 Cd30 2.228 . S
Cd30 O29 2.228 . S
Cd30 O34 2.273 . S
Cd30 O38 2.277 . S
O31 C28 1.160 . S
O31 Cd32 2.203 . S
Cd32 O31 2.203 . S
Cd32 O34 2.411 . S
Cd32 O35 2.333 . S
Cd32 O36 2.352 . S
Cd32 O40 2.277 . S
Cd32 O41 2.356 . S
C33 O38 1.209 . S
C33 O40 1.226 . S
O34 Cd30 2.273 . S
O34 Cd32 2.411 . S
O34 C37 1.320 . S
O35 Cd32 2.333 . S
O35 C37 1.214 . S
O36 Cd32 2.352 . S
O36 C39 1.258 . S
C37 O34 1.320 . S
C37 O35 1.214 . S
O38 Cd30 2.277 . S
O38 C33 1.209 . S
C39 O36 1.258 . S
C39 O41 1.282 . S
O40 Cd32 2.277 . S
O40 C33 1.226 . S
O41 Cd32 2.356 . S
O41 C39 1.282 . S
C42 O43 1.306 . S
C42 O45 1.194 . S
O43 C42 1.306 . S
O43 Cd44 2.228 . S
Cd44 O43 2.228 . S
Cd44 O48 2.273 . S
Cd44 O52 2.277 . S
O45 C42 1.194 . S
O45 Cd46 2.206 . S
Cd46 O45 2.206 . S
Cd46 O48 2.411 . S
Cd46 O49 2.333 . S
Cd46 O50 2.352 1_545 S
Cd46 O54 2.277 1_545 S
Cd46 O55 2.356 1_545 S
C47 O52 1.209 . S
C47 O54 1.226 1_545 S
O48 Cd44 2.273 . S
O48 Cd46 2.411 . S
O48 C51 1.320 . S
O49 Cd46 2.333 . S
O49 C51 1.214 . S
O50 Cd46 2.352 1_565 S
O50 C53 1.258 . S
C51 O48 1.320 . S
C51 O49 1.214 . S
O52 Cd44 2.277 . S
O52 C47 1.209 . S
C53 O50 1.258 . S
C53 O55 1.282 . S
O54 Cd46 2.277 1_565 S
O54 C47 1.226 1_565 S
O55 Cd46 2.356 1_565 S
O55 C53 1.282 . S
C56 O57 1.306 . S
C56 O59 1.160 . S
O57 C56 1.306 . S
O57 Cd58 2.228 1_556 S
Cd58 O57 2.228 1_554 S
Cd58 O62 2.273 . S
Cd58 O66 2.277 . S
O59 C56 1.160 . S
O59 Cd60 2.203 1_556 S
Cd60 O59 2.203 1_554 S
Cd60 O62 2.411 . S
Cd60 O63 2.333 . S
Cd60 O64 2.352 1_554 S
Cd60 O68 2.277 . S
Cd60 O69 2.356 . S
C61 O66 1.209 . S
C61 O68 1.226 . S
O62 Cd58 2.273 . S
O62 Cd60 2.411 . S
O62 C65 1.320 . S
O63 Cd60 2.333 . S
O63 C65 1.214 . S
O64 Cd60 2.352 1_556 S
O64 C67 1.258 . S
C65 O62 1.320 . S
C65 O63 1.214 . S
O66 Cd58 2.277 . S
O66 C61 1.209 . S
C67 O64 1.258 . S
C67 O69 1.282 1_556 S
O68 Cd60 2.277 . S
O68 C61 1.226 . S
O69 Cd60 2.356 . S
O69 C67 1.282 1_554 S
C70 O71 1.306 . S
C70 O73 1.194 . S
O71 C70 1.306 . S
O71 Cd72 2.228 . S
Cd72 O71 2.228 . S
Cd72 O76 2.273 . S
Cd72 O80 2.277 . S
O73 C70 1.194 . S
O73 Cd74 2.206 . S
Cd74 O73 2.206 . S
Cd74 O76 2.411 . S
Cd74 O77 2.333 . S
Cd74 O78 2.352 1_545 S
Cd74 O82 2.277 1_545 S
Cd74 O83 2.356 1_545 S
C75 O80 1.209 . S
C75 O82 1.226 1_545 S
O76 Cd72 2.273 . S
O76 Cd74 2.411 . S
O76 C79 1.320 . S
O77 Cd74 2.333 . S
O77 C79 1.214 . S
O78 Cd74 2.352 1_565 S
O78 C81 1.258 . S
C79 O76 1.320 . S
C79 O77 1.214 . S
O80 Cd72 2.277 . S
O80 C75 1.209 . S
C81 O78 1.258 . S
C81 O83 1.282 . S
O82 Cd74 2.277 1_565 S
O82 C75 1.226 1_565 S
O83 Cd74 2.356 1_565 S
O83 C81 1.282 . S
C84 O85 1.306 . S
C84 O87 1.160 . S
O85 C84 1.306 . S
O85 Cd86 2.228 . S
Cd86 O85 2.228 . S
Cd86 O90 2.273 . S
Cd86 O94 2.277 . S
O87 C84 1.160 . S
O87 Cd88 2.203 . S
Cd88 O87 2.203 . S
Cd88 O90 2.411 . S
Cd88 O91 2.333 . S
Cd88 O92 2.352 . S
Cd88 O96 2.277 . S
Cd88 O97 2.356 . S
C89 O94 1.209 . S
C89 O96 1.226 . S
O90 Cd86 2.273 . S
O90 Cd88 2.411 . S
O90 C93 1.320 . S
O91 Cd88 2.333 . S
O91 C93 1.214 . S
O92 Cd88 2.352 . S
O92 C95 1.258 . S
C93 O90 1.320 . S
C93 O91 1.214 . S
O94 Cd86 2.277 . S
O94 C89 1.209 . S
C95 O92 1.258 . S
C95 O97 1.282 . S
O96 Cd88 2.277 . S
O96 C89 1.226 . S
O97 Cd88 2.356 . S
O97 C95 1.282 . S
C98 O99 1.306 1_545 S
C98 O101 1.160 . S
O99 C98 1.306 1_565 S
O99 Cd100 2.228 . S
Cd100 O99 2.228 . S
Cd100 O104 2.273 . S
Cd100 O108 2.314 . S
O101 C98 1.160 . S
O101 Cd102 2.203 . S
Cd102 O101 2.203 . S
Cd102 O104 2.411 1_545 S
Cd102 O105 2.333 . S
Cd102 O106 2.352 . S
Cd102 O110 2.277 . S
Cd102 O111 2.356 . S
C103 O108 1.169 1_545 S
C103 O110 1.226 . S
O104 Cd100 2.273 . S
O104 Cd102 2.411 1_565 S
O104 C107 1.320 . S
O105 Cd102 2.333 . S
O105 C107 1.214 1_545 S
O106 Cd102 2.352 . S
O106 C109 1.258 . S
C107 O104 1.320 . S
C107 O105 1.214 1_565 S
O108 Cd100 2.314 . S
O108 C103 1.169 1_565 S
C109 O106 1.258 . S
C109 O111 1.282 . S
O110 Cd102 2.277 . S
O110 C103 1.226 . S
O111 Cd102 2.356 . S
O111 C109 1.282 . S
C112 O113 1.306 . S
C112 O115 1.160 . S
O113 C112 1.306 . S
O113 Cd114 2.228 . S
Cd114 O113 2.228 . S
Cd114 O118 2.273 . S
Cd114 O122 2.277 . S
O115 C112 1.160 . S
O115 Cd116 2.203 . S
Cd116 O115 2.203 . S
Cd116 O118 2.411 . S
Cd116 O119 2.333 . S
Cd116 O120 2.352 . S
Cd116 O124 2.277 . S
Cd116 O125 2.356 . S
C117 O122 1.209 . S
C117 O124 1.226 . S
O118 Cd114 2.273 . S
O118 Cd116 2.411 . S
O118 C121 1.320 . S
O119 Cd116 2.333 . S
O119 C121 1.214 . S
O120 Cd116 2.352 . S
O120 C123 1.258 . S
C121 O118 1.320 . S
C121 O119 1.214 . S
O122 Cd114 2.277 . S
O122 C117 1.209 . S
C123 O120 1.258 . S
C123 O125 1.282 . S
O124 Cd116 2.277 . S
O124 C117 1.226 . S
O125 Cd116 2.356 . S
O125 C123 1.282 . S
C126 O127 1.306 . S
C126 O129 1.160 . S
O127 C126 1.306 . S
O127 Cd128 2.228 . S
Cd128 O127 2.228 . S
Cd128 O132 2.273 . S
Cd128 O136 2.277 . S
O129 C126 1.160 . S
O129 Cd130 2.203 . S
Cd130 O129 2.203 . S
Cd130 O132 2.411 . S
Cd130 O133 2.333 . S
Cd130 O134 2.352 . S
Cd130 O138 2.277 . S
Cd130 O139 2.356 . S
C131 O136 1.209 . S
C131 O138 1.226 . S
O132 Cd128 2.273 . S
O132 Cd130 2.411 . S
O132 C135 1.320 . S
O133 Cd130 2.333 . S
O133 C135 1.214 . S
O134 Cd130 2.352 . S
O134 C137 1.258 . S
C135 O132 1.320 . S
C135 O133 1.214 . S
O136 Cd128 2.277 . S
O136 C131 1.209 . S
C137 O134 1.258 . S
C137 O139 1.282 . S
O138 Cd130 2.277 . S
O138 C131 1.226 . S
O139 Cd130 2.356 . S
O139 C137 1.282 . S
C140 O141 1.306 . S
C140 O143 1.160 . S
O141 C140 1.306 . S
O141 Cd142 2.228 . S
Cd142 O141 2.228 . S
Cd142 O146 2.273 . S
Cd142 O150 2.277 1_554 S
O143 C140 1.160 . S
O143 Cd144 2.203 . S
Cd144 O143 2.203 . S
Cd144 O146 2.411 . S
Cd144 O147 2.333 1_554 S
Cd144 O148 2.352 . S
Cd144 O152 2.277 1_554 S
Cd144 O153 2.356 . S
C145 O150 1.209 . S
C145 O152 1.226 . S
O146 Cd142 2.273 . S
O146 Cd144 2.411 . S
O146 C149 1.320 1_554 S
O147 Cd144 2.333 1_556 S
O147 C149 1.214 . S
O148 Cd144 2.352 . S
O148 C151 1.258 . S
C149 O146 1.320 1_556 S
C149 O147 1.214 . S
O150 Cd142 2.277 1_556 S
O150 C145 1.209 . S
C151 O148 1.258 . S
C151 O153 1.282 . S
O152 Cd144 2.277 1_556 S
O152 C145 1.226 . S
O153 Cd144 2.356 . S
O153 C151 1.282 . S
C154 O155 1.306 . S
C154 O157 1.160 . S
O155 C154 1.306 . S
O155 Cd156 2.228 . S
Cd156 O155 2.228 . S
Cd156 O160 2.273 . S
Cd156 O164 2.277 . S
O157 C154 1.160 . S
O157 Cd158 2.203 . S
Cd158 O157 2.203 . S
Cd158 O160 2.411 . S
Cd158 O161 2.333 . S
Cd158 O162 2.352 . S
Cd158 O166 2.277 . S
Cd158 O167 2.356 . S
C159 O164 1.209 . S
C159 O166 1.226 . S
O160 Cd156 2.273 . S
O160 Cd158 2.411 . S
O160 C163 1.320 . S
O161 Cd158 2.333 . S
O161 C163 1.214 . S
O162 Cd158 2.352 . S
O162 C165 1.258 . S
C163 O160 1.320 . S
C163 O161 1.214 . S
O164 Cd156 2.277 . S
O164 C159 1.209 . S
C165 O162 1.258 . S
C165 O167 1.282 . S
O166 Cd158 2.277 . S
O166 C159 1.226 . S
O167 Cd158 2.356 . S
O167 C165 1.282 . S
C168 O169 1.306 . S
C168 O171 1.160 . S
O169 C168 1.306 . S
O169 Cd170 2.228 . S
Cd170 O169 2.228 . S
Cd170 O174 2.273 . S
Cd170 O178 2.277 . S
O171 C168 1.160 . S
O171 Cd172 2.203 . S
Cd172 O171 2.203 . S
Cd172 O174 2.411 . S
Cd172 O175 2.333 . S
Cd172 O176 2.352 . S
Cd172 O180 2.277 . S
Cd172 O181 2.356 . S
C173 O178 1.209 . S
C173 O180 1.226 . S
O174 Cd170 2.273 . S
O174 Cd172 2.411 . S
O174 C177 1.320 . S
O175 Cd172 2.333 . S
O175 C177 1.214 . S
O176 Cd172 2.352 . S
O176 C179 1.258 . S
C177 O174 1.320 . S
C177 O175 1.214 . S
O178 Cd170 2.277 . S
O178 C173 1.209 . S
C179 O176 1.258 . S
C179 O181 1.282 . S
O180 Cd172 2.277 . S
O180 C173 1.226 . S
O181 Cd172 2.356 . S
O181 C179 1.282 . S
C182 O183 1.306 . S
C182 O185 1.160 . S
O183 C182 1.306 . S
O183 Cd184 2.228 . S
Cd184 O183 2.228 . S
Cd184 O188 2.273 . S
Cd184 O192 2.277 . S
O185 C182 1.160 . S
O185 Cd186 2.203 . S
Cd186 O185 2.203 . S
Cd186 O188 2.411 . S
Cd186 O189 2.333 . S
Cd186 O190 2.352 . S
Cd186 O194 2.277 . S
Cd186 O195 2.356 . S
C187 O192 1.209 . S
C187 O194 1.226 . S
O188 Cd184 2.273 . S
O188 Cd186 2.411 . S
O188 C191 1.320 . S
O189 Cd186 2.333 . S
O189 C191 1.214 . S
O190 Cd186 2.352 . S
O190 C193 1.258 . S
C191 O188 1.320 . S
C191 O189 1.214 . S
O192 Cd184 2.277 . S
O192 C187 1.209 . S
C193 O190 1.258 . S
C193 O195 1.282 . S
O194 Cd186 2.277 . S
O194 C187 1.226 . S
O195 Cd186 2.356 . S
O195 C193 1.282 . S
C196 O197 1.306 . S
C196 O199 1.160 . S
O197 C196 1.306 . S
O197 Cd198 2.228 1_556 S
Cd198 O197 2.228 1_554 S
Cd198 O202 2.273 . S
Cd198 O206 2.277 . S
O199 C196 1.160 . S
O199 Cd200 2.203 1_556 S
Cd200 O199 2.203 1_554 S
Cd200 O202 2.411 . S
Cd200 O203 2.333 . S
Cd200 O204 2.352 1_554 S
Cd200 O208 2.277 . S
Cd200 O209 2.356 . S
C201 O206 1.209 . S
C201 O208 1.226 . S
O202 Cd198 2.273 . S
O202 Cd200 2.411 . S
O202 C205 1.320 . S
O203 Cd200 2.333 . S
O203 C205 1.214 . S
O204 Cd200 2.352 1_556 S
O204 C207 1.258 . S
C205 O202 1.320 . S
C205 O203 1.214 . S
O206 Cd198 2.277 . S
O206 C201 1.209 . S
C207 O204 1.258 . S
C207 O209 1.282 1_556 S
O208 Cd200 2.277 . S
O208 C201 1.226 . S
O209 Cd200 2.356 . S
O209 C207 1.282 1_554 S
C210 O211 1.306 . S
C210 O213 1.160 . S
O211 C210 1.306 . S
O211 Cd212 2.228 . S
Cd212 O211 2.228 . S
Cd212 O216 2.273 . S
Cd212 O220 2.277 . S
O213 C210 1.160 . S
O213 Cd214 2.203 . S
Cd214 O213 2.203 . S
Cd214 O216 2.411 . S
Cd214 O217 2.333 . S
Cd214 O218 2.352 . S
Cd214 O222 2.277 . S
Cd214 O223 2.356 . S
C215 O220 1.209 . S
C215 O222 1.226 . S
O216 Cd212 2.273 . S
O216 Cd214 2.411 . S
O216 C219 1.320 . S
O217 Cd214 2.333 . S
O217 C219 1.214 . S
O218 Cd214 2.352 . S
O218 C221 1.258 . S
C219 O216 1.320 . S
C219 O217 1.214 . S
O220 Cd212 2.277 . S
O220 C215 1.209 . S
C221 O218 1.258 . S
C221 O223 1.282 . S
O222 Cd214 2.277 . S
O222 C215 1.226 . S
O223 Cd214 2.356 . S
O223 C221 1.282 . S
C224 C225 1.391 . S
C224 C226 1.394 . S
C224 H240 0.931 . S
C225 C224 1.391 . S
C225 C229 1.376 . S
C226 C224 1.394 . S
C226 C227 1.369 . S
C226 C230 1.531 . S
C227 C226 1.369 . S
C227 C228 1.410 . S
C227 C235 1.503 . S
C228 C227 1.410 . S
C228 C229 1.392 . S
C228 C231 1.511 . S
C229 C225 1.376 . S
C229 C228 1.392 . S
C229 H241 0.929 . S
C230 C226 1.531 . S
C230 H242 0.960 . S
C230 H243 0.962 . S
C230 H244 0.960 . S
C231 C228 1.511 . S
C231 H245 0.961 . S
C231 H246 0.961 . S
C231 H247 0.961 . S
C232 C233 1.370 . S
C232 C234 1.363 . S
C232 H248 0.931 . S
C233 C232 1.370 . S
C233 C237 1.408 . S
C234 C232 1.363 . S
C234 C235 1.370 . S
C234 C238 1.524 . S
C235 C227 1.503 . S
C235 C234 1.370 . S
C235 C236 1.403 . S
C236 C235 1.403 . S
C236 C237 1.404 . S
C236 C239 1.539 . S
C237 C233 1.408 . S
C237 C236 1.404 . S
C237 H249 0.930 . S
C238 C234 1.524 . S
C238 H250 0.956 . S
C238 H251 0.961 . S
C238 H252 0.961 . S
C239 C236 1.539 . S
C239 H253 0.958 . S
C239 H254 0.961 . S
C239 H255 0.960 . S
H240 C224 0.931 . S
H241 C229 0.929 . S
H242 C230 0.960 . S
H243 C230 0.962 . S
H244 C230 0.960 . S
H245 C231 0.961 . S
H246 C231 0.961 . S
H247 C231 0.961 . S
H248 C232 0.931 . S
H249 C237 0.930 . S
H250 C238 0.956 . S
H251 C238 0.961 . S
H252 C238 0.961 . S
H253 C239 0.958 . S
H254 C239 0.961 . S
H255 C239 0.960 . S
C256 C257 1.391 . S
C256 C258 1.394 . S
C256 H272 0.931 . S
C257 C256 1.391 . S
C257 C261 1.372 1_545 S
C258 C256 1.394 . S
C258 C259 1.369 . S
C258 C262 1.531 . S
C259 C258 1.369 . S
C259 C260 1.410 1_545 S
C259 C267 1.503 1_655 S
C260 C259 1.410 1_565 S
C260 C261 1.393 . S
C260 C263 1.511 1_655 S
C261 C257 1.372 1_565 S
C261 C260 1.393 . S
C261 H273 0.932 . S
C262 C258 1.531 . S
C262 H274 0.960 . S
C262 H275 0.962 . S
C262 H276 0.960 . S
C263 C260 1.511 1_455 S
C263 H277 0.961 . S
C263 H278 0.961 . S
C263 H279 0.953 1_455 S
C264 C265 1.370 . S
C264 C266 1.363 . S
C264 H280 0.931 . S
C265 C264 1.370 . S
C265 C269 1.408 1_545 S
C266 C264 1.363 . S
C266 C267 1.370 . S
C266 C270 1.524 . S
C267 C259 1.503 1_455 S
C267 C266 1.370 . S
C267 C268 1.403 1_545 S
C268 C267 1.403 1_565 S
C268 C269 1.404 . S
C268 C271 1.539 1_455 S
C269 C265 1.408 1_565 S
C269 C268 1.404 . S
C269 H281 0.930 . S
C270 C266 1.524 . S
C270 H282 0.956 . S
C270 H283 0.961 . S
C270 H284 0.961 . S
C271 C268 1.539 1_655 S
C271 H285 0.958 . S
C271 H286 0.961 . S
C271 H287 0.960 . S
H272 C256 0.931 . S
H273 C261 0.932 . S
H274 C262 0.960 . S
H275 C262 0.962 . S
H276 C262 0.960 . S
H277 C263 0.961 . S
H278 C263 0.961 . S
H279 C263 0.953 1_655 S
H280 C264 0.931 . S
H281 C269 0.930 . S
H282 C270 0.956 . S
H283 C270 0.961 . S
H284 C270 0.961 . S
H285 C271 0.958 . S
H286 C271 0.961 . S
H287 C271 0.960 . S
C288 C289 1.391 . S
C288 C290 1.394 . S
C288 H304 0.931 . S
C289 C288 1.391 . S
C289 C293 1.376 . S
C290 C288 1.394 . S
C290 C291 1.369 . S
C290 C294 1.531 . S
C291 C290 1.369 . S
C291 C292 1.410 . S
C291 C299 1.503 . S
C292 C291 1.410 . S
C292 C293 1.392 . S
C292 C295 1.511 . S
C293 C289 1.376 . S
C293 C292 1.392 . S
C293 H305 0.929 . S
C294 C290 1.531 . S
C294 H306 0.960 . S
C294 H307 0.962 . S
C294 H308 0.960 . S
C295 C292 1.511 . S
C295 H309 0.961 . S
C295 H310 0.961 . S
C295 H311 0.961 . S
C296 C297 1.370 . S
C296 C298 1.363 . S
C296 H312 0.931 . S
C297 C296 1.370 . S
C297 C301 1.408 . S
C298 C296 1.363 . S
C298 C299 1.370 . S
C298 C302 1.524 . S
C299 C291 1.503 . S
C299 C298 1.370 . S
C299 C300 1.403 . S
C300 C299 1.403 . S
C300 C301 1.404 . S
C300 C303 1.539 . S
C301 C297 1.408 . S
C301 C300 1.404 . S
C301 H313 0.930 . S
C302 C298 1.524 . S
C302 H314 0.956 . S
C302 H315 0.961 . S
C302 H316 0.961 . S
C303 C300 1.539 . S
C303 H317 0.958 . S
C303 H318 0.961 . S
C303 H319 0.960 . S
H304 C288 0.931 . S
H305 C293 0.929 . S
H306 C294 0.960 . S
H307 C294 0.962 . S
H308 C294 0.960 . S
H309 C295 0.961 . S
H310 C295 0.961 . S
H311 C295 0.961 . S
H312 C296 0.931 . S
H313 C301 0.930 . S
H314 C302 0.956 . S
H315 C302 0.961 . S
H316 C302 0.961 . S
H317 C303 0.958 . S
H318 C303 0.961 . S
H319 C303 0.960 . S
C320 C321 1.391 . S
C320 C322 1.394 . S
C320 H336 0.931 . S
C321 C320 1.391 . S
C321 C325 1.376 . S
C322 C320 1.394 . S
C322 C323 1.369 . S
C322 C326 1.531 1_554 S
C323 C322 1.369 . S
C323 C324 1.410 . S
C323 C331 1.503 1_554 S
C324 C323 1.410 . S
C324 C325 1.392 . S
C324 C327 1.511 . S
C325 C321 1.376 . S
C325 C324 1.392 . S
C325 H337 0.929 . S
C326 C322 1.531 1_556 S
C326 H338 0.960 . S
C326 H339 0.962 . S
C326 H340 0.960 . S
C327 C324 1.511 . S
C327 H341 0.961 . S
C327 H342 0.961 . S
C327 H343 0.961 . S
C328 C329 1.370 1_565 S
C328 C330 1.363 . S
C328 H344 0.931 . S
C329 C328 1.370 1_545 S
C329 C333 1.408 . S
C330 C328 1.363 . S
C330 C331 1.370 1_565 S
C330 C334 1.524 . S
C331 C323 1.503 1_556 S
C331 C330 1.370 1_545 S
C331 C332 1.403 . S
C332 C331 1.403 . S
C332 C333 1.404 . S
C332 C335 1.539 . S
C333 C329 1.408 . S
C333 C332 1.404 . S
C333 H345 0.930 . S
C334 C330 1.524 . S
C334 H346 0.956 . S
C334 H347 0.961 1_556 S
C334 H348 0.961 . S
C335 C332 1.539 . S
C335 H349 0.958 . S
C335 H350 0.961 . S
C335 H351 0.960 1_556 S
H336 C320 0.931 . S
H337 C325 0.929 . S
H338 C326 0.960 . S
H339 C326 0.962 . S
H340 C326 0.960 . S
H341 C327 0.961 . S
H342 C327 0.961 . S
H343 C327 0.961 . S
H344 C328 0.931 . S
H345 C333 0.930 . S
H346 C334 0.956 . S
H347 C334 0.961 1_554 S
H348 C334 0.961 . S
H349 C335 0.958 . S
H350 C335 0.961 . S
H351 C335 0.960 1_554 S
C352 C353 1.391 . S
C352 C354 1.394 . S
C352 H368 0.931 . S
C353 C352 1.391 . S
C353 C357 1.376 . S
C354 C352 1.394 . S
C354 C355 1.369 . S
C354 C358 1.531 . S
C355 C354 1.369 . S
C355 C356 1.410 . S
C355 C363 1.503 . S
C356 C355 1.410 . S
C356 C357 1.392 . S
C356 C359 1.511 . S
C357 C353 1.376 . S
C357 C356 1.392 . S
C357 H369 0.929 . S
C358 C354 1.531 . S
C358 H370 0.960 . S
C358 H371 0.962 . S
C358 H372 0.960 . S
C359 C356 1.511 . S
C359 H373 0.961 . S
C359 H374 0.961 . S
C359 H375 0.961 . S
C360 C361 1.370 . S
C360 C362 1.363 . S
C360 H376 0.931 . S
C361 C360 1.370 . S
C361 C365 1.408 . S
C362 C360 1.363 . S
C362 C363 1.370 . S
C362 C366 1.524 . S
C363 C355 1.503 . S
C363 C362 1.370 . S
C363 C364 1.403 . S
C364 C363 1.403 . S
C364 C365 1.404 . S
C364 C367 1.539 . S
C365 C361 1.408 . S
C365 C364 1.404 . S
C365 H377 0.930 . S
C366 C362 1.524 . S
C366 H378 0.956 . S
C366 H379 0.961 . S
C366 H380 0.961 . S
C367 C364 1.539 . S
C367 H381 0.958 . S
C367 H382 0.961 . S
C367 H383 0.960 . S
H368 C352 0.931 . S
H369 C357 0.929 . S
H370 C358 0.960 . S
H371 C358 0.962 . S
H372 C358 0.960 . S
H373 C359 0.961 . S
H374 C359 0.961 . S
H375 C359 0.961 . S
H376 C360 0.931 . S
H377 C365 0.930 . S
H378 C366 0.956 . S
H379 C366 0.961 . S
H380 C366 0.961 . S
H381 C367 0.958 . S
H382 C367 0.961 . S
H383 C367 0.960 . S
C384 C385 1.391 . S
C384 C386 1.394 . S
C384 H400 0.931 . S
C385 C384 1.391 . S
C385 C389 1.376 . S
C386 C384 1.394 . S
C386 C387 1.369 . S
C386 C390 1.531 . S
C387 C386 1.369 . S
C387 C388 1.410 . S
C387 C395 1.503 . S
C388 C387 1.410 . S
C388 C389 1.392 . S
C388 C391 1.511 1_545 S
C389 C385 1.376 . S
C389 C388 1.392 . S
C389 H401 0.930 1_545 S
C390 C386 1.531 . S
C390 H402 0.960 . S
C390 H403 0.962 . S
C390 H404 0.960 . S
C391 C388 1.511 1_565 S
C391 H405 0.961 . S
C391 H406 0.961 1_565 S
C391 H407 0.961 . S
C392 C393 1.370 . S
C392 C394 1.363 . S
C392 H408 0.931 . S
C393 C392 1.370 . S
C393 C397 1.408 1_545 S
C394 C392 1.363 . S
C394 C395 1.370 . S
C394 C398 1.524 . S
C395 C387 1.503 . S
C395 C394 1.370 . S
C395 C396 1.403 1_545 S
C396 C395 1.403 1_565 S
C396 C397 1.404 . S
C396 C399 1.539 . S
C397 C393 1.408 1_565 S
C397 C396 1.404 . S
C397 H409 0.930 . S
C398 C394 1.524 . S
C398 H410 0.956 . S
C398 H411 0.961 . S
C398 H412 0.961 . S
C399 C396 1.539 . S
C399 H413 0.958 . S
C399 H414 0.961 . S
C399 H415 0.960 . S
H400 C384 0.931 . S
H401 C389 0.930 1_565 S
H402 C390 0.960 . S
H403 C390 0.962 . S
H404 C390 0.960 . S
H405 C391 0.961 . S
H406 C391 0.961 1_545 S
H407 C391 0.961 . S
H408 C392 0.931 . S
H409 C397 0.930 . S
H410 C398 0.956 . S
H411 C398 0.961 . S
H412 C398 0.961 . S
H413 C399 0.958 . S
H414 C399 0.961 . S
H415 C399 0.960 . S
C416 C417 1.391 . S
C416 C418 1.394 . S
C416 H432 0.931 . S
C417 C416 1.391 . S
C417 C421 1.376 . S
C418 C416 1.394 . S
C418 C419 1.369 . S
C418 C422 1.531 . S
C419 C418 1.369 . S
C419 C420 1.410 . S
C419 C427 1.503 . S
C420 C419 1.410 . S
C420 C421 1.392 . S
C420 C423 1.511 . S
C421 C417 1.376 . S
C421 C420 1.392 . S
C421 H433 0.929 . S
C422 C418 1.531 . S
C422 H434 0.960 . S
C422 H435 0.962 . S
C422 H436 0.960 . S
C423 C420 1.511 . S
C423 H437 0.961 . S
C423 H438 0.961 . S
C423 H439 0.961 . S
C424 C425 1.370 . S
C424 C426 1.363 . S
C424 H440 0.931 . S
C425 C424 1.370 . S
C425 C429 1.408 . S
C426 C424 1.363 . S
C426 C427 1.370 . S
C426 C430 1.524 . S
C427 C419 1.503 . S
C427 C426 1.370 . S
C427 C428 1.403 . S
C428 C427 1.403 . S
C428 C429 1.404 . S
C428 C431 1.539 . S
C429 C425 1.408 . S
C429 C428 1.404 . S
C429 H441 0.930 . S
C430 C426 1.524 . S
C430 H442 0.956 . S
C430 H443 0.961 . S
C430 H444 0.961 . S
C431 C428 1.539 . S
C431 H445 0.958 . S
C431 H446 0.961 . S
C431 H447 0.960 . S
H432 C416 0.931 . S
H433 C421 0.929 . S
H434 C422 0.960 . S
H435 C422 0.962 . S
H436 C422 0.960 . S
H437 C423 0.961 . S
H438 C423 0.961 . S
H439 C423 0.961 . S
H440 C424 0.931 . S
H441 C429 0.930 . S
H442 C430 0.956 . S
H443 C430 0.961 . S
H444 C430 0.961 . S
H445 C431 0.958 . S
H446 C431 0.961 . S
H447 C431 0.960 . S
C448 C449 1.391 . S
C448 C450 1.394 . S
C448 H464 0.931 . S
C449 C448 1.391 . S
C449 C453 1.376 1_545 S
C450 C448 1.394 . S
C450 C451 1.369 . S
C450 C454 1.533 . S
C451 C450 1.369 . S
C451 C452 1.410 1_545 S
C451 C459 1.503 1_456 S
C452 C451 1.410 1_565 S
C452 C453 1.392 . S
C452 C455 1.511 1_455 S
C453 C449 1.376 1_565 S
C453 C452 1.392 . S
C453 H465 0.929 . S
C454 C450 1.533 . S
C454 H466 0.959 1_456 S
C454 H467 0.958 1_556 S
C454 H468 0.963 . S
C455 C452 1.511 1_655 S
C455 H469 0.961 1_655 S
C455 H470 0.961 1_556 S
C455 H471 0.961 . S
C456 C457 1.370 . S
C456 C458 1.363 . S
C456 H472 0.931 . S
C457 C456 1.370 . S
C457 C461 1.408 . S
C458 C456 1.363 . S
C458 C459 1.370 . S
C458 C462 1.524 1_655 S
C459 C451 1.503 1_654 S
C459 C458 1.370 . S
C459 C460 1.403 . S
C460 C459 1.403 . S
C460 C461 1.404 . S
C460 C463 1.539 1_554 S
C461 C457 1.408 . S
C461 C460 1.404 . S
C461 H473 0.930 . S
C462 C458 1.524 1_455 S
C462 H474 0.956 . S
C462 H475 0.961 1_545 S
C462 H476 0.961 . S
C463 C460 1.539 1_556 S
C463 H477 0.958 . S
C463 H478 0.961 . S
C463 H479 0.960 . S
H464 C448 0.931 . S
H465 C453 0.929 . S
H466 C454 0.959 1_654 S
H467 C454 0.958 1_554 S
H468 C454 0.963 . S
H469 C455 0.961 1_455 S
H470 C455 0.961 1_554 S
H471 C455 0.961 . S
H472 C456 0.931 . S
H473 C461 0.930 . S
H474 C462 0.956 . S
H475 C462 0.961 1_565 S
H476 C462 0.961 . S
H477 C463 0.958 . S
H478 C463 0.961 . S
H479 C463 0.960 . S
C480 C481 1.391 . S
C480 C482 1.394 . S
C480 H496 0.931 . S
C481 C480 1.391 . S
C481 C485 1.376 . S
C482 C480 1.394 . S
C482 C483 1.369 . S
C482 C486 1.531 . S
C483 C482 1.369 . S
C483 C484 1.410 . S
C483 C491 1.503 . S
C484 C483 1.410 . S
C484 C485 1.392 . S
C484 C487 1.511 . S
C485 C481 1.376 . S
C485 C484 1.392 . S
C485 H497 0.929 . S
C486 C482 1.531 . S
C486 H498 0.960 . S
C486 H499 0.962 . S
C486 H500 0.960 . S
C487 C484 1.511 . S
C487 H501 0.961 . S
C487 H502 0.961 . S
C487 H503 0.961 . S
C488 C489 1.370 . S
C488 C490 1.363 . S
C488 H504 0.931 . S
C489 C488 1.370 . S
C489 C493 1.408 . S
C490 C488 1.363 . S
C490 C491 1.370 . S
C490 C494 1.524 . S
C491 C483 1.503 . S
C491 C490 1.370 . S
C491 C492 1.403 . S
C492 C491 1.403 . S
C492 C493 1.404 . S
C492 C495 1.539 . S
C493 C489 1.408 . S
C493 C492 1.404 . S
C493 H505 0.930 . S
C494 C490 1.524 . S
C494 H506 0.956 . S
C494 H507 0.961 . S
C494 H508 0.961 . S
C495 C492 1.539 . S
C495 H509 0.958 . S
C495 H510 0.961 . S
C495 H511 0.960 . S
H496 C480 0.931 . S
H497 C485 0.929 . S
H498 C486 0.960 . S
H499 C486 0.962 . S
H500 C486 0.960 . S
H501 C487 0.961 . S
H502 C487 0.961 . S
H503 C487 0.961 . S
H504 C488 0.931 . S
H505 C493 0.930 . S
H506 C494 0.956 . S
H507 C494 0.961 . S
H508 C494 0.961 . S
H509 C495 0.958 . S
H510 C495 0.961 . S
H511 C495 0.960 . S
C512 C513 1.391 . S
C512 C514 1.394 . S
C512 H528 0.931 . S
C513 C512 1.391 . S
C513 C517 1.376 . S
C514 C512 1.394 . S
C514 C515 1.369 . S
C514 C518 1.531 . S
C515 C514 1.369 . S
C515 C516 1.410 . S
C515 C523 1.503 . S
C516 C515 1.410 . S
C516 C517 1.392 . S
C516 C519 1.511 . S
C517 C513 1.376 . S
C517 C516 1.392 . S
C517 H529 0.929 . S
C518 C514 1.531 . S
C518 H530 0.960 . S
C518 H531 0.962 . S
C518 H532 0.960 . S
C519 C516 1.511 . S
C519 H533 0.961 . S
C519 H534 0.961 . S
C519 H535 0.961 . S
C520 C521 1.370 . S
C520 C522 1.363 . S
C520 H536 0.931 . S
C521 C520 1.370 . S
C521 C525 1.408 . S
C522 C520 1.363 . S
C522 C523 1.370 . S
C522 C526 1.524 . S
C523 C515 1.503 . S
C523 C522 1.370 . S
C523 C524 1.403 . S
C524 C523 1.403 . S
C524 C525 1.404 . S
C524 C527 1.539 . S
C525 C521 1.408 . S
C525 C524 1.404 . S
C525 H537 0.930 . S
C526 C522 1.524 . S
C526 H538 0.956 . S
C526 H539 0.961 . S
C526 H540 0.961 . S
C527 C524 1.539 . S
C527 H541 0.958 . S
C527 H542 0.961 . S
C527 H543 0.960 . S
H528 C512 0.931 . S
H529 C517 0.929 . S
H530 C518 0.960 . S
H531 C518 0.962 . S
H532 C518 0.960 . S
H533 C519 0.961 . S
H534 C519 0.961 . S
H535 C519 0.961 . S
H536 C520 0.931 . S
H537 C525 0.930 . S
H538 C526 0.956 . S
H539 C526 0.961 . S
H540 C526 0.961 . S
H541 C527 0.958 . S
H542 C527 0.961 . S
H543 C527 0.960 . S
C544 C545 1.391 . S
C544 C546 1.394 . S
C544 H560 0.931 . S
C545 C544 1.391 . S
C545 C549 1.376 . S
C546 C544 1.394 . S
C546 C547 1.369 . S
C546 C550 1.531 . S
C547 C546 1.369 . S
C547 C548 1.410 . S
C547 C555 1.503 . S
C548 C547 1.410 . S
C548 C549 1.392 . S
C548 C551 1.511 . S
C549 C545 1.376 . S
C549 C548 1.392 . S
C549 H561 0.929 . S
C550 C546 1.531 . S
C550 H562 0.960 . S
C550 H563 0.962 . S
C550 H564 0.960 . S
C551 C548 1.511 . S
C551 H565 0.961 . S
C551 H566 0.961 . S
C551 H567 0.961 . S
C552 C553 1.370 . S
C552 C554 1.363 . S
C552 H568 0.931 . S
C553 C552 1.370 . S
C553 C557 1.408 . S
C554 C552 1.363 . S
C554 C555 1.370 . S
C554 C558 1.524 . S
C555 C547 1.503 . S
C555 C554 1.370 . S
C555 C556 1.403 . S
C556 C555 1.403 . S
C556 C557 1.404 . S
C556 C559 1.539 . S
C557 C553 1.408 . S
C557 C556 1.404 . S
C557 H569 0.930 . S
C558 C554 1.524 . S
C558 H570 0.956 . S
C558 H571 0.961 . S
C558 H572 0.961 . S
C559 C556 1.539 . S
C559 H573 0.958 . S
C559 H574 0.961 . S
C559 H575 0.960 . S
H560 C544 0.931 . S
H561 C549 0.929 . S
H562 C550 0.960 . S
H563 C550 0.962 . S
H564 C550 0.960 . S
H565 C551 0.961 . S
H566 C551 0.961 . S
H567 C551 0.961 . S
H568 C552 0.931 . S
H569 C557 0.930 . S
H570 C558 0.956 . S
H571 C558 0.961 . S
H572 C558 0.961 . S
H573 C559 0.958 . S
H574 C559 0.961 . S
H575 C559 0.960 . S
C576 C577 1.391 . S
C576 C578 1.394 . S
C576 H592 0.931 . S
C577 C576 1.391 . S
C577 C581 1.376 . S
C578 C576 1.394 . S
C578 C579 1.369 . S
C578 C582 1.531 . S
C579 C578 1.369 . S
C579 C580 1.410 . S
C579 C587 1.503 . S
C580 C579 1.410 . S
C580 C581 1.392 . S
C580 C583 1.511 . S
C581 C577 1.376 . S
C581 C580 1.392 . S
C581 H593 0.929 . S
C582 C578 1.531 . S
C582 H594 0.960 . S
C582 H595 0.962 . S
C582 H596 0.960 . S
C583 C580 1.511 . S
C583 H597 0.961 . S
C583 H598 0.961 . S
C583 H599 0.961 . S
C584 C585 1.370 . S
C584 C586 1.363 . S
C584 H600 0.931 . S
C585 C584 1.370 . S
C585 C589 1.408 . S
C586 C584 1.363 . S
C586 C587 1.370 . S
C586 C590 1.524 . S
C587 C579 1.503 . S
C587 C586 1.370 . S
C587 C588 1.403 . S
C588 C587 1.403 . S
C588 C589 1.404 . S
C588 C591 1.539 . S
C589 C585 1.408 . S
C589 C588 1.404 . S
C589 H601 0.930 . S
C590 C586 1.524 . S
C590 H602 0.956 . S
C590 H603 0.961 . S
C590 H604 0.961 . S
C591 C588 1.539 . S
C591 H605 0.958 . S
C591 H606 0.961 . S
C591 H607 0.960 . S
H592 C576 0.931 . S
H593 C581 0.929 . S
H594 C582 0.960 . S
H595 C582 0.962 . S
H596 C582 0.960 . S
H597 C583 0.961 . S
H598 C583 0.961 . S
H599 C583 0.961 . S
H600 C584 0.931 . S
H601 C589 0.930 . S
H602 C590 0.956 . S
H603 C590 0.961 . S
H604 C590 0.961 . S
H605 C591 0.958 . S
H606 C591 0.961 . S
H607 C591 0.960 . S
C608 C609 1.391 . S
C608 C610 1.394 . S
C608 H624 0.931 . S
C609 C608 1.391 . S
C609 C613 1.376 . S
C610 C608 1.394 . S
C610 C611 1.369 . S
C610 C614 1.531 . S
C611 C610 1.369 . S
C611 C612 1.410 . S
C611 C619 1.503 1_554 S
C612 C611 1.410 . S
C612 C613 1.392 . S
C612 C615 1.511 1_554 S
C613 C609 1.376 . S
C613 C612 1.392 . S
C613 H625 0.929 . S
C614 C610 1.531 . S
C614 H626 0.960 . S
C614 H627 0.962 . S
C614 H628 0.960 . S
C615 C612 1.511 1_556 S
C615 H629 0.961 . S
C615 H630 0.961 . S
C615 H631 0.961 . S
C616 C617 1.370 . S
C616 C618 1.363 . S
C616 H632 0.931 . S
C617 C616 1.370 . S
C617 C621 1.408 . S
C618 C616 1.363 . S
C618 C619 1.370 . S
C618 C622 1.524 1_556 S
C619 C611 1.503 1_556 S
C619 C618 1.370 . S
C619 C620 1.403 . S
C620 C619 1.403 . S
C620 C621 1.404 . S
C620 C623 1.539 . S
C621 C617 1.408 . S
C621 C620 1.404 . S
C621 H633 0.930 . S
C622 C618 1.524 1_554 S
C622 H634 0.956 . S
C622 H635 0.961 . S
C622 H636 0.961 . S
C623 C620 1.539 . S
C623 H637 0.958 . S
C623 H638 0.961 . S
C623 H639 0.960 . S
H624 C608 0.931 . S
H625 C613 0.929 . S
H626 C614 0.960 . S
H627 C614 0.962 . S
H628 C614 0.960 . S
H629 C615 0.961 . S
H630 C615 0.961 . S
H631 C615 0.961 . S
H632 C616 0.931 . S
H633 C621 0.930 . S
H634 C622 0.956 . S
H635 C622 0.961 . S
H636 C622 0.961 . S
H637 C623 0.958 . S
H638 C623 0.961 . S
H639 C623 0.960 . S
C640 C641 1.391 . S
C640 C642 1.394 . S
C640 H656 0.931 . S
C641 C640 1.391 . S
C641 C645 1.376 . S
C642 C640 1.394 . S
C642 C643 1.369 . S
C642 C646 1.531 . S
C643 C642 1.369 . S
C643 C644 1.410 . S
C643 C651 1.503 1_455 S
C644 C643 1.410 . S
C644 C645 1.392 . S
C644 C647 1.511 1_455 S
C645 C641 1.376 . S
C645 C644 1.392 . S
C645 H657 0.929 . S
C646 C642 1.531 . S
C646 H658 0.960 . S
C646 H659 0.962 . S
C646 H660 0.960 . S
C647 C644 1.511 1_655 S
C647 H661 0.961 . S
C647 H662 0.961 . S
C647 H663 0.961 . S
C648 C649 1.370 . S
C648 C650 1.363 . S
C648 H664 0.931 . S
C649 C648 1.370 . S
C649 C653 1.408 . S
C650 C648 1.363 . S
C650 C651 1.370 . S
C650 C654 1.524 1_655 S
C651 C643 1.503 1_655 S
C651 C650 1.370 . S
C651 C652 1.403 . S
C652 C651 1.403 . S
C652 C653 1.404 . S
C652 C655 1.539 . S
C653 C649 1.408 . S
C653 C652 1.404 . S
C653 H665 0.930 . S
C654 C650 1.524 1_455 S
C654 H666 0.956 . S
C654 H667 0.961 . S
C654 H668 0.961 . S
C655 C652 1.539 . S
C655 H669 0.958 . S
C655 H670 0.961 . S
C655 H671 0.960 . S
H656 C640 0.931 . S
H657 C645 0.929 . S
H658 C646 0.960 . S
H659 C646 0.962 . S
H660 C646 0.960 . S
H661 C647 0.961 . S
H662 C647 0.961 . S
H663 C647 0.961 . S
H664 C648 0.931 . S
H665 C653 0.930 . S
H666 C654 0.956 . S
H667 C654 0.961 . S
H668 C654 0.961 . S
H669 C655 0.958 . S
H670 C655 0.961 . S
H671 C655 0.960 . S
C672 C673 1.391 . S
C672 C674 1.394 . S
C672 H688 0.931 . S
C673 C672 1.391 . S
C673 C677 1.376 . S
C674 C672 1.394 . S
C674 C675 1.369 . S
C674 C678 1.531 . S
C675 C674 1.369 . S
C675 C676 1.410 . S
C675 C683 1.503 1_454 S
C676 C675 1.410 . S
C676 C677 1.392 . S
C676 C679 1.511 . S
C677 C673 1.376 . S
C677 C676 1.392 . S
C677 H689 0.929 . S
C678 C674 1.531 . S
C678 H690 0.957 1_455 S
C678 H691 0.962 1_455 S
C678 H692 0.960 . S
C679 C676 1.511 . S
C679 H693 0.961 . S
C679 H694 0.961 1_554 S
C679 H695 0.961 1_554 S
C680 C681 1.370 . S
C680 C682 1.360 1_556 S
C680 H696 0.931 . S
C681 C680 1.370 . S
C681 C685 1.408 . S
C682 C680 1.360 1_554 S
C682 C683 1.369 1_554 S
C682 C686 1.528 . S
C683 C675 1.503 1_656 S
C683 C682 1.369 1_556 S
C683 C684 1.408 . S
C684 C683 1.408 . S
C684 C685 1.423 . S
C684 C687 1.514 1_655 S
C685 C681 1.408 . S
C685 C684 1.423 . S
C685 H697 0.930 . S
C686 C682 1.528 . S
C686 H698 0.956 . S
C686 H699 0.961 . S
C686 H700 0.961 . S
C687 C684 1.514 1_455 S
C687 H701 0.958 . S
C687 H702 0.961 . S
C687 H703 0.960 . S
H688 C672 0.931 . S
H689 C677 0.929 . S
H690 C678 0.957 1_655 S
H691 C678 0.962 1_655 S
H692 C678 0.960 . S
H693 C679 0.961 . S
H694 C679 0.961 1_556 S
H695 C679 0.961 1_556 S
H696 C680 0.931 . S
H697 C685 0.930 . S
H698 C686 0.956 . S
H699 C686 0.961 . S
H700 C686 0.961 . S
H701 C687 0.958 . S
H702 C687 0.961 . S
H703 C687 0.960 . S
C704 C705 1.391 . S
C704 C706 1.394 . S
C704 H720 0.931 . S
C705 C704 1.391 . S
C705 C709 1.376 . S
C706 C704 1.394 . S
C706 C707 1.369 . S
C706 C710 1.531 . S
C707 C706 1.369 . S
C707 C708 1.410 . S
C707 C715 1.503 . S
C708 C707 1.410 . S
C708 C709 1.392 . S
C708 C711 1.511 . S
C709 C705 1.376 . S
C709 C708 1.392 . S
C709 H721 0.929 . S
C710 C706 1.531 . S
C710 H722 0.960 . S
C710 H723 0.962 . S
C710 H724 0.960 . S
C711 C708 1.511 . S
C711 H725 0.961 . S
C711 H726 0.961 . S
C711 H727 0.961 . S
C712 C713 1.370 . S
C712 C714 1.363 . S
C712 H728 0.931 . S
C713 C712 1.370 . S
C713 C717 1.408 . S
C714 C712 1.363 . S
C714 C715 1.370 . S
C714 C718 1.524 . S
C715 C707 1.503 . S
C715 C714 1.370 . S
C715 C716 1.403 . S
C716 C715 1.403 . S
C716 C717 1.404 . S
C716 C719 1.539 . S
C717 C713 1.408 . S
C717 C716 1.404 . S
C717 H729 0.930 . S
C718 C714 1.524 . S
C718 H730 0.956 . S
C718 H731 0.961 . S
C718 H732 0.961 . S
C719 C716 1.539 . S
C719 H733 0.958 . S
C719 H734 0.961 . S
C719 H735 0.960 . S
H720 C704 0.931 . S
H721 C709 0.929 . S
H722 C710 0.960 . S
H723 C710 0.962 . S
H724 C710 0.960 . S
H725 C711 0.961 . S
H726 C711 0.961 . S
H727 C711 0.961 . S
H728 C712 0.931 . S
H729 C717 0.930 . S
H730 C718 0.956 . S
H731 C718 0.961 . S
H732 C718 0.961 . S
H733 C719 0.958 . S
H734 C719 0.961 . S
H735 C719 0.960 . S
C736 C737 1.391 . S
C736 C738 1.394 . S
C736 H752 0.931 . S
C737 C736 1.391 . S
C737 C741 1.376 . S
C738 C736 1.394 . S
C738 C739 1.369 . S
C738 C742 1.531 . S
C739 C738 1.369 . S
C739 C740 1.410 . S
C739 C747 1.503 . S
C740 C739 1.410 . S
C740 C741 1.392 . S
C740 C743 1.511 . S
C741 C737 1.376 . S
C741 C740 1.392 . S
C741 H753 0.929 . S
C742 C738 1.531 . S
C742 H754 0.960 . S
C742 H755 0.962 . S
C742 H756 0.960 . S
C743 C740 1.511 . S
C743 H757 0.961 . S
C743 H758 0.961 . S
C743 H759 0.961 . S
C744 C745 1.370 . S
C744 C746 1.363 . S
C744 H760 0.931 . S
C745 C744 1.370 . S
C745 C749 1.408 . S
C746 C744 1.363 . S
C746 C747 1.370 . S
C746 C750 1.524 . S
C747 C739 1.503 . S
C747 C746 1.370 . S
C747 C748 1.403 . S
C748 C747 1.403 . S
C748 C749 1.404 . S
C748 C751 1.539 . S
C749 C745 1.408 . S
C749 C748 1.404 . S
C749 H761 0.930 . S
C750 C746 1.524 . S
C750 H762 0.956 . S
C750 H763 0.961 . S
C750 H764 0.961 . S
C751 C748 1.539 . S
C751 H765 0.958 . S
C751 H766 0.961 . S
C751 H767 0.960 . S
H752 C736 0.931 . S
H753 C741 0.929 . S
H754 C742 0.960 . S
H755 C742 0.962 . S
H756 C742 0.960 . S
H757 C743 0.961 . S
H758 C743 0.961 . S
H759 C743 0.961 . S
H760 C744 0.931 . S
H761 C749 0.930 . S
H762 C750 0.956 . S
H763 C750 0.961 . S
H764 C750 0.961 . S
H765 C751 0.958 . S
H766 C751 0.961 . S
H767 C751 0.960 . S
C768 C769 1.391 . S
C768 C770 1.394 . S
C768 H784 0.931 . S
C769 C768 1.391 . S
C769 C773 1.376 . S
C770 C768 1.394 . S
C770 C771 1.369 . S
C770 C774 1.531 . S
C771 C770 1.369 . S
C771 C772 1.410 . S
C771 C779 1.503 . S
C772 C771 1.410 . S
C772 C773 1.392 . S
C772 C775 1.511 . S
C773 C769 1.376 . S
C773 C772 1.392 . S
C773 H785 0.929 . S
C774 C770 1.531 . S
C774 H786 0.960 . S
C774 H787 0.962 . S
C774 H788 0.960 . S
C775 C772 1.511 . S
C775 H789 0.961 . S
C775 H790 0.961 . S
C775 H791 0.961 . S
C776 C777 1.370 . S
C776 C778 1.363 . S
C776 H792 0.931 . S
C777 C776 1.370 . S
C777 C781 1.408 . S
C778 C776 1.363 . S
C778 C779 1.370 . S
C778 C782 1.524 . S
C779 C771 1.503 . S
C779 C778 1.370 . S
C779 C780 1.403 . S
C780 C779 1.403 . S
C780 C781 1.404 . S
C780 C783 1.539 . S
C781 C777 1.408 . S
C781 C780 1.404 . S
C781 H793 0.930 . S
C782 C778 1.524 . S
C782 H794 0.956 . S
C782 H795 0.961 . S
C782 H796 0.961 . S
C783 C780 1.539 . S
C783 H797 0.958 . S
C783 H798 0.961 . S
C783 H799 0.960 . S
H784 C768 0.931 . S
H785 C773 0.929 . S
H786 C774 0.960 . S
H787 C774 0.962 . S
H788 C774 0.960 . S
H789 C775 0.961 . S
H790 C775 0.961 . S
H791 C775 0.961 . S
H792 C776 0.931 . S
H793 C781 0.930 . S
H794 C782 0.956 . S
H795 C782 0.961 . S
H796 C782 0.961 . S
H797 C783 0.958 . S
H798 C783 0.961 . S
H799 C783 0.960 . S
C800 C801 1.391 . S
C800 C802 1.394 . S
C800 H816 0.931 . S
C801 C800 1.391 . S
C801 C805 1.376 . S
C802 C800 1.394 . S
C802 C803 1.369 . S
C802 C806 1.531 . S
C803 C802 1.369 . S
C803 C804 1.410 . S
C803 C811 1.503 . S
C804 C803 1.410 . S
C804 C805 1.392 . S
C804 C807 1.511 . S
C805 C801 1.376 . S
C805 C804 1.392 . S
C805 H817 0.929 . S
C806 C802 1.531 . S
C806 H818 0.960 . S
C806 H819 0.962 . S
C806 H820 0.960 . S
C807 C804 1.511 . S
C807 H821 0.961 . S
C807 H822 0.961 . S
C807 H823 0.961 . S
C808 C809 1.370 . S
C808 C810 1.363 . S
C808 H824 0.931 . S
C809 C808 1.370 . S
C809 C813 1.408 . S
C810 C808 1.363 . S
C810 C811 1.370 . S
C810 C814 1.524 . S
C811 C803 1.503 . S
C811 C810 1.370 . S
C811 C812 1.403 . S
C812 C811 1.403 . S
C812 C813 1.404 . S
C812 C815 1.539 . S
C813 C809 1.408 . S
C813 C812 1.404 . S
C813 H825 0.930 . S
C814 C810 1.524 . S
C814 H826 0.956 . S
C814 H827 0.961 . S
C814 H828 0.961 . S
C815 C812 1.539 . S
C815 H829 0.958 . S
C815 H830 0.961 . S
C815 H831 0.960 . S
H816 C800 0.931 . S
H817 C805 0.929 . S
H818 C806 0.960 . S
H819 C806 0.962 . S
H820 C806 0.960 . S
H821 C807 0.961 . S
H822 C807 0.961 . S
H823 C807 0.961 . S
H824 C808 0.931 . S
H825 C813 0.930 . S
H826 C814 0.956 . S
H827 C814 0.961 . S
H828 C814 0.961 . S
H829 C815 0.958 . S
H830 C815 0.961 . S
H831 C815 0.960 . S
C832 C833 1.391 . S
C832 C834 1.394 . S
C832 H848 0.931 . S
C833 C832 1.391 . S
C833 C837 1.376 . S
C834 C832 1.394 . S
C834 C835 1.369 . S
C834 C838 1.531 . S
C835 C834 1.369 . S
C835 C836 1.410 . S
C835 C843 1.503 . S
C836 C835 1.410 . S
C836 C837 1.392 . S
C836 C839 1.511 . S
C837 C833 1.376 . S
C837 C836 1.392 . S
C837 H849 0.929 . S
C838 C834 1.531 . S
C838 H850 0.960 . S
C838 H851 0.962 . S
C838 H852 0.960 . S
C839 C836 1.511 . S
C839 H853 0.961 . S
C839 H854 0.961 . S
C839 H855 0.961 . S
C840 C841 1.370 . S
C840 C842 1.363 . S
C840 H856 0.931 . S
C841 C840 1.370 . S
C841 C845 1.408 . S
C842 C840 1.363 . S
C842 C843 1.370 . S
C842 C846 1.524 . S
C843 C835 1.503 . S
C843 C842 1.370 . S
C843 C844 1.403 . S
C844 C843 1.403 . S
C844 C845 1.404 . S
C844 C847 1.539 . S
C845 C841 1.408 . S
C845 C844 1.404 . S
C845 H857 0.930 . S
C846 C842 1.524 . S
C846 H858 0.956 . S
C846 H859 0.961 . S
C846 H860 0.961 . S
C847 C844 1.539 . S
C847 H861 0.958 . S
C847 H862 0.961 . S
C847 H863 0.960 . S
H848 C832 0.931 . S
H849 C837 0.929 . S
H850 C838 0.960 . S
H851 C838 0.962 . S
H852 C838 0.960 . S
H853 C839 0.961 . S
H854 C839 0.961 . S
H855 C839 0.961 . S
H856 C840 0.931 . S
H857 C845 0.930 . S
H858 C846 0.956 . S
H859 C846 0.961 . S
H860 C846 0.961 . S
H861 C847 0.958 . S
H862 C847 0.961 . S
H863 C847 0.960 . S
C864 C865 1.391 . S
C864 C866 1.394 . S
C864 H880 0.931 . S
C865 C864 1.391 . S
C865 C869 1.376 . S
C866 C864 1.394 . S
C866 C867 1.369 . S
C866 C870 1.531 . S
C867 C866 1.369 . S
C867 C868 1.410 . S
C867 C875 1.503 . S
C868 C867 1.410 . S
C868 C869 1.392 . S
C868 C871 1.511 . S
C869 C865 1.376 . S
C869 C868 1.392 . S
C869 H881 0.929 . S
C870 C866 1.531 . S
C870 H882 0.960 . S
C870 H883 0.962 . S
C870 H884 0.960 . S
C871 C868 1.511 . S
C871 H885 0.961 . S
C871 H886 0.961 . S
C871 H887 0.961 . S
C872 C873 1.370 . S
C872 C874 1.363 . S
C872 H888 0.931 . S
C873 C872 1.370 . S
C873 C877 1.408 . S
C874 C872 1.363 . S
C874 C875 1.370 . S
C874 C878 1.524 . S
C875 C867 1.503 . S
C875 C874 1.370 . S
C875 C876 1.403 . S
C876 C875 1.403 . S
C876 C877 1.404 . S
C876 C879 1.539 . S
C877 C873 1.408 . S
C877 C876 1.404 . S
C877 H889 0.930 . S
C878 C874 1.524 . S
C878 H890 0.956 . S
C878 H891 0.961 . S
C878 H892 0.961 . S
C879 C876 1.539 . S
C879 H893 0.958 . S
C879 H894 0.961 . S
C879 H895 0.960 . S
H880 C864 0.931 . S
H881 C869 0.929 . S
H882 C870 0.960 . S
H883 C870 0.962 . S
H884 C870 0.960 . S
H885 C871 0.961 . S
H886 C871 0.961 . S
H887 C871 0.961 . S
H888 C872 0.931 . S
H889 C877 0.930 . S
H890 C878 0.956 . S
H891 C878 0.961 . S
H892 C878 0.961 . S
H893 C879 0.958 . S
H894 C879 0.961 . S
H895 C879 0.960 . S
C896 C897 1.391 . S
C896 C898 1.394 . S
C896 H912 0.931 . S
C897 C896 1.391 . S
C897 C901 1.376 . S
C898 C896 1.394 . S
C898 C899 1.369 . S
C898 C902 1.531 . S
C899 C898 1.369 . S
C899 C900 1.410 . S
C899 C907 1.503 . S
C900 C899 1.410 . S
C900 C901 1.392 . S
C900 C903 1.511 . S
C901 C897 1.376 . S
C901 C900 1.392 . S
C901 H913 0.929 . S
C902 C898 1.531 . S
C902 H914 0.960 . S
C902 H915 0.962 . S
C902 H916 0.960 . S
C903 C900 1.511 . S
C903 H917 0.961 . S
C903 H918 0.961 . S
C903 H919 0.961 . S
C904 C905 1.370 . S
C904 C906 1.363 . S
C904 H920 0.931 . S
C905 C904 1.370 . S
C905 C909 1.408 . S
C906 C904 1.363 . S
C906 C907 1.370 . S
C906 C910 1.524 . S
C907 C899 1.503 . S
C907 C906 1.370 . S
C907 C908 1.403 . S
C908 C907 1.403 . S
C908 C909 1.404 . S
C908 C911 1.539 . S
C909 C905 1.408 . S
C909 C908 1.404 . S
C909 H921 0.930 . S
C910 C906 1.524 . S
C910 H922 0.956 . S
C910 H923 0.961 . S
C910 H924 0.961 . S
C911 C908 1.539 . S
C911 H925 0.958 . S
C911 H926 0.961 . S
C911 H927 0.960 . S
H912 C896 0.931 . S
H913 C901 0.929 . S
H914 C902 0.960 . S
H915 C902 0.962 . S
H916 C902 0.960 . S
H917 C903 0.961 . S
H918 C903 0.961 . S
H919 C903 0.961 . S
H920 C904 0.931 . S
H921 C909 0.930 . S
H922 C910 0.956 . S
H923 C910 0.961 . S
H924 C910 0.961 . S
H925 C911 0.958 . S
H926 C911 0.961 . S
H927 C911 0.960 . S
C928 C929 1.391 . S
C928 C930 1.394 . S
C928 H944 0.931 . S
C929 C928 1.391 . S
C929 C933 1.376 . S
C930 C928 1.394 . S
C930 C931 1.369 . S
C930 C934 1.531 . S
C931 C930 1.369 . S
C931 C932 1.410 . S
C931 C939 1.503 . S
C932 C931 1.410 . S
C932 C933 1.392 . S
C932 C935 1.511 . S
C933 C929 1.376 . S
C933 C932 1.392 . S
C933 H945 0.929 . S
C934 C930 1.531 . S
C934 H946 0.960 . S
C934 H947 0.962 . S
C934 H948 0.960 . S
C935 C932 1.511 . S
C935 H949 0.961 . S
C935 H950 0.961 . S
C935 H951 0.961 . S
C936 C937 1.370 . S
C936 C938 1.363 . S
C936 H952 0.931 . S
C937 C936 1.370 . S
C937 C941 1.408 . S
C938 C936 1.363 . S
C938 C939 1.370 . S
C938 C942 1.524 . S
C939 C931 1.503 . S
C939 C938 1.370 . S
C939 C940 1.403 . S
C940 C939 1.403 . S
C940 C941 1.404 . S
C940 C943 1.539 . S
C941 C937 1.408 . S
C941 C940 1.404 . S
C941 H953 0.937 . S
C942 C938 1.524 . S
C942 H954 0.956 . S
C942 H955 0.961 . S
C942 H956 0.961 . S
C943 C940 1.539 . S
C943 H957 0.958 1_556 S
C943 H958 0.961 . S
C943 H959 0.960 . S
H944 C928 0.931 . S
H945 C933 0.929 . S
H946 C934 0.960 . S
H947 C934 0.962 . S
H948 C934 0.960 . S
H949 C935 0.961 . S
H950 C935 0.961 . S
H951 C935 0.961 . S
H952 C936 0.931 . S
H953 C941 0.937 . S
H954 C942 0.956 . S
H955 C942 0.961 . S
H956 C942 0.961 . S
H957 C943 0.958 1_554 S
H958 C943 0.961 . S
H959 C943 0.960 . S
C960 C961 1.391 . S
C960 C962 1.394 . S
C960 H976 0.931 . S
C961 C960 1.391 . S
C961 C965 1.376 . S
C962 C960 1.394 . S
C962 C963 1.369 . S
C962 C966 1.531 . S
C963 C962 1.369 . S
C963 C964 1.410 . S
C963 C971 1.503 . S
C964 C963 1.410 . S
C964 C965 1.392 . S
C964 C967 1.511 . S
C965 C961 1.376 . S
C965 C964 1.392 . S
C965 H977 0.929 . S
C966 C962 1.531 . S
C966 H978 0.960 . S
C966 H979 0.962 . S
C966 H980 0.960 . S
C967 C964 1.511 . S
C967 H981 0.961 1_554 S
C967 H982 0.961 . S
C967 H983 0.961 . S
C968 C969 1.370 . S
C968 C970 1.363 . S
C968 H984 0.931 . S
C969 C968 1.370 . S
C969 C973 1.408 . S
C970 C968 1.363 . S
C970 C971 1.370 . S
C970 C974 1.524 . S
C971 C963 1.503 . S
C971 C970 1.370 . S
C971 C972 1.403 . S
C972 C971 1.403 . S
C972 C973 1.404 . S
C972 C975 1.539 . S
C973 C969 1.408 . S
C973 C972 1.404 . S
C973 H985 0.930 . S
C974 C970 1.524 . S
C974 H986 0.956 . S
C974 H987 0.961 . S
C974 H988 0.961 . S
C975 C972 1.539 . S
C975 H989 0.958 . S
C975 H990 0.961 . S
C975 H991 0.960 . S
H976 C960 0.931 . S
H977 C965 0.929 . S
H978 C966 0.960 . S
H979 C966 0.962 . S
H980 C966 0.960 . S
H981 C967 0.961 1_556 S
H982 C967 0.961 . S
H983 C967 0.961 . S
H984 C968 0.931 . S
H985 C973 0.930 . S
H986 C974 0.956 . S
H987 C974 0.961 . S
H988 C974 0.961 . S
H989 C975 0.958 . S
H990 C975 0.961 . S
H991 C975 0.960 . S
C992 C993 1.391 . S
C992 C994 1.394 . S
C992 H1008 0.931 . S
C993 C992 1.391 . S
C993 C997 1.376 . S
C994 C992 1.394 . S
C994 C995 1.369 . S
C994 C998 1.531 . S
C995 C994 1.369 . S
C995 C996 1.410 . S
C995 C1003 1.503 . S
C996 C995 1.410 . S
C996 C997 1.392 . S
C996 C999 1.511 . S
C997 C993 1.376 . S
C997 C996 1.392 . S
C997 H1009 0.929 . S
C998 C994 1.531 . S
C998 H1010 0.960 . S
C998 H1011 0.962 . S
C998 H1012 0.960 . S
C999 C996 1.511 . S
C999 H1013 0.961 . S
C999 H1014 0.961 . S
C999 H1015 0.961 . S
C1000 C1001 1.370 . S
C1000 C1002 1.363 . S
C1000 H1016 0.931 . S
C1001 C1000 1.370 . S
C1001 C1005 1.408 . S
C1002 C1000 1.363 . S
C1002 C1003 1.370 . S
C1002 C1006 1.524 . S
C1003 C995 1.503 . S
C1003 C1002 1.370 . S
C1003 C1004 1.403 . S
C1004 C1003 1.403 . S
C1004 C1005 1.404 . S
C1004 C1007 1.539 . S
C1005 C1001 1.408 . S
C1005 C1004 1.404 . S
C1005 H1017 0.930 . S
C1006 C1002 1.524 . S
C1006 H1018 0.956 . S
C1006 H1019 0.961 . S
C1006 H1020 0.961 . S
C1007 C1004 1.539 . S
C1007 H1021 0.958 . S
C1007 H1022 0.961 . S
C1007 H1023 0.960 . S
H1008 C992 0.931 . S
H1009 C997 0.929 . S
H1010 C998 0.960 . S
H1011 C998 0.962 . S
H1012 C998 0.960 . S
H1013 C999 0.961 . S
H1014 C999 0.961 . S
H1015 C999 0.961 . S
H1016 C1000 0.931 . S
H1017 C1005 0.930 . S
H1018 C1006 0.956 . S
H1019 C1006 0.961 . S
H1020 C1006 0.961 . S
H1021 C1007 0.958 . S
H1022 C1007 0.961 . S
H1023 C1007 0.960 . S
C1024 C1025 1.391 . S
C1024 C1026 1.394 . S
C1024 H1040 0.931 . S
C1025 C1024 1.391 . S
C1025 C1029 1.376 . S
C1026 C1024 1.394 . S
C1026 C1027 1.369 . S
C1026 C1030 1.531 . S
C1027 C1026 1.369 . S
C1027 C1028 1.410 . S
C1027 C1035 1.503 . S
C1028 C1027 1.410 . S
C1028 C1029 1.392 . S
C1028 C1031 1.511 . S
C1029 C1025 1.376 . S
C1029 C1028 1.392 . S
C1029 H1041 0.929 . S
C1030 C1026 1.531 . S
C1030 H1042 0.960 . S
C1030 H1043 0.962 . S
C1030 H1044 0.960 . S
C1031 C1028 1.511 . S
C1031 H1045 0.961 . S
C1031 H1046 0.961 . S
C1031 H1047 0.961 . S
C1032 C1033 1.370 . S
C1032 C1034 1.363 . S
C1032 H1048 0.931 . S
C1033 C1032 1.370 . S
C1033 C1037 1.408 . S
C1034 C1032 1.363 . S
C1034 C1035 1.370 . S
C1034 C1038 1.524 . S
C1035 C1027 1.503 . S
C1035 C1034 1.370 . S
C1035 C1036 1.403 . S
C1036 C1035 1.403 . S
C1036 C1037 1.404 . S
C1036 C1039 1.539 . S
C1037 C1033 1.408 . S
C1037 C1036 1.404 . S
C1037 H1049 0.930 . S
C1038 C1034 1.524 . S
C1038 H1050 0.956 . S
C1038 H1051 0.961 . S
C1038 H1052 0.961 . S
C1039 C1036 1.539 . S
C1039 H1053 0.958 . S
C1039 H1054 0.961 . S
C1039 H1055 0.960 . S
H1040 C1024 0.931 . S
H1041 C1029 0.929 . S
H1042 C1030 0.960 . S
H1043 C1030 0.962 . S
H1044 C1030 0.960 . S
H1045 C1031 0.961 . S
H1046 C1031 0.961 . S
H1047 C1031 0.961 . S
H1048 C1032 0.931 . S
H1049 C1037 0.930 . S
H1050 C1038 0.956 . S
H1051 C1038 0.961 . S
H1052 C1038 0.961 . S
H1053 C1039 0.958 . S
H1054 C1039 0.961 . S
H1055 C1039 0.960 . S
C1056 C1057 1.391 . S
C1056 C1058 1.394 . S
C1056 H1072 0.931 . S
C1057 C1056 1.391 . S
C1057 C1061 1.376 . S
C1058 C1056 1.394 . S
C1058 C1059 1.369 . S
C1058 C1062 1.531 . S
C1059 C1058 1.369 . S
C1059 C1060 1.410 . S
C1059 C1067 1.503 . S
C1060 C1059 1.410 . S
C1060 C1061 1.392 . S
C1060 C1063 1.511 . S
C1061 C1057 1.376 . S
C1061 C1060 1.392 . S
C1061 H1073 0.929 . S
C1062 C1058 1.531 . S
C1062 H1074 0.960 . S
C1062 H1075 0.962 . S
C1062 H1076 0.960 . S
C1063 C1060 1.511 . S
C1063 H1077 0.961 . S
C1063 H1078 0.961 . S
C1063 H1079 0.961 . S
C1064 C1065 1.370 . S
C1064 C1066 1.363 . S
C1064 H1080 0.931 . S
C1065 C1064 1.370 . S
C1065 C1069 1.408 . S
C1066 C1064 1.363 . S
C1066 C1067 1.370 . S
C1066 C1070 1.524 . S
C1067 C1059 1.503 . S
C1067 C1066 1.370 . S
C1067 C1068 1.403 . S
C1068 C1067 1.403 . S
C1068 C1069 1.404 . S
C1068 C1071 1.539 . S
C1069 C1065 1.408 . S
C1069 C1068 1.404 . S
C1069 H1081 0.930 . S
C1070 C1066 1.524 . S
C1070 H1082 0.956 . S
C1070 H1083 0.961 . S
C1070 H1084 0.961 . S
C1071 C1068 1.539 . S
C1071 H1085 0.958 . S
C1071 H1086 0.961 . S
C1071 H1087 0.960 . S
H1072 C1056 0.931 . S
H1073 C1061 0.929 . S
H1074 C1062 0.960 . S
H1075 C1062 0.962 . S
H1076 C1062 0.960 . S
H1077 C1063 0.961 . S
H1078 C1063 0.961 . S
H1079 C1063 0.961 . S
H1080 C1064 0.931 . S
H1081 C1069 0.930 . S
H1082 C1070 0.956 . S
H1083 C1070 0.961 . S
H1084 C1070 0.961 . S
H1085 C1071 0.958 . S
H1086 C1071 0.961 . S
H1087 C1071 0.960 . S
C1088 C1089 1.391 . S
C1088 C1090 1.394 . S
C1088 H1104 0.931 . S
C1089 C1088 1.391 . S
C1089 C1093 1.376 . S
C1090 C1088 1.394 . S
C1090 C1091 1.369 . S
C1090 C1094 1.531 . S
C1091 C1090 1.369 . S
C1091 C1092 1.410 . S
C1091 C1099 1.503 . S
C1092 C1091 1.410 . S
C1092 C1093 1.392 . S
C1092 C1095 1.511 . S
C1093 C1089 1.376 . S
C1093 C1092 1.392 . S
C1093 H1105 0.929 . S
C1094 C1090 1.531 . S
C1094 H1106 0.960 . S
C1094 H1107 0.962 . S
C1094 H1108 0.960 . S
C1095 C1092 1.511 . S
C1095 H1109 0.961 . S
C1095 H1110 0.961 . S
C1095 H1111 0.961 . S
C1096 C1097 1.370 . S
C1096 C1098 1.363 . S
C1096 H1112 0.931 . S
C1097 C1096 1.370 . S
C1097 C1101 1.408 . S
C1098 C1096 1.363 . S
C1098 C1099 1.370 . S
C1098 C1102 1.524 . S
C1099 C1091 1.503 . S
C1099 C1098 1.370 . S
C1099 C1100 1.403 . S
C1100 C1099 1.403 . S
C1100 C1101 1.404 . S
C1100 C1103 1.539 . S
C1101 C1097 1.408 . S
C1101 C1100 1.404 . S
C1101 H1113 0.930 . S
C1102 C1098 1.524 . S
C1102 H1114 0.956 . S
C1102 H1115 0.961 . S
C1102 H1116 0.961 . S
C1103 C1100 1.539 . S
C1103 H1117 0.958 . S
C1103 H1118 0.961 . S
C1103 H1119 0.960 . S
H1104 C1088 0.931 . S
H1105 C1093 0.929 . S
H1106 C1094 0.960 . S
H1107 C1094 0.962 . S
H1108 C1094 0.960 . S
H1109 C1095 0.961 . S
H1110 C1095 0.961 . S
H1111 C1095 0.961 . S
H1112 C1096 0.931 . S
H1113 C1101 0.930 . S
H1114 C1102 0.956 . S
H1115 C1102 0.961 . S
H1116 C1102 0.961 . S
H1117 C1103 0.958 . S
H1118 C1103 0.961 . S
H1119 C1103 0.960 . S
C1120 C1121 1.391 . S
C1120 C1122 1.394 . S
C1120 H1136 0.931 . S
C1121 C1120 1.391 . S
C1121 C1125 1.376 . S
C1122 C1120 1.394 . S
C1122 C1123 1.369 . S
C1122 C1126 1.531 . S
C1123 C1122 1.369 . S
C1123 C1124 1.410 . S
C1123 C1131 1.503 . S
C1124 C1123 1.410 . S
C1124 C1125 1.392 . S
C1124 C1127 1.511 . S
C1125 C1121 1.376 . S
C1125 C1124 1.392 . S
C1125 H1137 0.929 . S
C1126 C1122 1.531 . S
C1126 H1138 0.960 . S
C1126 H1139 0.962 . S
C1126 H1140 0.960 . S
C1127 C1124 1.511 . S
C1127 H1141 0.961 . S
C1127 H1142 0.961 . S
C1127 H1143 0.961 . S
C1128 C1129 1.370 . S
C1128 C1130 1.363 . S
C1128 H1144 0.931 . S
C1129 C1128 1.370 . S
C1129 C1133 1.408 . S
C1130 C1128 1.363 . S
C1130 C1131 1.370 . S
C1130 C1134 1.524 . S
C1131 C1123 1.503 . S
C1131 C1130 1.370 . S
C1131 C1132 1.403 . S
C1132 C1131 1.403 . S
C1132 C1133 1.404 . S
C1132 C1135 1.539 . S
C1133 C1129 1.408 . S
C1133 C1132 1.404 . S
C1133 H1145 0.930 . S
C1134 C1130 1.524 . S
C1134 H1146 0.956 . S
C1134 H1147 0.961 . S
C1134 H1148 0.961 . S
C1135 C1132 1.539 . S
C1135 H1149 0.958 . S
C1135 H1150 0.961 . S
C1135 H1151 0.960 . S
H1136 C1120 0.931 . S
H1137 C1125 0.929 . S
H1138 C1126 0.960 . S
H1139 C1126 0.962 . S
H1140 C1126 0.960 . S
H1141 C1127 0.961 . S
H1142 C1127 0.961 . S
H1143 C1127 0.961 . S
H1144 C1128 0.931 . S
H1145 C1133 0.930 . S
H1146 C1134 0.956 . S
H1147 C1134 0.961 . S
H1148 C1134 0.961 . S
H1149 C1135 0.958 . S
H1150 C1135 0.961 . S
H1151 C1135 0.960 . S
C1152 C1153 1.391 . S
C1152 C1154 1.394 . S
C1152 H1168 0.931 . S
C1153 C1152 1.391 . S
C1153 C1157 1.376 . S
C1154 C1152 1.394 . S
C1154 C1155 1.369 . S
C1154 C1158 1.531 . S
C1155 C1154 1.369 . S
C1155 C1156 1.410 . S
C1155 C1163 1.503 . S
C1156 C1155 1.410 . S
C1156 C1157 1.392 . S
C1156 C1159 1.511 . S
C1157 C1153 1.376 . S
C1157 C1156 1.392 . S
C1157 H1169 0.929 . S
C1158 C1154 1.531 . S
C1158 H1170 0.960 . S
C1158 H1171 0.962 . S
C1158 H1172 0.960 . S
C1159 C1156 1.511 . S
C1159 H1173 0.961 . S
C1159 H1174 0.961 . S
C1159 H1175 0.961 . S
C1160 C1161 1.370 . S
C1160 C1162 1.363 . S
C1160 H1176 0.931 . S
C1161 C1160 1.370 . S
C1161 C1165 1.408 . S
C1162 C1160 1.363 . S
C1162 C1163 1.370 . S
C1162 C1166 1.524 . S
C1163 C1155 1.503 . S
C1163 C1162 1.370 . S
C1163 C1164 1.403 . S
C1164 C1163 1.403 . S
C1164 C1165 1.404 . S
C1164 C1167 1.539 . S
C1165 C1161 1.408 . S
C1165 C1164 1.404 . S
C1165 H1177 0.930 . S
C1166 C1162 1.524 . S
C1166 H1178 0.956 . S
C1166 H1179 0.961 . S
C1166 H1180 0.961 . S
C1167 C1164 1.539 . S
C1167 H1181 0.958 . S
C1167 H1182 0.961 . S
C1167 H1183 0.960 . S
H1168 C1152 0.931 . S
H1169 C1157 0.929 . S
H1170 C1158 0.960 . S
H1171 C1158 0.962 . S
H1172 C1158 0.960 . S
H1173 C1159 0.961 . S
H1174 C1159 0.961 . S
H1175 C1159 0.961 . S
H1176 C1160 0.931 . S
H1177 C1165 0.930 . S
H1178 C1166 0.956 . S
H1179 C1166 0.961 . S
H1180 C1166 0.961 . S
H1181 C1167 0.958 . S
H1182 C1167 0.961 . S
H1183 C1167 0.960 . S
C1184 C1185 1.391 . S
C1184 C1186 1.394 . S
C1184 H1200 0.931 . S
C1185 C1184 1.391 . S
C1185 C1189 1.376 . S
C1186 C1184 1.394 . S
C1186 C1187 1.369 . S
C1186 C1190 1.531 . S
C1187 C1186 1.369 . S
C1187 C1188 1.410 . S
C1187 C1195 1.503 . S
C1188 C1187 1.410 . S
C1188 C1189 1.392 . S
C1188 C1191 1.511 . S
C1189 C1185 1.376 . S
C1189 C1188 1.392 . S
C1189 H1201 0.929 . S
C1190 C1186 1.531 . S
C1190 H1202 0.960 . S
C1190 H1203 0.962 . S
C1190 H1204 0.960 . S
C1191 C1188 1.511 . S
C1191 H1205 0.961 . S
C1191 H1206 0.961 . S
C1191 H1207 0.961 . S
C1192 C1193 1.370 . S
C1192 C1194 1.363 . S
C1192 H1208 0.931 . S
C1193 C1192 1.370 . S
C1193 C1197 1.408 . S
C1194 C1192 1.363 . S
C1194 C1195 1.370 . S
C1194 C1198 1.524 . S
C1195 C1187 1.503 . S
C1195 C1194 1.370 . S
C1195 C1196 1.403 . S
C1196 C1195 1.403 . S
C1196 C1197 1.404 . S
C1196 C1199 1.539 . S
C1197 C1193 1.408 . S
C1197 C1196 1.404 . S
C1197 H1209 0.930 . S
C1198 C1194 1.524 . S
C1198 H1210 0.956 . S
C1198 H1211 0.961 . S
C1198 H1212 0.961 . S
C1199 C1196 1.539 . S
C1199 H1213 0.958 . S
C1199 H1214 0.961 . S
C1199 H1215 0.960 . S
H1200 C1184 0.931 . S
H1201 C1189 0.929 . S
H1202 C1190 0.960 . S
H1203 C1190 0.962 . S
H1204 C1190 0.960 . S
H1205 C1191 0.961 . S
H1206 C1191 0.961 . S
H1207 C1191 0.961 . S
H1208 C1192 0.931 . S
H1209 C1197 0.930 . S
H1210 C1198 0.956 . S
H1211 C1198 0.961 . S
H1212 C1198 0.961 . S
H1213 C1199 0.958 . S
H1214 C1199 0.961 . S
H1215 C1199 0.960 . S
C1216 C1217 1.391 . S
C1216 C1218 1.394 . S
C1216 H1232 0.931 . S
C1217 C1216 1.391 . S
C1217 C1221 1.376 . S
C1218 C1216 1.394 . S
C1218 C1219 1.369 . S
C1218 C1222 1.531 . S
C1219 C1218 1.369 . S
C1219 C1220 1.410 . S
C1219 C1227 1.503 . S
C1220 C1219 1.410 . S
C1220 C1221 1.392 . S
C1220 C1223 1.511 1_556 S
C1221 C1217 1.376 . S
C1221 C1220 1.392 . S
C1221 H1233 0.929 1_556 S
C1222 C1218 1.531 . S
C1222 H1234 0.960 . S
C1222 H1235 0.962 . S
C1222 H1236 0.960 . S
C1223 C1220 1.511 1_554 S
C1223 H1237 0.961 . S
C1223 H1238 0.961 1_554 S
C1223 H1239 0.961 . S
C1224 C1225 1.370 . S
C1224 C1226 1.363 . S
C1224 H1240 0.931 . S
C1225 C1224 1.370 . S
C1225 C1229 1.408 . S
C1226 C1224 1.363 . S
C1226 C1227 1.370 . S
C1226 C1230 1.524 . S
C1227 C1219 1.503 . S
C1227 C1226 1.370 . S
C1227 C1228 1.403 . S
C1228 C1227 1.403 . S
C1228 C1229 1.404 . S
C1228 C1231 1.539 . S
C1229 C1225 1.408 . S
C1229 C1228 1.404 . S
C1229 H1241 0.930 . S
C1230 C1226 1.524 . S
C1230 H1242 0.956 . S
C1230 H1243 0.961 . S
C1230 H1244 0.961 . S
C1231 C1228 1.539 . S
C1231 H1245 0.958 . S
C1231 H1246 0.961 . S
C1231 H1247 0.960 . S
H1232 C1216 0.931 . S
H1233 C1221 0.929 1_554 S
H1234 C1222 0.960 . S
H1235 C1222 0.962 . S
H1236 C1222 0.960 . S
H1237 C1223 0.961 . S
H1238 C1223 0.961 1_556 S
H1239 C1223 0.961 . S
H1240 C1224 0.931 . S
H1241 C1229 0.930 . S
H1242 C1230 0.956 . S
H1243 C1230 0.961 . S
H1244 C1230 0.961 . S
H1245 C1231 0.958 . S
H1246 C1231 0.961 . S
H1247 C1231 0.960 . S
C225 C0 1.426 . S
C233 C168 1.417 . S
C257 C19 1.390 . S
C265 C75 1.400 . S
C289 C28 1.423 . S
C297 C196 1.418 . S
C321 C103 1.402 . S
C329 C47 1.395 . S
C353 C201 1.396 . S
C361 C33 1.396 . S
C385 C98 1.416 . S
C393 C42 1.422 . S
C417 C173 1.399 . S
C425 C5 1.395 . S
C449 C70 1.408 . S
C457 C14 1.425 . S
C481 C56 1.407 . S
C489 C112 1.424 . S
C513 C84 1.408 . S
C521 C140 1.424 . S
C545 C145 1.393 . S
C553 C89 1.399 . S
C577 C61 1.389 . S
C585 C117 1.400 . S
C609 C187 1.388 . S
C617 C131 1.400 . S
C641 C159 1.389 . S
C649 C215 1.400 . S
C673 C154 1.423 . S
C681 C210 1.418 . S
C705 C126 1.426 . S
C713 C182 1.417 . S
C737 C165 1.474 . S
C745 C11 1.483 . S
C769 C121 1.474 . S
C777 C23 1.473 . S
C801 C39 1.474 . S
C809 C137 1.482 . S
C833 C149 1.465 . S
C841 C51 1.477 . S
C865 C163 1.476 . S
C873 C37 1.481 . S
C897 C53 1.481 . S
C905 C123 1.480 . S
C929 C135 1.460 . S
C937 C9 1.473 . S
C961 C151 1.477 . S
C969 C25 1.480 . S
C993 C67 1.480 . S
C1001 C221 1.480 . S
C1025 C177 1.461 . S
C1033 C79 1.472 . S
C1057 C95 1.479 . S
C1065 C193 1.482 . S
C1089 C107 1.460 . S
C1097 C205 1.474 . S
C1121 C93 1.463 . S
C1129 C219 1.471 . S
C1153 C179 1.481 . S
C1161 C109 1.480 . S
C1185 C191 1.477 . S
C1193 C65 1.473 . S
C1217 C207 1.479 . S
C1225 C81 1.482 . S
