# Generated by pormake.
# Topology wgi, (5)-cn, num edge types: 1
# Building blocks:
#     Node 0, Type 0, BuildingBlock: XOMCOT_clean_sbu_1, # of connection points: 5
#     Node 1, Type 0, BuildingBlock: XOMCOT_clean_sbu_1, # of connection points: 5
#     Node 2, Type 0, BuildingBlock: XOMCOT_clean_sbu_1, # of connection points: 5
#     Node 3, Type 0, BuildingBlock: XOMCOT_clean_sbu_1, # of connection points: 5
#     Node 4, Type 0, BuildingBlock: XOMCOT_clean_sbu_1, # of connection points: 5
#     Node 5, Type 0, BuildingBlock: XOMCOT_clean_sbu_1, # of connection points: 5
#     Node 6, Type 0, BuildingBlock: XOMCOT_clean_sbu_1, # of connection points: 5
#     Node 7, Type 0, BuildingBlock: XOMCOT_clean_sbu_1, # of connection points: 5
#     Node 8, Type 0, BuildingBlock: XOMCOT_clean_sbu_1, # of connection points: 5
#     Node 9, Type 0, BuildingBlock: XOMCOT_clean_sbu_1, # of connection points: 5
#     Node 10, Type 0, BuildingBlock: XOMCOT_clean_sbu_1, # of connection points: 5
#     Node 11, Type 0, BuildingBlock: XOMCOT_clean_sbu_1, # of connection points: 5
#     Node 12, Type 0, BuildingBlock: XOMCOT_clean_sbu_1, # of connection points: 5
#     Node 13, Type 0, BuildingBlock: XOMCOT_clean_sbu_1, # of connection points: 5
#     Node 14, Type 0, BuildingBlock: XOMCOT_clean_sbu_1, # of connection points: 5
#     Node 15, Type 0, BuildingBlock: XOMCOT_clean_sbu_1, # of connection points: 5
#     Node 16, Type 0, BuildingBlock: XOMCOT_clean_sbu_1, # of connection points: 5
#     Node 17, Type 0, BuildingBlock: XOMCOT_clean_sbu_1, # of connection points: 5
#     Node 18, Type 0, BuildingBlock: XOMCOT_clean_sbu_1, # of connection points: 5
#     Node 19, Type 0, BuildingBlock: XOMCOT_clean_sbu_1, # of connection points: 5
#     Node 20, Type 0, BuildingBlock: XOMCOT_clean_sbu_1, # of connection points: 5
#     Node 21, Type 0, BuildingBlock: XOMCOT_clean_sbu_1, # of connection points: 5
#     Node 22, Type 0, BuildingBlock: XOMCOT_clean_sbu_1, # of connection points: 5
#     Node 23, Type 0, BuildingBlock: XOMCOT_clean_sbu_1, # of connection points: 5
#     Node 24, Type 0, BuildingBlock: XOMCOT_clean_sbu_1, # of connection points: 5
#     Node 25, Type 0, BuildingBlock: XOMCOT_clean_sbu_1, # of connection points: 5
#     Node 26, Type 0, BuildingBlock: XOMCOT_clean_sbu_1, # of connection points: 5
#     Node 27, Type 0, BuildingBlock: XOMCOT_clean_sbu_1, # of connection points: 5
#     Node 28, Type 0, BuildingBlock: XOMCOT_clean_sbu_1, # of connection points: 5
#     Node 29, Type 0, BuildingBlock: XOMCOT_clean_sbu_1, # of connection points: 5
#     Node 30, Type 0, BuildingBlock: XOMCOT_clean_sbu_1, # of connection points: 5
#     Node 31, Type 0, BuildingBlock: XOMCOT_clean_sbu_1, # of connection points: 5
#     Edge 32, Type (0, 0), None
#     Edge 33, Type (0, 0), None
#     Edge 34, Type (0, 0), None
#     Edge 35, Type (0, 0), None
#     Edge 36, Type (0, 0), None
#     Edge 37, Type (0, 0), None
#     Edge 38, Type (0, 0), None
#     Edge 39, Type (0, 0), None
#     Edge 40, Type (0, 0), None
#     Edge 41, Type (0, 0), None
#     Edge 42, Type (0, 0), None
#     Edge 43, Type (0, 0), None
#     Edge 44, Type (0, 0), None
#     Edge 45, Type (0, 0), None
#     Edge 46, Type (0, 0), None
#     Edge 47, Type (0, 0), None
#     Edge 48, Type (0, 0), None
#     Edge 49, Type (0, 0), None
#     Edge 50, Type (0, 0), None
#     Edge 51, Type (0, 0), None
#     Edge 52, Type (0, 0), None
#     Edge 53, Type (0, 0), None
#     Edge 54, Type (0, 0), None
#     Edge 55, Type (0, 0), None
#     Edge 56, Type (0, 0), None
#     Edge 57, Type (0, 0), None
#     Edge 58, Type (0, 0), None
#     Edge 59, Type (0, 0), None
#     Edge 60, Type (0, 0), None
#     Edge 61, Type (0, 0), None
#     Edge 62, Type (0, 0), None
#     Edge 63, Type (0, 0), None
#     Edge 64, Type (0, 0), None
#     Edge 65, Type (0, 0), None
#     Edge 66, Type (0, 0), None
#     Edge 67, Type (0, 0), None
#     Edge 68, Type (0, 0), None
#     Edge 69, Type (0, 0), None
#     Edge 70, Type (0, 0), None
#     Edge 71, Type (0, 0), None
#     Edge 72, Type (0, 0), None
#     Edge 73, Type (0, 0), None
#     Edge 74, Type (0, 0), None
#     Edge 75, Type (0, 0), None
#     Edge 76, Type (0, 0), None
#     Edge 77, Type (0, 0), None
#     Edge 78, Type (0, 0), None
#     Edge 79, Type (0, 0), None
#     Edge 80, Type (0, 0), None
#     Edge 81, Type (0, 0), None
#     Edge 82, Type (0, 0), None
#     Edge 83, Type (0, 0), None
#     Edge 84, Type (0, 0), None
#     Edge 85, Type (0, 0), None
#     Edge 86, Type (0, 0), None
#     Edge 87, Type (0, 0), None
#     Edge 88, Type (0, 0), None
#     Edge 89, Type (0, 0), None
#     Edge 90, Type (0, 0), None
#     Edge 91, Type (0, 0), None
#     Edge 92, Type (0, 0), None
#     Edge 93, Type (0, 0), None
#     Edge 94, Type (0, 0), None
#     Edge 95, Type (0, 0), None
#     Edge 96, Type (0, 0), None
#     Edge 97, Type (0, 0), None
#     Edge 98, Type (0, 0), None
#     Edge 99, Type (0, 0), None
#     Edge 100, Type (0, 0), None
#     Edge 101, Type (0, 0), None
#     Edge 102, Type (0, 0), None
#     Edge 103, Type (0, 0), None
#     Edge 104, Type (0, 0), None
#     Edge 105, Type (0, 0), None
#     Edge 106, Type (0, 0), None
#     Edge 107, Type (0, 0), None
#     Edge 108, Type (0, 0), None
#     Edge 109, Type (0, 0), None
#     Edge 110, Type (0, 0), None
#     Edge 111, Type (0, 0), None
# Relax obj value: 0.161
# Max RMSD: 0.127
# Mean RMSD: 0.127
data_MOF--net-wgi--node1-XOMCOT_clean_sbu_1--edge1-none
_symmetry_space_group_name_H-M    P1
_symmetry_Int_Tables_number       1
_symmetry_cell_setting            triclinic
loop_
_symmetry_equiv_pos_as_xyz
'x, y, z'
_cell_length_a     40.851975
_cell_length_b     40.852363
_cell_length_c     12.025397
_cell_angle_alpha  90.000279
_cell_angle_beta   89.999775
_cell_angle_gamma 90.000013
loop_
_atom_site_label
_atom_site_type_symbol
_atom_site_fract_x
_atom_site_fract_y
_atom_site_fract_z
_atom_type_partial_charge
C0 C 0.08561 0.19014 0.52866 0.0
C1 C 0.05323 0.1829 0.54608 0.0
N2 N 0.04733 0.15251 0.50739 0.0
N3 N 0.10011 0.16487 0.47613 0.0
C4 C 0.07617 0.14225 0.46431 0.0
H5 H 0.09794 0.21221 0.55511 0.0
Co6 Co 0.14498 0.16151 0.44861 0.0
C7 C 0.14289 0.13448 0.20966 0.0
O8 O 0.16518 0.15424 0.16881 0.0
N9 N 0.1914 0.15854 0.42954 0.0
C10 C 0.2428 0.17658 0.40824 0.0
C11 C 0.21143 0.1768 0.36459 0.0
C12 C 0.21179 0.1465 0.50902 0.0
N13 N 0.24258 0.15768 0.49987 0.0
O14 O 0.14464 0.12218 0.52877 0.0
H15 H 0.20332 0.19222 0.29692 0.0
H16 H 0.20424 0.13194 0.57865 0.0
O17 O 0.13506 0.13632 0.31244 0.0
C18 C 0.14563 0.12817 0.63226 0.0
O19 O 0.15331 0.15788 0.6653 0.0
N20 N 0.14349 0.20229 0.37752 0.0
C21 C 0.121 0.26622 0.34975 0.0
C22 C 0.11117 0.2412 0.27672 0.0
C23 C 0.1223 0.20925 0.29298 0.0
C24 C 0.1559 0.22681 0.44198 0.0
C25 C 0.14502 0.25902 0.42941 0.0
H26 H 0.1108 0.18993 0.24609 0.0
H27 H 0.17145 0.22078 0.51186 0.0
H28 H 0.08021 0.11827 0.42866 0.0
H29 H 0.03543 0.19893 0.58441 0.0
H30 H 0.26337 0.19085 0.37892 0.0
H31 H 0.09316 0.24565 0.21254 0.0
H32 H 0.15321 0.27735 0.48809 0.0
C33 C 0.06652 0.8356 0.77868 0.0
C34 C 0.07376 0.80322 0.7961 0.0
N35 N 0.10415 0.79732 0.75741 0.0
N36 N 0.09179 0.8501 0.72615 0.0
C37 C 0.11441 0.82616 0.71433 0.0
H38 H 0.04445 0.84793 0.80513 0.0
Co39 Co 0.09515 0.89498 0.69864 0.0
C40 C 0.12218 0.89288 0.45968 0.0
O41 O 0.10241 0.91517 0.41883 0.0
N42 N 0.09812 0.94139 0.67956 0.0
C43 C 0.08009 0.9928 0.65826 0.0
C44 C 0.07986 0.96143 0.61461 0.0
C45 C 0.11016 0.96178 0.75904 0.0
N46 N 0.09898 0.99257 0.74989 0.0
O47 O 0.13448 0.89463 0.77879 0.0
H48 H 0.06444 0.95332 0.54695 0.0
H49 H 0.12472 0.95423 0.82867 0.0
O50 O 0.12034 0.88505 0.56246 0.0
C51 C 0.12849 0.89563 0.88228 0.0
O52 O 0.09878 0.9033 0.91532 0.0
N53 N 0.05437 0.89348 0.62755 0.0
C54 C 0.99044 0.87099 0.59978 0.0
C55 C 0.01546 0.86117 0.52675 0.0
C56 C 0.04741 0.8723 0.54301 0.0
C57 C 0.02985 0.90589 0.692 0.0
C58 C 0.99764 0.89501 0.67944 0.0
H59 H 0.06673 0.86079 0.49612 0.0
H60 H 0.03588 0.92144 0.76188 0.0
H61 H 0.13839 0.8302 0.67867 0.0
H62 H 0.05773 0.78542 0.83442 0.0
H63 H 0.06581 0.01336 0.62894 0.0
H64 H 0.01101 0.84316 0.46256 0.0
H65 H 0.97931 0.90321 0.73811 0.0
C66 C 0.42105 0.81654 1.02867 0.0
C67 C 0.45344 0.82378 1.0461 0.0
N68 N 0.45933 0.85417 1.00742 0.0
N69 N 0.40656 0.84181 0.97615 0.0
C70 C 0.43049 0.86443 0.96433 0.0
H71 H 0.40872 0.79447 0.05512 0.0
Co72 Co 0.36168 0.84517 0.94863 0.0
C73 C 0.36377 0.8722 0.70968 0.0
O74 O 0.34148 0.85243 0.66883 0.0
N75 N 0.31526 0.84813 0.92956 0.0
C76 C 0.26386 0.83009 0.90826 0.0
C77 C 0.29523 0.82987 0.86461 0.0
C78 C 0.29488 0.86017 1.00904 0.0
N79 N 0.26409 0.84899 0.99989 0.0
O80 O 0.36202 0.88449 1.02879 0.0
H81 H 0.30334 0.81445 0.79694 0.0
H82 H 0.30242 0.87473 0.07867 0.0
O83 O 0.3716 0.87036 0.81245 0.0
C84 C 0.36103 0.8785 0.13228 0.0
O85 O 0.35335 0.8488 0.16532 0.0
N86 N 0.36318 0.80439 0.87753 0.0
C87 C 0.38566 0.74045 0.84973 0.0
C88 C 0.39549 0.76548 0.77671 0.0
C89 C 0.38436 0.79742 0.79299 0.0
C90 C 0.35077 0.77987 0.94199 0.0
C91 C 0.36165 0.74765 0.92941 0.0
H92 H 0.39587 0.81675 0.74611 0.0
H93 H 0.33522 0.78589 1.01187 0.0
H94 H 0.42645 0.88841 0.92868 0.0
H95 H 0.47123 0.80775 0.08443 0.0
H96 H 0.2433 0.81581 0.87895 0.0
H97 H 0.4135 0.76103 0.71252 0.0
H98 H 0.35345 0.72933 0.98808 0.0
C99 C 0.44015 0.17106 0.27862 0.0
C100 C 0.4329 0.20344 0.29604 0.0
N101 N 0.40251 0.20934 0.25736 0.0
N102 N 0.41487 0.15656 0.2261 0.0
C103 C 0.39225 0.1805 0.21428 0.0
H104 H 0.46222 0.15873 0.30507 0.0
Co105 Co 0.41151 0.11168 0.19859 0.0
C106 C 0.38448 0.11378 0.95963 0.0
O107 O 0.40425 0.09149 0.91878 0.0
N108 N 0.40854 0.06527 0.17952 0.0
C109 C 0.42657 0.01386 0.15824 0.0
C110 C 0.4268 0.04523 0.11458 0.0
C111 C 0.3965 0.04489 0.25901 0.0
N112 N 0.40768 0.01409 0.24987 0.0
O113 O 0.37218 0.11204 0.27874 0.0
H114 H 0.44222 0.05334 1.04691 0.0
H115 H 0.38194 0.05243 0.32864 0.0
O116 O 0.38632 0.12161 0.06241 0.0
C117 C 0.37818 0.11104 0.38223 0.0
O118 O 0.40788 0.10336 0.41527 0.0
N119 N 0.45229 0.11318 0.1275 0.0
C120 C 0.51623 0.13566 0.09974 0.0
C121 C 0.49121 0.14549 1.0267 0.0
C122 C 0.45926 0.13436 1.04296 0.0
C123 C 0.47681 0.10077 0.19196 0.0
C124 C 0.50903 0.11164 0.1794 0.0
H125 H 0.43993 0.14587 0.99606 0.0
H126 H 0.47078 0.08521 0.26184 0.0
H127 H 0.36827 0.17646 0.17863 0.0
H128 H 0.44894 0.22124 0.33437 0.0
H129 H 0.44085 0.9933 0.12893 0.0
H130 H 0.49566 0.1635 0.96252 0.0
H131 H 0.52735 0.10345 0.23808 0.0
C132 C 0.08461 0.8139 0.07308 0.0
C133 C 0.0522 0.82142 0.05635 0.0
N134 N 0.04697 0.85239 0.0908 0.0
N135 N 0.09967 0.83966 0.12066 0.0
C136 C 0.07618 0.86276 0.13018 0.0
H137 H 0.09654 0.79125 1.05039 0.0
Co138 Co 0.14431 0.84358 0.14728 0.0
C139 C 0.14182 0.87211 0.3833 0.0
O140 O 0.16304 0.85119 0.4244 0.0
N141 N 0.18992 0.84782 0.16344 0.0
C142 C 0.23777 0.87422 0.164 0.0
C143 C 0.20726 0.87193 0.21315 0.0
C144 C 0.21053 0.83591 0.08466 0.0
N145 N 0.23934 0.85185 0.08198 0.0
O146 O 0.14423 0.88166 0.06113 0.0
H147 H 0.19734 0.88949 0.27113 0.0
H148 H 0.2034 0.8184 1.02213 0.0
O149 O 0.13427 0.8708 0.28007 0.0
C150 C 0.14908 0.87756 0.95793 0.0
O151 O 0.16059 0.84947 0.92251 0.0
N152 N 0.14309 0.80383 0.22708 0.0
C153 C 0.11958 0.74057 0.26547 0.0
C154 C 0.10902 0.76694 0.33123 0.0
C155 C 0.12068 0.79845 0.30965 0.0
C156 C 0.15603 0.77792 0.17054 0.0
C157 C 0.14474 0.74614 0.18862 0.0
H158 H 0.10831 0.81857 0.34955 0.0
H159 H 0.17185 0.78194 0.10056 0.0
H160 H 0.08079 0.88708 0.16212 0.0
H161 H 0.03392 0.80515 1.022 0.0
H162 H 0.256 0.89278 0.18076 0.0
H163 H 0.09001 0.76381 0.39295 0.0
H164 H 0.15349 0.7268 0.13487 0.0
C165 C 0.44275 0.83462 0.32309 0.0
C166 C 0.43523 0.80221 0.30634 0.0
N167 N 0.40426 0.79698 0.34078 0.0
N168 N 0.41699 0.84969 0.37067 0.0
C169 C 0.3939 0.8262 0.38017 0.0
H170 H 0.46541 0.84655 0.30041 0.0
Co171 Co 0.41308 0.89432 0.39728 0.0
C172 C 0.38454 0.89184 0.63329 0.0
O173 O 0.40546 0.91306 0.6744 0.0
N174 N 0.40883 0.93993 0.41343 0.0
C175 C 0.38244 0.98778 0.41398 0.0
C176 C 0.38473 0.95728 0.46314 0.0
C177 C 0.42075 0.96054 0.33465 0.0
N178 N 0.40481 0.98935 0.33196 0.0
O179 O 0.375 0.89424 0.31113 0.0
H180 H 0.36716 0.94736 0.52111 0.0
H181 H 0.43826 0.9534 0.27212 0.0
O182 O 0.38586 0.88428 0.53006 0.0
C183 C 0.3791 0.89909 0.20792 0.0
O184 O 0.40719 0.9106 0.1725 0.0
N185 N 0.45283 0.8931 0.47708 0.0
C186 C 0.51608 0.8696 0.51549 0.0
C187 C 0.48972 0.85904 0.58124 0.0
C188 C 0.4582 0.8707 0.55966 0.0
C189 C 0.47873 0.90604 0.42055 0.0
C190 C 0.51052 0.89476 0.43864 0.0
H191 H 0.43808 0.85833 0.59956 0.0
H192 H 0.47471 0.92186 0.35056 0.0
H193 H 0.36957 0.8308 0.41211 0.0
H194 H 0.45151 0.78394 0.27199 0.0
H195 H 0.36388 0.00602 0.43073 0.0
H196 H 0.49284 0.84003 0.64297 0.0
H197 H 0.52986 0.9035 0.3849 0.0
C198 C 0.42205 0.19276 0.57303 0.0
C199 C 0.45446 0.18524 0.5563 0.0
N200 N 0.4597 0.15427 0.59075 0.0
N201 N 0.40699 0.167 0.62062 0.0
C202 C 0.43048 0.14391 0.63013 0.0
H203 H 0.41012 0.21541 0.55034 0.0
Co204 Co 0.36235 0.16309 0.64724 0.0
C205 C 0.36484 0.13455 0.88325 0.0
O206 O 0.34362 0.15547 0.92436 0.0
N207 N 0.31675 0.15884 0.6634 0.0
C208 C 0.26889 0.13245 0.66396 0.0
C209 C 0.2994 0.13474 0.71311 0.0
C210 C 0.29613 0.17075 0.58463 0.0
N211 N 0.26732 0.15482 0.58195 0.0
O212 O 0.36243 0.12501 0.56109 0.0
H213 H 0.30932 0.11717 0.77109 0.0
H214 H 0.30327 0.18827 0.5221 0.0
O215 O 0.3724 0.13587 0.78002 0.0
C216 C 0.35759 0.12911 0.45788 0.0
O217 O 0.34608 0.1572 0.42247 0.0
N218 N 0.36357 0.20284 0.72704 0.0
C219 C 0.38708 0.26609 0.76546 0.0
C220 C 0.39764 0.23972 0.83121 0.0
C221 C 0.38598 0.20821 0.80962 0.0
C222 C 0.35064 0.22874 0.67051 0.0
C223 C 0.36192 0.26052 0.6886 0.0
H224 H 0.39835 0.18809 0.84951 0.0
H225 H 0.33482 0.22472 0.60053 0.0
H226 H 0.42587 0.11959 0.66208 0.0
H227 H 0.47274 0.20152 0.52194 0.0
H228 H 0.25066 0.11389 0.68072 0.0
H229 H 0.41665 0.24285 0.89293 0.0
H230 H 0.35317 0.27987 0.63486 0.0
C231 C 0.06391 0.17205 0.82306 0.0
C232 C 0.07143 0.20446 0.80633 0.0
N233 N 0.1024 0.20969 0.84078 0.0
N234 N 0.08967 0.15698 0.87065 0.0
C235 C 0.11276 0.18047 0.88016 0.0
H236 H 0.04126 0.16012 0.80037 0.0
Co237 Co 0.09358 0.11235 0.89726 0.0
C238 C 0.12212 0.11483 0.13328 0.0
O239 O 0.1012 0.09362 0.17438 0.0
N240 N 0.09783 0.06674 0.91342 0.0
C241 C 0.12422 0.01889 0.91399 0.0
C242 C 0.12193 0.04939 0.96313 0.0
C243 C 0.08592 0.04613 0.83464 0.0
N244 N 0.10185 0.01731 0.83197 0.0
O245 O 0.13166 0.11243 0.81111 0.0
H246 H 0.1395 0.05931 1.02111 0.0
H247 H 0.0684 0.05326 0.77211 0.0
O248 O 0.1208 0.12239 1.03005 0.0
C249 C 0.12756 0.10758 0.70791 0.0
O250 O 0.09948 0.09607 0.67249 0.0
N251 N 0.05383 0.11357 0.97706 0.0
C252 C 0.99058 0.13708 1.01547 0.0
C253 C 0.01694 0.14763 0.08122 0.0
C254 C 0.04846 0.13597 0.05964 0.0
C255 C 0.02793 0.10063 0.92052 0.0
C256 C 0.99615 0.11192 0.93861 0.0
H257 H 0.06858 0.14834 0.09954 0.0
H258 H 0.03195 0.08481 0.85054 0.0
H259 H 0.13708 0.17587 0.91211 0.0
H260 H 0.05515 0.22273 0.77198 0.0
H261 H 0.14278 1.00065 0.93075 0.0
H262 H 0.01382 0.16664 0.14295 0.0
H263 H 0.9768 0.10317 0.88487 0.0
C264 C 0.92105 0.81653 0.57943 0.0
C265 C 0.95344 0.82377 0.56203 0.0
N266 N 0.95934 0.85415 0.60077 0.0
N267 N 0.90656 0.8418 0.63197 0.0
C268 C 0.9305 0.86441 0.64382 0.0
H269 H 0.90872 0.79446 0.55295 0.0
Co270 Co 0.86168 0.84516 0.65948 0.0
C271 C 0.86378 0.87218 0.89843 0.0
O272 O 0.84148 0.85242 0.93929 0.0
N273 N 0.81526 0.84813 0.67854 0.0
C274 C 0.76386 0.8301 0.69985 0.0
C275 C 0.79523 0.82987 0.7435 0.0
C276 C 0.79488 0.86017 0.59905 0.0
N277 N 0.76409 0.84899 0.60821 0.0
O278 O 0.86203 0.88449 0.57933 0.0
H279 H 0.80334 0.81445 0.81117 0.0
H280 H 0.80243 0.87472 0.52942 0.0
O281 O 0.8716 0.87035 0.79566 0.0
C282 C 0.86104 0.87849 0.47584 0.0
O283 O 0.85336 0.84879 0.44279 0.0
N284 N 0.86317 0.80438 0.73056 0.0
C285 C 0.88566 0.74044 0.75832 0.0
C286 C 0.89549 0.76546 0.83136 0.0
C287 C 0.88436 0.79741 0.8151 0.0
C288 C 0.85076 0.77986 0.6661 0.0
C289 C 0.86164 0.74764 0.67866 0.0
H290 H 0.89586 0.81674 0.862 0.0
H291 H 0.83521 0.78589 0.59622 0.0
H292 H 0.92646 0.88839 0.67947 0.0
H293 H 0.97123 0.80774 0.52369 0.0
H294 H 0.74329 0.81583 0.72917 0.0
H295 H 0.91349 0.76101 0.89555 0.0
H296 H 0.85344 0.72932 0.61998 0.0
C297 C 0.94015 0.17106 0.32942 0.0
C298 C 0.9329 0.20345 0.312 0.0
N299 N 0.90251 0.20934 0.35069 0.0
N300 N 0.91487 0.15657 0.38194 0.0
C301 C 0.89225 0.1805 0.39376 0.0
H302 H 0.96221 0.15873 0.30297 0.0
Co303 Co 0.91151 0.11169 0.40945 0.0
C304 C 0.88448 0.11379 0.6484 0.0
O305 O 0.90425 0.09149 0.68926 0.0
N306 N 0.90855 0.06527 0.42852 0.0
C307 C 0.92658 0.01387 0.44983 0.0
C308 C 0.9268 0.04524 0.49348 0.0
C309 C 0.89651 0.04489 0.34904 0.0
N310 N 0.90769 0.0141 0.3582 0.0
O311 O 0.87219 0.11203 0.32929 0.0
H312 H 0.94222 0.05335 0.56115 0.0
H313 H 0.88195 0.05243 0.27941 0.0
O314 O 0.88632 0.12161 0.54563 0.0
C315 C 0.87818 0.11104 0.2258 0.0
O316 O 0.90789 0.10337 0.19276 0.0
N317 N 0.9523 0.11318 0.48055 0.0
C318 C 0.01623 0.13567 0.50834 0.0
C319 C 0.99121 0.1455 0.58137 0.0
C320 C 0.95926 0.13437 0.56509 0.0
C321 C 0.97682 0.10078 0.4161 0.0
C322 C 0.00903 0.11165 0.42867 0.0
H323 H 0.93993 0.14587 0.61198 0.0
H324 H 0.97079 0.08522 0.34622 0.0
H325 H 0.86827 0.17646 0.42941 0.0
H326 H 0.94893 0.22124 0.27368 0.0
H327 H 0.94085 0.9933 0.47915 0.0
H328 H 0.99565 0.1635 0.64556 0.0
H329 H 0.02736 0.10345 0.37001 0.0
C330 C 0.58561 0.19014 0.07941 0.0
C331 C 0.55322 0.18289 0.06201 0.0
N332 N 0.54732 0.15251 0.10073 0.0
N333 N 0.6001 0.16486 0.13195 0.0
C334 C 0.57617 0.14225 0.14379 0.0
H335 H 0.59794 0.2122 1.05294 0.0
Co336 Co 0.64498 0.16151 0.15946 0.0
C337 C 0.64289 0.13448 0.39841 0.0
O338 O 0.66518 0.15424 0.43926 0.0
N339 N 0.6914 0.15854 0.17852 0.0
C340 C 0.7428 0.17657 0.19982 0.0
C341 C 0.71143 0.1768 0.24348 0.0
C342 C 0.71178 0.1465 0.09904 0.0
N343 N 0.74258 0.15768 0.10819 0.0
O344 O 0.64463 0.12218 0.07931 0.0
H345 H 0.70332 0.19222 0.31115 0.0
H346 H 0.70424 0.13194 1.02941 0.0
O347 O 0.63506 0.13631 0.29564 0.0
C348 C 0.64563 0.12817 0.97582 0.0
O349 O 0.65331 0.15788 0.94277 0.0
N350 N 0.64349 0.20229 0.23055 0.0
C351 C 0.621 0.26622 0.25834 0.0
C352 C 0.61117 0.2412 0.33137 0.0
C353 C 0.6223 0.20925 0.31509 0.0
C354 C 0.65589 0.22681 0.16609 0.0
C355 C 0.64502 0.25902 0.17867 0.0
H356 H 0.6108 0.18992 0.36198 0.0
H357 H 0.67145 0.22078 0.09621 0.0
H358 H 0.5802 0.11827 0.17944 0.0
H359 H 0.53543 0.19892 1.02366 0.0
H360 H 0.76337 0.19085 0.22914 0.0
H361 H 0.59317 0.24565 0.39556 0.0
H362 H 0.65321 0.27735 0.11999 0.0
C363 C 0.56651 0.83561 0.82945 0.0
C364 C 0.57375 0.80323 0.81203 0.0
N365 N 0.60414 0.79733 0.85071 0.0
N366 N 0.59179 0.85011 0.88197 0.0
C367 C 0.6144 0.82617 0.89379 0.0
H368 H 0.54444 0.84794 0.80301 0.0
Co369 Co 0.59515 0.89499 0.90948 0.0
C370 C 0.62218 0.89289 0.14843 0.0
O371 O 0.60242 0.91519 0.18929 0.0
N372 N 0.59812 0.9414 0.92855 0.0
C373 C 0.58009 0.99281 0.94984 0.0
C374 C 0.57986 0.96144 0.9935 0.0
C375 C 0.61016 0.96179 0.84906 0.0
N376 N 0.59898 0.99258 0.85821 0.0
O377 O 0.63447 0.89464 0.82932 0.0
H378 H 0.56444 0.95333 0.06117 0.0
H379 H 0.62472 0.95424 0.77943 0.0
O380 O 0.62034 0.88507 1.04566 0.0
C381 C 0.62848 0.89563 0.72583 0.0
O382 O 0.59877 0.90331 0.69279 0.0
N383 N 0.55437 0.8935 0.98058 0.0
C384 C 0.49043 0.87101 1.00837 0.0
C385 C 0.51545 0.86118 0.0814 0.0
C386 C 0.5474 0.87231 0.06513 0.0
C387 C 0.52985 0.9059 0.91613 0.0
C388 C 0.49763 0.89503 0.9287 0.0
H389 H 0.56673 0.86081 0.11201 0.0
H390 H 0.53588 0.92146 0.84625 0.0
H391 H 0.63838 0.83021 0.92944 0.0
H392 H 0.55772 0.78543 0.77371 0.0
H393 H 0.56581 0.01337 0.97915 0.0
H394 H 0.51101 0.84318 0.14559 0.0
H395 H 0.47931 0.90323 0.87003 0.0
C396 C 0.92205 0.19276 1.03503 0.0
C397 C 0.95446 0.18525 1.05173 0.0
N398 N 0.9597 0.15429 1.01719 0.0
N399 N 0.90699 0.167 0.98741 0.0
C400 C 0.93048 0.14392 0.97785 0.0
H401 H 0.91012 0.21541 0.05777 0.0
Co402 Co 0.86235 0.16309 0.9608 0.0
C403 C 0.86484 0.13456 0.72479 0.0
O404 O 0.84362 0.15547 0.68368 0.0
N405 N 0.81674 0.15884 0.94465 0.0
C406 C 0.76889 0.13245 0.94409 0.0
C407 C 0.7994 0.13474 0.89494 0.0
C408 C 0.79613 0.17075 1.02343 0.0
N409 N 0.76732 0.15482 1.02611 0.0
O410 O 0.86244 0.12501 1.04695 0.0
H411 H 0.80932 0.11717 0.83696 0.0
H412 H 0.80327 0.18827 0.08597 0.0
O413 O 0.8724 0.13587 0.82802 0.0
C414 C 0.85759 0.12911 0.15016 0.0
O415 O 0.84608 0.15719 0.18558 0.0
N416 N 0.86357 0.20284 0.88101 0.0
C417 C 0.88708 0.26609 0.84263 0.0
C418 C 0.89763 0.23973 0.77686 0.0
C419 C 0.88597 0.20821 0.79843 0.0
C420 C 0.85064 0.22874 0.93757 0.0
C421 C 0.86192 0.26053 0.91949 0.0
H422 H 0.89834 0.18809 0.75853 0.0
H423 H 0.83482 0.22472 1.00755 0.0
H424 H 0.92588 0.1196 0.94589 0.0
H425 H 0.97274 0.20152 0.08612 0.0
H426 H 0.75065 0.11389 0.92733 0.0
H427 H 0.91664 0.24285 0.71514 0.0
H428 H 0.85317 0.27987 0.97324 0.0
C429 C 0.5639 0.17205 0.785 0.0
C430 C 0.57143 0.20446 0.80174 0.0
N431 N 0.60239 0.20969 0.7673 0.0
N432 N 0.58967 0.15699 0.73742 0.0
C433 C 0.61276 0.18048 0.72792 0.0
H434 H 0.54125 0.16012 0.80768 0.0
Co435 Co 0.59358 0.11235 0.7108 0.0
C436 C 0.62212 0.11483 0.4748 0.0
O437 O 0.6012 0.09361 0.43369 0.0
N438 N 0.59782 0.06674 0.69465 0.0
C439 C 0.62422 0.01889 0.6941 0.0
C440 C 0.62193 0.0494 0.64495 0.0
C441 C 0.58591 0.04613 0.77343 0.0
N442 N 0.60184 0.01732 0.77611 0.0
O443 O 0.63166 0.11243 0.79696 0.0
H444 H 0.6395 0.05932 0.58698 0.0
H445 H 0.5684 0.05327 0.83595 0.0
O446 O 0.6208 0.12239 0.57802 0.0
C447 C 0.62756 0.10758 0.90017 0.0
O448 O 0.59947 0.09608 0.93558 0.0
N449 N 0.55383 0.11357 0.631 0.0
C450 C 0.49058 0.13707 0.59255 0.0
C451 C 0.51695 0.14763 0.5268 0.0
C452 C 0.54846 0.13598 0.54841 0.0
C453 C 0.52793 0.10064 0.68752 0.0
C454 C 0.49614 0.11192 0.66941 0.0
H455 H 0.56858 0.14835 0.50852 0.0
H456 H 0.53194 0.08482 0.75751 0.0
H457 H 0.63708 0.17587 0.69598 0.0
H458 H 0.55515 0.22274 0.8361 0.0
H459 H 0.64278 1.00065 0.67735 0.0
H460 H 0.51383 0.16664 0.46506 0.0
H461 H 0.47679 0.10317 0.72313 0.0
C462 C 0.58461 0.81391 0.53505 0.0
C463 C 0.5522 0.82143 0.55175 0.0
N464 N 0.54696 0.85238 0.51721 0.0
N465 N 0.59967 0.83967 0.48743 0.0
C466 C 0.57618 0.86276 0.47787 0.0
H467 H 0.59655 0.79127 0.55779 0.0
Co468 Co 0.64431 0.84359 0.46082 0.0
C469 C 0.64182 0.87212 0.22481 0.0
O470 O 0.66304 0.85121 0.1837 0.0
N471 N 0.68992 0.84783 0.44467 0.0
C472 C 0.73777 0.87422 0.44411 0.0
C473 C 0.70726 0.87193 0.39496 0.0
C474 C 0.71053 0.83592 0.52345 0.0
N475 N 0.73934 0.85185 0.52613 0.0
O476 O 0.64423 0.88166 0.54698 0.0
H477 H 0.69734 0.8895 0.33698 0.0
H478 H 0.70339 0.81841 0.58598 0.0
O479 O 0.63427 0.87081 0.32804 0.0
C480 C 0.64907 0.87756 0.65018 0.0
O481 O 0.66058 0.84948 0.6856 0.0
N482 N 0.64309 0.80383 0.38102 0.0
C483 C 0.61958 0.74058 0.34262 0.0
C484 C 0.60903 0.76695 0.27686 0.0
C485 C 0.62069 0.79846 0.29844 0.0
C486 C 0.65602 0.77793 0.43757 0.0
C487 C 0.64474 0.74615 0.41948 0.0
H488 H 0.60832 0.81858 0.25855 0.0
H489 H 0.67185 0.78195 0.50755 0.0
H490 H 0.58078 0.88708 0.44592 0.0
H491 H 0.53393 0.80515 0.58614 0.0
H492 H 0.75601 0.89278 0.42735 0.0
H493 H 0.59002 0.76382 0.21514 0.0
H494 H 0.65349 0.7268 0.47323 0.0
C495 C 0.94276 0.83462 0.28503 0.0
C496 C 0.93524 0.80221 0.30176 0.0
N497 N 0.90427 0.79697 0.2673 0.0
N498 N 0.917 0.84968 0.23744 0.0
C499 C 0.8939 0.82619 0.22793 0.0
H500 H 0.96541 0.84655 0.30772 0.0
Co501 Co 0.91308 0.89432 0.21082 0.0
C502 C 0.88455 0.89183 0.97482 0.0
O503 O 0.90546 0.91305 0.9337 0.0
N504 N 0.90884 0.93992 0.19467 0.0
C505 C 0.88245 0.98778 0.1941 0.0
C506 C 0.88474 0.95727 0.14495 0.0
C507 C 0.92075 0.96054 0.27345 0.0
N508 N 0.90482 0.98935 0.27611 0.0
O509 O 0.875 0.89424 0.29698 0.0
H510 H 0.86717 0.94735 0.08698 0.0
H511 H 0.93827 0.9534 0.33598 0.0
O512 O 0.88586 0.88427 0.07805 0.0
C513 C 0.87911 0.89908 0.40019 0.0
O514 O 0.90719 0.91059 0.43561 0.0
N515 N 0.95283 0.8931 0.13102 0.0
C516 C 0.01608 0.86959 0.09259 0.0
C517 C 0.98972 0.85903 1.02684 0.0
C518 C 0.9582 0.87069 1.04844 0.0
C519 C 0.97874 0.90603 0.18755 0.0
C520 C 0.01052 0.89475 0.16945 0.0
H521 H 0.93808 0.85832 1.00855 0.0
H522 H 0.97472 0.92185 0.25754 0.0
H523 H 0.86958 0.8308 0.19598 0.0
H524 H 0.95151 0.78393 0.33611 0.0
H525 H 0.86389 0.00602 0.17733 0.0
H526 H 0.99284 0.84003 0.9651 0.0
H527 H 0.02987 0.9035 0.22318 0.0
C528 C 0.58559 0.69015 1.02867 0.0
C529 C 0.55321 0.68291 1.04607 0.0
N530 N 0.54731 0.65252 1.00738 0.0
N531 N 0.60009 0.66488 0.97615 0.0
C532 C 0.57615 0.64226 0.96431 0.0
H533 H 0.59792 0.71222 0.05512 0.0
Co534 Co 0.64497 0.66152 0.94863 0.0
C535 C 0.64287 0.63449 0.70968 0.0
O536 O 0.66516 0.65426 0.66882 0.0
N537 N 0.69138 0.65855 0.92957 0.0
C538 C 0.74279 0.67659 0.90826 0.0
C539 C 0.71142 0.67681 0.86461 0.0
C540 C 0.71177 0.64652 1.00905 0.0
N541 N 0.74256 0.6577 0.9999 0.0
O542 O 0.64462 0.6222 1.02879 0.0
H543 H 0.70331 0.69223 0.79694 0.0
H544 H 0.70422 0.63196 0.07869 0.0
O545 O 0.63505 0.63633 0.81246 0.0
C546 C 0.64561 0.62819 0.13228 0.0
O547 O 0.65329 0.65789 0.16533 0.0
N548 N 0.64347 0.7023 0.87754 0.0
C549 C 0.62098 0.76623 0.84976 0.0
C550 C 0.61115 0.74121 0.77673 0.0
C551 C 0.62229 0.70927 0.793 0.0
C552 C 0.65588 0.72682 0.94199 0.0
C553 C 0.645 0.75904 0.92942 0.0
H554 H 0.61078 0.68994 0.74611 0.0
H555 H 0.67143 0.72079 1.01187 0.0
H556 H 0.58019 0.61828 0.92866 0.0
H557 H 0.53541 0.69894 0.08439 0.0
H558 H 0.76335 0.69086 0.87894 0.0
H559 H 0.59315 0.74566 0.71255 0.0
H560 H 0.6532 0.77736 0.98809 0.0
C561 C 0.56654 0.33561 0.27872 0.0
C562 C 0.57377 0.30322 0.29611 0.0
N563 N 0.60416 0.29732 0.25737 0.0
N564 N 0.59181 0.3501 0.22618 0.0
C565 C 0.61442 0.32616 0.21432 0.0
H566 H 0.54447 0.34794 0.30521 0.0
Co567 Co 0.59516 0.39498 0.19867 0.0
C568 C 0.62219 0.39288 0.95971 0.0
O569 O 0.60243 0.41517 0.91885 0.0
N570 N 0.59813 0.44139 0.1796 0.0
C571 C 0.58009 0.4928 0.15828 0.0
C572 C 0.57987 0.46143 0.11463 0.0
C573 C 0.61016 0.46178 0.25909 0.0
N574 N 0.59898 0.49257 0.24993 0.0
O575 O 0.63449 0.39463 0.27882 0.0
H576 H 0.56446 0.45332 1.04695 0.0
H577 H 0.62471 0.45423 0.32874 0.0
O578 O 0.62036 0.38506 0.06249 0.0
C579 C 0.6285 0.39563 0.38232 0.0
O580 O 0.59879 0.4033 0.41536 0.0
N581 N 0.55438 0.39348 0.12757 0.0
C582 C 0.49045 0.37099 0.09979 0.0
C583 C 0.51547 0.36116 1.02676 0.0
C584 C 0.54742 0.3723 1.04303 0.0
C585 C 0.52986 0.40589 0.19202 0.0
C586 C 0.49765 0.39501 0.17946 0.0
H587 H 0.56675 0.36079 0.99615 0.0
H588 H 0.53589 0.42144 0.2619 0.0
H589 H 0.6384 0.3302 0.17865 0.0
H590 H 0.55774 0.28543 0.33446 0.0
H591 H 0.56582 0.51336 0.12894 0.0
H592 H 0.51103 0.34316 0.96258 0.0
H593 H 0.47932 0.4032 0.23812 0.0
C594 C 0.92107 0.31652 0.52867 0.0
C595 C 0.95345 0.32377 0.54609 0.0
N596 N 0.95934 0.35415 0.5074 0.0
N597 N 0.90657 0.3418 0.47615 0.0
C598 C 0.93051 0.36441 0.46432 0.0
H599 H 0.90874 0.29445 0.55513 0.0
Co600 Co 0.86169 0.34515 0.44864 0.0
C601 C 0.86379 0.37219 0.2097 0.0
O602 O 0.84149 0.35242 0.16884 0.0
N603 N 0.81527 0.34812 0.42958 0.0
C604 C 0.76387 0.33009 0.40828 0.0
C605 C 0.79524 0.32986 0.36463 0.0
C606 C 0.79489 0.36016 0.50907 0.0
N607 N 0.7641 0.34898 0.49992 0.0
O608 O 0.86204 0.38448 0.52881 0.0
H609 H 0.80335 0.31445 0.29695 0.0
H610 H 0.80244 0.37471 0.57871 0.0
O611 O 0.87161 0.37035 0.31247 0.0
C612 C 0.86105 0.37849 0.6323 0.0
O613 O 0.85337 0.34878 0.66534 0.0
N614 N 0.86319 0.30437 0.37754 0.0
C615 C 0.88567 0.24044 0.34974 0.0
C616 C 0.8955 0.26546 0.27672 0.0
C617 C 0.88437 0.29741 0.293 0.0
C618 C 0.85078 0.27985 0.44199 0.0
C619 C 0.86165 0.24764 0.42941 0.0
H620 H 0.89588 0.31674 0.24611 0.0
H621 H 0.83522 0.28588 0.51187 0.0
H622 H 0.92647 0.38839 0.42867 0.0
H623 H 0.97125 0.30773 0.58441 0.0
H624 H 0.7433 0.31582 0.37896 0.0
H625 H 0.91351 0.26102 0.21253 0.0
H626 H 0.85346 0.22931 0.48807 0.0
C627 C 0.94013 0.67106 0.77866 0.0
C628 C 0.93289 0.70344 0.79606 0.0
N629 N 0.90251 0.70934 0.75733 0.0
N630 N 0.91486 0.65657 0.72613 0.0
C631 C 0.89224 0.6805 0.71428 0.0
H632 H 0.96219 0.65873 0.80514 0.0
Co633 Co 0.9115 0.61169 0.69862 0.0
C634 C 0.88447 0.61378 0.45966 0.0
O635 O 0.90424 0.59149 0.4188 0.0
N636 N 0.90853 0.56527 0.67956 0.0
C637 C 0.92656 0.51387 0.65826 0.0
C638 C 0.92679 0.54524 0.6146 0.0
C639 C 0.8965 0.54489 0.75905 0.0
N640 N 0.90768 0.51409 0.7499 0.0
O641 O 0.87217 0.61204 0.77877 0.0
H642 H 0.9422 0.55334 0.54692 0.0
H643 H 0.88194 0.55243 0.82869 0.0
O644 O 0.88631 0.62161 0.56244 0.0
C645 C 0.87816 0.61104 0.88226 0.0
O646 O 0.90787 0.60337 0.91531 0.0
N647 N 0.95228 0.61318 0.62753 0.0
C648 C 0.01621 0.63567 0.59976 0.0
C649 C 0.99119 0.6455 0.52673 0.0
C650 C 0.95924 0.63436 0.54299 0.0
C651 C 0.9768 0.60077 0.69199 0.0
C652 C 0.00901 0.61165 0.67943 0.0
H653 H 0.93992 0.64587 0.4961 0.0
H654 H 0.97077 0.58522 0.76187 0.0
H655 H 0.86826 0.67647 0.67862 0.0
H656 H 0.94892 0.72124 0.83441 0.0
H657 H 0.94084 0.4933 0.62893 0.0
H658 H 0.99564 0.6635 0.46255 0.0
H659 H 0.02734 0.60346 0.7381 0.0
C660 C 0.58462 0.3139 0.57312 0.0
C661 C 0.55221 0.32142 0.55638 0.0
N662 N 0.54698 0.35239 0.59084 0.0
N663 N 0.59969 0.33966 0.62071 0.0
C664 C 0.5762 0.36276 0.63022 0.0
H665 H 0.59655 0.29125 0.55043 0.0
Co666 Co 0.64432 0.34358 0.64732 0.0
C667 C 0.64184 0.37211 0.88333 0.0
O668 O 0.66306 0.3512 0.92444 0.0
N669 N 0.68993 0.34782 0.66347 0.0
C670 C 0.73779 0.37421 0.66403 0.0
C671 C 0.70728 0.37192 0.71318 0.0
C672 C 0.71054 0.33591 0.58468 0.0
N673 N 0.73936 0.35184 0.58201 0.0
O674 O 0.64424 0.38166 0.56117 0.0
H675 H 0.69736 0.38949 0.77117 0.0
H676 H 0.70341 0.3184 0.52215 0.0
O677 O 0.63428 0.3708 0.7801 0.0
C678 C 0.64909 0.37755 0.45796 0.0
O679 O 0.66059 0.34947 0.42254 0.0
N680 N 0.6431 0.30383 0.72712 0.0
C681 C 0.6196 0.24058 0.76553 0.0
C682 C 0.60904 0.26694 0.83129 0.0
C683 C 0.6207 0.29845 0.8097 0.0
C684 C 0.65604 0.27792 0.67058 0.0
C685 C 0.64476 0.24614 0.68867 0.0
H686 H 0.60833 0.31858 0.8496 0.0
H687 H 0.67186 0.28194 0.60059 0.0
H688 H 0.5808 0.38708 0.66217 0.0
H689 H 0.53394 0.30515 0.52203 0.0
H690 H 0.75602 0.39277 0.6808 0.0
H691 H 0.59003 0.26381 0.89302 0.0
H692 H 0.65351 0.22679 0.63494 0.0
C693 C 0.94277 0.33462 0.82307 0.0
C694 C 0.93525 0.30221 0.80637 0.0
N695 N 0.90429 0.29697 0.84092 0.0
N696 N 0.91701 0.34968 0.87069 0.0
C697 C 0.89392 0.32619 0.88026 0.0
H698 H 0.96541 0.34656 0.80033 0.0
Co699 Co 0.91309 0.39432 0.8973 0.0
C700 C 0.88456 0.39183 0.13332 0.0
O701 O 0.90547 0.41305 0.17443 0.0
N702 N 0.90884 0.43993 0.91344 0.0
C703 C 0.88245 0.48778 0.91401 0.0
C704 C 0.88474 0.45727 0.96316 0.0
C705 C 0.92075 0.46054 0.83466 0.0
N706 N 0.90482 0.48935 0.83199 0.0
O707 O 0.87501 0.39423 0.81115 0.0
H708 H 0.86717 0.44735 1.02115 0.0
H709 H 0.93826 0.45341 0.77213 0.0
O710 O 0.88587 0.38428 1.03009 0.0
C711 C 0.87911 0.39908 0.70794 0.0
O712 O 0.9072 0.41059 0.67253 0.0
N713 N 0.95284 0.3931 0.97709 0.0
C714 C 0.01609 0.36959 1.01547 0.0
C715 C 0.98973 0.35904 0.08124 0.0
C716 C 0.95822 0.3707 0.05967 0.0
C717 C 0.97874 0.40604 0.92054 0.0
C718 C 0.01053 0.39475 0.93862 0.0
H719 H 0.9381 0.35833 0.09958 0.0
H720 H 0.97472 0.42186 0.85056 0.0
H721 H 0.8696 0.33079 0.91222 0.0
H722 H 0.95152 0.28394 0.77198 0.0
H723 H 0.86389 0.50602 0.93077 0.0
H724 H 0.99286 0.34003 0.14296 0.0
H725 H 0.02987 0.4035 0.88487 0.0
C726 C 0.92204 0.69276 0.07307 0.0
C727 C 0.95445 0.68524 0.05633 0.0
N728 N 0.95968 0.65427 0.09079 0.0
N729 N 0.90698 0.667 0.12065 0.0
C730 C 0.93047 0.64391 0.13017 0.0
H731 H 0.91011 0.71541 1.05037 0.0
Co732 Co 0.86234 0.66309 0.14727 0.0
C733 C 0.86482 0.63455 0.38328 0.0
O734 O 0.84361 0.65547 0.42439 0.0
N735 N 0.81673 0.65885 0.16343 0.0
C736 C 0.76888 0.63246 0.164 0.0
C737 C 0.79938 0.63475 0.21314 0.0
C738 C 0.79612 0.67076 0.08465 0.0
N739 N 0.7673 0.65483 0.08198 0.0
O740 O 0.86242 0.62501 0.06112 0.0
H741 H 0.8093 0.61718 0.27112 0.0
H742 H 0.80326 0.68828 1.02212 0.0
O743 O 0.87238 0.63587 0.28005 0.0
C744 C 0.85757 0.62911 0.95791 0.0
O745 O 0.84606 0.6572 0.92249 0.0
N746 N 0.86356 0.70284 0.22707 0.0
C747 C 0.88707 0.76609 0.26551 0.0
C748 C 0.89762 0.73973 0.33126 0.0
C749 C 0.88597 0.70821 0.30966 0.0
C750 C 0.85063 0.72874 0.17054 0.0
C751 C 0.86191 0.76053 0.18864 0.0
H752 H 0.89834 0.68809 0.34955 0.0
H753 H 0.83481 0.72473 0.10055 0.0
H754 H 0.92586 0.61959 0.16212 0.0
H755 H 0.97273 0.70151 1.02197 0.0
H756 H 0.75064 0.61391 0.18076 0.0
H757 H 0.91663 0.74285 0.393 0.0
H758 H 0.85316 0.77988 0.13492 0.0
C759 C 0.5639 0.67205 0.32304 0.0
C760 C 0.57141 0.70447 0.30635 0.0
N761 N 0.60237 0.7097 0.3409 0.0
N762 N 0.58965 0.65699 0.37067 0.0
C763 C 0.61274 0.68048 0.38024 0.0
H764 H 0.54125 0.66012 0.30029 0.0
Co765 Co 0.59357 0.61235 0.39728 0.0
C766 C 0.6221 0.61484 0.6333 0.0
O767 O 0.60118 0.59363 0.67442 0.0
N768 N 0.59782 0.56675 0.41343 0.0
C769 C 0.62421 0.51889 0.41403 0.0
C770 C 0.62191 0.5494 0.46317 0.0
C771 C 0.58591 0.54613 0.33465 0.0
N772 N 0.60184 0.51732 0.332 0.0
O773 O 0.63165 0.61244 0.31114 0.0
H774 H 0.63948 0.55932 0.52115 0.0
H775 H 0.5684 0.55327 0.27211 0.0
O776 O 0.62079 0.6224 0.53007 0.0
C777 C 0.62755 0.60759 0.20793 0.0
O778 O 0.59946 0.59608 0.17251 0.0
N779 N 0.55382 0.61357 0.47706 0.0
C780 C 0.49056 0.63708 0.51542 0.0
C781 C 0.51692 0.64764 0.58119 0.0
C782 C 0.54844 0.63598 0.55964 0.0
C783 C 0.52792 0.60064 0.42051 0.0
C784 C 0.49613 0.61192 0.43857 0.0
H785 H 0.56856 0.64835 0.59955 0.0
H786 H 0.53194 0.58482 0.35053 0.0
H787 H 0.63706 0.67588 0.4122 0.0
H788 H 0.55514 0.72274 0.27195 0.0
H789 H 0.64276 0.50066 0.43081 0.0
H790 H 0.5138 0.66665 0.64292 0.0
H791 H 0.47679 0.60318 0.38482 0.0
C792 C 0.42107 0.31652 0.07942 0.0
C793 C 0.45345 0.32376 0.06203 0.0
N794 N 0.45935 0.35414 0.10076 0.0
N795 N 0.40657 0.34179 0.13195 0.0
C796 C 0.43051 0.36441 0.14381 0.0
H797 H 0.40874 0.29446 1.05294 0.0
Co798 Co 0.36169 0.34515 0.15945 0.0
C799 C 0.36379 0.37218 0.39841 0.0
O800 O 0.3415 0.35241 0.43927 0.0
N801 N 0.31528 0.34812 0.17851 0.0
C802 C 0.26387 0.33009 0.19982 0.0
C803 C 0.29524 0.32986 0.24347 0.0
C804 C 0.29489 0.36015 0.09902 0.0
N805 N 0.2641 0.34898 0.10818 0.0
O806 O 0.36204 0.38448 0.0793 0.0
H807 H 0.30335 0.31445 0.31115 0.0
H808 H 0.30244 0.37471 1.02938 0.0
O809 O 0.37161 0.37034 0.29563 0.0
C810 C 0.36105 0.37848 0.97581 0.0
O811 O 0.35338 0.34878 0.94276 0.0
N812 N 0.36319 0.30437 0.23055 0.0
C813 C 0.38568 0.24044 0.25831 0.0
C814 C 0.3955 0.26546 0.33135 0.0
C815 C 0.38437 0.29741 0.31508 0.0
C816 C 0.35078 0.27985 0.16609 0.0
C817 C 0.36166 0.24764 0.17865 0.0
H818 H 0.39588 0.31673 0.36198 0.0
H819 H 0.33522 0.28588 0.09621 0.0
H820 H 0.42647 0.38839 0.17946 0.0
H821 H 0.47125 0.30773 1.02369 0.0
H822 H 0.24331 0.31582 0.22914 0.0
H823 H 0.41351 0.26101 0.39554 0.0
H824 H 0.35346 0.22931 0.11998 0.0
C825 C 0.44013 0.67107 0.82934 0.0
C826 C 0.43289 0.70345 0.81196 0.0
N827 N 0.40251 0.70935 0.8507 0.0
N828 N 0.41486 0.65657 0.88189 0.0
C829 C 0.39224 0.68051 0.89375 0.0
H830 H 0.46219 0.65874 0.80286 0.0
Co831 Co 0.4115 0.6117 0.9094 0.0
C832 C 0.38447 0.61379 0.14835 0.0
O833 O 0.40423 0.5915 0.18921 0.0
N834 N 0.40854 0.56528 0.92846 0.0
C835 C 0.42657 0.51388 0.94979 0.0
C836 C 0.42679 0.54525 0.99344 0.0
C837 C 0.3965 0.54489 0.84897 0.0
N838 N 0.40768 0.5141 0.85814 0.0
O839 O 0.37218 0.61204 0.82923 0.0
H840 H 0.4422 0.55336 0.06112 0.0
H841 H 0.38195 0.55244 0.77932 0.0
O842 O 0.3863 0.62162 1.04557 0.0
C843 C 0.37817 0.61105 0.72574 0.0
O844 O 0.40788 0.60338 0.6927 0.0
N845 N 0.45228 0.61319 0.9805 0.0
C846 C 0.51621 0.63568 1.00831 0.0
C847 C 0.49119 0.64551 0.08133 0.0
C848 C 0.45924 0.63438 0.06505 0.0
C849 C 0.4768 0.60079 0.91606 0.0
C850 C 0.50902 0.61166 0.92864 0.0
H851 H 0.43991 0.64588 0.11192 0.0
H852 H 0.47078 0.58523 0.84618 0.0
H853 H 0.36826 0.67648 0.92942 0.0
H854 H 0.44892 0.72125 0.77361 0.0
H855 H 0.44084 0.49331 0.97914 0.0
H856 H 0.49563 0.66351 0.14552 0.0
H857 H 0.52734 0.60347 0.86999 0.0
C858 C 0.08559 0.69014 0.57942 0.0
C859 C 0.05321 0.6829 0.56202 0.0
N860 N 0.04731 0.65252 0.60075 0.0
N861 N 0.10009 0.66487 0.63195 0.0
C862 C 0.07615 0.64225 0.6438 0.0
H863 H 0.09793 0.71221 0.55294 0.0
Co864 Co 0.14497 0.66151 0.65945 0.0
C865 C 0.14288 0.63448 0.8984 0.0
O866 O 0.16517 0.65424 0.93926 0.0
N867 N 0.19138 0.65854 0.6785 0.0
C868 C 0.24279 0.67657 0.6998 0.0
C869 C 0.21142 0.6768 0.74346 0.0
C870 C 0.21177 0.64651 0.599 0.0
N871 N 0.24256 0.65769 0.60816 0.0
O872 O 0.14462 0.62218 0.57929 0.0
H873 H 0.20331 0.69221 0.81114 0.0
H874 H 0.20422 0.63195 0.52936 0.0
O875 O 0.13505 0.63632 0.79563 0.0
C876 C 0.14561 0.62818 0.4758 0.0
O877 O 0.15328 0.65788 0.44276 0.0
N878 N 0.14348 0.70229 0.73055 0.0
C879 C 0.12099 0.76622 0.75835 0.0
C880 C 0.11116 0.7412 0.83138 0.0
C881 C 0.12229 0.70925 0.81509 0.0
C882 C 0.15588 0.72681 0.6661 0.0
C883 C 0.14501 0.75903 0.67867 0.0
H884 H 0.11079 0.68993 0.86198 0.0
H885 H 0.17144 0.72078 0.59621 0.0
H886 H 0.08019 0.61827 0.67945 0.0
H887 H 0.03541 0.69893 0.52368 0.0
H888 H 0.26336 0.69085 0.72912 0.0
H889 H 0.09316 0.74565 0.89557 0.0
H890 H 0.1532 0.77735 0.62001 0.0
C891 C 0.06653 0.3356 0.3294 0.0
C892 C 0.07377 0.30322 0.312 0.0
N893 N 0.10415 0.29732 0.35073 0.0
N894 N 0.0918 0.3501 0.38194 0.0
C895 C 0.11442 0.32616 0.39379 0.0
H896 H 0.04446 0.34794 0.30292 0.0
Co897 Co 0.09516 0.39498 0.40945 0.0
C898 C 0.12219 0.39288 0.6484 0.0
O899 O 0.10243 0.41518 0.68926 0.0
N900 N 0.09812 0.44139 0.42851 0.0
C901 C 0.08009 0.4928 0.44982 0.0
C902 C 0.07987 0.46143 0.49347 0.0
C903 C 0.11016 0.46178 0.34902 0.0
N904 N 0.09898 0.49257 0.35818 0.0
O905 O 0.13448 0.39463 0.32929 0.0
H906 H 0.06445 0.45332 0.56115 0.0
H907 H 0.12471 0.45423 0.27938 0.0
O908 O 0.12035 0.38506 0.54562 0.0
C909 C 0.12849 0.39562 0.2258 0.0
O910 O 0.09878 0.4033 0.19275 0.0
N911 N 0.05438 0.39348 0.48055 0.0
C912 C 0.99045 0.37099 0.50834 0.0
C913 C 0.01547 0.36117 0.58137 0.0
C914 C 0.04742 0.3723 0.56509 0.0
C915 C 0.02986 0.40589 0.4161 0.0
C916 C 0.99764 0.39501 0.42867 0.0
H917 H 0.06675 0.36079 0.61197 0.0
H918 H 0.03588 0.42144 0.34621 0.0
H919 H 0.1384 0.3302 0.42944 0.0
H920 H 0.05774 0.28542 0.27366 0.0
H921 H 0.06582 0.51336 0.47914 0.0
H922 H 0.01102 0.34316 0.64556 0.0
H923 H 0.97932 0.40321 0.37001 0.0
C924 C 0.42203 0.69277 0.53495 0.0
C925 C 0.45445 0.68526 0.55166 0.0
N926 N 0.45969 0.6543 0.51712 0.0
N927 N 0.40697 0.66701 0.48734 0.0
C928 C 0.43047 0.64393 0.47778 0.0
H929 H 0.4101 0.71542 0.5577 0.0
Co930 Co 0.36233 0.6631 0.46074 0.0
C931 C 0.36482 0.63456 0.22472 0.0
O932 O 0.3436 0.65548 0.18361 0.0
N933 N 0.31673 0.65885 0.4446 0.0
C934 C 0.26887 0.63246 0.44404 0.0
C935 C 0.29938 0.63475 0.39488 0.0
C936 C 0.29611 0.67076 0.52339 0.0
N937 N 0.2673 0.65483 0.52606 0.0
O938 O 0.36242 0.62502 0.54689 0.0
H939 H 0.3093 0.61718 0.33689 0.0
H940 H 0.30325 0.68827 0.58592 0.0
O941 O 0.37238 0.63588 0.32795 0.0
C942 C 0.35758 0.62912 0.6501 0.0
O943 O 0.34607 0.65721 0.68552 0.0
N944 N 0.36355 0.70285 0.38095 0.0
C945 C 0.38706 0.7661 0.34255 0.0
C946 C 0.39761 0.73974 0.27678 0.0
C947 C 0.38595 0.70822 0.29836 0.0
C948 C 0.35062 0.72875 0.4375 0.0
C949 C 0.3619 0.76054 0.41941 0.0
H950 H 0.39832 0.6881 0.25846 0.0
H951 H 0.3348 0.72473 0.50748 0.0
H952 H 0.42586 0.61961 0.44583 0.0
H953 H 0.47272 0.70153 0.58605 0.0
H954 H 0.25064 0.6139 0.42727 0.0
H955 H 0.41662 0.74286 0.21504 0.0
H956 H 0.35315 0.77988 0.47315 0.0
C957 C 0.06389 0.67204 0.28502 0.0
C958 C 0.07141 0.70446 0.30172 0.0
N959 N 0.10237 0.70969 0.26718 0.0
N960 N 0.08965 0.65698 0.2374 0.0
C961 C 0.11274 0.68048 0.22784 0.0
H962 H 0.04125 0.66011 0.30776 0.0
Co963 Co 0.09357 0.61234 0.21079 0.0
C964 C 0.1221 0.61483 0.97478 0.0
O965 O 0.10119 0.59361 0.93367 0.0
N966 N 0.09781 0.56674 0.19464 0.0
C967 C 0.12421 0.51889 0.19407 0.0
C968 C 0.12192 0.54939 0.14493 0.0
C969 C 0.0859 0.54612 0.27342 0.0
N970 N 0.10184 0.51731 0.27609 0.0
O971 O 0.13165 0.61243 0.29695 0.0
H972 H 0.13949 0.55931 0.08695 0.0
H973 H 0.06839 0.55326 0.33595 0.0
O974 O 0.12079 0.62239 0.07801 0.0
C975 C 0.12754 0.60759 0.40015 0.0
O976 O 0.09946 0.59608 0.43557 0.0
N977 N 0.05382 0.61356 0.13099 0.0
C978 C 0.99057 0.63707 0.09257 0.0
C979 C 0.01693 0.64762 1.02681 0.0
C980 C 0.04845 0.63597 1.04841 0.0
C981 C 0.02791 0.60063 0.18754 0.0
C982 C 0.99613 0.61191 0.16944 0.0
H983 H 0.06857 0.64834 1.00851 0.0
H984 H 0.03193 0.58481 0.25753 0.0
H985 H 0.13706 0.67587 0.19588 0.0
H986 H 0.05514 0.72273 0.33612 0.0
H987 H 0.14277 0.50065 0.17731 0.0
H988 H 0.01381 0.66663 0.96507 0.0
H989 H 0.97678 0.60317 0.22317 0.0
C990 C 0.08462 0.3139 1.03501 0.0
C991 C 0.05221 0.32142 1.05171 0.0
N992 N 0.04697 0.35238 1.01718 0.0
N993 N 0.09968 0.33966 0.9874 0.0
C994 C 0.07619 0.36275 0.97784 0.0
H995 H 0.09656 0.29126 0.05775 0.0
Co996 Co 0.14432 0.34358 0.96079 0.0
C997 C 0.14184 0.37211 0.72478 0.0
O998 O 0.16306 0.3512 0.68366 0.0
N999 N 0.18993 0.34782 0.94464 0.0
C1000 C 0.23779 0.37421 0.94407 0.0
C1001 C 0.20728 0.37192 0.89493 0.0
C1002 C 0.21054 0.33591 1.02343 0.0
N1003 N 0.23936 0.35184 1.02609 0.0
O1004 O 0.14424 0.38166 1.04694 0.0
H1005 H 0.19736 0.38949 0.83694 0.0
H1006 H 0.20341 0.3184 0.08596 0.0
O1007 O 0.13428 0.3708 0.82801 0.0
C1008 C 0.14908 0.37755 0.15015 0.0
O1009 O 0.16059 0.34947 0.18557 0.0
N1010 N 0.1431 0.30383 0.881 0.0
C1011 C 0.1196 0.24058 0.84257 0.0
C1012 C 0.10904 0.26694 0.77681 0.0
C1013 C 0.1207 0.29845 0.79841 0.0
C1014 C 0.15603 0.27792 0.93754 0.0
C1015 C 0.14475 0.24614 0.91944 0.0
H1016 H 0.10833 0.31857 0.75851 0.0
H1017 H 0.17185 0.28194 1.00753 0.0
H1018 H 0.0808 0.38707 0.94588 0.0
H1019 H 0.03394 0.30515 0.08611 0.0
H1020 H 0.25602 0.39276 0.9273 0.0
H1021 H 0.09004 0.26381 0.71507 0.0
H1022 H 0.1535 0.22679 0.97317 0.0
C1023 C 0.44277 0.33462 0.78504 0.0
C1024 C 0.43525 0.30221 0.80174 0.0
N1025 N 0.40429 0.29697 0.76718 0.0
N1026 N 0.41701 0.34968 0.73742 0.0
C1027 C 0.39392 0.32619 0.72785 0.0
H1028 H 0.46541 0.34656 0.80779 0.0
Co1029 Co 0.41309 0.39432 0.7108 0.0
C1030 C 0.38456 0.39183 0.47479 0.0
O1031 O 0.40547 0.41305 0.43367 0.0
N1032 N 0.40885 0.43992 0.69465 0.0
C1033 C 0.38245 0.48778 0.69405 0.0
C1034 C 0.38475 0.45727 0.64492 0.0
C1035 C 0.42075 0.46054 0.77342 0.0
N1036 N 0.40482 0.48936 0.77607 0.0
O1037 O 0.37501 0.39423 0.79695 0.0
H1038 H 0.36718 0.44735 0.58693 0.0
H1039 H 0.43827 0.45341 0.83596 0.0
O1040 O 0.38587 0.38427 0.57802 0.0
C1041 C 0.37911 0.39908 0.90016 0.0
O1042 O 0.4072 0.41059 0.93557 0.0
N1043 N 0.45284 0.3931 0.63101 0.0
C1044 C 0.51609 0.36959 0.59261 0.0
C1045 C 0.48973 0.35904 0.52685 0.0
C1046 C 0.45822 0.37069 0.54843 0.0
C1047 C 0.47875 0.40603 0.68756 0.0
C1048 C 0.51053 0.39475 0.66948 0.0
H1049 H 0.4381 0.35833 0.50853 0.0
H1050 H 0.47472 0.42185 0.75755 0.0
H1051 H 0.3696 0.33079 0.69588 0.0
H1052 H 0.45152 0.28394 0.83613 0.0
H1053 H 0.3639 0.50602 0.67727 0.0
H1054 H 0.49286 0.34003 0.46511 0.0
H1055 H 0.52988 0.4035 0.72322 0.0
loop_
_geom_bond_atom_site_label_1
_geom_bond_atom_site_label_2
_geom_bond_distance
_geom_bond_site_symmetry_2
_ccdc_geom_bond_type
C0 C1 1.351 . S
C0 N3 1.368 . S
C0 H5 0.931 . S
C1 C0 1.351 . S
C1 N2 1.373 . S
C1 H29 0.930 . S
N2 C1 1.373 . S
N2 C4 1.340 . S
N3 C0 1.368 . S
N3 C4 1.321 . S
N3 Co6 2.135 . S
C4 N2 1.340 . S
C4 N3 1.321 . S
C4 H28 0.930 . S
H5 C0 0.931 . S
Co6 N3 2.135 . S
Co6 N9 2.121 . S
Co6 O14 2.055 . S
Co6 O17 2.039 . S
Co6 N20 2.140 . S
C7 O8 1.227 . S
C7 O17 1.265 . S
O8 C7 1.227 . S
N9 Co6 2.121 . S
N9 C11 1.375 . S
N9 C12 1.313 . S
C10 C11 1.338 . S
C10 N13 1.377 . S
C10 H30 0.930 . S
C11 N9 1.375 . S
C11 C10 1.338 . S
C11 H15 0.931 . S
C12 N9 1.313 . S
C12 N13 1.344 . S
C12 H16 0.930 . S
N13 C10 1.377 . S
N13 C12 1.344 . S
O14 Co6 2.055 . S
O14 C18 1.253 . S
H15 C11 0.931 . S
H16 C12 0.930 . S
O17 Co6 2.039 . S
O17 C7 1.265 . S
C18 O14 1.253 . S
C18 O19 1.227 . S
O19 C18 1.227 . S
N20 Co6 2.140 . S
N20 C23 1.346 . S
N20 C24 1.345 . S
C21 C22 1.387 . S
C21 C25 1.391 . S
C22 C21 1.387 . S
C22 C23 1.369 . S
C22 H31 0.929 . S
C23 N20 1.346 . S
C23 C22 1.369 . S
C23 H26 0.928 . S
C24 N20 1.345 . S
C24 C25 1.371 . S
C24 H27 0.931 . S
C25 C21 1.391 . S
C25 C24 1.371 . S
C25 H32 0.930 . S
H26 C23 0.928 . S
H27 C24 0.931 . S
H28 C4 0.930 . S
H29 C1 0.930 . S
H30 C10 0.930 . S
H31 C22 0.929 . S
H32 C25 0.930 . S
C33 C34 1.351 . S
C33 N36 1.368 . S
C33 H38 0.931 . S
C34 C33 1.351 . S
C34 N35 1.373 . S
C34 H62 0.930 . S
N35 C34 1.373 . S
N35 C37 1.340 . S
N36 C33 1.368 . S
N36 C37 1.321 . S
N36 Co39 2.135 . S
C37 N35 1.340 . S
C37 N36 1.321 . S
C37 H61 0.930 . S
H38 C33 0.931 . S
Co39 N36 2.135 . S
Co39 N42 2.121 . S
Co39 O47 2.055 . S
Co39 O50 2.039 . S
Co39 N53 2.140 . S
C40 O41 1.227 . S
C40 O50 1.265 . S
O41 C40 1.227 . S
N42 Co39 2.121 . S
N42 C44 1.375 . S
N42 C45 1.313 . S
C43 C44 1.338 . S
C43 N46 1.377 . S
C43 H63 0.930 1_565 S
C44 N42 1.375 . S
C44 C43 1.338 . S
C44 H48 0.931 . S
C45 N42 1.313 . S
C45 N46 1.344 . S
C45 H49 0.930 . S
N46 C43 1.377 . S
N46 C45 1.344 . S
O47 Co39 2.055 . S
O47 C51 1.253 . S
H48 C44 0.931 . S
H49 C45 0.930 . S
O50 Co39 2.039 . S
O50 C40 1.265 . S
C51 O47 1.253 . S
C51 O52 1.227 . S
O52 C51 1.227 . S
N53 Co39 2.140 . S
N53 C56 1.346 . S
N53 C57 1.345 . S
C54 C55 1.387 . S
C54 C58 1.391 . S
C55 C54 1.387 . S
C55 C56 1.369 . S
C55 H64 0.929 . S
C56 N53 1.346 . S
C56 C55 1.369 . S
C56 H59 0.928 . S
C57 N53 1.345 . S
C57 C58 1.371 . S
C57 H60 0.931 . S
C58 C54 1.391 . S
C58 C57 1.371 . S
C58 H65 0.930 . S
H59 C56 0.928 . S
H60 C57 0.931 . S
H61 C37 0.930 . S
H62 C34 0.930 . S
H63 C43 0.930 1_545 S
H64 C55 0.929 . S
H65 C58 0.930 . S
C66 C67 1.351 . S
C66 N69 1.368 . S
C66 H71 0.931 1_556 S
C67 C66 1.351 . S
C67 N68 1.373 . S
C67 H95 0.930 1_556 S
N68 C67 1.373 . S
N68 C70 1.340 . S
N69 C66 1.368 . S
N69 C70 1.321 . S
N69 Co72 2.135 . S
C70 N68 1.340 . S
C70 N69 1.321 . S
C70 H94 0.930 . S
H71 C66 0.931 1_554 S
Co72 N69 2.135 . S
Co72 N75 2.121 . S
Co72 O80 2.055 1_556 S
Co72 O83 2.039 . S
Co72 N86 2.140 . S
C73 O74 1.227 . S
C73 O83 1.265 . S
O74 C73 1.227 . S
N75 Co72 2.121 . S
N75 C77 1.375 . S
N75 C78 1.313 . S
C76 C77 1.338 . S
C76 N79 1.377 . S
C76 H96 0.930 . S
C77 N75 1.375 . S
C77 C76 1.338 . S
C77 H81 0.931 . S
C78 N75 1.313 . S
C78 N79 1.344 . S
C78 H82 0.930 1_556 S
N79 C76 1.377 . S
N79 C78 1.344 . S
O80 Co72 2.055 1_554 S
O80 C84 1.253 . S
H81 C77 0.931 . S
H82 C78 0.930 1_554 S
O83 Co72 2.039 . S
O83 C73 1.265 . S
C84 O80 1.253 . S
C84 O85 1.227 . S
O85 C84 1.227 . S
N86 Co72 2.140 . S
N86 C89 1.346 . S
N86 C90 1.345 . S
C87 C88 1.387 . S
C87 C91 1.391 . S
C88 C87 1.387 . S
C88 C89 1.369 . S
C88 H97 0.929 . S
C89 N86 1.346 . S
C89 C88 1.369 . S
C89 H92 0.928 . S
C90 N86 1.345 . S
C90 C91 1.371 . S
C90 H93 0.931 . S
C91 C87 1.391 . S
C91 C90 1.371 . S
C91 H98 0.930 . S
H92 C89 0.928 . S
H93 C90 0.931 . S
H94 C70 0.930 . S
H95 C67 0.930 1_554 S
H96 C76 0.930 . S
H97 C88 0.929 . S
H98 C91 0.930 . S
C99 C100 1.351 . S
C99 N102 1.368 . S
C99 H104 0.931 . S
C100 C99 1.351 . S
C100 N101 1.373 . S
C100 H128 0.930 . S
N101 C100 1.373 . S
N101 C103 1.340 . S
N102 C99 1.368 . S
N102 C103 1.321 . S
N102 Co105 2.135 . S
C103 N101 1.340 . S
C103 N102 1.321 . S
C103 H127 0.930 . S
H104 C99 0.931 . S
Co105 N102 2.135 . S
Co105 N108 2.121 . S
Co105 O113 2.055 . S
Co105 O116 2.039 . S
Co105 N119 2.140 . S
C106 O107 1.227 . S
C106 O116 1.265 1_556 S
O107 C106 1.227 . S
N108 Co105 2.121 . S
N108 C110 1.375 . S
N108 C111 1.313 . S
C109 C110 1.338 . S
C109 N112 1.377 . S
C109 H129 0.930 1_545 S
C110 N108 1.375 . S
C110 C109 1.338 . S
C110 H114 0.931 1_554 S
C111 N108 1.313 . S
C111 N112 1.344 . S
C111 H115 0.930 . S
N112 C109 1.377 . S
N112 C111 1.344 . S
O113 Co105 2.055 . S
O113 C117 1.253 . S
H114 C110 0.931 1_556 S
H115 C111 0.930 . S
O116 Co105 2.039 . S
O116 C106 1.265 1_554 S
C117 O113 1.253 . S
C117 O118 1.227 . S
O118 C117 1.227 . S
N119 Co105 2.140 . S
N119 C122 1.346 . S
N119 C123 1.345 . S
C120 C121 1.387 . S
C120 C124 1.391 . S
C121 C120 1.387 . S
C121 C122 1.369 . S
C121 H130 0.929 . S
C122 N119 1.346 . S
C122 C121 1.369 . S
C122 H125 0.928 . S
C123 N119 1.345 . S
C123 C124 1.371 . S
C123 H126 0.931 . S
C124 C120 1.391 . S
C124 C123 1.371 . S
C124 H131 0.930 . S
H125 C122 0.928 . S
H126 C123 0.931 . S
H127 C103 0.930 . S
H128 C100 0.930 . S
H129 C109 0.930 1_565 S
H130 C121 0.929 . S
H131 C124 0.930 . S
C132 C133 1.351 . S
C132 N135 1.368 . S
C132 H137 0.931 1_554 S
C133 C132 1.351 . S
C133 N134 1.373 . S
C133 H161 0.930 1_554 S
N134 C133 1.373 . S
N134 C136 1.340 . S
N135 C132 1.368 . S
N135 C136 1.321 . S
N135 Co138 2.135 . S
C136 N134 1.340 . S
C136 N135 1.321 . S
C136 H160 0.930 . S
H137 C132 0.931 1_556 S
Co138 N135 2.135 . S
Co138 N141 2.121 . S
Co138 O146 2.055 1_554 S
Co138 O149 2.039 . S
Co138 N152 2.140 . S
C139 O140 1.227 . S
C139 O149 1.265 . S
O140 C139 1.227 . S
N141 Co138 2.121 . S
N141 C143 1.375 . S
N141 C144 1.313 . S
C142 C143 1.338 . S
C142 N145 1.377 . S
C142 H162 0.930 . S
C143 N141 1.375 . S
C143 C142 1.338 . S
C143 H147 0.931 . S
C144 N141 1.313 . S
C144 N145 1.344 . S
C144 H148 0.930 1_554 S
N145 C142 1.377 . S
N145 C144 1.344 . S
O146 Co138 2.055 1_556 S
O146 C150 1.253 . S
H147 C143 0.931 . S
H148 C144 0.930 1_556 S
O149 Co138 2.039 . S
O149 C139 1.265 . S
C150 O146 1.253 . S
C150 O151 1.227 . S
O151 C150 1.227 . S
N152 Co138 2.140 . S
N152 C155 1.346 . S
N152 C156 1.345 . S
C153 C154 1.387 . S
C153 C157 1.391 . S
C154 C153 1.387 . S
C154 C155 1.369 . S
C154 H163 0.929 . S
C155 N152 1.346 . S
C155 C154 1.369 . S
C155 H158 0.928 . S
C156 N152 1.345 . S
C156 C157 1.371 . S
C156 H159 0.931 . S
C157 C153 1.391 . S
C157 C156 1.371 . S
C157 H164 0.930 . S
H158 C155 0.928 . S
H159 C156 0.931 . S
H160 C136 0.930 . S
H161 C133 0.930 1_556 S
H162 C142 0.930 . S
H163 C154 0.929 . S
H164 C157 0.930 . S
C165 C166 1.351 . S
C165 N168 1.368 . S
C165 H170 0.931 . S
C166 C165 1.351 . S
C166 N167 1.373 . S
C166 H194 0.930 . S
N167 C166 1.373 . S
N167 C169 1.340 . S
N168 C165 1.368 . S
N168 C169 1.321 . S
N168 Co171 2.135 . S
C169 N167 1.340 . S
C169 N168 1.321 . S
C169 H193 0.930 . S
H170 C165 0.931 . S
Co171 N168 2.135 . S
Co171 N174 2.121 . S
Co171 O179 2.055 . S
Co171 O182 2.039 . S
Co171 N185 2.140 . S
C172 O173 1.227 . S
C172 O182 1.265 . S
O173 C172 1.227 . S
N174 Co171 2.121 . S
N174 C176 1.375 . S
N174 C177 1.313 . S
C175 C176 1.338 . S
C175 N178 1.377 . S
C175 H195 0.930 1_565 S
C176 N174 1.375 . S
C176 C175 1.338 . S
C176 H180 0.931 . S
C177 N174 1.313 . S
C177 N178 1.344 . S
C177 H181 0.930 . S
N178 C175 1.377 . S
N178 C177 1.344 . S
O179 Co171 2.055 . S
O179 C183 1.253 . S
H180 C176 0.931 . S
H181 C177 0.930 . S
O182 Co171 2.039 . S
O182 C172 1.265 . S
C183 O179 1.253 . S
C183 O184 1.227 . S
O184 C183 1.227 . S
N185 Co171 2.140 . S
N185 C188 1.346 . S
N185 C189 1.345 . S
C186 C187 1.387 . S
C186 C190 1.391 . S
C187 C186 1.387 . S
C187 C188 1.369 . S
C187 H196 0.929 . S
C188 N185 1.346 . S
C188 C187 1.369 . S
C188 H191 0.928 . S
C189 N185 1.345 . S
C189 C190 1.371 . S
C189 H192 0.931 . S
C190 C186 1.391 . S
C190 C189 1.371 . S
C190 H197 0.930 . S
H191 C188 0.928 . S
H192 C189 0.931 . S
H193 C169 0.930 . S
H194 C166 0.930 . S
H195 C175 0.930 1_545 S
H196 C187 0.929 . S
H197 C190 0.930 . S
C198 C199 1.351 . S
C198 N201 1.368 . S
C198 H203 0.931 . S
C199 C198 1.351 . S
C199 N200 1.373 . S
C199 H227 0.930 . S
N200 C199 1.373 . S
N200 C202 1.340 . S
N201 C198 1.368 . S
N201 C202 1.321 . S
N201 Co204 2.135 . S
C202 N200 1.340 . S
C202 N201 1.321 . S
C202 H226 0.930 . S
H203 C198 0.931 . S
Co204 N201 2.135 . S
Co204 N207 2.121 . S
Co204 O212 2.055 . S
Co204 O215 2.039 . S
Co204 N218 2.140 . S
C205 O206 1.227 . S
C205 O215 1.265 . S
O206 C205 1.227 . S
N207 Co204 2.121 . S
N207 C209 1.375 . S
N207 C210 1.313 . S
C208 C209 1.338 . S
C208 N211 1.377 . S
C208 H228 0.930 . S
C209 N207 1.375 . S
C209 C208 1.338 . S
C209 H213 0.931 . S
C210 N207 1.313 . S
C210 N211 1.344 . S
C210 H214 0.930 . S
N211 C208 1.377 . S
N211 C210 1.344 . S
O212 Co204 2.055 . S
O212 C216 1.253 . S
H213 C209 0.931 . S
H214 C210 0.930 . S
O215 Co204 2.039 . S
O215 C205 1.265 . S
C216 O212 1.253 . S
C216 O217 1.227 . S
O217 C216 1.227 . S
N218 Co204 2.140 . S
N218 C221 1.346 . S
N218 C222 1.345 . S
C219 C220 1.387 . S
C219 C223 1.391 . S
C220 C219 1.387 . S
C220 C221 1.369 . S
C220 H229 0.929 . S
C221 N218 1.346 . S
C221 C220 1.369 . S
C221 H224 0.928 . S
C222 N218 1.345 . S
C222 C223 1.371 . S
C222 H225 0.931 . S
C223 C219 1.391 . S
C223 C222 1.371 . S
C223 H230 0.930 . S
H224 C221 0.928 . S
H225 C222 0.931 . S
H226 C202 0.930 . S
H227 C199 0.930 . S
H228 C208 0.930 . S
H229 C220 0.929 . S
H230 C223 0.930 . S
C231 C232 1.351 . S
C231 N234 1.368 . S
C231 H236 0.931 . S
C232 C231 1.351 . S
C232 N233 1.373 . S
C232 H260 0.930 . S
N233 C232 1.373 . S
N233 C235 1.340 . S
N234 C231 1.368 . S
N234 C235 1.321 . S
N234 Co237 2.135 . S
C235 N233 1.340 . S
C235 N234 1.321 . S
C235 H259 0.930 . S
H236 C231 0.931 . S
Co237 N234 2.135 . S
Co237 N240 2.121 . S
Co237 O245 2.055 . S
Co237 O248 2.039 . S
Co237 N251 2.140 . S
C238 O239 1.227 . S
C238 O248 1.265 1_554 S
O239 C238 1.227 . S
N240 Co237 2.121 . S
N240 C242 1.375 . S
N240 C243 1.313 . S
C241 C242 1.338 . S
C241 N244 1.377 . S
C241 H261 0.930 1_545 S
C242 N240 1.375 . S
C242 C241 1.338 . S
C242 H246 0.931 1_556 S
C243 N240 1.313 . S
C243 N244 1.344 . S
C243 H247 0.930 . S
N244 C241 1.377 . S
N244 C243 1.344 . S
O245 Co237 2.055 . S
O245 C249 1.253 . S
H246 C242 0.931 1_554 S
H247 C243 0.930 . S
O248 Co237 2.039 . S
O248 C238 1.265 1_556 S
C249 O245 1.253 . S
C249 O250 1.227 . S
O250 C249 1.227 . S
N251 Co237 2.140 . S
N251 C254 1.346 . S
N251 C255 1.345 . S
C252 C253 1.387 . S
C252 C256 1.391 . S
C253 C252 1.387 . S
C253 C254 1.369 . S
C253 H262 0.929 . S
C254 N251 1.346 . S
C254 C253 1.369 . S
C254 H257 0.928 . S
C255 N251 1.345 . S
C255 C256 1.371 . S
C255 H258 0.931 . S
C256 C252 1.391 . S
C256 C255 1.371 . S
C256 H263 0.930 . S
H257 C254 0.928 . S
H258 C255 0.931 . S
H259 C235 0.930 . S
H260 C232 0.930 . S
H261 C241 0.930 1_565 S
H262 C253 0.929 . S
H263 C256 0.930 . S
C264 C265 1.351 . S
C264 N267 1.368 . S
C264 H269 0.931 . S
C265 C264 1.351 . S
C265 N266 1.373 . S
C265 H293 0.930 . S
N266 C265 1.373 . S
N266 C268 1.340 . S
N267 C264 1.368 . S
N267 C268 1.321 . S
N267 Co270 2.135 . S
C268 N266 1.340 . S
C268 N267 1.321 . S
C268 H292 0.930 . S
H269 C264 0.931 . S
Co270 N267 2.135 . S
Co270 N273 2.121 . S
Co270 O278 2.055 . S
Co270 O281 2.039 . S
Co270 N284 2.140 . S
C271 O272 1.227 . S
C271 O281 1.265 . S
O272 C271 1.227 . S
N273 Co270 2.121 . S
N273 C275 1.375 . S
N273 C276 1.313 . S
C274 C275 1.338 . S
C274 N277 1.377 . S
C274 H294 0.930 . S
C275 N273 1.375 . S
C275 C274 1.338 . S
C275 H279 0.931 . S
C276 N273 1.313 . S
C276 N277 1.344 . S
C276 H280 0.930 . S
N277 C274 1.377 . S
N277 C276 1.344 . S
O278 Co270 2.055 . S
O278 C282 1.253 . S
H279 C275 0.931 . S
H280 C276 0.930 . S
O281 Co270 2.039 . S
O281 C271 1.265 . S
C282 O278 1.253 . S
C282 O283 1.227 . S
O283 C282 1.227 . S
N284 Co270 2.140 . S
N284 C287 1.346 . S
N284 C288 1.345 . S
C285 C286 1.387 . S
C285 C289 1.391 . S
C286 C285 1.387 . S
C286 C287 1.369 . S
C286 H295 0.929 . S
C287 N284 1.346 . S
C287 C286 1.369 . S
C287 H290 0.928 . S
C288 N284 1.345 . S
C288 C289 1.371 . S
C288 H291 0.931 . S
C289 C285 1.391 . S
C289 C288 1.371 . S
C289 H296 0.930 . S
H290 C287 0.928 . S
H291 C288 0.931 . S
H292 C268 0.930 . S
H293 C265 0.930 . S
H294 C274 0.930 . S
H295 C286 0.929 . S
H296 C289 0.930 . S
C297 C298 1.351 . S
C297 N300 1.368 . S
C297 H302 0.931 . S
C298 C297 1.351 . S
C298 N299 1.373 . S
C298 H326 0.930 . S
N299 C298 1.373 . S
N299 C301 1.340 . S
N300 C297 1.368 . S
N300 C301 1.321 . S
N300 Co303 2.135 . S
C301 N299 1.340 . S
C301 N300 1.321 . S
C301 H325 0.930 . S
H302 C297 0.931 . S
Co303 N300 2.135 . S
Co303 N306 2.121 . S
Co303 O311 2.055 . S
Co303 O314 2.039 . S
Co303 N317 2.140 . S
C304 O305 1.227 . S
C304 O314 1.265 . S
O305 C304 1.227 . S
N306 Co303 2.121 . S
N306 C308 1.375 . S
N306 C309 1.313 . S
C307 C308 1.338 . S
C307 N310 1.377 . S
C307 H327 0.930 1_545 S
C308 N306 1.375 . S
C308 C307 1.338 . S
C308 H312 0.931 . S
C309 N306 1.313 . S
C309 N310 1.344 . S
C309 H313 0.930 . S
N310 C307 1.377 . S
N310 C309 1.344 . S
O311 Co303 2.055 . S
O311 C315 1.253 . S
H312 C308 0.931 . S
H313 C309 0.930 . S
O314 Co303 2.039 . S
O314 C304 1.265 . S
C315 O311 1.253 . S
C315 O316 1.227 . S
O316 C315 1.227 . S
N317 Co303 2.140 . S
N317 C320 1.346 . S
N317 C321 1.345 . S
C318 C319 1.387 . S
C318 C322 1.391 . S
C319 C318 1.387 . S
C319 C320 1.369 . S
C319 H328 0.929 . S
C320 N317 1.346 . S
C320 C319 1.369 . S
C320 H323 0.928 . S
C321 N317 1.345 . S
C321 C322 1.371 . S
C321 H324 0.931 . S
C322 C318 1.391 . S
C322 C321 1.371 . S
C322 H329 0.930 . S
H323 C320 0.928 . S
H324 C321 0.931 . S
H325 C301 0.930 . S
H326 C298 0.930 . S
H327 C307 0.930 1_565 S
H328 C319 0.929 . S
H329 C322 0.930 . S
C330 C331 1.351 . S
C330 N333 1.368 . S
C330 H335 0.931 1_554 S
C331 C330 1.351 . S
C331 N332 1.373 . S
C331 H359 0.930 1_554 S
N332 C331 1.373 . S
N332 C334 1.340 . S
N333 C330 1.368 . S
N333 C334 1.321 . S
N333 Co336 2.135 . S
C334 N332 1.340 . S
C334 N333 1.321 . S
C334 H358 0.930 . S
H335 C330 0.931 1_556 S
Co336 N333 2.135 . S
Co336 N339 2.121 . S
Co336 O344 2.055 1_554 S
Co336 O347 2.039 . S
Co336 N350 2.140 . S
C337 O338 1.227 . S
C337 O347 1.265 . S
O338 C337 1.227 . S
N339 Co336 2.121 . S
N339 C341 1.375 . S
N339 C342 1.313 . S
C340 C341 1.338 . S
C340 N343 1.377 . S
C340 H360 0.930 . S
C341 N339 1.375 . S
C341 C340 1.338 . S
C341 H345 0.931 . S
C342 N339 1.313 . S
C342 N343 1.344 . S
C342 H346 0.930 1_554 S
N343 C340 1.377 . S
N343 C342 1.344 . S
O344 Co336 2.055 1_556 S
O344 C348 1.253 . S
H345 C341 0.931 . S
H346 C342 0.930 1_556 S
O347 Co336 2.039 . S
O347 C337 1.265 . S
C348 O344 1.253 . S
C348 O349 1.227 . S
O349 C348 1.227 . S
N350 Co336 2.140 . S
N350 C353 1.346 . S
N350 C354 1.345 . S
C351 C352 1.387 . S
C351 C355 1.391 . S
C352 C351 1.387 . S
C352 C353 1.369 . S
C352 H361 0.929 . S
C353 N350 1.346 . S
C353 C352 1.369 . S
C353 H356 0.928 . S
C354 N350 1.345 . S
C354 C355 1.371 . S
C354 H357 0.931 . S
C355 C351 1.391 . S
C355 C354 1.371 . S
C355 H362 0.930 . S
H356 C353 0.928 . S
H357 C354 0.931 . S
H358 C334 0.930 . S
H359 C331 0.930 1_556 S
H360 C340 0.930 . S
H361 C352 0.929 . S
H362 C355 0.930 . S
C363 C364 1.351 . S
C363 N366 1.368 . S
C363 H368 0.931 . S
C364 C363 1.351 . S
C364 N365 1.373 . S
C364 H392 0.930 . S
N365 C364 1.373 . S
N365 C367 1.340 . S
N366 C363 1.368 . S
N366 C367 1.321 . S
N366 Co369 2.135 . S
C367 N365 1.340 . S
C367 N366 1.321 . S
C367 H391 0.930 . S
H368 C363 0.931 . S
Co369 N366 2.135 . S
Co369 N372 2.121 . S
Co369 O377 2.055 . S
Co369 O380 2.039 . S
Co369 N383 2.140 . S
C370 O371 1.227 . S
C370 O380 1.265 1_554 S
O371 C370 1.227 . S
N372 Co369 2.121 . S
N372 C374 1.375 . S
N372 C375 1.313 . S
C373 C374 1.338 . S
C373 N376 1.377 . S
C373 H393 0.930 1_565 S
C374 N372 1.375 . S
C374 C373 1.338 . S
C374 H378 0.931 1_556 S
C375 N372 1.313 . S
C375 N376 1.344 . S
C375 H379 0.930 . S
N376 C373 1.377 . S
N376 C375 1.344 . S
O377 Co369 2.055 . S
O377 C381 1.253 . S
H378 C374 0.931 1_554 S
H379 C375 0.930 . S
O380 Co369 2.039 . S
O380 C370 1.265 1_556 S
C381 O377 1.253 . S
C381 O382 1.227 . S
O382 C381 1.227 . S
N383 Co369 2.140 . S
N383 C386 1.346 . S
N383 C387 1.345 . S
C384 C385 1.387 . S
C384 C388 1.391 . S
C385 C384 1.387 . S
C385 C386 1.369 . S
C385 H394 0.929 . S
C386 N383 1.346 . S
C386 C385 1.369 . S
C386 H389 0.928 . S
C387 N383 1.345 . S
C387 C388 1.371 . S
C387 H390 0.931 . S
C388 C384 1.391 . S
C388 C387 1.371 . S
C388 H395 0.930 . S
H389 C386 0.928 . S
H390 C387 0.931 . S
H391 C367 0.930 . S
H392 C364 0.930 . S
H393 C373 0.930 1_545 S
H394 C385 0.929 . S
H395 C388 0.930 . S
C396 C397 1.351 . S
C396 N399 1.368 . S
C396 H401 0.931 1_556 S
C397 C396 1.351 . S
C397 N398 1.373 . S
C397 H425 0.930 1_556 S
N398 C397 1.373 . S
N398 C400 1.340 . S
N399 C396 1.368 . S
N399 C400 1.321 . S
N399 Co402 2.135 . S
C400 N398 1.340 . S
C400 N399 1.321 . S
C400 H424 0.930 . S
H401 C396 0.931 1_554 S
Co402 N399 2.135 . S
Co402 N405 2.121 . S
Co402 O410 2.055 1_556 S
Co402 O413 2.039 . S
Co402 N416 2.140 . S
C403 O404 1.227 . S
C403 O413 1.265 . S
O404 C403 1.227 . S
N405 Co402 2.121 . S
N405 C407 1.375 . S
N405 C408 1.313 . S
C406 C407 1.338 . S
C406 N409 1.377 . S
C406 H426 0.930 . S
C407 N405 1.375 . S
C407 C406 1.338 . S
C407 H411 0.931 . S
C408 N405 1.313 . S
C408 N409 1.344 . S
C408 H412 0.930 1_556 S
N409 C406 1.377 . S
N409 C408 1.344 . S
O410 Co402 2.055 1_554 S
O410 C414 1.253 . S
H411 C407 0.931 . S
H412 C408 0.930 1_554 S
O413 Co402 2.039 . S
O413 C403 1.265 . S
C414 O410 1.253 . S
C414 O415 1.227 . S
O415 C414 1.227 . S
N416 Co402 2.140 . S
N416 C419 1.346 . S
N416 C420 1.345 . S
C417 C418 1.387 . S
C417 C421 1.391 . S
C418 C417 1.387 . S
C418 C419 1.369 . S
C418 H427 0.929 . S
C419 N416 1.346 . S
C419 C418 1.369 . S
C419 H422 0.928 . S
C420 N416 1.345 . S
C420 C421 1.371 . S
C420 H423 0.931 . S
C421 C417 1.391 . S
C421 C420 1.371 . S
C421 H428 0.930 . S
H422 C419 0.928 . S
H423 C420 0.931 . S
H424 C400 0.930 . S
H425 C397 0.930 1_554 S
H426 C406 0.930 . S
H427 C418 0.929 . S
H428 C421 0.930 . S
C429 C430 1.351 . S
C429 N432 1.368 . S
C429 H434 0.931 . S
C430 C429 1.351 . S
C430 N431 1.373 . S
C430 H458 0.930 . S
N431 C430 1.373 . S
N431 C433 1.340 . S
N432 C429 1.368 . S
N432 C433 1.321 . S
N432 Co435 2.135 . S
C433 N431 1.340 . S
C433 N432 1.321 . S
C433 H457 0.930 . S
H434 C429 0.931 . S
Co435 N432 2.135 . S
Co435 N438 2.121 . S
Co435 O443 2.055 . S
Co435 O446 2.039 . S
Co435 N449 2.140 . S
C436 O437 1.227 . S
C436 O446 1.265 . S
O437 C436 1.227 . S
N438 Co435 2.121 . S
N438 C440 1.375 . S
N438 C441 1.313 . S
C439 C440 1.338 . S
C439 N442 1.377 . S
C439 H459 0.930 1_545 S
C440 N438 1.375 . S
C440 C439 1.338 . S
C440 H444 0.931 . S
C441 N438 1.313 . S
C441 N442 1.344 . S
C441 H445 0.930 . S
N442 C439 1.377 . S
N442 C441 1.344 . S
O443 Co435 2.055 . S
O443 C447 1.253 . S
H444 C440 0.931 . S
H445 C441 0.930 . S
O446 Co435 2.039 . S
O446 C436 1.265 . S
C447 O443 1.253 . S
C447 O448 1.227 . S
O448 C447 1.227 . S
N449 Co435 2.140 . S
N449 C452 1.346 . S
N449 C453 1.345 . S
C450 C451 1.387 . S
C450 C454 1.391 . S
C451 C450 1.387 . S
C451 C452 1.369 . S
C451 H460 0.929 . S
C452 N449 1.346 . S
C452 C451 1.369 . S
C452 H455 0.928 . S
C453 N449 1.345 . S
C453 C454 1.371 . S
C453 H456 0.931 . S
C454 C450 1.391 . S
C454 C453 1.371 . S
C454 H461 0.930 . S
H455 C452 0.928 . S
H456 C453 0.931 . S
H457 C433 0.930 . S
H458 C430 0.930 . S
H459 C439 0.930 1_565 S
H460 C451 0.929 . S
H461 C454 0.930 . S
C462 C463 1.351 . S
C462 N465 1.368 . S
C462 H467 0.931 . S
C463 C462 1.351 . S
C463 N464 1.373 . S
C463 H491 0.930 . S
N464 C463 1.373 . S
N464 C466 1.340 . S
N465 C462 1.368 . S
N465 C466 1.321 . S
N465 Co468 2.135 . S
C466 N464 1.340 . S
C466 N465 1.321 . S
C466 H490 0.930 . S
H467 C462 0.931 . S
Co468 N465 2.135 . S
Co468 N471 2.121 . S
Co468 O476 2.055 . S
Co468 O479 2.039 . S
Co468 N482 2.140 . S
C469 O470 1.227 . S
C469 O479 1.265 . S
O470 C469 1.227 . S
N471 Co468 2.121 . S
N471 C473 1.375 . S
N471 C474 1.313 . S
C472 C473 1.338 . S
C472 N475 1.377 . S
C472 H492 0.930 . S
C473 N471 1.375 . S
C473 C472 1.338 . S
C473 H477 0.931 . S
C474 N471 1.313 . S
C474 N475 1.344 . S
C474 H478 0.930 . S
N475 C472 1.377 . S
N475 C474 1.344 . S
O476 Co468 2.055 . S
O476 C480 1.253 . S
H477 C473 0.931 . S
H478 C474 0.930 . S
O479 Co468 2.039 . S
O479 C469 1.265 . S
C480 O476 1.253 . S
C480 O481 1.227 . S
O481 C480 1.227 . S
N482 Co468 2.140 . S
N482 C485 1.346 . S
N482 C486 1.345 . S
C483 C484 1.387 . S
C483 C487 1.391 . S
C484 C483 1.387 . S
C484 C485 1.369 . S
C484 H493 0.929 . S
C485 N482 1.346 . S
C485 C484 1.369 . S
C485 H488 0.928 . S
C486 N482 1.345 . S
C486 C487 1.371 . S
C486 H489 0.931 . S
C487 C483 1.391 . S
C487 C486 1.371 . S
C487 H494 0.930 . S
H488 C485 0.928 . S
H489 C486 0.931 . S
H490 C466 0.930 . S
H491 C463 0.930 . S
H492 C472 0.930 . S
H493 C484 0.929 . S
H494 C487 0.930 . S
C495 C496 1.351 . S
C495 N498 1.368 . S
C495 H500 0.931 . S
C496 C495 1.351 . S
C496 N497 1.373 . S
C496 H524 0.930 . S
N497 C496 1.373 . S
N497 C499 1.340 . S
N498 C495 1.368 . S
N498 C499 1.321 . S
N498 Co501 2.135 . S
C499 N497 1.340 . S
C499 N498 1.321 . S
C499 H523 0.930 . S
H500 C495 0.931 . S
Co501 N498 2.135 . S
Co501 N504 2.121 . S
Co501 O509 2.055 . S
Co501 O512 2.039 . S
Co501 N515 2.140 . S
C502 O503 1.227 . S
C502 O512 1.265 1_556 S
O503 C502 1.227 . S
N504 Co501 2.121 . S
N504 C506 1.375 . S
N504 C507 1.313 . S
C505 C506 1.338 . S
C505 N508 1.377 . S
C505 H525 0.930 1_565 S
C506 N504 1.375 . S
C506 C505 1.338 . S
C506 H510 0.931 1_554 S
C507 N504 1.313 . S
C507 N508 1.344 . S
C507 H511 0.930 . S
N508 C505 1.377 . S
N508 C507 1.344 . S
O509 Co501 2.055 . S
O509 C513 1.253 . S
H510 C506 0.931 1_556 S
H511 C507 0.930 . S
O512 Co501 2.039 . S
O512 C502 1.265 1_554 S
C513 O509 1.253 . S
C513 O514 1.227 . S
O514 C513 1.227 . S
N515 Co501 2.140 . S
N515 C518 1.346 . S
N515 C519 1.345 . S
C516 C517 1.387 . S
C516 C520 1.391 . S
C517 C516 1.387 . S
C517 C518 1.369 . S
C517 H526 0.929 . S
C518 N515 1.346 . S
C518 C517 1.369 . S
C518 H521 0.928 . S
C519 N515 1.345 . S
C519 C520 1.371 . S
C519 H522 0.931 . S
C520 C516 1.391 . S
C520 C519 1.371 . S
C520 H527 0.930 . S
H521 C518 0.928 . S
H522 C519 0.931 . S
H523 C499 0.930 . S
H524 C496 0.930 . S
H525 C505 0.930 1_545 S
H526 C517 0.929 . S
H527 C520 0.930 . S
C528 C529 1.351 . S
C528 N531 1.368 . S
C528 H533 0.931 1_556 S
C529 C528 1.351 . S
C529 N530 1.373 . S
C529 H557 0.930 1_556 S
N530 C529 1.373 . S
N530 C532 1.340 . S
N531 C528 1.368 . S
N531 C532 1.321 . S
N531 Co534 2.135 . S
C532 N530 1.340 . S
C532 N531 1.321 . S
C532 H556 0.930 . S
H533 C528 0.931 1_554 S
Co534 N531 2.135 . S
Co534 N537 2.121 . S
Co534 O542 2.055 1_556 S
Co534 O545 2.039 . S
Co534 N548 2.140 . S
C535 O536 1.227 . S
C535 O545 1.265 . S
O536 C535 1.227 . S
N537 Co534 2.121 . S
N537 C539 1.375 . S
N537 C540 1.313 . S
C538 C539 1.338 . S
C538 N541 1.377 . S
C538 H558 0.930 . S
C539 N537 1.375 . S
C539 C538 1.338 . S
C539 H543 0.931 . S
C540 N537 1.313 . S
C540 N541 1.344 . S
C540 H544 0.930 1_556 S
N541 C538 1.377 . S
N541 C540 1.344 . S
O542 Co534 2.055 1_554 S
O542 C546 1.253 . S
H543 C539 0.931 . S
H544 C540 0.930 1_554 S
O545 Co534 2.039 . S
O545 C535 1.265 . S
C546 O542 1.253 . S
C546 O547 1.227 . S
O547 C546 1.227 . S
N548 Co534 2.140 . S
N548 C551 1.346 . S
N548 C552 1.345 . S
C549 C550 1.387 . S
C549 C553 1.391 . S
C550 C549 1.387 . S
C550 C551 1.369 . S
C550 H559 0.929 . S
C551 N548 1.346 . S
C551 C550 1.369 . S
C551 H554 0.928 . S
C552 N548 1.345 . S
C552 C553 1.371 . S
C552 H555 0.931 . S
C553 C549 1.391 . S
C553 C552 1.371 . S
C553 H560 0.930 . S
H554 C551 0.928 . S
H555 C552 0.931 . S
H556 C532 0.930 . S
H557 C529 0.930 1_554 S
H558 C538 0.930 . S
H559 C550 0.929 . S
H560 C553 0.930 . S
C561 C562 1.351 . S
C561 N564 1.368 . S
C561 H566 0.931 . S
C562 C561 1.351 . S
C562 N563 1.373 . S
C562 H590 0.930 . S
N563 C562 1.373 . S
N563 C565 1.340 . S
N564 C561 1.368 . S
N564 C565 1.321 . S
N564 Co567 2.135 . S
C565 N563 1.340 . S
C565 N564 1.321 . S
C565 H589 0.930 . S
H566 C561 0.931 . S
Co567 N564 2.135 . S
Co567 N570 2.121 . S
Co567 O575 2.055 . S
Co567 O578 2.039 . S
Co567 N581 2.140 . S
C568 O569 1.227 . S
C568 O578 1.265 1_556 S
O569 C568 1.227 . S
N570 Co567 2.121 . S
N570 C572 1.375 . S
N570 C573 1.313 . S
C571 C572 1.338 . S
C571 N574 1.377 . S
C571 H591 0.930 . S
C572 N570 1.375 . S
C572 C571 1.338 . S
C572 H576 0.931 1_554 S
C573 N570 1.313 . S
C573 N574 1.344 . S
C573 H577 0.930 . S
N574 C571 1.377 . S
N574 C573 1.344 . S
O575 Co567 2.055 . S
O575 C579 1.253 . S
H576 C572 0.931 1_556 S
H577 C573 0.930 . S
O578 Co567 2.039 . S
O578 C568 1.265 1_554 S
C579 O575 1.253 . S
C579 O580 1.227 . S
O580 C579 1.227 . S
N581 Co567 2.140 . S
N581 C584 1.346 . S
N581 C585 1.345 . S
C582 C583 1.387 . S
C582 C586 1.391 . S
C583 C582 1.387 . S
C583 C584 1.369 . S
C583 H592 0.929 . S
C584 N581 1.346 . S
C584 C583 1.369 . S
C584 H587 0.928 . S
C585 N581 1.345 . S
C585 C586 1.371 . S
C585 H588 0.931 . S
C586 C582 1.391 . S
C586 C585 1.371 . S
C586 H593 0.930 . S
H587 C584 0.928 . S
H588 C585 0.931 . S
H589 C565 0.930 . S
H590 C562 0.930 . S
H591 C571 0.930 . S
H592 C583 0.929 . S
H593 C586 0.930 . S
C594 C595 1.351 . S
C594 N597 1.368 . S
C594 H599 0.931 . S
C595 C594 1.351 . S
C595 N596 1.373 . S
C595 H623 0.930 . S
N596 C595 1.373 . S
N596 C598 1.340 . S
N597 C594 1.368 . S
N597 C598 1.321 . S
N597 Co600 2.135 . S
C598 N596 1.340 . S
C598 N597 1.321 . S
C598 H622 0.930 . S
H599 C594 0.931 . S
Co600 N597 2.135 . S
Co600 N603 2.121 . S
Co600 O608 2.055 . S
Co600 O611 2.039 . S
Co600 N614 2.140 . S
C601 O602 1.227 . S
C601 O611 1.265 . S
O602 C601 1.227 . S
N603 Co600 2.121 . S
N603 C605 1.375 . S
N603 C606 1.313 . S
C604 C605 1.338 . S
C604 N607 1.377 . S
C604 H624 0.930 . S
C605 N603 1.375 . S
C605 C604 1.338 . S
C605 H609 0.931 . S
C606 N603 1.313 . S
C606 N607 1.344 . S
C606 H610 0.930 . S
N607 C604 1.377 . S
N607 C606 1.344 . S
O608 Co600 2.055 . S
O608 C612 1.253 . S
H609 C605 0.931 . S
H610 C606 0.930 . S
O611 Co600 2.039 . S
O611 C601 1.265 . S
C612 O608 1.253 . S
C612 O613 1.227 . S
O613 C612 1.227 . S
N614 Co600 2.140 . S
N614 C617 1.346 . S
N614 C618 1.345 . S
C615 C616 1.387 . S
C615 C619 1.391 . S
C616 C615 1.387 . S
C616 C617 1.369 . S
C616 H625 0.929 . S
C617 N614 1.346 . S
C617 C616 1.369 . S
C617 H620 0.928 . S
C618 N614 1.345 . S
C618 C619 1.371 . S
C618 H621 0.931 . S
C619 C615 1.391 . S
C619 C618 1.371 . S
C619 H626 0.930 . S
H620 C617 0.928 . S
H621 C618 0.931 . S
H622 C598 0.930 . S
H623 C595 0.930 . S
H624 C604 0.930 . S
H625 C616 0.929 . S
H626 C619 0.930 . S
C627 C628 1.351 . S
C627 N630 1.368 . S
C627 H632 0.931 . S
C628 C627 1.351 . S
C628 N629 1.373 . S
C628 H656 0.930 . S
N629 C628 1.373 . S
N629 C631 1.340 . S
N630 C627 1.368 . S
N630 C631 1.321 . S
N630 Co633 2.135 . S
C631 N629 1.340 . S
C631 N630 1.321 . S
C631 H655 0.930 . S
H632 C627 0.931 . S
Co633 N630 2.135 . S
Co633 N636 2.121 . S
Co633 O641 2.055 . S
Co633 O644 2.039 . S
Co633 N647 2.140 . S
C634 O635 1.227 . S
C634 O644 1.265 . S
O635 C634 1.227 . S
N636 Co633 2.121 . S
N636 C638 1.375 . S
N636 C639 1.313 . S
C637 C638 1.338 . S
C637 N640 1.377 . S
C637 H657 0.930 . S
C638 N636 1.375 . S
C638 C637 1.338 . S
C638 H642 0.931 . S
C639 N636 1.313 . S
C639 N640 1.344 . S
C639 H643 0.930 . S
N640 C637 1.377 . S
N640 C639 1.344 . S
O641 Co633 2.055 . S
O641 C645 1.253 . S
H642 C638 0.931 . S
H643 C639 0.930 . S
O644 Co633 2.039 . S
O644 C634 1.265 . S
C645 O641 1.253 . S
C645 O646 1.227 . S
O646 C645 1.227 . S
N647 Co633 2.140 . S
N647 C650 1.346 . S
N647 C651 1.345 . S
C648 C649 1.387 . S
C648 C652 1.391 . S
C649 C648 1.387 . S
C649 C650 1.369 . S
C649 H658 0.929 . S
C650 N647 1.346 . S
C650 C649 1.369 . S
C650 H653 0.928 . S
C651 N647 1.345 . S
C651 C652 1.371 . S
C651 H654 0.931 . S
C652 C648 1.391 . S
C652 C651 1.371 . S
C652 H659 0.930 . S
H653 C650 0.928 . S
H654 C651 0.931 . S
H655 C631 0.930 . S
H656 C628 0.930 . S
H657 C637 0.930 . S
H658 C649 0.929 . S
H659 C652 0.930 . S
C660 C661 1.351 . S
C660 N663 1.368 . S
C660 H665 0.931 . S
C661 C660 1.351 . S
C661 N662 1.373 . S
C661 H689 0.930 . S
N662 C661 1.373 . S
N662 C664 1.340 . S
N663 C660 1.368 . S
N663 C664 1.321 . S
N663 Co666 2.135 . S
C664 N662 1.340 . S
C664 N663 1.321 . S
C664 H688 0.930 . S
H665 C660 0.931 . S
Co666 N663 2.135 . S
Co666 N669 2.121 . S
Co666 O674 2.055 . S
Co666 O677 2.039 . S
Co666 N680 2.140 . S
C667 O668 1.227 . S
C667 O677 1.265 . S
O668 C667 1.227 . S
N669 Co666 2.121 . S
N669 C671 1.375 . S
N669 C672 1.313 . S
C670 C671 1.338 . S
C670 N673 1.377 . S
C670 H690 0.930 . S
C671 N669 1.375 . S
C671 C670 1.338 . S
C671 H675 0.931 . S
C672 N669 1.313 . S
C672 N673 1.344 . S
C672 H676 0.930 . S
N673 C670 1.377 . S
N673 C672 1.344 . S
O674 Co666 2.055 . S
O674 C678 1.253 . S
H675 C671 0.931 . S
H676 C672 0.930 . S
O677 Co666 2.039 . S
O677 C667 1.265 . S
C678 O674 1.253 . S
C678 O679 1.227 . S
O679 C678 1.227 . S
N680 Co666 2.140 . S
N680 C683 1.346 . S
N680 C684 1.345 . S
C681 C682 1.387 . S
C681 C685 1.391 . S
C682 C681 1.387 . S
C682 C683 1.369 . S
C682 H691 0.929 . S
C683 N680 1.346 . S
C683 C682 1.369 . S
C683 H686 0.928 . S
C684 N680 1.345 . S
C684 C685 1.371 . S
C684 H687 0.931 . S
C685 C681 1.391 . S
C685 C684 1.371 . S
C685 H692 0.930 . S
H686 C683 0.928 . S
H687 C684 0.931 . S
H688 C664 0.930 . S
H689 C661 0.930 . S
H690 C670 0.930 . S
H691 C682 0.929 . S
H692 C685 0.930 . S
C693 C694 1.351 . S
C693 N696 1.368 . S
C693 H698 0.931 . S
C694 C693 1.351 . S
C694 N695 1.373 . S
C694 H722 0.930 . S
N695 C694 1.373 . S
N695 C697 1.340 . S
N696 C693 1.368 . S
N696 C697 1.321 . S
N696 Co699 2.135 . S
C697 N695 1.340 . S
C697 N696 1.321 . S
C697 H721 0.930 . S
H698 C693 0.931 . S
Co699 N696 2.135 . S
Co699 N702 2.121 . S
Co699 O707 2.055 . S
Co699 O710 2.039 . S
Co699 N713 2.140 . S
C700 O701 1.227 . S
C700 O710 1.265 1_554 S
O701 C700 1.227 . S
N702 Co699 2.121 . S
N702 C704 1.375 . S
N702 C705 1.313 . S
C703 C704 1.338 . S
C703 N706 1.377 . S
C703 H723 0.930 . S
C704 N702 1.375 . S
C704 C703 1.338 . S
C704 H708 0.931 1_556 S
C705 N702 1.313 . S
C705 N706 1.344 . S
C705 H709 0.930 . S
N706 C703 1.377 . S
N706 C705 1.344 . S
O707 Co699 2.055 . S
O707 C711 1.253 . S
H708 C704 0.931 1_554 S
H709 C705 0.930 . S
O710 Co699 2.039 . S
O710 C700 1.265 1_556 S
C711 O707 1.253 . S
C711 O712 1.227 . S
O712 C711 1.227 . S
N713 Co699 2.140 . S
N713 C716 1.346 . S
N713 C717 1.345 . S
C714 C715 1.387 . S
C714 C718 1.391 . S
C715 C714 1.387 . S
C715 C716 1.369 . S
C715 H724 0.929 . S
C716 N713 1.346 . S
C716 C715 1.369 . S
C716 H719 0.928 . S
C717 N713 1.345 . S
C717 C718 1.371 . S
C717 H720 0.931 . S
C718 C714 1.391 . S
C718 C717 1.371 . S
C718 H725 0.930 . S
H719 C716 0.928 . S
H720 C717 0.931 . S
H721 C697 0.930 . S
H722 C694 0.930 . S
H723 C703 0.930 . S
H724 C715 0.929 . S
H725 C718 0.930 . S
C726 C727 1.351 . S
C726 N729 1.368 . S
C726 H731 0.931 1_554 S
C727 C726 1.351 . S
C727 N728 1.373 . S
C727 H755 0.930 1_554 S
N728 C727 1.373 . S
N728 C730 1.340 . S
N729 C726 1.368 . S
N729 C730 1.321 . S
N729 Co732 2.135 . S
C730 N728 1.340 . S
C730 N729 1.321 . S
C730 H754 0.930 . S
H731 C726 0.931 1_556 S
Co732 N729 2.135 . S
Co732 N735 2.121 . S
Co732 O740 2.055 1_554 S
Co732 O743 2.039 . S
Co732 N746 2.140 . S
C733 O734 1.227 . S
C733 O743 1.265 . S
O734 C733 1.227 . S
N735 Co732 2.121 . S
N735 C737 1.375 . S
N735 C738 1.313 . S
C736 C737 1.338 . S
C736 N739 1.377 . S
C736 H756 0.930 . S
C737 N735 1.375 . S
C737 C736 1.338 . S
C737 H741 0.931 . S
C738 N735 1.313 . S
C738 N739 1.344 . S
C738 H742 0.930 1_554 S
N739 C736 1.377 . S
N739 C738 1.344 . S
O740 Co732 2.055 1_556 S
O740 C744 1.253 . S
H741 C737 0.931 . S
H742 C738 0.930 1_556 S
O743 Co732 2.039 . S
O743 C733 1.265 . S
C744 O740 1.253 . S
C744 O745 1.227 . S
O745 C744 1.227 . S
N746 Co732 2.140 . S
N746 C749 1.346 . S
N746 C750 1.345 . S
C747 C748 1.387 . S
C747 C751 1.391 . S
C748 C747 1.387 . S
C748 C749 1.369 . S
C748 H757 0.929 . S
C749 N746 1.346 . S
C749 C748 1.369 . S
C749 H752 0.928 . S
C750 N746 1.345 . S
C750 C751 1.371 . S
C750 H753 0.931 . S
C751 C747 1.391 . S
C751 C750 1.371 . S
C751 H758 0.930 . S
H752 C749 0.928 . S
H753 C750 0.931 . S
H754 C730 0.930 . S
H755 C727 0.930 1_556 S
H756 C736 0.930 . S
H757 C748 0.929 . S
H758 C751 0.930 . S
C759 C760 1.351 . S
C759 N762 1.368 . S
C759 H764 0.931 . S
C760 C759 1.351 . S
C760 N761 1.373 . S
C760 H788 0.930 . S
N761 C760 1.373 . S
N761 C763 1.340 . S
N762 C759 1.368 . S
N762 C763 1.321 . S
N762 Co765 2.135 . S
C763 N761 1.340 . S
C763 N762 1.321 . S
C763 H787 0.930 . S
H764 C759 0.931 . S
Co765 N762 2.135 . S
Co765 N768 2.121 . S
Co765 O773 2.055 . S
Co765 O776 2.039 . S
Co765 N779 2.140 . S
C766 O767 1.227 . S
C766 O776 1.265 . S
O767 C766 1.227 . S
N768 Co765 2.121 . S
N768 C770 1.375 . S
N768 C771 1.313 . S
C769 C770 1.338 . S
C769 N772 1.377 . S
C769 H789 0.930 . S
C770 N768 1.375 . S
C770 C769 1.338 . S
C770 H774 0.931 . S
C771 N768 1.313 . S
C771 N772 1.344 . S
C771 H775 0.930 . S
N772 C769 1.377 . S
N772 C771 1.344 . S
O773 Co765 2.055 . S
O773 C777 1.253 . S
H774 C770 0.931 . S
H775 C771 0.930 . S
O776 Co765 2.039 . S
O776 C766 1.265 . S
C777 O773 1.253 . S
C777 O778 1.227 . S
O778 C777 1.227 . S
N779 Co765 2.140 . S
N779 C782 1.346 . S
N779 C783 1.345 . S
C780 C781 1.387 . S
C780 C784 1.391 . S
C781 C780 1.387 . S
C781 C782 1.369 . S
C781 H790 0.929 . S
C782 N779 1.346 . S
C782 C781 1.369 . S
C782 H785 0.928 . S
C783 N779 1.345 . S
C783 C784 1.371 . S
C783 H786 0.931 . S
C784 C780 1.391 . S
C784 C783 1.371 . S
C784 H791 0.930 . S
H785 C782 0.928 . S
H786 C783 0.931 . S
H787 C763 0.930 . S
H788 C760 0.930 . S
H789 C769 0.930 . S
H790 C781 0.929 . S
H791 C784 0.930 . S
C792 C793 1.351 . S
C792 N795 1.368 . S
C792 H797 0.931 1_554 S
C793 C792 1.351 . S
C793 N794 1.373 . S
C793 H821 0.930 1_554 S
N794 C793 1.373 . S
N794 C796 1.340 . S
N795 C792 1.368 . S
N795 C796 1.321 . S
N795 Co798 2.135 . S
C796 N794 1.340 . S
C796 N795 1.321 . S
C796 H820 0.930 . S
H797 C792 0.931 1_556 S
Co798 N795 2.135 . S
Co798 N801 2.121 . S
Co798 O806 2.055 1_554 S
Co798 O809 2.039 . S
Co798 N812 2.140 . S
C799 O800 1.227 . S
C799 O809 1.265 . S
O800 C799 1.227 . S
N801 Co798 2.121 . S
N801 C803 1.375 . S
N801 C804 1.313 . S
C802 C803 1.338 . S
C802 N805 1.377 . S
C802 H822 0.930 . S
C803 N801 1.375 . S
C803 C802 1.338 . S
C803 H807 0.931 . S
C804 N801 1.313 . S
C804 N805 1.344 . S
C804 H808 0.930 1_554 S
N805 C802 1.377 . S
N805 C804 1.344 . S
O806 Co798 2.055 1_556 S
O806 C810 1.253 . S
H807 C803 0.931 . S
H808 C804 0.930 1_556 S
O809 Co798 2.039 . S
O809 C799 1.265 . S
C810 O806 1.253 . S
C810 O811 1.227 . S
O811 C810 1.227 . S
N812 Co798 2.140 . S
N812 C815 1.346 . S
N812 C816 1.345 . S
C813 C814 1.387 . S
C813 C817 1.391 . S
C814 C813 1.387 . S
C814 C815 1.369 . S
C814 H823 0.929 . S
C815 N812 1.346 . S
C815 C814 1.369 . S
C815 H818 0.928 . S
C816 N812 1.345 . S
C816 C817 1.371 . S
C816 H819 0.931 . S
C817 C813 1.391 . S
C817 C816 1.371 . S
C817 H824 0.930 . S
H818 C815 0.928 . S
H819 C816 0.931 . S
H820 C796 0.930 . S
H821 C793 0.930 1_556 S
H822 C802 0.930 . S
H823 C814 0.929 . S
H824 C817 0.930 . S
C825 C826 1.351 . S
C825 N828 1.368 . S
C825 H830 0.931 . S
C826 C825 1.351 . S
C826 N827 1.373 . S
C826 H854 0.930 . S
N827 C826 1.373 . S
N827 C829 1.340 . S
N828 C825 1.368 . S
N828 C829 1.321 . S
N828 Co831 2.135 . S
C829 N827 1.340 . S
C829 N828 1.321 . S
C829 H853 0.930 . S
H830 C825 0.931 . S
Co831 N828 2.135 . S
Co831 N834 2.121 . S
Co831 O839 2.055 . S
Co831 O842 2.039 . S
Co831 N845 2.140 . S
C832 O833 1.227 . S
C832 O842 1.265 1_554 S
O833 C832 1.227 . S
N834 Co831 2.121 . S
N834 C836 1.375 . S
N834 C837 1.313 . S
C835 C836 1.338 . S
C835 N838 1.377 . S
C835 H855 0.930 . S
C836 N834 1.375 . S
C836 C835 1.338 . S
C836 H840 0.931 1_556 S
C837 N834 1.313 . S
C837 N838 1.344 . S
C837 H841 0.930 . S
N838 C835 1.377 . S
N838 C837 1.344 . S
O839 Co831 2.055 . S
O839 C843 1.253 . S
H840 C836 0.931 1_554 S
H841 C837 0.930 . S
O842 Co831 2.039 . S
O842 C832 1.265 1_556 S
C843 O839 1.253 . S
C843 O844 1.227 . S
O844 C843 1.227 . S
N845 Co831 2.140 . S
N845 C848 1.346 . S
N845 C849 1.345 . S
C846 C847 1.387 . S
C846 C850 1.391 . S
C847 C846 1.387 . S
C847 C848 1.369 . S
C847 H856 0.929 . S
C848 N845 1.346 . S
C848 C847 1.369 . S
C848 H851 0.928 . S
C849 N845 1.345 . S
C849 C850 1.371 . S
C849 H852 0.931 . S
C850 C846 1.391 . S
C850 C849 1.371 . S
C850 H857 0.930 . S
H851 C848 0.928 . S
H852 C849 0.931 . S
H853 C829 0.930 . S
H854 C826 0.930 . S
H855 C835 0.930 . S
H856 C847 0.929 . S
H857 C850 0.930 . S
C858 C859 1.351 . S
C858 N861 1.368 . S
C858 H863 0.931 . S
C859 C858 1.351 . S
C859 N860 1.373 . S
C859 H887 0.930 . S
N860 C859 1.373 . S
N860 C862 1.340 . S
N861 C858 1.368 . S
N861 C862 1.321 . S
N861 Co864 2.135 . S
C862 N860 1.340 . S
C862 N861 1.321 . S
C862 H886 0.930 . S
H863 C858 0.931 . S
Co864 N861 2.135 . S
Co864 N867 2.121 . S
Co864 O872 2.055 . S
Co864 O875 2.039 . S
Co864 N878 2.140 . S
C865 O866 1.227 . S
C865 O875 1.265 . S
O866 C865 1.227 . S
N867 Co864 2.121 . S
N867 C869 1.375 . S
N867 C870 1.313 . S
C868 C869 1.338 . S
C868 N871 1.377 . S
C868 H888 0.930 . S
C869 N867 1.375 . S
C869 C868 1.338 . S
C869 H873 0.931 . S
C870 N867 1.313 . S
C870 N871 1.344 . S
C870 H874 0.930 . S
N871 C868 1.377 . S
N871 C870 1.344 . S
O872 Co864 2.055 . S
O872 C876 1.253 . S
H873 C869 0.931 . S
H874 C870 0.930 . S
O875 Co864 2.039 . S
O875 C865 1.265 . S
C876 O872 1.253 . S
C876 O877 1.227 . S
O877 C876 1.227 . S
N878 Co864 2.140 . S
N878 C881 1.346 . S
N878 C882 1.345 . S
C879 C880 1.387 . S
C879 C883 1.391 . S
C880 C879 1.387 . S
C880 C881 1.369 . S
C880 H889 0.929 . S
C881 N878 1.346 . S
C881 C880 1.369 . S
C881 H884 0.928 . S
C882 N878 1.345 . S
C882 C883 1.371 . S
C882 H885 0.931 . S
C883 C879 1.391 . S
C883 C882 1.371 . S
C883 H890 0.930 . S
H884 C881 0.928 . S
H885 C882 0.931 . S
H886 C862 0.930 . S
H887 C859 0.930 . S
H888 C868 0.930 . S
H889 C880 0.929 . S
H890 C883 0.930 . S
C891 C892 1.351 . S
C891 N894 1.368 . S
C891 H896 0.931 . S
C892 C891 1.351 . S
C892 N893 1.373 . S
C892 H920 0.930 . S
N893 C892 1.373 . S
N893 C895 1.340 . S
N894 C891 1.368 . S
N894 C895 1.321 . S
N894 Co897 2.135 . S
C895 N893 1.340 . S
C895 N894 1.321 . S
C895 H919 0.930 . S
H896 C891 0.931 . S
Co897 N894 2.135 . S
Co897 N900 2.121 . S
Co897 O905 2.055 . S
Co897 O908 2.039 . S
Co897 N911 2.140 . S
C898 O899 1.227 . S
C898 O908 1.265 . S
O899 C898 1.227 . S
N900 Co897 2.121 . S
N900 C902 1.375 . S
N900 C903 1.313 . S
C901 C902 1.338 . S
C901 N904 1.377 . S
C901 H921 0.930 . S
C902 N900 1.375 . S
C902 C901 1.338 . S
C902 H906 0.931 . S
C903 N900 1.313 . S
C903 N904 1.344 . S
C903 H907 0.930 . S
N904 C901 1.377 . S
N904 C903 1.344 . S
O905 Co897 2.055 . S
O905 C909 1.253 . S
H906 C902 0.931 . S
H907 C903 0.930 . S
O908 Co897 2.039 . S
O908 C898 1.265 . S
C909 O905 1.253 . S
C909 O910 1.227 . S
O910 C909 1.227 . S
N911 Co897 2.140 . S
N911 C914 1.346 . S
N911 C915 1.345 . S
C912 C913 1.387 . S
C912 C916 1.391 . S
C913 C912 1.387 . S
C913 C914 1.369 . S
C913 H922 0.929 . S
C914 N911 1.346 . S
C914 C913 1.369 . S
C914 H917 0.928 . S
C915 N911 1.345 . S
C915 C916 1.371 . S
C915 H918 0.931 . S
C916 C912 1.391 . S
C916 C915 1.371 . S
C916 H923 0.930 . S
H917 C914 0.928 . S
H918 C915 0.931 . S
H919 C895 0.930 . S
H920 C892 0.930 . S
H921 C901 0.930 . S
H922 C913 0.929 . S
H923 C916 0.930 . S
C924 C925 1.351 . S
C924 N927 1.368 . S
C924 H929 0.931 . S
C925 C924 1.351 . S
C925 N926 1.373 . S
C925 H953 0.930 . S
N926 C925 1.373 . S
N926 C928 1.340 . S
N927 C924 1.368 . S
N927 C928 1.321 . S
N927 Co930 2.135 . S
C928 N926 1.340 . S
C928 N927 1.321 . S
C928 H952 0.930 . S
H929 C924 0.931 . S
Co930 N927 2.135 . S
Co930 N933 2.121 . S
Co930 O938 2.055 . S
Co930 O941 2.039 . S
Co930 N944 2.140 . S
C931 O932 1.227 . S
C931 O941 1.265 . S
O932 C931 1.227 . S
N933 Co930 2.121 . S
N933 C935 1.375 . S
N933 C936 1.313 . S
C934 C935 1.338 . S
C934 N937 1.377 . S
C934 H954 0.930 . S
C935 N933 1.375 . S
C935 C934 1.338 . S
C935 H939 0.931 . S
C936 N933 1.313 . S
C936 N937 1.344 . S
C936 H940 0.930 . S
N937 C934 1.377 . S
N937 C936 1.344 . S
O938 Co930 2.055 . S
O938 C942 1.253 . S
H939 C935 0.931 . S
H940 C936 0.930 . S
O941 Co930 2.039 . S
O941 C931 1.265 . S
C942 O938 1.253 . S
C942 O943 1.227 . S
O943 C942 1.227 . S
N944 Co930 2.140 . S
N944 C947 1.346 . S
N944 C948 1.345 . S
C945 C946 1.387 . S
C945 C949 1.391 . S
C946 C945 1.387 . S
C946 C947 1.369 . S
C946 H955 0.929 . S
C947 N944 1.346 . S
C947 C946 1.369 . S
C947 H950 0.928 . S
C948 N944 1.345 . S
C948 C949 1.371 . S
C948 H951 0.931 . S
C949 C945 1.391 . S
C949 C948 1.371 . S
C949 H956 0.930 . S
H950 C947 0.928 . S
H951 C948 0.931 . S
H952 C928 0.930 . S
H953 C925 0.930 . S
H954 C934 0.930 . S
H955 C946 0.929 . S
H956 C949 0.930 . S
C957 C958 1.351 . S
C957 N960 1.368 . S
C957 H962 0.931 . S
C958 C957 1.351 . S
C958 N959 1.373 . S
C958 H986 0.930 . S
N959 C958 1.373 . S
N959 C961 1.340 . S
N960 C957 1.368 . S
N960 C961 1.321 . S
N960 Co963 2.135 . S
C961 N959 1.340 . S
C961 N960 1.321 . S
C961 H985 0.930 . S
H962 C957 0.931 . S
Co963 N960 2.135 . S
Co963 N966 2.121 . S
Co963 O971 2.055 . S
Co963 O974 2.039 . S
Co963 N977 2.140 . S
C964 O965 1.227 . S
C964 O974 1.265 1_556 S
O965 C964 1.227 . S
N966 Co963 2.121 . S
N966 C968 1.375 . S
N966 C969 1.313 . S
C967 C968 1.338 . S
C967 N970 1.377 . S
C967 H987 0.930 . S
C968 N966 1.375 . S
C968 C967 1.338 . S
C968 H972 0.931 1_554 S
C969 N966 1.313 . S
C969 N970 1.344 . S
C969 H973 0.930 . S
N970 C967 1.377 . S
N970 C969 1.344 . S
O971 Co963 2.055 . S
O971 C975 1.253 . S
H972 C968 0.931 1_556 S
H973 C969 0.930 . S
O974 Co963 2.039 . S
O974 C964 1.265 1_554 S
C975 O971 1.253 . S
C975 O976 1.227 . S
O976 C975 1.227 . S
N977 Co963 2.140 . S
N977 C980 1.346 . S
N977 C981 1.345 . S
C978 C979 1.387 . S
C978 C982 1.391 . S
C979 C978 1.387 . S
C979 C980 1.369 . S
C979 H988 0.929 . S
C980 N977 1.346 . S
C980 C979 1.369 . S
C980 H983 0.928 . S
C981 N977 1.345 . S
C981 C982 1.371 . S
C981 H984 0.931 . S
C982 C978 1.391 . S
C982 C981 1.371 . S
C982 H989 0.930 . S
H983 C980 0.928 . S
H984 C981 0.931 . S
H985 C961 0.930 . S
H986 C958 0.930 . S
H987 C967 0.930 . S
H988 C979 0.929 . S
H989 C982 0.930 . S
C990 C991 1.351 . S
C990 N993 1.368 . S
C990 H995 0.931 1_556 S
C991 C990 1.351 . S
C991 N992 1.373 . S
C991 H1019 0.930 1_556 S
N992 C991 1.373 . S
N992 C994 1.340 . S
N993 C990 1.368 . S
N993 C994 1.321 . S
N993 Co996 2.135 . S
C994 N992 1.340 . S
C994 N993 1.321 . S
C994 H1018 0.930 . S
H995 C990 0.931 1_554 S
Co996 N993 2.135 . S
Co996 N999 2.121 . S
Co996 O1004 2.055 1_556 S
Co996 O1007 2.039 . S
Co996 N1010 2.140 . S
C997 O998 1.227 . S
C997 O1007 1.265 . S
O998 C997 1.227 . S
N999 Co996 2.121 . S
N999 C1001 1.375 . S
N999 C1002 1.313 . S
C1000 C1001 1.338 . S
C1000 N1003 1.377 . S
C1000 H1020 0.930 . S
C1001 N999 1.375 . S
C1001 C1000 1.338 . S
C1001 H1005 0.931 . S
C1002 N999 1.313 . S
C1002 N1003 1.344 . S
C1002 H1006 0.930 1_556 S
N1003 C1000 1.377 . S
N1003 C1002 1.344 . S
O1004 Co996 2.055 1_554 S
O1004 C1008 1.253 . S
H1005 C1001 0.931 . S
H1006 C1002 0.930 1_554 S
O1007 Co996 2.039 . S
O1007 C997 1.265 . S
C1008 O1004 1.253 . S
C1008 O1009 1.227 . S
O1009 C1008 1.227 . S
N1010 Co996 2.140 . S
N1010 C1013 1.346 . S
N1010 C1014 1.345 . S
C1011 C1012 1.387 . S
C1011 C1015 1.391 . S
C1012 C1011 1.387 . S
C1012 C1013 1.369 . S
C1012 H1021 0.929 . S
C1013 N1010 1.346 . S
C1013 C1012 1.369 . S
C1013 H1016 0.928 . S
C1014 N1010 1.345 . S
C1014 C1015 1.371 . S
C1014 H1017 0.931 . S
C1015 C1011 1.391 . S
C1015 C1014 1.371 . S
C1015 H1022 0.930 . S
H1016 C1013 0.928 . S
H1017 C1014 0.931 . S
H1018 C994 0.930 . S
H1019 C991 0.930 1_554 S
H1020 C1000 0.930 . S
H1021 C1012 0.929 . S
H1022 C1015 0.930 . S
C1023 C1024 1.351 . S
C1023 N1026 1.368 . S
C1023 H1028 0.931 . S
C1024 C1023 1.351 . S
C1024 N1025 1.373 . S
C1024 H1052 0.930 . S
N1025 C1024 1.373 . S
N1025 C1027 1.340 . S
N1026 C1023 1.368 . S
N1026 C1027 1.321 . S
N1026 Co1029 2.135 . S
C1027 N1025 1.340 . S
C1027 N1026 1.321 . S
C1027 H1051 0.930 . S
H1028 C1023 0.931 . S
Co1029 N1026 2.135 . S
Co1029 N1032 2.121 . S
Co1029 O1037 2.055 . S
Co1029 O1040 2.039 . S
Co1029 N1043 2.140 . S
C1030 O1031 1.227 . S
C1030 O1040 1.265 . S
O1031 C1030 1.227 . S
N1032 Co1029 2.121 . S
N1032 C1034 1.375 . S
N1032 C1035 1.313 . S
C1033 C1034 1.338 . S
C1033 N1036 1.377 . S
C1033 H1053 0.930 . S
C1034 N1032 1.375 . S
C1034 C1033 1.338 . S
C1034 H1038 0.931 . S
C1035 N1032 1.313 . S
C1035 N1036 1.344 . S
C1035 H1039 0.930 . S
N1036 C1033 1.377 . S
N1036 C1035 1.344 . S
O1037 Co1029 2.055 . S
O1037 C1041 1.253 . S
H1038 C1034 0.931 . S
H1039 C1035 0.930 . S
O1040 Co1029 2.039 . S
O1040 C1030 1.265 . S
C1041 O1037 1.253 . S
C1041 O1042 1.227 . S
O1042 C1041 1.227 . S
N1043 Co1029 2.140 . S
N1043 C1046 1.346 . S
N1043 C1047 1.345 . S
C1044 C1045 1.387 . S
C1044 C1048 1.391 . S
C1045 C1044 1.387 . S
C1045 C1046 1.369 . S
C1045 H1054 0.929 . S
C1046 N1043 1.346 . S
C1046 C1045 1.369 . S
C1046 H1049 0.928 . S
C1047 N1043 1.345 . S
C1047 C1048 1.371 . S
C1047 H1050 0.931 . S
C1048 C1044 1.391 . S
C1048 C1047 1.371 . S
C1048 H1055 0.930 . S
H1049 C1046 0.928 . S
H1050 C1047 0.931 . S
H1051 C1027 0.930 . S
H1052 C1024 0.930 . S
H1053 C1033 0.930 . S
H1054 C1045 0.929 . S
H1055 C1048 0.930 . S
C238 C7 1.671 . S
C40 C139 1.671 . S
C73 C172 1.671 . S
C205 C106 1.671 . S
C271 C502 1.671 . S
C403 C304 1.671 . S
C337 C436 1.671 . S
C469 C370 1.671 . S
C766 C535 1.670 . S
C667 C568 1.671 . S
C700 C601 1.671 . S
C733 C634 1.670 . S
C1030 C799 1.670 . S
C832 C931 1.671 . S
C964 C865 1.671 . S
C997 C898 1.670 . S
C18 C249 1.088 . S
C51 C150 1.088 . S
C84 C183 1.088 . S
C117 C216 1.088 . S
C513 C282 1.088 . S
C315 C414 1.088 . S
C447 C348 1.088 . S
C381 C480 1.088 . S
C546 C777 1.088 . S
C678 C579 1.088 . S
C711 C612 1.088 . S
C645 C744 1.088 . S
C810 C1041 1.088 . S
C843 C942 1.088 . S
C876 C975 1.088 . S
C909 C1008 1.088 . S
N211 N13 2.230 . S
N46 N244 2.229 1_565 S
N145 N79 2.230 1_554 S
N178 N112 2.229 1_565 S
N475 N277 2.230 . S
N508 N310 2.229 1_565 S
N409 N343 2.230 1_556 S
N442 N376 2.229 1_545 S
N541 N739 2.229 1_556 S
N772 N574 2.230 . S
N673 N607 2.229 . S
N706 N640 2.230 . S
N1003 N805 2.229 1_556 S
N838 N1036 2.230 . S
N937 N871 2.229 . S
N970 N904 2.230 . S
C21 N893 1.527 . S
N266 C54 1.527 1_655 S
N827 C87 1.527 . S
C120 N332 1.527 . S
C153 N959 1.527 . S
C186 N464 1.527 . S
C219 N1025 1.527 . S
N398 C252 1.527 1_655 S
N629 C285 1.527 . S
C318 N2 1.527 1_655 S
C351 N563 1.527 . S
N68 C384 1.527 . S
N695 C417 1.527 . S
C450 N200 1.527 . S
C483 N761 1.527 . S
N134 C516 1.527 1_455 S
N365 C549 1.527 . S
N794 C582 1.527 . S
C615 N299 1.527 . S
C648 N860 1.527 1_655 S
N431 C681 1.527 . S
C714 N992 1.527 1_655 S
N497 C747 1.527 . S
N926 C780 1.527 . S
N101 C813 1.527 . S
C846 N530 1.527 . S
N35 C879 1.527 . S
N596 C912 1.527 1_655 S
N167 C945 1.527 . S
C978 N728 1.527 1_455 S
C1011 N233 1.527 . S
C1044 N662 1.527 . S
