# Generated by pormake.
# Topology uns, (4)-cn, num edge types: 1
# Building blocks:
#     Node 0, Type 0, BuildingBlock: CEKHIL_clean_sbu_0, # of connection points: 4
#     Node 1, Type 0, BuildingBlock: CEKHIL_clean_sbu_0, # of connection points: 4
#     Node 2, Type 0, BuildingBlock: CEKHIL_clean_sbu_0, # of connection points: 4
#     Node 3, Type 0, BuildingBlock: CEKHIL_clean_sbu_0, # of connection points: 4
#     Node 4, Type 0, BuildingBlock: CEKHIL_clean_sbu_0, # of connection points: 4
#     Node 5, Type 0, BuildingBlock: CEKHIL_clean_sbu_0, # of connection points: 4
#     Node 6, Type 0, BuildingBlock: CEKHIL_clean_sbu_0, # of connection points: 4
#     Node 7, Type 0, BuildingBlock: CEKHIL_clean_sbu_0, # of connection points: 4
#     Node 8, Type 0, BuildingBlock: CEKHIL_clean_sbu_0, # of connection points: 4
#     Node 9, Type 0, BuildingBlock: CEKHIL_clean_sbu_0, # of connection points: 4
#     Node 10, Type 0, BuildingBlock: CEKHIL_clean_sbu_0, # of connection points: 4
#     Node 11, Type 0, BuildingBlock: CEKHIL_clean_sbu_0, # of connection points: 4
#     Node 12, Type 0, BuildingBlock: CEKHIL_clean_sbu_0, # of connection points: 4
#     Node 13, Type 0, BuildingBlock: CEKHIL_clean_sbu_0, # of connection points: 4
#     Node 14, Type 0, BuildingBlock: CEKHIL_clean_sbu_0, # of connection points: 4
#     Node 15, Type 0, BuildingBlock: CEKHIL_clean_sbu_0, # of connection points: 4
#     Node 16, Type 0, BuildingBlock: CEKHIL_clean_sbu_0, # of connection points: 4
#     Node 17, Type 0, BuildingBlock: CEKHIL_clean_sbu_0, # of connection points: 4
#     Node 18, Type 0, BuildingBlock: CEKHIL_clean_sbu_0, # of connection points: 4
#     Node 19, Type 0, BuildingBlock: CEKHIL_clean_sbu_0, # of connection points: 4
#     Node 20, Type 0, BuildingBlock: CEKHIL_clean_sbu_0, # of connection points: 4
#     Node 21, Type 0, BuildingBlock: CEKHIL_clean_sbu_0, # of connection points: 4
#     Node 22, Type 0, BuildingBlock: CEKHIL_clean_sbu_0, # of connection points: 4
#     Node 23, Type 0, BuildingBlock: CEKHIL_clean_sbu_0, # of connection points: 4
#     Node 24, Type 0, BuildingBlock: CEKHIL_clean_sbu_0, # of connection points: 4
#     Node 25, Type 0, BuildingBlock: CEKHIL_clean_sbu_0, # of connection points: 4
#     Node 26, Type 0, BuildingBlock: CEKHIL_clean_sbu_0, # of connection points: 4
#     Node 27, Type 0, BuildingBlock: CEKHIL_clean_sbu_0, # of connection points: 4
#     Node 28, Type 0, BuildingBlock: CEKHIL_clean_sbu_0, # of connection points: 4
#     Node 29, Type 0, BuildingBlock: CEKHIL_clean_sbu_0, # of connection points: 4
#     Node 30, Type 0, BuildingBlock: CEKHIL_clean_sbu_0, # of connection points: 4
#     Node 31, Type 0, BuildingBlock: CEKHIL_clean_sbu_0, # of connection points: 4
#     Node 32, Type 0, BuildingBlock: CEKHIL_clean_sbu_0, # of connection points: 4
#     Node 33, Type 0, BuildingBlock: CEKHIL_clean_sbu_0, # of connection points: 4
#     Node 34, Type 0, BuildingBlock: CEKHIL_clean_sbu_0, # of connection points: 4
#     Node 35, Type 0, BuildingBlock: CEKHIL_clean_sbu_0, # of connection points: 4
#     Edge 36, Type (0, 0), BuildingBlock: KIFKEQ_clean_linker_1, # of connection points: 2
#     Edge 37, Type (0, 0), BuildingBlock: KIFKEQ_clean_linker_1, # of connection points: 2
#     Edge 38, Type (0, 0), BuildingBlock: KIFKEQ_clean_linker_1, # of connection points: 2
#     Edge 39, Type (0, 0), BuildingBlock: KIFKEQ_clean_linker_1, # of connection points: 2
#     Edge 40, Type (0, 0), BuildingBlock: KIFKEQ_clean_linker_1, # of connection points: 2
#     Edge 41, Type (0, 0), BuildingBlock: KIFKEQ_clean_linker_1, # of connection points: 2
#     Edge 42, Type (0, 0), BuildingBlock: KIFKEQ_clean_linker_1, # of connection points: 2
#     Edge 43, Type (0, 0), BuildingBlock: KIFKEQ_clean_linker_1, # of connection points: 2
#     Edge 44, Type (0, 0), BuildingBlock: KIFKEQ_clean_linker_1, # of connection points: 2
#     Edge 45, Type (0, 0), BuildingBlock: KIFKEQ_clean_linker_1, # of connection points: 2
#     Edge 46, Type (0, 0), BuildingBlock: KIFKEQ_clean_linker_1, # of connection points: 2
#     Edge 47, Type (0, 0), BuildingBlock: KIFKEQ_clean_linker_1, # of connection points: 2
#     Edge 48, Type (0, 0), BuildingBlock: KIFKEQ_clean_linker_1, # of connection points: 2
#     Edge 49, Type (0, 0), BuildingBlock: KIFKEQ_clean_linker_1, # of connection points: 2
#     Edge 50, Type (0, 0), BuildingBlock: KIFKEQ_clean_linker_1, # of connection points: 2
#     Edge 51, Type (0, 0), BuildingBlock: KIFKEQ_clean_linker_1, # of connection points: 2
#     Edge 52, Type (0, 0), BuildingBlock: KIFKEQ_clean_linker_1, # of connection points: 2
#     Edge 53, Type (0, 0), BuildingBlock: KIFKEQ_clean_linker_1, # of connection points: 2
#     Edge 54, Type (0, 0), BuildingBlock: KIFKEQ_clean_linker_1, # of connection points: 2
#     Edge 55, Type (0, 0), BuildingBlock: KIFKEQ_clean_linker_1, # of connection points: 2
#     Edge 56, Type (0, 0), BuildingBlock: KIFKEQ_clean_linker_1, # of connection points: 2
#     Edge 57, Type (0, 0), BuildingBlock: KIFKEQ_clean_linker_1, # of connection points: 2
#     Edge 58, Type (0, 0), BuildingBlock: KIFKEQ_clean_linker_1, # of connection points: 2
#     Edge 59, Type (0, 0), BuildingBlock: KIFKEQ_clean_linker_1, # of connection points: 2
#     Edge 60, Type (0, 0), BuildingBlock: KIFKEQ_clean_linker_1, # of connection points: 2
#     Edge 61, Type (0, 0), BuildingBlock: KIFKEQ_clean_linker_1, # of connection points: 2
#     Edge 62, Type (0, 0), BuildingBlock: KIFKEQ_clean_linker_1, # of connection points: 2
#     Edge 63, Type (0, 0), BuildingBlock: KIFKEQ_clean_linker_1, # of connection points: 2
#     Edge 64, Type (0, 0), BuildingBlock: KIFKEQ_clean_linker_1, # of connection points: 2
#     Edge 65, Type (0, 0), BuildingBlock: KIFKEQ_clean_linker_1, # of connection points: 2
#     Edge 66, Type (0, 0), BuildingBlock: KIFKEQ_clean_linker_1, # of connection points: 2
#     Edge 67, Type (0, 0), BuildingBlock: KIFKEQ_clean_linker_1, # of connection points: 2
#     Edge 68, Type (0, 0), BuildingBlock: KIFKEQ_clean_linker_1, # of connection points: 2
#     Edge 69, Type (0, 0), BuildingBlock: KIFKEQ_clean_linker_1, # of connection points: 2
#     Edge 70, Type (0, 0), BuildingBlock: KIFKEQ_clean_linker_1, # of connection points: 2
#     Edge 71, Type (0, 0), BuildingBlock: KIFKEQ_clean_linker_1, # of connection points: 2
#     Edge 72, Type (0, 0), BuildingBlock: KIFKEQ_clean_linker_1, # of connection points: 2
#     Edge 73, Type (0, 0), BuildingBlock: KIFKEQ_clean_linker_1, # of connection points: 2
#     Edge 74, Type (0, 0), BuildingBlock: KIFKEQ_clean_linker_1, # of connection points: 2
#     Edge 75, Type (0, 0), BuildingBlock: KIFKEQ_clean_linker_1, # of connection points: 2
#     Edge 76, Type (0, 0), BuildingBlock: KIFKEQ_clean_linker_1, # of connection points: 2
#     Edge 77, Type (0, 0), BuildingBlock: KIFKEQ_clean_linker_1, # of connection points: 2
#     Edge 78, Type (0, 0), BuildingBlock: KIFKEQ_clean_linker_1, # of connection points: 2
#     Edge 79, Type (0, 0), BuildingBlock: KIFKEQ_clean_linker_1, # of connection points: 2
#     Edge 80, Type (0, 0), BuildingBlock: KIFKEQ_clean_linker_1, # of connection points: 2
#     Edge 81, Type (0, 0), BuildingBlock: KIFKEQ_clean_linker_1, # of connection points: 2
#     Edge 82, Type (0, 0), BuildingBlock: KIFKEQ_clean_linker_1, # of connection points: 2
#     Edge 83, Type (0, 0), BuildingBlock: KIFKEQ_clean_linker_1, # of connection points: 2
#     Edge 84, Type (0, 0), BuildingBlock: KIFKEQ_clean_linker_1, # of connection points: 2
#     Edge 85, Type (0, 0), BuildingBlock: KIFKEQ_clean_linker_1, # of connection points: 2
#     Edge 86, Type (0, 0), BuildingBlock: KIFKEQ_clean_linker_1, # of connection points: 2
#     Edge 87, Type (0, 0), BuildingBlock: KIFKEQ_clean_linker_1, # of connection points: 2
#     Edge 88, Type (0, 0), BuildingBlock: KIFKEQ_clean_linker_1, # of connection points: 2
#     Edge 89, Type (0, 0), BuildingBlock: KIFKEQ_clean_linker_1, # of connection points: 2
#     Edge 90, Type (0, 0), BuildingBlock: KIFKEQ_clean_linker_1, # of connection points: 2
#     Edge 91, Type (0, 0), BuildingBlock: KIFKEQ_clean_linker_1, # of connection points: 2
#     Edge 92, Type (0, 0), BuildingBlock: KIFKEQ_clean_linker_1, # of connection points: 2
#     Edge 93, Type (0, 0), BuildingBlock: KIFKEQ_clean_linker_1, # of connection points: 2
#     Edge 94, Type (0, 0), BuildingBlock: KIFKEQ_clean_linker_1, # of connection points: 2
#     Edge 95, Type (0, 0), BuildingBlock: KIFKEQ_clean_linker_1, # of connection points: 2
#     Edge 96, Type (0, 0), BuildingBlock: KIFKEQ_clean_linker_1, # of connection points: 2
#     Edge 97, Type (0, 0), BuildingBlock: KIFKEQ_clean_linker_1, # of connection points: 2
#     Edge 98, Type (0, 0), BuildingBlock: KIFKEQ_clean_linker_1, # of connection points: 2
#     Edge 99, Type (0, 0), BuildingBlock: KIFKEQ_clean_linker_1, # of connection points: 2
#     Edge 100, Type (0, 0), BuildingBlock: KIFKEQ_clean_linker_1, # of connection points: 2
#     Edge 101, Type (0, 0), BuildingBlock: KIFKEQ_clean_linker_1, # of connection points: 2
#     Edge 102, Type (0, 0), BuildingBlock: KIFKEQ_clean_linker_1, # of connection points: 2
#     Edge 103, Type (0, 0), BuildingBlock: KIFKEQ_clean_linker_1, # of connection points: 2
#     Edge 104, Type (0, 0), BuildingBlock: KIFKEQ_clean_linker_1, # of connection points: 2
#     Edge 105, Type (0, 0), BuildingBlock: KIFKEQ_clean_linker_1, # of connection points: 2
#     Edge 106, Type (0, 0), BuildingBlock: KIFKEQ_clean_linker_1, # of connection points: 2
#     Edge 107, Type (0, 0), BuildingBlock: KIFKEQ_clean_linker_1, # of connection points: 2
# Relax obj value: 0.114
# Max RMSD: 0.262
# Mean RMSD: 0.246
data_MOF--net-uns--node1-CEKHIL_clean_sbu_0--edge1-KIFKEQ_clean_linker_1
_symmetry_space_group_name_H-M    P1
_symmetry_Int_Tables_number       1
_symmetry_cell_setting            triclinic
loop_
_symmetry_equiv_pos_as_xyz
'x, y, z'
_cell_length_a     55.755415
_cell_length_b     54.996166
_cell_length_c     56.451041
_cell_angle_alpha  91.162804
_cell_angle_beta   90.044985
_cell_angle_gamma 120.43562
loop_
_atom_site_label
_atom_site_type_symbol
_atom_site_fract_x
_atom_site_fract_y
_atom_site_fract_z
_atom_type_partial_charge
Co0 Co 0.28666 0.19502 0.0572 0.0
O1 O 0.30299 0.17766 0.07498 0.0
O2 O 0.28002 0.19682 0.09092 0.0
C3 C 0.26794 0.16191 0.02816 0.0
O4 O 0.26642 0.21403 0.04326 0.0
Co5 Co 0.31169 0.21687 0.00848 0.0
O6 O 0.28123 0.2255 0.00581 0.0
C7 C 0.34458 0.24538 0.05049 0.0
C8 C 0.29516 0.18517 0.09397 0.0
C9 C 0.26549 0.22383 0.02287 0.0
O10 O 0.32181 0.23193 0.06179 0.0
O11 O 0.34623 0.24098 0.02838 0.0
O12 O 0.25491 0.15868 0.04802 0.0
O13 O 0.29304 0.18327 0.02768 0.0
Co14 Co 0.82678 0.08351 0.07024 0.0
O15 O 0.86509 0.09993 0.06235 0.0
O16 O 0.8323 0.09354 0.03677 0.0
C17 C 0.83227 0.10876 0.10358 0.0
O18 O 0.78487 0.06772 0.07416 0.0
Co19 Co 0.80983 0.04866 0.11615 0.0
O20 O 0.7763 0.05175 0.11152 0.0
C21 C 0.81497 0.02234 0.07243 0.0
C22 C 0.85858 0.10275 0.04101 0.0
C23 C 0.76878 0.05791 0.09229 0.0
O24 O 0.81997 0.04471 0.06153 0.0
O25 O 0.81224 0.02021 0.09493 0.0
O26 O 0.83303 0.11923 0.08303 0.0
O27 O 0.8331 0.08564 0.10315 0.0
Co28 Co 0.9087 0.72795 0.05494 0.0
O29 O 0.89722 0.75378 0.04517 0.0
O30 O 0.90243 0.72492 0.02074 0.0
C31 C 0.87954 0.70902 0.08556 0.0
O32 O 0.91967 0.69808 0.05989 0.0
Co33 Co 0.93755 0.73926 0.10423 0.0
O34 O 0.9283 0.69964 0.09909 0.0
C35 C 0.97066 0.77159 0.06383 0.0
C36 C 0.89565 0.74423 0.02373 0.0
C37 C 0.92417 0.68781 0.07864 0.0
O38 O 0.94904 0.75739 0.05046 0.0
O39 O 0.97019 0.76905 0.08635 0.0
O40 O 0.87105 0.70062 0.06394 0.0
O41 O 0.90389 0.73158 0.08767 0.0
Co42 Co 0.17736 0.26599 0.43983 0.0
O43 O 0.13932 0.24176 0.44866 0.0
O44 O 0.1727 0.27068 0.47359 0.0
C45 C 0.16994 0.28423 0.4073 0.0
O46 O 0.21892 0.29451 0.43572 0.0
Co47 Co 0.1963 0.2508 0.39312 0.0
O48 O 0.22747 0.29005 0.39735 0.0
C49 C 0.19431 0.22061 0.4359 0.0
C50 C 0.14654 0.25181 0.47008 0.0
C51 C 0.23471 0.30313 0.41734 0.0
O52 O 0.18614 0.2356 0.44718 0.0
O53 O 0.19848 0.22233 0.41354 0.0
O54 O 0.16916 0.2939 0.42826 0.0
O55 O 0.17052 0.26093 0.40682 0.0
Co56 Co 0.73808 0.90795 0.43875 0.0
O57 O 0.76063 0.89358 0.45054 0.0
O58 O 0.73422 0.90382 0.473 0.0
C59 C 0.71754 0.87725 0.40834 0.0
O60 O 0.71161 0.92263 0.43128 0.0
Co61 Co 0.75313 0.93438 0.38893 0.0
O62 O 0.717 0.93258 0.39237 0.0
C63 C 0.78623 0.96824 0.43002 0.0
C64 C 0.75158 0.89459 0.47142 0.0
C65 C 0.70451 0.92972 0.41193 0.0
O66 O 0.7702 0.94771 0.44333 0.0
O67 O 0.78393 0.96687 0.4074 0.0
O68 O 0.70858 0.87042 0.42976 0.0
O69 O 0.74131 0.90038 0.40659 0.0
Co70 Co 0.08955 0.79488 0.44896 0.0
O71 O 0.12353 0.81227 0.43152 0.0
O72 O 0.08149 0.79178 0.41514 0.0
C73 C 0.1029 0.82903 0.47695 0.0
O74 O 0.04986 0.77563 0.46192 0.0
Co75 Co 0.09085 0.77539 0.4993 0.0
O76 O 0.05173 0.76662 0.50039 0.0
C77 C 0.09622 0.74449 0.4594 0.0
C78 C 0.10833 0.80396 0.41238 0.0
C79 C 0.0383 0.76692 0.48222 0.0
O80 O 0.08917 0.75845 0.44609 0.0
O81 O 0.09981 0.74876 0.48179 0.0
O82 O 0.09314 0.83114 0.45663 0.0
O83 O 0.1069 0.80791 0.47874 0.0
Co84 Co 0.7348 0.81384 0.92607 0.0
O85 O 0.71039 0.82599 0.91426 0.0
O86 O 0.7536 0.84255 0.90237 0.0
C87 C 0.70394 0.76742 0.92171 0.0
O88 O 0.76518 0.8046 0.93447 0.0
Co89 Co 0.71854 0.78006 0.97237 0.0
O90 O 0.74562 0.7695 0.96061 0.0
C91 C 0.7438 0.84194 0.97519 0.0
C92 C 0.73007 0.84204 0.90011 0.0
C93 C 0.76502 0.78468 0.94638 0.0
O94 O 0.74769 0.84305 0.95266 0.0
O95 O 0.73081 0.81868 0.98622 0.0
O96 O 0.71861 0.78189 0.904 0.0
O97 O 0.70624 0.78193 0.94081 0.0
Co98 Co 0.1745 0.92744 0.94692 0.0
O99 O 0.13887 0.9144 0.96091 0.0
O100 O 0.16527 0.89576 0.96744 0.0
C101 C 0.19098 0.97363 0.95444 0.0
O102 O 0.21327 0.93731 0.93577 0.0
Co103 Co 0.18753 0.96457 0.90254 0.0
O104 O 0.22428 0.9674 0.90557 0.0
C105 C 0.15377 0.903 0.89679 0.0
C106 C 0.14248 0.89608 0.97188 0.0
C107 C 0.23014 0.95341 0.91984 0.0
O108 O 0.15734 0.90047 0.91892 0.0
O109 O 0.16186 0.92681 0.88727 0.0
O110 O 0.19194 0.95773 0.97063 0.0
O111 O 0.17707 0.9606 0.93545 0.0
Co112 Co 0.07652 0.24886 0.93846 0.0
O113 O 0.09243 0.2274 0.94993 0.0
O114 O 0.11202 0.27356 0.95469 0.0
C115 C 0.03297 0.22016 0.95185 0.0
O116 O 0.06464 0.27719 0.92938 0.0
Co117 Co 0.03061 0.21998 0.89944 0.0
O118 O 0.02808 0.25433 0.90409 0.0
C119 C 0.08935 0.2483 0.88555 0.0
C120 C 0.11292 0.25072 0.95849 0.0
C121 C 0.04516 0.27619 0.91622 0.0
O122 O 0.09663 0.2554 0.90738 0.0
O123 O 0.06398 0.2324 0.87888 0.0
O124 O 0.05238 0.23882 0.96577 0.0
O125 O 0.04132 0.21685 0.93129 0.0
Co126 Co 0.82774 0.74931 0.56202 0.0
O127 O 0.8653 0.76817 0.55104 0.0
O128 O 0.83492 0.72316 0.54363 0.0
C129 C 0.8179 0.78278 0.55151 0.0
O130 O 0.78659 0.72405 0.57023 0.0
Co131 Co 0.81485 0.77858 0.60365 0.0
O132 O 0.77631 0.75209 0.59243 0.0
C133 C 0.84009 0.74421 0.61425 0.0
C134 C 0.8599 0.74464 0.54084 0.0
C135 C 0.76902 0.72943 0.58046 0.0
O136 O 0.83895 0.7379 0.59204 0.0
O137 O 0.83332 0.76178 0.62241 0.0
O138 O 0.8164 0.76426 0.53606 0.0
O139 O 0.82881 0.78286 0.57177 0.0
Co140 Co 0.24015 0.06486 0.55936 0.0
O141 O 0.2165 0.07846 0.54904 0.0
O142 O 0.2608 0.09787 0.53962 0.0
C143 C 0.21031 0.01912 0.55013 0.0
O144 O 0.26999 0.05485 0.56708 0.0
Co145 Co 0.21854 0.02412 0.60189 0.0
O146 O 0.25227 0.02192 0.59533 0.0
C147 C 0.24644 0.0854 0.61109 0.0
C148 C 0.2374 0.09773 0.53768 0.0
C149 C 0.27163 0.03753 0.58121 0.0
O150 O 0.25118 0.08976 0.58883 0.0
O151 O 0.23166 0.06075 0.61955 0.0
O152 O 0.22615 0.03624 0.53408 0.0
O153 O 0.21049 0.03074 0.57028 0.0
Co154 Co 0.91602 0.18265 0.56865 0.0
O155 O 0.87972 0.17216 0.57995 0.0
O156 O 0.90459 0.15402 0.59279 0.0
C157 C 0.93295 0.22932 0.57247 0.0
O158 O 0.95537 0.19037 0.56075 0.0
Co159 Co 0.93523 0.21567 0.52211 0.0
O160 O 0.97228 0.22603 0.5351 0.0
C161 C 0.89787 0.15391 0.5196 0.0
C162 C 0.88218 0.15576 0.59458 0.0
C163 C 0.97572 0.21035 0.54935 0.0
O164 O 0.89901 0.15317 0.54234 0.0
O165 O 0.90987 0.1769 0.50813 0.0
O166 O 0.93249 0.2148 0.59041 0.0
O167 O 0.9207 0.21483 0.55336 0.0
Co168 Co 0.95978 0.53078 0.38123 0.0
O169 O 0.97748 0.51508 0.39954 0.0
O170 O 0.95816 0.53831 0.41486 0.0
C171 C 0.93591 0.49349 0.35645 0.0
O172 O 0.93884 0.5491 0.3673 0.0
Co173 Co 0.976 0.54313 0.32878 0.0
O174 O 0.94667 0.55337 0.32803 0.0
C175 C 0.0158 0.57888 0.36516 0.0
C176 C 0.97259 0.52597 0.41818 0.0
C177 C 0.93475 0.55575 0.34646 0.0
O178 O 0.99627 0.56679 0.38018 0.0
O179 O 0.01298 0.57182 0.34319 0.0
O180 O 0.92613 0.49414 0.37724 0.0
O181 O 0.96089 0.51384 0.35245 0.0
Co182 Co 0.49711 0.42214 0.40297 0.0
O183 O 0.53538 0.43882 0.39485 0.0
O184 O 0.50201 0.43035 0.36912 0.0
C185 C 0.50238 0.44882 0.43528 0.0
O186 O 0.45509 0.4055 0.40705 0.0
Co187 Co 0.4816 0.38966 0.45011 0.0
O188 O 0.44732 0.39125 0.44494 0.0
C189 C 0.48649 0.36159 0.40745 0.0
C190 C 0.52841 0.44005 0.37326 0.0
C191 C 0.43921 0.39602 0.42534 0.0
O192 O 0.49114 0.38339 0.39583 0.0
O193 O 0.48394 0.36036 0.42999 0.0
O194 O 0.50265 0.45811 0.41429 0.0
O195 O 0.50389 0.42609 0.43586 0.0
Co196 Co 0.57292 0.05989 0.39293 0.0
O197 O 0.56086 0.08556 0.38392 0.0
O198 O 0.56565 0.057 0.35884 0.0
C199 C 0.54479 0.04127 0.42424 0.0
O200 O 0.58446 0.0301 0.39701 0.0
Co201 Co 0.60348 0.07108 0.44145 0.0
O202 O 0.59478 0.03184 0.43583 0.0
C203 C 0.63525 0.10315 0.40042 0.0
C204 C 0.55892 0.07629 0.36233 0.0
C205 C 0.59016 0.02007 0.41534 0.0
O206 O 0.61291 0.08985 0.38773 0.0
O207 O 0.63601 0.09948 0.42267 0.0
O208 O 0.53558 0.03254 0.40281 0.0
O209 O 0.56936 0.06357 0.4258 0.0
Co210 Co 0.84484 0.60378 0.77718 0.0
O211 O 0.80761 0.57614 0.78587 0.0
O212 O 0.83909 0.60772 0.81078 0.0
C213 C 0.83412 0.61906 0.74427 0.0
O214 O 0.88513 0.6359 0.77345 0.0
Co215 Co 0.86787 0.59273 0.73086 0.0
O216 O 0.89528 0.63348 0.73515 0.0
C217 C 0.86836 0.5637 0.77371 0.0
C218 C 0.81382 0.58676 0.80721 0.0
C219 C 0.90081 0.64633 0.75522 0.0
O220 O 0.85822 0.57698 0.78489 0.0
O221 O 0.8726 0.56574 0.75135 0.0
O222 O 0.832 0.62802 0.76515 0.0
O223 O 0.8387 0.59814 0.7441 0.0
Co224 Co 0.40187 0.23905 0.76734 0.0
O225 O 0.42288 0.22258 0.77835 0.0
O226 O 0.39774 0.23397 0.80144 0.0
C227 C 0.38017 0.20988 0.73634 0.0
O228 O 0.37695 0.25575 0.76077 0.0
Co229 Co 0.41815 0.26716 0.71823 0.0
O230 O 0.38283 0.26697 0.72212 0.0
C231 C 0.45186 0.29872 0.75981 0.0
C232 C 0.41402 0.2235 0.79934 0.0
C233 C 0.37037 0.26389 0.74173 0.0
O234 O 0.4352 0.27799 0.77268 0.0
O235 O 0.44965 0.29823 0.73721 0.0
O236 O 0.37114 0.2025 0.75768 0.0
O237 O 0.40462 0.23221 0.7349 0.0
Co238 Co 0.76178 0.13679 0.77966 0.0
O239 O 0.79525 0.15391 0.76157 0.0
O240 O 0.75283 0.13318 0.74596 0.0
C241 C 0.77567 0.17113 0.80746 0.0
O242 O 0.72261 0.11773 0.7936 0.0
Co243 Co 0.76533 0.11787 0.82972 0.0
O244 O 0.72593 0.10837 0.83173 0.0
C245 C 0.77116 0.08816 0.78922 0.0
C246 C 0.7796 0.14529 0.74271 0.0
C247 C 0.71183 0.10883 0.81411 0.0
O248 O 0.76121 0.10031 0.77683 0.0
O249 O 0.77679 0.09364 0.81133 0.0
O250 O 0.76552 0.17314 0.78731 0.0
O251 O 0.77992 0.15016 0.809 0.0
Co252 Co 0.40272 0.15138 0.26336 0.0
O253 O 0.37707 0.16259 0.25307 0.0
O254 O 0.41954 0.18013 0.2392 0.0
C255 C 0.37231 0.10487 0.25934 0.0
O256 O 0.4339 0.14274 0.27044 0.0
Co257 Co 0.38852 0.11781 0.30978 0.0
O258 O 0.41532 0.10762 0.29668 0.0
C259 C 0.41343 0.17959 0.31259 0.0
C260 C 0.39551 0.1788 0.23813 0.0
C261 C 0.43421 0.12286 0.28209 0.0
O262 O 0.41637 0.18062 0.28994 0.0
O263 O 0.40102 0.15641 0.32377 0.0
O264 O 0.38609 0.11943 0.24134 0.0
O265 O 0.37516 0.11932 0.27861 0.0
Co266 Co 0.83742 0.25538 0.27999 0.0
O267 O 0.7996 0.23828 0.29009 0.0
O268 O 0.82864 0.22386 0.30042 0.0
C269 C 0.84915 0.3003 0.28805 0.0
O270 O 0.87823 0.26902 0.27275 0.0
Co271 Co 0.85386 0.29455 0.23658 0.0
O272 O 0.89113 0.29968 0.24279 0.0
C273 C 0.82399 0.23298 0.22873 0.0
C274 C 0.80398 0.22091 0.30183 0.0
C275 C 0.89635 0.28618 0.25807 0.0
O276 O 0.82549 0.22961 0.25105 0.0
O277 O 0.83185 0.25703 0.21976 0.0
O278 O 0.84958 0.28456 0.30464 0.0
O279 O 0.83846 0.28763 0.268 0.0
Co280 Co 0.74599 0.58493 0.26957 0.0
O281 O 0.76286 0.56345 0.27855 0.0
O282 O 0.78195 0.60934 0.28512 0.0
C283 C 0.70326 0.55494 0.28388 0.0
O284 O 0.73317 0.61321 0.26334 0.0
Co285 Co 0.69799 0.55795 0.23216 0.0
O286 O 0.69186 0.58844 0.24407 0.0
C287 C 0.75612 0.58753 0.21596 0.0
C288 C 0.78331 0.58654 0.28751 0.0
C289 C 0.71048 0.61064 0.25484 0.0
O290 O 0.76462 0.59316 0.23766 0.0
O291 O 0.73037 0.57234 0.21009 0.0
O292 O 0.72314 0.57314 0.29771 0.0
O293 O 0.71072 0.55298 0.26254 0.0
Co294 Co 0.49359 0.08015 0.89134 0.0
O295 O 0.53209 0.10215 0.88288 0.0
O296 O 0.50521 0.05672 0.87425 0.0
C297 C 0.48112 0.11127 0.87945 0.0
O298 O 0.45248 0.05138 0.89656 0.0
Co299 Co 0.47158 0.10418 0.93062 0.0
O300 O 0.43501 0.07262 0.91967 0.0
C301 C 0.50144 0.07502 0.94446 0.0
C302 C 0.52951 0.07955 0.87286 0.0
C303 C 0.43211 0.05196 0.90683 0.0
O304 O 0.50362 0.06975 0.9225 0.0
O305 O 0.49116 0.09019 0.95121 0.0
O306 O 0.48273 0.09411 0.86429 0.0
O307 O 0.49023 0.11146 0.90055 0.0
Co308 Co 0.91225 0.40501 0.89436 0.0
O309 O 0.88962 0.41998 0.88443 0.0
O310 O 0.93413 0.43895 0.87591 0.0
C311 C 0.88196 0.35996 0.8834 0.0
O312 O 0.94119 0.39365 0.90185 0.0
Co313 Co 0.88845 0.36181 0.93517 0.0
O314 O 0.92188 0.35906 0.92863 0.0
C315 C 0.91685 0.42266 0.94674 0.0
C316 C 0.91112 0.43954 0.87386 0.0
C317 C 0.94187 0.37521 0.91524 0.0
O318 O 0.92265 0.42828 0.92475 0.0
O319 O 0.90135 0.39758 0.95411 0.0
O320 O 0.89853 0.37773 0.86803 0.0
O321 O 0.8818 0.37067 0.90391 0.0
Co322 Co 0.58026 0.50905 0.90258 0.0
O323 O 0.54348 0.49736 0.91338 0.0
O324 O 0.56889 0.47974 0.92606 0.0
C325 C 0.59628 0.55553 0.90712 0.0
O326 O 0.62006 0.51788 0.89523 0.0
Co327 Co 0.5999 0.54328 0.85664 0.0
O328 O 0.63685 0.5541 0.87015 0.0
C329 C 0.56366 0.48143 0.85301 0.0
C330 C 0.54602 0.48067 0.92761 0.0
C331 C 0.64041 0.53839 0.88428 0.0
O332 O 0.56437 0.48019 0.87573 0.0
O333 O 0.57549 0.50469 0.84193 0.0
O334 O 0.59566 0.54073 0.92492 0.0
O335 O 0.58462 0.54134 0.88775 0.0
Co336 Co 0.62667 0.86651 0.71777 0.0
O337 O 0.645 0.85075 0.73492 0.0
O338 O 0.62262 0.87013 0.75175 0.0
C339 C 0.60552 0.83168 0.69047 0.0
O340 O 0.60514 0.88455 0.70473 0.0
Co341 Co 0.64693 0.88495 0.66713 0.0
O342 O 0.61677 0.89415 0.66641 0.0
C343 C 0.68365 0.91584 0.70668 0.0
C344 C 0.63843 0.85915 0.75413 0.0
C345 C 0.60265 0.89351 0.68441 0.0
O346 O 0.66201 0.90361 0.71958 0.0
O347 O 0.68317 0.90996 0.6846 0.0
O348 O 0.59436 0.82967 0.7111 0.0
O349 O 0.63045 0.85292 0.68814 0.0
Co350 Co 0.15746 0.75838 0.73401 0.0
O351 O 0.19509 0.76954 0.72653 0.0
O352 O 0.16441 0.7676 0.70059 0.0
C353 C 0.16622 0.78516 0.76716 0.0
O354 O 0.11683 0.74844 0.73677 0.0
Co355 Co 0.13378 0.72474 0.7801 0.0
O356 O 0.1057 0.73613 0.77483 0.0
C357 C 0.13729 0.69512 0.73765 0.0
C358 C 0.18968 0.77322 0.70502 0.0
C359 C 0.10071 0.74301 0.75477 0.0
O360 O 0.14537 0.71783 0.72609 0.0
O361 O 0.13332 0.69379 0.76005 0.0
O362 O 0.16905 0.79594 0.7464 0.0
O363 O 0.1624 0.75986 0.76708 0.0
Co364 Co 0.23585 0.39167 0.72418 0.0
O365 O 0.22221 0.41619 0.71581 0.0
O366 O 0.22768 0.38851 0.69021 0.0
C367 C 0.20912 0.37188 0.75589 0.0
O368 O 0.24908 0.36322 0.72781 0.0
Co369 Co 0.26843 0.40531 0.77168 0.0
O370 O 0.26079 0.36632 0.76643 0.0
C371 C 0.29793 0.43714 0.72998 0.0
C372 C 0.22027 0.40723 0.69412 0.0
C373 C 0.25581 0.35405 0.74611 0.0
O374 O 0.27516 0.42248 0.7181 0.0
O375 O 0.2997 0.43465 0.75231 0.0
O376 O 0.1994 0.3631 0.73459 0.0
O377 O 0.23289 0.39526 0.75721 0.0
Co378 Co 0.50915 0.93848 0.10954 0.0
O379 O 0.47126 0.91377 0.1184 0.0
O380 O 0.50435 0.94339 0.14323 0.0
C381 C 0.50125 0.95585 0.07668 0.0
O382 O 0.55056 0.96742 0.1053 0.0
Co383 Co 0.52843 0.92292 0.06323 0.0
O384 O 0.55911 0.96251 0.06703 0.0
C385 C 0.52733 0.89401 0.10655 0.0
C386 C 0.47837 0.92398 0.13978 0.0
C387 C 0.5663 0.97589 0.08689 0.0
O388 O 0.51875 0.90887 0.11743 0.0
O389 O 0.53135 0.89521 0.08417 0.0
O390 O 0.50023 0.96569 0.09751 0.0
O391 O 0.50232 0.93282 0.07655 0.0
Co392 Co 0.0686 0.57413 0.10622 0.0
O393 O 0.09247 0.56064 0.11658 0.0
O394 O 0.06536 0.56867 0.14022 0.0
C395 C 0.04829 0.54447 0.07517 0.0
O396 O 0.04063 0.58729 0.1008 0.0
Co397 Co 0.07994 0.60246 0.05732 0.0
O398 O 0.04144 0.59468 0.0616 0.0
C399 C 0.11438 0.63558 0.09823 0.0
C400 C 0.08331 0.56031 0.13772 0.0
C401 C 0.03026 0.5914 0.08186 0.0
O402 O 0.09976 0.61428 0.11133 0.0
O403 O 0.11073 0.63499 0.07579 0.0
O404 O 0.03998 0.53645 0.09656 0.0
O405 O 0.07142 0.56832 0.07358 0.0
Co406 Co 0.42529 0.46695 0.11091 0.0
O407 O 0.45798 0.4808 0.0921 0.0
O408 O 0.4151 0.45668 0.07758 0.0
C409 C 0.4396 0.50627 0.13303 0.0
O410 O 0.38682 0.45038 0.12622 0.0
Co411 Co 0.43291 0.45927 0.16384 0.0
O412 O 0.39522 0.45453 0.16559 0.0
C413 C 0.43542 0.4211 0.12915 0.0
C414 C 0.4418 0.46878 0.07389 0.0
C415 C 0.3789 0.44927 0.14789 0.0
O416 O 0.42546 0.43106 0.1143 0.0
O417 O 0.44187 0.43047 0.15051 0.0
O418 O 0.42867 0.50379 0.11212 0.0
O419 O 0.44452 0.48645 0.13855 0.0
Co420 Co 0.06804 0.48732 0.59298 0.0
O421 O 0.04359 0.49908 0.58071 0.0
O422 O 0.08716 0.51667 0.56964 0.0
C423 C 0.03773 0.44092 0.58781 0.0
O424 O 0.09835 0.47817 0.60221 0.0
Co425 Co 0.05002 0.45276 0.63894 0.0
O426 O 0.07751 0.44249 0.62776 0.0
C427 C 0.07407 0.5144 0.64219 0.0
C428 C 0.06341 0.51565 0.56692 0.0
C429 C 0.09748 0.45783 0.61407 0.0
O430 O 0.07954 0.51597 0.61991 0.0
O431 O 0.06058 0.49092 0.65283 0.0
O432 O 0.05294 0.45579 0.57047 0.0
O433 O 0.03921 0.45504 0.60692 0.0
Co434 Co 0.50431 0.59465 0.61251 0.0
O435 O 0.46588 0.57946 0.61971 0.0
O436 O 0.49125 0.56181 0.63249 0.0
C437 C 0.5176 0.63989 0.6211 0.0
O438 O 0.54531 0.60649 0.60866 0.0
Co439 Co 0.52774 0.63623 0.57056 0.0
O440 O 0.5636 0.64374 0.5844 0.0
C441 C 0.4961 0.57488 0.56054 0.0
C442 C 0.46739 0.56086 0.63226 0.0
C443 C 0.56607 0.62727 0.59845 0.0
O444 O 0.49429 0.57011 0.58288 0.0
O445 O 0.50667 0.59968 0.55219 0.0
O446 O 0.51519 0.62297 0.63779 0.0
O447 O 0.50873 0.62826 0.6004 0.0
Co448 Co 0.41146 0.91728 0.60736 0.0
O449 O 0.42817 0.8968 0.6192 0.0
O450 O 0.44649 0.94286 0.62386 0.0
C451 C 0.368 0.88753 0.6203 0.0
O452 O 0.39846 0.94453 0.59777 0.0
Co453 Co 0.36707 0.88713 0.5675 0.0
O454 O 0.36295 0.92064 0.57167 0.0
C455 C 0.42598 0.91706 0.55478 0.0
C456 C 0.44812 0.92045 0.6278 0.0
C457 C 0.37904 0.94272 0.58403 0.0
O458 O 0.43225 0.92457 0.57666 0.0
O459 O 0.40106 0.90013 0.54751 0.0
O460 O 0.38692 0.90654 0.63435 0.0
O461 O 0.37692 0.88458 0.59987 0.0
Co462 Co 0.15919 0.41448 0.22827 0.0
O463 O 0.19707 0.43746 0.21883 0.0
O464 O 0.17092 0.39233 0.20905 0.0
C465 C 0.1455 0.44534 0.21873 0.0
O466 O 0.11852 0.38514 0.2347 0.0
Co467 Co 0.13987 0.43764 0.27036 0.0
O468 O 0.10327 0.40404 0.26262 0.0
C469 C 0.17088 0.40873 0.28044 0.0
C470 C 0.19484 0.41565 0.20762 0.0
C471 C 0.09934 0.3843 0.24807 0.0
O472 O 0.17112 0.40347 0.25814 0.0
O473 O 0.16147 0.42409 0.28868 0.0
O474 O 0.14657 0.42872 0.20268 0.0
O475 O 0.15591 0.44531 0.23918 0.0
Co476 Co 0.57546 0.73805 0.22498 0.0
O477 O 0.55477 0.75688 0.22119 0.0
O478 O 0.59688 0.77228 0.20702 0.0
C479 C 0.54012 0.69502 0.21393 0.0
O480 O 0.60239 0.72296 0.22535 0.0
Co481 Co 0.55525 0.69122 0.26294 0.0
O482 O 0.58215 0.68338 0.2468 0.0
C483 C 0.58906 0.75144 0.27772 0.0
C484 C 0.57519 0.77527 0.20876 0.0
C485 C 0.60131 0.70059 0.23331 0.0
O486 O 0.59197 0.75898 0.25597 0.0
O487 O 0.57363 0.72584 0.28404 0.0
O488 O 0.5553 0.71303 0.19816 0.0
O489 O 0.54491 0.70434 0.23561 0.0
Co490 Co 0.24694 0.84692 0.23921 0.0
O491 O 0.21049 0.83565 0.25054 0.0
O492 O 0.23578 0.81768 0.26275 0.0
C493 C 0.26337 0.89339 0.24389 0.0
O494 O 0.28651 0.85548 0.23116 0.0
Co495 Co 0.26571 0.88106 0.19316 0.0
O496 O 0.30286 0.89171 0.20611 0.0
C497 C 0.22876 0.81933 0.18975 0.0
C498 C 0.21314 0.819 0.26472 0.0
C499 C 0.30667 0.876 0.22004 0.0
O500 O 0.23028 0.81808 0.21241 0.0
O501 O 0.24037 0.84258 0.17866 0.0
O502 O 0.26297 0.87852 0.26154 0.0
O503 O 0.25124 0.87928 0.2246 0.0
H504 H 0.32028 0.15552 0.10473 0.0
H505 H 0.29964 0.21523 0.13504 0.0
H506 H 0.34809 0.16062 0.13962 0.0
H507 H 0.3279 0.22056 0.17026 0.0
H508 H 0.35373 0.19046 0.23862 0.0
H509 H 0.32955 0.19447 0.20434 0.0
H510 H 0.39204 0.19543 0.15856 0.0
H511 H 0.41604 0.19089 0.19305 0.0
C512 C 0.32143 0.16955 0.11901 0.0
C513 C 0.30759 0.18486 0.11713 0.0
C514 C 0.33778 0.17282 0.1389 0.0
C515 C 0.34083 0.19151 0.15755 0.0
C516 C 0.3261 0.20605 0.15616 0.0
C517 C 0.30968 0.20281 0.13611 0.0
C518 C 0.36279 0.19239 0.22129 0.0
C519 C 0.3867 0.19015 0.21851 0.0
C520 C 0.34888 0.19468 0.20161 0.0
C521 C 0.35845 0.19462 0.17863 0.0
C522 C 0.38375 0.19488 0.17602 0.0
C523 C 0.39779 0.19274 0.19578 0.0
H524 H 0.85203 0.11603 0.14931 0.0
H525 H 0.7944 0.12519 0.10469 0.0
H526 H 0.84373 0.14134 0.18163 0.0
H527 H 0.78497 0.14897 0.13693 0.0
H528 H 0.81694 0.18106 0.23883 0.0
H529 H 0.81324 0.14514 0.21045 0.0
H530 H 0.812 0.1952 0.15293 0.0
H531 H 0.81486 0.23037 0.18101 0.0
C532 C 0.8371 0.12284 0.14669 0.0
C533 C 0.82434 0.11936 0.1245 0.0
C534 C 0.83218 0.13717 0.16516 0.0
C535 C 0.81409 0.14773 0.1617 0.0
C536 C 0.79966 0.14195 0.14 0.0
C537 C 0.80499 0.12824 0.12155 0.0
C538 C 0.81516 0.18403 0.22014 0.0
C539 C 0.8164 0.20876 0.21221 0.0
C540 C 0.81334 0.16356 0.20387 0.0
C541 C 0.81254 0.16732 0.17939 0.0
C542 C 0.81221 0.19131 0.17163 0.0
C543 C 0.81402 0.21167 0.1878 0.0
H544 H 0.81279 0.62336 0.2202 0.0
H545 H 0.74579 0.58553 0.16841 0.0
H546 H 0.84482 0.65197 0.18936 0.0
H547 H 0.77729 0.61461 0.13808 0.0
H548 H 0.84141 0.65338 0.08289 0.0
H549 H 0.81475 0.62235 0.11446 0.0
H550 H 0.85557 0.69176 0.16518 0.0
H551 H 0.88353 0.72279 0.13323 0.0
C552 C 0.80491 0.62087 0.20223 0.0
C553 C 0.77661 0.60201 0.19687 0.0
C554 C 0.82325 0.63755 0.18459 0.0
C555 C 0.81373 0.63581 0.16117 0.0
C556 C 0.78563 0.61632 0.15576 0.0
C557 C 0.76741 0.59959 0.17329 0.0
C558 C 0.84478 0.66211 0.10077 0.0
C559 C 0.86423 0.69069 0.10553 0.0
C560 C 0.82935 0.64426 0.11893 0.0
C561 C 0.83251 0.65453 0.14241 0.0
C562 C 0.85265 0.68302 0.14734 0.0
C563 C 0.86852 0.70089 0.12906 0.0
H564 H 0.20146 0.34079 0.40715 0.0
H565 H 0.15216 0.26865 0.361 0.0
H566 H 0.2081 0.37229 0.37512 0.0
H567 H 0.15757 0.3004 0.32878 0.0
H568 H 0.18219 0.36608 0.27167 0.0
H569 H 0.18664 0.33624 0.3008 0.0
H570 H 0.17899 0.38606 0.35726 0.0
H571 H 0.17552 0.41612 0.32852 0.0
C572 C 0.19196 0.33169 0.39004 0.0
C573 C 0.17581 0.30232 0.38662 0.0
C574 C 0.19569 0.34976 0.37167 0.0
C575 C 0.18282 0.33899 0.34947 0.0
C576 C 0.16786 0.30947 0.34563 0.0
C577 C 0.16458 0.29125 0.36405 0.0
C578 C 0.18213 0.37104 0.29033 0.0
C579 C 0.17841 0.39354 0.29769 0.0
C580 C 0.18436 0.3537 0.30702 0.0
C581 C 0.18304 0.35856 0.33142 0.0
C582 C 0.18054 0.3818 0.33868 0.0
C583 C 0.17838 0.39907 0.3221 0.0
H584 H 0.58917 0.74326 0.32517 0.0
H585 H 0.62843 0.80757 0.27257 0.0
H586 H 0.62055 0.77568 0.35521 0.0
H587 H 0.65959 0.84066 0.30323 0.0
H588 H 0.66181 0.84347 0.40949 0.0
H589 H 0.63013 0.81662 0.3773 0.0
H590 H 0.69891 0.84904 0.32874 0.0
H591 H 0.73088 0.87727 0.36132 0.0
C592 C 0.60418 0.7645 0.32003 0.0
C593 C 0.60617 0.77271 0.29636 0.0
C594 C 0.6222 0.78323 0.33737 0.0
C595 C 0.64259 0.81088 0.33169 0.0
C596 C 0.6443 0.81942 0.30814 0.0
C597 C 0.62624 0.80053 0.29064 0.0
C598 C 0.67029 0.84496 0.39196 0.0
C599 C 0.69893 0.86203 0.38798 0.0
C600 C 0.65207 0.82948 0.37347 0.0
C601 C 0.66199 0.83018 0.3505 0.0
C602 C 0.69057 0.84808 0.34624 0.0
C603 C 0.70891 0.86405 0.36486 0.0
H604 H 0.08267 0.77719 0.37031 0.0
H605 H 0.16347 0.83134 0.40254 0.0
H606 H 0.10512 0.77377 0.3341 0.0
H607 H 0.18574 0.82828 0.36658 0.0
H608 H 0.2218 0.80272 0.30803 0.0
H609 H 0.19388 0.79544 0.34348 0.0
H610 H 0.13287 0.8025 0.30165 0.0
H611 H 0.16034 0.80909 0.26639 0.0
C612 C 0.10517 0.7887 0.36954 0.0
C613 C 0.12126 0.80464 0.38927 0.0
C614 C 0.11806 0.7866 0.34887 0.0
C615 C 0.14728 0.80035 0.34754 0.0
C616 C 0.16323 0.81677 0.36714 0.0
C617 C 0.15041 0.81887 0.38769 0.0
C618 C 0.20196 0.8017 0.30631 0.0
C619 C 0.19339 0.80671 0.28448 0.0
C620 C 0.18613 0.79795 0.32666 0.0
C621 C 0.16141 0.79903 0.32552 0.0
C622 C 0.15173 0.80154 0.30326 0.0
C623 C 0.16755 0.80537 0.28301 0.0
H624 H 0.61816 0.84832 0.79963 0.0
H625 H 0.69238 0.87525 0.75879 0.0
H626 H 0.64346 0.84925 0.83543 0.0
H627 H 0.71835 0.87874 0.79433 0.0
H628 H 0.74764 0.8459 0.85473 0.0
H629 H 0.72625 0.85265 0.81997 0.0
H630 H 0.6755 0.87258 0.86514 0.0
H631 H 0.69568 0.86358 0.89979 0.0
C632 C 0.64 0.85485 0.79846 0.0
C633 C 0.65318 0.86113 0.77647 0.0
C634 C 0.65472 0.85573 0.81899 0.0
C635 C 0.68317 0.8638 0.81801 0.0
C636 C 0.69641 0.87144 0.79597 0.0
C637 C 0.68152 0.86963 0.7755 0.0
C638 C 0.73251 0.85254 0.85717 0.0
C639 C 0.7234 0.85432 0.87991 0.0
C640 C 0.72005 0.8564 0.83717 0.0
C641 C 0.69862 0.86285 0.83944 0.0
C642 C 0.69119 0.86679 0.86243 0.0
C643 C 0.70315 0.86217 0.88239 0.0
H644 H 0.13035 0.8939 0.85258 0.0
H645 H 0.15878 0.85683 0.90415 0.0
H646 H 0.12892 0.86096 0.82235 0.0
H647 H 0.15852 0.82468 0.8737 0.0
H648 H 0.14703 0.76371 0.81144 0.0
H649 H 0.13646 0.7868 0.84412 0.0
H650 H 0.1671 0.86184 0.80266 0.0
H651 H 0.1767 0.83874 0.77024 0.0
C652 C 0.13569 0.87829 0.85759 0.0
C653 C 0.14506 0.87828 0.88067 0.0
C654 C 0.13518 0.8596 0.84021 0.0
C655 C 0.14453 0.84081 0.8454 0.0
C656 C 0.15128 0.83891 0.86903 0.0
C657 C 0.15138 0.85737 0.88653 0.0
C658 C 0.15153 0.78516 0.80946 0.0
C659 C 0.16248 0.79933 0.78821 0.0
C660 C 0.14543 0.79836 0.82812 0.0
C661 C 0.15031 0.82597 0.82584 0.0
C662 C 0.16212 0.84025 0.80481 0.0
C663 C 0.16801 0.8271 0.78627 0.0
H664 H 0.14501 0.28762 0.89141 0.0
H665 H 0.08185 0.24193 0.83748 0.0
H666 H 0.1774 0.31664 0.86095 0.0
H667 H 0.11361 0.27133 0.80745 0.0
H668 H 0.2108 0.38615 0.8032 0.0
H669 H 0.18474 0.35415 0.83528 0.0
H670 H 0.15362 0.28322 0.78588 0.0
H671 H 0.17826 0.31509 0.75409 0.0
C672 C 0.13811 0.28342 0.87307 0.0
C673 C 0.11068 0.26239 0.86699 0.0
C674 C 0.15663 0.30033 0.85562 0.0
C675 C 0.14817 0.2966 0.83169 0.0
C676 C 0.12115 0.2747 0.82558 0.0
C677 C 0.10276 0.25777 0.84293 0.0
C678 C 0.19843 0.36369 0.79938 0.0
C679 C 0.19598 0.35316 0.77611 0.0
C680 C 0.18365 0.3453 0.81773 0.0
C681 C 0.1666 0.31604 0.81313 0.0
C682 C 0.16574 0.30561 0.79003 0.0
C683 C 0.17997 0.32393 0.77176 0.0
H684 H 0.83654 0.69299 0.60705 0.0
H685 H 0.85603 0.75767 0.66074 0.0
H686 H 0.8364 0.66178 0.63725 0.0
H687 H 0.85692 0.72697 0.6907 0.0
H688 H 0.81587 0.65589 0.74128 0.0
H689 H 0.82101 0.6864 0.70903 0.0
H690 H 0.86038 0.65011 0.66704 0.0
H691 H 0.85427 0.61847 0.69955 0.0
C692 C 0.84157 0.70087 0.62519 0.0
C693 C 0.84591 0.72774 0.63152 0.0
C694 C 0.84149 0.68292 0.64253 0.0
C695 C 0.84597 0.69154 0.66654 0.0
C696 C 0.85249 0.71924 0.6725 0.0
C697 C 0.85224 0.737 0.65527 0.0
C698 C 0.8255 0.6542 0.72514 0.0
C699 C 0.83491 0.63492 0.72308 0.0
C700 C 0.82875 0.672 0.70668 0.0
C701 C 0.84181 0.67135 0.68559 0.0
C702 C 0.85033 0.65128 0.68308 0.0
C703 C 0.84683 0.63314 0.70166 0.0
H704 H 0.32491 0.18924 0.73719 0.0
H705 H 0.39131 0.20314 0.68999 0.0
H706 H 0.29099 0.16505 0.70558 0.0
H707 H 0.35697 0.17742 0.65822 0.0
H708 H 0.28946 0.13875 0.60198 0.0
H709 H 0.32156 0.17377 0.63096 0.0
H710 H 0.27235 0.12003 0.68764 0.0
H711 H 0.24007 0.08576 0.65899 0.0
C712 C 0.33221 0.18694 0.71997 0.0
C713 C 0.36063 0.19741 0.71611 0.0
C714 C 0.31274 0.17304 0.70184 0.0
C715 C 0.32111 0.16869 0.67947 0.0
C716 C 0.34979 0.18049 0.67521 0.0
C717 C 0.36945 0.195 0.69339 0.0
C718 C 0.28508 0.13479 0.62065 0.0
C719 C 0.26225 0.10927 0.62813 0.0
C720 C 0.3037 0.15474 0.63725 0.0
C721 C 0.2998 0.14964 0.66164 0.0
C722 C 0.27598 0.12492 0.66904 0.0
C723 C 0.25742 0.10509 0.65253 0.0
H724 H 0.89079 0.1402 0.63823 0.0
H725 H 0.82974 0.14699 0.59633 0.0
H726 H 0.86331 0.13418 0.67374 0.0
H727 H 0.80266 0.14155 0.63166 0.0
H728 H 0.75309 0.11765 0.70107 0.0
H729 H 0.77491 0.11331 0.66475 0.0
H730 H 0.85607 0.16836 0.69606 0.0
H731 H 0.83448 0.17245 0.73206 0.0
C732 C 0.87112 0.13954 0.63648 0.0
C733 C 0.86256 0.14429 0.61453 0.0
C734 C 0.85554 0.1365 0.65685 0.0
C735 C 0.83106 0.13802 0.65564 0.0
C736 C 0.82135 0.14028 0.63331 0.0
C737 C 0.83694 0.14344 0.61303 0.0
C738 C 0.77557 0.12911 0.7 0.0
C739 C 0.79201 0.1455 0.71943 0.0
C740 C 0.78809 0.12647 0.67928 0.0
C741 C 0.81728 0.14006 0.67763 0.0
C742 C 0.83357 0.15696 0.6969 0.0
C743 C 0.82113 0.15964 0.71746 0.0
H744 H 1.00155 0.49999 0.42889 0.0
H745 H 0.97559 0.55565 0.45907 0.0
H746 H 0.02773 0.50484 0.46479 0.0
H747 H 0.00236 0.56091 0.49521 0.0
H748 H 0.02169 0.52723 0.56433 0.0
H749 H 1.00137 0.53353 0.52857 0.0
H750 H 0.0687 0.5376 0.48765 0.0
H751 H 0.08876 0.53059 0.52366 0.0
C752 C 1.00135 0.51325 0.44325 0.0
C753 C 0.98623 0.52724 0.44115 0.0
C754 C 0.01677 0.51637 0.46377 0.0
C755 C 0.01759 0.53362 0.48284 0.0
C756 C 1.00218 0.54741 0.48089 0.0
C757 C 0.9867 0.54428 0.46025 0.0
C758 C 0.03262 0.53028 0.5478 0.0
C759 C 0.0567 0.52813 0.54678 0.0
C760 C 0.02094 0.53394 0.52724 0.0
C761 C 0.03302 0.53547 0.50509 0.0
C762 C 0.0585 0.53584 0.50437 0.0
C763 C 0.07027 0.53226 0.52504 0.0
H764 H 0.46806 0.46976 0.43498 0.0
H765 H 0.5198 0.45406 0.48166 0.0
H766 H 0.45951 0.49465 0.46681 0.0
H767 H 0.5123 0.48035 0.51366 0.0
H768 H 0.49157 0.57508 0.51247 0.0
H769 H 0.48852 0.54006 0.4841 0.0
H770 H 0.48119 0.48559 0.54119 0.0
H771 H 0.48505 0.52131 0.56992 0.0
C772 C 0.47762 0.47168 0.45217 0.0
C773 C 0.49511 0.46062 0.45582 0.0
C774 C 0.47275 0.48598 0.47041 0.0
C775 C 0.48574 0.49013 0.49264 0.0
C776 C 0.50191 0.4775 0.49675 0.0
C777 C 0.50638 0.46261 0.47847 0.0
C778 C 0.48885 0.55549 0.51908 0.0
C779 C 0.48878 0.55118 0.54352 0.0
C780 C 0.48693 0.53523 0.50274 0.0
C781 C 0.48471 0.50997 0.51034 0.0
C782 C 0.48324 0.50497 0.53477 0.0
C783 C 0.48515 0.52533 0.55121 0.0
H784 H 0.5641 0.04219 0.46938 0.0
H785 H 0.49031 0.00123 0.42507 0.0
H786 H 0.53871 0.00975 0.50116 0.0
H787 H 0.46455 0.97011 0.45692 0.0
H788 H 0.42654 0.90177 0.5083 0.0
H789 H 0.45779 0.93116 0.47753 0.0
H790 H 0.50454 0.99744 0.52977 0.0
H791 H 0.47434 0.96746 0.56056 0.0
C792 C 0.54238 0.02651 0.46656 0.0
C793 C 0.52927 0.02411 0.44468 0.0
C794 C 0.52774 0.0079 0.48478 0.0
C795 C 0.49955 0.98683 0.48162 0.0
C796 C 0.48639 0.98527 0.4599 0.0
C797 C 0.5011 0.00345 0.44166 0.0
C798 C 0.44389 0.92236 0.51326 0.0
C799 C 0.44776 0.93227 0.53687 0.0
C800 C 0.46166 0.93944 0.49557 0.0
C801 C 0.48339 0.96712 0.50095 0.0
C802 C 0.48823 0.9763 0.52482 0.0
C803 C 0.47078 0.95902 0.54257 0.0
H804 H 0.50071 0.08167 0.99245 0.0
H805 H 0.51609 0.03433 0.93861 0.0
H806 H 0.50379 0.05291 0.02271 0.0
H807 H 0.52013 0.00584 0.96936 0.0
H808 H 0.52835 0.01257 0.07612 0.0
H809 H 0.5341 0.04269 0.04328 0.0
H810 H 0.49086 0.96924 0.99687 0.0
H811 H 0.48633 0.93893 0.03002 0.0
C812 C 0.50535 0.0655 0.98705 0.0
C813 C 0.50806 0.06038 0.96298 0.0
C814 C 0.50727 0.04898 0.00452 0.0
C815 C 0.51222 0.02694 0.99856 0.0
C816 C 0.51596 0.02239 0.97457 0.0
C817 C 0.51395 0.03896 0.95697 0.0
C818 C 0.52019 0.0028 0.05887 0.0
C819 C 0.50635 0.97337 0.05569 0.0
C820 C 0.52342 0.0201 0.04002 0.0
C821 C 0.51236 0.00845 0.01749 0.0
C822 C 0.49969 0.97898 0.01397 0.0
C823 C 0.49691 0.96157 0.03292 0.0
H824 H 0.95854 0.47741 0.93991 0.0
H825 H 0.9105 0.41926 0.99469 0.0
H826 H 0.98965 0.51106 0.97014 0.0
H827 H 0.94192 0.45205 0.02448 0.0
H828 H 0.05969 0.54111 0.02827 0.0
H829 H 0.02576 0.51554 0.99624 0.0
H830 H 0.95876 0.49477 0.04517 0.0
H831 H 0.9924 0.51863 0.07698 0.0
C832 C 0.95427 0.47197 0.95837 0.0
C833 C 0.93209 0.44545 0.96481 0.0
C834 C 0.97234 0.49114 0.97568 0.0
C835 C 0.96859 0.48421 0.99977 0.0
C836 C 0.94541 0.4584 0.00619 0.0
C837 C 0.92734 0.43939 0.98899 0.0
C838 C 0.03768 0.531 0.03199 0.0
C839 C 0.02861 0.53107 0.05513 0.0
C840 C 0.01822 0.51661 0.01367 0.0
C841 C 0.98942 0.50263 0.01818 0.0
C842 C 0.98066 0.50443 0.04114 0.0
C843 C 0.99998 0.51814 0.05941 0.0
H844 H 0.55336 0.46226 0.97035 0.0
H845 H 0.49325 0.47108 0.92887 0.0
H846 H 0.52472 0.4538 0.00549 0.0
H847 H 0.46502 0.46321 0.96387 0.0
H848 H 0.41491 0.43917 0.03279 0.0
H849 H 0.43661 0.43381 0.99669 0.0
H850 H 0.51787 0.48806 0.02812 0.0
H851 H 0.49654 0.49325 0.06369 0.0
C852 C 0.53365 0.46151 0.96856 0.0
C853 C 0.52575 0.46769 0.94693 0.0
C854 C 0.51737 0.457 0.98873 0.0
C855 C 0.49287 0.45847 0.9876 0.0
C856 C 0.48371 0.46194 0.96543 0.0
C857 C 0.49999 0.46655 0.94535 0.0
C858 C 0.43738 0.45004 0.03183 0.0
C859 C 0.45395 0.46675 0.05108 0.0
C860 C 0.44982 0.44686 0.01125 0.0
C861 C 0.47901 0.46012 0.00966 0.0
C862 C 0.49537 0.47692 0.02891 0.0
C863 C 0.48305 0.48021 0.04925 0.0
H864 H 0.23836 0.00691 0.97927 0.0
H865 H 0.17421 0.0093 0.93833 0.0
H866 H 0.25825 0.05665 0.99028 0.0
H867 H 0.19373 0.05922 0.95006 0.0
H868 H 0.2139 0.12172 0.01992 0.0
H869 H 0.19659 0.07903 0.99507 0.0
H870 H 0.27997 0.10762 0.97101 0.0
H871 H 0.29728 0.15071 0.99545 0.0
C872 C 0.22879 0.01827 0.97236 0.0
C873 C 0.20472 0.00439 0.9581 0.0
C874 C 0.24027 0.04673 0.97851 0.0
C875 C 0.22751 0.06168 0.97096 0.0
C876 C 0.20395 0.04809 0.95599 0.0
C877 C 0.19286 0.01967 0.94929 0.0
C878 C 0.22839 0.11924 0.0088 0.0
C879 C 0.25694 0.13931 0.00977 0.0
C880 C 0.21847 0.09494 0.99449 0.0
C881 C 0.23701 0.09009 0.98126 0.0
C882 C 0.26531 0.11097 0.98109 0.0
C883 C 0.27516 0.13557 0.99503 0.0
H884 H 0.98912 0.17158 0.93191 0.0
H885 H 0.01092 0.23175 0.99 0.0
H886 H 0.94306 0.14162 0.94956 0.0
H887 H 0.96545 0.20215 0.00726 0.0
H888 H 0.91298 0.1204 0.04756 0.0
H889 H 0.95155 0.14844 0.02185 0.0
H890 H 0.89498 0.1463 0.96861 0.0
H891 H 0.85538 0.1179 0.99488 0.0
C892 C 0.98389 0.17867 0.94809 0.0
C893 C 0.0038 0.20373 0.95983 0.0
C894 C 0.95755 0.16165 0.95806 0.0
C895 C 0.9509 0.16961 0.97978 0.0
C896 C 0.97016 0.19553 0.99055 0.0
C897 C 0.99626 0.21237 0.98071 0.0
C898 C 0.90842 0.12555 0.03034 0.0
C899 C 0.881 0.11713 0.02343 0.0
C900 C 0.93065 0.14165 0.01561 0.0
C901 C 0.92623 0.14969 0.99341 0.0
C902 C 0.89882 0.14028 0.98572 0.0
C903 C 0.87627 0.12414 0.00072 0.0
H904 H 0.8933 0.79226 0.02324 0.0
H905 H 0.87217 0.71759 0.98103 0.0
H906 H 0.86703 0.80402 0.99622 0.0
H907 H 0.84579 0.72954 0.95355 0.0
H908 H 0.76358 0.73484 0.94792 0.0
H909 H 0.80137 0.72748 0.95952 0.0
H910 H 0.8589 0.81726 0.95722 0.0
H911 H 0.82061 0.82457 0.94569 0.0
C912 C 0.88356 0.77868 0.00781 0.0
C913 C 0.88449 0.75377 0.00446 0.0
C914 C 0.86867 0.7856 0.99213 0.0
C915 C 0.85407 0.76766 0.97274 0.0
C916 C 0.85658 0.74369 0.96844 0.0
C917 C 0.87179 0.73689 0.9841 0.0
C918 C 0.78448 0.75293 0.94912 0.0
C919 C 0.78912 0.7803 0.94615 0.0
C920 C 0.80623 0.74871 0.95566 0.0
C921 C 0.83317 0.7718 0.95966 0.0
C922 C 0.83831 0.79904 0.95459 0.0
C923 C 0.81647 0.80324 0.94776 0.0
H924 H 0.02455 0.25974 0.55101 0.0
H925 H 0.99046 0.16973 0.54698 0.0
H926 H 0.0694 0.26741 0.53819 0.0
H927 H 0.03577 0.17729 0.53434 0.0
H928 H 0.09493 0.20542 0.46884 0.0
H929 H 0.05702 0.19311 0.496 0.0
H930 H 0.11137 0.26455 0.54127 0.0
H931 H 0.14963 0.27714 0.51357 0.0
C932 C 0.02703 0.24158 0.5483 0.0
C933 C 0.00397 0.21414 0.54982 0.0
C934 C 0.05283 0.24597 0.54097 0.0
C935 C 0.05618 0.22299 0.53477 0.0
C936 C 0.03379 0.19549 0.53859 0.0
C937 C 0.00791 0.1911 0.54613 0.0
C938 C 0.09901 0.21831 0.48477 0.0
C939 C 0.12523 0.24252 0.48886 0.0
C940 C 0.07726 0.21102 0.50056 0.0
C941 C 0.08098 0.22783 0.52088 0.0
C942 C 0.10769 0.25124 0.52568 0.0
C943 C 0.12964 0.25844 0.50988 0.0
H944 H 0.83517 0.83661 0.56766 0.0
H945 H 0.7728 0.76858 0.52392 0.0
H946 H 0.81752 0.86726 0.55479 0.0
H947 H 0.75474 0.79868 0.51175 0.0
H948 H 0.71839 0.85472 0.50293 0.0
H949 H 0.73255 0.82854 0.52871 0.0
H950 H 0.81831 0.88428 0.51035 0.0
H951 H 0.80405 0.90967 0.48413 0.0
C952 C 0.81735 0.82808 0.55574 0.0
C953 C 0.80555 0.80042 0.54651 0.0
C954 C 0.80727 0.84555 0.54842 0.0
C955 C 0.78469 0.83526 0.53238 0.0
C956 C 0.77194 0.80706 0.52433 0.0
C957 C 0.78246 0.78994 0.53111 0.0
C958 C 0.74031 0.86193 0.50515 0.0
C959 C 0.76019 0.88421 0.49171 0.0
C960 C 0.74839 0.84689 0.51973 0.0
C961 C 0.77653 0.85441 0.52148 0.0
C962 C 0.79655 0.87821 0.50954 0.0
C963 C 0.78841 0.89271 0.49454 0.0
H964 H 0.22437 0.98835 0.52172 0.0
H965 H 0.15928 0.98134 0.5675 0.0
H966 H 0.19563 0.93858 0.51016 0.0
H967 H 0.12992 0.93144 0.55512 0.0
H968 H 0.08796 0.86874 0.48327 0.0
H969 H 0.11252 0.91237 0.50724 0.0
H970 H 0.16884 0.88659 0.53319 0.0
H971 H 0.14384 0.84254 0.50983 0.0
C972 C 0.20399 0.97601 0.52947 0.0
C973 C 0.1939 0.98854 0.54539 0.0
C974 C 0.18768 0.94758 0.52298 0.0
C975 C 0.16072 0.93135 0.53185 0.0
C976 C 0.15076 0.94363 0.54821 0.0
C977 C 0.16748 0.97201 0.55526 0.0
C978 C 0.10508 0.87204 0.49463 0.0
C979 C 0.11416 0.85244 0.49459 0.0
C980 C 0.11898 0.89687 0.5084 0.0
C981 C 0.14248 0.90266 0.52194 0.0
C982 C 0.15066 0.8824 0.52292 0.0
C983 C 0.13636 0.85727 0.50958 0.0
H984 H 0.78248 0.89505 0.9613 0.0
H985 H 0.73237 0.84971 0.02098 0.0
H986 H 0.80317 0.9388 0.98474 0.0
H987 H 0.75221 0.89355 0.04411 0.0
H988 H 0.80754 0.9718 0.08761 0.0
H989 H 0.7927 0.9288 0.06402 0.0
H990 H 0.79298 0.97222 0.00096 0.0
H991 H 0.80883 0.0153 0.02427 0.0
C992 C 0.77566 0.89443 0.97935 0.0
C993 C 0.75569 0.8688 0.98921 0.0
C994 C 0.78749 0.91959 0.99281 0.0
C995 C 0.77947 0.91985 0.01642 0.0
C996 C 0.75939 0.89419 0.0262 0.0
C997 C 0.74778 0.86901 0.01282 0.0
C998 C 0.80483 0.97228 0.06866 0.0
C999 C 0.80928 0.99706 0.05793 0.0
C1000 C 0.79605 0.94751 0.05513 0.0
C1001 C 0.79124 0.9468 0.03055 0.0
C1002 C 0.79671 0.9719 0.01974 0.0
C1003 C 0.80574 0.99669 0.03321 0.0
H1004 H 0.12222 0.83971 0.97935 0.0
H1005 H 0.11488 0.91087 0.00255 0.0
H1006 H 0.08194 0.80857 0.00374 0.0
H1007 H 0.07549 0.88019 0.02721 0.0
H1008 H 0.01798 0.81687 0.08306 0.0
H1009 H 0.06257 0.84622 0.06344 0.0
H1010 H 0.02926 0.79624 0.9991 0.0
H1011 H 0.9847 0.76736 0.01833 0.0
C1012 C 0.11246 0.84873 0.99011 0.0
C1013 C 0.12152 0.87759 0.98908 0.0
C1014 C 0.08939 0.83099 0.00391 0.0
C1015 C 0.07563 0.84204 0.01732 0.0
C1016 C 0.08579 0.87115 0.01721 0.0
C1017 C 0.10825 0.88865 0.00304 0.0
C1018 C 0.02018 0.81219 0.06473 0.0
C1019 C 0.99767 0.78997 0.05221 0.0
C1020 C 0.0457 0.8289 0.05355 0.0
C1021 C 0.0494 0.82328 0.02984 0.0
C1022 C 0.0271 0.80079 0.01748 0.0
C1023 C 1.00147 0.78451 0.02845 0.0
H1024 H 0.11147 0.20538 0.97799 0.0
H1025 H 0.16569 0.29491 0.96935 0.0
H1026 H 0.14889 0.20262 0.9974 0.0
H1027 H 0.2036 0.2921 0.98894 0.0
H1028 H 0.26811 0.26023 0.98949 0.0
H1029 H 0.23192 0.27005 0.97768 0.0
H1030 H 0.17941 0.21721 0.03329 0.0
H1031 H 0.21582 0.20727 0.04519 0.0
C1032 C 0.13138 0.22459 0.98042 0.0
C1033 C 0.13565 0.25036 0.97194 0.0
C1034 C 0.1528 0.22302 0.99179 0.0
C1035 C 0.17926 0.24712 0.9948 0.0
C1036 C 0.18345 0.27311 0.98681 0.0
C1037 C 0.16177 0.27476 0.97566 0.0
C1038 C 0.24901 0.25098 0.99947 0.0
C1039 C 0.24479 0.2327 0.01817 0.0
C1040 C 0.22832 0.25683 0.99278 0.0
C1041 C 0.20268 0.24432 0.00442 0.0
C1042 C 0.19887 0.227 0.02381 0.0
C1043 C 0.21977 0.22142 0.03073 0.0
H1044 H 0.86608 0.69878 0.53069 0.0
H1045 H 0.90357 0.78816 0.5197 0.0
H1046 H 0.90625 0.69964 0.51176 0.0
H1047 H 0.94314 0.789 0.50088 0.0
H1048 H 0.00604 0.78202 0.45664 0.0
H1049 H 0.95915 0.7723 0.46618 0.0
H1050 H 0.95649 0.72175 0.52474 0.0
H1051 H 0.00308 0.7314 0.5153 0.0
C1052 C 0.88258 0.71842 0.52385 0.0
C1053 C 0.88179 0.74342 0.52686 0.0
C1054 C 0.9056 0.71897 0.51311 0.0
C1055 C 0.9279 0.74442 0.50479 0.0
C1056 C 0.92625 0.769 0.50679 0.0
C1057 C 0.90362 0.76854 0.51779 0.0
C1058 C 0.9952 0.76836 0.47123 0.0
C1059 C 0.00845 0.75778 0.48537 0.0
C1060 C 0.9684 0.76288 0.47676 0.0
C1061 C 0.95413 0.74636 0.49632 0.0
C1062 C 0.96674 0.73434 0.50947 0.0
C1063 C 0.99359 0.74012 0.50416 0.0
H1064 H 0.18532 0.20973 0.483 0.0
H1065 H 0.21883 0.19013 0.42125 0.0
H1066 H 0.19838 0.1823 0.50717 0.0
H1067 H 0.23145 0.16188 0.44572 0.0
H1068 H 0.27288 0.13563 0.50481 0.0
H1069 H 0.26336 0.1657 0.47935 0.0
H1070 H 0.18278 0.13294 0.51143 0.0
H1071 H 0.19229 0.10382 0.53672 0.0
C1072 C 0.19527 0.19937 0.47446 0.0
C1073 C 0.20078 0.20205 0.45004 0.0
C1074 C 0.20275 0.18356 0.4884 0.0
C1075 C 0.2159 0.16979 0.47839 0.0
C1076 C 0.22158 0.17245 0.454 0.0
C1077 C 0.21403 0.18835 0.43995 0.0
C1078 C 0.2533 0.13516 0.50649 0.0
C1079 C 0.23343 0.11743 0.52287 0.0
C1080 C 0.24774 0.15214 0.4918 0.0
C1081 C 0.22233 0.1518 0.49343 0.0
C1082 C 0.20271 0.13412 0.50992 0.0
C1083 C 0.20818 0.11726 0.52439 0.0
H1084 H 0.80846 0.9767 0.47465 0.0
H1085 H 0.80923 0.02123 0.41225 0.0
H1086 H 0.8372 0.02145 0.49572 0.0
H1087 H 0.83683 0.066 0.43359 0.0
H1088 H 0.90332 0.14395 0.47279 0.0
H1089 H 0.8795 0.09925 0.45075 0.0
H1090 H 0.83326 0.05806 0.51339 0.0
H1091 H 0.85809 0.10251 0.53564 0.0
C1092 C 0.81488 0.99609 0.46539 0.0
C1093 C 0.80651 0.9954 0.44178 0.0
C1094 C 0.83114 0.0218 0.47756 0.0
C1095 C 0.83909 0.04751 0.46656 0.0
C1096 C 0.83146 0.04676 0.44265 0.0
C1097 C 0.81555 0.02103 0.43036 0.0
C1098 C 0.88803 0.12534 0.48185 0.0
C1099 C 0.8826 0.12683 0.50599 0.0
C1100 C 0.87426 0.09965 0.46916 0.0
C1101 C 0.85439 0.07484 0.4802 0.0
C1102 C 0.84883 0.07648 0.50434 0.0
C1103 C 0.86291 0.10208 0.5171 0.0
H1104 H 0.95759 0.47958 0.31881 0.0
H1105 H 0.88178 0.45104 0.35804 0.0
H1106 H 0.93607 0.43455 0.29677 0.0
H1107 H 0.86019 0.40624 0.33562 0.0
H1108 H 0.82724 0.33367 0.27879 0.0
H1109 H 0.8473 0.38369 0.29066 0.0
H1110 H 0.92066 0.38516 0.31725 0.0
H1111 H 0.90025 0.33527 0.30625 0.0
C1112 C 0.93613 0.46399 0.32231 0.0
C1113 C 0.92145 0.46863 0.34034 0.0
C1114 C 0.92388 0.43828 0.3097 0.0
C1115 C 0.89657 0.41703 0.31459 0.0
C1116 C 0.88121 0.42242 0.33142 0.0
C1117 C 0.89362 0.44795 0.34432 0.0
C1118 C 0.84784 0.34498 0.28679 0.0
C1119 C 0.86231 0.33092 0.29173 0.0
C1120 C 0.85921 0.3734 0.29361 0.0
C1121 C 0.88552 0.38816 0.30473 0.0
C1122 C 0.90047 0.37431 0.30848 0.0
C1123 C 0.8888 0.34582 0.30232 0.0
H1124 H 0.58084 0.45017 0.37737 0.0
H1125 H 0.52624 0.45913 0.32851 0.0
H1126 H 0.61991 0.47723 0.35172 0.0
H1127 H 0.56623 0.48655 0.30234 0.0
H1128 H 0.65771 0.50936 0.26224 0.0
H1129 H 0.61156 0.47938 0.27978 0.0
H1130 H 0.6379 0.53364 0.34218 0.0
H1131 H 0.68339 0.56324 0.32504 0.0
C1132 C 0.57704 0.4576 0.36095 0.0
C1133 C 0.55044 0.45285 0.35518 0.0
C1134 C 0.5995 0.47307 0.34625 0.0
C1135 C 0.59609 0.48416 0.32525 0.0
C1136 C 0.56928 0.47812 0.31849 0.0
C1137 C 0.5465 0.46251 0.33343 0.0
C1138 C 0.65339 0.51505 0.27953 0.0
C1139 C 0.67434 0.53834 0.29246 0.0
C1140 C 0.627 0.49804 0.28944 0.0
C1141 C 0.62137 0.50422 0.31234 0.0
C1142 C 0.64182 0.52838 0.32455 0.0
C1143 C 0.66793 0.54522 0.31475 0.0
H1144 H 0.53796 0.0524 0.31818 0.0
H1145 H 0.55508 0.12352 0.36373 0.0
H1146 H 0.51374 0.06639 0.29012 0.0
H1147 H 0.53089 0.13723 0.33619 0.0
H1148 H 0.48969 0.16276 0.28507 0.0
H1149 H 0.5267 0.15413 0.29794 0.0
H1150 H 0.46923 0.0643 0.2925 0.0
H1151 H 0.43277 0.07305 0.27947 0.0
C1152 C 0.53705 0.07129 0.32197 0.0
C1153 C 0.54811 0.08662 0.34332 0.0
C1154 C 0.52309 0.07928 0.30596 0.0
C1155 C 0.52019 0.10291 0.31088 0.0
C1156 C 0.53293 0.11916 0.33154 0.0
C1157 C 0.54659 0.11108 0.34754 0.0
C1158 C 0.48543 0.14125 0.28559 0.0
C1159 C 0.45836 0.11858 0.2814 0.0
C1160 C 0.50649 0.13624 0.29327 0.0
C1161 C 0.50084 0.10848 0.29675 0.0
C1162 C 0.4745 0.08592 0.29 0.0
C1163 C 0.45351 0.09093 0.28254 0.0
H1164 H 0.65648 0.4988 0.88176 0.0
H1165 H 0.68848 0.5884 0.88715 0.0
H1166 H 0.70252 0.50783 0.86982 0.0
H1167 H 0.73401 0.59754 0.87497 0.0
H1168 H 0.81528 0.61069 0.85094 0.0
H1169 H 0.77644 0.59614 0.87829 0.0
H1170 H 0.72464 0.52464 0.8321 0.0
H1171 H 0.76322 0.53882 0.80531 0.0
C1172 C 0.67361 0.52037 0.88135 0.0
C1173 C 0.6689 0.5429 0.8852 0.0
C1174 C 0.69991 0.5256 0.8742 0.0
C1175 C 0.72192 0.55345 0.87093 0.0
C1176 C 0.71776 0.57586 0.87733 0.0
C1177 C 0.69156 0.57063 0.88428 0.0
C1178 C 0.79575 0.59154 0.84697 0.0
C1179 C 0.79222 0.57616 0.82579 0.0
C1180 C 0.77345 0.58323 0.86258 0.0
C1181 C 0.74725 0.55928 0.85738 0.0
C1182 C 0.74447 0.54297 0.83694 0.0
C1183 C 0.76661 0.55132 0.82137 0.0
H1184 H 0.46581 0.24063 0.8157 0.0
H1185 H 0.37951 0.17854 0.82588 0.0
H1186 H 0.47978 0.21404 0.84087 0.0
H1187 H 0.39347 0.15127 0.85047 0.0
H1188 H 0.44142 0.09841 0.84581 0.0
H1189 H 0.42245 0.12748 0.8328 0.0
H1190 H 0.47352 0.19169 0.88493 0.0
H1191 H 0.49195 0.16204 0.89857 0.0
C1192 C 0.44987 0.22177 0.82405 0.0
C1193 C 0.42164 0.21174 0.81921 0.0
C1194 C 0.45783 0.20656 0.83839 0.0
C1195 C 0.43769 0.18061 0.84753 0.0
C1196 C 0.40936 0.17129 0.84368 0.0
C1197 C 0.40138 0.18694 0.82981 0.0
C1198 C 0.44832 0.11856 0.85471 0.0
C1199 C 0.4683 0.12812 0.87305 0.0
C1200 C 0.43728 0.13506 0.84742 0.0
C1201 C 0.44645 0.16174 0.85795 0.0
C1202 C 0.46604 0.17112 0.87663 0.0
C1203 C 0.47656 0.15422 0.88438 0.0
H1204 H 0.83092 0.32153 0.90028 0.0
H1205 H 0.89597 0.33031 0.85354 0.0
H1206 H 0.80178 0.27191 0.88705 0.0
H1207 H 0.86743 0.28079 0.84111 0.0
H1208 H 0.81648 0.18448 0.8404 0.0
H1209 H 0.84109 0.22824 0.86419 0.0
H1210 H 0.78453 0.25384 0.83849 0.0
H1211 H 0.76035 0.2105 0.81411 0.0
C1212 C 0.83913 0.31266 0.88759 0.0
C1213 C 0.86549 0.3296 0.87774 0.0
C1214 C 0.82254 0.28444 0.88007 0.0
C1215 C 0.83259 0.27274 0.86325 0.0
C1216 C 0.85944 0.28938 0.85429 0.0
C1217 C 0.87562 0.31766 0.86126 0.0
C1218 C 0.80888 0.19911 0.84029 0.0
C1219 C 0.78674 0.19434 0.82525 0.0
C1220 C 0.82294 0.22406 0.85387 0.0
C1221 C 0.81457 0.24418 0.85308 0.0
C1222 C 0.79113 0.23843 0.83948 0.0
C1223 C 0.77745 0.21379 0.82548 0.0
H1224 H 0.4021 0.18806 0.35822 0.0
H1225 H 0.45336 0.23204 0.29865 0.0
H1226 H 0.42271 0.23218 0.38109 0.0
H1227 H 0.4749 0.27594 0.32182 0.0
H1228 H 0.48161 0.35361 0.35938 0.0
H1229 H 0.4655 0.31005 0.33691 0.0
H1230 H 0.46287 0.26744 0.40122 0.0
H1231 H 0.4779 0.31107 0.42402 0.0
C1232 C 0.41794 0.20712 0.35005 0.0
C1233 C 0.42588 0.20651 0.32652 0.0
C1234 C 0.43 0.23244 0.36327 0.0
C1235 C 0.4506 0.25778 0.35341 0.0
C1236 C 0.45878 0.25703 0.32994 0.0
C1237 C 0.44645 0.23178 0.31662 0.0
C1238 C 0.47795 0.3351 0.3688 0.0
C1239 C 0.48087 0.33591 0.39362 0.0
C1240 C 0.46879 0.30999 0.35581 0.0
C1241 C 0.46259 0.28499 0.36718 0.0
C1242 C 0.46681 0.28609 0.39189 0.0
C1243 C 0.47572 0.31121 0.40496 0.0
H1244 H 0.68776 0.11411 0.41112 0.0
H1245 H 0.64177 0.13411 0.36147 0.0
H1246 H 0.72957 0.13987 0.38744 0.0
H1247 H 0.68361 0.16127 0.33862 0.0
H1248 H 0.75134 0.18469 0.28761 0.0
H1249 H 0.71164 0.15546 0.31222 0.0
H1250 H 0.76578 0.18269 0.37406 0.0
H1251 H 0.80582 0.2104 0.34873 0.0
C1252 C 0.68679 0.12459 0.39542 0.0
C1253 C 0.66147 0.12199 0.38808 0.0
C1254 C 0.71078 0.1394 0.3818 0.0
C1255 C 0.71009 0.15235 0.36073 0.0
C1256 C 0.68494 0.1508 0.35417 0.0
C1257 C 0.66092 0.13552 0.36746 0.0
C1258 C 0.75474 0.18377 0.3064 0.0
C1259 C 0.78152 0.19955 0.31631 0.0
C1260 C 0.73193 0.16742 0.32065 0.0
C1261 C 0.73515 0.1672 0.34539 0.0
C1262 C 0.76232 0.18212 0.35514 0.0
C1263 C 0.78534 0.19797 0.34067 0.0
H1264 H 0.88745 0.54227 0.37146 0.0
H1265 H 0.93697 0.59183 0.31317 0.0
H1266 H 0.85142 0.55349 0.36106 0.0
H1267 H 0.90131 0.60313 0.30296 0.0
H1268 H 0.83645 0.63038 0.29756 0.0
H1269 H 0.8746 0.62715 0.31624 0.0
H1270 H 0.81946 0.53782 0.3251 0.0
H1271 H 0.78184 0.54095 0.30641 0.0
C1272 C 0.89093 0.55606 0.35681 0.0
C1273 C 0.91491 0.56592 0.343 0.0
C1274 C 0.87027 0.56237 0.35077 0.0
C1275 C 0.87347 0.5791 0.3311 0.0
C1276 C 0.89827 0.59039 0.31829 0.0
C1277 C 0.91862 0.58371 0.32406 0.0
C1278 C 0.83251 0.61018 0.30374 0.0
C1279 C 0.80624 0.5859 0.3003 0.0
C1280 C 0.8543 0.6083 0.31439 0.0
C1281 C 0.85 0.58222 0.32223 0.0
C1282 C 0.8234 0.55827 0.31957 0.0
C1283 C 0.8019 0.56005 0.30862 0.0
H1284 H 0.57479 0.12589 0.8561 0.0
H1285 H 0.53848 0.0358 0.86154 0.0
H1286 H 0.61598 0.12932 0.83803 0.0
H1287 H 0.58027 0.03934 0.84356 0.0
H1288 H 0.6775 0.07248 0.84724 0.0
H1289 H 0.63091 0.06216 0.85779 0.0
H1290 H 0.63231 0.11463 0.80135 0.0
H1291 H 0.67907 0.12485 0.79059 0.0
C1292 C 0.57553 0.10673 0.85327 0.0
C1293 C 0.55342 0.08057 0.86039 0.0
C1294 C 0.59908 0.1087 0.84271 0.0
C1295 C 0.6014 0.08462 0.83929 0.0
C1296 C 0.57909 0.05829 0.84601 0.0
C1297 C 0.55517 0.05624 0.85624 0.0
C1298 C 0.66773 0.08149 0.83681 0.0
C1299 C 0.68212 0.0997 0.81818 0.0
C1300 C 0.64092 0.07539 0.84277 0.0
C1301 C 0.62796 0.08767 0.83049 0.0
C1302 C 0.64186 0.10498 0.81124 0.0
C1303 C 0.66856 0.11073 0.805 0.0
H1304 H 0.86836 0.44935 0.87511 0.0
H1305 H 0.94654 0.47618 0.84028 0.0
H1306 H 0.8599 0.47968 0.85041 0.0
H1307 H 0.93813 0.50746 0.81537 0.0
H1308 H 0.89179 0.53227 0.75853 0.0
H1309 H 0.90512 0.50442 0.78283 0.0
H1310 H 0.87776 0.52943 0.84542 0.0
H1311 H 0.864 0.55644 0.82148 0.0
C1312 C 0.88397 0.46199 0.86228 0.0
C1313 C 0.90819 0.46036 0.85973 0.0
C1314 C 0.87913 0.47956 0.84815 0.0
C1315 C 0.89837 0.49615 0.83096 0.0
C1316 C 0.92282 0.4948 0.82838 0.0
C1317 C 0.92778 0.47714 0.84277 0.0
C1318 C 0.88854 0.53172 0.77746 0.0
C1319 C 0.87644 0.54638 0.78792 0.0
C1320 C 0.89646 0.516 0.79141 0.0
C1321 C 0.89236 0.51456 0.81605 0.0
C1322 C 0.8808 0.52967 0.82645 0.0
C1323 C 0.8729 0.54524 0.81263 0.0
H1324 H 0.57056 0.47257 0.80628 0.0
H1325 H 0.52376 0.42954 0.86803 0.0
H1326 H 0.54722 0.42843 0.78343 0.0
H1327 H 0.49938 0.38566 0.84497 0.0
H1328 H 0.47343 0.30518 0.80455 0.0
H1329 H 0.50275 0.3491 0.82658 0.0
H1330 H 0.50489 0.39622 0.7654 0.0
H1331 H 0.47676 0.35232 0.74313 0.0
C1332 C 0.55505 0.45372 0.81492 0.0
C1333 C 0.54897 0.45462 0.83898 0.0
C1334 C 0.54155 0.42835 0.80177 0.0
C1335 C 0.5213 0.40328 0.81223 0.0
C1336 C 0.51523 0.40429 0.83633 0.0
C1337 C 0.52904 0.42956 0.84957 0.0
C1338 C 0.48056 0.32496 0.79571 0.0
C1339 C 0.4727 0.32524 0.77209 0.0
C1340 C 0.49716 0.3502 0.80842 0.0
C1341 C 0.50594 0.3764 0.79798 0.0
C1342 C 0.49889 0.37659 0.77405 0.0
C1343 C 0.48265 0.35134 0.76122 0.0
H1344 H 0.50586 0.6781 0.60222 0.0
H1345 H 0.5623 0.6704 0.64964 0.0
H1346 H 0.52785 0.72858 0.61322 0.0
H1347 H 0.58481 0.72069 0.6598 0.0
H1348 H 0.63176 0.81671 0.65757 0.0
H1349 H 0.61136 0.77208 0.63481 0.0
H1350 H 0.53017 0.74914 0.6612 0.0
H1351 H 0.55057 0.79327 0.68457 0.0
C1352 C 0.5233 0.68738 0.61456 0.0
C1353 C 0.53231 0.67056 0.62532 0.0
C1354 C 0.53581 0.71608 0.62079 0.0
C1355 C 0.55805 0.72832 0.63717 0.0
C1356 C 0.56787 0.7117 0.64694 0.0
C1357 C 0.55489 0.68299 0.64129 0.0
C1358 C 0.60946 0.80248 0.65799 0.0
C1359 C 0.59272 0.80819 0.67297 0.0
C1360 C 0.59786 0.77704 0.645 0.0
C1361 C 0.56929 0.75742 0.64632 0.0
C1362 C 0.55222 0.76415 0.65978 0.0
C1363 C 0.5639 0.78925 0.6732 0.0
H1364 H 0.19083 0.7959 0.66144 0.0
H1365 H 0.23995 0.77732 0.70898 0.0
H1366 H 0.23196 0.8221 0.6363 0.0
H1367 H 0.28036 0.80332 0.68419 0.0
H1368 H 0.34692 0.89311 0.66178 0.0
H1369 H 0.30099 0.86251 0.67766 0.0
H1370 H 0.27653 0.81169 0.6133 0.0
H1371 H 0.32328 0.84256 0.59706 0.0
C1372 C 0.2101 0.79682 0.66621 0.0
C1373 C 0.21225 0.7849 0.68737 0.0
C1374 C 0.23352 0.81171 0.65183 0.0
C1375 C 0.25921 0.81473 0.65848 0.0
C1376 C 0.26077 0.80131 0.67876 0.0
C1377 C 0.2376 0.78652 0.69298 0.0
C1378 C 0.33183 0.87562 0.65079 0.0
C1379 C 0.3389 0.87005 0.62825 0.0
C1380 C 0.30548 0.85817 0.65991 0.0
C1381 C 0.2854 0.83479 0.64672 0.0
C1382 C 0.29176 0.82974 0.62371 0.0
C1383 C 0.31844 0.84728 0.61452 0.0
H1384 H 0.19834 0.38351 0.6501 0.0
H1385 H 0.21712 0.45479 0.69611 0.0
H1386 H 0.17427 0.39826 0.62252 0.0
H1387 H 0.19318 0.46927 0.66902 0.0
H1388 H 0.15334 0.49659 0.61768 0.0
H1389 H 0.18949 0.4867 0.63068 0.0
H1390 H 0.13013 0.39729 0.62568 0.0
H1391 H 0.09451 0.40726 0.61258 0.0
C1392 C 0.19781 0.40258 0.65409 0.0
C1393 C 0.20929 0.41775 0.67543 0.0
C1394 C 0.18396 0.411 0.63835 0.0
C1395 C 0.18166 0.43495 0.64354 0.0
C1396 C 0.19476 0.45098 0.66419 0.0
C1397 C 0.20827 0.44245 0.67992 0.0
C1398 C 0.14845 0.47488 0.61841 0.0
C1399 C 0.12111 0.4527 0.61429 0.0
C1400 C 0.16902 0.46916 0.62613 0.0
C1401 C 0.16262 0.44117 0.62965 0.0
C1402 C 0.13596 0.41906 0.62311 0.0
C1403 C 0.11545 0.42478 0.61565 0.0
H1404 H 0.32291 0.83656 0.21681 0.0
H1405 H 0.35468 0.9261 0.22267 0.0
H1406 H 0.36876 0.84582 0.20403 0.0
H1407 H 0.40003 0.93546 0.20963 0.0
H1408 H 0.48099 0.94843 0.18364 0.0
H1409 H 0.44278 0.93418 0.21172 0.0
H1410 H 0.38959 0.86281 0.16592 0.0
H1411 H 0.42743 0.87672 0.13843 0.0
C1412 C 0.33997 0.85817 0.21633 0.0
C1413 C 0.33522 0.88061 0.22054 0.0
C1414 C 0.36616 0.86354 0.20871 0.0
C1415 C 0.38801 0.89143 0.20529 0.0
C1416 C 0.38389 0.91375 0.21208 0.0
C1417 C 0.35779 0.90839 0.21952 0.0
C1418 C 0.46127 0.92941 0.1799 0.0
C1419 C 0.45713 0.91396 0.15865 0.0
C1420 C 0.43935 0.92126 0.19593 0.0
C1421 C 0.41297 0.89735 0.19111 0.0
C1422 C 0.40957 0.88107 0.17051 0.0
C1423 C 0.43129 0.88929 0.15452 0.0
H1424 H 0.16178 0.49838 0.23594 0.0
H1425 H 0.10191 0.43198 0.1894 0.0
H1426 H 0.14542 0.52979 0.22225 0.0
H1427 H 0.08493 0.46285 0.17654 0.0
H1428 H 0.05034 0.5227 0.17073 0.0
H1429 H 0.0633 0.4955 0.19649 0.0
H1430 H 0.14841 0.54489 0.17396 0.0
H1431 H 0.1353 0.57115 0.1476 0.0
C1432 C 0.14466 0.49032 0.2233 0.0
C1433 C 0.13322 0.46293 0.21353 0.0
C1434 C 0.13534 0.50821 0.21553 0.0
C1435 C 0.11383 0.49857 0.19851 0.0
C1436 C 0.10131 0.47063 0.18988 0.0
C1437 C 0.11115 0.45308 0.19709 0.0
C1438 C 0.07194 0.52826 0.17191 0.0
C1439 C 0.09188 0.54894 0.15728 0.0
C1440 C 0.07929 0.51269 0.18652 0.0
C1441 C 0.10684 0.51826 0.18719 0.0
C1442 C 0.12713 0.54044 0.17393 0.0
C1443 C 0.11963 0.55538 0.15885 0.0
H1444 H 0.50007 0.67864 0.1806 0.0
H1445 H 0.53372 0.64614 0.23149 0.0
H1446 H 0.46989 0.63131 0.16447 0.0
H1447 H 0.506 0.59907 0.21383 0.0
H1448 H 0.44789 0.5133 0.18115 0.0
H1449 H 0.46635 0.55742 0.20426 0.0
H1450 H 0.47478 0.60185 0.13947 0.0
H1451 H 0.45443 0.55787 0.11725 0.0
C1452 C 0.50092 0.66119 0.18829 0.0
C1453 C 0.51935 0.66591 0.20701 0.0
C1454 C 0.48394 0.63405 0.17886 0.0
C1455 C 0.48604 0.61119 0.18716 0.0
C1456 C 0.50354 0.61588 0.20688 0.0
C1457 C 0.51971 0.64297 0.21695 0.0
C1458 C 0.45339 0.5326 0.17211 0.0
C1459 C 0.4497 0.53227 0.1475 0.0
C1460 C 0.46416 0.55795 0.18527 0.0
C1461 C 0.47212 0.58353 0.17392 0.0
C1462 C 0.46819 0.58278 0.1492 0.0
C1463 C 0.45675 0.55747 0.13628 0.0
H1464 H 0.13312 0.68707 0.68957 0.0
H1465 H 0.1261 0.64389 0.7546 0.0
H1466 H 0.11865 0.64377 0.66702 0.0
H1467 H 0.11267 0.6006 0.73183 0.0
H1468 H 0.0581 0.52118 0.68655 0.0
H1469 H 0.07485 0.56475 0.70965 0.0
H1470 H 0.13129 0.61128 0.65348 0.0
H1471 H 0.11369 0.56785 0.63001 0.0
C1472 C 0.12892 0.66843 0.69909 0.0
C1473 C 0.13069 0.66903 0.72398 0.0
C1474 C 0.12073 0.64352 0.68607 0.0
C1475 C 0.11438 0.61851 0.69751 0.0
C1476 C 0.11687 0.61927 0.72239 0.0
C1477 C 0.12479 0.64418 0.73547 0.0
C1478 C 0.07407 0.54071 0.67911 0.0
C1479 C 0.0844 0.54098 0.65633 0.0
C1480 C 0.08388 0.56574 0.69247 0.0
C1481 C 0.10451 0.59169 0.68353 0.0
C1482 C 0.11506 0.59185 0.66084 0.0
C1483 C 0.10501 0.56687 0.64737 0.0
H1484 H 0.30144 0.44802 0.6828 0.0
H1485 H 0.35232 0.46848 0.74618 0.0
H1486 H 0.34267 0.47569 0.65963 0.0
H1487 H 0.39396 0.49712 0.72272 0.0
H1488 H 0.46411 0.52394 0.66644 0.0
H1489 H 0.42363 0.49388 0.69093 0.0
H1490 H 0.37614 0.52451 0.65479 0.0
H1491 H 0.41568 0.55353 0.63036 0.0
C1492 C 0.3214 0.45866 0.69192 0.0
C1493 C 0.32339 0.45609 0.71649 0.0
C1494 C 0.34514 0.47464 0.67855 0.0
C1495 C 0.37167 0.48875 0.6893 0.0
C1496 C 0.37385 0.48628 0.71386 0.0
C1497 C 0.34994 0.47015 0.72734 0.0
C1498 C 0.44487 0.52391 0.66364 0.0
C1499 C 0.4431 0.54101 0.64636 0.0
C1500 C 0.42181 0.50695 0.67779 0.0
C1501 C 0.39659 0.50671 0.67478 0.0
C1502 C 0.395 0.52375 0.65739 0.0
C1503 C 0.41783 0.54055 0.64339 0.0
H1504 H 0.60275 0.92819 0.65054 0.0
H1505 H 0.55588 0.87985 0.71041 0.0
H1506 H 0.56643 0.93878 0.64131 0.0
H1507 H 0.51935 0.89062 0.70112 0.0
H1508 H 0.44702 0.87657 0.6496 0.0
H1509 H 0.48543 0.87436 0.66759 0.0
H1510 H 0.54038 0.96272 0.6541 0.0
H1511 H 0.50144 0.96494 0.63593 0.0
C1512 C 0.58484 0.92012 0.66196 0.0
C1513 C 0.58208 0.90284 0.68106 0.0
C1514 C 0.56412 0.92646 0.65677 0.0
C1515 C 0.53991 0.91547 0.67038 0.0
C1516 C 0.53768 0.89924 0.69016 0.0
C1517 C 0.55864 0.89315 0.69555 0.0
C1518 C 0.4672 0.89569 0.65073 0.0
C1519 C 0.47126 0.92089 0.64115 0.0
C1520 C 0.4892 0.89445 0.66127 0.0
C1521 C 0.51601 0.91833 0.6623 0.0
C1522 C 0.51996 0.9439 0.65347 0.0
C1523 C 0.4977 0.94523 0.64316 0.0
H1524 H 0.20287 0.37369 0.18774 0.0
H1525 H 0.24175 0.46409 0.19709 0.0
H1526 H 0.24594 0.38013 0.16959 0.0
H1527 H 0.28393 0.47024 0.17926 0.0
H1528 H 0.36221 0.46421 0.18776 0.0
H1529 H 0.31596 0.45363 0.19854 0.0
H1530 H 0.28316 0.40845 0.13208 0.0
H1531 H 0.33037 0.41931 0.12086 0.0
C1532 C 0.22032 0.39483 0.18563 0.0
C1533 C 0.21901 0.41832 0.19426 0.0
C1534 C 0.24485 0.39851 0.17514 0.0
C1535 C 0.26831 0.4257 0.17322 0.0
C1536 C 0.2663 0.44905 0.18072 0.0
C1537 C 0.24206 0.44544 0.19104 0.0
C1538 C 0.3453 0.45192 0.17532 0.0
C1539 C 0.35012 0.44263 0.15339 0.0
C1540 C 0.31873 0.44593 0.18154 0.0
C1541 C 0.29597 0.43025 0.16617 0.0
C1542 C 0.30039 0.42048 0.14429 0.0
C1543 C 0.32737 0.42689 0.13782 0.0
H1544 H 0.54787 0.85976 0.0922 0.0
H1545 H 0.52447 0.8894 0.15461 0.0
H1546 H 0.56202 0.83333 0.1174 0.0
H1547 H 0.53931 0.86404 0.17945 0.0
H1548 H 0.53475 0.7883 0.21424 0.0
H1549 H 0.52398 0.81673 0.18914 0.0
H1550 H 0.59661 0.8382 0.14724 0.0
H1551 H 0.60706 0.80867 0.17233 0.0
C1552 C 0.54567 0.86062 0.11121 0.0
C1553 C 0.53471 0.87653 0.12126 0.0
C1554 C 0.55409 0.84575 0.12567 0.0
C1555 C 0.55178 0.84649 0.15049 0.0
C1556 C 0.54099 0.86254 0.16043 0.0
C1557 C 0.53248 0.87719 0.14608 0.0
C1558 C 0.5487 0.79931 0.19987 0.0
C1559 C 0.57181 0.79623 0.19532 0.0
C1560 C 0.54255 0.81576 0.18546 0.0
C1561 C 0.55938 0.8298 0.16609 0.0
C1562 C 0.58301 0.82739 0.16184 0.0
C1563 C 0.58922 0.8108 0.17638 0.0
H1564 H 0.1901 0.76739 0.20562 0.0
H1565 H 0.23258 0.81051 0.14234 0.0
H1566 H 0.16462 0.72344 0.18282 0.0
H1567 H 0.20803 0.76629 0.11966 0.0
H1568 H 0.13586 0.68904 0.08178 0.0
H1569 H 0.16434 0.73334 0.10353 0.0
H1570 H 0.16824 0.68745 0.16329 0.0
H1571 H 0.1387 0.64315 0.14188 0.0
C1572 C 0.1942 0.76743 0.18686 0.0
C1573 C 0.2133 0.79252 0.17581 0.0
C1574 C 0.17973 0.74212 0.17377 0.0
C1575 C 0.18428 0.74112 0.14932 0.0
C1576 C 0.20359 0.76623 0.13833 0.0
C1577 C 0.21778 0.79163 0.15137 0.0
C1578 C 0.1431 0.68844 0.09945 0.0
C1579 C 0.13484 0.66255 0.11015 0.0
C1580 C 0.15954 0.7139 0.11195 0.0
C1581 C 0.16845 0.71412 0.13535 0.0
C1582 C 0.16122 0.68818 0.14558 0.0
C1583 C 0.14446 0.66274 0.13321 0.0
H1584 H 0.39657 0.28446 0.03417 0.0
H1585 H 0.3477 0.25659 0.09781 0.0
H1586 H 0.43251 0.32566 0.0561 0.0
H1587 H 0.38191 0.29798 0.11896 0.0
H1588 H 0.43156 0.37668 0.15421 0.0
H1589 H 0.42228 0.33156 0.13684 0.0
H1590 H 0.43389 0.36644 0.06685 0.0
H1591 H 0.44489 0.41115 0.08423 0.0
C1592 C 0.39358 0.28698 0.05281 0.0
C1593 C 0.36875 0.26787 0.06392 0.0
C1594 C 0.41412 0.31065 0.06544 0.0
C1595 C 0.40988 0.31591 0.08921 0.0
C1596 C 0.38629 0.29507 0.10079 0.0
C1597 C 0.36617 0.27135 0.08838 0.0
C1598 C 0.43316 0.3748 0.13521 0.0
C1599 C 0.43777 0.39693 0.12048 0.0
C1600 C 0.42757 0.3489 0.12516 0.0
C1601 C 0.42601 0.34474 0.10028 0.0
C1602 C 0.43453 0.3683 0.08598 0.0
C1603 C 0.44047 0.39407 0.09599 0.0
H1604 H 0.59764 0.00162 0.12718 0.0
H1605 H 0.60134 0.00361 0.05074 0.0
H1606 H 0.64828 0.03045 0.12932 0.0
H1607 H 0.65156 0.03062 0.05281 0.0
H1608 H 0.74475 0.07822 0.06132 0.0
H1609 H 0.69664 0.06853 0.06177 0.0
H1610 H 0.68003 0.01535 0.12218 0.0
H1611 H 0.72726 0.02554 0.12216 0.0
C1612 C 0.60914 0.0087 0.11087 0.0
C1613 C 0.59548 -0.00049 0.08883 0.0
C1614 C 0.63823 0.02497 0.11204 0.0
C1615 C 0.65415 0.03197 0.0912 0.0
C1616 C 0.64021 0.02556 0.06924 0.0
C1617 C 0.61124 0.00971 0.06809 0.0
C1618 C 0.73073 0.06462 0.0747 0.0
C1619 C 0.73992 0.05264 0.09161 0.0
C1620 C 0.70321 0.05911 0.07506 0.0
C1621 C 0.68438 0.04139 0.09222 0.0
C1622 C 0.6939 0.0298 0.10915 0.0
C1623 C 0.72115 0.0354 0.1089 0.0
H1624 H 0.91444 0.64954 0.11244 0.0
H1625 H 0.94437 0.67175 0.04109 0.0
H1626 H 0.93258 0.61753 0.11375 0.0
H1627 H 0.96309 0.64022 0.04252 0.0
H1628 H 0.01378 0.61207 0.119 0.0
H1629 H 0.97989 0.62763 0.11727 0.0
H1630 H 0.95739 0.59396 0.04564 0.0
H1631 H 0.99169 0.57904 0.04727 0.0
C1632 C 0.92438 0.64707 0.09682 0.0
C1633 C 0.92838 0.66342 0.07676 0.0
C1634 C 0.93492 0.62888 0.09765 0.0
C1635 C 0.9498 0.62674 0.07847 0.0
C1636 C 0.95161 0.64122 0.05761 0.0
C1637 C 0.94087 0.65932 0.05673 0.0
C1638 C 1.00104 0.60733 0.10317 0.0
C1639 C 0.00571 0.59486 0.08315 0.0
C1640 C 0.98155 0.61619 0.10213 0.0
C1641 C 0.96622 0.61245 0.08112 0.0
C1642 C 0.96929 0.59775 0.06186 0.0
C1643 C 0.98886 0.58912 0.06285 0.0
H1644 H 0.26531 0.33034 0.45766 0.0
H1645 H 0.27025 0.33005 0.38126 0.0
H1646 H 0.31573 0.36121 0.46023 0.0
H1647 H 0.32027 0.3591 0.38381 0.0
H1648 H 0.41299 0.41232 0.39288 0.0
H1649 H 0.36382 0.39913 0.3924 0.0
H1650 H 0.35026 0.34972 0.45488 0.0
H1651 H 0.39852 0.36346 0.45582 0.0
C1652 C 0.27702 0.33722 0.44143 0.0
C1653 C 0.2638 0.32696 0.41933 0.0
C1654 C 0.30599 0.3547 0.44285 0.0
C1655 C 0.32229 0.3619 0.42223 0.0
C1656 C 0.30865 0.35402 0.4001 0.0
C1657 C 0.27979 0.33697 0.39868 0.0
C1658 C 0.39942 0.39884 0.40654 0.0
C1659 C 0.40977 0.38895 0.4243 0.0
C1660 C 0.37126 0.39129 0.40634 0.0
C1661 C 0.35294 0.37351 0.42376 0.0
C1662 C 0.36363 0.36409 0.44158 0.0
C1663 C 0.39151 0.37177 0.4419 0.0
H1664 H 0.59494 0.98996 0.45081 0.0
H1665 H 0.59828 0.99666 0.37461 0.0
H1666 H 0.61724 0.9622 0.44889 0.0
H1667 H 0.61896 0.96677 0.37245 0.0
H1668 H 0.69852 0.96337 0.38115 0.0
H1669 H 0.66371 0.97685 0.38022 0.0
H1670 H 0.6234 0.92449 0.44037 0.0
H1671 H 0.65977 0.91198 0.44196 0.0
C1672 C 0.5997 0.98478 0.43348 0.0
C1673 C 0.59571 0.99643 0.41289 0.0
C1674 C 0.61231 0.96846 0.43238 0.0
C1675 C 0.62084 0.96283 0.41058 0.0
C1676 C 0.61371 0.97159 0.38969 0.0
C1677 C 0.60147 0.98843 0.39084 0.0
C1678 C 0.68215 0.95446 0.39415 0.0
C1679 C 0.68206 0.93668 0.41176 0.0
C1680 C 0.6618 0.96197 0.3934 0.0
C1681 C 0.64033 0.95165 0.41004 0.0
C1682 C 0.63975 0.93319 0.42738 0.0
C1683 C 0.66057 0.92598 0.42836 0.0
H1684 H 0.121 0.74704 0.41774 0.0
H1685 H 0.07576 0.69073 0.47419 0.0
H1686 H 0.11413 0.70722 0.39291 0.0
H1687 H 0.06745 0.65063 0.44912 0.0
H1688 H 0.04245 0.63226 0.34888 0.0
H1689 H 0.07366 0.67414 0.37244 0.0
H1690 H 0.07832 0.62159 0.42616 0.0
H1691 H 0.04579 0.57978 0.40296 0.0
C1692 C 0.11017 0.72608 0.425 0.0
C1693 C 0.09857 0.72172 0.44769 0.0
C1694 C 0.10605 0.70327 0.41073 0.0
C1695 C 0.08964 0.6756 0.4187 0.0
C1696 C 0.08038 0.67159 0.44234 0.0
C1697 C 0.08501 0.69454 0.45679 0.0
C1698 C 0.05115 0.62984 0.36523 0.0
C1699 C 0.04169 0.60304 0.3743 0.0
C1700 C 0.06909 0.65383 0.37885 0.0
C1701 C 0.07804 0.65126 0.40158 0.0
C1702 C 0.07123 0.62433 0.4091 0.0
C1703 C 0.05289 0.60041 0.39571 0.0
H1704 H 0.60052 0.59261 0.87343 0.0
H1705 H 0.62428 0.58841 0.94543 0.0
H1706 H 0.62466 0.64406 0.87729 0.0
H1707 H 0.64889 0.63953 0.94908 0.0
H1708 H 0.66998 0.73089 0.95526 0.0
H1709 H 0.64184 0.67944 0.95152 0.0
H1710 H 0.67198 0.68296 0.88042 0.0
H1711 H 0.69931 0.73403 0.88393 0.0
C1712 C 0.61091 0.60268 0.89002 0.0
C1713 C 0.61054 0.58654 0.90909 0.0
C1714 C 0.62482 0.63211 0.89223 0.0
C1715 C 0.63867 0.64588 0.91352 0.0
C1716 C 0.63806 0.62961 0.93259 0.0
C1717 C 0.62413 0.60028 0.93041 0.0
C1718 C 0.67043 0.72059 0.93884 0.0
C1719 C 0.6868 0.73642 0.91991 0.0
C1720 C 0.65444 0.69117 0.93671 0.0
C1721 C 0.65462 0.67712 0.91562 0.0
C1722 C 0.67096 0.69311 0.89672 0.0
C1723 C 0.68682 0.7224 0.89883 0.0
H1724 H 0.26807 0.96299 0.95494 0.0
H1725 H 0.25511 0.95231 0.87924 0.0
H1726 H 0.31757 0.97982 0.94952 0.0
H1727 H 0.30406 0.9678 0.87371 0.0
H1728 H 0.39384 0.04508 0.87413 0.0
H1729 H 0.34377 0.01346 0.87652 0.0
H1730 H 0.35593 0.97437 0.93751 0.0
H1731 H 0.40625 0.00688 0.93523 0.0
C1732 C 0.27567 0.96326 0.93723 0.0
C1733 C 0.25798 0.95672 0.9175 0.0
C1734 C 0.30402 0.97285 0.93405 0.0
C1735 C 0.31499 0.97571 0.91109 0.0
C1736 C 0.29655 0.96663 0.89158 0.0
C1737 C 0.26846 0.95755 0.89474 0.0
C1738 C 0.38578 0.02896 0.88743 0.0
C1739 C 0.40369 0.02792 0.90421 0.0
C1740 C 0.35706 0.0108 0.8889 0.0
C1741 C 0.34566 0.99132 0.90731 0.0
C1742 C 0.36392 0.98927 0.92329 0.0
C1743 C 0.39271 0.00754 0.9218 0.0
H1744 H 0.05676 0.31764 0.9501 0.0
H1745 H 0.02452 0.29027 0.87893 0.0
H1746 H 0.04107 0.35202 0.94954 0.0
H1747 H 0.00843 0.32369 0.87851 0.0
H1748 H 0.97942 0.38459 0.87975 0.0
H1749 H 0.01465 0.37036 0.87954 0.0
H1750 H 0.9943 0.34335 0.9518 0.0
H1751 H 0.96005 0.35796 0.95211 0.0
C1752 C 0.04696 0.31944 0.93418 0.0
C1753 C 0.04132 0.30087 0.91478 0.0
C1754 C 0.03783 0.33898 0.93386 0.0
C1755 C 0.02309 0.34037 0.91409 0.0
C1756 C 0.0198 0.32347 0.89398 0.0
C1757 C 0.02876 0.30398 0.89435 0.0
C1758 C 0.9831 0.3763 0.89572 0.0
C1759 C 0.96658 0.37183 0.91575 0.0
C1760 C 0.00315 0.36803 0.89561 0.0
C1761 C 0.00713 0.35538 0.91559 0.0
C1762 C 0.99211 0.35318 0.93617 0.0
C1763 C 0.97212 0.36124 0.93622 0.0
H1764 H 0.72846 0.74135 0.57372 0.0
H1765 H 0.74172 0.67178 0.58587 0.0
H1766 H 0.67913 0.71119 0.58116 0.0
H1767 H 0.6916 0.64113 0.59351 0.0
H1768 H 0.59078 0.60025 0.57835 0.0
H1769 H 0.64121 0.6212 0.5732 0.0
H1770 H 0.65568 0.69019 0.62042 0.0
H1771 H 0.60562 0.66949 0.6252 0.0
C1772 C 0.72065 0.71938 0.5776 0.0
C1773 C 0.73888 0.70893 0.57942 0.0
C1774 C 0.69246 0.70219 0.58209 0.0
C1775 C 0.68172 0.67408 0.58865 0.0
C1776 C 0.69947 0.66284 0.58874 0.0
C1777 C 0.728 0.68024 0.58418 0.0
C1778 C 0.60492 0.61916 0.58847 0.0
C1779 C 0.59455 0.63317 0.60241 0.0
C1780 C 0.63369 0.63124 0.58538 0.0
C1781 C 0.65225 0.65757 0.59603 0.0
C1782 C 0.64179 0.67008 0.61171 0.0
C1783 C 0.61321 0.65809 0.61474 0.0
H1784 H 0.30849 0.04621 0.54529 0.0
H1785 H 0.29149 0.02267 0.61852 0.0
H1786 H 0.34451 0.03309 0.54531 0.0
H1787 H 0.3265 0.00909 0.61846 0.0
H1788 H 0.39015 0.98494 0.61702 0.0
H1789 H 0.37337 0.01839 0.61573 0.0
H1790 H 0.33934 0.98698 0.54552 0.0
H1791 H 0.35655 0.95453 0.54661 0.0
C1792 C 0.31284 0.03883 0.56148 0.0
C1793 C 0.29675 0.03485 0.58171 0.0
C1794 C 0.33335 0.0312 0.56151 0.0
C1795 C 0.33821 0.01967 0.58182 0.0
C1796 C 0.32363 0.01804 0.60255 0.0
C1797 C 0.30319 0.02549 0.60247 0.0
C1798 C 0.37976 0.98582 0.60112 0.0
C1799 C 0.3741 0.96667 0.58217 0.0
C1800 C 0.37002 0.00485 0.60039 0.0
C1801 C 0.35462 0.00513 0.58064 0.0
C1802 C 0.35122 0.98761 0.56095 0.0
C1803 C 0.3608 0.96866 0.56173 0.0
H1804 H 0.0035 0.40376 0.62079 0.0
H1805 H 0.03403 0.40831 0.54972 0.0
H1806 H 0.97609 0.35234 0.6166 0.0
H1807 H 0.00734 0.3572 0.54575 0.0
H1808 H 0.93657 0.26601 0.5386 0.0
H1809 H 0.96003 0.31748 0.54242 0.0
H1810 H 0.98505 0.31356 0.61406 0.0
H1811 H 0.96124 0.2625 0.61046 0.0
C1812 C 0.00435 0.39377 0.60432 0.0
C1813 C 0.02088 0.40997 0.58562 0.0
C1814 C 0.98878 0.36438 0.60193 0.0
C1815 C 0.98955 0.35074 0.58081 0.0
C1816 C 0.00594 0.36707 0.56208 0.0
C1817 C 0.02141 0.39636 0.56446 0.0
C1818 C 0.94703 0.27623 0.55514 0.0
C1819 C 0.94708 0.26031 0.57421 0.0
C1820 C 0.96051 0.30564 0.55732 0.0
C1821 C 0.97428 0.31955 0.5786 0.0
C1822 C 0.97422 0.30348 0.59761 0.0
C1823 C 0.96075 0.27421 0.59545 0.0
H1824 H 0.93621 0.66486 0.79347 0.0
H1825 H 0.92807 0.68517 0.72157 0.0
H1826 H 0.98614 0.69796 0.79241 0.0
H1827 H 0.97789 0.71883 0.72059 0.0
H1828 H 0.06496 0.72439 0.71668 0.0
H1829 H 0.01573 0.70984 0.71763 0.0
H1830 H 0.02637 0.74407 0.78901 0.0
H1831 H 0.07535 0.75786 0.78816 0.0
C1832 C 0.94492 0.67731 0.77782 0.0
C1833 C 0.92839 0.67217 0.75752 0.0
C1834 C 0.97361 0.69632 0.77713 0.0
C1835 C 0.98616 0.71066 0.75618 0.0
C1836 C 0.96902 0.70764 0.73677 0.0
C1837 C 0.94046 0.68853 0.73741 0.0
C1838 C 0.05694 0.72965 0.73221 0.0
C1839 C 0.07377 0.74182 0.75244 0.0
C1840 C 0.0287 0.72133 0.73283 0.0
C1841 C 0.01693 0.72529 0.75363 0.0
C1842 C 0.03457 0.74007 0.77296 0.0
C1843 C 0.06265 0.74813 0.7724 0.0
H1844 H 0.26365 0.33044 0.70546 0.0
H1845 H 0.26168 0.32482 0.78174 0.0
H1846 H 0.28468 0.30085 0.70323 0.0
H1847 H 0.28415 0.29716 0.77969 0.0
H1848 H 0.32574 0.24592 0.7718 0.0
H1849 H 0.2895 0.25866 0.77064 0.0
H1850 H 0.33014 0.31212 0.71115 0.0
H1851 H 0.36497 0.29859 0.71174 0.0
C1852 C 0.26719 0.32249 0.72169 0.0
C1853 C 0.26174 0.3307 0.74377 0.0
C1854 C 0.27958 0.3058 0.72049 0.0
C1855 C 0.28708 0.29736 0.74135 0.0
C1856 C 0.27889 0.3032 0.76322 0.0
C1857 C 0.2662 0.31944 0.76439 0.0
C1858 C 0.32669 0.26027 0.75847 0.0
C1859 C 0.34826 0.27128 0.74195 0.0
C1860 C 0.30593 0.26756 0.75772 0.0
C1861 C 0.30662 0.28632 0.74064 0.0
C1862 C 0.3282 0.297 0.72411 0.0
C1863 C 0.34854 0.28948 0.72467 0.0
H1864 H 0.69411 0.92482 0.75382 0.0
H1865 H 0.73113 0.95814 0.68616 0.0
H1866 H 0.72893 0.96703 0.77364 0.0
H1867 H 0.76769 0.00061 0.70639 0.0
H1868 H 0.77703 0.04582 0.80878 0.0
H1869 H 0.77051 0.00349 0.78792 0.0
H1870 H 0.76416 0.03783 0.72142 0.0
H1871 H 0.77246 0.08015 0.74186 0.0
C1872 C 0.71026 0.94097 0.74316 0.0
C1873 C 0.70913 0.93869 0.71829 0.0
C1874 C 0.73074 0.96523 0.75469 0.0
C1875 C 0.75085 0.98788 0.74166 0.0
C1876 C 0.75192 0.98401 0.71696 0.0
C1877 C 0.73106 0.95964 0.70531 0.0
C1878 C 0.77512 0.04455 0.78963 0.0
C1879 C 0.77393 0.06567 0.77708 0.0
C1880 C 0.77125 0.02026 0.77763 0.0
C1881 C 0.7656 0.01657 0.75302 0.0
C1882 C 0.76816 0.03946 0.74032 0.0
C1883 C 0.77243 0.06373 0.75219 0.0
H1884 H 0.29226 0.92586 0.28201 0.0
H1885 H 0.26718 0.93072 0.21063 0.0
H1886 H 0.31724 0.97694 0.2859 0.0
H1887 H 0.29174 0.98218 0.21475 0.0
H1888 H 0.36717 0.0717 0.22129 0.0
H1889 H 0.33943 0.02068 0.21755 0.0
H1890 H 0.31031 0.01692 0.28908 0.0
H1891 H 0.33886 0.06831 0.29305 0.0
C1892 C 0.2919 0.93788 0.26718 0.0
C1893 C 0.27784 0.92435 0.24596 0.0
C1894 C 0.30604 0.96716 0.26951 0.0
C1895 C 0.30637 0.9836 0.25069 0.0
C1896 C 0.29207 0.97005 0.22949 0.0
C1897 C 0.27795 0.94065 0.22714 0.0
C1898 C 0.35482 0.06002 0.23624 0.0
C1899 C 0.35518 0.07393 0.25751 0.0
C1900 C 0.33873 0.03078 0.234 0.0
C1901 C 0.32255 0.01477 0.25294 0.0
C1902 C 0.32279 0.0287 0.27423 0.0
C1903 C 0.33902 0.05807 0.27651 0.0
H1904 H 0.93437 0.30503 0.29434 0.0
H1905 H 0.92208 0.27825 0.22087 0.0
H1906 H 0.98406 0.32214 0.2909 0.0
H1907 H 0.97131 0.29365 0.2175 0.0
H1908 H 0.06226 0.36753 0.21156 0.0
H1909 H 0.01201 0.33693 0.21438 0.0
H1910 H 0.02221 0.31608 0.28579 0.0
H1911 H 0.07233 0.34805 0.2831 0.0
C1912 C 0.94224 0.30187 0.27772 0.0
C1913 C 0.92462 0.29046 0.25787 0.0
C1914 C 0.97072 0.3116 0.27566 0.0
C1915 C 0.98199 0.30967 0.25376 0.0
C1916 C 0.96369 0.29623 0.23445 0.0
C1917 C 0.93541 0.28709 0.23641 0.0
C1918 C 0.0537 0.35556 0.22748 0.0
C1919 C 0.07097 0.35983 0.24702 0.0
C1920 C 0.02485 0.338 0.22922 0.0
C1921 C 0.01277 0.32417 0.2505 0.0
C1922 C 0.03055 0.32684 0.26935 0.0
C1923 C 0.0593 0.34477 0.26771 0.0
H1924 H 0.73548 0.65954 0.23044 0.0
H1925 H 0.67101 0.61226 0.28073 0.0
H1926 H 0.71401 0.68813 0.22186 0.0
H1927 H 0.64978 0.64062 0.27232 0.0
H1928 H 0.59589 0.65114 0.21903 0.0
H1929 H 0.62964 0.63617 0.22563 0.0
H1930 H 0.69144 0.72116 0.24683 0.0
H1931 H 0.65731 0.73634 0.24013 0.0
C1932 C 0.71762 0.65633 0.24054 0.0
C1933 C 0.705 0.63405 0.25646 0.0
C1934 C 0.70526 0.67246 0.23548 0.0
C1935 C 0.68014 0.66622 0.24624 0.0
C1936 C 0.66909 0.64568 0.26373 0.0
C1937 C 0.68136 0.62967 0.26873 0.0
C1938 C 0.617 0.66688 0.22416 0.0
C1939 C 0.62405 0.69485 0.22906 0.0
C1940 C 0.6362 0.65828 0.22814 0.0
C1941 C 0.66285 0.67745 0.23717 0.0
C1942 C 0.67095 0.70606 0.23991 0.0
C1943 C 0.65156 0.71475 0.23586 0.0
loop_
_geom_bond_atom_site_label_1
_geom_bond_atom_site_label_2
_geom_bond_distance
_geom_bond_site_symmetry_2
_ccdc_geom_bond_type
Co0 O1 2.216 . S
Co0 O2 2.091 . S
Co0 O4 2.004 . S
Co0 O10 2.021 . S
Co0 O12 2.137 . S
Co0 O13 2.244 . S
O1 Co0 2.216 . S
O1 C8 1.247 . S
O2 Co0 2.091 . S
O2 C8 1.261 . S
C3 O12 1.247 . S
C3 O13 1.272 . S
O4 Co0 2.004 . S
O4 C9 1.259 . S
Co5 O6 2.061 . S
Co5 O11 2.052 . S
Co5 O13 2.135 . S
O6 Co5 2.061 . S
O6 C9 1.235 . S
C7 O10 1.238 . S
C7 O11 1.241 . S
C8 O1 1.247 . S
C8 O2 1.261 . S
C9 O4 1.259 . S
C9 O6 1.235 . S
O10 Co0 2.021 . S
O10 C7 1.238 . S
O11 Co5 2.052 . S
O11 C7 1.241 . S
O12 Co0 2.137 . S
O12 C3 1.247 . S
O13 Co0 2.244 . S
O13 C3 1.272 . S
O13 Co5 2.135 . S
Co14 O15 2.216 . S
Co14 O16 2.091 . S
Co14 O18 2.004 . S
Co14 O24 2.021 . S
Co14 O26 2.137 . S
Co14 O27 2.244 . S
O15 Co14 2.216 . S
O15 C22 1.247 . S
O16 Co14 2.091 . S
O16 C22 1.261 . S
C17 O26 1.247 . S
C17 O27 1.272 . S
O18 Co14 2.004 . S
O18 C23 1.259 . S
Co19 O20 2.061 . S
Co19 O25 2.052 . S
Co19 O27 2.135 . S
O20 Co19 2.061 . S
O20 C23 1.235 . S
C21 O24 1.238 . S
C21 O25 1.241 . S
C22 O15 1.247 . S
C22 O16 1.261 . S
C23 O18 1.259 . S
C23 O20 1.235 . S
O24 Co14 2.021 . S
O24 C21 1.238 . S
O25 Co19 2.052 . S
O25 C21 1.241 . S
O26 Co14 2.137 . S
O26 C17 1.247 . S
O27 Co14 2.244 . S
O27 C17 1.272 . S
O27 Co19 2.135 . S
Co28 O29 2.216 . S
Co28 O30 2.091 . S
Co28 O32 2.004 . S
Co28 O38 2.021 . S
Co28 O40 2.137 . S
Co28 O41 2.244 . S
O29 Co28 2.216 . S
O29 C36 1.247 . S
O30 Co28 2.091 . S
O30 C36 1.261 . S
C31 O40 1.247 . S
C31 O41 1.272 . S
O32 Co28 2.004 . S
O32 C37 1.259 . S
Co33 O34 2.061 . S
Co33 O39 2.052 . S
Co33 O41 2.135 . S
O34 Co33 2.061 . S
O34 C37 1.235 . S
C35 O38 1.238 . S
C35 O39 1.241 . S
C36 O29 1.247 . S
C36 O30 1.261 . S
C37 O32 1.259 . S
C37 O34 1.235 . S
O38 Co28 2.021 . S
O38 C35 1.238 . S
O39 Co33 2.052 . S
O39 C35 1.241 . S
O40 Co28 2.137 . S
O40 C31 1.247 . S
O41 Co28 2.244 . S
O41 C31 1.272 . S
O41 Co33 2.135 . S
Co42 O43 2.216 . S
Co42 O44 2.091 . S
Co42 O46 2.004 . S
Co42 O52 2.021 . S
Co42 O54 2.137 . S
Co42 O55 2.244 . S
O43 Co42 2.216 . S
O43 C50 1.247 . S
O44 Co42 2.091 . S
O44 C50 1.261 . S
C45 O54 1.247 . S
C45 O55 1.272 . S
O46 Co42 2.004 . S
O46 C51 1.259 . S
Co47 O48 2.061 . S
Co47 O53 2.052 . S
Co47 O55 2.135 . S
O48 Co47 2.061 . S
O48 C51 1.235 . S
C49 O52 1.238 . S
C49 O53 1.241 . S
C50 O43 1.247 . S
C50 O44 1.261 . S
C51 O46 1.259 . S
C51 O48 1.235 . S
O52 Co42 2.021 . S
O52 C49 1.238 . S
O53 Co47 2.052 . S
O53 C49 1.241 . S
O54 Co42 2.137 . S
O54 C45 1.247 . S
O55 Co42 2.244 . S
O55 C45 1.272 . S
O55 Co47 2.135 . S
Co56 O57 2.216 . S
Co56 O58 2.091 . S
Co56 O60 2.004 . S
Co56 O66 2.021 . S
Co56 O68 2.137 . S
Co56 O69 2.244 . S
O57 Co56 2.216 . S
O57 C64 1.247 . S
O58 Co56 2.091 . S
O58 C64 1.261 . S
C59 O68 1.247 . S
C59 O69 1.272 . S
O60 Co56 2.004 . S
O60 C65 1.259 . S
Co61 O62 2.061 . S
Co61 O67 2.052 . S
Co61 O69 2.135 . S
O62 Co61 2.061 . S
O62 C65 1.235 . S
C63 O66 1.238 . S
C63 O67 1.241 . S
C64 O57 1.247 . S
C64 O58 1.261 . S
C65 O60 1.259 . S
C65 O62 1.235 . S
O66 Co56 2.021 . S
O66 C63 1.238 . S
O67 Co61 2.052 . S
O67 C63 1.241 . S
O68 Co56 2.137 . S
O68 C59 1.247 . S
O69 Co56 2.244 . S
O69 C59 1.272 . S
O69 Co61 2.135 . S
Co70 O71 2.216 . S
Co70 O72 2.091 . S
Co70 O74 2.004 . S
Co70 O80 2.021 . S
Co70 O82 2.137 . S
Co70 O83 2.244 . S
O71 Co70 2.216 . S
O71 C78 1.247 . S
O72 Co70 2.091 . S
O72 C78 1.261 . S
C73 O82 1.247 . S
C73 O83 1.272 . S
O74 Co70 2.004 . S
O74 C79 1.259 . S
Co75 O76 2.061 . S
Co75 O81 2.052 . S
Co75 O83 2.135 . S
O76 Co75 2.061 . S
O76 C79 1.235 . S
C77 O80 1.238 . S
C77 O81 1.241 . S
C78 O71 1.247 . S
C78 O72 1.261 . S
C79 O74 1.259 . S
C79 O76 1.235 . S
O80 Co70 2.021 . S
O80 C77 1.238 . S
O81 Co75 2.052 . S
O81 C77 1.241 . S
O82 Co70 2.137 . S
O82 C73 1.247 . S
O83 Co70 2.244 . S
O83 C73 1.272 . S
O83 Co75 2.135 . S
Co84 O85 2.216 . S
Co84 O86 2.091 . S
Co84 O88 2.004 . S
Co84 O94 2.021 . S
Co84 O96 2.137 . S
Co84 O97 2.244 . S
O85 Co84 2.216 . S
O85 C92 1.247 . S
O86 Co84 2.091 . S
O86 C92 1.261 . S
C87 O96 1.247 . S
C87 O97 1.272 . S
O88 Co84 2.004 . S
O88 C93 1.259 . S
Co89 O90 2.061 . S
Co89 O95 2.052 . S
Co89 O97 2.135 . S
O90 Co89 2.061 . S
O90 C93 1.235 . S
C91 O94 1.238 . S
C91 O95 1.241 . S
C92 O85 1.247 . S
C92 O86 1.261 . S
C93 O88 1.259 . S
C93 O90 1.235 . S
O94 Co84 2.021 . S
O94 C91 1.238 . S
O95 Co89 2.052 . S
O95 C91 1.241 . S
O96 Co84 2.137 . S
O96 C87 1.247 . S
O97 Co84 2.244 . S
O97 C87 1.272 . S
O97 Co89 2.135 . S
Co98 O99 2.216 . S
Co98 O100 2.091 . S
Co98 O102 2.004 . S
Co98 O108 2.021 . S
Co98 O110 2.137 . S
Co98 O111 2.244 . S
O99 Co98 2.216 . S
O99 C106 1.247 . S
O100 Co98 2.091 . S
O100 C106 1.261 . S
C101 O110 1.247 . S
C101 O111 1.272 . S
O102 Co98 2.004 . S
O102 C107 1.259 . S
Co103 O104 2.061 . S
Co103 O109 2.052 . S
Co103 O111 2.135 . S
O104 Co103 2.061 . S
O104 C107 1.235 . S
C105 O108 1.238 . S
C105 O109 1.241 . S
C106 O99 1.247 . S
C106 O100 1.261 . S
C107 O102 1.259 . S
C107 O104 1.235 . S
O108 Co98 2.021 . S
O108 C105 1.238 . S
O109 Co103 2.052 . S
O109 C105 1.241 . S
O110 Co98 2.137 . S
O110 C101 1.247 . S
O111 Co98 2.244 . S
O111 C101 1.272 . S
O111 Co103 2.135 . S
Co112 O113 2.216 . S
Co112 O114 2.091 . S
Co112 O116 2.004 . S
Co112 O122 2.021 . S
Co112 O124 2.137 . S
Co112 O125 2.244 . S
O113 Co112 2.216 . S
O113 C120 1.247 . S
O114 Co112 2.091 . S
O114 C120 1.261 . S
C115 O124 1.247 . S
C115 O125 1.272 . S
O116 Co112 2.004 . S
O116 C121 1.259 . S
Co117 O118 2.061 . S
Co117 O123 2.052 . S
Co117 O125 2.135 . S
O118 Co117 2.061 . S
O118 C121 1.235 . S
C119 O122 1.238 . S
C119 O123 1.241 . S
C120 O113 1.247 . S
C120 O114 1.261 . S
C121 O116 1.259 . S
C121 O118 1.235 . S
O122 Co112 2.021 . S
O122 C119 1.238 . S
O123 Co117 2.052 . S
O123 C119 1.241 . S
O124 Co112 2.137 . S
O124 C115 1.247 . S
O125 Co112 2.244 . S
O125 C115 1.272 . S
O125 Co117 2.135 . S
Co126 O127 2.216 . S
Co126 O128 2.091 . S
Co126 O130 2.004 . S
Co126 O136 2.021 . S
Co126 O138 2.137 . S
Co126 O139 2.244 . S
O127 Co126 2.216 . S
O127 C134 1.247 . S
O128 Co126 2.091 . S
O128 C134 1.261 . S
C129 O138 1.247 . S
C129 O139 1.272 . S
O130 Co126 2.004 . S
O130 C135 1.259 . S
Co131 O132 2.061 . S
Co131 O137 2.052 . S
Co131 O139 2.135 . S
O132 Co131 2.061 . S
O132 C135 1.235 . S
C133 O136 1.238 . S
C133 O137 1.241 . S
C134 O127 1.247 . S
C134 O128 1.261 . S
C135 O130 1.259 . S
C135 O132 1.235 . S
O136 Co126 2.021 . S
O136 C133 1.238 . S
O137 Co131 2.052 . S
O137 C133 1.241 . S
O138 Co126 2.137 . S
O138 C129 1.247 . S
O139 Co126 2.244 . S
O139 C129 1.272 . S
O139 Co131 2.135 . S
Co140 O141 2.216 . S
Co140 O142 2.091 . S
Co140 O144 2.004 . S
Co140 O150 2.021 . S
Co140 O152 2.137 . S
Co140 O153 2.244 . S
O141 Co140 2.216 . S
O141 C148 1.247 . S
O142 Co140 2.091 . S
O142 C148 1.261 . S
C143 O152 1.247 . S
C143 O153 1.272 . S
O144 Co140 2.004 . S
O144 C149 1.259 . S
Co145 O146 2.061 . S
Co145 O151 2.052 . S
Co145 O153 2.135 . S
O146 Co145 2.061 . S
O146 C149 1.235 . S
C147 O150 1.238 . S
C147 O151 1.241 . S
C148 O141 1.247 . S
C148 O142 1.261 . S
C149 O144 1.259 . S
C149 O146 1.235 . S
O150 Co140 2.021 . S
O150 C147 1.238 . S
O151 Co145 2.052 . S
O151 C147 1.241 . S
O152 Co140 2.137 . S
O152 C143 1.247 . S
O153 Co140 2.244 . S
O153 C143 1.272 . S
O153 Co145 2.135 . S
Co154 O155 2.216 . S
Co154 O156 2.091 . S
Co154 O158 2.004 . S
Co154 O164 2.021 . S
Co154 O166 2.137 . S
Co154 O167 2.244 . S
O155 Co154 2.216 . S
O155 C162 1.247 . S
O156 Co154 2.091 . S
O156 C162 1.261 . S
C157 O166 1.247 . S
C157 O167 1.272 . S
O158 Co154 2.004 . S
O158 C163 1.259 . S
Co159 O160 2.061 . S
Co159 O165 2.052 . S
Co159 O167 2.135 . S
O160 Co159 2.061 . S
O160 C163 1.235 . S
C161 O164 1.238 . S
C161 O165 1.241 . S
C162 O155 1.247 . S
C162 O156 1.261 . S
C163 O158 1.259 . S
C163 O160 1.235 . S
O164 Co154 2.021 . S
O164 C161 1.238 . S
O165 Co159 2.052 . S
O165 C161 1.241 . S
O166 Co154 2.137 . S
O166 C157 1.247 . S
O167 Co154 2.244 . S
O167 C157 1.272 . S
O167 Co159 2.135 . S
Co168 O169 2.216 . S
Co168 O170 2.091 . S
Co168 O172 2.004 . S
Co168 O178 2.021 . S
Co168 O180 2.137 . S
Co168 O181 2.244 . S
O169 Co168 2.216 . S
O169 C176 1.247 . S
O170 Co168 2.091 . S
O170 C176 1.261 . S
C171 O180 1.247 . S
C171 O181 1.272 . S
O172 Co168 2.004 . S
O172 C177 1.259 . S
Co173 O174 2.061 . S
Co173 O179 2.052 . S
Co173 O181 2.135 . S
O174 Co173 2.061 . S
O174 C177 1.235 . S
C175 O178 1.238 . S
C175 O179 1.241 . S
C176 O169 1.247 . S
C176 O170 1.261 . S
C177 O172 1.259 . S
C177 O174 1.235 . S
O178 Co168 2.021 . S
O178 C175 1.238 . S
O179 Co173 2.052 . S
O179 C175 1.241 . S
O180 Co168 2.137 . S
O180 C171 1.247 . S
O181 Co168 2.244 . S
O181 C171 1.272 . S
O181 Co173 2.135 . S
Co182 O183 2.216 . S
Co182 O184 2.091 . S
Co182 O186 2.004 . S
Co182 O192 2.021 . S
Co182 O194 2.137 . S
Co182 O195 2.244 . S
O183 Co182 2.216 . S
O183 C190 1.247 . S
O184 Co182 2.091 . S
O184 C190 1.261 . S
C185 O194 1.247 . S
C185 O195 1.272 . S
O186 Co182 2.004 . S
O186 C191 1.259 . S
Co187 O188 2.061 . S
Co187 O193 2.052 . S
Co187 O195 2.135 . S
O188 Co187 2.061 . S
O188 C191 1.235 . S
C189 O192 1.238 . S
C189 O193 1.241 . S
C190 O183 1.247 . S
C190 O184 1.261 . S
C191 O186 1.259 . S
C191 O188 1.235 . S
O192 Co182 2.021 . S
O192 C189 1.238 . S
O193 Co187 2.052 . S
O193 C189 1.241 . S
O194 Co182 2.137 . S
O194 C185 1.247 . S
O195 Co182 2.244 . S
O195 C185 1.272 . S
O195 Co187 2.135 . S
Co196 O197 2.216 . S
Co196 O198 2.091 . S
Co196 O200 2.004 . S
Co196 O206 2.021 . S
Co196 O208 2.137 . S
Co196 O209 2.244 . S
O197 Co196 2.216 . S
O197 C204 1.247 . S
O198 Co196 2.091 . S
O198 C204 1.261 . S
C199 O208 1.247 . S
C199 O209 1.272 . S
O200 Co196 2.004 . S
O200 C205 1.259 . S
Co201 O202 2.061 . S
Co201 O207 2.052 . S
Co201 O209 2.135 . S
O202 Co201 2.061 . S
O202 C205 1.235 . S
C203 O206 1.238 . S
C203 O207 1.241 . S
C204 O197 1.247 . S
C204 O198 1.261 . S
C205 O200 1.259 . S
C205 O202 1.235 . S
O206 Co196 2.021 . S
O206 C203 1.238 . S
O207 Co201 2.052 . S
O207 C203 1.241 . S
O208 Co196 2.137 . S
O208 C199 1.247 . S
O209 Co196 2.244 . S
O209 C199 1.272 . S
O209 Co201 2.135 . S
Co210 O211 2.216 . S
Co210 O212 2.091 . S
Co210 O214 2.004 . S
Co210 O220 2.021 . S
Co210 O222 2.137 . S
Co210 O223 2.244 . S
O211 Co210 2.216 . S
O211 C218 1.247 . S
O212 Co210 2.091 . S
O212 C218 1.261 . S
C213 O222 1.247 . S
C213 O223 1.272 . S
O214 Co210 2.004 . S
O214 C219 1.259 . S
Co215 O216 2.061 . S
Co215 O221 2.052 . S
Co215 O223 2.135 . S
O216 Co215 2.061 . S
O216 C219 1.235 . S
C217 O220 1.238 . S
C217 O221 1.241 . S
C218 O211 1.247 . S
C218 O212 1.261 . S
C219 O214 1.259 . S
C219 O216 1.235 . S
O220 Co210 2.021 . S
O220 C217 1.238 . S
O221 Co215 2.052 . S
O221 C217 1.241 . S
O222 Co210 2.137 . S
O222 C213 1.247 . S
O223 Co210 2.244 . S
O223 C213 1.272 . S
O223 Co215 2.135 . S
Co224 O225 2.216 . S
Co224 O226 2.091 . S
Co224 O228 2.004 . S
Co224 O234 2.021 . S
Co224 O236 2.137 . S
Co224 O237 2.244 . S
O225 Co224 2.216 . S
O225 C232 1.247 . S
O226 Co224 2.091 . S
O226 C232 1.261 . S
C227 O236 1.247 . S
C227 O237 1.272 . S
O228 Co224 2.004 . S
O228 C233 1.259 . S
Co229 O230 2.061 . S
Co229 O235 2.052 . S
Co229 O237 2.135 . S
O230 Co229 2.061 . S
O230 C233 1.235 . S
C231 O234 1.238 . S
C231 O235 1.241 . S
C232 O225 1.247 . S
C232 O226 1.261 . S
C233 O228 1.259 . S
C233 O230 1.235 . S
O234 Co224 2.021 . S
O234 C231 1.238 . S
O235 Co229 2.052 . S
O235 C231 1.241 . S
O236 Co224 2.137 . S
O236 C227 1.247 . S
O237 Co224 2.244 . S
O237 C227 1.272 . S
O237 Co229 2.135 . S
Co238 O239 2.216 . S
Co238 O240 2.091 . S
Co238 O242 2.004 . S
Co238 O248 2.021 . S
Co238 O250 2.137 . S
Co238 O251 2.244 . S
O239 Co238 2.216 . S
O239 C246 1.247 . S
O240 Co238 2.091 . S
O240 C246 1.261 . S
C241 O250 1.247 . S
C241 O251 1.272 . S
O242 Co238 2.004 . S
O242 C247 1.259 . S
Co243 O244 2.061 . S
Co243 O249 2.052 . S
Co243 O251 2.135 . S
O244 Co243 2.061 . S
O244 C247 1.235 . S
C245 O248 1.238 . S
C245 O249 1.241 . S
C246 O239 1.247 . S
C246 O240 1.261 . S
C247 O242 1.259 . S
C247 O244 1.235 . S
O248 Co238 2.021 . S
O248 C245 1.238 . S
O249 Co243 2.052 . S
O249 C245 1.241 . S
O250 Co238 2.137 . S
O250 C241 1.247 . S
O251 Co238 2.244 . S
O251 C241 1.272 . S
O251 Co243 2.135 . S
Co252 O253 2.216 . S
Co252 O254 2.091 . S
Co252 O256 2.004 . S
Co252 O262 2.021 . S
Co252 O264 2.137 . S
Co252 O265 2.244 . S
O253 Co252 2.216 . S
O253 C260 1.247 . S
O254 Co252 2.091 . S
O254 C260 1.261 . S
C255 O264 1.247 . S
C255 O265 1.272 . S
O256 Co252 2.004 . S
O256 C261 1.259 . S
Co257 O258 2.061 . S
Co257 O263 2.052 . S
Co257 O265 2.135 . S
O258 Co257 2.061 . S
O258 C261 1.235 . S
C259 O262 1.238 . S
C259 O263 1.241 . S
C260 O253 1.247 . S
C260 O254 1.261 . S
C261 O256 1.259 . S
C261 O258 1.235 . S
O262 Co252 2.021 . S
O262 C259 1.238 . S
O263 Co257 2.052 . S
O263 C259 1.241 . S
O264 Co252 2.137 . S
O264 C255 1.247 . S
O265 Co252 2.244 . S
O265 C255 1.272 . S
O265 Co257 2.135 . S
Co266 O267 2.216 . S
Co266 O268 2.091 . S
Co266 O270 2.004 . S
Co266 O276 2.021 . S
Co266 O278 2.137 . S
Co266 O279 2.244 . S
O267 Co266 2.216 . S
O267 C274 1.247 . S
O268 Co266 2.091 . S
O268 C274 1.261 . S
C269 O278 1.247 . S
C269 O279 1.272 . S
O270 Co266 2.004 . S
O270 C275 1.259 . S
Co271 O272 2.061 . S
Co271 O277 2.052 . S
Co271 O279 2.135 . S
O272 Co271 2.061 . S
O272 C275 1.235 . S
C273 O276 1.238 . S
C273 O277 1.241 . S
C274 O267 1.247 . S
C274 O268 1.261 . S
C275 O270 1.259 . S
C275 O272 1.235 . S
O276 Co266 2.021 . S
O276 C273 1.238 . S
O277 Co271 2.052 . S
O277 C273 1.241 . S
O278 Co266 2.137 . S
O278 C269 1.247 . S
O279 Co266 2.244 . S
O279 C269 1.272 . S
O279 Co271 2.135 . S
Co280 O281 2.216 . S
Co280 O282 2.091 . S
Co280 O284 2.004 . S
Co280 O290 2.021 . S
Co280 O292 2.137 . S
Co280 O293 2.244 . S
O281 Co280 2.216 . S
O281 C288 1.247 . S
O282 Co280 2.091 . S
O282 C288 1.261 . S
C283 O292 1.247 . S
C283 O293 1.272 . S
O284 Co280 2.004 . S
O284 C289 1.259 . S
Co285 O286 2.061 . S
Co285 O291 2.052 . S
Co285 O293 2.135 . S
O286 Co285 2.061 . S
O286 C289 1.235 . S
C287 O290 1.238 . S
C287 O291 1.241 . S
C288 O281 1.247 . S
C288 O282 1.261 . S
C289 O284 1.259 . S
C289 O286 1.235 . S
O290 Co280 2.021 . S
O290 C287 1.238 . S
O291 Co285 2.052 . S
O291 C287 1.241 . S
O292 Co280 2.137 . S
O292 C283 1.247 . S
O293 Co280 2.244 . S
O293 C283 1.272 . S
O293 Co285 2.135 . S
Co294 O295 2.216 . S
Co294 O296 2.091 . S
Co294 O298 2.004 . S
Co294 O304 2.021 . S
Co294 O306 2.137 . S
Co294 O307 2.244 . S
O295 Co294 2.216 . S
O295 C302 1.247 . S
O296 Co294 2.091 . S
O296 C302 1.261 . S
C297 O306 1.247 . S
C297 O307 1.272 . S
O298 Co294 2.004 . S
O298 C303 1.259 . S
Co299 O300 2.061 . S
Co299 O305 2.052 . S
Co299 O307 2.135 . S
O300 Co299 2.061 . S
O300 C303 1.235 . S
C301 O304 1.238 . S
C301 O305 1.241 . S
C302 O295 1.247 . S
C302 O296 1.261 . S
C303 O298 1.259 . S
C303 O300 1.235 . S
O304 Co294 2.021 . S
O304 C301 1.238 . S
O305 Co299 2.052 . S
O305 C301 1.241 . S
O306 Co294 2.137 . S
O306 C297 1.247 . S
O307 Co294 2.244 . S
O307 C297 1.272 . S
O307 Co299 2.135 . S
Co308 O309 2.216 . S
Co308 O310 2.091 . S
Co308 O312 2.004 . S
Co308 O318 2.021 . S
Co308 O320 2.137 . S
Co308 O321 2.244 . S
O309 Co308 2.216 . S
O309 C316 1.247 . S
O310 Co308 2.091 . S
O310 C316 1.261 . S
C311 O320 1.247 . S
C311 O321 1.272 . S
O312 Co308 2.004 . S
O312 C317 1.259 . S
Co313 O314 2.061 . S
Co313 O319 2.052 . S
Co313 O321 2.135 . S
O314 Co313 2.061 . S
O314 C317 1.235 . S
C315 O318 1.238 . S
C315 O319 1.241 . S
C316 O309 1.247 . S
C316 O310 1.261 . S
C317 O312 1.259 . S
C317 O314 1.235 . S
O318 Co308 2.021 . S
O318 C315 1.238 . S
O319 Co313 2.052 . S
O319 C315 1.241 . S
O320 Co308 2.137 . S
O320 C311 1.247 . S
O321 Co308 2.244 . S
O321 C311 1.272 . S
O321 Co313 2.135 . S
Co322 O323 2.216 . S
Co322 O324 2.091 . S
Co322 O326 2.004 . S
Co322 O332 2.021 . S
Co322 O334 2.137 . S
Co322 O335 2.244 . S
O323 Co322 2.216 . S
O323 C330 1.247 . S
O324 Co322 2.091 . S
O324 C330 1.261 . S
C325 O334 1.247 . S
C325 O335 1.272 . S
O326 Co322 2.004 . S
O326 C331 1.259 . S
Co327 O328 2.061 . S
Co327 O333 2.052 . S
Co327 O335 2.135 . S
O328 Co327 2.061 . S
O328 C331 1.235 . S
C329 O332 1.238 . S
C329 O333 1.241 . S
C330 O323 1.247 . S
C330 O324 1.261 . S
C331 O326 1.259 . S
C331 O328 1.235 . S
O332 Co322 2.021 . S
O332 C329 1.238 . S
O333 Co327 2.052 . S
O333 C329 1.241 . S
O334 Co322 2.137 . S
O334 C325 1.247 . S
O335 Co322 2.244 . S
O335 C325 1.272 . S
O335 Co327 2.135 . S
Co336 O337 2.216 . S
Co336 O338 2.091 . S
Co336 O340 2.004 . S
Co336 O346 2.021 . S
Co336 O348 2.137 . S
Co336 O349 2.244 . S
O337 Co336 2.216 . S
O337 C344 1.247 . S
O338 Co336 2.091 . S
O338 C344 1.261 . S
C339 O348 1.247 . S
C339 O349 1.272 . S
O340 Co336 2.004 . S
O340 C345 1.259 . S
Co341 O342 2.061 . S
Co341 O347 2.052 . S
Co341 O349 2.135 . S
O342 Co341 2.061 . S
O342 C345 1.235 . S
C343 O346 1.238 . S
C343 O347 1.241 . S
C344 O337 1.247 . S
C344 O338 1.261 . S
C345 O340 1.259 . S
C345 O342 1.235 . S
O346 Co336 2.021 . S
O346 C343 1.238 . S
O347 Co341 2.052 . S
O347 C343 1.241 . S
O348 Co336 2.137 . S
O348 C339 1.247 . S
O349 Co336 2.244 . S
O349 C339 1.272 . S
O349 Co341 2.135 . S
Co350 O351 2.216 . S
Co350 O352 2.091 . S
Co350 O354 2.004 . S
Co350 O360 2.021 . S
Co350 O362 2.137 . S
Co350 O363 2.244 . S
O351 Co350 2.216 . S
O351 C358 1.247 . S
O352 Co350 2.091 . S
O352 C358 1.261 . S
C353 O362 1.247 . S
C353 O363 1.272 . S
O354 Co350 2.004 . S
O354 C359 1.259 . S
Co355 O356 2.061 . S
Co355 O361 2.052 . S
Co355 O363 2.135 . S
O356 Co355 2.061 . S
O356 C359 1.235 . S
C357 O360 1.238 . S
C357 O361 1.241 . S
C358 O351 1.247 . S
C358 O352 1.261 . S
C359 O354 1.259 . S
C359 O356 1.235 . S
O360 Co350 2.021 . S
O360 C357 1.238 . S
O361 Co355 2.052 . S
O361 C357 1.241 . S
O362 Co350 2.137 . S
O362 C353 1.247 . S
O363 Co350 2.244 . S
O363 C353 1.272 . S
O363 Co355 2.135 . S
Co364 O365 2.216 . S
Co364 O366 2.091 . S
Co364 O368 2.004 . S
Co364 O374 2.021 . S
Co364 O376 2.137 . S
Co364 O377 2.244 . S
O365 Co364 2.216 . S
O365 C372 1.247 . S
O366 Co364 2.091 . S
O366 C372 1.261 . S
C367 O376 1.247 . S
C367 O377 1.272 . S
O368 Co364 2.004 . S
O368 C373 1.259 . S
Co369 O370 2.061 . S
Co369 O375 2.052 . S
Co369 O377 2.135 . S
O370 Co369 2.061 . S
O370 C373 1.235 . S
C371 O374 1.238 . S
C371 O375 1.241 . S
C372 O365 1.247 . S
C372 O366 1.261 . S
C373 O368 1.259 . S
C373 O370 1.235 . S
O374 Co364 2.021 . S
O374 C371 1.238 . S
O375 Co369 2.052 . S
O375 C371 1.241 . S
O376 Co364 2.137 . S
O376 C367 1.247 . S
O377 Co364 2.244 . S
O377 C367 1.272 . S
O377 Co369 2.135 . S
Co378 O379 2.216 . S
Co378 O380 2.091 . S
Co378 O382 2.004 . S
Co378 O388 2.021 . S
Co378 O390 2.137 . S
Co378 O391 2.244 . S
O379 Co378 2.216 . S
O379 C386 1.247 . S
O380 Co378 2.091 . S
O380 C386 1.261 . S
C381 O390 1.247 . S
C381 O391 1.272 . S
O382 Co378 2.004 . S
O382 C387 1.259 . S
Co383 O384 2.061 . S
Co383 O389 2.052 . S
Co383 O391 2.135 . S
O384 Co383 2.061 . S
O384 C387 1.235 . S
C385 O388 1.238 . S
C385 O389 1.241 . S
C386 O379 1.247 . S
C386 O380 1.261 . S
C387 O382 1.259 . S
C387 O384 1.235 . S
O388 Co378 2.021 . S
O388 C385 1.238 . S
O389 Co383 2.052 . S
O389 C385 1.241 . S
O390 Co378 2.137 . S
O390 C381 1.247 . S
O391 Co378 2.244 . S
O391 C381 1.272 . S
O391 Co383 2.135 . S
Co392 O393 2.216 . S
Co392 O394 2.091 . S
Co392 O396 2.004 . S
Co392 O402 2.021 . S
Co392 O404 2.137 . S
Co392 O405 2.244 . S
O393 Co392 2.216 . S
O393 C400 1.247 . S
O394 Co392 2.091 . S
O394 C400 1.261 . S
C395 O404 1.247 . S
C395 O405 1.272 . S
O396 Co392 2.004 . S
O396 C401 1.259 . S
Co397 O398 2.061 . S
Co397 O403 2.052 . S
Co397 O405 2.135 . S
O398 Co397 2.061 . S
O398 C401 1.235 . S
C399 O402 1.238 . S
C399 O403 1.241 . S
C400 O393 1.247 . S
C400 O394 1.261 . S
C401 O396 1.259 . S
C401 O398 1.235 . S
O402 Co392 2.021 . S
O402 C399 1.238 . S
O403 Co397 2.052 . S
O403 C399 1.241 . S
O404 Co392 2.137 . S
O404 C395 1.247 . S
O405 Co392 2.244 . S
O405 C395 1.272 . S
O405 Co397 2.135 . S
Co406 O407 2.216 . S
Co406 O408 2.091 . S
Co406 O410 2.004 . S
Co406 O416 2.021 . S
Co406 O418 2.137 . S
Co406 O419 2.244 . S
O407 Co406 2.216 . S
O407 C414 1.247 . S
O408 Co406 2.091 . S
O408 C414 1.261 . S
C409 O418 1.247 . S
C409 O419 1.272 . S
O410 Co406 2.004 . S
O410 C415 1.259 . S
Co411 O412 2.061 . S
Co411 O417 2.052 . S
Co411 O419 2.135 . S
O412 Co411 2.061 . S
O412 C415 1.235 . S
C413 O416 1.238 . S
C413 O417 1.241 . S
C414 O407 1.247 . S
C414 O408 1.261 . S
C415 O410 1.259 . S
C415 O412 1.235 . S
O416 Co406 2.021 . S
O416 C413 1.238 . S
O417 Co411 2.052 . S
O417 C413 1.241 . S
O418 Co406 2.137 . S
O418 C409 1.247 . S
O419 Co406 2.244 . S
O419 C409 1.272 . S
O419 Co411 2.135 . S
Co420 O421 2.216 . S
Co420 O422 2.091 . S
Co420 O424 2.004 . S
Co420 O430 2.021 . S
Co420 O432 2.137 . S
Co420 O433 2.244 . S
O421 Co420 2.216 . S
O421 C428 1.247 . S
O422 Co420 2.091 . S
O422 C428 1.261 . S
C423 O432 1.247 . S
C423 O433 1.272 . S
O424 Co420 2.004 . S
O424 C429 1.259 . S
Co425 O426 2.061 . S
Co425 O431 2.052 . S
Co425 O433 2.135 . S
O426 Co425 2.061 . S
O426 C429 1.235 . S
C427 O430 1.238 . S
C427 O431 1.241 . S
C428 O421 1.247 . S
C428 O422 1.261 . S
C429 O424 1.259 . S
C429 O426 1.235 . S
O430 Co420 2.021 . S
O430 C427 1.238 . S
O431 Co425 2.052 . S
O431 C427 1.241 . S
O432 Co420 2.137 . S
O432 C423 1.247 . S
O433 Co420 2.244 . S
O433 C423 1.272 . S
O433 Co425 2.135 . S
Co434 O435 2.216 . S
Co434 O436 2.091 . S
Co434 O438 2.004 . S
Co434 O444 2.021 . S
Co434 O446 2.137 . S
Co434 O447 2.244 . S
O435 Co434 2.216 . S
O435 C442 1.247 . S
O436 Co434 2.091 . S
O436 C442 1.261 . S
C437 O446 1.247 . S
C437 O447 1.272 . S
O438 Co434 2.004 . S
O438 C443 1.259 . S
Co439 O440 2.061 . S
Co439 O445 2.052 . S
Co439 O447 2.135 . S
O440 Co439 2.061 . S
O440 C443 1.235 . S
C441 O444 1.238 . S
C441 O445 1.241 . S
C442 O435 1.247 . S
C442 O436 1.261 . S
C443 O438 1.259 . S
C443 O440 1.235 . S
O444 Co434 2.021 . S
O444 C441 1.238 . S
O445 Co439 2.052 . S
O445 C441 1.241 . S
O446 Co434 2.137 . S
O446 C437 1.247 . S
O447 Co434 2.244 . S
O447 C437 1.272 . S
O447 Co439 2.135 . S
Co448 O449 2.216 . S
Co448 O450 2.091 . S
Co448 O452 2.004 . S
Co448 O458 2.021 . S
Co448 O460 2.137 . S
Co448 O461 2.244 . S
O449 Co448 2.216 . S
O449 C456 1.247 . S
O450 Co448 2.091 . S
O450 C456 1.261 . S
C451 O460 1.247 . S
C451 O461 1.272 . S
O452 Co448 2.004 . S
O452 C457 1.259 . S
Co453 O454 2.061 . S
Co453 O459 2.052 . S
Co453 O461 2.135 . S
O454 Co453 2.061 . S
O454 C457 1.235 . S
C455 O458 1.238 . S
C455 O459 1.241 . S
C456 O449 1.247 . S
C456 O450 1.261 . S
C457 O452 1.259 . S
C457 O454 1.235 . S
O458 Co448 2.021 . S
O458 C455 1.238 . S
O459 Co453 2.052 . S
O459 C455 1.241 . S
O460 Co448 2.137 . S
O460 C451 1.247 . S
O461 Co448 2.244 . S
O461 C451 1.272 . S
O461 Co453 2.135 . S
Co462 O463 2.216 . S
Co462 O464 2.091 . S
Co462 O466 2.004 . S
Co462 O472 2.021 . S
Co462 O474 2.137 . S
Co462 O475 2.244 . S
O463 Co462 2.216 . S
O463 C470 1.247 . S
O464 Co462 2.091 . S
O464 C470 1.261 . S
C465 O474 1.247 . S
C465 O475 1.272 . S
O466 Co462 2.004 . S
O466 C471 1.259 . S
Co467 O468 2.061 . S
Co467 O473 2.052 . S
Co467 O475 2.135 . S
O468 Co467 2.061 . S
O468 C471 1.235 . S
C469 O472 1.238 . S
C469 O473 1.241 . S
C470 O463 1.247 . S
C470 O464 1.261 . S
C471 O466 1.259 . S
C471 O468 1.235 . S
O472 Co462 2.021 . S
O472 C469 1.238 . S
O473 Co467 2.052 . S
O473 C469 1.241 . S
O474 Co462 2.137 . S
O474 C465 1.247 . S
O475 Co462 2.244 . S
O475 C465 1.272 . S
O475 Co467 2.135 . S
Co476 O477 2.216 . S
Co476 O478 2.091 . S
Co476 O480 2.004 . S
Co476 O486 2.021 . S
Co476 O488 2.137 . S
Co476 O489 2.244 . S
O477 Co476 2.216 . S
O477 C484 1.247 . S
O478 Co476 2.091 . S
O478 C484 1.261 . S
C479 O488 1.247 . S
C479 O489 1.272 . S
O480 Co476 2.004 . S
O480 C485 1.259 . S
Co481 O482 2.061 . S
Co481 O487 2.052 . S
Co481 O489 2.135 . S
O482 Co481 2.061 . S
O482 C485 1.235 . S
C483 O486 1.238 . S
C483 O487 1.241 . S
C484 O477 1.247 . S
C484 O478 1.261 . S
C485 O480 1.259 . S
C485 O482 1.235 . S
O486 Co476 2.021 . S
O486 C483 1.238 . S
O487 Co481 2.052 . S
O487 C483 1.241 . S
O488 Co476 2.137 . S
O488 C479 1.247 . S
O489 Co476 2.244 . S
O489 C479 1.272 . S
O489 Co481 2.135 . S
Co490 O491 2.216 . S
Co490 O492 2.091 . S
Co490 O494 2.004 . S
Co490 O500 2.021 . S
Co490 O502 2.137 . S
Co490 O503 2.244 . S
O491 Co490 2.216 . S
O491 C498 1.247 . S
O492 Co490 2.091 . S
O492 C498 1.261 . S
C493 O502 1.247 . S
C493 O503 1.272 . S
O494 Co490 2.004 . S
O494 C499 1.259 . S
Co495 O496 2.061 . S
Co495 O501 2.052 . S
Co495 O503 2.135 . S
O496 Co495 2.061 . S
O496 C499 1.235 . S
C497 O500 1.238 . S
C497 O501 1.241 . S
C498 O491 1.247 . S
C498 O492 1.261 . S
C499 O494 1.259 . S
C499 O496 1.235 . S
O500 Co490 2.021 . S
O500 C497 1.238 . S
O501 Co495 2.052 . S
O501 C497 1.241 . S
O502 Co490 2.137 . S
O502 C493 1.247 . S
O503 Co490 2.244 . S
O503 C493 1.272 . S
O503 Co495 2.135 . S
H504 C512 0.950 . S
H505 C517 0.950 . S
H506 C514 0.950 . S
H507 C516 0.950 . S
H508 C518 0.950 . S
H509 C520 0.950 . S
H510 C522 0.950 . S
H511 C523 0.950 . S
C512 H504 0.950 . S
C512 C513 1.386 . S
C512 C514 1.391 . S
C513 C512 1.386 . S
C513 C517 1.393 . S
C514 H506 0.950 . S
C514 C512 1.391 . S
C514 C515 1.400 . S
C515 C514 1.400 . S
C515 C516 1.398 . S
C515 C521 1.491 . S
C516 H507 0.950 . S
C516 C515 1.398 . S
C516 C517 1.391 . S
C517 H505 0.950 . S
C517 C513 1.393 . S
C517 C516 1.391 . S
C518 H508 0.950 . S
C518 C519 1.386 . S
C518 C520 1.391 . S
C519 C518 1.386 . S
C519 C523 1.393 . S
C520 H509 0.950 . S
C520 C518 1.391 . S
C520 C521 1.400 . S
C521 C515 1.491 . S
C521 C520 1.400 . S
C521 C522 1.398 . S
C522 H510 0.950 . S
C522 C521 1.398 . S
C522 C523 1.391 . S
C523 H511 0.950 . S
C523 C519 1.393 . S
C523 C522 1.391 . S
H524 C532 0.950 . S
H525 C537 0.950 . S
H526 C534 0.950 . S
H527 C536 0.950 . S
H528 C538 0.950 . S
H529 C540 0.950 . S
H530 C542 0.950 . S
H531 C543 0.950 . S
C532 H524 0.950 . S
C532 C533 1.386 . S
C532 C534 1.391 . S
C533 C532 1.386 . S
C533 C537 1.393 . S
C534 H526 0.950 . S
C534 C532 1.391 . S
C534 C535 1.400 . S
C535 C534 1.400 . S
C535 C536 1.398 . S
C535 C541 1.491 . S
C536 H527 0.950 . S
C536 C535 1.398 . S
C536 C537 1.391 . S
C537 H525 0.950 . S
C537 C533 1.393 . S
C537 C536 1.391 . S
C538 H528 0.950 . S
C538 C539 1.386 . S
C538 C540 1.391 . S
C539 C538 1.386 . S
C539 C543 1.393 . S
C540 H529 0.950 . S
C540 C538 1.391 . S
C540 C541 1.400 . S
C541 C535 1.491 . S
C541 C540 1.400 . S
C541 C542 1.398 . S
C542 H530 0.950 . S
C542 C541 1.398 . S
C542 C543 1.391 . S
C543 H531 0.950 . S
C543 C539 1.393 . S
C543 C542 1.391 . S
H544 C552 0.950 . S
H545 C557 0.950 . S
H546 C554 0.950 . S
H547 C556 0.950 . S
H548 C558 0.950 . S
H549 C560 0.950 . S
H550 C562 0.950 . S
H551 C563 0.950 . S
C552 H544 0.950 . S
C552 C553 1.386 . S
C552 C554 1.391 . S
C553 C552 1.386 . S
C553 C557 1.393 . S
C554 H546 0.950 . S
C554 C552 1.391 . S
C554 C555 1.400 . S
C555 C554 1.400 . S
C555 C556 1.398 . S
C555 C561 1.491 . S
C556 H547 0.950 . S
C556 C555 1.398 . S
C556 C557 1.391 . S
C557 H545 0.950 . S
C557 C553 1.393 . S
C557 C556 1.391 . S
C558 H548 0.950 . S
C558 C559 1.386 . S
C558 C560 1.391 . S
C559 C558 1.386 . S
C559 C563 1.393 . S
C560 H549 0.950 . S
C560 C558 1.391 . S
C560 C561 1.400 . S
C561 C555 1.491 . S
C561 C560 1.400 . S
C561 C562 1.398 . S
C562 H550 0.950 . S
C562 C561 1.398 . S
C562 C563 1.391 . S
C563 H551 0.950 . S
C563 C559 1.393 . S
C563 C562 1.391 . S
H564 C572 0.950 . S
H565 C577 0.950 . S
H566 C574 0.950 . S
H567 C576 0.950 . S
H568 C578 0.950 . S
H569 C580 0.950 . S
H570 C582 0.950 . S
H571 C583 0.950 . S
C572 H564 0.950 . S
C572 C573 1.386 . S
C572 C574 1.391 . S
C573 C572 1.386 . S
C573 C577 1.393 . S
C574 H566 0.950 . S
C574 C572 1.391 . S
C574 C575 1.400 . S
C575 C574 1.400 . S
C575 C576 1.398 . S
C575 C581 1.491 . S
C576 H567 0.950 . S
C576 C575 1.398 . S
C576 C577 1.391 . S
C577 H565 0.950 . S
C577 C573 1.393 . S
C577 C576 1.391 . S
C578 H568 0.950 . S
C578 C579 1.386 . S
C578 C580 1.391 . S
C579 C578 1.386 . S
C579 C583 1.393 . S
C580 H569 0.950 . S
C580 C578 1.391 . S
C580 C581 1.400 . S
C581 C575 1.491 . S
C581 C580 1.400 . S
C581 C582 1.398 . S
C582 H570 0.950 . S
C582 C581 1.398 . S
C582 C583 1.391 . S
C583 H571 0.950 . S
C583 C579 1.393 . S
C583 C582 1.391 . S
H584 C592 0.950 . S
H585 C597 0.950 . S
H586 C594 0.950 . S
H587 C596 0.950 . S
H588 C598 0.950 . S
H589 C600 0.950 . S
H590 C602 0.950 . S
H591 C603 0.950 . S
C592 H584 0.950 . S
C592 C593 1.386 . S
C592 C594 1.391 . S
C593 C592 1.386 . S
C593 C597 1.393 . S
C594 H586 0.950 . S
C594 C592 1.391 . S
C594 C595 1.400 . S
C595 C594 1.400 . S
C595 C596 1.398 . S
C595 C601 1.491 . S
C596 H587 0.950 . S
C596 C595 1.398 . S
C596 C597 1.391 . S
C597 H585 0.950 . S
C597 C593 1.393 . S
C597 C596 1.391 . S
C598 H588 0.950 . S
C598 C599 1.386 . S
C598 C600 1.391 . S
C599 C598 1.386 . S
C599 C603 1.393 . S
C600 H589 0.950 . S
C600 C598 1.391 . S
C600 C601 1.400 . S
C601 C595 1.491 . S
C601 C600 1.400 . S
C601 C602 1.398 . S
C602 H590 0.950 . S
C602 C601 1.398 . S
C602 C603 1.391 . S
C603 H591 0.950 . S
C603 C599 1.393 . S
C603 C602 1.391 . S
H604 C612 0.950 . S
H605 C617 0.950 . S
H606 C614 0.950 . S
H607 C616 0.950 . S
H608 C618 0.950 . S
H609 C620 0.950 . S
H610 C622 0.950 . S
H611 C623 0.950 . S
C612 H604 0.950 . S
C612 C613 1.386 . S
C612 C614 1.391 . S
C613 C612 1.386 . S
C613 C617 1.393 . S
C614 H606 0.950 . S
C614 C612 1.391 . S
C614 C615 1.400 . S
C615 C614 1.400 . S
C615 C616 1.398 . S
C615 C621 1.491 . S
C616 H607 0.950 . S
C616 C615 1.398 . S
C616 C617 1.391 . S
C617 H605 0.950 . S
C617 C613 1.393 . S
C617 C616 1.391 . S
C618 H608 0.950 . S
C618 C619 1.386 . S
C618 C620 1.391 . S
C619 C618 1.386 . S
C619 C623 1.393 . S
C620 H609 0.950 . S
C620 C618 1.391 . S
C620 C621 1.400 . S
C621 C615 1.491 . S
C621 C620 1.400 . S
C621 C622 1.398 . S
C622 H610 0.950 . S
C622 C621 1.398 . S
C622 C623 1.391 . S
C623 H611 0.950 . S
C623 C619 1.393 . S
C623 C622 1.391 . S
H624 C632 0.950 . S
H625 C637 0.950 . S
H626 C634 0.950 . S
H627 C636 0.950 . S
H628 C638 0.950 . S
H629 C640 0.950 . S
H630 C642 0.950 . S
H631 C643 0.950 . S
C632 H624 0.950 . S
C632 C633 1.386 . S
C632 C634 1.391 . S
C633 C632 1.386 . S
C633 C637 1.393 . S
C634 H626 0.950 . S
C634 C632 1.391 . S
C634 C635 1.400 . S
C635 C634 1.400 . S
C635 C636 1.398 . S
C635 C641 1.491 . S
C636 H627 0.950 . S
C636 C635 1.398 . S
C636 C637 1.391 . S
C637 H625 0.950 . S
C637 C633 1.393 . S
C637 C636 1.391 . S
C638 H628 0.950 . S
C638 C639 1.386 . S
C638 C640 1.391 . S
C639 C638 1.386 . S
C639 C643 1.393 . S
C640 H629 0.950 . S
C640 C638 1.391 . S
C640 C641 1.400 . S
C641 C635 1.491 . S
C641 C640 1.400 . S
C641 C642 1.398 . S
C642 H630 0.950 . S
C642 C641 1.398 . S
C642 C643 1.391 . S
C643 H631 0.950 . S
C643 C639 1.393 . S
C643 C642 1.391 . S
H644 C652 0.950 . S
H645 C657 0.950 . S
H646 C654 0.950 . S
H647 C656 0.950 . S
H648 C658 0.950 . S
H649 C660 0.950 . S
H650 C662 0.950 . S
H651 C663 0.950 . S
C652 H644 0.950 . S
C652 C653 1.386 . S
C652 C654 1.391 . S
C653 C652 1.386 . S
C653 C657 1.393 . S
C654 H646 0.950 . S
C654 C652 1.391 . S
C654 C655 1.400 . S
C655 C654 1.400 . S
C655 C656 1.398 . S
C655 C661 1.491 . S
C656 H647 0.950 . S
C656 C655 1.398 . S
C656 C657 1.391 . S
C657 H645 0.950 . S
C657 C653 1.393 . S
C657 C656 1.391 . S
C658 H648 0.950 . S
C658 C659 1.386 . S
C658 C660 1.391 . S
C659 C658 1.386 . S
C659 C663 1.393 . S
C660 H649 0.950 . S
C660 C658 1.391 . S
C660 C661 1.400 . S
C661 C655 1.491 . S
C661 C660 1.400 . S
C661 C662 1.398 . S
C662 H650 0.950 . S
C662 C661 1.398 . S
C662 C663 1.391 . S
C663 H651 0.950 . S
C663 C659 1.393 . S
C663 C662 1.391 . S
H664 C672 0.950 . S
H665 C677 0.950 . S
H666 C674 0.950 . S
H667 C676 0.950 . S
H668 C678 0.950 . S
H669 C680 0.950 . S
H670 C682 0.950 . S
H671 C683 0.950 . S
C672 H664 0.950 . S
C672 C673 1.386 . S
C672 C674 1.391 . S
C673 C672 1.386 . S
C673 C677 1.393 . S
C674 H666 0.950 . S
C674 C672 1.391 . S
C674 C675 1.400 . S
C675 C674 1.400 . S
C675 C676 1.398 . S
C675 C681 1.491 . S
C676 H667 0.950 . S
C676 C675 1.398 . S
C676 C677 1.391 . S
C677 H665 0.950 . S
C677 C673 1.393 . S
C677 C676 1.391 . S
C678 H668 0.950 . S
C678 C679 1.386 . S
C678 C680 1.391 . S
C679 C678 1.386 . S
C679 C683 1.393 . S
C680 H669 0.950 . S
C680 C678 1.391 . S
C680 C681 1.400 . S
C681 C675 1.491 . S
C681 C680 1.400 . S
C681 C682 1.398 . S
C682 H670 0.950 . S
C682 C681 1.398 . S
C682 C683 1.391 . S
C683 H671 0.950 . S
C683 C679 1.393 . S
C683 C682 1.391 . S
H684 C692 0.950 . S
H685 C697 0.950 . S
H686 C694 0.950 . S
H687 C696 0.950 . S
H688 C698 0.950 . S
H689 C700 0.950 . S
H690 C702 0.950 . S
H691 C703 0.950 . S
C692 H684 0.950 . S
C692 C693 1.386 . S
C692 C694 1.391 . S
C693 C692 1.386 . S
C693 C697 1.393 . S
C694 H686 0.950 . S
C694 C692 1.391 . S
C694 C695 1.400 . S
C695 C694 1.400 . S
C695 C696 1.398 . S
C695 C701 1.491 . S
C696 H687 0.950 . S
C696 C695 1.398 . S
C696 C697 1.391 . S
C697 H685 0.950 . S
C697 C693 1.393 . S
C697 C696 1.391 . S
C698 H688 0.950 . S
C698 C699 1.386 . S
C698 C700 1.391 . S
C699 C698 1.386 . S
C699 C703 1.393 . S
C700 H689 0.950 . S
C700 C698 1.391 . S
C700 C701 1.400 . S
C701 C695 1.491 . S
C701 C700 1.400 . S
C701 C702 1.398 . S
C702 H690 0.950 . S
C702 C701 1.398 . S
C702 C703 1.391 . S
C703 H691 0.950 . S
C703 C699 1.393 . S
C703 C702 1.391 . S
H704 C712 0.950 . S
H705 C717 0.950 . S
H706 C714 0.950 . S
H707 C716 0.950 . S
H708 C718 0.950 . S
H709 C720 0.950 . S
H710 C722 0.950 . S
H711 C723 0.950 . S
C712 H704 0.950 . S
C712 C713 1.386 . S
C712 C714 1.391 . S
C713 C712 1.386 . S
C713 C717 1.393 . S
C714 H706 0.950 . S
C714 C712 1.391 . S
C714 C715 1.400 . S
C715 C714 1.400 . S
C715 C716 1.398 . S
C715 C721 1.491 . S
C716 H707 0.950 . S
C716 C715 1.398 . S
C716 C717 1.391 . S
C717 H705 0.950 . S
C717 C713 1.393 . S
C717 C716 1.391 . S
C718 H708 0.950 . S
C718 C719 1.386 . S
C718 C720 1.391 . S
C719 C718 1.386 . S
C719 C723 1.393 . S
C720 H709 0.950 . S
C720 C718 1.391 . S
C720 C721 1.400 . S
C721 C715 1.491 . S
C721 C720 1.400 . S
C721 C722 1.398 . S
C722 H710 0.950 . S
C722 C721 1.398 . S
C722 C723 1.391 . S
C723 H711 0.950 . S
C723 C719 1.393 . S
C723 C722 1.391 . S
H724 C732 0.950 . S
H725 C737 0.950 . S
H726 C734 0.950 . S
H727 C736 0.950 . S
H728 C738 0.950 . S
H729 C740 0.950 . S
H730 C742 0.950 . S
H731 C743 0.950 . S
C732 H724 0.950 . S
C732 C733 1.386 . S
C732 C734 1.391 . S
C733 C732 1.386 . S
C733 C737 1.393 . S
C734 H726 0.950 . S
C734 C732 1.391 . S
C734 C735 1.400 . S
C735 C734 1.400 . S
C735 C736 1.398 . S
C735 C741 1.491 . S
C736 H727 0.950 . S
C736 C735 1.398 . S
C736 C737 1.391 . S
C737 H725 0.950 . S
C737 C733 1.393 . S
C737 C736 1.391 . S
C738 H728 0.950 . S
C738 C739 1.386 . S
C738 C740 1.391 . S
C739 C738 1.386 . S
C739 C743 1.393 . S
C740 H729 0.950 . S
C740 C738 1.391 . S
C740 C741 1.400 . S
C741 C735 1.491 . S
C741 C740 1.400 . S
C741 C742 1.398 . S
C742 H730 0.950 . S
C742 C741 1.398 . S
C742 C743 1.391 . S
C743 H731 0.950 . S
C743 C739 1.393 . S
C743 C742 1.391 . S
H744 C752 0.950 . S
H745 C757 0.950 . S
H746 C754 0.950 1_455 S
H747 C756 0.950 . S
H748 C758 0.950 . S
H749 C760 0.950 1_655 S
H750 C762 0.950 . S
H751 C763 0.950 . S
C752 H744 0.950 . S
C752 C753 1.386 . S
C752 C754 1.391 . S
C753 C752 1.386 . S
C753 C757 1.393 . S
C754 H746 0.950 1_655 S
C754 C752 1.391 . S
C754 C755 1.400 . S
C755 C754 1.400 . S
C755 C756 1.398 . S
C755 C761 1.491 1_655 S
C756 H747 0.950 . S
C756 C755 1.398 . S
C756 C757 1.391 . S
C757 H745 0.950 . S
C757 C753 1.393 . S
C757 C756 1.391 . S
C758 H748 0.950 . S
C758 C759 1.386 . S
C758 C760 1.391 . S
C759 C758 1.386 . S
C759 C763 1.393 . S
C760 H749 0.950 1_455 S
C760 C758 1.391 . S
C760 C761 1.400 . S
C761 C755 1.491 1_455 S
C761 C760 1.400 . S
C761 C762 1.398 . S
C762 H750 0.950 . S
C762 C761 1.398 . S
C762 C763 1.391 . S
C763 H751 0.950 . S
C763 C759 1.393 . S
C763 C762 1.391 . S
H764 C772 0.950 . S
H765 C777 0.950 . S
H766 C774 0.950 . S
H767 C776 0.950 . S
H768 C778 0.950 . S
H769 C780 0.950 . S
H770 C782 0.950 . S
H771 C783 0.950 . S
C772 H764 0.950 . S
C772 C773 1.386 . S
C772 C774 1.391 . S
C773 C772 1.386 . S
C773 C777 1.393 . S
C774 H766 0.950 . S
C774 C772 1.391 . S
C774 C775 1.400 . S
C775 C774 1.400 . S
C775 C776 1.398 . S
C775 C781 1.491 . S
C776 H767 0.950 . S
C776 C775 1.398 . S
C776 C777 1.391 . S
C777 H765 0.950 . S
C777 C773 1.393 . S
C777 C776 1.391 . S
C778 H768 0.950 . S
C778 C779 1.386 . S
C778 C780 1.391 . S
C779 C778 1.386 . S
C779 C783 1.393 . S
C780 H769 0.950 . S
C780 C778 1.391 . S
C780 C781 1.400 . S
C781 C775 1.491 . S
C781 C780 1.400 . S
C781 C782 1.398 . S
C782 H770 0.950 . S
C782 C781 1.398 . S
C782 C783 1.391 . S
C783 H771 0.950 . S
C783 C779 1.393 . S
C783 C782 1.391 . S
H784 C792 0.950 . S
H785 C797 0.950 . S
H786 C794 0.950 . S
H787 C796 0.950 . S
H788 C798 0.950 . S
H789 C800 0.950 . S
H790 C802 0.950 . S
H791 C803 0.950 . S
C792 H784 0.950 . S
C792 C793 1.386 . S
C792 C794 1.391 . S
C793 C792 1.386 . S
C793 C797 1.393 . S
C794 H786 0.950 . S
C794 C792 1.391 . S
C794 C795 1.400 . S
C795 C794 1.400 . S
C795 C796 1.398 . S
C795 C801 1.491 1_545 S
C796 H787 0.950 . S
C796 C795 1.398 . S
C796 C797 1.391 . S
C797 H785 0.950 . S
C797 C793 1.393 . S
C797 C796 1.391 . S
C798 H788 0.950 . S
C798 C799 1.386 . S
C798 C800 1.391 . S
C799 C798 1.386 . S
C799 C803 1.393 . S
C800 H789 0.950 . S
C800 C798 1.391 . S
C800 C801 1.400 . S
C801 C795 1.491 1_565 S
C801 C800 1.400 . S
C801 C802 1.398 . S
C802 H790 0.950 . S
C802 C801 1.398 . S
C802 C803 1.391 . S
C803 H791 0.950 . S
C803 C799 1.393 . S
C803 C802 1.391 . S
H804 C812 0.950 . S
H805 C817 0.950 . S
H806 C814 0.950 1_565 S
H807 C816 0.969 . S
H808 C818 0.950 . S
H809 C820 0.947 1_545 S
H810 C822 0.950 . S
H811 C823 0.950 . S
C812 H804 0.950 . S
C812 C813 1.386 . S
C812 C814 1.391 . S
C813 C812 1.386 . S
C813 C817 1.393 . S
C814 H806 0.950 1_545 S
C814 C812 1.391 . S
C814 C815 1.400 . S
C815 C814 1.400 . S
C815 C816 1.398 . S
C815 C821 1.491 1_546 S
C816 H807 0.969 . S
C816 C815 1.398 . S
C816 C817 1.391 . S
C817 H805 0.950 . S
C817 C813 1.393 . S
C817 C816 1.391 . S
C818 H808 0.950 . S
C818 C819 1.386 . S
C818 C820 1.395 . S
C819 C818 1.386 . S
C819 C823 1.393 . S
C820 H809 0.947 1_565 S
C820 C818 1.395 . S
C820 C821 1.399 . S
C821 C815 1.491 1_564 S
C821 C820 1.399 . S
C821 C822 1.398 . S
C822 H810 0.950 . S
C822 C821 1.398 . S
C822 C823 1.391 . S
C823 H811 0.950 . S
C823 C819 1.393 . S
C823 C822 1.391 . S
H824 C832 0.950 . S
H825 C837 0.950 . S
H826 C834 0.950 . S
H827 C836 0.950 1_455 S
H828 C838 0.950 . S
H829 C840 0.950 . S
H830 C842 0.950 1_655 S
H831 C843 0.950 . S
C832 H824 0.950 . S
C832 C833 1.386 . S
C832 C834 1.391 . S
C833 C832 1.386 . S
C833 C837 1.393 . S
C834 H826 0.950 . S
C834 C832 1.391 . S
C834 C835 1.400 . S
C835 C834 1.400 . S
C835 C836 1.398 . S
C835 C841 1.491 1_656 S
C836 H827 0.950 1_655 S
C836 C835 1.398 . S
C836 C837 1.391 . S
C837 H825 0.950 . S
C837 C833 1.393 . S
C837 C836 1.391 . S
C838 H828 0.950 . S
C838 C839 1.386 . S
C838 C840 1.391 . S
C839 C838 1.386 . S
C839 C843 1.393 . S
C840 H829 0.950 . S
C840 C838 1.391 . S
C840 C841 1.400 . S
C841 C835 1.491 1_454 S
C841 C840 1.400 . S
C841 C842 1.398 . S
C842 H830 0.950 1_455 S
C842 C841 1.398 . S
C842 C843 1.391 . S
C843 H831 0.950 . S
C843 C839 1.393 . S
C843 C842 1.391 . S
H844 C852 0.950 . S
H845 C857 0.950 . S
H846 C854 0.950 . S
H847 C856 0.950 . S
H848 C858 0.950 . S
H849 C860 0.950 . S
H850 C862 0.950 . S
H851 C863 0.950 . S
C852 H844 0.950 . S
C852 C853 1.386 . S
C852 C854 1.391 . S
C853 C852 1.386 . S
C853 C857 1.393 . S
C854 H846 0.950 . S
C854 C852 1.391 . S
C854 C855 1.400 . S
C855 C854 1.400 . S
C855 C856 1.398 . S
C855 C861 1.491 1_556 S
C856 H847 0.950 . S
C856 C855 1.398 . S
C856 C857 1.391 . S
C857 H845 0.950 . S
C857 C853 1.393 . S
C857 C856 1.391 . S
C858 H848 0.950 . S
C858 C859 1.386 . S
C858 C860 1.391 . S
C859 C858 1.386 . S
C859 C863 1.393 . S
C860 H849 0.950 . S
C860 C858 1.391 . S
C860 C861 1.400 . S
C861 C855 1.491 1_554 S
C861 C860 1.400 . S
C861 C862 1.398 . S
C862 H850 0.950 . S
C862 C861 1.398 . S
C862 C863 1.391 . S
C863 H851 0.950 . S
C863 C859 1.393 . S
C863 C862 1.391 . S
H864 C872 0.950 . S
H865 C877 0.950 1_565 S
H866 C874 0.950 . S
H867 C876 0.950 . S
H868 C878 0.950 . S
H869 C880 0.950 1_556 S
H870 C882 0.950 . S
H871 C883 0.950 . S
C872 H864 0.950 . S
C872 C873 1.386 1_545 S
C872 C874 1.391 . S
C873 C872 1.386 1_565 S
C873 C877 1.393 1_565 S
C874 H866 0.950 . S
C874 C872 1.391 . S
C874 C875 1.400 . S
C875 C874 1.400 . S
C875 C876 1.398 . S
C875 C881 1.491 . S
C876 H867 0.950 . S
C876 C875 1.398 . S
C876 C877 1.391 . S
C877 H865 0.950 1_545 S
C877 C873 1.393 1_545 S
C877 C876 1.391 . S
C878 H868 0.950 . S
C878 C879 1.386 . S
C878 C880 1.391 . S
C879 C878 1.386 . S
C879 C883 1.393 . S
C880 H869 0.950 1_554 S
C880 C878 1.391 . S
C880 C881 1.400 1_554 S
C881 C875 1.491 . S
C881 C880 1.400 1_556 S
C881 C882 1.398 . S
C882 H870 0.950 . S
C882 C881 1.398 . S
C882 C883 1.391 1_556 S
C883 H871 0.950 . S
C883 C879 1.393 . S
C883 C882 1.391 1_554 S
H884 C892 0.950 . S
H885 C897 0.951 1_455 S
H886 C894 0.950 . S
H887 C896 0.950 . S
H888 C898 0.950 . S
H889 C900 0.950 . S
H890 C902 0.950 . S
H891 C903 0.950 . S
C892 H884 0.950 . S
C892 C893 1.386 1_655 S
C892 C894 1.391 . S
C893 C892 1.386 1_455 S
C893 C897 1.395 1_455 S
C894 H886 0.950 . S
C894 C892 1.391 . S
C894 C895 1.400 . S
C895 C894 1.400 . S
C895 C896 1.398 . S
C895 C901 1.491 . S
C896 H887 0.950 . S
C896 C895 1.398 . S
C896 C897 1.387 . S
C897 H885 0.951 1_655 S
C897 C893 1.395 1_655 S
C897 C896 1.387 . S
C898 H888 0.950 . S
C898 C899 1.386 . S
C898 C900 1.391 . S
C899 C898 1.386 . S
C899 C903 1.393 1_554 S
C900 H889 0.950 . S
C900 C898 1.391 . S
C900 C901 1.400 1_554 S
C901 C895 1.491 . S
C901 C900 1.400 1_556 S
C901 C902 1.398 . S
C902 H890 0.950 . S
C902 C901 1.398 . S
C902 C903 1.391 . S
C903 H891 0.950 . S
C903 C899 1.393 1_556 S
C903 C902 1.391 . S
H904 C912 0.950 . S
H905 C917 0.950 . S
H906 C914 0.950 . S
H907 C916 0.950 . S
H908 C918 0.950 . S
H909 C920 0.950 . S
H910 C922 0.950 1_554 S
H911 C923 0.950 . S
C912 H904 0.950 . S
C912 C913 1.386 . S
C912 C914 1.391 . S
C913 C912 1.386 . S
C913 C917 1.393 1_554 S
C914 H906 0.950 . S
C914 C912 1.391 . S
C914 C915 1.400 1_554 S
C915 C914 1.400 1_556 S
C915 C916 1.398 . S
C915 C921 1.491 . S
C916 H907 0.950 . S
C916 C915 1.398 . S
C916 C917 1.391 . S
C917 H905 0.950 . S
C917 C913 1.393 1_556 S
C917 C916 1.391 . S
C918 H908 0.950 . S
C918 C919 1.386 . S
C918 C920 1.391 . S
C919 C918 1.386 . S
C919 C923 1.393 . S
C920 H909 0.950 . S
C920 C918 1.391 . S
C920 C921 1.400 . S
C921 C915 1.491 . S
C921 C920 1.400 . S
C921 C922 1.398 . S
C922 H910 0.950 1_556 S
C922 C921 1.398 . S
C922 C923 1.391 . S
C923 H911 0.950 . S
C923 C919 1.393 . S
C923 C922 1.391 . S
H924 C932 0.950 . S
H925 C937 0.950 . S
H926 C934 0.950 . S
H927 C936 0.950 . S
H928 C938 0.950 . S
H929 C940 0.950 . S
H930 C942 0.950 . S
H931 C943 0.950 . S
C932 H924 0.950 . S
C932 C933 1.386 1_455 S
C932 C934 1.391 . S
C933 C932 1.386 1_655 S
C933 C937 1.393 . S
C934 H926 0.950 . S
C934 C932 1.391 . S
C934 C935 1.400 . S
C935 C934 1.400 . S
C935 C936 1.398 . S
C935 C941 1.491 . S
C936 H927 0.950 . S
C936 C935 1.398 . S
C936 C937 1.391 1_455 S
C937 H925 0.950 . S
C937 C933 1.393 . S
C937 C936 1.391 1_655 S
C938 H928 0.950 . S
C938 C939 1.386 . S
C938 C940 1.391 . S
C939 C938 1.386 . S
C939 C943 1.393 . S
C940 H929 0.950 . S
C940 C938 1.391 . S
C940 C941 1.400 . S
C941 C935 1.491 . S
C941 C940 1.400 . S
C941 C942 1.398 . S
C942 H930 0.950 . S
C942 C941 1.398 . S
C942 C943 1.391 . S
C943 H931 0.950 . S
C943 C939 1.393 . S
C943 C942 1.391 . S
H944 C952 0.950 . S
H945 C957 0.950 . S
H946 C954 0.950 . S
H947 C956 0.950 . S
H948 C958 0.950 . S
H949 C960 0.950 . S
H950 C962 0.950 . S
H951 C963 0.950 . S
C952 H944 0.950 . S
C952 C953 1.386 . S
C952 C954 1.391 . S
C953 C952 1.386 . S
C953 C957 1.393 . S
C954 H946 0.950 . S
C954 C952 1.391 . S
C954 C955 1.400 . S
C955 C954 1.400 . S
C955 C956 1.398 . S
C955 C961 1.491 . S
C956 H947 0.950 . S
C956 C955 1.398 . S
C956 C957 1.391 . S
C957 H945 0.950 . S
C957 C953 1.393 . S
C957 C956 1.391 . S
C958 H948 0.950 . S
C958 C959 1.386 . S
C958 C960 1.391 . S
C959 C958 1.386 . S
C959 C963 1.393 . S
C960 H949 0.950 . S
C960 C958 1.391 . S
C960 C961 1.400 . S
C961 C955 1.491 . S
C961 C960 1.400 . S
C961 C962 1.398 . S
C962 H950 0.950 . S
C962 C961 1.398 . S
C962 C963 1.391 . S
C963 H951 0.950 . S
C963 C959 1.393 . S
C963 C962 1.391 . S
H964 C972 0.950 . S
H965 C977 0.949 . S
H966 C974 0.950 . S
H967 C976 0.950 . S
H968 C978 0.950 . S
H969 C980 0.950 . S
H970 C982 0.950 . S
H971 C983 0.950 . S
C972 H964 0.950 . S
C972 C973 1.386 1_565 S
C972 C974 1.391 . S
C973 C972 1.386 1_545 S
C973 C977 1.393 . S
C974 H966 0.950 . S
C974 C972 1.391 . S
C974 C975 1.400 . S
C975 C974 1.400 . S
C975 C976 1.398 . S
C975 C981 1.491 . S
C976 H967 0.950 . S
C976 C975 1.398 . S
C976 C977 1.392 1_565 S
C977 H965 0.949 . S
C977 C973 1.393 . S
C977 C976 1.392 1_545 S
C978 H968 0.950 . S
C978 C979 1.386 . S
C978 C980 1.391 . S
C979 C978 1.386 . S
C979 C983 1.393 . S
C980 H969 0.950 . S
C980 C978 1.391 . S
C980 C981 1.400 . S
C981 C975 1.491 . S
C981 C980 1.400 . S
C981 C982 1.398 . S
C982 H970 0.950 . S
C982 C981 1.398 . S
C982 C983 1.391 . S
C983 H971 0.950 . S
C983 C979 1.393 . S
C983 C982 1.391 . S
H984 C992 0.950 . S
H985 C997 0.950 1_554 S
H986 C994 0.950 . S
H987 C996 0.950 . S
H988 C998 0.950 . S
H989 C1000 0.950 . S
H990 C1002 0.950 . S
H991 C1003 0.950 . S
C992 H984 0.950 . S
C992 C993 1.386 . S
C992 C994 1.391 . S
C993 C992 1.386 . S
C993 C997 1.393 . S
C994 H986 0.950 . S
C994 C992 1.391 . S
C994 C995 1.400 . S
C995 C994 1.400 . S
C995 C996 1.398 1_556 S
C995 C1001 1.491 1_556 S
C996 H987 0.950 . S
C996 C995 1.398 1_554 S
C996 C997 1.391 1_554 S
C997 H985 0.950 1_556 S
C997 C993 1.393 . S
C997 C996 1.391 1_556 S
C998 H988 0.950 . S
C998 C999 1.386 1_565 S
C998 C1000 1.391 . S
C999 C998 1.386 1_545 S
C999 C1003 1.393 . S
C1000 H989 0.950 . S
C1000 C998 1.391 . S
C1000 C1001 1.400 . S
C1001 C995 1.491 1_554 S
C1001 C1000 1.400 . S
C1001 C1002 1.398 1_554 S
C1002 H990 0.950 . S
C1002 C1001 1.398 1_556 S
C1002 C1003 1.391 1_566 S
C1003 H991 0.950 . S
C1003 C999 1.393 . S
C1003 C1002 1.391 1_544 S
H1004 C1012 0.950 . S
H1005 C1017 0.949 . S
H1006 C1014 0.950 . S
H1007 C1016 0.950 . S
H1008 C1018 0.950 . S
H1009 C1020 0.950 . S
H1010 C1022 0.950 1_556 S
H1011 C1023 0.950 . S
C1012 H1004 0.950 . S
C1012 C1013 1.386 . S
C1012 C1014 1.391 . S
C1013 C1012 1.386 . S
C1013 C1017 1.393 . S
C1014 H1006 0.950 . S
C1014 C1012 1.391 . S
C1014 C1015 1.360 1_556 S
C1015 C1014 1.360 1_554 S
C1015 C1016 1.412 . S
C1015 C1021 1.518 . S
C1016 H1007 0.950 . S
C1016 C1015 1.412 . S
C1016 C1017 1.391 1_554 S
C1017 H1005 0.949 . S
C1017 C1013 1.393 . S
C1017 C1016 1.391 1_556 S
C1018 H1008 0.950 . S
C1018 C1019 1.386 1_455 S
C1018 C1020 1.391 . S
C1019 C1018 1.386 1_655 S
C1019 C1023 1.393 . S
C1020 H1009 0.950 . S
C1020 C1018 1.391 . S
C1020 C1021 1.400 . S
C1021 C1015 1.518 . S
C1021 C1020 1.400 . S
C1021 C1022 1.398 . S
C1022 H1010 0.950 1_554 S
C1022 C1021 1.398 . S
C1022 C1023 1.391 1_455 S
C1023 H1011 0.950 . S
C1023 C1019 1.393 . S
C1023 C1022 1.391 1_655 S
H1024 C1032 0.950 . S
H1025 C1037 0.939 1_554 S
H1026 C1034 0.950 . S
H1027 C1036 0.950 . S
H1028 C1038 0.950 . S
H1029 C1040 0.950 . S
H1030 C1042 0.950 . S
H1031 C1043 0.950 1_556 S
C1032 H1024 0.950 . S
C1032 C1033 1.386 . S
C1032 C1034 1.391 . S
C1033 C1032 1.386 . S
C1033 C1037 1.393 . S
C1034 H1026 0.950 . S
C1034 C1032 1.391 . S
C1034 C1035 1.400 . S
C1035 C1034 1.400 . S
C1035 C1036 1.398 1_556 S
C1035 C1041 1.491 1_556 S
C1036 H1027 0.950 . S
C1036 C1035 1.398 1_554 S
C1036 C1037 1.391 1_554 S
C1037 H1025 0.939 1_556 S
C1037 C1033 1.393 . S
C1037 C1036 1.391 1_556 S
C1038 H1028 0.950 . S
C1038 C1039 1.386 . S
C1038 C1040 1.391 . S
C1039 C1038 1.386 . S
C1039 C1043 1.393 . S
C1040 H1029 0.950 . S
C1040 C1038 1.391 . S
C1040 C1041 1.400 . S
C1041 C1035 1.491 1_554 S
C1041 C1040 1.400 . S
C1041 C1042 1.398 1_554 S
C1042 H1030 0.950 . S
C1042 C1041 1.398 1_556 S
C1042 C1043 1.391 1_556 S
C1043 H1031 0.950 1_554 S
C1043 C1039 1.393 . S
C1043 C1042 1.391 1_554 S
H1044 C1052 0.950 . S
H1045 C1057 0.950 . S
H1046 C1054 0.950 . S
H1047 C1056 0.950 . S
H1048 C1058 0.950 . S
H1049 C1060 0.950 . S
H1050 C1062 0.950 . S
H1051 C1063 0.950 . S
C1052 H1044 0.950 . S
C1052 C1053 1.386 . S
C1052 C1054 1.391 . S
C1053 C1052 1.386 . S
C1053 C1057 1.393 . S
C1054 H1046 0.950 . S
C1054 C1052 1.391 . S
C1054 C1055 1.400 . S
C1055 C1054 1.400 . S
C1055 C1056 1.398 . S
C1055 C1061 1.491 . S
C1056 H1047 0.950 . S
C1056 C1055 1.398 . S
C1056 C1057 1.391 . S
C1057 H1045 0.950 . S
C1057 C1053 1.393 . S
C1057 C1056 1.391 . S
C1058 H1048 0.950 . S
C1058 C1059 1.386 . S
C1058 C1060 1.391 1_455 S
C1059 C1058 1.386 . S
C1059 C1063 1.393 1_455 S
C1060 H1049 0.950 . S
C1060 C1058 1.391 1_655 S
C1060 C1061 1.400 . S
C1061 C1055 1.491 . S
C1061 C1060 1.400 . S
C1061 C1062 1.398 . S
C1062 H1050 0.950 . S
C1062 C1061 1.398 . S
C1062 C1063 1.391 . S
C1063 H1051 0.950 . S
C1063 C1059 1.393 1_655 S
C1063 C1062 1.391 . S
H1064 C1072 0.950 . S
H1065 C1077 0.950 . S
H1066 C1074 0.950 . S
H1067 C1076 0.950 . S
H1068 C1078 0.950 . S
H1069 C1080 0.950 . S
H1070 C1082 0.950 . S
H1071 C1083 0.950 . S
C1072 H1064 0.950 . S
C1072 C1073 1.386 . S
C1072 C1074 1.391 . S
C1073 C1072 1.386 . S
C1073 C1077 1.393 . S
C1074 H1066 0.950 . S
C1074 C1072 1.391 . S
C1074 C1075 1.400 . S
C1075 C1074 1.400 . S
C1075 C1076 1.398 . S
C1075 C1081 1.491 . S
C1076 H1067 0.950 . S
C1076 C1075 1.398 . S
C1076 C1077 1.391 . S
C1077 H1065 0.950 . S
C1077 C1073 1.393 . S
C1077 C1076 1.391 . S
C1078 H1068 0.950 . S
C1078 C1079 1.386 . S
C1078 C1080 1.391 . S
C1079 C1078 1.386 . S
C1079 C1083 1.393 . S
C1080 H1069 0.950 . S
C1080 C1078 1.391 . S
C1080 C1081 1.400 . S
C1081 C1075 1.491 . S
C1081 C1080 1.400 . S
C1081 C1082 1.398 . S
C1082 H1070 0.950 . S
C1082 C1081 1.398 . S
C1082 C1083 1.391 . S
C1083 H1071 0.950 . S
C1083 C1079 1.393 . S
C1083 C1082 1.391 . S
H1084 C1092 0.946 1_565 S
H1085 C1097 0.950 . S
H1086 C1094 0.950 . S
H1087 C1096 0.950 . S
H1088 C1098 0.950 . S
H1089 C1100 0.950 . S
H1090 C1102 0.950 . S
H1091 C1103 0.950 . S
C1092 H1084 0.946 1_545 S
C1092 C1093 1.371 1_545 S
C1092 C1094 1.411 . S
C1093 C1092 1.371 1_565 S
C1093 C1097 1.393 1_565 S
C1094 H1086 0.950 . S
C1094 C1092 1.411 . S
C1094 C1095 1.400 . S
C1095 C1094 1.400 . S
C1095 C1096 1.398 . S
C1095 C1101 1.491 . S
C1096 H1087 0.950 . S
C1096 C1095 1.398 . S
C1096 C1097 1.391 . S
C1097 H1085 0.950 . S
C1097 C1093 1.393 1_545 S
C1097 C1096 1.391 . S
C1098 H1088 0.950 . S
C1098 C1099 1.386 . S
C1098 C1100 1.391 . S
C1099 C1098 1.386 . S
C1099 C1103 1.393 . S
C1100 H1089 0.950 . S
C1100 C1098 1.391 . S
C1100 C1101 1.400 . S
C1101 C1095 1.491 . S
C1101 C1100 1.400 . S
C1101 C1102 1.398 . S
C1102 H1090 0.950 . S
C1102 C1101 1.398 . S
C1102 C1103 1.391 . S
C1103 H1091 0.950 . S
C1103 C1099 1.393 . S
C1103 C1102 1.391 . S
H1104 C1112 0.950 . S
H1105 C1117 0.950 . S
H1106 C1114 0.950 . S
H1107 C1116 0.950 . S
H1108 C1118 0.950 . S
H1109 C1120 0.950 . S
H1110 C1122 0.950 . S
H1111 C1123 0.950 . S
C1112 H1104 0.950 . S
C1112 C1113 1.386 . S
C1112 C1114 1.391 . S
C1113 C1112 1.386 . S
C1113 C1117 1.393 . S
C1114 H1106 0.950 . S
C1114 C1112 1.391 . S
C1114 C1115 1.400 . S
C1115 C1114 1.400 . S
C1115 C1116 1.398 . S
C1115 C1121 1.491 . S
C1116 H1107 0.950 . S
C1116 C1115 1.398 . S
C1116 C1117 1.391 . S
C1117 H1105 0.950 . S
C1117 C1113 1.393 . S
C1117 C1116 1.391 . S
C1118 H1108 0.950 . S
C1118 C1119 1.386 . S
C1118 C1120 1.391 . S
C1119 C1118 1.386 . S
C1119 C1123 1.393 . S
C1120 H1109 0.950 . S
C1120 C1118 1.391 . S
C1120 C1121 1.400 . S
C1121 C1115 1.491 . S
C1121 C1120 1.400 . S
C1121 C1122 1.398 . S
C1122 H1110 0.950 . S
C1122 C1121 1.398 . S
C1122 C1123 1.391 . S
C1123 H1111 0.950 . S
C1123 C1119 1.393 . S
C1123 C1122 1.391 . S
H1124 C1132 0.950 . S
H1125 C1137 0.950 . S
H1126 C1134 0.950 . S
H1127 C1136 0.950 . S
H1128 C1138 0.950 . S
H1129 C1140 0.950 . S
H1130 C1142 0.950 . S
H1131 C1143 0.950 . S
C1132 H1124 0.950 . S
C1132 C1133 1.386 . S
C1132 C1134 1.391 . S
C1133 C1132 1.386 . S
C1133 C1137 1.393 . S
C1134 H1126 0.950 . S
C1134 C1132 1.391 . S
C1134 C1135 1.400 . S
C1135 C1134 1.400 . S
C1135 C1136 1.398 . S
C1135 C1141 1.491 . S
C1136 H1127 0.950 . S
C1136 C1135 1.398 . S
C1136 C1137 1.391 . S
C1137 H1125 0.950 . S
C1137 C1133 1.393 . S
C1137 C1136 1.391 . S
C1138 H1128 0.950 . S
C1138 C1139 1.386 . S
C1138 C1140 1.391 . S
C1139 C1138 1.386 . S
C1139 C1143 1.393 . S
C1140 H1129 0.950 . S
C1140 C1138 1.391 . S
C1140 C1141 1.400 . S
C1141 C1135 1.491 . S
C1141 C1140 1.400 . S
C1141 C1142 1.398 . S
C1142 H1130 0.950 . S
C1142 C1141 1.398 . S
C1142 C1143 1.391 . S
C1143 H1131 0.950 . S
C1143 C1139 1.393 . S
C1143 C1142 1.391 . S
H1144 C1152 0.950 . S
H1145 C1157 0.950 . S
H1146 C1154 0.950 . S
H1147 C1156 0.950 . S
H1148 C1158 0.950 . S
H1149 C1160 0.950 . S
H1150 C1162 0.950 . S
H1151 C1163 0.950 . S
C1152 H1144 0.950 . S
C1152 C1153 1.386 . S
C1152 C1154 1.391 . S
C1153 C1152 1.386 . S
C1153 C1157 1.393 . S
C1154 H1146 0.950 . S
C1154 C1152 1.391 . S
C1154 C1155 1.400 . S
C1155 C1154 1.400 . S
C1155 C1156 1.398 . S
C1155 C1161 1.491 . S
C1156 H1147 0.950 . S
C1156 C1155 1.398 . S
C1156 C1157 1.391 . S
C1157 H1145 0.950 . S
C1157 C1153 1.393 . S
C1157 C1156 1.391 . S
C1158 H1148 0.950 . S
C1158 C1159 1.386 . S
C1158 C1160 1.391 . S
C1159 C1158 1.386 . S
C1159 C1163 1.393 . S
C1160 H1149 0.950 . S
C1160 C1158 1.391 . S
C1160 C1161 1.400 . S
C1161 C1155 1.491 . S
C1161 C1160 1.400 . S
C1161 C1162 1.398 . S
C1162 H1150 0.950 . S
C1162 C1161 1.398 . S
C1162 C1163 1.391 . S
C1163 H1151 0.950 . S
C1163 C1159 1.393 . S
C1163 C1162 1.391 . S
H1164 C1172 0.950 . S
H1165 C1177 0.950 . S
H1166 C1174 0.950 . S
H1167 C1176 0.950 . S
H1168 C1178 0.950 . S
H1169 C1180 0.950 . S
H1170 C1182 0.950 . S
H1171 C1183 0.950 . S
C1172 H1164 0.950 . S
C1172 C1173 1.386 . S
C1172 C1174 1.391 . S
C1173 C1172 1.386 . S
C1173 C1177 1.393 . S
C1174 H1166 0.950 . S
C1174 C1172 1.391 . S
C1174 C1175 1.400 . S
C1175 C1174 1.400 . S
C1175 C1176 1.398 . S
C1175 C1181 1.491 . S
C1176 H1167 0.950 . S
C1176 C1175 1.398 . S
C1176 C1177 1.391 . S
C1177 H1165 0.950 . S
C1177 C1173 1.393 . S
C1177 C1176 1.391 . S
C1178 H1168 0.950 . S
C1178 C1179 1.386 . S
C1178 C1180 1.391 . S
C1179 C1178 1.386 . S
C1179 C1183 1.393 . S
C1180 H1169 0.950 . S
C1180 C1178 1.391 . S
C1180 C1181 1.400 . S
C1181 C1175 1.491 . S
C1181 C1180 1.400 . S
C1181 C1182 1.398 . S
C1182 H1170 0.950 . S
C1182 C1181 1.398 . S
C1182 C1183 1.391 . S
C1183 H1171 0.950 . S
C1183 C1179 1.393 . S
C1183 C1182 1.391 . S
H1184 C1192 0.950 . S
H1185 C1197 0.950 . S
H1186 C1194 0.950 . S
H1187 C1196 0.950 . S
H1188 C1198 0.950 . S
H1189 C1200 0.950 . S
H1190 C1202 0.950 . S
H1191 C1203 0.950 . S
C1192 H1184 0.950 . S
C1192 C1193 1.386 . S
C1192 C1194 1.391 . S
C1193 C1192 1.386 . S
C1193 C1197 1.393 . S
C1194 H1186 0.950 . S
C1194 C1192 1.391 . S
C1194 C1195 1.400 . S
C1195 C1194 1.400 . S
C1195 C1196 1.398 . S
C1195 C1201 1.491 . S
C1196 H1187 0.950 . S
C1196 C1195 1.398 . S
C1196 C1197 1.391 . S
C1197 H1185 0.950 . S
C1197 C1193 1.393 . S
C1197 C1196 1.391 . S
C1198 H1188 0.950 . S
C1198 C1199 1.386 . S
C1198 C1200 1.391 . S
C1199 C1198 1.386 . S
C1199 C1203 1.393 . S
C1200 H1189 0.950 . S
C1200 C1198 1.391 . S
C1200 C1201 1.400 . S
C1201 C1195 1.491 . S
C1201 C1200 1.400 . S
C1201 C1202 1.398 . S
C1202 H1190 0.950 . S
C1202 C1201 1.398 . S
C1202 C1203 1.391 . S
C1203 H1191 0.950 . S
C1203 C1199 1.393 . S
C1203 C1202 1.391 . S
H1204 C1212 0.950 . S
H1205 C1217 0.950 . S
H1206 C1214 0.950 . S
H1207 C1216 0.950 . S
H1208 C1218 0.950 . S
H1209 C1220 0.950 . S
H1210 C1222 0.950 . S
H1211 C1223 0.950 . S
C1212 H1204 0.950 . S
C1212 C1213 1.386 . S
C1212 C1214 1.391 . S
C1213 C1212 1.386 . S
C1213 C1217 1.393 . S
C1214 H1206 0.950 . S
C1214 C1212 1.391 . S
C1214 C1215 1.400 . S
C1215 C1214 1.400 . S
C1215 C1216 1.398 . S
C1215 C1221 1.491 . S
C1216 H1207 0.950 . S
C1216 C1215 1.398 . S
C1216 C1217 1.391 . S
C1217 H1205 0.950 . S
C1217 C1213 1.393 . S
C1217 C1216 1.391 . S
C1218 H1208 0.950 . S
C1218 C1219 1.386 . S
C1218 C1220 1.391 . S
C1219 C1218 1.386 . S
C1219 C1223 1.393 . S
C1220 H1209 0.950 . S
C1220 C1218 1.391 . S
C1220 C1221 1.400 . S
C1221 C1215 1.491 . S
C1221 C1220 1.400 . S
C1221 C1222 1.398 . S
C1222 H1210 0.950 . S
C1222 C1221 1.398 . S
C1222 C1223 1.391 . S
C1223 H1211 0.950 . S
C1223 C1219 1.393 . S
C1223 C1222 1.391 . S
H1224 C1232 0.950 . S
H1225 C1237 0.950 . S
H1226 C1234 0.950 . S
H1227 C1236 0.950 . S
H1228 C1238 0.950 . S
H1229 C1240 0.950 . S
H1230 C1242 0.950 . S
H1231 C1243 0.950 . S
C1232 H1224 0.950 . S
C1232 C1233 1.386 . S
C1232 C1234 1.391 . S
C1233 C1232 1.386 . S
C1233 C1237 1.393 . S
C1234 H1226 0.950 . S
C1234 C1232 1.391 . S
C1234 C1235 1.400 . S
C1235 C1234 1.400 . S
C1235 C1236 1.398 . S
C1235 C1241 1.491 . S
C1236 H1227 0.950 . S
C1236 C1235 1.398 . S
C1236 C1237 1.391 . S
C1237 H1225 0.950 . S
C1237 C1233 1.393 . S
C1237 C1236 1.391 . S
C1238 H1228 0.950 . S
C1238 C1239 1.386 . S
C1238 C1240 1.391 . S
C1239 C1238 1.386 . S
C1239 C1243 1.393 . S
C1240 H1229 0.950 . S
C1240 C1238 1.391 . S
C1240 C1241 1.400 . S
C1241 C1235 1.491 . S
C1241 C1240 1.400 . S
C1241 C1242 1.398 . S
C1242 H1230 0.950 . S
C1242 C1241 1.398 . S
C1242 C1243 1.391 . S
C1243 H1231 0.950 . S
C1243 C1239 1.393 . S
C1243 C1242 1.391 . S
H1244 C1252 0.950 . S
H1245 C1257 0.950 . S
H1246 C1254 0.950 . S
H1247 C1256 0.950 . S
H1248 C1258 0.950 . S
H1249 C1260 0.950 . S
H1250 C1262 0.950 . S
H1251 C1263 0.950 . S
C1252 H1244 0.950 . S
C1252 C1253 1.386 . S
C1252 C1254 1.391 . S
C1253 C1252 1.386 . S
C1253 C1257 1.393 . S
C1254 H1246 0.950 . S
C1254 C1252 1.391 . S
C1254 C1255 1.400 . S
C1255 C1254 1.400 . S
C1255 C1256 1.398 . S
C1255 C1261 1.491 . S
C1256 H1247 0.950 . S
C1256 C1255 1.398 . S
C1256 C1257 1.391 . S
C1257 H1245 0.950 . S
C1257 C1253 1.393 . S
C1257 C1256 1.391 . S
C1258 H1248 0.950 . S
C1258 C1259 1.386 . S
C1258 C1260 1.391 . S
C1259 C1258 1.386 . S
C1259 C1263 1.393 . S
C1260 H1249 0.950 . S
C1260 C1258 1.391 . S
C1260 C1261 1.400 . S
C1261 C1255 1.491 . S
C1261 C1260 1.400 . S
C1261 C1262 1.398 . S
C1262 H1250 0.950 . S
C1262 C1261 1.398 . S
C1262 C1263 1.391 . S
C1263 H1251 0.950 . S
C1263 C1259 1.393 . S
C1263 C1262 1.391 . S
H1264 C1272 0.950 . S
H1265 C1277 0.950 . S
H1266 C1274 0.950 . S
H1267 C1276 0.950 . S
H1268 C1278 0.950 . S
H1269 C1280 0.950 . S
H1270 C1282 0.950 . S
H1271 C1283 0.950 . S
C1272 H1264 0.950 . S
C1272 C1273 1.386 . S
C1272 C1274 1.391 . S
C1273 C1272 1.386 . S
C1273 C1277 1.393 . S
C1274 H1266 0.950 . S
C1274 C1272 1.391 . S
C1274 C1275 1.400 . S
C1275 C1274 1.400 . S
C1275 C1276 1.398 . S
C1275 C1281 1.491 . S
C1276 H1267 0.950 . S
C1276 C1275 1.398 . S
C1276 C1277 1.391 . S
C1277 H1265 0.950 . S
C1277 C1273 1.393 . S
C1277 C1276 1.391 . S
C1278 H1268 0.950 . S
C1278 C1279 1.386 . S
C1278 C1280 1.391 . S
C1279 C1278 1.386 . S
C1279 C1283 1.393 . S
C1280 H1269 0.950 . S
C1280 C1278 1.391 . S
C1280 C1281 1.400 . S
C1281 C1275 1.491 . S
C1281 C1280 1.400 . S
C1281 C1282 1.398 . S
C1282 H1270 0.950 . S
C1282 C1281 1.398 . S
C1282 C1283 1.391 . S
C1283 H1271 0.950 . S
C1283 C1279 1.393 . S
C1283 C1282 1.391 . S
H1284 C1292 0.950 . S
H1285 C1297 0.950 . S
H1286 C1294 0.950 . S
H1287 C1296 0.950 . S
H1288 C1298 0.950 . S
H1289 C1300 0.950 . S
H1290 C1302 0.950 . S
H1291 C1303 0.950 . S
C1292 H1284 0.950 . S
C1292 C1293 1.386 . S
C1292 C1294 1.391 . S
C1293 C1292 1.386 . S
C1293 C1297 1.393 . S
C1294 H1286 0.950 . S
C1294 C1292 1.391 . S
C1294 C1295 1.400 . S
C1295 C1294 1.400 . S
C1295 C1296 1.398 . S
C1295 C1301 1.491 . S
C1296 H1287 0.950 . S
C1296 C1295 1.398 . S
C1296 C1297 1.391 . S
C1297 H1285 0.950 . S
C1297 C1293 1.393 . S
C1297 C1296 1.391 . S
C1298 H1288 0.950 . S
C1298 C1299 1.386 . S
C1298 C1300 1.391 . S
C1299 C1298 1.386 . S
C1299 C1303 1.393 . S
C1300 H1289 0.950 . S
C1300 C1298 1.391 . S
C1300 C1301 1.400 . S
C1301 C1295 1.491 . S
C1301 C1300 1.400 . S
C1301 C1302 1.398 . S
C1302 H1290 0.950 . S
C1302 C1301 1.398 . S
C1302 C1303 1.391 . S
C1303 H1291 0.950 . S
C1303 C1299 1.393 . S
C1303 C1302 1.391 . S
H1304 C1312 0.950 . S
H1305 C1317 0.950 . S
H1306 C1314 0.950 . S
H1307 C1316 0.950 . S
H1308 C1318 0.950 . S
H1309 C1320 0.950 . S
H1310 C1322 0.950 . S
H1311 C1323 0.950 . S
C1312 H1304 0.950 . S
C1312 C1313 1.386 . S
C1312 C1314 1.391 . S
C1313 C1312 1.386 . S
C1313 C1317 1.393 . S
C1314 H1306 0.950 . S
C1314 C1312 1.391 . S
C1314 C1315 1.400 . S
C1315 C1314 1.400 . S
C1315 C1316 1.398 . S
C1315 C1321 1.491 . S
C1316 H1307 0.950 . S
C1316 C1315 1.398 . S
C1316 C1317 1.391 . S
C1317 H1305 0.950 . S
C1317 C1313 1.393 . S
C1317 C1316 1.391 . S
C1318 H1308 0.950 . S
C1318 C1319 1.386 . S
C1318 C1320 1.391 . S
C1319 C1318 1.386 . S
C1319 C1323 1.393 . S
C1320 H1309 0.950 . S
C1320 C1318 1.391 . S
C1320 C1321 1.400 . S
C1321 C1315 1.491 . S
C1321 C1320 1.400 . S
C1321 C1322 1.398 . S
C1322 H1310 0.950 . S
C1322 C1321 1.398 . S
C1322 C1323 1.391 . S
C1323 H1311 0.950 . S
C1323 C1319 1.393 . S
C1323 C1322 1.391 . S
H1324 C1332 0.950 . S
H1325 C1337 0.950 . S
H1326 C1334 0.950 . S
H1327 C1336 0.950 . S
H1328 C1338 0.950 . S
H1329 C1340 0.950 . S
H1330 C1342 0.950 . S
H1331 C1343 0.950 . S
C1332 H1324 0.950 . S
C1332 C1333 1.386 . S
C1332 C1334 1.391 . S
C1333 C1332 1.386 . S
C1333 C1337 1.393 . S
C1334 H1326 0.950 . S
C1334 C1332 1.391 . S
C1334 C1335 1.400 . S
C1335 C1334 1.400 . S
C1335 C1336 1.398 . S
C1335 C1341 1.491 . S
C1336 H1327 0.950 . S
C1336 C1335 1.398 . S
C1336 C1337 1.391 . S
C1337 H1325 0.950 . S
C1337 C1333 1.393 . S
C1337 C1336 1.391 . S
C1338 H1328 0.950 . S
C1338 C1339 1.386 . S
C1338 C1340 1.391 . S
C1339 C1338 1.386 . S
C1339 C1343 1.393 . S
C1340 H1329 0.950 . S
C1340 C1338 1.391 . S
C1340 C1341 1.400 . S
C1341 C1335 1.491 . S
C1341 C1340 1.400 . S
C1341 C1342 1.398 . S
C1342 H1330 0.950 . S
C1342 C1341 1.398 . S
C1342 C1343 1.391 . S
C1343 H1331 0.950 . S
C1343 C1339 1.393 . S
C1343 C1342 1.391 . S
H1344 C1352 0.950 . S
H1345 C1357 0.950 . S
H1346 C1354 0.950 . S
H1347 C1356 0.950 . S
H1348 C1358 0.950 . S
H1349 C1360 0.950 . S
H1350 C1362 0.950 . S
H1351 C1363 0.950 . S
C1352 H1344 0.950 . S
C1352 C1353 1.386 . S
C1352 C1354 1.391 . S
C1353 C1352 1.386 . S
C1353 C1357 1.393 . S
C1354 H1346 0.950 . S
C1354 C1352 1.391 . S
C1354 C1355 1.400 . S
C1355 C1354 1.400 . S
C1355 C1356 1.398 . S
C1355 C1361 1.491 . S
C1356 H1347 0.950 . S
C1356 C1355 1.398 . S
C1356 C1357 1.391 . S
C1357 H1345 0.950 . S
C1357 C1353 1.393 . S
C1357 C1356 1.391 . S
C1358 H1348 0.950 . S
C1358 C1359 1.386 . S
C1358 C1360 1.391 . S
C1359 C1358 1.386 . S
C1359 C1363 1.393 . S
C1360 H1349 0.950 . S
C1360 C1358 1.391 . S
C1360 C1361 1.400 . S
C1361 C1355 1.491 . S
C1361 C1360 1.400 . S
C1361 C1362 1.398 . S
C1362 H1350 0.950 . S
C1362 C1361 1.398 . S
C1362 C1363 1.391 . S
C1363 H1351 0.950 . S
C1363 C1359 1.393 . S
C1363 C1362 1.391 . S
H1364 C1372 0.950 . S
H1365 C1377 0.950 . S
H1366 C1374 0.950 . S
H1367 C1376 0.950 . S
H1368 C1378 0.950 . S
H1369 C1380 0.950 . S
H1370 C1382 0.950 . S
H1371 C1383 0.950 . S
C1372 H1364 0.950 . S
C1372 C1373 1.386 . S
C1372 C1374 1.391 . S
C1373 C1372 1.386 . S
C1373 C1377 1.393 . S
C1374 H1366 0.950 . S
C1374 C1372 1.391 . S
C1374 C1375 1.400 . S
C1375 C1374 1.400 . S
C1375 C1376 1.398 . S
C1375 C1381 1.491 . S
C1376 H1367 0.950 . S
C1376 C1375 1.398 . S
C1376 C1377 1.391 . S
C1377 H1365 0.950 . S
C1377 C1373 1.393 . S
C1377 C1376 1.391 . S
C1378 H1368 0.950 . S
C1378 C1379 1.386 . S
C1378 C1380 1.391 . S
C1379 C1378 1.386 . S
C1379 C1383 1.393 . S
C1380 H1369 0.950 . S
C1380 C1378 1.391 . S
C1380 C1381 1.400 . S
C1381 C1375 1.491 . S
C1381 C1380 1.400 . S
C1381 C1382 1.398 . S
C1382 H1370 0.950 . S
C1382 C1381 1.398 . S
C1382 C1383 1.391 . S
C1383 H1371 0.950 . S
C1383 C1379 1.393 . S
C1383 C1382 1.391 . S
H1384 C1392 0.950 . S
H1385 C1397 0.950 . S
H1386 C1394 0.950 . S
H1387 C1396 0.950 . S
H1388 C1398 0.950 . S
H1389 C1400 0.950 . S
H1390 C1402 0.950 . S
H1391 C1403 0.950 . S
C1392 H1384 0.950 . S
C1392 C1393 1.386 . S
C1392 C1394 1.391 . S
C1393 C1392 1.386 . S
C1393 C1397 1.393 . S
C1394 H1386 0.950 . S
C1394 C1392 1.391 . S
C1394 C1395 1.400 . S
C1395 C1394 1.400 . S
C1395 C1396 1.398 . S
C1395 C1401 1.491 . S
C1396 H1387 0.950 . S
C1396 C1395 1.398 . S
C1396 C1397 1.391 . S
C1397 H1385 0.950 . S
C1397 C1393 1.393 . S
C1397 C1396 1.391 . S
C1398 H1388 0.950 . S
C1398 C1399 1.386 . S
C1398 C1400 1.391 . S
C1399 C1398 1.386 . S
C1399 C1403 1.393 . S
C1400 H1389 0.950 . S
C1400 C1398 1.391 . S
C1400 C1401 1.400 . S
C1401 C1395 1.491 . S
C1401 C1400 1.400 . S
C1401 C1402 1.398 . S
C1402 H1390 0.950 . S
C1402 C1401 1.398 . S
C1402 C1403 1.391 . S
C1403 H1391 0.950 . S
C1403 C1399 1.393 . S
C1403 C1402 1.391 . S
H1404 C1412 0.950 . S
H1405 C1417 0.950 . S
H1406 C1414 0.950 . S
H1407 C1416 0.950 . S
H1408 C1418 0.950 . S
H1409 C1420 0.950 . S
H1410 C1422 0.950 . S
H1411 C1423 0.950 . S
C1412 H1404 0.950 . S
C1412 C1413 1.386 . S
C1412 C1414 1.391 . S
C1413 C1412 1.386 . S
C1413 C1417 1.393 . S
C1414 H1406 0.950 . S
C1414 C1412 1.391 . S
C1414 C1415 1.400 . S
C1415 C1414 1.400 . S
C1415 C1416 1.398 . S
C1415 C1421 1.491 . S
C1416 H1407 0.950 . S
C1416 C1415 1.398 . S
C1416 C1417 1.391 . S
C1417 H1405 0.950 . S
C1417 C1413 1.393 . S
C1417 C1416 1.391 . S
C1418 H1408 0.950 . S
C1418 C1419 1.386 . S
C1418 C1420 1.391 . S
C1419 C1418 1.386 . S
C1419 C1423 1.393 . S
C1420 H1409 0.950 . S
C1420 C1418 1.391 . S
C1420 C1421 1.400 . S
C1421 C1415 1.491 . S
C1421 C1420 1.400 . S
C1421 C1422 1.398 . S
C1422 H1410 0.950 . S
C1422 C1421 1.398 . S
C1422 C1423 1.391 . S
C1423 H1411 0.950 . S
C1423 C1419 1.393 . S
C1423 C1422 1.391 . S
H1424 C1432 0.950 . S
H1425 C1437 0.950 . S
H1426 C1434 0.950 . S
H1427 C1436 0.950 . S
H1428 C1438 0.950 . S
H1429 C1440 0.950 . S
H1430 C1442 0.950 . S
H1431 C1443 0.950 . S
C1432 H1424 0.950 . S
C1432 C1433 1.386 . S
C1432 C1434 1.391 . S
C1433 C1432 1.386 . S
C1433 C1437 1.393 . S
C1434 H1426 0.950 . S
C1434 C1432 1.391 . S
C1434 C1435 1.400 . S
C1435 C1434 1.400 . S
C1435 C1436 1.398 . S
C1435 C1441 1.491 . S
C1436 H1427 0.950 . S
C1436 C1435 1.398 . S
C1436 C1437 1.391 . S
C1437 H1425 0.950 . S
C1437 C1433 1.393 . S
C1437 C1436 1.391 . S
C1438 H1428 0.950 . S
C1438 C1439 1.386 . S
C1438 C1440 1.391 . S
C1439 C1438 1.386 . S
C1439 C1443 1.393 . S
C1440 H1429 0.950 . S
C1440 C1438 1.391 . S
C1440 C1441 1.400 . S
C1441 C1435 1.491 . S
C1441 C1440 1.400 . S
C1441 C1442 1.398 . S
C1442 H1430 0.950 . S
C1442 C1441 1.398 . S
C1442 C1443 1.391 . S
C1443 H1431 0.950 . S
C1443 C1439 1.393 . S
C1443 C1442 1.391 . S
H1444 C1452 0.950 . S
H1445 C1457 0.950 . S
H1446 C1454 0.950 . S
H1447 C1456 0.950 . S
H1448 C1458 0.950 . S
H1449 C1460 0.950 . S
H1450 C1462 0.950 . S
H1451 C1463 0.950 . S
C1452 H1444 0.950 . S
C1452 C1453 1.386 . S
C1452 C1454 1.391 . S
C1453 C1452 1.386 . S
C1453 C1457 1.393 . S
C1454 H1446 0.950 . S
C1454 C1452 1.391 . S
C1454 C1455 1.400 . S
C1455 C1454 1.400 . S
C1455 C1456 1.398 . S
C1455 C1461 1.491 . S
C1456 H1447 0.950 . S
C1456 C1455 1.398 . S
C1456 C1457 1.391 . S
C1457 H1445 0.950 . S
C1457 C1453 1.393 . S
C1457 C1456 1.391 . S
C1458 H1448 0.950 . S
C1458 C1459 1.386 . S
C1458 C1460 1.391 . S
C1459 C1458 1.386 . S
C1459 C1463 1.393 . S
C1460 H1449 0.950 . S
C1460 C1458 1.391 . S
C1460 C1461 1.400 . S
C1461 C1455 1.491 . S
C1461 C1460 1.400 . S
C1461 C1462 1.398 . S
C1462 H1450 0.950 . S
C1462 C1461 1.398 . S
C1462 C1463 1.391 . S
C1463 H1451 0.950 . S
C1463 C1459 1.393 . S
C1463 C1462 1.391 . S
H1464 C1472 0.950 . S
H1465 C1477 0.950 . S
H1466 C1474 0.950 . S
H1467 C1476 0.950 . S
H1468 C1478 0.950 . S
H1469 C1480 0.950 . S
H1470 C1482 0.950 . S
H1471 C1483 0.950 . S
C1472 H1464 0.950 . S
C1472 C1473 1.386 . S
C1472 C1474 1.391 . S
C1473 C1472 1.386 . S
C1473 C1477 1.393 . S
C1474 H1466 0.950 . S
C1474 C1472 1.391 . S
C1474 C1475 1.400 . S
C1475 C1474 1.400 . S
C1475 C1476 1.398 . S
C1475 C1481 1.491 . S
C1476 H1467 0.950 . S
C1476 C1475 1.398 . S
C1476 C1477 1.391 . S
C1477 H1465 0.950 . S
C1477 C1473 1.393 . S
C1477 C1476 1.391 . S
C1478 H1468 0.950 . S
C1478 C1479 1.386 . S
C1478 C1480 1.391 . S
C1479 C1478 1.386 . S
C1479 C1483 1.393 . S
C1480 H1469 0.950 . S
C1480 C1478 1.391 . S
C1480 C1481 1.400 . S
C1481 C1475 1.491 . S
C1481 C1480 1.400 . S
C1481 C1482 1.398 . S
C1482 H1470 0.950 . S
C1482 C1481 1.398 . S
C1482 C1483 1.391 . S
C1483 H1471 0.950 . S
C1483 C1479 1.393 . S
C1483 C1482 1.391 . S
H1484 C1492 0.950 . S
H1485 C1497 0.950 . S
H1486 C1494 0.950 . S
H1487 C1496 0.950 . S
H1488 C1498 0.950 . S
H1489 C1500 0.950 . S
H1490 C1502 0.950 . S
H1491 C1503 0.950 . S
C1492 H1484 0.950 . S
C1492 C1493 1.386 . S
C1492 C1494 1.391 . S
C1493 C1492 1.386 . S
C1493 C1497 1.393 . S
C1494 H1486 0.950 . S
C1494 C1492 1.391 . S
C1494 C1495 1.400 . S
C1495 C1494 1.400 . S
C1495 C1496 1.398 . S
C1495 C1501 1.491 . S
C1496 H1487 0.950 . S
C1496 C1495 1.398 . S
C1496 C1497 1.391 . S
C1497 H1485 0.950 . S
C1497 C1493 1.393 . S
C1497 C1496 1.391 . S
C1498 H1488 0.950 . S
C1498 C1499 1.386 . S
C1498 C1500 1.391 . S
C1499 C1498 1.386 . S
C1499 C1503 1.393 . S
C1500 H1489 0.950 . S
C1500 C1498 1.391 . S
C1500 C1501 1.400 . S
C1501 C1495 1.491 . S
C1501 C1500 1.400 . S
C1501 C1502 1.398 . S
C1502 H1490 0.950 . S
C1502 C1501 1.398 . S
C1502 C1503 1.391 . S
C1503 H1491 0.950 . S
C1503 C1499 1.393 . S
C1503 C1502 1.391 . S
H1504 C1512 0.950 . S
H1505 C1517 0.950 . S
H1506 C1514 0.950 . S
H1507 C1516 0.950 . S
H1508 C1518 0.950 . S
H1509 C1520 0.950 . S
H1510 C1522 0.950 . S
H1511 C1523 0.950 . S
C1512 H1504 0.950 . S
C1512 C1513 1.386 . S
C1512 C1514 1.391 . S
C1513 C1512 1.386 . S
C1513 C1517 1.393 . S
C1514 H1506 0.950 . S
C1514 C1512 1.391 . S
C1514 C1515 1.400 . S
C1515 C1514 1.400 . S
C1515 C1516 1.398 . S
C1515 C1521 1.491 . S
C1516 H1507 0.950 . S
C1516 C1515 1.398 . S
C1516 C1517 1.391 . S
C1517 H1505 0.950 . S
C1517 C1513 1.393 . S
C1517 C1516 1.391 . S
C1518 H1508 0.950 . S
C1518 C1519 1.386 . S
C1518 C1520 1.391 . S
C1519 C1518 1.386 . S
C1519 C1523 1.393 . S
C1520 H1509 0.950 . S
C1520 C1518 1.391 . S
C1520 C1521 1.400 . S
C1521 C1515 1.491 . S
C1521 C1520 1.400 . S
C1521 C1522 1.398 . S
C1522 H1510 0.950 . S
C1522 C1521 1.398 . S
C1522 C1523 1.391 . S
C1523 H1511 0.950 . S
C1523 C1519 1.393 . S
C1523 C1522 1.391 . S
H1524 C1532 0.950 . S
H1525 C1537 0.950 . S
H1526 C1534 0.950 . S
H1527 C1536 0.950 . S
H1528 C1538 0.950 . S
H1529 C1540 0.950 . S
H1530 C1542 0.950 . S
H1531 C1543 0.950 . S
C1532 H1524 0.950 . S
C1532 C1533 1.386 . S
C1532 C1534 1.391 . S
C1533 C1532 1.386 . S
C1533 C1537 1.393 . S
C1534 H1526 0.950 . S
C1534 C1532 1.391 . S
C1534 C1535 1.400 . S
C1535 C1534 1.400 . S
C1535 C1536 1.398 . S
C1535 C1541 1.491 . S
C1536 H1527 0.950 . S
C1536 C1535 1.398 . S
C1536 C1537 1.391 . S
C1537 H1525 0.950 . S
C1537 C1533 1.393 . S
C1537 C1536 1.391 . S
C1538 H1528 0.950 . S
C1538 C1539 1.386 . S
C1538 C1540 1.391 . S
C1539 C1538 1.386 . S
C1539 C1543 1.393 . S
C1540 H1529 0.950 . S
C1540 C1538 1.391 . S
C1540 C1541 1.400 . S
C1541 C1535 1.491 . S
C1541 C1540 1.400 . S
C1541 C1542 1.398 . S
C1542 H1530 0.950 . S
C1542 C1541 1.398 . S
C1542 C1543 1.391 . S
C1543 H1531 0.950 . S
C1543 C1539 1.393 . S
C1543 C1542 1.391 . S
H1544 C1552 0.950 . S
H1545 C1557 0.950 . S
H1546 C1554 0.950 . S
H1547 C1556 0.950 . S
H1548 C1558 0.950 . S
H1549 C1560 0.950 . S
H1550 C1562 0.950 . S
H1551 C1563 0.950 . S
C1552 H1544 0.950 . S
C1552 C1553 1.386 . S
C1552 C1554 1.391 . S
C1553 C1552 1.386 . S
C1553 C1557 1.393 . S
C1554 H1546 0.950 . S
C1554 C1552 1.391 . S
C1554 C1555 1.400 . S
C1555 C1554 1.400 . S
C1555 C1556 1.398 . S
C1555 C1561 1.491 . S
C1556 H1547 0.950 . S
C1556 C1555 1.398 . S
C1556 C1557 1.391 . S
C1557 H1545 0.950 . S
C1557 C1553 1.393 . S
C1557 C1556 1.391 . S
C1558 H1548 0.950 . S
C1558 C1559 1.386 . S
C1558 C1560 1.391 . S
C1559 C1558 1.386 . S
C1559 C1563 1.393 . S
C1560 H1549 0.950 . S
C1560 C1558 1.391 . S
C1560 C1561 1.400 . S
C1561 C1555 1.491 . S
C1561 C1560 1.400 . S
C1561 C1562 1.398 . S
C1562 H1550 0.950 . S
C1562 C1561 1.398 . S
C1562 C1563 1.391 . S
C1563 H1551 0.950 . S
C1563 C1559 1.393 . S
C1563 C1562 1.391 . S
H1564 C1572 0.950 . S
H1565 C1577 0.950 . S
H1566 C1574 0.950 . S
H1567 C1576 0.950 . S
H1568 C1578 0.950 . S
H1569 C1580 0.950 . S
H1570 C1582 0.950 . S
H1571 C1583 0.950 . S
C1572 H1564 0.950 . S
C1572 C1573 1.386 . S
C1572 C1574 1.391 . S
C1573 C1572 1.386 . S
C1573 C1577 1.393 . S
C1574 H1566 0.950 . S
C1574 C1572 1.391 . S
C1574 C1575 1.400 . S
C1575 C1574 1.400 . S
C1575 C1576 1.398 . S
C1575 C1581 1.491 . S
C1576 H1567 0.950 . S
C1576 C1575 1.398 . S
C1576 C1577 1.391 . S
C1577 H1565 0.950 . S
C1577 C1573 1.393 . S
C1577 C1576 1.391 . S
C1578 H1568 0.950 . S
C1578 C1579 1.386 . S
C1578 C1580 1.391 . S
C1579 C1578 1.386 . S
C1579 C1583 1.393 . S
C1580 H1569 0.950 . S
C1580 C1578 1.391 . S
C1580 C1581 1.400 . S
C1581 C1575 1.491 . S
C1581 C1580 1.400 . S
C1581 C1582 1.398 . S
C1582 H1570 0.950 . S
C1582 C1581 1.398 . S
C1582 C1583 1.391 . S
C1583 H1571 0.950 . S
C1583 C1579 1.393 . S
C1583 C1582 1.391 . S
H1584 C1592 0.950 . S
H1585 C1597 0.950 . S
H1586 C1594 0.950 . S
H1587 C1596 0.950 . S
H1588 C1598 0.950 . S
H1589 C1600 0.950 . S
H1590 C1602 0.950 . S
H1591 C1603 0.950 . S
C1592 H1584 0.950 . S
C1592 C1593 1.386 . S
C1592 C1594 1.391 . S
C1593 C1592 1.386 . S
C1593 C1597 1.393 . S
C1594 H1586 0.950 . S
C1594 C1592 1.391 . S
C1594 C1595 1.400 . S
C1595 C1594 1.400 . S
C1595 C1596 1.398 . S
C1595 C1601 1.491 . S
C1596 H1587 0.950 . S
C1596 C1595 1.398 . S
C1596 C1597 1.391 . S
C1597 H1585 0.950 . S
C1597 C1593 1.393 . S
C1597 C1596 1.391 . S
C1598 H1588 0.950 . S
C1598 C1599 1.386 . S
C1598 C1600 1.391 . S
C1599 C1598 1.386 . S
C1599 C1603 1.393 . S
C1600 H1589 0.950 . S
C1600 C1598 1.391 . S
C1600 C1601 1.400 . S
C1601 C1595 1.491 . S
C1601 C1600 1.400 . S
C1601 C1602 1.398 . S
C1602 H1590 0.950 . S
C1602 C1601 1.398 . S
C1602 C1603 1.391 . S
C1603 H1591 0.950 . S
C1603 C1599 1.393 . S
C1603 C1602 1.391 . S
H1604 C1612 0.950 . S
H1605 C1617 0.950 . S
H1606 C1614 0.950 . S
H1607 C1616 0.950 . S
H1608 C1618 0.950 . S
H1609 C1620 0.950 . S
H1610 C1622 0.950 1_565 S
H1611 C1623 0.950 . S
C1612 H1604 0.950 . S
C1612 C1613 1.386 . S
C1612 C1614 1.391 . S
C1613 C1612 1.386 . S
C1613 C1617 1.393 1_565 S
C1614 H1606 0.950 . S
C1614 C1612 1.391 . S
C1614 C1615 1.400 1_565 S
C1615 C1614 1.400 1_545 S
C1615 C1616 1.398 . S
C1615 C1621 1.491 . S
C1616 H1607 0.950 . S
C1616 C1615 1.398 . S
C1616 C1617 1.391 . S
C1617 H1605 0.950 . S
C1617 C1613 1.393 1_545 S
C1617 C1616 1.391 . S
C1618 H1608 0.950 . S
C1618 C1619 1.386 . S
C1618 C1620 1.391 . S
C1619 C1618 1.386 . S
C1619 C1623 1.393 . S
C1620 H1609 0.950 . S
C1620 C1618 1.391 . S
C1620 C1621 1.400 . S
C1621 C1615 1.491 . S
C1621 C1620 1.400 . S
C1621 C1622 1.398 . S
C1622 H1610 0.950 1_545 S
C1622 C1621 1.398 . S
C1622 C1623 1.391 . S
C1623 H1611 0.950 . S
C1623 C1619 1.393 . S
C1623 C1622 1.391 . S
H1624 C1632 0.950 . S
H1625 C1637 0.950 . S
H1626 C1634 0.950 . S
H1627 C1636 0.950 1_455 S
H1628 C1638 0.950 . S
H1629 C1640 0.950 . S
H1630 C1642 0.950 . S
H1631 C1643 0.950 . S
C1632 H1624 0.950 . S
C1632 C1633 1.386 . S
C1632 C1634 1.391 . S
C1633 C1632 1.386 . S
C1633 C1637 1.393 . S
C1634 H1626 0.950 . S
C1634 C1632 1.391 . S
C1634 C1635 1.400 . S
C1635 C1634 1.400 . S
C1635 C1636 1.398 . S
C1635 C1641 1.491 . S
C1636 H1627 0.950 1_655 S
C1636 C1635 1.398 . S
C1636 C1637 1.391 . S
C1637 H1625 0.950 . S
C1637 C1633 1.393 . S
C1637 C1636 1.391 . S
C1638 H1628 0.950 . S
C1638 C1639 1.386 . S
C1638 C1640 1.391 . S
C1639 C1638 1.386 . S
C1639 C1643 1.393 1_455 S
C1640 H1629 0.950 . S
C1640 C1638 1.391 . S
C1640 C1641 1.400 1_455 S
C1641 C1635 1.491 . S
C1641 C1640 1.400 1_655 S
C1641 C1642 1.398 . S
C1642 H1630 0.950 . S
C1642 C1641 1.398 . S
C1642 C1643 1.391 . S
C1643 H1631 0.950 . S
C1643 C1639 1.393 1_655 S
C1643 C1642 1.391 . S
H1644 C1652 0.950 . S
H1645 C1657 0.950 . S
H1646 C1654 0.950 . S
H1647 C1656 0.950 . S
H1648 C1658 0.950 . S
H1649 C1660 0.950 . S
H1650 C1662 0.950 . S
H1651 C1663 0.950 . S
C1652 H1644 0.950 . S
C1652 C1653 1.386 . S
C1652 C1654 1.391 . S
C1653 C1652 1.386 . S
C1653 C1657 1.393 . S
C1654 H1646 0.950 . S
C1654 C1652 1.391 . S
C1654 C1655 1.400 . S
C1655 C1654 1.400 . S
C1655 C1656 1.398 . S
C1655 C1661 1.491 . S
C1656 H1647 0.950 . S
C1656 C1655 1.398 . S
C1656 C1657 1.391 . S
C1657 H1645 0.950 . S
C1657 C1653 1.393 . S
C1657 C1656 1.391 . S
C1658 H1648 0.950 . S
C1658 C1659 1.386 . S
C1658 C1660 1.391 . S
C1659 C1658 1.386 . S
C1659 C1663 1.393 . S
C1660 H1649 0.950 . S
C1660 C1658 1.391 . S
C1660 C1661 1.400 . S
C1661 C1655 1.491 . S
C1661 C1660 1.400 . S
C1661 C1662 1.398 . S
C1662 H1650 0.950 . S
C1662 C1661 1.398 . S
C1662 C1663 1.391 . S
C1663 H1651 0.950 . S
C1663 C1659 1.393 . S
C1663 C1662 1.391 . S
H1664 C1672 0.950 . S
H1665 C1677 0.950 . S
H1666 C1674 0.950 . S
H1667 C1676 0.950 . S
H1668 C1678 0.950 . S
H1669 C1680 0.950 . S
H1670 C1682 0.950 1_545 S
H1671 C1683 0.950 . S
C1672 H1664 0.950 . S
C1672 C1673 1.386 . S
C1672 C1674 1.391 . S
C1673 C1672 1.386 . S
C1673 C1677 1.393 1_545 S
C1674 H1666 0.950 . S
C1674 C1672 1.391 . S
C1674 C1675 1.400 1_545 S
C1675 C1674 1.400 1_565 S
C1675 C1676 1.398 . S
C1675 C1681 1.491 . S
C1676 H1667 0.950 . S
C1676 C1675 1.398 . S
C1676 C1677 1.391 . S
C1677 H1665 0.950 . S
C1677 C1673 1.393 1_565 S
C1677 C1676 1.391 . S
C1678 H1668 0.950 . S
C1678 C1679 1.386 . S
C1678 C1680 1.391 . S
C1679 C1678 1.386 . S
C1679 C1683 1.393 . S
C1680 H1669 0.950 . S
C1680 C1678 1.391 . S
C1680 C1681 1.400 . S
C1681 C1675 1.491 . S
C1681 C1680 1.400 . S
C1681 C1682 1.398 . S
C1682 H1670 0.950 1_565 S
C1682 C1681 1.398 . S
C1682 C1683 1.391 . S
C1683 H1671 0.950 . S
C1683 C1679 1.393 . S
C1683 C1682 1.391 . S
H1684 C1692 0.950 . S
H1685 C1697 0.950 . S
H1686 C1694 0.950 . S
H1687 C1696 0.950 1_655 S
H1688 C1698 0.950 . S
H1689 C1700 0.950 . S
H1690 C1702 0.950 . S
H1691 C1703 0.950 . S
C1692 H1684 0.950 . S
C1692 C1693 1.386 . S
C1692 C1694 1.391 . S
C1693 C1692 1.386 . S
C1693 C1697 1.393 . S
C1694 H1686 0.950 . S
C1694 C1692 1.391 . S
C1694 C1695 1.400 . S
C1695 C1694 1.400 . S
C1695 C1696 1.398 . S
C1695 C1701 1.491 . S
C1696 H1687 0.950 1_455 S
C1696 C1695 1.398 . S
C1696 C1697 1.391 . S
C1697 H1685 0.950 . S
C1697 C1693 1.393 . S
C1697 C1696 1.391 . S
C1698 H1688 0.950 . S
C1698 C1699 1.386 . S
C1698 C1700 1.391 . S
C1699 C1698 1.386 . S
C1699 C1703 1.393 1_655 S
C1700 H1689 0.950 . S
C1700 C1698 1.391 . S
C1700 C1701 1.400 1_655 S
C1701 C1695 1.491 . S
C1701 C1700 1.400 1_455 S
C1701 C1702 1.398 . S
C1702 H1690 0.950 . S
C1702 C1701 1.398 . S
C1702 C1703 1.391 . S
C1703 H1691 0.950 . S
C1703 C1699 1.393 1_455 S
C1703 C1702 1.391 . S
H1704 C1712 0.950 . S
H1705 C1717 0.950 . S
H1706 C1714 0.950 . S
H1707 C1716 0.950 . S
H1708 C1718 0.950 . S
H1709 C1720 0.950 . S
H1710 C1722 0.950 . S
H1711 C1723 0.950 . S
C1712 H1704 0.950 . S
C1712 C1713 1.386 . S
C1712 C1714 1.391 . S
C1713 C1712 1.386 . S
C1713 C1717 1.393 . S
C1714 H1706 0.950 . S
C1714 C1712 1.391 . S
C1714 C1715 1.400 . S
C1715 C1714 1.400 . S
C1715 C1716 1.398 . S
C1715 C1721 1.491 . S
C1716 H1707 0.950 . S
C1716 C1715 1.398 . S
C1716 C1717 1.391 . S
C1717 H1705 0.950 . S
C1717 C1713 1.393 . S
C1717 C1716 1.391 . S
C1718 H1708 0.950 . S
C1718 C1719 1.386 . S
C1718 C1720 1.391 . S
C1719 C1718 1.386 . S
C1719 C1723 1.393 . S
C1720 H1709 0.950 . S
C1720 C1718 1.391 . S
C1720 C1721 1.400 . S
C1721 C1715 1.491 . S
C1721 C1720 1.400 . S
C1721 C1722 1.398 . S
C1722 H1710 0.950 . S
C1722 C1721 1.398 . S
C1722 C1723 1.391 . S
C1723 H1711 0.950 . S
C1723 C1719 1.393 . S
C1723 C1722 1.391 . S
H1724 C1732 0.950 . S
H1725 C1737 0.950 . S
H1726 C1734 0.950 . S
H1727 C1736 0.950 . S
H1728 C1738 0.950 . S
H1729 C1740 0.950 . S
H1730 C1742 0.950 . S
H1731 C1743 0.950 . S
C1732 H1724 0.950 . S
C1732 C1733 1.386 . S
C1732 C1734 1.391 . S
C1733 C1732 1.386 . S
C1733 C1737 1.393 . S
C1734 H1726 0.950 . S
C1734 C1732 1.391 . S
C1734 C1735 1.400 . S
C1735 C1734 1.400 . S
C1735 C1736 1.398 . S
C1735 C1741 1.491 . S
C1736 H1727 0.950 . S
C1736 C1735 1.398 . S
C1736 C1737 1.391 . S
C1737 H1725 0.950 . S
C1737 C1733 1.393 . S
C1737 C1736 1.391 . S
C1738 H1728 0.950 . S
C1738 C1739 1.386 . S
C1738 C1740 1.391 1_545 S
C1739 C1738 1.386 . S
C1739 C1743 1.393 . S
C1740 H1729 0.950 . S
C1740 C1738 1.391 1_565 S
C1740 C1741 1.400 . S
C1741 C1735 1.491 . S
C1741 C1740 1.400 . S
C1741 C1742 1.398 1_565 S
C1742 H1730 0.950 . S
C1742 C1741 1.398 1_545 S
C1742 C1743 1.391 . S
C1743 H1731 0.950 . S
C1743 C1739 1.393 . S
C1743 C1742 1.391 . S
H1744 C1752 0.950 . S
H1745 C1757 0.950 . S
H1746 C1754 0.950 1_655 S
H1747 C1756 0.950 . S
H1748 C1758 0.950 1_455 S
H1749 C1760 0.950 . S
H1750 C1762 0.950 . S
H1751 C1763 0.950 . S
C1752 H1744 0.950 . S
C1752 C1753 1.386 . S
C1752 C1754 1.391 . S
C1753 C1752 1.386 . S
C1753 C1757 1.393 . S
C1754 H1746 0.950 1_455 S
C1754 C1752 1.391 . S
C1754 C1755 1.400 . S
C1755 C1754 1.400 . S
C1755 C1756 1.398 . S
C1755 C1761 1.491 . S
C1756 H1747 0.950 . S
C1756 C1755 1.398 . S
C1756 C1757 1.391 . S
C1757 H1745 0.950 . S
C1757 C1753 1.393 . S
C1757 C1756 1.391 . S
C1758 H1748 0.950 1_655 S
C1758 C1759 1.406 . S
C1758 C1760 1.371 1_655 S
C1759 C1758 1.406 . S
C1759 C1763 1.393 . S
C1760 H1749 0.950 . S
C1760 C1758 1.371 1_455 S
C1760 C1761 1.400 . S
C1761 C1755 1.491 . S
C1761 C1760 1.400 . S
C1761 C1762 1.398 1_455 S
C1762 H1750 0.950 . S
C1762 C1761 1.398 1_655 S
C1762 C1763 1.391 . S
C1763 H1751 0.950 . S
C1763 C1759 1.393 . S
C1763 C1762 1.391 . S
H1764 C1772 0.950 . S
H1765 C1777 0.950 . S
H1766 C1774 0.950 . S
H1767 C1776 0.950 . S
H1768 C1778 0.950 . S
H1769 C1780 0.950 . S
H1770 C1782 0.950 . S
H1771 C1783 0.950 . S
C1772 H1764 0.950 . S
C1772 C1773 1.386 . S
C1772 C1774 1.391 . S
C1773 C1772 1.386 . S
C1773 C1777 1.393 . S
C1774 H1766 0.950 . S
C1774 C1772 1.391 . S
C1774 C1775 1.400 . S
C1775 C1774 1.400 . S
C1775 C1776 1.398 . S
C1775 C1781 1.491 . S
C1776 H1767 0.950 . S
C1776 C1775 1.398 . S
C1776 C1777 1.391 . S
C1777 H1765 0.950 . S
C1777 C1773 1.393 . S
C1777 C1776 1.391 . S
C1778 H1768 0.950 . S
C1778 C1779 1.386 . S
C1778 C1780 1.391 . S
C1779 C1778 1.386 . S
C1779 C1783 1.393 . S
C1780 H1769 0.950 . S
C1780 C1778 1.391 . S
C1780 C1781 1.400 . S
C1781 C1775 1.491 . S
C1781 C1780 1.400 . S
C1781 C1782 1.398 . S
C1782 H1770 0.950 . S
C1782 C1781 1.398 . S
C1782 C1783 1.391 . S
C1783 H1771 0.950 . S
C1783 C1779 1.393 . S
C1783 C1782 1.391 . S
H1784 C1792 0.950 . S
H1785 C1797 0.950 . S
H1786 C1794 0.950 1_565 S
H1787 C1796 0.950 . S
H1788 C1798 0.950 . S
H1789 C1800 0.950 . S
H1790 C1802 0.950 . S
H1791 C1803 0.950 . S
C1792 H1784 0.950 . S
C1792 C1793 1.386 . S
C1792 C1794 1.391 . S
C1793 C1792 1.386 . S
C1793 C1797 1.393 . S
C1794 H1786 0.950 1_545 S
C1794 C1792 1.391 . S
C1794 C1795 1.400 . S
C1795 C1794 1.400 . S
C1795 C1796 1.398 . S
C1795 C1801 1.491 . S
C1796 H1787 0.950 . S
C1796 C1795 1.398 . S
C1796 C1797 1.391 . S
C1797 H1785 0.950 . S
C1797 C1793 1.393 . S
C1797 C1796 1.391 . S
C1798 H1788 0.950 . S
C1798 C1799 1.386 1_545 S
C1798 C1800 1.391 . S
C1799 C1798 1.386 1_565 S
C1799 C1803 1.393 . S
C1800 H1789 0.950 . S
C1800 C1798 1.391 . S
C1800 C1801 1.400 . S
C1801 C1795 1.491 . S
C1801 C1800 1.400 . S
C1801 C1802 1.398 1_545 S
C1802 H1790 0.950 . S
C1802 C1801 1.398 1_565 S
C1802 C1803 1.391 . S
C1803 H1791 0.950 . S
C1803 C1799 1.393 . S
C1803 C1802 1.391 . S
H1804 C1812 0.950 . S
H1805 C1817 0.937 1_655 S
H1806 C1814 0.950 . S
H1807 C1816 0.950 . S
H1808 C1818 0.950 . S
H1809 C1820 0.950 . S
H1810 C1822 0.950 1_455 S
H1811 C1823 0.950 . S
C1812 H1804 0.950 . S
C1812 C1813 1.386 . S
C1812 C1814 1.391 . S
C1813 C1812 1.386 . S
C1813 C1817 1.406 . S
C1814 H1806 0.950 . S
C1814 C1812 1.391 . S
C1814 C1815 1.400 1_455 S
C1815 C1814 1.400 1_655 S
C1815 C1816 1.398 . S
C1815 C1821 1.491 . S
C1816 H1807 0.950 . S
C1816 C1815 1.398 . S
C1816 C1817 1.391 1_655 S
C1817 H1805 0.937 1_455 S
C1817 C1813 1.406 . S
C1817 C1816 1.391 1_455 S
C1818 H1808 0.950 . S
C1818 C1819 1.386 . S
C1818 C1820 1.391 . S
C1819 C1818 1.386 . S
C1819 C1823 1.393 . S
C1820 H1809 0.950 . S
C1820 C1818 1.391 . S
C1820 C1821 1.400 . S
C1821 C1815 1.491 . S
C1821 C1820 1.400 . S
C1821 C1822 1.398 . S
C1822 H1810 0.950 1_655 S
C1822 C1821 1.398 . S
C1822 C1823 1.391 . S
C1823 H1811 0.950 . S
C1823 C1819 1.393 . S
C1823 C1822 1.391 . S
H1824 C1832 0.950 . S
H1825 C1837 0.950 . S
H1826 C1834 0.950 . S
H1827 C1836 0.950 . S
H1828 C1838 0.950 . S
H1829 C1840 0.950 . S
H1830 C1842 0.950 . S
H1831 C1843 0.950 . S
C1832 H1824 0.950 . S
C1832 C1833 1.386 . S
C1832 C1834 1.391 . S
C1833 C1832 1.386 . S
C1833 C1837 1.393 . S
C1834 H1826 0.950 . S
C1834 C1832 1.391 . S
C1834 C1835 1.400 . S
C1835 C1834 1.400 . S
C1835 C1836 1.398 . S
C1835 C1841 1.491 1_655 S
C1836 H1827 0.950 . S
C1836 C1835 1.398 . S
C1836 C1837 1.391 . S
C1837 H1825 0.950 . S
C1837 C1833 1.393 . S
C1837 C1836 1.391 . S
C1838 H1828 0.950 . S
C1838 C1839 1.386 . S
C1838 C1840 1.391 . S
C1839 C1838 1.386 . S
C1839 C1843 1.393 . S
C1840 H1829 0.950 . S
C1840 C1838 1.391 . S
C1840 C1841 1.400 . S
C1841 C1835 1.491 1_455 S
C1841 C1840 1.400 . S
C1841 C1842 1.398 . S
C1842 H1830 0.950 . S
C1842 C1841 1.398 . S
C1842 C1843 1.391 . S
C1843 H1831 0.950 . S
C1843 C1839 1.393 . S
C1843 C1842 1.391 . S
H1844 C1852 0.950 . S
H1845 C1857 0.950 . S
H1846 C1854 0.950 . S
H1847 C1856 0.950 . S
H1848 C1858 0.950 . S
H1849 C1860 0.950 . S
H1850 C1862 0.950 . S
H1851 C1863 0.950 . S
C1852 H1844 0.950 . S
C1852 C1853 1.386 . S
C1852 C1854 1.391 . S
C1853 C1852 1.386 . S
C1853 C1857 1.393 . S
C1854 H1846 0.950 . S
C1854 C1852 1.391 . S
C1854 C1855 1.400 . S
C1855 C1854 1.400 . S
C1855 C1856 1.398 . S
C1855 C1861 1.491 . S
C1856 H1847 0.950 . S
C1856 C1855 1.398 . S
C1856 C1857 1.391 . S
C1857 H1845 0.950 . S
C1857 C1853 1.393 . S
C1857 C1856 1.391 . S
C1858 H1848 0.950 . S
C1858 C1859 1.386 . S
C1858 C1860 1.391 . S
C1859 C1858 1.386 . S
C1859 C1863 1.393 . S
C1860 H1849 0.950 . S
C1860 C1858 1.391 . S
C1860 C1861 1.400 . S
C1861 C1855 1.491 . S
C1861 C1860 1.400 . S
C1861 C1862 1.398 . S
C1862 H1850 0.950 . S
C1862 C1861 1.398 . S
C1862 C1863 1.391 . S
C1863 H1851 0.950 . S
C1863 C1859 1.393 . S
C1863 C1862 1.391 . S
H1864 C1872 0.950 . S
H1865 C1877 0.950 . S
H1866 C1874 0.950 . S
H1867 C1876 0.950 . S
H1868 C1878 0.950 . S
H1869 C1880 0.950 . S
H1870 C1882 0.950 . S
H1871 C1883 0.950 . S
C1872 H1864 0.950 . S
C1872 C1873 1.386 . S
C1872 C1874 1.391 . S
C1873 C1872 1.386 . S
C1873 C1877 1.393 . S
C1874 H1866 0.950 . S
C1874 C1872 1.391 . S
C1874 C1875 1.400 . S
C1875 C1874 1.400 . S
C1875 C1876 1.398 . S
C1875 C1881 1.491 1_565 S
C1876 H1867 0.950 . S
C1876 C1875 1.398 . S
C1876 C1877 1.391 . S
C1877 H1865 0.950 . S
C1877 C1873 1.393 . S
C1877 C1876 1.391 . S
C1878 H1868 0.950 . S
C1878 C1879 1.386 . S
C1878 C1880 1.391 . S
C1879 C1878 1.386 . S
C1879 C1883 1.393 . S
C1880 H1869 0.950 . S
C1880 C1878 1.391 . S
C1880 C1881 1.400 . S
C1881 C1875 1.491 1_545 S
C1881 C1880 1.400 . S
C1881 C1882 1.398 . S
C1882 H1870 0.950 . S
C1882 C1881 1.398 . S
C1882 C1883 1.391 . S
C1883 H1871 0.950 . S
C1883 C1879 1.393 . S
C1883 C1882 1.391 . S
H1884 C1892 0.950 . S
H1885 C1897 0.950 . S
H1886 C1894 0.950 . S
H1887 C1896 0.950 . S
H1888 C1898 0.950 . S
H1889 C1900 0.950 . S
H1890 C1902 0.950 . S
H1891 C1903 0.950 . S
C1892 H1884 0.950 . S
C1892 C1893 1.386 . S
C1892 C1894 1.391 . S
C1893 C1892 1.386 . S
C1893 C1897 1.393 . S
C1894 H1886 0.950 . S
C1894 C1892 1.391 . S
C1894 C1895 1.400 . S
C1895 C1894 1.400 . S
C1895 C1896 1.398 . S
C1895 C1901 1.491 1_565 S
C1896 H1887 0.950 . S
C1896 C1895 1.398 . S
C1896 C1897 1.391 . S
C1897 H1885 0.950 . S
C1897 C1893 1.393 . S
C1897 C1896 1.391 . S
C1898 H1888 0.950 . S
C1898 C1899 1.386 . S
C1898 C1900 1.391 . S
C1899 C1898 1.386 . S
C1899 C1903 1.393 . S
C1900 H1889 0.950 . S
C1900 C1898 1.391 . S
C1900 C1901 1.400 . S
C1901 C1895 1.491 1_545 S
C1901 C1900 1.400 . S
C1901 C1902 1.398 . S
C1902 H1890 0.950 . S
C1902 C1901 1.398 . S
C1902 C1903 1.391 . S
C1903 H1891 0.950 . S
C1903 C1899 1.393 . S
C1903 C1902 1.391 . S
H1904 C1912 0.950 . S
H1905 C1917 0.950 . S
H1906 C1914 0.950 . S
H1907 C1916 0.950 . S
H1908 C1918 0.950 . S
H1909 C1920 0.950 . S
H1910 C1922 0.950 . S
H1911 C1923 0.950 . S
C1912 H1904 0.950 . S
C1912 C1913 1.386 . S
C1912 C1914 1.391 . S
C1913 C1912 1.386 . S
C1913 C1917 1.393 . S
C1914 H1906 0.950 . S
C1914 C1912 1.391 . S
C1914 C1915 1.400 . S
C1915 C1914 1.400 . S
C1915 C1916 1.398 . S
C1915 C1921 1.491 1_655 S
C1916 H1907 0.950 . S
C1916 C1915 1.398 . S
C1916 C1917 1.391 . S
C1917 H1905 0.950 . S
C1917 C1913 1.393 . S
C1917 C1916 1.391 . S
C1918 H1908 0.950 . S
C1918 C1919 1.386 . S
C1918 C1920 1.391 . S
C1919 C1918 1.386 . S
C1919 C1923 1.393 . S
C1920 H1909 0.950 . S
C1920 C1918 1.391 . S
C1920 C1921 1.400 . S
C1921 C1915 1.491 1_455 S
C1921 C1920 1.400 . S
C1921 C1922 1.398 . S
C1922 H1910 0.950 . S
C1922 C1921 1.398 . S
C1922 C1923 1.391 . S
C1923 H1911 0.950 . S
C1923 C1919 1.393 . S
C1923 C1922 1.391 . S
H1924 C1932 0.950 . S
H1925 C1937 0.950 . S
H1926 C1934 0.950 . S
H1927 C1936 0.950 . S
H1928 C1938 0.950 . S
H1929 C1940 0.950 . S
H1930 C1942 0.950 . S
H1931 C1943 0.950 . S
C1932 H1924 0.950 . S
C1932 C1933 1.386 . S
C1932 C1934 1.391 . S
C1933 C1932 1.386 . S
C1933 C1937 1.393 . S
C1934 H1926 0.950 . S
C1934 C1932 1.391 . S
C1934 C1935 1.400 . S
C1935 C1934 1.400 . S
C1935 C1936 1.398 . S
C1935 C1941 1.491 . S
C1936 H1927 0.950 . S
C1936 C1935 1.398 . S
C1936 C1937 1.391 . S
C1937 H1925 0.950 . S
C1937 C1933 1.393 . S
C1937 C1936 1.391 . S
C1938 H1928 0.950 . S
C1938 C1939 1.386 . S
C1938 C1940 1.391 . S
C1939 C1938 1.386 . S
C1939 C1943 1.393 . S
C1940 H1929 0.950 . S
C1940 C1938 1.391 . S
C1940 C1941 1.400 . S
C1941 C1935 1.491 . S
C1941 C1940 1.400 . S
C1941 C1942 1.398 . S
C1942 H1930 0.950 . S
C1942 C1941 1.398 . S
C1942 C1943 1.391 . S
C1943 H1931 0.950 . S
C1943 C1939 1.393 . S
C1943 C1942 1.391 . S
C513 C8 1.340 . S
C519 C260 1.332 . S
C533 C17 1.440 . S
C539 C273 1.458 . S
C553 C287 1.476 . S
C559 C31 1.440 . S
C573 C45 1.436 . S
C579 C469 1.456 . S
C593 C483 1.465 . S
C599 C59 1.443 . S
C613 C78 1.356 . S
C619 C498 1.353 . S
C633 C344 1.345 . S
C639 C92 1.343 . S
C653 C105 1.463 . S
C659 C353 1.463 . S
C673 C119 1.467 . S
C679 C367 1.452 . S
C693 C133 1.478 . S
C699 C213 1.451 . S
C713 C227 1.463 . S
C719 C147 1.462 . S
C733 C162 1.332 . S
C739 C246 1.339 . S
C753 C176 1.344 . S
C759 C428 1.335 . S
C773 C185 1.467 . S
C779 C441 1.470 . S
C793 C199 1.452 . S
C799 C455 1.477 . S
C813 C301 1.469 . S
C819 C381 1.430 . S
C833 C315 1.465 . S
C839 C395 1.465 . S
C853 C330 1.337 . S
C859 C414 1.340 . S
C873 C101 1.314 . S
C879 C3 1.305 . S
C893 C115 1.360 . S
C899 C22 1.413 . S
C913 C36 1.310 . S
C919 C93 1.234 . S
C933 C163 1.261 . S
C939 C50 1.322 . S
C953 C129 1.349 . S
C959 C64 1.408 . S
C973 C143 1.317 . S
C979 C73 1.315 . S
C993 C91 1.342 . S
C999 C21 1.329 . S
C1013 C106 1.423 . S
C1019 C35 1.392 . S
C1033 C120 1.339 . S
C1039 C9 1.293 . S
C1053 C134 1.325 . S
C1059 C79 1.270 . S
C1073 C49 1.386 . S
C1079 C148 1.424 . S
C1093 C63 1.327 . S
C1099 C161 1.337 . S
C1113 C171 1.321 . S
C1119 C269 1.314 . S
C1133 C190 1.402 . S
C1139 C283 1.359 . S
C1153 C204 1.321 . S
C1159 C261 1.264 . S
C1173 C331 1.241 . S
C1179 C218 1.309 . S
C1193 C232 1.413 . S
C1199 C297 1.373 . S
C1213 C311 1.298 . S
C1219 C241 1.322 . S
C1233 C259 1.326 . S
C1239 C189 1.303 . S
C1253 C203 1.368 . S
C1259 C274 1.414 . S
C1273 C177 1.297 . S
C1279 C288 1.338 . S
C1293 C302 1.326 . S
C1299 C247 1.276 . S
C1313 C316 1.426 . S
C1319 C217 1.395 . S
C1333 C329 1.326 . S
C1339 C231 1.312 . S
C1353 C437 1.305 . S
C1359 C339 1.324 . S
C1373 C358 1.413 . S
C1379 C451 1.360 . S
C1393 C372 1.320 . S
C1399 C429 1.267 . S
C1413 C499 1.241 . S
C1419 C386 1.309 . S
C1433 C465 1.353 . S
C1439 C400 1.411 . S
C1453 C479 1.293 . S
C1459 C409 1.301 . S
C1473 C357 1.320 . S
C1479 C427 1.347 . S
C1493 C371 1.384 . S
C1499 C442 1.424 . S
C1513 C345 1.289 . S
C1519 C456 1.339 . S
C1533 C470 1.332 . S
C1539 C415 1.268 . S
C1553 C385 1.382 . S
C1559 C484 1.417 . S
C1573 C497 1.334 . S
C1579 C399 1.325 . S
C1593 C7 0.973 . S
C1599 C413 0.984 . S
C1613 C387 0.941 . S
C1619 C23 0.948 . S
C1633 C37 0.978 . S
C1639 C401 0.983 . S
C1653 C51 0.942 . S
C1659 C191 0.946 . S
C1673 C205 0.956 . S
C1679 C65 0.940 . S
C1693 C77 0.979 . S
C1699 C175 0.979 . S
C1713 C325 0.986 . S
C1719 C87 0.974 . S
C1733 C107 0.990 . S
C1739 C303 0.960 . S
C1753 C121 0.994 . S
C1759 C317 0.971 . S
C1773 C135 0.991 . S
C1779 C443 0.982 . S
C1793 C149 0.993 . S
C1799 C457 0.979 . S
C1813 C423 0.986 . S
C1819 C157 0.973 . S
C1833 C219 0.939 . S
C1839 C359 0.955 . S
C1853 C373 0.946 . S
C1859 C233 0.942 . S
C1873 C343 0.981 . S
C1879 C245 0.978 . S
C1893 C493 0.972 . S
C1899 C255 0.986 . S
C1913 C275 0.979 . S
C1919 C471 0.952 . S
C1933 C289 0.955 . S
C1939 C485 0.964 . S
