# Generated by pormake.
# Topology rho, (4)-cn, num edge types: 1
# Building blocks:
#     Node 0, Type 0, BuildingBlock: QUQFOY_clean_sbu_1, # of connection points: 4
#     Node 1, Type 0, BuildingBlock: QUQFOY_clean_sbu_1, # of connection points: 4
#     Node 2, Type 0, BuildingBlock: QUQFOY_clean_sbu_1, # of connection points: 4
#     Node 3, Type 0, BuildingBlock: QUQFOY_clean_sbu_1, # of connection points: 4
#     Node 4, Type 0, BuildingBlock: QUQFOY_clean_sbu_1, # of connection points: 4
#     Node 5, Type 0, BuildingBlock: QUQFOY_clean_sbu_1, # of connection points: 4
#     Node 6, Type 0, BuildingBlock: QUQFOY_clean_sbu_1, # of connection points: 4
#     Node 7, Type 0, BuildingBlock: QUQFOY_clean_sbu_1, # of connection points: 4
#     Node 8, Type 0, BuildingBlock: QUQFOY_clean_sbu_1, # of connection points: 4
#     Node 9, Type 0, BuildingBlock: QUQFOY_clean_sbu_1, # of connection points: 4
#     Node 10, Type 0, BuildingBlock: QUQFOY_clean_sbu_1, # of connection points: 4
#     Node 11, Type 0, BuildingBlock: QUQFOY_clean_sbu_1, # of connection points: 4
#     Node 12, Type 0, BuildingBlock: QUQFOY_clean_sbu_1, # of connection points: 4
#     Node 13, Type 0, BuildingBlock: QUQFOY_clean_sbu_1, # of connection points: 4
#     Node 14, Type 0, BuildingBlock: QUQFOY_clean_sbu_1, # of connection points: 4
#     Node 15, Type 0, BuildingBlock: QUQFOY_clean_sbu_1, # of connection points: 4
#     Node 16, Type 0, BuildingBlock: QUQFOY_clean_sbu_1, # of connection points: 4
#     Node 17, Type 0, BuildingBlock: QUQFOY_clean_sbu_1, # of connection points: 4
#     Node 18, Type 0, BuildingBlock: QUQFOY_clean_sbu_1, # of connection points: 4
#     Node 19, Type 0, BuildingBlock: QUQFOY_clean_sbu_1, # of connection points: 4
#     Node 20, Type 0, BuildingBlock: QUQFOY_clean_sbu_1, # of connection points: 4
#     Node 21, Type 0, BuildingBlock: QUQFOY_clean_sbu_1, # of connection points: 4
#     Node 22, Type 0, BuildingBlock: QUQFOY_clean_sbu_1, # of connection points: 4
#     Node 23, Type 0, BuildingBlock: QUQFOY_clean_sbu_1, # of connection points: 4
#     Node 24, Type 0, BuildingBlock: QUQFOY_clean_sbu_1, # of connection points: 4
#     Node 25, Type 0, BuildingBlock: QUQFOY_clean_sbu_1, # of connection points: 4
#     Node 26, Type 0, BuildingBlock: QUQFOY_clean_sbu_1, # of connection points: 4
#     Node 27, Type 0, BuildingBlock: QUQFOY_clean_sbu_1, # of connection points: 4
#     Node 28, Type 0, BuildingBlock: QUQFOY_clean_sbu_1, # of connection points: 4
#     Node 29, Type 0, BuildingBlock: QUQFOY_clean_sbu_1, # of connection points: 4
#     Node 30, Type 0, BuildingBlock: QUQFOY_clean_sbu_1, # of connection points: 4
#     Node 31, Type 0, BuildingBlock: QUQFOY_clean_sbu_1, # of connection points: 4
#     Node 32, Type 0, BuildingBlock: QUQFOY_clean_sbu_1, # of connection points: 4
#     Node 33, Type 0, BuildingBlock: QUQFOY_clean_sbu_1, # of connection points: 4
#     Node 34, Type 0, BuildingBlock: QUQFOY_clean_sbu_1, # of connection points: 4
#     Node 35, Type 0, BuildingBlock: QUQFOY_clean_sbu_1, # of connection points: 4
#     Node 36, Type 0, BuildingBlock: QUQFOY_clean_sbu_1, # of connection points: 4
#     Node 37, Type 0, BuildingBlock: QUQFOY_clean_sbu_1, # of connection points: 4
#     Node 38, Type 0, BuildingBlock: QUQFOY_clean_sbu_1, # of connection points: 4
#     Node 39, Type 0, BuildingBlock: QUQFOY_clean_sbu_1, # of connection points: 4
#     Node 40, Type 0, BuildingBlock: QUQFOY_clean_sbu_1, # of connection points: 4
#     Node 41, Type 0, BuildingBlock: QUQFOY_clean_sbu_1, # of connection points: 4
#     Node 42, Type 0, BuildingBlock: QUQFOY_clean_sbu_1, # of connection points: 4
#     Node 43, Type 0, BuildingBlock: QUQFOY_clean_sbu_1, # of connection points: 4
#     Node 44, Type 0, BuildingBlock: QUQFOY_clean_sbu_1, # of connection points: 4
#     Node 45, Type 0, BuildingBlock: QUQFOY_clean_sbu_1, # of connection points: 4
#     Node 46, Type 0, BuildingBlock: QUQFOY_clean_sbu_1, # of connection points: 4
#     Node 47, Type 0, BuildingBlock: QUQFOY_clean_sbu_1, # of connection points: 4
#     Edge 48, Type (0, 0), BuildingBlock: TEMPAE_clean_linker_10, # of connection points: 2
#     Edge 49, Type (0, 0), BuildingBlock: TEMPAE_clean_linker_10, # of connection points: 2
#     Edge 50, Type (0, 0), BuildingBlock: TEMPAE_clean_linker_10, # of connection points: 2
#     Edge 51, Type (0, 0), BuildingBlock: TEMPAE_clean_linker_10, # of connection points: 2
#     Edge 52, Type (0, 0), BuildingBlock: TEMPAE_clean_linker_10, # of connection points: 2
#     Edge 53, Type (0, 0), BuildingBlock: TEMPAE_clean_linker_10, # of connection points: 2
#     Edge 54, Type (0, 0), BuildingBlock: TEMPAE_clean_linker_10, # of connection points: 2
#     Edge 55, Type (0, 0), BuildingBlock: TEMPAE_clean_linker_10, # of connection points: 2
#     Edge 56, Type (0, 0), BuildingBlock: TEMPAE_clean_linker_10, # of connection points: 2
#     Edge 57, Type (0, 0), BuildingBlock: TEMPAE_clean_linker_10, # of connection points: 2
#     Edge 58, Type (0, 0), BuildingBlock: TEMPAE_clean_linker_10, # of connection points: 2
#     Edge 59, Type (0, 0), BuildingBlock: TEMPAE_clean_linker_10, # of connection points: 2
#     Edge 60, Type (0, 0), BuildingBlock: TEMPAE_clean_linker_10, # of connection points: 2
#     Edge 61, Type (0, 0), BuildingBlock: TEMPAE_clean_linker_10, # of connection points: 2
#     Edge 62, Type (0, 0), BuildingBlock: TEMPAE_clean_linker_10, # of connection points: 2
#     Edge 63, Type (0, 0), BuildingBlock: TEMPAE_clean_linker_10, # of connection points: 2
#     Edge 64, Type (0, 0), BuildingBlock: TEMPAE_clean_linker_10, # of connection points: 2
#     Edge 65, Type (0, 0), BuildingBlock: TEMPAE_clean_linker_10, # of connection points: 2
#     Edge 66, Type (0, 0), BuildingBlock: TEMPAE_clean_linker_10, # of connection points: 2
#     Edge 67, Type (0, 0), BuildingBlock: TEMPAE_clean_linker_10, # of connection points: 2
#     Edge 68, Type (0, 0), BuildingBlock: TEMPAE_clean_linker_10, # of connection points: 2
#     Edge 69, Type (0, 0), BuildingBlock: TEMPAE_clean_linker_10, # of connection points: 2
#     Edge 70, Type (0, 0), BuildingBlock: TEMPAE_clean_linker_10, # of connection points: 2
#     Edge 71, Type (0, 0), BuildingBlock: TEMPAE_clean_linker_10, # of connection points: 2
#     Edge 72, Type (0, 0), BuildingBlock: TEMPAE_clean_linker_10, # of connection points: 2
#     Edge 73, Type (0, 0), BuildingBlock: TEMPAE_clean_linker_10, # of connection points: 2
#     Edge 74, Type (0, 0), BuildingBlock: TEMPAE_clean_linker_10, # of connection points: 2
#     Edge 75, Type (0, 0), BuildingBlock: TEMPAE_clean_linker_10, # of connection points: 2
#     Edge 76, Type (0, 0), BuildingBlock: TEMPAE_clean_linker_10, # of connection points: 2
#     Edge 77, Type (0, 0), BuildingBlock: TEMPAE_clean_linker_10, # of connection points: 2
#     Edge 78, Type (0, 0), BuildingBlock: TEMPAE_clean_linker_10, # of connection points: 2
#     Edge 79, Type (0, 0), BuildingBlock: TEMPAE_clean_linker_10, # of connection points: 2
#     Edge 80, Type (0, 0), BuildingBlock: TEMPAE_clean_linker_10, # of connection points: 2
#     Edge 81, Type (0, 0), BuildingBlock: TEMPAE_clean_linker_10, # of connection points: 2
#     Edge 82, Type (0, 0), BuildingBlock: TEMPAE_clean_linker_10, # of connection points: 2
#     Edge 83, Type (0, 0), BuildingBlock: TEMPAE_clean_linker_10, # of connection points: 2
#     Edge 84, Type (0, 0), BuildingBlock: TEMPAE_clean_linker_10, # of connection points: 2
#     Edge 85, Type (0, 0), BuildingBlock: TEMPAE_clean_linker_10, # of connection points: 2
#     Edge 86, Type (0, 0), BuildingBlock: TEMPAE_clean_linker_10, # of connection points: 2
#     Edge 87, Type (0, 0), BuildingBlock: TEMPAE_clean_linker_10, # of connection points: 2
#     Edge 88, Type (0, 0), BuildingBlock: TEMPAE_clean_linker_10, # of connection points: 2
#     Edge 89, Type (0, 0), BuildingBlock: TEMPAE_clean_linker_10, # of connection points: 2
#     Edge 90, Type (0, 0), BuildingBlock: TEMPAE_clean_linker_10, # of connection points: 2
#     Edge 91, Type (0, 0), BuildingBlock: TEMPAE_clean_linker_10, # of connection points: 2
#     Edge 92, Type (0, 0), BuildingBlock: TEMPAE_clean_linker_10, # of connection points: 2
#     Edge 93, Type (0, 0), BuildingBlock: TEMPAE_clean_linker_10, # of connection points: 2
#     Edge 94, Type (0, 0), BuildingBlock: TEMPAE_clean_linker_10, # of connection points: 2
#     Edge 95, Type (0, 0), BuildingBlock: TEMPAE_clean_linker_10, # of connection points: 2
#     Edge 96, Type (0, 0), BuildingBlock: TEMPAE_clean_linker_10, # of connection points: 2
#     Edge 97, Type (0, 0), BuildingBlock: TEMPAE_clean_linker_10, # of connection points: 2
#     Edge 98, Type (0, 0), BuildingBlock: TEMPAE_clean_linker_10, # of connection points: 2
#     Edge 99, Type (0, 0), BuildingBlock: TEMPAE_clean_linker_10, # of connection points: 2
#     Edge 100, Type (0, 0), BuildingBlock: TEMPAE_clean_linker_10, # of connection points: 2
#     Edge 101, Type (0, 0), BuildingBlock: TEMPAE_clean_linker_10, # of connection points: 2
#     Edge 102, Type (0, 0), BuildingBlock: TEMPAE_clean_linker_10, # of connection points: 2
#     Edge 103, Type (0, 0), BuildingBlock: TEMPAE_clean_linker_10, # of connection points: 2
#     Edge 104, Type (0, 0), BuildingBlock: TEMPAE_clean_linker_10, # of connection points: 2
#     Edge 105, Type (0, 0), BuildingBlock: TEMPAE_clean_linker_10, # of connection points: 2
#     Edge 106, Type (0, 0), BuildingBlock: TEMPAE_clean_linker_10, # of connection points: 2
#     Edge 107, Type (0, 0), BuildingBlock: TEMPAE_clean_linker_10, # of connection points: 2
#     Edge 108, Type (0, 0), BuildingBlock: TEMPAE_clean_linker_10, # of connection points: 2
#     Edge 109, Type (0, 0), BuildingBlock: TEMPAE_clean_linker_10, # of connection points: 2
#     Edge 110, Type (0, 0), BuildingBlock: TEMPAE_clean_linker_10, # of connection points: 2
#     Edge 111, Type (0, 0), BuildingBlock: TEMPAE_clean_linker_10, # of connection points: 2
#     Edge 112, Type (0, 0), BuildingBlock: TEMPAE_clean_linker_10, # of connection points: 2
#     Edge 113, Type (0, 0), BuildingBlock: TEMPAE_clean_linker_10, # of connection points: 2
#     Edge 114, Type (0, 0), BuildingBlock: TEMPAE_clean_linker_10, # of connection points: 2
#     Edge 115, Type (0, 0), BuildingBlock: TEMPAE_clean_linker_10, # of connection points: 2
#     Edge 116, Type (0, 0), BuildingBlock: TEMPAE_clean_linker_10, # of connection points: 2
#     Edge 117, Type (0, 0), BuildingBlock: TEMPAE_clean_linker_10, # of connection points: 2
#     Edge 118, Type (0, 0), BuildingBlock: TEMPAE_clean_linker_10, # of connection points: 2
#     Edge 119, Type (0, 0), BuildingBlock: TEMPAE_clean_linker_10, # of connection points: 2
#     Edge 120, Type (0, 0), BuildingBlock: TEMPAE_clean_linker_10, # of connection points: 2
#     Edge 121, Type (0, 0), BuildingBlock: TEMPAE_clean_linker_10, # of connection points: 2
#     Edge 122, Type (0, 0), BuildingBlock: TEMPAE_clean_linker_10, # of connection points: 2
#     Edge 123, Type (0, 0), BuildingBlock: TEMPAE_clean_linker_10, # of connection points: 2
#     Edge 124, Type (0, 0), BuildingBlock: TEMPAE_clean_linker_10, # of connection points: 2
#     Edge 125, Type (0, 0), BuildingBlock: TEMPAE_clean_linker_10, # of connection points: 2
#     Edge 126, Type (0, 0), BuildingBlock: TEMPAE_clean_linker_10, # of connection points: 2
#     Edge 127, Type (0, 0), BuildingBlock: TEMPAE_clean_linker_10, # of connection points: 2
#     Edge 128, Type (0, 0), BuildingBlock: TEMPAE_clean_linker_10, # of connection points: 2
#     Edge 129, Type (0, 0), BuildingBlock: TEMPAE_clean_linker_10, # of connection points: 2
#     Edge 130, Type (0, 0), BuildingBlock: TEMPAE_clean_linker_10, # of connection points: 2
#     Edge 131, Type (0, 0), BuildingBlock: TEMPAE_clean_linker_10, # of connection points: 2
#     Edge 132, Type (0, 0), BuildingBlock: TEMPAE_clean_linker_10, # of connection points: 2
#     Edge 133, Type (0, 0), BuildingBlock: TEMPAE_clean_linker_10, # of connection points: 2
#     Edge 134, Type (0, 0), BuildingBlock: TEMPAE_clean_linker_10, # of connection points: 2
#     Edge 135, Type (0, 0), BuildingBlock: TEMPAE_clean_linker_10, # of connection points: 2
#     Edge 136, Type (0, 0), BuildingBlock: TEMPAE_clean_linker_10, # of connection points: 2
#     Edge 137, Type (0, 0), BuildingBlock: TEMPAE_clean_linker_10, # of connection points: 2
#     Edge 138, Type (0, 0), BuildingBlock: TEMPAE_clean_linker_10, # of connection points: 2
#     Edge 139, Type (0, 0), BuildingBlock: TEMPAE_clean_linker_10, # of connection points: 2
#     Edge 140, Type (0, 0), BuildingBlock: TEMPAE_clean_linker_10, # of connection points: 2
#     Edge 141, Type (0, 0), BuildingBlock: TEMPAE_clean_linker_10, # of connection points: 2
#     Edge 142, Type (0, 0), BuildingBlock: TEMPAE_clean_linker_10, # of connection points: 2
#     Edge 143, Type (0, 0), BuildingBlock: TEMPAE_clean_linker_10, # of connection points: 2
# Relax obj value: 0.016
# Max RMSD: 0.061
# Mean RMSD: 0.061
data_MOF--net-rho--node1-QUQFOY_clean_sbu_1--edge1-TEMPAE_clean_linker_10
_symmetry_space_group_name_H-M    P1
_symmetry_Int_Tables_number       1
_symmetry_cell_setting            triclinic
loop_
_symmetry_equiv_pos_as_xyz
'x, y, z'
_cell_length_a     77.062754
_cell_length_b     77.074373
_cell_length_c     77.058169
_cell_angle_alpha  89.992572
_cell_angle_beta   89.986065
_cell_angle_gamma 89.998691
loop_
_atom_site_label
_atom_site_type_symbol
_atom_site_fract_x
_atom_site_fract_y
_atom_site_fract_z
_atom_type_partial_charge
O0 O 0.1089 0.23962 0.42996 0.0
Cd1 Cd 0.10419 0.23425 0.40399 0.0
Cd2 Cd 0.09983 0.26913 0.40328 0.0
O3 O 0.10981 0.26818 0.42803 0.0
O4 O 0.11188 0.20973 0.40085 0.0
O5 O 0.12542 0.23199 0.38879 0.0
C6 C 0.12461 0.21551 0.39169 0.0
C7 C 0.10997 0.28876 0.38256 0.0
C8 C 0.11145 0.25437 0.43689 0.0
C9 C 0.06833 0.24744 0.39678 0.0
O10 O 0.07415 0.26227 0.401 0.0
O11 O 0.07856 0.23455 0.39542 0.0
O12 O 0.10138 0.29389 0.39596 0.0
O13 O 0.11342 0.27241 0.38116 0.0
O14 O 0.74157 0.07609 0.39611 0.0
Cd15 Cd 0.73147 0.10028 0.40139 0.0
Cd16 Cd 0.76714 0.10694 0.40816 0.0
O17 O 0.76934 0.08085 0.40171 0.0
O18 O 0.70713 0.09941 0.39256 0.0
O19 O 0.72736 0.11608 0.38085 0.0
C20 C 0.71163 0.11028 0.38069 0.0
C21 C 0.78875 0.12658 0.39967 0.0
C22 C 0.75714 0.07071 0.39709 0.0
C23 C 0.74105 0.11187 0.43742 0.0
O24 O 0.75657 0.11285 0.43199 0.0
O25 O 0.72889 0.1071 0.42734 0.0
O26 O 0.79132 0.11536 0.41177 0.0
O27 O 0.77406 0.12622 0.39162 0.0
O28 O 0.90028 0.76153 0.43443 0.0
Cd29 Cd 0.90281 0.77346 0.41071 0.0
Cd30 Cd 0.90893 0.73772 0.40157 0.0
O31 O 0.90266 0.73377 0.42758 0.0
O32 O 0.89295 0.79695 0.41547 0.0
O33 O 0.88199 0.77931 0.39571 0.0
C34 C 0.88122 0.79387 0.40398 0.0
C35 C 0.90184 0.71604 0.38133 0.0
C36 C 0.90038 0.74564 0.43884 0.0
C37 C 0.93794 0.76506 0.39724 0.0
O38 O 0.93247 0.74954 0.39607 0.0
O39 O 0.92806 0.77713 0.40261 0.0
O40 O 0.91401 0.714 0.39255 0.0
O41 O 0.89296 0.73023 0.38194 0.0
O42 O 0.25769 0.93214 0.39101 0.0
Cd43 Cd 0.26581 0.9071 0.39684 0.0
Cd44 Cd 0.23038 0.90447 0.40225 0.0
O45 O 0.22926 0.92921 0.39241 0.0
O46 O 0.29054 0.90857 0.38935 0.0
O47 O 0.2718 0.89067 0.37714 0.0
C48 C 0.2872 0.89726 0.37752 0.0
C49 C 0.21178 0.88276 0.39235 0.0
C50 C 0.24254 0.93847 0.38944 0.0
C51 C 0.25349 0.89974 0.43324 0.0
O52 O 0.23824 0.9026 0.42768 0.0
O53 O 0.26636 0.89948 0.42286 0.0
O54 O 0.20611 0.89565 0.40138 0.0
O55 O 0.22808 0.88237 0.38845 0.0
O56 O 0.07158 0.75004 0.60624 0.0
Cd57 Cd 0.09665 0.74044 0.60452 0.0
Cd58 Cd 0.10092 0.77612 0.59937 0.0
O59 O 0.07563 0.77833 0.60803 0.0
O60 O 0.09258 0.71602 0.61208 0.0
O61 O 0.11033 0.73367 0.62601 0.0
C62 C 0.1029 0.7187 0.62492 0.0
C63 C 0.12234 0.79628 0.60707 0.0
C64 C 0.06556 0.76527 0.6083 0.0
C65 C 0.10709 0.75112 0.56931 0.0
O66 O 0.10382 0.76641 0.57455 0.0
O67 O 0.10693 0.73842 0.57982 0.0
O68 O 0.1101 0.80012 0.59635 0.0
O69 O 0.122 0.78115 0.61428 0.0
O70 O 0.24375 0.10809 0.5708 0.0
Cd71 Cd 0.23647 0.10234 0.5959 0.0
Cd72 Cd 0.27164 0.09854 0.60044 0.0
O73 O 0.27209 0.10578 0.57452 0.0
O74 O 0.2118 0.10986 0.598 0.0
O75 O 0.2333 0.12264 0.61214 0.0
C76 C 0.217 0.12193 0.60832 0.0
C77 C 0.29083 0.11082 0.62042 0.0
C78 C 0.2591 0.10883 0.5648 0.0
C79 C 0.24951 0.06694 0.60629 0.0
O80 O 0.26472 0.0733 0.60591 0.0
O81 O 0.23637 0.07637 0.603 0.0
O82 O 0.29618 0.10063 0.6083 0.0
O83 O 0.27451 0.11468 0.62087 0.0
O84 O 0.93201 0.25774 0.60641 0.0
Cd85 Cd 0.90794 0.2681 0.60028 0.0
Cd86 Cd 0.90356 0.23242 0.59262 0.0
O87 O 0.9285 0.22965 0.60186 0.0
O88 O 0.91138 0.2922 0.60899 0.0
O89 O 0.89142 0.27469 0.61974 0.0
C90 C 0.89939 0.28942 0.62028 0.0
C91 C 0.88176 0.21259 0.60007 0.0
C92 C 0.93795 0.24235 0.60648 0.0
C93 C 0.90073 0.25863 0.56322 0.0
O94 O 0.90171 0.24295 0.56819 0.0
O95 O 0.90169 0.27101 0.57412 0.0
O96 O 0.89384 0.20868 0.58919 0.0
O97 O 0.88231 0.22768 0.60733 0.0
O98 O 0.75937 0.89749 0.57615 0.0
Cd99 Cd 0.76882 0.90193 0.60076 0.0
Cd100 Cd 0.73306 0.90905 0.60659 0.0
O101 O 0.73158 0.90351 0.5802 0.0
O102 O 0.79321 0.89334 0.59991 0.0
O103 O 0.77293 0.88095 0.61599 0.0
C104 C 0.78873 0.88114 0.6104 0.0
C105 C 0.71103 0.89988 0.62548 0.0
C106 C 0.74402 0.89897 0.57031 0.0
C107 C 0.75937 0.9377 0.61324 0.0
O108 O 0.74373 0.93254 0.61362 0.0
O109 O 0.77147 0.92758 0.60845 0.0
O110 O 0.70867 0.91231 0.61458 0.0
O111 O 0.72576 0.8919 0.62519 0.0
O112 O 0.40301 0.07238 0.26599 0.0
Cd113 Cd 0.40521 0.09882 0.27011 0.0
Cd114 Cd 0.40499 0.09857 0.2361 0.0
O115 O 0.39308 0.07467 0.23929 0.0
O116 O 0.39803 0.10301 0.29463 0.0
O117 O 0.38282 0.11218 0.27203 0.0
C118 C 0.38433 0.11054 0.28865 0.0
C119 C 0.39478 0.11986 0.21703 0.0
C120 C 0.39619 0.06548 0.25264 0.0
C121 C 0.4388 0.10563 0.25389 0.0
O122 O 0.43152 0.09938 0.24046 0.0
O123 O 0.42976 0.1092 0.26722 0.0
O124 O 0.40162 0.10566 0.21139 0.0
O125 O 0.39291 0.12164 0.23361 0.0
O126 O 0.92864 0.39599 0.25534 0.0
Cd127 Cd 0.90316 0.4007 0.26293 0.0
Cd128 Cd 0.90123 0.40696 0.22743 0.0
O129 O 0.92628 0.3978 0.22679 0.0
O130 O 0.90268 0.39329 0.28775 0.0
O131 O 0.88808 0.3796 0.26723 0.0
C132 C 0.89271 0.38067 0.28329 0.0
C133 C 0.88053 0.399 0.20675 0.0
C134 C 0.93533 0.39488 0.24027 0.0
C135 C 0.89538 0.43705 0.25168 0.0
O136 O 0.89874 0.43187 0.23643 0.0
O137 O 0.89475 0.42637 0.26424 0.0
O138 O 0.89311 0.40935 0.20302 0.0
O139 O 0.88009 0.39233 0.22213 0.0
O140 O 0.57155 0.89235 0.24626 0.0
Cd141 Cd 0.59631 0.89818 0.23742 0.0
Cd142 Cd 0.5991 0.90572 0.27332 0.0
O143 O 0.57413 0.89617 0.27453 0.0
O144 O 0.59378 0.89043 0.21285 0.0
O145 O 0.6127 0.8786 0.2308 0.0
C146 C 0.60541 0.87882 0.21571 0.0
C147 C 0.6203 0.897 0.29325 0.0
C148 C 0.56506 0.892 0.26142 0.0
C149 C 0.60383 0.93522 0.24798 0.0
O150 O 0.60151 0.9305 0.26363 0.0
O151 O 0.60352 0.92419 0.23568 0.0
O152 O 0.60736 0.9065 0.2979 0.0
O153 O 0.62107 0.89196 0.27727 0.0
O154 O 0.11174 0.57203 0.24718 0.0
Cd155 Cd 0.10575 0.59472 0.23438 0.0
Cd156 Cd 0.09771 0.60418 0.26934 0.0
O157 O 0.10332 0.57824 0.27388 0.0
O158 O 0.11571 0.59002 0.21099 0.0
O159 O 0.12474 0.61159 0.22758 0.0
C160 C 0.12623 0.60277 0.21341 0.0
C161 C 0.10499 0.6247 0.29053 0.0
C162 C 0.10937 0.56755 0.26286 0.0
C163 C 0.06952 0.60686 0.24164 0.0
O164 O 0.07474 0.60986 0.25697 0.0
O165 O 0.07963 0.60021 0.23042 0.0
O166 O 0.0925 0.61384 0.29271 0.0
O167 O 0.11405 0.62354 0.27649 0.0
O168 O 0.42591 0.90311 0.76734 0.0
Cd169 Cd 0.39965 0.90471 0.77288 0.0
Cd170 Cd 0.39878 0.90717 0.73784 0.0
O171 O 0.42347 0.89665 0.73953 0.0
O172 O 0.39726 0.89643 0.79729 0.0
O173 O 0.38654 0.88213 0.77481 0.0
C174 C 0.38931 0.88298 0.79133 0.0
C175 C 0.37959 0.89881 0.71575 0.0
C176 C 0.43271 0.89824 0.75311 0.0
C177 C 0.39096 0.93913 0.75954 0.0
O178 O 0.39622 0.93291 0.74519 0.0
O179 O 0.38887 0.92924 0.77256 0.0
O180 O 0.3928 0.90857 0.71268 0.0
O181 O 0.3776 0.89297 0.73134 0.0
O182 O 0.1054 0.42863 0.75908 0.0
Cd183 Cd 0.1026 0.40453 0.7701 0.0
Cd184 Cd 0.09952 0.39612 0.73422 0.0
O185 O 0.10683 0.42198 0.7312 0.0
O186 O 0.11129 0.40843 0.79416 0.0
O187 O 0.12348 0.38975 0.77612 0.0
C188 C 0.12346 0.39741 0.79104 0.0
C189 C 0.10785 0.37574 0.71315 0.0
C190 C 0.10741 0.43314 0.74335 0.0
C191 C 0.06834 0.39127 0.75898 0.0
O192 O 0.0749 0.39094 0.74384 0.0
O193 O 0.0774 0.39582 0.77199 0.0
O194 O 0.09635 0.38744 0.71006 0.0
O195 O 0.11546 0.37603 0.72807 0.0
O196 O 0.60552 0.07088 0.74276 0.0
Cd197 Cd 0.6007 0.09632 0.73515 0.0
Cd198 Cd 0.59535 0.09891 0.7706 0.0
O199 O 0.60446 0.0738 0.7713 0.0
O200 O 0.60872 0.09752 0.71051 0.0
O201 O 0.62176 0.11165 0.73182 0.0
C202 C 0.62117 0.10744 0.7156 0.0
C203 C 0.60378 0.11977 0.79101 0.0
C204 C 0.60699 0.06447 0.75792 0.0
C205 C 0.56457 0.10423 0.74692 0.0
O206 O 0.57023 0.10139 0.76211 0.0
O207 O 0.57491 0.10448 0.73405 0.0
O208 O 0.59346 0.10724 0.79501 0.0
O209 O 0.61014 0.12007 0.7755 0.0
O210 O 0.89267 0.56972 0.76095 0.0
Cd211 Cd 0.89936 0.59333 0.77143 0.0
Cd212 Cd 0.90525 0.6002 0.73564 0.0
O213 O 0.89784 0.57445 0.73317 0.0
O214 O 0.89127 0.58991 0.79574 0.0
O215 O 0.88042 0.61014 0.77859 0.0
C216 C 0.8801 0.60207 0.79327 0.0
C217 C 0.89562 0.62056 0.71524 0.0
C218 C 0.89314 0.5644 0.74538 0.0
C219 C 0.93558 0.60349 0.76062 0.0
O220 O 0.92975 0.60492 0.74525 0.0
O221 O 0.9257 0.59894 0.77307 0.0
O222 O 0.90637 0.60846 0.71113 0.0
O223 O 0.8898 0.62091 0.73096 0.0
O224 O 0.25789 0.39429 0.07382 0.0
Cd225 Cd 0.26607 0.40063 0.09862 0.0
Cd226 Cd 0.23026 0.40601 0.10099 0.0
O227 O 0.22941 0.3955 0.07644 0.0
O228 O 0.29086 0.39353 0.09648 0.0
O229 O 0.27288 0.38119 0.11507 0.0
C230 C 0.28801 0.38169 0.1079 0.0
C231 C 0.21118 0.39696 0.12277 0.0
C232 C 0.24282 0.39244 0.06738 0.0
C233 C 0.25366 0.43713 0.10482 0.0
O234 O 0.23841 0.43141 0.10222 0.0
O235 O 0.26657 0.42682 0.10544 0.0
O236 O 0.20581 0.40567 0.10954 0.0
O237 O 0.22743 0.39289 0.12349 0.0
O238 O 0.23522 0.57429 0.89529 0.0
Cd239 Cd 0.22632 0.59914 0.8995 0.0
Cd240 Cd 0.262 0.6046 0.90627 0.0
O241 O 0.26314 0.5782 0.90073 0.0
O242 O 0.20219 0.59935 0.89019 0.0
O243 O 0.22356 0.61451 0.87844 0.0
C244 C 0.20753 0.60961 0.87813 0.0
C245 C 0.28453 0.62307 0.89749 0.0
C246 C 0.25056 0.56835 0.89653 0.0
C247 C 0.23586 0.61175 0.93505 0.0
O248 O 0.25145 0.61186 0.92975 0.0
O249 O 0.22361 0.60704 0.92508 0.0
O250 O 0.2865 0.61206 0.90989 0.0
O251 O 0.26992 0.62309 0.88928 0.0
O252 O 0.39988 0.26241 0.93639 0.0
Cd253 Cd 0.40195 0.27244 0.91173 0.0
Cd254 Cd 0.40516 0.23632 0.90481 0.0
O255 O 0.39906 0.23422 0.93111 0.0
O256 O 0.39287 0.29652 0.91459 0.0
O257 O 0.38082 0.27738 0.89693 0.0
C258 C 0.3807 0.29268 0.90379 0.0
C259 C 0.3965 0.21467 0.88525 0.0
C260 C 0.39851 0.24687 0.94173 0.0
C261 C 0.43581 0.26115 0.8977 0.0
O262 O 0.42936 0.24598 0.89819 0.0
O263 O 0.42688 0.27425 0.90222 0.0
O264 O 0.40836 0.21199 0.89669 0.0
O265 O 0.38859 0.22944 0.8855 0.0
O266 O 0.75684 0.43121 0.89016 0.0
Cd267 Cd 0.76836 0.40772 0.89564 0.0
Cd268 Cd 0.73279 0.39982 0.90286 0.0
O269 O 0.72961 0.42608 0.89764 0.0
O270 O 0.79225 0.41175 0.88655 0.0
O271 O 0.7751 0.39124 0.87625 0.0
C272 C 0.78968 0.39948 0.87552 0.0
C273 C 0.71136 0.37988 0.8945 0.0
C274 C 0.74134 0.43641 0.89229 0.0
C275 C 0.75964 0.39547 0.93159 0.0
O276 O 0.74423 0.39346 0.92612 0.0
O277 O 0.77142 0.40143 0.92168 0.0
O278 O 0.70892 0.39075 0.90694 0.0
O279 O 0.72579 0.38081 0.88603 0.0
O280 O 0.60123 0.73877 0.92966 0.0
Cd281 Cd 0.60034 0.73196 0.90363 0.0
Cd282 Cd 0.59701 0.76698 0.90129 0.0
O283 O 0.60667 0.76671 0.92636 0.0
O284 O 0.60854 0.70741 0.90265 0.0
O285 O 0.62326 0.72923 0.89118 0.0
C286 C 0.62217 0.71286 0.89465 0.0
C287 C 0.60547 0.7881 0.88108 0.0
C288 C 0.60529 0.75343 0.93608 0.0
C289 C 0.56583 0.74433 0.89345 0.0
O290 O 0.57154 0.759 0.89836 0.0
O291 O 0.57608 0.73149 0.89216 0.0
O292 O 0.59536 0.79174 0.89389 0.0
O293 O 0.61166 0.77255 0.88014 0.0
O294 O 0.74888 0.61303 0.07602 0.0
Cd295 Cd 0.73676 0.60647 0.09892 0.0
Cd296 Cd 0.77199 0.59882 0.10715 0.0
O297 O 0.77591 0.60499 0.08122 0.0
O298 O 0.71301 0.61554 0.0943 0.0
O299 O 0.7293 0.62525 0.11579 0.0
C300 C 0.71509 0.62621 0.10698 0.0
C301 C 0.79266 0.60705 0.12783 0.0
C302 C 0.76444 0.61101 0.071 0.0
C303 C 0.74508 0.57 0.10987 0.0
O304 O 0.76045 0.57532 0.11245 0.0
O305 O 0.73348 0.58021 0.10405 0.0
O306 O 0.79555 0.59476 0.1169 0.0
O307 O 0.77816 0.61536 0.12665 0.0
O308 O 0.43099 0.76441 0.10079 0.0
Cd309 Cd 0.40525 0.77131 0.098 0.0
Cd310 Cd 0.4032 0.73625 0.09717 0.0
O311 O 0.42741 0.73722 0.10879 0.0
O312 O 0.40599 0.79621 0.10499 0.0
O313 O 0.39065 0.77658 0.11923 0.0
C314 C 0.39627 0.79233 0.11803 0.0
C315 C 0.38216 0.71638 0.10647 0.0
C316 C 0.43721 0.75028 0.10655 0.0
C317 C 0.39775 0.75641 0.06381 0.0
O318 O 0.40228 0.74219 0.07091 0.0
O319 O 0.39566 0.76998 0.07297 0.0
O320 O 0.39613 0.71136 0.09878 0.0
O321 O 0.38029 0.73276 0.10949 0.0
O322 O 0.57144 0.24626 0.10201 0.0
Cd323 Cd 0.59566 0.23563 0.09861 0.0
Cd324 Cd 0.60317 0.27174 0.0947 0.0
O325 O 0.57731 0.27434 0.10227 0.0
O326 O 0.59211 0.21155 0.10736 0.0
O327 O 0.61113 0.2296 0.11899 0.0
C328 C 0.60355 0.21466 0.11913 0.0
C329 C 0.62332 0.29315 0.10264 0.0
C330 C 0.56651 0.26191 0.10358 0.0
C331 C 0.6082 0.24652 0.06395 0.0
O332 O 0.60841 0.26178 0.07024 0.0
O333 O 0.60384 0.23362 0.07325 0.0
O334 O 0.61151 0.29597 0.09118 0.0
O335 O 0.62326 0.27833 0.11045 0.0
O336 O 0.89423 0.75445 0.57198 0.0
Cd337 Cd 0.8997 0.76791 0.59445 0.0
Cd338 Cd 0.90994 0.73386 0.60417 0.0
O339 O 0.90528 0.72871 0.57811 0.0
O340 O 0.88872 0.79074 0.58931 0.0
O341 O 0.8806 0.77432 0.61138 0.0
C342 C 0.87852 0.78826 0.60231 0.0
C343 C 0.90203 0.71318 0.62498 0.0
C344 C 0.89809 0.73907 0.56746 0.0
C345 C 0.93627 0.76317 0.607 0.0
O346 O 0.93202 0.74761 0.61039 0.0
O347 O 0.92554 0.77346 0.59982 0.0
O348 O 0.91526 0.71102 0.61502 0.0
O349 O 0.8927 0.72693 0.6228 0.0
O350 O 0.26881 0.93099 0.59927 0.0
Cd351 Cd 0.27506 0.90518 0.59713 0.0
Cd352 Cd 0.2399 0.90159 0.5959 0.0
O353 O 0.24098 0.9271 0.60483 0.0
O354 O 0.2994 0.90269 0.60568 0.0
O355 O 0.27672 0.89156 0.61941 0.0
C356 C 0.29323 0.89446 0.6189 0.0
C357 C 0.21941 0.88225 0.60735 0.0
C358 C 0.25409 0.93707 0.60352 0.0
C359 C 0.26063 0.89442 0.56314 0.0
O360 O 0.24584 0.89711 0.56998 0.0
O361 O 0.27438 0.89555 0.57219 0.0
O362 O 0.21482 0.89532 0.59802 0.0
O363 O 0.2357 0.88037 0.6108 0.0
O364 O 0.10374 0.23621 0.57333 0.0
Cd365 Cd 0.10178 0.22999 0.59932 0.0
Cd366 Cd 0.10102 0.26446 0.60095 0.0
O367 O 0.11223 0.26327 0.57655 0.0
O368 O 0.10915 0.20525 0.59917 0.0
O369 O 0.12347 0.22565 0.61344 0.0
C370 C 0.12236 0.2097 0.60839 0.0
C371 C 0.11143 0.28366 0.622 0.0
C372 C 0.10965 0.25018 0.56689 0.0
C373 C 0.06785 0.24466 0.6077 0.0
O374 O 0.0747 0.25881 0.60259 0.0
O375 O 0.07718 0.23121 0.60977 0.0
O376 O 0.10344 0.28914 0.60838 0.0
O377 O 0.11409 0.26717 0.62349 0.0
O378 O 0.74096 0.07264 0.60487 0.0
Cd379 Cd 0.73268 0.09803 0.60223 0.0
Cd380 Cd 0.76797 0.10165 0.59874 0.0
O381 O 0.76873 0.07721 0.60987 0.0
O382 O 0.7081 0.09593 0.61007 0.0
O383 O 0.72724 0.11249 0.62354 0.0
C384 C 0.71178 0.10605 0.62284 0.0
C385 C 0.78798 0.12291 0.60718 0.0
C386 C 0.75584 0.06696 0.60912 0.0
C387 C 0.74514 0.10688 0.5671 0.0
O388 O 0.7601 0.1031 0.57302 0.0
O389 O 0.73213 0.10777 0.57722 0.0
O390 O 0.79273 0.10933 0.59869 0.0
O391 O 0.77182 0.1243 0.61143 0.0
O392 O 0.93353 0.26048 0.39117 0.0
Cd393 Cd 0.90978 0.27116 0.39722 0.0
Cd394 Cd 0.90277 0.23607 0.40462 0.0
O395 O 0.92862 0.23304 0.3977 0.0
O396 O 0.91275 0.29502 0.38773 0.0
O397 O 0.89272 0.27693 0.37805 0.0
C398 C 0.90048 0.29174 0.37688 0.0
C399 C 0.88212 0.21615 0.39472 0.0
C400 C 0.93879 0.24494 0.39249 0.0
C401 C 0.89913 0.26222 0.43381 0.0
O402 O 0.89772 0.24659 0.42872 0.0
O403 O 0.90389 0.27412 0.42339 0.0
O404 O 0.89384 0.2118 0.40581 0.0
O405 O 0.88229 0.23182 0.38878 0.0
O406 O 0.76145 0.90492 0.43388 0.0
Cd407 Cd 0.76882 0.90645 0.40803 0.0
Cd408 Cd 0.73345 0.90943 0.4053 0.0
O409 O 0.73344 0.8999 0.4304 0.0
O410 O 0.7936 0.89878 0.40756 0.0
O411 O 0.77248 0.88388 0.39513 0.0
C412 C 0.78871 0.88522 0.3991 0.0
C413 C 0.71231 0.90116 0.38502 0.0
C414 C 0.74667 0.90107 0.4402 0.0
C415 C 0.75603 0.94101 0.39834 0.0
O416 O 0.74132 0.93492 0.40264 0.0
O417 O 0.76912 0.93105 0.39724 0.0
O418 O 0.70872 0.91129 0.39781 0.0
O419 O 0.72781 0.89485 0.38411 0.0
O420 O 0.07204 0.74122 0.4036 0.0
Cd421 Cd 0.0971 0.73235 0.406 0.0
Cd422 Cd 0.10384 0.76751 0.40936 0.0
O423 O 0.0778 0.76929 0.4023 0.0
O424 O 0.09732 0.70817 0.39694 0.0
O425 O 0.11157 0.72973 0.38436 0.0
C426 C 0.1071 0.71357 0.38449 0.0
C427 C 0.12334 0.78881 0.39987 0.0
C428 C 0.067 0.7568 0.40166 0.0
C429 C 0.11043 0.74341 0.44024 0.0
O430 O 0.10988 0.75868 0.43406 0.0
O431 O 0.1064 0.73046 0.43091 0.0
O432 O 0.11182 0.79198 0.41153 0.0
O433 O 0.12335 0.77364 0.39276 0.0
O434 O 0.24364 0.10438 0.42825 0.0
Cd435 Cd 0.23596 0.10275 0.40254 0.0
Cd436 Cd 0.27125 0.09919 0.40006 0.0
O437 O 0.27175 0.10876 0.42511 0.0
O438 O 0.21152 0.11101 0.40421 0.0
O439 O 0.23135 0.12445 0.38842 0.0
C440 C 0.2157 0.12387 0.39439 0.0
C441 C 0.29227 0.10745 0.37972 0.0
C442 C 0.25838 0.10793 0.43473 0.0
C443 C 0.248 0.06802 0.39289 0.0
O444 O 0.26282 0.07384 0.39721 0.0
O445 O 0.23501 0.07812 0.39199 0.0
O446 O 0.29585 0.09715 0.39238 0.0
O447 O 0.2768 0.11386 0.37895 0.0
O448 O 0.5991 0.92833 0.74023 0.0
Cd449 Cd 0.5966 0.90252 0.73411 0.0
Cd450 Cd 0.59619 0.89926 0.76919 0.0
O451 O 0.60564 0.92461 0.76786 0.0
O452 O 0.60392 0.90035 0.70936 0.0
O453 O 0.61864 0.88873 0.73113 0.0
C454 C 0.61733 0.8919 0.7147 0.0
C455 C 0.60787 0.87893 0.78852 0.0
C456 C 0.60394 0.93449 0.75473 0.0
C457 C 0.56286 0.89243 0.74946 0.0
O458 O 0.57 0.89539 0.76405 0.0
O459 O 0.57168 0.89307 0.73553 0.0
O460 O 0.59925 0.89218 0.79396 0.0
O461 O 0.61061 0.87754 0.77204 0.0
O462 O 0.06969 0.59773 0.73495 0.0
Cd463 Cd 0.09474 0.59641 0.72579 0.0
Cd464 Cd 0.10198 0.59195 0.76075 0.0
O465 O 0.07577 0.59821 0.76298 0.0
O466 O 0.09487 0.607 0.70218 0.0
O467 O 0.10855 0.6186 0.72465 0.0
C468 C 0.10416 0.6194 0.70848 0.0
C469 C 0.12126 0.60132 0.78235 0.0
C470 C 0.0648 0.59898 0.75065 0.0
C471 C 0.10903 0.56209 0.73545 0.0
O472 O 0.10854 0.56775 0.75093 0.0
O473 O 0.10464 0.57177 0.72286 0.0
O474 O 0.11022 0.5891 0.78509 0.0
O475 O 0.12096 0.60895 0.76744 0.0
O476 O 0.42944 0.10895 0.76206 0.0
Cd477 Cd 0.40502 0.1042 0.77205 0.0
Cd478 Cd 0.39816 0.09787 0.73631 0.0
O479 O 0.42451 0.10325 0.73434 0.0
O480 O 0.40576 0.11256 0.79655 0.0
O481 O 0.38944 0.12486 0.77639 0.0
C482 C 0.39492 0.12452 0.79222 0.0
C483 C 0.37924 0.10686 0.71429 0.0
C484 C 0.43479 0.10763 0.7465 0.0
C485 C 0.39191 0.06876 0.76223 0.0
O486 O 0.39103 0.07433 0.74676 0.0
O487 O 0.39733 0.0785 0.77438 0.0
O488 O 0.39013 0.09441 0.712 0.0
O489 O 0.37959 0.11501 0.72892 0.0
O490 O 0.90264 0.42835 0.76119 0.0
Cd491 Cd 0.90433 0.40212 0.76673 0.0
Cd492 Cd 0.90596 0.40072 0.73229 0.0
O493 O 0.89507 0.42517 0.73382 0.0
O494 O 0.8968 0.39975 0.7914 0.0
O495 O 0.88173 0.38917 0.76936 0.0
C496 C 0.8831 0.39193 0.78585 0.0
C497 C 0.8954 0.38006 0.71277 0.0
C498 C 0.89717 0.43481 0.74702 0.0
C499 C 0.93849 0.39317 0.75226 0.0
O500 O 0.93217 0.39872 0.73805 0.0
O501 O 0.92873 0.39104 0.76538 0.0
O502 O 0.90359 0.39366 0.7075 0.0
O503 O 0.89264 0.37839 0.72923 0.0
O504 O 0.57487 0.10518 0.23687 0.0
Cd505 Cd 0.5994 0.1 0.22766 0.0
Cd506 Cd 0.60506 0.0937 0.26352 0.0
O507 O 0.57887 0.1001 0.26485 0.0
O508 O 0.59927 0.10867 0.20326 0.0
O509 O 0.61515 0.12064 0.22396 0.0
C510 C 0.60985 0.12068 0.20806 0.0
C511 C 0.62407 0.10268 0.28551 0.0
C512 C 0.56904 0.10442 0.25228 0.0
C513 C 0.61073 0.06413 0.23792 0.0
O514 O 0.61129 0.06973 0.2534 0.0
O515 O 0.60631 0.07406 0.22551 0.0
O516 O 0.61287 0.09054 0.28799 0.0
O517 O 0.62407 0.11046 0.27067 0.0
O518 O 0.89789 0.57309 0.24502 0.0
Cd519 Cd 0.90364 0.59854 0.23844 0.0
Cd520 Cd 0.90976 0.60016 0.2733 0.0
O521 O 0.89966 0.57541 0.27352 0.0
O522 O 0.89588 0.60055 0.21385 0.0
O523 O 0.8832 0.6147 0.23536 0.0
C524 C 0.88375 0.61079 0.21907 0.0
C525 C 0.89986 0.62154 0.29236 0.0
C526 C 0.89645 0.56645 0.26006 0.0
C527 C 0.94038 0.60521 0.24988 0.0
O528 O 0.93516 0.60222 0.26524 0.0
O529 O 0.92961 0.6058 0.23738 0.0
O530 O 0.90889 0.60854 0.29777 0.0
O531 O 0.89596 0.62223 0.27606 0.0
O532 O 0.3956 0.92795 0.26262 0.0
Cd533 Cd 0.39967 0.9018 0.26757 0.0
Cd534 Cd 0.40399 0.90183 0.23233 0.0
O535 O 0.39441 0.92675 0.23401 0.0
O536 O 0.39238 0.89881 0.29228 0.0
O537 O 0.37801 0.88725 0.27031 0.0
C538 C 0.37921 0.89012 0.28678 0.0
C539 C 0.39355 0.88162 0.21226 0.0
C540 C 0.39309 0.9353 0.24805 0.0
C541 C 0.43536 0.89423 0.25393 0.0
O542 O 0.42963 0.89904 0.23923 0.0
O543 O 0.4251 0.8926 0.26678 0.0
O544 O 0.40225 0.89504 0.20737 0.0
O545 O 0.39016 0.87992 0.2286 0.0
O546 O 0.1025 0.43271 0.24672 0.0
Cd547 Cd 0.10018 0.40764 0.23726 0.0
Cd548 Cd 0.09563 0.40312 0.27263 0.0
O549 O 0.10493 0.42814 0.27488 0.0
O550 O 0.10851 0.41091 0.21297 0.0
O551 O 0.12151 0.39332 0.23149 0.0
C552 C 0.12107 0.40044 0.21633 0.0
C553 C 0.10383 0.38175 0.29259 0.0
C554 C 0.10516 0.4384 0.26198 0.0
C555 C 0.06494 0.39768 0.24824 0.0
O556 O 0.07051 0.40067 0.26348 0.0
O557 O 0.07525 0.39784 0.23536 0.0
O558 O 0.09316 0.39395 0.29667 0.0
O559 O 0.11055 0.38198 0.27723 0.0
O560 O 0.74323 0.6036 0.93651 0.0
Cd561 Cd 0.73461 0.60089 0.91123 0.0
Cd562 Cd 0.76965 0.59701 0.90673 0.0
O563 O 0.77114 0.60715 0.9315 0.0
O564 O 0.71023 0.60932 0.91318 0.0
O565 O 0.72971 0.62203 0.89638 0.0
C566 C 0.7142 0.62175 0.90273 0.0
C567 C 0.78913 0.60658 0.88549 0.0
C568 C 0.75841 0.60704 0.94196 0.0
C569 C 0.74645 0.56568 0.90136 0.0
O570 O 0.76164 0.5714 0.90443 0.0
O571 O 0.73348 0.57589 0.90155 0.0
O572 O 0.79418 0.59733 0.89845 0.0
O573 O 0.77293 0.61083 0.88466 0.0
O574 O 0.76242 0.43419 0.09809 0.0
Cd575 Cd 0.76836 0.40807 0.09577 0.0
Cd576 Cd 0.73385 0.40598 0.09338 0.0
O577 O 0.73467 0.4306 0.10399 0.0
O578 O 0.79301 0.40572 0.10329 0.0
O579 O 0.77104 0.39442 0.11796 0.0
C580 C 0.78751 0.39727 0.11664 0.0
C581 C 0.71476 0.385 0.10411 0.0
C582 C 0.74787 0.44042 0.10278 0.0
C583 C 0.75456 0.39903 0.06115 0.0
O584 O 0.73999 0.40379 0.06728 0.0
O585 O 0.76764 0.39763 0.07109 0.0
O586 O 0.70922 0.39833 0.09566 0.0
O587 O 0.73123 0.38376 0.10699 0.0
O588 O 0.60739 0.74248 0.07279 0.0
Cd589 Cd 0.60242 0.73566 0.09818 0.0
Cd590 Cd 0.59812 0.77098 0.10175 0.0
O591 O 0.60513 0.77091 0.0757 0.0
O592 O 0.61007 0.71103 0.10013 0.0
O593 O 0.62315 0.73256 0.11389 0.0
C594 C 0.62244 0.71625 0.11008 0.0
C595 C 0.61031 0.79022 0.12175 0.0
C596 C 0.60798 0.75763 0.06631 0.0
C597 C 0.56701 0.74849 0.10881 0.0
O598 O 0.57303 0.76379 0.10755 0.0
O599 O 0.57666 0.7354 0.10601 0.0
O600 O 0.6002 0.79557 0.10955 0.0
O601 O 0.61424 0.77392 0.12217 0.0
O602 O 0.24476 0.57374 0.10442 0.0
Cd603 Cd 0.2366 0.59912 0.10027 0.0
Cd604 Cd 0.27189 0.60173 0.0923 0.0
O605 O 0.2731 0.57635 0.10067 0.0
O606 O 0.21211 0.5991 0.10869 0.0
O607 O 0.2329 0.61404 0.12159 0.0
C608 C 0.21688 0.60915 0.12114 0.0
C609 C 0.29256 0.62247 0.10043 0.0
C610 C 0.25991 0.56715 0.1044 0.0
C611 C 0.24603 0.60799 0.06354 0.0
O612 O 0.26164 0.60512 0.06794 0.0
O613 O 0.23397 0.60773 0.07479 0.0
O614 O 0.29609 0.61041 0.0894 0.0
O615 O 0.27739 0.62236 0.1076 0.0
O616 O 0.39584 0.26008 0.07665 0.0
Cd617 Cd 0.401 0.27092 0.10059 0.0
Cd618 Cd 0.40998 0.23572 0.10785 0.0
O619 O 0.40388 0.23297 0.08167 0.0
O620 O 0.3917 0.29508 0.09918 0.0
O621 O 0.38068 0.27522 0.11671 0.0
C622 C 0.38027 0.29081 0.11059 0.0
C623 C 0.40198 0.21393 0.12762 0.0
C624 C 0.39816 0.2446 0.07142 0.0
C625 C 0.43769 0.26347 0.11211 0.0
O626 O 0.43319 0.2477 0.11375 0.0
O627 O 0.42689 0.27479 0.1069 0.0
O628 O 0.41437 0.21174 0.11663 0.0
O629 O 0.3935 0.22837 0.12704 0.0
O630 O 0.2632 0.40229 0.9317 0.0
Cd631 Cd 0.26889 0.40444 0.90555 0.0
Cd632 Cd 0.23458 0.40415 0.90394 0.0
O633 O 0.23669 0.39231 0.92795 0.0
O634 O 0.29375 0.39759 0.90309 0.0
O635 O 0.27207 0.38195 0.89258 0.0
C636 C 0.28852 0.38371 0.89536 0.0
C637 C 0.2155 0.39393 0.88267 0.0
C638 C 0.2495 0.39543 0.93785 0.0
C639 C 0.25283 0.43794 0.89762 0.0
O640 O 0.23909 0.43066 0.90316 0.0
O641 O 0.26638 0.42894 0.89485 0.0
O642 O 0.20989 0.40106 0.89672 0.0
O643 O 0.23206 0.39191 0.88092 0.0
O644 O 0.57191 0.23972 0.899 0.0
Cd645 Cd 0.59818 0.23412 0.90039 0.0
Cd646 Cd 0.59962 0.26856 0.90088 0.0
O647 O 0.57504 0.26678 0.89034 0.0
O648 O 0.6006 0.20923 0.89366 0.0
O649 O 0.61085 0.23081 0.87771 0.0
C650 C 0.60828 0.21436 0.87972 0.0
C651 C 0.62022 0.28794 0.88992 0.0
C652 C 0.56538 0.25373 0.89319 0.0
C653 C 0.60734 0.24965 0.93397 0.0
O654 O 0.60168 0.2636 0.92721 0.0
O655 O 0.60954 0.23625 0.92461 0.0
O656 O 0.60658 0.29332 0.89796 0.0
O657 O 0.62193 0.27145 0.88745 0.0
O658 O 0.43101 0.75521 0.88999 0.0
Cd659 Cd 0.40733 0.7654 0.89709 0.0
Cd660 Cd 0.40092 0.72969 0.90286 0.0
O661 O 0.42658 0.72738 0.89508 0.0
O662 O 0.41032 0.78991 0.88941 0.0
O663 O 0.39018 0.77269 0.8785 0.0
C664 C 0.39797 0.78753 0.87841 0.0
C665 C 0.37997 0.71039 0.8924 0.0
C666 C 0.43647 0.73968 0.89029 0.0
C667 C 0.39753 0.75419 0.93342 0.0
O668 O 0.3964 0.73878 0.92762 0.0
O669 O 0.40173 0.76669 0.92347 0.0
O670 O 0.39203 0.70538 0.90283 0.0
O671 O 0.38002 0.72638 0.88738 0.0
C672 C 0.12342 0.35926 0.30576 0.0
C673 C 0.10721 0.36746 0.30492 0.0
C674 C 0.12653 0.34595 0.31792 0.0
C675 C 0.1129 0.34037 0.32896 0.0
C676 C 0.09639 0.34835 0.32773 0.0
C677 C 0.09386 0.36198 0.31597 0.0
C678 C 0.14444 0.33817 0.31924 0.0
C679 C 0.08133 0.3425 0.33886 0.0
C680 C 0.1122 0.29636 0.35117 0.0
C681 C 0.11417 0.30118 0.36859 0.0
C682 C 0.11266 0.30888 0.3379 0.0
C683 C 0.11573 0.32651 0.34216 0.0
C684 C 0.11918 0.33113 0.35962 0.0
C685 C 0.11802 0.31847 0.37266 0.0
C686 C 0.10842 0.30344 0.31957 0.0
C687 C 0.12308 0.34965 0.36467 0.0
H688 H 0.13377 0.36356 0.29726 0.0
H689 H 0.08125 0.36817 0.31518 0.0
H690 H 0.14972 0.3404 0.33245 0.0
H691 H 0.14384 0.32393 0.31727 0.0
H692 H 0.15357 0.34379 0.3096 0.0
H693 H 0.06905 0.34923 0.33544 0.0
H694 H 0.07935 0.32831 0.33743 0.0
H695 H 0.08421 0.34507 0.35272 0.0
H696 H 0.10905 0.28301 0.34803 0.0
H697 H 0.11965 0.32218 0.38614 0.0
H698 H 0.11783 0.30908 0.31026 0.0
H699 H 0.09538 0.30843 0.31603 0.0
H700 H 0.1084 0.28911 0.31803 0.0
H701 H 0.13262 0.35547 0.35559 0.0
H702 H 0.12827 0.35059 0.37809 0.0
H703 H 0.11103 0.35748 0.36392 0.0
C704 C 0.68165 0.11601 0.37002 0.0
C705 C 0.69943 0.11452 0.36653 0.0
C706 C 0.6695 0.11706 0.35649 0.0
C707 C 0.67522 0.11584 0.33905 0.0
C708 C 0.69326 0.11515 0.33547 0.0
C709 C 0.70518 0.11479 0.34929 0.0
C710 C 0.65046 0.11841 0.3609 0.0
C711 C 0.69992 0.1133 0.31715 0.0
C712 C 0.64365 0.09282 0.3091 0.0
C713 C 0.63722 0.10647 0.29896 0.0
C714 C 0.65634 0.0957 0.32179 0.0
C715 C 0.66234 0.11279 0.32492 0.0
C716 C 0.65575 0.1267 0.31483 0.0
C717 C 0.64348 0.12332 0.3017 0.0
C718 C 0.66335 0.08039 0.33184 0.0
C719 C 0.66137 0.14515 0.31819 0.0
H720 H 0.67721 0.11588 0.38338 0.0
H721 H 0.71892 0.11344 0.3466 0.0
H722 H 0.64397 0.12805 0.35239 0.0
H723 H 0.64409 0.1057 0.35869 0.0
H724 H 0.64837 0.1222 0.37465 0.0
H725 H 0.71422 0.11497 0.31638 0.0
H726 H 0.69659 0.10019 0.31219 0.0
H727 H 0.69367 0.12289 0.30844 0.0
H728 H 0.63897 0.07974 0.30684 0.0
H729 H 0.63845 0.13388 0.29389 0.0
H730 H 0.65985 0.08163 0.34574 0.0
H731 H 0.67773 0.0801 0.33103 0.0
H732 H 0.65822 0.06783 0.32697 0.0
H733 H 0.65804 0.14884 0.3317 0.0
H734 H 0.65511 0.15449 0.30916 0.0
H735 H 0.67565 0.14632 0.31686 0.0
C736 C 0.88272 0.70007 0.36022 0.0
C737 C 0.89909 0.70284 0.36766 0.0
C738 C 0.88029 0.68713 0.34752 0.0
C739 C 0.89469 0.67722 0.34177 0.0
C740 C 0.91131 0.68038 0.34895 0.0
C741 C 0.91323 0.69292 0.36197 0.0
C742 C 0.8623 0.6838 0.34055 0.0
C743 C 0.92712 0.67047 0.34291 0.0
C744 C 0.89264 0.63223 0.32204 0.0
C745 C 0.89538 0.63578 0.30442 0.0
C746 C 0.89091 0.64571 0.33417 0.0
C747 C 0.8926 0.66316 0.32863 0.0
C748 C 0.89458 0.66681 0.31071 0.0
C749 C 0.89569 0.65305 0.29876 0.0
C750 C 0.88825 0.64123 0.35306 0.0
C751 C 0.89689 0.68517 0.30428 0.0
H752 H 0.87176 0.70769 0.36466 0.0
H753 H 0.92595 0.69519 0.36753 0.0
H754 H 0.86219 0.68515 0.32622 0.0
H755 H 0.85838 0.67028 0.34357 0.0
H756 H 0.85252 0.6928 0.34613 0.0
H757 H 0.93927 0.67531 0.34898 0.0
H758 H 0.92567 0.65652 0.34614 0.0
H759 H 0.92842 0.67147 0.3286 0.0
H760 H 0.89226 0.61886 0.32642 0.0
H761 H 0.89794 0.65581 0.28515 0.0
H762 H 0.87808 0.64961 0.35886 0.0
H763 H 0.90046 0.64356 0.36032 0.0
H764 H 0.88448 0.62743 0.35485 0.0
H765 H 0.88684 0.69382 0.30986 0.0
H766 H 0.89628 0.686 0.2899 0.0
H767 H 0.90971 0.69014 0.30859 0.0
C768 C 0.34776 0.88762 0.29397 0.0
C769 C 0.36511 0.88548 0.29894 0.0
C770 C 0.33436 0.88713 0.30636 0.0
C771 C 0.33841 0.88386 0.32401 0.0
C772 C 0.35578 0.88015 0.32875 0.0
C773 C 0.36897 0.88136 0.31622 0.0
C774 C 0.31613 0.89165 0.30079 0.0
C775 C 0.36062 0.87601 0.34727 0.0
C776 C 0.3119 0.90632 0.35892 0.0
C777 C 0.3003 0.8933 0.36405 0.0
C778 C 0.32406 0.90345 0.34571 0.0
C779 C 0.32512 0.8869 0.33778 0.0
C780 C 0.31365 0.87354 0.34312 0.0
C781 C 0.30111 0.87701 0.356 0.0
C782 C 0.33566 0.91824 0.34011 0.0
C783 C 0.31478 0.85559 0.33542 0.0
H784 H 0.34478 0.891 0.28064 0.0
H785 H 0.3824 0.87962 0.32006 0.0
H786 H 0.30665 0.88234 0.30629 0.0
H787 H 0.31274 0.90471 0.30581 0.0
H788 H 0.31473 0.89178 0.28644 0.0
H789 H 0.37389 0.87046 0.34825 0.0
H790 H 0.36016 0.88804 0.35517 0.0
H791 H 0.35125 0.8667 0.353 0.0
H792 H 0.31116 0.91901 0.36496 0.0
H793 H 0.29217 0.8669 0.36 0.0
H794 H 0.33445 0.92037 0.32592 0.0
H795 H 0.34941 0.91499 0.34282 0.0
H796 H 0.33248 0.93057 0.34689 0.0
H797 H 0.31261 0.85615 0.32121 0.0
H798 H 0.30516 0.84654 0.34121 0.0
H799 H 0.32799 0.85023 0.33748 0.0
C800 C 0.11215 0.6323 0.67994 0.0
C801 C 0.10848 0.63457 0.69759 0.0
C802 C 0.11385 0.64662 0.66881 0.0
C803 C 0.11109 0.66357 0.67536 0.0
C804 C 0.10806 0.66595 0.69335 0.0
C805 C 0.10708 0.65139 0.70433 0.0
C806 C 0.11769 0.64352 0.64985 0.0
C807 C 0.10452 0.68371 0.7008 0.0
C808 C 0.12119 0.70272 0.64668 0.0
C809 C 0.10523 0.70517 0.63831 0.0
C810 C 0.1234 0.68921 0.65881 0.0
C811 C 0.10913 0.67839 0.66305 0.0
C812 C 0.09285 0.68128 0.65502 0.0
C813 C 0.09121 0.69441 0.64255 0.0
C814 C 0.14107 0.68618 0.66667 0.0
C815 C 0.07715 0.67042 0.6595 0.0
H816 H 0.11334 0.61927 0.67476 0.0
H817 H 0.10407 0.65312 0.71796 0.0
H818 H 0.10579 0.64584 0.64208 0.0
H819 H 0.12777 0.65267 0.64517 0.0
H820 H 0.12216 0.63004 0.64738 0.0
H821 H 0.10429 0.68361 0.71521 0.0
H822 H 0.11444 0.69315 0.69638 0.0
H823 H 0.09175 0.68839 0.69607 0.0
H824 H 0.13206 0.71099 0.64333 0.0
H825 H 0.0788 0.69643 0.63623 0.0
H826 H 0.14584 0.67312 0.66291 0.0
H827 H 0.14025 0.68643 0.68103 0.0
H828 H 0.1507 0.69602 0.66239 0.0
H829 H 0.07931 0.6568 0.6554 0.0
H830 H 0.06516 0.67525 0.65312 0.0
H831 H 0.07507 0.67036 0.67375 0.0
C832 C 0.2973 0.11672 0.65158 0.0
C833 C 0.30288 0.11626 0.63428 0.0
C834 C 0.30934 0.11793 0.66523 0.0
C835 C 0.32729 0.11922 0.66141 0.0
C836 C 0.33276 0.12042 0.6439 0.0
C837 C 0.32052 0.1186 0.63054 0.0
C838 C 0.30297 0.11618 0.68367 0.0
C839 C 0.35169 0.12236 0.63923 0.0
C840 C 0.35945 0.12727 0.69826 0.0
C841 C 0.36597 0.11051 0.70094 0.0
C842 C 0.34694 0.13046 0.6853 0.0
C843 C 0.34043 0.11644 0.67534 0.0
C844 C 0.34672 0.09944 0.67838 0.0
C845 C 0.3596 0.09676 0.69091 0.0
C846 C 0.34095 0.14881 0.68204 0.0
C847 C 0.33983 0.08401 0.66843 0.0
H848 H 0.28368 0.11477 0.65449 0.0
H849 H 0.32483 0.11837 0.61715 0.0
H850 H 0.30645 0.10313 0.68867 0.0
H851 H 0.30926 0.12588 0.69222 0.0
H852 H 0.28866 0.11775 0.68462 0.0
H853 H 0.35346 0.12622 0.62545 0.0
H854 H 0.35802 0.13217 0.64766 0.0
H855 H 0.35846 0.10983 0.64131 0.0
H856 H 0.36443 0.13792 0.70599 0.0
H857 H 0.36446 0.08374 0.69313 0.0
H858 H 0.32667 0.14972 0.68351 0.0
H859 H 0.34408 0.15258 0.66849 0.0
H860 H 0.34714 0.15825 0.691 0.0
H861 H 0.32548 0.08344 0.6695 0.0
H862 H 0.34528 0.07154 0.67318 0.0
H863 H 0.34306 0.08536 0.65447 0.0
C864 C 0.90964 0.31308 0.63958 0.0
C865 C 0.89606 0.30231 0.63412 0.0
C866 C 0.90732 0.32507 0.65305 0.0
C867 C 0.89081 0.32677 0.66094 0.0
C868 C 0.87692 0.31608 0.65533 0.0
C869 C 0.87979 0.30373 0.64215 0.0
C870 C 0.92263 0.33585 0.65889 0.0
C871 C 0.85902 0.3179 0.66306 0.0
C872 C 0.89232 0.34876 0.70504 0.0
C873 C 0.89081 0.36624 0.7003 0.0
C874 C 0.89138 0.33556 0.69247 0.0
C875 C 0.88833 0.33998 0.67487 0.0
C876 C 0.88534 0.35753 0.67034 0.0
C877 C 0.88693 0.37048 0.68305 0.0
C878 C 0.8951 0.31709 0.69782 0.0
C879 C 0.88151 0.36278 0.65186 0.0
H880 H 0.9223 0.31187 0.63356 0.0
H881 H 0.86926 0.29543 0.6379 0.0
H882 H 0.92002 0.34979 0.65645 0.0
H883 H 0.92465 0.33427 0.67306 0.0
H884 H 0.93481 0.33223 0.65208 0.0
H885 H 0.84959 0.30871 0.65719 0.0
H886 H 0.8595 0.31558 0.67725 0.0
H887 H 0.85423 0.33133 0.6611 0.0
H888 H 0.89546 0.34547 0.71836 0.0
H889 H 0.88562 0.38401 0.6794 0.0
H890 H 0.908 0.31318 0.69275 0.0
H891 H 0.88538 0.3081 0.6922 0.0
H892 H 0.89515 0.31549 0.71215 0.0
H893 H 0.89352 0.36176 0.64398 0.0
H894 H 0.87666 0.37632 0.65099 0.0
H895 H 0.87173 0.35397 0.64602 0.0
C896 C 0.69591 0.87935 0.6459 0.0
C897 C 0.6976 0.89596 0.63865 0.0
C898 C 0.68307 0.87589 0.65846 0.0
C899 C 0.67215 0.8895 0.6643 0.0
C900 C 0.6741 0.90634 0.65719 0.0
C901 C 0.68657 0.90927 0.64429 0.0
C902 C 0.68102 0.85767 0.66533 0.0
C903 C 0.66308 0.92137 0.66332 0.0
C904 C 0.62778 0.88459 0.68493 0.0
C905 C 0.6315 0.8877 0.70246 0.0
C906 C 0.64111 0.88359 0.67254 0.0
C907 C 0.65852 0.88642 0.67771 0.0
C908 C 0.66241 0.88867 0.69555 0.0
C909 C 0.64884 0.88902 0.70776 0.0
C910 C 0.63642 0.88059 0.65376 0.0
C911 C 0.6807 0.89218 0.70159 0.0
H912 H 0.70439 0.86903 0.64151 0.0
H913 H 0.68798 0.92218 0.63888 0.0
H914 H 0.68297 0.8575 0.67958 0.0
H915 H 0.66764 0.853 0.66281 0.0
H916 H 0.69035 0.84848 0.65928 0.0
H917 H 0.66687 0.93383 0.65714 0.0
H918 H 0.64923 0.91884 0.66034 0.0
H919 H 0.66421 0.9228 0.67761 0.0
H920 H 0.61437 0.88346 0.68082 0.0
H921 H 0.65174 0.89158 0.72128 0.0
H922 H 0.64544 0.87111 0.64774 0.0
H923 H 0.63762 0.89294 0.64646 0.0
H924 H 0.62292 0.87575 0.65228 0.0
H925 H 0.68988 0.88272 0.69584 0.0
H926 H 0.68187 0.89163 0.71595 0.0
H927 H 0.68473 0.90529 0.69719 0.0
C928 C 0.37381 0.12062 0.31756 0.0
C929 C 0.3701 0.11535 0.30057 0.0
C930 C 0.36056 0.12229 0.32997 0.0
C931 C 0.34329 0.1179 0.32543 0.0
C932 C 0.33937 0.11341 0.30803 0.0
C933 C 0.35281 0.11247 0.29572 0.0
C934 C 0.36523 0.12771 0.3482 0.0
C935 C 0.32127 0.10816 0.30272 0.0
C936 C 0.31704 0.09743 0.36172 0.0
C937 C 0.30524 0.1106 0.36593 0.0
C938 C 0.32918 0.09959 0.34835 0.0
C939 C 0.33 0.11557 0.33932 0.0
C940 C 0.31829 0.12907 0.3437 0.0
C941 C 0.30579 0.12631 0.35677 0.0
C942 C 0.34104 0.08464 0.34381 0.0
C943 C 0.31915 0.14648 0.33477 0.0
H944 H 0.38718 0.12295 0.3213 0.0
H945 H 0.34995 0.10822 0.28262 0.0
H946 H 0.3557 0.13725 0.35325 0.0
H947 H 0.36489 0.11623 0.35688 0.0
H948 H 0.37842 0.13351 0.34888 0.0
H949 H 0.31993 0.107 0.28841 0.0
H950 H 0.31809 0.09542 0.30865 0.0
H951 H 0.31158 0.11765 0.30752 0.0
H952 H 0.31649 0.08519 0.36864 0.0
H953 H 0.29671 0.13653 0.36006 0.0
H954 H 0.35473 0.08831 0.34633 0.0
H955 H 0.33992 0.08154 0.3298 0.0
H956 H 0.33804 0.07276 0.35141 0.0
H957 H 0.33224 0.15222 0.33656 0.0
H958 H 0.30931 0.15571 0.33984 0.0
H959 H 0.31713 0.14489 0.32061 0.0
C960 C 0.90993 0.31447 0.35613 0.0
C961 C 0.89652 0.30419 0.36283 0.0
C962 C 0.90694 0.32616 0.34253 0.0
C963 C 0.88994 0.32808 0.3358 0.0
C964 C 0.87626 0.31785 0.34263 0.0
C965 C 0.87978 0.30575 0.35589 0.0
C966 C 0.92203 0.33642 0.33535 0.0
C967 C 0.85789 0.31994 0.33618 0.0
C968 C 0.88569 0.37164 0.31352 0.0
C969 C 0.88823 0.36713 0.29609 0.0
C970 C 0.88457 0.35886 0.32645 0.0
C971 C 0.88674 0.34119 0.32191 0.0
C972 C 0.88839 0.33652 0.30419 0.0
C973 C 0.88884 0.34957 0.29144 0.0
C974 C 0.88221 0.36439 0.3451 0.0
C975 C 0.89121 0.3179 0.2988 0.0
H976 H 0.92294 0.31312 0.36132 0.0
H977 H 0.8694 0.29783 0.36111 0.0
H978 H 0.92289 0.33464 0.32108 0.0
H979 H 0.92001 0.35045 0.33782 0.0
H980 H 0.9346 0.33253 0.34123 0.0
H981 H 0.84875 0.3109 0.34271 0.0
H982 H 0.85346 0.33345 0.33848 0.0
H983 H 0.85732 0.31765 0.32199 0.0
H984 H 0.88511 0.38524 0.31711 0.0
H985 H 0.89098 0.34609 0.27797 0.0
H986 H 0.89474 0.36319 0.35208 0.0
H987 H 0.8727 0.35587 0.35175 0.0
H988 H 0.87774 0.37806 0.34613 0.0
H989 H 0.90441 0.31376 0.30281 0.0
H990 H 0.89001 0.31615 0.28454 0.0
H991 H 0.8818 0.30921 0.30535 0.0
C992 C 0.69787 0.88219 0.36274 0.0
C993 C 0.69935 0.89823 0.37117 0.0
C994 C 0.68527 0.8796 0.34972 0.0
C995 C 0.67448 0.89361 0.34459 0.0
C996 C 0.67634 0.90994 0.35282 0.0
C997 C 0.68849 0.91193 0.36621 0.0
C998 C 0.68326 0.86185 0.34173 0.0
C999 C 0.66555 0.92539 0.34741 0.0
C1000 C 0.65174 0.89491 0.30076 0.0
C1001 C 0.63434 0.89317 0.30573 0.0
C1002 C 0.66511 0.89436 0.31318 0.0
C1003 C 0.66098 0.89138 0.33087 0.0
C1004 C 0.64349 0.88831 0.33567 0.0
C1005 C 0.63035 0.88964 0.32311 0.0
C1006 C 0.68346 0.89829 0.30756 0.0
C1007 C 0.63855 0.88446 0.35423 0.0
H1008 H 0.70624 0.87157 0.36663 0.0
H1009 H 0.68978 0.92441 0.37257 0.0
H1010 H 0.66985 0.85705 0.34389 0.0
H1011 H 0.68527 0.86255 0.3275 0.0
H1012 H 0.69254 0.85229 0.34724 0.0
H1013 H 0.66945 0.93746 0.35427 0.0
H1014 H 0.66678 0.92756 0.33323 0.0
H1015 H 0.65166 0.92288 0.35019 0.0
H1016 H 0.6548 0.89784 0.28734 0.0
H1017 H 0.61688 0.88821 0.32693 0.0
H1018 H 0.69258 0.88846 0.31276 0.0
H1019 H 0.68744 0.91106 0.31288 0.0
H1020 H 0.68479 0.8987 0.29321 0.0
H1021 H 0.64741 0.8746 0.35987 0.0
H1022 H 0.62499 0.8797 0.35533 0.0
H1023 H 0.6398 0.89642 0.36214 0.0
C1024 C 0.12447 0.64556 0.30632 0.0
C1025 C 0.10793 0.63857 0.30344 0.0
C1026 C 0.12708 0.65837 0.3191 0.0
C1027 C 0.11271 0.66463 0.32874 0.0
C1028 C 0.09592 0.65794 0.3254 0.0
C1029 C 0.0938 0.64484 0.31301 0.0
C1030 C 0.14521 0.66484 0.32263 0.0
C1031 C 0.08015 0.66452 0.33504 0.0
C1032 C 0.11431 0.68398 0.3738 0.0
C1033 C 0.11191 0.70165 0.3703 0.0
C1034 C 0.11618 0.67193 0.36029 0.0
C1035 C 0.11499 0.67763 0.34286 0.0
C1036 C 0.11347 0.69561 0.33927 0.0
C1037 C 0.1122 0.70746 0.35308 0.0
C1038 C 0.11832 0.65296 0.36471 0.0
C1039 C 0.11173 0.7022 0.3209 0.0
H1040 H 0.1354 0.64068 0.29894 0.0
H1041 H 0.08095 0.63961 0.31063 0.0
H1042 H 0.1457 0.67918 0.32152 0.0
H1043 H 0.14898 0.66149 0.33612 0.0
H1044 H 0.15489 0.65916 0.31358 0.0
H1045 H 0.06789 0.65888 0.32998 0.0
H1046 H 0.08124 0.66123 0.34901 0.0
H1047 H 0.07936 0.67887 0.33403 0.0
H1048 H 0.11424 0.6795 0.38715 0.0
H1049 H 0.11022 0.72112 0.35038 0.0
H1050 H 0.12846 0.64696 0.35644 0.0
H1051 H 0.10597 0.64601 0.36216 0.0
H1052 H 0.12184 0.65101 0.37855 0.0
H1053 H 0.12167 0.69625 0.31237 0.0
H1054 H 0.11295 0.71654 0.32016 0.0
H1055 H 0.09882 0.69845 0.31572 0.0
C1056 C 0.3629 0.9089 0.6901 0.0
C1057 C 0.36654 0.89567 0.70203 0.0
C1058 C 0.35023 0.90675 0.67722 0.0
C1059 C 0.3414 0.89069 0.67576 0.0
C1060 C 0.34524 0.87713 0.6876 0.0
C1061 C 0.35754 0.87991 0.70085 0.0
C1062 C 0.34619 0.92177 0.66528 0.0
C1063 C 0.33658 0.85965 0.68608 0.0
C1064 C 0.29893 0.89301 0.65072 0.0
C1065 C 0.30467 0.89021 0.6337 0.0
C1066 C 0.31059 0.89243 0.66475 0.0
C1067 C 0.32827 0.88834 0.6617 0.0
C1068 C 0.33376 0.88412 0.64466 0.0
C1069 C 0.32198 0.88548 0.63081 0.0
C1070 C 0.30427 0.89756 0.68257 0.0
C1071 C 0.35232 0.87908 0.6409 0.0
H1072 H 0.3697 0.92118 0.69112 0.0
H1073 H 0.36041 0.86965 0.71003 0.0
H1074 H 0.34953 0.91829 0.65172 0.0
H1075 H 0.3321 0.92469 0.66563 0.0
H1076 H 0.35345 0.9337 0.66883 0.0
H1077 H 0.34124 0.85035 0.69606 0.0
H1078 H 0.32232 0.86105 0.6874 0.0
H1079 H 0.33911 0.85409 0.67304 0.0
H1080 H 0.28558 0.89687 0.65294 0.0
H1081 H 0.32641 0.88324 0.61765 0.0
H1082 H 0.30997 0.91029 0.68615 0.0
H1083 H 0.30857 0.88802 0.69244 0.0
H1084 H 0.28991 0.89866 0.68314 0.0
H1085 H 0.36075 0.89071 0.64182 0.0
H1086 H 0.3538 0.87345 0.62771 0.0
H1087 H 0.35702 0.86953 0.6506 0.0
C1088 C 0.09749 0.35669 0.68933 0.0
C1089 C 0.11103 0.3618 0.70034 0.0
C1090 C 0.09969 0.34322 0.67733 0.0
C1091 C 0.11604 0.33496 0.67584 0.0
C1092 C 0.12987 0.34019 0.68679 0.0
C1093 C 0.12711 0.35338 0.69916 0.0
C1094 C 0.08443 0.33779 0.66627 0.0
C1095 C 0.14762 0.33207 0.68522 0.0
C1096 C 0.11402 0.29109 0.65343 0.0
C1097 C 0.11596 0.29594 0.63602 0.0
C1098 C 0.11495 0.30353 0.66676 0.0
C1099 C 0.11843 0.32109 0.66255 0.0
C1100 C 0.12183 0.32571 0.64508 0.0
C1101 C 0.12023 0.31314 0.63199 0.0
C1102 C 0.11078 0.2981 0.68511 0.0
C1103 C 0.12612 0.34416 0.64007 0.0
H1104 H 0.08496 0.36301 0.69036 0.0
H1105 H 0.13761 0.35736 0.70763 0.0
H1106 H 0.0873 0.34031 0.65239 0.0
H1107 H 0.08209 0.32365 0.66769 0.0
H1108 H 0.07234 0.34481 0.66977 0.0
H1109 H 0.15701 0.3376 0.69466 0.0
H1110 H 0.14677 0.31786 0.68734 0.0
H1111 H 0.15272 0.33408 0.6719 0.0
H1112 H 0.11058 0.27781 0.65655 0.0
H1113 H 0.12186 0.31688 0.61852 0.0
H1114 H 0.09793 0.30342 0.68884 0.0
H1115 H 0.12046 0.30343 0.69432 0.0
H1116 H 0.11039 0.28377 0.68658 0.0
H1117 H 0.11427 0.35227 0.64098 0.0
H1118 H 0.1312 0.34504 0.6266 0.0
H1119 H 0.13588 0.34971 0.64908 0.0
C1120 C 0.69806 0.1246 0.64594 0.0
C1121 C 0.69897 0.10887 0.63687 0.0
C1122 C 0.6857 0.12705 0.65922 0.0
C1123 C 0.67455 0.11318 0.66392 0.0
C1124 C 0.67577 0.09716 0.655 0.0
C1125 C 0.68772 0.09533 0.6414 0.0
C1126 C 0.68437 0.1445 0.66798 0.0
C1127 C 0.66455 0.08184 0.65989 0.0
C1128 C 0.65248 0.11012 0.70797 0.0
C1129 C 0.63505 0.11235 0.70334 0.0
C1130 C 0.66569 0.11119 0.69541 0.0
C1131 C 0.66136 0.11521 0.67798 0.0
C1132 C 0.64388 0.1189 0.67364 0.0
C1133 C 0.63088 0.11702 0.68629 0.0
C1134 C 0.68403 0.10658 0.70052 0.0
C1135 C 0.63875 0.12386 0.65539 0.0
H1136 H 0.70673 0.1351 0.6424 0.0
H1137 H 0.68856 0.08307 0.63455 0.0
H1138 H 0.67106 0.14976 0.66632 0.0
H1139 H 0.68665 0.14313 0.68212 0.0
H1140 H 0.69381 0.15401 0.66267 0.0
H1141 H 0.66793 0.06997 0.65244 0.0
H1142 H 0.66594 0.07899 0.67394 0.0
H1143 H 0.65071 0.08494 0.65748 0.0
H1144 H 0.65566 0.10627 0.72113 0.0
H1145 H 0.61738 0.11879 0.68274 0.0
H1146 H 0.69333 0.11634 0.6955 0.0
H1147 H 0.68755 0.0939 0.69467 0.0
H1148 H 0.6856 0.10561 0.71482 0.0
H1149 H 0.64786 0.13366 0.65006 0.0
H1150 H 0.62535 0.12916 0.65483 0.0
H1151 H 0.63938 0.11227 0.64689 0.0
C1152 C 0.91235 0.69243 0.64731 0.0
C1153 C 0.89842 0.70057 0.63895 0.0
C1154 C 0.90956 0.68016 0.66043 0.0
C1155 C 0.89238 0.67543 0.66493 0.0
C1156 C 0.87821 0.68366 0.65657 0.0
C1157 C 0.8814 0.6964 0.64384 0.0
C1158 C 0.92506 0.67209 0.66932 0.0
C1159 C 0.85973 0.67861 0.66064 0.0
C1160 C 0.89175 0.63049 0.68473 0.0
C1161 C 0.89135 0.63426 0.70251 0.0
C1162 C 0.89059 0.64373 0.67229 0.0
C1163 C 0.88957 0.66124 0.67778 0.0
C1164 C 0.88824 0.66505 0.69573 0.0
C1165 C 0.88892 0.65145 0.7079 0.0
C1166 C 0.89155 0.63904 0.65329 0.0
C1167 C 0.88751 0.68353 0.70217 0.0
H1168 H 0.92552 0.69581 0.64368 0.0
H1169 H 0.87063 0.70266 0.63731 0.0
H1170 H 0.92376 0.67327 0.68361 0.0
H1171 H 0.92572 0.65806 0.66619 0.0
H1172 H 0.93748 0.67822 0.6653 0.0
H1173 H 0.85017 0.68681 0.65365 0.0
H1174 H 0.85759 0.66486 0.65694 0.0
H1175 H 0.85726 0.67963 0.67478 0.0
H1176 H 0.89348 0.61717 0.68053 0.0
H1177 H 0.88874 0.65441 0.72166 0.0
H1178 H 0.90447 0.64267 0.64808 0.0
H1179 H 0.88165 0.64632 0.64578 0.0
H1180 H 0.88958 0.62493 0.65111 0.0
H1181 H 0.90033 0.68977 0.70014 0.0
H1182 H 0.88425 0.68425 0.71619 0.0
H1183 H 0.87781 0.69114 0.69475 0.0
C1184 C 0.31124 0.36224 0.09711 0.0
C1185 C 0.30121 0.36814 0.11108 0.0
C1186 C 0.32348 0.34898 0.09925 0.0
C1187 C 0.3263 0.34184 0.11595 0.0
C1188 C 0.31637 0.34792 0.13021 0.0
C1189 C 0.30364 0.36079 0.12753 0.0
C1190 C 0.33334 0.34255 0.08356 0.0
C1191 C 0.31943 0.34108 0.1483 0.0
C1192 C 0.3491 0.29809 0.11534 0.0
C1193 C 0.36652 0.30324 0.11539 0.0
C1194 C 0.33571 0.31046 0.11643 0.0
C1195 C 0.33994 0.32828 0.11823 0.0
C1196 C 0.35756 0.33329 0.11975 0.0
C1197 C 0.37065 0.32075 0.11791 0.0
C1198 C 0.31716 0.30459 0.11418 0.0
C1199 C 0.36265 0.35203 0.12228 0.0
H1200 H 0.30919 0.36774 0.08432 0.0
H1201 H 0.29589 0.36539 0.13834 0.0
H1202 H 0.34735 0.34548 0.08503 0.0
H1203 H 0.33202 0.32826 0.0824 0.0
H1204 H 0.3287 0.34859 0.07132 0.0
H1205 H 0.31069 0.34718 0.158 0.0
H1206 H 0.31746 0.32684 0.14863 0.0
H1207 H 0.33308 0.34357 0.15217 0.0
H1208 H 0.34593 0.28455 0.11319 0.0
H1209 H 0.38416 0.32469 0.11802 0.0
H1210 H 0.31235 0.30891 0.10131 0.0
H1211 H 0.30867 0.31055 0.12415 0.0
H1212 H 0.31588 0.29026 0.11496 0.0
H1213 H 0.36073 0.35925 0.10998 0.0
H1214 H 0.37646 0.35337 0.12621 0.0
H1215 H 0.35436 0.35821 0.1323 0.0
C1216 C 0.34857 0.70411 0.88768 0.0
C1217 C 0.36581 0.69836 0.88775 0.0
C1218 C 0.33476 0.69221 0.88687 0.0
C1219 C 0.33835 0.67421 0.88553 0.0
C1220 C 0.35578 0.66855 0.88408 0.0
C1221 C 0.36931 0.68066 0.88557 0.0
C1222 C 0.31643 0.69879 0.88896 0.0
C1223 C 0.36019 0.64957 0.88205 0.0
C1224 C 0.30842 0.64206 0.90774 0.0
C1225 C 0.29819 0.63607 0.89396 0.0
C1226 C 0.32118 0.65475 0.90516 0.0
C1227 C 0.32425 0.66123 0.88824 0.0
C1228 C 0.31411 0.65507 0.87418 0.0
C1229 C 0.30093 0.64276 0.87727 0.0
C1230 C 0.33131 0.66128 0.92063 0.0
C1231 C 0.31739 0.66123 0.85589 0.0
H1232 H 0.34587 0.71779 0.88954 0.0
H1233 H 0.38266 0.67622 0.88551 0.0
H1234 H 0.30772 0.69282 0.87919 0.0
H1235 H 0.31149 0.69505 0.90197 0.0
H1236 H 0.31565 0.71313 0.88773 0.0
H1237 H 0.37393 0.64763 0.87813 0.0
H1238 H 0.35806 0.64277 0.89456 0.0
H1239 H 0.35165 0.64341 0.87224 0.0
H1240 H 0.30617 0.63707 0.92071 0.0
H1241 H 0.29305 0.63809 0.86659 0.0
H1242 H 0.33046 0.67563 0.9214 0.0
H1243 H 0.34521 0.65786 0.91917 0.0
H1244 H 0.32654 0.65573 0.93306 0.0
H1245 H 0.31594 0.67552 0.85513 0.0
H1246 H 0.30842 0.65516 0.84638 0.0
H1247 H 0.33094 0.65813 0.85208 0.0
C1248 C 0.29607 0.35224 0.89422 0.0
C1249 C 0.30094 0.36957 0.89163 0.0
C1250 C 0.30854 0.33891 0.89423 0.0
C1251 C 0.32619 0.34298 0.89103 0.0
C1252 C 0.33089 0.3603 0.88701 0.0
C1253 C 0.31827 0.37343 0.8877 0.0
C1254 C 0.30301 0.32075 0.89905 0.0
C1255 C 0.34943 0.36513 0.88295 0.0
C1256 C 0.36146 0.31675 0.91332 0.0
C1257 C 0.36665 0.30527 0.90022 0.0
C1258 C 0.34804 0.32873 0.91057 0.0
C1259 C 0.33998 0.32972 0.89407 0.0
C1260 C 0.3453 0.31827 0.88069 0.0
C1261 C 0.35839 0.30594 0.88402 0.0
C1262 C 0.34246 0.34031 0.92538 0.0
C1263 C 0.33743 0.31929 0.86279 0.0
H1264 H 0.2827 0.34925 0.89745 0.0
H1265 H 0.32204 0.38682 0.88562 0.0
H1266 H 0.30843 0.31116 0.8898 0.0
H1267 H 0.30817 0.31751 0.9121 0.0
H1268 H 0.28866 0.31933 0.89933 0.0
H1269 H 0.35046 0.37841 0.87743 0.0
H1270 H 0.3573 0.36461 0.89499 0.0
H1271 H 0.35516 0.35578 0.87362 0.0
H1272 H 0.36769 0.31614 0.92592 0.0
H1273 H 0.36247 0.29712 0.87385 0.0
H1274 H 0.32828 0.33906 0.92756 0.0
H1275 H 0.34512 0.35407 0.9221 0.0
H1276 H 0.34929 0.33715 0.93767 0.0
H1277 H 0.3232 0.31733 0.86351 0.0
H1278 H 0.34301 0.3095 0.8538 0.0
H1279 H 0.33964 0.33241 0.85727 0.0
C1280 C 0.65156 0.29549 0.88665 0.0
C1281 C 0.6341 0.30035 0.88529 0.0
C1282 C 0.66483 0.30799 0.88579 0.0
C1283 C 0.66051 0.32565 0.88299 0.0
C1284 C 0.64296 0.33032 0.88013 0.0
C1285 C 0.62994 0.31766 0.88161 0.0
C1286 C 0.6833 0.30249 0.88931 0.0
C1287 C 0.63781 0.34888 0.8766 0.0
C1288 C 0.68771 0.36047 0.90466 0.0
C1289 C 0.6984 0.36613 0.89108 0.0
C1290 C 0.67565 0.34709 0.90221 0.0
C1291 C 0.6738 0.33947 0.88559 0.0
C1292 C 0.68441 0.34526 0.87172 0.0
C1293 C 0.69682 0.35836 0.8747 0.0
C1294 C 0.66494 0.34106 0.9175 0.0
C1295 C 0.68247 0.3378 0.85372 0.0
H1296 H 0.6548 0.28213 0.88963 0.0
H1297 H 0.61644 0.32142 0.88042 0.0
H1298 H 0.69227 0.30823 0.87965 0.0
H1299 H 0.68729 0.3073 0.90229 0.0
H1300 H 0.68482 0.28815 0.88911 0.0
H1301 H 0.62424 0.3499 0.87184 0.0
H1302 H 0.63894 0.35658 0.88871 0.0
H1303 H 0.6466 0.35481 0.86685 0.0
H1304 H 0.68904 0.36627 0.91741 0.0
H1305 H 0.70504 0.36275 0.86416 0.0
H1306 H 0.66649 0.32686 0.91932 0.0
H1307 H 0.65099 0.34357 0.91501 0.0
H1308 H 0.66864 0.34768 0.92976 0.0
H1309 H 0.6847 0.32359 0.85399 0.0
H1310 H 0.69164 0.34375 0.84432 0.0
H1311 H 0.66902 0.3399 0.84902 0.0
C1312 C 0.68983 0.64058 0.91222 0.0
C1313 C 0.70154 0.63573 0.89919 0.0
C1314 C 0.67781 0.65397 0.90957 0.0
C1315 C 0.67702 0.66236 0.89323 0.0
C1316 C 0.68871 0.6574 0.87991 0.0
C1317 C 0.70108 0.64433 0.88316 0.0
C1318 C 0.66596 0.65915 0.92432 0.0
C1319 C 0.68789 0.66562 0.86216 0.0
C1320 C 0.63307 0.68347 0.88673 0.0
C1321 C 0.6366 0.70077 0.89103 0.0
C1322 C 0.64642 0.67109 0.88593 0.0
C1323 C 0.6636 0.676 0.89024 0.0
C1324 C 0.66734 0.69365 0.89386 0.0
C1325 C 0.6538 0.70589 0.89392 0.0
C1326 C 0.64194 0.65256 0.88143 0.0
C1327 C 0.68534 0.69937 0.89901 0.0
H1328 H 0.6903 0.6341 0.9247 0.0
H1329 H 0.7101 0.64053 0.87305 0.0
H1330 H 0.66699 0.67331 0.92674 0.0
H1331 H 0.65229 0.65636 0.92082 0.0
H1332 H 0.66905 0.65216 0.93654 0.0
H1333 H 0.69793 0.66038 0.85324 0.0
H1334 H 0.67491 0.66332 0.85636 0.0
H1335 H 0.68961 0.67987 0.8632 0.0
H1336 H 0.61977 0.67952 0.8844 0.0
H1337 H 0.6565 0.71925 0.89743 0.0
H1338 H 0.64242 0.64446 0.89332 0.0
H1339 H 0.65152 0.64718 0.87211 0.0
H1340 H 0.62876 0.65144 0.87571 0.0
H1341 H 0.68848 0.69405 0.91202 0.0
H1342 H 0.68653 0.71373 0.89954 0.0
H1343 H 0.69515 0.69425 0.88981 0.0
C1344 C 0.63222 0.68646 0.11793 0.0
C1345 C 0.6362 0.70401 0.11536 0.0
C1346 C 0.64541 0.67404 0.11976 0.0
C1347 C 0.66299 0.67922 0.11833 0.0
C1348 C 0.66707 0.69708 0.11672 0.0
C1349 C 0.65359 0.70932 0.11551 0.0
C1350 C 0.64048 0.65522 0.12203 0.0
C1351 C 0.68559 0.70314 0.11471 0.0
C1352 C 0.69934 0.64666 0.12697 0.0
C1353 C 0.70194 0.63978 0.11033 0.0
C1354 C 0.6866 0.65944 0.12991 0.0
C1355 C 0.67672 0.66583 0.11577 0.0
C1356 C 0.67966 0.65916 0.0989 0.0
C1357 C 0.69201 0.64605 0.09645 0.0
C1358 C 0.68346 0.66585 0.14814 0.0
C1359 C 0.66976 0.66587 0.08335 0.0
H1360 H 0.61876 0.68237 0.11794 0.0
H1361 H 0.65668 0.72287 0.11337 0.0
H1362 H 0.64245 0.64821 0.10962 0.0
H1363 H 0.64883 0.64894 0.13195 0.0
H1364 H 0.62668 0.65371 0.12594 0.0
H1365 H 0.68675 0.71746 0.11591 0.0
H1366 H 0.69409 0.69696 0.12453 0.0
H1367 H 0.69047 0.69925 0.10173 0.0
H1368 H 0.70698 0.64177 0.13772 0.0
H1369 H 0.69414 0.64092 0.08353 0.0
H1370 H 0.66987 0.66306 0.15199 0.0
H1371 H 0.6852 0.68012 0.14875 0.0
H1372 H 0.69233 0.6597 0.1577 0.0
H1373 H 0.65576 0.6629 0.08481 0.0
H1374 H 0.67438 0.66008 0.07098 0.0
H1375 H 0.67106 0.68019 0.08247 0.0
C1376 C 0.37247 0.68661 0.11467 0.0
C1377 C 0.36824 0.70373 0.11025 0.0
C1378 C 0.35961 0.67374 0.11572 0.0
C1379 C 0.3422 0.67795 0.11157 0.0
C1380 C 0.33777 0.6954 0.1078 0.0
C1381 C 0.35083 0.70816 0.10747 0.0
C1382 C 0.36483 0.65544 0.12036 0.0
C1383 C 0.3195 0.70039 0.10281 0.0
C1384 C 0.31662 0.64151 0.09045 0.0
C1385 C 0.3052 0.63655 0.10371 0.0
C1386 C 0.32839 0.65519 0.09278 0.0
C1387 C 0.32922 0.6638 0.109 0.0
C1388 C 0.31789 0.65868 0.12257 0.0
C1389 C 0.30577 0.6453 0.11966 0.0
C1390 C 0.33986 0.6605 0.07778 0.0
C1391 C 0.31878 0.66714 0.1402 0.0
H1392 H 0.38593 0.6832 0.11692 0.0
H1393 H 0.34757 0.72136 0.10388 0.0
H1394 H 0.35561 0.64983 0.12991 0.0
H1395 H 0.36443 0.64718 0.10859 0.0
H1396 H 0.37814 0.65486 0.12587 0.0
H1397 H 0.3178 0.71468 0.10199 0.0
H1398 H 0.31634 0.69467 0.08998 0.0
H1399 H 0.31003 0.69515 0.11229 0.0
H1400 H 0.31607 0.63493 0.07803 0.0
H1401 H 0.29699 0.64144 0.12995 0.0
H1402 H 0.35367 0.65829 0.08115 0.0
H1403 H 0.33828 0.67456 0.0751 0.0
H1404 H 0.33688 0.65317 0.06573 0.0
H1405 H 0.332 0.66557 0.14569 0.0
H1406 H 0.30923 0.66154 0.14944 0.0
H1407 H 0.31632 0.68127 0.13904 0.0
C1408 C 0.68533 0.375 0.11307 0.0
C1409 C 0.70257 0.371 0.10894 0.0
C1410 C 0.67285 0.36186 0.11499 0.0
C1411 C 0.67761 0.34436 0.11204 0.0
C1412 C 0.69522 0.3402 0.10868 0.0
C1413 C 0.70756 0.35359 0.10744 0.0
C1414 C 0.65437 0.36684 0.11915 0.0
C1415 C 0.70079 0.32179 0.10498 0.0
C1416 C 0.64557 0.30774 0.12157 0.0
C1417 C 0.63717 0.30613 0.10552 0.0
C1418 C 0.65868 0.32025 0.12405 0.0
C1419 C 0.66385 0.33091 0.10995 0.0
C1420 C 0.65561 0.32898 0.09364 0.0
C1421 C 0.64221 0.31685 0.09173 0.0
C1422 C 0.66677 0.3223 0.14176 0.0
C1423 C 0.66099 0.3397 0.07812 0.0
H1424 H 0.68148 0.38847 0.11437 0.0
H1425 H 0.72087 0.3505 0.1041 0.0
H1426 H 0.64627 0.36558 0.10731 0.0
H1427 H 0.64887 0.35802 0.12912 0.0
H1428 H 0.65337 0.38041 0.12389 0.0
H1429 H 0.71514 0.32043 0.10465 0.0
H1430 H 0.69551 0.31278 0.11487 0.0
H1431 H 0.69553 0.31772 0.09221 0.0
H1432 H 0.64164 0.29948 0.13226 0.0
H1433 H 0.6359 0.31548 0.07922 0.0
H1434 H 0.66464 0.33572 0.14653 0.0
H1435 H 0.68099 0.32027 0.14097 0.0
H1436 H 0.66129 0.31305 0.15136 0.0
H1437 H 0.65836 0.35362 0.08063 0.0
H1438 H 0.65401 0.33585 0.06611 0.0
H1439 H 0.67514 0.33834 0.07583 0.0
C1440 C 0.61768 0.86913 0.81778 0.0
C1441 C 0.6127 0.86501 0.80079 0.0
C1442 C 0.61942 0.85615 0.83047 0.0
C1443 C 0.61534 0.83873 0.82624 0.0
C1444 C 0.61105 0.83442 0.80887 0.0
C1445 C 0.61009 0.8476 0.79627 0.0
C1446 C 0.62466 0.86125 0.84864 0.0
C1447 C 0.60606 0.81615 0.80387 0.0
C1448 C 0.62424 0.80175 0.8581 0.0
C1449 C 0.60853 0.80107 0.86725 0.0
C1450 C 0.62686 0.81416 0.84491 0.0
C1451 C 0.61319 0.82562 0.84036 0.0
C1452 C 0.59721 0.82468 0.8494 0.0
C1453 C 0.59522 0.81267 0.86292 0.0
C1454 C 0.64428 0.81519 0.83602 0.0
C1455 C 0.58209 0.83624 0.84467 0.0
H1456 H 0.61977 0.8826 0.82126 0.0
H1457 H 0.60603 0.84442 0.78318 0.0
H1458 H 0.61314 0.8609 0.85726 0.0
H1459 H 0.63432 0.85196 0.85391 0.0
H1460 H 0.63026 0.87453 0.84909 0.0
H1461 H 0.60488 0.81455 0.78959 0.0
H1462 H 0.61572 0.8067 0.80879 0.0
H1463 H 0.59339 0.81287 0.8099 0.0
H1464 H 0.63457 0.79283 0.86149 0.0
H1465 H 0.58297 0.81202 0.86983 0.0
H1466 H 0.64973 0.82843 0.83751 0.0
H1467 H 0.64278 0.81278 0.82191 0.0
H1468 H 0.6537 0.80567 0.84135 0.0
H1469 H 0.58553 0.85001 0.847 0.0
H1470 H 0.57024 0.83315 0.85229 0.0
H1471 H 0.57903 0.83487 0.83067 0.0
C1472 C 0.17808 0.6164 0.86673 0.0
C1473 C 0.19584 0.61413 0.86364 0.0
C1474 C 0.16625 0.61752 0.85293 0.0
C1475 C 0.17226 0.61561 0.83567 0.0
C1476 C 0.19034 0.61428 0.83246 0.0
C1477 C 0.20196 0.61383 0.84653 0.0
C1478 C 0.14717 0.61954 0.85693 0.0
C1479 C 0.19729 0.61175 0.81433 0.0
C1480 C 0.14068 0.59201 0.80626 0.0
C1481 C 0.1345 0.60538 0.79561 0.0
C1482 C 0.15333 0.59516 0.81892 0.0
C1483 C 0.15957 0.61225 0.82146 0.0
C1484 C 0.1533 0.62588 0.8108 0.0
C1485 C 0.14103 0.62222 0.79775 0.0
C1486 C 0.15997 0.58012 0.82962 0.0
C1487 C 0.15924 0.64434 0.81348 0.0
H1488 H 0.17337 0.61674 0.87999 0.0
H1489 H 0.21569 0.61191 0.84415 0.0
H1490 H 0.14109 0.62901 0.84795 0.0
H1491 H 0.14051 0.60691 0.85509 0.0
H1492 H 0.14495 0.62389 0.87049 0.0
H1493 H 0.21162 0.6133 0.81376 0.0
H1494 H 0.19397 0.5985 0.80978 0.0
H1495 H 0.19126 0.62107 0.80518 0.0
H1496 H 0.13581 0.57893 0.80447 0.0
H1497 H 0.13619 0.63257 0.78955 0.0
H1498 H 0.1563 0.58195 0.84342 0.0
H1499 H 0.17435 0.57958 0.82901 0.0
H1500 H 0.1547 0.56747 0.82516 0.0
H1501 H 0.15561 0.6487 0.82672 0.0
H1502 H 0.15344 0.65339 0.80388 0.0
H1503 H 0.17358 0.64516 0.81253 0.0
C1504 C 0.39013 0.15553 0.80019 0.0
C1505 C 0.39004 0.13799 0.80493 0.0
C1506 C 0.38886 0.16862 0.81285 0.0
C1507 C 0.38687 0.16398 0.83055 0.0
C1508 C 0.38532 0.14624 0.83513 0.0
C1509 C 0.38731 0.13346 0.82232 0.0
C1510 C 0.39112 0.1873 0.80743 0.0
C1511 C 0.3826 0.14072 0.85373 0.0
C1512 C 0.40757 0.19196 0.86534 0.0
C1513 C 0.39351 0.20177 0.87137 0.0
C1514 C 0.40559 0.18001 0.85178 0.0
C1515 C 0.38897 0.1773 0.84444 0.0
C1516 C 0.37461 0.18701 0.85063 0.0
C1517 C 0.37712 0.19942 0.86384 0.0
C1518 C 0.42138 0.17036 0.84527 0.0
C1519 C 0.35661 0.18405 0.84354 0.0
H1520 H 0.39242 0.15901 0.78675 0.0
H1521 H 0.38714 0.11986 0.82595 0.0
H1522 H 0.38107 0.19562 0.81348 0.0
H1523 H 0.40393 0.19205 0.81199 0.0
H1524 H 0.39049 0.18891 0.79312 0.0
H1525 H 0.37872 0.12687 0.85473 0.0
H1526 H 0.39481 0.14253 0.86113 0.0
H1527 H 0.37248 0.14883 0.86 0.0
H1528 H 0.42031 0.19393 0.87097 0.0
H1529 H 0.36624 0.20699 0.86853 0.0
H1530 H 0.42268 0.17205 0.83102 0.0
H1531 H 0.4199 0.15627 0.84781 0.0
H1532 H 0.43354 0.17486 0.85156 0.0
H1533 H 0.35642 0.18638 0.82935 0.0
H1534 H 0.34682 0.19261 0.84976 0.0
H1535 H 0.35276 0.17034 0.84566 0.0
C1536 C 0.87239 0.38459 0.81551 0.0
C1537 C 0.86879 0.38791 0.79799 0.0
C1538 C 0.85899 0.38366 0.82783 0.0
C1539 C 0.84164 0.38672 0.8226 0.0
C1540 C 0.83787 0.38921 0.80476 0.0
C1541 C 0.8515 0.38952 0.79262 0.0
C1542 C 0.86355 0.38044 0.84661 0.0
C1543 C 0.81963 0.39294 0.79866 0.0
C1544 C 0.80434 0.37934 0.85442 0.0
C1545 C 0.80277 0.39583 0.86194 0.0
C1546 C 0.81704 0.37605 0.84167 0.0
C1547 C 0.82796 0.38971 0.83598 0.0
C1548 C 0.82609 0.40646 0.84331 0.0
C1549 C 0.81373 0.40922 0.85636 0.0
C1550 C 0.81898 0.35792 0.83453 0.0
C1551 C 0.83714 0.42152 0.83735 0.0
H1552 H 0.88576 0.38322 0.81967 0.0
H1553 H 0.8487 0.39224 0.77911 0.0
H1554 H 0.86231 0.39271 0.85403 0.0
H1555 H 0.85448 0.3709 0.85245 0.0
H1556 H 0.87704 0.37556 0.84812 0.0
H1557 H 0.81854 0.39256 0.78429 0.0
H1558 H 0.81035 0.38349 0.80427 0.0
H1559 H 0.81569 0.40603 0.80319 0.0
H1560 H 0.79592 0.36895 0.85877 0.0
H1561 H 0.81241 0.42205 0.86199 0.0
H1562 H 0.83228 0.35306 0.83718 0.0
H1563 H 0.81727 0.35801 0.82024 0.0
H1564 H 0.80947 0.34874 0.84027 0.0
H1565 H 0.85098 0.41893 0.84033 0.0
H1566 H 0.83337 0.43392 0.84366 0.0
H1567 H 0.83604 0.42312 0.82308 0.0
C1568 C 0.59329 0.1914 0.13892 0.0
C1569 C 0.60698 0.20169 0.13284 0.0
C1570 C 0.59593 0.17896 0.15193 0.0
C1571 C 0.61284 0.17627 0.15862 0.0
C1572 C 0.62678 0.18658 0.15245 0.0
C1573 C 0.62362 0.19943 0.13984 0.0
C1574 C 0.58057 0.16867 0.15847 0.0
C1575 C 0.64506 0.1837 0.15884 0.0
C1576 C 0.61387 0.15213 0.20163 0.0
C1577 C 0.61424 0.13487 0.19596 0.0
C1578 C 0.6143 0.16591 0.18966 0.0
C1579 C 0.61572 0.16227 0.17168 0.0
C1580 C 0.61757 0.14486 0.16609 0.0
C1581 C 0.61644 0.13135 0.17826 0.0
C1582 C 0.61176 0.1842 0.19616 0.0
C1583 C 0.61971 0.14041 0.14713 0.0
H1584 H 0.58038 0.19328 0.13366 0.0
H1585 H 0.63422 0.20735 0.13507 0.0
H1586 H 0.58221 0.15478 0.1551 0.0
H1587 H 0.57976 0.16956 0.17282 0.0
H1588 H 0.56811 0.17327 0.15287 0.0
H1589 H 0.65441 0.19299 0.153 0.0
H1590 H 0.6456 0.18498 0.17316 0.0
H1591 H 0.64925 0.1703 0.15562 0.0
H1592 H 0.61195 0.15484 0.21531 0.0
H1593 H 0.61679 0.11798 0.17389 0.0
H1594 H 0.59864 0.18881 0.19238 0.0
H1595 H 0.62132 0.19312 0.19018 0.0
H1596 H 0.61294 0.18507 0.21051 0.0
H1597 H 0.60719 0.14234 0.14029 0.0
H1598 H 0.62385 0.12674 0.14524 0.0
H1599 H 0.62941 0.14909 0.14096 0.0
C1600 C 0.85264 0.61626 0.21208 0.0
C1601 C 0.87005 0.61624 0.20686 0.0
C1602 C 0.83922 0.61742 0.19977 0.0
C1603 C 0.84339 0.6191 0.18193 0.0
C1604 C 0.86098 0.62073 0.17686 0.0
C1605 C 0.87411 0.61895 0.18935 0.0
C1606 C 0.82069 0.61521 0.20572 0.0
C1607 C 0.86601 0.62309 0.15807 0.0
C1608 C 0.81522 0.59679 0.14836 0.0
C1609 C 0.80526 0.61053 0.14186 0.0
C1610 C 0.82724 0.5994 0.16174 0.0
C1611 C 0.82981 0.61632 0.16844 0.0
C1612 C 0.81983 0.63031 0.16188 0.0
C1613 C 0.80742 0.62719 0.14882 0.0
C1614 C 0.83723 0.584 0.16864 0.0
C1615 C 0.82258 0.64858 0.16834 0.0
H1616 H 0.84949 0.61401 0.22561 0.0
H1617 H 0.8876 0.61904 0.18532 0.0
H1618 H 0.81208 0.62483 0.19937 0.0
H1619 H 0.81603 0.60211 0.20195 0.0
H1620 H 0.8194 0.61655 0.22002 0.0
H1621 H 0.87976 0.62718 0.15665 0.0
H1622 H 0.86425 0.61065 0.15103 0.0
H1623 H 0.85757 0.63289 0.15175 0.0
H1624 H 0.81341 0.58385 0.14315 0.0
H1625 H 0.79975 0.63783 0.14375 0.0
H1626 H 0.83582 0.58318 0.18295 0.0
H1627 H 0.85125 0.58559 0.16577 0.0
H1628 H 0.8328 0.57156 0.16287 0.0
H1629 H 0.82094 0.64912 0.18262 0.0
H1630 H 0.81346 0.65795 0.16226 0.0
H1631 H 0.83607 0.65274 0.16545 0.0
C1632 C 0.4065 0.81685 0.13623 0.0
C1633 C 0.39321 0.80522 0.13192 0.0
C1634 C 0.4046 0.82867 0.14993 0.0
C1635 C 0.38873 0.82939 0.15917 0.0
C1636 C 0.37506 0.81794 0.15461 0.0
C1637 C 0.37761 0.8057 0.14125 0.0
C1638 C 0.41973 0.8402 0.15466 0.0
C1639 C 0.35773 0.81876 0.1637 0.0
C1640 C 0.39196 0.85046 0.20369 0.0
C1641 C 0.38914 0.86794 0.19957 0.0
C1642 C 0.39111 0.83757 0.1908 0.0
C1643 C 0.3867 0.84222 0.17355 0.0
C1644 C 0.38249 0.8597 0.16971 0.0
C1645 C 0.38415 0.87242 0.18268 0.0
C1646 C 0.39628 0.81924 0.19538 0.0
C1647 C 0.3771 0.86515 0.15168 0.0
H1648 H 0.41868 0.81634 0.12918 0.0
H1649 H 0.3673 0.79673 0.13789 0.0
H1650 H 0.41622 0.854 0.15263 0.0
H1651 H 0.42297 0.8386 0.16861 0.0
H1652 H 0.4315 0.8373 0.14686 0.0
H1653 H 0.34824 0.8094 0.15821 0.0
H1654 H 0.35937 0.81597 0.17772 0.0
H1655 H 0.35229 0.83205 0.16262 0.0
H1656 H 0.39602 0.84703 0.21672 0.0
H1657 H 0.3819 0.88594 0.17952 0.0
H1658 H 0.40883 0.81611 0.18904 0.0
H1659 H 0.38656 0.80984 0.19048 0.0
H1660 H 0.39775 0.81738 0.2096 0.0
H1661 H 0.38855 0.86498 0.14296 0.0
H1662 H 0.37149 0.87843 0.15152 0.0
H1663 H 0.36742 0.85595 0.14631 0.0
C1664 C 0.20453 0.39475 0.15441 0.0
C1665 C 0.19913 0.39299 0.13715 0.0
C1666 C 0.19247 0.39409 0.16811 0.0
C1667 C 0.1747 0.39102 0.16442 0.0
C1668 C 0.16947 0.38793 0.14707 0.0
C1669 C 0.18168 0.3893 0.13362 0.0
C1670 C 0.19854 0.39798 0.18632 0.0
C1671 C 0.1508 0.38404 0.14261 0.0
C1672 C 0.14344 0.38169 0.20177 0.0
C1673 C 0.135 0.39771 0.20342 0.0
C1674 C 0.15635 0.37919 0.18905 0.0
C1675 C 0.16132 0.39324 0.17824 0.0
C1676 C 0.15313 0.40956 0.18029 0.0
C1677 C 0.13988 0.41149 0.19261 0.0
C1678 C 0.16436 0.36145 0.18687 0.0
C1679 C 0.15833 0.42505 0.16945 0.0
H1680 H 0.218 0.39778 0.15713 0.0
H1681 H 0.17752 0.38784 0.12026 0.0
H1682 H 0.19339 0.41079 0.19041 0.0
H1683 H 0.19349 0.38819 0.19557 0.0
H1684 H 0.21292 0.39831 0.18729 0.0
H1685 H 0.14935 0.37932 0.12906 0.0
H1686 H 0.14542 0.37414 0.15158 0.0
H1687 H 0.14289 0.39598 0.1441 0.0
H1688 H 0.13962 0.371 0.21008 0.0
H1689 H 0.13351 0.42395 0.19402 0.0
H1690 H 0.17865 0.36223 0.18836 0.0
H1691 H 0.16174 0.35657 0.17358 0.0
H1692 H 0.15922 0.35194 0.1964 0.0
H1693 H 0.17254 0.4272 0.17039 0.0
H1694 H 0.15157 0.43711 0.17352 0.0
H1695 H 0.15527 0.42258 0.1556 0.0
C1696 C 0.79638 0.61009 0.8541 0.0
C1697 C 0.80149 0.61098 0.87152 0.0
C1698 C 0.80874 0.61093 0.84069 0.0
C1699 C 0.82651 0.61329 0.84485 0.0
C1700 C 0.83146 0.61564 0.86239 0.0
C1701 C 0.81893 0.61412 0.87553 0.0
C1702 C 0.80294 0.60789 0.82223 0.0
C1703 C 0.85015 0.61873 0.86738 0.0
C1704 C 0.8608 0.59173 0.81689 0.0
C1705 C 0.86653 0.60544 0.80642 0.0
C1706 C 0.84751 0.59409 0.82907 0.0
C1707 C 0.84012 0.61076 0.83132 0.0
C1708 C 0.846 0.62477 0.82094 0.0
C1709 C 0.85896 0.62187 0.80836 0.0
C1710 C 0.84134 0.57866 0.83949 0.0
C1711 C 0.83883 0.64282 0.82335 0.0
H1712 H 0.7829 0.60751 0.851 0.0
H1713 H 0.82287 0.61495 0.88902 0.0
H1714 H 0.80871 0.61766 0.81339 0.0
H1715 H 0.80751 0.59494 0.81789 0.0
H1716 H 0.78859 0.60834 0.82091 0.0
H1717 H 0.85142 0.62315 0.88104 0.0
H1718 H 0.85762 0.60653 0.86585 0.0
H1719 H 0.85613 0.62858 0.85874 0.0
H1720 H 0.86645 0.57894 0.81526 0.0
H1721 H 0.86341 0.6325 0.80029 0.0
H1722 H 0.82709 0.57714 0.83811 0.0
H1723 H 0.84411 0.58075 0.85346 0.0
H1724 H 0.84768 0.56638 0.83539 0.0
H1725 H 0.82459 0.64281 0.8213 0.0
H1726 H 0.8448 0.65232 0.81428 0.0
H1727 H 0.84118 0.64722 0.83686 0.0
C1728 C 0.38712 0.85123 0.79731 0.0
C1729 C 0.38518 0.86837 0.80304 0.0
C1730 C 0.38684 0.83733 0.80914 0.0
C1731 C 0.38404 0.84068 0.82702 0.0
C1732 C 0.38058 0.85785 0.83257 0.0
C1733 C 0.3815 0.87153 0.82057 0.0
C1734 C 0.39101 0.81932 0.8027 0.0
C1735 C 0.377 0.86194 0.85139 0.0
C1736 C 0.37743 0.80243 0.85785 0.0
C1737 C 0.39393 0.80107 0.86541 0.0
C1738 C 0.37386 0.81539 0.84546 0.0
C1739 C 0.38726 0.82682 0.84014 0.0
C1740 C 0.404 0.82522 0.84755 0.0
C1741 C 0.40703 0.81258 0.86025 0.0
C1742 C 0.35574 0.81703 0.83824 0.0
C1743 C 0.41881 0.83681 0.84198 0.0
H1744 H 0.39011 0.84878 0.78378 0.0
H1745 H 0.37988 0.88478 0.825 0.0
H1746 H 0.40416 0.81558 0.80723 0.0
H1747 H 0.38174 0.80971 0.80805 0.0
H1748 H 0.39074 0.81851 0.78831 0.0
H1749 H 0.37171 0.87525 0.8531 0.0
H1750 H 0.36767 0.85249 0.85695 0.0
H1751 H 0.38921 0.86092 0.85894 0.0
H1752 H 0.36727 0.79357 0.86186 0.0
H1753 H 0.41987 0.81144 0.8659 0.0
H1754 H 0.35595 0.81548 0.82393 0.0
H1755 H 0.35057 0.83018 0.84101 0.0
H1756 H 0.34673 0.80725 0.84382 0.0
H1757 H 0.42057 0.83607 0.8277 0.0
H1758 H 0.43126 0.83326 0.84833 0.0
H1759 H 0.41581 0.85051 0.84523 0.0
C1760 C 0.20805 0.39246 0.85116 0.0
C1761 C 0.20326 0.38976 0.8685 0.0
C1762 C 0.19562 0.39178 0.83781 0.0
C1763 C 0.17813 0.38776 0.84187 0.0
C1764 C 0.17358 0.38368 0.85921 0.0
C1765 C 0.18612 0.38505 0.87236 0.0
C1766 C 0.20096 0.39666 0.8196 0.0
C1767 C 0.15523 0.3788 0.86405 0.0
C1768 C 0.14198 0.40804 0.81523 0.0
C1769 C 0.13744 0.39456 0.80391 0.0
C1770 C 0.15543 0.40605 0.82732 0.0
C1771 C 0.16425 0.38998 0.82854 0.0
C1772 C 0.15959 0.3762 0.81727 0.0
C1773 C 0.1464 0.37876 0.80486 0.0
C1774 C 0.16026 0.42125 0.83873 0.0
C1775 C 0.16831 0.35872 0.81854 0.0
H1776 H 0.22126 0.39627 0.84817 0.0
H1777 H 0.18242 0.38284 0.88575 0.0
H1778 H 0.19606 0.38702 0.81011 0.0
H1779 H 0.19515 0.40938 0.81619 0.0
H1780 H 0.21528 0.39766 0.81822 0.0
H1781 H 0.15441 0.37344 0.87741 0.0
H1782 H 0.14679 0.39044 0.86332 0.0
H1783 H 0.15 0.36908 0.85481 0.0
H1784 H 0.13522 0.42035 0.8144 0.0
H1785 H 0.14286 0.3683 0.79615 0.0
H1786 H 0.17431 0.42413 0.83743 0.0
H1787 H 0.15779 0.41799 0.85253 0.0
H1788 H 0.15281 0.43315 0.83546 0.0
H1789 H 0.18248 0.36009 0.81647 0.0
H1790 H 0.16313 0.34932 0.80892 0.0
H1791 H 0.16645 0.35331 0.83176 0.0
C1792 C 0.59383 0.1386 0.8152 0.0
C1793 C 0.60698 0.13396 0.80354 0.0
C1794 C 0.59601 0.1524 0.82685 0.0
C1795 C 0.61201 0.16144 0.82731 0.0
C1796 C 0.62549 0.15662 0.81575 0.0
C1797 C 0.62269 0.14312 0.80374 0.0
C1798 C 0.58108 0.15739 0.83855 0.0
C1799 C 0.64291 0.16554 0.81627 0.0
C1800 C 0.60941 0.20593 0.84848 0.0
C1801 C 0.61246 0.20174 0.8659 0.0
C1802 C 0.61004 0.19308 0.83553 0.0
C1803 C 0.61439 0.17579 0.84009 0.0
C1804 C 0.61886 0.17188 0.85749 0.0
C1805 C 0.61749 0.18482 0.87025 0.0
C1806 C 0.60468 0.19773 0.81728 0.0
C1807 C 0.62415 0.15379 0.86283 0.0
H1808 H 0.58158 0.13169 0.81492 0.0
H1809 H 0.6329 0.13949 0.79476 0.0
H1810 H 0.58475 0.15537 0.85231 0.0
H1811 H 0.578 0.17137 0.83692 0.0
H1812 H 0.56918 0.14972 0.83584 0.0
H1813 H 0.65214 0.16007 0.80664 0.0
H1814 H 0.64135 0.1796 0.81367 0.0
H1815 H 0.64864 0.16426 0.82942 0.0
H1816 H 0.60535 0.21897 0.84514 0.0
H1817 H 0.61995 0.18161 0.88373 0.0
H1818 H 0.59195 0.19164 0.81436 0.0
H1819 H 0.61415 0.19264 0.80773 0.0
H1820 H 0.60345 0.21198 0.81544 0.0
H1821 H 0.61262 0.14518 0.86278 0.0
H1822 H 0.62993 0.15354 0.87604 0.0
H1823 H 0.63367 0.14835 0.85349 0.0
C1824 C 0.85733 0.38038 0.19336 0.0
C1825 C 0.86642 0.39611 0.19408 0.0
C1826 C 0.84395 0.37787 0.18115 0.0
C1827 C 0.83919 0.39166 0.16993 0.0
C1828 C 0.84814 0.40768 0.17096 0.0
C1829 C 0.86181 0.40958 0.18278 0.0
C1830 C 0.83512 0.36043 0.18003 0.0
C1831 C 0.8432 0.42291 0.15963 0.0
C1832 C 0.81673 0.38752 0.12642 0.0
C1833 C 0.79974 0.39246 0.13057 0.0
C1834 C 0.82938 0.38566 0.13939 0.0
C1835 C 0.82509 0.38955 0.15684 0.0
C1836 C 0.80771 0.39375 0.16119 0.0
C1837 C 0.79516 0.39487 0.14799 0.0
C1838 C 0.84759 0.38055 0.13426 0.0
C1839 C 0.80267 0.39849 0.17951 0.0
H1840 H 0.86093 0.36994 0.20207 0.0
H1841 H 0.86868 0.42185 0.18347 0.0
H1842 H 0.82098 0.36187 0.1823 0.0
H1843 H 0.83677 0.35501 0.16679 0.0
H1844 H 0.8404 0.35102 0.18959 0.0
H1845 H 0.85072 0.43479 0.16283 0.0
H1846 H 0.8455 0.41968 0.1458 0.0
H1847 H 0.82917 0.42582 0.16111 0.0
H1848 H 0.82025 0.38555 0.11293 0.0
H1849 H 0.78204 0.39886 0.15118 0.0
H1850 H 0.85288 0.37079 0.14344 0.0
H1851 H 0.85616 0.3921 0.1348 0.0
H1852 H 0.8481 0.37514 0.12091 0.0
H1853 H 0.80773 0.38881 0.18887 0.0
H1854 H 0.78837 0.39946 0.18113 0.0
H1855 H 0.80852 0.41121 0.1829 0.0
C1856 C 0.59553 0.8598 0.19171 0.0
C1857 C 0.60907 0.86546 0.20243 0.0
C1858 C 0.5982 0.84689 0.1792 0.0
C1859 C 0.61502 0.83985 0.17686 0.0
C1860 C 0.62885 0.84567 0.18751 0.0
C1861 C 0.62563 0.85821 0.20044 0.0
C1862 C 0.58295 0.84074 0.16852 0.0
C1863 C 0.64706 0.83892 0.18502 0.0
C1864 C 0.61485 0.79667 0.15312 0.0
C1865 C 0.61544 0.8022 0.1358 0.0
C1866 C 0.61574 0.80871 0.1668 0.0
C1867 C 0.61785 0.8266 0.16303 0.0
C1868 C 0.62006 0.83196 0.14558 0.0
C1869 C 0.61846 0.81974 0.13216 0.0
C1870 C 0.61282 0.80245 0.18513 0.0
C1871 C 0.62295 0.85078 0.141 0.0
H1872 H 0.58265 0.86523 0.19338 0.0
H1873 H 0.63612 0.86265 0.2087 0.0
H1874 H 0.58505 0.84397 0.15466 0.0
H1875 H 0.5817 0.82642 0.16947 0.0
H1876 H 0.57053 0.84671 0.17275 0.0
H1877 H 0.65637 0.84476 0.19434 0.0
H1878 H 0.64731 0.82462 0.18658 0.0
H1879 H 0.6515 0.84181 0.17162 0.0
H1880 H 0.61233 0.78312 0.15594 0.0
H1881 H 0.619 0.82401 0.11876 0.0
H1882 H 0.59975 0.80659 0.18953 0.0
H1883 H 0.62242 0.80828 0.19412 0.0
H1884 H 0.61364 0.7881 0.18615 0.0
H1885 H 0.61061 0.85804 0.1425 0.0
H1886 H 0.62751 0.85237 0.12741 0.0
H1887 H 0.6326 0.85674 0.14987 0.0
C1888 C 0.14665 0.62312 0.19811 0.0
C1889 C 0.14009 0.60634 0.20062 0.0
C1890 C 0.15955 0.62634 0.18555 0.0
C1891 C 0.16638 0.61234 0.17575 0.0
C1892 C 0.16009 0.59532 0.17867 0.0
C1893 C 0.14686 0.59259 0.19084 0.0
C1894 C 0.16555 0.64471 0.18245 0.0
C1895 C 0.16729 0.57994 0.16886 0.0
C1896 C 0.18683 0.61546 0.13119 0.0
C1897 C 0.20448 0.61356 0.13509 0.0
C1898 C 0.17438 0.61666 0.14444 0.0
C1899 C 0.17967 0.61526 0.16198 0.0
C1900 C 0.1976 0.61424 0.16599 0.0
C1901 C 0.20984 0.61366 0.15246 0.0
C1902 C 0.15548 0.6183 0.13958 0.0
C1903 C 0.20378 0.6123 0.18447 0.0
H1904 H 0.14138 0.63377 0.20563 0.0
H1905 H 0.14197 0.57956 0.19291 0.0
H1906 H 0.17982 0.64563 0.18404 0.0
H1907 H 0.16253 0.64856 0.16891 0.0
H1908 H 0.15928 0.65409 0.19143 0.0
H1909 H 0.16186 0.56743 0.17354 0.0
H1910 H 0.16428 0.58123 0.15485 0.0
H1911 H 0.18162 0.57949 0.17017 0.0
H1912 H 0.1827 0.6155 0.11774 0.0
H1913 H 0.22348 0.61203 0.15547 0.0
H1914 H 0.14894 0.62806 0.14791 0.0
H1915 H 0.14886 0.60569 0.14167 0.0
H1916 H 0.15376 0.62208 0.12577 0.0
H1917 H 0.19735 0.6219 0.19304 0.0
H1918 H 0.21806 0.61388 0.1856 0.0
H1919 H 0.20025 0.5992 0.18931 0.0
C1920 C 0.41187 0.18943 0.1462 0.0
C1921 C 0.39846 0.20056 0.14099 0.0
C1922 C 0.40924 0.1769 0.15914 0.0
C1923 C 0.39261 0.17505 0.16676 0.0
C1924 C 0.37891 0.18611 0.1614 0.0
C1925 C 0.38207 0.19894 0.14876 0.0
C1926 C 0.42434 0.16571 0.16472 0.0
C1927 C 0.36091 0.18421 0.16886 0.0
C1928 C 0.38734 0.13064 0.18737 0.0
C1929 C 0.39094 0.13421 0.20484 0.0
C1930 C 0.38645 0.14404 0.17503 0.0
C1931 C 0.3898 0.16136 0.18019 0.0
C1932 C 0.39261 0.16511 0.19798 0.0
C1933 C 0.39291 0.1515 0.21013 0.0
C1934 C 0.38289 0.13951 0.15631 0.0
C1935 C 0.39664 0.18331 0.204 0.0
H1936 H 0.42461 0.19075 0.14039 0.0
H1937 H 0.37166 0.20749 0.14471 0.0
H1938 H 0.42628 0.16679 0.17895 0.0
H1939 H 0.42155 0.1519 0.1618 0.0
H1940 H 0.43662 0.16938 0.15811 0.0
H1941 H 0.35163 0.19368 0.1632 0.0
H1942 H 0.356 0.1709 0.1664 0.0
H1943 H 0.36124 0.18604 0.18313 0.0
H1944 H 0.38569 0.1173 0.18324 0.0
H1945 H 0.39583 0.1543 0.22361 0.0
H1946 H 0.39504 0.1407 0.14867 0.0
H1947 H 0.37331 0.14863 0.15064 0.0
H1948 H 0.37792 0.12605 0.15486 0.0
H1949 H 0.40962 0.18718 0.19911 0.0
H1950 H 0.39665 0.18439 0.21838 0.0
H1951 H 0.38709 0.19265 0.19867 0.0
C1952 C 0.85714 0.81021 0.59235 0.0
C1953 C 0.86453 0.80084 0.60606 0.0
C1954 C 0.84404 0.82246 0.59532 0.0
C1955 C 0.83854 0.82586 0.61253 0.0
C1956 C 0.84591 0.81639 0.62647 0.0
C1957 C 0.85867 0.80375 0.62303 0.0
C1958 C 0.83624 0.8319 0.58001 0.0
C1959 C 0.84073 0.82 0.645 0.0
C1960 C 0.8189 0.87078 0.6155 0.0
C1961 C 0.80112 0.86712 0.61453 0.0
C1962 C 0.83119 0.85738 0.61641 0.0
C1963 C 0.82559 0.8399 0.61568 0.0
C1964 C 0.80758 0.83614 0.6156 0.0
C1965 C 0.79553 0.84984 0.61528 0.0
C1966 C 0.85023 0.86198 0.61703 0.0
C1967 C 0.80105 0.81772 0.6144 0.0
H1968 H 0.86151 0.80783 0.57919 0.0
H1969 H 0.86444 0.79655 0.63365 0.0
H1970 H 0.82188 0.83079 0.58029 0.0
H1971 H 0.83949 0.8459 0.58074 0.0
H1972 H 0.841 0.82678 0.56741 0.0
H1973 H 0.84714 0.81104 0.6543 0.0
H1974 H 0.84427 0.83352 0.64845 0.0
H1975 H 0.82647 0.81882 0.64653 0.0
H1976 H 0.82323 0.88416 0.61502 0.0
H1977 H 0.78178 0.847 0.61437 0.0
H1978 H 0.85622 0.85943 0.60419 0.0
H1979 H 0.85708 0.85383 0.62672 0.0
H1980 H 0.85232 0.87586 0.62033 0.0
H1981 H 0.80387 0.81254 0.60126 0.0
H1982 H 0.78684 0.81685 0.6167 0.0
H1983 H 0.80781 0.80927 0.62388 0.0
C1984 C 0.85093 0.20922 0.38952 0.0
C1985 C 0.86824 0.20375 0.3902 0.0
C1986 C 0.83732 0.19708 0.38873 0.0
C1987 C 0.84123 0.17911 0.38804 0.0
C1988 C 0.85877 0.17369 0.38724 0.0
C1989 C 0.87207 0.18605 0.3887 0.0
C1990 C 0.81885 0.20342 0.39012 0.0
C1991 C 0.86354 0.15473 0.38591 0.0
C1992 C 0.81145 0.14679 0.41019 0.0
C1993 C 0.80185 0.14014 0.39626 0.0
C1994 C 0.82386 0.15983 0.40768 0.0
C1995 C 0.82727 0.16597 0.39069 0.0
C1996 C 0.8177 0.1592 0.3765 0.0
C1997 C 0.80483 0.14656 0.37951 0.0
C1998 C 0.83334 0.16702 0.42327 0.0
C1999 C 0.82138 0.16499 0.35816 0.0
H2000 H 0.84798 0.22291 0.39085 0.0
H2001 H 0.88549 0.18183 0.38913 0.0
H2002 H 0.8105 0.19702 0.38031 0.0
H2003 H 0.81361 0.19999 0.4031 0.0
H2004 H 0.81788 0.2177 0.38844 0.0
H2005 H 0.87742 0.15289 0.3825 0.0
H2006 H 0.86109 0.14825 0.39853 0.0
H2007 H 0.85541 0.14816 0.37601 0.0
H2008 H 0.80899 0.142 0.42319 0.0
H2009 H 0.79744 0.14136 0.36873 0.0
H2010 H 0.83224 0.18137 0.42355 0.0
H2011 H 0.84734 0.16379 0.42239 0.0
H2012 H 0.82824 0.16177 0.43569 0.0
H2013 H 0.81992 0.17926 0.35705 0.0
H2014 H 0.81263 0.15868 0.34859 0.0
H2015 H 0.83501 0.16183 0.35473 0.0
C2016 C 0.79625 0.85376 0.3967 0.0
C2017 C 0.80127 0.87118 0.39539 0.0
C2018 C 0.80868 0.84038 0.39628 0.0
C2019 C 0.82646 0.84454 0.39395 0.0
C2020 C 0.83136 0.86207 0.39133 0.0
C2021 C 0.81876 0.87519 0.39241 0.0
C2022 C 0.80293 0.82196 0.3996 0.0
C2023 C 0.85005 0.86706 0.38826 0.0
C2024 C 0.86127 0.81672 0.415 0.0
C2025 C 0.86697 0.80644 0.40113 0.0
C2026 C 0.84776 0.82874 0.4129 0.0
C2027 C 0.84011 0.83099 0.39634 0.0
C2028 C 0.84587 0.8207 0.38222 0.0
C2029 C 0.85906 0.8083 0.38486 0.0
C2030 C 0.84173 0.83905 0.42844 0.0
C2031 C 0.83842 0.82309 0.36427 0.0
H2032 H 0.78276 0.85065 0.39918 0.0
H2033 H 0.82265 0.88866 0.39128 0.0
H2034 H 0.80854 0.81305 0.3898 0.0
H2035 H 0.80773 0.81771 0.4125 0.0
H2036 H 0.78857 0.82063 0.3994 0.0
H2037 H 0.85136 0.88075 0.38394 0.0
H2038 H 0.85755 0.86542 0.40044 0.0
H2039 H 0.85599 0.85848 0.37834 0.0
H2040 H 0.86722 0.81517 0.42766 0.0
H2041 H 0.86351 0.80041 0.3741 0.0
H2042 H 0.82748 0.83766 0.43008 0.0
H2043 H 0.84447 0.85303 0.42639 0.0
H2044 H 0.84818 0.83488 0.44063 0.0
H2045 H 0.82416 0.82124 0.36452 0.0
H2046 H 0.84412 0.81391 0.35472 0.0
H2047 H 0.84088 0.83655 0.35976 0.0
C2048 C 0.14449 0.80309 0.37951 0.0
C2049 C 0.13682 0.80188 0.39596 0.0
C2050 C 0.15718 0.8158 0.37604 0.0
C2051 C 0.16268 0.82704 0.38952 0.0
C2052 C 0.15522 0.82549 0.40625 0.0
C2053 C 0.14221 0.81315 0.40916 0.0
C2054 C 0.16443 0.81743 0.35793 0.0
C2055 C 0.161 0.83687 0.42115 0.0
C2056 C 0.20566 0.85111 0.38965 0.0
C2057 C 0.20001 0.8683 0.38801 0.0
C2058 C 0.19375 0.83729 0.38914 0.0
C2059 C 0.1759 0.8408 0.38637 0.0
C2060 C 0.17045 0.85805 0.38316 0.0
C2061 C 0.18252 0.87164 0.38437 0.0
C2062 C 0.20007 0.81918 0.39309 0.0
C2063 C 0.15167 0.86232 0.37959 0.0
H2064 H 0.14028 0.7944 0.36929 0.0
H2065 H 0.13647 0.81208 0.42196 0.0
H2066 H 0.16157 0.83055 0.35273 0.0
H2067 H 0.17875 0.81598 0.35815 0.0
H2068 H 0.15893 0.8076 0.34893 0.0
H2069 H 0.15472 0.8332 0.4336 0.0
H2070 H 0.17528 0.836 0.42278 0.0
H2071 H 0.1578 0.85061 0.41833 0.0
H2072 H 0.21917 0.84855 0.39262 0.0
H2073 H 0.17818 0.88495 0.38297 0.0
H2074 H 0.19455 0.8097 0.38379 0.0
H2075 H 0.19562 0.81537 0.40626 0.0
H2076 H 0.21445 0.81825 0.39269 0.0
H2077 H 0.14606 0.853 0.37017 0.0
H2078 H 0.15008 0.87568 0.37442 0.0
H2079 H 0.1441 0.86126 0.39179 0.0
C2080 C 0.19174 0.14276 0.40462 0.0
C2081 C 0.20314 0.13801 0.39129 0.0
C2082 C 0.17981 0.15629 0.40242 0.0
C2083 C 0.17876 0.16492 0.38622 0.0
C2084 C 0.19012 0.16005 0.37258 0.0
C2085 C 0.20246 0.14684 0.3754 0.0
C2086 C 0.16834 0.16137 0.4175 0.0
C2087 C 0.18898 0.16851 0.35497 0.0
C2088 C 0.13486 0.18652 0.38173 0.0
C2089 C 0.1387 0.20363 0.38647 0.0
C2090 C 0.14808 0.1741 0.37995 0.0
C2091 C 0.16545 0.17875 0.38375 0.0
C2092 C 0.16948 0.19627 0.38767 0.0
C2093 C 0.15605 0.20858 0.38869 0.0
C2094 C 0.14327 0.15574 0.37513 0.0
C2095 C 0.18771 0.20172 0.39232 0.0
H2096 H 0.19241 0.13608 0.41699 0.0
H2097 H 0.21124 0.14311 0.36506 0.0
H2098 H 0.16953 0.17549 0.42008 0.0
H2099 H 0.15457 0.15873 0.41429 0.0
H2100 H 0.17165 0.1542 0.42956 0.0
H2101 H 0.1988 0.16334 0.34577 0.0
H2102 H 0.17587 0.16637 0.34941 0.0
H2103 H 0.19081 0.18274 0.35615 0.0
H2104 H 0.12143 0.1827 0.37995 0.0
H2105 H 0.159 0.22178 0.39257 0.0
H2106 H 0.14381 0.14739 0.38685 0.0
H2107 H 0.1526 0.1504 0.36555 0.0
H2108 H 0.12997 0.15493 0.36962 0.0
H2109 H 0.19112 0.19631 0.40523 0.0
H2110 H 0.1891 0.21606 0.39287 0.0
H2111 H 0.19719 0.19651 0.38284 0.0
C2112 C 0.20875 0.15296 0.61141 0.0
C2113 C 0.20472 0.13544 0.61401 0.0
C2114 C 0.19588 0.1658 0.61293 0.0
C2115 C 0.17879 0.16099 0.61778 0.0
C2116 C 0.17516 0.14346 0.62196 0.0
C2117 C 0.18807 0.13082 0.6196 0.0
C2118 C 0.20021 0.18419 0.60776 0.0
C2119 C 0.15733 0.13786 0.62783 0.0
C2120 C 0.14606 0.19707 0.62691 0.0
C2121 C 0.13655 0.19719 0.61141 0.0
C2122 C 0.15965 0.1851 0.62942 0.0
C2123 C 0.16424 0.17359 0.61582 0.0
C2124 C 0.15483 0.17399 0.60003 0.0
C2125 C 0.14091 0.18553 0.59818 0.0
C2126 C 0.16893 0.18459 0.64665 0.0
C2127 C 0.15959 0.16238 0.58496 0.0
H2128 H 0.2216 0.15646 0.60685 0.0
H2129 H 0.185 0.11724 0.62164 0.0
H2130 H 0.1939 0.18719 0.59516 0.0
H2131 H 0.19513 0.19355 0.61743 0.0
H2132 H 0.21441 0.18623 0.60635 0.0
H2133 H 0.15749 0.12467 0.63364 0.0
H2134 H 0.15202 0.14713 0.63749 0.0
H2135 H 0.14838 0.13772 0.61656 0.0
H2136 H 0.14263 0.20608 0.63716 0.0
H2137 H 0.13371 0.18578 0.58609 0.0
H2138 H 0.18292 0.18741 0.64482 0.0
H2139 H 0.16796 0.17138 0.65231 0.0
H2140 H 0.1635 0.19407 0.65606 0.0
H2141 H 0.17349 0.16408 0.58161 0.0
H2142 H 0.15168 0.16512 0.57322 0.0
H2143 H 0.15768 0.1486 0.58859 0.0
C2144 C 0.81795 0.13279 0.61426 0.0
C2145 C 0.80062 0.13691 0.61065 0.0
C2146 C 0.83071 0.14577 0.61507 0.0
C2147 C 0.82614 0.16321 0.61147 0.0
C2148 C 0.8085 0.16751 0.60848 0.0
C2149 C 0.79589 0.15431 0.6084 0.0
C2150 C 0.84923 0.14067 0.61889 0.0
C2151 C 0.80312 0.18582 0.60408 0.0
C2152 C 0.85901 0.19946 0.61941 0.0
C2153 C 0.86733 0.20033 0.60326 0.0
C2154 C 0.8456 0.18737 0.6224 0.0
C2155 C 0.84005 0.1764 0.60871 0.0
C2156 C 0.84814 0.17765 0.59225 0.0
C2157 C 0.86186 0.18936 0.58983 0.0
C2158 C 0.83769 0.18605 0.64026 0.0
C2159 C 0.84234 0.16659 0.57714 0.0
H2160 H 0.82159 0.11932 0.6161 0.0
H2161 H 0.7825 0.15748 0.60541 0.0
H2162 H 0.85705 0.1415 0.60684 0.0
H2163 H 0.85507 0.1497 0.62847 0.0
H2164 H 0.85019 0.12723 0.62401 0.0
H2165 H 0.78879 0.18737 0.60386 0.0
H2166 H 0.80864 0.19515 0.61353 0.0
H2167 H 0.80829 0.18931 0.5911 0.0
H2168 H 0.86329 0.20788 0.62982 0.0
H2169 H 0.86814 0.19015 0.57726 0.0
H2170 H 0.83982 0.17281 0.64552 0.0
H2171 H 0.82347 0.1881 0.63957 0.0
H2172 H 0.84331 0.19563 0.64945 0.0
H2173 H 0.84485 0.15271 0.57999 0.0
H2174 H 0.84915 0.17002 0.5649 0.0
H2175 H 0.82816 0.16807 0.57509 0.0
C2176 C 0.21021 0.85141 0.61094 0.0
C2177 C 0.20639 0.86912 0.61243 0.0
C2178 C 0.19702 0.83886 0.61224 0.0
C2179 C 0.17973 0.84417 0.61568 0.0
C2180 C 0.17616 0.86195 0.61862 0.0
C2181 C 0.18946 0.87425 0.6166 0.0
C2182 C 0.20134 0.82013 0.60849 0.0
C2183 C 0.15807 0.86813 0.62291 0.0
C2184 C 0.14238 0.81888 0.59589 0.0
C2185 C 0.13693 0.80846 0.60975 0.0
C2186 C 0.15653 0.83018 0.5976 0.0
C2187 C 0.16511 0.83161 0.6138 0.0
C2188 C 0.15949 0.82129 0.62797 0.0
C2189 C 0.14565 0.80955 0.62567 0.0
C2190 C 0.16237 0.84051 0.58198 0.0
C2191 C 0.16789 0.82288 0.64558 0.0
H2192 H 0.22328 0.84746 0.60753 0.0
H2193 H 0.18651 0.88795 0.61783 0.0
H2194 H 0.19561 0.81148 0.61845 0.0
H2195 H 0.19567 0.8164 0.59579 0.0
H2196 H 0.21557 0.81784 0.60798 0.0
H2197 H 0.15801 0.88174 0.62765 0.0
H2198 H 0.14981 0.86741 0.61114 0.0
H2199 H 0.15208 0.8597 0.63293 0.0
H2200 H 0.13581 0.81789 0.58349 0.0
H2201 H 0.1414 0.80152 0.63641 0.0
H2202 H 0.17639 0.8383 0.57955 0.0
H2203 H 0.1606 0.85457 0.58447 0.0
H2204 H 0.15504 0.83705 0.57006 0.0
H2205 H 0.18195 0.81992 0.64465 0.0
H2206 H 0.16194 0.81405 0.65529 0.0
H2207 H 0.16671 0.83643 0.65031 0.0
C2208 C 0.12374 0.24232 0.4644 0.0
C2209 C 0.11469 0.25551 0.45576 0.0
C2210 C 0.12523 0.24236 0.48257 0.0
C2211 C 0.1169 0.25553 0.49232 0.0
C2212 C 0.10821 0.26917 0.48358 0.0
C2213 C 0.10747 0.26914 0.46538 0.0
C2214 C 0.13512 0.22791 0.49136 0.0
C2215 C 0.09869 0.28317 0.49346 0.0
C2216 C 0.10063 0.24255 0.53691 0.0
C2217 C 0.11205 0.25144 0.54791 0.0
C2218 C 0.10202 0.24394 0.51884 0.0
C2219 C 0.11556 0.25399 0.51154 0.0
C2220 C 0.12742 0.26268 0.52258 0.0
C2221 C 0.12531 0.26157 0.5407 0.0
C2222 C 0.08876 0.2349 0.50757 0.0
C2223 C 0.14235 0.27303 0.51527 0.0
H2224 H 0.12946 0.23184 0.45695 0.0
H2225 H 0.10034 0.27928 0.45873 0.0
H2226 H 0.14389 0.23325 0.50146 0.0
H2227 H 0.12589 0.21903 0.49792 0.0
H2228 H 0.14294 0.22024 0.48199 0.0
H2229 H 0.09365 0.29351 0.48478 0.0
H2230 H 0.08759 0.27733 0.50054 0.0
H2231 H 0.10732 0.28919 0.50327 0.0
H2232 H 0.09024 0.23486 0.54248 0.0
H2233 H 0.13421 0.26837 0.54922 0.0
H2234 H 0.09525 0.22522 0.49913 0.0
H2235 H 0.0823 0.24447 0.49896 0.0
H2236 H 0.07865 0.22815 0.51533 0.0
H2237 H 0.15023 0.26474 0.50653 0.0
H2238 H 0.1509 0.27832 0.5256 0.0
H2239 H 0.13736 0.28398 0.50738 0.0
C2240 C 0.75394 0.10068 0.5366 0.0
C2241 C 0.74284 0.10927 0.54817 0.0
C2242 C 0.75177 0.10221 0.51859 0.0
C2243 C 0.73848 0.11301 0.51193 0.0
C2244 C 0.72736 0.12194 0.52354 0.0
C2245 C 0.7295 0.11975 0.54155 0.0
C2246 C 0.76367 0.09213 0.5067 0.0
C2247 C 0.71338 0.13395 0.51694 0.0
C2248 C 0.74784 0.1264 0.46553 0.0
C2249 C 0.73776 0.11452 0.45614 0.0
C2250 C 0.74715 0.12698 0.48372 0.0
C2251 C 0.73656 0.11499 0.49277 0.0
C2252 C 0.7257 0.10355 0.48331 0.0
C2253 C 0.72626 0.10363 0.46507 0.0
C2254 C 0.75852 0.13976 0.49326 0.0
C2255 C 0.71451 0.0903 0.49242 0.0
H2256 H 0.76415 0.09242 0.54164 0.0
H2257 H 0.72094 0.12647 0.55046 0.0
H2258 H 0.75591 0.08395 0.49775 0.0
H2259 H 0.77137 0.10122 0.49862 0.0
H2260 H 0.77278 0.08364 0.51397 0.0
H2261 H 0.70592 0.14007 0.52765 0.0
H2262 H 0.71928 0.14433 0.50889 0.0
H2263 H 0.70423 0.12673 0.5085 0.0
H2264 H 0.75669 0.1349 0.45863 0.0
H2265 H 0.71858 0.09431 0.45784 0.0
H2266 H 0.76952 0.13278 0.49939 0.0
H2267 H 0.75112 0.14623 0.50378 0.0
H2268 H 0.76388 0.14985 0.48446 0.0
H2269 H 0.72294 0.08038 0.49858 0.0
H2270 H 0.7055 0.08364 0.48335 0.0
H2271 H 0.70682 0.09647 0.50289 0.0
C2272 C 0.9056 0.75324 0.46971 0.0
C2273 C 0.89916 0.74136 0.45753 0.0
C2274 C 0.90477 0.74986 0.48754 0.0
C2275 C 0.89685 0.73438 0.49348 0.0
C2276 C 0.89033 0.72225 0.48128 0.0
C2277 C 0.89179 0.72578 0.46338 0.0
C2278 C 0.91226 0.763 0.50002 0.0
C2279 C 0.88144 0.70583 0.48713 0.0
C2280 C 0.9085 0.72468 0.54032 0.0
C2281 C 0.89568 0.73417 0.54907 0.0
C2282 C 0.9084 0.72347 0.5221 0.0
C2283 C 0.89494 0.73158 0.51254 0.0
C2284 C 0.88109 0.73967 0.5215 0.0
C2285 C 0.88178 0.74112 0.53964 0.0
C2286 C 0.92357 0.71496 0.5131 0.0
C2287 C 0.86623 0.74806 0.51188 0.0
H2288 H 0.91154 0.76519 0.46526 0.0
H2289 H 0.88677 0.71659 0.45399 0.0
H2290 H 0.90174 0.76861 0.50809 0.0
H2291 H 0.9216 0.75662 0.50893 0.0
H2292 H 0.91902 0.77378 0.49324 0.0
H2293 H 0.87789 0.69731 0.47606 0.0
H2294 H 0.88994 0.69846 0.49611 0.0
H2295 H 0.86946 0.70917 0.4944 0.0
H2296 H 0.91932 0.71939 0.54758 0.0
H2297 H 0.87176 0.74833 0.54641 0.0
H2298 H 0.93212 0.72515 0.50757 0.0
H2299 H 0.9191 0.7067 0.5022 0.0
H2300 H 0.93137 0.7069 0.52215 0.0
H2301 H 0.87071 0.76041 0.50597 0.0
H2302 H 0.85514 0.75099 0.52061 0.0
H2303 H 0.86163 0.73956 0.50121 0.0
C2304 C 0.24726 0.90853 0.4636 0.0
C2305 C 0.25617 0.89764 0.4521 0.0
C2306 C 0.24932 0.90687 0.4816 0.0
C2307 C 0.26004 0.89353 0.48832 0.0
C2308 C 0.26894 0.88235 0.47673 0.0
C2309 C 0.26716 0.88476 0.4587 0.0
C2310 C 0.24006 0.91947 0.49343 0.0
C2311 C 0.27999 0.86761 0.48339 0.0
C2312 C 0.27523 0.89999 0.5348 0.0
C2313 C 0.26189 0.8919 0.54416 0.0
C2314 C 0.27515 0.90013 0.51657 0.0
C2315 C 0.26173 0.89144 0.50749 0.0
C2316 C 0.24889 0.88225 0.51693 0.0
C2317 C 0.24891 0.88289 0.53515 0.0
C2318 C 0.28875 0.91057 0.50708 0.0
C2319 C 0.23471 0.87232 0.50777 0.0
H2320 H 0.23886 0.91859 0.45847 0.0
H2321 H 0.27393 0.87625 0.44977 0.0
H2322 H 0.23049 0.91244 0.50156 0.0
H2323 H 0.24949 0.92573 0.50233 0.0
H2324 H 0.23312 0.92977 0.4861 0.0
H2325 H 0.28592 0.85997 0.4727 0.0
H2326 H 0.29049 0.87269 0.4918 0.0
H2327 H 0.27196 0.8588 0.49147 0.0
H2328 H 0.28517 0.90713 0.54174 0.0
H2329 H 0.23864 0.87655 0.54238 0.0
H2330 H 0.28249 0.92185 0.50066 0.0
H2331 H 0.29492 0.90267 0.49676 0.0
H2332 H 0.29903 0.91546 0.51592 0.0
H2333 H 0.2255 0.88155 0.50167 0.0
H2334 H 0.22733 0.86385 0.51681 0.0
H2335 H 0.24026 0.86417 0.49727 0.0
C2336 C 0.10009 0.75807 0.53869 0.0
C2337 C 0.10964 0.74817 0.55055 0.0
C2338 C 0.10176 0.75546 0.52079 0.0
C2339 C 0.11376 0.74302 0.51454 0.0
C2340 C 0.12366 0.73312 0.52646 0.0
C2341 C 0.12124 0.73559 0.5444 0.0
C2342 C 0.09056 0.76595 0.50857 0.0
C2343 C 0.13697 0.72016 0.52026 0.0
C2344 C 0.10458 0.72866 0.46841 0.0
C2345 C 0.11391 0.74105 0.45893 0.0
C2346 C 0.10514 0.72846 0.48662 0.0
C2347 C 0.11572 0.74061 0.49547 0.0
C2348 C 0.12631 0.75215 0.48585 0.0
C2349 C 0.12503 0.75246 0.46769 0.0
C2350 C 0.09328 0.71626 0.49635 0.0
C2351 C 0.1382 0.7649 0.49477 0.0
H2352 H 0.09095 0.76766 0.54344 0.0
H2353 H 0.12869 0.72799 0.55361 0.0
H2354 H 0.09884 0.77426 0.50024 0.0
H2355 H 0.08317 0.75716 0.49989 0.0
H2356 H 0.08121 0.77439 0.51559 0.0
H2357 H 0.14376 0.71365 0.53118 0.0
H2358 H 0.13067 0.71011 0.51211 0.0
H2359 H 0.14674 0.72679 0.51202 0.0
H2360 H 0.09587 0.71991 0.46165 0.0
H2361 H 0.13237 0.76196 0.46034 0.0
H2362 H 0.08263 0.72382 0.50241 0.0
H2363 H 0.10038 0.7096 0.50694 0.0
H2364 H 0.08747 0.7063 0.4877 0.0
H2365 H 0.13039 0.77549 0.5006 0.0
H2366 H 0.14765 0.77077 0.48559 0.0
H2367 H 0.14544 0.75848 0.50543 0.0
C2368 C 0.24943 0.09952 0.46453 0.0
C2369 C 0.25995 0.10972 0.45376 0.0
C2370 C 0.25076 0.10051 0.48264 0.0
C2371 C 0.26248 0.11245 0.49022 0.0
C2372 C 0.27298 0.123 0.47941 0.0
C2373 C 0.27182 0.12127 0.46126 0.0
C2374 C 0.23969 0.08863 0.49364 0.0
C2375 C 0.28521 0.13626 0.48702 0.0
C2376 C 0.25029 0.1226 0.53682 0.0
C2377 C 0.26165 0.11181 0.54603 0.0
C2378 C 0.2513 0.12395 0.51867 0.0
C2379 C 0.26353 0.11374 0.50949 0.0
C2380 C 0.27543 0.10327 0.51881 0.0
C2381 C 0.27453 0.10266 0.53701 0.0
C2382 C 0.23875 0.13571 0.50928 0.0
C2383 C 0.28831 0.09179 0.50954 0.0
H2384 H 0.24038 0.09042 0.45876 0.0
H2385 H 0.27989 0.12923 0.45292 0.0
H2386 H 0.24801 0.08104 0.50262 0.0
H2387 H 0.23066 0.09641 0.50171 0.0
H2388 H 0.23193 0.07944 0.4857 0.0
H2389 H 0.29226 0.14366 0.47685 0.0
H2390 H 0.27785 0.14552 0.49523 0.0
H2391 H 0.29485 0.1298 0.49552 0.0
H2392 H 0.24041 0.12979 0.5438 0.0
H2393 H 0.28323 0.09419 0.54411 0.0
H2394 H 0.2289 0.12776 0.50243 0.0
H2395 H 0.24566 0.14353 0.49936 0.0
H2396 H 0.23191 0.14463 0.51831 0.0
H2397 H 0.28124 0.08142 0.50247 0.0
H2398 H 0.29762 0.08558 0.51863 0.0
H2399 H 0.29572 0.09932 0.49978 0.0
C2400 C 0.9086 0.25119 0.53291 0.0
C2401 C 0.89974 0.26216 0.54438 0.0
C2402 C 0.90777 0.2537 0.51494 0.0
C2403 C 0.89735 0.26722 0.50814 0.0
C2404 C 0.88842 0.27847 0.51966 0.0
C2405 C 0.88995 0.27597 0.53772 0.0
C2406 C 0.91789 0.24167 0.5032 0.0
C2407 C 0.87684 0.29273 0.5129 0.0
C2408 C 0.90741 0.27779 0.46105 0.0
C2409 C 0.8965 0.26607 0.45243 0.0
C2410 C 0.90718 0.27912 0.47925 0.0
C2411 C 0.89541 0.26884 0.48896 0.0
C2412 C 0.88339 0.25809 0.48014 0.0
C2413 C 0.88428 0.25661 0.46201 0.0
C2414 C 0.92047 0.29044 0.48811 0.0
C2415 C 0.87029 0.24728 0.48992 0.0
H2416 H 0.91638 0.24064 0.53804 0.0
H2417 H 0.88304 0.28442 0.54659 0.0
H2418 H 0.90881 0.23381 0.49528 0.0
H2419 H 0.92605 0.2493 0.49411 0.0
H2420 H 0.92641 0.2327 0.5106 0.0
H2421 H 0.87153 0.30092 0.52351 0.0
H2422 H 0.88408 0.30113 0.50372 0.0
H2423 H 0.86586 0.28695 0.50561 0.0
H2424 H 0.91695 0.28504 0.45366 0.0
H2425 H 0.87571 0.24766 0.45535 0.0
H2426 H 0.93046 0.28209 0.49428 0.0
H2427 H 0.91439 0.29827 0.49854 0.0
H2428 H 0.92704 0.29933 0.47885 0.0
H2429 H 0.877 0.23632 0.49642 0.0
H2430 H 0.86017 0.24187 0.4812 0.0
H2431 H 0.86389 0.25513 0.50016 0.0
C2432 C 0.73156 0.88899 0.46646 0.0
C2433 C 0.74481 0.89916 0.45924 0.0
C2434 C 0.72977 0.8874 0.48458 0.0
C2435 C 0.74117 0.89663 0.49566 0.0
C2436 C 0.7544 0.90711 0.48838 0.0
C2437 C 0.7562 0.90804 0.4703 0.0
C2438 C 0.71584 0.87572 0.49186 0.0
C2439 C 0.7666 0.91748 0.49969 0.0
C2440 C 0.72967 0.90735 0.54245 0.0
C2441 C 0.74111 0.8965 0.55151 0.0
C2442 C 0.72898 0.90706 0.52421 0.0
C2443 C 0.73963 0.89529 0.5149 0.0
C2444 C 0.75026 0.88347 0.52411 0.0
C2445 C 0.7511 0.88442 0.54228 0.0
C2446 C 0.71778 0.92016 0.5149 0.0
C2447 C 0.76142 0.87036 0.51474 0.0
H2448 H 0.72276 0.88206 0.45795 0.0
H2449 H 0.76634 0.91609 0.46479 0.0
H2450 H 0.72182 0.8656 0.50018 0.0
H2451 H 0.70687 0.8833 0.50018 0.0
H2452 H 0.70817 0.86926 0.4815 0.0
H2453 H 0.77563 0.92565 0.49197 0.0
H2454 H 0.75907 0.92603 0.5085 0.0
H2455 H 0.77438 0.90862 0.50792 0.0
H2456 H 0.72204 0.91679 0.54955 0.0
H2457 H 0.75985 0.87592 0.54929 0.0
H2458 H 0.70972 0.91371 0.50489 0.0
H2459 H 0.72619 0.92969 0.50814 0.0
H2460 H 0.70911 0.9273 0.52394 0.0
H2461 H 0.75376 0.86354 0.50464 0.0
H2462 H 0.76699 0.86058 0.52374 0.0
H2463 H 0.77226 0.87712 0.5081 0.0
C2464 C 0.46826 0.09735 0.24334 0.0
C2465 C 0.45793 0.10744 0.25441 0.0
C2466 C 0.48642 0.09794 0.24428 0.0
C2467 C 0.49452 0.10925 0.25629 0.0
C2468 C 0.48419 0.11978 0.26725 0.0
C2469 C 0.46599 0.11858 0.26634 0.0
C2470 C 0.49694 0.08625 0.23257 0.0
C2471 C 0.49235 0.13231 0.27989 0.0
C2472 C 0.54118 0.09785 0.26757 0.0
C2473 C 0.55033 0.10752 0.25518 0.0
C2474 C 0.52298 0.09874 0.26855 0.0
C2475 C 0.51383 0.10994 0.25718 0.0
C2476 C 0.52315 0.12058 0.24546 0.0
C2477 C 0.54127 0.11904 0.24442 0.0
C2478 C 0.51352 0.08691 0.28097 0.0
C2479 C 0.51394 0.13305 0.23348 0.0
H2480 H 0.46213 0.08858 0.23421 0.0
H2481 H 0.45806 0.12645 0.27489 0.0
H2482 H 0.50533 0.09416 0.22397 0.0
H2483 H 0.50559 0.07788 0.24049 0.0
H2484 H 0.48864 0.07781 0.22435 0.0
H2485 H 0.48251 0.13999 0.2871 0.0
H2486 H 0.50045 0.12515 0.28938 0.0
H2487 H 0.50105 0.14139 0.27286 0.0
H2488 H 0.54815 0.08883 0.27582 0.0
H2489 H 0.54834 0.12665 0.23492 0.0
H2490 H 0.50606 0.07712 0.2735 0.0
H2491 H 0.50408 0.09438 0.28885 0.0
H2492 H 0.52253 0.08001 0.28985 0.0
H2493 H 0.50671 0.12567 0.22345 0.0
H2494 H 0.52312 0.14196 0.22683 0.0
H2495 H 0.50435 0.1409 0.2408 0.0
C2496 C 0.90086 0.53791 0.27467 0.0
C2497 C 0.89266 0.54773 0.26173 0.0
C2498 C 0.89973 0.51972 0.27473 0.0
C2499 C 0.88972 0.51123 0.26187 0.0
C2500 C 0.88033 0.52121 0.24962 0.0
C2501 C 0.88218 0.53933 0.24948 0.0
C2502 C 0.91036 0.5096 0.28771 0.0
C2503 C 0.86906 0.51269 0.23604 0.0
C2504 C 0.90452 0.46726 0.24559 0.0
C2505 C 0.89373 0.45588 0.25478 0.0
C2506 C 0.90355 0.48522 0.24812 0.0
C2507 C 0.89103 0.49207 0.2597 0.0
C2508 C 0.87993 0.48064 0.26892 0.0
C2509 C 0.88164 0.46259 0.26658 0.0
C2510 C 0.91601 0.49686 0.23842 0.0
C2511 C 0.86608 0.48749 0.28093 0.0
H2512 H 0.90907 0.54438 0.28409 0.0
H2513 H 0.8757 0.54693 0.23957 0.0
H2514 H 0.90239 0.4994 0.29398 0.0
H2515 H 0.92119 0.503 0.28088 0.0
H2516 H 0.91593 0.51807 0.29796 0.0
H2517 H 0.8605 0.5222 0.2294 0.0
H2518 H 0.87739 0.5064 0.22613 0.0
H2519 H 0.86089 0.50243 0.24198 0.0
H2520 H 0.91402 0.46206 0.2366 0.0
H2521 H 0.87324 0.45376 0.27361 0.0
H2522 H 0.92311 0.50529 0.24768 0.0
H2523 H 0.90873 0.50546 0.22948 0.0
H2524 H 0.92563 0.48938 0.23072 0.0
H2525 H 0.872 0.49557 0.29126 0.0
H2526 H 0.85849 0.47691 0.28712 0.0
H2527 H 0.85705 0.49597 0.27358 0.0
C2528 C 0.53768 0.87761 0.2517 0.0
C2529 C 0.54627 0.88859 0.26338 0.0
C2530 C 0.5195 0.87631 0.25167 0.0
C2531 C 0.50965 0.88674 0.26317 0.0
C2532 C 0.51831 0.89728 0.27551 0.0
C2533 C 0.53653 0.89787 0.27563 0.0
C2534 C 0.51082 0.86448 0.2387 0.0
C2535 C 0.50834 0.90894 0.28769 0.0
C2536 C 0.46585 0.90163 0.24627 0.0
C2537 C 0.45427 0.89177 0.25624 0.0
C2538 C 0.48384 0.90023 0.2486 0.0
C2539 C 0.4905 0.88825 0.26084 0.0
C2540 C 0.47889 0.87797 0.27073 0.0
C2541 C 0.46086 0.88007 0.26852 0.0
C2542 C 0.4957 0.9118 0.2381 0.0
C2543 C 0.4855 0.86468 0.2835 0.0
H2544 H 0.54519 0.87033 0.24228 0.0
H2545 H 0.54312 0.9065 0.28457 0.0
H2546 H 0.50033 0.8569 0.24501 0.0
H2547 H 0.50479 0.87235 0.22826 0.0
H2548 H 0.52017 0.85532 0.23264 0.0
H2549 H 0.51688 0.91505 0.29757 0.0
H2550 H 0.50192 0.91937 0.28012 0.0
H2551 H 0.498 0.90157 0.29446 0.0
H2552 H 0.46081 0.91084 0.2369 0.0
H2553 H 0.45194 0.87237 0.2762 0.0
H2554 H 0.50428 0.90378 0.22978 0.0
H2555 H 0.50417 0.91943 0.2469 0.0
H2556 H 0.48841 0.92094 0.22967 0.0
H2557 H 0.49421 0.85537 0.27679 0.0
H2558 H 0.4748 0.85733 0.28977 0.0
H2559 H 0.49327 0.87113 0.29375 0.0
C2560 C 0.1249 0.53945 0.25911 0.0
C2561 C 0.11204 0.54915 0.26755 0.0
C2562 C 0.12561 0.52134 0.26081 0.0
C2563 C 0.11279 0.51269 0.27074 0.0
C2564 C 0.10042 0.52252 0.28015 0.0
C2565 C 0.10034 0.5407 0.27862 0.0
C2566 C 0.13933 0.51141 0.25097 0.0
C2567 C 0.08633 0.51382 0.29061 0.0
C2568 C 0.09964 0.46883 0.25279 0.0
C2569 C 0.1073 0.45731 0.26458 0.0
C2570 C 0.10102 0.48682 0.25496 0.0
C2571 C 0.11073 0.49354 0.26903 0.0
C2572 C 0.11864 0.48199 0.28096 0.0
C2573 C 0.11662 0.46396 0.27873 0.0
C2574 C 0.09204 0.49864 0.24213 0.0
C2575 C 0.12947 0.48867 0.29584 0.0
H2576 H 0.13406 0.54599 0.25066 0.0
H2577 H 0.0903 0.54817 0.28506 0.0
H2578 H 0.145 0.50106 0.25922 0.0
H2579 H 0.13337 0.50505 0.23951 0.0
H2580 H 0.14994 0.52001 0.24636 0.0
H2581 H 0.07928 0.52317 0.29902 0.0
H2582 H 0.07685 0.50773 0.28164 0.0
H2583 H 0.09178 0.50337 0.29885 0.0
H2584 H 0.09223 0.46377 0.24195 0.0
H2585 H 0.1226 0.45508 0.28785 0.0
H2586 H 0.10181 0.50646 0.23502 0.0
H2587 H 0.0834 0.50782 0.24909 0.0
H2588 H 0.08418 0.49133 0.23251 0.0
H2589 H 0.1406 0.49624 0.29071 0.0
H2590 H 0.13454 0.47802 0.30412 0.0
H2591 H 0.12169 0.49758 0.30403 0.0
C2592 C 0.45877 0.88224 0.74205 0.0
C2593 C 0.45166 0.89552 0.75223 0.0
C2594 C 0.47684 0.87973 0.74124 0.0
C2595 C 0.488 0.89123 0.75026 0.0
C2596 C 0.48082 0.90479 0.76038 0.0
C2597 C 0.46274 0.90655 0.7615 0.0
C2598 C 0.48398 0.86475 0.73083 0.0
C2599 C 0.49222 0.9177 0.76973 0.0
C2600 C 0.53493 0.88143 0.76183 0.0
C2601 C 0.54385 0.89009 0.74857 0.0
C2602 C 0.51671 0.88071 0.76193 0.0
C2603 C 0.50722 0.88951 0.74886 0.0
C2604 C 0.51622 0.89796 0.73524 0.0
C2605 C 0.53444 0.89787 0.73509 0.0
C2606 C 0.50761 0.87102 0.77631 0.0
C2607 C 0.50666 0.908 0.72138 0.0
H2608 H 0.45018 0.87363 0.73498 0.0
H2609 H 0.45724 0.91693 0.76925 0.0
H2610 H 0.49199 0.8697 0.71994 0.0
H2611 H 0.49258 0.85669 0.73911 0.0
H2612 H 0.47355 0.85639 0.72544 0.0
H2613 H 0.48458 0.92784 0.77655 0.0
H2614 H 0.50045 0.91093 0.77939 0.0
H2615 H 0.50105 0.92413 0.76034 0.0
H2616 H 0.54222 0.87532 0.7722 0.0
H2617 H 0.54133 0.90475 0.72493 0.0
H2618 H 0.49734 0.8625 0.7709 0.0
H2619 H 0.50121 0.88037 0.78518 0.0
H2620 H 0.51674 0.86296 0.78403 0.0
H2621 H 0.4968 0.89967 0.71503 0.0
H2622 H 0.51553 0.91317 0.71126 0.0
H2623 H 0.49966 0.91904 0.72742 0.0
C2624 C 0.0993 0.46372 0.74909 0.0
C2625 C 0.10908 0.45183 0.73943 0.0
C2626 C 0.10065 0.48159 0.74615 0.0
C2627 C 0.11253 0.48784 0.73359 0.0
C2628 C 0.12248 0.47589 0.72374 0.0
C2629 C 0.12041 0.45794 0.72658 0.0
C2630 C 0.0894 0.49379 0.7566 0.0
C2631 C 0.13563 0.48208 0.71062 0.0
C2632 C 0.10334 0.53423 0.71996 0.0
C2633 C 0.11272 0.54349 0.73249 0.0
C2634 C 0.10396 0.51602 0.71939 0.0
C2635 C 0.1146 0.50694 0.73132 0.0
C2636 C 0.12527 0.51637 0.74295 0.0
C2637 C 0.12396 0.53452 0.74362 0.0
C2638 C 0.09205 0.50651 0.70709 0.0
C2639 C 0.13721 0.50724 0.75551 0.0
H2640 H 0.09038 0.45899 0.7589 0.0
H2641 H 0.12804 0.44873 0.71918 0.0
H2642 H 0.09766 0.50203 0.76504 0.0
H2643 H 0.08211 0.50256 0.74782 0.0
H2644 H 0.07997 0.48677 0.76494 0.0
H2645 H 0.14189 0.47116 0.7036 0.0
H2646 H 0.1294 0.4908 0.70102 0.0
H2647 H 0.14585 0.48973 0.71729 0.0
H2648 H 0.09454 0.54113 0.71142 0.0
H2649 H 0.13133 0.54168 0.75323 0.0
H2650 H 0.08124 0.50062 0.71456 0.0
H2651 H 0.09902 0.49581 0.70045 0.0
H2652 H 0.08644 0.51529 0.69712 0.0
H2653 H 0.12943 0.50129 0.76607 0.0
H2654 H 0.14671 0.5163 0.76145 0.0
H2655 H 0.14438 0.49665 0.7489 0.0
C2656 C 0.4633 0.1216 0.75298 0.0
C2657 C 0.4535 0.11005 0.74291 0.0
C2658 C 0.48142 0.12242 0.75134 0.0
C2659 C 0.49002 0.111 0.73979 0.0
C2660 C 0.48011 0.09987 0.72901 0.0
C2661 C 0.46192 0.09971 0.73054 0.0
C2662 C 0.49143 0.13484 0.76272 0.0
C2663 C 0.48874 0.08719 0.71683 0.0
C2664 C 0.53858 0.11661 0.73147 0.0
C2665 C 0.54561 0.1059 0.74439 0.0
C2666 C 0.52046 0.11849 0.72974 0.0
C2667 C 0.50924 0.109 0.74083 0.0
C2668 C 0.51637 0.09778 0.7535 0.0
C2669 C 0.53441 0.09658 0.75528 0.0
C2670 C 0.51334 0.13092 0.7164 0.0
C2671 C 0.50494 0.08706 0.7653 0.0
H2672 H 0.4568 0.12975 0.76243 0.0
H2673 H 0.45439 0.09069 0.7228 0.0
H2674 H 0.49817 0.12749 0.7731 0.0
H2675 H 0.5015 0.14171 0.75504 0.0
H2676 H 0.48284 0.14461 0.76892 0.0
H2677 H 0.47929 0.08096 0.7079 0.0
H2678 H 0.49888 0.09374 0.709 0.0
H2679 H 0.49524 0.07689 0.72451 0.0
H2680 H 0.54722 0.12386 0.72307 0.0
H2681 H 0.5398 0.0881 0.76513 0.0
H2682 H 0.50594 0.14136 0.723 0.0
H2683 H 0.50418 0.12412 0.70764 0.0
H2684 H 0.52375 0.13694 0.70845 0.0
H2685 H 0.4972 0.09573 0.7738 0.0
H2686 H 0.51254 0.07811 0.77366 0.0
H2687 H 0.49567 0.07929 0.7575 0.0
C2688 C 0.8783 0.53655 0.75242 0.0
C2689 C 0.89001 0.5458 0.74203 0.0
C2690 C 0.87737 0.51839 0.75161 0.0
C2691 C 0.88885 0.50924 0.74056 0.0
C2692 C 0.90009 0.51858 0.72939 0.0
C2693 C 0.90036 0.5368 0.73008 0.0
C2694 C 0.86481 0.50897 0.76334 0.0
C2695 C 0.91279 0.50934 0.71768 0.0
C2696 C 0.90339 0.46505 0.75668 0.0
C2697 C 0.89439 0.45377 0.74562 0.0
C2698 C 0.9018 0.48309 0.755 0.0
C2699 C 0.89056 0.49007 0.74224 0.0
C2700 C 0.88112 0.47875 0.73127 0.0
C2701 C 0.88333 0.46071 0.73293 0.0
C2702 C 0.91238 0.49469 0.76674 0.0
C2703 C 0.86866 0.4857 0.71786 0.0
H2704 H 0.87021 0.54352 0.7616 0.0
H2705 H 0.90954 0.54392 0.72215 0.0
H2706 H 0.85793 0.49861 0.75608 0.0
H2707 H 0.87204 0.50266 0.77406 0.0
H2708 H 0.85505 0.51789 0.76908 0.0
H2709 H 0.91935 0.51837 0.70856 0.0
H2710 H 0.92283 0.50286 0.72571 0.0
H2711 H 0.90614 0.49911 0.71006 0.0
H2712 H 0.91209 0.45977 0.7664 0.0
H2713 H 0.87629 0.45202 0.7244 0.0
H2714 H 0.90365 0.50288 0.77473 0.0
H2715 H 0.92053 0.50355 0.75884 0.0
H2716 H 0.92097 0.48721 0.77557 0.0
H2717 H 0.85881 0.49407 0.7242 0.0
H2718 H 0.86188 0.47517 0.71072 0.0
H2719 H 0.87572 0.49388 0.70835 0.0
C2720 C 0.27406 0.53876 0.09778 0.0
C2721 C 0.26187 0.54829 0.10734 0.0
C2722 C 0.27428 0.52053 0.09842 0.0
C2723 C 0.26238 0.51169 0.10931 0.0
C2724 C 0.25086 0.52136 0.11989 0.0
C2725 C 0.25052 0.53953 0.11853 0.0
C2726 C 0.28643 0.51075 0.08656 0.0
C2727 C 0.23835 0.51248 0.13207 0.0
C2728 C 0.24599 0.46719 0.09602 0.0
C2729 C 0.25631 0.4561 0.10607 0.0
C2730 C 0.24817 0.48524 0.09669 0.0
C2731 C 0.26058 0.49245 0.10817 0.0
C2732 C 0.27094 0.48131 0.11851 0.0
C2733 C 0.2689 0.4632 0.1171 0.0
C2734 C 0.2372 0.49657 0.08505 0.0
C2735 C 0.28391 0.48853 0.13128 0.0
H2736 H 0.28275 0.5455 0.089 0.0
H2737 H 0.24117 0.54689 0.12604 0.0
H2738 H 0.29368 0.50072 0.0939 0.0
H2739 H 0.27876 0.50394 0.07645 0.0
H2740 H 0.29588 0.51947 0.08005 0.0
H2741 H 0.2321 0.52179 0.14114 0.0
H2742 H 0.22803 0.50593 0.12447 0.0
H2743 H 0.24513 0.50237 0.13975 0.0
H2744 H 0.23638 0.46171 0.08733 0.0
H2745 H 0.27681 0.45462 0.12495 0.0
H2746 H 0.24564 0.50518 0.07716 0.0
H2747 H 0.2287 0.50502 0.09302 0.0
H2748 H 0.22889 0.48886 0.07614 0.0
H2749 H 0.29356 0.49674 0.12444 0.0
H2750 H 0.29092 0.47815 0.13841 0.0
H2751 H 0.27716 0.49695 0.14082 0.0
C2752 C 0.24263 0.54012 0.88277 0.0
C2753 C 0.25338 0.54952 0.89404 0.0
C2754 C 0.24378 0.52197 0.88164 0.0
C2755 C 0.25559 0.51296 0.89245 0.0
C2756 C 0.26688 0.52244 0.90345 0.0
C2757 C 0.26581 0.54065 0.90392 0.0
C2758 C 0.23186 0.51242 0.86938 0.0
C2759 C 0.27938 0.51332 0.91546 0.0
C2760 C 0.24217 0.46741 0.90565 0.0
C2761 C 0.25334 0.45706 0.89569 0.0
C2762 C 0.24298 0.48558 0.90486 0.0
C2763 C 0.25493 0.49365 0.89346 0.0
C2764 C 0.26602 0.48327 0.88309 0.0
C2765 C 0.26527 0.46508 0.88452 0.0
C2766 C 0.23118 0.49613 0.91642 0.0
C2767 C 0.27858 0.49139 0.87044 0.0
H2768 H 0.23312 0.54696 0.87498 0.0
H2769 H 0.27405 0.54787 0.91274 0.0
H2770 H 0.23929 0.5028 0.86165 0.0
H2771 H 0.22197 0.50517 0.87692 0.0
H2772 H 0.22505 0.52136 0.86035 0.0
H2773 H 0.28813 0.52255 0.92226 0.0
H2774 H 0.27197 0.50591 0.92535 0.0
H2775 H 0.2874 0.50388 0.90816 0.0
H2776 H 0.23306 0.4613 0.91446 0.0
H2777 H 0.27389 0.45712 0.87676 0.0
H2778 H 0.22244 0.50428 0.9084 0.0
H2779 H 0.239 0.50502 0.92462 0.0
H2780 H 0.22309 0.48786 0.92503 0.0
H2781 H 0.27145 0.4998 0.86118 0.0
H2782 H 0.28597 0.48151 0.86298 0.0
H2783 H 0.28792 0.49977 0.87747 0.0
C2784 C 0.46218 0.25148 0.88164 0.0
C2785 C 0.45439 0.26302 0.89335 0.0
C2786 C 0.48025 0.25118 0.87937 0.0
C2787 C 0.4908 0.26229 0.8895 0.0
C2788 C 0.48294 0.27451 0.90078 0.0
C2789 C 0.46477 0.2749 0.90238 0.0
C2790 C 0.48807 0.23835 0.8668 0.0
C2791 C 0.49372 0.28632 0.9121 0.0
C2792 C 0.53536 0.24507 0.90154 0.0
C2793 C 0.54633 0.25531 0.89127 0.0
C2794 C 0.5173 0.24731 0.90111 0.0
C2795 C 0.50997 0.25978 0.88976 0.0
C2796 C 0.52095 0.26979 0.87895 0.0
C2797 C 0.53904 0.26763 0.88002 0.0
C2798 C 0.50611 0.23661 0.91313 0.0
C2799 C 0.51358 0.28281 0.86631 0.0
H2800 H 0.45414 0.24236 0.87455 0.0
H2801 H 0.45878 0.28372 0.91156 0.0
H2802 H 0.49814 0.24471 0.85871 0.0
H2803 H 0.49447 0.22774 0.87412 0.0
H2804 H 0.47813 0.23254 0.85813 0.0
H2805 H 0.48567 0.29607 0.91902 0.0
H2806 H 0.50077 0.27844 0.92187 0.0
H2807 H 0.50359 0.29322 0.90423 0.0
H2808 H 0.54093 0.23566 0.9104 0.0
H2809 H 0.54749 0.27553 0.87202 0.0
H2810 H 0.49687 0.22865 0.90548 0.0
H2811 H 0.49832 0.24527 0.92159 0.0
H2812 H 0.51388 0.2278 0.92149 0.0
H2813 H 0.50399 0.27641 0.85768 0.0
H2814 H 0.5238 0.2889 0.85816 0.0
H2815 H 0.50662 0.29319 0.87345 0.0
C2816 C 0.72971 0.54071 0.88878 0.0
C2817 C 0.74385 0.54686 0.89846 0.0
C2818 C 0.72724 0.52281 0.88612 0.0
C2819 C 0.73889 0.51081 0.89376 0.0
C2820 C 0.75302 0.517 0.90376 0.0
C2821 C 0.75546 0.53492 0.90577 0.0
C2822 C 0.71233 0.51673 0.87498 0.0
C2823 C 0.76555 0.50468 0.91247 0.0
C2824 C 0.72713 0.46371 0.90242 0.0
C2825 C 0.73775 0.45515 0.89039 0.0
C2826 C 0.72666 0.48193 0.90315 0.0
C2827 C 0.73666 0.49176 0.89124 0.0
C2828 C 0.74625 0.48312 0.87815 0.0
C2829 C 0.7469 0.46492 0.87807 0.0
C2830 C 0.71656 0.4906 0.91752 0.0
C2831 C 0.75667 0.49307 0.86488 0.0
H2832 H 0.72075 0.5499 0.88304 0.0
H2833 H 0.7663 0.5396 0.91342 0.0
H2834 H 0.71736 0.50905 0.86388 0.0
H2835 H 0.70369 0.50808 0.88257 0.0
H2836 H 0.70452 0.5277 0.86984 0.0
H2837 H 0.77534 0.51157 0.92049 0.0
H2838 H 0.75835 0.49549 0.9209 0.0
H2839 H 0.77246 0.4969 0.90253 0.0
H2840 H 0.72019 0.45618 0.91207 0.0
H2841 H 0.75506 0.45831 0.86869 0.0
H2842 H 0.70854 0.50136 0.91234 0.0
H2843 H 0.72576 0.4963 0.92703 0.0
H2844 H 0.70796 0.48134 0.92447 0.0
H2845 H 0.74887 0.50386 0.85939 0.0
H2846 H 0.76115 0.48463 0.85409 0.0
H2847 H 0.76823 0.49886 0.8712 0.0
C2848 C 0.46431 0.72451 0.89693 0.0
C2849 C 0.45506 0.73647 0.88683 0.0
C2850 C 0.48253 0.72395 0.89639 0.0
C2851 C 0.49163 0.73528 0.88511 0.0
C2852 C 0.48222 0.74629 0.8738 0.0
C2853 C 0.46406 0.74697 0.87501 0.0
C2854 C 0.49204 0.71229 0.90894 0.0
C2855 C 0.49137 0.75818 0.8612 0.0
C2856 C 0.53528 0.75268 0.89973 0.0
C2857 C 0.54695 0.74204 0.89071 0.0
C2858 C 0.51732 0.75039 0.89816 0.0
C2859 C 0.51077 0.73745 0.88688 0.0
C2860 C 0.52247 0.72685 0.87745 0.0
C2861 C 0.54047 0.72909 0.87969 0.0
C2862 C 0.50534 0.76173 0.90878 0.0
C2863 C 0.51597 0.71327 0.86493 0.0
H2864 H 0.45739 0.71648 0.90618 0.0
H2865 H 0.45691 0.75614 0.86709 0.0
H2866 H 0.5025 0.70504 0.90224 0.0
H2867 H 0.49825 0.72035 0.91914 0.0
H2868 H 0.48321 0.70285 0.91533 0.0
H2869 H 0.4823 0.76368 0.85143 0.0
H2870 H 0.49741 0.76908 0.8684 0.0
H2871 H 0.50189 0.75116 0.85433 0.0
H2872 H 0.54022 0.76258 0.90842 0.0
H2873 H 0.54946 0.72088 0.87265 0.0
H2874 H 0.49661 0.75354 0.91678 0.0
H2875 H 0.49704 0.76962 0.90006 0.0
H2876 H 0.51254 0.77065 0.91751 0.0
H2877 H 0.50789 0.70361 0.87189 0.0
H2878 H 0.52674 0.70637 0.85829 0.0
H2879 H 0.50759 0.71943 0.85497 0.0
C2880 C 0.73069 0.54257 0.1003 0.0
C2881 C 0.74149 0.55129 0.11205 0.0
C2882 C 0.73005 0.52434 0.09997 0.0
C2883 C 0.74013 0.51468 0.11196 0.0
C2884 C 0.74996 0.52351 0.12472 0.0
C2885 C 0.75072 0.54169 0.12444 0.0
C2886 C 0.71964 0.51545 0.08596 0.0
C2887 C 0.76049 0.51374 0.13804 0.0
C2888 C 0.73235 0.46599 0.11572 0.0
C2889 C 0.74607 0.45933 0.10575 0.0
C2890 C 0.73033 0.48397 0.11807 0.0
C2891 C 0.74203 0.49555 0.1099 0.0
C2892 C 0.75583 0.48887 0.09975 0.0
C2893 C 0.7578 0.47087 0.09799 0.0
C2894 C 0.71574 0.49059 0.12935 0.0
C2895 C 0.76843 0.50075 0.09056 0.0
H2896 H 0.72366 0.54995 0.0906 0.0
H2897 H 0.759 0.54842 0.13362 0.0
H2898 H 0.72862 0.50929 0.07653 0.0
H2899 H 0.71148 0.50501 0.09157 0.0
H2900 H 0.71114 0.52466 0.07883 0.0
H2901 H 0.76531 0.52238 0.14852 0.0
H2902 H 0.75264 0.50322 0.14396 0.0
H2903 H 0.77183 0.50759 0.13165 0.0
H2904 H 0.72328 0.45712 0.1218 0.0
H2905 H 0.76832 0.46582 0.09013 0.0
H2906 H 0.70696 0.49898 0.12163 0.0
H2907 H 0.72107 0.49868 0.14 0.0
H2908 H 0.708 0.47988 0.13512 0.0
H2909 H 0.76126 0.50977 0.08192 0.0
H2910 H 0.77806 0.4935 0.08267 0.0
H2911 H 0.77553 0.50877 0.10018 0.0
C2912 C 0.53917 0.75815 0.12227 0.0
C2913 C 0.54828 0.74611 0.11213 0.0
C2914 C 0.52102 0.75736 0.1237 0.0
C2915 C 0.51175 0.74462 0.11426 0.0
C2916 C 0.52096 0.73198 0.10459 0.0
C2917 C 0.53916 0.73273 0.10386 0.0
C2918 C 0.51174 0.77074 0.1346 0.0
C2919 C 0.51158 0.71846 0.09396 0.0
C2920 C 0.46327 0.73769 0.12158 0.0
C2921 C 0.45617 0.7488 0.10906 0.0
C2922 C 0.48137 0.73637 0.12372 0.0
C2923 C 0.49253 0.74594 0.11265 0.0
C2924 C 0.48535 0.75695 0.09981 0.0
C2925 C 0.4673 0.75845 0.09838 0.0
C2926 C 0.48856 0.72493 0.13789 0.0
C2927 C 0.49673 0.76702 0.08742 0.0
H2928 H 0.54622 0.76841 0.12882 0.0
H2929 H 0.54618 0.72347 0.09591 0.0
H2930 H 0.50516 0.78023 0.12601 0.0
H2931 H 0.50161 0.76449 0.14271 0.0
H2932 H 0.5208 0.77792 0.1432 0.0
H2933 H 0.52057 0.70857 0.08858 0.0
H2934 H 0.50158 0.71181 0.10188 0.0
H2935 H 0.50479 0.72489 0.083 0.0
H2936 H 0.45467 0.73027 0.12989 0.0
H2937 H 0.46185 0.76689 0.08852 0.0
H2938 H 0.49688 0.73272 0.14669 0.0
H2939 H 0.49686 0.71465 0.1322 0.0
H2940 H 0.47815 0.71869 0.14567 0.0
H2941 H 0.50491 0.77634 0.09473 0.0
H2942 H 0.48907 0.77437 0.07766 0.0
H2943 H 0.5056 0.75805 0.08047 0.0
C2944 C 0.5358 0.25436 0.0976 0.0
C2945 C 0.54776 0.26533 0.10581 0.0
C2946 C 0.51791 0.2567 0.09968 0.0
C2947 C 0.51172 0.27005 0.11068 0.0
C2948 C 0.52371 0.28129 0.11895 0.0
C2949 C 0.54165 0.27895 0.1162 0.0
C2950 C 0.50562 0.24468 0.09022 0.0
C2951 C 0.51763 0.29537 0.13111 0.0
C2952 C 0.46408 0.28008 0.10324 0.0
C2953 C 0.4562 0.26803 0.11437 0.0
C2954 C 0.48224 0.28179 0.10267 0.0
C2955 C 0.49267 0.27154 0.11381 0.0
C2956 C 0.48463 0.26055 0.12617 0.0
C2957 C 0.46651 0.25871 0.1261 0.0
C2958 C 0.49024 0.29339 0.08906 0.0
C2959 C 0.49522 0.24977 0.13863 0.0
H2960 H 0.54048 0.24394 0.08938 0.0
H2961 H 0.5509 0.28739 0.12261 0.0
H2962 H 0.49832 0.23671 0.09972 0.0
H2963 H 0.49601 0.25233 0.0827 0.0
H2964 H 0.51251 0.23581 0.08118 0.0
H2965 H 0.52849 0.30361 0.13577 0.0
H2966 H 0.50791 0.30376 0.1246 0.0
H2967 H 0.51114 0.28941 0.1425 0.0
H2968 H 0.45616 0.28723 0.09407 0.0
H2969 H 0.46043 0.2495 0.13483 0.0
H2970 H 0.49578 0.28525 0.07855 0.0
H2971 H 0.50101 0.30115 0.09462 0.0
H2972 H 0.48057 0.30236 0.08325 0.0
H2973 H 0.50134 0.23885 0.13153 0.0
H2974 H 0.48712 0.24431 0.14924 0.0
H2975 H 0.50578 0.25764 0.14444 0.0
C2976 C 0.62122 0.74787 0.03839 0.0
C2977 C 0.61058 0.75954 0.04739 0.0
C2978 C 0.62218 0.74817 0.02018 0.0
C2979 C 0.61173 0.75999 0.01075 0.0
C2980 C 0.60136 0.77217 0.01983 0.0
C2981 C 0.60113 0.77198 0.03807 0.0
C2982 C 0.63385 0.73536 0.01104 0.0
C2983 C 0.58965 0.78465 0.0103 0.0
C2984 C 0.61891 0.76716 0.96229 0.0
C2985 C 0.60731 0.75513 0.9551 0.0
C2986 C 0.62077 0.76871 0.9804 0.0
C2987 C 0.61032 0.75842 0.99151 0.0
C2988 C 0.59839 0.74647 0.98425 0.0
C2989 C 0.59726 0.74477 0.96616 0.0
C2990 C 0.63402 0.78117 0.98764 0.0
C2991 C 0.58665 0.7356 0.99558 0.0
H2992 H 0.62862 0.73831 0.04559 0.0
H2993 H 0.59276 0.7809 0.04502 0.0
H2994 H 0.62584 0.72533 0.00452 0.0
H2995 H 0.64159 0.74199 1.00087 0.0
H2996 H 0.64285 0.72876 0.02017 0.0
H2997 H 0.58336 0.7941 0.01919 0.0
H2998 H 0.59706 0.79191 1.00034 0.0
H2999 H 0.57936 0.77727 0.00345 0.0
H3000 H 0.62676 0.77512 0.95375 0.0
H3001 H 0.58814 0.73559 0.96064 0.0
H3002 H 0.64326 0.77408 0.99612 0.0
H3003 H 0.62753 0.79109 0.99579 0.0
H3004 H 0.64146 0.78787 0.97727 0.0
H3005 H 0.59453 0.72689 0.00388 0.0
H3006 H 0.57752 0.72754 0.98787 0.0
H3007 H 0.57901 0.74411 0.00433 0.0
C3008 C 0.24279 0.6273 0.96253 0.0
C3009 C 0.23255 0.61522 0.95361 0.0
C3010 C 0.24239 0.62832 0.9807 0.0
C3011 C 0.23195 0.61654 0.99019 0.0
C3012 C 0.22074 0.60507 0.98119 0.0
C3013 C 0.221 0.60472 0.96295 0.0
C3014 C 0.25413 0.64112 0.98975 0.0
C3015 C 0.2097 0.59203 0.99076 0.0
C3016 C 0.25211 0.60171 0.03253 0.0
C3017 C 0.24198 0.61033 0.04493 0.0
C3018 C 0.24862 0.60332 0.01477 0.0
C3019 C 0.23497 0.61427 0.00916 0.0
C3020 C 0.22472 0.62313 0.02161 0.0
C3021 C 0.22818 0.62083 0.03942 0.0
C3022 C 0.25961 0.59327 0.002 0.0
C3023 C 0.21041 0.63529 0.0161 0.0
H3024 H 0.25164 0.63552 0.9553 0.0
H3025 H 0.21317 0.59527 0.95607 0.0
H3026 H 0.24725 0.64746 1.0007 0.0
H3027 H 0.26551 0.63418 0.9952 0.0
H3028 H 0.25893 0.65131 0.98075 0.0
H3029 H 0.19993 0.58587 0.98214 0.0
H3030 H 0.21816 0.5817 0.99615 0.0
H3031 H 0.20288 0.59821 0.00182 0.0
H3032 H 0.26264 0.5934 0.03675 0.0
H3033 H 0.22037 0.62754 0.049 0.0
H3034 H 0.26701 0.60239 0.99367 0.0
H3035 H 0.25121 0.58539 0.99337 0.0
H3036 H 0.26898 0.58449 0.00855 0.0
H3037 H 0.21594 0.64603 0.00826 0.0
H3038 H 0.20339 0.64093 0.02737 0.0
H3039 H 0.20094 0.62839 0.00775 0.0
C3040 C 0.38279 0.24967 0.04336 0.0
C3041 C 0.39546 0.24068 0.05281 0.0
C3042 C 0.38172 0.24811 0.02524 0.0
C3043 C 0.39398 0.23775 0.01628 0.0
C3044 C 0.40625 0.22794 0.02586 0.0
C3045 C 0.40669 0.22935 0.04406 0.0
C3046 C 0.36811 0.25839 0.01561 0.0
C3047 C 0.41981 0.21706 0.01685 0.0
C3048 C 0.38821 0.22982 0.96766 0.0
C3049 C 0.39754 0.24379 0.96067 0.0
C3050 C 0.38689 0.22757 0.98577 0.0
C3051 C 0.39555 0.23927 0.99704 0.0
C3052 C 0.40543 0.25303 0.98994 0.0
C3053 C 0.40608 0.25525 0.97191 0.0
C3054 C 0.37588 0.21302 0.99286 0.0
C3055 C 0.41525 0.26556 1.0014 0.0
H3056 H 0.37398 0.25832 0.05012 0.0
H3057 H 0.41657 0.22245 0.05132 0.0
H3058 H 0.37433 0.26953 0.00893 0.0
H3059 H 0.36182 0.25026 0.00554 0.0
H3060 H 0.35795 0.26352 0.02446 0.0
H3061 H 0.42691 0.20854 0.02606 0.0
H3062 H 0.41383 0.20888 0.00664 0.0
H3063 H 0.42934 0.22572 0.01039 0.0
H3064 H 0.38155 0.22097 0.95899 0.0
H3065 H 0.41351 0.26594 0.96657 0.0
H3066 H 0.36494 0.2185 1.00046 0.0
H3067 H 0.38359 0.20483 0.00184 0.0
H3068 H 0.37051 0.20466 0.98241 0.0
H3069 H 0.40599 0.27311 0.00942 0.0
H3070 H 0.42328 0.2748 0.99379 0.0
H3071 H 0.42386 0.25834 0.0104 0.0
C3072 C 0.77038 0.38644 0.0356 0.0
C3073 C 0.75659 0.39632 0.04222 0.0
C3074 C 0.77274 0.38447 0.0176 0.0
C3075 C 0.76131 0.39297 0.00599 0.0
C3076 C 0.7474 0.40298 0.01264 0.0
C3077 C 0.74509 0.40435 0.03064 0.0
C3078 C 0.78743 0.37331 0.01101 0.0
C3079 C 0.73508 0.4125 1.00072 0.0
C3080 C 0.7737 0.40396 0.95954 0.0
C3081 C 0.76301 0.39255 0.95025 0.0
C3082 C 0.77397 0.4037 0.97778 0.0
C3083 C 0.76366 0.39146 0.98685 0.0
C3084 C 0.75399 0.379 0.97743 0.0
C3085 C 0.75358 0.37987 0.95925 0.0
C3086 C 0.78423 0.41739 0.98731 0.0
C3087 C 0.74323 0.36541 0.98656 0.0
H3088 H 0.77927 0.38014 0.0445 0.0
H3089 H 0.73451 0.41215 0.03566 0.0
H3090 H 0.78226 0.36298 0.00242 0.0
H3091 H 0.79648 0.38125 0.00313 0.0
H3092 H 0.79484 0.36715 0.02173 0.0
H3093 H 0.72527 0.42019 0.00797 0.0
H3094 H 0.74245 0.42139 0.99212 0.0
H3095 H 0.72817 0.40311 0.99228 0.0
H3096 H 0.78087 0.41388 0.95261 0.0
H3097 H 0.74538 0.37097 0.95207 0.0
H3098 H 0.79213 0.41145 0.99777 0.0
H3099 H 0.77515 0.42667 0.99354 0.0
H3100 H 0.79297 0.42474 0.97851 0.0
H3101 H 0.75081 0.3592 0.99711 0.0
H3102 H 0.73863 0.35518 0.97751 0.0
H3103 H 0.73173 0.37163 0.99259 0.0
C3104 C 0.60014 0.25938 0.96395 0.0
C3105 C 0.60989 0.24864 0.95298 0.0
C3106 C 0.60126 0.25782 0.98205 0.0
C3107 C 0.61281 0.24557 0.98941 0.0
C3108 C 0.6231 0.23503 0.9784 0.0
C3109 C 0.62132 0.2365 0.96029 0.0
C3110 C 0.58976 0.26904 0.99329 0.0
C3111 C 0.63595 0.22221 0.98577 0.0
C3112 C 0.62292 0.2555 0.03654 0.0
C3113 C 0.61154 0.24426 0.0452 0.0
C3114 C 0.62441 0.25519 0.01838 0.0
C3115 C 0.6138 0.24378 0.00864 0.0
C3116 C 0.6028 0.23192 0.01738 0.0
C3117 C 0.60199 0.23213 0.0356 0.0
C3118 C 0.63671 0.26765 0.0096 0.0
C3119 C 0.59097 0.21983 0.00749 0.0
H3120 H 0.59115 0.26865 0.95838 0.0
H3121 H 0.62893 0.22822 0.95184 0.0
H3122 H 0.58157 0.26075 0.00174 0.0
H3123 H 0.59782 0.27729 0.00189 0.0
H3124 H 0.58115 0.2776 0.98551 0.0
H3125 H 0.64363 0.21566 0.97548 0.0
H3126 H 0.64499 0.22892 0.99474 0.0
H3127 H 0.62902 0.21218 0.99342 0.0
H3128 H 0.63042 0.26481 0.04396 0.0
H3129 H 0.59307 0.22353 0.04226 0.0
H3130 H 0.62921 0.27805 0.00306 0.0
H3131 H 0.6444 0.26087 0.99949 0.0
H3132 H 0.64578 0.2738 0.01897 0.0
H3133 H 0.58103 0.22753 1.00048 0.0
H3134 H 0.58424 0.21048 0.01616 0.0
H3135 H 0.5984 0.21245 0.99762 0.0
C3136 C 0.75962 0.62701 0.04335 0.0
C3137 C 0.76839 0.61396 0.05248 0.0
C3138 C 0.76036 0.62787 0.02518 0.0
C3139 C 0.76963 0.615 0.0159 0.0
C3140 C 0.77939 0.60242 0.02512 0.0
C3141 C 0.77883 0.6022 0.04336 0.0
C3142 C 0.75021 0.64181 0.0159 0.0
C3143 C 0.78917 0.58826 0.01576 0.0
C3144 C 0.74976 0.60222 0.97273 0.0
C3145 C 0.7613 0.60964 0.96078 0.0
C3146 C 0.75255 0.60367 0.99064 0.0
C3147 C 0.767 0.61319 0.99683 0.0
C3148 C 0.77856 0.62099 0.98486 0.0
C3149 C 0.77571 0.61891 0.96693 0.0
C3150 C 0.74007 0.59485 0.00293 0.0
C3151 C 0.79382 0.63163 0.99098 0.0
H3152 H 0.75162 0.63619 0.05041 0.0
H3153 H 0.78549 0.59199 0.0504 0.0
H3154 H 0.75798 0.64746 0.00517 0.0
H3155 H 0.73835 0.63607 0.0101 0.0
H3156 H 0.74622 0.65241 0.02482 0.0
H3157 H 0.79784 0.58091 0.02462 0.0
H3158 H 0.77975 0.57906 0.00992 0.0
H3159 H 0.79705 0.59373 0.00504 0.0
H3160 H 0.73871 0.59487 0.96806 0.0
H3161 H 0.78464 0.62471 0.95773 0.0
H3162 H 0.73355 0.60467 0.01119 0.0
H3163 H 0.74725 0.58595 0.01169 0.0
H3164 H 0.72995 0.58729 0.99599 0.0
H3165 H 0.78919 0.6425 0.99921 0.0
H3166 H 0.80145 0.63705 0.98002 0.0
H3167 H 0.80252 0.62355 0.99911 0.0
C3168 C 0.38345 0.74671 0.96163 0.0
C3169 C 0.39496 0.75719 0.95221 0.0
C3170 C 0.38223 0.74802 0.97976 0.0
C3171 C 0.39321 0.75969 0.98875 0.0
C3172 C 0.40445 0.77072 0.97924 0.0
C3173 C 0.405 0.76951 0.96104 0.0
C3174 C 0.3697 0.73639 0.98934 0.0
C3175 C 0.41667 0.78304 0.98833 0.0
C3176 C 0.38534 0.76951 0.03665 0.0
C3177 C 0.39615 0.75727 0.04467 0.0
C3178 C 0.38403 0.77035 0.01844 0.0
C3179 C 0.39419 0.75906 0.00807 0.0
C3180 C 0.40531 0.74687 0.01616 0.0
C3181 C 0.40595 0.74596 0.03433 0.0
C3182 C 0.37166 0.78317 0.0103 0.0
C3183 C 0.41668 0.73486 0.00563 0.0
H3184 H 0.37555 0.73727 0.95481 0.0
H3185 H 0.414 0.77754 0.9538 0.0
H3186 H 0.37702 0.72636 0.99661 0.0
H3187 H 0.36212 0.744 0.99893 0.0
H3188 H 0.36054 0.72976 0.9804 0.0
H3189 H 0.42359 0.79167 0.97908 0.0
H3190 H 0.40951 0.79119 0.99778 0.0
H3191 H 0.42645 0.77549 0.99574 0.0
H3192 H 0.37769 0.77823 0.04461 0.0
H3193 H 0.4145 0.73661 0.04045 0.0
H3194 H 0.36218 0.77621 0.00201 0.0
H3195 H 0.37888 0.79227 0.00179 0.0
H3196 H 0.36445 0.79082 0.02016 0.0
H3197 H 0.40851 0.7262 0.99754 0.0
H3198 H 0.42518 0.72669 0.01392 0.0
H3199 H 0.42497 0.74252 0.99668 0.0
C3200 C 0.22827 0.39682 0.03881 0.0
C3201 C 0.24121 0.38867 0.04865 0.0
C3202 C 0.22858 0.39616 0.0206 0.0
C3203 C 0.24185 0.38668 0.01209 0.0
C3204 C 0.25412 0.3773 0.02205 0.0
C3205 C 0.25384 0.37866 0.04022 0.0
C3206 C 0.21552 0.4067 0.01049 0.0
C3207 C 0.26811 0.36657 0.01352 0.0
C3208 C 0.23699 0.37957 0.96339 0.0
C3209 C 0.24804 0.39242 0.95675 0.0
C3210 C 0.23516 0.37718 0.9814 0.0
C3211 C 0.24415 0.38829 0.99297 0.0
C3212 C 0.25527 0.4013 0.98627 0.0
C3213 C 0.25727 0.40302 0.96827 0.0
C3214 C 0.22364 0.36281 0.98806 0.0
C3215 C 0.26478 0.4137 0.99811 0.0
H3216 H 0.21859 0.40471 0.0453 0.0
H3217 H 0.26379 0.37225 0.04783 0.0
H3218 H 0.22223 0.41765 0.00398 0.0
H3219 H 0.20942 0.3987 1.00021 0.0
H3220 H 0.20514 0.41206 0.01894 0.0
H3221 H 0.27484 0.35799 0.02295 0.0
H3222 H 0.26254 0.35846 0.003 0.0
H3223 H 0.27789 0.37528 0.00754 0.0
H3224 H 0.2299 0.3713 0.9545 0.0
H3225 H 0.26569 0.41309 0.96319 0.0
H3226 H 0.21266 0.36838 0.99552 0.0
H3227 H 0.23104 0.35435 0.99706 0.0
H3228 H 0.21831 0.35471 0.9774 0.0
H3229 H 0.25536 0.42069 0.00648 0.0
H3230 H 0.27252 0.42342 0.99081 0.0
H3231 H 0.27363 0.40641 0.0068 0.0
C3232 C 0.04011 0.60985 0.76896 0.0
C3233 C 0.04604 0.60059 0.75446 0.0
C3234 C 0.02221 0.61174 0.77218 0.0
C3235 C 0.01008 0.60371 0.76094 0.0
C3236 C 0.0161 0.59395 0.74657 0.0
C3237 C 0.03397 0.59275 0.74337 0.0
C3238 C 0.01629 0.62266 0.78732 0.0
C3239 C 0.00366 0.58479 0.7345 0.0
C3240 C 0.96352 0.59391 0.77391 0.0
C3241 C 0.95441 0.60565 0.76344 0.0
C3242 C 0.98177 0.59365 0.77395 0.0
C3243 C 0.99104 0.60576 0.76367 0.0
C3244 C 0.98182 0.61855 0.75421 0.0
C3245 C 0.96362 0.61813 0.75396 0.0
C3246 C 0.99104 0.57954 0.78389 0.0
C3247 C 0.99118 0.63205 0.74353 0.0
H3248 H 0.04943 0.616 0.77751 0.0
H3249 H 0.03852 0.58541 0.73226 0.0
H3250 H 0.00853 0.63379 0.78251 0.0
H3251 H 0.00776 0.61496 0.79598 0.0
H3252 H 0.02735 0.62774 0.79505 0.0
H3253 H 0.01048 0.57679 0.72463 0.0
H3254 H 0.99483 0.57626 0.74203 0.0
H3255 H 0.99549 0.59446 0.72765 0.0
H3256 H 0.9564 0.58414 0.78113 0.0
H3257 H 0.95656 0.62729 0.74594 0.0
H3258 H 0.00191 0.58501 0.79156 0.0
H3259 H 0.99668 0.5701 0.77458 0.0
H3260 H 0.98219 0.57245 0.79279 0.0
H3261 H 0.00198 0.63786 0.75108 0.0
H3262 H 0.98234 0.64259 0.73921 0.0
H3263 H 0.99689 0.62585 0.73186 0.0
C3264 C 0.37813 0.9653 0.77422 0.0
C3265 C 0.3888 0.95814 0.76132 0.0
C3266 C 0.37659 0.98341 0.77613 0.0
C3267 C 0.38635 0.99453 0.76522 0.0
C3268 C 0.39723 0.98732 0.75228 0.0
C3269 C 0.39812 0.96926 0.75035 0.0
C3270 C 0.3645 0.99063 0.78973 0.0
C3271 C 0.40815 0.99867 0.74059 0.0
C3272 C 0.37592 0.04151 0.75525 0.0
C3273 C 0.38814 0.05024 0.76552 0.0
C3274 C 0.37419 0.0234 0.7561 0.0
C3275 C 0.38534 0.01375 0.76707 0.0
C3276 C 0.39707 0.0226 0.77813 0.0
C3277 C 0.39816 0.0408 0.77739 0.0
C3278 C 0.36115 0.01453 0.74448 0.0
C3279 C 0.40945 0.01282 0.78974 0.0
H3280 H 0.37086 0.95675 0.7827 0.0
H3281 H 0.40655 0.96382 0.74048 0.0
H3282 H 0.37191 0.9985 0.79923 0.0
H3283 H 0.35487 0.99938 0.78356 0.0
H3284 H 0.35745 0.98026 0.79685 0.0
H3285 H 0.41643 0.99098 0.73164 0.0
H3286 H 0.39966 0.00721 0.73272 0.0
H3287 H 0.41663 0.00717 0.74853 0.0
H3288 H 0.36805 0.04881 0.74616 0.0
H3289 H 0.40771 0.04751 0.78524 0.0
H3290 H 0.35395 0.00441 0.75176 0.0
H3291 H 0.36802 0.00802 0.73364 0.0
H3292 H 0.35168 0.02386 0.73889 0.0
H3293 H 0.40246 0.00278 0.79731 0.0
H3294 H 0.41636 0.02155 0.79889 0.0
H3295 H 0.41924 0.00605 0.78163 0.0
C3296 C 0.0397 0.39779 0.77268 0.0
C3297 C 0.04953 0.38802 0.7609 0.0
C3298 C 0.02147 0.3972 0.77239 0.0
C3299 C 0.01293 0.38619 0.76038 0.0
C3300 C 0.02287 0.37536 0.74936 0.0
C3301 C 0.04104 0.37662 0.74955 0.0
C3302 C 0.01139 0.40925 0.78409 0.0
C3303 C 0.0143 0.36305 0.73676 0.0
C3304 C 0.96432 0.37919 0.76633 0.0
C3305 C 0.95746 0.39055 0.75387 0.0
C3306 C 0.98237 0.37728 0.76836 0.0
C3307 C 0.99377 0.38738 0.75806 0.0
C3308 C 0.98686 0.39888 0.74549 0.0
C3309 C 0.96883 0.40013 0.74339 0.0
C3310 C 0.98924 0.3645 0.78151 0.0
C3311 C 0.99852 0.41018 0.73449 0.0
H3312 H 0.04622 0.40674 0.78135 0.0
H3313 H 0.04863 0.36896 0.7405 0.0
H3314 H 0.00476 0.41923 0.7761 0.0
H3315 H 1.0012 0.40202 0.79123 0.0
H3316 H 0.01987 0.41593 0.79365 0.0
H3317 H 0.02373 0.35382 0.73095 0.0
H3318 H 0.00391 0.35555 0.74333 0.0
H3319 H 0.00815 0.37054 0.72612 0.0
H3320 H 0.95558 0.37171 0.77442 0.0
H3321 H 0.9636 0.40907 0.73386 0.0
H3322 H 0.99671 0.37144 0.79166 0.0
H3323 H 0.99827 0.35527 0.77514 0.0
H3324 H 0.97869 0.35701 0.78788 0.0
H3325 H 0.00682 0.41835 0.74296 0.0
H3326 H 0.99108 0.41879 0.72566 0.0
H3327 H 0.00728 0.40197 0.72655 0.0
C3328 C 0.59567 0.96462 0.74679 0.0
C3329 C 0.60631 0.95345 0.75641 0.0
C3330 C 0.59715 0.98267 0.74834 0.0
C3331 C 0.61001 0.98981 0.75935 0.0
C3332 C 0.62104 0.97859 0.76889 0.0
C3333 C 0.61884 0.9605 0.76756 0.0
C3334 C 0.58476 0.99411 0.73832 0.0
C3335 C 0.63526 0.98571 0.78031 0.0
C3336 C 0.61992 0.03658 0.74758 0.0
C3337 C 0.61002 0.04562 0.75986 0.0
C3338 C 0.62113 0.01839 0.74808 0.0
C3339 C 0.61167 0.00903 0.76076 0.0
C3340 C 0.60215 0.01816 0.77357 0.0
C3341 C 0.60167 0.03638 0.77312 0.0
C3342 C 0.6319 0.00919 0.73455 0.0
C3343 C 0.59145 0.00871 0.787 0.0
H3344 H 0.58583 0.9592 0.73831 0.0
H3345 H 0.62714 0.95186 0.77493 0.0
H3346 H 0.57787 0.00298 0.74733 0.0
H3347 H 0.59207 0.00229 0.729 0.0
H3348 H 0.57497 0.98649 0.73099 0.0
H3349 H 0.64303 0.97526 0.78651 0.0
H3350 H 0.64407 0.99402 0.77252 0.0
H3351 H 0.62963 0.99399 0.79064 0.0
H3352 H 0.6265 0.04372 0.7374 0.0
H3353 H 0.59388 0.04334 0.78255 0.0
H3354 H 0.62322 0.00271 0.72508 0.0
H3355 H 0.64001 0.99899 0.74067 0.0
H3356 H 0.64049 0.01828 0.72737 0.0
H3357 H 0.58054 0.00192 0.78049 0.0
H3358 H 0.58601 0.01764 0.79692 0.0
H3359 H 0.59936 0.9987 0.79365 0.0
C3360 C 0.96382 0.40111 0.22628 0.0
C3361 C 0.95419 0.39188 0.23863 0.0
C3362 C 0.98204 0.40067 0.22638 0.0
C3363 C 0.99078 0.39026 0.23877 0.0
C3364 C 0.98103 0.37991 0.25042 0.0
C3365 C 0.96284 0.38111 0.25045 0.0
C3366 C 0.9919 0.41233 0.21409 0.0
C3367 C 0.98982 0.36819 0.26343 0.0
C3368 C 0.03957 0.38381 0.23324 0.0
C3369 C 0.0461 0.39545 0.24558 0.0
C3370 C 0.02155 0.38166 0.23106 0.0
C3371 C 0.00992 0.39189 0.24099 0.0
C3372 C 0.01655 0.40391 0.2532 0.0
C3373 C 0.03452 0.4053 0.25556 0.0
C3374 C 0.01495 0.36829 0.21836 0.0
C3375 C 0.00468 0.41548 0.26368 0.0
H3376 H 0.95714 0.40957 0.21723 0.0
H3377 H 0.95539 0.37386 0.25993 0.0
H3378 H 0.99835 0.42279 0.2216 0.0
H3379 H 0.00221 0.40497 0.20728 0.0
H3380 H 0.98328 0.4184 0.20426 0.0
H3381 H 0.98054 0.35904 0.26959 0.0
H3382 H 1.0003 0.36061 0.2571 0.0
H3383 H 0.99588 0.37615 0.27377 0.0
H3384 H 0.04853 0.37612 0.2256 0.0
H3385 H 0.03957 0.41445 0.26497 0.0
H3386 H 0.00694 0.37463 0.20823 0.0
H3387 H 0.00648 0.35886 0.22519 0.0
H3388 H 0.02567 0.3611 0.21194 0.0
H3389 H 0.99605 0.42293 0.25488 0.0
H3390 H 0.01196 0.42478 0.27193 0.0
H3391 H 0.99627 0.40747 0.27218 0.0
C3392 C 0.62508 0.03605 0.24512 0.0
C3393 C 0.61322 0.04535 0.23496 0.0
C3394 C 0.62534 0.01784 0.24494 0.0
C3395 C 0.61299 0.00871 0.23484 0.0
C3396 C 0.6016 0.01806 0.22384 0.0
C3397 C 0.60203 0.0363 0.22384 0.0
C3398 C 0.63809 0.0084 0.25643 0.0
C3399 C 0.58795 0.0089 0.21318 0.0
C3400 C 0.61636 0.95952 0.2302 0.0
C3401 C 0.60613 0.9539 0.24417 0.0
C3402 C 0.61885 0.97733 0.22698 0.0
C3403 C 0.61045 0.98974 0.23765 0.0
C3404 C 0.59975 0.98405 0.25148 0.0
C3405 C 0.59796 0.96625 0.25472 0.0
C3406 C 0.63074 0.98289 0.21244 0.0
C3407 C 0.59019 0.99679 0.26292 0.0
H3408 H 0.63381 0.04304 0.25367 0.0
H3409 H 0.59271 0.04347 0.21612 0.0
H3410 H 0.63119 0.00297 0.26784 0.0
H3411 H 0.64409 0.99739 0.24934 0.0
H3412 H 0.64855 0.01711 0.26117 0.0
H3413 H 0.58158 0.01776 0.20376 0.0
H3414 H 0.59367 0.99783 0.20599 0.0
H3415 H 0.57786 0.00357 0.22197 0.0
H3416 H 0.62276 0.94998 0.22207 0.0
H3417 H 0.58988 0.96195 0.26542 0.0
H3418 H 0.64169 0.99055 0.21781 0.0
H3419 H 0.6237 0.99142 0.20324 0.0
H3420 H 0.63609 0.97166 0.20517 0.0
H3421 H 0.59962 0.00486 0.2702 0.0
H3422 H 0.58153 0.99022 0.2724 0.0
H3423 H 0.58224 0.00568 0.25484 0.0
C3424 C 0.04198 0.62314 0.24602 0.0
C3425 C 0.05093 0.60961 0.2378 0.0
C3426 C 0.0238 0.62402 0.24554 0.0
C3427 C 0.01434 0.61075 0.23706 0.0
C3428 C 0.02337 0.59765 0.22782 0.0
C3429 C 0.04162 0.59736 0.22813 0.0
C3430 C 0.01473 0.63849 0.25514 0.0
C3431 C 0.01379 0.58312 0.21885 0.0
C3432 C 0.97119 0.59973 0.2581 0.0
C3433 C 0.95923 0.60699 0.24648 0.0
C3434 C 0.98909 0.60058 0.25493 0.0
C3435 C 0.99527 0.60929 0.23996 0.0
C3436 C 0.98328 0.61683 0.22824 0.0
C3437 C 0.96537 0.6154 0.23153 0.0
C3438 C 1.00139 0.59209 0.26762 0.0
C3439 C 0.98939 0.62657 0.21239 0.0
H3440 H 0.04918 0.6327 0.25342 0.0
H3441 H 0.04852 0.58681 0.22189 0.0
H3442 H 0.00402 0.64391 0.24719 0.0
H3443 H 0.00894 0.63331 0.26726 0.0
H3444 H 0.02378 0.64915 0.25863 0.0
H3445 H 0.02249 0.57531 0.21041 0.0
H3446 H 0.00803 0.5744 0.22877 0.0
H3447 H 0.003 0.58828 0.21087 0.0
H3448 H 0.96655 0.59303 0.26957 0.0
H3449 H 0.95617 0.62108 0.22253 0.0
H3450 H 0.00989 0.60204 0.2736 0.0
H3451 H 0.0099 0.58274 0.26073 0.0
H3452 H 0.99445 0.5851 0.27815 0.0
H3453 H 0.99768 0.63765 0.21638 0.0
H3454 H 0.97842 0.63161 0.20451 0.0
H3455 H 0.99746 0.618 0.20412 0.0
C3456 C 0.40474 0.03555 0.26123 0.0
C3457 C 0.39339 0.0465 0.25218 0.0
C3458 C 0.40326 0.01745 0.26004 0.0
C3459 C 0.38972 0.01009 0.25004 0.0
C3460 C 0.37783 0.0211 0.24135 0.0
C3461 C 0.38001 0.03921 0.24225 0.0
C3462 C 0.41654 0.00622 0.2691 0.0
C3463 C 0.36287 0.01376 0.23106 0.0
C3464 C 0.39759 0.96413 0.23406 0.0
C3465 C 0.39022 0.95426 0.24744 0.0
C3466 C 0.3971 0.98234 0.23447 0.0
C3467 C 0.3885 0.99086 0.24831 0.0
C3468 C 0.3801 0.98091 0.26129 0.0
C3469 C 0.38136 0.96272 0.26089 0.0
C3470 C 0.40667 0.99242 0.22066 0.0
C3471 C 0.37029 0.98947 0.27593 0.0
H3472 H 0.41522 0.04114 0.26876 0.0
H3473 H 0.37116 0.04768 0.23532 0.0
H3474 H 0.41004 0.99756 0.27858 0.0
H3475 H 0.4232 0.99781 0.25948 0.0
H3476 H 0.42648 0.01399 0.27606 0.0
H3477 H 0.35404 0.02405 0.22617 0.0
H3478 H 0.36786 0.00629 0.21982 0.0
H3479 H 0.35528 0.00464 0.23922 0.0
H3480 H 0.40459 0.95762 0.22373 0.0
H3481 H 0.37554 0.9551 0.27119 0.0
H3482 H 0.41757 0.99965 0.22668 0.0
H3483 H 0.39796 0.00212 0.21458 0.0
H3484 H 0.41198 0.98388 0.21033 0.0
H3485 H 0.37956 0.996 0.2848 0.0
H3486 H 0.36258 0.97999 0.28357 0.0
H3487 H 0.36143 0.99958 0.27077 0.0
C3488 C 0.74737 0.03642 0.60308 0.0
C3489 C 0.75822 0.0481 0.61183 0.0
C3490 C 0.7496 0.01846 0.60475 0.0
C3491 C 0.76269 0.01193 0.61588 0.0
C3492 C 0.77354 0.02365 0.625 0.0
C3493 C 0.77136 0.04164 0.62264 0.0
C3494 C 0.738 0.00646 0.59446 0.0
C3495 C 0.78728 0.01717 0.63736 0.0
C3496 C 0.75275 0.9655 0.62842 0.0
C3497 C 0.76294 0.95625 0.61653 0.0
C3498 C 0.75372 0.98366 0.62946 0.0
C3499 C 0.76469 0.9928 0.61788 0.0
C3500 C 0.77572 0.98344 0.60652 0.0
C3501 C 0.77489 0.96522 0.60617 0.0
C3502 C 0.74216 0.99309 0.64215 0.0
C3503 C 0.7873 0.99265 0.59368 0.0
H3504 H 0.73734 0.04134 0.59454 0.0
H3505 H 0.77972 0.05065 0.62947 0.0
H3506 H 0.74599 0.99753 0.58647 0.0
H3507 H 0.73014 0.99837 0.6034 0.0
H3508 H 0.72904 0.01364 0.58574 0.0
H3509 H 0.79449 0.02796 0.64364 0.0
H3510 H 0.78119 0.00909 0.6476 0.0
H3511 H 0.79667 0.00881 0.63037 0.0
H3512 H 0.74359 0.95856 0.63654 0.0
H3513 H 0.78267 0.9581 0.59686 0.0
H3514 H 0.7312 0.99916 0.63507 0.0
H3515 H 0.74942 0.00361 0.64876 0.0
H3516 H 0.73673 0.9842 0.65213 0.0
H3517 H 0.77917 0.99877 0.58349 0.0
H3518 H 0.79658 0.98365 0.58731 0.0
H3519 H 0.79472 0.00315 0.60013 0.0
C3520 C 0.77261 0.04316 0.40434 0.0
C3521 C 0.76062 0.05211 0.39401 0.0
C3522 C 0.77379 0.02496 0.40365 0.0
C3523 C 0.76305 0.01562 0.392 0.0
C3524 C 0.75195 0.02477 0.38058 0.0
C3525 C 0.75065 0.04288 0.38193 0.0
C3526 C 0.7855 0.01571 0.41634 0.0
C3527 C 0.74067 0.01537 0.36761 0.0
C3528 C 0.771 0.96713 0.38569 0.0
C3529 C 0.75797 0.96 0.39621 0.0
C3530 C 0.77277 0.98525 0.38397 0.0
C3531 C 0.76159 0.99639 0.39342 0.0
C3532 C 0.74861 0.98918 0.40426 0.0
C3533 C 0.74682 0.97113 0.40531 0.0
C3534 C 0.78641 0.99246 0.37192 0.0
C3535 C 0.73667 1.00054 0.41489 0.0
H3536 H 0.78026 0.05026 0.41377 0.0
H3537 H 0.74149 0.04981 0.37381 0.0
H3538 H 0.77745 0.00901 0.42623 0.0
H3539 H 0.79332 0.00567 0.40965 0.0
H3540 H 0.79442 0.02479 0.42311 0.0
H3541 H 0.73494 0.02437 0.35791 0.0
H3542 H 0.74826 0.0053 0.36067 0.0
H3543 H 0.72993 0.00871 0.37451 0.0
H3544 H 0.77961 0.95856 0.37861 0.0
H3545 H 0.73686 0.96569 0.41364 0.0
H3546 H 0.79552 1.00087 0.37923 0.0
H3547 H 0.78017 1.00068 0.36187 0.0
H3548 H 0.79396 0.98208 0.36537 0.0
H3549 H 0.74439 0.00941 0.42319 0.0
H3550 H 0.72786 0.99286 0.42334 0.0
H3551 H 0.72863 0.0087 0.40617 0.0
C3552 C 0.96575 0.75864 0.38199 0.0
C3553 C 0.95661 0.76837 0.39434 0.0
C3554 C 0.98395 0.7591 0.3813 0.0
C3555 C 0.99323 0.76903 0.39367 0.0
C3556 C 0.98401 0.77964 0.40554 0.0
C3557 C 0.96577 0.77936 0.40556 0.0
C3558 C 0.99324 0.74805 0.36806 0.0
C3559 C 0.99335 0.7901 0.41921 0.0
C3560 C 0.03616 0.74937 0.4076 0.0
C3561 C 0.04824 0.76031 0.39954 0.0
C3562 C 0.01829 0.75237 0.40608 0.0
C3563 C 0.01227 0.76636 0.39578 0.0
C3564 C 0.02441 0.77739 0.38745 0.0
C3565 C 0.04231 0.77439 0.38967 0.0
C3566 C 0.00584 0.74055 0.41556 0.0
C3567 C 0.0185 0.79209 0.37595 0.0
H3568 H 0.95868 0.7502 0.37324 0.0
H3569 H 0.95873 0.78676 0.41523 0.0
H3570 H 0.00408 0.75538 0.36204 0.0
H3571 H 0.99889 0.73651 0.37455 0.0
H3572 H 0.98436 0.7435 0.35766 0.0
H3573 H 0.98452 0.79927 0.42598 0.0
H3574 H 0.99901 0.78117 0.42898 0.0
H3575 H 0.0042 0.79756 0.4134 0.0
H3576 H 0.04071 0.73858 0.4154 0.0
H3577 H 0.05164 0.78281 0.38335 0.0
H3578 H 0.99768 0.73343 0.40609 0.0
H3579 H 0.997 0.74832 0.42387 0.0
H3580 H 0.01265 0.73093 0.42385 0.0
H3581 H 0.01063 0.78687 0.36507 0.0
H3582 H 0.02956 0.79955 0.37049 0.0
H3583 H 0.01005 0.80109 0.38335 0.0
C3584 C 0.23425 0.04254 0.37797 0.0
C3585 C 0.24585 0.04916 0.39031 0.0
C3586 C 0.23246 0.02452 0.37556 0.0
C3587 C 0.24202 0.01296 0.38621 0.0
C3588 C 0.2535 0.01966 0.39889 0.0
C3589 C 0.25549 0.03765 0.40056 0.0
C3590 C 0.22055 0.01784 0.36153 0.0
C3591 C 0.26355 0.00785 0.41089 0.0
C3592 C 0.22758 0.96666 0.39466 0.0
C3593 C 0.24056 0.95724 0.38608 0.0
C3594 C 0.22737 0.98487 0.39417 0.0
C3595 C 0.24012 0.99381 0.38438 0.0
C3596 C 0.25241 0.98426 0.37459 0.0
C3597 C 0.2527 0.96609 0.37584 0.0
C3598 C 0.21437 0.99452 0.40521 0.0
C3599 C 0.26583 0.99327 0.36353 0.0
H3600 H 0.22686 0.05145 0.36997 0.0
H3601 H 0.26433 0.04276 0.41025 0.0
H3602 H 0.22795 0.00948 0.35243 0.0
H3603 H 0.21018 0.00972 0.3673 0.0
H3604 H 0.21441 0.02852 0.35404 0.0
H3605 H 0.27127 0.01517 0.42061 0.0
H3606 H 0.25452 0.99908 0.41788 0.0
H3607 H 0.27252 0.99958 0.40325 0.0
H3608 H 0.21828 0.95984 0.40272 0.0
H3609 H 0.26267 0.9588 0.36909 0.0
H3610 H 0.20785 0.0048 0.39756 0.0
H3611 H 0.22123 1.00097 0.4161 0.0
H3612 H 0.20432 0.98575 0.41069 0.0
H3613 H 0.25975 0.00373 0.35572 0.0
H3614 H 0.27252 0.98411 0.35463 0.0
H3615 H 0.27574 0.99939 0.37199 0.0
C3616 C 0.04271 0.23195 0.38383 0.0
C3617 C 0.0494 0.24512 0.39446 0.0
C3618 C 0.02468 0.2299 0.38168 0.0
C3619 C 0.01314 0.24096 0.39077 0.0
C3620 C 0.01989 0.25406 0.40176 0.0
C3621 C 0.03789 0.25612 0.40327 0.0
C3622 C 0.01797 0.21611 0.36951 0.0
C3623 C 0.00808 0.2659 0.412 0.0
C3624 C 0.9669 0.25126 0.37774 0.0
C3625 C 0.95741 0.2413 0.38964 0.0
C3626 C 0.98506 0.25016 0.37696 0.0
C3627 C 0.99398 0.23926 0.38876 0.0
C3628 C 0.98439 0.22847 0.40017 0.0
C3629 C 0.96618 0.22945 0.4003 0.0
C3630 C 0.99474 0.2615 0.36425 0.0
C3631 C 0.99337 0.21694 0.41321 0.0
H3632 H 0.05157 0.22346 0.37695 0.0
H3633 H 0.04298 0.26619 0.41166 0.0
H3634 H 0.00935 0.20702 0.37659 0.0
H3635 H 0.01009 0.22221 0.35912 0.0
H3636 H 0.02863 0.20856 0.3634 0.0
H3637 H 0.01541 0.27482 0.42063 0.0
H3638 H 1.00008 0.2738 0.40303 0.0
H3639 H 0.99906 0.25809 0.42008 0.0
H3640 H 0.96013 0.26033 0.36938 0.0
H3641 H 0.95888 0.22183 0.40962 0.0
H3642 H 0.00514 0.25401 0.35768 0.0
H3643 H 1.00102 0.27236 0.3713 0.0
H3644 H 0.98599 0.26706 0.35423 0.0
H3645 H 0.00379 0.20927 0.40691 0.0
H3646 H 0.9842 0.20788 0.41966 0.0
H3647 H 0.99957 0.22511 0.42332 0.0
C3648 C 0.25887 0.03913 0.62001 0.0
C3649 C 0.24738 0.0481 0.60914 0.0
C3650 C 0.25842 0.02095 0.62114 0.0
C3651 C 0.24665 0.01152 0.61065 0.0
C3652 C 0.23458 0.02058 0.60015 0.0
C3653 C 0.23492 0.0388 0.59974 0.0
C3654 C 0.27112 0.01183 0.63295 0.0
C3655 C 0.22214 0.01104 0.5884 0.0
C3656 C 0.26239 0.96729 0.59586 0.0
C3657 C 0.25211 0.95602 0.60576 0.0
C3658 C 0.26048 0.98532 0.59716 0.0
C3659 C 0.24838 0.99233 0.60909 0.0
C3660 C 0.23815 0.98102 0.61938 0.0
C3661 C 0.23993 0.96294 0.61736 0.0
C3662 C 0.27131 0.99688 0.58559 0.0
C3663 C 0.22553 0.988 0.63262 0.0
H3664 H 0.26843 0.04633 0.62741 0.0
H3665 H 0.22611 0.04572 0.59121 0.0
H3666 H 0.26445 0.00157 0.64054 0.0
H3667 H 0.28131 0.00543 0.62505 0.0
H3668 H 0.27752 0.02095 0.64209 0.0
H3669 H 0.21257 0.0199 0.58225 0.0
H3670 H 0.22955 0.00438 0.578 0.0
H3671 H 0.215 1.00091 0.59572 0.0
H3672 H 0.27167 0.96197 0.58672 0.0
H3673 H 0.23202 0.95424 0.62509 0.0
H3674 H 0.27991 0.00517 0.59361 0.0
H3675 H 0.26277 0.00563 0.57799 0.0
H3676 H 0.27949 0.98934 0.57642 0.0
H3677 H 0.23248 0.9964 0.64203 0.0
H3678 H 0.21883 0.97749 0.63986 0.0
H3679 H 0.21561 0.99618 0.62615 0.0
C3680 C 0.96516 0.25083 0.62183 0.0
C3681 C 0.95657 0.23972 0.61029 0.0
C3682 C 0.98329 0.25034 0.62358 0.0
C3683 C 0.99308 0.23887 0.61308 0.0
C3684 C 0.98439 0.22709 0.60195 0.0
C3685 C 0.96619 0.22749 0.60088 0.0
C3686 C 0.992 0.26272 0.63602 0.0
C3687 C 0.99433 0.21494 0.59024 0.0
C3688 C 0.03799 0.25434 0.59998 0.0
C3689 C 0.0488 0.24357 0.60987 0.0
C3690 C 0.01988 0.25281 0.60085 0.0
C3691 C 0.01233 0.24055 0.61229 0.0
C3692 C 0.02317 0.22996 0.62269 0.0
C3693 C 0.04131 0.23139 0.62114 0.0
C3694 C 0.00882 0.26409 0.58923 0.0
C3695 C 0.01561 0.21714 0.63543 0.0
H3696 H 0.95773 0.26023 0.62921 0.0
H3697 H 0.95958 0.21899 0.59182 0.0
H3698 H 0.00202 0.25586 0.64376 0.0
H3699 H 0.99864 0.27312 0.62861 0.0
H3700 H 0.98257 0.26886 0.64502 0.0
H3701 H 0.98568 0.2056 0.58347 0.0
H3702 H 1.00144 0.2226 0.58032 0.0
H3703 H 0.00412 0.20755 0.59776 0.0
H3704 H 0.04371 0.26364 0.59111 0.0
H3705 H 0.04964 0.2231 0.62887 0.0
H3706 H 1.0002 0.27241 0.59721 0.0
H3707 H 1.00039 0.25584 0.58098 0.0
H3708 H 0.01673 0.27258 0.58068 0.0
H3709 H 0.00665 0.2239 0.64445 0.0
H3710 H 0.02579 0.21046 0.64314 0.0
H3711 H 0.00791 0.20722 0.62842 0.0
C3712 C 0.03556 0.75506 0.60218 0.0
C3713 C 0.04651 0.76757 0.60957 0.0
C3714 C 0.01749 0.75689 0.60262 0.0
C3715 C 0.01004 0.7714 0.61108 0.0
C3716 C 0.02098 0.78407 0.6187 0.0
C3717 C 0.03914 0.78213 0.61764 0.0
C3718 C 0.00636 0.74324 0.59401 0.0
C3719 C 0.01351 0.79948 0.62819 0.0
C3720 C 0.96314 0.77897 0.59801 0.0
C3721 C 0.95444 0.76849 0.61006 0.0
C3722 C 0.98126 0.78103 0.59879 0.0
C3723 C 0.99077 0.77276 0.6122 0.0
C3724 C 0.98178 0.76347 0.62526 0.0
C3725 C 0.96376 0.76123 0.62388 0.0
C3726 C 0.99034 0.79076 0.58442 0.0
C3727 C 0.99132 0.75484 0.64004 0.0
H3728 H 0.04115 0.74389 0.5957 0.0
H3729 H 0.04756 0.79182 0.6234 0.0
H3730 H 0.99823 0.73661 0.60387 0.0
H3731 H 0.99745 0.74939 0.58451 0.0
H3732 H 0.01421 0.73328 0.58714 0.0
H3733 H 0.02375 0.8083 0.63319 0.0
H3734 H 0.00482 0.80693 0.61947 0.0
H3735 H 0.00551 0.79493 0.63928 0.0
H3736 H 0.95598 0.78451 0.58724 0.0
H3737 H 0.95703 0.75324 0.63332 0.0
H3738 H 0.99705 0.78136 0.57582 0.0
H3739 H 1.00035 0.79961 0.58976 0.0
H3740 H 0.98111 0.79846 0.57644 0.0
H3741 H 0.99822 0.74319 0.63514 0.0
H3742 H 0.98236 0.75071 0.65056 0.0
H3743 H 1.00119 0.76372 0.64558 0.0
loop_
_geom_bond_atom_site_label_1
_geom_bond_atom_site_label_2
_geom_bond_distance
_geom_bond_site_symmetry_2
_ccdc_geom_bond_type
O0 Cd1 2.223 . S
O0 C8 1.315 . S
Cd1 O0 2.223 . S
Cd1 O4 2.297 . S
Cd1 O5 2.439 . S
Cd1 O11 2.240 . S
Cd2 O3 2.240 . S
Cd2 O10 2.223 . S
Cd2 O12 2.297 . S
Cd2 O13 2.439 . S
O3 Cd2 2.240 . S
O3 C8 1.279 . S
O4 Cd1 2.297 . S
O4 C6 1.247 . S
O5 Cd1 2.439 . S
O5 C6 1.208 . S
C6 O4 1.247 . S
C6 O5 1.208 . S
C7 O12 1.247 . S
C7 O13 1.208 . S
C8 O0 1.315 . S
C8 O3 1.279 . S
C9 O10 1.315 . S
C9 O11 1.279 . S
O10 Cd2 2.223 . S
O10 C9 1.315 . S
O11 Cd1 2.240 . S
O11 C9 1.279 . S
O12 Cd2 2.297 . S
O12 C7 1.247 . S
O13 Cd2 2.439 . S
O13 C7 1.208 . S
O14 Cd15 2.223 . S
O14 C22 1.315 . S
Cd15 O14 2.223 . S
Cd15 O18 2.297 . S
Cd15 O19 2.439 . S
Cd15 O25 2.240 . S
Cd16 O17 2.240 . S
Cd16 O24 2.223 . S
Cd16 O26 2.297 . S
Cd16 O27 2.439 . S
O17 Cd16 2.240 . S
O17 C22 1.279 . S
O18 Cd15 2.297 . S
O18 C20 1.247 . S
O19 Cd15 2.439 . S
O19 C20 1.208 . S
C20 O18 1.247 . S
C20 O19 1.208 . S
C21 O26 1.247 . S
C21 O27 1.208 . S
C22 O14 1.315 . S
C22 O17 1.279 . S
C23 O24 1.315 . S
C23 O25 1.279 . S
O24 Cd16 2.223 . S
O24 C23 1.315 . S
O25 Cd15 2.240 . S
O25 C23 1.279 . S
O26 Cd16 2.297 . S
O26 C21 1.247 . S
O27 Cd16 2.439 . S
O27 C21 1.208 . S
O28 Cd29 2.223 . S
O28 C36 1.315 . S
Cd29 O28 2.223 . S
Cd29 O32 2.297 . S
Cd29 O33 2.439 . S
Cd29 O39 2.240 . S
Cd30 O31 2.240 . S
Cd30 O38 2.223 . S
Cd30 O40 2.297 . S
Cd30 O41 2.439 . S
O31 Cd30 2.240 . S
O31 C36 1.279 . S
O32 Cd29 2.297 . S
O32 C34 1.247 . S
O33 Cd29 2.439 . S
O33 C34 1.208 . S
C34 O32 1.247 . S
C34 O33 1.208 . S
C35 O40 1.247 . S
C35 O41 1.208 . S
C36 O28 1.315 . S
C36 O31 1.279 . S
C37 O38 1.315 . S
C37 O39 1.279 . S
O38 Cd30 2.223 . S
O38 C37 1.315 . S
O39 Cd29 2.240 . S
O39 C37 1.279 . S
O40 Cd30 2.297 . S
O40 C35 1.247 . S
O41 Cd30 2.439 . S
O41 C35 1.208 . S
O42 Cd43 2.223 . S
O42 C50 1.315 . S
Cd43 O42 2.223 . S
Cd43 O46 2.297 . S
Cd43 O47 2.439 . S
Cd43 O53 2.240 . S
Cd44 O45 2.240 . S
Cd44 O52 2.223 . S
Cd44 O54 2.297 . S
Cd44 O55 2.439 . S
O45 Cd44 2.240 . S
O45 C50 1.279 . S
O46 Cd43 2.297 . S
O46 C48 1.247 . S
O47 Cd43 2.439 . S
O47 C48 1.208 . S
C48 O46 1.247 . S
C48 O47 1.208 . S
C49 O54 1.247 . S
C49 O55 1.208 . S
C50 O42 1.315 . S
C50 O45 1.279 . S
C51 O52 1.315 . S
C51 O53 1.279 . S
O52 Cd44 2.223 . S
O52 C51 1.315 . S
O53 Cd43 2.240 . S
O53 C51 1.279 . S
O54 Cd44 2.297 . S
O54 C49 1.247 . S
O55 Cd44 2.439 . S
O55 C49 1.208 . S
O56 Cd57 2.223 . S
O56 C64 1.315 . S
Cd57 O56 2.223 . S
Cd57 O60 2.297 . S
Cd57 O61 2.439 . S
Cd57 O67 2.240 . S
Cd58 O59 2.240 . S
Cd58 O66 2.223 . S
Cd58 O68 2.297 . S
Cd58 O69 2.439 . S
O59 Cd58 2.240 . S
O59 C64 1.279 . S
O60 Cd57 2.297 . S
O60 C62 1.247 . S
O61 Cd57 2.439 . S
O61 C62 1.208 . S
C62 O60 1.247 . S
C62 O61 1.208 . S
C63 O68 1.247 . S
C63 O69 1.208 . S
C64 O56 1.315 . S
C64 O59 1.279 . S
C65 O66 1.315 . S
C65 O67 1.279 . S
O66 Cd58 2.223 . S
O66 C65 1.315 . S
O67 Cd57 2.240 . S
O67 C65 1.279 . S
O68 Cd58 2.297 . S
O68 C63 1.247 . S
O69 Cd58 2.439 . S
O69 C63 1.208 . S
O70 Cd71 2.223 . S
O70 C78 1.315 . S
Cd71 O70 2.223 . S
Cd71 O74 2.297 . S
Cd71 O75 2.439 . S
Cd71 O81 2.240 . S
Cd72 O73 2.240 . S
Cd72 O80 2.223 . S
Cd72 O82 2.297 . S
Cd72 O83 2.439 . S
O73 Cd72 2.240 . S
O73 C78 1.279 . S
O74 Cd71 2.297 . S
O74 C76 1.247 . S
O75 Cd71 2.439 . S
O75 C76 1.208 . S
C76 O74 1.247 . S
C76 O75 1.208 . S
C77 O82 1.247 . S
C77 O83 1.208 . S
C78 O70 1.315 . S
C78 O73 1.279 . S
C79 O80 1.315 . S
C79 O81 1.279 . S
O80 Cd72 2.223 . S
O80 C79 1.315 . S
O81 Cd71 2.240 . S
O81 C79 1.279 . S
O82 Cd72 2.297 . S
O82 C77 1.247 . S
O83 Cd72 2.439 . S
O83 C77 1.208 . S
O84 Cd85 2.223 . S
O84 C92 1.315 . S
Cd85 O84 2.223 . S
Cd85 O88 2.297 . S
Cd85 O89 2.439 . S
Cd85 O95 2.240 . S
Cd86 O87 2.240 . S
Cd86 O94 2.223 . S
Cd86 O96 2.297 . S
Cd86 O97 2.439 . S
O87 Cd86 2.240 . S
O87 C92 1.279 . S
O88 Cd85 2.297 . S
O88 C90 1.247 . S
O89 Cd85 2.439 . S
O89 C90 1.208 . S
C90 O88 1.247 . S
C90 O89 1.208 . S
C91 O96 1.247 . S
C91 O97 1.208 . S
C92 O84 1.315 . S
C92 O87 1.279 . S
C93 O94 1.315 . S
C93 O95 1.279 . S
O94 Cd86 2.223 . S
O94 C93 1.315 . S
O95 Cd85 2.240 . S
O95 C93 1.279 . S
O96 Cd86 2.297 . S
O96 C91 1.247 . S
O97 Cd86 2.439 . S
O97 C91 1.208 . S
O98 Cd99 2.223 . S
O98 C106 1.315 . S
Cd99 O98 2.223 . S
Cd99 O102 2.297 . S
Cd99 O103 2.439 . S
Cd99 O109 2.240 . S
Cd100 O101 2.240 . S
Cd100 O108 2.223 . S
Cd100 O110 2.297 . S
Cd100 O111 2.439 . S
O101 Cd100 2.240 . S
O101 C106 1.279 . S
O102 Cd99 2.297 . S
O102 C104 1.247 . S
O103 Cd99 2.439 . S
O103 C104 1.208 . S
C104 O102 1.247 . S
C104 O103 1.208 . S
C105 O110 1.247 . S
C105 O111 1.208 . S
C106 O98 1.315 . S
C106 O101 1.279 . S
C107 O108 1.315 . S
C107 O109 1.279 . S
O108 Cd100 2.223 . S
O108 C107 1.315 . S
O109 Cd99 2.240 . S
O109 C107 1.279 . S
O110 Cd100 2.297 . S
O110 C105 1.247 . S
O111 Cd100 2.439 . S
O111 C105 1.208 . S
O112 Cd113 2.223 . S
O112 C120 1.315 . S
Cd113 O112 2.223 . S
Cd113 O116 2.297 . S
Cd113 O117 2.439 . S
Cd113 O123 2.240 . S
Cd114 O115 2.240 . S
Cd114 O122 2.223 . S
Cd114 O124 2.297 . S
Cd114 O125 2.439 . S
O115 Cd114 2.240 . S
O115 C120 1.279 . S
O116 Cd113 2.297 . S
O116 C118 1.247 . S
O117 Cd113 2.439 . S
O117 C118 1.208 . S
C118 O116 1.247 . S
C118 O117 1.208 . S
C119 O124 1.247 . S
C119 O125 1.208 . S
C120 O112 1.315 . S
C120 O115 1.279 . S
C121 O122 1.315 . S
C121 O123 1.279 . S
O122 Cd114 2.223 . S
O122 C121 1.315 . S
O123 Cd113 2.240 . S
O123 C121 1.279 . S
O124 Cd114 2.297 . S
O124 C119 1.247 . S
O125 Cd114 2.439 . S
O125 C119 1.208 . S
O126 Cd127 2.223 . S
O126 C134 1.315 . S
Cd127 O126 2.223 . S
Cd127 O130 2.297 . S
Cd127 O131 2.439 . S
Cd127 O137 2.240 . S
Cd128 O129 2.240 . S
Cd128 O136 2.223 . S
Cd128 O138 2.297 . S
Cd128 O139 2.439 . S
O129 Cd128 2.240 . S
O129 C134 1.279 . S
O130 Cd127 2.297 . S
O130 C132 1.247 . S
O131 Cd127 2.439 . S
O131 C132 1.208 . S
C132 O130 1.247 . S
C132 O131 1.208 . S
C133 O138 1.247 . S
C133 O139 1.208 . S
C134 O126 1.315 . S
C134 O129 1.279 . S
C135 O136 1.315 . S
C135 O137 1.279 . S
O136 Cd128 2.223 . S
O136 C135 1.315 . S
O137 Cd127 2.240 . S
O137 C135 1.279 . S
O138 Cd128 2.297 . S
O138 C133 1.247 . S
O139 Cd128 2.439 . S
O139 C133 1.208 . S
O140 Cd141 2.223 . S
O140 C148 1.315 . S
Cd141 O140 2.223 . S
Cd141 O144 2.297 . S
Cd141 O145 2.439 . S
Cd141 O151 2.240 . S
Cd142 O143 2.240 . S
Cd142 O150 2.223 . S
Cd142 O152 2.297 . S
Cd142 O153 2.439 . S
O143 Cd142 2.240 . S
O143 C148 1.279 . S
O144 Cd141 2.297 . S
O144 C146 1.247 . S
O145 Cd141 2.439 . S
O145 C146 1.208 . S
C146 O144 1.247 . S
C146 O145 1.208 . S
C147 O152 1.247 . S
C147 O153 1.208 . S
C148 O140 1.315 . S
C148 O143 1.279 . S
C149 O150 1.315 . S
C149 O151 1.279 . S
O150 Cd142 2.223 . S
O150 C149 1.315 . S
O151 Cd141 2.240 . S
O151 C149 1.279 . S
O152 Cd142 2.297 . S
O152 C147 1.247 . S
O153 Cd142 2.439 . S
O153 C147 1.208 . S
O154 Cd155 2.223 . S
O154 C162 1.315 . S
Cd155 O154 2.223 . S
Cd155 O158 2.297 . S
Cd155 O159 2.439 . S
Cd155 O165 2.240 . S
Cd156 O157 2.240 . S
Cd156 O164 2.223 . S
Cd156 O166 2.297 . S
Cd156 O167 2.439 . S
O157 Cd156 2.240 . S
O157 C162 1.279 . S
O158 Cd155 2.297 . S
O158 C160 1.247 . S
O159 Cd155 2.439 . S
O159 C160 1.208 . S
C160 O158 1.247 . S
C160 O159 1.208 . S
C161 O166 1.247 . S
C161 O167 1.208 . S
C162 O154 1.315 . S
C162 O157 1.279 . S
C163 O164 1.315 . S
C163 O165 1.279 . S
O164 Cd156 2.223 . S
O164 C163 1.315 . S
O165 Cd155 2.240 . S
O165 C163 1.279 . S
O166 Cd156 2.297 . S
O166 C161 1.247 . S
O167 Cd156 2.439 . S
O167 C161 1.208 . S
O168 Cd169 2.223 . S
O168 C176 1.315 . S
Cd169 O168 2.223 . S
Cd169 O172 2.297 . S
Cd169 O173 2.439 . S
Cd169 O179 2.240 . S
Cd170 O171 2.240 . S
Cd170 O178 2.223 . S
Cd170 O180 2.297 . S
Cd170 O181 2.439 . S
O171 Cd170 2.240 . S
O171 C176 1.279 . S
O172 Cd169 2.297 . S
O172 C174 1.247 . S
O173 Cd169 2.439 . S
O173 C174 1.208 . S
C174 O172 1.247 . S
C174 O173 1.208 . S
C175 O180 1.247 . S
C175 O181 1.208 . S
C176 O168 1.315 . S
C176 O171 1.279 . S
C177 O178 1.315 . S
C177 O179 1.279 . S
O178 Cd170 2.223 . S
O178 C177 1.315 . S
O179 Cd169 2.240 . S
O179 C177 1.279 . S
O180 Cd170 2.297 . S
O180 C175 1.247 . S
O181 Cd170 2.439 . S
O181 C175 1.208 . S
O182 Cd183 2.223 . S
O182 C190 1.315 . S
Cd183 O182 2.223 . S
Cd183 O186 2.297 . S
Cd183 O187 2.439 . S
Cd183 O193 2.240 . S
Cd184 O185 2.240 . S
Cd184 O192 2.223 . S
Cd184 O194 2.297 . S
Cd184 O195 2.439 . S
O185 Cd184 2.240 . S
O185 C190 1.279 . S
O186 Cd183 2.297 . S
O186 C188 1.247 . S
O187 Cd183 2.439 . S
O187 C188 1.208 . S
C188 O186 1.247 . S
C188 O187 1.208 . S
C189 O194 1.247 . S
C189 O195 1.208 . S
C190 O182 1.315 . S
C190 O185 1.279 . S
C191 O192 1.315 . S
C191 O193 1.279 . S
O192 Cd184 2.223 . S
O192 C191 1.315 . S
O193 Cd183 2.240 . S
O193 C191 1.279 . S
O194 Cd184 2.297 . S
O194 C189 1.247 . S
O195 Cd184 2.439 . S
O195 C189 1.208 . S
O196 Cd197 2.223 . S
O196 C204 1.315 . S
Cd197 O196 2.223 . S
Cd197 O200 2.297 . S
Cd197 O201 2.439 . S
Cd197 O207 2.240 . S
Cd198 O199 2.240 . S
Cd198 O206 2.223 . S
Cd198 O208 2.297 . S
Cd198 O209 2.439 . S
O199 Cd198 2.240 . S
O199 C204 1.279 . S
O200 Cd197 2.297 . S
O200 C202 1.247 . S
O201 Cd197 2.439 . S
O201 C202 1.208 . S
C202 O200 1.247 . S
C202 O201 1.208 . S
C203 O208 1.247 . S
C203 O209 1.208 . S
C204 O196 1.315 . S
C204 O199 1.279 . S
C205 O206 1.315 . S
C205 O207 1.279 . S
O206 Cd198 2.223 . S
O206 C205 1.315 . S
O207 Cd197 2.240 . S
O207 C205 1.279 . S
O208 Cd198 2.297 . S
O208 C203 1.247 . S
O209 Cd198 2.439 . S
O209 C203 1.208 . S
O210 Cd211 2.223 . S
O210 C218 1.315 . S
Cd211 O210 2.223 . S
Cd211 O214 2.297 . S
Cd211 O215 2.439 . S
Cd211 O221 2.240 . S
Cd212 O213 2.240 . S
Cd212 O220 2.223 . S
Cd212 O222 2.297 . S
Cd212 O223 2.439 . S
O213 Cd212 2.240 . S
O213 C218 1.279 . S
O214 Cd211 2.297 . S
O214 C216 1.247 . S
O215 Cd211 2.439 . S
O215 C216 1.208 . S
C216 O214 1.247 . S
C216 O215 1.208 . S
C217 O222 1.247 . S
C217 O223 1.208 . S
C218 O210 1.315 . S
C218 O213 1.279 . S
C219 O220 1.315 . S
C219 O221 1.279 . S
O220 Cd212 2.223 . S
O220 C219 1.315 . S
O221 Cd211 2.240 . S
O221 C219 1.279 . S
O222 Cd212 2.297 . S
O222 C217 1.247 . S
O223 Cd212 2.439 . S
O223 C217 1.208 . S
O224 Cd225 2.223 . S
O224 C232 1.315 . S
Cd225 O224 2.223 . S
Cd225 O228 2.297 . S
Cd225 O229 2.439 . S
Cd225 O235 2.240 . S
Cd226 O227 2.240 . S
Cd226 O234 2.223 . S
Cd226 O236 2.297 . S
Cd226 O237 2.439 . S
O227 Cd226 2.240 . S
O227 C232 1.279 . S
O228 Cd225 2.297 . S
O228 C230 1.247 . S
O229 Cd225 2.439 . S
O229 C230 1.208 . S
C230 O228 1.247 . S
C230 O229 1.208 . S
C231 O236 1.247 . S
C231 O237 1.208 . S
C232 O224 1.315 . S
C232 O227 1.279 . S
C233 O234 1.315 . S
C233 O235 1.279 . S
O234 Cd226 2.223 . S
O234 C233 1.315 . S
O235 Cd225 2.240 . S
O235 C233 1.279 . S
O236 Cd226 2.297 . S
O236 C231 1.247 . S
O237 Cd226 2.439 . S
O237 C231 1.208 . S
O238 Cd239 2.223 . S
O238 C246 1.315 . S
Cd239 O238 2.223 . S
Cd239 O242 2.297 . S
Cd239 O243 2.439 . S
Cd239 O249 2.240 . S
Cd240 O241 2.240 . S
Cd240 O248 2.223 . S
Cd240 O250 2.297 . S
Cd240 O251 2.439 . S
O241 Cd240 2.240 . S
O241 C246 1.279 . S
O242 Cd239 2.297 . S
O242 C244 1.247 . S
O243 Cd239 2.439 . S
O243 C244 1.208 . S
C244 O242 1.247 . S
C244 O243 1.208 . S
C245 O250 1.247 . S
C245 O251 1.208 . S
C246 O238 1.315 . S
C246 O241 1.279 . S
C247 O248 1.315 . S
C247 O249 1.279 . S
O248 Cd240 2.223 . S
O248 C247 1.315 . S
O249 Cd239 2.240 . S
O249 C247 1.279 . S
O250 Cd240 2.297 . S
O250 C245 1.247 . S
O251 Cd240 2.439 . S
O251 C245 1.208 . S
O252 Cd253 2.223 . S
O252 C260 1.315 . S
Cd253 O252 2.223 . S
Cd253 O256 2.297 . S
Cd253 O257 2.439 . S
Cd253 O263 2.240 . S
Cd254 O255 2.240 . S
Cd254 O262 2.223 . S
Cd254 O264 2.297 . S
Cd254 O265 2.439 . S
O255 Cd254 2.240 . S
O255 C260 1.279 . S
O256 Cd253 2.297 . S
O256 C258 1.247 . S
O257 Cd253 2.439 . S
O257 C258 1.208 . S
C258 O256 1.247 . S
C258 O257 1.208 . S
C259 O264 1.247 . S
C259 O265 1.208 . S
C260 O252 1.315 . S
C260 O255 1.279 . S
C261 O262 1.315 . S
C261 O263 1.279 . S
O262 Cd254 2.223 . S
O262 C261 1.315 . S
O263 Cd253 2.240 . S
O263 C261 1.279 . S
O264 Cd254 2.297 . S
O264 C259 1.247 . S
O265 Cd254 2.439 . S
O265 C259 1.208 . S
O266 Cd267 2.223 . S
O266 C274 1.315 . S
Cd267 O266 2.223 . S
Cd267 O270 2.297 . S
Cd267 O271 2.439 . S
Cd267 O277 2.240 . S
Cd268 O269 2.240 . S
Cd268 O276 2.223 . S
Cd268 O278 2.297 . S
Cd268 O279 2.439 . S
O269 Cd268 2.240 . S
O269 C274 1.279 . S
O270 Cd267 2.297 . S
O270 C272 1.247 . S
O271 Cd267 2.439 . S
O271 C272 1.208 . S
C272 O270 1.247 . S
C272 O271 1.208 . S
C273 O278 1.247 . S
C273 O279 1.208 . S
C274 O266 1.315 . S
C274 O269 1.279 . S
C275 O276 1.315 . S
C275 O277 1.279 . S
O276 Cd268 2.223 . S
O276 C275 1.315 . S
O277 Cd267 2.240 . S
O277 C275 1.279 . S
O278 Cd268 2.297 . S
O278 C273 1.247 . S
O279 Cd268 2.439 . S
O279 C273 1.208 . S
O280 Cd281 2.223 . S
O280 C288 1.315 . S
Cd281 O280 2.223 . S
Cd281 O284 2.297 . S
Cd281 O285 2.439 . S
Cd281 O291 2.240 . S
Cd282 O283 2.240 . S
Cd282 O290 2.223 . S
Cd282 O292 2.297 . S
Cd282 O293 2.439 . S
O283 Cd282 2.240 . S
O283 C288 1.279 . S
O284 Cd281 2.297 . S
O284 C286 1.247 . S
O285 Cd281 2.439 . S
O285 C286 1.208 . S
C286 O284 1.247 . S
C286 O285 1.208 . S
C287 O292 1.247 . S
C287 O293 1.208 . S
C288 O280 1.315 . S
C288 O283 1.279 . S
C289 O290 1.315 . S
C289 O291 1.279 . S
O290 Cd282 2.223 . S
O290 C289 1.315 . S
O291 Cd281 2.240 . S
O291 C289 1.279 . S
O292 Cd282 2.297 . S
O292 C287 1.247 . S
O293 Cd282 2.439 . S
O293 C287 1.208 . S
O294 Cd295 2.223 . S
O294 C302 1.315 . S
Cd295 O294 2.223 . S
Cd295 O298 2.297 . S
Cd295 O299 2.439 . S
Cd295 O305 2.240 . S
Cd296 O297 2.240 . S
Cd296 O304 2.223 . S
Cd296 O306 2.297 . S
Cd296 O307 2.439 . S
O297 Cd296 2.240 . S
O297 C302 1.279 . S
O298 Cd295 2.297 . S
O298 C300 1.247 . S
O299 Cd295 2.439 . S
O299 C300 1.208 . S
C300 O298 1.247 . S
C300 O299 1.208 . S
C301 O306 1.247 . S
C301 O307 1.208 . S
C302 O294 1.315 . S
C302 O297 1.279 . S
C303 O304 1.315 . S
C303 O305 1.279 . S
O304 Cd296 2.223 . S
O304 C303 1.315 . S
O305 Cd295 2.240 . S
O305 C303 1.279 . S
O306 Cd296 2.297 . S
O306 C301 1.247 . S
O307 Cd296 2.439 . S
O307 C301 1.208 . S
O308 Cd309 2.223 . S
O308 C316 1.315 . S
Cd309 O308 2.223 . S
Cd309 O312 2.297 . S
Cd309 O313 2.439 . S
Cd309 O319 2.240 . S
Cd310 O311 2.240 . S
Cd310 O318 2.223 . S
Cd310 O320 2.297 . S
Cd310 O321 2.439 . S
O311 Cd310 2.240 . S
O311 C316 1.279 . S
O312 Cd309 2.297 . S
O312 C314 1.247 . S
O313 Cd309 2.439 . S
O313 C314 1.208 . S
C314 O312 1.247 . S
C314 O313 1.208 . S
C315 O320 1.247 . S
C315 O321 1.208 . S
C316 O308 1.315 . S
C316 O311 1.279 . S
C317 O318 1.315 . S
C317 O319 1.279 . S
O318 Cd310 2.223 . S
O318 C317 1.315 . S
O319 Cd309 2.240 . S
O319 C317 1.279 . S
O320 Cd310 2.297 . S
O320 C315 1.247 . S
O321 Cd310 2.439 . S
O321 C315 1.208 . S
O322 Cd323 2.223 . S
O322 C330 1.315 . S
Cd323 O322 2.223 . S
Cd323 O326 2.297 . S
Cd323 O327 2.439 . S
Cd323 O333 2.240 . S
Cd324 O325 2.240 . S
Cd324 O332 2.223 . S
Cd324 O334 2.297 . S
Cd324 O335 2.439 . S
O325 Cd324 2.240 . S
O325 C330 1.279 . S
O326 Cd323 2.297 . S
O326 C328 1.247 . S
O327 Cd323 2.439 . S
O327 C328 1.208 . S
C328 O326 1.247 . S
C328 O327 1.208 . S
C329 O334 1.247 . S
C329 O335 1.208 . S
C330 O322 1.315 . S
C330 O325 1.279 . S
C331 O332 1.315 . S
C331 O333 1.279 . S
O332 Cd324 2.223 . S
O332 C331 1.315 . S
O333 Cd323 2.240 . S
O333 C331 1.279 . S
O334 Cd324 2.297 . S
O334 C329 1.247 . S
O335 Cd324 2.439 . S
O335 C329 1.208 . S
O336 Cd337 2.223 . S
O336 C344 1.315 . S
Cd337 O336 2.223 . S
Cd337 O340 2.297 . S
Cd337 O341 2.439 . S
Cd337 O347 2.240 . S
Cd338 O339 2.240 . S
Cd338 O346 2.223 . S
Cd338 O348 2.297 . S
Cd338 O349 2.439 . S
O339 Cd338 2.240 . S
O339 C344 1.279 . S
O340 Cd337 2.297 . S
O340 C342 1.247 . S
O341 Cd337 2.439 . S
O341 C342 1.208 . S
C342 O340 1.247 . S
C342 O341 1.208 . S
C343 O348 1.247 . S
C343 O349 1.208 . S
C344 O336 1.315 . S
C344 O339 1.279 . S
C345 O346 1.315 . S
C345 O347 1.279 . S
O346 Cd338 2.223 . S
O346 C345 1.315 . S
O347 Cd337 2.240 . S
O347 C345 1.279 . S
O348 Cd338 2.297 . S
O348 C343 1.247 . S
O349 Cd338 2.439 . S
O349 C343 1.208 . S
O350 Cd351 2.223 . S
O350 C358 1.315 . S
Cd351 O350 2.223 . S
Cd351 O354 2.297 . S
Cd351 O355 2.439 . S
Cd351 O361 2.240 . S
Cd352 O353 2.240 . S
Cd352 O360 2.223 . S
Cd352 O362 2.297 . S
Cd352 O363 2.439 . S
O353 Cd352 2.240 . S
O353 C358 1.279 . S
O354 Cd351 2.297 . S
O354 C356 1.247 . S
O355 Cd351 2.439 . S
O355 C356 1.208 . S
C356 O354 1.247 . S
C356 O355 1.208 . S
C357 O362 1.247 . S
C357 O363 1.208 . S
C358 O350 1.315 . S
C358 O353 1.279 . S
C359 O360 1.315 . S
C359 O361 1.279 . S
O360 Cd352 2.223 . S
O360 C359 1.315 . S
O361 Cd351 2.240 . S
O361 C359 1.279 . S
O362 Cd352 2.297 . S
O362 C357 1.247 . S
O363 Cd352 2.439 . S
O363 C357 1.208 . S
O364 Cd365 2.223 . S
O364 C372 1.315 . S
Cd365 O364 2.223 . S
Cd365 O368 2.297 . S
Cd365 O369 2.439 . S
Cd365 O375 2.240 . S
Cd366 O367 2.240 . S
Cd366 O374 2.223 . S
Cd366 O376 2.297 . S
Cd366 O377 2.439 . S
O367 Cd366 2.240 . S
O367 C372 1.279 . S
O368 Cd365 2.297 . S
O368 C370 1.247 . S
O369 Cd365 2.439 . S
O369 C370 1.208 . S
C370 O368 1.247 . S
C370 O369 1.208 . S
C371 O376 1.247 . S
C371 O377 1.208 . S
C372 O364 1.315 . S
C372 O367 1.279 . S
C373 O374 1.315 . S
C373 O375 1.279 . S
O374 Cd366 2.223 . S
O374 C373 1.315 . S
O375 Cd365 2.240 . S
O375 C373 1.279 . S
O376 Cd366 2.297 . S
O376 C371 1.247 . S
O377 Cd366 2.439 . S
O377 C371 1.208 . S
O378 Cd379 2.223 . S
O378 C386 1.315 . S
Cd379 O378 2.223 . S
Cd379 O382 2.297 . S
Cd379 O383 2.439 . S
Cd379 O389 2.240 . S
Cd380 O381 2.240 . S
Cd380 O388 2.223 . S
Cd380 O390 2.297 . S
Cd380 O391 2.439 . S
O381 Cd380 2.240 . S
O381 C386 1.279 . S
O382 Cd379 2.297 . S
O382 C384 1.247 . S
O383 Cd379 2.439 . S
O383 C384 1.208 . S
C384 O382 1.247 . S
C384 O383 1.208 . S
C385 O390 1.247 . S
C385 O391 1.208 . S
C386 O378 1.315 . S
C386 O381 1.279 . S
C387 O388 1.315 . S
C387 O389 1.279 . S
O388 Cd380 2.223 . S
O388 C387 1.315 . S
O389 Cd379 2.240 . S
O389 C387 1.279 . S
O390 Cd380 2.297 . S
O390 C385 1.247 . S
O391 Cd380 2.439 . S
O391 C385 1.208 . S
O392 Cd393 2.223 . S
O392 C400 1.315 . S
Cd393 O392 2.223 . S
Cd393 O396 2.297 . S
Cd393 O397 2.439 . S
Cd393 O403 2.240 . S
Cd394 O395 2.240 . S
Cd394 O402 2.223 . S
Cd394 O404 2.297 . S
Cd394 O405 2.439 . S
O395 Cd394 2.240 . S
O395 C400 1.279 . S
O396 Cd393 2.297 . S
O396 C398 1.247 . S
O397 Cd393 2.439 . S
O397 C398 1.208 . S
C398 O396 1.247 . S
C398 O397 1.208 . S
C399 O404 1.247 . S
C399 O405 1.208 . S
C400 O392 1.315 . S
C400 O395 1.279 . S
C401 O402 1.315 . S
C401 O403 1.279 . S
O402 Cd394 2.223 . S
O402 C401 1.315 . S
O403 Cd393 2.240 . S
O403 C401 1.279 . S
O404 Cd394 2.297 . S
O404 C399 1.247 . S
O405 Cd394 2.439 . S
O405 C399 1.208 . S
O406 Cd407 2.223 . S
O406 C414 1.315 . S
Cd407 O406 2.223 . S
Cd407 O410 2.297 . S
Cd407 O411 2.439 . S
Cd407 O417 2.240 . S
Cd408 O409 2.240 . S
Cd408 O416 2.223 . S
Cd408 O418 2.297 . S
Cd408 O419 2.439 . S
O409 Cd408 2.240 . S
O409 C414 1.279 . S
O410 Cd407 2.297 . S
O410 C412 1.247 . S
O411 Cd407 2.439 . S
O411 C412 1.208 . S
C412 O410 1.247 . S
C412 O411 1.208 . S
C413 O418 1.247 . S
C413 O419 1.208 . S
C414 O406 1.315 . S
C414 O409 1.279 . S
C415 O416 1.315 . S
C415 O417 1.279 . S
O416 Cd408 2.223 . S
O416 C415 1.315 . S
O417 Cd407 2.240 . S
O417 C415 1.279 . S
O418 Cd408 2.297 . S
O418 C413 1.247 . S
O419 Cd408 2.439 . S
O419 C413 1.208 . S
O420 Cd421 2.223 . S
O420 C428 1.315 . S
Cd421 O420 2.223 . S
Cd421 O424 2.297 . S
Cd421 O425 2.439 . S
Cd421 O431 2.240 . S
Cd422 O423 2.240 . S
Cd422 O430 2.223 . S
Cd422 O432 2.297 . S
Cd422 O433 2.439 . S
O423 Cd422 2.240 . S
O423 C428 1.279 . S
O424 Cd421 2.297 . S
O424 C426 1.247 . S
O425 Cd421 2.439 . S
O425 C426 1.208 . S
C426 O424 1.247 . S
C426 O425 1.208 . S
C427 O432 1.247 . S
C427 O433 1.208 . S
C428 O420 1.315 . S
C428 O423 1.279 . S
C429 O430 1.315 . S
C429 O431 1.279 . S
O430 Cd422 2.223 . S
O430 C429 1.315 . S
O431 Cd421 2.240 . S
O431 C429 1.279 . S
O432 Cd422 2.297 . S
O432 C427 1.247 . S
O433 Cd422 2.439 . S
O433 C427 1.208 . S
O434 Cd435 2.223 . S
O434 C442 1.315 . S
Cd435 O434 2.223 . S
Cd435 O438 2.297 . S
Cd435 O439 2.439 . S
Cd435 O445 2.240 . S
Cd436 O437 2.240 . S
Cd436 O444 2.223 . S
Cd436 O446 2.297 . S
Cd436 O447 2.439 . S
O437 Cd436 2.240 . S
O437 C442 1.279 . S
O438 Cd435 2.297 . S
O438 C440 1.247 . S
O439 Cd435 2.439 . S
O439 C440 1.208 . S
C440 O438 1.247 . S
C440 O439 1.208 . S
C441 O446 1.247 . S
C441 O447 1.208 . S
C442 O434 1.315 . S
C442 O437 1.279 . S
C443 O444 1.315 . S
C443 O445 1.279 . S
O444 Cd436 2.223 . S
O444 C443 1.315 . S
O445 Cd435 2.240 . S
O445 C443 1.279 . S
O446 Cd436 2.297 . S
O446 C441 1.247 . S
O447 Cd436 2.439 . S
O447 C441 1.208 . S
O448 Cd449 2.223 . S
O448 C456 1.315 . S
Cd449 O448 2.223 . S
Cd449 O452 2.297 . S
Cd449 O453 2.439 . S
Cd449 O459 2.240 . S
Cd450 O451 2.240 . S
Cd450 O458 2.223 . S
Cd450 O460 2.297 . S
Cd450 O461 2.439 . S
O451 Cd450 2.240 . S
O451 C456 1.279 . S
O452 Cd449 2.297 . S
O452 C454 1.247 . S
O453 Cd449 2.439 . S
O453 C454 1.208 . S
C454 O452 1.247 . S
C454 O453 1.208 . S
C455 O460 1.247 . S
C455 O461 1.208 . S
C456 O448 1.315 . S
C456 O451 1.279 . S
C457 O458 1.315 . S
C457 O459 1.279 . S
O458 Cd450 2.223 . S
O458 C457 1.315 . S
O459 Cd449 2.240 . S
O459 C457 1.279 . S
O460 Cd450 2.297 . S
O460 C455 1.247 . S
O461 Cd450 2.439 . S
O461 C455 1.208 . S
O462 Cd463 2.223 . S
O462 C470 1.315 . S
Cd463 O462 2.223 . S
Cd463 O466 2.297 . S
Cd463 O467 2.439 . S
Cd463 O473 2.240 . S
Cd464 O465 2.240 . S
Cd464 O472 2.223 . S
Cd464 O474 2.297 . S
Cd464 O475 2.439 . S
O465 Cd464 2.240 . S
O465 C470 1.279 . S
O466 Cd463 2.297 . S
O466 C468 1.247 . S
O467 Cd463 2.439 . S
O467 C468 1.208 . S
C468 O466 1.247 . S
C468 O467 1.208 . S
C469 O474 1.247 . S
C469 O475 1.208 . S
C470 O462 1.315 . S
C470 O465 1.279 . S
C471 O472 1.315 . S
C471 O473 1.279 . S
O472 Cd464 2.223 . S
O472 C471 1.315 . S
O473 Cd463 2.240 . S
O473 C471 1.279 . S
O474 Cd464 2.297 . S
O474 C469 1.247 . S
O475 Cd464 2.439 . S
O475 C469 1.208 . S
O476 Cd477 2.223 . S
O476 C484 1.315 . S
Cd477 O476 2.223 . S
Cd477 O480 2.297 . S
Cd477 O481 2.439 . S
Cd477 O487 2.240 . S
Cd478 O479 2.240 . S
Cd478 O486 2.223 . S
Cd478 O488 2.297 . S
Cd478 O489 2.439 . S
O479 Cd478 2.240 . S
O479 C484 1.279 . S
O480 Cd477 2.297 . S
O480 C482 1.247 . S
O481 Cd477 2.439 . S
O481 C482 1.208 . S
C482 O480 1.247 . S
C482 O481 1.208 . S
C483 O488 1.247 . S
C483 O489 1.208 . S
C484 O476 1.315 . S
C484 O479 1.279 . S
C485 O486 1.315 . S
C485 O487 1.279 . S
O486 Cd478 2.223 . S
O486 C485 1.315 . S
O487 Cd477 2.240 . S
O487 C485 1.279 . S
O488 Cd478 2.297 . S
O488 C483 1.247 . S
O489 Cd478 2.439 . S
O489 C483 1.208 . S
O490 Cd491 2.223 . S
O490 C498 1.315 . S
Cd491 O490 2.223 . S
Cd491 O494 2.297 . S
Cd491 O495 2.439 . S
Cd491 O501 2.240 . S
Cd492 O493 2.240 . S
Cd492 O500 2.223 . S
Cd492 O502 2.297 . S
Cd492 O503 2.439 . S
O493 Cd492 2.240 . S
O493 C498 1.279 . S
O494 Cd491 2.297 . S
O494 C496 1.247 . S
O495 Cd491 2.439 . S
O495 C496 1.208 . S
C496 O494 1.247 . S
C496 O495 1.208 . S
C497 O502 1.247 . S
C497 O503 1.208 . S
C498 O490 1.315 . S
C498 O493 1.279 . S
C499 O500 1.315 . S
C499 O501 1.279 . S
O500 Cd492 2.223 . S
O500 C499 1.315 . S
O501 Cd491 2.240 . S
O501 C499 1.279 . S
O502 Cd492 2.297 . S
O502 C497 1.247 . S
O503 Cd492 2.439 . S
O503 C497 1.208 . S
O504 Cd505 2.223 . S
O504 C512 1.315 . S
Cd505 O504 2.223 . S
Cd505 O508 2.297 . S
Cd505 O509 2.439 . S
Cd505 O515 2.240 . S
Cd506 O507 2.240 . S
Cd506 O514 2.223 . S
Cd506 O516 2.297 . S
Cd506 O517 2.439 . S
O507 Cd506 2.240 . S
O507 C512 1.279 . S
O508 Cd505 2.297 . S
O508 C510 1.247 . S
O509 Cd505 2.439 . S
O509 C510 1.208 . S
C510 O508 1.247 . S
C510 O509 1.208 . S
C511 O516 1.247 . S
C511 O517 1.208 . S
C512 O504 1.315 . S
C512 O507 1.279 . S
C513 O514 1.315 . S
C513 O515 1.279 . S
O514 Cd506 2.223 . S
O514 C513 1.315 . S
O515 Cd505 2.240 . S
O515 C513 1.279 . S
O516 Cd506 2.297 . S
O516 C511 1.247 . S
O517 Cd506 2.439 . S
O517 C511 1.208 . S
O518 Cd519 2.223 . S
O518 C526 1.315 . S
Cd519 O518 2.223 . S
Cd519 O522 2.297 . S
Cd519 O523 2.439 . S
Cd519 O529 2.240 . S
Cd520 O521 2.240 . S
Cd520 O528 2.223 . S
Cd520 O530 2.297 . S
Cd520 O531 2.439 . S
O521 Cd520 2.240 . S
O521 C526 1.279 . S
O522 Cd519 2.297 . S
O522 C524 1.247 . S
O523 Cd519 2.439 . S
O523 C524 1.208 . S
C524 O522 1.247 . S
C524 O523 1.208 . S
C525 O530 1.247 . S
C525 O531 1.208 . S
C526 O518 1.315 . S
C526 O521 1.279 . S
C527 O528 1.315 . S
C527 O529 1.279 . S
O528 Cd520 2.223 . S
O528 C527 1.315 . S
O529 Cd519 2.240 . S
O529 C527 1.279 . S
O530 Cd520 2.297 . S
O530 C525 1.247 . S
O531 Cd520 2.439 . S
O531 C525 1.208 . S
O532 Cd533 2.223 . S
O532 C540 1.315 . S
Cd533 O532 2.223 . S
Cd533 O536 2.297 . S
Cd533 O537 2.439 . S
Cd533 O543 2.240 . S
Cd534 O535 2.240 . S
Cd534 O542 2.223 . S
Cd534 O544 2.297 . S
Cd534 O545 2.439 . S
O535 Cd534 2.240 . S
O535 C540 1.279 . S
O536 Cd533 2.297 . S
O536 C538 1.247 . S
O537 Cd533 2.439 . S
O537 C538 1.208 . S
C538 O536 1.247 . S
C538 O537 1.208 . S
C539 O544 1.247 . S
C539 O545 1.208 . S
C540 O532 1.315 . S
C540 O535 1.279 . S
C541 O542 1.315 . S
C541 O543 1.279 . S
O542 Cd534 2.223 . S
O542 C541 1.315 . S
O543 Cd533 2.240 . S
O543 C541 1.279 . S
O544 Cd534 2.297 . S
O544 C539 1.247 . S
O545 Cd534 2.439 . S
O545 C539 1.208 . S
O546 Cd547 2.223 . S
O546 C554 1.315 . S
Cd547 O546 2.223 . S
Cd547 O550 2.297 . S
Cd547 O551 2.439 . S
Cd547 O557 2.240 . S
Cd548 O549 2.240 . S
Cd548 O556 2.223 . S
Cd548 O558 2.297 . S
Cd548 O559 2.439 . S
O549 Cd548 2.240 . S
O549 C554 1.279 . S
O550 Cd547 2.297 . S
O550 C552 1.247 . S
O551 Cd547 2.439 . S
O551 C552 1.208 . S
C552 O550 1.247 . S
C552 O551 1.208 . S
C553 O558 1.247 . S
C553 O559 1.208 . S
C554 O546 1.315 . S
C554 O549 1.279 . S
C555 O556 1.315 . S
C555 O557 1.279 . S
O556 Cd548 2.223 . S
O556 C555 1.315 . S
O557 Cd547 2.240 . S
O557 C555 1.279 . S
O558 Cd548 2.297 . S
O558 C553 1.247 . S
O559 Cd548 2.439 . S
O559 C553 1.208 . S
O560 Cd561 2.223 . S
O560 C568 1.315 . S
Cd561 O560 2.223 . S
Cd561 O564 2.297 . S
Cd561 O565 2.439 . S
Cd561 O571 2.240 . S
Cd562 O563 2.240 . S
Cd562 O570 2.223 . S
Cd562 O572 2.297 . S
Cd562 O573 2.439 . S
O563 Cd562 2.240 . S
O563 C568 1.279 . S
O564 Cd561 2.297 . S
O564 C566 1.247 . S
O565 Cd561 2.439 . S
O565 C566 1.208 . S
C566 O564 1.247 . S
C566 O565 1.208 . S
C567 O572 1.247 . S
C567 O573 1.208 . S
C568 O560 1.315 . S
C568 O563 1.279 . S
C569 O570 1.315 . S
C569 O571 1.279 . S
O570 Cd562 2.223 . S
O570 C569 1.315 . S
O571 Cd561 2.240 . S
O571 C569 1.279 . S
O572 Cd562 2.297 . S
O572 C567 1.247 . S
O573 Cd562 2.439 . S
O573 C567 1.208 . S
O574 Cd575 2.223 . S
O574 C582 1.315 . S
Cd575 O574 2.223 . S
Cd575 O578 2.297 . S
Cd575 O579 2.439 . S
Cd575 O585 2.240 . S
Cd576 O577 2.240 . S
Cd576 O584 2.223 . S
Cd576 O586 2.297 . S
Cd576 O587 2.439 . S
O577 Cd576 2.240 . S
O577 C582 1.279 . S
O578 Cd575 2.297 . S
O578 C580 1.247 . S
O579 Cd575 2.439 . S
O579 C580 1.208 . S
C580 O578 1.247 . S
C580 O579 1.208 . S
C581 O586 1.247 . S
C581 O587 1.208 . S
C582 O574 1.315 . S
C582 O577 1.279 . S
C583 O584 1.315 . S
C583 O585 1.279 . S
O584 Cd576 2.223 . S
O584 C583 1.315 . S
O585 Cd575 2.240 . S
O585 C583 1.279 . S
O586 Cd576 2.297 . S
O586 C581 1.247 . S
O587 Cd576 2.439 . S
O587 C581 1.208 . S
O588 Cd589 2.223 . S
O588 C596 1.315 . S
Cd589 O588 2.223 . S
Cd589 O592 2.297 . S
Cd589 O593 2.439 . S
Cd589 O599 2.240 . S
Cd590 O591 2.240 . S
Cd590 O598 2.223 . S
Cd590 O600 2.297 . S
Cd590 O601 2.439 . S
O591 Cd590 2.240 . S
O591 C596 1.279 . S
O592 Cd589 2.297 . S
O592 C594 1.247 . S
O593 Cd589 2.439 . S
O593 C594 1.208 . S
C594 O592 1.247 . S
C594 O593 1.208 . S
C595 O600 1.247 . S
C595 O601 1.208 . S
C596 O588 1.315 . S
C596 O591 1.279 . S
C597 O598 1.315 . S
C597 O599 1.279 . S
O598 Cd590 2.223 . S
O598 C597 1.315 . S
O599 Cd589 2.240 . S
O599 C597 1.279 . S
O600 Cd590 2.297 . S
O600 C595 1.247 . S
O601 Cd590 2.439 . S
O601 C595 1.208 . S
O602 Cd603 2.223 . S
O602 C610 1.315 . S
Cd603 O602 2.223 . S
Cd603 O606 2.297 . S
Cd603 O607 2.439 . S
Cd603 O613 2.240 . S
Cd604 O605 2.240 . S
Cd604 O612 2.223 . S
Cd604 O614 2.297 . S
Cd604 O615 2.439 . S
O605 Cd604 2.240 . S
O605 C610 1.279 . S
O606 Cd603 2.297 . S
O606 C608 1.247 . S
O607 Cd603 2.439 . S
O607 C608 1.208 . S
C608 O606 1.247 . S
C608 O607 1.208 . S
C609 O614 1.247 . S
C609 O615 1.208 . S
C610 O602 1.315 . S
C610 O605 1.279 . S
C611 O612 1.315 . S
C611 O613 1.279 . S
O612 Cd604 2.223 . S
O612 C611 1.315 . S
O613 Cd603 2.240 . S
O613 C611 1.279 . S
O614 Cd604 2.297 . S
O614 C609 1.247 . S
O615 Cd604 2.439 . S
O615 C609 1.208 . S
O616 Cd617 2.223 . S
O616 C624 1.315 . S
Cd617 O616 2.223 . S
Cd617 O620 2.297 . S
Cd617 O621 2.439 . S
Cd617 O627 2.240 . S
Cd618 O619 2.240 . S
Cd618 O626 2.223 . S
Cd618 O628 2.297 . S
Cd618 O629 2.439 . S
O619 Cd618 2.240 . S
O619 C624 1.279 . S
O620 Cd617 2.297 . S
O620 C622 1.247 . S
O621 Cd617 2.439 . S
O621 C622 1.208 . S
C622 O620 1.247 . S
C622 O621 1.208 . S
C623 O628 1.247 . S
C623 O629 1.208 . S
C624 O616 1.315 . S
C624 O619 1.279 . S
C625 O626 1.315 . S
C625 O627 1.279 . S
O626 Cd618 2.223 . S
O626 C625 1.315 . S
O627 Cd617 2.240 . S
O627 C625 1.279 . S
O628 Cd618 2.297 . S
O628 C623 1.247 . S
O629 Cd618 2.439 . S
O629 C623 1.208 . S
O630 Cd631 2.223 . S
O630 C638 1.315 . S
Cd631 O630 2.223 . S
Cd631 O634 2.297 . S
Cd631 O635 2.439 . S
Cd631 O641 2.240 . S
Cd632 O633 2.240 . S
Cd632 O640 2.223 . S
Cd632 O642 2.297 . S
Cd632 O643 2.439 . S
O633 Cd632 2.240 . S
O633 C638 1.279 . S
O634 Cd631 2.297 . S
O634 C636 1.247 . S
O635 Cd631 2.439 . S
O635 C636 1.208 . S
C636 O634 1.247 . S
C636 O635 1.208 . S
C637 O642 1.247 . S
C637 O643 1.208 . S
C638 O630 1.315 . S
C638 O633 1.279 . S
C639 O640 1.315 . S
C639 O641 1.279 . S
O640 Cd632 2.223 . S
O640 C639 1.315 . S
O641 Cd631 2.240 . S
O641 C639 1.279 . S
O642 Cd632 2.297 . S
O642 C637 1.247 . S
O643 Cd632 2.439 . S
O643 C637 1.208 . S
O644 Cd645 2.223 . S
O644 C652 1.315 . S
Cd645 O644 2.223 . S
Cd645 O648 2.297 . S
Cd645 O649 2.439 . S
Cd645 O655 2.240 . S
Cd646 O647 2.240 . S
Cd646 O654 2.223 . S
Cd646 O656 2.297 . S
Cd646 O657 2.439 . S
O647 Cd646 2.240 . S
O647 C652 1.279 . S
O648 Cd645 2.297 . S
O648 C650 1.247 . S
O649 Cd645 2.439 . S
O649 C650 1.208 . S
C650 O648 1.247 . S
C650 O649 1.208 . S
C651 O656 1.247 . S
C651 O657 1.208 . S
C652 O644 1.315 . S
C652 O647 1.279 . S
C653 O654 1.315 . S
C653 O655 1.279 . S
O654 Cd646 2.223 . S
O654 C653 1.315 . S
O655 Cd645 2.240 . S
O655 C653 1.279 . S
O656 Cd646 2.297 . S
O656 C651 1.247 . S
O657 Cd646 2.439 . S
O657 C651 1.208 . S
O658 Cd659 2.223 . S
O658 C666 1.315 . S
Cd659 O658 2.223 . S
Cd659 O662 2.297 . S
Cd659 O663 2.439 . S
Cd659 O669 2.240 . S
Cd660 O661 2.240 . S
Cd660 O668 2.223 . S
Cd660 O670 2.297 . S
Cd660 O671 2.439 . S
O661 Cd660 2.240 . S
O661 C666 1.279 . S
O662 Cd659 2.297 . S
O662 C664 1.247 . S
O663 Cd659 2.439 . S
O663 C664 1.208 . S
C664 O662 1.247 . S
C664 O663 1.208 . S
C665 O670 1.247 . S
C665 O671 1.208 . S
C666 O658 1.315 . S
C666 O661 1.279 . S
C667 O668 1.315 . S
C667 O669 1.279 . S
O668 Cd660 2.223 . S
O668 C667 1.315 . S
O669 Cd659 2.240 . S
O669 C667 1.279 . S
O670 Cd660 2.297 . S
O670 C665 1.247 . S
O671 Cd660 2.439 . S
O671 C665 1.208 . S
C672 C673 1.391 . S
C672 C674 1.394 . S
C672 H688 0.931 . S
C673 C672 1.391 . S
C673 C677 1.376 . S
C674 C672 1.394 . S
C674 C675 1.369 . S
C674 C678 1.531 . S
C675 C674 1.369 . S
C675 C676 1.410 . S
C675 C683 1.503 . S
C676 C675 1.410 . S
C676 C677 1.392 . S
C676 C679 1.511 . S
C677 C673 1.376 . S
C677 C676 1.392 . S
C677 H689 0.929 . S
C678 C674 1.531 . S
C678 H690 0.960 . S
C678 H691 0.962 . S
C678 H692 0.960 . S
C679 C676 1.511 . S
C679 H693 0.961 . S
C679 H694 0.961 . S
C679 H695 0.961 . S
C680 C681 1.370 . S
C680 C682 1.363 . S
C680 H696 0.931 . S
C681 C680 1.370 . S
C681 C685 1.408 . S
C682 C680 1.363 . S
C682 C683 1.370 . S
C682 C686 1.524 . S
C683 C675 1.503 . S
C683 C682 1.370 . S
C683 C684 1.403 . S
C684 C683 1.403 . S
C684 C685 1.404 . S
C684 C687 1.539 . S
C685 C681 1.408 . S
C685 C684 1.404 . S
C685 H697 0.930 . S
C686 C682 1.524 . S
C686 H698 0.956 . S
C686 H699 0.961 . S
C686 H700 0.961 . S
C687 C684 1.539 . S
C687 H701 0.958 . S
C687 H702 0.961 . S
C687 H703 0.960 . S
H688 C672 0.931 . S
H689 C677 0.929 . S
H690 C678 0.960 . S
H691 C678 0.962 . S
H692 C678 0.960 . S
H693 C679 0.961 . S
H694 C679 0.961 . S
H695 C679 0.961 . S
H696 C680 0.931 . S
H697 C685 0.930 . S
H698 C686 0.956 . S
H699 C686 0.961 . S
H700 C686 0.961 . S
H701 C687 0.958 . S
H702 C687 0.961 . S
H703 C687 0.960 . S
C704 C705 1.391 . S
C704 C706 1.394 . S
C704 H720 0.931 . S
C705 C704 1.391 . S
C705 C709 1.376 . S
C706 C704 1.394 . S
C706 C707 1.369 . S
C706 C710 1.531 . S
C707 C706 1.369 . S
C707 C708 1.410 . S
C707 C715 1.503 . S
C708 C707 1.410 . S
C708 C709 1.392 . S
C708 C711 1.511 . S
C709 C705 1.376 . S
C709 C708 1.392 . S
C709 H721 0.929 . S
C710 C706 1.531 . S
C710 H722 0.960 . S
C710 H723 0.962 . S
C710 H724 0.960 . S
C711 C708 1.511 . S
C711 H725 0.961 . S
C711 H726 0.961 . S
C711 H727 0.961 . S
C712 C713 1.370 . S
C712 C714 1.363 . S
C712 H728 0.931 . S
C713 C712 1.370 . S
C713 C717 1.408 . S
C714 C712 1.363 . S
C714 C715 1.370 . S
C714 C718 1.524 . S
C715 C707 1.503 . S
C715 C714 1.370 . S
C715 C716 1.403 . S
C716 C715 1.403 . S
C716 C717 1.404 . S
C716 C719 1.539 . S
C717 C713 1.408 . S
C717 C716 1.404 . S
C717 H729 0.930 . S
C718 C714 1.524 . S
C718 H730 0.956 . S
C718 H731 0.961 . S
C718 H732 0.961 . S
C719 C716 1.539 . S
C719 H733 0.958 . S
C719 H734 0.961 . S
C719 H735 0.960 . S
H720 C704 0.931 . S
H721 C709 0.929 . S
H722 C710 0.960 . S
H723 C710 0.962 . S
H724 C710 0.960 . S
H725 C711 0.961 . S
H726 C711 0.961 . S
H727 C711 0.961 . S
H728 C712 0.931 . S
H729 C717 0.930 . S
H730 C718 0.956 . S
H731 C718 0.961 . S
H732 C718 0.961 . S
H733 C719 0.958 . S
H734 C719 0.961 . S
H735 C719 0.960 . S
C736 C737 1.391 . S
C736 C738 1.394 . S
C736 H752 0.931 . S
C737 C736 1.391 . S
C737 C741 1.376 . S
C738 C736 1.394 . S
C738 C739 1.369 . S
C738 C742 1.531 . S
C739 C738 1.369 . S
C739 C740 1.410 . S
C739 C747 1.503 . S
C740 C739 1.410 . S
C740 C741 1.392 . S
C740 C743 1.511 . S
C741 C737 1.376 . S
C741 C740 1.392 . S
C741 H753 0.929 . S
C742 C738 1.531 . S
C742 H754 0.960 . S
C742 H755 0.962 . S
C742 H756 0.960 . S
C743 C740 1.511 . S
C743 H757 0.961 . S
C743 H758 0.961 . S
C743 H759 0.961 . S
C744 C745 1.370 . S
C744 C746 1.363 . S
C744 H760 0.931 . S
C745 C744 1.370 . S
C745 C749 1.408 . S
C746 C744 1.363 . S
C746 C747 1.370 . S
C746 C750 1.524 . S
C747 C739 1.503 . S
C747 C746 1.370 . S
C747 C748 1.403 . S
C748 C747 1.403 . S
C748 C749 1.404 . S
C748 C751 1.539 . S
C749 C745 1.408 . S
C749 C748 1.404 . S
C749 H761 0.930 . S
C750 C746 1.524 . S
C750 H762 0.956 . S
C750 H763 0.961 . S
C750 H764 0.961 . S
C751 C748 1.539 . S
C751 H765 0.958 . S
C751 H766 0.961 . S
C751 H767 0.960 . S
H752 C736 0.931 . S
H753 C741 0.929 . S
H754 C742 0.960 . S
H755 C742 0.962 . S
H756 C742 0.960 . S
H757 C743 0.961 . S
H758 C743 0.961 . S
H759 C743 0.961 . S
H760 C744 0.931 . S
H761 C749 0.930 . S
H762 C750 0.956 . S
H763 C750 0.961 . S
H764 C750 0.961 . S
H765 C751 0.958 . S
H766 C751 0.961 . S
H767 C751 0.960 . S
C768 C769 1.391 . S
C768 C770 1.394 . S
C768 H784 0.931 . S
C769 C768 1.391 . S
C769 C773 1.376 . S
C770 C768 1.394 . S
C770 C771 1.369 . S
C770 C774 1.531 . S
C771 C770 1.369 . S
C771 C772 1.410 . S
C771 C779 1.503 . S
C772 C771 1.410 . S
C772 C773 1.392 . S
C772 C775 1.511 . S
C773 C769 1.376 . S
C773 C772 1.392 . S
C773 H785 0.929 . S
C774 C770 1.531 . S
C774 H786 0.960 . S
C774 H787 0.962 . S
C774 H788 0.960 . S
C775 C772 1.511 . S
C775 H789 0.961 . S
C775 H790 0.961 . S
C775 H791 0.961 . S
C776 C777 1.370 . S
C776 C778 1.363 . S
C776 H792 0.931 . S
C777 C776 1.370 . S
C777 C781 1.408 . S
C778 C776 1.363 . S
C778 C779 1.370 . S
C778 C782 1.524 . S
C779 C771 1.503 . S
C779 C778 1.370 . S
C779 C780 1.403 . S
C780 C779 1.403 . S
C780 C781 1.404 . S
C780 C783 1.539 . S
C781 C777 1.408 . S
C781 C780 1.404 . S
C781 H793 0.930 . S
C782 C778 1.524 . S
C782 H794 0.956 . S
C782 H795 0.961 . S
C782 H796 0.961 . S
C783 C780 1.539 . S
C783 H797 0.958 . S
C783 H798 0.961 . S
C783 H799 0.960 . S
H784 C768 0.931 . S
H785 C773 0.929 . S
H786 C774 0.960 . S
H787 C774 0.962 . S
H788 C774 0.960 . S
H789 C775 0.961 . S
H790 C775 0.961 . S
H791 C775 0.961 . S
H792 C776 0.931 . S
H793 C781 0.930 . S
H794 C782 0.956 . S
H795 C782 0.961 . S
H796 C782 0.961 . S
H797 C783 0.958 . S
H798 C783 0.961 . S
H799 C783 0.960 . S
C800 C801 1.391 . S
C800 C802 1.394 . S
C800 H816 0.931 . S
C801 C800 1.391 . S
C801 C805 1.376 . S
C802 C800 1.394 . S
C802 C803 1.369 . S
C802 C806 1.531 . S
C803 C802 1.369 . S
C803 C804 1.410 . S
C803 C811 1.503 . S
C804 C803 1.410 . S
C804 C805 1.392 . S
C804 C807 1.511 . S
C805 C801 1.376 . S
C805 C804 1.392 . S
C805 H817 0.929 . S
C806 C802 1.531 . S
C806 H818 0.960 . S
C806 H819 0.962 . S
C806 H820 0.960 . S
C807 C804 1.511 . S
C807 H821 0.961 . S
C807 H822 0.961 . S
C807 H823 0.961 . S
C808 C809 1.370 . S
C808 C810 1.363 . S
C808 H824 0.931 . S
C809 C808 1.370 . S
C809 C813 1.408 . S
C810 C808 1.363 . S
C810 C811 1.370 . S
C810 C814 1.524 . S
C811 C803 1.503 . S
C811 C810 1.370 . S
C811 C812 1.403 . S
C812 C811 1.403 . S
C812 C813 1.404 . S
C812 C815 1.539 . S
C813 C809 1.408 . S
C813 C812 1.404 . S
C813 H825 0.930 . S
C814 C810 1.524 . S
C814 H826 0.956 . S
C814 H827 0.961 . S
C814 H828 0.961 . S
C815 C812 1.539 . S
C815 H829 0.958 . S
C815 H830 0.961 . S
C815 H831 0.960 . S
H816 C800 0.931 . S
H817 C805 0.929 . S
H818 C806 0.960 . S
H819 C806 0.962 . S
H820 C806 0.960 . S
H821 C807 0.961 . S
H822 C807 0.961 . S
H823 C807 0.961 . S
H824 C808 0.931 . S
H825 C813 0.930 . S
H826 C814 0.956 . S
H827 C814 0.961 . S
H828 C814 0.961 . S
H829 C815 0.958 . S
H830 C815 0.961 . S
H831 C815 0.960 . S
C832 C833 1.391 . S
C832 C834 1.394 . S
C832 H848 0.931 . S
C833 C832 1.391 . S
C833 C837 1.376 . S
C834 C832 1.394 . S
C834 C835 1.369 . S
C834 C838 1.531 . S
C835 C834 1.369 . S
C835 C836 1.410 . S
C835 C843 1.503 . S
C836 C835 1.410 . S
C836 C837 1.392 . S
C836 C839 1.511 . S
C837 C833 1.376 . S
C837 C836 1.392 . S
C837 H849 0.929 . S
C838 C834 1.531 . S
C838 H850 0.960 . S
C838 H851 0.962 . S
C838 H852 0.960 . S
C839 C836 1.511 . S
C839 H853 0.961 . S
C839 H854 0.961 . S
C839 H855 0.961 . S
C840 C841 1.370 . S
C840 C842 1.363 . S
C840 H856 0.931 . S
C841 C840 1.370 . S
C841 C845 1.408 . S
C842 C840 1.363 . S
C842 C843 1.370 . S
C842 C846 1.524 . S
C843 C835 1.503 . S
C843 C842 1.370 . S
C843 C844 1.403 . S
C844 C843 1.403 . S
C844 C845 1.404 . S
C844 C847 1.539 . S
C845 C841 1.408 . S
C845 C844 1.404 . S
C845 H857 0.930 . S
C846 C842 1.524 . S
C846 H858 0.956 . S
C846 H859 0.961 . S
C846 H860 0.961 . S
C847 C844 1.539 . S
C847 H861 0.958 . S
C847 H862 0.961 . S
C847 H863 0.960 . S
H848 C832 0.931 . S
H849 C837 0.929 . S
H850 C838 0.960 . S
H851 C838 0.962 . S
H852 C838 0.960 . S
H853 C839 0.961 . S
H854 C839 0.961 . S
H855 C839 0.961 . S
H856 C840 0.931 . S
H857 C845 0.930 . S
H858 C846 0.956 . S
H859 C846 0.961 . S
H860 C846 0.961 . S
H861 C847 0.958 . S
H862 C847 0.961 . S
H863 C847 0.960 . S
C864 C865 1.391 . S
C864 C866 1.394 . S
C864 H880 0.931 . S
C865 C864 1.391 . S
C865 C869 1.376 . S
C866 C864 1.394 . S
C866 C867 1.369 . S
C866 C870 1.531 . S
C867 C866 1.369 . S
C867 C868 1.410 . S
C867 C875 1.503 . S
C868 C867 1.410 . S
C868 C869 1.392 . S
C868 C871 1.511 . S
C869 C865 1.376 . S
C869 C868 1.392 . S
C869 H881 0.929 . S
C870 C866 1.531 . S
C870 H882 0.960 . S
C870 H883 0.962 . S
C870 H884 0.960 . S
C871 C868 1.511 . S
C871 H885 0.961 . S
C871 H886 0.961 . S
C871 H887 0.961 . S
C872 C873 1.370 . S
C872 C874 1.363 . S
C872 H888 0.931 . S
C873 C872 1.370 . S
C873 C877 1.408 . S
C874 C872 1.363 . S
C874 C875 1.370 . S
C874 C878 1.524 . S
C875 C867 1.503 . S
C875 C874 1.370 . S
C875 C876 1.403 . S
C876 C875 1.403 . S
C876 C877 1.404 . S
C876 C879 1.539 . S
C877 C873 1.408 . S
C877 C876 1.404 . S
C877 H889 0.930 . S
C878 C874 1.524 . S
C878 H890 0.956 . S
C878 H891 0.961 . S
C878 H892 0.961 . S
C879 C876 1.539 . S
C879 H893 0.958 . S
C879 H894 0.961 . S
C879 H895 0.960 . S
H880 C864 0.931 . S
H881 C869 0.929 . S
H882 C870 0.960 . S
H883 C870 0.962 . S
H884 C870 0.960 . S
H885 C871 0.961 . S
H886 C871 0.961 . S
H887 C871 0.961 . S
H888 C872 0.931 . S
H889 C877 0.930 . S
H890 C878 0.956 . S
H891 C878 0.961 . S
H892 C878 0.961 . S
H893 C879 0.958 . S
H894 C879 0.961 . S
H895 C879 0.960 . S
C896 C897 1.391 . S
C896 C898 1.394 . S
C896 H912 0.931 . S
C897 C896 1.391 . S
C897 C901 1.376 . S
C898 C896 1.394 . S
C898 C899 1.369 . S
C898 C902 1.531 . S
C899 C898 1.369 . S
C899 C900 1.410 . S
C899 C907 1.503 . S
C900 C899 1.410 . S
C900 C901 1.392 . S
C900 C903 1.511 . S
C901 C897 1.376 . S
C901 C900 1.392 . S
C901 H913 0.929 . S
C902 C898 1.531 . S
C902 H914 0.960 . S
C902 H915 0.962 . S
C902 H916 0.960 . S
C903 C900 1.511 . S
C903 H917 0.961 . S
C903 H918 0.961 . S
C903 H919 0.961 . S
C904 C905 1.370 . S
C904 C906 1.363 . S
C904 H920 0.931 . S
C905 C904 1.370 . S
C905 C909 1.408 . S
C906 C904 1.363 . S
C906 C907 1.370 . S
C906 C910 1.524 . S
C907 C899 1.503 . S
C907 C906 1.370 . S
C907 C908 1.403 . S
C908 C907 1.403 . S
C908 C909 1.404 . S
C908 C911 1.539 . S
C909 C905 1.408 . S
C909 C908 1.404 . S
C909 H921 0.930 . S
C910 C906 1.524 . S
C910 H922 0.956 . S
C910 H923 0.961 . S
C910 H924 0.961 . S
C911 C908 1.539 . S
C911 H925 0.958 . S
C911 H926 0.961 . S
C911 H927 0.960 . S
H912 C896 0.931 . S
H913 C901 0.929 . S
H914 C902 0.960 . S
H915 C902 0.962 . S
H916 C902 0.960 . S
H917 C903 0.961 . S
H918 C903 0.961 . S
H919 C903 0.961 . S
H920 C904 0.931 . S
H921 C909 0.930 . S
H922 C910 0.956 . S
H923 C910 0.961 . S
H924 C910 0.961 . S
H925 C911 0.958 . S
H926 C911 0.961 . S
H927 C911 0.960 . S
C928 C929 1.391 . S
C928 C930 1.394 . S
C928 H944 0.931 . S
C929 C928 1.391 . S
C929 C933 1.376 . S
C930 C928 1.394 . S
C930 C931 1.369 . S
C930 C934 1.531 . S
C931 C930 1.369 . S
C931 C932 1.410 . S
C931 C939 1.503 . S
C932 C931 1.410 . S
C932 C933 1.392 . S
C932 C935 1.511 . S
C933 C929 1.376 . S
C933 C932 1.392 . S
C933 H945 0.929 . S
C934 C930 1.531 . S
C934 H946 0.960 . S
C934 H947 0.962 . S
C934 H948 0.960 . S
C935 C932 1.511 . S
C935 H949 0.961 . S
C935 H950 0.961 . S
C935 H951 0.961 . S
C936 C937 1.370 . S
C936 C938 1.363 . S
C936 H952 0.931 . S
C937 C936 1.370 . S
C937 C941 1.408 . S
C938 C936 1.363 . S
C938 C939 1.370 . S
C938 C942 1.524 . S
C939 C931 1.503 . S
C939 C938 1.370 . S
C939 C940 1.403 . S
C940 C939 1.403 . S
C940 C941 1.404 . S
C940 C943 1.539 . S
C941 C937 1.408 . S
C941 C940 1.404 . S
C941 H953 0.930 . S
C942 C938 1.524 . S
C942 H954 0.956 . S
C942 H955 0.961 . S
C942 H956 0.961 . S
C943 C940 1.539 . S
C943 H957 0.958 . S
C943 H958 0.961 . S
C943 H959 0.960 . S
H944 C928 0.931 . S
H945 C933 0.929 . S
H946 C934 0.960 . S
H947 C934 0.962 . S
H948 C934 0.960 . S
H949 C935 0.961 . S
H950 C935 0.961 . S
H951 C935 0.961 . S
H952 C936 0.931 . S
H953 C941 0.930 . S
H954 C942 0.956 . S
H955 C942 0.961 . S
H956 C942 0.961 . S
H957 C943 0.958 . S
H958 C943 0.961 . S
H959 C943 0.960 . S
C960 C961 1.391 . S
C960 C962 1.394 . S
C960 H976 0.931 . S
C961 C960 1.391 . S
C961 C965 1.376 . S
C962 C960 1.394 . S
C962 C963 1.369 . S
C962 C966 1.531 . S
C963 C962 1.369 . S
C963 C964 1.410 . S
C963 C971 1.503 . S
C964 C963 1.410 . S
C964 C965 1.392 . S
C964 C967 1.511 . S
C965 C961 1.376 . S
C965 C964 1.392 . S
C965 H977 0.929 . S
C966 C962 1.531 . S
C966 H978 0.960 . S
C966 H979 0.962 . S
C966 H980 0.960 . S
C967 C964 1.511 . S
C967 H981 0.961 . S
C967 H982 0.961 . S
C967 H983 0.961 . S
C968 C969 1.370 . S
C968 C970 1.363 . S
C968 H984 0.931 . S
C969 C968 1.370 . S
C969 C973 1.408 . S
C970 C968 1.363 . S
C970 C971 1.370 . S
C970 C974 1.524 . S
C971 C963 1.503 . S
C971 C970 1.370 . S
C971 C972 1.403 . S
C972 C971 1.403 . S
C972 C973 1.404 . S
C972 C975 1.539 . S
C973 C969 1.408 . S
C973 C972 1.404 . S
C973 H985 0.930 . S
C974 C970 1.524 . S
C974 H986 0.956 . S
C974 H987 0.961 . S
C974 H988 0.961 . S
C975 C972 1.539 . S
C975 H989 0.958 . S
C975 H990 0.961 . S
C975 H991 0.960 . S
H976 C960 0.931 . S
H977 C965 0.929 . S
H978 C966 0.960 . S
H979 C966 0.962 . S
H980 C966 0.960 . S
H981 C967 0.961 . S
H982 C967 0.961 . S
H983 C967 0.961 . S
H984 C968 0.931 . S
H985 C973 0.930 . S
H986 C974 0.956 . S
H987 C974 0.961 . S
H988 C974 0.961 . S
H989 C975 0.958 . S
H990 C975 0.961 . S
H991 C975 0.960 . S
C992 C993 1.391 . S
C992 C994 1.394 . S
C992 H1008 0.931 . S
C993 C992 1.391 . S
C993 C997 1.376 . S
C994 C992 1.394 . S
C994 C995 1.369 . S
C994 C998 1.531 . S
C995 C994 1.369 . S
C995 C996 1.410 . S
C995 C1003 1.503 . S
C996 C995 1.410 . S
C996 C997 1.392 . S
C996 C999 1.511 . S
C997 C993 1.376 . S
C997 C996 1.392 . S
C997 H1009 0.929 . S
C998 C994 1.531 . S
C998 H1010 0.960 . S
C998 H1011 0.962 . S
C998 H1012 0.960 . S
C999 C996 1.511 . S
C999 H1013 0.961 . S
C999 H1014 0.961 . S
C999 H1015 0.961 . S
C1000 C1001 1.370 . S
C1000 C1002 1.363 . S
C1000 H1016 0.931 . S
C1001 C1000 1.370 . S
C1001 C1005 1.408 . S
C1002 C1000 1.363 . S
C1002 C1003 1.370 . S
C1002 C1006 1.524 . S
C1003 C995 1.503 . S
C1003 C1002 1.370 . S
C1003 C1004 1.403 . S
C1004 C1003 1.403 . S
C1004 C1005 1.404 . S
C1004 C1007 1.539 . S
C1005 C1001 1.408 . S
C1005 C1004 1.404 . S
C1005 H1017 0.930 . S
C1006 C1002 1.524 . S
C1006 H1018 0.956 . S
C1006 H1019 0.961 . S
C1006 H1020 0.961 . S
C1007 C1004 1.539 . S
C1007 H1021 0.958 . S
C1007 H1022 0.961 . S
C1007 H1023 0.960 . S
H1008 C992 0.931 . S
H1009 C997 0.929 . S
H1010 C998 0.960 . S
H1011 C998 0.962 . S
H1012 C998 0.960 . S
H1013 C999 0.961 . S
H1014 C999 0.961 . S
H1015 C999 0.961 . S
H1016 C1000 0.931 . S
H1017 C1005 0.930 . S
H1018 C1006 0.956 . S
H1019 C1006 0.961 . S
H1020 C1006 0.961 . S
H1021 C1007 0.958 . S
H1022 C1007 0.961 . S
H1023 C1007 0.960 . S
C1024 C1025 1.391 . S
C1024 C1026 1.394 . S
C1024 H1040 0.931 . S
C1025 C1024 1.391 . S
C1025 C1029 1.376 . S
C1026 C1024 1.394 . S
C1026 C1027 1.369 . S
C1026 C1030 1.531 . S
C1027 C1026 1.369 . S
C1027 C1028 1.410 . S
C1027 C1035 1.503 . S
C1028 C1027 1.410 . S
C1028 C1029 1.392 . S
C1028 C1031 1.511 . S
C1029 C1025 1.376 . S
C1029 C1028 1.392 . S
C1029 H1041 0.929 . S
C1030 C1026 1.531 . S
C1030 H1042 0.960 . S
C1030 H1043 0.962 . S
C1030 H1044 0.960 . S
C1031 C1028 1.511 . S
C1031 H1045 0.961 . S
C1031 H1046 0.961 . S
C1031 H1047 0.961 . S
C1032 C1033 1.370 . S
C1032 C1034 1.363 . S
C1032 H1048 0.931 . S
C1033 C1032 1.370 . S
C1033 C1037 1.408 . S
C1034 C1032 1.363 . S
C1034 C1035 1.370 . S
C1034 C1038 1.524 . S
C1035 C1027 1.503 . S
C1035 C1034 1.370 . S
C1035 C1036 1.403 . S
C1036 C1035 1.403 . S
C1036 C1037 1.404 . S
C1036 C1039 1.539 . S
C1037 C1033 1.408 . S
C1037 C1036 1.404 . S
C1037 H1049 0.930 . S
C1038 C1034 1.524 . S
C1038 H1050 0.956 . S
C1038 H1051 0.961 . S
C1038 H1052 0.961 . S
C1039 C1036 1.539 . S
C1039 H1053 0.958 . S
C1039 H1054 0.961 . S
C1039 H1055 0.960 . S
H1040 C1024 0.931 . S
H1041 C1029 0.929 . S
H1042 C1030 0.960 . S
H1043 C1030 0.962 . S
H1044 C1030 0.960 . S
H1045 C1031 0.961 . S
H1046 C1031 0.961 . S
H1047 C1031 0.961 . S
H1048 C1032 0.931 . S
H1049 C1037 0.930 . S
H1050 C1038 0.956 . S
H1051 C1038 0.961 . S
H1052 C1038 0.961 . S
H1053 C1039 0.958 . S
H1054 C1039 0.961 . S
H1055 C1039 0.960 . S
C1056 C1057 1.391 . S
C1056 C1058 1.394 . S
C1056 H1072 0.931 . S
C1057 C1056 1.391 . S
C1057 C1061 1.376 . S
C1058 C1056 1.394 . S
C1058 C1059 1.369 . S
C1058 C1062 1.531 . S
C1059 C1058 1.369 . S
C1059 C1060 1.410 . S
C1059 C1067 1.503 . S
C1060 C1059 1.410 . S
C1060 C1061 1.392 . S
C1060 C1063 1.511 . S
C1061 C1057 1.376 . S
C1061 C1060 1.392 . S
C1061 H1073 0.929 . S
C1062 C1058 1.531 . S
C1062 H1074 0.960 . S
C1062 H1075 0.962 . S
C1062 H1076 0.960 . S
C1063 C1060 1.511 . S
C1063 H1077 0.961 . S
C1063 H1078 0.961 . S
C1063 H1079 0.961 . S
C1064 C1065 1.370 . S
C1064 C1066 1.363 . S
C1064 H1080 0.931 . S
C1065 C1064 1.370 . S
C1065 C1069 1.408 . S
C1066 C1064 1.363 . S
C1066 C1067 1.370 . S
C1066 C1070 1.524 . S
C1067 C1059 1.503 . S
C1067 C1066 1.370 . S
C1067 C1068 1.403 . S
C1068 C1067 1.403 . S
C1068 C1069 1.404 . S
C1068 C1071 1.539 . S
C1069 C1065 1.408 . S
C1069 C1068 1.404 . S
C1069 H1081 0.930 . S
C1070 C1066 1.524 . S
C1070 H1082 0.956 . S
C1070 H1083 0.961 . S
C1070 H1084 0.961 . S
C1071 C1068 1.539 . S
C1071 H1085 0.958 . S
C1071 H1086 0.961 . S
C1071 H1087 0.960 . S
H1072 C1056 0.931 . S
H1073 C1061 0.929 . S
H1074 C1062 0.960 . S
H1075 C1062 0.962 . S
H1076 C1062 0.960 . S
H1077 C1063 0.961 . S
H1078 C1063 0.961 . S
H1079 C1063 0.961 . S
H1080 C1064 0.931 . S
H1081 C1069 0.930 . S
H1082 C1070 0.956 . S
H1083 C1070 0.961 . S
H1084 C1070 0.961 . S
H1085 C1071 0.958 . S
H1086 C1071 0.961 . S
H1087 C1071 0.960 . S
C1088 C1089 1.391 . S
C1088 C1090 1.394 . S
C1088 H1104 0.931 . S
C1089 C1088 1.391 . S
C1089 C1093 1.376 . S
C1090 C1088 1.394 . S
C1090 C1091 1.369 . S
C1090 C1094 1.531 . S
C1091 C1090 1.369 . S
C1091 C1092 1.410 . S
C1091 C1099 1.503 . S
C1092 C1091 1.410 . S
C1092 C1093 1.392 . S
C1092 C1095 1.511 . S
C1093 C1089 1.376 . S
C1093 C1092 1.392 . S
C1093 H1105 0.929 . S
C1094 C1090 1.531 . S
C1094 H1106 0.960 . S
C1094 H1107 0.962 . S
C1094 H1108 0.960 . S
C1095 C1092 1.511 . S
C1095 H1109 0.961 . S
C1095 H1110 0.961 . S
C1095 H1111 0.961 . S
C1096 C1097 1.370 . S
C1096 C1098 1.363 . S
C1096 H1112 0.931 . S
C1097 C1096 1.370 . S
C1097 C1101 1.408 . S
C1098 C1096 1.363 . S
C1098 C1099 1.370 . S
C1098 C1102 1.524 . S
C1099 C1091 1.503 . S
C1099 C1098 1.370 . S
C1099 C1100 1.403 . S
C1100 C1099 1.403 . S
C1100 C1101 1.404 . S
C1100 C1103 1.539 . S
C1101 C1097 1.408 . S
C1101 C1100 1.404 . S
C1101 H1113 0.930 . S
C1102 C1098 1.524 . S
C1102 H1114 0.956 . S
C1102 H1115 0.961 . S
C1102 H1116 0.961 . S
C1103 C1100 1.539 . S
C1103 H1117 0.958 . S
C1103 H1118 0.961 . S
C1103 H1119 0.960 . S
H1104 C1088 0.931 . S
H1105 C1093 0.929 . S
H1106 C1094 0.960 . S
H1107 C1094 0.962 . S
H1108 C1094 0.960 . S
H1109 C1095 0.961 . S
H1110 C1095 0.961 . S
H1111 C1095 0.961 . S
H1112 C1096 0.931 . S
H1113 C1101 0.930 . S
H1114 C1102 0.956 . S
H1115 C1102 0.961 . S
H1116 C1102 0.961 . S
H1117 C1103 0.958 . S
H1118 C1103 0.961 . S
H1119 C1103 0.960 . S
C1120 C1121 1.391 . S
C1120 C1122 1.394 . S
C1120 H1136 0.931 . S
C1121 C1120 1.391 . S
C1121 C1125 1.376 . S
C1122 C1120 1.394 . S
C1122 C1123 1.369 . S
C1122 C1126 1.531 . S
C1123 C1122 1.369 . S
C1123 C1124 1.410 . S
C1123 C1131 1.503 . S
C1124 C1123 1.410 . S
C1124 C1125 1.392 . S
C1124 C1127 1.511 . S
C1125 C1121 1.376 . S
C1125 C1124 1.392 . S
C1125 H1137 0.929 . S
C1126 C1122 1.531 . S
C1126 H1138 0.960 . S
C1126 H1139 0.962 . S
C1126 H1140 0.960 . S
C1127 C1124 1.511 . S
C1127 H1141 0.961 . S
C1127 H1142 0.961 . S
C1127 H1143 0.961 . S
C1128 C1129 1.370 . S
C1128 C1130 1.363 . S
C1128 H1144 0.931 . S
C1129 C1128 1.370 . S
C1129 C1133 1.408 . S
C1130 C1128 1.363 . S
C1130 C1131 1.370 . S
C1130 C1134 1.524 . S
C1131 C1123 1.503 . S
C1131 C1130 1.370 . S
C1131 C1132 1.403 . S
C1132 C1131 1.403 . S
C1132 C1133 1.404 . S
C1132 C1135 1.539 . S
C1133 C1129 1.408 . S
C1133 C1132 1.404 . S
C1133 H1145 0.930 . S
C1134 C1130 1.524 . S
C1134 H1146 0.956 . S
C1134 H1147 0.961 . S
C1134 H1148 0.961 . S
C1135 C1132 1.539 . S
C1135 H1149 0.958 . S
C1135 H1150 0.961 . S
C1135 H1151 0.960 . S
H1136 C1120 0.931 . S
H1137 C1125 0.929 . S
H1138 C1126 0.960 . S
H1139 C1126 0.962 . S
H1140 C1126 0.960 . S
H1141 C1127 0.961 . S
H1142 C1127 0.961 . S
H1143 C1127 0.961 . S
H1144 C1128 0.931 . S
H1145 C1133 0.930 . S
H1146 C1134 0.956 . S
H1147 C1134 0.961 . S
H1148 C1134 0.961 . S
H1149 C1135 0.958 . S
H1150 C1135 0.961 . S
H1151 C1135 0.960 . S
C1152 C1153 1.391 . S
C1152 C1154 1.394 . S
C1152 H1168 0.931 . S
C1153 C1152 1.391 . S
C1153 C1157 1.376 . S
C1154 C1152 1.394 . S
C1154 C1155 1.369 . S
C1154 C1158 1.531 . S
C1155 C1154 1.369 . S
C1155 C1156 1.410 . S
C1155 C1163 1.503 . S
C1156 C1155 1.410 . S
C1156 C1157 1.392 . S
C1156 C1159 1.511 . S
C1157 C1153 1.376 . S
C1157 C1156 1.392 . S
C1157 H1169 0.929 . S
C1158 C1154 1.531 . S
C1158 H1170 0.960 . S
C1158 H1171 0.962 . S
C1158 H1172 0.960 . S
C1159 C1156 1.511 . S
C1159 H1173 0.961 . S
C1159 H1174 0.961 . S
C1159 H1175 0.961 . S
C1160 C1161 1.370 . S
C1160 C1162 1.363 . S
C1160 H1176 0.931 . S
C1161 C1160 1.370 . S
C1161 C1165 1.408 . S
C1162 C1160 1.363 . S
C1162 C1163 1.370 . S
C1162 C1166 1.524 . S
C1163 C1155 1.503 . S
C1163 C1162 1.370 . S
C1163 C1164 1.403 . S
C1164 C1163 1.403 . S
C1164 C1165 1.404 . S
C1164 C1167 1.539 . S
C1165 C1161 1.408 . S
C1165 C1164 1.404 . S
C1165 H1177 0.930 . S
C1166 C1162 1.524 . S
C1166 H1178 0.956 . S
C1166 H1179 0.961 . S
C1166 H1180 0.961 . S
C1167 C1164 1.539 . S
C1167 H1181 0.958 . S
C1167 H1182 0.961 . S
C1167 H1183 0.960 . S
H1168 C1152 0.931 . S
H1169 C1157 0.929 . S
H1170 C1158 0.960 . S
H1171 C1158 0.962 . S
H1172 C1158 0.960 . S
H1173 C1159 0.961 . S
H1174 C1159 0.961 . S
H1175 C1159 0.961 . S
H1176 C1160 0.931 . S
H1177 C1165 0.930 . S
H1178 C1166 0.956 . S
H1179 C1166 0.961 . S
H1180 C1166 0.961 . S
H1181 C1167 0.958 . S
H1182 C1167 0.961 . S
H1183 C1167 0.960 . S
C1184 C1185 1.391 . S
C1184 C1186 1.394 . S
C1184 H1200 0.931 . S
C1185 C1184 1.391 . S
C1185 C1189 1.376 . S
C1186 C1184 1.394 . S
C1186 C1187 1.369 . S
C1186 C1190 1.531 . S
C1187 C1186 1.369 . S
C1187 C1188 1.410 . S
C1187 C1195 1.503 . S
C1188 C1187 1.410 . S
C1188 C1189 1.392 . S
C1188 C1191 1.511 . S
C1189 C1185 1.376 . S
C1189 C1188 1.392 . S
C1189 H1201 0.929 . S
C1190 C1186 1.531 . S
C1190 H1202 0.960 . S
C1190 H1203 0.962 . S
C1190 H1204 0.960 . S
C1191 C1188 1.511 . S
C1191 H1205 0.961 . S
C1191 H1206 0.961 . S
C1191 H1207 0.961 . S
C1192 C1193 1.370 . S
C1192 C1194 1.363 . S
C1192 H1208 0.931 . S
C1193 C1192 1.370 . S
C1193 C1197 1.408 . S
C1194 C1192 1.363 . S
C1194 C1195 1.370 . S
C1194 C1198 1.524 . S
C1195 C1187 1.503 . S
C1195 C1194 1.370 . S
C1195 C1196 1.403 . S
C1196 C1195 1.403 . S
C1196 C1197 1.404 . S
C1196 C1199 1.539 . S
C1197 C1193 1.408 . S
C1197 C1196 1.404 . S
C1197 H1209 0.930 . S
C1198 C1194 1.524 . S
C1198 H1210 0.956 . S
C1198 H1211 0.961 . S
C1198 H1212 0.961 . S
C1199 C1196 1.539 . S
C1199 H1213 0.958 . S
C1199 H1214 0.961 . S
C1199 H1215 0.960 . S
H1200 C1184 0.931 . S
H1201 C1189 0.929 . S
H1202 C1190 0.960 . S
H1203 C1190 0.962 . S
H1204 C1190 0.960 . S
H1205 C1191 0.961 . S
H1206 C1191 0.961 . S
H1207 C1191 0.961 . S
H1208 C1192 0.931 . S
H1209 C1197 0.930 . S
H1210 C1198 0.956 . S
H1211 C1198 0.961 . S
H1212 C1198 0.961 . S
H1213 C1199 0.958 . S
H1214 C1199 0.961 . S
H1215 C1199 0.960 . S
C1216 C1217 1.391 . S
C1216 C1218 1.394 . S
C1216 H1232 0.931 . S
C1217 C1216 1.391 . S
C1217 C1221 1.376 . S
C1218 C1216 1.394 . S
C1218 C1219 1.369 . S
C1218 C1222 1.531 . S
C1219 C1218 1.369 . S
C1219 C1220 1.410 . S
C1219 C1227 1.503 . S
C1220 C1219 1.410 . S
C1220 C1221 1.392 . S
C1220 C1223 1.511 . S
C1221 C1217 1.376 . S
C1221 C1220 1.392 . S
C1221 H1233 0.929 . S
C1222 C1218 1.531 . S
C1222 H1234 0.960 . S
C1222 H1235 0.962 . S
C1222 H1236 0.960 . S
C1223 C1220 1.511 . S
C1223 H1237 0.961 . S
C1223 H1238 0.961 . S
C1223 H1239 0.961 . S
C1224 C1225 1.370 . S
C1224 C1226 1.363 . S
C1224 H1240 0.931 . S
C1225 C1224 1.370 . S
C1225 C1229 1.408 . S
C1226 C1224 1.363 . S
C1226 C1227 1.370 . S
C1226 C1230 1.524 . S
C1227 C1219 1.503 . S
C1227 C1226 1.370 . S
C1227 C1228 1.403 . S
C1228 C1227 1.403 . S
C1228 C1229 1.404 . S
C1228 C1231 1.539 . S
C1229 C1225 1.408 . S
C1229 C1228 1.404 . S
C1229 H1241 0.930 . S
C1230 C1226 1.524 . S
C1230 H1242 0.956 . S
C1230 H1243 0.961 . S
C1230 H1244 0.961 . S
C1231 C1228 1.539 . S
C1231 H1245 0.958 . S
C1231 H1246 0.961 . S
C1231 H1247 0.960 . S
H1232 C1216 0.931 . S
H1233 C1221 0.929 . S
H1234 C1222 0.960 . S
H1235 C1222 0.962 . S
H1236 C1222 0.960 . S
H1237 C1223 0.961 . S
H1238 C1223 0.961 . S
H1239 C1223 0.961 . S
H1240 C1224 0.931 . S
H1241 C1229 0.930 . S
H1242 C1230 0.956 . S
H1243 C1230 0.961 . S
H1244 C1230 0.961 . S
H1245 C1231 0.958 . S
H1246 C1231 0.961 . S
H1247 C1231 0.960 . S
C1248 C1249 1.391 . S
C1248 C1250 1.394 . S
C1248 H1264 0.931 . S
C1249 C1248 1.391 . S
C1249 C1253 1.376 . S
C1250 C1248 1.394 . S
C1250 C1251 1.369 . S
C1250 C1254 1.531 . S
C1251 C1250 1.369 . S
C1251 C1252 1.410 . S
C1251 C1259 1.503 . S
C1252 C1251 1.410 . S
C1252 C1253 1.392 . S
C1252 C1255 1.511 . S
C1253 C1249 1.376 . S
C1253 C1252 1.392 . S
C1253 H1265 0.929 . S
C1254 C1250 1.531 . S
C1254 H1266 0.960 . S
C1254 H1267 0.962 . S
C1254 H1268 0.960 . S
C1255 C1252 1.511 . S
C1255 H1269 0.961 . S
C1255 H1270 0.961 . S
C1255 H1271 0.961 . S
C1256 C1257 1.370 . S
C1256 C1258 1.363 . S
C1256 H1272 0.931 . S
C1257 C1256 1.370 . S
C1257 C1261 1.408 . S
C1258 C1256 1.363 . S
C1258 C1259 1.370 . S
C1258 C1262 1.524 . S
C1259 C1251 1.503 . S
C1259 C1258 1.370 . S
C1259 C1260 1.403 . S
C1260 C1259 1.403 . S
C1260 C1261 1.404 . S
C1260 C1263 1.539 . S
C1261 C1257 1.408 . S
C1261 C1260 1.404 . S
C1261 H1273 0.930 . S
C1262 C1258 1.524 . S
C1262 H1274 0.956 . S
C1262 H1275 0.961 . S
C1262 H1276 0.961 . S
C1263 C1260 1.539 . S
C1263 H1277 0.958 . S
C1263 H1278 0.961 . S
C1263 H1279 0.960 . S
H1264 C1248 0.931 . S
H1265 C1253 0.929 . S
H1266 C1254 0.960 . S
H1267 C1254 0.962 . S
H1268 C1254 0.960 . S
H1269 C1255 0.961 . S
H1270 C1255 0.961 . S
H1271 C1255 0.961 . S
H1272 C1256 0.931 . S
H1273 C1261 0.930 . S
H1274 C1262 0.956 . S
H1275 C1262 0.961 . S
H1276 C1262 0.961 . S
H1277 C1263 0.958 . S
H1278 C1263 0.961 . S
H1279 C1263 0.960 . S
C1280 C1281 1.391 . S
C1280 C1282 1.394 . S
C1280 H1296 0.931 . S
C1281 C1280 1.391 . S
C1281 C1285 1.376 . S
C1282 C1280 1.394 . S
C1282 C1283 1.369 . S
C1282 C1286 1.531 . S
C1283 C1282 1.369 . S
C1283 C1284 1.410 . S
C1283 C1291 1.503 . S
C1284 C1283 1.410 . S
C1284 C1285 1.392 . S
C1284 C1287 1.511 . S
C1285 C1281 1.376 . S
C1285 C1284 1.392 . S
C1285 H1297 0.929 . S
C1286 C1282 1.531 . S
C1286 H1298 0.960 . S
C1286 H1299 0.962 . S
C1286 H1300 0.960 . S
C1287 C1284 1.511 . S
C1287 H1301 0.961 . S
C1287 H1302 0.961 . S
C1287 H1303 0.961 . S
C1288 C1289 1.370 . S
C1288 C1290 1.363 . S
C1288 H1304 0.931 . S
C1289 C1288 1.370 . S
C1289 C1293 1.408 . S
C1290 C1288 1.363 . S
C1290 C1291 1.370 . S
C1290 C1294 1.524 . S
C1291 C1283 1.503 . S
C1291 C1290 1.370 . S
C1291 C1292 1.403 . S
C1292 C1291 1.403 . S
C1292 C1293 1.404 . S
C1292 C1295 1.539 . S
C1293 C1289 1.408 . S
C1293 C1292 1.404 . S
C1293 H1305 0.930 . S
C1294 C1290 1.524 . S
C1294 H1306 0.956 . S
C1294 H1307 0.961 . S
C1294 H1308 0.961 . S
C1295 C1292 1.539 . S
C1295 H1309 0.958 . S
C1295 H1310 0.961 . S
C1295 H1311 0.960 . S
H1296 C1280 0.931 . S
H1297 C1285 0.929 . S
H1298 C1286 0.960 . S
H1299 C1286 0.962 . S
H1300 C1286 0.960 . S
H1301 C1287 0.961 . S
H1302 C1287 0.961 . S
H1303 C1287 0.961 . S
H1304 C1288 0.931 . S
H1305 C1293 0.930 . S
H1306 C1294 0.956 . S
H1307 C1294 0.961 . S
H1308 C1294 0.961 . S
H1309 C1295 0.958 . S
H1310 C1295 0.961 . S
H1311 C1295 0.960 . S
C1312 C1313 1.391 . S
C1312 C1314 1.394 . S
C1312 H1328 0.931 . S
C1313 C1312 1.391 . S
C1313 C1317 1.376 . S
C1314 C1312 1.394 . S
C1314 C1315 1.369 . S
C1314 C1318 1.531 . S
C1315 C1314 1.369 . S
C1315 C1316 1.410 . S
C1315 C1323 1.503 . S
C1316 C1315 1.410 . S
C1316 C1317 1.392 . S
C1316 C1319 1.511 . S
C1317 C1313 1.376 . S
C1317 C1316 1.392 . S
C1317 H1329 0.929 . S
C1318 C1314 1.531 . S
C1318 H1330 0.960 . S
C1318 H1331 0.962 . S
C1318 H1332 0.960 . S
C1319 C1316 1.511 . S
C1319 H1333 0.961 . S
C1319 H1334 0.961 . S
C1319 H1335 0.961 . S
C1320 C1321 1.370 . S
C1320 C1322 1.363 . S
C1320 H1336 0.931 . S
C1321 C1320 1.370 . S
C1321 C1325 1.408 . S
C1322 C1320 1.363 . S
C1322 C1323 1.370 . S
C1322 C1326 1.524 . S
C1323 C1315 1.503 . S
C1323 C1322 1.370 . S
C1323 C1324 1.403 . S
C1324 C1323 1.403 . S
C1324 C1325 1.404 . S
C1324 C1327 1.539 . S
C1325 C1321 1.408 . S
C1325 C1324 1.404 . S
C1325 H1337 0.930 . S
C1326 C1322 1.524 . S
C1326 H1338 0.956 . S
C1326 H1339 0.961 . S
C1326 H1340 0.961 . S
C1327 C1324 1.539 . S
C1327 H1341 0.958 . S
C1327 H1342 0.961 . S
C1327 H1343 0.960 . S
H1328 C1312 0.931 . S
H1329 C1317 0.929 . S
H1330 C1318 0.960 . S
H1331 C1318 0.962 . S
H1332 C1318 0.960 . S
H1333 C1319 0.961 . S
H1334 C1319 0.961 . S
H1335 C1319 0.961 . S
H1336 C1320 0.931 . S
H1337 C1325 0.930 . S
H1338 C1326 0.956 . S
H1339 C1326 0.961 . S
H1340 C1326 0.961 . S
H1341 C1327 0.958 . S
H1342 C1327 0.961 . S
H1343 C1327 0.960 . S
C1344 C1345 1.391 . S
C1344 C1346 1.394 . S
C1344 H1360 0.931 . S
C1345 C1344 1.391 . S
C1345 C1349 1.376 . S
C1346 C1344 1.394 . S
C1346 C1347 1.369 . S
C1346 C1350 1.531 . S
C1347 C1346 1.369 . S
C1347 C1348 1.410 . S
C1347 C1355 1.503 . S
C1348 C1347 1.410 . S
C1348 C1349 1.392 . S
C1348 C1351 1.511 . S
C1349 C1345 1.376 . S
C1349 C1348 1.392 . S
C1349 H1361 0.929 . S
C1350 C1346 1.531 . S
C1350 H1362 0.960 . S
C1350 H1363 0.962 . S
C1350 H1364 0.960 . S
C1351 C1348 1.511 . S
C1351 H1365 0.961 . S
C1351 H1366 0.961 . S
C1351 H1367 0.961 . S
C1352 C1353 1.370 . S
C1352 C1354 1.363 . S
C1352 H1368 0.931 . S
C1353 C1352 1.370 . S
C1353 C1357 1.408 . S
C1354 C1352 1.363 . S
C1354 C1355 1.370 . S
C1354 C1358 1.524 . S
C1355 C1347 1.503 . S
C1355 C1354 1.370 . S
C1355 C1356 1.403 . S
C1356 C1355 1.403 . S
C1356 C1357 1.404 . S
C1356 C1359 1.539 . S
C1357 C1353 1.408 . S
C1357 C1356 1.404 . S
C1357 H1369 0.930 . S
C1358 C1354 1.524 . S
C1358 H1370 0.956 . S
C1358 H1371 0.961 . S
C1358 H1372 0.961 . S
C1359 C1356 1.539 . S
C1359 H1373 0.958 . S
C1359 H1374 0.961 . S
C1359 H1375 0.960 . S
H1360 C1344 0.931 . S
H1361 C1349 0.929 . S
H1362 C1350 0.960 . S
H1363 C1350 0.962 . S
H1364 C1350 0.960 . S
H1365 C1351 0.961 . S
H1366 C1351 0.961 . S
H1367 C1351 0.961 . S
H1368 C1352 0.931 . S
H1369 C1357 0.930 . S
H1370 C1358 0.956 . S
H1371 C1358 0.961 . S
H1372 C1358 0.961 . S
H1373 C1359 0.958 . S
H1374 C1359 0.961 . S
H1375 C1359 0.960 . S
C1376 C1377 1.391 . S
C1376 C1378 1.394 . S
C1376 H1392 0.931 . S
C1377 C1376 1.391 . S
C1377 C1381 1.376 . S
C1378 C1376 1.394 . S
C1378 C1379 1.369 . S
C1378 C1382 1.531 . S
C1379 C1378 1.369 . S
C1379 C1380 1.410 . S
C1379 C1387 1.503 . S
C1380 C1379 1.410 . S
C1380 C1381 1.392 . S
C1380 C1383 1.511 . S
C1381 C1377 1.376 . S
C1381 C1380 1.392 . S
C1381 H1393 0.929 . S
C1382 C1378 1.531 . S
C1382 H1394 0.960 . S
C1382 H1395 0.962 . S
C1382 H1396 0.960 . S
C1383 C1380 1.511 . S
C1383 H1397 0.961 . S
C1383 H1398 0.961 . S
C1383 H1399 0.961 . S
C1384 C1385 1.370 . S
C1384 C1386 1.363 . S
C1384 H1400 0.931 . S
C1385 C1384 1.370 . S
C1385 C1389 1.408 . S
C1386 C1384 1.363 . S
C1386 C1387 1.370 . S
C1386 C1390 1.524 . S
C1387 C1379 1.503 . S
C1387 C1386 1.370 . S
C1387 C1388 1.403 . S
C1388 C1387 1.403 . S
C1388 C1389 1.404 . S
C1388 C1391 1.539 . S
C1389 C1385 1.408 . S
C1389 C1388 1.404 . S
C1389 H1401 0.930 . S
C1390 C1386 1.524 . S
C1390 H1402 0.956 . S
C1390 H1403 0.961 . S
C1390 H1404 0.961 . S
C1391 C1388 1.539 . S
C1391 H1405 0.958 . S
C1391 H1406 0.961 . S
C1391 H1407 0.960 . S
H1392 C1376 0.931 . S
H1393 C1381 0.929 . S
H1394 C1382 0.960 . S
H1395 C1382 0.962 . S
H1396 C1382 0.960 . S
H1397 C1383 0.961 . S
H1398 C1383 0.961 . S
H1399 C1383 0.961 . S
H1400 C1384 0.931 . S
H1401 C1389 0.930 . S
H1402 C1390 0.956 . S
H1403 C1390 0.961 . S
H1404 C1390 0.961 . S
H1405 C1391 0.958 . S
H1406 C1391 0.961 . S
H1407 C1391 0.960 . S
C1408 C1409 1.391 . S
C1408 C1410 1.394 . S
C1408 H1424 0.931 . S
C1409 C1408 1.391 . S
C1409 C1413 1.376 . S
C1410 C1408 1.394 . S
C1410 C1411 1.369 . S
C1410 C1414 1.531 . S
C1411 C1410 1.369 . S
C1411 C1412 1.410 . S
C1411 C1419 1.503 . S
C1412 C1411 1.410 . S
C1412 C1413 1.392 . S
C1412 C1415 1.511 . S
C1413 C1409 1.376 . S
C1413 C1412 1.392 . S
C1413 H1425 0.929 . S
C1414 C1410 1.531 . S
C1414 H1426 0.960 . S
C1414 H1427 0.962 . S
C1414 H1428 0.960 . S
C1415 C1412 1.511 . S
C1415 H1429 0.961 . S
C1415 H1430 0.961 . S
C1415 H1431 0.961 . S
C1416 C1417 1.370 . S
C1416 C1418 1.363 . S
C1416 H1432 0.931 . S
C1417 C1416 1.370 . S
C1417 C1421 1.408 . S
C1418 C1416 1.363 . S
C1418 C1419 1.370 . S
C1418 C1422 1.524 . S
C1419 C1411 1.503 . S
C1419 C1418 1.370 . S
C1419 C1420 1.403 . S
C1420 C1419 1.403 . S
C1420 C1421 1.404 . S
C1420 C1423 1.539 . S
C1421 C1417 1.408 . S
C1421 C1420 1.404 . S
C1421 H1433 0.930 . S
C1422 C1418 1.524 . S
C1422 H1434 0.956 . S
C1422 H1435 0.961 . S
C1422 H1436 0.961 . S
C1423 C1420 1.539 . S
C1423 H1437 0.958 . S
C1423 H1438 0.961 . S
C1423 H1439 0.960 . S
H1424 C1408 0.931 . S
H1425 C1413 0.929 . S
H1426 C1414 0.960 . S
H1427 C1414 0.962 . S
H1428 C1414 0.960 . S
H1429 C1415 0.961 . S
H1430 C1415 0.961 . S
H1431 C1415 0.961 . S
H1432 C1416 0.931 . S
H1433 C1421 0.930 . S
H1434 C1422 0.956 . S
H1435 C1422 0.961 . S
H1436 C1422 0.961 . S
H1437 C1423 0.958 . S
H1438 C1423 0.961 . S
H1439 C1423 0.960 . S
C1440 C1441 1.391 . S
C1440 C1442 1.394 . S
C1440 H1456 0.931 . S
C1441 C1440 1.391 . S
C1441 C1445 1.376 . S
C1442 C1440 1.394 . S
C1442 C1443 1.369 . S
C1442 C1446 1.531 . S
C1443 C1442 1.369 . S
C1443 C1444 1.410 . S
C1443 C1451 1.503 . S
C1444 C1443 1.410 . S
C1444 C1445 1.392 . S
C1444 C1447 1.511 . S
C1445 C1441 1.376 . S
C1445 C1444 1.392 . S
C1445 H1457 0.929 . S
C1446 C1442 1.531 . S
C1446 H1458 0.960 . S
C1446 H1459 0.962 . S
C1446 H1460 0.960 . S
C1447 C1444 1.511 . S
C1447 H1461 0.961 . S
C1447 H1462 0.961 . S
C1447 H1463 0.961 . S
C1448 C1449 1.370 . S
C1448 C1450 1.363 . S
C1448 H1464 0.931 . S
C1449 C1448 1.370 . S
C1449 C1453 1.408 . S
C1450 C1448 1.363 . S
C1450 C1451 1.370 . S
C1450 C1454 1.524 . S
C1451 C1443 1.503 . S
C1451 C1450 1.370 . S
C1451 C1452 1.403 . S
C1452 C1451 1.403 . S
C1452 C1453 1.404 . S
C1452 C1455 1.539 . S
C1453 C1449 1.408 . S
C1453 C1452 1.404 . S
C1453 H1465 0.930 . S
C1454 C1450 1.524 . S
C1454 H1466 0.956 . S
C1454 H1467 0.961 . S
C1454 H1468 0.961 . S
C1455 C1452 1.539 . S
C1455 H1469 0.958 . S
C1455 H1470 0.961 . S
C1455 H1471 0.960 . S
H1456 C1440 0.931 . S
H1457 C1445 0.929 . S
H1458 C1446 0.960 . S
H1459 C1446 0.962 . S
H1460 C1446 0.960 . S
H1461 C1447 0.961 . S
H1462 C1447 0.961 . S
H1463 C1447 0.961 . S
H1464 C1448 0.931 . S
H1465 C1453 0.930 . S
H1466 C1454 0.956 . S
H1467 C1454 0.961 . S
H1468 C1454 0.961 . S
H1469 C1455 0.958 . S
H1470 C1455 0.961 . S
H1471 C1455 0.960 . S
C1472 C1473 1.391 . S
C1472 C1474 1.394 . S
C1472 H1488 0.931 . S
C1473 C1472 1.391 . S
C1473 C1477 1.376 . S
C1474 C1472 1.394 . S
C1474 C1475 1.369 . S
C1474 C1478 1.531 . S
C1475 C1474 1.369 . S
C1475 C1476 1.410 . S
C1475 C1483 1.503 . S
C1476 C1475 1.410 . S
C1476 C1477 1.392 . S
C1476 C1479 1.511 . S
C1477 C1473 1.376 . S
C1477 C1476 1.392 . S
C1477 H1489 0.929 . S
C1478 C1474 1.531 . S
C1478 H1490 0.960 . S
C1478 H1491 0.962 . S
C1478 H1492 0.960 . S
C1479 C1476 1.511 . S
C1479 H1493 0.961 . S
C1479 H1494 0.961 . S
C1479 H1495 0.961 . S
C1480 C1481 1.370 . S
C1480 C1482 1.363 . S
C1480 H1496 0.931 . S
C1481 C1480 1.370 . S
C1481 C1485 1.408 . S
C1482 C1480 1.363 . S
C1482 C1483 1.370 . S
C1482 C1486 1.524 . S
C1483 C1475 1.503 . S
C1483 C1482 1.370 . S
C1483 C1484 1.403 . S
C1484 C1483 1.403 . S
C1484 C1485 1.404 . S
C1484 C1487 1.539 . S
C1485 C1481 1.408 . S
C1485 C1484 1.404 . S
C1485 H1497 0.930 . S
C1486 C1482 1.524 . S
C1486 H1498 0.956 . S
C1486 H1499 0.961 . S
C1486 H1500 0.961 . S
C1487 C1484 1.539 . S
C1487 H1501 0.958 . S
C1487 H1502 0.961 . S
C1487 H1503 0.960 . S
H1488 C1472 0.931 . S
H1489 C1477 0.929 . S
H1490 C1478 0.960 . S
H1491 C1478 0.962 . S
H1492 C1478 0.960 . S
H1493 C1479 0.961 . S
H1494 C1479 0.961 . S
H1495 C1479 0.961 . S
H1496 C1480 0.931 . S
H1497 C1485 0.930 . S
H1498 C1486 0.956 . S
H1499 C1486 0.961 . S
H1500 C1486 0.961 . S
H1501 C1487 0.958 . S
H1502 C1487 0.961 . S
H1503 C1487 0.960 . S
C1504 C1505 1.391 . S
C1504 C1506 1.394 . S
C1504 H1520 0.931 . S
C1505 C1504 1.391 . S
C1505 C1509 1.376 . S
C1506 C1504 1.394 . S
C1506 C1507 1.369 . S
C1506 C1510 1.531 . S
C1507 C1506 1.369 . S
C1507 C1508 1.410 . S
C1507 C1515 1.503 . S
C1508 C1507 1.410 . S
C1508 C1509 1.392 . S
C1508 C1511 1.511 . S
C1509 C1505 1.376 . S
C1509 C1508 1.392 . S
C1509 H1521 0.929 . S
C1510 C1506 1.531 . S
C1510 H1522 0.960 . S
C1510 H1523 0.962 . S
C1510 H1524 0.960 . S
C1511 C1508 1.511 . S
C1511 H1525 0.961 . S
C1511 H1526 0.961 . S
C1511 H1527 0.961 . S
C1512 C1513 1.370 . S
C1512 C1514 1.363 . S
C1512 H1528 0.931 . S
C1513 C1512 1.370 . S
C1513 C1517 1.408 . S
C1514 C1512 1.363 . S
C1514 C1515 1.370 . S
C1514 C1518 1.524 . S
C1515 C1507 1.503 . S
C1515 C1514 1.370 . S
C1515 C1516 1.403 . S
C1516 C1515 1.403 . S
C1516 C1517 1.404 . S
C1516 C1519 1.539 . S
C1517 C1513 1.408 . S
C1517 C1516 1.404 . S
C1517 H1529 0.930 . S
C1518 C1514 1.524 . S
C1518 H1530 0.956 . S
C1518 H1531 0.961 . S
C1518 H1532 0.961 . S
C1519 C1516 1.539 . S
C1519 H1533 0.958 . S
C1519 H1534 0.961 . S
C1519 H1535 0.960 . S
H1520 C1504 0.931 . S
H1521 C1509 0.929 . S
H1522 C1510 0.960 . S
H1523 C1510 0.962 . S
H1524 C1510 0.960 . S
H1525 C1511 0.961 . S
H1526 C1511 0.961 . S
H1527 C1511 0.961 . S
H1528 C1512 0.931 . S
H1529 C1517 0.930 . S
H1530 C1518 0.956 . S
H1531 C1518 0.961 . S
H1532 C1518 0.961 . S
H1533 C1519 0.958 . S
H1534 C1519 0.961 . S
H1535 C1519 0.960 . S
C1536 C1537 1.391 . S
C1536 C1538 1.394 . S
C1536 H1552 0.931 . S
C1537 C1536 1.391 . S
C1537 C1541 1.376 . S
C1538 C1536 1.394 . S
C1538 C1539 1.369 . S
C1538 C1542 1.531 . S
C1539 C1538 1.369 . S
C1539 C1540 1.410 . S
C1539 C1547 1.503 . S
C1540 C1539 1.410 . S
C1540 C1541 1.392 . S
C1540 C1543 1.511 . S
C1541 C1537 1.376 . S
C1541 C1540 1.392 . S
C1541 H1553 0.929 . S
C1542 C1538 1.531 . S
C1542 H1554 0.960 . S
C1542 H1555 0.962 . S
C1542 H1556 0.960 . S
C1543 C1540 1.511 . S
C1543 H1557 0.961 . S
C1543 H1558 0.961 . S
C1543 H1559 0.961 . S
C1544 C1545 1.370 . S
C1544 C1546 1.363 . S
C1544 H1560 0.931 . S
C1545 C1544 1.370 . S
C1545 C1549 1.408 . S
C1546 C1544 1.363 . S
C1546 C1547 1.370 . S
C1546 C1550 1.524 . S
C1547 C1539 1.503 . S
C1547 C1546 1.370 . S
C1547 C1548 1.403 . S
C1548 C1547 1.403 . S
C1548 C1549 1.404 . S
C1548 C1551 1.539 . S
C1549 C1545 1.408 . S
C1549 C1548 1.404 . S
C1549 H1561 0.930 . S
C1550 C1546 1.524 . S
C1550 H1562 0.956 . S
C1550 H1563 0.961 . S
C1550 H1564 0.961 . S
C1551 C1548 1.539 . S
C1551 H1565 0.958 . S
C1551 H1566 0.961 . S
C1551 H1567 0.960 . S
H1552 C1536 0.931 . S
H1553 C1541 0.929 . S
H1554 C1542 0.960 . S
H1555 C1542 0.962 . S
H1556 C1542 0.960 . S
H1557 C1543 0.961 . S
H1558 C1543 0.961 . S
H1559 C1543 0.961 . S
H1560 C1544 0.931 . S
H1561 C1549 0.930 . S
H1562 C1550 0.956 . S
H1563 C1550 0.961 . S
H1564 C1550 0.961 . S
H1565 C1551 0.958 . S
H1566 C1551 0.961 . S
H1567 C1551 0.960 . S
C1568 C1569 1.391 . S
C1568 C1570 1.394 . S
C1568 H1584 0.931 . S
C1569 C1568 1.391 . S
C1569 C1573 1.376 . S
C1570 C1568 1.394 . S
C1570 C1571 1.369 . S
C1570 C1574 1.531 . S
C1571 C1570 1.369 . S
C1571 C1572 1.410 . S
C1571 C1579 1.503 . S
C1572 C1571 1.410 . S
C1572 C1573 1.392 . S
C1572 C1575 1.511 . S
C1573 C1569 1.376 . S
C1573 C1572 1.392 . S
C1573 H1585 0.929 . S
C1574 C1570 1.531 . S
C1574 H1586 0.960 . S
C1574 H1587 0.962 . S
C1574 H1588 0.960 . S
C1575 C1572 1.511 . S
C1575 H1589 0.961 . S
C1575 H1590 0.961 . S
C1575 H1591 0.961 . S
C1576 C1577 1.370 . S
C1576 C1578 1.363 . S
C1576 H1592 0.931 . S
C1577 C1576 1.370 . S
C1577 C1581 1.408 . S
C1578 C1576 1.363 . S
C1578 C1579 1.370 . S
C1578 C1582 1.524 . S
C1579 C1571 1.503 . S
C1579 C1578 1.370 . S
C1579 C1580 1.403 . S
C1580 C1579 1.403 . S
C1580 C1581 1.404 . S
C1580 C1583 1.539 . S
C1581 C1577 1.408 . S
C1581 C1580 1.404 . S
C1581 H1593 0.930 . S
C1582 C1578 1.524 . S
C1582 H1594 0.956 . S
C1582 H1595 0.961 . S
C1582 H1596 0.961 . S
C1583 C1580 1.539 . S
C1583 H1597 0.958 . S
C1583 H1598 0.961 . S
C1583 H1599 0.960 . S
H1584 C1568 0.931 . S
H1585 C1573 0.929 . S
H1586 C1574 0.960 . S
H1587 C1574 0.962 . S
H1588 C1574 0.960 . S
H1589 C1575 0.961 . S
H1590 C1575 0.961 . S
H1591 C1575 0.961 . S
H1592 C1576 0.931 . S
H1593 C1581 0.930 . S
H1594 C1582 0.956 . S
H1595 C1582 0.961 . S
H1596 C1582 0.961 . S
H1597 C1583 0.958 . S
H1598 C1583 0.961 . S
H1599 C1583 0.960 . S
C1600 C1601 1.391 . S
C1600 C1602 1.394 . S
C1600 H1616 0.931 . S
C1601 C1600 1.391 . S
C1601 C1605 1.376 . S
C1602 C1600 1.394 . S
C1602 C1603 1.369 . S
C1602 C1606 1.531 . S
C1603 C1602 1.369 . S
C1603 C1604 1.410 . S
C1603 C1611 1.503 . S
C1604 C1603 1.410 . S
C1604 C1605 1.392 . S
C1604 C1607 1.511 . S
C1605 C1601 1.376 . S
C1605 C1604 1.392 . S
C1605 H1617 0.929 . S
C1606 C1602 1.531 . S
C1606 H1618 0.960 . S
C1606 H1619 0.962 . S
C1606 H1620 0.960 . S
C1607 C1604 1.511 . S
C1607 H1621 0.961 . S
C1607 H1622 0.961 . S
C1607 H1623 0.961 . S
C1608 C1609 1.370 . S
C1608 C1610 1.363 . S
C1608 H1624 0.931 . S
C1609 C1608 1.370 . S
C1609 C1613 1.408 . S
C1610 C1608 1.363 . S
C1610 C1611 1.370 . S
C1610 C1614 1.524 . S
C1611 C1603 1.503 . S
C1611 C1610 1.370 . S
C1611 C1612 1.403 . S
C1612 C1611 1.403 . S
C1612 C1613 1.404 . S
C1612 C1615 1.539 . S
C1613 C1609 1.408 . S
C1613 C1612 1.404 . S
C1613 H1625 0.930 . S
C1614 C1610 1.524 . S
C1614 H1626 0.956 . S
C1614 H1627 0.961 . S
C1614 H1628 0.961 . S
C1615 C1612 1.539 . S
C1615 H1629 0.958 . S
C1615 H1630 0.961 . S
C1615 H1631 0.960 . S
H1616 C1600 0.931 . S
H1617 C1605 0.929 . S
H1618 C1606 0.960 . S
H1619 C1606 0.962 . S
H1620 C1606 0.960 . S
H1621 C1607 0.961 . S
H1622 C1607 0.961 . S
H1623 C1607 0.961 . S
H1624 C1608 0.931 . S
H1625 C1613 0.930 . S
H1626 C1614 0.956 . S
H1627 C1614 0.961 . S
H1628 C1614 0.961 . S
H1629 C1615 0.958 . S
H1630 C1615 0.961 . S
H1631 C1615 0.960 . S
C1632 C1633 1.391 . S
C1632 C1634 1.394 . S
C1632 H1648 0.931 . S
C1633 C1632 1.391 . S
C1633 C1637 1.376 . S
C1634 C1632 1.394 . S
C1634 C1635 1.369 . S
C1634 C1638 1.531 . S
C1635 C1634 1.369 . S
C1635 C1636 1.410 . S
C1635 C1643 1.503 . S
C1636 C1635 1.410 . S
C1636 C1637 1.392 . S
C1636 C1639 1.511 . S
C1637 C1633 1.376 . S
C1637 C1636 1.392 . S
C1637 H1649 0.929 . S
C1638 C1634 1.531 . S
C1638 H1650 0.960 . S
C1638 H1651 0.962 . S
C1638 H1652 0.960 . S
C1639 C1636 1.511 . S
C1639 H1653 0.961 . S
C1639 H1654 0.961 . S
C1639 H1655 0.961 . S
C1640 C1641 1.370 . S
C1640 C1642 1.363 . S
C1640 H1656 0.931 . S
C1641 C1640 1.370 . S
C1641 C1645 1.408 . S
C1642 C1640 1.363 . S
C1642 C1643 1.370 . S
C1642 C1646 1.524 . S
C1643 C1635 1.503 . S
C1643 C1642 1.370 . S
C1643 C1644 1.403 . S
C1644 C1643 1.403 . S
C1644 C1645 1.404 . S
C1644 C1647 1.539 . S
C1645 C1641 1.408 . S
C1645 C1644 1.404 . S
C1645 H1657 0.930 . S
C1646 C1642 1.524 . S
C1646 H1658 0.956 . S
C1646 H1659 0.961 . S
C1646 H1660 0.961 . S
C1647 C1644 1.539 . S
C1647 H1661 0.958 . S
C1647 H1662 0.961 . S
C1647 H1663 0.960 . S
H1648 C1632 0.931 . S
H1649 C1637 0.929 . S
H1650 C1638 0.960 . S
H1651 C1638 0.962 . S
H1652 C1638 0.960 . S
H1653 C1639 0.961 . S
H1654 C1639 0.961 . S
H1655 C1639 0.961 . S
H1656 C1640 0.931 . S
H1657 C1645 0.930 . S
H1658 C1646 0.956 . S
H1659 C1646 0.961 . S
H1660 C1646 0.961 . S
H1661 C1647 0.958 . S
H1662 C1647 0.961 . S
H1663 C1647 0.960 . S
C1664 C1665 1.391 . S
C1664 C1666 1.394 . S
C1664 H1680 0.931 . S
C1665 C1664 1.391 . S
C1665 C1669 1.376 . S
C1666 C1664 1.394 . S
C1666 C1667 1.369 . S
C1666 C1670 1.531 . S
C1667 C1666 1.369 . S
C1667 C1668 1.410 . S
C1667 C1675 1.503 . S
C1668 C1667 1.410 . S
C1668 C1669 1.392 . S
C1668 C1671 1.511 . S
C1669 C1665 1.376 . S
C1669 C1668 1.392 . S
C1669 H1681 0.929 . S
C1670 C1666 1.531 . S
C1670 H1682 0.960 . S
C1670 H1683 0.962 . S
C1670 H1684 0.960 . S
C1671 C1668 1.511 . S
C1671 H1685 0.961 . S
C1671 H1686 0.961 . S
C1671 H1687 0.961 . S
C1672 C1673 1.370 . S
C1672 C1674 1.363 . S
C1672 H1688 0.931 . S
C1673 C1672 1.370 . S
C1673 C1677 1.408 . S
C1674 C1672 1.363 . S
C1674 C1675 1.370 . S
C1674 C1678 1.524 . S
C1675 C1667 1.503 . S
C1675 C1674 1.370 . S
C1675 C1676 1.403 . S
C1676 C1675 1.403 . S
C1676 C1677 1.404 . S
C1676 C1679 1.539 . S
C1677 C1673 1.408 . S
C1677 C1676 1.404 . S
C1677 H1689 0.930 . S
C1678 C1674 1.524 . S
C1678 H1690 0.956 . S
C1678 H1691 0.961 . S
C1678 H1692 0.961 . S
C1679 C1676 1.539 . S
C1679 H1693 0.958 . S
C1679 H1694 0.961 . S
C1679 H1695 0.960 . S
H1680 C1664 0.931 . S
H1681 C1669 0.929 . S
H1682 C1670 0.960 . S
H1683 C1670 0.962 . S
H1684 C1670 0.960 . S
H1685 C1671 0.961 . S
H1686 C1671 0.961 . S
H1687 C1671 0.961 . S
H1688 C1672 0.931 . S
H1689 C1677 0.930 . S
H1690 C1678 0.956 . S
H1691 C1678 0.961 . S
H1692 C1678 0.961 . S
H1693 C1679 0.958 . S
H1694 C1679 0.961 . S
H1695 C1679 0.960 . S
C1696 C1697 1.391 . S
C1696 C1698 1.394 . S
C1696 H1712 0.931 . S
C1697 C1696 1.391 . S
C1697 C1701 1.376 . S
C1698 C1696 1.394 . S
C1698 C1699 1.369 . S
C1698 C1702 1.531 . S
C1699 C1698 1.369 . S
C1699 C1700 1.410 . S
C1699 C1707 1.503 . S
C1700 C1699 1.410 . S
C1700 C1701 1.392 . S
C1700 C1703 1.511 . S
C1701 C1697 1.376 . S
C1701 C1700 1.392 . S
C1701 H1713 0.929 . S
C1702 C1698 1.531 . S
C1702 H1714 0.960 . S
C1702 H1715 0.962 . S
C1702 H1716 0.960 . S
C1703 C1700 1.511 . S
C1703 H1717 0.961 . S
C1703 H1718 0.961 . S
C1703 H1719 0.961 . S
C1704 C1705 1.370 . S
C1704 C1706 1.363 . S
C1704 H1720 0.931 . S
C1705 C1704 1.370 . S
C1705 C1709 1.408 . S
C1706 C1704 1.363 . S
C1706 C1707 1.370 . S
C1706 C1710 1.524 . S
C1707 C1699 1.503 . S
C1707 C1706 1.370 . S
C1707 C1708 1.403 . S
C1708 C1707 1.403 . S
C1708 C1709 1.404 . S
C1708 C1711 1.539 . S
C1709 C1705 1.408 . S
C1709 C1708 1.404 . S
C1709 H1721 0.930 . S
C1710 C1706 1.524 . S
C1710 H1722 0.956 . S
C1710 H1723 0.961 . S
C1710 H1724 0.961 . S
C1711 C1708 1.539 . S
C1711 H1725 0.958 . S
C1711 H1726 0.961 . S
C1711 H1727 0.960 . S
H1712 C1696 0.931 . S
H1713 C1701 0.929 . S
H1714 C1702 0.960 . S
H1715 C1702 0.962 . S
H1716 C1702 0.960 . S
H1717 C1703 0.961 . S
H1718 C1703 0.961 . S
H1719 C1703 0.961 . S
H1720 C1704 0.931 . S
H1721 C1709 0.930 . S
H1722 C1710 0.956 . S
H1723 C1710 0.961 . S
H1724 C1710 0.961 . S
H1725 C1711 0.958 . S
H1726 C1711 0.961 . S
H1727 C1711 0.960 . S
C1728 C1729 1.391 . S
C1728 C1730 1.394 . S
C1728 H1744 0.931 . S
C1729 C1728 1.391 . S
C1729 C1733 1.376 . S
C1730 C1728 1.394 . S
C1730 C1731 1.369 . S
C1730 C1734 1.531 . S
C1731 C1730 1.369 . S
C1731 C1732 1.410 . S
C1731 C1739 1.503 . S
C1732 C1731 1.410 . S
C1732 C1733 1.392 . S
C1732 C1735 1.511 . S
C1733 C1729 1.376 . S
C1733 C1732 1.392 . S
C1733 H1745 0.929 . S
C1734 C1730 1.531 . S
C1734 H1746 0.960 . S
C1734 H1747 0.962 . S
C1734 H1748 0.960 . S
C1735 C1732 1.511 . S
C1735 H1749 0.961 . S
C1735 H1750 0.961 . S
C1735 H1751 0.961 . S
C1736 C1737 1.370 . S
C1736 C1738 1.363 . S
C1736 H1752 0.931 . S
C1737 C1736 1.370 . S
C1737 C1741 1.408 . S
C1738 C1736 1.363 . S
C1738 C1739 1.370 . S
C1738 C1742 1.524 . S
C1739 C1731 1.503 . S
C1739 C1738 1.370 . S
C1739 C1740 1.403 . S
C1740 C1739 1.403 . S
C1740 C1741 1.404 . S
C1740 C1743 1.539 . S
C1741 C1737 1.408 . S
C1741 C1740 1.404 . S
C1741 H1753 0.930 . S
C1742 C1738 1.524 . S
C1742 H1754 0.956 . S
C1742 H1755 0.961 . S
C1742 H1756 0.961 . S
C1743 C1740 1.539 . S
C1743 H1757 0.958 . S
C1743 H1758 0.961 . S
C1743 H1759 0.960 . S
H1744 C1728 0.931 . S
H1745 C1733 0.929 . S
H1746 C1734 0.960 . S
H1747 C1734 0.962 . S
H1748 C1734 0.960 . S
H1749 C1735 0.961 . S
H1750 C1735 0.961 . S
H1751 C1735 0.961 . S
H1752 C1736 0.931 . S
H1753 C1741 0.930 . S
H1754 C1742 0.956 . S
H1755 C1742 0.961 . S
H1756 C1742 0.961 . S
H1757 C1743 0.958 . S
H1758 C1743 0.961 . S
H1759 C1743 0.960 . S
C1760 C1761 1.391 . S
C1760 C1762 1.394 . S
C1760 H1776 0.931 . S
C1761 C1760 1.391 . S
C1761 C1765 1.376 . S
C1762 C1760 1.394 . S
C1762 C1763 1.369 . S
C1762 C1766 1.531 . S
C1763 C1762 1.369 . S
C1763 C1764 1.410 . S
C1763 C1771 1.503 . S
C1764 C1763 1.410 . S
C1764 C1765 1.392 . S
C1764 C1767 1.511 . S
C1765 C1761 1.376 . S
C1765 C1764 1.392 . S
C1765 H1777 0.929 . S
C1766 C1762 1.531 . S
C1766 H1778 0.960 . S
C1766 H1779 0.962 . S
C1766 H1780 0.960 . S
C1767 C1764 1.511 . S
C1767 H1781 0.961 . S
C1767 H1782 0.961 . S
C1767 H1783 0.961 . S
C1768 C1769 1.370 . S
C1768 C1770 1.363 . S
C1768 H1784 0.931 . S
C1769 C1768 1.370 . S
C1769 C1773 1.408 . S
C1770 C1768 1.363 . S
C1770 C1771 1.370 . S
C1770 C1774 1.524 . S
C1771 C1763 1.503 . S
C1771 C1770 1.370 . S
C1771 C1772 1.403 . S
C1772 C1771 1.403 . S
C1772 C1773 1.404 . S
C1772 C1775 1.539 . S
C1773 C1769 1.408 . S
C1773 C1772 1.404 . S
C1773 H1785 0.930 . S
C1774 C1770 1.524 . S
C1774 H1786 0.956 . S
C1774 H1787 0.961 . S
C1774 H1788 0.961 . S
C1775 C1772 1.539 . S
C1775 H1789 0.958 . S
C1775 H1790 0.961 . S
C1775 H1791 0.960 . S
H1776 C1760 0.931 . S
H1777 C1765 0.929 . S
H1778 C1766 0.960 . S
H1779 C1766 0.962 . S
H1780 C1766 0.960 . S
H1781 C1767 0.961 . S
H1782 C1767 0.961 . S
H1783 C1767 0.961 . S
H1784 C1768 0.931 . S
H1785 C1773 0.930 . S
H1786 C1774 0.956 . S
H1787 C1774 0.961 . S
H1788 C1774 0.961 . S
H1789 C1775 0.958 . S
H1790 C1775 0.961 . S
H1791 C1775 0.960 . S
C1792 C1793 1.391 . S
C1792 C1794 1.394 . S
C1792 H1808 0.931 . S
C1793 C1792 1.391 . S
C1793 C1797 1.376 . S
C1794 C1792 1.394 . S
C1794 C1795 1.369 . S
C1794 C1798 1.531 . S
C1795 C1794 1.369 . S
C1795 C1796 1.410 . S
C1795 C1803 1.503 . S
C1796 C1795 1.410 . S
C1796 C1797 1.392 . S
C1796 C1799 1.511 . S
C1797 C1793 1.376 . S
C1797 C1796 1.392 . S
C1797 H1809 0.929 . S
C1798 C1794 1.531 . S
C1798 H1810 0.960 . S
C1798 H1811 0.962 . S
C1798 H1812 0.960 . S
C1799 C1796 1.511 . S
C1799 H1813 0.961 . S
C1799 H1814 0.961 . S
C1799 H1815 0.961 . S
C1800 C1801 1.370 . S
C1800 C1802 1.363 . S
C1800 H1816 0.931 . S
C1801 C1800 1.370 . S
C1801 C1805 1.408 . S
C1802 C1800 1.363 . S
C1802 C1803 1.370 . S
C1802 C1806 1.524 . S
C1803 C1795 1.503 . S
C1803 C1802 1.370 . S
C1803 C1804 1.403 . S
C1804 C1803 1.403 . S
C1804 C1805 1.404 . S
C1804 C1807 1.539 . S
C1805 C1801 1.408 . S
C1805 C1804 1.404 . S
C1805 H1817 0.930 . S
C1806 C1802 1.524 . S
C1806 H1818 0.956 . S
C1806 H1819 0.961 . S
C1806 H1820 0.961 . S
C1807 C1804 1.539 . S
C1807 H1821 0.958 . S
C1807 H1822 0.961 . S
C1807 H1823 0.960 . S
H1808 C1792 0.931 . S
H1809 C1797 0.929 . S
H1810 C1798 0.960 . S
H1811 C1798 0.962 . S
H1812 C1798 0.960 . S
H1813 C1799 0.961 . S
H1814 C1799 0.961 . S
H1815 C1799 0.961 . S
H1816 C1800 0.931 . S
H1817 C1805 0.930 . S
H1818 C1806 0.956 . S
H1819 C1806 0.961 . S
H1820 C1806 0.961 . S
H1821 C1807 0.958 . S
H1822 C1807 0.961 . S
H1823 C1807 0.960 . S
C1824 C1825 1.391 . S
C1824 C1826 1.394 . S
C1824 H1840 0.931 . S
C1825 C1824 1.391 . S
C1825 C1829 1.376 . S
C1826 C1824 1.394 . S
C1826 C1827 1.369 . S
C1826 C1830 1.531 . S
C1827 C1826 1.369 . S
C1827 C1828 1.410 . S
C1827 C1835 1.503 . S
C1828 C1827 1.410 . S
C1828 C1829 1.392 . S
C1828 C1831 1.511 . S
C1829 C1825 1.376 . S
C1829 C1828 1.392 . S
C1829 H1841 0.929 . S
C1830 C1826 1.531 . S
C1830 H1842 0.960 . S
C1830 H1843 0.962 . S
C1830 H1844 0.960 . S
C1831 C1828 1.511 . S
C1831 H1845 0.961 . S
C1831 H1846 0.961 . S
C1831 H1847 0.961 . S
C1832 C1833 1.370 . S
C1832 C1834 1.363 . S
C1832 H1848 0.931 . S
C1833 C1832 1.370 . S
C1833 C1837 1.408 . S
C1834 C1832 1.363 . S
C1834 C1835 1.370 . S
C1834 C1838 1.524 . S
C1835 C1827 1.503 . S
C1835 C1834 1.370 . S
C1835 C1836 1.403 . S
C1836 C1835 1.403 . S
C1836 C1837 1.404 . S
C1836 C1839 1.539 . S
C1837 C1833 1.408 . S
C1837 C1836 1.404 . S
C1837 H1849 0.930 . S
C1838 C1834 1.524 . S
C1838 H1850 0.956 . S
C1838 H1851 0.961 . S
C1838 H1852 0.961 . S
C1839 C1836 1.539 . S
C1839 H1853 0.958 . S
C1839 H1854 0.961 . S
C1839 H1855 0.960 . S
H1840 C1824 0.931 . S
H1841 C1829 0.929 . S
H1842 C1830 0.960 . S
H1843 C1830 0.962 . S
H1844 C1830 0.960 . S
H1845 C1831 0.961 . S
H1846 C1831 0.961 . S
H1847 C1831 0.961 . S
H1848 C1832 0.931 . S
H1849 C1837 0.930 . S
H1850 C1838 0.956 . S
H1851 C1838 0.961 . S
H1852 C1838 0.961 . S
H1853 C1839 0.958 . S
H1854 C1839 0.961 . S
H1855 C1839 0.960 . S
C1856 C1857 1.391 . S
C1856 C1858 1.394 . S
C1856 H1872 0.931 . S
C1857 C1856 1.391 . S
C1857 C1861 1.376 . S
C1858 C1856 1.394 . S
C1858 C1859 1.369 . S
C1858 C1862 1.531 . S
C1859 C1858 1.369 . S
C1859 C1860 1.410 . S
C1859 C1867 1.503 . S
C1860 C1859 1.410 . S
C1860 C1861 1.392 . S
C1860 C1863 1.511 . S
C1861 C1857 1.376 . S
C1861 C1860 1.392 . S
C1861 H1873 0.929 . S
C1862 C1858 1.531 . S
C1862 H1874 0.960 . S
C1862 H1875 0.962 . S
C1862 H1876 0.960 . S
C1863 C1860 1.511 . S
C1863 H1877 0.961 . S
C1863 H1878 0.961 . S
C1863 H1879 0.961 . S
C1864 C1865 1.370 . S
C1864 C1866 1.363 . S
C1864 H1880 0.931 . S
C1865 C1864 1.370 . S
C1865 C1869 1.408 . S
C1866 C1864 1.363 . S
C1866 C1867 1.370 . S
C1866 C1870 1.524 . S
C1867 C1859 1.503 . S
C1867 C1866 1.370 . S
C1867 C1868 1.403 . S
C1868 C1867 1.403 . S
C1868 C1869 1.404 . S
C1868 C1871 1.539 . S
C1869 C1865 1.408 . S
C1869 C1868 1.404 . S
C1869 H1881 0.930 . S
C1870 C1866 1.524 . S
C1870 H1882 0.956 . S
C1870 H1883 0.961 . S
C1870 H1884 0.961 . S
C1871 C1868 1.539 . S
C1871 H1885 0.958 . S
C1871 H1886 0.961 . S
C1871 H1887 0.960 . S
H1872 C1856 0.931 . S
H1873 C1861 0.929 . S
H1874 C1862 0.960 . S
H1875 C1862 0.962 . S
H1876 C1862 0.960 . S
H1877 C1863 0.961 . S
H1878 C1863 0.961 . S
H1879 C1863 0.961 . S
H1880 C1864 0.931 . S
H1881 C1869 0.930 . S
H1882 C1870 0.956 . S
H1883 C1870 0.961 . S
H1884 C1870 0.961 . S
H1885 C1871 0.958 . S
H1886 C1871 0.961 . S
H1887 C1871 0.960 . S
C1888 C1889 1.391 . S
C1888 C1890 1.394 . S
C1888 H1904 0.931 . S
C1889 C1888 1.391 . S
C1889 C1893 1.376 . S
C1890 C1888 1.394 . S
C1890 C1891 1.369 . S
C1890 C1894 1.531 . S
C1891 C1890 1.369 . S
C1891 C1892 1.410 . S
C1891 C1899 1.503 . S
C1892 C1891 1.410 . S
C1892 C1893 1.392 . S
C1892 C1895 1.511 . S
C1893 C1889 1.376 . S
C1893 C1892 1.392 . S
C1893 H1905 0.929 . S
C1894 C1890 1.531 . S
C1894 H1906 0.960 . S
C1894 H1907 0.962 . S
C1894 H1908 0.960 . S
C1895 C1892 1.511 . S
C1895 H1909 0.961 . S
C1895 H1910 0.961 . S
C1895 H1911 0.961 . S
C1896 C1897 1.370 . S
C1896 C1898 1.363 . S
C1896 H1912 0.931 . S
C1897 C1896 1.370 . S
C1897 C1901 1.408 . S
C1898 C1896 1.363 . S
C1898 C1899 1.370 . S
C1898 C1902 1.524 . S
C1899 C1891 1.503 . S
C1899 C1898 1.370 . S
C1899 C1900 1.403 . S
C1900 C1899 1.403 . S
C1900 C1901 1.404 . S
C1900 C1903 1.539 . S
C1901 C1897 1.408 . S
C1901 C1900 1.404 . S
C1901 H1913 0.930 . S
C1902 C1898 1.524 . S
C1902 H1914 0.956 . S
C1902 H1915 0.961 . S
C1902 H1916 0.961 . S
C1903 C1900 1.539 . S
C1903 H1917 0.958 . S
C1903 H1918 0.961 . S
C1903 H1919 0.960 . S
H1904 C1888 0.931 . S
H1905 C1893 0.929 . S
H1906 C1894 0.960 . S
H1907 C1894 0.962 . S
H1908 C1894 0.960 . S
H1909 C1895 0.961 . S
H1910 C1895 0.961 . S
H1911 C1895 0.961 . S
H1912 C1896 0.931 . S
H1913 C1901 0.930 . S
H1914 C1902 0.956 . S
H1915 C1902 0.961 . S
H1916 C1902 0.961 . S
H1917 C1903 0.958 . S
H1918 C1903 0.961 . S
H1919 C1903 0.960 . S
C1920 C1921 1.391 . S
C1920 C1922 1.394 . S
C1920 H1936 0.931 . S
C1921 C1920 1.391 . S
C1921 C1925 1.376 . S
C1922 C1920 1.394 . S
C1922 C1923 1.369 . S
C1922 C1926 1.531 . S
C1923 C1922 1.369 . S
C1923 C1924 1.410 . S
C1923 C1931 1.503 . S
C1924 C1923 1.410 . S
C1924 C1925 1.392 . S
C1924 C1927 1.511 . S
C1925 C1921 1.376 . S
C1925 C1924 1.392 . S
C1925 H1937 0.929 . S
C1926 C1922 1.531 . S
C1926 H1938 0.960 . S
C1926 H1939 0.962 . S
C1926 H1940 0.960 . S
C1927 C1924 1.511 . S
C1927 H1941 0.961 . S
C1927 H1942 0.961 . S
C1927 H1943 0.961 . S
C1928 C1929 1.370 . S
C1928 C1930 1.363 . S
C1928 H1944 0.931 . S
C1929 C1928 1.370 . S
C1929 C1933 1.408 . S
C1930 C1928 1.363 . S
C1930 C1931 1.370 . S
C1930 C1934 1.524 . S
C1931 C1923 1.503 . S
C1931 C1930 1.370 . S
C1931 C1932 1.403 . S
C1932 C1931 1.403 . S
C1932 C1933 1.404 . S
C1932 C1935 1.539 . S
C1933 C1929 1.408 . S
C1933 C1932 1.404 . S
C1933 H1945 0.930 . S
C1934 C1930 1.524 . S
C1934 H1946 0.956 . S
C1934 H1947 0.961 . S
C1934 H1948 0.961 . S
C1935 C1932 1.539 . S
C1935 H1949 0.958 . S
C1935 H1950 0.961 . S
C1935 H1951 0.960 . S
H1936 C1920 0.931 . S
H1937 C1925 0.929 . S
H1938 C1926 0.960 . S
H1939 C1926 0.962 . S
H1940 C1926 0.960 . S
H1941 C1927 0.961 . S
H1942 C1927 0.961 . S
H1943 C1927 0.961 . S
H1944 C1928 0.931 . S
H1945 C1933 0.930 . S
H1946 C1934 0.956 . S
H1947 C1934 0.961 . S
H1948 C1934 0.961 . S
H1949 C1935 0.958 . S
H1950 C1935 0.961 . S
H1951 C1935 0.960 . S
C1952 C1953 1.391 . S
C1952 C1954 1.394 . S
C1952 H1968 0.931 . S
C1953 C1952 1.391 . S
C1953 C1957 1.376 . S
C1954 C1952 1.394 . S
C1954 C1955 1.369 . S
C1954 C1958 1.531 . S
C1955 C1954 1.369 . S
C1955 C1956 1.410 . S
C1955 C1963 1.503 . S
C1956 C1955 1.410 . S
C1956 C1957 1.392 . S
C1956 C1959 1.511 . S
C1957 C1953 1.376 . S
C1957 C1956 1.392 . S
C1957 H1969 0.929 . S
C1958 C1954 1.531 . S
C1958 H1970 0.960 . S
C1958 H1971 0.962 . S
C1958 H1972 0.960 . S
C1959 C1956 1.511 . S
C1959 H1973 0.961 . S
C1959 H1974 0.961 . S
C1959 H1975 0.961 . S
C1960 C1961 1.370 . S
C1960 C1962 1.363 . S
C1960 H1976 0.931 . S
C1961 C1960 1.370 . S
C1961 C1965 1.408 . S
C1962 C1960 1.363 . S
C1962 C1963 1.370 . S
C1962 C1966 1.524 . S
C1963 C1955 1.503 . S
C1963 C1962 1.370 . S
C1963 C1964 1.403 . S
C1964 C1963 1.403 . S
C1964 C1965 1.404 . S
C1964 C1967 1.539 . S
C1965 C1961 1.408 . S
C1965 C1964 1.404 . S
C1965 H1977 0.930 . S
C1966 C1962 1.524 . S
C1966 H1978 0.956 . S
C1966 H1979 0.961 . S
C1966 H1980 0.961 . S
C1967 C1964 1.539 . S
C1967 H1981 0.958 . S
C1967 H1982 0.961 . S
C1967 H1983 0.960 . S
H1968 C1952 0.931 . S
H1969 C1957 0.929 . S
H1970 C1958 0.960 . S
H1971 C1958 0.962 . S
H1972 C1958 0.960 . S
H1973 C1959 0.961 . S
H1974 C1959 0.961 . S
H1975 C1959 0.961 . S
H1976 C1960 0.931 . S
H1977 C1965 0.930 . S
H1978 C1966 0.956 . S
H1979 C1966 0.961 . S
H1980 C1966 0.961 . S
H1981 C1967 0.958 . S
H1982 C1967 0.961 . S
H1983 C1967 0.960 . S
C1984 C1985 1.391 . S
C1984 C1986 1.394 . S
C1984 H2000 0.931 . S
C1985 C1984 1.391 . S
C1985 C1989 1.376 . S
C1986 C1984 1.394 . S
C1986 C1987 1.369 . S
C1986 C1990 1.531 . S
C1987 C1986 1.369 . S
C1987 C1988 1.410 . S
C1987 C1995 1.503 . S
C1988 C1987 1.410 . S
C1988 C1989 1.392 . S
C1988 C1991 1.511 . S
C1989 C1985 1.376 . S
C1989 C1988 1.392 . S
C1989 H2001 0.929 . S
C1990 C1986 1.531 . S
C1990 H2002 0.960 . S
C1990 H2003 0.962 . S
C1990 H2004 0.960 . S
C1991 C1988 1.511 . S
C1991 H2005 0.961 . S
C1991 H2006 0.961 . S
C1991 H2007 0.961 . S
C1992 C1993 1.370 . S
C1992 C1994 1.363 . S
C1992 H2008 0.931 . S
C1993 C1992 1.370 . S
C1993 C1997 1.408 . S
C1994 C1992 1.363 . S
C1994 C1995 1.370 . S
C1994 C1998 1.524 . S
C1995 C1987 1.503 . S
C1995 C1994 1.370 . S
C1995 C1996 1.403 . S
C1996 C1995 1.403 . S
C1996 C1997 1.404 . S
C1996 C1999 1.539 . S
C1997 C1993 1.408 . S
C1997 C1996 1.404 . S
C1997 H2009 0.930 . S
C1998 C1994 1.524 . S
C1998 H2010 0.956 . S
C1998 H2011 0.961 . S
C1998 H2012 0.961 . S
C1999 C1996 1.539 . S
C1999 H2013 0.958 . S
C1999 H2014 0.961 . S
C1999 H2015 0.960 . S
H2000 C1984 0.931 . S
H2001 C1989 0.929 . S
H2002 C1990 0.960 . S
H2003 C1990 0.962 . S
H2004 C1990 0.960 . S
H2005 C1991 0.961 . S
H2006 C1991 0.961 . S
H2007 C1991 0.961 . S
H2008 C1992 0.931 . S
H2009 C1997 0.930 . S
H2010 C1998 0.956 . S
H2011 C1998 0.961 . S
H2012 C1998 0.961 . S
H2013 C1999 0.958 . S
H2014 C1999 0.961 . S
H2015 C1999 0.960 . S
C2016 C2017 1.391 . S
C2016 C2018 1.394 . S
C2016 H2032 0.931 . S
C2017 C2016 1.391 . S
C2017 C2021 1.376 . S
C2018 C2016 1.394 . S
C2018 C2019 1.369 . S
C2018 C2022 1.531 . S
C2019 C2018 1.369 . S
C2019 C2020 1.410 . S
C2019 C2027 1.503 . S
C2020 C2019 1.410 . S
C2020 C2021 1.392 . S
C2020 C2023 1.511 . S
C2021 C2017 1.376 . S
C2021 C2020 1.392 . S
C2021 H2033 0.929 . S
C2022 C2018 1.531 . S
C2022 H2034 0.960 . S
C2022 H2035 0.962 . S
C2022 H2036 0.960 . S
C2023 C2020 1.511 . S
C2023 H2037 0.961 . S
C2023 H2038 0.961 . S
C2023 H2039 0.961 . S
C2024 C2025 1.370 . S
C2024 C2026 1.363 . S
C2024 H2040 0.931 . S
C2025 C2024 1.370 . S
C2025 C2029 1.408 . S
C2026 C2024 1.363 . S
C2026 C2027 1.370 . S
C2026 C2030 1.524 . S
C2027 C2019 1.503 . S
C2027 C2026 1.370 . S
C2027 C2028 1.403 . S
C2028 C2027 1.403 . S
C2028 C2029 1.404 . S
C2028 C2031 1.539 . S
C2029 C2025 1.408 . S
C2029 C2028 1.404 . S
C2029 H2041 0.930 . S
C2030 C2026 1.524 . S
C2030 H2042 0.956 . S
C2030 H2043 0.961 . S
C2030 H2044 0.961 . S
C2031 C2028 1.539 . S
C2031 H2045 0.958 . S
C2031 H2046 0.961 . S
C2031 H2047 0.960 . S
H2032 C2016 0.931 . S
H2033 C2021 0.929 . S
H2034 C2022 0.960 . S
H2035 C2022 0.962 . S
H2036 C2022 0.960 . S
H2037 C2023 0.961 . S
H2038 C2023 0.961 . S
H2039 C2023 0.961 . S
H2040 C2024 0.931 . S
H2041 C2029 0.930 . S
H2042 C2030 0.956 . S
H2043 C2030 0.961 . S
H2044 C2030 0.961 . S
H2045 C2031 0.958 . S
H2046 C2031 0.961 . S
H2047 C2031 0.960 . S
C2048 C2049 1.391 . S
C2048 C2050 1.394 . S
C2048 H2064 0.931 . S
C2049 C2048 1.391 . S
C2049 C2053 1.376 . S
C2050 C2048 1.394 . S
C2050 C2051 1.369 . S
C2050 C2054 1.531 . S
C2051 C2050 1.369 . S
C2051 C2052 1.410 . S
C2051 C2059 1.503 . S
C2052 C2051 1.410 . S
C2052 C2053 1.392 . S
C2052 C2055 1.511 . S
C2053 C2049 1.376 . S
C2053 C2052 1.392 . S
C2053 H2065 0.929 . S
C2054 C2050 1.531 . S
C2054 H2066 0.960 . S
C2054 H2067 0.962 . S
C2054 H2068 0.960 . S
C2055 C2052 1.511 . S
C2055 H2069 0.961 . S
C2055 H2070 0.961 . S
C2055 H2071 0.961 . S
C2056 C2057 1.370 . S
C2056 C2058 1.363 . S
C2056 H2072 0.931 . S
C2057 C2056 1.370 . S
C2057 C2061 1.408 . S
C2058 C2056 1.363 . S
C2058 C2059 1.370 . S
C2058 C2062 1.524 . S
C2059 C2051 1.503 . S
C2059 C2058 1.370 . S
C2059 C2060 1.403 . S
C2060 C2059 1.403 . S
C2060 C2061 1.404 . S
C2060 C2063 1.539 . S
C2061 C2057 1.408 . S
C2061 C2060 1.404 . S
C2061 H2073 0.930 . S
C2062 C2058 1.524 . S
C2062 H2074 0.956 . S
C2062 H2075 0.961 . S
C2062 H2076 0.961 . S
C2063 C2060 1.539 . S
C2063 H2077 0.958 . S
C2063 H2078 0.961 . S
C2063 H2079 0.960 . S
H2064 C2048 0.931 . S
H2065 C2053 0.929 . S
H2066 C2054 0.960 . S
H2067 C2054 0.962 . S
H2068 C2054 0.960 . S
H2069 C2055 0.961 . S
H2070 C2055 0.961 . S
H2071 C2055 0.961 . S
H2072 C2056 0.931 . S
H2073 C2061 0.930 . S
H2074 C2062 0.956 . S
H2075 C2062 0.961 . S
H2076 C2062 0.961 . S
H2077 C2063 0.958 . S
H2078 C2063 0.961 . S
H2079 C2063 0.960 . S
C2080 C2081 1.391 . S
C2080 C2082 1.394 . S
C2080 H2096 0.931 . S
C2081 C2080 1.391 . S
C2081 C2085 1.376 . S
C2082 C2080 1.394 . S
C2082 C2083 1.369 . S
C2082 C2086 1.531 . S
C2083 C2082 1.369 . S
C2083 C2084 1.410 . S
C2083 C2091 1.503 . S
C2084 C2083 1.410 . S
C2084 C2085 1.392 . S
C2084 C2087 1.511 . S
C2085 C2081 1.376 . S
C2085 C2084 1.392 . S
C2085 H2097 0.929 . S
C2086 C2082 1.531 . S
C2086 H2098 0.960 . S
C2086 H2099 0.962 . S
C2086 H2100 0.960 . S
C2087 C2084 1.511 . S
C2087 H2101 0.961 . S
C2087 H2102 0.961 . S
C2087 H2103 0.961 . S
C2088 C2089 1.370 . S
C2088 C2090 1.363 . S
C2088 H2104 0.931 . S
C2089 C2088 1.370 . S
C2089 C2093 1.408 . S
C2090 C2088 1.363 . S
C2090 C2091 1.370 . S
C2090 C2094 1.524 . S
C2091 C2083 1.503 . S
C2091 C2090 1.370 . S
C2091 C2092 1.403 . S
C2092 C2091 1.403 . S
C2092 C2093 1.404 . S
C2092 C2095 1.539 . S
C2093 C2089 1.408 . S
C2093 C2092 1.404 . S
C2093 H2105 0.930 . S
C2094 C2090 1.524 . S
C2094 H2106 0.956 . S
C2094 H2107 0.961 . S
C2094 H2108 0.961 . S
C2095 C2092 1.539 . S
C2095 H2109 0.958 . S
C2095 H2110 0.961 . S
C2095 H2111 0.960 . S
H2096 C2080 0.931 . S
H2097 C2085 0.929 . S
H2098 C2086 0.960 . S
H2099 C2086 0.962 . S
H2100 C2086 0.960 . S
H2101 C2087 0.961 . S
H2102 C2087 0.961 . S
H2103 C2087 0.961 . S
H2104 C2088 0.931 . S
H2105 C2093 0.930 . S
H2106 C2094 0.956 . S
H2107 C2094 0.961 . S
H2108 C2094 0.961 . S
H2109 C2095 0.958 . S
H2110 C2095 0.961 . S
H2111 C2095 0.960 . S
C2112 C2113 1.391 . S
C2112 C2114 1.394 . S
C2112 H2128 0.931 . S
C2113 C2112 1.391 . S
C2113 C2117 1.376 . S
C2114 C2112 1.394 . S
C2114 C2115 1.369 . S
C2114 C2118 1.531 . S
C2115 C2114 1.369 . S
C2115 C2116 1.410 . S
C2115 C2123 1.503 . S
C2116 C2115 1.410 . S
C2116 C2117 1.392 . S
C2116 C2119 1.511 . S
C2117 C2113 1.376 . S
C2117 C2116 1.392 . S
C2117 H2129 0.929 . S
C2118 C2114 1.531 . S
C2118 H2130 0.960 . S
C2118 H2131 0.962 . S
C2118 H2132 0.960 . S
C2119 C2116 1.511 . S
C2119 H2133 0.961 . S
C2119 H2134 0.961 . S
C2119 H2135 0.961 . S
C2120 C2121 1.370 . S
C2120 C2122 1.363 . S
C2120 H2136 0.931 . S
C2121 C2120 1.370 . S
C2121 C2125 1.408 . S
C2122 C2120 1.363 . S
C2122 C2123 1.370 . S
C2122 C2126 1.524 . S
C2123 C2115 1.503 . S
C2123 C2122 1.370 . S
C2123 C2124 1.403 . S
C2124 C2123 1.403 . S
C2124 C2125 1.404 . S
C2124 C2127 1.539 . S
C2125 C2121 1.408 . S
C2125 C2124 1.404 . S
C2125 H2137 0.930 . S
C2126 C2122 1.524 . S
C2126 H2138 0.956 . S
C2126 H2139 0.961 . S
C2126 H2140 0.961 . S
C2127 C2124 1.539 . S
C2127 H2141 0.958 . S
C2127 H2142 0.961 . S
C2127 H2143 0.960 . S
H2128 C2112 0.931 . S
H2129 C2117 0.929 . S
H2130 C2118 0.960 . S
H2131 C2118 0.962 . S
H2132 C2118 0.960 . S
H2133 C2119 0.961 . S
H2134 C2119 0.961 . S
H2135 C2119 0.961 . S
H2136 C2120 0.931 . S
H2137 C2125 0.930 . S
H2138 C2126 0.956 . S
H2139 C2126 0.961 . S
H2140 C2126 0.961 . S
H2141 C2127 0.958 . S
H2142 C2127 0.961 . S
H2143 C2127 0.960 . S
C2144 C2145 1.391 . S
C2144 C2146 1.394 . S
C2144 H2160 0.931 . S
C2145 C2144 1.391 . S
C2145 C2149 1.376 . S
C2146 C2144 1.394 . S
C2146 C2147 1.369 . S
C2146 C2150 1.531 . S
C2147 C2146 1.369 . S
C2147 C2148 1.410 . S
C2147 C2155 1.503 . S
C2148 C2147 1.410 . S
C2148 C2149 1.392 . S
C2148 C2151 1.511 . S
C2149 C2145 1.376 . S
C2149 C2148 1.392 . S
C2149 H2161 0.929 . S
C2150 C2146 1.531 . S
C2150 H2162 0.960 . S
C2150 H2163 0.962 . S
C2150 H2164 0.960 . S
C2151 C2148 1.511 . S
C2151 H2165 0.961 . S
C2151 H2166 0.961 . S
C2151 H2167 0.961 . S
C2152 C2153 1.370 . S
C2152 C2154 1.363 . S
C2152 H2168 0.931 . S
C2153 C2152 1.370 . S
C2153 C2157 1.408 . S
C2154 C2152 1.363 . S
C2154 C2155 1.370 . S
C2154 C2158 1.524 . S
C2155 C2147 1.503 . S
C2155 C2154 1.370 . S
C2155 C2156 1.403 . S
C2156 C2155 1.403 . S
C2156 C2157 1.404 . S
C2156 C2159 1.539 . S
C2157 C2153 1.408 . S
C2157 C2156 1.404 . S
C2157 H2169 0.930 . S
C2158 C2154 1.524 . S
C2158 H2170 0.956 . S
C2158 H2171 0.961 . S
C2158 H2172 0.961 . S
C2159 C2156 1.539 . S
C2159 H2173 0.958 . S
C2159 H2174 0.961 . S
C2159 H2175 0.960 . S
H2160 C2144 0.931 . S
H2161 C2149 0.929 . S
H2162 C2150 0.960 . S
H2163 C2150 0.962 . S
H2164 C2150 0.960 . S
H2165 C2151 0.961 . S
H2166 C2151 0.961 . S
H2167 C2151 0.961 . S
H2168 C2152 0.931 . S
H2169 C2157 0.930 . S
H2170 C2158 0.956 . S
H2171 C2158 0.961 . S
H2172 C2158 0.961 . S
H2173 C2159 0.958 . S
H2174 C2159 0.961 . S
H2175 C2159 0.960 . S
C2176 C2177 1.391 . S
C2176 C2178 1.394 . S
C2176 H2192 0.931 . S
C2177 C2176 1.391 . S
C2177 C2181 1.376 . S
C2178 C2176 1.394 . S
C2178 C2179 1.369 . S
C2178 C2182 1.531 . S
C2179 C2178 1.369 . S
C2179 C2180 1.410 . S
C2179 C2187 1.503 . S
C2180 C2179 1.410 . S
C2180 C2181 1.392 . S
C2180 C2183 1.511 . S
C2181 C2177 1.376 . S
C2181 C2180 1.392 . S
C2181 H2193 0.929 . S
C2182 C2178 1.531 . S
C2182 H2194 0.960 . S
C2182 H2195 0.962 . S
C2182 H2196 0.960 . S
C2183 C2180 1.511 . S
C2183 H2197 0.961 . S
C2183 H2198 0.961 . S
C2183 H2199 0.961 . S
C2184 C2185 1.370 . S
C2184 C2186 1.363 . S
C2184 H2200 0.931 . S
C2185 C2184 1.370 . S
C2185 C2189 1.408 . S
C2186 C2184 1.363 . S
C2186 C2187 1.370 . S
C2186 C2190 1.524 . S
C2187 C2179 1.503 . S
C2187 C2186 1.370 . S
C2187 C2188 1.403 . S
C2188 C2187 1.403 . S
C2188 C2189 1.404 . S
C2188 C2191 1.539 . S
C2189 C2185 1.408 . S
C2189 C2188 1.404 . S
C2189 H2201 0.930 . S
C2190 C2186 1.524 . S
C2190 H2202 0.956 . S
C2190 H2203 0.961 . S
C2190 H2204 0.961 . S
C2191 C2188 1.539 . S
C2191 H2205 0.958 . S
C2191 H2206 0.961 . S
C2191 H2207 0.960 . S
H2192 C2176 0.931 . S
H2193 C2181 0.929 . S
H2194 C2182 0.960 . S
H2195 C2182 0.962 . S
H2196 C2182 0.960 . S
H2197 C2183 0.961 . S
H2198 C2183 0.961 . S
H2199 C2183 0.961 . S
H2200 C2184 0.931 . S
H2201 C2189 0.930 . S
H2202 C2190 0.956 . S
H2203 C2190 0.961 . S
H2204 C2190 0.961 . S
H2205 C2191 0.958 . S
H2206 C2191 0.961 . S
H2207 C2191 0.960 . S
C2208 C2209 1.391 . S
C2208 C2210 1.394 . S
C2208 H2224 0.931 . S
C2209 C2208 1.391 . S
C2209 C2213 1.376 . S
C2210 C2208 1.394 . S
C2210 C2211 1.369 . S
C2210 C2214 1.531 . S
C2211 C2210 1.369 . S
C2211 C2212 1.410 . S
C2211 C2219 1.503 . S
C2212 C2211 1.410 . S
C2212 C2213 1.392 . S
C2212 C2215 1.511 . S
C2213 C2209 1.376 . S
C2213 C2212 1.392 . S
C2213 H2225 0.929 . S
C2214 C2210 1.531 . S
C2214 H2226 0.960 . S
C2214 H2227 0.962 . S
C2214 H2228 0.960 . S
C2215 C2212 1.511 . S
C2215 H2229 0.961 . S
C2215 H2230 0.961 . S
C2215 H2231 0.961 . S
C2216 C2217 1.370 . S
C2216 C2218 1.363 . S
C2216 H2232 0.931 . S
C2217 C2216 1.370 . S
C2217 C2221 1.408 . S
C2218 C2216 1.363 . S
C2218 C2219 1.370 . S
C2218 C2222 1.524 . S
C2219 C2211 1.503 . S
C2219 C2218 1.370 . S
C2219 C2220 1.403 . S
C2220 C2219 1.403 . S
C2220 C2221 1.404 . S
C2220 C2223 1.539 . S
C2221 C2217 1.408 . S
C2221 C2220 1.404 . S
C2221 H2233 0.930 . S
C2222 C2218 1.524 . S
C2222 H2234 0.956 . S
C2222 H2235 0.961 . S
C2222 H2236 0.961 . S
C2223 C2220 1.539 . S
C2223 H2237 0.958 . S
C2223 H2238 0.961 . S
C2223 H2239 0.960 . S
H2224 C2208 0.931 . S
H2225 C2213 0.929 . S
H2226 C2214 0.960 . S
H2227 C2214 0.962 . S
H2228 C2214 0.960 . S
H2229 C2215 0.961 . S
H2230 C2215 0.961 . S
H2231 C2215 0.961 . S
H2232 C2216 0.931 . S
H2233 C2221 0.930 . S
H2234 C2222 0.956 . S
H2235 C2222 0.961 . S
H2236 C2222 0.961 . S
H2237 C2223 0.958 . S
H2238 C2223 0.961 . S
H2239 C2223 0.960 . S
C2240 C2241 1.391 . S
C2240 C2242 1.394 . S
C2240 H2256 0.931 . S
C2241 C2240 1.391 . S
C2241 C2245 1.376 . S
C2242 C2240 1.394 . S
C2242 C2243 1.369 . S
C2242 C2246 1.531 . S
C2243 C2242 1.369 . S
C2243 C2244 1.410 . S
C2243 C2251 1.503 . S
C2244 C2243 1.410 . S
C2244 C2245 1.392 . S
C2244 C2247 1.511 . S
C2245 C2241 1.376 . S
C2245 C2244 1.392 . S
C2245 H2257 0.929 . S
C2246 C2242 1.531 . S
C2246 H2258 0.960 . S
C2246 H2259 0.962 . S
C2246 H2260 0.960 . S
C2247 C2244 1.511 . S
C2247 H2261 0.961 . S
C2247 H2262 0.961 . S
C2247 H2263 0.961 . S
C2248 C2249 1.370 . S
C2248 C2250 1.363 . S
C2248 H2264 0.931 . S
C2249 C2248 1.370 . S
C2249 C2253 1.408 . S
C2250 C2248 1.363 . S
C2250 C2251 1.370 . S
C2250 C2254 1.524 . S
C2251 C2243 1.503 . S
C2251 C2250 1.370 . S
C2251 C2252 1.403 . S
C2252 C2251 1.403 . S
C2252 C2253 1.404 . S
C2252 C2255 1.539 . S
C2253 C2249 1.408 . S
C2253 C2252 1.404 . S
C2253 H2265 0.930 . S
C2254 C2250 1.524 . S
C2254 H2266 0.956 . S
C2254 H2267 0.961 . S
C2254 H2268 0.961 . S
C2255 C2252 1.539 . S
C2255 H2269 0.958 . S
C2255 H2270 0.961 . S
C2255 H2271 0.960 . S
H2256 C2240 0.931 . S
H2257 C2245 0.929 . S
H2258 C2246 0.960 . S
H2259 C2246 0.962 . S
H2260 C2246 0.960 . S
H2261 C2247 0.961 . S
H2262 C2247 0.961 . S
H2263 C2247 0.961 . S
H2264 C2248 0.931 . S
H2265 C2253 0.930 . S
H2266 C2254 0.956 . S
H2267 C2254 0.961 . S
H2268 C2254 0.961 . S
H2269 C2255 0.958 . S
H2270 C2255 0.961 . S
H2271 C2255 0.960 . S
C2272 C2273 1.391 . S
C2272 C2274 1.394 . S
C2272 H2288 0.931 . S
C2273 C2272 1.391 . S
C2273 C2277 1.376 . S
C2274 C2272 1.394 . S
C2274 C2275 1.369 . S
C2274 C2278 1.531 . S
C2275 C2274 1.369 . S
C2275 C2276 1.410 . S
C2275 C2283 1.503 . S
C2276 C2275 1.410 . S
C2276 C2277 1.392 . S
C2276 C2279 1.511 . S
C2277 C2273 1.376 . S
C2277 C2276 1.392 . S
C2277 H2289 0.929 . S
C2278 C2274 1.531 . S
C2278 H2290 0.960 . S
C2278 H2291 0.962 . S
C2278 H2292 0.960 . S
C2279 C2276 1.511 . S
C2279 H2293 0.961 . S
C2279 H2294 0.961 . S
C2279 H2295 0.961 . S
C2280 C2281 1.370 . S
C2280 C2282 1.363 . S
C2280 H2296 0.931 . S
C2281 C2280 1.370 . S
C2281 C2285 1.408 . S
C2282 C2280 1.363 . S
C2282 C2283 1.370 . S
C2282 C2286 1.524 . S
C2283 C2275 1.503 . S
C2283 C2282 1.370 . S
C2283 C2284 1.403 . S
C2284 C2283 1.403 . S
C2284 C2285 1.404 . S
C2284 C2287 1.539 . S
C2285 C2281 1.408 . S
C2285 C2284 1.404 . S
C2285 H2297 0.930 . S
C2286 C2282 1.524 . S
C2286 H2298 0.956 . S
C2286 H2299 0.961 . S
C2286 H2300 0.961 . S
C2287 C2284 1.539 . S
C2287 H2301 0.958 . S
C2287 H2302 0.961 . S
C2287 H2303 0.960 . S
H2288 C2272 0.931 . S
H2289 C2277 0.929 . S
H2290 C2278 0.960 . S
H2291 C2278 0.962 . S
H2292 C2278 0.960 . S
H2293 C2279 0.961 . S
H2294 C2279 0.961 . S
H2295 C2279 0.961 . S
H2296 C2280 0.931 . S
H2297 C2285 0.930 . S
H2298 C2286 0.956 . S
H2299 C2286 0.961 . S
H2300 C2286 0.961 . S
H2301 C2287 0.958 . S
H2302 C2287 0.961 . S
H2303 C2287 0.960 . S
C2304 C2305 1.391 . S
C2304 C2306 1.394 . S
C2304 H2320 0.931 . S
C2305 C2304 1.391 . S
C2305 C2309 1.376 . S
C2306 C2304 1.394 . S
C2306 C2307 1.369 . S
C2306 C2310 1.531 . S
C2307 C2306 1.369 . S
C2307 C2308 1.410 . S
C2307 C2315 1.503 . S
C2308 C2307 1.410 . S
C2308 C2309 1.392 . S
C2308 C2311 1.511 . S
C2309 C2305 1.376 . S
C2309 C2308 1.392 . S
C2309 H2321 0.929 . S
C2310 C2306 1.531 . S
C2310 H2322 0.960 . S
C2310 H2323 0.962 . S
C2310 H2324 0.960 . S
C2311 C2308 1.511 . S
C2311 H2325 0.961 . S
C2311 H2326 0.961 . S
C2311 H2327 0.961 . S
C2312 C2313 1.370 . S
C2312 C2314 1.363 . S
C2312 H2328 0.931 . S
C2313 C2312 1.370 . S
C2313 C2317 1.408 . S
C2314 C2312 1.363 . S
C2314 C2315 1.370 . S
C2314 C2318 1.524 . S
C2315 C2307 1.503 . S
C2315 C2314 1.370 . S
C2315 C2316 1.403 . S
C2316 C2315 1.403 . S
C2316 C2317 1.404 . S
C2316 C2319 1.539 . S
C2317 C2313 1.408 . S
C2317 C2316 1.404 . S
C2317 H2329 0.930 . S
C2318 C2314 1.524 . S
C2318 H2330 0.956 . S
C2318 H2331 0.961 . S
C2318 H2332 0.961 . S
C2319 C2316 1.539 . S
C2319 H2333 0.958 . S
C2319 H2334 0.961 . S
C2319 H2335 0.960 . S
H2320 C2304 0.931 . S
H2321 C2309 0.929 . S
H2322 C2310 0.960 . S
H2323 C2310 0.962 . S
H2324 C2310 0.960 . S
H2325 C2311 0.961 . S
H2326 C2311 0.961 . S
H2327 C2311 0.961 . S
H2328 C2312 0.931 . S
H2329 C2317 0.930 . S
H2330 C2318 0.956 . S
H2331 C2318 0.961 . S
H2332 C2318 0.961 . S
H2333 C2319 0.958 . S
H2334 C2319 0.961 . S
H2335 C2319 0.960 . S
C2336 C2337 1.391 . S
C2336 C2338 1.394 . S
C2336 H2352 0.931 . S
C2337 C2336 1.391 . S
C2337 C2341 1.376 . S
C2338 C2336 1.394 . S
C2338 C2339 1.369 . S
C2338 C2342 1.531 . S
C2339 C2338 1.369 . S
C2339 C2340 1.410 . S
C2339 C2347 1.503 . S
C2340 C2339 1.410 . S
C2340 C2341 1.392 . S
C2340 C2343 1.511 . S
C2341 C2337 1.376 . S
C2341 C2340 1.392 . S
C2341 H2353 0.929 . S
C2342 C2338 1.531 . S
C2342 H2354 0.960 . S
C2342 H2355 0.962 . S
C2342 H2356 0.960 . S
C2343 C2340 1.511 . S
C2343 H2357 0.961 . S
C2343 H2358 0.961 . S
C2343 H2359 0.961 . S
C2344 C2345 1.370 . S
C2344 C2346 1.363 . S
C2344 H2360 0.931 . S
C2345 C2344 1.370 . S
C2345 C2349 1.408 . S
C2346 C2344 1.363 . S
C2346 C2347 1.370 . S
C2346 C2350 1.524 . S
C2347 C2339 1.503 . S
C2347 C2346 1.370 . S
C2347 C2348 1.403 . S
C2348 C2347 1.403 . S
C2348 C2349 1.404 . S
C2348 C2351 1.539 . S
C2349 C2345 1.408 . S
C2349 C2348 1.404 . S
C2349 H2361 0.930 . S
C2350 C2346 1.524 . S
C2350 H2362 0.956 . S
C2350 H2363 0.961 . S
C2350 H2364 0.961 . S
C2351 C2348 1.539 . S
C2351 H2365 0.958 . S
C2351 H2366 0.961 . S
C2351 H2367 0.960 . S
H2352 C2336 0.931 . S
H2353 C2341 0.929 . S
H2354 C2342 0.960 . S
H2355 C2342 0.962 . S
H2356 C2342 0.960 . S
H2357 C2343 0.961 . S
H2358 C2343 0.961 . S
H2359 C2343 0.961 . S
H2360 C2344 0.931 . S
H2361 C2349 0.930 . S
H2362 C2350 0.956 . S
H2363 C2350 0.961 . S
H2364 C2350 0.961 . S
H2365 C2351 0.958 . S
H2366 C2351 0.961 . S
H2367 C2351 0.960 . S
C2368 C2369 1.391 . S
C2368 C2370 1.394 . S
C2368 H2384 0.931 . S
C2369 C2368 1.391 . S
C2369 C2373 1.376 . S
C2370 C2368 1.394 . S
C2370 C2371 1.369 . S
C2370 C2374 1.531 . S
C2371 C2370 1.369 . S
C2371 C2372 1.410 . S
C2371 C2379 1.503 . S
C2372 C2371 1.410 . S
C2372 C2373 1.392 . S
C2372 C2375 1.511 . S
C2373 C2369 1.376 . S
C2373 C2372 1.392 . S
C2373 H2385 0.929 . S
C2374 C2370 1.531 . S
C2374 H2386 0.960 . S
C2374 H2387 0.962 . S
C2374 H2388 0.960 . S
C2375 C2372 1.511 . S
C2375 H2389 0.961 . S
C2375 H2390 0.961 . S
C2375 H2391 0.961 . S
C2376 C2377 1.370 . S
C2376 C2378 1.363 . S
C2376 H2392 0.931 . S
C2377 C2376 1.370 . S
C2377 C2381 1.408 . S
C2378 C2376 1.363 . S
C2378 C2379 1.370 . S
C2378 C2382 1.524 . S
C2379 C2371 1.503 . S
C2379 C2378 1.370 . S
C2379 C2380 1.403 . S
C2380 C2379 1.403 . S
C2380 C2381 1.404 . S
C2380 C2383 1.539 . S
C2381 C2377 1.408 . S
C2381 C2380 1.404 . S
C2381 H2393 0.930 . S
C2382 C2378 1.524 . S
C2382 H2394 0.956 . S
C2382 H2395 0.961 . S
C2382 H2396 0.961 . S
C2383 C2380 1.539 . S
C2383 H2397 0.958 . S
C2383 H2398 0.961 . S
C2383 H2399 0.960 . S
H2384 C2368 0.931 . S
H2385 C2373 0.929 . S
H2386 C2374 0.960 . S
H2387 C2374 0.962 . S
H2388 C2374 0.960 . S
H2389 C2375 0.961 . S
H2390 C2375 0.961 . S
H2391 C2375 0.961 . S
H2392 C2376 0.931 . S
H2393 C2381 0.930 . S
H2394 C2382 0.956 . S
H2395 C2382 0.961 . S
H2396 C2382 0.961 . S
H2397 C2383 0.958 . S
H2398 C2383 0.961 . S
H2399 C2383 0.960 . S
C2400 C2401 1.391 . S
C2400 C2402 1.394 . S
C2400 H2416 0.931 . S
C2401 C2400 1.391 . S
C2401 C2405 1.376 . S
C2402 C2400 1.394 . S
C2402 C2403 1.369 . S
C2402 C2406 1.531 . S
C2403 C2402 1.369 . S
C2403 C2404 1.410 . S
C2403 C2411 1.503 . S
C2404 C2403 1.410 . S
C2404 C2405 1.392 . S
C2404 C2407 1.511 . S
C2405 C2401 1.376 . S
C2405 C2404 1.392 . S
C2405 H2417 0.929 . S
C2406 C2402 1.531 . S
C2406 H2418 0.960 . S
C2406 H2419 0.962 . S
C2406 H2420 0.960 . S
C2407 C2404 1.511 . S
C2407 H2421 0.961 . S
C2407 H2422 0.961 . S
C2407 H2423 0.961 . S
C2408 C2409 1.370 . S
C2408 C2410 1.363 . S
C2408 H2424 0.931 . S
C2409 C2408 1.370 . S
C2409 C2413 1.408 . S
C2410 C2408 1.363 . S
C2410 C2411 1.370 . S
C2410 C2414 1.524 . S
C2411 C2403 1.503 . S
C2411 C2410 1.370 . S
C2411 C2412 1.403 . S
C2412 C2411 1.403 . S
C2412 C2413 1.404 . S
C2412 C2415 1.539 . S
C2413 C2409 1.408 . S
C2413 C2412 1.404 . S
C2413 H2425 0.930 . S
C2414 C2410 1.524 . S
C2414 H2426 0.956 . S
C2414 H2427 0.961 . S
C2414 H2428 0.961 . S
C2415 C2412 1.539 . S
C2415 H2429 0.958 . S
C2415 H2430 0.961 . S
C2415 H2431 0.960 . S
H2416 C2400 0.931 . S
H2417 C2405 0.929 . S
H2418 C2406 0.960 . S
H2419 C2406 0.962 . S
H2420 C2406 0.960 . S
H2421 C2407 0.961 . S
H2422 C2407 0.961 . S
H2423 C2407 0.961 . S
H2424 C2408 0.931 . S
H2425 C2413 0.930 . S
H2426 C2414 0.956 . S
H2427 C2414 0.961 . S
H2428 C2414 0.961 . S
H2429 C2415 0.958 . S
H2430 C2415 0.961 . S
H2431 C2415 0.960 . S
C2432 C2433 1.391 . S
C2432 C2434 1.394 . S
C2432 H2448 0.931 . S
C2433 C2432 1.391 . S
C2433 C2437 1.376 . S
C2434 C2432 1.394 . S
C2434 C2435 1.369 . S
C2434 C2438 1.531 . S
C2435 C2434 1.369 . S
C2435 C2436 1.410 . S
C2435 C2443 1.503 . S
C2436 C2435 1.410 . S
C2436 C2437 1.392 . S
C2436 C2439 1.511 . S
C2437 C2433 1.376 . S
C2437 C2436 1.392 . S
C2437 H2449 0.929 . S
C2438 C2434 1.531 . S
C2438 H2450 0.960 . S
C2438 H2451 0.962 . S
C2438 H2452 0.960 . S
C2439 C2436 1.511 . S
C2439 H2453 0.961 . S
C2439 H2454 0.961 . S
C2439 H2455 0.961 . S
C2440 C2441 1.370 . S
C2440 C2442 1.363 . S
C2440 H2456 0.931 . S
C2441 C2440 1.370 . S
C2441 C2445 1.408 . S
C2442 C2440 1.363 . S
C2442 C2443 1.370 . S
C2442 C2446 1.524 . S
C2443 C2435 1.503 . S
C2443 C2442 1.370 . S
C2443 C2444 1.403 . S
C2444 C2443 1.403 . S
C2444 C2445 1.404 . S
C2444 C2447 1.539 . S
C2445 C2441 1.408 . S
C2445 C2444 1.404 . S
C2445 H2457 0.930 . S
C2446 C2442 1.524 . S
C2446 H2458 0.956 . S
C2446 H2459 0.961 . S
C2446 H2460 0.961 . S
C2447 C2444 1.539 . S
C2447 H2461 0.958 . S
C2447 H2462 0.961 . S
C2447 H2463 0.960 . S
H2448 C2432 0.931 . S
H2449 C2437 0.929 . S
H2450 C2438 0.960 . S
H2451 C2438 0.962 . S
H2452 C2438 0.960 . S
H2453 C2439 0.961 . S
H2454 C2439 0.961 . S
H2455 C2439 0.961 . S
H2456 C2440 0.931 . S
H2457 C2445 0.930 . S
H2458 C2446 0.956 . S
H2459 C2446 0.961 . S
H2460 C2446 0.961 . S
H2461 C2447 0.958 . S
H2462 C2447 0.961 . S
H2463 C2447 0.960 . S
C2464 C2465 1.391 . S
C2464 C2466 1.394 . S
C2464 H2480 0.931 . S
C2465 C2464 1.391 . S
C2465 C2469 1.376 . S
C2466 C2464 1.394 . S
C2466 C2467 1.369 . S
C2466 C2470 1.531 . S
C2467 C2466 1.369 . S
C2467 C2468 1.410 . S
C2467 C2475 1.503 . S
C2468 C2467 1.410 . S
C2468 C2469 1.392 . S
C2468 C2471 1.511 . S
C2469 C2465 1.376 . S
C2469 C2468 1.392 . S
C2469 H2481 0.929 . S
C2470 C2466 1.531 . S
C2470 H2482 0.960 . S
C2470 H2483 0.962 . S
C2470 H2484 0.960 . S
C2471 C2468 1.511 . S
C2471 H2485 0.961 . S
C2471 H2486 0.961 . S
C2471 H2487 0.961 . S
C2472 C2473 1.370 . S
C2472 C2474 1.363 . S
C2472 H2488 0.931 . S
C2473 C2472 1.370 . S
C2473 C2477 1.408 . S
C2474 C2472 1.363 . S
C2474 C2475 1.370 . S
C2474 C2478 1.524 . S
C2475 C2467 1.503 . S
C2475 C2474 1.370 . S
C2475 C2476 1.403 . S
C2476 C2475 1.403 . S
C2476 C2477 1.404 . S
C2476 C2479 1.539 . S
C2477 C2473 1.408 . S
C2477 C2476 1.404 . S
C2477 H2489 0.930 . S
C2478 C2474 1.524 . S
C2478 H2490 0.956 . S
C2478 H2491 0.961 . S
C2478 H2492 0.961 . S
C2479 C2476 1.539 . S
C2479 H2493 0.958 . S
C2479 H2494 0.961 . S
C2479 H2495 0.960 . S
H2480 C2464 0.931 . S
H2481 C2469 0.929 . S
H2482 C2470 0.960 . S
H2483 C2470 0.962 . S
H2484 C2470 0.960 . S
H2485 C2471 0.961 . S
H2486 C2471 0.961 . S
H2487 C2471 0.961 . S
H2488 C2472 0.931 . S
H2489 C2477 0.930 . S
H2490 C2478 0.956 . S
H2491 C2478 0.961 . S
H2492 C2478 0.961 . S
H2493 C2479 0.958 . S
H2494 C2479 0.961 . S
H2495 C2479 0.960 . S
C2496 C2497 1.391 . S
C2496 C2498 1.394 . S
C2496 H2512 0.931 . S
C2497 C2496 1.391 . S
C2497 C2501 1.376 . S
C2498 C2496 1.394 . S
C2498 C2499 1.369 . S
C2498 C2502 1.531 . S
C2499 C2498 1.369 . S
C2499 C2500 1.410 . S
C2499 C2507 1.503 . S
C2500 C2499 1.410 . S
C2500 C2501 1.392 . S
C2500 C2503 1.511 . S
C2501 C2497 1.376 . S
C2501 C2500 1.392 . S
C2501 H2513 0.929 . S
C2502 C2498 1.531 . S
C2502 H2514 0.960 . S
C2502 H2515 0.962 . S
C2502 H2516 0.960 . S
C2503 C2500 1.511 . S
C2503 H2517 0.961 . S
C2503 H2518 0.961 . S
C2503 H2519 0.961 . S
C2504 C2505 1.370 . S
C2504 C2506 1.363 . S
C2504 H2520 0.931 . S
C2505 C2504 1.370 . S
C2505 C2509 1.408 . S
C2506 C2504 1.363 . S
C2506 C2507 1.370 . S
C2506 C2510 1.524 . S
C2507 C2499 1.503 . S
C2507 C2506 1.370 . S
C2507 C2508 1.403 . S
C2508 C2507 1.403 . S
C2508 C2509 1.404 . S
C2508 C2511 1.539 . S
C2509 C2505 1.408 . S
C2509 C2508 1.404 . S
C2509 H2521 0.930 . S
C2510 C2506 1.524 . S
C2510 H2522 0.956 . S
C2510 H2523 0.961 . S
C2510 H2524 0.961 . S
C2511 C2508 1.539 . S
C2511 H2525 0.958 . S
C2511 H2526 0.961 . S
C2511 H2527 0.960 . S
H2512 C2496 0.931 . S
H2513 C2501 0.929 . S
H2514 C2502 0.960 . S
H2515 C2502 0.962 . S
H2516 C2502 0.960 . S
H2517 C2503 0.961 . S
H2518 C2503 0.961 . S
H2519 C2503 0.961 . S
H2520 C2504 0.931 . S
H2521 C2509 0.930 . S
H2522 C2510 0.956 . S
H2523 C2510 0.961 . S
H2524 C2510 0.961 . S
H2525 C2511 0.958 . S
H2526 C2511 0.961 . S
H2527 C2511 0.960 . S
C2528 C2529 1.391 . S
C2528 C2530 1.394 . S
C2528 H2544 0.931 . S
C2529 C2528 1.391 . S
C2529 C2533 1.376 . S
C2530 C2528 1.394 . S
C2530 C2531 1.369 . S
C2530 C2534 1.531 . S
C2531 C2530 1.369 . S
C2531 C2532 1.410 . S
C2531 C2539 1.503 . S
C2532 C2531 1.410 . S
C2532 C2533 1.392 . S
C2532 C2535 1.511 . S
C2533 C2529 1.376 . S
C2533 C2532 1.392 . S
C2533 H2545 0.929 . S
C2534 C2530 1.531 . S
C2534 H2546 0.960 . S
C2534 H2547 0.962 . S
C2534 H2548 0.960 . S
C2535 C2532 1.511 . S
C2535 H2549 0.961 . S
C2535 H2550 0.961 . S
C2535 H2551 0.961 . S
C2536 C2537 1.370 . S
C2536 C2538 1.363 . S
C2536 H2552 0.931 . S
C2537 C2536 1.370 . S
C2537 C2541 1.408 . S
C2538 C2536 1.363 . S
C2538 C2539 1.370 . S
C2538 C2542 1.524 . S
C2539 C2531 1.503 . S
C2539 C2538 1.370 . S
C2539 C2540 1.403 . S
C2540 C2539 1.403 . S
C2540 C2541 1.404 . S
C2540 C2543 1.539 . S
C2541 C2537 1.408 . S
C2541 C2540 1.404 . S
C2541 H2553 0.930 . S
C2542 C2538 1.524 . S
C2542 H2554 0.956 . S
C2542 H2555 0.961 . S
C2542 H2556 0.961 . S
C2543 C2540 1.539 . S
C2543 H2557 0.958 . S
C2543 H2558 0.961 . S
C2543 H2559 0.960 . S
H2544 C2528 0.931 . S
H2545 C2533 0.929 . S
H2546 C2534 0.960 . S
H2547 C2534 0.962 . S
H2548 C2534 0.960 . S
H2549 C2535 0.961 . S
H2550 C2535 0.961 . S
H2551 C2535 0.961 . S
H2552 C2536 0.931 . S
H2553 C2541 0.930 . S
H2554 C2542 0.956 . S
H2555 C2542 0.961 . S
H2556 C2542 0.961 . S
H2557 C2543 0.958 . S
H2558 C2543 0.961 . S
H2559 C2543 0.960 . S
C2560 C2561 1.391 . S
C2560 C2562 1.394 . S
C2560 H2576 0.931 . S
C2561 C2560 1.391 . S
C2561 C2565 1.376 . S
C2562 C2560 1.394 . S
C2562 C2563 1.369 . S
C2562 C2566 1.531 . S
C2563 C2562 1.369 . S
C2563 C2564 1.410 . S
C2563 C2571 1.503 . S
C2564 C2563 1.410 . S
C2564 C2565 1.392 . S
C2564 C2567 1.511 . S
C2565 C2561 1.376 . S
C2565 C2564 1.392 . S
C2565 H2577 0.929 . S
C2566 C2562 1.531 . S
C2566 H2578 0.960 . S
C2566 H2579 0.962 . S
C2566 H2580 0.960 . S
C2567 C2564 1.511 . S
C2567 H2581 0.961 . S
C2567 H2582 0.961 . S
C2567 H2583 0.961 . S
C2568 C2569 1.370 . S
C2568 C2570 1.363 . S
C2568 H2584 0.931 . S
C2569 C2568 1.370 . S
C2569 C2573 1.408 . S
C2570 C2568 1.363 . S
C2570 C2571 1.370 . S
C2570 C2574 1.524 . S
C2571 C2563 1.503 . S
C2571 C2570 1.370 . S
C2571 C2572 1.403 . S
C2572 C2571 1.403 . S
C2572 C2573 1.404 . S
C2572 C2575 1.539 . S
C2573 C2569 1.408 . S
C2573 C2572 1.404 . S
C2573 H2585 0.930 . S
C2574 C2570 1.524 . S
C2574 H2586 0.956 . S
C2574 H2587 0.961 . S
C2574 H2588 0.961 . S
C2575 C2572 1.539 . S
C2575 H2589 0.958 . S
C2575 H2590 0.961 . S
C2575 H2591 0.960 . S
H2576 C2560 0.931 . S
H2577 C2565 0.929 . S
H2578 C2566 0.960 . S
H2579 C2566 0.962 . S
H2580 C2566 0.960 . S
H2581 C2567 0.961 . S
H2582 C2567 0.961 . S
H2583 C2567 0.961 . S
H2584 C2568 0.931 . S
H2585 C2573 0.930 . S
H2586 C2574 0.956 . S
H2587 C2574 0.961 . S
H2588 C2574 0.961 . S
H2589 C2575 0.958 . S
H2590 C2575 0.961 . S
H2591 C2575 0.960 . S
C2592 C2593 1.391 . S
C2592 C2594 1.394 . S
C2592 H2608 0.931 . S
C2593 C2592 1.391 . S
C2593 C2597 1.376 . S
C2594 C2592 1.394 . S
C2594 C2595 1.369 . S
C2594 C2598 1.531 . S
C2595 C2594 1.369 . S
C2595 C2596 1.410 . S
C2595 C2603 1.503 . S
C2596 C2595 1.410 . S
C2596 C2597 1.392 . S
C2596 C2599 1.511 . S
C2597 C2593 1.376 . S
C2597 C2596 1.392 . S
C2597 H2609 0.929 . S
C2598 C2594 1.531 . S
C2598 H2610 0.960 . S
C2598 H2611 0.962 . S
C2598 H2612 0.960 . S
C2599 C2596 1.511 . S
C2599 H2613 0.961 . S
C2599 H2614 0.961 . S
C2599 H2615 0.961 . S
C2600 C2601 1.370 . S
C2600 C2602 1.363 . S
C2600 H2616 0.931 . S
C2601 C2600 1.370 . S
C2601 C2605 1.408 . S
C2602 C2600 1.363 . S
C2602 C2603 1.370 . S
C2602 C2606 1.524 . S
C2603 C2595 1.503 . S
C2603 C2602 1.370 . S
C2603 C2604 1.403 . S
C2604 C2603 1.403 . S
C2604 C2605 1.404 . S
C2604 C2607 1.539 . S
C2605 C2601 1.408 . S
C2605 C2604 1.404 . S
C2605 H2617 0.930 . S
C2606 C2602 1.524 . S
C2606 H2618 0.956 . S
C2606 H2619 0.961 . S
C2606 H2620 0.961 . S
C2607 C2604 1.539 . S
C2607 H2621 0.958 . S
C2607 H2622 0.961 . S
C2607 H2623 0.960 . S
H2608 C2592 0.931 . S
H2609 C2597 0.929 . S
H2610 C2598 0.960 . S
H2611 C2598 0.962 . S
H2612 C2598 0.960 . S
H2613 C2599 0.961 . S
H2614 C2599 0.961 . S
H2615 C2599 0.961 . S
H2616 C2600 0.931 . S
H2617 C2605 0.930 . S
H2618 C2606 0.956 . S
H2619 C2606 0.961 . S
H2620 C2606 0.961 . S
H2621 C2607 0.958 . S
H2622 C2607 0.961 . S
H2623 C2607 0.960 . S
C2624 C2625 1.391 . S
C2624 C2626 1.394 . S
C2624 H2640 0.931 . S
C2625 C2624 1.391 . S
C2625 C2629 1.376 . S
C2626 C2624 1.394 . S
C2626 C2627 1.369 . S
C2626 C2630 1.531 . S
C2627 C2626 1.369 . S
C2627 C2628 1.410 . S
C2627 C2635 1.503 . S
C2628 C2627 1.410 . S
C2628 C2629 1.392 . S
C2628 C2631 1.511 . S
C2629 C2625 1.376 . S
C2629 C2628 1.392 . S
C2629 H2641 0.929 . S
C2630 C2626 1.531 . S
C2630 H2642 0.960 . S
C2630 H2643 0.962 . S
C2630 H2644 0.960 . S
C2631 C2628 1.511 . S
C2631 H2645 0.961 . S
C2631 H2646 0.961 . S
C2631 H2647 0.961 . S
C2632 C2633 1.370 . S
C2632 C2634 1.363 . S
C2632 H2648 0.931 . S
C2633 C2632 1.370 . S
C2633 C2637 1.408 . S
C2634 C2632 1.363 . S
C2634 C2635 1.370 . S
C2634 C2638 1.524 . S
C2635 C2627 1.503 . S
C2635 C2634 1.370 . S
C2635 C2636 1.403 . S
C2636 C2635 1.403 . S
C2636 C2637 1.404 . S
C2636 C2639 1.539 . S
C2637 C2633 1.408 . S
C2637 C2636 1.404 . S
C2637 H2649 0.930 . S
C2638 C2634 1.524 . S
C2638 H2650 0.956 . S
C2638 H2651 0.961 . S
C2638 H2652 0.961 . S
C2639 C2636 1.539 . S
C2639 H2653 0.958 . S
C2639 H2654 0.961 . S
C2639 H2655 0.960 . S
H2640 C2624 0.931 . S
H2641 C2629 0.929 . S
H2642 C2630 0.960 . S
H2643 C2630 0.962 . S
H2644 C2630 0.960 . S
H2645 C2631 0.961 . S
H2646 C2631 0.961 . S
H2647 C2631 0.961 . S
H2648 C2632 0.931 . S
H2649 C2637 0.930 . S
H2650 C2638 0.956 . S
H2651 C2638 0.961 . S
H2652 C2638 0.961 . S
H2653 C2639 0.958 . S
H2654 C2639 0.961 . S
H2655 C2639 0.960 . S
C2656 C2657 1.391 . S
C2656 C2658 1.394 . S
C2656 H2672 0.931 . S
C2657 C2656 1.391 . S
C2657 C2661 1.376 . S
C2658 C2656 1.394 . S
C2658 C2659 1.369 . S
C2658 C2662 1.531 . S
C2659 C2658 1.369 . S
C2659 C2660 1.410 . S
C2659 C2667 1.503 . S
C2660 C2659 1.410 . S
C2660 C2661 1.392 . S
C2660 C2663 1.511 . S
C2661 C2657 1.376 . S
C2661 C2660 1.392 . S
C2661 H2673 0.929 . S
C2662 C2658 1.531 . S
C2662 H2674 0.960 . S
C2662 H2675 0.962 . S
C2662 H2676 0.960 . S
C2663 C2660 1.511 . S
C2663 H2677 0.961 . S
C2663 H2678 0.961 . S
C2663 H2679 0.961 . S
C2664 C2665 1.370 . S
C2664 C2666 1.363 . S
C2664 H2680 0.931 . S
C2665 C2664 1.370 . S
C2665 C2669 1.408 . S
C2666 C2664 1.363 . S
C2666 C2667 1.370 . S
C2666 C2670 1.524 . S
C2667 C2659 1.503 . S
C2667 C2666 1.370 . S
C2667 C2668 1.403 . S
C2668 C2667 1.403 . S
C2668 C2669 1.404 . S
C2668 C2671 1.539 . S
C2669 C2665 1.408 . S
C2669 C2668 1.404 . S
C2669 H2681 0.930 . S
C2670 C2666 1.524 . S
C2670 H2682 0.956 . S
C2670 H2683 0.961 . S
C2670 H2684 0.961 . S
C2671 C2668 1.539 . S
C2671 H2685 0.958 . S
C2671 H2686 0.961 . S
C2671 H2687 0.960 . S
H2672 C2656 0.931 . S
H2673 C2661 0.929 . S
H2674 C2662 0.960 . S
H2675 C2662 0.962 . S
H2676 C2662 0.960 . S
H2677 C2663 0.961 . S
H2678 C2663 0.961 . S
H2679 C2663 0.961 . S
H2680 C2664 0.931 . S
H2681 C2669 0.930 . S
H2682 C2670 0.956 . S
H2683 C2670 0.961 . S
H2684 C2670 0.961 . S
H2685 C2671 0.958 . S
H2686 C2671 0.961 . S
H2687 C2671 0.960 . S
C2688 C2689 1.391 . S
C2688 C2690 1.394 . S
C2688 H2704 0.931 . S
C2689 C2688 1.391 . S
C2689 C2693 1.376 . S
C2690 C2688 1.394 . S
C2690 C2691 1.369 . S
C2690 C2694 1.531 . S
C2691 C2690 1.369 . S
C2691 C2692 1.410 . S
C2691 C2699 1.503 . S
C2692 C2691 1.410 . S
C2692 C2693 1.392 . S
C2692 C2695 1.511 . S
C2693 C2689 1.376 . S
C2693 C2692 1.392 . S
C2693 H2705 0.929 . S
C2694 C2690 1.531 . S
C2694 H2706 0.960 . S
C2694 H2707 0.962 . S
C2694 H2708 0.960 . S
C2695 C2692 1.511 . S
C2695 H2709 0.961 . S
C2695 H2710 0.961 . S
C2695 H2711 0.961 . S
C2696 C2697 1.370 . S
C2696 C2698 1.363 . S
C2696 H2712 0.931 . S
C2697 C2696 1.370 . S
C2697 C2701 1.408 . S
C2698 C2696 1.363 . S
C2698 C2699 1.370 . S
C2698 C2702 1.524 . S
C2699 C2691 1.503 . S
C2699 C2698 1.370 . S
C2699 C2700 1.403 . S
C2700 C2699 1.403 . S
C2700 C2701 1.404 . S
C2700 C2703 1.539 . S
C2701 C2697 1.408 . S
C2701 C2700 1.404 . S
C2701 H2713 0.930 . S
C2702 C2698 1.524 . S
C2702 H2714 0.956 . S
C2702 H2715 0.961 . S
C2702 H2716 0.961 . S
C2703 C2700 1.539 . S
C2703 H2717 0.958 . S
C2703 H2718 0.961 . S
C2703 H2719 0.960 . S
H2704 C2688 0.931 . S
H2705 C2693 0.929 . S
H2706 C2694 0.960 . S
H2707 C2694 0.962 . S
H2708 C2694 0.960 . S
H2709 C2695 0.961 . S
H2710 C2695 0.961 . S
H2711 C2695 0.961 . S
H2712 C2696 0.931 . S
H2713 C2701 0.930 . S
H2714 C2702 0.956 . S
H2715 C2702 0.961 . S
H2716 C2702 0.961 . S
H2717 C2703 0.958 . S
H2718 C2703 0.961 . S
H2719 C2703 0.960 . S
C2720 C2721 1.391 . S
C2720 C2722 1.394 . S
C2720 H2736 0.931 . S
C2721 C2720 1.391 . S
C2721 C2725 1.376 . S
C2722 C2720 1.394 . S
C2722 C2723 1.369 . S
C2722 C2726 1.531 . S
C2723 C2722 1.369 . S
C2723 C2724 1.410 . S
C2723 C2731 1.503 . S
C2724 C2723 1.410 . S
C2724 C2725 1.392 . S
C2724 C2727 1.511 . S
C2725 C2721 1.376 . S
C2725 C2724 1.392 . S
C2725 H2737 0.929 . S
C2726 C2722 1.531 . S
C2726 H2738 0.960 . S
C2726 H2739 0.962 . S
C2726 H2740 0.960 . S
C2727 C2724 1.511 . S
C2727 H2741 0.961 . S
C2727 H2742 0.961 . S
C2727 H2743 0.961 . S
C2728 C2729 1.370 . S
C2728 C2730 1.363 . S
C2728 H2744 0.931 . S
C2729 C2728 1.370 . S
C2729 C2733 1.408 . S
C2730 C2728 1.363 . S
C2730 C2731 1.370 . S
C2730 C2734 1.524 . S
C2731 C2723 1.503 . S
C2731 C2730 1.370 . S
C2731 C2732 1.403 . S
C2732 C2731 1.403 . S
C2732 C2733 1.404 . S
C2732 C2735 1.539 . S
C2733 C2729 1.408 . S
C2733 C2732 1.404 . S
C2733 H2745 0.930 . S
C2734 C2730 1.524 . S
C2734 H2746 0.956 . S
C2734 H2747 0.961 . S
C2734 H2748 0.961 . S
C2735 C2732 1.539 . S
C2735 H2749 0.958 . S
C2735 H2750 0.961 . S
C2735 H2751 0.960 . S
H2736 C2720 0.931 . S
H2737 C2725 0.929 . S
H2738 C2726 0.960 . S
H2739 C2726 0.962 . S
H2740 C2726 0.960 . S
H2741 C2727 0.961 . S
H2742 C2727 0.961 . S
H2743 C2727 0.961 . S
H2744 C2728 0.931 . S
H2745 C2733 0.930 . S
H2746 C2734 0.956 . S
H2747 C2734 0.961 . S
H2748 C2734 0.961 . S
H2749 C2735 0.958 . S
H2750 C2735 0.961 . S
H2751 C2735 0.960 . S
C2752 C2753 1.391 . S
C2752 C2754 1.394 . S
C2752 H2768 0.931 . S
C2753 C2752 1.391 . S
C2753 C2757 1.376 . S
C2754 C2752 1.394 . S
C2754 C2755 1.369 . S
C2754 C2758 1.531 . S
C2755 C2754 1.369 . S
C2755 C2756 1.410 . S
C2755 C2763 1.503 . S
C2756 C2755 1.410 . S
C2756 C2757 1.392 . S
C2756 C2759 1.511 . S
C2757 C2753 1.376 . S
C2757 C2756 1.392 . S
C2757 H2769 0.929 . S
C2758 C2754 1.531 . S
C2758 H2770 0.960 . S
C2758 H2771 0.962 . S
C2758 H2772 0.960 . S
C2759 C2756 1.511 . S
C2759 H2773 0.961 . S
C2759 H2774 0.961 . S
C2759 H2775 0.961 . S
C2760 C2761 1.370 . S
C2760 C2762 1.363 . S
C2760 H2776 0.931 . S
C2761 C2760 1.370 . S
C2761 C2765 1.408 . S
C2762 C2760 1.363 . S
C2762 C2763 1.370 . S
C2762 C2766 1.524 . S
C2763 C2755 1.503 . S
C2763 C2762 1.370 . S
C2763 C2764 1.403 . S
C2764 C2763 1.403 . S
C2764 C2765 1.404 . S
C2764 C2767 1.539 . S
C2765 C2761 1.408 . S
C2765 C2764 1.404 . S
C2765 H2777 0.930 . S
C2766 C2762 1.524 . S
C2766 H2778 0.956 . S
C2766 H2779 0.961 . S
C2766 H2780 0.961 . S
C2767 C2764 1.539 . S
C2767 H2781 0.958 . S
C2767 H2782 0.961 . S
C2767 H2783 0.960 . S
H2768 C2752 0.931 . S
H2769 C2757 0.929 . S
H2770 C2758 0.960 . S
H2771 C2758 0.962 . S
H2772 C2758 0.960 . S
H2773 C2759 0.961 . S
H2774 C2759 0.961 . S
H2775 C2759 0.961 . S
H2776 C2760 0.931 . S
H2777 C2765 0.930 . S
H2778 C2766 0.956 . S
H2779 C2766 0.961 . S
H2780 C2766 0.961 . S
H2781 C2767 0.958 . S
H2782 C2767 0.961 . S
H2783 C2767 0.960 . S
C2784 C2785 1.391 . S
C2784 C2786 1.394 . S
C2784 H2800 0.931 . S
C2785 C2784 1.391 . S
C2785 C2789 1.376 . S
C2786 C2784 1.394 . S
C2786 C2787 1.369 . S
C2786 C2790 1.531 . S
C2787 C2786 1.369 . S
C2787 C2788 1.410 . S
C2787 C2795 1.503 . S
C2788 C2787 1.410 . S
C2788 C2789 1.392 . S
C2788 C2791 1.511 . S
C2789 C2785 1.376 . S
C2789 C2788 1.392 . S
C2789 H2801 0.929 . S
C2790 C2786 1.531 . S
C2790 H2802 0.960 . S
C2790 H2803 0.962 . S
C2790 H2804 0.960 . S
C2791 C2788 1.511 . S
C2791 H2805 0.961 . S
C2791 H2806 0.961 . S
C2791 H2807 0.961 . S
C2792 C2793 1.370 . S
C2792 C2794 1.363 . S
C2792 H2808 0.931 . S
C2793 C2792 1.370 . S
C2793 C2797 1.408 . S
C2794 C2792 1.363 . S
C2794 C2795 1.370 . S
C2794 C2798 1.524 . S
C2795 C2787 1.503 . S
C2795 C2794 1.370 . S
C2795 C2796 1.403 . S
C2796 C2795 1.403 . S
C2796 C2797 1.404 . S
C2796 C2799 1.539 . S
C2797 C2793 1.408 . S
C2797 C2796 1.404 . S
C2797 H2809 0.930 . S
C2798 C2794 1.524 . S
C2798 H2810 0.956 . S
C2798 H2811 0.961 . S
C2798 H2812 0.961 . S
C2799 C2796 1.539 . S
C2799 H2813 0.958 . S
C2799 H2814 0.961 . S
C2799 H2815 0.960 . S
H2800 C2784 0.931 . S
H2801 C2789 0.929 . S
H2802 C2790 0.960 . S
H2803 C2790 0.962 . S
H2804 C2790 0.960 . S
H2805 C2791 0.961 . S
H2806 C2791 0.961 . S
H2807 C2791 0.961 . S
H2808 C2792 0.931 . S
H2809 C2797 0.930 . S
H2810 C2798 0.956 . S
H2811 C2798 0.961 . S
H2812 C2798 0.961 . S
H2813 C2799 0.958 . S
H2814 C2799 0.961 . S
H2815 C2799 0.960 . S
C2816 C2817 1.391 . S
C2816 C2818 1.394 . S
C2816 H2832 0.931 . S
C2817 C2816 1.391 . S
C2817 C2821 1.376 . S
C2818 C2816 1.394 . S
C2818 C2819 1.369 . S
C2818 C2822 1.531 . S
C2819 C2818 1.369 . S
C2819 C2820 1.410 . S
C2819 C2827 1.503 . S
C2820 C2819 1.410 . S
C2820 C2821 1.392 . S
C2820 C2823 1.511 . S
C2821 C2817 1.376 . S
C2821 C2820 1.392 . S
C2821 H2833 0.929 . S
C2822 C2818 1.531 . S
C2822 H2834 0.960 . S
C2822 H2835 0.962 . S
C2822 H2836 0.960 . S
C2823 C2820 1.511 . S
C2823 H2837 0.961 . S
C2823 H2838 0.961 . S
C2823 H2839 0.961 . S
C2824 C2825 1.370 . S
C2824 C2826 1.363 . S
C2824 H2840 0.931 . S
C2825 C2824 1.370 . S
C2825 C2829 1.408 . S
C2826 C2824 1.363 . S
C2826 C2827 1.370 . S
C2826 C2830 1.524 . S
C2827 C2819 1.503 . S
C2827 C2826 1.370 . S
C2827 C2828 1.403 . S
C2828 C2827 1.403 . S
C2828 C2829 1.404 . S
C2828 C2831 1.539 . S
C2829 C2825 1.408 . S
C2829 C2828 1.404 . S
C2829 H2841 0.930 . S
C2830 C2826 1.524 . S
C2830 H2842 0.956 . S
C2830 H2843 0.961 . S
C2830 H2844 0.961 . S
C2831 C2828 1.539 . S
C2831 H2845 0.958 . S
C2831 H2846 0.961 . S
C2831 H2847 0.960 . S
H2832 C2816 0.931 . S
H2833 C2821 0.929 . S
H2834 C2822 0.960 . S
H2835 C2822 0.962 . S
H2836 C2822 0.960 . S
H2837 C2823 0.961 . S
H2838 C2823 0.961 . S
H2839 C2823 0.961 . S
H2840 C2824 0.931 . S
H2841 C2829 0.930 . S
H2842 C2830 0.956 . S
H2843 C2830 0.961 . S
H2844 C2830 0.961 . S
H2845 C2831 0.958 . S
H2846 C2831 0.961 . S
H2847 C2831 0.960 . S
C2848 C2849 1.391 . S
C2848 C2850 1.394 . S
C2848 H2864 0.931 . S
C2849 C2848 1.391 . S
C2849 C2853 1.376 . S
C2850 C2848 1.394 . S
C2850 C2851 1.369 . S
C2850 C2854 1.531 . S
C2851 C2850 1.369 . S
C2851 C2852 1.410 . S
C2851 C2859 1.503 . S
C2852 C2851 1.410 . S
C2852 C2853 1.392 . S
C2852 C2855 1.511 . S
C2853 C2849 1.376 . S
C2853 C2852 1.392 . S
C2853 H2865 0.929 . S
C2854 C2850 1.531 . S
C2854 H2866 0.960 . S
C2854 H2867 0.962 . S
C2854 H2868 0.960 . S
C2855 C2852 1.511 . S
C2855 H2869 0.961 . S
C2855 H2870 0.961 . S
C2855 H2871 0.961 . S
C2856 C2857 1.370 . S
C2856 C2858 1.363 . S
C2856 H2872 0.931 . S
C2857 C2856 1.370 . S
C2857 C2861 1.408 . S
C2858 C2856 1.363 . S
C2858 C2859 1.370 . S
C2858 C2862 1.524 . S
C2859 C2851 1.503 . S
C2859 C2858 1.370 . S
C2859 C2860 1.403 . S
C2860 C2859 1.403 . S
C2860 C2861 1.404 . S
C2860 C2863 1.539 . S
C2861 C2857 1.408 . S
C2861 C2860 1.404 . S
C2861 H2873 0.930 . S
C2862 C2858 1.524 . S
C2862 H2874 0.956 . S
C2862 H2875 0.961 . S
C2862 H2876 0.961 . S
C2863 C2860 1.539 . S
C2863 H2877 0.958 . S
C2863 H2878 0.961 . S
C2863 H2879 0.960 . S
H2864 C2848 0.931 . S
H2865 C2853 0.929 . S
H2866 C2854 0.960 . S
H2867 C2854 0.962 . S
H2868 C2854 0.960 . S
H2869 C2855 0.961 . S
H2870 C2855 0.961 . S
H2871 C2855 0.961 . S
H2872 C2856 0.931 . S
H2873 C2861 0.930 . S
H2874 C2862 0.956 . S
H2875 C2862 0.961 . S
H2876 C2862 0.961 . S
H2877 C2863 0.958 . S
H2878 C2863 0.961 . S
H2879 C2863 0.960 . S
C2880 C2881 1.391 . S
C2880 C2882 1.394 . S
C2880 H2896 0.931 . S
C2881 C2880 1.391 . S
C2881 C2885 1.376 . S
C2882 C2880 1.394 . S
C2882 C2883 1.369 . S
C2882 C2886 1.531 . S
C2883 C2882 1.369 . S
C2883 C2884 1.410 . S
C2883 C2891 1.503 . S
C2884 C2883 1.410 . S
C2884 C2885 1.392 . S
C2884 C2887 1.511 . S
C2885 C2881 1.376 . S
C2885 C2884 1.392 . S
C2885 H2897 0.929 . S
C2886 C2882 1.531 . S
C2886 H2898 0.960 . S
C2886 H2899 0.962 . S
C2886 H2900 0.960 . S
C2887 C2884 1.511 . S
C2887 H2901 0.961 . S
C2887 H2902 0.961 . S
C2887 H2903 0.961 . S
C2888 C2889 1.370 . S
C2888 C2890 1.363 . S
C2888 H2904 0.931 . S
C2889 C2888 1.370 . S
C2889 C2893 1.408 . S
C2890 C2888 1.363 . S
C2890 C2891 1.370 . S
C2890 C2894 1.524 . S
C2891 C2883 1.503 . S
C2891 C2890 1.370 . S
C2891 C2892 1.403 . S
C2892 C2891 1.403 . S
C2892 C2893 1.404 . S
C2892 C2895 1.539 . S
C2893 C2889 1.408 . S
C2893 C2892 1.404 . S
C2893 H2905 0.930 . S
C2894 C2890 1.524 . S
C2894 H2906 0.956 . S
C2894 H2907 0.961 . S
C2894 H2908 0.961 . S
C2895 C2892 1.539 . S
C2895 H2909 0.958 . S
C2895 H2910 0.961 . S
C2895 H2911 0.960 . S
H2896 C2880 0.931 . S
H2897 C2885 0.929 . S
H2898 C2886 0.960 . S
H2899 C2886 0.962 . S
H2900 C2886 0.960 . S
H2901 C2887 0.961 . S
H2902 C2887 0.961 . S
H2903 C2887 0.961 . S
H2904 C2888 0.931 . S
H2905 C2893 0.930 . S
H2906 C2894 0.956 . S
H2907 C2894 0.961 . S
H2908 C2894 0.961 . S
H2909 C2895 0.958 . S
H2910 C2895 0.961 . S
H2911 C2895 0.960 . S
C2912 C2913 1.391 . S
C2912 C2914 1.394 . S
C2912 H2928 0.931 . S
C2913 C2912 1.391 . S
C2913 C2917 1.376 . S
C2914 C2912 1.394 . S
C2914 C2915 1.369 . S
C2914 C2918 1.531 . S
C2915 C2914 1.369 . S
C2915 C2916 1.410 . S
C2915 C2923 1.503 . S
C2916 C2915 1.410 . S
C2916 C2917 1.392 . S
C2916 C2919 1.511 . S
C2917 C2913 1.376 . S
C2917 C2916 1.392 . S
C2917 H2929 0.929 . S
C2918 C2914 1.531 . S
C2918 H2930 0.960 . S
C2918 H2931 0.962 . S
C2918 H2932 0.960 . S
C2919 C2916 1.511 . S
C2919 H2933 0.961 . S
C2919 H2934 0.961 . S
C2919 H2935 0.961 . S
C2920 C2921 1.370 . S
C2920 C2922 1.363 . S
C2920 H2936 0.931 . S
C2921 C2920 1.370 . S
C2921 C2925 1.408 . S
C2922 C2920 1.363 . S
C2922 C2923 1.370 . S
C2922 C2926 1.524 . S
C2923 C2915 1.503 . S
C2923 C2922 1.370 . S
C2923 C2924 1.403 . S
C2924 C2923 1.403 . S
C2924 C2925 1.404 . S
C2924 C2927 1.539 . S
C2925 C2921 1.408 . S
C2925 C2924 1.404 . S
C2925 H2937 0.930 . S
C2926 C2922 1.524 . S
C2926 H2938 0.956 . S
C2926 H2939 0.961 . S
C2926 H2940 0.961 . S
C2927 C2924 1.539 . S
C2927 H2941 0.958 . S
C2927 H2942 0.961 . S
C2927 H2943 0.960 . S
H2928 C2912 0.931 . S
H2929 C2917 0.929 . S
H2930 C2918 0.960 . S
H2931 C2918 0.962 . S
H2932 C2918 0.960 . S
H2933 C2919 0.961 . S
H2934 C2919 0.961 . S
H2935 C2919 0.961 . S
H2936 C2920 0.931 . S
H2937 C2925 0.930 . S
H2938 C2926 0.956 . S
H2939 C2926 0.961 . S
H2940 C2926 0.961 . S
H2941 C2927 0.958 . S
H2942 C2927 0.961 . S
H2943 C2927 0.960 . S
C2944 C2945 1.391 . S
C2944 C2946 1.394 . S
C2944 H2960 0.931 . S
C2945 C2944 1.391 . S
C2945 C2949 1.376 . S
C2946 C2944 1.394 . S
C2946 C2947 1.369 . S
C2946 C2950 1.531 . S
C2947 C2946 1.369 . S
C2947 C2948 1.410 . S
C2947 C2955 1.503 . S
C2948 C2947 1.410 . S
C2948 C2949 1.392 . S
C2948 C2951 1.511 . S
C2949 C2945 1.376 . S
C2949 C2948 1.392 . S
C2949 H2961 0.929 . S
C2950 C2946 1.531 . S
C2950 H2962 0.960 . S
C2950 H2963 0.962 . S
C2950 H2964 0.960 . S
C2951 C2948 1.511 . S
C2951 H2965 0.961 . S
C2951 H2966 0.961 . S
C2951 H2967 0.961 . S
C2952 C2953 1.370 . S
C2952 C2954 1.363 . S
C2952 H2968 0.931 . S
C2953 C2952 1.370 . S
C2953 C2957 1.408 . S
C2954 C2952 1.363 . S
C2954 C2955 1.370 . S
C2954 C2958 1.524 . S
C2955 C2947 1.503 . S
C2955 C2954 1.370 . S
C2955 C2956 1.403 . S
C2956 C2955 1.403 . S
C2956 C2957 1.404 . S
C2956 C2959 1.539 . S
C2957 C2953 1.408 . S
C2957 C2956 1.404 . S
C2957 H2969 0.930 . S
C2958 C2954 1.524 . S
C2958 H2970 0.956 . S
C2958 H2971 0.961 . S
C2958 H2972 0.961 . S
C2959 C2956 1.539 . S
C2959 H2973 0.958 . S
C2959 H2974 0.961 . S
C2959 H2975 0.960 . S
H2960 C2944 0.931 . S
H2961 C2949 0.929 . S
H2962 C2950 0.960 . S
H2963 C2950 0.962 . S
H2964 C2950 0.960 . S
H2965 C2951 0.961 . S
H2966 C2951 0.961 . S
H2967 C2951 0.961 . S
H2968 C2952 0.931 . S
H2969 C2957 0.930 . S
H2970 C2958 0.956 . S
H2971 C2958 0.961 . S
H2972 C2958 0.961 . S
H2973 C2959 0.958 . S
H2974 C2959 0.961 . S
H2975 C2959 0.960 . S
C2976 C2977 1.391 . S
C2976 C2978 1.394 . S
C2976 H2992 0.931 . S
C2977 C2976 1.391 . S
C2977 C2981 1.376 . S
C2978 C2976 1.394 . S
C2978 C2979 1.369 . S
C2978 C2982 1.531 . S
C2979 C2978 1.369 . S
C2979 C2980 1.410 . S
C2979 C2987 1.503 1_554 S
C2980 C2979 1.410 . S
C2980 C2981 1.392 . S
C2980 C2983 1.511 . S
C2981 C2977 1.376 . S
C2981 C2980 1.392 . S
C2981 H2993 0.929 . S
C2982 C2978 1.531 . S
C2982 H2994 0.960 1_554 S
C2982 H2995 0.962 . S
C2982 H2996 0.960 . S
C2983 C2980 1.511 . S
C2983 H2997 0.961 . S
C2983 H2998 0.961 1_554 S
C2983 H2999 0.961 . S
C2984 C2985 1.370 . S
C2984 C2986 1.363 . S
C2984 H3000 0.931 . S
C2985 C2984 1.370 . S
C2985 C2989 1.408 . S
C2986 C2984 1.363 . S
C2986 C2987 1.370 . S
C2986 C2990 1.524 . S
C2987 C2979 1.503 1_556 S
C2987 C2986 1.370 . S
C2987 C2988 1.403 . S
C2988 C2987 1.403 . S
C2988 C2989 1.404 . S
C2988 C2991 1.539 . S
C2989 C2985 1.408 . S
C2989 C2988 1.404 . S
C2989 H3001 0.930 . S
C2990 C2986 1.524 . S
C2990 H3002 0.983 . S
C2990 H3003 0.918 1_556 S
C2990 H3004 0.961 . S
C2991 C2988 1.539 . S
C2991 H3005 0.958 . S
C2991 H3006 0.961 . S
C2991 H3007 0.969 . S
H2992 C2976 0.931 . S
H2993 C2981 0.929 . S
H2994 C2982 0.960 1_556 S
H2995 C2982 0.962 . S
H2996 C2982 0.960 . S
H2997 C2983 0.961 . S
H2998 C2983 0.961 1_556 S
H2999 C2983 0.961 . S
H3000 C2984 0.931 . S
H3001 C2989 0.930 . S
H3002 C2990 0.983 . S
H3003 C2990 0.918 1_554 S
H3004 C2990 0.961 . S
H3005 C2991 0.958 . S
H3006 C2991 0.961 . S
H3007 C2991 0.969 . S
C3008 C3009 1.391 . S
C3008 C3010 1.394 . S
C3008 H3024 0.931 . S
C3009 C3008 1.391 . S
C3009 C3013 1.376 . S
C3010 C3008 1.394 . S
C3010 C3011 1.369 . S
C3010 C3014 1.531 . S
C3011 C3010 1.369 . S
C3011 C3012 1.410 . S
C3011 C3019 1.503 1_556 S
C3012 C3011 1.410 . S
C3012 C3013 1.392 . S
C3012 C3015 1.511 . S
C3013 C3009 1.376 . S
C3013 C3012 1.392 . S
C3013 H3025 0.929 . S
C3014 C3010 1.531 . S
C3014 H3026 0.960 1_556 S
C3014 H3027 0.962 . S
C3014 H3028 0.960 . S
C3015 C3012 1.511 . S
C3015 H3029 0.961 . S
C3015 H3030 0.961 1_556 S
C3015 H3031 0.961 . S
C3016 C3017 1.370 . S
C3016 C3018 1.363 . S
C3016 H3032 0.931 . S
C3017 C3016 1.370 . S
C3017 C3021 1.408 . S
C3018 C3016 1.363 . S
C3018 C3019 1.370 . S
C3018 C3022 1.524 . S
C3019 C3011 1.503 1_554 S
C3019 C3018 1.370 . S
C3019 C3020 1.403 . S
C3020 C3019 1.403 . S
C3020 C3021 1.404 . S
C3020 C3023 1.539 . S
C3021 C3017 1.408 . S
C3021 C3020 1.404 . S
C3021 H3033 0.930 . S
C3022 C3018 1.524 . S
C3022 H3034 0.983 . S
C3022 H3035 0.918 1_554 S
C3022 H3036 0.961 . S
C3023 C3020 1.539 . S
C3023 H3037 0.958 . S
C3023 H3038 0.961 . S
C3023 H3039 0.969 . S
H3024 C3008 0.931 . S
H3025 C3013 0.929 . S
H3026 C3014 0.960 1_554 S
H3027 C3014 0.962 . S
H3028 C3014 0.960 . S
H3029 C3015 0.961 . S
H3030 C3015 0.961 1_554 S
H3031 C3015 0.961 . S
H3032 C3016 0.931 . S
H3033 C3021 0.930 . S
H3034 C3022 0.983 . S
H3035 C3022 0.918 1_556 S
H3036 C3022 0.961 . S
H3037 C3023 0.958 . S
H3038 C3023 0.961 . S
H3039 C3023 0.969 . S
C3040 C3041 1.391 . S
C3040 C3042 1.394 . S
C3040 H3056 0.931 . S
C3041 C3040 1.391 . S
C3041 C3045 1.376 . S
C3042 C3040 1.394 . S
C3042 C3043 1.369 . S
C3042 C3046 1.531 . S
C3043 C3042 1.369 . S
C3043 C3044 1.410 . S
C3043 C3051 1.503 1_554 S
C3044 C3043 1.410 . S
C3044 C3045 1.392 . S
C3044 C3047 1.511 . S
C3045 C3041 1.376 . S
C3045 C3044 1.392 . S
C3045 H3057 0.929 . S
C3046 C3042 1.531 . S
C3046 H3058 0.960 1_554 S
C3046 H3059 0.962 . S
C3046 H3060 0.960 . S
C3047 C3044 1.511 . S
C3047 H3061 0.961 . S
C3047 H3062 0.961 1_554 S
C3047 H3063 0.961 . S
C3048 C3049 1.370 . S
C3048 C3050 1.363 . S
C3048 H3064 0.931 . S
C3049 C3048 1.370 . S
C3049 C3053 1.408 . S
C3050 C3048 1.363 . S
C3050 C3051 1.370 . S
C3050 C3054 1.524 . S
C3051 C3043 1.503 1_556 S
C3051 C3050 1.370 . S
C3051 C3052 1.403 . S
C3052 C3051 1.403 . S
C3052 C3053 1.404 . S
C3052 C3055 1.539 . S
C3053 C3049 1.408 . S
C3053 C3052 1.404 . S
C3053 H3065 0.930 . S
C3054 C3050 1.524 . S
C3054 H3066 0.983 . S
C3054 H3067 0.918 1_556 S
C3054 H3068 0.961 . S
C3055 C3052 1.539 . S
C3055 H3069 0.958 . S
C3055 H3070 0.961 . S
C3055 H3071 0.969 . S
H3056 C3040 0.931 . S
H3057 C3045 0.929 . S
H3058 C3046 0.960 1_556 S
H3059 C3046 0.962 . S
H3060 C3046 0.960 . S
H3061 C3047 0.961 . S
H3062 C3047 0.961 1_556 S
H3063 C3047 0.961 . S
H3064 C3048 0.931 . S
H3065 C3053 0.930 . S
H3066 C3054 0.983 . S
H3067 C3054 0.918 1_554 S
H3068 C3054 0.961 . S
H3069 C3055 0.958 . S
H3070 C3055 0.961 . S
H3071 C3055 0.969 . S
C3072 C3073 1.391 . S
C3072 C3074 1.394 . S
C3072 H3088 0.931 . S
C3073 C3072 1.391 . S
C3073 C3077 1.376 . S
C3074 C3072 1.394 . S
C3074 C3075 1.369 . S
C3074 C3078 1.531 . S
C3075 C3074 1.369 . S
C3075 C3076 1.410 . S
C3075 C3083 1.503 1_554 S
C3076 C3075 1.410 . S
C3076 C3077 1.392 . S
C3076 C3079 1.511 . S
C3077 C3073 1.376 . S
C3077 C3076 1.392 . S
C3077 H3089 0.929 . S
C3078 C3074 1.531 . S
C3078 H3090 0.960 1_554 S
C3078 H3091 0.962 . S
C3078 H3092 0.960 . S
C3079 C3076 1.511 . S
C3079 H3093 0.961 . S
C3079 H3094 0.961 1_554 S
C3079 H3095 0.961 . S
C3080 C3081 1.370 . S
C3080 C3082 1.363 . S
C3080 H3096 0.931 . S
C3081 C3080 1.370 . S
C3081 C3085 1.408 . S
C3082 C3080 1.363 . S
C3082 C3083 1.370 . S
C3082 C3086 1.524 . S
C3083 C3075 1.503 1_556 S
C3083 C3082 1.370 . S
C3083 C3084 1.403 . S
C3084 C3083 1.403 . S
C3084 C3085 1.404 . S
C3084 C3087 1.539 . S
C3085 C3081 1.408 . S
C3085 C3084 1.404 . S
C3085 H3097 0.930 . S
C3086 C3082 1.524 . S
C3086 H3098 0.983 . S
C3086 H3099 0.918 1_556 S
C3086 H3100 0.961 . S
C3087 C3084 1.539 . S
C3087 H3101 0.958 . S
C3087 H3102 0.961 . S
C3087 H3103 0.969 . S
H3088 C3072 0.931 . S
H3089 C3077 0.929 . S
H3090 C3078 0.960 1_556 S
H3091 C3078 0.962 . S
H3092 C3078 0.960 . S
H3093 C3079 0.961 . S
H3094 C3079 0.961 1_556 S
H3095 C3079 0.961 . S
H3096 C3080 0.931 . S
H3097 C3085 0.930 . S
H3098 C3086 0.983 . S
H3099 C3086 0.918 1_554 S
H3100 C3086 0.961 . S
H3101 C3087 0.958 . S
H3102 C3087 0.961 . S
H3103 C3087 0.969 . S
C3104 C3105 1.391 . S
C3104 C3106 1.394 . S
C3104 H3120 0.931 . S
C3105 C3104 1.391 . S
C3105 C3109 1.376 . S
C3106 C3104 1.394 . S
C3106 C3107 1.369 . S
C3106 C3110 1.531 . S
C3107 C3106 1.369 . S
C3107 C3108 1.410 . S
C3107 C3115 1.503 1_556 S
C3108 C3107 1.410 . S
C3108 C3109 1.392 . S
C3108 C3111 1.511 . S
C3109 C3105 1.376 . S
C3109 C3108 1.392 . S
C3109 H3121 0.929 . S
C3110 C3106 1.531 . S
C3110 H3122 0.960 1_556 S
C3110 H3123 0.962 . S
C3110 H3124 0.960 . S
C3111 C3108 1.511 . S
C3111 H3125 0.961 . S
C3111 H3126 0.961 1_556 S
C3111 H3127 0.961 . S
C3112 C3113 1.370 . S
C3112 C3114 1.363 . S
C3112 H3128 0.931 . S
C3113 C3112 1.370 . S
C3113 C3117 1.408 . S
C3114 C3112 1.363 . S
C3114 C3115 1.370 . S
C3114 C3118 1.524 . S
C3115 C3107 1.503 1_554 S
C3115 C3114 1.370 . S
C3115 C3116 1.403 . S
C3116 C3115 1.403 . S
C3116 C3117 1.404 . S
C3116 C3119 1.539 . S
C3117 C3113 1.408 . S
C3117 C3116 1.404 . S
C3117 H3129 0.930 . S
C3118 C3114 1.524 . S
C3118 H3130 0.983 . S
C3118 H3131 0.918 1_554 S
C3118 H3132 0.961 . S
C3119 C3116 1.539 . S
C3119 H3133 0.958 . S
C3119 H3134 0.961 . S
C3119 H3135 0.969 . S
H3120 C3104 0.931 . S
H3121 C3109 0.929 . S
H3122 C3110 0.960 1_554 S
H3123 C3110 0.962 . S
H3124 C3110 0.960 . S
H3125 C3111 0.961 . S
H3126 C3111 0.961 1_554 S
H3127 C3111 0.961 . S
H3128 C3112 0.931 . S
H3129 C3117 0.930 . S
H3130 C3118 0.983 . S
H3131 C3118 0.918 1_556 S
H3132 C3118 0.961 . S
H3133 C3119 0.958 . S
H3134 C3119 0.961 . S
H3135 C3119 0.969 . S
C3136 C3137 1.391 . S
C3136 C3138 1.394 . S
C3136 H3152 0.931 . S
C3137 C3136 1.391 . S
C3137 C3141 1.376 . S
C3138 C3136 1.394 . S
C3138 C3139 1.369 . S
C3138 C3142 1.531 . S
C3139 C3138 1.369 . S
C3139 C3140 1.410 . S
C3139 C3147 1.503 1_554 S
C3140 C3139 1.410 . S
C3140 C3141 1.392 . S
C3140 C3143 1.511 . S
C3141 C3137 1.376 . S
C3141 C3140 1.392 . S
C3141 H3153 0.929 . S
C3142 C3138 1.531 . S
C3142 H3154 0.960 1_554 S
C3142 H3155 0.962 . S
C3142 H3156 0.960 . S
C3143 C3140 1.511 . S
C3143 H3157 0.961 . S
C3143 H3158 0.961 1_554 S
C3143 H3159 0.961 . S
C3144 C3145 1.370 . S
C3144 C3146 1.363 . S
C3144 H3160 0.931 . S
C3145 C3144 1.370 . S
C3145 C3149 1.408 . S
C3146 C3144 1.363 . S
C3146 C3147 1.370 . S
C3146 C3150 1.524 . S
C3147 C3139 1.503 1_556 S
C3147 C3146 1.370 . S
C3147 C3148 1.403 . S
C3148 C3147 1.403 . S
C3148 C3149 1.404 . S
C3148 C3151 1.539 . S
C3149 C3145 1.408 . S
C3149 C3148 1.404 . S
C3149 H3161 0.930 . S
C3150 C3146 1.524 . S
C3150 H3162 0.983 . S
C3150 H3163 0.918 1_556 S
C3150 H3164 0.961 . S
C3151 C3148 1.539 . S
C3151 H3165 0.958 . S
C3151 H3166 0.961 . S
C3151 H3167 0.969 . S
H3152 C3136 0.931 . S
H3153 C3141 0.929 . S
H3154 C3142 0.960 1_556 S
H3155 C3142 0.962 . S
H3156 C3142 0.960 . S
H3157 C3143 0.961 . S
H3158 C3143 0.961 1_556 S
H3159 C3143 0.961 . S
H3160 C3144 0.931 . S
H3161 C3149 0.930 . S
H3162 C3150 0.983 . S
H3163 C3150 0.918 1_554 S
H3164 C3150 0.961 . S
H3165 C3151 0.958 . S
H3166 C3151 0.961 . S
H3167 C3151 0.969 . S
C3168 C3169 1.391 . S
C3168 C3170 1.394 . S
C3168 H3184 0.931 . S
C3169 C3168 1.391 . S
C3169 C3173 1.376 . S
C3170 C3168 1.394 . S
C3170 C3171 1.369 . S
C3170 C3174 1.531 . S
C3171 C3170 1.369 . S
C3171 C3172 1.410 . S
C3171 C3179 1.503 1_556 S
C3172 C3171 1.410 . S
C3172 C3173 1.392 . S
C3172 C3175 1.511 . S
C3173 C3169 1.376 . S
C3173 C3172 1.392 . S
C3173 H3185 0.929 . S
C3174 C3170 1.531 . S
C3174 H3186 0.960 1_556 S
C3174 H3187 0.962 . S
C3174 H3188 0.960 . S
C3175 C3172 1.511 . S
C3175 H3189 0.961 . S
C3175 H3190 0.961 1_556 S
C3175 H3191 0.961 . S
C3176 C3177 1.370 . S
C3176 C3178 1.363 . S
C3176 H3192 0.931 . S
C3177 C3176 1.370 . S
C3177 C3181 1.408 . S
C3178 C3176 1.363 . S
C3178 C3179 1.370 . S
C3178 C3182 1.524 . S
C3179 C3171 1.503 1_554 S
C3179 C3178 1.370 . S
C3179 C3180 1.403 . S
C3180 C3179 1.403 . S
C3180 C3181 1.404 . S
C3180 C3183 1.539 . S
C3181 C3177 1.408 . S
C3181 C3180 1.404 . S
C3181 H3193 0.930 . S
C3182 C3178 1.524 . S
C3182 H3194 0.983 . S
C3182 H3195 0.918 1_554 S
C3182 H3196 0.961 . S
C3183 C3180 1.539 . S
C3183 H3197 0.958 . S
C3183 H3198 0.961 . S
C3183 H3199 0.969 . S
H3184 C3168 0.931 . S
H3185 C3173 0.929 . S
H3186 C3174 0.960 1_554 S
H3187 C3174 0.962 . S
H3188 C3174 0.960 . S
H3189 C3175 0.961 . S
H3190 C3175 0.961 1_554 S
H3191 C3175 0.961 . S
H3192 C3176 0.931 . S
H3193 C3181 0.930 . S
H3194 C3182 0.983 . S
H3195 C3182 0.918 1_556 S
H3196 C3182 0.961 . S
H3197 C3183 0.958 . S
H3198 C3183 0.961 . S
H3199 C3183 0.969 . S
C3200 C3201 1.391 . S
C3200 C3202 1.394 . S
C3200 H3216 0.931 . S
C3201 C3200 1.391 . S
C3201 C3205 1.376 . S
C3202 C3200 1.394 . S
C3202 C3203 1.369 . S
C3202 C3206 1.531 . S
C3203 C3202 1.369 . S
C3203 C3204 1.410 . S
C3203 C3211 1.503 1_554 S
C3204 C3203 1.410 . S
C3204 C3205 1.392 . S
C3204 C3207 1.511 . S
C3205 C3201 1.376 . S
C3205 C3204 1.392 . S
C3205 H3217 0.929 . S
C3206 C3202 1.531 . S
C3206 H3218 0.960 1_554 S
C3206 H3219 0.962 . S
C3206 H3220 0.960 . S
C3207 C3204 1.511 . S
C3207 H3221 0.961 . S
C3207 H3222 0.961 1_554 S
C3207 H3223 0.961 . S
C3208 C3209 1.370 . S
C3208 C3210 1.363 . S
C3208 H3224 0.931 . S
C3209 C3208 1.370 . S
C3209 C3213 1.408 . S
C3210 C3208 1.363 . S
C3210 C3211 1.370 . S
C3210 C3214 1.524 . S
C3211 C3203 1.503 1_556 S
C3211 C3210 1.370 . S
C3211 C3212 1.403 . S
C3212 C3211 1.403 . S
C3212 C3213 1.404 . S
C3212 C3215 1.539 . S
C3213 C3209 1.408 . S
C3213 C3212 1.404 . S
C3213 H3225 0.930 . S
C3214 C3210 1.524 . S
C3214 H3226 0.983 . S
C3214 H3227 0.918 1_556 S
C3214 H3228 0.961 . S
C3215 C3212 1.539 . S
C3215 H3229 0.958 . S
C3215 H3230 0.961 . S
C3215 H3231 0.969 . S
H3216 C3200 0.931 . S
H3217 C3205 0.929 . S
H3218 C3206 0.960 1_556 S
H3219 C3206 0.962 . S
H3220 C3206 0.960 . S
H3221 C3207 0.961 . S
H3222 C3207 0.961 1_556 S
H3223 C3207 0.961 . S
H3224 C3208 0.931 . S
H3225 C3213 0.930 . S
H3226 C3214 0.983 . S
H3227 C3214 0.918 1_554 S
H3228 C3214 0.961 . S
H3229 C3215 0.958 . S
H3230 C3215 0.961 . S
H3231 C3215 0.969 . S
C3232 C3233 1.391 . S
C3232 C3234 1.394 . S
C3232 H3248 0.931 . S
C3233 C3232 1.391 . S
C3233 C3237 1.376 . S
C3234 C3232 1.394 . S
C3234 C3235 1.369 . S
C3234 C3238 1.531 . S
C3235 C3234 1.369 . S
C3235 C3236 1.410 . S
C3235 C3243 1.503 1_455 S
C3236 C3235 1.410 . S
C3236 C3237 1.392 . S
C3236 C3239 1.511 . S
C3237 C3233 1.376 . S
C3237 C3236 1.392 . S
C3237 H3249 0.929 . S
C3238 C3234 1.531 . S
C3238 H3250 0.960 1_455 S
C3238 H3251 0.962 . S
C3238 H3252 0.960 . S
C3239 C3236 1.511 . S
C3239 H3253 0.961 . S
C3239 H3254 0.961 1_455 S
C3239 H3255 0.961 . S
C3240 C3241 1.370 . S
C3240 C3242 1.363 . S
C3240 H3256 0.931 . S
C3241 C3240 1.370 . S
C3241 C3245 1.408 . S
C3242 C3240 1.363 . S
C3242 C3243 1.370 . S
C3242 C3246 1.524 . S
C3243 C3235 1.503 1_655 S
C3243 C3242 1.370 . S
C3243 C3244 1.403 . S
C3244 C3243 1.403 . S
C3244 C3245 1.404 . S
C3244 C3247 1.539 . S
C3245 C3241 1.408 . S
C3245 C3244 1.404 . S
C3245 H3257 0.930 . S
C3246 C3242 1.524 . S
C3246 H3258 0.983 . S
C3246 H3259 0.918 1_655 S
C3246 H3260 0.961 . S
C3247 C3244 1.539 . S
C3247 H3261 0.958 . S
C3247 H3262 0.961 . S
C3247 H3263 0.969 . S
H3248 C3232 0.931 . S
H3249 C3237 0.929 . S
H3250 C3238 0.960 1_655 S
H3251 C3238 0.962 . S
H3252 C3238 0.960 . S
H3253 C3239 0.961 . S
H3254 C3239 0.961 1_655 S
H3255 C3239 0.961 . S
H3256 C3240 0.931 . S
H3257 C3245 0.930 . S
H3258 C3246 0.983 . S
H3259 C3246 0.918 1_455 S
H3260 C3246 0.961 . S
H3261 C3247 0.958 . S
H3262 C3247 0.961 . S
H3263 C3247 0.969 . S
C3264 C3265 1.391 . S
C3264 C3266 1.394 . S
C3264 H3280 0.931 . S
C3265 C3264 1.391 . S
C3265 C3269 1.376 . S
C3266 C3264 1.394 . S
C3266 C3267 1.369 . S
C3266 C3270 1.531 . S
C3267 C3266 1.369 . S
C3267 C3268 1.410 . S
C3267 C3275 1.503 1_565 S
C3268 C3267 1.410 . S
C3268 C3269 1.392 . S
C3268 C3271 1.511 . S
C3269 C3265 1.376 . S
C3269 C3268 1.392 . S
C3269 H3281 0.929 . S
C3270 C3266 1.531 . S
C3270 H3282 0.960 1_565 S
C3270 H3283 0.962 . S
C3270 H3284 0.960 . S
C3271 C3268 1.511 . S
C3271 H3285 0.961 . S
C3271 H3286 0.961 1_565 S
C3271 H3287 0.961 . S
C3272 C3273 1.370 . S
C3272 C3274 1.363 . S
C3272 H3288 0.931 . S
C3273 C3272 1.370 . S
C3273 C3277 1.408 . S
C3274 C3272 1.363 . S
C3274 C3275 1.370 . S
C3274 C3278 1.524 . S
C3275 C3267 1.503 1_545 S
C3275 C3274 1.370 . S
C3275 C3276 1.403 . S
C3276 C3275 1.403 . S
C3276 C3277 1.404 . S
C3276 C3279 1.539 . S
C3277 C3273 1.408 . S
C3277 C3276 1.404 . S
C3277 H3289 0.930 . S
C3278 C3274 1.524 . S
C3278 H3290 0.983 . S
C3278 H3291 0.918 1_545 S
C3278 H3292 0.961 . S
C3279 C3276 1.539 . S
C3279 H3293 0.958 . S
C3279 H3294 0.961 . S
C3279 H3295 0.969 . S
H3280 C3264 0.931 . S
H3281 C3269 0.929 . S
H3282 C3270 0.960 1_545 S
H3283 C3270 0.962 . S
H3284 C3270 0.960 . S
H3285 C3271 0.961 . S
H3286 C3271 0.961 1_545 S
H3287 C3271 0.961 . S
H3288 C3272 0.931 . S
H3289 C3277 0.930 . S
H3290 C3278 0.983 . S
H3291 C3278 0.918 1_565 S
H3292 C3278 0.961 . S
H3293 C3279 0.958 . S
H3294 C3279 0.961 . S
H3295 C3279 0.969 . S
C3296 C3297 1.391 . S
C3296 C3298 1.394 . S
C3296 H3312 0.931 . S
C3297 C3296 1.391 . S
C3297 C3301 1.376 . S
C3298 C3296 1.394 . S
C3298 C3299 1.369 . S
C3298 C3302 1.531 . S
C3299 C3298 1.369 . S
C3299 C3300 1.410 . S
C3299 C3307 1.503 1_455 S
C3300 C3299 1.410 . S
C3300 C3301 1.392 . S
C3300 C3303 1.511 . S
C3301 C3297 1.376 . S
C3301 C3300 1.392 . S
C3301 H3313 0.929 . S
C3302 C3298 1.531 . S
C3302 H3314 0.960 1_455 S
C3302 H3315 0.962 . S
C3302 H3316 0.960 . S
C3303 C3300 1.511 . S
C3303 H3317 0.961 . S
C3303 H3318 0.961 1_455 S
C3303 H3319 0.961 . S
C3304 C3305 1.370 . S
C3304 C3306 1.363 . S
C3304 H3320 0.931 . S
C3305 C3304 1.370 . S
C3305 C3309 1.408 . S
C3306 C3304 1.363 . S
C3306 C3307 1.370 . S
C3306 C3310 1.524 . S
C3307 C3299 1.503 1_655 S
C3307 C3306 1.370 . S
C3307 C3308 1.403 . S
C3308 C3307 1.403 . S
C3308 C3309 1.404 . S
C3308 C3311 1.539 . S
C3309 C3305 1.408 . S
C3309 C3308 1.404 . S
C3309 H3321 0.930 . S
C3310 C3306 1.524 . S
C3310 H3322 0.983 . S
C3310 H3323 0.918 1_655 S
C3310 H3324 0.961 . S
C3311 C3308 1.539 . S
C3311 H3325 0.958 . S
C3311 H3326 0.961 . S
C3311 H3327 0.969 . S
H3312 C3296 0.931 . S
H3313 C3301 0.929 . S
H3314 C3302 0.960 1_655 S
H3315 C3302 0.962 . S
H3316 C3302 0.960 . S
H3317 C3303 0.961 . S
H3318 C3303 0.961 1_655 S
H3319 C3303 0.961 . S
H3320 C3304 0.931 . S
H3321 C3309 0.930 . S
H3322 C3310 0.983 . S
H3323 C3310 0.918 1_455 S
H3324 C3310 0.961 . S
H3325 C3311 0.958 . S
H3326 C3311 0.961 . S
H3327 C3311 0.969 . S
C3328 C3329 1.391 . S
C3328 C3330 1.394 . S
C3328 H3344 0.931 . S
C3329 C3328 1.391 . S
C3329 C3333 1.376 . S
C3330 C3328 1.394 . S
C3330 C3331 1.369 . S
C3330 C3334 1.531 . S
C3331 C3330 1.369 . S
C3331 C3332 1.410 . S
C3331 C3339 1.503 1_565 S
C3332 C3331 1.410 . S
C3332 C3333 1.392 . S
C3332 C3335 1.511 . S
C3333 C3329 1.376 . S
C3333 C3332 1.392 . S
C3333 H3345 0.929 . S
C3334 C3330 1.531 . S
C3334 H3346 0.960 1_565 S
C3334 H3347 0.962 . S
C3334 H3348 0.960 . S
C3335 C3332 1.511 . S
C3335 H3349 0.961 . S
C3335 H3350 0.961 1_565 S
C3335 H3351 0.961 . S
C3336 C3337 1.370 . S
C3336 C3338 1.363 . S
C3336 H3352 0.931 . S
C3337 C3336 1.370 . S
C3337 C3341 1.408 . S
C3338 C3336 1.363 . S
C3338 C3339 1.370 . S
C3338 C3342 1.524 . S
C3339 C3331 1.503 1_545 S
C3339 C3338 1.370 . S
C3339 C3340 1.403 . S
C3340 C3339 1.403 . S
C3340 C3341 1.404 . S
C3340 C3343 1.539 . S
C3341 C3337 1.408 . S
C3341 C3340 1.404 . S
C3341 H3353 0.930 . S
C3342 C3338 1.524 . S
C3342 H3354 0.983 . S
C3342 H3355 0.918 1_545 S
C3342 H3356 0.961 . S
C3343 C3340 1.539 . S
C3343 H3357 0.958 . S
C3343 H3358 0.961 . S
C3343 H3359 0.969 . S
H3344 C3328 0.931 . S
H3345 C3333 0.929 . S
H3346 C3334 0.960 1_545 S
H3347 C3334 0.962 . S
H3348 C3334 0.960 . S
H3349 C3335 0.961 . S
H3350 C3335 0.961 1_545 S
H3351 C3335 0.961 . S
H3352 C3336 0.931 . S
H3353 C3341 0.930 . S
H3354 C3342 0.983 . S
H3355 C3342 0.918 1_565 S
H3356 C3342 0.961 . S
H3357 C3343 0.958 . S
H3358 C3343 0.961 . S
H3359 C3343 0.969 . S
C3360 C3361 1.391 . S
C3360 C3362 1.394 . S
C3360 H3376 0.931 . S
C3361 C3360 1.391 . S
C3361 C3365 1.376 . S
C3362 C3360 1.394 . S
C3362 C3363 1.369 . S
C3362 C3366 1.531 . S
C3363 C3362 1.369 . S
C3363 C3364 1.410 . S
C3363 C3371 1.503 1_655 S
C3364 C3363 1.410 . S
C3364 C3365 1.392 . S
C3364 C3367 1.511 . S
C3365 C3361 1.376 . S
C3365 C3364 1.392 . S
C3365 H3377 0.929 . S
C3366 C3362 1.531 . S
C3366 H3378 0.960 1_655 S
C3366 H3379 0.962 . S
C3366 H3380 0.960 . S
C3367 C3364 1.511 . S
C3367 H3381 0.961 . S
C3367 H3382 0.961 1_655 S
C3367 H3383 0.961 . S
C3368 C3369 1.370 . S
C3368 C3370 1.363 . S
C3368 H3384 0.931 . S
C3369 C3368 1.370 . S
C3369 C3373 1.408 . S
C3370 C3368 1.363 . S
C3370 C3371 1.370 . S
C3370 C3374 1.524 . S
C3371 C3363 1.503 1_455 S
C3371 C3370 1.370 . S
C3371 C3372 1.403 . S
C3372 C3371 1.403 . S
C3372 C3373 1.404 . S
C3372 C3375 1.539 . S
C3373 C3369 1.408 . S
C3373 C3372 1.404 . S
C3373 H3385 0.930 . S
C3374 C3370 1.524 . S
C3374 H3386 0.983 . S
C3374 H3387 0.918 1_455 S
C3374 H3388 0.961 . S
C3375 C3372 1.539 . S
C3375 H3389 0.958 . S
C3375 H3390 0.961 . S
C3375 H3391 0.969 . S
H3376 C3360 0.931 . S
H3377 C3365 0.929 . S
H3378 C3366 0.960 1_455 S
H3379 C3366 0.962 . S
H3380 C3366 0.960 . S
H3381 C3367 0.961 . S
H3382 C3367 0.961 1_455 S
H3383 C3367 0.961 . S
H3384 C3368 0.931 . S
H3385 C3373 0.930 . S
H3386 C3374 0.983 . S
H3387 C3374 0.918 1_655 S
H3388 C3374 0.961 . S
H3389 C3375 0.958 . S
H3390 C3375 0.961 . S
H3391 C3375 0.969 . S
C3392 C3393 1.391 . S
C3392 C3394 1.394 . S
C3392 H3408 0.931 . S
C3393 C3392 1.391 . S
C3393 C3397 1.376 . S
C3394 C3392 1.394 . S
C3394 C3395 1.369 . S
C3394 C3398 1.531 . S
C3395 C3394 1.369 . S
C3395 C3396 1.410 . S
C3395 C3403 1.503 1_545 S
C3396 C3395 1.410 . S
C3396 C3397 1.392 . S
C3396 C3399 1.511 . S
C3397 C3393 1.376 . S
C3397 C3396 1.392 . S
C3397 H3409 0.929 . S
C3398 C3394 1.531 . S
C3398 H3410 0.960 1_545 S
C3398 H3411 0.962 . S
C3398 H3412 0.960 . S
C3399 C3396 1.511 . S
C3399 H3413 0.961 . S
C3399 H3414 0.961 1_545 S
C3399 H3415 0.961 . S
C3400 C3401 1.370 . S
C3400 C3402 1.363 . S
C3400 H3416 0.931 . S
C3401 C3400 1.370 . S
C3401 C3405 1.408 . S
C3402 C3400 1.363 . S
C3402 C3403 1.370 . S
C3402 C3406 1.524 . S
C3403 C3395 1.503 1_565 S
C3403 C3402 1.370 . S
C3403 C3404 1.403 . S
C3404 C3403 1.403 . S
C3404 C3405 1.404 . S
C3404 C3407 1.539 . S
C3405 C3401 1.408 . S
C3405 C3404 1.404 . S
C3405 H3417 0.930 . S
C3406 C3402 1.524 . S
C3406 H3418 0.983 . S
C3406 H3419 0.918 1_565 S
C3406 H3420 0.961 . S
C3407 C3404 1.539 . S
C3407 H3421 0.958 . S
C3407 H3422 0.961 . S
C3407 H3423 0.969 . S
H3408 C3392 0.931 . S
H3409 C3397 0.929 . S
H3410 C3398 0.960 1_565 S
H3411 C3398 0.962 . S
H3412 C3398 0.960 . S
H3413 C3399 0.961 . S
H3414 C3399 0.961 1_565 S
H3415 C3399 0.961 . S
H3416 C3400 0.931 . S
H3417 C3405 0.930 . S
H3418 C3406 0.983 . S
H3419 C3406 0.918 1_545 S
H3420 C3406 0.961 . S
H3421 C3407 0.958 . S
H3422 C3407 0.961 . S
H3423 C3407 0.969 . S
C3424 C3425 1.391 . S
C3424 C3426 1.394 . S
C3424 H3440 0.931 . S
C3425 C3424 1.391 . S
C3425 C3429 1.376 . S
C3426 C3424 1.394 . S
C3426 C3427 1.369 . S
C3426 C3430 1.531 . S
C3427 C3426 1.369 . S
C3427 C3428 1.410 . S
C3427 C3435 1.503 1_455 S
C3428 C3427 1.410 . S
C3428 C3429 1.392 . S
C3428 C3431 1.511 . S
C3429 C3425 1.376 . S
C3429 C3428 1.392 . S
C3429 H3441 0.929 . S
C3430 C3426 1.531 . S
C3430 H3442 0.960 1_455 S
C3430 H3443 0.962 . S
C3430 H3444 0.960 . S
C3431 C3428 1.511 . S
C3431 H3445 0.961 . S
C3431 H3446 0.961 1_455 S
C3431 H3447 0.961 . S
C3432 C3433 1.370 . S
C3432 C3434 1.363 . S
C3432 H3448 0.931 . S
C3433 C3432 1.370 . S
C3433 C3437 1.408 . S
C3434 C3432 1.363 . S
C3434 C3435 1.370 . S
C3434 C3438 1.524 . S
C3435 C3427 1.503 1_655 S
C3435 C3434 1.370 . S
C3435 C3436 1.403 . S
C3436 C3435 1.403 . S
C3436 C3437 1.404 . S
C3436 C3439 1.539 . S
C3437 C3433 1.408 . S
C3437 C3436 1.404 . S
C3437 H3449 0.930 . S
C3438 C3434 1.524 . S
C3438 H3450 0.983 . S
C3438 H3451 0.918 1_655 S
C3438 H3452 0.961 . S
C3439 C3436 1.539 . S
C3439 H3453 0.958 . S
C3439 H3454 0.961 . S
C3439 H3455 0.969 . S
H3440 C3424 0.931 . S
H3441 C3429 0.929 . S
H3442 C3430 0.960 1_655 S
H3443 C3430 0.962 . S
H3444 C3430 0.960 . S
H3445 C3431 0.961 . S
H3446 C3431 0.961 1_655 S
H3447 C3431 0.961 . S
H3448 C3432 0.931 . S
H3449 C3437 0.930 . S
H3450 C3438 0.983 . S
H3451 C3438 0.918 1_455 S
H3452 C3438 0.961 . S
H3453 C3439 0.958 . S
H3454 C3439 0.961 . S
H3455 C3439 0.969 . S
C3456 C3457 1.391 . S
C3456 C3458 1.394 . S
C3456 H3472 0.931 . S
C3457 C3456 1.391 . S
C3457 C3461 1.376 . S
C3458 C3456 1.394 . S
C3458 C3459 1.369 . S
C3458 C3462 1.531 . S
C3459 C3458 1.369 . S
C3459 C3460 1.410 . S
C3459 C3467 1.503 1_545 S
C3460 C3459 1.410 . S
C3460 C3461 1.392 . S
C3460 C3463 1.511 . S
C3461 C3457 1.376 . S
C3461 C3460 1.392 . S
C3461 H3473 0.929 . S
C3462 C3458 1.531 . S
C3462 H3474 0.960 1_545 S
C3462 H3475 0.962 . S
C3462 H3476 0.960 . S
C3463 C3460 1.511 . S
C3463 H3477 0.961 . S
C3463 H3478 0.961 1_545 S
C3463 H3479 0.961 . S
C3464 C3465 1.370 . S
C3464 C3466 1.363 . S
C3464 H3480 0.931 . S
C3465 C3464 1.370 . S
C3465 C3469 1.408 . S
C3466 C3464 1.363 . S
C3466 C3467 1.370 . S
C3466 C3470 1.524 . S
C3467 C3459 1.503 1_565 S
C3467 C3466 1.370 . S
C3467 C3468 1.403 . S
C3468 C3467 1.403 . S
C3468 C3469 1.404 . S
C3468 C3471 1.539 . S
C3469 C3465 1.408 . S
C3469 C3468 1.404 . S
C3469 H3481 0.930 . S
C3470 C3466 1.524 . S
C3470 H3482 0.983 . S
C3470 H3483 0.918 1_565 S
C3470 H3484 0.961 . S
C3471 C3468 1.539 . S
C3471 H3485 0.958 . S
C3471 H3486 0.961 . S
C3471 H3487 0.969 . S
H3472 C3456 0.931 . S
H3473 C3461 0.929 . S
H3474 C3462 0.960 1_565 S
H3475 C3462 0.962 . S
H3476 C3462 0.960 . S
H3477 C3463 0.961 . S
H3478 C3463 0.961 1_565 S
H3479 C3463 0.961 . S
H3480 C3464 0.931 . S
H3481 C3469 0.930 . S
H3482 C3470 0.983 . S
H3483 C3470 0.918 1_545 S
H3484 C3470 0.961 . S
H3485 C3471 0.958 . S
H3486 C3471 0.961 . S
H3487 C3471 0.969 . S
C3488 C3489 1.391 . S
C3488 C3490 1.394 . S
C3488 H3504 0.931 . S
C3489 C3488 1.391 . S
C3489 C3493 1.376 . S
C3490 C3488 1.394 . S
C3490 C3491 1.369 . S
C3490 C3494 1.531 . S
C3491 C3490 1.369 . S
C3491 C3492 1.410 . S
C3491 C3499 1.503 1_545 S
C3492 C3491 1.410 . S
C3492 C3493 1.392 . S
C3492 C3495 1.511 . S
C3493 C3489 1.376 . S
C3493 C3492 1.392 . S
C3493 H3505 0.929 . S
C3494 C3490 1.531 . S
C3494 H3506 0.960 1_545 S
C3494 H3507 0.962 . S
C3494 H3508 0.960 . S
C3495 C3492 1.511 . S
C3495 H3509 0.961 . S
C3495 H3510 0.961 1_545 S
C3495 H3511 0.961 . S
C3496 C3497 1.370 . S
C3496 C3498 1.363 . S
C3496 H3512 0.931 . S
C3497 C3496 1.370 . S
C3497 C3501 1.408 . S
C3498 C3496 1.363 . S
C3498 C3499 1.370 . S
C3498 C3502 1.524 . S
C3499 C3491 1.503 1_565 S
C3499 C3498 1.370 . S
C3499 C3500 1.403 . S
C3500 C3499 1.403 . S
C3500 C3501 1.404 . S
C3500 C3503 1.539 . S
C3501 C3497 1.408 . S
C3501 C3500 1.404 . S
C3501 H3513 0.930 . S
C3502 C3498 1.524 . S
C3502 H3514 0.983 . S
C3502 H3515 0.918 1_565 S
C3502 H3516 0.961 . S
C3503 C3500 1.539 . S
C3503 H3517 0.958 . S
C3503 H3518 0.961 . S
C3503 H3519 0.969 . S
H3504 C3488 0.931 . S
H3505 C3493 0.929 . S
H3506 C3494 0.960 1_565 S
H3507 C3494 0.962 . S
H3508 C3494 0.960 . S
H3509 C3495 0.961 . S
H3510 C3495 0.961 1_565 S
H3511 C3495 0.961 . S
H3512 C3496 0.931 . S
H3513 C3501 0.930 . S
H3514 C3502 0.983 . S
H3515 C3502 0.918 1_545 S
H3516 C3502 0.961 . S
H3517 C3503 0.958 . S
H3518 C3503 0.961 . S
H3519 C3503 0.969 . S
C3520 C3521 1.391 . S
C3520 C3522 1.394 . S
C3520 H3536 0.931 . S
C3521 C3520 1.391 . S
C3521 C3525 1.376 . S
C3522 C3520 1.394 . S
C3522 C3523 1.369 . S
C3522 C3526 1.531 . S
C3523 C3522 1.369 . S
C3523 C3524 1.410 . S
C3523 C3531 1.503 1_545 S
C3524 C3523 1.410 . S
C3524 C3525 1.392 . S
C3524 C3527 1.511 . S
C3525 C3521 1.376 . S
C3525 C3524 1.392 . S
C3525 H3537 0.929 . S
C3526 C3522 1.531 . S
C3526 H3538 0.960 1_545 S
C3526 H3539 0.962 . S
C3526 H3540 0.960 . S
C3527 C3524 1.511 . S
C3527 H3541 0.961 . S
C3527 H3542 0.961 1_545 S
C3527 H3543 0.961 . S
C3528 C3529 1.370 . S
C3528 C3530 1.363 . S
C3528 H3544 0.931 . S
C3529 C3528 1.370 . S
C3529 C3533 1.408 . S
C3530 C3528 1.363 . S
C3530 C3531 1.370 . S
C3530 C3534 1.524 . S
C3531 C3523 1.503 1_565 S
C3531 C3530 1.370 . S
C3531 C3532 1.403 . S
C3532 C3531 1.403 . S
C3532 C3533 1.404 . S
C3532 C3535 1.539 . S
C3533 C3529 1.408 . S
C3533 C3532 1.404 . S
C3533 H3545 0.930 . S
C3534 C3530 1.524 . S
C3534 H3546 0.983 . S
C3534 H3547 0.918 1_565 S
C3534 H3548 0.961 . S
C3535 C3532 1.539 . S
C3535 H3549 0.958 . S
C3535 H3550 0.961 . S
C3535 H3551 0.969 . S
H3536 C3520 0.931 . S
H3537 C3525 0.929 . S
H3538 C3526 0.960 1_565 S
H3539 C3526 0.962 . S
H3540 C3526 0.960 . S
H3541 C3527 0.961 . S
H3542 C3527 0.961 1_565 S
H3543 C3527 0.961 . S
H3544 C3528 0.931 . S
H3545 C3533 0.930 . S
H3546 C3534 0.983 . S
H3547 C3534 0.918 1_545 S
H3548 C3534 0.961 . S
H3549 C3535 0.958 . S
H3550 C3535 0.961 . S
H3551 C3535 0.969 . S
C3552 C3553 1.391 . S
C3552 C3554 1.394 . S
C3552 H3568 0.931 . S
C3553 C3552 1.391 . S
C3553 C3557 1.376 . S
C3554 C3552 1.394 . S
C3554 C3555 1.369 . S
C3554 C3558 1.531 . S
C3555 C3554 1.369 . S
C3555 C3556 1.410 . S
C3555 C3563 1.503 1_655 S
C3556 C3555 1.410 . S
C3556 C3557 1.392 . S
C3556 C3559 1.511 . S
C3557 C3553 1.376 . S
C3557 C3556 1.392 . S
C3557 H3569 0.929 . S
C3558 C3554 1.531 . S
C3558 H3570 0.960 1_655 S
C3558 H3571 0.962 . S
C3558 H3572 0.960 . S
C3559 C3556 1.511 . S
C3559 H3573 0.961 . S
C3559 H3574 0.961 1_655 S
C3559 H3575 0.961 . S
C3560 C3561 1.370 . S
C3560 C3562 1.363 . S
C3560 H3576 0.931 . S
C3561 C3560 1.370 . S
C3561 C3565 1.408 . S
C3562 C3560 1.363 . S
C3562 C3563 1.370 . S
C3562 C3566 1.524 . S
C3563 C3555 1.503 1_455 S
C3563 C3562 1.370 . S
C3563 C3564 1.403 . S
C3564 C3563 1.403 . S
C3564 C3565 1.404 . S
C3564 C3567 1.539 . S
C3565 C3561 1.408 . S
C3565 C3564 1.404 . S
C3565 H3577 0.930 . S
C3566 C3562 1.524 . S
C3566 H3578 0.983 . S
C3566 H3579 0.918 1_455 S
C3566 H3580 0.961 . S
C3567 C3564 1.539 . S
C3567 H3581 0.958 . S
C3567 H3582 0.961 . S
C3567 H3583 0.969 . S
H3568 C3552 0.931 . S
H3569 C3557 0.929 . S
H3570 C3558 0.960 1_455 S
H3571 C3558 0.962 . S
H3572 C3558 0.960 . S
H3573 C3559 0.961 . S
H3574 C3559 0.961 1_455 S
H3575 C3559 0.961 . S
H3576 C3560 0.931 . S
H3577 C3565 0.930 . S
H3578 C3566 0.983 . S
H3579 C3566 0.918 1_655 S
H3580 C3566 0.961 . S
H3581 C3567 0.958 . S
H3582 C3567 0.961 . S
H3583 C3567 0.969 . S
C3584 C3585 1.391 . S
C3584 C3586 1.394 . S
C3584 H3600 0.931 . S
C3585 C3584 1.391 . S
C3585 C3589 1.376 . S
C3586 C3584 1.394 . S
C3586 C3587 1.369 . S
C3586 C3590 1.531 . S
C3587 C3586 1.369 . S
C3587 C3588 1.410 . S
C3587 C3595 1.503 1_545 S
C3588 C3587 1.410 . S
C3588 C3589 1.392 . S
C3588 C3591 1.511 . S
C3589 C3585 1.376 . S
C3589 C3588 1.392 . S
C3589 H3601 0.929 . S
C3590 C3586 1.531 . S
C3590 H3602 0.960 1_545 S
C3590 H3603 0.962 . S
C3590 H3604 0.960 . S
C3591 C3588 1.511 . S
C3591 H3605 0.961 . S
C3591 H3606 0.961 1_545 S
C3591 H3607 0.961 . S
C3592 C3593 1.370 . S
C3592 C3594 1.363 . S
C3592 H3608 0.931 . S
C3593 C3592 1.370 . S
C3593 C3597 1.408 . S
C3594 C3592 1.363 . S
C3594 C3595 1.370 . S
C3594 C3598 1.524 . S
C3595 C3587 1.503 1_565 S
C3595 C3594 1.370 . S
C3595 C3596 1.403 . S
C3596 C3595 1.403 . S
C3596 C3597 1.404 . S
C3596 C3599 1.539 . S
C3597 C3593 1.408 . S
C3597 C3596 1.404 . S
C3597 H3609 0.930 . S
C3598 C3594 1.524 . S
C3598 H3610 0.983 . S
C3598 H3611 0.918 1_565 S
C3598 H3612 0.961 . S
C3599 C3596 1.539 . S
C3599 H3613 0.958 . S
C3599 H3614 0.961 . S
C3599 H3615 0.969 . S
H3600 C3584 0.931 . S
H3601 C3589 0.929 . S
H3602 C3590 0.960 1_565 S
H3603 C3590 0.962 . S
H3604 C3590 0.960 . S
H3605 C3591 0.961 . S
H3606 C3591 0.961 1_565 S
H3607 C3591 0.961 . S
H3608 C3592 0.931 . S
H3609 C3597 0.930 . S
H3610 C3598 0.983 . S
H3611 C3598 0.918 1_545 S
H3612 C3598 0.961 . S
H3613 C3599 0.958 . S
H3614 C3599 0.961 . S
H3615 C3599 0.969 . S
C3616 C3617 1.391 . S
C3616 C3618 1.394 . S
C3616 H3632 0.931 . S
C3617 C3616 1.391 . S
C3617 C3621 1.376 . S
C3618 C3616 1.394 . S
C3618 C3619 1.369 . S
C3618 C3622 1.531 . S
C3619 C3618 1.369 . S
C3619 C3620 1.410 . S
C3619 C3627 1.503 1_455 S
C3620 C3619 1.410 . S
C3620 C3621 1.392 . S
C3620 C3623 1.511 . S
C3621 C3617 1.376 . S
C3621 C3620 1.392 . S
C3621 H3633 0.929 . S
C3622 C3618 1.531 . S
C3622 H3634 0.960 1_455 S
C3622 H3635 0.962 . S
C3622 H3636 0.960 . S
C3623 C3620 1.511 . S
C3623 H3637 0.961 . S
C3623 H3638 0.961 1_455 S
C3623 H3639 0.961 . S
C3624 C3625 1.370 . S
C3624 C3626 1.363 . S
C3624 H3640 0.931 . S
C3625 C3624 1.370 . S
C3625 C3629 1.408 . S
C3626 C3624 1.363 . S
C3626 C3627 1.370 . S
C3626 C3630 1.524 . S
C3627 C3619 1.503 1_655 S
C3627 C3626 1.370 . S
C3627 C3628 1.403 . S
C3628 C3627 1.403 . S
C3628 C3629 1.404 . S
C3628 C3631 1.539 . S
C3629 C3625 1.408 . S
C3629 C3628 1.404 . S
C3629 H3641 0.930 . S
C3630 C3626 1.524 . S
C3630 H3642 0.983 . S
C3630 H3643 0.918 1_655 S
C3630 H3644 0.961 . S
C3631 C3628 1.539 . S
C3631 H3645 0.958 . S
C3631 H3646 0.961 . S
C3631 H3647 0.969 . S
H3632 C3616 0.931 . S
H3633 C3621 0.929 . S
H3634 C3622 0.960 1_655 S
H3635 C3622 0.962 . S
H3636 C3622 0.960 . S
H3637 C3623 0.961 . S
H3638 C3623 0.961 1_655 S
H3639 C3623 0.961 . S
H3640 C3624 0.931 . S
H3641 C3629 0.930 . S
H3642 C3630 0.983 . S
H3643 C3630 0.918 1_455 S
H3644 C3630 0.961 . S
H3645 C3631 0.958 . S
H3646 C3631 0.961 . S
H3647 C3631 0.969 . S
C3648 C3649 1.391 . S
C3648 C3650 1.394 . S
C3648 H3664 0.931 . S
C3649 C3648 1.391 . S
C3649 C3653 1.376 . S
C3650 C3648 1.394 . S
C3650 C3651 1.369 . S
C3650 C3654 1.531 . S
C3651 C3650 1.369 . S
C3651 C3652 1.410 . S
C3651 C3659 1.503 1_545 S
C3652 C3651 1.410 . S
C3652 C3653 1.392 . S
C3652 C3655 1.511 . S
C3653 C3649 1.376 . S
C3653 C3652 1.392 . S
C3653 H3665 0.929 . S
C3654 C3650 1.531 . S
C3654 H3666 0.960 1_545 S
C3654 H3667 0.962 . S
C3654 H3668 0.960 . S
C3655 C3652 1.511 . S
C3655 H3669 0.961 . S
C3655 H3670 0.961 1_545 S
C3655 H3671 0.961 . S
C3656 C3657 1.370 . S
C3656 C3658 1.363 . S
C3656 H3672 0.931 . S
C3657 C3656 1.370 . S
C3657 C3661 1.408 . S
C3658 C3656 1.363 . S
C3658 C3659 1.370 . S
C3658 C3662 1.524 . S
C3659 C3651 1.503 1_565 S
C3659 C3658 1.370 . S
C3659 C3660 1.403 . S
C3660 C3659 1.403 . S
C3660 C3661 1.404 . S
C3660 C3663 1.539 . S
C3661 C3657 1.408 . S
C3661 C3660 1.404 . S
C3661 H3673 0.930 . S
C3662 C3658 1.524 . S
C3662 H3674 0.983 . S
C3662 H3675 0.918 1_565 S
C3662 H3676 0.961 . S
C3663 C3660 1.539 . S
C3663 H3677 0.958 . S
C3663 H3678 0.961 . S
C3663 H3679 0.969 . S
H3664 C3648 0.931 . S
H3665 C3653 0.929 . S
H3666 C3654 0.960 1_565 S
H3667 C3654 0.962 . S
H3668 C3654 0.960 . S
H3669 C3655 0.961 . S
H3670 C3655 0.961 1_565 S
H3671 C3655 0.961 . S
H3672 C3656 0.931 . S
H3673 C3661 0.930 . S
H3674 C3662 0.983 . S
H3675 C3662 0.918 1_545 S
H3676 C3662 0.961 . S
H3677 C3663 0.958 . S
H3678 C3663 0.961 . S
H3679 C3663 0.969 . S
C3680 C3681 1.391 . S
C3680 C3682 1.394 . S
C3680 H3696 0.931 . S
C3681 C3680 1.391 . S
C3681 C3685 1.376 . S
C3682 C3680 1.394 . S
C3682 C3683 1.369 . S
C3682 C3686 1.531 . S
C3683 C3682 1.369 . S
C3683 C3684 1.410 . S
C3683 C3691 1.503 1_655 S
C3684 C3683 1.410 . S
C3684 C3685 1.392 . S
C3684 C3687 1.511 . S
C3685 C3681 1.376 . S
C3685 C3684 1.392 . S
C3685 H3697 0.929 . S
C3686 C3682 1.531 . S
C3686 H3698 0.960 1_655 S
C3686 H3699 0.962 . S
C3686 H3700 0.960 . S
C3687 C3684 1.511 . S
C3687 H3701 0.961 . S
C3687 H3702 0.961 1_655 S
C3687 H3703 0.961 . S
C3688 C3689 1.370 . S
C3688 C3690 1.363 . S
C3688 H3704 0.931 . S
C3689 C3688 1.370 . S
C3689 C3693 1.408 . S
C3690 C3688 1.363 . S
C3690 C3691 1.370 . S
C3690 C3694 1.524 . S
C3691 C3683 1.503 1_455 S
C3691 C3690 1.370 . S
C3691 C3692 1.403 . S
C3692 C3691 1.403 . S
C3692 C3693 1.404 . S
C3692 C3695 1.539 . S
C3693 C3689 1.408 . S
C3693 C3692 1.404 . S
C3693 H3705 0.930 . S
C3694 C3690 1.524 . S
C3694 H3706 0.983 . S
C3694 H3707 0.918 1_455 S
C3694 H3708 0.961 . S
C3695 C3692 1.539 . S
C3695 H3709 0.958 . S
C3695 H3710 0.961 . S
C3695 H3711 0.969 . S
H3696 C3680 0.931 . S
H3697 C3685 0.929 . S
H3698 C3686 0.960 1_455 S
H3699 C3686 0.962 . S
H3700 C3686 0.960 . S
H3701 C3687 0.961 . S
H3702 C3687 0.961 1_455 S
H3703 C3687 0.961 . S
H3704 C3688 0.931 . S
H3705 C3693 0.930 . S
H3706 C3694 0.983 . S
H3707 C3694 0.918 1_655 S
H3708 C3694 0.961 . S
H3709 C3695 0.958 . S
H3710 C3695 0.961 . S
H3711 C3695 0.969 . S
C3712 C3713 1.391 . S
C3712 C3714 1.394 . S
C3712 H3728 0.931 . S
C3713 C3712 1.391 . S
C3713 C3717 1.376 . S
C3714 C3712 1.394 . S
C3714 C3715 1.369 . S
C3714 C3718 1.531 . S
C3715 C3714 1.369 . S
C3715 C3716 1.410 . S
C3715 C3723 1.503 1_455 S
C3716 C3715 1.410 . S
C3716 C3717 1.392 . S
C3716 C3719 1.511 . S
C3717 C3713 1.376 . S
C3717 C3716 1.392 . S
C3717 H3729 0.929 . S
C3718 C3714 1.531 . S
C3718 H3730 0.960 1_455 S
C3718 H3731 0.962 . S
C3718 H3732 0.960 . S
C3719 C3716 1.511 . S
C3719 H3733 0.961 . S
C3719 H3734 0.961 1_455 S
C3719 H3735 0.961 . S
C3720 C3721 1.370 . S
C3720 C3722 1.363 . S
C3720 H3736 0.931 . S
C3721 C3720 1.370 . S
C3721 C3725 1.408 . S
C3722 C3720 1.363 . S
C3722 C3723 1.370 . S
C3722 C3726 1.524 . S
C3723 C3715 1.503 1_655 S
C3723 C3722 1.370 . S
C3723 C3724 1.403 . S
C3724 C3723 1.403 . S
C3724 C3725 1.404 . S
C3724 C3727 1.539 . S
C3725 C3721 1.408 . S
C3725 C3724 1.404 . S
C3725 H3737 0.930 . S
C3726 C3722 1.524 . S
C3726 H3738 0.983 . S
C3726 H3739 0.918 1_655 S
C3726 H3740 0.961 . S
C3727 C3724 1.539 . S
C3727 H3741 0.958 . S
C3727 H3742 0.961 . S
C3727 H3743 0.969 . S
H3728 C3712 0.931 . S
H3729 C3717 0.929 . S
H3730 C3718 0.960 1_655 S
H3731 C3718 0.962 . S
H3732 C3718 0.960 . S
H3733 C3719 0.961 . S
H3734 C3719 0.961 1_655 S
H3735 C3719 0.961 . S
H3736 C3720 0.931 . S
H3737 C3725 0.930 . S
H3738 C3726 0.983 . S
H3739 C3726 0.918 1_455 S
H3740 C3726 0.961 . S
H3741 C3727 0.958 . S
H3742 C3727 0.961 . S
H3743 C3727 0.969 . S
C673 C553 1.361 . S
C681 C7 1.380 . S
C705 C20 1.394 . S
C713 C511 1.396 . S
C737 C35 1.403 . S
C745 C525 1.396 . S
C769 C538 1.399 . S
C777 C48 1.394 . S
C801 C468 1.362 . S
C809 C62 1.381 . S
C833 C77 1.393 . S
C841 C483 1.391 . S
C865 C90 1.361 . S
C873 C497 1.380 . S
C897 C105 1.413 . S
C905 C454 1.401 . S
C929 C118 1.407 . S
C937 C441 1.400 . S
C961 C398 1.415 . S
C969 C132 1.402 . S
C993 C413 1.363 . S
C1001 C147 1.380 . S
C1025 C161 1.405 . S
C1033 C426 1.397 . S
C1057 C175 1.367 . S
C1065 C356 1.384 . S
C1089 C189 1.374 . S
C1097 C371 1.387 . S
C1121 C384 1.381 . S
C1129 C202 1.387 . S
C1153 C343 1.414 . S
C1161 C217 1.402 . S
C1185 C230 1.363 . S
C1193 C622 1.382 . S
C1217 C665 1.391 . S
C1225 C245 1.391 . S
C1249 C636 1.397 . S
C1257 C258 1.393 . S
C1281 C651 1.388 . S
C1289 C273 1.389 . S
C1313 C566 1.407 . S
C1321 C286 1.400 . S
C1345 C594 1.381 . S
C1353 C300 1.390 . S
C1377 C315 1.414 . S
C1385 C609 1.402 . S
C1409 C581 1.365 . S
C1417 C329 1.383 . S
C1441 C455 1.363 . S
C1449 C287 1.382 . S
C1473 C244 1.400 . S
C1481 C469 1.398 . S
C1505 C482 1.409 . S
C1513 C259 1.399 . S
C1537 C496 1.375 . S
C1545 C272 1.388 . S
C1569 C328 1.373 . S
C1577 C510 1.387 . S
C1601 C524 1.389 . S
C1609 C301 1.390 . S
C1633 C314 1.371 . S
C1641 C539 1.386 . S
C1665 C231 1.370 . S
C1673 C552 1.382 . S
C1697 C567 1.401 . S
C1705 C216 1.395 . S
C1729 C174 1.365 . S
C1737 C664 1.381 . S
C1761 C637 1.413 . S
C1769 C188 1.401 . S
C1793 C203 1.377 . S
C1801 C650 1.388 . S
C1825 C133 1.406 . S
C1833 C580 1.397 . S
C1857 C146 1.373 . S
C1865 C595 1.387 . S
C1889 C160 1.415 . S
C1897 C608 1.402 . S
C1921 C623 1.415 . S
C1929 C119 1.402 . S
C1953 C342 1.401 . S
C1961 C104 1.398 . S
C1985 C399 1.386 . S
C1993 C21 1.389 . S
C2017 C412 1.391 . S
C2025 C34 1.391 . S
C2049 C427 1.377 . S
C2057 C49 1.385 . S
C2081 C440 1.408 . S
C2089 C6 1.401 . S
C2113 C76 1.363 . S
C2121 C370 1.380 . S
C2145 C385 1.361 . S
C2153 C91 1.381 . S
C2177 C357 1.393 . S
C2185 C63 1.392 . S
C2209 C8 1.517 . S
C2217 C372 1.521 . S
C2241 C387 1.528 . S
C2249 C23 1.525 . S
C2273 C36 1.505 . S
C2281 C344 1.516 . S
C2305 C51 1.494 . S
C2313 C359 1.511 . S
C2337 C65 1.495 . S
C2345 C429 1.511 . S
C2369 C442 1.535 . S
C2377 C78 1.527 . S
C2401 C93 1.499 . S
C2409 C401 1.513 . S
C2433 C414 1.511 . S
C2441 C106 1.516 . S
C2465 C121 1.514 . S
C2473 C512 1.520 . S
C2497 C526 1.530 . S
C2505 C135 1.524 . S
C2529 C148 1.525 . S
C2537 C541 1.524 . S
C2561 C162 1.514 . S
C2569 C554 1.520 . S
C2593 C176 1.530 . S
C2601 C457 1.524 . S
C2625 C190 1.503 . S
C2633 C471 1.515 . S
C2657 C484 1.499 . S
C2665 C205 1.513 . S
C2689 C218 1.536 . S
C2697 C498 1.527 . S
C2721 C610 1.528 . S
C2729 C233 1.523 . S
C2753 C246 1.519 . S
C2761 C639 1.522 . S
C2785 C261 1.516 . S
C2793 C652 1.520 . S
C2817 C569 1.498 . S
C2825 C274 1.511 . S
C2849 C666 1.524 . S
C2857 C289 1.521 . S
C2881 C303 1.495 . S
C2889 C582 1.510 . S
C2913 C597 1.518 . S
C2921 C316 1.521 . S
C2945 C330 1.502 . S
C2953 C625 1.515 . S
C2977 C596 1.496 . S
C2985 C288 1.512 . S
C3009 C247 1.518 . S
C3017 C611 1.521 . S
C3041 C624 1.497 . S
C3049 C260 1.512 . S
C3073 C583 1.501 . S
C3081 C275 1.512 . S
C3105 C653 1.523 . S
C3113 C331 1.523 . S
C3137 C302 1.525 . S
C3145 C568 1.524 . S
C3169 C667 1.498 . S
C3177 C317 1.513 . S
C3201 C232 1.504 . S
C3209 C638 1.513 . S
C3233 C470 1.501 . S
C3241 C219 1.512 . S
C3265 C177 1.534 . S
C3273 C485 1.526 . S
C3297 C191 1.504 . S
C3305 C499 1.513 . S
C3329 C456 1.535 . S
C3337 C204 1.527 . S
C3361 C134 1.499 . S
C3369 C555 1.511 . S
C3393 C513 1.494 . S
C3401 C149 1.511 . S
C3425 C163 1.532 . S
C3433 C527 1.527 . S
C3457 C120 1.494 . S
C3465 C540 1.510 . S
C3489 C386 1.525 . S
C3497 C107 1.524 . S
C3521 C22 1.506 . S
C3529 C415 1.514 . S
C3553 C37 1.531 . S
C3561 C428 1.526 . S
C3585 C443 1.503 . S
C3593 C50 1.512 . S
C3617 C9 1.535 . S
C3625 C400 1.526 . S
C3649 C79 1.523 . S
C3657 C358 1.523 . S
C3681 C92 1.511 . S
C3689 C373 1.518 . S
C3713 C64 1.503 . S
C3721 C345 1.515 . S
