# Generated by pormake.
# Topology snk, (6)-cn, num edge types: 1
# Building blocks:
#     Node 0, Type 0, BuildingBlock: BETDEL_clean_sbu_0, # of connection points: 6
#     Node 1, Type 0, BuildingBlock: BETDEL_clean_sbu_0, # of connection points: 6
#     Node 2, Type 0, BuildingBlock: BETDEL_clean_sbu_0, # of connection points: 6
#     Node 3, Type 0, BuildingBlock: BETDEL_clean_sbu_0, # of connection points: 6
#     Node 4, Type 0, BuildingBlock: BETDEL_clean_sbu_0, # of connection points: 6
#     Node 5, Type 0, BuildingBlock: BETDEL_clean_sbu_0, # of connection points: 6
#     Node 6, Type 0, BuildingBlock: BETDEL_clean_sbu_0, # of connection points: 6
#     Node 7, Type 0, BuildingBlock: BETDEL_clean_sbu_0, # of connection points: 6
#     Edge 8, Type (0, 0), BuildingBlock: XUDNAN_clean_linker_2, # of connection points: 2
#     Edge 9, Type (0, 0), BuildingBlock: XUDNAN_clean_linker_2, # of connection points: 2
#     Edge 10, Type (0, 0), BuildingBlock: XUDNAN_clean_linker_2, # of connection points: 2
#     Edge 11, Type (0, 0), BuildingBlock: XUDNAN_clean_linker_2, # of connection points: 2
#     Edge 12, Type (0, 0), BuildingBlock: XUDNAN_clean_linker_2, # of connection points: 2
#     Edge 13, Type (0, 0), BuildingBlock: XUDNAN_clean_linker_2, # of connection points: 2
#     Edge 14, Type (0, 0), BuildingBlock: XUDNAN_clean_linker_2, # of connection points: 2
#     Edge 15, Type (0, 0), BuildingBlock: XUDNAN_clean_linker_2, # of connection points: 2
#     Edge 16, Type (0, 0), BuildingBlock: XUDNAN_clean_linker_2, # of connection points: 2
#     Edge 17, Type (0, 0), BuildingBlock: XUDNAN_clean_linker_2, # of connection points: 2
#     Edge 18, Type (0, 0), BuildingBlock: XUDNAN_clean_linker_2, # of connection points: 2
#     Edge 19, Type (0, 0), BuildingBlock: XUDNAN_clean_linker_2, # of connection points: 2
#     Edge 20, Type (0, 0), BuildingBlock: XUDNAN_clean_linker_2, # of connection points: 2
#     Edge 21, Type (0, 0), BuildingBlock: XUDNAN_clean_linker_2, # of connection points: 2
#     Edge 22, Type (0, 0), BuildingBlock: XUDNAN_clean_linker_2, # of connection points: 2
#     Edge 23, Type (0, 0), BuildingBlock: XUDNAN_clean_linker_2, # of connection points: 2
#     Edge 24, Type (0, 0), BuildingBlock: XUDNAN_clean_linker_2, # of connection points: 2
#     Edge 25, Type (0, 0), BuildingBlock: XUDNAN_clean_linker_2, # of connection points: 2
#     Edge 26, Type (0, 0), BuildingBlock: XUDNAN_clean_linker_2, # of connection points: 2
#     Edge 27, Type (0, 0), BuildingBlock: XUDNAN_clean_linker_2, # of connection points: 2
#     Edge 28, Type (0, 0), BuildingBlock: XUDNAN_clean_linker_2, # of connection points: 2
#     Edge 29, Type (0, 0), BuildingBlock: XUDNAN_clean_linker_2, # of connection points: 2
#     Edge 30, Type (0, 0), BuildingBlock: XUDNAN_clean_linker_2, # of connection points: 2
#     Edge 31, Type (0, 0), BuildingBlock: XUDNAN_clean_linker_2, # of connection points: 2
# Relax obj value: 0.058
# Max RMSD: 0.101
# Mean RMSD: 0.095
data_MOF--net-snk--node1-BETDEL_clean_sbu_0--edge1-XUDNAN_clean_linker_2
_symmetry_space_group_name_H-M    P1
_symmetry_Int_Tables_number       1
_symmetry_cell_setting            triclinic
loop_
_symmetry_equiv_pos_as_xyz
'x, y, z'
_cell_length_a     39.912582
_cell_length_b     39.915898
_cell_length_c     17.95272
_cell_angle_alpha  85.306363
_cell_angle_beta   94.914222
_cell_angle_gamma 90.49878
loop_
_atom_site_label
_atom_site_type_symbol
_atom_site_fract_x
_atom_site_fract_y
_atom_site_fract_z
_atom_type_partial_charge
Dy0 Dy 1.00367 0.00389 0.46419 0.0
C1 C 0.01868 0.03149 0.77561 0.0
C2 C 0.99668 0.00951 0.31265 0.0
Dy3 Dy 0.00712 0.02026 0.62902 0.0
O4 O 0.02108 0.9936 0.35295 0.0
O5 O 0.97574 0.02156 0.35505 0.0
O6 O 0.02051 0.95102 0.50097 0.0
O7 O 0.0374 0.99079 0.56359 0.0
C8 C 0.03784 0.95942 0.56137 0.0
C9 C 0.96082 0.05404 0.53435 0.0
O10 O 0.05309 0.04825 0.59403 0.0
O11 O 0.04378 0.04329 0.46511 0.0
O12 O 0.01052 0.05441 0.7218 0.0
O13 O 0.02123 1.0023 0.74922 0.0
O14 O 0.95584 0.045 0.60356 0.0
O15 O 0.98996 0.04588 0.52289 0.0
O16 O 0.9559 0.98138 0.50161 0.0
O17 O 0.97465 0.97432 0.62765 0.0
C18 C 0.06048 0.05567 0.52383 0.0
C19 C 0.9533 0.9674 0.5703 0.0
Dy20 Dy 0.24233 0.74488 0.84849 0.0
C21 C 0.26727 0.76051 0.53995 0.0
C22 C 0.24844 0.73258 1.00076 0.0
Dy23 Dy 0.25985 0.75609 0.69041 0.0
O24 O 0.22417 0.7495 0.96264 0.0
O25 O 0.26873 0.72165 0.95551 0.0
O26 O 0.19223 0.76899 0.81875 0.0
O27 O 0.23397 0.78682 0.76253 0.0
C28 C 0.2026 0.78927 0.76518 0.0
C29 C 0.29773 0.71092 0.77798 0.0
O30 O 0.28424 0.80215 0.73159 0.0
O31 O 0.28707 0.78061 0.85536 0.0
O32 O 0.2904 0.75194 0.59279 0.0
O33 O 0.2398 0.76779 0.56914 0.0
O34 O 0.30979 0.73258 0.72985 0.0
O35 O 0.26636 0.71368 0.77569 0.0
O36 O 0.20999 0.70409 0.80221 0.0
O37 O 0.21193 0.72622 0.67907 0.0
C38 C 0.29661 0.80292 0.80218 0.0
C39 C 0.19865 0.7057 0.73049 0.0
Dy40 Dy 0.50807 0.99368 0.10117 0.0
C41 C 0.47828 0.00676 0.78108 0.0
C42 C 0.51497 0.98767 0.25422 0.0
Dy43 Dy 0.4965 0.01617 0.92738 0.0
O44 O 0.51101 0.96293 0.21169 0.0
O45 O 0.51659 0.01586 0.21298 0.0
O46 O 0.48055 0.94554 0.07852 0.0
O47 O 0.46793 0.98965 1.01162 0.0
C48 C 0.46255 0.95854 0.01993 0.0
C49 C 0.55155 0.04664 0.98764 0.0
O50 O 0.46026 0.05099 0.97066 0.0
O51 O 0.47315 0.03755 0.09963 0.0
O52 O 0.48459 0.03604 0.80662 0.0
O53 O 0.48074 0.98334 0.83584 0.0
O54 O 0.54091 0.05104 0.917 0.0
O55 O 0.53201 0.02656 0.02024 0.0
O56 O 0.55394 0.97253 0.05895 0.0
O57 O 0.53056 0.97126 0.93616 0.0
C58 C 0.45711 0.05576 0.0424 0.0
C59 C 0.55415 0.96226 0.99045 0.0
Dy60 Dy 0.2404 0.26371 0.19821 0.0
C61 C 0.27205 0.23657 0.51828 0.0
C62 C 0.23234 0.26856 0.04367 0.0
Dy63 Dy 0.27201 0.24892 0.36506 0.0
O64 O 0.21148 0.25449 0.0884 0.0
O65 O 0.25691 0.28189 0.0836 0.0
O66 O 0.19429 0.23549 0.22982 0.0
O67 O 0.24145 0.22164 0.28416 0.0
C68 C 0.21027 0.2163 0.28287 0.0
C69 C 0.30318 0.29556 0.28216 0.0
O70 O 0.30325 0.21205 0.31257 0.0
O71 O 0.28719 0.23416 0.19031 0.0
O72 O 0.25638 0.21899 0.46834 0.0
O73 O 0.28948 0.25992 0.48439 0.0
O74 O 0.31856 0.27756 0.33864 0.0
O75 O 0.2719 0.29031 0.27886 0.0
O76 O 0.21546 0.30583 0.24793 0.0
O77 O 0.22665 0.28161 0.37012 0.0
C78 C 0.30669 0.21466 0.23913 0.0
C79 C 0.21141 0.30448 0.32097 0.0
Dy80 Dy 0.75592 0.24475 0.30049 0.0
C81 C 0.78174 0.26787 0.99072 0.0
C82 C 0.75853 0.234 0.4533 0.0
Dy83 Dy 0.77589 0.26004 0.14184 0.0
O84 O 0.73846 0.25497 0.4128 0.0
O85 O 0.77631 0.21825 0.41007 0.0
O86 O 0.70449 0.26493 0.2626 0.0
O87 O 0.74666 0.28661 0.21471 0.0
C88 C 0.71506 0.28699 0.21259 0.0
C89 C 0.81908 0.22107 0.22967 0.0
O90 O 0.80029 0.30472 0.19178 0.0
O91 O 0.80064 0.27925 0.31261 0.0
O92 O 0.80545 0.25896 0.04203 0.0
O93 O 0.75447 0.27412 0.0221 0.0
O94 O 0.82769 0.24238 0.17639 0.0
O95 O 0.78743 0.21925 0.22956 0.0
O96 O 0.72962 0.20068 0.25292 0.0
O97 O 0.73681 0.21935 0.12905 0.0
C98 C 0.81161 0.30257 0.2636 0.0
C99 C 0.72389 0.19806 0.17985 0.0
Dy100 Dy 0.73432 0.76688 0.66806 0.0
C101 C 0.75916 0.73656 0.98661 0.0
C102 C 0.72896 0.77503 0.51378 0.0
Dy103 Dy 0.7649 0.74888 0.83515 0.0
O104 O 0.70433 0.76824 0.55558 0.0
O105 O 0.75635 0.7793 0.55666 0.0
O106 O 0.68569 0.74159 0.69643 0.0
O107 O 0.73138 0.72552 0.7532 0.0
C108 C 0.70004 0.7221 0.75127 0.0
C109 C 0.80062 0.79211 0.75287 0.0
O110 O 0.78749 0.70583 0.78293 0.0
O111 O 0.77428 0.72835 0.65959 0.0
O112 O 0.78594 0.74881 0.95733 0.0
O113 O 0.73694 0.72957 0.93307 0.0
O114 O 0.81404 0.77302 0.81003 0.0
O115 O 0.76898 0.78993 0.74922 0.0
O116 O 0.71351 0.81119 0.71866 0.0
O117 O 0.72663 0.78928 0.84222 0.0
C118 C 0.78952 0.70566 0.70917 0.0
C119 C 0.71159 0.81185 0.79219 0.0
Dy120 Dy 0.49998 0.49127 0.92236 0.0
C121 C 0.52184 0.50024 0.23375 0.0
C122 C 0.49342 0.48507 0.77164 0.0
Dy123 Dy 0.51081 0.50769 0.08144 0.0
O124 O 0.49902 0.46078 0.82334 0.0
O125 O 0.49046 0.51322 0.80214 0.0
O126 O 0.52354 0.4409 0.9576 0.0
O127 O 0.54185 0.4832 1.00889 0.0
C128 C 0.54458 0.45194 1.00867 0.0
C129 C 0.46662 0.54794 0.99753 0.0
O130 O 0.55457 0.53562 0.03867 0.0
O131 O 0.53321 0.53731 0.91423 0.0
O132 O 0.50936 0.52701 0.19574 0.0
O133 O 0.52902 0.4782 0.18846 0.0
O134 O 0.48685 0.55814 0.05165 0.0
O135 O 0.46921 0.51669 0.99477 0.0
O136 O 0.45362 0.46722 0.9628 0.0
O137 O 0.47577 0.463 0.08615 0.0
C138 C 0.55469 0.54788 0.96795 0.0
C139 C 0.45334 0.454 0.03268 0.0
Dy140 Dy 0.00518 0.49556 0.5929 0.0
C141 C 0.99218 0.52558 0.27439 0.0
C142 C 0.01617 0.49792 0.74427 0.0
Dy143 Dy 0.99338 0.51713 0.42688 0.0
O144 O 0.99306 0.47988 0.71112 0.0
O145 O 0.03369 0.51376 0.69486 0.0
O146 O 0.99354 0.4422 0.57181 0.0
O147 O 0.96878 0.48135 0.50246 0.0
C148 C 0.97338 0.44996 0.51208 0.0
C149 C 0.02478 0.56222 0.51053 0.0
O150 O 0.94494 0.53585 0.4616 0.0
O151 O 0.96401 0.53391 0.5877 0.0
O152 O 0.00978 0.543 0.32131 0.0
O153 O 0.97403 0.50358 0.31065 0.0
O154 O 1.00316 0.57017 0.45384 0.0
O155 O 0.02987 0.53093 0.51724 0.0
O156 O 0.05185 0.47407 0.55684 0.0
O157 O 0.03347 0.4775 0.43034 0.0
C158 C 0.94176 0.54362 0.53118 0.0
C159 C 0.05508 0.46666 0.48722 0.0
H160 H 0.05609 0.10998 0.42441 0.0
H161 H 0.12546 0.0543 0.58668 0.0
H162 H 0.17232 0.09092 0.54577 0.0
H163 H 0.10811 0.12203 0.27951 0.0
H164 H 0.09433 0.16421 0.24923 0.0
H165 H 0.06639 0.13527 0.2951 0.0
H166 H 0.05885 0.17707 0.39551 0.0
H167 H 0.08644 0.20643 0.34939 0.0
H168 H 0.09541 0.19304 0.44736 0.0
H169 H 0.21211 0.12886 0.47318 0.0
H170 H 0.24041 0.17 0.3885 0.0
H171 H 0.14333 0.20406 0.2844 0.0
C172 C 0.08109 0.10597 0.45215 0.0
C173 C 0.08753 0.07958 0.50836 0.0
C174 C 0.12031 0.07476 0.54382 0.0
C175 C 0.14694 0.09527 0.5207 0.0
C176 C 0.1399 0.12075 0.46356 0.0
C177 C 0.10758 0.12662 0.43113 0.0
C178 C 0.10643 0.15529 0.37062 0.0
C179 C 0.09303 0.14347 0.29412 0.0
C180 C 0.08555 0.1847 0.39204 0.0
C181 C 0.14332 0.16411 0.37222 0.0
C182 C 0.16234 0.14383 0.42572 0.0
C183 C 0.19737 0.1456 0.43286 0.0
C184 C 0.21321 0.16912 0.38491 0.0
C185 C 0.19396 0.19099 0.33213 0.0
C186 C 0.15864 0.1882 0.32556 0.0
H187 H 0.04007 0.89082 0.58687 0.0
H188 H 0.09767 0.98182 0.62142 0.0
H189 H 0.1466 0.94782 0.674 0.0
H190 H 0.07419 0.84521 0.76162 0.0
H191 H 0.07412 0.80531 0.72126 0.0
H192 H 0.04359 0.83688 0.6855 0.0
H193 H 0.0629 0.83368 0.55204 0.0
H194 H 0.09381 0.80246 0.58766 0.0
H195 H 0.10656 0.84055 0.53663 0.0
H196 H 0.1907 0.90449 0.71073 0.0
H197 H 0.22469 0.85379 0.75249 0.0
H198 H 0.13713 0.79101 0.70913 0.0
C199 C 0.06295 0.90343 0.60619 0.0
C200 C 0.06534 0.93877 0.59973 0.0
C201 C 0.09541 0.95467 0.62603 0.0
C202 C 0.12339 0.93563 0.65551 0.0
C203 C 0.12056 0.9008 0.65976 0.0
C204 C 0.09092 0.88477 0.63773 0.0
C205 C 0.09437 0.84697 0.65148 0.0
C206 C 0.07013 0.83276 0.70838 0.0
C207 C 0.0891 0.82993 0.57754 0.0
C208 C 0.13064 0.84439 0.68388 0.0
C209 C 0.14545 0.87573 0.68655 0.0
C210 C 0.17932 0.8798 0.71009 0.0
C211 C 0.19843 0.85098 0.7331 0.0
C212 C 0.18327 0.81884 0.73399 0.0
C213 C 0.14906 0.81547 0.70908 0.0
H214 H 0.34444 0.8028 0.9215 0.0
H215 H 0.30084 0.86519 0.72884 0.0
H216 H 0.33855 0.91187 0.76346 0.0
H217 H 0.35623 0.86733 0.0489 0.0
H218 H 0.39609 0.85141 0.09145 0.0
H219 H 0.36535 0.82305 0.05213 0.0
H220 H 0.40904 0.80229 0.96757 0.0
H221 H 0.43993 0.83056 1.0067 0.0
H222 H 0.42983 0.83238 0.90665 0.0
H223 H 0.37892 0.95271 0.82285 0.0
H224 H 0.4223 0.98334 0.89729 0.0
H225 H 0.44289 0.89307 0.04515 0.0
C226 C 0.34282 0.82633 0.88679 0.0
C227 C 0.31965 0.83049 0.8227 0.0
C228 C 0.31851 0.86146 0.77804 0.0
C229 C 0.33973 0.88815 0.79738 0.0
C230 C 0.3623 0.88328 0.86091 0.0
C231 C 0.36428 0.85303 0.90446 0.0
C232 C 0.39142 0.85409 0.96865 0.0
C233 C 0.37636 0.84865 0.04478 0.0
C234 C 0.4192 0.8283 0.96195 0.0
C235 C 0.4041 0.88977 0.95489 0.0
C236 C 0.38677 0.90627 0.89282 0.0
C237 C 0.39302 0.93989 0.87085 0.0
C238 C 0.41778 0.95704 0.91323 0.0
C239 C 0.43644 0.94035 0.9758 0.0
C240 C 0.42938 0.90631 0.99682 0.0
H241 H 0.42714 0.06142 0.17327 0.0
H242 H 0.43762 0.11194 0.9528 0.0
H243 H 0.40384 0.15928 0.98519 0.0
H244 H 0.34096 0.08553 0.1828 0.0
H245 H 0.34566 0.0907 0.28196 0.0
H246 H 0.37189 0.06129 0.24305 0.0
H247 H 0.42492 0.09095 0.29977 0.0
H248 H 0.39887 0.12069 0.33829 0.0
H249 H 0.43054 0.1354 0.27757 0.0
H250 H 0.37071 0.20099 0.04034 0.0
H251 H 0.33315 0.23292 0.10844 0.0
H252 H 0.34027 0.15517 0.2934 0.0
C253 C 0.42235 0.0825 0.13186 0.0
C254 C 0.43514 0.0831 0.06045 0.0
C255 C 0.42799 0.11088 1.00755 0.0
C256 C 0.40906 0.13798 0.02569 0.0
C257 C 0.3972 0.13677 0.09668 0.0
C258 C 0.40304 0.10961 0.14867 0.0
C259 C 0.38571 0.11411 0.21946 0.0
C260 C 0.3595 0.08626 0.23256 0.0
C261 C 0.41156 0.11536 0.28781 0.0
C262 C 0.36905 0.14807 0.19878 0.0
C263 C 0.37663 0.16066 0.12804 0.0
C264 C 0.36437 0.19131 0.09546 0.0
C265 C 0.3429 0.2092 0.13488 0.0
C266 C 0.33327 0.19638 0.20611 0.0
C267 C 0.34721 0.16568 0.23934 0.0
H268 H 0.95371 0.91572 0.67961 0.0
H269 H 0.89235 0.96324 0.48956 0.0
H270 H 0.84683 0.9222 0.51289 0.0
H271 H 0.9282 0.83025 0.64727 0.0
H272 H 0.9291 0.81705 0.74586 0.0
H273 H 0.95671 0.85008 0.7137 0.0
H274 H 0.93308 0.88976 0.80381 0.0
H275 H 0.90544 0.85687 0.83629 0.0
H276 H 0.88839 0.89704 0.79893 0.0
H277 H 0.80676 0.87834 0.56279 0.0
H278 H 0.77644 0.83272 0.63071 0.0
H279 H 0.8658 0.81151 0.78176 0.0
C280 C 0.93066 0.91751 0.64299 0.0
C281 C 0.92633 0.94273 0.58317 0.0
C282 C 0.89609 0.94402 0.53569 0.0
C283 C 0.87013 0.92089 0.54855 0.0
C284 C 0.87517 0.89635 0.60825 0.0
C285 C 0.90483 0.89429 0.65414 0.0
C286 C 0.90411 0.86535 0.71393 0.0
C287 C 0.93113 0.83913 0.70459 0.0
C288 C 0.90797 0.87802 0.7929 0.0
C289 C 0.86912 0.85184 0.6955 0.0
C290 C 0.85276 0.87012 0.63455 0.0
C291 C 0.8195 0.86349 0.60976 0.0
C292 C 0.80252 0.83752 0.64847 0.0
C293 C 0.81902 0.81831 0.71044 0.0
C294 C 0.85278 0.82546 0.73373 0.0
H295 H 0.89306 0.07041 0.52064 0.0
H296 H 0.99027 0.10094 0.44578 0.0
H297 H 0.96409 0.14864 0.36882 0.0
H298 H 0.84767 0.0888 0.34148 0.0
H299 H 0.8104 0.1042 0.37736 0.0
H300 H 0.83665 0.07364 0.4336 0.0
H301 H 0.84279 0.11335 0.54119 0.0
H302 H 0.81659 0.14406 0.48508 0.0
H303 H 0.85802 0.1556 0.52264 0.0
H304 H 0.92954 0.19157 0.29947 0.0
H305 H 0.886 0.22669 0.22845 0.0
H306 H 0.8086 0.16879 0.33756 0.0
C307 C 0.90865 0.08747 0.48853 0.0
C308 C 0.94365 0.08223 0.48946 0.0
C309 C 0.96339 0.10451 0.44584 0.0
C310 C 0.94883 0.13184 0.40227 0.0
C311 C 0.91439 0.1364 0.40209 0.0
C312 C 0.89428 0.11485 0.44302 0.0
C313 C 0.85747 0.12467 0.42705 0.0
C314 C 0.83683 0.09613 0.39282 0.0
C315 C 0.84286 0.13504 0.49824 0.0
C316 C 0.86035 0.15469 0.37015 0.0
C317 C 0.89362 0.16108 0.35816 0.0
C318 C 0.90334 0.18693 0.30809 0.0
C319 C 0.87835 0.20666 0.26787 0.0
C320 C 0.84397 0.20031 0.27729 0.0
C321 C 0.83474 0.17419 0.32966 0.0
H322 H 0.66729 0.1673 0.23377 0.0
H323 H 0.73672 0.16449 0.06115 0.0
H324 H 0.70354 0.11927 1.0053 0.0
H325 H 0.64605 0.07529 0.248 0.0
H326 H 0.60232 0.08285 0.25853 0.0
H327 H 0.634 0.11157 0.29295 0.0
H328 H 0.60339 0.16099 0.21334 0.0
H329 H 0.57167 0.13246 0.1789 0.0
H330 H 0.59455 0.1585 0.11375 0.0
H331 H 0.66093 0.08023 0.95894 0.0
H332 H 0.6091 0.04986 0.92122 0.0
H333 H 0.5652 0.07592 0.12142 0.0
C334 C 0.67581 0.15646 0.18538 0.0
C335 C 0.70468 0.16917 0.15195 0.0
C336 C 0.71467 0.15513 0.0875 0.0
C337 C 0.69613 0.12926 0.05568 0.0
C338 C 0.66748 0.11767 0.0887 0.0
C339 C 0.65715 0.13071 0.15197 0.0
C340 C 0.62336 0.11589 0.17089 0.0
C341 C 0.62664 0.09516 0.24713 0.0
C342 C 0.59667 0.14361 0.16908 0.0
C343 C 0.616 0.0934 0.10701 0.0
C344 C 0.6422 0.09459 0.06116 0.0
C345 C 0.64052 0.07852 0.99503 0.0
C346 C 0.61099 0.06141 0.974 0.0
C347 C 0.5836 0.06023 0.01902 0.0
C348 C 0.5863 0.07573 0.08732 0.0
H349 H 0.65197 0.84444 0.74 0.0
H350 H 0.73281 0.84072 0.91823 0.0
H351 H 0.70224 0.88015 0.98581 0.0
H352 H 0.63005 0.93468 0.74978 0.0
H353 H 0.5856 0.92698 0.73262 0.0
H354 H 0.61542 0.90121 0.69357 0.0
H355 H 0.58887 0.84798 0.75721 0.0
H356 H 0.55932 0.87362 0.79722 0.0
H357 H 0.58605 0.84474 0.85724 0.0
H358 H 0.66138 0.91531 0.04066 0.0
H359 H 0.61356 0.94793 0.07497 0.0
H360 H 0.55859 0.9297 0.86254 0.0
C361 C 0.66353 0.85278 0.7921 0.0
C362 C 0.69478 0.83965 0.82377 0.0
C363 C 0.70884 0.85044 0.89303 0.0
C364 C 0.69171 0.87286 0.93193 0.0
C365 C 0.66046 0.88446 0.90092 0.0
C366 C 0.64654 0.87521 0.83226 0.0
C367 C 0.61169 0.89019 0.8141 0.0
C368 C 0.61064 0.91473 0.74332 0.0
C369 C 0.58491 0.86248 0.80599 0.0
C370 C 0.60819 0.90861 0.88378 0.0
C371 C 0.63666 0.90501 0.93297 0.0
C372 C 0.63902 0.91868 1.00228 0.0
C373 C 0.61164 0.93698 0.02154 0.0
C374 C 0.58232 0.94146 0.97161 0.0
C375 C 0.5807 0.92694 0.90192 0.0
H376 H 0.54897 0.60031 0.85982 0.0
H377 H 0.61893 0.55042 0.03089 0.0
H378 H 0.66365 0.59019 0.99462 0.0
H379 H 0.60639 0.619 0.72069 0.0
H380 H 0.58919 0.65995 0.69043 0.0
H381 H 0.56268 0.62752 0.7295 0.0
H382 H 0.54675 0.66661 0.82926 0.0
H383 H 0.57317 0.69923 0.7904 0.0
H384 H 0.57956 0.68494 0.88843 0.0
H385 H 0.70153 0.63179 0.93283 0.0
H386 H 0.72918 0.67711 0.859 0.0
H387 H 0.63338 0.70444 0.73747 0.0
C388 C 0.57374 0.59787 0.88949 0.0
C389 C 0.58077 0.57232 0.94769 0.0
C390 C 0.61319 0.56998 0.98623 0.0
C391 C 0.6387 0.59233 0.9659 0.0
C392 C 0.63106 0.6172 0.90805 0.0
C393 C 0.59927 0.6205 0.87118 0.0
C394 C 0.59756 0.65006 0.81241 0.0
C395 C 0.58842 0.63842 0.7336 0.0
C396 C 0.57279 0.67679 0.83128 0.0
C397 C 0.63354 0.66246 0.82111 0.0
C398 C 0.65246 0.64288 0.87608 0.0
C399 C 0.68684 0.64787 0.89104 0.0
C400 C 0.70227 0.67382 0.84918 0.0
C401 C 0.68317 0.69501 0.79462 0.0
C402 C 0.64839 0.68913 0.78024 0.0
H403 H 0.64762 0.28786 0.17096 0.0
H404 H 0.73688 0.3507 0.17943 0.0
H405 H 0.70234 0.40026 0.13247 0.0
H406 H 0.60957 0.32925 0.99664 0.0
H407 H 0.56731 0.32469 0.02439 0.0
H408 H 0.59898 0.29437 0.06071 0.0
H409 H 0.58693 0.3052 0.19629 0.0
H410 H 0.55546 0.33581 0.16036 0.0
H411 H 0.58976 0.34741 0.22521 0.0
H412 H 0.65782 0.44338 0.09351 0.0
H413 H 0.60719 0.47621 0.045 0.0
H414 H 0.54771 0.38473 0.04951 0.0
C415 C 0.65977 0.31209 0.16256 0.0
C416 C 0.69471 0.31571 0.17913 0.0
C417 C 0.71006 0.34755 0.16682 0.0
C418 C 0.69066 0.37582 0.14067 0.0
C419 C 0.65615 0.37159 0.12576 0.0
C420 C 0.64089 0.34045 0.13463 0.0
C421 C 0.60359 0.3426 0.1109 0.0
C422 C 0.59433 0.32148 0.04418 0.0
C423 C 0.58271 0.33213 0.17715 0.0
C424 C 0.60026 0.37985 0.08799 0.0
C425 C 0.63078 0.39618 0.09837 0.0
C426 C 0.63384 0.43086 0.08419 0.0
C427 C 0.60501 0.44928 0.05713 0.0
C428 C 0.57388 0.43278 0.04315 0.0
C429 C 0.57143 0.39773 0.05914 0.0
H430 H 0.91725 0.45853 0.41125 0.0
H431 H 0.98992 0.38447 0.51266 0.0
H432 H 0.95933 0.34038 0.4463 0.0
H433 H 0.8463 0.40766 0.42868 0.0
H434 H 0.82411 0.42247 0.34062 0.0
H435 H 0.85399 0.44943 0.38737 0.0
H436 H 0.88655 0.45689 0.26836 0.0
H437 H 0.85667 0.42996 0.22104 0.0
H438 H 0.90092 0.42031 0.2279 0.0
H439 H 0.91863 0.30358 0.38342 0.0
H440 H 0.86912 0.27518 0.32596 0.0
H441 H 0.82143 0.37158 0.26127 0.0
C442 C 0.92698 0.43312 0.41805 0.0
C443 C 0.95595 0.42479 0.46693 0.0
C444 C 0.96774 0.39129 0.4756 0.0
C445 C 0.95065 0.36612 0.43782 0.0
C446 C 0.9218 0.37486 0.39135 0.0
C447 C 0.90998 0.40749 0.38089 0.0
C448 C 0.87677 0.40926 0.3324 0.0
C449 C 0.84864 0.42301 0.37483 0.0
C450 C 0.88046 0.43036 0.258 0.0
C451 C 0.87124 0.37235 0.31981 0.0
C452 C 0.89792 0.35319 0.35368 0.0
C453 C 0.89789 0.3183 0.35544 0.0
C454 C 0.86967 0.3024 0.32285 0.0
C455 C 0.84188 0.32127 0.28853 0.0
C456 C 0.84281 0.35675 0.28566 0.0
H457 H 0.84464 0.66712 0.76922 0.0
H458 H 0.77233 0.68198 0.57447 0.0
H459 H 0.80149 0.6401 0.5112 0.0
H460 H 0.91576 0.6597 0.66683 0.0
H461 H 0.93638 0.62756 0.73054 0.0
H462 H 0.90827 0.65663 0.76478 0.0
H463 H 0.87306 0.60688 0.81844 0.0
H464 H 0.90122 0.57766 0.7846 0.0
H465 H 0.85675 0.5758 0.75739 0.0
H466 H 0.84015 0.60013 0.46386 0.0
H467 H 0.8861 0.56295 0.43743 0.0
H468 H 0.93374 0.57306 0.66135 0.0
C469 C 0.83467 0.661 0.71396 0.0
C470 C 0.80626 0.67792 0.67688 0.0
C471 C 0.79424 0.66961 0.60394 0.0
C472 C 0.81052 0.6457 0.56742 0.0
C473 C 0.83887 0.63006 0.60434 0.0
C474 C 0.85088 0.63713 0.67606 0.0
C475 C 0.883 0.61778 0.70081 0.0
C476 C 0.9126 0.64186 0.71665 0.0
C477 C 0.87821 0.59306 0.76938 0.0
C478 C 0.88719 0.59932 0.63149 0.0
C479 C 0.86136 0.60668 0.5767 0.0
C480 C 0.8604 0.59382 0.50658 0.0
C481 C 0.88664 0.5728 0.49195 0.0
C482 C 0.91343 0.56487 0.54724 0.0
C483 C 0.91345 0.57826 0.61801 0.0
H484 H 0.36931 0.31264 0.29262 0.0
H485 H 0.27478 0.33397 0.16016 0.0
H486 H 0.3038 0.37429 0.07515 0.0
H487 H 0.39798 0.39715 0.28506 0.0
H488 H 0.44153 0.38636 0.2814 0.0
H489 H 0.41374 0.35718 0.32716 0.0
H490 H 0.4292 0.31135 0.24162 0.0
H491 H 0.45699 0.34045 0.19539 0.0
H492 H 0.42393 0.31997 0.14116 0.0
H493 H 0.3436 0.41265 1.00556 0.0
H494 H 0.38969 0.44974 0.96397 0.0
H495 H 0.45659 0.40561 0.14849 0.0
C496 C 0.35478 0.3256 0.24535 0.0
C497 C 0.32001 0.31982 0.23175 0.0
C498 C 0.30163 0.33763 0.17034 0.0
C499 C 0.31787 0.36057 0.12198 0.0
C500 C 0.35231 0.36564 0.1368 0.0
C501 C 0.37044 0.34892 0.19755 0.0
C502 C 0.40667 0.36039 0.2043 0.0
C503 C 0.41548 0.37622 0.27889 0.0
C504 C 0.4306 0.33131 0.19504 0.0
C505 C 0.40608 0.38642 0.13825 0.0
C506 C 0.3747 0.38875 0.09917 0.0
C507 C 0.36826 0.41109 0.03577 0.0
C508 C 0.39454 0.43192 1.01245 0.0
C509 C 0.42648 0.43052 0.05338 0.0
C510 C 0.43229 0.40732 0.11657 0.0
H511 H 0.46341 0.61493 0.955 0.0
H512 H 0.40347 0.52381 0.96697 0.0
H513 H 0.35273 0.55647 0.91862 0.0
H514 H 0.40136 0.6722 1.00477 0.0
H515 H 0.41244 0.70584 0.93811 0.0
H516 H 0.44376 0.6757 0.97747 0.0
H517 H 0.45604 0.66186 0.84386 0.0
H518 H 0.42498 0.69215 0.80413 0.0
H519 H 0.42194 0.64927 0.77957 0.0
H520 H 0.30829 0.59944 0.87494 0.0
H521 H 0.27448 0.64841 0.81945 0.0
H522 H 0.36437 0.71027 0.82388 0.0
C523 C 0.43952 0.60202 0.94744 0.0
C524 C 0.43702 0.56711 0.96502 0.0
C525 C 0.40568 0.55066 0.95355 0.0
C526 C 0.37677 0.56899 0.92669 0.0
C527 C 0.37993 0.60352 0.91035 0.0
C528 C 0.4106 0.61979 0.91878 0.0
C529 C 0.40749 0.65669 0.89228 0.0
C530 C 0.41681 0.67891 0.95703 0.0
C531 C 0.42887 0.6655 0.82601 0.0
C532 C 0.37028 0.65861 0.86785 0.0
C533 C 0.35471 0.62783 0.88024 0.0
C534 C 0.32022 0.6236 0.86425 0.0
C535 C 0.30124 0.65148 0.83316 0.0
C536 C 0.31707 0.68274 0.81706 0.0
C537 C 0.35188 0.68641 0.83517 0.0
H538 H 0.1847 0.63758 0.7409 0.0
H539 H 0.14275 0.7354 0.66452 0.0
H540 H 0.0906 0.70866 0.61474 0.0
H541 H 0.15534 0.59903 0.57978 0.0
H542 H 0.14614 0.55866 0.62623 0.0
H543 H 0.17804 0.58511 0.66789 0.0
H544 H 0.14743 0.58273 0.78989 0.0
H545 H 0.11552 0.55608 0.74842 0.0
H546 H 0.10377 0.59462 0.78504 0.0
H547 H 0.04584 0.6726 0.56351 0.0
H548 H 0.01143 0.62859 0.5058 0.0
H549 H 0.08206 0.55267 0.60778 0.0
C550 C 0.16405 0.65316 0.71547 0.0
C551 C 0.16719 0.68852 0.70754 0.0
C552 C 0.14039 0.70831 0.67176 0.0
C553 C 0.1107 0.69335 0.64361 0.0
C554 C 0.10836 0.65846 0.65088 0.0
C555 C 0.13425 0.63845 0.68546 0.0
C556 C 0.12641 0.60149 0.67773 0.0
C557 C 0.15307 0.58513 0.63537 0.0
C558 C 0.12308 0.58262 0.75487 0.0
C559 C 0.09266 0.6041 0.63161 0.0
C560 C 0.08256 0.63723 0.61829 0.0
C561 C 0.05324 0.64651 0.57408 0.0
C562 C 0.03394 0.62135 0.54134 0.0
C563 C 0.04411 0.58733 0.55237 0.0
C564 C 0.07355 0.57849 0.59919 0.0
H565 H 0.15761 0.34391 0.2555 0.0
H566 H 0.2227 0.32436 0.461 0.0
H567 H 0.19148 0.36527 0.52209 0.0
H568 H 0.14634 0.43438 0.27283 0.0
H569 H 0.10262 0.43431 0.23801 0.0
H570 H 0.13127 0.40477 0.20697 0.0
H571 H 0.09294 0.35552 0.25034 0.0
H572 H 0.06425 0.38492 0.28154 0.0
H573 H 0.08191 0.35139 0.34597 0.0
H574 H 0.15284 0.40574 0.56453 0.0
H575 H 0.10749 0.44424 0.58611 0.0
H576 H 0.06582 0.4387 0.35564 0.0
C577 C 0.16543 0.34864 0.31295 0.0
C578 C 0.19254 0.33076 0.35336 0.0
C579 C 0.20182 0.33738 0.42885 0.0
C580 C 0.18436 0.36077 0.46423 0.0
C581 C 0.15751 0.37754 0.42371 0.0
C582 C 0.14792 0.37194 0.34985 0.0
C583 C 0.11699 0.39261 0.32117 0.0
C584 C 0.12478 0.41803 0.25587 0.0
C585 C 0.08727 0.36974 0.29843 0.0
C586 C 0.1108 0.41021 0.3907 0.0
C587 C 0.13468 0.40119 0.44886 0.0
C588 C 0.13403 0.41324 0.51937 0.0
C589 C 0.10809 0.43507 0.53111 0.0
C590 C 0.08308 0.44463 0.4727 0.0
C591 C 0.08468 0.43212 0.40138 0.0
H592 H 0.04045 0.98836 0.89546 0.0
H593 H 0.99415 0.0858 0.8341 0.0
H594 H 0.98376 0.09078 0.96621 0.0
H595 H 0.98606 0.95921 0.02766 0.0
H596 H 0.01759 0.93879 0.09345 0.0
H597 H 0.02405 0.94368 0.99515 0.0
H598 H 0.0804 0.97469 0.0242 0.0
H599 H 0.07449 0.96928 0.12284 0.0
H600 H 0.08115 0.01072 0.07868 0.0
H601 H 0.97165 0.08179 0.0999 0.0
H602 H 0.96748 0.06393 0.23388 0.0
H603 H 0.02547 0.97449 0.21088 0.0
C604 C 0.02883 0.01103 0.91035 0.0
C605 C 0.018 0.03667 0.85521 0.0
C606 C 1.00275 0.06598 0.87602 0.0
C607 C 0.99659 0.06895 0.95067 0.0
C608 C 0.00648 0.04269 1.00351 0.0
C609 C 0.02307 0.01469 0.98485 0.0
C610 C 0.0308 0.99001 0.05255 0.0
C611 C 0.01359 0.95592 0.0415 0.0
C612 C 0.06898 0.98595 0.07064 0.0
C613 C 0.01516 0.00815 0.11162 0.0
C614 C 1.00095 0.03831 0.08189 0.0
C615 C 0.9832 0.05855 0.12432 0.0
C616 C 0.98068 0.04808 0.19989 0.0
C617 C 0.99629 0.018 0.2319 0.0
C618 C 0.01358 0.99773 0.18733 0.0
H619 H 0.22074 0.77479 0.41907 0.0
H620 H 0.32147 0.73623 0.48154 0.0
H621 H 0.32635 0.72294 0.35141 0.0
H622 H 0.1953 0.71466 0.28895 0.0
H623 H 0.17256 0.74415 0.22213 0.0
H624 H 0.17672 0.75149 0.32017 0.0
H625 H 0.20301 0.81001 0.28888 0.0
H626 H 0.19847 0.80304 0.19064 0.0
H627 H 0.23912 0.81325 0.23485 0.0
H628 H 0.31966 0.711 0.21766 0.0
H629 H 0.30427 0.70739 0.08248 0.0
H630 H 0.20881 0.75554 0.10328 0.0
C631 C 0.24391 0.76394 0.40491 0.0
C632 C 0.27072 0.75647 0.46017 0.0
C633 C 0.30066 0.7422 0.43992 0.0
C634 C 0.30363 0.7344 0.36627 0.0
C635 C 0.27655 0.74132 0.31336 0.0
C636 C 0.24747 0.75628 0.33113 0.0
C637 C 0.22248 0.76156 0.26272 0.0
C638 C 0.18984 0.74178 0.27421 0.0
C639 C 0.21536 0.7992 0.24311 0.0
C640 C 0.24203 0.74698 0.20418 0.0
C641 C 0.27302 0.73518 0.23499 0.0
C642 C 0.29555 0.72031 0.19263 0.0
C643 C 0.28652 0.71821 0.11608 0.0
C644 C 0.25541 0.73115 0.08277 0.0
C645 C 0.23272 0.74534 0.12758 0.0
H646 H 0.48829 0.05023 0.65751 0.0
H647 H 0.46586 0.94628 0.72666 0.0
H648 H 0.47343 0.93048 0.59943 0.0
H649 H 0.44662 0.04924 0.46346 0.0
H650 H 0.47804 0.0763 0.42389 0.0
H651 H 0.46787 0.08001 0.51874 0.0
H652 H 0.53076 0.07153 0.56504 0.0
H653 H 0.54099 0.06702 0.47062 0.0
H654 H 0.55217 0.03435 0.54365 0.0
H655 H 0.48894 0.92461 0.47066 0.0
H656 H 0.50392 0.93017 0.33985 0.0
H657 H 0.51503 0.038 0.35029 0.0
C658 C 0.48406 0.02436 0.64508 0.0
C659 C 0.47644 0.99945 0.7017 0.0
C660 C 0.47162 0.96575 0.68394 0.0
C661 C 0.476 0.95649 0.61196 0.0
C662 C 0.48486 0.98131 0.55814 0.0
C663 C 0.48814 0.01467 0.573 0.0
C664 C 0.49853 0.03606 0.50489 0.0
C665 C 0.47113 0.06193 0.47604 0.0
C666 C 0.53264 0.05325 0.52212 0.0
C667 C 0.50124 0.00933 0.45033 0.0
C668 C 0.49335 0.97794 0.48255 0.0
C669 C 0.4948 0.94908 0.44439 0.0
C670 C 0.50358 0.95247 0.37035 0.0
C671 C 0.51064 0.98447 0.33518 0.0
C672 C 0.50989 0.01321 0.37604 0.0
H673 H 0.27484 0.2948 0.9386 0.0
H674 H 0.1898 0.22785 0.96668 0.0
H675 H 0.19271 0.21107 0.83837 0.0
H676 H 0.24976 0.32201 0.7405 0.0
H677 H 0.29244 0.3244 0.71482 0.0
H678 H 0.28348 0.33163 0.80887 0.0
H679 H 0.32596 0.28509 0.86116 0.0
H680 H 0.33466 0.27735 0.76724 0.0
H681 H 0.32085 0.24341 0.82992 0.0
H682 H 0.2068 0.19836 0.71094 0.0
H683 H 0.22592 0.19654 0.58436 0.0
H684 H 0.29987 0.27397 0.63195 0.0
C685 C 0.25656 0.277 0.91716 0.0
C686 C 0.23203 0.26264 0.96286 0.0
C687 C 0.20867 0.23933 0.93285 0.0
C688 C 0.21025 0.22945 0.86005 0.0
C689 C 0.23509 0.2434 0.81705 0.0
C690 C 0.25741 0.26721 0.84363 0.0
C691 C 0.28106 0.27875 0.78437 0.0
C692 C 0.2764 0.31644 0.76074 0.0
C693 C 0.31781 0.27066 0.81237 0.0
C694 C 0.26876 0.25739 0.72099 0.0
C695 C 0.24246 0.23693 0.74171 0.0
C696 C 0.22718 0.21447 0.69382 0.0
C697 C 0.23839 0.21346 0.62208 0.0
C698 C 0.26442 0.23503 0.59812 0.0
C699 C 0.28003 0.25705 0.64876 0.0
H700 H 0.73484 0.28341 0.86988 0.0
H701 H 0.83436 0.24143 0.9311 0.0
H702 H 0.83753 0.22615 0.80211 0.0
H703 H 0.70582 0.22325 0.74282 0.0
H704 H 0.68425 0.25304 0.67472 0.0
H705 H 0.68927 0.26149 0.77211 0.0
H706 H 0.71825 0.31826 0.73728 0.0
H707 H 0.71283 0.31023 0.63968 0.0
H708 H 0.75414 0.31894 0.68261 0.0
H709 H 0.82882 0.21129 0.67093 0.0
H710 H 0.81257 0.20626 0.5367 0.0
H711 H 0.72059 0.26119 0.55426 0.0
C712 C 0.75742 0.27145 0.8556 0.0
C713 C 0.7843 0.2635 0.91054 0.0
C714 C 0.81346 0.24782 0.88996 0.0
C715 C 0.81546 0.23881 0.81689 0.0
C716 C 0.78831 0.24612 0.76449 0.0
C717 C 0.76015 0.26278 0.78202 0.0
C718 C 0.73512 0.26844 0.71361 0.0
C719 C 0.70163 0.25048 0.72663 0.0
C720 C 0.72978 0.30622 0.69202 0.0
C721 C 0.75357 0.25205 0.65558 0.0
C722 C 0.78397 0.23891 0.68677 0.0
C723 C 0.80524 0.22176 0.64549 0.0
C724 C 0.79569 0.21881 0.56947 0.0
C725 C 0.76541 0.23335 0.53536 0.0
C726 C 0.74389 0.24985 0.57916 0.0
H727 H 0.77934 0.78459 0.41662 0.0
H728 H 0.67511 0.75404 0.42687 0.0
H729 H 0.67308 0.73895 0.29617 0.0
H730 H 0.76913 0.82117 0.22095 0.0
H731 H 0.80987 0.80741 0.1996 0.0
H732 H 0.80313 0.81645 0.29387 0.0
H733 H 0.82406 0.75679 0.34257 0.0
H734 H 0.83037 0.74737 0.24831 0.0
H735 H 0.80389 0.72066 0.30422 0.0
H736 H 0.68281 0.72365 0.1684 0.0
H737 H 0.70109 0.71626 0.04339 0.0
H738 H 0.79847 0.75914 0.1088 0.0
C739 C 0.75598 0.77521 0.39081 0.0
C740 C 0.7273 0.77055 0.4321 0.0
C741 C 0.6973 0.75801 0.39648 0.0
C742 C 0.69596 0.74915 0.32229 0.0
C743 C 0.72476 0.75326 0.28372 0.0
C744 C 0.75405 0.76658 0.31594 0.0
C745 C 0.78109 0.76889 0.26071 0.0
C746 C 0.79141 0.80567 0.24271 0.0
C747 C 0.81166 0.74713 0.29077 0.0
C748 C 0.76242 0.75455 0.19282 0.0
C749 C 0.73009 0.74537 0.20812 0.0
C750 C 0.70796 0.73102 0.15552 0.0
C751 C 0.7187 0.72676 0.08462 0.0
C752 C 0.75121 0.7371 0.066 0.0
C753 C 0.77354 0.75081 0.1214 0.0
H754 H 0.48717 0.53391 0.65354 0.0
H755 H 0.50645 0.42758 0.70997 0.0
H756 H 0.51775 0.42089 0.57943 0.0
H757 H 0.44504 0.52404 0.46711 0.0
H758 H 0.46266 0.56218 0.42572 0.0
H759 H 0.45535 0.55859 0.52369 0.0
H760 H 0.5179 0.57315 0.55771 0.0
H761 H 0.52552 0.57628 0.45991 0.0
H762 H 0.55036 0.54808 0.52581 0.0
H763 H 0.53024 0.42581 0.44682 0.0
H764 H 0.53635 0.44069 0.31275 0.0
H765 H 0.50691 0.54332 0.33806 0.0
C766 C 0.49332 0.5092 0.63791 0.0
C767 C 0.496 0.48125 0.69159 0.0
C768 C 0.50423 0.44929 0.66955 0.0
C769 C 0.51085 0.44525 0.59567 0.0
C770 C 0.50885 0.47336 0.54442 0.0
C771 C 0.49973 0.50461 0.56388 0.0
C772 C 0.49904 0.53044 0.49695 0.0
C773 C 0.4634 0.54464 0.4772 0.0
C774 C 0.52474 0.55865 0.51096 0.0
C775 C 0.50939 0.50877 0.43729 0.0
C776 C 0.51525 0.47602 0.4664 0.0
C777 C 0.52552 0.4513 0.42305 0.0
C778 C 0.5291 0.46004 0.34715 0.0
C779 C 0.52209 0.4931 0.3154 0.0
C780 C 0.5125 0.51788 0.3612 0.0
H781 H 0.97954 0.46869 0.85521 0.0
H782 H 0.05775 0.54226 0.81234 0.0
H783 H 0.05821 0.5582 0.94217 0.0
H784 H 0.93418 0.51696 0.97147 0.0
H785 H 0.9243 0.48198 0.03599 0.0
H786 H 0.9304 0.47522 0.94008 0.0
H787 H 0.97665 0.43116 0.98475 0.0
H788 H 0.97031 0.43742 0.08078 0.0
H789 H 0.01164 0.44255 0.04807 0.0
H790 H 0.04839 0.56846 0.07208 0.0
H791 H 0.03363 0.56831 0.20225 0.0
H792 H 0.96286 0.48684 0.1656 0.0
C793 C 0.99703 0.48781 0.87369 0.0
C794 C 0.01868 0.50426 0.8241 0.0
C795 C 0.04112 0.52928 0.84972 0.0
C796 C 0.04142 0.53863 0.92316 0.0
C797 C 0.01929 0.52251 0.97025 0.0
C798 C 0.99786 0.49729 0.94726 0.0
C799 C 0.97691 0.48394 1.00996 0.0
C800 C 0.93921 0.48989 0.98804 0.0
C801 C 0.98434 0.44655 0.03221 0.0
C802 C 0.98991 0.50574 0.07154 0.0
C803 C 0.01409 0.52799 0.04678 0.0
C804 C 0.02967 0.55104 0.09242 0.0
C805 C 0.02098 0.55083 0.16617 0.0
C806 C 0.99715 0.52755 0.19384 0.0
C807 C 0.98106 0.50498 0.14564 0.0
loop_
_geom_bond_atom_site_label_1
_geom_bond_atom_site_label_2
_geom_bond_distance
_geom_bond_site_symmetry_2
_ccdc_geom_bond_type
Dy0 O4 2.398 1_655 S
Dy0 O5 2.491 1_565 S
Dy0 O6 2.403 1_655 S
Dy0 O7 2.664 1_655 S
Dy0 O11 2.326 1_665 S
Dy0 O15 2.310 1_565 S
Dy0 O16 2.351 . S
C1 O12 1.176 1_565 S
C1 O13 1.363 1_655 S
C2 O4 1.164 1_545 S
C2 O5 1.373 1_455 S
Dy3 O7 2.310 1_545 S
Dy3 O10 2.351 . S
Dy3 O12 2.398 1_455 S
Dy3 O13 2.491 1_545 S
Dy3 O14 2.403 1_455 S
Dy3 O15 2.664 1_455 S
Dy3 O17 2.326 1_445 S
O4 Dy0 2.398 1_455 S
O4 C2 1.164 1_565 S
O5 Dy0 2.491 1_545 S
O5 C2 1.373 1_655 S
O6 Dy0 2.403 1_455 S
O6 C8 1.254 . S
O7 Dy0 2.664 1_455 S
O7 Dy3 2.310 1_565 S
O7 C8 1.268 . S
C8 O6 1.254 . S
C8 O7 1.268 . S
C9 O14 1.254 . S
C9 O15 1.268 . S
O10 Dy3 2.351 . S
O10 C18 1.249 . S
O11 Dy0 2.326 1_445 S
O11 C18 1.267 . S
O12 C1 1.176 1_545 S
O12 Dy3 2.398 1_655 S
O13 C1 1.363 1_455 S
O13 Dy3 2.491 1_565 S
O14 Dy3 2.403 1_655 S
O14 C9 1.254 . S
O15 Dy0 2.310 1_545 S
O15 Dy3 2.664 1_655 S
O15 C9 1.268 . S
O16 Dy0 2.351 . S
O16 C19 1.249 . S
O17 Dy3 2.326 1_665 S
O17 C19 1.267 . S
C18 O10 1.249 . S
C18 O11 1.267 . S
C19 O16 1.249 . S
C19 O17 1.267 . S
Dy20 O24 2.398 . S
Dy20 O25 2.491 . S
Dy20 O26 2.403 . S
Dy20 O27 2.664 . S
Dy20 O31 2.326 . S
Dy20 O35 2.310 . S
Dy20 O36 2.351 . S
C21 O32 1.185 . S
C21 O33 1.355 . S
C22 O24 1.185 . S
C22 O25 1.355 . S
Dy23 O27 2.310 . S
Dy23 O30 2.351 . S
Dy23 O32 2.398 . S
Dy23 O33 2.491 . S
Dy23 O34 2.403 . S
Dy23 O35 2.664 . S
Dy23 O37 2.326 . S
O24 Dy20 2.398 . S
O24 C22 1.185 . S
O25 Dy20 2.491 . S
O25 C22 1.355 . S
O26 Dy20 2.403 . S
O26 C28 1.254 . S
O27 Dy20 2.664 . S
O27 Dy23 2.310 . S
O27 C28 1.268 . S
C28 O26 1.254 . S
C28 O27 1.268 . S
C29 O34 1.254 . S
C29 O35 1.268 . S
O30 Dy23 2.351 . S
O30 C38 1.249 . S
O31 Dy20 2.326 . S
O31 C38 1.267 . S
O32 C21 1.185 . S
O32 Dy23 2.398 . S
O33 C21 1.355 . S
O33 Dy23 2.491 . S
O34 Dy23 2.403 . S
O34 C29 1.254 . S
O35 Dy20 2.310 . S
O35 Dy23 2.664 . S
O35 C29 1.268 . S
O36 Dy20 2.351 . S
O36 C39 1.249 . S
O37 Dy23 2.326 . S
O37 C39 1.267 . S
C38 O30 1.249 . S
C38 O31 1.267 . S
C39 O36 1.249 . S
C39 O37 1.267 . S
Dy40 O44 2.398 . S
Dy40 O45 2.491 1_565 S
Dy40 O46 2.403 . S
Dy40 O47 2.664 1_554 S
Dy40 O51 2.326 1_565 S
Dy40 O55 2.310 1_565 S
Dy40 O56 2.351 . S
C41 O52 1.185 . S
C41 O53 1.355 1_545 S
C42 O44 1.185 . S
C42 O45 1.355 1_565 S
Dy43 O47 2.310 1_545 S
Dy43 O50 2.351 . S
Dy43 O52 2.398 . S
Dy43 O53 2.491 1_545 S
Dy43 O54 2.403 . S
Dy43 O55 2.664 1_556 S
Dy43 O57 2.326 1_545 S
O44 Dy40 2.398 . S
O44 C42 1.185 . S
O45 Dy40 2.491 1_545 S
O45 C42 1.355 1_545 S
O46 Dy40 2.403 . S
O46 C48 1.254 1_554 S
O47 Dy40 2.664 1_556 S
O47 Dy43 2.310 1_565 S
O47 C48 1.268 . S
C48 O46 1.254 1_556 S
C48 O47 1.268 . S
C49 O54 1.254 1_554 S
C49 O55 1.268 . S
O50 Dy43 2.351 . S
O50 C58 1.249 1_556 S
O51 Dy40 2.326 1_545 S
O51 C58 1.267 . S
O52 C41 1.185 . S
O52 Dy43 2.398 . S
O53 C41 1.355 1_565 S
O53 Dy43 2.491 1_565 S
O54 Dy43 2.403 . S
O54 C49 1.254 1_556 S
O55 Dy40 2.310 1_545 S
O55 Dy43 2.664 1_554 S
O55 C49 1.268 . S
O56 Dy40 2.351 . S
O56 C59 1.249 1_554 S
O57 Dy43 2.326 1_565 S
O57 C59 1.267 . S
C58 O50 1.249 1_554 S
C58 O51 1.267 . S
C59 O56 1.249 1_556 S
C59 O57 1.267 . S
Dy60 O64 2.398 . S
Dy60 O65 2.491 . S
Dy60 O66 2.403 . S
Dy60 O67 2.664 . S
Dy60 O71 2.326 . S
Dy60 O75 2.310 . S
Dy60 O76 2.351 . S
C61 O72 1.185 . S
C61 O73 1.355 . S
C62 O64 1.185 . S
C62 O65 1.355 . S
Dy63 O67 2.310 . S
Dy63 O70 2.351 . S
Dy63 O72 2.398 . S
Dy63 O73 2.491 . S
Dy63 O74 2.403 . S
Dy63 O75 2.664 . S
Dy63 O77 2.326 . S
O64 Dy60 2.398 . S
O64 C62 1.185 . S
O65 Dy60 2.491 . S
O65 C62 1.355 . S
O66 Dy60 2.403 . S
O66 C68 1.254 . S
O67 Dy60 2.664 . S
O67 Dy63 2.310 . S
O67 C68 1.268 . S
C68 O66 1.254 . S
C68 O67 1.268 . S
C69 O74 1.254 . S
C69 O75 1.268 . S
O70 Dy63 2.351 . S
O70 C78 1.249 . S
O71 Dy60 2.326 . S
O71 C78 1.267 . S
O72 C61 1.185 . S
O72 Dy63 2.398 . S
O73 C61 1.355 . S
O73 Dy63 2.491 . S
O74 Dy63 2.403 . S
O74 C69 1.254 . S
O75 Dy60 2.310 . S
O75 Dy63 2.664 . S
O75 C69 1.268 . S
O76 Dy60 2.351 . S
O76 C79 1.249 . S
O77 Dy63 2.326 . S
O77 C79 1.267 . S
C78 O70 1.249 . S
C78 O71 1.267 . S
C79 O76 1.249 . S
C79 O77 1.267 . S
Dy80 O84 2.398 . S
Dy80 O85 2.491 . S
Dy80 O86 2.403 . S
Dy80 O87 2.664 . S
Dy80 O91 2.326 . S
Dy80 O95 2.310 . S
Dy80 O96 2.351 . S
C81 O92 1.185 . S
C81 O93 1.355 . S
C82 O84 1.185 . S
C82 O85 1.355 . S
Dy83 O87 2.310 . S
Dy83 O90 2.351 . S
Dy83 O92 2.398 . S
Dy83 O93 2.491 . S
Dy83 O94 2.403 . S
Dy83 O95 2.664 . S
Dy83 O97 2.326 . S
O84 Dy80 2.398 . S
O84 C82 1.185 . S
O85 Dy80 2.491 . S
O85 C82 1.355 . S
O86 Dy80 2.403 . S
O86 C88 1.254 . S
O87 Dy80 2.664 . S
O87 Dy83 2.310 . S
O87 C88 1.268 . S
C88 O86 1.254 . S
C88 O87 1.268 . S
C89 O94 1.254 . S
C89 O95 1.268 . S
O90 Dy83 2.351 . S
O90 C98 1.249 . S
O91 Dy80 2.326 . S
O91 C98 1.267 . S
O92 C81 1.185 . S
O92 Dy83 2.398 . S
O93 C81 1.355 . S
O93 Dy83 2.491 . S
O94 Dy83 2.403 . S
O94 C89 1.254 . S
O95 Dy80 2.310 . S
O95 Dy83 2.664 . S
O95 C89 1.268 . S
O96 Dy80 2.351 . S
O96 C99 1.249 . S
O97 Dy83 2.326 . S
O97 C99 1.267 . S
C98 O90 1.249 . S
C98 O91 1.267 . S
C99 O96 1.249 . S
C99 O97 1.267 . S
Dy100 O104 2.398 . S
Dy100 O105 2.491 . S
Dy100 O106 2.403 . S
Dy100 O107 2.664 . S
Dy100 O111 2.326 . S
Dy100 O115 2.310 . S
Dy100 O116 2.351 . S
C101 O112 1.185 . S
C101 O113 1.355 . S
C102 O104 1.185 . S
C102 O105 1.355 . S
Dy103 O107 2.310 . S
Dy103 O110 2.351 . S
Dy103 O112 2.398 . S
Dy103 O113 2.491 . S
Dy103 O114 2.403 . S
Dy103 O115 2.664 . S
Dy103 O117 2.326 . S
O104 Dy100 2.398 . S
O104 C102 1.185 . S
O105 Dy100 2.491 . S
O105 C102 1.355 . S
O106 Dy100 2.403 . S
O106 C108 1.254 . S
O107 Dy100 2.664 . S
O107 Dy103 2.310 . S
O107 C108 1.268 . S
C108 O106 1.254 . S
C108 O107 1.268 . S
C109 O114 1.254 . S
C109 O115 1.268 . S
O110 Dy103 2.351 . S
O110 C118 1.249 . S
O111 Dy100 2.326 . S
O111 C118 1.267 . S
O112 C101 1.185 . S
O112 Dy103 2.398 . S
O113 C101 1.355 . S
O113 Dy103 2.491 . S
O114 Dy103 2.403 . S
O114 C109 1.254 . S
O115 Dy100 2.310 . S
O115 Dy103 2.664 . S
O115 C109 1.268 . S
O116 Dy100 2.351 . S
O116 C119 1.249 . S
O117 Dy103 2.326 . S
O117 C119 1.267 . S
C118 O110 1.249 . S
C118 O111 1.267 . S
C119 O116 1.249 . S
C119 O117 1.267 . S
Dy120 O124 2.398 . S
Dy120 O125 2.491 . S
Dy120 O126 2.403 . S
Dy120 O127 2.664 1_556 S
Dy120 O131 2.326 . S
Dy120 O135 2.310 . S
Dy120 O136 2.351 . S
C121 O132 1.185 . S
C121 O133 1.355 . S
C122 O124 1.185 . S
C122 O125 1.355 . S
Dy123 O127 2.310 . S
Dy123 O130 2.351 . S
Dy123 O132 2.398 . S
Dy123 O133 2.491 . S
Dy123 O134 2.403 . S
Dy123 O135 2.664 1_554 S
Dy123 O137 2.326 . S
O124 Dy120 2.398 . S
O124 C122 1.185 . S
O125 Dy120 2.491 . S
O125 C122 1.355 . S
O126 Dy120 2.403 . S
O126 C128 1.254 1_556 S
O127 Dy120 2.664 1_554 S
O127 Dy123 2.310 . S
O127 C128 1.268 . S
C128 O126 1.254 1_554 S
C128 O127 1.268 . S
C129 O134 1.254 1_556 S
C129 O135 1.268 . S
O130 Dy123 2.351 . S
O130 C138 1.249 1_554 S
O131 Dy120 2.326 . S
O131 C138 1.267 . S
O132 C121 1.185 . S
O132 Dy123 2.398 . S
O133 C121 1.355 . S
O133 Dy123 2.491 . S
O134 Dy123 2.403 . S
O134 C129 1.254 1_554 S
O135 Dy120 2.310 . S
O135 Dy123 2.664 1_556 S
O135 C129 1.268 . S
O136 Dy120 2.351 . S
O136 C139 1.249 1_556 S
O137 Dy123 2.326 . S
O137 C139 1.267 . S
C138 O130 1.249 1_556 S
C138 O131 1.267 . S
C139 O136 1.249 1_554 S
C139 O137 1.267 . S
Dy140 O144 2.398 1_455 S
Dy140 O145 2.491 . S
Dy140 O146 2.403 1_455 S
Dy140 O147 2.664 1_455 S
Dy140 O151 2.326 1_455 S
Dy140 O155 2.310 . S
Dy140 O156 2.351 . S
C141 O152 1.185 . S
C141 O153 1.355 1_455 S
C142 O144 1.185 . S
C142 O145 1.355 1_655 S
Dy143 O147 2.310 . S
Dy143 O150 2.351 . S
Dy143 O152 2.398 1_655 S
Dy143 O153 2.491 . S
Dy143 O154 2.403 1_655 S
Dy143 O155 2.664 1_655 S
Dy143 O157 2.326 1_655 S
O144 Dy140 2.398 1_655 S
O144 C142 1.185 . S
O145 Dy140 2.491 . S
O145 C142 1.355 1_455 S
O146 Dy140 2.403 1_655 S
O146 C148 1.254 . S
O147 Dy140 2.664 1_655 S
O147 Dy143 2.310 . S
O147 C148 1.268 . S
C148 O146 1.254 . S
C148 O147 1.268 . S
C149 O154 1.254 . S
C149 O155 1.268 . S
O150 Dy143 2.351 . S
O150 C158 1.249 . S
O151 Dy140 2.326 1_655 S
O151 C158 1.267 . S
O152 C141 1.185 . S
O152 Dy143 2.398 1_455 S
O153 C141 1.355 1_655 S
O153 Dy143 2.491 . S
O154 Dy143 2.403 1_455 S
O154 C149 1.254 . S
O155 Dy140 2.310 . S
O155 Dy143 2.664 1_455 S
O155 C149 1.268 . S
O156 Dy140 2.351 . S
O156 C159 1.249 . S
O157 Dy143 2.326 1_455 S
O157 C159 1.267 . S
C158 O150 1.249 . S
C158 O151 1.267 . S
C159 O156 1.249 . S
C159 O157 1.267 . S
H160 C172 0.930 . S
H161 C174 0.930 . S
H162 C175 0.930 . S
H163 C179 0.959 . S
H164 C179 0.959 . S
H165 C179 0.961 . S
H166 C180 0.960 . S
H167 C180 0.961 . S
H168 C180 0.959 . S
H169 C183 0.929 . S
H170 C184 0.931 . S
H171 C186 0.930 . S
C172 H160 0.930 . S
C172 C173 1.399 . S
C172 C177 1.399 . S
C173 C172 1.399 . S
C173 C174 1.376 . S
C174 H161 0.930 . S
C174 C173 1.376 . S
C174 C175 1.388 . S
C175 H162 0.930 . S
C175 C174 1.388 . S
C175 C176 1.390 . S
C176 C175 1.390 . S
C176 C177 1.394 . S
C176 C182 1.465 . S
C177 C172 1.399 . S
C177 C176 1.394 . S
C177 C178 1.516 . S
C178 C177 1.516 . S
C178 C179 1.502 . S
C178 C180 1.561 . S
C178 C181 1.526 . S
C179 H163 0.959 . S
C179 H164 0.959 . S
C179 H165 0.961 . S
C179 C178 1.502 . S
C180 H166 0.960 . S
C180 H167 0.961 . S
C180 H168 0.959 . S
C180 C178 1.561 . S
C181 C178 1.526 . S
C181 C182 1.396 . S
C181 C186 1.390 . S
C182 C176 1.465 . S
C182 C181 1.396 . S
C182 C183 1.399 . S
C183 H169 0.929 . S
C183 C182 1.399 . S
C183 C184 1.385 . S
C184 H170 0.931 . S
C184 C183 1.385 . S
C184 C185 1.389 . S
C185 C184 1.389 . S
C185 C186 1.387 . S
C186 H171 0.930 . S
C186 C181 1.390 . S
C186 C185 1.387 . S
H187 C199 0.930 . S
H188 C201 0.930 . S
H189 C202 0.930 . S
H190 C206 0.959 . S
H191 C206 0.959 . S
H192 C206 0.961 . S
H193 C207 0.960 . S
H194 C207 0.961 . S
H195 C207 0.959 . S
H196 C210 0.929 . S
H197 C211 0.931 . S
H198 C213 0.930 . S
C199 H187 0.930 . S
C199 C200 1.399 . S
C199 C204 1.399 . S
C200 C199 1.399 . S
C200 C201 1.376 . S
C201 H188 0.930 . S
C201 C200 1.376 . S
C201 C202 1.388 . S
C202 H189 0.930 . S
C202 C201 1.388 . S
C202 C203 1.390 . S
C203 C202 1.390 . S
C203 C204 1.394 . S
C203 C209 1.465 . S
C204 C199 1.399 . S
C204 C203 1.394 . S
C204 C205 1.516 . S
C205 C204 1.516 . S
C205 C206 1.502 . S
C205 C207 1.561 . S
C205 C208 1.526 . S
C206 H190 0.959 . S
C206 H191 0.959 . S
C206 H192 0.961 . S
C206 C205 1.502 . S
C207 H193 0.960 . S
C207 H194 0.961 . S
C207 H195 0.959 . S
C207 C205 1.561 . S
C208 C205 1.526 . S
C208 C209 1.396 . S
C208 C213 1.390 . S
C209 C203 1.465 . S
C209 C208 1.396 . S
C209 C210 1.399 . S
C210 H196 0.929 . S
C210 C209 1.399 . S
C210 C211 1.385 . S
C211 H197 0.931 . S
C211 C210 1.385 . S
C211 C212 1.389 . S
C212 C211 1.389 . S
C212 C213 1.387 . S
C213 H198 0.930 . S
C213 C208 1.390 . S
C213 C212 1.387 . S
H214 C226 0.930 . S
H215 C228 0.930 . S
H216 C229 0.930 . S
H217 C233 0.959 1_556 S
H218 C233 0.959 . S
H219 C233 0.961 . S
H220 C234 0.960 . S
H221 C234 0.961 . S
H222 C234 0.959 . S
H223 C237 0.929 . S
H224 C238 0.931 . S
H225 C240 0.930 1_554 S
C226 H214 0.930 . S
C226 C227 1.399 . S
C226 C231 1.399 . S
C227 C226 1.399 . S
C227 C228 1.376 . S
C228 H215 0.930 . S
C228 C227 1.376 . S
C228 C229 1.388 . S
C229 H216 0.930 . S
C229 C228 1.388 . S
C229 C230 1.390 . S
C230 C229 1.390 . S
C230 C231 1.394 . S
C230 C236 1.465 . S
C231 C226 1.399 . S
C231 C230 1.394 . S
C231 C232 1.516 . S
C232 C231 1.516 . S
C232 C233 1.502 1_556 S
C232 C234 1.561 1_556 S
C232 C235 1.526 . S
C233 H217 0.959 1_554 S
C233 H218 0.959 . S
C233 H219 0.961 . S
C233 C232 1.502 1_554 S
C234 H220 0.960 . S
C234 H221 0.961 . S
C234 H222 0.959 . S
C234 C232 1.561 1_554 S
C235 C232 1.526 . S
C235 C236 1.396 . S
C235 C240 1.390 . S
C236 C230 1.465 . S
C236 C235 1.396 . S
C236 C237 1.399 . S
C237 H223 0.929 . S
C237 C236 1.399 . S
C237 C238 1.385 . S
C238 H224 0.931 . S
C238 C237 1.385 . S
C238 C239 1.389 . S
C239 C238 1.389 . S
C239 C240 1.387 . S
C240 H225 0.930 1_556 S
C240 C235 1.390 . S
C240 C239 1.387 . S
H241 C253 0.930 . S
H242 C255 0.930 1_556 S
H243 C256 0.930 . S
H244 C260 0.959 . S
H245 C260 0.959 . S
H246 C260 0.961 . S
H247 C261 0.960 . S
H248 C261 0.961 . S
H249 C261 0.959 . S
H250 C264 0.929 . S
H251 C265 0.931 . S
H252 C267 0.930 . S
C253 H241 0.930 . S
C253 C254 1.399 . S
C253 C258 1.399 . S
C254 C253 1.399 . S
C254 C255 1.376 . S
C255 H242 0.930 1_554 S
C255 C254 1.376 . S
C255 C256 1.388 . S
C256 H243 0.930 . S
C256 C255 1.388 . S
C256 C257 1.390 . S
C257 C256 1.390 . S
C257 C258 1.394 . S
C257 C263 1.465 . S
C258 C253 1.399 . S
C258 C257 1.394 . S
C258 C259 1.516 . S
C259 C258 1.516 . S
C259 C260 1.502 . S
C259 C261 1.561 . S
C259 C262 1.526 . S
C260 H244 0.959 . S
C260 H245 0.959 . S
C260 H246 0.961 . S
C260 C259 1.502 . S
C261 H247 0.960 . S
C261 H248 0.961 . S
C261 H249 0.959 . S
C261 C259 1.561 . S
C262 C259 1.526 . S
C262 C263 1.396 . S
C262 C267 1.390 . S
C263 C257 1.465 . S
C263 C262 1.396 . S
C263 C264 1.399 . S
C264 H250 0.929 . S
C264 C263 1.399 . S
C264 C265 1.385 . S
C265 H251 0.931 . S
C265 C264 1.385 . S
C265 C266 1.389 . S
C266 C265 1.389 . S
C266 C267 1.387 . S
C267 H252 0.930 . S
C267 C262 1.390 . S
C267 C266 1.387 . S
H268 C280 0.930 . S
H269 C282 0.930 . S
H270 C283 0.930 . S
H271 C287 0.959 . S
H272 C287 0.959 . S
H273 C287 0.961 . S
H274 C288 0.960 . S
H275 C288 0.961 . S
H276 C288 0.959 . S
H277 C291 0.929 . S
H278 C292 0.931 . S
H279 C294 0.930 . S
C280 H268 0.930 . S
C280 C281 1.399 . S
C280 C285 1.399 . S
C281 C280 1.399 . S
C281 C282 1.376 . S
C282 H269 0.930 . S
C282 C281 1.376 . S
C282 C283 1.388 . S
C283 H270 0.930 . S
C283 C282 1.388 . S
C283 C284 1.390 . S
C284 C283 1.390 . S
C284 C285 1.394 . S
C284 C290 1.465 . S
C285 C280 1.399 . S
C285 C284 1.394 . S
C285 C286 1.516 . S
C286 C285 1.516 . S
C286 C287 1.502 . S
C286 C288 1.561 . S
C286 C289 1.526 . S
C287 H271 0.959 . S
C287 H272 0.959 . S
C287 H273 0.961 . S
C287 C286 1.502 . S
C288 H274 0.960 . S
C288 H275 0.961 . S
C288 H276 0.959 . S
C288 C286 1.561 . S
C289 C286 1.526 . S
C289 C290 1.396 . S
C289 C294 1.390 . S
C290 C284 1.465 . S
C290 C289 1.396 . S
C290 C291 1.399 . S
C291 H277 0.929 . S
C291 C290 1.399 . S
C291 C292 1.385 . S
C292 H278 0.931 . S
C292 C291 1.385 . S
C292 C293 1.389 . S
C293 C292 1.389 . S
C293 C294 1.387 . S
C294 H279 0.930 . S
C294 C289 1.390 . S
C294 C293 1.387 . S
H295 C307 0.930 . S
H296 C309 0.930 . S
H297 C310 0.930 . S
H298 C314 0.959 . S
H299 C314 0.959 . S
H300 C314 0.961 . S
H301 C315 0.960 . S
H302 C315 0.961 . S
H303 C315 0.959 . S
H304 C318 0.929 . S
H305 C319 0.931 . S
H306 C321 0.930 . S
C307 H295 0.930 . S
C307 C308 1.399 . S
C307 C312 1.399 . S
C308 C307 1.399 . S
C308 C309 1.376 . S
C309 H296 0.930 . S
C309 C308 1.376 . S
C309 C310 1.388 . S
C310 H297 0.930 . S
C310 C309 1.388 . S
C310 C311 1.390 . S
C311 C310 1.390 . S
C311 C312 1.394 . S
C311 C317 1.465 . S
C312 C307 1.399 . S
C312 C311 1.394 . S
C312 C313 1.516 . S
C313 C312 1.516 . S
C313 C314 1.502 . S
C313 C315 1.561 . S
C313 C316 1.526 . S
C314 H298 0.959 . S
C314 H299 0.959 . S
C314 H300 0.961 . S
C314 C313 1.502 . S
C315 H301 0.960 . S
C315 H302 0.961 . S
C315 H303 0.959 . S
C315 C313 1.561 . S
C316 C313 1.526 . S
C316 C317 1.396 . S
C316 C321 1.390 . S
C317 C311 1.465 . S
C317 C316 1.396 . S
C317 C318 1.399 . S
C318 H304 0.929 . S
C318 C317 1.399 . S
C318 C319 1.385 . S
C319 H305 0.931 . S
C319 C318 1.385 . S
C319 C320 1.389 . S
C320 C319 1.389 . S
C320 C321 1.387 . S
C321 H306 0.930 . S
C321 C316 1.390 . S
C321 C320 1.387 . S
H322 C334 0.930 . S
H323 C336 0.930 . S
H324 C337 0.930 1_556 S
H325 C341 0.959 . S
H326 C341 0.959 . S
H327 C341 0.961 . S
H328 C342 0.960 . S
H329 C342 0.961 . S
H330 C342 0.959 . S
H331 C345 0.929 . S
H332 C346 0.931 . S
H333 C348 0.930 . S
C334 H322 0.930 . S
C334 C335 1.399 . S
C334 C339 1.399 . S
C335 C334 1.399 . S
C335 C336 1.376 . S
C336 H323 0.930 . S
C336 C335 1.376 . S
C336 C337 1.388 . S
C337 H324 0.930 1_554 S
C337 C336 1.388 . S
C337 C338 1.390 . S
C338 C337 1.390 . S
C338 C339 1.394 . S
C338 C344 1.465 . S
C339 C334 1.399 . S
C339 C338 1.394 . S
C339 C340 1.516 . S
C340 C339 1.516 . S
C340 C341 1.502 . S
C340 C342 1.561 . S
C340 C343 1.526 . S
C341 H325 0.959 . S
C341 H326 0.959 . S
C341 H327 0.961 . S
C341 C340 1.502 . S
C342 H328 0.960 . S
C342 H329 0.961 . S
C342 H330 0.959 . S
C342 C340 1.561 . S
C343 C340 1.526 . S
C343 C344 1.396 . S
C343 C348 1.390 . S
C344 C338 1.465 . S
C344 C343 1.396 . S
C344 C345 1.399 1_554 S
C345 H331 0.929 . S
C345 C344 1.399 1_556 S
C345 C346 1.385 . S
C346 H332 0.931 . S
C346 C345 1.385 . S
C346 C347 1.389 1_556 S
C347 C346 1.389 1_554 S
C347 C348 1.387 . S
C348 H333 0.930 . S
C348 C343 1.390 . S
C348 C347 1.387 . S
H349 C361 0.930 . S
H350 C363 0.930 . S
H351 C364 0.930 . S
H352 C368 0.959 . S
H353 C368 0.959 . S
H354 C368 0.961 . S
H355 C369 0.960 . S
H356 C369 0.961 . S
H357 C369 0.959 . S
H358 C372 0.929 1_554 S
H359 C373 0.931 1_554 S
H360 C375 0.930 . S
C361 H349 0.930 . S
C361 C362 1.399 . S
C361 C366 1.399 . S
C362 C361 1.399 . S
C362 C363 1.376 . S
C363 H350 0.930 . S
C363 C362 1.376 . S
C363 C364 1.388 . S
C364 H351 0.930 . S
C364 C363 1.388 . S
C364 C365 1.390 . S
C365 C364 1.390 . S
C365 C366 1.394 . S
C365 C371 1.465 . S
C366 C361 1.399 . S
C366 C365 1.394 . S
C366 C367 1.516 . S
C367 C366 1.516 . S
C367 C368 1.502 . S
C367 C369 1.561 . S
C367 C370 1.526 . S
C368 H352 0.959 . S
C368 H353 0.959 . S
C368 H354 0.961 . S
C368 C367 1.502 . S
C369 H355 0.960 . S
C369 H356 0.961 . S
C369 H357 0.959 . S
C369 C367 1.561 . S
C370 C367 1.526 . S
C370 C371 1.396 . S
C370 C375 1.390 . S
C371 C365 1.465 . S
C371 C370 1.396 . S
C371 C372 1.399 . S
C372 H358 0.929 1_556 S
C372 C371 1.399 . S
C372 C373 1.385 . S
C373 H359 0.931 1_556 S
C373 C372 1.385 . S
C373 C374 1.389 . S
C374 C373 1.389 . S
C374 C375 1.387 . S
C375 H360 0.930 . S
C375 C370 1.390 . S
C375 C374 1.387 . S
H376 C388 0.930 . S
H377 C390 0.930 . S
H378 C391 0.930 . S
H379 C395 0.959 . S
H380 C395 0.959 . S
H381 C395 0.961 1_554 S
H382 C396 0.960 1_554 S
H383 C396 0.961 1_554 S
H384 C396 0.959 . S
H385 C399 0.929 . S
H386 C400 0.931 . S
H387 C402 0.930 . S
C388 H376 0.930 . S
C388 C389 1.399 . S
C388 C393 1.399 . S
C389 C388 1.399 . S
C389 C390 1.376 . S
C390 H377 0.930 . S
C390 C389 1.376 . S
C390 C391 1.388 . S
C391 H378 0.930 . S
C391 C390 1.388 . S
C391 C392 1.390 . S
C392 C391 1.390 . S
C392 C393 1.394 . S
C392 C398 1.465 . S
C393 C388 1.399 . S
C393 C392 1.394 . S
C393 C394 1.516 . S
C394 C393 1.516 . S
C394 C395 1.502 . S
C394 C396 1.561 . S
C394 C397 1.526 . S
C395 H379 0.959 . S
C395 H380 0.959 . S
C395 H381 0.961 1_556 S
C395 C394 1.502 . S
C396 H382 0.960 1_556 S
C396 H383 0.961 1_556 S
C396 H384 0.959 . S
C396 C394 1.561 . S
C397 C394 1.526 . S
C397 C398 1.396 . S
C397 C402 1.390 . S
C398 C392 1.465 . S
C398 C397 1.396 . S
C398 C399 1.399 . S
C399 H385 0.929 . S
C399 C398 1.399 . S
C399 C400 1.385 . S
C400 H386 0.931 . S
C400 C399 1.385 . S
C400 C401 1.389 . S
C401 C400 1.389 . S
C401 C402 1.387 . S
C402 H387 0.930 . S
C402 C397 1.390 . S
C402 C401 1.387 . S
H403 C415 0.930 . S
H404 C417 0.930 . S
H405 C418 0.930 . S
H406 C422 0.959 . S
H407 C422 0.959 . S
H408 C422 0.961 . S
H409 C423 0.960 . S
H410 C423 0.961 . S
H411 C423 0.959 . S
H412 C426 0.929 1_556 S
H413 C427 0.931 . S
H414 C429 0.930 . S
C415 H403 0.930 . S
C415 C416 1.399 . S
C415 C420 1.399 . S
C416 C415 1.399 . S
C416 C417 1.376 . S
C417 H404 0.930 . S
C417 C416 1.376 . S
C417 C418 1.388 . S
C418 H405 0.930 . S
C418 C417 1.388 . S
C418 C419 1.390 . S
C419 C418 1.390 . S
C419 C420 1.394 . S
C419 C425 1.465 . S
C420 C415 1.399 . S
C420 C419 1.394 . S
C420 C421 1.516 . S
C421 C420 1.516 . S
C421 C422 1.502 . S
C421 C423 1.561 . S
C421 C424 1.526 . S
C422 H406 0.959 . S
C422 H407 0.959 . S
C422 H408 0.961 . S
C422 C421 1.502 . S
C423 H409 0.960 . S
C423 H410 0.961 . S
C423 H411 0.959 . S
C423 C421 1.561 . S
C424 C421 1.526 . S
C424 C425 1.396 . S
C424 C429 1.390 . S
C425 C419 1.465 . S
C425 C424 1.396 . S
C425 C426 1.399 . S
C426 H412 0.929 1_554 S
C426 C425 1.399 . S
C426 C427 1.385 1_554 S
C427 H413 0.931 . S
C427 C426 1.385 1_556 S
C427 C428 1.389 1_556 S
C428 C427 1.389 1_554 S
C428 C429 1.387 . S
C429 H414 0.930 . S
C429 C424 1.390 . S
C429 C428 1.387 . S
H430 C442 0.930 . S
H431 C444 0.930 . S
H432 C445 0.930 . S
H433 C449 0.959 . S
H434 C449 0.959 . S
H435 C449 0.961 . S
H436 C450 0.960 . S
H437 C450 0.961 . S
H438 C450 0.959 . S
H439 C453 0.929 . S
H440 C454 0.931 . S
H441 C456 0.930 . S
C442 H430 0.930 . S
C442 C443 1.399 . S
C442 C447 1.399 . S
C443 C442 1.399 . S
C443 C444 1.376 . S
C444 H431 0.930 . S
C444 C443 1.376 . S
C444 C445 1.388 . S
C445 H432 0.930 . S
C445 C444 1.388 . S
C445 C446 1.390 . S
C446 C445 1.390 . S
C446 C447 1.394 . S
C446 C452 1.465 . S
C447 C442 1.399 . S
C447 C446 1.394 . S
C447 C448 1.516 . S
C448 C447 1.516 . S
C448 C449 1.502 . S
C448 C450 1.561 . S
C448 C451 1.526 . S
C449 H433 0.959 . S
C449 H434 0.959 . S
C449 H435 0.961 . S
C449 C448 1.502 . S
C450 H436 0.960 . S
C450 H437 0.961 . S
C450 H438 0.959 . S
C450 C448 1.561 . S
C451 C448 1.526 . S
C451 C452 1.396 . S
C451 C456 1.390 . S
C452 C446 1.465 . S
C452 C451 1.396 . S
C452 C453 1.399 . S
C453 H439 0.929 . S
C453 C452 1.399 . S
C453 C454 1.385 . S
C454 H440 0.931 . S
C454 C453 1.385 . S
C454 C455 1.389 . S
C455 C454 1.389 . S
C455 C456 1.387 . S
C456 H441 0.930 . S
C456 C451 1.390 . S
C456 C455 1.387 . S
H457 C469 0.930 . S
H458 C471 0.930 . S
H459 C472 0.930 . S
H460 C476 0.959 . S
H461 C476 0.959 . S
H462 C476 0.961 . S
H463 C477 0.960 . S
H464 C477 0.961 . S
H465 C477 0.959 . S
H466 C480 0.929 . S
H467 C481 0.931 . S
H468 C483 0.930 . S
C469 H457 0.930 . S
C469 C470 1.399 . S
C469 C474 1.399 . S
C470 C469 1.399 . S
C470 C471 1.376 . S
C471 H458 0.930 . S
C471 C470 1.376 . S
C471 C472 1.388 . S
C472 H459 0.930 . S
C472 C471 1.388 . S
C472 C473 1.390 . S
C473 C472 1.390 . S
C473 C474 1.394 . S
C473 C479 1.465 . S
C474 C469 1.399 . S
C474 C473 1.394 . S
C474 C475 1.516 . S
C475 C474 1.516 . S
C475 C476 1.502 . S
C475 C477 1.561 . S
C475 C478 1.526 . S
C476 H460 0.959 . S
C476 H461 0.959 . S
C476 H462 0.961 . S
C476 C475 1.502 . S
C477 H463 0.960 . S
C477 H464 0.961 . S
C477 H465 0.959 . S
C477 C475 1.561 . S
C478 C475 1.526 . S
C478 C479 1.396 . S
C478 C483 1.390 . S
C479 C473 1.465 . S
C479 C478 1.396 . S
C479 C480 1.399 . S
C480 H466 0.929 . S
C480 C479 1.399 . S
C480 C481 1.385 . S
C481 H467 0.931 . S
C481 C480 1.385 . S
C481 C482 1.389 . S
C482 C481 1.389 . S
C482 C483 1.387 . S
C483 H468 0.930 . S
C483 C478 1.390 . S
C483 C482 1.387 . S
H484 C496 0.930 . S
H485 C498 0.930 . S
H486 C499 0.930 . S
H487 C503 0.959 . S
H488 C503 0.959 . S
H489 C503 0.961 . S
H490 C504 0.960 . S
H491 C504 0.961 . S
H492 C504 0.959 . S
H493 C507 0.929 . S
H494 C508 0.931 . S
H495 C510 0.930 . S
C496 H484 0.930 . S
C496 C497 1.399 . S
C496 C501 1.399 . S
C497 C496 1.399 . S
C497 C498 1.376 . S
C498 H485 0.930 . S
C498 C497 1.376 . S
C498 C499 1.388 . S
C499 H486 0.930 . S
C499 C498 1.388 . S
C499 C500 1.390 . S
C500 C499 1.390 . S
C500 C501 1.394 . S
C500 C506 1.465 . S
C501 C496 1.399 . S
C501 C500 1.394 . S
C501 C502 1.516 . S
C502 C501 1.516 . S
C502 C503 1.502 . S
C502 C504 1.561 . S
C502 C505 1.526 . S
C503 H487 0.959 . S
C503 H488 0.959 . S
C503 H489 0.961 . S
C503 C502 1.502 . S
C504 H490 0.960 . S
C504 H491 0.961 . S
C504 H492 0.959 . S
C504 C502 1.561 . S
C505 C502 1.526 . S
C505 C506 1.396 . S
C505 C510 1.390 . S
C506 C500 1.465 . S
C506 C505 1.396 . S
C506 C507 1.399 . S
C507 H493 0.929 . S
C507 C506 1.399 . S
C507 C508 1.385 . S
C508 H494 0.931 . S
C508 C507 1.385 . S
C508 C509 1.389 . S
C509 C508 1.389 . S
C509 C510 1.387 . S
C510 H495 0.930 . S
C510 C505 1.390 . S
C510 C509 1.387 . S
H511 C523 0.930 . S
H512 C525 0.930 1_554 S
H513 C526 0.930 . S
H514 C530 0.959 . S
H515 C530 0.959 . S
H516 C530 0.961 . S
H517 C531 0.960 . S
H518 C531 0.961 . S
H519 C531 0.959 . S
H520 C534 0.929 . S
H521 C535 0.931 . S
H522 C537 0.930 . S
C523 H511 0.930 . S
C523 C524 1.399 . S
C523 C528 1.399 . S
C524 C523 1.399 . S
C524 C525 1.376 . S
C525 H512 0.930 1_556 S
C525 C524 1.376 . S
C525 C526 1.388 . S
C526 H513 0.930 . S
C526 C525 1.388 . S
C526 C527 1.390 . S
C527 C526 1.390 . S
C527 C528 1.394 . S
C527 C533 1.465 . S
C528 C523 1.399 . S
C528 C527 1.394 . S
C528 C529 1.516 . S
C529 C528 1.516 . S
C529 C530 1.502 . S
C529 C531 1.561 . S
C529 C532 1.526 . S
C530 H514 0.959 . S
C530 H515 0.959 . S
C530 H516 0.961 . S
C530 C529 1.502 . S
C531 H517 0.960 . S
C531 H518 0.961 . S
C531 H519 0.959 . S
C531 C529 1.561 . S
C532 C529 1.526 . S
C532 C533 1.396 . S
C532 C537 1.390 . S
C533 C527 1.465 . S
C533 C532 1.396 . S
C533 C534 1.399 . S
C534 H520 0.929 . S
C534 C533 1.399 . S
C534 C535 1.385 . S
C535 H521 0.931 . S
C535 C534 1.385 . S
C535 C536 1.389 . S
C536 C535 1.389 . S
C536 C537 1.387 . S
C537 H522 0.930 . S
C537 C532 1.390 . S
C537 C536 1.387 . S
H538 C550 0.930 . S
H539 C552 0.930 . S
H540 C553 0.930 . S
H541 C557 0.959 . S
H542 C557 0.959 . S
H543 C557 0.961 . S
H544 C558 0.960 . S
H545 C558 0.961 . S
H546 C558 0.959 . S
H547 C561 0.929 . S
H548 C562 0.931 . S
H549 C564 0.930 . S
C550 H538 0.930 . S
C550 C551 1.399 . S
C550 C555 1.399 . S
C551 C550 1.399 . S
C551 C552 1.376 . S
C552 H539 0.930 . S
C552 C551 1.376 . S
C552 C553 1.388 . S
C553 H540 0.930 . S
C553 C552 1.388 . S
C553 C554 1.390 . S
C554 C553 1.390 . S
C554 C555 1.394 . S
C554 C560 1.465 . S
C555 C550 1.399 . S
C555 C554 1.394 . S
C555 C556 1.516 . S
C556 C555 1.516 . S
C556 C557 1.502 . S
C556 C558 1.561 . S
C556 C559 1.526 . S
C557 H541 0.959 . S
C557 H542 0.959 . S
C557 H543 0.961 . S
C557 C556 1.502 . S
C558 H544 0.960 . S
C558 H545 0.961 . S
C558 H546 0.959 . S
C558 C556 1.561 . S
C559 C556 1.526 . S
C559 C560 1.396 . S
C559 C564 1.390 . S
C560 C554 1.465 . S
C560 C559 1.396 . S
C560 C561 1.399 . S
C561 H547 0.929 . S
C561 C560 1.399 . S
C561 C562 1.385 . S
C562 H548 0.931 . S
C562 C561 1.385 . S
C562 C563 1.389 . S
C563 C562 1.389 . S
C563 C564 1.387 . S
C564 H549 0.930 . S
C564 C559 1.390 . S
C564 C563 1.387 . S
H565 C577 0.930 . S
H566 C579 0.930 . S
H567 C580 0.930 . S
H568 C584 0.959 . S
H569 C584 0.959 . S
H570 C584 0.961 . S
H571 C585 0.960 . S
H572 C585 0.961 . S
H573 C585 0.959 . S
H574 C588 0.929 . S
H575 C589 0.931 . S
H576 C591 0.930 . S
C577 H565 0.930 . S
C577 C578 1.399 . S
C577 C582 1.399 . S
C578 C577 1.399 . S
C578 C579 1.376 . S
C579 H566 0.930 . S
C579 C578 1.376 . S
C579 C580 1.388 . S
C580 H567 0.930 . S
C580 C579 1.388 . S
C580 C581 1.390 . S
C581 C580 1.390 . S
C581 C582 1.394 . S
C581 C587 1.465 . S
C582 C577 1.399 . S
C582 C581 1.394 . S
C582 C583 1.516 . S
C583 C582 1.516 . S
C583 C584 1.502 . S
C583 C585 1.561 . S
C583 C586 1.526 . S
C584 H568 0.959 . S
C584 H569 0.959 . S
C584 H570 0.961 . S
C584 C583 1.502 . S
C585 H571 0.960 . S
C585 H572 0.961 . S
C585 H573 0.959 . S
C585 C583 1.561 . S
C586 C583 1.526 . S
C586 C587 1.396 . S
C586 C591 1.390 . S
C587 C581 1.465 . S
C587 C586 1.396 . S
C587 C588 1.399 . S
C588 H574 0.929 . S
C588 C587 1.399 . S
C588 C589 1.385 . S
C589 H575 0.931 . S
C589 C588 1.385 . S
C589 C590 1.389 . S
C590 C589 1.389 . S
C590 C591 1.387 . S
C591 H576 0.930 . S
C591 C586 1.390 . S
C591 C590 1.387 . S
H592 C604 0.930 . S
H593 C606 0.930 . S
H594 C607 0.930 . S
H595 C611 0.959 . S
H596 C611 0.959 . S
H597 C611 0.961 1_556 S
H598 C612 0.960 1_556 S
H599 C612 0.961 . S
H600 C612 0.959 . S
H601 C615 0.929 . S
H602 C616 0.931 . S
H603 C618 0.930 . S
C604 H592 0.930 . S
C604 C605 1.399 . S
C604 C609 1.399 . S
C605 C604 1.399 . S
C605 C606 1.377 1_665 S
C606 H593 0.930 . S
C606 C605 1.377 1_445 S
C606 C607 1.388 . S
C607 H594 0.930 . S
C607 C606 1.388 . S
C607 C608 1.390 . S
C608 C607 1.390 . S
C608 C609 1.394 1_445 S
C608 C614 1.465 1_556 S
C609 C604 1.399 . S
C609 C608 1.394 1_665 S
C609 C610 1.516 1_556 S
C610 C609 1.516 1_554 S
C610 C611 1.502 . S
C610 C612 1.561 1_655 S
C610 C613 1.526 1_655 S
C611 H595 0.959 . S
C611 H596 0.959 . S
C611 H597 0.961 1_554 S
C611 C610 1.502 . S
C612 H598 0.960 1_554 S
C612 H599 0.961 . S
C612 H600 0.959 . S
C612 C610 1.561 1_455 S
C613 C610 1.526 1_455 S
C613 C614 1.396 1_565 S
C613 C618 1.390 . S
C614 C608 1.465 1_554 S
C614 C613 1.396 1_545 S
C614 C615 1.399 . S
C615 H601 0.929 . S
C615 C614 1.399 . S
C615 C616 1.385 . S
C616 H602 0.931 . S
C616 C615 1.385 . S
C616 C617 1.389 . S
C617 C616 1.389 . S
C617 C618 1.387 1_545 S
C618 H603 0.930 . S
C618 C613 1.390 . S
C618 C617 1.387 1_565 S
H619 C631 0.930 . S
H620 C633 0.930 . S
H621 C634 0.930 . S
H622 C638 0.959 . S
H623 C638 0.959 . S
H624 C638 0.961 . S
H625 C639 0.960 . S
H626 C639 0.961 . S
H627 C639 0.959 . S
H628 C642 0.929 . S
H629 C643 0.931 . S
H630 C645 0.930 . S
C631 H619 0.930 . S
C631 C632 1.399 . S
C631 C636 1.399 . S
C632 C631 1.399 . S
C632 C633 1.376 . S
C633 H620 0.930 . S
C633 C632 1.376 . S
C633 C634 1.388 . S
C634 H621 0.930 . S
C634 C633 1.388 . S
C634 C635 1.390 . S
C635 C634 1.390 . S
C635 C636 1.394 . S
C635 C641 1.465 . S
C636 C631 1.399 . S
C636 C635 1.394 . S
C636 C637 1.516 . S
C637 C636 1.516 . S
C637 C638 1.502 . S
C637 C639 1.561 . S
C637 C640 1.526 . S
C638 H622 0.959 . S
C638 H623 0.959 . S
C638 H624 0.961 . S
C638 C637 1.502 . S
C639 H625 0.960 . S
C639 H626 0.961 . S
C639 H627 0.959 . S
C639 C637 1.561 . S
C640 C637 1.526 . S
C640 C641 1.396 . S
C640 C645 1.390 . S
C641 C635 1.465 . S
C641 C640 1.396 . S
C641 C642 1.399 . S
C642 H628 0.929 . S
C642 C641 1.399 . S
C642 C643 1.385 . S
C643 H629 0.931 . S
C643 C642 1.385 . S
C643 C644 1.389 . S
C644 C643 1.389 . S
C644 C645 1.387 . S
C645 H630 0.930 . S
C645 C640 1.390 . S
C645 C644 1.387 . S
H646 C658 0.930 . S
H647 C660 0.930 . S
H648 C661 0.930 . S
H649 C665 0.959 . S
H650 C665 0.959 . S
H651 C665 0.961 . S
H652 C666 0.960 . S
H653 C666 0.961 . S
H654 C666 0.959 . S
H655 C669 0.929 . S
H656 C670 0.931 . S
H657 C672 0.930 . S
C658 H646 0.930 . S
C658 C659 1.399 . S
C658 C663 1.399 . S
C659 C658 1.399 . S
C659 C660 1.376 1_545 S
C660 H647 0.930 . S
C660 C659 1.376 1_565 S
C660 C661 1.388 . S
C661 H648 0.930 . S
C661 C660 1.388 . S
C661 C662 1.390 . S
C662 C661 1.390 . S
C662 C663 1.394 1_565 S
C662 C668 1.465 . S
C663 C658 1.399 . S
C663 C662 1.394 1_545 S
C663 C664 1.516 . S
C664 C663 1.516 . S
C664 C665 1.502 . S
C664 C666 1.561 . S
C664 C667 1.526 . S
C665 H649 0.959 . S
C665 H650 0.959 . S
C665 H651 0.961 . S
C665 C664 1.502 . S
C666 H652 0.960 . S
C666 H653 0.961 . S
C666 H654 0.959 . S
C666 C664 1.561 . S
C667 C664 1.526 . S
C667 C668 1.396 1_545 S
C667 C672 1.390 . S
C668 C662 1.465 . S
C668 C667 1.396 1_565 S
C668 C669 1.399 . S
C669 H655 0.929 . S
C669 C668 1.399 . S
C669 C670 1.385 . S
C670 H656 0.931 . S
C670 C669 1.385 . S
C670 C671 1.389 . S
C671 C670 1.389 . S
C671 C672 1.387 1_565 S
C672 H657 0.930 . S
C672 C667 1.390 . S
C672 C671 1.387 1_545 S
H673 C685 0.930 . S
H674 C687 0.930 . S
H675 C688 0.930 . S
H676 C692 0.959 . S
H677 C692 0.959 . S
H678 C692 0.961 . S
H679 C693 0.960 . S
H680 C693 0.961 . S
H681 C693 0.959 . S
H682 C696 0.929 . S
H683 C697 0.931 . S
H684 C699 0.930 . S
C685 H673 0.930 . S
C685 C686 1.399 . S
C685 C690 1.399 . S
C686 C685 1.399 . S
C686 C687 1.376 . S
C687 H674 0.930 . S
C687 C686 1.376 . S
C687 C688 1.388 . S
C688 H675 0.930 . S
C688 C687 1.388 . S
C688 C689 1.390 . S
C689 C688 1.390 . S
C689 C690 1.394 . S
C689 C695 1.465 . S
C690 C685 1.399 . S
C690 C689 1.394 . S
C690 C691 1.516 . S
C691 C690 1.516 . S
C691 C692 1.502 . S
C691 C693 1.561 . S
C691 C694 1.526 . S
C692 H676 0.959 . S
C692 H677 0.959 . S
C692 H678 0.961 . S
C692 C691 1.502 . S
C693 H679 0.960 . S
C693 H680 0.961 . S
C693 H681 0.959 . S
C693 C691 1.561 . S
C694 C691 1.526 . S
C694 C695 1.396 . S
C694 C699 1.390 . S
C695 C689 1.465 . S
C695 C694 1.396 . S
C695 C696 1.399 . S
C696 H682 0.929 . S
C696 C695 1.399 . S
C696 C697 1.385 . S
C697 H683 0.931 . S
C697 C696 1.385 . S
C697 C698 1.389 . S
C698 C697 1.389 . S
C698 C699 1.387 . S
C699 H684 0.930 . S
C699 C694 1.390 . S
C699 C698 1.387 . S
H700 C712 0.930 . S
H701 C714 0.930 . S
H702 C715 0.930 . S
H703 C719 0.959 . S
H704 C719 0.959 . S
H705 C719 0.961 . S
H706 C720 0.960 . S
H707 C720 0.961 . S
H708 C720 0.959 . S
H709 C723 0.929 . S
H710 C724 0.931 . S
H711 C726 0.930 . S
C712 H700 0.930 . S
C712 C713 1.399 . S
C712 C717 1.399 . S
C713 C712 1.399 . S
C713 C714 1.376 . S
C714 H701 0.930 . S
C714 C713 1.376 . S
C714 C715 1.388 . S
C715 H702 0.930 . S
C715 C714 1.388 . S
C715 C716 1.390 . S
C716 C715 1.390 . S
C716 C717 1.394 . S
C716 C722 1.465 . S
C717 C712 1.399 . S
C717 C716 1.394 . S
C717 C718 1.516 . S
C718 C717 1.516 . S
C718 C719 1.502 . S
C718 C720 1.561 . S
C718 C721 1.526 . S
C719 H703 0.959 . S
C719 H704 0.959 . S
C719 H705 0.961 . S
C719 C718 1.502 . S
C720 H706 0.960 . S
C720 H707 0.961 . S
C720 H708 0.959 . S
C720 C718 1.561 . S
C721 C718 1.526 . S
C721 C722 1.396 . S
C721 C726 1.390 . S
C722 C716 1.465 . S
C722 C721 1.396 . S
C722 C723 1.399 . S
C723 H709 0.929 . S
C723 C722 1.399 . S
C723 C724 1.385 . S
C724 H710 0.931 . S
C724 C723 1.385 . S
C724 C725 1.389 . S
C725 C724 1.389 . S
C725 C726 1.387 . S
C726 H711 0.930 . S
C726 C721 1.390 . S
C726 C725 1.387 . S
H727 C739 0.930 . S
H728 C741 0.930 . S
H729 C742 0.930 . S
H730 C746 0.959 . S
H731 C746 0.959 . S
H732 C746 0.961 . S
H733 C747 0.960 . S
H734 C747 0.961 . S
H735 C747 0.959 . S
H736 C750 0.929 . S
H737 C751 0.931 . S
H738 C753 0.930 . S
C739 H727 0.930 . S
C739 C740 1.399 . S
C739 C744 1.399 . S
C740 C739 1.399 . S
C740 C741 1.376 . S
C741 H728 0.930 . S
C741 C740 1.376 . S
C741 C742 1.388 . S
C742 H729 0.930 . S
C742 C741 1.388 . S
C742 C743 1.390 . S
C743 C742 1.390 . S
C743 C744 1.394 . S
C743 C749 1.465 . S
C744 C739 1.399 . S
C744 C743 1.394 . S
C744 C745 1.516 . S
C745 C744 1.516 . S
C745 C746 1.502 . S
C745 C747 1.561 . S
C745 C748 1.526 . S
C746 H730 0.959 . S
C746 H731 0.959 . S
C746 H732 0.961 . S
C746 C745 1.502 . S
C747 H733 0.960 . S
C747 H734 0.961 . S
C747 H735 0.959 . S
C747 C745 1.561 . S
C748 C745 1.526 . S
C748 C749 1.396 . S
C748 C753 1.390 . S
C749 C743 1.465 . S
C749 C748 1.396 . S
C749 C750 1.399 . S
C750 H736 0.929 . S
C750 C749 1.399 . S
C750 C751 1.385 . S
C751 H737 0.931 . S
C751 C750 1.385 . S
C751 C752 1.389 . S
C752 C751 1.389 . S
C752 C753 1.387 . S
C753 H738 0.930 . S
C753 C748 1.390 . S
C753 C752 1.387 . S
H754 C766 0.930 . S
H755 C768 0.930 . S
H756 C769 0.930 . S
H757 C773 0.959 . S
H758 C773 0.959 . S
H759 C773 0.961 . S
H760 C774 0.960 . S
H761 C774 0.961 . S
H762 C774 0.959 . S
H763 C777 0.929 . S
H764 C778 0.931 . S
H765 C780 0.930 . S
C766 H754 0.930 . S
C766 C767 1.399 . S
C766 C771 1.399 . S
C767 C766 1.399 . S
C767 C768 1.376 . S
C768 H755 0.930 . S
C768 C767 1.376 . S
C768 C769 1.388 . S
C769 H756 0.930 . S
C769 C768 1.388 . S
C769 C770 1.390 . S
C770 C769 1.390 . S
C770 C771 1.394 . S
C770 C776 1.465 . S
C771 C766 1.399 . S
C771 C770 1.394 . S
C771 C772 1.516 . S
C772 C771 1.516 . S
C772 C773 1.502 . S
C772 C774 1.561 . S
C772 C775 1.526 . S
C773 H757 0.959 . S
C773 H758 0.959 . S
C773 H759 0.961 . S
C773 C772 1.502 . S
C774 H760 0.960 . S
C774 H761 0.961 . S
C774 H762 0.959 . S
C774 C772 1.561 . S
C775 C772 1.526 . S
C775 C776 1.396 . S
C775 C780 1.390 . S
C776 C770 1.465 . S
C776 C775 1.396 . S
C776 C777 1.399 . S
C777 H763 0.929 . S
C777 C776 1.399 . S
C777 C778 1.385 . S
C778 H764 0.931 . S
C778 C777 1.385 . S
C778 C779 1.389 . S
C779 C778 1.389 . S
C779 C780 1.387 . S
C780 H765 0.930 . S
C780 C775 1.390 . S
C780 C779 1.387 . S
H781 C793 0.930 . S
H782 C795 0.930 . S
H783 C796 0.930 . S
H784 C800 0.959 . S
H785 C800 0.959 . S
H786 C800 0.961 1_556 S
H787 C801 0.960 1_556 S
H788 C801 0.961 . S
H789 C801 0.943 1_455 S
H790 C804 0.929 . S
H791 C805 0.931 . S
H792 C807 0.930 . S
C793 H781 0.930 . S
C793 C794 1.399 . S
C793 C798 1.399 . S
C794 C793 1.399 . S
C794 C795 1.376 1_655 S
C795 H782 0.930 . S
C795 C794 1.376 1_455 S
C795 C796 1.388 . S
C796 H783 0.930 . S
C796 C795 1.388 . S
C796 C797 1.390 . S
C797 C796 1.390 . S
C797 C798 1.394 1_455 S
C797 C803 1.465 1_556 S
C798 C793 1.399 . S
C798 C797 1.394 1_655 S
C798 C799 1.516 1_556 S
C799 C798 1.516 1_554 S
C799 C800 1.502 . S
C799 C801 1.561 . S
C799 C802 1.526 . S
C800 H784 0.959 . S
C800 H785 0.959 . S
C800 H786 0.961 1_554 S
C800 C799 1.502 . S
C801 H787 0.960 1_554 S
C801 H788 0.961 . S
C801 H789 0.943 1_655 S
C801 C799 1.561 . S
C802 C799 1.526 . S
C802 C803 1.396 1_655 S
C802 C807 1.390 . S
C803 C797 1.465 1_554 S
C803 C802 1.396 1_455 S
C803 C804 1.399 . S
C804 H790 0.929 . S
C804 C803 1.399 . S
C804 C805 1.385 . S
C805 H791 0.931 . S
C805 C804 1.385 . S
C805 C806 1.389 . S
C806 C805 1.389 . S
C806 C807 1.387 1_455 S
C807 H792 0.930 . S
C807 C802 1.390 . S
C807 C806 1.387 1_655 S
C173 C18 1.494 . S
C185 C68 1.501 . S
C200 C8 1.178 . S
C212 C28 1.127 . S
C227 C38 1.495 . S
C239 C48 1.502 . S
C254 C58 1.797 . S
C266 C78 1.805 . S
C281 C19 1.490 . S
C293 C109 1.506 . S
C308 C9 1.103 . S
C320 C89 1.142 . S
C335 C99 1.519 . S
C347 C49 1.463 . S
C362 C119 1.805 . S
C374 C59 1.792 . S
C389 C138 1.503 . S
C401 C108 1.473 . S
C416 C88 1.178 . S
C428 C128 1.105 . S
C443 C148 1.462 . S
C455 C98 1.522 . S
C470 C118 1.800 . S
C482 C158 1.789 . S
C497 C69 1.458 . S
C509 C139 1.518 . S
C524 C129 1.149 . S
C536 C29 1.178 . S
C551 C39 1.519 . S
C563 C149 1.456 . S
C578 C79 1.802 . S
C590 C159 1.781 . S
C605 C1 1.410 . S
C617 C2 1.485 . S
C632 C21 1.444 . S
C644 C22 1.443 1_554 S
C659 C41 1.506 . S
C671 C42 1.471 . S
C686 C62 1.511 1_556 S
C698 C61 1.458 . S
C713 C81 1.436 1_556 S
C725 C82 1.451 . S
C740 C102 1.510 . S
C752 C101 1.458 1_554 S
C767 C122 1.448 . S
C779 C121 1.462 . S
C794 C142 1.461 . S
C806 C141 1.503 . S
