# Generated by pormake.
# Topology cha, (4)-cn, num edge types: 1
# Building blocks:
#     Node 0, Type 0, BuildingBlock: UXUYUI_clean_sbu_0, # of connection points: 4
#     Node 1, Type 0, BuildingBlock: UXUYUI_clean_sbu_0, # of connection points: 4
#     Node 2, Type 0, BuildingBlock: UXUYUI_clean_sbu_0, # of connection points: 4
#     Node 3, Type 0, BuildingBlock: UXUYUI_clean_sbu_0, # of connection points: 4
#     Node 4, Type 0, BuildingBlock: UXUYUI_clean_sbu_0, # of connection points: 4
#     Node 5, Type 0, BuildingBlock: UXUYUI_clean_sbu_0, # of connection points: 4
#     Node 6, Type 0, BuildingBlock: UXUYUI_clean_sbu_0, # of connection points: 4
#     Node 7, Type 0, BuildingBlock: UXUYUI_clean_sbu_0, # of connection points: 4
#     Node 8, Type 0, BuildingBlock: UXUYUI_clean_sbu_0, # of connection points: 4
#     Node 9, Type 0, BuildingBlock: UXUYUI_clean_sbu_0, # of connection points: 4
#     Node 10, Type 0, BuildingBlock: UXUYUI_clean_sbu_0, # of connection points: 4
#     Node 11, Type 0, BuildingBlock: UXUYUI_clean_sbu_0, # of connection points: 4
#     Node 12, Type 0, BuildingBlock: UXUYUI_clean_sbu_0, # of connection points: 4
#     Node 13, Type 0, BuildingBlock: UXUYUI_clean_sbu_0, # of connection points: 4
#     Node 14, Type 0, BuildingBlock: UXUYUI_clean_sbu_0, # of connection points: 4
#     Node 15, Type 0, BuildingBlock: UXUYUI_clean_sbu_0, # of connection points: 4
#     Node 16, Type 0, BuildingBlock: UXUYUI_clean_sbu_0, # of connection points: 4
#     Node 17, Type 0, BuildingBlock: UXUYUI_clean_sbu_0, # of connection points: 4
#     Node 18, Type 0, BuildingBlock: UXUYUI_clean_sbu_0, # of connection points: 4
#     Node 19, Type 0, BuildingBlock: UXUYUI_clean_sbu_0, # of connection points: 4
#     Node 20, Type 0, BuildingBlock: UXUYUI_clean_sbu_0, # of connection points: 4
#     Node 21, Type 0, BuildingBlock: UXUYUI_clean_sbu_0, # of connection points: 4
#     Node 22, Type 0, BuildingBlock: UXUYUI_clean_sbu_0, # of connection points: 4
#     Node 23, Type 0, BuildingBlock: UXUYUI_clean_sbu_0, # of connection points: 4
#     Node 24, Type 0, BuildingBlock: UXUYUI_clean_sbu_0, # of connection points: 4
#     Node 25, Type 0, BuildingBlock: UXUYUI_clean_sbu_0, # of connection points: 4
#     Node 26, Type 0, BuildingBlock: UXUYUI_clean_sbu_0, # of connection points: 4
#     Node 27, Type 0, BuildingBlock: UXUYUI_clean_sbu_0, # of connection points: 4
#     Node 28, Type 0, BuildingBlock: UXUYUI_clean_sbu_0, # of connection points: 4
#     Node 29, Type 0, BuildingBlock: UXUYUI_clean_sbu_0, # of connection points: 4
#     Node 30, Type 0, BuildingBlock: UXUYUI_clean_sbu_0, # of connection points: 4
#     Node 31, Type 0, BuildingBlock: UXUYUI_clean_sbu_0, # of connection points: 4
#     Node 32, Type 0, BuildingBlock: UXUYUI_clean_sbu_0, # of connection points: 4
#     Node 33, Type 0, BuildingBlock: UXUYUI_clean_sbu_0, # of connection points: 4
#     Node 34, Type 0, BuildingBlock: UXUYUI_clean_sbu_0, # of connection points: 4
#     Node 35, Type 0, BuildingBlock: UXUYUI_clean_sbu_0, # of connection points: 4
#     Edge 36, Type (0, 0), BuildingBlock: AJUNOK_clean_linker_0, # of connection points: 2
#     Edge 37, Type (0, 0), BuildingBlock: AJUNOK_clean_linker_0, # of connection points: 2
#     Edge 38, Type (0, 0), BuildingBlock: AJUNOK_clean_linker_0, # of connection points: 2
#     Edge 39, Type (0, 0), BuildingBlock: AJUNOK_clean_linker_0, # of connection points: 2
#     Edge 40, Type (0, 0), BuildingBlock: AJUNOK_clean_linker_0, # of connection points: 2
#     Edge 41, Type (0, 0), BuildingBlock: AJUNOK_clean_linker_0, # of connection points: 2
#     Edge 42, Type (0, 0), BuildingBlock: AJUNOK_clean_linker_0, # of connection points: 2
#     Edge 43, Type (0, 0), BuildingBlock: AJUNOK_clean_linker_0, # of connection points: 2
#     Edge 44, Type (0, 0), BuildingBlock: AJUNOK_clean_linker_0, # of connection points: 2
#     Edge 45, Type (0, 0), BuildingBlock: AJUNOK_clean_linker_0, # of connection points: 2
#     Edge 46, Type (0, 0), BuildingBlock: AJUNOK_clean_linker_0, # of connection points: 2
#     Edge 47, Type (0, 0), BuildingBlock: AJUNOK_clean_linker_0, # of connection points: 2
#     Edge 48, Type (0, 0), BuildingBlock: AJUNOK_clean_linker_0, # of connection points: 2
#     Edge 49, Type (0, 0), BuildingBlock: AJUNOK_clean_linker_0, # of connection points: 2
#     Edge 50, Type (0, 0), BuildingBlock: AJUNOK_clean_linker_0, # of connection points: 2
#     Edge 51, Type (0, 0), BuildingBlock: AJUNOK_clean_linker_0, # of connection points: 2
#     Edge 52, Type (0, 0), BuildingBlock: AJUNOK_clean_linker_0, # of connection points: 2
#     Edge 53, Type (0, 0), BuildingBlock: AJUNOK_clean_linker_0, # of connection points: 2
#     Edge 54, Type (0, 0), BuildingBlock: AJUNOK_clean_linker_0, # of connection points: 2
#     Edge 55, Type (0, 0), BuildingBlock: AJUNOK_clean_linker_0, # of connection points: 2
#     Edge 56, Type (0, 0), BuildingBlock: AJUNOK_clean_linker_0, # of connection points: 2
#     Edge 57, Type (0, 0), BuildingBlock: AJUNOK_clean_linker_0, # of connection points: 2
#     Edge 58, Type (0, 0), BuildingBlock: AJUNOK_clean_linker_0, # of connection points: 2
#     Edge 59, Type (0, 0), BuildingBlock: AJUNOK_clean_linker_0, # of connection points: 2
#     Edge 60, Type (0, 0), BuildingBlock: AJUNOK_clean_linker_0, # of connection points: 2
#     Edge 61, Type (0, 0), BuildingBlock: AJUNOK_clean_linker_0, # of connection points: 2
#     Edge 62, Type (0, 0), BuildingBlock: AJUNOK_clean_linker_0, # of connection points: 2
#     Edge 63, Type (0, 0), BuildingBlock: AJUNOK_clean_linker_0, # of connection points: 2
#     Edge 64, Type (0, 0), BuildingBlock: AJUNOK_clean_linker_0, # of connection points: 2
#     Edge 65, Type (0, 0), BuildingBlock: AJUNOK_clean_linker_0, # of connection points: 2
#     Edge 66, Type (0, 0), BuildingBlock: AJUNOK_clean_linker_0, # of connection points: 2
#     Edge 67, Type (0, 0), BuildingBlock: AJUNOK_clean_linker_0, # of connection points: 2
#     Edge 68, Type (0, 0), BuildingBlock: AJUNOK_clean_linker_0, # of connection points: 2
#     Edge 69, Type (0, 0), BuildingBlock: AJUNOK_clean_linker_0, # of connection points: 2
#     Edge 70, Type (0, 0), BuildingBlock: AJUNOK_clean_linker_0, # of connection points: 2
#     Edge 71, Type (0, 0), BuildingBlock: AJUNOK_clean_linker_0, # of connection points: 2
#     Edge 72, Type (0, 0), BuildingBlock: AJUNOK_clean_linker_0, # of connection points: 2
#     Edge 73, Type (0, 0), BuildingBlock: AJUNOK_clean_linker_0, # of connection points: 2
#     Edge 74, Type (0, 0), BuildingBlock: AJUNOK_clean_linker_0, # of connection points: 2
#     Edge 75, Type (0, 0), BuildingBlock: AJUNOK_clean_linker_0, # of connection points: 2
#     Edge 76, Type (0, 0), BuildingBlock: AJUNOK_clean_linker_0, # of connection points: 2
#     Edge 77, Type (0, 0), BuildingBlock: AJUNOK_clean_linker_0, # of connection points: 2
#     Edge 78, Type (0, 0), BuildingBlock: AJUNOK_clean_linker_0, # of connection points: 2
#     Edge 79, Type (0, 0), BuildingBlock: AJUNOK_clean_linker_0, # of connection points: 2
#     Edge 80, Type (0, 0), BuildingBlock: AJUNOK_clean_linker_0, # of connection points: 2
#     Edge 81, Type (0, 0), BuildingBlock: AJUNOK_clean_linker_0, # of connection points: 2
#     Edge 82, Type (0, 0), BuildingBlock: AJUNOK_clean_linker_0, # of connection points: 2
#     Edge 83, Type (0, 0), BuildingBlock: AJUNOK_clean_linker_0, # of connection points: 2
#     Edge 84, Type (0, 0), BuildingBlock: AJUNOK_clean_linker_0, # of connection points: 2
#     Edge 85, Type (0, 0), BuildingBlock: AJUNOK_clean_linker_0, # of connection points: 2
#     Edge 86, Type (0, 0), BuildingBlock: AJUNOK_clean_linker_0, # of connection points: 2
#     Edge 87, Type (0, 0), BuildingBlock: AJUNOK_clean_linker_0, # of connection points: 2
#     Edge 88, Type (0, 0), BuildingBlock: AJUNOK_clean_linker_0, # of connection points: 2
#     Edge 89, Type (0, 0), BuildingBlock: AJUNOK_clean_linker_0, # of connection points: 2
#     Edge 90, Type (0, 0), BuildingBlock: AJUNOK_clean_linker_0, # of connection points: 2
#     Edge 91, Type (0, 0), BuildingBlock: AJUNOK_clean_linker_0, # of connection points: 2
#     Edge 92, Type (0, 0), BuildingBlock: AJUNOK_clean_linker_0, # of connection points: 2
#     Edge 93, Type (0, 0), BuildingBlock: AJUNOK_clean_linker_0, # of connection points: 2
#     Edge 94, Type (0, 0), BuildingBlock: AJUNOK_clean_linker_0, # of connection points: 2
#     Edge 95, Type (0, 0), BuildingBlock: AJUNOK_clean_linker_0, # of connection points: 2
#     Edge 96, Type (0, 0), BuildingBlock: AJUNOK_clean_linker_0, # of connection points: 2
#     Edge 97, Type (0, 0), BuildingBlock: AJUNOK_clean_linker_0, # of connection points: 2
#     Edge 98, Type (0, 0), BuildingBlock: AJUNOK_clean_linker_0, # of connection points: 2
#     Edge 99, Type (0, 0), BuildingBlock: AJUNOK_clean_linker_0, # of connection points: 2
#     Edge 100, Type (0, 0), BuildingBlock: AJUNOK_clean_linker_0, # of connection points: 2
#     Edge 101, Type (0, 0), BuildingBlock: AJUNOK_clean_linker_0, # of connection points: 2
#     Edge 102, Type (0, 0), BuildingBlock: AJUNOK_clean_linker_0, # of connection points: 2
#     Edge 103, Type (0, 0), BuildingBlock: AJUNOK_clean_linker_0, # of connection points: 2
#     Edge 104, Type (0, 0), BuildingBlock: AJUNOK_clean_linker_0, # of connection points: 2
#     Edge 105, Type (0, 0), BuildingBlock: AJUNOK_clean_linker_0, # of connection points: 2
#     Edge 106, Type (0, 0), BuildingBlock: AJUNOK_clean_linker_0, # of connection points: 2
#     Edge 107, Type (0, 0), BuildingBlock: AJUNOK_clean_linker_0, # of connection points: 2
# Relax obj value: 0.245
# Max RMSD: 0.173
# Mean RMSD: 0.173
data_MOF--net-cha--node1-UXUYUI_clean_sbu_0--edge1-AJUNOK_clean_linker_0
_symmetry_space_group_name_H-M    P1
_symmetry_Int_Tables_number       1
_symmetry_cell_setting            triclinic
loop_
_symmetry_equiv_pos_as_xyz
'x, y, z'
_cell_length_a     78.303612
_cell_length_b     78.304818
_cell_length_c     84.774081
_cell_angle_alpha  90.003414
_cell_angle_beta   89.99736
_cell_angle_gamma 119.99382
loop_
_atom_site_label
_atom_site_type_symbol
_atom_site_fract_x
_atom_site_fract_y
_atom_site_fract_z
_atom_type_partial_charge
Li0 Li 0.02302 0.26882 0.11436 0.0
Li1 Li 0.04325 0.25468 0.10955 0.0
Li2 Li 0.02595 0.25871 0.0877 0.0
Li3 Li 0.00788 0.23287 0.10854 0.0
C4 C 0.06146 0.29726 0.10609 0.0
N5 N 0.09112 0.33309 0.11714 0.0
C6 C 0.06942 0.2986 0.12108 0.0
C7 C 0.06862 0.31411 0.09667 0.0
C8 C 0.0844 0.31685 0.12647 0.0
C9 C 0.0836 0.3321 0.10248 0.0
C10 C 0.02782 0.24333 0.14111 0.0
C11 C 0.02586 0.21931 0.15991 0.0
N12 N 0.03549 0.23393 0.17068 0.0
C13 C 0.03744 0.25809 0.15244 0.0
C14 C 0.02174 0.22374 0.14491 0.0
C15 C 0.04129 0.25305 0.16729 0.0
C16 C 0.00519 0.27622 0.13886 0.0
N17 N 0.0184 0.28584 0.12716 0.0
C18 C 0.02253 0.31676 0.13573 0.0
C19 C 0.02699 0.3057 0.12529 0.0
C20 C 0.00918 0.30718 0.14811 0.0
C21 C 0.00031 0.28663 0.14949 0.0
H22 H 0.99839 0.26038 0.13987 0.0
H23 H 0.03719 0.31296 0.11571 0.0
C24 C 0.08198 0.26619 0.10297 0.0
N25 N 0.06785 0.2561 0.11399 0.0
C26 C 0.09984 0.26638 0.10352 0.0
C27 C 0.08876 0.24656 0.12719 0.0
C28 C 0.07098 0.2466 0.12612 0.0
C29 C 0.10319 0.25615 0.11556 0.0
H30 H 0.07904 0.27346 0.09339 0.0
H31 H 0.05952 0.23841 0.1346 0.0
C32 C 0.99297 0.26297 0.09348 0.0
N33 N 0.97611 0.28391 0.08151 0.0
C34 C 0.97249 0.25407 0.09227 0.0
C35 C 0.0049 0.2825 0.08862 0.0
C36 C 0.96424 0.26491 0.08617 0.0
C37 C 0.99608 0.29285 0.08261 0.0
C38 C 0.03936 0.22717 0.08972 0.0
C39 C 0.05162 0.23351 0.07647 0.0
C40 C 0.03991 0.21351 0.10002 0.0
C41 C 0.06442 0.22621 0.07384 0.0
C42 C 0.05293 0.20659 0.09698 0.0
N43 N 0.06482 0.21304 0.08407 0.0
C44 C 0.04394 0.27648 0.059 0.0
C45 C 0.00964 0.2536 0.05737 0.0
C46 C 0.04506 0.27902 0.04267 0.0
N47 N 0.02646 0.26375 0.06592 0.0
C48 C 0.01007 0.25576 0.04101 0.0
C49 C 0.02803 0.26829 0.03347 0.0
H50 H 0.05708 0.28421 0.06615 0.0
H51 H 0.996 0.24344 0.06323 0.0
C52 C 0.97011 0.20781 0.11995 0.0
N53 N 0.98543 0.20804 0.11223 0.0
C54 C 0.95218 0.19024 0.12138 0.0
C55 C 0.96645 0.17341 0.10745 0.0
C56 C 0.98406 0.19134 0.10616 0.0
C57 C 0.95014 0.17287 0.11481 0.0
H58 H 0.97166 0.22141 0.12452 0.0
H59 H 0.99638 0.19205 0.09984 0.0
O60 O 0.04669 0.27961 0.10055 0.0
O61 O 0.02363 0.2479 0.1266 0.0
O62 O 0.00124 0.25249 0.09934 0.0
O63 O 0.02718 0.23461 0.09277 0.0
H64 H 0.06415 0.28568 0.12845 0.0
H65 H 0.06256 0.31331 0.08504 0.0
H66 H 0.0907 0.3181 0.13806 0.0
H67 H 0.08924 0.34528 0.09535 0.0
H68 H 0.02138 0.20424 0.16298 0.0
H69 H 0.04175 0.27325 0.14985 0.0
H70 H 0.01405 0.21212 0.13634 0.0
H71 H 0.0488 0.26433 0.17615 0.0
H72 H 0.02947 0.33258 0.13421 0.0
H73 H 0.98946 0.27863 0.15856 0.0
H74 H 0.11079 0.27412 0.09444 0.0
H75 H 0.0909 0.23848 0.13662 0.0
H76 H 0.96308 0.23894 0.09597 0.0
H77 H 0.02078 0.2896 0.08944 0.0
H78 H 0.9484 0.25821 0.08514 0.0
H79 H 0.00512 0.30797 0.0788 0.0
H80 H 0.0514 0.2441 0.0684 0.0
H81 H 0.03067 0.20862 0.11043 0.0
H82 H 0.0741 0.23109 0.06369 0.0
H83 H 0.05366 0.19617 0.10494 0.0
H84 H 0.05912 0.28899 0.03725 0.0
H85 H 0.99667 0.24717 0.03427 0.0
H86 H 0.93992 0.1903 0.12725 0.0
H87 H 0.96531 0.16028 0.10216 0.0
Li88 Li 0.7954 0.81712 0.1109 0.0
Li89 Li 0.78119 0.78254 0.11514 0.0
Li90 Li 0.81754 0.80361 0.1096 0.0
Li91 Li 0.79182 0.79587 0.08859 0.0
C92 C 0.79963 0.80859 0.14288 0.0
N93 N 0.79443 0.81782 0.17329 0.0
C94 C 0.78098 0.80443 0.14799 0.0
C95 C 0.81563 0.81737 0.15324 0.0
C96 C 0.77865 0.80922 0.16341 0.0
C97 C 0.81271 0.82196 0.16857 0.0
C98 C 0.75122 0.78888 0.10342 0.0
C99 C 0.7174 0.7658 0.09669 0.0
N100 N 0.71129 0.77465 0.10731 0.0
C101 C 0.7446 0.79788 0.11415 0.0
C102 C 0.73752 0.77285 0.09449 0.0
C103 C 0.72436 0.79041 0.11599 0.0
C104 C 0.78464 0.84528 0.10538 0.0
N105 N 0.79427 0.84017 0.11604 0.0
C106 C 0.80408 0.86969 0.13075 0.0
C107 C 0.80381 0.85186 0.12863 0.0
C108 C 0.79478 0.87552 0.1196 0.0
C109 C 0.78478 0.86304 0.10691 0.0
H110 H 0.7774 0.83579 0.09539 0.0
H111 H 0.81184 0.84779 0.1367 0.0
C112 C 0.7714 0.74778 0.13003 0.0
N113 N 0.7639 0.7598 0.12711 0.0
C114 C 0.76068 0.73061 0.13879 0.0
C115 C 0.73483 0.73867 0.14188 0.0
C116 C 0.74598 0.75564 0.13285 0.0
C117 C 0.74223 0.72597 0.14488 0.0
H118 H 0.78583 0.75162 0.1256 0.0
H119 H 0.74039 0.7655 0.13065 0.0
C120 C 0.8214 0.84032 0.0895 0.0
N121 N 0.83213 0.8784 0.08078 0.0
C122 C 0.81387 0.84378 0.07568 0.0
C123 C 0.83448 0.85625 0.09884 0.0
C124 C 0.81947 0.86313 0.07147 0.0
C125 C 0.83967 0.87539 0.09426 0.0
C126 C 0.79141 0.76066 0.09187 0.0
C127 C 0.8049 0.75596 0.08527 0.0
C128 C 0.77122 0.74802 0.0896 0.0
C129 C 0.79793 0.73869 0.07641 0.0
C130 C 0.76483 0.73089 0.08069 0.0
N131 N 0.7782 0.72662 0.07432 0.0
C132 C 0.84334 0.78958 0.11565 0.0
C133 C 0.85924 0.82425 0.11231 0.0
C134 C 0.8615 0.79035 0.11666 0.0
N135 N 0.84259 0.80633 0.11321 0.0
C136 C 0.87773 0.82573 0.11341 0.0
C137 C 0.87899 0.80856 0.11519 0.0
H138 H 0.82981 0.77554 0.11635 0.0
H139 H 0.8582 0.83732 0.11037 0.0
C140 C 0.77219 0.79153 0.05941 0.0
N141 N 0.78739 0.79102 0.0667 0.0
C142 C 0.76981 0.78892 0.04309 0.0
C143 C 0.79857 0.78506 0.04223 0.0
C144 C 0.80054 0.78798 0.0585 0.0
C145 C 0.78311 0.78562 0.03435 0.0
H146 H 0.76221 0.79439 0.06621 0.0
H147 H 0.81279 0.78821 0.06457 0.0
O148 O 0.80233 0.80415 0.12783 0.0
O149 O 0.77099 0.79614 0.10129 0.0
O150 O 0.81568 0.82142 0.09401 0.0
O151 O 0.79797 0.77762 0.10044 0.0
H152 H 0.76848 0.79763 0.14014 0.0
H153 H 0.83017 0.82068 0.14943 0.0
H154 H 0.76429 0.80611 0.16751 0.0
H155 H 0.82497 0.82881 0.1767 0.0
H156 H 0.70664 0.75335 0.0899 0.0
H157 H 0.75493 0.81044 0.12105 0.0
H158 H 0.74234 0.76596 0.08589 0.0
H159 H 0.71904 0.79716 0.12431 0.0
H160 H 0.81208 0.87916 0.14058 0.0
H161 H 0.77747 0.86719 0.09812 0.0
H162 H 0.76693 0.72123 0.14106 0.0
H163 H 0.72061 0.73548 0.14644 0.0
H164 H 0.80369 0.83165 0.06832 0.0
H165 H 0.84016 0.85386 0.10974 0.0
H166 H 0.81369 0.86601 0.06084 0.0
H167 H 0.84959 0.88783 0.10147 0.0
H168 H 0.82059 0.76563 0.08685 0.0
H169 H 0.7606 0.75137 0.09473 0.0
H170 H 0.8082 0.7349 0.07119 0.0
H171 H 0.74923 0.72098 0.07884 0.0
H172 H 0.86184 0.77677 0.11803 0.0
H173 H 0.89087 0.84011 0.11262 0.0
H174 H 0.75782 0.78963 0.03734 0.0
H175 H 0.80938 0.78302 0.0358 0.0
Li176 Li 0.23362 0.00776 0.11162 0.0
Li177 Li 0.26764 0.0277 0.11565 0.0
Li178 Li 0.24842 0.0435 0.11081 0.0
Li179 Li 0.25519 0.02471 0.08905 0.0
C180 C 0.24308 0.01763 0.14312 0.0
N181 N 0.23633 0.99863 0.17182 0.0
C182 C 0.24709 0.00228 0.14505 0.0
C183 C 0.23569 0.02339 0.15579 0.0
C184 C 0.24358 0.99284 0.15965 0.0
C185 C 0.23236 0.01358 0.17021 0.0
C186 C 0.26339 0.99303 0.10014 0.0
C187 C 0.28645 0.98672 0.08607 0.0
N188 N 0.28134 0.97074 0.09539 0.0
C189 C 0.25812 0.97634 0.1094 0.0
C190 C 0.27745 0.9981 0.08822 0.0
C191 C 0.26747 0.96535 0.10689 0.0
C192 C 0.20584 0.96877 0.10623 0.0
N193 N 0.21038 0.98382 0.11644 0.0
C194 C 0.18049 0.96436 0.13074 0.0
C195 C 0.19824 0.98198 0.12859 0.0
C196 C 0.17527 0.94877 0.12013 0.0
C197 C 0.1882 0.95104 0.10782 0.0
H198 H 0.21571 0.9708 0.09657 0.0
H199 H 0.20201 0.99435 0.13631 0.0
C200 C 0.2928 0.04293 0.14128 0.0
N201 N 0.28994 0.03209 0.128 0.0
C202 C 0.30949 0.04877 0.15054 0.0
C203 C 0.32018 0.03224 0.13233 0.0
C204 C 0.30314 0.02656 0.12346 0.0
C205 C 0.32355 0.04368 0.14595 0.0
H206 H 0.28245 0.0477 0.14438 0.0
H207 H 0.30093 0.01842 0.11269 0.0
C208 C 0.20999 0.0146 0.09439 0.0
N209 N 0.16926 0.9941 0.09387 0.0
C210 C 0.19992 0.00063 0.08261 0.0
C211 C 0.19937 0.01825 0.10584 0.0
C212 C 0.17931 0.99038 0.08258 0.0
C213 C 0.17878 0.00772 0.10538 0.0
C214 C 0.29356 0.06096 0.10251 0.0
C215 C 0.30093 0.07623 0.11358 0.0
C216 C 0.30661 0.05711 0.09408 0.0
C217 C 0.32125 0.08722 0.11621 0.0
C218 C 0.32683 0.06844 0.09704 0.0
N219 N 0.33367 0.0831 0.10797 0.0
C220 C 0.25376 0.07662 0.12787 0.0
C221 C 0.23608 0.0707 0.10386 0.0
C222 C 0.25341 0.0941 0.13019 0.0
N223 N 0.24549 0.06559 0.11473 0.0
C224 C 0.23512 0.08789 0.10583 0.0
C225 C 0.24421 0.09997 0.11895 0.0
H226 H 0.26108 0.07209 0.13632 0.0
H227 H 0.22974 0.06165 0.09349 0.0
C228 C 0.24646 0.00637 0.05952 0.0
N229 N 0.25852 0.02357 0.0671 0.0
C230 C 0.24693 0.00539 0.04311 0.0
C231 C 0.27298 0.03953 0.04271 0.0
C232 C 0.27178 0.03996 0.05913 0.0
C233 C 0.26015 0.0222 0.03457 0.0
H234 H 0.23614 0.99359 0.06623 0.0
H235 H 0.28103 0.05348 0.06549 0.0
O236 O 0.24627 0.02704 0.12892 0.0
O237 O 0.25407 0.00371 0.1022 0.0
O238 O 0.23013 0.02423 0.09503 0.0
O239 O 0.27366 0.04956 0.1002 0.0
H240 H 0.25298 0.99781 0.13541 0.0
H241 H 0.23252 0.03528 0.15446 0.0
H242 H 0.24663 0.98093 0.1613 0.0
H243 H 0.22661 0.01785 0.18012 0.0
H244 H 0.29748 0.99058 0.07698 0.0
H245 H 0.2468 0.97178 0.11833 0.0
H246 H 0.28148 0.01073 0.08075 0.0
H247 H 0.26361 0.95246 0.11402 0.0
H248 H 0.17066 0.96315 0.1402 0.0
H249 H 0.18454 0.93928 0.09941 0.0
H250 H 0.31177 0.05785 0.16085 0.0
H251 H 0.33076 0.02804 0.12847 0.0
H252 H 0.2079 0.99757 0.0737 0.0
H253 H 0.20695 0.02886 0.11514 0.0
H254 H 0.17131 0.97942 0.0736 0.0
H255 H 0.17036 0.01029 0.11423 0.0
H256 H 0.29106 0.0794 0.12022 0.0
H257 H 0.30119 0.04537 0.08547 0.0
H258 H 0.32714 0.09896 0.12484 0.0
H259 H 0.33708 0.06551 0.0907 0.0
H260 H 0.26048 0.10308 0.14048 0.0
H261 H 0.22802 0.0921 0.0969 0.0
H262 H 0.23686 0.99181 0.0371 0.0
H263 H 0.28322 0.05277 0.0364 0.0
Li264 Li 0.23015 0.00588 0.88954 0.0
Li265 Li 0.25477 0.02325 0.91112 0.0
Li266 Li 0.25253 0.04144 0.88898 0.0
Li267 Li 0.26693 0.02141 0.88562 0.0
C268 C 0.22437 0.03748 0.90824 0.0
N269 N 0.21102 0.06346 0.91431 0.0
C270 C 0.23268 0.05118 0.92048 0.0
C271 C 0.20918 0.03686 0.89917 0.0
C272 C 0.22574 0.06422 0.92334 0.0
C273 C 0.20265 0.05016 0.9024 0.0
C274 C 0.24802 0.98648 0.91106 0.0
C275 C 0.26347 0.97752 0.93155 0.0
N276 N 0.24562 0.96183 0.93534 0.0
C277 C 0.22985 0.97019 0.9151 0.0
C278 C 0.265 0.99011 0.91927 0.0
C279 C 0.22894 0.95793 0.92744 0.0
C280 C 0.20313 0.97032 0.87464 0.0
N281 N 0.20505 0.98396 0.88547 0.0
C282 C 0.17136 0.96424 0.89312 0.0
C283 C 0.18964 0.98138 0.89455 0.0
C284 C 0.16901 0.94966 0.88229 0.0
C285 C 0.18509 0.95293 0.87281 0.0
H286 H 0.2158 0.97271 0.86779 0.0
H287 H 0.19174 0.99234 0.90327 0.0
C288 C 0.27382 0.03634 0.94094 0.0
N289 N 0.2572 0.02291 0.93334 0.0
C290 C 0.27472 0.0363 0.95741 0.0
C291 C 0.24158 0.00836 0.95779 0.0
C292 C 0.24119 0.00918 0.94139 0.0
C293 C 0.25835 0.02229 0.96604 0.0
H294 H 0.28621 0.04731 0.93423 0.0
H295 H 0.22805 0.99891 0.93503 0.0
C296 C 0.2414 0.02859 0.85864 0.0
N297 N 0.23057 0.04119 0.83198 0.0
C298 C 0.25576 0.04362 0.8493 0.0
C299 C 0.22152 0.01995 0.8544 0.0
C300 C 0.24998 0.04979 0.83587 0.0
C301 C 0.21635 0.02653 0.84089 0.0
C302 C 0.29614 0.05409 0.8959 0.0
C303 C 0.30385 0.06867 0.88425 0.0
C304 C 0.30854 0.0488 0.90369 0.0
C305 C 0.32389 0.07767 0.88054 0.0
C306 C 0.32849 0.05812 0.89961 0.0
N307 N 0.33568 0.07224 0.88821 0.0
C308 C 0.26693 0.08129 0.89394 0.0
C309 C 0.24227 0.06859 0.87412 0.0
C310 C 0.26813 0.09962 0.89311 0.0
N311 N 0.25415 0.06621 0.88454 0.0
C312 C 0.24321 0.08681 0.87273 0.0
C313 C 0.25614 0.10247 0.88243 0.0
H314 H 0.27576 0.07888 0.90248 0.0
H315 H 0.23148 0.05626 0.86736 0.0
C316 C 0.28686 0.00111 0.87815 0.0
N317 N 0.28563 0.01733 0.87441 0.0
C318 C 0.29815 0.99573 0.86894 0.0
C319 C 0.30733 0.02425 0.85248 0.0
C320 C 0.29579 0.02905 0.86201 0.0
C321 C 0.30819 0.00713 0.85573 0.0
H322 H 0.2784 0.99184 0.88786 0.0
H323 H 0.29434 0.04168 0.85912 0.0
O324 O 0.23145 0.02508 0.9049 0.0
O325 O 0.24918 0.99882 0.89916 0.0
O326 O 0.24676 0.022 0.87163 0.0
O327 O 0.27653 0.04498 0.89962 0.0
H328 H 0.24453 0.05189 0.92755 0.0
H329 H 0.20274 0.02645 0.88955 0.0
H330 H 0.23212 0.07501 0.9327 0.0
H331 H 0.19102 0.04997 0.89539 0.0
H332 H 0.27647 0.98025 0.93807 0.0
H333 H 0.21656 0.96711 0.90887 0.0
H334 H 0.27917 0.00265 0.9163 0.0
H335 H 0.21496 0.94533 0.93074 0.0
H336 H 0.1593 0.96218 0.90066 0.0
H337 H 0.18396 0.94184 0.86458 0.0
H338 H 0.28789 0.04737 0.96332 0.0
H339 H 0.22883 0.99697 0.96392 0.0
H340 H 0.27117 0.05061 0.85246 0.0
H341 H 0.21018 0.00838 0.86149 0.0
H342 H 0.26094 0.06144 0.82856 0.0
H343 H 0.20103 0.02001 0.8375 0.0
H344 H 0.29443 0.07281 0.87799 0.0
H345 H 0.30281 0.03755 0.91273 0.0
H346 H 0.33004 0.08891 0.8715 0.0
H347 H 0.33824 0.05412 0.90549 0.0
H348 H 0.27812 0.11139 0.90088 0.0
H349 H 0.23342 0.08843 0.86463 0.0
H350 H 0.29845 0.98239 0.87175 0.0
H351 H 0.3146 0.0332 0.84222 0.0
Li352 Li 0.02623 0.25743 0.91071 0.0
Li353 Li 0.04347 0.24879 0.88863 0.0
Li354 Li 0.02709 0.26811 0.88362 0.0
Li355 Li 0.00778 0.2344 0.88926 0.0
C356 C 0.06022 0.29497 0.89605 0.0
N357 N 0.07964 0.33521 0.89106 0.0
C358 C 0.07527 0.30351 0.88483 0.0
C359 C 0.05512 0.30688 0.9048 0.0
C360 C 0.08489 0.32389 0.88245 0.0
C361 C 0.06511 0.32721 0.9021 0.0
C362 C 0.01455 0.21191 0.90777 0.0
C363 C 0.00529 0.1789 0.89959 0.0
N364 N 0.99204 0.17156 0.91162 0.0
C365 C 0.00092 0.20406 0.92009 0.0
C366 C 0.01683 0.19926 0.89745 0.0
C367 C 0.98965 0.18361 0.92182 0.0
C368 C 0.00987 0.25383 0.94084 0.0
N369 N 0.02693 0.26278 0.93245 0.0
C370 C 0.04564 0.27735 0.9558 0.0
C371 C 0.04459 0.27456 0.93949 0.0
C372 C 0.02836 0.26768 0.96489 0.0
C373 C 0.01025 0.2561 0.9572 0.0
H374 H 0.99606 0.24451 0.93486 0.0
H375 H 0.05791 0.28146 0.93247 0.0
C376 C 0.07699 0.25524 0.87154 0.0
N377 N 0.06542 0.24576 0.88418 0.0
C378 C 0.09441 0.25484 0.86899 0.0
C379 C 0.08711 0.23417 0.89208 0.0
C380 C 0.06999 0.23519 0.89431 0.0
C381 C 0.09972 0.24442 0.87948 0.0
H382 H 0.07292 0.26352 0.8637 0.0
H383 H 0.06059 0.22798 0.90435 0.0
C384 C 0.99233 0.26332 0.89708 0.0
N385 N 0.96738 0.27862 0.89491 0.0
C386 C 0.97864 0.25749 0.88481 0.0
C387 C 0.99313 0.27667 0.90841 0.0
C388 C 0.96622 0.26547 0.88386 0.0
C389 C 0.98044 0.28431 0.90706 0.0
C390 C 0.01784 0.23745 0.85736 0.0
C391 C 0.00362 0.24064 0.85017 0.0
C392 C 0.0239 0.22539 0.85002 0.0
C393 C 0.99538 0.23136 0.83584 0.0
C394 C 0.01531 0.21637 0.83569 0.0
N395 N 0.00133 0.2195 0.82896 0.0
C396 C 0.03929 0.29076 0.85654 0.0
C397 C 0.02509 0.3029 0.8749 0.0
C398 C 0.04373 0.30636 0.84632 0.0
N399 N 0.03013 0.28928 0.8705 0.0
C400 C 0.02922 0.31877 0.86499 0.0
C401 C 0.03867 0.32061 0.8505 0.0
H402 H 0.04373 0.28013 0.85355 0.0
H403 H 0.01849 0.30189 0.88626 0.0
C404 C 0.96832 0.20872 0.89552 0.0
N405 N 0.98311 0.21101 0.88578 0.0
C406 C 0.94981 0.19182 0.89462 0.0
C407 C 0.962 0.17982 0.87369 0.0
C408 C 0.98037 0.19692 0.87507 0.0
C409 C 0.94643 0.17717 0.88352 0.0
H410 H 0.97106 0.21987 0.90424 0.0
H411 H 0.99248 0.19869 0.86784 0.0
O412 O 0.05013 0.27499 0.89815 0.0
O413 O 0.02524 0.23185 0.90554 0.0
O414 O 0.0044 0.25546 0.89838 0.0
O415 O 0.02625 0.24653 0.87129 0.0
H416 H 0.07932 0.29448 0.8779 0.0
H417 H 0.04335 0.30046 0.91341 0.0
H418 H 0.09648 0.33069 0.87374 0.0
H419 H 0.06123 0.33659 0.9087 0.0
H420 H 0.00679 0.16893 0.89163 0.0
H421 H 0.99892 0.21365 0.92812 0.0
H422 H 0.02715 0.20512 0.88773 0.0
H423 H 0.97895 0.17731 0.93125 0.0
H424 H 0.05983 0.28674 0.96126 0.0
H425 H 0.99662 0.24835 0.9638 0.0
H426 H 0.1038 0.26283 0.85911 0.0
H427 H 0.09087 0.22612 0.90045 0.0
H428 H 0.97749 0.24679 0.87619 0.0
H429 H 0.00353 0.28117 0.91808 0.0
H430 H 0.95558 0.26114 0.8744 0.0
H431 H 0.98098 0.29476 0.91568 0.0
H432 H -0.00089 0.25029 0.85553 0.0
H433 H 0.03503 0.22294 0.8554 0.0
H434 H 0.98431 0.23364 0.83015 0.0
H435 H 0.01975 0.2069 0.82991 0.0
H436 H 0.05166 0.30762 0.83552 0.0
H437 H 0.02535 0.32963 0.86871 0.0
H438 H 0.9384 0.19005 0.90279 0.0
H439 H 0.96002 0.16874 0.86509 0.0
Li440 Li 0.80148 0.81975 0.88999 0.0
Li441 Li 0.79341 0.79372 0.91156 0.0
Li442 Li 0.81597 0.7984 0.88939 0.0
Li443 Li 0.78204 0.78447 0.88462 0.0
C444 C 0.83889 0.83059 0.90699 0.0
N445 N 0.87904 0.85621 0.90887 0.0
C446 C 0.84951 0.82995 0.91999 0.0
C447 C 0.84867 0.84421 0.89492 0.0
C448 C 0.86981 0.84307 0.92074 0.0
C449 C 0.86897 0.85703 0.89608 0.0
C450 C 0.75583 0.7919 0.89712 0.0
C451 C 0.72242 0.76626 0.90232 0.0
N452 N 0.71587 0.77397 0.89105 0.0
C453 C 0.74876 0.79965 0.88567 0.0
C454 C 0.74257 0.77511 0.90557 0.0
C455 C 0.72851 0.79034 0.88275 0.0
C456 C 0.79736 0.8484 0.87298 0.0
N457 N 0.80484 0.84501 0.88631 0.0
C458 C 0.81561 0.87759 0.89564 0.0
C459 C 0.8139 0.85911 0.89755 0.0
C460 C 0.80761 0.88135 0.88218 0.0
C461 C 0.79844 0.86658 0.87072 0.0
H462 H 0.7902 0.83683 0.86429 0.0
H463 H 0.81947 0.85586 0.90813 0.0
C464 C 0.80006 0.78346 0.94176 0.0
N465 N 0.78888 0.78908 0.93341 0.0
C466 C 0.79789 0.78116 0.9581 0.0
C467 C 0.77246 0.79006 0.95683 0.0
C468 C 0.77526 0.79237 0.94055 0.0
C469 C 0.78396 0.78452 0.96584 0.0
H470 H 0.81097 0.78122 0.93574 0.0
H471 H 0.7668 0.79713 0.93362 0.0
C472 C 0.81075 0.80337 0.85789 0.0
N473 N 0.82519 0.79953 0.8292 0.0
C474 C 0.80676 0.78482 0.85267 0.0
C475 C 0.82193 0.81996 0.84849 0.0
C476 C 0.81424 0.78318 0.83814 0.0
C477 C 0.82915 0.81772 0.83403 0.0
C478 C 0.78491 0.75369 0.89885 0.0
C479 C 0.78882 0.74314 0.88751 0.0
C480 C 0.77128 0.74356 0.91084 0.0
C481 C 0.77865 0.72256 0.88813 0.0
C482 C 0.76142 0.72296 0.91105 0.0
N483 N 0.76526 0.71298 0.89977 0.0
C484 C 0.84142 0.78364 0.89296 0.0
C485 C 0.85322 0.80998 0.87462 0.0
C486 C 0.8583 0.78216 0.89092 0.0
N487 N 0.8392 0.79737 0.88486 0.0
C488 C 0.87038 0.80905 0.87223 0.0
C489 C 0.87303 0.79498 0.88045 0.0
H490 H 0.83021 0.77405 0.90125 0.0
H491 H 0.85129 0.82101 0.86853 0.0
C492 C 0.75872 0.77422 0.85769 0.0
N493 N 0.76021 0.76675 0.87178 0.0
C494 C 0.74224 0.7636 0.84815 0.0
C495 C 0.729 0.73767 0.8677 0.0
C496 C 0.74584 0.74874 0.87683 0.0
C497 C 0.72699 0.74528 0.85329 0.0
H498 H 0.76996 0.78883 0.85415 0.0
H499 H 0.74691 0.74333 0.88826 0.0
O500 O 0.81902 0.81792 0.90604 0.0
O501 O 0.77566 0.80043 0.89979 0.0
O502 O 0.80353 0.80533 0.87204 0.0
O503 O 0.795 0.77384 0.89863 0.0
H504 H 0.84213 0.81947 0.92942 0.0
H505 H 0.84069 0.84472 0.88467 0.0
H506 H 0.87823 0.8428 0.93075 0.0
H507 H 0.87674 0.8676 0.8868 0.0
H508 H 0.712 0.75317 0.90867 0.0
H509 H 0.75883 0.81257 0.87898 0.0
H510 H 0.7478 0.76878 0.91434 0.0
H511 H 0.72284 0.79609 0.87383 0.0
H512 H 0.82252 0.8886 0.90481 0.0
H513 H 0.79205 0.86905 0.86024 0.0
H514 H 0.80744 0.77741 0.96464 0.0
H515 H 0.76159 0.79281 0.96234 0.0
H516 H 0.79789 0.77184 0.85971 0.0
H517 H 0.82506 0.83442 0.85237 0.0
H518 H 0.81128 0.76891 0.83395 0.0
H519 H 0.83789 0.83043 0.82665 0.0
H520 H 0.79974 0.75075 0.87843 0.0
H521 H 0.76823 0.75149 0.91981 0.0
H522 H 0.78148 0.7142 0.87939 0.0
H523 H 0.75072 0.71492 0.92018 0.0
H524 H 0.86006 0.77149 0.89781 0.0
H525 H 0.88152 0.81929 0.86416 0.0
H526 H 0.74102 0.77004 0.83719 0.0
H527 H 0.71746 0.72356 0.87201 0.0
Li528 Li 0.02474 0.77745 0.88546 0.0
Li529 Li 0.04077 0.81126 0.8896 0.0
Li530 Li 0.02486 0.78852 0.91205 0.0
Li531 Li 0.00499 0.79322 0.88962 0.0
C532 C 0.05975 0.78533 0.89692 0.0
N533 N 0.08387 0.76961 0.8913 0.0
C534 C 0.07069 0.78983 0.88297 0.0
C535 C 0.06129 0.77306 0.90811 0.0
C536 C 0.08272 0.78165 0.88031 0.0
C537 C 0.07353 0.76522 0.90503 0.0
C538 C 0.02896 0.80978 0.8596 0.0
C539 C 0.02582 0.83318 0.84311 0.0
N540 N 0.04186 0.83609 0.8347 0.0
C541 C 0.04531 0.81289 0.85071 0.0
C542 C 0.01905 0.81992 0.85572 0.0
C543 C 0.05165 0.82631 0.83821 0.0
C544 C 0.02601 0.7583 0.85778 0.0
N545 N 0.02586 0.75714 0.87378 0.0
C546 C 0.03264 0.73062 0.87262 0.0
C547 C 0.02833 0.74316 0.88126 0.0
C548 C 0.03424 0.73246 0.85615 0.0
C549 C 0.03015 0.74598 0.84866 0.0
H550 H 0.02376 0.76937 0.8521 0.0
H551 H 0.02794 0.74237 0.89398 0.0
C552 C 0.08075 0.83941 0.89204 0.0
N553 N 0.06367 0.83642 0.88538 0.0
C554 C 0.09793 0.85765 0.89077 0.0
C555 C 0.07981 0.86959 0.87574 0.0
C556 C 0.06291 0.8511 0.87738 0.0
C557 C 0.09756 0.87301 0.88258 0.0
H558 H 0.08094 0.82778 0.89873 0.0
H559 H 0.04909 0.84877 0.87273 0.0
C560 C 0.9918 0.74874 0.89777 0.0
N561 N 0.97251 0.7085 0.89289 0.0
C562 C 0.9805 0.74067 0.88417 0.0
C563 C 0.99318 0.73638 0.90895 0.0
C564 C 0.9709 0.72028 0.8819 0.0
C565 C 0.98333 0.71606 0.90625 0.0
C566 C 0.03181 0.83172 0.90919 0.0
C567 C 0.04716 0.83983 0.92018 0.0
C568 C 0.02635 0.84393 0.9013 0.0
C569 C 0.05694 0.86012 0.923 0.0
C570 C 0.03646 0.86415 0.90448 0.0
N571 N 0.05144 0.87176 0.91516 0.0
C572 C 0.04287 0.79235 0.94162 0.0
C573 C 0.0079 0.7752 0.9419 0.0
C574 C 0.0434 0.7907 0.95799 0.0
N575 N 0.0253 0.7847 0.934 0.0
C576 C 0.00773 0.77323 0.95827 0.0
C577 C 0.02565 0.78112 0.96652 0.0
H578 H 0.05647 0.80008 0.93501 0.0
H579 H 0.99416 0.76943 0.93548 0.0
C580 C 0.97039 0.78495 0.87263 0.0
N581 N 0.98132 0.79336 0.8858 0.0
C582 C 0.95278 0.78505 0.87022 0.0
C583 C 0.95815 0.80244 0.89494 0.0
C584 C 0.97555 0.80192 0.89691 0.0
C585 C 0.9465 0.79384 0.88151 0.0
H586 H 0.97541 0.77826 0.864 0.0
H587 H 0.98445 0.80828 0.90734 0.0
O588 O 0.04775 0.79305 0.89967 0.0
O589 O 0.0224 0.79654 0.87178 0.0
O590 O 0.00154 0.76867 0.9001 0.0
O591 O 0.02246 0.81199 0.90594 0.0
H592 H 0.06982 0.79947 0.87428 0.0
H593 H 0.05291 0.76942 0.91896 0.0
H594 H 0.09113 0.78487 0.86951 0.0
H595 H 0.07475 0.75558 0.91352 0.0
H596 H 0.01837 0.84121 0.84004 0.0
H597 H 0.05302 0.80503 0.85342 0.0
H598 H 0.00645 0.81781 0.86249 0.0
H599 H 0.06433 0.82892 0.83128 0.0
H600 H 0.0355 0.72018 0.87876 0.0
H601 H 0.03129 0.7478 0.83597 0.0
H602 H 0.11135 0.85981 0.89629 0.0
H603 H 0.07886 0.88126 0.86968 0.0
H604 H 0.97935 0.75008 0.8754 0.0
H605 H 0.00193 0.74243 0.91951 0.0
H606 H 0.9622 0.71382 0.87138 0.0
H607 H 0.98434 0.7063 0.91476 0.0
H608 H 0.05163 0.83058 0.92631 0.0
H609 H 0.01465 0.83792 0.89262 0.0
H610 H 0.06895 0.86663 0.93139 0.0
H611 H 0.03249 0.8738 0.89839 0.0
H612 H 0.05751 0.79737 0.96396 0.0
H613 H 0.99376 0.76576 0.96445 0.0
H614 H 0.94426 0.77847 0.85962 0.0
H615 H 0.95366 0.80919 0.90397 0.0
Li616 Li 0.25574 0.23549 0.88952 0.0
Li617 Li 0.25944 0.2587 0.9102 0.0
Li618 Li 0.23578 0.25084 0.88864 0.0
Li619 Li 0.2713 0.27054 0.88426 0.0
C620 C 0.2285 0.21437 0.91011 0.0
N621 N 0.21528 0.17597 0.91949 0.0
C622 C 0.23618 0.21056 0.92368 0.0
C623 C 0.214 0.19867 0.90137 0.0
C624 C 0.22931 0.19103 0.92822 0.0
C625 C 0.20755 0.17936 0.90629 0.0
C626 C 0.29974 0.26594 0.89491 0.0
C627 C 0.33268 0.29392 0.89618 0.0
N628 N 0.33878 0.28501 0.88562 0.0
C629 C 0.30633 0.25704 0.88408 0.0
C630 C 0.31301 0.2845 0.90105 0.0
C631 C 0.32613 0.26692 0.87954 0.0
C632 C 0.24719 0.19982 0.87373 0.0
N633 N 0.2567 0.21211 0.88601 0.0
C634 C 0.2673 0.19035 0.89575 0.0
C635 C 0.2668 0.20784 0.89684 0.0
C636 C 0.25732 0.17716 0.88339 0.0
C637 C 0.24723 0.18208 0.87222 0.0
H638 H 0.23927 0.2036 0.8653 0.0
H639 H 0.27421 0.21793 0.90647 0.0
C640 C 0.24682 0.2603 0.94066 0.0
N641 N 0.26279 0.26319 0.93222 0.0
C642 C 0.24794 0.2622 0.95703 0.0
C643 C 0.28189 0.26981 0.95572 0.0
C644 C 0.28015 0.26789 0.93933 0.0
C645 C 0.2656 0.26687 0.96476 0.0
H646 H 0.2331 0.25619 0.93467 0.0
H647 H 0.29245 0.26962 0.93233 0.0
C648 C 0.24025 0.24633 0.85837 0.0
N649 N 0.21672 0.24264 0.83282 0.0
C650 C 0.24608 0.26197 0.84779 0.0
C651 C 0.22246 0.2288 0.85594 0.0
C652 C 0.23399 0.25981 0.83494 0.0
C653 C 0.21076 0.22724 0.84297 0.0
C654 C 0.25334 0.28865 0.9088 0.0
C655 C 0.23501 0.28644 0.91279 0.0
C656 C 0.27021 0.3023 0.91697 0.0
C657 C 0.23386 0.29784 0.92498 0.0
C658 C 0.26843 0.31338 0.92911 0.0
N659 N 0.25045 0.31094 0.93283 0.0
C660 C 0.1947 0.23429 0.89179 0.0
C661 C 0.20954 0.26058 0.87343 0.0
C662 C 0.17646 0.23312 0.88974 0.0
N663 N 0.21077 0.24796 0.88376 0.0
C664 C 0.19152 0.25972 0.87082 0.0
C665 C 0.17477 0.24616 0.87932 0.0
H666 H 0.19618 0.22476 0.90022 0.0
H667 H 0.22265 0.27162 0.86749 0.0
C668 C 0.29871 0.28772 0.85935 0.0
N669 N 0.29099 0.29161 0.8723 0.0
C670 C 0.31165 0.30307 0.84951 0.0
C671 C 0.309 0.32611 0.86693 0.0
C672 C 0.29606 0.31034 0.87635 0.0
C673 C 0.31667 0.32251 0.85317 0.0
H674 H 0.29421 0.27262 0.85635 0.0
H675 H 0.28945 0.31296 0.88655 0.0
O676 O 0.23546 0.23335 0.9052 0.0
O677 O 0.28033 0.25669 0.89925 0.0
O678 O 0.25184 0.24818 0.87107 0.0
O679 O 0.25474 0.27743 0.89704 0.0
H680 H 0.24751 0.22252 0.93052 0.0
H681 H 0.20798 0.20136 0.89079 0.0
H682 H 0.2352 0.18786 0.93864 0.0
H683 H 0.19644 0.16706 0.89957 0.0
H684 H 0.34309 0.30835 0.90076 0.0
H685 H 0.29622 0.24276 0.87909 0.0
H686 H 0.30811 0.29168 0.90932 0.0
H687 H 0.33142 0.26025 0.87112 0.0
H688 H 0.27533 0.18713 0.90454 0.0
H689 H 0.23905 0.17213 0.86268 0.0
H690 H 0.23505 0.25979 0.96359 0.0
H691 H 0.2956 0.27289 0.96127 0.0
H692 H 0.25969 0.2757 0.84953 0.0
H693 H 0.21758 0.21665 0.86412 0.0
H694 H 0.2383 0.27181 0.82668 0.0
H695 H 0.19691 0.2138 0.841 0.0
H696 H 0.22179 0.27597 0.90664 0.0
H697 H 0.28448 0.30406 0.91416 0.0
H698 H 0.21977 0.29623 0.92822 0.0
H699 H 0.28134 0.32386 0.93561 0.0
H700 H 0.16398 0.2226 0.89666 0.0
H701 H 0.19081 0.26978 0.86245 0.0
H702 H 0.31714 0.29976 0.83889 0.0
H703 H 0.31208 0.34083 0.86991 0.0
Li704 Li 0.81285 0.04447 0.89127 0.0
Li705 Li 0.78905 0.025 0.91173 0.0
Li706 Li 0.79795 0.0092 0.89076 0.0
Li707 Li 0.77799 0.02456 0.88535 0.0
C708 C 0.83354 0.03897 0.91266 0.0
N709 N 0.87159 0.06466 0.92251 0.0
C710 C 0.83686 0.05061 0.92607 0.0
C711 C 0.84955 0.04028 0.90432 0.0
C712 C 0.85622 0.06352 0.93085 0.0
C713 C 0.86868 0.05341 0.90946 0.0
C714 C 0.78164 0.05741 0.89558 0.0
C715 C 0.75326 0.06176 0.89639 0.0
N716 N 0.76202 0.07658 0.88566 0.0
C717 C 0.79038 0.0727 0.88458 0.0
C718 C 0.76296 0.0519 0.90158 0.0
C719 C 0.78022 0.08222 0.87971 0.0
C720 C 0.84861 0.0712 0.87564 0.0
N721 N 0.83621 0.06885 0.88772 0.0
C722 C 0.85779 0.10163 0.89675 0.0
C723 C 0.84035 0.08362 0.89813 0.0
C724 C 0.87101 0.10439 0.88454 0.0
C725 C 0.86631 0.08895 0.87388 0.0
H726 H 0.8449 0.05925 0.8675 0.0
H727 H 0.83021 0.08124 0.90766 0.0
C728 C 0.78434 0.00986 0.94236 0.0
N729 N 0.78355 0.02398 0.93359 0.0
C730 C 0.78082 0.00871 0.95855 0.0
C731 C 0.77661 0.03721 0.95651 0.0
C732 C 0.77985 0.03759 0.94027 0.0
C733 C 0.77697 0.02255 0.96576 0.0
H734 H 0.78787 -0.0004 0.93677 0.0
H735 H 0.77976 0.04891 0.93305 0.0
C736 C 0.80315 0.01783 0.86032 0.0
N737 N 0.80776 0.99813 0.83509 0.0
C738 C 0.78785 0.00797 0.84946 0.0
C739 C 0.8208 0.01767 0.85834 0.0
C740 C 0.79048 0.99812 0.83677 0.0
C741 C 0.82283 0.0076 0.84552 0.0
C742 C 0.75913 0.98839 0.90976 0.0
C743 C 0.76089 0.97198 0.91364 0.0
C744 C 0.74516 0.99149 0.91754 0.0
C745 C 0.74874 0.95903 0.92534 0.0
C746 C 0.73333 0.97823 0.9292 0.0
N747 N 0.73535 0.96242 0.93283 0.0
C748 C 0.81498 0.98539 0.89531 0.0
C749 C 0.79008 0.9736 0.8757 0.0
C750 C 0.81718 0.96891 0.89341 0.0
N751 N 0.80161 0.98742 0.8865 0.0
C752 C 0.79205 0.95705 0.87321 0.0
C753 C 0.80567 0.95447 0.8822 0.0
H754 H 0.8235 0.99628 0.90417 0.0
H755 H 0.77911 0.97525 0.86922 0.0
C756 C 0.76121 0.03395 0.85958 0.0
N757 N 0.75711 0.02264 0.87275 0.0
C758 C 0.74609 0.03085 0.84918 0.0
C759 C 0.72281 0.00531 0.86658 0.0
C760 C 0.73836 0.00879 0.87655 0.0
C761 C 0.7267 0.01603 0.8525 0.0
H762 H 0.77632 0.04477 0.85683 0.0
H763 H 0.73557 -0.00012 0.88698 0.0
O764 O 0.81472 0.02669 0.90751 0.0
O765 O 0.79117 0.04765 0.90025 0.0
O766 O 0.80087 0.02756 0.87284 0.0
O767 O 0.77102 0.00134 0.89843 0.0
H768 H 0.82463 0.04986 0.93261 0.0
H769 H 0.84722 0.03145 0.89387 0.0
H770 H 0.85902 0.0727 0.94116 0.0
H771 H 0.88122 0.05469 0.90305 0.0
H772 H 0.73876 0.05758 0.90087 0.0
H773 H 0.80477 0.07704 0.87973 0.0
H774 H 0.75594 0.04001 0.91003 0.0
H775 H 0.78676 0.09403 0.87116 0.0
H776 H 0.86111 0.11313 0.90534 0.0
H777 H 0.87619 0.09063 0.86431 0.0
H778 H 0.78162 0.99748 0.96543 0.0
H779 H 0.7739 0.04823 0.96179 0.0
H780 H 0.77402 0.00773 0.85085 0.0
H781 H 0.83268 0.02492 0.86676 0.0
H782 H 0.77874 0.9904 0.8283 0.0
H783 H 0.83635 0.00726 0.84391 0.0
H784 H 0.77157 0.96929 0.90777 0.0
H785 H 0.7437 0.00419 0.9148 0.0
H786 H 0.74999 0.94632 0.9285 0.0
H787 H 0.72259 0.98056 0.9354 0.0
H788 H 0.82731 0.96718 0.90104 0.0
H789 H 0.78279 0.94623 0.86451 0.0
H790 H 0.74956 0.03942 0.83843 0.0
H791 H 0.70805 0.99361 0.86941 0.0
Li792 Li 0.81445 0.04232 0.10731 0.0
Li793 Li 0.77855 0.02635 0.11476 0.0
Li794 Li 0.79394 0.00695 0.10969 0.0
Li795 Li 0.78645 0.02157 0.08823 0.0
C796 C 0.80112 0.01717 0.13944 0.0
N797 N 0.80095 0.99525 0.16503 0.0
C798 C 0.78336 0.00414 0.14688 0.0
C799 C 0.81879 0.0191 0.14503 0.0
C800 C 0.78359 0.99317 0.1598 0.0
C801 C 0.81839 0.00787 0.15798 0.0
C802 C 0.78887 0.06161 0.10038 0.0
C803 C 0.76624 0.07387 0.09753 0.0
N804 N 0.77959 0.09105 0.10453 0.0
C805 C 0.80243 0.07946 0.10745 0.0
C806 C 0.77068 0.05884 0.09527 0.0
C807 C 0.79743 0.09413 0.10947 0.0
C808 C 0.84832 0.07533 0.09606 0.0
N809 N 0.83956 0.06497 0.10937 0.0
C810 C 0.86615 0.08847 0.12525 0.0
C811 C 0.84801 0.0711 0.1238 0.0
C812 C 0.87534 0.09966 0.11174 0.0
C813 C 0.86634 0.09287 0.09698 0.0
H814 H 0.84113 0.07007 0.08477 0.0
H815 H 0.84049 0.06272 0.1342 0.0
C816 C 0.74181 0.01617 0.1294 0.0
N817 N 0.76111 0.03023 0.12777 0.0
C818 C 0.72931 0.01975 0.13887 0.0
C819 C 0.75693 0.05199 0.14493 0.0
C820 C 0.76891 0.04765 0.13564 0.0
C821 C 0.73691 0.03798 0.14652 0.0
H822 H 0.73614 0.00219 0.1234 0.0
H823 H 0.78447 0.0582 0.13464 0.0
C824 C 0.82136 0.01249 0.08737 0.0
N825 N 0.84097 0.99294 0.07833 0.0
C826 C 0.81083 0.99331 0.08139 0.0
C827 C 0.84187 0.02177 0.08869 0.0
C828 C 0.82101 0.98366 0.07692 0.0
C829 C 0.85151 0.01163 0.08406 0.0
C830 C 0.75177 0.99095 0.09315 0.0
C831 C 0.74846 0.97326 0.08639 0.0
C832 C 0.73916 0.99819 0.08952 0.0
C833 C 0.73265 0.9632 0.07601 0.0
C834 C 0.72352 0.98771 0.07908 0.0
N835 N 0.72062 0.97058 0.0726 0.0
C836 C 0.77811 0.96697 0.11817 0.0
C837 C 0.81305 0.9856 0.11847 0.0
C838 C 0.77852 0.9496 0.12088 0.0
N839 N 0.79523 0.98435 0.11639 0.0
C840 C 0.81415 0.96859 0.12099 0.0
C841 C 0.79673 0.9503 0.12172 0.0
H842 H 0.76414 0.96651 0.11696 0.0
H843 H 0.82643 -0.0003 0.11749 0.0
C844 C 0.77983 0.03595 0.05966 0.0
N845 N 0.77977 0.02017 0.06641 0.0
C846 C 0.77689 0.03629 0.04345 0.0
C847 C 0.7738 0.00409 0.0414 0.0
C848 C 0.77671 0.00435 0.05764 0.0
C849 C 0.77401 0.02028 0.03408 0.0
H850 H 0.78277 0.04857 0.06677 0.0
H851 H 0.77707 0.99213 0.06313 0.0
O852 O 0.8011 0.02764 0.12654 0.0
O853 O 0.79351 0.04706 0.0983 0.0
O854 O 0.81172 0.02221 0.09192 0.0
O855 O 0.76727 0.00112 0.10325 0.0
H856 H 0.76954 0.00234 0.14261 0.0
H857 H 0.83263 0.02892 0.13927 0.0
H858 H 0.76995 0.98297 0.16563 0.0
H859 H 0.83194 0.00912 0.16237 0.0
H860 H 0.75219 0.07188 0.09368 0.0
H861 H 0.81658 0.08192 0.11146 0.0
H862 H 0.76012 0.04527 0.08959 0.0
H863 H 0.80774 0.10797 0.115 0.0
H864 H 0.87268 0.09339 0.13681 0.0
H865 H 0.87315 0.10108 0.08631 0.0
H866 H 0.71392 0.0086 0.14005 0.0
H867 H 0.76325 0.06607 0.15094 0.0
H868 H 0.79494 0.9857 0.08071 0.0
H869 H 0.85024 0.03661 0.09331 0.0
H870 H 0.81302 0.96873 0.07245 0.0
H871 H 0.86738 0.01861 0.08505 0.0
H872 H 0.75815 0.96748 0.08892 0.0
H873 H 0.74141 0.01177 0.0947 0.0
H874 H 0.72998 0.94956 0.07063 0.0
H875 H 0.71369 0.9932 0.07615 0.0
H876 H 0.7648 0.93569 0.12148 0.0
H877 H 0.82844 0.96962 0.12182 0.0
H878 H 0.77728 0.04911 0.03824 0.0
H879 H 0.77221 0.99169 0.03457 0.0
Li880 Li 0.00818 0.80048 0.10838 0.0
Li881 Li 0.02439 0.78116 0.11626 0.0
Li882 Li 0.04384 0.81602 0.11044 0.0
Li883 Li 0.02815 0.7932 0.08942 0.0
C884 C 0.03426 0.81437 0.13997 0.0
N885 N 0.05726 0.83837 0.16425 0.0
C886 C 0.04631 0.80935 0.14863 0.0
C887 C 0.03386 0.83155 0.14368 0.0
C888 C 0.05783 0.82168 0.16086 0.0
C889 C 0.04561 0.84351 0.15599 0.0
C890 C 0.98864 0.7557 0.10091 0.0
C891 C 0.97464 0.72152 0.09359 0.0
N892 N 0.95848 0.71696 0.10252 0.0
C893 C 0.97178 0.75073 0.10984 0.0
C894 C 0.99 0.74103 0.09256 0.0
C895 C 0.95675 0.73104 0.11058 0.0
C896 C 0.97472 0.80032 0.09725 0.0
N897 N 0.98565 0.80306 0.11043 0.0
C898 C 0.96373 0.80915 0.12585 0.0
C899 C 0.98049 0.80726 0.1246 0.0
C900 C 0.95224 0.80663 0.11239 0.0
C901 C 0.9578 0.80194 0.09798 0.0
H902 H 0.97913 0.79676 0.08621 0.0
H903 H 0.98938 0.8091 0.13491 0.0
C904 C 0.03446 0.75468 0.13153 0.0
N905 N 0.02071 0.76031 0.12977 0.0
C906 C 0.03091 0.7392 0.14171 0.0
C907 C -0.00055 0.73611 0.14834 0.0
C908 C 0.00369 0.7517 0.13819 0.0
C909 C 0.01307 0.72955 0.15011 0.0
H910 H 0.04824 0.7623 0.12518 0.0
H911 H 0.99341 0.75703 0.13705 0.0
C912 C 0.03879 0.83177 0.08161 0.0
N913 N 0.05996 0.85877 0.05827 0.0
C914 C 0.05816 0.8365 0.07832 0.0
C915 C 0.03019 0.84076 0.07305 0.0
C916 C 0.06862 0.85018 0.06647 0.0
C917 C 0.04114 0.85438 0.06128 0.0
C918 C 0.05902 0.78733 0.09612 0.0
C919 C 0.07876 0.79957 0.09189 0.0
C920 C 0.04952 0.76733 0.09221 0.0
C921 C 0.08861 0.7916 0.08367 0.0
C922 C 0.05987 0.75991 0.08398 0.0
N923 N 0.07903 0.7721 0.07991 0.0
C924 C 0.08294 0.84017 0.12119 0.0
C925 C 0.06596 0.85707 0.11418 0.0
C926 C 0.10023 0.85802 0.12389 0.0
N927 N 0.06643 0.84009 0.11614 0.0
C928 C 0.08293 0.87523 0.11661 0.0
C929 C 0.10039 0.8758 0.12126 0.0
H930 H 0.08278 0.82637 0.12269 0.0
H931 H 0.05253 0.85649 0.11026 0.0
C932 C 0.01099 0.77784 0.06024 0.0
N933 N 0.02878 0.78766 0.06758 0.0
C934 C 0.00995 0.77489 0.04396 0.0
C935 C 0.04556 0.79205 0.04306 0.0
C936 C 0.04592 0.79465 0.05937 0.0
C937 C 0.0274 0.78221 0.03514 0.0
H938 H 0.9976 0.77277 0.067 0.0
H939 H 0.05989 0.80289 0.06533 0.0
O940 O 0.02337 0.8028 0.12764 0.0
O941 O 0.00345 0.77491 0.09996 0.0
O942 O 0.02825 0.81848 0.09321 0.0
O943 O 0.0491 0.79492 0.10403 0.0
H944 H 0.04692 0.79618 0.14581 0.0
H945 H 0.0248 0.83577 0.13695 0.0
H946 H 0.06729 0.81804 0.16762 0.0
H947 H 0.04555 0.85692 0.15894 0.0
H948 H 0.97553 0.71001 0.08722 0.0
H949 H 0.9704 0.76193 0.11624 0.0
H950 H 0.00267 0.74469 0.08522 0.0
H951 H 0.94369 0.72696 0.11755 0.0
H952 H 0.95986 0.81268 0.13717 0.0
H953 H 0.94902 0.79931 0.08743 0.0
H954 H 0.04205 0.73498 0.14311 0.0
H955 H 0.98555 0.72912 0.15463 0.0
H956 H 0.06503 0.82966 0.08482 0.0
H957 H 0.0152 0.83725 0.07548 0.0
H958 H 0.08361 0.85396 0.06379 0.0
H959 H 0.03467 0.86146 0.05456 0.0
H960 H 0.08635 0.8151 0.09482 0.0
H961 H 0.03435 0.75764 0.09556 0.0
H962 H 0.10385 0.80091 0.08026 0.0
H963 H 0.05268 0.74445 0.08086 0.0
H964 H 0.11353 0.85795 0.12728 0.0
H965 H 0.08257 0.88869 0.11451 0.0
H966 H 0.99566 0.76728 0.03827 0.0
H967 H 0.05935 0.79836 0.03663 0.0
Li968 Li 0.27152 0.27215 0.1138 0.0
Li969 Li 0.25186 0.23657 0.10959 0.0
Li970 Li 0.25945 0.26012 0.08796 0.0
Li971 Li 0.23638 0.25642 0.10878 0.0
C972 C 0.28952 0.2542 0.08919 0.0
N973 N 0.31173 0.25144 0.06504 0.0
C974 C 0.28744 0.23593 0.08522 0.0
C975 C 0.303 0.27109 0.08095 0.0
C976 C 0.2988 0.23485 0.07296 0.0
C977 C 0.31404 0.26938 0.06875 0.0
C978 C 0.2476 0.24139 0.13999 0.0
C979 C 0.22863 0.21228 0.15581 0.0
N980 N 0.24415 0.21843 0.16587 0.0
C981 C 0.26335 0.24744 0.15049 0.0
C982 C 0.23007 0.2237 0.14268 0.0
C983 C 0.26131 0.23563 0.16351 0.0
C984 C 0.28915 0.30012 0.13836 0.0
N985 N 0.29276 0.2919 0.12559 0.0
C986 C 0.32728 0.3094 0.13087 0.0
C987 C 0.31135 0.29647 0.12159 0.0
C988 C 0.32398 0.31762 0.14444 0.0
C989 C 0.30467 0.3131 0.14805 0.0
H990 H 0.27414 0.29598 0.14135 0.0
H991 H 0.31375 0.28945 0.11155 0.0
C992 C 0.23566 0.19572 0.10596 0.0
N993 N 0.24895 0.21156 0.11442 0.0
C994 C 0.23432 0.17741 0.10796 0.0
C995 C 0.25997 0.1919 0.12769 0.0
C996 C 0.26106 0.21003 0.12511 0.0
C997 C 0.24677 0.17538 0.11879 0.0
H998 H 0.22655 0.19745 0.09726 0.0
H999 H 0.27186 0.22296 0.13137 0.0
C1000 C 0.2664 0.30039 0.10326 0.0
N1001 N 0.28495 0.33942 0.11254 0.0
C1002 C 0.25723 0.3068 0.11398 0.0
C1003 C 0.28496 0.31383 0.09721 0.0
C1004 C 0.26686 0.3266 0.11853 0.0
C1005 C 0.29411 0.3335 0.10207 0.0
C1006 C 0.21513 0.22867 0.08836 0.0
C1007 C 0.21091 0.23567 0.07459 0.0
C1008 C 0.19971 0.21434 0.09742 0.0
C1009 C 0.19125 0.22833 0.0702 0.0
C1010 C 0.18026 0.2074 0.09265 0.0
N1011 N 0.17647 0.21449 0.07926 0.0
C1012 C 0.26078 0.24736 0.0575 0.0
C1013 C 0.26831 0.28067 0.05878 0.0
C1014 C 0.2625 0.2484 0.04113 0.0
N1015 N 0.26372 0.26336 0.06593 0.0
C1016 C 0.27004 0.28233 0.04238 0.0
C1017 C 0.26704 0.266 0.03336 0.0
H1018 H 0.25677 0.23368 0.06352 0.0
H1019 H 0.27011 0.293 0.06578 0.0
C1020 C 0.2011 0.24829 0.12508 0.0
N1021 N 0.21286 0.25702 0.11236 0.0
C1022 C 0.18301 0.24768 0.12639 0.0
C1023 C 0.18991 0.26555 0.10176 0.0
C1024 C 0.20782 0.26588 0.10096 0.0
C1025 C 0.17712 0.25604 0.11444 0.0
H1026 H 0.20557 0.2415 0.13402 0.0
H1027 H 0.21759 0.27282 0.09105 0.0
O1028 O 0.27834 0.25554 0.10102 0.0
O1029 O 0.24932 0.25272 0.12714 0.0
O1030 O 0.2574 0.281 0.0989 0.0
O1031 O 0.23425 0.23612 0.09313 0.0
H1032 H 0.27711 0.2227 0.09144 0.0
H1033 H 0.30467 0.28533 0.08377 0.0
H1034 H 0.29729 0.22079 0.06973 0.0
H1035 H 0.3244 0.2823 0.06219 0.0
H1036 H 0.2152 0.19849 0.15799 0.0
H1037 H 0.27707 0.261 0.14856 0.0
H1038 H 0.21781 0.21869 0.1346 0.0
H1039 H 0.2734 0.2401 0.17171 0.0
H1040 H 0.34188 0.31206 0.12795 0.0
H1041 H 0.30158 0.31903 0.15852 0.0
H1042 H 0.22411 0.16513 0.10071 0.0
H1043 H 0.26957 0.19093 0.13639 0.0
H1044 H 0.24294 0.29656 0.11888 0.0
H1045 H 0.29232 0.30908 0.08899 0.0
H1046 H 0.25998 0.33175 0.12687 0.0
H1047 H 0.30853 0.34404 0.09756 0.0
H1048 H 0.22265 0.24685 0.06748 0.0
H1049 H 0.20273 0.20881 0.10813 0.0
H1050 H 0.18775 0.23371 0.05963 0.0
H1051 H 0.16817 0.19643 0.09962 0.0
H1052 H 0.26006 0.23548 0.03458 0.0
H1053 H 0.27304 0.296 0.03681 0.0
H1054 H 0.17352 0.24031 0.13638 0.0
H1055 H 0.18602 0.27252 0.0925 0.0
Li1056 Li 0.68662 0.59833 0.44832 0.0
Li1057 Li 0.70761 0.58446 0.4432 0.0
Li1058 Li 0.68912 0.58857 0.42144 0.0
Li1059 Li 0.67186 0.56253 0.44153 0.0
C1060 C 0.72365 0.62845 0.43723 0.0
N1061 N 0.75102 0.66765 0.44252 0.0
C1062 C 0.73865 0.63362 0.44835 0.0
C1063 C 0.72278 0.64322 0.42861 0.0
C1064 C 0.75229 0.65352 0.45089 0.0
C1065 C 0.73669 0.66295 0.43152 0.0
C1066 C 0.69455 0.57766 0.47506 0.0
C1067 C 0.69508 0.56134 0.49902 0.0
N1068 N 0.70881 0.57901 0.50511 0.0
C1069 C 0.7086 0.59566 0.48156 0.0
C1070 C 0.68766 0.56035 0.48385 0.0
C1071 C 0.71565 0.59604 0.49677 0.0
C1072 C 0.66204 0.6091 0.46329 0.0
N1073 N 0.68149 0.61549 0.46091 0.0
C1074 C 0.69057 0.64403 0.47681 0.0
C1075 C 0.69574 0.63258 0.46748 0.0
C1076 C 0.6706 0.63784 0.47915 0.0
C1077 C 0.65623 0.62023 0.47225 0.0
H1078 H 0.65099 0.59525 0.45826 0.0
H1079 H 0.7111 0.6373 0.4657 0.0
C1080 C 0.74532 0.59434 0.4353 0.0
N1081 N 0.73198 0.58555 0.44709 0.0
C1082 C 0.76363 0.59549 0.43605 0.0
C1083 C 0.7542 0.57846 0.4611 0.0
C1084 C 0.73597 0.57756 0.45983 0.0
C1085 C 0.76823 0.58748 0.44906 0.0
H1086 H 0.74159 0.60032 0.42523 0.0
H1087 H 0.72495 0.57015 0.46884 0.0
C1088 C 0.65458 0.58938 0.42569 0.0
N1089 N 0.634 0.6044 0.41008 0.0
C1090 C 0.63542 0.57672 0.42033 0.0
C1091 C 0.66325 0.60966 0.42316 0.0
C1092 C 0.62526 0.58461 0.41244 0.0
C1093 C 0.65261 0.61698 0.41524 0.0
C1094 C 0.6958 0.54997 0.42635 0.0
C1095 C 0.70123 0.54421 0.41251 0.0
C1096 C 0.69433 0.54011 0.44047 0.0
C1097 C 0.70501 0.52857 0.41302 0.0
C1098 C 0.69824 0.52456 0.4405 0.0
N1099 N 0.70345 0.51915 0.42689 0.0
C1100 C 0.70698 0.60762 0.39304 0.0
C1101 C 0.67319 0.58324 0.39084 0.0
C1102 C 0.7083 0.61058 0.37674 0.0
N1103 N 0.68965 0.59401 0.39967 0.0
C1104 C 0.67379 0.58588 0.37452 0.0
C1105 C 0.69162 0.59941 0.3673 0.0
H1106 H 0.71988 0.61577 0.40037 0.0
H1107 H 0.65974 0.5722 0.3964 0.0
C1108 C 0.63876 0.53394 0.458 0.0
N1109 N 0.65001 0.53703 0.44493 0.0
C1110 C 0.62185 0.51566 0.46045 0.0
C1111 C 0.62871 0.50404 0.43614 0.0
C1112 C 0.64532 0.52261 0.43404 0.0
C1113 C 0.61671 0.50049 0.44943 0.0
H1114 H 0.64278 0.54579 0.46635 0.0
H1115 H 0.65427 0.52562 0.42357 0.0
O1116 O 0.7103 0.60904 0.43439 0.0
O1117 O 0.68749 0.5769 0.46018 0.0
O1118 O 0.66478 0.58189 0.43332 0.0
O1119 O 0.69224 0.56537 0.42605 0.0
H1120 H 0.73972 0.62244 0.45502 0.0
H1121 H 0.71157 0.6395 0.41971 0.0
H1122 H 0.76388 0.65772 0.45953 0.0
H1123 H 0.73614 0.67453 0.42498 0.0
H1124 H 0.68992 0.54805 0.50594 0.0
H1125 H 0.71405 0.60916 0.47493 0.0
H1126 H 0.67674 0.54629 0.47898 0.0
H1127 H 0.72657 0.60987 0.50194 0.0
H1128 H 0.70199 0.65755 0.48207 0.0
H1129 H 0.64068 0.61496 0.47402 0.0
H1130 H 0.77409 0.60254 0.42654 0.0
H1131 H 0.75711 0.57176 0.47115 0.0
H1132 H 0.62853 0.56097 0.42221 0.0
H1133 H 0.678 0.61963 0.42733 0.0
H1134 H 0.61044 0.57499 0.4082 0.0
H1135 H 0.65915 0.63265 0.4132 0.0
H1136 H 0.7025 0.55176 0.40149 0.0
H1137 H 0.69023 0.54444 0.4513 0.0
H1138 H 0.7092 0.52392 0.40239 0.0
H1139 H 0.69716 0.5168 0.45135 0.0
H1140 H 0.72227 0.6212 0.37153 0.0
H1141 H 0.66071 0.57687 0.36755 0.0
H1142 H 0.61281 0.51341 0.47078 0.0
H1143 H 0.62493 0.49277 0.42725 0.0
Li1144 Li 0.44795 0.11144 0.44633 0.0
Li1145 Li 0.46117 0.14652 0.44297 0.0
Li1146 Li 0.45902 0.12476 0.42042 0.0
Li1147 Li 0.48399 0.13331 0.4411 0.0
C1148 C 0.41794 0.11486 0.43674 0.0
N1149 N 0.37873 0.09464 0.4455 0.0
C1150 C 0.41103 0.12255 0.44838 0.0
C1151 C 0.4049 0.09701 0.42945 0.0
C1152 C 0.39115 0.11207 0.45266 0.0
C1153 C 0.38513 0.08697 0.43408 0.0
C1154 C 0.47668 0.14441 0.47283 0.0
C1155 C 0.5044 0.17157 0.48577 0.0
N1156 N 0.49388 0.16704 0.4994 0.0
C1157 C 0.4662 0.13993 0.48702 0.0
C1158 C 0.49599 0.16027 0.47223 0.0
C1159 C 0.47513 0.15159 0.5003 0.0
C1160 C 0.42817 0.07142 0.45442 0.0
N1161 N 0.42984 0.08906 0.45811 0.0
C1162 C 0.40976 0.07524 0.48102 0.0
C1163 C 0.42051 0.09116 0.47088 0.0
C1164 C 0.40884 0.0572 0.47795 0.0
C1165 C 0.41754 0.05515 0.46416 0.0
H1166 H 0.43585 0.07015 0.44434 0.0
H1167 H 0.42215 0.10539 0.47357 0.0
C1168 C 0.45274 0.17521 0.4347 0.0
N1169 N 0.45854 0.16884 0.44742 0.0
C1170 C 0.45059 0.19178 0.43585 0.0
C1171 C 0.46047 0.19502 0.46321 0.0
C1172 C 0.46225 0.17823 0.46157 0.0
C1173 C 0.45453 0.20189 0.45023 0.0
H1174 H 0.44998 0.16746 0.42359 0.0
H1175 H 0.46673 0.17292 0.47156 0.0
C1176 C 0.46539 0.09406 0.42135 0.0
N1177 N 0.46526 0.06854 0.39877 0.0
C1178 C 0.48271 0.09378 0.41792 0.0
C1179 C 0.44795 0.0812 0.41342 0.0
C1180 C 0.48235 0.0808 0.40643 0.0
C1181 C 0.44821 0.06846 0.40201 0.0
C1182 C 0.49673 0.16874 0.42225 0.0
C1183 C 0.50502 0.17133 0.40722 0.0
C1184 C 0.50448 0.18455 0.43283 0.0
C1185 C 0.5212 0.18955 0.40315 0.0
C1186 C 0.52065 0.20255 0.42832 0.0
N1187 N 0.52862 0.20465 0.41371 0.0
C1188 C 0.44012 0.12077 0.39092 0.0
C1189 C 0.47041 0.12082 0.39006 0.0
C1190 C 0.43885 0.11983 0.37446 0.0
N1191 N 0.45584 0.12142 0.3983 0.0
C1192 C 0.46956 0.11951 0.37369 0.0
C1193 C 0.4539 0.11953 0.36564 0.0
H1194 H 0.42885 0.12147 0.39779 0.0
H1195 H 0.48291 0.12171 0.39622 0.0
C1196 C 0.51461 0.13238 0.45833 0.0
N1197 N 0.50977 0.13752 0.44442 0.0
C1198 C 0.53315 0.13415 0.46028 0.0
C1199 C 0.5412 0.14625 0.43351 0.0
C1200 C 0.52257 0.14428 0.4321 0.0
C1201 C 0.54668 0.14115 0.44774 0.0
H1202 H 0.50395 0.1266 0.46781 0.0
H1203 H 0.51805 0.14745 0.42097 0.0
O1204 O 0.43739 0.12478 0.43252 0.0
O1205 O 0.46813 0.13308 0.45973 0.0
O1206 O 0.46552 0.10681 0.43246 0.0
O1207 O 0.48075 0.15101 0.42634 0.0
H1208 H 0.42095 0.13634 0.45415 0.0
H1209 H 0.41 0.09095 0.42035 0.0
H1210 H 0.38561 0.11778 0.46171 0.0
H1211 H 0.37488 0.07309 0.4286 0.0
H1212 H 0.51932 0.18391 0.48544 0.0
H1213 H 0.45132 0.12763 0.48777 0.0
H1214 H 0.50447 0.16379 0.46147 0.0
H1215 H 0.46715 0.14833 0.51133 0.0
H1216 H 0.40322 0.07731 0.49159 0.0
H1217 H 0.41689 0.04134 0.46134 0.0
H1218 H 0.44629 0.19688 0.42552 0.0
H1219 H 0.46363 0.20253 0.47448 0.0
H1220 H 0.49629 0.10348 0.42403 0.0
H1221 H 0.43442 0.0812 0.41596 0.0
H1222 H 0.49566 0.08049 0.40361 0.0
H1223 H 0.43485 0.05854 0.39571 0.0
H1224 H 0.49911 0.15938 0.39879 0.0
H1225 H 0.49801 0.18307 0.44435 0.0
H1226 H 0.52783 0.19169 0.3916 0.0
H1227 H 0.5268 0.21488 0.43642 0.0
H1228 H 0.42655 0.11991 0.36868 0.0
H1229 H 0.48119 0.11874 0.36739 0.0
H1230 H 0.5368 0.12991 0.47138 0.0
H1231 H 0.55095 0.15106 0.42339 0.0
Li1232 Li 0.93394 0.36092 0.44891 0.0
Li1233 Li 0.89998 0.341 0.44424 0.0
Li1234 Li 0.92227 0.3586 0.42207 0.0
Li1235 Li 0.91471 0.37677 0.44392 0.0
C1236 C 0.92976 0.32629 0.43311 0.0
N1237 N 0.94719 0.30347 0.42866 0.0
C1238 C 0.92391 0.30938 0.44223 0.0
C1239 C 0.94415 0.33132 0.42146 0.0
C1240 C 0.933 0.29812 0.43988 0.0
C1241 C 0.95287 0.31966 0.41947 0.0
C1242 C 0.90888 0.35051 0.47603 0.0
C1243 C 0.89796 0.34645 0.50306 0.0
N1244 N 0.90179 0.33141 0.50471 0.0
C1245 C 0.91277 0.33508 0.478 0.0
C1246 C 0.90148 0.35632 0.48865 0.0
C1247 C 0.90907 0.32558 0.49259 0.0
C1248 C 0.95888 0.37614 0.4747 0.0
N1249 N 0.95589 0.36495 0.46161 0.0
C1250 C 0.98546 0.36404 0.46667 0.0
C1251 C 0.96868 0.35871 0.45754 0.0
C1252 C 0.98907 0.37595 0.48003 0.0
C1253 C 0.97538 0.38176 0.48416 0.0
H1254 H 0.94878 0.38134 0.47748 0.0
H1255 H 0.96634 0.35019 0.44697 0.0
C1256 C 0.87202 0.30192 0.43849 0.0
N1257 N 0.87662 0.31693 0.44876 0.0
C1258 C 0.85446 0.28409 0.44019 0.0
C1259 C 0.84697 0.29727 0.4633 0.0
C1260 C 0.86457 0.31499 0.46102 0.0
C1261 C 0.84174 0.28168 0.4527 0.0
H1262 H 0.88181 0.30402 0.42875 0.0
H1263 H 0.86835 0.32732 0.46879 0.0
C1264 C 0.9602 0.39439 0.43635 0.0
N1265 N 0.00019 0.41604 0.44242 0.0
C1266 C 0.9675 0.40973 0.44736 0.0
C1267 C 0.97327 0.39025 0.42827 0.0
C1268 C 0.98776 0.42046 0.4503 0.0
C1269 C 0.99343 0.40132 0.43155 0.0
C1270 C 0.87688 0.34775 0.42629 0.0
C1271 C 0.86781 0.3342 0.41405 0.0
C1272 C 0.86532 0.35053 0.43741 0.0
C1273 C 0.84723 0.3235 0.41322 0.0
C1274 C 0.84479 0.33956 0.43616 0.0
N1275 N 0.83625 0.32637 0.42421 0.0
C1276 C 0.91586 0.34118 0.39208 0.0
C1277 C 0.93995 0.37515 0.3928 0.0
C1278 C 0.91782 0.34075 0.37574 0.0
N1279 N 0.9267 0.35825 0.40018 0.0
C1280 C 0.94256 0.37535 0.3765 0.0
C1281 C 0.93129 0.35802 0.36772 0.0
H1282 H 0.9054 0.32799 0.39831 0.0
H1283 H 0.94826 0.38855 0.39956 0.0
C1284 C 0.91964 0.40972 0.46111 0.0
N1285 N 0.9113 0.39856 0.44804 0.0
C1286 C 0.91844 0.4267 0.46373 0.0
C1287 C 0.8993 0.41979 0.43976 0.0
C1288 C 0.90116 0.40314 0.43747 0.0
C1289 C 0.90821 0.43187 0.45293 0.0
H1290 H 0.92756 0.40562 0.46932 0.0
H1291 H 0.89481 0.39404 0.42713 0.0
O1292 O 0.92074 0.33727 0.43504 0.0
O1293 O 0.91224 0.35996 0.46183 0.0
O1294 O 0.94033 0.3832 0.43377 0.0
O1295 O 0.89697 0.35784 0.42766 0.0
H1296 H 0.91235 0.30487 0.45094 0.0
H1297 H 0.94862 0.34412 0.4141 0.0
H1298 H 0.92869 0.28506 0.44691 0.0
H1299 H 0.96414 0.32349 0.41059 0.0
H1300 H 0.89217 0.35075 0.51293 0.0
H1301 H 0.91869 0.33058 0.4684 0.0
H1302 H 0.89841 0.36828 0.48729 0.0
H1303 H 0.91202 0.3136 0.49427 0.0
H1304 H 0.99566 0.35918 0.46319 0.0
H1305 H 0.9778 0.39116 0.49427 0.0
H1306 H 0.85079 0.27233 0.43178 0.0
H1307 H 0.83728 0.29594 0.47293 0.0
H1308 H 0.95761 0.41313 0.45372 0.0
H1309 H 0.96789 0.37846 0.4197 0.0
H1310 H 0.99359 0.43224 0.4589 0.0
H1311 H 0.00369 0.39815 0.42549 0.0
H1312 H 0.87654 0.33183 0.40539 0.0
H1313 H 0.87212 0.36081 0.44706 0.0
H1314 H 0.84 0.31287 0.40388 0.0
H1315 H 0.83565 0.34146 0.44475 0.0
H1316 H 0.90846 0.32721 0.36942 0.0
H1317 H 0.95312 0.38896 0.37079 0.0
H1318 H 0.92551 0.43577 0.47398 0.0
H1319 H 0.89155 0.42354 0.43109 0.0
Li1320 Li 0.92183 0.35742 0.24471 0.0
Li1321 Li 0.89694 0.33984 0.22407 0.0
Li1322 Li 0.93339 0.35537 0.21847 0.0
Li1323 Li 0.91819 0.3758 0.22186 0.0
C1324 C 0.91949 0.32166 0.24313 0.0
N1325 N 0.92573 0.29814 0.26388 0.0
C1326 C 0.90353 0.30424 0.24884 0.0
C1327 C 0.93863 0.32701 0.24782 0.0
C1328 C 0.90699 0.29257 0.25937 0.0
C1329 C 0.94148 0.31495 0.25836 0.0
C1330 C 0.88104 0.35852 0.2419 0.0
C1331 C 0.85242 0.35999 0.23341 0.0
N1332 N 0.8446 0.35455 0.24811 0.0
C1333 C 0.87282 0.35313 0.25698 0.0
C1334 C 0.87085 0.36213 0.23005 0.0
C1335 C 0.85433 0.35113 0.25986 0.0
C1336 C 0.94162 0.37341 0.27366 0.0
N1337 N 0.92599 0.35768 0.26677 0.0
C1338 C 0.91471 0.34186 0.29174 0.0
C1339 C 0.91253 0.34215 0.27544 0.0
C1340 C 0.93065 0.35789 0.29918 0.0
C1341 C 0.94419 0.37387 0.29 0.0
H1342 H 0.95189 0.3857 0.2665 0.0
H1343 H 0.89992 0.33014 0.26971 0.0
C1344 C 0.86759 0.30909 0.20575 0.0
N1345 N 0.87177 0.31766 0.22026 0.0
C1346 C 0.84963 0.29187 0.20305 0.0
C1347 C 0.84052 0.29296 0.23014 0.0
C1348 C 0.85875 0.30992 0.2324 0.0
C1349 C 0.83596 0.28369 0.21538 0.0
H1350 H 0.8784 0.31538 0.19641 0.0
H1351 H 0.86274 0.31657 0.24395 0.0
C1352 C 0.96246 0.39095 0.22965 0.0
N1353 N 0.00253 0.41473 0.22494 0.0
C1354 C 0.96952 0.40704 0.21939 0.0
C1355 C 0.97576 0.3871 0.23767 0.0
C1356 C 0.98984 0.41886 0.21714 0.0
C1357 C 0.99596 0.39925 0.23508 0.0
C1358 C 0.90917 0.36088 0.19095 0.0
C1359 C 0.92447 0.36906 0.17992 0.0
C1360 C 0.89061 0.35803 0.18693 0.0
C1361 C 0.92105 0.37464 0.16513 0.0
C1362 C 0.88779 0.36383 0.17203 0.0
N1363 N 0.90295 0.37197 0.16153 0.0
C1364 C 0.94753 0.33187 0.20677 0.0
C1365 C 0.96723 0.36517 0.19877 0.0
C1366 C 0.95928 0.3265 0.19821 0.0
N1367 N 0.95172 0.35093 0.20701 0.0
C1368 C 0.97935 0.36041 0.18992 0.0
C1369 C 0.9754 0.34085 0.18966 0.0
H1370 H 0.93475 0.32069 0.21295 0.0
H1371 H 0.96994 0.3801 0.1987 0.0
C1372 C 0.91303 0.40731 0.22877 0.0
N1373 N 0.91834 0.39953 0.21669 0.0
C1374 C 0.91224 0.42451 0.22659 0.0
C1375 C 0.92306 0.42592 0.19968 0.0
C1376 C 0.92358 0.40857 0.20237 0.0
C1377 C 0.91708 0.43391 0.21185 0.0
H1378 H 0.90949 0.40015 0.24016 0.0
H1379 H 0.92838 0.40253 0.19309 0.0
O1380 O 0.91639 0.33332 0.23287 0.0
O1381 O 0.89905 0.36038 0.23885 0.0
O1382 O 0.94263 0.37934 0.23212 0.0
O1383 O 0.91223 0.35524 0.20546 0.0
H1384 H 0.88862 0.29985 0.24524 0.0
H1385 H 0.95113 0.3403 0.24333 0.0
H1386 H 0.89477 0.2791 0.26395 0.0
H1387 H 0.95621 0.31894 0.26213 0.0
H1388 H 0.84435 0.3627 0.22433 0.0
H1389 H 0.88058 0.35041 0.26631 0.0
H1390 H 0.87717 0.36665 0.21842 0.0
H1391 H 0.84773 0.34685 0.27145 0.0
H1392 H 0.90375 0.32949 0.29853 0.0
H1393 H 0.95656 0.38655 0.29542 0.0
H1394 H 0.84654 0.28487 0.19157 0.0
H1395 H 0.83037 0.28672 0.23996 0.0
H1396 H 0.95944 0.4103 0.21317 0.0
H1397 H 0.97056 0.37492 0.24586 0.0
H1398 H 0.99552 0.4313 0.20917 0.0
H1399 H 0.00643 0.3964 0.24116 0.0
H1400 H 0.93887 0.37123 0.18278 0.0
H1401 H 0.87847 0.35127 0.19517 0.0
H1402 H 0.93281 0.38112 0.15652 0.0
H1403 H 0.87353 0.3618 0.16879 0.0
H1404 H 0.95542 0.31115 0.19789 0.0
H1405 H 0.99152 0.3718 0.18325 0.0
H1406 H 0.90818 0.43058 0.23643 0.0
H1407 H 0.92719 0.43296 0.18822 0.0
Li1408 Li 0.69356 0.59251 0.24437 0.0
Li1409 Li 0.71129 0.58443 0.22436 0.0
Li1410 Li 0.6951 0.60345 0.21715 0.0
Li1411 Li 0.67548 0.56881 0.2227 0.0
C1412 C 0.72496 0.63016 0.23644 0.0
N1413 N 0.74014 0.66929 0.24452 0.0
C1414 C 0.74518 0.64338 0.23512 0.0
C1415 C 0.71244 0.63683 0.24183 0.0
C1416 C 0.75258 0.66311 0.23928 0.0
C1417 C 0.72041 0.65667 0.24586 0.0
C1418 C 0.69193 0.54962 0.24163 0.0
C1419 C 0.68922 0.52001 0.23055 0.0
N1420 N 0.69302 0.5151 0.24499 0.0
C1421 C 0.69579 0.54429 0.25637 0.0
C1422 C 0.68861 0.53742 0.22861 0.0
C1423 C 0.6963 0.52678 0.25782 0.0
C1424 C 0.67607 0.58869 0.27412 0.0
N1425 N 0.69346 0.59753 0.26617 0.0
C1426 C 0.71138 0.61068 0.29009 0.0
C1427 C 0.71093 0.60849 0.27374 0.0
C1428 C 0.69374 0.60108 0.29873 0.0
C1429 C 0.67586 0.5903 0.29052 0.0
H1430 H 0.66243 0.57986 0.26775 0.0
H1431 H 0.72456 0.61512 0.26714 0.0
C1432 C 0.74172 0.58301 0.20724 0.0
N1433 N 0.73372 0.5817 0.22173 0.0
C1434 C 0.75906 0.58217 0.20573 0.0
C1435 C 0.75948 0.57871 0.23407 0.0
C1436 C 0.74215 0.57955 0.23502 0.0
C1437 C 0.76819 0.58014 0.21929 0.0
H1438 H 0.73491 0.58517 0.19693 0.0
H1439 H 0.73558 0.57888 0.2464 0.0
C1440 C 0.65604 0.59236 0.22685 0.0
N1441 N 0.62448 0.59665 0.21789 0.0
C1442 C 0.64671 0.58486 0.2124 0.0
C1443 C 0.64926 0.60192 0.23681 0.0
C1444 C 0.63079 0.5872 0.20807 0.0
C1445 C 0.6333 0.60398 0.23205 0.0
C1446 C 0.68972 0.57442 0.19071 0.0
C1447 C 0.68027 0.58159 0.18099 0.0
C1448 C 0.69376 0.56008 0.18495 0.0
C1449 C 0.67472 0.57403 0.16576 0.0
C1450 C 0.68795 0.55289 0.16964 0.0
N1451 N 0.67862 0.55994 0.16045 0.0
C1452 C 0.71433 0.63065 0.19408 0.0
C1453 C 0.68836 0.63416 0.205 0.0
C1454 C 0.71957 0.64661 0.18408 0.0
N1455 N 0.69899 0.62476 0.20422 0.0
C1456 C 0.69304 0.6502 0.19511 0.0
C1457 C 0.70892 0.65665 0.18456 0.0
H1458 H 0.72261 0.62299 0.1939 0.0
H1459 H 0.67644 0.62942 0.21335 0.0
C1460 C 0.64139 0.53605 0.23237 0.0
N1461 N 0.6516 0.54478 0.219 0.0
C1462 C 0.62363 0.51826 0.23157 0.0
C1463 C 0.62708 0.51877 0.20322 0.0
C1464 C 0.64479 0.5366 0.20456 0.0
C1465 C 0.61638 0.50932 0.21686 0.0
H1466 H 0.64708 0.54301 0.24367 0.0
H1467 H 0.65292 0.54383 0.19405 0.0
O1468 O 0.71748 0.61089 0.23212 0.0
O1469 O 0.69156 0.5668 0.24001 0.0
O1470 O 0.67171 0.59036 0.23135 0.0
O1471 O 0.69542 0.58173 0.20564 0.0
H1472 H 0.75503 0.63843 0.23088 0.0
H1473 H 0.69674 0.62683 0.24282 0.0
H1474 H 0.7682 0.67351 0.23832 0.0
H1475 H 0.7109 0.66205 0.25003 0.0
H1476 H 0.68667 0.51042 0.22057 0.0
H1477 H 0.69843 0.55364 0.26655 0.0
H1478 H 0.68558 0.54133 0.21715 0.0
H1479 H 0.6993 0.52247 0.26915 0.0
H1480 H 0.72544 0.61948 0.29593 0.0
H1481 H 0.66195 0.5826 0.29676 0.0
H1482 H 0.76558 0.58372 0.19418 0.0
H1483 H 0.76613 0.57715 0.24478 0.0
H1484 H 0.65167 0.5773 0.20463 0.0
H1485 H 0.65633 0.60777 0.24806 0.0
H1486 H 0.62345 0.5815 0.19689 0.0
H1487 H 0.62793 0.61141 0.23961 0.0
H1488 H 0.67723 0.59285 0.18514 0.0
H1489 H 0.70127 0.55452 0.19221 0.0
H1490 H 0.66732 0.57938 0.15814 0.0
H1491 H 0.6909 0.54172 0.16506 0.0
H1492 H 0.73207 0.65128 0.17627 0.0
H1493 H 0.68435 0.65744 0.1957 0.0
H1494 H 0.61554 0.51171 0.24234 0.0
H1495 H 0.62189 0.51236 0.19166 0.0
Li1496 Li 0.46047 0.12848 0.24313 0.0
Li1497 Li 0.469 0.15503 0.22198 0.0
Li1498 Li 0.44851 0.11947 0.21608 0.0
Li1499 Li 0.48241 0.13286 0.22121 0.0
C1500 C 0.42276 0.12539 0.23233 0.0
N1501 N 0.38209 0.10456 0.23386 0.0
C1502 C 0.41182 0.13328 0.22579 0.0
C1503 C 0.41305 0.1069 0.2396 0.0
C1504 C 0.39126 0.12252 0.22672 0.0
C1505 C 0.39247 0.09659 0.24024 0.0
C1506 C 0.50617 0.16168 0.23977 0.0
C1507 C 0.53897 0.1843 0.23041 0.0
N1508 N 0.5466 0.17879 0.24249 0.0
C1509 C 0.51432 0.15633 0.25215 0.0
C1510 C 0.51857 0.17585 0.22884 0.0
C1511 C 0.53481 0.16513 0.25331 0.0
C1512 C 0.46536 0.11524 0.27237 0.0
N1513 N 0.45564 0.12313 0.2648 0.0
C1514 C 0.44197 0.12634 0.28904 0.0
C1515 C 0.4439 0.12847 0.27268 0.0
C1516 C 0.45251 0.11901 0.29719 0.0
C1517 C 0.4641 0.11314 0.28873 0.0
H1518 H 0.47462 0.11121 0.26573 0.0
H1519 H 0.43655 0.13493 0.26632 0.0
C1520 C 0.46192 0.18258 0.20658 0.0
N1521 N 0.47248 0.18031 0.21828 0.0
C1522 C 0.46302 0.20078 0.20435 0.0
C1523 C 0.48619 0.21396 0.226 0.0
C1524 C 0.48454 0.19549 0.22788 0.0
C1525 C 0.4752 0.21669 0.2142 0.0
H1526 H 0.45234 0.17013 0.19923 0.0
H1527 H 0.4925 0.19312 0.23725 0.0
C1528 C 0.45642 0.08955 0.22619 0.0
N1529 N 0.44775 0.0517 0.21877 0.0
C1530 C 0.46338 0.0859 0.21214 0.0
C1531 C 0.44523 0.07401 0.23654 0.0
C1532 C 0.4588 0.06665 0.20858 0.0
C1533 C 0.44095 0.05496 0.23255 0.0
C1534 C 0.47795 0.14213 0.18924 0.0
C1535 C 0.47228 0.12546 0.17987 0.0
C1536 C 0.49098 0.16084 0.18323 0.0
C1537 C 0.48016 0.12777 0.16472 0.0
C1538 C 0.49854 0.16252 0.16802 0.0
N1539 N 0.49304 0.14609 0.15917 0.0
C1540 C 0.42302 0.11188 0.19139 0.0
C1541 C 0.41509 0.08284 0.20572 0.0
C1542 C 0.40706 0.10136 0.18133 0.0
N1543 N 0.42675 0.10253 0.20324 0.0
C1544 C 0.39897 0.07168 0.19587 0.0
C1545 C 0.39486 0.08097 0.18346 0.0
H1546 H 0.43233 0.12764 0.18993 0.0
H1547 H 0.41803 0.07582 0.21546 0.0
C1548 C 0.50874 0.11997 0.22755 0.0
N1549 N 0.50543 0.13114 0.21707 0.0
C1550 C 0.52586 0.11875 0.2266 0.0
C1551 C 0.53582 0.14034 0.20393 0.0
C1552 C 0.51849 0.14119 0.20534 0.0
C1553 C 0.53975 0.12921 0.21479 0.0
H1554 H 0.49828 0.11243 0.23694 0.0
H1555 H 0.51583 0.15032 0.19737 0.0
O1556 O 0.44288 0.13558 0.23145 0.0
O1557 O 0.48616 0.15272 0.23808 0.0
O1558 O 0.46079 0.10826 0.23002 0.0
O1559 O 0.4702 0.14027 0.20401 0.0
H1560 H 0.41916 0.14756 0.22007 0.0
H1561 H 0.42133 0.1005 0.24455 0.0
H1562 H 0.38257 0.12845 0.22175 0.0
H1563 H 0.38476 0.08224 0.24579 0.0
H1564 H 0.54874 0.19515 0.22196 0.0
H1565 H 0.50493 0.14536 0.26068 0.0
H1566 H 0.51246 0.18 0.2191 0.0
H1567 H 0.54133 0.16104 0.26278 0.0
H1568 H 0.43308 0.13116 0.29532 0.0
H1569 H 0.47244 0.10749 0.29477 0.0
H1570 H 0.45429 0.20235 0.19516 0.0
H1571 H 0.49539 0.22577 0.23405 0.0
H1572 H 0.47238 0.09781 0.20417 0.0
H1573 H 0.43984 0.07666 0.24751 0.0
H1574 H 0.46408 0.0636 0.19775 0.0
H1575 H 0.43223 0.04277 0.24041 0.0
H1576 H 0.46174 0.11093 0.18415 0.0
H1577 H 0.4953 0.1739 0.19029 0.0
H1578 H 0.47595 0.11499 0.15734 0.0
H1579 H 0.50877 0.17689 0.16325 0.0
H1580 H 0.404 0.10919 0.17225 0.0
H1581 H 0.38974 0.05601 0.19797 0.0
H1582 H 0.52846 0.11017 0.23529 0.0
H1583 H 0.5461 0.14844 0.19454 0.0
Li1584 Li 0.67161 0.12695 0.22393 0.0
Li1585 Li 0.69121 0.124 0.24495 0.0
Li1586 Li 0.707 0.14733 0.2232 0.0
Li1587 Li 0.69154 0.1117 0.21931 0.0
C1588 C 0.67748 0.15476 0.24397 0.0
N1589 N 0.65228 0.16826 0.25258 0.0
C1590 C 0.66554 0.14709 0.25732 0.0
C1591 C 0.67673 0.1694 0.23508 0.0
C1592 C 0.65289 0.15411 0.26147 0.0
C1593 C 0.66384 0.17598 0.2396 0.0
C1594 C 0.65849 0.08325 0.22974 0.0
C1595 C 0.65397 0.05046 0.23089 0.0
N1596 N 0.63899 0.04426 0.22029 0.0
C1597 C 0.64305 0.07656 0.21886 0.0
C1598 C 0.66399 0.07011 0.23584 0.0
C1599 C 0.63336 0.05678 0.21424 0.0
C1600 C 0.64503 0.13522 0.20719 0.0
N1601 N 0.64734 0.12599 0.21989 0.0
C1602 C 0.61496 0.11642 0.22907 0.0
C1603 C 0.63269 0.11645 0.23064 0.0
C1604 C 0.6124 0.12639 0.21635 0.0
C1605 C 0.62756 0.13566 0.2052 0.0
H1606 H 0.6568 0.14247 0.19873 0.0
H1607 H 0.63499 0.10922 0.24062 0.0
C1608 C 0.70432 0.13849 0.27512 0.0
N1609 N 0.69271 0.12155 0.26707 0.0
C1610 C 0.70577 0.13818 0.29148 0.0
C1611 C 0.68334 0.10295 0.29098 0.0
C1612 C 0.68228 0.10395 0.27458 0.0
C1613 C 0.69514 0.12026 0.2996 0.0
H1614 H 0.7123 0.15228 0.26878 0.0
H1615 H 0.67294 0.09078 0.26789 0.0
C1616 C 0.69776 0.14218 0.19278 0.0
N1617 N 0.71638 0.16518 0.16667 0.0
C1618 C 0.70714 0.13618 0.18191 0.0
C1619 C 0.69788 0.1599 0.19036 0.0
C1620 C 0.71645 0.14799 0.16878 0.0
C1621 C 0.70738 0.17132 0.1771 0.0
C1622 C 0.72729 0.13055 0.24413 0.0
C1623 C 0.74291 0.1491 0.2483 0.0
C1624 C 0.72428 0.11387 0.25248 0.0
C1625 C 0.75517 0.15066 0.26085 0.0
C1626 C 0.73683 0.11606 0.26499 0.0
N1627 N 0.75189 0.13425 0.26888 0.0
C1628 C 0.73168 0.18807 0.22725 0.0
C1629 C 0.74228 0.17432 0.20725 0.0
C1630 C 0.74864 0.20642 0.22535 0.0
N1631 N 0.72892 0.17247 0.21833 0.0
C1632 C 0.75922 0.19252 0.20469 0.0
C1633 C 0.76284 0.20877 0.21411 0.0
H1634 H 0.72107 0.18608 0.23625 0.0
H1635 H 0.74001 0.16156 0.20062 0.0
C1636 C 0.68221 0.08454 0.1944 0.0
N1637 N 0.69337 0.09206 0.20761 0.0
C1638 C 0.6852 0.07201 0.18452 0.0
C1639 C 0.71022 0.07432 0.20255 0.0
C1640 C 0.70693 0.08698 0.21196 0.0
C1641 C 0.6996 0.06708 0.18846 0.0
H1642 H 0.67166 0.08902 0.19119 0.0
H1643 H 0.71577 0.09339 0.22238 0.0
O1644 O 0.6895 0.14763 0.23942 0.0
O1645 O 0.66842 0.10264 0.23415 0.0
O1646 O 0.68854 0.13079 0.20571 0.0
O1647 O 0.71487 0.12875 0.23206 0.0
H1648 H 0.66582 0.13564 0.26426 0.0
H1649 H 0.68585 0.17546 0.22471 0.0
H1650 H 0.64347 0.14823 0.27171 0.0
H1651 H 0.66298 0.18718 0.23275 0.0
H1652 H 0.65815 0.04017 0.23544 0.0
H1653 H 0.63872 0.08655 0.2139 0.0
H1654 H 0.67607 0.0751 0.24411 0.0
H1655 H 0.62143 0.05141 0.20579 0.0
H1656 H 0.60357 0.10915 0.23791 0.0
H1657 H 0.62593 0.14323 0.19512 0.0
H1658 H 0.715 0.15182 0.29775 0.0
H1659 H 0.67462 0.08893 0.29689 0.0
H1660 H 0.70744 0.12265 0.18363 0.0
H1661 H 0.691 0.16496 0.19876 0.0
H1662 H 0.72379 0.14354 0.16029 0.0
H1663 H 0.70766 0.18511 0.17514 0.0
H1664 H 0.7455 0.16218 0.242 0.0
H1665 H 0.71212 0.09943 0.24956 0.0
H1666 H 0.76727 0.16493 0.26424 0.0
H1667 H 0.73455 0.1033 0.27165 0.0
H1668 H 0.75092 0.21845 0.23301 0.0
H1669 H 0.76952 0.19374 0.19563 0.0
H1670 H 0.67689 0.06681 0.17364 0.0
H1671 H 0.72176 0.07118 0.20576 0.0
Li1672 Li 0.92981 0.5932 0.24396 0.0
Li1673 Li 0.9246 0.56987 0.22129 0.0
Li1674 Li 0.93938 0.60399 0.21766 0.0
Li1675 Li 0.90486 0.5866 0.22201 0.0
C1676 C 0.9685 0.59918 0.22655 0.0
N1677 N 0.00714 0.61829 0.21627 0.0
C1678 C 0.9733 0.59425 0.21202 0.0
C1679 C 0.98333 0.61369 0.23592 0.0
C1680 C 0.99293 0.60413 0.20701 0.0
C1681 C 0.00279 0.62321 0.2305 0.0
C1682 C 0.89248 0.55289 0.2466 0.0
C1683 C 0.85952 0.52603 0.25147 0.0
N1684 N 0.8658 0.52195 0.26517 0.0
C1685 C 0.89856 0.54846 0.26078 0.0
C1686 C 0.87275 0.54162 0.24195 0.0
C1687 C 0.88487 0.53275 0.26997 0.0
C1688 C 0.91944 0.59948 0.27373 0.0
N1689 N 0.93311 0.59688 0.26592 0.0
C1690 C 0.94815 0.59595 0.29016 0.0
C1691 C 0.94745 0.5953 0.27369 0.0
C1692 C 0.9338 0.59797 0.29855 0.0
C1693 C 0.91953 0.6001 0.29017 0.0
H1694 H 0.90814 0.60051 0.26716 0.0
H1695 H 0.95789 0.59288 0.26713 0.0
C1696 C 0.92661 0.54078 0.20202 0.0
N1697 N 0.92388 0.54573 0.21682 0.0
C1698 C 0.9251 0.52246 0.19926 0.0
C1699 C 0.91849 0.51506 0.22703 0.0
C1700 C 0.92035 0.5335 0.22927 0.0
C1701 C 0.92062 0.50928 0.21186 0.0
H1702 H 0.92976 0.55095 0.19236 0.0
H1703 H 0.91899 0.53809 0.24096 0.0
C1704 C 0.92873 0.62997 0.22772 0.0
N1705 N 0.93854 0.66753 0.21827 0.0
C1706 C 0.92252 0.63295 0.21304 0.0
C1707 C 0.93974 0.64603 0.23767 0.0
C1708 C 0.9277 0.65208 0.20845 0.0
C1709 C 0.94458 0.66492 0.23266 0.0
C1710 C 0.90536 0.56969 0.1936 0.0
C1711 C 0.90558 0.57387 0.17754 0.0
C1712 C 0.8908 0.55147 0.19942 0.0
C1713 C 0.89125 0.55974 0.16759 0.0
C1714 C 0.87674 0.53772 0.18911 0.0
N1715 N 0.87724 0.54211 0.17354 0.0
C1716 C 0.95793 0.62533 0.19026 0.0
C1717 C 0.97263 0.64258 0.21392 0.0
C1718 C 0.96997 0.64204 0.18132 0.0
N1719 N 0.95912 0.62604 0.20624 0.0
C1720 C 0.98504 0.65963 0.20544 0.0
C1721 C 0.98349 0.65959 0.18894 0.0
H1722 H 0.94701 0.61202 0.18449 0.0
H1723 H 0.97317 0.64278 0.22666 0.0
C1724 C 0.87011 0.58301 0.23291 0.0
N1725 N 0.87983 0.58435 0.21929 0.0
C1726 C 0.85176 0.58179 0.23253 0.0
C1727 C 0.85383 0.58371 0.20406 0.0
C1728 C 0.87219 0.58483 0.205 0.0
C1729 C 0.84341 0.58216 0.21798 0.0
H1730 H 0.87673 0.58296 0.2441 0.0
H1731 H 0.88046 0.58642 0.19436 0.0
O1732 O 0.94933 0.5899 0.2315 0.0
O1733 O 0.90564 0.5685 0.23759 0.0
O1734 O 0.9242 0.61143 0.23226 0.0
O1735 O 0.91917 0.58359 0.20347 0.0
H1736 H 0.96195 0.58308 0.20462 0.0
H1737 H 0.97983 0.61775 0.24716 0.0
H1738 H 0.99686 0.60057 0.19574 0.0
H1739 H 0.01442 0.63457 0.23758 0.0
H1740 H 0.84424 0.5172 0.24798 0.0
H1741 H 0.91374 0.55689 0.26456 0.0
H1742 H 0.86762 0.54488 0.23114 0.0
H1743 H 0.88942 0.52914 0.28093 0.0
H1744 H 0.9593 0.59417 0.29629 0.0
H1745 H 0.90839 0.60193 0.29627 0.0
H1746 H 0.92705 0.51848 0.18743 0.0
H1747 H 0.91552 0.50541 0.23708 0.0
H1748 H 0.91406 0.62066 0.20518 0.0
H1749 H 0.94463 0.64391 0.24907 0.0
H1750 H 0.92315 0.65465 0.19706 0.0
H1751 H 0.95319 0.67752 0.24019 0.0
H1752 H 0.91661 0.58793 0.17279 0.0
H1753 H 0.89047 0.54786 0.21171 0.0
H1754 H 0.89124 0.56282 0.15515 0.0
H1755 H 0.86545 0.52355 0.19349 0.0
H1756 H 0.96793 0.64149 0.16866 0.0
H1757 H 0.99525 0.6729 0.21174 0.0
H1758 H 0.84417 0.5806 0.24352 0.0
H1759 H 0.84808 0.58451 0.19264 0.0
Li1760 Li 0.48045 0.38022 0.22243 0.0
Li1761 Li 0.45783 0.3622 0.24389 0.0
Li1762 Li 0.46612 0.34503 0.22252 0.0
Li1763 Li 0.44462 0.35869 0.21688 0.0
C1764 C 0.50226 0.37499 0.24397 0.0
N1765 N 0.54074 0.39889 0.25378 0.0
C1766 C 0.50621 0.38543 0.25814 0.0
C1767 C 0.51787 0.37649 0.2349 0.0
C1768 C 0.52577 0.39748 0.26288 0.0
C1769 C 0.53722 0.38873 0.24002 0.0
C1770 C 0.44801 0.39201 0.23554 0.0
C1771 C 0.41772 0.39075 0.24315 0.0
N1772 N 0.42795 0.41041 0.24631 0.0
C1773 C 0.4582 0.41223 0.23873 0.0
C1774 C 0.42759 0.3812 0.23766 0.0
C1775 C 0.44781 0.42125 0.24422 0.0
C1776 C 0.51396 0.40795 0.2047 0.0
N1777 N 0.50358 0.40448 0.21834 0.0
C1778 C 0.52846 0.43481 0.22935 0.0
C1779 C 0.51018 0.41769 0.23038 0.0
C1780 C 0.53979 0.43844 0.21568 0.0
C1781 C 0.53227 0.42512 0.20306 0.0
H1782 H 0.5083 0.39718 0.19531 0.0
H1783 H 0.50156 0.4145 0.24106 0.0
C1784 C 0.45245 0.3465 0.27387 0.0
N1785 N 0.45296 0.36174 0.26583 0.0
C1786 C 0.4501 0.34527 0.29021 0.0
C1787 C 0.44851 0.37531 0.28967 0.0
C1788 C 0.4511 0.37607 0.27335 0.0
C1789 C 0.44806 0.3598 0.29831 0.0
H1790 H 0.4543 0.33551 0.26758 0.0
H1791 H 0.45196 0.38827 0.2668 0.0
C1792 C 0.47079 0.35321 0.19174 0.0
N1793 N 0.47675 0.33455 0.16644 0.0
C1794 C 0.4558 0.34317 0.18067 0.0
C1795 C 0.48889 0.35397 0.18984 0.0
C1796 C 0.45909 0.33379 0.16798 0.0
C1797 C 0.49158 0.34437 0.17701 0.0
C1798 C 0.4221 0.32326 0.23685 0.0
C1799 C 0.41454 0.30394 0.23142 0.0
C1800 C 0.4111 0.32748 0.24753 0.0
C1801 C 0.39593 0.28928 0.23648 0.0
C1802 C 0.39257 0.31241 0.25233 0.0
N1803 N 0.38542 0.29379 0.24673 0.0
C1804 C 0.48326 0.32123 0.22734 0.0
C1805 C 0.45836 0.30939 0.20773 0.0
C1806 C 0.48545 0.30472 0.22548 0.0
N1807 N 0.46982 0.3232 0.21856 0.0
C1808 C 0.46014 0.29272 0.2054 0.0
C1809 C 0.47374 0.29016 0.21442 0.0
H1810 H 0.49191 0.33224 0.23609 0.0
H1811 H 0.44752 0.31113 0.20112 0.0
C1812 C 0.42113 0.3702 0.19919 0.0
N1813 N 0.42262 0.35471 0.20475 0.0
C1814 C 0.40484 0.36687 0.19011 0.0
C1815 C 0.3922 0.3318 0.19261 0.0
C1816 C 0.40869 0.33579 0.20154 0.0
C1817 C 0.39016 0.34743 0.18676 0.0
H1818 H 0.4326 0.38512 0.20177 0.0
H1819 H 0.41057 0.3238 0.20564 0.0
O1820 O 0.48322 0.36347 0.23896 0.0
O1821 O 0.45804 0.383 0.23019 0.0
O1822 O 0.46778 0.36234 0.20431 0.0
O1823 O 0.4404 0.33774 0.23209 0.0
H1824 H 0.49432 0.38444 0.26531 0.0
H1825 H 0.51506 0.36843 0.22396 0.0
H1826 H 0.52905 0.40576 0.27375 0.0
H1827 H 0.54945 0.39018 0.23305 0.0
H1828 H 0.40191 0.38255 0.24484 0.0
H1829 H 0.47398 0.42088 0.23701 0.0
H1830 H 0.41938 0.36568 0.23491 0.0
H1831 H 0.45552 0.43687 0.2468 0.0
H1832 H 0.5339 0.44492 0.23925 0.0
H1833 H 0.54076 0.4276 0.19236 0.0
H1834 H 0.45047 0.3334 0.29646 0.0
H1835 H 0.44709 0.38685 0.2955 0.0
H1836 H 0.44177 0.34257 0.18187 0.0
H1837 H 0.50065 0.36173 0.19826 0.0
H1838 H 0.44759 0.32588 0.15936 0.0
H1839 H 0.50546 0.34471 0.17546 0.0
H1840 H 0.42287 0.30031 0.2233 0.0
H1841 H 0.41684 0.34215 0.25225 0.0
H1842 H 0.38987 0.27432 0.23226 0.0
H1843 H 0.38391 0.31551 0.26057 0.0
H1844 H 0.49571 0.30305 0.23299 0.0
H1845 H 0.45079 0.28179 0.1968 0.0
H1846 H 0.4037 0.37929 0.18579 0.0
H1847 H 0.38136 0.31662 0.18999 0.0
Li1848 Li 0.47986 0.37185 0.44262 0.0
Li1849 Li 0.44442 0.35759 0.44729 0.0
Li1850 Li 0.45834 0.33657 0.44198 0.0
Li1851 Li 0.45561 0.35665 0.42135 0.0
C1852 C 0.47467 0.36279 0.47326 0.0
N1853 N 0.49749 0.38117 0.49949 0.0
C1854 C 0.46946 0.37349 0.48345 0.0
C1855 C 0.49143 0.36137 0.47646 0.0
C1856 C 0.48119 0.38268 0.49665 0.0
C1857 C 0.5028 0.37081 0.48976 0.0
C1858 C 0.46351 0.39289 0.42213 0.0
C1859 C 0.4488 0.40336 0.40213 0.0
N1860 N 0.4671 0.41688 0.39696 0.0
C1861 C 0.48217 0.40692 0.41664 0.0
C1862 C 0.44667 0.39112 0.41486 0.0
C1863 C 0.48367 0.41891 0.4039 0.0
C1864 C 0.52083 0.3952 0.43827 0.0
N1865 N 0.50552 0.39317 0.4472 0.0
C1866 C 0.52644 0.42369 0.46029 0.0
C1867 C 0.50793 0.40703 0.45801 0.0
C1868 C 0.54251 0.42635 0.45106 0.0
C1869 C 0.53951 0.41178 0.43995 0.0
H1870 H 0.51837 0.38434 0.42935 0.0
H1871 H 0.49537 0.40546 0.46453 0.0
C1872 C 0.41683 0.34778 0.47194 0.0
N1873 N 0.42571 0.36024 0.45961 0.0
C1874 C 0.40454 0.35078 0.48209 0.0
C1875 C 0.4103 0.37891 0.46631 0.0
C1876 C 0.4225 0.37542 0.45651 0.0
C1877 C 0.40155 0.36679 0.47949 0.0
H1878 H 0.41986 0.33595 0.47418 0.0
H1879 H 0.43 0.38525 0.44678 0.0
C1880 C 0.48642 0.34221 0.42196 0.0
N1881 N 0.50112 0.31788 0.41377 0.0
C1882 C 0.48012 0.33109 0.40809 0.0
C1883 C 0.50028 0.34106 0.4316 0.0
C1884 C 0.48773 0.31886 0.40417 0.0
C1885 C 0.5075 0.32863 0.42728 0.0
C1886 C 0.41483 0.32456 0.43721 0.0
C1887 C 0.40793 0.3081 0.44705 0.0
C1888 C 0.40198 0.33109 0.43237 0.0
C1889 C 0.38825 0.29846 0.45194 0.0
C1890 C 0.38243 0.32107 0.43755 0.0
N1891 N 0.37603 0.3051 0.44714 0.0
C1892 C 0.46244 0.30769 0.45946 0.0
C1893 C 0.44834 0.29833 0.43395 0.0
C1894 C 0.46113 0.28938 0.46157 0.0
N1895 N 0.45623 0.3118 0.44576 0.0
C1896 C 0.44691 0.27996 0.43548 0.0
C1897 C 0.4533 0.27527 0.44945 0.0
H1898 H 0.46844 0.31862 0.46872 0.0
H1899 H 0.44343 0.30203 0.42323 0.0
C1900 C 0.46874 0.36716 0.39043 0.0
N1901 N 0.45215 0.35793 0.39937 0.0
C1902 C 0.46736 0.36792 0.37409 0.0
C1903 C 0.43182 0.35015 0.37648 0.0
C1904 C 0.4339 0.34955 0.3928 0.0
C1905 C 0.44872 0.35914 0.3669 0.0
H1906 H 0.48305 0.37365 0.39603 0.0
H1907 H 0.42097 0.34232 0.4002 0.0
O1908 O 0.46338 0.35368 0.46027 0.0
O1909 O 0.46172 0.38066 0.43434 0.0
O1910 O 0.47886 0.35397 0.42618 0.0
O1911 O 0.43412 0.33438 0.43247 0.0
H1912 H 0.45664 0.37488 0.48114 0.0
H1913 H 0.4957 0.3532 0.4687 0.0
H1914 H 0.47738 0.39106 0.5046 0.0
H1915 H 0.51586 0.36991 0.49233 0.0
H1916 H 0.4359 0.40204 0.39631 0.0
H1917 H 0.49536 0.40847 0.42207 0.0
H1918 H 0.43211 0.38016 0.41881 0.0
H1919 H 0.49802 0.42978 0.39949 0.0
H1920 H 0.52805 0.43459 0.46892 0.0
H1921 H 0.55123 0.41355 0.43215 0.0
H1922 H 0.39793 0.34109 0.49212 0.0
H1923 H 0.40852 0.39156 0.46407 0.0
H1924 H 0.46929 0.33169 0.40055 0.0
H1925 H 0.50531 0.34958 0.44236 0.0
H1926 H 0.48291 0.31009 0.39352 0.0
H1927 H 0.51816 0.32752 0.43468 0.0
H1928 H 0.41766 0.30291 0.451 0.0
H1929 H 0.40714 0.34397 0.42495 0.0
H1930 H 0.38272 0.28573 0.4596 0.0
H1931 H 0.37237 0.32604 0.434 0.0
H1932 H 0.46616 0.28627 0.47252 0.0
H1933 H 0.44125 0.26971 0.4257 0.0
H1934 H 0.48075 0.37492 0.36712 0.0
H1935 H 0.41719 0.34362 0.37143 0.0
Li1936 Li 0.67588 0.13351 0.44236 0.0
Li1937 Li 0.69221 0.11354 0.44927 0.0
Li1938 Li 0.71091 0.14825 0.44487 0.0
Li1939 Li 0.69606 0.12756 0.42276 0.0
C1940 C 0.69991 0.147 0.47371 0.0
N1941 N 0.72006 0.1738 0.49742 0.0
C1942 C 0.71376 0.14513 0.48282 0.0
C1943 C 0.69619 0.16239 0.4767 0.0
C1944 C 0.72383 0.15887 0.49474 0.0
C1945 C 0.70655 0.17581 0.48874 0.0
C1946 C 0.65535 0.09193 0.42786 0.0
C1947 C 0.63995 0.06396 0.4103 0.0
N1948 N 0.62214 0.05865 0.41688 0.0
C1949 C 0.63687 0.0862 0.43441 0.0
C1950 C 0.6569 0.08073 0.41567 0.0
C1951 C 0.62027 0.06932 0.42872 0.0
C1952 C 0.64706 0.14192 0.43213 0.0
N1953 N 0.65331 0.13599 0.44484 0.0
C1954 C 0.62681 0.13348 0.46051 0.0
C1955 C 0.64367 0.13181 0.45888 0.0
C1956 C 0.62007 0.1397 0.4476 0.0
C1957 C 0.63036 0.1439 0.43326 0.0
H1958 H 0.655 0.14497 0.42109 0.0
H1959 H 0.64903 0.12706 0.46875 0.0
C1960 C 0.70379 0.0909 0.46812 0.0
N1961 N 0.68836 0.09137 0.46119 0.0
C1962 C 0.70051 0.07467 0.47728 0.0
C1963 C 0.66566 0.05972 0.47169 0.0
C1964 C 0.66958 0.07624 0.46279 0.0
C1965 C 0.6812 0.0589 0.47919 0.0
H1966 H 0.71859 0.10321 0.46666 0.0
H1967 H 0.65757 0.07713 0.4574 0.0
C1968 C 0.70826 0.16672 0.4174 0.0
N1969 N 0.73269 0.19573 0.39644 0.0
C1970 C 0.72638 0.16863 0.41313 0.0
C1971 C 0.70256 0.17956 0.411 0.0
C1972 C 0.73852 0.18339 0.40252 0.0
C1973 C 0.71512 0.19413 0.40042 0.0
C1974 C 0.72349 0.11601 0.43127 0.0
C1975 C 0.74364 0.12334 0.42892 0.0
C1976 C 0.71009 0.09629 0.42784 0.0
C1977 C 0.75004 0.1108 0.42309 0.0
C1978 C 0.71706 0.0842 0.42204 0.0
N1979 N 0.73672 0.09165 0.4198 0.0
C1980 C 0.7505 0.17238 0.45475 0.0
C1981 C 0.73268 0.18908 0.45016 0.0
C1982 C 0.76785 0.19029 0.45716 0.0
N1983 N 0.73352 0.17218 0.45103 0.0
C1984 C 0.7497 0.20729 0.45228 0.0
C1985 C 0.76759 0.208 0.45554 0.0
H1986 H 0.75068 0.15867 0.45528 0.0
H1987 H 0.71893 0.18842 0.44719 0.0
C1988 C 0.68097 0.12192 0.39264 0.0
N1989 N 0.69678 0.12375 0.40072 0.0
C1990 C 0.68025 0.12026 0.37626 0.0
C1991 C 0.71217 0.12244 0.37677 0.0
C1992 C 0.71228 0.1241 0.39319 0.0
C1993 C 0.69602 0.12058 0.36814 0.0
H1994 H 0.66902 0.12202 0.39896 0.0
H1995 H 0.72495 0.12618 0.39981 0.0
O1996 O 0.69031 0.13404 0.46172 0.0
O1997 O 0.67171 0.10857 0.4332 0.0
O1998 O 0.69609 0.15244 0.42782 0.0
O1999 O 0.71712 0.12827 0.43682 0.0
H2000 H 0.71685 0.13333 0.48057 0.0
H2001 H 0.68557 0.16406 0.46968 0.0
H2002 H 0.73468 0.1577 0.50183 0.0
H2003 H 0.70392 0.18787 0.49114 0.0
H2004 H 0.64095 0.05519 0.40088 0.0
H2005 H 0.63537 0.09462 0.44387 0.0
H2006 H 0.67099 0.08496 0.4103 0.0
H2007 H 0.60589 0.06471 0.43372 0.0
H2008 H 0.61919 0.13006 0.47173 0.0
H2009 H 0.62535 0.14833 0.42296 0.0
H2010 H 0.71285 0.07448 0.48287 0.0
H2011 H 0.65054 0.04796 0.47309 0.0
H2012 H 0.73109 0.15888 0.41797 0.0
H2013 H 0.68859 0.17829 0.41421 0.0
H2014 H 0.75259 0.18505 0.39913 0.0
H2015 H 0.7109 0.20418 0.39538 0.0
H2016 H 0.75421 0.13861 0.43148 0.0
H2017 H 0.6945 0.09033 0.42972 0.0
H2018 H 0.76559 0.11629 0.42117 0.0
H2019 H 0.70683 0.0689 0.41935 0.0
H2020 H 0.78149 0.19036 0.45948 0.0
H2021 H 0.74903 0.2207 0.45094 0.0
H2022 H 0.66759 0.11891 0.36998 0.0
H2023 H 0.72481 0.12323 0.37087 0.0
Li2024 Li 0.93754 0.60417 0.44744 0.0
Li2025 Li 0.91686 0.5686 0.44367 0.0
Li2026 Li 0.92516 0.59183 0.42174 0.0
Li2027 Li 0.90245 0.58948 0.44248 0.0
C2028 C 0.95415 0.5845 0.42311 0.0
N2029 N 0.97509 0.58002 0.39879 0.0
C2030 C 0.95086 0.56576 0.41915 0.0
C2031 C 0.96817 0.60097 0.41475 0.0
C2032 C 0.9616 0.56381 0.40681 0.0
C2033 C 0.97857 0.59839 0.40247 0.0
C2034 C 0.91293 0.57414 0.47389 0.0
C2035 C 0.8931 0.5455 0.49 0.0
N2036 N 0.90861 0.55114 0.49998 0.0
C2037 C 0.92867 0.57964 0.48431 0.0
C2038 C 0.89498 0.55694 0.47676 0.0
C2039 C 0.92619 0.56783 0.49744 0.0
C2040 C 0.95546 0.63161 0.47219 0.0
N2041 N 0.95904 0.62368 0.45921 0.0
C2042 C 0.99357 0.64097 0.46453 0.0
C2043 C 0.97763 0.62831 0.45511 0.0
C2044 C 0.99026 0.64874 0.47835 0.0
C2045 C 0.97097 0.64421 0.48205 0.0
H2046 H 0.94046 0.62747 0.47522 0.0
H2047 H 0.98001 0.62156 0.44488 0.0
C2048 C 0.89915 0.52752 0.44059 0.0
N2049 N 0.91293 0.54326 0.44886 0.0
C2050 C 0.89704 0.50891 0.44278 0.0
C2051 C 0.92307 0.52294 0.46223 0.0
C2052 C 0.9249 0.54136 0.45947 0.0
C2053 C 0.90912 0.50642 0.45371 0.0
H2054 H 0.8903 0.52956 0.43183 0.0
H2055 H 0.93621 0.55423 0.46548 0.0
C2056 C 0.93362 0.63292 0.43659 0.0
N2057 N 0.95339 0.67198 0.44581 0.0
C2058 C 0.92482 0.63991 0.44715 0.0
C2059 C 0.95244 0.6458 0.43067 0.0
C2060 C 0.93506 0.65972 0.45167 0.0
C2061 C 0.9622 0.66549 0.43551 0.0
C2062 C 0.88046 0.56148 0.42238 0.0
C2063 C 0.87649 0.56829 0.40839 0.0
C2064 C 0.86485 0.54766 0.43161 0.0
C2065 C 0.85692 0.56125 0.40392 0.0
C2066 C 0.84548 0.54103 0.42676 0.0
N2067 N 0.84195 0.54791 0.41313 0.0
C2068 C 0.92417 0.57728 0.39158 0.0
C2069 C 0.93617 0.61173 0.39211 0.0
C2070 C 0.92557 0.57755 0.37519 0.0
N2071 N 0.92932 0.59418 0.39964 0.0
C2072 C 0.93784 0.61269 0.37569 0.0
C2073 C 0.93216 0.59537 0.36705 0.0
H2074 H 0.91865 0.56353 0.39792 0.0
H2075 H 0.93993 0.62488 0.39882 0.0
C2076 C 0.86812 0.58321 0.4592 0.0
N2077 N 0.87936 0.59099 0.44607 0.0
C2078 C 0.85028 0.58305 0.46075 0.0
C2079 C 0.85631 0.59942 0.43548 0.0
C2080 C 0.87402 0.59933 0.43445 0.0
C2081 C 0.84412 0.59103 0.44869 0.0
H2082 H 0.87279 0.57679 0.46829 0.0
H2083 H 0.88334 0.60549 0.42419 0.0
O2084 O 0.94355 0.5867 0.43498 0.0
O2085 O 0.91507 0.58548 0.46095 0.0
O2086 O 0.92401 0.61349 0.43229 0.0
O2087 O 0.89951 0.56856 0.42718 0.0
H2088 H 0.94007 0.55284 0.42544 0.0
H2089 H 0.97074 0.61556 0.41751 0.0
H2090 H 0.95916 0.54939 0.4036 0.0
H2091 H 0.98934 0.61099 0.39582 0.0
H2092 H 0.87933 0.53211 0.49231 0.0
H2093 H 0.94273 0.59277 0.48223 0.0
H2094 H 0.88271 0.55233 0.46874 0.0
H2095 H 0.93827 0.57189 0.50557 0.0
H2096 H 0.00819 0.64374 0.46151 0.0
H2097 H 0.96789 0.64981 0.49271 0.0
H2098 H 0.88662 0.4968 0.4355 0.0
H2099 H 0.93277 0.52171 0.47069 0.0
H2100 H 0.91033 0.63011 0.45193 0.0
H2101 H 0.95955 0.64057 0.42262 0.0
H2102 H 0.92846 0.66532 0.45988 0.0
H2103 H 0.97683 0.67559 0.43111 0.0
H2104 H 0.88837 0.57909 0.40116 0.0
H2105 H 0.86767 0.54229 0.44249 0.0
H2106 H 0.85362 0.56648 0.39317 0.0
H2107 H 0.83326 0.53045 0.43384 0.0
H2108 H 0.92135 0.56395 0.36892 0.0
H2109 H 0.94291 0.62667 0.36976 0.0
H2110 H 0.84115 0.57624 0.47102 0.0
H2111 H 0.85208 0.60581 0.42599 0.0
Li2112 Li 0.35769 0.93533 0.78182 0.0
Li2113 Li 0.37798 0.92102 0.77946 0.0
Li2114 Li 0.3611 0.92378 0.75662 0.0
Li2115 Li 0.34245 0.89862 0.77748 0.0
C2116 C 0.3911 0.96476 0.77307 0.0
N2117 N 0.40886 0.00397 0.78177 0.0
C2118 C 0.40559 0.97214 0.7848 0.0
C2119 C 0.38569 0.97734 0.76573 0.0
C2120 C 0.4144 0.99201 0.78902 0.0
C2121 C 0.39481 0.99711 0.77032 0.0
C2122 C 0.36313 0.90958 0.80944 0.0
C2123 C 0.3598 0.88467 0.82793 0.0
N2124 N 0.37399 0.89893 0.83713 0.0
C2125 C 0.37767 0.92399 0.81908 0.0
C2126 C 0.3541 0.88975 0.81389 0.0
C2127 C 0.38297 0.91831 0.83303 0.0
C2128 C 0.3365 0.95453 0.7887 0.0
N2129 N 0.35284 0.95369 0.79278 0.0
C2130 C 0.3588 0.97526 0.81463 0.0
C2131 C 0.36416 0.964 0.80531 0.0
C2132 C 0.34155 0.9757 0.81104 0.0
C2133 C 0.33058 0.96554 0.79769 0.0
H2134 H 0.32756 0.94595 0.77888 0.0
H2135 H 0.37691 0.96288 0.80846 0.0
C2136 C 0.41795 0.9346 0.77597 0.0
N2137 N 0.40226 0.92218 0.78502 0.0
C2138 C 0.4359 0.93507 0.77747 0.0
C2139 C 0.42149 0.91031 0.79789 0.0
C2140 C 0.40369 0.91007 0.79582 0.0
C2141 C 0.43767 0.92272 0.78847 0.0
H2142 H 0.41628 0.94361 0.76712 0.0
H2143 H 0.3909 0.89955 0.80229 0.0
C2144 C 0.32467 0.91677 0.75475 0.0
N2145 N 0.30259 0.91457 0.7286 0.0
C2146 C 0.30971 0.89847 0.74939 0.0
C2147 C 0.32827 0.93396 0.7469 0.0
C2148 C 0.29873 0.89767 0.73613 0.0
C2149 C 0.317 0.93254 0.73367 0.0
C2150 C 0.37499 0.89308 0.76024 0.0
C2151 C 0.3892 0.90124 0.74835 0.0
C2152 C 0.37378 0.87778 0.76955 0.0
C2153 C 0.40213 0.89404 0.74605 0.0
C2154 C 0.38698 0.871 0.76687 0.0
N2155 N 0.40077 0.87921 0.75529 0.0
C2156 C 0.37307 0.9442 0.72711 0.0
C2157 C 0.35015 0.9099 0.72609 0.0
C2158 C 0.37291 0.94545 0.71066 0.0
N2159 N 0.36171 0.92661 0.73441 0.0
C2160 C 0.34939 0.91049 0.7097 0.0
C2161 C 0.36086 0.92843 0.70178 0.0
H2162 H 0.38237 0.95719 0.73403 0.0
H2163 H 0.34145 0.89609 0.73226 0.0
C2164 C 0.30624 0.8711 0.79124 0.0
N2165 N 0.32049 0.87334 0.78092 0.0
C2166 C 0.28914 0.85277 0.79289 0.0
C2167 C 0.30191 0.8395 0.77339 0.0
C2168 C 0.31873 0.85806 0.7721 0.0
C2169 C 0.28679 0.83674 0.7838 0.0
H2170 H 0.30798 0.88366 0.79789 0.0
H2171 H 0.33016 0.86041 0.76378 0.0
O2172 O 0.38221 0.94532 0.76883 0.0
O2173 O 0.35742 0.91484 0.7959 0.0
O2174 O 0.33589 0.91784 0.7675 0.0
O2175 O 0.36261 0.90034 0.76299 0.0
H2176 H 0.40981 0.96258 0.79075 0.0
H2177 H 0.37444 0.97187 0.75669 0.0
H2178 H 0.42557 0.99789 0.79813 0.0
H2179 H 0.3907 0.00698 0.7648 0.0
H2180 H 0.35297 0.86938 0.83149 0.0
H2181 H 0.38499 0.93936 0.81575 0.0
H2182 H 0.34289 0.87837 0.80657 0.0
H2183 H 0.39424 0.9293 0.84058 0.0
H2184 H 0.36743 0.98262 0.82501 0.0
H2185 H 0.31713 0.96552 0.79461 0.0
H2186 H 0.44812 0.94459 0.76987 0.0
H2187 H 0.42237 0.9003 0.80624 0.0
H2188 H 0.30671 0.88502 0.7553 0.0
H2189 H 0.33982 0.94824 0.75087 0.0
H2190 H 0.28717 0.8836 0.7318 0.0
H2191 H 0.31974 0.94571 0.72741 0.0
H2192 H 0.39037 0.91317 0.7411 0.0
H2193 H 0.36297 0.87146 0.77891 0.0
H2194 H 0.4133 0.9003 0.73696 0.0
H2195 H 0.38634 0.85928 0.77407 0.0
H2196 H 0.38236 0.95946 0.70498 0.0
H2197 H 0.33991 0.89705 0.70329 0.0
H2198 H 0.27761 0.85134 0.80078 0.0
H2199 H 0.3006 0.8275 0.76616 0.0
Li2200 Li 0.11503 0.44634 0.78166 0.0
Li2201 Li 0.12956 0.48089 0.7775 0.0
Li2202 Li 0.12604 0.45966 0.75565 0.0
Li2203 Li 0.15187 0.46766 0.77649 0.0
C2204 C 0.08549 0.4506 0.77209 0.0
N2205 N 0.04615 0.43144 0.78058 0.0
C2206 C 0.07865 0.45914 0.78305 0.0
C2207 C 0.0723 0.43237 0.76539 0.0
C2208 C 0.05871 0.44921 0.78719 0.0
C2209 C 0.05248 0.42289 0.76986 0.0
C2210 C 0.13912 0.47838 0.8082 0.0
C2211 C 0.16098 0.49978 0.82845 0.0
N2212 N 0.14544 0.49975 0.83565 0.0
C2213 C 0.12336 0.4785 0.81583 0.0
C2214 C 0.15809 0.48906 0.81456 0.0
C2215 C 0.12686 0.48943 0.82968 0.0
C2216 C 0.09733 0.40672 0.79033 0.0
N2217 N 0.09678 0.42351 0.79323 0.0
C2218 C 0.07253 0.40726 0.81338 0.0
C2219 C 0.0847 0.42408 0.8045 0.0
C2220 C 0.07288 0.38977 0.81058 0.0
C2221 C 0.08542 0.38961 0.79886 0.0
H2222 H 0.10743 0.40672 0.78168 0.0
H2223 H 0.08471 0.43763 0.80682 0.0
C2224 C 0.11673 0.50741 0.77175 0.0
N2225 N 0.12869 0.50451 0.78168 0.0
C2226 C 0.11648 0.52507 0.77206 0.0
C2227 C 0.14053 0.53642 0.7931 0.0
C2228 C 0.14054 0.51861 0.79222 0.0
C2229 C 0.12863 0.53985 0.78272 0.0
H2230 H 0.10787 0.49622 0.76318 0.0
H2231 H 0.15063 0.5165 0.79948 0.0
C2232 C 0.13214 0.42922 0.75587 0.0
N2233 N 0.13188 0.4052 0.73189 0.0
C2234 C 0.1498 0.43074 0.75072 0.0
C2235 C 0.11433 0.41537 0.74893 0.0
C2236 C 0.14936 0.41847 0.73856 0.0
C2237 C 0.11452 0.40341 0.73678 0.0
C2238 C 0.15835 0.50479 0.75843 0.0
C2239 C 0.15152 0.51194 0.74632 0.0
C2240 C 0.17361 0.518 0.76823 0.0
C2241 C 0.15997 0.53229 0.74432 0.0
C2242 C 0.18169 0.53825 0.76583 0.0
N2243 N 0.17474 0.54491 0.75405 0.0
C2244 C 0.10439 0.45137 0.72701 0.0
C2245 C 0.13702 0.45705 0.72472 0.0
C2246 C 0.10159 0.44841 0.71074 0.0
N2247 N 0.12186 0.45549 0.73361 0.0
C2248 C 0.13475 0.45386 0.70849 0.0
C2249 C 0.11686 0.44948 0.70135 0.0
H2250 H 0.09271 0.45054 0.73435 0.0
H2251 H 0.1509 0.4608 0.73027 0.0
C2252 C 0.18015 0.46115 0.79185 0.0
N2253 N 0.17722 0.47116 0.78006 0.0
C2254 C 0.19849 0.46237 0.79359 0.0
C2255 C 0.21038 0.4844 0.77116 0.0
C2256 C 0.19184 0.4827 0.76984 0.0
C2257 C 0.21382 0.474 0.78306 0.0
H2258 H 0.1681 0.45183 0.79964 0.0
H2259 H 0.18895 0.49021 0.7604 0.0
O2260 O 0.10495 0.46009 0.76786 0.0
O2261 O 0.136 0.46759 0.79476 0.0
O2262 O 0.13228 0.44129 0.76761 0.0
O2263 O 0.1498 0.48494 0.76092 0.0
H2264 H 0.08863 0.47318 0.78843 0.0
H2265 H 0.07733 0.42558 0.75686 0.0
H2266 H 0.05323 0.45561 0.7957 0.0
H2267 H 0.04213 0.40874 0.76481 0.0
H2268 H 0.17558 0.50814 0.83349 0.0
H2269 H 0.10864 0.47048 0.811 0.0
H2270 H 0.17045 0.48912 0.80879 0.0
H2271 H 0.11482 0.48974 0.83567 0.0
H2272 H 0.06315 0.40796 0.82244 0.0
H2273 H 0.08655 0.37658 0.79668 0.0
H2274 H 0.10715 0.52731 0.76388 0.0
H2275 H 0.15028 0.5477 0.80131 0.0
H2276 H 0.16371 0.44135 0.75599 0.0
H2277 H 0.10054 0.41399 0.7528 0.0
H2278 H 0.16292 0.41954 0.7344 0.0
H2279 H 0.10086 0.39272 0.73124 0.0
H2280 H 0.13965 0.50185 0.73868 0.0
H2281 H 0.17891 0.51267 0.77775 0.0
H2282 H 0.15474 0.53806 0.73509 0.0
H2283 H 0.1934 0.54866 0.7734 0.0
H2284 H 0.08767 0.44524 0.70554 0.0
H2285 H 0.14696 0.45519 0.70153 0.0
H2286 H 0.20041 0.45377 0.80269 0.0
H2287 H 0.22182 0.49351 0.76281 0.0
Li2288 Li 0.60247 0.69445 0.78202 0.0
Li2289 Li 0.56759 0.67296 0.77754 0.0
Li2290 Li 0.59034 0.69075 0.75497 0.0
Li2291 Li 0.58173 0.70828 0.77435 0.0
C2292 C 0.59344 0.65569 0.77403 0.0
N2293 N 0.60127 0.62688 0.78446 0.0
C2294 C 0.58728 0.64745 0.78901 0.0
C2295 C 0.60354 0.64926 0.76432 0.0
C2296 C 0.59139 0.6329 0.79408 0.0
C2297 C 0.60737 0.63469 0.76982 0.0
C2298 C 0.57221 0.68744 0.80832 0.0
C2299 C 0.54716 0.68139 0.82761 0.0
N2300 N 0.55573 0.67451 0.83781 0.0
C2301 C 0.58085 0.68045 0.81904 0.0
C2302 C 0.55531 0.68806 0.81266 0.0
C2303 C 0.57227 0.67393 0.83388 0.0
C2304 C 0.62936 0.71529 0.80503 0.0
N2305 N 0.62449 0.70018 0.79483 0.0
C2306 C 0.65132 0.69646 0.80392 0.0
C2307 C 0.63515 0.69082 0.79396 0.0
C2308 C 0.65647 0.71185 0.81476 0.0
C2309 C 0.64538 0.72142 0.81515 0.0
H2310 H 0.62078 0.72264 0.80522 0.0
H2311 H 0.63131 0.67917 0.78549 0.0
C2312 C 0.53311 0.64013 0.7689 0.0
N2313 N 0.54399 0.64885 0.78201 0.0
C2314 C 0.51515 0.62263 0.7701 0.0
C2315 C 0.51996 0.62306 0.79828 0.0
C2316 C 0.53793 0.64058 0.79653 0.0
C2317 C 0.50823 0.61404 0.78496 0.0
H2318 H 0.53844 0.64682 0.75747 0.0
H2319 H 0.54694 0.64741 0.80677 0.0
C2320 C 0.62712 0.72322 0.76058 0.0
N2321 N 0.66512 0.73869 0.74932 0.0
C2322 C 0.63913 0.74358 0.75875 0.0
C2323 C 0.6344 0.71071 0.75665 0.0
C2324 C 0.65831 0.75112 0.75304 0.0
C2325 C 0.65366 0.71882 0.751 0.0
C2326 C 0.54897 0.69045 0.75619 0.0
C2327 C 0.54799 0.69775 0.74139 0.0
C2328 C 0.53443 0.68655 0.76743 0.0
C2329 C 0.53254 0.70129 0.73814 0.0
C2330 C 0.51921 0.69027 0.76374 0.0
N2331 N 0.51859 0.69752 0.7493 0.0
C2332 C 0.5904 0.67222 0.72643 0.0
C2333 C 0.60161 0.70647 0.72467 0.0
C2334 C 0.59211 0.6711 0.71011 0.0
N2335 N 0.59496 0.68968 0.73327 0.0
C2336 C 0.60357 0.70603 0.70834 0.0
C2337 C 0.59843 0.6881 0.70086 0.0
H2338 H 0.58496 0.6591 0.7336 0.0
H2339 H 0.60486 0.72007 0.73046 0.0
C2340 C 0.57629 0.73682 0.79074 0.0
N2341 N 0.57799 0.73024 0.77632 0.0
C2342 C 0.57498 0.75391 0.79203 0.0
C2343 C 0.57698 0.75692 0.7636 0.0
C2344 C 0.57844 0.73991 0.76288 0.0
C2345 C 0.57549 0.76422 0.77833 0.0
H2346 H 0.5764 0.72907 0.80125 0.0
H2347 H 0.58038 0.73463 0.75161 0.0
O2348 O 0.58975 0.67007 0.76885 0.0
O2349 O 0.58051 0.69409 0.79379 0.0
O2350 O 0.6083 0.71568 0.76612 0.0
O2351 O 0.5641 0.68711 0.75963 0.0
H2352 H 0.57952 0.65229 0.79666 0.0
H2353 H 0.60848 0.65557 0.75271 0.0
H2354 H 0.58674 0.62642 0.80566 0.0
H2355 H 0.61522 0.62961 0.76246 0.0
H2356 H 0.53403 0.6817 0.8311 0.0
H2357 H 0.59398 0.67993 0.81595 0.0
H2358 H 0.54853 0.69361 0.80459 0.0
H2359 H 0.57875 0.66839 0.84226 0.0
H2360 H 0.65969 0.68889 0.80319 0.0
H2361 H 0.64926 0.73375 0.82299 0.0
H2362 H 0.50686 0.6158 0.75946 0.0
H2363 H 0.51521 0.61674 0.80992 0.0
H2364 H 0.63367 0.75344 0.76171 0.0
H2365 H 0.62531 0.69492 0.75792 0.0
H2366 H 0.66778 0.76686 0.75156 0.0
H2367 H 0.6595 0.70932 0.74793 0.0
H2368 H 0.55914 0.70078 0.73255 0.0
H2369 H 0.5349 0.68072 0.77888 0.0
H2370 H 0.53163 0.70705 0.72677 0.0
H2371 H 0.50788 0.68739 0.77234 0.0
H2372 H 0.58823 0.65706 0.70475 0.0
H2373 H 0.60834 0.71939 0.70157 0.0
H2374 H 0.57378 0.75913 0.80359 0.0
H2375 H 0.57766 0.76465 0.75281 0.0
Li2376 Li 0.58972 0.69118 0.57826 0.0
Li2377 Li 0.56335 0.67409 0.55657 0.0
Li2378 Li 0.59885 0.68977 0.55098 0.0
Li2379 Li 0.58525 0.70987 0.55694 0.0
C2380 C 0.59202 0.65644 0.56368 0.0
N2381 N 0.61182 0.63603 0.55849 0.0
C2382 C 0.58387 0.63994 0.55382 0.0
C2383 C 0.61015 0.66248 0.57102 0.0
C2384 C 0.59413 0.62983 0.55132 0.0
C2385 C 0.61995 0.65198 0.56821 0.0
C2386 C 0.55571 0.70302 0.57544 0.0
C2387 C 0.53246 0.71248 0.56631 0.0
N2388 N 0.53697 0.72472 0.57894 0.0
C2389 C 0.56007 0.71562 0.58835 0.0
C2390 C 0.54176 0.70136 0.56434 0.0
C2391 C 0.55044 0.72649 0.5899 0.0
C2392 C 0.60224 0.70727 0.6085 0.0
N2393 N 0.59472 0.6904 0.5999 0.0
C2394 C 0.59133 0.67151 0.62299 0.0
C2395 C 0.58951 0.67276 0.60672 0.0
C2396 C 0.59831 0.68856 0.63229 0.0
C2397 C 0.6042 0.70669 0.62483 0.0
H2398 H 0.60617 0.72107 0.6027 0.0
H2399 H 0.58352 0.65958 0.59955 0.0
C2400 C 0.53519 0.64103 0.53962 0.0
N2401 N 0.53802 0.65258 0.55243 0.0
C2402 C 0.51689 0.62415 0.53709 0.0
C2403 C 0.50473 0.63183 0.56072 0.0
C2404 C 0.52329 0.64842 0.56288 0.0
C2405 C 0.50145 0.61938 0.54778 0.0
H2406 H 0.54727 0.64472 0.53157 0.0
H2407 H 0.52609 0.65776 0.57307 0.0
C2408 C 0.6289 0.72658 0.56284 0.0
N2409 N 0.66765 0.75513 0.55752 0.0
C2410 C 0.63378 0.73918 0.54987 0.0
C2411 C 0.64367 0.72865 0.57324 0.0
C2412 C 0.65347 0.75348 0.54735 0.0
C2413 C 0.6632 0.74313 0.57031 0.0
C2414 C 0.57756 0.69809 0.52447 0.0
C2415 C 0.59503 0.71042 0.51639 0.0
C2416 C 0.55941 0.69235 0.51732 0.0
C2417 C 0.59404 0.71714 0.50134 0.0
C2418 C 0.55904 0.6994 0.50225 0.0
N2419 N 0.57621 0.71156 0.49465 0.0
C2420 C 0.6069 0.67337 0.52541 0.0
C2421 C 0.63568 0.69311 0.54047 0.0
C2422 C 0.61724 0.66752 0.51553 0.0
N2423 N 0.61613 0.68575 0.53768 0.0
C2424 C 0.6467 0.68781 0.53074 0.0
C2425 C 0.63736 0.67456 0.51825 0.0
H2426 H 0.59127 0.66751 0.52363 0.0
H2427 H 0.64266 0.7026 0.55046 0.0
C2428 C 0.59711 0.74855 0.56472 0.0
N2429 N 0.58668 0.73466 0.55363 0.0
C2430 C 0.5985 0.76699 0.56406 0.0
C2431 C 0.57849 0.7566 0.54047 0.0
C2432 C 0.57733 0.73826 0.54168 0.0
C2433 C 0.58925 0.77127 0.55173 0.0
H2434 H 0.60402 0.74512 0.5743 0.0
H2435 H 0.56868 0.72687 0.53325 0.0
O2436 O 0.58263 0.66702 0.56578 0.0
O2437 O 0.56541 0.69273 0.57342 0.0
O2438 O 0.60973 0.71259 0.56565 0.0
O2439 O 0.57813 0.69112 0.53912 0.0
H2440 H 0.56989 0.63513 0.54801 0.0
H2441 H 0.61673 0.67536 0.57857 0.0
H2442 H 0.58808 0.61711 0.54363 0.0
H2443 H 0.63407 0.65659 0.57369 0.0
H2444 H 0.52173 0.71146 0.55776 0.0
H2445 H 0.57091 0.71712 0.597 0.0
H2446 H 0.53839 0.69182 0.55419 0.0
H2447 H 0.55373 0.73638 0.5998 0.0
H2448 H 0.58701 0.65733 0.62827 0.0
H2449 H 0.60958 0.72014 0.63161 0.0
H2450 H 0.51487 0.61482 0.52701 0.0
H2451 H 0.49328 0.62838 0.56938 0.0
H2452 H 0.62247 0.73807 0.54193 0.0
H2453 H 0.64007 0.71909 0.58341 0.0
H2454 H 0.65747 0.76332 0.53734 0.0
H2455 H 0.67481 0.74484 0.5782 0.0
H2456 H 0.60919 0.71458 0.52159 0.0
H2457 H 0.54576 0.68265 0.52339 0.0
H2458 H 0.60744 0.72673 0.49495 0.0
H2459 H 0.54509 0.69518 0.4966 0.0
H2460 H 0.60939 0.65709 0.50617 0.0
H2461 H 0.66226 0.69383 0.53308 0.0
H2462 H 0.60639 0.77763 0.57328 0.0
H2463 H 0.57103 0.75928 0.53084 0.0
Li2464 Li 0.35892 0.92271 0.57819 0.0
Li2465 Li 0.37538 0.91548 0.55654 0.0
Li2466 Li 0.36119 0.93766 0.5531 0.0
Li2467 Li 0.33942 0.9024 0.55511 0.0
C2468 C 0.39602 0.95231 0.57839 0.0
N2469 N 0.42124 0.97403 0.60256 0.0
C2470 C 0.41239 0.95033 0.58189 0.0
C2471 C 0.39259 0.96547 0.58708 0.0
C2472 C 0.42495 0.96142 0.59418 0.0
C2473 C 0.40547 0.97626 0.5993 0.0
C2474 C 0.35181 0.87844 0.57401 0.0
C2475 C 0.34142 0.8452 0.56562 0.0
N2476 N 0.34574 0.84114 0.58019 0.0
C2477 C 0.35595 0.87385 0.58895 0.0
C2478 C 0.34434 0.86395 0.56228 0.0
C2479 C 0.35287 0.85495 0.59182 0.0
C2480 C 0.34563 0.92843 0.60789 0.0
N2481 N 0.35917 0.92525 0.60046 0.0
C2482 C 0.37398 0.9251 0.62502 0.0
C2483 C 0.37313 0.92349 0.60865 0.0
C2484 C 0.36016 0.92828 0.63309 0.0
C2485 C 0.34581 0.92992 0.62433 0.0
H2486 H 0.33455 0.92953 0.60107 0.0
H2487 H 0.38359 0.92077 0.60242 0.0
C2488 C 0.409 0.92291 0.5396 0.0
N2489 N 0.39706 0.91197 0.55163 0.0
C2490 C 0.42633 0.9226 0.5364 0.0
C2491 C 0.41841 0.89933 0.55775 0.0
C2492 C 0.4013 0.90018 0.56059 0.0
C2493 C 0.43133 0.91093 0.54572 0.0
H2494 H 0.40529 0.93227 0.53276 0.0
H2495 H 0.39181 0.89197 0.57029 0.0
C2496 C 0.32802 0.93379 0.56306 0.0
N2497 N 0.30983 0.95512 0.55533 0.0
C2498 C 0.31296 0.92654 0.55182 0.0
C2499 C 0.33374 0.9518 0.57048 0.0
C2500 C 0.30396 0.93756 0.54805 0.0
C2501 C 0.32439 0.96239 0.56637 0.0
C2502 C 0.35728 0.9069 0.52476 0.0
C2503 C 0.3512 0.91238 0.51111 0.0
C2504 C 0.36135 0.89144 0.5241 0.0
C2505 C 0.34893 0.90205 0.4971 0.0
C2506 C 0.35889 0.88148 0.50987 0.0
N2507 N 0.35277 0.88693 0.49678 0.0
C2508 C 0.38164 0.97816 0.54675 0.0
C2509 C 0.35433 0.95964 0.52987 0.0
C2510 C 0.38752 0.99503 0.5377 0.0
N2511 N 0.36562 0.96083 0.54248 0.0
C2512 C 0.35977 0.97616 0.52039 0.0
C2513 C 0.37699 0.9939 0.52398 0.0
H2514 H 0.39045 0.9787 0.55672 0.0
H2515 H 0.34164 0.94566 0.52677 0.0
C2516 C 0.30291 0.87205 0.56281 0.0
N2517 N 0.31463 0.88025 0.55001 0.0
C2518 C 0.28444 0.85525 0.56119 0.0
C2519 C 0.29031 0.85566 0.53314 0.0
C2520 C 0.30868 0.87259 0.5353 0.0
C2521 C 0.27805 0.84677 0.54623 0.0
H2522 H 0.30809 0.8785 0.57435 0.0
H2523 H 0.31811 0.87941 0.52527 0.0
O2524 O 0.38344 0.94142 0.5665 0.0
O2525 O 0.35467 0.8969 0.57106 0.0
O2526 O 0.33721 0.92336 0.56673 0.0
O2527 O 0.35969 0.91698 0.53855 0.0
H2528 H 0.41534 0.94029 0.57525 0.0
H2529 H 0.37996 0.96714 0.58456 0.0
H2530 H 0.43764 0.95999 0.59706 0.0
H2531 H 0.40289 0.98638 0.6062 0.0
H2532 H 0.33565 0.83387 0.55665 0.0
H2533 H 0.36154 0.88477 0.59823 0.0
H2534 H 0.34059 0.86698 0.55078 0.0
H2535 H 0.35612 0.85125 0.60331 0.0
H2536 H 0.38531 0.92379 0.63132 0.0
H2537 H 0.33457 0.93187 0.63012 0.0
H2538 H 0.43591 0.93163 0.52696 0.0
H2539 H 0.42193 0.89033 0.56528 0.0
H2540 H 0.3084 0.91264 0.54595 0.0
H2541 H 0.34535 0.95759 0.57922 0.0
H2542 H 0.29235 0.93218 0.53931 0.0
H2543 H 0.32873 0.97641 0.57194 0.0
H2544 H 0.34818 0.92441 0.51131 0.0
H2545 H 0.36644 0.88721 0.5344 0.0
H2546 H 0.34413 0.90607 0.48647 0.0
H2547 H 0.36193 0.86945 0.50923 0.0
H2548 H 0.40072 0.00858 0.54094 0.0
H2549 H 0.3513 0.97479 0.50988 0.0
H2550 H 0.27541 0.84871 0.57156 0.0
H2551 H 0.28571 0.84961 0.52141 0.0
Li2552 Li 0.1322 0.48469 0.55891 0.0
Li2553 Li 0.12351 0.45707 0.57885 0.0
Li2554 Li 0.14737 0.46384 0.55674 0.0
Li2555 Li 0.11324 0.45009 0.55146 0.0
C2556 C 0.16849 0.49631 0.57592 0.0
N2557 N 0.20724 0.52609 0.5786 0.0
C2558 C 0.17844 0.49943 0.59024 0.0
C2559 C 0.17822 0.50826 0.56294 0.0
C2560 C 0.19804 0.5146 0.59136 0.0
C2561 C 0.19782 0.52324 0.56454 0.0
C2562 C 0.08651 0.45656 0.56412 0.0
C2563 C 0.05299 0.4297 0.56581 0.0
N2564 N 0.04714 0.43975 0.55623 0.0
C2565 C 0.08017 0.46668 0.55436 0.0
C2566 C 0.07284 0.43796 0.56997 0.0
C2567 C 0.06019 0.45791 0.55049 0.0
C2568 C 0.13101 0.51584 0.54317 0.0
N2569 N 0.13599 0.51033 0.55683 0.0
C2570 C 0.14542 0.54148 0.5686 0.0
C2571 C 0.1431 0.52266 0.56942 0.0
C2572 C 0.14021 0.54757 0.55473 0.0
C2573 C 0.13297 0.53452 0.54187 0.0
H2574 H 0.12515 0.50557 0.53343 0.0
H2575 H 0.14676 0.51776 0.58017 0.0
C2576 C 0.13222 0.44846 0.60876 0.0
N2577 N 0.11866 0.45077 0.60049 0.0
C2578 C 0.13048 0.44596 0.6251 0.0
C2579 C 0.10052 0.44769 0.62399 0.0
C2580 C 0.10293 0.45032 0.60769 0.0
C2581 C 0.11454 0.44571 0.63294 0.0
H2582 H 0.14476 0.44925 0.6027 0.0
H2583 H 0.09259 0.45259 0.60085 0.0
C2584 C 0.14147 0.47253 0.52502 0.0
N2585 N 0.15418 0.47366 0.49443 0.0
C2586 C 0.13612 0.455 0.51693 0.0
C2587 C 0.15313 0.49062 0.51751 0.0
C2588 C 0.14273 0.45589 0.50148 0.0
C2589 C 0.15946 0.49089 0.50206 0.0
C2590 C 0.12079 0.41961 0.56113 0.0
C2591 C 0.12908 0.41565 0.54804 0.0
C2592 C 0.10772 0.40415 0.57086 0.0
C2593 C 0.12372 0.39614 0.54463 0.0
C2594 C 0.10273 0.38485 0.56705 0.0
N2595 N 0.11075 0.38127 0.55411 0.0
C2596 C 0.17793 0.45833 0.56556 0.0
C2597 C 0.18191 0.47001 0.53925 0.0
C2598 C 0.19582 0.45856 0.56485 0.0
N2599 N 0.1714 0.4641 0.55291 0.0
C2600 C 0.19984 0.47029 0.53798 0.0
C2601 C 0.20705 0.46475 0.55097 0.0
H2602 H 0.16926 0.45375 0.57627 0.0
H2603 H 0.17664 0.47476 0.52939 0.0
C2604 C 0.0891 0.44241 0.52539 0.0
N2605 N 0.09203 0.43321 0.53781 0.0
C2606 C 0.07324 0.43198 0.51522 0.0
C2607 C 0.06357 0.40266 0.53077 0.0
C2608 C 0.07967 0.4137 0.54067 0.0
C2609 C 0.06024 0.41184 0.51786 0.0
H2610 H 0.0988 0.45806 0.52366 0.0
H2611 H 0.08183 0.40683 0.5509 0.0
O2612 O 0.14937 0.48142 0.57454 0.0
O2613 O 0.10609 0.46462 0.56763 0.0
O2614 O 0.13509 0.47208 0.54011 0.0
O2615 O 0.12591 0.43858 0.56479 0.0
H2616 H 0.1711 0.49024 0.60036 0.0
H2617 H 0.17074 0.50592 0.55175 0.0
H2618 H 0.20594 0.51723 0.60238 0.0
H2619 H 0.20555 0.5326 0.55459 0.0
H2620 H 0.04227 0.41524 0.57013 0.0
H2621 H 0.0906 0.48105 0.54969 0.0
H2622 H 0.07757 0.42984 0.57738 0.0
H2623 H 0.05508 0.46551 0.54286 0.0
H2624 H 0.15108 0.55113 0.57876 0.0
H2625 H 0.12834 0.53848 0.5311 0.0
H2626 H 0.14194 0.44507 0.63156 0.0
H2627 H 0.08805 0.44762 0.62959 0.0
H2628 H 0.12686 0.44088 0.52245 0.0
H2629 H 0.15733 0.50433 0.52358 0.0
H2630 H 0.13871 0.44244 0.49509 0.0
H2631 H 0.16857 0.50478 0.49612 0.0
H2632 H 0.13967 0.42749 0.54068 0.0
H2633 H 0.10138 0.40705 0.58115 0.0
H2634 H 0.12995 0.39284 0.53449 0.0
H2635 H 0.09251 0.37271 0.57438 0.0
H2636 H 0.2008 0.4539 0.57504 0.0
H2637 H 0.20818 0.47518 0.5271 0.0
H2638 H 0.07079 0.43975 0.50571 0.0
H2639 H 0.05369 0.38721 0.53329 0.0
Li2640 Li 0.33807 0.46094 0.55614 0.0
Li2641 Li 0.35643 0.45694 0.57754 0.0
Li2642 Li 0.37335 0.48209 0.55583 0.0
Li2643 Li 0.35985 0.44679 0.55068 0.0
C2644 C 0.34406 0.48942 0.57652 0.0
N2645 N 0.32129 0.50598 0.58459 0.0
C2646 C 0.33343 0.48417 0.59065 0.0
C2647 C 0.34338 0.50336 0.56664 0.0
C2648 C 0.32194 0.49265 0.59448 0.0
C2649 C 0.3317 0.51148 0.57088 0.0
C2650 C 0.32707 0.41754 0.57078 0.0
C2651 C 0.32888 0.38923 0.5797 0.0
N2652 N 0.30966 0.38041 0.58422 0.0
C2653 C 0.30725 0.40807 0.57531 0.0
C2654 C 0.3379 0.40794 0.57283 0.0
C2655 C 0.29875 0.38937 0.58217 0.0
C2656 C 0.30966 0.46614 0.53866 0.0
N2657 N 0.31365 0.45965 0.55229 0.0
C2658 C 0.28354 0.45416 0.56381 0.0
C2659 C 0.30084 0.4533 0.5646 0.0
C2660 C 0.27937 0.46151 0.55016 0.0
C2661 C 0.29235 0.4671 0.5373 0.0
H2662 H 0.32012 0.47107 0.52905 0.0
H2663 H 0.30448 0.4483 0.57529 0.0
C2664 C 0.37365 0.46154 0.60755 0.0
N2665 N 0.35633 0.45233 0.59948 0.0
C2666 C 0.37381 0.45974 0.62392 0.0
C2667 C 0.3383 0.43918 0.62337 0.0
C2668 C 0.33884 0.44124 0.60701 0.0
C2669 C 0.35592 0.44873 0.632 0.0
H2670 H 0.38729 0.4707 0.60131 0.0
H2671 H 0.32525 0.4346 0.60038 0.0
C2672 C 0.36426 0.47723 0.5248 0.0
N2673 N 0.3814 0.50007 0.49832 0.0
C2674 C 0.37391 0.47169 0.51381 0.0
C2675 C 0.36308 0.49424 0.52219 0.0
C2676 C 0.38254 0.48347 0.50053 0.0
C2677 C 0.37192 0.50564 0.50877 0.0
C2678 C 0.39592 0.46041 0.56937 0.0
C2679 C 0.41485 0.4727 0.56338 0.0
C2680 C 0.39259 0.44484 0.57936 0.0
C2681 C 0.43 0.46889 0.56715 0.0
C2682 C 0.40813 0.44153 0.58287 0.0
N2683 N 0.42635 0.4535 0.57672 0.0
C2684 C 0.39757 0.52274 0.56109 0.0
C2685 C 0.40806 0.51039 0.53995 0.0
C2686 C 0.414 0.54148 0.5592 0.0
N2687 N 0.39496 0.50766 0.55157 0.0
C2688 C 0.42462 0.52892 0.53755 0.0
C2689 C 0.42783 0.54473 0.54733 0.0
H2690 H 0.38718 0.52007 0.57047 0.0
H2691 H 0.40595 0.49806 0.53281 0.0
C2692 C 0.34872 0.4111 0.53393 0.0
N2693 N 0.36403 0.42866 0.53882 0.0
C2694 C 0.35232 0.39804 0.52523 0.0
C2695 C 0.38725 0.42153 0.52674 0.0
C2696 C 0.38298 0.43415 0.53519 0.0
C2697 C 0.37184 0.4032 0.52176 0.0
H2698 H 0.33375 0.40727 0.53676 0.0
H2699 H 0.39478 0.44851 0.53856 0.0
O2700 O 0.35497 0.48088 0.57235 0.0
O2701 O 0.33561 0.43592 0.5641 0.0
O2702 O 0.35581 0.46592 0.53791 0.0
O2703 O 0.38092 0.46398 0.56576 0.0
H2704 H 0.33386 0.47351 0.59849 0.0
H2705 H 0.35171 0.50778 0.55578 0.0
H2706 H 0.3135 0.48859 0.60531 0.0
H2707 H 0.3309 0.52214 0.56327 0.0
H2708 H 0.33713 0.38167 0.58137 0.0
H2709 H 0.29852 0.41511 0.57361 0.0
H2710 H 0.35302 0.41471 0.56896 0.0
H2711 H 0.28347 0.38195 0.58582 0.0
H2712 H 0.27368 0.44947 0.57386 0.0
H2713 H 0.28949 0.47277 0.52658 0.0
H2714 H 0.38765 0.46748 0.63026 0.0
H2715 H 0.32424 0.43057 0.62925 0.0
H2716 H 0.37477 0.45847 0.51551 0.0
H2717 H 0.35553 0.49866 0.53047 0.0
H2718 H 0.39013 0.4794 0.49198 0.0
H2719 H 0.37123 0.51891 0.50667 0.0
H2720 H 0.4178 0.48495 0.55578 0.0
H2721 H 0.37829 0.43559 0.5846 0.0
H2722 H 0.44467 0.4782 0.56247 0.0
H2723 H 0.40573 0.42951 0.59057 0.0
H2724 H 0.41621 0.55309 0.56731 0.0
H2725 H 0.43499 0.53079 0.52833 0.0
H2726 H 0.3401 0.3841 0.52132 0.0
H2727 H 0.40244 0.42623 0.52381 0.0
Li2728 Li 0.59022 0.92749 0.57757 0.0
Li2729 Li 0.58777 0.90403 0.55731 0.0
Li2730 Li 0.60344 0.93969 0.55144 0.0
Li2731 Li 0.56755 0.91887 0.55491 0.0
C2732 C 0.63161 0.93635 0.56925 0.0
N2733 N 0.67176 0.95691 0.57476 0.0
C2734 C 0.64296 0.92745 0.5664 0.0
C2735 C 0.64069 0.95573 0.57481 0.0
C2736 C 0.66323 0.93807 0.56932 0.0
C2737 C 0.66101 0.9659 0.57749 0.0
C2738 C 0.55954 0.88293 0.57734 0.0
C2739 C 0.53951 0.84785 0.57327 0.0
N2740 N 0.54561 0.84467 0.58743 0.0
C2741 C 0.56555 0.87932 0.59188 0.0
C2742 C 0.54634 0.86709 0.56798 0.0
C2743 C 0.55834 0.85987 0.59677 0.0
C2744 C 0.57832 0.93348 0.60727 0.0
N2745 N 0.59301 0.93243 0.59962 0.0
C2746 C 0.6095 0.93518 0.62401 0.0
C2747 C 0.60845 0.93323 0.60761 0.0
C2748 C 0.59449 0.93627 0.63221 0.0
C2749 C 0.57899 0.93586 0.62358 0.0
H2750 H 0.56583 0.93205 0.60075 0.0
H2751 H 0.61961 0.93167 0.60135 0.0
C2752 C 0.58168 0.86928 0.54149 0.0
N2753 N 0.58935 0.88083 0.55448 0.0
C2754 C 0.58206 0.8517 0.54014 0.0
C2755 C 0.59855 0.85849 0.56541 0.0
C2756 C 0.59776 0.87585 0.5663 0.0
C2757 C 0.59063 0.84619 0.5522 0.0
H2758 H 0.5751 0.87362 0.53227 0.0
H2759 H 0.60356 0.88527 0.57655 0.0
C2760 C 0.58211 0.95729 0.57372 0.0
N2761 N 0.5751 0.9808 0.59403 0.0
C2762 C 0.56286 0.9535 0.57627 0.0
C2763 C 0.59778 0.97319 0.58145 0.0
C2764 C 0.55963 0.96552 0.58658 0.0
C2765 C 0.59394 0.98484 0.5917 0.0
C2766 C 0.57411 0.91478 0.52492 0.0
C2767 C 0.58053 0.93052 0.51436 0.0
C2768 C 0.5567 0.89713 0.52183 0.0
C2769 C 0.56933 0.92836 0.5009 0.0
C2770 C 0.5459 0.89557 0.50826 0.0
N2771 N 0.55238 0.91108 0.49816 0.0
C2772 C 0.63455 0.95849 0.52908 0.0
C2773 C 0.6253 0.97917 0.54256 0.0
C2774 C 0.64772 0.97427 0.51963 0.0
N2775 N 0.6235 0.96121 0.5401 0.0
C2776 C 0.63839 0.99532 0.53356 0.0
C2777 C 0.6496 0.99292 0.52178 0.0
H2778 H 0.6326 0.94395 0.52728 0.0
H2779 H 0.61601 0.98081 0.55111 0.0
C2780 C 0.52632 0.90112 0.5567 0.0
N2781 N 0.54245 0.915 0.54886 0.0
C2782 C 0.50799 0.89962 0.55436 0.0
C2783 C 0.52304 0.92622 0.53545 0.0
C2784 C 0.54114 0.92736 0.53829 0.0
C2785 C 0.50627 0.91257 0.54389 0.0
H2786 H 0.52784 0.89182 0.56533 0.0
H2787 H 0.55429 0.93858 0.5325 0.0
O2788 O 0.61165 0.92596 0.56692 0.0
O2789 O 0.56676 0.90186 0.57218 0.0
O2790 O 0.5856 0.94571 0.56359 0.0
O2791 O 0.58483 0.91665 0.5382 0.0
H2792 H 0.63616 0.91245 0.56211 0.0
H2793 H 0.63212 0.96277 0.5771 0.0
H2794 H 0.67217 0.93131 0.5673 0.0
H2795 H 0.66821 0.9809 0.58181 0.0
H2796 H 0.52941 0.83545 0.5661 0.0
H2797 H 0.57579 0.8914 0.59925 0.0
H2798 H 0.54161 0.86963 0.55667 0.0
H2799 H 0.56293 0.85685 0.60796 0.0
H2800 H 0.62159 0.9352 0.63024 0.0
H2801 H 0.5673 0.93705 0.62938 0.0
H2802 H 0.57582 0.84253 0.52979 0.0
H2803 H 0.60495 0.85452 0.57507 0.0
H2804 H 0.55047 0.94132 0.57054 0.0
H2805 H 0.61278 0.97654 0.57962 0.0
H2806 H 0.5448 0.96266 0.58869 0.0
H2807 H 0.60594 0.99711 0.59778 0.0
H2808 H 0.59395 0.9443 0.51657 0.0
H2809 H 0.55142 0.88486 0.52994 0.0
H2810 H 0.57409 0.94043 0.49264 0.0
H2811 H 0.53233 0.88204 0.50577 0.0
H2812 H 0.65599 0.97186 0.51051 0.0
H2813 H 0.63901 0.00933 0.53526 0.0
H2814 H 0.49548 0.88904 0.56123 0.0
H2815 H 0.52228 0.93626 0.52708 0.0
Li2816 Li 0.14693 0.71293 0.55658 0.0
Li2817 Li 0.12448 0.69497 0.57811 0.0
Li2818 Li 0.13313 0.67726 0.5574 0.0
Li2819 Li 0.11092 0.6901 0.55128 0.0
C2820 C 0.16991 0.70564 0.57653 0.0
N2821 N 0.20982 0.72342 0.58284 0.0
C2822 C 0.17776 0.71744 0.58992 0.0
C2823 C 0.1823 0.70257 0.56652 0.0
C2824 C 0.19799 0.72639 0.59286 0.0
C2825 C 0.20245 0.71176 0.56986 0.0
C2826 C 0.11536 0.7239 0.57204 0.0
C2827 C 0.08667 0.72334 0.58302 0.0
N2828 N 0.09831 0.74192 0.58864 0.0
C2829 C 0.12701 0.74309 0.57775 0.0
C2830 C 0.09501 0.71402 0.57455 0.0
C2831 C 0.11813 0.75191 0.58619 0.0
C2832 C 0.17741 0.74224 0.53719 0.0
N2833 N 0.16954 0.73746 0.55192 0.0
C2834 C 0.19479 0.76819 0.56212 0.0
C2835 C 0.17768 0.75009 0.56423 0.0
C2836 C 0.20355 0.77339 0.54714 0.0
C2837 C 0.19457 0.76028 0.53451 0.0
H2838 H 0.1704 0.73208 0.52753 0.0
H2839 H 0.17095 0.74598 0.57576 0.0
C2840 C 0.10797 0.67904 0.60791 0.0
N2841 N 0.11996 0.69599 0.59999 0.0
C2842 C 0.10574 0.67934 0.62423 0.0
C2843 C 0.12839 0.71451 0.62395 0.0
C2844 C 0.13008 0.71354 0.60763 0.0
C2845 C 0.11617 0.69723 0.63243 0.0
H2846 H 0.10063 0.66518 0.60165 0.0
H2847 H 0.13995 0.7267 0.60111 0.0
C2848 C 0.1388 0.68719 0.52562 0.0
N2849 N 0.14783 0.67362 0.49856 0.0
C2850 C 0.12423 0.67671 0.51432 0.0
C2851 C 0.15802 0.69103 0.52301 0.0
C2852 C 0.12907 0.66991 0.50075 0.0
C2853 C 0.16227 0.68396 0.5093 0.0
C2854 C 0.08848 0.65417 0.56823 0.0
C2855 C 0.08376 0.63593 0.56169 0.0
C2856 C 0.07393 0.65622 0.57611 0.0
C2857 C 0.06446 0.62018 0.56284 0.0
C2858 C 0.05479 0.64012 0.57702 0.0
N2859 N 0.05049 0.62259 0.5704 0.0
C2860 C 0.14619 0.65169 0.5669 0.0
C2861 C 0.13123 0.64394 0.54162 0.0
C2862 C 0.14837 0.63508 0.56654 0.0
N2863 N 0.13767 0.65575 0.55459 0.0
C2864 C 0.13321 0.62721 0.54073 0.0
C2865 C 0.14168 0.62254 0.55339 0.0
H2866 H 0.15079 0.66108 0.5772 0.0
H2867 H 0.12377 0.64696 0.53227 0.0
C2868 C 0.08578 0.70065 0.53499 0.0
N2869 N 0.08876 0.6855 0.53895 0.0
C2870 C 0.06951 0.69715 0.5258 0.0
C2871 C 0.05987 0.66261 0.52494 0.0
C2872 C 0.07637 0.66681 0.53393 0.0
C2873 C 0.05632 0.67788 0.52078 0.0
H2874 H 0.09608 0.71545 0.53892 0.0
H2875 H 0.07951 0.6552 0.53661 0.0
O2876 O 0.15017 0.69695 0.57335 0.0
O2877 O 0.12384 0.71496 0.56388 0.0
O2878 O 0.13429 0.69392 0.53899 0.0
O2879 O 0.10732 0.66976 0.56715 0.0
H2880 H 0.16837 0.71981 0.5979 0.0
H2881 H 0.17641 0.69308 0.55634 0.0
H2882 H 0.20428 0.73571 0.60311 0.0
H2883 H 0.21221 0.70958 0.56216 0.0
H2884 H 0.07093 0.71582 0.58508 0.0
H2885 H 0.14275 0.75108 0.57576 0.0
H2886 H 0.08572 0.69939 0.56988 0.0
H2887 H 0.12699 0.7667 0.59077 0.0
H2888 H 0.2013 0.77786 0.57216 0.0
H2889 H 0.2007 0.76396 0.52273 0.0
H2890 H 0.09658 0.66564 0.63043 0.0
H2891 H 0.13679 0.72854 0.62992 0.0
H2892 H 0.10934 0.67381 0.51602 0.0
H2893 H 0.16958 0.69947 0.53142 0.0
H2894 H 0.11791 0.66169 0.49197 0.0
H2895 H 0.17708 0.68676 0.50718 0.0
H2896 H 0.09484 0.63399 0.55567 0.0
H2897 H 0.07739 0.67001 0.58164 0.0
H2898 H 0.06059 0.60604 0.55773 0.0
H2899 H 0.04339 0.64154 0.58305 0.0
H2900 H 0.15488 0.63186 0.57656 0.0
H2901 H 0.12742 0.61759 0.53058 0.0
H2902 H 0.0672 0.70927 0.52272 0.0
H2903 H 0.05019 0.64764 0.52096 0.0
Li2904 Li 0.1487 0.70844 0.77736 0.0
Li2905 Li 0.11421 0.69312 0.78242 0.0
Li2906 Li 0.12872 0.67328 0.77647 0.0
Li2907 Li 0.12379 0.6927 0.75515 0.0
C2908 C 0.14722 0.70005 0.80689 0.0
N2909 N 0.17457 0.72041 0.83029 0.0
C2910 C 0.14396 0.7116 0.81772 0.0
C2911 C 0.16442 0.69888 0.808 0.0
C2912 C 0.15794 0.72175 0.82947 0.0
C2913 C 0.17807 0.7093 0.81989 0.0
C2914 C 0.12383 0.72932 0.7704 0.0
C2915 C 0.10828 0.74708 0.76046 0.0
N2916 N 0.11106 0.75614 0.77468 0.0
C2917 C 0.12655 0.73883 0.78491 0.0
C2918 C 0.11461 0.73347 0.75806 0.0
C2919 C 0.11997 0.75232 0.78685 0.0
C2920 C 0.18958 0.73144 0.77233 0.0
N2921 N 0.1745 0.73041 0.78102 0.0
C2922 C 0.19612 0.76168 0.79282 0.0
C2923 C 0.17743 0.74509 0.79116 0.0
C2924 C 0.21188 0.76321 0.78386 0.0
C2925 C 0.20849 0.74777 0.77359 0.0
H2926 H 0.18685 0.71981 0.76412 0.0
H2927 H 0.16526 0.74418 0.79778 0.0
C2928 C 0.09213 0.68718 0.81006 0.0
N2929 N 0.09417 0.69377 0.79496 0.0
C2930 C 0.07998 0.68987 0.82058 0.0
C2931 C 0.07074 0.70432 0.79943 0.0
C2932 C 0.08292 0.70116 0.78929 0.0
C2933 C 0.06985 0.69941 0.81545 0.0
H2934 H 0.10056 0.68052 0.81409 0.0
H2935 H 0.08398 0.70536 0.77705 0.0
C2936 C 0.15473 0.67901 0.75457 0.0
N2937 N 0.1673 0.6537 0.74402 0.0
C2938 C 0.14708 0.6683 0.74064 0.0
C2939 C 0.16895 0.677 0.76303 0.0
C2940 C 0.15359 0.65556 0.73552 0.0
C2941 C 0.17505 0.66408 0.75755 0.0
C2942 C 0.0843 0.66156 0.7702 0.0
C2943 C 0.07581 0.64782 0.78239 0.0
C2944 C 0.07259 0.66667 0.76118 0.0
C2945 C 0.05567 0.6395 0.78544 0.0
C2946 C 0.0525 0.658 0.7646 0.0
N2947 N 0.04453 0.64473 0.77657 0.0
C2948 C 0.13651 0.64552 0.79212 0.0
C2949 C 0.11829 0.63489 0.76828 0.0
C2950 C 0.13695 0.62794 0.79318 0.0
N2951 N 0.12763 0.64877 0.77962 0.0
C2952 C 0.11836 0.61714 0.76888 0.0
C2953 C 0.12814 0.61368 0.78127 0.0
H2954 H 0.14353 0.65666 0.8011 0.0
H2955 H 0.11117 0.63784 0.75858 0.0
C2956 C 0.13096 0.71154 0.72592 0.0
N2957 N 0.11932 0.69419 0.73344 0.0
C2958 C 0.12939 0.71298 0.70965 0.0
C2959 C 0.10389 0.67864 0.70918 0.0
C2960 C 0.10582 0.67792 0.72551 0.0
C2961 C 0.11588 0.69633 0.70103 0.0
H2962 H 0.1417 0.72416 0.73257 0.0
H2963 H 0.09704 0.66422 0.7318 0.0
O2964 O 0.13376 0.69007 0.79521 0.0
O2965 O 0.13011 0.71603 0.76824 0.0
O2966 O 0.14803 0.69105 0.76005 0.0
O2967 O 0.10405 0.67019 0.76727 0.0
H2968 H 0.13096 0.71303 0.81697 0.0
H2969 H 0.16738 0.69028 0.79965 0.0
H2970 H 0.15562 0.73079 0.83787 0.0
H2971 H 0.19149 0.7086 0.82081 0.0
H2972 H 0.10109 0.7504 0.75102 0.0
H2973 H 0.13314 0.73543 0.79471 0.0
H2974 H 0.11222 0.72614 0.74679 0.0
H2975 H 0.12183 0.75964 0.79806 0.0
H2976 H 0.19804 0.77348 0.80061 0.0
H2977 H 0.22029 0.74848 0.76643 0.0
H2978 H 0.0791 0.68521 0.83272 0.0
H2979 H 0.06294 0.71147 0.79495 0.0
H2980 H 0.13606 0.66963 0.73393 0.0
H2981 H 0.17507 0.68517 0.77381 0.0
H2982 H 0.14769 0.64709 0.72482 0.0
H2983 H 0.18592 0.66227 0.76406 0.0
H2984 H 0.08475 0.64379 0.78949 0.0
H2985 H 0.07901 0.67742 0.75179 0.0
H2986 H 0.0489 0.62892 0.79489 0.0
H2987 H 0.04326 0.6619 0.75779 0.0
H2988 H 0.14451 0.62572 0.80298 0.0
H2989 H 0.11095 0.60628 0.75969 0.0
H2990 H 0.13887 0.72689 0.70382 0.0
H2991 H 0.09368 0.66532 0.70295 0.0
Li2992 Li 0.3426 0.46537 0.77688 0.0
Li2993 Li 0.35613 0.44354 0.78186 0.0
Li2994 Li 0.37794 0.47956 0.77662 0.0
Li2995 Li 0.35946 0.45728 0.75512 0.0
C2996 C 0.35134 0.46942 0.80777 0.0
N2997 N 0.33366 0.47509 0.83392 0.0
C2998 C 0.34089 0.45401 0.81841 0.0
C2999 C 0.35306 0.48781 0.81057 0.0
C3000 C 0.332 0.45714 0.83153 0.0
C3001 C 0.34393 0.49035 0.82381 0.0
C3002 C 0.32047 0.42074 0.76384 0.0
C3003 C 0.30935 0.38915 0.75146 0.0
N3004 N 0.29107 0.38251 0.75764 0.0
C3005 C 0.30148 0.41368 0.76987 0.0
C3006 C 0.32437 0.40844 0.75441 0.0
C3007 C 0.28686 0.39428 0.76668 0.0
C3008 C 0.31888 0.4821 0.77118 0.0
N3009 N 0.32097 0.46943 0.78086 0.0
C3010 C 0.29049 0.46066 0.79372 0.0
C3011 C 0.30726 0.45884 0.79206 0.0
C3012 C 0.28779 0.47334 0.78366 0.0
C3013 C 0.30233 0.48431 0.77239 0.0
H3014 H 0.32977 0.49005 0.76218 0.0
H3015 H 0.30896 0.44844 0.7993 0.0
C3016 C 0.36798 0.4192 0.79789 0.0
N3017 N 0.35237 0.4213 0.79359 0.0
C3018 C 0.36494 0.4028 0.80668 0.0
C3019 C 0.32994 0.39125 0.80648 0.0
C3020 C 0.33366 0.40786 0.79785 0.0
C3021 C 0.34568 0.38861 0.81101 0.0
H3022 H 0.38276 0.4303 0.79453 0.0
H3023 H 0.32164 0.41027 0.7949 0.0
C3024 C 0.37166 0.50215 0.75624 0.0
N3025 N 0.39369 0.54149 0.74797 0.0
C3026 C 0.38144 0.50756 0.74174 0.0
C3027 C 0.37277 0.51674 0.7664 0.0
C3028 C 0.39256 0.52753 0.7378 0.0
C3029 C 0.38408 0.53654 0.76206 0.0
C3030 C 0.38961 0.44851 0.76084 0.0
C3031 C 0.40893 0.46019 0.75539 0.0
C3032 C 0.38006 0.42808 0.75877 0.0
C3033 C 0.41818 0.45129 0.74761 0.0
C3034 C 0.38981 0.41972 0.75095 0.0
N3035 N 0.4085 0.4314 0.74555 0.0
C3036 C 0.4065 0.51117 0.79549 0.0
C3037 C 0.41482 0.51077 0.76863 0.0
C3038 C 0.42377 0.52923 0.79781 0.0
N3039 N 0.40228 0.50257 0.781 0.0
C3040 C 0.43201 0.52887 0.77035 0.0
C3041 C 0.43644 0.53835 0.78501 0.0
H3042 H 0.39627 0.50425 0.80513 0.0
H3043 H 0.41109 0.50353 0.75727 0.0
C3044 C 0.34103 0.44372 0.72588 0.0
N3045 N 0.35891 0.45268 0.73311 0.0
C3046 C 0.33974 0.44147 0.70954 0.0
C3047 C 0.37532 0.45789 0.70833 0.0
C3048 C 0.37591 0.45964 0.72474 0.0
C3049 C 0.35706 0.44902 0.70053 0.0
H3050 H 0.32776 0.43874 0.73277 0.0
H3051 H 0.38996 0.46729 0.7307 0.0
O3052 O 0.36004 0.46659 0.7948 0.0
O3053 O 0.33497 0.43971 0.76691 0.0
O3054 O 0.36108 0.48269 0.76047 0.0
O3055 O 0.38033 0.45703 0.76847 0.0
H3056 H 0.33961 0.43976 0.81658 0.0
H3057 H 0.36132 0.49998 0.80261 0.0
H3058 H 0.32378 0.4453 0.83982 0.0
H3059 H 0.34504 0.50447 0.82605 0.0
H3060 H 0.3122 0.37949 0.7442 0.0
H3061 H 0.2981 0.42301 0.77704 0.0
H3062 H 0.33873 0.41381 0.74916 0.0
H3063 H 0.27216 0.3886 0.77139 0.0
H3064 H 0.27937 0.45163 0.80232 0.0
H3065 H 0.3007 0.49419 0.76439 0.0
H3066 H 0.37742 0.40121 0.81004 0.0
H3067 H 0.31494 0.3808 0.80993 0.0
H3068 H 0.38062 0.4965 0.73367 0.0
H3069 H 0.36506 0.51281 0.77755 0.0
H3070 H 0.40035 0.53193 0.72667 0.0
H3071 H 0.38522 0.54798 0.76988 0.0
H3072 H 0.41669 0.47598 0.75709 0.0
H3073 H 0.36539 0.41873 0.76332 0.0
H3074 H 0.43307 0.46018 0.74323 0.0
H3075 H 0.38255 0.40393 0.74923 0.0
H3076 H 0.42689 0.53628 0.80927 0.0
H3077 H 0.44159 0.53558 0.76028 0.0
H3078 H 0.32536 0.43422 0.70399 0.0
H3079 H 0.38902 0.46409 0.70178 0.0
Li3080 Li 0.60415 0.93726 0.78137 0.0
Li3081 Li 0.58314 0.90129 0.77416 0.0
Li3082 Li 0.58995 0.9293 0.75512 0.0
Li3083 Li 0.56918 0.92246 0.77754 0.0
C3084 C 0.6275 0.92566 0.76455 0.0
N3085 N 0.66599 0.9333 0.76478 0.0
C3086 C 0.63207 0.91216 0.77133 0.0
C3087 C 0.64246 0.94289 0.75766 0.0
C3088 C 0.65163 0.91633 0.77139 0.0
C3089 C 0.66184 0.94653 0.75797 0.0
C3090 C 0.57263 0.91422 0.80671 0.0
C3091 C 0.54593 0.89581 0.8249 0.0
N3092 N 0.5505 0.91284 0.83255 0.0
C3093 C 0.57711 0.93153 0.81477 0.0
C3094 C 0.55696 0.89619 0.81181 0.0
C3095 C 0.56573 0.93053 0.8278 0.0
C3096 C 0.63116 0.9736 0.7963 0.0
N3097 N 0.6264 0.95459 0.7936 0.0
C3098 C 0.65421 0.95903 0.80842 0.0
C3099 C 0.6372 0.94703 0.79985 0.0
C3100 C 0.65982 0.97884 0.81096 0.0
C3101 C 0.64795 0.9861 0.80508 0.0
H3102 H 0.62192 0.97904 0.79165 0.0
H3103 H 0.63253 0.93165 0.79821 0.0
C3104 C 0.57812 0.86563 0.76254 0.0
N3105 N 0.57998 0.87589 0.77596 0.0
C3106 C 0.57663 0.84714 0.76334 0.0
C3107 C 0.57872 0.85006 0.79177 0.0
C3108 C 0.58027 0.86855 0.79042 0.0
C3109 C 0.57712 0.83922 0.77809 0.0
H3110 H 0.57807 0.87198 0.75122 0.0
H3111 H 0.58193 0.87715 0.80087 0.0
C3112 C 0.59672 0.96547 0.76153 0.0
N3113 N 0.61034 0.99911 0.74336 0.0
C3114 C 0.58362 0.97135 0.75602 0.0
C3115 C 0.61675 0.97677 0.75786 0.0
C3116 C 0.59079 0.98838 0.74683 0.0
C3117 C 0.62335 0.9937 0.74864 0.0
C3118 C 0.54633 0.89643 0.7543 0.0
C3119 C 0.53921 0.9086 0.74897 0.0
C3120 C 0.53391 0.87598 0.75428 0.0
C3121 C 0.51974 0.9001 0.74371 0.0
C3122 C 0.51454 0.86804 0.7489 0.0
N3123 N 0.50791 0.88016 0.74378 0.0
C3124 C 0.60669 0.9318 0.72524 0.0
C3125 C 0.58255 0.94163 0.72559 0.0
C3126 C 0.60824 0.93376 0.70886 0.0
N3127 N 0.59384 0.93554 0.73322 0.0
C3128 C 0.58349 0.9436 0.70922 0.0
C3129 C 0.59617 0.93925 0.7007 0.0
H3130 H 0.61515 0.92652 0.73151 0.0
H3131 H 0.5723 0.94432 0.73207 0.0
C3132 C 0.54589 0.93893 0.78695 0.0
N3133 N 0.54576 0.92167 0.78478 0.0
C3134 C 0.52825 0.93883 0.78965 0.0
C3135 C 0.51098 0.90318 0.78889 0.0
C3136 C 0.52895 0.90397 0.7864 0.0
C3137 C 0.51051 0.9208 0.79003 0.0
H3138 H 0.55956 0.95277 0.78597 0.0
H3139 H 0.52935 0.89046 0.78498 0.0
O3140 O 0.6084 0.92179 0.76438 0.0
O3141 O 0.58328 0.91499 0.79369 0.0
O3142 O 0.58997 0.94877 0.77047 0.0
O3143 O 0.56526 0.90443 0.75969 0.0
H3144 H 0.62068 0.89869 0.77663 0.0
H3145 H 0.63915 0.95327 0.75202 0.0
H3146 H 0.65539 0.90608 0.7767 0.0
H3147 H 0.67357 0.95985 0.75273 0.0
H3148 H 0.53369 0.88198 0.82893 0.0
H3149 H 0.58913 0.94561 0.81089 0.0
H3150 H 0.55318 0.88268 0.80559 0.0
H3151 H 0.56896 0.94382 0.83411 0.0
H3152 H 0.6628 0.95287 0.81321 0.0
H3153 H 0.65175 0.00125 0.80712 0.0
H3154 H 0.57553 0.83929 0.75252 0.0
H3155 H 0.5788 0.84431 0.80338 0.0
H3156 H 0.56803 0.96272 0.75861 0.0
H3157 H 0.62711 0.97256 0.76213 0.0
H3158 H 0.5808 0.99304 0.74242 0.0
H3159 H 0.63882 0.00256 0.74571 0.0
H3160 H 0.54841 0.92445 0.74939 0.0
H3161 H 0.53917 0.86636 0.75843 0.0
H3162 H 0.51399 0.90936 0.73971 0.0
H3163 H 0.50475 0.85224 0.74883 0.0
H3164 H 0.61803 0.93009 0.70256 0.0
H3165 H 0.574 0.94791 0.70324 0.0
H3166 H 0.52834 0.95268 0.79055 0.0
H3167 H 0.49752 0.88902 0.78933 0.0
C3168 C 0.13392 0.26109 0.12875 0.0
C3169 C 0.12139 0.25491 0.11554 0.0
C3170 C 0.15181 0.26103 0.12848 0.0
C3171 C 0.15764 0.25475 0.115 0.0
H3172 H 0.13011 0.26647 0.13917 0.0
H3173 H 0.16137 0.26642 0.1387 0.0
S3174 S 0.12867 0.2346 0.07827 0.0
N3175 N 0.11509 0.24066 0.08926 0.0
N3176 N 0.14861 0.24041 0.08877 0.0
C3177 C 0.14481 0.24776 0.102 0.0
C3178 C 0.12669 0.24787 0.10226 0.0
C3179 C 0.78811 0.91774 0.1337 0.0
C3180 C 0.79749 0.93185 0.12174 0.0
C3181 C 0.78776 0.89965 0.13323 0.0
C3182 C 0.7964 0.89506 0.12061 0.0
H3183 H 0.78092 0.92068 0.14339 0.0
H3184 H 0.78026 0.889 0.14254 0.0
S3185 S 0.82275 0.92699 0.08648 0.0
N3186 N 0.81577 0.94013 0.09709 0.0
N3187 N 0.81483 0.90602 0.09611 0.0
C3188 C 0.80594 0.9091 0.10869 0.0
C3189 C 0.80656 0.92755 0.10928 0.0
C3190 C 0.12503 0.9071 0.10845 0.0
C3191 C 0.11909 0.89481 0.1218 0.0
C3192 C 0.14319 0.92463 0.10811 0.0
C3193 C 0.15592 0.93057 0.12117 0.0
H3194 H 0.11577 0.9029 0.09804 0.0
H3195 H 0.14734 0.93358 0.09752 0.0
S3196 S 0.14696 0.904 0.15915 0.0
N3197 N 0.12709 0.88995 0.14852 0.0
N3198 N 0.1613 0.92314 0.14792 0.0
C3199 C 0.15001 0.91867 0.13472 0.0
C3200 C 0.13159 0.90067 0.13501 0.0
C3201 C 0.25244 0.12852 0.89614 0.0
C3202 C 0.2563 0.12139 0.88218 0.0
C3203 C 0.25265 0.14649 0.89635 0.0
C3204 C 0.25689 0.15804 0.88263 0.0
H3205 H 0.24906 0.12005 0.90695 0.0
H3206 H 0.24935 0.15132 0.90733 0.0
S3207 S 0.26906 0.14625 0.84328 0.0
N3208 N 0.26492 0.12725 0.85443 0.0
N3209 N 0.26574 0.16134 0.85483 0.0
C3210 C 0.26087 0.15108 0.8686 0.0
C3211 C 0.26049 0.13267 0.86837 0.0
C3212 C 0.92597 0.14036 0.88255 0.0
C3213 C 0.92699 0.15882 0.88273 0.0
C3214 C 0.90777 0.1228 0.88278 0.0
C3215 C 0.88998 0.1231 0.88328 0.0
H3216 H 0.93933 0.13947 0.88266 0.0
H3217 H 0.90763 0.1089 0.88302 0.0
S3218 S 0.88449 0.16744 0.88224 0.0
N3219 N 0.90856 0.17627 0.88215 0.0
N3220 N 0.87436 0.1432 0.88284 0.0
C3221 C 0.89074 0.1414 0.88302 0.0
C3222 C 0.90925 0.15927 0.88269 0.0
C3223 C 0.9098 0.81199 0.88109 0.0
C3224 C 0.89165 0.79453 0.87901 0.0
C3225 C 0.92753 0.8117 0.88145 0.0
C3226 C 0.92776 0.79397 0.87959 0.0
H3227 H 0.91024 0.82588 0.88303 0.0
H3228 H 0.94115 0.82541 0.88345 0.0
S3229 S 0.88436 0.74443 0.87279 0.0
N3230 N 0.87506 0.75921 0.8742 0.0
N3231 N 0.90842 0.75863 0.87503 0.0
C3232 C 0.90981 0.77651 0.87694 0.0
C3233 C 0.89173 0.77679 0.87664 0.0
C3234 C 0.79355 0.58146 0.4365 0.0
C3235 C 0.78737 0.58797 0.44962 0.0
C3236 C 0.81185 0.58238 0.43639 0.0
C3237 C 0.82467 0.58986 0.44939 0.0
H3238 H 0.78412 0.57555 0.42624 0.0
H3239 H 0.81598 0.5771 0.42607 0.0
S3240 S 0.81579 0.60957 0.48634 0.0
N3241 N 0.79563 0.60257 0.47578 0.0
N3242 N 0.83017 0.60434 0.47558 0.0
C3243 C 0.81866 0.59635 0.46262 0.0
C3244 C 0.79997 0.5954 0.46273 0.0
C3245 C 0.46933 0.25546 0.45621 0.0
C3246 C 0.45257 0.25607 0.45102 0.0
C3247 C 0.46962 0.23772 0.45644 0.0
C3248 C 0.4532 0.22002 0.45141 0.0
H3249 H 0.48257 0.26891 0.45959 0.0
H3250 H 0.48303 0.23797 0.46003 0.0
S3251 S 0.4049 0.21319 0.43868 0.0
N3252 N 0.41849 0.23706 0.44223 0.0
N3253 N 0.41922 0.20377 0.4424 0.0
C3254 C 0.4361 0.22025 0.4468 0.0
C3255 C 0.43574 0.23827 0.44667 0.0
C3256 C 0.80928 0.25703 0.44146 0.0
C3257 C 0.82264 0.26322 0.45412 0.0
C3258 C 0.79129 0.23934 0.44223 0.0
C3259 C 0.78618 0.22711 0.45559 0.0
H3260 H 0.8128 0.26594 0.43088 0.0
H3261 H 0.78147 0.23496 0.43216 0.0
S3262 S 0.81598 0.23684 0.49191 0.0
N3263 N 0.82952 0.25605 0.48048 0.0
N3264 N 0.79569 0.2225 0.48183 0.0
C3265 C 0.79935 0.23318 0.46837 0.0
C3266 C 0.81758 0.25136 0.46767 0.0
C3267 C 0.93337 0.46941 0.20384 0.0
C3268 C 0.91664 0.45243 0.20961 0.0
C3269 C 0.93423 0.48774 0.20378 0.0
C3270 C 0.91839 0.48959 0.20952 0.0
H3271 H 0.94623 0.46871 0.20008 0.0
H3272 H 0.94769 0.50068 0.19998 0.0
S3273 S 0.87016 0.44915 0.22344 0.0
N3274 N 0.88305 0.43825 0.21934 0.0
N3275 N 0.88478 0.47274 0.2194 0.0
C3276 C 0.90117 0.47255 0.21437 0.0
C3277 C 0.90026 0.45394 0.21437 0.0
C3278 C 0.58283 0.48849 0.20507 0.0
C3279 C 0.59746 0.49047 0.21579 0.0
C3280 C 0.56429 0.4713 0.20469 0.0
C3281 C 0.55983 0.45566 0.21508 0.0
H3282 H 0.58553 0.50053 0.19726 0.0
H3283 H 0.55319 0.47047 0.1966 0.0
S3284 S 0.59355 0.45243 0.24398 0.0
N3285 N 0.60672 0.47448 0.23595 0.0
N3286 N 0.5717 0.44239 0.23543 0.0
C3287 C 0.57447 0.45712 0.22541 0.0
C3288 C 0.59335 0.47449 0.22573 0.0
C3289 C 0.55814 0.11073 0.21532 0.0
C3290 C 0.55846 0.12882 0.2142 0.0
C3291 C 0.57566 0.11004 0.21575 0.0
C3292 C 0.59411 0.1274 0.21502 0.0
H3293 H 0.54423 0.09701 0.21594 0.0
H3294 H 0.57479 0.09583 0.21672 0.0
S3295 S 0.60305 0.17852 0.21289 0.0
N3296 N 0.57879 0.16453 0.21294 0.0
N3297 N 0.61174 0.16318 0.2136 0.0
C3298 C 0.59467 0.14557 0.21381 0.0
C3299 C 0.57683 0.14629 0.21343 0.0
C3300 C 0.46882 0.92956 0.80196 0.0
C3301 C 0.45586 0.9216 0.7891 0.0
C3302 C 0.48654 0.92917 0.80231 0.0
C3303 C 0.4915 0.92044 0.78997 0.0
H3304 H 0.46538 0.9364 0.81161 0.0
H3305 H 0.49642 0.93571 0.81224 0.0
S3306 S 0.46227 0.89748 0.75383 0.0
N3307 N 0.44901 0.90483 0.76386 0.0
N3308 N 0.48211 0.90374 0.76462 0.0
C3309 C 0.47847 0.91221 0.7772 0.0
C3310 C 0.46066 0.91289 0.77674 0.0
C3311 C 0.12441 0.56606 0.79591 0.0
C3312 C 0.12948 0.55911 0.78245 0.0
C3313 C 0.12422 0.58388 0.79553 0.0
C3314 C 0.12921 0.59532 0.78169 0.0
H3315 H 0.12013 0.55745 0.80668 0.0
H3316 H 0.11974 0.58852 0.80602 0.0
S3317 S 0.14602 0.58461 0.74396 0.0
N3318 N 0.14109 0.56559 0.75537 0.0
N3319 N 0.14111 0.59925 0.75468 0.0
C3320 C 0.13502 0.58882 0.76834 0.0
C3321 C 0.13508 0.57066 0.76872 0.0
C3322 C 0.47047 0.56101 0.79495 0.0
C3323 C 0.45383 0.55817 0.78651 0.0
C3324 C 0.4879 0.57938 0.79486 0.0
C3325 C 0.48913 0.59541 0.78635 0.0
H3326 H 0.47022 0.54879 0.80115 0.0
H3327 H 0.5007 0.58082 0.80098 0.0
S3328 S 0.44851 0.59583 0.76412 0.0
N3329 N 0.43891 0.57295 0.77058 0.0
N3330 N 0.47145 0.60763 0.77066 0.0
C3331 C 0.47216 0.59289 0.77856 0.0
C3332 C 0.45455 0.57421 0.77857 0.0
C3333 C 0.57288 0.79155 0.54846 0.0
C3334 C 0.59018 0.79066 0.55101 0.0
C3335 C 0.57321 0.80962 0.54854 0.0
C3336 C 0.59083 0.82741 0.55126 0.0
H3337 H 0.55887 0.77815 0.54679 0.0
H3338 H 0.55949 0.80962 0.54688 0.0
S3339 S 0.64047 0.83338 0.55693 0.0
N3340 N 0.62568 0.80935 0.55508 0.0
N3341 N 0.62619 0.84325 0.55548 0.0
C3342 C 0.60831 0.82681 0.55341 0.0
C3343 C 0.60801 0.80845 0.55323 0.0
C3344 C 0.22384 0.80974 0.55142 0.0
C3345 C 0.22212 0.79237 0.54502 0.0
C3346 C 0.24184 0.82746 0.55124 0.0
C3347 C 0.25877 0.82849 0.54458 0.0
H3348 H 0.21124 0.80953 0.55692 0.0
H3349 H 0.24263 0.84039 0.55661 0.0
S3350 S 0.26214 0.78731 0.5262 0.0
N3351 N 0.23885 0.77735 0.53171 0.0
N3352 N 0.27273 0.8108 0.53125 0.0
C3353 C 0.25715 0.81143 0.53768 0.0
C3354 C 0.23881 0.79333 0.53792 0.0
C3355 C 0.24752 0.45468 0.5378 0.0
C3356 C 0.26176 0.46382 0.5497 0.0
C3357 C 0.23 0.45545 0.53803 0.0
C3358 C 0.22623 0.46539 0.55017 0.0
H3359 H 0.24967 0.44639 0.52856 0.0
H3360 H 0.21907 0.44771 0.52895 0.0
S3361 S 0.26014 0.49399 0.58274 0.0
N3362 N 0.27187 0.48468 0.573 0.0
N3363 N 0.23898 0.48616 0.57343 0.0
C3364 C 0.24078 0.47531 0.5617 0.0
C3365 C 0.25854 0.47452 0.56147 0.0
C3366 C 0.99727 0.33094 0.15335 0.0
C3367 C 0.00361 0.31821 0.15918 0.0
C3368 C 0.98912 0.33917 0.16345 0.0
C3369 C 0.98704 0.3349 0.17969 0.0
H3370 H 0.99766 0.33375 0.1408 0.0
H3371 H 0.98346 0.34807 0.15841 0.0
S3372 S 0.00436 0.30513 0.20113 0.0
N3373 N 0.00953 0.30374 0.18245 0.0
N3374 N 0.99405 0.31907 0.20139 0.0
C3375 C 0.99449 0.32324 0.18578 0.0
C3376 C 0.00282 0.31494 0.17554 0.0
C3377 C 0.72737 0.68977 0.14865 0.0
C3378 C 0.7312 0.70808 0.15461 0.0
C3379 C 0.71928 0.673 0.15825 0.0
C3380 C 0.7149 0.67399 0.17421 0.0
H3381 H 0.73111 0.68851 0.13656 0.0
H3382 H 0.7169 0.65925 0.15325 0.0
S3383 S 0.72208 0.71858 0.1954 0.0
N3384 N 0.72964 0.72628 0.17723 0.0
N3385 N 0.71473 0.6948 0.19547 0.0
C3386 C 0.71807 0.69212 0.18018 0.0
C3387 C 0.72618 0.70918 0.17033 0.0
C3388 C 0.34144 0.04882 0.17143 0.0
C3389 C 0.34209 0.05136 0.15499 0.0
C3390 C 0.3587 0.05779 0.18049 0.0
C3391 C 0.37719 0.06979 0.17342 0.0
H3392 H 0.32742 0.04016 0.17737 0.0
H3393 H 0.35746 0.05597 0.19318 0.0
S3394 S 0.38687 0.08035 0.13067 0.0
N3395 N 0.36269 0.06617 0.13191 0.0
N3396 N 0.39524 0.08285 0.1489 0.0
C3397 C 0.37809 0.07192 0.15691 0.0
C3398 C 0.36052 0.06272 0.1477 0.0
C3399 C 0.30625 0.98048 0.83861 0.0
C3400 C 0.31742 -0.0002 0.84443 0.0
C3401 C 0.31417 0.97302 0.82765 0.0
C3402 C 0.33361 0.98456 0.82216 0.0
H3403 H 0.29116 0.97108 0.84244 0.0
H3404 H 0.30507 0.95797 0.82362 0.0
S3405 S 0.369 0.0361 0.8337 0.0
N3406 N 0.34888 0.0304 0.84393 0.0
N3407 N 0.36387 0.0163 0.82323 0.0
C3408 C 0.345 0.00392 0.82787 0.0
C3409 C 0.33685 0.01159 0.83899 0.0
C3410 C 0.06337 0.37389 0.83713 0.0
C3411 C 0.06152 0.37216 0.82063 0.0
C3412 C 0.05513 0.35713 0.8468 0.0
C3413 C 0.04473 0.33808 0.84028 0.0
H3414 H 0.07206 0.38824 0.84257 0.0
H3415 H 0.05775 0.35909 0.85939 0.0
S3416 S 0.0332 0.3258 0.79794 0.0
N3417 N 0.04677 0.35009 0.79831 0.0
N3418 N 0.03114 0.31856 0.81648 0.0
C3419 C 0.04179 0.33622 0.82387 0.0
C3420 C 0.05021 0.35327 0.81404 0.0
C3421 C 0.69219 0.72306 0.81862 0.0
C3422 C 0.67389 0.71859 0.82513 0.0
C3423 C 0.70927 0.73123 0.82791 0.0
C3424 C 0.70857 0.73495 0.84405 0.0
H3425 H 0.69345 0.72088 0.80615 0.0
H3426 H 0.72319 0.73495 0.82239 0.0
S3427 S 0.66419 0.72507 0.86691 0.0
N3428 N 0.65594 0.71769 0.84883 0.0
N3429 N 0.68813 0.73325 0.86624 0.0
C3430 C 0.6903 0.73002 0.8508 0.0
C3431 C 0.67294 0.72181 0.84134 0.0
C3432 C 0.03248 0.71126 0.83337 0.0
C3433 C 0.0423 0.72206 0.84692 0.0
C3434 C 0.04111 0.70324 0.82354 0.0
C3435 C 0.05989 0.70589 0.82689 0.0
H3436 H 0.01821 0.70932 0.83021 0.0
H3437 H 0.03319 0.69525 0.81309 0.0
S3438 S 0.09204 0.73398 0.86056 0.0
N3439 N 0.07186 0.73535 0.86304 0.0
N3440 N 0.08822 0.72062 0.8445 0.0
C3441 C 0.06972 0.71649 0.84053 0.0
C3442 C 0.06089 0.72451 0.85056 0.0
C3443 C 0.32713 0.35243 0.81593 0.0
C3444 C 0.34162 0.37137 0.8208 0.0
C3445 C 0.32019 0.33631 0.82617 0.0
C3446 C 0.32738 0.33864 0.84168 0.0
H3447 H 0.32047 0.35025 0.80436 0.0
H3448 H 0.30821 0.32221 0.82224 0.0
S3449 S 0.36695 0.38473 0.85953 0.0
N3450 N 0.36416 0.39127 0.84162 0.0
N3451 N 0.35112 0.36085 0.86091 0.0
C3452 C 0.34278 0.35723 0.84634 0.0
C3453 C 0.34994 0.37364 0.83587 0.0
C3454 C 0.69254 0.00786 0.84505 0.0
C3455 C 0.71083 0.00996 0.84068 0.0
C3456 C 0.67626 0.99887 0.83489 0.0
C3457 C 0.67775 0.99145 0.82019 0.0
H3458 H 0.69065 0.01254 0.85663 0.0
H3459 H 0.66219 0.99675 0.8389 0.0
S3460 S 0.72253 0.99437 0.80282 0.0
N3461 N 0.7297 0.00487 0.82031 0.0
N3462 N 0.69902 0.98784 0.80128 0.0
C3463 C 0.69613 0.99427 0.81539 0.0
C3464 C 0.71272 0.00359 0.82562 0.0
C3465 C 0.7214 0.05837 0.15179 0.0
C3466 C 0.72428 0.04273 0.15626 0.0
C3467 C 0.71209 0.06527 0.16193 0.0
C3468 C 0.70567 0.05694 0.17698 0.0
H3469 H 0.72705 0.06577 0.1406 0.0
H3470 H 0.71095 0.07794 0.15834 0.0
S3471 S 0.70853 0.01471 0.19371 0.0
N3472 N 0.71893 0.01824 0.17615 0.0
N3473 N 0.70163 0.03142 0.19543 0.0
C3474 C 0.70769 0.04071 0.18129 0.0
C3475 C 0.71694 0.03352 0.17086 0.0
C3476 C 9e-05 0.71168 0.17561 0.0
C3477 C 0.0083 0.71261 0.16066 0.0
C3478 C 0.99305 0.69482 0.18503 0.0
C3479 C 0.99398 0.67824 0.17987 0.0
H3480 H 0.99856 0.72389 0.1799 0.0
H3481 H 0.98596 0.69445 0.19611 0.0
S3482 S 0.01592 0.67386 0.14239 0.0
N3483 N 0.01808 0.69593 0.14154 0.0
N3484 N 0.00536 0.66441 0.15951 0.0
C3485 C 0.00314 0.67936 0.16534 0.0
C3486 C 0.01024 0.69652 0.15569 0.0
C3487 C 0.33784 0.32198 0.17151 0.0
C3488 C 0.34026 0.32849 0.15579 0.0
C3489 C 0.35396 0.32908 0.18177 0.0
C3490 C 0.37302 0.34304 0.17669 0.0
H3491 H 0.32363 0.31042 0.17566 0.0
H3492 H 0.35164 0.323 0.19357 0.0
S3493 S 0.38672 0.36652 0.13724 0.0
N3494 N 0.36273 0.35107 0.13607 0.0
N3495 N 0.39317 0.36433 0.15535 0.0
C3496 C 0.37542 0.35067 0.16134 0.0
C3497 C 0.359 0.34337 0.15087 0.0
C3498 C 0.64512 0.66573 0.49189 0.0
C3499 C 0.64806 0.66732 0.50833 0.0
C3500 C 0.65306 0.65676 0.48243 0.0
C3501 C 0.66446 0.64933 0.48904 0.0
H3502 H 0.63622 0.67106 0.48632 0.0
H3503 H 0.64995 0.65527 0.46989 0.0
S3504 S 0.67674 0.6498 0.53127 0.0
N3505 N 0.66323 0.66058 0.53076 0.0
N3506 N 0.67866 0.64429 0.51279 0.0
C3507 C 0.66815 0.65139 0.50531 0.0
C3508 C 0.65985 0.66029 0.51502 0.0
C3509 C 0.38144 0.03352 0.49559 0.0
C3510 C 0.40076 0.04126 0.48982 0.0
C3511 C 0.37372 0.01816 0.5067 0.0
C3512 C 0.38524 0.01038 0.51256 0.0
H3513 H 0.3722 0.03919 0.49132 0.0
H3514 H 0.35872 0.01239 0.5108 0.0
S3515 S 0.43679 0.0259 0.50137 0.0
N3516 N 0.43131 0.04036 0.491 0.0
N3517 N 0.41678 0.01142 0.51166 0.0
C3518 C 0.40461 0.01815 0.50695 0.0
C3519 C 0.41238 0.03362 0.49563 0.0
C3520 C 0.00657 0.38172 0.50582 0.0
C3521 C 0.00746 0.3833 0.48928 0.0
C3522 C 0.02379 0.39032 0.51495 0.0
C3523 C 0.04248 0.40094 0.50786 0.0
H3524 H 0.99244 0.3741 0.51176 0.0
H3525 H 0.02241 0.38929 0.52768 0.0
S3526 S 0.05281 0.4086 0.46495 0.0
N3527 N 0.02852 0.39577 0.46614 0.0
N3528 N 0.06092 0.41167 0.4833 0.0
C3529 C 0.04359 0.40209 0.4913 0.0
C3530 C 0.02606 0.3933 0.48201 0.0
C3531 C 0.3693 0.38547 0.49667 0.0
C3532 C 0.37645 0.39029 0.51218 0.0
C3533 C 0.37668 0.37676 0.48631 0.0
C3534 C 0.39123 0.37237 0.49123 0.0
H3535 H 0.35885 0.38956 0.49225 0.0
H3536 H 0.37158 0.37417 0.4742 0.0
S3537 S 0.41321 0.38035 0.5312 0.0
N3538 N 0.39757 0.38866 0.53238 0.0
N3539 N 0.4115 0.3723 0.51294 0.0
C3540 C 0.39753 0.37598 0.50702 0.0
C3541 C 0.39013 0.38496 0.51749 0.0
C3542 C 0.65709 0.00656 0.49449 0.0
C3543 C 0.66125 0.00934 0.51073 0.0
C3544 C 0.6646 0.02264 0.48414 0.0
C3545 C 0.6767 0.04202 0.48964 0.0
H3546 H 0.64695 0.99201 0.48992 0.0
H3547 H 0.66022 0.02001 0.47185 0.0
S3548 S 0.69379 0.05684 0.53077 0.0
N3549 N 0.67966 0.03262 0.53159 0.0
N3550 N 0.69377 0.06292 0.51212 0.0
C3551 C 0.68207 0.04484 0.50565 0.0
C3552 C 0.67431 0.02848 0.5162 0.0
C3553 C 0.00416 0.65159 0.50523 0.0
C3554 C 0.00646 0.65911 0.48983 0.0
C3555 C 0.02025 0.65852 0.51551 0.0
C3556 C 0.03911 0.67337 0.51081 0.0
H3557 H 0.9901 0.63945 0.50905 0.0
H3558 H 0.01811 0.65169 0.527 0.0
S3559 S 0.05242 0.69934 0.47235 0.0
N3560 N 0.02862 0.68325 0.47081 0.0
N3561 N 0.05894 0.69639 0.49023 0.0
C3562 C 0.04137 0.68188 0.49582 0.0
C3563 C 0.02501 0.67468 0.48528 0.0
C3564 C 0.01577 0.27263 0.00733 0.0
C3565 C 0.0291 0.26925 0.01602 0.0
C3566 C 0.01586 0.27248 0.99079 0.0
C3567 C 0.02924 0.26887 0.98237 0.0
H3568 H 0.00516 0.27534 0.01337 0.0
H3569 H 0.00534 0.27514 0.98455 0.0
S3570 S 0.06621 0.25786 -0.00033 0.0
N3571 N 0.0555 0.26149 0.01506 0.0
N3572 N 0.05557 0.26103 0.98401 0.0
C3573 C 0.04262 0.26545 0.99095 0.0
C3574 C 0.04257 0.26568 0.00777 0.0
C3575 C 0.78195 0.799 0.99161 0.0
C3576 C 0.78235 0.78362 0.98332 0.0
C3577 C 0.78159 0.79921 0.00812 0.0
C3578 C 0.78177 0.78412 0.01695 0.0
H3579 H 0.78248 0.8113 0.98531 0.0
H3580 H 0.78183 0.8116 0.01402 0.0
S3581 S 0.78072 0.73951 0.00107 0.0
N3582 N 0.78128 0.7521 0.98525 0.0
N3583 N 0.78101 0.75274 0.01635 0.0
C3584 C 0.78161 0.76839 0.00887 0.0
C3585 C 0.78182 0.76808 0.99204 0.0
C3586 C 0.27531 0.02466 0.99178 0.0
C3587 C 0.25863 0.02237 0.98358 0.0
C3588 C 0.27579 0.02463 0.00833 0.0
C3589 C 0.25952 0.02208 0.01719 0.0
H3590 H 0.288 0.02627 0.98537 0.0
H3591 H 0.28885 0.02641 0.01424 0.0
S3592 S 0.21308 0.0172 0.00169 0.0
N3593 N 0.22605 0.01896 0.98579 0.0
N3594 N 0.2268 0.01819 0.01684 0.0
C3595 C 0.2429 0.01999 0.00923 0.0
C3596 C 0.24248 0.0203 0.99243 0.0
C3597 C 0.0144 0.78634 0.99274 0.0
C3598 C 0.0258 0.78039 0.984 0.0
C3599 C 0.01481 0.78659 0.00925 0.0
C3600 C 0.02662 0.78087 0.01767 0.0
H3601 H 0.00542 0.79129 0.98676 0.0
H3602 H 0.00615 0.79174 0.01546 0.0
S3603 S 0.05785 0.76239 0.00041 0.0
N3604 N 0.04832 0.76752 0.98498 0.0
N3605 N 0.04908 0.76797 0.01608 0.0
C3606 C 0.03777 0.77449 0.0091 0.0
C3607 C 0.03736 0.77425 0.99226 0.0
C3608 C 0.25172 0.25152 0.00735 0.0
C3609 C 0.26728 0.26676 0.01588 0.0
C3610 C 0.25131 0.25179 0.99087 0.0
C3611 C 0.26647 0.2673 0.98224 0.0
H3612 H 0.23961 0.23934 0.01348 0.0
H3613 H 0.2391 0.23961 0.98483 0.0
S3614 S 0.31056 0.31079 0.99891 0.0
N3615 N 0.29837 0.29771 0.01449 0.0
N3616 N 0.29737 0.29845 0.98341 0.0
C3617 C 0.28213 0.28267 0.99059 0.0
C3618 C 0.28255 0.28238 0.00742 0.0
C3619 C 0.78768 0.03876 0.99203 0.0
C3620 C 0.77456 0.02231 0.98305 0.0
C3621 C 0.78697 0.03818 0.00855 0.0
C3622 C 0.77302 0.02116 0.01663 0.0
H3623 H 0.79904 0.0519 0.98626 0.0
H3624 H 0.79792 0.0509 0.01501 0.0
S3625 S 0.7338 0.97513 0.99831 0.0
N3626 N 0.74628 0.98917 0.98321 0.0
N3627 N 0.74458 0.98817 0.01429 0.0
C3628 C 0.75923 0.00495 0.00771 0.0
C3629 C 0.76009 0.0055 0.9909 0.0
C3630 C 0.68048 0.60493 0.32463 0.0
C3631 C 0.694 0.60149 0.31625 0.0
C3632 C 0.67996 0.60454 0.34117 0.0
C3633 C 0.69303 0.60084 0.3499 0.0
H3634 H 0.67021 0.60793 0.31835 0.0
H3635 H 0.66925 0.60712 0.34719 0.0
S3636 S 0.73025 0.58953 0.33373 0.0
N3637 N 0.72004 0.59321 0.31802 0.0
N3638 N 0.71927 0.59289 0.34907 0.0
C3639 C 0.7066 0.59738 0.34171 0.0
C3640 C 0.70704 0.59761 0.3249 0.0
C3641 C 0.43619 0.10721 0.33982 0.0
C3642 C 0.45362 0.11976 0.34814 0.0
C3643 C 0.43582 0.10702 0.32327 0.0
C3644 C 0.45291 0.11921 0.31456 0.0
H3645 H 0.42282 0.09729 0.34614 0.0
H3646 H 0.42218 0.09714 0.31724 0.0
S3647 S 0.50168 0.15606 0.33045 0.0
N3648 N 0.48795 0.14585 0.34623 0.0
N3649 N 0.48729 0.14489 0.31517 0.0
C3650 C 0.47029 0.13202 0.32265 0.0
C3651 C 0.47064 0.13244 0.33943 0.0
C3652 C 0.93271 0.37377 0.34167 0.0
C3653 C 0.93266 0.35832 0.35022 0.0
C3654 C 0.93267 0.37382 0.32514 0.0
C3655 C 0.93242 0.35834 0.31656 0.0
H3656 H 0.93217 0.38564 0.34777 0.0
H3657 H 0.93219 0.38572 0.31902 0.0
S3658 S 0.93438 0.31556 0.3331 0.0
N3659 N 0.93411 0.32803 0.34873 0.0
N3660 N 0.93351 0.32793 0.31763 0.0
C3661 C 0.93295 0.34312 0.32488 0.0
C3662 C 0.93319 0.34314 0.34172 0.0
C3663 C 0.69203 0.13314 0.34217 0.0
C3664 C 0.69598 0.12008 0.35068 0.0
C3665 C 0.69192 0.13314 0.32567 0.0
C3666 C 0.69559 0.11996 0.31705 0.0
H3667 H 0.68918 0.14359 0.34833 0.0
H3668 H 0.68872 0.14339 0.3196 0.0
S3669 S 0.7067 0.0828 0.3337 0.0
N3670 N 0.70358 0.09358 0.34931 0.0
N3671 N 0.70349 0.09365 0.31819 0.0
C3672 C 0.69954 0.1068 0.32539 0.0
C3673 C 0.69977 0.10689 0.34222 0.0
C3674 C 0.94958 0.60917 0.34142 0.0
C3675 C 0.93241 0.59574 0.34959 0.0
C3676 C 0.95002 0.6097 0.32488 0.0
C3677 C 0.93321 0.59704 0.31599 0.0
H3678 H 0.96279 0.61919 0.34787 0.0
H3679 H 0.96351 0.62023 0.31899 0.0
S3680 S 0.88464 0.55926 0.33173 0.0
N3681 N 0.8982 0.56959 0.34757 0.0
N3682 N 0.89909 0.57052 0.31651 0.0
C3683 C 0.91598 0.58357 0.32402 0.0
C3684 C 0.91557 0.58293 0.34081 0.0
C3685 C 0.4591 0.37655 0.34094 0.0
C3686 C 0.44714 0.35916 0.34946 0.0
C3687 C 0.45891 0.37671 0.32443 0.0
C3688 C 0.44677 0.35947 0.31579 0.0
H3689 H 0.46884 0.39014 0.34708 0.0
H3690 H 0.46879 0.39034 0.31839 0.0
S3691 S 0.412 0.31026 0.33244 0.0
N3692 N 0.42254 0.32429 0.34802 0.0
N3693 N 0.42169 0.32478 0.31697 0.0
C3694 C 0.43432 0.3421 0.32415 0.0
C3695 C 0.43459 0.34191 0.34098 0.0
C3696 C 0.3624 0.91457 0.67563 0.0
C3697 C 0.36074 0.929 0.68428 0.0
C3698 C 0.36218 0.9145 0.65914 0.0
C3699 C 0.3603 0.92888 0.65059 0.0
H3700 H 0.36403 0.90327 0.68167 0.0
H3701 H 0.36331 0.90295 0.65303 0.0
S3702 S 0.35547 0.96993 0.66759 0.0
N3703 N 0.35686 0.95791 0.68309 0.0
N3704 N 0.35703 0.95814 0.652 0.0
C3705 C 0.35867 0.94345 0.65906 0.0
C3706 C 0.35882 0.94347 0.67592 0.0
C3707 C 0.11024 0.45945 0.67514 0.0
C3708 C 0.11459 0.44699 0.68406 0.0
C3709 C 0.10975 0.45856 0.65862 0.0
C3710 C 0.11344 0.44506 0.65045 0.0
H3711 H 0.10788 0.47042 0.68094 0.0
H3712 H 0.10712 0.46899 0.65221 0.0
S3713 S 0.12305 0.40756 0.66863 0.0
N3714 N 0.12113 0.41978 0.68377 0.0
N3715 N 0.11977 0.41773 0.6527 0.0
C3716 C 0.11697 0.43195 0.65933 0.0
C3717 C 0.11764 0.433 0.67613 0.0
C3718 C 0.61529 0.70078 0.67487 0.0
C3719 C 0.59863 0.68707 0.68341 0.0
C3720 C 0.61525 0.70092 0.65833 0.0
C3721 C 0.59852 0.68737 0.64975 0.0
H3722 H 0.62841 0.71157 0.68103 0.0
H3723 H 0.62836 0.71177 0.6522 0.0
S3724 S 0.55076 0.64926 0.66659 0.0
N3725 N 0.56479 0.66005 0.68212 0.0
N3726 N 0.56464 0.66035 0.65106 0.0
C3727 C 0.5818 0.67355 0.65817 0.0
C3728 C 0.58187 0.67339 0.67499 0.0
C3729 C 0.36752 0.44244 0.67433 0.0
C3730 C 0.35617 0.4485 0.68304 0.0
C3731 C 0.36727 0.44238 0.65779 0.0
C3732 C 0.35558 0.44827 0.64943 0.0
H3733 H 0.3766 0.43765 0.68035 0.0
H3734 H 0.37622 0.43764 0.65149 0.0
S3735 S 0.3245 0.46697 0.66656 0.0
N3736 N 0.33387 0.46167 0.68199 0.0
N3737 N 0.33319 0.46122 0.65093 0.0
C3738 C 0.34429 0.45448 0.65796 0.0
C3739 C 0.34463 0.45467 0.67476 0.0
C3740 C 0.61262 0.95044 0.67442 0.0
C3741 C 0.59552 0.93873 0.6833 0.0
C3742 C 0.61216 0.94971 0.65789 0.0
C3743 C 0.59463 0.93707 0.64971 0.0
H3744 H 0.62637 0.96031 0.68031 0.0
H3745 H 0.62559 0.95919 0.65146 0.0
S3746 S 0.5464 0.90201 0.66783 0.0
N3747 N 0.56094 0.91348 0.68296 0.0
N3748 N 0.56012 0.91156 0.65194 0.0
C3749 C 0.57754 0.92499 0.65857 0.0
C3750 C 0.57799 0.92595 0.67535 0.0
C3751 C 0.13316 0.7059 0.67499 0.0
C3752 C 0.11537 0.69712 0.68354 0.0
C3753 C 0.13325 0.70619 0.65849 0.0
C3754 C 0.11554 0.69762 0.64988 0.0
H3755 H 0.14717 0.7122 0.6811 0.0
H3756 H 0.14729 0.71274 0.65241 0.0
S3757 S 0.06503 0.67426 0.6665 0.0
N3758 N 0.07958 0.68078 0.68211 0.0
N3759 N 0.07978 0.68108 0.651 0.0
C3760 C 0.09765 0.68912 0.65822 0.0
C3761 C 0.09755 0.68892 0.67506 0.0
C3762 C 0.91072 0.11918 0.11989 0.0
C3763 C 0.89408 0.11856 0.11302 0.0
C3764 C 0.92884 0.13686 0.12056 0.0
C3765 C 0.93075 0.15452 0.11467 0.0
H3766 H 0.90982 0.10583 0.12446 0.0
H3767 H 0.94144 0.13673 0.12571 0.0
S3768 S 0.89137 0.16075 0.09602 0.0
N3769 N 0.88048 0.13709 0.10056 0.0
N3770 N 0.91448 0.17034 0.1019 0.0
C3771 C 0.91411 0.15413 0.10805 0.0
C3772 C 0.89578 0.13613 0.1072 0.0
C3773 C 0.92031 0.79836 0.1254 0.0
C3774 C 0.93425 0.80835 0.11343 0.0
C3775 C 0.90265 0.79881 0.12607 0.0
C3776 C 0.89833 0.80936 0.11486 0.0
H3777 H 0.92283 0.78971 0.13408 0.0
H3778 H 0.89223 0.79071 0.13538 0.0
S3779 S 0.93034 0.83865 0.08152 0.0
N3780 N 0.94299 0.82984 0.09055 0.0
N3781 N 0.90957 0.83022 0.09151 0.0
C3782 C 0.91233 0.81974 0.10301 0.0
C3783 C 0.93032 0.81931 0.10235 0.0
C3784 C 0.22772 0.12022 0.12036 0.0
C3785 C 0.24513 0.11922 0.12029 0.0
C3786 C 0.22838 0.13844 0.12038 0.0
C3787 C 0.24649 0.15631 0.12013 0.0
H3788 H 0.2135 0.1068 0.12025 0.0
H3789 H 0.21459 0.13853 0.12043 0.0
S3790 S 0.29625 0.16139 0.11906 0.0
N3791 N 0.28091 0.13737 0.11976 0.0
N3792 N 0.28227 0.17166 0.11929 0.0
C3793 C 0.26402 0.15542 0.12013 0.0
C3794 C 0.26331 0.13687 0.12032 0.0
C3795 C 0.14241 0.92023 0.89608 0.0
C3796 C 0.15038 0.93047 0.8819 0.0
C3797 C 0.1253 0.90171 0.89615 0.0
C3798 C 0.11541 0.89279 0.88205 0.0
H3799 H 0.14968 0.92642 0.90722 0.0
H3800 H 0.11972 0.89431 0.90735 0.0
S3801 S 0.12992 0.91361 0.84179 0.0
N3802 N 0.14689 0.93054 0.8534 0.0
N3803 N 0.11465 0.89555 0.85354 0.0
C3804 C 0.12303 0.90294 0.86779 0.0
C3805 C 0.14057 0.92179 0.86771 0.0
C3806 C 0.13788 0.22819 0.8771 0.0
C3807 C 0.15583 0.24616 0.87805 0.0
C3808 C 0.11974 0.22773 0.87717 0.0
C3809 C 0.11893 0.24522 0.87802 0.0
H3810 H 0.13783 0.21435 0.87647 0.0
H3811 H 0.10625 0.21359 0.87672 0.0
S3812 S 0.16141 0.296 0.88131 0.0
N3813 N 0.17147 0.28185 0.88038 0.0
N3814 N 0.13738 0.28091 0.88007 0.0
C3815 C 0.13668 0.26328 0.87871 0.0
C3816 C 0.15514 0.26377 0.87881 0.0
C3817 C 0.78972 0.90007 0.8799 0.0
C3818 C 0.80768 0.90017 0.88072 0.0
C3819 C 0.78926 0.91771 0.88001 0.0
C3820 C 0.80676 0.93612 0.88077 0.0
H3821 H 0.7759 0.88622 0.87975 0.0
H3822 H 0.77502 0.91687 0.88002 0.0
S3823 S 0.85769 0.94416 0.88115 0.0
N3824 N 0.84338 0.91994 0.88123 0.0
N3825 N 0.84266 0.95325 0.88087 0.0
C3826 C 0.82487 0.93636 0.8809 0.0
C3827 C 0.82529 0.91836 0.88101 0.0
C3828 C 0.56226 0.46321 0.45264 0.0
C3829 C 0.56179 0.44499 0.45204 0.0
C3830 C 0.58014 0.48109 0.4523 0.0
C3831 C 0.59821 0.48143 0.45118 0.0
H3832 H 0.54869 0.46371 0.45284 0.0
H3833 H 0.5798 0.49475 0.45236 0.0
S3834 S 0.60538 0.43812 0.45098 0.0
N3835 N 0.58122 0.42856 0.45171 0.0
N3836 N 0.6148 0.46227 0.45058 0.0
C3837 C 0.59807 0.46344 0.45104 0.0
C3838 C 0.57987 0.4452 0.45158 0.0
C3839 C 0.58439 0.12494 0.45446 0.0
C3840 C 0.60194 0.14109 0.44885 0.0
C3841 C 0.56668 0.12531 0.45453 0.0
C3842 C 0.56592 0.14188 0.44903 0.0
H3843 H 0.5842 0.11165 0.45831 0.0
H3844 H 0.55335 0.11227 0.45839 0.0
S3845 S 0.60835 0.18891 0.43511 0.0
N3846 N 0.61788 0.17473 0.439 0.0
N3847 N 0.58461 0.1755 0.43923 0.0
C3848 C 0.58355 0.15844 0.44404 0.0
C3849 C 0.60155 0.15803 0.44393 0.0
C3850 C 0.92581 0.4685 0.45513 0.0
C3851 C 0.90795 0.45051 0.45473 0.0
C3852 C 0.92602 0.48649 0.45526 0.0
C3853 C 0.90836 0.48713 0.45516 0.0
H3854 H 0.93973 0.46867 0.45473 0.0
H3855 H 0.94016 0.49998 0.45486 0.0
S3856 S 0.8577 0.44385 0.4562 0.0
N3857 N 0.87223 0.4342 0.45544 0.0
N3858 N 0.87251 0.46801 0.45621 0.0
C3859 C 0.89039 0.46914 0.45551 0.0
C3860 C 0.89021 0.45084 0.45517 0.0
C3861 C 0.78161 0.24578 0.21375 0.0
C3862 C 0.78169 0.22783 0.2129 0.0
C3863 C 0.79926 0.26391 0.21411 0.0
C3864 C 0.81755 0.26474 0.21336 0.0
H3865 H 0.76781 0.24581 0.21438 0.0
H3866 H 0.79862 0.27737 0.2152 0.0
S3867 S 0.82619 0.22244 0.21133 0.0
N3868 N 0.80196 0.21229 0.21171 0.0
N3869 N 0.83499 0.2465 0.21174 0.0
C3870 C 0.81795 0.2471 0.21212 0.0
C3871 C 0.80004 0.22861 0.21201 0.0
C3872 C 0.82112 0.59413 0.22765 0.0
C3873 C 0.82424 0.58169 0.21755 0.0
C3874 C 0.803 0.59358 0.22801 0.0
C3875 C 0.7873 0.58062 0.21827 0.0
H3876 H 0.83282 0.60443 0.23532 0.0
H3877 H 0.80128 0.60347 0.23595 0.0
S3878 S 0.7876 0.54453 0.19013 0.0
N3879 N 0.80998 0.55571 0.19782 0.0
N3880 N 0.77585 0.55479 0.19845 0.0
C3881 C 0.79022 0.56819 0.20803 0.0
C3882 C 0.80871 0.56871 0.20768 0.0
C3883 C 0.45704 0.25336 0.21332 0.0
C3884 C 0.47462 0.2717 0.21315 0.0
C3885 C 0.45738 0.23566 0.21321 0.0
C3886 C 0.47532 0.23562 0.21299 0.0
H3887 H 0.44289 0.25266 0.21404 0.0
H3888 H 0.44351 0.22189 0.21383 0.0
S3889 S 0.52536 0.27954 0.21071 0.0
N3890 N 0.5104 0.2887 0.21143 0.0
N3891 N 0.51102 0.25534 0.21141 0.0
C3892 C 0.49298 0.2538 0.21231 0.0
C3893 C 0.49264 0.27186 0.21235 0.0
C3894 C 0.25856 0.80856 0.77008 0.0
C3895 C 0.26812 0.81758 0.78428 0.0
C3896 C 0.24056 0.79083 0.77009 0.0
C3897 C 0.23141 0.78145 0.7843 0.0
H3898 H 0.26483 0.81549 0.75886 0.0
H3899 H 0.23352 0.78467 0.75888 0.0
S3900 S 0.25114 0.79811 0.82461 0.0
N3901 N 0.26769 0.81525 0.81289 0.0
N3902 N 0.23374 0.78185 0.81291 0.0
C3903 C 0.24097 0.79008 0.79858 0.0
C3904 C 0.25934 0.80816 0.79857 0.0
C3905 C 0.25866 0.47124 0.76988 0.0
C3906 C 0.26921 0.474 0.78397 0.0
C3907 C 0.24085 0.47135 0.76975 0.0
C3908 C 0.23291 0.47429 0.78369 0.0
H3909 H 0.26405 0.46862 0.75889 0.0
H3910 H 0.23307 0.46878 0.75865 0.0
S3911 S 0.25549 0.48353 0.8235 0.0
N3912 N 0.27091 0.48053 0.81211 0.0
N3913 N 0.23741 0.48091 0.81186 0.0
C3914 C 0.24342 0.4773 0.79784 0.0
C3915 C 0.26157 0.47712 0.79798 0.0
C3916 C 0.56178 0.78568 0.77029 0.0
C3917 C 0.57534 0.78301 0.77929 0.0
C3918 C 0.5622 0.80378 0.77021 0.0
C3919 C 0.57629 0.8199 0.77907 0.0
H3920 H 0.55082 0.77369 0.76319 0.0
H3921 H 0.55147 0.8052 0.76311 0.0
S3922 S 0.61573 0.82073 0.80391 0.0
N3923 N 0.60352 0.79801 0.79695 0.0
N3924 N 0.60454 0.83216 0.79667 0.0
C3925 C 0.5899 0.81738 0.78816 0.0
C3926 C 0.58937 0.79891 0.7883 0.0
C3927 C 0.4823 0.58277 0.54493 0.0
C3928 C 0.48245 0.60074 0.54616 0.0
C3929 C 0.46454 0.56477 0.54488 0.0
C3930 C 0.44627 0.56408 0.54599 0.0
H3931 H 0.49604 0.58259 0.54457 0.0
H3932 H 0.46518 0.55127 0.54453 0.0
S3933 S 0.43869 0.6072 0.54746 0.0
N3934 N 0.46289 0.61692 0.54724 0.0
N3935 N 0.42942 0.58306 0.5469 0.0
C3936 C 0.44622 0.58201 0.54656 0.0
C3937 C 0.46432 0.60034 0.5467 0.0
C3938 C 0.4513 0.89432 0.54218 0.0
C3939 C 0.45052 0.91179 0.54372 0.0
C3940 C 0.4694 0.89474 0.54165 0.0
C3941 C 0.48738 0.91265 0.54277 0.0
H3942 H 0.43779 0.8802 0.54157 0.0
H3943 H 0.46933 0.88092 0.54061 0.0
S3944 S 0.49319 0.96241 0.54767 0.0
N3945 N 0.46913 0.94741 0.54659 0.0
N3946 N 0.50316 0.94825 0.54589 0.0
C3947 C 0.48676 0.93025 0.54414 0.0
C3948 C 0.46833 0.92981 0.54455 0.0
C3949 C 0.13405 0.59094 0.56639 0.0
C3950 C 0.14209 0.60384 0.55349 0.0
C3951 C 0.13362 0.57287 0.56667 0.0
C3952 C 0.14129 0.56702 0.55411 0.0
H3953 H 0.12768 0.59468 0.57621 0.0
H3954 H 0.1269 0.56323 0.57672 0.0
S3955 S 0.16532 0.59621 0.51813 0.0
N3956 N 0.15868 0.61003 0.52817 0.0
N3957 N 0.1581 0.57606 0.52877 0.0
C3958 C 0.14966 0.57993 0.54124 0.0
C3959 C 0.15001 0.59834 0.54092 0.0
loop_
_geom_bond_atom_site_label_1
_geom_bond_atom_site_label_2
_geom_bond_distance
_geom_bond_site_symmetry_2
_ccdc_geom_bond_type
Li0 N17 1.990 . S
Li0 O60 1.956 . S
Li0 O61 1.970 . S
Li0 O62 1.961 . S
Li1 N25 1.990 . S
Li1 O60 1.970 . S
Li1 O61 1.956 . S
Li1 O63 1.961 . S
Li2 N47 1.990 . S
Li2 O60 1.961 . S
Li2 O62 1.956 . S
Li2 O63 1.970 . S
Li3 N53 1.990 1_455 S
Li3 O61 1.961 . S
Li3 O62 1.970 . S
Li3 O63 1.956 . S
C4 C6 1.348 . S
C4 C7 1.356 . S
C4 O60 1.325 . S
N5 C8 1.314 . S
N5 C9 1.279 . S
C6 C4 1.348 . S
C6 C8 1.353 . S
C6 H64 0.929 . S
C7 C4 1.356 . S
C7 C9 1.358 . S
C7 H65 0.930 . S
C8 N5 1.314 . S
C8 C6 1.353 . S
C8 H66 0.930 . S
C9 N5 1.279 . S
C9 C7 1.358 . S
C9 H67 0.930 . S
C10 C13 1.348 . S
C10 C14 1.356 . S
C10 O61 1.325 . S
C11 N12 1.279 . S
C11 C14 1.358 . S
C11 H68 0.930 . S
N12 C11 1.279 . S
N12 C15 1.314 . S
C13 C10 1.348 . S
C13 C15 1.353 . S
C13 H69 0.929 . S
C14 C10 1.356 . S
C14 C11 1.358 . S
C14 H70 0.930 . S
C15 N12 1.314 . S
C15 C13 1.353 . S
C15 H71 0.930 . S
C16 N17 1.314 . S
C16 C21 1.353 . S
C16 H22 0.930 1_455 S
N17 Li0 1.990 . S
N17 C16 1.314 . S
N17 C19 1.279 . S
C18 C19 1.358 . S
C18 C20 1.356 . S
C18 H72 0.930 . S
C19 N17 1.279 . S
C19 C18 1.358 . S
C19 H23 0.930 . S
C20 C18 1.356 . S
C20 C21 1.348 . S
C21 C16 1.353 . S
C21 C20 1.348 . S
C21 H73 0.929 1_455 S
H22 C16 0.930 1_655 S
H23 C19 0.930 . S
C24 N25 1.314 . S
C24 C26 1.353 . S
C24 H30 0.930 . S
N25 Li1 1.990 . S
N25 C24 1.314 . S
N25 C28 1.279 . S
C26 C24 1.353 . S
C26 C29 1.348 . S
C26 H74 0.929 . S
C27 C28 1.358 . S
C27 C29 1.356 . S
C27 H75 0.930 . S
C28 N25 1.279 . S
C28 C27 1.358 . S
C28 H31 0.930 . S
C29 C26 1.348 . S
C29 C27 1.356 . S
H30 C24 0.930 . S
H31 C28 0.930 . S
C32 C34 1.348 . S
C32 C35 1.356 . S
C32 O62 1.325 1_655 S
N33 C36 1.314 . S
N33 C37 1.279 . S
C34 C32 1.348 . S
C34 C36 1.353 . S
C34 H76 0.929 . S
C35 C32 1.356 . S
C35 C37 1.358 . S
C35 H77 0.930 1_655 S
C36 N33 1.314 . S
C36 C34 1.353 . S
C36 H78 0.930 . S
C37 N33 1.279 . S
C37 C35 1.358 . S
C37 H79 0.930 . S
C38 C39 1.348 . S
C38 C40 1.356 . S
C38 O63 1.325 . S
C39 C38 1.348 . S
C39 C41 1.353 . S
C39 H80 0.929 . S
C40 C38 1.356 . S
C40 C42 1.358 . S
C40 H81 0.930 . S
C41 C39 1.353 . S
C41 N43 1.314 . S
C41 H82 0.930 . S
C42 C40 1.358 . S
C42 N43 1.279 . S
C42 H83 0.930 . S
N43 C41 1.314 . S
N43 C42 1.279 . S
C44 C46 1.353 . S
C44 N47 1.314 . S
C44 H50 0.930 . S
C45 N47 1.279 . S
C45 C48 1.358 . S
C45 H51 0.930 . S
C46 C44 1.353 . S
C46 C49 1.348 . S
C46 H84 0.929 . S
N47 Li2 1.990 . S
N47 C44 1.314 . S
N47 C45 1.279 . S
C48 C45 1.358 . S
C48 C49 1.356 . S
C48 H85 0.930 . S
C49 C46 1.348 . S
C49 C48 1.356 . S
H50 C44 0.930 . S
H51 C45 0.930 . S
C52 N53 1.314 . S
C52 C54 1.353 . S
C52 H58 0.930 . S
N53 Li3 1.990 1_655 S
N53 C52 1.314 . S
N53 C56 1.279 . S
C54 C52 1.353 . S
C54 C57 1.348 . S
C54 H86 0.929 . S
C55 C56 1.358 . S
C55 C57 1.356 . S
C55 H87 0.930 . S
C56 N53 1.279 . S
C56 C55 1.358 . S
C56 H59 0.930 . S
C57 C54 1.348 . S
C57 C55 1.356 . S
H58 C52 0.930 . S
H59 C56 0.930 . S
O60 Li0 1.956 . S
O60 Li1 1.970 . S
O60 Li2 1.961 . S
O60 C4 1.325 . S
O61 Li0 1.970 . S
O61 Li1 1.956 . S
O61 Li3 1.961 . S
O61 C10 1.325 . S
O62 Li0 1.961 . S
O62 Li2 1.956 . S
O62 Li3 1.970 . S
O62 C32 1.325 1_455 S
O63 Li1 1.961 . S
O63 Li2 1.970 . S
O63 Li3 1.956 . S
O63 C38 1.325 . S
H64 C6 0.929 . S
H65 C7 0.930 . S
H66 C8 0.930 . S
H67 C9 0.930 . S
H68 C11 0.930 . S
H69 C13 0.929 . S
H70 C14 0.930 . S
H71 C15 0.930 . S
H72 C18 0.930 . S
H73 C21 0.929 1_655 S
H74 C26 0.929 . S
H75 C27 0.930 . S
H76 C34 0.929 . S
H77 C35 0.930 1_455 S
H78 C36 0.930 . S
H79 C37 0.930 . S
H80 C39 0.929 . S
H81 C40 0.930 . S
H82 C41 0.930 . S
H83 C42 0.930 . S
H84 C46 0.929 . S
H85 C48 0.930 . S
H86 C54 0.929 . S
H87 C55 0.930 . S
Li88 N105 1.990 . S
Li88 O148 1.956 . S
Li88 O149 1.970 . S
Li88 O150 1.961 . S
Li89 N113 1.990 . S
Li89 O148 1.970 . S
Li89 O149 1.956 . S
Li89 O151 1.961 . S
Li90 N135 1.990 . S
Li90 O148 1.961 . S
Li90 O150 1.956 . S
Li90 O151 1.970 . S
Li91 N141 1.990 . S
Li91 O149 1.961 . S
Li91 O150 1.970 . S
Li91 O151 1.956 . S
C92 C94 1.348 . S
C92 C95 1.356 . S
C92 O148 1.325 . S
N93 C96 1.314 . S
N93 C97 1.279 . S
C94 C92 1.348 . S
C94 C96 1.353 . S
C94 H152 0.929 . S
C95 C92 1.356 . S
C95 C97 1.358 . S
C95 H153 0.930 . S
C96 N93 1.314 . S
C96 C94 1.353 . S
C96 H154 0.930 . S
C97 N93 1.279 . S
C97 C95 1.358 . S
C97 H155 0.930 . S
C98 C101 1.348 . S
C98 C102 1.356 . S
C98 O149 1.325 . S
C99 N100 1.279 . S
C99 C102 1.358 . S
C99 H156 0.930 . S
N100 C99 1.279 . S
N100 C103 1.314 . S
C101 C98 1.348 . S
C101 C103 1.353 . S
C101 H157 0.929 . S
C102 C98 1.356 . S
C102 C99 1.358 . S
C102 H158 0.930 . S
C103 N100 1.314 . S
C103 C101 1.353 . S
C103 H159 0.930 . S
C104 N105 1.314 . S
C104 C109 1.353 . S
C104 H110 0.930 . S
N105 Li88 1.990 . S
N105 C104 1.314 . S
N105 C107 1.279 . S
C106 C107 1.358 . S
C106 C108 1.356 . S
C106 H160 0.930 . S
C107 N105 1.279 . S
C107 C106 1.358 . S
C107 H111 0.930 . S
C108 C106 1.356 . S
C108 C109 1.348 . S
C109 C104 1.353 . S
C109 C108 1.348 . S
C109 H161 0.929 . S
H110 C104 0.930 . S
H111 C107 0.930 . S
C112 N113 1.314 . S
C112 C114 1.353 . S
C112 H118 0.930 . S
N113 Li89 1.990 . S
N113 C112 1.314 . S
N113 C116 1.279 . S
C114 C112 1.353 . S
C114 C117 1.348 . S
C114 H162 0.929 . S
C115 C116 1.358 . S
C115 C117 1.356 . S
C115 H163 0.930 . S
C116 N113 1.279 . S
C116 C115 1.358 . S
C116 H119 0.930 . S
C117 C114 1.348 . S
C117 C115 1.356 . S
H118 C112 0.930 . S
H119 C116 0.930 . S
C120 C122 1.348 . S
C120 C123 1.356 . S
C120 O150 1.325 . S
N121 C124 1.314 . S
N121 C125 1.279 . S
C122 C120 1.348 . S
C122 C124 1.353 . S
C122 H164 0.929 . S
C123 C120 1.356 . S
C123 C125 1.358 . S
C123 H165 0.930 . S
C124 N121 1.314 . S
C124 C122 1.353 . S
C124 H166 0.930 . S
C125 N121 1.279 . S
C125 C123 1.358 . S
C125 H167 0.930 . S
C126 C127 1.348 . S
C126 C128 1.356 . S
C126 O151 1.325 . S
C127 C126 1.348 . S
C127 C129 1.353 . S
C127 H168 0.929 . S
C128 C126 1.356 . S
C128 C130 1.358 . S
C128 H169 0.930 . S
C129 C127 1.353 . S
C129 N131 1.314 . S
C129 H170 0.930 . S
C130 C128 1.358 . S
C130 N131 1.279 . S
C130 H171 0.930 . S
N131 C129 1.314 . S
N131 C130 1.279 . S
C132 C134 1.353 . S
C132 N135 1.314 . S
C132 H138 0.930 . S
C133 N135 1.279 . S
C133 C136 1.358 . S
C133 H139 0.930 . S
C134 C132 1.353 . S
C134 C137 1.348 . S
C134 H172 0.929 . S
N135 Li90 1.990 . S
N135 C132 1.314 . S
N135 C133 1.279 . S
C136 C133 1.358 . S
C136 C137 1.356 . S
C136 H173 0.930 . S
C137 C134 1.348 . S
C137 C136 1.356 . S
H138 C132 0.930 . S
H139 C133 0.930 . S
C140 N141 1.314 . S
C140 C142 1.353 . S
C140 H146 0.930 . S
N141 Li91 1.990 . S
N141 C140 1.314 . S
N141 C144 1.279 . S
C142 C140 1.353 . S
C142 C145 1.348 . S
C142 H174 0.929 . S
C143 C144 1.358 . S
C143 C145 1.356 . S
C143 H175 0.930 . S
C144 N141 1.279 . S
C144 C143 1.358 . S
C144 H147 0.930 . S
C145 C142 1.348 . S
C145 C143 1.356 . S
H146 C140 0.930 . S
H147 C144 0.930 . S
O148 Li88 1.956 . S
O148 Li89 1.970 . S
O148 Li90 1.961 . S
O148 C92 1.325 . S
O149 Li88 1.970 . S
O149 Li89 1.956 . S
O149 Li91 1.961 . S
O149 C98 1.325 . S
O150 Li88 1.961 . S
O150 Li90 1.956 . S
O150 Li91 1.970 . S
O150 C120 1.325 . S
O151 Li89 1.961 . S
O151 Li90 1.970 . S
O151 Li91 1.956 . S
O151 C126 1.325 . S
H152 C94 0.929 . S
H153 C95 0.930 . S
H154 C96 0.930 . S
H155 C97 0.930 . S
H156 C99 0.930 . S
H157 C101 0.929 . S
H158 C102 0.930 . S
H159 C103 0.930 . S
H160 C106 0.930 . S
H161 C109 0.929 . S
H162 C114 0.929 . S
H163 C115 0.930 . S
H164 C122 0.929 . S
H165 C123 0.930 . S
H166 C124 0.930 . S
H167 C125 0.930 . S
H168 C127 0.929 . S
H169 C128 0.930 . S
H170 C129 0.930 . S
H171 C130 0.930 . S
H172 C134 0.929 . S
H173 C136 0.930 . S
H174 C142 0.929 . S
H175 C143 0.930 . S
Li176 N193 1.990 1_545 S
Li176 O236 1.956 . S
Li176 O237 1.970 . S
Li176 O238 1.961 . S
Li177 N201 1.990 . S
Li177 O236 1.970 . S
Li177 O237 1.956 . S
Li177 O239 1.961 . S
Li178 N223 1.990 . S
Li178 O236 1.961 . S
Li178 O238 1.956 . S
Li178 O239 1.970 . S
Li179 N229 1.990 . S
Li179 O237 1.961 . S
Li179 O238 1.970 . S
Li179 O239 1.956 . S
C180 C182 1.348 . S
C180 C183 1.356 . S
C180 O236 1.325 . S
N181 C184 1.314 . S
N181 C185 1.279 . S
C182 C180 1.348 . S
C182 C184 1.353 . S
C182 H240 0.929 . S
C183 C180 1.356 . S
C183 C185 1.358 . S
C183 H241 0.930 . S
C184 N181 1.314 . S
C184 C182 1.353 . S
C184 H242 0.930 . S
C185 N181 1.279 . S
C185 C183 1.358 . S
C185 H243 0.930 . S
C186 C189 1.348 . S
C186 C190 1.356 . S
C186 O237 1.325 1_565 S
C187 N188 1.279 . S
C187 C190 1.358 . S
C187 H244 0.930 . S
N188 C187 1.279 . S
N188 C191 1.314 . S
C189 C186 1.348 . S
C189 C191 1.353 . S
C189 H245 0.929 . S
C190 C186 1.356 . S
C190 C187 1.358 . S
C190 H246 0.930 1_565 S
C191 N188 1.314 . S
C191 C189 1.353 . S
C191 H247 0.930 . S
C192 N193 1.314 . S
C192 C197 1.353 . S
C192 H198 0.930 . S
N193 Li176 1.990 1_565 S
N193 C192 1.314 . S
N193 C195 1.279 . S
C194 C195 1.358 . S
C194 C196 1.356 . S
C194 H248 0.930 . S
C195 N193 1.279 . S
C195 C194 1.358 . S
C195 H199 0.930 . S
C196 C194 1.356 . S
C196 C197 1.348 . S
C197 C192 1.353 . S
C197 C196 1.348 . S
C197 H249 0.929 . S
H198 C192 0.930 . S
H199 C195 0.930 . S
C200 N201 1.314 . S
C200 C202 1.353 . S
C200 H206 0.930 . S
N201 Li177 1.990 . S
N201 C200 1.314 . S
N201 C204 1.279 . S
C202 C200 1.353 . S
C202 C205 1.348 . S
C202 H250 0.929 . S
C203 C204 1.358 . S
C203 C205 1.356 . S
C203 H251 0.930 . S
C204 N201 1.279 . S
C204 C203 1.358 . S
C204 H207 0.930 . S
C205 C202 1.348 . S
C205 C203 1.356 . S
H206 C200 0.930 . S
H207 C204 0.930 . S
C208 C210 1.348 . S
C208 C211 1.356 . S
C208 O238 1.325 . S
N209 C212 1.314 . S
N209 C213 1.279 . S
C210 C208 1.348 . S
C210 C212 1.353 . S
C210 H252 0.929 . S
C211 C208 1.356 . S
C211 C213 1.358 . S
C211 H253 0.930 . S
C212 N209 1.314 . S
C212 C210 1.353 . S
C212 H254 0.930 . S
C213 N209 1.279 . S
C213 C211 1.358 . S
C213 H255 0.930 . S
C214 C215 1.348 . S
C214 C216 1.356 . S
C214 O239 1.325 . S
C215 C214 1.348 . S
C215 C217 1.353 . S
C215 H256 0.929 . S
C216 C214 1.356 . S
C216 C218 1.358 . S
C216 H257 0.930 . S
C217 C215 1.353 . S
C217 N219 1.314 . S
C217 H258 0.930 . S
C218 C216 1.358 . S
C218 N219 1.279 . S
C218 H259 0.930 . S
N219 C217 1.314 . S
N219 C218 1.279 . S
C220 C222 1.353 . S
C220 N223 1.314 . S
C220 H226 0.930 . S
C221 N223 1.279 . S
C221 C224 1.358 . S
C221 H227 0.930 . S
C222 C220 1.353 . S
C222 C225 1.348 . S
C222 H260 0.929 . S
N223 Li178 1.990 . S
N223 C220 1.314 . S
N223 C221 1.279 . S
C224 C221 1.358 . S
C224 C225 1.356 . S
C224 H261 0.930 . S
C225 C222 1.348 . S
C225 C224 1.356 . S
H226 C220 0.930 . S
H227 C221 0.930 . S
C228 N229 1.314 . S
C228 C230 1.353 . S
C228 H234 0.930 1_545 S
N229 Li179 1.990 . S
N229 C228 1.314 . S
N229 C232 1.279 . S
C230 C228 1.353 . S
C230 C233 1.348 . S
C230 H262 0.929 1_545 S
C231 C232 1.358 . S
C231 C233 1.356 . S
C231 H263 0.930 . S
C232 N229 1.279 . S
C232 C231 1.358 . S
C232 H235 0.930 . S
C233 C230 1.348 . S
C233 C231 1.356 . S
H234 C228 0.930 1_565 S
H235 C232 0.930 . S
O236 Li176 1.956 . S
O236 Li177 1.970 . S
O236 Li178 1.961 . S
O236 C180 1.325 . S
O237 Li176 1.970 . S
O237 Li177 1.956 . S
O237 Li179 1.961 . S
O237 C186 1.325 1_545 S
O238 Li176 1.961 . S
O238 Li178 1.956 . S
O238 Li179 1.970 . S
O238 C208 1.325 . S
O239 Li177 1.961 . S
O239 Li178 1.970 . S
O239 Li179 1.956 . S
O239 C214 1.325 . S
H240 C182 0.929 . S
H241 C183 0.930 . S
H242 C184 0.930 . S
H243 C185 0.930 . S
H244 C187 0.930 . S
H245 C189 0.929 . S
H246 C190 0.930 1_545 S
H247 C191 0.930 . S
H248 C194 0.930 . S
H249 C197 0.929 . S
H250 C202 0.929 . S
H251 C203 0.930 . S
H252 C210 0.929 . S
H253 C211 0.930 . S
H254 C212 0.930 . S
H255 C213 0.930 . S
H256 C215 0.929 . S
H257 C216 0.930 . S
H258 C217 0.930 . S
H259 C218 0.930 . S
H260 C222 0.929 . S
H261 C224 0.930 . S
H262 C230 0.929 1_565 S
H263 C231 0.930 . S
Li264 N281 1.990 1_545 S
Li264 O324 1.956 . S
Li264 O325 1.970 . S
Li264 O326 1.961 . S
Li265 N289 1.990 . S
Li265 O324 1.970 . S
Li265 O325 1.956 . S
Li265 O327 1.961 . S
Li266 N311 1.990 . S
Li266 O324 1.961 . S
Li266 O326 1.956 . S
Li266 O327 1.970 . S
Li267 N317 1.990 . S
Li267 O325 1.961 . S
Li267 O326 1.970 . S
Li267 O327 1.956 . S
C268 C270 1.348 . S
C268 C271 1.356 . S
C268 O324 1.325 . S
N269 C272 1.314 . S
N269 C273 1.279 . S
C270 C268 1.348 . S
C270 C272 1.353 . S
C270 H328 0.929 . S
C271 C268 1.356 . S
C271 C273 1.358 . S
C271 H329 0.930 . S
C272 N269 1.314 . S
C272 C270 1.353 . S
C272 H330 0.930 . S
C273 N269 1.279 . S
C273 C271 1.358 . S
C273 H331 0.930 . S
C274 C277 1.348 . S
C274 C278 1.356 . S
C274 O325 1.325 1_565 S
C275 N276 1.279 . S
C275 C278 1.358 . S
C275 H332 0.930 . S
N276 C275 1.279 . S
N276 C279 1.314 . S
C277 C274 1.348 . S
C277 C279 1.353 . S
C277 H333 0.929 . S
C278 C274 1.356 . S
C278 C275 1.358 . S
C278 H334 0.930 1_565 S
C279 N276 1.314 . S
C279 C277 1.353 . S
C279 H335 0.930 . S
C280 N281 1.314 . S
C280 C285 1.353 . S
C280 H286 0.930 . S
N281 Li264 1.990 1_565 S
N281 C280 1.314 . S
N281 C283 1.279 . S
C282 C283 1.358 . S
C282 C284 1.356 . S
C282 H336 0.930 . S
C283 N281 1.279 . S
C283 C282 1.358 . S
C283 H287 0.930 . S
C284 C282 1.356 . S
C284 C285 1.348 . S
C285 C280 1.353 . S
C285 C284 1.348 . S
C285 H337 0.929 . S
H286 C280 0.930 . S
H287 C283 0.930 . S
C288 N289 1.314 . S
C288 C290 1.353 . S
C288 H294 0.930 . S
N289 Li265 1.990 . S
N289 C288 1.314 . S
N289 C292 1.279 . S
C290 C288 1.353 . S
C290 C293 1.348 . S
C290 H338 0.929 . S
C291 C292 1.358 . S
C291 C293 1.356 . S
C291 H339 0.930 . S
C292 N289 1.279 . S
C292 C291 1.358 . S
C292 H295 0.930 . S
C293 C290 1.348 . S
C293 C291 1.356 . S
H294 C288 0.930 . S
H295 C292 0.930 . S
C296 C298 1.348 . S
C296 C299 1.356 . S
C296 O326 1.325 . S
N297 C300 1.314 . S
N297 C301 1.279 . S
C298 C296 1.348 . S
C298 C300 1.353 . S
C298 H340 0.929 . S
C299 C296 1.356 . S
C299 C301 1.358 . S
C299 H341 0.930 . S
C300 N297 1.314 . S
C300 C298 1.353 . S
C300 H342 0.930 . S
C301 N297 1.279 . S
C301 C299 1.358 . S
C301 H343 0.930 . S
C302 C303 1.348 . S
C302 C304 1.356 . S
C302 O327 1.325 . S
C303 C302 1.348 . S
C303 C305 1.353 . S
C303 H344 0.929 . S
C304 C302 1.356 . S
C304 C306 1.358 . S
C304 H345 0.930 . S
C305 C303 1.353 . S
C305 N307 1.314 . S
C305 H346 0.930 . S
C306 C304 1.358 . S
C306 N307 1.279 . S
C306 H347 0.930 . S
N307 C305 1.314 . S
N307 C306 1.279 . S
C308 C310 1.353 . S
C308 N311 1.314 . S
C308 H314 0.930 . S
C309 N311 1.279 . S
C309 C312 1.358 . S
C309 H315 0.930 . S
C310 C308 1.353 . S
C310 C313 1.348 . S
C310 H348 0.929 . S
N311 Li266 1.990 . S
N311 C308 1.314 . S
N311 C309 1.279 . S
C312 C309 1.358 . S
C312 C313 1.356 . S
C312 H349 0.930 . S
C313 C310 1.348 . S
C313 C312 1.356 . S
H314 C308 0.930 . S
H315 C309 0.930 . S
C316 N317 1.314 . S
C316 C318 1.353 . S
C316 H322 0.930 1_545 S
N317 Li267 1.990 . S
N317 C316 1.314 . S
N317 C320 1.279 . S
C318 C316 1.353 . S
C318 C321 1.348 . S
C318 H350 0.929 1_545 S
C319 C320 1.358 . S
C319 C321 1.356 . S
C319 H351 0.930 . S
C320 N317 1.279 . S
C320 C319 1.358 . S
C320 H323 0.930 . S
C321 C318 1.348 . S
C321 C319 1.356 . S
H322 C316 0.930 1_565 S
H323 C320 0.930 . S
O324 Li264 1.956 . S
O324 Li265 1.970 . S
O324 Li266 1.961 . S
O324 C268 1.325 . S
O325 Li264 1.970 . S
O325 Li265 1.956 . S
O325 Li267 1.961 . S
O325 C274 1.325 1_545 S
O326 Li264 1.961 . S
O326 Li266 1.956 . S
O326 Li267 1.970 . S
O326 C296 1.325 . S
O327 Li265 1.961 . S
O327 Li266 1.970 . S
O327 Li267 1.956 . S
O327 C302 1.325 . S
H328 C270 0.929 . S
H329 C271 0.930 . S
H330 C272 0.930 . S
H331 C273 0.930 . S
H332 C275 0.930 . S
H333 C277 0.929 . S
H334 C278 0.930 1_545 S
H335 C279 0.930 . S
H336 C282 0.930 . S
H337 C285 0.929 . S
H338 C290 0.929 . S
H339 C291 0.930 . S
H340 C298 0.929 . S
H341 C299 0.930 . S
H342 C300 0.930 . S
H343 C301 0.930 . S
H344 C303 0.929 . S
H345 C304 0.930 . S
H346 C305 0.930 . S
H347 C306 0.930 . S
H348 C310 0.929 . S
H349 C312 0.930 . S
H350 C318 0.929 1_565 S
H351 C319 0.930 . S
Li352 N369 1.990 . S
Li352 O412 1.956 . S
Li352 O413 1.970 . S
Li352 O414 1.961 . S
Li353 N377 1.990 . S
Li353 O412 1.970 . S
Li353 O413 1.956 . S
Li353 O415 1.961 . S
Li354 N399 1.990 . S
Li354 O412 1.961 . S
Li354 O414 1.956 . S
Li354 O415 1.970 . S
Li355 N405 1.990 1_455 S
Li355 O413 1.961 . S
Li355 O414 1.970 . S
Li355 O415 1.956 . S
C356 C358 1.348 . S
C356 C359 1.356 . S
C356 O412 1.325 . S
N357 C360 1.314 . S
N357 C361 1.279 . S
C358 C356 1.348 . S
C358 C360 1.353 . S
C358 H416 0.929 . S
C359 C356 1.356 . S
C359 C361 1.358 . S
C359 H417 0.930 . S
C360 N357 1.314 . S
C360 C358 1.353 . S
C360 H418 0.930 . S
C361 N357 1.279 . S
C361 C359 1.358 . S
C361 H419 0.930 . S
C362 C365 1.348 . S
C362 C366 1.356 . S
C362 O413 1.325 . S
C363 N364 1.279 . S
C363 C366 1.358 . S
C363 H420 0.930 . S
N364 C363 1.279 . S
N364 C367 1.314 . S
C365 C362 1.348 . S
C365 C367 1.353 . S
C365 H421 0.929 . S
C366 C362 1.356 . S
C366 C363 1.358 . S
C366 H422 0.930 . S
C367 N364 1.314 . S
C367 C365 1.353 . S
C367 H423 0.930 . S
C368 N369 1.314 . S
C368 C373 1.353 . S
C368 H374 0.930 1_455 S
N369 Li352 1.990 . S
N369 C368 1.314 . S
N369 C371 1.279 . S
C370 C371 1.358 . S
C370 C372 1.356 . S
C370 H424 0.930 . S
C371 N369 1.279 . S
C371 C370 1.358 . S
C371 H375 0.930 . S
C372 C370 1.356 . S
C372 C373 1.348 . S
C373 C368 1.353 . S
C373 C372 1.348 . S
C373 H425 0.929 1_455 S
H374 C368 0.930 1_655 S
H375 C371 0.930 . S
C376 N377 1.314 . S
C376 C378 1.353 . S
C376 H382 0.930 . S
N377 Li353 1.990 . S
N377 C376 1.314 . S
N377 C380 1.279 . S
C378 C376 1.353 . S
C378 C381 1.348 . S
C378 H426 0.929 . S
C379 C380 1.358 . S
C379 C381 1.356 . S
C379 H427 0.930 . S
C380 N377 1.279 . S
C380 C379 1.358 . S
C380 H383 0.930 . S
C381 C378 1.348 . S
C381 C379 1.356 . S
H382 C376 0.930 . S
H383 C380 0.930 . S
C384 C386 1.348 . S
C384 C387 1.356 . S
C384 O414 1.325 1_655 S
N385 C388 1.314 . S
N385 C389 1.279 . S
C386 C384 1.348 . S
C386 C388 1.353 . S
C386 H428 0.929 . S
C387 C384 1.356 . S
C387 C389 1.358 . S
C387 H429 0.930 1_655 S
C388 N385 1.314 . S
C388 C386 1.353 . S
C388 H430 0.930 . S
C389 N385 1.279 . S
C389 C387 1.358 . S
C389 H431 0.930 . S
C390 C391 1.348 . S
C390 C392 1.356 . S
C390 O415 1.325 . S
C391 C390 1.348 . S
C391 C393 1.353 . S
C391 H432 0.929 . S
C392 C390 1.356 . S
C392 C394 1.358 . S
C392 H433 0.930 . S
C393 C391 1.353 . S
C393 N395 1.314 . S
C393 H434 0.930 . S
C394 C392 1.358 . S
C394 N395 1.279 . S
C394 H435 0.930 . S
N395 C393 1.314 . S
N395 C394 1.279 . S
C396 C398 1.353 . S
C396 N399 1.314 . S
C396 H402 0.930 . S
C397 N399 1.279 . S
C397 C400 1.358 . S
C397 H403 0.930 . S
C398 C396 1.353 . S
C398 C401 1.348 . S
C398 H436 0.929 . S
N399 Li354 1.990 . S
N399 C396 1.314 . S
N399 C397 1.279 . S
C400 C397 1.358 . S
C400 C401 1.356 . S
C400 H437 0.930 . S
C401 C398 1.348 . S
C401 C400 1.356 . S
H402 C396 0.930 . S
H403 C397 0.930 . S
C404 N405 1.314 . S
C404 C406 1.353 . S
C404 H410 0.930 . S
N405 Li355 1.990 1_655 S
N405 C404 1.314 . S
N405 C408 1.279 . S
C406 C404 1.353 . S
C406 C409 1.348 . S
C406 H438 0.929 . S
C407 C408 1.358 . S
C407 C409 1.356 . S
C407 H439 0.930 . S
C408 N405 1.279 . S
C408 C407 1.358 . S
C408 H411 0.930 . S
C409 C406 1.348 . S
C409 C407 1.356 . S
H410 C404 0.930 . S
H411 C408 0.930 . S
O412 Li352 1.956 . S
O412 Li353 1.970 . S
O412 Li354 1.961 . S
O412 C356 1.325 . S
O413 Li352 1.970 . S
O413 Li353 1.956 . S
O413 Li355 1.961 . S
O413 C362 1.325 . S
O414 Li352 1.961 . S
O414 Li354 1.956 . S
O414 Li355 1.970 . S
O414 C384 1.325 1_455 S
O415 Li353 1.961 . S
O415 Li354 1.970 . S
O415 Li355 1.956 . S
O415 C390 1.325 . S
H416 C358 0.929 . S
H417 C359 0.930 . S
H418 C360 0.930 . S
H419 C361 0.930 . S
H420 C363 0.930 . S
H421 C365 0.929 . S
H422 C366 0.930 . S
H423 C367 0.930 . S
H424 C370 0.930 . S
H425 C373 0.929 1_655 S
H426 C378 0.929 . S
H427 C379 0.930 . S
H428 C386 0.929 . S
H429 C387 0.930 1_455 S
H430 C388 0.930 . S
H431 C389 0.930 . S
H432 C391 0.929 . S
H433 C392 0.930 . S
H434 C393 0.930 . S
H435 C394 0.930 . S
H436 C398 0.929 . S
H437 C400 0.930 . S
H438 C406 0.929 . S
H439 C407 0.930 . S
Li440 N457 1.990 . S
Li440 O500 1.956 . S
Li440 O501 1.970 . S
Li440 O502 1.961 . S
Li441 N465 1.990 . S
Li441 O500 1.970 . S
Li441 O501 1.956 . S
Li441 O503 1.961 . S
Li442 N487 1.990 . S
Li442 O500 1.961 . S
Li442 O502 1.956 . S
Li442 O503 1.970 . S
Li443 N493 1.990 . S
Li443 O501 1.961 . S
Li443 O502 1.970 . S
Li443 O503 1.956 . S
C444 C446 1.348 . S
C444 C447 1.356 . S
C444 O500 1.325 . S
N445 C448 1.314 . S
N445 C449 1.279 . S
C446 C444 1.348 . S
C446 C448 1.353 . S
C446 H504 0.929 . S
C447 C444 1.356 . S
C447 C449 1.358 . S
C447 H505 0.930 . S
C448 N445 1.314 . S
C448 C446 1.353 . S
C448 H506 0.930 . S
C449 N445 1.279 . S
C449 C447 1.358 . S
C449 H507 0.930 . S
C450 C453 1.348 . S
C450 C454 1.356 . S
C450 O501 1.325 . S
C451 N452 1.279 . S
C451 C454 1.358 . S
C451 H508 0.930 . S
N452 C451 1.279 . S
N452 C455 1.314 . S
C453 C450 1.348 . S
C453 C455 1.353 . S
C453 H509 0.929 . S
C454 C450 1.356 . S
C454 C451 1.358 . S
C454 H510 0.930 . S
C455 N452 1.314 . S
C455 C453 1.353 . S
C455 H511 0.930 . S
C456 N457 1.314 . S
C456 C461 1.353 . S
C456 H462 0.930 . S
N457 Li440 1.990 . S
N457 C456 1.314 . S
N457 C459 1.279 . S
C458 C459 1.358 . S
C458 C460 1.356 . S
C458 H512 0.930 . S
C459 N457 1.279 . S
C459 C458 1.358 . S
C459 H463 0.930 . S
C460 C458 1.356 . S
C460 C461 1.348 . S
C461 C456 1.353 . S
C461 C460 1.348 . S
C461 H513 0.929 . S
H462 C456 0.930 . S
H463 C459 0.930 . S
C464 N465 1.314 . S
C464 C466 1.353 . S
C464 H470 0.930 . S
N465 Li441 1.990 . S
N465 C464 1.314 . S
N465 C468 1.279 . S
C466 C464 1.353 . S
C466 C469 1.348 . S
C466 H514 0.929 . S
C467 C468 1.358 . S
C467 C469 1.356 . S
C467 H515 0.930 . S
C468 N465 1.279 . S
C468 C467 1.358 . S
C468 H471 0.930 . S
C469 C466 1.348 . S
C469 C467 1.356 . S
H470 C464 0.930 . S
H471 C468 0.930 . S
C472 C474 1.348 . S
C472 C475 1.356 . S
C472 O502 1.325 . S
N473 C476 1.314 . S
N473 C477 1.279 . S
C474 C472 1.348 . S
C474 C476 1.353 . S
C474 H516 0.929 . S
C475 C472 1.356 . S
C475 C477 1.358 . S
C475 H517 0.930 . S
C476 N473 1.314 . S
C476 C474 1.353 . S
C476 H518 0.930 . S
C477 N473 1.279 . S
C477 C475 1.358 . S
C477 H519 0.930 . S
C478 C479 1.348 . S
C478 C480 1.356 . S
C478 O503 1.325 . S
C479 C478 1.348 . S
C479 C481 1.353 . S
C479 H520 0.929 . S
C480 C478 1.356 . S
C480 C482 1.358 . S
C480 H521 0.930 . S
C481 C479 1.353 . S
C481 N483 1.314 . S
C481 H522 0.930 . S
C482 C480 1.358 . S
C482 N483 1.279 . S
C482 H523 0.930 . S
N483 C481 1.314 . S
N483 C482 1.279 . S
C484 C486 1.353 . S
C484 N487 1.314 . S
C484 H490 0.930 . S
C485 N487 1.279 . S
C485 C488 1.358 . S
C485 H491 0.930 . S
C486 C484 1.353 . S
C486 C489 1.348 . S
C486 H524 0.929 . S
N487 Li442 1.990 . S
N487 C484 1.314 . S
N487 C485 1.279 . S
C488 C485 1.358 . S
C488 C489 1.356 . S
C488 H525 0.930 . S
C489 C486 1.348 . S
C489 C488 1.356 . S
H490 C484 0.930 . S
H491 C485 0.930 . S
C492 N493 1.314 . S
C492 C494 1.353 . S
C492 H498 0.930 . S
N493 Li443 1.990 . S
N493 C492 1.314 . S
N493 C496 1.279 . S
C494 C492 1.353 . S
C494 C497 1.348 . S
C494 H526 0.929 . S
C495 C496 1.358 . S
C495 C497 1.356 . S
C495 H527 0.930 . S
C496 N493 1.279 . S
C496 C495 1.358 . S
C496 H499 0.930 . S
C497 C494 1.348 . S
C497 C495 1.356 . S
H498 C492 0.930 . S
H499 C496 0.930 . S
O500 Li440 1.956 . S
O500 Li441 1.970 . S
O500 Li442 1.961 . S
O500 C444 1.325 . S
O501 Li440 1.970 . S
O501 Li441 1.956 . S
O501 Li443 1.961 . S
O501 C450 1.325 . S
O502 Li440 1.961 . S
O502 Li442 1.956 . S
O502 Li443 1.970 . S
O502 C472 1.325 . S
O503 Li441 1.961 . S
O503 Li442 1.970 . S
O503 Li443 1.956 . S
O503 C478 1.325 . S
H504 C446 0.929 . S
H505 C447 0.930 . S
H506 C448 0.930 . S
H507 C449 0.930 . S
H508 C451 0.930 . S
H509 C453 0.929 . S
H510 C454 0.930 . S
H511 C455 0.930 . S
H512 C458 0.930 . S
H513 C461 0.929 . S
H514 C466 0.929 . S
H515 C467 0.930 . S
H516 C474 0.929 . S
H517 C475 0.930 . S
H518 C476 0.930 . S
H519 C477 0.930 . S
H520 C479 0.929 . S
H521 C480 0.930 . S
H522 C481 0.930 . S
H523 C482 0.930 . S
H524 C486 0.929 . S
H525 C488 0.930 . S
H526 C494 0.929 . S
H527 C495 0.930 . S
Li528 N545 1.990 . S
Li528 O588 1.956 . S
Li528 O589 1.970 . S
Li528 O590 1.961 . S
Li529 N553 1.990 . S
Li529 O588 1.970 . S
Li529 O589 1.956 . S
Li529 O591 1.961 . S
Li530 N575 1.990 . S
Li530 O588 1.961 . S
Li530 O590 1.956 . S
Li530 O591 1.970 . S
Li531 N581 1.990 1_455 S
Li531 O589 1.961 . S
Li531 O590 1.970 . S
Li531 O591 1.956 . S
C532 C534 1.348 . S
C532 C535 1.356 . S
C532 O588 1.325 . S
N533 C536 1.314 . S
N533 C537 1.279 . S
C534 C532 1.348 . S
C534 C536 1.353 . S
C534 H592 0.929 . S
C535 C532 1.356 . S
C535 C537 1.358 . S
C535 H593 0.930 . S
C536 N533 1.314 . S
C536 C534 1.353 . S
C536 H594 0.930 . S
C537 N533 1.279 . S
C537 C535 1.358 . S
C537 H595 0.930 . S
C538 C541 1.348 . S
C538 C542 1.356 . S
C538 O589 1.325 . S
C539 N540 1.279 . S
C539 C542 1.358 . S
C539 H596 0.930 . S
N540 C539 1.279 . S
N540 C543 1.314 . S
C541 C538 1.348 . S
C541 C543 1.353 . S
C541 H597 0.929 . S
C542 C538 1.356 . S
C542 C539 1.358 . S
C542 H598 0.930 . S
C543 N540 1.314 . S
C543 C541 1.353 . S
C543 H599 0.930 . S
C544 N545 1.314 . S
C544 C549 1.353 . S
C544 H550 0.930 . S
N545 Li528 1.990 . S
N545 C544 1.314 . S
N545 C547 1.279 . S
C546 C547 1.358 . S
C546 C548 1.356 . S
C546 H600 0.930 . S
C547 N545 1.279 . S
C547 C546 1.358 . S
C547 H551 0.930 . S
C548 C546 1.356 . S
C548 C549 1.348 . S
C549 C544 1.353 . S
C549 C548 1.348 . S
C549 H601 0.929 . S
H550 C544 0.930 . S
H551 C547 0.930 . S
C552 N553 1.314 . S
C552 C554 1.353 . S
C552 H558 0.930 . S
N553 Li529 1.990 . S
N553 C552 1.314 . S
N553 C556 1.279 . S
C554 C552 1.353 . S
C554 C557 1.348 . S
C554 H602 0.929 . S
C555 C556 1.358 . S
C555 C557 1.356 . S
C555 H603 0.930 . S
C556 N553 1.279 . S
C556 C555 1.358 . S
C556 H559 0.930 . S
C557 C554 1.348 . S
C557 C555 1.356 . S
H558 C552 0.930 . S
H559 C556 0.930 . S
C560 C562 1.348 . S
C560 C563 1.356 . S
C560 O590 1.325 1_655 S
N561 C564 1.314 . S
N561 C565 1.279 . S
C562 C560 1.348 . S
C562 C564 1.353 . S
C562 H604 0.929 . S
C563 C560 1.356 . S
C563 C565 1.358 . S
C563 H605 0.930 1_655 S
C564 N561 1.314 . S
C564 C562 1.353 . S
C564 H606 0.930 . S
C565 N561 1.279 . S
C565 C563 1.358 . S
C565 H607 0.930 . S
C566 C567 1.348 . S
C566 C568 1.356 . S
C566 O591 1.325 . S
C567 C566 1.348 . S
C567 C569 1.353 . S
C567 H608 0.929 . S
C568 C566 1.356 . S
C568 C570 1.358 . S
C568 H609 0.930 . S
C569 C567 1.353 . S
C569 N571 1.314 . S
C569 H610 0.930 . S
C570 C568 1.358 . S
C570 N571 1.279 . S
C570 H611 0.930 . S
N571 C569 1.314 . S
N571 C570 1.279 . S
C572 C574 1.353 . S
C572 N575 1.314 . S
C572 H578 0.930 . S
C573 N575 1.279 . S
C573 C576 1.358 . S
C573 H579 0.930 1_455 S
C574 C572 1.353 . S
C574 C577 1.348 . S
C574 H612 0.929 . S
N575 Li530 1.990 . S
N575 C572 1.314 . S
N575 C573 1.279 . S
C576 C573 1.358 . S
C576 C577 1.356 . S
C576 H613 0.930 1_455 S
C577 C574 1.348 . S
C577 C576 1.356 . S
H578 C572 0.930 . S
H579 C573 0.930 1_655 S
C580 N581 1.314 . S
C580 C582 1.353 . S
C580 H586 0.930 . S
N581 Li531 1.990 1_655 S
N581 C580 1.314 . S
N581 C584 1.279 . S
C582 C580 1.353 . S
C582 C585 1.348 . S
C582 H614 0.929 . S
C583 C584 1.358 . S
C583 C585 1.356 . S
C583 H615 0.930 . S
C584 N581 1.279 . S
C584 C583 1.358 . S
C584 H587 0.930 . S
C585 C582 1.348 . S
C585 C583 1.356 . S
H586 C580 0.930 . S
H587 C584 0.930 . S
O588 Li528 1.956 . S
O588 Li529 1.970 . S
O588 Li530 1.961 . S
O588 C532 1.325 . S
O589 Li528 1.970 . S
O589 Li529 1.956 . S
O589 Li531 1.961 . S
O589 C538 1.325 . S
O590 Li528 1.961 . S
O590 Li530 1.956 . S
O590 Li531 1.970 . S
O590 C560 1.325 1_455 S
O591 Li529 1.961 . S
O591 Li530 1.970 . S
O591 Li531 1.956 . S
O591 C566 1.325 . S
H592 C534 0.929 . S
H593 C535 0.930 . S
H594 C536 0.930 . S
H595 C537 0.930 . S
H596 C539 0.930 . S
H597 C541 0.929 . S
H598 C542 0.930 . S
H599 C543 0.930 . S
H600 C546 0.930 . S
H601 C549 0.929 . S
H602 C554 0.929 . S
H603 C555 0.930 . S
H604 C562 0.929 . S
H605 C563 0.930 1_455 S
H606 C564 0.930 . S
H607 C565 0.930 . S
H608 C567 0.929 . S
H609 C568 0.930 . S
H610 C569 0.930 . S
H611 C570 0.930 . S
H612 C574 0.929 . S
H613 C576 0.930 1_655 S
H614 C582 0.929 . S
H615 C583 0.930 . S
Li616 N633 1.990 . S
Li616 O676 1.956 . S
Li616 O677 1.970 . S
Li616 O678 1.961 . S
Li617 N641 1.990 . S
Li617 O676 1.970 . S
Li617 O677 1.956 . S
Li617 O679 1.961 . S
Li618 N663 1.990 . S
Li618 O676 1.961 . S
Li618 O678 1.956 . S
Li618 O679 1.970 . S
Li619 N669 1.990 . S
Li619 O677 1.961 . S
Li619 O678 1.970 . S
Li619 O679 1.956 . S
C620 C622 1.348 . S
C620 C623 1.356 . S
C620 O676 1.325 . S
N621 C624 1.314 . S
N621 C625 1.279 . S
C622 C620 1.348 . S
C622 C624 1.353 . S
C622 H680 0.929 . S
C623 C620 1.356 . S
C623 C625 1.358 . S
C623 H681 0.930 . S
C624 N621 1.314 . S
C624 C622 1.353 . S
C624 H682 0.930 . S
C625 N621 1.279 . S
C625 C623 1.358 . S
C625 H683 0.930 . S
C626 C629 1.348 . S
C626 C630 1.356 . S
C626 O677 1.325 . S
C627 N628 1.279 . S
C627 C630 1.358 . S
C627 H684 0.930 . S
N628 C627 1.279 . S
N628 C631 1.314 . S
C629 C626 1.348 . S
C629 C631 1.353 . S
C629 H685 0.929 . S
C630 C626 1.356 . S
C630 C627 1.358 . S
C630 H686 0.930 . S
C631 N628 1.314 . S
C631 C629 1.353 . S
C631 H687 0.930 . S
C632 N633 1.314 . S
C632 C637 1.353 . S
C632 H638 0.930 . S
N633 Li616 1.990 . S
N633 C632 1.314 . S
N633 C635 1.279 . S
C634 C635 1.358 . S
C634 C636 1.356 . S
C634 H688 0.930 . S
C635 N633 1.279 . S
C635 C634 1.358 . S
C635 H639 0.930 . S
C636 C634 1.356 . S
C636 C637 1.348 . S
C637 C632 1.353 . S
C637 C636 1.348 . S
C637 H689 0.929 . S
H638 C632 0.930 . S
H639 C635 0.930 . S
C640 N641 1.314 . S
C640 C642 1.353 . S
C640 H646 0.930 . S
N641 Li617 1.990 . S
N641 C640 1.314 . S
N641 C644 1.279 . S
C642 C640 1.353 . S
C642 C645 1.348 . S
C642 H690 0.929 . S
C643 C644 1.358 . S
C643 C645 1.356 . S
C643 H691 0.930 . S
C644 N641 1.279 . S
C644 C643 1.358 . S
C644 H647 0.930 . S
C645 C642 1.348 . S
C645 C643 1.356 . S
H646 C640 0.930 . S
H647 C644 0.930 . S
C648 C650 1.348 . S
C648 C651 1.356 . S
C648 O678 1.325 . S
N649 C652 1.314 . S
N649 C653 1.279 . S
C650 C648 1.348 . S
C650 C652 1.353 . S
C650 H692 0.929 . S
C651 C648 1.356 . S
C651 C653 1.358 . S
C651 H693 0.930 . S
C652 N649 1.314 . S
C652 C650 1.353 . S
C652 H694 0.930 . S
C653 N649 1.279 . S
C653 C651 1.358 . S
C653 H695 0.930 . S
C654 C655 1.348 . S
C654 C656 1.356 . S
C654 O679 1.325 . S
C655 C654 1.348 . S
C655 C657 1.353 . S
C655 H696 0.929 . S
C656 C654 1.356 . S
C656 C658 1.358 . S
C656 H697 0.930 . S
C657 C655 1.353 . S
C657 N659 1.314 . S
C657 H698 0.930 . S
C658 C656 1.358 . S
C658 N659 1.279 . S
C658 H699 0.930 . S
N659 C657 1.314 . S
N659 C658 1.279 . S
C660 C662 1.353 . S
C660 N663 1.314 . S
C660 H666 0.930 . S
C661 N663 1.279 . S
C661 C664 1.358 . S
C661 H667 0.930 . S
C662 C660 1.353 . S
C662 C665 1.348 . S
C662 H700 0.929 . S
N663 Li618 1.990 . S
N663 C660 1.314 . S
N663 C661 1.279 . S
C664 C661 1.358 . S
C664 C665 1.356 . S
C664 H701 0.930 . S
C665 C662 1.348 . S
C665 C664 1.356 . S
H666 C660 0.930 . S
H667 C661 0.930 . S
C668 N669 1.314 . S
C668 C670 1.353 . S
C668 H674 0.930 . S
N669 Li619 1.990 . S
N669 C668 1.314 . S
N669 C672 1.279 . S
C670 C668 1.353 . S
C670 C673 1.348 . S
C670 H702 0.929 . S
C671 C672 1.358 . S
C671 C673 1.356 . S
C671 H703 0.930 . S
C672 N669 1.279 . S
C672 C671 1.358 . S
C672 H675 0.930 . S
C673 C670 1.348 . S
C673 C671 1.356 . S
H674 C668 0.930 . S
H675 C672 0.930 . S
O676 Li616 1.956 . S
O676 Li617 1.970 . S
O676 Li618 1.961 . S
O676 C620 1.325 . S
O677 Li616 1.970 . S
O677 Li617 1.956 . S
O677 Li619 1.961 . S
O677 C626 1.325 . S
O678 Li616 1.961 . S
O678 Li618 1.956 . S
O678 Li619 1.970 . S
O678 C648 1.325 . S
O679 Li617 1.961 . S
O679 Li618 1.970 . S
O679 Li619 1.956 . S
O679 C654 1.325 . S
H680 C622 0.929 . S
H681 C623 0.930 . S
H682 C624 0.930 . S
H683 C625 0.930 . S
H684 C627 0.930 . S
H685 C629 0.929 . S
H686 C630 0.930 . S
H687 C631 0.930 . S
H688 C634 0.930 . S
H689 C637 0.929 . S
H690 C642 0.929 . S
H691 C643 0.930 . S
H692 C650 0.929 . S
H693 C651 0.930 . S
H694 C652 0.930 . S
H695 C653 0.930 . S
H696 C655 0.929 . S
H697 C656 0.930 . S
H698 C657 0.930 . S
H699 C658 0.930 . S
H700 C662 0.929 . S
H701 C664 0.930 . S
H702 C670 0.929 . S
H703 C671 0.930 . S
Li704 N721 1.990 . S
Li704 O764 1.956 . S
Li704 O765 1.970 . S
Li704 O766 1.961 . S
Li705 N729 1.990 . S
Li705 O764 1.970 . S
Li705 O765 1.956 . S
Li705 O767 1.961 . S
Li706 N751 1.990 1_545 S
Li706 O764 1.961 . S
Li706 O766 1.956 . S
Li706 O767 1.970 . S
Li707 N757 1.990 . S
Li707 O765 1.961 . S
Li707 O766 1.970 . S
Li707 O767 1.956 . S
C708 C710 1.348 . S
C708 C711 1.356 . S
C708 O764 1.325 . S
N709 C712 1.314 . S
N709 C713 1.279 . S
C710 C708 1.348 . S
C710 C712 1.353 . S
C710 H768 0.929 . S
C711 C708 1.356 . S
C711 C713 1.358 . S
C711 H769 0.930 . S
C712 N709 1.314 . S
C712 C710 1.353 . S
C712 H770 0.930 . S
C713 N709 1.279 . S
C713 C711 1.358 . S
C713 H771 0.930 . S
C714 C717 1.348 . S
C714 C718 1.356 . S
C714 O765 1.325 . S
C715 N716 1.279 . S
C715 C718 1.358 . S
C715 H772 0.930 . S
N716 C715 1.279 . S
N716 C719 1.314 . S
C717 C714 1.348 . S
C717 C719 1.353 . S
C717 H773 0.929 . S
C718 C714 1.356 . S
C718 C715 1.358 . S
C718 H774 0.930 . S
C719 N716 1.314 . S
C719 C717 1.353 . S
C719 H775 0.930 . S
C720 N721 1.314 . S
C720 C725 1.353 . S
C720 H726 0.930 . S
N721 Li704 1.990 . S
N721 C720 1.314 . S
N721 C723 1.279 . S
C722 C723 1.358 . S
C722 C724 1.356 . S
C722 H776 0.930 . S
C723 N721 1.279 . S
C723 C722 1.358 . S
C723 H727 0.930 . S
C724 C722 1.356 . S
C724 C725 1.348 . S
C725 C720 1.353 . S
C725 C724 1.348 . S
C725 H777 0.929 . S
H726 C720 0.930 . S
H727 C723 0.930 . S
C728 N729 1.314 . S
C728 C730 1.353 . S
C728 H734 0.930 . S
N729 Li705 1.990 . S
N729 C728 1.314 . S
N729 C732 1.279 . S
C730 C728 1.353 . S
C730 C733 1.348 . S
C730 H778 0.929 . S
C731 C732 1.358 . S
C731 C733 1.356 . S
C731 H779 0.930 . S
C732 N729 1.279 . S
C732 C731 1.358 . S
C732 H735 0.930 . S
C733 C730 1.348 . S
C733 C731 1.356 . S
H734 C728 0.930 . S
H735 C732 0.930 . S
C736 C738 1.348 . S
C736 C739 1.356 . S
C736 O766 1.325 . S
N737 C740 1.314 . S
N737 C741 1.279 . S
C738 C736 1.348 . S
C738 C740 1.353 . S
C738 H780 0.929 . S
C739 C736 1.356 . S
C739 C741 1.358 . S
C739 H781 0.930 . S
C740 N737 1.314 . S
C740 C738 1.353 . S
C740 H782 0.930 . S
C741 N737 1.279 . S
C741 C739 1.358 . S
C741 H783 0.930 . S
C742 C743 1.348 . S
C742 C744 1.356 . S
C742 O767 1.325 1_565 S
C743 C742 1.348 . S
C743 C745 1.353 . S
C743 H784 0.929 . S
C744 C742 1.356 . S
C744 C746 1.358 . S
C744 H785 0.930 1_565 S
C745 C743 1.353 . S
C745 N747 1.314 . S
C745 H786 0.930 . S
C746 C744 1.358 . S
C746 N747 1.279 . S
C746 H787 0.930 . S
N747 C745 1.314 . S
N747 C746 1.279 . S
C748 C750 1.353 . S
C748 N751 1.314 . S
C748 H754 0.930 . S
C749 N751 1.279 . S
C749 C752 1.358 . S
C749 H755 0.930 . S
C750 C748 1.353 . S
C750 C753 1.348 . S
C750 H788 0.929 . S
N751 Li706 1.990 1_565 S
N751 C748 1.314 . S
N751 C749 1.279 . S
C752 C749 1.358 . S
C752 C753 1.356 . S
C752 H789 0.930 . S
C753 C750 1.348 . S
C753 C752 1.356 . S
H754 C748 0.930 . S
H755 C749 0.930 . S
C756 N757 1.314 . S
C756 C758 1.353 . S
C756 H762 0.930 . S
N757 Li707 1.990 . S
N757 C756 1.314 . S
N757 C760 1.279 . S
C758 C756 1.353 . S
C758 C761 1.348 . S
C758 H790 0.929 . S
C759 C760 1.358 . S
C759 C761 1.356 . S
C759 H791 0.930 1_545 S
C760 N757 1.279 . S
C760 C759 1.358 . S
C760 H763 0.930 1_545 S
C761 C758 1.348 . S
C761 C759 1.356 . S
H762 C756 0.930 . S
H763 C760 0.930 1_565 S
O764 Li704 1.956 . S
O764 Li705 1.970 . S
O764 Li706 1.961 . S
O764 C708 1.325 . S
O765 Li704 1.970 . S
O765 Li705 1.956 . S
O765 Li707 1.961 . S
O765 C714 1.325 . S
O766 Li704 1.961 . S
O766 Li706 1.956 . S
O766 Li707 1.970 . S
O766 C736 1.325 . S
O767 Li705 1.961 . S
O767 Li706 1.970 . S
O767 Li707 1.956 . S
O767 C742 1.325 1_545 S
H768 C710 0.929 . S
H769 C711 0.930 . S
H770 C712 0.930 . S
H771 C713 0.930 . S
H772 C715 0.930 . S
H773 C717 0.929 . S
H774 C718 0.930 . S
H775 C719 0.930 . S
H776 C722 0.930 . S
H777 C725 0.929 . S
H778 C730 0.929 . S
H779 C731 0.930 . S
H780 C738 0.929 . S
H781 C739 0.930 . S
H782 C740 0.930 . S
H783 C741 0.930 . S
H784 C743 0.929 . S
H785 C744 0.930 1_545 S
H786 C745 0.930 . S
H787 C746 0.930 . S
H788 C750 0.929 . S
H789 C752 0.930 . S
H790 C758 0.929 . S
H791 C759 0.930 1_565 S
Li792 N809 1.990 . S
Li792 O852 1.956 . S
Li792 O853 1.970 . S
Li792 O854 1.961 . S
Li793 N817 1.990 . S
Li793 O852 1.970 . S
Li793 O853 1.956 . S
Li793 O855 1.961 . S
Li794 N839 1.990 1_545 S
Li794 O852 1.961 . S
Li794 O854 1.956 . S
Li794 O855 1.970 . S
Li795 N845 1.990 . S
Li795 O853 1.961 . S
Li795 O854 1.970 . S
Li795 O855 1.956 . S
C796 C798 1.348 . S
C796 C799 1.356 . S
C796 O852 1.325 . S
N797 C800 1.314 . S
N797 C801 1.279 . S
C798 C796 1.348 . S
C798 C800 1.353 . S
C798 H856 0.929 . S
C799 C796 1.356 . S
C799 C801 1.358 . S
C799 H857 0.930 . S
C800 N797 1.314 . S
C800 C798 1.353 . S
C800 H858 0.930 . S
C801 N797 1.279 . S
C801 C799 1.358 . S
C801 H859 0.930 . S
C802 C805 1.348 . S
C802 C806 1.356 . S
C802 O853 1.325 . S
C803 N804 1.279 . S
C803 C806 1.358 . S
C803 H860 0.930 . S
N804 C803 1.279 . S
N804 C807 1.314 . S
C805 C802 1.348 . S
C805 C807 1.353 . S
C805 H861 0.929 . S
C806 C802 1.356 . S
C806 C803 1.358 . S
C806 H862 0.930 . S
C807 N804 1.314 . S
C807 C805 1.353 . S
C807 H863 0.930 . S
C808 N809 1.314 . S
C808 C813 1.353 . S
C808 H814 0.930 . S
N809 Li792 1.990 . S
N809 C808 1.314 . S
N809 C811 1.279 . S
C810 C811 1.358 . S
C810 C812 1.356 . S
C810 H864 0.930 . S
C811 N809 1.279 . S
C811 C810 1.358 . S
C811 H815 0.930 . S
C812 C810 1.356 . S
C812 C813 1.348 . S
C813 C808 1.353 . S
C813 C812 1.348 . S
C813 H865 0.929 . S
H814 C808 0.930 . S
H815 C811 0.930 . S
C816 N817 1.314 . S
C816 C818 1.353 . S
C816 H822 0.930 . S
N817 Li793 1.990 . S
N817 C816 1.314 . S
N817 C820 1.279 . S
C818 C816 1.353 . S
C818 C821 1.348 . S
C818 H866 0.929 . S
C819 C820 1.358 . S
C819 C821 1.356 . S
C819 H867 0.930 . S
C820 N817 1.279 . S
C820 C819 1.358 . S
C820 H823 0.930 . S
C821 C818 1.348 . S
C821 C819 1.356 . S
H822 C816 0.930 . S
H823 C820 0.930 . S
C824 C826 1.348 . S
C824 C827 1.356 . S
C824 O854 1.325 . S
N825 C828 1.314 . S
N825 C829 1.279 . S
C826 C824 1.348 . S
C826 C828 1.353 . S
C826 H868 0.929 . S
C827 C824 1.356 . S
C827 C829 1.358 . S
C827 H869 0.930 . S
C828 N825 1.314 . S
C828 C826 1.353 . S
C828 H870 0.930 . S
C829 N825 1.279 . S
C829 C827 1.358 . S
C829 H871 0.930 . S
C830 C831 1.348 . S
C830 C832 1.356 . S
C830 O855 1.325 1_565 S
C831 C830 1.348 . S
C831 C833 1.353 . S
C831 H872 0.929 . S
C832 C830 1.356 . S
C832 C834 1.358 . S
C832 H873 0.930 1_565 S
C833 C831 1.353 . S
C833 N835 1.314 . S
C833 H874 0.930 . S
C834 C832 1.358 . S
C834 N835 1.279 . S
C834 H875 0.930 . S
N835 C833 1.314 . S
N835 C834 1.279 . S
C836 C838 1.353 . S
C836 N839 1.314 . S
C836 H842 0.930 . S
C837 N839 1.279 . S
C837 C840 1.358 . S
C837 H843 0.930 . S
C838 C836 1.353 . S
C838 C841 1.348 . S
C838 H876 0.929 . S
N839 Li794 1.990 1_565 S
N839 C836 1.314 . S
N839 C837 1.279 . S
C840 C837 1.358 . S
C840 C841 1.356 . S
C840 H877 0.930 . S
C841 C838 1.348 . S
C841 C840 1.356 . S
H842 C836 0.930 . S
H843 C837 0.930 . S
C844 N845 1.314 . S
C844 C846 1.353 . S
C844 H850 0.930 . S
N845 Li795 1.990 . S
N845 C844 1.314 . S
N845 C848 1.279 . S
C846 C844 1.353 . S
C846 C849 1.348 . S
C846 H878 0.929 . S
C847 C848 1.358 . S
C847 C849 1.356 . S
C847 H879 0.930 1_545 S
C848 N845 1.279 . S
C848 C847 1.358 . S
C848 H851 0.930 1_545 S
C849 C846 1.348 . S
C849 C847 1.356 . S
H850 C844 0.930 . S
H851 C848 0.930 1_565 S
O852 Li792 1.956 . S
O852 Li793 1.970 . S
O852 Li794 1.961 . S
O852 C796 1.325 . S
O853 Li792 1.970 . S
O853 Li793 1.956 . S
O853 Li795 1.961 . S
O853 C802 1.325 . S
O854 Li792 1.961 . S
O854 Li794 1.956 . S
O854 Li795 1.970 . S
O854 C824 1.325 . S
O855 Li793 1.961 . S
O855 Li794 1.970 . S
O855 Li795 1.956 . S
O855 C830 1.325 1_545 S
H856 C798 0.929 . S
H857 C799 0.930 . S
H858 C800 0.930 . S
H859 C801 0.930 . S
H860 C803 0.930 . S
H861 C805 0.929 . S
H862 C806 0.930 . S
H863 C807 0.930 . S
H864 C810 0.930 . S
H865 C813 0.929 . S
H866 C818 0.929 . S
H867 C819 0.930 . S
H868 C826 0.929 . S
H869 C827 0.930 . S
H870 C828 0.930 . S
H871 C829 0.930 . S
H872 C831 0.929 . S
H873 C832 0.930 1_545 S
H874 C833 0.930 . S
H875 C834 0.930 . S
H876 C838 0.929 . S
H877 C840 0.930 . S
H878 C846 0.929 . S
H879 C847 0.930 1_565 S
Li880 N897 1.990 1_455 S
Li880 O940 1.956 . S
Li880 O941 1.970 . S
Li880 O942 1.961 . S
Li881 N905 1.990 . S
Li881 O940 1.970 . S
Li881 O941 1.956 . S
Li881 O943 1.961 . S
Li882 N927 1.990 . S
Li882 O940 1.961 . S
Li882 O942 1.956 . S
Li882 O943 1.970 . S
Li883 N933 1.990 . S
Li883 O941 1.961 . S
Li883 O942 1.970 . S
Li883 O943 1.956 . S
C884 C886 1.348 . S
C884 C887 1.356 . S
C884 O940 1.325 . S
N885 C888 1.314 . S
N885 C889 1.279 . S
C886 C884 1.348 . S
C886 C888 1.353 . S
C886 H944 0.929 . S
C887 C884 1.356 . S
C887 C889 1.358 . S
C887 H945 0.930 . S
C888 N885 1.314 . S
C888 C886 1.353 . S
C888 H946 0.930 . S
C889 N885 1.279 . S
C889 C887 1.358 . S
C889 H947 0.930 . S
C890 C893 1.348 . S
C890 C894 1.356 . S
C890 O941 1.325 1_655 S
C891 N892 1.279 . S
C891 C894 1.358 . S
C891 H948 0.930 . S
N892 C891 1.279 . S
N892 C895 1.314 . S
C893 C890 1.348 . S
C893 C895 1.353 . S
C893 H949 0.929 . S
C894 C890 1.356 . S
C894 C891 1.358 . S
C894 H950 0.930 1_655 S
C895 N892 1.314 . S
C895 C893 1.353 . S
C895 H951 0.930 . S
C896 N897 1.314 . S
C896 C901 1.353 . S
C896 H902 0.930 . S
N897 Li880 1.990 1_655 S
N897 C896 1.314 . S
N897 C899 1.279 . S
C898 C899 1.358 . S
C898 C900 1.356 . S
C898 H952 0.930 . S
C899 N897 1.279 . S
C899 C898 1.358 . S
C899 H903 0.930 . S
C900 C898 1.356 . S
C900 C901 1.348 . S
C901 C896 1.353 . S
C901 C900 1.348 . S
C901 H953 0.929 . S
H902 C896 0.930 . S
H903 C899 0.930 . S
C904 N905 1.314 . S
C904 C906 1.353 . S
C904 H910 0.930 . S
N905 Li881 1.990 . S
N905 C904 1.314 . S
N905 C908 1.279 . S
C906 C904 1.353 . S
C906 C909 1.348 . S
C906 H954 0.929 . S
C907 C908 1.358 . S
C907 C909 1.356 . S
C907 H955 0.930 1_455 S
C908 N905 1.279 . S
C908 C907 1.358 . S
C908 H911 0.930 1_455 S
C909 C906 1.348 . S
C909 C907 1.356 . S
H910 C904 0.930 . S
H911 C908 0.930 1_655 S
C912 C914 1.348 . S
C912 C915 1.356 . S
C912 O942 1.325 . S
N913 C916 1.314 . S
N913 C917 1.279 . S
C914 C912 1.348 . S
C914 C916 1.353 . S
C914 H956 0.929 . S
C915 C912 1.356 . S
C915 C917 1.358 . S
C915 H957 0.930 . S
C916 N913 1.314 . S
C916 C914 1.353 . S
C916 H958 0.930 . S
C917 N913 1.279 . S
C917 C915 1.358 . S
C917 H959 0.930 . S
C918 C919 1.348 . S
C918 C920 1.356 . S
C918 O943 1.325 . S
C919 C918 1.348 . S
C919 C921 1.353 . S
C919 H960 0.929 . S
C920 C918 1.356 . S
C920 C922 1.358 . S
C920 H961 0.930 . S
C921 C919 1.353 . S
C921 N923 1.314 . S
C921 H962 0.930 . S
C922 C920 1.358 . S
C922 N923 1.279 . S
C922 H963 0.930 . S
N923 C921 1.314 . S
N923 C922 1.279 . S
C924 C926 1.353 . S
C924 N927 1.314 . S
C924 H930 0.930 . S
C925 N927 1.279 . S
C925 C928 1.358 . S
C925 H931 0.930 . S
C926 C924 1.353 . S
C926 C929 1.348 . S
C926 H964 0.929 . S
N927 Li882 1.990 . S
N927 C924 1.314 . S
N927 C925 1.279 . S
C928 C925 1.358 . S
C928 C929 1.356 . S
C928 H965 0.930 . S
C929 C926 1.348 . S
C929 C928 1.356 . S
H930 C924 0.930 . S
H931 C925 0.930 . S
C932 N933 1.314 . S
C932 C934 1.353 . S
C932 H938 0.930 . S
N933 Li883 1.990 . S
N933 C932 1.314 . S
N933 C936 1.279 . S
C934 C932 1.353 . S
C934 C937 1.348 . S
C934 H966 0.929 . S
C935 C936 1.358 . S
C935 C937 1.356 . S
C935 H967 0.930 . S
C936 N933 1.279 . S
C936 C935 1.358 . S
C936 H939 0.930 . S
C937 C934 1.348 . S
C937 C935 1.356 . S
H938 C932 0.930 . S
H939 C936 0.930 . S
O940 Li880 1.956 . S
O940 Li881 1.970 . S
O940 Li882 1.961 . S
O940 C884 1.325 . S
O941 Li880 1.970 . S
O941 Li881 1.956 . S
O941 Li883 1.961 . S
O941 C890 1.325 1_455 S
O942 Li880 1.961 . S
O942 Li882 1.956 . S
O942 Li883 1.970 . S
O942 C912 1.325 . S
O943 Li881 1.961 . S
O943 Li882 1.970 . S
O943 Li883 1.956 . S
O943 C918 1.325 . S
H944 C886 0.929 . S
H945 C887 0.930 . S
H946 C888 0.930 . S
H947 C889 0.930 . S
H948 C891 0.930 . S
H949 C893 0.929 . S
H950 C894 0.930 1_455 S
H951 C895 0.930 . S
H952 C898 0.930 . S
H953 C901 0.929 . S
H954 C906 0.929 . S
H955 C907 0.930 1_655 S
H956 C914 0.929 . S
H957 C915 0.930 . S
H958 C916 0.930 . S
H959 C917 0.930 . S
H960 C919 0.929 . S
H961 C920 0.930 . S
H962 C921 0.930 . S
H963 C922 0.930 . S
H964 C926 0.929 . S
H965 C928 0.930 . S
H966 C934 0.929 . S
H967 C935 0.930 . S
Li968 N985 1.990 . S
Li968 O1028 1.956 . S
Li968 O1029 1.970 . S
Li968 O1030 1.961 . S
Li969 N993 1.990 . S
Li969 O1028 1.970 . S
Li969 O1029 1.956 . S
Li969 O1031 1.961 . S
Li970 N1015 1.990 . S
Li970 O1028 1.961 . S
Li970 O1030 1.956 . S
Li970 O1031 1.970 . S
Li971 N1021 1.990 . S
Li971 O1029 1.961 . S
Li971 O1030 1.970 . S
Li971 O1031 1.956 . S
C972 C974 1.348 . S
C972 C975 1.356 . S
C972 O1028 1.325 . S
N973 C976 1.314 . S
N973 C977 1.279 . S
C974 C972 1.348 . S
C974 C976 1.353 . S
C974 H1032 0.929 . S
C975 C972 1.356 . S
C975 C977 1.358 . S
C975 H1033 0.930 . S
C976 N973 1.314 . S
C976 C974 1.353 . S
C976 H1034 0.930 . S
C977 N973 1.279 . S
C977 C975 1.358 . S
C977 H1035 0.930 . S
C978 C981 1.348 . S
C978 C982 1.356 . S
C978 O1029 1.325 . S
C979 N980 1.279 . S
C979 C982 1.358 . S
C979 H1036 0.930 . S
N980 C979 1.279 . S
N980 C983 1.314 . S
C981 C978 1.348 . S
C981 C983 1.353 . S
C981 H1037 0.929 . S
C982 C978 1.356 . S
C982 C979 1.358 . S
C982 H1038 0.930 . S
C983 N980 1.314 . S
C983 C981 1.353 . S
C983 H1039 0.930 . S
C984 N985 1.314 . S
C984 C989 1.353 . S
C984 H990 0.930 . S
N985 Li968 1.990 . S
N985 C984 1.314 . S
N985 C987 1.279 . S
C986 C987 1.358 . S
C986 C988 1.356 . S
C986 H1040 0.930 . S
C987 N985 1.279 . S
C987 C986 1.358 . S
C987 H991 0.930 . S
C988 C986 1.356 . S
C988 C989 1.348 . S
C989 C984 1.353 . S
C989 C988 1.348 . S
C989 H1041 0.929 . S
H990 C984 0.930 . S
H991 C987 0.930 . S
C992 N993 1.314 . S
C992 C994 1.353 . S
C992 H998 0.930 . S
N993 Li969 1.990 . S
N993 C992 1.314 . S
N993 C996 1.279 . S
C994 C992 1.353 . S
C994 C997 1.348 . S
C994 H1042 0.929 . S
C995 C996 1.358 . S
C995 C997 1.356 . S
C995 H1043 0.930 . S
C996 N993 1.279 . S
C996 C995 1.358 . S
C996 H999 0.930 . S
C997 C994 1.348 . S
C997 C995 1.356 . S
H998 C992 0.930 . S
H999 C996 0.930 . S
C1000 C1002 1.348 . S
C1000 C1003 1.356 . S
C1000 O1030 1.325 . S
N1001 C1004 1.314 . S
N1001 C1005 1.279 . S
C1002 C1000 1.348 . S
C1002 C1004 1.353 . S
C1002 H1044 0.929 . S
C1003 C1000 1.356 . S
C1003 C1005 1.358 . S
C1003 H1045 0.930 . S
C1004 N1001 1.314 . S
C1004 C1002 1.353 . S
C1004 H1046 0.930 . S
C1005 N1001 1.279 . S
C1005 C1003 1.358 . S
C1005 H1047 0.930 . S
C1006 C1007 1.348 . S
C1006 C1008 1.356 . S
C1006 O1031 1.325 . S
C1007 C1006 1.348 . S
C1007 C1009 1.353 . S
C1007 H1048 0.929 . S
C1008 C1006 1.356 . S
C1008 C1010 1.358 . S
C1008 H1049 0.930 . S
C1009 C1007 1.353 . S
C1009 N1011 1.314 . S
C1009 H1050 0.930 . S
C1010 C1008 1.358 . S
C1010 N1011 1.279 . S
C1010 H1051 0.930 . S
N1011 C1009 1.314 . S
N1011 C1010 1.279 . S
C1012 C1014 1.353 . S
C1012 N1015 1.314 . S
C1012 H1018 0.930 . S
C1013 N1015 1.279 . S
C1013 C1016 1.358 . S
C1013 H1019 0.930 . S
C1014 C1012 1.353 . S
C1014 C1017 1.348 . S
C1014 H1052 0.929 . S
N1015 Li970 1.990 . S
N1015 C1012 1.314 . S
N1015 C1013 1.279 . S
C1016 C1013 1.358 . S
C1016 C1017 1.356 . S
C1016 H1053 0.930 . S
C1017 C1014 1.348 . S
C1017 C1016 1.356 . S
H1018 C1012 0.930 . S
H1019 C1013 0.930 . S
C1020 N1021 1.314 . S
C1020 C1022 1.353 . S
C1020 H1026 0.930 . S
N1021 Li971 1.990 . S
N1021 C1020 1.314 . S
N1021 C1024 1.279 . S
C1022 C1020 1.353 . S
C1022 C1025 1.348 . S
C1022 H1054 0.929 . S
C1023 C1024 1.358 . S
C1023 C1025 1.356 . S
C1023 H1055 0.930 . S
C1024 N1021 1.279 . S
C1024 C1023 1.358 . S
C1024 H1027 0.930 . S
C1025 C1022 1.348 . S
C1025 C1023 1.356 . S
H1026 C1020 0.930 . S
H1027 C1024 0.930 . S
O1028 Li968 1.956 . S
O1028 Li969 1.970 . S
O1028 Li970 1.961 . S
O1028 C972 1.325 . S
O1029 Li968 1.970 . S
O1029 Li969 1.956 . S
O1029 Li971 1.961 . S
O1029 C978 1.325 . S
O1030 Li968 1.961 . S
O1030 Li970 1.956 . S
O1030 Li971 1.970 . S
O1030 C1000 1.325 . S
O1031 Li969 1.961 . S
O1031 Li970 1.970 . S
O1031 Li971 1.956 . S
O1031 C1006 1.325 . S
H1032 C974 0.929 . S
H1033 C975 0.930 . S
H1034 C976 0.930 . S
H1035 C977 0.930 . S
H1036 C979 0.930 . S
H1037 C981 0.929 . S
H1038 C982 0.930 . S
H1039 C983 0.930 . S
H1040 C986 0.930 . S
H1041 C989 0.929 . S
H1042 C994 0.929 . S
H1043 C995 0.930 . S
H1044 C1002 0.929 . S
H1045 C1003 0.930 . S
H1046 C1004 0.930 . S
H1047 C1005 0.930 . S
H1048 C1007 0.929 . S
H1049 C1008 0.930 . S
H1050 C1009 0.930 . S
H1051 C1010 0.930 . S
H1052 C1014 0.929 . S
H1053 C1016 0.930 . S
H1054 C1022 0.929 . S
H1055 C1023 0.930 . S
Li1056 N1073 1.990 . S
Li1056 O1116 1.956 . S
Li1056 O1117 1.970 . S
Li1056 O1118 1.961 . S
Li1057 N1081 1.990 . S
Li1057 O1116 1.970 . S
Li1057 O1117 1.956 . S
Li1057 O1119 1.961 . S
Li1058 N1103 1.990 . S
Li1058 O1116 1.961 . S
Li1058 O1118 1.956 . S
Li1058 O1119 1.970 . S
Li1059 N1109 1.990 . S
Li1059 O1117 1.961 . S
Li1059 O1118 1.970 . S
Li1059 O1119 1.956 . S
C1060 C1062 1.348 . S
C1060 C1063 1.356 . S
C1060 O1116 1.325 . S
N1061 C1064 1.314 . S
N1061 C1065 1.279 . S
C1062 C1060 1.348 . S
C1062 C1064 1.353 . S
C1062 H1120 0.929 . S
C1063 C1060 1.356 . S
C1063 C1065 1.358 . S
C1063 H1121 0.930 . S
C1064 N1061 1.314 . S
C1064 C1062 1.353 . S
C1064 H1122 0.930 . S
C1065 N1061 1.279 . S
C1065 C1063 1.358 . S
C1065 H1123 0.930 . S
C1066 C1069 1.348 . S
C1066 C1070 1.356 . S
C1066 O1117 1.325 . S
C1067 N1068 1.279 . S
C1067 C1070 1.358 . S
C1067 H1124 0.930 . S
N1068 C1067 1.279 . S
N1068 C1071 1.314 . S
C1069 C1066 1.348 . S
C1069 C1071 1.353 . S
C1069 H1125 0.929 . S
C1070 C1066 1.356 . S
C1070 C1067 1.358 . S
C1070 H1126 0.930 . S
C1071 N1068 1.314 . S
C1071 C1069 1.353 . S
C1071 H1127 0.930 . S
C1072 N1073 1.314 . S
C1072 C1077 1.353 . S
C1072 H1078 0.930 . S
N1073 Li1056 1.990 . S
N1073 C1072 1.314 . S
N1073 C1075 1.279 . S
C1074 C1075 1.358 . S
C1074 C1076 1.356 . S
C1074 H1128 0.930 . S
C1075 N1073 1.279 . S
C1075 C1074 1.358 . S
C1075 H1079 0.930 . S
C1076 C1074 1.356 . S
C1076 C1077 1.348 . S
C1077 C1072 1.353 . S
C1077 C1076 1.348 . S
C1077 H1129 0.929 . S
H1078 C1072 0.930 . S
H1079 C1075 0.930 . S
C1080 N1081 1.314 . S
C1080 C1082 1.353 . S
C1080 H1086 0.930 . S
N1081 Li1057 1.990 . S
N1081 C1080 1.314 . S
N1081 C1084 1.279 . S
C1082 C1080 1.353 . S
C1082 C1085 1.348 . S
C1082 H1130 0.929 . S
C1083 C1084 1.358 . S
C1083 C1085 1.356 . S
C1083 H1131 0.930 . S
C1084 N1081 1.279 . S
C1084 C1083 1.358 . S
C1084 H1087 0.930 . S
C1085 C1082 1.348 . S
C1085 C1083 1.356 . S
H1086 C1080 0.930 . S
H1087 C1084 0.930 . S
C1088 C1090 1.348 . S
C1088 C1091 1.356 . S
C1088 O1118 1.325 . S
N1089 C1092 1.314 . S
N1089 C1093 1.279 . S
C1090 C1088 1.348 . S
C1090 C1092 1.353 . S
C1090 H1132 0.929 . S
C1091 C1088 1.356 . S
C1091 C1093 1.358 . S
C1091 H1133 0.930 . S
C1092 N1089 1.314 . S
C1092 C1090 1.353 . S
C1092 H1134 0.930 . S
C1093 N1089 1.279 . S
C1093 C1091 1.358 . S
C1093 H1135 0.930 . S
C1094 C1095 1.348 . S
C1094 C1096 1.356 . S
C1094 O1119 1.325 . S
C1095 C1094 1.348 . S
C1095 C1097 1.353 . S
C1095 H1136 0.929 . S
C1096 C1094 1.356 . S
C1096 C1098 1.358 . S
C1096 H1137 0.930 . S
C1097 C1095 1.353 . S
C1097 N1099 1.314 . S
C1097 H1138 0.930 . S
C1098 C1096 1.358 . S
C1098 N1099 1.279 . S
C1098 H1139 0.930 . S
N1099 C1097 1.314 . S
N1099 C1098 1.279 . S
C1100 C1102 1.353 . S
C1100 N1103 1.314 . S
C1100 H1106 0.930 . S
C1101 N1103 1.279 . S
C1101 C1104 1.358 . S
C1101 H1107 0.930 . S
C1102 C1100 1.353 . S
C1102 C1105 1.348 . S
C1102 H1140 0.929 . S
N1103 Li1058 1.990 . S
N1103 C1100 1.314 . S
N1103 C1101 1.279 . S
C1104 C1101 1.358 . S
C1104 C1105 1.356 . S
C1104 H1141 0.930 . S
C1105 C1102 1.348 . S
C1105 C1104 1.356 . S
H1106 C1100 0.930 . S
H1107 C1101 0.930 . S
C1108 N1109 1.314 . S
C1108 C1110 1.353 . S
C1108 H1114 0.930 . S
N1109 Li1059 1.990 . S
N1109 C1108 1.314 . S
N1109 C1112 1.279 . S
C1110 C1108 1.353 . S
C1110 C1113 1.348 . S
C1110 H1142 0.929 . S
C1111 C1112 1.358 . S
C1111 C1113 1.356 . S
C1111 H1143 0.930 . S
C1112 N1109 1.279 . S
C1112 C1111 1.358 . S
C1112 H1115 0.930 . S
C1113 C1110 1.348 . S
C1113 C1111 1.356 . S
H1114 C1108 0.930 . S
H1115 C1112 0.930 . S
O1116 Li1056 1.956 . S
O1116 Li1057 1.970 . S
O1116 Li1058 1.961 . S
O1116 C1060 1.325 . S
O1117 Li1056 1.970 . S
O1117 Li1057 1.956 . S
O1117 Li1059 1.961 . S
O1117 C1066 1.325 . S
O1118 Li1056 1.961 . S
O1118 Li1058 1.956 . S
O1118 Li1059 1.970 . S
O1118 C1088 1.325 . S
O1119 Li1057 1.961 . S
O1119 Li1058 1.970 . S
O1119 Li1059 1.956 . S
O1119 C1094 1.325 . S
H1120 C1062 0.929 . S
H1121 C1063 0.930 . S
H1122 C1064 0.930 . S
H1123 C1065 0.930 . S
H1124 C1067 0.930 . S
H1125 C1069 0.929 . S
H1126 C1070 0.930 . S
H1127 C1071 0.930 . S
H1128 C1074 0.930 . S
H1129 C1077 0.929 . S
H1130 C1082 0.929 . S
H1131 C1083 0.930 . S
H1132 C1090 0.929 . S
H1133 C1091 0.930 . S
H1134 C1092 0.930 . S
H1135 C1093 0.930 . S
H1136 C1095 0.929 . S
H1137 C1096 0.930 . S
H1138 C1097 0.930 . S
H1139 C1098 0.930 . S
H1140 C1102 0.929 . S
H1141 C1104 0.930 . S
H1142 C1110 0.929 . S
H1143 C1111 0.930 . S
Li1144 N1161 1.990 . S
Li1144 O1204 1.956 . S
Li1144 O1205 1.970 . S
Li1144 O1206 1.961 . S
Li1145 N1169 1.990 . S
Li1145 O1204 1.970 . S
Li1145 O1205 1.956 . S
Li1145 O1207 1.961 . S
Li1146 N1191 1.990 . S
Li1146 O1204 1.961 . S
Li1146 O1206 1.956 . S
Li1146 O1207 1.970 . S
Li1147 N1197 1.990 . S
Li1147 O1205 1.961 . S
Li1147 O1206 1.970 . S
Li1147 O1207 1.956 . S
C1148 C1150 1.348 . S
C1148 C1151 1.356 . S
C1148 O1204 1.325 . S
N1149 C1152 1.314 . S
N1149 C1153 1.279 . S
C1150 C1148 1.348 . S
C1150 C1152 1.353 . S
C1150 H1208 0.929 . S
C1151 C1148 1.356 . S
C1151 C1153 1.358 . S
C1151 H1209 0.930 . S
C1152 N1149 1.314 . S
C1152 C1150 1.353 . S
C1152 H1210 0.930 . S
C1153 N1149 1.279 . S
C1153 C1151 1.358 . S
C1153 H1211 0.930 . S
C1154 C1157 1.348 . S
C1154 C1158 1.356 . S
C1154 O1205 1.325 . S
C1155 N1156 1.279 . S
C1155 C1158 1.358 . S
C1155 H1212 0.930 . S
N1156 C1155 1.279 . S
N1156 C1159 1.314 . S
C1157 C1154 1.348 . S
C1157 C1159 1.353 . S
C1157 H1213 0.929 . S
C1158 C1154 1.356 . S
C1158 C1155 1.358 . S
C1158 H1214 0.930 . S
C1159 N1156 1.314 . S
C1159 C1157 1.353 . S
C1159 H1215 0.930 . S
C1160 N1161 1.314 . S
C1160 C1165 1.353 . S
C1160 H1166 0.930 . S
N1161 Li1144 1.990 . S
N1161 C1160 1.314 . S
N1161 C1163 1.279 . S
C1162 C1163 1.358 . S
C1162 C1164 1.356 . S
C1162 H1216 0.930 . S
C1163 N1161 1.279 . S
C1163 C1162 1.358 . S
C1163 H1167 0.930 . S
C1164 C1162 1.356 . S
C1164 C1165 1.348 . S
C1165 C1160 1.353 . S
C1165 C1164 1.348 . S
C1165 H1217 0.929 . S
H1166 C1160 0.930 . S
H1167 C1163 0.930 . S
C1168 N1169 1.314 . S
C1168 C1170 1.353 . S
C1168 H1174 0.930 . S
N1169 Li1145 1.990 . S
N1169 C1168 1.314 . S
N1169 C1172 1.279 . S
C1170 C1168 1.353 . S
C1170 C1173 1.348 . S
C1170 H1218 0.929 . S
C1171 C1172 1.358 . S
C1171 C1173 1.356 . S
C1171 H1219 0.930 . S
C1172 N1169 1.279 . S
C1172 C1171 1.358 . S
C1172 H1175 0.930 . S
C1173 C1170 1.348 . S
C1173 C1171 1.356 . S
H1174 C1168 0.930 . S
H1175 C1172 0.930 . S
C1176 C1178 1.348 . S
C1176 C1179 1.356 . S
C1176 O1206 1.325 . S
N1177 C1180 1.314 . S
N1177 C1181 1.279 . S
C1178 C1176 1.348 . S
C1178 C1180 1.353 . S
C1178 H1220 0.929 . S
C1179 C1176 1.356 . S
C1179 C1181 1.358 . S
C1179 H1221 0.930 . S
C1180 N1177 1.314 . S
C1180 C1178 1.353 . S
C1180 H1222 0.930 . S
C1181 N1177 1.279 . S
C1181 C1179 1.358 . S
C1181 H1223 0.930 . S
C1182 C1183 1.348 . S
C1182 C1184 1.356 . S
C1182 O1207 1.325 . S
C1183 C1182 1.348 . S
C1183 C1185 1.353 . S
C1183 H1224 0.929 . S
C1184 C1182 1.356 . S
C1184 C1186 1.358 . S
C1184 H1225 0.930 . S
C1185 C1183 1.353 . S
C1185 N1187 1.314 . S
C1185 H1226 0.930 . S
C1186 C1184 1.358 . S
C1186 N1187 1.279 . S
C1186 H1227 0.930 . S
N1187 C1185 1.314 . S
N1187 C1186 1.279 . S
C1188 C1190 1.353 . S
C1188 N1191 1.314 . S
C1188 H1194 0.930 . S
C1189 N1191 1.279 . S
C1189 C1192 1.358 . S
C1189 H1195 0.930 . S
C1190 C1188 1.353 . S
C1190 C1193 1.348 . S
C1190 H1228 0.929 . S
N1191 Li1146 1.990 . S
N1191 C1188 1.314 . S
N1191 C1189 1.279 . S
C1192 C1189 1.358 . S
C1192 C1193 1.356 . S
C1192 H1229 0.930 . S
C1193 C1190 1.348 . S
C1193 C1192 1.356 . S
H1194 C1188 0.930 . S
H1195 C1189 0.930 . S
C1196 N1197 1.314 . S
C1196 C1198 1.353 . S
C1196 H1202 0.930 . S
N1197 Li1147 1.990 . S
N1197 C1196 1.314 . S
N1197 C1200 1.279 . S
C1198 C1196 1.353 . S
C1198 C1201 1.348 . S
C1198 H1230 0.929 . S
C1199 C1200 1.358 . S
C1199 C1201 1.356 . S
C1199 H1231 0.930 . S
C1200 N1197 1.279 . S
C1200 C1199 1.358 . S
C1200 H1203 0.930 . S
C1201 C1198 1.348 . S
C1201 C1199 1.356 . S
H1202 C1196 0.930 . S
H1203 C1200 0.930 . S
O1204 Li1144 1.956 . S
O1204 Li1145 1.970 . S
O1204 Li1146 1.961 . S
O1204 C1148 1.325 . S
O1205 Li1144 1.970 . S
O1205 Li1145 1.956 . S
O1205 Li1147 1.961 . S
O1205 C1154 1.325 . S
O1206 Li1144 1.961 . S
O1206 Li1146 1.956 . S
O1206 Li1147 1.970 . S
O1206 C1176 1.325 . S
O1207 Li1145 1.961 . S
O1207 Li1146 1.970 . S
O1207 Li1147 1.956 . S
O1207 C1182 1.325 . S
H1208 C1150 0.929 . S
H1209 C1151 0.930 . S
H1210 C1152 0.930 . S
H1211 C1153 0.930 . S
H1212 C1155 0.930 . S
H1213 C1157 0.929 . S
H1214 C1158 0.930 . S
H1215 C1159 0.930 . S
H1216 C1162 0.930 . S
H1217 C1165 0.929 . S
H1218 C1170 0.929 . S
H1219 C1171 0.930 . S
H1220 C1178 0.929 . S
H1221 C1179 0.930 . S
H1222 C1180 0.930 . S
H1223 C1181 0.930 . S
H1224 C1183 0.929 . S
H1225 C1184 0.930 . S
H1226 C1185 0.930 . S
H1227 C1186 0.930 . S
H1228 C1190 0.929 . S
H1229 C1192 0.930 . S
H1230 C1198 0.929 . S
H1231 C1199 0.930 . S
Li1232 N1249 1.990 . S
Li1232 O1292 1.956 . S
Li1232 O1293 1.970 . S
Li1232 O1294 1.961 . S
Li1233 N1257 1.990 . S
Li1233 O1292 1.970 . S
Li1233 O1293 1.956 . S
Li1233 O1295 1.961 . S
Li1234 N1279 1.990 . S
Li1234 O1292 1.961 . S
Li1234 O1294 1.956 . S
Li1234 O1295 1.970 . S
Li1235 N1285 1.990 . S
Li1235 O1293 1.961 . S
Li1235 O1294 1.970 . S
Li1235 O1295 1.956 . S
C1236 C1238 1.348 . S
C1236 C1239 1.356 . S
C1236 O1292 1.325 . S
N1237 C1240 1.314 . S
N1237 C1241 1.279 . S
C1238 C1236 1.348 . S
C1238 C1240 1.353 . S
C1238 H1296 0.929 . S
C1239 C1236 1.356 . S
C1239 C1241 1.358 . S
C1239 H1297 0.930 . S
C1240 N1237 1.314 . S
C1240 C1238 1.353 . S
C1240 H1298 0.930 . S
C1241 N1237 1.279 . S
C1241 C1239 1.358 . S
C1241 H1299 0.930 . S
C1242 C1245 1.348 . S
C1242 C1246 1.356 . S
C1242 O1293 1.325 . S
C1243 N1244 1.279 . S
C1243 C1246 1.358 . S
C1243 H1300 0.930 . S
N1244 C1243 1.279 . S
N1244 C1247 1.314 . S
C1245 C1242 1.348 . S
C1245 C1247 1.353 . S
C1245 H1301 0.929 . S
C1246 C1242 1.356 . S
C1246 C1243 1.358 . S
C1246 H1302 0.930 . S
C1247 N1244 1.314 . S
C1247 C1245 1.353 . S
C1247 H1303 0.930 . S
C1248 N1249 1.314 . S
C1248 C1253 1.353 . S
C1248 H1254 0.930 . S
N1249 Li1232 1.990 . S
N1249 C1248 1.314 . S
N1249 C1251 1.279 . S
C1250 C1251 1.358 . S
C1250 C1252 1.356 . S
C1250 H1304 0.930 . S
C1251 N1249 1.279 . S
C1251 C1250 1.358 . S
C1251 H1255 0.930 . S
C1252 C1250 1.356 . S
C1252 C1253 1.348 . S
C1253 C1248 1.353 . S
C1253 C1252 1.348 . S
C1253 H1305 0.935 . S
H1254 C1248 0.930 . S
H1255 C1251 0.930 . S
C1256 N1257 1.314 . S
C1256 C1258 1.353 . S
C1256 H1262 0.930 . S
N1257 Li1233 1.990 . S
N1257 C1256 1.314 . S
N1257 C1260 1.279 . S
C1258 C1256 1.353 . S
C1258 C1261 1.348 . S
C1258 H1306 0.929 . S
C1259 C1260 1.358 . S
C1259 C1261 1.356 . S
C1259 H1307 0.930 . S
C1260 N1257 1.279 . S
C1260 C1259 1.358 . S
C1260 H1263 0.930 . S
C1261 C1258 1.348 . S
C1261 C1259 1.356 . S
H1262 C1256 0.930 . S
H1263 C1260 0.930 . S
C1264 C1266 1.348 . S
C1264 C1267 1.356 . S
C1264 O1294 1.325 . S
N1265 C1268 1.314 . S
N1265 C1269 1.279 . S
C1266 C1264 1.348 . S
C1266 C1268 1.353 . S
C1266 H1308 0.929 . S
C1267 C1264 1.356 . S
C1267 C1269 1.358 . S
C1267 H1309 0.930 . S
C1268 N1265 1.314 . S
C1268 C1266 1.353 . S
C1268 H1310 0.930 . S
C1269 N1265 1.279 . S
C1269 C1267 1.358 . S
C1269 H1311 0.930 1_655 S
C1270 C1271 1.348 . S
C1270 C1272 1.356 . S
C1270 O1295 1.325 . S
C1271 C1270 1.348 . S
C1271 C1273 1.353 . S
C1271 H1312 0.929 . S
C1272 C1270 1.356 . S
C1272 C1274 1.358 . S
C1272 H1313 0.930 . S
C1273 C1271 1.353 . S
C1273 N1275 1.314 . S
C1273 H1314 0.930 . S
C1274 C1272 1.358 . S
C1274 N1275 1.279 . S
C1274 H1315 0.930 . S
N1275 C1273 1.314 . S
N1275 C1274 1.279 . S
C1276 C1278 1.353 . S
C1276 N1279 1.314 . S
C1276 H1282 0.930 . S
C1277 N1279 1.279 . S
C1277 C1280 1.358 . S
C1277 H1283 0.930 . S
C1278 C1276 1.353 . S
C1278 C1281 1.348 . S
C1278 H1316 0.929 . S
N1279 Li1234 1.990 . S
N1279 C1276 1.314 . S
N1279 C1277 1.279 . S
C1280 C1277 1.358 . S
C1280 C1281 1.356 . S
C1280 H1317 0.930 . S
C1281 C1278 1.348 . S
C1281 C1280 1.356 . S
H1282 C1276 0.930 . S
H1283 C1277 0.930 . S
C1284 N1285 1.314 . S
C1284 C1286 1.353 . S
C1284 H1290 0.930 . S
N1285 Li1235 1.990 . S
N1285 C1284 1.314 . S
N1285 C1288 1.279 . S
C1286 C1284 1.353 . S
C1286 C1289 1.348 . S
C1286 H1318 0.929 . S
C1287 C1288 1.358 . S
C1287 C1289 1.356 . S
C1287 H1319 0.930 . S
C1288 N1285 1.279 . S
C1288 C1287 1.358 . S
C1288 H1291 0.930 . S
C1289 C1286 1.348 . S
C1289 C1287 1.356 . S
H1290 C1284 0.930 . S
H1291 C1288 0.930 . S
O1292 Li1232 1.956 . S
O1292 Li1233 1.970 . S
O1292 Li1234 1.961 . S
O1292 C1236 1.325 . S
O1293 Li1232 1.970 . S
O1293 Li1233 1.956 . S
O1293 Li1235 1.961 . S
O1293 C1242 1.325 . S
O1294 Li1232 1.961 . S
O1294 Li1234 1.956 . S
O1294 Li1235 1.970 . S
O1294 C1264 1.325 . S
O1295 Li1233 1.961 . S
O1295 Li1234 1.970 . S
O1295 Li1235 1.956 . S
O1295 C1270 1.325 . S
H1296 C1238 0.929 . S
H1297 C1239 0.930 . S
H1298 C1240 0.930 . S
H1299 C1241 0.930 . S
H1300 C1243 0.930 . S
H1301 C1245 0.929 . S
H1302 C1246 0.930 . S
H1303 C1247 0.930 . S
H1304 C1250 0.930 . S
H1305 C1253 0.935 . S
H1306 C1258 0.929 . S
H1307 C1259 0.930 . S
H1308 C1266 0.929 . S
H1309 C1267 0.930 . S
H1310 C1268 0.930 . S
H1311 C1269 0.930 1_455 S
H1312 C1271 0.929 . S
H1313 C1272 0.930 . S
H1314 C1273 0.930 . S
H1315 C1274 0.930 . S
H1316 C1278 0.929 . S
H1317 C1280 0.930 . S
H1318 C1286 0.929 . S
H1319 C1287 0.930 . S
Li1320 N1337 1.990 . S
Li1320 O1380 1.956 . S
Li1320 O1381 1.970 . S
Li1320 O1382 1.961 . S
Li1321 N1345 1.990 . S
Li1321 O1380 1.970 . S
Li1321 O1381 1.956 . S
Li1321 O1383 1.961 . S
Li1322 N1367 1.990 . S
Li1322 O1380 1.961 . S
Li1322 O1382 1.956 . S
Li1322 O1383 1.970 . S
Li1323 N1373 1.990 . S
Li1323 O1381 1.961 . S
Li1323 O1382 1.970 . S
Li1323 O1383 1.956 . S
C1324 C1326 1.348 . S
C1324 C1327 1.356 . S
C1324 O1380 1.325 . S
N1325 C1328 1.314 . S
N1325 C1329 1.279 . S
C1326 C1324 1.348 . S
C1326 C1328 1.353 . S
C1326 H1384 0.929 . S
C1327 C1324 1.356 . S
C1327 C1329 1.358 . S
C1327 H1385 0.930 . S
C1328 N1325 1.314 . S
C1328 C1326 1.353 . S
C1328 H1386 0.930 . S
C1329 N1325 1.279 . S
C1329 C1327 1.358 . S
C1329 H1387 0.930 . S
C1330 C1333 1.348 . S
C1330 C1334 1.356 . S
C1330 O1381 1.325 . S
C1331 N1332 1.279 . S
C1331 C1334 1.358 . S
C1331 H1388 0.930 . S
N1332 C1331 1.279 . S
N1332 C1335 1.314 . S
C1333 C1330 1.348 . S
C1333 C1335 1.353 . S
C1333 H1389 0.929 . S
C1334 C1330 1.356 . S
C1334 C1331 1.358 . S
C1334 H1390 0.930 . S
C1335 N1332 1.314 . S
C1335 C1333 1.353 . S
C1335 H1391 0.930 . S
C1336 N1337 1.314 . S
C1336 C1341 1.353 . S
C1336 H1342 0.930 . S
N1337 Li1320 1.990 . S
N1337 C1336 1.314 . S
N1337 C1339 1.279 . S
C1338 C1339 1.358 . S
C1338 C1340 1.356 . S
C1338 H1392 0.930 . S
C1339 N1337 1.279 . S
C1339 C1338 1.358 . S
C1339 H1343 0.930 . S
C1340 C1338 1.356 . S
C1340 C1341 1.348 . S
C1341 C1336 1.353 . S
C1341 C1340 1.348 . S
C1341 H1393 0.929 . S
H1342 C1336 0.930 . S
H1343 C1339 0.930 . S
C1344 N1345 1.314 . S
C1344 C1346 1.353 . S
C1344 H1350 0.930 . S
N1345 Li1321 1.990 . S
N1345 C1344 1.314 . S
N1345 C1348 1.279 . S
C1346 C1344 1.353 . S
C1346 C1349 1.348 . S
C1346 H1394 0.929 . S
C1347 C1348 1.358 . S
C1347 C1349 1.356 . S
C1347 H1395 0.930 . S
C1348 N1345 1.279 . S
C1348 C1347 1.358 . S
C1348 H1351 0.930 . S
C1349 C1346 1.348 . S
C1349 C1347 1.356 . S
H1350 C1344 0.930 . S
H1351 C1348 0.930 . S
C1352 C1354 1.348 . S
C1352 C1355 1.356 . S
C1352 O1382 1.325 . S
N1353 C1356 1.314 1_455 S
N1353 C1357 1.279 1_455 S
C1354 C1352 1.348 . S
C1354 C1356 1.353 . S
C1354 H1396 0.929 . S
C1355 C1352 1.356 . S
C1355 C1357 1.358 . S
C1355 H1397 0.930 . S
C1356 N1353 1.314 1_655 S
C1356 C1354 1.353 . S
C1356 H1398 0.930 . S
C1357 N1353 1.279 1_655 S
C1357 C1355 1.358 . S
C1357 H1399 0.930 1_655 S
C1358 C1359 1.348 . S
C1358 C1360 1.356 . S
C1358 O1383 1.325 . S
C1359 C1358 1.348 . S
C1359 C1361 1.353 . S
C1359 H1400 0.929 . S
C1360 C1358 1.356 . S
C1360 C1362 1.358 . S
C1360 H1401 0.930 . S
C1361 C1359 1.353 . S
C1361 N1363 1.314 . S
C1361 H1402 0.930 . S
C1362 C1360 1.358 . S
C1362 N1363 1.279 . S
C1362 H1403 0.930 . S
N1363 C1361 1.314 . S
N1363 C1362 1.279 . S
C1364 C1366 1.353 . S
C1364 N1367 1.314 . S
C1364 H1370 0.930 . S
C1365 N1367 1.279 . S
C1365 C1368 1.358 . S
C1365 H1371 0.930 . S
C1366 C1364 1.353 . S
C1366 C1369 1.348 . S
C1366 H1404 0.929 . S
N1367 Li1322 1.990 . S
N1367 C1364 1.314 . S
N1367 C1365 1.279 . S
C1368 C1365 1.358 . S
C1368 C1369 1.356 . S
C1368 H1405 0.930 1_655 S
C1369 C1366 1.348 . S
C1369 C1368 1.356 . S
H1370 C1364 0.930 . S
H1371 C1365 0.930 . S
C1372 N1373 1.314 . S
C1372 C1374 1.353 . S
C1372 H1378 0.930 . S
N1373 Li1323 1.990 . S
N1373 C1372 1.314 . S
N1373 C1376 1.279 . S
C1374 C1372 1.353 . S
C1374 C1377 1.348 . S
C1374 H1406 0.929 . S
C1375 C1376 1.358 . S
C1375 C1377 1.356 . S
C1375 H1407 0.930 . S
C1376 N1373 1.279 . S
C1376 C1375 1.358 . S
C1376 H1379 0.930 . S
C1377 C1374 1.348 . S
C1377 C1375 1.356 . S
H1378 C1372 0.930 . S
H1379 C1376 0.930 . S
O1380 Li1320 1.956 . S
O1380 Li1321 1.970 . S
O1380 Li1322 1.961 . S
O1380 C1324 1.325 . S
O1381 Li1320 1.970 . S
O1381 Li1321 1.956 . S
O1381 Li1323 1.961 . S
O1381 C1330 1.325 . S
O1382 Li1320 1.961 . S
O1382 Li1322 1.956 . S
O1382 Li1323 1.970 . S
O1382 C1352 1.325 . S
O1383 Li1321 1.961 . S
O1383 Li1322 1.970 . S
O1383 Li1323 1.956 . S
O1383 C1358 1.325 . S
H1384 C1326 0.929 . S
H1385 C1327 0.930 . S
H1386 C1328 0.930 . S
H1387 C1329 0.930 . S
H1388 C1331 0.930 . S
H1389 C1333 0.929 . S
H1390 C1334 0.930 . S
H1391 C1335 0.930 . S
H1392 C1338 0.930 . S
H1393 C1341 0.929 . S
H1394 C1346 0.929 . S
H1395 C1347 0.930 . S
H1396 C1354 0.929 . S
H1397 C1355 0.930 . S
H1398 C1356 0.930 . S
H1399 C1357 0.930 1_455 S
H1400 C1359 0.929 . S
H1401 C1360 0.930 . S
H1402 C1361 0.930 . S
H1403 C1362 0.930 . S
H1404 C1366 0.929 . S
H1405 C1368 0.930 1_455 S
H1406 C1374 0.929 . S
H1407 C1375 0.930 . S
Li1408 N1425 1.990 . S
Li1408 O1468 1.956 . S
Li1408 O1469 1.970 . S
Li1408 O1470 1.961 . S
Li1409 N1433 1.990 . S
Li1409 O1468 1.970 . S
Li1409 O1469 1.956 . S
Li1409 O1471 1.961 . S
Li1410 N1455 1.990 . S
Li1410 O1468 1.961 . S
Li1410 O1470 1.956 . S
Li1410 O1471 1.970 . S
Li1411 N1461 1.990 . S
Li1411 O1469 1.961 . S
Li1411 O1470 1.970 . S
Li1411 O1471 1.956 . S
C1412 C1414 1.348 . S
C1412 C1415 1.356 . S
C1412 O1468 1.325 . S
N1413 C1416 1.314 . S
N1413 C1417 1.279 . S
C1414 C1412 1.348 . S
C1414 C1416 1.353 . S
C1414 H1472 0.929 . S
C1415 C1412 1.356 . S
C1415 C1417 1.358 . S
C1415 H1473 0.930 . S
C1416 N1413 1.314 . S
C1416 C1414 1.353 . S
C1416 H1474 0.930 . S
C1417 N1413 1.279 . S
C1417 C1415 1.358 . S
C1417 H1475 0.930 . S
C1418 C1421 1.348 . S
C1418 C1422 1.356 . S
C1418 O1469 1.325 . S
C1419 N1420 1.279 . S
C1419 C1422 1.358 . S
C1419 H1476 0.930 . S
N1420 C1419 1.279 . S
N1420 C1423 1.314 . S
C1421 C1418 1.348 . S
C1421 C1423 1.353 . S
C1421 H1477 0.929 . S
C1422 C1418 1.356 . S
C1422 C1419 1.358 . S
C1422 H1478 0.930 . S
C1423 N1420 1.314 . S
C1423 C1421 1.353 . S
C1423 H1479 0.930 . S
C1424 N1425 1.314 . S
C1424 C1429 1.353 . S
C1424 H1430 0.930 . S
N1425 Li1408 1.990 . S
N1425 C1424 1.314 . S
N1425 C1427 1.279 . S
C1426 C1427 1.358 . S
C1426 C1428 1.356 . S
C1426 H1480 0.930 . S
C1427 N1425 1.279 . S
C1427 C1426 1.358 . S
C1427 H1431 0.930 . S
C1428 C1426 1.356 . S
C1428 C1429 1.348 . S
C1429 C1424 1.353 . S
C1429 C1428 1.348 . S
C1429 H1481 0.929 . S
H1430 C1424 0.930 . S
H1431 C1427 0.930 . S
C1432 N1433 1.314 . S
C1432 C1434 1.353 . S
C1432 H1438 0.930 . S
N1433 Li1409 1.990 . S
N1433 C1432 1.314 . S
N1433 C1436 1.279 . S
C1434 C1432 1.353 . S
C1434 C1437 1.348 . S
C1434 H1482 0.929 . S
C1435 C1436 1.358 . S
C1435 C1437 1.356 . S
C1435 H1483 0.930 . S
C1436 N1433 1.279 . S
C1436 C1435 1.358 . S
C1436 H1439 0.930 . S
C1437 C1434 1.348 . S
C1437 C1435 1.356 . S
H1438 C1432 0.930 . S
H1439 C1436 0.930 . S
C1440 C1442 1.348 . S
C1440 C1443 1.356 . S
C1440 O1470 1.325 . S
N1441 C1444 1.314 . S
N1441 C1445 1.279 . S
C1442 C1440 1.348 . S
C1442 C1444 1.353 . S
C1442 H1484 0.929 . S
C1443 C1440 1.356 . S
C1443 C1445 1.358 . S
C1443 H1485 0.930 . S
C1444 N1441 1.314 . S
C1444 C1442 1.353 . S
C1444 H1486 0.930 . S
C1445 N1441 1.279 . S
C1445 C1443 1.358 . S
C1445 H1487 0.930 . S
C1446 C1447 1.348 . S
C1446 C1448 1.356 . S
C1446 O1471 1.325 . S
C1447 C1446 1.348 . S
C1447 C1449 1.353 . S
C1447 H1488 0.929 . S
C1448 C1446 1.356 . S
C1448 C1450 1.358 . S
C1448 H1489 0.930 . S
C1449 C1447 1.353 . S
C1449 N1451 1.314 . S
C1449 H1490 0.930 . S
C1450 C1448 1.358 . S
C1450 N1451 1.279 . S
C1450 H1491 0.930 . S
N1451 C1449 1.314 . S
N1451 C1450 1.279 . S
C1452 C1454 1.353 . S
C1452 N1455 1.314 . S
C1452 H1458 0.930 . S
C1453 N1455 1.279 . S
C1453 C1456 1.358 . S
C1453 H1459 0.930 . S
C1454 C1452 1.353 . S
C1454 C1457 1.348 . S
C1454 H1492 0.929 . S
N1455 Li1410 1.990 . S
N1455 C1452 1.314 . S
N1455 C1453 1.279 . S
C1456 C1453 1.358 . S
C1456 C1457 1.356 . S
C1456 H1493 0.930 . S
C1457 C1454 1.348 . S
C1457 C1456 1.356 . S
H1458 C1452 0.930 . S
H1459 C1453 0.930 . S
C1460 N1461 1.314 . S
C1460 C1462 1.353 . S
C1460 H1466 0.930 . S
N1461 Li1411 1.990 . S
N1461 C1460 1.314 . S
N1461 C1464 1.279 . S
C1462 C1460 1.353 . S
C1462 C1465 1.348 . S
C1462 H1494 0.929 . S
C1463 C1464 1.358 . S
C1463 C1465 1.356 . S
C1463 H1495 0.930 . S
C1464 N1461 1.279 . S
C1464 C1463 1.358 . S
C1464 H1467 0.930 . S
C1465 C1462 1.348 . S
C1465 C1463 1.356 . S
H1466 C1460 0.930 . S
H1467 C1464 0.930 . S
O1468 Li1408 1.956 . S
O1468 Li1409 1.970 . S
O1468 Li1410 1.961 . S
O1468 C1412 1.325 . S
O1469 Li1408 1.970 . S
O1469 Li1409 1.956 . S
O1469 Li1411 1.961 . S
O1469 C1418 1.325 . S
O1470 Li1408 1.961 . S
O1470 Li1410 1.956 . S
O1470 Li1411 1.970 . S
O1470 C1440 1.325 . S
O1471 Li1409 1.961 . S
O1471 Li1410 1.970 . S
O1471 Li1411 1.956 . S
O1471 C1446 1.325 . S
H1472 C1414 0.929 . S
H1473 C1415 0.930 . S
H1474 C1416 0.930 . S
H1475 C1417 0.930 . S
H1476 C1419 0.930 . S
H1477 C1421 0.929 . S
H1478 C1422 0.930 . S
H1479 C1423 0.930 . S
H1480 C1426 0.930 . S
H1481 C1429 0.929 . S
H1482 C1434 0.929 . S
H1483 C1435 0.930 . S
H1484 C1442 0.929 . S
H1485 C1443 0.930 . S
H1486 C1444 0.930 . S
H1487 C1445 0.930 . S
H1488 C1447 0.929 . S
H1489 C1448 0.930 . S
H1490 C1449 0.930 . S
H1491 C1450 0.930 . S
H1492 C1454 0.929 . S
H1493 C1456 0.930 . S
H1494 C1462 0.929 . S
H1495 C1463 0.930 . S
Li1496 N1513 1.990 . S
Li1496 O1556 1.956 . S
Li1496 O1557 1.970 . S
Li1496 O1558 1.961 . S
Li1497 N1521 1.990 . S
Li1497 O1556 1.970 . S
Li1497 O1557 1.956 . S
Li1497 O1559 1.961 . S
Li1498 N1543 1.990 . S
Li1498 O1556 1.961 . S
Li1498 O1558 1.956 . S
Li1498 O1559 1.970 . S
Li1499 N1549 1.990 . S
Li1499 O1557 1.961 . S
Li1499 O1558 1.970 . S
Li1499 O1559 1.956 . S
C1500 C1502 1.348 . S
C1500 C1503 1.356 . S
C1500 O1556 1.325 . S
N1501 C1504 1.314 . S
N1501 C1505 1.279 . S
C1502 C1500 1.348 . S
C1502 C1504 1.353 . S
C1502 H1560 0.929 . S
C1503 C1500 1.356 . S
C1503 C1505 1.358 . S
C1503 H1561 0.930 . S
C1504 N1501 1.314 . S
C1504 C1502 1.353 . S
C1504 H1562 0.930 . S
C1505 N1501 1.279 . S
C1505 C1503 1.358 . S
C1505 H1563 0.930 . S
C1506 C1509 1.348 . S
C1506 C1510 1.356 . S
C1506 O1557 1.325 . S
C1507 N1508 1.279 . S
C1507 C1510 1.358 . S
C1507 H1564 0.930 . S
N1508 C1507 1.279 . S
N1508 C1511 1.314 . S
C1509 C1506 1.348 . S
C1509 C1511 1.353 . S
C1509 H1565 0.929 . S
C1510 C1506 1.356 . S
C1510 C1507 1.358 . S
C1510 H1566 0.930 . S
C1511 N1508 1.314 . S
C1511 C1509 1.353 . S
C1511 H1567 0.930 . S
C1512 N1513 1.314 . S
C1512 C1517 1.353 . S
C1512 H1518 0.930 . S
N1513 Li1496 1.990 . S
N1513 C1512 1.314 . S
N1513 C1515 1.279 . S
C1514 C1515 1.358 . S
C1514 C1516 1.356 . S
C1514 H1568 0.930 . S
C1515 N1513 1.279 . S
C1515 C1514 1.358 . S
C1515 H1519 0.930 . S
C1516 C1514 1.356 . S
C1516 C1517 1.348 . S
C1517 C1512 1.353 . S
C1517 C1516 1.348 . S
C1517 H1569 0.929 . S
H1518 C1512 0.930 . S
H1519 C1515 0.930 . S
C1520 N1521 1.314 . S
C1520 C1522 1.353 . S
C1520 H1526 0.930 . S
N1521 Li1497 1.990 . S
N1521 C1520 1.314 . S
N1521 C1524 1.279 . S
C1522 C1520 1.353 . S
C1522 C1525 1.348 . S
C1522 H1570 0.929 . S
C1523 C1524 1.358 . S
C1523 C1525 1.356 . S
C1523 H1571 0.930 . S
C1524 N1521 1.279 . S
C1524 C1523 1.358 . S
C1524 H1527 0.930 . S
C1525 C1522 1.348 . S
C1525 C1523 1.356 . S
H1526 C1520 0.930 . S
H1527 C1524 0.930 . S
C1528 C1530 1.348 . S
C1528 C1531 1.356 . S
C1528 O1558 1.325 . S
N1529 C1532 1.314 . S
N1529 C1533 1.279 . S
C1530 C1528 1.348 . S
C1530 C1532 1.353 . S
C1530 H1572 0.929 . S
C1531 C1528 1.356 . S
C1531 C1533 1.358 . S
C1531 H1573 0.930 . S
C1532 N1529 1.314 . S
C1532 C1530 1.353 . S
C1532 H1574 0.930 . S
C1533 N1529 1.279 . S
C1533 C1531 1.358 . S
C1533 H1575 0.930 . S
C1534 C1535 1.348 . S
C1534 C1536 1.356 . S
C1534 O1559 1.325 . S
C1535 C1534 1.348 . S
C1535 C1537 1.353 . S
C1535 H1576 0.929 . S
C1536 C1534 1.356 . S
C1536 C1538 1.358 . S
C1536 H1577 0.930 . S
C1537 C1535 1.353 . S
C1537 N1539 1.314 . S
C1537 H1578 0.930 . S
C1538 C1536 1.358 . S
C1538 N1539 1.279 . S
C1538 H1579 0.930 . S
N1539 C1537 1.314 . S
N1539 C1538 1.279 . S
C1540 C1542 1.353 . S
C1540 N1543 1.314 . S
C1540 H1546 0.930 . S
C1541 N1543 1.279 . S
C1541 C1544 1.358 . S
C1541 H1547 0.930 . S
C1542 C1540 1.353 . S
C1542 C1545 1.348 . S
C1542 H1580 0.929 . S
N1543 Li1498 1.990 . S
N1543 C1540 1.314 . S
N1543 C1541 1.279 . S
C1544 C1541 1.358 . S
C1544 C1545 1.356 . S
C1544 H1581 0.930 . S
C1545 C1542 1.348 . S
C1545 C1544 1.356 . S
H1546 C1540 0.930 . S
H1547 C1541 0.930 . S
C1548 N1549 1.314 . S
C1548 C1550 1.353 . S
C1548 H1554 0.930 . S
N1549 Li1499 1.990 . S
N1549 C1548 1.314 . S
N1549 C1552 1.279 . S
C1550 C1548 1.353 . S
C1550 C1553 1.348 . S
C1550 H1582 0.929 . S
C1551 C1552 1.358 . S
C1551 C1553 1.356 . S
C1551 H1583 0.930 . S
C1552 N1549 1.279 . S
C1552 C1551 1.358 . S
C1552 H1555 0.930 . S
C1553 C1550 1.348 . S
C1553 C1551 1.356 . S
H1554 C1548 0.930 . S
H1555 C1552 0.930 . S
O1556 Li1496 1.956 . S
O1556 Li1497 1.970 . S
O1556 Li1498 1.961 . S
O1556 C1500 1.325 . S
O1557 Li1496 1.970 . S
O1557 Li1497 1.956 . S
O1557 Li1499 1.961 . S
O1557 C1506 1.325 . S
O1558 Li1496 1.961 . S
O1558 Li1498 1.956 . S
O1558 Li1499 1.970 . S
O1558 C1528 1.325 . S
O1559 Li1497 1.961 . S
O1559 Li1498 1.970 . S
O1559 Li1499 1.956 . S
O1559 C1534 1.325 . S
H1560 C1502 0.929 . S
H1561 C1503 0.930 . S
H1562 C1504 0.930 . S
H1563 C1505 0.930 . S
H1564 C1507 0.930 . S
H1565 C1509 0.929 . S
H1566 C1510 0.930 . S
H1567 C1511 0.930 . S
H1568 C1514 0.930 . S
H1569 C1517 0.929 . S
H1570 C1522 0.929 . S
H1571 C1523 0.930 . S
H1572 C1530 0.929 . S
H1573 C1531 0.930 . S
H1574 C1532 0.930 . S
H1575 C1533 0.930 . S
H1576 C1535 0.929 . S
H1577 C1536 0.930 . S
H1578 C1537 0.930 . S
H1579 C1538 0.930 . S
H1580 C1542 0.929 . S
H1581 C1544 0.930 . S
H1582 C1550 0.929 . S
H1583 C1551 0.930 . S
Li1584 N1601 1.990 . S
Li1584 O1644 1.956 . S
Li1584 O1645 1.970 . S
Li1584 O1646 1.961 . S
Li1585 N1609 1.990 . S
Li1585 O1644 1.970 . S
Li1585 O1645 1.956 . S
Li1585 O1647 1.961 . S
Li1586 N1631 1.990 . S
Li1586 O1644 1.961 . S
Li1586 O1646 1.956 . S
Li1586 O1647 1.970 . S
Li1587 N1637 1.990 . S
Li1587 O1645 1.961 . S
Li1587 O1646 1.970 . S
Li1587 O1647 1.956 . S
C1588 C1590 1.348 . S
C1588 C1591 1.356 . S
C1588 O1644 1.325 . S
N1589 C1592 1.314 . S
N1589 C1593 1.279 . S
C1590 C1588 1.348 . S
C1590 C1592 1.353 . S
C1590 H1648 0.929 . S
C1591 C1588 1.356 . S
C1591 C1593 1.358 . S
C1591 H1649 0.930 . S
C1592 N1589 1.314 . S
C1592 C1590 1.353 . S
C1592 H1650 0.930 . S
C1593 N1589 1.279 . S
C1593 C1591 1.358 . S
C1593 H1651 0.930 . S
C1594 C1597 1.348 . S
C1594 C1598 1.356 . S
C1594 O1645 1.325 . S
C1595 N1596 1.279 . S
C1595 C1598 1.358 . S
C1595 H1652 0.930 . S
N1596 C1595 1.279 . S
N1596 C1599 1.314 . S
C1597 C1594 1.348 . S
C1597 C1599 1.353 . S
C1597 H1653 0.929 . S
C1598 C1594 1.356 . S
C1598 C1595 1.358 . S
C1598 H1654 0.930 . S
C1599 N1596 1.314 . S
C1599 C1597 1.353 . S
C1599 H1655 0.930 . S
C1600 N1601 1.314 . S
C1600 C1605 1.353 . S
C1600 H1606 0.930 . S
N1601 Li1584 1.990 . S
N1601 C1600 1.314 . S
N1601 C1603 1.279 . S
C1602 C1603 1.358 . S
C1602 C1604 1.356 . S
C1602 H1656 0.930 . S
C1603 N1601 1.279 . S
C1603 C1602 1.358 . S
C1603 H1607 0.930 . S
C1604 C1602 1.356 . S
C1604 C1605 1.348 . S
C1605 C1600 1.353 . S
C1605 C1604 1.348 . S
C1605 H1657 0.929 . S
H1606 C1600 0.930 . S
H1607 C1603 0.930 . S
C1608 N1609 1.314 . S
C1608 C1610 1.353 . S
C1608 H1614 0.930 . S
N1609 Li1585 1.990 . S
N1609 C1608 1.314 . S
N1609 C1612 1.279 . S
C1610 C1608 1.353 . S
C1610 C1613 1.348 . S
C1610 H1658 0.929 . S
C1611 C1612 1.358 . S
C1611 C1613 1.356 . S
C1611 H1659 0.930 . S
C1612 N1609 1.279 . S
C1612 C1611 1.358 . S
C1612 H1615 0.930 . S
C1613 C1610 1.348 . S
C1613 C1611 1.356 . S
H1614 C1608 0.930 . S
H1615 C1612 0.930 . S
C1616 C1618 1.348 . S
C1616 C1619 1.356 . S
C1616 O1646 1.325 . S
N1617 C1620 1.314 . S
N1617 C1621 1.279 . S
C1618 C1616 1.348 . S
C1618 C1620 1.353 . S
C1618 H1660 0.929 . S
C1619 C1616 1.356 . S
C1619 C1621 1.358 . S
C1619 H1661 0.930 . S
C1620 N1617 1.314 . S
C1620 C1618 1.353 . S
C1620 H1662 0.930 . S
C1621 N1617 1.279 . S
C1621 C1619 1.358 . S
C1621 H1663 0.930 . S
C1622 C1623 1.348 . S
C1622 C1624 1.356 . S
C1622 O1647 1.325 . S
C1623 C1622 1.348 . S
C1623 C1625 1.353 . S
C1623 H1664 0.929 . S
C1624 C1622 1.356 . S
C1624 C1626 1.358 . S
C1624 H1665 0.930 . S
C1625 C1623 1.353 . S
C1625 N1627 1.314 . S
C1625 H1666 0.930 . S
C1626 C1624 1.358 . S
C1626 N1627 1.279 . S
C1626 H1667 0.930 . S
N1627 C1625 1.314 . S
N1627 C1626 1.279 . S
C1628 C1630 1.353 . S
C1628 N1631 1.314 . S
C1628 H1634 0.930 . S
C1629 N1631 1.279 . S
C1629 C1632 1.358 . S
C1629 H1635 0.930 . S
C1630 C1628 1.353 . S
C1630 C1633 1.348 . S
C1630 H1668 0.929 . S
N1631 Li1586 1.990 . S
N1631 C1628 1.314 . S
N1631 C1629 1.279 . S
C1632 C1629 1.358 . S
C1632 C1633 1.356 . S
C1632 H1669 0.930 . S
C1633 C1630 1.348 . S
C1633 C1632 1.356 . S
H1634 C1628 0.930 . S
H1635 C1629 0.930 . S
C1636 N1637 1.314 . S
C1636 C1638 1.353 . S
C1636 H1642 0.930 . S
N1637 Li1587 1.990 . S
N1637 C1636 1.314 . S
N1637 C1640 1.279 . S
C1638 C1636 1.353 . S
C1638 C1641 1.348 . S
C1638 H1670 0.929 . S
C1639 C1640 1.358 . S
C1639 C1641 1.356 . S
C1639 H1671 0.930 . S
C1640 N1637 1.279 . S
C1640 C1639 1.358 . S
C1640 H1643 0.930 . S
C1641 C1638 1.348 . S
C1641 C1639 1.356 . S
H1642 C1636 0.930 . S
H1643 C1640 0.930 . S
O1644 Li1584 1.956 . S
O1644 Li1585 1.970 . S
O1644 Li1586 1.961 . S
O1644 C1588 1.325 . S
O1645 Li1584 1.970 . S
O1645 Li1585 1.956 . S
O1645 Li1587 1.961 . S
O1645 C1594 1.325 . S
O1646 Li1584 1.961 . S
O1646 Li1586 1.956 . S
O1646 Li1587 1.970 . S
O1646 C1616 1.325 . S
O1647 Li1585 1.961 . S
O1647 Li1586 1.970 . S
O1647 Li1587 1.956 . S
O1647 C1622 1.325 . S
H1648 C1590 0.929 . S
H1649 C1591 0.930 . S
H1650 C1592 0.930 . S
H1651 C1593 0.930 . S
H1652 C1595 0.930 . S
H1653 C1597 0.929 . S
H1654 C1598 0.930 . S
H1655 C1599 0.930 . S
H1656 C1602 0.930 . S
H1657 C1605 0.929 . S
H1658 C1610 0.929 . S
H1659 C1611 0.930 . S
H1660 C1618 0.929 . S
H1661 C1619 0.930 . S
H1662 C1620 0.930 . S
H1663 C1621 0.930 . S
H1664 C1623 0.929 . S
H1665 C1624 0.930 . S
H1666 C1625 0.930 . S
H1667 C1626 0.930 . S
H1668 C1630 0.929 . S
H1669 C1632 0.930 . S
H1670 C1638 0.929 . S
H1671 C1639 0.930 . S
Li1672 N1689 1.990 . S
Li1672 O1732 1.956 . S
Li1672 O1733 1.970 . S
Li1672 O1734 1.961 . S
Li1673 N1697 1.990 . S
Li1673 O1732 1.970 . S
Li1673 O1733 1.956 . S
Li1673 O1735 1.961 . S
Li1674 N1719 1.990 . S
Li1674 O1732 1.961 . S
Li1674 O1734 1.956 . S
Li1674 O1735 1.970 . S
Li1675 N1725 1.990 . S
Li1675 O1733 1.961 . S
Li1675 O1734 1.970 . S
Li1675 O1735 1.956 . S
C1676 C1678 1.348 . S
C1676 C1679 1.356 . S
C1676 O1732 1.325 . S
N1677 C1680 1.314 1_455 S
N1677 C1681 1.319 . S
C1678 C1676 1.348 . S
C1678 C1680 1.353 . S
C1678 H1736 0.929 . S
C1679 C1676 1.356 . S
C1679 C1681 1.305 1_655 S
C1679 H1737 0.930 . S
C1680 N1677 1.314 1_655 S
C1680 C1678 1.353 . S
C1680 H1738 0.930 . S
C1681 N1677 1.319 . S
C1681 C1679 1.305 1_455 S
C1681 H1739 0.948 . S
C1682 C1685 1.348 . S
C1682 C1686 1.356 . S
C1682 O1733 1.325 . S
C1683 N1684 1.279 . S
C1683 C1686 1.358 . S
C1683 H1740 0.930 . S
N1684 C1683 1.279 . S
N1684 C1687 1.314 . S
C1685 C1682 1.348 . S
C1685 C1687 1.353 . S
C1685 H1741 0.929 . S
C1686 C1682 1.356 . S
C1686 C1683 1.358 . S
C1686 H1742 0.930 . S
C1687 N1684 1.314 . S
C1687 C1685 1.353 . S
C1687 H1743 0.930 . S
C1688 N1689 1.314 . S
C1688 C1693 1.353 . S
C1688 H1694 0.930 . S
N1689 Li1672 1.990 . S
N1689 C1688 1.314 . S
N1689 C1691 1.279 . S
C1690 C1691 1.358 . S
C1690 C1692 1.356 . S
C1690 H1744 0.930 . S
C1691 N1689 1.279 . S
C1691 C1690 1.358 . S
C1691 H1695 0.930 . S
C1692 C1690 1.356 . S
C1692 C1693 1.348 . S
C1693 C1688 1.353 . S
C1693 C1692 1.348 . S
C1693 H1745 0.929 . S
H1694 C1688 0.930 . S
H1695 C1691 0.930 . S
C1696 N1697 1.314 . S
C1696 C1698 1.353 . S
C1696 H1702 0.930 . S
N1697 Li1673 1.990 . S
N1697 C1696 1.314 . S
N1697 C1700 1.279 . S
C1698 C1696 1.353 . S
C1698 C1701 1.348 . S
C1698 H1746 0.929 . S
C1699 C1700 1.358 . S
C1699 C1701 1.356 . S
C1699 H1747 0.930 . S
C1700 N1697 1.279 . S
C1700 C1699 1.358 . S
C1700 H1703 0.930 . S
C1701 C1698 1.348 . S
C1701 C1699 1.356 . S
H1702 C1696 0.930 . S
H1703 C1700 0.930 . S
C1704 C1706 1.348 . S
C1704 C1707 1.356 . S
C1704 O1734 1.325 . S
N1705 C1708 1.314 . S
N1705 C1709 1.279 . S
C1706 C1704 1.348 . S
C1706 C1708 1.353 . S
C1706 H1748 0.929 . S
C1707 C1704 1.356 . S
C1707 C1709 1.358 . S
C1707 H1749 0.930 . S
C1708 N1705 1.314 . S
C1708 C1706 1.353 . S
C1708 H1750 0.930 . S
C1709 N1705 1.279 . S
C1709 C1707 1.358 . S
C1709 H1751 0.930 . S
C1710 C1711 1.348 . S
C1710 C1712 1.356 . S
C1710 O1735 1.325 . S
C1711 C1710 1.348 . S
C1711 C1713 1.353 . S
C1711 H1752 0.929 . S
C1712 C1710 1.356 . S
C1712 C1714 1.358 . S
C1712 H1753 0.930 . S
C1713 C1711 1.353 . S
C1713 N1715 1.314 . S
C1713 H1754 0.930 . S
C1714 C1712 1.358 . S
C1714 N1715 1.279 . S
C1714 H1755 0.930 . S
N1715 C1713 1.314 . S
N1715 C1714 1.279 . S
C1716 C1718 1.353 . S
C1716 N1719 1.314 . S
C1716 H1722 0.930 . S
C1717 N1719 1.279 . S
C1717 C1720 1.358 . S
C1717 H1723 0.930 . S
C1718 C1716 1.353 . S
C1718 C1721 1.348 . S
C1718 H1756 0.929 . S
N1719 Li1674 1.990 . S
N1719 C1716 1.314 . S
N1719 C1717 1.279 . S
C1720 C1717 1.358 . S
C1720 C1721 1.356 . S
C1720 H1757 0.930 . S
C1721 C1718 1.348 . S
C1721 C1720 1.356 . S
H1722 C1716 0.930 . S
H1723 C1717 0.930 . S
C1724 N1725 1.314 . S
C1724 C1726 1.353 . S
C1724 H1730 0.930 . S
N1725 Li1675 1.990 . S
N1725 C1724 1.314 . S
N1725 C1728 1.279 . S
C1726 C1724 1.353 . S
C1726 C1729 1.348 . S
C1726 H1758 0.929 . S
C1727 C1728 1.358 . S
C1727 C1729 1.356 . S
C1727 H1759 0.930 . S
C1728 N1725 1.279 . S
C1728 C1727 1.358 . S
C1728 H1731 0.930 . S
C1729 C1726 1.348 . S
C1729 C1727 1.356 . S
H1730 C1724 0.930 . S
H1731 C1728 0.930 . S
O1732 Li1672 1.956 . S
O1732 Li1673 1.970 . S
O1732 Li1674 1.961 . S
O1732 C1676 1.325 . S
O1733 Li1672 1.970 . S
O1733 Li1673 1.956 . S
O1733 Li1675 1.961 . S
O1733 C1682 1.325 . S
O1734 Li1672 1.961 . S
O1734 Li1674 1.956 . S
O1734 Li1675 1.970 . S
O1734 C1704 1.325 . S
O1735 Li1673 1.961 . S
O1735 Li1674 1.970 . S
O1735 Li1675 1.956 . S
O1735 C1710 1.325 . S
H1736 C1678 0.929 . S
H1737 C1679 0.930 . S
H1738 C1680 0.930 . S
H1739 C1681 0.948 . S
H1740 C1683 0.930 . S
H1741 C1685 0.929 . S
H1742 C1686 0.930 . S
H1743 C1687 0.930 . S
H1744 C1690 0.930 . S
H1745 C1693 0.929 . S
H1746 C1698 0.929 . S
H1747 C1699 0.930 . S
H1748 C1706 0.929 . S
H1749 C1707 0.930 . S
H1750 C1708 0.930 . S
H1751 C1709 0.930 . S
H1752 C1711 0.929 . S
H1753 C1712 0.930 . S
H1754 C1713 0.930 . S
H1755 C1714 0.930 . S
H1756 C1718 0.929 . S
H1757 C1720 0.930 . S
H1758 C1726 0.929 . S
H1759 C1727 0.930 . S
Li1760 N1777 1.990 . S
Li1760 O1820 1.956 . S
Li1760 O1821 1.970 . S
Li1760 O1822 1.961 . S
Li1761 N1785 1.990 . S
Li1761 O1820 1.970 . S
Li1761 O1821 1.956 . S
Li1761 O1823 1.961 . S
Li1762 N1807 1.990 . S
Li1762 O1820 1.961 . S
Li1762 O1822 1.956 . S
Li1762 O1823 1.970 . S
Li1763 N1813 1.990 . S
Li1763 O1821 1.961 . S
Li1763 O1822 1.970 . S
Li1763 O1823 1.956 . S
C1764 C1766 1.348 . S
C1764 C1767 1.356 . S
C1764 O1820 1.325 . S
N1765 C1768 1.314 . S
N1765 C1769 1.279 . S
C1766 C1764 1.348 . S
C1766 C1768 1.353 . S
C1766 H1824 0.929 . S
C1767 C1764 1.356 . S
C1767 C1769 1.358 . S
C1767 H1825 0.930 . S
C1768 N1765 1.314 . S
C1768 C1766 1.353 . S
C1768 H1826 0.930 . S
C1769 N1765 1.279 . S
C1769 C1767 1.358 . S
C1769 H1827 0.930 . S
C1770 C1773 1.348 . S
C1770 C1774 1.356 . S
C1770 O1821 1.325 . S
C1771 N1772 1.279 . S
C1771 C1774 1.358 . S
C1771 H1828 0.930 . S
N1772 C1771 1.279 . S
N1772 C1775 1.314 . S
C1773 C1770 1.348 . S
C1773 C1775 1.353 . S
C1773 H1829 0.929 . S
C1774 C1770 1.356 . S
C1774 C1771 1.358 . S
C1774 H1830 0.930 . S
C1775 N1772 1.314 . S
C1775 C1773 1.353 . S
C1775 H1831 0.930 . S
C1776 N1777 1.314 . S
C1776 C1781 1.353 . S
C1776 H1782 0.930 . S
N1777 Li1760 1.990 . S
N1777 C1776 1.314 . S
N1777 C1779 1.279 . S
C1778 C1779 1.358 . S
C1778 C1780 1.356 . S
C1778 H1832 0.930 . S
C1779 N1777 1.279 . S
C1779 C1778 1.358 . S
C1779 H1783 0.930 . S
C1780 C1778 1.356 . S
C1780 C1781 1.348 . S
C1781 C1776 1.353 . S
C1781 C1780 1.348 . S
C1781 H1833 0.929 . S
H1782 C1776 0.930 . S
H1783 C1779 0.930 . S
C1784 N1785 1.314 . S
C1784 C1786 1.353 . S
C1784 H1790 0.930 . S
N1785 Li1761 1.990 . S
N1785 C1784 1.314 . S
N1785 C1788 1.279 . S
C1786 C1784 1.353 . S
C1786 C1789 1.348 . S
C1786 H1834 0.929 . S
C1787 C1788 1.358 . S
C1787 C1789 1.356 . S
C1787 H1835 0.930 . S
C1788 N1785 1.279 . S
C1788 C1787 1.358 . S
C1788 H1791 0.930 . S
C1789 C1786 1.348 . S
C1789 C1787 1.356 . S
H1790 C1784 0.930 . S
H1791 C1788 0.930 . S
C1792 C1794 1.348 . S
C1792 C1795 1.356 . S
C1792 O1822 1.325 . S
N1793 C1796 1.314 . S
N1793 C1797 1.279 . S
C1794 C1792 1.348 . S
C1794 C1796 1.353 . S
C1794 H1836 0.929 . S
C1795 C1792 1.356 . S
C1795 C1797 1.358 . S
C1795 H1837 0.930 . S
C1796 N1793 1.314 . S
C1796 C1794 1.353 . S
C1796 H1838 0.930 . S
C1797 N1793 1.279 . S
C1797 C1795 1.358 . S
C1797 H1839 0.930 . S
C1798 C1799 1.348 . S
C1798 C1800 1.356 . S
C1798 O1823 1.325 . S
C1799 C1798 1.348 . S
C1799 C1801 1.353 . S
C1799 H1840 0.929 . S
C1800 C1798 1.356 . S
C1800 C1802 1.358 . S
C1800 H1841 0.930 . S
C1801 C1799 1.353 . S
C1801 N1803 1.314 . S
C1801 H1842 0.930 . S
C1802 C1800 1.358 . S
C1802 N1803 1.279 . S
C1802 H1843 0.930 . S
N1803 C1801 1.314 . S
N1803 C1802 1.279 . S
C1804 C1806 1.353 . S
C1804 N1807 1.314 . S
C1804 H1810 0.930 . S
C1805 N1807 1.279 . S
C1805 C1808 1.358 . S
C1805 H1811 0.930 . S
C1806 C1804 1.353 . S
C1806 C1809 1.348 . S
C1806 H1844 0.929 . S
N1807 Li1762 1.990 . S
N1807 C1804 1.314 . S
N1807 C1805 1.279 . S
C1808 C1805 1.358 . S
C1808 C1809 1.356 . S
C1808 H1845 0.930 . S
C1809 C1806 1.348 . S
C1809 C1808 1.356 . S
H1810 C1804 0.930 . S
H1811 C1805 0.930 . S
C1812 N1813 1.314 . S
C1812 C1814 1.353 . S
C1812 H1818 0.930 . S
N1813 Li1763 1.990 . S
N1813 C1812 1.314 . S
N1813 C1816 1.279 . S
C1814 C1812 1.353 . S
C1814 C1817 1.348 . S
C1814 H1846 0.929 . S
C1815 C1816 1.358 . S
C1815 C1817 1.356 . S
C1815 H1847 0.930 . S
C1816 N1813 1.279 . S
C1816 C1815 1.358 . S
C1816 H1819 0.930 . S
C1817 C1814 1.348 . S
C1817 C1815 1.356 . S
H1818 C1812 0.930 . S
H1819 C1816 0.930 . S
O1820 Li1760 1.956 . S
O1820 Li1761 1.970 . S
O1820 Li1762 1.961 . S
O1820 C1764 1.325 . S
O1821 Li1760 1.970 . S
O1821 Li1761 1.956 . S
O1821 Li1763 1.961 . S
O1821 C1770 1.325 . S
O1822 Li1760 1.961 . S
O1822 Li1762 1.956 . S
O1822 Li1763 1.970 . S
O1822 C1792 1.325 . S
O1823 Li1761 1.961 . S
O1823 Li1762 1.970 . S
O1823 Li1763 1.956 . S
O1823 C1798 1.325 . S
H1824 C1766 0.929 . S
H1825 C1767 0.930 . S
H1826 C1768 0.930 . S
H1827 C1769 0.930 . S
H1828 C1771 0.930 . S
H1829 C1773 0.929 . S
H1830 C1774 0.930 . S
H1831 C1775 0.930 . S
H1832 C1778 0.930 . S
H1833 C1781 0.929 . S
H1834 C1786 0.929 . S
H1835 C1787 0.930 . S
H1836 C1794 0.929 . S
H1837 C1795 0.930 . S
H1838 C1796 0.930 . S
H1839 C1797 0.930 . S
H1840 C1799 0.929 . S
H1841 C1800 0.930 . S
H1842 C1801 0.930 . S
H1843 C1802 0.930 . S
H1844 C1806 0.929 . S
H1845 C1808 0.930 . S
H1846 C1814 0.929 . S
H1847 C1815 0.930 . S
Li1848 N1865 1.990 . S
Li1848 O1908 1.956 . S
Li1848 O1909 1.970 . S
Li1848 O1910 1.961 . S
Li1849 N1873 1.990 . S
Li1849 O1908 1.970 . S
Li1849 O1909 1.956 . S
Li1849 O1911 1.961 . S
Li1850 N1895 1.990 . S
Li1850 O1908 1.961 . S
Li1850 O1910 1.956 . S
Li1850 O1911 1.970 . S
Li1851 N1901 1.990 . S
Li1851 O1909 1.961 . S
Li1851 O1910 1.970 . S
Li1851 O1911 1.956 . S
C1852 C1854 1.348 . S
C1852 C1855 1.356 . S
C1852 O1908 1.325 . S
N1853 C1856 1.314 . S
N1853 C1857 1.279 . S
C1854 C1852 1.348 . S
C1854 C1856 1.353 . S
C1854 H1912 0.929 . S
C1855 C1852 1.356 . S
C1855 C1857 1.358 . S
C1855 H1913 0.930 . S
C1856 N1853 1.314 . S
C1856 C1854 1.353 . S
C1856 H1914 0.930 . S
C1857 N1853 1.279 . S
C1857 C1855 1.358 . S
C1857 H1915 0.930 . S
C1858 C1861 1.348 . S
C1858 C1862 1.356 . S
C1858 O1909 1.325 . S
C1859 N1860 1.279 . S
C1859 C1862 1.358 . S
C1859 H1916 0.930 . S
N1860 C1859 1.279 . S
N1860 C1863 1.314 . S
C1861 C1858 1.348 . S
C1861 C1863 1.353 . S
C1861 H1917 0.929 . S
C1862 C1858 1.356 . S
C1862 C1859 1.358 . S
C1862 H1918 0.930 . S
C1863 N1860 1.314 . S
C1863 C1861 1.353 . S
C1863 H1919 0.930 . S
C1864 N1865 1.314 . S
C1864 C1869 1.353 . S
C1864 H1870 0.930 . S
N1865 Li1848 1.990 . S
N1865 C1864 1.314 . S
N1865 C1867 1.279 . S
C1866 C1867 1.358 . S
C1866 C1868 1.356 . S
C1866 H1920 0.930 . S
C1867 N1865 1.279 . S
C1867 C1866 1.358 . S
C1867 H1871 0.930 . S
C1868 C1866 1.356 . S
C1868 C1869 1.348 . S
C1869 C1864 1.353 . S
C1869 C1868 1.348 . S
C1869 H1921 0.929 . S
H1870 C1864 0.930 . S
H1871 C1867 0.930 . S
C1872 N1873 1.314 . S
C1872 C1874 1.353 . S
C1872 H1878 0.930 . S
N1873 Li1849 1.990 . S
N1873 C1872 1.314 . S
N1873 C1876 1.279 . S
C1874 C1872 1.353 . S
C1874 C1877 1.348 . S
C1874 H1922 0.929 . S
C1875 C1876 1.358 . S
C1875 C1877 1.356 . S
C1875 H1923 0.930 . S
C1876 N1873 1.279 . S
C1876 C1875 1.358 . S
C1876 H1879 0.930 . S
C1877 C1874 1.348 . S
C1877 C1875 1.356 . S
H1878 C1872 0.930 . S
H1879 C1876 0.930 . S
C1880 C1882 1.348 . S
C1880 C1883 1.356 . S
C1880 O1910 1.325 . S
N1881 C1884 1.314 . S
N1881 C1885 1.279 . S
C1882 C1880 1.348 . S
C1882 C1884 1.353 . S
C1882 H1924 0.929 . S
C1883 C1880 1.356 . S
C1883 C1885 1.358 . S
C1883 H1925 0.930 . S
C1884 N1881 1.314 . S
C1884 C1882 1.353 . S
C1884 H1926 0.930 . S
C1885 N1881 1.279 . S
C1885 C1883 1.358 . S
C1885 H1927 0.930 . S
C1886 C1887 1.348 . S
C1886 C1888 1.356 . S
C1886 O1911 1.325 . S
C1887 C1886 1.348 . S
C1887 C1889 1.353 . S
C1887 H1928 0.929 . S
C1888 C1886 1.356 . S
C1888 C1890 1.358 . S
C1888 H1929 0.930 . S
C1889 C1887 1.353 . S
C1889 N1891 1.314 . S
C1889 H1930 0.930 . S
C1890 C1888 1.358 . S
C1890 N1891 1.279 . S
C1890 H1931 0.930 . S
N1891 C1889 1.314 . S
N1891 C1890 1.279 . S
C1892 C1894 1.353 . S
C1892 N1895 1.314 . S
C1892 H1898 0.930 . S
C1893 N1895 1.279 . S
C1893 C1896 1.358 . S
C1893 H1899 0.930 . S
C1894 C1892 1.353 . S
C1894 C1897 1.348 . S
C1894 H1932 0.929 . S
N1895 Li1850 1.990 . S
N1895 C1892 1.314 . S
N1895 C1893 1.279 . S
C1896 C1893 1.358 . S
C1896 C1897 1.356 . S
C1896 H1933 0.930 . S
C1897 C1894 1.348 . S
C1897 C1896 1.356 . S
H1898 C1892 0.930 . S
H1899 C1893 0.930 . S
C1900 N1901 1.314 . S
C1900 C1902 1.353 . S
C1900 H1906 0.930 . S
N1901 Li1851 1.990 . S
N1901 C1900 1.314 . S
N1901 C1904 1.279 . S
C1902 C1900 1.353 . S
C1902 C1905 1.348 . S
C1902 H1934 0.929 . S
C1903 C1904 1.358 . S
C1903 C1905 1.356 . S
C1903 H1935 0.930 . S
C1904 N1901 1.279 . S
C1904 C1903 1.358 . S
C1904 H1907 0.930 . S
C1905 C1902 1.348 . S
C1905 C1903 1.356 . S
H1906 C1900 0.930 . S
H1907 C1904 0.930 . S
O1908 Li1848 1.956 . S
O1908 Li1849 1.970 . S
O1908 Li1850 1.961 . S
O1908 C1852 1.325 . S
O1909 Li1848 1.970 . S
O1909 Li1849 1.956 . S
O1909 Li1851 1.961 . S
O1909 C1858 1.325 . S
O1910 Li1848 1.961 . S
O1910 Li1850 1.956 . S
O1910 Li1851 1.970 . S
O1910 C1880 1.325 . S
O1911 Li1849 1.961 . S
O1911 Li1850 1.970 . S
O1911 Li1851 1.956 . S
O1911 C1886 1.325 . S
H1912 C1854 0.929 . S
H1913 C1855 0.930 . S
H1914 C1856 0.930 . S
H1915 C1857 0.930 . S
H1916 C1859 0.930 . S
H1917 C1861 0.929 . S
H1918 C1862 0.930 . S
H1919 C1863 0.930 . S
H1920 C1866 0.930 . S
H1921 C1869 0.929 . S
H1922 C1874 0.929 . S
H1923 C1875 0.930 . S
H1924 C1882 0.929 . S
H1925 C1883 0.930 . S
H1926 C1884 0.930 . S
H1927 C1885 0.930 . S
H1928 C1887 0.929 . S
H1929 C1888 0.930 . S
H1930 C1889 0.930 . S
H1931 C1890 0.930 . S
H1932 C1894 0.929 . S
H1933 C1896 0.930 . S
H1934 C1902 0.929 . S
H1935 C1903 0.930 . S
Li1936 N1953 1.990 . S
Li1936 O1996 1.956 . S
Li1936 O1997 1.970 . S
Li1936 O1998 1.961 . S
Li1937 N1961 1.990 . S
Li1937 O1996 1.970 . S
Li1937 O1997 1.956 . S
Li1937 O1999 1.961 . S
Li1938 N1983 1.990 . S
Li1938 O1996 1.961 . S
Li1938 O1998 1.956 . S
Li1938 O1999 1.970 . S
Li1939 N1989 1.990 . S
Li1939 O1997 1.961 . S
Li1939 O1998 1.970 . S
Li1939 O1999 1.956 . S
C1940 C1942 1.348 . S
C1940 C1943 1.356 . S
C1940 O1996 1.325 . S
N1941 C1944 1.314 . S
N1941 C1945 1.279 . S
C1942 C1940 1.348 . S
C1942 C1944 1.353 . S
C1942 H2000 0.929 . S
C1943 C1940 1.356 . S
C1943 C1945 1.358 . S
C1943 H2001 0.930 . S
C1944 N1941 1.314 . S
C1944 C1942 1.353 . S
C1944 H2002 0.930 . S
C1945 N1941 1.279 . S
C1945 C1943 1.358 . S
C1945 H2003 0.930 . S
C1946 C1949 1.348 . S
C1946 C1950 1.356 . S
C1946 O1997 1.325 . S
C1947 N1948 1.279 . S
C1947 C1950 1.358 . S
C1947 H2004 0.930 . S
N1948 C1947 1.279 . S
N1948 C1951 1.314 . S
C1949 C1946 1.348 . S
C1949 C1951 1.353 . S
C1949 H2005 0.929 . S
C1950 C1946 1.356 . S
C1950 C1947 1.358 . S
C1950 H2006 0.930 . S
C1951 N1948 1.314 . S
C1951 C1949 1.353 . S
C1951 H2007 0.930 . S
C1952 N1953 1.314 . S
C1952 C1957 1.353 . S
C1952 H1958 0.930 . S
N1953 Li1936 1.990 . S
N1953 C1952 1.314 . S
N1953 C1955 1.279 . S
C1954 C1955 1.358 . S
C1954 C1956 1.356 . S
C1954 H2008 0.930 . S
C1955 N1953 1.279 . S
C1955 C1954 1.358 . S
C1955 H1959 0.930 . S
C1956 C1954 1.356 . S
C1956 C1957 1.348 . S
C1957 C1952 1.353 . S
C1957 C1956 1.348 . S
C1957 H2009 0.929 . S
H1958 C1952 0.930 . S
H1959 C1955 0.930 . S
C1960 N1961 1.314 . S
C1960 C1962 1.353 . S
C1960 H1966 0.930 . S
N1961 Li1937 1.990 . S
N1961 C1960 1.314 . S
N1961 C1964 1.279 . S
C1962 C1960 1.353 . S
C1962 C1965 1.348 . S
C1962 H2010 0.929 . S
C1963 C1964 1.358 . S
C1963 C1965 1.356 . S
C1963 H2011 0.930 . S
C1964 N1961 1.279 . S
C1964 C1963 1.358 . S
C1964 H1967 0.930 . S
C1965 C1962 1.348 . S
C1965 C1963 1.356 . S
H1966 C1960 0.930 . S
H1967 C1964 0.930 . S
C1968 C1970 1.348 . S
C1968 C1971 1.356 . S
C1968 O1998 1.325 . S
N1969 C1972 1.314 . S
N1969 C1973 1.279 . S
C1970 C1968 1.348 . S
C1970 C1972 1.353 . S
C1970 H2012 0.929 . S
C1971 C1968 1.356 . S
C1971 C1973 1.358 . S
C1971 H2013 0.930 . S
C1972 N1969 1.314 . S
C1972 C1970 1.353 . S
C1972 H2014 0.930 . S
C1973 N1969 1.279 . S
C1973 C1971 1.358 . S
C1973 H2015 0.930 . S
C1974 C1975 1.348 . S
C1974 C1976 1.356 . S
C1974 O1999 1.325 . S
C1975 C1974 1.348 . S
C1975 C1977 1.353 . S
C1975 H2016 0.929 . S
C1976 C1974 1.356 . S
C1976 C1978 1.358 . S
C1976 H2017 0.930 . S
C1977 C1975 1.353 . S
C1977 N1979 1.314 . S
C1977 H2018 0.930 . S
C1978 C1976 1.358 . S
C1978 N1979 1.279 . S
C1978 H2019 0.930 . S
N1979 C1977 1.314 . S
N1979 C1978 1.279 . S
C1980 C1982 1.353 . S
C1980 N1983 1.314 . S
C1980 H1986 0.930 . S
C1981 N1983 1.279 . S
C1981 C1984 1.358 . S
C1981 H1987 0.930 . S
C1982 C1980 1.353 . S
C1982 C1985 1.348 . S
C1982 H2020 0.929 . S
N1983 Li1938 1.990 . S
N1983 C1980 1.314 . S
N1983 C1981 1.279 . S
C1984 C1981 1.358 . S
C1984 C1985 1.356 . S
C1984 H2021 0.930 . S
C1985 C1982 1.348 . S
C1985 C1984 1.356 . S
H1986 C1980 0.930 . S
H1987 C1981 0.930 . S
C1988 N1989 1.314 . S
C1988 C1990 1.353 . S
C1988 H1994 0.930 . S
N1989 Li1939 1.990 . S
N1989 C1988 1.314 . S
N1989 C1992 1.279 . S
C1990 C1988 1.353 . S
C1990 C1993 1.348 . S
C1990 H2022 0.929 . S
C1991 C1992 1.358 . S
C1991 C1993 1.356 . S
C1991 H2023 0.930 . S
C1992 N1989 1.279 . S
C1992 C1991 1.358 . S
C1992 H1995 0.930 . S
C1993 C1990 1.348 . S
C1993 C1991 1.356 . S
H1994 C1988 0.930 . S
H1995 C1992 0.930 . S
O1996 Li1936 1.956 . S
O1996 Li1937 1.970 . S
O1996 Li1938 1.961 . S
O1996 C1940 1.325 . S
O1997 Li1936 1.970 . S
O1997 Li1937 1.956 . S
O1997 Li1939 1.961 . S
O1997 C1946 1.325 . S
O1998 Li1936 1.961 . S
O1998 Li1938 1.956 . S
O1998 Li1939 1.970 . S
O1998 C1968 1.325 . S
O1999 Li1937 1.961 . S
O1999 Li1938 1.970 . S
O1999 Li1939 1.956 . S
O1999 C1974 1.325 . S
H2000 C1942 0.929 . S
H2001 C1943 0.930 . S
H2002 C1944 0.930 . S
H2003 C1945 0.930 . S
H2004 C1947 0.930 . S
H2005 C1949 0.929 . S
H2006 C1950 0.930 . S
H2007 C1951 0.930 . S
H2008 C1954 0.930 . S
H2009 C1957 0.929 . S
H2010 C1962 0.929 . S
H2011 C1963 0.930 . S
H2012 C1970 0.929 . S
H2013 C1971 0.930 . S
H2014 C1972 0.930 . S
H2015 C1973 0.930 . S
H2016 C1975 0.929 . S
H2017 C1976 0.930 . S
H2018 C1977 0.930 . S
H2019 C1978 0.930 . S
H2020 C1982 0.929 . S
H2021 C1984 0.930 . S
H2022 C1990 0.929 . S
H2023 C1991 0.930 . S
Li2024 N2041 1.990 . S
Li2024 O2084 1.956 . S
Li2024 O2085 1.970 . S
Li2024 O2086 1.961 . S
Li2025 N2049 1.990 . S
Li2025 O2084 1.970 . S
Li2025 O2085 1.956 . S
Li2025 O2087 1.961 . S
Li2026 N2071 1.990 . S
Li2026 O2084 1.961 . S
Li2026 O2086 1.956 . S
Li2026 O2087 1.970 . S
Li2027 N2077 1.990 . S
Li2027 O2085 1.961 . S
Li2027 O2086 1.970 . S
Li2027 O2087 1.956 . S
C2028 C2030 1.348 . S
C2028 C2031 1.356 . S
C2028 O2084 1.325 . S
N2029 C2032 1.314 . S
N2029 C2033 1.279 . S
C2030 C2028 1.348 . S
C2030 C2032 1.353 . S
C2030 H2088 0.929 . S
C2031 C2028 1.356 . S
C2031 C2033 1.358 . S
C2031 H2089 0.930 . S
C2032 N2029 1.314 . S
C2032 C2030 1.353 . S
C2032 H2090 0.930 . S
C2033 N2029 1.279 . S
C2033 C2031 1.358 . S
C2033 H2091 0.930 . S
C2034 C2037 1.348 . S
C2034 C2038 1.356 . S
C2034 O2085 1.325 . S
C2035 N2036 1.279 . S
C2035 C2038 1.358 . S
C2035 H2092 0.930 . S
N2036 C2035 1.279 . S
N2036 C2039 1.314 . S
C2037 C2034 1.348 . S
C2037 C2039 1.353 . S
C2037 H2093 0.929 . S
C2038 C2034 1.356 . S
C2038 C2035 1.358 . S
C2038 H2094 0.930 . S
C2039 N2036 1.314 . S
C2039 C2037 1.353 . S
C2039 H2095 0.930 . S
C2040 N2041 1.314 . S
C2040 C2045 1.353 . S
C2040 H2046 0.930 . S
N2041 Li2024 1.990 . S
N2041 C2040 1.314 . S
N2041 C2043 1.279 . S
C2042 C2043 1.358 . S
C2042 C2044 1.356 . S
C2042 H2096 0.930 1_655 S
C2043 N2041 1.279 . S
C2043 C2042 1.358 . S
C2043 H2047 0.930 . S
C2044 C2042 1.356 . S
C2044 C2045 1.348 . S
C2045 C2040 1.353 . S
C2045 C2044 1.348 . S
C2045 H2097 0.929 . S
H2046 C2040 0.930 . S
H2047 C2043 0.930 . S
C2048 N2049 1.314 . S
C2048 C2050 1.353 . S
C2048 H2054 0.930 . S
N2049 Li2025 1.990 . S
N2049 C2048 1.314 . S
N2049 C2052 1.279 . S
C2050 C2048 1.353 . S
C2050 C2053 1.348 . S
C2050 H2098 0.929 . S
C2051 C2052 1.358 . S
C2051 C2053 1.356 . S
C2051 H2099 0.930 . S
C2052 N2049 1.279 . S
C2052 C2051 1.358 . S
C2052 H2055 0.930 . S
C2053 C2050 1.348 . S
C2053 C2051 1.356 . S
H2054 C2048 0.930 . S
H2055 C2052 0.930 . S
C2056 C2058 1.348 . S
C2056 C2059 1.356 . S
C2056 O2086 1.325 . S
N2057 C2060 1.314 . S
N2057 C2061 1.279 . S
C2058 C2056 1.348 . S
C2058 C2060 1.353 . S
C2058 H2100 0.929 . S
C2059 C2056 1.356 . S
C2059 C2061 1.358 . S
C2059 H2101 0.930 . S
C2060 N2057 1.314 . S
C2060 C2058 1.353 . S
C2060 H2102 0.930 . S
C2061 N2057 1.279 . S
C2061 C2059 1.358 . S
C2061 H2103 0.930 . S
C2062 C2063 1.348 . S
C2062 C2064 1.356 . S
C2062 O2087 1.325 . S
C2063 C2062 1.348 . S
C2063 C2065 1.353 . S
C2063 H2104 0.929 . S
C2064 C2062 1.356 . S
C2064 C2066 1.358 . S
C2064 H2105 0.930 . S
C2065 C2063 1.353 . S
C2065 N2067 1.314 . S
C2065 H2106 0.930 . S
C2066 C2064 1.358 . S
C2066 N2067 1.279 . S
C2066 H2107 0.930 . S
N2067 C2065 1.314 . S
N2067 C2066 1.279 . S
C2068 C2070 1.353 . S
C2068 N2071 1.314 . S
C2068 H2074 0.930 . S
C2069 N2071 1.279 . S
C2069 C2072 1.358 . S
C2069 H2075 0.930 . S
C2070 C2068 1.353 . S
C2070 C2073 1.348 . S
C2070 H2108 0.929 . S
N2071 Li2026 1.990 . S
N2071 C2068 1.314 . S
N2071 C2069 1.279 . S
C2072 C2069 1.358 . S
C2072 C2073 1.356 . S
C2072 H2109 0.930 . S
C2073 C2070 1.348 . S
C2073 C2072 1.356 . S
H2074 C2068 0.930 . S
H2075 C2069 0.930 . S
C2076 N2077 1.314 . S
C2076 C2078 1.353 . S
C2076 H2082 0.930 . S
N2077 Li2027 1.990 . S
N2077 C2076 1.314 . S
N2077 C2080 1.279 . S
C2078 C2076 1.353 . S
C2078 C2081 1.348 . S
C2078 H2110 0.929 . S
C2079 C2080 1.358 . S
C2079 C2081 1.356 . S
C2079 H2111 0.930 . S
C2080 N2077 1.279 . S
C2080 C2079 1.358 . S
C2080 H2083 0.930 . S
C2081 C2078 1.348 . S
C2081 C2079 1.356 . S
H2082 C2076 0.930 . S
H2083 C2080 0.930 . S
O2084 Li2024 1.956 . S
O2084 Li2025 1.970 . S
O2084 Li2026 1.961 . S
O2084 C2028 1.325 . S
O2085 Li2024 1.970 . S
O2085 Li2025 1.956 . S
O2085 Li2027 1.961 . S
O2085 C2034 1.325 . S
O2086 Li2024 1.961 . S
O2086 Li2026 1.956 . S
O2086 Li2027 1.970 . S
O2086 C2056 1.325 . S
O2087 Li2025 1.961 . S
O2087 Li2026 1.970 . S
O2087 Li2027 1.956 . S
O2087 C2062 1.325 . S
H2088 C2030 0.929 . S
H2089 C2031 0.930 . S
H2090 C2032 0.930 . S
H2091 C2033 0.930 . S
H2092 C2035 0.930 . S
H2093 C2037 0.929 . S
H2094 C2038 0.930 . S
H2095 C2039 0.930 . S
H2096 C2042 0.930 1_455 S
H2097 C2045 0.929 . S
H2098 C2050 0.929 . S
H2099 C2051 0.930 . S
H2100 C2058 0.929 . S
H2101 C2059 0.930 . S
H2102 C2060 0.930 . S
H2103 C2061 0.930 . S
H2104 C2063 0.929 . S
H2105 C2064 0.930 . S
H2106 C2065 0.930 . S
H2107 C2066 0.930 . S
H2108 C2070 0.929 . S
H2109 C2072 0.930 . S
H2110 C2078 0.929 . S
H2111 C2079 0.930 . S
Li2112 N2129 1.990 . S
Li2112 O2172 1.956 . S
Li2112 O2173 1.970 . S
Li2112 O2174 1.961 . S
Li2113 N2137 1.990 . S
Li2113 O2172 1.970 . S
Li2113 O2173 1.956 . S
Li2113 O2175 1.961 . S
Li2114 N2159 1.990 . S
Li2114 O2172 1.961 . S
Li2114 O2174 1.956 . S
Li2114 O2175 1.970 . S
Li2115 N2165 1.990 . S
Li2115 O2173 1.961 . S
Li2115 O2174 1.970 . S
Li2115 O2175 1.956 . S
C2116 C2118 1.348 . S
C2116 C2119 1.356 . S
C2116 O2172 1.325 . S
N2117 C2120 1.314 1_545 S
N2117 C2121 1.279 1_545 S
C2118 C2116 1.348 . S
C2118 C2120 1.353 . S
C2118 H2176 0.929 . S
C2119 C2116 1.356 . S
C2119 C2121 1.358 . S
C2119 H2177 0.930 . S
C2120 N2117 1.314 1_565 S
C2120 C2118 1.353 . S
C2120 H2178 0.930 . S
C2121 N2117 1.279 1_565 S
C2121 C2119 1.358 . S
C2121 H2179 0.930 1_565 S
C2122 C2125 1.348 . S
C2122 C2126 1.356 . S
C2122 O2173 1.325 . S
C2123 N2124 1.279 . S
C2123 C2126 1.358 . S
C2123 H2180 0.930 . S
N2124 C2123 1.279 . S
N2124 C2127 1.314 . S
C2125 C2122 1.348 . S
C2125 C2127 1.353 . S
C2125 H2181 0.929 . S
C2126 C2122 1.356 . S
C2126 C2123 1.358 . S
C2126 H2182 0.930 . S
C2127 N2124 1.314 . S
C2127 C2125 1.353 . S
C2127 H2183 0.930 . S
C2128 N2129 1.314 . S
C2128 C2133 1.353 . S
C2128 H2134 0.930 . S
N2129 Li2112 1.990 . S
N2129 C2128 1.314 . S
N2129 C2131 1.279 . S
C2130 C2131 1.358 . S
C2130 C2132 1.356 . S
C2130 H2184 0.930 1_565 S
C2131 N2129 1.279 . S
C2131 C2130 1.358 . S
C2131 H2135 0.930 . S
C2132 C2130 1.356 . S
C2132 C2133 1.348 . S
C2133 C2128 1.353 . S
C2133 C2132 1.348 . S
C2133 H2185 0.929 . S
H2134 C2128 0.930 . S
H2135 C2131 0.930 . S
C2136 N2137 1.314 . S
C2136 C2138 1.353 . S
C2136 H2142 0.930 . S
N2137 Li2113 1.990 . S
N2137 C2136 1.314 . S
N2137 C2140 1.279 . S
C2138 C2136 1.353 . S
C2138 C2141 1.348 . S
C2138 H2186 0.929 . S
C2139 C2140 1.358 . S
C2139 C2141 1.356 . S
C2139 H2187 0.930 . S
C2140 N2137 1.279 . S
C2140 C2139 1.358 . S
C2140 H2143 0.930 . S
C2141 C2138 1.348 . S
C2141 C2139 1.356 . S
H2142 C2136 0.930 . S
H2143 C2140 0.930 . S
C2144 C2146 1.348 . S
C2144 C2147 1.356 . S
C2144 O2174 1.325 . S
N2145 C2148 1.314 . S
N2145 C2149 1.279 . S
C2146 C2144 1.348 . S
C2146 C2148 1.353 . S
C2146 H2188 0.929 . S
C2147 C2144 1.356 . S
C2147 C2149 1.358 . S
C2147 H2189 0.930 . S
C2148 N2145 1.314 . S
C2148 C2146 1.353 . S
C2148 H2190 0.930 . S
C2149 N2145 1.279 . S
C2149 C2147 1.358 . S
C2149 H2191 0.930 . S
C2150 C2151 1.348 . S
C2150 C2152 1.356 . S
C2150 O2175 1.325 . S
C2151 C2150 1.348 . S
C2151 C2153 1.353 . S
C2151 H2192 0.929 . S
C2152 C2150 1.356 . S
C2152 C2154 1.358 . S
C2152 H2193 0.930 . S
C2153 C2151 1.353 . S
C2153 N2155 1.314 . S
C2153 H2194 0.930 . S
C2154 C2152 1.358 . S
C2154 N2155 1.279 . S
C2154 H2195 0.930 . S
N2155 C2153 1.314 . S
N2155 C2154 1.279 . S
C2156 C2158 1.353 . S
C2156 N2159 1.314 . S
C2156 H2162 0.930 . S
C2157 N2159 1.279 . S
C2157 C2160 1.358 . S
C2157 H2163 0.930 . S
C2158 C2156 1.353 . S
C2158 C2161 1.348 . S
C2158 H2196 0.929 . S
N2159 Li2114 1.990 . S
N2159 C2156 1.314 . S
N2159 C2157 1.279 . S
C2160 C2157 1.358 . S
C2160 C2161 1.356 . S
C2160 H2197 0.930 . S
C2161 C2158 1.348 . S
C2161 C2160 1.356 . S
H2162 C2156 0.930 . S
H2163 C2157 0.930 . S
C2164 N2165 1.314 . S
C2164 C2166 1.353 . S
C2164 H2170 0.930 . S
N2165 Li2115 1.990 . S
N2165 C2164 1.314 . S
N2165 C2168 1.279 . S
C2166 C2164 1.353 . S
C2166 C2169 1.348 . S
C2166 H2198 0.929 . S
C2167 C2168 1.358 . S
C2167 C2169 1.356 . S
C2167 H2199 0.930 . S
C2168 N2165 1.279 . S
C2168 C2167 1.358 . S
C2168 H2171 0.930 . S
C2169 C2166 1.348 . S
C2169 C2167 1.356 . S
H2170 C2164 0.930 . S
H2171 C2168 0.930 . S
O2172 Li2112 1.956 . S
O2172 Li2113 1.970 . S
O2172 Li2114 1.961 . S
O2172 C2116 1.325 . S
O2173 Li2112 1.970 . S
O2173 Li2113 1.956 . S
O2173 Li2115 1.961 . S
O2173 C2122 1.325 . S
O2174 Li2112 1.961 . S
O2174 Li2114 1.956 . S
O2174 Li2115 1.970 . S
O2174 C2144 1.325 . S
O2175 Li2113 1.961 . S
O2175 Li2114 1.970 . S
O2175 Li2115 1.956 . S
O2175 C2150 1.325 . S
H2176 C2118 0.929 . S
H2177 C2119 0.930 . S
H2178 C2120 0.930 . S
H2179 C2121 0.930 1_545 S
H2180 C2123 0.930 . S
H2181 C2125 0.929 . S
H2182 C2126 0.930 . S
H2183 C2127 0.930 . S
H2184 C2130 0.930 1_545 S
H2185 C2133 0.929 . S
H2186 C2138 0.929 . S
H2187 C2139 0.930 . S
H2188 C2146 0.929 . S
H2189 C2147 0.930 . S
H2190 C2148 0.930 . S
H2191 C2149 0.930 . S
H2192 C2151 0.929 . S
H2193 C2152 0.930 . S
H2194 C2153 0.930 . S
H2195 C2154 0.930 . S
H2196 C2158 0.929 . S
H2197 C2160 0.930 . S
H2198 C2166 0.929 . S
H2199 C2167 0.930 . S
Li2200 N2217 1.990 . S
Li2200 O2260 1.956 . S
Li2200 O2261 1.970 . S
Li2200 O2262 1.961 . S
Li2201 N2225 1.990 . S
Li2201 O2260 1.970 . S
Li2201 O2261 1.956 . S
Li2201 O2263 1.961 . S
Li2202 N2247 1.990 . S
Li2202 O2260 1.961 . S
Li2202 O2262 1.956 . S
Li2202 O2263 1.970 . S
Li2203 N2253 1.990 . S
Li2203 O2261 1.961 . S
Li2203 O2262 1.970 . S
Li2203 O2263 1.956 . S
C2204 C2206 1.348 . S
C2204 C2207 1.356 . S
C2204 O2260 1.325 . S
N2205 C2208 1.314 . S
N2205 C2209 1.279 . S
C2206 C2204 1.348 . S
C2206 C2208 1.353 . S
C2206 H2264 0.929 . S
C2207 C2204 1.356 . S
C2207 C2209 1.358 . S
C2207 H2265 0.930 . S
C2208 N2205 1.314 . S
C2208 C2206 1.353 . S
C2208 H2266 0.930 . S
C2209 N2205 1.279 . S
C2209 C2207 1.358 . S
C2209 H2267 0.930 . S
C2210 C2213 1.348 . S
C2210 C2214 1.356 . S
C2210 O2261 1.325 . S
C2211 N2212 1.279 . S
C2211 C2214 1.358 . S
C2211 H2268 0.930 . S
N2212 C2211 1.279 . S
N2212 C2215 1.314 . S
C2213 C2210 1.348 . S
C2213 C2215 1.353 . S
C2213 H2269 0.929 . S
C2214 C2210 1.356 . S
C2214 C2211 1.358 . S
C2214 H2270 0.930 . S
C2215 N2212 1.314 . S
C2215 C2213 1.353 . S
C2215 H2271 0.930 . S
C2216 N2217 1.314 . S
C2216 C2221 1.353 . S
C2216 H2222 0.930 . S
N2217 Li2200 1.990 . S
N2217 C2216 1.314 . S
N2217 C2219 1.279 . S
C2218 C2219 1.358 . S
C2218 C2220 1.356 . S
C2218 H2272 0.930 . S
C2219 N2217 1.279 . S
C2219 C2218 1.358 . S
C2219 H2223 0.930 . S
C2220 C2218 1.356 . S
C2220 C2221 1.348 . S
C2221 C2216 1.353 . S
C2221 C2220 1.348 . S
C2221 H2273 0.929 . S
H2222 C2216 0.930 . S
H2223 C2219 0.930 . S
C2224 N2225 1.314 . S
C2224 C2226 1.353 . S
C2224 H2230 0.930 . S
N2225 Li2201 1.990 . S
N2225 C2224 1.314 . S
N2225 C2228 1.279 . S
C2226 C2224 1.353 . S
C2226 C2229 1.348 . S
C2226 H2274 0.929 . S
C2227 C2228 1.358 . S
C2227 C2229 1.356 . S
C2227 H2275 0.930 . S
C2228 N2225 1.279 . S
C2228 C2227 1.358 . S
C2228 H2231 0.930 . S
C2229 C2226 1.348 . S
C2229 C2227 1.356 . S
H2230 C2224 0.930 . S
H2231 C2228 0.930 . S
C2232 C2234 1.348 . S
C2232 C2235 1.356 . S
C2232 O2262 1.325 . S
N2233 C2236 1.314 . S
N2233 C2237 1.279 . S
C2234 C2232 1.348 . S
C2234 C2236 1.353 . S
C2234 H2276 0.929 . S
C2235 C2232 1.356 . S
C2235 C2237 1.358 . S
C2235 H2277 0.930 . S
C2236 N2233 1.314 . S
C2236 C2234 1.353 . S
C2236 H2278 0.930 . S
C2237 N2233 1.279 . S
C2237 C2235 1.358 . S
C2237 H2279 0.930 . S
C2238 C2239 1.348 . S
C2238 C2240 1.356 . S
C2238 O2263 1.325 . S
C2239 C2238 1.348 . S
C2239 C2241 1.353 . S
C2239 H2280 0.929 . S
C2240 C2238 1.356 . S
C2240 C2242 1.358 . S
C2240 H2281 0.930 . S
C2241 C2239 1.353 . S
C2241 N2243 1.314 . S
C2241 H2282 0.930 . S
C2242 C2240 1.358 . S
C2242 N2243 1.279 . S
C2242 H2283 0.930 . S
N2243 C2241 1.314 . S
N2243 C2242 1.279 . S
C2244 C2246 1.353 . S
C2244 N2247 1.314 . S
C2244 H2250 0.930 . S
C2245 N2247 1.279 . S
C2245 C2248 1.358 . S
C2245 H2251 0.930 . S
C2246 C2244 1.353 . S
C2246 C2249 1.348 . S
C2246 H2284 0.929 . S
N2247 Li2202 1.990 . S
N2247 C2244 1.314 . S
N2247 C2245 1.279 . S
C2248 C2245 1.358 . S
C2248 C2249 1.356 . S
C2248 H2285 0.930 . S
C2249 C2246 1.348 . S
C2249 C2248 1.356 . S
H2250 C2244 0.930 . S
H2251 C2245 0.930 . S
C2252 N2253 1.314 . S
C2252 C2254 1.353 . S
C2252 H2258 0.930 . S
N2253 Li2203 1.990 . S
N2253 C2252 1.314 . S
N2253 C2256 1.279 . S
C2254 C2252 1.353 . S
C2254 C2257 1.348 . S
C2254 H2286 0.929 . S
C2255 C2256 1.358 . S
C2255 C2257 1.356 . S
C2255 H2287 0.930 . S
C2256 N2253 1.279 . S
C2256 C2255 1.358 . S
C2256 H2259 0.930 . S
C2257 C2254 1.348 . S
C2257 C2255 1.356 . S
H2258 C2252 0.930 . S
H2259 C2256 0.930 . S
O2260 Li2200 1.956 . S
O2260 Li2201 1.970 . S
O2260 Li2202 1.961 . S
O2260 C2204 1.325 . S
O2261 Li2200 1.970 . S
O2261 Li2201 1.956 . S
O2261 Li2203 1.961 . S
O2261 C2210 1.325 . S
O2262 Li2200 1.961 . S
O2262 Li2202 1.956 . S
O2262 Li2203 1.970 . S
O2262 C2232 1.325 . S
O2263 Li2201 1.961 . S
O2263 Li2202 1.970 . S
O2263 Li2203 1.956 . S
O2263 C2238 1.325 . S
H2264 C2206 0.929 . S
H2265 C2207 0.930 . S
H2266 C2208 0.930 . S
H2267 C2209 0.930 . S
H2268 C2211 0.930 . S
H2269 C2213 0.929 . S
H2270 C2214 0.930 . S
H2271 C2215 0.930 . S
H2272 C2218 0.930 . S
H2273 C2221 0.929 . S
H2274 C2226 0.929 . S
H2275 C2227 0.930 . S
H2276 C2234 0.929 . S
H2277 C2235 0.930 . S
H2278 C2236 0.930 . S
H2279 C2237 0.930 . S
H2280 C2239 0.929 . S
H2281 C2240 0.930 . S
H2282 C2241 0.930 . S
H2283 C2242 0.930 . S
H2284 C2246 0.929 . S
H2285 C2248 0.930 . S
H2286 C2254 0.929 . S
H2287 C2255 0.930 . S
Li2288 N2305 1.990 . S
Li2288 O2348 1.956 . S
Li2288 O2349 1.970 . S
Li2288 O2350 1.961 . S
Li2289 N2313 1.990 . S
Li2289 O2348 1.970 . S
Li2289 O2349 1.956 . S
Li2289 O2351 1.961 . S
Li2290 N2335 1.990 . S
Li2290 O2348 1.961 . S
Li2290 O2350 1.956 . S
Li2290 O2351 1.970 . S
Li2291 N2341 1.990 . S
Li2291 O2349 1.961 . S
Li2291 O2350 1.970 . S
Li2291 O2351 1.956 . S
C2292 C2294 1.348 . S
C2292 C2295 1.356 . S
C2292 O2348 1.325 . S
N2293 C2296 1.314 . S
N2293 C2297 1.279 . S
C2294 C2292 1.348 . S
C2294 C2296 1.353 . S
C2294 H2352 0.929 . S
C2295 C2292 1.356 . S
C2295 C2297 1.358 . S
C2295 H2353 0.930 . S
C2296 N2293 1.314 . S
C2296 C2294 1.353 . S
C2296 H2354 0.930 . S
C2297 N2293 1.279 . S
C2297 C2295 1.358 . S
C2297 H2355 0.930 . S
C2298 C2301 1.348 . S
C2298 C2302 1.356 . S
C2298 O2349 1.325 . S
C2299 N2300 1.279 . S
C2299 C2302 1.358 . S
C2299 H2356 0.930 . S
N2300 C2299 1.279 . S
N2300 C2303 1.314 . S
C2301 C2298 1.348 . S
C2301 C2303 1.353 . S
C2301 H2357 0.929 . S
C2302 C2298 1.356 . S
C2302 C2299 1.358 . S
C2302 H2358 0.930 . S
C2303 N2300 1.314 . S
C2303 C2301 1.353 . S
C2303 H2359 0.930 . S
C2304 N2305 1.314 . S
C2304 C2309 1.353 . S
C2304 H2310 0.930 . S
N2305 Li2288 1.990 . S
N2305 C2304 1.314 . S
N2305 C2307 1.279 . S
C2306 C2307 1.358 . S
C2306 C2308 1.356 . S
C2306 H2360 0.930 . S
C2307 N2305 1.279 . S
C2307 C2306 1.358 . S
C2307 H2311 0.930 . S
C2308 C2306 1.356 . S
C2308 C2309 1.348 . S
C2309 C2304 1.353 . S
C2309 C2308 1.348 . S
C2309 H2361 0.929 . S
H2310 C2304 0.930 . S
H2311 C2307 0.930 . S
C2312 N2313 1.314 . S
C2312 C2314 1.353 . S
C2312 H2318 0.930 . S
N2313 Li2289 1.990 . S
N2313 C2312 1.314 . S
N2313 C2316 1.279 . S
C2314 C2312 1.353 . S
C2314 C2317 1.348 . S
C2314 H2362 0.929 . S
C2315 C2316 1.358 . S
C2315 C2317 1.356 . S
C2315 H2363 0.930 . S
C2316 N2313 1.279 . S
C2316 C2315 1.358 . S
C2316 H2319 0.930 . S
C2317 C2314 1.348 . S
C2317 C2315 1.356 . S
H2318 C2312 0.930 . S
H2319 C2316 0.930 . S
C2320 C2322 1.348 . S
C2320 C2323 1.356 . S
C2320 O2350 1.325 . S
N2321 C2324 1.314 . S
N2321 C2325 1.279 . S
C2322 C2320 1.348 . S
C2322 C2324 1.353 . S
C2322 H2364 0.929 . S
C2323 C2320 1.356 . S
C2323 C2325 1.358 . S
C2323 H2365 0.930 . S
C2324 N2321 1.314 . S
C2324 C2322 1.353 . S
C2324 H2366 0.930 . S
C2325 N2321 1.279 . S
C2325 C2323 1.358 . S
C2325 H2367 0.930 . S
C2326 C2327 1.348 . S
C2326 C2328 1.356 . S
C2326 O2351 1.325 . S
C2327 C2326 1.348 . S
C2327 C2329 1.353 . S
C2327 H2368 0.929 . S
C2328 C2326 1.356 . S
C2328 C2330 1.358 . S
C2328 H2369 0.930 . S
C2329 C2327 1.353 . S
C2329 N2331 1.314 . S
C2329 H2370 0.930 . S
C2330 C2328 1.358 . S
C2330 N2331 1.279 . S
C2330 H2371 0.930 . S
N2331 C2329 1.314 . S
N2331 C2330 1.279 . S
C2332 C2334 1.353 . S
C2332 N2335 1.314 . S
C2332 H2338 0.930 . S
C2333 N2335 1.279 . S
C2333 C2336 1.358 . S
C2333 H2339 0.930 . S
C2334 C2332 1.353 . S
C2334 C2337 1.348 . S
C2334 H2372 0.929 . S
N2335 Li2290 1.990 . S
N2335 C2332 1.314 . S
N2335 C2333 1.279 . S
C2336 C2333 1.358 . S
C2336 C2337 1.356 . S
C2336 H2373 0.930 . S
C2337 C2334 1.348 . S
C2337 C2336 1.356 . S
H2338 C2332 0.930 . S
H2339 C2333 0.930 . S
C2340 N2341 1.314 . S
C2340 C2342 1.353 . S
C2340 H2346 0.930 . S
N2341 Li2291 1.990 . S
N2341 C2340 1.314 . S
N2341 C2344 1.279 . S
C2342 C2340 1.353 . S
C2342 C2345 1.348 . S
C2342 H2374 0.929 . S
C2343 C2344 1.358 . S
C2343 C2345 1.356 . S
C2343 H2375 0.930 . S
C2344 N2341 1.279 . S
C2344 C2343 1.358 . S
C2344 H2347 0.930 . S
C2345 C2342 1.348 . S
C2345 C2343 1.356 . S
H2346 C2340 0.930 . S
H2347 C2344 0.930 . S
O2348 Li2288 1.956 . S
O2348 Li2289 1.970 . S
O2348 Li2290 1.961 . S
O2348 C2292 1.325 . S
O2349 Li2288 1.970 . S
O2349 Li2289 1.956 . S
O2349 Li2291 1.961 . S
O2349 C2298 1.325 . S
O2350 Li2288 1.961 . S
O2350 Li2290 1.956 . S
O2350 Li2291 1.970 . S
O2350 C2320 1.325 . S
O2351 Li2289 1.961 . S
O2351 Li2290 1.970 . S
O2351 Li2291 1.956 . S
O2351 C2326 1.325 . S
H2352 C2294 0.929 . S
H2353 C2295 0.930 . S
H2354 C2296 0.930 . S
H2355 C2297 0.930 . S
H2356 C2299 0.930 . S
H2357 C2301 0.929 . S
H2358 C2302 0.930 . S
H2359 C2303 0.930 . S
H2360 C2306 0.930 . S
H2361 C2309 0.929 . S
H2362 C2314 0.929 . S
H2363 C2315 0.930 . S
H2364 C2322 0.929 . S
H2365 C2323 0.930 . S
H2366 C2324 0.930 . S
H2367 C2325 0.930 . S
H2368 C2327 0.929 . S
H2369 C2328 0.930 . S
H2370 C2329 0.930 . S
H2371 C2330 0.930 . S
H2372 C2334 0.929 . S
H2373 C2336 0.930 . S
H2374 C2342 0.929 . S
H2375 C2343 0.930 . S
Li2376 N2393 1.990 . S
Li2376 O2436 1.956 . S
Li2376 O2437 1.970 . S
Li2376 O2438 1.961 . S
Li2377 N2401 1.990 . S
Li2377 O2436 1.970 . S
Li2377 O2437 1.956 . S
Li2377 O2439 1.961 . S
Li2378 N2423 1.990 . S
Li2378 O2436 1.961 . S
Li2378 O2438 1.956 . S
Li2378 O2439 1.970 . S
Li2379 N2429 1.990 . S
Li2379 O2437 1.961 . S
Li2379 O2438 1.970 . S
Li2379 O2439 1.956 . S
C2380 C2382 1.348 . S
C2380 C2383 1.356 . S
C2380 O2436 1.325 . S
N2381 C2384 1.314 . S
N2381 C2385 1.279 . S
C2382 C2380 1.348 . S
C2382 C2384 1.353 . S
C2382 H2440 0.929 . S
C2383 C2380 1.356 . S
C2383 C2385 1.358 . S
C2383 H2441 0.930 . S
C2384 N2381 1.314 . S
C2384 C2382 1.353 . S
C2384 H2442 0.930 . S
C2385 N2381 1.279 . S
C2385 C2383 1.358 . S
C2385 H2443 0.930 . S
C2386 C2389 1.348 . S
C2386 C2390 1.356 . S
C2386 O2437 1.325 . S
C2387 N2388 1.279 . S
C2387 C2390 1.358 . S
C2387 H2444 0.930 . S
N2388 C2387 1.279 . S
N2388 C2391 1.314 . S
C2389 C2386 1.348 . S
C2389 C2391 1.353 . S
C2389 H2445 0.929 . S
C2390 C2386 1.356 . S
C2390 C2387 1.358 . S
C2390 H2446 0.930 . S
C2391 N2388 1.314 . S
C2391 C2389 1.353 . S
C2391 H2447 0.930 . S
C2392 N2393 1.314 . S
C2392 C2397 1.353 . S
C2392 H2398 0.930 . S
N2393 Li2376 1.990 . S
N2393 C2392 1.314 . S
N2393 C2395 1.279 . S
C2394 C2395 1.358 . S
C2394 C2396 1.356 . S
C2394 H2448 0.930 . S
C2395 N2393 1.279 . S
C2395 C2394 1.358 . S
C2395 H2399 0.930 . S
C2396 C2394 1.356 . S
C2396 C2397 1.348 . S
C2397 C2392 1.353 . S
C2397 C2396 1.348 . S
C2397 H2449 0.929 . S
H2398 C2392 0.930 . S
H2399 C2395 0.930 . S
C2400 N2401 1.314 . S
C2400 C2402 1.353 . S
C2400 H2406 0.930 . S
N2401 Li2377 1.990 . S
N2401 C2400 1.314 . S
N2401 C2404 1.279 . S
C2402 C2400 1.353 . S
C2402 C2405 1.348 . S
C2402 H2450 0.929 . S
C2403 C2404 1.358 . S
C2403 C2405 1.356 . S
C2403 H2451 0.930 . S
C2404 N2401 1.279 . S
C2404 C2403 1.358 . S
C2404 H2407 0.930 . S
C2405 C2402 1.348 . S
C2405 C2403 1.356 . S
H2406 C2400 0.930 . S
H2407 C2404 0.930 . S
C2408 C2410 1.348 . S
C2408 C2411 1.356 . S
C2408 O2438 1.325 . S
N2409 C2412 1.314 . S
N2409 C2413 1.279 . S
C2410 C2408 1.348 . S
C2410 C2412 1.353 . S
C2410 H2452 0.929 . S
C2411 C2408 1.356 . S
C2411 C2413 1.358 . S
C2411 H2453 0.930 . S
C2412 N2409 1.314 . S
C2412 C2410 1.353 . S
C2412 H2454 0.930 . S
C2413 N2409 1.279 . S
C2413 C2411 1.358 . S
C2413 H2455 0.930 . S
C2414 C2415 1.348 . S
C2414 C2416 1.356 . S
C2414 O2439 1.325 . S
C2415 C2414 1.348 . S
C2415 C2417 1.353 . S
C2415 H2456 0.929 . S
C2416 C2414 1.356 . S
C2416 C2418 1.358 . S
C2416 H2457 0.930 . S
C2417 C2415 1.353 . S
C2417 N2419 1.314 . S
C2417 H2458 0.930 . S
C2418 C2416 1.358 . S
C2418 N2419 1.279 . S
C2418 H2459 0.930 . S
N2419 C2417 1.314 . S
N2419 C2418 1.279 . S
C2420 C2422 1.353 . S
C2420 N2423 1.314 . S
C2420 H2426 0.930 . S
C2421 N2423 1.279 . S
C2421 C2424 1.358 . S
C2421 H2427 0.930 . S
C2422 C2420 1.353 . S
C2422 C2425 1.348 . S
C2422 H2460 0.929 . S
N2423 Li2378 1.990 . S
N2423 C2420 1.314 . S
N2423 C2421 1.279 . S
C2424 C2421 1.358 . S
C2424 C2425 1.356 . S
C2424 H2461 0.930 . S
C2425 C2422 1.348 . S
C2425 C2424 1.356 . S
H2426 C2420 0.930 . S
H2427 C2421 0.930 . S
C2428 N2429 1.314 . S
C2428 C2430 1.353 . S
C2428 H2434 0.930 . S
N2429 Li2379 1.990 . S
N2429 C2428 1.314 . S
N2429 C2432 1.279 . S
C2430 C2428 1.353 . S
C2430 C2433 1.348 . S
C2430 H2462 0.929 . S
C2431 C2432 1.358 . S
C2431 C2433 1.356 . S
C2431 H2463 0.930 . S
C2432 N2429 1.279 . S
C2432 C2431 1.358 . S
C2432 H2435 0.930 . S
C2433 C2430 1.348 . S
C2433 C2431 1.356 . S
H2434 C2428 0.930 . S
H2435 C2432 0.930 . S
O2436 Li2376 1.956 . S
O2436 Li2377 1.970 . S
O2436 Li2378 1.961 . S
O2436 C2380 1.325 . S
O2437 Li2376 1.970 . S
O2437 Li2377 1.956 . S
O2437 Li2379 1.961 . S
O2437 C2386 1.325 . S
O2438 Li2376 1.961 . S
O2438 Li2378 1.956 . S
O2438 Li2379 1.970 . S
O2438 C2408 1.325 . S
O2439 Li2377 1.961 . S
O2439 Li2378 1.970 . S
O2439 Li2379 1.956 . S
O2439 C2414 1.325 . S
H2440 C2382 0.929 . S
H2441 C2383 0.930 . S
H2442 C2384 0.930 . S
H2443 C2385 0.930 . S
H2444 C2387 0.930 . S
H2445 C2389 0.929 . S
H2446 C2390 0.930 . S
H2447 C2391 0.930 . S
H2448 C2394 0.930 . S
H2449 C2397 0.929 . S
H2450 C2402 0.929 . S
H2451 C2403 0.930 . S
H2452 C2410 0.929 . S
H2453 C2411 0.930 . S
H2454 C2412 0.930 . S
H2455 C2413 0.930 . S
H2456 C2415 0.929 . S
H2457 C2416 0.930 . S
H2458 C2417 0.930 . S
H2459 C2418 0.930 . S
H2460 C2422 0.929 . S
H2461 C2424 0.930 . S
H2462 C2430 0.929 . S
H2463 C2431 0.930 . S
Li2464 N2481 1.990 . S
Li2464 O2524 1.956 . S
Li2464 O2525 1.970 . S
Li2464 O2526 1.961 . S
Li2465 N2489 1.990 . S
Li2465 O2524 1.970 . S
Li2465 O2525 1.956 . S
Li2465 O2527 1.961 . S
Li2466 N2511 1.990 . S
Li2466 O2524 1.961 . S
Li2466 O2526 1.956 . S
Li2466 O2527 1.970 . S
Li2467 N2517 1.990 . S
Li2467 O2525 1.961 . S
Li2467 O2526 1.970 . S
Li2467 O2527 1.956 . S
C2468 C2470 1.348 . S
C2468 C2471 1.356 . S
C2468 O2524 1.325 . S
N2469 C2472 1.314 . S
N2469 C2473 1.279 . S
C2470 C2468 1.348 . S
C2470 C2472 1.353 . S
C2470 H2528 0.929 . S
C2471 C2468 1.356 . S
C2471 C2473 1.358 . S
C2471 H2529 0.930 . S
C2472 N2469 1.314 . S
C2472 C2470 1.353 . S
C2472 H2530 0.930 . S
C2473 N2469 1.279 . S
C2473 C2471 1.358 . S
C2473 H2531 0.930 1_565 S
C2474 C2477 1.348 . S
C2474 C2478 1.356 . S
C2474 O2525 1.325 . S
C2475 N2476 1.279 . S
C2475 C2478 1.358 . S
C2475 H2532 0.930 . S
N2476 C2475 1.279 . S
N2476 C2479 1.314 . S
C2477 C2474 1.348 . S
C2477 C2479 1.353 . S
C2477 H2533 0.929 . S
C2478 C2474 1.356 . S
C2478 C2475 1.358 . S
C2478 H2534 0.930 . S
C2479 N2476 1.314 . S
C2479 C2477 1.353 . S
C2479 H2535 0.930 . S
C2480 N2481 1.314 . S
C2480 C2485 1.353 . S
C2480 H2486 0.930 . S
N2481 Li2464 1.990 . S
N2481 C2480 1.314 . S
N2481 C2483 1.279 . S
C2482 C2483 1.358 . S
C2482 C2484 1.356 . S
C2482 H2536 0.930 . S
C2483 N2481 1.279 . S
C2483 C2482 1.358 . S
C2483 H2487 0.930 . S
C2484 C2482 1.356 . S
C2484 C2485 1.348 . S
C2485 C2480 1.353 . S
C2485 C2484 1.348 . S
C2485 H2537 0.929 . S
H2486 C2480 0.930 . S
H2487 C2483 0.930 . S
C2488 N2489 1.314 . S
C2488 C2490 1.353 . S
C2488 H2494 0.930 . S
N2489 Li2465 1.990 . S
N2489 C2488 1.314 . S
N2489 C2492 1.279 . S
C2490 C2488 1.353 . S
C2490 C2493 1.348 . S
C2490 H2538 0.929 . S
C2491 C2492 1.358 . S
C2491 C2493 1.356 . S
C2491 H2539 0.930 . S
C2492 N2489 1.279 . S
C2492 C2491 1.358 . S
C2492 H2495 0.930 . S
C2493 C2490 1.348 . S
C2493 C2491 1.356 . S
H2494 C2488 0.930 . S
H2495 C2492 0.930 . S
C2496 C2498 1.348 . S
C2496 C2499 1.356 . S
C2496 O2526 1.325 . S
N2497 C2500 1.314 . S
N2497 C2501 1.279 . S
C2498 C2496 1.348 . S
C2498 C2500 1.353 . S
C2498 H2540 0.929 . S
C2499 C2496 1.356 . S
C2499 C2501 1.358 . S
C2499 H2541 0.930 . S
C2500 N2497 1.314 . S
C2500 C2498 1.353 . S
C2500 H2542 0.930 . S
C2501 N2497 1.279 . S
C2501 C2499 1.358 . S
C2501 H2543 0.930 . S
C2502 C2503 1.348 . S
C2502 C2504 1.356 . S
C2502 O2527 1.325 . S
C2503 C2502 1.348 . S
C2503 C2505 1.353 . S
C2503 H2544 0.929 . S
C2504 C2502 1.356 . S
C2504 C2506 1.358 . S
C2504 H2545 0.930 . S
C2505 C2503 1.353 . S
C2505 N2507 1.314 . S
C2505 H2546 0.930 . S
C2506 C2504 1.358 . S
C2506 N2507 1.279 . S
C2506 H2547 0.930 . S
N2507 C2505 1.314 . S
N2507 C2506 1.279 . S
C2508 C2510 1.353 . S
C2508 N2511 1.314 . S
C2508 H2514 0.930 . S
C2509 N2511 1.279 . S
C2509 C2512 1.358 . S
C2509 H2515 0.930 . S
C2510 C2508 1.353 . S
C2510 C2513 1.348 . S
C2510 H2548 0.935 . S
N2511 Li2466 1.990 . S
N2511 C2508 1.314 . S
N2511 C2509 1.279 . S
C2512 C2509 1.358 . S
C2512 C2513 1.356 . S
C2512 H2549 0.930 . S
C2513 C2510 1.348 . S
C2513 C2512 1.356 . S
H2514 C2508 0.930 . S
H2515 C2509 0.930 . S
C2516 N2517 1.314 . S
C2516 C2518 1.353 . S
C2516 H2522 0.930 . S
N2517 Li2467 1.990 . S
N2517 C2516 1.314 . S
N2517 C2520 1.279 . S
C2518 C2516 1.353 . S
C2518 C2521 1.348 . S
C2518 H2550 0.929 . S
C2519 C2520 1.358 . S
C2519 C2521 1.356 . S
C2519 H2551 0.930 . S
C2520 N2517 1.279 . S
C2520 C2519 1.358 . S
C2520 H2523 0.930 . S
C2521 C2518 1.348 . S
C2521 C2519 1.356 . S
H2522 C2516 0.930 . S
H2523 C2520 0.930 . S
O2524 Li2464 1.956 . S
O2524 Li2465 1.970 . S
O2524 Li2466 1.961 . S
O2524 C2468 1.325 . S
O2525 Li2464 1.970 . S
O2525 Li2465 1.956 . S
O2525 Li2467 1.961 . S
O2525 C2474 1.325 . S
O2526 Li2464 1.961 . S
O2526 Li2466 1.956 . S
O2526 Li2467 1.970 . S
O2526 C2496 1.325 . S
O2527 Li2465 1.961 . S
O2527 Li2466 1.970 . S
O2527 Li2467 1.956 . S
O2527 C2502 1.325 . S
H2528 C2470 0.929 . S
H2529 C2471 0.930 . S
H2530 C2472 0.930 . S
H2531 C2473 0.930 1_545 S
H2532 C2475 0.930 . S
H2533 C2477 0.929 . S
H2534 C2478 0.930 . S
H2535 C2479 0.930 . S
H2536 C2482 0.930 . S
H2537 C2485 0.929 . S
H2538 C2490 0.929 . S
H2539 C2491 0.930 . S
H2540 C2498 0.929 . S
H2541 C2499 0.930 . S
H2542 C2500 0.930 . S
H2543 C2501 0.930 . S
H2544 C2503 0.929 . S
H2545 C2504 0.930 . S
H2546 C2505 0.930 . S
H2547 C2506 0.930 . S
H2548 C2510 0.935 . S
H2549 C2512 0.930 . S
H2550 C2518 0.929 . S
H2551 C2519 0.930 . S
Li2552 N2569 1.990 . S
Li2552 O2612 1.956 . S
Li2552 O2613 1.970 . S
Li2552 O2614 1.961 . S
Li2553 N2577 1.990 . S
Li2553 O2612 1.970 . S
Li2553 O2613 1.956 . S
Li2553 O2615 1.961 . S
Li2554 N2599 1.990 . S
Li2554 O2612 1.961 . S
Li2554 O2614 1.956 . S
Li2554 O2615 1.970 . S
Li2555 N2605 1.990 . S
Li2555 O2613 1.961 . S
Li2555 O2614 1.970 . S
Li2555 O2615 1.956 . S
C2556 C2558 1.348 . S
C2556 C2559 1.356 . S
C2556 O2612 1.325 . S
N2557 C2560 1.314 . S
N2557 C2561 1.279 . S
C2558 C2556 1.348 . S
C2558 C2560 1.353 . S
C2558 H2616 0.929 . S
C2559 C2556 1.356 . S
C2559 C2561 1.358 . S
C2559 H2617 0.930 . S
C2560 N2557 1.314 . S
C2560 C2558 1.353 . S
C2560 H2618 0.930 . S
C2561 N2557 1.279 . S
C2561 C2559 1.358 . S
C2561 H2619 0.930 . S
C2562 C2565 1.348 . S
C2562 C2566 1.356 . S
C2562 O2613 1.325 . S
C2563 N2564 1.279 . S
C2563 C2566 1.358 . S
C2563 H2620 0.930 . S
N2564 C2563 1.279 . S
N2564 C2567 1.314 . S
C2565 C2562 1.348 . S
C2565 C2567 1.353 . S
C2565 H2621 0.929 . S
C2566 C2562 1.356 . S
C2566 C2563 1.358 . S
C2566 H2622 0.930 . S
C2567 N2564 1.314 . S
C2567 C2565 1.353 . S
C2567 H2623 0.930 . S
C2568 N2569 1.314 . S
C2568 C2573 1.353 . S
C2568 H2574 0.930 . S
N2569 Li2552 1.990 . S
N2569 C2568 1.314 . S
N2569 C2571 1.279 . S
C2570 C2571 1.358 . S
C2570 C2572 1.356 . S
C2570 H2624 0.930 . S
C2571 N2569 1.279 . S
C2571 C2570 1.358 . S
C2571 H2575 0.930 . S
C2572 C2570 1.356 . S
C2572 C2573 1.348 . S
C2573 C2568 1.353 . S
C2573 C2572 1.348 . S
C2573 H2625 0.929 . S
H2574 C2568 0.930 . S
H2575 C2571 0.930 . S
C2576 N2577 1.314 . S
C2576 C2578 1.353 . S
C2576 H2582 0.930 . S
N2577 Li2553 1.990 . S
N2577 C2576 1.314 . S
N2577 C2580 1.279 . S
C2578 C2576 1.353 . S
C2578 C2581 1.348 . S
C2578 H2626 0.929 . S
C2579 C2580 1.358 . S
C2579 C2581 1.356 . S
C2579 H2627 0.930 . S
C2580 N2577 1.279 . S
C2580 C2579 1.358 . S
C2580 H2583 0.930 . S
C2581 C2578 1.348 . S
C2581 C2579 1.356 . S
H2582 C2576 0.930 . S
H2583 C2580 0.930 . S
C2584 C2586 1.348 . S
C2584 C2587 1.356 . S
C2584 O2614 1.325 . S
N2585 C2588 1.314 . S
N2585 C2589 1.279 . S
C2586 C2584 1.348 . S
C2586 C2588 1.353 . S
C2586 H2628 0.929 . S
C2587 C2584 1.356 . S
C2587 C2589 1.358 . S
C2587 H2629 0.930 . S
C2588 N2585 1.314 . S
C2588 C2586 1.353 . S
C2588 H2630 0.930 . S
C2589 N2585 1.279 . S
C2589 C2587 1.358 . S
C2589 H2631 0.930 . S
C2590 C2591 1.348 . S
C2590 C2592 1.356 . S
C2590 O2615 1.325 . S
C2591 C2590 1.348 . S
C2591 C2593 1.353 . S
C2591 H2632 0.929 . S
C2592 C2590 1.356 . S
C2592 C2594 1.358 . S
C2592 H2633 0.930 . S
C2593 C2591 1.353 . S
C2593 N2595 1.314 . S
C2593 H2634 0.930 . S
C2594 C2592 1.358 . S
C2594 N2595 1.279 . S
C2594 H2635 0.930 . S
N2595 C2593 1.314 . S
N2595 C2594 1.279 . S
C2596 C2598 1.353 . S
C2596 N2599 1.314 . S
C2596 H2602 0.930 . S
C2597 N2599 1.279 . S
C2597 C2600 1.358 . S
C2597 H2603 0.930 . S
C2598 C2596 1.353 . S
C2598 C2601 1.348 . S
C2598 H2636 0.929 . S
N2599 Li2554 1.990 . S
N2599 C2596 1.314 . S
N2599 C2597 1.279 . S
C2600 C2597 1.358 . S
C2600 C2601 1.356 . S
C2600 H2637 0.930 . S
C2601 C2598 1.348 . S
C2601 C2600 1.356 . S
H2602 C2596 0.930 . S
H2603 C2597 0.930 . S
C2604 N2605 1.314 . S
C2604 C2606 1.353 . S
C2604 H2610 0.930 . S
N2605 Li2555 1.990 . S
N2605 C2604 1.314 . S
N2605 C2608 1.279 . S
C2606 C2604 1.353 . S
C2606 C2609 1.348 . S
C2606 H2638 0.929 . S
C2607 C2608 1.358 . S
C2607 C2609 1.356 . S
C2607 H2639 0.930 . S
C2608 N2605 1.279 . S
C2608 C2607 1.358 . S
C2608 H2611 0.930 . S
C2609 C2606 1.348 . S
C2609 C2607 1.356 . S
H2610 C2604 0.930 . S
H2611 C2608 0.930 . S
O2612 Li2552 1.956 . S
O2612 Li2553 1.970 . S
O2612 Li2554 1.961 . S
O2612 C2556 1.325 . S
O2613 Li2552 1.970 . S
O2613 Li2553 1.956 . S
O2613 Li2555 1.961 . S
O2613 C2562 1.325 . S
O2614 Li2552 1.961 . S
O2614 Li2554 1.956 . S
O2614 Li2555 1.970 . S
O2614 C2584 1.325 . S
O2615 Li2553 1.961 . S
O2615 Li2554 1.970 . S
O2615 Li2555 1.956 . S
O2615 C2590 1.325 . S
H2616 C2558 0.929 . S
H2617 C2559 0.930 . S
H2618 C2560 0.930 . S
H2619 C2561 0.930 . S
H2620 C2563 0.930 . S
H2621 C2565 0.929 . S
H2622 C2566 0.930 . S
H2623 C2567 0.930 . S
H2624 C2570 0.930 . S
H2625 C2573 0.929 . S
H2626 C2578 0.929 . S
H2627 C2579 0.930 . S
H2628 C2586 0.929 . S
H2629 C2587 0.930 . S
H2630 C2588 0.930 . S
H2631 C2589 0.930 . S
H2632 C2591 0.929 . S
H2633 C2592 0.930 . S
H2634 C2593 0.930 . S
H2635 C2594 0.930 . S
H2636 C2598 0.929 . S
H2637 C2600 0.930 . S
H2638 C2606 0.929 . S
H2639 C2607 0.930 . S
Li2640 N2657 1.990 . S
Li2640 O2700 1.956 . S
Li2640 O2701 1.970 . S
Li2640 O2702 1.961 . S
Li2641 N2665 1.990 . S
Li2641 O2700 1.970 . S
Li2641 O2701 1.956 . S
Li2641 O2703 1.961 . S
Li2642 N2687 1.990 . S
Li2642 O2700 1.961 . S
Li2642 O2702 1.956 . S
Li2642 O2703 1.970 . S
Li2643 N2693 1.990 . S
Li2643 O2701 1.961 . S
Li2643 O2702 1.970 . S
Li2643 O2703 1.956 . S
C2644 C2646 1.348 . S
C2644 C2647 1.356 . S
C2644 O2700 1.325 . S
N2645 C2648 1.314 . S
N2645 C2649 1.279 . S
C2646 C2644 1.348 . S
C2646 C2648 1.353 . S
C2646 H2704 0.929 . S
C2647 C2644 1.356 . S
C2647 C2649 1.358 . S
C2647 H2705 0.930 . S
C2648 N2645 1.314 . S
C2648 C2646 1.353 . S
C2648 H2706 0.930 . S
C2649 N2645 1.279 . S
C2649 C2647 1.358 . S
C2649 H2707 0.930 . S
C2650 C2653 1.348 . S
C2650 C2654 1.356 . S
C2650 O2701 1.325 . S
C2651 N2652 1.279 . S
C2651 C2654 1.358 . S
C2651 H2708 0.930 . S
N2652 C2651 1.279 . S
N2652 C2655 1.314 . S
C2653 C2650 1.348 . S
C2653 C2655 1.353 . S
C2653 H2709 0.929 . S
C2654 C2650 1.356 . S
C2654 C2651 1.358 . S
C2654 H2710 0.930 . S
C2655 N2652 1.314 . S
C2655 C2653 1.353 . S
C2655 H2711 0.930 . S
C2656 N2657 1.314 . S
C2656 C2661 1.353 . S
C2656 H2662 0.930 . S
N2657 Li2640 1.990 . S
N2657 C2656 1.314 . S
N2657 C2659 1.279 . S
C2658 C2659 1.358 . S
C2658 C2660 1.356 . S
C2658 H2712 0.930 . S
C2659 N2657 1.279 . S
C2659 C2658 1.358 . S
C2659 H2663 0.930 . S
C2660 C2658 1.356 . S
C2660 C2661 1.348 . S
C2661 C2656 1.353 . S
C2661 C2660 1.348 . S
C2661 H2713 0.929 . S
H2662 C2656 0.930 . S
H2663 C2659 0.930 . S
C2664 N2665 1.314 . S
C2664 C2666 1.353 . S
C2664 H2670 0.930 . S
N2665 Li2641 1.990 . S
N2665 C2664 1.314 . S
N2665 C2668 1.279 . S
C2666 C2664 1.353 . S
C2666 C2669 1.348 . S
C2666 H2714 0.929 . S
C2667 C2668 1.358 . S
C2667 C2669 1.356 . S
C2667 H2715 0.930 . S
C2668 N2665 1.279 . S
C2668 C2667 1.358 . S
C2668 H2671 0.930 . S
C2669 C2666 1.348 . S
C2669 C2667 1.356 . S
H2670 C2664 0.930 . S
H2671 C2668 0.930 . S
C2672 C2674 1.348 . S
C2672 C2675 1.356 . S
C2672 O2702 1.325 . S
N2673 C2676 1.314 . S
N2673 C2677 1.279 . S
C2674 C2672 1.348 . S
C2674 C2676 1.353 . S
C2674 H2716 0.929 . S
C2675 C2672 1.356 . S
C2675 C2677 1.358 . S
C2675 H2717 0.930 . S
C2676 N2673 1.314 . S
C2676 C2674 1.353 . S
C2676 H2718 0.930 . S
C2677 N2673 1.279 . S
C2677 C2675 1.358 . S
C2677 H2719 0.930 . S
C2678 C2679 1.348 . S
C2678 C2680 1.356 . S
C2678 O2703 1.325 . S
C2679 C2678 1.348 . S
C2679 C2681 1.353 . S
C2679 H2720 0.929 . S
C2680 C2678 1.356 . S
C2680 C2682 1.358 . S
C2680 H2721 0.930 . S
C2681 C2679 1.353 . S
C2681 N2683 1.314 . S
C2681 H2722 0.930 . S
C2682 C2680 1.358 . S
C2682 N2683 1.279 . S
C2682 H2723 0.930 . S
N2683 C2681 1.314 . S
N2683 C2682 1.279 . S
C2684 C2686 1.353 . S
C2684 N2687 1.314 . S
C2684 H2690 0.930 . S
C2685 N2687 1.279 . S
C2685 C2688 1.358 . S
C2685 H2691 0.930 . S
C2686 C2684 1.353 . S
C2686 C2689 1.348 . S
C2686 H2724 0.929 . S
N2687 Li2642 1.990 . S
N2687 C2684 1.314 . S
N2687 C2685 1.279 . S
C2688 C2685 1.358 . S
C2688 C2689 1.356 . S
C2688 H2725 0.930 . S
C2689 C2686 1.348 . S
C2689 C2688 1.356 . S
H2690 C2684 0.930 . S
H2691 C2685 0.930 . S
C2692 N2693 1.314 . S
C2692 C2694 1.353 . S
C2692 H2698 0.930 . S
N2693 Li2643 1.990 . S
N2693 C2692 1.314 . S
N2693 C2696 1.279 . S
C2694 C2692 1.353 . S
C2694 C2697 1.348 . S
C2694 H2726 0.929 . S
C2695 C2696 1.358 . S
C2695 C2697 1.356 . S
C2695 H2727 0.930 . S
C2696 N2693 1.279 . S
C2696 C2695 1.358 . S
C2696 H2699 0.930 . S
C2697 C2694 1.348 . S
C2697 C2695 1.356 . S
H2698 C2692 0.930 . S
H2699 C2696 0.930 . S
O2700 Li2640 1.956 . S
O2700 Li2641 1.970 . S
O2700 Li2642 1.961 . S
O2700 C2644 1.325 . S
O2701 Li2640 1.970 . S
O2701 Li2641 1.956 . S
O2701 Li2643 1.961 . S
O2701 C2650 1.325 . S
O2702 Li2640 1.961 . S
O2702 Li2642 1.956 . S
O2702 Li2643 1.970 . S
O2702 C2672 1.325 . S
O2703 Li2641 1.961 . S
O2703 Li2642 1.970 . S
O2703 Li2643 1.956 . S
O2703 C2678 1.325 . S
H2704 C2646 0.929 . S
H2705 C2647 0.930 . S
H2706 C2648 0.930 . S
H2707 C2649 0.930 . S
H2708 C2651 0.930 . S
H2709 C2653 0.929 . S
H2710 C2654 0.930 . S
H2711 C2655 0.930 . S
H2712 C2658 0.930 . S
H2713 C2661 0.929 . S
H2714 C2666 0.929 . S
H2715 C2667 0.930 . S
H2716 C2674 0.929 . S
H2717 C2675 0.930 . S
H2718 C2676 0.930 . S
H2719 C2677 0.930 . S
H2720 C2679 0.929 . S
H2721 C2680 0.930 . S
H2722 C2681 0.930 . S
H2723 C2682 0.930 . S
H2724 C2686 0.929 . S
H2725 C2688 0.930 . S
H2726 C2694 0.929 . S
H2727 C2695 0.930 . S
Li2728 N2745 1.990 . S
Li2728 O2788 1.956 . S
Li2728 O2789 1.970 . S
Li2728 O2790 1.961 . S
Li2729 N2753 1.990 . S
Li2729 O2788 1.970 . S
Li2729 O2789 1.956 . S
Li2729 O2791 1.961 . S
Li2730 N2775 1.990 . S
Li2730 O2788 1.961 . S
Li2730 O2790 1.956 . S
Li2730 O2791 1.970 . S
Li2731 N2781 1.990 . S
Li2731 O2789 1.961 . S
Li2731 O2790 1.970 . S
Li2731 O2791 1.956 . S
C2732 C2734 1.348 . S
C2732 C2735 1.356 . S
C2732 O2788 1.325 . S
N2733 C2736 1.314 . S
N2733 C2737 1.279 . S
C2734 C2732 1.348 . S
C2734 C2736 1.353 . S
C2734 H2792 0.929 . S
C2735 C2732 1.356 . S
C2735 C2737 1.358 . S
C2735 H2793 0.930 . S
C2736 N2733 1.314 . S
C2736 C2734 1.353 . S
C2736 H2794 0.930 . S
C2737 N2733 1.279 . S
C2737 C2735 1.358 . S
C2737 H2795 0.930 . S
C2738 C2741 1.348 . S
C2738 C2742 1.356 . S
C2738 O2789 1.325 . S
C2739 N2740 1.279 . S
C2739 C2742 1.358 . S
C2739 H2796 0.930 . S
N2740 C2739 1.279 . S
N2740 C2743 1.314 . S
C2741 C2738 1.348 . S
C2741 C2743 1.353 . S
C2741 H2797 0.929 . S
C2742 C2738 1.356 . S
C2742 C2739 1.358 . S
C2742 H2798 0.930 . S
C2743 N2740 1.314 . S
C2743 C2741 1.353 . S
C2743 H2799 0.930 . S
C2744 N2745 1.314 . S
C2744 C2749 1.353 . S
C2744 H2750 0.930 . S
N2745 Li2728 1.990 . S
N2745 C2744 1.314 . S
N2745 C2747 1.279 . S
C2746 C2747 1.358 . S
C2746 C2748 1.356 . S
C2746 H2800 0.930 . S
C2747 N2745 1.279 . S
C2747 C2746 1.358 . S
C2747 H2751 0.930 . S
C2748 C2746 1.356 . S
C2748 C2749 1.348 . S
C2749 C2744 1.353 . S
C2749 C2748 1.348 . S
C2749 H2801 0.929 . S
H2750 C2744 0.930 . S
H2751 C2747 0.930 . S
C2752 N2753 1.314 . S
C2752 C2754 1.353 . S
C2752 H2758 0.930 . S
N2753 Li2729 1.990 . S
N2753 C2752 1.314 . S
N2753 C2756 1.279 . S
C2754 C2752 1.353 . S
C2754 C2757 1.348 . S
C2754 H2802 0.929 . S
C2755 C2756 1.358 . S
C2755 C2757 1.356 . S
C2755 H2803 0.930 . S
C2756 N2753 1.279 . S
C2756 C2755 1.358 . S
C2756 H2759 0.930 . S
C2757 C2754 1.348 . S
C2757 C2755 1.356 . S
H2758 C2752 0.930 . S
H2759 C2756 0.930 . S
C2760 C2762 1.348 . S
C2760 C2763 1.356 . S
C2760 O2790 1.325 . S
N2761 C2764 1.314 . S
N2761 C2765 1.279 . S
C2762 C2760 1.348 . S
C2762 C2764 1.353 . S
C2762 H2804 0.929 . S
C2763 C2760 1.356 . S
C2763 C2765 1.358 . S
C2763 H2805 0.930 . S
C2764 N2761 1.314 . S
C2764 C2762 1.353 . S
C2764 H2806 0.930 . S
C2765 N2761 1.279 . S
C2765 C2763 1.358 . S
C2765 H2807 0.930 . S
C2766 C2767 1.348 . S
C2766 C2768 1.356 . S
C2766 O2791 1.325 . S
C2767 C2766 1.348 . S
C2767 C2769 1.353 . S
C2767 H2808 0.929 . S
C2768 C2766 1.356 . S
C2768 C2770 1.358 . S
C2768 H2809 0.930 . S
C2769 C2767 1.353 . S
C2769 N2771 1.314 . S
C2769 H2810 0.930 . S
C2770 C2768 1.358 . S
C2770 N2771 1.279 . S
C2770 H2811 0.930 . S
N2771 C2769 1.314 . S
N2771 C2770 1.279 . S
C2772 C2774 1.353 . S
C2772 N2775 1.314 . S
C2772 H2778 0.930 . S
C2773 N2775 1.279 . S
C2773 C2776 1.358 . S
C2773 H2779 0.930 . S
C2774 C2772 1.353 . S
C2774 C2777 1.348 . S
C2774 H2812 0.929 . S
N2775 Li2730 1.990 . S
N2775 C2772 1.314 . S
N2775 C2773 1.279 . S
C2776 C2773 1.358 . S
C2776 C2777 1.356 . S
C2776 H2813 0.930 1_565 S
C2777 C2774 1.348 . S
C2777 C2776 1.356 . S
H2778 C2772 0.930 . S
H2779 C2773 0.930 . S
C2780 N2781 1.314 . S
C2780 C2782 1.353 . S
C2780 H2786 0.930 . S
N2781 Li2731 1.990 . S
N2781 C2780 1.314 . S
N2781 C2784 1.279 . S
C2782 C2780 1.353 . S
C2782 C2785 1.348 . S
C2782 H2814 0.929 . S
C2783 C2784 1.358 . S
C2783 C2785 1.356 . S
C2783 H2815 0.930 . S
C2784 N2781 1.279 . S
C2784 C2783 1.358 . S
C2784 H2787 0.930 . S
C2785 C2782 1.348 . S
C2785 C2783 1.356 . S
H2786 C2780 0.930 . S
H2787 C2784 0.930 . S
O2788 Li2728 1.956 . S
O2788 Li2729 1.970 . S
O2788 Li2730 1.961 . S
O2788 C2732 1.325 . S
O2789 Li2728 1.970 . S
O2789 Li2729 1.956 . S
O2789 Li2731 1.961 . S
O2789 C2738 1.325 . S
O2790 Li2728 1.961 . S
O2790 Li2730 1.956 . S
O2790 Li2731 1.970 . S
O2790 C2760 1.325 . S
O2791 Li2729 1.961 . S
O2791 Li2730 1.970 . S
O2791 Li2731 1.956 . S
O2791 C2766 1.325 . S
H2792 C2734 0.929 . S
H2793 C2735 0.930 . S
H2794 C2736 0.930 . S
H2795 C2737 0.930 . S
H2796 C2739 0.930 . S
H2797 C2741 0.929 . S
H2798 C2742 0.930 . S
H2799 C2743 0.930 . S
H2800 C2746 0.930 . S
H2801 C2749 0.929 . S
H2802 C2754 0.929 . S
H2803 C2755 0.930 . S
H2804 C2762 0.929 . S
H2805 C2763 0.930 . S
H2806 C2764 0.930 . S
H2807 C2765 0.930 . S
H2808 C2767 0.929 . S
H2809 C2768 0.930 . S
H2810 C2769 0.930 . S
H2811 C2770 0.930 . S
H2812 C2774 0.929 . S
H2813 C2776 0.930 1_545 S
H2814 C2782 0.929 . S
H2815 C2783 0.930 . S
Li2816 N2833 1.990 . S
Li2816 O2876 1.956 . S
Li2816 O2877 1.970 . S
Li2816 O2878 1.961 . S
Li2817 N2841 1.990 . S
Li2817 O2876 1.970 . S
Li2817 O2877 1.956 . S
Li2817 O2879 1.961 . S
Li2818 N2863 1.990 . S
Li2818 O2876 1.961 . S
Li2818 O2878 1.956 . S
Li2818 O2879 1.970 . S
Li2819 N2869 1.990 . S
Li2819 O2877 1.961 . S
Li2819 O2878 1.970 . S
Li2819 O2879 1.956 . S
C2820 C2822 1.348 . S
C2820 C2823 1.356 . S
C2820 O2876 1.325 . S
N2821 C2824 1.314 . S
N2821 C2825 1.279 . S
C2822 C2820 1.348 . S
C2822 C2824 1.353 . S
C2822 H2880 0.929 . S
C2823 C2820 1.356 . S
C2823 C2825 1.358 . S
C2823 H2881 0.930 . S
C2824 N2821 1.314 . S
C2824 C2822 1.353 . S
C2824 H2882 0.930 . S
C2825 N2821 1.279 . S
C2825 C2823 1.358 . S
C2825 H2883 0.930 . S
C2826 C2829 1.348 . S
C2826 C2830 1.356 . S
C2826 O2877 1.325 . S
C2827 N2828 1.279 . S
C2827 C2830 1.358 . S
C2827 H2884 0.930 . S
N2828 C2827 1.279 . S
N2828 C2831 1.314 . S
C2829 C2826 1.348 . S
C2829 C2831 1.353 . S
C2829 H2885 0.929 . S
C2830 C2826 1.356 . S
C2830 C2827 1.358 . S
C2830 H2886 0.930 . S
C2831 N2828 1.314 . S
C2831 C2829 1.353 . S
C2831 H2887 0.930 . S
C2832 N2833 1.314 . S
C2832 C2837 1.353 . S
C2832 H2838 0.930 . S
N2833 Li2816 1.990 . S
N2833 C2832 1.314 . S
N2833 C2835 1.279 . S
C2834 C2835 1.358 . S
C2834 C2836 1.356 . S
C2834 H2888 0.930 . S
C2835 N2833 1.279 . S
C2835 C2834 1.358 . S
C2835 H2839 0.930 . S
C2836 C2834 1.356 . S
C2836 C2837 1.348 . S
C2837 C2832 1.353 . S
C2837 C2836 1.348 . S
C2837 H2889 0.929 . S
H2838 C2832 0.930 . S
H2839 C2835 0.930 . S
C2840 N2841 1.314 . S
C2840 C2842 1.353 . S
C2840 H2846 0.930 . S
N2841 Li2817 1.990 . S
N2841 C2840 1.314 . S
N2841 C2844 1.279 . S
C2842 C2840 1.353 . S
C2842 C2845 1.348 . S
C2842 H2890 0.929 . S
C2843 C2844 1.358 . S
C2843 C2845 1.356 . S
C2843 H2891 0.930 . S
C2844 N2841 1.279 . S
C2844 C2843 1.358 . S
C2844 H2847 0.930 . S
C2845 C2842 1.348 . S
C2845 C2843 1.356 . S
H2846 C2840 0.930 . S
H2847 C2844 0.930 . S
C2848 C2850 1.348 . S
C2848 C2851 1.356 . S
C2848 O2878 1.325 . S
N2849 C2852 1.314 . S
N2849 C2853 1.279 . S
C2850 C2848 1.348 . S
C2850 C2852 1.353 . S
C2850 H2892 0.929 . S
C2851 C2848 1.356 . S
C2851 C2853 1.358 . S
C2851 H2893 0.930 . S
C2852 N2849 1.314 . S
C2852 C2850 1.353 . S
C2852 H2894 0.930 . S
C2853 N2849 1.279 . S
C2853 C2851 1.358 . S
C2853 H2895 0.930 . S
C2854 C2855 1.348 . S
C2854 C2856 1.356 . S
C2854 O2879 1.325 . S
C2855 C2854 1.348 . S
C2855 C2857 1.353 . S
C2855 H2896 0.929 . S
C2856 C2854 1.356 . S
C2856 C2858 1.358 . S
C2856 H2897 0.930 . S
C2857 C2855 1.353 . S
C2857 N2859 1.314 . S
C2857 H2898 0.930 . S
C2858 C2856 1.358 . S
C2858 N2859 1.279 . S
C2858 H2899 0.930 . S
N2859 C2857 1.314 . S
N2859 C2858 1.279 . S
C2860 C2862 1.353 . S
C2860 N2863 1.314 . S
C2860 H2866 0.930 . S
C2861 N2863 1.279 . S
C2861 C2864 1.358 . S
C2861 H2867 0.930 . S
C2862 C2860 1.353 . S
C2862 C2865 1.348 . S
C2862 H2900 0.929 . S
N2863 Li2818 1.990 . S
N2863 C2860 1.314 . S
N2863 C2861 1.279 . S
C2864 C2861 1.358 . S
C2864 C2865 1.356 . S
C2864 H2901 0.930 . S
C2865 C2862 1.348 . S
C2865 C2864 1.356 . S
H2866 C2860 0.930 . S
H2867 C2861 0.930 . S
C2868 N2869 1.314 . S
C2868 C2870 1.353 . S
C2868 H2874 0.930 . S
N2869 Li2819 1.990 . S
N2869 C2868 1.314 . S
N2869 C2872 1.279 . S
C2870 C2868 1.353 . S
C2870 C2873 1.348 . S
C2870 H2902 0.929 . S
C2871 C2872 1.358 . S
C2871 C2873 1.356 . S
C2871 H2903 0.930 . S
C2872 N2869 1.279 . S
C2872 C2871 1.358 . S
C2872 H2875 0.930 . S
C2873 C2870 1.348 . S
C2873 C2871 1.356 . S
H2874 C2868 0.930 . S
H2875 C2872 0.930 . S
O2876 Li2816 1.956 . S
O2876 Li2817 1.970 . S
O2876 Li2818 1.961 . S
O2876 C2820 1.325 . S
O2877 Li2816 1.970 . S
O2877 Li2817 1.956 . S
O2877 Li2819 1.961 . S
O2877 C2826 1.325 . S
O2878 Li2816 1.961 . S
O2878 Li2818 1.956 . S
O2878 Li2819 1.970 . S
O2878 C2848 1.325 . S
O2879 Li2817 1.961 . S
O2879 Li2818 1.970 . S
O2879 Li2819 1.956 . S
O2879 C2854 1.325 . S
H2880 C2822 0.929 . S
H2881 C2823 0.930 . S
H2882 C2824 0.930 . S
H2883 C2825 0.930 . S
H2884 C2827 0.930 . S
H2885 C2829 0.929 . S
H2886 C2830 0.930 . S
H2887 C2831 0.930 . S
H2888 C2834 0.930 . S
H2889 C2837 0.929 . S
H2890 C2842 0.929 . S
H2891 C2843 0.930 . S
H2892 C2850 0.929 . S
H2893 C2851 0.930 . S
H2894 C2852 0.930 . S
H2895 C2853 0.930 . S
H2896 C2855 0.929 . S
H2897 C2856 0.930 . S
H2898 C2857 0.930 . S
H2899 C2858 0.930 . S
H2900 C2862 0.929 . S
H2901 C2864 0.930 . S
H2902 C2870 0.929 . S
H2903 C2871 0.930 . S
Li2904 N2921 1.990 . S
Li2904 O2964 1.956 . S
Li2904 O2965 1.970 . S
Li2904 O2966 1.961 . S
Li2905 N2929 1.990 . S
Li2905 O2964 1.970 . S
Li2905 O2965 1.956 . S
Li2905 O2967 1.961 . S
Li2906 N2951 1.990 . S
Li2906 O2964 1.961 . S
Li2906 O2966 1.956 . S
Li2906 O2967 1.970 . S
Li2907 N2957 1.990 . S
Li2907 O2965 1.961 . S
Li2907 O2966 1.970 . S
Li2907 O2967 1.956 . S
C2908 C2910 1.348 . S
C2908 C2911 1.356 . S
C2908 O2964 1.325 . S
N2909 C2912 1.314 . S
N2909 C2913 1.279 . S
C2910 C2908 1.348 . S
C2910 C2912 1.353 . S
C2910 H2968 0.929 . S
C2911 C2908 1.356 . S
C2911 C2913 1.358 . S
C2911 H2969 0.930 . S
C2912 N2909 1.314 . S
C2912 C2910 1.353 . S
C2912 H2970 0.930 . S
C2913 N2909 1.279 . S
C2913 C2911 1.358 . S
C2913 H2971 0.930 . S
C2914 C2917 1.348 . S
C2914 C2918 1.356 . S
C2914 O2965 1.325 . S
C2915 N2916 1.279 . S
C2915 C2918 1.358 . S
C2915 H2972 0.930 . S
N2916 C2915 1.279 . S
N2916 C2919 1.314 . S
C2917 C2914 1.348 . S
C2917 C2919 1.353 . S
C2917 H2973 0.929 . S
C2918 C2914 1.356 . S
C2918 C2915 1.358 . S
C2918 H2974 0.930 . S
C2919 N2916 1.314 . S
C2919 C2917 1.353 . S
C2919 H2975 0.930 . S
C2920 N2921 1.314 . S
C2920 C2925 1.353 . S
C2920 H2926 0.930 . S
N2921 Li2904 1.990 . S
N2921 C2920 1.314 . S
N2921 C2923 1.279 . S
C2922 C2923 1.358 . S
C2922 C2924 1.356 . S
C2922 H2976 0.930 . S
C2923 N2921 1.279 . S
C2923 C2922 1.358 . S
C2923 H2927 0.930 . S
C2924 C2922 1.356 . S
C2924 C2925 1.348 . S
C2925 C2920 1.353 . S
C2925 C2924 1.348 . S
C2925 H2977 0.929 . S
H2926 C2920 0.930 . S
H2927 C2923 0.930 . S
C2928 N2929 1.314 . S
C2928 C2930 1.353 . S
C2928 H2934 0.930 . S
N2929 Li2905 1.990 . S
N2929 C2928 1.314 . S
N2929 C2932 1.279 . S
C2930 C2928 1.353 . S
C2930 C2933 1.348 . S
C2930 H2978 0.929 . S
C2931 C2932 1.358 . S
C2931 C2933 1.356 . S
C2931 H2979 0.930 . S
C2932 N2929 1.279 . S
C2932 C2931 1.358 . S
C2932 H2935 0.930 . S
C2933 C2930 1.348 . S
C2933 C2931 1.356 . S
H2934 C2928 0.930 . S
H2935 C2932 0.930 . S
C2936 C2938 1.348 . S
C2936 C2939 1.356 . S
C2936 O2966 1.325 . S
N2937 C2940 1.314 . S
N2937 C2941 1.279 . S
C2938 C2936 1.348 . S
C2938 C2940 1.353 . S
C2938 H2980 0.929 . S
C2939 C2936 1.356 . S
C2939 C2941 1.358 . S
C2939 H2981 0.930 . S
C2940 N2937 1.314 . S
C2940 C2938 1.353 . S
C2940 H2982 0.930 . S
C2941 N2937 1.279 . S
C2941 C2939 1.358 . S
C2941 H2983 0.930 . S
C2942 C2943 1.348 . S
C2942 C2944 1.356 . S
C2942 O2967 1.325 . S
C2943 C2942 1.348 . S
C2943 C2945 1.353 . S
C2943 H2984 0.929 . S
C2944 C2942 1.356 . S
C2944 C2946 1.358 . S
C2944 H2985 0.930 . S
C2945 C2943 1.353 . S
C2945 N2947 1.314 . S
C2945 H2986 0.930 . S
C2946 C2944 1.358 . S
C2946 N2947 1.279 . S
C2946 H2987 0.930 . S
N2947 C2945 1.314 . S
N2947 C2946 1.279 . S
C2948 C2950 1.353 . S
C2948 N2951 1.314 . S
C2948 H2954 0.930 . S
C2949 N2951 1.279 . S
C2949 C2952 1.358 . S
C2949 H2955 0.930 . S
C2950 C2948 1.353 . S
C2950 C2953 1.348 . S
C2950 H2988 0.929 . S
N2951 Li2906 1.990 . S
N2951 C2948 1.314 . S
N2951 C2949 1.279 . S
C2952 C2949 1.358 . S
C2952 C2953 1.356 . S
C2952 H2989 0.930 . S
C2953 C2950 1.348 . S
C2953 C2952 1.356 . S
H2954 C2948 0.930 . S
H2955 C2949 0.930 . S
C2956 N2957 1.314 . S
C2956 C2958 1.353 . S
C2956 H2962 0.930 . S
N2957 Li2907 1.990 . S
N2957 C2956 1.314 . S
N2957 C2960 1.279 . S
C2958 C2956 1.353 . S
C2958 C2961 1.348 . S
C2958 H2990 0.929 . S
C2959 C2960 1.358 . S
C2959 C2961 1.356 . S
C2959 H2991 0.930 . S
C2960 N2957 1.279 . S
C2960 C2959 1.358 . S
C2960 H2963 0.930 . S
C2961 C2958 1.348 . S
C2961 C2959 1.356 . S
H2962 C2956 0.930 . S
H2963 C2960 0.930 . S
O2964 Li2904 1.956 . S
O2964 Li2905 1.970 . S
O2964 Li2906 1.961 . S
O2964 C2908 1.325 . S
O2965 Li2904 1.970 . S
O2965 Li2905 1.956 . S
O2965 Li2907 1.961 . S
O2965 C2914 1.325 . S
O2966 Li2904 1.961 . S
O2966 Li2906 1.956 . S
O2966 Li2907 1.970 . S
O2966 C2936 1.325 . S
O2967 Li2905 1.961 . S
O2967 Li2906 1.970 . S
O2967 Li2907 1.956 . S
O2967 C2942 1.325 . S
H2968 C2910 0.929 . S
H2969 C2911 0.930 . S
H2970 C2912 0.930 . S
H2971 C2913 0.930 . S
H2972 C2915 0.930 . S
H2973 C2917 0.929 . S
H2974 C2918 0.930 . S
H2975 C2919 0.930 . S
H2976 C2922 0.930 . S
H2977 C2925 0.929 . S
H2978 C2930 0.929 . S
H2979 C2931 0.930 . S
H2980 C2938 0.929 . S
H2981 C2939 0.930 . S
H2982 C2940 0.930 . S
H2983 C2941 0.930 . S
H2984 C2943 0.929 . S
H2985 C2944 0.930 . S
H2986 C2945 0.930 . S
H2987 C2946 0.930 . S
H2988 C2950 0.929 . S
H2989 C2952 0.930 . S
H2990 C2958 0.929 . S
H2991 C2959 0.930 . S
Li2992 N3009 1.990 . S
Li2992 O3052 1.956 . S
Li2992 O3053 1.970 . S
Li2992 O3054 1.961 . S
Li2993 N3017 1.990 . S
Li2993 O3052 1.970 . S
Li2993 O3053 1.956 . S
Li2993 O3055 1.961 . S
Li2994 N3039 1.990 . S
Li2994 O3052 1.961 . S
Li2994 O3054 1.956 . S
Li2994 O3055 1.970 . S
Li2995 N3045 1.990 . S
Li2995 O3053 1.961 . S
Li2995 O3054 1.970 . S
Li2995 O3055 1.956 . S
C2996 C2998 1.348 . S
C2996 C2999 1.356 . S
C2996 O3052 1.325 . S
N2997 C3000 1.314 . S
N2997 C3001 1.279 . S
C2998 C2996 1.348 . S
C2998 C3000 1.353 . S
C2998 H3056 0.929 . S
C2999 C2996 1.356 . S
C2999 C3001 1.358 . S
C2999 H3057 0.930 . S
C3000 N2997 1.314 . S
C3000 C2998 1.353 . S
C3000 H3058 0.930 . S
C3001 N2997 1.279 . S
C3001 C2999 1.358 . S
C3001 H3059 0.930 . S
C3002 C3005 1.348 . S
C3002 C3006 1.356 . S
C3002 O3053 1.325 . S
C3003 N3004 1.279 . S
C3003 C3006 1.358 . S
C3003 H3060 0.930 . S
N3004 C3003 1.279 . S
N3004 C3007 1.314 . S
C3005 C3002 1.348 . S
C3005 C3007 1.353 . S
C3005 H3061 0.929 . S
C3006 C3002 1.356 . S
C3006 C3003 1.358 . S
C3006 H3062 0.930 . S
C3007 N3004 1.314 . S
C3007 C3005 1.353 . S
C3007 H3063 0.930 . S
C3008 N3009 1.314 . S
C3008 C3013 1.353 . S
C3008 H3014 0.930 . S
N3009 Li2992 1.990 . S
N3009 C3008 1.314 . S
N3009 C3011 1.279 . S
C3010 C3011 1.358 . S
C3010 C3012 1.356 . S
C3010 H3064 0.930 . S
C3011 N3009 1.279 . S
C3011 C3010 1.358 . S
C3011 H3015 0.930 . S
C3012 C3010 1.356 . S
C3012 C3013 1.348 . S
C3013 C3008 1.353 . S
C3013 C3012 1.348 . S
C3013 H3065 0.929 . S
H3014 C3008 0.930 . S
H3015 C3011 0.930 . S
C3016 N3017 1.314 . S
C3016 C3018 1.353 . S
C3016 H3022 0.930 . S
N3017 Li2993 1.990 . S
N3017 C3016 1.314 . S
N3017 C3020 1.279 . S
C3018 C3016 1.353 . S
C3018 C3021 1.348 . S
C3018 H3066 0.929 . S
C3019 C3020 1.358 . S
C3019 C3021 1.356 . S
C3019 H3067 0.930 . S
C3020 N3017 1.279 . S
C3020 C3019 1.358 . S
C3020 H3023 0.930 . S
C3021 C3018 1.348 . S
C3021 C3019 1.356 . S
H3022 C3016 0.930 . S
H3023 C3020 0.930 . S
C3024 C3026 1.348 . S
C3024 C3027 1.356 . S
C3024 O3054 1.325 . S
N3025 C3028 1.314 . S
N3025 C3029 1.279 . S
C3026 C3024 1.348 . S
C3026 C3028 1.353 . S
C3026 H3068 0.929 . S
C3027 C3024 1.356 . S
C3027 C3029 1.358 . S
C3027 H3069 0.930 . S
C3028 N3025 1.314 . S
C3028 C3026 1.353 . S
C3028 H3070 0.930 . S
C3029 N3025 1.279 . S
C3029 C3027 1.358 . S
C3029 H3071 0.930 . S
C3030 C3031 1.348 . S
C3030 C3032 1.356 . S
C3030 O3055 1.325 . S
C3031 C3030 1.348 . S
C3031 C3033 1.353 . S
C3031 H3072 0.929 . S
C3032 C3030 1.356 . S
C3032 C3034 1.358 . S
C3032 H3073 0.930 . S
C3033 C3031 1.353 . S
C3033 N3035 1.314 . S
C3033 H3074 0.930 . S
C3034 C3032 1.358 . S
C3034 N3035 1.279 . S
C3034 H3075 0.930 . S
N3035 C3033 1.314 . S
N3035 C3034 1.279 . S
C3036 C3038 1.353 . S
C3036 N3039 1.314 . S
C3036 H3042 0.930 . S
C3037 N3039 1.279 . S
C3037 C3040 1.358 . S
C3037 H3043 0.930 . S
C3038 C3036 1.353 . S
C3038 C3041 1.348 . S
C3038 H3076 0.929 . S
N3039 Li2994 1.990 . S
N3039 C3036 1.314 . S
N3039 C3037 1.279 . S
C3040 C3037 1.358 . S
C3040 C3041 1.356 . S
C3040 H3077 0.930 . S
C3041 C3038 1.348 . S
C3041 C3040 1.356 . S
H3042 C3036 0.930 . S
H3043 C3037 0.930 . S
C3044 N3045 1.314 . S
C3044 C3046 1.353 . S
C3044 H3050 0.930 . S
N3045 Li2995 1.990 . S
N3045 C3044 1.314 . S
N3045 C3048 1.279 . S
C3046 C3044 1.353 . S
C3046 C3049 1.348 . S
C3046 H3078 0.929 . S
C3047 C3048 1.358 . S
C3047 C3049 1.356 . S
C3047 H3079 0.930 . S
C3048 N3045 1.279 . S
C3048 C3047 1.358 . S
C3048 H3051 0.930 . S
C3049 C3046 1.348 . S
C3049 C3047 1.356 . S
H3050 C3044 0.930 . S
H3051 C3048 0.930 . S
O3052 Li2992 1.956 . S
O3052 Li2993 1.970 . S
O3052 Li2994 1.961 . S
O3052 C2996 1.325 . S
O3053 Li2992 1.970 . S
O3053 Li2993 1.956 . S
O3053 Li2995 1.961 . S
O3053 C3002 1.325 . S
O3054 Li2992 1.961 . S
O3054 Li2994 1.956 . S
O3054 Li2995 1.970 . S
O3054 C3024 1.325 . S
O3055 Li2993 1.961 . S
O3055 Li2994 1.970 . S
O3055 Li2995 1.956 . S
O3055 C3030 1.325 . S
H3056 C2998 0.929 . S
H3057 C2999 0.930 . S
H3058 C3000 0.930 . S
H3059 C3001 0.930 . S
H3060 C3003 0.930 . S
H3061 C3005 0.929 . S
H3062 C3006 0.930 . S
H3063 C3007 0.930 . S
H3064 C3010 0.930 . S
H3065 C3013 0.929 . S
H3066 C3018 0.929 . S
H3067 C3019 0.930 . S
H3068 C3026 0.929 . S
H3069 C3027 0.930 . S
H3070 C3028 0.930 . S
H3071 C3029 0.930 . S
H3072 C3031 0.929 . S
H3073 C3032 0.930 . S
H3074 C3033 0.930 . S
H3075 C3034 0.930 . S
H3076 C3038 0.929 . S
H3077 C3040 0.930 . S
H3078 C3046 0.929 . S
H3079 C3047 0.930 . S
Li3080 N3097 1.990 . S
Li3080 O3140 1.956 . S
Li3080 O3141 1.970 . S
Li3080 O3142 1.961 . S
Li3081 N3105 1.990 . S
Li3081 O3140 1.970 . S
Li3081 O3141 1.956 . S
Li3081 O3143 1.961 . S
Li3082 N3127 1.990 . S
Li3082 O3140 1.961 . S
Li3082 O3142 1.956 . S
Li3082 O3143 1.970 . S
Li3083 N3133 1.990 . S
Li3083 O3141 1.961 . S
Li3083 O3142 1.970 . S
Li3083 O3143 1.956 . S
C3084 C3086 1.348 . S
C3084 C3087 1.356 . S
C3084 O3140 1.325 . S
N3085 C3088 1.314 . S
N3085 C3089 1.279 . S
C3086 C3084 1.348 . S
C3086 C3088 1.353 . S
C3086 H3144 0.929 . S
C3087 C3084 1.356 . S
C3087 C3089 1.358 . S
C3087 H3145 0.930 . S
C3088 N3085 1.314 . S
C3088 C3086 1.353 . S
C3088 H3146 0.930 . S
C3089 N3085 1.279 . S
C3089 C3087 1.358 . S
C3089 H3147 0.930 . S
C3090 C3093 1.348 . S
C3090 C3094 1.356 . S
C3090 O3141 1.325 . S
C3091 N3092 1.279 . S
C3091 C3094 1.358 . S
C3091 H3148 0.930 . S
N3092 C3091 1.279 . S
N3092 C3095 1.314 . S
C3093 C3090 1.348 . S
C3093 C3095 1.353 . S
C3093 H3149 0.929 . S
C3094 C3090 1.356 . S
C3094 C3091 1.358 . S
C3094 H3150 0.930 . S
C3095 N3092 1.314 . S
C3095 C3093 1.353 . S
C3095 H3151 0.930 . S
C3096 N3097 1.314 . S
C3096 C3101 1.353 . S
C3096 H3102 0.930 . S
N3097 Li3080 1.990 . S
N3097 C3096 1.314 . S
N3097 C3099 1.279 . S
C3098 C3099 1.358 . S
C3098 C3100 1.356 . S
C3098 H3152 0.930 . S
C3099 N3097 1.279 . S
C3099 C3098 1.358 . S
C3099 H3103 0.930 . S
C3100 C3098 1.356 . S
C3100 C3101 1.348 . S
C3101 C3096 1.353 . S
C3101 C3100 1.348 . S
C3101 H3153 0.929 . S
H3102 C3096 0.930 . S
H3103 C3099 0.930 . S
C3104 N3105 1.314 . S
C3104 C3106 1.353 . S
C3104 H3110 0.930 . S
N3105 Li3081 1.990 . S
N3105 C3104 1.314 . S
N3105 C3108 1.279 . S
C3106 C3104 1.353 . S
C3106 C3109 1.348 . S
C3106 H3154 0.929 . S
C3107 C3108 1.358 . S
C3107 C3109 1.356 . S
C3107 H3155 0.930 . S
C3108 N3105 1.279 . S
C3108 C3107 1.358 . S
C3108 H3111 0.930 . S
C3109 C3106 1.348 . S
C3109 C3107 1.356 . S
H3110 C3104 0.930 . S
H3111 C3108 0.930 . S
C3112 C3114 1.348 . S
C3112 C3115 1.356 . S
C3112 O3142 1.325 . S
N3113 C3116 1.314 1_545 S
N3113 C3117 1.319 . S
C3114 C3112 1.348 . S
C3114 C3116 1.353 . S
C3114 H3156 0.929 . S
C3115 C3112 1.356 . S
C3115 C3117 1.305 1_565 S
C3115 H3157 0.930 . S
C3116 N3113 1.314 1_565 S
C3116 C3114 1.353 . S
C3116 H3158 0.930 . S
C3117 N3113 1.319 . S
C3117 C3115 1.305 1_545 S
C3117 H3159 0.948 . S
C3118 C3119 1.348 . S
C3118 C3120 1.356 . S
C3118 O3143 1.325 . S
C3119 C3118 1.348 . S
C3119 C3121 1.353 . S
C3119 H3160 0.929 . S
C3120 C3118 1.356 . S
C3120 C3122 1.358 . S
C3120 H3161 0.930 . S
C3121 C3119 1.353 . S
C3121 N3123 1.314 . S
C3121 H3162 0.930 . S
C3122 C3120 1.358 . S
C3122 N3123 1.279 . S
C3122 H3163 0.930 . S
N3123 C3121 1.314 . S
N3123 C3122 1.279 . S
C3124 C3126 1.353 . S
C3124 N3127 1.314 . S
C3124 H3130 0.930 . S
C3125 N3127 1.279 . S
C3125 C3128 1.358 . S
C3125 H3131 0.930 . S
C3126 C3124 1.353 . S
C3126 C3129 1.348 . S
C3126 H3164 0.929 . S
N3127 Li3082 1.990 . S
N3127 C3124 1.314 . S
N3127 C3125 1.279 . S
C3128 C3125 1.358 . S
C3128 C3129 1.356 . S
C3128 H3165 0.930 . S
C3129 C3126 1.348 . S
C3129 C3128 1.356 . S
H3130 C3124 0.930 . S
H3131 C3125 0.930 . S
C3132 N3133 1.314 . S
C3132 C3134 1.353 . S
C3132 H3138 0.930 . S
N3133 Li3083 1.990 . S
N3133 C3132 1.314 . S
N3133 C3136 1.279 . S
C3134 C3132 1.353 . S
C3134 C3137 1.348 . S
C3134 H3166 0.929 . S
C3135 C3136 1.358 . S
C3135 C3137 1.356 . S
C3135 H3167 0.930 . S
C3136 N3133 1.279 . S
C3136 C3135 1.358 . S
C3136 H3139 0.930 . S
C3137 C3134 1.348 . S
C3137 C3135 1.356 . S
H3138 C3132 0.930 . S
H3139 C3136 0.930 . S
O3140 Li3080 1.956 . S
O3140 Li3081 1.970 . S
O3140 Li3082 1.961 . S
O3140 C3084 1.325 . S
O3141 Li3080 1.970 . S
O3141 Li3081 1.956 . S
O3141 Li3083 1.961 . S
O3141 C3090 1.325 . S
O3142 Li3080 1.961 . S
O3142 Li3082 1.956 . S
O3142 Li3083 1.970 . S
O3142 C3112 1.325 . S
O3143 Li3081 1.961 . S
O3143 Li3082 1.970 . S
O3143 Li3083 1.956 . S
O3143 C3118 1.325 . S
H3144 C3086 0.929 . S
H3145 C3087 0.930 . S
H3146 C3088 0.930 . S
H3147 C3089 0.930 . S
H3148 C3091 0.930 . S
H3149 C3093 0.929 . S
H3150 C3094 0.930 . S
H3151 C3095 0.930 . S
H3152 C3098 0.930 . S
H3153 C3101 0.929 . S
H3154 C3106 0.929 . S
H3155 C3107 0.930 . S
H3156 C3114 0.929 . S
H3157 C3115 0.930 . S
H3158 C3116 0.930 . S
H3159 C3117 0.948 . S
H3160 C3119 0.929 . S
H3161 C3120 0.930 . S
H3162 C3121 0.930 . S
H3163 C3122 0.930 . S
H3164 C3126 0.929 . S
H3165 C3128 0.930 . S
H3166 C3134 0.929 . S
H3167 C3135 0.930 . S
C3168 C3169 1.369 . S
C3168 C3170 1.419 . S
C3168 H3172 0.930 . S
C3169 C3168 1.369 . S
C3169 C3178 1.429 . S
C3170 C3168 1.419 . S
C3170 C3171 1.363 . S
C3170 H3173 0.929 . S
C3171 C3170 1.363 . S
C3171 C3177 1.428 . S
H3172 C3168 0.930 . S
H3173 C3170 0.929 . S
S3174 N3175 1.613 . S
S3174 N3176 1.610 . S
N3175 S3174 1.613 . S
N3175 C3178 1.350 . S
N3176 S3174 1.610 . S
N3176 C3177 1.351 . S
C3177 C3171 1.428 . S
C3177 N3176 1.351 . S
C3177 C3178 1.434 . S
C3178 C3169 1.429 . S
C3178 N3175 1.350 . S
C3178 C3177 1.434 . S
C3179 C3180 1.369 . S
C3179 C3181 1.419 . S
C3179 H3183 0.930 . S
C3180 C3179 1.369 . S
C3180 C3189 1.429 . S
C3181 C3179 1.419 . S
C3181 C3182 1.363 . S
C3181 H3184 0.929 . S
C3182 C3181 1.363 . S
C3182 C3188 1.428 . S
H3183 C3179 0.930 . S
H3184 C3181 0.929 . S
S3185 N3186 1.613 . S
S3185 N3187 1.610 . S
N3186 S3185 1.613 . S
N3186 C3189 1.350 . S
N3187 S3185 1.610 . S
N3187 C3188 1.351 . S
C3188 C3182 1.428 . S
C3188 N3187 1.351 . S
C3188 C3189 1.434 . S
C3189 C3180 1.429 . S
C3189 N3186 1.350 . S
C3189 C3188 1.434 . S
C3190 C3191 1.369 . S
C3190 C3192 1.419 . S
C3190 H3194 0.930 . S
C3191 C3190 1.369 . S
C3191 C3200 1.429 . S
C3192 C3190 1.419 . S
C3192 C3193 1.363 . S
C3192 H3195 0.929 . S
C3193 C3192 1.363 . S
C3193 C3199 1.428 . S
H3194 C3190 0.930 . S
H3195 C3192 0.929 . S
S3196 N3197 1.613 . S
S3196 N3198 1.610 . S
N3197 S3196 1.613 . S
N3197 C3200 1.350 . S
N3198 S3196 1.610 . S
N3198 C3199 1.351 . S
C3199 C3193 1.428 . S
C3199 N3198 1.351 . S
C3199 C3200 1.434 . S
C3200 C3191 1.429 . S
C3200 N3197 1.350 . S
C3200 C3199 1.434 . S
C3201 C3202 1.369 . S
C3201 C3203 1.419 . S
C3201 H3205 0.930 . S
C3202 C3201 1.369 . S
C3202 C3211 1.429 . S
C3203 C3201 1.419 . S
C3203 C3204 1.363 . S
C3203 H3206 0.929 . S
C3204 C3203 1.363 . S
C3204 C3210 1.428 . S
H3205 C3201 0.930 . S
H3206 C3203 0.929 . S
S3207 N3208 1.613 . S
S3207 N3209 1.610 . S
N3208 S3207 1.613 . S
N3208 C3211 1.350 . S
N3209 S3207 1.610 . S
N3209 C3210 1.351 . S
C3210 C3204 1.428 . S
C3210 N3209 1.351 . S
C3210 C3211 1.434 . S
C3211 C3202 1.429 . S
C3211 N3208 1.350 . S
C3211 C3210 1.434 . S
C3212 C3213 1.369 . S
C3212 C3214 1.419 . S
C3212 H3216 0.930 . S
C3213 C3212 1.369 . S
C3213 C3222 1.429 . S
C3214 C3212 1.419 . S
C3214 C3215 1.363 . S
C3214 H3217 0.929 . S
C3215 C3214 1.363 . S
C3215 C3221 1.428 . S
H3216 C3212 0.930 . S
H3217 C3214 0.929 . S
S3218 N3219 1.613 . S
S3218 N3220 1.610 . S
N3219 S3218 1.613 . S
N3219 C3222 1.350 . S
N3220 S3218 1.610 . S
N3220 C3221 1.351 . S
C3221 C3215 1.428 . S
C3221 N3220 1.351 . S
C3221 C3222 1.434 . S
C3222 C3213 1.429 . S
C3222 N3219 1.350 . S
C3222 C3221 1.434 . S
C3223 C3224 1.369 . S
C3223 C3225 1.419 . S
C3223 H3227 0.930 . S
C3224 C3223 1.369 . S
C3224 C3233 1.429 . S
C3225 C3223 1.419 . S
C3225 C3226 1.363 . S
C3225 H3228 0.929 . S
C3226 C3225 1.363 . S
C3226 C3232 1.428 . S
H3227 C3223 0.930 . S
H3228 C3225 0.929 . S
S3229 N3230 1.613 . S
S3229 N3231 1.610 . S
N3230 S3229 1.613 . S
N3230 C3233 1.350 . S
N3231 S3229 1.610 . S
N3231 C3232 1.351 . S
C3232 C3226 1.428 . S
C3232 N3231 1.351 . S
C3232 C3233 1.434 . S
C3233 C3224 1.429 . S
C3233 N3230 1.350 . S
C3233 C3232 1.434 . S
C3234 C3235 1.369 . S
C3234 C3236 1.419 . S
C3234 H3238 0.930 . S
C3235 C3234 1.369 . S
C3235 C3244 1.429 . S
C3236 C3234 1.419 . S
C3236 C3237 1.363 . S
C3236 H3239 0.929 . S
C3237 C3236 1.363 . S
C3237 C3243 1.428 . S
H3238 C3234 0.930 . S
H3239 C3236 0.929 . S
S3240 N3241 1.613 . S
S3240 N3242 1.610 . S
N3241 S3240 1.613 . S
N3241 C3244 1.350 . S
N3242 S3240 1.610 . S
N3242 C3243 1.351 . S
C3243 C3237 1.428 . S
C3243 N3242 1.351 . S
C3243 C3244 1.434 . S
C3244 C3235 1.429 . S
C3244 N3241 1.350 . S
C3244 C3243 1.434 . S
C3245 C3246 1.369 . S
C3245 C3247 1.419 . S
C3245 H3249 0.930 . S
C3246 C3245 1.369 . S
C3246 C3255 1.429 . S
C3247 C3245 1.419 . S
C3247 C3248 1.363 . S
C3247 H3250 0.929 . S
C3248 C3247 1.363 . S
C3248 C3254 1.428 . S
H3249 C3245 0.930 . S
H3250 C3247 0.929 . S
S3251 N3252 1.613 . S
S3251 N3253 1.610 . S
N3252 S3251 1.613 . S
N3252 C3255 1.350 . S
N3253 S3251 1.610 . S
N3253 C3254 1.351 . S
C3254 C3248 1.428 . S
C3254 N3253 1.351 . S
C3254 C3255 1.434 . S
C3255 C3246 1.429 . S
C3255 N3252 1.350 . S
C3255 C3254 1.434 . S
C3256 C3257 1.369 . S
C3256 C3258 1.419 . S
C3256 H3260 0.930 . S
C3257 C3256 1.369 . S
C3257 C3266 1.429 . S
C3258 C3256 1.419 . S
C3258 C3259 1.363 . S
C3258 H3261 0.929 . S
C3259 C3258 1.363 . S
C3259 C3265 1.428 . S
H3260 C3256 0.930 . S
H3261 C3258 0.929 . S
S3262 N3263 1.613 . S
S3262 N3264 1.610 . S
N3263 S3262 1.613 . S
N3263 C3266 1.350 . S
N3264 S3262 1.610 . S
N3264 C3265 1.351 . S
C3265 C3259 1.428 . S
C3265 N3264 1.351 . S
C3265 C3266 1.434 . S
C3266 C3257 1.429 . S
C3266 N3263 1.350 . S
C3266 C3265 1.434 . S
C3267 C3268 1.369 . S
C3267 C3269 1.419 . S
C3267 H3271 0.930 . S
C3268 C3267 1.369 . S
C3268 C3277 1.429 . S
C3269 C3267 1.419 . S
C3269 C3270 1.363 . S
C3269 H3272 0.929 . S
C3270 C3269 1.363 . S
C3270 C3276 1.428 . S
H3271 C3267 0.930 . S
H3272 C3269 0.929 . S
S3273 N3274 1.613 . S
S3273 N3275 1.610 . S
N3274 S3273 1.613 . S
N3274 C3277 1.350 . S
N3275 S3273 1.610 . S
N3275 C3276 1.351 . S
C3276 C3270 1.428 . S
C3276 N3275 1.351 . S
C3276 C3277 1.434 . S
C3277 C3268 1.429 . S
C3277 N3274 1.350 . S
C3277 C3276 1.434 . S
C3278 C3279 1.369 . S
C3278 C3280 1.419 . S
C3278 H3282 0.930 . S
C3279 C3278 1.369 . S
C3279 C3288 1.429 . S
C3280 C3278 1.419 . S
C3280 C3281 1.363 . S
C3280 H3283 0.929 . S
C3281 C3280 1.363 . S
C3281 C3287 1.428 . S
H3282 C3278 0.930 . S
H3283 C3280 0.929 . S
S3284 N3285 1.613 . S
S3284 N3286 1.610 . S
N3285 S3284 1.613 . S
N3285 C3288 1.350 . S
N3286 S3284 1.610 . S
N3286 C3287 1.351 . S
C3287 C3281 1.428 . S
C3287 N3286 1.351 . S
C3287 C3288 1.434 . S
C3288 C3279 1.429 . S
C3288 N3285 1.350 . S
C3288 C3287 1.434 . S
C3289 C3290 1.369 . S
C3289 C3291 1.419 . S
C3289 H3293 0.930 . S
C3290 C3289 1.369 . S
C3290 C3299 1.429 . S
C3291 C3289 1.419 . S
C3291 C3292 1.363 . S
C3291 H3294 0.929 . S
C3292 C3291 1.363 . S
C3292 C3298 1.428 . S
H3293 C3289 0.930 . S
H3294 C3291 0.929 . S
S3295 N3296 1.613 . S
S3295 N3297 1.610 . S
N3296 S3295 1.613 . S
N3296 C3299 1.350 . S
N3297 S3295 1.610 . S
N3297 C3298 1.351 . S
C3298 C3292 1.428 . S
C3298 N3297 1.351 . S
C3298 C3299 1.434 . S
C3299 C3290 1.429 . S
C3299 N3296 1.350 . S
C3299 C3298 1.434 . S
C3300 C3301 1.369 . S
C3300 C3302 1.419 . S
C3300 H3304 0.930 . S
C3301 C3300 1.369 . S
C3301 C3310 1.429 . S
C3302 C3300 1.419 . S
C3302 C3303 1.363 . S
C3302 H3305 0.929 . S
C3303 C3302 1.363 . S
C3303 C3309 1.428 . S
H3304 C3300 0.930 . S
H3305 C3302 0.929 . S
S3306 N3307 1.613 . S
S3306 N3308 1.610 . S
N3307 S3306 1.613 . S
N3307 C3310 1.350 . S
N3308 S3306 1.610 . S
N3308 C3309 1.351 . S
C3309 C3303 1.428 . S
C3309 N3308 1.351 . S
C3309 C3310 1.434 . S
C3310 C3301 1.429 . S
C3310 N3307 1.350 . S
C3310 C3309 1.434 . S
C3311 C3312 1.369 . S
C3311 C3313 1.419 . S
C3311 H3315 0.930 . S
C3312 C3311 1.369 . S
C3312 C3321 1.429 . S
C3313 C3311 1.419 . S
C3313 C3314 1.363 . S
C3313 H3316 0.929 . S
C3314 C3313 1.363 . S
C3314 C3320 1.428 . S
H3315 C3311 0.930 . S
H3316 C3313 0.929 . S
S3317 N3318 1.613 . S
S3317 N3319 1.610 . S
N3318 S3317 1.613 . S
N3318 C3321 1.350 . S
N3319 S3317 1.610 . S
N3319 C3320 1.351 . S
C3320 C3314 1.428 . S
C3320 N3319 1.351 . S
C3320 C3321 1.434 . S
C3321 C3312 1.429 . S
C3321 N3318 1.350 . S
C3321 C3320 1.434 . S
C3322 C3323 1.369 . S
C3322 C3324 1.419 . S
C3322 H3326 0.930 . S
C3323 C3322 1.369 . S
C3323 C3332 1.429 . S
C3324 C3322 1.419 . S
C3324 C3325 1.363 . S
C3324 H3327 0.929 . S
C3325 C3324 1.363 . S
C3325 C3331 1.428 . S
H3326 C3322 0.930 . S
H3327 C3324 0.929 . S
S3328 N3329 1.613 . S
S3328 N3330 1.610 . S
N3329 S3328 1.613 . S
N3329 C3332 1.350 . S
N3330 S3328 1.610 . S
N3330 C3331 1.351 . S
C3331 C3325 1.428 . S
C3331 N3330 1.351 . S
C3331 C3332 1.434 . S
C3332 C3323 1.429 . S
C3332 N3329 1.350 . S
C3332 C3331 1.434 . S
C3333 C3334 1.369 . S
C3333 C3335 1.419 . S
C3333 H3337 0.930 . S
C3334 C3333 1.369 . S
C3334 C3343 1.429 . S
C3335 C3333 1.419 . S
C3335 C3336 1.363 . S
C3335 H3338 0.929 . S
C3336 C3335 1.363 . S
C3336 C3342 1.428 . S
H3337 C3333 0.930 . S
H3338 C3335 0.929 . S
S3339 N3340 1.613 . S
S3339 N3341 1.610 . S
N3340 S3339 1.613 . S
N3340 C3343 1.350 . S
N3341 S3339 1.610 . S
N3341 C3342 1.351 . S
C3342 C3336 1.428 . S
C3342 N3341 1.351 . S
C3342 C3343 1.434 . S
C3343 C3334 1.429 . S
C3343 N3340 1.350 . S
C3343 C3342 1.434 . S
C3344 C3345 1.369 . S
C3344 C3346 1.419 . S
C3344 H3348 0.930 . S
C3345 C3344 1.369 . S
C3345 C3354 1.429 . S
C3346 C3344 1.419 . S
C3346 C3347 1.363 . S
C3346 H3349 0.929 . S
C3347 C3346 1.363 . S
C3347 C3353 1.428 . S
H3348 C3344 0.930 . S
H3349 C3346 0.929 . S
S3350 N3351 1.613 . S
S3350 N3352 1.610 . S
N3351 S3350 1.613 . S
N3351 C3354 1.350 . S
N3352 S3350 1.610 . S
N3352 C3353 1.351 . S
C3353 C3347 1.428 . S
C3353 N3352 1.351 . S
C3353 C3354 1.434 . S
C3354 C3345 1.429 . S
C3354 N3351 1.350 . S
C3354 C3353 1.434 . S
C3355 C3356 1.369 . S
C3355 C3357 1.419 . S
C3355 H3359 0.930 . S
C3356 C3355 1.369 . S
C3356 C3365 1.429 . S
C3357 C3355 1.419 . S
C3357 C3358 1.363 . S
C3357 H3360 0.929 . S
C3358 C3357 1.363 . S
C3358 C3364 1.428 . S
H3359 C3355 0.930 . S
H3360 C3357 0.929 . S
S3361 N3362 1.613 . S
S3361 N3363 1.610 . S
N3362 S3361 1.613 . S
N3362 C3365 1.350 . S
N3363 S3361 1.610 . S
N3363 C3364 1.351 . S
C3364 C3358 1.428 . S
C3364 N3363 1.351 . S
C3364 C3365 1.434 . S
C3365 C3356 1.429 . S
C3365 N3362 1.350 . S
C3365 C3364 1.434 . S
C3366 C3367 1.369 . S
C3366 C3368 1.403 1_455 S
C3366 H3370 0.930 . S
C3367 C3366 1.369 . S
C3367 C3376 1.429 . S
C3368 C3366 1.403 1_655 S
C3368 C3369 1.367 . S
C3368 H3371 0.942 . S
C3369 C3368 1.367 . S
C3369 C3375 1.456 . S
H3370 C3366 0.930 . S
H3371 C3368 0.942 . S
S3372 N3373 1.613 . S
S3372 N3374 1.610 1_455 S
N3373 S3372 1.613 . S
N3373 C3376 1.350 . S
N3374 S3372 1.610 1_655 S
N3374 C3375 1.354 . S
C3375 C3369 1.456 . S
C3375 N3374 1.354 . S
C3375 C3376 1.402 1_655 S
C3376 C3367 1.429 . S
C3376 N3373 1.350 . S
C3376 C3375 1.402 1_455 S
C3377 C3378 1.369 . S
C3377 C3379 1.419 . S
C3377 H3381 0.930 . S
C3378 C3377 1.369 . S
C3378 C3387 1.429 . S
C3379 C3377 1.419 . S
C3379 C3380 1.363 . S
C3379 H3382 0.929 . S
C3380 C3379 1.363 . S
C3380 C3386 1.428 . S
H3381 C3377 0.930 . S
H3382 C3379 0.929 . S
S3383 N3384 1.613 . S
S3383 N3385 1.610 . S
N3384 S3383 1.613 . S
N3384 C3387 1.350 . S
N3385 S3383 1.610 . S
N3385 C3386 1.351 . S
C3386 C3380 1.428 . S
C3386 N3385 1.351 . S
C3386 C3387 1.434 . S
C3387 C3378 1.429 . S
C3387 N3384 1.350 . S
C3387 C3386 1.434 . S
C3388 C3389 1.369 . S
C3388 C3390 1.419 . S
C3388 H3392 0.930 . S
C3389 C3388 1.369 . S
C3389 C3398 1.429 . S
C3390 C3388 1.419 . S
C3390 C3391 1.363 . S
C3390 H3393 0.929 . S
C3391 C3390 1.363 . S
C3391 C3397 1.428 . S
H3392 C3388 0.930 . S
H3393 C3390 0.929 . S
S3394 N3395 1.613 . S
S3394 N3396 1.610 . S
N3395 S3394 1.613 . S
N3395 C3398 1.350 . S
N3396 S3394 1.610 . S
N3396 C3397 1.351 . S
C3397 C3391 1.428 . S
C3397 N3396 1.351 . S
C3397 C3398 1.434 . S
C3398 C3389 1.429 . S
C3398 N3395 1.350 . S
C3398 C3397 1.434 . S
C3399 C3400 1.369 1_565 S
C3399 C3401 1.419 . S
C3399 H3403 0.930 . S
C3400 C3399 1.369 1_545 S
C3400 C3409 1.429 . S
C3401 C3399 1.419 . S
C3401 C3402 1.363 . S
C3401 H3404 0.929 . S
C3402 C3401 1.363 . S
C3402 C3408 1.428 1_565 S
H3403 C3399 0.930 . S
H3404 C3401 0.929 . S
S3405 N3406 1.613 . S
S3405 N3407 1.610 . S
N3406 S3405 1.613 . S
N3406 C3409 1.350 . S
N3407 S3405 1.610 . S
N3407 C3408 1.351 . S
C3408 C3402 1.428 1_545 S
C3408 N3407 1.351 . S
C3408 C3409 1.434 . S
C3409 C3400 1.429 . S
C3409 N3406 1.350 . S
C3409 C3408 1.434 . S
C3410 C3411 1.369 . S
C3410 C3412 1.419 . S
C3410 H3414 0.930 . S
C3411 C3410 1.369 . S
C3411 C3420 1.429 . S
C3412 C3410 1.419 . S
C3412 C3413 1.363 . S
C3412 H3415 0.929 . S
C3413 C3412 1.363 . S
C3413 C3419 1.428 . S
H3414 C3410 0.930 . S
H3415 C3412 0.929 . S
S3416 N3417 1.613 . S
S3416 N3418 1.610 . S
N3417 S3416 1.613 . S
N3417 C3420 1.350 . S
N3418 S3416 1.610 . S
N3418 C3419 1.351 . S
C3419 C3413 1.428 . S
C3419 N3418 1.351 . S
C3419 C3420 1.434 . S
C3420 C3411 1.429 . S
C3420 N3417 1.350 . S
C3420 C3419 1.434 . S
C3421 C3422 1.369 . S
C3421 C3423 1.419 . S
C3421 H3425 0.930 . S
C3422 C3421 1.369 . S
C3422 C3431 1.429 . S
C3423 C3421 1.419 . S
C3423 C3424 1.363 . S
C3423 H3426 0.929 . S
C3424 C3423 1.363 . S
C3424 C3430 1.428 . S
H3425 C3421 0.930 . S
H3426 C3423 0.929 . S
S3427 N3428 1.613 . S
S3427 N3429 1.610 . S
N3428 S3427 1.613 . S
N3428 C3431 1.350 . S
N3429 S3427 1.610 . S
N3429 C3430 1.351 . S
C3430 C3424 1.428 . S
C3430 N3429 1.351 . S
C3430 C3431 1.434 . S
C3431 C3422 1.429 . S
C3431 N3428 1.350 . S
C3431 C3430 1.434 . S
C3432 C3433 1.369 . S
C3432 C3434 1.419 . S
C3432 H3436 0.930 . S
C3433 C3432 1.369 . S
C3433 C3442 1.429 . S
C3434 C3432 1.419 . S
C3434 C3435 1.363 . S
C3434 H3437 0.929 . S
C3435 C3434 1.363 . S
C3435 C3441 1.428 . S
H3436 C3432 0.930 . S
H3437 C3434 0.929 . S
S3438 N3439 1.613 . S
S3438 N3440 1.610 . S
N3439 S3438 1.613 . S
N3439 C3442 1.350 . S
N3440 S3438 1.610 . S
N3440 C3441 1.351 . S
C3441 C3435 1.428 . S
C3441 N3440 1.351 . S
C3441 C3442 1.434 . S
C3442 C3433 1.429 . S
C3442 N3439 1.350 . S
C3442 C3441 1.434 . S
C3443 C3444 1.369 . S
C3443 C3445 1.419 . S
C3443 H3447 0.930 . S
C3444 C3443 1.369 . S
C3444 C3453 1.429 . S
C3445 C3443 1.419 . S
C3445 C3446 1.363 . S
C3445 H3448 0.929 . S
C3446 C3445 1.363 . S
C3446 C3452 1.428 . S
H3447 C3443 0.930 . S
H3448 C3445 0.929 . S
S3449 N3450 1.613 . S
S3449 N3451 1.610 . S
N3450 S3449 1.613 . S
N3450 C3453 1.350 . S
N3451 S3449 1.610 . S
N3451 C3452 1.351 . S
C3452 C3446 1.428 . S
C3452 N3451 1.351 . S
C3452 C3453 1.434 . S
C3453 C3444 1.429 . S
C3453 N3450 1.350 . S
C3453 C3452 1.434 . S
C3454 C3455 1.369 . S
C3454 C3456 1.419 . S
C3454 H3458 0.930 . S
C3455 C3454 1.369 . S
C3455 C3464 1.468 . S
C3456 C3454 1.419 . S
C3456 C3457 1.363 1_545 S
C3456 H3459 0.929 . S
C3457 C3456 1.363 1_565 S
C3457 C3463 1.428 . S
H3458 C3454 0.930 . S
H3459 C3456 0.929 . S
S3460 N3461 1.613 . S
S3460 N3462 1.610 . S
N3461 S3460 1.613 . S
N3461 C3464 1.311 1_565 S
N3462 S3460 1.610 . S
N3462 C3463 1.351 . S
C3463 C3457 1.428 . S
C3463 N3462 1.351 . S
C3463 C3464 1.435 1_565 S
C3464 C3455 1.468 . S
C3464 N3461 1.311 1_545 S
C3464 C3463 1.435 1_545 S
C3465 C3466 1.369 . S
C3465 C3467 1.419 . S
C3465 H3469 0.930 . S
C3466 C3465 1.369 . S
C3466 C3475 1.429 . S
C3467 C3465 1.419 . S
C3467 C3468 1.363 . S
C3467 H3470 0.929 . S
C3468 C3467 1.363 . S
C3468 C3474 1.428 . S
H3469 C3465 0.930 . S
H3470 C3467 0.929 . S
S3471 N3472 1.613 . S
S3471 N3473 1.610 . S
N3472 S3471 1.613 . S
N3472 C3475 1.350 . S
N3473 S3471 1.610 . S
N3473 C3474 1.351 . S
C3474 C3468 1.428 . S
C3474 N3473 1.351 . S
C3474 C3475 1.434 . S
C3475 C3466 1.429 . S
C3475 N3472 1.350 . S
C3475 C3474 1.434 . S
C3476 C3477 1.369 1_655 S
C3476 C3478 1.419 . S
C3476 H3480 0.930 . S
C3477 C3476 1.369 1_455 S
C3477 C3486 1.429 . S
C3478 C3476 1.419 . S
C3478 C3479 1.363 . S
C3478 H3481 0.929 . S
C3479 C3478 1.363 . S
C3479 C3485 1.428 1_655 S
H3480 C3476 0.930 . S
H3481 C3478 0.929 . S
S3482 N3483 1.613 . S
S3482 N3484 1.610 . S
N3483 S3482 1.613 . S
N3483 C3486 1.350 . S
N3484 S3482 1.610 . S
N3484 C3485 1.351 . S
C3485 C3479 1.428 1_455 S
C3485 N3484 1.351 . S
C3485 C3486 1.434 . S
C3486 C3477 1.429 . S
C3486 N3483 1.350 . S
C3486 C3485 1.434 . S
C3487 C3488 1.369 . S
C3487 C3489 1.419 . S
C3487 H3491 0.930 . S
C3488 C3487 1.369 . S
C3488 C3497 1.429 . S
C3489 C3487 1.419 . S
C3489 C3490 1.363 . S
C3489 H3492 0.929 . S
C3490 C3489 1.363 . S
C3490 C3496 1.428 . S
H3491 C3487 0.930 . S
H3492 C3489 0.929 . S
S3493 N3494 1.613 . S
S3493 N3495 1.610 . S
N3494 S3493 1.613 . S
N3494 C3497 1.350 . S
N3495 S3493 1.610 . S
N3495 C3496 1.351 . S
C3496 C3490 1.428 . S
C3496 N3495 1.351 . S
C3496 C3497 1.434 . S
C3497 C3488 1.429 . S
C3497 N3494 1.350 . S
C3497 C3496 1.434 . S
C3498 C3499 1.369 . S
C3498 C3500 1.419 . S
C3498 H3502 0.930 . S
C3499 C3498 1.369 . S
C3499 C3508 1.429 . S
C3500 C3498 1.419 . S
C3500 C3501 1.363 . S
C3500 H3503 0.929 . S
C3501 C3500 1.363 . S
C3501 C3507 1.428 . S
H3502 C3498 0.930 . S
H3503 C3500 0.929 . S
S3504 N3505 1.613 . S
S3504 N3506 1.610 . S
N3505 S3504 1.613 . S
N3505 C3508 1.350 . S
N3506 S3504 1.610 . S
N3506 C3507 1.351 . S
C3507 C3501 1.428 . S
C3507 N3506 1.351 . S
C3507 C3508 1.434 . S
C3508 C3499 1.429 . S
C3508 N3505 1.350 . S
C3508 C3507 1.434 . S
C3509 C3510 1.369 . S
C3509 C3511 1.419 . S
C3509 H3513 0.930 . S
C3510 C3509 1.369 . S
C3510 C3519 1.429 . S
C3511 C3509 1.419 . S
C3511 C3512 1.363 . S
C3511 H3514 0.929 . S
C3512 C3511 1.363 . S
C3512 C3518 1.428 . S
H3513 C3509 0.930 . S
H3514 C3511 0.929 . S
S3515 N3516 1.613 . S
S3515 N3517 1.610 . S
N3516 S3515 1.613 . S
N3516 C3519 1.350 . S
N3517 S3515 1.610 . S
N3517 C3518 1.351 . S
C3518 C3512 1.428 . S
C3518 N3517 1.351 . S
C3518 C3519 1.434 . S
C3519 C3510 1.429 . S
C3519 N3516 1.350 . S
C3519 C3518 1.434 . S
C3520 C3521 1.369 . S
C3520 C3522 1.419 . S
C3520 H3524 0.930 . S
C3521 C3520 1.369 . S
C3521 C3530 1.429 . S
C3522 C3520 1.419 . S
C3522 C3523 1.363 . S
C3522 H3525 0.929 . S
C3523 C3522 1.363 . S
C3523 C3529 1.428 . S
H3524 C3520 0.930 . S
H3525 C3522 0.929 . S
S3526 N3527 1.613 . S
S3526 N3528 1.610 . S
N3527 S3526 1.613 . S
N3527 C3530 1.350 . S
N3528 S3526 1.610 . S
N3528 C3529 1.351 . S
C3529 C3523 1.428 . S
C3529 N3528 1.351 . S
C3529 C3530 1.434 . S
C3530 C3521 1.429 . S
C3530 N3527 1.350 . S
C3530 C3529 1.434 . S
C3531 C3532 1.369 . S
C3531 C3533 1.419 . S
C3531 H3535 0.930 . S
C3532 C3531 1.369 . S
C3532 C3541 1.429 . S
C3533 C3531 1.419 . S
C3533 C3534 1.363 . S
C3533 H3536 0.929 . S
C3534 C3533 1.363 . S
C3534 C3540 1.428 . S
H3535 C3531 0.930 . S
H3536 C3533 0.929 . S
S3537 N3538 1.613 . S
S3537 N3539 1.610 . S
N3538 S3537 1.613 . S
N3538 C3541 1.350 . S
N3539 S3537 1.610 . S
N3539 C3540 1.351 . S
C3540 C3534 1.428 . S
C3540 N3539 1.351 . S
C3540 C3541 1.434 . S
C3541 C3532 1.429 . S
C3541 N3538 1.350 . S
C3541 C3540 1.434 . S
C3542 C3543 1.369 . S
C3542 C3544 1.419 . S
C3542 H3546 0.930 1_545 S
C3543 C3542 1.369 . S
C3543 C3552 1.429 . S
C3544 C3542 1.419 . S
C3544 C3545 1.363 . S
C3544 H3547 0.929 . S
C3545 C3544 1.363 . S
C3545 C3551 1.428 . S
H3546 C3542 0.930 1_565 S
H3547 C3544 0.929 . S
S3548 N3549 1.613 . S
S3548 N3550 1.610 . S
N3549 S3548 1.613 . S
N3549 C3552 1.350 . S
N3550 S3548 1.610 . S
N3550 C3551 1.351 . S
C3551 C3545 1.428 . S
C3551 N3550 1.351 . S
C3551 C3552 1.434 . S
C3552 C3543 1.429 . S
C3552 N3549 1.350 . S
C3552 C3551 1.434 . S
C3553 C3554 1.369 . S
C3553 C3555 1.419 . S
C3553 H3557 0.930 1_455 S
C3554 C3553 1.369 . S
C3554 C3563 1.429 . S
C3555 C3553 1.419 . S
C3555 C3556 1.363 . S
C3555 H3558 0.929 . S
C3556 C3555 1.363 . S
C3556 C3562 1.428 . S
H3557 C3553 0.930 1_655 S
H3558 C3555 0.929 . S
S3559 N3560 1.613 . S
S3559 N3561 1.610 . S
N3560 S3559 1.613 . S
N3560 C3563 1.350 . S
N3561 S3559 1.610 . S
N3561 C3562 1.351 . S
C3562 C3556 1.428 . S
C3562 N3561 1.351 . S
C3562 C3563 1.434 . S
C3563 C3554 1.429 . S
C3563 N3560 1.350 . S
C3563 C3562 1.434 . S
C3564 C3565 1.369 . S
C3564 C3566 1.419 1_554 S
C3564 H3568 0.930 . S
C3565 C3564 1.369 . S
C3565 C3574 1.429 . S
C3566 C3564 1.419 1_556 S
C3566 C3567 1.363 . S
C3566 H3569 0.929 1_455 S
C3567 C3566 1.363 . S
C3567 C3573 1.428 . S
H3568 C3564 0.930 . S
H3569 C3566 0.929 1_655 S
S3570 N3571 1.613 1_556 S
S3570 N3572 1.610 . S
N3571 S3570 1.613 1_554 S
N3571 C3574 1.350 . S
N3572 S3570 1.610 . S
N3572 C3573 1.351 . S
C3573 C3567 1.428 . S
C3573 N3572 1.351 . S
C3573 C3574 1.434 1_556 S
C3574 C3565 1.429 . S
C3574 N3571 1.350 . S
C3574 C3573 1.434 1_554 S
C3575 C3576 1.369 . S
C3575 C3577 1.419 1_556 S
C3575 H3579 0.930 . S
C3576 C3575 1.369 . S
C3576 C3585 1.429 . S
C3577 C3575 1.419 1_554 S
C3577 C3578 1.363 . S
C3577 H3580 0.929 . S
C3578 C3577 1.363 . S
C3578 C3584 1.428 . S
H3579 C3575 0.930 . S
H3580 C3577 0.929 . S
S3581 N3582 1.613 1_554 S
S3581 N3583 1.610 . S
N3582 S3581 1.613 1_556 S
N3582 C3585 1.350 . S
N3583 S3581 1.610 . S
N3583 C3584 1.351 . S
C3584 C3578 1.428 . S
C3584 N3583 1.351 . S
C3584 C3585 1.434 1_554 S
C3585 C3576 1.429 . S
C3585 N3582 1.350 . S
C3585 C3584 1.434 1_556 S
C3586 C3587 1.369 . S
C3586 C3588 1.419 1_556 S
C3586 H3590 0.930 . S
C3587 C3586 1.369 . S
C3587 C3596 1.429 . S
C3588 C3586 1.419 1_554 S
C3588 C3589 1.363 . S
C3588 H3591 0.929 . S
C3589 C3588 1.363 . S
C3589 C3595 1.428 . S
H3590 C3586 0.930 . S
H3591 C3588 0.929 . S
S3592 N3593 1.613 . S
S3592 N3594 1.610 1_556 S
N3593 S3592 1.613 . S
N3593 C3596 1.350 . S
N3594 S3592 1.610 1_554 S
N3594 C3595 1.351 . S
C3595 C3589 1.428 . S
C3595 N3594 1.351 . S
C3595 C3596 1.434 1_554 S
C3596 C3587 1.429 . S
C3596 N3593 1.350 . S
C3596 C3595 1.434 1_556 S
C3597 C3598 1.369 . S
C3597 C3599 1.419 1_556 S
C3597 H3601 0.930 . S
C3598 C3597 1.369 . S
C3598 C3607 1.429 . S
C3599 C3597 1.419 1_554 S
C3599 C3600 1.363 . S
C3599 H3602 0.929 . S
C3600 C3599 1.363 . S
C3600 C3606 1.428 . S
H3601 C3597 0.930 . S
H3602 C3599 0.929 . S
S3603 N3604 1.613 . S
S3603 N3605 1.610 1_556 S
N3604 S3603 1.613 . S
N3604 C3607 1.350 . S
N3605 S3603 1.610 1_554 S
N3605 C3606 1.351 . S
C3606 C3600 1.428 . S
C3606 N3605 1.351 . S
C3606 C3607 1.434 1_554 S
C3607 C3598 1.429 . S
C3607 N3604 1.350 . S
C3607 C3606 1.434 1_556 S
C3608 C3609 1.369 . S
C3608 C3610 1.419 1_554 S
C3608 H3612 0.930 . S
C3609 C3608 1.369 . S
C3609 C3618 1.429 . S
C3610 C3608 1.419 1_556 S
C3610 C3611 1.363 . S
C3610 H3613 0.929 . S
C3611 C3610 1.363 . S
C3611 C3617 1.428 . S
H3612 C3608 0.930 . S
H3613 C3610 0.929 . S
S3614 N3615 1.613 1_556 S
S3614 N3616 1.610 . S
N3615 S3614 1.613 1_554 S
N3615 C3618 1.350 . S
N3616 S3614 1.610 . S
N3616 C3617 1.351 . S
C3617 C3611 1.428 . S
C3617 N3616 1.351 . S
C3617 C3618 1.434 1_556 S
C3618 C3609 1.429 . S
C3618 N3615 1.350 . S
C3618 C3617 1.434 1_554 S
C3619 C3620 1.369 . S
C3619 C3621 1.419 1_556 S
C3619 H3623 0.930 . S
C3620 C3619 1.369 . S
C3620 C3629 1.429 . S
C3621 C3619 1.419 1_554 S
C3621 C3622 1.363 . S
C3621 H3624 0.929 . S
C3622 C3621 1.363 . S
C3622 C3628 1.428 . S
H3623 C3619 0.930 . S
H3624 C3621 0.929 . S
S3625 N3626 1.613 1_565 S
S3625 N3627 1.610 1_556 S
N3626 S3625 1.613 1_545 S
N3626 C3629 1.350 . S
N3627 S3625 1.610 1_554 S
N3627 C3628 1.351 1_565 S
C3628 C3622 1.428 . S
C3628 N3627 1.351 1_545 S
C3628 C3629 1.434 1_554 S
C3629 C3620 1.429 . S
C3629 N3626 1.350 . S
C3629 C3628 1.434 1_556 S
C3630 C3631 1.369 . S
C3630 C3632 1.419 . S
C3630 H3634 0.930 . S
C3631 C3630 1.369 . S
C3631 C3640 1.429 . S
C3632 C3630 1.419 . S
C3632 C3633 1.363 . S
C3632 H3635 0.929 . S
C3633 C3632 1.363 . S
C3633 C3639 1.428 . S
H3634 C3630 0.930 . S
H3635 C3632 0.929 . S
S3636 N3637 1.613 . S
S3636 N3638 1.610 . S
N3637 S3636 1.613 . S
N3637 C3640 1.350 . S
N3638 S3636 1.610 . S
N3638 C3639 1.351 . S
C3639 C3633 1.428 . S
C3639 N3638 1.351 . S
C3639 C3640 1.434 . S
C3640 C3631 1.429 . S
C3640 N3637 1.350 . S
C3640 C3639 1.434 . S
C3641 C3642 1.369 . S
C3641 C3643 1.419 . S
C3641 H3645 0.930 . S
C3642 C3641 1.369 . S
C3642 C3651 1.429 . S
C3643 C3641 1.419 . S
C3643 C3644 1.363 . S
C3643 H3646 0.929 . S
C3644 C3643 1.363 . S
C3644 C3650 1.428 . S
H3645 C3641 0.930 . S
H3646 C3643 0.929 . S
S3647 N3648 1.613 . S
S3647 N3649 1.610 . S
N3648 S3647 1.613 . S
N3648 C3651 1.350 . S
N3649 S3647 1.610 . S
N3649 C3650 1.351 . S
C3650 C3644 1.428 . S
C3650 N3649 1.351 . S
C3650 C3651 1.434 . S
C3651 C3642 1.429 . S
C3651 N3648 1.350 . S
C3651 C3650 1.434 . S
C3652 C3653 1.369 . S
C3652 C3654 1.419 . S
C3652 H3656 0.930 . S
C3653 C3652 1.369 . S
C3653 C3662 1.429 . S
C3654 C3652 1.419 . S
C3654 C3655 1.363 . S
C3654 H3657 0.929 . S
C3655 C3654 1.363 . S
C3655 C3661 1.428 . S
H3656 C3652 0.930 . S
H3657 C3654 0.929 . S
S3658 N3659 1.613 . S
S3658 N3660 1.610 . S
N3659 S3658 1.613 . S
N3659 C3662 1.350 . S
N3660 S3658 1.610 . S
N3660 C3661 1.351 . S
C3661 C3655 1.428 . S
C3661 N3660 1.351 . S
C3661 C3662 1.434 . S
C3662 C3653 1.429 . S
C3662 N3659 1.350 . S
C3662 C3661 1.434 . S
C3663 C3664 1.369 . S
C3663 C3665 1.419 . S
C3663 H3667 0.930 . S
C3664 C3663 1.369 . S
C3664 C3673 1.429 . S
C3665 C3663 1.419 . S
C3665 C3666 1.363 . S
C3665 H3668 0.929 . S
C3666 C3665 1.363 . S
C3666 C3672 1.428 . S
H3667 C3663 0.930 . S
H3668 C3665 0.929 . S
S3669 N3670 1.613 . S
S3669 N3671 1.610 . S
N3670 S3669 1.613 . S
N3670 C3673 1.350 . S
N3671 S3669 1.610 . S
N3671 C3672 1.351 . S
C3672 C3666 1.428 . S
C3672 N3671 1.351 . S
C3672 C3673 1.434 . S
C3673 C3664 1.429 . S
C3673 N3670 1.350 . S
C3673 C3672 1.434 . S
C3674 C3675 1.369 . S
C3674 C3676 1.419 . S
C3674 H3678 0.930 . S
C3675 C3674 1.369 . S
C3675 C3684 1.429 . S
C3676 C3674 1.419 . S
C3676 C3677 1.363 . S
C3676 H3679 0.929 . S
C3677 C3676 1.363 . S
C3677 C3683 1.428 . S
H3678 C3674 0.930 . S
H3679 C3676 0.929 . S
S3680 N3681 1.613 . S
S3680 N3682 1.610 . S
N3681 S3680 1.613 . S
N3681 C3684 1.350 . S
N3682 S3680 1.610 . S
N3682 C3683 1.351 . S
C3683 C3677 1.428 . S
C3683 N3682 1.351 . S
C3683 C3684 1.434 . S
C3684 C3675 1.429 . S
C3684 N3681 1.350 . S
C3684 C3683 1.434 . S
C3685 C3686 1.369 . S
C3685 C3687 1.419 . S
C3685 H3689 0.930 . S
C3686 C3685 1.369 . S
C3686 C3695 1.429 . S
C3687 C3685 1.419 . S
C3687 C3688 1.363 . S
C3687 H3690 0.929 . S
C3688 C3687 1.363 . S
C3688 C3694 1.428 . S
H3689 C3685 0.930 . S
H3690 C3687 0.929 . S
S3691 N3692 1.613 . S
S3691 N3693 1.610 . S
N3692 S3691 1.613 . S
N3692 C3695 1.350 . S
N3693 S3691 1.610 . S
N3693 C3694 1.351 . S
C3694 C3688 1.428 . S
C3694 N3693 1.351 . S
C3694 C3695 1.434 . S
C3695 C3686 1.429 . S
C3695 N3692 1.350 . S
C3695 C3694 1.434 . S
C3696 C3697 1.369 . S
C3696 C3698 1.419 . S
C3696 H3700 0.930 . S
C3697 C3696 1.369 . S
C3697 C3706 1.429 . S
C3698 C3696 1.419 . S
C3698 C3699 1.363 . S
C3698 H3701 0.929 . S
C3699 C3698 1.363 . S
C3699 C3705 1.428 . S
H3700 C3696 0.930 . S
H3701 C3698 0.929 . S
S3702 N3703 1.613 . S
S3702 N3704 1.610 . S
N3703 S3702 1.613 . S
N3703 C3706 1.350 . S
N3704 S3702 1.610 . S
N3704 C3705 1.351 . S
C3705 C3699 1.428 . S
C3705 N3704 1.351 . S
C3705 C3706 1.434 . S
C3706 C3697 1.429 . S
C3706 N3703 1.350 . S
C3706 C3705 1.434 . S
C3707 C3708 1.369 . S
C3707 C3709 1.419 . S
C3707 H3711 0.930 . S
C3708 C3707 1.369 . S
C3708 C3717 1.429 . S
C3709 C3707 1.419 . S
C3709 C3710 1.363 . S
C3709 H3712 0.929 . S
C3710 C3709 1.363 . S
C3710 C3716 1.428 . S
H3711 C3707 0.930 . S
H3712 C3709 0.929 . S
S3713 N3714 1.613 . S
S3713 N3715 1.610 . S
N3714 S3713 1.613 . S
N3714 C3717 1.350 . S
N3715 S3713 1.610 . S
N3715 C3716 1.351 . S
C3716 C3710 1.428 . S
C3716 N3715 1.351 . S
C3716 C3717 1.434 . S
C3717 C3708 1.429 . S
C3717 N3714 1.350 . S
C3717 C3716 1.434 . S
C3718 C3719 1.369 . S
C3718 C3720 1.419 . S
C3718 H3722 0.930 . S
C3719 C3718 1.369 . S
C3719 C3728 1.429 . S
C3720 C3718 1.419 . S
C3720 C3721 1.363 . S
C3720 H3723 0.929 . S
C3721 C3720 1.363 . S
C3721 C3727 1.428 . S
H3722 C3718 0.930 . S
H3723 C3720 0.929 . S
S3724 N3725 1.613 . S
S3724 N3726 1.610 . S
N3725 S3724 1.613 . S
N3725 C3728 1.350 . S
N3726 S3724 1.610 . S
N3726 C3727 1.351 . S
C3727 C3721 1.428 . S
C3727 N3726 1.351 . S
C3727 C3728 1.434 . S
C3728 C3719 1.429 . S
C3728 N3725 1.350 . S
C3728 C3727 1.434 . S
C3729 C3730 1.369 . S
C3729 C3731 1.419 . S
C3729 H3733 0.930 . S
C3730 C3729 1.369 . S
C3730 C3739 1.429 . S
C3731 C3729 1.419 . S
C3731 C3732 1.363 . S
C3731 H3734 0.929 . S
C3732 C3731 1.363 . S
C3732 C3738 1.428 . S
H3733 C3729 0.930 . S
H3734 C3731 0.929 . S
S3735 N3736 1.613 . S
S3735 N3737 1.610 . S
N3736 S3735 1.613 . S
N3736 C3739 1.350 . S
N3737 S3735 1.610 . S
N3737 C3738 1.351 . S
C3738 C3732 1.428 . S
C3738 N3737 1.351 . S
C3738 C3739 1.434 . S
C3739 C3730 1.429 . S
C3739 N3736 1.350 . S
C3739 C3738 1.434 . S
C3740 C3741 1.369 . S
C3740 C3742 1.419 . S
C3740 H3744 0.930 . S
C3741 C3740 1.369 . S
C3741 C3750 1.429 . S
C3742 C3740 1.419 . S
C3742 C3743 1.363 . S
C3742 H3745 0.929 . S
C3743 C3742 1.363 . S
C3743 C3749 1.428 . S
H3744 C3740 0.930 . S
H3745 C3742 0.929 . S
S3746 N3747 1.613 . S
S3746 N3748 1.610 . S
N3747 S3746 1.613 . S
N3747 C3750 1.350 . S
N3748 S3746 1.610 . S
N3748 C3749 1.351 . S
C3749 C3743 1.428 . S
C3749 N3748 1.351 . S
C3749 C3750 1.434 . S
C3750 C3741 1.429 . S
C3750 N3747 1.350 . S
C3750 C3749 1.434 . S
C3751 C3752 1.369 . S
C3751 C3753 1.419 . S
C3751 H3755 0.930 . S
C3752 C3751 1.369 . S
C3752 C3761 1.429 . S
C3753 C3751 1.419 . S
C3753 C3754 1.363 . S
C3753 H3756 0.929 . S
C3754 C3753 1.363 . S
C3754 C3760 1.428 . S
H3755 C3751 0.930 . S
H3756 C3753 0.929 . S
S3757 N3758 1.613 . S
S3757 N3759 1.610 . S
N3758 S3757 1.613 . S
N3758 C3761 1.350 . S
N3759 S3757 1.610 . S
N3759 C3760 1.351 . S
C3760 C3754 1.428 . S
C3760 N3759 1.351 . S
C3760 C3761 1.434 . S
C3761 C3752 1.429 . S
C3761 N3758 1.350 . S
C3761 C3760 1.434 . S
C3762 C3763 1.369 . S
C3762 C3764 1.419 . S
C3762 H3766 0.930 . S
C3763 C3762 1.369 . S
C3763 C3772 1.429 . S
C3764 C3762 1.419 . S
C3764 C3765 1.363 . S
C3764 H3767 0.929 . S
C3765 C3764 1.363 . S
C3765 C3771 1.428 . S
H3766 C3762 0.930 . S
H3767 C3764 0.929 . S
S3768 N3769 1.613 . S
S3768 N3770 1.610 . S
N3769 S3768 1.613 . S
N3769 C3772 1.350 . S
N3770 S3768 1.610 . S
N3770 C3771 1.351 . S
C3771 C3765 1.428 . S
C3771 N3770 1.351 . S
C3771 C3772 1.434 . S
C3772 C3763 1.429 . S
C3772 N3769 1.350 . S
C3772 C3771 1.434 . S
C3773 C3774 1.369 . S
C3773 C3775 1.419 . S
C3773 H3777 0.930 . S
C3774 C3773 1.369 . S
C3774 C3783 1.429 . S
C3775 C3773 1.419 . S
C3775 C3776 1.363 . S
C3775 H3778 0.929 . S
C3776 C3775 1.363 . S
C3776 C3782 1.428 . S
H3777 C3773 0.930 . S
H3778 C3775 0.929 . S
S3779 N3780 1.613 . S
S3779 N3781 1.610 . S
N3780 S3779 1.613 . S
N3780 C3783 1.350 . S
N3781 S3779 1.610 . S
N3781 C3782 1.351 . S
C3782 C3776 1.428 . S
C3782 N3781 1.351 . S
C3782 C3783 1.434 . S
C3783 C3774 1.429 . S
C3783 N3780 1.350 . S
C3783 C3782 1.434 . S
C3784 C3785 1.369 . S
C3784 C3786 1.419 . S
C3784 H3788 0.930 . S
C3785 C3784 1.369 . S
C3785 C3794 1.429 . S
C3786 C3784 1.419 . S
C3786 C3787 1.363 . S
C3786 H3789 0.929 . S
C3787 C3786 1.363 . S
C3787 C3793 1.428 . S
H3788 C3784 0.930 . S
H3789 C3786 0.929 . S
S3790 N3791 1.613 . S
S3790 N3792 1.610 . S
N3791 S3790 1.613 . S
N3791 C3794 1.350 . S
N3792 S3790 1.610 . S
N3792 C3793 1.351 . S
C3793 C3787 1.428 . S
C3793 N3792 1.351 . S
C3793 C3794 1.434 . S
C3794 C3785 1.429 . S
C3794 N3791 1.350 . S
C3794 C3793 1.434 . S
C3795 C3796 1.369 . S
C3795 C3797 1.419 . S
C3795 H3799 0.930 . S
C3796 C3795 1.369 . S
C3796 C3805 1.429 . S
C3797 C3795 1.419 . S
C3797 C3798 1.363 . S
C3797 H3800 0.929 . S
C3798 C3797 1.363 . S
C3798 C3804 1.428 . S
H3799 C3795 0.930 . S
H3800 C3797 0.929 . S
S3801 N3802 1.613 . S
S3801 N3803 1.610 . S
N3802 S3801 1.613 . S
N3802 C3805 1.350 . S
N3803 S3801 1.610 . S
N3803 C3804 1.351 . S
C3804 C3798 1.428 . S
C3804 N3803 1.351 . S
C3804 C3805 1.434 . S
C3805 C3796 1.429 . S
C3805 N3802 1.350 . S
C3805 C3804 1.434 . S
C3806 C3807 1.369 . S
C3806 C3808 1.419 . S
C3806 H3810 0.930 . S
C3807 C3806 1.369 . S
C3807 C3816 1.429 . S
C3808 C3806 1.419 . S
C3808 C3809 1.363 . S
C3808 H3811 0.929 . S
C3809 C3808 1.363 . S
C3809 C3815 1.428 . S
H3810 C3806 0.930 . S
H3811 C3808 0.929 . S
S3812 N3813 1.613 . S
S3812 N3814 1.610 . S
N3813 S3812 1.613 . S
N3813 C3816 1.350 . S
N3814 S3812 1.610 . S
N3814 C3815 1.351 . S
C3815 C3809 1.428 . S
C3815 N3814 1.351 . S
C3815 C3816 1.434 . S
C3816 C3807 1.429 . S
C3816 N3813 1.350 . S
C3816 C3815 1.434 . S
C3817 C3818 1.369 . S
C3817 C3819 1.419 . S
C3817 H3821 0.930 . S
C3818 C3817 1.369 . S
C3818 C3827 1.429 . S
C3819 C3817 1.419 . S
C3819 C3820 1.363 . S
C3819 H3822 0.929 . S
C3820 C3819 1.363 . S
C3820 C3826 1.428 . S
H3821 C3817 0.930 . S
H3822 C3819 0.929 . S
S3823 N3824 1.613 . S
S3823 N3825 1.610 . S
N3824 S3823 1.613 . S
N3824 C3827 1.350 . S
N3825 S3823 1.610 . S
N3825 C3826 1.351 . S
C3826 C3820 1.428 . S
C3826 N3825 1.351 . S
C3826 C3827 1.434 . S
C3827 C3818 1.429 . S
C3827 N3824 1.350 . S
C3827 C3826 1.434 . S
C3828 C3829 1.369 . S
C3828 C3830 1.419 . S
C3828 H3832 0.930 . S
C3829 C3828 1.369 . S
C3829 C3838 1.429 . S
C3830 C3828 1.419 . S
C3830 C3831 1.363 . S
C3830 H3833 0.929 . S
C3831 C3830 1.363 . S
C3831 C3837 1.428 . S
H3832 C3828 0.930 . S
H3833 C3830 0.929 . S
S3834 N3835 1.613 . S
S3834 N3836 1.610 . S
N3835 S3834 1.613 . S
N3835 C3838 1.350 . S
N3836 S3834 1.610 . S
N3836 C3837 1.351 . S
C3837 C3831 1.428 . S
C3837 N3836 1.351 . S
C3837 C3838 1.434 . S
C3838 C3829 1.429 . S
C3838 N3835 1.350 . S
C3838 C3837 1.434 . S
C3839 C3840 1.369 . S
C3839 C3841 1.419 . S
C3839 H3843 0.930 . S
C3840 C3839 1.369 . S
C3840 C3849 1.429 . S
C3841 C3839 1.419 . S
C3841 C3842 1.363 . S
C3841 H3844 0.929 . S
C3842 C3841 1.363 . S
C3842 C3848 1.428 . S
H3843 C3839 0.930 . S
H3844 C3841 0.929 . S
S3845 N3846 1.613 . S
S3845 N3847 1.610 . S
N3846 S3845 1.613 . S
N3846 C3849 1.350 . S
N3847 S3845 1.610 . S
N3847 C3848 1.351 . S
C3848 C3842 1.428 . S
C3848 N3847 1.351 . S
C3848 C3849 1.434 . S
C3849 C3840 1.429 . S
C3849 N3846 1.350 . S
C3849 C3848 1.434 . S
C3850 C3851 1.369 . S
C3850 C3852 1.419 . S
C3850 H3854 0.930 . S
C3851 C3850 1.369 . S
C3851 C3860 1.429 . S
C3852 C3850 1.419 . S
C3852 C3853 1.363 . S
C3852 H3855 0.929 . S
C3853 C3852 1.363 . S
C3853 C3859 1.428 . S
H3854 C3850 0.930 . S
H3855 C3852 0.929 . S
S3856 N3857 1.613 . S
S3856 N3858 1.610 . S
N3857 S3856 1.613 . S
N3857 C3860 1.350 . S
N3858 S3856 1.610 . S
N3858 C3859 1.351 . S
C3859 C3853 1.428 . S
C3859 N3858 1.351 . S
C3859 C3860 1.434 . S
C3860 C3851 1.429 . S
C3860 N3857 1.350 . S
C3860 C3859 1.434 . S
C3861 C3862 1.369 . S
C3861 C3863 1.419 . S
C3861 H3865 0.930 . S
C3862 C3861 1.369 . S
C3862 C3871 1.429 . S
C3863 C3861 1.419 . S
C3863 C3864 1.363 . S
C3863 H3866 0.929 . S
C3864 C3863 1.363 . S
C3864 C3870 1.428 . S
H3865 C3861 0.930 . S
H3866 C3863 0.929 . S
S3867 N3868 1.613 . S
S3867 N3869 1.610 . S
N3868 S3867 1.613 . S
N3868 C3871 1.350 . S
N3869 S3867 1.610 . S
N3869 C3870 1.351 . S
C3870 C3864 1.428 . S
C3870 N3869 1.351 . S
C3870 C3871 1.434 . S
C3871 C3862 1.429 . S
C3871 N3868 1.350 . S
C3871 C3870 1.434 . S
C3872 C3873 1.369 . S
C3872 C3874 1.419 . S
C3872 H3876 0.930 . S
C3873 C3872 1.369 . S
C3873 C3882 1.429 . S
C3874 C3872 1.419 . S
C3874 C3875 1.363 . S
C3874 H3877 0.929 . S
C3875 C3874 1.363 . S
C3875 C3881 1.428 . S
H3876 C3872 0.930 . S
H3877 C3874 0.929 . S
S3878 N3879 1.613 . S
S3878 N3880 1.610 . S
N3879 S3878 1.613 . S
N3879 C3882 1.350 . S
N3880 S3878 1.610 . S
N3880 C3881 1.351 . S
C3881 C3875 1.428 . S
C3881 N3880 1.351 . S
C3881 C3882 1.434 . S
C3882 C3873 1.429 . S
C3882 N3879 1.350 . S
C3882 C3881 1.434 . S
C3883 C3884 1.369 . S
C3883 C3885 1.419 . S
C3883 H3887 0.930 . S
C3884 C3883 1.369 . S
C3884 C3893 1.429 . S
C3885 C3883 1.419 . S
C3885 C3886 1.363 . S
C3885 H3888 0.929 . S
C3886 C3885 1.363 . S
C3886 C3892 1.428 . S
H3887 C3883 0.930 . S
H3888 C3885 0.929 . S
S3889 N3890 1.613 . S
S3889 N3891 1.610 . S
N3890 S3889 1.613 . S
N3890 C3893 1.350 . S
N3891 S3889 1.610 . S
N3891 C3892 1.351 . S
C3892 C3886 1.428 . S
C3892 N3891 1.351 . S
C3892 C3893 1.434 . S
C3893 C3884 1.429 . S
C3893 N3890 1.350 . S
C3893 C3892 1.434 . S
C3894 C3895 1.369 . S
C3894 C3896 1.419 . S
C3894 H3898 0.930 . S
C3895 C3894 1.369 . S
C3895 C3904 1.429 . S
C3896 C3894 1.419 . S
C3896 C3897 1.363 . S
C3896 H3899 0.929 . S
C3897 C3896 1.363 . S
C3897 C3903 1.428 . S
H3898 C3894 0.930 . S
H3899 C3896 0.929 . S
S3900 N3901 1.613 . S
S3900 N3902 1.610 . S
N3901 S3900 1.613 . S
N3901 C3904 1.350 . S
N3902 S3900 1.610 . S
N3902 C3903 1.351 . S
C3903 C3897 1.428 . S
C3903 N3902 1.351 . S
C3903 C3904 1.434 . S
C3904 C3895 1.429 . S
C3904 N3901 1.350 . S
C3904 C3903 1.434 . S
C3905 C3906 1.369 . S
C3905 C3907 1.419 . S
C3905 H3909 0.930 . S
C3906 C3905 1.369 . S
C3906 C3915 1.429 . S
C3907 C3905 1.419 . S
C3907 C3908 1.363 . S
C3907 H3910 0.929 . S
C3908 C3907 1.363 . S
C3908 C3914 1.428 . S
H3909 C3905 0.930 . S
H3910 C3907 0.929 . S
S3911 N3912 1.613 . S
S3911 N3913 1.610 . S
N3912 S3911 1.613 . S
N3912 C3915 1.350 . S
N3913 S3911 1.610 . S
N3913 C3914 1.351 . S
C3914 C3908 1.428 . S
C3914 N3913 1.351 . S
C3914 C3915 1.434 . S
C3915 C3906 1.429 . S
C3915 N3912 1.350 . S
C3915 C3914 1.434 . S
C3916 C3917 1.369 . S
C3916 C3918 1.419 . S
C3916 H3920 0.930 . S
C3917 C3916 1.369 . S
C3917 C3926 1.429 . S
C3918 C3916 1.419 . S
C3918 C3919 1.363 . S
C3918 H3921 0.929 . S
C3919 C3918 1.363 . S
C3919 C3925 1.428 . S
H3920 C3916 0.930 . S
H3921 C3918 0.929 . S
S3922 N3923 1.613 . S
S3922 N3924 1.610 . S
N3923 S3922 1.613 . S
N3923 C3926 1.350 . S
N3924 S3922 1.610 . S
N3924 C3925 1.351 . S
C3925 C3919 1.428 . S
C3925 N3924 1.351 . S
C3925 C3926 1.434 . S
C3926 C3917 1.429 . S
C3926 N3923 1.350 . S
C3926 C3925 1.434 . S
C3927 C3928 1.369 . S
C3927 C3929 1.419 . S
C3927 H3931 0.930 . S
C3928 C3927 1.369 . S
C3928 C3937 1.429 . S
C3929 C3927 1.419 . S
C3929 C3930 1.363 . S
C3929 H3932 0.929 . S
C3930 C3929 1.363 . S
C3930 C3936 1.428 . S
H3931 C3927 0.930 . S
H3932 C3929 0.929 . S
S3933 N3934 1.613 . S
S3933 N3935 1.610 . S
N3934 S3933 1.613 . S
N3934 C3937 1.350 . S
N3935 S3933 1.610 . S
N3935 C3936 1.351 . S
C3936 C3930 1.428 . S
C3936 N3935 1.351 . S
C3936 C3937 1.434 . S
C3937 C3928 1.429 . S
C3937 N3934 1.350 . S
C3937 C3936 1.434 . S
C3938 C3939 1.369 . S
C3938 C3940 1.419 . S
C3938 H3942 0.930 . S
C3939 C3938 1.369 . S
C3939 C3948 1.429 . S
C3940 C3938 1.419 . S
C3940 C3941 1.363 . S
C3940 H3943 0.929 . S
C3941 C3940 1.363 . S
C3941 C3947 1.428 . S
H3942 C3938 0.930 . S
H3943 C3940 0.929 . S
S3944 N3945 1.613 . S
S3944 N3946 1.610 . S
N3945 S3944 1.613 . S
N3945 C3948 1.350 . S
N3946 S3944 1.610 . S
N3946 C3947 1.351 . S
C3947 C3941 1.428 . S
C3947 N3946 1.351 . S
C3947 C3948 1.434 . S
C3948 C3939 1.429 . S
C3948 N3945 1.350 . S
C3948 C3947 1.434 . S
C3949 C3950 1.369 . S
C3949 C3951 1.419 . S
C3949 H3953 0.930 . S
C3950 C3949 1.369 . S
C3950 C3959 1.429 . S
C3951 C3949 1.419 . S
C3951 C3952 1.363 . S
C3951 H3954 0.929 . S
C3952 C3951 1.363 . S
C3952 C3958 1.428 . S
H3953 C3949 0.930 . S
H3954 C3951 0.929 . S
S3955 N3956 1.613 . S
S3955 N3957 1.610 . S
N3956 S3955 1.613 . S
N3956 C3959 1.350 . S
N3957 S3955 1.610 . S
N3957 C3958 1.351 . S
C3958 C3952 1.428 . S
C3958 N3957 1.351 . S
C3958 C3959 1.434 . S
C3959 C3950 1.429 . S
C3959 N3956 1.350 . S
C3959 C3958 1.434 . S
C3169 C29 1.127 . S
C3171 C1025 1.125 . S
C3180 C841 1.122 . S
C3182 C108 1.125 . S
C3191 C929 1.128 . S
C3193 C196 1.129 . S
C3202 C313 1.128 . S
C3204 C636 1.126 . S
C3213 C409 1.125 . S
C3215 C724 1.123 . S
C3224 C489 1.126 . S
C3226 C585 1.124 . S
C3235 C1085 1.129 . S
C3237 C2081 1.127 . S
C3246 C1897 1.124 . S
C3248 C1173 1.126 . S
C3257 C1261 1.130 . S
C3259 C1985 1.127 . S
C3268 C1377 1.127 . S
C3270 C1701 1.124 . S
C3279 C1465 1.127 . S
C3281 C1780 1.124 . S
C3290 C1553 1.130 . S
C3292 C1604 1.127 . S
C3301 C2141 1.124 . S
C3303 C3137 1.122 . S
C3312 C2229 1.125 . S
C3314 C2953 1.123 . S
C3323 C3041 1.123 . S
C3325 C2317 1.126 . S
C3334 C2433 1.124 . S
C3336 C2757 1.122 . S
C3345 C2836 1.124 . S
C3347 C2521 1.127 . S
C3356 C2660 1.122 . S
C3358 C2601 1.125 . S
C3367 C20 1.080 . S
C3369 C1369 1.079 . S
C3378 C117 1.084 . S
C3380 C1457 1.082 . S
C3389 C205 1.079 . S
C3391 C1545 1.081 . S
C3400 C321 1.085 . S
C3402 C2132 1.084 . S
C3411 C2220 1.080 . S
C3413 C401 1.082 . S
C3422 C2308 1.079 . S
C3424 C497 1.079 . S
C3433 C548 1.079 . S
C3435 C2933 1.079 . S
C3444 C3021 1.085 . S
C3446 C673 1.083 . S
C3455 C761 1.082 . S
C3457 C3100 1.080 . S
C3466 C821 1.085 . S
C3468 C1641 1.082 . S
C3477 C909 1.083 . S
C3479 C1721 1.085 . S
C3488 C988 1.083 . S
C3490 C1817 1.085 . S
C3499 C2425 1.083 . S
C3501 C1076 1.084 . S
C3510 C1164 1.078 . S
C3512 C2513 1.079 1_545 S
C3521 C1252 1.078 1_455 S
C3523 C2609 1.080 . S
C3532 C2697 1.079 . S
C3534 C1877 1.082 . S
C3543 C2777 1.081 1_545 S
C3545 C1965 1.083 . S
C3554 C2044 1.082 1_455 S
C3556 C2873 1.084 . S
C3565 C49 1.564 . S
C3567 C372 1.559 . S
C3576 C469 1.564 . S
C3578 C145 1.560 . S
C3587 C293 1.559 . S
C3589 C233 1.560 . S
C3598 C577 1.563 . S
C3600 C937 1.563 . S
C3609 C1017 1.564 . S
C3611 C645 1.562 . S
C3620 C733 1.562 . S
C3622 C849 1.564 . S
C3631 C1428 1.559 . S
C3633 C1105 1.560 . S
C3642 C1193 1.558 . S
C3644 C1516 1.560 . S
C3653 C1281 1.563 . S
C3655 C1340 1.561 . S
C3664 C1993 1.564 . S
C3666 C1613 1.562 . S
C3675 C2073 1.558 . S
C3677 C1692 1.561 . S
C3686 C1905 1.564 . S
C3688 C1789 1.560 . S
C3697 C2161 1.564 . S
C3699 C2484 1.561 . S
C3708 C2249 1.558 . S
C3710 C2581 1.563 . S
C3719 C2337 1.563 . S
C3721 C2396 1.559 . S
C3730 C3049 1.559 . S
C3732 C2669 1.562 . S
C3741 C3129 1.560 . S
C3743 C2748 1.560 . S
C3752 C2961 1.564 . S
C3754 C2845 1.560 . S
C3763 C812 1.524 . S
C3765 C57 1.523 . S
C3774 C900 1.526 . S
C3776 C137 1.524 . S
C3785 C225 1.524 . S
C3787 C997 1.525 . S
C3796 C284 1.525 . S
C3798 C557 1.526 . S
C3807 C665 1.524 . S
C3809 C381 1.523 . S
C3818 C460 1.523 . S
C3820 C753 1.525 . S
C3829 C1868 1.526 . S
C3831 C1113 1.525 . S
C3840 C1956 1.526 . S
C3842 C1201 1.524 . S
C3851 C1289 1.523 . S
C3853 C2053 1.525 . S
C3862 C1633 1.524 . S
C3864 C1349 1.523 . S
C3873 C1729 1.527 . S
C3875 C1437 1.525 . S
C3884 C1809 1.527 . S
C3886 C1525 1.525 . S
C3895 C2169 1.525 . S
C3897 C2924 1.526 . S
C3906 C3012 1.526 . S
C3908 C2257 1.525 . S
C3917 C2345 1.523 . S
C3919 C3109 1.525 . S
C3928 C2405 1.524 . S
C3930 C2689 1.526 . S
C3939 C2493 1.524 . S
C3941 C2785 1.525 . S
C3950 C2865 1.527 . S
C3952 C2572 1.525 . S
