# Generated by pormake.
# Topology svj, (7)-cn, num edge types: 1
# Building blocks:
#     Node 0, Type 0, BuildingBlock: HICVOG_clean_sbu_0, # of connection points: 7
#     Node 1, Type 0, BuildingBlock: HICVOG_clean_sbu_0, # of connection points: 7
#     Node 2, Type 0, BuildingBlock: HICVOG_clean_sbu_0, # of connection points: 7
#     Node 3, Type 0, BuildingBlock: HICVOG_clean_sbu_0, # of connection points: 7
#     Node 4, Type 0, BuildingBlock: HICVOG_clean_sbu_0, # of connection points: 7
#     Node 5, Type 0, BuildingBlock: HICVOG_clean_sbu_0, # of connection points: 7
#     Edge 6, Type (0, 0), BuildingBlock: ZUJKAS_clean_linker_0, # of connection points: 2
#     Edge 7, Type (0, 0), BuildingBlock: ZUJKAS_clean_linker_0, # of connection points: 2
#     Edge 8, Type (0, 0), BuildingBlock: ZUJKAS_clean_linker_0, # of connection points: 2
#     Edge 9, Type (0, 0), BuildingBlock: ZUJKAS_clean_linker_0, # of connection points: 2
#     Edge 10, Type (0, 0), BuildingBlock: ZUJKAS_clean_linker_0, # of connection points: 2
#     Edge 11, Type (0, 0), BuildingBlock: ZUJKAS_clean_linker_0, # of connection points: 2
#     Edge 12, Type (0, 0), BuildingBlock: ZUJKAS_clean_linker_0, # of connection points: 2
#     Edge 13, Type (0, 0), BuildingBlock: ZUJKAS_clean_linker_0, # of connection points: 2
#     Edge 14, Type (0, 0), BuildingBlock: ZUJKAS_clean_linker_0, # of connection points: 2
#     Edge 15, Type (0, 0), BuildingBlock: ZUJKAS_clean_linker_0, # of connection points: 2
#     Edge 16, Type (0, 0), BuildingBlock: ZUJKAS_clean_linker_0, # of connection points: 2
#     Edge 17, Type (0, 0), BuildingBlock: ZUJKAS_clean_linker_0, # of connection points: 2
#     Edge 18, Type (0, 0), BuildingBlock: ZUJKAS_clean_linker_0, # of connection points: 2
#     Edge 19, Type (0, 0), BuildingBlock: ZUJKAS_clean_linker_0, # of connection points: 2
#     Edge 20, Type (0, 0), BuildingBlock: ZUJKAS_clean_linker_0, # of connection points: 2
#     Edge 21, Type (0, 0), BuildingBlock: ZUJKAS_clean_linker_0, # of connection points: 2
#     Edge 22, Type (0, 0), BuildingBlock: ZUJKAS_clean_linker_0, # of connection points: 2
#     Edge 23, Type (0, 0), BuildingBlock: ZUJKAS_clean_linker_0, # of connection points: 2
#     Edge 24, Type (0, 0), BuildingBlock: ZUJKAS_clean_linker_0, # of connection points: 2
#     Edge 25, Type (0, 0), BuildingBlock: ZUJKAS_clean_linker_0, # of connection points: 2
#     Edge 26, Type (0, 0), BuildingBlock: ZUJKAS_clean_linker_0, # of connection points: 2
# Relax obj value: 0.269
# Max RMSD: 0.258
# Mean RMSD: 0.241
data_MOF--net-svj--node1-HICVOG_clean_sbu_0--edge1-ZUJKAS_clean_linker_0
_symmetry_space_group_name_H-M    P1
_symmetry_Int_Tables_number       1
_symmetry_cell_setting            triclinic
loop_
_symmetry_equiv_pos_as_xyz
'x, y, z'
_cell_length_a     52.434917
_cell_length_b     52.358577
_cell_length_c     24.799856
_cell_angle_alpha  90.030067
_cell_angle_beta   89.85212
_cell_angle_gamma 119.98523
loop_
_atom_site_label
_atom_site_type_symbol
_atom_site_fract_x
_atom_site_fract_y
_atom_site_fract_z
_atom_type_partial_charge
Zn0 Zn 0.18686 0.44266 0.9862 0.0
C1 C 0.11988 0.44395 0.05842 0.0
N2 N 0.12578 0.46491 0.02114 0.0
C3 C 0.15119 0.4694 0.99944 0.0
N4 N 0.16023 0.45198 0.02218 0.0
N5 N 0.14102 0.43633 0.06017 0.0
C6 C 0.08985 0.36546 0.10941 0.0
O7 O 0.09968 0.36589 0.06046 0.0
O8 O 0.22273 0.47911 0.95811 0.0
Zn9 Zn 0.14753 0.4148 0.11728 0.0
N10 N 0.16488 0.4168 0.9281 0.0
C11 C 0.12763 0.36846 0.90396 0.0
C12 C 0.14463 0.38894 0.94305 0.0
C13 C 0.16891 0.42524 0.8755 0.0
N14 N 0.13163 0.37671 0.8514 0.0
C15 C 0.15177 0.4046 0.83566 0.0
O16 O 0.17331 0.39645 0.10096 0.0
C17 C 0.1943 0.40187 0.06837 0.0
O18 O 0.20054 0.41957 0.02906 0.0
H19 H 0.14193 0.38276 0.98513 0.0
H20 H 0.18561 0.4475 0.86521 0.0
C21 C 0.16325 0.43689 0.22614 0.0
C22 C 0.17932 0.45884 0.26479 0.0
C23 C 0.20539 0.49261 0.19406 0.0
C24 C 0.18957 0.47078 0.15614 0.0
N25 N 0.16874 0.44348 0.17284 0.0
N26 N 0.19989 0.48617 0.24726 0.0
H27 H 0.14618 0.41503 0.23777 0.0
C28 C 0.24285 0.49364 0.99235 0.0
O29 O 0.23865 0.48454 0.04266 0.0
O30 O 0.10728 0.38386 0.14387 0.0
H31 H 0.19376 0.47555 0.11364 0.0
H32 H 0.11144 0.34615 0.91519 0.0
H33 H 0.22193 0.5145 0.18139 0.0
Zn34 Zn 0.66173 0.12108 0.25399 0.0
C35 C 0.7142 0.20277 0.22396 0.0
N36 N 0.69375 0.20603 0.25119 0.0
C37 C 0.67013 0.17875 0.25012 0.0
N38 N 0.67627 0.15976 0.22457 0.0
N39 N 0.70348 0.1749 0.20586 0.0
C40 C 0.77626 0.18895 0.17547 0.0
O41 O 0.76392 0.17687 0.22177 0.0
O42 O 0.61831 0.1018 0.27027 0.0
Zn43 Zn 0.71555 0.16165 0.14176 0.0
N44 N 0.68506 0.12453 0.31765 0.0
C45 C 0.7303 0.12824 0.3447 0.0
C46 C 0.71119 0.12661 0.3044 0.0
C47 C 0.67734 0.12446 0.37039 0.0
N48 N 0.72257 0.12773 0.397 0.0
C49 C 0.69667 0.12595 0.41158 0.0
O50 O 0.70217 0.11741 0.14113 0.0
C51 C 0.6829 0.09384 0.16457 0.0
O52 O 0.66734 0.09435 0.20356 0.0
H53 H 0.71701 0.12677 0.26253 0.0
H54 H 0.65635 0.12264 0.37997 0.0
C55 C 0.70133 0.16334 0.02686 0.0
C56 C 0.68731 0.16962 0.98424 0.0
C57 C 0.66685 0.18814 0.04847 0.0
C58 C 0.68067 0.18198 0.08995 0.0
N59 N 0.69767 0.16972 0.07887 0.0
N60 N 0.67049 0.18188 0.99707 0.0
H61 H 0.71521 0.15391 0.01914 0.0
C62 C 0.60226 0.0933 0.22837 0.0
O63 O 0.61497 0.09777 0.18087 0.0
O64 O 0.75993 0.185 0.13485 0.0
H65 H 0.67779 0.18715 0.13071 0.0
H66 H 0.7511 0.12977 0.33455 0.0
H67 H 0.65331 0.19789 0.05701 0.0
Zn68 Zn 0.59327 0.734 0.10628 0.0
C69 C 0.53816 0.6843 0.98786 0.0
N70 N 0.54283 0.66323 0.00828 0.0
C71 C 0.56343 0.67792 0.04608 0.0
N72 N 0.5707 0.70655 0.04931 0.0
N73 N 0.55507 0.71048 0.01201 0.0
C74 C 0.51064 0.74945 0.98756 0.0
O75 O 0.51853 0.75267 0.03848 0.0
O76 O 0.62374 0.7232 0.12952 0.0
Zn77 Zn 0.5634 0.74706 0.98 0.0
N78 N 0.56555 0.72703 0.16392 0.0
C79 C 0.51672 0.71462 0.18763 0.0
C80 C 0.53777 0.71946 0.14866 0.0
C81 C 0.57327 0.73017 0.2169 0.0
N82 N 0.52432 0.71774 0.24042 0.0
C83 C 0.55204 0.72536 0.25663 0.0
O84 O 0.58481 0.78267 0.02692 0.0
C85 C 0.60419 0.79382 0.0637 0.0
O86 O 0.61223 0.77828 0.09066 0.0
H87 H 0.53207 0.71737 0.10646 0.0
H88 H 0.59576 0.7369 0.22745 0.0
C89 C 0.58147 0.74765 0.86893 0.0
C90 C 0.60238 0.75179 0.82898 0.0
C91 C 0.63903 0.76668 0.89684 0.0
C92 C 0.61833 0.76267 0.93602 0.0
N93 N 0.59006 0.75329 0.92138 0.0
N94 N 0.63061 0.76115 0.84451 0.0
H95 H 0.5586 0.73947 0.85902 0.0
C96 C 0.63988 0.7219 0.09247 0.0
O97 O 0.638 0.73049 0.04361 0.0
O98 O 0.52655 0.74603 0.95281 0.0
H99 H 0.62459 0.76671 0.97799 0.0
H100 H 0.49453 0.7086 0.17608 0.0
H101 H 0.6616 0.77403 0.90788 0.0
Zn102 Zn 0.88359 0.53712 0.2475 0.0
C103 C 0.80893 0.50564 0.16964 0.0
N104 N 0.80566 0.47925 0.18298 0.0
C105 C 0.83266 0.48641 0.2005 0.0
N106 N 0.85134 0.51569 0.19882 0.0
N107 N 0.8366 0.52779 0.17851 0.0
C108 C 0.82486 0.59341 0.15386 0.0
O109 O 0.8417 0.60045 0.19671 0.0
O110 O 0.90443 0.5139 0.26272 0.0
Zn111 Zn 0.85588 0.56292 0.13435 0.0
N112 N 0.86633 0.54474 0.31049 0.0
C113 C 0.83793 0.56686 0.33546 0.0
C114 C 0.85282 0.56017 0.29673 0.0
C115 C 0.86633 0.53633 0.36257 0.0
N116 N 0.83763 0.55838 0.38709 0.0
C117 C 0.85152 0.54345 0.40232 0.0
O118 O 0.89435 0.59672 0.16395 0.0
C119 C 0.91574 0.599 0.19212 0.0
O120 O 0.91356 0.57756 0.22002 0.0
H121 H 0.85358 0.56712 0.25558 0.0
H122 H 0.87729 0.5241 0.37257 0.0
C123 C 0.8625 0.55238 0.01786 0.0
C124 C 0.87568 0.54362 0.97751 0.0
C125 C 0.90012 0.53198 0.04544 0.0
C126 C 0.8875 0.541 0.08478 0.0
N127 N 0.86891 0.55088 0.07068 0.0
N128 N 0.89404 0.53362 0.99302 0.0
H129 H 0.84814 0.56093 0.0076 0.0
C130 C 0.92492 0.5191 0.22925 0.0
O131 O 0.93045 0.5383 0.19058 0.0
O132 O 0.82718 0.5773 0.11796 0.0
H133 H 0.89275 0.5405 0.12659 0.0
H134 H 0.82682 0.57885 0.32471 0.0
H135 H 0.9149 0.52404 0.05636 0.0
Zn136 Zn 0.27612 0.86439 0.12765 0.0
C137 C 0.32254 0.85385 0.00838 0.0
N138 N 0.34484 0.87901 0.02813 0.0
C139 C 0.3314 0.88669 0.06585 0.0
N140 N 0.30237 0.86685 0.0699 0.0
N141 N 0.29689 0.84656 0.03299 0.0
C142 C 0.25818 0.76446 0.00505 0.0
O143 O 0.25799 0.76911 0.05709 0.0
O144 O 0.28794 0.90649 0.14815 0.0
Zn145 Zn 0.25948 0.81955 1.0026 0.0
N146 N 0.28308 0.84451 0.18686 0.0
C147 C 0.29502 0.80803 0.21283 0.0
C148 C 0.28939 0.82316 0.17289 0.0
C149 C 0.28163 0.85105 0.23955 0.0
N150 N 0.29371 0.81455 0.26531 0.0
C151 C 0.28701 0.83555 0.28031 0.0
O152 O 0.22488 0.80587 0.05245 0.0
C153 C 0.21508 0.81538 0.08974 0.0
O154 O 0.23167 0.83941 0.11472 0.0
H155 H 0.29014 0.81802 0.13094 0.0
H156 H 0.2768 0.86834 0.24914 0.0
C157 C 0.25737 0.83713 0.89239 0.0
C158 C 0.2525 0.85368 0.85309 0.0
C159 C 0.23938 0.87626 0.92272 0.0
C160 C 0.24431 0.85992 0.96124 0.0
N161 N 0.25306 0.84066 0.94541 0.0
N162 N 0.24352 0.87273 0.86985 0.0
H163 H 0.26406 0.82135 0.8814 0.0
C164 C 0.28912 0.92369 0.11073 0.0
O165 O 0.28075 0.91292 0.06199 0.0
O166 O 0.25918 0.7836 0.97229 0.0
H167 H 0.24119 0.86251 1.00357 0.0
H168 H 0.30028 0.79114 0.20229 0.0
H169 H 0.23233 0.89165 0.93467 0.0
Zn170 Zn 0.45778 0.30014 0.14373 0.0
C171 C 0.52034 0.34526 0.25124 0.0
N172 N 0.52406 0.32165 0.25154 0.0
C173 C 0.50018 0.30125 0.22478 0.0
N174 N 0.48311 0.31209 0.20727 0.0
N175 N 0.4953 0.3393 0.22592 0.0
C176 C 0.50648 0.41326 0.22871 0.0
O177 O 0.49946 0.39991 0.18169 0.0
O178 O 0.43819 0.25577 0.13551 0.0
Zn179 Zn 0.47169 0.35407 0.25613 0.0
N180 N 0.48328 0.31922 0.08078 0.0
C181 C 0.53203 0.35166 0.04925 0.0
C182 C 0.51265 0.33584 0.09072 0.0
C183 C 0.4726 0.31736 0.02978 0.0
N184 N 0.52144 0.35017 0.99892 0.0
C185 C 0.49226 0.33339 0.98742 0.0
O186 O 0.4389 0.34816 0.2069 0.0
C187 C 0.42231 0.33232 0.16877 0.0
O188 O 0.42643 0.313 0.14494 0.0
H189 H 0.52119 0.33706 0.13064 0.0
H190 H 0.44916 0.30421 0.02265 0.0
C191 C 0.46134 0.33681 0.37257 0.0
C192 C 0.44477 0.31616 0.41348 0.0
C193 C 0.4116 0.2844 0.34659 0.0
C194 C 0.42798 0.30463 0.30674 0.0
N195 N 0.45237 0.33043 0.3201 0.0
N196 N 0.42035 0.2906 0.39856 0.0
H197 H 0.48126 0.3572 0.38181 0.0
C198 C 0.42282 0.2387 0.17363 0.0
O199 O 0.41935 0.25026 0.21813 0.0
O200 O 0.49662 0.39775 0.27124 0.0
H201 H 0.42143 0.29971 0.26506 0.0
H202 H 0.55537 0.36512 0.057 0.0
H203 H 0.39216 0.26378 0.33634 0.0
H204 H 0.37893 0.30218 0.09266 0.0
H205 H 0.33713 0.3093 0.07091 0.0
H206 H 0.36611 0.3776 0.19119 0.0
H207 H 0.40765 0.37105 0.2127 0.0
H208 H 0.29087 0.30604 0.14052 0.0
H209 H 0.3598 0.4175 0.05287 0.0
H210 H 0.37345 0.39234 0.06343 0.0
H211 H 0.37141 0.41346 0.1188 0.0
C212 C 0.37645 0.31878 0.11429 0.0
C213 C 0.39689 0.33616 0.15414 0.0
C214 C 0.35249 0.32273 0.10197 0.0
C215 C 0.34873 0.34424 0.12901 0.0
C216 C 0.36883 0.36122 0.16919 0.0
H217 H 0.20131 0.37597 0.15973 0.0
H218 H 0.23663 0.3587 0.17293 0.0
C219 C 0.39262 0.35734 0.18148 0.0
C220 C 0.32413 0.34949 0.11546 0.0
H221 H 0.31021 0.40347 0.07397 0.0
C222 C 0.29499 0.32722 0.12543 0.0
C223 C 0.32955 0.37706 0.09543 0.0
C224 C 0.36022 0.40139 0.08149 0.0
C225 C 0.27118 0.3321 0.11727 0.0
C226 C 0.27675 0.36012 0.09937 0.0
C227 C 0.30587 0.38207 0.08816 0.0
C228 C 0.25296 0.36734 0.09079 0.0
C229 C 0.2403 0.30718 0.12739 0.0
C230 C 0.25032 0.37795 0.04042 0.0
C231 C 0.23052 0.38812 0.03303 0.0
C232 C 0.21274 0.38792 0.07584 0.0
C233 C 0.21452 0.37624 0.12586 0.0
C234 C 0.23463 0.36624 0.13336 0.0
H235 H 0.23916 0.28542 0.12655 0.0
H236 H 0.23294 0.30998 0.16785 0.0
H237 H 0.22477 0.30714 0.09699 0.0
H238 H 0.26415 0.37903 0.00695 0.0
H239 H 0.22962 0.39672 0.9938 0.0
H240 H 0.05888 0.36808 0.19649 0.0
H241 H 1.00572 0.33802 0.21276 0.0
H242 H 0.99612 0.28956 0.0665 0.0
H243 H 0.04909 0.3194 0.04977 0.0
H244 H 0.9592 0.3309 0.12736 0.0
H245 H 0.9541 0.22726 0.19598 0.0
H246 H 0.98704 0.26288 0.2023 0.0
H247 H 0.97638 0.24541 0.13761 0.0
C248 C 0.04552 0.35078 0.16815 0.0
C249 C 0.05823 0.34603 0.12195 0.0
C250 C 0.01517 0.33375 0.17737 0.0
C251 C 0.99712 0.31158 0.14087 0.0
C252 C 0.00977 0.30647 0.09526 0.0
H253 H 0.80879 0.2194 0.08724 0.0
H254 H 0.86235 0.25026 0.08074 0.0
C255 C 0.04002 0.32357 0.0858 0.0
C256 C 0.96488 0.29434 0.14925 0.0
H257 H 0.90877 0.22557 0.18104 0.0
C258 C 0.94815 0.30802 0.13988 0.0
C259 C 0.95063 0.26442 0.16495 0.0
C260 C 0.96784 0.24899 0.17618 0.0
C261 C 0.91737 0.29246 0.14552 0.0
C262 C 0.90297 0.26224 0.1598 0.0
C263 C 0.91982 0.2487 0.16991 0.0
C264 C 0.87043 0.24414 0.16399 0.0
C265 C 0.90063 0.3086 0.1365 0.0
C266 C 0.85719 0.23001 0.21265 0.0
C267 C 0.82661 0.21217 0.21639 0.0
C268 C 0.80866 0.20793 0.17137 0.0
C269 C 0.82198 0.22216 0.12265 0.0
C270 C 0.85258 0.24 0.11897 0.0
H271 H 0.91498 0.33278 0.14177 0.0
H272 H 0.89205 0.30456 0.09465 0.0
H273 H 0.88165 0.3007 0.16458 0.0
H274 H 0.87056 0.23283 0.24783 0.0
H275 H 0.81708 0.20163 0.25456 0.0
H276 H 0.65269 0.83001 0.12599 0.0
H277 H 0.67394 0.88316 0.1415 0.0
H278 H 0.60671 0.88306 0.04153 0.0
H279 H 0.58599 0.83068 0.02479 0.0
H280 H 0.65993 0.92959 0.01875 0.0
H281 H 0.64092 0.92103 0.24035 0.0
H282 H 0.66335 0.90647 0.21585 0.0
H283 H 0.62521 0.88911 0.19704 0.0
C284 C 0.64247 0.84134 0.10737 0.0
C285 C 0.61758 0.82596 0.07422 0.0
C286 C 0.65456 0.87171 0.11645 0.0
C287 C 0.64173 0.88711 0.09316 0.0
C288 C 0.61708 0.87177 0.05984 0.0
H289 H 0.63565 0.03985 0.18547 0.0
H290 H 0.62973 0.99162 0.16605 0.0
C291 C 0.6052 0.84167 0.05043 0.0
C292 C 0.65328 0.91907 0.10338 0.0
H293 H 0.66201 0.96831 0.20207 0.0
C294 C 0.66066 0.93816 0.0589 0.0
C295 C 0.65405 0.93019 0.15575 0.0
C296 C 0.64525 0.91067 0.20503 0.0
C297 C 0.66767 0.96767 0.06505 0.0
C298 C 0.66803 0.97866 0.11735 0.0
C299 C 0.66179 0.95989 0.162 0.0
C300 C 0.672 0.00855 0.12659 0.0
C301 C 0.67311 0.9863 0.01528 0.0
C302 C 0.69766 0.03435 0.11028 0.0
C303 C 0.70099 0.06222 0.12079 0.0
C304 C 0.67891 0.06473 0.14857 0.0
C305 C 0.6532 0.03881 0.16426 0.0
C306 C 0.64979 0.01113 0.15331 0.0
H307 H 0.66553 0.9727 0.97807 0.0
H308 H 0.66173 0.99932 0.01832 0.0
H309 H 0.69708 1.00193 0.01112 0.0
H310 H 0.71536 0.03299 0.09045 0.0
H311 H 0.72117 0.08175 0.10865 0.0
H312 H 0.81435 0.62626 0.22618 0.0
H313 H 0.77984 0.64442 0.21849 0.0
H314 H 0.75177 0.60242 0.06335 0.0
H315 H 0.78617 0.58367 0.07102 0.0
H316 H 0.78087 0.68184 0.13883 0.0
H317 H 0.67321 0.57737 0.14053 0.0
H318 H 0.70669 0.57961 0.16504 0.0
H319 H 0.70013 0.57879 0.09388 0.0
C320 C 0.80075 0.62066 0.19046 0.0
C321 C 0.80319 0.60364 0.149 0.0
C322 C 0.78095 0.63104 0.18625 0.0
C323 C 0.76298 0.62455 0.14067 0.0
C324 C 0.76502 0.60725 0.09938 0.0
H325 H 0.6813 0.72208 0.02574 0.0
H326 H 0.70993 0.69745 0.03897 0.0
C327 C 0.78488 0.59677 0.10359 0.0
C328 C 0.74376 0.63774 0.13517 0.0
H329 H 0.67223 0.6214 0.12241 0.0
C330 C 0.75712 0.6686 0.13534 0.0
C331 C 0.71274 0.62044 0.13127 0.0
C332 C 0.6972 0.58721 0.1331 0.0
C333 C 0.74041 0.68267 0.1308 0.0
C334 C 0.7095 0.66544 0.1253 0.0
C335 C 0.69597 0.63454 0.12623 0.0
C336 C 0.69117 0.6794 0.11708 0.0
C337 C 0.75597 0.71592 0.13234 0.0
C338 C 0.67077 0.67706 0.15635 0.0
C339 C 0.65448 0.69139 0.14913 0.0
C340 C 0.65807 0.70795 0.10214 0.0
C341 C 0.67818 0.70976 0.0626 0.0
C342 C 0.69457 0.69567 0.07005 0.0
H343 H 0.77844 0.72552 0.14964 0.0
H344 H 0.7581 0.72448 0.09066 0.0
H345 H 0.74323 0.72363 0.15643 0.0
H346 H 0.66771 0.66445 0.19282 0.0
H347 H 0.63885 0.6892 0.17998 0.0
H348 H 0.17568 0.76018 0.05419 0.0
H349 H 0.12368 0.73046 0.07596 0.0
H350 H 0.12942 0.79995 0.17767 0.0
H351 H 0.18219 0.82994 0.15696 0.0
H352 H 0.09814 0.74676 0.2257 0.0
H353 H 0.05648 0.73853 0.01866 0.0
H354 H 0.08321 0.72676 0.02105 0.0
H355 H 0.09406 0.76446 0.03675 0.0
C356 C 0.16601 0.7694 0.08095 0.0
C357 C 0.18323 0.79767 0.10343 0.0
C358 C 0.13609 0.75235 0.09307 0.0
C359 C 0.12236 0.7632 0.12733 0.0
C360 C 0.13946 0.79123 0.15061 0.0
H361 H 0.92946 0.65202 0.14513 0.0
H362 H 0.97837 0.69569 0.13477 0.0
C363 C 0.16962 0.80835 0.13874 0.0
C364 C 0.09045 0.74448 0.1401 0.0
H365 H 0.02369 0.70078 0.08086 0.0
C366 C 0.08176 0.73708 0.19409 0.0
C367 C 0.06884 0.73232 0.09911 0.0
C368 C 0.07609 0.74121 0.04074 0.0
C369 C 0.05247 0.71652 0.20786 0.0
C370 C 0.03144 0.70237 0.16642 0.0
C371 C 0.03978 0.71117 0.11273 0.0
C372 C 1.00135 0.67711 0.17725 0.0
C373 C 0.0445 0.71012 0.26672 0.0
C374 C 0.99784 0.65208 0.20464 0.0
C375 C 0.96995 0.62727 0.2111 0.0
C376 C 0.94481 0.62659 0.18945 0.0
C377 C 0.94828 0.65177 0.16245 0.0
C378 C 0.97625 0.67676 0.15644 0.0
H379 H 0.05889 0.72954 0.29211 0.0
H380 H 0.0212 0.70384 0.27426 0.0
H381 H 0.04777 0.69168 0.27972 0.0
H382 H 0.01682 0.6513 0.21958 0.0
H383 H 0.96829 0.60822 0.23157 0.0
H384 H 0.28856 0.96428 0.04261 0.0
H385 H 0.31136 0.01748 0.05571 0.0
H386 H 0.3413 0.00926 0.21309 0.0
H387 H 0.31875 0.95585 0.20005 0.0
H388 H 0.30133 0.04932 0.13484 0.0
H389 H 0.4168 0.0724 0.13987 0.0
H390 H 0.38657 0.03724 0.11877 0.0
H391 H 0.39272 0.04634 0.18928 0.0
C392 C 0.29993 0.97372 0.08012 0.0
C393 C 0.30177 0.95576 0.12033 0.0
C394 C 0.31294 1.00417 0.08755 0.0
C395 C 0.32832 0.01744 0.13509 0.0
C396 C 0.32991 0.99957 0.17572 0.0
H397 H 0.38383 0.19626 0.24244 0.0
H398 H 0.36081 0.14272 0.2333 0.0
C399 C 0.31678 0.96901 0.1684 0.0
C400 C 0.34257 0.04997 0.14178 0.0
H401 H 0.40927 0.1126 0.15832 0.0
C402 C 0.32493 0.06315 0.14001 0.0
C403 C 0.37341 0.06809 0.14779 0.0
C404 C 0.3936 0.05539 0.14849 0.0
C405 C 0.33724 0.09385 0.14474 0.0
C406 C 0.36799 0.11185 0.15187 0.0
C407 C 0.38568 0.09875 0.15306 0.0
C408 C 0.38225 0.14436 0.15771 0.0
C409 C 0.31732 0.10687 0.14112 0.0
C410 C 0.40249 0.16308 0.11887 0.0
C411 C 0.4157 0.19374 0.12392 0.0
C412 C 0.40911 0.20624 0.16825 0.0
C413 C 0.38926 0.18739 0.20762 0.0
C414 C 0.37596 0.15676 0.20236 0.0
H415 H 0.29557 0.09108 0.12351 0.0
H416 H 0.31355 0.11277 0.18219 0.0
H417 H 0.32761 0.12727 0.1163 0.0
H418 H 0.40783 0.15395 0.0843 0.0
H419 H 0.43109 0.20762 0.09314 0.0
H420 H 0.1699 0.45853 0.78656 0.0
H421 H 0.17379 0.46883 0.68981 0.0
H422 H 0.14452 0.37753 0.65588 0.0
H423 H 0.14078 0.36695 0.7522 0.0
H424 H 0.2077 0.45953 0.61074 0.0
H425 H 0.088 0.39408 0.56789 0.0
H426 H 0.10236 0.40481 0.63531 0.0
H427 H 0.1023 0.374 0.60315 0.0
C428 C 0.16467 0.44067 0.7587 0.0
C429 C 0.15519 0.41188 0.77733 0.0
C430 C 0.16668 0.44659 0.70337 0.0
C431 C 0.15899 0.42384 0.66586 0.0
C432 C 0.14994 0.39526 0.68424 0.0
H433 H 0.16032 0.40653 0.32021 0.0
H434 H 0.15504 0.39907 0.41766 0.0
C435 C 0.14791 0.3893 0.73936 0.0
C436 C 0.16089 0.42991 0.60733 0.0
H437 H 0.12014 0.41057 0.49189 0.0
C438 C 0.18856 0.44907 0.58474 0.0
C439 C 0.13583 0.41613 0.57369 0.0
C440 C 0.10538 0.39631 0.5962 0.0
C441 C 0.19198 0.45419 0.52896 0.0
C442 C 0.16697 0.44011 0.49525 0.0
C443 C 0.13926 0.42122 0.51793 0.0
C444 C 0.16917 0.44459 0.4362 0.0
C445 C 0.22243 0.47393 0.50638 0.0
C446 C 0.1783 0.47255 0.41445 0.0
C447 C 0.18113 0.4769 0.35875 0.0
C448 C 0.17462 0.4533 0.32364 0.0
C449 C 0.16494 0.42513 0.34568 0.0
C450 C 0.16213 0.42083 0.40148 0.0
H451 H 0.23988 0.47736 0.53564 0.0
H452 H 0.22584 0.46454 0.46869 0.0
H453 H 0.22503 0.49579 0.49665 0.0
H454 H 0.18331 0.49105 0.4406 0.0
H455 H 0.18842 0.49882 0.34319 0.0
H456 H 0.71133 0.10029 0.49123 0.0
H457 H 0.70715 0.10416 0.58845 0.0
H458 H 0.66533 0.15617 0.56289 0.0
H459 H 0.66887 0.15175 0.465 0.0
H460 H 0.73292 0.1526 0.64756 0.0
H461 H 0.6123 0.10014 0.67682 0.0
H462 H 0.6284 0.09699 0.61455 0.0
H463 H 0.62638 0.12967 0.62866 0.0
C464 C 0.70077 0.11216 0.50621 0.0
C465 C 0.69026 0.12555 0.47021 0.0
C466 C 0.69845 0.1144 0.56194 0.0
C467 C 0.68571 0.13025 0.58338 0.0
C468 C 0.67462 0.1432 0.54757 0.0
H469 H 0.67693 0.19497 0.89763 0.0
H470 H 0.677 0.18403 0.80246 0.0
C471 C 0.67665 0.14068 0.49149 0.0
C472 C 0.68598 0.13468 0.64294 0.0
H473 H 0.64237 0.12701 0.75157 0.0
C474 C 0.71304 0.14672 0.67031 0.0
C475 C 0.66009 0.12698 0.67291 0.0
C476 C 0.63011 0.11246 0.64687 0.0
C477 C 0.71501 0.1519 0.72623 0.0
C478 C 0.68923 0.14473 0.75588 0.0
C479 C 0.66213 0.13247 0.72878 0.0
C480 C 0.69011 0.15137 0.81447 0.0
C481 C 0.74477 0.16585 0.75301 0.0
C482 C 0.69762 0.13668 0.85331 0.0
C483 C 0.69748 0.14277 0.90853 0.0
C484 C 0.68986 0.16375 0.92592 0.0
C485 C 0.68276 0.17855 0.88638 0.0
C486 C 0.68277 0.17236 0.83162 0.0
H487 H 0.76305 0.17458 0.72316 0.0
H488 H 0.74779 0.18412 0.77989 0.0
H489 H 0.74622 0.14911 0.77819 0.0
H490 H 0.70301 0.12009 0.84099 0.0
H491 H 0.70253 0.13041 0.93727 0.0
H492 H 0.55974 0.75684 0.77226 0.0
H493 H 0.55037 0.75033 0.67527 0.0
H494 H 0.61976 0.72957 0.65648 0.0
H495 H 0.62888 0.73528 0.75333 0.0
H496 H 0.59193 0.78281 0.59365 0.0
H497 H 0.5508 0.6628 0.57391 0.0
H498 H 0.55219 0.68002 0.6378 0.0
H499 H 0.58508 0.68289 0.60932 0.0
C500 C 0.57255 0.75017 0.74786 0.0
C501 C 0.59487 0.74623 0.77086 0.0
C502 C 0.56732 0.74672 0.6923 0.0
C503 C 0.5841 0.73907 0.65887 0.0
C504 C 0.60618 0.73492 0.68169 0.0
H505 H 0.59328 0.71736 0.31238 0.0
H506 H 0.60239 0.7222 0.40958 0.0
C507 C 0.6115 0.73843 0.73706 0.0
C508 C 0.57975 0.73709 0.59971 0.0
H509 H 0.56188 0.69028 0.49252 0.0
C510 C 0.58518 0.76255 0.57152 0.0
C511 C 0.57123 0.71068 0.57102 0.0
C512 C 0.56423 0.68245 0.5995 0.0
C513 C 0.58265 0.76243 0.5152 0.0
C514 C 0.57397 0.73599 0.48649 0.0
C515 C 0.56865 0.71054 0.51466 0.0
C516 C 0.56921 0.73402 0.42743 0.0
C517 C 0.58984 0.79075 0.4868 0.0
C518 C 0.54739 0.73884 0.4054 0.0
C519 C 0.54227 0.73635 0.34997 0.0
C520 C 0.55881 0.7289 0.31522 0.0
C521 C 0.5806 0.72388 0.33752 0.0
C522 C 0.58567 0.72634 0.39318 0.0
H523 H 0.60378 0.81036 0.51214 0.0
H524 H 0.60143 0.79295 0.44805 0.0
H525 H 0.56909 0.79071 0.47793 0.0
H526 H 0.53402 0.74419 0.43123 0.0
H527 H 0.52526 0.74028 0.33434 0.0
H528 H 0.91492 0.55358 0.89785 0.0
H529 H 0.90724 0.55106 0.80085 0.0
H530 H 0.81866 0.53398 0.82587 0.0
H531 H 0.82614 0.53642 0.92388 0.0
H532 H 0.86454 0.50175 0.74453 0.0
H533 H 0.85268 0.60043 0.71188 0.0
H534 H 0.86824 0.59505 0.77277 0.0
H535 H 0.82913 0.5749 0.76253 0.0
C536 C 0.89381 0.54952 0.88294 0.0
C537 C 0.87116 0.54526 0.91881 0.0
C538 C 0.88949 0.54808 0.82738 0.0
C539 C 0.86245 0.54242 0.80612 0.0
C540 C 0.83988 0.5388 0.8415 0.0
H541 H 0.80704 0.52961 0.47304 0.0
H542 H 0.8081 0.52602 0.57097 0.0
C543 C 0.84421 0.54031 0.8975 0.0
C544 C 0.85795 0.53918 0.74694 0.0
H545 H 0.84693 0.57092 0.63597 0.0
C546 C 0.86059 0.5168 0.72073 0.0
C547 C 0.85282 0.55884 0.7161 0.0
C548 C 0.85075 0.58384 0.74198 0.0
C549 C 0.85824 0.51356 0.66444 0.0
C550 C 0.85361 0.53353 0.63349 0.0
C551 C 0.85052 0.55563 0.6598 0.0
C552 C 0.85204 0.53218 0.57372 0.0
C553 C 0.86041 0.48859 0.6387 0.0
C554 C 0.8762 0.5362 0.54249 0.0
C555 C 0.87561 0.53808 0.48616 0.0
C556 C 0.85092 0.53628 0.46032 0.0
C557 C 0.82643 0.53118 0.49172 0.0
C558 C 0.82698 0.52916 0.54773 0.0
H559 H 0.85588 0.47085 0.66821 0.0
H560 H 0.84477 0.47893 0.60456 0.0
H561 H 0.88304 0.49714 0.62282 0.0
H562 H 0.89601 0.53917 0.56177 0.0
H563 H 0.89505 0.5426 0.46332 0.0
H564 H 0.31651 0.82699 0.36182 0.0
H565 H 0.31112 0.83111 0.45869 0.0
H566 H 0.24871 0.86023 0.42898 0.0
H567 H 0.25324 0.85541 0.33191 0.0
H568 H 0.32042 0.87941 0.52243 0.0
H569 H 0.20385 0.78901 0.52973 0.0
H570 H 0.22733 0.79514 0.47211 0.0
H571 H 0.21124 0.81803 0.48275 0.0
C572 C 0.30164 0.83434 0.37573 0.0
C573 C 0.28537 0.84089 0.33879 0.0
C574 C 0.29869 0.83677 0.43118 0.0
C575 C 0.27922 0.84557 0.45103 0.0
C576 C 0.26354 0.85298 0.41446 0.0
H577 H 0.22505 0.86453 0.77085 0.0
H578 H 0.23246 0.86281 0.67413 0.0
C579 C 0.26649 0.85059 0.35883 0.0
C580 C 0.27505 0.8464 0.51004 0.0
H581 H 0.22394 0.81538 0.61063 0.0
C582 C 0.29936 0.8654 0.5418 0.0
C583 C 0.24757 0.82796 0.53515 0.0
C584 C 0.22103 0.80617 0.50337 0.0
C585 C 0.29678 0.86687 0.59797 0.0
C586 C 0.26928 0.84846 0.62306 0.0
C587 C 0.245 0.82944 0.59128 0.0
C588 C 0.26495 0.84914 0.68207 0.0
C589 C 0.32332 0.88861 0.6298 0.0
C590 C 0.2805 0.84162 0.71877 0.0
C591 C 0.2764 0.84266 0.77439 0.0
C592 C 0.25645 0.85102 0.7943 0.0
C593 C 0.24068 0.85813 0.75715 0.0
C594 C 0.2448 0.85707 0.70174 0.0
H595 H 0.34045 0.90586 0.6035 0.0
H596 H 0.31701 0.89952 0.6613 0.0
H597 H 0.33317 0.87673 0.65012 0.0
H598 H 0.29586 0.835 0.7044 0.0
H599 H 0.28936 0.83753 0.80149 0.0
H600 H 0.47776 0.36827 0.47164 0.0
H601 H 0.4867 0.37305 0.56918 0.0
H602 H 0.43662 0.27851 0.58593 0.0
H603 H 0.42853 0.27338 0.48939 0.0
H604 H 0.44654 0.35544 0.65266 0.0
H605 H 0.50978 0.29716 0.66876 0.0
H606 H 0.50307 0.30925 0.60495 0.0
H607 H 0.47533 0.27528 0.63501 0.0
C608 C 0.46923 0.34845 0.49576 0.0
C609 C 0.45262 0.32039 0.47201 0.0
C610 C 0.47414 0.35125 0.55174 0.0
C611 C 0.46275 0.3261 0.58496 0.0
C612 C 0.44628 0.29823 0.56127 0.0
H613 H 0.45008 0.28633 0.92894 0.0
H614 H 0.44091 0.28512 0.8315 0.0
C615 C 0.44144 0.2954 0.50575 0.0
C616 C 0.46682 0.3286 0.64462 0.0
H617 H 0.4896 0.3035 0.75101 0.0
C618 C 0.45624 0.34435 0.67409 0.0
C619 C 0.4794 0.31405 0.67281 0.0
C620 C 0.49281 0.29825 0.6437 0.0
C621 C 0.45723 0.34527 0.73085 0.0
C622 C 0.46916 0.33014 0.75888 0.0
C623 C 0.48002 0.31469 0.72948 0.0
C624 C 0.47213 0.33137 0.81859 0.0
C625 C 0.44504 0.36197 0.76063 0.0
C626 C 0.49245 0.35777 0.84366 0.0
C627 C 0.49782 0.35847 0.89897 0.0
C628 C 0.48284 0.33282 0.93069 0.0
C629 C 0.46163 0.30656 0.90591 0.0
C630 C 0.45653 0.3058 0.85019 0.0
H631 H 0.4313 0.36734 0.73417 0.0
H632 H 0.43159 0.34901 0.79571 0.0
H633 H 0.46355 0.38293 0.77615 0.0
H634 H 0.505 0.37766 0.82005 0.0
H635 H 0.51433 0.37904 0.91678 0.0
H636 H 0.24677 0.74228 0.90223 0.0
H637 H 0.23695 0.69337 0.87315 0.0
H638 H 0.25544 0.67558 0.03363 0.0
H639 H 0.26509 0.72416 0.06316 0.0
H640 H 0.27779 0.65515 0.93245 0.0
H641 H 0.15849 0.62062 0.94313 0.0
H642 H 0.18353 0.65391 0.90761 0.0
H643 H 0.18575 0.65243 0.97954 0.0
C644 C 0.24921 0.72813 0.9311 0.0
C645 C 0.25613 0.73682 0.98527 0.0
C646 C 0.24369 0.70028 0.91435 0.0
C647 C 0.24534 0.68092 0.95138 0.0
C648 C 0.2541 0.69028 1.0045 0.0
H649 H 0.20364 0.51173 0.0351 0.0
H650 H 0.23049 0.56279 0.00571 0.0
C651 C 0.25937 0.71795 0.02138 0.0
C652 C 0.23434 0.64967 0.93738 0.0
H653 H 0.17054 0.58359 0.93388 0.0
C654 C 0.25435 0.63946 0.93164 0.0
C655 C 0.20379 0.62939 0.93577 0.0
C656 C 0.18146 0.6394 0.94193 0.0
C657 C 0.24449 0.60916 0.92662 0.0
C658 C 0.21389 0.58864 0.92924 0.0
C659 C 0.19397 0.59917 0.93171 0.0
C660 C 0.20204 0.55652 0.93773 0.0
C661 C 0.267 0.59954 0.91931 0.0
C662 C 0.17716 0.53554 0.90915 0.0
C663 C 0.16164 0.50611 0.92635 0.0
C664 C 0.1711 0.49719 0.97172 0.0
C665 C 0.1968 0.51775 0.99837 0.0
C666 C 0.21215 0.54708 0.98156 0.0
H667 H 0.28583 0.61594 0.89476 0.0
H668 H 0.27577 0.59826 0.95929 0.0
H669 H 0.25752 0.57769 0.89938 0.0
H670 H 0.16868 0.5423 0.87563 0.0
H671 H 0.14138 0.49076 0.90616 0.0
H672 H 0.51055 0.28221 0.12926 0.0
H673 H 0.52484 0.24437 0.12136 0.0
H674 H 0.49951 0.21937 0.28709 0.0
H675 H 0.48509 0.25687 0.29456 0.0
H676 H 0.57061 0.25496 0.18416 0.0
H677 H 0.48183 0.14084 0.22348 0.0
H678 H 0.47451 0.16952 0.20177 0.0
H679 H 0.48135 0.16611 0.27178 0.0
C680 C 0.50642 0.26743 0.16283 0.0
C681 C 0.49655 0.27218 0.21238 0.0
C682 C 0.51475 0.24591 0.15848 0.0
C683 C 0.5133 0.22894 0.20366 0.0
C684 C 0.50036 0.23164 0.25134 0.0
H685 H 0.64826 0.20043 0.32578 0.0
H686 H 0.60521 0.20676 0.31502 0.0
C687 C 0.49214 0.25316 0.25566 0.0
C688 C 0.53146 0.2144 0.20566 0.0
H689 H 0.53148 0.15202 0.24692 0.0
C690 C 0.56185 0.23225 0.19676 0.0
C691 C 0.52019 0.18481 0.22242 0.0
C692 C 0.48763 0.16414 0.22987 0.0
C693 C 0.58138 0.22186 0.20653 0.0
C694 C 0.57038 0.19293 0.2264 0.0
C695 C 0.53988 0.17443 0.23283 0.0
C696 C 0.5909 0.18224 0.24038 0.0
C697 C 0.61388 0.2422 0.19676 0.0
C698 C 0.59635 0.16542 0.20311 0.0
C699 C 0.62096 0.16193 0.20913 0.0
C700 C 0.64018 0.17473 0.25302 0.0
C701 C 0.63344 0.18977 0.29231 0.0
C702 C 0.60891 0.19341 0.28614 0.0
H703 H 0.61828 0.26202 0.17314 0.0
H704 H 0.62534 0.24961 0.23609 0.0
H705 H 0.6235 0.23046 0.17491 0.0
H706 H 0.58306 0.15711 0.16706 0.0
H707 H 0.62638 0.15161 0.17676 0.0
H708 H 0.2884 0.52978 0.05748 0.0
H709 H 0.33722 0.56885 0.0306 0.0
H710 H 0.3106 0.55579 0.86393 0.0
H711 H 0.26123 0.51637 0.89049 0.0
H712 H 0.36969 0.55173 0.9448 0.0
H713 H 0.36021 0.65126 0.90334 0.0
H714 H 0.33557 0.62324 0.95011 0.0
H715 H 0.33254 0.61541 0.87932 0.0
C716 C 0.29267 0.53539 0.01513 0.0
C717 C 0.27108 0.51962 0.97603 0.0
C718 C 0.32056 0.55783 0.9999 0.0
C719 C 0.32741 0.56509 0.94538 0.0
C720 C 0.30558 0.55052 0.90625 0.0
H721 H 0.51832 0.65544 0.89202 0.0
H722 H 0.46669 0.62959 0.86222 0.0
C723 C 0.2775 0.52796 0.9215 0.0
C724 C 0.35841 0.5853 0.93015 0.0
H725 H 0.40809 0.65774 0.90606 0.0
C726 C 0.37816 0.57479 0.93504 0.0
C727 C 0.36909 0.61527 0.91779 0.0
C728 C 0.34841 0.62724 0.91228 0.0
C729 C 0.40862 0.59383 0.93122 0.0
C730 C 0.41958 0.62419 0.92092 0.0
C731 C 0.39964 0.63443 0.91322 0.0
C732 C 0.4513 0.64592 0.92754 0.0
C733 C 0.42878 0.5816 0.94246 0.0
C734 C 0.45997 0.66522 0.97163 0.0
C735 C 0.48928 0.6801 0.98809 0.0
C736 C 0.51051 0.67644 0.96014 0.0
C737 C 0.50235 0.65903 0.91345 0.0
C738 C 0.47291 0.64415 0.89673 0.0
H739 H 0.41666 0.55872 0.95849 0.0
H740 H 0.43988 0.58128 0.90455 0.0
H741 H 0.44599 0.59562 0.97206 0.0
H742 H 0.44369 0.66676 0.99627 0.0
H743 H 0.49479 0.6923 0.02559 0.0
H744 H 0.87546 0.47886 0.15424 0.0
H745 H 0.87539 0.43189 0.15053 0.0
H746 H 0.80518 0.39495 0.26774 0.0
H747 H 0.80495 0.44151 0.27091 0.0
H748 H 0.86537 0.37965 0.24805 0.0
H749 H 0.78009 0.36125 0.09574 0.0
H750 H 0.81141 0.39725 0.10877 0.0
H751 H 0.78117 0.38135 0.15545 0.0
C752 C 0.8612 0.46119 0.18137 0.0
C753 C 0.84041 0.46373 0.21335 0.0
C754 C 0.86106 0.43436 0.17897 0.0
C755 C 0.84022 0.41001 0.20877 0.0
C756 C 0.82157 0.41359 0.24479 0.0
H757 H 0.75169 0.23917 0.29781 0.0
H758 H 0.7923 0.28882 0.28303 0.0
C759 C 0.82147 0.44017 0.24669 0.0
C760 C 0.83308 0.37968 0.19471 0.0
H761 H 0.7783 0.31892 0.13319 0.0
C762 C 0.84683 0.36638 0.22189 0.0
C763 C 0.80946 0.36265 0.15941 0.0
C764 C 0.79469 0.37626 0.12773 0.0
C765 C 0.83581 0.33578 0.21805 0.0
C766 C 0.80986 0.31814 0.18785 0.0
C767 C 0.79804 0.33212 0.15668 0.0
C768 C 0.79131 0.28565 0.19581 0.0
C769 C 0.85158 0.32268 0.2479 0.0
C770 C 0.77716 0.26668 0.15192 0.0
C771 C 0.75325 0.23823 0.16055 0.0
C772 C 0.74354 0.22826 0.21317 0.0
C773 C 0.75913 0.24627 0.25686 0.0
C774 C 0.78266 0.27465 0.24836 0.0
H775 H 0.8758 0.33733 0.24441 0.0
H776 H 0.8459 0.32095 0.29139 0.0
H777 H 0.84566 0.30048 0.2325 0.0
H778 H 0.78319 0.27464 0.11094 0.0
H779 H 0.74113 0.22502 0.1262 0.0
H780 H 0.49298 0.75384 0.88549 0.0
H781 H 0.45173 0.76121 0.86106 0.0
H782 H 0.42688 0.75438 0.0285 0.0
H783 H 0.46788 0.74718 0.05328 0.0
H784 H 0.37748 0.72423 0.94347 0.0
H785 H 0.45955 0.84312 0.91022 0.0
H786 H 0.46499 0.81537 0.87798 0.0
H787 H 0.46852 0.81976 0.94974 0.0
C788 C 0.47846 0.75348 0.91698 0.0
C789 C 0.48397 0.75042 0.97142 0.0
C790 C 0.4549 0.75761 0.90292 0.0
C791 C 0.4364 0.75845 0.94305 0.0
C792 C 0.44088 0.75372 0.99696 0.0
H793 H 0.31832 0.8055 0.05309 0.0
H794 H 0.33993 0.77681 0.02015 0.0
C795 C 0.46447 0.74983 0.01107 0.0
C796 C 0.41459 0.76769 0.93063 0.0
H797 H 0.41015 0.83003 0.91608 0.0
C798 C 0.38446 0.74724 0.93623 0.0
C799 C 0.42377 0.79762 0.92054 0.0
C800 C 0.45594 0.82042 0.91434 0.0
C801 C 0.36334 0.75632 0.93495 0.0
C802 C 0.37281 0.78673 0.9297 0.0
C803 C 0.40277 0.80674 0.92012 0.0
C804 C 0.35342 0.79909 0.94291 0.0
C805 C 0.33124 0.73329 0.94066 0.0
C806 C 0.35344 0.82123 0.91061 0.0
C807 C 0.34118 0.83791 0.92993 0.0
C808 C 0.32832 0.8323 0.98133 0.0
C809 C 0.32698 0.80931 0.01235 0.0
C810 C 0.33933 0.79283 0.99337 0.0
H811 H 0.32661 0.71237 0.92086 0.0
H812 H 0.32573 0.72839 0.98405 0.0
H813 H 0.31664 0.74076 0.92292 0.0
H814 H 0.36452 0.82679 0.87188 0.0
H815 H 0.34312 0.85613 0.90606 0.0
H816 H 0.79376 0.53983 0.22817 0.0
H817 H 0.74279 0.52765 0.24455 0.0
H818 H 0.71378 0.46459 0.11476 0.0
H819 H 0.76454 0.47636 0.09895 0.0
H820 H 0.68337 0.51174 0.17604 0.0
H821 H 0.69451 0.42218 0.27357 0.0
H822 H 0.72591 0.45751 0.25689 0.0
H823 H 0.70738 0.43054 0.20506 0.0
C824 C 0.77674 0.52479 0.20093 0.0
C825 C 0.78298 0.50907 0.16215 0.0
C826 C 0.74757 0.5177 0.21057 0.0
C827 C 0.72454 0.49499 0.18124 0.0
C828 C 0.73128 0.48223 0.13772 0.0
H829 H 0.5409 0.38616 0.17225 0.0
H830 H 0.58974 0.42909 0.16548 0.0
C831 C 0.7603 0.48904 0.12854 0.0
C832 C 0.6943 0.47944 0.20373 0.0
H833 H 0.64647 0.41461 0.26504 0.0
C834 C 0.67525 0.49067 0.19614 0.0
C835 C 0.68407 0.4524 0.23128 0.0
C836 C 0.70402 0.43995 0.24272 0.0
C837 C 0.64559 0.4746 0.21303 0.0
C838 C 0.63478 0.4464 0.23698 0.0
C839 C 0.65449 0.43615 0.24692 0.0
C840 C 0.60287 0.42542 0.24656 0.0
C841 C 0.62627 0.48801 0.20489 0.0
C842 C 0.59337 0.40891 0.29467 0.0
C843 C 0.56532 0.38382 0.29821 0.0
C844 C 0.54608 0.37526 0.25419 0.0
C845 C 0.55482 0.39288 0.20758 0.0
C846 C 0.5829 0.41762 0.20371 0.0
H847 H 0.63942 0.51243 0.20752 0.0
H848 H 0.61646 0.48239 0.16398 0.0
H849 H 0.6082 0.47982 0.2351 0.0
H850 H 0.60839 0.41426 0.32823 0.0
H851 H 0.5593 0.37023 0.33411 0.0
H852 H 0.91435 0.47045 0.28988 0.0
H853 H 0.94366 0.44545 0.29015 0.0
H854 H 1.00301 0.50811 0.17334 0.0
H855 H 0.97453 0.53301 0.17321 0.0
H856 H 0.95739 0.41933 0.20324 0.0
H857 H 0.05905 0.51025 0.28929 0.0
H858 H 0.02386 0.5085 0.29545 0.0
H859 H 0.04605 0.52371 0.2357 0.0
C860 C 0.93388 0.47902 0.26488 0.0
C861 C 0.94228 0.50388 0.23193 0.0
C862 C 0.95052 0.4647 0.26495 0.0
C863 C 0.97591 0.47536 0.2327 0.0
C864 C 0.98399 0.49996 0.19965 0.0
H865 H 0.06385 0.42559 0.031 0.0
H866 H 0.0254 0.42361 0.08889 0.0
C867 C 0.96748 0.51407 0.19935 0.0
C868 C 0.99375 0.46058 0.23037 0.0
H869 H 0.06574 0.47861 0.22519 0.0
C870 C 0.98101 0.43189 0.20951 0.0
C871 C 0.0244 0.47647 0.24017 0.0
C872 C 0.03905 0.50631 0.267 0.0
C873 C 0.99861 0.42008 0.19256 0.0
C874 C 0.02969 0.43775 0.19525 0.0
C875 C 0.04201 0.46505 0.22191 0.0
C876 C 0.04981 0.43114 0.16325 0.0
C877 C 0.98366 0.38924 0.17016 0.0
C878 C 0.07644 0.43558 0.18527 0.0
C879 C 0.09876 0.43729 0.15165 0.0
C880 C 0.0947 0.43417 0.09567 0.0
C881 C 0.06736 0.42759 0.0742 0.0
C882 C 0.04519 0.42616 0.10752 0.0
H883 H 0.96328 0.37475 0.19333 0.0
H884 H 0.97705 0.38961 0.12781 0.0
H885 H 0.99825 0.37956 0.17125 0.0
H886 H 0.08076 0.43979 0.22799 0.0
H887 H 0.11986 0.4434 0.16903 0.0
H888 H 0.56444 0.08998 0.15082 0.0
H889 H 0.51091 0.05968 0.15099 0.0
H890 H 0.51307 0.03139 0.31341 0.0
H891 H 0.56704 0.06208 0.31361 0.0
H892 H 0.48438 0.98546 0.23949 0.0
H893 H 0.44258 0.06278 0.22676 0.0
H894 H 0.469 0.07083 0.17403 0.0
H895 H 0.48035 0.07479 0.24358 0.0
C896 C 0.55351 0.07772 0.18695 0.0
C897 C 0.56986 0.0781 0.232 0.0
C898 C 0.52288 0.06065 0.1872 0.0
C899 C 0.50799 0.04351 0.2324 0.0
C900 C 0.52416 0.0447 0.27834 0.0
H901 H 0.33498 0.88717 0.1759 0.0
H902 H 0.37217 0.92674 0.23159 0.0
C903 C 0.55492 0.06218 0.27839 0.0
C904 C 0.47626 0.02149 0.22787 0.0
H905 H 0.41137 0.01397 0.18354 0.0
C906 C 0.46807 0.99157 0.22891 0.0
C907 C 0.45514 0.0296 0.21406 0.0
C908 C 0.46225 0.06129 0.21506 0.0
C909 C 0.4401 0.9697 0.21163 0.0
C910 C 0.41958 0.97802 0.19409 0.0
C911 C 0.4271 0.00773 0.197 0.0
C912 C 0.39241 0.95701 0.16492 0.0
C913 C 0.43375 0.93825 0.20802 0.0
C914 C 0.39003 0.9617 0.1099 0.0
C915 C 0.3683 0.93932 0.07847 0.0
C916 C 0.34837 0.91206 0.10164 0.0
C917 C 0.34929 0.9082 0.15742 0.0
C918 C 0.37097 0.93067 0.18906 0.0
H919 H 0.45374 0.93647 0.21475 0.0
H920 H 0.41724 0.92472 0.23914 0.0
H921 H 0.42454 0.92872 0.1679 0.0
H922 H 0.40628 0.98187 0.0904 0.0
H923 H 0.36816 0.94269 0.03539 0.0
H924 H 0.54322 0.44965 0.15106 0.0
H925 H 0.56678 0.5032 0.14715 0.0
H926 H 0.53425 0.50427 0.30658 0.0
H927 H 0.51039 0.45028 0.31068 0.0
H928 H 0.51682 0.52994 0.23037 0.0
H929 H 0.63675 0.57573 0.21168 0.0
H930 H 0.61683 0.54497 0.16726 0.0
H931 H 0.61245 0.5395 0.23915 0.0
C932 C 0.54154 0.4613 0.18577 0.0
C933 C 0.52456 0.44577 0.23083 0.0
C934 C 0.55539 0.492 0.18378 0.0
C935 C 0.55256 0.50785 0.22678 0.0
C936 C 0.53695 0.4925 0.27315 0.0
H937 H 0.56175 0.67657 0.15643 0.0
H938 H 0.56683 0.64164 0.21459 0.0
C939 C 0.52329 0.46168 0.2754 0.0
C940 C 0.56134 0.53929 0.21873 0.0
H941 H 0.61717 0.60432 0.16952 0.0
C942 C 0.53895 0.54653 0.21864 0.0
C943 C 0.5902 0.56087 0.20335 0.0
C944 C 0.61549 0.55496 0.20587 0.0
C945 C 0.54397 0.57379 0.19904 0.0
C946 C 0.57244 0.59471 0.18018 0.0
C947 C 0.59537 0.58828 0.18387 0.0
C948 C 0.57734 0.62104 0.1492 0.0
C949 C 0.51812 0.5789 0.19463 0.0
C950 C 0.58369 0.6225 0.09391 0.0
C951 C 0.58139 0.64287 0.06101 0.0
C952 C 0.57308 0.66235 0.08289 0.0
C953 C 0.56898 0.66244 0.1388 0.0
C954 C 0.57145 0.64214 0.1719 0.0
H955 H 0.49678 0.55853 0.20255 0.0
H956 H 0.52059 0.59574 0.22456 0.0
H957 H 0.51724 0.58716 0.15384 0.0
H958 H 0.5883 0.60646 0.07549 0.0
H959 H 0.58445 0.64227 0.01789 0.0
loop_
_geom_bond_atom_site_label_1
_geom_bond_atom_site_label_2
_geom_bond_distance
_geom_bond_site_symmetry_2
_ccdc_geom_bond_type
Zn0 N4 2.020 . S
Zn0 O8 2.019 1_554 S
Zn0 N10 2.119 1_554 S
Zn0 O18 1.975 . S
C1 N2 1.334 . S
C1 N5 1.336 . S
N2 C1 1.334 . S
N2 C3 1.334 . S
C3 N2 1.334 . S
C3 N4 1.336 . S
N4 Zn0 2.020 . S
N4 C3 1.336 . S
N4 N5 1.354 . S
N5 C1 1.336 . S
N5 N4 1.354 . S
N5 Zn9 2.020 . S
C6 O7 1.244 . S
C6 O30 1.257 . S
O7 C6 1.244 . S
O8 Zn0 2.019 1_556 S
O8 C28 1.257 1_556 S
Zn9 N5 2.020 . S
Zn9 O16 1.975 . S
Zn9 N25 2.119 . S
Zn9 O30 2.019 . S
N10 Zn0 2.119 1_556 S
N10 C12 1.334 . S
N10 C13 1.328 . S
C11 C12 1.391 . S
C11 N14 1.329 . S
C11 H32 0.930 . S
C12 N10 1.334 . S
C12 C11 1.391 . S
C12 H19 0.930 . S
C13 N10 1.328 . S
C13 C15 1.392 . S
C13 H20 0.930 . S
N14 C11 1.329 . S
N14 C15 1.331 . S
C15 C13 1.392 . S
C15 N14 1.331 . S
O16 Zn9 1.975 . S
O16 C17 1.252 . S
C17 O16 1.252 . S
C17 O18 1.252 . S
O18 Zn0 1.975 . S
O18 C17 1.252 . S
H19 C12 0.930 . S
H20 C13 0.930 . S
C21 C22 1.392 . S
C21 N25 1.328 . S
C21 H27 0.930 . S
C22 C21 1.392 . S
C22 N26 1.331 . S
C23 C24 1.391 . S
C23 N26 1.329 . S
C23 H33 0.930 . S
C24 C23 1.391 . S
C24 N25 1.334 . S
C24 H31 0.930 . S
N25 Zn9 2.119 . S
N25 C21 1.328 . S
N25 C24 1.334 . S
N26 C22 1.331 . S
N26 C23 1.329 . S
H27 C21 0.930 . S
C28 O8 1.257 1_554 S
C28 O29 1.244 . S
O29 C28 1.244 . S
O30 C6 1.257 . S
O30 Zn9 2.019 . S
H31 C24 0.930 . S
H32 C11 0.930 . S
H33 C23 0.930 . S
Zn34 N38 2.020 . S
Zn34 O42 2.019 . S
Zn34 N44 2.119 . S
Zn34 O52 1.975 . S
C35 N36 1.334 . S
C35 N39 1.336 . S
N36 C35 1.334 . S
N36 C37 1.334 . S
C37 N36 1.334 . S
C37 N38 1.336 . S
N38 Zn34 2.020 . S
N38 C37 1.336 . S
N38 N39 1.354 . S
N39 C35 1.336 . S
N39 N38 1.354 . S
N39 Zn43 2.020 . S
C40 O41 1.244 . S
C40 O64 1.257 . S
O41 C40 1.244 . S
O42 Zn34 2.019 . S
O42 C62 1.257 . S
Zn43 N39 2.020 . S
Zn43 O50 1.975 . S
Zn43 N59 2.119 . S
Zn43 O64 2.019 . S
N44 Zn34 2.119 . S
N44 C46 1.334 . S
N44 C47 1.328 . S
C45 C46 1.391 . S
C45 N48 1.329 . S
C45 H66 0.930 . S
C46 N44 1.334 . S
C46 C45 1.391 . S
C46 H53 0.930 . S
C47 N44 1.328 . S
C47 C49 1.392 . S
C47 H54 0.930 . S
N48 C45 1.329 . S
N48 C49 1.331 . S
C49 C47 1.392 . S
C49 N48 1.331 . S
O50 Zn43 1.975 . S
O50 C51 1.252 . S
C51 O50 1.252 . S
C51 O52 1.252 . S
O52 Zn34 1.975 . S
O52 C51 1.252 . S
H53 C46 0.930 . S
H54 C47 0.930 . S
C55 C56 1.392 1_554 S
C55 N59 1.328 . S
C55 H61 0.930 . S
C56 C55 1.392 1_556 S
C56 N60 1.331 . S
C57 C58 1.391 . S
C57 N60 1.329 1_554 S
C57 H67 0.930 1_554 S
C58 C57 1.391 . S
C58 N59 1.334 . S
C58 H65 0.930 . S
N59 Zn43 2.119 . S
N59 C55 1.328 . S
N59 C58 1.334 . S
N60 C56 1.331 . S
N60 C57 1.329 1_556 S
H61 C55 0.930 . S
C62 O42 1.257 . S
C62 O63 1.244 . S
O63 C62 1.244 . S
O64 C40 1.257 . S
O64 Zn43 2.019 . S
H65 C58 0.930 . S
H66 C45 0.930 . S
H67 C57 0.930 1_556 S
Zn68 N72 2.020 . S
Zn68 O76 2.019 . S
Zn68 N78 2.119 . S
Zn68 O86 1.975 . S
C69 N70 1.334 . S
C69 N73 1.336 . S
N70 C69 1.334 . S
N70 C71 1.334 . S
C71 N70 1.334 . S
C71 N72 1.336 . S
N72 Zn68 2.020 . S
N72 C71 1.336 . S
N72 N73 1.354 . S
N73 C69 1.336 . S
N73 N72 1.354 . S
N73 Zn77 2.020 . S
C74 O75 1.244 . S
C74 O98 1.257 1_554 S
O75 C74 1.244 . S
O76 Zn68 2.019 . S
O76 C96 1.257 . S
Zn77 N73 2.020 . S
Zn77 O84 1.975 . S
Zn77 N93 2.119 1_554 S
Zn77 O98 2.019 1_554 S
N78 Zn68 2.119 . S
N78 C80 1.334 . S
N78 C81 1.328 . S
C79 C80 1.391 . S
C79 N82 1.329 . S
C79 H100 0.930 . S
C80 N78 1.334 . S
C80 C79 1.391 . S
C80 H87 0.930 . S
C81 N78 1.328 . S
C81 C83 1.392 . S
C81 H88 0.930 . S
N82 C79 1.329 . S
N82 C83 1.331 . S
C83 C81 1.392 . S
C83 N82 1.331 . S
O84 Zn77 1.975 . S
O84 C85 1.252 . S
C85 O84 1.252 . S
C85 O86 1.252 . S
O86 Zn68 1.975 . S
O86 C85 1.252 . S
H87 C80 0.930 . S
H88 C81 0.930 . S
C89 C90 1.392 . S
C89 N93 1.328 . S
C89 H95 0.930 . S
C90 C89 1.392 . S
C90 N94 1.331 . S
C91 C92 1.391 . S
C91 N94 1.329 . S
C91 H101 0.930 . S
C92 C91 1.391 . S
C92 N93 1.334 . S
C92 H99 0.930 . S
N93 Zn77 2.119 1_556 S
N93 C89 1.328 . S
N93 C92 1.334 . S
N94 C90 1.331 . S
N94 C91 1.329 . S
H95 C89 0.930 . S
C96 O76 1.257 . S
C96 O97 1.244 . S
O97 C96 1.244 . S
O98 C74 1.257 1_556 S
O98 Zn77 2.019 1_556 S
H99 C92 0.930 . S
H100 C79 0.930 . S
H101 C91 0.930 . S
Zn102 N106 2.020 . S
Zn102 O110 2.019 . S
Zn102 N112 2.119 . S
Zn102 O120 1.975 . S
C103 N104 1.334 . S
C103 N107 1.336 . S
N104 C103 1.334 . S
N104 C105 1.334 . S
C105 N104 1.334 . S
C105 N106 1.336 . S
N106 Zn102 2.020 . S
N106 C105 1.336 . S
N106 N107 1.354 . S
N107 C103 1.336 . S
N107 N106 1.354 . S
N107 Zn111 2.020 . S
C108 O109 1.244 . S
C108 O132 1.257 . S
O109 C108 1.244 . S
O110 Zn102 2.019 . S
O110 C130 1.257 . S
Zn111 N107 2.020 . S
Zn111 O118 1.975 . S
Zn111 N127 2.119 . S
Zn111 O132 2.019 . S
N112 Zn102 2.119 . S
N112 C114 1.334 . S
N112 C115 1.328 . S
C113 C114 1.391 . S
C113 N116 1.329 . S
C113 H134 0.930 . S
C114 N112 1.334 . S
C114 C113 1.391 . S
C114 H121 0.930 . S
C115 N112 1.328 . S
C115 C117 1.392 . S
C115 H122 0.930 . S
N116 C113 1.329 . S
N116 C117 1.331 . S
C117 C115 1.392 . S
C117 N116 1.331 . S
O118 Zn111 1.975 . S
O118 C119 1.252 . S
C119 O118 1.252 . S
C119 O120 1.252 . S
O120 Zn102 1.975 . S
O120 C119 1.252 . S
H121 C114 0.930 . S
H122 C115 0.930 . S
C123 C124 1.392 1_554 S
C123 N127 1.328 . S
C123 H129 0.930 . S
C124 C123 1.392 1_556 S
C124 N128 1.331 . S
C125 C126 1.391 . S
C125 N128 1.329 1_554 S
C125 H135 0.930 1_554 S
C126 C125 1.391 . S
C126 N127 1.334 . S
C126 H133 0.930 . S
N127 Zn111 2.119 . S
N127 C123 1.328 . S
N127 C126 1.334 . S
N128 C124 1.331 . S
N128 C125 1.329 1_556 S
H129 C123 0.930 . S
C130 O110 1.257 . S
C130 O131 1.244 . S
O131 C130 1.244 . S
O132 C108 1.257 . S
O132 Zn111 2.019 . S
H133 C126 0.930 . S
H134 C113 0.930 . S
H135 C125 0.930 1_556 S
Zn136 N140 2.020 . S
Zn136 O144 2.019 . S
Zn136 N146 2.119 . S
Zn136 O154 1.975 . S
C137 N138 1.334 . S
C137 N141 1.336 . S
N138 C137 1.334 . S
N138 C139 1.334 . S
C139 N138 1.334 . S
C139 N140 1.336 . S
N140 Zn136 2.020 . S
N140 C139 1.336 . S
N140 N141 1.354 . S
N141 C137 1.336 . S
N141 N140 1.354 . S
N141 Zn145 2.020 . S
C142 O143 1.244 . S
C142 O166 1.257 1_554 S
O143 C142 1.244 . S
O144 Zn136 2.019 . S
O144 C164 1.257 . S
Zn145 N141 2.020 . S
Zn145 O152 1.975 . S
Zn145 N161 2.119 1_554 S
Zn145 O166 2.019 1_554 S
N146 Zn136 2.119 . S
N146 C148 1.334 . S
N146 C149 1.328 . S
C147 C148 1.391 . S
C147 N150 1.329 . S
C147 H168 0.930 . S
C148 N146 1.334 . S
C148 C147 1.391 . S
C148 H155 0.930 . S
C149 N146 1.328 . S
C149 C151 1.392 . S
C149 H156 0.930 . S
N150 C147 1.329 . S
N150 C151 1.331 . S
C151 C149 1.392 . S
C151 N150 1.331 . S
O152 Zn145 1.975 . S
O152 C153 1.252 . S
C153 O152 1.252 . S
C153 O154 1.252 . S
O154 Zn136 1.975 . S
O154 C153 1.252 . S
H155 C148 0.930 . S
H156 C149 0.930 . S
C157 C158 1.392 . S
C157 N161 1.328 . S
C157 H163 0.930 . S
C158 C157 1.392 . S
C158 N162 1.331 . S
C159 C160 1.391 . S
C159 N162 1.329 . S
C159 H169 0.930 . S
C160 C159 1.391 . S
C160 N161 1.334 . S
C160 H167 0.930 . S
N161 Zn145 2.119 1_556 S
N161 C157 1.328 . S
N161 C160 1.334 . S
N162 C158 1.331 . S
N162 C159 1.329 . S
H163 C157 0.930 . S
C164 O144 1.257 . S
C164 O165 1.244 . S
O165 C164 1.244 . S
O166 C142 1.257 1_556 S
O166 Zn145 2.019 1_556 S
H167 C160 0.930 . S
H168 C147 0.930 . S
H169 C159 0.930 . S
Zn170 N174 2.020 . S
Zn170 O178 2.019 . S
Zn170 N180 2.119 . S
Zn170 O188 1.975 . S
C171 N172 1.334 . S
C171 N175 1.336 . S
N172 C171 1.334 . S
N172 C173 1.334 . S
C173 N172 1.334 . S
C173 N174 1.336 . S
N174 Zn170 2.020 . S
N174 C173 1.336 . S
N174 N175 1.354 . S
N175 C171 1.336 . S
N175 N174 1.354 . S
N175 Zn179 2.020 . S
C176 O177 1.244 . S
C176 O200 1.257 . S
O177 C176 1.244 . S
O178 Zn170 2.019 . S
O178 C198 1.257 . S
Zn179 N175 2.020 . S
Zn179 O186 1.975 . S
Zn179 N195 2.119 . S
Zn179 O200 2.019 . S
N180 Zn170 2.119 . S
N180 C182 1.334 . S
N180 C183 1.328 . S
C181 C182 1.391 . S
C181 N184 1.329 1_554 S
C181 H202 0.930 1_554 S
C182 N180 1.334 . S
C182 C181 1.391 . S
C182 H189 0.930 . S
C183 N180 1.328 . S
C183 C185 1.392 1_554 S
C183 H190 0.930 . S
N184 C181 1.329 1_556 S
N184 C185 1.331 . S
C185 C183 1.392 1_556 S
C185 N184 1.331 . S
O186 Zn179 1.975 . S
O186 C187 1.252 . S
C187 O186 1.252 . S
C187 O188 1.252 . S
O188 Zn170 1.975 . S
O188 C187 1.252 . S
H189 C182 0.930 . S
H190 C183 0.930 . S
C191 C192 1.392 . S
C191 N195 1.328 . S
C191 H197 0.930 . S
C192 C191 1.392 . S
C192 N196 1.331 . S
C193 C194 1.391 . S
C193 N196 1.329 . S
C193 H203 0.930 . S
C194 C193 1.391 . S
C194 N195 1.334 . S
C194 H201 0.930 . S
N195 Zn179 2.119 . S
N195 C191 1.328 . S
N195 C194 1.334 . S
N196 C192 1.331 . S
N196 C193 1.329 . S
H197 C191 0.930 . S
C198 O178 1.257 . S
C198 O199 1.244 . S
O199 C198 1.244 . S
O200 C176 1.257 . S
O200 Zn179 2.019 . S
H201 C194 0.930 . S
H202 C181 0.930 1_556 S
H203 C193 0.930 . S
H204 C212 0.929 . S
H205 C214 0.930 . S
H206 C216 0.930 . S
H207 C219 0.929 . S
H208 C222 0.930 . S
H209 C224 0.960 . S
H210 C224 0.960 . S
H211 C224 0.960 . S
C212 H204 0.929 . S
C212 C213 1.377 . S
C212 C214 1.384 . S
C213 C212 1.377 . S
C213 C219 1.390 . S
C214 H205 0.930 . S
C214 C212 1.384 . S
C214 C215 1.372 . S
C215 C214 1.372 . S
C215 C216 1.400 . S
C215 C220 1.490 . S
C216 H206 0.930 . S
C216 C215 1.400 . S
C216 C219 1.386 . S
H217 C233 0.930 . S
H218 C234 0.931 . S
C219 H207 0.929 . S
C219 C213 1.390 . S
C219 C216 1.386 . S
C220 C215 1.490 . S
C220 C222 1.395 . S
C220 C223 1.403 . S
H221 C227 0.930 . S
C222 H208 0.930 . S
C222 C220 1.395 . S
C222 C225 1.403 . S
C223 C220 1.403 . S
C223 C224 1.524 . S
C223 C227 1.400 . S
C224 H209 0.960 . S
C224 H210 0.960 . S
C224 H211 0.960 . S
C224 C223 1.524 . S
C225 C222 1.403 . S
C225 C226 1.392 . S
C225 C229 1.495 . S
C226 C225 1.392 . S
C226 C227 1.385 . S
C226 C228 1.478 . S
C227 H221 0.930 . S
C227 C223 1.400 . S
C227 C226 1.385 . S
C228 C226 1.478 . S
C228 C230 1.381 . S
C228 C234 1.383 . S
C229 C225 1.495 . S
C229 H235 0.959 . S
C229 H236 0.961 . S
C229 H237 0.960 . S
C230 C228 1.381 . S
C230 C231 1.394 . S
C230 H238 0.930 . S
C231 C230 1.394 . S
C231 C232 1.383 . S
C231 H239 0.929 1_554 S
C232 C231 1.383 . S
C232 C233 1.377 . S
C233 H217 0.930 . S
C233 C232 1.377 . S
C233 C234 1.379 . S
C234 H218 0.931 . S
C234 C228 1.383 . S
C234 C233 1.379 . S
H235 C229 0.959 . S
H236 C229 0.961 . S
H237 C229 0.960 . S
H238 C230 0.930 . S
H239 C231 0.929 1_556 S
H240 C248 0.929 . S
H241 C250 0.930 . S
H242 C252 0.930 1_655 S
H243 C255 0.929 . S
H244 C258 0.930 . S
H245 C260 0.960 . S
H246 C260 0.960 . S
H247 C260 0.960 . S
C248 H240 0.929 . S
C248 C249 1.377 . S
C248 C250 1.384 . S
C249 C248 1.377 . S
C249 C255 1.390 . S
C250 H241 0.930 . S
C250 C248 1.384 . S
C250 C251 1.372 1_455 S
C251 C250 1.372 1_655 S
C251 C252 1.400 1_655 S
C251 C256 1.490 . S
C252 H242 0.930 1_455 S
C252 C251 1.400 1_455 S
C252 C255 1.386 . S
H253 C269 0.930 . S
H254 C270 0.931 . S
C255 H243 0.929 . S
C255 C249 1.390 . S
C255 C252 1.386 . S
C256 C251 1.490 . S
C256 C258 1.395 . S
C256 C259 1.403 . S
H257 C263 0.930 . S
C258 H244 0.930 . S
C258 C256 1.395 . S
C258 C261 1.403 . S
C259 C256 1.403 . S
C259 C260 1.524 . S
C259 C263 1.400 . S
C260 H245 0.960 . S
C260 H246 0.960 . S
C260 H247 0.960 . S
C260 C259 1.524 . S
C261 C258 1.403 . S
C261 C262 1.392 . S
C261 C265 1.495 . S
C262 C261 1.392 . S
C262 C263 1.385 . S
C262 C264 1.478 . S
C263 H257 0.930 . S
C263 C259 1.400 . S
C263 C262 1.385 . S
C264 C262 1.478 . S
C264 C266 1.381 . S
C264 C270 1.383 . S
C265 C261 1.495 . S
C265 H271 0.959 . S
C265 H272 0.961 . S
C265 H273 0.960 . S
C266 C264 1.381 . S
C266 C267 1.394 . S
C266 H274 0.930 . S
C267 C266 1.394 . S
C267 C268 1.383 . S
C267 H275 0.929 . S
C268 C267 1.383 . S
C268 C269 1.377 . S
C269 H253 0.930 . S
C269 C268 1.377 . S
C269 C270 1.379 . S
C270 H254 0.931 . S
C270 C264 1.383 . S
C270 C269 1.379 . S
H271 C265 0.959 . S
H272 C265 0.961 . S
H273 C265 0.960 . S
H274 C266 0.930 . S
H275 C267 0.929 . S
H276 C284 0.929 . S
H277 C286 0.930 . S
H278 C288 0.930 . S
H279 C291 0.929 . S
H280 C294 0.930 . S
H281 C296 0.960 . S
H282 C296 0.960 . S
H283 C296 0.960 . S
C284 H276 0.929 . S
C284 C285 1.377 . S
C284 C286 1.384 . S
C285 C284 1.377 . S
C285 C291 1.390 . S
C286 H277 0.930 . S
C286 C284 1.384 . S
C286 C287 1.372 . S
C287 C286 1.372 . S
C287 C288 1.400 . S
C287 C292 1.490 . S
C288 H278 0.930 . S
C288 C287 1.400 . S
C288 C291 1.386 . S
H289 C305 0.930 . S
H290 C306 0.931 1_565 S
C291 H279 0.929 . S
C291 C285 1.390 . S
C291 C288 1.386 . S
C292 C287 1.490 . S
C292 C294 1.395 . S
C292 C295 1.403 . S
H293 C299 0.930 . S
C294 H280 0.930 . S
C294 C292 1.395 . S
C294 C297 1.403 . S
C295 C292 1.403 . S
C295 C296 1.524 . S
C295 C299 1.400 . S
C296 H281 0.960 . S
C296 H282 0.960 . S
C296 H283 0.960 . S
C296 C295 1.524 . S
C297 C294 1.403 . S
C297 C298 1.392 . S
C297 C301 1.495 . S
C298 C297 1.392 . S
C298 C299 1.385 . S
C298 C300 1.478 1_565 S
C299 H293 0.930 . S
C299 C295 1.400 . S
C299 C298 1.385 . S
C300 C298 1.478 1_545 S
C300 C302 1.381 . S
C300 C306 1.383 . S
C301 C297 1.495 . S
C301 H307 0.959 1_554 S
C301 H308 0.961 . S
C301 H309 0.956 1_565 S
C302 C300 1.381 . S
C302 C303 1.394 . S
C302 H310 0.930 . S
C303 C302 1.394 . S
C303 C304 1.383 . S
C303 H311 0.929 . S
C304 C303 1.383 . S
C304 C305 1.377 . S
C305 H289 0.930 . S
C305 C304 1.377 . S
C305 C306 1.379 . S
C306 H290 0.931 1_545 S
C306 C300 1.383 . S
C306 C305 1.379 . S
H307 C301 0.959 1_556 S
H308 C301 0.961 . S
H309 C301 0.956 1_545 S
H310 C302 0.930 . S
H311 C303 0.929 . S
H312 C320 0.929 . S
H313 C322 0.930 . S
H314 C324 0.930 . S
H315 C327 0.929 . S
H316 C330 0.930 . S
H317 C332 0.960 . S
H318 C332 0.960 . S
H319 C332 0.960 . S
C320 H312 0.929 . S
C320 C321 1.377 . S
C320 C322 1.384 . S
C321 C320 1.377 . S
C321 C327 1.390 . S
C322 H313 0.930 . S
C322 C320 1.384 . S
C322 C323 1.372 . S
C323 C322 1.372 . S
C323 C324 1.400 . S
C323 C328 1.490 . S
C324 H314 0.930 . S
C324 C323 1.400 . S
C324 C327 1.386 . S
H325 C341 0.930 . S
H326 C342 0.931 . S
C327 H315 0.929 . S
C327 C321 1.390 . S
C327 C324 1.386 . S
C328 C323 1.490 . S
C328 C330 1.395 . S
C328 C331 1.403 . S
H329 C335 0.930 . S
C330 H316 0.930 . S
C330 C328 1.395 . S
C330 C333 1.403 . S
C331 C328 1.403 . S
C331 C332 1.524 . S
C331 C335 1.400 . S
C332 H317 0.960 . S
C332 H318 0.960 . S
C332 H319 0.960 . S
C332 C331 1.524 . S
C333 C330 1.403 . S
C333 C334 1.392 . S
C333 C337 1.495 . S
C334 C333 1.392 . S
C334 C335 1.385 . S
C334 C336 1.478 . S
C335 H329 0.930 . S
C335 C331 1.400 . S
C335 C334 1.385 . S
C336 C334 1.478 . S
C336 C338 1.381 . S
C336 C342 1.383 . S
C337 C333 1.495 . S
C337 H343 0.959 . S
C337 H344 0.961 . S
C337 H345 0.960 . S
C338 C336 1.381 . S
C338 C339 1.394 . S
C338 H346 0.930 . S
C339 C338 1.394 . S
C339 C340 1.383 . S
C339 H347 0.929 . S
C340 C339 1.383 . S
C340 C341 1.377 . S
C341 H325 0.930 . S
C341 C340 1.377 . S
C341 C342 1.379 . S
C342 H326 0.931 . S
C342 C336 1.383 . S
C342 C341 1.379 . S
H343 C337 0.959 . S
H344 C337 0.961 . S
H345 C337 0.960 . S
H346 C338 0.930 . S
H347 C339 0.929 . S
H348 C356 0.929 . S
H349 C358 0.930 . S
H350 C360 0.930 . S
H351 C363 0.929 . S
H352 C366 0.930 . S
H353 C368 0.960 . S
H354 C368 0.960 1_556 S
H355 C368 0.960 . S
C356 H348 0.929 . S
C356 C357 1.377 . S
C356 C358 1.384 . S
C357 C356 1.377 . S
C357 C363 1.390 . S
C358 H349 0.930 . S
C358 C356 1.384 . S
C358 C359 1.372 . S
C359 C358 1.372 . S
C359 C360 1.400 . S
C359 C364 1.490 . S
C360 H350 0.930 . S
C360 C359 1.400 . S
C360 C363 1.386 . S
H361 C377 0.930 . S
H362 C378 0.931 . S
C363 H351 0.929 . S
C363 C357 1.390 . S
C363 C360 1.386 . S
C364 C359 1.490 . S
C364 C366 1.395 . S
C364 C367 1.403 . S
H365 C371 0.930 . S
C366 H352 0.930 . S
C366 C364 1.395 . S
C366 C369 1.403 . S
C367 C364 1.403 . S
C367 C368 1.524 . S
C367 C371 1.400 . S
C368 H353 0.960 . S
C368 H354 0.960 1_554 S
C368 H355 0.960 . S
C368 C367 1.524 . S
C369 C366 1.403 . S
C369 C370 1.392 . S
C369 C373 1.495 . S
C370 C369 1.392 . S
C370 C371 1.385 . S
C370 C372 1.478 . S
C371 H365 0.930 . S
C371 C367 1.400 . S
C371 C370 1.385 . S
C372 C370 1.478 . S
C372 C374 1.381 1_455 S
C372 C378 1.383 1_455 S
C373 C369 1.495 . S
C373 H379 0.959 . S
C373 H380 0.961 . S
C373 H381 0.960 . S
C374 C372 1.381 1_655 S
C374 C375 1.394 . S
C374 H382 0.930 1_655 S
C375 C374 1.394 . S
C375 C376 1.383 . S
C375 H383 0.929 . S
C376 C375 1.383 . S
C376 C377 1.377 . S
C377 H361 0.930 . S
C377 C376 1.377 . S
C377 C378 1.379 . S
C378 H362 0.931 . S
C378 C372 1.383 1_655 S
C378 C377 1.379 . S
H379 C373 0.959 . S
H380 C373 0.961 . S
H381 C373 0.960 . S
H382 C374 0.930 1_455 S
H383 C375 0.929 . S
H384 C392 0.929 . S
H385 C394 0.930 1_545 S
H386 C396 0.930 . S
H387 C399 0.929 . S
H388 C402 0.930 . S
H389 C404 0.960 . S
H390 C404 0.960 . S
H391 C404 0.960 . S
C392 H384 0.929 . S
C392 C393 1.377 . S
C392 C394 1.384 . S
C393 C392 1.377 . S
C393 C399 1.390 . S
C394 H385 0.930 1_565 S
C394 C392 1.384 . S
C394 C395 1.372 1_565 S
C395 C394 1.372 1_545 S
C395 C396 1.400 1_545 S
C395 C400 1.490 . S
C396 H386 0.930 . S
C396 C395 1.400 1_565 S
C396 C399 1.386 . S
H397 C413 0.930 . S
H398 C414 0.931 . S
C399 H387 0.929 . S
C399 C393 1.390 . S
C399 C396 1.386 . S
C400 C395 1.490 . S
C400 C402 1.395 . S
C400 C403 1.403 . S
H401 C407 0.930 . S
C402 H388 0.930 . S
C402 C400 1.395 . S
C402 C405 1.403 . S
C403 C400 1.403 . S
C403 C404 1.524 . S
C403 C407 1.400 . S
C404 H389 0.960 . S
C404 H390 0.960 . S
C404 H391 0.960 . S
C404 C403 1.524 . S
C405 C402 1.403 . S
C405 C406 1.392 . S
C405 C409 1.495 . S
C406 C405 1.392 . S
C406 C407 1.385 . S
C406 C408 1.478 . S
C407 H401 0.930 . S
C407 C403 1.400 . S
C407 C406 1.385 . S
C408 C406 1.478 . S
C408 C410 1.381 . S
C408 C414 1.383 . S
C409 C405 1.495 . S
C409 H415 0.959 . S
C409 H416 0.961 . S
C409 H417 0.960 . S
C410 C408 1.381 . S
C410 C411 1.394 . S
C410 H418 0.930 . S
C411 C410 1.394 . S
C411 C412 1.383 . S
C411 H419 0.929 . S
C412 C411 1.383 . S
C412 C413 1.377 . S
C413 H397 0.930 . S
C413 C412 1.377 . S
C413 C414 1.379 . S
C414 H398 0.931 . S
C414 C408 1.383 . S
C414 C413 1.379 . S
H415 C409 0.959 . S
H416 C409 0.961 . S
H417 C409 0.960 . S
H418 C410 0.930 . S
H419 C411 0.929 . S
H420 C428 0.929 . S
H421 C430 0.930 . S
H422 C432 0.930 . S
H423 C435 0.929 . S
H424 C438 0.930 . S
H425 C440 0.960 . S
H426 C440 0.960 . S
H427 C440 0.960 . S
C428 H420 0.929 . S
C428 C429 1.377 . S
C428 C430 1.384 . S
C429 C428 1.377 . S
C429 C435 1.390 . S
C430 H421 0.930 . S
C430 C428 1.384 . S
C430 C431 1.372 . S
C431 C430 1.372 . S
C431 C432 1.400 . S
C431 C436 1.490 . S
C432 H422 0.930 . S
C432 C431 1.400 . S
C432 C435 1.386 . S
H433 C449 0.930 . S
H434 C450 0.931 . S
C435 H423 0.929 . S
C435 C429 1.390 . S
C435 C432 1.386 . S
C436 C431 1.490 . S
C436 C438 1.395 . S
C436 C439 1.403 . S
H437 C443 0.930 . S
C438 H424 0.930 . S
C438 C436 1.395 . S
C438 C441 1.403 . S
C439 C436 1.403 . S
C439 C440 1.524 . S
C439 C443 1.400 . S
C440 H425 0.960 . S
C440 H426 0.960 . S
C440 H427 0.960 . S
C440 C439 1.524 . S
C441 C438 1.403 . S
C441 C442 1.392 . S
C441 C445 1.495 . S
C442 C441 1.392 . S
C442 C443 1.385 . S
C442 C444 1.478 . S
C443 H437 0.930 . S
C443 C439 1.400 . S
C443 C442 1.385 . S
C444 C442 1.478 . S
C444 C446 1.381 . S
C444 C450 1.383 . S
C445 C441 1.495 . S
C445 H451 0.959 . S
C445 H452 0.961 . S
C445 H453 0.960 . S
C446 C444 1.381 . S
C446 C447 1.394 . S
C446 H454 0.930 . S
C447 C446 1.394 . S
C447 C448 1.383 . S
C447 H455 0.929 . S
C448 C447 1.383 . S
C448 C449 1.377 . S
C449 H433 0.930 . S
C449 C448 1.377 . S
C449 C450 1.379 . S
C450 H434 0.931 . S
C450 C444 1.383 . S
C450 C449 1.379 . S
H451 C445 0.959 . S
H452 C445 0.961 . S
H453 C445 0.960 . S
H454 C446 0.930 . S
H455 C447 0.929 . S
H456 C464 0.929 . S
H457 C466 0.930 . S
H458 C468 0.930 . S
H459 C471 0.929 . S
H460 C474 0.930 . S
H461 C476 0.960 . S
H462 C476 0.960 . S
H463 C476 0.960 . S
C464 H456 0.929 . S
C464 C465 1.377 . S
C464 C466 1.384 . S
C465 C464 1.377 . S
C465 C471 1.390 . S
C466 H457 0.930 . S
C466 C464 1.384 . S
C466 C467 1.372 . S
C467 C466 1.372 . S
C467 C468 1.400 . S
C467 C472 1.490 . S
C468 H458 0.930 . S
C468 C467 1.400 . S
C468 C471 1.386 . S
H469 C485 0.930 . S
H470 C486 0.931 . S
C471 H459 0.929 . S
C471 C465 1.390 . S
C471 C468 1.386 . S
C472 C467 1.490 . S
C472 C474 1.395 . S
C472 C475 1.403 . S
H473 C479 0.930 . S
C474 H460 0.930 . S
C474 C472 1.395 . S
C474 C477 1.403 . S
C475 C472 1.403 . S
C475 C476 1.524 . S
C475 C479 1.400 . S
C476 H461 0.960 . S
C476 H462 0.960 . S
C476 H463 0.960 . S
C476 C475 1.524 . S
C477 C474 1.403 . S
C477 C478 1.392 . S
C477 C481 1.495 . S
C478 C477 1.392 . S
C478 C479 1.385 . S
C478 C480 1.478 . S
C479 H473 0.930 . S
C479 C475 1.400 . S
C479 C478 1.385 . S
C480 C478 1.478 . S
C480 C482 1.381 . S
C480 C486 1.383 . S
C481 C477 1.495 . S
C481 H487 0.959 . S
C481 H488 0.961 . S
C481 H489 0.960 . S
C482 C480 1.381 . S
C482 C483 1.394 . S
C482 H490 0.930 . S
C483 C482 1.394 . S
C483 C484 1.383 . S
C483 H491 0.929 . S
C484 C483 1.383 . S
C484 C485 1.377 . S
C485 H469 0.930 . S
C485 C484 1.377 . S
C485 C486 1.379 . S
C486 H470 0.931 . S
C486 C480 1.383 . S
C486 C485 1.379 . S
H487 C481 0.959 . S
H488 C481 0.961 . S
H489 C481 0.960 . S
H490 C482 0.930 . S
H491 C483 0.929 . S
H492 C500 0.929 . S
H493 C502 0.930 . S
H494 C504 0.930 . S
H495 C507 0.929 . S
H496 C510 0.930 . S
H497 C512 0.960 . S
H498 C512 0.960 . S
H499 C512 0.960 . S
C500 H492 0.929 . S
C500 C501 1.377 . S
C500 C502 1.384 . S
C501 C500 1.377 . S
C501 C507 1.390 . S
C502 H493 0.930 . S
C502 C500 1.384 . S
C502 C503 1.372 . S
C503 C502 1.372 . S
C503 C504 1.400 . S
C503 C508 1.490 . S
C504 H494 0.930 . S
C504 C503 1.400 . S
C504 C507 1.386 . S
H505 C521 0.930 . S
H506 C522 0.931 . S
C507 H495 0.929 . S
C507 C501 1.390 . S
C507 C504 1.386 . S
C508 C503 1.490 . S
C508 C510 1.395 . S
C508 C511 1.403 . S
H509 C515 0.930 . S
C510 H496 0.930 . S
C510 C508 1.395 . S
C510 C513 1.403 . S
C511 C508 1.403 . S
C511 C512 1.524 . S
C511 C515 1.400 . S
C512 H497 0.960 . S
C512 H498 0.960 . S
C512 H499 0.960 . S
C512 C511 1.524 . S
C513 C510 1.403 . S
C513 C514 1.392 . S
C513 C517 1.495 . S
C514 C513 1.392 . S
C514 C515 1.385 . S
C514 C516 1.478 . S
C515 H509 0.930 . S
C515 C511 1.400 . S
C515 C514 1.385 . S
C516 C514 1.478 . S
C516 C518 1.381 . S
C516 C522 1.383 . S
C517 C513 1.495 . S
C517 H523 0.959 . S
C517 H524 0.961 . S
C517 H525 0.960 . S
C518 C516 1.381 . S
C518 C519 1.394 . S
C518 H526 0.930 . S
C519 C518 1.394 . S
C519 C520 1.383 . S
C519 H527 0.929 . S
C520 C519 1.383 . S
C520 C521 1.377 . S
C521 H505 0.930 . S
C521 C520 1.377 . S
C521 C522 1.379 . S
C522 H506 0.931 . S
C522 C516 1.383 . S
C522 C521 1.379 . S
H523 C517 0.959 . S
H524 C517 0.961 . S
H525 C517 0.960 . S
H526 C518 0.930 . S
H527 C519 0.929 . S
H528 C536 0.929 . S
H529 C538 0.930 . S
H530 C540 0.930 . S
H531 C543 0.929 . S
H532 C546 0.930 . S
H533 C548 0.960 . S
H534 C548 0.960 . S
H535 C548 0.960 . S
C536 H528 0.929 . S
C536 C537 1.377 . S
C536 C538 1.384 . S
C537 C536 1.377 . S
C537 C543 1.390 . S
C538 H529 0.930 . S
C538 C536 1.384 . S
C538 C539 1.372 . S
C539 C538 1.372 . S
C539 C540 1.400 . S
C539 C544 1.490 . S
C540 H530 0.930 . S
C540 C539 1.400 . S
C540 C543 1.386 . S
H541 C557 0.930 . S
H542 C558 0.931 . S
C543 H531 0.929 . S
C543 C537 1.390 . S
C543 C540 1.386 . S
C544 C539 1.490 . S
C544 C546 1.395 . S
C544 C547 1.403 . S
H545 C551 0.930 . S
C546 H532 0.930 . S
C546 C544 1.395 . S
C546 C549 1.403 . S
C547 C544 1.403 . S
C547 C548 1.524 . S
C547 C551 1.400 . S
C548 H533 0.960 . S
C548 H534 0.960 . S
C548 H535 0.960 . S
C548 C547 1.524 . S
C549 C546 1.403 . S
C549 C550 1.392 . S
C549 C553 1.495 . S
C550 C549 1.392 . S
C550 C551 1.385 . S
C550 C552 1.478 . S
C551 H545 0.930 . S
C551 C547 1.400 . S
C551 C550 1.385 . S
C552 C550 1.478 . S
C552 C554 1.381 . S
C552 C558 1.383 . S
C553 C549 1.495 . S
C553 H559 0.959 . S
C553 H560 0.961 . S
C553 H561 0.960 . S
C554 C552 1.381 . S
C554 C555 1.394 . S
C554 H562 0.930 . S
C555 C554 1.394 . S
C555 C556 1.383 . S
C555 H563 0.929 . S
C556 C555 1.383 . S
C556 C557 1.377 . S
C557 H541 0.930 . S
C557 C556 1.377 . S
C557 C558 1.379 . S
C558 H542 0.931 . S
C558 C552 1.383 . S
C558 C557 1.379 . S
H559 C553 0.959 . S
H560 C553 0.961 . S
H561 C553 0.960 . S
H562 C554 0.930 . S
H563 C555 0.929 . S
H564 C572 0.929 . S
H565 C574 0.930 . S
H566 C576 0.930 . S
H567 C579 0.929 . S
H568 C582 0.930 . S
H569 C584 0.960 . S
H570 C584 0.960 . S
H571 C584 0.960 . S
C572 H564 0.929 . S
C572 C573 1.377 . S
C572 C574 1.384 . S
C573 C572 1.377 . S
C573 C579 1.390 . S
C574 H565 0.930 . S
C574 C572 1.384 . S
C574 C575 1.372 . S
C575 C574 1.372 . S
C575 C576 1.400 . S
C575 C580 1.490 . S
C576 H566 0.930 . S
C576 C575 1.400 . S
C576 C579 1.386 . S
H577 C593 0.930 . S
H578 C594 0.931 . S
C579 H567 0.929 . S
C579 C573 1.390 . S
C579 C576 1.386 . S
C580 C575 1.490 . S
C580 C582 1.395 . S
C580 C583 1.403 . S
H581 C587 0.930 . S
C582 H568 0.930 . S
C582 C580 1.395 . S
C582 C585 1.403 . S
C583 C580 1.403 . S
C583 C584 1.524 . S
C583 C587 1.400 . S
C584 H569 0.960 . S
C584 H570 0.960 . S
C584 H571 0.960 . S
C584 C583 1.524 . S
C585 C582 1.403 . S
C585 C586 1.392 . S
C585 C589 1.495 . S
C586 C585 1.392 . S
C586 C587 1.385 . S
C586 C588 1.478 . S
C587 H581 0.930 . S
C587 C583 1.400 . S
C587 C586 1.385 . S
C588 C586 1.478 . S
C588 C590 1.381 . S
C588 C594 1.383 . S
C589 C585 1.495 . S
C589 H595 0.959 . S
C589 H596 0.961 . S
C589 H597 0.960 . S
C590 C588 1.381 . S
C590 C591 1.394 . S
C590 H598 0.930 . S
C591 C590 1.394 . S
C591 C592 1.383 . S
C591 H599 0.929 . S
C592 C591 1.383 . S
C592 C593 1.377 . S
C593 H577 0.930 . S
C593 C592 1.377 . S
C593 C594 1.379 . S
C594 H578 0.931 . S
C594 C588 1.383 . S
C594 C593 1.379 . S
H595 C589 0.959 . S
H596 C589 0.961 . S
H597 C589 0.960 . S
H598 C590 0.930 . S
H599 C591 0.929 . S
H600 C608 0.929 . S
H601 C610 0.930 . S
H602 C612 0.930 . S
H603 C615 0.929 . S
H604 C618 0.930 . S
H605 C620 0.960 . S
H606 C620 0.960 . S
H607 C620 0.960 . S
C608 H600 0.929 . S
C608 C609 1.377 . S
C608 C610 1.384 . S
C609 C608 1.377 . S
C609 C615 1.390 . S
C610 H601 0.930 . S
C610 C608 1.384 . S
C610 C611 1.372 . S
C611 C610 1.372 . S
C611 C612 1.400 . S
C611 C616 1.490 . S
C612 H602 0.930 . S
C612 C611 1.400 . S
C612 C615 1.386 . S
H613 C629 0.930 . S
H614 C630 0.931 . S
C615 H603 0.929 . S
C615 C609 1.390 . S
C615 C612 1.386 . S
C616 C611 1.490 . S
C616 C618 1.395 . S
C616 C619 1.403 . S
H617 C623 0.930 . S
C618 H604 0.930 . S
C618 C616 1.395 . S
C618 C621 1.403 . S
C619 C616 1.403 . S
C619 C620 1.524 . S
C619 C623 1.400 . S
C620 H605 0.960 . S
C620 H606 0.960 . S
C620 H607 0.960 . S
C620 C619 1.524 . S
C621 C618 1.403 . S
C621 C622 1.392 . S
C621 C625 1.495 . S
C622 C621 1.392 . S
C622 C623 1.385 . S
C622 C624 1.478 . S
C623 H617 0.930 . S
C623 C619 1.400 . S
C623 C622 1.385 . S
C624 C622 1.478 . S
C624 C626 1.381 . S
C624 C630 1.383 . S
C625 C621 1.495 . S
C625 H631 0.959 . S
C625 H632 0.961 . S
C625 H633 0.960 . S
C626 C624 1.381 . S
C626 C627 1.394 . S
C626 H634 0.930 . S
C627 C626 1.394 . S
C627 C628 1.383 . S
C627 H635 0.929 . S
C628 C627 1.383 . S
C628 C629 1.377 . S
C629 H613 0.930 . S
C629 C628 1.377 . S
C629 C630 1.379 . S
C630 H614 0.931 . S
C630 C624 1.383 . S
C630 C629 1.379 . S
H631 C625 0.959 . S
H632 C625 0.961 . S
H633 C625 0.960 . S
H634 C626 0.930 . S
H635 C627 0.929 . S
H636 C644 0.929 . S
H637 C646 0.930 . S
H638 C648 0.930 . S
H639 C651 0.929 . S
H640 C654 0.930 . S
H641 C656 0.960 . S
H642 C656 0.960 . S
H643 C656 0.960 1_554 S
C644 H636 0.929 . S
C644 C645 1.377 1_556 S
C644 C646 1.384 . S
C645 C644 1.377 1_554 S
C645 C651 1.390 . S
C646 H637 0.930 . S
C646 C644 1.384 . S
C646 C647 1.372 1_556 S
C647 C646 1.372 1_554 S
C647 C648 1.400 . S
C647 C652 1.490 . S
C648 H638 0.930 . S
C648 C647 1.400 . S
C648 C651 1.386 . S
H649 C665 0.930 . S
H650 C666 0.931 . S
C651 H639 0.929 . S
C651 C645 1.390 . S
C651 C648 1.386 . S
C652 C647 1.490 . S
C652 C654 1.395 . S
C652 C655 1.403 1_554 S
H653 C659 0.930 1_556 S
C654 H640 0.930 . S
C654 C652 1.395 . S
C654 C657 1.403 . S
C655 C652 1.403 1_556 S
C655 C656 1.524 . S
C655 C659 1.400 1_556 S
C656 H641 0.960 . S
C656 H642 0.960 . S
C656 H643 0.960 1_556 S
C656 C655 1.524 . S
C657 C654 1.403 . S
C657 C658 1.392 . S
C657 C661 1.495 . S
C658 C657 1.392 . S
C658 C659 1.385 . S
C658 C660 1.478 . S
C659 H653 0.930 1_554 S
C659 C655 1.400 1_554 S
C659 C658 1.385 . S
C660 C658 1.478 . S
C660 C662 1.381 1_554 S
C660 C666 1.383 . S
C661 C657 1.495 . S
C661 H667 0.959 . S
C661 H668 0.961 . S
C661 H669 0.960 . S
C662 C660 1.381 1_556 S
C662 C663 1.394 . S
C662 H670 0.930 . S
C663 C662 1.394 . S
C663 C664 1.383 1_556 S
C663 H671 0.929 . S
C664 C663 1.383 1_554 S
C664 C665 1.377 . S
C665 H649 0.930 . S
C665 C664 1.377 . S
C665 C666 1.379 . S
C666 H650 0.931 . S
C666 C660 1.383 . S
C666 C665 1.379 . S
H667 C661 0.959 . S
H668 C661 0.961 . S
H669 C661 0.960 . S
H670 C662 0.930 . S
H671 C663 0.929 . S
H672 C680 0.929 . S
H673 C682 0.930 . S
H674 C684 0.930 . S
H675 C687 0.929 . S
H676 C690 0.930 . S
H677 C692 0.960 . S
H678 C692 0.960 . S
H679 C692 0.960 . S
C680 H672 0.929 . S
C680 C681 1.377 . S
C680 C682 1.384 . S
C681 C680 1.377 . S
C681 C687 1.390 . S
C682 H673 0.930 . S
C682 C680 1.384 . S
C682 C683 1.372 . S
C683 C682 1.372 . S
C683 C684 1.400 . S
C683 C688 1.490 . S
C684 H674 0.930 . S
C684 C683 1.400 . S
C684 C687 1.386 . S
H685 C701 0.930 . S
H686 C702 0.931 . S
C687 H675 0.929 . S
C687 C681 1.390 . S
C687 C684 1.386 . S
C688 C683 1.490 . S
C688 C690 1.395 . S
C688 C691 1.403 . S
H689 C695 0.930 . S
C690 H676 0.930 . S
C690 C688 1.395 . S
C690 C693 1.403 . S
C691 C688 1.403 . S
C691 C692 1.524 . S
C691 C695 1.400 . S
C692 H677 0.960 . S
C692 H678 0.960 . S
C692 H679 0.960 . S
C692 C691 1.524 . S
C693 C690 1.403 . S
C693 C694 1.392 . S
C693 C697 1.495 . S
C694 C693 1.392 . S
C694 C695 1.385 . S
C694 C696 1.478 . S
C695 H689 0.930 . S
C695 C691 1.400 . S
C695 C694 1.385 . S
C696 C694 1.478 . S
C696 C698 1.381 . S
C696 C702 1.383 . S
C697 C693 1.495 . S
C697 H703 0.959 . S
C697 H704 0.961 . S
C697 H705 0.960 . S
C698 C696 1.381 . S
C698 C699 1.394 . S
C698 H706 0.930 . S
C699 C698 1.394 . S
C699 C700 1.383 . S
C699 H707 0.929 . S
C700 C699 1.383 . S
C700 C701 1.377 . S
C701 H685 0.930 . S
C701 C700 1.377 . S
C701 C702 1.379 . S
C702 H686 0.931 . S
C702 C696 1.383 . S
C702 C701 1.379 . S
H703 C697 0.959 . S
H704 C697 0.961 . S
H705 C697 0.960 . S
H706 C698 0.930 . S
H707 C699 0.929 . S
H708 C716 0.929 . S
H709 C718 0.930 . S
H710 C720 0.930 . S
H711 C723 0.929 . S
H712 C726 0.930 . S
H713 C728 0.960 . S
H714 C728 0.960 . S
H715 C728 0.960 . S
C716 H708 0.929 . S
C716 C717 1.377 . S
C716 C718 1.384 . S
C717 C716 1.377 . S
C717 C723 1.390 1_554 S
C718 H709 0.930 . S
C718 C716 1.384 . S
C718 C719 1.372 . S
C719 C718 1.372 . S
C719 C720 1.400 1_554 S
C719 C724 1.490 . S
C720 H710 0.930 . S
C720 C719 1.400 1_556 S
C720 C723 1.386 . S
H721 C737 0.930 . S
H722 C738 0.931 . S
C723 H711 0.929 . S
C723 C717 1.390 1_556 S
C723 C720 1.386 . S
C724 C719 1.490 . S
C724 C726 1.395 1_554 S
C724 C727 1.403 . S
H725 C731 0.930 . S
C726 H712 0.930 . S
C726 C724 1.395 1_556 S
C726 C729 1.403 . S
C727 C724 1.403 . S
C727 C728 1.524 . S
C727 C731 1.400 . S
C728 H713 0.960 . S
C728 H714 0.960 . S
C728 H715 0.960 . S
C728 C727 1.524 . S
C729 C726 1.403 . S
C729 C730 1.392 1_556 S
C729 C733 1.495 . S
C730 C729 1.392 1_554 S
C730 C731 1.385 . S
C730 C732 1.478 . S
C731 H725 0.930 . S
C731 C727 1.400 . S
C731 C730 1.385 . S
C732 C730 1.478 . S
C732 C734 1.381 . S
C732 C738 1.383 1_554 S
C733 C729 1.495 . S
C733 H739 0.959 . S
C733 H740 0.961 . S
C733 H741 0.949 1_556 S
C734 C732 1.381 . S
C734 C735 1.394 . S
C734 H742 0.930 . S
C735 C734 1.394 . S
C735 C736 1.383 . S
C735 H743 0.929 . S
C736 C735 1.383 . S
C736 C737 1.377 1_554 S
C737 H721 0.930 . S
C737 C736 1.377 1_556 S
C737 C738 1.379 . S
C738 H722 0.931 . S
C738 C732 1.383 1_556 S
C738 C737 1.379 . S
H739 C733 0.959 . S
H740 C733 0.961 . S
H741 C733 0.949 1_554 S
H742 C734 0.930 . S
H743 C735 0.929 . S
H744 C752 0.929 . S
H745 C754 0.930 . S
H746 C756 0.930 . S
H747 C759 0.929 . S
H748 C762 0.930 . S
H749 C764 0.960 . S
H750 C764 0.960 . S
H751 C764 0.960 . S
C752 H744 0.929 . S
C752 C753 1.377 . S
C752 C754 1.384 . S
C753 C752 1.377 . S
C753 C759 1.390 . S
C754 H745 0.930 . S
C754 C752 1.384 . S
C754 C755 1.372 . S
C755 C754 1.372 . S
C755 C756 1.400 . S
C755 C760 1.490 . S
C756 H746 0.930 . S
C756 C755 1.400 . S
C756 C759 1.386 . S
H757 C773 0.930 . S
H758 C774 0.931 . S
C759 H747 0.929 . S
C759 C753 1.390 . S
C759 C756 1.386 . S
C760 C755 1.490 . S
C760 C762 1.395 . S
C760 C763 1.403 . S
H761 C767 0.930 . S
C762 H748 0.930 . S
C762 C760 1.395 . S
C762 C765 1.403 . S
C763 C760 1.403 . S
C763 C764 1.524 . S
C763 C767 1.400 . S
C764 H749 0.960 . S
C764 H750 0.960 . S
C764 H751 0.960 . S
C764 C763 1.524 . S
C765 C762 1.403 . S
C765 C766 1.392 . S
C765 C769 1.495 . S
C766 C765 1.392 . S
C766 C767 1.385 . S
C766 C768 1.478 . S
C767 H761 0.930 . S
C767 C763 1.400 . S
C767 C766 1.385 . S
C768 C766 1.478 . S
C768 C770 1.381 . S
C768 C774 1.383 . S
C769 C765 1.495 . S
C769 H775 0.959 . S
C769 H776 0.961 . S
C769 H777 0.960 . S
C770 C768 1.381 . S
C770 C771 1.394 . S
C770 H778 0.930 . S
C771 C770 1.394 . S
C771 C772 1.383 . S
C771 H779 0.929 . S
C772 C771 1.383 . S
C772 C773 1.377 . S
C773 H757 0.930 . S
C773 C772 1.377 . S
C773 C774 1.379 . S
C774 H758 0.931 . S
C774 C768 1.383 . S
C774 C773 1.379 . S
H775 C769 0.959 . S
H776 C769 0.961 . S
H777 C769 0.960 . S
H778 C770 0.930 . S
H779 C771 0.929 . S
H780 C788 0.929 . S
H781 C790 0.930 . S
H782 C792 0.930 . S
H783 C795 0.929 . S
H784 C798 0.930 . S
H785 C800 0.961 . S
H786 C800 0.978 . S
H787 C800 0.943 1_554 S
C788 H780 0.929 . S
C788 C789 1.377 1_556 S
C788 C790 1.384 . S
C789 C788 1.377 1_554 S
C789 C795 1.390 . S
C790 H781 0.930 . S
C790 C788 1.384 . S
C790 C791 1.372 1_556 S
C791 C790 1.372 1_554 S
C791 C792 1.400 . S
C791 C796 1.490 . S
C792 H782 0.930 . S
C792 C791 1.400 . S
C792 C795 1.386 . S
H793 C809 0.930 . S
H794 C810 0.931 . S
C795 H783 0.929 . S
C795 C789 1.390 . S
C795 C792 1.386 . S
C796 C791 1.490 . S
C796 C798 1.395 . S
C796 C799 1.403 . S
H797 C803 0.930 . S
C798 H784 0.930 . S
C798 C796 1.395 . S
C798 C801 1.403 . S
C799 C796 1.403 . S
C799 C800 1.522 1_554 S
C799 C803 1.400 . S
C800 H785 0.961 . S
C800 H786 0.978 . S
C800 H787 0.943 1_556 S
C800 C799 1.522 1_556 S
C801 C798 1.403 . S
C801 C802 1.392 . S
C801 C805 1.495 . S
C802 C801 1.392 . S
C802 C803 1.385 . S
C802 C804 1.478 . S
C803 H797 0.930 . S
C803 C799 1.400 . S
C803 C802 1.385 . S
C804 C802 1.478 . S
C804 C806 1.381 1_554 S
C804 C810 1.383 . S
C805 C801 1.495 . S
C805 H811 0.959 . S
C805 H812 0.961 . S
C805 H813 0.960 1_554 S
C806 C804 1.381 1_556 S
C806 C807 1.394 . S
C806 H814 0.930 . S
C807 C806 1.394 . S
C807 C808 1.383 1_556 S
C807 H815 0.929 . S
C808 C807 1.383 1_554 S
C808 C809 1.377 . S
C809 H793 0.930 . S
C809 C808 1.377 . S
C809 C810 1.379 . S
C810 H794 0.931 . S
C810 C804 1.383 . S
C810 C809 1.379 . S
H811 C805 0.959 . S
H812 C805 0.961 . S
H813 C805 0.960 1_556 S
H814 C806 0.930 . S
H815 C807 0.929 . S
H816 C824 0.929 . S
H817 C826 0.930 . S
H818 C828 0.930 . S
H819 C831 0.929 . S
H820 C834 0.930 . S
H821 C836 0.960 . S
H822 C836 0.960 . S
H823 C836 0.960 . S
C824 H816 0.929 . S
C824 C825 1.377 . S
C824 C826 1.384 . S
C825 C824 1.377 . S
C825 C831 1.390 . S
C826 H817 0.930 . S
C826 C824 1.384 . S
C826 C827 1.372 . S
C827 C826 1.372 . S
C827 C828 1.400 . S
C827 C832 1.490 . S
C828 H818 0.930 . S
C828 C827 1.400 . S
C828 C831 1.386 . S
H829 C845 0.930 . S
H830 C846 0.931 . S
C831 H819 0.929 . S
C831 C825 1.390 . S
C831 C828 1.386 . S
C832 C827 1.490 . S
C832 C834 1.395 . S
C832 C835 1.403 . S
H833 C839 0.930 . S
C834 H820 0.930 . S
C834 C832 1.395 . S
C834 C837 1.403 . S
C835 C832 1.403 . S
C835 C836 1.524 . S
C835 C839 1.400 . S
C836 H821 0.960 . S
C836 H822 0.960 . S
C836 H823 0.960 . S
C836 C835 1.524 . S
C837 C834 1.403 . S
C837 C838 1.392 . S
C837 C841 1.495 . S
C838 C837 1.392 . S
C838 C839 1.385 . S
C838 C840 1.478 . S
C839 H833 0.930 . S
C839 C835 1.400 . S
C839 C838 1.385 . S
C840 C838 1.478 . S
C840 C842 1.381 . S
C840 C846 1.383 . S
C841 C837 1.495 . S
C841 H847 0.959 . S
C841 H848 0.961 . S
C841 H849 0.960 . S
C842 C840 1.381 . S
C842 C843 1.394 . S
C842 H850 0.930 . S
C843 C842 1.394 . S
C843 C844 1.383 . S
C843 H851 0.929 . S
C844 C843 1.383 . S
C844 C845 1.377 . S
C845 H829 0.930 . S
C845 C844 1.377 . S
C845 C846 1.379 . S
C846 H830 0.931 . S
C846 C840 1.383 . S
C846 C845 1.379 . S
H847 C841 0.959 . S
H848 C841 0.961 . S
H849 C841 0.960 . S
H850 C842 0.930 . S
H851 C843 0.929 . S
H852 C860 0.929 . S
H853 C862 0.930 . S
H854 C864 0.930 1_455 S
H855 C867 0.929 . S
H856 C870 0.930 . S
H857 C872 0.960 . S
H858 C872 0.960 . S
H859 C872 0.960 . S
C860 H852 0.929 . S
C860 C861 1.377 . S
C860 C862 1.384 . S
C861 C860 1.377 . S
C861 C867 1.390 . S
C862 H853 0.930 . S
C862 C860 1.384 . S
C862 C863 1.372 . S
C863 C862 1.372 . S
C863 C864 1.400 . S
C863 C868 1.490 1_655 S
C864 H854 0.930 1_655 S
C864 C863 1.400 . S
C864 C867 1.386 . S
H865 C881 0.930 . S
H866 C882 0.931 . S
C867 H855 0.929 . S
C867 C861 1.390 . S
C867 C864 1.386 . S
C868 C863 1.490 1_455 S
C868 C870 1.395 1_455 S
C868 C871 1.403 . S
H869 C875 0.930 . S
C870 H856 0.930 . S
C870 C868 1.395 1_655 S
C870 C873 1.403 1_655 S
C871 C868 1.403 . S
C871 C872 1.524 . S
C871 C875 1.400 . S
C872 H857 0.960 . S
C872 H858 0.960 . S
C872 H859 0.960 . S
C872 C871 1.524 . S
C873 C870 1.403 1_455 S
C873 C874 1.392 . S
C873 C877 1.495 1_455 S
C874 C873 1.392 . S
C874 C875 1.385 . S
C874 C876 1.478 . S
C875 H869 0.930 . S
C875 C871 1.400 . S
C875 C874 1.385 . S
C876 C874 1.478 . S
C876 C878 1.381 . S
C876 C882 1.383 . S
C877 C873 1.495 1_655 S
C877 H883 0.959 . S
C877 H884 0.961 1_655 S
C877 H885 0.960 . S
C878 C876 1.381 . S
C878 C879 1.394 . S
C878 H886 0.930 . S
C879 C878 1.394 . S
C879 C880 1.383 . S
C879 H887 0.929 . S
C880 C879 1.383 . S
C880 C881 1.377 . S
C881 H865 0.930 . S
C881 C880 1.377 . S
C881 C882 1.379 . S
C882 H866 0.931 . S
C882 C876 1.383 . S
C882 C881 1.379 . S
H883 C877 0.959 . S
H884 C877 0.961 1_455 S
H885 C877 0.960 . S
H886 C878 0.930 . S
H887 C879 0.929 . S
H888 C896 0.929 . S
H889 C898 0.930 . S
H890 C900 0.930 1_565 S
H891 C903 0.929 . S
H892 C906 0.930 . S
H893 C908 0.961 . S
H894 C908 0.963 1_545 S
H895 C908 0.958 . S
C896 H888 0.929 . S
C896 C897 1.377 . S
C896 C898 1.384 . S
C897 C896 1.377 . S
C897 C903 1.390 . S
C898 H889 0.930 . S
C898 C896 1.384 . S
C898 C899 1.372 . S
C899 C898 1.372 . S
C899 C900 1.400 . S
C899 C904 1.490 1_545 S
C900 H890 0.930 1_545 S
C900 C899 1.400 . S
C900 C903 1.386 . S
H901 C917 0.930 . S
H902 C918 0.931 . S
C903 H891 0.929 . S
C903 C897 1.390 . S
C903 C900 1.386 . S
C904 C899 1.490 1_565 S
C904 C906 1.395 . S
C904 C907 1.403 . S
H905 C911 0.930 . S
C906 H892 0.930 . S
C906 C904 1.395 . S
C906 C909 1.403 . S
C907 C904 1.403 . S
C907 C908 1.522 . S
C907 C911 1.400 . S
C908 H893 0.961 . S
C908 H894 0.963 1_565 S
C908 H895 0.958 . S
C908 C907 1.522 . S
C909 C906 1.403 . S
C909 C910 1.392 . S
C909 C913 1.495 . S
C910 C909 1.392 . S
C910 C911 1.385 . S
C910 C912 1.478 . S
C911 H905 0.930 . S
C911 C907 1.400 . S
C911 C910 1.385 . S
C912 C910 1.478 . S
C912 C914 1.381 . S
C912 C918 1.383 . S
C913 C909 1.495 . S
C913 H919 0.959 . S
C913 H920 0.961 . S
C913 H921 0.960 . S
C914 C912 1.381 . S
C914 C915 1.394 . S
C914 H922 0.930 . S
C915 C914 1.394 . S
C915 C916 1.383 . S
C915 H923 0.929 . S
C916 C915 1.383 . S
C916 C917 1.377 . S
C917 H901 0.930 . S
C917 C916 1.377 . S
C917 C918 1.379 . S
C918 H902 0.931 . S
C918 C912 1.383 . S
C918 C917 1.379 . S
H919 C913 0.959 . S
H920 C913 0.961 . S
H921 C913 0.960 . S
H922 C914 0.930 . S
H923 C915 0.929 . S
H924 C932 0.929 . S
H925 C934 0.930 . S
H926 C936 0.930 . S
H927 C939 0.929 . S
H928 C942 0.930 . S
H929 C944 0.960 . S
H930 C944 0.960 . S
H931 C944 0.960 . S
C932 H924 0.929 . S
C932 C933 1.377 . S
C932 C934 1.384 . S
C933 C932 1.377 . S
C933 C939 1.390 . S
C934 H925 0.930 . S
C934 C932 1.384 . S
C934 C935 1.372 . S
C935 C934 1.372 . S
C935 C936 1.400 . S
C935 C940 1.490 . S
C936 H926 0.930 . S
C936 C935 1.400 . S
C936 C939 1.386 . S
H937 C953 0.930 . S
H938 C954 0.931 . S
C939 H927 0.929 . S
C939 C933 1.390 . S
C939 C936 1.386 . S
C940 C935 1.490 . S
C940 C942 1.395 . S
C940 C943 1.403 . S
H941 C947 0.930 . S
C942 H928 0.930 . S
C942 C940 1.395 . S
C942 C945 1.403 . S
C943 C940 1.403 . S
C943 C944 1.524 . S
C943 C947 1.400 . S
C944 H929 0.960 . S
C944 H930 0.960 . S
C944 H931 0.960 . S
C944 C943 1.524 . S
C945 C942 1.403 . S
C945 C946 1.392 . S
C945 C949 1.495 . S
C946 C945 1.392 . S
C946 C947 1.385 . S
C946 C948 1.478 . S
C947 H941 0.930 . S
C947 C943 1.400 . S
C947 C946 1.385 . S
C948 C946 1.478 . S
C948 C950 1.381 . S
C948 C954 1.383 . S
C949 C945 1.495 . S
C949 H955 0.959 . S
C949 H956 0.961 . S
C949 H957 0.960 . S
C950 C948 1.381 . S
C950 C951 1.394 . S
C950 H958 0.930 . S
C951 C950 1.394 . S
C951 C952 1.383 . S
C951 H959 0.929 . S
C952 C951 1.383 . S
C952 C953 1.377 . S
C953 H937 0.930 . S
C953 C952 1.377 . S
C953 C954 1.379 . S
C954 H938 0.931 . S
C954 C948 1.383 . S
C954 C953 1.379 . S
H955 C949 0.959 . S
H956 C949 0.961 . S
H957 C949 0.960 . S
H958 C950 0.930 . S
H959 C951 0.929 . S
C213 C187 1.279 . S
C232 C17 1.285 . S
C249 C6 1.119 . S
C268 C40 1.118 . S
C285 C85 1.261 . S
C304 C51 1.270 . S
C321 C108 1.129 . S
C340 C96 1.126 . S
C357 C153 1.256 . S
C376 C119 1.283 . S
C393 C164 1.117 . S
C412 C198 1.139 . S
C429 C15 1.615 . S
C448 C22 1.581 . S
C465 C49 1.758 . S
C484 C56 1.788 . S
C501 C90 1.623 . S
C520 C83 1.605 . S
C537 C124 1.755 . S
C556 C117 1.774 . S
C573 C151 1.614 . S
C592 C158 1.581 . S
C609 C192 1.758 . S
C628 C185 1.745 . S
C645 C142 1.407 . S
C664 C3 1.290 . S
C681 C173 1.867 . S
C700 C37 1.857 . S
C717 C28 1.404 . S
C736 C69 1.254 . S
C753 C105 1.870 . S
C772 C35 1.878 . S
C789 C74 1.407 . S
C808 C137 1.296 . S
C825 C103 1.855 . S
C844 C171 1.890 . S
C861 C130 1.393 . S
C880 C1 1.298 . S
C897 C62 1.390 . S
C916 C139 1.237 . S
C933 C176 1.387 . S
C952 C71 1.233 . S
