# Generated by pormake.
# Topology rkf, (6)-cn, num edge types: 1
# Building blocks:
#     Node 0, Type 0, BuildingBlock: BETDAH_clean_sbu_0, # of connection points: 6
#     Node 1, Type 0, BuildingBlock: BETDAH_clean_sbu_0, # of connection points: 6
#     Node 2, Type 0, BuildingBlock: BETDAH_clean_sbu_0, # of connection points: 6
#     Node 3, Type 0, BuildingBlock: BETDAH_clean_sbu_0, # of connection points: 6
#     Node 4, Type 0, BuildingBlock: BETDAH_clean_sbu_0, # of connection points: 6
#     Node 5, Type 0, BuildingBlock: BETDAH_clean_sbu_0, # of connection points: 6
#     Edge 6, Type (0, 0), BuildingBlock: ZUJKAS_clean_linker_0, # of connection points: 2
#     Edge 7, Type (0, 0), BuildingBlock: ZUJKAS_clean_linker_0, # of connection points: 2
#     Edge 8, Type (0, 0), BuildingBlock: ZUJKAS_clean_linker_0, # of connection points: 2
#     Edge 9, Type (0, 0), BuildingBlock: ZUJKAS_clean_linker_0, # of connection points: 2
#     Edge 10, Type (0, 0), BuildingBlock: ZUJKAS_clean_linker_0, # of connection points: 2
#     Edge 11, Type (0, 0), BuildingBlock: ZUJKAS_clean_linker_0, # of connection points: 2
#     Edge 12, Type (0, 0), BuildingBlock: ZUJKAS_clean_linker_0, # of connection points: 2
#     Edge 13, Type (0, 0), BuildingBlock: ZUJKAS_clean_linker_0, # of connection points: 2
#     Edge 14, Type (0, 0), BuildingBlock: ZUJKAS_clean_linker_0, # of connection points: 2
#     Edge 15, Type (0, 0), BuildingBlock: ZUJKAS_clean_linker_0, # of connection points: 2
#     Edge 16, Type (0, 0), BuildingBlock: ZUJKAS_clean_linker_0, # of connection points: 2
#     Edge 17, Type (0, 0), BuildingBlock: ZUJKAS_clean_linker_0, # of connection points: 2
#     Edge 18, Type (0, 0), BuildingBlock: ZUJKAS_clean_linker_0, # of connection points: 2
#     Edge 19, Type (0, 0), BuildingBlock: ZUJKAS_clean_linker_0, # of connection points: 2
#     Edge 20, Type (0, 0), BuildingBlock: ZUJKAS_clean_linker_0, # of connection points: 2
#     Edge 21, Type (0, 0), BuildingBlock: ZUJKAS_clean_linker_0, # of connection points: 2
#     Edge 22, Type (0, 0), BuildingBlock: ZUJKAS_clean_linker_0, # of connection points: 2
#     Edge 23, Type (0, 0), BuildingBlock: ZUJKAS_clean_linker_0, # of connection points: 2
# Relax obj value: 0.533
# Max RMSD: 0.247
# Mean RMSD: 0.247
data_MOF--net-rkf--node1-BETDAH_clean_sbu_0--edge1-ZUJKAS_clean_linker_0
_symmetry_space_group_name_H-M    P1
_symmetry_Int_Tables_number       1
_symmetry_cell_setting            triclinic
loop_
_symmetry_equiv_pos_as_xyz
'x, y, z'
_cell_length_a     31.610748
_cell_length_b     31.685756
_cell_length_c     58.698125
_cell_angle_alpha  89.888529
_cell_angle_beta   90.081542
_cell_angle_gamma 120.02603
loop_
_atom_site_label
_atom_site_type_symbol
_atom_site_fract_x
_atom_site_fract_y
_atom_site_fract_z
_atom_type_partial_charge
Ho0 Ho 0.26502 0.0764 0.11364 0.0
Ho1 Ho 0.32995 0.18217 0.10027 0.0
C2 C 0.29728 0.1596 0.15365 0.0
C3 C 0.23396 -0.01106 0.1284 0.0
C4 C 0.2395 0.96238 0.14776 0.0
C5 C 0.26196 0.93427 0.14421 0.0
C6 C 0.26334 0.90482 0.16159 0.0
C7 C 0.24195 0.90265 0.18283 0.0
C8 C 0.22074 0.93196 0.18655 0.0
C9 C 0.21956 0.96155 0.16921 0.0
C10 C 0.21602 0.11972 0.09798 0.0
C11 C 0.28045 0.09786 1.05937 0.0
C12 C 0.3727 0.27139 1.08602 0.0
C13 C 0.37955 0.30179 1.06593 0.0
C14 C 0.37491 0.34324 1.06858 0.0
C15 C 0.38227 0.3739 1.05013 0.0
C16 C 0.39478 0.3638 1.02871 0.0
C17 C 0.3998 0.32242 1.02606 0.0
C18 C 0.39202 0.29144 1.04454 0.0
C19 C 0.37768 0.13768 0.11701 0.0
O20 O 0.28259 0.11314 0.14888 0.0
O21 O 0.31328 0.19267 0.13705 0.0
O22 O 0.21072 0.01295 0.13183 0.0
O23 O 0.2721 0.01226 0.11516 0.0
O24 O 0.20046 0.07345 0.09602 0.0
O25 O 0.254 0.13933 0.11003 0.0
O26 O 0.30698 0.14504 1.06484 0.0
O27 O 0.26277 0.06401 1.07552 0.0
O28 O 0.3934 0.24452 1.08596 0.0
O29 O 0.32898 0.24921 0.09496 0.0
O30 O 0.38903 0.18208 0.12162 0.0
O31 O 0.34207 0.11954 0.10334 0.0
H32 H 0.27743 0.93413 0.12777 0.0
H33 H 0.28035 0.8831 0.15825 0.0
H34 H 0.20314 0.93055 0.20257 0.0
H35 H 0.20177 0.98259 0.17245 0.0
H36 H 0.36563 0.35195 1.08501 0.0
H37 H 0.37835 0.40565 1.05262 0.0
H38 H 0.40869 0.31347 1.00961 0.0
H39 H 0.39565 0.25952 1.0421 0.0
Ho40 Ho 0.2569 0.27929 0.44417 0.0
Ho41 Ho 0.23589 0.35877 0.43278 0.0
C42 C 0.2149 0.31838 0.48499 0.0
C43 C 0.29706 0.22981 0.45752 0.0
C44 C 0.32789 0.22925 0.47592 0.0
C45 C 0.34784 0.19876 0.4739 0.0
C46 C 0.37875 0.19847 0.49077 0.0
C47 C 0.39011 0.22871 0.50996 0.0
C48 C 0.37072 0.26004 0.5117 0.0
C49 C 0.33979 0.26036 0.49474 0.0
C50 C 0.16676 0.24708 0.42693 0.0
C51 C 0.25912 0.30221 0.39069 0.0
C52 C 0.20835 0.41914 0.41915 0.0
C53 C 0.1884 0.42991 0.39891 0.0
C54 C 0.1823 0.40459 0.37855 0.0
C55 C 0.15804 0.4112 0.36025 0.0
C56 C 0.14012 0.44387 0.36188 0.0
C57 C 0.14849 0.47084 0.38205 0.0
C58 C 0.17225 0.46367 0.40045 0.0
C59 C 0.32515 0.39026 0.45173 0.0
O60 O 0.24086 0.29718 0.47981 0.0
O61 O 0.20446 0.34139 0.46888 0.0
O62 O 0.25218 0.21797 0.46274 0.0
O63 O 0.31825 0.26752 0.44396 0.0
O64 O 0.19137 0.22482 0.42419 0.0
O65 O 0.18897 0.28228 0.4403 0.0
O66 O 0.24411 0.33328 0.39671 0.0
O67 O 0.2701 0.27953 0.4065 0.0
O68 O 0.25335 0.42809 0.41779 0.0
O69 O 0.17936 0.37751 0.42905 0.0
O70 O 0.29609 0.40643 0.45689 0.0
O71 O 0.30502 0.35764 0.43668 0.0
H72 H 0.33955 0.17516 0.45923 0.0
H73 H 0.39358 0.17439 0.48884 0.0
H74 H 0.37839 0.2833 0.52644 0.0
H75 H 0.32503 0.28458 0.49632 0.0
H76 H 0.19504 0.37876 0.37703 0.0
H77 H 0.15164 0.38913 0.34519 0.0
H78 H 0.13589 0.49678 0.38378 0.0
H79 H 0.17698 0.48367 0.4161 0.0
Ho80 Ho 0.03937 0.26115 0.77347 0.0
Ho81 Ho 0.93668 0.22001 0.76021 0.0
C82 C 0.96378 0.21048 0.81417 0.0
C83 C 0.13202 0.31937 0.77916 0.0
C84 C 0.16663 0.35276 0.79606 0.0
C85 C 0.15284 0.37618 0.81222 0.0
C86 C 0.18648 0.40681 0.8285 0.0
C87 C 0.23423 0.4141 0.82894 0.0
C88 C 0.24793 0.39129 0.81232 0.0
C89 C 0.21442 0.361 0.79602 0.0
C90 C -0.0041 0.16651 0.75888 0.0
C91 C 0.01505 0.2623 0.71864 0.0
C92 C 0.84399 0.16719 0.75232 0.0
C93 C 0.81329 0.14643 0.73209 0.0
C94 C 0.83193 0.13615 0.71258 0.0
C95 C 0.80237 0.11603 0.69347 0.0
C96 C 0.75375 0.1064 0.69339 0.0
C97 C 0.73546 0.11742 0.71293 0.0
C98 C 0.76508 0.13728 0.73215 0.0
C99 C 0.98203 0.31636 0.76843 0.0
O100 O 0.00957 0.24372 0.80948 0.0
O101 O 0.93087 0.19328 0.79743 0.0
O102 O 0.10998 0.27297 0.78424 0.0
O103 O 0.10286 0.33253 0.76976 0.0
O104 O 0.02731 0.18428 0.77543 0.0
O105 O -0.00918 0.20047 0.75118 0.0
O106 O 0.96821 0.2323 0.72388 0.0
O107 O 0.04762 0.28128 0.7354 0.0
O108 O 0.86675 0.21464 0.75377 0.0
O109 O 0.87187 0.14909 0.75777 0.0
O110 O 0.95141 0.29461 0.75202 0.0
O111 O -0.01352 0.28562 0.78058 0.0
H112 H 0.116 0.37026 0.81243 0.0
H113 H 0.17489 0.42409 0.84096 0.0
H114 H 0.28397 0.39516 0.81243 0.0
H115 H 0.22557 0.34316 0.78363 0.0
H116 H 0.86921 0.14324 0.71218 0.0
H117 H 0.81742 0.10707 0.67893 0.0
H118 H 0.69841 0.11089 0.71336 0.0
H119 H 0.75035 0.14545 0.74708 0.0
Ho120 Ho 0.86169 0.0601 0.10657 0.0
Ho121 Ho 0.79417 0.95581 0.096 0.0
C122 C 0.8352 0.98039 0.14787 0.0
C123 C 0.89971 0.14913 0.12031 0.0
C124 C 0.89754 0.17566 0.1402 0.0
C125 C 0.8768 0.1515 0.16072 0.0
C126 C 0.87569 0.17782 0.17955 0.0
C127 C 0.895 0.22853 0.178 0.0
C128 C 0.91425 0.25215 0.15713 0.0
C129 C 0.91553 0.22585 0.13838 0.0
C130 C 0.90608 0.01685 1.08592 0.0
C131 C 0.83598 0.03606 1.05338 0.0
C132 C 0.74392 0.86547 1.08358 0.0
C133 C 0.73839 0.83228 1.06511 0.0
C134 C 0.76249 0.84969 1.04427 0.0
C135 C 0.75893 0.8168 1.02752 0.0
C136 C 0.7315 0.76621 1.03151 0.0
C137 C 0.70691 0.74914 1.05233 0.0
C138 C 0.7103 0.78201 1.06899 0.0
C139 C 0.75026 0.00247 0.11496 0.0
O140 O 0.84965 0.02646 0.14246 0.0
O141 O 0.81661 0.94637 0.13183 0.0
O142 O 0.92076 0.12287 0.12314 0.0
O143 O 0.85936 0.12679 0.10846 0.0
O144 O 0.91991 0.06263 1.08393 0.0
O145 O 0.87308 -0.00283 0.10081 0.0
O146 O 0.81342 -0.01084 1.05965 0.0
O147 O 0.85342 0.07066 1.06908 0.0
O148 O 0.73048 0.89759 1.07946 0.0
O149 O 0.78481 0.8836 0.09497 0.0
O150 O 0.74021 0.95874 0.12008 0.0
O151 O 0.78281 0.01892 0.09982 0.0
H152 H 0.86204 0.11254 0.16225 0.0
H153 H 0.86035 0.15868 0.1954 0.0
H154 H 0.93001 0.29125 0.15553 0.0
H155 H 0.93122 0.24484 0.12252 0.0
H156 H 0.78467 0.88851 1.04115 0.0
H157 H 0.77884 0.83096 1.01174 0.0
H158 H 0.68531 0.71041 1.05577 0.0
H159 H 0.69162 0.76817 1.08508 0.0
Ho160 Ho 0.88067 0.86951 0.44174 0.0
Ho161 Ho 0.92773 0.81247 0.42858 0.0
C162 C 0.93398 0.84794 0.48263 0.0
C163 C 0.81594 0.89558 0.44747 0.0
C164 C 0.78121 0.89074 0.46513 0.0
C165 C 0.77549 0.86348 0.48488 0.0
C166 C 0.74517 0.86243 0.50241 0.0
C167 C 0.72034 0.88878 0.50044 0.0
C168 C 0.72457 0.9142 0.48013 0.0
C169 C 0.75489 0.9152 0.46262 0.0
C170 C 0.97618 0.92505 0.42912 0.0
C171 C 0.88605 0.84853 0.38632 0.0
C172 C 0.98405 0.77615 0.42213 0.0
C173 C -0.00351 0.75343 0.40361 0.0
C174 C 0.04137 0.75472 0.40417 0.0
C175 C 0.05547 0.73615 0.38601 0.0
C176 C 0.02474 0.71587 0.36698 0.0
C177 C 0.97878 0.7129 0.36696 0.0
C178 C 0.96486 0.73179 0.38508 0.0
C179 C 0.83057 0.75797 0.43447 0.0
O180 O 0.89844 0.8572 0.47782 0.0
O181 O 0.95406 0.83564 0.4658 0.0
O182 O 0.86213 0.92331 0.45264 0.0
O183 O 0.8068 0.8551 0.43739 0.0
O184 O 0.95566 0.93705 0.44507 0.0
O185 O 0.94403 0.8856 0.42088 0.0
O186 O 0.91318 0.82847 0.39188 0.0
O187 O 0.86813 0.86399 0.40283 0.0
O188 O 0.93962 0.75116 0.43011 0.0
O189 O -0.00148 0.82244 0.41958 0.0
O190 O 0.85477 0.75138 0.41841 0.0
O191 O 0.85941 0.79259 0.44739 0.0
H192 H 0.79545 0.84416 0.48697 0.0
H193 H 0.74224 0.84217 0.51778 0.0
H194 H 0.70644 0.93534 0.47823 0.0
H195 H 0.75897 0.93632 0.44739 0.0
H196 H 0.06615 0.77135 0.41839 0.0
H197 H 0.09142 0.73984 0.38644 0.0
H198 H 0.95409 0.6971 0.35266 0.0
H199 H 0.92993 0.73042 0.38443 0.0
Ho200 Ho 0.07394 0.88038 0.77774 0.0
Ho201 Ho 0.17882 0.91266 0.76757 0.0
C202 C 0.15209 0.92412 0.82007 0.0
C203 C 0.98328 0.83028 0.78956 0.0
C204 C 0.9534 0.79488 0.807 0.0
C205 C 0.90329 0.76503 0.80305 0.0
C206 C 0.87384 0.7305 0.81921 0.0
C207 C 0.89412 0.72539 0.83964 0.0
C208 C 0.94481 0.75451 0.84321 0.0
C209 C 0.97431 0.78898 0.82695 0.0
C210 C 0.12649 0.97334 0.76303 0.0
C211 C 0.10038 0.88601 0.72417 0.0
C212 C 0.26994 0.95131 0.75639 0.0
C213 C 0.30393 0.97564 0.73763 0.0
C214 C 0.28725 0.97643 0.71561 0.0
C215 C 0.32073 0.00289 0.69844 0.0
C216 C 0.37121 0.029 0.70314 0.0
C217 C 0.3876 0.02717 0.72515 0.0
C218 C 0.35414 0.00059 0.74226 0.0
C219 C 0.12665 0.82123 0.78487 0.0
O220 O 0.1057 0.89467 0.81406 0.0
O221 O 0.18701 0.94006 0.80431 0.0
O222 O 0.01234 0.87524 0.79622 0.0
O223 O 0.004 0.81482 0.77517 0.0
O224 O 0.07996 0.9459 0.75956 0.0
O225 O 0.14131 0.95177 0.77583 0.0
O226 O 0.14665 0.90343 0.73092 0.0
O227 O 0.0651 0.8717 0.73948 0.0
O228 O 0.23812 0.90502 0.75386 0.0
O229 O 0.25107 0.97567 0.76558 0.0
O230 O 0.17113 0.85242 0.79047 0.0
O231 O 0.11221 0.83997 0.76996 0.0
H232 H 0.88686 0.76865 0.78749 0.0
H233 H 0.83505 0.70825 0.81588 0.0
H234 H 0.96141 0.75189 0.85891 0.0
H235 H 0.01318 0.81136 0.83005 0.0
H236 H 0.2485 0.95752 0.71185 0.0
H237 H 0.30702 0.00429 0.6817 0.0
H238 H 0.42623 0.04672 0.72918 0.0
H239 H 0.36743 0.00027 0.75925 0.0
H240 H 0.87396 0.97337 1.04422 0.0
H241 H 0.93082 0.9841 1.01413 0.0
H242 H 0.04275 0.01762 1.06445 0.0
H243 H -0.01308 0.01116 0.09441 0.0
H244 H 0.00018 0.08259 1.0166 0.0
H245 H 0.09997 0.98376 1.00907 0.0
H246 H 0.03492 0.95301 1.01499 0.0
H247 H 0.07892 0.97745 1.03789 0.0
C248 C 0.90991 0.98098 1.04909 0.0
C249 C 0.92651 -0.00676 1.07168 0.0
C250 C 0.94236 0.98635 1.03169 0.0
C251 C -0.0086 0.00268 1.03687 0.0
C252 C 0.00506 0.00503 1.0599 0.0
H253 H 0.26303 0.18702 1.06357 0.0
H254 H 0.21935 0.18156 1.02828 0.0
C255 C 0.97304 0.00127 1.07719 0.0
C256 C 0.03008 0.03478 1.02062 0.0
H257 H 0.15098 0.07252 1.02166 0.0
C258 C 0.03313 0.08 1.01644 0.0
C259 C 0.07292 0.03173 1.01858 0.0
C260 C 0.0713 0.98354 1.02009 0.0
C261 C 0.07839 0.12309 1.01808 0.0
C262 C 0.11991 0.11951 1.02345 0.0
C263 C 0.11826 0.07502 1.01919 0.0
C264 C 0.148 0.14483 1.04404 0.0
C265 C 0.07987 0.17119 1.01952 0.0
C266 C 0.12286 0.12933 1.0649 0.0
C267 C 0.14722 0.12774 1.08435 0.0
C268 C 0.19737 0.14464 1.0835 0.0
C269 C 0.22391 0.17061 1.06417 0.0
C270 C 0.19914 0.16884 1.04408 0.0
H271 H 0.05393 0.17246 1.00713 0.0
H272 H 0.06854 0.17548 1.03686 0.0
H273 H 0.11731 0.202 1.01622 0.0
H274 H 0.08332 0.11104 1.06537 0.0
H275 H 0.12596 0.10801 0.09914 0.0
H276 H -0.00107 0.90996 0.3863 0.0
H277 H 0.03224 0.97134 0.35625 0.0
H278 H 0.07367 0.08431 0.40654 0.0
H279 H 0.03644 0.02285 0.43653 0.0
H280 H 0.98113 0.03486 0.35817 0.0
H281 H 0.18107 0.13706 0.34985 0.0
H282 H 0.14742 0.07314 0.35774 0.0
H283 H 0.16398 0.11979 0.37902 0.0
C284 C 0.01626 0.94797 0.39111 0.0
C285 C 0.01338 0.96165 0.41369 0.0
C286 C 0.03566 0.98293 0.37384 0.0
C287 C 0.05488 0.0321 0.37917 0.0
C288 C 0.05879 0.04628 0.40214 0.0
H289 H 0.07697 0.16864 0.43138 0.0
H290 H 0.02506 0.12845 0.39901 0.0
C291 C 0.03763 0.01123 0.41932 0.0
C292 C 0.05933 0.06735 0.36159 0.0
H293 H 0.14084 0.1871 0.35418 0.0
C294 C 0.01625 0.06788 0.3562 0.0
C295 C 0.10474 0.1095 0.35753 0.0
C296 C 0.15198 0.10969 0.36109 0.0
C297 C 0.01763 0.11252 0.35336 0.0
C298 C 0.06258 0.15577 0.35669 0.0
C299 C 0.10572 0.15368 0.35372 0.0
C300 C 0.06599 0.18843 0.3755 0.0
C301 C 0.97055 0.11342 0.35263 0.0
C302 C 0.10061 0.23826 0.37416 0.0
C303 C 0.12858 0.26216 0.39336 0.0
C304 C 0.12329 0.23576 0.41342 0.0
C305 C 0.08224 0.18951 0.41594 0.0
C306 C 0.05238 0.1666 0.39722 0.0
H307 H 0.94424 0.08477 0.34091 0.0
H308 H 0.95391 0.10544 0.36987 0.0
H309 H 0.9768 0.14962 0.34703 0.0
H310 H 0.11121 0.25635 0.35777 0.0
H311 H 0.15837 0.29883 0.39142 0.0
H312 H 0.19434 -0.01055 0.7297 0.0
H313 H 0.199 0.03583 0.69561 0.0
H314 H 0.14073 0.11119 0.73408 0.0
H315 H 0.12753 0.05846 0.76638 0.0
H316 H 0.09645 0.002 0.68837 0.0
H317 H 0.19284 0.19907 0.677 0.0
H318 H 0.22395 0.16583 0.68439 0.0
H319 H 0.19905 0.18696 0.70632 0.0
C320 C 0.18299 0.01622 0.73086 0.0
C321 C 0.157 0.0179 0.74991 0.0
C322 C 0.18725 0.04394 0.71152 0.0
C323 C 0.16842 0.07568 0.71193 0.0
C324 C 0.15456 0.08612 0.73306 0.0
H325 H 0.02455 0.09925 0.76677 0.0
H326 H 0.04887 0.0612 0.73736 0.0
C327 C 0.14685 0.05588 0.75169 0.0
C328 C 0.14279 0.07991 0.6917 0.0
H329 H 0.10337 0.16132 0.69008 0.0
C330 C 0.09815 0.03704 0.68738 0.0
C331 C 0.14513 0.12492 0.68785 0.0
C332 C 0.19318 0.17181 0.68882 0.0
C333 C 0.0544 0.038 0.68917 0.0
C334 C 0.057 0.08322 0.69271 0.0
C335 C 0.10147 0.12629 0.68856 0.0
C336 C 0.02389 0.08727 0.70911 0.0
C337 C 0.0068 -0.0092 0.69128 0.0
C338 C -0.00177 0.1109 0.70302 0.0
C339 C 0.98246 0.13081 0.71992 0.0
C340 C -0.0053 0.12979 0.74299 0.0
C341 C 0.01526 0.10122 0.74918 0.0
C342 C 0.02912 0.07948 0.73232 0.0
H343 H 0.00694 0.96218 0.68042 0.0
H344 H 0.0019 0.97809 0.70924 0.0
H345 H 0.97546 -0.00442 0.68646 0.0
H346 H -0.00601 0.11743 0.68526 0.0
H347 H 0.96526 0.15134 0.7146 0.0
H348 H 0.46761 0.4015 0.99677 0.0
H349 H 0.47103 0.44651 0.96212 0.0
H350 H 0.33537 0.43857 0.98119 0.0
H351 H 0.3327 0.39521 1.01587 0.0
H352 H 0.40909 0.40961 0.92951 0.0
H353 H 0.40398 0.57278 0.95619 0.0
H354 H 0.41986 0.53885 0.97579 0.0
H355 H 0.35674 0.52165 0.97114 0.0
C356 C 0.43914 0.41034 0.99369 0.0
C357 C 0.39986 0.39492 1.00892 0.0
C358 C 0.4413 0.43633 0.97403 0.0
C359 C 0.40405 0.44696 0.96925 0.0
C360 C 0.36558 0.43264 0.98485 0.0
H361 H 0.21147 0.41113 0.87394 0.0
H362 H 0.26793 0.43915 0.90594 0.0
C363 C 0.36375 0.4073 1.00458 0.0
C364 C 0.40012 0.46491 0.94646 0.0
H365 H 0.35731 0.53294 0.92082 0.0
C366 C 0.39968 0.43794 0.92743 0.0
C367 C 0.38837 0.50224 0.94362 0.0
C368 C 0.39287 0.53579 0.96282 0.0
C369 C 0.3822 0.44325 0.90632 0.0
C370 C 0.36499 0.47656 0.90426 0.0
C371 C 0.37009 0.50706 0.92258 0.0
C372 C 0.33304 0.47256 0.88507 0.0
C373 C 0.37781 0.40985 0.88701 0.0
C374 C 0.35116 0.48435 0.8628 0.0
C375 C 0.31883 0.46857 0.84436 0.0
C376 C 0.26804 0.44061 0.84801 0.0
C377 C 0.25023 0.4328 0.87045 0.0
C378 C 0.2825 0.44876 0.88881 0.0
H379 H 0.39039 0.38403 0.89191 0.0
H380 H 0.33924 0.3885 0.88123 0.0
H381 H 0.40013 0.43189 0.87236 0.0
H382 H 0.39015 0.50304 0.85966 0.0
H383 H 0.33363 0.47606 0.82725 0.0
H384 H 0.05892 0.45407 0.36561 0.0
H385 H 0.00079 0.44279 0.33552 0.0
H386 H 0.09183 0.42439 0.28648 0.0
H387 H 0.15189 0.43975 0.31593 0.0
H388 H 0.04498 0.46559 0.26709 0.0
H389 H 0.91241 0.30412 0.31796 0.0
H390 H 0.93429 0.36333 0.33019 0.0
H391 H 0.97541 0.34016 0.32637 0.0
C392 C 0.06749 0.44939 0.34828 0.0
C393 C 0.10952 0.44641 0.34329 0.0
C394 C 0.03379 0.44231 0.33114 0.0
C395 C 0.04104 0.43094 0.30894 0.0
C396 C 0.08507 0.4325 0.30357 0.0
H397 H 0.92676 0.21982 0.21969 0.0
H398 H 0.94716 0.27465 0.25191 0.0
C399 C 0.11914 0.44057 0.32052 0.0
C400 C 0.00124 0.41082 0.29182 0.0
H401 H 0.89733 0.30418 0.27937 0.0
C402 C 0.01189 0.4309 0.26981 0.0
C403 C 0.95773 0.36583 0.29556 0.0
C404 C 0.94412 0.34179 0.31872 0.0
C405 C 0.98393 0.40432 0.25098 0.0
C406 C 0.94331 0.35717 0.25452 0.0
C407 C 0.92884 0.34015 0.27682 0.0
C408 C 0.92344 0.32099 0.23588 0.0
C409 C 0.00118 0.42471 0.22739 0.0
C410 C 0.90188 0.3279 0.21639 0.0
C411 C 0.89051 0.29656 0.19774 0.0
C412 C 0.89988 0.25758 0.19855 0.0
C413 C 0.9186 0.24915 0.21863 0.0
C414 C 0.93036 0.28059 0.23706 0.0
H415 H 0.03623 0.4599 0.22768 0.0
H416 H 0.00618 0.39846 0.21686 0.0
H417 H 0.97331 0.43094 0.21899 0.0
H418 H 0.89529 0.35824 0.21531 0.0
H419 H 0.8755 0.30345 0.18251 0.0
H420 H 0.65647 0.03578 0.69242 0.0
H421 H 0.60961 -0.0114 0.65933 0.0
H422 H 0.73401 0.07518 0.61612 0.0
H423 H 0.77935 0.1246 0.64856 0.0
H424 H 0.65096 0.04742 0.59354 0.0
H425 H 0.63948 0.88656 0.63849 0.0
H426 H 0.60856 0.91532 0.651 0.0
H427 H 0.67424 0.94701 0.65011 0.0
C428 C 0.67327 0.04574 0.67574 0.0
C429 C 0.72223 0.08305 0.67321 0.0
C430 C 0.64657 0.01832 0.65688 0.0
C431 C 0.66883 0.02721 0.63538 0.0
C432 C 0.71611 0.06718 0.63258 0.0
H433 H 0.75306 0.90683 0.544 0.0
H434 H 0.71897 0.92836 0.57593 0.0
C435 C 0.74237 0.09503 0.65124 0.0
C436 C 0.64699 -0.00775 0.61628 0.0
H437 H 0.63241 0.88291 0.5992 0.0
C438 C 0.64543 0.01083 0.59475 0.0
C439 C 0.63909 0.94421 0.61802 0.0
C440 C 0.64055 0.92193 0.64057 0.0
C441 C 0.6431 0.98555 0.57475 0.0
C442 C 0.6405 0.93977 0.57651 0.0
C443 C 0.63495 0.91829 0.59803 0.0
C444 C 0.65578 0.91986 0.55746 0.0
C445 C 0.64884 0.01039 0.55207 0.0
C446 C 0.63091 0.90662 0.53655 0.0
C447 C 0.65071 0.89448 0.51805 0.0
C448 C 0.6952 0.89477 0.52039 0.0
C449 C 0.7184 0.9055 0.54171 0.0
C450 C 0.69896 0.91798 0.55999 0.0
H451 H 0.65485 0.04789 0.55394 0.0
H452 H 0.68017 0.0125 0.54254 0.0
H453 H 0.61537 -0.01107 0.54172 0.0
H454 H 0.59708 0.90696 0.53435 0.0
H455 H 0.63184 0.88586 0.50184 0.0
H456 H 0.74327 0.6874 1.03869 0.0
H457 H 0.75254 0.637 1.00967 0.0
H458 H 0.72803 0.71736 0.95693 0.0
H459 H 0.71794 0.76717 0.98574 0.0
H460 H 0.68442 0.60911 0.94963 0.0
H461 H 0.88274 0.71076 0.97215 0.0
H462 H 0.83774 0.67841 0.99388 0.0
H463 H 0.84266 0.73247 0.98147 0.0
C464 C 0.7386 0.6934 1.02092 0.0
C465 C 0.73057 0.73161 1.01438 0.0
C466 C 0.74395 0.66466 1.00442 0.0
C467 C 0.74121 0.67377 0.98126 0.0
C468 C 0.73007 0.70975 0.97479 0.0
H469 H 0.80798 0.71616 0.85342 0.0
H470 H 0.76308 0.67772 0.88784 0.0
C471 C 0.72489 0.73852 0.9912 0.0
C472 C 0.75694 0.65181 0.96347 0.0
H473 H 0.8616 0.6776 0.93579 0.0
C474 C 0.72302 0.62256 0.94685 0.0
C475 C 0.80714 0.66846 0.96018 0.0
C476 C 0.84494 0.6993 0.97777 0.0
C477 C 0.73867 0.61414 0.92588 0.0
C478 C 0.78935 0.63695 0.92135 0.0
C479 C 0.82273 0.6606 0.93912 0.0
C480 C 0.80874 0.64767 0.8978 0.0
C481 C 0.70086 0.58368 0.9083 0.0
C482 C 0.84943 0.64351 0.89163 0.0
C483 C 0.8759 0.66641 0.87193 0.0
C484 C 0.86197 0.6937 0.8581 0.0
C485 C 0.81927 0.6948 0.86348 0.0
C486 C 0.79314 0.67229 0.88316 0.0
H487 H 0.6691 0.55222 0.91655 0.0
H488 H 0.68712 0.60596 0.89995 0.0
H489 H 0.71597 0.56986 0.89508 0.0
H490 H 0.86241 0.62508 0.90277 0.0
H491 H 0.90839 0.66451 0.86802 0.0
H492 H 0.01325 0.73542 0.32305 0.0
H493 H 0.05585 0.73077 0.28984 0.0
H494 H 0.12304 0.66631 0.33028 0.0
H495 H 0.0798 0.67077 0.36404 0.0
H496 H 0.19007 0.74363 0.30924 0.0
H497 H 0.05373 0.63653 0.24462 0.0
H498 H 0.03513 0.6763 0.2569 0.0
H499 H 0.0382 0.63106 0.27452 0.0
C500 C 0.0354 0.71834 0.32482 0.0
C501 C 0.04321 0.70364 0.34625 0.0
C502 C 0.05972 0.71545 0.30568 0.0
C503 C 0.09211 0.69739 0.3074 0.0
C504 C 0.09791 0.67999 0.32851 0.0
H505 H 0.22144 0.80845 0.17679 0.0
H506 H 0.20039 0.74644 0.2062 0.0
C507 C 0.07347 0.6829 0.34778 0.0
C508 C 0.12572 0.70577 0.28817 0.0
H509 H 0.12467 0.71547 0.23053 0.0
C510 C 0.17606 0.73591 0.29196 0.0
C511 C 0.1083 0.69418 0.26556 0.0
C512 C 0.05587 0.65719 0.26027 0.0
C513 C 0.20783 0.76088 0.27388 0.0
C514 C 0.1883 0.75663 0.25176 0.0
C515 C 0.13967 0.72037 0.24758 0.0
C516 C 0.21324 0.79542 0.23437 0.0
C517 C 0.2613 0.79409 0.27897 0.0
C518 C 0.22915 0.84402 0.24038 0.0
C519 C 0.24191 0.87964 0.22366 0.0
C520 C 0.23804 0.86729 0.2005 0.0
C521 C 0.22516 0.81932 0.19449 0.0
C522 C 0.21289 0.7837 0.21129 0.0
H523 H 0.27405 0.77693 0.29171 0.0
H524 H 0.28415 0.80275 0.26341 0.0
H525 H 0.26667 0.8285 0.28654 0.0
H526 H 0.22848 0.85403 0.25795 0.0
H527 H 0.25246 0.91639 0.22888 0.0
H528 H 0.3743 0.00709 0.65851 0.0
H529 H 0.42134 0.0638 0.62815 0.0
H530 H 0.49402 0.17916 0.67741 0.0
H531 H 0.44605 0.12262 0.7079 0.0
H532 H 0.44587 0.19974 0.64598 0.0
H533 H 0.55702 0.13723 0.60122 0.0
H534 H 0.49741 0.08622 0.60646 0.0
H535 H 0.53624 0.1192 0.63019 0.0
C536 C 0.4011 0.04426 0.66292 0.0
C537 C 0.4061 0.06062 0.68548 0.0
C538 C 0.42863 0.07649 0.64561 0.0
C539 C 0.46179 0.1256 0.65056 0.0
C540 C 0.46916 0.14127 0.67329 0.0
H541 H 0.46387 0.30234 0.53476 0.0
H542 H 0.50413 0.29344 0.56879 0.0
C543 C 0.44168 0.10894 0.69066 0.0
C544 C 0.4797 0.16134 0.63169 0.0
H545 H 0.51684 0.17081 0.57657 0.0
C546 C 0.46325 0.19504 0.63103 0.0
C547 C 0.50298 0.15563 0.61239 0.0
C548 C 0.52487 0.12292 0.61273 0.0
C549 C 0.46287 0.21777 0.61061 0.0
C550 C 0.48039 0.20703 0.59054 0.0
C551 C 0.50286 0.17848 0.59194 0.0
C552 C 0.46478 0.21457 0.56789 0.0
C553 C 0.43855 0.24842 0.6102 0.0
C554 C 0.43107 0.17333 0.55567 0.0
C555 C 0.40834 0.17825 0.53638 0.0
C556 C 0.41884 0.22461 0.52888 0.0
C557 C 0.45457 0.26615 0.54042 0.0
C558 C 0.47768 0.26116 0.55975 0.0
H559 H 0.42335 0.24976 0.62706 0.0
H560 H 0.46558 0.28627 0.60514 0.0
H561 H 0.40841 0.23376 0.59753 0.0
H562 H 0.42028 0.13701 0.56178 0.0
H563 H 0.38065 0.14554 0.52803 0.0
H564 H 0.37084 0.05338 0.10061 0.0
H565 H 0.43265 0.02826 0.10314 0.0
H566 H 0.52585 0.15746 0.14206 0.0
H567 H 0.46392 0.18192 0.14009 0.0
H568 H 0.52457 0.07526 1.08643 0.0
H569 H 0.53341 0.05507 0.1797 0.0
H570 H 0.48463 0.05989 0.16625 0.0
H571 H 0.54247 0.11375 0.17183 0.0
C572 C 0.40412 0.07589 0.11007 0.0
C573 C 0.41241 0.11954 0.12022 0.0
C574 C 0.43954 0.06165 0.11142 0.0
C575 C 0.48383 0.09063 0.12303 0.0
C576 C 0.49168 0.13382 0.13346 0.0
H577 H 0.75428 0.0853 0.09827 0.0
H578 H 0.69102 0.10836 0.10097 0.0
C579 C 0.45627 0.14794 0.1322 0.0
C580 C 0.52302 0.07742 0.12306 0.0
H581 H 0.59887 0.05853 0.15789 0.0
C582 C 0.54058 0.07131 0.10207 0.0
C583 C 0.54376 0.07179 0.14345 0.0
C584 C 0.52478 0.07496 0.16658 0.0
C585 C 0.57865 0.06056 0.10088 0.0
C586 C 0.60075 0.05689 0.12124 0.0
C587 C 0.58259 0.06211 0.14225 0.0
C588 C 0.64128 0.04558 0.12111 0.0
C589 C 0.59407 0.0522 1.07778 0.0
C590 C 0.63569 0.00406 0.13249 0.0
C591 C 0.67208 -0.00873 0.13124 0.0
C592 C 0.71492 0.01971 0.11856 0.0
C593 C 0.72154 0.06248 0.10802 0.0
C594 C 0.68517 0.07541 0.10938 0.0
H595 H 0.56528 0.04317 1.06473 0.0
H596 H 0.62738 0.08593 1.07222 0.0
H597 H 0.60257 0.0222 1.0784 0.0
H598 H 0.60244 0.98065 0.14181 0.0
H599 H 0.66596 0.95822 0.13965 0.0
H600 H 0.39836 0.39202 0.42586 0.0
H601 H 0.48537 0.45456 0.42658 0.0
H602 H 0.45954 0.523 0.48411 0.0
H603 H 0.37274 0.46097 0.48338 0.0
H604 H 0.51586 0.5588 0.42199 0.0
H605 H 0.58644 0.51895 0.50119 0.0
H606 H 0.53248 0.47312 0.48667 0.0
H607 H 0.52967 0.51899 0.50338 0.0
C608 C 0.41148 0.4197 0.439 0.0
C609 C 0.37873 0.42168 0.45454 0.0
C610 C 0.46113 0.45553 0.43934 0.0
C611 C 0.47901 0.49338 0.45546 0.0
C612 C 0.44676 0.4939 0.4717 0.0
H613 H 0.77183 0.75538 0.47006 0.0
H614 H 0.68508 0.69404 0.47632 0.0
C615 C 0.39713 0.45845 0.47122 0.0
C616 C 0.53007 0.5348 0.45393 0.0
H617 H 0.64039 0.5912 0.48135 0.0
C618 C 0.5431 0.56582 0.43495 0.0
C619 C 0.56528 0.54454 0.47108 0.0
C620 C 0.55315 0.5121 0.49171 0.0
C621 C 0.59045 0.606 0.43253 0.0
C622 C 0.62632 0.61484 0.44925 0.0
C623 C 0.61298 0.58451 0.46854 0.0
C624 C 0.67858 0.65267 0.44588 0.0
C625 C 0.6015 0.63889 0.41209 0.0
C626 C 0.7038 0.64958 0.42692 0.0
C627 C 0.75274 0.68431 0.42333 0.0
C628 C 0.77813 0.72291 0.43874 0.0
C629 C 0.75317 0.72612 0.45788 0.0
C630 C 0.70374 0.69106 0.46148 0.0
H631 H 0.56785 0.63717 0.40529 0.0
H632 H 0.62828 0.67736 0.41636 0.0
H633 H 0.61718 0.62686 0.39837 0.0
H634 H 0.68567 0.61987 0.41491 0.0
H635 H 0.77084 0.68056 0.40846 0.0
H636 H 0.03742 0.37057 0.80528 0.0
H637 H 0.06228 0.45621 0.81398 0.0
H638 H -0.00998 0.46335 0.75298 0.0
H639 H 0.96594 0.37932 0.74415 0.0
H640 H 0.11686 0.54389 0.7828 0.0
H641 H 0.93144 0.5068 0.80635 0.0
H642 H 0.9488 0.46044 0.80713 0.0
H643 H 0.93424 0.47809 0.78046 0.0
C644 C 0.02715 0.39065 0.79376 0.0
C645 C -0.0005 0.36811 0.77412 0.0
C646 C 0.04119 0.4394 0.79874 0.0
C647 C 0.02717 0.46581 0.7843 0.0
C648 C 0.00045 0.44345 0.76456 0.0
H649 H 0.0522 0.74529 0.76146 0.0
H650 H 0.02797 0.65869 0.76396 0.0
C651 C -0.01314 0.39534 0.75952 0.0
C652 C 0.04066 0.51708 0.78916 0.0
H653 H -0.00966 0.5894 0.79778 0.0
C654 C 0.08946 0.55396 0.78651 0.0
C655 C 0.00468 0.53005 0.79371 0.0
C656 C 0.95186 0.49181 0.79728 0.0
C657 C 0.10293 0.60355 0.78724 0.0
C658 C 0.0667 0.61661 0.79128 0.0
C659 C 0.0181 0.57956 0.79463 0.0
C660 C 0.07827 0.66839 0.79123 0.0
C661 C 0.15545 0.64137 0.7825 0.0
C662 C 0.11312 0.70241 0.8063 0.0
C663 C 0.12715 0.75179 0.80479 0.0
C664 C 0.10617 0.76817 0.78838 0.0
C665 C 0.0691 0.73377 0.77422 0.0
C666 C 0.05533 0.6843 0.77562 0.0
H667 H 0.17549 0.62532 0.77398 0.0
H668 H 0.15778 0.67113 0.77159 0.0
H669 H 0.17424 0.65752 0.79885 0.0
H670 H 0.13028 0.69094 0.81895 0.0
H671 H 0.15542 0.7774 0.81612 0.0
H672 H 0.3058 0.24639 0.16903 0.0
H673 H 0.29836 0.27043 0.20791 0.0
H674 H 0.27335 0.13225 0.2332 0.0
H675 H 0.28003 0.10765 0.19427 0.0
H676 H 0.21793 0.22478 0.2408 0.0
H677 H 0.385 0.23212 0.27508 0.0
H678 H 0.37431 0.23278 0.24488 0.0
H679 H 0.34313 0.17671 0.2606 0.0
C680 C 0.2989 0.22093 0.18278 0.0
C681 C 0.2939 0.17486 0.17802 0.0
C682 C 0.29442 0.23483 0.20524 0.0
C683 C 0.28565 0.20373 0.22407 0.0
C684 C 0.28072 0.1577 0.21939 0.0
H685 H 0.27268 0.22877 0.37372 0.0
H686 H 0.27694 0.20646 0.33445 0.0
C687 C 0.28446 0.14347 0.19687 0.0
C688 C 0.28153 0.21927 0.24834 0.0
H689 H 0.33517 0.24316 0.30141 0.0
C690 C 0.24378 0.22893 0.25399 0.0
C691 C 0.31463 0.22473 0.26604 0.0
C692 C 0.35685 0.21647 0.26146 0.0
C693 C 0.23758 0.24228 0.27644 0.0
C694 C 0.27114 0.24842 0.29416 0.0
C695 C 0.30906 0.23896 0.28836 0.0
C696 C 0.26709 0.26284 0.3188 0.0
C697 C 0.19351 0.24755 0.28101 0.0
C698 C 0.26009 0.30256 0.32422 0.0
C699 C 0.257 0.31534 0.34718 0.0
C700 C 0.26183 0.28962 0.36575 0.0
C701 C 0.26915 0.25024 0.36026 0.0
C702 C 0.27169 0.23724 0.33746 0.0
H703 H 0.16392 0.22677 0.26846 0.0
H704 H 0.17875 0.23461 0.29837 0.0
H705 H 0.20407 0.28651 0.27948 0.0
H706 H 0.25775 0.32453 0.3107 0.0
H707 H 0.25144 0.34588 0.35033 0.0
H708 H 0.16119 0.35804 0.503 0.0
H709 H 0.12691 0.34884 0.54132 0.0
H710 H 0.18809 0.25939 0.56072 0.0
H711 H 0.22209 0.26809 0.52229 0.0
H712 H 0.09688 0.21992 0.5778 0.0
H713 H 0.19217 0.41574 0.59964 0.0
H714 H 0.15658 0.40249 0.57408 0.0
H715 H 0.20813 0.39296 0.57492 0.0
C716 C 0.16785 0.33666 0.51538 0.0
C717 C 0.19517 0.31426 0.50913 0.0
C718 C 0.14822 0.33157 0.53759 0.0
C719 C 0.15508 0.30395 0.55463 0.0
C720 C 0.18196 0.28115 0.54833 0.0
H721 H 0.10911 0.31962 0.7025 0.0
H722 H 0.14053 0.32781 0.66374 0.0
C723 C 0.20177 0.28638 0.52614 0.0
C724 C 0.13387 0.29826 0.57867 0.0
H725 H 0.12935 0.36259 0.62496 0.0
C726 C 0.10414 0.25132 0.58801 0.0
C727 C 0.14331 0.33866 0.5927 0.0
C728 C 0.17717 0.3903 0.58497 0.0
C729 C 0.08348 0.2438 0.61025 0.0
C730 C 0.09157 0.28422 0.62398 0.0
C731 C 0.12197 0.33115 0.61476 0.0
C732 C 0.07084 0.27895 0.64811 0.0
C733 C 0.05427 0.19227 0.61904 0.0
C734 C 0.02047 0.24928 0.65306 0.0
C735 C 0.0021 0.24446 0.67557 0.0
C736 C 0.03327 0.26943 0.69409 0.0
C737 C 0.08343 0.29971 0.689 0.0
C738 C 0.10169 0.30449 0.66657 0.0
H739 H 0.06314 0.1672 0.60971 0.0
H740 H 0.06099 0.19029 0.63748 0.0
H741 H 0.01478 0.17905 0.61658 0.0
H742 H -0.00503 0.22985 0.63945 0.0
H743 H 0.96337 0.22069 0.67848 0.0
H744 H 0.01488 0.24801 0.85466 0.0
H745 H -0.00847 0.21709 0.89377 0.0
H746 H 0.85621 0.09801 0.86894 0.0
H747 H 0.87893 0.12921 0.82984 0.0
H748 H 0.90397 0.19787 0.92041 0.0
H749 H 0.91328 0.02886 0.90944 0.0
H750 H 0.94351 0.08007 0.8902 0.0
H751 H 0.87862 0.04031 0.88848 0.0
C752 C 0.98004 0.21521 0.85738 0.0
C753 C 0.94907 0.1915 0.83859 0.0
C754 C 0.96659 0.1974 0.87999 0.0
C755 C 0.92205 0.15447 0.88484 0.0
C756 C 0.89106 0.13071 0.86611 0.0
H757 H 0.79573 0.98196 1.0133 0.0
H758 H 0.81445 0.00969 0.97341 0.0
C759 C 0.90412 0.14894 0.84353 0.0
C760 C 0.90782 0.13537 0.90931 0.0
H761 H 0.88526 0.03965 0.94495 0.0
C762 C 0.90007 0.16329 0.92569 0.0
C763 C 0.90171 0.08984 0.9167 0.0
C764 C 0.90996 0.05794 0.90043 0.0
C765 C 0.88601 0.14715 0.94857 0.0
C766 C 0.88128 0.10216 0.95627 0.0
C767 C 0.88875 0.07408 0.93974 0.0
C768 C 0.8694 0.08423 0.98117 0.0
C769 C 0.87445 0.17818 0.96391 0.0
C770 C 0.89409 0.11547 0.99966 0.0
C771 C 0.88255 0.09981 1.02257 0.0
C772 C 0.84658 0.0516 1.02834 0.0
C773 C 0.82309 0.0195 1.00992 0.0
C774 C 0.83412 0.03553 0.98686 0.0
H775 H 0.86209 0.19986 0.95391 0.0
H776 H 0.84553 0.15572 0.97644 0.0
H777 H 0.90799 0.20434 0.97323 0.0
H778 H 0.92309 0.15239 0.9965 0.0
H779 H 0.90279 0.12581 1.03589 0.0
H780 H 0.85401 0.03404 0.18803 0.0
H781 H 0.86219 0.01111 0.22722 0.0
H782 H 0.83766 0.87248 0.20317 0.0
H783 H 0.82841 0.89468 0.1641 0.0
H784 H 0.78988 0.92138 0.25461 0.0
H785 H 0.96811 0.92998 0.24252 0.0
H786 H 0.94799 0.96232 0.22412 0.0
H787 H 0.92167 0.89762 0.22135 0.0
C788 C 0.85028 -0.00143 0.19095 0.0
C789 C 0.84043 0.9665 0.17237 0.0
C790 C 0.85498 0.98535 0.21361 0.0
C791 C 0.85111 0.93991 0.2187 0.0
C792 C 0.84143 0.90793 0.20017 0.0
H793 H 0.90049 0.81134 0.34548 0.0
H794 H 0.89074 0.83166 0.306 0.0
C795 C 0.83589 0.92076 0.17759 0.0
C796 C 0.85639 0.92572 0.24317 0.0
H797 H 0.93014 0.90255 0.27822 0.0
C798 C 0.82075 0.91751 0.2597 0.0
C799 C 0.89599 0.91954 0.25031 0.0
C800 C 0.93596 0.92802 0.2338 0.0
C801 C 0.82301 0.90287 0.28249 0.0
C802 C 0.86347 0.89801 0.28995 0.0
C803 C 0.89904 0.90609 0.27325 0.0
C804 C 0.86958 0.88499 0.3147 0.0
C805 C 0.78031 0.89072 0.29794 0.0
C806 C 0.86224 0.90804 0.33367 0.0
C807 C 0.86675 0.89549 0.35639 0.0
C808 C 0.88029 0.86018 0.36151 0.0
C809 C 0.88948 0.83825 0.34263 0.0
C810 C 0.88403 0.8502 0.31978 0.0
H811 H 0.74621 0.87872 0.28802 0.0
H812 H 0.77391 0.86141 0.31021 0.0
H813 H 0.78762 0.92381 0.30755 0.0
H814 H 0.8535 0.93661 0.33104 0.0
H815 H 0.86042 0.9145 0.37009 0.0
H816 H 0.01655 0.84728 0.49927 0.0
H817 H 0.04575 0.85463 0.53875 0.0
H818 H 0.92275 0.8655 0.56231 0.0
H819 H 0.89372 0.85869 0.52293 0.0
H820 H 0.07353 0.92887 0.57275 0.0
H821 H 0.91513 0.75819 0.60427 0.0
H822 H 0.92716 0.77125 0.57427 0.0
H823 H 0.89947 0.79916 0.59045 0.0
C824 C -0.0046 0.8511 0.51277 0.0
C825 C 0.9522 0.85206 0.50732 0.0
C826 C 0.01242 0.85549 0.53562 0.0
C827 C -0.01335 0.86012 0.55424 0.0
C828 C 0.94356 0.8612 0.54881 0.0
H829 H 0.01282 0.86879 0.70535 0.0
H830 H -0.01116 0.86479 0.66553 0.0
C831 C 0.9269 0.85749 0.52596 0.0
C832 C 0.00471 0.86404 0.57903 0.0
H833 H 0.97186 0.80942 0.63194 0.0
C834 C 0.05119 0.90246 0.58559 0.0
C835 C 0.97634 0.83032 0.59643 0.0
C836 C 0.92692 0.78712 0.59109 0.0
C837 C 0.06899 0.90874 0.60849 0.0
C838 C 0.04081 0.87464 0.62593 0.0
C839 C -0.0056 0.83605 0.61922 0.0
C840 C 0.05756 0.87861 0.65107 0.0
C841 C 0.11726 0.95352 0.6138 0.0
C842 C 0.10477 0.88774 0.6575 0.0
C843 C 0.1191 0.89075 0.68079 0.0
C844 C 0.08657 0.88367 0.69885 0.0
C845 C 0.0394 0.87417 0.69238 0.0
C846 C 0.02535 0.87176 0.66922 0.0
H847 H 0.12606 0.98314 0.60129 0.0
H848 H 0.11731 0.96762 0.63111 0.0
H849 H 0.14673 0.94425 0.61286 0.0
H850 H 0.13075 0.89181 0.6445 0.0
H851 H 0.15564 0.89796 0.68462 0.0
H852 H 0.2386 -0.00012 0.83757 0.0
H853 H 0.2591 0.02927 0.877 0.0
H854 H 0.1167 0.9176 0.89895 0.0
H855 H 0.09552 0.88861 0.85944 0.0
H856 H 0.20299 0.06097 0.90947 0.0
H857 H 0.21907 0.90517 0.94238 0.0
H858 H 0.22602 0.92101 0.91249 0.0
H859 H 0.16647 0.89146 0.92519 0.0
C860 C 0.21143 0.98125 0.8507 0.0
C861 C 0.16518 0.94136 0.84481 0.0
C862 C 0.2233 -0.0016 0.87346 0.0
C863 C 0.18987 0.97594 0.89152 0.0
C864 C 0.14374 0.93589 0.88574 0.0
H865 H 0.21186 0.00768 1.04232 0.0
H866 H 0.19012 0.98097 1.00287 0.0
C867 C 0.13153 0.91921 0.8629 0.0
C868 C 0.20311 -0.00564 0.91612 0.0
H869 H 0.22866 0.96479 0.96891 0.0
C870 C 0.20871 0.03986 0.9224 0.0
C871 C 0.21026 0.96731 0.93353 0.0
C872 C 0.2055 0.9186 0.92824 0.0
C873 C 0.22009 0.05821 0.94514 0.0
C874 C 0.22853 0.03171 0.96255 0.0
C875 C 0.22278 0.98606 0.95614 0.0
C876 C 0.24217 0.04968 0.98737 0.0
C877 C 0.22071 0.10512 0.95032 0.0
C878 C 0.27925 0.09771 0.99295 0.0
C879 C 0.29144 0.11354 1.01593 0.0
C880 C 0.26802 0.08175 1.03447 0.0
C881 C 0.23144 0.03366 1.02888 0.0
C882 C 0.21882 0.0181 1.00598 0.0
H883 H 0.19783 0.11171 0.93804 0.0
H884 H 0.2072 0.10489 0.96779 0.0
H885 H 0.25867 0.13603 0.94881 0.0
H886 H 0.29965 0.12323 0.97951 0.0
H887 H 0.31987 0.15074 1.01913 0.0
loop_
_geom_bond_atom_site_label_1
_geom_bond_atom_site_label_2
_geom_bond_distance
_geom_bond_site_symmetry_2
_ccdc_geom_bond_type
Ho0 C3 2.811 . S
Ho0 O20 2.322 . S
Ho0 O22 2.378 . S
Ho0 O23 2.524 . S
Ho0 O24 2.381 . S
Ho0 O25 2.669 1_554 S
Ho0 O27 2.346 1_554 S
Ho0 O31 2.305 . S
Ho1 C12 2.811 . S
Ho1 O21 2.346 1_556 S
Ho1 O25 2.305 . S
Ho1 O26 2.322 . S
Ho1 O28 2.378 . S
Ho1 O29 2.524 . S
Ho1 O30 2.381 . S
Ho1 O31 2.669 1_556 S
C2 O20 1.259 . S
C2 O21 1.268 . S
C3 Ho0 2.811 . S
C3 C4 1.488 . S
C3 O22 1.215 . S
C3 O23 1.289 . S
C4 C3 1.488 . S
C4 C5 1.348 . S
C4 C9 1.413 . S
C5 C4 1.348 . S
C5 C6 1.442 . S
C5 H32 0.930 . S
C6 C5 1.442 . S
C6 C7 1.381 . S
C6 H33 0.931 . S
C7 C6 1.381 . S
C7 C8 1.321 . S
C8 C7 1.321 . S
C8 C9 1.403 . S
C8 H34 0.934 1_545 S
C9 C4 1.413 . S
C9 C8 1.403 . S
C9 H35 0.930 . S
C10 O24 1.275 . S
C10 O25 1.256 1_554 S
C11 O26 1.259 . S
C11 O27 1.268 . S
C12 Ho1 2.811 . S
C12 C13 1.488 . S
C12 O28 1.215 . S
C12 O29 1.289 . S
C13 C12 1.488 . S
C13 C14 1.348 . S
C13 C18 1.413 . S
C14 C13 1.348 . S
C14 C15 1.442 . S
C14 H36 0.930 . S
C15 C14 1.442 . S
C15 C16 1.381 . S
C15 H37 0.931 . S
C16 C15 1.381 . S
C16 C17 1.321 . S
C17 C16 1.321 . S
C17 C18 1.403 . S
C17 H38 0.934 . S
C18 C13 1.413 . S
C18 C17 1.403 . S
C18 H39 0.930 . S
C19 O30 1.275 1_554 S
C19 O31 1.256 . S
O20 Ho0 2.322 . S
O20 C2 1.259 . S
O21 Ho1 2.346 1_554 S
O21 C2 1.268 . S
O22 Ho0 2.378 . S
O22 C3 1.215 . S
O23 Ho0 2.524 . S
O23 C3 1.289 . S
O24 Ho0 2.381 . S
O24 C10 1.275 . S
O25 Ho0 2.669 1_556 S
O25 Ho1 2.305 . S
O25 C10 1.256 1_556 S
O26 Ho1 2.322 . S
O26 C11 1.259 . S
O27 Ho0 2.346 1_556 S
O27 C11 1.268 . S
O28 Ho1 2.378 . S
O28 C12 1.215 . S
O29 Ho1 2.524 . S
O29 C12 1.289 . S
O30 Ho1 2.381 . S
O30 C19 1.275 1_556 S
O31 Ho0 2.305 . S
O31 Ho1 2.669 1_554 S
O31 C19 1.256 . S
H32 C5 0.930 . S
H33 C6 0.931 . S
H34 C8 0.934 1_565 S
H35 C9 0.930 . S
H36 C14 0.930 . S
H37 C15 0.931 . S
H38 C17 0.934 . S
H39 C18 0.930 . S
Ho40 C43 2.811 . S
Ho40 O60 2.322 . S
Ho40 O62 2.378 . S
Ho40 O63 2.524 . S
Ho40 O64 2.381 . S
Ho40 O65 2.669 . S
Ho40 O67 2.346 . S
Ho40 O71 2.305 . S
Ho41 C52 2.811 . S
Ho41 O61 2.346 . S
Ho41 O65 2.305 . S
Ho41 O66 2.322 . S
Ho41 O68 2.378 . S
Ho41 O69 2.524 . S
Ho41 O70 2.381 . S
Ho41 O71 2.669 . S
C42 O60 1.259 . S
C42 O61 1.268 . S
C43 Ho40 2.811 . S
C43 C44 1.488 . S
C43 O62 1.215 . S
C43 O63 1.289 . S
C44 C43 1.488 . S
C44 C45 1.348 . S
C44 C49 1.413 . S
C45 C44 1.348 . S
C45 C46 1.442 . S
C45 H72 0.930 . S
C46 C45 1.442 . S
C46 C47 1.381 . S
C46 H73 0.931 . S
C47 C46 1.381 . S
C47 C48 1.321 . S
C48 C47 1.321 . S
C48 C49 1.403 . S
C48 H74 0.934 . S
C49 C44 1.413 . S
C49 C48 1.403 . S
C49 H75 0.930 . S
C50 O64 1.275 . S
C50 O65 1.256 . S
C51 O66 1.259 . S
C51 O67 1.268 . S
C52 Ho41 2.811 . S
C52 C53 1.488 . S
C52 O68 1.215 . S
C52 O69 1.289 . S
C53 C52 1.488 . S
C53 C54 1.348 . S
C53 C58 1.413 . S
C54 C53 1.348 . S
C54 C55 1.442 . S
C54 H76 0.930 . S
C55 C54 1.442 . S
C55 C56 1.381 . S
C55 H77 0.931 . S
C56 C55 1.381 . S
C56 C57 1.321 . S
C57 C56 1.321 . S
C57 C58 1.403 . S
C57 H78 0.934 . S
C58 C53 1.413 . S
C58 C57 1.403 . S
C58 H79 0.930 . S
C59 O70 1.275 . S
C59 O71 1.256 . S
O60 Ho40 2.322 . S
O60 C42 1.259 . S
O61 Ho41 2.346 . S
O61 C42 1.268 . S
O62 Ho40 2.378 . S
O62 C43 1.215 . S
O63 Ho40 2.524 . S
O63 C43 1.289 . S
O64 Ho40 2.381 . S
O64 C50 1.275 . S
O65 Ho40 2.669 . S
O65 Ho41 2.305 . S
O65 C50 1.256 . S
O66 Ho41 2.322 . S
O66 C51 1.259 . S
O67 Ho40 2.346 . S
O67 C51 1.268 . S
O68 Ho41 2.378 . S
O68 C52 1.215 . S
O69 Ho41 2.524 . S
O69 C52 1.289 . S
O70 Ho41 2.381 . S
O70 C59 1.275 . S
O71 Ho40 2.305 . S
O71 Ho41 2.669 . S
O71 C59 1.256 . S
H72 C45 0.930 . S
H73 C46 0.931 . S
H74 C48 0.934 . S
H75 C49 0.930 . S
H76 C54 0.930 . S
H77 C55 0.931 . S
H78 C57 0.934 . S
H79 C58 0.930 . S
Ho80 C83 2.811 . S
Ho80 O100 2.322 1_455 S
Ho80 O102 2.378 . S
Ho80 O103 2.524 . S
Ho80 O104 2.381 . S
Ho80 O105 2.669 1_455 S
Ho80 O107 2.346 . S
Ho80 O111 2.305 . S
Ho81 C92 2.811 . S
Ho81 O101 2.346 . S
Ho81 O105 2.305 . S
Ho81 O106 2.322 1_655 S
Ho81 O108 2.378 . S
Ho81 O109 2.524 . S
Ho81 O110 2.381 . S
Ho81 O111 2.669 1_655 S
C82 O100 1.259 . S
C82 O101 1.268 . S
C83 Ho80 2.811 . S
C83 C84 1.488 . S
C83 O102 1.215 . S
C83 O103 1.289 . S
C84 C83 1.488 . S
C84 C85 1.348 . S
C84 C89 1.413 . S
C85 C84 1.348 . S
C85 C86 1.442 . S
C85 H112 0.930 . S
C86 C85 1.442 . S
C86 C87 1.381 . S
C86 H113 0.931 . S
C87 C86 1.381 . S
C87 C88 1.321 . S
C88 C87 1.321 . S
C88 C89 1.403 . S
C88 H114 0.934 . S
C89 C84 1.413 . S
C89 C88 1.403 . S
C89 H115 0.930 . S
C90 O104 1.275 . S
C90 O105 1.256 1_455 S
C91 O106 1.259 . S
C91 O107 1.268 . S
C92 Ho81 2.811 . S
C92 C93 1.488 . S
C92 O108 1.215 . S
C92 O109 1.289 . S
C93 C92 1.488 . S
C93 C94 1.348 . S
C93 C98 1.413 . S
C94 C93 1.348 . S
C94 C95 1.442 . S
C94 H116 0.930 . S
C95 C94 1.442 . S
C95 C96 1.381 . S
C95 H117 0.931 . S
C96 C95 1.381 . S
C96 C97 1.321 . S
C97 C96 1.321 . S
C97 C98 1.403 . S
C97 H118 0.934 . S
C98 C93 1.413 . S
C98 C97 1.403 . S
C98 H119 0.930 . S
C99 O110 1.275 . S
C99 O111 1.256 1_655 S
O100 Ho80 2.322 1_655 S
O100 C82 1.259 . S
O101 Ho81 2.346 . S
O101 C82 1.268 . S
O102 Ho80 2.378 . S
O102 C83 1.215 . S
O103 Ho80 2.524 . S
O103 C83 1.289 . S
O104 Ho80 2.381 . S
O104 C90 1.275 . S
O105 Ho80 2.669 1_655 S
O105 Ho81 2.305 . S
O105 C90 1.256 1_655 S
O106 Ho81 2.322 1_455 S
O106 C91 1.259 . S
O107 Ho80 2.346 . S
O107 C91 1.268 . S
O108 Ho81 2.378 . S
O108 C92 1.215 . S
O109 Ho81 2.524 . S
O109 C92 1.289 . S
O110 Ho81 2.381 . S
O110 C99 1.275 . S
O111 Ho80 2.305 . S
O111 Ho81 2.669 1_455 S
O111 C99 1.256 1_455 S
H112 C85 0.930 . S
H113 C86 0.931 . S
H114 C88 0.934 . S
H115 C89 0.930 . S
H116 C94 0.930 . S
H117 C95 0.931 . S
H118 C97 0.934 . S
H119 C98 0.930 . S
Ho120 C123 2.811 . S
Ho120 O140 2.322 1_545 S
Ho120 O142 2.378 . S
Ho120 O143 2.524 . S
Ho120 O144 2.381 . S
Ho120 O145 2.669 1_544 S
Ho120 O147 2.346 1_554 S
Ho120 O151 2.305 . S
Ho121 C132 2.811 . S
Ho121 O141 2.346 1_556 S
Ho121 O145 2.305 . S
Ho121 O146 2.322 1_565 S
Ho121 O148 2.378 . S
Ho121 O149 2.524 . S
Ho121 O150 2.381 . S
Ho121 O151 2.669 1_566 S
C122 O140 1.259 . S
C122 O141 1.268 . S
C123 Ho120 2.811 . S
C123 C124 1.488 . S
C123 O142 1.215 . S
C123 O143 1.289 . S
C124 C123 1.488 . S
C124 C125 1.348 . S
C124 C129 1.413 . S
C125 C124 1.348 . S
C125 C126 1.442 . S
C125 H152 0.930 . S
C126 C125 1.442 . S
C126 C127 1.381 . S
C126 H153 0.931 . S
C127 C126 1.381 . S
C127 C128 1.321 . S
C128 C127 1.321 . S
C128 C129 1.403 . S
C128 H154 0.934 . S
C129 C124 1.413 . S
C129 C128 1.403 . S
C129 H155 0.930 . S
C130 O144 1.275 . S
C130 O145 1.256 1_544 S
C131 O146 1.259 . S
C131 O147 1.268 . S
C132 Ho121 2.811 . S
C132 C133 1.488 . S
C132 O148 1.215 . S
C132 O149 1.289 . S
C133 C132 1.488 . S
C133 C134 1.348 . S
C133 C138 1.413 . S
C134 C133 1.348 . S
C134 C135 1.442 . S
C134 H156 0.930 . S
C135 C134 1.442 . S
C135 C136 1.381 . S
C135 H157 0.931 . S
C136 C135 1.381 . S
C136 C137 1.321 . S
C137 C136 1.321 . S
C137 C138 1.403 . S
C137 H158 0.934 . S
C138 C133 1.413 . S
C138 C137 1.403 . S
C138 H159 0.930 . S
C139 O150 1.275 1_554 S
C139 O151 1.256 1_565 S
O140 Ho120 2.322 1_565 S
O140 C122 1.259 . S
O141 Ho121 2.346 1_554 S
O141 C122 1.268 . S
O142 Ho120 2.378 . S
O142 C123 1.215 . S
O143 Ho120 2.524 . S
O143 C123 1.289 . S
O144 Ho120 2.381 . S
O144 C130 1.275 . S
O145 Ho120 2.669 1_566 S
O145 Ho121 2.305 . S
O145 C130 1.256 1_566 S
O146 Ho121 2.322 1_545 S
O146 C131 1.259 . S
O147 Ho120 2.346 1_556 S
O147 C131 1.268 . S
O148 Ho121 2.378 . S
O148 C132 1.215 . S
O149 Ho121 2.524 . S
O149 C132 1.289 . S
O150 Ho121 2.381 . S
O150 C139 1.275 1_556 S
O151 Ho120 2.305 . S
O151 Ho121 2.669 1_544 S
O151 C139 1.256 1_545 S
H152 C125 0.930 . S
H153 C126 0.931 . S
H154 C128 0.934 . S
H155 C129 0.930 . S
H156 C134 0.930 . S
H157 C135 0.931 . S
H158 C137 0.934 . S
H159 C138 0.930 . S
Ho160 C163 2.811 . S
Ho160 O180 2.322 . S
Ho160 O182 2.378 . S
Ho160 O183 2.524 . S
Ho160 O184 2.381 . S
Ho160 O185 2.669 . S
Ho160 O187 2.346 . S
Ho160 O191 2.305 . S
Ho161 C172 2.811 . S
Ho161 O181 2.346 . S
Ho161 O185 2.305 . S
Ho161 O186 2.322 . S
Ho161 O188 2.378 . S
Ho161 O189 2.524 . S
Ho161 O190 2.381 . S
Ho161 O191 2.669 . S
C162 O180 1.259 . S
C162 O181 1.268 . S
C163 Ho160 2.811 . S
C163 C164 1.488 . S
C163 O182 1.215 . S
C163 O183 1.289 . S
C164 C163 1.488 . S
C164 C165 1.348 . S
C164 C169 1.413 . S
C165 C164 1.348 . S
C165 C166 1.442 . S
C165 H192 0.930 . S
C166 C165 1.442 . S
C166 C167 1.381 . S
C166 H193 0.931 . S
C167 C166 1.381 . S
C167 C168 1.321 . S
C168 C167 1.321 . S
C168 C169 1.403 . S
C168 H194 0.934 . S
C169 C164 1.413 . S
C169 C168 1.403 . S
C169 H195 0.930 . S
C170 O184 1.275 . S
C170 O185 1.256 . S
C171 O186 1.259 . S
C171 O187 1.268 . S
C172 Ho161 2.811 . S
C172 C173 1.488 . S
C172 O188 1.215 . S
C172 O189 1.289 . S
C173 C172 1.488 . S
C173 C174 1.348 1_655 S
C173 C178 1.413 . S
C174 C173 1.348 1_455 S
C174 C175 1.442 . S
C174 H196 0.930 . S
C175 C174 1.442 . S
C175 C176 1.381 1_455 S
C175 H197 0.931 . S
C176 C175 1.381 1_655 S
C176 C177 1.321 . S
C177 C176 1.321 . S
C177 C178 1.403 . S
C177 H198 0.934 . S
C178 C173 1.413 . S
C178 C177 1.403 . S
C178 H199 0.930 . S
C179 O190 1.275 . S
C179 O191 1.256 . S
O180 Ho160 2.322 . S
O180 C162 1.259 . S
O181 Ho161 2.346 . S
O181 C162 1.268 . S
O182 Ho160 2.378 . S
O182 C163 1.215 . S
O183 Ho160 2.524 . S
O183 C163 1.289 . S
O184 Ho160 2.381 . S
O184 C170 1.275 . S
O185 Ho160 2.669 . S
O185 Ho161 2.305 . S
O185 C170 1.256 . S
O186 Ho161 2.322 . S
O186 C171 1.259 . S
O187 Ho160 2.346 . S
O187 C171 1.268 . S
O188 Ho161 2.378 . S
O188 C172 1.215 . S
O189 Ho161 2.524 . S
O189 C172 1.289 . S
O190 Ho161 2.381 . S
O190 C179 1.275 . S
O191 Ho160 2.305 . S
O191 Ho161 2.669 . S
O191 C179 1.256 . S
H192 C165 0.930 . S
H193 C166 0.931 . S
H194 C168 0.934 . S
H195 C169 0.930 . S
H196 C174 0.930 . S
H197 C175 0.931 . S
H198 C177 0.934 . S
H199 C178 0.930 . S
Ho200 C203 2.811 . S
Ho200 O220 2.322 . S
Ho200 O222 2.378 . S
Ho200 O223 2.524 . S
Ho200 O224 2.381 . S
Ho200 O225 2.669 . S
Ho200 O227 2.346 . S
Ho200 O231 2.305 . S
Ho201 C212 2.811 . S
Ho201 O221 2.346 . S
Ho201 O225 2.305 . S
Ho201 O226 2.322 . S
Ho201 O228 2.378 . S
Ho201 O229 2.524 . S
Ho201 O230 2.381 . S
Ho201 O231 2.669 . S
C202 O220 1.259 . S
C202 O221 1.268 . S
C203 Ho200 2.811 . S
C203 C204 1.488 . S
C203 O222 1.215 . S
C203 O223 1.289 . S
C204 C203 1.488 . S
C204 C205 1.348 . S
C204 C209 1.413 . S
C205 C204 1.348 . S
C205 C206 1.442 . S
C205 H232 0.930 . S
C206 C205 1.442 . S
C206 C207 1.381 . S
C206 H233 0.931 . S
C207 C206 1.381 . S
C207 C208 1.321 . S
C208 C207 1.321 . S
C208 C209 1.403 . S
C208 H234 0.934 1_455 S
C209 C204 1.413 . S
C209 C208 1.403 . S
C209 H235 0.930 . S
C210 O224 1.275 . S
C210 O225 1.256 . S
C211 O226 1.259 . S
C211 O227 1.268 . S
C212 Ho201 2.811 . S
C212 C213 1.488 . S
C212 O228 1.215 . S
C212 O229 1.289 . S
C213 C212 1.488 . S
C213 C214 1.348 1_565 S
C213 C218 1.413 . S
C214 C213 1.348 1_545 S
C214 C215 1.442 . S
C214 H236 0.930 . S
C215 C214 1.442 . S
C215 C216 1.381 1_545 S
C215 H237 0.931 . S
C216 C215 1.381 1_565 S
C216 C217 1.321 . S
C217 C216 1.321 . S
C217 C218 1.403 . S
C217 H238 0.934 . S
C218 C213 1.413 . S
C218 C217 1.403 . S
C218 H239 0.930 . S
C219 O230 1.275 . S
C219 O231 1.256 . S
O220 Ho200 2.322 . S
O220 C202 1.259 . S
O221 Ho201 2.346 . S
O221 C202 1.268 . S
O222 Ho200 2.378 . S
O222 C203 1.215 . S
O223 Ho200 2.524 . S
O223 C203 1.289 . S
O224 Ho200 2.381 . S
O224 C210 1.275 . S
O225 Ho200 2.669 . S
O225 Ho201 2.305 . S
O225 C210 1.256 . S
O226 Ho201 2.322 . S
O226 C211 1.259 . S
O227 Ho200 2.346 . S
O227 C211 1.268 . S
O228 Ho201 2.378 . S
O228 C212 1.215 . S
O229 Ho201 2.524 . S
O229 C212 1.289 . S
O230 Ho201 2.381 . S
O230 C219 1.275 . S
O231 Ho200 2.305 . S
O231 Ho201 2.669 . S
O231 C219 1.256 . S
H232 C205 0.930 . S
H233 C206 0.931 . S
H234 C208 0.934 1_655 S
H235 C209 0.930 . S
H236 C214 0.930 . S
H237 C215 0.931 . S
H238 C217 0.934 . S
H239 C218 0.930 . S
H240 C248 0.929 . S
H241 C250 0.930 . S
H242 C252 0.930 . S
H243 C255 0.929 . S
H244 C258 0.930 . S
H245 C260 0.960 . S
H246 C260 0.960 . S
H247 C260 0.960 1_565 S
C248 H240 0.929 . S
C248 C249 1.373 1_546 S
C248 C250 1.384 . S
C249 C248 1.373 1_564 S
C249 C255 1.394 . S
C250 H241 0.930 . S
C250 C248 1.384 . S
C250 C251 1.369 1_556 S
C251 C250 1.369 1_554 S
C251 C252 1.403 1_545 S
C251 C256 1.491 1_655 S
C252 H242 0.930 . S
C252 C251 1.403 1_565 S
C252 C255 1.386 . S
H253 C269 0.930 . S
H254 C270 0.931 . S
C255 H243 0.929 . S
C255 C249 1.394 . S
C255 C252 1.386 . S
C256 C251 1.491 1_455 S
C256 C258 1.395 . S
C256 C259 1.403 1_554 S
H257 C263 0.930 . S
C258 H244 0.930 . S
C258 C256 1.395 . S
C258 C261 1.403 . S
C259 C256 1.403 1_556 S
C259 C260 1.524 . S
C259 C263 1.400 . S
C260 H245 0.960 . S
C260 H246 0.960 . S
C260 H247 0.960 1_545 S
C260 C259 1.524 . S
C261 C258 1.403 . S
C261 C262 1.392 . S
C261 C265 1.495 . S
C262 C261 1.392 . S
C262 C263 1.385 1_554 S
C262 C264 1.478 . S
C263 H257 0.930 . S
C263 C259 1.400 . S
C263 C262 1.385 1_556 S
C264 C262 1.478 . S
C264 C266 1.381 1_554 S
C264 C270 1.383 . S
C265 C261 1.495 . S
C265 H271 0.959 . S
C265 H272 0.961 . S
C265 H273 0.960 . S
C266 C264 1.381 1_556 S
C266 C267 1.394 . S
C266 H274 0.930 . S
C267 C266 1.394 . S
C267 C268 1.383 1_556 S
C267 H275 0.929 . S
C268 C267 1.383 1_554 S
C268 C269 1.377 . S
C269 H253 0.930 . S
C269 C268 1.377 . S
C269 C270 1.379 . S
C270 H254 0.931 . S
C270 C264 1.383 . S
C270 C269 1.379 . S
H271 C265 0.959 . S
H272 C265 0.961 . S
H273 C265 0.960 . S
H274 C266 0.930 . S
H275 C267 0.929 . S
H276 C284 0.929 . S
H277 C286 0.930 . S
H278 C288 0.930 . S
H279 C291 0.929 . S
H280 C294 0.930 . S
H281 C296 0.960 . S
H282 C296 0.960 . S
H283 C296 0.960 . S
C284 H276 0.929 . S
C284 C285 1.377 1_455 S
C284 C286 1.384 . S
C285 C284 1.377 1_655 S
C285 C291 1.390 . S
C286 H277 0.930 . S
C286 C284 1.384 . S
C286 C287 1.372 . S
C287 C286 1.372 . S
C287 C288 1.400 1_455 S
C287 C292 1.490 1_565 S
C288 H278 0.930 . S
C288 C287 1.400 1_655 S
C288 C291 1.386 . S
H289 C305 0.930 . S
H290 C306 0.931 . S
C291 H279 0.929 . S
C291 C285 1.390 . S
C291 C288 1.386 . S
C292 C287 1.490 1_545 S
C292 C294 1.395 . S
C292 C295 1.403 . S
H293 C299 0.930 . S
C294 H280 0.930 . S
C294 C292 1.395 . S
C294 C297 1.403 . S
C295 C292 1.403 . S
C295 C296 1.524 . S
C295 C299 1.400 . S
C296 H281 0.960 . S
C296 H282 0.960 . S
C296 H283 0.960 . S
C296 C295 1.524 . S
C297 C294 1.403 . S
C297 C298 1.392 . S
C297 C301 1.495 . S
C298 C297 1.392 . S
C298 C299 1.385 . S
C298 C300 1.478 . S
C299 H293 0.930 . S
C299 C295 1.400 . S
C299 C298 1.385 . S
C300 C298 1.478 . S
C300 C302 1.381 . S
C300 C306 1.383 . S
C301 C297 1.495 . S
C301 H307 0.959 . S
C301 H308 0.961 . S
C301 H309 0.960 . S
C302 C300 1.381 . S
C302 C303 1.394 . S
C302 H310 0.930 . S
C303 C302 1.394 . S
C303 C304 1.383 . S
C303 H311 0.929 . S
C304 C303 1.383 . S
C304 C305 1.377 . S
C305 H289 0.930 . S
C305 C304 1.377 . S
C305 C306 1.379 . S
C306 H290 0.931 . S
C306 C300 1.383 . S
C306 C305 1.379 . S
H307 C301 0.959 . S
H308 C301 0.961 . S
H309 C301 0.960 . S
H310 C302 0.930 . S
H311 C303 0.929 . S
H312 C320 0.929 . S
H313 C322 0.930 . S
H314 C324 0.930 . S
H315 C327 0.929 . S
H316 C330 0.930 1_565 S
H317 C332 0.960 . S
H318 C332 0.960 . S
H319 C332 0.960 . S
C320 H312 0.929 . S
C320 C321 1.377 . S
C320 C322 1.384 1_565 S
C321 C320 1.377 . S
C321 C327 1.390 . S
C322 H313 0.930 . S
C322 C320 1.384 1_545 S
C322 C323 1.372 . S
C323 C322 1.372 . S
C323 C324 1.400 . S
C323 C328 1.490 . S
C324 H314 0.930 . S
C324 C323 1.400 . S
C324 C327 1.386 1_545 S
H325 C341 0.930 . S
H326 C342 0.931 . S
C327 H315 0.929 . S
C327 C321 1.390 . S
C327 C324 1.386 1_565 S
C328 C323 1.490 . S
C328 C330 1.395 . S
C328 C331 1.403 . S
H329 C335 0.930 . S
C330 H316 0.930 1_545 S
C330 C328 1.395 . S
C330 C333 1.403 . S
C331 C328 1.403 . S
C331 C332 1.524 . S
C331 C335 1.400 . S
C332 H317 0.960 . S
C332 H318 0.960 . S
C332 H319 0.960 . S
C332 C331 1.524 . S
C333 C330 1.403 . S
C333 C334 1.392 . S
C333 C337 1.495 1_455 S
C334 C333 1.392 . S
C334 C335 1.385 . S
C334 C336 1.478 . S
C335 H329 0.930 . S
C335 C331 1.400 . S
C335 C334 1.385 . S
C336 C334 1.478 . S
C336 C338 1.381 . S
C336 C342 1.383 . S
C337 C333 1.495 1_655 S
C337 H343 0.959 1_545 S
C337 H344 0.961 . S
C337 H345 0.960 . S
C338 C336 1.381 . S
C338 C339 1.394 1_455 S
C338 H346 0.930 . S
C339 C338 1.394 1_655 S
C339 C340 1.383 . S
C339 H347 0.929 . S
C340 C339 1.383 . S
C340 C341 1.377 . S
C341 H325 0.930 . S
C341 C340 1.377 . S
C341 C342 1.379 1_655 S
C342 H326 0.931 . S
C342 C336 1.383 . S
C342 C341 1.379 1_455 S
H343 C337 0.959 1_565 S
H344 C337 0.961 . S
H345 C337 0.960 . S
H346 C338 0.930 . S
H347 C339 0.929 . S
H348 C356 0.929 . S
H349 C358 0.930 . S
H350 C360 0.930 . S
H351 C363 0.929 . S
H352 C366 0.930 . S
H353 C368 0.960 . S
H354 C368 0.960 . S
H355 C368 0.960 . S
C356 H348 0.929 . S
C356 C357 1.377 . S
C356 C358 1.384 . S
C357 C356 1.377 . S
C357 C363 1.390 . S
C358 H349 0.930 . S
C358 C356 1.384 . S
C358 C359 1.372 . S
C359 C358 1.372 . S
C359 C360 1.400 . S
C359 C364 1.490 . S
C360 H350 0.930 . S
C360 C359 1.400 . S
C360 C363 1.386 . S
H361 C377 0.930 . S
H362 C378 0.931 . S
C363 H351 0.929 . S
C363 C357 1.390 . S
C363 C360 1.386 . S
C364 C359 1.490 . S
C364 C366 1.395 . S
C364 C367 1.403 . S
H365 C371 0.930 . S
C366 H352 0.930 . S
C366 C364 1.395 . S
C366 C369 1.403 . S
C367 C364 1.403 . S
C367 C368 1.524 . S
C367 C371 1.400 . S
C368 H353 0.960 . S
C368 H354 0.960 . S
C368 H355 0.960 . S
C368 C367 1.524 . S
C369 C366 1.403 . S
C369 C370 1.392 . S
C369 C373 1.495 . S
C370 C369 1.392 . S
C370 C371 1.385 . S
C370 C372 1.478 . S
C371 H365 0.930 . S
C371 C367 1.400 . S
C371 C370 1.385 . S
C372 C370 1.478 . S
C372 C374 1.381 . S
C372 C378 1.383 . S
C373 C369 1.495 . S
C373 H379 0.959 . S
C373 H380 0.961 . S
C373 H381 0.960 . S
C374 C372 1.381 . S
C374 C375 1.394 . S
C374 H382 0.930 . S
C375 C374 1.394 . S
C375 C376 1.383 . S
C375 H383 0.929 . S
C376 C375 1.383 . S
C376 C377 1.377 . S
C377 H361 0.930 . S
C377 C376 1.377 . S
C377 C378 1.379 . S
C378 H362 0.931 . S
C378 C372 1.383 . S
C378 C377 1.379 . S
H379 C373 0.959 . S
H380 C373 0.961 . S
H381 C373 0.960 . S
H382 C374 0.930 . S
H383 C375 0.929 . S
H384 C392 0.929 . S
H385 C394 0.930 . S
H386 C396 0.930 . S
H387 C399 0.929 . S
H388 C402 0.930 . S
H389 C404 0.960 1_655 S
H390 C404 0.960 . S
H391 C404 0.960 . S
C392 H384 0.929 . S
C392 C393 1.377 . S
C392 C394 1.384 . S
C393 C392 1.377 . S
C393 C399 1.390 . S
C394 H385 0.930 . S
C394 C392 1.384 . S
C394 C395 1.372 . S
C395 C394 1.372 . S
C395 C396 1.400 . S
C395 C400 1.490 . S
C396 H386 0.930 . S
C396 C395 1.400 . S
C396 C399 1.386 . S
H397 C413 0.930 . S
H398 C414 0.931 . S
C399 H387 0.929 . S
C399 C393 1.390 . S
C399 C396 1.386 . S
C400 C395 1.490 . S
C400 C402 1.395 . S
C400 C403 1.403 . S
H401 C407 0.930 . S
C402 H388 0.930 . S
C402 C400 1.395 . S
C402 C405 1.403 . S
C403 C400 1.403 . S
C403 C404 1.524 . S
C403 C407 1.400 1_455 S
C404 H389 0.960 1_455 S
C404 H390 0.960 . S
C404 H391 0.960 . S
C404 C403 1.524 . S
C405 C402 1.403 . S
C405 C406 1.392 1_455 S
C405 C409 1.495 . S
C406 C405 1.392 1_655 S
C406 C407 1.385 . S
C406 C408 1.478 . S
C407 H401 0.930 . S
C407 C403 1.400 1_655 S
C407 C406 1.385 . S
C408 C406 1.478 . S
C408 C410 1.381 . S
C408 C414 1.383 . S
C409 C405 1.495 . S
C409 H415 0.959 . S
C409 H416 0.961 . S
C409 H417 0.960 1_455 S
C410 C408 1.381 . S
C410 C411 1.394 . S
C410 H418 0.930 . S
C411 C410 1.394 . S
C411 C412 1.383 . S
C411 H419 0.929 . S
C412 C411 1.383 . S
C412 C413 1.377 . S
C413 H397 0.930 . S
C413 C412 1.377 . S
C413 C414 1.379 . S
C414 H398 0.931 . S
C414 C408 1.383 . S
C414 C413 1.379 . S
H415 C409 0.959 . S
H416 C409 0.961 . S
H417 C409 0.960 1_655 S
H418 C410 0.930 . S
H419 C411 0.929 . S
H420 C428 0.929 . S
H421 C430 0.930 . S
H422 C432 0.930 . S
H423 C435 0.929 . S
H424 C438 0.930 . S
H425 C440 0.960 . S
H426 C440 0.960 . S
H427 C440 0.960 . S
C428 H420 0.929 . S
C428 C429 1.377 . S
C428 C430 1.384 . S
C429 C428 1.377 . S
C429 C435 1.390 . S
C430 H421 0.930 . S
C430 C428 1.384 . S
C430 C431 1.372 . S
C431 C430 1.372 . S
C431 C432 1.400 . S
C431 C436 1.490 . S
C432 H422 0.930 . S
C432 C431 1.400 . S
C432 C435 1.386 . S
H433 C449 0.930 . S
H434 C450 0.931 . S
C435 H423 0.929 . S
C435 C429 1.390 . S
C435 C432 1.386 . S
C436 C431 1.490 . S
C436 C438 1.395 . S
C436 C439 1.403 . S
H437 C443 0.930 . S
C438 H424 0.930 . S
C438 C436 1.395 . S
C438 C441 1.403 1_545 S
C439 C436 1.403 . S
C439 C440 1.524 . S
C439 C443 1.400 1_545 S
C440 H425 0.960 . S
C440 H426 0.960 . S
C440 H427 0.960 . S
C440 C439 1.524 . S
C441 C438 1.403 1_565 S
C441 C442 1.392 . S
C441 C445 1.495 . S
C442 C441 1.392 . S
C442 C443 1.385 . S
C442 C444 1.478 . S
C443 H437 0.930 . S
C443 C439 1.400 1_565 S
C443 C442 1.385 . S
C444 C442 1.478 . S
C444 C446 1.381 . S
C444 C450 1.383 . S
C445 C441 1.495 . S
C445 H451 0.959 1_565 S
C445 H452 0.961 . S
C445 H453 0.960 . S
C446 C444 1.381 . S
C446 C447 1.394 . S
C446 H454 0.930 . S
C447 C446 1.394 . S
C447 C448 1.383 . S
C447 H455 0.929 . S
C448 C447 1.383 . S
C448 C449 1.377 . S
C449 H433 0.930 . S
C449 C448 1.377 . S
C449 C450 1.379 . S
C450 H434 0.931 . S
C450 C444 1.383 . S
C450 C449 1.379 . S
H451 C445 0.959 1_545 S
H452 C445 0.961 . S
H453 C445 0.960 . S
H454 C446 0.930 . S
H455 C447 0.929 . S
H456 C464 0.929 . S
H457 C466 0.930 . S
H458 C468 0.930 . S
H459 C471 0.929 . S
H460 C474 0.930 . S
H461 C476 0.960 . S
H462 C476 0.960 . S
H463 C476 0.960 . S
C464 H456 0.929 . S
C464 C465 1.377 . S
C464 C466 1.384 . S
C465 C464 1.377 . S
C465 C471 1.390 . S
C466 H457 0.930 . S
C466 C464 1.384 . S
C466 C467 1.372 . S
C467 C466 1.372 . S
C467 C468 1.400 . S
C467 C472 1.490 . S
C468 H458 0.930 . S
C468 C467 1.400 . S
C468 C471 1.386 . S
H469 C485 0.930 . S
H470 C486 0.931 . S
C471 H459 0.929 . S
C471 C465 1.390 . S
C471 C468 1.386 . S
C472 C467 1.490 . S
C472 C474 1.395 . S
C472 C475 1.403 . S
H473 C479 0.930 . S
C474 H460 0.930 . S
C474 C472 1.395 . S
C474 C477 1.403 . S
C475 C472 1.403 . S
C475 C476 1.524 . S
C475 C479 1.400 . S
C476 H461 0.960 . S
C476 H462 0.960 . S
C476 H463 0.960 . S
C476 C475 1.524 . S
C477 C474 1.403 . S
C477 C478 1.392 . S
C477 C481 1.495 . S
C478 C477 1.392 . S
C478 C479 1.385 . S
C478 C480 1.478 . S
C479 H473 0.930 . S
C479 C475 1.400 . S
C479 C478 1.385 . S
C480 C478 1.478 . S
C480 C482 1.381 . S
C480 C486 1.383 . S
C481 C477 1.495 . S
C481 H487 0.959 . S
C481 H488 0.961 . S
C481 H489 0.960 . S
C482 C480 1.381 . S
C482 C483 1.394 1_655 S
C482 H490 0.930 . S
C483 C482 1.394 1_455 S
C483 C484 1.383 . S
C483 H491 0.929 . S
C484 C483 1.383 . S
C484 C485 1.377 1_455 S
C485 H469 0.930 . S
C485 C484 1.377 1_655 S
C485 C486 1.379 . S
C486 H470 0.931 . S
C486 C480 1.383 . S
C486 C485 1.379 . S
H487 C481 0.959 . S
H488 C481 0.961 . S
H489 C481 0.960 . S
H490 C482 0.930 . S
H491 C483 0.929 . S
H492 C500 0.929 1_655 S
H493 C502 0.930 . S
H494 C504 0.930 . S
H495 C507 0.929 . S
H496 C510 0.930 . S
H497 C512 0.960 . S
H498 C512 0.960 . S
H499 C512 0.960 . S
C500 H492 0.929 1_455 S
C500 C501 1.377 1_455 S
C500 C502 1.384 . S
C501 C500 1.377 1_655 S
C501 C507 1.390 1_655 S
C502 H493 0.930 . S
C502 C500 1.384 . S
C502 C503 1.372 . S
C503 C502 1.372 . S
C503 C504 1.400 . S
C503 C508 1.490 . S
C504 H494 0.930 . S
C504 C503 1.400 . S
C504 C507 1.386 . S
H505 C521 0.930 . S
H506 C522 0.931 . S
C507 H495 0.929 . S
C507 C501 1.390 1_455 S
C507 C504 1.386 . S
C508 C503 1.490 . S
C508 C510 1.395 . S
C508 C511 1.403 . S
H509 C515 0.930 . S
C510 H496 0.930 . S
C510 C508 1.395 . S
C510 C513 1.403 . S
C511 C508 1.403 . S
C511 C512 1.524 . S
C511 C515 1.400 . S
C512 H497 0.960 . S
C512 H498 0.960 . S
C512 H499 0.960 . S
C512 C511 1.524 . S
C513 C510 1.403 . S
C513 C514 1.392 . S
C513 C517 1.495 . S
C514 C513 1.392 . S
C514 C515 1.385 . S
C514 C516 1.478 . S
C515 H509 0.930 . S
C515 C511 1.400 . S
C515 C514 1.385 . S
C516 C514 1.478 . S
C516 C518 1.381 1_565 S
C516 C522 1.383 . S
C517 C513 1.495 . S
C517 H523 0.959 . S
C517 H524 0.961 . S
C517 H525 0.960 1_565 S
C518 C516 1.381 1_545 S
C518 C519 1.394 . S
C518 H526 0.930 . S
C519 C518 1.394 . S
C519 C520 1.383 . S
C519 H527 0.929 . S
C520 C519 1.383 . S
C520 C521 1.377 1_545 S
C521 H505 0.930 . S
C521 C520 1.377 1_565 S
C521 C522 1.379 . S
C522 H506 0.931 . S
C522 C516 1.383 . S
C522 C521 1.379 . S
H523 C517 0.959 . S
H524 C517 0.961 . S
H525 C517 0.960 1_545 S
H526 C518 0.930 . S
H527 C519 0.929 . S
H528 C536 0.929 . S
H529 C538 0.930 . S
H530 C540 0.930 . S
H531 C543 0.929 . S
H532 C546 0.930 . S
H533 C548 0.960 . S
H534 C548 0.960 . S
H535 C548 0.960 . S
C536 H528 0.929 . S
C536 C537 1.377 . S
C536 C538 1.384 1_565 S
C537 C536 1.377 . S
C537 C543 1.390 1_565 S
C538 H529 0.930 . S
C538 C536 1.384 1_545 S
C538 C539 1.372 . S
C539 C538 1.372 . S
C539 C540 1.400 . S
C539 C544 1.490 . S
C540 H530 0.930 . S
C540 C539 1.400 . S
C540 C543 1.386 . S
H541 C557 0.930 . S
H542 C558 0.931 . S
C543 H531 0.929 . S
C543 C537 1.390 1_545 S
C543 C540 1.386 . S
C544 C539 1.490 . S
C544 C546 1.395 . S
C544 C547 1.403 . S
H545 C551 0.930 . S
C546 H532 0.930 . S
C546 C544 1.395 . S
C546 C549 1.403 . S
C547 C544 1.403 . S
C547 C548 1.524 . S
C547 C551 1.400 . S
C548 H533 0.960 . S
C548 H534 0.960 . S
C548 H535 0.960 . S
C548 C547 1.524 . S
C549 C546 1.403 . S
C549 C550 1.392 . S
C549 C553 1.495 . S
C550 C549 1.392 . S
C550 C551 1.385 . S
C550 C552 1.478 . S
C551 H545 0.930 . S
C551 C547 1.400 . S
C551 C550 1.385 . S
C552 C550 1.478 . S
C552 C554 1.381 . S
C552 C558 1.383 . S
C553 C549 1.495 . S
C553 H559 0.959 . S
C553 H560 0.961 . S
C553 H561 0.960 . S
C554 C552 1.381 . S
C554 C555 1.394 . S
C554 H562 0.930 . S
C555 C554 1.394 . S
C555 C556 1.383 . S
C555 H563 0.929 . S
C556 C555 1.383 . S
C556 C557 1.377 . S
C557 H541 0.930 . S
C557 C556 1.377 . S
C557 C558 1.379 . S
C558 H542 0.931 . S
C558 C552 1.383 . S
C558 C557 1.379 . S
H559 C553 0.959 . S
H560 C553 0.961 . S
H561 C553 0.960 . S
H562 C554 0.930 . S
H563 C555 0.929 . S
H564 C572 0.924 1_556 S
H565 C574 0.930 1_556 S
H566 C576 0.930 . S
H567 C579 0.929 . S
H568 C582 0.930 . S
H569 C584 0.960 . S
H570 C584 0.960 . S
H571 C584 0.960 . S
C572 H564 0.924 1_554 S
C572 C573 1.377 . S
C572 C574 1.384 . S
C573 C572 1.377 . S
C573 C579 1.390 . S
C574 H565 0.930 1_554 S
C574 C572 1.384 . S
C574 C575 1.372 . S
C575 C574 1.372 . S
C575 C576 1.400 . S
C575 C580 1.490 . S
C576 H566 0.930 . S
C576 C575 1.400 . S
C576 C579 1.386 . S
H577 C593 0.930 . S
H578 C594 0.931 . S
C579 H567 0.929 . S
C579 C573 1.390 . S
C579 C576 1.386 . S
C580 C575 1.490 . S
C580 C582 1.395 1_554 S
C580 C583 1.403 . S
H581 C587 0.930 . S
C582 H568 0.930 . S
C582 C580 1.395 1_556 S
C582 C585 1.403 . S
C583 C580 1.403 . S
C583 C584 1.524 . S
C583 C587 1.400 . S
C584 H569 0.960 . S
C584 H570 0.960 . S
C584 H571 0.960 . S
C584 C583 1.524 . S
C585 C582 1.403 . S
C585 C586 1.392 1_556 S
C585 C589 1.495 . S
C586 C585 1.392 1_554 S
C586 C587 1.385 . S
C586 C588 1.478 . S
C587 H581 0.930 . S
C587 C583 1.400 . S
C587 C586 1.385 . S
C588 C586 1.478 . S
C588 C590 1.387 1_545 S
C588 C594 1.383 . S
C589 C585 1.495 . S
C589 H595 0.959 . S
C589 H596 0.961 . S
C589 H597 0.960 . S
C590 C588 1.387 1_565 S
C590 C591 1.398 . S
C590 H598 0.923 1_554 S
C591 C590 1.398 . S
C591 C592 1.383 . S
C591 H599 0.934 . S
C592 C591 1.383 . S
C592 C593 1.377 1_565 S
C593 H577 0.930 . S
C593 C592 1.377 1_545 S
C593 C594 1.379 . S
C594 H578 0.931 . S
C594 C588 1.383 . S
C594 C593 1.379 . S
H595 C589 0.959 . S
H596 C589 0.961 . S
H597 C589 0.960 . S
H598 C590 0.923 1_556 S
H599 C591 0.934 . S
H600 C608 0.929 . S
H601 C610 0.930 . S
H602 C612 0.930 . S
H603 C615 0.929 . S
H604 C618 0.930 . S
H605 C620 0.960 . S
H606 C620 0.960 . S
H607 C620 0.960 . S
C608 H600 0.929 . S
C608 C609 1.377 . S
C608 C610 1.384 . S
C609 C608 1.377 . S
C609 C615 1.390 . S
C610 H601 0.930 . S
C610 C608 1.384 . S
C610 C611 1.372 . S
C611 C610 1.372 . S
C611 C612 1.400 . S
C611 C616 1.490 . S
C612 H602 0.930 . S
C612 C611 1.400 . S
C612 C615 1.386 . S
H613 C629 0.930 . S
H614 C630 0.931 . S
C615 H603 0.929 . S
C615 C609 1.390 . S
C615 C612 1.386 . S
C616 C611 1.490 . S
C616 C618 1.395 . S
C616 C619 1.403 . S
H617 C623 0.930 . S
C618 H604 0.930 . S
C618 C616 1.395 . S
C618 C621 1.403 . S
C619 C616 1.403 . S
C619 C620 1.524 . S
C619 C623 1.400 . S
C620 H605 0.960 . S
C620 H606 0.960 . S
C620 H607 0.960 . S
C620 C619 1.524 . S
C621 C618 1.403 . S
C621 C622 1.392 . S
C621 C625 1.495 . S
C622 C621 1.392 . S
C622 C623 1.385 . S
C622 C624 1.478 . S
C623 H617 0.930 . S
C623 C619 1.400 . S
C623 C622 1.385 . S
C624 C622 1.478 . S
C624 C626 1.381 . S
C624 C630 1.383 . S
C625 C621 1.495 . S
C625 H631 0.959 . S
C625 H632 0.961 . S
C625 H633 0.960 . S
C626 C624 1.381 . S
C626 C627 1.394 . S
C626 H634 0.930 . S
C627 C626 1.394 . S
C627 C628 1.383 . S
C627 H635 0.929 . S
C628 C627 1.383 . S
C628 C629 1.377 . S
C629 H613 0.930 . S
C629 C628 1.377 . S
C629 C630 1.379 . S
C630 H614 0.931 . S
C630 C624 1.383 . S
C630 C629 1.379 . S
H631 C625 0.959 . S
H632 C625 0.961 . S
H633 C625 0.960 . S
H634 C626 0.930 . S
H635 C627 0.929 . S
H636 C644 0.929 . S
H637 C646 0.930 . S
H638 C648 0.930 . S
H639 C651 0.929 . S
H640 C654 0.930 . S
H641 C656 0.960 . S
H642 C656 0.960 1_655 S
H643 C656 0.960 . S
C644 H636 0.929 . S
C644 C645 1.377 . S
C644 C646 1.384 1_655 S
C645 C644 1.377 . S
C645 C651 1.390 1_655 S
C646 H637 0.930 . S
C646 C644 1.384 1_455 S
C646 C647 1.372 . S
C647 C646 1.372 . S
C647 C648 1.400 . S
C647 C652 1.490 . S
C648 H638 0.930 . S
C648 C647 1.400 . S
C648 C651 1.386 . S
H649 C665 0.930 . S
H650 C666 0.931 . S
C651 H639 0.929 . S
C651 C645 1.390 1_455 S
C651 C648 1.386 . S
C652 C647 1.490 . S
C652 C654 1.395 . S
C652 C655 1.403 . S
H653 C659 0.930 . S
C654 H640 0.930 . S
C654 C652 1.395 . S
C654 C657 1.403 . S
C655 C652 1.403 . S
C655 C656 1.524 . S
C655 C659 1.400 . S
C656 H641 0.960 . S
C656 H642 0.960 1_455 S
C656 H643 0.960 . S
C656 C655 1.524 . S
C657 C654 1.403 . S
C657 C658 1.392 . S
C657 C661 1.495 . S
C658 C657 1.392 . S
C658 C659 1.385 . S
C658 C660 1.478 . S
C659 H653 0.930 . S
C659 C655 1.400 . S
C659 C658 1.385 . S
C660 C658 1.478 . S
C660 C662 1.381 . S
C660 C666 1.383 . S
C661 C657 1.495 . S
C661 H667 0.959 . S
C661 H668 0.961 . S
C661 H669 0.960 . S
C662 C660 1.381 . S
C662 C663 1.394 . S
C662 H670 0.930 . S
C663 C662 1.394 . S
C663 C664 1.383 . S
C663 H671 0.929 . S
C664 C663 1.383 . S
C664 C665 1.377 . S
C665 H649 0.930 . S
C665 C664 1.377 . S
C665 C666 1.379 . S
C666 H650 0.931 . S
C666 C660 1.383 . S
C666 C665 1.379 . S
H667 C661 0.959 . S
H668 C661 0.961 . S
H669 C661 0.960 . S
H670 C662 0.930 . S
H671 C663 0.929 . S
H672 C680 0.929 . S
H673 C682 0.930 . S
H674 C684 0.930 . S
H675 C687 0.929 . S
H676 C690 0.930 . S
H677 C692 0.960 . S
H678 C692 0.960 . S
H679 C692 0.960 . S
C680 H672 0.929 . S
C680 C681 1.377 . S
C680 C682 1.384 . S
C681 C680 1.377 . S
C681 C687 1.390 . S
C682 H673 0.930 . S
C682 C680 1.384 . S
C682 C683 1.372 . S
C683 C682 1.372 . S
C683 C684 1.400 . S
C683 C688 1.490 . S
C684 H674 0.930 . S
C684 C683 1.400 . S
C684 C687 1.386 . S
H685 C701 0.930 . S
H686 C702 0.931 . S
C687 H675 0.929 . S
C687 C681 1.390 . S
C687 C684 1.386 . S
C688 C683 1.490 . S
C688 C690 1.395 . S
C688 C691 1.403 . S
H689 C695 0.930 . S
C690 H676 0.930 . S
C690 C688 1.395 . S
C690 C693 1.403 . S
C691 C688 1.403 . S
C691 C692 1.524 . S
C691 C695 1.400 . S
C692 H677 0.960 . S
C692 H678 0.960 . S
C692 H679 0.960 . S
C692 C691 1.524 . S
C693 C690 1.403 . S
C693 C694 1.392 . S
C693 C697 1.495 . S
C694 C693 1.392 . S
C694 C695 1.385 . S
C694 C696 1.478 . S
C695 H689 0.930 . S
C695 C691 1.400 . S
C695 C694 1.385 . S
C696 C694 1.478 . S
C696 C698 1.381 . S
C696 C702 1.383 . S
C697 C693 1.495 . S
C697 H703 0.959 . S
C697 H704 0.961 . S
C697 H705 0.960 . S
C698 C696 1.381 . S
C698 C699 1.394 . S
C698 H706 0.930 . S
C699 C698 1.394 . S
C699 C700 1.383 . S
C699 H707 0.929 . S
C700 C699 1.383 . S
C700 C701 1.377 . S
C701 H685 0.930 . S
C701 C700 1.377 . S
C701 C702 1.379 . S
C702 H686 0.931 . S
C702 C696 1.383 . S
C702 C701 1.379 . S
H703 C697 0.959 . S
H704 C697 0.961 . S
H705 C697 0.960 . S
H706 C698 0.930 . S
H707 C699 0.929 . S
H708 C716 0.929 . S
H709 C718 0.930 . S
H710 C720 0.930 . S
H711 C723 0.929 . S
H712 C726 0.930 . S
H713 C728 0.960 . S
H714 C728 0.960 . S
H715 C728 0.960 . S
C716 H708 0.929 . S
C716 C717 1.377 . S
C716 C718 1.384 . S
C717 C716 1.377 . S
C717 C723 1.390 . S
C718 H709 0.930 . S
C718 C716 1.384 . S
C718 C719 1.372 . S
C719 C718 1.372 . S
C719 C720 1.400 . S
C719 C724 1.490 . S
C720 H710 0.930 . S
C720 C719 1.400 . S
C720 C723 1.386 . S
H721 C737 0.930 . S
H722 C738 0.931 . S
C723 H711 0.929 . S
C723 C717 1.390 . S
C723 C720 1.386 . S
C724 C719 1.490 . S
C724 C726 1.395 . S
C724 C727 1.403 . S
H725 C731 0.930 . S
C726 H712 0.930 . S
C726 C724 1.395 . S
C726 C729 1.403 . S
C727 C724 1.403 . S
C727 C728 1.524 . S
C727 C731 1.400 . S
C728 H713 0.960 . S
C728 H714 0.960 . S
C728 H715 0.960 . S
C728 C727 1.524 . S
C729 C726 1.403 . S
C729 C730 1.392 . S
C729 C733 1.495 . S
C730 C729 1.392 . S
C730 C731 1.385 . S
C730 C732 1.478 . S
C731 H725 0.930 . S
C731 C727 1.400 . S
C731 C730 1.385 . S
C732 C730 1.478 . S
C732 C734 1.381 . S
C732 C738 1.383 . S
C733 C729 1.495 . S
C733 H739 0.959 . S
C733 H740 0.961 . S
C733 H741 0.960 . S
C734 C732 1.381 . S
C734 C735 1.394 . S
C734 H742 0.930 . S
C735 C734 1.394 . S
C735 C736 1.383 . S
C735 H743 0.929 . S
C736 C735 1.383 . S
C736 C737 1.377 . S
C737 H721 0.930 . S
C737 C736 1.377 . S
C737 C738 1.379 . S
C738 H722 0.931 . S
C738 C732 1.383 . S
C738 C737 1.379 . S
H739 C733 0.959 . S
H740 C733 0.961 . S
H741 C733 0.960 . S
H742 C734 0.930 . S
H743 C735 0.929 . S
H744 C752 0.929 . S
H745 C754 0.930 . S
H746 C756 0.930 . S
H747 C759 0.929 . S
H748 C762 0.930 . S
H749 C764 0.960 . S
H750 C764 0.960 . S
H751 C764 0.960 . S
C752 H744 0.929 . S
C752 C753 1.377 . S
C752 C754 1.384 . S
C753 C752 1.377 . S
C753 C759 1.390 . S
C754 H745 0.930 . S
C754 C752 1.384 . S
C754 C755 1.372 . S
C755 C754 1.372 . S
C755 C756 1.400 . S
C755 C760 1.490 . S
C756 H746 0.930 . S
C756 C755 1.400 . S
C756 C759 1.386 . S
H757 C773 0.930 . S
H758 C774 0.931 . S
C759 H747 0.929 . S
C759 C753 1.390 . S
C759 C756 1.386 . S
C760 C755 1.490 . S
C760 C762 1.395 . S
C760 C763 1.403 . S
H761 C767 0.930 . S
C762 H748 0.930 . S
C762 C760 1.395 . S
C762 C765 1.403 . S
C763 C760 1.403 . S
C763 C764 1.524 . S
C763 C767 1.400 . S
C764 H749 0.960 . S
C764 H750 0.960 . S
C764 H751 0.960 . S
C764 C763 1.524 . S
C765 C762 1.403 . S
C765 C766 1.392 . S
C765 C769 1.495 . S
C766 C765 1.392 . S
C766 C767 1.385 . S
C766 C768 1.478 . S
C767 H761 0.930 . S
C767 C763 1.400 . S
C767 C766 1.385 . S
C768 C766 1.478 . S
C768 C770 1.381 . S
C768 C774 1.383 . S
C769 C765 1.495 . S
C769 H775 0.959 . S
C769 H776 0.961 . S
C769 H777 0.960 . S
C770 C768 1.381 . S
C770 C771 1.394 . S
C770 H778 0.930 . S
C771 C770 1.394 . S
C771 C772 1.383 . S
C771 H779 0.929 . S
C772 C771 1.383 . S
C772 C773 1.377 . S
C773 H757 0.930 . S
C773 C772 1.377 . S
C773 C774 1.379 . S
C774 H758 0.931 . S
C774 C768 1.383 . S
C774 C773 1.379 . S
H775 C769 0.959 . S
H776 C769 0.961 . S
H777 C769 0.960 . S
H778 C770 0.930 . S
H779 C771 0.929 . S
H780 C788 0.929 . S
H781 C790 0.930 . S
H782 C792 0.930 . S
H783 C795 0.929 . S
H784 C798 0.930 . S
H785 C800 0.960 . S
H786 C800 0.960 . S
H787 C800 0.960 . S
C788 H780 0.929 . S
C788 C789 1.377 . S
C788 C790 1.384 . S
C789 C788 1.377 . S
C789 C795 1.390 . S
C790 H781 0.930 . S
C790 C788 1.384 . S
C790 C791 1.372 . S
C791 C790 1.372 . S
C791 C792 1.400 . S
C791 C796 1.490 . S
C792 H782 0.930 . S
C792 C791 1.400 . S
C792 C795 1.386 . S
H793 C809 0.930 . S
H794 C810 0.931 . S
C795 H783 0.929 . S
C795 C789 1.390 . S
C795 C792 1.386 . S
C796 C791 1.490 . S
C796 C798 1.395 . S
C796 C799 1.403 . S
H797 C803 0.930 . S
C798 H784 0.930 . S
C798 C796 1.395 . S
C798 C801 1.403 . S
C799 C796 1.403 . S
C799 C800 1.524 . S
C799 C803 1.400 . S
C800 H785 0.960 . S
C800 H786 0.960 . S
C800 H787 0.960 . S
C800 C799 1.524 . S
C801 C798 1.403 . S
C801 C802 1.392 . S
C801 C805 1.495 . S
C802 C801 1.392 . S
C802 C803 1.385 . S
C802 C804 1.478 . S
C803 H797 0.930 . S
C803 C799 1.400 . S
C803 C802 1.385 . S
C804 C802 1.478 . S
C804 C806 1.381 . S
C804 C810 1.383 . S
C805 C801 1.495 . S
C805 H811 0.959 . S
C805 H812 0.961 . S
C805 H813 0.960 . S
C806 C804 1.381 . S
C806 C807 1.394 . S
C806 H814 0.930 . S
C807 C806 1.394 . S
C807 C808 1.383 . S
C807 H815 0.929 . S
C808 C807 1.383 . S
C808 C809 1.377 . S
C809 H793 0.930 . S
C809 C808 1.377 . S
C809 C810 1.379 . S
C810 H794 0.931 . S
C810 C804 1.383 . S
C810 C809 1.379 . S
H811 C805 0.959 . S
H812 C805 0.961 . S
H813 C805 0.960 . S
H814 C806 0.930 . S
H815 C807 0.929 . S
H816 C824 0.929 . S
H817 C826 0.930 . S
H818 C828 0.930 . S
H819 C831 0.929 . S
H820 C834 0.930 . S
H821 C836 0.960 . S
H822 C836 0.960 . S
H823 C836 0.960 . S
C824 H816 0.929 . S
C824 C825 1.377 1_455 S
C824 C826 1.384 . S
C825 C824 1.377 1_655 S
C825 C831 1.390 . S
C826 H817 0.930 . S
C826 C824 1.384 . S
C826 C827 1.372 1_455 S
C827 C826 1.372 1_655 S
C827 C828 1.400 . S
C827 C832 1.490 1_655 S
C828 H818 0.930 . S
C828 C827 1.400 . S
C828 C831 1.386 . S
H829 C845 0.930 . S
H830 C846 0.931 1_655 S
C831 H819 0.929 . S
C831 C825 1.390 . S
C831 C828 1.386 . S
C832 C827 1.490 1_455 S
C832 C834 1.395 . S
C832 C835 1.403 1_455 S
H833 C839 0.930 . S
C834 H820 0.930 . S
C834 C832 1.395 . S
C834 C837 1.403 . S
C835 C832 1.403 1_655 S
C835 C836 1.524 . S
C835 C839 1.400 1_655 S
C836 H821 0.960 . S
C836 H822 0.960 . S
C836 H823 0.960 . S
C836 C835 1.524 . S
C837 C834 1.403 . S
C837 C838 1.392 . S
C837 C841 1.495 . S
C838 C837 1.392 . S
C838 C839 1.385 . S
C838 C840 1.478 . S
C839 H833 0.930 . S
C839 C835 1.400 1_455 S
C839 C838 1.385 . S
C840 C838 1.478 . S
C840 C842 1.381 . S
C840 C846 1.383 . S
C841 C837 1.495 . S
C841 H847 0.959 . S
C841 H848 0.961 . S
C841 H849 0.960 . S
C842 C840 1.381 . S
C842 C843 1.394 . S
C842 H850 0.930 . S
C843 C842 1.394 . S
C843 C844 1.383 . S
C843 H851 0.929 . S
C844 C843 1.383 . S
C844 C845 1.377 . S
C845 H829 0.930 . S
C845 C844 1.377 . S
C845 C846 1.379 . S
C846 H830 0.931 1_455 S
C846 C840 1.383 . S
C846 C845 1.379 . S
H847 C841 0.959 . S
H848 C841 0.961 . S
H849 C841 0.960 . S
H850 C842 0.930 . S
H851 C843 0.929 . S
H852 C860 0.929 1_545 S
H853 C862 0.930 . S
H854 C864 0.930 . S
H855 C867 0.929 . S
H856 C870 0.930 . S
H857 C872 0.960 . S
H858 C872 0.960 . S
H859 C872 0.960 . S
C860 H852 0.929 1_565 S
C860 C861 1.377 . S
C860 C862 1.384 1_565 S
C861 C860 1.377 . S
C861 C867 1.390 . S
C862 H853 0.930 . S
C862 C860 1.384 1_545 S
C862 C863 1.372 1_545 S
C863 C862 1.372 1_565 S
C863 C864 1.400 . S
C863 C868 1.490 1_565 S
C864 H854 0.930 . S
C864 C863 1.400 . S
C864 C867 1.386 . S
H865 C881 0.930 . S
H866 C882 0.931 . S
C867 H855 0.929 . S
C867 C861 1.390 . S
C867 C864 1.386 . S
C868 C863 1.490 1_545 S
C868 C870 1.395 . S
C868 C871 1.403 1_545 S
H869 C875 0.930 . S
C870 H856 0.930 . S
C870 C868 1.395 . S
C870 C873 1.403 . S
C871 C868 1.403 1_565 S
C871 C872 1.524 . S
C871 C875 1.400 . S
C872 H857 0.960 . S
C872 H858 0.960 . S
C872 H859 0.960 . S
C872 C871 1.524 . S
C873 C870 1.403 . S
C873 C874 1.392 . S
C873 C877 1.495 . S
C874 C873 1.392 . S
C874 C875 1.385 1_545 S
C874 C876 1.478 . S
C875 H869 0.930 . S
C875 C871 1.400 . S
C875 C874 1.385 1_565 S
C876 C874 1.478 . S
C876 C878 1.381 . S
C876 C882 1.383 . S
C877 C873 1.495 . S
C877 H883 0.959 . S
C877 H884 0.961 . S
C877 H885 0.960 . S
C878 C876 1.381 . S
C878 C879 1.394 . S
C878 H886 0.930 . S
C879 C878 1.394 . S
C879 C880 1.383 . S
C879 H887 0.929 . S
C880 C879 1.383 . S
C880 C881 1.377 . S
C881 H865 0.930 . S
C881 C880 1.377 . S
C881 C882 1.379 . S
C882 H866 0.931 . S
C882 C876 1.383 . S
C882 C881 1.379 . S
H883 C877 0.959 . S
H884 C877 0.961 . S
H885 C877 0.960 . S
H886 C878 0.930 . S
H887 C879 0.929 . S
C249 C130 1.132 1_565 S
C268 C10 1.148 . S
C285 C170 1.135 . S
C304 C50 1.177 . S
C321 C210 1.134 . S
C340 C90 1.184 1_655 S
C357 C16 0.575 . S
C376 C87 0.451 . S
C393 C56 0.560 . S
C412 C127 0.497 . S
C429 C96 0.555 . S
C448 C167 0.530 . S
C465 C136 0.551 . S
C484 C207 0.614 . S
C501 C176 0.567 . S
C520 C7 0.621 . S
C537 C216 0.588 . S
C556 C47 0.462 . S
C573 C19 1.003 . S
C592 C139 0.978 . S
C609 C59 1.004 . S
C628 C179 0.981 . S
C645 C99 1.007 . S
C664 C219 1.024 . S
C681 C2 3.907 . S
C700 C51 3.956 . S
C717 C42 3.907 . S
C736 C91 3.954 . S
C753 C82 3.905 . S
C772 C131 3.952 . S
C789 C122 3.906 . S
C808 C171 3.953 . S
C825 C162 3.907 . S
C844 C211 3.957 . S
C861 C202 3.908 . S
C880 C11 3.953 . S
