# Generated by pormake.
# Topology vmz, (8)-cn, num edge types: 1
# Building blocks:
#     Node 0, Type 0, BuildingBlock: TAGTUT_clean_sbu_3, # of connection points: 8
#     Node 1, Type 0, BuildingBlock: TAGTUT_clean_sbu_3, # of connection points: 8
#     Node 2, Type 0, BuildingBlock: TAGTUT_clean_sbu_3, # of connection points: 8
#     Node 3, Type 0, BuildingBlock: TAGTUT_clean_sbu_3, # of connection points: 8
#     Edge 4, Type (0, 0), BuildingBlock: FUNLAD_clean_linker_0, # of connection points: 2
#     Edge 5, Type (0, 0), BuildingBlock: FUNLAD_clean_linker_0, # of connection points: 2
#     Edge 6, Type (0, 0), BuildingBlock: FUNLAD_clean_linker_0, # of connection points: 2
#     Edge 7, Type (0, 0), BuildingBlock: FUNLAD_clean_linker_0, # of connection points: 2
#     Edge 8, Type (0, 0), BuildingBlock: FUNLAD_clean_linker_0, # of connection points: 2
#     Edge 9, Type (0, 0), BuildingBlock: FUNLAD_clean_linker_0, # of connection points: 2
#     Edge 10, Type (0, 0), BuildingBlock: FUNLAD_clean_linker_0, # of connection points: 2
#     Edge 11, Type (0, 0), BuildingBlock: FUNLAD_clean_linker_0, # of connection points: 2
#     Edge 12, Type (0, 0), BuildingBlock: FUNLAD_clean_linker_0, # of connection points: 2
#     Edge 13, Type (0, 0), BuildingBlock: FUNLAD_clean_linker_0, # of connection points: 2
#     Edge 14, Type (0, 0), BuildingBlock: FUNLAD_clean_linker_0, # of connection points: 2
#     Edge 15, Type (0, 0), BuildingBlock: FUNLAD_clean_linker_0, # of connection points: 2
#     Edge 16, Type (0, 0), BuildingBlock: FUNLAD_clean_linker_0, # of connection points: 2
#     Edge 17, Type (0, 0), BuildingBlock: FUNLAD_clean_linker_0, # of connection points: 2
#     Edge 18, Type (0, 0), BuildingBlock: FUNLAD_clean_linker_0, # of connection points: 2
#     Edge 19, Type (0, 0), BuildingBlock: FUNLAD_clean_linker_0, # of connection points: 2
# Relax obj value: 0.215
# Max RMSD: 0.272
# Mean RMSD: 0.270
data_MOF--net-vmz--node1-TAGTUT_clean_sbu_3--edge1-FUNLAD_clean_linker_0
_symmetry_space_group_name_H-M    P1
_symmetry_Int_Tables_number       1
_symmetry_cell_setting            triclinic
loop_
_symmetry_equiv_pos_as_xyz
'x, y, z'
_cell_length_a     28.446077
_cell_length_b     21.382094
_cell_length_c     37.657626
_cell_angle_alpha  89.51988
_cell_angle_beta   98.725275
_cell_angle_gamma 89.445463
loop_
_atom_site_label
_atom_site_type_symbol
_atom_site_fract_x
_atom_site_fract_y
_atom_site_fract_z
_atom_type_partial_charge
C0 C 0.19729 0.20921 0.15098 0.0
C1 C 0.22873 0.38099 0.05307 0.0
C2 C 0.2324 0.21666 0.98594 0.0
Mg3 Mg 0.22532 0.06316 0.15311 0.0
Mg4 Mg 0.32304 0.01585 0.12413 0.0
O5 O 0.26505 0.05764 0.1131 0.0
Mg6 Mg 0.26465 0.14765 0.09825 0.0
O7 O 0.25795 0.23793 0.08371 0.0
Mg8 Mg 0.18789 0.23826 0.06438 0.0
Mg9 Mg 0.29725 0.26592 0.05109 0.0
C10 C 0.33374 0.07686 0.04851 0.0
O11 O 0.3399 0.17096 0.12529 0.0
O12 O 0.22574 0.95507 0.15369 0.0
O13 O 0.36339 0.23965 0.08567 0.0
O14 O 0.29111 0.06151 0.1978 0.0
O15 O 0.29329 0.92662 0.13338 0.0
O16 O 0.35796 0.04991 0.17432 0.0
O17 O 0.19076 0.13243 0.07122 0.0
O18 O 0.16043 0.06758 0.10821 0.0
C19 C 0.15624 0.1007 0.07937 0.0
C20 C 0.25451 0.91315 0.14506 0.0
O21 O 0.30153 0.11869 0.05045 0.0
O22 O 0.19499 0.3444 0.05857 0.0
O23 O 0.34813 0.03752 0.07389 0.0
O24 O 0.1991 0.22519 0.00481 0.0
O25 O 0.27028 0.36083 0.04914 0.0
O26 O 0.27592 0.22328 -0.00048 0.0
O27 O 0.22975 0.16979 0.1464 0.0
O28 O 0.17793 0.24517 0.1252 0.0
C29 C 0.33653 0.05908 0.20123 0.0
C30 C 0.37161 0.20586 0.11447 0.0
C31 C 0.64986 0.65915 0.47206 0.0
C32 C 0.77084 0.81319 0.53053 0.0
C33 C 0.75514 0.90808 0.42495 0.0
Mg34 Mg 0.63445 0.59837 0.39462 0.0
Mg35 Mg 0.72168 0.58688 0.34815 0.0
O36 O 0.68255 0.64157 0.36926 0.0
Mg37 Mg 0.7146 0.69436 0.40938 0.0
O38 O 0.7415 0.74647 0.45117 0.0
Mg39 Mg 0.68554 0.79964 0.45836 0.0
Mg40 Mg 0.80067 0.78559 0.45593 0.0
C41 C 0.77315 0.71542 0.34058 0.0
O42 O 0.78228 0.63335 0.42185 0.0
O43 O 0.60446 0.55568 0.33939 0.0
O44 O 0.83881 0.70593 0.43838 0.0
O45 O 0.67902 0.50616 0.40622 0.0
O46 O 0.66665 0.54978 0.30884 0.0
O47 O 0.74651 0.51043 0.38331 0.0
O48 O 0.65197 0.76161 0.4016 0.0
O49 O 0.59319 0.69421 0.38452 0.0
C50 C 0.60796 0.75042 0.3911 0.0
C51 C 0.62285 0.54039 0.31144 0.0
O52 O 0.75355 0.74176 0.36553 0.0
O53 O 0.72747 0.82052 0.51516 0.0
O54 O 0.76962 0.65678 0.33371 0.0
O55 O 0.71705 0.88697 0.43454 0.0
O56 O 0.80464 0.79958 0.51285 0.0
O57 O 0.79309 0.87485 0.42824 0.0
O58 O 0.67164 0.64097 0.44662 0.0
O59 O 0.65294 0.71571 0.4825 0.0
C60 C 0.719 0.48204 0.40163 0.0
C61 C 0.82603 0.64985 0.42971 0.0
C62 C 0.66522 0.8861 0.95082 0.0
C63 C 0.77792 0.72538 0.02523 0.0
C64 C 0.76859 0.62275 0.92337 0.0
Mg65 Mg 0.66012 0.93393 0.87076 0.0
Mg66 Mg 0.75457 0.93129 0.83176 0.0
O67 O 0.71106 0.88303 0.8527 0.0
Mg68 Mg 0.73648 0.83438 0.89718 0.0
O69 O 0.758 0.78801 0.94316 0.0
Mg70 Mg 0.69905 0.74083 0.94858 0.0
Mg71 Mg 0.81646 0.7442 0.95226 0.0
C72 C 0.80589 0.79867 0.83807 0.0
O73 O 0.80256 0.89157 0.9095 0.0
O74 O 0.63812 0.96262 0.81106 0.0
O75 O 0.85841 0.82093 0.93382 0.0
O76 O 0.70414 0.02609 0.8796 0.0
O77 O 0.70474 0.95837 0.78542 0.0
O78 O 0.77436 0.01497 0.86128 0.0
O79 O 0.67256 0.77099 0.88857 0.0
O80 O 0.61803 0.84101 0.86395 0.0
C81 C 0.62999 0.78476 0.87417 0.0
C82 C 0.65991 0.96813 0.78363 0.0
O83 O 0.78042 0.77725 0.86097 0.0
O84 O 0.73507 0.72386 0.00819 0.0
O85 O 0.8052 0.85643 0.82825 0.0
O86 O 0.7305 0.64847 0.93067 0.0
O87 O 0.8142 0.7326 0.00912 0.0
O88 O 0.80781 0.65245 0.92714 0.0
O89 O 0.69105 0.89795 0.92682 0.0
O90 O 0.66536 0.83156 0.96493 0.0
C91 C 0.74503 0.04755 0.87598 0.0
C92 C 0.84585 0.87556 0.9207 0.0
C93 C 0.36411 0.24984 0.6103 0.0
C94 C 0.34497 0.4447 0.69716 0.0
C95 C 0.23875 0.5042 0.61146 0.0
Mg96 Mg 0.28731 0.1928 0.54726 0.0
Mg97 Mg 0.17197 0.19389 0.54983 0.0
O98 O 0.22851 0.23941 0.55519 0.0
Mg99 Mg 0.25379 0.29256 0.59744 0.0
O100 O 0.28447 0.34661 0.63749 0.0
Mg101 Mg 0.32838 0.39656 0.61155 0.0
Mg102 Mg 0.2457 0.39468 0.66295 0.0
C103 C 0.13917 0.32502 0.57859 0.0
O104 O 0.2218 0.23756 0.64252 0.0
O105 O 0.24669 0.16618 0.49127 0.0
O106 O 0.20445 0.31709 0.67798 0.0
O107 O 0.26223 0.10196 0.57251 0.0
O108 O 0.16827 0.17632 0.49287 0.0
O109 O 0.18564 0.10683 0.57878 0.0
O110 O 0.29052 0.35385 0.55927 0.0
O111 O 0.31233 0.28175 0.52267 0.0
C112 C 0.31202 0.33844 0.53306 0.0
C113 C 0.20321 0.16599 0.47573 0.0
O114 O 0.18183 0.3453 0.58749 0.0
O115 O 0.36078 0.43461 0.66745 0.0
O116 O 0.12961 0.26898 0.56779 0.0
O117 O 0.27878 0.48413 0.60436 0.0
O118 O 0.30212 0.43232 0.70136 0.0
O119 O 0.21452 0.47204 0.6307 0.0
O120 O 0.32068 0.23338 0.60268 0.0
O121 O 0.37543 0.30705 0.61709 0.0
C122 C 0.22541 0.07756 0.58252 0.0
C123 C 0.20388 0.25886 0.66969 0.0
C124 C 0.18194 0.47285 0.06972 0.0
C125 C 0.22098 0.44902 0.05504 0.0
C126 C 0.17911 0.53633 0.07751 0.0
C127 C 0.21527 0.57692 0.07057 0.0
C128 C 0.25202 0.55394 0.05316 0.0
C129 C 0.25507 0.49054 0.04566 0.0
C130 C 0.21844 0.64209 0.08324 0.0
C131 C 0.19895 0.66312 0.11135 0.0
C132 C 0.21321 0.7243 0.12685 0.0
C133 C 0.17889 0.76871 0.13297 0.0
C134 C 0.19252 0.83007 0.14169 0.0
C135 C 0.24064 0.847 0.14458 0.0
H136 H 0.28874 0.70543 0.12989 0.0
C137 C 0.27514 0.8006 0.142 0.0
C138 C 0.26155 0.73979 0.13325 0.0
H139 H 0.31257 0.81191 0.1449 0.0
H140 H 0.15473 0.4421 0.07685 0.0
H141 H 0.14933 0.55284 0.08974 0.0
H142 H 0.27998 0.58452 0.04709 0.0
H143 H 0.2852 0.47379 0.03383 0.0
H144 H 0.24239 0.6726 0.07138 0.0
H145 H 0.17414 0.63541 0.12389 0.0
H146 H 0.14149 0.75707 0.12871 0.0
H147 H 0.1652 0.86489 0.14379 0.0
C148 C 0.71563 0.01325 0.41443 0.0
C149 C 0.75641 0.97531 0.41474 0.0
C150 C 0.71815 0.07818 0.41095 0.0
C151 C 0.76153 0.10695 0.4076 0.0
C152 C 0.80153 0.06895 0.40543 0.0
C153 C 0.79915 0.0038 0.40923 0.0
C154 C 0.76561 0.17629 0.406 0.0
C155 C 0.74003 0.21472 0.42425 0.0
C156 C 0.73972 0.28448 0.42192 0.0
C157 C 0.703 0.3173 0.43504 0.0
C158 C 0.698 0.38209 0.4305 0.0
C159 C 0.72983 0.41598 0.41283 0.0
H160 H 0.80328 0.29616 0.39689 0.0
C161 C 0.76856 0.38388 0.40188 0.0
C162 C 0.77348 0.31888 0.40633 0.0
H163 H 0.79407 0.40851 0.38847 0.0
H164 H 0.68188 0.99308 0.41808 0.0
H165 H 0.68606 0.10573 0.41115 0.0
H166 H 0.83516 0.08985 0.40213 0.0
H167 H 0.83121 0.9761 0.40913 0.0
H168 H 0.79073 0.19515 0.38989 0.0
H169 H 0.71637 0.19394 0.44105 0.0
H170 H 0.67682 0.29242 0.44767 0.0
H171 H 0.66791 0.40514 0.43952 0.0
C172 C 0.80759 0.51764 0.91579 0.0
C173 C 0.76651 0.55574 0.91267 0.0
C174 C 0.80401 0.45281 0.90987 0.0
C175 C 0.75914 0.42478 0.90043 0.0
C176 C 0.71853 0.46365 0.89591 0.0
C177 C 0.72207 0.52788 0.90203 0.0
C178 C 0.75188 0.35581 0.89562 0.0
C179 C 0.78603 0.31097 0.90208 0.0
C180 C 0.77564 0.24275 0.89755 0.0
C181 C 0.81086 0.20211 0.88829 0.0
C182 C 0.80151 0.13846 0.88231 0.0
C183 C 0.75686 0.11352 0.88606 0.0
H184 H 0.70411 0.24643 0.9112 0.0
C185 C 0.72239 0.15364 0.89704 0.0
C186 C 0.73161 0.21735 0.9027 0.0
H187 H 0.68774 0.13619 0.90052 0.0
H188 H 0.84238 0.53749 0.924 0.0
H189 H 0.83646 0.4253 0.91323 0.0
H190 H 0.68348 0.44407 0.88838 0.0
H191 H 0.68959 0.55553 0.89911 0.0
H192 H 0.71566 0.34126 0.8863 0.0
H193 H 0.8229 0.32386 0.90978 0.0
H194 H 0.84535 0.21997 0.88468 0.0
H195 H 0.82904 0.1091 0.87402 0.0
C196 C 0.18598 0.97676 0.59529 0.0
C197 C 0.22778 0.01081 0.59393 0.0
C198 C 0.18777 0.9116 0.59972 0.0
C199 C 0.23156 0.87905 0.60297 0.0
C200 C 0.27344 0.91372 0.60391 0.0
C201 C 0.27163 0.97864 0.59934 0.0
C202 C 0.23579 0.80942 0.60435 0.0
C203 C 0.19924 0.76938 0.59694 0.0
C204 C 0.20696 0.70045 0.59673 0.0
C205 C 0.17364 0.66041 0.60866 0.0
C206 C 0.18241 0.5958 0.61157 0.0
C207 C 0.22441 0.56997 0.60203 0.0
H208 H 0.27271 0.70338 0.57411 0.0
C209 C 0.25585 0.60975 0.58747 0.0
C210 C 0.24729 0.67416 0.58491 0.0
H211 H 0.28828 0.5916 0.57941 0.0
H212 H 0.15158 5e-05 0.59139 0.0
H213 H 0.15466 0.88737 0.59987 0.0
H214 H 0.30778 0.89029 0.60688 0.0
H215 H 0.30462 0.00328 0.59876 0.0
H216 H 0.27158 0.79008 0.61082 0.0
H217 H 0.16284 0.78645 0.59171 0.0
H218 H 0.14178 0.67939 0.61723 0.0
H219 H 0.1572 0.56653 0.6226 0.0
C220 C 0.52699 0.79569 0.36844 0.0
C221 C 0.57483 0.80439 0.38319 0.0
C222 C 0.49795 0.84703 0.35622 0.0
C223 C 0.51622 0.90817 0.35863 0.0
C224 C 0.56323 0.91693 0.37509 0.0
C225 C 0.5921 0.86578 0.38744 0.0
C226 C 0.49001 0.96196 0.33948 0.0
C227 C 0.44245 0.96378 0.33031 0.0
C228 C 0.41752 0.00544 0.30152 0.0
C229 C 0.36799 0.01267 0.29849 0.0
C230 C 0.34163 0.03706 0.267 0.0
C231 C 0.36438 0.05366 0.23767 0.0
H232 H 0.47867 0.02352 0.27453 0.0
C233 C 0.4143 0.0526 0.24211 0.0
C234 C 0.44066 0.02863 0.27366 0.0
H235 H 0.43292 0.06566 0.22015 0.0
H236 H 0.51253 0.74911 0.36478 0.0
H237 H 0.46224 0.83803 0.34293 0.0
H238 H 0.57832 0.96334 0.3771 0.0
H239 H 0.62868 0.87444 0.39883 0.0
H240 H 0.51124 -0.00068 0.33065 0.0
H241 H 0.42099 0.92985 0.34206 0.0
H242 H 0.34926 -0.00456 0.31953 0.0
H243 H 0.3032 0.03762 0.26459 0.0
C244 C 0.55813 0.46475 0.29149 0.0
C245 C 0.59472 0.50329 0.28313 0.0
C246 C 0.53692 0.42165 0.26654 0.0
C247 C 0.55161 0.4169 0.23264 0.0
C248 C 0.58622 0.45779 0.22358 0.0
C249 C 0.60806 0.50008 0.24874 0.0
C250 C 0.52985 0.37171 0.20569 0.0
C251 C 0.51575 0.31447 0.21464 0.0
C252 C 0.48696 0.27351 0.18837 0.0
C253 C 0.45381 0.23363 0.20058 0.0
C254 C 0.41861 0.2056 0.17613 0.0
C255 C 0.41624 0.21707 0.13907 0.0
H256 H 0.51513 0.30541 0.14087 0.0
C257 C 0.45314 0.25023 0.12682 0.0
C258 C 0.48839 0.27798 0.15125 0.0
H259 H 0.45302 0.25837 0.09837 0.0
H260 H 0.54723 0.46599 0.31783 0.0
H261 H 0.50904 0.39223 0.27381 0.0
H262 H 0.59738 0.45574 0.19735 0.0
H263 H 0.63608 0.52938 0.24153 0.0
H264 H 0.52468 0.38719 0.17785 0.0
H265 H 0.52127 0.29983 0.24269 0.0
H266 H 0.45268 0.22816 0.22907 0.0
H267 H 0.39101 0.17972 0.18648 0.0
C268 C 0.39007 0.13814 0.60798 0.0
C269 C 0.40184 0.20161 0.61213 0.0
C270 C 0.42523 0.09191 0.61491 0.0
C271 C 0.47282 0.10808 0.62604 0.0
C272 C 0.48503 0.17186 0.62743 0.0
C273 C 0.44985 0.21806 0.62046 0.0
C274 C 0.50612 0.05857 0.6426 0.0
C275 C 0.5526 0.0682 0.65375 0.0
C276 C 0.5795 0.03296 0.68436 0.0
C277 C 0.62932 0.03236 0.68895 0.0
C278 C 0.65563 0.00923 0.72075 0.0
C279 C 0.63243 0.98739 0.74881 0.0
H280 H 0.51804 0.01014 0.71003 0.0
C281 C 0.58258 0.98615 0.74376 0.0
C282 C 0.55637 0.00866 0.71193 0.0
H283 H 0.56367 0.96931 0.76478 0.0
H284 H 0.35344 0.12385 0.6012 0.0
H285 H 0.41472 0.04329 0.61369 0.0
H286 H 0.52101 0.18696 0.63625 0.0
H287 H 0.46015 0.2666 0.62342 0.0
H288 H 0.49033 0.01551 0.65049 0.0
H289 H 0.57044 0.10732 0.64324 0.0
H290 H 0.64792 0.05168 0.66837 0.0
H291 H 0.69408 0.01075 0.72384 0.0
C292 C 0.54891 0.74686 0.84878 0.0
C293 C 0.59615 0.73349 0.86404 0.0
C294 C 0.5191 0.6992 0.834 0.0
C295 C 0.53593 0.63701 0.83425 0.0
C296 C 0.58243 0.62332 0.85094 0.0
C297 C 0.61214 0.67092 0.86593 0.0
C298 C 0.50804 0.58718 0.81379 0.0
C299 C 0.46032 0.58879 0.80578 0.0
C300 C 0.43316 0.54531 0.78006 0.0
C301 C 0.38523 0.53439 0.7825 0.0
C302 C 0.35712 0.49945 0.75638 0.0
C303 C 0.37619 0.47555 0.72683 0.0
H304 H 0.4892 0.52851 0.74779 0.0
C305 C 0.42452 0.48521 0.72484 0.0
C306 C 0.45273 0.5197 0.75116 0.0
H307 H 0.44033 0.4676 0.70243 0.0
H308 H 0.53549 0.79455 0.84686 0.0
H309 H 0.48389 0.71203 0.82067 0.0
H310 H 0.59638 0.57593 0.85134 0.0
H311 H 0.64837 0.65896 0.87737 0.0
H312 H 0.52781 0.54855 0.80437 0.0
H313 H 0.44013 0.62373 0.81805 0.0
H314 H 0.3692 0.55405 0.8043 0.0
H315 H 0.31999 0.49314 0.75875 0.0
C316 C 0.11063 0.12284 0.01902 0.0
C317 C 0.1109 0.10395 0.05488 0.0
C318 C 0.06877 0.1225 0.99466 0.0
C319 C 0.02651 0.1023 0.00567 0.0
C320 C 0.02599 0.08709 0.04196 0.0
C321 C 0.06807 0.08743 0.06643 0.0
C322 C 0.98454 0.08767 0.97928 0.0
C323 C 0.98948 0.05784 0.94871 0.0
C324 C 0.95204 0.01559 0.93242 0.0
C325 C 0.96469 0.95356 0.9261 0.0
C326 C 0.92988 0.90773 0.92071 0.0
C327 C 0.88205 0.92396 0.92086 0.0
H328 H 0.89346 0.08054 0.93389 0.0
C329 C 0.86915 0.98713 0.92376 0.0
C330 C 0.90392 0.03272 0.92946 0.0
H331 H 0.83253 0.00089 0.92416 0.0
H332 H 0.14318 0.13509 0.00927 0.0
H333 H 0.06993 0.13536 0.96692 0.0
H334 H -0.00639 0.07138 0.05093 0.0
H335 H 0.06726 0.07345 0.09405 0.0
H336 H 0.95031 0.08779 0.98882 0.0
H337 H 0.0246 0.05152 0.94115 0.0
H338 H 0.00176 0.93963 0.92825 0.0
H339 H 0.94053 0.85945 0.91796 0.0
C340 C 0.10495 0.43014 0.56118 0.0
C341 C 0.09905 0.36958 0.57434 0.0
C342 C 0.0653 0.46518 0.5458 0.0
C343 C 0.01942 0.44029 0.54395 0.0
C344 C 0.01335 0.38331 0.56115 0.0
C345 C 0.05296 0.34778 0.57593 0.0
C346 C 0.9779 0.47037 0.52197 0.0
C347 C 0.98084 0.49535 0.48949 0.0
C348 C 0.94005 0.52682 0.46736 0.0
C349 C 0.94846 0.58045 0.44778 0.0
C350 C 0.91052 0.61803 0.43214 0.0
C351 C 0.86362 0.60168 0.43529 0.0
H352 H 0.8856 0.46422 0.48092 0.0
C353 C 0.85495 0.54404 0.45104 0.0
C354 C 0.89303 0.50691 0.46723 0.0
H355 H 0.81907 0.53022 0.45363 0.0
H356 H 0.14011 0.44817 0.55982 0.0
H357 H 0.07067 0.51028 0.53382 0.0
H358 H 0.97817 0.36401 0.56065 0.0
H359 H 0.04758 0.30143 0.58635 0.0
H360 H 0.94398 0.4687 0.53186 0.0
H361 H 0.01496 0.49654 0.47983 0.0
H362 H 0.98446 0.59583 0.44688 0.0
H363 H 0.91799 0.662 0.41973 0.0
C364 C 0.38665 0.12224 0.00848 0.0
C365 C 0.35688 0.07383 0.01643 0.0
C366 C 0.41928 0.11177 0.98475 0.0
C367 C 0.42179 0.05294 0.96857 0.0
C368 C 0.38811 0.00745 0.97361 0.0
C369 C 0.35645 0.0174 0.99784 0.0
C370 C 0.46269 0.03291 0.95119 0.0
C371 C 0.50737 0.05201 0.96253 0.0
C372 C 0.54831 0.01047 0.95919 0.0
C373 C 0.59067 0.03446 0.95007 0.0
C374 C 0.62941 -0.00563 0.94788 0.0
C375 C 0.62665 0.93023 0.95593 0.0
H376 H 0.51436 0.92728 0.97622 0.0
C377 C 0.58479 0.90712 0.96644 0.0
C378 C 0.54605 0.94666 0.96787 0.0
H379 H 0.58136 0.85798 0.9727 0.0
H380 H 0.38739 0.1661 0.02274 0.0
H381 H 0.44401 0.14834 0.98068 0.0
H382 H 0.38907 0.96192 0.96129 0.0
H383 H 0.33365 0.97958 0.00374 0.0
H384 H 0.45782 0.99146 0.9345 0.0
H385 H 0.51417 0.09323 0.97906 0.0
H386 H 0.59346 0.08379 0.94405 0.0
H387 H 0.6614 0.01343 0.93992 0.0
C388 C 0.35798 0.43916 0.53622 0.0
C389 C 0.34551 0.38207 0.51925 0.0
C390 C 0.39549 0.47443 0.52665 0.0
C391 C 0.42093 0.45351 0.49961 0.0
C392 C 0.4061 0.39902 0.48093 0.0
C393 C 0.3691 0.36356 0.49071 0.0
C394 C 0.46312 0.48661 0.4901 0.0
C395 C 0.49207 0.52163 0.51346 0.0
C396 C 0.53492 0.55315 0.50399 0.0
C397 C 0.54991 0.60863 0.52155 0.0
C398 C 0.58841 0.64154 0.51211 0.0
C399 C 0.61337 0.61931 0.48511 0.0
H400 H 0.5521 0.48487 0.46535 0.0
C401 C 0.60025 0.56162 0.46916 0.0
C402 C 0.56131 0.52896 0.47835 0.0
H403 H 0.61924 0.54218 0.44901 0.0
H404 H 0.33988 0.45584 0.55759 0.0
H405 H 0.4045 0.5177 0.54062 0.0
H406 H 0.42438 0.38245 0.45952 0.0
H407 H 0.36004 0.32041 0.47654 0.0
H408 H 0.47155 0.47954 0.46323 0.0
H409 H 0.48373 0.52906 0.54032 0.0
H410 H 0.53084 0.6277 0.54189 0.0
H411 H 0.5978 0.68536 0.52544 0.0
C412 C 0.15799 0.23571 0.71916 0.0
C413 C 0.19186 0.21602 0.69796 0.0
C414 C 0.15965 0.21337 0.75433 0.0
C415 C 0.19533 0.17037 0.76917 0.0
C416 C 0.22558 0.14533 0.74641 0.0
C417 C 0.22373 0.16765 0.71106 0.0
C418 C 0.20687 0.15839 0.80883 0.0
C419 C 0.17864 0.17596 0.83288 0.0
C420 C 0.19413 0.1783 0.8726 0.0
C421 C 0.15914 0.18473 0.89499 0.0
C422 C 0.17163 0.19537 0.93179 0.0
C423 C 0.21964 0.20031 0.94733 0.0
H424 H 0.27056 0.178 0.87212 0.0
C425 C 0.25487 0.19189 0.92523 0.0
C426 C 0.24233 0.18122 0.8883 0.0
H427 H 0.29221 0.19523 0.93624 0.0
H428 H 0.13315 0.27321 0.70981 0.0
H429 H 0.13544 0.23446 0.77035 0.0
H430 H 0.25322 0.11191 0.75683 0.0
H431 H 0.25068 0.15204 0.69557 0.0
H432 H 0.24149 0.13777 0.81856 0.0
H433 H 0.14253 0.19157 0.82333 0.0
H434 H 0.12176 0.18314 0.8838 0.0
H435 H 0.14343 0.20136 0.94786 0.0
C436 C 0.79545 0.71575 0.793 0.0
C437 C 0.8266 0.756 0.8141 0.0
C438 C 0.80173 0.70378 0.75756 0.0
C439 C 0.83985 0.73079 0.74334 0.0
C440 C 0.87552 0.76097 0.76657 0.0
C441 C 0.86879 0.77392 0.80179 0.0
C442 C 0.8387 0.73804 0.70402 0.0
C443 C 0.7986 0.75833 0.68303 0.0
C444 C 0.79459 0.7774 0.64449 0.0
C445 C 0.75075 0.80172 0.62741 0.0
C446 C 0.74383 0.81735 0.59088 0.0
C447 C 0.78072 0.80912 0.57037 0.0
H448 H 0.86675 0.75382 0.63613 0.0
C449 C 0.82538 0.78777 0.5878 0.0
C450 C 0.83225 0.77187 0.62436 0.0
H451 H 0.85466 0.78058 0.5729 0.0
H452 H 0.76261 0.70139 0.80181 0.0
H453 H 0.77443 0.67863 0.74034 0.0
H454 H 0.90564 0.78122 0.75635 0.0
H455 H 0.89329 0.80509 0.81761 0.0
H456 H 0.87224 0.73544 0.69377 0.0
H457 H 0.7667 0.76433 0.69539 0.0
H458 H 0.72115 0.80727 0.6422 0.0
H459 H 0.70895 0.83357 0.57847 0.0
C460 C 0.82972 0.72985 0.29743 0.0
C461 C 0.79097 0.75309 0.31259 0.0
C462 C 0.83412 0.74386 0.26176 0.0
C463 C 0.79921 0.78062 0.24035 0.0
C464 C 0.76434 0.81067 0.25713 0.0
C465 C 0.76028 0.79714 0.29302 0.0
C466 C 0.79481 0.78351 0.20029 0.0
C467 C 0.81454 0.74069 0.18065 0.0
C468 C 0.8042 0.7376 0.14077 0.0
C469 C 0.83947 0.71464 0.12181 0.0
C470 C 0.83062 0.70933 0.0844 0.0
C471 C 0.78577 0.72526 0.06512 0.0
H472 H 0.73058 0.76874 0.13548 0.0
C473 C 0.7499 0.74632 0.0842 0.0
C474 C 0.75907 0.75279 0.12161 0.0
H475 H 0.71505 0.75935 0.07015 0.0
H476 H 0.85399 0.6959 0.31204 0.0
H477 H 0.86324 0.7225 0.25073 0.0
H478 H 0.73757 0.8404 0.24163 0.0
H479 H 0.72978 0.81528 0.30389 0.0
H480 H 0.77116 0.81904 0.18637 0.0
H481 H 0.83865 0.70516 0.19383 0.0
H482 H 0.87428 0.7016 0.13597 0.0
H483 H 0.85902 0.69293 0.07054 0.0
C484 C 0.22909 0.17821 0.41551 0.0
C485 C 0.19363 0.16162 0.43601 0.0
C486 C 0.21898 0.18158 0.37806 0.0
C487 C 0.17332 0.16762 0.36019 0.0
C488 C 0.13841 0.14844 0.38047 0.0
C489 C 0.1482 0.14638 0.41808 0.0
C490 C 0.1624 0.1702 0.32037 0.0
C491 C 0.18024 0.21473 0.30078 0.0
C492 C 0.17565 0.21387 0.26091 0.0
C493 C 0.18025 0.26996 0.24199 0.0
C494 C 0.18339 0.26931 0.20519 0.0
C495 C 0.18304 0.21234 0.18698 0.0
H496 H 0.16976 0.113 0.2556 0.0
C497 C 0.1762 0.15665 0.20546 0.0
C498 C 0.17238 0.15731 0.24197 0.0
H499 H 0.17549 0.11214 0.19197 0.0
H500 H 0.2644 0.19053 0.42841 0.0
H501 H 0.24708 0.19474 0.36311 0.0
H502 H 0.10317 0.1365 0.36724 0.0
H503 H 0.12015 0.13337 0.4331 0.0
H504 H 0.13868 0.13518 0.30711 0.0
H505 H 0.19998 0.253 0.31457 0.0
H506 H 0.18317 0.31414 0.25598 0.0
H507 H 0.1892 0.31277 0.19159 0.0
loop_
_geom_bond_atom_site_label_1
_geom_bond_atom_site_label_2
_geom_bond_distance
_geom_bond_site_symmetry_2
_ccdc_geom_bond_type
C0 O27 1.312 . S
C0 O28 1.208 . S
C1 O22 1.331 . S
C1 O25 1.244 . S
C2 O24 1.264 . S
C2 O26 1.273 . S
Mg3 O5 1.936 1_565 S
Mg3 O12 2.081 . S
Mg3 O14 2.023 . S
Mg3 O18 2.031 1_565 S
Mg3 O27 2.291 1_565 S
Mg4 O5 1.963 1_565 S
Mg4 O15 1.942 . S
Mg4 O16 1.955 . S
Mg4 O23 1.986 1_565 S
O5 Mg3 1.936 1_545 S
O5 Mg4 1.963 1_545 S
O5 Mg6 1.915 . S
Mg6 O5 1.915 . S
Mg6 O7 1.915 . S
Mg6 O11 2.013 . S
Mg6 O17 2.114 . S
Mg6 O21 2.013 . S
Mg6 O27 2.114 . S
O7 Mg6 1.915 . S
O7 Mg8 1.936 . S
O7 Mg9 1.963 . S
Mg8 O7 1.936 . S
Mg8 O17 2.291 . S
Mg8 O22 2.081 . S
Mg8 O24 2.023 . S
Mg8 O28 2.031 . S
Mg9 O7 1.963 . S
Mg9 O13 1.986 . S
Mg9 O25 1.942 . S
Mg9 O26 1.955 . S
C10 O21 1.191 . S
C10 O23 1.307 . S
O11 Mg6 2.013 . S
O11 C30 1.191 . S
O12 Mg3 2.081 . S
O12 C20 1.331 . S
O13 Mg9 1.986 . S
O13 C30 1.307 . S
O14 Mg3 2.023 . S
O14 C29 1.264 . S
O15 Mg4 1.942 . S
O15 C20 1.244 . S
O16 Mg4 1.955 . S
O16 C29 1.273 . S
O17 Mg6 2.114 . S
O17 Mg8 2.291 . S
O17 C19 1.312 . S
O18 Mg3 2.031 1_545 S
O18 C19 1.208 . S
C19 O17 1.312 . S
C19 O18 1.208 . S
C20 O12 1.331 . S
C20 O15 1.244 . S
O21 Mg6 2.013 . S
O21 C10 1.191 . S
O22 C1 1.331 . S
O22 Mg8 2.081 . S
O23 Mg4 1.986 1_545 S
O23 C10 1.307 . S
O24 C2 1.264 . S
O24 Mg8 2.023 . S
O25 C1 1.244 . S
O25 Mg9 1.942 . S
O26 C2 1.273 . S
O26 Mg9 1.955 . S
O27 C0 1.312 . S
O27 Mg3 2.291 1_545 S
O27 Mg6 2.114 . S
O28 C0 1.208 . S
O28 Mg8 2.031 . S
C29 O14 1.264 . S
C29 O16 1.273 . S
C30 O11 1.191 . S
C30 O13 1.307 . S
C31 O58 1.312 . S
C31 O59 1.208 . S
C32 O53 1.331 . S
C32 O56 1.244 . S
C33 O55 1.264 . S
C33 O57 1.273 . S
Mg34 O36 1.936 . S
Mg34 O43 2.081 . S
Mg34 O45 2.023 . S
Mg34 O49 2.031 . S
Mg34 O58 2.291 . S
Mg35 O36 1.963 . S
Mg35 O46 1.942 . S
Mg35 O47 1.955 . S
Mg35 O54 1.986 . S
O36 Mg34 1.936 . S
O36 Mg35 1.963 . S
O36 Mg37 1.915 . S
Mg37 O36 1.915 . S
Mg37 O38 1.915 . S
Mg37 O42 2.013 . S
Mg37 O48 2.114 . S
Mg37 O52 2.013 . S
Mg37 O58 2.114 . S
O38 Mg37 1.915 . S
O38 Mg39 1.936 . S
O38 Mg40 1.963 . S
Mg39 O38 1.936 . S
Mg39 O48 2.291 . S
Mg39 O53 2.081 . S
Mg39 O55 2.023 . S
Mg39 O59 2.031 . S
Mg40 O38 1.963 . S
Mg40 O44 1.986 . S
Mg40 O56 1.942 . S
Mg40 O57 1.955 . S
C41 O52 1.191 . S
C41 O54 1.307 . S
O42 Mg37 2.013 . S
O42 C61 1.191 . S
O43 Mg34 2.081 . S
O43 C51 1.331 . S
O44 Mg40 1.986 . S
O44 C61 1.307 . S
O45 Mg34 2.023 . S
O45 C60 1.264 . S
O46 Mg35 1.942 . S
O46 C51 1.244 . S
O47 Mg35 1.955 . S
O47 C60 1.273 . S
O48 Mg37 2.114 . S
O48 Mg39 2.291 . S
O48 C50 1.312 . S
O49 Mg34 2.031 . S
O49 C50 1.208 . S
C50 O48 1.312 . S
C50 O49 1.208 . S
C51 O43 1.331 . S
C51 O46 1.244 . S
O52 Mg37 2.013 . S
O52 C41 1.191 . S
O53 C32 1.331 . S
O53 Mg39 2.081 . S
O54 Mg35 1.986 . S
O54 C41 1.307 . S
O55 C33 1.264 . S
O55 Mg39 2.023 . S
O56 C32 1.244 . S
O56 Mg40 1.942 . S
O57 C33 1.273 . S
O57 Mg40 1.955 . S
O58 C31 1.312 . S
O58 Mg34 2.291 . S
O58 Mg37 2.114 . S
O59 C31 1.208 . S
O59 Mg39 2.031 . S
C60 O45 1.264 . S
C60 O47 1.273 . S
C61 O42 1.191 . S
C61 O44 1.307 . S
C62 O89 1.312 . S
C62 O90 1.208 . S
C63 O84 1.331 . S
C63 O87 1.244 . S
C64 O86 1.264 . S
C64 O88 1.273 . S
Mg65 O67 1.936 . S
Mg65 O74 2.081 1_565 S
Mg65 O76 2.023 1_565 S
Mg65 O80 2.031 . S
Mg65 O89 2.291 . S
Mg66 O67 1.963 1_545 S
Mg66 O77 1.942 . S
Mg66 O78 1.955 . S
Mg66 O85 1.986 1_545 S
O67 Mg65 1.936 . S
O67 Mg66 1.963 1_565 S
O67 Mg68 1.915 . S
Mg68 O67 1.915 . S
Mg68 O69 1.915 . S
Mg68 O73 2.013 . S
Mg68 O79 2.114 . S
Mg68 O83 2.013 . S
Mg68 O89 2.114 . S
O69 Mg68 1.915 . S
O69 Mg70 1.936 . S
O69 Mg71 1.963 . S
Mg70 O69 1.936 . S
Mg70 O79 2.291 . S
Mg70 O84 2.081 . S
Mg70 O86 2.023 . S
Mg70 O90 2.031 . S
Mg71 O69 1.963 . S
Mg71 O75 1.986 . S
Mg71 O87 1.942 . S
Mg71 O88 1.955 . S
C72 O83 1.191 . S
C72 O85 1.307 . S
O73 Mg68 2.013 . S
O73 C92 1.191 . S
O74 Mg65 2.081 1_545 S
O74 C82 1.331 . S
O75 Mg71 1.986 . S
O75 C92 1.307 . S
O76 Mg65 2.023 1_545 S
O76 C91 1.264 . S
O77 Mg66 1.942 . S
O77 C82 1.244 . S
O78 Mg66 1.955 . S
O78 C91 1.273 . S
O79 Mg68 2.114 . S
O79 Mg70 2.291 . S
O79 C81 1.312 . S
O80 Mg65 2.031 . S
O80 C81 1.208 . S
C81 O79 1.312 . S
C81 O80 1.208 . S
C82 O74 1.331 . S
C82 O77 1.244 . S
O83 Mg68 2.013 . S
O83 C72 1.191 . S
O84 C63 1.331 . S
O84 Mg70 2.081 . S
O85 Mg66 1.986 1_565 S
O85 C72 1.307 . S
O86 C64 1.264 . S
O86 Mg70 2.023 . S
O87 C63 1.244 . S
O87 Mg71 1.942 . S
O88 C64 1.273 . S
O88 Mg71 1.955 . S
O89 C62 1.312 . S
O89 Mg65 2.291 . S
O89 Mg68 2.114 . S
O90 C62 1.208 . S
O90 Mg70 2.031 . S
C91 O76 1.264 . S
C91 O78 1.273 . S
C92 O73 1.191 . S
C92 O75 1.307 . S
C93 O120 1.312 . S
C93 O121 1.208 . S
C94 O115 1.331 . S
C94 O118 1.244 . S
C95 O117 1.264 . S
C95 O119 1.273 . S
Mg96 O98 1.936 . S
Mg96 O105 2.081 . S
Mg96 O107 2.023 . S
Mg96 O111 2.031 . S
Mg96 O120 2.291 . S
Mg97 O98 1.963 . S
Mg97 O108 1.942 . S
Mg97 O109 1.955 . S
Mg97 O116 1.986 . S
O98 Mg96 1.936 . S
O98 Mg97 1.963 . S
O98 Mg99 1.915 . S
Mg99 O98 1.915 . S
Mg99 O100 1.915 . S
Mg99 O104 2.013 . S
Mg99 O110 2.114 . S
Mg99 O114 2.013 . S
Mg99 O120 2.114 . S
O100 Mg99 1.915 . S
O100 Mg101 1.936 . S
O100 Mg102 1.963 . S
Mg101 O100 1.936 . S
Mg101 O110 2.291 . S
Mg101 O115 2.081 . S
Mg101 O117 2.023 . S
Mg101 O121 2.031 . S
Mg102 O100 1.963 . S
Mg102 O106 1.986 . S
Mg102 O118 1.942 . S
Mg102 O119 1.955 . S
C103 O114 1.191 . S
C103 O116 1.307 . S
O104 Mg99 2.013 . S
O104 C123 1.191 . S
O105 Mg96 2.081 . S
O105 C113 1.331 . S
O106 Mg102 1.986 . S
O106 C123 1.307 . S
O107 Mg96 2.023 . S
O107 C122 1.264 . S
O108 Mg97 1.942 . S
O108 C113 1.244 . S
O109 Mg97 1.955 . S
O109 C122 1.273 . S
O110 Mg99 2.114 . S
O110 Mg101 2.291 . S
O110 C112 1.312 . S
O111 Mg96 2.031 . S
O111 C112 1.208 . S
C112 O110 1.312 . S
C112 O111 1.208 . S
C113 O105 1.331 . S
C113 O108 1.244 . S
O114 Mg99 2.013 . S
O114 C103 1.191 . S
O115 C94 1.331 . S
O115 Mg101 2.081 . S
O116 Mg97 1.986 . S
O116 C103 1.307 . S
O117 C95 1.264 . S
O117 Mg101 2.023 . S
O118 C94 1.244 . S
O118 Mg102 1.942 . S
O119 C95 1.273 . S
O119 Mg102 1.955 . S
O120 C93 1.312 . S
O120 Mg96 2.291 . S
O120 Mg99 2.114 . S
O121 C93 1.208 . S
O121 Mg101 2.031 . S
C122 O107 1.264 . S
C122 O109 1.273 . S
C123 O104 1.191 . S
C123 O106 1.307 . S
C124 C125 1.386 . S
C124 C126 1.383 . S
C124 H140 0.951 . S
C125 C124 1.386 . S
C125 C129 1.383 . S
C126 C124 1.383 . S
C126 C127 1.402 . S
C126 H141 0.951 . S
C127 C126 1.402 . S
C127 C128 1.375 . S
C127 C130 1.481 . S
C128 C127 1.375 . S
C128 C129 1.367 . S
C128 H142 0.951 . S
C129 C125 1.383 . S
C129 C128 1.367 . S
C129 H143 0.950 . S
C130 C127 1.481 . S
C130 C131 1.297 . S
C130 H144 0.950 . S
C131 C130 1.297 . S
C131 C132 1.479 . S
C131 H145 0.950 . S
C132 C131 1.479 . S
C132 C133 1.375 . S
C132 C138 1.404 . S
C133 C132 1.375 . S
C133 C134 1.369 . S
C133 H146 0.950 . S
C134 C133 1.369 . S
C134 C135 1.392 . S
C134 H147 0.951 . S
C135 C134 1.392 . S
C135 C137 1.384 . S
H136 C138 0.949 . S
C137 C135 1.384 . S
C137 C138 1.385 . S
C137 H139 0.950 . S
C138 C132 1.404 . S
C138 H136 0.949 . S
C138 C137 1.385 . S
H139 C137 0.950 . S
H140 C124 0.951 . S
H141 C126 0.951 . S
H142 C128 0.951 . S
H143 C129 0.950 . S
H144 C130 0.950 . S
H145 C131 0.950 . S
H146 C133 0.950 . S
H147 C134 0.951 . S
C148 C149 1.386 . S
C148 C150 1.383 . S
C148 H164 0.951 . S
C149 C148 1.386 . S
C149 C153 1.383 . S
C150 C148 1.383 . S
C150 C151 1.402 1_565 S
C150 H165 0.951 1_565 S
C151 C150 1.402 1_545 S
C151 C152 1.375 1_545 S
C151 C154 1.481 . S
C152 C151 1.375 1_565 S
C152 C153 1.367 . S
C152 H166 0.951 . S
C153 C149 1.383 . S
C153 C152 1.367 . S
C153 H167 0.950 . S
C154 C151 1.481 . S
C154 C155 1.297 . S
C154 H168 0.950 . S
C155 C154 1.297 . S
C155 C156 1.479 . S
C155 H169 0.950 . S
C156 C155 1.479 . S
C156 C157 1.375 . S
C156 C162 1.404 . S
C157 C156 1.375 . S
C157 C158 1.369 . S
C157 H170 0.950 . S
C158 C157 1.369 . S
C158 C159 1.392 . S
C158 H171 0.951 . S
C159 C158 1.392 . S
C159 C161 1.384 . S
H160 C162 0.949 . S
C161 C159 1.384 . S
C161 C162 1.385 . S
C161 H163 0.950 . S
C162 C156 1.404 . S
C162 H160 0.949 . S
C162 C161 1.385 . S
H163 C161 0.950 . S
H164 C148 0.951 . S
H165 C150 0.951 1_545 S
H166 C152 0.951 . S
H167 C153 0.950 . S
H168 C154 0.950 . S
H169 C155 0.950 . S
H170 C157 0.950 . S
H171 C158 0.951 . S
C172 C173 1.386 . S
C172 C174 1.383 . S
C172 H188 0.951 . S
C173 C172 1.386 . S
C173 C177 1.383 . S
C174 C172 1.383 . S
C174 C175 1.402 . S
C174 H189 0.951 . S
C175 C174 1.402 . S
C175 C176 1.375 . S
C175 C178 1.481 . S
C176 C175 1.375 . S
C176 C177 1.367 . S
C176 H190 0.951 . S
C177 C173 1.383 . S
C177 C176 1.367 . S
C177 H191 0.950 . S
C178 C175 1.481 . S
C178 C179 1.297 . S
C178 H192 0.950 . S
C179 C178 1.297 . S
C179 C180 1.479 . S
C179 H193 0.950 . S
C180 C179 1.479 . S
C180 C181 1.375 . S
C180 C186 1.404 . S
C181 C180 1.375 . S
C181 C182 1.369 . S
C181 H194 0.950 . S
C182 C181 1.369 . S
C182 C183 1.392 . S
C182 H195 0.951 . S
C183 C182 1.392 . S
C183 C185 1.384 . S
H184 C186 0.949 . S
C185 C183 1.384 . S
C185 C186 1.385 . S
C185 H187 0.950 . S
C186 C180 1.404 . S
C186 H184 0.949 . S
C186 C185 1.385 . S
H187 C185 0.950 . S
H188 C172 0.951 . S
H189 C174 0.951 . S
H190 C176 0.951 . S
H191 C177 0.950 . S
H192 C178 0.950 . S
H193 C179 0.950 . S
H194 C181 0.950 . S
H195 C182 0.951 . S
C196 C197 1.386 . S
C196 C198 1.383 . S
C196 H212 0.951 . S
C197 C196 1.386 . S
C197 C201 1.383 . S
C198 C196 1.383 . S
C198 C199 1.402 1_545 S
C198 H213 0.951 1_545 S
C199 C198 1.402 1_565 S
C199 C200 1.375 1_565 S
C199 C202 1.481 . S
C200 C199 1.375 1_545 S
C200 C201 1.367 . S
C200 H214 0.951 . S
C201 C197 1.383 . S
C201 C200 1.367 . S
C201 H215 0.950 . S
C202 C199 1.481 . S
C202 C203 1.297 . S
C202 H216 0.950 . S
C203 C202 1.297 . S
C203 C204 1.479 . S
C203 H217 0.950 . S
C204 C203 1.479 . S
C204 C205 1.375 . S
C204 C210 1.404 . S
C205 C204 1.375 . S
C205 C206 1.369 . S
C205 H218 0.950 . S
C206 C205 1.369 . S
C206 C207 1.392 . S
C206 H219 0.951 . S
C207 C206 1.392 . S
C207 C209 1.384 . S
H208 C210 0.949 . S
C209 C207 1.384 . S
C209 C210 1.385 . S
C209 H211 0.950 . S
C210 C204 1.404 . S
C210 H208 0.949 . S
C210 C209 1.385 . S
H211 C209 0.950 . S
H212 C196 0.951 . S
H213 C198 0.951 1_565 S
H214 C200 0.951 . S
H215 C201 0.950 . S
H216 C202 0.950 . S
H217 C203 0.950 . S
H218 C205 0.950 . S
H219 C206 0.951 . S
C220 C221 1.386 . S
C220 C222 1.383 . S
C220 H236 0.951 . S
C221 C220 1.386 . S
C221 C225 1.383 . S
C222 C220 1.383 . S
C222 C223 1.402 . S
C222 H237 0.951 . S
C223 C222 1.402 . S
C223 C224 1.375 . S
C223 C226 1.481 . S
C224 C223 1.375 . S
C224 C225 1.367 . S
C224 H238 0.951 . S
C225 C221 1.383 . S
C225 C224 1.367 . S
C225 H239 0.950 . S
C226 C223 1.481 . S
C226 C227 1.297 . S
C226 H240 0.950 . S
C227 C226 1.297 . S
C227 C228 1.479 . S
C227 H241 0.950 . S
C228 C227 1.479 . S
C228 C229 1.375 . S
C228 C234 1.404 . S
C229 C228 1.375 . S
C229 C230 1.369 . S
C229 H242 0.950 . S
C230 C229 1.369 . S
C230 C231 1.392 . S
C230 H243 0.951 . S
C231 C230 1.392 . S
C231 C233 1.384 . S
H232 C234 0.949 . S
C233 C231 1.384 . S
C233 C234 1.385 . S
C233 H235 0.950 1_565 S
C234 C228 1.404 . S
C234 H232 0.949 . S
C234 C233 1.385 . S
H235 C233 0.950 1_545 S
H236 C220 0.951 . S
H237 C222 0.951 . S
H238 C224 0.951 . S
H239 C225 0.950 . S
H240 C226 0.950 . S
H241 C227 0.950 . S
H242 C229 0.950 . S
H243 C230 0.951 . S
C244 C245 1.386 . S
C244 C246 1.383 . S
C244 H260 0.951 . S
C245 C244 1.386 . S
C245 C249 1.383 . S
C246 C244 1.383 . S
C246 C247 1.402 . S
C246 H261 0.951 . S
C247 C246 1.402 . S
C247 C248 1.375 . S
C247 C250 1.481 . S
C248 C247 1.375 . S
C248 C249 1.367 . S
C248 H262 0.951 . S
C249 C245 1.383 . S
C249 C248 1.367 . S
C249 H263 0.950 . S
C250 C247 1.481 . S
C250 C251 1.297 . S
C250 H264 0.950 . S
C251 C250 1.297 . S
C251 C252 1.479 . S
C251 H265 0.950 . S
C252 C251 1.479 . S
C252 C253 1.375 . S
C252 C258 1.404 . S
C253 C252 1.375 . S
C253 C254 1.369 . S
C253 H266 0.950 . S
C254 C253 1.369 . S
C254 C255 1.392 . S
C254 H267 0.951 . S
C255 C254 1.392 . S
C255 C257 1.384 . S
H256 C258 0.949 . S
C257 C255 1.384 . S
C257 C258 1.385 . S
C257 H259 0.950 . S
C258 C252 1.404 . S
C258 H256 0.949 . S
C258 C257 1.385 . S
H259 C257 0.950 . S
H260 C244 0.951 . S
H261 C246 0.951 . S
H262 C248 0.951 . S
H263 C249 0.950 . S
H264 C250 0.950 . S
H265 C251 0.950 . S
H266 C253 0.950 . S
H267 C254 0.951 . S
C268 C269 1.386 . S
C268 C270 1.383 . S
C268 H284 0.951 . S
C269 C268 1.386 . S
C269 C273 1.383 . S
C270 C268 1.383 . S
C270 C271 1.402 . S
C270 H285 0.951 . S
C271 C270 1.402 . S
C271 C272 1.375 . S
C271 C274 1.481 . S
C272 C271 1.375 . S
C272 C273 1.367 . S
C272 H286 0.951 . S
C273 C269 1.383 . S
C273 C272 1.367 . S
C273 H287 0.950 . S
C274 C271 1.481 . S
C274 C275 1.297 . S
C274 H288 0.950 . S
C275 C274 1.297 . S
C275 C276 1.479 . S
C275 H289 0.950 . S
C276 C275 1.479 . S
C276 C277 1.375 . S
C276 C282 1.404 . S
C277 C276 1.375 . S
C277 C278 1.369 . S
C277 H290 0.950 . S
C278 C277 1.369 . S
C278 C279 1.392 . S
C278 H291 0.951 . S
C279 C278 1.392 . S
C279 C281 1.384 . S
H280 C282 0.949 . S
C281 C279 1.384 . S
C281 C282 1.385 . S
C281 H283 0.950 . S
C282 C276 1.404 . S
C282 H280 0.949 . S
C282 C281 1.385 . S
H283 C281 0.950 . S
H284 C268 0.951 . S
H285 C270 0.951 . S
H286 C272 0.951 . S
H287 C273 0.950 . S
H288 C274 0.950 . S
H289 C275 0.950 . S
H290 C277 0.950 . S
H291 C278 0.951 . S
C292 C293 1.386 . S
C292 C294 1.383 . S
C292 H308 0.951 . S
C293 C292 1.386 . S
C293 C297 1.383 . S
C294 C292 1.383 . S
C294 C295 1.402 . S
C294 H309 0.951 . S
C295 C294 1.402 . S
C295 C296 1.375 . S
C295 C298 1.481 . S
C296 C295 1.375 . S
C296 C297 1.367 . S
C296 H310 0.951 . S
C297 C293 1.383 . S
C297 C296 1.367 . S
C297 H311 0.950 . S
C298 C295 1.481 . S
C298 C299 1.297 . S
C298 H312 0.950 . S
C299 C298 1.297 . S
C299 C300 1.479 . S
C299 H313 0.950 . S
C300 C299 1.479 . S
C300 C301 1.375 . S
C300 C306 1.404 . S
C301 C300 1.375 . S
C301 C302 1.369 . S
C301 H314 0.950 . S
C302 C301 1.369 . S
C302 C303 1.392 . S
C302 H315 0.951 . S
C303 C302 1.392 . S
C303 C305 1.384 . S
H304 C306 0.949 . S
C305 C303 1.384 . S
C305 C306 1.385 . S
C305 H307 0.950 . S
C306 C300 1.404 . S
C306 H304 0.949 . S
C306 C305 1.385 . S
H307 C305 0.950 . S
H308 C292 0.951 . S
H309 C294 0.951 . S
H310 C296 0.951 . S
H311 C297 0.950 . S
H312 C298 0.950 . S
H313 C299 0.950 . S
H314 C301 0.950 . S
H315 C302 0.951 . S
C316 C317 1.386 1_565 S
C316 C318 1.383 . S
C316 H332 0.951 . S
C317 C316 1.386 1_545 S
C317 C321 1.383 . S
C318 C316 1.383 . S
C318 C319 1.402 1_565 S
C318 H333 0.934 1_554 S
C319 C318 1.402 1_545 S
C319 C320 1.375 . S
C319 C322 1.481 . S
C320 C319 1.375 . S
C320 C321 1.367 . S
C320 H334 0.951 . S
C321 C317 1.383 . S
C321 C320 1.367 . S
C321 H335 0.950 . S
C322 C319 1.481 . S
C322 C323 1.297 1_444 S
C322 H336 0.950 1_455 S
C323 C322 1.297 1_666 S
C323 C324 1.479 . S
C323 H337 0.950 1_655 S
C324 C323 1.479 . S
C324 C325 1.375 . S
C324 C330 1.404 . S
C325 C324 1.375 . S
C325 C326 1.369 . S
C325 H338 0.950 . S
C326 C325 1.369 . S
C326 C327 1.392 . S
C326 H339 0.951 . S
C327 C326 1.392 . S
C327 C329 1.384 . S
H328 C330 0.949 1_544 S
C329 C327 1.384 . S
C329 C330 1.385 . S
C329 H331 0.950 1_565 S
C330 C324 1.404 . S
C330 H328 0.949 1_566 S
C330 C329 1.385 . S
H331 C329 0.950 1_545 S
H332 C316 0.951 . S
H333 C318 0.934 1_556 S
H334 C320 0.951 . S
H335 C321 0.950 . S
H336 C322 0.950 1_655 S
H337 C323 0.950 1_455 S
H338 C325 0.950 . S
H339 C326 0.951 . S
C340 C341 1.386 . S
C340 C342 1.383 . S
C340 H356 0.951 . S
C341 C340 1.386 . S
C341 C345 1.383 . S
C342 C340 1.383 . S
C342 C343 1.402 . S
C342 H357 0.951 . S
C343 C342 1.402 . S
C343 C344 1.375 . S
C343 C346 1.481 . S
C344 C343 1.375 . S
C344 C345 1.367 . S
C344 H358 0.951 . S
C345 C341 1.383 . S
C345 C344 1.367 . S
C345 H359 0.950 . S
C346 C343 1.481 . S
C346 C347 1.297 1_455 S
C346 H360 0.950 1_455 S
C347 C346 1.297 1_655 S
C347 C348 1.479 . S
C347 H361 0.950 1_655 S
C348 C347 1.479 . S
C348 C349 1.375 . S
C348 C354 1.404 . S
C349 C348 1.375 . S
C349 C350 1.369 . S
C349 H362 0.950 . S
C350 C349 1.369 . S
C350 C351 1.392 . S
C350 H363 0.951 . S
C351 C350 1.392 . S
C351 C353 1.384 . S
H352 C354 0.949 . S
C353 C351 1.384 . S
C353 C354 1.385 . S
C353 H355 0.950 . S
C354 C348 1.404 . S
C354 H352 0.949 . S
C354 C353 1.385 . S
H355 C353 0.950 . S
H356 C340 0.951 . S
H357 C342 0.951 . S
H358 C344 0.951 . S
H359 C345 0.950 . S
H360 C346 0.950 1_655 S
H361 C347 0.950 1_455 S
H362 C349 0.950 . S
H363 C350 0.951 . S
C364 C365 1.386 . S
C364 C366 1.383 . S
C364 H380 0.951 . S
C365 C364 1.386 . S
C365 C369 1.383 1_545 S
C366 C364 1.383 . S
C366 C367 1.402 1_545 S
C366 H381 0.951 . S
C367 C366 1.402 1_565 S
C367 C368 1.375 . S
C367 C370 1.481 . S
C368 C367 1.375 . S
C368 C369 1.367 . S
C368 H382 0.951 . S
C369 C365 1.383 1_565 S
C369 C368 1.367 . S
C369 H383 0.950 . S
C370 C367 1.481 . S
C370 C371 1.290 1_565 S
C370 H384 0.950 . S
C371 C370 1.290 1_545 S
C371 C372 1.475 1_544 S
C371 H385 0.963 . S
C372 C371 1.475 1_566 S
C372 C373 1.375 1_565 S
C372 C378 1.404 . S
C373 C372 1.375 1_545 S
C373 C374 1.369 . S
C373 H386 0.950 1_556 S
C374 C373 1.369 . S
C374 C375 1.392 1_545 S
C374 H387 0.951 . S
C375 C374 1.392 1_565 S
C375 C377 1.384 . S
H376 C378 0.949 . S
C377 C375 1.384 . S
C377 C378 1.385 . S
C377 H379 0.950 . S
C378 C372 1.404 . S
C378 H376 0.949 . S
C378 C377 1.385 . S
H379 C377 0.950 . S
H380 C364 0.951 . S
H381 C366 0.951 . S
H382 C368 0.951 . S
H383 C369 0.950 . S
H384 C370 0.950 . S
H385 C371 0.963 . S
H386 C373 0.950 1_554 S
H387 C374 0.951 . S
C388 C389 1.386 . S
C388 C390 1.383 . S
C388 H404 0.951 . S
C389 C388 1.386 . S
C389 C393 1.383 . S
C390 C388 1.383 . S
C390 C391 1.402 . S
C390 H405 0.951 . S
C391 C390 1.402 . S
C391 C392 1.375 . S
C391 C394 1.481 . S
C392 C391 1.375 . S
C392 C393 1.367 . S
C392 H406 0.951 . S
C393 C389 1.383 . S
C393 C392 1.367 . S
C393 H407 0.950 . S
C394 C391 1.481 . S
C394 C395 1.297 . S
C394 H408 0.950 . S
C395 C394 1.297 . S
C395 C396 1.479 . S
C395 H409 0.950 . S
C396 C395 1.479 . S
C396 C397 1.375 . S
C396 C402 1.404 . S
C397 C396 1.375 . S
C397 C398 1.369 . S
C397 H410 0.950 . S
C398 C397 1.369 . S
C398 C399 1.392 . S
C398 H411 0.951 . S
C399 C398 1.392 . S
C399 C401 1.384 . S
H400 C402 0.949 . S
C401 C399 1.384 . S
C401 C402 1.385 . S
C401 H403 0.950 . S
C402 C396 1.404 . S
C402 H400 0.949 . S
C402 C401 1.385 . S
H403 C401 0.950 . S
H404 C388 0.951 . S
H405 C390 0.951 . S
H406 C392 0.951 . S
H407 C393 0.950 . S
H408 C394 0.950 . S
H409 C395 0.950 . S
H410 C397 0.950 . S
H411 C398 0.951 . S
C412 C413 1.386 . S
C412 C414 1.383 . S
C412 H428 0.951 . S
C413 C412 1.386 . S
C413 C417 1.383 . S
C414 C412 1.383 . S
C414 C415 1.402 . S
C414 H429 0.951 . S
C415 C414 1.402 . S
C415 C416 1.375 . S
C415 C418 1.481 . S
C416 C415 1.375 . S
C416 C417 1.367 . S
C416 H430 0.951 . S
C417 C413 1.383 . S
C417 C416 1.367 . S
C417 H431 0.950 . S
C418 C415 1.481 . S
C418 C419 1.297 . S
C418 H432 0.950 . S
C419 C418 1.297 . S
C419 C420 1.479 . S
C419 H433 0.950 . S
C420 C419 1.479 . S
C420 C421 1.375 . S
C420 C426 1.404 . S
C421 C420 1.375 . S
C421 C422 1.369 . S
C421 H434 0.950 . S
C422 C421 1.369 . S
C422 C423 1.392 . S
C422 H435 0.951 . S
C423 C422 1.392 . S
C423 C425 1.384 . S
H424 C426 0.949 . S
C425 C423 1.384 . S
C425 C426 1.385 . S
C425 H427 0.950 . S
C426 C420 1.404 . S
C426 H424 0.949 . S
C426 C425 1.385 . S
H427 C425 0.950 . S
H428 C412 0.951 . S
H429 C414 0.951 . S
H430 C416 0.951 . S
H431 C417 0.950 . S
H432 C418 0.950 . S
H433 C419 0.950 . S
H434 C421 0.950 . S
H435 C422 0.951 . S
C436 C437 1.386 . S
C436 C438 1.383 . S
C436 H452 0.951 . S
C437 C436 1.386 . S
C437 C441 1.383 . S
C438 C436 1.383 . S
C438 C439 1.402 . S
C438 H453 0.951 . S
C439 C438 1.402 . S
C439 C440 1.375 . S
C439 C442 1.481 . S
C440 C439 1.375 . S
C440 C441 1.367 . S
C440 H454 0.951 . S
C441 C437 1.383 . S
C441 C440 1.367 . S
C441 H455 0.950 . S
C442 C439 1.481 . S
C442 C443 1.297 . S
C442 H456 0.950 . S
C443 C442 1.297 . S
C443 C444 1.479 . S
C443 H457 0.950 . S
C444 C443 1.479 . S
C444 C445 1.375 . S
C444 C450 1.404 . S
C445 C444 1.375 . S
C445 C446 1.369 . S
C445 H458 0.950 . S
C446 C445 1.369 . S
C446 C447 1.392 . S
C446 H459 0.951 . S
C447 C446 1.392 . S
C447 C449 1.384 . S
H448 C450 0.949 . S
C449 C447 1.384 . S
C449 C450 1.385 . S
C449 H451 0.950 . S
C450 C444 1.404 . S
C450 H448 0.949 . S
C450 C449 1.385 . S
H451 C449 0.950 . S
H452 C436 0.951 . S
H453 C438 0.951 . S
H454 C440 0.951 . S
H455 C441 0.950 . S
H456 C442 0.950 . S
H457 C443 0.950 . S
H458 C445 0.950 . S
H459 C446 0.951 . S
C460 C461 1.386 . S
C460 C462 1.383 . S
C460 H476 0.951 . S
C461 C460 1.386 . S
C461 C465 1.383 . S
C462 C460 1.383 . S
C462 C463 1.402 . S
C462 H477 0.951 . S
C463 C462 1.402 . S
C463 C464 1.375 . S
C463 C466 1.481 . S
C464 C463 1.375 . S
C464 C465 1.367 . S
C464 H478 0.951 . S
C465 C461 1.383 . S
C465 C464 1.367 . S
C465 H479 0.950 . S
C466 C463 1.481 . S
C466 C467 1.297 . S
C466 H480 0.950 . S
C467 C466 1.297 . S
C467 C468 1.479 . S
C467 H481 0.950 . S
C468 C467 1.479 . S
C468 C469 1.375 . S
C468 C474 1.404 . S
C469 C468 1.375 . S
C469 C470 1.369 . S
C469 H482 0.950 . S
C470 C469 1.369 . S
C470 C471 1.392 . S
C470 H483 0.951 . S
C471 C470 1.392 . S
C471 C473 1.384 . S
H472 C474 0.949 . S
C473 C471 1.384 . S
C473 C474 1.385 . S
C473 H475 0.950 . S
C474 C468 1.404 . S
C474 H472 0.949 . S
C474 C473 1.385 . S
H475 C473 0.950 . S
H476 C460 0.951 . S
H477 C462 0.951 . S
H478 C464 0.951 . S
H479 C465 0.950 . S
H480 C466 0.950 . S
H481 C467 0.950 . S
H482 C469 0.950 . S
H483 C470 0.951 . S
C484 C485 1.386 . S
C484 C486 1.383 . S
C484 H500 0.951 . S
C485 C484 1.386 . S
C485 C489 1.383 . S
C486 C484 1.383 . S
C486 C487 1.402 . S
C486 H501 0.951 . S
C487 C486 1.402 . S
C487 C488 1.375 . S
C487 C490 1.481 . S
C488 C487 1.375 . S
C488 C489 1.367 . S
C488 H502 0.951 . S
C489 C485 1.383 . S
C489 C488 1.367 . S
C489 H503 0.950 . S
C490 C487 1.481 . S
C490 C491 1.297 . S
C490 H504 0.950 . S
C491 C490 1.297 . S
C491 C492 1.479 . S
C491 H505 0.950 . S
C492 C491 1.479 . S
C492 C493 1.375 . S
C492 C498 1.404 . S
C493 C492 1.375 . S
C493 C494 1.369 . S
C493 H506 0.950 . S
C494 C493 1.369 . S
C494 C495 1.392 . S
C494 H507 0.951 . S
C495 C494 1.392 . S
C495 C497 1.384 . S
H496 C498 0.949 . S
C497 C495 1.384 . S
C497 C498 1.385 . S
C497 H499 0.950 . S
C498 C492 1.404 . S
C498 H496 0.949 . S
C498 C497 1.385 . S
H499 C497 0.950 . S
H500 C484 0.951 . S
H501 C486 0.951 . S
H502 C488 0.951 . S
H503 C489 0.950 . S
H504 C490 0.950 . S
H505 C491 0.950 . S
H506 C493 0.950 . S
H507 C494 0.951 . S
C125 C1 1.165 . S
C135 C20 1.141 . S
C149 C33 1.664 . S
C159 C60 1.681 . S
C173 C64 1.630 . S
C183 C91 1.687 . S
C197 C122 1.633 . S
C207 C95 1.656 . S
C221 C50 1.082 . S
C231 C29 1.086 . S
C245 C51 0.892 . S
C255 C30 0.740 . S
C269 C93 0.900 . S
C279 C82 0.831 . S
C293 C81 0.942 . S
C303 C94 0.742 . S
C317 C19 1.132 . S
C327 C92 1.088 . S
C341 C103 1.088 . S
C351 C61 1.189 . S
C365 C10 0.853 . S
C375 C62 0.960 . S
C389 C112 0.846 . S
C399 C31 0.990 . S
C413 C123 1.970 . S
C423 C2 2.029 1_556 S
C437 C72 1.737 . S
C447 C32 1.807 . S
C461 C41 1.700 . S
C471 C63 1.786 1_554 S
C485 C113 1.929 . S
C495 C0 1.946 . S
