# Generated by pormake.
# Topology umz, (4)-cn, num edge types: 1
# Building blocks:
#     Node 0, Type 0, BuildingBlock: ICAMEG_clean_sbu_1, # of connection points: 4
#     Node 1, Type 0, BuildingBlock: ICAMEG_clean_sbu_1, # of connection points: 4
#     Node 2, Type 0, BuildingBlock: ICAMEG_clean_sbu_1, # of connection points: 4
#     Node 3, Type 0, BuildingBlock: ICAMEG_clean_sbu_1, # of connection points: 4
#     Node 4, Type 0, BuildingBlock: ICAMEG_clean_sbu_1, # of connection points: 4
#     Node 5, Type 0, BuildingBlock: ICAMEG_clean_sbu_1, # of connection points: 4
#     Node 6, Type 0, BuildingBlock: ICAMEG_clean_sbu_1, # of connection points: 4
#     Node 7, Type 0, BuildingBlock: ICAMEG_clean_sbu_1, # of connection points: 4
#     Node 8, Type 0, BuildingBlock: ICAMEG_clean_sbu_1, # of connection points: 4
#     Node 9, Type 0, BuildingBlock: ICAMEG_clean_sbu_1, # of connection points: 4
#     Node 10, Type 0, BuildingBlock: ICAMEG_clean_sbu_1, # of connection points: 4
#     Node 11, Type 0, BuildingBlock: ICAMEG_clean_sbu_1, # of connection points: 4
#     Node 12, Type 0, BuildingBlock: ICAMEG_clean_sbu_1, # of connection points: 4
#     Node 13, Type 0, BuildingBlock: ICAMEG_clean_sbu_1, # of connection points: 4
#     Node 14, Type 0, BuildingBlock: ICAMEG_clean_sbu_1, # of connection points: 4
#     Node 15, Type 0, BuildingBlock: ICAMEG_clean_sbu_1, # of connection points: 4
#     Edge 16, Type (0, 0), BuildingBlock: ZUJKAS_clean_linker_0, # of connection points: 2
#     Edge 17, Type (0, 0), BuildingBlock: ZUJKAS_clean_linker_0, # of connection points: 2
#     Edge 18, Type (0, 0), BuildingBlock: ZUJKAS_clean_linker_0, # of connection points: 2
#     Edge 19, Type (0, 0), BuildingBlock: ZUJKAS_clean_linker_0, # of connection points: 2
#     Edge 20, Type (0, 0), BuildingBlock: ZUJKAS_clean_linker_0, # of connection points: 2
#     Edge 21, Type (0, 0), BuildingBlock: ZUJKAS_clean_linker_0, # of connection points: 2
#     Edge 22, Type (0, 0), BuildingBlock: ZUJKAS_clean_linker_0, # of connection points: 2
#     Edge 23, Type (0, 0), BuildingBlock: ZUJKAS_clean_linker_0, # of connection points: 2
#     Edge 24, Type (0, 0), BuildingBlock: ZUJKAS_clean_linker_0, # of connection points: 2
#     Edge 25, Type (0, 0), BuildingBlock: ZUJKAS_clean_linker_0, # of connection points: 2
#     Edge 26, Type (0, 0), BuildingBlock: ZUJKAS_clean_linker_0, # of connection points: 2
#     Edge 27, Type (0, 0), BuildingBlock: ZUJKAS_clean_linker_0, # of connection points: 2
#     Edge 28, Type (0, 0), BuildingBlock: ZUJKAS_clean_linker_0, # of connection points: 2
#     Edge 29, Type (0, 0), BuildingBlock: ZUJKAS_clean_linker_0, # of connection points: 2
#     Edge 30, Type (0, 0), BuildingBlock: ZUJKAS_clean_linker_0, # of connection points: 2
#     Edge 31, Type (0, 0), BuildingBlock: ZUJKAS_clean_linker_0, # of connection points: 2
#     Edge 32, Type (0, 0), BuildingBlock: ZUJKAS_clean_linker_0, # of connection points: 2
#     Edge 33, Type (0, 0), BuildingBlock: ZUJKAS_clean_linker_0, # of connection points: 2
#     Edge 34, Type (0, 0), BuildingBlock: ZUJKAS_clean_linker_0, # of connection points: 2
#     Edge 35, Type (0, 0), BuildingBlock: ZUJKAS_clean_linker_0, # of connection points: 2
#     Edge 36, Type (0, 0), BuildingBlock: ZUJKAS_clean_linker_0, # of connection points: 2
#     Edge 37, Type (0, 0), BuildingBlock: ZUJKAS_clean_linker_0, # of connection points: 2
#     Edge 38, Type (0, 0), BuildingBlock: ZUJKAS_clean_linker_0, # of connection points: 2
#     Edge 39, Type (0, 0), BuildingBlock: ZUJKAS_clean_linker_0, # of connection points: 2
#     Edge 40, Type (0, 0), BuildingBlock: ZUJKAS_clean_linker_0, # of connection points: 2
#     Edge 41, Type (0, 0), BuildingBlock: ZUJKAS_clean_linker_0, # of connection points: 2
#     Edge 42, Type (0, 0), BuildingBlock: ZUJKAS_clean_linker_0, # of connection points: 2
#     Edge 43, Type (0, 0), BuildingBlock: ZUJKAS_clean_linker_0, # of connection points: 2
#     Edge 44, Type (0, 0), BuildingBlock: ZUJKAS_clean_linker_0, # of connection points: 2
#     Edge 45, Type (0, 0), BuildingBlock: ZUJKAS_clean_linker_0, # of connection points: 2
#     Edge 46, Type (0, 0), BuildingBlock: ZUJKAS_clean_linker_0, # of connection points: 2
#     Edge 47, Type (0, 0), BuildingBlock: ZUJKAS_clean_linker_0, # of connection points: 2
# Relax obj value: 0.213
# Max RMSD: 0.182
# Mean RMSD: 0.166
data_MOF--net-umz--node1-ICAMEG_clean_sbu_1--edge1-ZUJKAS_clean_linker_0
_symmetry_space_group_name_H-M    P1
_symmetry_Int_Tables_number       1
_symmetry_cell_setting            triclinic
loop_
_symmetry_equiv_pos_as_xyz
'x, y, z'
_cell_length_a     77.18113
_cell_length_b     77.17353
_cell_length_c     31.044206
_cell_angle_alpha  89.599105
_cell_angle_beta   90.409313
_cell_angle_gamma 89.805032
loop_
_atom_site_label
_atom_site_type_symbol
_atom_site_fract_x
_atom_site_fract_y
_atom_site_fract_z
_atom_type_partial_charge
Co0 Co 0.00226 0.59626 0.01415 0.0
Co1 Co 0.01277 0.63526 0.06034 0.0
O2 O 0.00797 0.62093 0.00988 0.0
C3 C 0.03037 0.59747 0.9491 0.0
O4 O 0.03843 0.6089 0.97295 0.0
C5 C 0.98522 0.65787 0.02102 0.0
O6 O 0.97379 0.64546 0.02593 0.0
O7 O 0.99053 0.62809 0.08742 0.0
O8 O 0.9883 0.60034 0.06698 0.0
H9 H 0.01656 0.64794 0.21868 0.0
H10 H 0.99565 0.6154 0.93257 0.0
O11 O 0.01589 0.59128 0.96097 0.0
H12 H 0.93865 0.59335 0.9777 0.0
H13 H 0.98512 0.53812 0.95499 0.0
H14 H 0.00083 0.57064 0.08567 0.0
H15 H 0.96483 0.58706 0.02109 0.0
H16 H 0.99193 0.56929 0.95056 0.0
O17 O 0.00102 0.65546 0.03159 0.0
H18 H 0.01099 0.62986 0.15489 0.0
H19 H 0.02414 0.67185 0.07232 0.0
H20 H 0.99399 0.53953 0.09161 0.0
H21 H 0.9698 0.62189 0.88799 0.0
H22 H 0.98607 0.52305 0.02593 0.0
H23 H 0.94105 0.61085 0.91055 0.0
O24 O 0.02319 0.59161 0.0505 0.0
H25 H 0.05009 0.6567 0.93934 0.0
H26 H 0.04952 0.63701 0.09077 0.0
H27 H 0.07723 0.64518 0.05737 0.0
H28 H 0.07763 0.65516 0.98113 0.0
H29 H 0.0227 0.64818 0.97386 0.0
H30 H 0.0297 0.69042 0.13521 0.0
H31 H 0.02598 0.67846 0.20904 0.0
O32 O 0.02488 0.61567 0.09038 0.0
C33 C 0.98356 0.61316 0.08982 0.0
C34 C 0.01828 0.65328 0.18667 0.0
C35 C 0.02563 0.67713 0.13983 0.0
N36 N 0.01736 0.64975 0.10993 0.0
C37 C 0.01519 0.6431 0.15043 0.0
C38 C 0.02243 0.66657 0.10433 0.0
C39 C 0.02355 0.67041 0.18124 0.0
C40 C 0.9832 0.61045 0.9424 0.0
N41 N 0.98177 0.60077 0.97921 0.0
C42 C 0.9686 0.61421 0.91712 0.0
C43 C 0.95247 0.60803 0.92982 0.0
C44 C 0.95111 0.59821 0.96749 0.0
C45 C 0.96598 0.59472 0.99198 0.0
C46 C 0.98852 0.54517 0.98385 0.0
C47 C 0.99729 0.56359 0.05698 0.0
C48 C 0.99242 0.56281 0.98153 0.0
N49 N 0.99665 0.57181 0.01788 0.0
C50 C 0.99348 0.54596 0.06053 0.0
C51 C 0.98905 0.53672 0.02366 0.0
C52 C 0.02919 0.60006 0.08247 0.0
C53 C 0.05008 0.65241 0.97261 0.0
C54 C 0.0496 0.64121 0.05751 0.0
C55 C 0.06532 0.6459 0.03881 0.0
C56 C 0.06553 0.65151 0.99605 0.0
N57 N 0.0345 0.64211 0.03429 0.0
C58 C 0.0346 0.64764 0.99239 0.0
Co59 Co 0.89589 0.99199 0.52485 0.0
Co60 Co 0.86264 0.01233 0.58013 0.0
O61 O 0.8732 0.00355 0.52714 0.0
C62 C 0.90026 0.02189 0.46413 0.0
O63 O 0.89242 0.03207 0.49161 0.0
C64 C 0.83637 0.98725 0.54746 0.0
O65 O 0.8487 0.9774 0.532 0.0
O66 O 0.86899 0.99087 0.61324 0.0
O67 O 0.88978 0.97752 0.57536 0.0
H68 H 0.86139 0.02605 0.73806 0.0
H69 H 0.87347 0.99369 0.44697 0.0
O70 O 0.90255 0.00592 0.47302 0.0
H71 H 0.88234 0.93138 0.47609 0.0
H72 H 0.94629 0.96356 0.45068 0.0
H73 H 0.92191 0.98101 0.59027 0.0
H74 H 0.89603 0.95332 0.52246 0.0
H75 H 0.91781 0.97804 0.45401 0.0
O76 O 0.83986 0.0016 0.56543 0.0
H77 H 0.87424 0.015 0.67108 0.0
H78 H 0.82861 0.02862 0.6012 0.0
H79 H 0.95036 0.9664 0.58845 0.0
H80 H 0.85969 0.97219 0.39946 0.0
H81 H 0.96274 0.95758 0.51826 0.0
H82 H 0.86404 0.94078 0.414 0.0
O83 O 0.90684 0.00964 0.56386 0.0
H84 H 0.83814 0.04536 0.45362 0.0
H85 H 0.86587 0.05024 0.59658 0.0
H86 H 0.85853 0.07679 0.55556 0.0
H87 H 0.84453 0.07444 0.48355 0.0
H88 H 0.84586 0.01915 0.49564 0.0
H89 H 0.81521 0.03966 0.66751 0.0
H90 H 0.83166 0.03847 0.73654 0.0
O91 O 0.88484 0.0232 0.59688 0.0
C92 C 0.87951 0.97836 0.60711 0.0
C93 C 0.85411 0.02668 0.70816 0.0
C94 C 0.82818 0.03429 0.66857 0.0
N95 N 0.85223 0.02125 0.63222 0.0
C96 C 0.86133 0.02048 0.67011 0.0
C97 C 0.83582 0.02798 0.63115 0.0
C98 C 0.83742 0.03363 0.70729 0.0
C99 C 0.87553 0.98005 0.4533 0.0
N100 N 0.88555 0.97477 0.48745 0.0
C101 C 0.86765 0.96793 0.42638 0.0
C102 C 0.87008 0.95031 0.43459 0.0
C103 C 0.88033 0.94503 0.46944 0.0
C104 C 0.88799 0.95751 0.4957 0.0
C105 C 0.94104 0.96735 0.48145 0.0
C106 C 0.92718 0.97716 0.55961 0.0
C107 C 0.92495 0.97562 0.48353 0.0
N108 N 0.91819 0.98036 0.52231 0.0
C109 C 0.94331 0.96892 0.55878 0.0
C110 C 0.95026 0.96398 0.51939 0.0
C111 C 0.9009 0.02094 0.58987 0.0
C112 C 0.84422 0.04656 0.48498 0.0
C113 C 0.85988 0.04912 0.56518 0.0
C114 C 0.8557 0.06419 0.54216 0.0
C115 C 0.84783 0.06287 0.50177 0.0
N116 N 0.85629 0.03318 0.5485 0.0
C117 C 0.84857 0.03177 0.50896 0.0
Co118 Co 0.51438 0.90048 0.01329 0.0
Co119 Co 0.50837 0.86107 0.06336 0.0
O120 O 0.51154 0.87522 0.01131 0.0
C121 C 0.48731 0.89573 0.945 0.0
O122 O 0.48006 0.88349 0.96818 0.0
C123 C 0.53502 0.83387 0.05448 0.0
O124 O 0.54149 0.83957 0.09093 0.0
O125 O 0.52982 0.87104 0.08934 0.0
O126 O 0.52823 0.89872 0.0675 0.0
H127 H 0.50702 0.85025 0.22314 0.0
H128 H 0.52382 0.88143 0.93428 0.0
O129 O 0.50084 0.90337 0.95855 0.0
H130 H 0.57742 0.91064 0.98095 0.0
H131 H 0.52534 0.9596 0.94943 0.0
H132 H 0.5121 0.92686 0.08207 0.0
H133 H 0.55042 0.91408 0.02204 0.0
H134 H 0.52227 0.92782 0.94778 0.0
O135 O 0.52229 0.84186 0.0367 0.0
H136 H 0.51064 0.86779 0.15711 0.0
H137 H 0.4995 0.8239 0.07999 0.0
H138 H 0.51519 0.95861 0.08523 0.0
H139 H 0.55051 0.87776 0.89197 0.0
H140 H 0.52186 0.97521 0.01856 0.0
H141 H 0.57756 0.89242 0.9153 0.0
O142 O 0.49277 0.90299 0.04759 0.0
H143 H 0.47334 0.83413 0.94454 0.0
H144 H 0.47194 0.85617 0.09317 0.0
H145 H 0.4452 0.84474 0.06025 0.0
H146 H 0.44581 0.83355 0.98545 0.0
H147 H 0.49973 0.84592 0.97848 0.0
H148 H 0.49585 0.80588 0.14517 0.0
H149 H 0.49959 0.81906 0.2174 0.0
O150 O 0.49434 0.8797 0.09108 0.0
C151 C 0.53471 0.88677 0.09113 0.0
C152 C 0.50534 0.84437 0.19185 0.0
C153 C 0.49907 0.81946 0.1481 0.0
N154 N 0.50525 0.8469 0.11473 0.0
C155 C 0.50736 0.85423 0.15435 0.0
C156 C 0.50115 0.82974 0.11131 0.0
C157 C 0.50117 0.82686 0.18861 0.0
C158 C 0.53551 0.88793 0.94446 0.0
N159 N 0.53553 0.89803 0.98042 0.0
C160 C 0.5506 0.88577 0.92045 0.0
C161 C 0.56578 0.89398 0.93359 0.0
C162 C 0.56571 0.9042 0.97043 0.0
C163 C 0.55039 0.90606 0.99363 0.0
C164 C 0.52245 0.95252 0.97871 0.0
C165 C 0.51508 0.93397 0.05295 0.0
C166 C 0.52066 0.93452 0.97796 0.0
N167 N 0.5171 0.92547 0.01485 0.0
C168 C 0.51678 0.95196 0.05493 0.0
C169 C 0.52051 0.96126 0.01751 0.0
C170 C 0.48807 0.8945 0.08094 0.0
C171 C 0.47292 0.83892 0.97719 0.0
C172 C 0.47229 0.85146 0.0605 0.0
C173 C 0.45712 0.84493 0.04209 0.0
C174 C 0.45747 0.83863 1.00014 0.0
N175 N 0.48741 0.85168 0.03782 0.0
C176 C 0.48784 0.84554 0.99666 0.0
Co177 Co 0.58932 0.51905 0.49612 0.0
Co178 Co 0.62423 0.50764 0.55816 0.0
O179 O 0.61342 0.51109 0.50142 0.0
C180 C 0.58928 0.4891 0.43573 0.0
O181 O 0.59597 0.47928 0.46637 0.0
C182 C 0.65141 0.52788 0.51221 0.0
O183 O 0.63951 0.53832 0.49615 0.0
O184 O 0.61894 0.53202 0.57355 0.0
O185 O 0.59161 0.53367 0.54903 0.0
H186 H 0.62782 0.51265 0.71932 0.0
H187 H 0.61278 0.52258 0.42148 0.0
O188 O 0.58623 0.50505 0.44258 0.0
H189 H 0.59324 0.582 0.45336 0.0
H190 H 0.53639 0.53978 0.41478 0.0
H191 H 0.56036 0.52373 0.55728 0.0
H192 H 0.58286 0.55724 0.49656 0.0
H193 H 0.56685 0.53045 0.42245 0.0
O194 O 0.64721 0.51493 0.53541 0.0
H195 H 0.61432 0.51638 0.64763 0.0
H196 H 0.65761 0.49217 0.58912 0.0
H197 H 0.52987 0.53315 0.55112 0.0
H198 H 0.62334 0.54696 0.37716 0.0
H199 H 0.51769 0.54125 0.47945 0.0
H200 H 0.61359 0.57693 0.39308 0.0
O201 O 0.58134 0.49912 0.53232 0.0
H202 H 0.64553 0.46069 0.46048 0.0
H203 H 0.61926 0.47327 0.60125 0.0
H204 H 0.62483 0.44294 0.58092 0.0
H205 H 0.6381 0.43649 0.51012 0.0
H206 H 0.63958 0.49085 0.48196 0.0
H207 H 0.67165 0.48832 0.66017 0.0
H208 H 0.6567 0.49854 0.72593 0.0
O209 O 0.60181 0.50012 0.58377 0.0
C210 C 0.60407 0.53924 0.57238 0.0
C211 C 0.63444 0.5081 0.69092 0.0
C212 C 0.65905 0.49447 0.65772 0.0
N213 N 0.63511 0.5044 0.61422 0.0
C214 C 0.62684 0.51014 0.65023 0.0
C215 C 0.65105 0.49672 0.61756 0.0
C216 C 0.65065 0.5002 0.6946 0.0
C217 C 0.60837 0.53557 0.42836 0.0
N218 N 0.59718 0.53847 0.46145 0.0
C219 C 0.61444 0.54933 0.40326 0.0
C220 C 0.60898 0.56614 0.41226 0.0
C221 C 0.59757 0.569 0.44609 0.0
C222 C 0.59179 0.55493 0.47053 0.0
C223 C 0.54155 0.53631 0.44619 0.0
C224 C 0.55519 0.52733 0.52602 0.0
C225 C 0.55879 0.53098 0.45073 0.0
N226 N 0.56542 0.52666 0.49033 0.0
C227 C 0.5379 0.53262 0.52272 0.0
C228 C 0.53107 0.53714 0.48249 0.0
C229 C 0.58706 0.49528 0.56984 0.0
C230 C 0.63979 0.46333 0.49147 0.0
C231 C 0.62498 0.47057 0.57032 0.0
C232 C 0.62814 0.45337 0.55903 0.0
C233 C 0.6356 0.44976 0.51931 0.0
N234 N 0.62917 0.48381 0.54286 0.0
C235 C 0.63645 0.48038 0.50385 0.0
Co236 Co 0.99677 0.90347 0.98755 0.0
Co237 Co 0.00393 0.86374 0.93913 0.0
O238 O 0.00059 0.87828 0.99009 0.0
C239 C 0.02572 0.89916 0.05182 0.0
O240 O 0.03199 0.88607 0.03007 0.0
C241 C 0.97644 0.83748 0.94774 0.0
O242 O 0.9706 0.84318 0.91041 0.0
O243 O 0.98304 0.87408 0.91053 0.0
O244 O 0.981 0.9009 0.93727 0.0
H245 H 0.00718 0.85211 0.7803 0.0
H246 H 0.99125 0.88414 0.06912 0.0
O247 O 0.01219 0.90711 0.0387 0.0
H248 H 0.93505 0.91179 0.03525 0.0
H249 H 0.98594 0.96249 0.05059 0.0
H250 H 0.99487 0.92952 0.91702 0.0
H251 H 0.9601 0.91604 0.98759 0.0
H252 H 0.99051 0.93086 0.05329 0.0
O253 O 0.98923 0.84505 0.96589 0.0
H254 H 0.00302 0.87005 0.84486 0.0
H255 H 0.01213 0.82624 0.9256 0.0
H256 H 0.99018 0.96111 0.91283 0.0
H257 H 0.96658 0.87969 0.11797 0.0
H258 H 0.98569 0.97782 0.97996 0.0
H259 H 0.93821 0.89355 0.10111 0.0
O260 O 0.0169 0.90677 0.94805 0.0
H261 H 0.03685 0.83639 0.0623 0.0
H262 H 0.0406 0.85769 0.91257 0.0
H263 H 0.06667 0.84571 0.9483 0.0
H264 H 0.06489 0.83489 0.02368 0.0
H265 H 0.01115 0.84873 0.02554 0.0
H266 H 0.01631 0.80782 0.8619 0.0
H267 H 0.01386 0.82075 0.7886 0.0
O268 O 0.01857 0.8818 0.91154 0.0
C269 C 0.97611 0.88908 0.91161 0.0
C270 C 0.00829 0.84633 0.81207 0.0
C271 C 0.01342 0.82147 0.85786 0.0
N272 N 0.00737 0.84923 0.88896 0.0
C273 C 0.00598 0.85643 0.84875 0.0
C274 C 0.01104 0.83197 0.8938 0.0
C275 C 0.01204 0.82873 0.81675 0.0
C276 C 0.97898 0.8903 0.06169 0.0
N277 N 0.97715 0.90039 0.0256 0.0
C278 C 0.96504 0.8877 0.08942 0.0
C279 C 0.94913 0.89546 0.07991 0.0
C280 C 0.94734 0.90568 0.04296 0.0
C281 C 0.96156 0.90799 0.01598 0.0
C282 C 0.98787 0.95535 0.02111 0.0
C283 C 0.99284 0.93668 0.94636 0.0
C284 C 0.99053 0.93744 0.02244 0.0
N285 N 0.9929 0.92833 0.98532 0.0
C286 C 0.99023 0.95458 0.94379 0.0
C287 C 0.98772 0.96394 0.98147 0.0
C288 C 0.02309 0.89744 0.91796 0.0
C289 C 0.03779 0.84102 0.02941 0.0
C290 C 0.03974 0.85316 0.94547 0.0
C291 C 0.05454 0.8463 0.96548 0.0
C292 C 0.05352 0.84021 0.00776 0.0
N293 N 0.02435 0.85389 0.96691 0.0
C294 C 0.02326 0.84794 0.00836 0.0
Co295 Co 0.59289 0.99819 0.48641 0.0
Co296 Co 0.62947 0.01415 0.43749 0.0
O297 O 0.61659 0.00726 0.48892 0.0
C298 C 0.58984 0.02641 0.55078 0.0
O299 O 0.59797 0.03678 0.52405 0.0
C300 C 0.65478 0.99015 0.47994 0.0
O301 O 0.64234 0.97893 0.48693 0.0
O302 O 0.62496 0.99127 0.41013 0.0
O303 O 0.59813 0.98514 0.43295 0.0
H304 H 0.63883 0.02041 0.27814 0.0
H305 H 0.6137 0.99413 0.5665 0.0
O306 O 0.58694 0.01076 0.54046 0.0
H307 H 0.59956 0.93467 0.52129 0.0
H308 H 0.53865 0.9729 0.55018 0.0
H309 H 0.56673 0.99335 0.4171 0.0
H310 H 0.58906 0.95983 0.47911 0.0
H311 H 0.56859 0.98395 0.55203 0.0
O312 O 0.65146 0.00481 0.4627 0.0
H313 H 0.62281 0.01207 0.34351 0.0
H314 H 0.66383 0.0307 0.4223 0.0
H315 H 0.53682 0.98228 0.41374 0.0
H316 H 0.62435 0.96933 0.60984 0.0
H317 H 0.52258 0.97196 0.48064 0.0
H318 H 0.61731 0.93934 0.58722 0.0
O319 O 0.58477 0.01835 0.45063 0.0
H320 H 0.64693 0.05281 0.55965 0.0
H321 H 0.62657 0.05114 0.40888 0.0
H322 H 0.63139 0.07936 0.44361 0.0
H323 H 0.64168 0.08032 0.51955 0.0
H324 H 0.64176 0.02487 0.52371 0.0
H325 H 0.68037 0.03908 0.35779 0.0
H326 H 0.66783 0.03401 0.28506 0.0
O327 O 0.6081 0.02383 0.41019 0.0
C328 C 0.6111 0.98233 0.40878 0.0
C329 C 0.64441 0.02272 0.30966 0.0
C330 C 0.66774 0.03318 0.35435 0.0
N331 N 0.64234 0.02097 0.38668 0.0
C332 C 0.63539 0.01806 0.34679 0.0
C333 C 0.65833 0.02836 0.39077 0.0
C334 C 0.66069 0.03033 0.31356 0.0
C335 C 0.61046 0.98112 0.55667 0.0
N336 N 0.6007 0.97844 0.52046 0.0
C337 C 0.61658 0.96713 0.58124 0.0
C338 C 0.61265 0.95031 0.5685 0.0
C339 C 0.6027 0.94767 0.5315 0.0
C340 C 0.59682 0.96198 0.50769 0.0
C341 C 0.54472 0.97734 0.52081 0.0
C342 C 0.56066 0.9888 0.44631 0.0
C343 C 0.56166 0.98365 0.52167 0.0
N344 N 0.56944 0.9892 0.48466 0.0
C345 C 0.5437 0.98258 0.44422 0.0
C346 C 0.53572 0.9768 0.48177 0.0
C347 C 0.5921 0.02578 0.41873 0.0
C348 C 0.64246 0.05257 0.52653 0.0
C349 C 0.63092 0.05145 0.44198 0.0
C350 C 0.6337 0.06747 0.46144 0.0
C351 C 0.63949 0.06799 0.50404 0.0
N352 N 0.63385 0.03637 0.46425 0.0
C353 C 0.63956 0.03679 0.50598 0.0
Co354 Co 0.51499 0.59092 0.00534 0.0
Co355 Co 0.49644 0.62769 0.96096 0.0
O356 O 0.50548 0.61437 0.01001 0.0
C357 C 0.48816 0.58712 0.07225 0.0
O358 O 0.47759 0.59564 0.04636 0.0
C359 C 0.52232 0.65258 0.99516 0.0
O360 O 0.5342 0.64041 0.99274 0.0
O361 O 0.51799 0.62344 0.92744 0.0
O362 O 0.52656 0.59704 0.95014 0.0
H363 H 0.48327 0.63895 0.80446 0.0
H364 H 0.52044 0.61093 0.08544 0.0
O365 O 0.50369 0.58418 0.06084 0.0
H366 H 0.57901 0.59837 0.03108 0.0
H367 H 0.54288 0.53644 0.06358 0.0
H368 H 0.51883 0.56563 0.93451 0.0
H369 H 0.55314 0.58788 0.99229 0.0
H370 H 0.53118 0.56615 0.06803 0.0
O371 O 0.50664 0.64935 0.98516 0.0
H372 H 0.49441 0.62212 0.8666 0.0
H373 H 0.47951 0.66233 0.95156 0.0
H374 H 0.53051 0.53597 0.92853 0.0
H375 H 0.54597 0.62156 0.12545 0.0
H376 H 0.54265 0.52117 0.9934 0.0
H377 H 0.57551 0.61531 0.09823 0.0
O378 O 0.49427 0.58282 0.9723 0.0
H379 H 0.46259 0.64386 0.09241 0.0
H380 H 0.45863 0.62449 0.94165 0.0
H381 H 0.43186 0.62875 0.98321 0.0
H382 H 0.43375 0.63853 0.05916 0.0
H383 H 0.48904 0.63927 0.04975 0.0
H384 H 0.46834 0.67967 0.89029 0.0
H385 H 0.47012 0.66795 0.81612 0.0
O386 O 0.48595 0.60655 0.93536 0.0
C387 C 0.5276 0.61001 0.9246 0.0
C388 C 0.48237 0.64418 0.83664 0.0
C389 C 0.47401 0.66703 0.8848 0.0
N390 N 0.48749 0.64117 0.91269 0.0
C391 C 0.48862 0.63468 0.87197 0.0
C392 C 0.48039 0.65717 0.91936 0.0
C393 C 0.47501 0.66045 0.8432 0.0
C394 C 0.53326 0.60805 0.0736 0.0
N395 N 0.5353 0.59871 0.03675 0.0
C396 C 0.54767 0.61415 0.0963 0.0
C397 C 0.56424 0.61066 0.08098 0.0
C398 C 0.56621 0.60116 0.0433 0.0
C399 C 0.55151 0.59528 0.02143 0.0
C400 C 0.53766 0.54276 0.03507 0.0
C401 C 0.52419 0.55932 0.96282 0.0
C402 C 0.53099 0.55957 0.03741 0.0
N403 N 0.52445 0.56766 0.00149 0.0
C404 C 0.53074 0.5425 0.95926 0.0
C405 C 0.53753 0.5342 0.99568 0.0
C406 C 0.48521 0.59033 0.94307 0.0
C407 C 0.4616 0.63963 0.05931 0.0
C408 C 0.45956 0.62867 0.97471 0.0
C409 C 0.44436 0.63112 0.99806 0.0
C410 C 0.44542 0.63662 0.04066 0.0
N411 N 0.47538 0.63167 0.99323 0.0
C412 C 0.47653 0.63708 0.03496 0.0
Co413 Co 0.89569 0.51267 0.47428 0.0
Co414 Co 0.86253 0.50261 0.40575 0.0
O415 O 0.87173 0.50534 0.46431 0.0
C416 C 0.8942 0.48202 0.53355 0.0
O417 O 0.88897 0.47236 0.50133 0.0
C418 C 0.83467 0.52353 0.44653 0.0
O419 O 0.84646 0.53388 0.46278 0.0
O420 O 0.86877 0.52695 0.39142 0.0
O421 O 0.89516 0.52787 0.42172 0.0
H422 H 0.86366 0.50866 0.24448 0.0
H423 H 0.87001 0.51597 0.54421 0.0
O424 O 0.89697 0.49811 0.52782 0.0
H425 H 0.89136 0.57525 0.5182 0.0
H426 H 0.94637 0.53146 0.56558 0.0
H427 H 0.9264 0.5175 0.41867 0.0
H428 H 0.90275 0.55071 0.47645 0.0
H429 H 0.91611 0.52274 0.55219 0.0
O430 O 0.83911 0.51035 0.42477 0.0
H431 H 0.87515 0.51162 0.31835 0.0
H432 H 0.82982 0.48823 0.36892 0.0
H433 H 0.95673 0.52632 0.43056 0.0
H434 H 0.85838 0.54013 0.58701 0.0
H435 H 0.96689 0.53338 0.50447 0.0
H436 H 0.86904 0.57003 0.57402 0.0
O437 O 0.90444 0.49292 0.43901 0.0
H438 H 0.83782 0.45551 0.49908 0.0
H439 H 0.86806 0.46842 0.36324 0.0
H440 H 0.86151 0.43809 0.38231 0.0
H441 H 0.84625 0.43147 0.45063 0.0
H442 H 0.84478 0.48567 0.47893 0.0
H443 H 0.81778 0.48515 0.29559 0.0
H444 H 0.83477 0.49534 0.23272 0.0
O445 O 0.88547 0.49467 0.38412 0.0
C446 C 0.88362 0.5339 0.396 0.0
C447 C 0.85615 0.50413 0.2716 0.0
C448 C 0.83039 0.49096 0.30029 0.0
N449 N 0.85321 0.50004 0.34793 0.0
C450 C 0.8626 0.50575 0.31352 0.0
C451 C 0.83725 0.49279 0.34175 0.0
C452 C 0.83993 0.49668 0.26503 0.0
C453 C 0.87481 0.52893 0.53863 0.0
N454 N 0.88708 0.53191 0.50799 0.0
C455 C 0.86814 0.54257 0.56285 0.0
C456 C 0.87411 0.55934 0.55551 0.0
C457 C 0.88662 0.56228 0.52417 0.0
C458 C 0.89298 0.54833 0.50054 0.0
C459 C 0.94209 0.52844 0.53322 0.0
C460 C 0.9307 0.52062 0.45089 0.0
C461 C 0.92498 0.52345 0.52545 0.0
N462 N 0.91946 0.5197 0.48463 0.0
C463 C 0.9479 0.52558 0.45744 0.0
C464 C 0.9536 0.52952 0.49892 0.0
C465 C 0.8997 0.48939 0.40063 0.0
C466 C 0.84443 0.45823 0.46916 0.0
C467 C 0.86145 0.46566 0.39309 0.0
C468 C 0.85775 0.44845 0.40366 0.0
C469 C 0.84918 0.44475 0.44199 0.0
N470 N 0.85672 0.47881 0.41988 0.0
C471 C 0.84834 0.47528 0.45752 0.0
Co472 Co 0.99575 0.40094 0.97321 0.0
Co473 Co 0.98254 0.36349 0.9241 0.0
O474 O 0.98831 0.37669 0.97587 0.0
C475 C 0.96826 0.40127 0.0402 0.0
O476 O 0.95865 0.3914 0.01548 0.0
C477 C 0.0075 0.33924 0.96709 0.0
O478 O 0.01866 0.35195 0.97101 0.0
O479 O 0.00543 0.36914 0.89824 0.0
O480 O 0.00882 0.39668 0.9191 0.0
H481 H 0.97857 0.35353 0.76457 0.0
H482 H 0.00183 0.38027 0.05273 0.0
O483 O 0.98318 0.40607 0.02784 0.0
H484 H 0.05978 0.39885 0.00552 0.0
H485 H 0.01773 0.45681 0.03591 0.0
H486 H 0.99816 0.42742 0.90379 0.0
H487 H 0.03368 0.40759 0.96449 0.0
H488 H 0.0088 0.42617 0.03821 0.0
O489 O 0.9926 0.34201 0.95059 0.0
H490 H 0.98535 0.37007 0.83021 0.0
H491 H 0.96785 0.32834 0.90831 0.0
H492 H 0.0071 0.45803 0.89998 0.0
H493 H 0.02759 0.37135 0.09493 0.0
H494 H 0.01697 0.47294 0.96639 0.0
H495 H 0.05683 0.38062 0.07131 0.0
O496 O 0.9748 0.40752 0.9385 0.0
H497 H 0.94332 0.34378 0.04306 0.0
H498 H 0.9458 0.36501 0.89308 0.0
H499 H 0.91744 0.35877 0.92565 0.0
H500 H 0.91608 0.34803 0.00116 0.0
H501 H 0.9714 0.35039 0.00935 0.0
H502 H 0.96103 0.31129 0.84352 0.0
H503 H 0.96632 0.32391 0.77099 0.0
O504 O 0.97212 0.38438 0.89578 0.0
C505 C 0.01301 0.38377 0.89597 0.0
C506 C 0.97617 0.3479 0.79599 0.0
C507 C 0.96634 0.32418 0.8403 0.0
N508 N 0.97693 0.35021 0.87305 0.0
C509 C 0.97995 0.35722 0.83328 0.0
C510 C 0.97029 0.33388 0.87688 0.0
C511 C 0.96931 0.33128 0.79962 0.0
C512 C 0.0145 0.38448 0.04246 0.0
N513 N 0.01623 0.39452 0.00635 0.0
C514 C 0.02904 0.37933 0.06639 0.0
C515 C 0.04544 0.38452 0.05309 0.0
C516 C 0.04711 0.39474 0.01616 0.0
C517 C 0.03228 0.39962 0.99302 0.0
C518 C 0.01348 0.45045 0.00675 0.0
C519 C 0.00252 0.43378 0.9328 0.0
C520 C 0.00836 0.43311 0.00787 0.0
N521 N 0.00305 0.42497 0.97112 0.0
C522 C 0.00753 0.45113 0.93045 0.0
C523 C 0.01305 0.45949 0.96773 0.0
C524 C 0.96853 0.40001 0.90538 0.0
C525 C 0.94374 0.34842 0.0101 0.0
C526 C 0.94532 0.36046 0.92602 0.0
C527 C 0.92922 0.35688 0.94425 0.0
C528 C 0.92846 0.35083 0.9866 0.0
N529 N 0.96025 0.35807 0.94929 0.0
C530 C 0.95961 0.35212 0.9908 0.0
Co531 Co 0.10296 0.00506 0.48953 0.0
Co532 Co 0.13945 0.99272 0.4339 0.0
O533 O 0.12695 0.99696 0.48747 0.0
C534 C 0.10167 0.97349 0.54543 0.0
O535 O 0.10927 0.96463 0.51489 0.0
C536 C 0.16471 0.01695 0.47474 0.0
O537 O 0.15281 0.02915 0.47513 0.0
O538 O 0.13325 0.01619 0.41091 0.0
O539 O 0.10709 0.02121 0.44016 0.0
H540 H 0.14793 0.99227 0.27346 0.0
H541 H 0.12566 0.00586 0.56688 0.0
O542 O 0.09838 0.98953 0.54001 0.0
H543 H 0.10589 0.06614 0.54516 0.0
H544 H 0.0482 0.02401 0.56337 0.0
H545 H 0.07606 0.01297 0.42371 0.0
H546 H 0.09591 0.04297 0.49671 0.0
H547 H 0.07857 0.01407 0.56039 0.0
O548 O 0.16116 0.00189 0.46079 0.0
H549 H 0.13195 0.99747 0.34065 0.0
H550 H 0.17467 0.97887 0.41459 0.0
H551 H 0.04573 0.02312 0.42519 0.0
H552 H 0.13583 0.02858 0.61644 0.0
H553 H 0.0316 0.02869 0.49542 0.0
H554 H 0.12598 0.05899 0.60562 0.0
O555 O 0.09529 0.98643 0.44893 0.0
H556 H 0.16016 0.94991 0.54575 0.0
H557 H 0.13736 0.95704 0.39786 0.0
H558 H 0.14377 0.92771 0.42581 0.0
H559 H 0.15529 0.92401 0.50024 0.0
H560 H 0.15343 0.979 0.51664 0.0
H561 H 0.1912 0.97359 0.34827 0.0
H562 H 0.17781 0.98024 0.27703 0.0
O563 O 0.1183 0.98337 0.40569 0.0
C564 C 0.11935 0.02507 0.41448 0.0
C565 C 0.1539 0.98929 0.30429 0.0
C566 C 0.17819 0.97883 0.34628 0.0
N567 N 0.1523 0.98843 0.38148 0.0
C568 C 0.14489 0.99218 0.34243 0.0
C569 C 0.16877 0.9819 0.38374 0.0
C570 C 0.17066 0.98255 0.30632 0.0
C571 C 0.12129 0.01906 0.56204 0.0
N572 N 0.1103 0.02312 0.52874 0.0
C573 C 0.1271 0.03187 0.59018 0.0
C574 C 0.12158 0.04893 0.58407 0.0
C575 C 0.11032 0.05296 0.55013 0.0
C576 C 0.10479 0.03981 0.52264 0.0
C577 C 0.05422 0.02163 0.53258 0.0
C578 C 0.07003 0.01546 0.45438 0.0
C579 C 0.07139 0.01593 0.53069 0.0
N580 N 0.07911 0.01302 0.49189 0.0
C581 C 0.05284 0.02116 0.45502 0.0
C582 C 0.04492 0.02427 0.49444 0.0
C583 C 0.10252 0.98062 0.41505 0.0
C584 C 0.1552 0.95136 0.51323 0.0
C585 C 0.14232 0.95554 0.43033 0.0
C586 C 0.14597 0.9389 0.44594 0.0
C587 C 0.15244 0.93683 0.4877 0.0
N588 N 0.1451 0.96973 0.45554 0.0
C589 C 0.15142 0.9678 0.49652 0.0
Co590 Co 0.48328 0.10606 0.98181 0.0
Co591 Co 0.50311 0.14116 0.93276 0.0
O592 O 0.49373 0.12912 0.98307 0.0
C593 C 0.51202 0.10178 0.04494 0.0
O594 O 0.52217 0.10957 0.01717 0.0
C595 C 0.47673 0.16678 0.96192 0.0
O596 O 0.46504 0.15445 0.96266 0.0
O597 O 0.48209 0.13574 0.89713 0.0
O598 O 0.47015 0.11233 0.92872 0.0
H599 H 0.51877 0.14787 0.77666 0.0
H600 H 0.48145 0.12743 0.06067 0.0
O601 O 0.49612 0.09934 0.03573 0.0
H602 H 0.42072 0.11636 0.01909 0.0
H603 H 0.45545 0.05337 0.04803 0.0
H604 H 0.47539 0.08068 0.9132 0.0
H605 H 0.44473 0.10425 0.97664 0.0
H606 H 0.46871 0.08241 0.04882 0.0
O607 O 0.49232 0.16337 0.95182 0.0
H608 H 0.50699 0.13275 0.84019 0.0
H609 H 0.51945 0.17575 0.91911 0.0
H610 H 0.46201 0.05173 0.91088 0.0
H611 H 0.45784 0.13966 0.10431 0.0
H612 H 0.45196 0.03787 0.97866 0.0
H613 H 0.42722 0.13418 0.08351 0.0
O614 O 0.50252 0.09647 0.94576 0.0
H615 H 0.53483 0.16102 0.06529 0.0
H616 H 0.5412 0.13818 0.91833 0.0
H617 H 0.5673 0.14383 0.96222 0.0
H618 H 0.5642 0.15536 0.03628 0.0
H619 H 0.50907 0.15503 0.02037 0.0
H620 H 0.53123 0.1914 0.85636 0.0
H621 H 0.531 0.17743 0.78452 0.0
O622 O 0.51417 0.11954 0.91252 0.0
C623 C 0.47066 0.12384 0.89917 0.0
C624 C 0.51896 0.15409 0.8078 0.0
C625 C 0.52593 0.17853 0.85252 0.0
N626 N 0.51255 0.15334 0.88334 0.0
C627 C 0.51233 0.14558 0.84391 0.0
C628 C 0.51918 0.16963 0.88791 0.0
C629 C 0.52581 0.17068 0.81223 0.0
C630 C 0.46815 0.1249 0.05159 0.0
N631 N 0.46446 0.11512 0.01619 0.0
C632 C 0.45484 0.1319 0.07635 0.0
C633 C 0.43767 0.12883 0.06463 0.0
C634 C 0.43401 0.11885 0.02847 0.0
C635 C 0.44765 0.11207 0.00447 0.0
C636 C 0.45978 0.05928 0.01828 0.0
C637 C 0.47096 0.07478 0.94281 0.0
C638 C 0.46735 0.07569 0.01855 0.0
N639 N 0.47275 0.08326 0.98107 0.0
C640 C 0.46343 0.05837 0.9413 0.0
C641 C 0.45781 0.05059 0.97935 0.0
C642 C 0.51314 0.10329 0.91922 0.0
C643 C 0.53635 0.15602 0.03305 0.0
C644 C 0.53974 0.14311 0.95056 0.0
C645 C 0.55457 0.14634 0.97524 0.0
C646 C 0.55282 0.15282 0.01677 0.0
N647 N 0.52363 0.14628 0.96675 0.0
C648 C 0.52181 0.15266 0.00742 0.0
Co649 Co 0.40872 0.48137 0.50932 0.0
Co650 Co 0.37368 0.50078 0.45808 0.0
O651 O 0.3856 0.49186 0.50935 0.0
C652 C 0.41209 0.50999 0.57181 0.0
O653 O 0.40454 0.52014 0.54315 0.0
C654 C 0.34766 0.4753 0.48936 0.0
O655 O 0.35967 0.4632 0.48939 0.0
O656 O 0.37879 0.47914 0.42538 0.0
O657 O 0.4031 0.46842 0.45593 0.0
H658 H 0.36709 0.51384 0.3 0.0
H659 H 0.38683 0.47934 0.58732 0.0
O660 O 0.41482 0.49411 0.56327 0.0
H661 H 0.39815 0.41871 0.54668 0.0
H662 H 0.46087 0.45339 0.57946 0.0
H663 H 0.43489 0.47369 0.44249 0.0
H664 H 0.41051 0.4428 0.50449 0.0
H665 H 0.4317 0.46656 0.578 0.0
O666 O 0.35135 0.4908 0.47869 0.0
H667 H 0.38204 0.50277 0.36509 0.0
H668 H 0.33936 0.5177 0.44225 0.0
H669 H 0.46402 0.46046 0.44243 0.0
H670 H 0.37432 0.45563 0.63064 0.0
H671 H 0.4772 0.45021 0.51129 0.0
H672 H 0.37993 0.42506 0.61033 0.0
O673 O 0.41843 0.50067 0.47338 0.0
H674 H 0.35453 0.53485 0.58668 0.0
H675 H 0.37691 0.53857 0.4386 0.0
H676 H 0.37169 0.56542 0.47918 0.0
H677 H 0.36039 0.56365 0.5538 0.0
H678 H 0.36011 0.50833 0.54502 0.0
H679 H 0.32388 0.5288 0.37792 0.0
H680 H 0.33779 0.52696 0.30618 0.0
O681 O 0.3955 0.51111 0.4364 0.0
C682 C 0.3913 0.46825 0.42701 0.0
C683 C 0.36092 0.51475 0.33109 0.0
C684 C 0.33665 0.52313 0.37482 0.0
N685 N 0.36164 0.50969 0.40747 0.0
C686 C 0.36934 0.50855 0.36809 0.0
C687 C 0.34546 0.51678 0.41112 0.0
C688 C 0.34447 0.5221 0.33458 0.0
C689 C 0.38944 0.46606 0.57846 0.0
N690 N 0.39945 0.46246 0.54351 0.0
C691 C 0.38227 0.4527 0.60304 0.0
C692 C 0.3854 0.43555 0.59159 0.0
C693 C 0.39562 0.43197 0.55587 0.0
C694 C 0.40255 0.44567 0.53203 0.0
C695 C 0.45526 0.4578 0.54925 0.0
C696 C 0.4405 0.4692 0.47256 0.0
C697 C 0.43877 0.46532 0.54824 0.0
N698 N 0.43158 0.47084 0.51017 0.0
C699 C 0.45702 0.46175 0.47234 0.0
C700 C 0.46441 0.45601 0.51099 0.0
C701 C 0.41168 0.51057 0.44462 0.0
C702 C 0.35944 0.53579 0.55418 0.0
C703 C 0.37212 0.5377 0.47111 0.0
C704 C 0.36911 0.55295 0.49389 0.0
C705 C 0.36275 0.55195 0.53574 0.0
N706 N 0.36886 0.5219 0.48943 0.0
C707 C 0.36258 0.52082 0.53039 0.0
Co708 Co 0.00586 0.09923 0.0255 0.0
Co709 Co 0.9911 0.13524 0.08072 0.0
O710 O 0.99754 0.12331 0.0275 0.0
C711 C 0.97561 0.09695 0.96475 0.0
O712 O 0.96537 0.1032 0.9945 0.0
C713 C 0.017 0.15922 0.04134 0.0
O714 O 0.02563 0.1461 0.02538 0.0
O715 O 0.01284 0.12754 0.11047 0.0
O716 O 0.02054 0.1029 0.0775 0.0
H717 H 0.98231 0.13982 0.24046 0.0
H718 H 0.00815 0.12163 0.9478 0.0
O719 O 0.99171 0.09492 0.97236 0.0
H720 H 0.06831 0.10413 0.98096 0.0
H721 H 0.02738 0.04552 0.95133 0.0
H722 H 0.01221 0.07163 0.09066 0.0
H723 H 0.04419 0.09372 0.02577 0.0
H724 H 0.01717 0.07579 0.95479 0.0
O725 O 0.00307 0.15691 0.06216 0.0
H726 H 0.99032 0.12521 0.17304 0.0
H727 H 0.97806 0.17072 0.10118 0.0
H728 H 0.02251 0.04136 0.08869 0.0
H729 H 0.03185 0.13215 0.90173 0.0
H730 H 0.03016 0.02811 0.01864 0.0
H731 H 0.0622 0.12346 0.91832 0.0
O732 O 0.98646 0.0909 0.06307 0.0
H733 H 0.95671 0.16049 0.95738 0.0
H734 H 0.95358 0.13564 0.10382 0.0
H735 H 0.92666 0.14462 0.06653 0.0
H736 H 0.92813 0.15719 0.99277 0.0
H737 H 0.98329 0.15117 0.99578 0.0
H738 H 0.97007 0.18587 0.16788 0.0
H739 H 0.9721 0.17037 0.23815 0.0
O740 O 0.97897 0.11424 0.10162 0.0
C741 C 0.02256 0.11423 0.10674 0.0
C742 C 0.98131 0.14669 0.21003 0.0
C743 C 0.97447 0.17254 0.1693 0.0
N744 N 0.98455 0.14705 0.13317 0.0
C745 C 0.98579 0.13847 0.17173 0.0
C746 C 0.97906 0.16391 0.13165 0.0
C747 C 0.97561 0.16384 0.20871 0.0
C748 C 0.02131 0.11767 0.95502 0.0
N749 N 0.02478 0.10709 0.98952 0.0
C750 C 0.03468 0.12373 0.92891 0.0
C751 C 0.05171 0.11886 0.93827 0.0
C752 C 0.05515 0.10804 0.97345 0.0
C753 C 0.04144 0.10226 0.99887 0.0
C754 C 0.0241 0.05116 0.98205 0.0
C755 C 0.0156 0.06599 0.06007 0.0
C756 C 0.01826 0.06828 0.98421 0.0
N757 N 0.01416 0.0755 0.02292 0.0
C758 C 0.02139 0.04883 0.05915 0.0
C759 C 0.02566 0.0414 0.01983 0.0
C760 C 0.97775 0.09821 0.09279 0.0
C761 C 0.9559 0.15504 0.98952 0.0
C762 C 0.95431 0.14096 0.07165 0.0
C763 C 0.93903 0.1461 0.05074 0.0
C764 C 0.93987 0.15317 0.00938 0.0
N765 N 0.96998 0.14285 0.05198 0.0
C766 C 0.9709 0.14978 0.01145 0.0
Co767 Co 0.40897 0.00324 0.50504 0.0
Co768 Co 0.37356 0.99181 0.56462 0.0
O769 O 0.38498 0.99541 0.50932 0.0
C770 C 0.40949 0.97224 0.44825 0.0
O771 O 0.40319 0.96292 0.48001 0.0
C772 C 0.34712 0.01461 0.52217 0.0
O773 O 0.35899 0.02655 0.51643 0.0
O774 O 0.37941 0.01576 0.58287 0.0
O775 O 0.40617 0.01874 0.55604 0.0
H776 H 0.36797 0.99511 0.72557 0.0
H777 H 0.38542 0.00547 0.42941 0.0
O778 O 0.41235 0.98833 0.45325 0.0
H779 H 0.40487 0.06536 0.45482 0.0
H780 H 0.46224 0.02244 0.42527 0.0
H781 H 0.43738 0.00947 0.56775 0.0
H782 H 0.41546 0.04136 0.50089 0.0
H783 H 0.43184 0.01309 0.43175 0.0
O784 O 0.35112 1.00006 0.53915 0.0
H785 H 0.38253 0.99912 0.6558 0.0
H786 H 0.33933 0.97737 0.59047 0.0
H787 H 0.4678 0.01894 0.56277 0.0
H788 H 0.37461 0.02906 0.38227 0.0
H789 H 0.48042 0.02549 0.49112 0.0
H790 H 0.38432 0.05926 0.39492 0.0
O791 O 0.41704 0.98395 0.54382 0.0
H792 H 0.35223 0.9466 0.46156 0.0
H793 H 0.37719 0.95688 0.60577 0.0
H794 H 0.37112 0.92697 0.58288 0.0
H795 H 0.35851 0.92168 0.51033 0.0
H796 H 0.35865 0.97631 0.48562 0.0
H797 H 0.32422 0.97326 0.65951 0.0
H798 H 0.33859 0.9821 0.72773 0.0
O799 O 0.39546 0.98332 0.59191 0.0
C800 C 0.39388 0.02364 0.58047 0.0
C801 C 0.3616 0.99114 0.69609 0.0
C802 C 0.33704 0.97891 0.659 0.0
N803 N 0.36187 0.98834 0.61913 0.0
C804 C 0.36981 0.99333 0.65649 0.0
C805 C 0.34565 0.98129 0.62 0.0
C806 C 0.34511 0.98386 0.69727 0.0
C807 C 0.38978 0.01857 0.43495 0.0
N808 N 0.40108 0.02203 0.46783 0.0
C809 C 0.38358 0.03188 0.40822 0.0
C810 C 0.38902 0.04882 0.41537 0.0
C811 C 0.40054 0.05225 0.44899 0.0
C812 C 0.40645 0.03862 0.47507 0.0
C813 C 0.45689 0.01965 0.45668 0.0
C814 C 0.44275 0.01239 0.53648 0.0
C815 C 0.43969 0.0143 0.46054 0.0
N816 N 0.43282 0.01083 0.50012 0.0
C817 C 0.46 0.0177 0.53385 0.0
C818 C 0.46707 0.02136 0.49364 0.0
C819 C 0.41071 0.97933 0.57999 0.0
C820 C 0.35768 0.94874 0.49329 0.0
C821 C 0.37175 0.95469 0.5741 0.0
C822 C 0.36831 0.93772 0.56136 0.0
C823 C 0.36122 0.93476 0.52065 0.0
N824 N 0.3682 0.96834 0.54711 0.0
C825 C 0.36128 0.96554 0.50714 0.0
Co826 Co 0.48635 0.40827 0.99828 0.0
Co827 Co 0.5031 0.37123 0.04672 0.0
O828 O 0.49544 0.38458 0.99622 0.0
C829 C 0.51519 0.41029 0.93525 0.0
O830 O 0.5244 0.39998 0.9603 0.0
C831 C 0.47629 0.34721 0.01187 0.0
O832 O 0.46466 0.35961 0.01423 0.0
O833 O 0.4815 0.37706 0.07883 0.0
O834 O 0.47229 0.40229 0.04975 0.0
H835 H 0.51446 0.3609 0.20446 0.0
H836 H 0.48399 0.38755 0.91842 0.0
O837 O 0.49999 0.41486 0.94609 0.0
H838 H 0.42373 0.40318 0.95339 0.0
H839 H 0.46255 0.46359 0.93379 0.0
H840 H 0.47964 0.43338 0.06808 0.0
H841 H 0.44798 0.41322 0.99886 0.0
H842 H 0.47373 0.43363 0.93193 0.0
O843 O 0.49197 0.34997 0.02277 0.0
H844 H 0.50487 0.37772 0.14075 0.0
H845 H 0.51765 0.33566 0.05921 0.0
H846 H 0.46837 0.46328 0.07145 0.0
H847 H 0.46017 0.37738 0.87174 0.0
H848 H 0.45975 0.47859 0.00395 0.0
H849 H 0.42978 0.38515 0.88921 0.0
O850 O 0.50584 0.41601 0.03654 0.0
H851 H 0.53732 0.35152 0.91886 0.0
H852 H 0.54083 0.37243 0.06838 0.0
H853 H 0.56773 0.36607 0.02906 0.0
H854 H 0.56608 0.3555 0.95376 0.0
H855 H 0.51074 0.35822 0.95922 0.0
H856 H 0.52724 0.31833 0.12208 0.0
H857 H 0.52573 0.33097 0.19533 0.0
O858 O 0.51449 0.39194 0.07167 0.0
C859 C 0.47118 0.39004 0.07734 0.0
C860 C 0.5152 0.35526 0.1727 0.0
C861 C 0.52236 0.33136 0.12647 0.0
N862 N 0.51076 0.35772 0.09628 0.0
C863 C 0.50983 0.36473 0.13649 0.0
C864 C 0.51686 0.34122 0.091 0.0
C865 C 0.52152 0.33846 0.16756 0.0
C866 C 0.47081 0.39105 0.92613 0.0
N867 N 0.46737 0.40092 0.96145 0.0
C868 C 0.45737 0.38522 0.89962 0.0
C869 C 0.44032 0.38957 0.90946 0.0
C870 C 0.43692 0.39967 0.94549 0.0
C871 C 0.45068 0.40524 0.97127 0.0
C872 C 0.46625 0.45705 0.96343 0.0
C873 C 0.47582 0.43992 0.03859 0.0
C874 C 0.47264 0.4401 0.96256 0.0
N875 N 0.47725 0.43173 0.99989 0.0
C876 C 0.46949 0.45686 0.04069 0.0
C877 C 0.46467 0.46546 0.0028 0.0
C878 C 0.51501 0.40824 0.06518 0.0
C879 C 0.53821 0.35608 0.95169 0.0
C880 C 0.54 0.36793 0.03556 0.0
C881 C 0.55528 0.36429 0.0135 0.0
C882 C 0.55434 0.35834 0.97127 0.0
N883 N 0.52422 0.36568 0.01615 0.0
C884 C 0.5232 0.35982 0.97477 0.0
Co885 Co 0.10059 0.4887 0.51317 0.0
Co886 Co 0.13857 0.49163 0.56978 0.0
O887 O 0.12582 0.49097 0.51521 0.0
C888 C 0.10515 0.51892 0.45348 0.0
O889 O 0.11305 0.5275 0.48422 0.0
C890 C 0.16616 0.46573 0.55676 0.0
O891 O 0.15992 0.45771 0.59068 0.0
O892 O 0.12806 0.46913 0.58717 0.0
O893 O 0.10065 0.47333 0.56529 0.0
H894 H 0.14563 0.48465 0.73006 0.0
H895 H 0.12139 0.4807 0.43586 0.0
O896 O 0.09974 0.50359 0.46023 0.0
H897 H 0.08934 0.42709 0.46866 0.0
H898 H 0.04291 0.48163 0.43856 0.0
H899 H 0.0726 0.48976 0.5781 0.0
H900 H 0.08568 0.45304 0.51361 0.0
H901 H 0.07475 0.48379 0.44231 0.0
O902 O 0.15846 0.47919 0.54185 0.0
H903 H 0.12973 0.48435 0.6609 0.0
H904 H 0.17515 0.49981 0.59464 0.0
H905 H 0.04074 0.48753 0.57583 0.0
H906 H 0.12531 0.45508 0.3898 0.0
H907 H 0.02568 0.48343 0.50568 0.0
H908 H 0.10923 0.42802 0.40615 0.0
O909 O 0.09791 0.5094 0.55087 0.0
H910 H 0.16714 0.53268 0.46624 0.0
H911 H 0.14256 0.52618 0.61162 0.0
H912 H 0.15421 0.55447 0.58879 0.0
H913 H 0.16666 0.55785 0.51566 0.0
H914 H 0.15519 0.50465 0.49023 0.0
H915 H 0.19156 0.50022 0.66307 0.0
H916 H 0.17678 0.49262 0.73144 0.0
O917 O 0.11919 0.50415 0.59881 0.0
C918 C 0.11206 0.4651 0.58726 0.0
C919 C 0.15221 0.48802 0.7005 0.0
C920 C 0.17798 0.49676 0.66291 0.0
N921 N 0.15146 0.49216 0.62379 0.0
C922 C 0.14326 0.4879 0.66124 0.0
C923 C 0.16862 0.49652 0.62427 0.0
C924 C 0.16969 0.49249 0.70125 0.0
C925 C 0.11428 0.469 0.44303 0.0
N926 N 0.10326 0.4684 0.47725 0.0
C927 C 0.11658 0.45452 0.4169 0.0
C928 C 0.10756 0.43934 0.42611 0.0
C929 C 0.09641 0.43881 0.46119 0.0
C930 C 0.09442 0.45353 0.4866 0.0
C931 C 0.04932 0.48338 0.46933 0.0
C932 C 0.06615 0.48789 0.54747 0.0
C933 C 0.06735 0.48465 0.47165 0.0
N934 N 0.07554 0.48677 0.51044 0.0
C935 C 0.04811 0.48667 0.54638 0.0
C936 C 0.03966 0.48439 0.507 0.0
C937 C 0.10524 0.51186 0.5873 0.0
C938 C 0.16181 0.53136 0.49824 0.0
C939 C 0.1479 0.52755 0.57969 0.0
C940 C 0.15452 0.5436 0.56698 0.0
C941 C 0.16151 0.54548 0.52596 0.0
N942 N 0.14831 0.51373 0.55238 0.0
C943 C 0.15509 0.5155 0.51206 0.0
H944 H 0.95257 0.6721 0.02253 0.0
H945 H 0.94473 0.70258 0.00906 0.0
H946 H 0.99781 0.71387 0.97727 0.0
H947 H 0.00574 0.68369 0.9907 0.0
H948 H 0.96073 0.73184 0.05441 0.0
H949 H 0.96859 0.73576 0.87724 0.0
H950 H 0.96524 0.71551 0.90551 0.0
H951 H 0.98634 0.72529 0.90479 0.0
C952 C 0.96248 0.68103 0.01186 0.0
C953 C 0.97976 0.6755 0.00764 0.0
C954 C 0.958 0.69842 0.00443 0.0
C955 C 0.97068 0.71041 0.99192 0.0
C956 C 0.9878 0.70477 0.9864 0.0
H957 H 0.99113 0.81758 0.01184 0.0
H958 H 0.98596 0.78687 0.02588 0.0
C959 C 0.99231 0.68752 0.99422 0.0
C960 C 0.96653 0.72906 0.98705 0.0
H961 H 0.96931 0.7626 0.9154 0.0
C962 C 0.96227 0.73857 0.0239 0.0
C963 C 0.96841 0.73775 0.94718 0.0
C964 C 0.97224 0.72805 0.90629 0.0
C965 C 0.96079 0.75673 0.02231 0.0
C966 C 0.96382 0.76552 0.98296 0.0
C967 C 0.96711 0.75588 0.94567 0.0
C968 C 0.96486 0.78468 0.97994 0.0
C969 C 0.95629 0.76633 0.06288 0.0
C970 C 0.95457 0.79375 0.94988 0.0
C971 C 0.95755 0.81131 0.94161 0.0
C972 C 0.97099 0.82011 0.96302 0.0
C973 C 0.98061 0.81125 0.99495 0.0
C974 C 0.97763 0.79367 0.00315 0.0
H975 H 0.94914 0.75792 0.0858 0.0
H976 H 0.96842 0.77056 0.07904 0.0
H977 H 0.94832 0.77801 0.05561 0.0
H978 H 0.94468 0.78706 0.93154 0.0
H979 H 0.94986 0.81774 0.91691 0.0
H980 H 0.6679 0.96544 0.53605 0.0
H981 H 0.69867 0.96022 0.55389 0.0
H982 H 0.71342 0.99942 0.46164 0.0
H983 H 0.68314 0.00491 0.44455 0.0
H984 H 0.72833 0.95128 0.50311 0.0
H985 H 0.73469 0.01644 0.57451 0.0
H986 H 0.71392 0.00683 0.5628 0.0
H987 H 0.72602 0.01737 0.52078 0.0
C988 C 0.67776 0.97287 0.5196 0.0
C989 C 0.67309 0.98583 0.4896 0.0
C990 C 0.69529 0.96986 0.5297 0.0
C991 C 0.70827 0.97971 0.5097 0.0
C992 C 0.70359 0.99198 0.47822 0.0
H993 H 0.81907 0.97109 0.48168 0.0
H994 H 0.78766 0.96647 0.47627 0.0
C995 C 0.68624 0.99512 0.46855 0.0
C996 C 0.72674 0.97798 0.52238 0.0
H997 H 0.76107 0.00231 0.55511 0.0
C998 C 0.73551 0.96231 0.51516 0.0
C999 C 0.736 0.9923 0.53877 0.0
C1000 C 0.72713 0.00912 0.55011 0.0
C1001 C 0.75351 0.96085 0.52214 0.0
C1002 C 0.76295 0.97558 0.53565 0.0
C1003 C 0.75396 0.99101 0.54441 0.0
C1004 C 0.78215 0.97572 0.54056 0.0
C1005 C 0.76215 0.94355 0.51512 0.0
C1006 C 0.78957 0.98249 0.57826 0.0
C1007 C 0.8073 0.98567 0.5807 0.0
C1008 C 0.81811 0.98179 0.54586 0.0
C1009 C 0.81097 0.97405 0.50905 0.0
C1010 C 0.79305 0.97128 0.50615 0.0
H1011 H 0.75286 0.93273 0.51957 0.0
H1012 H 0.76697 0.94297 0.48158 0.0
H1013 H 0.77328 0.94158 0.5375 0.0
H1014 H 0.78151 0.98599 0.60531 0.0
H1015 H 0.81254 0.99153 0.6096 0.0
H1016 H 0.51919 0.81459 0.99173 0.0
H1017 H 0.52233 0.78341 0.98052 0.0
H1018 H 0.56354 0.78148 0.07488 0.0
H1019 H 0.56048 0.81262 0.08661 0.0
H1020 H 0.55119 0.76016 0.96045 0.0
H1021 H 0.5241 0.75054 0.12462 0.0
H1022 H 0.52293 0.77108 0.09657 0.0
H1023 H 0.54295 0.76408 0.12093 0.0
C1024 C 0.52922 0.80765 0.00937 0.0
C1025 C 0.53942 0.81608 0.04054 0.0
C1026 C 0.53098 0.78981 0.00293 0.0
C1027 C 0.54294 0.78013 0.02747 0.0
C1028 C 0.55405 0.78871 0.05612 0.0
H1029 H 0.55485 0.66689 0.99938 0.0
H1030 H 0.56205 0.69761 0.00909 0.0
C1031 C 0.55231 0.80653 0.06264 0.0
C1032 C 0.54255 0.76096 0.02614 0.0
H1033 H 0.53052 0.72551 0.08507 0.0
C1034 C 0.54688 0.75252 0.98778 0.0
C1035 C 0.53671 0.75112 0.0618 0.0
C1036 C 0.53127 0.7596 0.10327 0.0
C1037 C 0.54528 0.73446 0.98396 0.0
C1038 C 0.53931 0.72466 0.01953 0.0
C1039 C 0.53527 0.73308 0.05807 0.0
C1040 C 0.53542 0.70594 0.01601 0.0
C1041 C 0.54928 0.72604 0.94145 0.0
C1042 C 0.51816 0.70045 0.01802 0.0
C1043 C 0.51402 0.68302 0.01259 0.0
C1044 C 0.52711 0.67066 0.00533 0.0
C1045 C 0.54449 0.67609 0.00492 0.0
C1046 C 0.54861 0.69363 0.01013 0.0
H1047 H 0.55137 0.73573 0.91538 0.0
H1048 H 0.56121 0.71806 0.94489 0.0
H1049 H 0.53856 0.71731 0.9317 0.0
H1050 H 0.5078 0.70975 0.02276 0.0
H1051 H 0.50051 0.67929 0.01333 0.0
H1052 H 0.66709 0.54455 0.44421 0.0
H1053 H 0.69847 0.54692 0.43134 0.0
H1054 H 0.70879 0.5216 0.55318 0.0
H1055 H 0.67782 0.51873 0.56548 0.0
H1056 H 0.72665 0.56142 0.4768 0.0
H1057 H 0.73268 0.48997 0.46808 0.0
H1058 H 0.71198 0.50088 0.46715 0.0
H1059 H 0.72314 0.49704 0.51747 0.0
C1060 C 0.67611 0.53961 0.46825 0.0
C1061 C 0.67004 0.53113 0.50537 0.0
C1062 C 0.69398 0.541 0.46095 0.0
C1063 C 0.70593 0.53406 0.49087 0.0
C1064 C 0.69982 0.5266 0.52911 0.0
H1065 H 0.81871 0.54431 0.50625 0.0
H1066 H 0.78739 0.54847 0.5159 0.0
C1067 C 0.68209 0.52498 0.53607 0.0
C1068 C 0.72476 0.53364 0.48165 0.0
H1069 H 0.75896 0.50576 0.47375 0.0
C1070 C 0.73374 0.54927 0.47578 0.0
C1071 C 0.73394 0.51776 0.47979 0.0
C1072 C 0.72492 0.50046 0.48301 0.0
C1073 C 0.75176 0.54942 0.46899 0.0
C1074 C 0.76101 0.53354 0.46896 0.0
C1075 C 0.75192 0.51796 0.47421 0.0
C1076 C 0.77999 0.53247 0.46178 0.0
C1077 C 0.76065 0.56651 0.46116 0.0
C1078 C 0.78624 0.52196 0.42861 0.0
C1079 C 0.80397 0.51931 0.42367 0.0
C1080 C 0.81596 0.52719 0.45161 0.0
C1081 C 0.80978 0.53812 0.48417 0.0
C1082 C 0.7919 0.54061 0.48947 0.0
H1083 H 0.75131 0.57672 0.45068 0.0
H1084 H 0.76689 0.57084 0.49153 0.0
H1085 H 0.77085 0.56526 0.43632 0.0
H1086 H 0.77734 0.51556 0.40682 0.0
H1087 H 0.80826 0.51097 0.39791 0.0
H1088 H 0.98818 0.31026 0.955 0.0
H1089 H 0.99549 0.28052 0.97339 0.0
H1090 H 0.04455 0.29706 0.02585 0.0
H1091 H 0.03745 0.32726 0.00647 0.0
H1092 H 0.047 0.26701 0.97462 0.0
H1093 H 0.99489 0.26036 0.09463 0.0
H1094 H 0.98661 0.26813 0.04394 0.0
H1095 H 0.00171 0.28115 0.07402 0.0
C1096 C 0.00054 0.30772 0.97059 0.0
C1097 C 0.01218 0.32124 0.97959 0.0
C1098 C 0.00466 0.29064 0.98122 0.0
C1099 C 0.02041 0.2866 0.00171 0.0
C1100 C 0.03226 0.29995 0.01028 0.0
H1101 H 0.02175 0.18197 0.10556 0.0
H1102 H 0.02725 0.21301 0.09912 0.0
C1103 C 0.02817 0.31717 0.99935 0.0
C1104 C 0.02414 0.26834 0.01386 0.0
H1105 H 0.0059 0.23387 0.06514 0.0
C1106 C 0.03823 0.25976 0.99505 0.0
C1107 C 0.0129 0.25899 0.04115 0.0
C1108 C 0.9983 0.26769 0.06495 0.0
C1109 C 0.04081 0.24183 0.00102 0.0
C1110 C 0.02871 0.23223 0.02552 0.0
C1111 C 0.01514 0.24107 0.04597 0.0
C1112 C 0.02921 0.21299 0.02953 0.0
C1113 C 0.05645 0.23344 0.98099 0.0
C1114 C 0.02916 0.2024 0.99275 0.0
C1115 C 0.02653 0.18448 0.99662 0.0
C1116 C 0.02343 0.17705 0.03716 0.0
C1117 C 0.02417 0.18747 0.07396 0.0
C1118 C 0.02725 0.20521 0.07025 0.0
H1119 H 0.06723 0.24284 0.97758 0.0
H1120 H 0.0611 0.22219 1.00036 0.0
H1121 H 0.05297 0.22888 0.94823 0.0
H1122 H 0.03012 0.20806 0.96087 0.0
H1123 H 0.02572 0.17668 0.9678 0.0
H1124 H 0.33171 0.04596 0.50244 0.0
H1125 H 0.30046 0.0521 0.49753 0.0
H1126 H 0.28956 0.99793 0.51809 0.0
H1127 H 0.32044 0.99169 0.52315 0.0
H1128 H 0.27349 0.03744 0.4425 0.0
H1129 H 0.26306 0.02302 0.61532 0.0
H1130 H 0.28424 0.0274 0.59344 0.0
H1131 H 0.27478 0.00622 0.58828 0.0
C1132 C 0.32264 0.03535 0.50543 0.0
C1133 C 0.32857 0.01837 0.5137 0.0
C1134 C 0.30482 0.03889 0.50276 0.0
C1135 C 0.29274 0.02552 0.5085 0.0
C1136 C 0.29867 0.00849 0.51461 0.0
H1137 H 0.19035 0.99369 0.4924 0.0
H1138 H 0.22108 0.99943 0.50358 0.0
C1139 C 0.31636 0.00495 0.51729 0.0
C1140 C 0.27386 0.02904 0.50873 0.0
H1141 H 0.23782 0.02202 0.56944 0.0
C1142 C 0.26567 0.03449 0.47047 0.0
C1143 C 0.26374 0.02529 0.54544 0.0
C1144 C 0.27191 0.02033 0.58809 0.0
C1145 C 0.24749 0.03504 0.46709 0.0
C1146 C 0.2374 0.03015 0.503 0.0
C1147 C 0.24562 0.02572 0.54196 0.0
C1148 C 0.2185 0.02729 0.49912 0.0
C1149 C 0.23917 0.03976 0.42448 0.0
C1150 C 0.2068 0.04114 0.49397 0.0
C1151 C 0.18909 0.03791 0.48785 0.0
C1152 C 0.18291 0.02078 0.48646 0.0
C1153 C 0.19467 0.00703 0.49305 0.0
C1154 C 0.21225 0.01027 0.49948 0.0
H1155 H 0.24888 0.04197 0.3988 0.0
H1156 H 0.23025 0.0293 0.4141 0.0
H1157 H 0.23136 0.05175 0.42814 0.0
H1158 H 0.21141 0.05438 0.49402 0.0
H1159 H 0.18036 0.04876 0.48276 0.0
H1160 H 0.49847 0.19428 0.96865 0.0
H1161 H 0.49095 0.22481 0.97376 0.0
H1162 H 0.43669 0.21186 0.97669 0.0
H1163 H 0.44411 0.1809 0.97142 0.0
H1164 H 0.467 0.24234 0.90948 0.0
H1165 H 0.44677 0.24666 0.08124 0.0
H1166 H 0.46123 0.22973 0.06357 0.0
H1167 H 0.43886 0.22929 0.04793 0.0
C1168 C 0.48491 0.1978 0.97068 0.0
C1169 C 0.47187 0.18511 0.96933 0.0
C1170 C 0.48065 0.2153 0.97359 0.0
C1171 C 0.46329 0.22056 0.97549 0.0
C1172 C 0.45017 0.208 0.97544 0.0
H1173 H 0.44376 0.33275 0.00994 0.0
H1174 H 0.43653 0.30224 0.99613 0.0
C1175 C 0.45444 0.19035 0.97245 0.0
C1176 C 0.45933 0.23933 0.97565 0.0
H1177 H 0.4512 0.27287 0.04376 0.0
C1178 C 0.46315 0.24902 0.93853 0.0
C1179 C 0.4542 0.24795 0.01349 0.0
C1180 C 0.45002 0.23799 0.05403 0.0
C1181 C 0.463 0.26719 0.93903 0.0
C1182 C 0.45919 0.27584 0.97782 0.0
C1183 C 0.45414 0.26617 0.01408 0.0
C1184 C 0.46293 0.29452 0.98307 0.0
C1185 C 0.46763 0.27697 0.89852 0.0
C1186 C 0.48012 0.30021 0.98025 0.0
C1187 C 0.48428 0.31745 0.98831 0.0
C1188 C 0.47131 0.32943 0.99938 0.0
C1189 C 0.454 0.32384 0.00119 0.0
C1190 C 0.44986 0.30644 0.99348 0.0
H1191 H 0.4648 0.26921 0.86931 0.0
H1192 H 0.46046 0.28945 0.89622 0.0
H1193 H 0.48171 0.27983 0.89894 0.0
H1194 H 0.49044 0.29117 0.97294 0.0
H1195 H 0.49774 0.3213 0.98661 0.0
H1196 H 0.33256 0.44316 0.49623 0.0
H1197 H 0.30167 0.43683 0.50678 0.0
H1198 H 0.29074 0.49155 0.51415 0.0
H1199 H 0.32131 0.49799 0.50379 0.0
H1200 H 0.27523 0.4698 0.58062 0.0
H1201 H 0.26283 0.44716 0.41318 0.0
H1202 H 0.28081 0.4377 0.44235 0.0
H1203 H 0.28147 0.46013 0.42708 0.0
C1204 C 0.32358 0.45381 0.50043 0.0
C1205 C 0.32939 0.47107 0.49895 0.0
C1206 C 0.30595 0.45018 0.50616 0.0
C1207 C 0.29395 0.46375 0.51071 0.0
C1208 C 0.2998 0.48091 0.51048 0.0
H1209 H 0.18527 0.48239 0.49502 0.0
H1210 H 0.21633 0.47911 0.48202 0.0
C1211 C 0.3173 0.48455 0.50451 0.0
C1212 C 0.2752 0.46035 0.5156 0.0
H1213 H 0.23883 0.44876 0.45948 0.0
C1214 C 0.26728 0.46496 0.5544 0.0
C1215 C 0.2649 0.45426 0.48104 0.0
C1216 C 0.27282 0.44959 0.43836 0.0
C1217 C 0.24926 0.46395 0.55935 0.0
C1218 C 0.23893 0.45803 0.52467 0.0
C1219 C 0.24685 0.45315 0.48605 0.0
C1220 C 0.21979 0.45798 0.52741 0.0
C1221 C 0.24131 0.46986 0.60107 0.0
C1222 C 0.21138 0.44671 0.55596 0.0
C1223 C 0.19363 0.44851 0.56342 0.0
C1224 C 0.18399 0.46165 0.5425 0.0
C1225 C 0.19228 0.47217 0.51176 0.0
C1226 C 0.21004 0.47032 0.50427 0.0
H1227 H 0.2508 0.4767 0.62192 0.0
H1228 H 0.23015 0.47865 0.59461 0.0
H1229 H 0.23643 0.45843 0.61909 0.0
H1230 H 0.21868 0.43699 0.57378 0.0
H1231 H 0.18766 0.44011 0.58712 0.0
H1232 H 0.02417 0.56692 0.90892 0.0
H1233 H 0.03682 0.55628 0.8424 0.0
H1234 H 0.06558 0.60386 0.82882 0.0
H1235 H 0.05359 0.61419 0.89701 0.0
H1236 H 0.03517 0.56654 0.76286 0.0
H1237 H 0.10395 0.57019 0.81533 0.0
H1238 H 0.0863 0.57361 0.85198 0.0
H1239 H 0.09297 0.59069 0.81597 0.0
C1240 C 0.03327 0.5751 0.89191 0.0
C1241 C 0.03804 0.59132 0.90841 0.0
C1242 C 0.04046 0.56902 0.85373 0.0
C1243 C 0.0524 0.57911 0.83072 0.0
C1244 C 0.05681 0.59558 0.84652 0.0
H1245 H 0.0822 0.53882 0.57378 0.0
H1246 H 0.06929 0.55756 0.62873 0.0
C1247 C 0.0499 0.60152 0.88538 0.0
C1248 C 0.06018 0.57211 0.7906 0.0
H1249 H 0.09867 0.56127 0.74419 0.0
C1250 C 0.04907 0.56543 0.75871 0.0
C1251 C 0.07832 0.57059 0.78516 0.0
C1252 C 0.09109 0.57649 0.81907 0.0
C1253 C 0.05552 0.55667 0.72262 0.0
C1254 C 0.07366 0.55512 0.71727 0.0
C1255 C 0.08476 0.56249 0.74816 0.0
C1256 C 0.08151 0.54433 0.68284 0.0
C1257 C 0.04281 0.54836 0.69197 0.0
C1258 C 0.09305 0.53101 0.69463 0.0
C1259 C 0.10071 0.52068 0.66345 0.0
C1260 C 0.0969 0.5232 0.61948 0.0
C1261 C 0.08528 0.53648 0.60742 0.0
C1262 C 0.07782 0.54711 0.63884 0.0
H1263 H 0.02973 0.5471 0.70637 0.0
H1264 H 0.04154 0.55652 0.66255 0.0
H1265 H 0.04731 0.53528 0.6823 0.0
H1266 H 0.09608 0.5285 0.72824 0.0
H1267 H 0.10949 0.5105 0.67402 0.0
H1268 H 0.97783 0.0628 0.10611 0.0
H1269 H 0.96215 0.04684 0.16241 0.0
H1270 H 0.93719 0.09422 0.20138 0.0
H1271 H 0.95243 0.11003 0.14578 0.0
H1272 H 0.96559 0.05354 0.24962 0.0
H1273 H 0.89684 0.06092 0.20145 0.0
H1274 H 0.91442 0.06467 0.16446 0.0
H1275 H 0.90799 0.08127 0.20163 0.0
C1276 C 0.96864 0.0697 0.12591 0.0
C1277 C 0.96641 0.08772 0.12125 0.0
C1278 C 0.95975 0.06059 0.15819 0.0
C1279 C 0.94831 0.0693 0.18579 0.0
C1280 C 0.9456 0.08711 0.17995 0.0
H1281 H 0.89843 0.05521 0.43201 0.0
H1282 H 0.90991 0.06594 0.36324 0.0
C1283 C 0.95447 0.09619 0.14809 0.0
C1284 C 0.94055 0.06044 0.22363 0.0
H1285 H 0.90228 0.05438 0.27635 0.0
C1286 C 0.95173 0.05343 0.25514 0.0
C1287 C 0.92247 0.06049 0.23102 0.0
C1288 C 0.90973 0.06709 0.19762 0.0
C1289 C 0.94538 0.04709 0.29448 0.0
C1290 C 0.92734 0.04756 0.3023 0.0
C1291 C 0.91612 0.05419 0.27044 0.0
C1292 C 0.91993 0.04105 0.34329 0.0
C1293 C 0.95809 0.04052 0.32803 0.0
C1294 C 0.92149 0.02349 0.35443 0.0
C1295 C 0.915 0.01736 0.39349 0.0
C1296 C 0.9067 0.02865 0.42234 0.0
C1297 C 0.90482 0.0462 0.41071 0.0
C1298 C 0.91134 0.05234 0.37141 0.0
H1299 H 0.97154 0.04478 0.32118 0.0
H1300 H 0.95446 0.04506 0.36062 0.0
H1301 H 0.95794 0.02614 0.32838 0.0
H1302 H 0.92779 0.01451 0.33288 0.0
H1303 H 0.91657 0.00373 0.40106 0.0
H1304 H 0.49318 0.92597 0.9024 0.0
H1305 H 0.48106 0.93568 0.83387 0.0
H1306 H 0.45303 0.88763 0.82234 0.0
H1307 H 0.4647 0.87804 0.89242 0.0
H1308 H 0.4835 0.92379 0.75442 0.0
H1309 H 0.41454 0.92182 0.8048 0.0
H1310 H 0.43215 0.91897 0.84262 0.0
H1311 H 0.42572 0.90143 0.80822 0.0
C1312 C 0.48441 0.91743 0.88544 0.0
C1313 C 0.4798 0.90126 0.90305 0.0
C1314 C 0.47752 0.92299 0.84606 0.0
C1315 C 0.46597 0.9125 0.82299 0.0
C1316 C 0.46161 0.89614 0.83995 0.0
H1317 H 0.43374 0.95275 0.56471 0.0
H1318 H 0.4479 0.9341 0.61936 0.0
C1319 C 0.46831 0.89064 0.87992 0.0
C1320 C 0.45837 0.91918 0.78188 0.0
H1321 H 0.42018 0.93162 0.73471 0.0
C1322 C 0.46964 0.92538 0.74989 0.0
C1323 C 0.44028 0.92129 0.77603 0.0
C1324 C 0.42744 0.91568 0.80981 0.0
C1325 C 0.46339 0.93437 0.71337 0.0
C1326 C 0.44533 0.93679 0.70804 0.0
C1327 C 0.43404 0.92976 0.73885 0.0
C1328 C 0.43782 0.94823 0.67389 0.0
C1329 C 0.47623 0.94204 0.68222 0.0
C1330 C 0.4275 0.9623 0.68623 0.0
C1331 C 0.41928 0.97266 0.65537 0.0
C1332 C 0.4213 0.96935 0.61126 0.0
C1333 C 0.43215 0.95568 0.59853 0.0
C1334 C 0.44022 0.94505 0.62972 0.0
H1335 H 0.4896 0.94216 0.69577 0.0
H1336 H 0.47637 0.93419 0.65242 0.0
H1337 H 0.47253 0.95552 0.67326 0.0
H1338 H 0.42555 0.96514 0.72 0.0
H1339 H 0.41111 0.98319 0.66612 0.0
H1340 H 0.51558 0.44364 0.07672 0.0
H1341 H 0.53105 0.45954 0.13328 0.0
H1342 H 0.55397 0.41178 0.17912 0.0
H1343 H 0.53896 0.39594 0.12297 0.0
H1344 H 0.52668 0.45432 0.22017 0.0
H1345 H 0.59552 0.44352 0.17941 0.0
H1346 H 0.57812 0.43977 0.14143 0.0
H1347 H 0.58352 0.42368 0.18164 0.0
C1348 C 0.52424 0.43659 0.09819 0.0
C1349 C 0.526 0.41848 0.09509 0.0
C1350 C 0.53302 0.44569 0.13061 0.0
C1351 C 0.54387 0.43689 0.16012 0.0
C1352 C 0.54604 0.41894 0.15619 0.0
H1353 H 0.59121 0.45516 0.40934 0.0
H1354 H 0.58073 0.44315 0.34092 0.0
C1355 C 0.53729 0.40986 0.12405 0.0
C1356 C 0.55165 0.446 0.19757 0.0
H1357 H 0.58974 0.45219 0.25216 0.0
C1358 C 0.5405 0.45409 0.22682 0.0
C1359 C 0.56967 0.44556 0.20645 0.0
C1360 C 0.58241 0.43781 0.17534 0.0
C1361 C 0.54679 0.46123 0.26535 0.0
C1362 C 0.56476 0.46046 0.27464 0.0
C1363 C 0.57596 0.45265 0.2451 0.0
C1364 C 0.57207 0.4678 0.31488 0.0
C1365 C 0.53409 0.46906 0.2965 0.0
C1366 C 0.57106 0.48566 0.32239 0.0
C1367 C 0.57701 0.49253 0.36124 0.0
C1368 C 0.58417 0.4817 0.3935 0.0
C1369 C 0.58571 0.46385 0.38532 0.0
C1370 C 0.57974 0.45698 0.34625 0.0
H1371 H 0.52054 0.46514 0.28927 0.0
H1372 H 0.5373 0.46518 0.33014 0.0
H1373 H 0.53479 0.4834 0.29428 0.0
H1374 H 0.56546 0.49428 0.29832 0.0
H1375 H 0.57575 0.50636 0.36613 0.0
H1376 H 0.07691 0.95649 0.42996 0.0
H1377 H 0.06303 0.9377 0.37584 0.0
H1378 H 0.09128 0.96386 0.27528 0.0
H1379 H 0.10531 0.98204 0.32859 0.0
H1380 H 0.04277 0.94363 0.30634 0.0
H1381 H 0.10383 0.91453 0.25072 0.0
H1382 H 0.10266 0.92714 0.29936 0.0
H1383 H 0.10521 0.93767 0.24773 0.0
C1384 C 0.08003 0.9582 0.39623 0.0
C1385 C 0.0924 0.97049 0.3835 0.0
C1386 C 0.07219 0.94744 0.36542 0.0
C1387 C 0.0766 0.94895 0.32162 0.0
C1388 C 0.0882 0.96192 0.30896 0.0
H1389 H 0.02213 0.93035 0.09065 0.0
H1390 H 0.03391 0.93953 0.1596 0.0
C1391 C 0.09614 0.97242 0.33951 0.0
C1392 C 0.06895 0.93745 0.28834 0.0
H1393 H 0.07998 0.91435 0.19913 0.0
C1394 C 0.05089 0.93694 0.28338 0.0
C1395 C 0.07947 0.92824 0.25901 0.0
C1396 C 0.09885 0.92675 0.26482 0.0
C1397 C 0.04315 0.92861 0.24805 0.0
C1398 C 0.0538 0.92109 0.21612 0.0
C1399 C 0.07178 0.92044 0.22294 0.0
C1400 C 0.04672 0.91515 0.17404 0.0
C1401 C 0.02364 0.92817 0.24516 0.0
C1402 C 0.05075 0.89865 0.15776 0.0
C1403 C 0.04432 0.89347 0.11748 0.0
C1404 C 0.03371 0.90468 0.09297 0.0
C1405 C 0.03005 0.92128 0.10899 0.0
C1406 C 0.03663 0.92651 0.14875 0.0
H1407 H 0.01779 0.92809 0.27776 0.0
H1408 H 0.01893 0.94 0.22817 0.0
H1409 H 0.019 0.91662 0.22741 0.0
H1410 H 0.05873 0.88974 0.17639 0.0
H1411 H 0.04735 0.88059 0.10598 0.0
H1412 H 0.50952 0.06844 0.90244 0.0
H1413 H 0.52482 0.05176 0.84726 0.0
H1414 H 0.55591 0.09649 0.81708 0.0
H1415 H 0.54111 0.11298 0.87191 0.0
H1416 H 0.52425 0.06004 0.76137 0.0
H1417 H 0.59224 0.05887 0.8184 0.0
H1418 H 0.57442 0.06419 0.85337 0.0
H1419 H 0.58348 0.08042 0.81824 0.0
C1420 C 0.51996 0.07455 0.88489 0.0
C1421 C 0.52406 0.09207 0.89172 0.0
C1422 C 0.52863 0.06503 0.85324 0.0
C1423 C 0.54168 0.07281 0.82837 0.0
C1424 C 0.54622 0.09005 0.83645 0.0
H1425 H 0.59366 0.05877 0.58616 0.0
H1426 H 0.58216 0.06898 0.65505 0.0
C1427 C 0.53759 0.09953 0.86779 0.0
C1428 C 0.5493 0.06379 0.79081 0.0
H1429 H 0.5878 0.05451 0.74219 0.0
C1430 C 0.53813 0.05854 0.75751 0.0
C1431 C 0.56742 0.06196 0.78562 0.0
C1432 C 0.58006 0.0665 0.82104 0.0
C1433 C 0.54462 0.05218 0.71851 0.0
C1434 C 0.56274 0.05088 0.71285 0.0
C1435 C 0.57391 0.0557 0.74649 0.0
C1436 C 0.57029 0.04454 0.67207 0.0
C1437 C 0.53205 0.0475 0.68302 0.0
C1438 C 0.56766 0.02737 0.6593 0.0
C1439 C 0.57419 0.02152 0.62017 0.0
C1440 C 0.58353 0.03272 0.59291 0.0
C1441 C 0.58646 0.04984 0.60623 0.0
C1442 C 0.57994 0.05568 0.64559 0.0
H1443 H 0.51883 0.05263 0.68909 0.0
H1444 H 0.53656 0.05255 0.65148 0.0
H1445 H 0.5312 0.03318 0.68075 0.0
H1446 H 0.56048 0.0185 0.67957 0.0
H1447 H 0.57177 0.0082 0.61119 0.0
H1448 H 0.44634 0.50587 0.42692 0.0
H1449 H 0.46269 0.51976 0.36854 0.0
H1450 H 0.41871 0.55242 0.33896 0.0
H1451 H 0.40237 0.53868 0.39628 0.0
H1452 H 0.4312 0.5314 0.26944 0.0
H1453 H 0.48359 0.56942 0.34857 0.0
H1454 H 0.48036 0.5474 0.36633 0.0
H1455 H 0.46402 0.56339 0.37648 0.0
C1456 C 0.44034 0.51634 0.40875 0.0
C1457 C 0.42298 0.52105 0.41615 0.0
C1458 C 0.44969 0.52426 0.37541 0.0
C1459 C 0.44187 0.53711 0.34944 0.0
C1460 C 0.42497 0.54252 0.35856 0.0
H1461 H 0.45646 0.59204 0.10956 0.0
H1462 H 0.44614 0.57982 0.1776 0.0
C1463 C 0.41564 0.53462 0.39149 0.0
C1464 C 0.45028 0.54368 0.3098 0.0
H1465 H 0.48262 0.56976 0.27253 0.0
C1466 C 0.44248 0.53975 0.27009 0.0
C1467 C 0.46507 0.55439 0.31079 0.0
C1468 C 0.47378 0.55904 0.35274 0.0
C1469 C 0.44891 0.54646 0.2313 0.0
C1470 C 0.46331 0.55774 0.23229 0.0
C1471 C 0.47146 0.56126 0.27191 0.0
C1472 C 0.46994 0.56603 0.19242 0.0
C1473 C 0.44029 0.54124 0.18958 0.0
C1474 C 0.48695 0.56284 0.17892 0.0
C1475 C 0.49293 0.5699 0.14019 0.0
C1476 C 0.48201 0.58034 0.11423 0.0
C1477 C 0.46514 0.58392 0.12849 0.0
C1478 C 0.4592 0.57689 0.16731 0.0
H1479 H 0.43289 0.529 0.19325 0.0
H1480 H 0.43105 0.55155 0.17934 0.0
H1481 H 0.44997 0.53953 0.16364 0.0
H1482 H 0.49548 0.55458 0.19789 0.0
H1483 H 0.50603 0.56694 0.13032 0.0
H1484 H 0.95077 0.38728 0.83629 0.0
H1485 H 0.93538 0.40332 0.78035 0.0
H1486 H 0.94561 0.45116 0.84662 0.0
H1487 H 0.96141 0.43512 0.90319 0.0
H1488 H 0.9068 0.42542 0.78128 0.0
H1489 H 0.96632 0.45943 0.72685 0.0
H1490 H 0.96707 0.44121 0.76356 0.0
H1491 H 0.96075 0.46222 0.78248 0.0
C1492 C 0.94967 0.4012 0.83951 0.0
C1493 C 0.95749 0.40989 0.87433 0.0
C1494 C 0.9408 0.41035 0.80734 0.0
C1495 C 0.93955 0.42844 0.80891 0.0
C1496 C 0.94668 0.4372 0.84441 0.0
H1497 H 0.90318 0.49901 0.60714 0.0
H1498 H 0.91244 0.48654 0.67592 0.0
C1499 C 0.9556 0.428 0.87688 0.0
C1500 C 0.93142 0.43791 0.77211 0.0
H1501 H 0.94063 0.4651 0.68813 0.0
C1502 C 0.91414 0.43421 0.76107 0.0
C1503 C 0.94106 0.44929 0.74565 0.0
C1504 C 0.95986 0.45322 0.75485 0.0
C1505 C 0.90628 0.4415 0.72416 0.0
C1506 C 0.91604 0.45256 0.69721 0.0
C1507 C 0.93318 0.45658 0.7088 0.0
C1508 C 0.90892 0.45994 0.6564 0.0
C1509 C 0.88758 0.43735 0.71445 0.0
C1510 C 0.9037 0.44912 0.62248 0.0
C1511 C 0.89835 0.45622 0.58285 0.0
C1512 C 0.89826 0.47427 0.57637 0.0
C1513 C 0.90313 0.48504 0.61082 0.0
C1514 C 0.90845 0.47795 0.65028 0.0
H1515 H 0.88068 0.43276 0.74366 0.0
H1516 H 0.88065 0.44885 0.70113 0.0
H1517 H 0.887 0.42689 0.69013 0.0
H1518 H 0.90427 0.43517 0.62619 0.0
H1519 H 0.89477 0.44756 0.55698 0.0
H1520 H 0.98182 0.42685 0.08999 0.0
H1521 H 0.97139 0.4374 0.15872 0.0
H1522 H 0.93028 0.39967 0.15646 0.0
H1523 H 0.94038 0.38934 0.08634 0.0
H1524 H 0.91795 0.42984 0.17755 0.0
H1525 H 0.97612 0.41893 0.27817 0.0
H1526 H 0.98159 0.43156 0.23163 0.0
H1527 H 0.97385 0.4097 0.22517 0.0
C1528 C 0.97064 0.42064 0.10418 0.0
C1529 C 0.96195 0.40721 0.08264 0.0
C1530 C 0.9648 0.42659 0.14387 0.0
C1531 C 0.95033 0.41904 0.16355 0.0
C1532 C 0.9416 0.40558 0.14219 0.0
H1533 H 0.91591 0.45827 0.41715 0.0
H1534 H 0.92873 0.43897 0.3628 0.0
C1535 C 0.94735 0.39972 0.10206 0.0
C1536 C 0.94355 0.42632 0.20443 0.0
H1537 H 0.95621 0.44116 0.30334 0.0
C1538 C 0.92626 0.43199 0.20531 0.0
C1539 C 0.95421 0.42888 0.24123 0.0
C1540 C 0.97241 0.42174 0.24417 0.0
C1541 C 0.9197 0.44109 0.24063 0.0
C1542 C 0.93085 0.44509 0.27557 0.0
C1543 C 0.94779 0.43844 0.27612 0.0
C1544 C 0.92537 0.45716 0.30994 0.0
C1545 C 0.90091 0.4466 0.2398 0.0
C1546 C 0.92013 0.47401 0.29864 0.0
C1547 C 0.91283 0.48487 0.32926 0.0
C1548 C 0.91095 0.47926 0.37208 0.0
C1549 C 0.91741 0.46291 0.38438 0.0
C1550 C 0.92458 0.45188 0.35336 0.0
H1551 H 0.89302 0.43795 0.21905 0.0
H1552 H 0.89533 0.44658 0.27267 0.0
H1553 H 0.89988 0.45992 0.2263 0.0
H1554 H 0.92106 0.47854 0.26563 0.0
H1555 H 0.90799 0.49746 0.31908 0.0
H1556 H 0.04247 0.8807 0.85774 0.0
H1557 H 0.05897 0.89338 0.7991 0.0
H1558 H 0.04691 0.94459 0.84505 0.0
H1559 H 0.03055 0.93196 0.90482 0.0
H1560 H 0.045 0.91389 0.73648 0.0
H1561 H 0.09834 0.94874 0.81903 0.0
H1562 H 0.08533 0.93261 0.84593 0.0
H1563 H 0.07714 0.95426 0.83814 0.0
C1564 C 0.04358 0.89467 0.85613 0.0
C1565 C 0.03513 0.90529 0.88622 0.0
C1566 C 0.05302 0.9019 0.82237 0.0
C1567 C 0.05429 0.91993 0.81772 0.0
C1568 C 0.0464 0.93063 0.84842 0.0
H1569 H 0.08757 0.98893 0.61583 0.0
H1570 H 0.07718 0.97518 0.68161 0.0
C1571 C 0.03699 0.92338 0.88254 0.0
C1572 C 0.06258 0.92736 0.77866 0.0
H1573 H 0.09446 0.95463 0.7441 0.0
C1574 C 0.05592 0.92268 0.73815 0.0
C1575 C 0.07679 0.93886 0.78086 0.0
C1576 C 0.08495 0.94382 0.82329 0.0
C1577 C 0.06281 0.92945 0.69987 0.0
C1578 C 0.07694 0.94104 0.70204 0.0
C1579 C 0.08368 0.94567 0.74251 0.0
C1580 C 0.08425 0.9492 0.66273 0.0
C1581 C 0.05454 0.92459 0.65745 0.0
C1582 C 0.092 0.93918 0.63044 0.0
C1583 C 0.09796 0.94702 0.59247 0.0
C1584 C 0.09629 0.96502 0.58624 0.0
C1585 C 0.08896 0.97502 0.61928 0.0
C1586 C 0.08305 0.9672 0.65708 0.0
H1587 H 0.04158 0.91863 0.66188 0.0
H1588 H 0.05312 0.93612 0.63612 0.0
H1589 H 0.06293 0.91505 0.64092 0.0
H1590 H 0.0933 0.92529 0.63447 0.0
H1591 H 0.10364 0.93896 0.56785 0.0
H1592 H 0.5565 0.02718 0.40861 0.0
H1593 H 0.54037 0.04101 0.34888 0.0
H1594 H 0.58806 0.06153 0.29865 0.0
H1595 H 0.60416 0.04774 0.35689 0.0
H1596 H 0.53908 0.07718 0.31572 0.0
H1597 H 0.56813 0.0309 0.20073 0.0
H1598 H 0.56832 0.02723 0.25824 0.0
H1599 H 0.58374 0.04171 0.23415 0.0
C1600 C 0.5635 0.03487 0.38523 0.0
C1601 C 0.58167 0.03618 0.38748 0.0
C1602 C 0.55427 0.04273 0.35111 0.0
C1603 C 0.5631 0.05198 0.31895 0.0
C1604 C 0.58104 0.05417 0.32269 0.0
H1605 H 0.54563 0.10242 0.07417 0.0
H1606 H 0.55696 0.09079 0.14244 0.0
C1607 C 0.59022 0.04631 0.35633 0.0
C1608 C 0.55402 0.05868 0.27999 0.0
H1609 H 0.55397 0.0556 0.1703 0.0
C1610 C 0.54213 0.07236 0.28393 0.0
C1611 C 0.55806 0.05233 0.23858 0.0
C1612 C 0.57014 0.03712 0.23253 0.0
C1613 C 0.53469 0.08032 0.24726 0.0
C1614 C 0.53916 0.07428 0.20583 0.0
C1615 C 0.55071 0.06033 0.20207 0.0
C1616 C 0.53205 0.0822 0.16574 0.0
C1617 C 0.52257 0.09549 0.25301 0.0
C1618 C 0.5143 0.08117 0.15619 0.0
C1619 C 0.5078 0.08773 0.1172 0.0
C1620 C 0.51894 0.09542 0.08687 0.0
C1621 C 0.5367 0.0966 0.09676 0.0
C1622 C 0.54319 0.08996 0.13575 0.0
H1623 H 0.52345 0.10093 0.28599 0.0
H1624 H 0.52541 0.10592 0.22929 0.0
H1625 H 0.50905 0.09116 0.24749 0.0
H1626 H 0.50552 0.07496 0.1785 0.0
H1627 H 0.49405 0.08659 0.11067 0.0
H1628 H 0.42832 0.49238 0.63732 0.0
H1629 H 0.43811 0.50367 0.70656 0.0
H1630 H 0.41862 0.55432 0.67165 0.0
H1631 H 0.40854 0.54309 0.6023 0.0
H1632 H 0.46193 0.5298 0.71981 0.0
H1633 H 0.39874 0.5469 0.79224 0.0
H1634 H 0.40054 0.53295 0.74602 0.0
H1635 H 0.40192 0.55607 0.73958 0.0
C1636 C 0.42598 0.50591 0.64439 0.0
C1637 C 0.41764 0.51685 0.61419 0.0
C1638 C 0.43159 0.51232 0.68405 0.0
C1639 C 0.42889 0.52976 0.69454 0.0
C1640 C 0.42051 0.54072 0.6646 0.0
H1641 H 0.46191 0.60203 0.8829 0.0
H1642 H 0.44749 0.58543 0.82697 0.0
C1643 C 0.41488 0.53432 0.62483 0.0
C1644 C 0.43571 0.53667 0.73577 0.0
H1645 H 0.424 0.558 0.82715 0.0
C1646 C 0.45363 0.53578 0.74357 0.0
C1647 C 0.42484 0.54442 0.76672 0.0
C1648 C 0.40542 0.54502 0.76103 0.0
C1649 C 0.46107 0.54308 0.78061 0.0
C1650 C 0.45024 0.5512 0.81111 0.0
C1651 C 0.43227 0.5517 0.80383 0.0
C1652 C 0.45751 0.56063 0.84856 0.0
C1653 C 0.48054 0.54274 0.78578 0.0
C1654 C 0.46747 0.55211 0.88037 0.0
C1655 C 0.47584 0.56161 0.91268 0.0
C1656 C 0.47433 0.57978 0.91368 0.0
C1657 C 0.46351 0.58808 0.88312 0.0
C1658 C 0.45519 0.5786 0.85102 0.0
H1659 H 0.48714 0.53912 0.75545 0.0
H1660 H 0.48542 0.55558 0.79619 0.0
H1661 H 0.48417 0.53307 0.81089 0.0
H1662 H 0.46915 0.53818 0.87951 0.0
H1663 H 0.48401 0.55478 0.93573 0.0
H1664 H 0.93196 0.01063 0.62523 0.0
H1665 H 0.94747 0.02489 0.6846 0.0
H1666 H 0.91175 0.06789 0.67718 0.0
H1667 H 0.89633 0.05383 0.61817 0.0
H1668 H 0.94771 0.07723 0.69327 0.0
H1669 H 0.92235 0.02647 0.8042 0.0
H1670 H 0.93416 0.01899 0.75812 0.0
H1671 H 0.91373 0.02981 0.75055 0.0
C1672 C 0.92778 0.02336 0.63538 0.0
C1673 C 0.91287 0.03106 0.61726 0.0
C1674 C 0.93652 0.03141 0.66957 0.0
C1675 C 0.93055 0.0473 0.68575 0.0
C1676 C 0.91651 0.0556 0.66539 0.0
H1677 H 0.94156 0.09286 0.94002 0.0
H1678 H 0.93069 0.08158 0.87117 0.0
C1679 C 0.90772 0.04753 0.63164 0.0
C1680 C 0.93781 0.05472 0.72598 0.0
H1681 H 0.93949 0.04841 0.83502 0.0
C1682 C 0.94605 0.07089 0.72424 0.0
C1683 C 0.93525 0.04658 0.76643 0.0
C1684 C 0.92578 0.02957 0.77031 0.0
C1685 C 0.95197 0.07906 0.76191 0.0
C1686 C 0.94964 0.0708 0.80228 0.0
C1687 C 0.94128 0.05469 0.80402 0.0
C1688 C 0.95608 0.07848 0.84307 0.0
C1689 C 0.96037 0.09663 0.75834 0.0
C1690 C 0.97392 0.08046 0.85004 0.0
C1691 C 0.98014 0.08682 0.88921 0.0
C1692 C 0.96865 0.09132 0.9224 0.0
C1693 C 0.95074 0.08958 0.91512 0.0
C1694 C 0.94452 0.0831 0.87587 0.0
H1695 H 0.9575 0.10297 0.72684 0.0
H1696 H 0.95594 0.10527 0.78455 0.0
H1697 H 0.97462 0.09511 0.7614 0.0
H1698 H 0.98308 0.07675 0.82547 0.0
H1699 H 0.99403 0.08799 0.8936 0.0
H1700 H 0.41877 0.98865 0.3739 0.0
H1701 H 0.42851 0.97568 0.3069 0.0
H1702 H 0.42125 0.92466 0.36129 0.0
H1703 H 0.4111 0.93758 0.42851 0.0
H1704 H 0.45679 0.9555 0.29708 0.0
H1705 H 0.39843 0.91956 0.24401 0.0
H1706 H 0.39773 0.93581 0.28552 0.0
H1707 H 0.4053 0.91426 0.29788 0.0
C1708 C 0.41904 0.97465 0.37158 0.0
C1709 C 0.41418 0.96414 0.4067 0.0
C1710 C 0.42462 0.96726 0.33315 0.0
C1711 C 0.42546 0.9492 0.32879 0.0
C1712 C 0.42036 0.93863 0.3635 0.0
H1713 H 0.47276 0.8793 0.15071 0.0
H1714 H 0.45626 0.89331 0.20733 0.0
C1715 C 0.41466 0.94603 0.40204 0.0
C1716 C 0.43286 0.94159 0.28904 0.0
H1717 H 0.42474 0.91332 0.20709 0.0
C1718 C 0.4497 0.94642 0.27717 0.0
C1719 C 0.42362 0.92972 0.26307 0.0
C1720 C 0.40521 0.92464 0.27296 0.0
C1721 C 0.45773 0.93939 0.24077 0.0
C1722 C 0.44858 0.92736 0.21513 0.0
C1723 C 0.43169 0.92262 0.2267 0.0
C1724 C 0.45685 0.91877 0.17789 0.0
C1725 C 0.47617 0.94444 0.23087 0.0
C1726 C 0.4622 0.92834 0.14171 0.0
C1727 C 0.47165 0.92034 0.10894 0.0
C1728 C 0.47595 0.90263 0.1119 0.0
C1729 C 0.46979 0.89297 0.14727 0.0
C1730 C 0.46031 0.90095 0.17978 0.0
H1731 H 0.48248 0.95115 0.25833 0.0
H1732 H 0.48401 0.93285 0.22267 0.0
H1733 H 0.47623 0.95335 0.20266 0.0
H1734 H 0.45944 0.94208 0.13936 0.0
H1735 H 0.47612 0.92818 0.08219 0.0
H1736 H 0.50392 0.43796 0.88789 0.0
H1737 H 0.51494 0.44847 0.81928 0.0
H1738 H 0.55265 0.40706 0.81845 0.0
H1739 H 0.54205 0.39683 0.88846 0.0
H1740 H 0.56742 0.43566 0.79646 0.0
H1741 H 0.50735 0.43178 0.70013 0.0
H1742 H 0.50366 0.44463 0.74702 0.0
H1743 H 0.50925 0.42201 0.75294 0.0
C1744 C 0.5145 0.431 0.87305 0.0
C1745 C 0.5221 0.41653 0.89358 0.0
C1746 C 0.52067 0.43692 0.83345 0.0
C1747 C 0.5343 0.42828 0.81285 0.0
C1748 C 0.54198 0.41385 0.83342 0.0
H1749 H 0.56748 0.4661 0.55577 0.0
H1750 H 0.55425 0.44762 0.61174 0.0
C1751 C 0.53598 0.40805 0.8735 0.0
C1752 C 0.54128 0.43519 0.7716 0.0
H1753 H 0.52906 0.45194 0.67364 0.0
C1754 C 0.55904 0.43891 0.76937 0.0
C1755 C 0.53052 0.43911 0.73557 0.0
C1756 C 0.51169 0.43397 0.73387 0.0
C1757 C 0.5661 0.44739 0.73347 0.0
C1758 C 0.55501 0.45284 0.69939 0.0
C1759 C 0.53748 0.44813 0.7002 0.0
C1760 C 0.56127 0.46447 0.66454 0.0
C1761 C 0.58538 0.45061 0.73274 0.0
C1762 C 0.56878 0.48038 0.67543 0.0
C1763 C 0.57635 0.49073 0.64391 0.0
C1764 C 0.57624 0.48561 0.6006 0.0
C1765 C 0.56763 0.47032 0.58898 0.0
C1766 C 0.5602 0.45976 0.62089 0.0
H1767 H 0.5925 0.44076 0.75231 0.0
H1768 H 0.59047 0.4504 0.69938 0.0
H1769 H 0.58811 0.46349 0.74684 0.0
H1770 H 0.56924 0.48458 0.70864 0.0
H1771 H 0.58274 0.50258 0.65361 0.0
H1772 H 0.09437 0.50292 0.38025 0.0
H1773 H 0.08516 0.51626 0.31249 0.0
H1774 H 0.09727 0.56676 0.36291 0.0
H1775 H 0.10689 0.55341 0.43097 0.0
H1776 H 0.05835 0.53866 0.30357 0.0
H1777 H 0.11852 0.56933 0.24362 0.0
H1778 H 0.11862 0.55325 0.28615 0.0
H1779 H 0.113 0.57537 0.29757 0.0
C1780 C 0.09532 0.51686 0.37685 0.0
C1781 C 0.10131 0.52712 0.41115 0.0
C1782 C 0.09005 0.52446 0.338 0.0
C1783 C 0.09064 0.54249 0.3324 0.0
C1784 C 0.09703 0.55279 0.36614 0.0
H1785 H 0.0467 0.61454 0.15 0.0
H1786 H 0.06271 0.59974 0.20731 0.0
C1787 C 0.10244 0.54515 0.40512 0.0
C1788 C 0.0832 0.55045 0.29262 0.0
H1789 H 0.09221 0.57721 0.20756 0.0
C1790 C 0.06582 0.54695 0.28235 0.0
C1791 C 0.09294 0.56129 0.26502 0.0
C1792 C 0.11185 0.56493 0.27333 0.0
C1793 C 0.05777 0.5543 0.24587 0.0
C1794 C 0.06744 0.56527 0.21848 0.0
C1795 C 0.08487 0.5687 0.2285 0.0
C1796 C 0.0593 0.57413 0.18089 0.0
C1797 C 0.03881 0.55074 0.23771 0.0
C1798 C 0.05248 0.56466 0.14622 0.0
C1799 C 0.04327 0.5731 0.1131 0.0
C1800 C 0.04073 0.59116 0.11416 0.0
C1801 C 0.0483 0.60062 0.14805 0.0
C1802 C 0.05751 0.59219 0.18093 0.0
H1803 H 0.03242 0.54496 0.26636 0.0
H1804 H 0.03183 0.56283 0.22857 0.0
H1805 H 0.03752 0.54149 0.21067 0.0
H1806 H 0.05394 0.55071 0.14532 0.0
H1807 H 0.03767 0.56541 0.08753 0.0
H1808 H 0.91499 0.54987 0.39235 0.0
H1809 H 0.92471 0.57114 0.34052 0.0
H1810 H 0.87353 0.57327 0.28375 0.0
H1811 H 0.86376 0.55107 0.33491 0.0
H1812 H 0.89548 0.56966 0.2238 0.0
H1813 H 0.92158 0.62159 0.32409 0.0
H1814 H 0.93103 0.60179 0.34332 0.0
H1815 H 0.90785 0.60493 0.34634 0.0
C1816 C 0.90562 0.55499 0.36941 0.0
C1817 C 0.88858 0.54862 0.36775 0.0
C1818 C 0.91119 0.56744 0.34 0.0
C1819 C 0.89979 0.57422 0.30871 0.0
C1820 C 0.88254 0.56839 0.30786 0.0
H1821 H 0.96339 0.63725 0.13171 0.0
H1822 H 0.93916 0.63141 0.18069 0.0
C1823 C 0.87698 0.55569 0.33712 0.0
C1824 C 0.90679 0.5854 0.27375 0.0
H1825 H 0.93788 0.61597 0.25656 0.0
C1826 C 0.90434 0.58015 0.23094 0.0
C1827 C 0.91793 0.59954 0.28234 0.0
C1828 C 0.91953 0.60737 0.32656 0.0
C1829 C 0.91416 0.58728 0.19745 0.0
C1830 C 0.92723 0.59949 0.20728 0.0
C1831 C 0.92827 0.60619 0.24912 0.0
C1832 C 0.94131 0.60349 0.17645 0.0
C1833 C 0.91087 0.58111 0.15212 0.0
C1834 C 0.95083 0.5898 0.15874 0.0
C1835 C 0.96446 0.59306 0.13078 0.0
C1836 C 0.96922 0.61015 0.12042 0.0
C1837 C 0.96002 0.62394 0.13901 0.0
C1838 C 0.94615 0.62063 0.16684 0.0
H1839 H 0.89692 0.57816 0.14715 0.0
H1840 H 0.91488 0.59089 0.12777 0.0
H1841 H 0.91823 0.56895 0.14673 0.0
H1842 H 0.94787 0.57648 0.167 0.0
H1843 H 0.97138 0.58209 0.11767 0.0
H1844 H 0.88459 0.94415 0.59259 0.0
H1845 H 0.89414 0.92234 0.64498 0.0
H1846 H 0.88882 0.95969 0.74691 0.0
H1847 H 0.87872 0.9814 0.69455 0.0
H1848 H 0.92364 0.92666 0.68601 0.0
H1849 H 0.87273 0.91658 0.80759 0.0
H1850 H 0.86831 0.92669 0.756 0.0
H1851 H 0.87706 0.93919 0.79981 0.0
C1852 C 0.88495 0.94752 0.62638 0.0
C1853 C 0.88107 0.96445 0.63961 0.0
C1854 C 0.89037 0.93504 0.65628 0.0
C1855 C 0.89217 0.93932 0.69992 0.0
C1856 C 0.88717 0.95593 0.7136 0.0
H1857 H 0.95663 0.91863 0.90941 0.0
H1858 H 0.93442 0.92691 0.85747 0.0
C1859 C 0.88146 0.96837 0.68366 0.0
C1860 C 0.90196 0.92759 0.72935 0.0
H1861 H 0.90226 0.91034 0.8309 0.0
C1862 C 0.91879 0.9227 0.71727 0.0
C1863 C 0.89565 0.92244 0.77011 0.0
C1864 C 0.87737 0.92636 0.78393 0.0
C1865 C 0.92986 0.91382 0.74582 0.0
C1866 C 0.92388 0.90955 0.78744 0.0
C1867 C 0.90678 0.91364 0.79887 0.0
C1868 C 0.93594 0.90315 0.82118 0.0
C1869 C 0.94824 0.91007 0.73227 0.0
C1870 C 0.944 0.88686 0.81836 0.0
C1871 C 0.95684 0.882 0.84822 0.0
C1872 C 0.9618 0.8934 0.88127 0.0
C1873 C 0.95323 0.90948 0.88451 0.0
C1874 C 0.94043 0.91425 0.85491 0.0
H1875 H 0.95144 0.91621 0.70085 0.0
H1876 H 0.95755 0.91477 0.75697 0.0
H1877 H 0.95007 0.89587 0.72925 0.0
H1878 H 0.94061 0.8781 0.79256 0.0
H1879 H 0.96314 0.86953 0.84479 0.0
H1880 H 0.55766 0.86594 0.13664 0.0
H1881 H 0.5798 0.87532 0.18863 0.0
H1882 H 0.56374 0.92846 0.16945 0.0
H1883 H 0.54238 0.9194 0.11694 0.0
H1884 H 0.59835 0.92583 0.1721 0.0
H1885 H 0.56981 0.88957 0.31029 0.0
H1886 H 0.57699 0.87717 0.26499 0.0
H1887 H 0.55868 0.89146 0.25924 0.0
C1888 C 0.55892 0.87961 0.14352 0.0
C1889 C 0.54818 0.89189 0.12272 0.0
C1890 C 0.57154 0.88495 0.17331 0.0
C1891 C 0.57334 0.90259 0.18327 0.0
C1892 C 0.56272 0.91479 0.16213 0.0
H1893 H 0.58154 0.96587 0.38511 0.0
H1894 H 0.57783 0.94347 0.33187 0.0
C1895 C 0.55039 0.90954 0.13216 0.0
C1896 C 0.58552 0.90886 0.21687 0.0
H1897 H 0.58993 0.91104 0.32607 0.0
C1898 C 0.59684 0.92238 0.2058 0.0
C1899 C 0.58366 0.90415 0.26071 0.0
C1900 C 0.57159 0.88987 0.27481 0.0
C1901 C 0.60473 0.93264 0.23746 0.0
C1902 C 0.60171 0.92881 0.28139 0.0
C1903 C 0.59208 0.91401 0.29232 0.0
C1904 C 0.60501 0.94175 0.3156 0.0
C1905 C 0.61482 0.94841 0.22351 0.0
C1906 C 0.62162 0.94831 0.32452 0.0
C1907 C 0.62378 0.96158 0.35479 0.0
C1908 C 0.6094 0.96819 0.37704 0.0
C1909 C 0.59294 0.96116 0.36873 0.0
C1910 C 0.59079 0.94821 0.33833 0.0
H1911 H 0.61392 0.95075 0.1882 0.0
H1912 H 0.61004 0.96014 0.24025 0.0
H1913 H 0.62869 0.9466 0.23208 0.0
H1914 H 0.63284 0.94331 0.30795 0.0
H1915 H 0.63665 0.9666 0.36081 0.0
H1916 H 0.57237 0.55093 0.59663 0.0
H1917 H 0.56567 0.57168 0.65212 0.0
H1918 H 0.62021 0.58124 0.67202 0.0
H1919 H 0.62711 0.55946 0.61752 0.0
H1920 H 0.60686 0.57713 0.74454 0.0
H1921 H 0.56279 0.62206 0.66168 0.0
H1922 H 0.55452 0.60082 0.65204 0.0
H1923 H 0.57569 0.6067 0.63213 0.0
C1924 C 0.583 0.55762 0.61212 0.0
C1925 C 0.6003 0.55349 0.6026 0.0
C1926 C 0.57912 0.56974 0.64366 0.0
C1927 C 0.59238 0.57849 0.66565 0.0
C1928 C 0.60972 0.57481 0.65526 0.0
H1929 H 0.53868 0.63582 0.86946 0.0
H1930 H 0.55867 0.63275 0.80876 0.0
C1931 C 0.61365 0.56235 0.62415 0.0
C1932 C 0.58792 0.58956 0.70305 0.0
H1933 H 0.55554 0.61592 0.73849 0.0
C1934 C 0.59596 0.58603 0.74289 0.0
C1935 C 0.57419 0.60179 0.7013 0.0
C1936 C 0.56652 0.60818 0.65926 0.0
C1937 C 0.58936 0.59277 0.78127 0.0
C1938 C 0.57385 0.60262 0.77998 0.0
C1939 C 0.56707 0.60786 0.73986 0.0
C1940 C 0.5632 0.60531 0.8191 0.0
C1941 C 0.59877 0.58868 0.8229 0.0
C1942 C 0.55897 0.59096 0.84488 0.0
C1943 C 0.54786 0.59271 0.87965 0.0
C1944 C 0.54023 0.60881 0.88901 0.0
C1945 C 0.54437 0.62325 0.86317 0.0
C1946 C 0.5558 0.62151 0.82852 0.0
H1947 H 0.61301 0.58849 0.81779 0.0
H1948 H 0.59577 0.59825 0.84835 0.0
H1949 H 0.59502 0.57557 0.83431 0.0
H1950 H 0.56384 0.57816 0.83737 0.0
H1951 H 0.54487 0.58124 0.89839 0.0
H1952 H 0.07869 0.45678 0.6057 0.0
H1953 H 0.06827 0.43516 0.65604 0.0
H1954 H 0.12081 0.4189 0.68306 0.0
H1955 H 0.13153 0.44127 0.63353 0.0
H1956 H 0.0704 0.40068 0.66084 0.0
H1957 H 0.1042 0.42978 0.80202 0.0
H1958 H 0.1034 0.4405 0.75031 0.0
H1959 H 0.11763 0.4223 0.75891 0.0
C1960 C 0.08813 0.44864 0.62213 0.0
C1961 C 0.106 0.45095 0.61588 0.0
C1962 C 0.0821 0.43616 0.65085 0.0
C1963 C 0.09373 0.42552 0.67382 0.0
C1964 C 0.11159 0.42722 0.66642 0.0
H1965 H 0.03011 0.35945 0.8469 0.0
H1966 H 0.0532 0.36487 0.79438 0.0
C1967 C 0.1177 0.43996 0.63795 0.0
C1968 C 0.08673 0.41354 0.707 0.0
H1969 H 0.08329 0.40885 0.81595 0.0
C1970 C 0.07342 0.40217 0.69479 0.0
C1971 C 0.09081 0.41544 0.75124 0.0
C1972 C 0.1047 0.42772 0.76666 0.0
C1973 C 0.06295 0.39399 0.72559 0.0
C1974 C 0.0663 0.39683 0.76983 0.0
C1975 C 0.08072 0.40678 0.78197 0.0
C1976 C 0.05331 0.39268 0.80333 0.0
C1977 C 0.04753 0.38365 0.71044 0.0
C1978 C 0.04608 0.40639 0.82658 0.0
C1979 C 0.03321 0.40334 0.85675 0.0
C1980 C 0.02707 0.38646 0.86437 0.0
C1981 C 0.03445 0.37261 0.84151 0.0
C1982 C 0.04759 0.37569 0.8114 0.0
H1983 H 0.0454 0.38483 0.67511 0.0
H1984 H 0.04964 0.36975 0.71832 0.0
H1985 H 0.03558 0.38797 0.72699 0.0
H1986 H 0.05018 0.41961 0.8208 0.0
H1987 H 0.0279 0.41436 0.87361 0.0
H1988 H 0.02733 0.12975 0.18549 0.0
H1989 H 0.04858 0.12162 0.24134 0.0
H1990 H 0.07027 0.0833 0.15673 0.0
H1991 H 0.04927 0.09112 0.10135 0.0
H1992 H 0.05007 0.08734 0.27486 0.0
H1993 H 0.11359 0.10654 0.20831 0.0
H1994 H 0.09335 0.11589 0.18968 0.0
H1995 H 0.10025 0.09504 0.17057 0.0
C1996 C 0.03687 0.11986 0.17847 0.0
C1997 C 0.03655 0.11109 0.13887 0.0
C1998 C 0.049 0.11525 0.21038 0.0
C1999 C 0.06118 0.10206 0.20286 0.0
C2000 C 0.06128 0.09379 0.16286 0.0
H2001 H 0.12422 0.02686 0.32755 0.0
H2002 H 0.11193 0.04872 0.27845 0.0
C2003 C 0.04911 0.09823 0.13126 0.0
C2004 C 0.07227 0.09517 0.23816 0.0
H2005 H 0.1141 0.08431 0.26321 0.0
C2006 C 0.06409 0.08701 0.27295 0.0
C2007 C 0.09053 0.09459 0.23513 0.0
C2008 C 0.09997 0.10362 0.19909 0.0
C2009 C 0.0736 0.0774 0.30353 0.0
C2010 C 0.09187 0.07637 0.29988 0.0
C2011 C 0.10012 0.08513 0.26599 0.0
C2012 C 0.10232 0.06519 0.32922 0.0
C2013 C 0.06384 0.06756 0.33786 0.0
C2014 C 0.10188 0.06772 0.37389 0.0
C2015 C 0.10864 0.05513 0.40184 0.0
C2016 C 0.11631 0.04002 0.38559 0.0
C2017 C 0.11837 0.03836 0.34092 0.0
C2018 C 0.11132 0.05084 0.31287 0.0
H2019 H 0.04982 0.06646 0.32998 0.0
H2020 H 0.06923 0.0543 0.3423 0.0
H2021 H 0.06503 0.07449 0.36892 0.0
H2022 H 0.09546 0.07896 0.38717 0.0
H2023 H 0.10724 0.05689 0.43615 0.0
H2024 H 0.37458 0.03476 0.64915 0.0
H2025 H 0.38226 0.05741 0.70081 0.0
H2026 H 0.42846 0.06869 0.62877 0.0
H2027 H 0.4211 0.04616 0.57747 0.0
H2028 H 0.41433 0.05583 0.74803 0.0
H2029 H 0.40824 0.1173 0.65549 0.0
H2030 H 0.39724 0.09765 0.6399 0.0
H2031 H 0.41983 0.10044 0.62821 0.0
C2032 C 0.3862 0.04228 0.64381 0.0
C2033 C 0.39722 0.03859 0.6091 0.0
C2034 C 0.39055 0.05523 0.67334 0.0
C2035 C 0.40579 0.06488 0.6682 0.0
C2036 C 0.41645 0.06165 0.6328 0.0
H2037 H 0.4768 0.12594 0.81294 0.0
H2038 H 0.45833 0.11394 0.75596 0.0
C2039 C 0.41224 0.04865 0.60361 0.0
C2040 C 0.41181 0.07677 0.70236 0.0
H2041 H 0.42505 0.1183 0.72062 0.0
C2042 C 0.41637 0.06956 0.74241 0.0
C2043 C 0.41468 0.0946 0.69454 0.0
C2044 C 0.40962 0.10303 0.65232 0.0
C2045 C 0.42445 0.0795 0.77433 0.0
C2046 C 0.42755 0.09734 0.76642 0.0
C2047 C 0.42258 0.10467 0.72669 0.0
C2048 C 0.43692 0.10812 0.79829 0.0
C2049 C 0.43043 0.07055 0.81529 0.0
C2050 C 0.43056 0.10982 0.84027 0.0
C2051 C 0.44116 0.11642 0.87281 0.0
C2052 C 0.4581 0.12184 0.86364 0.0
C2053 C 0.46375 0.12193 0.82076 0.0
C2054 C 0.45324 0.11502 0.78826 0.0
H2055 H 0.4309 0.05624 0.81174 0.0
H2056 H 0.44351 0.07509 0.82516 0.0
H2057 H 0.42126 0.07356 0.84157 0.0
H2058 H 0.41783 0.105 0.84844 0.0
H2059 H 0.43645 0.11641 0.90558 0.0
H2060 H 0.47208 0.37828 0.16088 0.0
H2061 H 0.45252 0.38685 0.21886 0.0
H2062 H 0.4204 0.41446 0.12691 0.0
H2063 H 0.44005 0.40638 0.06942 0.0
H2064 H 0.43147 0.43496 0.19025 0.0
H2065 H 0.40446 0.37498 0.2617 0.0
H2066 H 0.42765 0.37455 0.2577 0.0
H2067 H 0.41461 0.3754 0.20944 0.0
C2068 C 0.46058 0.38576 0.15291 0.0
C2069 C 0.45772 0.39185 0.11067 0.0
C2070 C 0.44935 0.39058 0.18604 0.0
C2071 C 0.43493 0.40124 0.1772 0.0
C2072 C 0.43144 0.40625 0.13451 0.0
H2073 H 0.37396 0.4671 0.34932 0.0
H2074 H 0.38128 0.44907 0.28729 0.0
C2075 C 0.44273 0.40165 0.10165 0.0
C2076 C 0.42501 0.40931 0.21261 0.0
H2077 H 0.40225 0.40079 0.30428 0.0
C2078 C 0.42481 0.42748 0.21475 0.0
C2079 C 0.41645 0.39954 0.2447 0.0
C2080 C 0.41564 0.38004 0.24314 0.0
C2081 C 0.41685 0.43615 0.24883 0.0
C2082 C 0.40859 0.42639 0.28143 0.0
C2083 C 0.40846 0.40823 0.27898 0.0
C2084 C 0.40171 0.4349 0.32034 0.0
C2085 C 0.41809 0.45566 0.25077 0.0
C2086 C 0.41017 0.43227 0.35989 0.0
C2087 C 0.40603 0.44246 0.39526 0.0
C2088 C 0.39328 0.45551 0.39186 0.0
C2089 C 0.38391 0.45725 0.35302 0.0
C2090 C 0.3881 0.44701 0.3175 0.0
H2091 H 0.42758 0.46092 0.22735 0.0
H2092 H 0.40523 0.46143 0.24316 0.0
H2093 H 0.42194 0.45989 0.28358 0.0
H2094 H 0.42068 0.42297 0.36275 0.0
H2095 H 0.41344 0.44061 0.4247 0.0
loop_
_geom_bond_atom_site_label_1
_geom_bond_atom_site_label_2
_geom_bond_distance
_geom_bond_site_symmetry_2
_ccdc_geom_bond_type
Co0 O2 2.132 1_655 S
Co0 O8 2.074 . S
Co0 O11 2.093 1_654 S
Co0 O24 2.097 1_655 S
Co0 N41 2.151 1_554 S
Co0 N49 2.214 . S
Co1 O2 2.166 . S
Co1 O7 2.058 1_455 S
Co1 O17 2.057 1_455 S
Co1 O32 2.037 . S
Co1 N36 2.145 . S
Co1 N57 2.257 . S
O2 Co0 2.132 1_455 S
O2 Co1 2.166 . S
C3 O4 1.278 . S
C3 O11 1.224 . S
O4 C3 1.278 . S
C5 O6 1.245 1_554 S
C5 O17 1.232 . S
O6 C5 1.245 1_556 S
O7 Co1 2.058 1_655 S
O7 C33 1.269 . S
O8 Co0 2.074 . S
O8 C33 1.257 . S
H9 C34 0.930 . S
H10 C40 0.930 . S
O11 Co0 2.093 1_456 S
O11 C3 1.224 . S
H12 C44 0.929 . S
H13 C46 0.930 1_556 S
H14 C47 0.930 . S
H15 C45 0.929 1_554 S
H16 C48 0.928 . S
O17 Co1 2.057 1_655 S
O17 C5 1.232 . S
H18 C37 0.929 . S
H19 C38 0.929 . S
H20 C50 0.931 . S
H21 C42 0.929 . S
H22 C51 0.930 . S
H23 C43 0.931 . S
O24 Co0 2.097 1_455 S
O24 C52 1.214 . S
H25 C53 0.929 1_556 S
H26 C54 0.929 . S
H27 C55 0.930 . S
H28 C56 0.929 . S
H29 C58 0.930 1_556 S
H30 C35 0.930 . S
H31 C39 0.930 . S
O32 Co1 2.037 . S
O32 C52 1.234 . S
C33 O7 1.269 . S
C33 O8 1.257 . S
C34 H9 0.930 . S
C34 C37 1.388 . S
C34 C39 1.418 . S
C35 H30 0.930 . S
C35 C38 1.404 . S
C35 C39 1.353 . S
N36 Co1 2.145 . S
N36 C37 1.397 . S
N36 C38 1.334 . S
C37 H18 0.929 . S
C37 C34 1.388 . S
C37 N36 1.397 . S
C38 H19 0.929 . S
C38 C35 1.404 . S
C38 N36 1.334 . S
C39 H31 0.930 . S
C39 C34 1.418 . S
C39 C35 1.353 . S
C40 H10 0.930 . S
C40 N41 1.330 . S
C40 C42 1.446 . S
N41 Co0 2.151 1_556 S
N41 C40 1.330 . S
N41 C45 1.418 . S
C42 H21 0.929 . S
C42 C40 1.446 . S
C42 C43 1.332 . S
C43 H23 0.931 . S
C43 C42 1.332 . S
C43 C44 1.267 . S
C44 H12 0.929 . S
C44 C43 1.267 . S
C44 C45 1.251 . S
C45 H15 0.929 1_556 S
C45 N41 1.418 . S
C45 C44 1.251 . S
C46 H13 0.930 1_554 S
C46 C48 1.406 1_554 S
C46 C51 1.261 . S
C47 H14 0.930 . S
C47 N49 1.325 . S
C47 C50 1.357 . S
C48 H16 0.928 . S
C48 C46 1.406 1_556 S
C48 N49 1.261 1_556 S
N49 Co0 2.214 . S
N49 C47 1.325 . S
N49 C48 1.261 1_554 S
C50 H20 0.931 . S
C50 C47 1.357 . S
C50 C51 1.312 . S
C51 H22 0.930 . S
C51 C46 1.261 . S
C51 C50 1.312 . S
C52 O24 1.214 . S
C52 O32 1.234 . S
C53 H25 0.929 1_554 S
C53 C56 1.391 . S
C53 C58 1.391 . S
C54 H26 0.929 . S
C54 C55 1.390 . S
C54 N57 1.391 . S
C55 H27 0.930 . S
C55 C54 1.390 . S
C55 C56 1.392 . S
C56 H28 0.929 . S
C56 C53 1.391 . S
C56 C55 1.392 . S
N57 Co1 2.257 . S
N57 C54 1.391 . S
N57 C58 1.388 . S
C58 H29 0.930 1_554 S
C58 C53 1.391 . S
C58 N57 1.388 . S
Co59 O61 2.134 1_565 S
Co59 O67 2.074 . S
Co59 O70 2.093 1_565 S
Co59 O83 2.097 1_565 S
Co59 N100 2.151 . S
Co59 N108 2.214 . S
Co60 O61 2.165 . S
Co60 O66 2.058 1_545 S
Co60 O76 2.057 1_545 S
Co60 O91 2.037 . S
Co60 N95 2.145 . S
Co60 N116 2.257 . S
O61 Co59 2.134 1_545 S
O61 Co60 2.165 . S
C62 O63 1.278 . S
C62 O70 1.224 . S
O63 C62 1.278 . S
C64 O65 1.245 . S
C64 O76 1.232 . S
O65 C64 1.245 . S
O66 Co60 2.058 1_565 S
O66 C92 1.269 . S
O67 Co59 2.074 . S
O67 C92 1.257 . S
H68 C93 0.930 . S
H69 C99 0.930 . S
O70 Co59 2.093 1_545 S
O70 C62 1.224 . S
H71 C103 0.929 . S
H72 C105 0.930 . S
H73 C106 0.930 . S
H74 C104 0.929 . S
H75 C107 0.928 . S
O76 Co60 2.057 1_565 S
O76 C64 1.232 . S
H77 C96 0.929 . S
H78 C97 0.929 . S
H79 C109 0.931 . S
H80 C101 0.929 . S
H81 C110 0.930 . S
H82 C102 0.931 . S
O83 Co59 2.097 1_545 S
O83 C111 1.214 . S
H84 C112 0.929 . S
H85 C113 0.929 . S
H86 C114 0.930 . S
H87 C115 0.929 . S
H88 C117 0.930 . S
H89 C94 0.930 . S
H90 C98 0.930 . S
O91 Co60 2.037 . S
O91 C111 1.234 . S
C92 O66 1.269 . S
C92 O67 1.257 . S
C93 H68 0.930 . S
C93 C96 1.388 . S
C93 C98 1.418 . S
C94 H89 0.930 . S
C94 C97 1.404 . S
C94 C98 1.353 . S
N95 Co60 2.145 . S
N95 C96 1.397 . S
N95 C97 1.334 . S
C96 H77 0.929 . S
C96 C93 1.388 . S
C96 N95 1.397 . S
C97 H78 0.929 . S
C97 C94 1.404 . S
C97 N95 1.334 . S
C98 H90 0.930 . S
C98 C93 1.418 . S
C98 C94 1.353 . S
C99 H69 0.930 . S
C99 N100 1.330 . S
C99 C101 1.446 . S
N100 Co59 2.151 . S
N100 C99 1.330 . S
N100 C104 1.418 . S
C101 H80 0.929 . S
C101 C99 1.446 . S
C101 C102 1.332 . S
C102 H82 0.931 . S
C102 C101 1.332 . S
C102 C103 1.267 . S
C103 H71 0.929 . S
C103 C102 1.267 . S
C103 C104 1.251 . S
C104 H74 0.929 . S
C104 N100 1.418 . S
C104 C103 1.251 . S
C105 H72 0.930 . S
C105 C107 1.406 . S
C105 C110 1.261 . S
C106 H73 0.930 . S
C106 N108 1.325 . S
C106 C109 1.357 . S
C107 H75 0.928 . S
C107 C105 1.406 . S
C107 N108 1.261 . S
N108 Co59 2.214 . S
N108 C106 1.325 . S
N108 C107 1.261 . S
C109 H79 0.931 . S
C109 C106 1.357 . S
C109 C110 1.312 . S
C110 H81 0.930 . S
C110 C105 1.261 . S
C110 C109 1.312 . S
C111 O83 1.214 . S
C111 O91 1.234 . S
C112 H84 0.929 . S
C112 C115 1.391 . S
C112 C117 1.391 . S
C113 H85 0.929 . S
C113 C114 1.390 . S
C113 N116 1.391 . S
C114 H86 0.930 . S
C114 C113 1.390 . S
C114 C115 1.392 . S
C115 H87 0.929 . S
C115 C112 1.391 . S
C115 C114 1.392 . S
N116 Co60 2.257 . S
N116 C113 1.391 . S
N116 C117 1.388 . S
C117 H88 0.930 . S
C117 C112 1.391 . S
C117 N116 1.388 . S
Co118 O120 2.143 . S
Co118 O126 2.074 . S
Co118 O129 2.093 1_554 S
Co118 O142 2.097 . S
Co118 N159 2.151 1_554 S
Co118 N167 2.214 . S
Co119 O120 2.160 . S
Co119 O125 2.058 . S
Co119 O135 2.057 . S
Co119 O150 2.037 . S
Co119 N154 2.145 . S
Co119 N175 2.257 . S
O120 Co118 2.143 . S
O120 Co119 2.160 . S
C121 O122 1.278 . S
C121 O129 1.224 . S
O122 C121 1.278 . S
C123 O124 1.245 1_554 S
C123 O135 1.232 . S
O124 C123 1.245 1_556 S
O125 Co119 2.058 . S
O125 C151 1.269 . S
O126 Co118 2.074 . S
O126 C151 1.257 . S
H127 C152 0.930 . S
H128 C158 0.930 . S
O129 Co118 2.093 1_556 S
O129 C121 1.224 . S
H130 C162 0.929 . S
H131 C164 0.930 1_556 S
H132 C165 0.930 . S
H133 C163 0.929 1_554 S
H134 C166 0.917 1_556 S
O135 Co119 2.057 . S
O135 C123 1.232 . S
H136 C155 0.929 . S
H137 C156 0.929 . S
H138 C168 0.931 . S
H139 C160 0.929 . S
H140 C169 0.930 . S
H141 C161 0.931 . S
O142 Co118 2.097 . S
O142 C170 1.214 . S
H143 C171 0.929 1_556 S
H144 C172 0.929 . S
H145 C173 0.930 . S
H146 C174 0.929 . S
H147 C176 0.930 . S
H148 C153 0.930 . S
H149 C157 0.930 . S
O150 Co119 2.037 . S
O150 C170 1.234 . S
C151 O125 1.269 . S
C151 O126 1.257 . S
C152 H127 0.930 . S
C152 C155 1.388 . S
C152 C157 1.418 . S
C153 H148 0.930 . S
C153 C156 1.404 . S
C153 C157 1.353 . S
N154 Co119 2.145 . S
N154 C155 1.397 . S
N154 C156 1.334 . S
C155 H136 0.929 . S
C155 C152 1.388 . S
C155 N154 1.397 . S
C156 H137 0.929 . S
C156 C153 1.404 . S
C156 N154 1.334 . S
C157 H149 0.930 . S
C157 C152 1.418 . S
C157 C153 1.353 . S
C158 H128 0.930 . S
C158 N159 1.330 . S
C158 C160 1.446 . S
N159 Co118 2.151 1_556 S
N159 C158 1.330 . S
N159 C163 1.418 . S
C160 H139 0.929 . S
C160 C158 1.446 . S
C160 C161 1.332 . S
C161 H141 0.931 . S
C161 C160 1.332 . S
C161 C162 1.267 . S
C162 H130 0.929 . S
C162 C161 1.267 . S
C162 C163 1.251 . S
C163 H133 0.929 1_556 S
C163 N159 1.418 . S
C163 C162 1.251 . S
C164 H131 0.930 1_554 S
C164 C166 1.408 . S
C164 C169 1.261 . S
C165 H132 0.930 . S
C165 N167 1.325 . S
C165 C168 1.357 . S
C166 H134 0.917 1_554 S
C166 C164 1.408 . S
C166 N167 1.270 . S
N167 Co118 2.214 . S
N167 C165 1.325 . S
N167 C166 1.270 . S
C168 H138 0.931 . S
C168 C165 1.357 . S
C168 C169 1.312 . S
C169 H140 0.930 . S
C169 C164 1.261 . S
C169 C168 1.312 . S
C170 O142 1.214 . S
C170 O150 1.234 . S
C171 H143 0.929 1_554 S
C171 C174 1.391 . S
C171 C176 1.391 . S
C172 H144 0.929 . S
C172 C173 1.390 . S
C172 N175 1.391 . S
C173 H145 0.930 . S
C173 C172 1.390 . S
C173 C174 1.392 . S
C174 H146 0.929 . S
C174 C171 1.391 . S
C174 C173 1.392 . S
N175 Co119 2.257 . S
N175 C172 1.391 . S
N175 C176 1.388 . S
C176 H147 0.930 . S
C176 C171 1.391 . S
C176 N175 1.388 . S
Co177 O179 2.143 . S
Co177 O185 2.074 . S
Co177 O188 2.093 . S
Co177 O201 2.097 . S
Co177 N218 2.151 . S
Co177 N226 2.214 . S
Co178 O179 2.160 . S
Co178 O184 2.058 . S
Co178 O194 2.057 . S
Co178 O209 2.037 . S
Co178 N213 2.145 . S
Co178 N234 2.257 . S
O179 Co177 2.143 . S
O179 Co178 2.160 . S
C180 O181 1.278 . S
C180 O188 1.224 . S
O181 C180 1.278 . S
C182 O183 1.245 . S
C182 O194 1.232 . S
O183 C182 1.245 . S
O184 Co178 2.058 . S
O184 C210 1.269 . S
O185 Co177 2.074 . S
O185 C210 1.257 . S
H186 C211 0.930 . S
H187 C217 0.930 . S
O188 Co177 2.093 . S
O188 C180 1.224 . S
H189 C221 0.929 . S
H190 C223 0.930 . S
H191 C224 0.930 . S
H192 C222 0.929 . S
H193 C225 0.928 . S
O194 Co178 2.057 . S
O194 C182 1.232 . S
H195 C214 0.929 . S
H196 C215 0.929 . S
H197 C227 0.931 . S
H198 C219 0.929 . S
H199 C228 0.930 . S
H200 C220 0.931 . S
O201 Co177 2.097 . S
O201 C229 1.214 . S
H202 C230 0.929 . S
H203 C231 0.929 . S
H204 C232 0.930 . S
H205 C233 0.929 . S
H206 C235 0.930 . S
H207 C212 0.930 . S
H208 C216 0.930 . S
O209 Co178 2.037 . S
O209 C229 1.234 . S
C210 O184 1.269 . S
C210 O185 1.257 . S
C211 H186 0.930 . S
C211 C214 1.388 . S
C211 C216 1.418 . S
C212 H207 0.930 . S
C212 C215 1.404 . S
C212 C216 1.353 . S
N213 Co178 2.145 . S
N213 C214 1.397 . S
N213 C215 1.334 . S
C214 H195 0.929 . S
C214 C211 1.388 . S
C214 N213 1.397 . S
C215 H196 0.929 . S
C215 C212 1.404 . S
C215 N213 1.334 . S
C216 H208 0.930 . S
C216 C211 1.418 . S
C216 C212 1.353 . S
C217 H187 0.930 . S
C217 N218 1.330 . S
C217 C219 1.446 . S
N218 Co177 2.151 . S
N218 C217 1.330 . S
N218 C222 1.418 . S
C219 H198 0.929 . S
C219 C217 1.446 . S
C219 C220 1.332 . S
C220 H200 0.931 . S
C220 C219 1.332 . S
C220 C221 1.267 . S
C221 H189 0.929 . S
C221 C220 1.267 . S
C221 C222 1.251 . S
C222 H192 0.929 . S
C222 N218 1.418 . S
C222 C221 1.251 . S
C223 H190 0.930 . S
C223 C225 1.406 . S
C223 C228 1.261 . S
C224 H191 0.930 . S
C224 N226 1.325 . S
C224 C227 1.357 . S
C225 H193 0.928 . S
C225 C223 1.406 . S
C225 N226 1.261 . S
N226 Co177 2.214 . S
N226 C224 1.325 . S
N226 C225 1.261 . S
C227 H197 0.931 . S
C227 C224 1.357 . S
C227 C228 1.312 . S
C228 H199 0.930 . S
C228 C223 1.261 . S
C228 C227 1.312 . S
C229 O201 1.214 . S
C229 O209 1.234 . S
C230 H202 0.929 . S
C230 C233 1.391 . S
C230 C235 1.391 . S
C231 H203 0.929 . S
C231 C232 1.390 . S
C231 N234 1.391 . S
C232 H204 0.930 . S
C232 C231 1.390 . S
C232 C233 1.392 . S
C233 H205 0.929 . S
C233 C230 1.391 . S
C233 C232 1.392 . S
N234 Co178 2.257 . S
N234 C231 1.391 . S
N234 C235 1.388 . S
C235 H206 0.930 . S
C235 C230 1.391 . S
C235 N234 1.388 . S
Co236 O238 2.134 1_655 S
Co236 O244 2.074 . S
Co236 O247 2.093 1_656 S
Co236 O260 2.097 1_655 S
Co236 N277 2.151 1_556 S
Co236 N285 2.214 . S
Co237 O238 2.165 . S
Co237 O243 2.058 1_455 S
Co237 O253 2.057 1_455 S
Co237 O268 2.037 . S
Co237 N272 2.145 . S
Co237 N293 2.257 . S
O238 Co236 2.134 1_455 S
O238 Co237 2.165 . S
C239 O240 1.278 . S
C239 O247 1.224 . S
O240 C239 1.278 . S
C241 O242 1.257 . S
C241 O253 1.232 . S
O242 C241 1.257 . S
O243 Co237 2.058 1_655 S
O243 C269 1.269 . S
O244 Co236 2.074 . S
O244 C269 1.257 . S
H245 C270 0.930 . S
H246 C276 0.930 . S
O247 Co236 2.093 1_454 S
O247 C239 1.224 . S
H248 C280 0.929 . S
H249 C282 0.930 1_554 S
H250 C283 0.930 . S
H251 C281 0.929 1_556 S
H252 C284 0.928 1_554 S
O253 Co237 2.057 1_655 S
O253 C241 1.232 . S
H254 C273 0.929 . S
H255 C274 0.929 . S
H256 C286 0.931 . S
H257 C278 0.929 . S
H258 C287 0.930 . S
H259 C279 0.931 . S
O260 Co236 2.097 1_455 S
O260 C288 1.214 . S
H261 C289 0.929 1_554 S
H262 C290 0.929 . S
H263 C291 0.930 . S
H264 C292 0.929 . S
H265 C294 0.930 . S
H266 C271 0.930 . S
H267 C275 0.930 . S
O268 Co237 2.037 . S
O268 C288 1.234 . S
C269 O243 1.269 . S
C269 O244 1.257 . S
C270 H245 0.930 . S
C270 C273 1.388 . S
C270 C275 1.418 . S
C271 H266 0.930 . S
C271 C274 1.404 . S
C271 C275 1.353 . S
N272 Co237 2.145 . S
N272 C273 1.397 . S
N272 C274 1.334 . S
C273 H254 0.929 . S
C273 C270 1.388 . S
C273 N272 1.397 . S
C274 H255 0.929 . S
C274 C271 1.404 . S
C274 N272 1.334 . S
C275 H267 0.930 . S
C275 C270 1.418 . S
C275 C271 1.353 . S
C276 H246 0.930 . S
C276 N277 1.330 . S
C276 C278 1.446 . S
N277 Co236 2.151 1_554 S
N277 C276 1.330 . S
N277 C281 1.418 . S
C278 H257 0.929 . S
C278 C276 1.446 . S
C278 C279 1.332 . S
C279 H259 0.931 . S
C279 C278 1.332 . S
C279 C280 1.267 . S
C280 H248 0.929 . S
C280 C279 1.267 . S
C280 C281 1.251 . S
C281 H251 0.929 1_554 S
C281 N277 1.418 . S
C281 C280 1.251 . S
C282 H249 0.930 1_556 S
C282 C284 1.406 . S
C282 C287 1.261 . S
C283 H250 0.930 . S
C283 N285 1.325 . S
C283 C286 1.357 . S
C284 H252 0.928 1_556 S
C284 C282 1.406 . S
C284 N285 1.261 . S
N285 Co236 2.214 . S
N285 C283 1.325 . S
N285 C284 1.261 . S
C286 H256 0.931 . S
C286 C283 1.357 . S
C286 C287 1.312 . S
C287 H258 0.930 . S
C287 C282 1.261 . S
C287 C286 1.312 . S
C288 O260 1.214 . S
C288 O268 1.234 . S
C289 H261 0.929 1_556 S
C289 C292 1.391 . S
C289 C294 1.391 . S
C290 H262 0.929 . S
C290 C291 1.390 . S
C290 N293 1.391 . S
C291 H263 0.930 . S
C291 C290 1.390 . S
C291 C292 1.392 . S
C292 H264 0.929 . S
C292 C289 1.391 . S
C292 C291 1.392 . S
N293 Co237 2.257 . S
N293 C290 1.391 . S
N293 C294 1.388 . S
C294 H265 0.930 . S
C294 C289 1.391 . S
C294 N293 1.388 . S
Co295 O297 2.132 1_565 S
Co295 O303 2.074 . S
Co295 O306 2.093 1_565 S
Co295 O319 2.097 1_565 S
Co295 N336 2.151 . S
Co295 N344 2.214 . S
Co296 O297 2.166 . S
Co296 O302 2.058 1_545 S
Co296 O312 2.057 1_545 S
Co296 O327 2.037 . S
Co296 N331 2.145 . S
Co296 N352 2.257 . S
O297 Co295 2.132 1_545 S
O297 Co296 2.166 . S
C298 O299 1.278 . S
C298 O306 1.224 . S
O299 C298 1.278 . S
C300 O301 1.245 . S
C300 O312 1.232 . S
O301 C300 1.245 . S
O302 Co296 2.058 1_565 S
O302 C328 1.269 . S
O303 Co295 2.074 . S
O303 C328 1.257 . S
H304 C329 0.930 . S
H305 C335 0.930 . S
O306 Co295 2.093 1_545 S
O306 C298 1.224 . S
H307 C339 0.929 . S
H308 C341 0.930 . S
H309 C342 0.930 . S
H310 C340 0.929 . S
H311 C343 0.928 . S
O312 Co296 2.057 1_565 S
O312 C300 1.232 . S
H313 C332 0.929 . S
H314 C333 0.929 . S
H315 C345 0.931 . S
H316 C337 0.929 . S
H317 C346 0.930 . S
H318 C338 0.931 . S
O319 Co295 2.097 1_545 S
O319 C347 1.214 . S
H320 C348 0.929 . S
H321 C349 0.929 . S
H322 C350 0.930 . S
H323 C351 0.929 . S
H324 C353 0.930 . S
H325 C330 0.930 . S
H326 C334 0.930 . S
O327 Co296 2.037 . S
O327 C347 1.234 . S
C328 O302 1.269 . S
C328 O303 1.257 . S
C329 H304 0.930 . S
C329 C332 1.388 . S
C329 C334 1.418 . S
C330 H325 0.930 . S
C330 C333 1.404 . S
C330 C334 1.353 . S
N331 Co296 2.145 . S
N331 C332 1.397 . S
N331 C333 1.334 . S
C332 H313 0.929 . S
C332 C329 1.388 . S
C332 N331 1.397 . S
C333 H314 0.929 . S
C333 C330 1.404 . S
C333 N331 1.334 . S
C334 H326 0.930 . S
C334 C329 1.418 . S
C334 C330 1.353 . S
C335 H305 0.930 . S
C335 N336 1.330 . S
C335 C337 1.446 . S
N336 Co295 2.151 . S
N336 C335 1.330 . S
N336 C340 1.418 . S
C337 H316 0.929 . S
C337 C335 1.446 . S
C337 C338 1.332 . S
C338 H318 0.931 . S
C338 C337 1.332 . S
C338 C339 1.267 . S
C339 H307 0.929 . S
C339 C338 1.267 . S
C339 C340 1.251 . S
C340 H310 0.929 . S
C340 N336 1.418 . S
C340 C339 1.251 . S
C341 H308 0.930 . S
C341 C343 1.406 . S
C341 C346 1.261 . S
C342 H309 0.930 . S
C342 N344 1.325 . S
C342 C345 1.357 . S
C343 H311 0.928 . S
C343 C341 1.406 . S
C343 N344 1.261 . S
N344 Co295 2.214 . S
N344 C342 1.325 . S
N344 C343 1.261 . S
C345 H315 0.931 . S
C345 C342 1.357 . S
C345 C346 1.312 . S
C346 H317 0.930 . S
C346 C341 1.261 . S
C346 C345 1.312 . S
C347 O319 1.214 . S
C347 O327 1.234 . S
C348 H320 0.929 . S
C348 C351 1.391 . S
C348 C353 1.391 . S
C349 H321 0.929 . S
C349 C350 1.390 . S
C349 N352 1.391 . S
C350 H322 0.930 . S
C350 C349 1.390 . S
C350 C351 1.392 . S
C351 H323 0.929 . S
C351 C348 1.391 . S
C351 C350 1.392 . S
N352 Co296 2.257 . S
N352 C349 1.391 . S
N352 C353 1.388 . S
C353 H324 0.930 . S
C353 C348 1.391 . S
C353 N352 1.388 . S
Co354 O356 2.143 . S
Co354 O362 2.074 . S
Co354 O365 2.093 1_556 S
Co354 O378 2.097 . S
Co354 N395 2.151 1_556 S
Co354 N403 2.214 . S
Co355 O356 2.158 . S
Co355 O361 2.058 . S
Co355 O371 2.057 . S
Co355 O386 2.037 . S
Co355 N390 2.145 . S
Co355 N411 2.257 . S
O356 Co354 2.143 . S
O356 Co355 2.158 . S
C357 O358 1.278 . S
C357 O365 1.224 . S
O358 C357 1.278 . S
C359 O360 1.245 . S
C359 O371 1.232 1_554 S
O360 C359 1.245 . S
O361 Co355 2.058 . S
O361 C387 1.269 . S
O362 Co354 2.074 . S
O362 C387 1.257 . S
H363 C388 0.930 . S
H364 C394 0.930 . S
O365 Co354 2.093 1_554 S
O365 C357 1.224 . S
H366 C398 0.929 . S
H367 C400 0.930 . S
H368 C401 0.930 . S
H369 C399 0.929 . S
H370 C402 0.928 . S
O371 Co355 2.057 . S
O371 C359 1.232 1_556 S
H372 C391 0.929 . S
H373 C392 0.929 . S
H374 C404 0.931 . S
H375 C396 0.929 . S
H376 C405 0.930 . S
H377 C397 0.931 . S
O378 Co354 2.097 . S
O378 C406 1.214 . S
H379 C407 0.929 . S
H380 C408 0.929 . S
H381 C409 0.930 . S
H382 C410 0.929 . S
H383 C412 0.940 . S
H384 C389 0.930 . S
H385 C393 0.930 . S
O386 Co355 2.037 . S
O386 C406 1.234 . S
C387 O361 1.269 . S
C387 O362 1.257 . S
C388 H363 0.930 . S
C388 C391 1.388 . S
C388 C393 1.418 . S
C389 H384 0.930 . S
C389 C392 1.404 . S
C389 C393 1.353 . S
N390 Co355 2.145 . S
N390 C391 1.397 . S
N390 C392 1.334 . S
C391 H372 0.929 . S
C391 C388 1.388 . S
C391 N390 1.397 . S
C392 H373 0.929 . S
C392 C389 1.404 . S
C392 N390 1.334 . S
C393 H385 0.930 . S
C393 C388 1.418 . S
C393 C389 1.353 . S
C394 H364 0.930 . S
C394 N395 1.330 . S
C394 C396 1.446 . S
N395 Co354 2.151 1_554 S
N395 C394 1.330 . S
N395 C399 1.418 . S
C396 H375 0.929 . S
C396 C394 1.446 . S
C396 C397 1.332 . S
C397 H377 0.931 . S
C397 C396 1.332 . S
C397 C398 1.267 . S
C398 H366 0.929 . S
C398 C397 1.267 . S
C398 C399 1.251 . S
C399 H369 0.929 . S
C399 N395 1.418 . S
C399 C398 1.251 . S
C400 H367 0.930 . S
C400 C402 1.406 . S
C400 C405 1.261 1_554 S
C401 H368 0.930 . S
C401 N403 1.325 . S
C401 C404 1.357 . S
C402 H370 0.928 . S
C402 C400 1.406 . S
C402 N403 1.261 1_554 S
N403 Co354 2.214 . S
N403 C401 1.325 . S
N403 C402 1.261 1_556 S
C404 H374 0.931 . S
C404 C401 1.357 . S
C404 C405 1.312 . S
C405 H376 0.930 . S
C405 C400 1.261 1_556 S
C405 C404 1.312 . S
C406 O378 1.214 . S
C406 O386 1.234 . S
C407 H379 0.929 . S
C407 C410 1.391 1_554 S
C407 C412 1.396 . S
C408 H380 0.929 . S
C408 C409 1.390 . S
C408 N411 1.391 . S
C409 H381 0.930 . S
C409 C408 1.390 . S
C409 C410 1.392 . S
C410 H382 0.929 . S
C410 C407 1.391 1_556 S
C410 C409 1.392 . S
N411 Co355 2.257 . S
N411 C408 1.391 . S
N411 C412 1.373 1_556 S
C412 H383 0.940 . S
C412 C407 1.396 . S
C412 N411 1.373 1_554 S
Co413 O415 2.143 . S
Co413 O421 2.074 . S
Co413 O424 2.093 . S
Co413 O437 2.097 . S
Co413 N454 2.151 . S
Co413 N462 2.214 . S
Co414 O415 2.160 . S
Co414 O420 2.058 . S
Co414 O430 2.057 . S
Co414 O445 2.037 . S
Co414 N449 2.145 . S
Co414 N470 2.257 . S
O415 Co413 2.143 . S
O415 Co414 2.160 . S
C416 O417 1.278 . S
C416 O424 1.224 . S
O417 C416 1.278 . S
C418 O419 1.245 . S
C418 O430 1.232 . S
O419 C418 1.245 . S
O420 Co414 2.058 . S
O420 C446 1.269 . S
O421 Co413 2.074 . S
O421 C446 1.257 . S
H422 C447 0.930 . S
H423 C453 0.930 . S
O424 Co413 2.093 . S
O424 C416 1.224 . S
H425 C457 0.929 . S
H426 C459 0.930 . S
H427 C460 0.930 . S
H428 C458 0.929 . S
H429 C461 0.928 . S
O430 Co414 2.057 . S
O430 C418 1.232 . S
H431 C450 0.929 . S
H432 C451 0.929 . S
H433 C463 0.931 . S
H434 C455 0.929 . S
H435 C464 0.930 . S
H436 C456 0.931 . S
O437 Co413 2.097 . S
O437 C465 1.214 . S
H438 C466 0.929 . S
H439 C467 0.929 . S
H440 C468 0.930 . S
H441 C469 0.929 . S
H442 C471 0.930 . S
H443 C448 0.930 . S
H444 C452 0.930 . S
O445 Co414 2.037 . S
O445 C465 1.234 . S
C446 O420 1.269 . S
C446 O421 1.257 . S
C447 H422 0.930 . S
C447 C450 1.388 . S
C447 C452 1.418 . S
C448 H443 0.930 . S
C448 C451 1.404 . S
C448 C452 1.353 . S
N449 Co414 2.145 . S
N449 C450 1.397 . S
N449 C451 1.334 . S
C450 H431 0.929 . S
C450 C447 1.388 . S
C450 N449 1.397 . S
C451 H432 0.929 . S
C451 C448 1.404 . S
C451 N449 1.334 . S
C452 H444 0.930 . S
C452 C447 1.418 . S
C452 C448 1.353 . S
C453 H423 0.930 . S
C453 N454 1.330 . S
C453 C455 1.446 . S
N454 Co413 2.151 . S
N454 C453 1.330 . S
N454 C458 1.418 . S
C455 H434 0.929 . S
C455 C453 1.446 . S
C455 C456 1.332 . S
C456 H436 0.931 . S
C456 C455 1.332 . S
C456 C457 1.267 . S
C457 H425 0.929 . S
C457 C456 1.267 . S
C457 C458 1.251 . S
C458 H428 0.929 . S
C458 N454 1.418 . S
C458 C457 1.251 . S
C459 H426 0.930 . S
C459 C461 1.406 . S
C459 C464 1.261 . S
C460 H427 0.930 . S
C460 N462 1.325 . S
C460 C463 1.357 . S
C461 H429 0.928 . S
C461 C459 1.406 . S
C461 N462 1.261 . S
N462 Co413 2.214 . S
N462 C460 1.325 . S
N462 C461 1.261 . S
C463 H433 0.931 . S
C463 C460 1.357 . S
C463 C464 1.312 . S
C464 H435 0.930 . S
C464 C459 1.261 . S
C464 C463 1.312 . S
C465 O437 1.214 . S
C465 O445 1.234 . S
C466 H438 0.929 . S
C466 C469 1.391 . S
C466 C471 1.391 . S
C467 H439 0.929 . S
C467 C468 1.390 . S
C467 N470 1.391 . S
C468 H440 0.930 . S
C468 C467 1.390 . S
C468 C469 1.392 . S
C469 H441 0.929 . S
C469 C466 1.391 . S
C469 C468 1.392 . S
N470 Co414 2.257 . S
N470 C467 1.391 . S
N470 C471 1.388 . S
C471 H442 0.930 . S
C471 C466 1.391 . S
C471 N470 1.388 . S
Co472 O474 2.132 1_455 S
Co472 O480 2.074 . S
Co472 O483 2.093 1_456 S
Co472 O496 2.097 1_455 S
Co472 N513 2.151 1_556 S
Co472 N521 2.214 . S
Co473 O474 2.166 . S
Co473 O479 2.058 1_655 S
Co473 O489 2.057 1_655 S
Co473 O504 2.037 . S
Co473 N508 2.145 . S
Co473 N529 2.257 . S
O474 Co472 2.132 1_655 S
O474 Co473 2.166 . S
C475 O476 1.278 . S
C475 O483 1.224 . S
O476 C475 1.278 . S
C477 O478 1.245 1_556 S
C477 O489 1.232 . S
O478 C477 1.245 1_554 S
O479 Co473 2.058 1_455 S
O479 C505 1.269 . S
O480 Co472 2.074 . S
O480 C505 1.257 . S
H481 C506 0.930 . S
H482 C512 0.930 . S
O483 Co472 2.093 1_654 S
O483 C475 1.224 . S
H484 C516 0.929 . S
H485 C518 0.930 1_554 S
H486 C519 0.930 . S
H487 C517 0.929 1_556 S
H488 C520 0.928 . S
O489 Co473 2.057 1_455 S
O489 C477 1.232 . S
H490 C509 0.929 . S
H491 C510 0.929 . S
H492 C522 0.931 . S
H493 C514 0.929 . S
H494 C523 0.930 . S
H495 C515 0.931 . S
O496 Co472 2.097 1_655 S
O496 C524 1.214 . S
H497 C525 0.929 1_554 S
H498 C526 0.929 . S
H499 C527 0.930 . S
H500 C528 0.929 . S
H501 C530 0.930 1_554 S
H502 C507 0.930 . S
H503 C511 0.930 . S
O504 Co473 2.037 . S
O504 C524 1.234 . S
C505 O479 1.269 . S
C505 O480 1.257 . S
C506 H481 0.930 . S
C506 C509 1.388 . S
C506 C511 1.418 . S
C507 H502 0.930 . S
C507 C510 1.404 . S
C507 C511 1.353 . S
N508 Co473 2.145 . S
N508 C509 1.397 . S
N508 C510 1.334 . S
C509 H490 0.929 . S
C509 C506 1.388 . S
C509 N508 1.397 . S
C510 H491 0.929 . S
C510 C507 1.404 . S
C510 N508 1.334 . S
C511 H503 0.930 . S
C511 C506 1.418 . S
C511 C507 1.353 . S
C512 H482 0.930 . S
C512 N513 1.330 . S
C512 C514 1.446 . S
N513 Co472 2.151 1_554 S
N513 C512 1.330 . S
N513 C517 1.418 . S
C514 H493 0.929 . S
C514 C512 1.446 . S
C514 C515 1.332 . S
C515 H495 0.931 . S
C515 C514 1.332 . S
C515 C516 1.267 . S
C516 H484 0.929 . S
C516 C515 1.267 . S
C516 C517 1.251 . S
C517 H487 0.929 1_554 S
C517 N513 1.418 . S
C517 C516 1.251 . S
C518 H485 0.930 1_556 S
C518 C520 1.406 1_556 S
C518 C523 1.261 . S
C519 H486 0.930 . S
C519 N521 1.325 . S
C519 C522 1.357 . S
C520 H488 0.928 . S
C520 C518 1.406 1_554 S
C520 N521 1.261 1_554 S
N521 Co472 2.214 . S
N521 C519 1.325 . S
N521 C520 1.261 1_556 S
C522 H492 0.931 . S
C522 C519 1.357 . S
C522 C523 1.312 . S
C523 H494 0.930 . S
C523 C518 1.261 . S
C523 C522 1.312 . S
C524 O496 1.214 . S
C524 O504 1.234 . S
C525 H497 0.929 1_556 S
C525 C528 1.391 . S
C525 C530 1.391 . S
C526 H498 0.929 . S
C526 C527 1.390 . S
C526 N529 1.391 . S
C527 H499 0.930 . S
C527 C526 1.390 . S
C527 C528 1.392 . S
C528 H500 0.929 . S
C528 C525 1.391 . S
C528 C527 1.392 . S
N529 Co473 2.257 . S
N529 C526 1.391 . S
N529 C530 1.388 . S
C530 H501 0.930 1_556 S
C530 C525 1.391 . S
C530 N529 1.388 . S
Co531 O533 2.134 1_545 S
Co531 O539 2.074 . S
Co531 O542 2.093 1_545 S
Co531 O555 2.097 1_545 S
Co531 N572 2.151 . S
Co531 N580 2.214 . S
Co532 O533 2.165 . S
Co532 O538 2.058 1_565 S
Co532 O548 2.057 1_565 S
Co532 O563 2.037 . S
Co532 N567 2.145 . S
Co532 N588 2.257 . S
O533 Co531 2.134 1_565 S
O533 Co532 2.165 . S
C534 O535 1.278 . S
C534 O542 1.224 . S
O535 C534 1.278 . S
C536 O537 1.245 . S
C536 O548 1.232 . S
O537 C536 1.245 . S
O538 Co532 2.058 1_545 S
O538 C564 1.269 . S
O539 Co531 2.074 . S
O539 C564 1.257 . S
H540 C565 0.930 . S
H541 C571 0.930 . S
O542 Co531 2.093 1_565 S
O542 C534 1.224 . S
H543 C575 0.929 . S
H544 C577 0.930 . S
H545 C578 0.930 . S
H546 C576 0.929 . S
H547 C579 0.928 . S
O548 Co532 2.057 1_545 S
O548 C536 1.232 . S
H549 C568 0.929 . S
H550 C569 0.929 . S
H551 C581 0.931 . S
H552 C573 0.929 . S
H553 C582 0.930 . S
H554 C574 0.931 . S
O555 Co531 2.097 1_565 S
O555 C583 1.214 . S
H556 C584 0.929 . S
H557 C585 0.929 . S
H558 C586 0.930 . S
H559 C587 0.929 . S
H560 C589 0.930 . S
H561 C566 0.930 . S
H562 C570 0.930 . S
O563 Co532 2.037 . S
O563 C583 1.234 . S
C564 O538 1.269 . S
C564 O539 1.257 . S
C565 H540 0.930 . S
C565 C568 1.388 . S
C565 C570 1.418 . S
C566 H561 0.930 . S
C566 C569 1.404 . S
C566 C570 1.353 . S
N567 Co532 2.145 . S
N567 C568 1.397 . S
N567 C569 1.334 . S
C568 H549 0.929 . S
C568 C565 1.388 . S
C568 N567 1.397 . S
C569 H550 0.929 . S
C569 C566 1.404 . S
C569 N567 1.334 . S
C570 H562 0.930 . S
C570 C565 1.418 . S
C570 C566 1.353 . S
C571 H541 0.930 . S
C571 N572 1.330 . S
C571 C573 1.446 . S
N572 Co531 2.151 . S
N572 C571 1.330 . S
N572 C576 1.418 . S
C573 H552 0.929 . S
C573 C571 1.446 . S
C573 C574 1.332 . S
C574 H554 0.931 . S
C574 C573 1.332 . S
C574 C575 1.267 . S
C575 H543 0.929 . S
C575 C574 1.267 . S
C575 C576 1.251 . S
C576 H546 0.929 . S
C576 N572 1.418 . S
C576 C575 1.251 . S
C577 H544 0.930 . S
C577 C579 1.406 . S
C577 C582 1.261 . S
C578 H545 0.930 . S
C578 N580 1.325 . S
C578 C581 1.357 . S
C579 H547 0.928 . S
C579 C577 1.406 . S
C579 N580 1.261 . S
N580 Co531 2.214 . S
N580 C578 1.325 . S
N580 C579 1.261 . S
C581 H551 0.931 . S
C581 C578 1.357 . S
C581 C582 1.312 . S
C582 H553 0.930 . S
C582 C577 1.261 . S
C582 C581 1.312 . S
C583 O555 1.214 . S
C583 O563 1.234 . S
C584 H556 0.929 . S
C584 C587 1.391 . S
C584 C589 1.391 . S
C585 H557 0.929 . S
C585 C586 1.390 . S
C585 N588 1.391 . S
C586 H558 0.930 . S
C586 C585 1.390 . S
C586 C587 1.392 . S
C587 H559 0.929 . S
C587 C584 1.391 . S
C587 C586 1.392 . S
N588 Co532 2.257 . S
N588 C585 1.391 . S
N588 C589 1.388 . S
C589 H560 0.930 . S
C589 C584 1.391 . S
C589 N588 1.388 . S
Co590 O592 2.143 . S
Co590 O598 2.074 . S
Co590 O601 2.093 1_556 S
Co590 O614 2.097 . S
Co590 N631 2.151 1_556 S
Co590 N639 2.214 . S
Co591 O592 2.160 . S
Co591 O597 2.058 . S
Co591 O607 2.057 . S
Co591 O622 2.037 . S
Co591 N626 2.145 . S
Co591 N647 2.257 . S
O592 Co590 2.143 . S
O592 Co591 2.160 . S
C593 O594 1.278 . S
C593 O601 1.224 . S
O594 C593 1.278 . S
C595 O596 1.245 1_556 S
C595 O607 1.232 . S
O596 C595 1.245 1_554 S
O597 Co591 2.058 . S
O597 C623 1.269 . S
O598 Co590 2.074 . S
O598 C623 1.257 . S
H599 C624 0.930 . S
H600 C630 0.930 . S
O601 Co590 2.093 1_554 S
O601 C593 1.224 . S
H602 C634 0.929 . S
H603 C636 0.930 1_554 S
H604 C637 0.930 . S
H605 C635 0.929 1_556 S
H606 C638 0.917 1_554 S
O607 Co591 2.057 . S
O607 C595 1.232 . S
H608 C627 0.929 . S
H609 C628 0.929 . S
H610 C640 0.931 . S
H611 C632 0.929 . S
H612 C641 0.930 . S
H613 C633 0.931 . S
O614 Co590 2.097 . S
O614 C642 1.214 . S
H615 C643 0.929 1_554 S
H616 C644 0.929 . S
H617 C645 0.930 . S
H618 C646 0.929 . S
H619 C648 0.930 . S
H620 C625 0.930 . S
H621 C629 0.930 . S
O622 Co591 2.037 . S
O622 C642 1.234 . S
C623 O597 1.269 . S
C623 O598 1.257 . S
C624 H599 0.930 . S
C624 C627 1.388 . S
C624 C629 1.418 . S
C625 H620 0.930 . S
C625 C628 1.404 . S
C625 C629 1.353 . S
N626 Co591 2.145 . S
N626 C627 1.397 . S
N626 C628 1.334 . S
C627 H608 0.929 . S
C627 C624 1.388 . S
C627 N626 1.397 . S
C628 H609 0.929 . S
C628 C625 1.404 . S
C628 N626 1.334 . S
C629 H621 0.930 . S
C629 C624 1.418 . S
C629 C625 1.353 . S
C630 H600 0.930 . S
C630 N631 1.330 . S
C630 C632 1.446 . S
N631 Co590 2.151 1_554 S
N631 C630 1.330 . S
N631 C635 1.418 . S
C632 H611 0.929 . S
C632 C630 1.446 . S
C632 C633 1.332 . S
C633 H613 0.931 . S
C633 C632 1.332 . S
C633 C634 1.267 . S
C634 H602 0.929 . S
C634 C633 1.267 . S
C634 C635 1.251 . S
C635 H605 0.929 1_554 S
C635 N631 1.418 . S
C635 C634 1.251 . S
C636 H603 0.930 1_556 S
C636 C638 1.408 . S
C636 C641 1.261 . S
C637 H604 0.930 . S
C637 N639 1.325 . S
C637 C640 1.357 . S
C638 H606 0.917 1_556 S
C638 C636 1.408 . S
C638 N639 1.270 . S
N639 Co590 2.214 . S
N639 C637 1.325 . S
N639 C638 1.270 . S
C640 H610 0.931 . S
C640 C637 1.357 . S
C640 C641 1.312 . S
C641 H612 0.930 . S
C641 C636 1.261 . S
C641 C640 1.312 . S
C642 O614 1.214 . S
C642 O622 1.234 . S
C643 H615 0.929 1_556 S
C643 C646 1.391 . S
C643 C648 1.391 . S
C644 H616 0.929 . S
C644 C645 1.390 . S
C644 N647 1.391 . S
C645 H617 0.930 . S
C645 C644 1.390 . S
C645 C646 1.392 . S
C646 H618 0.929 . S
C646 C643 1.391 . S
C646 C645 1.392 . S
N647 Co591 2.257 . S
N647 C644 1.391 . S
N647 C648 1.388 . S
C648 H619 0.930 . S
C648 C643 1.391 . S
C648 N647 1.388 . S
Co649 O651 2.143 . S
Co649 O657 2.074 . S
Co649 O660 2.093 . S
Co649 O673 2.097 . S
Co649 N690 2.151 . S
Co649 N698 2.214 . S
Co650 O651 2.160 . S
Co650 O656 2.058 . S
Co650 O666 2.057 . S
Co650 O681 2.037 . S
Co650 N685 2.145 . S
Co650 N706 2.257 . S
O651 Co649 2.143 . S
O651 Co650 2.160 . S
C652 O653 1.278 . S
C652 O660 1.224 . S
O653 C652 1.278 . S
C654 O655 1.245 . S
C654 O666 1.232 . S
O655 C654 1.245 . S
O656 Co650 2.058 . S
O656 C682 1.269 . S
O657 Co649 2.074 . S
O657 C682 1.257 . S
H658 C683 0.930 . S
H659 C689 0.930 . S
O660 Co649 2.093 . S
O660 C652 1.224 . S
H661 C693 0.929 . S
H662 C695 0.930 . S
H663 C696 0.930 . S
H664 C694 0.929 . S
H665 C697 0.928 . S
O666 Co650 2.057 . S
O666 C654 1.232 . S
H667 C686 0.929 . S
H668 C687 0.929 . S
H669 C699 0.931 . S
H670 C691 0.929 . S
H671 C700 0.930 . S
H672 C692 0.931 . S
O673 Co649 2.097 . S
O673 C701 1.214 . S
H674 C702 0.929 . S
H675 C703 0.929 . S
H676 C704 0.930 . S
H677 C705 0.929 . S
H678 C707 0.930 . S
H679 C684 0.930 . S
H680 C688 0.930 . S
O681 Co650 2.037 . S
O681 C701 1.234 . S
C682 O656 1.269 . S
C682 O657 1.257 . S
C683 H658 0.930 . S
C683 C686 1.388 . S
C683 C688 1.418 . S
C684 H679 0.930 . S
C684 C687 1.404 . S
C684 C688 1.353 . S
N685 Co650 2.145 . S
N685 C686 1.397 . S
N685 C687 1.334 . S
C686 H667 0.929 . S
C686 C683 1.388 . S
C686 N685 1.397 . S
C687 H668 0.929 . S
C687 C684 1.404 . S
C687 N685 1.334 . S
C688 H680 0.930 . S
C688 C683 1.418 . S
C688 C684 1.353 . S
C689 H659 0.930 . S
C689 N690 1.330 . S
C689 C691 1.446 . S
N690 Co649 2.151 . S
N690 C689 1.330 . S
N690 C694 1.418 . S
C691 H670 0.929 . S
C691 C689 1.446 . S
C691 C692 1.332 . S
C692 H672 0.931 . S
C692 C691 1.332 . S
C692 C693 1.267 . S
C693 H661 0.929 . S
C693 C692 1.267 . S
C693 C694 1.251 . S
C694 H664 0.929 . S
C694 N690 1.418 . S
C694 C693 1.251 . S
C695 H662 0.930 . S
C695 C697 1.406 . S
C695 C700 1.261 . S
C696 H663 0.930 . S
C696 N698 1.325 . S
C696 C699 1.357 . S
C697 H665 0.928 . S
C697 C695 1.406 . S
C697 N698 1.261 . S
N698 Co649 2.214 . S
N698 C696 1.325 . S
N698 C697 1.261 . S
C699 H669 0.931 . S
C699 C696 1.357 . S
C699 C700 1.312 . S
C700 H671 0.930 . S
C700 C695 1.261 . S
C700 C699 1.312 . S
C701 O673 1.214 . S
C701 O681 1.234 . S
C702 H674 0.929 . S
C702 C705 1.391 . S
C702 C707 1.391 . S
C703 H675 0.929 . S
C703 C704 1.390 . S
C703 N706 1.391 . S
C704 H676 0.930 . S
C704 C703 1.390 . S
C704 C705 1.392 . S
C705 H677 0.929 . S
C705 C702 1.391 . S
C705 C704 1.392 . S
N706 Co650 2.257 . S
N706 C703 1.391 . S
N706 C707 1.388 . S
C707 H678 0.930 . S
C707 C702 1.391 . S
C707 N706 1.388 . S
Co708 O710 2.134 1_455 S
Co708 O716 2.074 . S
Co708 O719 2.093 1_454 S
Co708 O732 2.097 1_455 S
Co708 N749 2.151 1_554 S
Co708 N757 2.214 . S
Co709 O710 2.165 . S
Co709 O715 2.058 1_655 S
Co709 O725 2.057 1_655 S
Co709 O740 2.037 . S
Co709 N744 2.145 . S
Co709 N765 2.257 . S
O710 Co708 2.134 1_655 S
O710 Co709 2.165 . S
C711 O712 1.278 . S
C711 O719 1.224 . S
O712 C711 1.278 . S
C713 O714 1.257 . S
C713 O725 1.232 . S
O714 C713 1.257 . S
O715 Co709 2.058 1_455 S
O715 C741 1.269 . S
O716 Co708 2.074 . S
O716 C741 1.257 . S
H717 C742 0.930 . S
H718 C748 0.930 . S
O719 Co708 2.093 1_656 S
O719 C711 1.224 . S
H720 C752 0.929 . S
H721 C754 0.930 1_556 S
H722 C755 0.930 . S
H723 C753 0.929 1_554 S
H724 C756 0.928 1_556 S
O725 Co709 2.057 1_455 S
O725 C713 1.232 . S
H726 C745 0.929 . S
H727 C746 0.929 . S
H728 C758 0.931 . S
H729 C750 0.929 . S
H730 C759 0.930 . S
H731 C751 0.931 . S
O732 Co708 2.097 1_655 S
O732 C760 1.214 . S
H733 C761 0.929 1_556 S
H734 C762 0.929 . S
H735 C763 0.930 . S
H736 C764 0.929 . S
H737 C766 0.930 . S
H738 C743 0.930 . S
H739 C747 0.930 . S
O740 Co709 2.037 . S
O740 C760 1.234 . S
C741 O715 1.269 . S
C741 O716 1.257 . S
C742 H717 0.930 . S
C742 C745 1.388 . S
C742 C747 1.418 . S
C743 H738 0.930 . S
C743 C746 1.404 . S
C743 C747 1.353 . S
N744 Co709 2.145 . S
N744 C745 1.397 . S
N744 C746 1.334 . S
C745 H726 0.929 . S
C745 C742 1.388 . S
C745 N744 1.397 . S
C746 H727 0.929 . S
C746 C743 1.404 . S
C746 N744 1.334 . S
C747 H739 0.930 . S
C747 C742 1.418 . S
C747 C743 1.353 . S
C748 H718 0.930 . S
C748 N749 1.330 . S
C748 C750 1.446 . S
N749 Co708 2.151 1_556 S
N749 C748 1.330 . S
N749 C753 1.418 . S
C750 H729 0.929 . S
C750 C748 1.446 . S
C750 C751 1.332 . S
C751 H731 0.931 . S
C751 C750 1.332 . S
C751 C752 1.267 . S
C752 H720 0.929 . S
C752 C751 1.267 . S
C752 C753 1.251 . S
C753 H723 0.929 1_556 S
C753 N749 1.418 . S
C753 C752 1.251 . S
C754 H721 0.930 1_554 S
C754 C756 1.406 . S
C754 C759 1.261 . S
C755 H722 0.930 . S
C755 N757 1.325 . S
C755 C758 1.357 . S
C756 H724 0.928 1_554 S
C756 C754 1.406 . S
C756 N757 1.261 . S
N757 Co708 2.214 . S
N757 C755 1.325 . S
N757 C756 1.261 . S
C758 H728 0.931 . S
C758 C755 1.357 . S
C758 C759 1.312 . S
C759 H730 0.930 . S
C759 C754 1.261 . S
C759 C758 1.312 . S
C760 O732 1.214 . S
C760 O740 1.234 . S
C761 H733 0.929 1_554 S
C761 C764 1.391 . S
C761 C766 1.391 . S
C762 H734 0.929 . S
C762 C763 1.390 . S
C762 N765 1.391 . S
C763 H735 0.930 . S
C763 C762 1.390 . S
C763 C764 1.392 . S
C764 H736 0.929 . S
C764 C761 1.391 . S
C764 C763 1.392 . S
N765 Co709 2.257 . S
N765 C762 1.391 . S
N765 C766 1.388 . S
C766 H737 0.930 . S
C766 C761 1.391 . S
C766 N765 1.388 . S
Co767 O769 2.132 1_545 S
Co767 O775 2.074 . S
Co767 O778 2.093 1_545 S
Co767 O791 2.097 1_545 S
Co767 N808 2.151 . S
Co767 N816 2.214 . S
Co768 O769 2.166 . S
Co768 O774 2.058 1_565 S
Co768 O784 2.057 1_565 S
Co768 O799 2.037 . S
Co768 N803 2.145 . S
Co768 N824 2.257 . S
O769 Co767 2.132 1_565 S
O769 Co768 2.166 . S
C770 O771 1.278 . S
C770 O778 1.224 . S
O771 C770 1.278 . S
C772 O773 1.245 . S
C772 O784 1.232 . S
O773 C772 1.245 . S
O774 Co768 2.058 1_545 S
O774 C800 1.269 . S
O775 Co767 2.074 . S
O775 C800 1.257 . S
H776 C801 0.930 . S
H777 C807 0.930 . S
O778 Co767 2.093 1_565 S
O778 C770 1.224 . S
H779 C811 0.929 . S
H780 C813 0.930 . S
H781 C814 0.930 . S
H782 C812 0.929 . S
H783 C815 0.928 . S
O784 Co768 2.057 1_545 S
O784 C772 1.232 . S
H785 C804 0.929 . S
H786 C805 0.929 . S
H787 C817 0.931 . S
H788 C809 0.929 . S
H789 C818 0.930 . S
H790 C810 0.931 . S
O791 Co767 2.097 1_565 S
O791 C819 1.214 . S
H792 C820 0.929 . S
H793 C821 0.929 . S
H794 C822 0.930 . S
H795 C823 0.929 . S
H796 C825 0.930 . S
H797 C802 0.930 . S
H798 C806 0.930 . S
O799 Co768 2.037 . S
O799 C819 1.234 . S
C800 O774 1.269 . S
C800 O775 1.257 . S
C801 H776 0.930 . S
C801 C804 1.388 . S
C801 C806 1.418 . S
C802 H797 0.930 . S
C802 C805 1.404 . S
C802 C806 1.353 . S
N803 Co768 2.145 . S
N803 C804 1.397 . S
N803 C805 1.334 . S
C804 H785 0.929 . S
C804 C801 1.388 . S
C804 N803 1.397 . S
C805 H786 0.929 . S
C805 C802 1.404 . S
C805 N803 1.334 . S
C806 H798 0.930 . S
C806 C801 1.418 . S
C806 C802 1.353 . S
C807 H777 0.930 . S
C807 N808 1.330 . S
C807 C809 1.446 . S
N808 Co767 2.151 . S
N808 C807 1.330 . S
N808 C812 1.418 . S
C809 H788 0.929 . S
C809 C807 1.446 . S
C809 C810 1.332 . S
C810 H790 0.931 . S
C810 C809 1.332 . S
C810 C811 1.267 . S
C811 H779 0.929 . S
C811 C810 1.267 . S
C811 C812 1.251 . S
C812 H782 0.929 . S
C812 N808 1.418 . S
C812 C811 1.251 . S
C813 H780 0.930 . S
C813 C815 1.406 . S
C813 C818 1.261 . S
C814 H781 0.930 . S
C814 N816 1.325 . S
C814 C817 1.357 . S
C815 H783 0.928 . S
C815 C813 1.406 . S
C815 N816 1.261 . S
N816 Co767 2.214 . S
N816 C814 1.325 . S
N816 C815 1.261 . S
C817 H787 0.931 . S
C817 C814 1.357 . S
C817 C818 1.312 . S
C818 H789 0.930 . S
C818 C813 1.261 . S
C818 C817 1.312 . S
C819 O791 1.214 . S
C819 O799 1.234 . S
C820 H792 0.929 . S
C820 C823 1.391 . S
C820 C825 1.391 . S
C821 H793 0.929 . S
C821 C822 1.390 . S
C821 N824 1.391 . S
C822 H794 0.930 . S
C822 C821 1.390 . S
C822 C823 1.392 . S
C823 H795 0.929 . S
C823 C820 1.391 . S
C823 C822 1.392 . S
N824 Co768 2.257 . S
N824 C821 1.391 . S
N824 C825 1.388 . S
C825 H796 0.930 . S
C825 C820 1.391 . S
C825 N824 1.388 . S
Co826 O828 2.143 . S
Co826 O834 2.074 . S
Co826 O837 2.093 1_554 S
Co826 O850 2.097 . S
Co826 N867 2.151 1_554 S
Co826 N875 2.214 . S
Co827 O828 2.158 . S
Co827 O833 2.058 . S
Co827 O843 2.057 . S
Co827 O858 2.037 . S
Co827 N862 2.145 . S
Co827 N883 2.257 . S
O828 Co826 2.143 . S
O828 Co827 2.158 . S
C829 O830 1.278 . S
C829 O837 1.224 . S
O830 C829 1.278 . S
C831 O832 1.245 . S
C831 O843 1.232 1_556 S
O832 C831 1.245 . S
O833 Co827 2.058 . S
O833 C859 1.269 . S
O834 Co826 2.074 . S
O834 C859 1.257 . S
H835 C860 0.930 . S
H836 C866 0.930 . S
O837 Co826 2.093 1_556 S
O837 C829 1.224 . S
H838 C870 0.929 . S
H839 C872 0.930 . S
H840 C873 0.930 . S
H841 C871 0.929 . S
H842 C874 0.928 . S
O843 Co827 2.057 . S
O843 C831 1.232 1_554 S
H844 C863 0.929 . S
H845 C864 0.929 . S
H846 C876 0.931 . S
H847 C868 0.929 . S
H848 C877 0.930 . S
H849 C869 0.931 . S
O850 Co826 2.097 . S
O850 C878 1.214 . S
H851 C879 0.929 . S
H852 C880 0.929 . S
H853 C881 0.930 . S
H854 C882 0.929 . S
H855 C884 0.940 . S
H856 C861 0.930 . S
H857 C865 0.930 . S
O858 Co827 2.037 . S
O858 C878 1.234 . S
C859 O833 1.269 . S
C859 O834 1.257 . S
C860 H835 0.930 . S
C860 C863 1.388 . S
C860 C865 1.418 . S
C861 H856 0.930 . S
C861 C864 1.404 . S
C861 C865 1.353 . S
N862 Co827 2.145 . S
N862 C863 1.397 . S
N862 C864 1.334 . S
C863 H844 0.929 . S
C863 C860 1.388 . S
C863 N862 1.397 . S
C864 H845 0.929 . S
C864 C861 1.404 . S
C864 N862 1.334 . S
C865 H857 0.930 . S
C865 C860 1.418 . S
C865 C861 1.353 . S
C866 H836 0.930 . S
C866 N867 1.330 . S
C866 C868 1.446 . S
N867 Co826 2.151 1_556 S
N867 C866 1.330 . S
N867 C871 1.418 . S
C868 H847 0.929 . S
C868 C866 1.446 . S
C868 C869 1.332 . S
C869 H849 0.931 . S
C869 C868 1.332 . S
C869 C870 1.267 . S
C870 H838 0.929 . S
C870 C869 1.267 . S
C870 C871 1.251 . S
C871 H841 0.929 . S
C871 N867 1.418 . S
C871 C870 1.251 . S
C872 H839 0.930 . S
C872 C874 1.406 . S
C872 C877 1.261 1_556 S
C873 H840 0.930 . S
C873 N875 1.325 . S
C873 C876 1.357 . S
C874 H842 0.928 . S
C874 C872 1.406 . S
C874 N875 1.261 1_556 S
N875 Co826 2.214 . S
N875 C873 1.325 . S
N875 C874 1.261 1_554 S
C876 H846 0.931 . S
C876 C873 1.357 . S
C876 C877 1.312 . S
C877 H848 0.930 . S
C877 C872 1.261 1_554 S
C877 C876 1.312 . S
C878 O850 1.214 . S
C878 O858 1.234 . S
C879 H851 0.929 . S
C879 C882 1.391 1_556 S
C879 C884 1.396 . S
C880 H852 0.929 . S
C880 C881 1.390 . S
C880 N883 1.391 . S
C881 H853 0.930 . S
C881 C880 1.390 . S
C881 C882 1.392 . S
C882 H854 0.929 . S
C882 C879 1.391 1_554 S
C882 C881 1.392 . S
N883 Co827 2.257 . S
N883 C880 1.391 . S
N883 C884 1.373 1_554 S
C884 H855 0.940 . S
C884 C879 1.396 . S
C884 N883 1.373 1_556 S
Co885 O887 2.143 . S
Co885 O893 2.074 . S
Co885 O896 2.093 . S
Co885 O909 2.097 . S
Co885 N926 2.151 . S
Co885 N934 2.214 . S
Co886 O887 2.160 . S
Co886 O892 2.058 . S
Co886 O902 2.057 . S
Co886 O917 2.037 . S
Co886 N921 2.145 . S
Co886 N942 2.257 . S
O887 Co885 2.143 . S
O887 Co886 2.160 . S
C888 O889 1.278 . S
C888 O896 1.224 . S
O889 C888 1.278 . S
C890 O891 1.245 . S
C890 O902 1.232 . S
O891 C890 1.245 . S
O892 Co886 2.058 . S
O892 C918 1.269 . S
O893 Co885 2.074 . S
O893 C918 1.257 . S
H894 C919 0.930 . S
H895 C925 0.930 . S
O896 Co885 2.093 . S
O896 C888 1.224 . S
H897 C929 0.929 . S
H898 C931 0.930 . S
H899 C932 0.930 . S
H900 C930 0.929 . S
H901 C933 0.928 . S
O902 Co886 2.057 . S
O902 C890 1.232 . S
H903 C922 0.929 . S
H904 C923 0.929 . S
H905 C935 0.931 . S
H906 C927 0.929 . S
H907 C936 0.930 . S
H908 C928 0.931 . S
O909 Co885 2.097 . S
O909 C937 1.214 . S
H910 C938 0.929 . S
H911 C939 0.929 . S
H912 C940 0.930 . S
H913 C941 0.929 . S
H914 C943 0.930 . S
H915 C920 0.930 . S
H916 C924 0.930 . S
O917 Co886 2.037 . S
O917 C937 1.234 . S
C918 O892 1.269 . S
C918 O893 1.257 . S
C919 H894 0.930 . S
C919 C922 1.388 . S
C919 C924 1.418 . S
C920 H915 0.930 . S
C920 C923 1.404 . S
C920 C924 1.353 . S
N921 Co886 2.145 . S
N921 C922 1.397 . S
N921 C923 1.334 . S
C922 H903 0.929 . S
C922 C919 1.388 . S
C922 N921 1.397 . S
C923 H904 0.929 . S
C923 C920 1.404 . S
C923 N921 1.334 . S
C924 H916 0.930 . S
C924 C919 1.418 . S
C924 C920 1.353 . S
C925 H895 0.930 . S
C925 N926 1.330 . S
C925 C927 1.446 . S
N926 Co885 2.151 . S
N926 C925 1.330 . S
N926 C930 1.418 . S
C927 H906 0.929 . S
C927 C925 1.446 . S
C927 C928 1.332 . S
C928 H908 0.931 . S
C928 C927 1.332 . S
C928 C929 1.267 . S
C929 H897 0.929 . S
C929 C928 1.267 . S
C929 C930 1.251 . S
C930 H900 0.929 . S
C930 N926 1.418 . S
C930 C929 1.251 . S
C931 H898 0.930 . S
C931 C933 1.406 . S
C931 C936 1.261 . S
C932 H899 0.930 . S
C932 N934 1.325 . S
C932 C935 1.357 . S
C933 H901 0.928 . S
C933 C931 1.406 . S
C933 N934 1.261 . S
N934 Co885 2.214 . S
N934 C932 1.325 . S
N934 C933 1.261 . S
C935 H905 0.931 . S
C935 C932 1.357 . S
C935 C936 1.312 . S
C936 H907 0.930 . S
C936 C931 1.261 . S
C936 C935 1.312 . S
C937 O909 1.214 . S
C937 O917 1.234 . S
C938 H910 0.929 . S
C938 C941 1.391 . S
C938 C943 1.391 . S
C939 H911 0.929 . S
C939 C940 1.390 . S
C939 N942 1.391 . S
C940 H912 0.930 . S
C940 C939 1.390 . S
C940 C941 1.392 . S
C941 H913 0.929 . S
C941 C938 1.391 . S
C941 C940 1.392 . S
N942 Co886 2.257 . S
N942 C939 1.391 . S
N942 C943 1.388 . S
C943 H914 0.930 . S
C943 C938 1.391 . S
C943 N942 1.388 . S
H944 C952 0.929 . S
H945 C954 0.930 . S
H946 C956 0.930 . S
H947 C959 0.929 . S
H948 C962 0.930 . S
H949 C964 0.960 . S
H950 C964 0.960 . S
H951 C964 0.952 1_455 S
C952 H944 0.929 . S
C952 C953 1.377 . S
C952 C954 1.384 . S
C953 C952 1.377 . S
C953 C959 1.390 1_654 S
C954 H945 0.930 . S
C954 C952 1.384 . S
C954 C955 1.372 1_554 S
C955 C954 1.372 1_556 S
C955 C956 1.400 1_655 S
C955 C960 1.490 . S
C956 H946 0.930 . S
C956 C955 1.400 1_455 S
C956 C959 1.386 . S
H957 C973 0.930 . S
H958 C974 0.931 . S
C959 H947 0.929 . S
C959 C953 1.390 1_456 S
C959 C956 1.386 . S
C960 C955 1.490 . S
C960 C962 1.395 1_556 S
C960 C963 1.403 . S
H961 C967 0.930 . S
C962 H948 0.930 . S
C962 C960 1.395 1_554 S
C962 C965 1.403 . S
C963 C960 1.403 . S
C963 C964 1.524 . S
C963 C967 1.400 . S
C964 H949 0.960 . S
C964 H950 0.960 . S
C964 H951 0.952 1_655 S
C964 C963 1.524 . S
C965 C962 1.403 . S
C965 C966 1.392 1_554 S
C965 C969 1.495 . S
C966 C965 1.392 1_556 S
C966 C967 1.385 . S
C966 C968 1.478 . S
C967 H961 0.930 . S
C967 C963 1.400 . S
C967 C966 1.385 . S
C968 C966 1.478 . S
C968 C970 1.381 1_556 S
C968 C974 1.383 1_655 S
C969 C965 1.495 . S
C969 H975 0.959 . S
C969 H976 0.961 . S
C969 H977 0.960 . S
C970 C968 1.381 1_554 S
C970 C971 1.394 1_554 S
C970 H978 0.930 . S
C971 C970 1.394 1_556 S
C971 C972 1.383 . S
C971 H979 0.929 1_556 S
C972 C971 1.383 . S
C972 C973 1.377 1_655 S
C973 H957 0.930 . S
C973 C972 1.377 1_455 S
C973 C974 1.379 . S
C974 H958 0.931 . S
C974 C968 1.383 1_455 S
C974 C973 1.379 . S
H975 C969 0.959 . S
H976 C969 0.961 . S
H977 C969 0.960 . S
H978 C970 0.930 . S
H979 C971 0.929 1_554 S
H980 C988 0.929 . S
H981 C990 0.930 . S
H982 C992 0.930 . S
H983 C995 0.929 . S
H984 C998 0.930 . S
H985 C1000 0.960 . S
H986 C1000 0.960 . S
H987 C1000 0.960 . S
C988 H980 0.929 . S
C988 C989 1.377 . S
C988 C990 1.384 . S
C989 C988 1.377 . S
C989 C995 1.390 . S
C990 H981 0.930 . S
C990 C988 1.384 . S
C990 C991 1.372 . S
C991 C990 1.372 . S
C991 C992 1.400 . S
C991 C996 1.490 . S
C992 H982 0.930 . S
C992 C991 1.400 . S
C992 C995 1.386 . S
H993 C1009 0.930 . S
H994 C1010 0.931 . S
C995 H983 0.929 . S
C995 C989 1.390 . S
C995 C992 1.386 . S
C996 C991 1.490 . S
C996 C998 1.395 . S
C996 C999 1.403 1_565 S
H997 C1003 0.897 1_545 S
C998 H984 0.930 . S
C998 C996 1.395 . S
C998 C1001 1.403 . S
C999 C996 1.403 1_545 S
C999 C1000 1.524 . S
C999 C1003 1.396 1_545 S
C1000 H985 0.960 . S
C1000 H986 0.960 . S
C1000 H987 0.960 . S
C1000 C999 1.524 . S
C1001 C998 1.403 . S
C1001 C1002 1.392 . S
C1001 C1005 1.495 . S
C1002 C1001 1.392 . S
C1002 C1003 1.423 . S
C1002 C1004 1.478 . S
C1003 H997 0.897 1_565 S
C1003 C999 1.396 1_565 S
C1003 C1002 1.423 . S
C1004 C1002 1.478 . S
C1004 C1006 1.381 . S
C1004 C1010 1.383 . S
C1005 C1001 1.495 . S
C1005 H1011 0.959 . S
C1005 H1012 0.961 . S
C1005 H1013 0.960 . S
C1006 C1004 1.381 . S
C1006 C1007 1.394 . S
C1006 H1014 0.930 . S
C1007 C1006 1.394 . S
C1007 C1008 1.383 . S
C1007 H1015 0.929 . S
C1008 C1007 1.383 . S
C1008 C1009 1.377 . S
C1009 H993 0.930 . S
C1009 C1008 1.377 . S
C1009 C1010 1.379 . S
C1010 H994 0.931 . S
C1010 C1004 1.383 . S
C1010 C1009 1.379 . S
H1011 C1005 0.959 . S
H1012 C1005 0.961 . S
H1013 C1005 0.960 . S
H1014 C1006 0.930 . S
H1015 C1007 0.929 . S
H1016 C1024 0.929 . S
H1017 C1026 0.930 . S
H1018 C1028 0.930 . S
H1019 C1031 0.929 . S
H1020 C1034 0.930 . S
H1021 C1036 0.960 . S
H1022 C1036 0.960 . S
H1023 C1036 0.960 . S
C1024 H1016 0.929 . S
C1024 C1025 1.377 . S
C1024 C1026 1.384 . S
C1025 C1024 1.377 . S
C1025 C1031 1.390 . S
C1026 H1017 0.930 . S
C1026 C1024 1.384 . S
C1026 C1027 1.372 . S
C1027 C1026 1.372 . S
C1027 C1028 1.400 . S
C1027 C1032 1.490 . S
C1028 H1018 0.930 . S
C1028 C1027 1.400 . S
C1028 C1031 1.386 . S
H1029 C1045 0.928 1_556 S
H1030 C1046 0.934 . S
C1031 H1019 0.929 . S
C1031 C1025 1.390 . S
C1031 C1028 1.386 . S
C1032 C1027 1.490 . S
C1032 C1034 1.395 1_554 S
C1032 C1035 1.403 . S
H1033 C1039 0.930 . S
C1034 H1020 0.930 . S
C1034 C1032 1.395 1_556 S
C1034 C1037 1.403 . S
C1035 C1032 1.403 . S
C1035 C1036 1.524 . S
C1035 C1039 1.400 . S
C1036 H1021 0.960 . S
C1036 H1022 0.960 . S
C1036 H1023 0.960 . S
C1036 C1035 1.524 . S
C1037 C1034 1.403 . S
C1037 C1038 1.392 1_556 S
C1037 C1041 1.495 . S
C1038 C1037 1.392 1_554 S
C1038 C1039 1.385 . S
C1038 C1040 1.478 . S
C1039 H1033 0.930 . S
C1039 C1035 1.400 . S
C1039 C1038 1.385 . S
C1040 C1038 1.478 . S
C1040 C1042 1.381 . S
C1040 C1046 1.381 1_554 S
C1041 C1037 1.495 . S
C1041 H1047 0.959 . S
C1041 H1048 0.961 . S
C1041 H1049 0.960 . S
C1042 C1040 1.381 . S
C1042 C1043 1.394 . S
C1042 H1050 0.930 . S
C1043 C1042 1.394 . S
C1043 C1044 1.383 . S
C1043 H1051 0.929 . S
C1044 C1043 1.383 . S
C1044 C1045 1.379 . S
C1045 H1029 0.928 1_554 S
C1045 C1044 1.379 . S
C1045 C1046 1.379 1_554 S
C1046 H1030 0.934 . S
C1046 C1040 1.381 1_556 S
C1046 C1045 1.379 1_556 S
H1047 C1041 0.959 . S
H1048 C1041 0.961 . S
H1049 C1041 0.960 . S
H1050 C1042 0.930 . S
H1051 C1043 0.929 . S
H1052 C1060 0.929 . S
H1053 C1062 0.930 . S
H1054 C1064 0.930 . S
H1055 C1067 0.929 . S
H1056 C1070 0.930 . S
H1057 C1072 0.960 . S
H1058 C1072 0.960 . S
H1059 C1072 0.960 . S
C1060 H1052 0.929 . S
C1060 C1061 1.377 . S
C1060 C1062 1.384 . S
C1061 C1060 1.377 . S
C1061 C1067 1.390 . S
C1062 H1053 0.930 . S
C1062 C1060 1.384 . S
C1062 C1063 1.372 . S
C1063 C1062 1.372 . S
C1063 C1064 1.400 . S
C1063 C1068 1.490 . S
C1064 H1054 0.930 . S
C1064 C1063 1.400 . S
C1064 C1067 1.386 . S
H1065 C1081 0.930 . S
H1066 C1082 0.931 . S
C1067 H1055 0.929 . S
C1067 C1061 1.390 . S
C1067 C1064 1.386 . S
C1068 C1063 1.490 . S
C1068 C1070 1.395 . S
C1068 C1071 1.403 . S
H1069 C1075 0.930 . S
C1070 H1056 0.930 . S
C1070 C1068 1.395 . S
C1070 C1073 1.403 . S
C1071 C1068 1.403 . S
C1071 C1072 1.524 . S
C1071 C1075 1.400 . S
C1072 H1057 0.960 . S
C1072 H1058 0.960 . S
C1072 H1059 0.960 . S
C1072 C1071 1.524 . S
C1073 C1070 1.403 . S
C1073 C1074 1.392 . S
C1073 C1077 1.495 . S
C1074 C1073 1.392 . S
C1074 C1075 1.385 . S
C1074 C1076 1.478 . S
C1075 H1069 0.930 . S
C1075 C1071 1.400 . S
C1075 C1074 1.385 . S
C1076 C1074 1.478 . S
C1076 C1078 1.381 . S
C1076 C1082 1.383 . S
C1077 C1073 1.495 . S
C1077 H1083 0.959 . S
C1077 H1084 0.961 . S
C1077 H1085 0.960 . S
C1078 C1076 1.381 . S
C1078 C1079 1.394 . S
C1078 H1086 0.930 . S
C1079 C1078 1.394 . S
C1079 C1080 1.383 . S
C1079 H1087 0.929 . S
C1080 C1079 1.383 . S
C1080 C1081 1.377 . S
C1081 H1065 0.930 . S
C1081 C1080 1.377 . S
C1081 C1082 1.379 . S
C1082 H1066 0.931 . S
C1082 C1076 1.383 . S
C1082 C1081 1.379 . S
H1083 C1077 0.959 . S
H1084 C1077 0.961 . S
H1085 C1077 0.960 . S
H1086 C1078 0.930 . S
H1087 C1079 0.929 . S
H1088 C1096 0.929 . S
H1089 C1098 0.930 . S
H1090 C1100 0.930 . S
H1091 C1103 0.929 . S
H1092 C1106 0.930 . S
H1093 C1108 0.960 . S
H1094 C1108 0.960 . S
H1095 C1108 0.960 . S
C1096 H1088 0.929 . S
C1096 C1097 1.377 . S
C1096 C1098 1.384 . S
C1097 C1096 1.377 . S
C1097 C1103 1.390 1_556 S
C1098 H1089 0.930 . S
C1098 C1096 1.384 . S
C1098 C1099 1.359 1_556 S
C1099 C1098 1.359 1_554 S
C1099 C1100 1.412 . S
C1099 C1104 1.490 . S
C1100 H1090 0.930 . S
C1100 C1099 1.412 . S
C1100 C1103 1.386 . S
H1101 C1117 0.930 . S
H1102 C1118 0.931 . S
C1103 H1091 0.929 . S
C1103 C1097 1.390 1_554 S
C1103 C1100 1.386 . S
C1104 C1099 1.490 . S
C1104 C1106 1.395 1_554 S
C1104 C1107 1.364 1_455 S
H1105 C1111 0.930 1_655 S
C1106 H1092 0.930 . S
C1106 C1104 1.395 1_556 S
C1106 C1109 1.403 . S
C1107 C1104 1.364 1_655 S
C1107 C1108 1.568 . S
C1107 C1111 1.395 1_655 S
C1108 H1093 0.960 . S
C1108 H1094 0.960 . S
C1108 H1095 0.960 . S
C1108 C1107 1.568 . S
C1109 C1106 1.403 . S
C1109 C1110 1.392 1_556 S
C1109 C1113 1.495 . S
C1110 C1109 1.392 1_554 S
C1110 C1111 1.385 . S
C1110 C1112 1.478 . S
C1111 H1105 0.930 1_455 S
C1111 C1107 1.395 1_455 S
C1111 C1110 1.385 . S
C1112 C1110 1.478 . S
C1112 C1114 1.381 1_554 S
C1112 C1118 1.383 . S
C1113 C1109 1.495 . S
C1113 H1119 0.959 . S
C1113 H1120 0.961 . S
C1113 H1121 0.960 . S
C1114 C1112 1.381 1_556 S
C1114 C1115 1.394 . S
C1114 H1122 0.930 . S
C1115 C1114 1.394 . S
C1115 C1116 1.383 1_556 S
C1115 H1123 0.929 . S
C1116 C1115 1.383 1_554 S
C1116 C1117 1.377 . S
C1117 H1101 0.930 . S
C1117 C1116 1.377 . S
C1117 C1118 1.379 . S
C1118 H1102 0.931 . S
C1118 C1112 1.383 . S
C1118 C1117 1.379 . S
H1119 C1113 0.959 . S
H1120 C1113 0.961 . S
H1121 C1113 0.960 . S
H1122 C1114 0.930 . S
H1123 C1115 0.929 . S
H1124 C1132 0.929 . S
H1125 C1134 0.930 . S
H1126 C1136 0.930 . S
H1127 C1139 0.929 . S
H1128 C1142 0.930 . S
H1129 C1144 0.960 . S
H1130 C1144 0.960 . S
H1131 C1144 0.960 . S
C1132 H1124 0.929 . S
C1132 C1133 1.377 . S
C1132 C1134 1.384 . S
C1133 C1132 1.377 . S
C1133 C1139 1.390 1_545 S
C1134 H1125 0.930 . S
C1134 C1132 1.384 . S
C1134 C1135 1.372 . S
C1135 C1134 1.372 . S
C1135 C1136 1.400 1_545 S
C1135 C1140 1.490 . S
C1136 H1126 0.930 . S
C1136 C1135 1.400 1_565 S
C1136 C1139 1.386 . S
H1137 C1153 0.930 . S
H1138 C1154 0.931 . S
C1139 H1127 0.929 . S
C1139 C1133 1.390 1_565 S
C1139 C1136 1.386 . S
C1140 C1135 1.490 . S
C1140 C1142 1.395 . S
C1140 C1143 1.403 . S
H1141 C1147 0.930 . S
C1142 H1128 0.930 . S
C1142 C1140 1.395 . S
C1142 C1145 1.403 . S
C1143 C1140 1.403 . S
C1143 C1144 1.524 . S
C1143 C1147 1.400 . S
C1144 H1129 0.960 . S
C1144 H1130 0.960 . S
C1144 H1131 0.960 . S
C1144 C1143 1.524 . S
C1145 C1142 1.403 . S
C1145 C1146 1.392 . S
C1145 C1149 1.495 . S
C1146 C1145 1.392 . S
C1146 C1147 1.385 . S
C1146 C1148 1.478 . S
C1147 H1141 0.930 . S
C1147 C1143 1.400 . S
C1147 C1146 1.385 . S
C1148 C1146 1.478 . S
C1148 C1150 1.381 . S
C1148 C1154 1.383 1_545 S
C1149 C1145 1.495 . S
C1149 H1155 0.959 . S
C1149 H1156 0.925 1_545 S
C1149 H1157 0.960 . S
C1150 C1148 1.381 . S
C1150 C1151 1.394 . S
C1150 H1158 0.930 . S
C1151 C1150 1.394 . S
C1151 C1152 1.383 . S
C1151 H1159 0.929 . S
C1152 C1151 1.383 . S
C1152 C1153 1.377 1_545 S
C1153 H1137 0.930 . S
C1153 C1152 1.377 1_565 S
C1153 C1154 1.379 . S
C1154 H1138 0.931 . S
C1154 C1148 1.383 1_565 S
C1154 C1153 1.379 . S
H1155 C1149 0.959 . S
H1156 C1149 0.925 1_565 S
H1157 C1149 0.960 . S
H1158 C1150 0.930 . S
H1159 C1151 0.929 . S
H1160 C1168 0.929 . S
H1161 C1170 0.930 . S
H1162 C1172 0.930 . S
H1163 C1175 0.929 . S
H1164 C1178 0.930 . S
H1165 C1180 0.960 . S
H1166 C1180 0.960 . S
H1167 C1180 0.960 . S
C1168 H1160 0.929 . S
C1168 C1169 1.377 . S
C1168 C1170 1.384 . S
C1169 C1168 1.377 . S
C1169 C1175 1.390 . S
C1170 H1161 0.930 . S
C1170 C1168 1.384 . S
C1170 C1171 1.372 . S
C1171 C1170 1.372 . S
C1171 C1172 1.400 . S
C1171 C1176 1.490 . S
C1172 H1162 0.930 . S
C1172 C1171 1.400 . S
C1172 C1175 1.386 . S
H1173 C1189 0.930 . S
H1174 C1190 0.931 . S
C1175 H1163 0.929 . S
C1175 C1169 1.390 . S
C1175 C1172 1.386 . S
C1176 C1171 1.490 . S
C1176 C1178 1.395 . S
C1176 C1179 1.403 1_556 S
H1177 C1183 0.930 . S
C1178 H1164 0.930 . S
C1178 C1176 1.395 . S
C1178 C1181 1.403 . S
C1179 C1176 1.403 1_554 S
C1179 C1180 1.524 . S
C1179 C1183 1.400 . S
C1180 H1165 0.960 . S
C1180 H1166 0.960 . S
C1180 H1167 0.960 . S
C1180 C1179 1.524 . S
C1181 C1178 1.403 . S
C1181 C1182 1.392 . S
C1181 C1185 1.495 . S
C1182 C1181 1.392 . S
C1182 C1183 1.385 1_556 S
C1182 C1184 1.478 . S
C1183 H1177 0.930 . S
C1183 C1179 1.400 . S
C1183 C1182 1.385 1_554 S
C1184 C1182 1.478 . S
C1184 C1186 1.381 . S
C1184 C1190 1.383 . S
C1185 C1181 1.495 . S
C1185 H1191 0.959 . S
C1185 H1192 0.961 . S
C1185 H1193 0.960 . S
C1186 C1184 1.381 . S
C1186 C1187 1.394 . S
C1186 H1194 0.930 . S
C1187 C1186 1.394 . S
C1187 C1188 1.383 . S
C1187 H1195 0.929 1_556 S
C1188 C1187 1.383 . S
C1188 C1189 1.377 . S
C1189 H1173 0.930 . S
C1189 C1188 1.377 . S
C1189 C1190 1.379 . S
C1190 H1174 0.931 . S
C1190 C1184 1.383 . S
C1190 C1189 1.379 . S
H1191 C1185 0.959 . S
H1192 C1185 0.961 . S
H1193 C1185 0.960 . S
H1194 C1186 0.930 . S
H1195 C1187 0.929 1_554 S
H1196 C1204 0.929 . S
H1197 C1206 0.930 . S
H1198 C1208 0.930 . S
H1199 C1211 0.929 . S
H1200 C1214 0.930 . S
H1201 C1216 0.960 . S
H1202 C1216 0.960 . S
H1203 C1216 0.960 . S
C1204 H1196 0.929 . S
C1204 C1205 1.377 . S
C1204 C1206 1.384 . S
C1205 C1204 1.377 . S
C1205 C1211 1.390 . S
C1206 H1197 0.930 . S
C1206 C1204 1.384 . S
C1206 C1207 1.372 . S
C1207 C1206 1.372 . S
C1207 C1208 1.400 . S
C1207 C1212 1.490 . S
C1208 H1198 0.930 . S
C1208 C1207 1.400 . S
C1208 C1211 1.386 . S
H1209 C1225 0.930 . S
H1210 C1226 0.931 . S
C1211 H1199 0.929 . S
C1211 C1205 1.390 . S
C1211 C1208 1.386 . S
C1212 C1207 1.490 . S
C1212 C1214 1.395 . S
C1212 C1215 1.403 . S
H1213 C1219 0.930 . S
C1214 H1200 0.930 . S
C1214 C1212 1.395 . S
C1214 C1217 1.403 . S
C1215 C1212 1.403 . S
C1215 C1216 1.524 . S
C1215 C1219 1.400 . S
C1216 H1201 0.960 . S
C1216 H1202 0.960 . S
C1216 H1203 0.960 . S
C1216 C1215 1.524 . S
C1217 C1214 1.403 . S
C1217 C1218 1.392 . S
C1217 C1221 1.495 . S
C1218 C1217 1.392 . S
C1218 C1219 1.385 . S
C1218 C1220 1.478 . S
C1219 H1213 0.930 . S
C1219 C1215 1.400 . S
C1219 C1218 1.385 . S
C1220 C1218 1.478 . S
C1220 C1222 1.381 . S
C1220 C1226 1.383 . S
C1221 C1217 1.495 . S
C1221 H1227 0.959 . S
C1221 H1228 0.961 . S
C1221 H1229 0.960 . S
C1222 C1220 1.381 . S
C1222 C1223 1.394 . S
C1222 H1230 0.930 . S
C1223 C1222 1.394 . S
C1223 C1224 1.383 . S
C1223 H1231 0.929 . S
C1224 C1223 1.383 . S
C1224 C1225 1.377 . S
C1225 H1209 0.930 . S
C1225 C1224 1.377 . S
C1225 C1226 1.379 . S
C1226 H1210 0.931 . S
C1226 C1220 1.383 . S
C1226 C1225 1.379 . S
H1227 C1221 0.959 . S
H1228 C1221 0.961 . S
H1229 C1221 0.960 . S
H1230 C1222 0.930 . S
H1231 C1223 0.929 . S
H1232 C1240 0.929 . S
H1233 C1242 0.930 . S
H1234 C1244 0.930 . S
H1235 C1247 0.929 . S
H1236 C1250 0.930 . S
H1237 C1252 0.960 . S
H1238 C1252 0.960 . S
H1239 C1252 0.960 . S
C1240 H1232 0.929 . S
C1240 C1241 1.377 . S
C1240 C1242 1.384 . S
C1241 C1240 1.377 . S
C1241 C1247 1.390 . S
C1242 H1233 0.930 . S
C1242 C1240 1.384 . S
C1242 C1243 1.372 . S
C1243 C1242 1.372 . S
C1243 C1244 1.400 . S
C1243 C1248 1.490 . S
C1244 H1234 0.930 . S
C1244 C1243 1.400 . S
C1244 C1247 1.386 . S
H1245 C1261 0.930 . S
H1246 C1262 0.931 . S
C1247 H1235 0.929 . S
C1247 C1241 1.390 . S
C1247 C1244 1.386 . S
C1248 C1243 1.490 . S
C1248 C1250 1.395 . S
C1248 C1251 1.403 . S
H1249 C1255 0.930 . S
C1250 H1236 0.930 . S
C1250 C1248 1.395 . S
C1250 C1253 1.403 . S
C1251 C1248 1.403 . S
C1251 C1252 1.524 . S
C1251 C1255 1.400 . S
C1252 H1237 0.960 . S
C1252 H1238 0.960 . S
C1252 H1239 0.960 . S
C1252 C1251 1.524 . S
C1253 C1250 1.403 . S
C1253 C1254 1.392 . S
C1253 C1257 1.495 . S
C1254 C1253 1.392 . S
C1254 C1255 1.385 . S
C1254 C1256 1.478 . S
C1255 H1249 0.930 . S
C1255 C1251 1.400 . S
C1255 C1254 1.385 . S
C1256 C1254 1.478 . S
C1256 C1258 1.381 . S
C1256 C1262 1.383 . S
C1257 C1253 1.495 . S
C1257 H1263 0.959 . S
C1257 H1264 0.961 . S
C1257 H1265 0.960 . S
C1258 C1256 1.381 . S
C1258 C1259 1.394 . S
C1258 H1266 0.930 . S
C1259 C1258 1.394 . S
C1259 C1260 1.383 . S
C1259 H1267 0.929 . S
C1260 C1259 1.383 . S
C1260 C1261 1.377 . S
C1261 H1245 0.930 . S
C1261 C1260 1.377 . S
C1261 C1262 1.379 . S
C1262 H1246 0.931 . S
C1262 C1256 1.383 . S
C1262 C1261 1.379 . S
H1263 C1257 0.959 . S
H1264 C1257 0.961 . S
H1265 C1257 0.960 . S
H1266 C1258 0.930 . S
H1267 C1259 0.929 . S
H1268 C1276 0.929 . S
H1269 C1278 0.930 . S
H1270 C1280 0.930 . S
H1271 C1283 0.929 . S
H1272 C1286 0.930 . S
H1273 C1288 0.960 . S
H1274 C1288 0.960 . S
H1275 C1288 0.960 . S
C1276 H1268 0.929 . S
C1276 C1277 1.377 . S
C1276 C1278 1.384 . S
C1277 C1276 1.377 . S
C1277 C1283 1.390 . S
C1278 H1269 0.930 . S
C1278 C1276 1.384 . S
C1278 C1279 1.372 . S
C1279 C1278 1.372 . S
C1279 C1280 1.400 . S
C1279 C1284 1.490 . S
C1280 H1270 0.930 . S
C1280 C1279 1.400 . S
C1280 C1283 1.386 . S
H1281 C1297 0.930 . S
H1282 C1298 0.931 . S
C1283 H1271 0.929 . S
C1283 C1277 1.390 . S
C1283 C1280 1.386 . S
C1284 C1279 1.490 . S
C1284 C1286 1.395 . S
C1284 C1287 1.403 . S
H1285 C1291 0.930 . S
C1286 H1272 0.930 . S
C1286 C1284 1.395 . S
C1286 C1289 1.403 . S
C1287 C1284 1.403 . S
C1287 C1288 1.524 . S
C1287 C1291 1.400 . S
C1288 H1273 0.960 . S
C1288 H1274 0.960 . S
C1288 H1275 0.960 . S
C1288 C1287 1.524 . S
C1289 C1286 1.403 . S
C1289 C1290 1.392 . S
C1289 C1293 1.495 . S
C1290 C1289 1.392 . S
C1290 C1291 1.385 . S
C1290 C1292 1.478 . S
C1291 H1285 0.930 . S
C1291 C1287 1.400 . S
C1291 C1290 1.385 . S
C1292 C1290 1.478 . S
C1292 C1294 1.381 . S
C1292 C1298 1.383 . S
C1293 C1289 1.495 . S
C1293 H1299 0.959 . S
C1293 H1300 0.961 . S
C1293 H1301 0.960 . S
C1294 C1292 1.381 . S
C1294 C1295 1.394 . S
C1294 H1302 0.930 . S
C1295 C1294 1.394 . S
C1295 C1296 1.383 . S
C1295 H1303 0.929 . S
C1296 C1295 1.383 . S
C1296 C1297 1.377 . S
C1297 H1281 0.930 . S
C1297 C1296 1.377 . S
C1297 C1298 1.379 . S
C1298 H1282 0.931 . S
C1298 C1292 1.383 . S
C1298 C1297 1.379 . S
H1299 C1293 0.959 . S
H1300 C1293 0.961 . S
H1301 C1293 0.960 . S
H1302 C1294 0.930 . S
H1303 C1295 0.929 . S
H1304 C1312 0.929 . S
H1305 C1314 0.930 . S
H1306 C1316 0.930 . S
H1307 C1319 0.929 . S
H1308 C1322 0.930 . S
H1309 C1324 0.960 . S
H1310 C1324 0.960 . S
H1311 C1324 0.960 . S
C1312 H1304 0.929 . S
C1312 C1313 1.377 . S
C1312 C1314 1.384 . S
C1313 C1312 1.377 . S
C1313 C1319 1.390 . S
C1314 H1305 0.930 . S
C1314 C1312 1.384 . S
C1314 C1315 1.372 . S
C1315 C1314 1.372 . S
C1315 C1316 1.400 . S
C1315 C1320 1.490 . S
C1316 H1306 0.930 . S
C1316 C1315 1.400 . S
C1316 C1319 1.386 . S
H1317 C1333 0.930 . S
H1318 C1334 0.931 . S
C1319 H1307 0.929 . S
C1319 C1313 1.390 . S
C1319 C1316 1.386 . S
C1320 C1315 1.490 . S
C1320 C1322 1.395 . S
C1320 C1323 1.403 . S
H1321 C1327 0.930 . S
C1322 H1308 0.930 . S
C1322 C1320 1.395 . S
C1322 C1325 1.403 . S
C1323 C1320 1.403 . S
C1323 C1324 1.524 . S
C1323 C1327 1.400 . S
C1324 H1309 0.960 . S
C1324 H1310 0.960 . S
C1324 H1311 0.960 . S
C1324 C1323 1.524 . S
C1325 C1322 1.403 . S
C1325 C1326 1.392 . S
C1325 C1329 1.495 . S
C1326 C1325 1.392 . S
C1326 C1327 1.385 . S
C1326 C1328 1.478 . S
C1327 H1321 0.930 . S
C1327 C1323 1.400 . S
C1327 C1326 1.385 . S
C1328 C1326 1.478 . S
C1328 C1330 1.381 . S
C1328 C1334 1.383 . S
C1329 C1325 1.495 . S
C1329 H1335 0.959 . S
C1329 H1336 0.961 . S
C1329 H1337 0.960 . S
C1330 C1328 1.381 . S
C1330 C1331 1.394 . S
C1330 H1338 0.930 . S
C1331 C1330 1.394 . S
C1331 C1332 1.383 . S
C1331 H1339 0.929 . S
C1332 C1331 1.383 . S
C1332 C1333 1.377 . S
C1333 H1317 0.930 . S
C1333 C1332 1.377 . S
C1333 C1334 1.379 . S
C1334 H1318 0.931 . S
C1334 C1328 1.383 . S
C1334 C1333 1.379 . S
H1335 C1329 0.959 . S
H1336 C1329 0.961 . S
H1337 C1329 0.960 . S
H1338 C1330 0.930 . S
H1339 C1331 0.929 . S
H1340 C1348 0.929 . S
H1341 C1350 0.930 . S
H1342 C1352 0.930 . S
H1343 C1355 0.929 . S
H1344 C1358 0.930 . S
H1345 C1360 0.960 . S
H1346 C1360 0.960 . S
H1347 C1360 0.960 . S
C1348 H1340 0.929 . S
C1348 C1349 1.377 . S
C1348 C1350 1.384 . S
C1349 C1348 1.377 . S
C1349 C1355 1.390 . S
C1350 H1341 0.930 . S
C1350 C1348 1.384 . S
C1350 C1351 1.372 . S
C1351 C1350 1.372 . S
C1351 C1352 1.400 . S
C1351 C1356 1.490 . S
C1352 H1342 0.930 . S
C1352 C1351 1.400 . S
C1352 C1355 1.386 . S
H1353 C1369 0.930 . S
H1354 C1370 0.931 . S
C1355 H1343 0.929 . S
C1355 C1349 1.390 . S
C1355 C1352 1.386 . S
C1356 C1351 1.490 . S
C1356 C1358 1.395 . S
C1356 C1359 1.403 . S
H1357 C1363 0.930 . S
C1358 H1344 0.930 . S
C1358 C1356 1.395 . S
C1358 C1361 1.403 . S
C1359 C1356 1.403 . S
C1359 C1360 1.524 . S
C1359 C1363 1.400 . S
C1360 H1345 0.960 . S
C1360 H1346 0.960 . S
C1360 H1347 0.960 . S
C1360 C1359 1.524 . S
C1361 C1358 1.403 . S
C1361 C1362 1.392 . S
C1361 C1365 1.495 . S
C1362 C1361 1.392 . S
C1362 C1363 1.385 . S
C1362 C1364 1.478 . S
C1363 H1357 0.930 . S
C1363 C1359 1.400 . S
C1363 C1362 1.385 . S
C1364 C1362 1.478 . S
C1364 C1366 1.381 . S
C1364 C1370 1.383 . S
C1365 C1361 1.495 . S
C1365 H1371 0.959 . S
C1365 H1372 0.961 . S
C1365 H1373 0.960 . S
C1366 C1364 1.381 . S
C1366 C1367 1.394 . S
C1366 H1374 0.930 . S
C1367 C1366 1.394 . S
C1367 C1368 1.383 . S
C1367 H1375 0.929 . S
C1368 C1367 1.383 . S
C1368 C1369 1.377 . S
C1369 H1353 0.930 . S
C1369 C1368 1.377 . S
C1369 C1370 1.379 . S
C1370 H1354 0.931 . S
C1370 C1364 1.383 . S
C1370 C1369 1.379 . S
H1371 C1365 0.959 . S
H1372 C1365 0.961 . S
H1373 C1365 0.960 . S
H1374 C1366 0.930 . S
H1375 C1367 0.929 . S
H1376 C1384 0.929 . S
H1377 C1386 0.930 . S
H1378 C1388 0.930 . S
H1379 C1391 0.929 . S
H1380 C1394 0.930 . S
H1381 C1396 0.960 . S
H1382 C1396 0.960 . S
H1383 C1396 0.960 . S
C1384 H1376 0.929 . S
C1384 C1385 1.377 . S
C1384 C1386 1.384 . S
C1385 C1384 1.377 . S
C1385 C1391 1.390 . S
C1386 H1377 0.930 . S
C1386 C1384 1.384 . S
C1386 C1387 1.372 . S
C1387 C1386 1.372 . S
C1387 C1388 1.400 . S
C1387 C1392 1.490 . S
C1388 H1378 0.930 . S
C1388 C1387 1.400 . S
C1388 C1391 1.386 . S
H1389 C1405 0.930 . S
H1390 C1406 0.931 . S
C1391 H1379 0.929 . S
C1391 C1385 1.390 . S
C1391 C1388 1.386 . S
C1392 C1387 1.490 . S
C1392 C1394 1.395 . S
C1392 C1395 1.403 . S
H1393 C1399 0.930 . S
C1394 H1380 0.930 . S
C1394 C1392 1.395 . S
C1394 C1397 1.403 . S
C1395 C1392 1.403 . S
C1395 C1396 1.524 . S
C1395 C1399 1.400 . S
C1396 H1381 0.960 . S
C1396 H1382 0.960 . S
C1396 H1383 0.960 . S
C1396 C1395 1.524 . S
C1397 C1394 1.403 . S
C1397 C1398 1.392 . S
C1397 C1401 1.495 . S
C1398 C1397 1.392 . S
C1398 C1399 1.385 . S
C1398 C1400 1.478 . S
C1399 H1393 0.930 . S
C1399 C1395 1.400 . S
C1399 C1398 1.385 . S
C1400 C1398 1.478 . S
C1400 C1402 1.381 . S
C1400 C1406 1.383 . S
C1401 C1397 1.495 . S
C1401 H1407 0.959 . S
C1401 H1408 0.961 . S
C1401 H1409 0.960 . S
C1402 C1400 1.381 . S
C1402 C1403 1.394 . S
C1402 H1410 0.930 . S
C1403 C1402 1.394 . S
C1403 C1404 1.383 . S
C1403 H1411 0.929 . S
C1404 C1403 1.383 . S
C1404 C1405 1.377 . S
C1405 H1389 0.930 . S
C1405 C1404 1.377 . S
C1405 C1406 1.379 . S
C1406 H1390 0.931 . S
C1406 C1400 1.383 . S
C1406 C1405 1.379 . S
H1407 C1401 0.959 . S
H1408 C1401 0.961 . S
H1409 C1401 0.960 . S
H1410 C1402 0.930 . S
H1411 C1403 0.929 . S
H1412 C1420 0.929 . S
H1413 C1422 0.930 . S
H1414 C1424 0.930 . S
H1415 C1427 0.929 . S
H1416 C1430 0.930 . S
H1417 C1432 0.960 . S
H1418 C1432 0.960 . S
H1419 C1432 0.960 . S
C1420 H1412 0.929 . S
C1420 C1421 1.377 . S
C1420 C1422 1.384 . S
C1421 C1420 1.377 . S
C1421 C1427 1.390 . S
C1422 H1413 0.930 . S
C1422 C1420 1.384 . S
C1422 C1423 1.372 . S
C1423 C1422 1.372 . S
C1423 C1424 1.400 . S
C1423 C1428 1.490 . S
C1424 H1414 0.930 . S
C1424 C1423 1.400 . S
C1424 C1427 1.386 . S
H1425 C1441 0.930 . S
H1426 C1442 0.931 . S
C1427 H1415 0.929 . S
C1427 C1421 1.390 . S
C1427 C1424 1.386 . S
C1428 C1423 1.490 . S
C1428 C1430 1.395 . S
C1428 C1431 1.403 . S
H1429 C1435 0.930 . S
C1430 H1416 0.930 . S
C1430 C1428 1.395 . S
C1430 C1433 1.403 . S
C1431 C1428 1.403 . S
C1431 C1432 1.524 . S
C1431 C1435 1.400 . S
C1432 H1417 0.960 . S
C1432 H1418 0.960 . S
C1432 H1419 0.960 . S
C1432 C1431 1.524 . S
C1433 C1430 1.403 . S
C1433 C1434 1.392 . S
C1433 C1437 1.495 . S
C1434 C1433 1.392 . S
C1434 C1435 1.385 . S
C1434 C1436 1.478 . S
C1435 H1429 0.930 . S
C1435 C1431 1.400 . S
C1435 C1434 1.385 . S
C1436 C1434 1.478 . S
C1436 C1438 1.381 . S
C1436 C1442 1.383 . S
C1437 C1433 1.495 . S
C1437 H1443 0.959 . S
C1437 H1444 0.961 . S
C1437 H1445 0.960 . S
C1438 C1436 1.381 . S
C1438 C1439 1.394 . S
C1438 H1446 0.930 . S
C1439 C1438 1.394 . S
C1439 C1440 1.383 . S
C1439 H1447 0.929 . S
C1440 C1439 1.383 . S
C1440 C1441 1.377 . S
C1441 H1425 0.930 . S
C1441 C1440 1.377 . S
C1441 C1442 1.379 . S
C1442 H1426 0.931 . S
C1442 C1436 1.383 . S
C1442 C1441 1.379 . S
H1443 C1437 0.959 . S
H1444 C1437 0.961 . S
H1445 C1437 0.960 . S
H1446 C1438 0.930 . S
H1447 C1439 0.929 . S
H1448 C1456 0.929 . S
H1449 C1458 0.930 . S
H1450 C1460 0.930 . S
H1451 C1463 0.929 . S
H1452 C1466 0.930 . S
H1453 C1468 0.960 . S
H1454 C1468 0.960 . S
H1455 C1468 0.960 . S
C1456 H1448 0.929 . S
C1456 C1457 1.377 . S
C1456 C1458 1.384 . S
C1457 C1456 1.377 . S
C1457 C1463 1.390 . S
C1458 H1449 0.930 . S
C1458 C1456 1.384 . S
C1458 C1459 1.372 . S
C1459 C1458 1.372 . S
C1459 C1460 1.400 . S
C1459 C1464 1.490 . S
C1460 H1450 0.930 . S
C1460 C1459 1.400 . S
C1460 C1463 1.386 . S
H1461 C1477 0.930 . S
H1462 C1478 0.931 . S
C1463 H1451 0.929 . S
C1463 C1457 1.390 . S
C1463 C1460 1.386 . S
C1464 C1459 1.490 . S
C1464 C1466 1.395 . S
C1464 C1467 1.403 . S
H1465 C1471 0.930 . S
C1466 H1452 0.930 . S
C1466 C1464 1.395 . S
C1466 C1469 1.403 . S
C1467 C1464 1.403 . S
C1467 C1468 1.524 . S
C1467 C1471 1.400 . S
C1468 H1453 0.960 . S
C1468 H1454 0.960 . S
C1468 H1455 0.960 . S
C1468 C1467 1.524 . S
C1469 C1466 1.403 . S
C1469 C1470 1.392 . S
C1469 C1473 1.495 . S
C1470 C1469 1.392 . S
C1470 C1471 1.385 . S
C1470 C1472 1.478 . S
C1471 H1465 0.930 . S
C1471 C1467 1.400 . S
C1471 C1470 1.385 . S
C1472 C1470 1.478 . S
C1472 C1474 1.381 . S
C1472 C1478 1.383 . S
C1473 C1469 1.495 . S
C1473 H1479 0.959 . S
C1473 H1480 0.961 . S
C1473 H1481 0.960 . S
C1474 C1472 1.381 . S
C1474 C1475 1.394 . S
C1474 H1482 0.930 . S
C1475 C1474 1.394 . S
C1475 C1476 1.383 . S
C1475 H1483 0.929 . S
C1476 C1475 1.383 . S
C1476 C1477 1.377 . S
C1477 H1461 0.930 . S
C1477 C1476 1.377 . S
C1477 C1478 1.379 . S
C1478 H1462 0.931 . S
C1478 C1472 1.383 . S
C1478 C1477 1.379 . S
H1479 C1473 0.959 . S
H1480 C1473 0.961 . S
H1481 C1473 0.960 . S
H1482 C1474 0.930 . S
H1483 C1475 0.929 . S
H1484 C1492 0.929 . S
H1485 C1494 0.930 . S
H1486 C1496 0.930 . S
H1487 C1499 0.929 . S
H1488 C1502 0.930 . S
H1489 C1504 0.960 . S
H1490 C1504 0.960 . S
H1491 C1504 0.960 . S
C1492 H1484 0.929 . S
C1492 C1493 1.377 . S
C1492 C1494 1.384 . S
C1493 C1492 1.377 . S
C1493 C1499 1.390 . S
C1494 H1485 0.930 . S
C1494 C1492 1.384 . S
C1494 C1495 1.372 . S
C1495 C1494 1.372 . S
C1495 C1496 1.400 . S
C1495 C1500 1.490 . S
C1496 H1486 0.930 . S
C1496 C1495 1.400 . S
C1496 C1499 1.386 . S
H1497 C1513 0.930 . S
H1498 C1514 0.931 . S
C1499 H1487 0.929 . S
C1499 C1493 1.390 . S
C1499 C1496 1.386 . S
C1500 C1495 1.490 . S
C1500 C1502 1.395 . S
C1500 C1503 1.403 . S
H1501 C1507 0.930 . S
C1502 H1488 0.930 . S
C1502 C1500 1.395 . S
C1502 C1505 1.403 . S
C1503 C1500 1.403 . S
C1503 C1504 1.524 . S
C1503 C1507 1.400 . S
C1504 H1489 0.960 . S
C1504 H1490 0.960 . S
C1504 H1491 0.960 . S
C1504 C1503 1.524 . S
C1505 C1502 1.403 . S
C1505 C1506 1.392 . S
C1505 C1509 1.495 . S
C1506 C1505 1.392 . S
C1506 C1507 1.385 . S
C1506 C1508 1.478 . S
C1507 H1501 0.930 . S
C1507 C1503 1.400 . S
C1507 C1506 1.385 . S
C1508 C1506 1.478 . S
C1508 C1510 1.381 . S
C1508 C1514 1.383 . S
C1509 C1505 1.495 . S
C1509 H1515 0.959 . S
C1509 H1516 0.961 . S
C1509 H1517 0.960 . S
C1510 C1508 1.381 . S
C1510 C1511 1.394 . S
C1510 H1518 0.930 . S
C1511 C1510 1.394 . S
C1511 C1512 1.383 . S
C1511 H1519 0.929 . S
C1512 C1511 1.383 . S
C1512 C1513 1.377 . S
C1513 H1497 0.930 . S
C1513 C1512 1.377 . S
C1513 C1514 1.379 . S
C1514 H1498 0.931 . S
C1514 C1508 1.383 . S
C1514 C1513 1.379 . S
H1515 C1509 0.959 . S
H1516 C1509 0.961 . S
H1517 C1509 0.960 . S
H1518 C1510 0.930 . S
H1519 C1511 0.929 . S
H1520 C1528 0.929 . S
H1521 C1530 0.930 . S
H1522 C1532 0.930 . S
H1523 C1535 0.929 . S
H1524 C1538 0.930 . S
H1525 C1540 0.960 . S
H1526 C1540 0.960 . S
H1527 C1540 0.960 . S
C1528 H1520 0.929 . S
C1528 C1529 1.377 . S
C1528 C1530 1.384 . S
C1529 C1528 1.377 . S
C1529 C1535 1.390 . S
C1530 H1521 0.930 . S
C1530 C1528 1.384 . S
C1530 C1531 1.372 . S
C1531 C1530 1.372 . S
C1531 C1532 1.400 . S
C1531 C1536 1.490 . S
C1532 H1522 0.930 . S
C1532 C1531 1.400 . S
C1532 C1535 1.386 . S
H1533 C1549 0.930 . S
H1534 C1550 0.931 . S
C1535 H1523 0.929 . S
C1535 C1529 1.390 . S
C1535 C1532 1.386 . S
C1536 C1531 1.490 . S
C1536 C1538 1.395 . S
C1536 C1539 1.403 . S
H1537 C1543 0.930 . S
C1538 H1524 0.930 . S
C1538 C1536 1.395 . S
C1538 C1541 1.403 . S
C1539 C1536 1.403 . S
C1539 C1540 1.524 . S
C1539 C1543 1.400 . S
C1540 H1525 0.960 . S
C1540 H1526 0.960 . S
C1540 H1527 0.960 . S
C1540 C1539 1.524 . S
C1541 C1538 1.403 . S
C1541 C1542 1.392 . S
C1541 C1545 1.495 . S
C1542 C1541 1.392 . S
C1542 C1543 1.385 . S
C1542 C1544 1.478 . S
C1543 H1537 0.930 . S
C1543 C1539 1.400 . S
C1543 C1542 1.385 . S
C1544 C1542 1.478 . S
C1544 C1546 1.381 . S
C1544 C1550 1.383 . S
C1545 C1541 1.495 . S
C1545 H1551 0.959 . S
C1545 H1552 0.961 . S
C1545 H1553 0.960 . S
C1546 C1544 1.381 . S
C1546 C1547 1.394 . S
C1546 H1554 0.930 . S
C1547 C1546 1.394 . S
C1547 C1548 1.383 . S
C1547 H1555 0.929 . S
C1548 C1547 1.383 . S
C1548 C1549 1.377 . S
C1549 H1533 0.930 . S
C1549 C1548 1.377 . S
C1549 C1550 1.379 . S
C1550 H1534 0.931 . S
C1550 C1544 1.383 . S
C1550 C1549 1.379 . S
H1551 C1545 0.959 . S
H1552 C1545 0.961 . S
H1553 C1545 0.960 . S
H1554 C1546 0.930 . S
H1555 C1547 0.929 . S
H1556 C1564 0.929 . S
H1557 C1566 0.930 . S
H1558 C1568 0.930 . S
H1559 C1571 0.929 . S
H1560 C1574 0.930 . S
H1561 C1576 0.960 . S
H1562 C1576 0.960 . S
H1563 C1576 0.960 . S
C1564 H1556 0.929 . S
C1564 C1565 1.377 . S
C1564 C1566 1.384 . S
C1565 C1564 1.377 . S
C1565 C1571 1.390 . S
C1566 H1557 0.930 . S
C1566 C1564 1.384 . S
C1566 C1567 1.372 . S
C1567 C1566 1.372 . S
C1567 C1568 1.400 . S
C1567 C1572 1.490 . S
C1568 H1558 0.930 . S
C1568 C1567 1.400 . S
C1568 C1571 1.386 . S
H1569 C1585 0.930 . S
H1570 C1586 0.931 . S
C1571 H1559 0.929 . S
C1571 C1565 1.390 . S
C1571 C1568 1.386 . S
C1572 C1567 1.490 . S
C1572 C1574 1.395 . S
C1572 C1575 1.403 . S
H1573 C1579 0.930 . S
C1574 H1560 0.930 . S
C1574 C1572 1.395 . S
C1574 C1577 1.403 . S
C1575 C1572 1.403 . S
C1575 C1576 1.524 . S
C1575 C1579 1.400 . S
C1576 H1561 0.960 . S
C1576 H1562 0.960 . S
C1576 H1563 0.960 . S
C1576 C1575 1.524 . S
C1577 C1574 1.403 . S
C1577 C1578 1.392 . S
C1577 C1581 1.495 . S
C1578 C1577 1.392 . S
C1578 C1579 1.385 . S
C1578 C1580 1.478 . S
C1579 H1573 0.930 . S
C1579 C1575 1.400 . S
C1579 C1578 1.385 . S
C1580 C1578 1.478 . S
C1580 C1582 1.381 . S
C1580 C1586 1.383 . S
C1581 C1577 1.495 . S
C1581 H1587 0.959 . S
C1581 H1588 0.961 . S
C1581 H1589 0.960 . S
C1582 C1580 1.381 . S
C1582 C1583 1.394 . S
C1582 H1590 0.930 . S
C1583 C1582 1.394 . S
C1583 C1584 1.383 . S
C1583 H1591 0.929 . S
C1584 C1583 1.383 . S
C1584 C1585 1.377 . S
C1585 H1569 0.930 . S
C1585 C1584 1.377 . S
C1585 C1586 1.379 . S
C1586 H1570 0.931 . S
C1586 C1580 1.383 . S
C1586 C1585 1.379 . S
H1587 C1581 0.959 . S
H1588 C1581 0.961 . S
H1589 C1581 0.960 . S
H1590 C1582 0.930 . S
H1591 C1583 0.929 . S
H1592 C1600 0.929 . S
H1593 C1602 0.930 . S
H1594 C1604 0.930 . S
H1595 C1607 0.929 . S
H1596 C1610 0.930 . S
H1597 C1612 0.960 . S
H1598 C1612 0.960 . S
H1599 C1612 0.960 . S
C1600 H1592 0.929 . S
C1600 C1601 1.377 . S
C1600 C1602 1.384 . S
C1601 C1600 1.377 . S
C1601 C1607 1.390 . S
C1602 H1593 0.930 . S
C1602 C1600 1.384 . S
C1602 C1603 1.372 . S
C1603 C1602 1.372 . S
C1603 C1604 1.400 . S
C1603 C1608 1.490 . S
C1604 H1594 0.930 . S
C1604 C1603 1.400 . S
C1604 C1607 1.386 . S
H1605 C1621 0.930 . S
H1606 C1622 0.931 . S
C1607 H1595 0.929 . S
C1607 C1601 1.390 . S
C1607 C1604 1.386 . S
C1608 C1603 1.490 . S
C1608 C1610 1.395 . S
C1608 C1611 1.403 . S
H1609 C1615 0.930 . S
C1610 H1596 0.930 . S
C1610 C1608 1.395 . S
C1610 C1613 1.403 . S
C1611 C1608 1.403 . S
C1611 C1612 1.524 . S
C1611 C1615 1.400 . S
C1612 H1597 0.960 . S
C1612 H1598 0.960 . S
C1612 H1599 0.960 . S
C1612 C1611 1.524 . S
C1613 C1610 1.403 . S
C1613 C1614 1.392 . S
C1613 C1617 1.495 . S
C1614 C1613 1.392 . S
C1614 C1615 1.385 . S
C1614 C1616 1.478 . S
C1615 H1609 0.930 . S
C1615 C1611 1.400 . S
C1615 C1614 1.385 . S
C1616 C1614 1.478 . S
C1616 C1618 1.381 . S
C1616 C1622 1.383 . S
C1617 C1613 1.495 . S
C1617 H1623 0.959 . S
C1617 H1624 0.961 . S
C1617 H1625 0.960 . S
C1618 C1616 1.381 . S
C1618 C1619 1.394 . S
C1618 H1626 0.930 . S
C1619 C1618 1.394 . S
C1619 C1620 1.383 . S
C1619 H1627 0.929 . S
C1620 C1619 1.383 . S
C1620 C1621 1.377 . S
C1621 H1605 0.930 . S
C1621 C1620 1.377 . S
C1621 C1622 1.379 . S
C1622 H1606 0.931 . S
C1622 C1616 1.383 . S
C1622 C1621 1.379 . S
H1623 C1617 0.959 . S
H1624 C1617 0.961 . S
H1625 C1617 0.960 . S
H1626 C1618 0.930 . S
H1627 C1619 0.929 . S
H1628 C1636 0.929 . S
H1629 C1638 0.930 . S
H1630 C1640 0.930 . S
H1631 C1643 0.929 . S
H1632 C1646 0.930 . S
H1633 C1648 0.960 . S
H1634 C1648 0.960 . S
H1635 C1648 0.960 . S
C1636 H1628 0.929 . S
C1636 C1637 1.377 . S
C1636 C1638 1.384 . S
C1637 C1636 1.377 . S
C1637 C1643 1.390 . S
C1638 H1629 0.930 . S
C1638 C1636 1.384 . S
C1638 C1639 1.372 . S
C1639 C1638 1.372 . S
C1639 C1640 1.400 . S
C1639 C1644 1.490 . S
C1640 H1630 0.930 . S
C1640 C1639 1.400 . S
C1640 C1643 1.386 . S
H1641 C1657 0.930 . S
H1642 C1658 0.931 . S
C1643 H1631 0.929 . S
C1643 C1637 1.390 . S
C1643 C1640 1.386 . S
C1644 C1639 1.490 . S
C1644 C1646 1.395 . S
C1644 C1647 1.403 . S
H1645 C1651 0.930 . S
C1646 H1632 0.930 . S
C1646 C1644 1.395 . S
C1646 C1649 1.403 . S
C1647 C1644 1.403 . S
C1647 C1648 1.524 . S
C1647 C1651 1.400 . S
C1648 H1633 0.960 . S
C1648 H1634 0.960 . S
C1648 H1635 0.960 . S
C1648 C1647 1.524 . S
C1649 C1646 1.403 . S
C1649 C1650 1.392 . S
C1649 C1653 1.495 . S
C1650 C1649 1.392 . S
C1650 C1651 1.385 . S
C1650 C1652 1.478 . S
C1651 H1645 0.930 . S
C1651 C1647 1.400 . S
C1651 C1650 1.385 . S
C1652 C1650 1.478 . S
C1652 C1654 1.381 . S
C1652 C1658 1.383 . S
C1653 C1649 1.495 . S
C1653 H1659 0.959 . S
C1653 H1660 0.961 . S
C1653 H1661 0.960 . S
C1654 C1652 1.381 . S
C1654 C1655 1.394 . S
C1654 H1662 0.930 . S
C1655 C1654 1.394 . S
C1655 C1656 1.383 . S
C1655 H1663 0.929 . S
C1656 C1655 1.383 . S
C1656 C1657 1.377 . S
C1657 H1641 0.930 . S
C1657 C1656 1.377 . S
C1657 C1658 1.379 . S
C1658 H1642 0.931 . S
C1658 C1652 1.383 . S
C1658 C1657 1.379 . S
H1659 C1653 0.959 . S
H1660 C1653 0.961 . S
H1661 C1653 0.960 . S
H1662 C1654 0.930 . S
H1663 C1655 0.929 . S
H1664 C1672 0.929 . S
H1665 C1674 0.930 . S
H1666 C1676 0.930 . S
H1667 C1679 0.929 . S
H1668 C1682 0.930 . S
H1669 C1684 0.960 . S
H1670 C1684 0.960 . S
H1671 C1684 0.960 . S
C1672 H1664 0.929 . S
C1672 C1673 1.377 . S
C1672 C1674 1.384 . S
C1673 C1672 1.377 . S
C1673 C1679 1.390 . S
C1674 H1665 0.930 . S
C1674 C1672 1.384 . S
C1674 C1675 1.372 . S
C1675 C1674 1.372 . S
C1675 C1676 1.400 . S
C1675 C1680 1.490 . S
C1676 H1666 0.930 . S
C1676 C1675 1.400 . S
C1676 C1679 1.386 . S
H1677 C1693 0.930 . S
H1678 C1694 0.931 . S
C1679 H1667 0.929 . S
C1679 C1673 1.390 . S
C1679 C1676 1.386 . S
C1680 C1675 1.490 . S
C1680 C1682 1.395 . S
C1680 C1683 1.403 . S
H1681 C1687 0.930 . S
C1682 H1668 0.930 . S
C1682 C1680 1.395 . S
C1682 C1685 1.403 . S
C1683 C1680 1.403 . S
C1683 C1684 1.524 . S
C1683 C1687 1.400 . S
C1684 H1669 0.960 . S
C1684 H1670 0.960 . S
C1684 H1671 0.960 . S
C1684 C1683 1.524 . S
C1685 C1682 1.403 . S
C1685 C1686 1.392 . S
C1685 C1689 1.495 . S
C1686 C1685 1.392 . S
C1686 C1687 1.385 . S
C1686 C1688 1.478 . S
C1687 H1681 0.930 . S
C1687 C1683 1.400 . S
C1687 C1686 1.385 . S
C1688 C1686 1.478 . S
C1688 C1690 1.381 . S
C1688 C1694 1.383 . S
C1689 C1685 1.495 . S
C1689 H1695 0.959 . S
C1689 H1696 0.961 . S
C1689 H1697 0.960 . S
C1690 C1688 1.381 . S
C1690 C1691 1.394 . S
C1690 H1698 0.930 . S
C1691 C1690 1.394 . S
C1691 C1692 1.383 . S
C1691 H1699 0.929 . S
C1692 C1691 1.383 . S
C1692 C1693 1.377 . S
C1693 H1677 0.930 . S
C1693 C1692 1.377 . S
C1693 C1694 1.379 . S
C1694 H1678 0.931 . S
C1694 C1688 1.383 . S
C1694 C1693 1.379 . S
H1695 C1689 0.959 . S
H1696 C1689 0.961 . S
H1697 C1689 0.960 . S
H1698 C1690 0.930 . S
H1699 C1691 0.929 . S
H1700 C1708 0.929 . S
H1701 C1710 0.930 . S
H1702 C1712 0.930 . S
H1703 C1715 0.929 . S
H1704 C1718 0.930 . S
H1705 C1720 0.960 . S
H1706 C1720 0.960 . S
H1707 C1720 0.960 . S
C1708 H1700 0.929 . S
C1708 C1709 1.377 . S
C1708 C1710 1.384 . S
C1709 C1708 1.377 . S
C1709 C1715 1.390 . S
C1710 H1701 0.930 . S
C1710 C1708 1.384 . S
C1710 C1711 1.372 . S
C1711 C1710 1.372 . S
C1711 C1712 1.400 . S
C1711 C1716 1.490 . S
C1712 H1702 0.930 . S
C1712 C1711 1.400 . S
C1712 C1715 1.386 . S
H1713 C1729 0.930 . S
H1714 C1730 0.931 . S
C1715 H1703 0.929 . S
C1715 C1709 1.390 . S
C1715 C1712 1.386 . S
C1716 C1711 1.490 . S
C1716 C1718 1.395 . S
C1716 C1719 1.403 . S
H1717 C1723 0.930 . S
C1718 H1704 0.930 . S
C1718 C1716 1.395 . S
C1718 C1721 1.403 . S
C1719 C1716 1.403 . S
C1719 C1720 1.524 . S
C1719 C1723 1.400 . S
C1720 H1705 0.960 . S
C1720 H1706 0.960 . S
C1720 H1707 0.960 . S
C1720 C1719 1.524 . S
C1721 C1718 1.403 . S
C1721 C1722 1.392 . S
C1721 C1725 1.495 . S
C1722 C1721 1.392 . S
C1722 C1723 1.385 . S
C1722 C1724 1.478 . S
C1723 H1717 0.930 . S
C1723 C1719 1.400 . S
C1723 C1722 1.385 . S
C1724 C1722 1.478 . S
C1724 C1726 1.381 . S
C1724 C1730 1.383 . S
C1725 C1721 1.495 . S
C1725 H1731 0.959 . S
C1725 H1732 0.961 . S
C1725 H1733 0.960 . S
C1726 C1724 1.381 . S
C1726 C1727 1.394 . S
C1726 H1734 0.930 . S
C1727 C1726 1.394 . S
C1727 C1728 1.383 . S
C1727 H1735 0.929 . S
C1728 C1727 1.383 . S
C1728 C1729 1.377 . S
C1729 H1713 0.930 . S
C1729 C1728 1.377 . S
C1729 C1730 1.379 . S
C1730 H1714 0.931 . S
C1730 C1724 1.383 . S
C1730 C1729 1.379 . S
H1731 C1725 0.959 . S
H1732 C1725 0.961 . S
H1733 C1725 0.960 . S
H1734 C1726 0.930 . S
H1735 C1727 0.929 . S
H1736 C1744 0.929 . S
H1737 C1746 0.930 . S
H1738 C1748 0.930 . S
H1739 C1751 0.929 . S
H1740 C1754 0.930 . S
H1741 C1756 0.960 . S
H1742 C1756 0.960 . S
H1743 C1756 0.960 . S
C1744 H1736 0.929 . S
C1744 C1745 1.377 . S
C1744 C1746 1.384 . S
C1745 C1744 1.377 . S
C1745 C1751 1.390 . S
C1746 H1737 0.930 . S
C1746 C1744 1.384 . S
C1746 C1747 1.372 . S
C1747 C1746 1.372 . S
C1747 C1748 1.400 . S
C1747 C1752 1.490 . S
C1748 H1738 0.930 . S
C1748 C1747 1.400 . S
C1748 C1751 1.386 . S
H1749 C1765 0.930 . S
H1750 C1766 0.931 . S
C1751 H1739 0.929 . S
C1751 C1745 1.390 . S
C1751 C1748 1.386 . S
C1752 C1747 1.490 . S
C1752 C1754 1.395 . S
C1752 C1755 1.403 . S
H1753 C1759 0.930 . S
C1754 H1740 0.930 . S
C1754 C1752 1.395 . S
C1754 C1757 1.403 . S
C1755 C1752 1.403 . S
C1755 C1756 1.524 . S
C1755 C1759 1.400 . S
C1756 H1741 0.960 . S
C1756 H1742 0.960 . S
C1756 H1743 0.960 . S
C1756 C1755 1.524 . S
C1757 C1754 1.403 . S
C1757 C1758 1.392 . S
C1757 C1761 1.495 . S
C1758 C1757 1.392 . S
C1758 C1759 1.385 . S
C1758 C1760 1.478 . S
C1759 H1753 0.930 . S
C1759 C1755 1.400 . S
C1759 C1758 1.385 . S
C1760 C1758 1.478 . S
C1760 C1762 1.381 . S
C1760 C1766 1.383 . S
C1761 C1757 1.495 . S
C1761 H1767 0.959 . S
C1761 H1768 0.961 . S
C1761 H1769 0.960 . S
C1762 C1760 1.381 . S
C1762 C1763 1.394 . S
C1762 H1770 0.930 . S
C1763 C1762 1.394 . S
C1763 C1764 1.383 . S
C1763 H1771 0.929 . S
C1764 C1763 1.383 . S
C1764 C1765 1.377 . S
C1765 H1749 0.930 . S
C1765 C1764 1.377 . S
C1765 C1766 1.379 . S
C1766 H1750 0.931 . S
C1766 C1760 1.383 . S
C1766 C1765 1.379 . S
H1767 C1761 0.959 . S
H1768 C1761 0.961 . S
H1769 C1761 0.960 . S
H1770 C1762 0.930 . S
H1771 C1763 0.929 . S
H1772 C1780 0.929 . S
H1773 C1782 0.930 . S
H1774 C1784 0.930 . S
H1775 C1787 0.929 . S
H1776 C1790 0.930 . S
H1777 C1792 0.960 . S
H1778 C1792 0.960 . S
H1779 C1792 0.960 . S
C1780 H1772 0.929 . S
C1780 C1781 1.377 . S
C1780 C1782 1.384 . S
C1781 C1780 1.377 . S
C1781 C1787 1.390 . S
C1782 H1773 0.930 . S
C1782 C1780 1.384 . S
C1782 C1783 1.372 . S
C1783 C1782 1.372 . S
C1783 C1784 1.400 . S
C1783 C1788 1.490 . S
C1784 H1774 0.930 . S
C1784 C1783 1.400 . S
C1784 C1787 1.386 . S
H1785 C1801 0.930 . S
H1786 C1802 0.931 . S
C1787 H1775 0.929 . S
C1787 C1781 1.390 . S
C1787 C1784 1.386 . S
C1788 C1783 1.490 . S
C1788 C1790 1.395 . S
C1788 C1791 1.403 . S
H1789 C1795 0.930 . S
C1790 H1776 0.930 . S
C1790 C1788 1.395 . S
C1790 C1793 1.403 . S
C1791 C1788 1.403 . S
C1791 C1792 1.524 . S
C1791 C1795 1.400 . S
C1792 H1777 0.960 . S
C1792 H1778 0.960 . S
C1792 H1779 0.960 . S
C1792 C1791 1.524 . S
C1793 C1790 1.403 . S
C1793 C1794 1.392 . S
C1793 C1797 1.495 . S
C1794 C1793 1.392 . S
C1794 C1795 1.385 . S
C1794 C1796 1.478 . S
C1795 H1789 0.930 . S
C1795 C1791 1.400 . S
C1795 C1794 1.385 . S
C1796 C1794 1.478 . S
C1796 C1798 1.381 . S
C1796 C1802 1.383 . S
C1797 C1793 1.495 . S
C1797 H1803 0.959 . S
C1797 H1804 0.961 . S
C1797 H1805 0.960 . S
C1798 C1796 1.381 . S
C1798 C1799 1.394 . S
C1798 H1806 0.930 . S
C1799 C1798 1.394 . S
C1799 C1800 1.383 . S
C1799 H1807 0.929 . S
C1800 C1799 1.383 . S
C1800 C1801 1.377 . S
C1801 H1785 0.930 . S
C1801 C1800 1.377 . S
C1801 C1802 1.379 . S
C1802 H1786 0.931 . S
C1802 C1796 1.383 . S
C1802 C1801 1.379 . S
H1803 C1797 0.959 . S
H1804 C1797 0.961 . S
H1805 C1797 0.960 . S
H1806 C1798 0.930 . S
H1807 C1799 0.929 . S
H1808 C1816 0.929 . S
H1809 C1818 0.930 . S
H1810 C1820 0.930 . S
H1811 C1823 0.929 . S
H1812 C1826 0.930 . S
H1813 C1828 0.960 . S
H1814 C1828 0.960 . S
H1815 C1828 0.960 . S
C1816 H1808 0.929 . S
C1816 C1817 1.377 . S
C1816 C1818 1.384 . S
C1817 C1816 1.377 . S
C1817 C1823 1.390 . S
C1818 H1809 0.930 . S
C1818 C1816 1.384 . S
C1818 C1819 1.372 . S
C1819 C1818 1.372 . S
C1819 C1820 1.400 . S
C1819 C1824 1.490 . S
C1820 H1810 0.930 . S
C1820 C1819 1.400 . S
C1820 C1823 1.386 . S
H1821 C1837 0.930 . S
H1822 C1838 0.931 . S
C1823 H1811 0.929 . S
C1823 C1817 1.390 . S
C1823 C1820 1.386 . S
C1824 C1819 1.490 . S
C1824 C1826 1.395 . S
C1824 C1827 1.403 . S
H1825 C1831 0.930 . S
C1826 H1812 0.930 . S
C1826 C1824 1.395 . S
C1826 C1829 1.403 . S
C1827 C1824 1.403 . S
C1827 C1828 1.524 . S
C1827 C1831 1.400 . S
C1828 H1813 0.960 . S
C1828 H1814 0.960 . S
C1828 H1815 0.960 . S
C1828 C1827 1.524 . S
C1829 C1826 1.403 . S
C1829 C1830 1.392 . S
C1829 C1833 1.495 . S
C1830 C1829 1.392 . S
C1830 C1831 1.385 . S
C1830 C1832 1.478 . S
C1831 H1825 0.930 . S
C1831 C1827 1.400 . S
C1831 C1830 1.385 . S
C1832 C1830 1.478 . S
C1832 C1834 1.381 . S
C1832 C1838 1.383 . S
C1833 C1829 1.495 . S
C1833 H1839 0.959 . S
C1833 H1840 0.961 . S
C1833 H1841 0.960 . S
C1834 C1832 1.381 . S
C1834 C1835 1.394 . S
C1834 H1842 0.930 . S
C1835 C1834 1.394 . S
C1835 C1836 1.383 . S
C1835 H1843 0.929 . S
C1836 C1835 1.383 . S
C1836 C1837 1.377 . S
C1837 H1821 0.930 . S
C1837 C1836 1.377 . S
C1837 C1838 1.379 . S
C1838 H1822 0.931 . S
C1838 C1832 1.383 . S
C1838 C1837 1.379 . S
H1839 C1833 0.959 . S
H1840 C1833 0.961 . S
H1841 C1833 0.960 . S
H1842 C1834 0.930 . S
H1843 C1835 0.929 . S
H1844 C1852 0.929 . S
H1845 C1854 0.930 . S
H1846 C1856 0.930 . S
H1847 C1859 0.929 . S
H1848 C1862 0.930 . S
H1849 C1864 0.960 . S
H1850 C1864 0.960 . S
H1851 C1864 0.960 . S
C1852 H1844 0.929 . S
C1852 C1853 1.377 . S
C1852 C1854 1.384 . S
C1853 C1852 1.377 . S
C1853 C1859 1.390 . S
C1854 H1845 0.930 . S
C1854 C1852 1.384 . S
C1854 C1855 1.372 . S
C1855 C1854 1.372 . S
C1855 C1856 1.400 . S
C1855 C1860 1.490 . S
C1856 H1846 0.930 . S
C1856 C1855 1.400 . S
C1856 C1859 1.386 . S
H1857 C1873 0.930 . S
H1858 C1874 0.931 . S
C1859 H1847 0.929 . S
C1859 C1853 1.390 . S
C1859 C1856 1.386 . S
C1860 C1855 1.490 . S
C1860 C1862 1.395 . S
C1860 C1863 1.403 . S
H1861 C1867 0.930 . S
C1862 H1848 0.930 . S
C1862 C1860 1.395 . S
C1862 C1865 1.403 . S
C1863 C1860 1.403 . S
C1863 C1864 1.524 . S
C1863 C1867 1.400 . S
C1864 H1849 0.960 . S
C1864 H1850 0.960 . S
C1864 H1851 0.960 . S
C1864 C1863 1.524 . S
C1865 C1862 1.403 . S
C1865 C1866 1.392 . S
C1865 C1869 1.495 . S
C1866 C1865 1.392 . S
C1866 C1867 1.385 . S
C1866 C1868 1.478 . S
C1867 H1861 0.930 . S
C1867 C1863 1.400 . S
C1867 C1866 1.385 . S
C1868 C1866 1.478 . S
C1868 C1870 1.381 . S
C1868 C1874 1.383 . S
C1869 C1865 1.495 . S
C1869 H1875 0.959 . S
C1869 H1876 0.961 . S
C1869 H1877 0.960 . S
C1870 C1868 1.381 . S
C1870 C1871 1.394 . S
C1870 H1878 0.930 . S
C1871 C1870 1.394 . S
C1871 C1872 1.383 . S
C1871 H1879 0.929 . S
C1872 C1871 1.383 . S
C1872 C1873 1.377 . S
C1873 H1857 0.930 . S
C1873 C1872 1.377 . S
C1873 C1874 1.379 . S
C1874 H1858 0.931 . S
C1874 C1868 1.383 . S
C1874 C1873 1.379 . S
H1875 C1869 0.959 . S
H1876 C1869 0.961 . S
H1877 C1869 0.960 . S
H1878 C1870 0.930 . S
H1879 C1871 0.929 . S
H1880 C1888 0.929 . S
H1881 C1890 0.930 . S
H1882 C1892 0.930 . S
H1883 C1895 0.929 . S
H1884 C1898 0.930 . S
H1885 C1900 0.960 . S
H1886 C1900 0.960 . S
H1887 C1900 0.960 . S
C1888 H1880 0.929 . S
C1888 C1889 1.377 . S
C1888 C1890 1.384 . S
C1889 C1888 1.377 . S
C1889 C1895 1.390 . S
C1890 H1881 0.930 . S
C1890 C1888 1.384 . S
C1890 C1891 1.372 . S
C1891 C1890 1.372 . S
C1891 C1892 1.400 . S
C1891 C1896 1.490 . S
C1892 H1882 0.930 . S
C1892 C1891 1.400 . S
C1892 C1895 1.386 . S
H1893 C1909 0.930 . S
H1894 C1910 0.931 . S
C1895 H1883 0.929 . S
C1895 C1889 1.390 . S
C1895 C1892 1.386 . S
C1896 C1891 1.490 . S
C1896 C1898 1.395 . S
C1896 C1899 1.403 . S
H1897 C1903 0.930 . S
C1898 H1884 0.930 . S
C1898 C1896 1.395 . S
C1898 C1901 1.403 . S
C1899 C1896 1.403 . S
C1899 C1900 1.524 . S
C1899 C1903 1.400 . S
C1900 H1885 0.960 . S
C1900 H1886 0.960 . S
C1900 H1887 0.960 . S
C1900 C1899 1.524 . S
C1901 C1898 1.403 . S
C1901 C1902 1.392 . S
C1901 C1905 1.495 . S
C1902 C1901 1.392 . S
C1902 C1903 1.385 . S
C1902 C1904 1.478 . S
C1903 H1897 0.930 . S
C1903 C1899 1.400 . S
C1903 C1902 1.385 . S
C1904 C1902 1.478 . S
C1904 C1906 1.381 . S
C1904 C1910 1.383 . S
C1905 C1901 1.495 . S
C1905 H1911 0.959 . S
C1905 H1912 0.961 . S
C1905 H1913 0.960 . S
C1906 C1904 1.381 . S
C1906 C1907 1.394 . S
C1906 H1914 0.930 . S
C1907 C1906 1.394 . S
C1907 C1908 1.383 . S
C1907 H1915 0.929 . S
C1908 C1907 1.383 . S
C1908 C1909 1.377 . S
C1909 H1893 0.930 . S
C1909 C1908 1.377 . S
C1909 C1910 1.379 . S
C1910 H1894 0.931 . S
C1910 C1904 1.383 . S
C1910 C1909 1.379 . S
H1911 C1905 0.959 . S
H1912 C1905 0.961 . S
H1913 C1905 0.960 . S
H1914 C1906 0.930 . S
H1915 C1907 0.929 . S
H1916 C1924 0.929 . S
H1917 C1926 0.930 . S
H1918 C1928 0.930 . S
H1919 C1931 0.929 . S
H1920 C1934 0.930 . S
H1921 C1936 0.960 . S
H1922 C1936 0.960 . S
H1923 C1936 0.960 . S
C1924 H1916 0.929 . S
C1924 C1925 1.377 . S
C1924 C1926 1.384 . S
C1925 C1924 1.377 . S
C1925 C1931 1.390 . S
C1926 H1917 0.930 . S
C1926 C1924 1.384 . S
C1926 C1927 1.372 . S
C1927 C1926 1.372 . S
C1927 C1928 1.400 . S
C1927 C1932 1.490 . S
C1928 H1918 0.930 . S
C1928 C1927 1.400 . S
C1928 C1931 1.386 . S
H1929 C1945 0.930 . S
H1930 C1946 0.931 . S
C1931 H1919 0.929 . S
C1931 C1925 1.390 . S
C1931 C1928 1.386 . S
C1932 C1927 1.490 . S
C1932 C1934 1.395 . S
C1932 C1935 1.403 . S
H1933 C1939 0.930 . S
C1934 H1920 0.930 . S
C1934 C1932 1.395 . S
C1934 C1937 1.403 . S
C1935 C1932 1.403 . S
C1935 C1936 1.524 . S
C1935 C1939 1.400 . S
C1936 H1921 0.960 . S
C1936 H1922 0.960 . S
C1936 H1923 0.960 . S
C1936 C1935 1.524 . S
C1937 C1934 1.403 . S
C1937 C1938 1.392 . S
C1937 C1941 1.495 . S
C1938 C1937 1.392 . S
C1938 C1939 1.385 . S
C1938 C1940 1.478 . S
C1939 H1933 0.930 . S
C1939 C1935 1.400 . S
C1939 C1938 1.385 . S
C1940 C1938 1.478 . S
C1940 C1942 1.381 . S
C1940 C1946 1.383 . S
C1941 C1937 1.495 . S
C1941 H1947 0.959 . S
C1941 H1948 0.961 . S
C1941 H1949 0.960 . S
C1942 C1940 1.381 . S
C1942 C1943 1.394 . S
C1942 H1950 0.930 . S
C1943 C1942 1.394 . S
C1943 C1944 1.383 . S
C1943 H1951 0.929 . S
C1944 C1943 1.383 . S
C1944 C1945 1.377 . S
C1945 H1929 0.930 . S
C1945 C1944 1.377 . S
C1945 C1946 1.379 . S
C1946 H1930 0.931 . S
C1946 C1940 1.383 . S
C1946 C1945 1.379 . S
H1947 C1941 0.959 . S
H1948 C1941 0.961 . S
H1949 C1941 0.960 . S
H1950 C1942 0.930 . S
H1951 C1943 0.929 . S
H1952 C1960 0.929 . S
H1953 C1962 0.930 . S
H1954 C1964 0.930 . S
H1955 C1967 0.929 . S
H1956 C1970 0.930 . S
H1957 C1972 0.960 . S
H1958 C1972 0.960 . S
H1959 C1972 0.960 . S
C1960 H1952 0.929 . S
C1960 C1961 1.377 . S
C1960 C1962 1.384 . S
C1961 C1960 1.377 . S
C1961 C1967 1.390 . S
C1962 H1953 0.930 . S
C1962 C1960 1.384 . S
C1962 C1963 1.372 . S
C1963 C1962 1.372 . S
C1963 C1964 1.400 . S
C1963 C1968 1.490 . S
C1964 H1954 0.930 . S
C1964 C1963 1.400 . S
C1964 C1967 1.386 . S
H1965 C1981 0.930 . S
H1966 C1982 0.931 . S
C1967 H1955 0.929 . S
C1967 C1961 1.390 . S
C1967 C1964 1.386 . S
C1968 C1963 1.490 . S
C1968 C1970 1.395 . S
C1968 C1971 1.403 . S
H1969 C1975 0.930 . S
C1970 H1956 0.930 . S
C1970 C1968 1.395 . S
C1970 C1973 1.403 . S
C1971 C1968 1.403 . S
C1971 C1972 1.524 . S
C1971 C1975 1.400 . S
C1972 H1957 0.960 . S
C1972 H1958 0.960 . S
C1972 H1959 0.960 . S
C1972 C1971 1.524 . S
C1973 C1970 1.403 . S
C1973 C1974 1.392 . S
C1973 C1977 1.495 . S
C1974 C1973 1.392 . S
C1974 C1975 1.385 . S
C1974 C1976 1.478 . S
C1975 H1969 0.930 . S
C1975 C1971 1.400 . S
C1975 C1974 1.385 . S
C1976 C1974 1.478 . S
C1976 C1978 1.381 . S
C1976 C1982 1.383 . S
C1977 C1973 1.495 . S
C1977 H1983 0.959 . S
C1977 H1984 0.961 . S
C1977 H1985 0.960 . S
C1978 C1976 1.381 . S
C1978 C1979 1.394 . S
C1978 H1986 0.930 . S
C1979 C1978 1.394 . S
C1979 C1980 1.383 . S
C1979 H1987 0.929 . S
C1980 C1979 1.383 . S
C1980 C1981 1.377 . S
C1981 H1965 0.930 . S
C1981 C1980 1.377 . S
C1981 C1982 1.379 . S
C1982 H1966 0.931 . S
C1982 C1976 1.383 . S
C1982 C1981 1.379 . S
H1983 C1977 0.959 . S
H1984 C1977 0.961 . S
H1985 C1977 0.960 . S
H1986 C1978 0.930 . S
H1987 C1979 0.929 . S
H1988 C1996 0.929 . S
H1989 C1998 0.930 . S
H1990 C2000 0.930 . S
H1991 C2003 0.929 . S
H1992 C2006 0.930 . S
H1993 C2008 0.960 . S
H1994 C2008 0.960 . S
H1995 C2008 0.960 . S
C1996 H1988 0.929 . S
C1996 C1997 1.377 . S
C1996 C1998 1.384 . S
C1997 C1996 1.377 . S
C1997 C2003 1.390 . S
C1998 H1989 0.930 . S
C1998 C1996 1.384 . S
C1998 C1999 1.372 . S
C1999 C1998 1.372 . S
C1999 C2000 1.400 . S
C1999 C2004 1.490 . S
C2000 H1990 0.930 . S
C2000 C1999 1.400 . S
C2000 C2003 1.386 . S
H2001 C2017 0.930 . S
H2002 C2018 0.931 . S
C2003 H1991 0.929 . S
C2003 C1997 1.390 . S
C2003 C2000 1.386 . S
C2004 C1999 1.490 . S
C2004 C2006 1.395 . S
C2004 C2007 1.403 . S
H2005 C2011 0.930 . S
C2006 H1992 0.930 . S
C2006 C2004 1.395 . S
C2006 C2009 1.403 . S
C2007 C2004 1.403 . S
C2007 C2008 1.524 . S
C2007 C2011 1.400 . S
C2008 H1993 0.960 . S
C2008 H1994 0.960 . S
C2008 H1995 0.960 . S
C2008 C2007 1.524 . S
C2009 C2006 1.403 . S
C2009 C2010 1.392 . S
C2009 C2013 1.495 . S
C2010 C2009 1.392 . S
C2010 C2011 1.385 . S
C2010 C2012 1.478 . S
C2011 H2005 0.930 . S
C2011 C2007 1.400 . S
C2011 C2010 1.385 . S
C2012 C2010 1.478 . S
C2012 C2014 1.381 . S
C2012 C2018 1.383 . S
C2013 C2009 1.495 . S
C2013 H2019 0.959 . S
C2013 H2020 0.961 . S
C2013 H2021 0.960 . S
C2014 C2012 1.381 . S
C2014 C2015 1.394 . S
C2014 H2022 0.930 . S
C2015 C2014 1.394 . S
C2015 C2016 1.383 . S
C2015 H2023 0.929 . S
C2016 C2015 1.383 . S
C2016 C2017 1.377 . S
C2017 H2001 0.930 . S
C2017 C2016 1.377 . S
C2017 C2018 1.379 . S
C2018 H2002 0.931 . S
C2018 C2012 1.383 . S
C2018 C2017 1.379 . S
H2019 C2013 0.959 . S
H2020 C2013 0.961 . S
H2021 C2013 0.960 . S
H2022 C2014 0.930 . S
H2023 C2015 0.929 . S
H2024 C2032 0.929 . S
H2025 C2034 0.930 . S
H2026 C2036 0.930 . S
H2027 C2039 0.929 . S
H2028 C2042 0.930 . S
H2029 C2044 0.960 . S
H2030 C2044 0.960 . S
H2031 C2044 0.960 . S
C2032 H2024 0.929 . S
C2032 C2033 1.377 . S
C2032 C2034 1.384 . S
C2033 C2032 1.377 . S
C2033 C2039 1.390 . S
C2034 H2025 0.930 . S
C2034 C2032 1.384 . S
C2034 C2035 1.372 . S
C2035 C2034 1.372 . S
C2035 C2036 1.400 . S
C2035 C2040 1.490 . S
C2036 H2026 0.930 . S
C2036 C2035 1.400 . S
C2036 C2039 1.386 . S
H2037 C2053 0.930 . S
H2038 C2054 0.931 . S
C2039 H2027 0.929 . S
C2039 C2033 1.390 . S
C2039 C2036 1.386 . S
C2040 C2035 1.490 . S
C2040 C2042 1.395 . S
C2040 C2043 1.403 . S
H2041 C2047 0.930 . S
C2042 H2028 0.930 . S
C2042 C2040 1.395 . S
C2042 C2045 1.403 . S
C2043 C2040 1.403 . S
C2043 C2044 1.524 . S
C2043 C2047 1.400 . S
C2044 H2029 0.960 . S
C2044 H2030 0.960 . S
C2044 H2031 0.960 . S
C2044 C2043 1.524 . S
C2045 C2042 1.403 . S
C2045 C2046 1.392 . S
C2045 C2049 1.495 . S
C2046 C2045 1.392 . S
C2046 C2047 1.385 . S
C2046 C2048 1.478 . S
C2047 H2041 0.930 . S
C2047 C2043 1.400 . S
C2047 C2046 1.385 . S
C2048 C2046 1.478 . S
C2048 C2050 1.381 . S
C2048 C2054 1.383 . S
C2049 C2045 1.495 . S
C2049 H2055 0.959 . S
C2049 H2056 0.961 . S
C2049 H2057 0.960 . S
C2050 C2048 1.381 . S
C2050 C2051 1.394 . S
C2050 H2058 0.930 . S
C2051 C2050 1.394 . S
C2051 C2052 1.383 . S
C2051 H2059 0.929 . S
C2052 C2051 1.383 . S
C2052 C2053 1.377 . S
C2053 H2037 0.930 . S
C2053 C2052 1.377 . S
C2053 C2054 1.379 . S
C2054 H2038 0.931 . S
C2054 C2048 1.383 . S
C2054 C2053 1.379 . S
H2055 C2049 0.959 . S
H2056 C2049 0.961 . S
H2057 C2049 0.960 . S
H2058 C2050 0.930 . S
H2059 C2051 0.929 . S
H2060 C2068 0.929 . S
H2061 C2070 0.930 . S
H2062 C2072 0.930 . S
H2063 C2075 0.929 . S
H2064 C2078 0.930 . S
H2065 C2080 0.960 . S
H2066 C2080 0.960 . S
H2067 C2080 0.960 . S
C2068 H2060 0.929 . S
C2068 C2069 1.377 . S
C2068 C2070 1.384 . S
C2069 C2068 1.377 . S
C2069 C2075 1.390 . S
C2070 H2061 0.930 . S
C2070 C2068 1.384 . S
C2070 C2071 1.372 . S
C2071 C2070 1.372 . S
C2071 C2072 1.400 . S
C2071 C2076 1.490 . S
C2072 H2062 0.930 . S
C2072 C2071 1.400 . S
C2072 C2075 1.386 . S
H2073 C2089 0.930 . S
H2074 C2090 0.931 . S
C2075 H2063 0.929 . S
C2075 C2069 1.390 . S
C2075 C2072 1.386 . S
C2076 C2071 1.490 . S
C2076 C2078 1.395 . S
C2076 C2079 1.403 . S
H2077 C2083 0.930 . S
C2078 H2064 0.930 . S
C2078 C2076 1.395 . S
C2078 C2081 1.403 . S
C2079 C2076 1.403 . S
C2079 C2080 1.524 . S
C2079 C2083 1.400 . S
C2080 H2065 0.960 . S
C2080 H2066 0.960 . S
C2080 H2067 0.960 . S
C2080 C2079 1.524 . S
C2081 C2078 1.403 . S
C2081 C2082 1.392 . S
C2081 C2085 1.495 . S
C2082 C2081 1.392 . S
C2082 C2083 1.385 . S
C2082 C2084 1.478 . S
C2083 H2077 0.930 . S
C2083 C2079 1.400 . S
C2083 C2082 1.385 . S
C2084 C2082 1.478 . S
C2084 C2086 1.381 . S
C2084 C2090 1.383 . S
C2085 C2081 1.495 . S
C2085 H2091 0.959 . S
C2085 H2092 0.961 . S
C2085 H2093 0.960 . S
C2086 C2084 1.381 . S
C2086 C2087 1.394 . S
C2086 H2094 0.930 . S
C2087 C2086 1.394 . S
C2087 C2088 1.383 . S
C2087 H2095 0.929 . S
C2088 C2087 1.383 . S
C2088 C2089 1.377 . S
C2089 H2073 0.930 . S
C2089 C2088 1.377 . S
C2089 C2090 1.379 . S
C2090 H2074 0.931 . S
C2090 C2084 1.383 . S
C2090 C2089 1.379 . S
H2091 C2085 0.959 . S
H2092 C2085 0.961 . S
H2093 C2085 0.960 . S
H2094 C2086 0.930 . S
H2095 C2087 0.929 . S
C953 C5 1.295 . S
C972 C241 1.300 . S
C989 C300 1.293 . S
C1008 C64 1.291 . S
C1025 C123 1.502 . S
C1044 C359 1.490 . S
C1061 C182 1.505 . S
C1080 C418 1.496 . S
C1097 C477 1.290 . S
C1116 C713 1.302 . S
C1133 C772 1.293 . S
C1152 C536 1.275 . S
C1169 C595 1.506 . S
C1188 C831 1.511 . S
C1205 C654 1.508 . S
C1224 C890 1.488 . S
C1241 C3 1.521 . S
C1260 C937 1.550 . S
C1277 C760 1.520 . S
C1296 C62 1.463 . S
C1313 C121 1.604 . S
C1332 C819 1.639 . S
C1349 C878 1.697 . S
C1368 C180 1.640 . S
C1385 C583 1.519 . S
C1404 C239 1.492 . S
C1421 C642 1.555 . S
C1440 C298 1.500 . S
C1457 C701 1.696 . S
C1476 C357 1.641 . S
C1493 C524 1.642 . S
C1512 C416 1.609 . S
C1529 C475 1.522 . S
C1548 C465 1.544 . S
C1565 C288 1.519 . S
C1584 C534 1.462 . S
C1601 C347 1.643 . S
C1620 C593 1.616 . S
C1637 C652 1.662 . S
C1656 C406 1.691 . S
C1673 C111 1.520 . S
C1692 C711 1.500 . S
C1709 C770 1.527 . S
C1728 C170 1.543 . S
C1745 C829 1.657 . S
C1764 C229 1.688 . S
C1781 C888 1.612 . S
C1800 C52 1.638 . S
C1817 C446 0.817 . S
C1836 C33 0.860 . S
C1853 C92 0.918 . S
C1872 C269 0.883 . S
C1889 C151 0.830 . S
C1908 C328 0.818 . S
C1925 C210 0.740 . S
C1944 C387 0.728 . S
C1961 C918 0.818 . S
C1980 C505 0.795 . S
C1997 C741 0.915 . S
C2016 C564 0.893 . S
C2033 C800 0.836 . S
C2052 C623 0.840 . S
C2069 C859 0.737 . S
C2088 C682 0.697 . S
