# Generated by pormake.
# Topology uke, (4)-cn, num edge types: 1
# Building blocks:
#     Node 0, Type 0, BuildingBlock: GALJAG_clean_sbu_0, # of connection points: 4
#     Node 1, Type 0, BuildingBlock: GALJAG_clean_sbu_0, # of connection points: 4
#     Node 2, Type 0, BuildingBlock: GALJAG_clean_sbu_0, # of connection points: 4
#     Node 3, Type 0, BuildingBlock: GALJAG_clean_sbu_0, # of connection points: 4
#     Node 4, Type 0, BuildingBlock: GALJAG_clean_sbu_0, # of connection points: 4
#     Node 5, Type 0, BuildingBlock: GALJAG_clean_sbu_0, # of connection points: 4
#     Node 6, Type 0, BuildingBlock: GALJAG_clean_sbu_0, # of connection points: 4
#     Node 7, Type 0, BuildingBlock: GALJAG_clean_sbu_0, # of connection points: 4
#     Node 8, Type 0, BuildingBlock: GALJAG_clean_sbu_0, # of connection points: 4
#     Node 9, Type 0, BuildingBlock: GALJAG_clean_sbu_0, # of connection points: 4
#     Node 10, Type 0, BuildingBlock: GALJAG_clean_sbu_0, # of connection points: 4
#     Node 11, Type 0, BuildingBlock: GALJAG_clean_sbu_0, # of connection points: 4
#     Node 12, Type 0, BuildingBlock: GALJAG_clean_sbu_0, # of connection points: 4
#     Node 13, Type 0, BuildingBlock: GALJAG_clean_sbu_0, # of connection points: 4
#     Node 14, Type 0, BuildingBlock: GALJAG_clean_sbu_0, # of connection points: 4
#     Node 15, Type 0, BuildingBlock: GALJAG_clean_sbu_0, # of connection points: 4
#     Node 16, Type 0, BuildingBlock: GALJAG_clean_sbu_0, # of connection points: 4
#     Node 17, Type 0, BuildingBlock: GALJAG_clean_sbu_0, # of connection points: 4
#     Node 18, Type 0, BuildingBlock: GALJAG_clean_sbu_0, # of connection points: 4
#     Node 19, Type 0, BuildingBlock: GALJAG_clean_sbu_0, # of connection points: 4
#     Node 20, Type 0, BuildingBlock: GALJAG_clean_sbu_0, # of connection points: 4
#     Node 21, Type 0, BuildingBlock: GALJAG_clean_sbu_0, # of connection points: 4
#     Node 22, Type 0, BuildingBlock: GALJAG_clean_sbu_0, # of connection points: 4
#     Node 23, Type 0, BuildingBlock: GALJAG_clean_sbu_0, # of connection points: 4
#     Node 24, Type 0, BuildingBlock: GALJAG_clean_sbu_0, # of connection points: 4
#     Node 25, Type 0, BuildingBlock: GALJAG_clean_sbu_0, # of connection points: 4
#     Node 26, Type 0, BuildingBlock: GALJAG_clean_sbu_0, # of connection points: 4
#     Node 27, Type 0, BuildingBlock: GALJAG_clean_sbu_0, # of connection points: 4
#     Node 28, Type 0, BuildingBlock: GALJAG_clean_sbu_0, # of connection points: 4
#     Node 29, Type 0, BuildingBlock: GALJAG_clean_sbu_0, # of connection points: 4
#     Node 30, Type 0, BuildingBlock: GALJAG_clean_sbu_0, # of connection points: 4
#     Node 31, Type 0, BuildingBlock: GALJAG_clean_sbu_0, # of connection points: 4
#     Edge 32, Type (0, 0), BuildingBlock: AJUNOK_clean_linker_0, # of connection points: 2
#     Edge 33, Type (0, 0), BuildingBlock: AJUNOK_clean_linker_0, # of connection points: 2
#     Edge 34, Type (0, 0), BuildingBlock: AJUNOK_clean_linker_0, # of connection points: 2
#     Edge 35, Type (0, 0), BuildingBlock: AJUNOK_clean_linker_0, # of connection points: 2
#     Edge 36, Type (0, 0), BuildingBlock: AJUNOK_clean_linker_0, # of connection points: 2
#     Edge 37, Type (0, 0), BuildingBlock: AJUNOK_clean_linker_0, # of connection points: 2
#     Edge 38, Type (0, 0), BuildingBlock: AJUNOK_clean_linker_0, # of connection points: 2
#     Edge 39, Type (0, 0), BuildingBlock: AJUNOK_clean_linker_0, # of connection points: 2
#     Edge 40, Type (0, 0), BuildingBlock: AJUNOK_clean_linker_0, # of connection points: 2
#     Edge 41, Type (0, 0), BuildingBlock: AJUNOK_clean_linker_0, # of connection points: 2
#     Edge 42, Type (0, 0), BuildingBlock: AJUNOK_clean_linker_0, # of connection points: 2
#     Edge 43, Type (0, 0), BuildingBlock: AJUNOK_clean_linker_0, # of connection points: 2
#     Edge 44, Type (0, 0), BuildingBlock: AJUNOK_clean_linker_0, # of connection points: 2
#     Edge 45, Type (0, 0), BuildingBlock: AJUNOK_clean_linker_0, # of connection points: 2
#     Edge 46, Type (0, 0), BuildingBlock: AJUNOK_clean_linker_0, # of connection points: 2
#     Edge 47, Type (0, 0), BuildingBlock: AJUNOK_clean_linker_0, # of connection points: 2
#     Edge 48, Type (0, 0), BuildingBlock: AJUNOK_clean_linker_0, # of connection points: 2
#     Edge 49, Type (0, 0), BuildingBlock: AJUNOK_clean_linker_0, # of connection points: 2
#     Edge 50, Type (0, 0), BuildingBlock: AJUNOK_clean_linker_0, # of connection points: 2
#     Edge 51, Type (0, 0), BuildingBlock: AJUNOK_clean_linker_0, # of connection points: 2
#     Edge 52, Type (0, 0), BuildingBlock: AJUNOK_clean_linker_0, # of connection points: 2
#     Edge 53, Type (0, 0), BuildingBlock: AJUNOK_clean_linker_0, # of connection points: 2
#     Edge 54, Type (0, 0), BuildingBlock: AJUNOK_clean_linker_0, # of connection points: 2
#     Edge 55, Type (0, 0), BuildingBlock: AJUNOK_clean_linker_0, # of connection points: 2
#     Edge 56, Type (0, 0), BuildingBlock: AJUNOK_clean_linker_0, # of connection points: 2
#     Edge 57, Type (0, 0), BuildingBlock: AJUNOK_clean_linker_0, # of connection points: 2
#     Edge 58, Type (0, 0), BuildingBlock: AJUNOK_clean_linker_0, # of connection points: 2
#     Edge 59, Type (0, 0), BuildingBlock: AJUNOK_clean_linker_0, # of connection points: 2
#     Edge 60, Type (0, 0), BuildingBlock: AJUNOK_clean_linker_0, # of connection points: 2
#     Edge 61, Type (0, 0), BuildingBlock: AJUNOK_clean_linker_0, # of connection points: 2
#     Edge 62, Type (0, 0), BuildingBlock: AJUNOK_clean_linker_0, # of connection points: 2
#     Edge 63, Type (0, 0), BuildingBlock: AJUNOK_clean_linker_0, # of connection points: 2
#     Edge 64, Type (0, 0), BuildingBlock: AJUNOK_clean_linker_0, # of connection points: 2
#     Edge 65, Type (0, 0), BuildingBlock: AJUNOK_clean_linker_0, # of connection points: 2
#     Edge 66, Type (0, 0), BuildingBlock: AJUNOK_clean_linker_0, # of connection points: 2
#     Edge 67, Type (0, 0), BuildingBlock: AJUNOK_clean_linker_0, # of connection points: 2
#     Edge 68, Type (0, 0), BuildingBlock: AJUNOK_clean_linker_0, # of connection points: 2
#     Edge 69, Type (0, 0), BuildingBlock: AJUNOK_clean_linker_0, # of connection points: 2
#     Edge 70, Type (0, 0), BuildingBlock: AJUNOK_clean_linker_0, # of connection points: 2
#     Edge 71, Type (0, 0), BuildingBlock: AJUNOK_clean_linker_0, # of connection points: 2
#     Edge 72, Type (0, 0), BuildingBlock: AJUNOK_clean_linker_0, # of connection points: 2
#     Edge 73, Type (0, 0), BuildingBlock: AJUNOK_clean_linker_0, # of connection points: 2
#     Edge 74, Type (0, 0), BuildingBlock: AJUNOK_clean_linker_0, # of connection points: 2
#     Edge 75, Type (0, 0), BuildingBlock: AJUNOK_clean_linker_0, # of connection points: 2
#     Edge 76, Type (0, 0), BuildingBlock: AJUNOK_clean_linker_0, # of connection points: 2
#     Edge 77, Type (0, 0), BuildingBlock: AJUNOK_clean_linker_0, # of connection points: 2
#     Edge 78, Type (0, 0), BuildingBlock: AJUNOK_clean_linker_0, # of connection points: 2
#     Edge 79, Type (0, 0), BuildingBlock: AJUNOK_clean_linker_0, # of connection points: 2
#     Edge 80, Type (0, 0), BuildingBlock: AJUNOK_clean_linker_0, # of connection points: 2
#     Edge 81, Type (0, 0), BuildingBlock: AJUNOK_clean_linker_0, # of connection points: 2
#     Edge 82, Type (0, 0), BuildingBlock: AJUNOK_clean_linker_0, # of connection points: 2
#     Edge 83, Type (0, 0), BuildingBlock: AJUNOK_clean_linker_0, # of connection points: 2
#     Edge 84, Type (0, 0), BuildingBlock: AJUNOK_clean_linker_0, # of connection points: 2
#     Edge 85, Type (0, 0), BuildingBlock: AJUNOK_clean_linker_0, # of connection points: 2
#     Edge 86, Type (0, 0), BuildingBlock: AJUNOK_clean_linker_0, # of connection points: 2
#     Edge 87, Type (0, 0), BuildingBlock: AJUNOK_clean_linker_0, # of connection points: 2
#     Edge 88, Type (0, 0), BuildingBlock: AJUNOK_clean_linker_0, # of connection points: 2
#     Edge 89, Type (0, 0), BuildingBlock: AJUNOK_clean_linker_0, # of connection points: 2
#     Edge 90, Type (0, 0), BuildingBlock: AJUNOK_clean_linker_0, # of connection points: 2
#     Edge 91, Type (0, 0), BuildingBlock: AJUNOK_clean_linker_0, # of connection points: 2
#     Edge 92, Type (0, 0), BuildingBlock: AJUNOK_clean_linker_0, # of connection points: 2
#     Edge 93, Type (0, 0), BuildingBlock: AJUNOK_clean_linker_0, # of connection points: 2
#     Edge 94, Type (0, 0), BuildingBlock: AJUNOK_clean_linker_0, # of connection points: 2
#     Edge 95, Type (0, 0), BuildingBlock: AJUNOK_clean_linker_0, # of connection points: 2
# Relax obj value: 0.063
# Max RMSD: 0.130
# Mean RMSD: 0.130
data_MOF--net-uke--node1-GALJAG_clean_sbu_0--edge1-AJUNOK_clean_linker_0
_symmetry_space_group_name_H-M    P1
_symmetry_Int_Tables_number       1
_symmetry_cell_setting            triclinic
loop_
_symmetry_equiv_pos_as_xyz
'x, y, z'
_cell_length_a     15.778152
_cell_length_b     83.275032
_cell_length_c     39.148732
_cell_angle_alpha  90.074097
_cell_angle_beta   89.986786
_cell_angle_gamma 90.018837
loop_
_atom_site_label
_atom_site_type_symbol
_atom_site_fract_x
_atom_site_fract_y
_atom_site_fract_z
_atom_type_partial_charge
In0 In 0.08656 0.05797 0.25804 0.0
O1 O 0.95384 0.05218 0.27686 0.0
O2 O 0.05617 0.05273 0.31283 0.0
C3 C 0.10294 0.06226 0.19091 0.0
C4 C 0.09983 0.08894 0.27482 0.0
C5 C 0.16725 0.02987 0.25579 0.0
O6 O 0.03181 0.05874 0.20423 0.0
O7 O 0.16341 0.06398 0.21173 0.0
O8 O 0.20143 0.04227 0.26885 0.0
O9 O 0.09218 0.03176 0.24522 0.0
C10 C 0.97758 0.05084 0.30774 0.0
O11 O 0.16099 0.07924 0.27937 0.0
O12 O 0.03373 0.08288 0.26194 0.0
In13 In 0.15264 0.189 0.26004 0.0
O14 O 0.28241 0.19424 0.28261 0.0
O15 O 0.17431 0.19399 0.3157 0.0
C16 C 0.1487 0.18501 0.19245 0.0
C17 C 0.13138 0.15802 0.27544 0.0
C18 C 0.07515 0.2174 0.25642 0.0
O19 O 0.21745 0.18812 0.20804 0.0
O20 O 0.084 0.18366 0.21125 0.0
O21 O 0.03762 0.20503 0.26797 0.0
O22 O 0.1517 0.21532 0.24795 0.0
C23 C 0.25365 0.19567 0.31278 0.0
O24 O 0.07167 0.16813 0.27901 0.0
O25 O 0.20042 0.16374 0.26449 0.0
In26 In 0.09655 0.18958 0.97766 0.0
O27 O 0.17139 0.1682 0.95689 0.0
O28 O 0.04276 0.16476 0.97275 0.0
C29 C 0.17754 0.21768 0.9801 0.0
C30 C 0.98905 0.19717 0.92771 0.0
C31 C 0.11029 0.18526 0.04495 0.0
O32 O 0.21148 0.20532 0.96677 0.0
O33 O 0.10285 0.21573 0.99105 0.0
O34 O 0.0399 0.18888 0.03116 0.0
O35 O 0.17151 0.18347 0.0245 0.0
C36 C 0.10942 0.1586 0.9606 0.0
O37 O 0.96426 0.19543 0.95837 0.0
O38 O 0.06774 0.19532 0.92292 0.0
In39 In 0.15412 0.05839 0.97632 0.0
O40 O 0.28472 0.05287 0.95505 0.0
O41 O 0.17849 0.05302 0.92098 0.0
C42 C 0.14745 0.06262 0.04375 0.0
C43 C 0.13621 0.08941 0.9604 0.0
C44 C 0.07605 0.03003 0.98036 0.0
O45 O 0.21661 0.05929 0.02867 0.0
O46 O 0.08365 0.0641 0.02451 0.0
O47 O 0.03911 0.0423 0.96806 0.0
O48 O 0.1522 0.03219 0.98931 0.0
C49 C 0.2576 0.05127 0.92468 0.0
O50 O 0.07589 0.07946 0.95637 0.0
O51 O 0.20411 0.08351 0.97203 0.0
In52 In 0.90232 0.93918 0.7299 0.0
O53 O 0.82246 0.91799 0.71121 0.0
O54 O 0.95292 0.91422 0.72417 0.0
C55 C 0.83128 0.96814 0.73514 0.0
C56 C 0.00217 0.94609 0.67716 0.0
C57 C 0.89805 0.93456 0.79714 0.0
O58 O 0.79061 0.95624 0.72291 0.0
O59 O 0.90704 0.96525 0.74361 0.0
O60 O 0.96694 0.93767 0.78164 0.0
O61 O 0.83306 0.93354 0.77836 0.0
C62 C 0.8841 0.90821 0.71371 0.0
O63 O 0.03126 0.94454 0.70724 0.0
O64 O 0.92277 0.94436 0.67425 0.0
In65 In 0.83536 0.80783 0.72949 0.0
O66 O 0.70532 0.80215 0.70762 0.0
O67 O 0.81221 0.80274 0.67395 0.0
C68 C 0.83947 0.81177 0.7971 0.0
C69 C 0.85309 0.83898 0.71422 0.0
C70 C 0.91737 0.77981 0.73293 0.0
O71 O 0.77124 0.80813 0.78167 0.0
O72 O 0.90346 0.81367 0.77812 0.0
O73 O 0.95288 0.79239 0.72142 0.0
O74 O 0.84056 0.78147 0.74142 0.0
C75 C 0.73315 0.8008 0.6773 0.0
O76 O 0.91323 0.82903 0.70993 0.0
O77 O 0.78524 0.83303 0.7258 0.0
In78 In 0.90154 0.80788 0.01134 0.0
O79 O 0.03312 0.80252 0.03124 0.0
O80 O 0.92934 0.8033 0.06668 0.0
C81 C 0.88279 0.81188 0.94435 0.0
C82 C 0.88852 0.83892 0.02718 0.0
C83 C 0.83211 0.77876 0.00847 0.0
O84 O 0.9551 0.80921 0.95755 0.0
O85 O 0.82194 0.81295 0.96525 0.0
O86 O 0.79201 0.79064 0.0211 0.0
O87 O 0.90678 0.78175 -0.00141 0.0
C88 C 0.00819 0.80141 0.06203 0.0
O89 O 0.82693 0.8293 0.03196 0.0
O90 O 0.95452 0.83274 0.01441 0.0
In91 In 0.84737 0.93913 0.0115 0.0
O92 O 0.71751 0.94441 0.03343 0.0
O93 O 0.82516 0.94439 0.06693 0.0
C94 C 0.86108 0.93442 0.94456 0.0
C95 C 0.86413 0.90816 0.02744 0.0
C96 C 0.9167 0.96817 0.00601 0.0
O97 O 0.78983 0.9374 0.95843 0.0
O98 O 0.92326 0.93345 0.96483 0.0
O99 O 0.95746 0.95648 0.019 0.0
O100 O 0.84138 0.96507 -0.00286 0.0
C101 C 0.7458 0.94603 0.06366 0.0
O102 O 0.92463 0.91807 0.03184 0.0
O103 O 0.79658 0.91409 0.01548 0.0
In104 In 0.09495 0.55875 0.76301 0.0
O105 O 0.17211 0.57967 0.78449 0.0
O106 O 0.04604 0.58399 0.7665 0.0
C107 C 0.17157 0.53018 0.75979 0.0
C108 C 0.98406 0.55187 0.81229 0.0
C109 C 0.11144 0.56332 0.69594 0.0
O110 O 0.20757 0.54229 0.77332 0.0
O111 O 0.09686 0.53258 0.74932 0.0
O112 O 0.03998 0.56007 0.70929 0.0
O113 O 0.17234 0.56455 0.71672 0.0
C114 C 0.11305 0.58976 0.77927 0.0
O115 O 0.96153 0.55327 0.78129 0.0
O116 O 0.06251 0.5537 0.81785 0.0
In117 In 0.16006 0.68981 0.75992 0.0
O118 O 0.29138 0.69543 0.77994 0.0
O119 O 0.18708 0.69519 0.81504 0.0
C120 C 0.15211 0.6851 0.6927 0.0
C121 C 0.14395 0.65892 0.77721 0.0
C122 C 0.08536 0.71853 0.75589 0.0
O123 O 0.22152 0.68846 0.70752 0.0
O124 O 0.08845 0.68384 0.71213 0.0
O125 O 0.04672 0.70643 0.76824 0.0
O126 O 0.16094 0.71595 0.74674 0.0
C127 C 0.266 0.69698 0.81055 0.0
O128 O 0.08256 0.6687 0.7805 0.0
O129 O 0.2114 0.66487 0.7653 0.0
In130 In 0.08758 0.68973 0.47894 0.0
O131 O 0.16634 0.66908 0.45737 0.0
O132 O 0.04052 0.66439 0.47541 0.0
C133 C 0.15714 0.71886 0.48299 0.0
C134 C 0.97855 0.69627 0.42907 0.0
C135 C 0.10599 0.68514 0.54575 0.0
O136 O 0.19646 0.70714 0.46936 0.0
O137 O 0.08295 0.71575 0.49323 0.0
O138 O 0.03365 0.68788 0.53265 0.0
O139 O 0.16687 0.68437 0.52482 0.0
C140 C 0.10796 0.65883 0.46256 0.0
O141 O 0.9545 0.6946 0.45984 0.0
O142 O 0.05749 0.69485 0.42407 0.0
In143 In 0.16457 0.55901 0.48153 0.0
O144 O 0.29618 0.55379 0.46112 0.0
O145 O 0.1914 0.55372 0.42629 0.0
C146 C 0.1563 0.56369 0.54882 0.0
C147 C 0.14498 0.58982 0.46422 0.0
C148 C 0.09161 0.53014 0.48582 0.0
O149 O 0.22609 0.56065 0.53395 0.0
O150 O 0.09249 0.56467 0.52942 0.0
O151 O 0.0525 0.54211 0.47321 0.0
O152 O 0.16703 0.53289 0.49498 0.0
C153 C 0.27052 0.55218 0.43055 0.0
O154 O 0.08455 0.5798 0.46117 0.0
O155 O 0.21326 0.58414 0.47595 0.0
In156 In 0.9078 0.43969 0.22933 0.0
O157 O 0.82826 0.41861 0.21028 0.0
O158 O 0.95688 0.41453 0.22554 0.0
C159 C 0.83627 0.4686 0.23384 0.0
C160 C 0.00698 0.44597 0.17603 0.0
C161 C 0.90192 0.43572 0.29672 0.0
O162 O 0.79563 0.45657 0.2222 0.0
O163 O 0.91251 0.46588 0.2419 0.0
O164 O 0.97123 0.43869 0.28139 0.0
O165 O 0.83747 0.43445 0.27771 0.0
C166 C 0.88853 0.40864 0.21423 0.0
O167 O 0.03674 0.44467 0.20608 0.0
O168 O 0.92744 0.44439 0.17354 0.0
In169 In 0.84665 0.30841 0.2279 0.0
O170 O 0.92303 0.32984 0.20876 0.0
O171 O 0.79325 0.33319 0.22362 0.0
C172 C 0.91653 0.27943 0.23266 0.0
C173 C 0.74791 0.30147 0.17495 0.0
C174 C 0.85859 0.31277 0.29501 0.0
O175 O 0.95748 0.29127 0.22034 0.0
O176 O 0.84092 0.28239 0.24137 0.0
O177 O 0.78775 0.30979 0.2808 0.0
O178 O 0.92121 0.31393 0.27499 0.0
C179 C 0.8608 0.33942 0.21236 0.0
O180 O 0.71816 0.30289 0.20501 0.0
O181 O 0.82729 0.30335 0.17224 0.0
In182 In 0.894 0.30887 0.51023 0.0
O183 O 0.025 0.3029 0.53033 0.0
O184 O 0.92173 0.30414 0.5657 0.0
C185 C 0.89149 0.31289 0.44264 0.0
C186 C 0.87621 0.34 0.52585 0.0
C187 C 0.81326 0.28068 0.50716 0.0
O188 O 0.95942 0.30955 0.45848 0.0
O189 O 0.82647 0.31444 0.46119 0.0
O190 O 0.77746 0.29314 0.51918 0.0
O191 O 0.88935 0.28259 0.49798 0.0
C192 C 0.00021 0.30188 0.56109 0.0
O193 O 0.81554 0.33011 0.52966 0.0
O194 O 0.94423 0.334 0.5146 0.0
In195 In 0.84533 0.44048 0.51118 0.0
O196 O 0.7147 0.44657 0.53169 0.0
O197 O 0.8197 0.4456 0.56641 0.0
C198 C 0.86035 0.43635 0.44402 0.0
C199 C 0.8545 0.40932 0.52674 0.0
C200 C 0.92563 0.46863 0.50852 0.0
O201 O 0.78954 0.43994 0.45759 0.0
O202 O 0.92119 0.4345 0.46463 0.0
O203 O 0.96076 0.45621 0.52107 0.0
O204 O 0.84997 0.46672 0.49863 0.0
C205 C 0.74098 0.44778 0.56229 0.0
O206 O 0.91726 0.41867 0.53134 0.0
O207 O 0.78891 0.41583 0.51445 0.0
In208 In 0.59408 0.05879 0.75913 0.0
O209 O 0.46221 0.05279 0.77831 0.0
O210 O 0.56487 0.05369 0.81413 0.0
C211 C 0.60859 0.06303 0.69191 0.0
C212 C 0.60602 0.08981 0.77601 0.0
C213 C 0.67221 0.0304 0.75679 0.0
O214 O 0.53779 0.05965 0.70566 0.0
O215 O 0.66993 0.06462 0.71238 0.0
O216 O 0.70829 0.04274 0.76932 0.0
O217 O 0.59697 0.03253 0.74667 0.0
C218 C 0.48639 0.05155 0.80915 0.0
O219 O 0.66798 0.08024 0.7802 0.0
O220 O 0.54004 0.0836 0.76333 0.0
In221 In 0.64824 0.19017 0.76326 0.0
O222 O 0.77975 0.19616 0.78285 0.0
O223 O 0.67727 0.19505 0.81862 0.0
C224 C 0.64207 0.18581 0.69577 0.0
C225 C 0.63079 0.15905 0.77875 0.0
C226 C 0.56804 0.21838 0.75956 0.0
O227 O 0.71092 0.18924 0.71093 0.0
O228 O 0.57812 0.18434 0.71495 0.0
O229 O 0.53235 0.20606 0.77227 0.0
O230 O 0.64393 0.21635 0.7502 0.0
C231 C 0.75569 0.19727 0.8137 0.0
O232 O 0.57047 0.16897 0.78314 0.0
O233 O 0.6985 0.16504 0.76715 0.0
In234 In 0.58265 0.18948 0.48146 0.0
O235 O 0.661 0.16868 0.4603 0.0
O236 O 0.53498 0.16416 0.47834 0.0
C237 C 0.65172 0.21867 0.48509 0.0
C238 C 0.47625 0.19573 0.43045 0.0
C239 C 0.59951 0.18529 0.54851 0.0
O240 O 0.69187 0.20685 0.47226 0.0
O241 O 0.57698 0.21562 0.49477 0.0
O242 O 0.52748 0.18794 0.53504 0.0
O243 O 0.66087 0.18436 0.52783 0.0
C244 C 0.60215 0.15851 0.46543 0.0
O245 O 0.45059 0.19431 0.46109 0.0
O246 O 0.55542 0.19423 0.42618 0.0
In247 In 0.65183 0.05828 0.47714 0.0
O248 O 0.78054 0.05277 0.45436 0.0
O249 O 0.67214 0.05321 0.42136 0.0
C250 C 0.64731 0.06274 0.54448 0.0
C251 C 0.63426 0.08934 0.4617 0.0
C252 C 0.57892 0.02948 0.48236 0.0
O253 O 0.71626 0.05962 0.52903 0.0
O254 O 0.58254 0.06388 0.52563 0.0
O255 O 0.53905 0.04145 0.4701 0.0
O256 O 0.65498 0.0322 0.49069 0.0
C257 C 0.75146 0.05135 0.42423 0.0
O258 O 0.57257 0.07957 0.45885 0.0
O259 O 0.70298 0.08326 0.47205 0.0
In260 In 0.40848 0.93985 0.22908 0.0
O261 O 0.54147 0.94506 0.21026 0.0
O262 O 0.43878 0.94531 0.17437 0.0
C263 C 0.39063 0.9349 0.29586 0.0
C264 C 0.39223 0.9091 0.21123 0.0
C265 C 0.33591 0.96868 0.23316 0.0
O266 O 0.46244 0.93815 0.28281 0.0
O267 O 0.33005 0.93377 0.27489 0.0
O268 O 0.29796 0.95683 0.2194 0.0
O269 O 0.4103 0.96585 0.2435 0.0
C270 C 0.51768 0.94676 0.17947 0.0
O271 O 0.33159 0.91899 0.20726 0.0
O272 O 0.45911 0.91488 0.22408 0.0
In273 In 0.34204 0.80927 0.22857 0.0
O274 O 0.42 0.83004 0.20734 0.0
O275 O 0.29261 0.83441 0.22377 0.0
C276 C 0.41971 0.78089 0.23238 0.0
C277 C 0.23684 0.80198 0.17764 0.0
C278 C 0.35434 0.81398 0.29576 0.0
O279 O 0.45592 0.79308 0.21937 0.0
O280 O 0.34434 0.78313 0.2423 0.0
O281 O 0.28397 0.81043 0.28182 0.0
O282 O 0.41612 0.81547 0.27548 0.0
C283 C 0.3603 0.84011 0.21145 0.0
O284 O 0.21033 0.80386 0.20805 0.0
O285 O 0.31595 0.80356 0.17364 0.0
In286 In 0.40063 0.80875 0.51041 0.0
O287 O 0.53195 0.80265 0.53014 0.0
O288 O 0.4285 0.80336 0.56553 0.0
C289 C 0.39391 0.81348 0.44309 0.0
C290 C 0.38447 0.83967 0.52768 0.0
C291 C 0.3203 0.78058 0.50657 0.0
O292 O 0.46308 0.81014 0.45809 0.0
O293 O 0.3299 0.81466 0.46232 0.0
O294 O 0.28502 0.79289 0.51953 0.0
O295 O 0.39592 0.7826 0.49683 0.0
C296 C 0.50711 0.80128 0.56085 0.0
O297 O 0.32296 0.8299 0.53067 0.0
O298 O 0.45225 0.83368 0.51617 0.0
In299 In 0.33483 0.93969 0.51007 0.0
O300 O 0.20258 0.94526 0.52961 0.0
O301 O 0.30584 0.94489 0.56509 0.0
C302 C 0.34341 0.93509 0.44277 0.0
C303 C 0.35352 0.90875 0.5268 0.0
C304 C 0.41446 0.96796 0.50675 0.0
O305 O 0.27386 0.93849 0.45746 0.0
O306 O 0.40674 0.9338 0.46231 0.0
O307 O 0.45015 0.9556 0.51922 0.0
O308 O 0.33862 0.96595 0.49726 0.0
C309 C 0.22707 0.94667 0.56036 0.0
O310 O 0.41304 0.91884 0.53114 0.0
O311 O 0.28601 0.91447 0.51444 0.0
In312 In 0.59336 0.55853 0.25989 0.0
O313 O 0.46406 0.55311 0.2827 0.0
O314 O 0.57228 0.55377 0.31566 0.0
C315 C 0.59475 0.56202 0.19215 0.0
C316 C 0.61276 0.58966 0.27475 0.0
C317 C 0.67339 0.53035 0.25678 0.0
O318 O 0.52695 0.55873 0.20822 0.0
O319 O 0.6598 0.56384 0.21057 0.0
O320 O 0.71 0.54289 0.26797 0.0
O321 O 0.59662 0.53215 0.24839 0.0
C322 C 0.49304 0.5519 0.31286 0.0
O323 O 0.67325 0.57972 0.27818 0.0
O324 O 0.54391 0.58372 0.26412 0.0
In325 In 0.64993 0.68999 0.26083 0.0
O326 O 0.77935 0.6955 0.28278 0.0
O327 O 0.67179 0.69493 0.31638 0.0
C328 C 0.63404 0.6853 0.19405 0.0
C329 C 0.63855 0.65892 0.27611 0.0
C330 C 0.57993 0.71896 0.2559 0.0
O331 O 0.70554 0.68852 0.20748 0.0
O332 O 0.57258 0.68415 0.21466 0.0
O333 O 0.53974 0.70721 0.26904 0.0
O334 O 0.65506 0.71593 0.24661 0.0
C335 C 0.75107 0.69679 0.31309 0.0
O336 O 0.57613 0.66838 0.28071 0.0
O337 O 0.70479 0.66533 0.26403 0.0
In338 In 0.58981 0.68891 0.97958 0.0
O339 O 0.46128 0.6952 0.95753 0.0
O340 O 0.56899 0.69443 0.92419 0.0
C341 C 0.59387 0.68445 0.04685 0.0
C342 C 0.60236 0.65788 0.96295 0.0
C343 C 0.67045 0.71696 0.98445 0.0
O344 O 0.52555 0.68811 0.03153 0.0
O345 O 0.6581 0.68274 0.0279 0.0
O346 O 0.70674 0.70458 0.97226 0.0
O347 O 0.59375 0.71506 0.99291 0.0
C348 C 0.49002 0.69663 0.92737 0.0
O349 O 0.66528 0.66734 0.96016 0.0
O350 O 0.53495 0.66422 0.974 0.0
In351 In 0.64248 0.55746 0.97702 0.0
O352 O 0.77446 0.55219 0.95672 0.0
O353 O 0.67018 0.5527 0.92169 0.0
C354 C 0.62916 0.56118 0.04446 0.0
C355 C 0.62607 0.58861 0.96217 0.0
C356 C 0.56545 0.52897 0.97897 0.0
O357 O 0.69996 0.55812 0.03035 0.0
O358 O 0.56721 0.56269 0.02427 0.0
O359 O 0.52902 0.54128 0.96658 0.0
O360 O 0.64067 0.53117 0.98911 0.0
C361 C 0.74909 0.55093 0.92602 0.0
O362 O 0.56589 0.57873 0.95704 0.0
O363 O 0.69301 0.58258 0.97439 0.0
In364 In 0.40193 0.4394 0.7267 0.0
O365 O 0.53418 0.44496 0.70772 0.0
O366 O 0.43108 0.44534 0.672 0.0
C367 C 0.38571 0.43349 0.79317 0.0
C368 C 0.38543 0.40873 0.70794 0.0
C369 C 0.33174 0.4684 0.73327 0.0
O370 O 0.45729 0.43682 0.78 0.0
O371 O 0.32439 0.43283 0.77244 0.0
O372 O 0.29244 0.45691 0.71873 0.0
O373 O 0.40602 0.46513 0.74314 0.0
C374 C 0.50997 0.44692 0.67705 0.0
O375 O 0.32452 0.41863 0.70461 0.0
O376 O 0.45283 0.41449 0.72039 0.0
In377 In 0.33618 0.30889 0.7268 0.0
O378 O 0.41315 0.32954 0.70434 0.0
O379 O 0.28717 0.33405 0.7225 0.0
C380 C 0.4051 0.2798 0.73265 0.0
C381 C 0.23006 0.30175 0.67626 0.0
C382 C 0.3565 0.31404 0.79332 0.0
O383 O 0.44491 0.29134 0.71857 0.0
O384 O 0.33055 0.28303 0.74235 0.0
O385 O 0.28383 0.31104 0.78071 0.0
O386 O 0.41657 0.31488 0.77201 0.0
C387 C 0.35396 0.33967 0.7092 0.0
O388 O 0.20396 0.30393 0.70666 0.0
O389 O 0.30939 0.30294 0.67207 0.0
In390 In 0.41939 0.30781 0.00682 0.0
O391 O 0.55136 0.30254 0.02677 0.0
O392 O 0.44679 0.30215 0.06171 0.0
C393 C 0.40895 0.31323 0.93991 0.0
C394 C 0.39991 0.33848 0.02512 0.0
C395 C 0.34553 0.27909 0.00149 0.0
O396 O 0.47908 0.3098 0.95412 0.0
O397 O 0.346 0.31417 0.95979 0.0
O398 O 0.30773 0.29091 0.01537 0.0
O399 O 0.42036 0.28188 0.99162 0.0
C400 C 0.52592 0.30073 0.05731 0.0
O401 O 0.33964 0.32843 0.02802 0.0
O402 O 0.46822 0.33289 0.01317 0.0
In403 In 0.33426 0.43795 0.00719 0.0
O404 O 0.41685 0.41774 0.02829 0.0
O405 O 0.28945 0.41257 0.01298 0.0
C406 C 0.40516 0.46693 0.00148 0.0
C407 C 0.2281 0.44486 0.05801 0.0
C408 C 0.34206 0.43272 0.94014 0.0
O409 O 0.44491 0.45522 0.01483 0.0
O410 O 0.33007 0.46389 0.99233 0.0
O411 O 0.27218 0.43568 0.95502 0.0
O412 O 0.40622 0.43212 0.95943 0.0
C413 C 0.35854 0.40731 0.02484 0.0
O414 O 0.20233 0.44289 0.02757 0.0
O415 O 0.30734 0.44357 0.06223 0.0
C416 C 0.05742 0.06385 0.096 0.0
C417 C 0.13893 0.06363 0.08129 0.0
C418 C 0.04628 0.06365 0.13146 0.0
C419 C 0.11622 0.06342 0.1536 0.0
H420 H 0.00138 0.06379 0.08001 0.0
H421 H 0.98233 0.06352 0.14155 0.0
S422 S 0.3432 0.06356 0.12808 0.0
N423 N 0.29078 0.06369 0.0916 0.0
N424 N 0.27028 0.0635 0.15832 0.0
C425 C 0.19824 0.06365 0.13927 0.0
C426 C 0.2095 0.0637 0.1031 0.0
C427 C 0.05112 0.18453 0.10407 0.0
C428 C 0.12192 0.18411 0.08237 0.0
C429 C 0.06076 0.1844 0.1396 0.0
C430 C 0.14162 0.18402 0.15485 0.0
H431 H 0.98767 0.18514 0.09358 0.0
H432 H 0.00414 0.18497 0.15522 0.0
S433 S 0.34755 0.18215 0.10942 0.0
N434 N 0.27599 0.18269 0.07869 0.0
N435 N 0.29368 0.18265 0.14556 0.0
C436 C 0.21297 0.18329 0.13351 0.0
C437 C 0.20322 0.18327 0.09725 0.0
C438 C 0.80136 0.93312 0.8856 0.0
C439 C 0.87245 0.93317 0.90716 0.0
C440 C 0.81063 0.9331 0.85005 0.0
C441 C 0.89136 0.93327 0.83468 0.0
H442 H 0.73795 0.93335 0.89621 0.0
H443 H 0.75379 0.93335 0.83455 0.0
S444 S 0.09804 0.93262 0.87971 0.0
N445 N 0.02672 0.93269 0.91056 0.0
N446 N 0.04371 0.9328 0.84369 0.0
C447 C 0.96305 0.93291 0.85588 0.0
C448 C 0.95369 0.93281 0.89213 0.0
C449 C 0.9389 0.81421 0.88499 0.0
C450 C 0.86915 0.81284 0.90704 0.0
C451 C 0.92802 0.81428 0.84952 0.0
C452 C 0.84702 0.8128 0.83469 0.0
H453 H 0.00259 0.81511 0.89515 0.0
H454 H 0.98404 0.81517 0.83364 0.0
S455 S 0.64322 0.80924 0.88125 0.0
N456 N 0.71565 0.81035 0.91159 0.0
N457 N 0.69562 0.81031 0.84483 0.0
C458 C 0.77649 0.81168 0.85642 0.0
C459 C 0.78745 0.81174 0.89262 0.0
C460 C 0.05464 0.56422 0.63645 0.0
C461 C 0.12451 0.56466 0.65863 0.0
C462 C 0.0658 0.56439 0.60098 0.0
C463 C 0.14731 0.56486 0.58632 0.0
H464 H 0.99077 0.56349 0.6465 0.0
H465 H 0.00992 0.56374 0.58497 0.0
S466 S 0.3512 0.56703 0.63315 0.0
N467 N 0.27834 0.56633 0.66337 0.0
N468 N 0.29889 0.56648 0.59666 0.0
C469 C 0.2177 0.56571 0.60815 0.0
C470 C 0.2064 0.56566 0.64432 0.0
C471 C 0.06169 0.68318 0.64069 0.0
C472 C 0.14329 0.68383 0.65523 0.0
C473 C 0.05019 0.68328 0.60525 0.0
C474 C 0.11986 0.68389 0.58299 0.0
H475 H 0.00583 0.68298 0.65677 0.0
H476 H 0.98614 0.6831 0.59529 0.0
S477 S 0.34706 0.68483 0.60808 0.0
N478 N 0.29503 0.68447 0.64464 0.0
N479 N 0.27384 0.68451 0.57798 0.0
C480 C 0.20203 0.68403 0.59715 0.0
C481 C 0.21364 0.68405 0.63329 0.0
C482 C 0.80247 0.43495 0.38477 0.0
C483 C 0.87285 0.43521 0.40667 0.0
C484 C 0.81289 0.43467 0.34927 0.0
C485 C 0.89411 0.43483 0.3343 0.0
H486 H 0.73873 0.43509 0.39506 0.0
H487 H 0.75653 0.43469 0.33347 0.0
S488 S 0.09932 0.43507 0.38043 0.0
N489 N 0.02699 0.43518 0.41089 0.0
N490 N 0.04618 0.43483 0.34412 0.0
C491 C 0.96512 0.43482 0.35588 0.0
C492 C 0.95458 0.43496 0.39208 0.0
C493 C 0.79737 0.31439 0.35371 0.0
C494 C 0.86902 0.31391 0.33247 0.0
C495 C 0.80566 0.3145 0.3893 0.0
C496 C 0.88592 0.31396 0.40503 0.0
H497 H 0.73426 0.3145 0.34282 0.0
H498 H 0.74841 0.31463 0.40458 0.0
S499 S 0.09381 0.31319 0.36087 0.0
N500 N 0.02335 0.31343 0.32972 0.0
N501 N 0.03851 0.31347 0.39666 0.0
C502 C 0.95819 0.3138 0.38412 0.0
C503 C 0.94985 0.31382 0.34783 0.0
C504 C 0.5496 0.06393 0.63281 0.0
C505 C 0.62041 0.06411 0.65451 0.0
C506 C 0.55929 0.06394 0.59728 0.0
C507 C 0.64021 0.06395 0.58205 0.0
H508 H 0.48607 0.06359 0.64329 0.0
H509 H 0.50265 0.06354 0.58167 0.0
S510 S 0.84626 0.06508 0.62749 0.0
N511 N 0.77458 0.0649 0.65821 0.0
N512 N 0.7924 0.06474 0.59136 0.0
C513 C 0.71161 0.06447 0.60339 0.0
C514 C 0.7018 0.0646 0.63964 0.0
C515 C 0.55298 0.18377 0.64337 0.0
C516 C 0.63419 0.18456 0.65824 0.0
C517 C 0.54234 0.18371 0.60788 0.0
C518 C 0.61251 0.18429 0.58586 0.0
H519 H 0.49674 0.18355 0.65924 0.0
H520 H 0.47854 0.18341 0.59767 0.0
S521 S 0.83903 0.18566 0.61186 0.0
N522 N 0.78612 0.18539 0.64823 0.0
N523 N 0.76657 0.18513 0.58147 0.0
C524 C 0.69432 0.18463 0.60037 0.0
C525 C 0.70505 0.18482 0.63656 0.0
C526 C 0.43458 0.9339 0.39089 0.0
C527 C 0.35281 0.93378 0.40533 0.0
C528 C 0.44634 0.93389 0.35546 0.0
C529 C 0.37679 0.9336 0.33311 0.0
H530 H 0.49026 0.93444 0.40704 0.0
H531 H 0.51043 0.93438 0.34558 0.0
S532 S 0.14952 0.93205 0.35802 0.0
N533 N 0.20127 0.93259 0.39464 0.0
N534 N 0.22292 0.93238 0.32797 0.0
C535 C 0.29459 0.9329 0.34721 0.0
C536 C 0.2827 0.93306 0.38334 0.0
C537 C 0.30507 0.81381 0.39048 0.0
C538 C 0.38586 0.81486 0.40562 0.0
C539 C 0.29517 0.8139 0.35494 0.0
C540 C 0.36561 0.81522 0.3332 0.0
H541 H 0.24893 0.81246 0.40616 0.0
H542 H 0.23193 0.81265 0.34449 0.0
S543 S 0.5904 0.81962 0.36017 0.0
N544 N 0.53707 0.81812 0.3963 0.0
N545 N 0.51892 0.81851 0.32948 0.0
C546 C 0.44662 0.81687 0.34805 0.0
C547 C 0.45665 0.81662 0.38427 0.0
C548 C 0.68958 0.56294 0.10326 0.0
C549 C 0.61821 0.56224 0.08192 0.0
C550 C 0.68087 0.56326 0.13884 0.0
C551 C 0.60048 0.56272 0.15448 0.0
H552 H 0.7528 0.56313 0.09247 0.0
H553 H 0.73799 0.56362 0.15417 0.0
S554 S 0.39319 0.5612 0.11 0.0
N555 N 0.46397 0.56139 0.07895 0.0
N556 N 0.44804 0.56183 0.14588 0.0
C557 C 0.52846 0.56225 0.13346 0.0
C558 C 0.53723 0.56206 0.09717 0.0
C559 C 0.69236 0.68373 0.13493 0.0
C560 C 0.62174 0.68387 0.15674 0.0
C561 C 0.68232 0.68342 0.09944 0.0
C562 C 0.60125 0.68342 0.08438 0.0
H563 H 0.75601 0.68407 0.14529 0.0
H564 H 0.73881 0.68361 0.08372 0.0
S565 S 0.3956 0.68292 0.13016 0.0
N566 N 0.46757 0.68328 0.16075 0.0
N567 N 0.44913 0.6829 0.09393 0.0
C568 C 0.53003 0.68319 0.10584 0.0
C569 C 0.54017 0.68335 0.14205 0.0
C570 C 0.44303 0.43207 0.85247 0.0
C571 C 0.37297 0.43167 0.83038 0.0
C572 C 0.43216 0.43183 0.88793 0.0
C573 C 0.35077 0.43133 0.90269 0.0
H574 H 0.5068 0.43292 0.84236 0.0
H575 H 0.48816 0.43254 0.90387 0.0
S576 S 0.1466 0.4289 0.85612 0.0
N577 N 0.2192 0.42974 0.82581 0.0
N578 N 0.19917 0.42947 0.89255 0.0
C579 C 0.28024 0.43037 0.88095 0.0
C580 C 0.29125 0.43049 0.84478 0.0
C581 C 0.30319 0.31556 0.85326 0.0
C582 C 0.37189 0.3153 0.83049 0.0
C583 C 0.31623 0.31542 0.88862 0.0
C584 C 0.39848 0.31486 0.90257 0.0
H585 H 0.2387 0.3156 0.84376 0.0
H586 H 0.26106 0.31532 0.90509 0.0
S587 S 0.60021 0.31489 0.85398 0.0
N588 N 0.52569 0.31522 0.82441 0.0
N589 N 0.54975 0.31478 0.89091 0.0
C590 C 0.46787 0.31505 0.88014 0.0
C591 C 0.45468 0.31532 0.84409 0.0
C592 C 0.21023 0.98683 0.22929 0.0
C593 C 0.29525 0.9845 0.23863 0.0
C594 C 0.16943 0.00148 0.23541 0.0
C595 C 0.21198 0.0144 0.25114 0.0
H596 H 0.17456 0.97724 0.21729 0.0
H597 H 0.10389 0.00266 0.22759 0.0
S598 S 0.4355 0.01456 0.28047 0.0
N599 N 0.42109 0.99642 0.26442 0.0
N600 N 0.34408 0.02393 0.27585 0.0
C601 C 0.29705 0.01226 0.26063 0.0
C602 C 0.33875 0.99733 0.25438 0.0
C603 C 0.04127 0.26094 0.23161 0.0
C604 C 0.95481 0.26341 0.23828 0.0
C605 C 0.07952 0.24607 0.23799 0.0
C606 C 0.03283 0.23307 0.2513 0.0
H607 H 0.08004 0.27058 0.22156 0.0
H608 H 0.14636 0.24478 0.23232 0.0
S609 S 0.80395 0.23322 0.2729 0.0
N610 N 0.82309 0.25153 0.25879 0.0
N611 N 0.89529 0.22362 0.27073 0.0
C612 C 0.94627 0.23535 0.25806 0.0
C613 C 0.90719 0.2505 0.25154 0.0
C614 C 0.18186 0.24573 0.00252 0.0
C615 C 0.22191 0.23322 0.98438 0.0
C616 C 0.22241 0.26046 0.00812 0.0
C617 C 0.30468 0.26329 -0.00416 0.0
H618 H 0.11862 0.24415 0.01274 0.0
H619 H 0.18888 0.26969 0.02223 0.0
S620 S 0.43674 0.23462 0.94605 0.0
N621 N 0.34807 0.22473 0.95369 0.0
N622 N 0.42458 0.25239 0.96409 0.0
C623 C 0.34544 0.25091 0.97747 0.0
C624 C 0.304 0.2359 0.97176 0.0
C625 C 0.07899 0.0017 0.00105 0.0
C626 C 0.03353 0.01439 0.98587 0.0
C627 C 0.04054 0.98689 0.00787 0.0
C628 C 0.95505 0.98415 -0.00021 0.0
H629 H 0.14503 0.00319 0.00792 0.0
H630 H 0.07839 0.9775 0.01943 0.0
S631 S 0.80771 0.01344 0.95969 0.0
N632 N 0.89829 0.02324 0.96296 0.0
N633 N 0.82567 0.99543 0.97568 0.0
C634 C 0.90867 0.99674 0.98458 0.0
C635 C 0.94798 0.01184 0.97763 0.0
C636 C 0.66852 0.00162 0.73889 0.0
C637 C 0.71463 0.01466 0.75245 0.0
C638 C 0.7068 0.98669 0.7331 0.0
C639 C 0.79279 0.98418 0.7406 0.0
H640 H 0.60208 0.00293 0.73254 0.0
H641 H 0.66847 0.97705 0.72275 0.0
S642 S 0.94209 0.01442 0.77633 0.0
N643 N 0.85111 0.02408 0.77311 0.0
N644 N 0.92342 0.99606 0.76229 0.0
C645 C 0.83982 0.99711 0.7542 0.0
C646 C 0.80066 0.01233 0.76013 0.0
C647 C 0.95746 0.73628 0.75666 0.0
C648 C 0.04463 0.73437 0.75066 0.0
C649 C 0.91702 0.75096 0.75043 0.0
C650 C 0.96212 0.76435 0.73796 0.0
H651 H 0.91983 0.72632 0.76598 0.0
H652 H 0.84968 0.7518 0.75551 0.0
S653 S 0.1922 0.76579 0.71875 0.0
N654 N 0.17539 0.74725 0.73197 0.0
N655 N 0.09912 0.7748 0.72032 0.0
C656 C 0.04942 0.76265 0.73199 0.0
C657 C 0.09072 0.74769 0.73835 0.0
C658 C 0.66789 0.74559 0.00345 0.0
C659 C 0.71395 0.73251 0.99008 0.0
C660 C 0.70685 0.76039 0.00997 0.0
C661 C 0.79345 0.76272 0.00336 0.0
H662 H 0.60089 0.74443 0.00895 0.0
H663 H 0.66844 0.77012 0.01989 0.0
S664 S 0.94321 0.73219 0.96919 0.0
N665 N 0.85129 0.72277 0.97108 0.0
N666 N 0.92486 0.75056 0.98327 0.0
C667 C 0.84059 0.7497 0.99027 0.0
C668 C 0.80076 0.73461 0.98362 0.0
C669 C 0.16938 0.50195 0.73816 0.0
C670 C 0.21397 0.5145 0.75438 0.0
C671 C 0.20807 0.48717 0.7311 0.0
C672 C 0.29297 0.48432 0.73997 0.0
H673 H 0.10388 0.50354 0.73061 0.0
H674 H 0.17091 0.47791 0.7187 0.0
S675 S 0.43797 0.5132 0.78295 0.0
N676 N 0.34777 0.52307 0.77915 0.0
N677 N 0.4208 0.49534 0.766 0.0
C678 C 0.33842 0.49676 0.75629 0.0
C679 C 0.29886 0.51182 0.76349 0.0
C680 C 0.32027 0.7523 0.48539 0.0
C681 C 0.27661 0.76502 0.50138 0.0
C682 C 0.28086 0.73752 0.47908 0.0
C683 C 0.19616 0.73484 0.48851 0.0
H684 H 0.38566 0.75373 0.47754 0.0
H685 H 0.31741 0.7281 0.46692 0.0
S686 S 0.05331 0.76426 0.53095 0.0
N687 N 0.14376 0.77399 0.52635 0.0
N688 N 0.06935 0.74624 0.5146 0.0
C689 C 0.15149 0.74748 0.50445 0.0
C690 C 0.19179 0.76255 0.51087 0.0
C691 C 0.92537 0.49726 0.48964 0.0
C692 C 0.96976 0.48418 0.50379 0.0
C693 C 0.9654 0.512 0.48351 0.0
C694 C 0.05147 0.51425 0.49128 0.0
H695 H 0.85894 0.49614 0.48308 0.0
H696 H 0.92833 0.5217 0.47277 0.0
S697 S 0.19669 0.48376 0.52847 0.0
N698 N 0.10478 0.47442 0.52522 0.0
N699 N 0.18032 0.50207 0.51378 0.0
C700 C 0.09681 0.50126 0.50541 0.0
C701 C 0.05589 0.48624 0.51167 0.0
C702 C 0.67172 0.50172 0.23784 0.0
C703 C 0.71684 0.51475 0.25193 0.0
C704 C 0.71098 0.48692 0.23171 0.0
C705 C 0.79697 0.48454 0.23941 0.0
H706 H 0.60533 0.50294 0.23131 0.0
H707 H 0.6734 0.47726 0.22097 0.0
S708 S 0.94364 0.51479 0.2768 0.0
N709 N 0.85226 0.5243 0.27347 0.0
N710 N 0.92639 0.49651 0.26202 0.0
C711 C 0.843 0.49747 0.25354 0.0
C712 C 0.80286 0.51256 0.2598 0.0
C713 C 0.81443 0.25218 0.4874 0.0
C714 C 0.76985 0.26506 0.50237 0.0
C715 C 0.77548 0.23732 0.48147 0.0
C716 C 0.69032 0.23472 0.49027 0.0
H717 H 0.88023 0.25354 0.48006 0.0
H718 H 0.81275 0.22779 0.47008 0.0
S719 S 0.54503 0.26454 0.53002 0.0
N720 N 0.63563 0.27424 0.52574 0.0
N721 N 0.56206 0.24634 0.5147 0.0
C722 C 0.64472 0.24751 0.50521 0.0
C723 C 0.68456 0.26266 0.51125 0.0
C724 C 0.52912 0.26117 0.73041 0.0
C725 C 0.44406 0.2639 0.73922 0.0
C726 C 0.56848 0.24649 0.73758 0.0
C727 C 0.52445 0.23391 0.75384 0.0
H728 H 0.56597 0.27047 0.71802 0.0
H729 H 0.63412 0.24501 0.73011 0.0
S730 S 0.30027 0.23488 0.78228 0.0
N731 N 0.31661 0.25273 0.76521 0.0
N732 N 0.39094 0.22515 0.77856 0.0
C733 C 0.43932 0.23644 0.76282 0.0
C734 C 0.39907 0.25142 0.75553 0.0
C735 C 0.45286 0.01127 0.48091 0.0
C736 C 0.53908 0.0136 0.48832 0.0
C737 C 0.41322 0.99653 0.48743 0.0
C738 C 0.45814 0.98353 0.50164 0.0
H739 H 0.41541 0.02091 0.47011 0.0
H740 H 0.34667 0.99534 0.48111 0.0
S741 S 0.68556 0.98335 0.52561 0.0
N742 N 0.66858 0.00158 0.51063 0.0
N743 N 0.59375 0.97394 0.52281 0.0
C744 C 0.54439 0.98568 0.5092 0.0
C745 C 0.58492 0.00069 0.50253 0.0
C746 C 0.457 0.7378 0.25992 0.0
C747 C 0.54125 0.73493 0.25011 0.0
C748 C 0.41832 0.75265 0.25372 0.0
C749 C 0.46229 0.76523 0.23741 0.0
H750 H 0.42036 0.72851 0.27243 0.0
H751 H 0.35331 0.75426 0.26193 0.0
S752 S 0.68426 0.76386 0.20636 0.0
N753 N 0.66771 0.74594 0.22303 0.0
N754 N 0.59467 0.7738 0.21145 0.0
C755 C 0.54654 0.76253 0.2274 0.0
C756 C 0.5861 0.74741 0.23374 0.0
C757 C 0.52798 0.48579 0.0058 0.0
C758 C 0.44409 0.48288 -0.00444 0.0
C759 C 0.56668 0.50066 -0.00016 0.0
C760 C 0.52309 0.51323 0.98338 0.0
H761 H 0.56425 0.47652 0.01855 0.0
H762 H 0.63132 0.50231 0.00847 0.0
S763 S 0.30249 0.5117 0.95085 0.0
N764 N 0.31863 0.49379 0.96763 0.0
N765 N 0.39168 0.52171 0.95654 0.0
C766 C 0.43932 0.51047 0.9728 0.0
C767 C 0.39976 0.49532 0.97887 0.0
C768 C 0.19363 0.13062 0.28055 0.0
C769 C 0.12132 0.14055 0.2809 0.0
C770 C 0.18643 0.11385 0.28071 0.0
C771 C 0.10661 0.10641 0.28084 0.0
H772 H 0.25647 0.13581 0.27896 0.0
H773 H 0.24367 0.10672 0.27895 0.0
S774 S 0.898 0.12689 0.28631 0.0
N775 N 0.96767 0.14168 0.28491 0.0
N776 N 0.95394 0.11015 0.28489 0.0
C777 C 0.03394 0.11617 0.28328 0.0
C778 C 0.04133 0.13325 0.28344 0.0
C779 C 0.19487 0.13348 0.95607 0.0
C780 C 0.11569 0.14111 0.95457 0.0
C781 C 0.20085 0.11669 0.95634 0.0
C782 C 0.12795 0.10692 0.95475 0.0
H783 H 0.25236 0.14047 0.95884 0.0
H784 H 0.2631 0.11135 0.95902 0.0
S785 S 0.90647 0.12113 0.94539 0.0
N786 N 0.96339 0.13774 0.94783 0.0
N787 N 0.97483 0.10618 0.94802 0.0
C788 C 0.04885 0.11442 0.95082 0.0
C789 C 0.04268 0.13153 0.95085 0.0
C790 C 0.79654 0.88322 0.71142 0.0
C791 C 0.87584 0.8907 0.70811 0.0
C792 C 0.78963 0.86644 0.71193 0.0
C793 C 0.86163 0.85652 0.70879 0.0
H794 H 0.73993 0.89035 0.71537 0.0
H795 H 0.7275 0.86123 0.71593 0.0
S796 S 0.08243 0.87029 0.69463 0.0
N797 N 0.02685 0.887 0.69817 0.0
N798 N 0.01364 0.85548 0.69884 0.0
C799 C 0.94055 0.86386 0.7032 0.0
C800 C 0.9477 0.88096 0.70296 0.0
C801 C 0.79856 0.88096 0.03178 0.0
C802 C 0.87186 0.89064 0.03304 0.0
C803 C 0.80394 0.86416 0.03202 0.0
C804 C 0.88289 0.85643 0.0331 0.0
H805 H 0.73644 0.88638 0.02944 0.0
H806 H 0.74614 0.85723 0.02955 0.0
S807 S 0.09313 0.87614 0.0411 0.0
N808 N 0.02521 0.89118 0.03889 0.0
N809 N 0.03554 0.85961 0.03898 0.0
C810 C 0.95636 0.86593 0.03641 0.0
C811 C 0.9508 0.88304 0.03652 0.0
C812 C 0.04995 0.61719 0.78286 0.0
C813 C 0.12226 0.60729 0.78461 0.0
C814 C 0.05694 0.63398 0.78261 0.0
C815 C 0.1366 0.64146 0.78366 0.0
H816 H 0.98737 0.61195 0.78049 0.0
H817 H -0.00017 0.64107 0.77978 0.0
S818 S 0.34482 0.6211 0.79264 0.0
N819 N 0.27546 0.60628 0.79076 0.0
N820 N 0.28887 0.6378 0.78995 0.0
C821 C 0.20909 0.63175 0.78745 0.0
C822 C 0.20187 0.61465 0.78805 0.0
C823 C 0.04703 0.6312 0.45956 0.0
C824 C 0.11836 0.64134 0.45707 0.0
C825 C 0.05547 0.61445 0.4597 0.0
C826 C 0.13567 0.60722 0.45777 0.0
H827 H 0.98418 0.63623 0.46265 0.0
H828 H -0.00079 0.60716 0.46317 0.0
S829 S 0.34138 0.62823 0.44636 0.0
N830 N 0.27095 0.64284 0.4491 0.0
N831 N 0.28707 0.61135 0.44969 0.0
C832 C 0.20702 0.61716 0.45316 0.0
C833 C 0.19831 0.63423 0.45269 0.0
C834 C 0.94664 0.36455 0.20945 0.0
C835 C 0.86746 0.35695 0.20711 0.0
C836 C 0.95279 0.38133 0.21029 0.0
C837 C 0.88008 0.39113 0.20847 0.0
H838 H 0.00393 0.35752 0.21238 0.0
H839 H 0.015 0.38663 0.21351 0.0
S840 S 0.65887 0.37705 0.19712 0.0
N841 N 0.71549 0.36042 0.19944 0.0
N842 N 0.72728 0.39197 0.20072 0.0
C843 C 0.80107 0.38369 0.20381 0.0
C844 C 0.79471 0.36658 0.20325 0.0
C845 C 0.94223 0.36711 0.53116 0.0
C846 C 0.86855 0.35752 0.53149 0.0
C847 C 0.93746 0.38391 0.53167 0.0
C848 C 0.85877 0.39176 0.53214 0.0
H849 H 0.0043 0.36161 0.52938 0.0
H850 H 0.9957 0.39075 0.52999 0.0
S851 S 0.64735 0.37229 0.53746 0.0
N852 N 0.71485 0.35716 0.53567 0.0
N853 N 0.70564 0.38875 0.5363 0.0
C854 C 0.78474 0.38235 0.53445 0.0
C855 C 0.78968 0.36522 0.53425 0.0
C856 C 0.69041 0.11502 0.78216 0.0
C857 C 0.61137 0.10728 0.78246 0.0
C858 C 0.69592 0.13181 0.78261 0.0
C859 C 0.62267 0.14149 0.78378 0.0
H860 H 0.74827 0.1081 0.77982 0.0
H861 H 0.75817 0.13725 0.78085 0.0
S862 S 0.40098 0.12698 0.78984 0.0
N863 N 0.45851 0.11045 0.78748 0.0
N864 N 0.46911 0.14202 0.78865 0.0
C865 C 0.54354 0.13388 0.78646 0.0
C866 C 0.53785 0.11677 0.78567 0.0
C867 C 0.53934 0.13104 0.46184 0.0
C868 C 0.61117 0.14104 0.45918 0.0
C869 C 0.5465 0.11427 0.46051 0.0
C870 C 0.6259 0.10688 0.45684 0.0
H871 H 0.47712 0.13616 0.46608 0.0
H872 H 0.48997 0.10708 0.46411 0.0
S873 S 0.83219 0.12756 0.44445 0.0
N874 N 0.76316 0.14228 0.44933 0.0
N875 N 0.77688 0.11077 0.44715 0.0
C876 C 0.69762 0.11672 0.45218 0.0
C877 C 0.6902 0.1338 0.45323 0.0
C878 C 0.30447 0.88427 0.20667 0.0
C879 C 0.38421 0.89169 0.20483 0.0
C880 C 0.29726 0.8675 0.2071 0.0
C881 C 0.36943 0.85756 0.2053 0.0
H882 H 0.24764 0.89143 0.20974 0.0
H883 H 0.23473 0.86232 0.21015 0.0
S884 S 0.59167 0.87119 0.19477 0.0
N885 N 0.53602 0.88794 0.19735 0.0
N886 N 0.52229 0.85641 0.19781 0.0
C887 C 0.44894 0.86484 0.20088 0.0
C888 C 0.45637 0.88192 0.20077 0.0
C889 C 0.2902 0.88136 0.53075 0.0
C890 C 0.36242 0.89129 0.53287 0.0
C891 C 0.29715 0.86459 0.53131 0.0
C892 C 0.37669 0.85713 0.53365 0.0
H893 H 0.22783 0.88656 0.52738 0.0
H894 H 0.24028 0.85746 0.52805 0.0
S895 S 0.58411 0.87759 0.54457 0.0
N896 N 0.51504 0.89239 0.54108 0.0
N897 N 0.52833 0.86086 0.54184 0.0
C898 C 0.44887 0.86689 0.53797 0.0
C899 C 0.44169 0.88398 0.5377 0.0
C900 C 0.55422 0.63367 0.28143 0.0
C901 C 0.63339 0.64136 0.28127 0.0
C902 C 0.54843 0.61688 0.28075 0.0
C903 C 0.62156 0.60717 0.28027 0.0
H904 H 0.49631 0.64064 0.28041 0.0
H905 H 0.48598 0.6115 0.27953 0.0
S906 S 0.84396 0.62146 0.28408 0.0
N907 N 0.78658 0.63803 0.28381 0.0
N908 N 0.77544 0.60648 0.2828 0.0
C909 C 0.70102 0.6147 0.28231 0.0
C910 C 0.70699 0.6318 0.28271 0.0
C911 C 0.68673 0.6326 0.95906 0.0
C912 C 0.60799 0.64037 0.95704 0.0
C913 C 0.69194 0.6158 0.95918 0.0
C914 C 0.61871 0.60616 0.95691 0.0
H915 H 0.74443 0.63949 0.96228 0.0
H916 H 0.75383 0.61036 0.96221 0.0
S917 S 0.39827 0.62074 0.94628 0.0
N918 N 0.4558 0.63725 0.94926 0.0
N919 N 0.46587 0.60567 0.94919 0.0
C920 C 0.54012 0.61379 0.95257 0.0
C921 C 0.5347 0.63091 0.95275 0.0
C922 C 0.29761 0.38385 0.70437 0.0
C923 C 0.37712 0.39129 0.7016 0.0
C924 C 0.29058 0.36707 0.70511 0.0
C925 C 0.36266 0.35712 0.70271 0.0
H926 H 0.24093 0.391 0.70797 0.0
H927 H 0.2283 0.36189 0.70889 0.0
S928 S 0.58402 0.3708 0.6897 0.0
N929 N 0.52843 0.38754 0.69262 0.0
N930 N 0.51498 0.35601 0.69365 0.0
C931 C 0.44178 0.36443 0.69735 0.0
C932 C 0.44905 0.38152 0.69693 0.0
C933 C 0.29964 0.37962 0.02965 0.0
C934 C 0.37044 0.38993 0.0311 0.0
C935 C 0.30916 0.3629 0.03002 0.0
C936 C 0.3899 0.35587 0.03151 0.0
H937 H 0.23633 0.38447 0.02687 0.0
H938 H 0.2532 0.35547 0.02721 0.0
S939 S 0.5947 0.37744 0.04077 0.0
N940 N 0.52324 0.39186 0.03799 0.0
N941 N 0.54135 0.36041 0.03842 0.0
C942 C 0.46081 0.36601 0.03531 0.0
C943 C 0.45103 0.38305 0.03521 0.0
C944 C 0.94979 0.04878 0.37022 0.0
C945 C 0.91806 0.04876 0.33661 0.0
C946 C 0.89536 0.04894 0.39842 0.0
C947 C 0.80697 0.04907 0.39415 0.0
H948 H 0.01743 0.04923 0.37493 0.0
H949 H 0.923 0.04951 0.42371 0.0
S950 S 0.69145 0.04721 0.31153 0.0
N951 N 0.79254 0.04752 0.30066 0.0
N952 N 0.68988 0.04776 0.35368 0.0
C953 C 0.77423 0.04817 0.36071 0.0
C954 C 0.82983 0.04803 0.33193 0.0
C955 C 0.39752 0.19687 0.33913 0.0
C956 C 0.30911 0.19775 0.34294 0.0
C957 C 0.45106 0.19685 0.36763 0.0
C958 C 0.41831 0.19768 0.40105 0.0
H959 H 0.42564 0.19565 0.31402 0.0
H960 H 0.51861 0.19564 0.36334 0.0
S961 S 0.19183 0.20202 0.42477 0.0
N962 N 0.19139 0.20088 0.38267 0.0
N963 N 0.29229 0.20076 0.43621 0.0
C964 C 0.33031 0.19937 0.40519 0.0
C965 C 0.27567 0.19942 0.37613 0.0
C966 C 0.78605 0.19757 0.87625 0.0
C967 C 0.81523 0.19951 0.84251 0.0
C968 C 0.84229 0.1976 0.90391 0.0
C969 C 0.92984 0.19959 0.89888 0.0
H970 H 0.71952 0.19539 0.88133 0.0
H971 H 0.81721 0.19541 0.92924 0.0
S972 S 0.03721 0.20738 0.81607 0.0
N973 N 0.93636 0.20509 0.80597 0.0
N974 N 0.04219 0.20521 0.85793 0.0
C975 C 0.9593 0.2025 0.86549 0.0
C976 C 0.90198 0.20245 0.8373 0.0
C977 C 0.4029 0.05018 0.89971 0.0
C978 C 0.31481 0.04904 0.89512 0.0
C979 C 0.45801 0.05027 0.87171 0.0
C980 C 0.42718 0.04925 0.83803 0.0
H981 H 0.42951 0.0516 0.92504 0.0
H982 H 0.52517 0.05174 0.87657 0.0
S983 S 0.20252 0.044 0.81239 0.0
N984 N 0.19962 0.04532 0.85445 0.0
N985 N 0.30347 0.04557 0.80181 0.0
C986 C 0.33962 0.04721 0.83313 0.0
C987 C 0.28338 0.04709 0.86169 0.0
C988 C 0.20024 0.94833 0.62297 0.0
C989 C 0.16815 0.94871 0.58942 0.0
C990 C 0.14607 0.94817 0.65124 0.0
C991 C 0.05764 0.94839 0.6471 0.0
H992 H 0.26786 0.9476 0.62753 0.0
H993 H 0.17386 0.9473 0.67647 0.0
S994 S 0.94153 0.95131 0.56478 0.0
N995 N 0.04246 0.95069 0.55373 0.0
N996 N 0.94031 0.95045 0.6069 0.0
C997 C 0.02467 0.94965 0.61377 0.0
C998 C 0.07998 0.9498 0.58492 0.0
C999 C 0.58847 0.79936 0.65172 0.0
C1000 C 0.6768 0.79864 0.64743 0.0
C1001 C 0.53402 0.79949 0.6235 0.0
C1002 C 0.56576 0.79892 0.5899 0.0
H1003 H 0.56111 0.80043 0.677 0.0
H1004 H 0.46659 0.80063 0.62815 0.0
S1005 S 0.79164 0.79491 0.56493 0.0
N1006 N 0.79334 0.79582 0.60704 0.0
N1007 N 0.69079 0.79613 0.55403 0.0
C1008 C 0.65367 0.79729 0.58527 0.0
C1009 C 0.70922 0.79714 0.61404 0.0
C1010 C 0.09126 0.8011 0.15276 0.0
C1011 C 0.17925 0.79962 0.14826 0.0
C1012 C 0.0362 0.801 0.12473 0.0
C1013 C 0.06703 0.79943 0.09112 0.0
H1014 H 0.06479 0.80293 0.17799 0.0
H1015 H 0.96915 0.80273 0.12945 0.0
S1016 S 0.29123 0.79318 0.06586 0.0
N1017 N 0.29414 0.79503 0.10783 0.0
N1018 N 0.19046 0.79492 0.05518 0.0
C1019 C 0.1544 0.79708 0.08638 0.0
C1020 C 0.21054 0.79715 0.11495 0.0
C1021 C 0.60125 0.94841 0.08895 0.0
C1022 C 0.68956 0.94834 0.0935 0.0
C1023 C 0.54631 0.94862 0.117 0.0
C1024 C 0.57749 0.94874 0.15069 0.0
H1025 H 0.57411 0.94775 0.06358 0.0
H1026 H 0.47876 0.94812 0.11212 0.0
S1027 S 0.80359 0.95046 0.17643 0.0
N1028 N 0.80592 0.94981 0.13429 0.0
N1029 N 0.70233 0.95013 0.187 0.0
C1030 C 0.66561 0.94952 0.15562 0.0
C1031 C 0.7217 0.94934 0.12702 0.0
C1032 C 0.95231 0.55041 0.87463 0.0
C1033 C 0.92324 0.54959 0.84066 0.0
C1034 C 0.89576 0.55013 0.90218 0.0
C1035 C 0.8079 0.54902 0.89684 0.0
H1036 H 0.01924 0.5518 0.88008 0.0
H1037 H 0.92107 0.55137 0.92776 0.0
S1038 S 0.69984 0.54462 0.81303 0.0
N1039 N 0.80132 0.54622 0.80334 0.0
N1040 N 0.69482 0.54565 0.85509 0.0
C1041 C 0.7782 0.54734 0.86308 0.0
C1042 C 0.83589 0.54764 0.835 0.0
C1043 C 0.29201 0.69874 0.87321 0.0
C1044 C 0.32433 0.69921 0.83971 0.0
C1045 C 0.34603 0.69868 0.90154 0.0
C1046 C 0.43445 0.69911 0.89744 0.0
H1047 H 0.22441 0.6978 0.8777 0.0
H1048 H 0.3182 0.69767 0.92674 0.0
S1049 S 0.55084 0.70254 0.81527 0.0
N1050 N 0.45005 0.70165 0.80414 0.0
N1051 N 0.55186 0.7016 0.85738 0.0
C1052 C 0.46753 0.70055 0.86416 0.0
C1053 C 0.41241 0.70058 0.83528 0.0
C1054 C 0.95045 0.69831 0.36659 0.0
C1055 C 0.91908 0.69845 0.40026 0.0
C1056 C 0.89568 0.69847 0.33851 0.0
C1057 C 0.80736 0.69881 0.34299 0.0
H1058 H 0.01795 0.69753 0.36176 0.0
H1059 H 0.92289 0.69778 0.31315 0.0
S1060 S 0.69313 0.70119 0.42585 0.0
N1061 N 0.79424 0.70031 0.43649 0.0
N1062 N 0.69098 0.70069 0.3837 0.0
C1063 C 0.77515 0.69982 0.37649 0.0
C1064 C 0.83106 0.69962 0.40514 0.0
C1065 C 0.34932 0.55026 0.33928 0.0
C1066 C 0.43783 0.54986 0.34311 0.0
C1067 C 0.29575 0.55034 0.36778 0.0
C1068 C 0.32858 0.55004 0.40122 0.0
H1069 H 0.32107 0.55107 0.31413 0.0
H1070 H 0.22806 0.55118 0.36347 0.0
S1071 S 0.5556 0.54715 0.42509 0.0
N1072 N 0.5559 0.54779 0.38295 0.0
N1073 N 0.45498 0.54801 0.43648 0.0
C1074 C 0.41679 0.54883 0.40541 0.0
C1075 C 0.47144 0.54872 0.37636 0.0
C1076 C 0.15021 0.44758 0.14927 0.0
C1077 C 0.06165 0.44777 0.14559 0.0
C1078 C 0.20345 0.4473 0.12069 0.0
C1079 C 0.17022 0.44716 0.08732 0.0
H1080 H 0.1788 0.44712 0.1744 0.0
H1081 H 0.27123 0.44665 0.12492 0.0
S1082 S 0.9428 0.44931 0.06371 0.0
N1083 N 0.943 0.44914 0.10587 0.0
N1084 N 0.04335 0.44853 0.05219 0.0
C1085 C 0.08191 0.44815 0.08322 0.0
C1086 C 0.02758 0.44848 0.11235 0.0
C1087 C 0.60466 0.29915 0.1485 0.0
C1088 C 0.69318 0.29912 0.14468 0.0
C1089 C 0.55119 0.29893 0.12 0.0
C1090 C 0.58413 0.29871 0.08658 0.0
H1091 H 0.57622 0.29989 0.17363 0.0
H1092 H 0.48342 0.29952 0.12431 0.0
S1093 S 0.81145 0.29665 0.06275 0.0
N1094 N 0.81159 0.29741 0.10489 0.0
N1095 N 0.71077 0.29708 0.05134 0.0
C1096 C 0.67245 0.29782 0.08239 0.0
C1097 C 0.72704 0.298 0.11145 0.0
C1098 C 0.02877 0.30158 0.62374 0.0
C1099 C 0.05895 0.29966 0.59013 0.0
C1100 C 0.08416 0.30151 0.65167 0.0
C1101 C 0.17182 0.29949 0.64705 0.0
H1102 H 0.96211 0.30376 0.62853 0.0
H1103 H 0.05828 0.30366 0.67689 0.0
S1104 S 0.28168 0.29186 0.56465 0.0
N1105 N 0.18113 0.29416 0.5541 0.0
N1106 N 0.2854 0.29395 0.60656 0.0
C1107 C 0.2023 0.29663 0.61376 0.0
C1108 C 0.14584 0.29674 0.5853 0.0
C1109 C 0.53934 0.44875 0.61458 0.0
C1110 C 0.56959 0.4494 0.64839 0.0
C1111 C 0.59503 0.44901 0.58674 0.0
C1112 C 0.6831 0.44995 0.59166 0.0
H1113 H 0.47221 0.44742 0.60948 0.0
H1114 H 0.5689 0.44782 0.56128 0.0
S1115 S 0.79395 0.4541 0.67493 0.0
N1116 N 0.69274 0.45259 0.68512 0.0
N1117 N 0.7976 0.45315 0.63284 0.0
C1118 C 0.71392 0.45157 0.62526 0.0
C1119 C 0.65713 0.45128 0.65362 0.0
loop_
_geom_bond_atom_site_label_1
_geom_bond_atom_site_label_2
_geom_bond_distance
_geom_bond_site_symmetry_2
_ccdc_geom_bond_type
In0 O1 2.294 1_455 S
In0 O2 2.326 . S
In0 O6 2.266 . S
In0 O7 2.326 . S
In0 O8 2.266 . S
In0 O9 2.326 . S
In0 O11 2.294 . S
In0 O12 2.326 . S
O1 In0 2.294 1_655 S
O1 C10 1.240 1_655 S
O2 In0 2.326 . S
O2 C10 1.252 . S
C3 O6 1.252 . S
C3 O7 1.260 . S
C4 O11 1.240 . S
C4 O12 1.252 . S
C5 O8 1.252 . S
C5 O9 1.260 . S
O6 In0 2.266 . S
O6 C3 1.252 . S
O7 In0 2.326 . S
O7 C3 1.260 . S
O8 In0 2.266 . S
O8 C5 1.252 . S
O9 In0 2.326 . S
O9 C5 1.260 . S
C10 O1 1.240 1_455 S
C10 O2 1.252 . S
O11 In0 2.294 . S
O11 C4 1.240 . S
O12 In0 2.326 . S
O12 C4 1.252 . S
In13 O14 2.294 . S
In13 O15 2.326 . S
In13 O19 2.266 . S
In13 O20 2.326 . S
In13 O21 2.266 . S
In13 O22 2.326 . S
In13 O24 2.294 . S
In13 O25 2.326 . S
O14 In13 2.294 . S
O14 C23 1.240 . S
O15 In13 2.326 . S
O15 C23 1.252 . S
C16 O19 1.252 . S
C16 O20 1.260 . S
C17 O24 1.240 . S
C17 O25 1.252 . S
C18 O21 1.252 . S
C18 O22 1.260 . S
O19 In13 2.266 . S
O19 C16 1.252 . S
O20 In13 2.326 . S
O20 C16 1.260 . S
O21 In13 2.266 . S
O21 C18 1.252 . S
O22 In13 2.326 . S
O22 C18 1.260 . S
C23 O14 1.240 . S
C23 O15 1.252 . S
O24 In13 2.294 . S
O24 C17 1.240 . S
O25 In13 2.326 . S
O25 C17 1.252 . S
In26 O27 2.294 . S
In26 O28 2.326 . S
In26 O32 2.266 . S
In26 O33 2.326 . S
In26 O34 2.266 1_556 S
In26 O35 2.326 1_556 S
In26 O37 2.294 1_455 S
In26 O38 2.326 . S
O27 In26 2.294 . S
O27 C36 1.240 . S
O28 In26 2.326 . S
O28 C36 1.252 . S
C29 O32 1.252 . S
C29 O33 1.260 . S
C30 O37 1.240 1_455 S
C30 O38 1.252 . S
C31 O34 1.252 . S
C31 O35 1.260 . S
O32 In26 2.266 . S
O32 C29 1.252 . S
O33 In26 2.326 . S
O33 C29 1.260 . S
O34 In26 2.266 1_554 S
O34 C31 1.252 . S
O35 In26 2.326 1_554 S
O35 C31 1.260 . S
C36 O27 1.240 . S
C36 O28 1.252 . S
O37 In26 2.294 1_655 S
O37 C30 1.240 1_655 S
O38 In26 2.326 . S
O38 C30 1.252 . S
In39 O40 2.294 . S
In39 O41 2.326 . S
In39 O45 2.266 1_556 S
In39 O46 2.326 1_556 S
In39 O47 2.266 . S
In39 O48 2.326 . S
In39 O50 2.294 . S
In39 O51 2.326 . S
O40 In39 2.294 . S
O40 C49 1.240 . S
O41 In39 2.326 . S
O41 C49 1.252 . S
C42 O45 1.252 . S
C42 O46 1.260 . S
C43 O50 1.240 . S
C43 O51 1.252 . S
C44 O47 1.252 . S
C44 O48 1.260 . S
O45 In39 2.266 1_554 S
O45 C42 1.252 . S
O46 In39 2.326 1_554 S
O46 C42 1.260 . S
O47 In39 2.266 . S
O47 C44 1.252 . S
O48 In39 2.326 . S
O48 C44 1.260 . S
C49 O40 1.240 . S
C49 O41 1.252 . S
O50 In39 2.294 . S
O50 C43 1.240 . S
O51 In39 2.326 . S
O51 C43 1.252 . S
In52 O53 2.294 . S
In52 O54 2.326 . S
In52 O58 2.266 . S
In52 O59 2.326 . S
In52 O60 2.266 . S
In52 O61 2.326 . S
In52 O63 2.294 1_655 S
In52 O64 2.326 . S
O53 In52 2.294 . S
O53 C62 1.240 . S
O54 In52 2.326 . S
O54 C62 1.252 . S
C55 O58 1.252 . S
C55 O59 1.260 . S
C56 O63 1.240 1_655 S
C56 O64 1.252 . S
C57 O60 1.252 . S
C57 O61 1.260 . S
O58 In52 2.266 . S
O58 C55 1.252 . S
O59 In52 2.326 . S
O59 C55 1.260 . S
O60 In52 2.266 . S
O60 C57 1.252 . S
O61 In52 2.326 . S
O61 C57 1.260 . S
C62 O53 1.240 . S
C62 O54 1.252 . S
O63 In52 2.294 1_455 S
O63 C56 1.240 1_455 S
O64 In52 2.326 . S
O64 C56 1.252 . S
In65 O66 2.294 . S
In65 O67 2.326 . S
In65 O71 2.266 . S
In65 O72 2.326 . S
In65 O73 2.266 . S
In65 O74 2.326 . S
In65 O76 2.294 . S
In65 O77 2.326 . S
O66 In65 2.294 . S
O66 C75 1.240 . S
O67 In65 2.326 . S
O67 C75 1.252 . S
C68 O71 1.252 . S
C68 O72 1.260 . S
C69 O76 1.240 . S
C69 O77 1.252 . S
C70 O73 1.252 . S
C70 O74 1.260 . S
O71 In65 2.266 . S
O71 C68 1.252 . S
O72 In65 2.326 . S
O72 C68 1.260 . S
O73 In65 2.266 . S
O73 C70 1.252 . S
O74 In65 2.326 . S
O74 C70 1.260 . S
C75 O66 1.240 . S
C75 O67 1.252 . S
O76 In65 2.294 . S
O76 C69 1.240 . S
O77 In65 2.326 . S
O77 C69 1.252 . S
In78 O79 2.294 1_655 S
In78 O80 2.326 . S
In78 O84 2.266 1_554 S
In78 O85 2.326 1_554 S
In78 O86 2.266 . S
In78 O87 2.326 . S
In78 O89 2.294 . S
In78 O90 2.326 . S
O79 In78 2.294 1_455 S
O79 C88 1.240 1_455 S
O80 In78 2.326 . S
O80 C88 1.252 . S
C81 O84 1.252 . S
C81 O85 1.260 . S
C82 O89 1.240 . S
C82 O90 1.252 . S
C83 O86 1.252 . S
C83 O87 1.260 . S
O84 In78 2.266 1_556 S
O84 C81 1.252 . S
O85 In78 2.326 1_556 S
O85 C81 1.260 . S
O86 In78 2.266 . S
O86 C83 1.252 . S
O87 In78 2.326 . S
O87 C83 1.260 . S
C88 O79 1.240 1_655 S
C88 O80 1.252 . S
O89 In78 2.294 . S
O89 C82 1.240 . S
O90 In78 2.326 . S
O90 C82 1.252 . S
In91 O92 2.294 . S
In91 O93 2.326 . S
In91 O97 2.266 1_554 S
In91 O98 2.326 1_554 S
In91 O99 2.266 . S
In91 O100 2.326 . S
In91 O102 2.294 . S
In91 O103 2.326 . S
O92 In91 2.294 . S
O92 C101 1.240 . S
O93 In91 2.326 . S
O93 C101 1.252 . S
C94 O97 1.252 . S
C94 O98 1.260 . S
C95 O102 1.240 . S
C95 O103 1.252 . S
C96 O99 1.252 . S
C96 O100 1.260 . S
O97 In91 2.266 1_556 S
O97 C94 1.252 . S
O98 In91 2.326 1_556 S
O98 C94 1.260 . S
O99 In91 2.266 . S
O99 C96 1.252 . S
O100 In91 2.326 . S
O100 C96 1.260 . S
C101 O92 1.240 . S
C101 O93 1.252 . S
O102 In91 2.294 . S
O102 C95 1.240 . S
O103 In91 2.326 . S
O103 C95 1.252 . S
In104 O105 2.294 . S
In104 O106 2.326 . S
In104 O110 2.266 . S
In104 O111 2.326 . S
In104 O112 2.266 . S
In104 O113 2.326 . S
In104 O115 2.294 1_455 S
In104 O116 2.326 . S
O105 In104 2.294 . S
O105 C114 1.240 . S
O106 In104 2.326 . S
O106 C114 1.252 . S
C107 O110 1.252 . S
C107 O111 1.260 . S
C108 O115 1.240 1_455 S
C108 O116 1.252 . S
C109 O112 1.252 . S
C109 O113 1.260 . S
O110 In104 2.266 . S
O110 C107 1.252 . S
O111 In104 2.326 . S
O111 C107 1.260 . S
O112 In104 2.266 . S
O112 C109 1.252 . S
O113 In104 2.326 . S
O113 C109 1.260 . S
C114 O105 1.240 . S
C114 O106 1.252 . S
O115 In104 2.294 1_655 S
O115 C108 1.240 1_655 S
O116 In104 2.326 . S
O116 C108 1.252 . S
In117 O118 2.294 . S
In117 O119 2.326 . S
In117 O123 2.266 . S
In117 O124 2.326 . S
In117 O125 2.266 . S
In117 O126 2.326 . S
In117 O128 2.294 . S
In117 O129 2.326 . S
O118 In117 2.294 . S
O118 C127 1.240 . S
O119 In117 2.326 . S
O119 C127 1.252 . S
C120 O123 1.252 . S
C120 O124 1.260 . S
C121 O128 1.240 . S
C121 O129 1.252 . S
C122 O125 1.252 . S
C122 O126 1.260 . S
O123 In117 2.266 . S
O123 C120 1.252 . S
O124 In117 2.326 . S
O124 C120 1.260 . S
O125 In117 2.266 . S
O125 C122 1.252 . S
O126 In117 2.326 . S
O126 C122 1.260 . S
C127 O118 1.240 . S
C127 O119 1.252 . S
O128 In117 2.294 . S
O128 C121 1.240 . S
O129 In117 2.326 . S
O129 C121 1.252 . S
In130 O131 2.294 . S
In130 O132 2.326 . S
In130 O136 2.266 . S
In130 O137 2.326 . S
In130 O138 2.266 . S
In130 O139 2.326 . S
In130 O141 2.294 1_455 S
In130 O142 2.326 . S
O131 In130 2.294 . S
O131 C140 1.240 . S
O132 In130 2.326 . S
O132 C140 1.252 . S
C133 O136 1.252 . S
C133 O137 1.260 . S
C134 O141 1.240 1_455 S
C134 O142 1.252 . S
C135 O138 1.252 . S
C135 O139 1.260 . S
O136 In130 2.266 . S
O136 C133 1.252 . S
O137 In130 2.326 . S
O137 C133 1.260 . S
O138 In130 2.266 . S
O138 C135 1.252 . S
O139 In130 2.326 . S
O139 C135 1.260 . S
C140 O131 1.240 . S
C140 O132 1.252 . S
O141 In130 2.294 1_655 S
O141 C134 1.240 1_655 S
O142 In130 2.326 . S
O142 C134 1.252 . S
In143 O144 2.294 . S
In143 O145 2.326 . S
In143 O149 2.266 . S
In143 O150 2.326 . S
In143 O151 2.266 . S
In143 O152 2.326 . S
In143 O154 2.294 . S
In143 O155 2.326 . S
O144 In143 2.294 . S
O144 C153 1.240 . S
O145 In143 2.326 . S
O145 C153 1.252 . S
C146 O149 1.252 . S
C146 O150 1.260 . S
C147 O154 1.240 . S
C147 O155 1.252 . S
C148 O151 1.252 . S
C148 O152 1.260 . S
O149 In143 2.266 . S
O149 C146 1.252 . S
O150 In143 2.326 . S
O150 C146 1.260 . S
O151 In143 2.266 . S
O151 C148 1.252 . S
O152 In143 2.326 . S
O152 C148 1.260 . S
C153 O144 1.240 . S
C153 O145 1.252 . S
O154 In143 2.294 . S
O154 C147 1.240 . S
O155 In143 2.326 . S
O155 C147 1.252 . S
In156 O157 2.294 . S
In156 O158 2.326 . S
In156 O162 2.266 . S
In156 O163 2.326 . S
In156 O164 2.266 . S
In156 O165 2.326 . S
In156 O167 2.294 1_655 S
In156 O168 2.326 . S
O157 In156 2.294 . S
O157 C166 1.240 . S
O158 In156 2.326 . S
O158 C166 1.252 . S
C159 O162 1.252 . S
C159 O163 1.260 . S
C160 O167 1.240 1_655 S
C160 O168 1.252 . S
C161 O164 1.252 . S
C161 O165 1.260 . S
O162 In156 2.266 . S
O162 C159 1.252 . S
O163 In156 2.326 . S
O163 C159 1.260 . S
O164 In156 2.266 . S
O164 C161 1.252 . S
O165 In156 2.326 . S
O165 C161 1.260 . S
C166 O157 1.240 . S
C166 O158 1.252 . S
O167 In156 2.294 1_455 S
O167 C160 1.240 1_455 S
O168 In156 2.326 . S
O168 C160 1.252 . S
In169 O170 2.294 . S
In169 O171 2.326 . S
In169 O175 2.266 . S
In169 O176 2.326 . S
In169 O177 2.266 . S
In169 O178 2.326 . S
In169 O180 2.294 . S
In169 O181 2.326 . S
O170 In169 2.294 . S
O170 C179 1.240 . S
O171 In169 2.326 . S
O171 C179 1.252 . S
C172 O175 1.252 . S
C172 O176 1.260 . S
C173 O180 1.240 . S
C173 O181 1.252 . S
C174 O177 1.252 . S
C174 O178 1.260 . S
O175 In169 2.266 . S
O175 C172 1.252 . S
O176 In169 2.326 . S
O176 C172 1.260 . S
O177 In169 2.266 . S
O177 C174 1.252 . S
O178 In169 2.326 . S
O178 C174 1.260 . S
C179 O170 1.240 . S
C179 O171 1.252 . S
O180 In169 2.294 . S
O180 C173 1.240 . S
O181 In169 2.326 . S
O181 C173 1.252 . S
In182 O183 2.294 1_655 S
In182 O184 2.326 . S
In182 O188 2.266 . S
In182 O189 2.326 . S
In182 O190 2.266 . S
In182 O191 2.326 . S
In182 O193 2.294 . S
In182 O194 2.326 . S
O183 In182 2.294 1_455 S
O183 C192 1.240 1_455 S
O184 In182 2.326 . S
O184 C192 1.252 . S
C185 O188 1.252 . S
C185 O189 1.260 . S
C186 O193 1.240 . S
C186 O194 1.252 . S
C187 O190 1.252 . S
C187 O191 1.260 . S
O188 In182 2.266 . S
O188 C185 1.252 . S
O189 In182 2.326 . S
O189 C185 1.260 . S
O190 In182 2.266 . S
O190 C187 1.252 . S
O191 In182 2.326 . S
O191 C187 1.260 . S
C192 O183 1.240 1_655 S
C192 O184 1.252 . S
O193 In182 2.294 . S
O193 C186 1.240 . S
O194 In182 2.326 . S
O194 C186 1.252 . S
In195 O196 2.294 . S
In195 O197 2.326 . S
In195 O201 2.266 . S
In195 O202 2.326 . S
In195 O203 2.266 . S
In195 O204 2.326 . S
In195 O206 2.294 . S
In195 O207 2.326 . S
O196 In195 2.294 . S
O196 C205 1.240 . S
O197 In195 2.326 . S
O197 C205 1.252 . S
C198 O201 1.252 . S
C198 O202 1.260 . S
C199 O206 1.240 . S
C199 O207 1.252 . S
C200 O203 1.252 . S
C200 O204 1.260 . S
O201 In195 2.266 . S
O201 C198 1.252 . S
O202 In195 2.326 . S
O202 C198 1.260 . S
O203 In195 2.266 . S
O203 C200 1.252 . S
O204 In195 2.326 . S
O204 C200 1.260 . S
C205 O196 1.240 . S
C205 O197 1.252 . S
O206 In195 2.294 . S
O206 C199 1.240 . S
O207 In195 2.326 . S
O207 C199 1.252 . S
In208 O209 2.294 . S
In208 O210 2.326 . S
In208 O214 2.266 . S
In208 O215 2.326 . S
In208 O216 2.266 . S
In208 O217 2.326 . S
In208 O219 2.294 . S
In208 O220 2.326 . S
O209 In208 2.294 . S
O209 C218 1.240 . S
O210 In208 2.326 . S
O210 C218 1.252 . S
C211 O214 1.252 . S
C211 O215 1.260 . S
C212 O219 1.240 . S
C212 O220 1.252 . S
C213 O216 1.252 . S
C213 O217 1.260 . S
O214 In208 2.266 . S
O214 C211 1.252 . S
O215 In208 2.326 . S
O215 C211 1.260 . S
O216 In208 2.266 . S
O216 C213 1.252 . S
O217 In208 2.326 . S
O217 C213 1.260 . S
C218 O209 1.240 . S
C218 O210 1.252 . S
O219 In208 2.294 . S
O219 C212 1.240 . S
O220 In208 2.326 . S
O220 C212 1.252 . S
In221 O222 2.294 . S
In221 O223 2.326 . S
In221 O227 2.266 . S
In221 O228 2.326 . S
In221 O229 2.266 . S
In221 O230 2.326 . S
In221 O232 2.294 . S
In221 O233 2.326 . S
O222 In221 2.294 . S
O222 C231 1.240 . S
O223 In221 2.326 . S
O223 C231 1.252 . S
C224 O227 1.252 . S
C224 O228 1.260 . S
C225 O232 1.240 . S
C225 O233 1.252 . S
C226 O229 1.252 . S
C226 O230 1.260 . S
O227 In221 2.266 . S
O227 C224 1.252 . S
O228 In221 2.326 . S
O228 C224 1.260 . S
O229 In221 2.266 . S
O229 C226 1.252 . S
O230 In221 2.326 . S
O230 C226 1.260 . S
C231 O222 1.240 . S
C231 O223 1.252 . S
O232 In221 2.294 . S
O232 C225 1.240 . S
O233 In221 2.326 . S
O233 C225 1.252 . S
In234 O235 2.294 . S
In234 O236 2.326 . S
In234 O240 2.266 . S
In234 O241 2.326 . S
In234 O242 2.266 . S
In234 O243 2.326 . S
In234 O245 2.294 . S
In234 O246 2.326 . S
O235 In234 2.294 . S
O235 C244 1.240 . S
O236 In234 2.326 . S
O236 C244 1.252 . S
C237 O240 1.252 . S
C237 O241 1.260 . S
C238 O245 1.240 . S
C238 O246 1.252 . S
C239 O242 1.252 . S
C239 O243 1.260 . S
O240 In234 2.266 . S
O240 C237 1.252 . S
O241 In234 2.326 . S
O241 C237 1.260 . S
O242 In234 2.266 . S
O242 C239 1.252 . S
O243 In234 2.326 . S
O243 C239 1.260 . S
C244 O235 1.240 . S
C244 O236 1.252 . S
O245 In234 2.294 . S
O245 C238 1.240 . S
O246 In234 2.326 . S
O246 C238 1.252 . S
In247 O248 2.294 . S
In247 O249 2.326 . S
In247 O253 2.266 . S
In247 O254 2.326 . S
In247 O255 2.266 . S
In247 O256 2.326 . S
In247 O258 2.294 . S
In247 O259 2.326 . S
O248 In247 2.294 . S
O248 C257 1.240 . S
O249 In247 2.326 . S
O249 C257 1.252 . S
C250 O253 1.252 . S
C250 O254 1.260 . S
C251 O258 1.240 . S
C251 O259 1.252 . S
C252 O255 1.252 . S
C252 O256 1.260 . S
O253 In247 2.266 . S
O253 C250 1.252 . S
O254 In247 2.326 . S
O254 C250 1.260 . S
O255 In247 2.266 . S
O255 C252 1.252 . S
O256 In247 2.326 . S
O256 C252 1.260 . S
C257 O248 1.240 . S
C257 O249 1.252 . S
O258 In247 2.294 . S
O258 C251 1.240 . S
O259 In247 2.326 . S
O259 C251 1.252 . S
In260 O261 2.294 . S
In260 O262 2.326 . S
In260 O266 2.266 . S
In260 O267 2.326 . S
In260 O268 2.266 . S
In260 O269 2.326 . S
In260 O271 2.294 . S
In260 O272 2.326 . S
O261 In260 2.294 . S
O261 C270 1.240 . S
O262 In260 2.326 . S
O262 C270 1.252 . S
C263 O266 1.252 . S
C263 O267 1.260 . S
C264 O271 1.240 . S
C264 O272 1.252 . S
C265 O268 1.252 . S
C265 O269 1.260 . S
O266 In260 2.266 . S
O266 C263 1.252 . S
O267 In260 2.326 . S
O267 C263 1.260 . S
O268 In260 2.266 . S
O268 C265 1.252 . S
O269 In260 2.326 . S
O269 C265 1.260 . S
C270 O261 1.240 . S
C270 O262 1.252 . S
O271 In260 2.294 . S
O271 C264 1.240 . S
O272 In260 2.326 . S
O272 C264 1.252 . S
In273 O274 2.294 . S
In273 O275 2.326 . S
In273 O279 2.266 . S
In273 O280 2.326 . S
In273 O281 2.266 . S
In273 O282 2.326 . S
In273 O284 2.294 . S
In273 O285 2.326 . S
O274 In273 2.294 . S
O274 C283 1.240 . S
O275 In273 2.326 . S
O275 C283 1.252 . S
C276 O279 1.252 . S
C276 O280 1.260 . S
C277 O284 1.240 . S
C277 O285 1.252 . S
C278 O281 1.252 . S
C278 O282 1.260 . S
O279 In273 2.266 . S
O279 C276 1.252 . S
O280 In273 2.326 . S
O280 C276 1.260 . S
O281 In273 2.266 . S
O281 C278 1.252 . S
O282 In273 2.326 . S
O282 C278 1.260 . S
C283 O274 1.240 . S
C283 O275 1.252 . S
O284 In273 2.294 . S
O284 C277 1.240 . S
O285 In273 2.326 . S
O285 C277 1.252 . S
In286 O287 2.294 . S
In286 O288 2.326 . S
In286 O292 2.266 . S
In286 O293 2.326 . S
In286 O294 2.266 . S
In286 O295 2.326 . S
In286 O297 2.294 . S
In286 O298 2.326 . S
O287 In286 2.294 . S
O287 C296 1.240 . S
O288 In286 2.326 . S
O288 C296 1.252 . S
C289 O292 1.252 . S
C289 O293 1.260 . S
C290 O297 1.240 . S
C290 O298 1.252 . S
C291 O294 1.252 . S
C291 O295 1.260 . S
O292 In286 2.266 . S
O292 C289 1.252 . S
O293 In286 2.326 . S
O293 C289 1.260 . S
O294 In286 2.266 . S
O294 C291 1.252 . S
O295 In286 2.326 . S
O295 C291 1.260 . S
C296 O287 1.240 . S
C296 O288 1.252 . S
O297 In286 2.294 . S
O297 C290 1.240 . S
O298 In286 2.326 . S
O298 C290 1.252 . S
In299 O300 2.294 . S
In299 O301 2.326 . S
In299 O305 2.266 . S
In299 O306 2.326 . S
In299 O307 2.266 . S
In299 O308 2.326 . S
In299 O310 2.294 . S
In299 O311 2.326 . S
O300 In299 2.294 . S
O300 C309 1.240 . S
O301 In299 2.326 . S
O301 C309 1.252 . S
C302 O305 1.252 . S
C302 O306 1.260 . S
C303 O310 1.240 . S
C303 O311 1.252 . S
C304 O307 1.252 . S
C304 O308 1.260 . S
O305 In299 2.266 . S
O305 C302 1.252 . S
O306 In299 2.326 . S
O306 C302 1.260 . S
O307 In299 2.266 . S
O307 C304 1.252 . S
O308 In299 2.326 . S
O308 C304 1.260 . S
C309 O300 1.240 . S
C309 O301 1.252 . S
O310 In299 2.294 . S
O310 C303 1.240 . S
O311 In299 2.326 . S
O311 C303 1.252 . S
In312 O313 2.294 . S
In312 O314 2.326 . S
In312 O318 2.266 . S
In312 O319 2.326 . S
In312 O320 2.266 . S
In312 O321 2.326 . S
In312 O323 2.294 . S
In312 O324 2.326 . S
O313 In312 2.294 . S
O313 C322 1.240 . S
O314 In312 2.326 . S
O314 C322 1.252 . S
C315 O318 1.252 . S
C315 O319 1.260 . S
C316 O323 1.240 . S
C316 O324 1.252 . S
C317 O320 1.252 . S
C317 O321 1.260 . S
O318 In312 2.266 . S
O318 C315 1.252 . S
O319 In312 2.326 . S
O319 C315 1.260 . S
O320 In312 2.266 . S
O320 C317 1.252 . S
O321 In312 2.326 . S
O321 C317 1.260 . S
C322 O313 1.240 . S
C322 O314 1.252 . S
O323 In312 2.294 . S
O323 C316 1.240 . S
O324 In312 2.326 . S
O324 C316 1.252 . S
In325 O326 2.294 . S
In325 O327 2.326 . S
In325 O331 2.266 . S
In325 O332 2.326 . S
In325 O333 2.266 . S
In325 O334 2.326 . S
In325 O336 2.294 . S
In325 O337 2.326 . S
O326 In325 2.294 . S
O326 C335 1.240 . S
O327 In325 2.326 . S
O327 C335 1.252 . S
C328 O331 1.252 . S
C328 O332 1.260 . S
C329 O336 1.240 . S
C329 O337 1.252 . S
C330 O333 1.252 . S
C330 O334 1.260 . S
O331 In325 2.266 . S
O331 C328 1.252 . S
O332 In325 2.326 . S
O332 C328 1.260 . S
O333 In325 2.266 . S
O333 C330 1.252 . S
O334 In325 2.326 . S
O334 C330 1.260 . S
C335 O326 1.240 . S
C335 O327 1.252 . S
O336 In325 2.294 . S
O336 C329 1.240 . S
O337 In325 2.326 . S
O337 C329 1.252 . S
In338 O339 2.294 . S
In338 O340 2.326 . S
In338 O344 2.266 1_556 S
In338 O345 2.326 1_556 S
In338 O346 2.266 . S
In338 O347 2.326 . S
In338 O349 2.294 . S
In338 O350 2.326 . S
O339 In338 2.294 . S
O339 C348 1.240 . S
O340 In338 2.326 . S
O340 C348 1.252 . S
C341 O344 1.252 . S
C341 O345 1.260 . S
C342 O349 1.240 . S
C342 O350 1.252 . S
C343 O346 1.252 . S
C343 O347 1.260 . S
O344 In338 2.266 1_554 S
O344 C341 1.252 . S
O345 In338 2.326 1_554 S
O345 C341 1.260 . S
O346 In338 2.266 . S
O346 C343 1.252 . S
O347 In338 2.326 . S
O347 C343 1.260 . S
C348 O339 1.240 . S
C348 O340 1.252 . S
O349 In338 2.294 . S
O349 C342 1.240 . S
O350 In338 2.326 . S
O350 C342 1.252 . S
In351 O352 2.294 . S
In351 O353 2.326 . S
In351 O357 2.266 1_556 S
In351 O358 2.326 1_556 S
In351 O359 2.266 . S
In351 O360 2.326 . S
In351 O362 2.294 . S
In351 O363 2.326 . S
O352 In351 2.294 . S
O352 C361 1.240 . S
O353 In351 2.326 . S
O353 C361 1.252 . S
C354 O357 1.252 . S
C354 O358 1.260 . S
C355 O362 1.240 . S
C355 O363 1.252 . S
C356 O359 1.252 . S
C356 O360 1.260 . S
O357 In351 2.266 1_554 S
O357 C354 1.252 . S
O358 In351 2.326 1_554 S
O358 C354 1.260 . S
O359 In351 2.266 . S
O359 C356 1.252 . S
O360 In351 2.326 . S
O360 C356 1.260 . S
C361 O352 1.240 . S
C361 O353 1.252 . S
O362 In351 2.294 . S
O362 C355 1.240 . S
O363 In351 2.326 . S
O363 C355 1.252 . S
In364 O365 2.294 . S
In364 O366 2.326 . S
In364 O370 2.266 . S
In364 O371 2.326 . S
In364 O372 2.266 . S
In364 O373 2.326 . S
In364 O375 2.294 . S
In364 O376 2.326 . S
O365 In364 2.294 . S
O365 C374 1.240 . S
O366 In364 2.326 . S
O366 C374 1.252 . S
C367 O370 1.252 . S
C367 O371 1.260 . S
C368 O375 1.240 . S
C368 O376 1.252 . S
C369 O372 1.252 . S
C369 O373 1.260 . S
O370 In364 2.266 . S
O370 C367 1.252 . S
O371 In364 2.326 . S
O371 C367 1.260 . S
O372 In364 2.266 . S
O372 C369 1.252 . S
O373 In364 2.326 . S
O373 C369 1.260 . S
C374 O365 1.240 . S
C374 O366 1.252 . S
O375 In364 2.294 . S
O375 C368 1.240 . S
O376 In364 2.326 . S
O376 C368 1.252 . S
In377 O378 2.294 . S
In377 O379 2.326 . S
In377 O383 2.266 . S
In377 O384 2.326 . S
In377 O385 2.266 . S
In377 O386 2.326 . S
In377 O388 2.294 . S
In377 O389 2.326 . S
O378 In377 2.294 . S
O378 C387 1.240 . S
O379 In377 2.326 . S
O379 C387 1.252 . S
C380 O383 1.252 . S
C380 O384 1.260 . S
C381 O388 1.240 . S
C381 O389 1.252 . S
C382 O385 1.252 . S
C382 O386 1.260 . S
O383 In377 2.266 . S
O383 C380 1.252 . S
O384 In377 2.326 . S
O384 C380 1.260 . S
O385 In377 2.266 . S
O385 C382 1.252 . S
O386 In377 2.326 . S
O386 C382 1.260 . S
C387 O378 1.240 . S
C387 O379 1.252 . S
O388 In377 2.294 . S
O388 C381 1.240 . S
O389 In377 2.326 . S
O389 C381 1.252 . S
In390 O391 2.294 . S
In390 O392 2.326 . S
In390 O396 2.266 1_554 S
In390 O397 2.326 1_554 S
In390 O398 2.266 . S
In390 O399 2.326 . S
In390 O401 2.294 . S
In390 O402 2.326 . S
O391 In390 2.294 . S
O391 C400 1.240 . S
O392 In390 2.326 . S
O392 C400 1.252 . S
C393 O396 1.252 . S
C393 O397 1.260 . S
C394 O401 1.240 . S
C394 O402 1.252 . S
C395 O398 1.252 . S
C395 O399 1.260 . S
O396 In390 2.266 1_556 S
O396 C393 1.252 . S
O397 In390 2.326 1_556 S
O397 C393 1.260 . S
O398 In390 2.266 . S
O398 C395 1.252 . S
O399 In390 2.326 . S
O399 C395 1.260 . S
C400 O391 1.240 . S
C400 O392 1.252 . S
O401 In390 2.294 . S
O401 C394 1.240 . S
O402 In390 2.326 . S
O402 C394 1.252 . S
In403 O404 2.294 . S
In403 O405 2.326 . S
In403 O409 2.266 . S
In403 O410 2.326 . S
In403 O411 2.266 1_554 S
In403 O412 2.326 1_554 S
In403 O414 2.294 . S
In403 O415 2.326 . S
O404 In403 2.294 . S
O404 C413 1.240 . S
O405 In403 2.326 . S
O405 C413 1.252 . S
C406 O409 1.252 . S
C406 O410 1.260 . S
C407 O414 1.240 . S
C407 O415 1.252 . S
C408 O411 1.252 . S
C408 O412 1.260 . S
O409 In403 2.266 . S
O409 C406 1.252 . S
O410 In403 2.326 . S
O410 C406 1.260 . S
O411 In403 2.266 1_556 S
O411 C408 1.252 . S
O412 In403 2.326 1_556 S
O412 C408 1.260 . S
C413 O404 1.240 . S
C413 O405 1.252 . S
O414 In403 2.294 . S
O414 C407 1.240 . S
O415 In403 2.326 . S
O415 C407 1.252 . S
C416 C417 1.369 . S
C416 C418 1.419 . S
C416 H420 0.930 . S
C417 C416 1.369 . S
C417 C426 1.429 . S
C418 C416 1.419 . S
C418 C419 1.363 . S
C418 H421 0.929 . S
C419 C418 1.363 . S
C419 C425 1.428 . S
H420 C416 0.930 . S
H421 C418 0.929 . S
S422 N423 1.613 . S
S422 N424 1.610 . S
N423 S422 1.613 . S
N423 C426 1.350 . S
N424 S422 1.610 . S
N424 C425 1.351 . S
C425 C419 1.428 . S
C425 N424 1.351 . S
C425 C426 1.434 . S
C426 C417 1.429 . S
C426 N423 1.350 . S
C426 C425 1.434 . S
C427 C428 1.369 . S
C427 C429 1.419 . S
C427 H431 0.930 . S
C428 C427 1.369 . S
C428 C437 1.429 . S
C429 C427 1.419 . S
C429 C430 1.363 . S
C429 H432 0.929 . S
C430 C429 1.363 . S
C430 C436 1.428 . S
H431 C427 0.930 . S
H432 C429 0.929 . S
S433 N434 1.613 . S
S433 N435 1.610 . S
N434 S433 1.613 . S
N434 C437 1.350 . S
N435 S433 1.610 . S
N435 C436 1.351 . S
C436 C430 1.428 . S
C436 N435 1.351 . S
C436 C437 1.434 . S
C437 C428 1.429 . S
C437 N434 1.350 . S
C437 C436 1.434 . S
C438 C439 1.369 . S
C438 C440 1.419 . S
C438 H442 0.930 . S
C439 C438 1.369 . S
C439 C448 1.429 . S
C440 C438 1.419 . S
C440 C441 1.363 . S
C440 H443 0.929 . S
C441 C440 1.363 . S
C441 C447 1.428 . S
H442 C438 0.930 . S
H443 C440 0.929 . S
S444 N445 1.613 . S
S444 N446 1.610 . S
N445 S444 1.613 . S
N445 C448 1.350 1_455 S
N446 S444 1.610 . S
N446 C447 1.351 1_455 S
C447 C441 1.428 . S
C447 N446 1.351 1_655 S
C447 C448 1.434 . S
C448 C439 1.429 . S
C448 N445 1.350 1_655 S
C448 C447 1.434 . S
C449 C450 1.369 . S
C449 C451 1.419 . S
C449 H453 0.930 . S
C450 C449 1.369 . S
C450 C459 1.429 . S
C451 C449 1.419 . S
C451 C452 1.363 . S
C451 H454 0.929 . S
C452 C451 1.363 . S
C452 C458 1.428 . S
H453 C449 0.930 . S
H454 C451 0.929 . S
S455 N456 1.613 . S
S455 N457 1.610 . S
N456 S455 1.613 . S
N456 C459 1.350 . S
N457 S455 1.610 . S
N457 C458 1.351 . S
C458 C452 1.428 . S
C458 N457 1.351 . S
C458 C459 1.434 . S
C459 C450 1.429 . S
C459 N456 1.350 . S
C459 C458 1.434 . S
C460 C461 1.369 . S
C460 C462 1.419 . S
C460 H464 0.930 1_455 S
C461 C460 1.369 . S
C461 C470 1.429 . S
C462 C460 1.419 . S
C462 C463 1.363 . S
C462 H465 0.929 . S
C463 C462 1.363 . S
C463 C469 1.428 . S
H464 C460 0.930 1_655 S
H465 C462 0.929 . S
S466 N467 1.613 . S
S466 N468 1.610 . S
N467 S466 1.613 . S
N467 C470 1.350 . S
N468 S466 1.610 . S
N468 C469 1.351 . S
C469 C463 1.428 . S
C469 N468 1.351 . S
C469 C470 1.434 . S
C470 C461 1.429 . S
C470 N467 1.350 . S
C470 C469 1.434 . S
C471 C472 1.369 . S
C471 C473 1.419 . S
C471 H475 0.930 . S
C472 C471 1.369 . S
C472 C481 1.429 . S
C473 C471 1.419 . S
C473 C474 1.363 . S
C473 H476 0.929 . S
C474 C473 1.363 . S
C474 C480 1.428 . S
H475 C471 0.930 . S
H476 C473 0.929 . S
S477 N478 1.613 . S
S477 N479 1.610 . S
N478 S477 1.613 . S
N478 C481 1.350 . S
N479 S477 1.610 . S
N479 C480 1.351 . S
C480 C474 1.428 . S
C480 N479 1.351 . S
C480 C481 1.434 . S
C481 C472 1.429 . S
C481 N478 1.350 . S
C481 C480 1.434 . S
C482 C483 1.369 . S
C482 C484 1.419 . S
C482 H486 0.930 . S
C483 C482 1.369 . S
C483 C492 1.429 . S
C484 C482 1.419 . S
C484 C485 1.363 . S
C484 H487 0.929 . S
C485 C484 1.363 . S
C485 C491 1.428 . S
H486 C482 0.930 . S
H487 C484 0.929 . S
S488 N489 1.613 . S
S488 N490 1.610 . S
N489 S488 1.613 . S
N489 C492 1.350 . S
N490 S488 1.610 . S
N490 C491 1.351 . S
C491 C485 1.428 . S
C491 N490 1.351 . S
C491 C492 1.434 . S
C492 C483 1.429 . S
C492 N489 1.350 . S
C492 C491 1.434 . S
C493 C494 1.369 . S
C493 C495 1.419 . S
C493 H497 0.930 . S
C494 C493 1.369 . S
C494 C503 1.429 . S
C495 C493 1.419 . S
C495 C496 1.363 . S
C495 H498 0.929 . S
C496 C495 1.363 . S
C496 C502 1.428 . S
H497 C493 0.930 . S
H498 C495 0.929 . S
S499 N500 1.613 . S
S499 N501 1.610 . S
N500 S499 1.613 . S
N500 C503 1.350 . S
N501 S499 1.610 . S
N501 C502 1.351 . S
C502 C496 1.428 . S
C502 N501 1.351 . S
C502 C503 1.434 . S
C503 C494 1.429 . S
C503 N500 1.350 . S
C503 C502 1.434 . S
C504 C505 1.369 . S
C504 C506 1.419 . S
C504 H508 0.930 . S
C505 C504 1.369 . S
C505 C514 1.429 . S
C506 C504 1.419 . S
C506 C507 1.363 . S
C506 H509 0.929 . S
C507 C506 1.363 . S
C507 C513 1.428 . S
H508 C504 0.930 . S
H509 C506 0.929 . S
S510 N511 1.613 . S
S510 N512 1.610 . S
N511 S510 1.613 . S
N511 C514 1.350 . S
N512 S510 1.610 . S
N512 C513 1.351 . S
C513 C507 1.428 . S
C513 N512 1.351 . S
C513 C514 1.434 . S
C514 C505 1.429 . S
C514 N511 1.350 . S
C514 C513 1.434 . S
C515 C516 1.369 . S
C515 C517 1.419 . S
C515 H519 0.930 . S
C516 C515 1.369 . S
C516 C525 1.429 . S
C517 C515 1.419 . S
C517 C518 1.363 . S
C517 H520 0.929 . S
C518 C517 1.363 . S
C518 C524 1.428 . S
H519 C515 0.930 . S
H520 C517 0.929 . S
S521 N522 1.613 . S
S521 N523 1.610 . S
N522 S521 1.613 . S
N522 C525 1.350 . S
N523 S521 1.610 . S
N523 C524 1.351 . S
C524 C518 1.428 . S
C524 N523 1.351 . S
C524 C525 1.434 . S
C525 C516 1.429 . S
C525 N522 1.350 . S
C525 C524 1.434 . S
C526 C527 1.369 . S
C526 C528 1.419 . S
C526 H530 0.930 . S
C527 C526 1.369 . S
C527 C536 1.429 . S
C528 C526 1.419 . S
C528 C529 1.363 . S
C528 H531 0.929 . S
C529 C528 1.363 . S
C529 C535 1.428 . S
H530 C526 0.930 . S
H531 C528 0.929 . S
S532 N533 1.613 . S
S532 N534 1.610 . S
N533 S532 1.613 . S
N533 C536 1.350 . S
N534 S532 1.610 . S
N534 C535 1.351 . S
C535 C529 1.428 . S
C535 N534 1.351 . S
C535 C536 1.434 . S
C536 C527 1.429 . S
C536 N533 1.350 . S
C536 C535 1.434 . S
C537 C538 1.369 . S
C537 C539 1.419 . S
C537 H541 0.930 . S
C538 C537 1.369 . S
C538 C547 1.429 . S
C539 C537 1.419 . S
C539 C540 1.363 . S
C539 H542 0.929 . S
C540 C539 1.363 . S
C540 C546 1.428 . S
H541 C537 0.930 . S
H542 C539 0.929 . S
S543 N544 1.613 . S
S543 N545 1.610 . S
N544 S543 1.613 . S
N544 C547 1.350 . S
N545 S543 1.610 . S
N545 C546 1.351 . S
C546 C540 1.428 . S
C546 N545 1.351 . S
C546 C547 1.434 . S
C547 C538 1.429 . S
C547 N544 1.350 . S
C547 C546 1.434 . S
C548 C549 1.369 . S
C548 C550 1.419 . S
C548 H552 0.930 . S
C549 C548 1.369 . S
C549 C558 1.429 . S
C550 C548 1.419 . S
C550 C551 1.363 . S
C550 H553 0.929 . S
C551 C550 1.363 . S
C551 C557 1.428 . S
H552 C548 0.930 . S
H553 C550 0.929 . S
S554 N555 1.613 . S
S554 N556 1.610 . S
N555 S554 1.613 . S
N555 C558 1.350 . S
N556 S554 1.610 . S
N556 C557 1.351 . S
C557 C551 1.428 . S
C557 N556 1.351 . S
C557 C558 1.434 . S
C558 C549 1.429 . S
C558 N555 1.350 . S
C558 C557 1.434 . S
C559 C560 1.369 . S
C559 C561 1.419 . S
C559 H563 0.930 . S
C560 C559 1.369 . S
C560 C569 1.429 . S
C561 C559 1.419 . S
C561 C562 1.363 . S
C561 H564 0.929 . S
C562 C561 1.363 . S
C562 C568 1.428 . S
H563 C559 0.930 . S
H564 C561 0.929 . S
S565 N566 1.613 . S
S565 N567 1.610 . S
N566 S565 1.613 . S
N566 C569 1.350 . S
N567 S565 1.610 . S
N567 C568 1.351 . S
C568 C562 1.428 . S
C568 N567 1.351 . S
C568 C569 1.434 . S
C569 C560 1.429 . S
C569 N566 1.350 . S
C569 C568 1.434 . S
C570 C571 1.369 . S
C570 C572 1.419 . S
C570 H574 0.930 . S
C571 C570 1.369 . S
C571 C580 1.429 . S
C572 C570 1.419 . S
C572 C573 1.363 . S
C572 H575 0.929 . S
C573 C572 1.363 . S
C573 C579 1.428 . S
H574 C570 0.930 . S
H575 C572 0.929 . S
S576 N577 1.613 . S
S576 N578 1.610 . S
N577 S576 1.613 . S
N577 C580 1.350 . S
N578 S576 1.610 . S
N578 C579 1.351 . S
C579 C573 1.428 . S
C579 N578 1.351 . S
C579 C580 1.434 . S
C580 C571 1.429 . S
C580 N577 1.350 . S
C580 C579 1.434 . S
C581 C582 1.369 . S
C581 C583 1.419 . S
C581 H585 0.930 . S
C582 C581 1.369 . S
C582 C591 1.429 . S
C583 C581 1.419 . S
C583 C584 1.363 . S
C583 H586 0.929 . S
C584 C583 1.363 . S
C584 C590 1.428 . S
H585 C581 0.930 . S
H586 C583 0.929 . S
S587 N588 1.613 . S
S587 N589 1.610 . S
N588 S587 1.613 . S
N588 C591 1.350 . S
N589 S587 1.610 . S
N589 C590 1.351 . S
C590 C584 1.428 . S
C590 N589 1.351 . S
C590 C591 1.434 . S
C591 C582 1.429 . S
C591 N588 1.350 . S
C591 C590 1.434 . S
C592 C593 1.369 . S
C592 C594 1.419 1_565 S
C592 H596 0.930 . S
C593 C592 1.369 . S
C593 C602 1.429 . S
C594 C592 1.419 1_545 S
C594 C595 1.363 . S
C594 H597 0.929 . S
C595 C594 1.363 . S
C595 C601 1.428 . S
H596 C592 0.930 . S
H597 C594 0.929 . S
S598 N599 1.566 1_545 S
S598 N600 1.657 . S
N599 S598 1.566 1_565 S
N599 C602 1.350 . S
N600 S598 1.657 . S
N600 C601 1.351 . S
C601 C595 1.428 . S
C601 N600 1.351 . S
C601 C602 1.434 1_545 S
C602 C593 1.429 . S
C602 N599 1.350 . S
C602 C601 1.434 1_565 S
C603 C604 1.369 1_455 S
C603 C605 1.419 . S
C603 H607 0.930 . S
C604 C603 1.369 1_655 S
C604 C613 1.429 . S
C605 C603 1.419 . S
C605 C606 1.363 . S
C605 H608 0.929 . S
C606 C605 1.363 . S
C606 C612 1.428 1_455 S
H607 C603 0.930 . S
H608 C605 0.929 . S
S609 N610 1.613 . S
S609 N611 1.610 . S
N610 S609 1.613 . S
N610 C613 1.350 . S
N611 S609 1.610 . S
N611 C612 1.351 . S
C612 C606 1.428 1_655 S
C612 N611 1.351 . S
C612 C613 1.434 . S
C613 C604 1.429 . S
C613 N610 1.350 . S
C613 C612 1.434 . S
C614 C615 1.369 1_554 S
C614 C616 1.419 . S
C614 H618 0.930 . S
C615 C614 1.369 1_556 S
C615 C624 1.429 . S
C616 C614 1.419 . S
C616 C617 1.363 . S
C616 H619 0.929 . S
C617 C616 1.363 . S
C617 C623 1.428 1_554 S
H618 C614 0.930 . S
H619 C616 0.929 . S
S620 N621 1.613 . S
S620 N622 1.610 . S
N621 S620 1.613 . S
N621 C624 1.350 . S
N622 S620 1.610 . S
N622 C623 1.351 . S
C623 C617 1.428 1_556 S
C623 N622 1.351 . S
C623 C624 1.434 . S
C624 C615 1.429 . S
C624 N621 1.350 . S
C624 C623 1.434 . S
C625 C626 1.369 1_554 S
C625 C627 1.419 1_545 S
C625 H629 0.930 . S
C626 C625 1.369 1_556 S
C626 C635 1.429 1_455 S
C627 C625 1.419 1_565 S
C627 C628 1.363 1_455 S
C627 H630 0.929 . S
C628 C627 1.363 1_655 S
C628 C634 1.428 1_554 S
H629 C625 0.930 . S
H630 C627 0.929 . S
S631 N632 1.592 1_565 S
S631 N633 1.632 . S
N632 S631 1.592 1_545 S
N632 C635 1.350 . S
N633 S631 1.632 . S
N633 C634 1.351 . S
C634 C628 1.428 1_556 S
C634 N633 1.351 . S
C634 C635 1.434 1_565 S
C635 C626 1.429 1_655 S
C635 N632 1.350 . S
C635 C634 1.434 1_545 S
C636 C637 1.369 . S
C636 C638 1.419 1_545 S
C636 H640 0.930 . S
C637 C636 1.369 . S
C637 C646 1.429 . S
C638 C636 1.419 1_565 S
C638 C639 1.363 . S
C638 H641 0.929 . S
C639 C638 1.363 . S
C639 C645 1.428 . S
H640 C636 0.930 . S
H641 C638 0.929 . S
S642 N643 1.613 . S
S642 N644 1.610 1_545 S
N643 S642 1.613 . S
N643 C646 1.350 . S
N644 S642 1.610 1_565 S
N644 C645 1.351 . S
C645 C639 1.428 . S
C645 N644 1.351 . S
C645 C646 1.434 1_565 S
C646 C637 1.429 . S
C646 N643 1.350 . S
C646 C645 1.434 1_545 S
C647 C648 1.369 1_655 S
C647 C649 1.419 . S
C647 H651 0.930 . S
C648 C647 1.369 1_455 S
C648 C657 1.429 . S
C649 C647 1.419 . S
C649 C650 1.363 . S
C649 H652 0.929 . S
C650 C649 1.363 . S
C650 C656 1.428 1_655 S
H651 C647 0.930 . S
H652 C649 0.929 . S
S653 N654 1.613 . S
S653 N655 1.610 . S
N654 S653 1.613 . S
N654 C657 1.350 . S
N655 S653 1.610 . S
N655 C656 1.351 . S
C656 C650 1.428 1_455 S
C656 N655 1.351 . S
C656 C657 1.434 . S
C657 C648 1.429 . S
C657 N654 1.350 . S
C657 C656 1.434 . S
C658 C659 1.369 . S
C658 C660 1.419 . S
C658 H662 0.930 . S
C659 C658 1.369 . S
C659 C668 1.429 1_556 S
C660 C658 1.419 . S
C660 C661 1.363 1_556 S
C660 H663 0.929 . S
C661 C660 1.363 1_554 S
C661 C667 1.428 . S
H662 C658 0.930 . S
H663 C660 0.929 . S
S664 N665 1.613 . S
S664 N666 1.610 . S
N665 S664 1.613 . S
N665 C668 1.350 . S
N666 S664 1.610 . S
N666 C667 1.351 . S
C667 C661 1.428 . S
C667 N666 1.351 . S
C667 C668 1.434 . S
C668 C659 1.429 1_554 S
C668 N665 1.350 . S
C668 C667 1.434 . S
C669 C670 1.369 . S
C669 C671 1.419 . S
C669 H673 0.930 . S
C670 C669 1.369 . S
C670 C679 1.429 . S
C671 C669 1.419 . S
C671 C672 1.363 . S
C671 H674 0.929 . S
C672 C671 1.363 . S
C672 C678 1.428 . S
H673 C669 0.930 . S
H674 C671 0.929 . S
S675 N676 1.613 . S
S675 N677 1.610 . S
N676 S675 1.613 . S
N676 C679 1.350 . S
N677 S675 1.610 . S
N677 C678 1.351 . S
C678 C672 1.428 . S
C678 N677 1.351 . S
C678 C679 1.434 . S
C679 C670 1.429 . S
C679 N676 1.350 . S
C679 C678 1.434 . S
C680 C681 1.369 . S
C680 C682 1.419 . S
C680 H684 0.930 . S
C681 C680 1.369 . S
C681 C690 1.429 . S
C682 C680 1.419 . S
C682 C683 1.363 . S
C682 H685 0.929 . S
C683 C682 1.363 . S
C683 C689 1.428 . S
H684 C680 0.930 . S
H685 C682 0.929 . S
S686 N687 1.613 . S
S686 N688 1.610 . S
N687 S686 1.613 . S
N687 C690 1.350 . S
N688 S686 1.610 . S
N688 C689 1.351 . S
C689 C683 1.428 . S
C689 N688 1.351 . S
C689 C690 1.434 . S
C690 C681 1.429 . S
C690 N687 1.350 . S
C690 C689 1.434 . S
C691 C692 1.369 . S
C691 C693 1.419 . S
C691 H695 0.930 . S
C692 C691 1.369 . S
C692 C701 1.429 1_655 S
C693 C691 1.419 . S
C693 C694 1.363 1_655 S
C693 H696 0.929 . S
C694 C693 1.363 1_455 S
C694 C700 1.428 . S
H695 C691 0.930 . S
H696 C693 0.929 . S
S697 N698 1.613 . S
S697 N699 1.610 . S
N698 S697 1.613 . S
N698 C701 1.350 . S
N699 S697 1.610 . S
N699 C700 1.351 . S
C700 C694 1.428 . S
C700 N699 1.351 . S
C700 C701 1.434 . S
C701 C692 1.429 1_455 S
C701 N698 1.350 . S
C701 C700 1.434 . S
C702 C703 1.369 . S
C702 C704 1.419 . S
C702 H706 0.930 . S
C703 C702 1.369 . S
C703 C712 1.429 . S
C704 C702 1.419 . S
C704 C705 1.363 . S
C704 H707 0.929 . S
C705 C704 1.363 . S
C705 C711 1.428 . S
H706 C702 0.930 . S
H707 C704 0.929 . S
S708 N709 1.613 . S
S708 N710 1.610 . S
N709 S708 1.613 . S
N709 C712 1.350 . S
N710 S708 1.610 . S
N710 C711 1.351 . S
C711 C705 1.428 . S
C711 N710 1.351 . S
C711 C712 1.434 . S
C712 C703 1.429 . S
C712 N709 1.350 . S
C712 C711 1.434 . S
C713 C714 1.369 . S
C713 C715 1.419 . S
C713 H717 0.930 . S
C714 C713 1.369 . S
C714 C723 1.429 . S
C715 C713 1.419 . S
C715 C716 1.363 . S
C715 H718 0.929 . S
C716 C715 1.363 . S
C716 C722 1.428 . S
H717 C713 0.930 . S
H718 C715 0.929 . S
S719 N720 1.613 . S
S719 N721 1.610 . S
N720 S719 1.613 . S
N720 C723 1.350 . S
N721 S719 1.610 . S
N721 C722 1.351 . S
C722 C716 1.428 . S
C722 N721 1.351 . S
C722 C723 1.434 . S
C723 C714 1.429 . S
C723 N720 1.350 . S
C723 C722 1.434 . S
C724 C725 1.369 . S
C724 C726 1.419 . S
C724 H728 0.930 . S
C725 C724 1.369 . S
C725 C734 1.429 . S
C726 C724 1.419 . S
C726 C727 1.363 . S
C726 H729 0.929 . S
C727 C726 1.363 . S
C727 C733 1.428 . S
H728 C724 0.930 . S
H729 C726 0.929 . S
S730 N731 1.613 . S
S730 N732 1.610 . S
N731 S730 1.613 . S
N731 C734 1.350 . S
N732 S730 1.610 . S
N732 C733 1.351 . S
C733 C727 1.428 . S
C733 N732 1.351 . S
C733 C734 1.434 . S
C734 C725 1.429 . S
C734 N731 1.350 . S
C734 C733 1.434 . S
C735 C736 1.369 . S
C735 C737 1.419 1_545 S
C735 H739 0.930 . S
C736 C735 1.369 . S
C736 C745 1.429 . S
C737 C735 1.419 1_565 S
C737 C738 1.363 . S
C737 H740 0.929 . S
C738 C737 1.363 . S
C738 C744 1.428 . S
H739 C735 0.930 . S
H740 C737 0.929 . S
S741 N742 1.613 1_565 S
S741 N743 1.610 . S
N742 S741 1.613 1_545 S
N742 C745 1.350 . S
N743 S741 1.610 . S
N743 C744 1.351 . S
C744 C738 1.428 . S
C744 N743 1.351 . S
C744 C745 1.434 1_565 S
C745 C736 1.429 . S
C745 N742 1.350 . S
C745 C744 1.434 1_545 S
C746 C747 1.369 . S
C746 C748 1.419 . S
C746 H750 0.930 . S
C747 C746 1.369 . S
C747 C756 1.429 . S
C748 C746 1.419 . S
C748 C749 1.363 . S
C748 H751 0.929 . S
C749 C748 1.363 . S
C749 C755 1.428 . S
H750 C746 0.930 . S
H751 C748 0.929 . S
S752 N753 1.613 . S
S752 N754 1.610 . S
N753 S752 1.613 . S
N753 C756 1.350 . S
N754 S752 1.610 . S
N754 C755 1.351 . S
C755 C749 1.428 . S
C755 N754 1.351 . S
C755 C756 1.434 . S
C756 C747 1.429 . S
C756 N753 1.350 . S
C756 C755 1.434 . S
C757 C758 1.369 . S
C757 C759 1.419 . S
C757 H761 0.930 . S
C758 C757 1.369 . S
C758 C767 1.429 1_554 S
C759 C757 1.419 . S
C759 C760 1.363 1_554 S
C759 H762 0.929 . S
C760 C759 1.363 1_556 S
C760 C766 1.428 . S
H761 C757 0.930 . S
H762 C759 0.929 . S
S763 N764 1.613 . S
S763 N765 1.610 . S
N764 S763 1.613 . S
N764 C767 1.350 . S
N765 S763 1.610 . S
N765 C766 1.351 . S
C766 C760 1.428 . S
C766 N765 1.351 . S
C766 C767 1.434 . S
C767 C758 1.429 1_556 S
C767 N764 1.350 . S
C767 C766 1.434 . S
C768 C769 1.369 . S
C768 C770 1.419 . S
C768 H772 0.930 . S
C769 C768 1.369 . S
C769 C778 1.429 . S
C770 C768 1.419 . S
C770 C771 1.363 . S
C770 H773 0.929 . S
C771 C770 1.363 . S
C771 C777 1.428 . S
H772 C768 0.930 . S
H773 C770 0.929 . S
S774 N775 1.613 . S
S774 N776 1.610 . S
N775 S774 1.613 . S
N775 C778 1.350 . S
N776 S774 1.610 . S
N776 C777 1.351 . S
C777 C771 1.428 . S
C777 N776 1.351 . S
C777 C778 1.434 . S
C778 C769 1.429 . S
C778 N775 1.350 . S
C778 C777 1.434 . S
C779 C780 1.369 . S
C779 C781 1.419 . S
C779 H783 0.930 1_556 S
C780 C779 1.369 . S
C780 C789 1.429 . S
C781 C779 1.419 . S
C781 C782 1.363 . S
C781 H784 0.929 1_556 S
C782 C781 1.363 . S
C782 C788 1.428 . S
H783 C779 0.930 1_554 S
H784 C781 0.929 1_554 S
S785 N786 1.613 . S
S785 N787 1.610 . S
N786 S785 1.613 . S
N786 C789 1.350 . S
N787 S785 1.610 . S
N787 C788 1.351 . S
C788 C782 1.428 . S
C788 N787 1.351 . S
C788 C789 1.434 . S
C789 C780 1.429 . S
C789 N786 1.350 . S
C789 C788 1.434 . S
C790 C791 1.369 . S
C790 C792 1.419 . S
C790 H794 0.930 . S
C791 C790 1.369 . S
C791 C800 1.429 . S
C792 C790 1.419 . S
C792 C793 1.363 . S
C792 H795 0.929 . S
C793 C792 1.363 . S
C793 C799 1.428 . S
H794 C790 0.930 . S
H795 C792 0.929 . S
S796 N797 1.613 . S
S796 N798 1.610 . S
N797 S796 1.613 . S
N797 C800 1.350 1_455 S
N798 S796 1.610 . S
N798 C799 1.351 1_455 S
C799 C793 1.428 . S
C799 N798 1.351 1_655 S
C799 C800 1.434 . S
C800 C791 1.429 . S
C800 N797 1.350 1_655 S
C800 C799 1.434 . S
C801 C802 1.369 . S
C801 C803 1.419 . S
C801 H805 0.930 . S
C802 C801 1.369 . S
C802 C811 1.429 . S
C803 C801 1.419 . S
C803 C804 1.363 . S
C803 H806 0.929 . S
C804 C803 1.363 . S
C804 C810 1.428 . S
H805 C801 0.930 . S
H806 C803 0.929 . S
S807 N808 1.613 . S
S807 N809 1.610 . S
N808 S807 1.613 . S
N808 C811 1.350 1_455 S
N809 S807 1.610 . S
N809 C810 1.351 1_455 S
C810 C804 1.428 . S
C810 N809 1.351 1_655 S
C810 C811 1.434 . S
C811 C802 1.429 . S
C811 N808 1.350 1_655 S
C811 C810 1.434 . S
C812 C813 1.369 . S
C812 C814 1.419 . S
C812 H816 0.930 . S
C813 C812 1.369 . S
C813 C822 1.429 . S
C814 C812 1.419 . S
C814 C815 1.363 . S
C814 H817 0.929 . S
C815 C814 1.363 . S
C815 C821 1.428 . S
H816 C812 0.930 . S
H817 C814 0.929 . S
S818 N819 1.613 . S
S818 N820 1.610 . S
N819 S818 1.613 . S
N819 C822 1.350 . S
N820 S818 1.610 . S
N820 C821 1.351 . S
C821 C815 1.428 . S
C821 N820 1.351 . S
C821 C822 1.434 . S
C822 C813 1.429 . S
C822 N819 1.350 . S
C822 C821 1.434 . S
C823 C824 1.369 . S
C823 C825 1.419 . S
C823 H827 0.930 . S
C824 C823 1.369 . S
C824 C833 1.429 . S
C825 C823 1.419 . S
C825 C826 1.363 . S
C825 H828 0.929 1_455 S
C826 C825 1.363 . S
C826 C832 1.428 . S
H827 C823 0.930 . S
H828 C825 0.929 1_655 S
S829 N830 1.613 . S
S829 N831 1.610 . S
N830 S829 1.613 . S
N830 C833 1.350 . S
N831 S829 1.610 . S
N831 C832 1.351 . S
C832 C826 1.428 . S
C832 N831 1.351 . S
C832 C833 1.434 . S
C833 C824 1.429 . S
C833 N830 1.350 . S
C833 C832 1.434 . S
C834 C835 1.369 . S
C834 C836 1.419 . S
C834 H838 0.930 . S
C835 C834 1.369 . S
C835 C844 1.429 . S
C836 C834 1.419 . S
C836 C837 1.363 . S
C836 H839 0.929 . S
C837 C836 1.363 . S
C837 C843 1.428 . S
H838 C834 0.930 . S
H839 C836 0.929 . S
S840 N841 1.613 . S
S840 N842 1.610 . S
N841 S840 1.613 . S
N841 C844 1.350 . S
N842 S840 1.610 . S
N842 C843 1.351 . S
C843 C837 1.428 . S
C843 N842 1.351 . S
C843 C844 1.434 . S
C844 C835 1.429 . S
C844 N841 1.350 . S
C844 C843 1.434 . S
C845 C846 1.369 . S
C845 C847 1.419 . S
C845 H849 0.930 . S
C846 C845 1.369 . S
C846 C855 1.429 . S
C847 C845 1.419 . S
C847 C848 1.363 . S
C847 H850 0.929 . S
C848 C847 1.363 . S
C848 C854 1.428 . S
H849 C845 0.930 . S
H850 C847 0.929 . S
S851 N852 1.613 . S
S851 N853 1.610 . S
N852 S851 1.613 . S
N852 C855 1.350 . S
N853 S851 1.610 . S
N853 C854 1.351 . S
C854 C848 1.428 . S
C854 N853 1.351 . S
C854 C855 1.434 . S
C855 C846 1.429 . S
C855 N852 1.350 . S
C855 C854 1.434 . S
C856 C857 1.369 . S
C856 C858 1.419 . S
C856 H860 0.930 . S
C857 C856 1.369 . S
C857 C866 1.429 . S
C858 C856 1.419 . S
C858 C859 1.363 . S
C858 H861 0.929 . S
C859 C858 1.363 . S
C859 C865 1.428 . S
H860 C856 0.930 . S
H861 C858 0.929 . S
S862 N863 1.613 . S
S862 N864 1.610 . S
N863 S862 1.613 . S
N863 C866 1.350 . S
N864 S862 1.610 . S
N864 C865 1.351 . S
C865 C859 1.428 . S
C865 N864 1.351 . S
C865 C866 1.434 . S
C866 C857 1.429 . S
C866 N863 1.350 . S
C866 C865 1.434 . S
C867 C868 1.369 . S
C867 C869 1.419 . S
C867 H871 0.930 . S
C868 C867 1.369 . S
C868 C877 1.429 . S
C869 C867 1.419 . S
C869 C870 1.363 . S
C869 H872 0.929 . S
C870 C869 1.363 . S
C870 C876 1.428 . S
H871 C867 0.930 . S
H872 C869 0.929 . S
S873 N874 1.613 . S
S873 N875 1.610 . S
N874 S873 1.613 . S
N874 C877 1.350 . S
N875 S873 1.610 . S
N875 C876 1.351 . S
C876 C870 1.428 . S
C876 N875 1.351 . S
C876 C877 1.434 . S
C877 C868 1.429 . S
C877 N874 1.350 . S
C877 C876 1.434 . S
C878 C879 1.369 . S
C878 C880 1.419 . S
C878 H882 0.930 . S
C879 C878 1.369 . S
C879 C888 1.429 . S
C880 C878 1.419 . S
C880 C881 1.363 . S
C880 H883 0.929 . S
C881 C880 1.363 . S
C881 C887 1.428 . S
H882 C878 0.930 . S
H883 C880 0.929 . S
S884 N885 1.613 . S
S884 N886 1.610 . S
N885 S884 1.613 . S
N885 C888 1.350 . S
N886 S884 1.610 . S
N886 C887 1.351 . S
C887 C881 1.428 . S
C887 N886 1.351 . S
C887 C888 1.434 . S
C888 C879 1.429 . S
C888 N885 1.350 . S
C888 C887 1.434 . S
C889 C890 1.369 . S
C889 C891 1.419 . S
C889 H893 0.930 . S
C890 C889 1.369 . S
C890 C899 1.429 . S
C891 C889 1.419 . S
C891 C892 1.363 . S
C891 H894 0.929 . S
C892 C891 1.363 . S
C892 C898 1.428 . S
H893 C889 0.930 . S
H894 C891 0.929 . S
S895 N896 1.613 . S
S895 N897 1.610 . S
N896 S895 1.613 . S
N896 C899 1.350 . S
N897 S895 1.610 . S
N897 C898 1.351 . S
C898 C892 1.428 . S
C898 N897 1.351 . S
C898 C899 1.434 . S
C899 C890 1.429 . S
C899 N896 1.350 . S
C899 C898 1.434 . S
C900 C901 1.369 . S
C900 C902 1.419 . S
C900 H904 0.930 . S
C901 C900 1.369 . S
C901 C910 1.429 . S
C902 C900 1.419 . S
C902 C903 1.363 . S
C902 H905 0.929 . S
C903 C902 1.363 . S
C903 C909 1.428 . S
H904 C900 0.930 . S
H905 C902 0.929 . S
S906 N907 1.613 . S
S906 N908 1.610 . S
N907 S906 1.613 . S
N907 C910 1.350 . S
N908 S906 1.610 . S
N908 C909 1.351 . S
C909 C903 1.428 . S
C909 N908 1.351 . S
C909 C910 1.434 . S
C910 C901 1.429 . S
C910 N907 1.350 . S
C910 C909 1.434 . S
C911 C912 1.369 . S
C911 C913 1.419 . S
C911 H915 0.930 . S
C912 C911 1.369 . S
C912 C921 1.429 . S
C913 C911 1.419 . S
C913 C914 1.363 . S
C913 H916 0.929 . S
C914 C913 1.363 . S
C914 C920 1.428 . S
H915 C911 0.930 . S
H916 C913 0.929 . S
S917 N918 1.613 . S
S917 N919 1.610 . S
N918 S917 1.613 . S
N918 C921 1.350 1_554 S
N919 S917 1.610 . S
N919 C920 1.351 1_554 S
C920 C914 1.428 . S
C920 N919 1.351 1_556 S
C920 C921 1.434 . S
C921 C912 1.429 . S
C921 N918 1.350 1_556 S
C921 C920 1.434 . S
C922 C923 1.369 . S
C922 C924 1.419 . S
C922 H926 0.930 . S
C923 C922 1.369 . S
C923 C932 1.429 . S
C924 C922 1.419 . S
C924 C925 1.363 . S
C924 H927 0.929 . S
C925 C924 1.363 . S
C925 C931 1.428 . S
H926 C922 0.930 . S
H927 C924 0.929 . S
S928 N929 1.613 . S
S928 N930 1.610 . S
N929 S928 1.613 . S
N929 C932 1.350 . S
N930 S928 1.610 . S
N930 C931 1.351 . S
C931 C925 1.428 . S
C931 N930 1.351 . S
C931 C932 1.434 . S
C932 C923 1.429 . S
C932 N929 1.350 . S
C932 C931 1.434 . S
C933 C934 1.369 . S
C933 C935 1.419 . S
C933 H937 0.930 . S
C934 C933 1.369 . S
C934 C943 1.429 . S
C935 C933 1.419 . S
C935 C936 1.363 . S
C935 H938 0.929 . S
C936 C935 1.363 . S
C936 C942 1.428 . S
H937 C933 0.930 . S
H938 C935 0.929 . S
S939 N940 1.613 . S
S939 N941 1.610 . S
N940 S939 1.613 . S
N940 C943 1.350 1_556 S
N941 S939 1.610 . S
N941 C942 1.351 1_556 S
C942 C936 1.428 . S
C942 N941 1.351 1_554 S
C942 C943 1.434 . S
C943 C934 1.429 . S
C943 N940 1.350 1_554 S
C943 C942 1.434 . S
C944 C945 1.369 . S
C944 C946 1.419 . S
C944 H948 0.930 . S
C945 C944 1.369 . S
C945 C954 1.429 . S
C946 C944 1.419 . S
C946 C947 1.363 . S
C946 H949 0.929 . S
C947 C946 1.363 . S
C947 C953 1.428 . S
H948 C944 0.930 . S
H949 C946 0.929 . S
S950 N951 1.613 . S
S950 N952 1.610 . S
N951 S950 1.613 . S
N951 C954 1.350 . S
N952 S950 1.610 . S
N952 C953 1.351 . S
C953 C947 1.428 . S
C953 N952 1.351 . S
C953 C954 1.434 . S
C954 C945 1.429 . S
C954 N951 1.350 . S
C954 C953 1.434 . S
C955 C956 1.369 . S
C955 C957 1.419 . S
C955 H959 0.930 . S
C956 C955 1.369 . S
C956 C965 1.429 . S
C957 C955 1.419 . S
C957 C958 1.363 . S
C957 H960 0.929 . S
C958 C957 1.363 . S
C958 C964 1.428 . S
H959 C955 0.930 . S
H960 C957 0.929 . S
S961 N962 1.613 . S
S961 N963 1.610 . S
N962 S961 1.613 . S
N962 C965 1.350 . S
N963 S961 1.610 . S
N963 C964 1.351 . S
C964 C958 1.428 . S
C964 N963 1.351 . S
C964 C965 1.434 . S
C965 C956 1.429 . S
C965 N962 1.350 . S
C965 C964 1.434 . S
C966 C967 1.369 . S
C966 C968 1.419 . S
C966 H970 0.930 . S
C967 C966 1.369 . S
C967 C976 1.429 . S
C968 C966 1.419 . S
C968 C969 1.363 . S
C968 H971 0.929 . S
C969 C968 1.363 . S
C969 C975 1.428 . S
H970 C966 0.930 . S
H971 C968 0.929 . S
S972 N973 1.613 . S
S972 N974 1.610 . S
N973 S972 1.613 . S
N973 C976 1.350 . S
N974 S972 1.610 . S
N974 C975 1.351 . S
C975 C969 1.428 . S
C975 N974 1.351 . S
C975 C976 1.434 . S
C976 C967 1.429 . S
C976 N973 1.350 . S
C976 C975 1.434 . S
C977 C978 1.369 . S
C977 C979 1.419 . S
C977 H981 0.930 . S
C978 C977 1.369 . S
C978 C987 1.429 . S
C979 C977 1.419 . S
C979 C980 1.363 . S
C979 H982 0.929 . S
C980 C979 1.363 . S
C980 C986 1.428 . S
H981 C977 0.930 . S
H982 C979 0.929 . S
S983 N984 1.613 . S
S983 N985 1.610 . S
N984 S983 1.613 . S
N984 C987 1.350 . S
N985 S983 1.610 . S
N985 C986 1.351 . S
C986 C980 1.428 . S
C986 N985 1.351 . S
C986 C987 1.434 . S
C987 C978 1.429 . S
C987 N984 1.350 . S
C987 C986 1.434 . S
C988 C989 1.369 . S
C988 C990 1.419 . S
C988 H992 0.930 . S
C989 C988 1.369 . S
C989 C998 1.429 . S
C990 C988 1.419 . S
C990 C991 1.363 . S
C990 H993 0.929 . S
C991 C990 1.363 . S
C991 C997 1.428 . S
H992 C988 0.930 . S
H993 C990 0.929 . S
S994 N995 1.613 1_655 S
S994 N996 1.610 . S
N995 S994 1.613 1_455 S
N995 C998 1.350 . S
N996 S994 1.610 . S
N996 C997 1.351 1_655 S
C997 C991 1.428 . S
C997 N996 1.351 1_455 S
C997 C998 1.434 . S
C998 C989 1.429 . S
C998 N995 1.350 . S
C998 C997 1.434 . S
C999 C1000 1.369 . S
C999 C1001 1.419 . S
C999 H1003 0.930 . S
C1000 C999 1.369 . S
C1000 C1009 1.429 . S
C1001 C999 1.419 . S
C1001 C1002 1.363 . S
C1001 H1004 0.929 . S
C1002 C1001 1.363 . S
C1002 C1008 1.428 . S
H1003 C999 0.930 . S
H1004 C1001 0.929 . S
S1005 N1006 1.613 . S
S1005 N1007 1.610 . S
N1006 S1005 1.613 . S
N1006 C1009 1.350 . S
N1007 S1005 1.610 . S
N1007 C1008 1.351 . S
C1008 C1002 1.428 . S
C1008 N1007 1.351 . S
C1008 C1009 1.434 . S
C1009 C1000 1.429 . S
C1009 N1006 1.350 . S
C1009 C1008 1.434 . S
C1010 C1011 1.369 . S
C1010 C1012 1.419 . S
C1010 H1014 0.930 . S
C1011 C1010 1.369 . S
C1011 C1020 1.429 . S
C1012 C1010 1.419 . S
C1012 C1013 1.363 . S
C1012 H1015 0.929 1_455 S
C1013 C1012 1.363 . S
C1013 C1019 1.428 . S
H1014 C1010 0.930 . S
H1015 C1012 0.929 1_655 S
S1016 N1017 1.613 . S
S1016 N1018 1.610 . S
N1017 S1016 1.613 . S
N1017 C1020 1.350 . S
N1018 S1016 1.610 . S
N1018 C1019 1.351 . S
C1019 C1013 1.428 . S
C1019 N1018 1.351 . S
C1019 C1020 1.434 . S
C1020 C1011 1.429 . S
C1020 N1017 1.350 . S
C1020 C1019 1.434 . S
C1021 C1022 1.369 . S
C1021 C1023 1.419 . S
C1021 H1025 0.930 . S
C1022 C1021 1.369 . S
C1022 C1031 1.429 . S
C1023 C1021 1.419 . S
C1023 C1024 1.363 . S
C1023 H1026 0.929 . S
C1024 C1023 1.363 . S
C1024 C1030 1.428 . S
H1025 C1021 0.930 . S
H1026 C1023 0.929 . S
S1027 N1028 1.613 . S
S1027 N1029 1.610 . S
N1028 S1027 1.613 . S
N1028 C1031 1.350 . S
N1029 S1027 1.610 . S
N1029 C1030 1.351 . S
C1030 C1024 1.428 . S
C1030 N1029 1.351 . S
C1030 C1031 1.434 . S
C1031 C1022 1.429 . S
C1031 N1028 1.350 . S
C1031 C1030 1.434 . S
C1032 C1033 1.369 . S
C1032 C1034 1.419 . S
C1032 H1036 0.930 1_655 S
C1033 C1032 1.369 . S
C1033 C1042 1.429 . S
C1034 C1032 1.419 . S
C1034 C1035 1.363 . S
C1034 H1037 0.929 . S
C1035 C1034 1.363 . S
C1035 C1041 1.428 . S
H1036 C1032 0.930 1_455 S
H1037 C1034 0.929 . S
S1038 N1039 1.613 . S
S1038 N1040 1.610 . S
N1039 S1038 1.613 . S
N1039 C1042 1.350 . S
N1040 S1038 1.610 . S
N1040 C1041 1.351 . S
C1041 C1035 1.428 . S
C1041 N1040 1.351 . S
C1041 C1042 1.434 . S
C1042 C1033 1.429 . S
C1042 N1039 1.350 . S
C1042 C1041 1.434 . S
C1043 C1044 1.369 . S
C1043 C1045 1.419 . S
C1043 H1047 0.930 . S
C1044 C1043 1.369 . S
C1044 C1053 1.429 . S
C1045 C1043 1.419 . S
C1045 C1046 1.363 . S
C1045 H1048 0.929 . S
C1046 C1045 1.363 . S
C1046 C1052 1.428 . S
H1047 C1043 0.930 . S
H1048 C1045 0.929 . S
S1049 N1050 1.613 . S
S1049 N1051 1.610 . S
N1050 S1049 1.613 . S
N1050 C1053 1.350 . S
N1051 S1049 1.610 . S
N1051 C1052 1.351 . S
C1052 C1046 1.428 . S
C1052 N1051 1.351 . S
C1052 C1053 1.434 . S
C1053 C1044 1.429 . S
C1053 N1050 1.350 . S
C1053 C1052 1.434 . S
C1054 C1055 1.369 . S
C1054 C1056 1.419 . S
C1054 H1058 0.930 1_655 S
C1055 C1054 1.369 . S
C1055 C1064 1.429 . S
C1056 C1054 1.419 . S
C1056 C1057 1.363 . S
C1056 H1059 0.929 . S
C1057 C1056 1.363 . S
C1057 C1063 1.428 . S
H1058 C1054 0.930 1_455 S
H1059 C1056 0.929 . S
S1060 N1061 1.613 . S
S1060 N1062 1.610 . S
N1061 S1060 1.613 . S
N1061 C1064 1.350 . S
N1062 S1060 1.610 . S
N1062 C1063 1.351 . S
C1063 C1057 1.428 . S
C1063 N1062 1.351 . S
C1063 C1064 1.434 . S
C1064 C1055 1.429 . S
C1064 N1061 1.350 . S
C1064 C1063 1.434 . S
C1065 C1066 1.369 . S
C1065 C1067 1.419 . S
C1065 H1069 0.930 . S
C1066 C1065 1.369 . S
C1066 C1075 1.429 . S
C1067 C1065 1.419 . S
C1067 C1068 1.363 . S
C1067 H1070 0.929 . S
C1068 C1067 1.363 . S
C1068 C1074 1.428 . S
H1069 C1065 0.930 . S
H1070 C1067 0.929 . S
S1071 N1072 1.613 . S
S1071 N1073 1.610 . S
N1072 S1071 1.613 . S
N1072 C1075 1.350 . S
N1073 S1071 1.610 . S
N1073 C1074 1.351 . S
C1074 C1068 1.428 . S
C1074 N1073 1.351 . S
C1074 C1075 1.434 . S
C1075 C1066 1.429 . S
C1075 N1072 1.350 . S
C1075 C1074 1.434 . S
C1076 C1077 1.369 . S
C1076 C1078 1.419 . S
C1076 H1080 0.930 . S
C1077 C1076 1.369 . S
C1077 C1086 1.429 . S
C1078 C1076 1.419 . S
C1078 C1079 1.363 . S
C1078 H1081 0.929 . S
C1079 C1078 1.363 . S
C1079 C1085 1.428 . S
H1080 C1076 0.930 . S
H1081 C1078 0.929 . S
S1082 N1083 1.613 . S
S1082 N1084 1.610 . S
N1083 S1082 1.613 . S
N1083 C1086 1.350 . S
N1084 S1082 1.610 . S
N1084 C1085 1.351 . S
C1085 C1079 1.428 . S
C1085 N1084 1.351 . S
C1085 C1086 1.434 . S
C1086 C1077 1.429 . S
C1086 N1083 1.350 . S
C1086 C1085 1.434 . S
C1087 C1088 1.369 . S
C1087 C1089 1.419 . S
C1087 H1091 0.930 . S
C1088 C1087 1.369 . S
C1088 C1097 1.429 . S
C1089 C1087 1.419 . S
C1089 C1090 1.363 . S
C1089 H1092 0.929 . S
C1090 C1089 1.363 . S
C1090 C1096 1.428 . S
H1091 C1087 0.930 . S
H1092 C1089 0.929 . S
S1093 N1094 1.613 . S
S1093 N1095 1.610 . S
N1094 S1093 1.613 . S
N1094 C1097 1.350 . S
N1095 S1093 1.610 . S
N1095 C1096 1.351 . S
C1096 C1090 1.428 . S
C1096 N1095 1.351 . S
C1096 C1097 1.434 . S
C1097 C1088 1.429 . S
C1097 N1094 1.350 . S
C1097 C1096 1.434 . S
C1098 C1099 1.369 . S
C1098 C1100 1.419 . S
C1098 H1102 0.929 . S
C1099 C1098 1.369 . S
C1099 C1108 1.429 . S
C1100 C1098 1.419 . S
C1100 C1101 1.363 . S
C1100 H1103 0.929 . S
C1101 C1100 1.363 . S
C1101 C1107 1.428 . S
H1102 C1098 0.929 . S
H1103 C1100 0.929 . S
S1104 N1105 1.613 . S
S1104 N1106 1.610 . S
N1105 S1104 1.613 . S
N1105 C1108 1.350 . S
N1106 S1104 1.610 . S
N1106 C1107 1.351 . S
C1107 C1101 1.428 . S
C1107 N1106 1.351 . S
C1107 C1108 1.434 . S
C1108 C1099 1.429 . S
C1108 N1105 1.350 . S
C1108 C1107 1.434 . S
C1109 C1110 1.369 . S
C1109 C1111 1.419 . S
C1109 H1113 0.930 . S
C1110 C1109 1.369 . S
C1110 C1119 1.429 . S
C1111 C1109 1.419 . S
C1111 C1112 1.363 . S
C1111 H1114 0.929 . S
C1112 C1111 1.363 . S
C1112 C1118 1.428 . S
H1113 C1109 0.930 . S
H1114 C1111 0.929 . S
S1115 N1116 1.613 . S
S1115 N1117 1.610 . S
N1116 S1115 1.613 . S
N1116 C1119 1.350 . S
N1117 S1115 1.610 . S
N1117 C1118 1.351 . S
C1118 C1112 1.428 . S
C1118 N1117 1.351 . S
C1118 C1119 1.434 . S
C1119 C1110 1.429 . S
C1119 N1116 1.350 . S
C1119 C1118 1.434 . S
C417 C42 1.417 . S
C419 C3 1.416 . S
C428 C31 1.414 . S
C430 C16 1.416 . S
C439 C94 1.415 . S
C441 C57 1.417 . S
C450 C81 1.417 . S
C452 C68 1.416 . S
C461 C109 1.414 . S
C463 C146 1.417 . S
C472 C120 1.417 . S
C474 C135 1.416 . S
C483 C198 1.416 . S
C485 C161 1.417 . S
C494 C174 1.416 . S
C496 C185 1.417 . S
C505 C211 1.414 . S
C507 C250 1.417 . S
C516 C224 1.417 . S
C518 C239 1.416 . S
C527 C302 1.417 . S
C529 C263 1.414 . S
C538 C289 1.415 . S
C540 C278 1.415 . S
C549 C354 1.415 . S
C551 C315 1.417 . S
C560 C328 1.415 . S
C562 C341 1.415 . S
C571 C367 1.414 . S
C573 C408 1.417 . S
C582 C382 1.416 . S
C584 C393 1.417 . S
C593 C265 1.424 . S
C595 C5 1.433 . S
C604 C172 1.427 . S
C606 C18 1.431 . S
C615 C29 1.434 . S
C617 C395 1.426 . S
C626 C44 1.434 . S
C628 C96 1.426 . S
C637 C213 1.427 . S
C639 C55 1.431 . S
C648 C122 1.432 . S
C650 C70 1.427 . S
C659 C343 1.427 . S
C661 C83 1.431 . S
C670 C107 1.429 . S
C672 C369 1.429 . S
C681 C291 1.434 . S
C683 C133 1.426 . S
C692 C200 1.434 . S
C694 C148 1.426 . S
C703 C317 1.433 . S
C705 C159 1.426 . S
C714 C187 1.434 . S
C716 C237 1.426 . S
C725 C380 1.424 . S
C727 C226 1.433 . S
C736 C252 1.429 . S
C738 C304 1.430 . S
C747 C330 1.424 . S
C749 C276 1.433 . S
C758 C406 1.425 . S
C760 C356 1.433 . S
C769 C17 1.479 . S
C771 C4 1.476 . S
C780 C36 1.477 . S
C782 C43 1.480 . S
C791 C62 1.476 . S
C793 C69 1.481 . S
C802 C95 1.481 . S
C804 C82 1.475 . S
C813 C114 1.479 . S
C815 C121 1.476 . S
C824 C140 1.481 . S
C826 C147 1.475 . S
C835 C179 1.478 . S
C837 C166 1.480 . S
C846 C186 1.477 . S
C848 C199 1.476 . S
C857 C212 1.475 . S
C859 C225 1.479 . S
C868 C244 1.481 . S
C870 C251 1.477 . S
C879 C264 1.475 . S
C881 C283 1.481 . S
C890 C303 1.482 . S
C892 C290 1.476 . S
C901 C329 1.478 . S
C903 C316 1.476 . S
C912 C342 1.475 . S
C914 C355 1.478 . S
C923 C368 1.475 . S
C925 C387 1.481 . S
C934 C413 1.478 . S
C936 C394 1.476 . S
C945 C10 1.511 1_655 S
C947 C257 1.511 . S
C956 C23 1.512 . S
C958 C238 1.512 . S
C967 C231 1.512 . S
C969 C30 1.512 1_655 S
C978 C49 1.512 . S
C980 C218 1.512 . S
C989 C309 1.512 . S
C991 C56 1.512 1_455 S
C1000 C75 1.511 . S
C1002 C296 1.512 . S
C1011 C277 1.511 . S
C1013 C88 1.512 1_455 S
C1022 C101 1.511 . S
C1024 C270 1.511 . S
C1033 C108 1.512 1_655 S
C1035 C361 1.512 . S
C1044 C127 1.511 . S
C1046 C348 1.511 . S
C1055 C134 1.512 1_655 S
C1057 C335 1.512 . S
C1066 C322 1.512 . S
C1068 C153 1.512 . S
C1077 C160 1.511 1_455 S
C1079 C407 1.511 . S
C1088 C173 1.511 . S
C1090 C400 1.511 . S
C1099 C192 1.512 1_455 S
C1101 C381 1.512 . S
C1110 C374 1.512 . S
C1112 C205 1.512 . S
