# Generated by pormake.
# Topology smc, (6)-cn, num edge types: 1
# Building blocks:
#     Node 0, Type 0, BuildingBlock: BETDEL_clean_sbu_0, # of connection points: 6
#     Node 1, Type 0, BuildingBlock: BETDEL_clean_sbu_0, # of connection points: 6
#     Node 2, Type 0, BuildingBlock: BETDEL_clean_sbu_0, # of connection points: 6
#     Node 3, Type 0, BuildingBlock: BETDEL_clean_sbu_0, # of connection points: 6
#     Node 4, Type 0, BuildingBlock: BETDEL_clean_sbu_0, # of connection points: 6
#     Node 5, Type 0, BuildingBlock: BETDEL_clean_sbu_0, # of connection points: 6
#     Node 6, Type 0, BuildingBlock: BETDEL_clean_sbu_0, # of connection points: 6
#     Node 7, Type 0, BuildingBlock: BETDEL_clean_sbu_0, # of connection points: 6
#     Node 8, Type 0, BuildingBlock: BETDEL_clean_sbu_0, # of connection points: 6
#     Edge 9, Type (0, 0), BuildingBlock: AJUNOK_clean_linker_0, # of connection points: 2
#     Edge 10, Type (0, 0), BuildingBlock: AJUNOK_clean_linker_0, # of connection points: 2
#     Edge 11, Type (0, 0), BuildingBlock: AJUNOK_clean_linker_0, # of connection points: 2
#     Edge 12, Type (0, 0), BuildingBlock: AJUNOK_clean_linker_0, # of connection points: 2
#     Edge 13, Type (0, 0), BuildingBlock: AJUNOK_clean_linker_0, # of connection points: 2
#     Edge 14, Type (0, 0), BuildingBlock: AJUNOK_clean_linker_0, # of connection points: 2
#     Edge 15, Type (0, 0), BuildingBlock: AJUNOK_clean_linker_0, # of connection points: 2
#     Edge 16, Type (0, 0), BuildingBlock: AJUNOK_clean_linker_0, # of connection points: 2
#     Edge 17, Type (0, 0), BuildingBlock: AJUNOK_clean_linker_0, # of connection points: 2
#     Edge 18, Type (0, 0), BuildingBlock: AJUNOK_clean_linker_0, # of connection points: 2
#     Edge 19, Type (0, 0), BuildingBlock: AJUNOK_clean_linker_0, # of connection points: 2
#     Edge 20, Type (0, 0), BuildingBlock: AJUNOK_clean_linker_0, # of connection points: 2
#     Edge 21, Type (0, 0), BuildingBlock: AJUNOK_clean_linker_0, # of connection points: 2
#     Edge 22, Type (0, 0), BuildingBlock: AJUNOK_clean_linker_0, # of connection points: 2
#     Edge 23, Type (0, 0), BuildingBlock: AJUNOK_clean_linker_0, # of connection points: 2
#     Edge 24, Type (0, 0), BuildingBlock: AJUNOK_clean_linker_0, # of connection points: 2
#     Edge 25, Type (0, 0), BuildingBlock: AJUNOK_clean_linker_0, # of connection points: 2
#     Edge 26, Type (0, 0), BuildingBlock: AJUNOK_clean_linker_0, # of connection points: 2
#     Edge 27, Type (0, 0), BuildingBlock: AJUNOK_clean_linker_0, # of connection points: 2
#     Edge 28, Type (0, 0), BuildingBlock: AJUNOK_clean_linker_0, # of connection points: 2
#     Edge 29, Type (0, 0), BuildingBlock: AJUNOK_clean_linker_0, # of connection points: 2
#     Edge 30, Type (0, 0), BuildingBlock: AJUNOK_clean_linker_0, # of connection points: 2
#     Edge 31, Type (0, 0), BuildingBlock: AJUNOK_clean_linker_0, # of connection points: 2
#     Edge 32, Type (0, 0), BuildingBlock: AJUNOK_clean_linker_0, # of connection points: 2
#     Edge 33, Type (0, 0), BuildingBlock: AJUNOK_clean_linker_0, # of connection points: 2
#     Edge 34, Type (0, 0), BuildingBlock: AJUNOK_clean_linker_0, # of connection points: 2
#     Edge 35, Type (0, 0), BuildingBlock: AJUNOK_clean_linker_0, # of connection points: 2
# Relax obj value: 0.162
# Max RMSD: 0.273
# Mean RMSD: 0.273
data_MOF--net-smc--node1-BETDEL_clean_sbu_0--edge1-AJUNOK_clean_linker_0
_symmetry_space_group_name_H-M    P1
_symmetry_Int_Tables_number       1
_symmetry_cell_setting            triclinic
loop_
_symmetry_equiv_pos_as_xyz
'x, y, z'
_cell_length_a     24.049159
_cell_length_b     24.084756
_cell_length_c     28.238434
_cell_angle_alpha  90.035826
_cell_angle_beta   89.804176
_cell_angle_gamma 120.13066
loop_
_atom_site_label
_atom_site_type_symbol
_atom_site_fract_x
_atom_site_fract_y
_atom_site_fract_z
_atom_type_partial_charge
Dy0 Dy 0.07719 0.52873 1.04225 0.0
C1 C 0.87845 0.27374 0.0556 0.0
C2 C 0.15131 0.66009 1.04016 0.0
Dy3 Dy 0.98071 0.39624 0.05954 0.0
O4 O 0.1324 0.62302 1.00331 0.0
O5 O 0.1326 0.62511 0.07821 0.0
O6 O 0.0804 0.50053 0.96629 0.0
O7 O 0.99265 0.45911 1.00149 0.0
C8 C 1.01946 0.45943 0.96294 0.0
C9 C 0.04316 0.45233 0.1415 0.0
O10 O 0.06721 0.38653 1.03578 0.0
O11 O 0.14538 0.49377 0.04563 0.0
O12 O 0.90453 0.30553 0.09399 0.0
O13 O 0.91198 0.30726 1.01949 0.0
O14 O 0.98125 0.4178 0.13663 0.0
O15 O 0.06761 0.4614 0.10029 0.0
O16 O 1.00125 0.54331 0.07437 0.0
O17 O 0.92001 0.44342 0.05514 0.0
C18 C 0.12877 0.43378 1.03625 0.0
C19 C 0.93995 0.50312 0.06832 0.0
Dy20 Dy 0.52136 0.56086 1.03368 0.0
C21 C 0.77607 0.61465 0.05282 0.0
C22 C 0.38999 0.50523 1.03335 0.0
Dy23 Dy 0.65372 0.59572 0.05277 0.0
O24 O 0.42741 0.53272 0.99722 0.0
O25 O 0.42471 0.51123 0.07016 0.0
O26 O 0.54792 0.5935 0.95819 0.0
O27 O 0.59348 0.55025 0.99197 0.0
C28 C 0.59249 0.57841 0.95442 0.0
C29 C 0.59353 0.59425 0.13429 0.0
O30 O 0.66566 0.69336 1.03206 0.0
O31 O 0.55845 0.66399 1.04286 0.0
O32 O 0.74559 0.61782 0.0897 0.0
O33 O 0.74168 0.60724 1.01561 0.0
O34 O 0.62775 0.56696 0.1281 0.0
O35 O 0.586 0.61359 0.09424 0.0
O36 O 0.50344 0.46575 0.05686 0.0
O37 O 0.60741 0.48789 0.05012 0.0
C38 C 0.61883 0.70789 1.03442 0.0
C39 C 0.54553 0.44652 0.05623 0.0
Dy40 Dy 0.48972 0.97018 1.04024 0.0
C41 C 0.44275 0.17154 0.07119 0.0
C42 C 0.54677 0.89607 1.03561 0.0
Dy43 Dy 0.45503 0.06527 0.06212 0.0
O44 O 0.53499 0.92198 0.99967 0.0
O45 O 0.52438 0.90795 0.07379 0.0
O46 O 0.45701 0.96643 0.96507 0.0
O47 O 0.50138 0.05457 1.0001 0.0
C48 C 0.4731 0.02646 0.96232 0.0
C49 C 0.45053 0.99957 0.14215 0.0
O50 O 0.35652 0.98139 1.04074 0.0
O51 O 0.38575 0.90274 1.04277 0.0
O52 O 0.46413 0.14861 0.10304 0.0
O53 O 0.42225 0.1326 1.03517 0.0
O54 O 0.47964 0.0614 0.13793 0.0
O55 O 0.43338 0.97677 0.10084 0.0
O56 O 0.58091 0.0456 0.07176 0.0
O57 O 0.56172 0.12446 0.04886 0.0
C58 C 0.34203 0.92009 1.03765 0.0
C59 C 0.60235 0.10612 0.06258 0.0
Dy60 Dy 0.74236 0.85968 0.3622 0.0
C61 C 0.53977 0.60727 0.38067 0.0
C62 C 0.81846 0.9904 0.36132 0.0
Dy63 Dy 0.64401 0.72845 0.38529 0.0
O64 O 0.80644 0.95334 0.32474 0.0
O65 O 0.79195 0.95562 0.39874 0.0
O66 O 0.74245 0.82792 0.28704 0.0
O67 O 0.65613 0.78798 0.32476 0.0
C68 C 0.68145 0.78598 0.28599 0.0
C69 C 0.71121 0.78849 0.4646 0.0
O70 O 0.72883 0.71499 0.36293 0.0
O71 O 0.80868 0.82253 0.36694 0.0
O72 O 0.57067 0.63529 0.41903 0.0
O73 O 0.56986 0.6434 0.34464 0.0
O74 O 0.64898 0.75401 0.4618 0.0
O75 O 0.73318 0.79548 0.42266 0.0
O76 O 0.66619 0.88016 0.38429 0.0
O77 O 0.58362 0.77582 0.39048 0.0
C78 C 0.79068 0.7615 0.36085 0.0
C79 C 0.60539 0.83826 0.39116 0.0
Dy80 Dy 0.18259 0.89127 0.37176 0.0
C81 C 0.43171 0.93875 0.40684 0.0
C82 C 0.05135 0.83499 0.36553 0.0
Dy83 Dy 0.31231 0.92505 0.39658 0.0
O84 O 0.09133 0.85896 0.33031 0.0
O85 O 0.08342 0.84526 0.40456 0.0
O86 O 0.21458 0.92362 0.2969 0.0
O87 O 0.25667 0.87914 0.33399 0.0
C88 C 0.25859 0.90753 0.29578 0.0
C89 C 0.24887 0.93116 0.47508 0.0
O90 O 0.3276 0.02334 0.37337 0.0
O91 O 0.21986 0.99501 0.37704 0.0
O92 O 0.38834 0.92144 0.43948 0.0
O93 O 0.41218 0.95518 0.36923 0.0
O94 O 0.28161 0.90198 0.47241 0.0
O95 O 0.24409 0.94692 0.43306 0.0
O96 O 0.16268 0.79669 0.39845 0.0
O97 O 0.2656 0.81772 0.38888 0.0
C98 C 0.28111 0.03841 0.37108 0.0
C99 C 0.20409 0.77674 0.39646 0.0
Dy100 Dy 0.15294 0.30133 0.37491 0.0
C101 C 0.1037 0.50188 0.40575 0.0
C102 C 0.21065 0.22767 0.37107 0.0
Dy103 Dy 0.11636 0.39596 0.39518 0.0
O104 O 0.19548 0.25021 0.3348 0.0
O105 O 0.19129 0.24265 0.40944 0.0
O106 O 0.12083 0.29601 0.29945 0.0
O107 O 0.16344 0.38458 0.33384 0.0
C108 C 0.13563 0.35561 0.29616 0.0
C109 C 0.11172 0.33057 0.47565 0.0
O110 O 1.01934 0.31214 0.37151 0.0
O111 O 0.04888 0.23396 0.37804 0.0
O112 O 0.12303 0.47706 0.43764 0.0
O113 O 0.08511 0.46485 0.36862 0.0
O114 O 0.1403 0.39233 0.4713 0.0
O115 O 0.09511 0.30774 0.43434 0.0
O116 O 0.24386 0.37868 0.40558 0.0
O117 O 0.2229 0.45586 0.38106 0.0
C118 C 1.00529 0.25091 0.3702 0.0
C119 C 0.26429 0.43873 0.39527 0.0
Dy120 Dy 0.41204 0.19637 0.70549 0.0
C121 C 0.20986 0.94814 0.7386 0.0
C122 C 0.48668 0.32761 0.69936 0.0
Dy123 Dy 0.31615 0.06717 0.72935 0.0
O124 O 0.46995 0.28812 0.66399 0.0
O125 O 0.4658 0.29509 0.73841 0.0
O126 O 0.41349 0.16644 0.6303 0.0
O127 O 0.32613 0.12305 0.66685 0.0
C128 C 0.35337 0.12222 0.62863 0.0
C129 C 0.3851 0.12858 0.80837 0.0
O130 O 0.39921 0.05196 0.70604 0.0
O131 O 0.47885 0.15947 0.71 0.0
O132 O 0.23184 0.99297 0.77017 0.0
O133 O 0.24981 0.96627 0.70302 0.0
O134 O 0.32306 0.09555 0.80561 0.0
O135 O 0.40619 0.1343 0.76636 0.0
O136 O 0.33733 0.21497 0.73437 0.0
O137 O 0.25617 0.11416 0.71885 0.0
C138 C 0.46095 0.09841 0.70378 0.0
C139 C 0.276 0.17472 0.72901 0.0
Dy140 Dy 0.85245 0.22522 0.71106 0.0
C141 C 0.10489 0.27906 0.73433 0.0
C142 C 0.72081 0.16745 0.70602 0.0
Dy143 Dy 0.98312 0.26106 0.72929 0.0
O144 O 0.75969 0.18488 0.67013 0.0
O145 O 0.75412 0.1845 0.7448 0.0
O146 O 0.8807 0.25748 0.63526 0.0
O147 O 0.92332 0.21193 0.66955 0.0
C148 C 0.92311 0.2395 0.63161 0.0
C149 C 0.92653 0.26596 0.81109 0.0
O150 O 0.99483 0.35792 0.70612 0.0
O151 O 0.88727 0.32833 0.71479 0.0
O152 O 0.08122 0.29278 0.6978 0.0
O153 O 0.0633 0.26024 0.76836 0.0
O154 O 0.95873 0.23661 0.80538 0.0
O155 O 0.91763 0.28285 0.77048 0.0
O156 O 0.83739 0.13473 0.74317 0.0
O157 O 0.93516 0.15372 0.71852 0.0
C158 C 0.94758 0.372 0.70601 0.0
C159 C 0.87648 0.11336 0.73379 0.0
Dy160 Dy 0.82 0.63583 0.69684 0.0
C161 C 0.76862 0.83827 0.71778 0.0
C162 C 0.87475 0.55979 0.69873 0.0
Dy163 Dy 0.78668 0.73448 0.71783 0.0
O164 O 0.84671 0.56786 0.66226 0.0
O165 O 0.86951 0.59035 0.73477 0.0
O166 O 0.79066 0.63202 0.62103 0.0
O167 O 0.83224 0.71994 0.65654 0.0
C168 C 0.80498 0.69158 0.61843 0.0
C169 C 0.78097 0.66901 0.7981 0.0
O170 O 0.68857 0.6499 0.69551 0.0
O171 O 0.71604 0.57045 0.70334 0.0
O172 O 0.76647 0.80556 0.75481 0.0
O173 O 0.77534 0.81072 0.68056 0.0
O174 O 0.80951 0.73102 0.79416 0.0
O175 O 0.76497 0.64637 0.7566 0.0
O176 O 0.91647 0.71274 0.71783 0.0
O177 O 0.89497 0.79545 0.71917 0.0
C178 C 0.67308 0.58814 0.69554 0.0
C179 C 0.93573 0.77388 0.72125 0.0
C180 C 0.28676 0.46912 0.99012 0.0
C181 C 0.31876 0.47153 1.03237 0.0
C182 C 0.22018 0.44541 0.98968 0.0
C183 C 0.18324 0.42279 1.03131 0.0
H184 H 0.31379 0.48933 0.95776 0.0
H185 H 0.19866 0.4508 0.95762 0.0
S186 S 0.24216 0.41047 0.14965 0.0
N187 N 0.30705 0.44222 0.11576 0.0
N188 N 0.18227 0.39842 0.11463 0.0
C189 C 0.21368 0.41947 0.07264 0.0
C190 C 0.28145 0.44384 0.0733 0.0
C191 C 0.59711 0.84023 0.07621 0.0
C192 C 0.58122 0.8595 1.0338 0.0
C193 C 0.62162 0.79828 0.07584 0.0
C194 C 0.6307 0.77379 1.03312 0.0
H195 H 0.58713 0.85463 0.11007 0.0
H196 H 0.62702 0.77959 0.10936 0.0
S197 S 0.60562 0.81649 0.91234 0.0
N198 N 0.58441 0.85748 0.94768 0.0
N199 N 0.62865 0.77697 0.94744 0.0
C200 C 0.62071 0.79727 0.9905 0.0
C201 C 0.59616 0.84041 0.99072 0.0
C202 C 0.25698 0.8294 0.99399 0.0
C203 C 0.27587 0.86622 1.03566 0.0
C204 C 0.2136 0.76304 0.99543 0.0
C205 C 0.18851 0.73116 1.03874 0.0
H206 H 0.28074 0.85081 0.96074 0.0
H207 H 0.20325 0.73599 0.96279 0.0
S208 S 0.21628 0.8078 0.15695 0.0
N209 N 0.26086 0.86757 0.12046 0.0
N210 N 0.17948 0.74293 0.12355 0.0
C211 C 0.20258 0.76842 0.08007 0.0
C212 C 0.24611 0.83605 0.07838 0.0
C213 C 0.42894 0.26631 0.05656 0.0
C214 C 0.4687 0.24115 0.06706 0.0
C215 C 0.45442 0.3329 0.05346 0.0
C216 C 0.52088 0.37652 0.05977 0.0
H217 H 0.37779 0.23446 0.05138 0.0
H218 H 0.42169 0.35016 0.04571 0.0
S219 S 0.64574 0.333 0.08386 0.0
N220 N 0.5778 0.26362 0.0814 0.0
N221 N 0.62589 0.38853 0.0747 0.0
C222 C 0.56122 0.35138 0.06895 0.0
C223 C 0.53513 0.28375 0.07283 0.0
C224 C 0.71358 0.1371 0.0882 0.0
C225 C 0.67266 0.15007 0.0606 0.0
C226 C 0.78068 0.17593 0.08524 0.0
C227 C 0.80906 0.22747 0.0533 0.0
H228 H 0.6936 0.09719 0.11284 0.0
H229 H 0.8105 0.16594 0.10833 0.0
S230 S 0.72373 0.28227 0.97359 0.0
N231 N 0.66571 0.21903 1.00094 0.0
N232 N 0.79167 0.29072 0.99433 0.0
C233 C 0.76886 0.24055 1.0251 0.0
C234 C 0.70064 0.20219 1.02905 0.0
C235 C 0.84904 0.50955 1.03199 0.0
C236 C 0.89644 0.52979 0.06719 0.0
C237 C 0.81299 0.54014 1.02594 0.0
C238 C 0.82199 0.59109 0.05553 0.0
H239 H 0.84089 0.47096 1.00813 0.0
H240 H 0.77643 0.52239 0.99868 0.0
S241 S 0.93884 0.66117 0.15366 0.0
N242 N 0.95079 0.60429 0.13187 0.0
N243 N 0.88052 0.65952 0.1218 0.0
C244 C 0.86846 0.61117 0.09126 0.0
C245 C 0.90634 0.58111 0.09671 0.0
C246 C 0.87516 0.75153 0.40113 0.0
C247 C 0.84436 0.74903 0.35826 0.0
C248 C 0.94198 0.77665 0.4029 0.0
C249 C 0.9802 0.80008 0.36183 0.0
H250 H 0.84868 0.74071 0.43421 0.0
H251 H 0.96418 0.7814 0.43711 0.0
S252 S 0.9208 0.79386 0.23975 0.0
N253 N 0.8557 0.76463 0.27327 0.0
N254 N 0.98081 0.81037 0.27611 0.0
C255 C 0.949 0.79165 0.31815 0.0
C256 C 0.88108 0.7662 0.3165 0.0
C257 C 0.26355 0.17391 0.41145 0.0
C258 C 0.24499 0.19092 0.36919 0.0
C259 C 0.28769 0.13156 0.41117 0.0
C260 C 0.29389 0.10461 0.36868 0.0
H261 H 0.25582 0.1903 0.44526 0.0
H262 H 0.29487 0.11446 0.44482 0.0
S263 S 0.26129 0.1409 0.24802 0.0
N264 N 0.24261 0.18404 0.28316 0.0
N265 N 0.28639 0.10318 0.28314 0.0
C266 C 0.28134 0.12597 0.32602 0.0
C267 C 0.25704 0.1693 0.32614 0.0
C268 C 0.90784 0.16234 0.40497 0.0
C269 C 0.93997 0.19689 0.36405 0.0
C270 C 0.86597 0.09572 0.40334 0.0
C271 C 0.85521 0.06147 0.36074 0.0
H272 H 0.92034 0.18574 0.43924 0.0
H273 H 0.8452 0.07049 0.43621 0.0
S274 S 0.92028 0.1318 0.24263 0.0
N275 N 0.9526 0.19368 0.27913 0.0
N276 N 0.87342 0.06857 0.27562 0.0
C277 C 0.88227 0.09646 0.31888 0.0
C278 C 0.92464 0.16428 0.32065 0.0
C279 C 0.11601 0.66324 0.38451 0.0
C280 C 0.17951 0.7069 0.39902 0.0
C281 C 0.09122 0.59659 0.38635 0.0
C282 C 0.12845 0.57159 0.40411 0.0
H283 H 0.08551 0.68066 0.37096 0.0
H284 H 0.04257 0.56456 0.37433 0.0
S285 S 0.29793 0.66495 0.4448 0.0
N286 N 0.27946 0.72001 0.42997 0.0
N287 N 0.23264 0.59516 0.43472 0.0
C288 C 0.192 0.61466 0.41853 0.0
C289 C 0.2176 0.68226 0.41564 0.0
C290 C 0.37615 0.47796 0.42348 0.0
C291 C 0.33427 0.48269 0.39119 0.0
C292 C 0.44309 0.51662 0.4188 0.0
C293 C 0.47039 0.55957 0.38069 0.0
H294 H 0.35699 0.44486 0.45304 0.0
H295 H 0.47366 0.51348 0.44549 0.0
S296 S 0.38139 0.58701 0.28482 0.0
N297 N 0.32464 0.53227 0.31915 0.0
N298 N 0.45024 0.60325 0.30922 0.0
C299 C 0.42895 0.56319 0.34727 0.0
C300 C 0.36089 0.52524 0.35285 0.0
C301 C 0.52601 0.93787 0.36993 0.0
C302 C 0.48023 0.91805 0.4065 0.0
C303 C 0.56646 0.91176 0.36546 0.0
C304 C 0.56111 0.86348 0.39645 0.0
H305 H 0.52996 0.97302 0.3442 0.0
H306 H 0.60132 0.92849 0.33684 0.0
S307 S 0.45068 0.79597 0.49884 0.0
N308 N 0.43383 0.84867 0.47555 0.0
N309 N 0.50833 0.79826 0.46549 0.0
C310 C 0.516 0.84342 0.43321 0.0
C311 C 0.47603 0.87118 0.4387 0.0
C312 C 0.61262 0.11321 0.74503 0.0
C313 C 0.64964 0.13353 0.70326 0.0
C314 C 0.54609 0.08958 0.74407 0.0
C315 C 0.51437 0.08562 0.70137 0.0
H316 H 0.63568 0.1192 0.77904 0.0
H317 H 0.52071 0.08102 0.77747 0.0
S318 S 0.58724 0.12346 0.58163 0.0
N319 N 0.64796 0.14005 0.61731 0.0
N320 N 0.52321 0.09711 0.61605 0.0
C321 C 0.54966 0.09993 0.65908 0.0
C322 C 0.61734 0.12376 0.65988 0.0
C323 C 0.93447 0.44884 0.65774 0.0
C324 C 0.95843 0.43708 0.69957 0.0
C325 C 0.91022 0.49105 0.65724 0.0
C326 C 0.90877 0.52272 0.69869 0.0
H327 H 0.92838 0.4203 0.62641 0.0
H328 H 0.88892 0.49578 0.62486 0.0
S329 S 0.97528 0.51574 0.81552 0.0
N330 N 0.98603 0.4657 0.78192 0.0
N331 N 0.94151 0.54597 0.78117 0.0
C332 C 0.93813 0.51594 0.73963 0.0
C333 C 0.96291 0.473 0.73997 0.0
C334 C 0.57829 0.50301 0.73558 0.0
C335 C 0.60685 0.5345 0.69281 0.0
C336 C 0.53686 0.43621 0.7371 0.0
C337 C 0.52261 0.39869 0.69586 0.0
H338 H 0.59362 0.529 0.76876 0.0
H339 H 0.51921 0.4135 0.77124 0.0
S340 S 0.5768 0.4601 0.574 0.0
N341 N 0.61193 0.52471 0.60777 0.0
N342 N 0.53322 0.39944 0.61011 0.0
C343 C 0.54564 0.43057 0.65228 0.0
C344 C 0.58775 0.49853 0.65089 0.0
C345 C 0.83989 0.94999 0.68946 0.0
C346 C 0.7903 0.90738 0.72 0.0
C347 C 0.86951 0.01667 0.69549 0.0
C348 C 0.84957 0.04312 0.73151 0.0
H349 H 0.85752 0.93173 0.66171 0.0
H350 H 0.90748 0.0477 0.67112 0.0
S351 S 0.72089 0.95209 0.82011 0.0
N352 N 0.72292 0.89605 0.78763 0.0
N353 N 0.77634 0.02149 0.79768 0.0
C354 C 0.79922 1.00098 0.76175 0.0
C355 C 0.77021 0.93308 0.75629 0.0
C356 C 0.03022 0.86676 0.75919 0.0
C357 C 1.00552 0.81823 0.72492 0.0
C358 C 0.09679 0.90607 0.76502 0.0
C359 C 0.14091 0.8992 0.73601 0.0
H360 H 0.99799 0.87374 0.78207 0.0
H361 H 0.11366 0.94346 0.79161 0.0
S362 S 0.09982 0.78027 0.6399 0.0
N363 N 0.0296 0.76506 0.66147 0.0
N364 N 0.15475 0.84085 0.67125 0.0
C365 C 0.11663 0.85106 0.7014 0.0
C366 C 0.04889 0.81011 0.69615 0.0
C367 C 0.25592 0.26731 0.72877 0.0
C368 C 0.23118 0.20019 0.72955 0.0
C369 C 0.21515 0.29335 0.72888 0.0
C370 C 0.14841 0.25309 0.73016 0.0
H371 H 0.30733 0.30032 0.72802 0.0
H372 H 0.23589 0.34499 0.72887 0.0
S373 S 0.0585 0.07495 0.73093 0.0
N374 N 0.13488 0.09454 0.73025 0.0
N375 N 0.05861 0.14356 0.73093 0.0
C376 C 0.12286 0.18622 0.7303 0.0
C377 C 0.16413 0.15967 0.72985 0.0
C378 C 0.12632 0.44588 0.2563 0.0
C379 C 0.11626 0.38273 0.25557 0.0
C380 C 0.10389 0.46945 0.21928 0.0
C381 C 0.0709 0.43084 0.18002 0.0
H382 H 0.15093 0.47705 0.28596 0.0
H383 H 0.11168 0.51772 0.22171 0.0
S384 S 0.03577 0.26418 0.15896 0.0
N385 N 0.07347 0.28381 0.21029 0.0
N386 N 0.03169 0.32755 0.14197 0.0
C387 C 0.06195 0.36845 0.17852 0.0
C388 C 0.08459 0.34463 0.21579 0.0
C389 C 0.68352 0.6973 0.24121 0.0
C390 C 0.65229 0.73206 0.25111 0.0
C391 C 0.66123 0.64983 0.20586 0.0
C392 C 0.60743 0.63587 0.17746 0.0
H393 H 0.72626 0.7074 0.26066 0.0
H394 H 0.6887 0.62614 0.19938 0.0
S395 S 0.5066 0.7116 0.19053 0.0
N396 N 0.56231 0.74681 0.2317 0.0
N397 N 0.522 0.6598 0.16355 0.0
C398 C 0.57461 0.66921 0.1879 0.0
C399 C 0.59654 0.71659 0.22505 0.0
C400 C 0.35615 0.99205 0.18527 0.0
C401 C 0.40216 0.97236 0.18151 0.0
C402 C 0.31012 0.96997 0.2218 0.0
C403 C 0.3077 0.92719 0.25684 0.0
H404 H 0.35572 0.02517 0.1595 0.0
H405 H 0.27642 0.98735 0.22273 0.0
S406 S 0.41622 0.85926 0.26282 0.0
N407 N 0.44165 0.90629 0.2156 0.0
N408 N 0.35518 0.86466 0.28459 0.0
C409 C 0.35301 0.90637 0.25339 0.0
C410 C 0.40007 0.92887 0.2157 0.0
C411 C 0.46541 0.11834 0.92359 0.0
C412 C 0.45596 0.05545 0.92164 0.0
C413 C 0.44411 0.14324 0.8867 0.0
C414 C 0.41349 0.10655 0.84612 0.0
H415 H 0.48829 0.14813 0.95421 0.0
H416 H 0.45077 0.19097 0.89033 0.0
S417 S 0.38029 0.94109 0.82197 0.0
N418 N 0.41582 0.95869 0.87413 0.0
N419 N 0.37675 1.00506 0.80583 0.0
C420 C 0.40559 0.04459 0.84331 0.0
C421 C 0.42665 0.01926 0.88062 0.0
C422 C 0.0266 0.3783 0.91157 0.0
C423 C 0.99146 0.40746 0.92633 0.0
C424 C 1.00341 0.3307 0.87625 0.0
C425 C 0.94459 0.31099 0.85266 0.0
H426 H 0.07274 0.39239 0.92751 0.0
H427 H 0.03345 0.31091 0.8663 0.0
S428 S 0.83469 0.37381 0.87718 0.0
N429 N 0.89406 0.41258 0.91522 0.0
N430 N 0.85225 0.32589 0.84676 0.0
C431 C 0.90892 0.33995 0.86704 0.0
C432 C 0.93175 0.38722 0.90435 0.0
C433 C 0.73322 0.60295 0.87359 0.0
C434 C 0.73108 0.64099 0.83653 0.0
C435 C 0.6872 0.58074 0.91088 0.0
C436 C 0.63818 0.59686 0.91307 0.0
H437 H 0.7709 0.5908 0.87404 0.0
H438 H 0.69036 0.55111 0.93827 0.0
S439 S 0.60843 0.69022 0.82199 0.0
N440 N 0.67241 0.68879 0.80243 0.0
N441 N 0.58863 0.64985 0.87229 0.0
C442 C 0.63467 0.633 0.87517 0.0
C443 C 0.68043 0.65443 0.83717 0.0
C444 C 0.77876 0.80753 0.53922 0.0
C445 C 0.74045 0.76725 0.50226 0.0
C446 C 0.80173 0.78396 0.57592 0.0
C447 C 0.78615 0.71898 0.57759 0.0
H448 H 0.79048 0.85719 0.54009 0.0
H449 H 0.83156 0.81681 0.60324 0.0
S450 S 0.69238 0.59587 0.48636 0.0
N451 N 0.69273 0.66092 0.46771 0.0
N452 N 0.73356 0.61665 0.53619 0.0
C453 C 0.74986 0.67934 0.53967 0.0
C454 C 0.72751 0.70337 0.50236 0.0
C455 C 0.23525 0.97537 0.55406 0.0
C456 C 0.27129 0.9817 0.51287 0.0
C457 C 0.2607 0.02175 0.5909 0.0
C458 C 0.32355 0.07562 0.58825 0.0
H459 H 0.18759 0.93394 0.55821 0.0
H460 H 0.23145 1.01465 0.622 0.0
S461 S 0.43692 0.11429 0.48737 0.0
N462 N 0.37254 0.04659 0.4717 0.0
N463 N 0.41988 0.13237 0.53978 0.0
C464 C 0.35921 0.08251 0.54678 0.0
C465 C 0.33335 0.03596 0.50955 0.0
C466 C 0.97045 0.29868 0.55545 0.0
C467 C 0.97027 0.258 0.59134 0.0
C468 C 1.01569 0.32044 0.51829 0.0
C469 C 0.06331 0.3028 0.51499 0.0
H470 H 0.93578 0.31486 0.55632 0.0
H471 H 1.0138 0.35217 0.49197 0.0
S472 S 0.08257 0.19449 0.598 0.0
N473 N 1.02069 0.19842 0.61969 0.0
N474 N 0.10617 0.24024 0.55009 0.0
C475 C 0.06315 0.26105 0.54986 0.0
C476 C 1.01667 0.23852 0.58791 0.0
loop_
_geom_bond_atom_site_label_1
_geom_bond_atom_site_label_2
_geom_bond_distance
_geom_bond_site_symmetry_2
_ccdc_geom_bond_type
Dy0 O4 2.398 . S
Dy0 O5 2.491 1_556 S
Dy0 O6 2.403 . S
Dy0 O7 2.664 1_455 S
Dy0 O11 2.326 . S
Dy0 O15 2.310 1_556 S
Dy0 O16 2.351 1_456 S
C1 O12 1.185 . S
C1 O13 1.355 1_554 S
C2 O4 1.185 . S
C2 O5 1.355 1_556 S
Dy3 O7 2.310 1_554 S
Dy3 O10 2.351 1_655 S
Dy3 O12 2.398 . S
Dy3 O13 2.491 1_554 S
Dy3 O14 2.403 . S
Dy3 O15 2.664 1_655 S
Dy3 O17 2.326 . S
O4 Dy0 2.398 . S
O4 C2 1.185 . S
O5 Dy0 2.491 1_554 S
O5 C2 1.355 1_554 S
O6 Dy0 2.403 . S
O6 C8 1.254 1_455 S
O7 Dy0 2.664 1_655 S
O7 Dy3 2.310 1_556 S
O7 C8 1.268 . S
C8 O6 1.254 1_655 S
C8 O7 1.268 . S
C9 O14 1.254 1_455 S
C9 O15 1.268 . S
O10 Dy3 2.351 1_455 S
O10 C18 1.249 1_554 S
O11 Dy0 2.326 . S
O11 C18 1.267 . S
O12 C1 1.185 . S
O12 Dy3 2.398 . S
O13 C1 1.355 1_556 S
O13 Dy3 2.491 1_556 S
O14 Dy3 2.403 . S
O14 C9 1.254 1_655 S
O15 Dy0 2.310 1_554 S
O15 Dy3 2.664 1_455 S
O15 C9 1.268 . S
O16 Dy0 2.351 1_654 S
O16 C19 1.249 . S
O17 Dy3 2.326 . S
O17 C19 1.267 . S
C18 O10 1.249 1_556 S
C18 O11 1.267 . S
C19 O16 1.249 . S
C19 O17 1.267 . S
Dy20 O24 2.398 . S
Dy20 O25 2.491 1_556 S
Dy20 O26 2.403 . S
Dy20 O27 2.664 . S
Dy20 O31 2.326 . S
Dy20 O35 2.310 1_556 S
Dy20 O36 2.351 1_556 S
C21 O32 1.185 . S
C21 O33 1.355 1_554 S
C22 O24 1.185 . S
C22 O25 1.355 1_556 S
Dy23 O27 2.310 1_554 S
Dy23 O30 2.351 . S
Dy23 O32 2.398 . S
Dy23 O33 2.491 1_554 S
Dy23 O34 2.403 . S
Dy23 O35 2.664 . S
Dy23 O37 2.326 . S
O24 Dy20 2.398 . S
O24 C22 1.185 . S
O25 Dy20 2.491 1_554 S
O25 C22 1.355 1_554 S
O26 Dy20 2.403 . S
O26 C28 1.254 . S
O27 Dy20 2.664 . S
O27 Dy23 2.310 1_556 S
O27 C28 1.268 . S
C28 O26 1.254 . S
C28 O27 1.268 . S
C29 O34 1.254 . S
C29 O35 1.268 . S
O30 Dy23 2.351 . S
O30 C38 1.249 1_554 S
O31 Dy20 2.326 . S
O31 C38 1.267 . S
O32 C21 1.185 . S
O32 Dy23 2.398 . S
O33 C21 1.355 1_556 S
O33 Dy23 2.491 1_556 S
O34 Dy23 2.403 . S
O34 C29 1.254 . S
O35 Dy20 2.310 1_554 S
O35 Dy23 2.664 . S
O35 C29 1.268 . S
O36 Dy20 2.351 1_554 S
O36 C39 1.249 . S
O37 Dy23 2.326 . S
O37 C39 1.267 . S
C38 O30 1.249 1_556 S
C38 O31 1.267 . S
C39 O36 1.249 . S
C39 O37 1.267 . S
Dy40 O44 2.398 . S
Dy40 O45 2.491 1_556 S
Dy40 O46 2.403 . S
Dy40 O47 2.664 1_565 S
Dy40 O51 2.326 . S
Dy40 O55 2.310 1_556 S
Dy40 O56 2.351 1_566 S
C41 O52 1.185 . S
C41 O53 1.355 1_554 S
C42 O44 1.185 . S
C42 O45 1.355 1_556 S
Dy43 O47 2.310 1_554 S
Dy43 O50 2.351 1_545 S
Dy43 O52 2.398 . S
Dy43 O53 2.491 1_554 S
Dy43 O54 2.403 . S
Dy43 O55 2.664 1_545 S
Dy43 O57 2.326 . S
O44 Dy40 2.398 . S
O44 C42 1.185 . S
O45 Dy40 2.491 1_554 S
O45 C42 1.355 1_554 S
O46 Dy40 2.403 . S
O46 C48 1.254 1_565 S
O47 Dy40 2.664 1_545 S
O47 Dy43 2.310 1_556 S
O47 C48 1.268 . S
C48 O46 1.254 1_545 S
C48 O47 1.268 . S
C49 O54 1.254 1_565 S
C49 O55 1.268 . S
O50 Dy43 2.351 1_565 S
O50 C58 1.249 1_554 S
O51 Dy40 2.326 . S
O51 C58 1.267 . S
O52 C41 1.185 . S
O52 Dy43 2.398 . S
O53 C41 1.355 1_556 S
O53 Dy43 2.491 1_556 S
O54 Dy43 2.403 . S
O54 C49 1.254 1_545 S
O55 Dy40 2.310 1_554 S
O55 Dy43 2.664 1_565 S
O55 C49 1.268 . S
O56 Dy40 2.351 1_544 S
O56 C59 1.249 . S
O57 Dy43 2.326 . S
O57 C59 1.267 . S
C58 O50 1.249 1_556 S
C58 O51 1.267 . S
C59 O56 1.249 . S
C59 O57 1.267 . S
Dy60 O64 2.398 . S
Dy60 O65 2.491 . S
Dy60 O66 2.403 . S
Dy60 O67 2.664 . S
Dy60 O71 2.326 . S
Dy60 O75 2.310 . S
Dy60 O76 2.351 . S
C61 O72 1.185 . S
C61 O73 1.355 . S
C62 O64 1.185 . S
C62 O65 1.355 . S
Dy63 O67 2.310 . S
Dy63 O70 2.351 . S
Dy63 O72 2.398 . S
Dy63 O73 2.491 . S
Dy63 O74 2.403 . S
Dy63 O75 2.664 . S
Dy63 O77 2.326 . S
O64 Dy60 2.398 . S
O64 C62 1.185 . S
O65 Dy60 2.491 . S
O65 C62 1.355 . S
O66 Dy60 2.403 . S
O66 C68 1.254 . S
O67 Dy60 2.664 . S
O67 Dy63 2.310 . S
O67 C68 1.268 . S
C68 O66 1.254 . S
C68 O67 1.268 . S
C69 O74 1.254 . S
C69 O75 1.268 . S
O70 Dy63 2.351 . S
O70 C78 1.249 . S
O71 Dy60 2.326 . S
O71 C78 1.267 . S
O72 C61 1.185 . S
O72 Dy63 2.398 . S
O73 C61 1.355 . S
O73 Dy63 2.491 . S
O74 Dy63 2.403 . S
O74 C69 1.254 . S
O75 Dy60 2.310 . S
O75 Dy63 2.664 . S
O75 C69 1.268 . S
O76 Dy60 2.351 . S
O76 C79 1.249 . S
O77 Dy63 2.326 . S
O77 C79 1.267 . S
C78 O70 1.249 . S
C78 O71 1.267 . S
C79 O76 1.249 . S
C79 O77 1.267 . S
Dy80 O84 2.398 . S
Dy80 O85 2.491 . S
Dy80 O86 2.403 . S
Dy80 O87 2.664 . S
Dy80 O91 2.326 . S
Dy80 O95 2.310 . S
Dy80 O96 2.351 . S
C81 O92 1.185 . S
C81 O93 1.355 . S
C82 O84 1.185 . S
C82 O85 1.355 . S
Dy83 O87 2.310 . S
Dy83 O90 2.351 1_565 S
Dy83 O92 2.398 . S
Dy83 O93 2.491 . S
Dy83 O94 2.403 . S
Dy83 O95 2.664 . S
Dy83 O97 2.326 . S
O84 Dy80 2.398 . S
O84 C82 1.185 . S
O85 Dy80 2.491 . S
O85 C82 1.355 . S
O86 Dy80 2.403 . S
O86 C88 1.254 . S
O87 Dy80 2.664 . S
O87 Dy83 2.310 . S
O87 C88 1.268 . S
C88 O86 1.254 . S
C88 O87 1.268 . S
C89 O94 1.254 . S
C89 O95 1.268 . S
O90 Dy83 2.351 1_545 S
O90 C98 1.249 1_545 S
O91 Dy80 2.326 . S
O91 C98 1.267 . S
O92 C81 1.185 . S
O92 Dy83 2.398 . S
O93 C81 1.355 . S
O93 Dy83 2.491 . S
O94 Dy83 2.403 . S
O94 C89 1.254 . S
O95 Dy80 2.310 . S
O95 Dy83 2.664 . S
O95 C89 1.268 . S
O96 Dy80 2.351 . S
O96 C99 1.249 . S
O97 Dy83 2.326 . S
O97 C99 1.267 . S
C98 O90 1.249 1_565 S
C98 O91 1.267 . S
C99 O96 1.249 . S
C99 O97 1.267 . S
Dy100 O104 2.398 . S
Dy100 O105 2.491 . S
Dy100 O106 2.403 . S
Dy100 O107 2.664 . S
Dy100 O111 2.326 . S
Dy100 O115 2.310 . S
Dy100 O116 2.351 . S
C101 O112 1.185 . S
C101 O113 1.355 . S
C102 O104 1.185 . S
C102 O105 1.355 . S
Dy103 O107 2.310 . S
Dy103 O110 2.351 . S
Dy103 O112 2.398 . S
Dy103 O113 2.491 . S
Dy103 O114 2.403 . S
Dy103 O115 2.664 . S
Dy103 O117 2.326 . S
O104 Dy100 2.398 . S
O104 C102 1.185 . S
O105 Dy100 2.491 . S
O105 C102 1.355 . S
O106 Dy100 2.403 . S
O106 C108 1.254 . S
O107 Dy100 2.664 . S
O107 Dy103 2.310 . S
O107 C108 1.268 . S
C108 O106 1.254 . S
C108 O107 1.268 . S
C109 O114 1.254 . S
C109 O115 1.268 . S
O110 Dy103 2.351 . S
O110 C118 1.249 . S
O111 Dy100 2.326 . S
O111 C118 1.267 . S
O112 C101 1.185 . S
O112 Dy103 2.398 . S
O113 C101 1.355 . S
O113 Dy103 2.491 . S
O114 Dy103 2.403 . S
O114 C109 1.254 . S
O115 Dy100 2.310 . S
O115 Dy103 2.664 . S
O115 C109 1.268 . S
O116 Dy100 2.351 . S
O116 C119 1.249 . S
O117 Dy103 2.326 . S
O117 C119 1.267 . S
C118 O110 1.249 . S
C118 O111 1.267 . S
C119 O116 1.249 . S
C119 O117 1.267 . S
Dy120 O124 2.398 . S
Dy120 O125 2.491 . S
Dy120 O126 2.403 . S
Dy120 O127 2.664 . S
Dy120 O131 2.326 . S
Dy120 O135 2.310 . S
Dy120 O136 2.351 . S
C121 O132 1.185 . S
C121 O133 1.355 . S
C122 O124 1.185 . S
C122 O125 1.355 . S
Dy123 O127 2.310 . S
Dy123 O130 2.351 . S
Dy123 O132 2.398 1_545 S
Dy123 O133 2.491 1_545 S
Dy123 O134 2.403 . S
Dy123 O135 2.664 . S
Dy123 O137 2.326 . S
O124 Dy120 2.398 . S
O124 C122 1.185 . S
O125 Dy120 2.491 . S
O125 C122 1.355 . S
O126 Dy120 2.403 . S
O126 C128 1.254 . S
O127 Dy120 2.664 . S
O127 Dy123 2.310 . S
O127 C128 1.268 . S
C128 O126 1.254 . S
C128 O127 1.268 . S
C129 O134 1.254 . S
C129 O135 1.268 . S
O130 Dy123 2.351 . S
O130 C138 1.249 . S
O131 Dy120 2.326 . S
O131 C138 1.267 . S
O132 C121 1.185 . S
O132 Dy123 2.398 1_565 S
O133 C121 1.355 . S
O133 Dy123 2.491 1_565 S
O134 Dy123 2.403 . S
O134 C129 1.254 . S
O135 Dy120 2.310 . S
O135 Dy123 2.664 . S
O135 C129 1.268 . S
O136 Dy120 2.351 . S
O136 C139 1.249 . S
O137 Dy123 2.326 . S
O137 C139 1.267 . S
C138 O130 1.249 . S
C138 O131 1.267 . S
C139 O136 1.249 . S
C139 O137 1.267 . S
Dy140 O144 2.398 . S
Dy140 O145 2.491 . S
Dy140 O146 2.403 . S
Dy140 O147 2.664 . S
Dy140 O151 2.326 . S
Dy140 O155 2.310 . S
Dy140 O156 2.351 . S
C141 O152 1.185 . S
C141 O153 1.355 . S
C142 O144 1.185 . S
C142 O145 1.355 . S
Dy143 O147 2.310 . S
Dy143 O150 2.351 . S
Dy143 O152 2.398 1_655 S
Dy143 O153 2.491 1_655 S
Dy143 O154 2.403 . S
Dy143 O155 2.664 . S
Dy143 O157 2.326 . S
O144 Dy140 2.398 . S
O144 C142 1.185 . S
O145 Dy140 2.491 . S
O145 C142 1.355 . S
O146 Dy140 2.403 . S
O146 C148 1.254 . S
O147 Dy140 2.664 . S
O147 Dy143 2.310 . S
O147 C148 1.268 . S
C148 O146 1.254 . S
C148 O147 1.268 . S
C149 O154 1.254 . S
C149 O155 1.268 . S
O150 Dy143 2.351 . S
O150 C158 1.249 . S
O151 Dy140 2.326 . S
O151 C158 1.267 . S
O152 C141 1.185 . S
O152 Dy143 2.398 1_455 S
O153 C141 1.355 . S
O153 Dy143 2.491 1_455 S
O154 Dy143 2.403 . S
O154 C149 1.254 . S
O155 Dy140 2.310 . S
O155 Dy143 2.664 . S
O155 C149 1.268 . S
O156 Dy140 2.351 . S
O156 C159 1.249 . S
O157 Dy143 2.326 . S
O157 C159 1.267 . S
C158 O150 1.249 . S
C158 O151 1.267 . S
C159 O156 1.249 . S
C159 O157 1.267 . S
Dy160 O164 2.398 . S
Dy160 O165 2.491 . S
Dy160 O166 2.403 . S
Dy160 O167 2.664 . S
Dy160 O171 2.326 . S
Dy160 O175 2.310 . S
Dy160 O176 2.351 . S
C161 O172 1.185 . S
C161 O173 1.355 . S
C162 O164 1.185 . S
C162 O165 1.355 . S
Dy163 O167 2.310 . S
Dy163 O170 2.351 . S
Dy163 O172 2.398 . S
Dy163 O173 2.491 . S
Dy163 O174 2.403 . S
Dy163 O175 2.664 . S
Dy163 O177 2.326 . S
O164 Dy160 2.398 . S
O164 C162 1.185 . S
O165 Dy160 2.491 . S
O165 C162 1.355 . S
O166 Dy160 2.403 . S
O166 C168 1.254 . S
O167 Dy160 2.664 . S
O167 Dy163 2.310 . S
O167 C168 1.268 . S
C168 O166 1.254 . S
C168 O167 1.268 . S
C169 O174 1.254 . S
C169 O175 1.268 . S
O170 Dy163 2.351 . S
O170 C178 1.249 . S
O171 Dy160 2.326 . S
O171 C178 1.267 . S
O172 C161 1.185 . S
O172 Dy163 2.398 . S
O173 C161 1.355 . S
O173 Dy163 2.491 . S
O174 Dy163 2.403 . S
O174 C169 1.254 . S
O175 Dy160 2.310 . S
O175 Dy163 2.664 . S
O175 C169 1.268 . S
O176 Dy160 2.351 . S
O176 C179 1.249 . S
O177 Dy163 2.326 . S
O177 C179 1.267 . S
C178 O170 1.249 . S
C178 O171 1.267 . S
C179 O176 1.249 . S
C179 O177 1.267 . S
C180 C181 1.369 . S
C180 C182 1.419 . S
C180 H184 0.930 . S
C181 C180 1.369 . S
C181 C190 1.429 1_556 S
C182 C180 1.419 . S
C182 C183 1.363 . S
C182 H185 0.929 . S
C183 C182 1.363 . S
C183 C189 1.428 1_556 S
H184 C180 0.930 . S
H185 C182 0.929 . S
S186 N187 1.613 . S
S186 N188 1.610 . S
N187 S186 1.613 . S
N187 C190 1.350 . S
N188 S186 1.610 . S
N188 C189 1.351 . S
C189 C183 1.428 1_554 S
C189 N188 1.351 . S
C189 C190 1.434 . S
C190 C181 1.429 1_554 S
C190 N187 1.350 . S
C190 C189 1.434 . S
C191 C192 1.369 1_554 S
C191 C193 1.419 . S
C191 H195 0.930 . S
C192 C191 1.369 1_556 S
C192 C201 1.429 . S
C193 C191 1.419 . S
C193 C194 1.363 1_554 S
C193 H196 0.929 . S
C194 C193 1.363 1_556 S
C194 C200 1.428 . S
H195 C191 0.930 . S
H196 C193 0.929 . S
S197 N198 1.613 . S
S197 N199 1.610 . S
N198 S197 1.613 . S
N198 C201 1.350 . S
N199 S197 1.610 . S
N199 C200 1.351 . S
C200 C194 1.428 . S
C200 N199 1.351 . S
C200 C201 1.434 . S
C201 C192 1.429 . S
C201 N198 1.350 . S
C201 C200 1.434 . S
C202 C203 1.369 . S
C202 C204 1.419 . S
C202 H206 0.930 . S
C203 C202 1.369 . S
C203 C212 1.429 1_556 S
C204 C202 1.419 . S
C204 C205 1.363 . S
C204 H207 0.929 . S
C205 C204 1.363 . S
C205 C211 1.428 1_556 S
H206 C202 0.930 . S
H207 C204 0.929 . S
S208 N209 1.613 . S
S208 N210 1.610 . S
N209 S208 1.613 . S
N209 C212 1.350 . S
N210 S208 1.610 . S
N210 C211 1.351 . S
C211 C205 1.428 1_554 S
C211 N210 1.351 . S
C211 C212 1.434 . S
C212 C203 1.429 1_554 S
C212 N209 1.350 . S
C212 C211 1.434 . S
C213 C214 1.369 . S
C213 C215 1.419 . S
C213 H217 0.930 . S
C214 C213 1.369 . S
C214 C223 1.429 . S
C215 C213 1.419 . S
C215 C216 1.363 . S
C215 H218 0.929 . S
C216 C215 1.363 . S
C216 C222 1.428 . S
H217 C213 0.930 . S
H218 C215 0.929 . S
S219 N220 1.613 . S
S219 N221 1.610 . S
N220 S219 1.613 . S
N220 C223 1.350 . S
N221 S219 1.610 . S
N221 C222 1.351 . S
C222 C216 1.428 . S
C222 N221 1.351 . S
C222 C223 1.434 . S
C223 C214 1.429 . S
C223 N220 1.350 . S
C223 C222 1.434 . S
C224 C225 1.369 . S
C224 C226 1.419 . S
C224 H228 0.930 . S
C225 C224 1.369 . S
C225 C234 1.429 1_554 S
C226 C224 1.419 . S
C226 C227 1.363 . S
C226 H229 0.929 . S
C227 C226 1.363 . S
C227 C233 1.428 1_554 S
H228 C224 0.930 . S
H229 C226 0.929 . S
S230 N231 1.613 . S
S230 N232 1.610 . S
N231 S230 1.613 . S
N231 C234 1.350 . S
N232 S230 1.610 . S
N232 C233 1.351 . S
C233 C227 1.428 1_556 S
C233 N232 1.351 . S
C233 C234 1.434 . S
C234 C225 1.429 1_556 S
C234 N231 1.350 . S
C234 C233 1.434 . S
C235 C236 1.369 . S
C235 C237 1.419 . S
C235 H239 0.930 . S
C236 C235 1.369 . S
C236 C245 1.429 1_554 S
C237 C235 1.419 . S
C237 C238 1.363 . S
C237 H240 0.929 . S
C238 C237 1.363 . S
C238 C244 1.428 1_554 S
H239 C235 0.930 . S
H240 C237 0.929 . S
S241 N242 1.613 . S
S241 N243 1.610 . S
N242 S241 1.613 . S
N242 C245 1.350 . S
N243 S241 1.610 . S
N243 C244 1.351 . S
C244 C238 1.428 1_556 S
C244 N243 1.351 . S
C244 C245 1.434 . S
C245 C236 1.429 1_556 S
C245 N242 1.350 . S
C245 C244 1.434 . S
C246 C247 1.369 . S
C246 C248 1.419 . S
C246 H250 0.930 . S
C247 C246 1.369 . S
C247 C256 1.429 . S
C248 C246 1.419 . S
C248 C249 1.363 . S
C248 H251 0.929 . S
C249 C248 1.363 . S
C249 C255 1.428 . S
H250 C246 0.930 . S
H251 C248 0.929 . S
S252 N253 1.613 . S
S252 N254 1.610 . S
N253 S252 1.613 . S
N253 C256 1.350 . S
N254 S252 1.610 . S
N254 C255 1.351 . S
C255 C249 1.428 . S
C255 N254 1.351 . S
C255 C256 1.434 . S
C256 C247 1.429 . S
C256 N253 1.350 . S
C256 C255 1.434 . S
C257 C258 1.369 . S
C257 C259 1.419 . S
C257 H261 0.930 . S
C258 C257 1.369 . S
C258 C267 1.429 . S
C259 C257 1.419 . S
C259 C260 1.363 . S
C259 H262 0.929 1_545 S
C260 C259 1.363 . S
C260 C266 1.428 . S
H261 C257 0.930 . S
H262 C259 0.929 1_565 S
S263 N264 1.613 . S
S263 N265 1.610 . S
N264 S263 1.613 . S
N264 C267 1.350 . S
N265 S263 1.610 . S
N265 C266 1.351 . S
C266 C260 1.428 . S
C266 N265 1.351 . S
C266 C267 1.434 . S
C267 C258 1.429 . S
C267 N264 1.350 . S
C267 C266 1.434 . S
C268 C269 1.369 . S
C268 C270 1.419 . S
C268 H272 0.930 . S
C269 C268 1.369 . S
C269 C278 1.429 . S
C270 C268 1.419 . S
C270 C271 1.363 . S
C270 H273 0.929 . S
C271 C270 1.363 . S
C271 C277 1.428 . S
H272 C268 0.930 . S
H273 C270 0.929 . S
S274 N275 1.613 . S
S274 N276 1.610 . S
N275 S274 1.613 . S
N275 C278 1.350 . S
N276 S274 1.610 . S
N276 C277 1.351 . S
C277 C271 1.428 . S
C277 N276 1.351 . S
C277 C278 1.434 . S
C278 C269 1.429 . S
C278 N275 1.350 . S
C278 C277 1.434 . S
C279 C280 1.369 . S
C279 C281 1.419 . S
C279 H283 0.930 . S
C280 C279 1.369 . S
C280 C289 1.429 . S
C281 C279 1.419 . S
C281 C282 1.363 . S
C281 H284 0.929 . S
C282 C281 1.363 . S
C282 C288 1.428 . S
H283 C279 0.930 . S
H284 C281 0.929 . S
S285 N286 1.613 . S
S285 N287 1.610 . S
N286 S285 1.613 . S
N286 C289 1.350 . S
N287 S285 1.610 . S
N287 C288 1.351 . S
C288 C282 1.428 . S
C288 N287 1.351 . S
C288 C289 1.434 . S
C289 C280 1.429 . S
C289 N286 1.350 . S
C289 C288 1.434 . S
C290 C291 1.369 . S
C290 C292 1.419 . S
C290 H294 0.930 . S
C291 C290 1.369 . S
C291 C300 1.429 . S
C292 C290 1.419 . S
C292 C293 1.363 . S
C292 H295 0.929 . S
C293 C292 1.363 . S
C293 C299 1.428 . S
H294 C290 0.930 . S
H295 C292 0.929 . S
S296 N297 1.613 . S
S296 N298 1.610 . S
N297 S296 1.613 . S
N297 C300 1.350 . S
N298 S296 1.610 . S
N298 C299 1.351 . S
C299 C293 1.428 . S
C299 N298 1.351 . S
C299 C300 1.434 . S
C300 C291 1.429 . S
C300 N297 1.350 . S
C300 C299 1.434 . S
C301 C302 1.369 . S
C301 C303 1.419 . S
C301 H305 0.930 . S
C302 C301 1.369 . S
C302 C311 1.429 . S
C303 C301 1.419 . S
C303 C304 1.363 . S
C303 H306 0.929 . S
C304 C303 1.363 . S
C304 C310 1.428 . S
H305 C301 0.930 . S
H306 C303 0.929 . S
S307 N308 1.613 . S
S307 N309 1.610 . S
N308 S307 1.613 . S
N308 C311 1.350 . S
N309 S307 1.610 . S
N309 C310 1.351 . S
C310 C304 1.428 . S
C310 N309 1.351 . S
C310 C311 1.434 . S
C311 C302 1.429 . S
C311 N308 1.350 . S
C311 C310 1.434 . S
C312 C313 1.369 . S
C312 C314 1.419 . S
C312 H316 0.930 . S
C313 C312 1.369 . S
C313 C322 1.429 . S
C314 C312 1.419 . S
C314 C315 1.363 . S
C314 H317 0.929 . S
C315 C314 1.363 . S
C315 C321 1.428 . S
H316 C312 0.930 . S
H317 C314 0.929 . S
S318 N319 1.613 . S
S318 N320 1.610 . S
N319 S318 1.613 . S
N319 C322 1.350 . S
N320 S318 1.610 . S
N320 C321 1.351 . S
C321 C315 1.428 . S
C321 N320 1.351 . S
C321 C322 1.434 . S
C322 C313 1.429 . S
C322 N319 1.350 . S
C322 C321 1.434 . S
C323 C324 1.369 . S
C323 C325 1.419 . S
C323 H327 0.930 . S
C324 C323 1.369 . S
C324 C333 1.429 . S
C325 C323 1.419 . S
C325 C326 1.363 . S
C325 H328 0.929 . S
C326 C325 1.363 . S
C326 C332 1.428 . S
H327 C323 0.930 . S
H328 C325 0.929 . S
S329 N330 1.613 . S
S329 N331 1.610 . S
N330 S329 1.613 . S
N330 C333 1.350 . S
N331 S329 1.610 . S
N331 C332 1.351 . S
C332 C326 1.428 . S
C332 N331 1.351 . S
C332 C333 1.434 . S
C333 C324 1.429 . S
C333 N330 1.350 . S
C333 C332 1.434 . S
C334 C335 1.369 . S
C334 C336 1.419 . S
C334 H338 0.930 . S
C335 C334 1.369 . S
C335 C344 1.429 . S
C336 C334 1.419 . S
C336 C337 1.363 . S
C336 H339 0.929 . S
C337 C336 1.363 . S
C337 C343 1.428 . S
H338 C334 0.930 . S
H339 C336 0.929 . S
S340 N341 1.613 . S
S340 N342 1.610 . S
N341 S340 1.613 . S
N341 C344 1.350 . S
N342 S340 1.610 . S
N342 C343 1.351 . S
C343 C337 1.428 . S
C343 N342 1.351 . S
C343 C344 1.434 . S
C344 C335 1.429 . S
C344 N341 1.350 . S
C344 C343 1.434 . S
C345 C346 1.369 . S
C345 C347 1.419 1_565 S
C345 H349 0.930 . S
C346 C345 1.369 . S
C346 C355 1.429 . S
C347 C345 1.419 1_545 S
C347 C348 1.363 . S
C347 H350 0.929 . S
C348 C347 1.363 . S
C348 C354 1.428 . S
H349 C345 0.930 . S
H350 C347 0.929 . S
S351 N352 1.613 . S
S351 N353 1.610 1_565 S
N352 S351 1.613 . S
N352 C355 1.350 . S
N353 S351 1.610 1_545 S
N353 C354 1.351 . S
C354 C348 1.428 . S
C354 N353 1.351 . S
C354 C355 1.434 1_545 S
C355 C346 1.429 . S
C355 N352 1.350 . S
C355 C354 1.434 1_565 S
C356 C357 1.369 . S
C356 C358 1.419 1_655 S
C356 H360 0.930 . S
C357 C356 1.369 . S
C357 C366 1.429 . S
C358 C356 1.419 1_455 S
C358 C359 1.363 . S
C358 H361 0.929 . S
C359 C358 1.363 . S
C359 C365 1.428 . S
H360 C356 0.930 . S
H361 C358 0.929 . S
S362 N363 1.613 1_455 S
S362 N364 1.610 . S
N363 S362 1.613 1_655 S
N363 C366 1.350 . S
N364 S362 1.610 . S
N364 C365 1.351 . S
C365 C359 1.428 . S
C365 N364 1.351 . S
C365 C366 1.434 1_455 S
C366 C357 1.429 . S
C366 N363 1.350 . S
C366 C365 1.434 1_655 S
C367 C368 1.369 . S
C367 C369 1.419 . S
C367 H371 0.930 . S
C368 C367 1.369 . S
C368 C377 1.429 . S
C369 C367 1.419 . S
C369 C370 1.363 . S
C369 H372 0.929 . S
C370 C369 1.363 . S
C370 C376 1.428 . S
H371 C367 0.930 . S
H372 C369 0.929 . S
S373 N374 1.613 . S
S373 N375 1.610 . S
N374 S373 1.613 . S
N374 C377 1.350 . S
N375 S373 1.610 . S
N375 C376 1.351 . S
C376 C370 1.428 . S
C376 N375 1.351 . S
C376 C377 1.434 . S
C377 C368 1.429 . S
C377 N374 1.350 . S
C377 C376 1.434 . S
C378 C379 1.369 . S
C378 C380 1.419 . S
C378 H382 0.930 . S
C379 C378 1.369 . S
C379 C388 1.429 . S
C380 C378 1.419 . S
C380 C381 1.363 . S
C380 H383 0.929 . S
C381 C380 1.363 . S
C381 C387 1.428 . S
H382 C378 0.930 . S
H383 C380 0.929 . S
S384 N385 1.613 1_655 S
S384 N386 1.610 . S
N385 S384 1.613 1_455 S
N385 C388 1.350 . S
N386 S384 1.610 . S
N386 C387 1.351 1_655 S
C387 C381 1.428 . S
C387 N386 1.351 1_455 S
C387 C388 1.434 . S
C388 C379 1.429 . S
C388 N385 1.350 . S
C388 C387 1.434 . S
C389 C390 1.369 . S
C389 C391 1.419 . S
C389 H393 0.930 . S
C390 C389 1.369 . S
C390 C399 1.429 . S
C391 C389 1.419 . S
C391 C392 1.363 . S
C391 H394 0.929 . S
C392 C391 1.363 . S
C392 C398 1.428 . S
H393 C389 0.930 . S
H394 C391 0.929 . S
S395 N396 1.613 . S
S395 N397 1.610 . S
N396 S395 1.613 . S
N396 C399 1.350 . S
N397 S395 1.610 . S
N397 C398 1.351 . S
C398 C392 1.428 . S
C398 N397 1.351 . S
C398 C399 1.434 . S
C399 C390 1.429 . S
C399 N396 1.350 . S
C399 C398 1.434 . S
C400 C401 1.369 . S
C400 C402 1.419 . S
C400 H404 0.930 1_565 S
C401 C400 1.369 . S
C401 C410 1.429 . S
C402 C400 1.419 . S
C402 C403 1.363 . S
C402 H405 0.929 . S
C403 C402 1.363 . S
C403 C409 1.428 . S
H404 C400 0.930 1_545 S
H405 C402 0.929 . S
S406 N407 1.613 . S
S406 N408 1.610 . S
N407 S406 1.613 . S
N407 C410 1.350 . S
N408 S406 1.610 . S
N408 C409 1.351 . S
C409 C403 1.428 . S
C409 N408 1.351 . S
C409 C410 1.434 . S
C410 C401 1.429 . S
C410 N407 1.350 . S
C410 C409 1.434 . S
C411 C412 1.369 . S
C411 C413 1.419 . S
C411 H415 0.930 . S
C412 C411 1.369 . S
C412 C421 1.429 . S
C413 C411 1.419 . S
C413 C414 1.363 . S
C413 H416 0.929 . S
C414 C413 1.363 . S
C414 C420 1.428 . S
H415 C411 0.930 . S
H416 C413 0.929 . S
S417 N418 1.613 . S
S417 N419 1.610 . S
N418 S417 1.613 . S
N418 C421 1.350 1_565 S
N419 S417 1.610 . S
N419 C420 1.351 1_565 S
C420 C414 1.428 . S
C420 N419 1.351 1_545 S
C420 C421 1.434 . S
C421 C412 1.429 . S
C421 N418 1.350 1_545 S
C421 C420 1.434 . S
C422 C423 1.369 . S
C422 C424 1.419 . S
C422 H426 0.930 1_655 S
C423 C422 1.369 . S
C423 C432 1.429 . S
C424 C422 1.419 . S
C424 C425 1.363 . S
C424 H427 0.929 . S
C425 C424 1.363 . S
C425 C431 1.428 . S
H426 C422 0.930 1_455 S
H427 C424 0.929 . S
S428 N429 1.613 . S
S428 N430 1.610 . S
N429 S428 1.613 . S
N429 C432 1.350 . S
N430 S428 1.610 . S
N430 C431 1.351 . S
C431 C425 1.428 . S
C431 N430 1.351 . S
C431 C432 1.434 . S
C432 C423 1.429 . S
C432 N429 1.350 . S
C432 C431 1.434 . S
C433 C434 1.369 . S
C433 C435 1.419 . S
C433 H437 0.930 . S
C434 C433 1.369 . S
C434 C443 1.429 . S
C435 C433 1.419 . S
C435 C436 1.363 . S
C435 H438 0.929 . S
C436 C435 1.363 . S
C436 C442 1.428 . S
H437 C433 0.930 . S
H438 C435 0.929 . S
S439 N440 1.613 . S
S439 N441 1.610 . S
N440 S439 1.613 . S
N440 C443 1.350 . S
N441 S439 1.610 . S
N441 C442 1.351 . S
C442 C436 1.428 . S
C442 N441 1.351 . S
C442 C443 1.434 . S
C443 C434 1.429 . S
C443 N440 1.350 . S
C443 C442 1.434 . S
C444 C445 1.369 . S
C444 C446 1.419 . S
C444 H448 0.930 . S
C445 C444 1.369 . S
C445 C454 1.429 . S
C446 C444 1.419 . S
C446 C447 1.363 . S
C446 H449 0.929 . S
C447 C446 1.363 . S
C447 C453 1.428 . S
H448 C444 0.930 . S
H449 C446 0.929 . S
S450 N451 1.613 . S
S450 N452 1.610 . S
N451 S450 1.613 . S
N451 C454 1.350 . S
N452 S450 1.610 . S
N452 C453 1.351 . S
C453 C447 1.428 . S
C453 N452 1.351 . S
C453 C454 1.434 . S
C454 C445 1.429 . S
C454 N451 1.350 . S
C454 C453 1.434 . S
C455 C456 1.369 . S
C455 C457 1.419 1_565 S
C455 H459 0.930 . S
C456 C455 1.369 . S
C456 C465 1.428 . S
C457 C455 1.419 1_545 S
C457 C458 1.363 . S
C457 H460 0.929 . S
C458 C457 1.363 . S
C458 C464 1.428 . S
H459 C455 0.930 . S
H460 C457 0.929 . S
S461 N462 1.613 . S
S461 N463 1.610 . S
N462 S461 1.613 . S
N462 C465 1.349 1_545 S
N463 S461 1.610 . S
N463 C464 1.351 . S
C464 C458 1.428 . S
C464 N463 1.351 . S
C464 C465 1.436 1_545 S
C465 C456 1.428 . S
C465 N462 1.349 1_565 S
C465 C464 1.436 1_565 S
C466 C467 1.369 . S
C466 C468 1.419 1_655 S
C466 H470 0.930 . S
C467 C466 1.369 . S
C467 C476 1.429 1_655 S
C468 C466 1.419 1_455 S
C468 C469 1.363 . S
C468 H471 0.929 1_455 S
C469 C468 1.363 . S
C469 C475 1.428 . S
H470 C466 0.930 . S
H471 C468 0.929 1_655 S
S472 N473 1.613 . S
S472 N474 1.610 . S
N473 S472 1.613 . S
N473 C476 1.350 . S
N474 S472 1.610 . S
N474 C475 1.351 . S
C475 C469 1.428 . S
C475 N474 1.351 . S
C475 C476 1.434 . S
C476 C467 1.429 1_455 S
C476 N473 1.350 . S
C476 C475 1.434 . S
C181 C22 1.385 . S
C183 C18 1.466 . S
C192 C42 1.377 . S
C194 C38 1.469 . S
C203 C58 1.465 . S
C205 C2 1.385 . S
C214 C41 1.485 . S
C216 C39 1.426 . S
C225 C59 1.424 . S
C227 C1 1.487 . S
C236 C19 1.417 . S
C238 C21 1.489 . S
C247 C78 1.470 . S
C249 C82 1.376 1_655 S
C258 C102 1.376 . S
C260 C98 1.469 1_545 S
C269 C118 1.470 1_655 S
C271 C62 1.377 1_545 S
C280 C99 1.425 . S
C282 C101 1.486 . S
C291 C119 1.420 . S
C293 C61 1.488 . S
C302 C81 1.487 . S
C304 C79 1.421 . S
C313 C142 1.373 . S
C315 C138 1.471 . S
C324 C158 1.471 . S
C326 C162 1.377 . S
C335 C178 1.467 . S
C337 C122 1.380 . S
C346 C161 1.489 . S
C348 C159 1.419 . S
C357 C179 1.422 . S
C359 C121 1.487 . S
C368 C139 1.427 . S
C370 C141 1.486 . S
C379 C108 2.238 . S
C381 C9 1.935 . S
C390 C68 2.238 . S
C392 C29 1.941 . S
C401 C49 1.938 . S
C403 C88 2.239 . S
C412 C48 2.238 . S
C414 C129 1.935 . S
C423 C8 2.237 . S
C425 C149 1.943 . S
C434 C169 1.933 . S
C436 C28 2.238 . S
C445 C69 1.933 . S
C447 C168 2.238 . S
C456 C89 1.935 . S
C458 C128 2.238 . S
C467 C148 2.236 . S
C469 C109 1.944 . S
