# Generated by pormake.
# Topology unj, (4)-cn, num edge types: 1
# Building blocks:
#     Node 0, Type 0, BuildingBlock: QUQFOY_clean_sbu_1, # of connection points: 4
#     Node 1, Type 0, BuildingBlock: QUQFOY_clean_sbu_1, # of connection points: 4
#     Node 2, Type 0, BuildingBlock: QUQFOY_clean_sbu_1, # of connection points: 4
#     Node 3, Type 0, BuildingBlock: QUQFOY_clean_sbu_1, # of connection points: 4
#     Node 4, Type 0, BuildingBlock: QUQFOY_clean_sbu_1, # of connection points: 4
#     Node 5, Type 0, BuildingBlock: QUQFOY_clean_sbu_1, # of connection points: 4
#     Edge 6, Type (0, 0), BuildingBlock: TEMPAE_clean_linker_10, # of connection points: 2
#     Edge 7, Type (0, 0), BuildingBlock: TEMPAE_clean_linker_10, # of connection points: 2
#     Edge 8, Type (0, 0), BuildingBlock: TEMPAE_clean_linker_10, # of connection points: 2
#     Edge 9, Type (0, 0), BuildingBlock: TEMPAE_clean_linker_10, # of connection points: 2
#     Edge 10, Type (0, 0), BuildingBlock: TEMPAE_clean_linker_10, # of connection points: 2
#     Edge 11, Type (0, 0), BuildingBlock: TEMPAE_clean_linker_10, # of connection points: 2
#     Edge 12, Type (0, 0), BuildingBlock: TEMPAE_clean_linker_10, # of connection points: 2
#     Edge 13, Type (0, 0), BuildingBlock: TEMPAE_clean_linker_10, # of connection points: 2
#     Edge 14, Type (0, 0), BuildingBlock: TEMPAE_clean_linker_10, # of connection points: 2
#     Edge 15, Type (0, 0), BuildingBlock: TEMPAE_clean_linker_10, # of connection points: 2
#     Edge 16, Type (0, 0), BuildingBlock: TEMPAE_clean_linker_10, # of connection points: 2
#     Edge 17, Type (0, 0), BuildingBlock: TEMPAE_clean_linker_10, # of connection points: 2
# Relax obj value: 0.136
# Max RMSD: 0.187
# Mean RMSD: 0.187
data_MOF--net-unj--node1-QUQFOY_clean_sbu_1--edge1-TEMPAE_clean_linker_10
_symmetry_space_group_name_H-M    P1
_symmetry_Int_Tables_number       1
_symmetry_cell_setting            triclinic
loop_
_symmetry_equiv_pos_as_xyz
'x, y, z'
_cell_length_a     34.540259
_cell_length_b     34.540337
_cell_length_c     38.626757
_cell_angle_alpha  90.008507
_cell_angle_beta   89.999049
_cell_angle_gamma 120.00548
loop_
_atom_site_label
_atom_site_type_symbol
_atom_site_fract_x
_atom_site_fract_y
_atom_site_fract_z
_atom_type_partial_charge
O0 O 0.50165 0.22731 0.637 0.0
Cd1 Cd 0.45722 0.22532 0.60005 0.0
Cd2 Cd 0.52455 0.30872 0.58758 0.0
O3 O 0.55724 0.2952 0.62622 0.0
O4 O 0.41163 0.16062 0.59687 0.0
O5 O 0.45473 0.19908 0.55291 0.0
C6 C 0.42391 0.1614 0.56525 0.0
C7 C 0.55823 0.33191 0.5335 0.0
C8 C 0.54086 0.25913 0.6435 0.0
C9 C 0.43823 0.30062 0.61104 0.0
O10 O 0.47885 0.327 0.60302 0.0
O11 O 0.42241 0.25851 0.61052 0.0
O12 O 0.57147 0.35861 0.55974 0.0
O13 O 0.52558 0.29159 0.53801 0.0
O14 O 0.27645 0.50031 0.80458 0.0
Cd15 Cd 0.2339 0.45583 0.76771 0.0
Cd16 Cd 0.21819 0.52326 0.75485 0.0
O17 O 0.26421 0.5559 0.79363 0.0
O18 O 0.25292 0.41018 0.76426 0.0
O19 O 0.25744 0.45347 0.72047 0.0
C20 C 0.2643 0.42257 0.73264 0.0
C21 C 0.22908 0.55697 0.70074 0.0
C22 C 0.28387 0.53955 0.811 0.0
C23 C 0.13967 0.43714 0.77835 0.0
O24 O 0.15405 0.4777 0.77006 0.0
O25 O 0.16589 0.42124 0.77818 0.0
O26 O 0.2155 0.57025 0.72688 0.0
O27 O 0.23664 0.52428 0.70536 0.0
O28 O 0.67732 0.15505 0.9369 0.0
Cd29 Cd 0.69576 0.21906 0.92141 0.0
Cd30 Cd 0.77909 0.23501 0.93396 0.0
O31 O 0.74576 0.16706 0.94462 0.0
O32 O 0.64615 0.21621 0.89327 0.0
O33 O 0.71331 0.23721 0.87191 0.0
C34 C 0.67307 0.22964 0.86717 0.0
C35 C 0.84296 0.26519 0.89913 0.0
C36 C 0.70364 0.14079 0.94506 0.0
C37 C 0.74543 0.28518 0.97718 0.0
O38 O 0.77722 0.27776 0.97068 0.0
O39 O 0.70929 0.26536 0.95998 0.0
O40 O 0.84377 0.25398 0.93084 0.0
O41 O 0.8053 0.2583 0.88674 0.0
O42 O 0.50377 0.77812 0.13747 0.0
Cd43 Cd 0.5482 0.78026 0.10045 0.0
Cd44 Cd 0.48095 0.69685 0.0879 0.0
O45 O 0.44827 0.71019 0.12665 0.0
O46 O 0.59367 0.845 0.09724 0.0
O47 O 0.5505 0.80643 0.05333 0.0
C48 C 0.58129 0.84415 0.06564 0.0
C49 C 0.44715 0.67366 0.03385 0.0
C50 C 0.4646 0.74623 0.14398 0.0
C51 C 0.5674 0.70508 0.11121 0.0
O52 O 0.52678 0.67867 0.10318 0.0
O53 O 0.58314 0.74718 0.1108 0.0
O54 O 0.43404 0.64692 0.06006 0.0
O55 O 0.47973 0.71401 0.03837 0.0
O56 O 0.72906 0.50513 0.30423 0.0
Cd57 Cd 0.77167 0.5495 0.26732 0.0
Cd58 Cd 0.78705 0.48185 0.2545 0.0
O59 O 0.74089 0.4493 0.29319 0.0
O60 O 0.75289 0.59533 0.26393 0.0
O61 O 0.74813 0.55197 0.22011 0.0
C62 C 0.74144 0.58296 0.23231 0.0
C63 C 0.77609 0.44827 0.20033 0.0
C64 C 0.72141 0.46581 0.3106 0.0
C65 C 0.86575 0.5678 0.27805 0.0
O66 O 0.85121 0.52718 0.26985 0.0
O67 O 0.83969 0.58389 0.27776 0.0
O68 O 0.78953 0.43481 0.22644 0.0
O69 O 0.76873 0.48109 0.20501 0.0
O70 O 0.3277 0.85013 0.43711 0.0
Cd71 Cd 0.30927 0.78606 0.42178 0.0
Cd72 Cd 0.22594 0.77014 0.43423 0.0
O73 O 0.25926 0.83816 0.44471 0.0
O74 O 0.35891 0.78881 0.39373 0.0
O75 O 0.29176 0.76775 0.37229 0.0
C76 C 0.33201 0.77532 0.36761 0.0
C77 C 0.16218 0.7398 0.39927 0.0
C78 C 0.30138 0.86443 0.44515 0.0
C79 C 0.25958 0.72016 0.47767 0.0
O80 O 0.22778 0.72757 0.47112 0.0
O81 O 0.29571 0.7399 0.46046 0.0
O82 O 0.16128 0.75118 0.43091 0.0
O83 O 0.19987 0.74661 0.38702 0.0
C84 C 0.38022 0.07824 0.56112 0.0
C85 C 0.40434 0.11976 0.54453 0.0
C86 C 0.36328 0.03816 0.54252 0.0
C87 C 0.3699 0.03952 0.50627 0.0
C88 C 0.39321 0.08133 0.48917 0.0
C89 C 0.41057 0.12103 0.50858 0.0
C90 C 0.33923 0.99431 0.56184 0.0
C91 C 0.40018 0.08408 0.45048 0.0
C92 C 0.36477 0.93586 0.46798 0.0
C93 C 0.32 0.91113 0.45733 0.0
C94 C 0.38185 0.97836 0.48292 0.0
C95 C 0.35372 0.99698 0.48677 0.0
C96 C 0.30912 0.97314 0.47453 0.0
C97 C 0.29266 0.93031 0.46024 0.0
C98 C 0.4294 0.00238 0.49609 0.0
C99 C 0.27835 0.99223 0.47759 0.0
H100 H 0.37545 0.07697 0.58892 0.0
H101 H 0.42899 0.15303 0.4956 0.0
H102 H 0.30504 0.97338 0.55126 0.0
H103 H 0.35719 0.97546 0.55829 0.0
H104 H 0.3366 0.99904 0.59002 0.0
H105 H 0.41669 0.11906 0.44086 0.0
H106 H 0.42113 0.0693 0.44329 0.0
H107 H 0.36761 0.0644 0.43706 0.0
H108 H 0.38612 0.9213 0.46592 0.0
H109 H 0.25813 0.91159 0.4518 0.0
H110 H 0.42936 0.00548 0.52469 0.0
H111 H 0.4479 0.03672 0.48534 0.0
H112 H 0.4477 0.9846 0.48927 0.0
H113 H 0.27071 0.9939 0.50526 0.0
H114 H 0.24635 0.97177 0.46354 0.0
H115 H 0.29487 0.02684 0.46727 0.0
C116 C 0.4302 0.36386 0.63423 0.0
C117 C 0.41014 0.31916 0.62338 0.0
C118 C 0.40481 0.38082 0.64939 0.0
C119 C 0.35807 0.35266 0.65327 0.0
C120 C 0.33729 0.30816 0.64082 0.0
C121 C 0.36362 0.29179 0.62631 0.0
C122 C 0.42838 0.42827 0.66278 0.0
C123 C 0.28743 0.27736 0.6439 0.0
C124 C 0.30356 0.37872 0.72804 0.0
C125 C 0.28619 0.40302 0.7117 0.0
C126 C 0.32659 0.36184 0.70922 0.0
C127 C 0.33175 0.3687 0.67299 0.0
C128 C 0.31326 0.39216 0.65613 0.0
C129 C 0.29104 0.40946 0.67576 0.0
C130 C 0.34638 0.33761 0.7283 0.0
C131 C 0.31739 0.39939 0.61746 0.0
H132 H 0.46613 0.38523 0.63216 0.0
H133 H 0.34781 0.25733 0.61772 0.0
H134 H 0.41252 0.44685 0.65223 0.0
H135 H 0.4253 0.42802 0.69139 0.0
H136 H 0.46445 0.44663 0.65593 0.0
H137 H 0.27586 0.24548 0.62966 0.0
H138 H 0.27818 0.26949 0.67155 0.0
H139 H 0.26932 0.29396 0.63379 0.0
H140 H 0.30014 0.37379 0.75584 0.0
H141 H 0.27748 0.42801 0.66296 0.0
H142 H 0.38319 0.35558 0.72472 0.0
H143 H 0.33309 0.30351 0.71754 0.0
H144 H 0.33906 0.33476 0.75649 0.0
H145 H 0.35309 0.4204 0.61025 0.0
H146 H 0.29888 0.41594 0.60803 0.0
H147 H 0.30448 0.36691 0.6039 0.0
C148 C 0.92611 0.30503 0.89497 0.0
C149 C 0.88454 0.28689 0.87835 0.0
C150 C 0.96614 0.32778 0.87625 0.0
C151 C 0.96466 0.33184 0.83987 0.0
C152 C 0.9228 0.31261 0.82277 0.0
C153 C 0.88316 0.29073 0.84228 0.0
C154 C 0.01004 0.34842 0.89557 0.0
C155 C 0.91993 0.31554 0.78396 0.0
C156 C 0.06804 0.42941 0.80039 0.0
C157 C 0.09294 0.40924 0.79055 0.0
C158 C 0.02555 0.40431 0.8154 0.0
C159 C 0.00713 0.35773 0.8202 0.0
C160 C 0.03112 0.33677 0.80876 0.0
C161 C 0.07392 0.36283 0.79435 0.0
C162 C 1.00136 0.42806 0.82768 0.0
C163 C 0.01225 0.28705 0.81286 0.0
H164 H 0.92745 0.30241 0.92286 0.0
H165 H 0.85111 0.27657 0.82929 0.0
H166 H 0.03106 0.33496 0.88559 0.0
H167 H 0.02874 0.3851 0.89129 0.0
H168 H 0.00539 0.34201 0.92387 0.0
H169 H 0.88493 0.29666 0.77441 0.0
H170 H 0.93461 0.35101 0.77603 0.0
H171 H 0.93964 0.30229 0.77109 0.0
H172 H 0.08246 0.46525 0.79763 0.0
H173 H 0.09276 0.34691 0.78655 0.0
H174 H 0.99834 0.42589 0.85631 0.0
H175 H 0.96698 0.41169 0.81695 0.0
H176 H 0.01895 0.4639 0.82013 0.0
H177 H 0.01071 0.27867 0.84073 0.0
H178 H 0.03278 0.27521 0.79932 0.0
H179 H 0.97761 0.26849 0.80262 0.0
C180 C 0.59452 0.88441 0.00893 0.0
C181 C 0.60076 0.88575 0.04489 0.0
C182 C 0.61183 0.92406 0.98949 0.0
C183 C 0.6351 0.96591 0.00655 0.0
C184 C 0.64171 0.96736 0.0428 0.0
C185 C 0.62482 0.92731 0.06144 0.0
C186 C 0.60486 0.92123 0.95079 0.0
C187 C 0.66572 0.01125 0.06208 0.0
C188 C 0.71236 0.07497 0.96037 0.0
C189 C 0.68502 0.09414 0.95735 0.0
C190 C 0.69589 0.03219 0.97475 0.0
C191 C 0.65129 0.00841 0.98699 0.0
C192 C 0.62317 0.02701 0.98304 0.0
C193 C 0.64025 0.06945 0.96801 0.0
C194 C 0.72666 0.01312 0.97792 0.0
C195 C 0.57561 0.00304 0.99621 0.0
H196 H 0.57614 0.85238 0.99598 0.0
H197 H 0.6296 0.92864 0.08925 0.0
H198 H 0.58395 0.93603 0.94355 0.0
H199 H 0.63744 0.94084 0.93738 0.0
H200 H 0.58832 0.88622 0.94121 0.0
H201 H 0.66832 0.00658 0.09027 0.0
H202 H 0.69992 0.03216 0.05153 0.0
H203 H 0.64776 0.03008 0.05846 0.0
H204 H 0.74688 0.09366 0.95192 0.0
H205 H 0.61889 0.08401 0.96587 0.0
H206 H 0.71016 0.97849 0.96763 0.0
H207 H 0.73425 0.0115 0.00561 0.0
H208 H 0.75868 0.03356 0.9639 0.0
H209 H 0.55711 0.96867 0.98551 0.0
H210 H 0.55732 0.0208 0.98933 0.0
H211 H 0.57565 1.00002 0.02481 0.0
C212 C 0.70226 0.6269 0.22783 0.0
C213 C 0.71962 0.60262 0.21142 0.0
C214 C 0.67925 0.64384 0.20906 0.0
C215 C 0.6741 0.63707 0.17282 0.0
C216 C 0.6926 0.61366 0.1559 0.0
C217 C 0.71479 0.59629 0.17547 0.0
C218 C 0.65944 0.66801 0.22821 0.0
C219 C 0.6885 0.60653 0.11721 0.0
C220 C 0.57556 0.64185 0.13421 0.0
C221 C 0.59555 0.68657 0.12345 0.0
C222 C 0.601 0.6249 0.14928 0.0
C223 C 0.64773 0.65311 0.15316 0.0
C224 C 0.66846 0.69764 0.14079 0.0
C225 C 0.64207 0.71398 0.12638 0.0
C226 C 0.5775 0.57741 0.16259 0.0
C227 C 0.71831 0.72848 0.14387 0.0
H228 H 0.70566 0.63175 0.25563 0.0
H229 H 0.72834 0.57775 0.16262 0.0
H230 H 0.6727 0.70213 0.2175 0.0
H231 H 0.62263 0.65002 0.22464 0.0
H232 H 0.66678 0.67081 0.25639 0.0
H233 H 0.70708 0.59008 0.10773 0.0
H234 H 0.6528 0.58548 0.10999 0.0
H235 H 0.70135 0.63904 0.10371 0.0
H236 H 0.53963 0.62044 0.13214 0.0
H237 H 0.65783 0.74847 0.11785 0.0
H238 H 0.5806 0.5776 0.1912 0.0
H239 H 0.59339 0.5589 0.15197 0.0
H240 H 0.54142 0.55903 0.15575 0.0
H241 H 0.72757 0.73632 0.17153 0.0
H242 H 0.72983 0.76037 0.12968 0.0
H243 H 0.73645 0.71193 0.13372 0.0
C244 C 0.07905 0.70066 0.39482 0.0
C245 C 0.12067 0.71804 0.37839 0.0
C246 C 0.03908 0.67786 0.37605 0.0
C247 C 0.04066 0.67294 0.33977 0.0
C248 C 0.08257 0.69139 0.32283 0.0
C249 C 0.12215 0.71337 0.34241 0.0
C250 C 0.99511 0.65809 0.3952 0.0
C251 C 0.08555 0.6875 0.28412 0.0
C252 C 0.93691 0.57517 0.30085 0.0
C253 C 0.91247 0.59556 0.29031 0.0
C254 C 0.97935 0.60023 0.31594 0.0
C255 C 0.99822 0.64697 0.32007 0.0
C256 C 0.9747 0.6681 0.30792 0.0
C257 C 0.93191 0.64208 0.29347 0.0
C258 C 0.00303 0.57631 0.32901 0.0
C259 C 0.99406 0.71797 0.31127 0.0
H260 H 0.07762 0.70393 0.42264 0.0
H261 H 0.15422 0.72693 0.32955 0.0
H262 H 0.97444 0.67167 0.38468 0.0
H263 H 0.97608 0.62132 0.39141 0.0
H264 H 0.99968 0.66514 0.42343 0.0
H265 H 0.12061 0.70585 0.27466 0.0
H266 H 0.07057 0.65183 0.27672 0.0
H267 H 0.06617 0.70076 0.27074 0.0
H268 H 0.92214 0.53924 0.2986 0.0
H269 H 0.91341 0.65815 0.28512 0.0
H270 H 0.00591 0.57912 0.35763 0.0
H271 H 0.03745 0.5921 0.31842 0.0
H272 H 0.98512 0.54031 0.32195 0.0
H273 H 0.99558 0.72703 0.33899 0.0
H274 H 0.97386 0.72983 0.29724 0.0
H275 H 0.02875 0.73597 0.30111 0.0
C276 C 0.62219 0.38604 0.49715 0.0
C277 C 0.57993 0.34753 0.49934 0.0
C278 C 0.64314 0.40219 0.46508 0.0
C279 C 0.62095 0.37978 0.43432 0.0
C280 C 0.57829 0.34078 0.43632 0.0
C281 C 0.55844 0.32483 0.46889 0.0
C282 C 0.68901 0.44342 0.46415 0.0
C283 C 0.55331 0.31644 0.40406 0.0
C284 C 0.6625 0.45299 0.35418 0.0
C285 C 0.69193 0.4404 0.33993 0.0
C286 C 0.63738 0.43187 0.38392 0.0
C287 C 0.64247 0.39794 0.40019 0.0
C288 C 0.67102 0.38408 0.38529 0.0
C289 C 0.69511 0.40521 0.35516 0.0
C290 C 0.60662 0.447 0.39862 0.0
C291 C 0.67784 0.34848 0.40212 0.0
H292 H 0.63911 0.40354 0.52062 0.0
H293 H 0.52566 0.29516 0.47045 0.0
H294 H 0.7127 0.43611 0.45017 0.0
H295 H 0.68761 0.47053 0.44983 0.0
H296 H 0.70246 0.45582 0.49047 0.0
H297 H 0.52071 0.28626 0.41005 0.0
H298 H 0.54715 0.33915 0.38761 0.0
H299 H 0.57374 0.30617 0.38861 0.0
H300 H 0.65955 0.47986 0.34237 0.0
H301 H 0.71788 0.39538 0.34437 0.0
H302 H 0.61998 0.46409 0.42375 0.0
H303 H 0.57304 0.41777 0.40365 0.0
H304 H 0.60294 0.4704 0.38103 0.0
H305 H 0.69463 0.36076 0.4275 0.0
H306 H 0.69856 0.33918 0.38596 0.0
H307 H 0.64519 0.31802 0.40715 0.0
C308 C 0.21336 0.66089 0.52096 0.0
C309 C 0.25546 0.69067 0.507 0.0
C310 C 0.20925 0.63577 0.55071 0.0
C311 C 0.24823 0.6412 0.5673 0.0
C312 C 0.29073 0.67007 0.55268 0.0
C313 C 0.29381 0.69417 0.52253 0.0
C314 C 0.16327 0.60465 0.56511 0.0
C315 C 0.33311 0.67726 0.56984 0.0
C316 C 0.23884 0.6208 0.66425 0.0
C317 C 0.23542 0.57869 0.66656 0.0
C318 C 0.24387 0.64174 0.63215 0.0
C319 C 0.24467 0.61971 0.60147 0.0
C320 C 0.24135 0.57721 0.60359 0.0
C321 C 0.23719 0.55735 0.6362 0.0
C322 C 0.24811 0.68743 0.63108 0.0
C323 C 0.24136 0.5524 0.57142 0.0
H324 H 0.18355 0.65769 0.50891 0.0
H325 H 0.32648 0.71721 0.51196 0.0
H326 H 0.15919 0.5712 0.5702 0.0
H327 H 0.15907 0.61784 0.59016 0.0
H328 H 0.13629 0.60073 0.54728 0.0
H329 H 0.36324 0.69816 0.55386 0.0
H330 H 0.33721 0.694 0.5952 0.0
H331 H 0.33116 0.64474 0.57499 0.0
H332 H 0.23783 0.6376 0.68764 0.0
H333 H 0.23434 0.52469 0.63785 0.0
H334 H 0.21964 0.68578 0.61652 0.0
H335 H 0.27919 0.71133 0.6173 0.0
H336 H 0.24873 0.7008 0.65737 0.0
H337 H 0.21259 0.54597 0.55474 0.0
H338 H 0.23921 0.51994 0.57751 0.0
H339 H 0.27218 0.57307 0.55617 0.0
C340 C 0.61914 0.23928 0.8304 0.0
C341 C 0.65777 0.23579 0.83288 0.0
C342 C 0.60331 0.24415 0.79821 0.0
C343 C 0.62618 0.24472 0.76762 0.0
C344 C 0.66531 0.24133 0.76992 0.0
C345 C 0.68092 0.23733 0.80261 0.0
C346 C 0.56191 0.24846 0.79695 0.0
C347 C 0.69016 0.24109 0.73785 0.0
C348 C 0.55382 0.21307 0.687 0.0
C349 C 0.56623 0.25511 0.67289 0.0
C350 C 0.57478 0.20908 0.71684 0.0
C351 C 0.60835 0.24812 0.73335 0.0
C352 C 0.62208 0.29056 0.71857 0.0
C353 C 0.60112 0.29352 0.68833 0.0
C354 C 0.5598 0.16316 0.73142 0.0
C355 C 0.65731 0.33301 0.73564 0.0
H356 H 0.60129 0.23844 0.85372 0.0
H357 H 0.7107 0.23444 0.80439 0.0
H358 H 0.56918 0.27949 0.78302 0.0
H359 H 0.53509 0.21994 0.78242 0.0
H360 H 0.54912 0.24926 0.82317 0.0
H361 H 0.72041 0.2389 0.74407 0.0
H362 H 0.6678 0.21224 0.72123 0.0
H363 H 0.7004 0.27183 0.72247 0.0
H364 H 0.52718 0.18321 0.67502 0.0
H365 H 0.61082 0.32614 0.67765 0.0
H366 H 0.54234 0.15912 0.75641 0.0
H367 H 0.58913 0.15906 0.73667 0.0
H368 H 0.53676 0.13611 0.71364 0.0
H369 H 0.64463 0.33731 0.76091 0.0
H370 H 0.66665 0.36305 0.71952 0.0
H371 H 0.68781 0.331 0.74093 0.0
C372 C 0.34309 0.55283 0.8544 0.0
C373 C 0.31329 0.56504 0.84033 0.0
C374 C 0.3682 0.57401 0.88413 0.0
C375 C 0.36271 0.6076 0.90059 0.0
C376 C 0.33378 0.62108 0.88587 0.0
C377 C 0.30971 0.59991 0.85574 0.0
C378 C 0.39938 0.55929 0.89864 0.0
C379 C 0.32651 0.6563 0.9029 0.0
C380 C 0.3833 0.61926 0.99752 0.0
C381 C 0.42537 0.65803 0.99971 0.0
C382 C 0.3623 0.60311 0.96546 0.0
C383 C 0.38425 0.62577 0.93472 0.0
C384 C 0.42671 0.66503 0.93672 0.0
C385 C 0.44661 0.68097 0.96928 0.0
C386 C 0.31666 0.56158 0.96452 0.0
C387 C 0.45143 0.68967 0.90447 0.0
H388 H 0.34635 0.5262 0.84245 0.0
H389 H 0.28664 0.60944 0.84509 0.0
H390 H 0.43282 0.58874 0.90365 0.0
H391 H 0.38625 0.54205 0.92374 0.0
H392 H 0.40331 0.53615 0.88092 0.0
H393 H 0.30551 0.66535 0.88687 0.0
H394 H 0.30985 0.64378 0.9283 0.0
H395 H 0.359 0.68695 0.90795 0.0
H396 H 0.36657 0.60157 0.02097 0.0
H397 H 0.47924 0.71084 0.97084 0.0
H398 H 0.31835 0.5347 0.95007 0.0
H399 H 0.29269 0.5686 0.95067 0.0
H400 H 0.30336 0.54899 0.99084 0.0
H401 H 0.45786 0.66725 0.88788 0.0
H402 H 0.48387 0.72005 0.91047 0.0
H403 H 0.43068 0.69967 0.88916 0.0
C404 C 0.79166 0.3445 0.02044 0.0
C405 C 0.74956 0.31477 0.00645 0.0
C406 C 0.79577 0.36964 0.05019 0.0
C407 C 0.7568 0.3643 0.06673 0.0
C408 C 0.7143 0.33551 0.05205 0.0
C409 C 0.71122 0.31138 0.02191 0.0
C410 C 0.84175 0.40066 0.06465 0.0
C411 C 0.67193 0.32844 0.06915 0.0
C412 C 0.7661 0.38444 0.16371 0.0
C413 C 0.76969 0.42662 0.1661 0.0
C414 C 0.76102 0.36355 0.13158 0.0
C415 C 0.76035 0.38571 0.10094 0.0
C416 C 0.76382 0.42828 0.10314 0.0
C417 C 0.76804 0.44808 0.13578 0.0
C418 C 0.75662 0.3178 0.13042 0.0
C419 C 0.76395 0.45322 0.07102 0.0
H420 H 0.82146 0.34762 0.00844 0.0
H421 H 0.67855 0.28839 0.01131 0.0
H422 H 0.84589 0.43413 0.0698 0.0
H423 H 0.84587 0.38737 0.08967 0.0
H424 H 0.86873 0.40457 0.04683 0.0
H425 H 0.64183 0.30769 0.05309 0.0
H426 H 0.66767 0.31155 0.09446 0.0
H427 H 0.67401 0.36099 0.07438 0.0
H428 H 0.76702 0.36754 0.18707 0.0
H429 H 0.77101 0.48079 0.13749 0.0
H430 H 0.78508 0.31939 0.11588 0.0
H431 H 0.72554 0.29401 0.11658 0.0
H432 H 0.7559 0.30433 0.15668 0.0
H433 H 0.79275 0.45965 0.05437 0.0
H434 H 0.76614 0.48568 0.07717 0.0
H435 H 0.73316 0.43263 0.0557 0.0
C436 C 0.38601 0.76569 0.33093 0.0
C437 C 0.34735 0.76912 0.33336 0.0
C438 C 0.40191 0.76083 0.29876 0.0
C439 C 0.37908 0.76023 0.26814 0.0
C440 C 0.3399 0.76354 0.27039 0.0
C441 C 0.32423 0.76752 0.30305 0.0
C442 C 0.44336 0.7566 0.29755 0.0
C443 C 0.31508 0.76374 0.23828 0.0
C444 C 0.45155 0.79213 0.18758 0.0
C445 C 0.43922 0.75013 0.17341 0.0
C446 C 0.43055 0.79601 0.21743 0.0
C447 C 0.39701 0.75692 0.2339 0.0
C448 C 0.38338 0.71452 0.21907 0.0
C449 C 0.40438 0.71166 0.18882 0.0
C450 C 0.44542 0.84189 0.23206 0.0
C451 C 0.34819 0.67202 0.23609 0.0
H452 H 0.40384 0.76656 0.35427 0.0
H453 H 0.29442 0.77038 0.3048 0.0
H454 H 0.43617 0.72561 0.2836 0.0
H455 H 0.47019 0.78517 0.28308 0.0
H456 H 0.45609 0.75579 0.3238 0.0
H457 H 0.28476 0.76581 0.24447 0.0
H458 H 0.33742 0.79264 0.22171 0.0
H459 H 0.30496 0.73304 0.22288 0.0
H460 H 0.47815 0.82203 0.17562 0.0
H461 H 0.39476 0.67907 0.17809 0.0
H462 H 0.46281 0.84591 0.25709 0.0
H463 H 0.41604 0.84593 0.23727 0.0
H464 H 0.46848 0.869 0.21433 0.0
H465 H 0.36085 0.66774 0.26137 0.0
H466 H 0.33896 0.642 0.21995 0.0
H467 H 0.31763 0.67392 0.24135 0.0
loop_
_geom_bond_atom_site_label_1
_geom_bond_atom_site_label_2
_geom_bond_distance
_geom_bond_site_symmetry_2
_ccdc_geom_bond_type
O0 Cd1 2.223 . S
O0 C8 1.315 . S
Cd1 O0 2.223 . S
Cd1 O4 2.297 . S
Cd1 O5 2.439 . S
Cd1 O11 2.240 . S
Cd2 O3 2.240 . S
Cd2 O10 2.223 . S
Cd2 O12 2.297 . S
Cd2 O13 2.439 . S
O3 Cd2 2.240 . S
O3 C8 1.279 . S
O4 Cd1 2.297 . S
O4 C6 1.247 . S
O5 Cd1 2.439 . S
O5 C6 1.208 . S
C6 O4 1.247 . S
C6 O5 1.208 . S
C7 O12 1.247 . S
C7 O13 1.208 . S
C8 O0 1.315 . S
C8 O3 1.279 . S
C9 O10 1.315 . S
C9 O11 1.279 . S
O10 Cd2 2.223 . S
O10 C9 1.315 . S
O11 Cd1 2.240 . S
O11 C9 1.279 . S
O12 Cd2 2.297 . S
O12 C7 1.247 . S
O13 Cd2 2.439 . S
O13 C7 1.208 . S
O14 Cd15 2.223 . S
O14 C22 1.315 . S
Cd15 O14 2.223 . S
Cd15 O18 2.297 . S
Cd15 O19 2.439 . S
Cd15 O25 2.240 . S
Cd16 O17 2.240 . S
Cd16 O24 2.223 . S
Cd16 O26 2.297 . S
Cd16 O27 2.439 . S
O17 Cd16 2.240 . S
O17 C22 1.279 . S
O18 Cd15 2.297 . S
O18 C20 1.247 . S
O19 Cd15 2.439 . S
O19 C20 1.208 . S
C20 O18 1.247 . S
C20 O19 1.208 . S
C21 O26 1.247 . S
C21 O27 1.208 . S
C22 O14 1.315 . S
C22 O17 1.279 . S
C23 O24 1.315 . S
C23 O25 1.279 . S
O24 Cd16 2.223 . S
O24 C23 1.315 . S
O25 Cd15 2.240 . S
O25 C23 1.279 . S
O26 Cd16 2.297 . S
O26 C21 1.247 . S
O27 Cd16 2.439 . S
O27 C21 1.208 . S
O28 Cd29 2.223 . S
O28 C36 1.315 . S
Cd29 O28 2.223 . S
Cd29 O32 2.297 . S
Cd29 O33 2.439 . S
Cd29 O39 2.240 . S
Cd30 O31 2.240 . S
Cd30 O38 2.223 . S
Cd30 O40 2.297 . S
Cd30 O41 2.439 . S
O31 Cd30 2.240 . S
O31 C36 1.279 . S
O32 Cd29 2.297 . S
O32 C34 1.247 . S
O33 Cd29 2.439 . S
O33 C34 1.208 . S
C34 O32 1.247 . S
C34 O33 1.208 . S
C35 O40 1.247 . S
C35 O41 1.208 . S
C36 O28 1.315 . S
C36 O31 1.279 . S
C37 O38 1.315 . S
C37 O39 1.279 . S
O38 Cd30 2.223 . S
O38 C37 1.315 . S
O39 Cd29 2.240 . S
O39 C37 1.279 . S
O40 Cd30 2.297 . S
O40 C35 1.247 . S
O41 Cd30 2.439 . S
O41 C35 1.208 . S
O42 Cd43 2.223 . S
O42 C50 1.315 . S
Cd43 O42 2.223 . S
Cd43 O46 2.297 . S
Cd43 O47 2.439 . S
Cd43 O53 2.240 . S
Cd44 O45 2.240 . S
Cd44 O52 2.223 . S
Cd44 O54 2.297 . S
Cd44 O55 2.439 . S
O45 Cd44 2.240 . S
O45 C50 1.279 . S
O46 Cd43 2.297 . S
O46 C48 1.247 . S
O47 Cd43 2.439 . S
O47 C48 1.208 . S
C48 O46 1.247 . S
C48 O47 1.208 . S
C49 O54 1.247 . S
C49 O55 1.208 . S
C50 O42 1.315 . S
C50 O45 1.279 . S
C51 O52 1.315 . S
C51 O53 1.279 . S
O52 Cd44 2.223 . S
O52 C51 1.315 . S
O53 Cd43 2.240 . S
O53 C51 1.279 . S
O54 Cd44 2.297 . S
O54 C49 1.247 . S
O55 Cd44 2.439 . S
O55 C49 1.208 . S
O56 Cd57 2.223 . S
O56 C64 1.315 . S
Cd57 O56 2.223 . S
Cd57 O60 2.297 . S
Cd57 O61 2.439 . S
Cd57 O67 2.240 . S
Cd58 O59 2.240 . S
Cd58 O66 2.223 . S
Cd58 O68 2.297 . S
Cd58 O69 2.439 . S
O59 Cd58 2.240 . S
O59 C64 1.279 . S
O60 Cd57 2.297 . S
O60 C62 1.247 . S
O61 Cd57 2.439 . S
O61 C62 1.208 . S
C62 O60 1.247 . S
C62 O61 1.208 . S
C63 O68 1.247 . S
C63 O69 1.208 . S
C64 O56 1.315 . S
C64 O59 1.279 . S
C65 O66 1.315 . S
C65 O67 1.279 . S
O66 Cd58 2.223 . S
O66 C65 1.315 . S
O67 Cd57 2.240 . S
O67 C65 1.279 . S
O68 Cd58 2.297 . S
O68 C63 1.247 . S
O69 Cd58 2.439 . S
O69 C63 1.208 . S
O70 Cd71 2.223 . S
O70 C78 1.315 . S
Cd71 O70 2.223 . S
Cd71 O74 2.297 . S
Cd71 O75 2.439 . S
Cd71 O81 2.240 . S
Cd72 O73 2.240 . S
Cd72 O80 2.223 . S
Cd72 O82 2.297 . S
Cd72 O83 2.439 . S
O73 Cd72 2.240 . S
O73 C78 1.279 . S
O74 Cd71 2.297 . S
O74 C76 1.247 . S
O75 Cd71 2.439 . S
O75 C76 1.208 . S
C76 O74 1.247 . S
C76 O75 1.208 . S
C77 O82 1.247 . S
C77 O83 1.208 . S
C78 O70 1.315 . S
C78 O73 1.279 . S
C79 O80 1.315 . S
C79 O81 1.279 . S
O80 Cd72 2.223 . S
O80 C79 1.315 . S
O81 Cd71 2.240 . S
O81 C79 1.279 . S
O82 Cd72 2.297 . S
O82 C77 1.247 . S
O83 Cd72 2.439 . S
O83 C77 1.208 . S
C84 C85 1.391 . S
C84 C86 1.394 1_545 S
C84 H100 0.931 . S
C85 C84 1.391 . S
C85 C89 1.376 . S
C86 C84 1.394 1_565 S
C86 C87 1.369 . S
C86 C90 1.531 . S
C87 C86 1.369 . S
C87 C88 1.410 1_565 S
C87 C95 1.503 . S
C88 C87 1.410 1_545 S
C88 C89 1.392 . S
C88 C91 1.511 1_545 S
C89 C85 1.376 . S
C89 C88 1.392 . S
C89 H101 0.929 . S
C90 C86 1.531 . S
C90 H102 0.960 . S
C90 H103 0.962 . S
C90 H104 0.960 . S
C91 C88 1.511 1_565 S
C91 H105 0.961 1_565 S
C91 H106 0.961 . S
C91 H107 0.961 . S
C92 C93 1.370 . S
C92 C94 1.363 . S
C92 H108 0.931 . S
C93 C92 1.370 . S
C93 C97 1.408 . S
C94 C92 1.363 . S
C94 C95 1.370 . S
C94 C98 1.524 . S
C95 C87 1.503 . S
C95 C94 1.370 . S
C95 C96 1.403 . S
C96 C95 1.403 . S
C96 C97 1.404 . S
C96 C99 1.539 . S
C97 C93 1.408 . S
C97 C96 1.404 . S
C97 H109 0.930 . S
C98 C94 1.524 . S
C98 H110 0.956 . S
C98 H111 0.961 . S
C98 H112 0.961 . S
C99 C96 1.539 . S
C99 H113 0.958 . S
C99 H114 0.961 . S
C99 H115 0.960 . S
H100 C84 0.931 . S
H101 C89 0.929 . S
H102 C90 0.960 . S
H103 C90 0.962 . S
H104 C90 0.960 . S
H105 C91 0.961 1_545 S
H106 C91 0.961 . S
H107 C91 0.961 . S
H108 C92 0.931 . S
H109 C97 0.930 . S
H110 C98 0.956 . S
H111 C98 0.961 . S
H112 C98 0.961 . S
H113 C99 0.958 . S
H114 C99 0.961 . S
H115 C99 0.960 . S
C116 C117 1.391 . S
C116 C118 1.394 . S
C116 H132 0.931 . S
C117 C116 1.391 . S
C117 C121 1.376 . S
C118 C116 1.394 . S
C118 C119 1.369 . S
C118 C122 1.531 . S
C119 C118 1.369 . S
C119 C120 1.410 . S
C119 C127 1.503 . S
C120 C119 1.410 . S
C120 C121 1.392 . S
C120 C123 1.511 . S
C121 C117 1.376 . S
C121 C120 1.392 . S
C121 H133 0.929 . S
C122 C118 1.531 . S
C122 H134 0.960 . S
C122 H135 0.962 . S
C122 H136 0.960 . S
C123 C120 1.511 . S
C123 H137 0.961 . S
C123 H138 0.961 . S
C123 H139 0.961 . S
C124 C125 1.370 . S
C124 C126 1.363 . S
C124 H140 0.931 . S
C125 C124 1.370 . S
C125 C129 1.408 . S
C126 C124 1.363 . S
C126 C127 1.370 . S
C126 C130 1.524 . S
C127 C119 1.503 . S
C127 C126 1.370 . S
C127 C128 1.403 . S
C128 C127 1.403 . S
C128 C129 1.404 . S
C128 C131 1.539 . S
C129 C125 1.408 . S
C129 C128 1.404 . S
C129 H141 0.930 . S
C130 C126 1.524 . S
C130 H142 0.956 . S
C130 H143 0.961 . S
C130 H144 0.961 . S
C131 C128 1.539 . S
C131 H145 0.958 . S
C131 H146 0.961 . S
C131 H147 0.960 . S
H132 C116 0.931 . S
H133 C121 0.929 . S
H134 C122 0.960 . S
H135 C122 0.962 . S
H136 C122 0.960 . S
H137 C123 0.961 . S
H138 C123 0.961 . S
H139 C123 0.961 . S
H140 C124 0.931 . S
H141 C129 0.930 . S
H142 C130 0.956 . S
H143 C130 0.961 . S
H144 C130 0.961 . S
H145 C131 0.958 . S
H146 C131 0.961 . S
H147 C131 0.960 . S
C148 C149 1.391 . S
C148 C150 1.394 1_655 S
C148 H164 0.931 . S
C149 C148 1.391 . S
C149 C153 1.376 . S
C150 C148 1.394 1_455 S
C150 C151 1.369 . S
C150 C154 1.531 . S
C151 C150 1.369 . S
C151 C152 1.410 1_455 S
C151 C159 1.503 . S
C152 C151 1.410 1_655 S
C152 C153 1.392 . S
C152 C155 1.511 1_655 S
C153 C149 1.376 . S
C153 C152 1.392 . S
C153 H165 0.929 . S
C154 C150 1.531 . S
C154 H166 0.960 . S
C154 H167 0.962 . S
C154 H168 0.960 . S
C155 C152 1.511 1_455 S
C155 H169 0.961 1_455 S
C155 H170 0.961 . S
C155 H171 0.961 . S
C156 C157 1.370 . S
C156 C158 1.363 . S
C156 H172 0.931 . S
C157 C156 1.370 . S
C157 C161 1.408 . S
C158 C156 1.363 . S
C158 C159 1.370 . S
C158 C162 1.524 . S
C159 C151 1.503 . S
C159 C158 1.370 . S
C159 C160 1.403 . S
C160 C159 1.403 . S
C160 C161 1.404 . S
C160 C163 1.539 . S
C161 C157 1.408 . S
C161 C160 1.404 . S
C161 H173 0.930 . S
C162 C158 1.524 . S
C162 H174 0.956 . S
C162 H175 0.965 . S
C162 H176 0.961 . S
C163 C160 1.539 . S
C163 H177 0.958 . S
C163 H178 0.961 . S
C163 H179 0.960 . S
H164 C148 0.931 . S
H165 C153 0.929 . S
H166 C154 0.960 . S
H167 C154 0.962 . S
H168 C154 0.960 . S
H169 C155 0.961 1_655 S
H170 C155 0.961 . S
H171 C155 0.961 . S
H172 C156 0.931 . S
H173 C161 0.930 . S
H174 C162 0.956 . S
H175 C162 0.965 . S
H176 C162 0.961 . S
H177 C163 0.958 . S
H178 C163 0.961 . S
H179 C163 0.960 . S
C180 C181 1.391 . S
C180 C182 1.394 1_554 S
C180 H196 0.931 . S
C181 C180 1.391 . S
C181 C185 1.376 . S
C182 C180 1.394 1_556 S
C182 C183 1.369 1_566 S
C182 C186 1.531 . S
C183 C182 1.369 1_544 S
C183 C184 1.410 . S
C183 C191 1.503 1_554 S
C184 C183 1.410 . S
C184 C185 1.392 1_545 S
C184 C187 1.511 . S
C185 C181 1.376 . S
C185 C184 1.392 1_565 S
C185 H197 0.929 . S
C186 C182 1.531 . S
C186 H198 0.960 1_565 S
C186 H199 0.962 . S
C186 H200 0.960 . S
C187 C184 1.511 . S
C187 H201 0.961 . S
C187 H202 0.961 . S
C187 H203 0.961 . S
C188 C189 1.370 . S
C188 C190 1.363 1_556 S
C188 H204 0.931 . S
C189 C188 1.370 . S
C189 C193 1.408 . S
C190 C188 1.363 1_554 S
C190 C191 1.370 1_554 S
C190 C194 1.524 . S
C191 C183 1.503 1_556 S
C191 C190 1.370 1_556 S
C191 C192 1.403 . S
C192 C191 1.403 . S
C192 C193 1.404 . S
C192 C195 1.539 . S
C193 C189 1.408 . S
C193 C192 1.404 . S
C193 H205 0.930 . S
C194 C190 1.524 . S
C194 H206 0.956 . S
C194 H207 0.961 . S
C194 H208 0.961 . S
C195 C192 1.539 . S
C195 H209 0.958 . S
C195 H210 0.961 . S
C195 H211 0.960 . S
H196 C180 0.931 . S
H197 C185 0.929 . S
H198 C186 0.960 1_545 S
H199 C186 0.962 . S
H200 C186 0.960 . S
H201 C187 0.961 . S
H202 C187 0.961 . S
H203 C187 0.961 . S
H204 C188 0.931 . S
H205 C193 0.930 . S
H206 C194 0.956 . S
H207 C194 0.961 . S
H208 C194 0.961 . S
H209 C195 0.958 . S
H210 C195 0.961 . S
H211 C195 0.960 . S
C212 C213 1.391 . S
C212 C214 1.394 . S
C212 H228 0.931 . S
C213 C212 1.391 . S
C213 C217 1.376 . S
C214 C212 1.394 . S
C214 C215 1.369 . S
C214 C218 1.531 . S
C215 C214 1.369 . S
C215 C216 1.410 . S
C215 C223 1.503 . S
C216 C215 1.410 . S
C216 C217 1.392 . S
C216 C219 1.511 . S
C217 C213 1.376 . S
C217 C216 1.392 . S
C217 H229 0.929 . S
C218 C214 1.531 . S
C218 H230 0.960 . S
C218 H231 0.962 . S
C218 H232 0.960 . S
C219 C216 1.511 . S
C219 H233 0.961 . S
C219 H234 0.961 . S
C219 H235 0.961 . S
C220 C221 1.370 . S
C220 C222 1.363 . S
C220 H236 0.931 . S
C221 C220 1.370 . S
C221 C225 1.408 . S
C222 C220 1.363 . S
C222 C223 1.370 . S
C222 C226 1.524 . S
C223 C215 1.503 . S
C223 C222 1.370 . S
C223 C224 1.403 . S
C224 C223 1.403 . S
C224 C225 1.404 . S
C224 C227 1.539 . S
C225 C221 1.408 . S
C225 C224 1.404 . S
C225 H237 0.930 . S
C226 C222 1.524 . S
C226 H238 0.956 . S
C226 H239 0.961 . S
C226 H240 0.961 . S
C227 C224 1.539 . S
C227 H241 0.958 . S
C227 H242 0.961 . S
C227 H243 0.960 . S
H228 C212 0.931 . S
H229 C217 0.929 . S
H230 C218 0.960 . S
H231 C218 0.962 . S
H232 C218 0.960 . S
H233 C219 0.961 . S
H234 C219 0.961 . S
H235 C219 0.961 . S
H236 C220 0.931 . S
H237 C225 0.930 . S
H238 C226 0.956 . S
H239 C226 0.961 . S
H240 C226 0.961 . S
H241 C227 0.958 . S
H242 C227 0.961 . S
H243 C227 0.960 . S
C244 C245 1.391 . S
C244 C246 1.379 1_455 S
C244 H260 0.931 . S
C245 C244 1.391 . S
C245 C249 1.376 . S
C246 C244 1.379 1_655 S
C246 C247 1.367 . S
C246 C250 1.548 . S
C247 C246 1.367 . S
C247 C248 1.410 1_655 S
C247 C255 1.503 . S
C248 C247 1.410 1_455 S
C248 C249 1.392 . S
C248 C251 1.511 . S
C249 C245 1.376 . S
C249 C248 1.392 . S
C249 H261 0.929 . S
C250 C246 1.548 . S
C250 H262 0.960 . S
C250 H263 0.962 . S
C250 H264 0.960 . S
C251 C248 1.511 . S
C251 H265 0.961 . S
C251 H266 0.961 1_455 S
C251 H267 0.961 . S
C252 C253 1.370 . S
C252 C254 1.363 . S
C252 H268 0.931 . S
C253 C252 1.370 . S
C253 C257 1.408 . S
C254 C252 1.363 . S
C254 C255 1.370 . S
C254 C258 1.524 . S
C255 C247 1.503 . S
C255 C254 1.370 . S
C255 C256 1.403 . S
C256 C255 1.403 . S
C256 C257 1.404 . S
C256 C259 1.539 . S
C257 C253 1.408 . S
C257 C256 1.404 . S
C257 H269 0.930 . S
C258 C254 1.524 . S
C258 H270 0.956 . S
C258 H271 0.961 . S
C258 H272 0.961 . S
C259 C256 1.539 . S
C259 H273 0.958 . S
C259 H274 0.961 . S
C259 H275 0.938 1_655 S
H260 C244 0.931 . S
H261 C249 0.929 . S
H262 C250 0.960 . S
H263 C250 0.962 . S
H264 C250 0.960 . S
H265 C251 0.961 . S
H266 C251 0.961 1_655 S
H267 C251 0.961 . S
H268 C252 0.931 . S
H269 C257 0.930 . S
H270 C258 0.956 . S
H271 C258 0.961 . S
H272 C258 0.961 . S
H273 C259 0.958 . S
H274 C259 0.961 . S
H275 C259 0.938 1_455 S
C276 C277 1.391 . S
C276 C278 1.394 . S
C276 H292 0.931 . S
C277 C276 1.391 . S
C277 C281 1.376 . S
C278 C276 1.394 . S
C278 C279 1.369 . S
C278 C282 1.531 . S
C279 C278 1.369 . S
C279 C280 1.410 . S
C279 C287 1.503 . S
C280 C279 1.410 . S
C280 C281 1.392 . S
C280 C283 1.511 . S
C281 C277 1.376 . S
C281 C280 1.392 . S
C281 H293 0.929 . S
C282 C278 1.531 . S
C282 H294 0.960 . S
C282 H295 0.962 . S
C282 H296 0.960 . S
C283 C280 1.511 . S
C283 H297 0.961 . S
C283 H298 0.961 . S
C283 H299 0.961 . S
C284 C285 1.370 . S
C284 C286 1.363 . S
C284 H300 0.931 . S
C285 C284 1.370 . S
C285 C289 1.408 . S
C286 C284 1.363 . S
C286 C287 1.370 . S
C286 C290 1.524 . S
C287 C279 1.503 . S
C287 C286 1.370 . S
C287 C288 1.403 . S
C288 C287 1.403 . S
C288 C289 1.404 . S
C288 C291 1.539 . S
C289 C285 1.408 . S
C289 C288 1.404 . S
C289 H301 0.930 . S
C290 C286 1.524 . S
C290 H302 0.956 . S
C290 H303 0.961 . S
C290 H304 0.961 . S
C291 C288 1.539 . S
C291 H305 0.958 . S
C291 H306 0.961 . S
C291 H307 0.960 . S
H292 C276 0.931 . S
H293 C281 0.929 . S
H294 C282 0.960 . S
H295 C282 0.962 . S
H296 C282 0.960 . S
H297 C283 0.961 . S
H298 C283 0.961 . S
H299 C283 0.961 . S
H300 C284 0.931 . S
H301 C289 0.930 . S
H302 C290 0.956 . S
H303 C290 0.961 . S
H304 C290 0.961 . S
H305 C291 0.958 . S
H306 C291 0.961 . S
H307 C291 0.960 . S
C308 C309 1.391 . S
C308 C310 1.394 . S
C308 H324 0.931 . S
C309 C308 1.391 . S
C309 C313 1.376 . S
C310 C308 1.394 . S
C310 C311 1.369 . S
C310 C314 1.531 . S
C311 C310 1.369 . S
C311 C312 1.410 . S
C311 C319 1.503 . S
C312 C311 1.410 . S
C312 C313 1.392 . S
C312 C315 1.511 . S
C313 C309 1.376 . S
C313 C312 1.392 . S
C313 H325 0.929 . S
C314 C310 1.531 . S
C314 H326 0.960 . S
C314 H327 0.962 . S
C314 H328 0.960 . S
C315 C312 1.511 . S
C315 H329 0.961 . S
C315 H330 0.961 . S
C315 H331 0.961 . S
C316 C317 1.370 . S
C316 C318 1.363 . S
C316 H332 0.931 . S
C317 C316 1.370 . S
C317 C321 1.408 . S
C318 C316 1.363 . S
C318 C319 1.370 . S
C318 C322 1.524 . S
C319 C311 1.503 . S
C319 C318 1.370 . S
C319 C320 1.403 . S
C320 C319 1.403 . S
C320 C321 1.404 . S
C320 C323 1.539 . S
C321 C317 1.408 . S
C321 C320 1.404 . S
C321 H333 0.930 . S
C322 C318 1.524 . S
C322 H334 0.956 . S
C322 H335 0.961 . S
C322 H336 0.961 . S
C323 C320 1.539 . S
C323 H337 0.958 . S
C323 H338 0.961 . S
C323 H339 0.960 . S
H324 C308 0.931 . S
H325 C313 0.929 . S
H326 C314 0.960 . S
H327 C314 0.962 . S
H328 C314 0.960 . S
H329 C315 0.961 . S
H330 C315 0.961 . S
H331 C315 0.961 . S
H332 C316 0.931 . S
H333 C321 0.930 . S
H334 C322 0.956 . S
H335 C322 0.961 . S
H336 C322 0.961 . S
H337 C323 0.958 . S
H338 C323 0.961 . S
H339 C323 0.960 . S
C340 C341 1.391 . S
C340 C342 1.394 . S
C340 H356 0.931 . S
C341 C340 1.391 . S
C341 C345 1.376 . S
C342 C340 1.394 . S
C342 C343 1.369 . S
C342 C346 1.531 . S
C343 C342 1.369 . S
C343 C344 1.410 . S
C343 C351 1.503 . S
C344 C343 1.410 . S
C344 C345 1.392 . S
C344 C347 1.511 . S
C345 C341 1.376 . S
C345 C344 1.392 . S
C345 H357 0.929 . S
C346 C342 1.531 . S
C346 H358 0.960 . S
C346 H359 0.962 . S
C346 H360 0.960 . S
C347 C344 1.511 . S
C347 H361 0.961 . S
C347 H362 0.961 . S
C347 H363 0.961 . S
C348 C349 1.370 . S
C348 C350 1.363 . S
C348 H364 0.931 . S
C349 C348 1.370 . S
C349 C353 1.408 . S
C350 C348 1.363 . S
C350 C351 1.370 . S
C350 C354 1.524 . S
C351 C343 1.503 . S
C351 C350 1.370 . S
C351 C352 1.403 . S
C352 C351 1.403 . S
C352 C353 1.404 . S
C352 C355 1.539 . S
C353 C349 1.408 . S
C353 C352 1.404 . S
C353 H365 0.930 . S
C354 C350 1.524 . S
C354 H366 0.956 . S
C354 H367 0.961 . S
C354 H368 0.961 . S
C355 C352 1.539 . S
C355 H369 0.958 . S
C355 H370 0.961 . S
C355 H371 0.960 . S
H356 C340 0.931 . S
H357 C345 0.929 . S
H358 C346 0.960 . S
H359 C346 0.962 . S
H360 C346 0.960 . S
H361 C347 0.961 . S
H362 C347 0.961 . S
H363 C347 0.961 . S
H364 C348 0.931 . S
H365 C353 0.930 . S
H366 C354 0.956 . S
H367 C354 0.961 . S
H368 C354 0.961 . S
H369 C355 0.958 . S
H370 C355 0.961 . S
H371 C355 0.960 . S
C372 C373 1.391 . S
C372 C374 1.394 . S
C372 H388 0.931 . S
C373 C372 1.391 . S
C373 C377 1.376 . S
C374 C372 1.394 . S
C374 C375 1.369 . S
C374 C378 1.531 . S
C375 C374 1.369 . S
C375 C376 1.410 . S
C375 C383 1.503 . S
C376 C375 1.410 . S
C376 C377 1.392 . S
C376 C379 1.511 . S
C377 C373 1.376 . S
C377 C376 1.392 . S
C377 H389 0.929 . S
C378 C374 1.531 . S
C378 H390 0.960 . S
C378 H391 0.962 . S
C378 H392 0.960 . S
C379 C376 1.511 . S
C379 H393 0.961 . S
C379 H394 0.961 . S
C379 H395 0.961 . S
C380 C381 1.370 . S
C380 C382 1.363 . S
C380 H396 0.905 1_556 S
C381 C380 1.370 . S
C381 C385 1.408 . S
C382 C380 1.363 . S
C382 C383 1.370 . S
C382 C386 1.524 . S
C383 C375 1.503 . S
C383 C382 1.370 . S
C383 C384 1.403 . S
C384 C383 1.403 . S
C384 C385 1.404 . S
C384 C387 1.539 . S
C385 C381 1.408 . S
C385 C384 1.404 . S
C385 H397 0.930 . S
C386 C382 1.524 . S
C386 H398 0.956 . S
C386 H399 0.961 . S
C386 H400 0.961 . S
C387 C384 1.539 . S
C387 H401 0.958 . S
C387 H402 0.961 . S
C387 H403 0.960 . S
H388 C372 0.931 . S
H389 C377 0.929 . S
H390 C378 0.960 . S
H391 C378 0.962 . S
H392 C378 0.960 . S
H393 C379 0.961 . S
H394 C379 0.961 . S
H395 C379 0.961 . S
H396 C380 0.905 1_554 S
H397 C385 0.930 . S
H398 C386 0.956 . S
H399 C386 0.961 . S
H400 C386 0.961 . S
H401 C387 0.958 . S
H402 C387 0.961 . S
H403 C387 0.960 . S
C404 C405 1.391 . S
C404 C406 1.394 . S
C404 H420 0.931 . S
C405 C404 1.391 . S
C405 C409 1.376 . S
C406 C404 1.394 . S
C406 C407 1.369 . S
C406 C410 1.531 . S
C407 C406 1.369 . S
C407 C408 1.410 . S
C407 C415 1.503 . S
C408 C407 1.410 . S
C408 C409 1.392 . S
C408 C411 1.511 . S
C409 C405 1.376 . S
C409 C408 1.392 . S
C409 H421 0.929 1_554 S
C410 C406 1.531 . S
C410 H422 0.960 . S
C410 H423 0.962 . S
C410 H424 0.960 . S
C411 C408 1.511 . S
C411 H425 0.961 . S
C411 H426 0.961 . S
C411 H427 0.961 . S
C412 C413 1.370 . S
C412 C414 1.363 . S
C412 H428 0.931 . S
C413 C412 1.370 . S
C413 C417 1.408 . S
C414 C412 1.363 . S
C414 C415 1.370 . S
C414 C418 1.524 . S
C415 C407 1.503 . S
C415 C414 1.370 . S
C415 C416 1.403 . S
C416 C415 1.403 . S
C416 C417 1.404 . S
C416 C419 1.539 . S
C417 C413 1.408 . S
C417 C416 1.404 . S
C417 H429 0.930 . S
C418 C414 1.524 . S
C418 H430 0.956 . S
C418 H431 0.961 . S
C418 H432 0.961 . S
C419 C416 1.539 . S
C419 H433 0.958 . S
C419 H434 0.961 . S
C419 H435 0.960 . S
H420 C404 0.931 . S
H421 C409 0.929 1_556 S
H422 C410 0.960 . S
H423 C410 0.962 . S
H424 C410 0.960 . S
H425 C411 0.961 . S
H426 C411 0.961 . S
H427 C411 0.961 . S
H428 C412 0.931 . S
H429 C417 0.930 . S
H430 C418 0.956 . S
H431 C418 0.961 . S
H432 C418 0.961 . S
H433 C419 0.958 . S
H434 C419 0.961 . S
H435 C419 0.960 . S
C436 C437 1.391 . S
C436 C438 1.394 . S
C436 H452 0.931 . S
C437 C436 1.391 . S
C437 C441 1.376 . S
C438 C436 1.394 . S
C438 C439 1.369 . S
C438 C442 1.531 . S
C439 C438 1.369 . S
C439 C440 1.410 . S
C439 C447 1.503 . S
C440 C439 1.410 . S
C440 C441 1.392 . S
C440 C443 1.511 . S
C441 C437 1.376 . S
C441 C440 1.392 . S
C441 H453 0.929 . S
C442 C438 1.531 . S
C442 H454 0.960 . S
C442 H455 0.962 . S
C442 H456 0.960 . S
C443 C440 1.511 . S
C443 H457 0.961 . S
C443 H458 0.961 . S
C443 H459 0.961 . S
C444 C445 1.370 . S
C444 C446 1.363 . S
C444 H460 0.931 . S
C445 C444 1.370 . S
C445 C449 1.408 . S
C446 C444 1.363 . S
C446 C447 1.370 . S
C446 C450 1.524 . S
C447 C439 1.503 . S
C447 C446 1.370 . S
C447 C448 1.403 . S
C448 C447 1.403 . S
C448 C449 1.404 . S
C448 C451 1.539 . S
C449 C445 1.408 . S
C449 C448 1.404 . S
C449 H461 0.930 . S
C450 C446 1.524 . S
C450 H462 0.956 . S
C450 H463 0.961 . S
C450 H464 0.961 . S
C451 C448 1.539 . S
C451 H465 0.958 . S
C451 H466 0.961 . S
C451 H467 0.960 . S
H452 C436 0.931 . S
H453 C441 0.929 . S
H454 C442 0.960 . S
H455 C442 0.962 . S
H456 C442 0.960 . S
H457 C443 0.961 . S
H458 C443 0.961 . S
H459 C443 0.961 . S
H460 C444 0.931 . S
H461 C449 0.930 . S
H462 C450 0.956 . S
H463 C450 0.961 . S
H464 C450 0.961 . S
H465 C451 0.958 . S
H466 C451 0.961 . S
H467 C451 0.960 . S
C85 C6 1.694 . S
C93 C78 1.736 . S
C117 C9 1.714 . S
C125 C20 1.717 . S
C149 C35 1.701 . S
C157 C23 1.734 . S
C181 C48 1.722 . S
C189 C36 1.726 . S
C213 C62 1.690 . S
C221 C51 1.736 . S
C245 C77 1.695 . S
C253 C65 1.732 . S
C277 C7 1.439 . S
C285 C64 1.454 . S
C309 C79 1.454 . S
C317 C21 1.425 . S
C341 C34 1.402 . S
C349 C8 1.458 . S
C373 C22 1.446 . S
C381 C49 1.430 1_556 S
C405 C37 1.447 1_554 S
C413 C63 1.429 . S
C437 C76 1.432 . S
C445 C50 1.455 . S
