# Generated by pormake.
# Topology vbj, (5)-cn, num edge types: 1
# Building blocks:
#     Node 0, Type 0, BuildingBlock: XOMCOT_clean_sbu_1, # of connection points: 5
#     Node 1, Type 0, BuildingBlock: XOMCOT_clean_sbu_1, # of connection points: 5
#     Node 2, Type 0, BuildingBlock: XOMCOT_clean_sbu_1, # of connection points: 5
#     Node 3, Type 0, BuildingBlock: XOMCOT_clean_sbu_1, # of connection points: 5
#     Node 4, Type 0, BuildingBlock: XOMCOT_clean_sbu_1, # of connection points: 5
#     Node 5, Type 0, BuildingBlock: XOMCOT_clean_sbu_1, # of connection points: 5
#     Node 6, Type 0, BuildingBlock: XOMCOT_clean_sbu_1, # of connection points: 5
#     Node 7, Type 0, BuildingBlock: XOMCOT_clean_sbu_1, # of connection points: 5
#     Node 8, Type 0, BuildingBlock: XOMCOT_clean_sbu_1, # of connection points: 5
#     Node 9, Type 0, BuildingBlock: XOMCOT_clean_sbu_1, # of connection points: 5
#     Node 10, Type 0, BuildingBlock: XOMCOT_clean_sbu_1, # of connection points: 5
#     Node 11, Type 0, BuildingBlock: XOMCOT_clean_sbu_1, # of connection points: 5
#     Node 12, Type 0, BuildingBlock: XOMCOT_clean_sbu_1, # of connection points: 5
#     Node 13, Type 0, BuildingBlock: XOMCOT_clean_sbu_1, # of connection points: 5
#     Node 14, Type 0, BuildingBlock: XOMCOT_clean_sbu_1, # of connection points: 5
#     Node 15, Type 0, BuildingBlock: XOMCOT_clean_sbu_1, # of connection points: 5
#     Edge 16, Type (0, 0), BuildingBlock: XUDNAN_clean_linker_2, # of connection points: 2
#     Edge 17, Type (0, 0), BuildingBlock: XUDNAN_clean_linker_2, # of connection points: 2
#     Edge 18, Type (0, 0), BuildingBlock: XUDNAN_clean_linker_2, # of connection points: 2
#     Edge 19, Type (0, 0), BuildingBlock: XUDNAN_clean_linker_2, # of connection points: 2
#     Edge 20, Type (0, 0), BuildingBlock: XUDNAN_clean_linker_2, # of connection points: 2
#     Edge 21, Type (0, 0), BuildingBlock: XUDNAN_clean_linker_2, # of connection points: 2
#     Edge 22, Type (0, 0), BuildingBlock: XUDNAN_clean_linker_2, # of connection points: 2
#     Edge 23, Type (0, 0), BuildingBlock: XUDNAN_clean_linker_2, # of connection points: 2
#     Edge 24, Type (0, 0), BuildingBlock: XUDNAN_clean_linker_2, # of connection points: 2
#     Edge 25, Type (0, 0), BuildingBlock: XUDNAN_clean_linker_2, # of connection points: 2
#     Edge 26, Type (0, 0), BuildingBlock: XUDNAN_clean_linker_2, # of connection points: 2
#     Edge 27, Type (0, 0), BuildingBlock: XUDNAN_clean_linker_2, # of connection points: 2
#     Edge 28, Type (0, 0), BuildingBlock: XUDNAN_clean_linker_2, # of connection points: 2
#     Edge 29, Type (0, 0), BuildingBlock: XUDNAN_clean_linker_2, # of connection points: 2
#     Edge 30, Type (0, 0), BuildingBlock: XUDNAN_clean_linker_2, # of connection points: 2
#     Edge 31, Type (0, 0), BuildingBlock: XUDNAN_clean_linker_2, # of connection points: 2
#     Edge 32, Type (0, 0), BuildingBlock: XUDNAN_clean_linker_2, # of connection points: 2
#     Edge 33, Type (0, 0), BuildingBlock: XUDNAN_clean_linker_2, # of connection points: 2
#     Edge 34, Type (0, 0), BuildingBlock: XUDNAN_clean_linker_2, # of connection points: 2
#     Edge 35, Type (0, 0), BuildingBlock: XUDNAN_clean_linker_2, # of connection points: 2
#     Edge 36, Type (0, 0), BuildingBlock: XUDNAN_clean_linker_2, # of connection points: 2
#     Edge 37, Type (0, 0), BuildingBlock: XUDNAN_clean_linker_2, # of connection points: 2
#     Edge 38, Type (0, 0), BuildingBlock: XUDNAN_clean_linker_2, # of connection points: 2
#     Edge 39, Type (0, 0), BuildingBlock: XUDNAN_clean_linker_2, # of connection points: 2
#     Edge 40, Type (0, 0), BuildingBlock: XUDNAN_clean_linker_2, # of connection points: 2
#     Edge 41, Type (0, 0), BuildingBlock: XUDNAN_clean_linker_2, # of connection points: 2
#     Edge 42, Type (0, 0), BuildingBlock: XUDNAN_clean_linker_2, # of connection points: 2
#     Edge 43, Type (0, 0), BuildingBlock: XUDNAN_clean_linker_2, # of connection points: 2
#     Edge 44, Type (0, 0), BuildingBlock: XUDNAN_clean_linker_2, # of connection points: 2
#     Edge 45, Type (0, 0), BuildingBlock: XUDNAN_clean_linker_2, # of connection points: 2
#     Edge 46, Type (0, 0), BuildingBlock: XUDNAN_clean_linker_2, # of connection points: 2
#     Edge 47, Type (0, 0), BuildingBlock: XUDNAN_clean_linker_2, # of connection points: 2
#     Edge 48, Type (0, 0), BuildingBlock: XUDNAN_clean_linker_2, # of connection points: 2
#     Edge 49, Type (0, 0), BuildingBlock: XUDNAN_clean_linker_2, # of connection points: 2
#     Edge 50, Type (0, 0), BuildingBlock: XUDNAN_clean_linker_2, # of connection points: 2
#     Edge 51, Type (0, 0), BuildingBlock: XUDNAN_clean_linker_2, # of connection points: 2
#     Edge 52, Type (0, 0), BuildingBlock: XUDNAN_clean_linker_2, # of connection points: 2
#     Edge 53, Type (0, 0), BuildingBlock: XUDNAN_clean_linker_2, # of connection points: 2
#     Edge 54, Type (0, 0), BuildingBlock: XUDNAN_clean_linker_2, # of connection points: 2
#     Edge 55, Type (0, 0), BuildingBlock: XUDNAN_clean_linker_2, # of connection points: 2
# Relax obj value: 0.100
# Max RMSD: 0.144
# Mean RMSD: 0.144
data_MOF--net-vbj--node1-XOMCOT_clean_sbu_1--edge1-XUDNAN_clean_linker_2
_symmetry_space_group_name_H-M    P1
_symmetry_Int_Tables_number       1
_symmetry_cell_setting            triclinic
loop_
_symmetry_equiv_pos_as_xyz
'x, y, z'
_cell_length_a     26.815945
_cell_length_b     64.244638
_cell_length_c     47.129189
_cell_angle_alpha  90.246897
_cell_angle_beta   90.216982
_cell_angle_gamma 90.174738
loop_
_atom_site_label
_atom_site_type_symbol
_atom_site_fract_x
_atom_site_fract_y
_atom_site_fract_z
_atom_type_partial_charge
C0 C 0.08648 0.20011 0.14743 0.0
C1 C 0.07193 0.22054 0.14563 0.0
N2 N 0.05955 0.22467 0.11848 0.0
N3 N 0.0835 0.19104 0.12161 0.0
C4 C 0.06733 0.20649 0.10436 0.0
H5 H 0.09857 0.19233 0.16656 0.0
Co6 Co 0.09949 0.16286 0.11438 0.0
C7 C 0.04342 0.14046 0.16225 0.0
O8 O 0.04183 0.12187 0.15061 0.0
N9 N 0.1168 0.13451 0.10706 0.0
C10 C 0.14118 0.10652 0.08277 0.0
C11 C 0.11964 0.1258 0.08101 0.0
C12 C 0.13756 0.11998 0.12434 0.0
N13 N 0.15301 0.10271 0.11007 0.0
O14 O 0.1579 0.16622 0.13784 0.0
H15 H 0.11037 0.13339 0.06136 0.0
H16 H 0.144 0.1227 0.14671 0.0
O17 O 0.06293 0.15572 0.14896 0.0
C18 C 0.20427 0.16256 0.13492 0.0
O19 O 0.23413 0.166 0.1566 0.0
N20 N 0.04285 0.16039 0.09044 0.0
C21 C 0.96669 0.15908 0.04953 0.0
C22 C 0.95694 0.15435 0.07808 0.0
C23 C -0.00456 0.15519 0.09825 0.0
C24 C 0.05272 0.16543 0.06293 0.0
C25 C 0.01546 0.16472 0.04214 0.0
H26 H 0.98642 0.15187 0.11998 0.0
H27 H 0.09011 0.1701 0.05712 0.0
H28 H 0.06088 0.2044 0.08193 0.0
H29 H 0.07117 0.23148 0.16312 0.0
H30 H 0.15076 0.09688 0.06476 0.0
H31 H 0.91988 0.14988 0.08483 0.0
H32 H 0.02468 0.16894 0.02056 0.0
C33 C 0.40365 0.89196 0.0653 0.0
C34 C 0.40851 0.87099 0.06061 0.0
N35 N 0.41319 0.86144 0.08586 0.0
N36 N 0.40485 0.89583 0.09341 0.0
C37 C 0.41096 0.87688 0.1055 0.0
H38 H 0.40126 0.90379 0.0491 0.0
Co39 Co 0.40377 0.92304 0.10799 0.0
C40 C 0.40148 0.91651 0.16916 0.0
O41 O 0.36036 0.92758 0.16942 0.0
N42 N 0.40252 0.95075 0.12198 0.0
C43 C 0.41986 0.97961 0.14642 0.0
C44 C 0.4358 0.95983 0.13969 0.0
C45 C 0.3674 0.96557 0.11775 0.0
N46 N 0.37653 0.98322 0.13271 0.0
O47 O 0.33448 0.91987 0.11616 0.0
H48 H 0.46906 0.95236 0.1477 0.0
H49 H 0.33502 0.96336 0.10448 0.0
O50 O 0.42349 0.91307 0.1456 0.0
C51 C 0.31114 0.92358 0.09321 0.0
O52 O 0.33651 0.92934 0.07078 0.0
N53 N 0.46961 0.92616 0.09661 0.0
C54 C 0.54651 0.91965 0.05814 0.0
C55 C 0.54535 0.90881 0.08402 0.0
C56 C 0.5064 0.91233 0.10314 0.0
C57 C 0.47295 0.93833 0.07313 0.0
C58 C 0.51122 0.93538 0.05361 0.0
H59 H 0.50284 0.90229 0.12136 0.0
H60 H 0.44254 0.94864 0.06779 0.0
H61 H 0.41456 0.87447 0.12812 0.0
H62 H 0.41054 0.86347 0.04005 0.0
H63 H 0.43879 0.99045 0.16046 0.0
H64 H 0.57236 0.89678 0.0886 0.0
H65 H 0.51022 0.94401 0.03394 0.0
C66 C 0.56738 0.86834 0.45503 0.0
C67 C 0.55456 0.84768 0.45639 0.0
N68 N 0.54866 0.84041 0.42974 0.0
N69 N 0.56922 0.87428 0.42766 0.0
C70 C 0.55829 0.8568 0.41261 0.0
H71 H 0.57317 0.87866 0.47294 0.0
Co72 Co 0.57955 0.9022 0.41754 0.0
C73 C 0.51681 0.90637 0.36618 0.0
O74 O 0.49462 0.92205 0.37887 0.0
N75 N 0.59328 0.9306 0.40789 0.0
C76 C 0.62588 0.95651 0.38245 0.0
C77 C 0.60115 0.93784 0.38132 0.0
C78 C 0.61534 0.94528 0.42475 0.0
N79 N 0.63543 0.96112 0.40974 0.0
O80 O 0.6453 0.89562 0.40566 0.0
H81 H 0.59535 0.92919 0.36194 0.0
H82 H 0.62205 0.94328 0.4472 0.0
O83 O 0.55209 0.89677 0.37905 0.0
C84 C 0.67028 0.89872 0.42832 0.0
O85 O 0.64656 0.90398 0.4516 0.0
N86 N 0.51623 0.90846 0.4329 0.0
C87 C 0.4405 0.90487 0.47305 0.0
C88 C 0.43765 0.89392 0.44733 0.0
C89 C 0.47589 0.89591 0.42751 0.0
C90 C 0.51738 0.92043 0.45688 0.0
C91 C 0.47954 0.91909 0.47707 0.0
H92 H 0.47566 0.88548 0.40948 0.0
H93 H 0.55024 0.92924 0.46226 0.0
H94 H 0.5551 0.85631 0.38972 0.0
H95 H 0.54929 0.83872 0.47556 0.0
H96 H 0.6395 0.96517 0.36439 0.0
H97 H 0.4079 0.88282 0.44341 0.0
H98 H 0.4834 0.92762 0.49684 0.0
C99 C 0.93971 0.17123 0.4601 0.0
C100 C 0.9532 0.19178 0.46189 0.0
N101 N 0.95063 0.20019 0.43576 0.0
N102 N 0.92869 0.16636 0.43295 0.0
C103 C 0.93556 0.18436 0.41853 0.0
H104 H 0.93982 0.16025 0.47742 0.0
Co105 Co 0.91342 0.13884 0.42167 0.0
C106 C 0.96276 0.13531 0.36569 0.0
O107 O 0.98494 0.11856 0.37544 0.0
N108 N 0.8952 0.11107 0.41106 0.0
C109 C 0.86011 0.08549 0.38566 0.0
C110 C 0.88191 0.10472 0.38464 0.0
C111 C 0.87745 0.09561 0.42796 0.0
N112 N 0.85689 0.0797 0.41292 0.0
O113 O 0.84551 0.1462 0.4154 0.0
H114 H 0.88239 0.11418 0.36581 0.0
H115 H 0.87592 0.09667 0.45084 0.0
O116 O 0.9326 0.14536 0.3818 0.0
C117 C 0.82644 0.14517 0.44013 0.0
O118 O 0.85586 0.14131 0.46179 0.0
N119 N 0.97914 0.13139 0.43183 0.0
C120 C 0.0605 0.13542 0.46854 0.0
C121 C 0.06027 0.14553 0.44222 0.0
C122 C 0.01912 0.1434 0.42417 0.0
C123 C 0.98144 0.1197 0.45588 0.0
C124 C 0.02194 0.12136 0.47446 0.0
H125 H 0.01678 0.15369 0.40617 0.0
H126 H 0.94908 0.11131 0.46299 0.0
H127 H 0.9304 0.1857 0.39584 0.0
H128 H 0.96584 0.1996 0.48098 0.0
H129 H 0.84339 0.0773 0.36787 0.0
H130 H 0.08961 0.15639 0.43668 0.0
H131 H 0.02024 0.11343 0.49467 0.0
C132 C 0.90402 0.87793 0.95438 0.0
C133 C 0.91458 0.85723 0.95823 0.0
N134 N 0.92501 0.84855 0.9328 0.0
N135 N 0.90719 0.88256 0.92661 0.0
C136 C 0.91977 0.86432 0.91393 0.0
H137 H 0.8956 0.88905 0.97095 0.0
Co138 Co 0.89822 0.90971 0.91229 0.0
C139 C 0.96287 0.9023 0.85995 0.0
O140 O 0.00192 0.91205 0.87043 0.0
N141 N 0.88814 0.93736 0.89781 0.0
C142 C 0.89983 0.96777 0.87607 0.0
C143 C 0.91713 0.94787 0.8793 0.0
C144 C 0.85315 0.95159 0.90548 0.0
N145 N 0.85966 0.97022 0.89267 0.0
O146 O 0.83116 0.90251 0.90222 0.0
H147 H 0.95016 0.94212 0.86931 0.0
H148 H 0.82488 0.94885 0.92127 0.0
O149 O 0.92275 0.90069 0.87454 0.0
C150 C 0.80817 0.90681 0.92519 0.0
O151 O 0.83363 0.91464 0.94661 0.0
N152 N 0.96089 0.91723 0.92702 0.0
C153 C 0.03458 0.92457 0.96821 0.0
C154 C 0.04018 0.90866 0.94782 0.0
C155 C 0.00217 0.90483 0.928 0.0
C156 C 0.95588 0.93314 0.94602 0.0
C157 C 0.99192 0.93707 0.96658 0.0
H158 H 0.00451 0.89106 0.91481 0.0
H159 H 0.92134 0.94165 0.94736 0.0
H160 H 0.92656 0.86281 0.89142 0.0
H161 H 0.91472 0.84936 0.97845 0.0
H162 H 0.9162 0.97963 0.86275 0.0
H163 H 0.07234 0.89854 0.94789 0.0
H164 H 0.98404 0.9489 0.98232 0.0
C165 C 0.54341 0.17972 0.9614 0.0
C166 C 0.53397 0.20052 0.95844 0.0
N167 N 0.53106 0.20489 0.93056 0.0
N168 N 0.54666 0.17077 0.93557 0.0
C169 C 0.53859 0.18651 0.91703 0.0
H170 H 0.54751 0.17155 0.98128 0.0
Co171 Co 0.56079 0.1424 0.93181 0.0
C172 C 0.5158 0.12941 0.87749 0.0
O173 O 0.49933 0.11296 0.89098 0.0
N174 N 0.5767 0.11312 0.92894 0.0
C175 C 0.57863 0.07858 0.93429 0.0
C176 C 0.55115 0.0963 0.93837 0.0
C177 C 0.61957 0.10476 0.91873 0.0
N178 N 0.6221 0.08382 0.92206 0.0
O179 O 0.62937 0.14928 0.92388 0.0
H180 H 0.51439 0.09642 0.94752 0.0
H181 H 0.64875 0.1139 0.90912 0.0
O182 O 0.54171 0.14302 0.89103 0.0
C183 C 0.64946 0.14994 0.94853 0.0
O184 O 0.6214 0.14567 0.97055 0.0
N185 N 0.49573 0.13675 0.94421 0.0
C186 C 0.40838 0.13162 0.97547 0.0
C187 C 0.40631 0.13901 0.94746 0.0
C188 C 0.45084 0.14176 0.93217 0.0
C189 C 0.49806 0.13101 0.97195 0.0
C190 C 0.45516 0.12792 0.98768 0.0
H191 H 0.44923 0.14853 0.91125 0.0
H192 H 0.53396 0.12867 0.98192 0.0
H193 H 0.53898 0.18465 0.8942 0.0
H194 H 0.52889 0.21158 0.97557 0.0
H195 H 0.56747 0.0631 0.94063 0.0
H196 H 0.37092 0.14283 0.93768 0.0
H197 H 0.45878 0.12318 1.00963 0.0
C198 C 0.45958 0.1682 0.57871 0.0
C199 C 0.46988 0.18898 0.5757 0.0
N200 N 0.45411 0.19912 0.59907 0.0
N201 N 0.4382 0.16485 0.60414 0.0
C202 C 0.43428 0.18412 0.61583 0.0
H203 H 0.46741 0.15622 0.5632 0.0
Co204 Co 0.41689 0.13821 0.61614 0.0
C205 C 0.46246 0.15472 0.67302 0.0
O206 O 0.49186 0.1695 0.66355 0.0
N207 N 0.39486 0.11152 0.62759 0.0
C208 C 0.38537 0.08185 0.65124 0.0
C209 C 0.41172 0.10023 0.64972 0.0
C210 C 0.3591 0.09937 0.61558 0.0
N211 N 0.35217 0.0813 0.62973 0.0
O212 O 0.35149 0.14887 0.62243 0.0
H213 H 0.44171 0.10489 0.66379 0.0
H214 H 0.33867 0.10363 0.59672 0.0
O215 O 0.43616 0.14379 0.65576 0.0
C216 C 0.33166 0.14815 0.59781 0.0
O217 O 0.35861 0.14163 0.57634 0.0
N218 N 0.47876 0.12705 0.60606 0.0
C219 C 0.55811 0.12004 0.56917 0.0
C220 C 0.56541 0.131 0.59482 0.0
C221 C 0.52501 0.13438 0.61309 0.0
C222 C 0.4724 0.11461 0.58283 0.0
C223 C 0.51143 0.11086 0.5642 0.0
H224 H 0.53015 0.14449 0.63108 0.0
H225 H 0.43539 0.10958 0.57673 0.0
H226 H 0.4168 0.18711 0.63609 0.0
H227 H 0.48859 0.19596 0.55778 0.0
H228 H 0.39102 0.06963 0.66665 0.0
H229 H 0.6011 0.13807 0.59983 0.0
H230 H 0.50337 0.10256 0.54466 0.0
C231 C 0.03883 0.8718 0.56723 0.0
C232 C 0.03282 0.85067 0.56426 0.0
N233 N 0.05168 0.84133 0.58746 0.0
N234 N 0.06049 0.87609 0.5925 0.0
C235 C 0.06986 0.85708 0.60373 0.0
H236 H 0.02692 0.88324 0.55197 0.0
Co237 Co 0.07437 0.90297 0.6077 0.0
C238 C 0.01641 0.88148 0.65511 0.0
O239 O 0.99305 0.86877 0.63764 0.0
N240 N 0.08973 0.92971 0.62204 0.0
C241 C 0.09776 0.95797 0.64921 0.0
C242 C 0.0747 0.93887 0.64639 0.0
C243 C 0.12118 0.94375 0.61026 0.0
N244 N 0.12704 0.96103 0.62644 0.0
O245 O 0.13948 0.89384 0.61804 0.0
H246 H 0.04891 0.93215 0.66137 0.0
H247 H 0.14038 0.94118 0.59043 0.0
O248 O 0.0473 0.89498 0.64544 0.0
C249 C 0.16374 0.89638 0.5951 0.0
O250 O 0.13988 0.90291 0.57244 0.0
N251 N 0.01326 0.91297 0.59388 0.0
C252 C 0.93859 0.91516 0.55332 0.0
C253 C 0.92807 0.90759 0.5805 0.0
C254 C 0.96596 0.90714 0.60095 0.0
C255 C 0.02179 0.92324 0.56908 0.0
C256 C 0.98471 0.92458 0.54836 0.0
H257 H 0.95753 0.90076 0.62134 0.0
H258 H 0.05928 0.92799 0.56374 0.0
H259 H 0.08751 0.85494 0.62419 0.0
H260 H 0.0137 0.84291 0.54692 0.0
H261 H 0.09307 0.96884 0.66661 0.0
H262 H 0.8921 0.90071 0.58517 0.0
H263 H -0.00608 0.93065 0.52761 0.0
C264 C 0.56263 0.69764 0.15969 0.0
C265 C 0.54312 0.71739 0.15846 0.0
N266 N 0.53432 0.72201 0.13108 0.0
N267 N 0.56612 0.68966 0.13321 0.0
C268 C 0.54895 0.70503 0.11622 0.0
H269 H 0.57357 0.68959 0.17882 0.0
Co270 Co 0.59142 0.66311 0.1243 0.0
C271 C 0.54162 0.63565 0.16931 0.0
O272 O 0.5501 0.61741 0.15767 0.0
N273 N 0.61857 0.63657 0.11525 0.0
C274 C 0.65151 0.61105 0.08922 0.0
C275 C 0.62349 0.62885 0.08867 0.0
C276 C 0.6448 0.62304 0.1316 0.0
N277 N 0.66489 0.60733 0.11621 0.0
O278 O 0.64579 0.66833 0.1499 0.0
H279 H 0.61008 0.63609 0.06956 0.0
H280 H 0.65079 0.6251 0.15417 0.0
O281 O 0.5551 0.65234 0.15687 0.0
C282 C 0.69251 0.67042 0.1462 0.0
O283 O 0.721 0.67346 0.16859 0.0
N284 N 0.53758 0.65863 0.09855 0.0
C285 C 0.46363 0.65486 0.05659 0.0
C286 C 0.45533 0.64771 0.08431 0.0
C287 C 0.49263 0.6498 0.10499 0.0
C288 C 0.54599 0.66579 0.07174 0.0
C289 C 0.50983 0.66397 0.05047 0.0
H290 H 0.48451 0.64445 0.12605 0.0
H291 H 0.58118 0.67307 0.06671 0.0
H292 H 0.54778 0.70403 0.09336 0.0
H293 H 0.53511 0.72739 0.1764 0.0
H294 H 0.66193 0.60168 0.07105 0.0
H295 H 0.42029 0.64046 0.09003 0.0
H296 H 0.51772 0.67006 0.02956 0.0
C297 C 0.87475 0.38959 0.06576 0.0
C298 C 0.88563 0.36911 0.06007 0.0
N299 N 0.9177 0.36224 0.07999 0.0
N300 N 0.89965 0.39575 0.08923 0.0
C301 C 0.92542 0.37868 0.09756 0.0
H302 H 0.85161 0.39963 0.05294 0.0
Co303 Co 0.90147 0.42349 0.10157 0.0
C304 C 0.95907 0.42247 0.1559 0.0
O305 O 0.98244 0.4399 0.15001 0.0
N306 N 0.90298 0.45241 0.11358 0.0
C307 C 0.92297 0.48622 0.11473 0.0
C308 C 0.93882 0.46663 0.10753 0.0
C309 C 0.86616 0.46412 0.12543 0.0
N310 N 0.87696 0.48471 0.12568 0.0
O311 O 0.83514 0.42014 0.11515 0.0
H312 H 0.97412 0.46336 0.09755 0.0
H313 H 0.83054 0.458 0.13211 0.0
O314 O 0.92821 0.41466 0.13806 0.0
C315 C 0.80674 0.4279 0.09623 0.0
O316 O 0.82701 0.4388 0.07574 0.0
N317 N 0.96268 0.42603 0.08393 0.0
C318 C 0.03402 0.42383 0.04109 0.0
C319 C 0.04497 0.41686 0.06882 0.0
C320 C 0.00821 0.41773 0.08996 0.0
C321 C 0.95225 0.4335 0.05763 0.0
C322 C 0.98694 0.43249 0.03601 0.0
H323 H 0.01543 0.4107 0.11032 0.0
H324 H 0.91523 0.43914 0.05295 0.0
H325 H 0.95151 0.37861 0.11514 0.0
H326 H 0.87179 0.36008 0.04225 0.0
H327 H 0.94303 0.50061 0.11111 0.0
H328 H 0.08079 0.41012 0.07396 0.0
H329 H 0.97537 0.4374 1.01508 0.0
C330 C 0.02825 0.38003 0.44678 0.0
C331 C 0.01905 0.35931 0.45159 0.0
N332 N 0.0384 0.34813 0.43002 0.0
N333 N 0.05233 0.38222 0.4219 0.0
C334 C 0.0598 0.36243 0.41282 0.0
H335 H 0.01698 0.39271 0.46044 0.0
Co336 Co 0.07151 0.40777 0.40511 0.0
C337 C 0.01727 0.38594 0.35561 0.0
O338 O 0.99269 0.37239 0.37099 0.0
N339 N 0.0911 0.43322 0.38862 0.0
C340 C 0.08829 0.46196 0.3626 0.0
C341 C 0.06369 0.44395 0.36965 0.0
C342 C 0.13218 0.44519 0.39296 0.0
N343 N 0.13162 0.46279 0.3772 0.0
O344 O 0.13544 0.39623 0.39763 0.0
H345 H 0.02747 0.43917 0.36178 0.0
H346 H 0.16192 0.44113 0.40739 0.0
O347 O 0.04635 0.39924 0.36747 0.0
C348 C 0.15746 0.39942 0.42129 0.0
O349 O 0.13349 0.40928 0.44154 0.0
N350 N 0.01139 0.41991 0.41632 0.0
C351 C 0.93653 0.42964 0.45474 0.0
C352 C 0.92575 0.41791 0.43018 0.0
C353 C 0.96393 0.41323 0.41102 0.0
C354 C 0.02093 0.43339 0.43809 0.0
C355 C 0.98405 0.4385 0.45755 0.0
H356 H 0.9559 0.40282 0.39372 0.0
H357 H 0.0588 0.43836 0.4423 0.0
H358 H 0.07923 0.3587 0.39339 0.0
H359 H -0.00212 0.35315 0.46916 0.0
H360 H 0.07444 0.47375 0.34831 0.0
H361 H 0.88908 0.41119 0.42685 0.0
H362 H -0.00571 0.44757 0.47612 0.0
C363 C 0.4046 0.67088 0.45942 0.0
C364 C 0.41363 0.69187 0.45881 0.0
N365 N 0.43103 0.69698 0.43293 0.0
N366 N 0.41593 0.66245 0.43407 0.0
C367 C 0.43211 0.67873 0.41829 0.0
H368 H 0.39267 0.66217 0.47775 0.0
Co369 Co 0.41451 0.63357 0.42813 0.0
C370 C 0.45686 0.62597 0.37147 0.0
O371 O 0.48082 0.60986 0.38179 0.0
N372 N 0.41165 0.60392 0.42288 0.0
C373 C 0.41649 0.56947 0.42858 0.0
C374 C 0.43699 0.58842 0.4359 0.0
C375 C 0.37674 0.59367 0.40719 0.0
N376 N 0.37829 0.57281 0.41066 0.0
O377 O 0.34469 0.63493 0.42052 0.0
H378 H 0.46773 0.59037 0.45045 0.0
H379 H 0.34887 0.60144 0.39445 0.0
O380 O 0.43013 0.63722 0.38788 0.0
C381 C 0.32489 0.63082 0.44438 0.0
O382 O 0.35392 0.62688 0.46618 0.0
N383 N 0.4809 0.63286 0.43962 0.0
C384 C 0.56601 0.64023 0.47223 0.0
C385 C 0.56474 0.64586 0.44344 0.0
C386 C 0.52137 0.64211 0.42737 0.0
C387 C 0.48174 0.6277 0.46759 0.0
C388 C 0.52403 0.63075 0.48406 0.0
H389 H 0.51929 0.64799 0.40597 0.0
H390 H 0.44826 0.62193 0.47757 0.0
H391 H 0.44573 0.6771 0.39683 0.0
H392 H 0.40986 0.7023 0.47674 0.0
H393 H 0.42831 0.55442 0.43629 0.0
H394 H 0.59619 0.65368 0.43378 0.0
H395 H 0.52274 0.62683 0.50638 0.0
C396 C 0.42094 0.37655 0.94559 0.0
C397 C 0.43469 0.35607 0.94592 0.0
N398 N 0.43816 0.34929 0.91894 0.0
N399 N 0.41544 0.38294 0.91853 0.0
C400 C 0.42584 0.36584 0.90261 0.0
H401 H 0.41688 0.38644 0.96405 0.0
Co402 Co 0.40249 0.41114 0.91045 0.0
C403 C 0.45572 0.41789 0.85595 0.0
O404 O 0.47889 0.43401 0.86694 0.0
N405 N 0.38854 0.44026 0.90332 0.0
C406 C 0.39311 0.47507 0.90158 0.0
C407 C 0.41961 0.45694 0.90473 0.0
C408 C 0.34312 0.4491 0.89932 0.0
N409 N 0.34471 0.47015 0.8983 0.0
O410 O 0.33561 0.40387 0.89964 0.0
H411 H 0.45925 0.45633 0.90877 0.0
H412 H 0.30891 0.44043 0.89845 0.0
O413 O 0.42571 0.40719 0.87113 0.0
C414 C 0.3127 0.4018 0.92314 0.0
O415 O 0.33735 0.40557 0.94676 0.0
N416 N 0.46539 0.41749 0.92493 0.0
C417 C 0.54283 0.41634 0.96425 0.0
C418 C 0.54799 0.40667 0.93763 0.0
C419 C 0.50856 0.40745 0.91807 0.0
C420 C 0.46067 0.42741 0.95038 0.0
C421 C 0.49924 0.42743 0.97006 0.0
H422 H 0.51082 0.39829 0.89882 0.0
H423 H 0.42509 0.43393 0.9564 0.0
H424 H 0.42649 0.36573 0.87966 0.0
H425 H 0.44219 0.3469 0.96467 0.0
H426 H 0.40841 0.49067 0.90212 0.0
H427 H 0.58103 0.39775 0.93261 0.0
H428 H 0.4933 0.43463 0.9906 0.0
C429 C 0.07548 0.67847 0.96654 0.0
C430 C 0.06651 0.69947 0.96636 0.0
N431 N 0.04465 0.70451 0.9415 0.0
N432 N 0.0601 0.66999 0.94183 0.0
C433 C 0.04174 0.68629 0.92685 0.0
H434 H 0.09104 0.66984 0.98408 0.0
Co435 Co 0.06148 0.64103 0.9354 0.0
C436 C 0.00708 0.6349 0.8819 0.0
O437 O 0.98124 0.62078 0.89547 0.0
N438 N 0.0643 0.61105 0.92935 0.0
C439 C 0.04714 0.57693 0.92788 0.0
C440 C 0.02949 0.59626 0.93496 0.0
C441 C 0.10321 0.59978 0.91891 0.0
N442 N 0.09363 0.5791 0.91789 0.0
O443 O 0.13141 0.64329 0.92693 0.0
H444 H 0.99241 0.59899 0.94289 0.0
H445 H 0.13796 0.6065 0.91178 0.0
O446 O 0.04166 0.6449 0.89505 0.0
C447 C 0.15132 0.63957 0.95107 0.0
O448 O 0.12229 0.63307 0.97166 0.0
N449 N -0.00459 0.63984 0.94863 0.0
C450 C 0.91072 0.6446 0.98273 0.0
C451 C 0.91321 0.6538 0.9557 0.0
C452 C 0.95595 0.65127 0.93899 0.0
C453 C -0.0063 0.63107 0.97486 0.0
C454 C 0.95121 0.63237 0.99153 0.0
H455 H 0.9584 0.65965 0.91924 0.0
H456 H 0.02616 0.62317 0.98314 0.0
H457 H 0.02455 0.68466 0.90616 0.0
H458 H 0.07509 0.71008 0.98357 0.0
H459 H 0.02737 0.56232 0.93019 0.0
H460 H 0.88387 0.66388 0.94807 0.0
H461 H 0.95129 0.62437 1.01168 0.0
C462 C 0.97097 0.66097 0.57952 0.0
C463 C 0.98471 0.68128 0.5747 0.0
N464 N 0.97122 0.69286 0.59731 0.0
N465 N 0.94953 0.65949 0.60527 0.0
C466 C 0.94905 0.67929 0.61527 0.0
H467 H 0.97706 0.648 0.56527 0.0
Co468 Co 0.92583 0.63453 0.62142 0.0
C469 C 0.97295 0.65452 0.67592 0.0
O470 O 0.00619 0.66731 0.66526 0.0
N471 N 0.90192 0.60947 0.63762 0.0
C472 C 0.89956 0.58146 0.66509 0.0
C473 C 0.92577 0.59914 0.65847 0.0
C474 C 0.86124 0.59754 0.63176 0.0
N475 N 0.85867 0.5804 0.6484 0.0
O476 O 0.86188 0.64688 0.6255 0.0
H477 H 0.96071 0.60397 0.66801 0.0
H478 H 0.83409 0.6013 0.61563 0.0
O479 O 0.94536 0.64333 0.6597 0.0
C480 C 0.84276 0.64351 0.60109 0.0
O481 O 0.86871 0.63313 0.58216 0.0
N482 N 0.98648 0.62164 0.61342 0.0
C483 C 0.06385 0.61134 0.57695 0.0
C484 C 0.07265 0.6241 0.6008 0.0
C485 C 0.03317 0.62912 0.61891 0.0
C486 C 0.97892 0.60724 0.59251 0.0
C487 C 0.01709 0.60181 0.57408 0.0
H488 H 0.0393 0.64064 0.63508 0.0
H489 H 0.94155 0.60187 0.58777 0.0
H490 H 0.93265 0.68366 0.63535 0.0
H491 H 0.0045 0.6869 0.55628 0.0
H492 H 0.91069 0.57002 0.68064 0.0
H493 H 0.10859 0.63146 0.60414 0.0
H494 H 0.0082 0.59202 0.55598 0.0
C495 C 0.60011 0.36846 0.57042 0.0
C496 C 0.58814 0.3477 0.57106 0.0
N497 N 0.55979 0.34412 0.59406 0.0
N498 N 0.57983 0.37817 0.59299 0.0
C499 C 0.55555 0.36285 0.60717 0.0
H500 H 0.6208 0.37608 0.5538 0.0
Co501 Co 0.58122 0.40728 0.59727 0.0
C502 C 0.5346 0.41685 0.65255 0.0
O503 O 0.51539 0.43379 0.64158 0.0
N504 N 0.58423 0.43713 0.60074 0.0
C505 C 0.58173 0.47121 0.59155 0.0
C506 C 0.56155 0.45203 0.58512 0.0
C507 C 0.61736 0.448 0.61696 0.0
N508 N 0.61718 0.46865 0.61145 0.0
O509 O 0.65024 0.40606 0.60743 0.0
H510 H 0.53317 0.44944 0.56925 0.0
H511 H 0.64318 0.44074 0.63154 0.0
O512 O 0.56072 0.40464 0.63712 0.0
C513 C 0.67238 0.41003 0.58418 0.0
O514 O 0.64551 0.41377 0.56144 0.0
N515 N 0.51616 0.40787 0.58338 0.0
C516 C 0.43317 0.40083 0.54897 0.0
C517 C 0.43094 0.39685 0.57824 0.0
C518 C 0.47323 0.40048 0.59526 0.0
C519 C 0.51867 0.41138 0.55496 0.0
C520 C 0.47749 0.40848 0.53753 0.0
H521 H 0.4722 0.39607 0.61732 0.0
H522 H 0.55371 0.41588 0.54554 0.0
H523 H 0.53308 0.36552 0.62584 0.0
H524 H 0.59889 0.33617 0.55545 0.0
H525 H 0.5717 0.48587 0.58187 0.0
H526 H 0.39743 0.39049 0.58764 0.0
H527 H 0.48114 0.41117 0.51494 0.0
H528 H 0.33059 0.1589 0.98427 0.0
H529 H 0.38666 0.0982 1.00818 0.0
H530 H 0.32886 0.09737 0.0485 0.0
H531 H 0.32228 0.18001 0.04764 0.0
H532 H 0.26382 0.19358 0.04433 0.0
H533 H 0.29962 0.18774 1.01318 0.0
H534 H 0.22448 0.16817 0.99087 0.0
H535 H 0.18781 0.17437 0.02178 0.0
H536 H 0.19428 0.14769 1.0105 0.0
H537 H 0.28989 0.10816 0.09289 0.0
H538 H 0.25222 0.12598 0.13392 0.0
H539 H 0.20663 0.1769 0.08005 0.0
C540 C 0.32863 0.145 0.99711 0.0
C541 C 0.36342 0.12871 0.99333 0.0
C542 C 0.36067 0.11093 1.01092 0.0
C543 C 0.32786 0.11028 0.03384 0.0
C544 C 0.29669 0.12723 0.03836 0.0
C545 C 0.29497 0.1439 0.01989 0.0
C546 C 0.2607 0.1608 0.03126 0.0
C547 C 0.28829 0.18176 0.03428 0.0
C548 C 0.21404 0.16288 1.01248 0.0
C549 C 0.24742 0.15181 0.06002 0.0
C550 C 0.26874 0.1324 0.06355 0.0
C551 C 0.27051 0.12274 0.08993 0.0
C552 C 0.2493 0.13298 0.11313 0.0
C553 C 0.22437 0.15212 0.10964 0.0
C554 C 0.22316 0.16168 0.08275 0.0
H555 H 0.09342 0.89453 0.99385 0.0
H556 H 0.05775 0.9605 0.99801 0.0
H557 H 0.10966 0.964 0.04064 0.0
H558 H 0.10963 0.88451 0.07011 0.0
H559 H 0.16364 0.86838 0.06452 0.0
H560 H 0.11539 0.86957 0.03782 0.0
H561 H 0.1802 0.8807 0.99998 0.0
H562 H 0.22845 0.87881 0.02635 0.0
H563 H 0.22015 0.90275 1.0071 0.0
H564 H 0.16996 0.96153 0.08025 0.0
H565 H 0.24937 0.95556 0.1053 0.0
H566 H 0.25404 0.8927 0.07216 0.0
C567 C 0.09628 0.90979 1.00349 0.0
C568 C 0.0698 0.92707 0.99264 0.0
C569 C 0.07552 0.9467 1.0063 0.0
C570 C 0.10504 0.9489 0.03069 0.0
C571 C 0.12963 0.93146 0.04104 0.0
C572 C 0.1268 0.91243 0.02737 0.0
C573 C 0.1636 0.89711 0.03978 0.0
C574 C 0.13642 0.87881 0.0539 0.0
C575 C 0.20028 0.88941 0.01696 0.0
C576 C 0.18908 0.91082 0.06172 0.0
C577 C 0.16732 0.9303 0.06297 0.0
C578 C 0.18687 0.94625 0.07982 0.0
C579 C 0.23179 0.94269 0.0942 0.0
C580 C 0.25688 0.92353 0.09102 0.0
C581 C 0.23421 0.90713 0.07575 0.0
H582 H 0.73137 0.93105 0.43662 0.0
H583 H 0.72748 0.86406 0.4282 0.0
H584 H 0.80734 0.86167 0.45425 0.0
H585 H 0.87706 0.93707 0.43864 0.0
H586 H 0.87018 0.95779 0.46425 0.0
H587 H 0.82399 0.95416 0.43671 0.0
H588 H 0.75648 0.95271 0.47556 0.0
H589 H 0.80225 0.95482 0.50329 0.0
H590 H 0.76009 0.93292 0.50253 0.0
H591 H 0.86971 0.86574 0.49254 0.0
H592 H 0.92057 0.87632 0.53402 0.0
H593 H 0.88576 0.94102 0.51803 0.0
C594 C 0.74956 0.91607 0.43846 0.0
C595 C 0.72457 0.89776 0.42983 0.0
C596 C 0.7473 0.87823 0.43379 0.0
C597 C 0.79233 0.87677 0.44887 0.0
C598 C 0.814 0.89505 0.4594 0.0
C599 C 0.79428 0.91445 0.45357 0.0
C600 C 0.8199 0.93137 0.47088 0.0
C601 C 0.84961 0.94596 0.45147 0.0
C602 C 0.78242 0.94365 0.48913 0.0
C603 C 0.85421 0.9183 0.48905 0.0
C604 C 0.85073 0.89743 0.48178 0.0
C605 C 0.87401 0.88206 0.4978 0.0
C606 C 0.90211 0.88816 0.52152 0.0
C607 C 0.90663 0.90942 0.52902 0.0
C608 C 0.88298 0.9247 0.51242 0.0
H609 H 0.77038 0.16982 0.47322 0.0
H610 H 0.76664 0.11372 0.4222 0.0
H611 H 0.69283 0.10147 0.44871 0.0
H612 H 0.7491 0.14793 0.53524 0.0
H613 H 0.70926 0.16745 0.55068 0.0
H614 H 0.75308 0.1746 0.52364 0.0
H615 H 0.68263 0.18973 0.4923 0.0
H616 H 0.63856 0.18356 0.51982 0.0
H617 H 0.62856 0.17402 0.48422 0.0
H618 H 0.63314 0.0921 0.48785 0.0
H619 H 0.58024 0.08915 0.53036 0.0
H620 H 0.62051 0.15232 0.55463 0.0
C621 C 0.75171 0.15567 0.46639 0.0
C622 C 0.77287 0.143 0.44515 0.0
C623 C 0.74955 0.12399 0.43764 0.0
C624 C 0.70812 0.11678 0.45293 0.0
C625 C 0.69019 0.12903 0.47519 0.0
C626 C 0.71012 0.14844 0.48123 0.0
C627 C 0.68726 0.15772 0.50777 0.0
C628 C 0.72706 0.16217 0.53066 0.0
C629 C 0.65747 0.17742 0.50059 0.0
C630 C 0.65318 0.14011 0.51652 0.0
C631 C 0.6553 0.12371 0.4975 0.0
C632 C 0.62995 0.10512 0.50237 0.0
C633 C 0.60014 0.10357 0.5267 0.0
C634 C 0.59559 0.12056 0.54588 0.0
C635 C 0.62321 0.13893 0.5407 0.0
H636 H 0.74011 0.93644 0.93371 0.0
H637 H 0.76057 0.86977 0.93171 0.0
H638 H 0.68654 0.86533 0.96231 0.0
H639 H 0.72093 0.94015 1.00249 0.0
H640 H 0.67554 0.96078 1.00172 0.0
H641 H 0.71931 0.95804 0.97323 0.0
H642 H 0.64501 0.9551 0.9364 0.0
H643 H 0.60313 0.95911 0.96578 0.0
H644 H 0.59592 0.93664 0.94307 0.0
H645 H 0.62444 0.86898 1.00207 0.0
H646 H 0.57207 0.87988 0.04242 0.0
H647 H 0.59637 0.94461 0.02027 0.0
C648 C 0.72671 0.92087 0.93808 0.0
C649 C 0.75477 0.9034 0.92969 0.0
C650 C 0.73818 0.88324 0.937 0.0
C651 C 0.69661 0.88065 0.95476 0.0
C652 C 0.67215 0.8984 0.96472 0.0
C653 C 0.68584 0.91813 0.956 0.0
C654 C 0.65893 0.93481 0.97276 0.0
C655 C 0.69587 0.94929 0.98845 0.0
C656 C 0.62365 0.94716 0.95337 0.0
C657 C 0.63005 0.92149 0.99336 0.0
C658 C 0.6375 0.90053 0.98818 0.0
C659 C 0.6176 0.88534 1.00591 0.0
C660 C 0.5886 0.89172 0.02911 0.0
C661 C 0.58017 0.91314 0.03466 0.0
C662 C 0.6014 0.92812 0.01643 0.0
H663 H 0.68733 0.1688 0.99483 0.0
H664 H 0.73148 0.14008 0.91551 0.0
H665 H 0.82021 0.14164 0.93113 0.0
H666 H 0.79806 0.2029 1.00445 0.0
H667 H 0.79776 0.19902 0.0423 0.0
H668 H 0.74002 0.19837 0.02262 0.0
H669 H 0.72107 0.1618 0.04301 0.0
H670 H 0.77902 0.16212 0.06231 0.0
H671 H 0.76551 0.14112 0.03796 0.0
H672 H 0.90326 0.14271 0.95901 0.0
H673 H 0.9714 0.1444 0.99453 0.0
H674 H 0.86998 0.17228 0.05518 0.0
C675 C 0.71579 0.16334 0.98035 0.0
C676 C 0.70277 0.15447 0.95388 0.0
C677 C 0.74087 0.14729 0.93565 0.0
C678 C 0.79123 0.148 0.9445 0.0
C679 C 0.8025 0.15614 0.97139 0.0
C680 C 0.76564 0.16396 0.98881 0.0
C681 C 0.78607 0.17052 0.01745 0.0
C682 C 0.78014 0.19411 0.02196 0.0
C683 C 0.76146 0.15815 0.04159 0.0
C684 C 0.84018 0.16466 1.01398 0.0
C685 C 0.84931 0.15657 0.98725 0.0
C686 C 0.89647 0.1493 0.9798 0.0
C687 C 0.935 0.15036 1.00014 0.0
C688 C 0.92616 0.15847 0.02774 0.0
C689 C 0.87803 0.16581 0.03445 0.0
H690 H 0.10962 0.11048 0.50689 0.0
H691 H 0.09062 0.17495 0.48205 0.0
H692 H 0.14693 0.18604 0.52075 0.0
H693 H 0.11808 0.12032 0.58451 0.0
H694 H 0.16489 0.10057 0.58938 0.0
H695 H 0.11883 0.09776 0.56164 0.0
H696 H 0.1888 0.09391 0.52408 0.0
H697 H 0.23453 0.09613 0.55187 0.0
H698 H 0.23674 0.11359 0.52204 0.0
H699 H 0.21211 0.18987 0.55852 0.0
H700 H 0.28756 0.18537 0.58823 0.0
H701 H 0.2607 0.11901 0.59062 0.0
C702 C 0.11682 0.12695 0.50984 0.0
C703 C 0.09604 0.14181 0.49126 0.0
C704 C 0.1069 0.16321 0.49562 0.0
C705 C 0.13817 0.16971 0.51788 0.0
C706 C 0.15791 0.15468 0.53588 0.0
C707 C 0.14789 0.13372 0.53201 0.0
C708 C 0.17744 0.12056 0.55262 0.0
C709 C 0.14272 0.10913 0.57326 0.0
C710 C 0.2114 0.10516 0.5367 0.0
C711 C 0.20728 0.13733 0.5678 0.0
C712 C 0.19467 0.15697 0.55832 0.0
C713 C 0.22138 0.17466 0.56674 0.0
C714 C 0.26378 0.17205 0.58394 0.0
C715 C 0.27871 0.15196 0.59242 0.0
C716 C 0.2488 0.1346 0.58535 0.0
H717 H 0.23085 0.92643 0.58637 0.0
H718 H 0.214 0.85976 0.59375 0.0
H719 H 0.29355 0.85475 0.56821 0.0
H720 H 0.26212 0.92704 0.52002 0.0
H721 H 0.30759 0.94776 0.52055 0.0
H722 H 0.26001 0.94688 0.54718 0.0
H723 H 0.3261 0.94686 0.58723 0.0
H724 H 0.37441 0.9486 0.56082 0.0
H725 H 0.37567 0.92797 0.58662 0.0
H726 H 0.36019 0.85697 0.53158 0.0
H727 H 0.41613 0.86612 0.49202 0.0
H728 H 0.38925 0.93166 0.50774 0.0
C729 C 0.24596 0.91088 0.58432 0.0
C730 C 0.2176 0.89346 0.5927 0.0
C731 C 0.23645 0.87322 0.58841 0.0
C732 C 0.28128 0.8703 0.57363 0.0
C733 C 0.30665 0.88782 0.56367 0.0
C734 C 0.2904 0.90779 0.56955 0.0
C735 C 0.31966 0.92388 0.55299 0.0
C736 C 0.28527 0.93714 0.53408 0.0
C737 C 0.35083 0.93764 0.57312 0.0
C738 C 0.35259 0.90981 0.53542 0.0
C739 C 0.34508 0.8891 0.54217 0.0
C740 C 0.36735 0.87314 0.52668 0.0
C741 C 0.39844 0.87848 0.50398 0.0
C742 C 0.40681 0.8996 0.49684 0.0
C743 C 0.38398 0.91542 0.51302 0.0
H744 H 0.78788 0.6591 0.13501 0.0
H745 H 0.65061 0.67769 0.09398 0.0
H746 H 0.68923 0.67179 0.04681 0.0
H747 H 0.86942 0.68496 0.08623 0.0
H748 H 0.91638 0.66501 0.08843 0.0
H749 H 0.87609 0.66986 0.11817 0.0
H750 H 0.84981 0.63099 0.11788 0.0
H751 H 0.8889 0.62594 0.08764 0.0
H752 H 0.82328 0.61981 0.08609 0.0
H753 H 0.74449 0.6623 1.00404 0.0
H754 H 0.81159 0.65362 0.97025 0.0
H755 H 0.91409 0.64607 0.04119 0.0
C756 C 0.76589 0.66201 0.11612 0.0
C757 C 0.71563 0.66816 0.11796 0.0
C758 C 0.68847 0.67212 0.0928 0.0
C759 C 0.71031 0.66899 0.06604 0.0
C760 C 0.75982 0.66241 0.06499 0.0
C761 C 0.78738 0.65936 0.08946 0.0
C762 C 0.84028 0.65309 0.08294 0.0
C763 C 0.87774 0.6692 0.09463 0.0
C764 C 0.85124 0.63116 0.09432 0.0
C765 C 0.83856 0.65321 0.05092 0.0
C766 C 0.79179 0.65826 0.04081 0.0
C767 C 0.78143 0.65858 1.01179 0.0
C768 C 0.82003 0.65376 0.99271 0.0
C769 C 0.86873 0.64901 1.0027 0.0
C770 C 0.87752 0.64897 0.03235 0.0
H771 H 0.72915 0.45255 0.08461 0.0
H772 H 0.77186 0.38814 0.09445 0.0
H773 H 0.70049 0.37728 0.06448 0.0
H774 H 0.5866 0.44281 0.07698 0.0
H775 H 0.58318 0.46344 0.05125 0.0
H776 H 0.62699 0.46518 0.0803 0.0
H777 H 0.69784 0.47072 0.04398 0.0
H778 H 0.65522 0.46798 1.01475 0.0
H779 H 0.70881 0.4512 0.01712 0.0
H780 H 0.64045 0.37464 0.02339 0.0
H781 H 0.58501 0.37979 0.98184 0.0
H782 H 0.58262 0.44613 0.99891 0.0
C783 C 0.72116 0.43611 0.08207 0.0
C784 C 0.75509 0.42114 0.09205 0.0
C785 C 0.74527 0.39975 0.08755 0.0
C786 C 0.70519 0.3935 0.07023 0.0
C787 C 0.67499 0.40885 0.05833 0.0
C788 C 0.68137 0.42972 0.06494 0.0
C789 C 0.64858 0.4434 0.04672 0.0
C790 C 0.60897 0.45435 0.0649 0.0
C791 C 0.67949 0.45924 0.02965 0.0
C792 C 0.62527 0.42717 0.02756 0.0
C793 C 0.64042 0.40731 0.03467 0.0
C794 C 0.62725 0.39006 0.01815 0.0
C795 C 0.59655 0.39316 0.99434 0.0
C796 C 0.57969 0.41336 0.98728 0.0
C797 C 0.59455 0.4305 1.00408 0.0
H798 H 0.23792 0.42381 0.42686 0.0
H799 H 0.18613 0.36033 0.43478 0.0
H800 H 0.25682 0.35263 0.46697 0.0
H801 H 0.37752 0.41318 0.43522 0.0
H802 H 0.38475 0.4369 0.45541 0.0
H803 H 0.33875 0.43534 0.4275 0.0
H804 H 0.2708 0.44655 0.46357 0.0
H805 H 0.31647 0.44753 0.49153 0.0
H806 H 0.2618 0.43139 0.49522 0.0
H807 H 0.32074 0.35446 0.50648 0.0
H808 H 0.3828 0.36388 0.5436 0.0
H809 H 0.39114 0.42643 0.50986 0.0
C810 C 0.24364 0.40794 0.43382 0.0
C811 C 0.20798 0.39242 0.4277 0.0
C812 C 0.21448 0.37211 0.4384 0.0
C813 C 0.25405 0.36774 0.45704 0.0
C814 C 0.28664 0.38388 0.46443 0.0
C815 C 0.28268 0.40344 0.45245 0.0
C816 C 0.31825 0.41879 0.46627 0.0
C817 C 0.35714 0.42649 0.44482 0.0
C818 C 0.29013 0.43713 0.47994 0.0
C819 C 0.3416 0.40504 0.48855 0.0
C820 C 0.32302 0.38496 0.48725 0.0
C821 C 0.33638 0.37 0.50726 0.0
C822 C 0.37094 0.37554 0.52851 0.0
C823 C 0.39154 0.39583 0.52946 0.0
C824 C 0.37617 0.41075 0.50939 0.0
H825 H 0.2651 0.65734 0.47169 0.0
H826 H 0.26925 0.59707 0.43068 0.0
H827 H 0.19559 0.58596 0.45815 0.0
H828 H 0.24698 0.64079 0.536 0.0
H829 H 0.20467 0.66044 0.54876 0.0
H830 H 0.24679 0.66637 0.52037 0.0
H831 H 0.17377 0.677 0.4875 0.0
H832 H 0.13117 0.67213 0.51624 0.0
H833 H 0.12187 0.65945 0.48243 0.0
H834 H 0.13698 0.5788 0.49836 0.0
H835 H 0.08664 0.57811 0.54215 0.0
H836 H 0.12006 0.6435 0.5564 0.0
C837 C 0.24799 0.6424 0.46703 0.0
C838 C 0.27135 0.62827 0.44851 0.0
C839 C 0.25037 0.60833 0.44399 0.0
C840 C 0.209 0.60183 0.45983 0.0
C841 C 0.18906 0.61561 0.47971 0.0
C842 C 0.20677 0.63577 0.48266 0.0
C843 C 0.18325 0.64668 0.50779 0.0
C844 C 0.2228 0.65398 0.52949 0.0
C845 C 0.15055 0.66489 0.49789 0.0
C846 C 0.15192 0.62916 0.51953 0.0
C847 C 0.15534 0.61143 0.50297 0.0
C848 C 0.13279 0.59279 0.51099 0.0
C849 C 0.10459 0.59251 0.53601 0.0
C850 C 0.09927 0.61074 0.55279 0.0
C851 C 0.12375 0.6292 0.54437 0.0
H852 H 0.26566 0.37696 0.95993 0.0
H853 H 0.23847 0.42177 0.89337 0.0
H854 H 0.15702 0.43013 0.91467 0.0
H855 H 0.12529 0.36129 0.96934 0.0
H856 H 0.13601 0.35808 1.00685 0.0
H857 H 0.18449 0.35172 0.98189 0.0
H858 H 0.24413 0.37642 1.00923 0.0
H859 H 0.19565 0.38377 0.03339 0.0
H860 H 0.22776 0.40348 1.01333 0.0
H861 H 0.09594 0.44147 0.95143 0.0
H862 H 0.04486 0.44835 0.99344 0.0
H863 H 0.10445 0.39285 0.03357 0.0
C864 C 0.24101 0.38752 0.94884 0.0
C865 C 0.25849 0.39907 0.92548 0.0
C866 C 0.22605 0.41301 0.91156 0.0
C867 C 0.17967 0.41785 0.92357 0.0
C868 C 0.16579 0.4078 0.94856 0.0
C869 C 0.19431 0.3921 0.96021 0.0
C870 C 0.17367 0.38513 0.98854 0.0
C871 C 0.15365 0.36273 0.98653 0.0
C872 C 0.21264 0.38735 1.0125 0.0
C873 C 0.1317 0.40054 0.99215 0.0
C874 C 0.12768 0.41343 0.96885 0.0
C875 C 0.09675 0.43076 0.96909 0.0
C876 C 0.0678 0.43453 0.99324 0.0
C877 C 0.06899 0.4208 0.01682 0.0
C878 C 0.10191 0.40365 0.01609 0.0
H879 H 0.18425 0.65425 1.00101 0.0
H880 H 0.23629 0.6351 0.91801 0.0
H881 H 0.32411 0.63878 0.93495 0.0
H882 H 0.28376 0.69201 0.01651 0.0
H883 H 0.28444 0.68525 0.05359 0.0
H884 H 0.22741 0.68316 0.03343 0.0
H885 H 0.2193 0.64449 0.04829 0.0
H886 H 0.27657 0.64633 0.06812 0.0
H887 H 0.26964 0.62677 0.04084 0.0
H888 H 0.4064 0.64159 0.96384 0.0
H889 H 0.47338 0.64445 1.00001 0.0
H890 H 0.36376 0.66195 0.06313 0.0
C891 C 0.21409 0.65112 0.98616 0.0
C892 C 0.20375 0.64437 0.95822 0.0
C893 C 0.24365 0.6405 0.93942 0.0
C894 C 0.29346 0.64246 0.94895 0.0
C895 C 0.30221 0.64857 0.97712 0.0
C896 C 0.26331 0.6531 0.99523 0.0
C897 C 0.28141 0.65843 0.02478 0.0
C898 C 0.2685 0.68106 0.03252 0.0
C899 C 0.26049 0.64309 0.04678 0.0
C900 C 0.33679 0.65568 0.02096 0.0
C901 C 0.34844 0.65015 0.99336 0.0
C902 C 0.39753 0.64615 0.98536 0.0
C903 C 0.43535 0.64785 1.00606 0.0
C904 C 0.42387 0.65337 0.03449 0.0
C905 C 0.37385 0.65744 0.04175 0.0
H906 H 0.61162 0.61471 0.51021 0.0
H907 H 0.61496 0.67765 0.47744 0.0
H908 H 0.67815 0.6873 0.51379 0.0
H909 H 0.62518 0.62776 0.58452 0.0
H910 H 0.66489 0.60584 0.59196 0.0
H911 H 0.61895 0.60412 0.56405 0.0
H912 H 0.68732 0.59422 0.52782 0.0
H913 H 0.73335 0.59543 0.5556 0.0
H914 H 0.74122 0.61081 0.52404 0.0
H915 H 0.74329 0.68943 0.55299 0.0
H916 H 0.81341 0.6823 0.58594 0.0
H917 H 0.7639 0.61845 0.59354 0.0
C918 C 0.62567 0.63054 0.5107 0.0
C919 C 0.60851 0.64546 0.49111 0.0
C920 C 0.62815 0.66594 0.4921 0.0
C921 C 0.66337 0.67161 0.51293 0.0
C922 C 0.67828 0.65663 0.53256 0.0
C923 C 0.66053 0.63643 0.53127 0.0
C924 C 0.6847 0.62281 0.55343 0.0
C925 C 0.64611 0.61466 0.57475 0.0
C926 C 0.71335 0.60477 0.53939 0.0
C927 C 0.71959 0.6384 0.56719 0.0
C928 C 0.71489 0.65794 0.55525 0.0
C929 C 0.74659 0.67433 0.56289 0.0
C930 C 0.7858 0.67028 0.58195 0.0
C931 C 0.79264 0.65006 0.59291 0.0
C932 C 0.758 0.63424 0.58634 0.0
H933 H 0.87975 0.39748 0.47455 0.0
H934 H 0.9161 0.46231 0.49096 0.0
H935 H 0.86499 0.46135 0.5345 0.0
H936 H 0.75386 0.40091 0.49389 0.0
H937 H 0.75183 0.37514 0.50885 0.0
H938 H 0.79557 0.38099 0.48124 0.0
H939 H 0.86723 0.36833 0.51407 0.0
H940 H 0.82348 0.36323 0.54217 0.0
H941 H 0.87589 0.3803 0.54841 0.0
H942 H 0.80395 0.45418 0.5737 0.0
H943 H 0.72856 0.44326 0.59979 0.0
H944 H 0.73288 0.38332 0.55791 0.0
C945 C 0.8767 0.41157 0.48711 0.0
C946 C 0.90188 0.42999 0.47926 0.0
C947 C 0.89744 0.44796 0.49664 0.0
C948 C 0.86883 0.44751 0.52153 0.0
C949 C 0.84526 0.42893 0.52889 0.0
C950 C 0.84844 0.41139 0.51193 0.0
C951 C 0.81587 0.39398 0.52289 0.0
C952 C 0.77697 0.38739 0.5004 0.0
C953 C 0.84753 0.37536 0.53245 0.0
C954 C 0.79203 0.40473 0.54801 0.0
C955 C 0.81048 0.42472 0.55167 0.0
C956 C 0.79011 0.43841 0.57154 0.0
C957 C 0.74776 0.43199 0.58664 0.0
C958 C 0.72634 0.41221 0.58148 0.0
C959 C 0.75023 0.39811 0.56311 0.0
H960 H 0.17528 0.06634 0.08197 0.0
H961 H 0.2007 0.09927 0.16152 0.0
H962 H 0.25887 0.0718 0.17629 0.0
H963 H 0.18228 1.01387 0.11038 0.0
H964 H 0.21396 1.00375 0.07965 0.0
H965 H 0.17173 1.02535 0.07605 0.0
H966 H 0.24178 0.04718 0.05278 0.0
H967 H 0.28436 1.02573 0.05641 0.0
H968 H 0.3001 0.0508 0.07131 0.0
H969 H 0.319 0.04158 0.18126 0.0
H970 H 0.3722 1.01051 0.17698 0.0
H971 H 0.30872 0.9976 0.09388 0.0
C972 C 0.19279 0.06798 0.10254 0.0
C973 C 0.18328 0.08548 0.12026 0.0
C974 C 0.20678 0.0863 0.1473 0.0
C975 C 0.24027 0.07071 0.15592 0.0
C976 C 0.24976 0.05415 0.1375 0.0
C977 C 0.22628 0.05258 0.11148 0.0
C978 C 0.24376 0.03346 0.09529 0.0
C979 C 0.20034 1.01821 0.09004 0.0
C980 C 0.269 0.03967 0.0673 0.0
C981 C 0.28121 1.02459 0.11616 0.0
C982 C 0.28408 0.03675 0.14038 0.0
C983 C 0.31687 0.03194 0.1624 0.0
C984 C 0.34733 1.01429 0.15965 0.0
C985 C 0.34508 1.00148 0.13505 0.0
C986 C 0.31123 1.00682 0.1131 0.0
H987 H 0.7214 0.973 0.38488 0.0
H988 H 0.62562 0.98569 0.45653 0.0
H989 H 0.67889 1.0161 0.46955 0.0
H990 H 0.84121 0.98994 0.41901 0.0
H991 H 0.86315 1.00007 0.38575 0.0
H992 H 0.82139 0.97803 0.3861 0.0
H993 H 0.7616 0.99851 0.35259 0.0
H994 H 0.80285 1.0206 0.35336 0.0
H995 H 0.73867 1.02358 0.36379 0.0
H996 H 0.73804 0.04814 0.47031 0.0
H997 H 0.79602 0.07719 0.45919 0.0
H998 H 0.85256 0.04212 0.38764 0.0
C999 C 0.71199 0.98202 0.40354 0.0
C1000 C 0.66916 0.97718 0.41958 0.0
C1001 C 0.6584 0.98917 0.44406 0.0
C1002 C 0.68845 1.00643 0.45153 0.0
C1003 C 0.72966 1.01119 0.43461 0.0
C1004 C 0.7417 0.99904 0.41134 0.0
C1005 C 0.78563 1.0079 0.39535 0.0
C1006 C 0.83048 0.99309 0.39663 0.0
C1007 C 0.7713 1.01295 0.36446 0.0
C1008 C 0.79542 0.02746 0.41245 0.0
C1009 C 0.76341 0.02909 0.43528 0.0
C1010 C 0.76385 0.04672 0.45282 0.0
C1011 C 0.79711 0.06312 0.44648 0.0
C1012 C 0.82906 0.06183 0.42266 0.0
C1013 C 0.82873 0.0435 0.40604 0.0
H1014 H 0.62154 0.04106 0.92075 0.0
H1015 H 0.71839 0.09486 0.90982 0.0
H1016 H 0.78905 0.07147 0.90117 0.0
H1017 H 0.71098 1.01097 0.95915 0.0
H1018 H 0.69277 0.98645 0.94366 0.0
H1019 H 0.6475 1.00689 0.94753 0.0
H1020 H 0.62736 1.00565 0.89395 0.0
H1021 H 0.671 0.98462 0.88979 0.0
H1022 H 0.67728 1.00778 0.8686 0.0
H1023 H 0.84984 0.0423 0.89415 0.0
H1024 H 0.89624 1.0095 0.8891 0.0
H1025 H 0.76115 0.97447 0.90629 0.0
C1026 C 0.65739 0.04812 0.91665 0.0
C1027 C 0.66359 0.07008 0.91592 0.0
C1028 C 0.71172 0.07827 0.91014 0.0
C1029 C 0.75247 0.06505 0.90536 0.0
C1030 C 0.74489 0.0436 0.90656 0.0
C1031 C 0.69859 0.03518 0.9121 0.0
C1032 C 0.70078 1.01158 0.91295 0.0
C1033 C 0.68716 1.00352 0.9426 0.0
C1034 C 0.66711 1.00184 0.88994 0.0
C1035 C 0.75549 1.00801 0.90659 0.0
C1036 C 0.78019 1.02674 0.90303 0.0
C1037 C 0.83082 0.02756 0.89679 0.0
C1038 C 0.85682 1.00879 0.8938 0.0
C1039 C 0.83236 0.98933 0.89703 0.0
C1040 C 0.78101 0.98904 0.90385 0.0
H1041 H 0.17597 0.98493 0.66542 0.0
H1042 H 0.1508 0.9773 0.57508 0.0
H1043 H 0.20443 1.00797 0.56581 0.0
H1044 H 0.17696 0.04104 0.66712 0.0
H1045 H 0.22605 0.04264 0.69328 0.0
H1046 H 0.18481 1.02046 0.69261 0.0
H1047 H 0.26079 0.99581 0.68848 0.0
H1048 H 0.30225 1.01791 0.68915 0.0
H1049 H 0.30489 0.99956 0.66016 0.0
H1050 H 0.2595 0.04051 0.56683 0.0
H1051 H 0.31676 0.06981 0.57772 0.0
H1052 H 0.30785 0.05513 0.66728 0.0
C1053 C 0.18136 0.98982 0.6437 0.0
C1054 C 0.15879 0.97879 0.62097 0.0
C1055 C 0.16779 0.98544 0.59281 0.0
C1056 C 0.19798 1.00292 0.58737 0.0
C1057 C 0.21944 1.0135 0.6103 0.0
C1058 C 0.21189 1.00704 0.6379 0.0
C1059 C 0.24061 1.02058 0.65876 0.0
C1060 C 0.20497 0.03185 0.67914 0.0
C1061 C 0.27944 1.0077 0.67509 0.0
C1062 C 0.26542 0.03573 0.63865 0.0
C1063 C 0.25239 0.03157 0.6108 0.0
C1064 C 0.27012 0.0438 0.58857 0.0
C1065 C 0.30244 0.06049 0.59496 0.0
C1066 C 0.31724 0.06471 0.62333 0.0
C1067 C 0.298 0.05214 0.64535 0.0
H1068 H 0.86945 0.52014 0.09523 0.0
H1069 H 0.80707 0.4877 0.16725 0.0
H1070 H 0.74897 0.51722 0.17545 0.0
H1071 H 0.86121 0.57306 0.12303 0.0
H1072 H 0.84496 0.58327 0.08866 0.0
H1073 H 0.88296 0.56034 0.09123 0.0
H1074 H 0.81908 0.54091 0.0588 0.0
H1075 H 0.78077 0.56382 0.05723 0.0
H1076 H 0.75461 0.53958 0.06938 0.0
H1077 H 0.6971 0.55107 0.17504 0.0
H1078 H 0.65123 0.58346 0.16296 0.0
H1079 H 0.74665 0.59216 0.09008 0.0
C1080 C 0.8442 0.51939 0.11306 0.0
C1081 C 0.84334 0.50181 0.13096 0.0
C1082 C 0.80847 0.5011 0.15343 0.0
C1083 C 0.7756 0.51783 0.15828 0.0
C1084 C 0.7777 0.53503 0.14024 0.0
C1085 C 0.81086 0.53572 0.11787 0.0
C1086 C 0.80381 0.55513 0.10024 0.0
C1087 C 0.85104 0.56876 0.10087 0.0
C1088 C 0.78865 0.54951 0.06961 0.0
C1089 C 0.76137 0.56537 0.11605 0.0
C1090 C 0.7471 0.55377 0.13932 0.0
C1091 C 0.70811 0.56022 0.15687 0.0
C1092 C 0.68246 0.57867 0.15002 0.0
C1093 C 0.69537 0.59021 0.1256 0.0
C1094 C 0.73588 0.58356 0.10879 0.0
H1095 H 0.34827 0.53694 0.43635 0.0
H1096 H 0.32763 0.57434 0.36083 0.0
H1097 H 0.26469 0.5492 0.3432 0.0
H1098 H 0.33354 0.48612 0.40199 0.0
H1099 H 0.30006 0.47497 0.43131 0.0
H1100 H 0.34537 0.49524 0.43762 0.0
H1101 H 0.27879 0.51741 0.46331 0.0
H1102 H 0.23332 0.49716 0.45739 0.0
H1103 H 0.22101 0.52326 0.44541 0.0
H1104 H 0.20319 0.52047 0.33418 0.0
H1105 H 0.14477 0.49097 0.33491 0.0
H1106 H 0.20298 0.47245 0.41716 0.0
C1107 C 0.33117 0.53966 0.41587 0.0
C1108 C 0.34316 0.5576 0.39986 0.0
C1109 C 0.31891 0.56081 0.3735 0.0
C1110 C 0.28332 0.54655 0.36326 0.0
C1111 C 0.27219 0.52913 0.37965 0.0
C1112 C 0.29528 0.52563 0.40542 0.0
C1113 C 0.27487 0.50612 0.4194 0.0
C1114 C 0.31591 0.48964 0.42277 0.0
C1115 C 0.25054 0.51131 0.44807 0.0
C1116 C 0.23625 0.49935 0.39759 0.0
C1117 C 0.23576 0.51276 0.37474 0.0
C1118 C 0.20312 0.50992 0.35203 0.0
C1119 C 0.16967 0.49313 0.35278 0.0
C1120 C 0.16843 0.47934 0.37624 0.0
C1121 C 0.20284 0.48249 0.39879 0.0
H1122 H 0.34047 0.51052 0.91708 0.0
H1123 H 0.2535 0.46222 0.87508 0.0
H1124 H 0.18135 0.48585 0.87316 0.0
H1125 H 0.24316 0.53022 0.95999 0.0
H1126 H 0.262 0.55709 0.95716 0.0
H1127 H 0.30771 0.53675 0.95407 0.0
H1128 H 0.33452 0.55113 0.90517 0.0
H1129 H 0.28877 0.57152 0.90811 0.0
H1130 H 0.28838 0.55444 0.87765 0.0
H1131 H 0.11742 0.51402 0.87768 0.0
H1132 H 0.06564 0.54464 0.889 0.0
H1133 H 0.19376 0.57529 0.92705 0.0
C1134 C 0.30663 0.50497 0.90701 0.0
C1135 C 0.303 0.48436 0.8962 0.0
C1136 C 0.25735 0.47774 0.8838 0.0
C1137 C 0.21617 0.49115 0.88241 0.0
C1138 C 0.22104 0.51124 0.89338 0.0
C1139 C 0.26511 0.51817 0.90541 0.0
C1140 C 0.25978 0.54028 0.91662 0.0
C1141 C 0.26868 0.54112 0.94887 0.0
C1142 C 0.29496 0.55522 0.90094 0.0
C1143 C 0.20564 0.5446 0.90928 0.0
C1144 C 0.18413 0.52763 0.89578 0.0
C1145 C 0.13397 0.52744 0.88804 0.0
C1146 C 0.10481 0.54487 0.89463 0.0
C1147 C 0.12568 0.56236 0.90878 0.0
C1148 C 0.17705 0.56231 0.91576 0.0
H1149 H 0.7944 0.56888 0.60542 0.0
H1150 H 0.83695 0.55456 0.69218 0.0
H1151 H 0.77858 0.52507 0.69218 0.0
H1152 H 0.66166 0.5557 0.61402 0.0
H1153 H 0.65618 0.54477 0.57885 0.0
H1154 H 0.70045 0.56534 0.58581 0.0
H1155 H 0.77136 0.54219 0.56614 0.0
H1156 H 0.7274 0.5215 0.55933 0.0
H1157 H 0.7815 0.51677 0.58116 0.0
H1158 H 0.7194 0.49574 0.68233 0.0
H1159 H 0.65968 0.46964 0.6637 0.0
H1160 H 0.6523 0.50309 0.58405 0.0
C1161 C 0.79102 0.55975 0.62456 0.0
C1162 C 0.82124 0.56404 0.64867 0.0
C1163 C 0.81547 0.55147 0.67316 0.0
C1164 C 0.78197 0.53469 0.67349 0.0
C1165 C 0.75369 0.53064 0.64929 0.0
C1166 C 0.75735 0.5429 0.62534 0.0
C1167 C 0.72282 0.53486 0.60208 0.0
C1168 C 0.68291 0.55113 0.59476 0.0
C1169 C 0.75256 0.52845 0.57562 0.0
C1170 C 0.69997 0.51603 0.61661 0.0
C1171 C 0.71837 0.51391 0.64383 0.0
C1172 C 0.70438 0.49733 0.66111 0.0
C1173 C 0.67067 0.48249 0.65031 0.0
C1174 C 0.65098 0.48432 0.62252 0.0
C1175 C 0.66587 0.50143 0.60557 0.0
H1176 H 0.94404 0.33936 0.12636 0.0
H1177 H 0.94596 0.33952 0.03438 0.0
H1178 H 0.98401 0.3046 0.03426 0.0
H1179 H 0.06146 0.31184 0.13651 0.0
H1180 H 0.03907 0.29703 0.16628 0.0
H1181 H 0.01383 0.32245 0.15921 0.0
H1182 H 0.92474 0.3068 0.15753 0.0
H1183 H 0.94969 0.28134 0.16455 0.0
H1184 H 0.91137 0.28551 0.1336 0.0
H1185 H 0.021 0.26938 0.044 0.0
H1186 H 0.05297 0.23632 0.06278 0.0
H1187 H 0.02413 0.25824 0.14857 0.0
C1188 C 0.95302 0.3321 0.10626 0.0
C1189 C 0.94188 0.34217 0.08036 0.0
C1190 C 0.95358 0.33203 0.05446 0.0
C1191 C 0.97547 0.31223 0.05417 0.0
C1192 C 0.98534 0.30259 0.08 0.0
C1193 C 0.97445 0.31215 0.10558 0.0
C1194 C 0.98733 0.29801 0.13026 0.0
C1195 C 0.02783 0.30793 0.14918 0.0
C1196 C 0.94049 0.2926 0.14749 0.0
C1197 C 0.00707 0.27908 0.11452 0.0
C1198 C 0.00584 0.2821 0.08557 0.0
C1199 C 0.02203 0.26682 0.06667 0.0
C1200 C 0.03994 0.24794 0.07763 0.0
C1201 C 0.04135 0.24429 0.10731 0.0
C1202 C 0.02447 0.26028 0.12583 0.0
H1203 H 0.46643 0.84299 0.12852 0.0
H1204 H 0.38068 0.82996 0.0522 0.0
H1205 H 0.40219 0.79282 0.05578 0.0
H1206 H 0.56508 0.8078 0.11444 0.0
H1207 H 0.57297 0.79958 0.15069 0.0
H1208 H 0.54905 0.82513 0.14315 0.0
H1209 H 0.4707 0.81742 0.17335 0.0
H1210 H 0.49457 0.79189 0.1812 0.0
H1211 H 0.43352 0.79466 0.16556 0.0
H1212 H 0.43647 0.75744 0.06587 0.0
H1213 H 0.47717 0.72564 0.08375 0.0
H1214 H 0.53992 0.76104 0.15397 0.0
C1215 C 0.45144 0.83226 0.11289 0.0
C1216 C 0.42206 0.83948 0.08995 0.0
C1217 C 0.40383 0.82491 0.06971 0.0
C1218 C 0.41567 0.80374 0.07162 0.0
C1219 C 0.44564 0.79722 0.09402 0.0
C1220 C 0.46293 0.81096 0.11448 0.0
C1221 C 0.49534 0.79983 0.13606 0.0
C1222 C 0.54877 0.80861 0.13607 0.0
C1223 C 0.47213 0.80102 0.16581 0.0
C1224 C 0.49377 0.77778 0.12436 0.0
C1225 C 0.46498 0.77665 0.10006 0.0
C1226 C 0.45892 0.75809 0.08499 0.0
C1227 C 0.48253 0.74013 0.09517 0.0
C1228 C 0.51175 0.74078 0.12026 0.0
C1229 C 0.51736 0.75995 0.13494 0.0
H1230 H 0.4799 0.81733 0.45716 0.0
H1231 H 0.58001 0.81668 0.38532 0.0
H1232 H 0.5568 0.77981 0.37554 0.0
H1233 H 0.50525 0.76735 0.48196 0.0
H1234 H 0.44204 0.7617 0.49235 0.0
H1235 H 0.46386 0.78819 0.49185 0.0
H1236 H 0.39143 0.79824 0.45805 0.0
H1237 H 0.36918 0.77175 0.45856 0.0
H1238 H 0.38295 0.78413 0.42523 0.0
H1239 H 0.52754 0.74142 0.37727 0.0
H1240 H 0.49323 0.7067 0.38874 0.0
H1241 H 0.40922 0.73421 0.45791 0.0
C1242 C 0.49665 0.80948 0.43922 0.0
C1243 C 0.53199 0.81976 0.42208 0.0
C1244 C 0.55265 0.80907 0.39858 0.0
C1245 C 0.53977 0.78814 0.39298 0.0
C1246 C 0.5055 0.77831 0.41079 0.0
C1247 C 0.48376 0.78883 0.43319 0.0
C1248 C 0.44895 0.77488 0.4497 0.0
C1249 C 0.46608 0.77292 0.4808 0.0
C1250 C 0.39493 0.78272 0.44775 0.0
C1251 C 0.45541 0.75462 0.4337 0.0
C1252 C 0.48799 0.75678 0.41126 0.0
C1253 C 0.50144 0.7397 0.39456 0.0
C1254 C 0.48153 0.71997 0.4012 0.0
C1255 C 0.44845 0.71742 0.42439 0.0
C1256 C 0.43478 0.73525 0.4403 0.0
H1257 H 0.01413 0.31852 0.46903 0.0
H1258 H 0.04615 0.32706 0.37958 0.0
H1259 H 0.02802 0.28987 0.3709 0.0
H1260 H 0.06387 0.26679 0.47593 0.0
H1261 H 0.01534 0.2585 0.49975 0.0
H1262 H 0.03398 0.28545 0.49888 0.0
H1263 H 0.9425 0.29617 0.48882 0.0
H1264 H 0.92362 0.26926 0.48953 0.0
H1265 H 0.91 0.28495 0.45886 0.0
H1266 H 0.00307 0.25115 0.37211 0.0
H1267 H 0.97642 0.21524 0.38348 0.0
H1268 H 0.9559 0.23369 0.47139 0.0
C1269 C 0.0174 0.31274 0.44754 0.0
C1270 C 0.03172 0.32599 0.42505 0.0
C1271 C 0.03602 0.31738 0.39737 0.0
C1272 C 0.02538 0.29622 0.39215 0.0
C1273 C 0.01033 0.28379 0.41478 0.0
C1274 C 0.0065 0.29181 0.44194 0.0
C1275 C 0.98832 0.27551 0.46258 0.0
C1276 C 0.02773 0.27132 0.48564 0.0
C1277 C 0.93813 0.28186 0.47571 0.0
C1278 C 0.98233 0.25702 0.44284 0.0
C1279 C -0.0047 0.26197 0.41536 0.0
C1280 C 0.99281 0.24717 0.39361 0.0
C1281 C 0.97724 0.22679 0.40024 0.0
C1282 C 0.96415 0.22136 0.42841 0.0
C1283 C 0.96636 0.23695 0.44973 0.0
H1284 H 0.95788 0.82032 0.97195 0.0
H1285 H 0.92899 0.82775 0.88181 0.0
H1286 H 0.95669 0.79157 0.87361 0.0
H1287 H 0.06647 0.7893 0.96619 0.0
H1288 H 0.05108 0.7733 0.99626 0.0
H1289 H 0.02932 0.79975 0.99467 0.0
H1290 H 0.93821 0.78699 1.00088 0.0
H1291 H 0.95971 0.76051 1.00262 0.0
H1292 H 0.91323 0.76771 0.97678 0.0
H1293 H 0.98881 0.75358 0.87582 0.0
H1294 H 0.02102 0.7187 0.88833 0.0
H1295 H 0.02376 0.73699 0.97712 0.0
C1296 C 0.95659 0.81452 0.95042 0.0
C1297 C 0.94084 0.82724 0.9276 0.0
C1298 C 0.94112 0.81864 0.89978 0.0
C1299 C 0.95664 0.79797 0.89488 0.0
C1300 C 0.9717 0.78596 0.91799 0.0
C1301 C 0.97154 0.79402 0.94521 0.0
C1302 C 0.98907 0.77812 0.96662 0.0
C1303 C 0.03682 0.78557 0.98182 0.0
C1304 C 0.94758 0.77303 0.98798 0.0
C1305 C -0.00057 0.7598 0.94727 0.0
C1306 C 0.98933 0.76449 0.91927 0.0
C1307 C -0.00336 0.7498 0.89774 0.0
C1308 C 0.01479 0.72994 0.90508 0.0
C1309 C 0.02548 0.72484 0.93375 0.0
C1310 C 0.01715 0.74015 0.95493 0.0
H1311 H 0.5625 0.24161 0.95199 0.0
H1312 H 0.47655 0.21428 0.88332 0.0
H1313 H 0.45016 0.24964 0.86827 0.0
H1314 H 0.47605 0.27804 0.97196 0.0
H1315 H 0.5206 0.2981 0.98092 0.0
H1316 H 0.53833 0.2712 0.98296 0.0
H1317 H 0.61228 0.27808 0.94894 0.0
H1318 H 0.59489 0.30511 0.94689 0.0
H1319 H 0.60072 0.28985 0.91489 0.0
H1320 H 0.42504 0.28859 0.86513 0.0
H1321 H 0.4047 0.32578 0.87438 0.0
H1322 H 0.50806 0.32619 0.94515 0.0
C1323 C 0.53878 0.24306 0.93347 0.0
C1324 C 0.52143 0.22522 0.91886 0.0
C1325 C 0.49067 0.22777 0.89463 0.0
C1326 C 0.47542 0.2478 0.88604 0.0
C1327 C 0.49193 0.26507 0.90167 0.0
C1328 C 0.5235 0.26277 0.92471 0.0
C1329 C 0.53327 0.28329 0.93953 0.0
C1330 C 0.51601 0.2826 0.97067 0.0
C1331 C 0.58858 0.28944 0.93742 0.0
C1332 C 0.50088 0.29751 0.92198 0.0
C1333 C 0.47771 0.28696 0.89994 0.0
C1334 C 0.44364 0.29698 0.8821 0.0
C1335 C 0.43238 0.3181 0.88739 0.0
C1336 C 0.45462 0.3288 0.91055 0.0
C1337 C 0.49019 0.31839 0.92742 0.0
H1338 H 0.46415 0.23012 0.56036 0.0
H1339 H 0.45969 0.21838 0.65087 0.0
H1340 H 0.47949 0.2555 0.66011 0.0
H1341 H 0.56868 0.26255 0.56175 0.0
H1342 H 0.54689 0.27951 0.53401 0.0
H1343 H 0.52641 0.25284 0.53493 0.0
H1344 H 0.43423 0.26489 0.53522 0.0
H1345 H 0.45446 0.29165 0.5342 0.0
H1346 H 0.4136 0.28297 0.56206 0.0
H1347 H 0.50683 0.29418 0.6588 0.0
H1348 H 0.53967 0.32929 0.64695 0.0
H1349 H 0.5277 0.31427 0.55747 0.0
C1350 C 0.46699 0.23525 0.58219 0.0
C1351 C 0.46042 0.22116 0.60487 0.0
C1352 C 0.46393 0.22882 0.63308 0.0
C1353 C 0.4754 0.24991 0.63853 0.0
C1354 C 0.483 0.26321 0.61556 0.0
C1355 C 0.47861 0.25609 0.58794 0.0
C1356 C 0.49132 0.27295 0.56682 0.0
C1357 C 0.53597 0.26657 0.5483 0.0
C1358 C 0.44568 0.27844 0.5485 0.0
C1359 C 0.50484 0.2906 0.58675 0.0
C1360 C 0.49925 0.28492 0.61481 0.0
C1361 C 0.51096 0.29875 0.63686 0.0
C1362 C 0.52944 0.31868 0.62998 0.0
C1363 C 0.53668 0.32449 0.60131 0.0
C1364 C 0.52331 0.31026 0.5796 0.0
H1365 H 0.9872 0.72245 0.55697 0.0
H1366 H 0.98052 0.71315 0.64803 0.0
H1367 H 0.00327 0.75006 0.65566 0.0
H1368 H 0.09358 0.75661 0.55741 0.0
H1369 H 0.07029 0.77264 0.52903 0.0
H1370 H 0.05271 0.74559 0.53081 0.0
H1371 H 0.95932 0.75585 0.53029 0.0
H1372 H 0.9766 0.78291 0.52832 0.0
H1373 H 0.93643 0.77403 0.55638 0.0
H1374 H 0.028 0.78836 0.65312 0.0
H1375 H 0.04728 0.82479 0.64063 0.0
H1376 H 0.04033 0.80842 0.55127 0.0
C1377 C 0.99072 0.72806 0.57856 0.0
C1378 C 0.98201 0.71473 0.60189 0.0
C1379 C 0.98632 0.72299 0.62976 0.0
C1380 C -0.00033 0.74394 0.63432 0.0
C1381 C 0.00863 0.75651 0.61081 0.0
C1382 C 0.00403 0.74888 0.58348 0.0
C1383 C 0.01512 0.7656 0.56179 0.0
C1384 C 0.06063 0.75976 0.5437 0.0
C1385 C 0.96913 0.76985 0.5431 0.0
C1386 C 0.02658 0.7839 0.58116 0.0
C1387 C 0.02288 0.77836 0.60936 0.0
C1388 C 0.03117 0.79281 0.63107 0.0
C1389 C 0.04258 0.81348 0.62375 0.0
C1390 C 0.04553 0.81963 0.59492 0.0
C1391 C 0.03806 0.8044 0.57349 0.0
H1392 H 0.0349 0.11161 0.20467 0.0
H1393 H 0.01081 0.17689 0.18627 0.0
H1394 H 0.98398 0.18278 0.23586 0.0
H1395 H 0.93206 0.10472 0.25408 0.0
H1396 H 0.96738 0.08786 0.27702 0.0
H1397 H 0.98085 0.08865 0.23963 0.0
H1398 H 0.07316 0.09756 0.25094 0.0
H1399 H 0.05994 0.09686 0.28834 0.0
H1400 H 0.08748 0.11981 0.27298 0.0
H1401 H 0.96025 0.18136 0.28852 0.0
H1402 H 0.9471 0.17307 0.33939 0.0
H1403 H 0.99172 0.10931 0.32304 0.0
C1404 C 0.0232 0.12708 0.21094 0.0
C1405 C 0.02449 0.14375 0.19151 0.0
C1406 C 0.01003 0.16387 0.20077 0.0
C1407 C -0.0054 0.16735 0.22889 0.0
C1408 C -0.0057 0.1506 0.24764 0.0
C1409 C 0.00853 0.13089 0.23902 0.0
C1410 C 0.00782 0.11577 0.26357 0.0
C1411 C 0.96975 0.09822 0.25825 0.0
C1412 C 0.06021 0.10699 0.26929 0.0
C1413 C 0.99118 0.13002 0.28739 0.0
C1414 C 0.98288 0.15001 0.27783 0.0
C1415 C 0.96678 0.16575 0.29619 0.0
C1416 C 0.95932 0.16092 0.32502 0.0
C1417 C 0.96876 0.14062 0.33525 0.0
C1418 C 0.9847 0.12506 0.31601 0.0
H1419 H 0.37034 0.92665 0.22252 0.0
H1420 H 0.48427 0.89183 0.17782 0.0
H1421 H 0.52353 0.88282 0.22386 0.0
H1422 H 0.44972 0.94887 0.27357 0.0
H1423 H 0.40482 0.94768 0.30189 0.0
H1424 H 0.38391 0.94961 0.26569 0.0
H1425 H 0.33072 0.91617 0.27183 0.0
H1426 H 0.35153 0.91413 0.30811 0.0
H1427 H 0.36011 0.89261 0.28396 0.0
H1428 H 0.55254 0.87929 0.27584 0.0
H1429 H 0.56972 0.88287 0.32741 0.0
H1430 H 0.43665 0.92051 0.33642 0.0
C1431 C 0.40314 0.91687 0.22229 0.0
C1432 C 0.42405 0.90987 0.19649 0.0
C1433 C 0.46745 0.89734 0.1973 0.0
C1434 C 0.48994 0.8921 0.22337 0.0
C1435 C 0.46855 0.89951 0.24843 0.0
C1436 C 0.42605 0.91163 0.24796 0.0
C1437 C 0.41166 0.91872 0.27744 0.0
C1438 C 0.41262 0.94263 0.27977 0.0
C1439 C 0.36047 0.90987 0.28582 0.0
C1440 C 0.45308 0.90901 0.29468 0.0
C1441 C 0.48536 0.89777 0.27777 0.0
C1442 C 0.52724 0.88796 0.28923 0.0
C1443 C 0.53666 0.89002 0.31855 0.0
C1444 C 0.50459 0.90198 0.33598 0.0
C1445 C 0.46196 0.91125 0.32376 0.0
H1446 H 0.02997 0.91378 0.81921 0.0
H1447 H 0.89792 0.87583 0.8324 0.0
H1448 H 0.89904 0.86561 0.78168 0.0
H1449 H -0.00542 0.93302 0.75129 0.0
H1450 H 0.05697 0.9328 0.7372 0.0
H1451 H 0.04737 0.93624 0.77472 0.0
H1452 H 0.10453 0.9047 0.78502 0.0
H1453 H 0.11446 0.9012 0.74752 0.0
H1454 H 0.09103 0.87994 0.76851 0.0
H1455 H 0.9144 0.85983 0.72954 0.0
H1456 H 0.94017 0.85981 0.67948 0.0
H1457 H 0.06093 0.9026 0.69987 0.0
C1458 C 0.00151 0.90313 0.81157 0.0
C1459 C 0.96397 0.89547 0.82986 0.0
C1460 C 0.92703 0.88186 0.81882 0.0
C1461 C 0.92746 0.87595 0.79006 0.0
C1462 C 0.96485 0.88391 0.77262 0.0
C1463 C 0.00107 0.89728 0.78293 0.0
C1464 C 0.03602 0.90427 0.75955 0.0
C1465 C 0.03356 0.92799 0.75546 0.0
C1466 C 0.08969 0.89709 0.76551 0.0
C1467 C 0.01374 0.89278 0.73436 0.0
C1468 C 0.97296 0.88101 0.74245 0.0
C1469 C 0.94623 0.869 0.723 0.0
C1470 C 0.9613 0.8691 0.69455 0.0
C1471 C 0.00258 0.88126 0.6856 0.0
C1472 C 0.02915 0.89321 0.70593 0.0
H1473 H 0.55552 0.1555 0.83598 0.0
H1474 H 0.43849 0.11003 0.8512 0.0
H1475 H 0.41083 0.11298 0.80176 0.0
H1476 H 0.48392 0.18789 0.78626 0.0
H1477 H 0.53647 0.19284 0.7635 0.0
H1478 H 0.54617 0.1883 0.80083 0.0
H1479 H 0.60686 0.15825 0.78892 0.0
H1480 H 0.59729 0.16269 0.75158 0.0
H1481 H 0.58605 0.13725 0.76626 0.0
H1482 H 0.39654 0.11944 0.75082 0.0
H1483 H 0.39749 0.12889 0.70031 0.0
H1484 H 0.52407 0.16981 0.71585 0.0
C1485 C 0.5238 0.14636 0.82891 0.0
C1486 C 0.49932 0.1325 0.84763 0.0
C1487 C 0.45821 0.12066 0.83741 0.0
C1488 C 0.44194 0.12226 0.80929 0.0
C1489 C 0.46707 0.13576 0.79132 0.0
C1490 C 0.50711 0.14763 0.80055 0.0
C1491 C 0.52837 0.16026 0.77615 0.0
C1492 C 0.52342 0.18371 0.78204 0.0
C1493 C 0.58288 0.15425 0.77039 0.0
C1494 C 0.49429 0.15339 0.75192 0.0
C1495 C 0.45905 0.13936 0.76135 0.0
C1496 C 0.42391 0.13045 0.74313 0.0
C1497 C 0.42491 0.13586 0.71438 0.0
C1498 C 0.46099 0.15 0.7039 0.0
C1499 C 0.49587 0.15901 0.72312 0.0
H1500 H 0.49619 0.60143 0.32956 0.0
H1501 H 0.42862 0.66182 0.34417 0.0
H1502 H 0.43887 0.6702 0.29332 0.0
H1503 H 0.58765 0.61788 0.28025 0.0
H1504 H 0.58308 0.59484 0.25843 0.0
H1505 H 0.56882 0.59347 0.29567 0.0
H1506 H 0.48159 0.57827 0.28364 0.0
H1507 H 0.49554 0.57965 0.24633 0.0
H1508 H 0.44075 0.5923 0.26009 0.0
H1509 H 0.46107 0.67263 0.24126 0.0
H1510 H 0.49176 0.66873 0.19217 0.0
H1511 H 0.5421 0.60623 0.21138 0.0
C1512 C 0.48338 0.61641 0.32211 0.0
C1513 C 0.46173 0.63101 0.34092 0.0
C1514 C 0.44524 0.65038 0.33019 0.0
C1515 C 0.4509 0.65527 0.30133 0.0
C1516 C 0.47259 0.64053 0.28342 0.0
C1517 C 0.48828 0.62144 0.29339 0.0
C1518 C 0.511 0.60842 0.26988 0.0
C1519 C 0.56589 0.60336 0.27646 0.0
C1520 C 0.48038 0.58848 0.26468 0.0
C1521 C 0.50646 0.62328 0.24516 0.0
C1522 C 0.48418 0.64172 0.25339 0.0
C1523 C 0.47811 0.65819 0.23455 0.0
C1524 C 0.49579 0.65584 0.20673 0.0
C1525 C 0.51905 0.63713 0.19789 0.0
C1526 C 0.52371 0.62057 0.21734 0.0
H1527 H 0.04787 0.4159 0.31766 0.0
H1528 H 0.96536 0.3578 0.32322 0.0
H1529 H 0.94576 0.35979 0.27215 0.0
H1530 H 0.96411 0.44095 0.27098 0.0
H1531 H 0.01177 0.45431 0.25119 0.0
H1532 H 0.0227 0.44751 0.2877 0.0
H1533 H 0.10251 0.42757 0.27325 0.0
H1534 H 0.09189 0.43431 0.23665 0.0
H1535 H 0.09865 0.4074 0.2466 0.0
H1536 H 0.93129 0.36895 0.22099 0.0
H1537 H 0.92225 0.38487 0.17367 0.0
H1538 H 0.01335 0.43719 0.20141 0.0
C1539 C 0.02615 0.40346 0.30812 0.0
C1540 C 0.00819 0.38668 0.32455 0.0
C1541 C 0.97954 0.37084 0.31117 0.0
C1542 C 0.96828 0.37179 0.28211 0.0
C1543 C 0.98593 0.38869 0.26664 0.0
C1544 C 0.01431 0.40423 0.27914 0.0
C1545 C 0.02669 0.42119 0.25802 0.0
C1546 C 0.00501 0.44223 0.26754 0.0
C1547 C 0.0833 0.4227 0.25336 0.0
C1548 C 0.00024 0.41289 0.2318 0.0
C1549 C 0.97728 0.39404 0.23717 0.0
C1550 C 0.94936 0.38365 0.21648 0.0
C1551 C 0.94438 0.39284 0.18966 0.0
C1552 C 0.96709 0.41228 0.18374 0.0
C1553 C -0.00422 0.42226 0.20512 0.0
H1554 H 0.47593 0.445 0.81354 0.0
H1555 H 0.45533 0.37925 0.83022 0.0
H1556 H 0.47549 0.37126 0.77991 0.0
H1557 H 0.41884 0.44421 0.7441 0.0
H1558 H 0.46079 0.46356 0.73012 0.0
H1559 H 0.44581 0.4636 0.76733 0.0
H1560 H 0.53995 0.46177 0.77974 0.0
H1561 H 0.55522 0.46156 0.74257 0.0
H1562 H 0.5772 0.441 0.76526 0.0
H1563 H 0.50345 0.37088 0.72754 0.0
H1564 H 0.52561 0.37834 0.67747 0.0
H1565 H 0.52078 0.4445 0.69559 0.0
C1566 C 0.47566 0.42889 0.80662 0.0
C1567 C 0.46453 0.4127 0.82576 0.0
C1568 C 0.46372 0.39187 0.81583 0.0
C1569 C 0.47538 0.38721 0.78737 0.0
C1570 C 0.4868 0.40361 0.76908 0.0
C1571 C 0.48607 0.42406 0.77832 0.0
C1572 C 0.49764 0.43901 0.7545 0.0
C1573 C 0.45311 0.45344 0.74867 0.0
C1574 C 0.54534 0.45157 0.76091 0.0
C1575 C 0.50554 0.42384 0.73033 0.0
C1576 C 0.49988 0.40346 0.7391 0.0
C1577 C 0.50738 0.3868 0.72046 0.0
C1578 C 0.5202 0.39116 0.69212 0.0
C1579 C 0.52443 0.41198 0.68266 0.0
C1580 C 0.51716 0.42842 0.70214 0.0
H1581 H 0.06167 0.65444 0.83918 0.0
H1582 H 0.91866 0.62551 0.85727 0.0
H1583 H 0.89366 0.62945 0.80759 0.0
H1584 H 0.01304 0.69187 0.78579 0.0
H1585 H 0.06693 0.68945 0.76329 0.0
H1586 H 0.0731 0.68608 0.8011 0.0
H1587 H 0.11224 0.64976 0.79285 0.0
H1588 H 0.10598 0.65298 0.75507 0.0
H1589 H 0.07869 0.63063 0.7721 0.0
H1590 H 0.88573 0.63314 0.75602 0.0
H1591 H 0.89416 0.63819 0.70453 0.0
H1592 H 0.04065 0.66569 0.71778 0.0
C1593 C 0.02484 0.64931 0.83271 0.0
C1594 C 0.9923 0.63957 0.85222 0.0
C1595 C 0.94456 0.63285 0.84282 0.0
C1596 C 0.92976 0.63508 0.81457 0.0
C1597 C 0.96287 0.6442 0.79573 0.0
C1598 C 0.00925 0.6514 0.80426 0.0
C1599 C 0.03801 0.65978 0.77898 0.0
C1600 C 0.04838 0.68319 0.7825 0.0
C1601 C 0.0866 0.64755 0.77449 0.0
C1602 C 0.00088 0.65566 0.75508 0.0
C1603 C 0.95779 0.64672 0.76542 0.0
C1604 C 0.91897 0.64041 0.74762 0.0
C1605 C 0.92421 0.64328 0.71837 0.0
C1606 C 0.96784 0.65248 0.70709 0.0
C1607 C 0.00651 0.65891 0.7258 0.0
loop_
_geom_bond_atom_site_label_1
_geom_bond_atom_site_label_2
_geom_bond_distance
_geom_bond_site_symmetry_2
_ccdc_geom_bond_type
C0 C1 1.351 . S
C0 N3 1.368 . S
C0 H5 0.931 . S
C1 C0 1.351 . S
C1 N2 1.373 . S
C1 H29 0.930 . S
N2 C1 1.373 . S
N2 C4 1.340 . S
N3 C0 1.368 . S
N3 C4 1.321 . S
N3 Co6 2.135 . S
C4 N2 1.340 . S
C4 N3 1.321 . S
C4 H28 0.930 . S
H5 C0 0.931 . S
Co6 N3 2.135 . S
Co6 N9 2.121 . S
Co6 O14 2.055 . S
Co6 O17 2.039 . S
Co6 N20 2.140 . S
C7 O8 1.227 . S
C7 O17 1.265 . S
O8 C7 1.227 . S
N9 Co6 2.121 . S
N9 C11 1.375 . S
N9 C12 1.313 . S
C10 C11 1.338 . S
C10 N13 1.377 . S
C10 H30 0.930 . S
C11 N9 1.375 . S
C11 C10 1.338 . S
C11 H15 0.931 . S
C12 N9 1.313 . S
C12 N13 1.344 . S
C12 H16 0.930 . S
N13 C10 1.377 . S
N13 C12 1.344 . S
O14 Co6 2.055 . S
O14 C18 1.253 . S
H15 C11 0.931 . S
H16 C12 0.930 . S
O17 Co6 2.039 . S
O17 C7 1.265 . S
C18 O14 1.253 . S
C18 O19 1.227 . S
O19 C18 1.227 . S
N20 Co6 2.140 . S
N20 C23 1.346 1_455 S
N20 C24 1.345 . S
C21 C22 1.387 . S
C21 C25 1.391 . S
C22 C21 1.387 . S
C22 C23 1.369 . S
C22 H31 0.929 . S
C23 N20 1.346 1_655 S
C23 C22 1.369 . S
C23 H26 0.928 . S
C24 N20 1.345 . S
C24 C25 1.371 1_455 S
C24 H27 0.931 . S
C25 C21 1.391 . S
C25 C24 1.371 1_655 S
C25 H32 0.930 . S
H26 C23 0.928 . S
H27 C24 0.931 . S
H28 C4 0.930 . S
H29 C1 0.930 . S
H30 C10 0.930 . S
H31 C22 0.929 . S
H32 C25 0.930 . S
C33 C34 1.351 . S
C33 N36 1.368 . S
C33 H38 0.931 . S
C34 C33 1.351 . S
C34 N35 1.373 . S
C34 H62 0.930 . S
N35 C34 1.373 . S
N35 C37 1.340 . S
N36 C33 1.368 . S
N36 C37 1.321 . S
N36 Co39 2.135 . S
C37 N35 1.340 . S
C37 N36 1.321 . S
C37 H61 0.930 . S
H38 C33 0.931 . S
Co39 N36 2.135 . S
Co39 N42 2.121 . S
Co39 O47 2.055 . S
Co39 O50 2.039 . S
Co39 N53 2.140 . S
C40 O41 1.227 . S
C40 O50 1.265 . S
O41 C40 1.227 . S
N42 Co39 2.121 . S
N42 C44 1.375 . S
N42 C45 1.313 . S
C43 C44 1.338 . S
C43 N46 1.377 . S
C43 H63 0.930 . S
C44 N42 1.375 . S
C44 C43 1.338 . S
C44 H48 0.931 . S
C45 N42 1.313 . S
C45 N46 1.344 . S
C45 H49 0.930 . S
N46 C43 1.377 . S
N46 C45 1.344 . S
O47 Co39 2.055 . S
O47 C51 1.253 . S
H48 C44 0.931 . S
H49 C45 0.930 . S
O50 Co39 2.039 . S
O50 C40 1.265 . S
C51 O47 1.253 . S
C51 O52 1.227 . S
O52 C51 1.227 . S
N53 Co39 2.140 . S
N53 C56 1.346 . S
N53 C57 1.345 . S
C54 C55 1.387 . S
C54 C58 1.391 . S
C55 C54 1.387 . S
C55 C56 1.369 . S
C55 H64 0.929 . S
C56 N53 1.346 . S
C56 C55 1.369 . S
C56 H59 0.928 . S
C57 N53 1.345 . S
C57 C58 1.371 . S
C57 H60 0.931 . S
C58 C54 1.391 . S
C58 C57 1.371 . S
C58 H65 0.930 . S
H59 C56 0.928 . S
H60 C57 0.931 . S
H61 C37 0.930 . S
H62 C34 0.930 . S
H63 C43 0.930 . S
H64 C55 0.929 . S
H65 C58 0.930 . S
C66 C67 1.351 . S
C66 N69 1.368 . S
C66 H71 0.931 . S
C67 C66 1.351 . S
C67 N68 1.373 . S
C67 H95 0.930 . S
N68 C67 1.373 . S
N68 C70 1.340 . S
N69 C66 1.368 . S
N69 C70 1.321 . S
N69 Co72 2.135 . S
C70 N68 1.340 . S
C70 N69 1.321 . S
C70 H94 0.930 . S
H71 C66 0.931 . S
Co72 N69 2.135 . S
Co72 N75 2.121 . S
Co72 O80 2.055 . S
Co72 O83 2.039 . S
Co72 N86 2.140 . S
C73 O74 1.227 . S
C73 O83 1.265 . S
O74 C73 1.227 . S
N75 Co72 2.121 . S
N75 C77 1.375 . S
N75 C78 1.313 . S
C76 C77 1.338 . S
C76 N79 1.377 . S
C76 H96 0.930 . S
C77 N75 1.375 . S
C77 C76 1.338 . S
C77 H81 0.931 . S
C78 N75 1.313 . S
C78 N79 1.344 . S
C78 H82 0.930 . S
N79 C76 1.377 . S
N79 C78 1.344 . S
O80 Co72 2.055 . S
O80 C84 1.253 . S
H81 C77 0.931 . S
H82 C78 0.930 . S
O83 Co72 2.039 . S
O83 C73 1.265 . S
C84 O80 1.253 . S
C84 O85 1.227 . S
O85 C84 1.227 . S
N86 Co72 2.140 . S
N86 C89 1.346 . S
N86 C90 1.345 . S
C87 C88 1.387 . S
C87 C91 1.391 . S
C88 C87 1.387 . S
C88 C89 1.369 . S
C88 H97 0.929 . S
C89 N86 1.346 . S
C89 C88 1.369 . S
C89 H92 0.928 . S
C90 N86 1.345 . S
C90 C91 1.371 . S
C90 H93 0.931 . S
C91 C87 1.391 . S
C91 C90 1.371 . S
C91 H98 0.930 . S
H92 C89 0.928 . S
H93 C90 0.931 . S
H94 C70 0.930 . S
H95 C67 0.930 . S
H96 C76 0.930 . S
H97 C88 0.929 . S
H98 C91 0.930 . S
C99 C100 1.351 . S
C99 N102 1.368 . S
C99 H104 0.931 . S
C100 C99 1.351 . S
C100 N101 1.373 . S
C100 H128 0.930 . S
N101 C100 1.373 . S
N101 C103 1.340 . S
N102 C99 1.368 . S
N102 C103 1.321 . S
N102 Co105 2.135 . S
C103 N101 1.340 . S
C103 N102 1.321 . S
C103 H127 0.930 . S
H104 C99 0.931 . S
Co105 N102 2.135 . S
Co105 N108 2.121 . S
Co105 O113 2.055 . S
Co105 O116 2.039 . S
Co105 N119 2.140 . S
C106 O107 1.227 . S
C106 O116 1.265 . S
O107 C106 1.227 . S
N108 Co105 2.121 . S
N108 C110 1.375 . S
N108 C111 1.313 . S
C109 C110 1.338 . S
C109 N112 1.377 . S
C109 H129 0.930 . S
C110 N108 1.375 . S
C110 C109 1.338 . S
C110 H114 0.931 . S
C111 N108 1.313 . S
C111 N112 1.344 . S
C111 H115 0.930 . S
N112 C109 1.377 . S
N112 C111 1.344 . S
O113 Co105 2.055 . S
O113 C117 1.253 . S
H114 C110 0.931 . S
H115 C111 0.930 . S
O116 Co105 2.039 . S
O116 C106 1.265 . S
C117 O113 1.253 . S
C117 O118 1.227 . S
O118 C117 1.227 . S
N119 Co105 2.140 . S
N119 C122 1.346 1_655 S
N119 C123 1.345 . S
C120 C121 1.387 . S
C120 C124 1.391 . S
C121 C120 1.387 . S
C121 C122 1.369 . S
C121 H130 0.929 . S
C122 N119 1.346 1_455 S
C122 C121 1.369 . S
C122 H125 0.928 . S
C123 N119 1.345 . S
C123 C124 1.371 1_655 S
C123 H126 0.931 . S
C124 C120 1.391 . S
C124 C123 1.371 1_455 S
C124 H131 0.930 . S
H125 C122 0.928 . S
H126 C123 0.931 . S
H127 C103 0.930 . S
H128 C100 0.930 . S
H129 C109 0.930 . S
H130 C121 0.929 . S
H131 C124 0.930 . S
C132 C133 1.351 . S
C132 N135 1.368 . S
C132 H137 0.931 . S
C133 C132 1.351 . S
C133 N134 1.373 . S
C133 H161 0.930 . S
N134 C133 1.373 . S
N134 C136 1.340 . S
N135 C132 1.368 . S
N135 C136 1.321 . S
N135 Co138 2.135 . S
C136 N134 1.340 . S
C136 N135 1.321 . S
C136 H160 0.930 . S
H137 C132 0.931 . S
Co138 N135 2.135 . S
Co138 N141 2.121 . S
Co138 O146 2.055 . S
Co138 O149 2.039 . S
Co138 N152 2.140 . S
C139 O140 1.227 . S
C139 O149 1.265 . S
O140 C139 1.227 . S
N141 Co138 2.121 . S
N141 C143 1.375 . S
N141 C144 1.313 . S
C142 C143 1.338 . S
C142 N145 1.377 . S
C142 H162 0.930 . S
C143 N141 1.375 . S
C143 C142 1.338 . S
C143 H147 0.931 . S
C144 N141 1.313 . S
C144 N145 1.344 . S
C144 H148 0.930 . S
N145 C142 1.377 . S
N145 C144 1.344 . S
O146 Co138 2.055 . S
O146 C150 1.253 . S
H147 C143 0.931 . S
H148 C144 0.930 . S
O149 Co138 2.039 . S
O149 C139 1.265 . S
C150 O146 1.253 . S
C150 O151 1.227 . S
O151 C150 1.227 . S
N152 Co138 2.140 . S
N152 C155 1.346 1_655 S
N152 C156 1.345 . S
C153 C154 1.387 . S
C153 C157 1.391 . S
C154 C153 1.387 . S
C154 C155 1.369 . S
C154 H163 0.929 . S
C155 N152 1.346 1_455 S
C155 C154 1.369 . S
C155 H158 0.928 . S
C156 N152 1.345 . S
C156 C157 1.371 1_655 S
C156 H159 0.931 . S
C157 C153 1.391 . S
C157 C156 1.371 1_455 S
C157 H164 0.930 . S
H158 C155 0.928 . S
H159 C156 0.931 . S
H160 C136 0.930 . S
H161 C133 0.930 . S
H162 C142 0.930 . S
H163 C154 0.929 . S
H164 C157 0.930 . S
C165 C166 1.351 . S
C165 N168 1.368 . S
C165 H170 0.931 . S
C166 C165 1.351 . S
C166 N167 1.373 . S
C166 H194 0.930 . S
N167 C166 1.373 . S
N167 C169 1.340 . S
N168 C165 1.368 . S
N168 C169 1.321 . S
N168 Co171 2.135 . S
C169 N167 1.340 . S
C169 N168 1.321 . S
C169 H193 0.930 . S
H170 C165 0.931 . S
Co171 N168 2.135 . S
Co171 N174 2.121 . S
Co171 O179 2.055 . S
Co171 O182 2.039 . S
Co171 N185 2.140 . S
C172 O173 1.227 . S
C172 O182 1.265 . S
O173 C172 1.227 . S
N174 Co171 2.121 . S
N174 C176 1.375 . S
N174 C177 1.313 . S
C175 C176 1.338 . S
C175 N178 1.377 . S
C175 H195 0.930 . S
C176 N174 1.375 . S
C176 C175 1.338 . S
C176 H180 0.931 . S
C177 N174 1.313 . S
C177 N178 1.344 . S
C177 H181 0.930 . S
N178 C175 1.377 . S
N178 C177 1.344 . S
O179 Co171 2.055 . S
O179 C183 1.253 . S
H180 C176 0.931 . S
H181 C177 0.930 . S
O182 Co171 2.039 . S
O182 C172 1.265 . S
C183 O179 1.253 . S
C183 O184 1.227 . S
O184 C183 1.227 . S
N185 Co171 2.140 . S
N185 C188 1.346 . S
N185 C189 1.345 . S
C186 C187 1.387 . S
C186 C190 1.391 . S
C187 C186 1.387 . S
C187 C188 1.369 . S
C187 H196 0.929 . S
C188 N185 1.346 . S
C188 C187 1.369 . S
C188 H191 0.928 . S
C189 N185 1.345 . S
C189 C190 1.371 . S
C189 H192 0.931 . S
C190 C186 1.391 . S
C190 C189 1.371 . S
C190 H197 0.930 . S
H191 C188 0.928 . S
H192 C189 0.931 . S
H193 C169 0.930 . S
H194 C166 0.930 . S
H195 C175 0.930 . S
H196 C187 0.929 . S
H197 C190 0.930 . S
C198 C199 1.351 . S
C198 N201 1.368 . S
C198 H203 0.931 . S
C199 C198 1.351 . S
C199 N200 1.373 . S
C199 H227 0.930 . S
N200 C199 1.373 . S
N200 C202 1.340 . S
N201 C198 1.368 . S
N201 C202 1.321 . S
N201 Co204 2.135 . S
C202 N200 1.340 . S
C202 N201 1.321 . S
C202 H226 0.930 . S
H203 C198 0.931 . S
Co204 N201 2.135 . S
Co204 N207 2.121 . S
Co204 O212 2.055 . S
Co204 O215 2.039 . S
Co204 N218 2.140 . S
C205 O206 1.227 . S
C205 O215 1.265 . S
O206 C205 1.227 . S
N207 Co204 2.121 . S
N207 C209 1.375 . S
N207 C210 1.313 . S
C208 C209 1.338 . S
C208 N211 1.377 . S
C208 H228 0.930 . S
C209 N207 1.375 . S
C209 C208 1.338 . S
C209 H213 0.931 . S
C210 N207 1.313 . S
C210 N211 1.344 . S
C210 H214 0.930 . S
N211 C208 1.377 . S
N211 C210 1.344 . S
O212 Co204 2.055 . S
O212 C216 1.253 . S
H213 C209 0.931 . S
H214 C210 0.930 . S
O215 Co204 2.039 . S
O215 C205 1.265 . S
C216 O212 1.253 . S
C216 O217 1.227 . S
O217 C216 1.227 . S
N218 Co204 2.140 . S
N218 C221 1.346 . S
N218 C222 1.345 . S
C219 C220 1.387 . S
C219 C223 1.391 . S
C220 C219 1.387 . S
C220 C221 1.369 . S
C220 H229 0.929 . S
C221 N218 1.346 . S
C221 C220 1.369 . S
C221 H224 0.928 . S
C222 N218 1.345 . S
C222 C223 1.371 . S
C222 H225 0.931 . S
C223 C219 1.391 . S
C223 C222 1.371 . S
C223 H230 0.930 . S
H224 C221 0.928 . S
H225 C222 0.931 . S
H226 C202 0.930 . S
H227 C199 0.930 . S
H228 C208 0.930 . S
H229 C220 0.929 . S
H230 C223 0.930 . S
C231 C232 1.351 . S
C231 N234 1.368 . S
C231 H236 0.931 . S
C232 C231 1.351 . S
C232 N233 1.373 . S
C232 H260 0.930 . S
N233 C232 1.373 . S
N233 C235 1.340 . S
N234 C231 1.368 . S
N234 C235 1.321 . S
N234 Co237 2.135 . S
C235 N233 1.340 . S
C235 N234 1.321 . S
C235 H259 0.930 . S
H236 C231 0.931 . S
Co237 N234 2.135 . S
Co237 N240 2.121 . S
Co237 O245 2.055 . S
Co237 O248 2.039 . S
Co237 N251 2.140 . S
C238 O239 1.227 . S
C238 O248 1.265 . S
O239 C238 1.227 . S
N240 Co237 2.121 . S
N240 C242 1.375 . S
N240 C243 1.313 . S
C241 C242 1.338 . S
C241 N244 1.377 . S
C241 H261 0.930 . S
C242 N240 1.375 . S
C242 C241 1.338 . S
C242 H246 0.931 . S
C243 N240 1.313 . S
C243 N244 1.344 . S
C243 H247 0.930 . S
N244 C241 1.377 . S
N244 C243 1.344 . S
O245 Co237 2.055 . S
O245 C249 1.253 . S
H246 C242 0.931 . S
H247 C243 0.930 . S
O248 Co237 2.039 . S
O248 C238 1.265 . S
C249 O245 1.253 . S
C249 O250 1.227 . S
O250 C249 1.227 . S
N251 Co237 2.140 . S
N251 C254 1.346 1_455 S
N251 C255 1.345 . S
C252 C253 1.387 . S
C252 C256 1.391 . S
C253 C252 1.387 . S
C253 C254 1.369 . S
C253 H262 0.929 . S
C254 N251 1.346 1_655 S
C254 C253 1.369 . S
C254 H257 0.928 . S
C255 N251 1.345 . S
C255 C256 1.371 1_455 S
C255 H258 0.931 . S
C256 C252 1.391 . S
C256 C255 1.371 1_655 S
C256 H263 0.930 . S
H257 C254 0.928 . S
H258 C255 0.931 . S
H259 C235 0.930 . S
H260 C232 0.930 . S
H261 C241 0.930 . S
H262 C253 0.929 . S
H263 C256 0.930 . S
C264 C265 1.351 . S
C264 N267 1.368 . S
C264 H269 0.931 . S
C265 C264 1.351 . S
C265 N266 1.373 . S
C265 H293 0.930 . S
N266 C265 1.373 . S
N266 C268 1.340 . S
N267 C264 1.368 . S
N267 C268 1.321 . S
N267 Co270 2.135 . S
C268 N266 1.340 . S
C268 N267 1.321 . S
C268 H292 0.930 . S
H269 C264 0.931 . S
Co270 N267 2.135 . S
Co270 N273 2.121 . S
Co270 O278 2.055 . S
Co270 O281 2.039 . S
Co270 N284 2.140 . S
C271 O272 1.227 . S
C271 O281 1.265 . S
O272 C271 1.227 . S
N273 Co270 2.121 . S
N273 C275 1.375 . S
N273 C276 1.313 . S
C274 C275 1.338 . S
C274 N277 1.377 . S
C274 H294 0.930 . S
C275 N273 1.375 . S
C275 C274 1.338 . S
C275 H279 0.931 . S
C276 N273 1.313 . S
C276 N277 1.344 . S
C276 H280 0.930 . S
N277 C274 1.377 . S
N277 C276 1.344 . S
O278 Co270 2.055 . S
O278 C282 1.253 . S
H279 C275 0.931 . S
H280 C276 0.930 . S
O281 Co270 2.039 . S
O281 C271 1.265 . S
C282 O278 1.253 . S
C282 O283 1.227 . S
O283 C282 1.227 . S
N284 Co270 2.140 . S
N284 C287 1.346 . S
N284 C288 1.345 . S
C285 C286 1.387 . S
C285 C289 1.391 . S
C286 C285 1.387 . S
C286 C287 1.369 . S
C286 H295 0.929 . S
C287 N284 1.346 . S
C287 C286 1.369 . S
C287 H290 0.928 . S
C288 N284 1.345 . S
C288 C289 1.371 . S
C288 H291 0.931 . S
C289 C285 1.391 . S
C289 C288 1.371 . S
C289 H296 0.930 . S
H290 C287 0.928 . S
H291 C288 0.931 . S
H292 C268 0.930 . S
H293 C265 0.930 . S
H294 C274 0.930 . S
H295 C286 0.929 . S
H296 C289 0.930 . S
C297 C298 1.351 . S
C297 N300 1.368 . S
C297 H302 0.931 . S
C298 C297 1.351 . S
C298 N299 1.373 . S
C298 H326 0.930 . S
N299 C298 1.373 . S
N299 C301 1.340 . S
N300 C297 1.368 . S
N300 C301 1.321 . S
N300 Co303 2.135 . S
C301 N299 1.340 . S
C301 N300 1.321 . S
C301 H325 0.930 . S
H302 C297 0.931 . S
Co303 N300 2.135 . S
Co303 N306 2.121 . S
Co303 O311 2.055 . S
Co303 O314 2.039 . S
Co303 N317 2.140 . S
C304 O305 1.227 . S
C304 O314 1.265 . S
O305 C304 1.227 . S
N306 Co303 2.121 . S
N306 C308 1.375 . S
N306 C309 1.313 . S
C307 C308 1.338 . S
C307 N310 1.377 . S
C307 H327 0.930 . S
C308 N306 1.375 . S
C308 C307 1.338 . S
C308 H312 0.931 . S
C309 N306 1.313 . S
C309 N310 1.344 . S
C309 H313 0.930 . S
N310 C307 1.377 . S
N310 C309 1.344 . S
O311 Co303 2.055 . S
O311 C315 1.253 . S
H312 C308 0.931 . S
H313 C309 0.930 . S
O314 Co303 2.039 . S
O314 C304 1.265 . S
C315 O311 1.253 . S
C315 O316 1.227 . S
O316 C315 1.227 . S
N317 Co303 2.140 . S
N317 C320 1.346 1_655 S
N317 C321 1.345 . S
C318 C319 1.387 . S
C318 C322 1.391 . S
C319 C318 1.387 . S
C319 C320 1.369 . S
C319 H328 0.929 . S
C320 N317 1.346 1_455 S
C320 C319 1.369 . S
C320 H323 0.928 . S
C321 N317 1.345 . S
C321 C322 1.371 1_655 S
C321 H324 0.931 . S
C322 C318 1.391 . S
C322 C321 1.371 1_455 S
C322 H329 0.930 . S
H323 C320 0.928 . S
H324 C321 0.931 . S
H325 C301 0.930 . S
H326 C298 0.930 . S
H327 C307 0.930 . S
H328 C319 0.929 . S
H329 C322 0.930 . S
C330 C331 1.351 . S
C330 N333 1.368 . S
C330 H335 0.931 . S
C331 C330 1.351 . S
C331 N332 1.373 . S
C331 H359 0.930 . S
N332 C331 1.373 . S
N332 C334 1.340 . S
N333 C330 1.368 . S
N333 C334 1.321 . S
N333 Co336 2.135 . S
C334 N332 1.340 . S
C334 N333 1.321 . S
C334 H358 0.930 . S
H335 C330 0.931 . S
Co336 N333 2.135 . S
Co336 N339 2.121 . S
Co336 O344 2.055 . S
Co336 O347 2.039 . S
Co336 N350 2.140 . S
C337 O338 1.227 . S
C337 O347 1.265 . S
O338 C337 1.227 . S
N339 Co336 2.121 . S
N339 C341 1.375 . S
N339 C342 1.313 . S
C340 C341 1.338 . S
C340 N343 1.377 . S
C340 H360 0.930 . S
C341 N339 1.375 . S
C341 C340 1.338 . S
C341 H345 0.931 . S
C342 N339 1.313 . S
C342 N343 1.344 . S
C342 H346 0.930 . S
N343 C340 1.377 . S
N343 C342 1.344 . S
O344 Co336 2.055 . S
O344 C348 1.253 . S
H345 C341 0.931 . S
H346 C342 0.930 . S
O347 Co336 2.039 . S
O347 C337 1.265 . S
C348 O344 1.253 . S
C348 O349 1.227 . S
O349 C348 1.227 . S
N350 Co336 2.140 . S
N350 C353 1.346 1_455 S
N350 C354 1.345 . S
C351 C352 1.387 . S
C351 C355 1.391 . S
C352 C351 1.387 . S
C352 C353 1.369 . S
C352 H361 0.929 . S
C353 N350 1.346 1_655 S
C353 C352 1.369 . S
C353 H356 0.928 . S
C354 N350 1.345 . S
C354 C355 1.371 1_455 S
C354 H357 0.931 . S
C355 C351 1.391 . S
C355 C354 1.371 1_655 S
C355 H362 0.930 . S
H356 C353 0.928 . S
H357 C354 0.931 . S
H358 C334 0.930 . S
H359 C331 0.930 . S
H360 C340 0.930 . S
H361 C352 0.929 . S
H362 C355 0.930 . S
C363 C364 1.351 . S
C363 N366 1.368 . S
C363 H368 0.931 . S
C364 C363 1.351 . S
C364 N365 1.373 . S
C364 H392 0.930 . S
N365 C364 1.373 . S
N365 C367 1.340 . S
N366 C363 1.368 . S
N366 C367 1.321 . S
N366 Co369 2.135 . S
C367 N365 1.340 . S
C367 N366 1.321 . S
C367 H391 0.930 . S
H368 C363 0.931 . S
Co369 N366 2.135 . S
Co369 N372 2.121 . S
Co369 O377 2.055 . S
Co369 O380 2.039 . S
Co369 N383 2.140 . S
C370 O371 1.227 . S
C370 O380 1.265 . S
O371 C370 1.227 . S
N372 Co369 2.121 . S
N372 C374 1.375 . S
N372 C375 1.313 . S
C373 C374 1.338 . S
C373 N376 1.377 . S
C373 H393 0.930 . S
C374 N372 1.375 . S
C374 C373 1.338 . S
C374 H378 0.931 . S
C375 N372 1.313 . S
C375 N376 1.344 . S
C375 H379 0.930 . S
N376 C373 1.377 . S
N376 C375 1.344 . S
O377 Co369 2.055 . S
O377 C381 1.253 . S
H378 C374 0.931 . S
H379 C375 0.930 . S
O380 Co369 2.039 . S
O380 C370 1.265 . S
C381 O377 1.253 . S
C381 O382 1.227 . S
O382 C381 1.227 . S
N383 Co369 2.140 . S
N383 C386 1.346 . S
N383 C387 1.345 . S
C384 C385 1.387 . S
C384 C388 1.391 . S
C385 C384 1.387 . S
C385 C386 1.369 . S
C385 H394 0.929 . S
C386 N383 1.346 . S
C386 C385 1.369 . S
C386 H389 0.928 . S
C387 N383 1.345 . S
C387 C388 1.371 . S
C387 H390 0.931 . S
C388 C384 1.391 . S
C388 C387 1.371 . S
C388 H395 0.930 . S
H389 C386 0.928 . S
H390 C387 0.931 . S
H391 C367 0.930 . S
H392 C364 0.930 . S
H393 C373 0.930 . S
H394 C385 0.929 . S
H395 C388 0.930 . S
C396 C397 1.351 . S
C396 N399 1.368 . S
C396 H401 0.931 . S
C397 C396 1.351 . S
C397 N398 1.373 . S
C397 H425 0.930 . S
N398 C397 1.373 . S
N398 C400 1.340 . S
N399 C396 1.368 . S
N399 C400 1.321 . S
N399 Co402 2.135 . S
C400 N398 1.340 . S
C400 N399 1.321 . S
C400 H424 0.930 . S
H401 C396 0.931 . S
Co402 N399 2.135 . S
Co402 N405 2.121 . S
Co402 O410 2.055 . S
Co402 O413 2.039 . S
Co402 N416 2.140 . S
C403 O404 1.227 . S
C403 O413 1.265 . S
O404 C403 1.227 . S
N405 Co402 2.121 . S
N405 C407 1.375 . S
N405 C408 1.313 . S
C406 C407 1.338 . S
C406 N409 1.377 . S
C406 H426 0.930 . S
C407 N405 1.375 . S
C407 C406 1.338 . S
C407 H411 0.931 . S
C408 N405 1.313 . S
C408 N409 1.344 . S
C408 H412 0.930 . S
N409 C406 1.377 . S
N409 C408 1.344 . S
O410 Co402 2.055 . S
O410 C414 1.253 . S
H411 C407 0.931 . S
H412 C408 0.930 . S
O413 Co402 2.039 . S
O413 C403 1.265 . S
C414 O410 1.253 . S
C414 O415 1.227 . S
O415 C414 1.227 . S
N416 Co402 2.140 . S
N416 C419 1.346 . S
N416 C420 1.345 . S
C417 C418 1.387 . S
C417 C421 1.391 . S
C418 C417 1.387 . S
C418 C419 1.369 . S
C418 H427 0.929 . S
C419 N416 1.346 . S
C419 C418 1.369 . S
C419 H422 0.928 . S
C420 N416 1.345 . S
C420 C421 1.371 . S
C420 H423 0.931 . S
C421 C417 1.391 . S
C421 C420 1.371 . S
C421 H428 0.930 . S
H422 C419 0.928 . S
H423 C420 0.931 . S
H424 C400 0.930 . S
H425 C397 0.930 . S
H426 C406 0.930 . S
H427 C418 0.929 . S
H428 C421 0.930 . S
C429 C430 1.351 . S
C429 N432 1.368 . S
C429 H434 0.931 . S
C430 C429 1.351 . S
C430 N431 1.373 . S
C430 H458 0.930 . S
N431 C430 1.373 . S
N431 C433 1.340 . S
N432 C429 1.368 . S
N432 C433 1.321 . S
N432 Co435 2.135 . S
C433 N431 1.340 . S
C433 N432 1.321 . S
C433 H457 0.930 . S
H434 C429 0.931 . S
Co435 N432 2.135 . S
Co435 N438 2.121 . S
Co435 O443 2.055 . S
Co435 O446 2.039 . S
Co435 N449 2.140 . S
C436 O437 1.227 . S
C436 O446 1.265 . S
O437 C436 1.227 . S
N438 Co435 2.121 . S
N438 C440 1.375 . S
N438 C441 1.313 . S
C439 C440 1.338 . S
C439 N442 1.377 . S
C439 H459 0.930 . S
C440 N438 1.375 . S
C440 C439 1.338 . S
C440 H444 0.931 . S
C441 N438 1.313 . S
C441 N442 1.344 . S
C441 H445 0.930 . S
N442 C439 1.377 . S
N442 C441 1.344 . S
O443 Co435 2.055 . S
O443 C447 1.253 . S
H444 C440 0.931 . S
H445 C441 0.930 . S
O446 Co435 2.039 . S
O446 C436 1.265 . S
C447 O443 1.253 . S
C447 O448 1.227 . S
O448 C447 1.227 . S
N449 Co435 2.140 . S
N449 C452 1.346 1_455 S
N449 C453 1.345 . S
C450 C451 1.387 . S
C450 C454 1.391 . S
C451 C450 1.387 . S
C451 C452 1.369 . S
C451 H460 0.929 . S
C452 N449 1.346 1_655 S
C452 C451 1.369 . S
C452 H455 0.928 . S
C453 N449 1.345 . S
C453 C454 1.371 1_455 S
C453 H456 0.931 . S
C454 C450 1.391 . S
C454 C453 1.371 1_655 S
C454 H461 0.930 . S
H455 C452 0.928 . S
H456 C453 0.931 . S
H457 C433 0.930 . S
H458 C430 0.930 . S
H459 C439 0.930 . S
H460 C451 0.929 . S
H461 C454 0.930 . S
C462 C463 1.351 . S
C462 N465 1.368 . S
C462 H467 0.931 . S
C463 C462 1.351 . S
C463 N464 1.373 . S
C463 H491 0.930 . S
N464 C463 1.373 . S
N464 C466 1.340 . S
N465 C462 1.368 . S
N465 C466 1.321 . S
N465 Co468 2.135 . S
C466 N464 1.340 . S
C466 N465 1.321 . S
C466 H490 0.930 . S
H467 C462 0.931 . S
Co468 N465 2.135 . S
Co468 N471 2.121 . S
Co468 O476 2.055 . S
Co468 O479 2.039 . S
Co468 N482 2.140 . S
C469 O470 1.227 . S
C469 O479 1.265 . S
O470 C469 1.227 . S
N471 Co468 2.121 . S
N471 C473 1.375 . S
N471 C474 1.313 . S
C472 C473 1.338 . S
C472 N475 1.377 . S
C472 H492 0.930 . S
C473 N471 1.375 . S
C473 C472 1.338 . S
C473 H477 0.931 . S
C474 N471 1.313 . S
C474 N475 1.344 . S
C474 H478 0.930 . S
N475 C472 1.377 . S
N475 C474 1.344 . S
O476 Co468 2.055 . S
O476 C480 1.253 . S
H477 C473 0.931 . S
H478 C474 0.930 . S
O479 Co468 2.039 . S
O479 C469 1.265 . S
C480 O476 1.253 . S
C480 O481 1.227 . S
O481 C480 1.227 . S
N482 Co468 2.140 . S
N482 C485 1.346 1_655 S
N482 C486 1.345 . S
C483 C484 1.387 . S
C483 C487 1.391 . S
C484 C483 1.387 . S
C484 C485 1.369 . S
C484 H493 0.929 . S
C485 N482 1.346 1_455 S
C485 C484 1.369 . S
C485 H488 0.928 . S
C486 N482 1.345 . S
C486 C487 1.371 1_655 S
C486 H489 0.931 . S
C487 C483 1.391 . S
C487 C486 1.371 1_455 S
C487 H494 0.930 . S
H488 C485 0.928 . S
H489 C486 0.931 . S
H490 C466 0.930 . S
H491 C463 0.930 . S
H492 C472 0.930 . S
H493 C484 0.929 . S
H494 C487 0.930 . S
C495 C496 1.351 . S
C495 N498 1.368 . S
C495 H500 0.931 . S
C496 C495 1.351 . S
C496 N497 1.373 . S
C496 H524 0.930 . S
N497 C496 1.373 . S
N497 C499 1.340 . S
N498 C495 1.368 . S
N498 C499 1.321 . S
N498 Co501 2.135 . S
C499 N497 1.340 . S
C499 N498 1.321 . S
C499 H523 0.930 . S
H500 C495 0.931 . S
Co501 N498 2.135 . S
Co501 N504 2.121 . S
Co501 O509 2.055 . S
Co501 O512 2.039 . S
Co501 N515 2.140 . S
C502 O503 1.227 . S
C502 O512 1.265 . S
O503 C502 1.227 . S
N504 Co501 2.121 . S
N504 C506 1.375 . S
N504 C507 1.313 . S
C505 C506 1.338 . S
C505 N508 1.377 . S
C505 H525 0.930 . S
C506 N504 1.375 . S
C506 C505 1.338 . S
C506 H510 0.931 . S
C507 N504 1.313 . S
C507 N508 1.344 . S
C507 H511 0.930 . S
N508 C505 1.377 . S
N508 C507 1.344 . S
O509 Co501 2.055 . S
O509 C513 1.253 . S
H510 C506 0.931 . S
H511 C507 0.930 . S
O512 Co501 2.039 . S
O512 C502 1.265 . S
C513 O509 1.253 . S
C513 O514 1.227 . S
O514 C513 1.227 . S
N515 Co501 2.140 . S
N515 C518 1.346 . S
N515 C519 1.345 . S
C516 C517 1.387 . S
C516 C520 1.391 . S
C517 C516 1.387 . S
C517 C518 1.369 . S
C517 H526 0.929 . S
C518 N515 1.346 . S
C518 C517 1.369 . S
C518 H521 0.928 . S
C519 N515 1.345 . S
C519 C520 1.371 . S
C519 H522 0.931 . S
C520 C516 1.391 . S
C520 C519 1.371 . S
C520 H527 0.930 . S
H521 C518 0.928 . S
H522 C519 0.931 . S
H523 C499 0.930 . S
H524 C496 0.930 . S
H525 C505 0.930 . S
H526 C517 0.929 . S
H527 C520 0.930 . S
H528 C540 0.930 . S
H529 C542 0.930 . S
H530 C543 0.930 . S
H531 C547 0.959 . S
H532 C547 0.959 . S
H533 C547 0.961 . S
H534 C548 0.960 . S
H535 C548 0.961 . S
H536 C548 0.959 . S
H537 C551 0.929 . S
H538 C552 0.931 . S
H539 C554 0.930 . S
C540 H528 0.930 . S
C540 C541 1.399 . S
C540 C545 1.399 . S
C541 C540 1.399 . S
C541 C542 1.376 . S
C542 H529 0.930 . S
C542 C541 1.376 . S
C542 C543 1.388 . S
C543 H530 0.930 . S
C543 C542 1.388 . S
C543 C544 1.390 . S
C544 C543 1.390 . S
C544 C545 1.394 . S
C544 C550 1.465 1_556 S
C545 C540 1.399 . S
C545 C544 1.394 . S
C545 C546 1.516 1_556 S
C546 C545 1.516 1_554 S
C546 C547 1.502 . S
C546 C548 1.561 1_554 S
C546 C549 1.526 . S
C547 H531 0.959 . S
C547 H532 0.959 . S
C547 H533 0.961 . S
C547 C546 1.502 . S
C548 H534 0.960 . S
C548 H535 0.961 . S
C548 H536 0.959 . S
C548 C546 1.561 1_556 S
C549 C546 1.526 . S
C549 C550 1.396 . S
C549 C554 1.390 . S
C550 C544 1.465 1_554 S
C550 C549 1.396 . S
C550 C551 1.399 . S
C551 H537 0.929 . S
C551 C550 1.399 . S
C551 C552 1.385 . S
C552 H538 0.931 . S
C552 C551 1.385 . S
C552 C553 1.389 . S
C553 C552 1.389 . S
C553 C554 1.387 . S
C554 H539 0.930 . S
C554 C549 1.390 . S
C554 C553 1.387 . S
H555 C567 0.930 . S
H556 C569 0.930 . S
H557 C570 0.930 . S
H558 C574 0.959 . S
H559 C574 0.959 . S
H560 C574 0.961 . S
H561 C575 0.960 . S
H562 C575 0.961 . S
H563 C575 0.959 . S
H564 C578 0.929 . S
H565 C579 0.931 . S
H566 C581 0.930 . S
C567 H555 0.930 . S
C567 C568 1.399 . S
C567 C572 1.399 . S
C568 C567 1.399 . S
C568 C569 1.376 . S
C569 H556 0.930 . S
C569 C568 1.376 . S
C569 C570 1.388 . S
C570 H557 0.930 . S
C570 C569 1.388 . S
C570 C571 1.390 . S
C571 C570 1.390 . S
C571 C572 1.394 . S
C571 C577 1.465 1_556 S
C572 C567 1.399 . S
C572 C571 1.394 . S
C572 C573 1.516 1_556 S
C573 C572 1.516 1_554 S
C573 C574 1.502 . S
C573 C575 1.561 1_554 S
C573 C576 1.526 . S
C574 H558 0.959 . S
C574 H559 0.959 . S
C574 H560 0.961 . S
C574 C573 1.502 . S
C575 H561 0.960 . S
C575 H562 0.961 . S
C575 H563 0.959 . S
C575 C573 1.561 1_556 S
C576 C573 1.526 . S
C576 C577 1.396 . S
C576 C581 1.390 . S
C577 C571 1.465 1_554 S
C577 C576 1.396 . S
C577 C578 1.399 . S
C578 H564 0.929 . S
C578 C577 1.399 . S
C578 C579 1.385 . S
C579 H565 0.931 . S
C579 C578 1.385 . S
C579 C580 1.389 . S
C580 C579 1.389 . S
C580 C581 1.387 . S
C581 H566 0.930 . S
C581 C576 1.390 . S
C581 C580 1.387 . S
H582 C594 0.930 . S
H583 C596 0.930 . S
H584 C597 0.930 . S
H585 C601 0.959 . S
H586 C601 0.959 . S
H587 C601 0.961 . S
H588 C602 0.960 . S
H589 C602 0.961 . S
H590 C602 0.959 . S
H591 C605 0.929 . S
H592 C606 0.931 . S
H593 C608 0.930 . S
C594 H582 0.930 . S
C594 C595 1.399 . S
C594 C599 1.399 . S
C595 C594 1.399 . S
C595 C596 1.376 . S
C596 H583 0.930 . S
C596 C595 1.376 . S
C596 C597 1.388 . S
C597 H584 0.930 . S
C597 C596 1.388 . S
C597 C598 1.390 . S
C598 C597 1.390 . S
C598 C599 1.394 . S
C598 C604 1.465 . S
C599 C594 1.399 . S
C599 C598 1.394 . S
C599 C600 1.516 . S
C600 C599 1.516 . S
C600 C601 1.502 . S
C600 C602 1.561 . S
C600 C603 1.526 . S
C601 H585 0.959 . S
C601 H586 0.959 . S
C601 H587 0.961 . S
C601 C600 1.502 . S
C602 H588 0.960 . S
C602 H589 0.961 . S
C602 H590 0.959 . S
C602 C600 1.561 . S
C603 C600 1.526 . S
C603 C604 1.396 . S
C603 C608 1.390 . S
C604 C598 1.465 . S
C604 C603 1.396 . S
C604 C605 1.399 . S
C605 H591 0.929 . S
C605 C604 1.399 . S
C605 C606 1.385 . S
C606 H592 0.931 . S
C606 C605 1.385 . S
C606 C607 1.389 . S
C607 C606 1.389 . S
C607 C608 1.387 . S
C608 H593 0.930 . S
C608 C603 1.390 . S
C608 C607 1.387 . S
H609 C621 0.930 . S
H610 C623 0.930 . S
H611 C624 0.930 . S
H612 C628 0.959 . S
H613 C628 0.959 . S
H614 C628 0.961 . S
H615 C629 0.960 . S
H616 C629 0.961 . S
H617 C629 0.959 . S
H618 C632 0.929 . S
H619 C633 0.931 . S
H620 C635 0.930 . S
C621 H609 0.930 . S
C621 C622 1.399 . S
C621 C626 1.399 . S
C622 C621 1.399 . S
C622 C623 1.376 . S
C623 H610 0.930 . S
C623 C622 1.376 . S
C623 C624 1.388 . S
C624 H611 0.930 . S
C624 C623 1.388 . S
C624 C625 1.390 . S
C625 C624 1.390 . S
C625 C626 1.394 . S
C625 C631 1.465 . S
C626 C621 1.399 . S
C626 C625 1.394 . S
C626 C627 1.516 . S
C627 C626 1.516 . S
C627 C628 1.502 . S
C627 C629 1.561 . S
C627 C630 1.526 . S
C628 H612 0.959 . S
C628 H613 0.959 . S
C628 H614 0.961 . S
C628 C627 1.502 . S
C629 H615 0.960 . S
C629 H616 0.961 . S
C629 H617 0.959 . S
C629 C627 1.561 . S
C630 C627 1.526 . S
C630 C631 1.396 . S
C630 C635 1.390 . S
C631 C625 1.465 . S
C631 C630 1.396 . S
C631 C632 1.399 . S
C632 H618 0.929 . S
C632 C631 1.399 . S
C632 C633 1.385 . S
C633 H619 0.931 . S
C633 C632 1.385 . S
C633 C634 1.389 . S
C634 C633 1.389 . S
C634 C635 1.387 . S
C635 H620 0.930 . S
C635 C630 1.390 . S
C635 C634 1.387 . S
H636 C648 0.930 . S
H637 C650 0.930 . S
H638 C651 0.930 . S
H639 C655 0.959 . S
H640 C655 0.959 . S
H641 C655 0.967 . S
H642 C656 0.960 . S
H643 C656 0.961 . S
H644 C656 0.959 . S
H645 C659 0.930 . S
H646 C660 0.931 . S
H647 C662 0.930 . S
C648 H636 0.930 . S
C648 C649 1.399 . S
C648 C653 1.399 . S
C649 C648 1.399 . S
C649 C650 1.376 . S
C650 H637 0.930 . S
C650 C649 1.376 . S
C650 C651 1.388 . S
C651 H638 0.930 . S
C651 C650 1.388 . S
C651 C652 1.390 . S
C652 C651 1.390 . S
C652 C653 1.394 . S
C652 C658 1.465 . S
C653 C648 1.399 . S
C653 C652 1.394 . S
C653 C654 1.516 . S
C654 C653 1.516 . S
C654 C655 1.502 1_556 S
C654 C656 1.561 . S
C654 C657 1.526 1_556 S
C655 H639 0.959 . S
C655 H640 0.959 . S
C655 H641 0.967 . S
C655 C654 1.502 1_554 S
C656 H642 0.960 . S
C656 H643 0.961 . S
C656 H644 0.959 . S
C656 C654 1.561 . S
C657 C654 1.526 1_554 S
C657 C658 1.396 1_554 S
C657 C662 1.390 . S
C658 C652 1.465 . S
C658 C657 1.396 1_556 S
C658 C659 1.399 1_556 S
C659 H645 0.930 . S
C659 C658 1.399 1_554 S
C659 C660 1.385 . S
C660 H646 0.931 . S
C660 C659 1.385 . S
C660 C661 1.389 . S
C661 C660 1.389 . S
C661 C662 1.387 . S
C662 H647 0.930 . S
C662 C657 1.390 . S
C662 C661 1.387 . S
H663 C675 0.930 . S
H664 C677 0.930 . S
H665 C678 0.930 . S
H666 C682 0.959 . S
H667 C682 0.959 . S
H668 C682 0.961 . S
H669 C683 0.960 . S
H670 C683 0.961 . S
H671 C683 0.959 . S
H672 C686 0.929 . S
H673 C687 0.931 . S
H674 C689 0.930 . S
C675 H663 0.930 . S
C675 C676 1.399 . S
C675 C680 1.399 . S
C676 C675 1.399 . S
C676 C677 1.376 . S
C677 H664 0.930 . S
C677 C676 1.376 . S
C677 C678 1.388 . S
C678 H665 0.930 . S
C678 C677 1.388 . S
C678 C679 1.390 . S
C679 C678 1.390 . S
C679 C680 1.394 . S
C679 C685 1.465 1_556 S
C680 C675 1.399 . S
C680 C679 1.394 . S
C680 C681 1.516 . S
C681 C680 1.516 . S
C681 C682 1.502 . S
C681 C683 1.561 1_556 S
C681 C684 1.526 1_556 S
C682 H666 0.959 . S
C682 H667 0.959 . S
C682 H668 0.961 . S
C682 C681 1.502 . S
C683 H669 0.960 . S
C683 H670 0.961 . S
C683 H671 0.959 . S
C683 C681 1.561 1_554 S
C684 C681 1.526 1_554 S
C684 C685 1.396 . S
C684 C689 1.390 . S
C685 C679 1.465 1_554 S
C685 C684 1.396 . S
C685 C686 1.399 . S
C686 H672 0.929 . S
C686 C685 1.399 . S
C686 C687 1.385 . S
C687 H673 0.931 . S
C687 C686 1.385 . S
C687 C688 1.389 . S
C688 C687 1.389 . S
C688 C689 1.387 . S
C689 H674 0.930 . S
C689 C684 1.390 . S
C689 C688 1.387 . S
H690 C702 0.930 . S
H691 C704 0.930 . S
H692 C705 0.930 . S
H693 C709 0.959 . S
H694 C709 0.959 . S
H695 C709 0.961 . S
H696 C710 0.960 . S
H697 C710 0.961 . S
H698 C710 0.959 . S
H699 C713 0.929 . S
H700 C714 0.931 . S
H701 C716 0.930 . S
C702 H690 0.930 . S
C702 C703 1.399 . S
C702 C707 1.399 . S
C703 C702 1.399 . S
C703 C704 1.376 . S
C704 H691 0.930 . S
C704 C703 1.376 . S
C704 C705 1.388 . S
C705 H692 0.930 . S
C705 C704 1.388 . S
C705 C706 1.390 . S
C706 C705 1.390 . S
C706 C707 1.394 . S
C706 C712 1.465 . S
C707 C702 1.399 . S
C707 C706 1.394 . S
C707 C708 1.516 . S
C708 C707 1.516 . S
C708 C709 1.502 . S
C708 C710 1.561 . S
C708 C711 1.526 . S
C709 H693 0.959 . S
C709 H694 0.959 . S
C709 H695 0.961 . S
C709 C708 1.502 . S
C710 H696 0.960 . S
C710 H697 0.961 . S
C710 H698 0.959 . S
C710 C708 1.561 . S
C711 C708 1.526 . S
C711 C712 1.396 . S
C711 C716 1.390 . S
C712 C706 1.465 . S
C712 C711 1.396 . S
C712 C713 1.399 . S
C713 H699 0.929 . S
C713 C712 1.399 . S
C713 C714 1.385 . S
C714 H700 0.931 . S
C714 C713 1.385 . S
C714 C715 1.389 . S
C715 C714 1.389 . S
C715 C716 1.387 . S
C716 H701 0.930 . S
C716 C711 1.390 . S
C716 C715 1.387 . S
H717 C729 0.930 . S
H718 C731 0.930 . S
H719 C732 0.930 . S
H720 C736 0.959 . S
H721 C736 0.959 . S
H722 C736 0.961 . S
H723 C737 0.960 . S
H724 C737 0.961 . S
H725 C737 0.959 . S
H726 C740 0.929 . S
H727 C741 0.931 . S
H728 C743 0.930 . S
C729 H717 0.930 . S
C729 C730 1.399 . S
C729 C734 1.399 . S
C730 C729 1.399 . S
C730 C731 1.376 . S
C731 H718 0.930 . S
C731 C730 1.376 . S
C731 C732 1.388 . S
C732 H719 0.930 . S
C732 C731 1.388 . S
C732 C733 1.390 . S
C733 C732 1.390 . S
C733 C734 1.394 . S
C733 C739 1.465 . S
C734 C729 1.399 . S
C734 C733 1.394 . S
C734 C735 1.516 . S
C735 C734 1.516 . S
C735 C736 1.502 . S
C735 C737 1.561 . S
C735 C738 1.526 . S
C736 H720 0.959 . S
C736 H721 0.959 . S
C736 H722 0.961 . S
C736 C735 1.502 . S
C737 H723 0.960 . S
C737 H724 0.961 . S
C737 H725 0.959 . S
C737 C735 1.561 . S
C738 C735 1.526 . S
C738 C739 1.396 . S
C738 C743 1.390 . S
C739 C733 1.465 . S
C739 C738 1.396 . S
C739 C740 1.399 . S
C740 H726 0.929 . S
C740 C739 1.399 . S
C740 C741 1.385 . S
C741 H727 0.931 . S
C741 C740 1.385 . S
C741 C742 1.389 . S
C742 C741 1.389 . S
C742 C743 1.387 . S
C743 H728 0.930 . S
C743 C738 1.390 . S
C743 C742 1.387 . S
H744 C756 0.930 . S
H745 C758 0.930 . S
H746 C759 0.930 1_556 S
H747 C763 0.959 . S
H748 C763 0.959 . S
H749 C763 0.961 . S
H750 C764 0.960 . S
H751 C764 0.961 . S
H752 C764 0.959 . S
H753 C767 0.929 . S
H754 C768 0.931 . S
H755 C770 0.930 . S
C756 H744 0.930 . S
C756 C757 1.399 . S
C756 C761 1.399 . S
C757 C756 1.399 . S
C757 C758 1.376 . S
C758 H745 0.930 . S
C758 C757 1.376 . S
C758 C759 1.388 . S
C759 H746 0.930 1_554 S
C759 C758 1.388 . S
C759 C760 1.390 . S
C760 C759 1.390 . S
C760 C761 1.394 . S
C760 C766 1.465 1_554 S
C761 C756 1.399 . S
C761 C760 1.394 . S
C761 C762 1.516 . S
C762 C761 1.516 . S
C762 C763 1.502 . S
C762 C764 1.561 . S
C762 C765 1.526 . S
C763 H747 0.959 . S
C763 H748 0.959 . S
C763 H749 0.961 . S
C763 C762 1.502 . S
C764 H750 0.960 . S
C764 H751 0.961 . S
C764 H752 0.959 . S
C764 C762 1.561 . S
C765 C762 1.526 . S
C765 C766 1.396 1_554 S
C765 C770 1.390 1_554 S
C766 C760 1.465 1_556 S
C766 C765 1.396 1_556 S
C766 C767 1.399 . S
C767 H753 0.929 . S
C767 C766 1.399 . S
C767 C768 1.385 . S
C768 H754 0.931 . S
C768 C767 1.385 . S
C768 C769 1.389 . S
C769 C768 1.389 . S
C769 C770 1.387 . S
C770 H755 0.930 . S
C770 C765 1.390 1_556 S
C770 C769 1.387 . S
H771 C783 0.930 . S
H772 C785 0.930 . S
H773 C786 0.930 1_556 S
H774 C790 0.959 . S
H775 C790 0.959 . S
H776 C790 0.961 . S
H777 C791 0.960 . S
H778 C791 0.961 . S
H779 C791 0.959 1_556 S
H780 C794 0.929 . S
H781 C795 0.931 . S
H782 C797 0.930 . S
C783 H771 0.930 . S
C783 C784 1.399 . S
C783 C788 1.399 . S
C784 C783 1.399 . S
C784 C785 1.376 . S
C785 H772 0.930 . S
C785 C784 1.376 . S
C785 C786 1.388 . S
C786 H773 0.930 1_554 S
C786 C785 1.388 . S
C786 C787 1.390 . S
C787 C786 1.390 . S
C787 C788 1.394 . S
C787 C793 1.465 1_554 S
C788 C783 1.399 . S
C788 C787 1.394 . S
C788 C789 1.516 . S
C789 C788 1.516 . S
C789 C790 1.502 . S
C789 C791 1.561 . S
C789 C792 1.508 1_554 S
C790 H774 0.959 . S
C790 H775 0.959 . S
C790 H776 0.961 . S
C790 C789 1.502 . S
C791 H777 0.960 . S
C791 H778 0.961 . S
C791 H779 0.959 1_554 S
C791 C789 1.561 . S
C792 C789 1.508 1_556 S
C792 C793 1.403 . S
C792 C797 1.401 . S
C793 C787 1.465 1_556 S
C793 C792 1.403 . S
C793 C794 1.399 . S
C794 H780 0.929 . S
C794 C793 1.399 . S
C794 C795 1.385 . S
C795 H781 0.931 . S
C795 C794 1.385 . S
C795 C796 1.389 . S
C796 C795 1.389 . S
C796 C797 1.387 . S
C797 H782 0.930 . S
C797 C792 1.401 . S
C797 C796 1.387 . S
H798 C810 0.930 . S
H799 C812 0.930 . S
H800 C813 0.930 . S
H801 C817 0.959 . S
H802 C817 0.959 . S
H803 C817 0.961 . S
H804 C818 0.960 . S
H805 C818 0.961 . S
H806 C818 0.959 . S
H807 C821 0.929 . S
H808 C822 0.931 . S
H809 C824 0.930 . S
C810 H798 0.930 . S
C810 C811 1.399 . S
C810 C815 1.399 . S
C811 C810 1.399 . S
C811 C812 1.376 . S
C812 H799 0.930 . S
C812 C811 1.376 . S
C812 C813 1.388 . S
C813 H800 0.930 . S
C813 C812 1.388 . S
C813 C814 1.390 . S
C814 C813 1.390 . S
C814 C815 1.394 . S
C814 C820 1.465 . S
C815 C810 1.399 . S
C815 C814 1.394 . S
C815 C816 1.516 . S
C816 C815 1.516 . S
C816 C817 1.502 . S
C816 C818 1.561 . S
C816 C819 1.526 . S
C817 H801 0.959 . S
C817 H802 0.959 . S
C817 H803 0.961 . S
C817 C816 1.502 . S
C818 H804 0.960 . S
C818 H805 0.961 . S
C818 H806 0.959 . S
C818 C816 1.561 . S
C819 C816 1.526 . S
C819 C820 1.396 . S
C819 C824 1.390 . S
C820 C814 1.465 . S
C820 C819 1.396 . S
C820 C821 1.399 . S
C821 H807 0.929 . S
C821 C820 1.399 . S
C821 C822 1.385 . S
C822 H808 0.931 . S
C822 C821 1.385 . S
C822 C823 1.389 . S
C823 C822 1.389 . S
C823 C824 1.387 . S
C824 H809 0.930 . S
C824 C819 1.390 . S
C824 C823 1.387 . S
H825 C837 0.930 . S
H826 C839 0.930 . S
H827 C840 0.930 . S
H828 C844 0.959 . S
H829 C844 0.959 . S
H830 C844 0.961 . S
H831 C845 0.960 . S
H832 C845 0.961 . S
H833 C845 0.959 . S
H834 C848 0.929 . S
H835 C849 0.931 . S
H836 C851 0.930 . S
C837 H825 0.930 . S
C837 C838 1.399 . S
C837 C842 1.399 . S
C838 C837 1.399 . S
C838 C839 1.376 . S
C839 H826 0.930 . S
C839 C838 1.376 . S
C839 C840 1.388 . S
C840 H827 0.930 . S
C840 C839 1.388 . S
C840 C841 1.390 . S
C841 C840 1.390 . S
C841 C842 1.394 . S
C841 C847 1.465 . S
C842 C837 1.399 . S
C842 C841 1.394 . S
C842 C843 1.516 . S
C843 C842 1.516 . S
C843 C844 1.502 . S
C843 C845 1.561 . S
C843 C846 1.526 . S
C844 H828 0.959 . S
C844 H829 0.959 . S
C844 H830 0.961 . S
C844 C843 1.502 . S
C845 H831 0.960 . S
C845 H832 0.961 . S
C845 H833 0.959 . S
C845 C843 1.561 . S
C846 C843 1.526 . S
C846 C847 1.396 . S
C846 C851 1.390 . S
C847 C841 1.465 . S
C847 C846 1.396 . S
C847 C848 1.399 . S
C848 H834 0.929 . S
C848 C847 1.399 . S
C848 C849 1.385 . S
C849 H835 0.931 . S
C849 C848 1.385 . S
C849 C850 1.389 . S
C850 C849 1.389 . S
C850 C851 1.387 . S
C851 H836 0.930 . S
C851 C846 1.390 . S
C851 C850 1.387 . S
H852 C864 0.930 . S
H853 C866 0.930 . S
H854 C867 0.930 . S
H855 C871 0.959 . S
H856 C871 0.959 . S
H857 C871 0.961 . S
H858 C872 0.960 1_556 S
H859 C872 0.961 . S
H860 C872 0.959 . S
H861 C875 0.929 . S
H862 C876 0.931 . S
H863 C878 0.930 . S
C864 H852 0.930 . S
C864 C865 1.399 . S
C864 C869 1.399 . S
C865 C864 1.399 . S
C865 C866 1.376 . S
C866 H853 0.930 . S
C866 C865 1.376 . S
C866 C867 1.388 . S
C867 H854 0.930 . S
C867 C866 1.388 . S
C867 C868 1.390 . S
C868 C867 1.390 . S
C868 C869 1.394 . S
C868 C874 1.465 1_556 S
C869 C864 1.399 . S
C869 C868 1.394 . S
C869 C870 1.516 . S
C870 C869 1.516 . S
C870 C871 1.502 . S
C870 C872 1.561 1_556 S
C870 C873 1.526 1_556 S
C871 H855 0.959 . S
C871 H856 0.959 . S
C871 H857 0.961 . S
C871 C870 1.502 . S
C872 H858 0.960 1_554 S
C872 H859 0.961 . S
C872 H860 0.959 . S
C872 C870 1.561 1_554 S
C873 C870 1.526 1_554 S
C873 C874 1.396 . S
C873 C878 1.390 . S
C874 C868 1.465 1_554 S
C874 C873 1.396 . S
C874 C875 1.399 . S
C875 H861 0.929 . S
C875 C874 1.399 . S
C875 C876 1.385 . S
C876 H862 0.931 . S
C876 C875 1.385 . S
C876 C877 1.389 . S
C877 C876 1.389 . S
C877 C878 1.387 . S
C878 H863 0.930 . S
C878 C873 1.390 . S
C878 C877 1.387 . S
H879 C891 0.930 . S
H880 C893 0.930 . S
H881 C894 0.930 . S
H882 C898 0.959 . S
H883 C898 0.959 . S
H884 C898 0.961 . S
H885 C899 0.960 . S
H886 C899 0.961 . S
H887 C899 0.959 . S
H888 C902 0.929 . S
H889 C903 0.931 . S
H890 C905 0.930 . S
C891 H879 0.930 . S
C891 C892 1.399 . S
C891 C896 1.399 . S
C892 C891 1.399 . S
C892 C893 1.376 . S
C893 H880 0.930 . S
C893 C892 1.376 . S
C893 C894 1.388 . S
C894 H881 0.930 . S
C894 C893 1.388 . S
C894 C895 1.390 . S
C895 C894 1.390 . S
C895 C896 1.394 . S
C895 C901 1.465 1_556 S
C896 C891 1.399 . S
C896 C895 1.394 . S
C896 C897 1.516 . S
C897 C896 1.516 . S
C897 C898 1.502 . S
C897 C899 1.561 1_556 S
C897 C900 1.526 1_556 S
C898 H882 0.959 . S
C898 H883 0.959 . S
C898 H884 0.961 . S
C898 C897 1.502 . S
C899 H885 0.960 . S
C899 H886 0.961 . S
C899 H887 0.959 . S
C899 C897 1.561 1_554 S
C900 C897 1.526 1_554 S
C900 C901 1.396 . S
C900 C905 1.390 . S
C901 C895 1.465 1_554 S
C901 C900 1.396 . S
C901 C902 1.399 . S
C902 H888 0.929 . S
C902 C901 1.399 . S
C902 C903 1.385 . S
C903 H889 0.931 . S
C903 C902 1.385 . S
C903 C904 1.389 . S
C904 C903 1.389 . S
C904 C905 1.387 . S
C905 H890 0.930 . S
C905 C900 1.390 . S
C905 C904 1.387 . S
H906 C918 0.930 . S
H907 C920 0.930 . S
H908 C921 0.930 . S
H909 C925 0.959 . S
H910 C925 0.959 . S
H911 C925 0.961 . S
H912 C926 0.960 . S
H913 C926 0.961 . S
H914 C926 0.959 . S
H915 C929 0.929 . S
H916 C930 0.931 . S
H917 C932 0.930 . S
C918 H906 0.930 . S
C918 C919 1.399 . S
C918 C923 1.399 . S
C919 C918 1.399 . S
C919 C920 1.376 . S
C920 H907 0.930 . S
C920 C919 1.376 . S
C920 C921 1.388 . S
C921 H908 0.930 . S
C921 C920 1.388 . S
C921 C922 1.390 . S
C922 C921 1.390 . S
C922 C923 1.394 . S
C922 C928 1.465 . S
C923 C918 1.399 . S
C923 C922 1.394 . S
C923 C924 1.516 . S
C924 C923 1.516 . S
C924 C925 1.502 . S
C924 C926 1.561 . S
C924 C927 1.526 . S
C925 H909 0.959 . S
C925 H910 0.959 . S
C925 H911 0.961 . S
C925 C924 1.502 . S
C926 H912 0.960 . S
C926 H913 0.961 . S
C926 H914 0.959 . S
C926 C924 1.561 . S
C927 C924 1.526 . S
C927 C928 1.396 . S
C927 C932 1.390 . S
C928 C922 1.465 . S
C928 C927 1.396 . S
C928 C929 1.399 . S
C929 H915 0.929 . S
C929 C928 1.399 . S
C929 C930 1.385 . S
C930 H916 0.931 . S
C930 C929 1.385 . S
C930 C931 1.389 . S
C931 C930 1.389 . S
C931 C932 1.387 . S
C932 H917 0.930 . S
C932 C927 1.390 . S
C932 C931 1.387 . S
H933 C945 0.930 . S
H934 C947 0.930 . S
H935 C948 0.930 . S
H936 C952 0.959 . S
H937 C952 0.959 . S
H938 C952 0.961 . S
H939 C953 0.960 . S
H940 C953 0.961 . S
H941 C953 0.959 . S
H942 C956 0.929 . S
H943 C957 0.931 . S
H944 C959 0.930 . S
C945 H933 0.930 . S
C945 C946 1.399 . S
C945 C950 1.399 . S
C946 C945 1.399 . S
C946 C947 1.376 . S
C947 H934 0.930 . S
C947 C946 1.376 . S
C947 C948 1.388 . S
C948 H935 0.930 . S
C948 C947 1.388 . S
C948 C949 1.390 . S
C949 C948 1.390 . S
C949 C950 1.394 . S
C949 C955 1.465 . S
C950 C945 1.399 . S
C950 C949 1.394 . S
C950 C951 1.516 . S
C951 C950 1.516 . S
C951 C952 1.502 . S
C951 C953 1.561 . S
C951 C954 1.526 . S
C952 H936 0.959 . S
C952 H937 0.959 . S
C952 H938 0.961 . S
C952 C951 1.502 . S
C953 H939 0.960 . S
C953 H940 0.961 . S
C953 H941 0.959 . S
C953 C951 1.561 . S
C954 C951 1.526 . S
C954 C955 1.396 . S
C954 C959 1.390 . S
C955 C949 1.465 . S
C955 C954 1.396 . S
C955 C956 1.399 . S
C956 H942 0.929 . S
C956 C955 1.399 . S
C956 C957 1.385 . S
C957 H943 0.931 . S
C957 C956 1.385 . S
C957 C958 1.389 . S
C958 C957 1.389 . S
C958 C959 1.387 . S
C959 H944 0.930 . S
C959 C954 1.390 . S
C959 C958 1.387 . S
H960 C972 0.930 . S
H961 C974 0.930 . S
H962 C975 0.930 . S
H963 C979 0.959 . S
H964 C979 0.959 . S
H965 C979 0.961 1_545 S
H966 C980 0.960 . S
H967 C980 0.961 . S
H968 C980 0.959 . S
H969 C983 0.929 . S
H970 C984 0.931 . S
H971 C986 0.930 . S
C972 H960 0.930 . S
C972 C973 1.399 . S
C972 C977 1.399 . S
C973 C972 1.399 . S
C973 C974 1.376 . S
C974 H961 0.930 . S
C974 C973 1.376 . S
C974 C975 1.388 . S
C975 H962 0.930 . S
C975 C974 1.388 . S
C975 C976 1.390 . S
C976 C975 1.390 . S
C976 C977 1.394 . S
C976 C982 1.465 1_545 S
C977 C972 1.399 . S
C977 C976 1.394 . S
C977 C978 1.516 . S
C978 C977 1.516 . S
C978 C979 1.502 1_545 S
C978 C980 1.561 . S
C978 C981 1.526 1_545 S
C979 H963 0.959 . S
C979 H964 0.959 . S
C979 H965 0.961 1_565 S
C979 C978 1.502 1_565 S
C980 H966 0.960 . S
C980 H967 0.961 . S
C980 H968 0.959 . S
C980 C978 1.561 . S
C981 C978 1.526 1_565 S
C981 C982 1.396 . S
C981 C986 1.390 . S
C982 C976 1.465 1_565 S
C982 C981 1.396 . S
C982 C983 1.399 . S
C983 H969 0.929 . S
C983 C982 1.399 . S
C983 C984 1.385 . S
C984 H970 0.931 . S
C984 C983 1.385 . S
C984 C985 1.389 . S
C985 C984 1.389 . S
C985 C986 1.387 . S
C986 H971 0.930 . S
C986 C981 1.390 . S
C986 C985 1.387 . S
H987 C999 0.930 . S
H988 C1001 0.930 . S
H989 C1002 0.930 . S
H990 C1006 0.959 . S
H991 C1006 0.959 . S
H992 C1006 0.961 . S
H993 C1007 0.960 1_565 S
H994 C1007 0.961 . S
H995 C1007 0.959 . S
H996 C1010 0.929 . S
H997 C1011 0.931 . S
H998 C1013 0.930 . S
C999 H987 0.930 . S
C999 C1000 1.399 . S
C999 C1004 1.399 . S
C1000 C999 1.399 . S
C1000 C1001 1.376 . S
C1001 H988 0.930 . S
C1001 C1000 1.376 . S
C1001 C1002 1.388 . S
C1002 H989 0.930 . S
C1002 C1001 1.388 . S
C1002 C1003 1.390 . S
C1003 C1002 1.390 . S
C1003 C1004 1.394 . S
C1003 C1009 1.465 1_565 S
C1004 C999 1.399 . S
C1004 C1003 1.394 . S
C1004 C1005 1.516 . S
C1005 C1004 1.516 . S
C1005 C1006 1.502 . S
C1005 C1007 1.561 1_565 S
C1005 C1008 1.526 1_565 S
C1006 H990 0.959 . S
C1006 H991 0.959 . S
C1006 H992 0.961 . S
C1006 C1005 1.502 . S
C1007 H993 0.960 1_545 S
C1007 H994 0.961 . S
C1007 H995 0.959 . S
C1007 C1005 1.561 1_545 S
C1008 C1005 1.526 1_545 S
C1008 C1009 1.396 . S
C1008 C1013 1.390 . S
C1009 C1003 1.465 1_545 S
C1009 C1008 1.396 . S
C1009 C1010 1.399 . S
C1010 H996 0.929 . S
C1010 C1009 1.399 . S
C1010 C1011 1.385 . S
C1011 H997 0.931 . S
C1011 C1010 1.385 . S
C1011 C1012 1.389 . S
C1012 C1011 1.389 . S
C1012 C1013 1.387 . S
C1013 H998 0.930 . S
C1013 C1008 1.390 . S
C1013 C1012 1.387 . S
H1014 C1026 0.930 . S
H1015 C1028 0.930 . S
H1016 C1029 0.930 . S
H1017 C1033 0.959 . S
H1018 C1033 0.959 . S
H1019 C1033 0.961 . S
H1020 C1034 0.960 . S
H1021 C1034 0.961 . S
H1022 C1034 0.959 . S
H1023 C1037 0.929 1_545 S
H1024 C1038 0.931 . S
H1025 C1040 0.930 . S
C1026 H1014 0.930 . S
C1026 C1027 1.399 . S
C1026 C1031 1.399 . S
C1027 C1026 1.399 . S
C1027 C1028 1.376 . S
C1028 H1015 0.930 . S
C1028 C1027 1.376 . S
C1028 C1029 1.388 . S
C1029 H1016 0.930 . S
C1029 C1028 1.388 . S
C1029 C1030 1.390 . S
C1030 C1029 1.390 . S
C1030 C1031 1.394 . S
C1030 C1036 1.465 1_545 S
C1031 C1026 1.399 . S
C1031 C1030 1.394 . S
C1031 C1032 1.516 1_545 S
C1032 C1031 1.516 1_565 S
C1032 C1033 1.502 . S
C1032 C1034 1.561 . S
C1032 C1035 1.526 . S
C1033 H1017 0.959 . S
C1033 H1018 0.959 . S
C1033 H1019 0.961 . S
C1033 C1032 1.502 . S
C1034 H1020 0.960 . S
C1034 H1021 0.961 . S
C1034 H1022 0.959 . S
C1034 C1032 1.561 . S
C1035 C1032 1.526 . S
C1035 C1036 1.396 . S
C1035 C1040 1.390 . S
C1036 C1030 1.465 1_565 S
C1036 C1035 1.396 . S
C1036 C1037 1.399 . S
C1037 H1023 0.929 1_565 S
C1037 C1036 1.399 . S
C1037 C1038 1.385 . S
C1038 H1024 0.931 . S
C1038 C1037 1.385 . S
C1038 C1039 1.389 . S
C1039 C1038 1.389 . S
C1039 C1040 1.387 . S
C1040 H1025 0.930 . S
C1040 C1035 1.390 . S
C1040 C1039 1.387 . S
H1041 C1053 0.930 . S
H1042 C1055 0.930 . S
H1043 C1056 0.930 . S
H1044 C1060 0.959 . S
H1045 C1060 0.959 . S
H1046 C1060 0.961 . S
H1047 C1061 0.960 . S
H1048 C1061 0.961 . S
H1049 C1061 0.959 . S
H1050 C1064 0.929 . S
H1051 C1065 0.931 . S
H1052 C1067 0.930 . S
C1053 H1041 0.930 . S
C1053 C1054 1.399 . S
C1053 C1058 1.399 . S
C1054 C1053 1.399 . S
C1054 C1055 1.376 . S
C1055 H1042 0.930 . S
C1055 C1054 1.376 . S
C1055 C1056 1.388 . S
C1056 H1043 0.930 . S
C1056 C1055 1.388 . S
C1056 C1057 1.390 . S
C1057 C1056 1.390 . S
C1057 C1058 1.394 . S
C1057 C1063 1.465 1_565 S
C1058 C1053 1.399 . S
C1058 C1057 1.394 . S
C1058 C1059 1.551 . S
C1059 C1058 1.551 . S
C1059 C1060 1.471 1_565 S
C1059 C1061 1.597 . S
C1059 C1062 1.492 1_565 S
C1060 H1044 0.959 . S
C1060 H1045 0.959 . S
C1060 H1046 0.961 . S
C1060 C1059 1.471 1_545 S
C1061 H1047 0.960 . S
C1061 H1048 0.961 . S
C1061 H1049 0.959 . S
C1061 C1059 1.597 . S
C1062 C1059 1.492 1_545 S
C1062 C1063 1.396 . S
C1062 C1067 1.390 . S
C1063 C1057 1.465 1_545 S
C1063 C1062 1.396 . S
C1063 C1064 1.399 . S
C1064 H1050 0.929 . S
C1064 C1063 1.399 . S
C1064 C1065 1.385 . S
C1065 H1051 0.931 . S
C1065 C1064 1.385 . S
C1065 C1066 1.389 . S
C1066 C1065 1.389 . S
C1066 C1067 1.387 . S
C1067 H1052 0.930 . S
C1067 C1062 1.390 . S
C1067 C1066 1.387 . S
H1068 C1080 0.930 . S
H1069 C1082 0.930 . S
H1070 C1083 0.930 . S
H1071 C1087 0.959 . S
H1072 C1087 0.959 . S
H1073 C1087 0.961 . S
H1074 C1088 0.960 . S
H1075 C1088 0.961 . S
H1076 C1088 0.959 . S
H1077 C1091 0.929 . S
H1078 C1092 0.931 . S
H1079 C1094 0.930 . S
C1080 H1068 0.930 . S
C1080 C1081 1.399 . S
C1080 C1085 1.399 . S
C1081 C1080 1.399 . S
C1081 C1082 1.376 . S
C1082 H1069 0.930 . S
C1082 C1081 1.376 . S
C1082 C1083 1.388 . S
C1083 H1070 0.930 . S
C1083 C1082 1.388 . S
C1083 C1084 1.390 . S
C1084 C1083 1.390 . S
C1084 C1085 1.394 . S
C1084 C1090 1.465 . S
C1085 C1080 1.399 . S
C1085 C1084 1.394 . S
C1085 C1086 1.516 . S
C1086 C1085 1.516 . S
C1086 C1087 1.502 . S
C1086 C1088 1.561 . S
C1086 C1089 1.526 . S
C1087 H1071 0.959 . S
C1087 H1072 0.959 . S
C1087 H1073 0.961 . S
C1087 C1086 1.502 . S
C1088 H1074 0.960 . S
C1088 H1075 0.961 . S
C1088 H1076 0.959 . S
C1088 C1086 1.561 . S
C1089 C1086 1.526 . S
C1089 C1090 1.396 . S
C1089 C1094 1.390 . S
C1090 C1084 1.465 . S
C1090 C1089 1.396 . S
C1090 C1091 1.399 . S
C1091 H1077 0.929 . S
C1091 C1090 1.399 . S
C1091 C1092 1.385 . S
C1092 H1078 0.931 . S
C1092 C1091 1.385 . S
C1092 C1093 1.389 . S
C1093 C1092 1.389 . S
C1093 C1094 1.387 . S
C1094 H1079 0.930 . S
C1094 C1089 1.390 . S
C1094 C1093 1.387 . S
H1095 C1107 0.930 . S
H1096 C1109 0.930 . S
H1097 C1110 0.930 . S
H1098 C1114 0.959 . S
H1099 C1114 0.959 . S
H1100 C1114 0.961 . S
H1101 C1115 0.960 . S
H1102 C1115 0.961 . S
H1103 C1115 0.959 . S
H1104 C1118 0.929 . S
H1105 C1119 0.931 . S
H1106 C1121 0.930 . S
C1107 H1095 0.930 . S
C1107 C1108 1.399 . S
C1107 C1112 1.399 . S
C1108 C1107 1.399 . S
C1108 C1109 1.376 . S
C1109 H1096 0.930 . S
C1109 C1108 1.376 . S
C1109 C1110 1.388 . S
C1110 H1097 0.930 . S
C1110 C1109 1.388 . S
C1110 C1111 1.390 . S
C1111 C1110 1.390 . S
C1111 C1112 1.394 . S
C1111 C1117 1.465 . S
C1112 C1107 1.399 . S
C1112 C1111 1.394 . S
C1112 C1113 1.516 . S
C1113 C1112 1.516 . S
C1113 C1114 1.502 . S
C1113 C1115 1.561 . S
C1113 C1116 1.526 . S
C1114 H1098 0.959 . S
C1114 H1099 0.959 . S
C1114 H1100 0.961 . S
C1114 C1113 1.502 . S
C1115 H1101 0.960 . S
C1115 H1102 0.961 . S
C1115 H1103 0.959 . S
C1115 C1113 1.561 . S
C1116 C1113 1.526 . S
C1116 C1117 1.396 . S
C1116 C1121 1.390 . S
C1117 C1111 1.465 . S
C1117 C1116 1.396 . S
C1117 C1118 1.399 . S
C1118 H1104 0.929 . S
C1118 C1117 1.399 . S
C1118 C1119 1.385 . S
C1119 H1105 0.931 . S
C1119 C1118 1.385 . S
C1119 C1120 1.389 . S
C1120 C1119 1.389 . S
C1120 C1121 1.387 . S
C1121 H1106 0.930 . S
C1121 C1116 1.390 . S
C1121 C1120 1.387 . S
H1122 C1134 0.930 . S
H1123 C1136 0.930 . S
H1124 C1137 0.930 . S
H1125 C1141 0.959 . S
H1126 C1141 0.959 . S
H1127 C1141 0.961 . S
H1128 C1142 0.960 . S
H1129 C1142 0.961 . S
H1130 C1142 0.959 . S
H1131 C1145 0.929 . S
H1132 C1146 0.931 . S
H1133 C1148 0.930 . S
C1134 H1122 0.930 . S
C1134 C1135 1.399 . S
C1134 C1139 1.399 . S
C1135 C1134 1.399 . S
C1135 C1136 1.376 . S
C1136 H1123 0.930 . S
C1136 C1135 1.376 . S
C1136 C1137 1.388 . S
C1137 H1124 0.930 . S
C1137 C1136 1.388 . S
C1137 C1138 1.390 . S
C1138 C1137 1.390 . S
C1138 C1139 1.394 . S
C1138 C1144 1.465 . S
C1139 C1134 1.399 . S
C1139 C1138 1.394 . S
C1139 C1140 1.516 . S
C1140 C1139 1.516 . S
C1140 C1141 1.502 . S
C1140 C1142 1.561 . S
C1140 C1143 1.526 . S
C1141 H1125 0.959 . S
C1141 H1126 0.959 . S
C1141 H1127 0.961 . S
C1141 C1140 1.502 . S
C1142 H1128 0.960 . S
C1142 H1129 0.961 . S
C1142 H1130 0.959 . S
C1142 C1140 1.561 . S
C1143 C1140 1.526 . S
C1143 C1144 1.396 . S
C1143 C1148 1.390 . S
C1144 C1138 1.465 . S
C1144 C1143 1.396 . S
C1144 C1145 1.399 . S
C1145 H1131 0.929 . S
C1145 C1144 1.399 . S
C1145 C1146 1.385 . S
C1146 H1132 0.931 . S
C1146 C1145 1.385 . S
C1146 C1147 1.389 . S
C1147 C1146 1.389 . S
C1147 C1148 1.387 . S
C1148 H1133 0.930 . S
C1148 C1143 1.390 . S
C1148 C1147 1.387 . S
H1149 C1161 0.930 . S
H1150 C1163 0.930 . S
H1151 C1164 0.930 . S
H1152 C1168 0.959 . S
H1153 C1168 0.959 . S
H1154 C1168 0.961 . S
H1155 C1169 0.960 . S
H1156 C1169 0.961 . S
H1157 C1169 0.959 . S
H1158 C1172 0.929 . S
H1159 C1173 0.931 . S
H1160 C1175 0.930 . S
C1161 H1149 0.930 . S
C1161 C1162 1.399 . S
C1161 C1166 1.399 . S
C1162 C1161 1.399 . S
C1162 C1163 1.376 . S
C1163 H1150 0.930 . S
C1163 C1162 1.376 . S
C1163 C1164 1.388 . S
C1164 H1151 0.930 . S
C1164 C1163 1.388 . S
C1164 C1165 1.390 . S
C1165 C1164 1.390 . S
C1165 C1166 1.394 . S
C1165 C1171 1.465 . S
C1166 C1161 1.399 . S
C1166 C1165 1.394 . S
C1166 C1167 1.516 . S
C1167 C1166 1.516 . S
C1167 C1168 1.502 . S
C1167 C1169 1.561 . S
C1167 C1170 1.526 . S
C1168 H1152 0.959 . S
C1168 H1153 0.959 . S
C1168 H1154 0.961 . S
C1168 C1167 1.502 . S
C1169 H1155 0.960 . S
C1169 H1156 0.961 . S
C1169 H1157 0.959 . S
C1169 C1167 1.561 . S
C1170 C1167 1.526 . S
C1170 C1171 1.396 . S
C1170 C1175 1.390 . S
C1171 C1165 1.465 . S
C1171 C1170 1.396 . S
C1171 C1172 1.399 . S
C1172 H1158 0.929 . S
C1172 C1171 1.399 . S
C1172 C1173 1.385 . S
C1173 H1159 0.931 . S
C1173 C1172 1.385 . S
C1173 C1174 1.389 . S
C1174 C1173 1.389 . S
C1174 C1175 1.387 . S
C1175 H1160 0.930 . S
C1175 C1170 1.390 . S
C1175 C1174 1.387 . S
H1176 C1188 0.930 . S
H1177 C1190 0.930 . S
H1178 C1191 0.930 . S
H1179 C1195 0.959 . S
H1180 C1195 0.959 . S
H1181 C1195 0.961 . S
H1182 C1196 0.960 . S
H1183 C1196 0.961 . S
H1184 C1196 0.959 . S
H1185 C1199 0.930 . S
H1186 C1200 0.931 . S
H1187 C1202 0.930 . S
C1188 H1176 0.930 . S
C1188 C1189 1.399 . S
C1188 C1193 1.399 . S
C1189 C1188 1.399 . S
C1189 C1190 1.376 . S
C1190 H1177 0.930 . S
C1190 C1189 1.376 . S
C1190 C1191 1.388 . S
C1191 H1178 0.930 . S
C1191 C1190 1.388 . S
C1191 C1192 1.390 . S
C1192 C1191 1.390 . S
C1192 C1193 1.394 . S
C1192 C1198 1.465 . S
C1193 C1188 1.399 . S
C1193 C1192 1.394 . S
C1193 C1194 1.516 1_655 S
C1194 C1193 1.516 1_455 S
C1194 C1195 1.502 . S
C1194 C1196 1.561 1_455 S
C1194 C1197 1.526 . S
C1195 H1179 0.959 . S
C1195 H1180 0.959 . S
C1195 H1181 0.961 . S
C1195 C1194 1.502 . S
C1196 H1182 0.960 . S
C1196 H1183 0.961 . S
C1196 H1184 0.959 . S
C1196 C1194 1.561 1_655 S
C1197 C1194 1.526 . S
C1197 C1198 1.396 1_455 S
C1197 C1202 1.390 . S
C1198 C1192 1.465 . S
C1198 C1197 1.396 1_655 S
C1198 C1199 1.399 . S
C1199 H1185 0.930 . S
C1199 C1198 1.399 . S
C1199 C1200 1.384 1_655 S
C1200 H1186 0.931 . S
C1200 C1199 1.384 1_455 S
C1200 C1201 1.389 . S
C1201 C1200 1.389 . S
C1201 C1202 1.387 . S
C1202 H1187 0.930 . S
C1202 C1197 1.390 . S
C1202 C1201 1.387 . S
H1203 C1215 0.930 . S
H1204 C1217 0.930 . S
H1205 C1218 0.930 . S
H1206 C1222 0.959 . S
H1207 C1222 0.959 . S
H1208 C1222 0.961 . S
H1209 C1223 0.960 . S
H1210 C1223 0.961 . S
H1211 C1223 0.959 . S
H1212 C1226 0.929 . S
H1213 C1227 0.931 . S
H1214 C1229 0.930 . S
C1215 H1203 0.930 . S
C1215 C1216 1.399 . S
C1215 C1220 1.399 . S
C1216 C1215 1.399 . S
C1216 C1217 1.376 . S
C1217 H1204 0.930 . S
C1217 C1216 1.376 . S
C1217 C1218 1.388 . S
C1218 H1205 0.930 . S
C1218 C1217 1.388 . S
C1218 C1219 1.390 . S
C1219 C1218 1.390 . S
C1219 C1220 1.394 . S
C1219 C1225 1.465 . S
C1220 C1215 1.399 . S
C1220 C1219 1.394 . S
C1220 C1221 1.516 . S
C1221 C1220 1.516 . S
C1221 C1222 1.502 . S
C1221 C1223 1.561 . S
C1221 C1224 1.526 . S
C1222 H1206 0.959 . S
C1222 H1207 0.959 . S
C1222 H1208 0.961 . S
C1222 C1221 1.502 . S
C1223 H1209 0.960 . S
C1223 H1210 0.961 . S
C1223 H1211 0.959 . S
C1223 C1221 1.561 . S
C1224 C1221 1.526 . S
C1224 C1225 1.396 . S
C1224 C1229 1.390 . S
C1225 C1219 1.465 . S
C1225 C1224 1.396 . S
C1225 C1226 1.399 . S
C1226 H1212 0.929 . S
C1226 C1225 1.399 . S
C1226 C1227 1.385 . S
C1227 H1213 0.931 . S
C1227 C1226 1.385 . S
C1227 C1228 1.389 . S
C1228 C1227 1.389 . S
C1228 C1229 1.387 . S
C1229 H1214 0.930 . S
C1229 C1224 1.390 . S
C1229 C1228 1.387 . S
H1230 C1242 0.930 . S
H1231 C1244 0.930 . S
H1232 C1245 0.930 . S
H1233 C1249 0.959 . S
H1234 C1249 0.959 . S
H1235 C1249 0.961 . S
H1236 C1250 0.960 . S
H1237 C1250 0.961 . S
H1238 C1250 0.959 . S
H1239 C1253 0.929 . S
H1240 C1254 0.931 . S
H1241 C1256 0.930 . S
C1242 H1230 0.930 . S
C1242 C1243 1.399 . S
C1242 C1247 1.399 . S
C1243 C1242 1.399 . S
C1243 C1244 1.376 . S
C1244 H1231 0.930 . S
C1244 C1243 1.376 . S
C1244 C1245 1.388 . S
C1245 H1232 0.930 . S
C1245 C1244 1.388 . S
C1245 C1246 1.390 . S
C1246 C1245 1.390 . S
C1246 C1247 1.394 . S
C1246 C1252 1.465 . S
C1247 C1242 1.399 . S
C1247 C1246 1.394 . S
C1247 C1248 1.516 . S
C1248 C1247 1.516 . S
C1248 C1249 1.502 . S
C1248 C1250 1.561 . S
C1248 C1251 1.526 . S
C1249 H1233 0.959 . S
C1249 H1234 0.959 . S
C1249 H1235 0.961 . S
C1249 C1248 1.502 . S
C1250 H1236 0.960 . S
C1250 H1237 0.961 . S
C1250 H1238 0.959 . S
C1250 C1248 1.561 . S
C1251 C1248 1.526 . S
C1251 C1252 1.396 . S
C1251 C1256 1.390 . S
C1252 C1246 1.465 . S
C1252 C1251 1.396 . S
C1252 C1253 1.399 . S
C1253 H1239 0.929 . S
C1253 C1252 1.399 . S
C1253 C1254 1.385 . S
C1254 H1240 0.931 . S
C1254 C1253 1.385 . S
C1254 C1255 1.389 . S
C1255 C1254 1.389 . S
C1255 C1256 1.387 . S
C1256 H1241 0.930 . S
C1256 C1251 1.390 . S
C1256 C1255 1.387 . S
H1257 C1269 0.930 . S
H1258 C1271 0.930 . S
H1259 C1272 0.930 . S
H1260 C1276 0.959 . S
H1261 C1276 0.959 . S
H1262 C1276 0.961 . S
H1263 C1277 0.960 . S
H1264 C1277 0.961 . S
H1265 C1277 0.959 . S
H1266 C1280 0.929 . S
H1267 C1281 0.931 . S
H1268 C1283 0.930 . S
C1269 H1257 0.930 . S
C1269 C1270 1.399 . S
C1269 C1274 1.399 . S
C1270 C1269 1.399 . S
C1270 C1271 1.376 . S
C1271 H1258 0.930 . S
C1271 C1270 1.376 . S
C1271 C1272 1.388 . S
C1272 H1259 0.930 . S
C1272 C1271 1.388 . S
C1272 C1273 1.390 . S
C1273 C1272 1.390 . S
C1273 C1274 1.394 . S
C1273 C1279 1.465 1_455 S
C1274 C1269 1.399 . S
C1274 C1273 1.394 . S
C1274 C1275 1.516 . S
C1275 C1274 1.516 . S
C1275 C1276 1.502 1_455 S
C1275 C1277 1.561 . S
C1275 C1278 1.526 1_455 S
C1276 H1260 0.959 . S
C1276 H1261 0.959 . S
C1276 H1262 0.961 . S
C1276 C1275 1.502 1_655 S
C1277 H1263 0.960 . S
C1277 H1264 0.961 . S
C1277 H1265 0.959 . S
C1277 C1275 1.561 . S
C1278 C1275 1.526 1_655 S
C1278 C1279 1.396 . S
C1278 C1283 1.390 . S
C1279 C1273 1.465 1_655 S
C1279 C1278 1.396 . S
C1279 C1280 1.399 . S
C1280 H1266 0.929 . S
C1280 C1279 1.399 . S
C1280 C1281 1.385 . S
C1281 H1267 0.931 . S
C1281 C1280 1.385 . S
C1281 C1282 1.389 . S
C1282 C1281 1.389 . S
C1282 C1283 1.387 . S
C1283 H1268 0.930 . S
C1283 C1278 1.390 . S
C1283 C1282 1.387 . S
H1284 C1296 0.930 . S
H1285 C1298 0.930 . S
H1286 C1299 0.930 . S
H1287 C1303 0.959 . S
H1288 C1303 0.959 . S
H1289 C1303 0.961 . S
H1290 C1304 0.960 . S
H1291 C1304 0.961 . S
H1292 C1304 0.959 . S
H1293 C1307 0.929 . S
H1294 C1308 0.931 . S
H1295 C1310 0.930 . S
C1296 H1284 0.930 . S
C1296 C1297 1.399 . S
C1296 C1301 1.399 . S
C1297 C1296 1.399 . S
C1297 C1298 1.376 . S
C1298 H1285 0.930 . S
C1298 C1297 1.376 . S
C1298 C1299 1.388 . S
C1299 H1286 0.930 . S
C1299 C1298 1.388 . S
C1299 C1300 1.390 . S
C1300 C1299 1.390 . S
C1300 C1301 1.394 . S
C1300 C1306 1.465 . S
C1301 C1296 1.399 . S
C1301 C1300 1.394 . S
C1301 C1302 1.516 1_655 S
C1302 C1301 1.516 1_455 S
C1302 C1303 1.502 . S
C1302 C1304 1.561 1_455 S
C1302 C1305 1.526 . S
C1303 H1287 0.959 . S
C1303 H1288 0.959 . S
C1303 H1289 0.961 . S
C1303 C1302 1.502 . S
C1304 H1290 0.960 . S
C1304 H1291 0.961 . S
C1304 H1292 0.959 . S
C1304 C1302 1.561 1_655 S
C1305 C1302 1.526 . S
C1305 C1306 1.396 1_455 S
C1305 C1310 1.390 . S
C1306 C1300 1.465 . S
C1306 C1305 1.396 1_655 S
C1306 C1307 1.399 . S
C1307 H1293 0.929 . S
C1307 C1306 1.399 . S
C1307 C1308 1.385 1_655 S
C1308 H1294 0.931 . S
C1308 C1307 1.385 1_455 S
C1308 C1309 1.389 . S
C1309 C1308 1.389 . S
C1309 C1310 1.387 . S
C1310 H1295 0.930 . S
C1310 C1305 1.390 . S
C1310 C1309 1.387 . S
H1311 C1323 0.930 . S
H1312 C1325 0.930 . S
H1313 C1326 0.930 . S
H1314 C1330 0.959 . S
H1315 C1330 0.959 . S
H1316 C1330 0.961 . S
H1317 C1331 0.960 . S
H1318 C1331 0.961 . S
H1319 C1331 0.959 . S
H1320 C1334 0.929 . S
H1321 C1335 0.931 . S
H1322 C1337 0.930 . S
C1323 H1311 0.930 . S
C1323 C1324 1.399 . S
C1323 C1328 1.399 . S
C1324 C1323 1.399 . S
C1324 C1325 1.376 . S
C1325 H1312 0.930 . S
C1325 C1324 1.376 . S
C1325 C1326 1.388 . S
C1326 H1313 0.930 . S
C1326 C1325 1.388 . S
C1326 C1327 1.390 . S
C1327 C1326 1.390 . S
C1327 C1328 1.394 . S
C1327 C1333 1.465 . S
C1328 C1323 1.399 . S
C1328 C1327 1.394 . S
C1328 C1329 1.516 . S
C1329 C1328 1.516 . S
C1329 C1330 1.502 . S
C1329 C1331 1.561 . S
C1329 C1332 1.526 . S
C1330 H1314 0.959 . S
C1330 H1315 0.959 . S
C1330 H1316 0.961 . S
C1330 C1329 1.502 . S
C1331 H1317 0.960 . S
C1331 H1318 0.961 . S
C1331 H1319 0.959 . S
C1331 C1329 1.561 . S
C1332 C1329 1.526 . S
C1332 C1333 1.396 . S
C1332 C1337 1.390 . S
C1333 C1327 1.465 . S
C1333 C1332 1.396 . S
C1333 C1334 1.399 . S
C1334 H1320 0.929 . S
C1334 C1333 1.399 . S
C1334 C1335 1.385 . S
C1335 H1321 0.931 . S
C1335 C1334 1.385 . S
C1335 C1336 1.389 . S
C1336 C1335 1.389 . S
C1336 C1337 1.387 . S
C1337 H1322 0.930 . S
C1337 C1332 1.390 . S
C1337 C1336 1.387 . S
H1338 C1350 0.930 . S
H1339 C1352 0.930 . S
H1340 C1353 0.930 . S
H1341 C1357 0.959 . S
H1342 C1357 0.959 . S
H1343 C1357 0.961 . S
H1344 C1358 0.960 . S
H1345 C1358 0.961 . S
H1346 C1358 0.959 . S
H1347 C1361 0.929 . S
H1348 C1362 0.931 . S
H1349 C1364 0.930 . S
C1350 H1338 0.930 . S
C1350 C1351 1.399 . S
C1350 C1355 1.399 . S
C1351 C1350 1.399 . S
C1351 C1352 1.376 . S
C1352 H1339 0.930 . S
C1352 C1351 1.376 . S
C1352 C1353 1.388 . S
C1353 H1340 0.930 . S
C1353 C1352 1.388 . S
C1353 C1354 1.390 . S
C1354 C1353 1.390 . S
C1354 C1355 1.394 . S
C1354 C1360 1.465 . S
C1355 C1350 1.399 . S
C1355 C1354 1.394 . S
C1355 C1356 1.516 . S
C1356 C1355 1.516 . S
C1356 C1357 1.502 . S
C1356 C1358 1.561 . S
C1356 C1359 1.526 . S
C1357 H1341 0.959 . S
C1357 H1342 0.959 . S
C1357 H1343 0.961 . S
C1357 C1356 1.502 . S
C1358 H1344 0.960 . S
C1358 H1345 0.961 . S
C1358 H1346 0.959 . S
C1358 C1356 1.561 . S
C1359 C1356 1.526 . S
C1359 C1360 1.396 . S
C1359 C1364 1.390 . S
C1360 C1354 1.465 . S
C1360 C1359 1.396 . S
C1360 C1361 1.399 . S
C1361 H1347 0.929 . S
C1361 C1360 1.399 . S
C1361 C1362 1.385 . S
C1362 H1348 0.931 . S
C1362 C1361 1.385 . S
C1362 C1363 1.389 . S
C1363 C1362 1.389 . S
C1363 C1364 1.387 . S
C1364 H1349 0.930 . S
C1364 C1359 1.390 . S
C1364 C1363 1.387 . S
H1365 C1377 0.930 . S
H1366 C1379 0.930 . S
H1367 C1380 0.930 . S
H1368 C1384 0.959 . S
H1369 C1384 0.959 . S
H1370 C1384 0.961 . S
H1371 C1385 0.960 . S
H1372 C1385 0.961 . S
H1373 C1385 0.959 . S
H1374 C1388 0.929 . S
H1375 C1389 0.931 . S
H1376 C1391 0.930 . S
C1377 H1365 0.930 . S
C1377 C1378 1.399 . S
C1377 C1382 1.399 . S
C1378 C1377 1.399 . S
C1378 C1379 1.376 . S
C1379 H1366 0.930 . S
C1379 C1378 1.376 . S
C1379 C1380 1.388 . S
C1380 H1367 0.930 . S
C1380 C1379 1.388 . S
C1380 C1381 1.390 . S
C1381 C1380 1.390 . S
C1381 C1382 1.394 . S
C1381 C1387 1.465 . S
C1382 C1377 1.399 . S
C1382 C1381 1.394 . S
C1382 C1383 1.516 1_655 S
C1383 C1382 1.516 1_455 S
C1383 C1384 1.502 . S
C1383 C1385 1.561 1_455 S
C1383 C1386 1.526 . S
C1384 H1368 0.959 . S
C1384 H1369 0.959 . S
C1384 H1370 0.961 . S
C1384 C1383 1.502 . S
C1385 H1371 0.960 . S
C1385 H1372 0.961 . S
C1385 H1373 0.959 . S
C1385 C1383 1.561 1_655 S
C1386 C1383 1.526 . S
C1386 C1387 1.396 1_455 S
C1386 C1391 1.390 . S
C1387 C1381 1.465 . S
C1387 C1386 1.396 1_655 S
C1387 C1388 1.399 . S
C1388 H1374 0.929 . S
C1388 C1387 1.399 . S
C1388 C1389 1.385 1_655 S
C1389 H1375 0.931 . S
C1389 C1388 1.385 1_455 S
C1389 C1390 1.389 . S
C1390 C1389 1.389 . S
C1390 C1391 1.387 . S
C1391 H1376 0.930 . S
C1391 C1386 1.390 . S
C1391 C1390 1.387 . S
H1392 C1404 0.930 1_655 S
H1393 C1406 0.930 . S
H1394 C1407 0.930 . S
H1395 C1411 0.959 . S
H1396 C1411 0.959 . S
H1397 C1411 0.961 . S
H1398 C1412 0.960 . S
H1399 C1412 0.961 . S
H1400 C1412 0.959 1_455 S
H1401 C1415 0.929 . S
H1402 C1416 0.931 . S
H1403 C1418 0.930 . S
C1404 H1392 0.930 1_455 S
C1404 C1405 1.399 . S
C1404 C1409 1.398 1_455 S
C1405 C1404 1.399 . S
C1405 C1406 1.376 . S
C1406 H1393 0.930 . S
C1406 C1405 1.376 . S
C1406 C1407 1.388 . S
C1407 H1394 0.930 . S
C1407 C1406 1.388 . S
C1407 C1408 1.390 . S
C1408 C1407 1.390 . S
C1408 C1409 1.390 1_455 S
C1408 C1414 1.465 . S
C1409 C1404 1.398 1_655 S
C1409 C1408 1.390 1_655 S
C1409 C1410 1.521 . S
C1410 C1409 1.521 . S
C1410 C1411 1.502 . S
C1410 C1412 1.561 . S
C1410 C1413 1.526 . S
C1411 H1395 0.959 . S
C1411 H1396 0.959 . S
C1411 H1397 0.961 . S
C1411 C1410 1.502 . S
C1412 H1398 0.960 . S
C1412 H1399 0.961 . S
C1412 H1400 0.959 1_655 S
C1412 C1410 1.561 . S
C1413 C1410 1.526 . S
C1413 C1414 1.396 1_655 S
C1413 C1418 1.390 . S
C1414 C1408 1.465 . S
C1414 C1413 1.396 1_455 S
C1414 C1415 1.399 . S
C1415 H1401 0.929 . S
C1415 C1414 1.399 . S
C1415 C1416 1.385 . S
C1416 H1402 0.931 . S
C1416 C1415 1.385 . S
C1416 C1417 1.389 1_455 S
C1417 C1416 1.389 1_655 S
C1417 C1418 1.387 . S
C1418 H1403 0.930 . S
C1418 C1413 1.390 . S
C1418 C1417 1.387 . S
H1419 C1431 0.930 . S
H1420 C1433 0.930 . S
H1421 C1434 0.930 . S
H1422 C1438 0.959 . S
H1423 C1438 0.959 . S
H1424 C1438 0.961 . S
H1425 C1439 0.960 . S
H1426 C1439 0.961 . S
H1427 C1439 0.959 . S
H1428 C1442 0.929 . S
H1429 C1443 0.931 . S
H1430 C1445 0.930 . S
C1431 H1419 0.930 . S
C1431 C1432 1.399 . S
C1431 C1436 1.399 . S
C1432 C1431 1.399 . S
C1432 C1433 1.376 . S
C1433 H1420 0.930 . S
C1433 C1432 1.376 . S
C1433 C1434 1.388 . S
C1434 H1421 0.930 . S
C1434 C1433 1.388 . S
C1434 C1435 1.390 . S
C1435 C1434 1.390 . S
C1435 C1436 1.394 . S
C1435 C1441 1.465 . S
C1436 C1431 1.399 . S
C1436 C1435 1.394 . S
C1436 C1437 1.516 . S
C1437 C1436 1.516 . S
C1437 C1438 1.502 . S
C1437 C1439 1.561 . S
C1437 C1440 1.526 . S
C1438 H1422 0.959 . S
C1438 H1423 0.959 . S
C1438 H1424 0.961 . S
C1438 C1437 1.502 . S
C1439 H1425 0.960 . S
C1439 H1426 0.961 . S
C1439 H1427 0.959 . S
C1439 C1437 1.561 . S
C1440 C1437 1.526 . S
C1440 C1441 1.396 . S
C1440 C1445 1.390 . S
C1441 C1435 1.465 . S
C1441 C1440 1.396 . S
C1441 C1442 1.399 . S
C1442 H1428 0.929 . S
C1442 C1441 1.399 . S
C1442 C1443 1.385 . S
C1443 H1429 0.931 . S
C1443 C1442 1.385 . S
C1443 C1444 1.389 . S
C1444 C1443 1.389 . S
C1444 C1445 1.387 . S
C1445 H1430 0.930 . S
C1445 C1440 1.390 . S
C1445 C1444 1.387 . S
H1446 C1458 0.930 . S
H1447 C1460 0.930 . S
H1448 C1461 0.930 . S
H1449 C1465 0.959 . S
H1450 C1465 0.959 . S
H1451 C1465 0.961 . S
H1452 C1466 0.960 . S
H1453 C1466 0.961 . S
H1454 C1466 0.959 . S
H1455 C1469 0.929 . S
H1456 C1470 0.931 . S
H1457 C1472 0.930 . S
C1458 H1446 0.930 . S
C1458 C1459 1.399 . S
C1458 C1463 1.399 . S
C1459 C1458 1.399 . S
C1459 C1460 1.376 . S
C1460 H1447 0.930 . S
C1460 C1459 1.376 . S
C1460 C1461 1.388 . S
C1461 H1448 0.930 . S
C1461 C1460 1.388 . S
C1461 C1462 1.390 . S
C1462 C1461 1.390 . S
C1462 C1463 1.394 . S
C1462 C1468 1.465 . S
C1463 C1458 1.399 . S
C1463 C1462 1.394 . S
C1463 C1464 1.516 1_655 S
C1464 C1463 1.516 1_455 S
C1464 C1465 1.502 . S
C1464 C1466 1.561 1_455 S
C1464 C1467 1.526 . S
C1465 H1449 0.959 . S
C1465 H1450 0.959 . S
C1465 H1451 0.961 . S
C1465 C1464 1.502 . S
C1466 H1452 0.960 . S
C1466 H1453 0.961 . S
C1466 H1454 0.959 . S
C1466 C1464 1.561 1_655 S
C1467 C1464 1.526 . S
C1467 C1468 1.396 1_455 S
C1467 C1472 1.390 . S
C1468 C1462 1.465 . S
C1468 C1467 1.396 1_655 S
C1468 C1469 1.399 . S
C1469 H1455 0.929 . S
C1469 C1468 1.399 . S
C1469 C1470 1.385 1_655 S
C1470 H1456 0.931 . S
C1470 C1469 1.385 1_455 S
C1470 C1471 1.389 . S
C1471 C1470 1.389 . S
C1471 C1472 1.387 . S
C1472 H1457 0.930 . S
C1472 C1467 1.390 . S
C1472 C1471 1.387 . S
H1473 C1485 0.930 . S
H1474 C1487 0.930 . S
H1475 C1488 0.930 . S
H1476 C1492 0.959 . S
H1477 C1492 0.959 . S
H1478 C1492 0.961 . S
H1479 C1493 0.960 . S
H1480 C1493 0.961 . S
H1481 C1493 0.959 . S
H1482 C1496 0.929 . S
H1483 C1497 0.931 . S
H1484 C1499 0.930 . S
C1485 H1473 0.930 . S
C1485 C1486 1.399 . S
C1485 C1490 1.399 . S
C1486 C1485 1.399 . S
C1486 C1487 1.376 . S
C1487 H1474 0.930 . S
C1487 C1486 1.376 . S
C1487 C1488 1.388 . S
C1488 H1475 0.930 . S
C1488 C1487 1.388 . S
C1488 C1489 1.390 . S
C1489 C1488 1.390 . S
C1489 C1490 1.394 . S
C1489 C1495 1.465 . S
C1490 C1485 1.399 . S
C1490 C1489 1.394 . S
C1490 C1491 1.516 . S
C1491 C1490 1.516 . S
C1491 C1492 1.502 . S
C1491 C1493 1.561 . S
C1491 C1494 1.526 . S
C1492 H1476 0.959 . S
C1492 H1477 0.959 . S
C1492 H1478 0.961 . S
C1492 C1491 1.502 . S
C1493 H1479 0.960 . S
C1493 H1480 0.961 . S
C1493 H1481 0.959 . S
C1493 C1491 1.561 . S
C1494 C1491 1.526 . S
C1494 C1495 1.396 . S
C1494 C1499 1.390 . S
C1495 C1489 1.465 . S
C1495 C1494 1.396 . S
C1495 C1496 1.399 . S
C1496 H1482 0.929 . S
C1496 C1495 1.399 . S
C1496 C1497 1.385 . S
C1497 H1483 0.931 . S
C1497 C1496 1.385 . S
C1497 C1498 1.389 . S
C1498 C1497 1.389 . S
C1498 C1499 1.387 . S
C1499 H1484 0.930 . S
C1499 C1494 1.390 . S
C1499 C1498 1.387 . S
H1500 C1512 0.930 . S
H1501 C1514 0.930 . S
H1502 C1515 0.930 . S
H1503 C1519 0.959 . S
H1504 C1519 0.959 . S
H1505 C1519 0.961 . S
H1506 C1520 0.960 . S
H1507 C1520 0.961 . S
H1508 C1520 0.959 . S
H1509 C1523 0.929 . S
H1510 C1524 0.931 . S
H1511 C1526 0.930 . S
C1512 H1500 0.930 . S
C1512 C1513 1.399 . S
C1512 C1517 1.399 . S
C1513 C1512 1.399 . S
C1513 C1514 1.376 . S
C1514 H1501 0.930 . S
C1514 C1513 1.376 . S
C1514 C1515 1.388 . S
C1515 H1502 0.930 . S
C1515 C1514 1.388 . S
C1515 C1516 1.390 . S
C1516 C1515 1.390 . S
C1516 C1517 1.394 . S
C1516 C1522 1.465 . S
C1517 C1512 1.399 . S
C1517 C1516 1.394 . S
C1517 C1518 1.516 . S
C1518 C1517 1.516 . S
C1518 C1519 1.502 . S
C1518 C1520 1.561 . S
C1518 C1521 1.526 . S
C1519 H1503 0.959 . S
C1519 H1504 0.959 . S
C1519 H1505 0.961 . S
C1519 C1518 1.502 . S
C1520 H1506 0.960 . S
C1520 H1507 0.961 . S
C1520 H1508 0.959 . S
C1520 C1518 1.561 . S
C1521 C1518 1.526 . S
C1521 C1522 1.396 . S
C1521 C1526 1.390 . S
C1522 C1516 1.465 . S
C1522 C1521 1.396 . S
C1522 C1523 1.399 . S
C1523 H1509 0.929 . S
C1523 C1522 1.399 . S
C1523 C1524 1.385 . S
C1524 H1510 0.931 . S
C1524 C1523 1.385 . S
C1524 C1525 1.389 . S
C1525 C1524 1.389 . S
C1525 C1526 1.387 . S
C1526 H1511 0.930 . S
C1526 C1521 1.390 . S
C1526 C1525 1.387 . S
H1527 C1539 0.930 . S
H1528 C1541 0.930 . S
H1529 C1542 0.930 . S
H1530 C1546 0.959 . S
H1531 C1546 0.959 . S
H1532 C1546 0.961 . S
H1533 C1547 0.960 . S
H1534 C1547 0.961 . S
H1535 C1547 0.959 . S
H1536 C1550 0.929 . S
H1537 C1551 0.931 . S
H1538 C1553 0.930 1_455 S
C1539 H1527 0.930 . S
C1539 C1540 1.399 . S
C1539 C1544 1.399 . S
C1540 C1539 1.399 . S
C1540 C1541 1.376 1_455 S
C1541 H1528 0.930 . S
C1541 C1540 1.376 1_655 S
C1541 C1542 1.388 . S
C1542 H1529 0.930 . S
C1542 C1541 1.388 . S
C1542 C1543 1.390 . S
C1543 C1542 1.390 . S
C1543 C1544 1.394 1_655 S
C1543 C1549 1.465 . S
C1544 C1539 1.399 . S
C1544 C1543 1.394 1_455 S
C1544 C1545 1.516 . S
C1545 C1544 1.516 . S
C1545 C1546 1.502 . S
C1545 C1547 1.561 . S
C1545 C1548 1.526 . S
C1546 H1530 0.959 . S
C1546 H1531 0.959 . S
C1546 H1532 0.961 . S
C1546 C1545 1.502 . S
C1547 H1533 0.960 . S
C1547 H1534 0.961 . S
C1547 H1535 0.959 . S
C1547 C1545 1.561 . S
C1548 C1545 1.526 . S
C1548 C1549 1.396 1_455 S
C1548 C1553 1.390 1_455 S
C1549 C1543 1.465 . S
C1549 C1548 1.396 1_655 S
C1549 C1550 1.399 . S
C1550 H1536 0.929 . S
C1550 C1549 1.399 . S
C1550 C1551 1.385 . S
C1551 H1537 0.931 . S
C1551 C1550 1.385 . S
C1551 C1552 1.389 . S
C1552 C1551 1.389 . S
C1552 C1553 1.387 . S
C1553 H1538 0.930 1_655 S
C1553 C1548 1.390 1_655 S
C1553 C1552 1.387 . S
H1554 C1566 0.930 . S
H1555 C1568 0.930 . S
H1556 C1569 0.930 . S
H1557 C1573 0.959 . S
H1558 C1573 0.959 . S
H1559 C1573 0.961 . S
H1560 C1574 0.960 . S
H1561 C1574 0.961 . S
H1562 C1574 0.959 . S
H1563 C1577 0.929 . S
H1564 C1578 0.931 . S
H1565 C1580 0.930 . S
C1566 H1554 0.930 . S
C1566 C1567 1.399 . S
C1566 C1571 1.399 . S
C1567 C1566 1.399 . S
C1567 C1568 1.376 . S
C1568 H1555 0.930 . S
C1568 C1567 1.376 . S
C1568 C1569 1.388 . S
C1569 H1556 0.930 . S
C1569 C1568 1.388 . S
C1569 C1570 1.390 . S
C1570 C1569 1.390 . S
C1570 C1571 1.394 . S
C1570 C1576 1.465 . S
C1571 C1566 1.399 . S
C1571 C1570 1.394 . S
C1571 C1572 1.516 . S
C1572 C1571 1.516 . S
C1572 C1573 1.502 . S
C1572 C1574 1.561 . S
C1572 C1575 1.526 . S
C1573 H1557 0.959 . S
C1573 H1558 0.959 . S
C1573 H1559 0.961 . S
C1573 C1572 1.502 . S
C1574 H1560 0.960 . S
C1574 H1561 0.961 . S
C1574 H1562 0.959 . S
C1574 C1572 1.561 . S
C1575 C1572 1.526 . S
C1575 C1576 1.396 . S
C1575 C1580 1.390 . S
C1576 C1570 1.465 . S
C1576 C1575 1.396 . S
C1576 C1577 1.399 . S
C1577 H1563 0.929 . S
C1577 C1576 1.399 . S
C1577 C1578 1.385 . S
C1578 H1564 0.931 . S
C1578 C1577 1.385 . S
C1578 C1579 1.389 . S
C1579 C1578 1.389 . S
C1579 C1580 1.387 . S
C1580 H1565 0.930 . S
C1580 C1575 1.390 . S
C1580 C1579 1.387 . S
H1581 C1593 0.930 . S
H1582 C1595 0.930 . S
H1583 C1596 0.930 . S
H1584 C1600 0.959 . S
H1585 C1600 0.959 . S
H1586 C1600 0.961 . S
H1587 C1601 0.960 . S
H1588 C1601 0.961 . S
H1589 C1601 0.959 . S
H1590 C1604 0.929 1_455 S
H1591 C1605 0.931 . S
H1592 C1607 0.930 . S
C1593 H1581 0.930 . S
C1593 C1594 1.399 . S
C1593 C1598 1.399 . S
C1594 C1593 1.399 . S
C1594 C1595 1.376 . S
C1595 H1582 0.930 . S
C1595 C1594 1.376 . S
C1595 C1596 1.388 . S
C1596 H1583 0.930 . S
C1596 C1595 1.388 . S
C1596 C1597 1.390 . S
C1597 C1596 1.390 . S
C1597 C1598 1.394 . S
C1597 C1603 1.461 1_455 S
C1598 C1593 1.399 . S
C1598 C1597 1.394 . S
C1598 C1599 1.516 1_455 S
C1599 C1598 1.516 1_655 S
C1599 C1600 1.502 . S
C1599 C1601 1.561 1_655 S
C1599 C1602 1.526 . S
C1600 H1584 0.959 . S
C1600 H1585 0.959 . S
C1600 H1586 0.961 . S
C1600 C1599 1.502 . S
C1601 H1587 0.960 . S
C1601 H1588 0.961 . S
C1601 H1589 0.959 . S
C1601 C1599 1.561 1_455 S
C1602 C1599 1.526 . S
C1602 C1603 1.399 . S
C1602 C1607 1.390 . S
C1603 C1597 1.461 1_655 S
C1603 C1602 1.399 . S
C1603 C1604 1.400 . S
C1604 H1590 0.929 1_655 S
C1604 C1603 1.400 . S
C1604 C1605 1.385 . S
C1605 H1591 0.931 . S
C1605 C1604 1.385 . S
C1605 C1606 1.389 . S
C1606 C1605 1.389 . S
C1606 C1607 1.387 . S
C1607 H1592 0.930 . S
C1607 C1602 1.390 . S
C1607 C1606 1.387 . S
C541 C186 1.089 . S
C553 C18 1.018 . S
C568 C153 1.089 . S
C580 C51 1.018 . S
C595 C84 1.061 . S
C607 C252 1.029 . S
C622 C117 1.049 . S
C634 C219 1.079 . S
C649 C150 1.091 . S
C661 C54 1.020 . S
C676 C183 1.015 . S
C688 C21 1.090 . S
C703 C120 1.051 . S
C715 C216 1.058 . S
C730 C249 1.087 . S
C742 C87 1.024 . S
C757 C282 1.014 . S
C769 C450 1.081 . S
C784 C315 1.049 . S
C796 C417 1.038 . S
C811 C348 1.056 . S
C823 C516 1.033 . S
C838 C381 1.048 . S
C850 C483 1.080 . S
C865 C414 1.015 . S
C877 C318 1.089 . S
C892 C447 1.014 . S
C904 C285 1.090 . S
C919 C384 1.055 . S
C931 C480 1.053 . S
C946 C351 1.061 . S
C958 C513 1.048 . S
C973 N13 1.646 . S
C985 N46 1.649 . S
C1000 N79 1.695 . S
C1012 N112 1.686 . S
C1027 N178 1.663 . S
C1039 N145 1.691 . S
C1054 N244 1.686 . S
C1066 N211 1.695 . S
C1081 N310 1.649 . S
C1093 N277 1.661 . S
C1108 N376 1.646 . S
C1120 N343 1.650 . S
C1135 N409 1.656 . S
C1147 N442 1.648 . S
C1162 N475 1.659 . S
C1174 N508 1.647 . S
C1189 N299 1.492 . S
C1201 N2 1.509 . S
C1216 N35 1.491 . S
C1228 N266 1.513 . S
C1243 N68 1.537 . S
C1255 N365 1.559 . S
C1270 N332 1.495 . S
C1282 N101 1.500 . S
C1297 N134 1.527 . S
C1309 N431 1.558 . S
C1324 N167 1.552 . S
C1336 N398 1.500 . S
C1351 N200 1.537 . S
C1363 N497 1.492 . S
C1378 N464 1.532 . S
C1390 N233 1.556 . S
C1405 C7 1.470 . S
C1417 C106 1.430 . S
C1432 C40 1.437 . S
C1444 C73 1.468 . S
C1459 C139 1.471 . S
C1471 C238 1.445 . S
C1486 C172 1.472 . S
C1498 C205 1.442 . S
C1513 C370 1.458 . S
C1525 C271 1.440 . S
C1540 C337 1.429 . S
C1552 C304 1.473 . S
C1567 C403 1.436 . S
C1579 C502 1.448 . S
C1594 C436 1.468 . S
C1606 C469 1.451 . S
