# Generated by pormake.
# Topology uli, (4)-cn, num edge types: 1
# Building blocks:
#     Node 0, Type 0, BuildingBlock: AZAVOO_clean_sbu_0, # of connection points: 4
#     Node 1, Type 0, BuildingBlock: AZAVOO_clean_sbu_0, # of connection points: 4
#     Node 2, Type 0, BuildingBlock: AZAVOO_clean_sbu_0, # of connection points: 4
#     Node 3, Type 0, BuildingBlock: AZAVOO_clean_sbu_0, # of connection points: 4
#     Node 4, Type 0, BuildingBlock: AZAVOO_clean_sbu_0, # of connection points: 4
#     Node 5, Type 0, BuildingBlock: AZAVOO_clean_sbu_0, # of connection points: 4
#     Node 6, Type 0, BuildingBlock: AZAVOO_clean_sbu_0, # of connection points: 4
#     Node 7, Type 0, BuildingBlock: AZAVOO_clean_sbu_0, # of connection points: 4
#     Node 8, Type 0, BuildingBlock: AZAVOO_clean_sbu_0, # of connection points: 4
#     Node 9, Type 0, BuildingBlock: AZAVOO_clean_sbu_0, # of connection points: 4
#     Node 10, Type 0, BuildingBlock: AZAVOO_clean_sbu_0, # of connection points: 4
#     Node 11, Type 0, BuildingBlock: AZAVOO_clean_sbu_0, # of connection points: 4
#     Node 12, Type 0, BuildingBlock: AZAVOO_clean_sbu_0, # of connection points: 4
#     Node 13, Type 0, BuildingBlock: AZAVOO_clean_sbu_0, # of connection points: 4
#     Node 14, Type 0, BuildingBlock: AZAVOO_clean_sbu_0, # of connection points: 4
#     Node 15, Type 0, BuildingBlock: AZAVOO_clean_sbu_0, # of connection points: 4
#     Node 16, Type 0, BuildingBlock: AZAVOO_clean_sbu_0, # of connection points: 4
#     Node 17, Type 0, BuildingBlock: AZAVOO_clean_sbu_0, # of connection points: 4
#     Node 18, Type 0, BuildingBlock: AZAVOO_clean_sbu_0, # of connection points: 4
#     Node 19, Type 0, BuildingBlock: AZAVOO_clean_sbu_0, # of connection points: 4
#     Node 20, Type 0, BuildingBlock: AZAVOO_clean_sbu_0, # of connection points: 4
#     Node 21, Type 0, BuildingBlock: AZAVOO_clean_sbu_0, # of connection points: 4
#     Node 22, Type 0, BuildingBlock: AZAVOO_clean_sbu_0, # of connection points: 4
#     Node 23, Type 0, BuildingBlock: AZAVOO_clean_sbu_0, # of connection points: 4
#     Node 24, Type 0, BuildingBlock: AZAVOO_clean_sbu_0, # of connection points: 4
#     Node 25, Type 0, BuildingBlock: AZAVOO_clean_sbu_0, # of connection points: 4
#     Node 26, Type 0, BuildingBlock: AZAVOO_clean_sbu_0, # of connection points: 4
#     Node 27, Type 0, BuildingBlock: AZAVOO_clean_sbu_0, # of connection points: 4
#     Node 28, Type 0, BuildingBlock: AZAVOO_clean_sbu_0, # of connection points: 4
#     Node 29, Type 0, BuildingBlock: AZAVOO_clean_sbu_0, # of connection points: 4
#     Node 30, Type 0, BuildingBlock: AZAVOO_clean_sbu_0, # of connection points: 4
#     Node 31, Type 0, BuildingBlock: AZAVOO_clean_sbu_0, # of connection points: 4
#     Node 32, Type 0, BuildingBlock: AZAVOO_clean_sbu_0, # of connection points: 4
#     Node 33, Type 0, BuildingBlock: AZAVOO_clean_sbu_0, # of connection points: 4
#     Node 34, Type 0, BuildingBlock: AZAVOO_clean_sbu_0, # of connection points: 4
#     Node 35, Type 0, BuildingBlock: AZAVOO_clean_sbu_0, # of connection points: 4
#     Node 36, Type 0, BuildingBlock: AZAVOO_clean_sbu_0, # of connection points: 4
#     Node 37, Type 0, BuildingBlock: AZAVOO_clean_sbu_0, # of connection points: 4
#     Node 38, Type 0, BuildingBlock: AZAVOO_clean_sbu_0, # of connection points: 4
#     Node 39, Type 0, BuildingBlock: AZAVOO_clean_sbu_0, # of connection points: 4
#     Node 40, Type 0, BuildingBlock: AZAVOO_clean_sbu_0, # of connection points: 4
#     Node 41, Type 0, BuildingBlock: AZAVOO_clean_sbu_0, # of connection points: 4
#     Node 42, Type 0, BuildingBlock: AZAVOO_clean_sbu_0, # of connection points: 4
#     Node 43, Type 0, BuildingBlock: AZAVOO_clean_sbu_0, # of connection points: 4
#     Node 44, Type 0, BuildingBlock: AZAVOO_clean_sbu_0, # of connection points: 4
#     Node 45, Type 0, BuildingBlock: AZAVOO_clean_sbu_0, # of connection points: 4
#     Node 46, Type 0, BuildingBlock: AZAVOO_clean_sbu_0, # of connection points: 4
#     Node 47, Type 0, BuildingBlock: AZAVOO_clean_sbu_0, # of connection points: 4
#     Edge 48, Type (0, 0), None
#     Edge 49, Type (0, 0), None
#     Edge 50, Type (0, 0), None
#     Edge 51, Type (0, 0), None
#     Edge 52, Type (0, 0), None
#     Edge 53, Type (0, 0), None
#     Edge 54, Type (0, 0), None
#     Edge 55, Type (0, 0), None
#     Edge 56, Type (0, 0), None
#     Edge 57, Type (0, 0), None
#     Edge 58, Type (0, 0), None
#     Edge 59, Type (0, 0), None
#     Edge 60, Type (0, 0), None
#     Edge 61, Type (0, 0), None
#     Edge 62, Type (0, 0), None
#     Edge 63, Type (0, 0), None
#     Edge 64, Type (0, 0), None
#     Edge 65, Type (0, 0), None
#     Edge 66, Type (0, 0), None
#     Edge 67, Type (0, 0), None
#     Edge 68, Type (0, 0), None
#     Edge 69, Type (0, 0), None
#     Edge 70, Type (0, 0), None
#     Edge 71, Type (0, 0), None
#     Edge 72, Type (0, 0), None
#     Edge 73, Type (0, 0), None
#     Edge 74, Type (0, 0), None
#     Edge 75, Type (0, 0), None
#     Edge 76, Type (0, 0), None
#     Edge 77, Type (0, 0), None
#     Edge 78, Type (0, 0), None
#     Edge 79, Type (0, 0), None
#     Edge 80, Type (0, 0), None
#     Edge 81, Type (0, 0), None
#     Edge 82, Type (0, 0), None
#     Edge 83, Type (0, 0), None
#     Edge 84, Type (0, 0), None
#     Edge 85, Type (0, 0), None
#     Edge 86, Type (0, 0), None
#     Edge 87, Type (0, 0), None
#     Edge 88, Type (0, 0), None
#     Edge 89, Type (0, 0), None
#     Edge 90, Type (0, 0), None
#     Edge 91, Type (0, 0), None
#     Edge 92, Type (0, 0), None
#     Edge 93, Type (0, 0), None
#     Edge 94, Type (0, 0), None
#     Edge 95, Type (0, 0), None
#     Edge 96, Type (0, 0), None
#     Edge 97, Type (0, 0), None
#     Edge 98, Type (0, 0), None
#     Edge 99, Type (0, 0), None
#     Edge 100, Type (0, 0), None
#     Edge 101, Type (0, 0), None
#     Edge 102, Type (0, 0), None
#     Edge 103, Type (0, 0), None
#     Edge 104, Type (0, 0), None
#     Edge 105, Type (0, 0), None
#     Edge 106, Type (0, 0), None
#     Edge 107, Type (0, 0), None
#     Edge 108, Type (0, 0), None
#     Edge 109, Type (0, 0), None
#     Edge 110, Type (0, 0), None
#     Edge 111, Type (0, 0), None
#     Edge 112, Type (0, 0), None
#     Edge 113, Type (0, 0), None
#     Edge 114, Type (0, 0), None
#     Edge 115, Type (0, 0), None
#     Edge 116, Type (0, 0), None
#     Edge 117, Type (0, 0), None
#     Edge 118, Type (0, 0), None
#     Edge 119, Type (0, 0), None
#     Edge 120, Type (0, 0), None
#     Edge 121, Type (0, 0), None
#     Edge 122, Type (0, 0), None
#     Edge 123, Type (0, 0), None
#     Edge 124, Type (0, 0), None
#     Edge 125, Type (0, 0), None
#     Edge 126, Type (0, 0), None
#     Edge 127, Type (0, 0), None
#     Edge 128, Type (0, 0), None
#     Edge 129, Type (0, 0), None
#     Edge 130, Type (0, 0), None
#     Edge 131, Type (0, 0), None
#     Edge 132, Type (0, 0), None
#     Edge 133, Type (0, 0), None
#     Edge 134, Type (0, 0), None
#     Edge 135, Type (0, 0), None
#     Edge 136, Type (0, 0), None
#     Edge 137, Type (0, 0), None
#     Edge 138, Type (0, 0), None
#     Edge 139, Type (0, 0), None
#     Edge 140, Type (0, 0), None
#     Edge 141, Type (0, 0), None
#     Edge 142, Type (0, 0), None
#     Edge 143, Type (0, 0), None
# Relax obj value: 0.343
# Max RMSD: 0.233
# Mean RMSD: 0.233
data_MOF--net-uli--node1-AZAVOO_clean_sbu_0--edge1-none
_symmetry_space_group_name_H-M    P1
_symmetry_Int_Tables_number       1
_symmetry_cell_setting            triclinic
loop_
_symmetry_equiv_pos_as_xyz
'x, y, z'
_cell_length_a     30.591135
_cell_length_b     30.666581
_cell_length_c     30.428426
_cell_angle_alpha  90.1033
_cell_angle_beta   90.446932
_cell_angle_gamma 89.728728
loop_
_atom_site_label
_atom_site_type_symbol
_atom_site_fract_x
_atom_site_fract_y
_atom_site_fract_z
_atom_type_partial_charge
Mg0 Mg 0.11631 0.28217 0.14634 0.0
O1 O 0.12221 0.22612 0.19268 0.0
O2 O 0.18368 0.23771 0.23048 0.0
Mg3 Mg 0.22472 0.30045 0.21055 0.0
C4 C 0.14964 0.21483 0.22169 0.0
C5 C 0.01479 0.24423 0.17001 0.0
O6 O 0.97742 0.23021 0.15429 0.0
O7 O 0.10367 0.3364 0.19842 0.0
O8 O 0.16995 0.33557 0.1766 0.0
O9 O 0.163 0.23799 0.10707 0.0
O10 O 0.18775 0.29053 0.14871 0.0
C11 C 0.14203 0.35218 0.20201 0.0
C12 C 0.19572 0.25595 0.12708 0.0
O13 O 0.04279 0.25957 0.1427 0.0
Mg14 Mg 0.72486 0.10347 0.17661 0.0
O15 O 0.79408 0.11204 0.20072 0.0
O16 O 0.78158 0.17719 0.22949 0.0
Mg17 Mg 0.71304 0.21374 0.21853 0.0
C18 C 0.80753 0.14512 0.22135 0.0
C19 C 0.74893 0.00646 0.22971 0.0
O20 O 0.73207 0.96793 0.23607 0.0
O21 O 0.68867 0.11408 0.24439 0.0
O22 O 0.65256 0.17212 0.224 0.0
O23 O 0.75925 0.1466 0.11925 0.0
O24 O 0.71422 0.17367 0.16284 0.0
C25 C 0.6563 0.14025 0.24964 0.0
C26 C 0.7424 0.18106 0.13499 0.0
O27 O 0.73036 0.03077 0.20053 0.0
Mg28 Mg 0.91767 0.73657 0.20035 0.0
O29 O 0.89914 0.79247 0.24128 0.0
O30 O 0.83065 0.77728 0.25721 0.0
Mg31 Mg 0.80242 0.71346 0.22061 0.0
C32 C 0.86411 0.80228 0.26002 0.0
C33 C 0.01383 0.77442 0.25347 0.0
O34 O 0.04899 0.75636 0.27046 0.0
O35 O 0.90346 0.68504 0.25674 0.0
O36 O 0.8481 0.65535 0.22234 0.0
O37 O 0.88226 0.78347 0.14754 0.0
O38 O 0.8513 0.72795 0.17438 0.0
C39 C 0.87612 0.65361 0.25273 0.0
C40 C 0.84678 0.76233 0.15312 0.0
O41 O 0.98739 0.74925 0.23231 0.0
Mg42 Mg 0.27167 0.91697 0.16594 0.0
O43 O 0.22857 0.90583 0.22426 0.0
O44 O 0.24217 0.83757 0.24489 0.0
Mg45 Mg 0.30103 0.80171 0.20938 0.0
C46 C 0.22028 0.87315 0.24799 0.0
C47 C 0.21425 0.0135 0.18414 0.0
O48 O 0.20604 0.0513 0.16595 0.0
O49 O 0.3346 0.92472 0.21057 0.0
O50 O 0.3317 0.86163 0.18091 0.0
O51 O 0.22245 0.87523 0.12779 0.0
O52 O 0.28109 0.84677 0.15785 0.0
C53 C 0.35106 0.88635 0.20786 0.0
C54 C 0.24413 0.84086 0.13957 0.0
O55 O 0.24407 0.98936 0.16663 0.0
Mg56 Mg 0.07725 0.72556 0.81699 0.0
O57 O 0.09548 0.78528 0.77806 0.0
O58 O 0.16204 0.76511 0.7577 0.0
Mg59 Mg 0.19674 0.69998 0.78127 0.0
C60 C 0.13038 0.79274 0.75753 0.0
C61 C 0.97934 0.7576 0.76467 0.0
O62 O 0.93993 0.74209 0.7588 0.0
O63 O 0.08122 0.67405 0.76089 0.0
O64 O 0.13709 0.66299 0.80157 0.0
O65 O 0.12197 0.76121 0.87123 0.0
O66 O 0.14858 0.71073 0.83227 0.0
C67 C 0.11539 0.65136 0.76824 0.0
C68 C 0.15614 0.74089 0.85875 0.0
O69 O 0.00464 0.7371 0.79179 0.0
Mg70 Mg 0.28954 0.07498 0.82882 0.0
O71 O 0.21672 0.08048 0.80643 0.0
O72 O 0.23488 0.14325 0.77942 0.0
Mg73 Mg 0.28765 0.1948 0.76812 0.0
C74 C 0.20582 0.11457 0.7858 0.0
C75 C 0.26939 0.9813 0.76912 0.0
O76 O 0.2827 0.94124 0.7619 0.0
O77 O 0.33739 0.09303 0.76973 0.0
O78 O 0.34707 0.1572 0.79647 0.0
O79 O 0.27864 0.13256 0.88576 0.0
O80 O 0.29571 0.15098 0.82405 0.0
C81 C 0.35986 0.12816 0.77009 0.0
C82 C 0.28505 0.16392 0.86055 0.0
O83 O 0.28941 0.00371 0.79885 0.0
Mg84 Mg 0.91331 0.27897 0.86542 0.0
O85 O 0.90225 0.221 0.82094 0.0
O86 O 0.84277 0.24319 0.78518 0.0
Mg87 Mg 0.80643 0.30875 0.80536 0.0
C88 C 0.87333 0.21503 0.79183 0.0
C89 C 0.01111 0.23262 0.84012 0.0
O90 O 0.04743 0.21575 0.85565 0.0
O91 O 0.92768 0.33049 0.81077 0.0
O92 O 0.86433 0.34026 0.83824 0.0
O93 O 0.86233 0.24221 0.9078 0.0
O94 O 0.84315 0.29579 0.86541 0.0
C95 C 0.89192 0.35217 0.8102 0.0
C96 C 0.83139 0.26391 0.88867 0.0
O97 O 0.98469 0.25047 0.86763 0.0
Mg98 Mg 0.71876 0.92051 0.83962 0.0
O99 O 0.776 0.91059 0.79476 0.0
O100 O 0.75867 0.8454 0.76844 0.0
Mg101 Mg 0.69878 0.8053 0.79572 0.0
C102 C 0.78375 0.87885 0.76955 0.0
C103 C 0.74565 0.02222 0.7992 0.0
O104 O 0.73274 0.06267 0.80246 0.0
O105 O 0.66378 0.92104 0.78624 0.0
O106 O 0.65931 0.86143 0.82181 0.0
O107 O 0.7644 0.87917 0.88637 0.0
O108 O 0.71188 0.84952 0.84987 0.0
C109 C 0.64436 0.88475 0.79113 0.0
C110 C 0.74609 0.84409 0.87236 0.0
O111 O 0.72896 0.99499 0.8264 0.0
Mg112 Mg 0.16518 0.09467 0.2715 0.0
O113 O 0.22455 0.10243 0.22933 0.0
O114 O 0.24865 0.1697 0.24146 0.0
Mg115 Mg 0.21575 0.20796 0.30021 0.0
C116 C 0.24976 0.13361 0.22024 0.0
C117 C 0.18224 0.9972 0.21635 0.0
O118 O 0.16526 0.95877 0.20919 0.0
O119 O 0.20692 0.08477 0.33564 0.0
O120 O 0.18247 0.14997 0.3294 0.0
O121 O 0.1306 0.13827 0.22114 0.0
O122 O 0.16124 0.16548 0.28037 0.0
C123 C 0.20665 0.1238 0.35057 0.0
C124 C 0.14384 0.17207 0.24286 0.0
O125 O 0.16421 0.02171 0.24562 0.0
Mg126 Mg 0.92791 0.19222 0.25908 0.0
O127 O 0.90777 0.23514 0.20382 0.0
O128 O 0.84104 0.24893 0.22768 0.0
Mg129 Mg 0.81386 0.21325 0.29202 0.0
C130 C 0.87137 0.25366 0.19908 0.0
C131 C 0.02385 0.24026 0.21797 0.0
O132 O 0.05829 0.25981 0.23439 0.0
O133 O 0.91474 0.24801 0.31294 0.0
O134 O 0.86431 0.21095 0.34619 0.0
O135 O 0.88711 0.14174 0.21317 0.0
O136 O 0.86118 0.16739 0.27172 0.0
C137 C 0.8901 0.24263 0.3465 0.0
C138 C 0.85358 0.147 0.23725 0.0
O139 O 0.99719 0.2229 0.24528 0.0
Mg140 Mg 0.82202 0.92235 0.29959 0.0
O141 O 0.78751 0.90835 0.23559 0.0
O142 O 0.76163 0.84238 0.24962 0.0
Mg143 Mg 0.7802 0.80428 0.31488 0.0
C144 C 0.76544 0.87551 0.22419 0.0
C145 C 0.78314 0.02224 0.26092 0.0
O146 O 0.78537 0.06405 0.26911 0.0
O147 O 0.76169 0.92131 0.34579 0.0
O148 O 0.79908 0.86301 0.35465 0.0
O149 O 0.87621 0.8807 0.26439 0.0
O150 O 0.83316 0.85137 0.3112 0.0
C151 C 0.76585 0.88487 0.36548 0.0
C152 C 0.86089 0.8457 0.28146 0.0
O153 O 0.80819 0.99672 0.2836 0.0
Mg154 Mg 0.10556 0.84366 0.30209 0.0
O155 O 0.10802 0.80544 0.23879 0.0
O156 O 0.17079 0.76978 0.24688 0.0
Mg157 Mg 0.21778 0.78724 0.30607 0.0
C158 C 0.13541 0.77773 0.22538 0.0
C159 C 1.0037 0.82063 0.26522 0.0
O160 O 0.96592 0.8374 0.25406 0.0
O161 O 0.10079 0.78421 0.34948 0.0
O162 O 0.1648 0.8121 0.35032 0.0
O163 O 0.14481 0.89265 0.2622 0.0
O164 O 0.1771 0.84647 0.30622 0.0
C165 C 0.13994 0.78259 0.36429 0.0
C166 C 0.18056 0.87408 0.27539 0.0
O167 O 0.03139 0.84608 0.28409 0.0
Mg168 Mg 0.18559 0.90346 0.71039 0.0
O169 O 0.21166 0.89649 0.77945 0.0
O170 O 0.23234 0.82812 0.76982 0.0
Mg171 Mg 0.21534 0.78837 0.7047 0.0
C172 C 0.22912 0.86222 0.79416 0.0
C173 C 0.23544 1.00025 0.73971 0.0
O174 O 0.23742 0.04195 0.73072 0.0
O175 O 0.25168 0.8863 0.67232 0.0
O176 O 0.22285 0.82814 0.64275 0.0
O177 O 0.12442 0.87209 0.74808 0.0
O178 O 0.16486 0.8356 0.7049 0.0
C179 C 0.25289 0.85592 0.64308 0.0
C180 C 0.1362 0.83454 0.73378 0.0
O181 O 0.20681 0.97713 0.71903 0.0
Mg182 Mg 0.09437 0.1761 0.74842 0.0
O183 O 0.117 0.2098 0.809 0.0
O184 O 0.18492 0.22339 0.78904 0.0
Mg185 Mg 0.21009 0.19244 0.72215 0.0
C186 C 0.15411 0.22519 0.81741 0.0
C187 C 1.00109 0.22855 0.79233 0.0
O188 O 0.96691 0.24919 0.7764 0.0
O189 O 0.11135 0.23567 0.70115 0.0
O190 O 0.16295 0.20109 0.6657 0.0
O191 O 0.12587 0.11648 0.78898 0.0
O192 O 0.15829 0.14732 0.73577 0.0
C193 C 0.13718 0.23297 0.66811 0.0
C194 C 0.16139 0.12196 0.76776 0.0
O195 O 0.02669 0.20986 0.76463 0.0
Mg196 Mg 0.82713 0.1063 0.73367 0.0
O197 O 0.79286 0.11686 0.79678 0.0
O198 O 0.77002 0.18346 0.78156 0.0
Mg199 Mg 0.80196 0.22089 0.72108 0.0
C200 C 0.77075 0.14992 0.80679 0.0
C201 C 0.77146 0.00916 0.75988 0.0
O202 O 0.76264 0.97177 0.74112 0.0
O203 O 0.76854 0.1261 0.68454 0.0
O204 O 0.80304 0.18221 0.65813 0.0
O205 O 0.88078 0.13621 0.78264 0.0
O206 O 0.85155 0.17326 0.73124 0.0
C207 C 0.77252 0.15524 0.65443 0.0
C208 C 0.87314 0.17387 0.76616 0.0
O209 O 0.79748 0.035 0.73937 0.0
Mg210 Mg 0.89325 0.83649 0.71102 0.0
O211 O 0.8924 0.80807 0.77874 0.0
O212 O 0.82778 0.77748 0.76984 0.0
Mg213 Mg 0.78219 0.79814 0.70941 0.0
C214 C 0.86263 0.78381 0.79275 0.0
C215 C 0.99438 0.79247 0.73441 0.0
O216 O 0.03523 0.79267 0.72223 0.0
O217 O 0.88001 0.77087 0.67049 0.0
O218 O 0.81792 0.79563 0.64485 0.0
O219 O 0.86098 0.8927 0.75454 0.0
O220 O 0.82426 0.8526 0.71048 0.0
C221 C 0.84835 0.76814 0.64253 0.0
C222 C 0.82341 0.87877 0.74194 0.0
O223 O 0.96827 0.81984 0.71561 0.0
Mg224 Mg 0.30732 0.15833 0.10578 0.0
O225 O 0.24973 0.20389 0.10898 0.0
O226 O 0.2571 0.23786 0.17297 0.0
Mg227 Mg 0.31431 0.21267 0.21966 0.0
C228 C 0.23698 0.23203 0.1363 0.0
C229 C 0.2705 0.18764 1.00571 0.0
O230 O 0.25219 0.17342 0.96951 0.0
O231 O 0.36155 0.21133 0.10173 0.0
O232 O 0.35547 0.18395 0.16606 0.0
O233 O 0.26202 0.11398 0.14421 0.0
O234 O 0.31059 0.15436 0.1776 0.0
C235 C 0.37447 0.21114 0.14174 0.0
C236 C 0.27701 0.13029 0.18046 0.0
O237 O 0.28707 0.15899 0.03186 0.0
Mg238 Mg 0.27052 0.81783 0.91354 0.0
O239 O 0.21225 0.77807 0.89697 0.0
O240 O 0.22621 0.75914 0.82844 0.0
Mg241 Mg 0.29294 0.78858 0.79944 0.0
C242 C 0.20105 0.75917 0.86203 0.0
C243 C 0.23027 0.77632 0.01411 0.0
O244 O 0.24702 0.76354 0.05171 0.0
O245 O 0.32104 0.75934 0.90302 0.0
O246 O 0.35213 0.78659 0.84465 0.0
O247 O 0.2263 0.87031 0.87432 0.0
O248 O 0.28071 0.83829 0.84569 0.0
C249 C 0.35275 0.7593 0.87547 0.0
C250 C 0.24761 0.86126 0.83942 0.0
O251 O 0.25652 0.79336 0.98609 0.0
Mg252 Mg 0.21472 0.27688 0.92353 0.0
O253 O 0.25784 0.22186 0.90389 0.0
O254 O 0.25884 0.23166 0.83235 0.0
Mg255 Mg 0.22148 0.29432 0.80444 0.0
C256 C 0.26867 0.20913 0.86633 0.0
C257 C 0.26788 0.23499 0.01677 0.0
O258 O 0.28988 0.24926 0.05097 0.0
O259 O 0.26697 0.33001 0.90283 0.0
O260 O 0.22906 0.35509 0.84669 0.0
O261 O 0.16076 0.22755 0.8975 0.0
O262 O 0.1824 0.28209 0.85981 0.0
C263 C 0.26088 0.3591 0.87291 0.0
C264 C 0.16175 0.24706 0.86018 0.0
O265 O 0.24923 0.26371 0.99202 0.0
Mg266 Mg 0.70697 0.18994 0.91566 0.0
O267 O 0.77025 0.22494 0.91354 0.0
O268 O 0.76685 0.24994 0.84535 0.0
Mg269 Mg 0.70621 0.22275 0.80231 0.0
C270 C 0.78666 0.24635 0.88261 0.0
C271 C 0.72414 0.2419 0.01461 0.0
O272 O 0.71031 0.24455 0.05514 0.0
O273 O 0.66042 0.24979 0.8991 0.0
O274 O 0.63979 0.22388 0.83522 0.0
O275 O 0.75741 0.13808 0.88543 0.0
O276 O 0.70949 0.17146 0.84701 0.0
C277 C 0.63351 0.25011 0.86644 0.0
C278 C 0.74371 0.14934 0.84717 0.0
O279 O 0.70839 0.21126 0.99021 0.0
Mg280 Mg 0.8341 0.73101 0.90969 0.0
O281 O 0.7946 0.79114 0.90105 0.0
O282 O 0.7639 0.77645 0.83668 0.0
Mg283 Mg 0.79416 0.71403 0.79947 0.0
C284 C 0.7687 0.80126 0.87042 0.0
C285 C 0.79434 0.75952 0.01406 0.0
O286 O 0.80083 0.74877 0.05513 0.0
O287 O 0.77558 0.68033 0.90318 0.0
O288 O 0.79925 0.65302 0.84127 0.0
O289 O 0.88108 0.77947 0.87126 0.0
O290 O 0.84811 0.7262 0.84044 0.0
C291 C 0.77479 0.64979 0.87414 0.0
C292 C 0.86824 0.76113 0.83549 0.0
O293 O 0.81931 0.74148 0.98526 0.0
Mg294 Mg 0.72396 0.83095 0.10546 0.0
O295 O 0.79069 0.80298 0.11707 0.0
O296 O 0.77561 0.77613 0.18246 0.0
Mg297 Mg 0.70849 0.79389 0.21773 0.0
C298 C 0.8022 0.78168 0.15052 0.0
C299 C 0.7565 0.78844 1.00282 0.0
O300 O 0.74054 0.78723 0.96289 0.0
O301 O 0.68362 0.76531 0.11541 0.0
O302 O 0.64971 0.79121 0.17261 0.0
O303 O 0.76151 0.88792 0.14472 0.0
O304 O 0.7142 0.8475 0.17459 0.0
C305 C 0.65191 0.763 0.14276 0.0
C306 C 0.74424 0.87421 0.18023 0.0
O307 O 0.73519 0.81111 0.03127 0.0
Mg308 Mg 0.15607 0.72802 0.10667 0.0
O309 O 0.19503 0.78802 0.11402 0.0
O310 O 0.23195 0.77215 0.17485 0.0
Mg311 Mg 0.20737 0.70823 0.21286 0.0
C312 C 0.22351 0.79757 0.14235 0.0
C313 C 0.18362 0.76612 1.00427 0.0
O314 O 0.16695 0.77748 0.96626 0.0
O315 O 0.21758 0.68061 0.10295 0.0
O316 O 0.19669 0.65271 0.16503 0.0
O317 O 0.11014 0.77268 0.14908 0.0
O318 O 0.1494 0.72062 0.17649 0.0
C319 C 0.2216 0.65091 0.13246 0.0
C320 C 0.12758 0.75475 0.1833 0.0
O321 O 0.15765 0.7489 0.03238 0.0
Mg322 Mg 0.80788 0.30573 0.09325 0.0
O323 O 0.78094 0.23866 0.10076 0.0
O324 O 0.76397 0.24741 0.1706 0.0
Mg325 Mg 0.7895 0.30814 0.21279 0.0
C326 C 0.76339 0.22464 0.13512 0.0
C327 C 0.75111 0.27816 0.99727 0.0
O328 O 0.74275 0.29232 0.95746 0.0
O329 O 0.74461 0.34408 0.11834 0.0
O330 O 0.78294 0.36975 0.17287 0.0
O331 O 0.87066 0.26589 0.11964 0.0
O332 O 0.83435 0.30844 0.16054 0.0
C333 C 0.74854 0.37137 0.15024 0.0
C334 C 0.86244 0.27913 0.15862 0.0
O335 O 0.77855 0.29994 0.02098 0.0
Mg336 Mg 0.58493 0.77855 0.70025 0.0
O337 O 0.60307 0.7245 0.74375 0.0
O338 O 0.67271 0.73689 0.75809 0.0
Mg339 Mg 0.70095 0.79887 0.72001 0.0
C340 C 0.63825 0.71361 0.76205 0.0
C341 C 0.49132 0.73665 0.74985 0.0
O342 O 0.45691 0.75133 0.77065 0.0
O343 O 0.59999 0.83119 0.75562 0.0
O344 O 0.65676 0.8581 0.72189 0.0
O345 O 0.61568 0.7295 0.64797 0.0
O346 O 0.65035 0.78435 0.67388 0.0
C347 C 0.62901 0.8611 0.75204 0.0
C348 C 0.6523 0.74931 0.65285 0.0
O349 O 0.51564 0.76506 0.73092 0.0
Mg350 Mg 0.22349 0.58964 0.68248 0.0
O351 O 0.27496 0.60122 0.73128 0.0
O352 O 0.26595 0.67077 0.74784 0.0
Mg353 Mg 0.208 0.70567 0.7072 0.0
C354 C 0.28674 0.63454 0.75191 0.0
C355 C 0.26197 0.49342 0.72723 0.0
O356 O 0.24808 0.45929 0.74871 0.0
O357 O 0.16838 0.60431 0.73506 0.0
O358 O 0.14752 0.66398 0.70156 0.0
O359 O 0.27767 0.62009 0.63622 0.0
O360 O 0.22284 0.65672 0.6598 0.0
C361 C 0.14083 0.63574 0.73061 0.0
C362 C 0.25943 0.65752 0.6417 0.0
O363 O 0.23284 0.51838 0.70957 0.0
Mg364 Mg 0.41898 0.22514 0.67048 0.0
O365 O 0.40319 0.27874 0.71296 0.0
O366 O 0.33813 0.26185 0.73922 0.0
Mg367 Mg 0.30712 0.19982 0.69849 0.0
C368 C 0.37152 0.28736 0.7372 0.0
C369 C 0.51335 0.26859 0.71906 0.0
O370 O 0.54845 0.25443 0.73946 0.0
O371 O 0.40572 0.17599 0.7299 0.0
O372 O 0.35288 0.14264 0.69644 0.0
O373 O 0.37884 0.27639 0.62546 0.0
O374 O 0.35062 0.21772 0.64764 0.0
C375 C 0.37843 0.14437 0.7287 0.0
C376 C 0.34404 0.25423 0.63062 0.0
O377 O 0.48908 0.23979 0.70013 0.0
Mg378 Mg 0.79847 0.41669 0.70712 0.0
O379 O 0.73841 0.40491 0.74478 0.0
O380 O 0.74041 0.33457 0.75902 0.0
Mg381 Mg 0.80549 0.30138 0.73052 0.0
C382 C 0.72066 0.37154 0.76002 0.0
C383 C 0.75623 0.51352 0.74872 0.0
O384 O 0.76872 0.5497 0.7679 0.0
O385 O 0.84554 0.39883 0.76745 0.0
O386 O 0.86968 0.33709 0.73979 0.0
O387 O 0.75237 0.39024 0.64996 0.0
O388 O 0.80134 0.35108 0.68208 0.0
C389 C 0.87308 0.36691 0.76814 0.0
C390 C 0.76847 0.35207 0.65724 0.0
O391 O 0.78631 0.48835 0.73331 0.0
Mg392 Mg 0.61444 0.21006 0.35768 0.0
O393 O 0.61984 0.27206 0.31905 0.0
O394 O 0.67922 0.2627 0.27843 0.0
Mg395 Mg 0.72182 0.19869 0.29151 0.0
C396 C 0.64578 0.28532 0.29002 0.0
C397 C 0.51365 0.25097 0.33594 0.0
O398 O 0.47629 0.2641 0.35204 0.0
O399 O 0.60105 0.16363 0.29882 0.0
O400 O 0.66735 0.16081 0.32188 0.0
O401 O 0.66384 0.24553 0.40347 0.0
O402 O 0.68586 0.19931 0.35417 0.0
C403 C 0.63948 0.14829 0.29383 0.0
C404 C 0.69582 0.22877 0.38166 0.0
O405 O 0.54132 0.23303 0.36254 0.0
Mg406 Mg 0.78986 0.58992 0.33559 0.0
O407 O 0.7382 0.60081 0.28391 0.0
O408 O 0.74571 0.67026 0.26494 0.0
Mg409 Mg 0.80608 0.70917 0.29505 0.0
C410 C 0.72518 0.6339 0.2629 0.0
C411 C 0.74673 0.49188 0.30279 0.0
O412 O 0.75916 0.45532 0.28446 0.0
O413 O 0.84823 0.59037 0.28685 0.0
O414 O 0.84265 0.65107 0.32071 0.0
O415 O 0.74263 0.63074 0.38023 0.0
O416 O 0.79667 0.66135 0.34759 0.0
C417 C 0.86198 0.62921 0.29148 0.0
C418 C 0.7621 0.66615 0.3693 0.0
O419 O 0.77694 0.51687 0.31783 0.0
Mg420 Mg 0.41874 0.78434 0.30136 0.0
O421 O 0.4034 0.72783 0.25837 0.0
O422 O 0.33277 0.7381 0.24784 0.0
Mg423 Mg 0.30168 0.79987 0.28456 0.0
C424 C 0.36768 0.71557 0.2422 0.0
C425 C 0.51603 0.73942 0.26122 0.0
O426 O 0.55365 0.75175 0.24528 0.0
O427 O 0.39999 0.83579 0.2441 0.0
O428 O 0.34229 0.86121 0.27814 0.0
O429 O 0.39043 0.7365 0.35569 0.0
O430 O 0.35371 0.7895 0.32831 0.0
C431 C 0.36929 0.86463 0.24734 0.0
C432 C 0.35315 0.75548 0.35081 0.0
O433 O 0.4901 0.76948 0.27541 0.0
Mg434 Mg 0.22639 0.4107 0.31523 0.0
O435 O 0.29474 0.3976 0.29326 0.0
O436 O 0.28095 0.33066 0.27007 0.0
Mg437 Mg 0.21202 0.29627 0.28397 0.0
C438 C 0.30741 0.36276 0.27541 0.0
C439 C 0.25777 0.50727 0.26111 0.0
O440 O 0.24159 0.54612 0.2533 0.0
O441 O 0.19076 0.39348 0.24739 0.0
O442 O 0.15343 0.34038 0.27554 0.0
O443 O 0.26038 0.37136 0.37638 0.0
O444 O 0.21431 0.34184 0.3352 0.0
C445 C 0.15823 0.36726 0.24497 0.0
C446 C 0.2426 0.33611 0.36384 0.0
O447 O 0.23593 0.48208 0.28669 0.0
Mg448 Mg 0.67559 0.59394 0.8006 0.0
O449 O 0.71358 0.60753 0.73975 0.0
O450 O 0.74229 0.67296 0.75066 0.0
Mg451 Mg 0.72237 0.70929 0.81702 0.0
C452 C 0.73698 0.63865 0.72705 0.0
C453 C 0.709 0.50167 0.74941 0.0
O454 O 0.69521 0.47047 0.72344 0.0
O455 O 0.73561 0.58792 0.84797 0.0
O456 O 0.70209 0.64912 0.85349 0.0
O457 O 0.62408 0.63592 0.76478 0.0
O458 O 0.66763 0.66396 0.81416 0.0
C459 C 0.73419 0.62585 0.86535 0.0
C460 C 0.6403 0.67025 0.78327 0.0
O461 O 0.67973 0.5244 0.76934 0.0
Mg462 Mg 0.40646 0.66103 0.79877 0.0
O463 O 0.39791 0.70194 0.73868 0.0
O464 O 0.33498 0.73672 0.74852 0.0
Mg465 Mg 0.29346 0.71557 0.81084 0.0
C466 C 0.36967 0.72931 0.72619 0.0
C467 C 0.50324 0.68963 0.75446 0.0
O468 O 0.53825 0.67485 0.7349 0.0
O469 O 0.4135 0.71826 0.84893 0.0
O470 O 0.35026 0.6886 0.84958 0.0
O471 O 0.36312 0.61422 0.75882 0.0
O472 O 0.33541 0.65784 0.80796 0.0
C473 C 0.37485 0.71813 0.86453 0.0
C474 C 0.32895 0.63234 0.77579 0.0
O475 O 0.47852 0.66159 0.7734 0.0
Mg476 Mg 0.34347 0.40928 0.77838 0.0
O477 O 0.29378 0.39427 0.72646 0.0
O478 O 0.26718 0.33026 0.7469 0.0
Mg479 Mg 0.29831 0.29568 0.8087 0.0
C480 C 0.26779 0.36297 0.72082 0.0
C481 C 0.30936 0.5043 0.72918 0.0
O482 O 0.32335 0.53809 0.70716 0.0
O483 O 0.29402 0.41873 0.83561 0.0
O484 O 0.32714 0.35695 0.83736 0.0
O485 O 0.38572 0.36496 0.73566 0.0
O486 O 0.35142 0.33906 0.79235 0.0
C487 C 0.29866 0.38162 0.8542 0.0
C488 C 0.37198 0.33145 0.75715 0.0
O489 O 0.33828 0.47958 0.74761 0.0
Mg490 Mg 0.5923 0.34731 0.78199 0.0
O491 O 0.61158 0.30577 0.72577 0.0
O492 O 0.67299 0.27291 0.7471 0.0
Mg493 Mg 0.70181 0.29408 0.81749 0.0
C494 C 0.64245 0.27951 0.71864 0.0
C495 C 0.50117 0.31563 0.72315 0.0
O496 O 0.46775 0.33031 0.70035 0.0
O497 O 0.57737 0.29064 0.83039 0.0
O498 O 0.63881 0.32131 0.84359 0.0
O499 O 0.64422 0.39247 0.75007 0.0
O500 O 0.66123 0.35116 0.80522 0.0
C501 C 0.61263 0.29116 0.85307 0.0
C502 C 0.67434 0.37513 0.77434 0.0
O503 O 0.52435 0.34377 0.74454 0.0
Mg504 Mg 0.66458 0.40895 0.25371 0.0
O505 O 0.71364 0.39146 0.30611 0.0
O506 O 0.74377 0.33015 0.28127 0.0
Mg507 Mg 0.71461 0.29938 0.21581 0.0
C508 C 0.74072 0.36052 0.31017 0.0
C509 C 0.69979 0.50466 0.30056 0.0
O510 O 0.68752 0.54119 0.31934 0.0
O511 O 0.71282 0.42299 0.19645 0.0
O512 O 0.68383 0.36011 0.18868 0.0
O513 O 0.62403 0.36147 0.29522 0.0
O514 O 0.65852 0.33963 0.23657 0.0
C515 C 0.70999 0.388 0.1738 0.0
C516 C 0.6391 0.32961 0.27185 0.0
O517 O 0.66989 0.47979 0.28425 0.0
Mg518 Mg 0.60279 0.66121 0.21974 0.0
O519 O 0.60965 0.69861 0.2834 0.0
O520 O 0.67304 0.73128 0.27234 0.0
Mg521 Mg 0.71433 0.71879 0.20808 0.0
C522 C 0.63973 0.72348 0.29644 0.0
C523 C 0.50434 0.69223 0.25919 0.0
O524 O 0.46806 0.67923 0.27743 0.0
O525 O 0.59466 0.71934 0.1711 0.0
O526 O 0.65896 0.69181 0.16786 0.0
O527 O 0.64881 0.61305 0.25679 0.0
O528 O 0.67447 0.659 0.20946 0.0
C529 C 0.63269 0.72071 0.15422 0.0
C530 C 0.68234 0.63188 0.23989 0.0
O531 O 0.52996 0.66275 0.24333 0.0
Mg532 Mg 0.32906 0.59465 0.20273 0.0
O533 O 0.29973 0.60329 0.27069 0.0
O534 O 0.26988 0.66848 0.26041 0.0
Mg535 Mg 0.27915 0.709 0.19474 0.0
C536 C 0.27759 0.63517 0.28482 0.0
C537 C 0.29707 0.49298 0.23618 0.0
O538 O 0.30427 0.45129 0.23076 0.0
O539 O 0.2646 0.59309 0.16138 0.0
O540 O 0.29581 0.65391 0.14894 0.0
O541 O 0.38436 0.63793 0.23501 0.0
O542 O 0.33513 0.66586 0.19287 0.0
C543 C 0.26387 0.62931 0.14085 0.0
C544 C 0.36546 0.67244 0.22007 0.0
O545 O 0.32281 0.51959 0.21652 0.0
Mg546 Mg 0.42784 0.3101 0.24544 0.0
O547 O 0.40714 0.27472 0.30528 0.0
O548 O 0.34016 0.25943 0.28282 0.0
Mg549 Mg 0.3137 0.28721 0.2136 0.0
C550 C 0.37057 0.25777 0.31216 0.0
C551 C 0.52314 0.25886 0.28861 0.0
O552 O 0.55808 0.2409 0.27162 0.0
O553 O 0.41364 0.24978 0.19757 0.0
O554 O 0.36318 0.28304 0.15923 0.0
O555 O 0.38695 0.36606 0.28442 0.0
O556 O 0.36117 0.33449 0.2288 0.0
C557 C 0.3893 0.25159 0.163 0.0
C558 C 0.35347 0.35856 0.26057 0.0
O559 O 0.49652 0.27808 0.26191 0.0
Mg560 Mg 0.76643 0.66571 0.60189 0.0
O561 O 0.70423 0.70345 0.61723 0.0
O562 O 0.72432 0.73552 0.67956 0.0
Mg563 Mg 0.79345 0.72249 0.71207 0.0
C564 C 0.69577 0.72811 0.64938 0.0
C565 C 0.71676 0.69018 0.50443 0.0
O566 O 0.69833 0.674 0.46902 0.0
O567 O 0.8127 0.72448 0.58845 0.0
O568 O 0.82604 0.69651 0.65153 0.0
O569 O 0.73495 0.61743 0.65009 0.0
O570 O 0.78478 0.66344 0.67183 0.0
C571 C 0.83512 0.72578 0.62403 0.0
C572 C 0.75499 0.63678 0.68212 0.0
O573 O 0.73624 0.66349 0.53074 0.0
Mg574 Mg 0.80533 0.32207 0.41949 0.0
O575 O 0.75505 0.26938 0.41017 0.0
O576 O 0.75465 0.25569 0.3384 0.0
Mg577 Mg 0.81097 0.2879 0.29653 0.0
C578 C 0.73833 0.25119 0.37685 0.0
C579 C 0.76519 0.29219 0.51889 0.0
O580 O 0.77618 0.27776 0.55793 0.0
O581 O 0.8651 0.27475 0.41301 0.0
O582 O 0.85291 0.30898 0.35312 0.0
O583 O 0.75257 0.36703 0.38901 0.0
O584 O 0.80366 0.3373 0.34901 0.0
C585 C 0.87515 0.28014 0.37281 0.0
C586 C 0.76777 0.35813 0.35049 0.0
O587 O 0.79591 0.30596 0.494 0.0
Mg588 Mg 0.67337 0.7756 0.41357 0.0
O589 O 0.7191 0.72055 0.40274 0.0
O590 O 0.74004 0.7332 0.33464 0.0
Mg591 Mg 0.70696 0.79587 0.30084 0.0
C592 C 0.74023 0.70943 0.36932 0.0
C593 C 0.71033 0.7372 0.51482 0.0
O594 O 0.72466 0.75225 0.55252 0.0
O595 O 0.72838 0.82947 0.40527 0.0
O596 O 0.70023 0.85535 0.3443 0.0
O597 O 0.62713 0.72531 0.37584 0.0
O598 O 0.6557 0.78054 0.34463 0.0
C599 C 0.72669 0.85947 0.37585 0.0
C600 C 0.6365 0.74497 0.33994 0.0
O601 O 0.69429 0.76496 0.4874 0.0
Mg602 Mg 0.24195 0.67688 0.40746 0.0
O603 O 0.30232 0.71403 0.39162 0.0
O604 O 0.28183 0.7354 0.32535 0.0
Mg605 Mg 0.21383 0.71108 0.29559 0.0
C606 C 0.31031 0.73381 0.3565 0.0
C607 C 0.28195 0.71772 0.50864 0.0
O608 O 0.26475 0.73225 0.54513 0.0
O609 O 0.19454 0.73847 0.39904 0.0
O610 O 0.15757 0.71289 0.34307 0.0
O611 O 0.28249 0.62414 0.36447 0.0
O612 O 0.22828 0.65857 0.33852 0.0
C613 C 0.16085 0.74031 0.37361 0.0
C614 C 0.26043 0.63498 0.33042 0.0
O615 O 0.25574 0.70117 0.47993 0.0
Mg616 Mg 0.30726 0.21555 0.4207 0.0
O617 O 0.27992 0.28075 0.40401 0.0
O618 O 0.26306 0.26601 0.3351 0.0
Mg619 Mg 0.29147 0.20054 0.30335 0.0
C620 C 0.26265 0.29197 0.3682 0.0
C621 C 0.25278 0.25412 0.51599 0.0
O622 O 0.24249 0.23891 0.55477 0.0
O623 O 0.24445 0.17381 0.39838 0.0
O624 O 0.27913 0.14104 0.34516 0.0
O625 O 0.36913 0.25428 0.39257 0.0
O626 O 0.33572 0.2059 0.35574 0.0
C627 C 0.24661 0.1426 0.37008 0.0
C628 C 0.36225 0.23648 0.35509 0.0
O629 O 0.27581 0.22934 0.49075 0.0
Mg630 Mg 0.21378 0.32842 0.60525 0.0
O631 O 0.2815 0.29491 0.60518 0.0
O632 O 0.2792 0.26638 0.67175 0.0
Mg633 Mg 0.21902 0.27223 0.71863 0.0
C634 C 0.29976 0.27392 0.63611 0.0
C635 C 0.23365 0.29679 0.50214 0.0
O636 O 0.22658 0.30431 0.46051 0.0
O637 O 0.1657 0.27012 0.60613 0.0
O638 O 0.17118 0.30068 0.66925 0.0
O639 O 0.25212 0.38066 0.64464 0.0
O640 O 0.21246 0.33199 0.67729 0.0
C641 C 0.15221 0.27242 0.64565 0.0
C642 C 0.24097 0.36163 0.68056 0.0
O643 O 0.21932 0.32522 0.52956 0.0
Mg644 Mg 0.68214 0.24352 0.5989 0.0
O645 O 0.7225 0.30321 0.61721 0.0
O646 O 0.74553 0.28301 0.6834 0.0
Mg647 Mg 0.72446 0.21714 0.71627 0.0
C648 C 0.74391 0.31083 0.65203 0.0
C649 C 0.71889 0.28901 0.50412 0.0
O650 O 0.70706 0.30845 0.46755 0.0
O651 O 0.73867 0.19237 0.59414 0.0
O652 O 0.7025 0.18483 0.65365 0.0
O653 O 0.63082 0.27979 0.6398 0.0
O654 O 0.67107 0.228 0.66844 0.0
C655 C 0.73395 0.17185 0.63035 0.0
C656 C 0.64515 0.25985 0.67444 0.0
O657 O 0.68877 0.27181 0.52764 0.0
Mg658 Mg 0.35117 0.76863 0.60198 0.0
O659 O 0.30947 0.70849 0.61183 0.0
O660 O 0.27568 0.72658 0.67359 0.0
Mg661 Mg 0.29087 0.7927 0.71068 0.0
C662 C 0.28305 0.69958 0.64217 0.0
C663 C 0.32912 0.72581 0.50043 0.0
O664 O 0.34636 0.71217 0.46363 0.0
O665 O 0.29579 0.81977 0.58888 0.0
O666 O 0.32225 0.82657 0.65382 0.0
O667 O 0.39505 0.73076 0.65073 0.0
O668 O 0.35122 0.78242 0.67291 0.0
C669 C 0.29481 0.8399 0.62568 0.0
C670 C 0.3753 0.75005 0.68276 0.0
O671 O 0.35474 0.74353 0.52901 0.0
loop_
_geom_bond_atom_site_label_1
_geom_bond_atom_site_label_2
_geom_bond_distance
_geom_bond_site_symmetry_2
_ccdc_geom_bond_type
Mg0 O1 2.028 . S
Mg0 O7 1.986 . S
Mg0 O9 2.114 . S
Mg0 O10 2.251 . S
Mg0 O13 2.010 . S
O1 Mg0 2.028 . S
O1 C4 1.250 . S
O2 Mg3 2.028 . S
O2 C4 1.248 . S
Mg3 O2 2.028 . S
Mg3 O8 2.032 . S
Mg3 O10 2.079 . S
C4 O1 1.250 . S
C4 O2 1.248 . S
C5 O6 1.264 . S
C5 O13 1.249 1_655 S
O6 C5 1.264 . S
O7 Mg0 1.986 . S
O7 C11 1.246 . S
O8 Mg3 2.032 . S
O8 C11 1.259 . S
O9 Mg0 2.114 . S
O9 C12 1.252 . S
O10 Mg0 2.251 . S
O10 Mg3 2.079 . S
O10 C12 1.273 . S
C11 O7 1.246 . S
C11 O8 1.259 . S
C12 O9 1.252 . S
C12 O10 1.273 . S
O13 Mg0 2.010 . S
O13 C5 1.249 1_455 S
Mg14 O15 2.028 . S
Mg14 O21 1.986 . S
Mg14 O23 2.114 . S
Mg14 O24 2.251 . S
Mg14 O27 2.010 . S
O15 Mg14 2.028 . S
O15 C18 1.250 . S
O16 Mg17 2.028 . S
O16 C18 1.248 . S
Mg17 O16 2.028 . S
Mg17 O22 2.032 . S
Mg17 O24 2.079 . S
C18 O15 1.250 . S
C18 O16 1.248 . S
C19 O20 1.264 . S
C19 O27 1.249 1_565 S
O20 C19 1.264 . S
O21 Mg14 1.986 . S
O21 C25 1.246 . S
O22 Mg17 2.032 . S
O22 C25 1.259 . S
O23 Mg14 2.114 . S
O23 C26 1.252 . S
O24 Mg14 2.251 . S
O24 Mg17 2.079 . S
O24 C26 1.273 . S
C25 O21 1.246 . S
C25 O22 1.259 . S
C26 O23 1.252 . S
C26 O24 1.273 . S
O27 Mg14 2.010 . S
O27 C19 1.249 1_545 S
Mg28 O29 2.028 . S
Mg28 O35 1.986 . S
Mg28 O37 2.114 . S
Mg28 O38 2.251 . S
Mg28 O41 2.010 . S
O29 Mg28 2.028 . S
O29 C32 1.250 . S
O30 Mg31 2.028 . S
O30 C32 1.248 . S
Mg31 O30 2.028 . S
Mg31 O36 2.032 . S
Mg31 O38 2.079 . S
C32 O29 1.250 . S
C32 O30 1.248 . S
C33 O34 1.264 . S
C33 O41 1.249 1_455 S
O34 C33 1.264 . S
O35 Mg28 1.986 . S
O35 C39 1.246 . S
O36 Mg31 2.032 . S
O36 C39 1.259 . S
O37 Mg28 2.114 . S
O37 C40 1.252 . S
O38 Mg28 2.251 . S
O38 Mg31 2.079 . S
O38 C40 1.273 . S
C39 O35 1.246 . S
C39 O36 1.259 . S
C40 O37 1.252 . S
C40 O38 1.273 . S
O41 Mg28 2.010 . S
O41 C33 1.249 1_655 S
Mg42 O43 2.028 . S
Mg42 O49 1.986 . S
Mg42 O51 2.114 . S
Mg42 O52 2.251 . S
Mg42 O55 2.010 . S
O43 Mg42 2.028 . S
O43 C46 1.250 . S
O44 Mg45 2.028 . S
O44 C46 1.248 . S
Mg45 O44 2.028 . S
Mg45 O50 2.032 . S
Mg45 O52 2.079 . S
C46 O43 1.250 . S
C46 O44 1.248 . S
C47 O48 1.264 . S
C47 O55 1.249 1_545 S
O48 C47 1.264 . S
O49 Mg42 1.986 . S
O49 C53 1.246 . S
O50 Mg45 2.032 . S
O50 C53 1.259 . S
O51 Mg42 2.114 . S
O51 C54 1.252 . S
O52 Mg42 2.251 . S
O52 Mg45 2.079 . S
O52 C54 1.273 . S
C53 O49 1.246 . S
C53 O50 1.259 . S
C54 O51 1.252 . S
C54 O52 1.273 . S
O55 Mg42 2.010 . S
O55 C47 1.249 1_565 S
Mg56 O57 2.028 . S
Mg56 O63 1.986 . S
Mg56 O65 2.114 . S
Mg56 O66 2.251 . S
Mg56 O69 2.010 . S
O57 Mg56 2.028 . S
O57 C60 1.250 . S
O58 Mg59 2.028 . S
O58 C60 1.248 . S
Mg59 O58 2.028 . S
Mg59 O64 2.032 . S
Mg59 O66 2.079 . S
C60 O57 1.250 . S
C60 O58 1.248 . S
C61 O62 1.264 . S
C61 O69 1.249 1_655 S
O62 C61 1.264 . S
O63 Mg56 1.986 . S
O63 C67 1.246 . S
O64 Mg59 2.032 . S
O64 C67 1.259 . S
O65 Mg56 2.114 . S
O65 C68 1.252 . S
O66 Mg56 2.251 . S
O66 Mg59 2.079 . S
O66 C68 1.273 . S
C67 O63 1.246 . S
C67 O64 1.259 . S
C68 O65 1.252 . S
C68 O66 1.273 . S
O69 Mg56 2.010 . S
O69 C61 1.249 1_455 S
Mg70 O71 2.028 . S
Mg70 O77 1.986 . S
Mg70 O79 2.114 . S
Mg70 O80 2.251 . S
Mg70 O83 2.010 . S
O71 Mg70 2.028 . S
O71 C74 1.250 . S
O72 Mg73 2.028 . S
O72 C74 1.248 . S
Mg73 O72 2.028 . S
Mg73 O78 2.032 . S
Mg73 O80 2.079 . S
C74 O71 1.250 . S
C74 O72 1.248 . S
C75 O76 1.264 . S
C75 O83 1.249 1_565 S
O76 C75 1.264 . S
O77 Mg70 1.986 . S
O77 C81 1.246 . S
O78 Mg73 2.032 . S
O78 C81 1.259 . S
O79 Mg70 2.114 . S
O79 C82 1.252 . S
O80 Mg70 2.251 . S
O80 Mg73 2.079 . S
O80 C82 1.273 . S
C81 O77 1.246 . S
C81 O78 1.259 . S
C82 O79 1.252 . S
C82 O80 1.273 . S
O83 Mg70 2.010 . S
O83 C75 1.249 1_545 S
Mg84 O85 2.028 . S
Mg84 O91 1.986 . S
Mg84 O93 2.114 . S
Mg84 O94 2.251 . S
Mg84 O97 2.010 . S
O85 Mg84 2.028 . S
O85 C88 1.250 . S
O86 Mg87 2.028 . S
O86 C88 1.248 . S
Mg87 O86 2.028 . S
Mg87 O92 2.032 . S
Mg87 O94 2.079 . S
C88 O85 1.250 . S
C88 O86 1.248 . S
C89 O90 1.264 . S
C89 O97 1.249 1_455 S
O90 C89 1.264 . S
O91 Mg84 1.986 . S
O91 C95 1.246 . S
O92 Mg87 2.032 . S
O92 C95 1.259 . S
O93 Mg84 2.114 . S
O93 C96 1.252 . S
O94 Mg84 2.251 . S
O94 Mg87 2.079 . S
O94 C96 1.273 . S
C95 O91 1.246 . S
C95 O92 1.259 . S
C96 O93 1.252 . S
C96 O94 1.273 . S
O97 Mg84 2.010 . S
O97 C89 1.249 1_655 S
Mg98 O99 2.028 . S
Mg98 O105 1.986 . S
Mg98 O107 2.114 . S
Mg98 O108 2.251 . S
Mg98 O111 2.010 . S
O99 Mg98 2.028 . S
O99 C102 1.250 . S
O100 Mg101 2.028 . S
O100 C102 1.248 . S
Mg101 O100 2.028 . S
Mg101 O106 2.032 . S
Mg101 O108 2.079 . S
C102 O99 1.250 . S
C102 O100 1.248 . S
C103 O104 1.264 . S
C103 O111 1.249 1_545 S
O104 C103 1.264 . S
O105 Mg98 1.986 . S
O105 C109 1.246 . S
O106 Mg101 2.032 . S
O106 C109 1.259 . S
O107 Mg98 2.114 . S
O107 C110 1.252 . S
O108 Mg98 2.251 . S
O108 Mg101 2.079 . S
O108 C110 1.273 . S
C109 O105 1.246 . S
C109 O106 1.259 . S
C110 O107 1.252 . S
C110 O108 1.273 . S
O111 Mg98 2.010 . S
O111 C103 1.249 1_565 S
Mg112 O113 2.028 . S
Mg112 O119 1.986 . S
Mg112 O121 2.114 . S
Mg112 O122 2.251 . S
Mg112 O125 2.010 . S
O113 Mg112 2.028 . S
O113 C116 1.250 . S
O114 Mg115 2.028 . S
O114 C116 1.248 . S
Mg115 O114 2.028 . S
Mg115 O120 2.032 . S
Mg115 O122 2.079 . S
C116 O113 1.250 . S
C116 O114 1.248 . S
C117 O118 1.264 . S
C117 O125 1.249 1_565 S
O118 C117 1.264 . S
O119 Mg112 1.986 . S
O119 C123 1.246 . S
O120 Mg115 2.032 . S
O120 C123 1.259 . S
O121 Mg112 2.114 . S
O121 C124 1.252 . S
O122 Mg112 2.251 . S
O122 Mg115 2.079 . S
O122 C124 1.273 . S
C123 O119 1.246 . S
C123 O120 1.259 . S
C124 O121 1.252 . S
C124 O122 1.273 . S
O125 Mg112 2.010 . S
O125 C117 1.249 1_545 S
Mg126 O127 2.028 . S
Mg126 O133 1.986 . S
Mg126 O135 2.114 . S
Mg126 O136 2.251 . S
Mg126 O139 2.010 . S
O127 Mg126 2.028 . S
O127 C130 1.250 . S
O128 Mg129 2.028 . S
O128 C130 1.248 . S
Mg129 O128 2.028 . S
Mg129 O134 2.032 . S
Mg129 O136 2.079 . S
C130 O127 1.250 . S
C130 O128 1.248 . S
C131 O132 1.264 . S
C131 O139 1.249 1_455 S
O132 C131 1.264 . S
O133 Mg126 1.986 . S
O133 C137 1.246 . S
O134 Mg129 2.032 . S
O134 C137 1.259 . S
O135 Mg126 2.114 . S
O135 C138 1.252 . S
O136 Mg126 2.251 . S
O136 Mg129 2.079 . S
O136 C138 1.273 . S
C137 O133 1.246 . S
C137 O134 1.259 . S
C138 O135 1.252 . S
C138 O136 1.273 . S
O139 Mg126 2.010 . S
O139 C131 1.249 1_655 S
Mg140 O141 2.028 . S
Mg140 O147 1.986 . S
Mg140 O149 2.114 . S
Mg140 O150 2.251 . S
Mg140 O153 2.010 . S
O141 Mg140 2.028 . S
O141 C144 1.250 . S
O142 Mg143 2.028 . S
O142 C144 1.248 . S
Mg143 O142 2.028 . S
Mg143 O148 2.032 . S
Mg143 O150 2.079 . S
C144 O141 1.250 . S
C144 O142 1.248 . S
C145 O146 1.264 . S
C145 O153 1.249 1_545 S
O146 C145 1.264 . S
O147 Mg140 1.986 . S
O147 C151 1.246 . S
O148 Mg143 2.032 . S
O148 C151 1.259 . S
O149 Mg140 2.114 . S
O149 C152 1.252 . S
O150 Mg140 2.251 . S
O150 Mg143 2.079 . S
O150 C152 1.273 . S
C151 O147 1.246 . S
C151 O148 1.259 . S
C152 O149 1.252 . S
C152 O150 1.273 . S
O153 Mg140 2.010 . S
O153 C145 1.249 1_565 S
Mg154 O155 2.028 . S
Mg154 O161 1.986 . S
Mg154 O163 2.114 . S
Mg154 O164 2.251 . S
Mg154 O167 2.010 . S
O155 Mg154 2.028 . S
O155 C158 1.250 . S
O156 Mg157 2.028 . S
O156 C158 1.248 . S
Mg157 O156 2.028 . S
Mg157 O162 2.032 . S
Mg157 O164 2.079 . S
C158 O155 1.250 . S
C158 O156 1.248 . S
C159 O160 1.264 . S
C159 O167 1.249 1_655 S
O160 C159 1.264 . S
O161 Mg154 1.986 . S
O161 C165 1.246 . S
O162 Mg157 2.032 . S
O162 C165 1.259 . S
O163 Mg154 2.114 . S
O163 C166 1.252 . S
O164 Mg154 2.251 . S
O164 Mg157 2.079 . S
O164 C166 1.273 . S
C165 O161 1.246 . S
C165 O162 1.259 . S
C166 O163 1.252 . S
C166 O164 1.273 . S
O167 Mg154 2.010 . S
O167 C159 1.249 1_455 S
Mg168 O169 2.028 . S
Mg168 O175 1.986 . S
Mg168 O177 2.114 . S
Mg168 O178 2.251 . S
Mg168 O181 2.010 . S
O169 Mg168 2.028 . S
O169 C172 1.250 . S
O170 Mg171 2.028 . S
O170 C172 1.248 . S
Mg171 O170 2.028 . S
Mg171 O176 2.032 . S
Mg171 O178 2.079 . S
C172 O169 1.250 . S
C172 O170 1.248 . S
C173 O174 1.264 . S
C173 O181 1.249 1_545 S
O174 C173 1.264 . S
O175 Mg168 1.986 . S
O175 C179 1.246 . S
O176 Mg171 2.032 . S
O176 C179 1.259 . S
O177 Mg168 2.114 . S
O177 C180 1.252 . S
O178 Mg168 2.251 . S
O178 Mg171 2.079 . S
O178 C180 1.273 . S
C179 O175 1.246 . S
C179 O176 1.259 . S
C180 O177 1.252 . S
C180 O178 1.273 . S
O181 Mg168 2.010 . S
O181 C173 1.249 1_565 S
Mg182 O183 2.028 . S
Mg182 O189 1.986 . S
Mg182 O191 2.114 . S
Mg182 O192 2.251 . S
Mg182 O195 2.010 . S
O183 Mg182 2.028 . S
O183 C186 1.250 . S
O184 Mg185 2.028 . S
O184 C186 1.248 . S
Mg185 O184 2.028 . S
Mg185 O190 2.032 . S
Mg185 O192 2.079 . S
C186 O183 1.250 . S
C186 O184 1.248 . S
C187 O188 1.264 . S
C187 O195 1.249 1_655 S
O188 C187 1.264 . S
O189 Mg182 1.986 . S
O189 C193 1.246 . S
O190 Mg185 2.032 . S
O190 C193 1.259 . S
O191 Mg182 2.114 . S
O191 C194 1.252 . S
O192 Mg182 2.251 . S
O192 Mg185 2.079 . S
O192 C194 1.273 . S
C193 O189 1.246 . S
C193 O190 1.259 . S
C194 O191 1.252 . S
C194 O192 1.273 . S
O195 Mg182 2.010 . S
O195 C187 1.249 1_455 S
Mg196 O197 2.028 . S
Mg196 O203 1.986 . S
Mg196 O205 2.114 . S
Mg196 O206 2.251 . S
Mg196 O209 2.010 . S
O197 Mg196 2.028 . S
O197 C200 1.250 . S
O198 Mg199 2.028 . S
O198 C200 1.248 . S
Mg199 O198 2.028 . S
Mg199 O204 2.032 . S
Mg199 O206 2.079 . S
C200 O197 1.250 . S
C200 O198 1.248 . S
C201 O202 1.264 . S
C201 O209 1.249 1_565 S
O202 C201 1.264 . S
O203 Mg196 1.986 . S
O203 C207 1.246 . S
O204 Mg199 2.032 . S
O204 C207 1.259 . S
O205 Mg196 2.114 . S
O205 C208 1.252 . S
O206 Mg196 2.251 . S
O206 Mg199 2.079 . S
O206 C208 1.273 . S
C207 O203 1.246 . S
C207 O204 1.259 . S
C208 O205 1.252 . S
C208 O206 1.273 . S
O209 Mg196 2.010 . S
O209 C201 1.249 1_545 S
Mg210 O211 2.028 . S
Mg210 O217 1.986 . S
Mg210 O219 2.114 . S
Mg210 O220 2.251 . S
Mg210 O223 2.010 . S
O211 Mg210 2.028 . S
O211 C214 1.250 . S
O212 Mg213 2.028 . S
O212 C214 1.248 . S
Mg213 O212 2.028 . S
Mg213 O218 2.032 . S
Mg213 O220 2.079 . S
C214 O211 1.250 . S
C214 O212 1.248 . S
C215 O216 1.264 . S
C215 O223 1.249 1_455 S
O216 C215 1.264 . S
O217 Mg210 1.986 . S
O217 C221 1.246 . S
O218 Mg213 2.032 . S
O218 C221 1.259 . S
O219 Mg210 2.114 . S
O219 C222 1.252 . S
O220 Mg210 2.251 . S
O220 Mg213 2.079 . S
O220 C222 1.273 . S
C221 O217 1.246 . S
C221 O218 1.259 . S
C222 O219 1.252 . S
C222 O220 1.273 . S
O223 Mg210 2.010 . S
O223 C215 1.249 1_655 S
Mg224 O225 2.028 . S
Mg224 O231 1.986 . S
Mg224 O233 2.114 . S
Mg224 O234 2.251 . S
Mg224 O237 2.010 . S
O225 Mg224 2.028 . S
O225 C228 1.250 . S
O226 Mg227 2.028 . S
O226 C228 1.248 . S
Mg227 O226 2.028 . S
Mg227 O232 2.032 . S
Mg227 O234 2.079 . S
C228 O225 1.250 . S
C228 O226 1.248 . S
C229 O230 1.264 . S
C229 O237 1.249 1_556 S
O230 C229 1.264 . S
O231 Mg224 1.986 . S
O231 C235 1.246 . S
O232 Mg227 2.032 . S
O232 C235 1.259 . S
O233 Mg224 2.114 . S
O233 C236 1.252 . S
O234 Mg224 2.251 . S
O234 Mg227 2.079 . S
O234 C236 1.273 . S
C235 O231 1.246 . S
C235 O232 1.259 . S
C236 O233 1.252 . S
C236 O234 1.273 . S
O237 Mg224 2.010 . S
O237 C229 1.249 1_554 S
Mg238 O239 2.028 . S
Mg238 O245 1.986 . S
Mg238 O247 2.114 . S
Mg238 O248 2.251 . S
Mg238 O251 2.010 . S
O239 Mg238 2.028 . S
O239 C242 1.250 . S
O240 Mg241 2.028 . S
O240 C242 1.248 . S
Mg241 O240 2.028 . S
Mg241 O246 2.032 . S
Mg241 O248 2.079 . S
C242 O239 1.250 . S
C242 O240 1.248 . S
C243 O244 1.264 . S
C243 O251 1.249 1_554 S
O244 C243 1.264 . S
O245 Mg238 1.986 . S
O245 C249 1.246 . S
O246 Mg241 2.032 . S
O246 C249 1.259 . S
O247 Mg238 2.114 . S
O247 C250 1.252 . S
O248 Mg238 2.251 . S
O248 Mg241 2.079 . S
O248 C250 1.273 . S
C249 O245 1.246 . S
C249 O246 1.259 . S
C250 O247 1.252 . S
C250 O248 1.273 . S
O251 Mg238 2.010 . S
O251 C243 1.249 1_556 S
Mg252 O253 2.028 . S
Mg252 O259 1.986 . S
Mg252 O261 2.114 . S
Mg252 O262 2.251 . S
Mg252 O265 2.010 . S
O253 Mg252 2.028 . S
O253 C256 1.250 . S
O254 Mg255 2.028 . S
O254 C256 1.248 . S
Mg255 O254 2.028 . S
Mg255 O260 2.032 . S
Mg255 O262 2.079 . S
C256 O253 1.250 . S
C256 O254 1.248 . S
C257 O258 1.264 . S
C257 O265 1.249 1_554 S
O258 C257 1.264 . S
O259 Mg252 1.986 . S
O259 C263 1.246 . S
O260 Mg255 2.032 . S
O260 C263 1.259 . S
O261 Mg252 2.114 . S
O261 C264 1.252 . S
O262 Mg252 2.251 . S
O262 Mg255 2.079 . S
O262 C264 1.273 . S
C263 O259 1.246 . S
C263 O260 1.259 . S
C264 O261 1.252 . S
C264 O262 1.273 . S
O265 Mg252 2.010 . S
O265 C257 1.249 1_556 S
Mg266 O267 2.028 . S
Mg266 O273 1.986 . S
Mg266 O275 2.114 . S
Mg266 O276 2.251 . S
Mg266 O279 2.010 . S
O267 Mg266 2.028 . S
O267 C270 1.250 . S
O268 Mg269 2.028 . S
O268 C270 1.248 . S
Mg269 O268 2.028 . S
Mg269 O274 2.032 . S
Mg269 O276 2.079 . S
C270 O267 1.250 . S
C270 O268 1.248 . S
C271 O272 1.264 . S
C271 O279 1.249 1_554 S
O272 C271 1.264 . S
O273 Mg266 1.986 . S
O273 C277 1.246 . S
O274 Mg269 2.032 . S
O274 C277 1.259 . S
O275 Mg266 2.114 . S
O275 C278 1.252 . S
O276 Mg266 2.251 . S
O276 Mg269 2.079 . S
O276 C278 1.273 . S
C277 O273 1.246 . S
C277 O274 1.259 . S
C278 O275 1.252 . S
C278 O276 1.273 . S
O279 Mg266 2.010 . S
O279 C271 1.249 1_556 S
Mg280 O281 2.028 . S
Mg280 O287 1.986 . S
Mg280 O289 2.114 . S
Mg280 O290 2.251 . S
Mg280 O293 2.010 . S
O281 Mg280 2.028 . S
O281 C284 1.250 . S
O282 Mg283 2.028 . S
O282 C284 1.248 . S
Mg283 O282 2.028 . S
Mg283 O288 2.032 . S
Mg283 O290 2.079 . S
C284 O281 1.250 . S
C284 O282 1.248 . S
C285 O286 1.264 . S
C285 O293 1.249 1_554 S
O286 C285 1.264 . S
O287 Mg280 1.986 . S
O287 C291 1.246 . S
O288 Mg283 2.032 . S
O288 C291 1.259 . S
O289 Mg280 2.114 . S
O289 C292 1.252 . S
O290 Mg280 2.251 . S
O290 Mg283 2.079 . S
O290 C292 1.273 . S
C291 O287 1.246 . S
C291 O288 1.259 . S
C292 O289 1.252 . S
C292 O290 1.273 . S
O293 Mg280 2.010 . S
O293 C285 1.249 1_556 S
Mg294 O295 2.028 . S
Mg294 O301 1.986 . S
Mg294 O303 2.114 . S
Mg294 O304 2.251 . S
Mg294 O307 2.010 . S
O295 Mg294 2.028 . S
O295 C298 1.250 . S
O296 Mg297 2.028 . S
O296 C298 1.248 . S
Mg297 O296 2.028 . S
Mg297 O302 2.032 . S
Mg297 O304 2.079 . S
C298 O295 1.250 . S
C298 O296 1.248 . S
C299 O300 1.264 . S
C299 O307 1.249 1_556 S
O300 C299 1.264 . S
O301 Mg294 1.986 . S
O301 C305 1.246 . S
O302 Mg297 2.032 . S
O302 C305 1.259 . S
O303 Mg294 2.114 . S
O303 C306 1.252 . S
O304 Mg294 2.251 . S
O304 Mg297 2.079 . S
O304 C306 1.273 . S
C305 O301 1.246 . S
C305 O302 1.259 . S
C306 O303 1.252 . S
C306 O304 1.273 . S
O307 Mg294 2.010 . S
O307 C299 1.249 1_554 S
Mg308 O309 2.028 . S
Mg308 O315 1.986 . S
Mg308 O317 2.114 . S
Mg308 O318 2.251 . S
Mg308 O321 2.010 . S
O309 Mg308 2.028 . S
O309 C312 1.250 . S
O310 Mg311 2.028 . S
O310 C312 1.248 . S
Mg311 O310 2.028 . S
Mg311 O316 2.032 . S
Mg311 O318 2.079 . S
C312 O309 1.250 . S
C312 O310 1.248 . S
C313 O314 1.264 . S
C313 O321 1.249 1_556 S
O314 C313 1.264 . S
O315 Mg308 1.986 . S
O315 C319 1.246 . S
O316 Mg311 2.032 . S
O316 C319 1.259 . S
O317 Mg308 2.114 . S
O317 C320 1.252 . S
O318 Mg308 2.251 . S
O318 Mg311 2.079 . S
O318 C320 1.273 . S
C319 O315 1.246 . S
C319 O316 1.259 . S
C320 O317 1.252 . S
C320 O318 1.273 . S
O321 Mg308 2.010 . S
O321 C313 1.249 1_554 S
Mg322 O323 2.028 . S
Mg322 O329 1.986 . S
Mg322 O331 2.114 . S
Mg322 O332 2.251 . S
Mg322 O335 2.010 . S
O323 Mg322 2.028 . S
O323 C326 1.250 . S
O324 Mg325 2.028 . S
O324 C326 1.248 . S
Mg325 O324 2.028 . S
Mg325 O330 2.032 . S
Mg325 O332 2.079 . S
C326 O323 1.250 . S
C326 O324 1.248 . S
C327 O328 1.264 . S
C327 O335 1.249 1_556 S
O328 C327 1.264 . S
O329 Mg322 1.986 . S
O329 C333 1.246 . S
O330 Mg325 2.032 . S
O330 C333 1.259 . S
O331 Mg322 2.114 . S
O331 C334 1.252 . S
O332 Mg322 2.251 . S
O332 Mg325 2.079 . S
O332 C334 1.273 . S
C333 O329 1.246 . S
C333 O330 1.259 . S
C334 O331 1.252 . S
C334 O332 1.273 . S
O335 Mg322 2.010 . S
O335 C327 1.249 1_554 S
Mg336 O337 2.028 . S
Mg336 O343 1.986 . S
Mg336 O345 2.114 . S
Mg336 O346 2.251 . S
Mg336 O349 2.010 . S
O337 Mg336 2.028 . S
O337 C340 1.250 . S
O338 Mg339 2.028 . S
O338 C340 1.248 . S
Mg339 O338 2.028 . S
Mg339 O344 2.032 . S
Mg339 O346 2.079 . S
C340 O337 1.250 . S
C340 O338 1.248 . S
C341 O342 1.264 . S
C341 O349 1.249 . S
O342 C341 1.264 . S
O343 Mg336 1.986 . S
O343 C347 1.246 . S
O344 Mg339 2.032 . S
O344 C347 1.259 . S
O345 Mg336 2.114 . S
O345 C348 1.252 . S
O346 Mg336 2.251 . S
O346 Mg339 2.079 . S
O346 C348 1.273 . S
C347 O343 1.246 . S
C347 O344 1.259 . S
C348 O345 1.252 . S
C348 O346 1.273 . S
O349 Mg336 2.010 . S
O349 C341 1.249 . S
Mg350 O351 2.028 . S
Mg350 O357 1.986 . S
Mg350 O359 2.114 . S
Mg350 O360 2.251 . S
Mg350 O363 2.010 . S
O351 Mg350 2.028 . S
O351 C354 1.250 . S
O352 Mg353 2.028 . S
O352 C354 1.248 . S
Mg353 O352 2.028 . S
Mg353 O358 2.032 . S
Mg353 O360 2.079 . S
C354 O351 1.250 . S
C354 O352 1.248 . S
C355 O356 1.264 . S
C355 O363 1.249 . S
O356 C355 1.264 . S
O357 Mg350 1.986 . S
O357 C361 1.246 . S
O358 Mg353 2.032 . S
O358 C361 1.259 . S
O359 Mg350 2.114 . S
O359 C362 1.252 . S
O360 Mg350 2.251 . S
O360 Mg353 2.079 . S
O360 C362 1.273 . S
C361 O357 1.246 . S
C361 O358 1.259 . S
C362 O359 1.252 . S
C362 O360 1.273 . S
O363 Mg350 2.010 . S
O363 C355 1.249 . S
Mg364 O365 2.028 . S
Mg364 O371 1.986 . S
Mg364 O373 2.114 . S
Mg364 O374 2.251 . S
Mg364 O377 2.010 . S
O365 Mg364 2.028 . S
O365 C368 1.250 . S
O366 Mg367 2.028 . S
O366 C368 1.248 . S
Mg367 O366 2.028 . S
Mg367 O372 2.032 . S
Mg367 O374 2.079 . S
C368 O365 1.250 . S
C368 O366 1.248 . S
C369 O370 1.264 . S
C369 O377 1.249 . S
O370 C369 1.264 . S
O371 Mg364 1.986 . S
O371 C375 1.246 . S
O372 Mg367 2.032 . S
O372 C375 1.259 . S
O373 Mg364 2.114 . S
O373 C376 1.252 . S
O374 Mg364 2.251 . S
O374 Mg367 2.079 . S
O374 C376 1.273 . S
C375 O371 1.246 . S
C375 O372 1.259 . S
C376 O373 1.252 . S
C376 O374 1.273 . S
O377 Mg364 2.010 . S
O377 C369 1.249 . S
Mg378 O379 2.028 . S
Mg378 O385 1.986 . S
Mg378 O387 2.114 . S
Mg378 O388 2.251 . S
Mg378 O391 2.010 . S
O379 Mg378 2.028 . S
O379 C382 1.250 . S
O380 Mg381 2.028 . S
O380 C382 1.248 . S
Mg381 O380 2.028 . S
Mg381 O386 2.032 . S
Mg381 O388 2.079 . S
C382 O379 1.250 . S
C382 O380 1.248 . S
C383 O384 1.264 . S
C383 O391 1.249 . S
O384 C383 1.264 . S
O385 Mg378 1.986 . S
O385 C389 1.246 . S
O386 Mg381 2.032 . S
O386 C389 1.259 . S
O387 Mg378 2.114 . S
O387 C390 1.252 . S
O388 Mg378 2.251 . S
O388 Mg381 2.079 . S
O388 C390 1.273 . S
C389 O385 1.246 . S
C389 O386 1.259 . S
C390 O387 1.252 . S
C390 O388 1.273 . S
O391 Mg378 2.010 . S
O391 C383 1.249 . S
Mg392 O393 2.028 . S
Mg392 O399 1.986 . S
Mg392 O401 2.114 . S
Mg392 O402 2.251 . S
Mg392 O405 2.010 . S
O393 Mg392 2.028 . S
O393 C396 1.250 . S
O394 Mg395 2.028 . S
O394 C396 1.248 . S
Mg395 O394 2.028 . S
Mg395 O400 2.032 . S
Mg395 O402 2.079 . S
C396 O393 1.250 . S
C396 O394 1.248 . S
C397 O398 1.264 . S
C397 O405 1.249 . S
O398 C397 1.264 . S
O399 Mg392 1.986 . S
O399 C403 1.246 . S
O400 Mg395 2.032 . S
O400 C403 1.259 . S
O401 Mg392 2.114 . S
O401 C404 1.252 . S
O402 Mg392 2.251 . S
O402 Mg395 2.079 . S
O402 C404 1.273 . S
C403 O399 1.246 . S
C403 O400 1.259 . S
C404 O401 1.252 . S
C404 O402 1.273 . S
O405 Mg392 2.010 . S
O405 C397 1.249 . S
Mg406 O407 2.028 . S
Mg406 O413 1.986 . S
Mg406 O415 2.114 . S
Mg406 O416 2.251 . S
Mg406 O419 2.010 . S
O407 Mg406 2.028 . S
O407 C410 1.250 . S
O408 Mg409 2.028 . S
O408 C410 1.248 . S
Mg409 O408 2.028 . S
Mg409 O414 2.032 . S
Mg409 O416 2.079 . S
C410 O407 1.250 . S
C410 O408 1.248 . S
C411 O412 1.264 . S
C411 O419 1.249 . S
O412 C411 1.264 . S
O413 Mg406 1.986 . S
O413 C417 1.246 . S
O414 Mg409 2.032 . S
O414 C417 1.259 . S
O415 Mg406 2.114 . S
O415 C418 1.252 . S
O416 Mg406 2.251 . S
O416 Mg409 2.079 . S
O416 C418 1.273 . S
C417 O413 1.246 . S
C417 O414 1.259 . S
C418 O415 1.252 . S
C418 O416 1.273 . S
O419 Mg406 2.010 . S
O419 C411 1.249 . S
Mg420 O421 2.028 . S
Mg420 O427 1.986 . S
Mg420 O429 2.114 . S
Mg420 O430 2.251 . S
Mg420 O433 2.010 . S
O421 Mg420 2.028 . S
O421 C424 1.250 . S
O422 Mg423 2.028 . S
O422 C424 1.248 . S
Mg423 O422 2.028 . S
Mg423 O428 2.032 . S
Mg423 O430 2.079 . S
C424 O421 1.250 . S
C424 O422 1.248 . S
C425 O426 1.264 . S
C425 O433 1.249 . S
O426 C425 1.264 . S
O427 Mg420 1.986 . S
O427 C431 1.246 . S
O428 Mg423 2.032 . S
O428 C431 1.259 . S
O429 Mg420 2.114 . S
O429 C432 1.252 . S
O430 Mg420 2.251 . S
O430 Mg423 2.079 . S
O430 C432 1.273 . S
C431 O427 1.246 . S
C431 O428 1.259 . S
C432 O429 1.252 . S
C432 O430 1.273 . S
O433 Mg420 2.010 . S
O433 C425 1.249 . S
Mg434 O435 2.028 . S
Mg434 O441 1.986 . S
Mg434 O443 2.114 . S
Mg434 O444 2.251 . S
Mg434 O447 2.010 . S
O435 Mg434 2.028 . S
O435 C438 1.250 . S
O436 Mg437 2.028 . S
O436 C438 1.248 . S
Mg437 O436 2.028 . S
Mg437 O442 2.032 . S
Mg437 O444 2.079 . S
C438 O435 1.250 . S
C438 O436 1.248 . S
C439 O440 1.264 . S
C439 O447 1.249 . S
O440 C439 1.264 . S
O441 Mg434 1.986 . S
O441 C445 1.246 . S
O442 Mg437 2.032 . S
O442 C445 1.259 . S
O443 Mg434 2.114 . S
O443 C446 1.252 . S
O444 Mg434 2.251 . S
O444 Mg437 2.079 . S
O444 C446 1.273 . S
C445 O441 1.246 . S
C445 O442 1.259 . S
C446 O443 1.252 . S
C446 O444 1.273 . S
O447 Mg434 2.010 . S
O447 C439 1.249 . S
Mg448 O449 2.028 . S
Mg448 O455 1.986 . S
Mg448 O457 2.114 . S
Mg448 O458 2.251 . S
Mg448 O461 2.010 . S
O449 Mg448 2.028 . S
O449 C452 1.250 . S
O450 Mg451 2.028 . S
O450 C452 1.248 . S
Mg451 O450 2.028 . S
Mg451 O456 2.032 . S
Mg451 O458 2.079 . S
C452 O449 1.250 . S
C452 O450 1.248 . S
C453 O454 1.264 . S
C453 O461 1.249 . S
O454 C453 1.264 . S
O455 Mg448 1.986 . S
O455 C459 1.246 . S
O456 Mg451 2.032 . S
O456 C459 1.259 . S
O457 Mg448 2.114 . S
O457 C460 1.252 . S
O458 Mg448 2.251 . S
O458 Mg451 2.079 . S
O458 C460 1.273 . S
C459 O455 1.246 . S
C459 O456 1.259 . S
C460 O457 1.252 . S
C460 O458 1.273 . S
O461 Mg448 2.010 . S
O461 C453 1.249 . S
Mg462 O463 2.028 . S
Mg462 O469 1.986 . S
Mg462 O471 2.114 . S
Mg462 O472 2.251 . S
Mg462 O475 2.010 . S
O463 Mg462 2.028 . S
O463 C466 1.250 . S
O464 Mg465 2.028 . S
O464 C466 1.248 . S
Mg465 O464 2.028 . S
Mg465 O470 2.032 . S
Mg465 O472 2.079 . S
C466 O463 1.250 . S
C466 O464 1.248 . S
C467 O468 1.264 . S
C467 O475 1.249 . S
O468 C467 1.264 . S
O469 Mg462 1.986 . S
O469 C473 1.246 . S
O470 Mg465 2.032 . S
O470 C473 1.259 . S
O471 Mg462 2.114 . S
O471 C474 1.252 . S
O472 Mg462 2.251 . S
O472 Mg465 2.079 . S
O472 C474 1.273 . S
C473 O469 1.246 . S
C473 O470 1.259 . S
C474 O471 1.252 . S
C474 O472 1.273 . S
O475 Mg462 2.010 . S
O475 C467 1.249 . S
Mg476 O477 2.028 . S
Mg476 O483 1.986 . S
Mg476 O485 2.114 . S
Mg476 O486 2.251 . S
Mg476 O489 2.010 . S
O477 Mg476 2.028 . S
O477 C480 1.250 . S
O478 Mg479 2.028 . S
O478 C480 1.248 . S
Mg479 O478 2.028 . S
Mg479 O484 2.032 . S
Mg479 O486 2.079 . S
C480 O477 1.250 . S
C480 O478 1.248 . S
C481 O482 1.264 . S
C481 O489 1.249 . S
O482 C481 1.264 . S
O483 Mg476 1.986 . S
O483 C487 1.246 . S
O484 Mg479 2.032 . S
O484 C487 1.259 . S
O485 Mg476 2.114 . S
O485 C488 1.252 . S
O486 Mg476 2.251 . S
O486 Mg479 2.079 . S
O486 C488 1.273 . S
C487 O483 1.246 . S
C487 O484 1.259 . S
C488 O485 1.252 . S
C488 O486 1.273 . S
O489 Mg476 2.010 . S
O489 C481 1.249 . S
Mg490 O491 2.028 . S
Mg490 O497 1.986 . S
Mg490 O499 2.114 . S
Mg490 O500 2.251 . S
Mg490 O503 2.010 . S
O491 Mg490 2.028 . S
O491 C494 1.250 . S
O492 Mg493 2.028 . S
O492 C494 1.248 . S
Mg493 O492 2.028 . S
Mg493 O498 2.032 . S
Mg493 O500 2.079 . S
C494 O491 1.250 . S
C494 O492 1.248 . S
C495 O496 1.264 . S
C495 O503 1.249 . S
O496 C495 1.264 . S
O497 Mg490 1.986 . S
O497 C501 1.246 . S
O498 Mg493 2.032 . S
O498 C501 1.259 . S
O499 Mg490 2.114 . S
O499 C502 1.252 . S
O500 Mg490 2.251 . S
O500 Mg493 2.079 . S
O500 C502 1.273 . S
C501 O497 1.246 . S
C501 O498 1.259 . S
C502 O499 1.252 . S
C502 O500 1.273 . S
O503 Mg490 2.010 . S
O503 C495 1.249 . S
Mg504 O505 2.028 . S
Mg504 O511 1.986 . S
Mg504 O513 2.114 . S
Mg504 O514 2.251 . S
Mg504 O517 2.010 . S
O505 Mg504 2.028 . S
O505 C508 1.250 . S
O506 Mg507 2.028 . S
O506 C508 1.248 . S
Mg507 O506 2.028 . S
Mg507 O512 2.032 . S
Mg507 O514 2.079 . S
C508 O505 1.250 . S
C508 O506 1.248 . S
C509 O510 1.264 . S
C509 O517 1.249 . S
O510 C509 1.264 . S
O511 Mg504 1.986 . S
O511 C515 1.246 . S
O512 Mg507 2.032 . S
O512 C515 1.259 . S
O513 Mg504 2.114 . S
O513 C516 1.252 . S
O514 Mg504 2.251 . S
O514 Mg507 2.079 . S
O514 C516 1.273 . S
C515 O511 1.246 . S
C515 O512 1.259 . S
C516 O513 1.252 . S
C516 O514 1.273 . S
O517 Mg504 2.010 . S
O517 C509 1.249 . S
Mg518 O519 2.028 . S
Mg518 O525 1.986 . S
Mg518 O527 2.114 . S
Mg518 O528 2.251 . S
Mg518 O531 2.010 . S
O519 Mg518 2.028 . S
O519 C522 1.250 . S
O520 Mg521 2.028 . S
O520 C522 1.248 . S
Mg521 O520 2.028 . S
Mg521 O526 2.032 . S
Mg521 O528 2.079 . S
C522 O519 1.250 . S
C522 O520 1.248 . S
C523 O524 1.264 . S
C523 O531 1.249 . S
O524 C523 1.264 . S
O525 Mg518 1.986 . S
O525 C529 1.246 . S
O526 Mg521 2.032 . S
O526 C529 1.259 . S
O527 Mg518 2.114 . S
O527 C530 1.252 . S
O528 Mg518 2.251 . S
O528 Mg521 2.079 . S
O528 C530 1.273 . S
C529 O525 1.246 . S
C529 O526 1.259 . S
C530 O527 1.252 . S
C530 O528 1.273 . S
O531 Mg518 2.010 . S
O531 C523 1.249 . S
Mg532 O533 2.028 . S
Mg532 O539 1.986 . S
Mg532 O541 2.114 . S
Mg532 O542 2.251 . S
Mg532 O545 2.010 . S
O533 Mg532 2.028 . S
O533 C536 1.250 . S
O534 Mg535 2.028 . S
O534 C536 1.248 . S
Mg535 O534 2.028 . S
Mg535 O540 2.032 . S
Mg535 O542 2.079 . S
C536 O533 1.250 . S
C536 O534 1.248 . S
C537 O538 1.264 . S
C537 O545 1.249 . S
O538 C537 1.264 . S
O539 Mg532 1.986 . S
O539 C543 1.246 . S
O540 Mg535 2.032 . S
O540 C543 1.259 . S
O541 Mg532 2.114 . S
O541 C544 1.252 . S
O542 Mg532 2.251 . S
O542 Mg535 2.079 . S
O542 C544 1.273 . S
C543 O539 1.246 . S
C543 O540 1.259 . S
C544 O541 1.252 . S
C544 O542 1.273 . S
O545 Mg532 2.010 . S
O545 C537 1.249 . S
Mg546 O547 2.028 . S
Mg546 O553 1.986 . S
Mg546 O555 2.114 . S
Mg546 O556 2.251 . S
Mg546 O559 2.010 . S
O547 Mg546 2.028 . S
O547 C550 1.250 . S
O548 Mg549 2.028 . S
O548 C550 1.248 . S
Mg549 O548 2.028 . S
Mg549 O554 2.032 . S
Mg549 O556 2.079 . S
C550 O547 1.250 . S
C550 O548 1.248 . S
C551 O552 1.264 . S
C551 O559 1.249 . S
O552 C551 1.264 . S
O553 Mg546 1.986 . S
O553 C557 1.246 . S
O554 Mg549 2.032 . S
O554 C557 1.259 . S
O555 Mg546 2.114 . S
O555 C558 1.252 . S
O556 Mg546 2.251 . S
O556 Mg549 2.079 . S
O556 C558 1.273 . S
C557 O553 1.246 . S
C557 O554 1.259 . S
C558 O555 1.252 . S
C558 O556 1.273 . S
O559 Mg546 2.010 . S
O559 C551 1.249 . S
Mg560 O561 2.028 . S
Mg560 O567 1.986 . S
Mg560 O569 2.114 . S
Mg560 O570 2.251 . S
Mg560 O573 2.010 . S
O561 Mg560 2.028 . S
O561 C564 1.250 . S
O562 Mg563 2.028 . S
O562 C564 1.248 . S
Mg563 O562 2.028 . S
Mg563 O568 2.032 . S
Mg563 O570 2.079 . S
C564 O561 1.250 . S
C564 O562 1.248 . S
C565 O566 1.264 . S
C565 O573 1.249 . S
O566 C565 1.264 . S
O567 Mg560 1.986 . S
O567 C571 1.246 . S
O568 Mg563 2.032 . S
O568 C571 1.259 . S
O569 Mg560 2.114 . S
O569 C572 1.252 . S
O570 Mg560 2.251 . S
O570 Mg563 2.079 . S
O570 C572 1.273 . S
C571 O567 1.246 . S
C571 O568 1.259 . S
C572 O569 1.252 . S
C572 O570 1.273 . S
O573 Mg560 2.010 . S
O573 C565 1.249 . S
Mg574 O575 2.028 . S
Mg574 O581 1.986 . S
Mg574 O583 2.114 . S
Mg574 O584 2.251 . S
Mg574 O587 2.010 . S
O575 Mg574 2.028 . S
O575 C578 1.250 . S
O576 Mg577 2.028 . S
O576 C578 1.248 . S
Mg577 O576 2.028 . S
Mg577 O582 2.032 . S
Mg577 O584 2.079 . S
C578 O575 1.250 . S
C578 O576 1.248 . S
C579 O580 1.264 . S
C579 O587 1.249 . S
O580 C579 1.264 . S
O581 Mg574 1.986 . S
O581 C585 1.246 . S
O582 Mg577 2.032 . S
O582 C585 1.259 . S
O583 Mg574 2.114 . S
O583 C586 1.252 . S
O584 Mg574 2.251 . S
O584 Mg577 2.079 . S
O584 C586 1.273 . S
C585 O581 1.246 . S
C585 O582 1.259 . S
C586 O583 1.252 . S
C586 O584 1.273 . S
O587 Mg574 2.010 . S
O587 C579 1.249 . S
Mg588 O589 2.028 . S
Mg588 O595 1.986 . S
Mg588 O597 2.114 . S
Mg588 O598 2.251 . S
Mg588 O601 2.010 . S
O589 Mg588 2.028 . S
O589 C592 1.250 . S
O590 Mg591 2.028 . S
O590 C592 1.248 . S
Mg591 O590 2.028 . S
Mg591 O596 2.032 . S
Mg591 O598 2.079 . S
C592 O589 1.250 . S
C592 O590 1.248 . S
C593 O594 1.264 . S
C593 O601 1.249 . S
O594 C593 1.264 . S
O595 Mg588 1.986 . S
O595 C599 1.246 . S
O596 Mg591 2.032 . S
O596 C599 1.259 . S
O597 Mg588 2.114 . S
O597 C600 1.252 . S
O598 Mg588 2.251 . S
O598 Mg591 2.079 . S
O598 C600 1.273 . S
C599 O595 1.246 . S
C599 O596 1.259 . S
C600 O597 1.252 . S
C600 O598 1.273 . S
O601 Mg588 2.010 . S
O601 C593 1.249 . S
Mg602 O603 2.028 . S
Mg602 O609 1.986 . S
Mg602 O611 2.114 . S
Mg602 O612 2.251 . S
Mg602 O615 2.010 . S
O603 Mg602 2.028 . S
O603 C606 1.250 . S
O604 Mg605 2.028 . S
O604 C606 1.248 . S
Mg605 O604 2.028 . S
Mg605 O610 2.032 . S
Mg605 O612 2.079 . S
C606 O603 1.250 . S
C606 O604 1.248 . S
C607 O608 1.264 . S
C607 O615 1.249 . S
O608 C607 1.264 . S
O609 Mg602 1.986 . S
O609 C613 1.246 . S
O610 Mg605 2.032 . S
O610 C613 1.259 . S
O611 Mg602 2.114 . S
O611 C614 1.252 . S
O612 Mg602 2.251 . S
O612 Mg605 2.079 . S
O612 C614 1.273 . S
C613 O609 1.246 . S
C613 O610 1.259 . S
C614 O611 1.252 . S
C614 O612 1.273 . S
O615 Mg602 2.010 . S
O615 C607 1.249 . S
Mg616 O617 2.028 . S
Mg616 O623 1.986 . S
Mg616 O625 2.114 . S
Mg616 O626 2.251 . S
Mg616 O629 2.010 . S
O617 Mg616 2.028 . S
O617 C620 1.250 . S
O618 Mg619 2.028 . S
O618 C620 1.248 . S
Mg619 O618 2.028 . S
Mg619 O624 2.032 . S
Mg619 O626 2.079 . S
C620 O617 1.250 . S
C620 O618 1.248 . S
C621 O622 1.264 . S
C621 O629 1.249 . S
O622 C621 1.264 . S
O623 Mg616 1.986 . S
O623 C627 1.246 . S
O624 Mg619 2.032 . S
O624 C627 1.259 . S
O625 Mg616 2.114 . S
O625 C628 1.252 . S
O626 Mg616 2.251 . S
O626 Mg619 2.079 . S
O626 C628 1.273 . S
C627 O623 1.246 . S
C627 O624 1.259 . S
C628 O625 1.252 . S
C628 O626 1.273 . S
O629 Mg616 2.010 . S
O629 C621 1.249 . S
Mg630 O631 2.028 . S
Mg630 O637 1.986 . S
Mg630 O639 2.114 . S
Mg630 O640 2.251 . S
Mg630 O643 2.010 . S
O631 Mg630 2.028 . S
O631 C634 1.250 . S
O632 Mg633 2.028 . S
O632 C634 1.248 . S
Mg633 O632 2.028 . S
Mg633 O638 2.032 . S
Mg633 O640 2.079 . S
C634 O631 1.250 . S
C634 O632 1.248 . S
C635 O636 1.264 . S
C635 O643 1.249 . S
O636 C635 1.264 . S
O637 Mg630 1.986 . S
O637 C641 1.246 . S
O638 Mg633 2.032 . S
O638 C641 1.259 . S
O639 Mg630 2.114 . S
O639 C642 1.252 . S
O640 Mg630 2.251 . S
O640 Mg633 2.079 . S
O640 C642 1.273 . S
C641 O637 1.246 . S
C641 O638 1.259 . S
C642 O639 1.252 . S
C642 O640 1.273 . S
O643 Mg630 2.010 . S
O643 C635 1.249 . S
Mg644 O645 2.028 . S
Mg644 O651 1.986 . S
Mg644 O653 2.114 . S
Mg644 O654 2.251 . S
Mg644 O657 2.010 . S
O645 Mg644 2.028 . S
O645 C648 1.250 . S
O646 Mg647 2.028 . S
O646 C648 1.248 . S
Mg647 O646 2.028 . S
Mg647 O652 2.032 . S
Mg647 O654 2.079 . S
C648 O645 1.250 . S
C648 O646 1.248 . S
C649 O650 1.264 . S
C649 O657 1.249 . S
O650 C649 1.264 . S
O651 Mg644 1.986 . S
O651 C655 1.246 . S
O652 Mg647 2.032 . S
O652 C655 1.259 . S
O653 Mg644 2.114 . S
O653 C656 1.252 . S
O654 Mg644 2.251 . S
O654 Mg647 2.079 . S
O654 C656 1.273 . S
C655 O651 1.246 . S
C655 O652 1.259 . S
C656 O653 1.252 . S
C656 O654 1.273 . S
O657 Mg644 2.010 . S
O657 C649 1.249 . S
Mg658 O659 2.028 . S
Mg658 O665 1.986 . S
Mg658 O667 2.114 . S
Mg658 O668 2.251 . S
Mg658 O671 2.010 . S
O659 Mg658 2.028 . S
O659 C662 1.250 . S
O660 Mg661 2.028 . S
O660 C662 1.248 . S
Mg661 O660 2.028 . S
Mg661 O666 2.032 . S
Mg661 O668 2.079 . S
C662 O659 1.250 . S
C662 O660 1.248 . S
C663 O664 1.264 . S
C663 O671 1.249 . S
O664 C663 1.264 . S
O665 Mg658 1.986 . S
O665 C669 1.246 . S
O666 Mg661 2.032 . S
O666 C669 1.259 . S
O667 Mg658 2.114 . S
O667 C670 1.252 . S
O668 Mg658 2.251 . S
O668 Mg661 2.079 . S
O668 C670 1.273 . S
C669 O665 1.246 . S
C669 O666 1.259 . S
C670 O667 1.252 . S
C670 O668 1.273 . S
O671 Mg658 2.010 . S
O671 C663 1.249 . S
C131 C5 4.021 1_455 S
C145 C19 4.020 1_545 S
C159 C33 4.020 1_655 S
C47 C117 4.021 1_545 S
C215 C61 4.021 1_455 S
C75 C173 4.020 1_565 S
C187 C89 4.020 1_655 S
C201 C103 4.021 1_565 S
C229 C257 4.021 1_556 S
C243 C313 4.020 1_554 S
C271 C327 4.020 1_554 S
C285 C299 4.021 1_554 S
C341 C467 4.021 . S
C481 C355 4.020 . S
C369 C495 4.020 . S
C383 C453 4.021 . S
C551 C397 4.021 . S
C509 C411 4.020 . S
C523 C425 4.020 . S
C537 C439 4.021 . S
C565 C593 4.021 . S
C579 C649 4.020 . S
C607 C663 4.020 . S
C635 C621 4.021 . S
C124 C4 2.117 . S
C138 C18 2.117 . S
C32 C152 2.117 . S
C46 C166 2.117 . S
C60 C180 2.117 . S
C74 C194 2.117 . S
C88 C208 2.117 . S
C222 C102 2.117 . S
C116 C236 2.117 . S
C334 C130 2.117 . S
C144 C306 2.117 . S
C158 C320 2.117 . S
C172 C250 2.117 . S
C186 C264 2.117 . S
C200 C278 2.117 . S
C292 C214 2.117 . S
C12 C228 2.117 . S
C242 C68 2.117 . S
C256 C82 2.117 . S
C270 C96 2.117 . S
C110 C284 2.117 . S
C298 C40 2.117 . S
C312 C54 2.117 . S
C26 C326 2.117 . S
C460 C340 2.117 . S
C354 C474 2.117 . S
C368 C488 2.117 . S
C502 C382 2.117 . S
C516 C396 2.117 . S
C410 C530 2.117 . S
C544 C424 2.117 . S
C558 C438 2.117 . S
C452 C572 2.117 . S
C466 C670 2.117 . S
C480 C642 2.117 . S
C656 C494 2.117 . S
C508 C586 2.117 . S
C522 C600 2.117 . S
C614 C536 2.117 . S
C628 C550 2.117 . S
C564 C348 2.117 . S
C578 C404 2.117 . S
C418 C592 2.117 . S
C606 C432 2.117 . S
C620 C446 2.117 . S
C376 C634 2.117 . S
C648 C390 2.117 . S
C362 C662 2.117 . S
C445 C11 1.404 . S
C25 C403 1.404 . S
C417 C39 1.404 . S
C431 C53 1.404 . S
C67 C361 1.404 . S
C375 C81 1.404 . S
C389 C95 1.404 . S
C109 C347 1.404 . S
C627 C123 1.404 . S
C137 C585 1.404 . S
C151 C599 1.404 . S
C613 C165 1.404 . S
C669 C179 1.404 . S
C641 C193 1.404 . S
C207 C655 1.404 . S
C571 C221 1.404 . S
C235 C557 1.404 . S
C473 C249 1.404 . S
C263 C487 1.404 . S
C501 C277 1.404 . S
C459 C291 1.404 . S
C305 C529 1.404 . S
C543 C319 1.404 . S
C515 C333 1.404 . S
