# Generated by pormake.
# Topology whp, (6)-cn, num edge types: 1
# Building blocks:
#     Node 0, Type 0, BuildingBlock: OJICUG_clean_sbu_0, # of connection points: 6
#     Node 1, Type 0, BuildingBlock: OJICUG_clean_sbu_0, # of connection points: 6
#     Node 2, Type 0, BuildingBlock: OJICUG_clean_sbu_0, # of connection points: 6
#     Node 3, Type 0, BuildingBlock: OJICUG_clean_sbu_0, # of connection points: 6
#     Node 4, Type 0, BuildingBlock: OJICUG_clean_sbu_0, # of connection points: 6
#     Node 5, Type 0, BuildingBlock: OJICUG_clean_sbu_0, # of connection points: 6
#     Node 6, Type 0, BuildingBlock: OJICUG_clean_sbu_0, # of connection points: 6
#     Node 7, Type 0, BuildingBlock: OJICUG_clean_sbu_0, # of connection points: 6
#     Node 8, Type 0, BuildingBlock: OJICUG_clean_sbu_0, # of connection points: 6
#     Node 9, Type 0, BuildingBlock: OJICUG_clean_sbu_0, # of connection points: 6
#     Node 10, Type 0, BuildingBlock: OJICUG_clean_sbu_0, # of connection points: 6
#     Node 11, Type 0, BuildingBlock: OJICUG_clean_sbu_0, # of connection points: 6
#     Node 12, Type 0, BuildingBlock: OJICUG_clean_sbu_0, # of connection points: 6
#     Node 13, Type 0, BuildingBlock: OJICUG_clean_sbu_0, # of connection points: 6
#     Node 14, Type 0, BuildingBlock: OJICUG_clean_sbu_0, # of connection points: 6
#     Node 15, Type 0, BuildingBlock: OJICUG_clean_sbu_0, # of connection points: 6
#     Edge 16, Type (0, 0), BuildingBlock: KIFKEQ_clean_linker_1, # of connection points: 2
#     Edge 17, Type (0, 0), BuildingBlock: KIFKEQ_clean_linker_1, # of connection points: 2
#     Edge 18, Type (0, 0), BuildingBlock: KIFKEQ_clean_linker_1, # of connection points: 2
#     Edge 19, Type (0, 0), BuildingBlock: KIFKEQ_clean_linker_1, # of connection points: 2
#     Edge 20, Type (0, 0), BuildingBlock: KIFKEQ_clean_linker_1, # of connection points: 2
#     Edge 21, Type (0, 0), BuildingBlock: KIFKEQ_clean_linker_1, # of connection points: 2
#     Edge 22, Type (0, 0), BuildingBlock: KIFKEQ_clean_linker_1, # of connection points: 2
#     Edge 23, Type (0, 0), BuildingBlock: KIFKEQ_clean_linker_1, # of connection points: 2
#     Edge 24, Type (0, 0), BuildingBlock: KIFKEQ_clean_linker_1, # of connection points: 2
#     Edge 25, Type (0, 0), BuildingBlock: KIFKEQ_clean_linker_1, # of connection points: 2
#     Edge 26, Type (0, 0), BuildingBlock: KIFKEQ_clean_linker_1, # of connection points: 2
#     Edge 27, Type (0, 0), BuildingBlock: KIFKEQ_clean_linker_1, # of connection points: 2
#     Edge 28, Type (0, 0), BuildingBlock: KIFKEQ_clean_linker_1, # of connection points: 2
#     Edge 29, Type (0, 0), BuildingBlock: KIFKEQ_clean_linker_1, # of connection points: 2
#     Edge 30, Type (0, 0), BuildingBlock: KIFKEQ_clean_linker_1, # of connection points: 2
#     Edge 31, Type (0, 0), BuildingBlock: KIFKEQ_clean_linker_1, # of connection points: 2
#     Edge 32, Type (0, 0), BuildingBlock: KIFKEQ_clean_linker_1, # of connection points: 2
#     Edge 33, Type (0, 0), BuildingBlock: KIFKEQ_clean_linker_1, # of connection points: 2
#     Edge 34, Type (0, 0), BuildingBlock: KIFKEQ_clean_linker_1, # of connection points: 2
#     Edge 35, Type (0, 0), BuildingBlock: KIFKEQ_clean_linker_1, # of connection points: 2
#     Edge 36, Type (0, 0), BuildingBlock: KIFKEQ_clean_linker_1, # of connection points: 2
#     Edge 37, Type (0, 0), BuildingBlock: KIFKEQ_clean_linker_1, # of connection points: 2
#     Edge 38, Type (0, 0), BuildingBlock: KIFKEQ_clean_linker_1, # of connection points: 2
#     Edge 39, Type (0, 0), BuildingBlock: KIFKEQ_clean_linker_1, # of connection points: 2
#     Edge 40, Type (0, 0), BuildingBlock: KIFKEQ_clean_linker_1, # of connection points: 2
#     Edge 41, Type (0, 0), BuildingBlock: KIFKEQ_clean_linker_1, # of connection points: 2
#     Edge 42, Type (0, 0), BuildingBlock: KIFKEQ_clean_linker_1, # of connection points: 2
#     Edge 43, Type (0, 0), BuildingBlock: KIFKEQ_clean_linker_1, # of connection points: 2
#     Edge 44, Type (0, 0), BuildingBlock: KIFKEQ_clean_linker_1, # of connection points: 2
#     Edge 45, Type (0, 0), BuildingBlock: KIFKEQ_clean_linker_1, # of connection points: 2
#     Edge 46, Type (0, 0), BuildingBlock: KIFKEQ_clean_linker_1, # of connection points: 2
#     Edge 47, Type (0, 0), BuildingBlock: KIFKEQ_clean_linker_1, # of connection points: 2
#     Edge 48, Type (0, 0), BuildingBlock: KIFKEQ_clean_linker_1, # of connection points: 2
#     Edge 49, Type (0, 0), BuildingBlock: KIFKEQ_clean_linker_1, # of connection points: 2
#     Edge 50, Type (0, 0), BuildingBlock: KIFKEQ_clean_linker_1, # of connection points: 2
#     Edge 51, Type (0, 0), BuildingBlock: KIFKEQ_clean_linker_1, # of connection points: 2
#     Edge 52, Type (0, 0), BuildingBlock: KIFKEQ_clean_linker_1, # of connection points: 2
#     Edge 53, Type (0, 0), BuildingBlock: KIFKEQ_clean_linker_1, # of connection points: 2
#     Edge 54, Type (0, 0), BuildingBlock: KIFKEQ_clean_linker_1, # of connection points: 2
#     Edge 55, Type (0, 0), BuildingBlock: KIFKEQ_clean_linker_1, # of connection points: 2
#     Edge 56, Type (0, 0), BuildingBlock: KIFKEQ_clean_linker_1, # of connection points: 2
#     Edge 57, Type (0, 0), BuildingBlock: KIFKEQ_clean_linker_1, # of connection points: 2
#     Edge 58, Type (0, 0), BuildingBlock: KIFKEQ_clean_linker_1, # of connection points: 2
#     Edge 59, Type (0, 0), BuildingBlock: KIFKEQ_clean_linker_1, # of connection points: 2
#     Edge 60, Type (0, 0), BuildingBlock: KIFKEQ_clean_linker_1, # of connection points: 2
#     Edge 61, Type (0, 0), BuildingBlock: KIFKEQ_clean_linker_1, # of connection points: 2
#     Edge 62, Type (0, 0), BuildingBlock: KIFKEQ_clean_linker_1, # of connection points: 2
#     Edge 63, Type (0, 0), BuildingBlock: KIFKEQ_clean_linker_1, # of connection points: 2
# Relax obj value: 0.276
# Max RMSD: 0.243
# Mean RMSD: 0.243
data_MOF--net-whp--node1-OJICUG_clean_sbu_0--edge1-KIFKEQ_clean_linker_1
_symmetry_space_group_name_H-M    P1
_symmetry_Int_Tables_number       1
_symmetry_cell_setting            triclinic
loop_
_symmetry_equiv_pos_as_xyz
'x, y, z'
_cell_length_a     48.946192
_cell_length_b     49.023006
_cell_length_c     31.091748
_cell_angle_alpha  90.031648
_cell_angle_beta   90.020538
_cell_angle_gamma 90.014946
loop_
_atom_site_label
_atom_site_type_symbol
_atom_site_fract_x
_atom_site_fract_y
_atom_site_fract_z
_atom_type_partial_charge
Sc0 Sc 0.30366 0.56025 0.37773 0.0
Sc1 Sc 0.34127 0.51738 0.30941 0.0
Sc2 Sc 0.27316 0.50049 0.33715 0.0
O3 O 0.30601 0.52603 0.34134 0.0
C4 C 0.27042 0.51739 0.43532 0.0
C5 C 0.36331 0.53917 0.39999 0.0
C6 C 0.32308 0.45882 0.34357 0.0
C7 C 0.33941 0.58155 0.29795 0.0
C8 C 0.24547 0.55992 0.33273 0.0
C9 C 0.29526 0.5006 0.24081 0.0
O10 O 0.28279 0.53985 0.42933 0.0
O11 O 0.36706 0.52741 0.36396 0.0
O12 O 0.29763 0.46394 0.34538 0.0
O13 O 0.32486 0.58531 0.33132 0.0
O14 O 0.24491 0.53408 0.32812 0.0
O15 O 0.31975 0.50682 0.25067 0.0
O16 O 0.26581 0.57248 0.34871 0.0
O17 O 0.34584 0.55795 0.28449 0.0
O18 O 0.27647 0.49803 0.26866 0.0
O19 O 0.34109 0.55088 0.41017 0.0
O20 O 0.26605 0.50032 0.40537 0.0
O21 O 0.34086 0.47616 0.33198 0.0
Sc22 Sc 0.93367 0.29852 0.86474 0.0
Sc23 Sc 0.9754 0.33956 0.79936 0.0
Sc24 Sc 0.99608 0.27263 0.82525 0.0
O25 O 0.96845 0.3036 0.82997 0.0
C26 C 0.97795 0.26895 0.92388 0.0
C27 C 0.95091 0.36005 0.88771 0.0
C28 C 0.03589 0.32339 0.82938 0.0
C29 C 0.91063 0.33361 0.78754 0.0
C30 C 0.93934 0.24048 0.81937 0.0
C31 C 0.99296 0.29588 0.72894 0.0
O32 O 0.95554 0.28155 0.91827 0.0
O33 O 0.96777 0.36346 0.85696 0.0
O34 O 0.03071 0.29866 0.83828 0.0
O35 O 0.9075 0.31516 0.81576 0.0
O36 O 0.96469 0.24291 0.8112 0.0
O37 O 0.98268 0.31876 0.73953 0.0
O38 O 0.92573 0.25854 0.83932 0.0
O39 O 0.93358 0.34456 0.77952 0.0
O40 O 0.00027 0.27801 0.75638 0.0
O41 O 0.93723 0.33825 0.8931 0.0
O42 O 0.99464 0.26396 0.89349 0.0
O43 O 0.01832 0.33969 0.81389 0.0
Sc44 Sc 0.22927 0.00122 0.33814 0.0
Sc45 Sc 0.16183 0.98135 0.3139 0.0
Sc46 Sc 0.20255 0.94012 0.37844 0.0
O47 O 0.19789 0.97433 0.34332 0.0
C48 C 0.25808 0.94238 0.32926 0.0
C49 C 0.20569 0.00023 0.24298 0.0
C50 C 0.16369 0.91818 0.30284 0.0
C51 C 0.17749 0.04048 0.34714 0.0
C52 C 0.23695 0.98326 0.43393 0.0
C53 C 0.14411 0.9588 0.40681 0.0
O54 O 0.25906 0.96841 0.3311 0.0
O55 O 0.18147 0.99454 0.25506 0.0
O56 O 0.17694 0.91514 0.33765 0.0
O57 O 0.20321 0.03692 0.34462 0.0
O58 O 0.22852 0.9593 0.42571 0.0
O59 O 0.13844 0.96809 0.36953 0.0
O60 O 0.23552 0.0026 0.40682 0.0
O61 O 0.1602 0.02183 0.33929 0.0
O62 O 0.16781 0.95038 0.41722 0.0
O63 O 0.22565 0.00225 0.26905 0.0
O64 O 0.23733 0.92857 0.34077 0.0
O65 O 0.15962 0.94137 0.28603 0.0
Sc66 Sc 0.50109 0.22606 0.8232 0.0
Sc67 Sc 0.51911 0.15978 0.78873 0.0
Sc68 Sc 0.56005 0.19488 0.86276 0.0
O69 O 0.5266 0.19351 0.82481 0.0
C70 C 0.56116 0.25297 0.82041 0.0
C71 C 0.50354 0.20822 0.72468 0.0
C72 C 0.58298 0.15972 0.78357 0.0
C73 C 0.45944 0.17586 0.82064 0.0
C74 C 0.51741 0.22832 0.92047 0.0
C75 C 0.5382 0.13587 0.88022 0.0
O76 O 0.53511 0.25445 0.81959 0.0
O77 O 0.50873 0.18324 0.73217 0.0
O78 O 0.5853 0.17118 0.82 0.0
O79 O 0.46467 0.20099 0.82671 0.0
O80 O 0.54081 0.21835 0.91275 0.0
O81 O 0.52959 0.1327 0.84177 0.0
O82 O 0.49884 0.22978 0.8921 0.0
O83 O 0.4771 0.15858 0.80823 0.0
O84 O 0.54742 0.15832 0.89476 0.0
O85 O 0.50097 0.22603 0.75412 0.0
O86 O 0.57395 0.23156 0.83196 0.0
O87 O 0.5602 0.15719 0.76452 0.0
Sc88 Sc 0.80209 0.44369 0.12678 0.0
Sc89 Sc 0.83902 0.48971 0.19164 0.0
Sc90 Sc 0.77028 0.50361 0.16332 0.0
O91 O 0.80385 0.47905 0.16056 0.0
C92 C 0.76708 0.4836 0.0664 0.0
C93 C 0.86036 0.46841 0.10089 0.0
C94 C 0.81763 0.54774 0.15883 0.0
C95 C 0.84085 0.42531 0.20401 0.0
C96 C 0.74421 0.44355 0.17229 0.0
C97 C 0.7927 0.50401 0.26042 0.0
O98 O 0.78006 0.4617 0.07399 0.0
O99 O 0.8638 0.48274 0.13471 0.0
O100 O 0.7931 0.54067 0.15165 0.0
O101 O 0.82377 0.42017 0.17438 0.0
O102 O 0.74309 0.46947 0.17532 0.0
O103 O 0.81707 0.49691 0.25112 0.0
O104 O 0.76472 0.4311 0.15674 0.0
O105 O 0.8482 0.44931 0.21376 0.0
O106 O 0.77434 0.50788 0.23202 0.0
O107 O 0.83938 0.45368 0.09408 0.0
O108 O 0.76282 0.50167 0.09494 0.0
O109 O 0.83561 0.53174 0.17376 0.0
Sc110 Sc 0.00156 0.76609 0.6714 0.0
Sc111 Sc 0.01912 0.83355 0.70043 0.0
Sc112 Sc 0.0612 0.79612 0.63071 0.0
O113 O 0.02721 0.79862 0.6676 0.0
C114 C 0.06144 0.73882 0.67649 0.0
C115 C 0.003 0.78732 0.7684 0.0
C116 C 0.08327 0.83328 0.70836 0.0
C117 C 0.95975 0.81593 0.66882 0.0
C118 C 0.01852 0.76182 0.57409 0.0
C119 C 0.03931 0.85491 0.6081 0.0
O120 O 0.03541 0.73776 0.67841 0.0
O121 O 0.00905 0.81182 0.75874 0.0
O122 O 0.08642 0.8199 0.67372 0.0
O123 O 0.9651 0.7907 0.66474 0.0
O124 O 0.04178 0.77243 0.581 0.0
O125 O 0.02909 0.85899 0.64532 0.0
O126 O 0.00023 0.76015 0.60286 0.0
O127 O 0.9772 0.83364 0.68038 0.0
O128 O 0.04986 0.83233 0.59662 0.0
O129 O 1.00012 0.76864 0.74036 0.0
O130 O 0.07433 0.75964 0.66285 0.0
O131 O 0.05998 0.83768 0.72483 0.0
Sc132 Sc 0.72934 0.00064 0.16204 0.0
Sc133 Sc 0.662 0.02015 0.18807 0.0
Sc134 Sc 0.70071 0.06026 0.11862 0.0
O135 O 0.69746 0.02696 0.15645 0.0
C136 C 0.75747 0.06019 0.16621 0.0
C137 C 0.7067 0.00155 0.25777 0.0
C138 C 0.66426 0.08349 0.19654 0.0
C139 C 0.67774 0.96091 0.15497 0.0
C140 C 0.73525 0.01672 0.06434 0.0
C141 C 0.64161 0.04087 0.09581 0.0
O142 O 0.75832 0.03417 0.16877 0.0
O143 O 0.68244 0.00741 0.24635 0.0
O144 O 0.67644 0.08588 0.16059 0.0
O145 O 0.70348 0.96477 0.1561 0.0
O146 O 0.7251 0.04022 0.07053 0.0
O147 O 0.63695 0.03279 0.13401 0.0
O148 O 0.73591 0.99853 0.09339 0.0
O149 O 0.66034 0.97934 0.16369 0.0
O150 O 0.66492 0.04887 0.08299 0.0
O151 O 0.72632 -0.0004 0.23115 0.0
O152 O 0.73683 0.07311 0.15186 0.0
O153 O 0.66053 0.06057 0.21456 0.0
Sc154 Sc 0.43895 0.69811 0.63416 0.0
Sc155 Sc 0.48315 0.66015 0.70003 0.0
Sc156 Sc 0.49868 0.72889 0.67499 0.0
O157 O 0.47364 0.69571 0.66969 0.0
C158 C 0.48086 0.73258 0.57679 0.0
C159 C 0.46294 0.63963 0.60827 0.0
C160 C 0.54212 0.68105 0.67 0.0
C161 C 0.41824 0.65979 0.71025 0.0
C162 C 0.43895 0.75554 0.68202 0.0
C163 C 0.49743 0.70484 0.77087 0.0
O164 O 0.45913 0.71892 0.58248 0.0
O165 O 0.47693 0.63606 0.64238 0.0
O166 O 0.53542 0.70566 0.66289 0.0
O167 O 0.41394 0.67703 0.68056 0.0
O168 O 0.46474 0.75599 0.68755 0.0
O169 O 0.48946 0.6811 0.76005 0.0
O170 O 0.42664 0.73585 0.66373 0.0
O171 O 0.44206 0.65191 0.72045 0.0
O172 O 0.50259 0.7236 0.74373 0.0
O173 O 0.44836 0.66068 0.60152 0.0
O174 O 0.49749 0.73794 0.60704 0.0
O175 O 0.52569 0.66319 0.68422 0.0
Sc176 Sc 0.72484 0.49888 0.66491 0.0
Sc177 Sc 0.65661 0.48106 0.69059 0.0
Sc178 Sc 0.69502 0.43915 0.62182 0.0
O179 O 0.69218 0.47306 0.65911 0.0
C180 C 0.72824 0.48252 0.56557 0.0
C181 C 0.6749 0.54018 0.65777 0.0
C182 C 0.635 0.4602 0.5998 0.0
C183 C 0.70145 0.49758 0.76086 0.0
C184 C 0.75286 0.43988 0.66875 0.0
C185 C 0.65971 0.41656 0.70088 0.0
O186 O 0.73381 0.49848 0.59665 0.0
O187 O 0.6574 0.52287 0.67061 0.0
O188 O 0.6569 0.44764 0.59052 0.0
O189 O 0.72024 0.50229 0.73365 0.0
O190 O 0.7337 0.42764 0.64899 0.0
O191 O 0.65173 0.43996 0.71307 0.0
O192 O 0.75254 0.46535 0.67683 0.0
O193 O 0.67765 0.4897 0.75007 0.0
O194 O 0.6753 0.41313 0.6686 0.0
O195 O 0.70028 0.53504 0.65434 0.0
O196 O 0.71456 0.46073 0.57031 0.0
O197 O 0.63125 0.47272 0.6351 0.0
Sc198 Sc 0.00167 0.72706 0.17457 0.0
Sc199 Sc 0.01994 0.65865 0.19659 0.0
Sc200 Sc 0.06492 0.70058 0.1393 0.0
O201 O 0.02879 0.69547 0.17017 0.0
C202 C 0.02281 0.73088 0.07735 0.0
C203 C 0.96168 0.67674 0.1598 0.0
C204 C 0.04891 0.63969 0.11141 0.0
C205 C 0.99991 0.70077 0.26852 0.0
C206 C 0.05839 0.75844 0.18503 0.0
C207 C 0.08393 0.6642 0.21774 0.0
O208 O 0.00577 0.73685 0.1069 0.0
O209 O 0.97873 0.65933 0.17357 0.0
O210 O 0.06307 0.66133 0.10928 0.0
O211 O 0.99536 0.72023 0.24238 0.0
O212 O 0.0721 0.74039 0.16536 0.0
O213 O 0.0606 0.65303 0.22175 0.0
O214 O 0.03294 0.75615 0.1923 0.0
O215 O 0.00902 0.67763 0.2567 0.0
O216 O 0.08845 0.68352 0.19137 0.0
O217 O 0.96667 0.70215 0.15804 0.0
O218 O 0.04459 0.71741 0.08423 0.0
O219 O 0.03038 0.63598 0.13937 0.0
Sc220 Sc 0.80054 0.05649 0.62058 0.0
Sc221 Sc 0.84075 0.01586 0.6878 0.0
Sc222 Sc 0.77317 0.99587 0.66301 0.0
O223 O 0.80474 0.02271 0.65733 0.0
C224 C 0.74415 0.05488 0.66928 0.0
C225 C 0.83791 0.07951 0.69745 0.0
C226 C 0.79678 0.99731 0.75847 0.0
C227 C 0.85963 0.0367 0.59507 0.0
C228 C 0.76613 0.01311 0.5657 0.0
C229 C 0.82479 0.95642 0.65486 0.0
O230 O 0.76407 0.06837 0.6538 0.0
O231 O 0.8433 0.05638 0.71358 0.0
O232 O 0.77727 0.99407 0.73194 0.0
O233 O 0.83635 0.04609 0.58459 0.0
O234 O 0.76546 0.99466 0.59438 0.0
O235 O 0.84201 0.97478 0.66466 0.0
O236 O 0.77653 0.03645 0.57221 0.0
O237 O 0.86508 0.02743 0.63235 0.0
O238 O 0.79907 0.96025 0.65497 0.0
O239 O 0.82425 0.0823 0.66295 0.0
O240 O 0.74407 0.02889 0.67233 0.0
O241 O 0.82076 0.00414 0.74691 0.0
Sc242 Sc 0.44074 0.80194 0.13758 0.0
Sc243 Sc 0.48629 0.83965 0.20208 0.0
Sc244 Sc 0.50153 0.77139 0.17362 0.0
O245 O 0.47623 0.80438 0.17107 0.0
C246 C 0.44201 0.74413 0.18289 0.0
C247 C 0.42173 0.84019 0.21502 0.0
C248 C 0.50177 0.79379 0.27058 0.0
C249 C 0.46409 0.86061 0.11167 0.0
C250 C 0.48141 0.76802 0.07693 0.0
C251 C 0.54479 0.81952 0.16909 0.0
O252 O 0.42904 0.76441 0.16772 0.0
O253 O 0.44569 0.84788 0.22464 0.0
O254 O 0.50581 0.77543 0.24228 0.0
O255 O 0.44978 0.83937 0.10477 0.0
O256 O 0.49966 0.76414 0.10532 0.0
O257 O 0.52845 0.8372 0.18401 0.0
O258 O 0.45914 0.78038 0.08471 0.0
O259 O 0.47845 0.86418 0.14543 0.0
O260 O 0.53813 0.79493 0.1619 0.0
O261 O 0.41681 0.82312 0.18532 0.0
O262 O 0.46799 0.74349 0.18551 0.0
O263 O 0.49425 0.81797 0.26125 0.0
Sc264 Sc 0.22998 0.49576 0.83662 0.0
Sc265 Sc 0.16182 0.51214 0.80747 0.0
Sc266 Sc 0.19938 0.55621 0.874 0.0
O267 O 0.19707 0.52132 0.83929 0.0
C268 C 0.23302 0.51486 0.93384 0.0
C269 C 0.18032 0.45397 0.84339 0.0
C270 C 0.14022 0.53398 0.89768 0.0
C271 C 0.20798 0.49496 0.73994 0.0
C272 C 0.25736 0.55521 0.82859 0.0
C273 C 0.16306 0.57633 0.79423 0.0
O274 O 0.2374 0.49708 0.90495 0.0
O275 O 0.16274 0.47092 0.82984 0.0
O276 O 0.16212 0.54669 0.90667 0.0
O277 O 0.22649 0.49188 0.76818 0.0
O278 O 0.23707 0.56806 0.8441 0.0
O279 O 0.15632 0.55254 0.78205 0.0
O280 O 0.25804 0.52928 0.82554 0.0
O281 O 0.18363 0.50195 0.74918 0.0
O282 O 0.17809 0.58054 0.8269 0.0
O283 O 0.20563 0.45936 0.84692 0.0
O284 O 0.22048 0.53704 0.92646 0.0
O285 O 0.1362 0.52163 0.86226 0.0
Sc286 Sc 0.93772 0.20329 0.35684 0.0
Sc287 Sc 0.98344 0.16265 0.29828 0.0
Sc288 Sc 0.0012 0.23062 0.32512 0.0
O289 O 0.97422 0.19881 0.32693 0.0
C290 C 0.94387 0.26127 0.31305 0.0
C291 C 0.91918 0.1657 0.27918 0.0
C292 C 0.00154 0.20712 0.22883 0.0
C293 C 0.95579 0.14295 0.38468 0.0
C294 C 0.97899 0.23411 0.42097 0.0
C295 C 0.04226 0.18067 0.33265 0.0
O296 O 0.92948 0.24171 0.32704 0.0
O297 O 0.94288 0.15578 0.27371 0.0
O298 O 0.00631 0.22593 0.25624 0.0
O299 O 0.94165 0.16461 0.3882 0.0
O300 O 0.99792 0.23777 0.3935 0.0
O301 O 0.02536 0.16344 0.318 0.0
O302 O 0.95637 0.22269 0.41177 0.0
O303 O 0.97357 0.13923 0.35534 0.0
O304 O 0.03655 0.20562 0.33846 0.0
O305 O 0.91437 0.18444 0.30632 0.0
O306 O 0.96983 0.26067 0.31189 0.0
O307 O 0.99306 0.18345 0.23925 0.0
Sc308 Sc 0.29769 0.93793 0.87929 0.0
Sc309 Sc 0.33835 0.98021 0.81455 0.0
Sc310 Sc 0.27017 0.99895 0.83722 0.0
O311 O 0.30204 0.97238 0.84365 0.0
C312 C 0.24105 0.94016 0.83012 0.0
C313 C 0.3353 0.91612 0.80199 0.0
C314 C 0.29503 0.99808 0.74244 0.0
C315 C 0.35716 0.95761 0.90628 0.0
C316 C 0.26385 0.98136 0.93511 0.0
C317 C 0.3209 0.03943 0.84666 0.0
O318 O 0.26045 0.92688 0.84742 0.0
O319 O 0.34266 0.93968 0.7897 0.0
O320 O 0.27528 0.00146 0.76849 0.0
O321 O 0.33446 0.94619 0.91476 0.0
O322 O 0.2617 0.99921 0.90561 0.0
O323 O 0.3385 0.0215 0.83678 0.0
O324 O 0.27521 0.95836 0.92922 0.0
O325 O 0.362 0.96964 0.87084 0.0
O326 O 0.2953 0.03496 0.84675 0.0
O327 O 0.31971 0.9124 0.83419 0.0
O328 O 0.24134 0.96602 0.82574 0.0
O329 O 0.31885 0.99106 0.7546 0.0
Sc330 Sc 0.5002 0.27217 0.3192 0.0
Sc331 Sc 0.51686 0.33995 0.29355 0.0
Sc332 Sc 0.56094 0.3015 0.35751 0.0
O333 O 0.52593 0.30451 0.32351 0.0
C334 C 0.51919 0.27064 0.41759 0.0
C335 C 0.45782 0.32003 0.32514 0.0
C336 C 0.54105 0.36242 0.37918 0.0
C337 C 0.50069 0.2964 0.22339 0.0
C338 C 0.55755 0.24276 0.31293 0.0
C339 C 0.58199 0.3368 0.28072 0.0
O340 O 0.50494 0.26153 0.38647 0.0
O341 O 0.47378 0.33664 0.3064 0.0
O342 O 0.55739 0.34235 0.38194 0.0
O343 O 0.49298 0.27893 0.25122 0.0
O344 O 0.56941 0.26036 0.33647 0.0
O345 O 0.5588 0.34817 0.27628 0.0
O346 O 0.53285 0.24514 0.30081 0.0
O347 O 0.51193 0.31892 0.2335 0.0
O348 O 0.58569 0.31639 0.30529 0.0
O349 O 0.46503 0.2963 0.33696 0.0
O350 O 0.53894 0.2872 0.41283 0.0
O351 O 0.52174 0.36362 0.35184 0.0
H352 H 0.36092 0.5375 0.487 0.0
H353 H 0.41706 0.54821 0.38131 0.0
H354 H 0.39553 0.55388 0.53699 0.0
H355 H 0.4518 0.56513 0.43154 0.0
H356 H 0.46145 0.64521 0.52169 0.0
H357 H 0.44611 0.6112 0.46993 0.0
H358 H 0.44337 0.55064 0.57064 0.0
H359 H 0.45927 0.58482 0.62258 0.0
C360 C 0.38102 0.54254 0.47472 0.0
C361 C 0.38627 0.54194 0.43035 0.0
C362 C 0.40092 0.55172 0.50337 0.0
C363 C 0.42629 0.56095 0.48808 0.0
C364 C 0.43237 0.55815 0.44409 0.0
C365 C 0.41256 0.54843 0.41543 0.0
C366 C 0.45855 0.62437 0.53242 0.0
C367 C 0.46121 0.61763 0.57609 0.0
C368 C 0.44996 0.60484 0.50274 0.0
C369 C 0.44336 0.57833 0.51636 0.0
C370 C 0.4483 0.57096 0.55939 0.0
C371 C 0.45745 0.59045 0.58902 0.0
H372 H 0.91226 0.44982 0.11168 0.0
H373 H 0.85621 0.48122 0.01688 0.0
H374 H 0.9407 0.43066 0.0542 0.0
H375 H 0.8849 0.46298 0.95952 0.0
H376 H 0.89991 0.37586 0.90481 0.0
H377 H 0.88456 0.41169 0.95261 0.0
H378 H 0.96833 0.43308 0.98066 0.0
H379 H 0.98394 0.39674 0.93119 0.0
C380 C 0.90692 0.45394 0.07849 0.0
C381 C 0.88208 0.46675 0.06843 0.0
C382 C 0.92317 0.44299 0.04561 0.0
C383 C 0.91468 0.44491 0.0025 0.0
C384 C 0.8917 0.46091 0.99253 0.0
C385 C 0.87535 0.47145 0.02526 0.0
C386 C 0.91512 0.38838 0.92076 0.0
C387 C 0.94306 0.38347 0.91469 0.0
C388 C 0.90633 0.40914 0.94779 0.0
C389 C 0.92524 0.42543 0.97001 0.0
C390 C 0.95337 0.42091 0.96361 0.0
C391 C 0.96226 0.40024 0.93547 0.0
H392 H 0.0383 0.85345 0.52084 0.0
H393 H 0.04892 0.90824 0.62833 0.0
H394 H 0.0564 0.888 0.47244 0.0
H395 H 0.06735 0.94294 0.57971 0.0
H396 H 0.0896 0.95257 0.39005 0.0
H397 H 0.0549 0.93534 0.43965 0.0
H398 H 0.11358 0.93789 0.54331 0.0
H399 H 0.14818 0.95492 0.49399 0.0
C400 C 0.04366 0.87326 0.53385 0.0
C401 C 0.04257 0.87808 0.57833 0.0
C402 C 0.05387 0.89313 0.5061 0.0
C403 C 0.06356 0.91805 0.52242 0.0
C404 C 0.06015 0.92382 0.56639 0.0
C405 C 0.04949 0.90403 0.59413 0.0
C406 C 0.09483 0.95025 0.42371 0.0
C407 C 0.12174 0.95461 0.43803 0.0
C408 C 0.07498 0.94035 0.45202 0.0
C409 C 0.0816 0.9351 0.49522 0.0
C410 C 0.10779 0.94194 0.5103 0.0
C411 C 0.1277 0.95145 0.48194 0.0
H412 H 0.57461 0.09622 0.86525 0.0
H413 H 0.51394 0.12287 0.95628 0.0
H414 H 0.59375 0.06564 0.91824 0.0
H415 H 0.53111 0.09017 0.00889 0.0
H416 H 0.59876 0.07424 0.10833 0.0
H417 H 0.56653 0.08982 0.05463 0.0
H418 H 0.59919 0.0309 0.96419 0.0
H419 H 0.63325 0.01755 0.01749 0.0
C420 C 0.56451 0.09433 0.89613 0.0
C421 C 0.54295 0.11176 0.90696 0.0
C422 C 0.57541 0.07666 0.92681 0.0
C423 C 0.56454 0.07562 0.96881 0.0
C424 C 0.54085 0.09103 0.97769 0.0
C425 C 0.53059 0.10945 0.94739 0.0
C426 C 0.59854 0.06434 0.07715 0.0
C427 C 0.61845 0.04498 0.06664 0.0
C428 C 0.57987 0.07308 0.04616 0.0
C429 C 0.58026 0.06209 0.00419 0.0
C430 C 0.59872 0.04069 0.99537 0.0
C431 C 0.61806 0.03269 0.02599 0.0
H432 H 0.50878 0.38997 0.43734 0.0
H433 H 0.58908 0.38796 0.38045 0.0
H434 H 0.52482 0.42412 0.48983 0.0
H435 H 0.60515 0.42123 0.43197 0.0
H436 H 0.63516 0.47989 0.51877 0.0
H437 H 0.60461 0.46611 0.46063 0.0
H438 H 0.55595 0.42032 0.55145 0.0
H439 H 0.58576 0.43562 0.60979 0.0
C440 C 0.52957 0.39745 0.43541 0.0
C441 C 0.54783 0.38644 0.40529 0.0
C442 C 0.53881 0.41679 0.46545 0.0
C443 C 0.56628 0.42548 0.46516 0.0
C444 C 0.58377 0.41556 0.43289 0.0
C445 C 0.57468 0.39624 0.40351 0.0
C446 C 0.61722 0.46786 0.52635 0.0
C447 C 0.61274 0.4586 0.56835 0.0
C448 C 0.59983 0.4598 0.49315 0.0
C449 C 0.57827 0.44148 0.50119 0.0
C450 C 0.57226 0.43449 0.54407 0.0
C451 C 0.58936 0.44314 0.57751 0.0
H452 H 0.08812 0.55199 0.88612 0.0
H453 H 0.14393 0.52064 0.98142 0.0
H454 H 0.05891 0.57012 0.94351 0.0
H455 H 0.11452 0.53795 0.03854 0.0
H456 H 0.09999 0.62714 0.08781 0.0
H457 H 0.11508 0.59148 0.03953 0.0
H458 H 0.03162 0.56524 0.02144 0.0
H459 H 0.01622 0.60133 0.07148 0.0
C460 C 0.09327 0.54768 0.91932 0.0
C461 C 0.11831 0.5354 0.92971 0.0
C462 C 0.07655 0.55794 0.9521 0.0
C463 C 0.0848 0.55575 0.99525 0.0
C464 C 0.1079 0.54004 0.00544 0.0
C465 C 0.12472 0.5302 0.97286 0.0
C466 C 0.08478 0.61372 0.07384 0.0
C467 C 0.05694 0.61708 0.083 0.0
C468 C 0.09345 0.59308 0.0466 0.0
C469 C 0.07452 0.57541 0.02733 0.0
C470 C 0.04655 0.57852 0.03639 0.0
C471 C 0.03781 0.59905 0.06477 0.0
H472 H 0.90444 0.12696 0.39747 0.0
H473 H 0.98753 0.10707 0.43185 0.0
H474 H 0.88762 0.09171 0.44487 0.0
H475 H 0.97041 0.07119 0.48083 0.0
H476 H 0.8569 0.02417 0.51054 0.0
H477 H 0.88721 0.0412 0.45441 0.0
H478 H 0.94114 0.07419 0.55132 0.0
H479 H 0.91122 0.05607 0.60763 0.0
C480 C 0.91913 0.11476 0.4151 0.0
C481 C 0.94721 0.11983 0.41151 0.0
C482 C 0.90952 0.0943 0.44186 0.0
C483 C 0.92772 0.07844 0.46619 0.0
C484 C 0.95601 0.08304 0.46213 0.0
C485 C 0.96576 0.10344 0.43431 0.0
C486 C 0.87583 0.03406 0.51976 0.0
C487 C 0.88159 0.03931 0.56314 0.0
C488 C 0.89316 0.04378 0.48774 0.0
C489 C 0.91613 0.05958 0.49858 0.0
C490 C 0.9236 0.06204 0.54207 0.0
C491 C 0.90644 0.05179 0.57428 0.0
H492 H 0.41187 0.95399 0.89004 0.0
H493 H 0.35279 0.95325 0.99319 0.0
H494 H 0.44726 0.93858 0.94016 0.0
H495 H 0.38813 0.93837 0.04316 0.0
H496 H 0.46463 0.85686 0.02487 0.0
H497 H 0.44594 0.89017 0.97467 0.0
H498 H 0.43555 0.94755 0.07879 0.0
H499 H 0.45495 0.91422 0.12905 0.0
C500 C 0.40667 0.95144 0.92366 0.0
C501 C 0.37953 0.9544 0.93769 0.0
C502 C 0.4269 0.94264 0.95225 0.0
C503 C 0.42039 0.93728 0.99543 0.0
C504 C 0.3938 0.94264 0.01016 0.0
C505 C 0.3735 0.95089 0.98148 0.0
C506 C 0.45945 0.87702 0.03662 0.0
C507 C 0.46103 0.88303 0.08068 0.0
C508 C 0.44886 0.89613 0.00792 0.0
C509 C 0.43913 0.92133 0.02299 0.0
C510 C 0.44293 0.92824 0.06647 0.0
C511 C 0.45412 0.90927 0.09511 0.0
H512 H 0.3637 0.44611 0.39851 0.0
H513 H 0.30605 0.41029 0.31004 0.0
H514 H 0.38881 0.40324 0.40163 0.0
H515 H 0.33166 0.36721 0.31228 0.0
H516 H 0.42197 0.33827 0.2662 0.0
H517 H 0.38044 0.36432 0.27982 0.0
H518 H 0.39018 0.35111 0.4163 0.0
H519 H 0.43166 0.32428 0.40226 0.0
C520 C 0.35592 0.42866 0.38093 0.0
C521 C 0.33313 0.43136 0.3539 0.0
C522 C 0.37016 0.40407 0.3829 0.0
C523 C 0.36223 0.38195 0.35705 0.0
C524 C 0.33812 0.38398 0.33257 0.0
C525 C 0.32347 0.40852 0.33135 0.0
C526 C 0.41458 0.34007 0.29894 0.0
C527 C 0.42984 0.32946 0.33323 0.0
C528 C 0.39075 0.3548 0.30676 0.0
C529 C 0.38212 0.35975 0.34913 0.0
C530 C 0.39637 0.34747 0.38335 0.0
C531 C 0.41999 0.33214 0.37538 0.0
H532 H 0.06773 0.32163 0.90172 0.0
H533 H 0.06635 0.34904 0.76992 0.0
H534 H 0.11121 0.34596 0.91298 0.0
H535 H 0.1098 0.3724 0.78054 0.0
H536 H 0.19061 0.40691 0.80049 0.0
H537 H 0.16137 0.36625 0.80176 0.0
H538 H 0.11654 0.39992 0.9089 0.0
H539 H 0.14533 0.44062 0.90688 0.0
C540 C 0.07718 0.33217 0.87496 0.0
C541 C 0.06382 0.33378 0.83509 0.0
C542 C 0.10194 0.34599 0.88134 0.0
C543 C 0.11392 0.36082 0.84752 0.0
C544 C 0.10129 0.36076 0.80696 0.0
C545 C 0.07633 0.34765 0.80097 0.0
C546 C 0.17534 0.40491 0.82553 0.0
C547 C 0.17012 0.42663 0.85369 0.0
C548 C 0.15857 0.3818 0.82615 0.0
C549 C 0.13667 0.38008 0.8553 0.0
C550 C 0.13345 0.40058 0.88644 0.0
C551 C 0.14986 0.42386 0.88528 0.0
H552 H 0.13527 0.05152 0.40013 0.0
H553 H 0.19407 0.09011 0.31659 0.0
H554 H 0.10957 0.09388 0.40459 0.0
H555 H 0.16797 0.13284 0.32052 0.0
H556 H 0.06571 0.17149 0.41061 0.0
H557 H 0.10675 0.1439 0.42384 0.0
H558 H 0.12093 0.13904 0.28691 0.0
H559 H 0.07998 0.16623 0.27408 0.0
C560 C 0.1431 0.0694 0.38377 0.0
C561 C 0.16643 0.06759 0.3577 0.0
C562 C 0.12851 0.09374 0.38657 0.0
C563 C 0.13668 0.11664 0.3627 0.0
C564 C 0.16122 0.11544 0.33917 0.0
C565 C 0.17617 0.0911 0.33702 0.0
C566 C 0.07829 0.16531 0.38365 0.0
C567 C 0.06997 0.17084 0.34141 0.0
C568 C 0.10164 0.14951 0.39112 0.0
C569 C 0.11699 0.13927 0.35639 0.0
C570 C 0.10979 0.14692 0.31433 0.0
C571 C 0.08631 0.16235 0.30692 0.0
H572 H 0.36033 0.05343 0.90323 0.0
H573 H 0.30636 0.0867 0.80696 0.0
H574 H 0.38715 0.0954 0.90249 0.0
H575 H 0.33374 0.12867 0.80525 0.0
H576 H 0.42634 0.15246 0.76205 0.0
H577 H 0.38435 0.12705 0.77604 0.0
H578 H 0.38905 0.14908 0.91033 0.0
H579 H 0.43088 0.17534 0.89579 0.0
C580 C 0.35364 0.07023 0.88316 0.0
C581 C 0.33138 0.067 0.85518 0.0
C582 C 0.36891 0.09426 0.8828 0.0
C583 C 0.36256 0.11519 0.85366 0.0
C584 C 0.33896 0.11282 0.82807 0.0
C585 C 0.32327 0.08893 0.82918 0.0
C586 C 0.4178 0.15263 0.79421 0.0
C587 C 0.4316 0.16574 0.82788 0.0
C588 C 0.39372 0.13828 0.8022 0.0
C589 C 0.38344 0.1362 0.84425 0.0
C590 C 0.3965 0.15057 0.87761 0.0
C591 C 0.42031 0.16554 0.86934 0.0
H592 H 0.91105 0.69702 0.17921 0.0
H593 H 0.95219 0.63243 0.1107 0.0
H594 H 0.86728 0.67317 0.16947 0.0
H595 H 0.9089 0.60901 0.10034 0.0
H596 H 0.83179 0.56864 0.08142 0.0
H597 H 0.86108 0.6086 0.07037 0.0
H598 H 0.85472 0.62804 0.20552 0.0
H599 H 0.82563 0.58816 0.21622 0.0
C600 C 0.91054 0.67825 0.1608 0.0
C601 C 0.93486 0.66633 0.14603 0.0
C602 C 0.88559 0.66461 0.15532 0.0
C603 C 0.88468 0.63924 0.13417 0.0
C604 C 0.90881 0.62867 0.11627 0.0
C605 C 0.93366 0.64194 0.12251 0.0
C606 C 0.83565 0.58229 0.10817 0.0
C607 C 0.8265 0.57565 0.14956 0.0
C608 C 0.85249 0.60501 0.10197 0.0
C609 C 0.86037 0.62128 0.13716 0.0
C610 C 0.84878 0.6161 0.17771 0.0
C611 C 0.83218 0.59327 0.18392 0.0
H612 H 0.92203 0.82998 0.72788 0.0
H613 H 0.93626 0.82543 0.59128 0.0
H614 H 0.88113 0.85739 0.71537 0.0
H615 H 0.89531 0.85315 0.57839 0.0
H616 H 0.86743 0.94551 0.60283 0.0
H617 H 0.89308 0.90309 0.59854 0.0
H618 H 0.83399 0.86402 0.68131 0.0
H619 H 0.80792 0.90681 0.68496 0.0
C620 C 0.91568 0.83403 0.6951 0.0
C621 C 0.93198 0.82569 0.66048 0.0
C622 C 0.89224 0.84958 0.68786 0.0
C623 C 0.88509 0.85748 0.64589 0.0
C624 C 0.90038 0.84735 0.61104 0.0
C625 C 0.92368 0.83147 0.61833 0.0
C626 C 0.85945 0.92759 0.6189 0.0
C627 C 0.8359 0.92934 0.64444 0.0
C628 C 0.87401 0.90323 0.61622 0.0
C629 C 0.86559 0.88027 0.63975 0.0
C630 C 0.84091 0.88146 0.6629 0.0
C631 C 0.82598 0.90582 0.66487 0.0
H632 H 0.583 0.83302 0.22758 0.0
H633 H 0.56814 0.82836 0.09113 0.0
H634 H 0.62372 0.86056 0.21466 0.0
H635 H 0.60888 0.85635 0.07785 0.0
H636 H 0.69572 0.91139 0.18398 0.0
H637 H 0.67062 0.86806 0.17976 0.0
H638 H 0.61003 0.90648 0.09896 0.0
H639 H 0.63469 0.94946 0.10382 0.0
C640 C 0.58921 0.83702 0.19472 0.0
C641 C 0.57273 0.82866 0.1603 0.0
C642 C 0.61255 0.85267 0.18725 0.0
C643 C 0.61938 0.86071 0.14524 0.0
C644 C 0.60404 0.85042 0.11053 0.0
C645 C 0.58087 0.83438 0.11804 0.0
C646 C 0.67752 0.91019 0.16424 0.0
C647 C 0.66688 0.93368 0.14461 0.0
C648 C 0.66316 0.8855 0.1619 0.0
C649 C 0.63836 0.88393 0.13911 0.0
C650 C 0.62921 0.90692 0.11633 0.0
C651 C 0.64319 0.9316 0.11941 0.0
H652 H 0.57987 0.66738 0.72913 0.0
H653 H 0.5662 0.67278 0.59245 0.0
H654 H 0.62082 0.64011 0.71664 0.0
H655 H 0.60715 0.64504 0.5796 0.0
H656 H 0.63256 0.55167 0.6056 0.0
H657 H 0.60805 0.59473 0.60032 0.0
H658 H 0.66812 0.63297 0.68241 0.0
H659 H 0.6931 0.58954 0.68689 0.0
C660 C 0.58639 0.66361 0.69635 0.0
C661 C 0.57018 0.67209 0.6617 0.0
C662 C 0.60986 0.64812 0.68913 0.0
C663 C 0.61709 0.64035 0.64713 0.0
C664 C 0.60201 0.65077 0.61227 0.0
C665 C 0.57871 0.66667 0.61953 0.0
C666 C 0.64102 0.56954 0.62123 0.0
C667 C 0.66452 0.56743 0.64681 0.0
C668 C 0.62713 0.59425 0.61798 0.0
C669 C 0.63615 0.61719 0.64106 0.0
C670 C 0.66079 0.61557 0.66427 0.0
C671 C 0.67508 0.59085 0.66676 0.0
H672 H 0.21388 0.53802 0.00729 0.0
H673 H 0.27398 0.48055 0.96074 0.0
H674 H 0.23006 0.53117 0.08043 0.0
H675 H 0.29035 0.47384 0.03464 0.0
H676 H 0.32827 0.50431 0.16922 0.0
H677 H 0.31375 0.50466 0.09379 0.0
H678 H 0.23032 0.49129 0.13329 0.0
H679 H 0.24446 0.49082 0.2081 0.0
C680 C 0.23056 0.5239 0.01267 0.0
C681 C 0.24266 0.50983 0.97821 0.0
C682 C 0.23971 0.51988 0.05461 0.0
C683 C 0.26137 0.50191 0.06311 0.0
C684 C 0.27365 0.48786 0.02881 0.0
C685 C 0.26419 0.49159 0.98668 0.0
C686 C 0.30689 0.50108 0.16179 0.0
C687 C 0.28752 0.49786 0.19487 0.0
C688 C 0.29864 0.50117 0.11863 0.0
C689 C 0.2709 0.49829 0.10791 0.0
C690 C 0.25179 0.49391 0.14077 0.0
C691 C 0.25998 0.49359 0.18367 0.0
H692 H 0.96682 0.3211 0.66236 0.0
H693 H 0.02228 0.2548 0.69048 0.0
H694 H 0.96543 0.30707 0.5872 0.0
H695 H 0.02098 0.24102 0.61478 0.0
H696 H 0.02727 0.24419 0.46314 0.0
H697 H 0.03315 0.26043 0.53726 0.0
H698 H 0.9456 0.26285 0.55302 0.0
H699 H 0.93961 0.2464 0.47968 0.0
C700 C 0.97906 0.30379 0.65246 0.0
C701 C 0.99457 0.28899 0.68256 0.0
C702 C 0.97812 0.29571 0.60944 0.0
C703 C 0.99297 0.2729 0.59536 0.0
C704 C 0.00943 0.25876 0.62487 0.0
C705 C 0.01006 0.26659 0.66817 0.0
C706 C 0.00931 0.24824 0.48246 0.0
C707 C 0.98298 0.244 0.46555 0.0
C708 C 0.0127 0.25739 0.52483 0.0
C709 C 0.98982 0.263 0.55063 0.0
C710 C 0.96356 0.25893 0.53363 0.0
C711 C 0.96018 0.24934 0.49172 0.0
H712 H 0.25871 0.03082 0.97593 0.0
H713 H 0.24369 0.9446 0.99205 0.0
H714 H 0.24243 0.03901 0.04965 0.0
H715 H 0.22704 0.95287 0.06477 0.0
H716 H 0.17444 0.98106 0.17669 0.0
H717 H 0.18626 0.97947 0.10047 0.0
H718 H 0.26129 0.02256 0.12671 0.0
H719 H 0.24978 0.02391 0.20332 0.0
C720 C 0.25164 0.01373 0.99498 0.0
C721 C 0.25256 0.98707 0.97834 0.0
C722 C 0.24246 0.0184 0.03708 0.0
C723 C 0.23341 0.99657 0.06269 0.0
C724 C 0.23367 0.97008 0.04556 0.0
C725 C 0.24337 0.96535 0.00404 0.0
C726 C 0.19326 0.99062 0.16625 0.0
C727 C 0.21126 0.00245 0.1962 0.0
C728 C 0.20003 0.9896 0.12261 0.0
C729 C 0.2247 0.00081 0.10785 0.0
C730 C 0.24207 0.01392 0.13729 0.0
C731 C 0.23553 0.01453 0.18113 0.0
H732 H 0.51321 0.21852 0.44581 0.0
H733 H 0.51112 0.30232 0.48763 0.0
H734 H 0.50761 0.20333 0.51993 0.0
H735 H 0.50299 0.28763 0.56122 0.0
H736 H 0.52312 0.25571 0.69314 0.0
H737 H 0.52498 0.27039 0.61889 0.0
H738 H 0.48193 0.19712 0.58038 0.0
H739 H 0.48228 0.18157 0.65495 0.0
C740 C 0.51088 0.23364 0.47098 0.0
C741 C 0.51282 0.2615 0.46143 0.0
C742 C 0.50745 0.22501 0.51352 0.0
C743 C 0.5051 0.24416 0.5472 0.0
C744 C 0.50565 0.27215 0.53677 0.0
C745 C 0.51 0.28068 0.49451 0.0
C746 C 0.51393 0.24286 0.66873 0.0
C747 C 0.50253 0.21756 0.67967 0.0
C748 C 0.51475 0.25136 0.62598 0.0
C749 C 0.50342 0.23515 0.59305 0.0
C750 C 0.49138 0.21002 0.6044 0.0
C751 C 0.49132 0.20114 0.64719 0.0
H752 H 0.82475 0.4977 0.33265 0.0
H753 H 0.74187 0.51482 0.29253 0.0
H754 H 0.80952 0.496 0.40758 0.0
H755 H 0.72697 0.5131 0.36699 0.0
H756 H 0.7075 0.46409 0.48984 0.0
H757 H 0.72398 0.47301 0.41749 0.0
H758 H 0.78754 0.52476 0.46868 0.0
H759 H 0.7709 0.51588 0.54187 0.0
C760 C 0.80342 0.50147 0.33973 0.0
C761 C 0.78452 0.50609 0.30635 0.0
C762 C 0.79475 0.50062 0.38267 0.0
C763 C 0.76702 0.50415 0.39299 0.0
C764 C 0.74841 0.50995 0.35989 0.0
C765 C 0.75704 0.511 0.31717 0.0
C766 C 0.72494 0.47746 0.48584 0.0
C767 C 0.73792 0.48923 0.52167 0.0
C768 C 0.73426 0.48271 0.44431 0.0
C769 C 0.75698 0.49965 0.43745 0.0
C770 C 0.77003 0.51155 0.47313 0.0
C771 C 0.76041 0.50659 0.5149 0.0
H772 H 0.0048 0.821 0.83903 0.0
H773 H 0.99675 0.73625 0.80219 0.0
H774 H 0.00648 0.80747 0.91463 0.0
H775 H 0.99837 0.723 0.87751 0.0
H776 H 0.0458 0.71094 0.00414 0.0
H777 H 0.03735 0.72501 0.93044 0.0
H778 H 0.97853 0.78431 0.97473 0.0
H779 H 0.98695 0.77019 0.04921 0.0
C780 C 0.00304 0.79956 0.84698 0.0
C781 C 0.00094 0.7797 0.81442 0.0
C782 C 0.00385 0.79187 0.89029 0.0
C783 C 0.00281 0.76419 0.90178 0.0
C784 C 0.99957 0.74446 0.86944 0.0
C785 C 0.99854 0.75212 0.82628 0.0
C786 C 0.03104 0.72698 0.99836 0.0
C787 C 0.01709 0.73949 0.03263 0.0
C788 C 0.02605 0.73487 0.95605 0.0
C789 C 0.00718 0.75563 0.94691 0.0
C790 C 0.99324 0.76829 0.981 0.0
C791 C 0.99798 0.76013 0.02352 0.0
H792 H 0.67495 0.01744 0.32565 0.0
H793 H 0.75195 0.97871 0.29544 0.0
H794 H 0.6867 0.01663 0.40189 0.0
H795 H 0.76346 0.97776 0.372 0.0
H796 H 0.76343 0.96473 0.52103 0.0
H797 H 0.74672 0.95809 0.44708 0.0
H798 H 0.72516 0.04336 0.44047 0.0
H799 H 0.74209 0.05007 0.51332 0.0
C800 C 0.69418 0.00835 0.33524 0.0
C801 C 0.71262 0.99837 0.30432 0.0
C802 C 0.70089 0.00795 0.37892 0.0
C803 C 0.726 0.9972 0.39274 0.0
C804 C 0.74388 0.98598 0.36219 0.0
C805 C 0.73735 0.98673 0.31836 0.0
C806 C 0.75484 0.9819 0.5038 0.0
C807 C 0.75417 0.00793 0.52278 0.0
C808 C 0.74543 0.97815 0.46157 0.0
C809 C 0.7346 0.00022 0.43822 0.0
C810 C 0.73316 0.02595 0.45785 0.0
C811 C 0.74302 0.02981 0.49946 0.0
H812 H 0.53005 0.75757 0.03641 0.0
H813 H 0.44255 0.7543 0.01829 0.0
H814 H 0.53663 0.74046 0.96292 0.0
H815 H 0.44922 0.73687 0.94559 0.0
H816 H 0.47251 0.67831 0.83727 0.0
H817 H 0.47074 0.69219 0.91259 0.0
H818 H 0.5237 0.76034 0.88501 0.0
H819 H 0.5253 0.74678 0.80927 0.0
C820 C 0.51228 0.75304 0.01688 0.0
C821 C 0.48578 0.75732 0.03303 0.0
C822 C 0.51606 0.74338 0.97493 0.0
C823 C 0.49341 0.73726 0.9489 0.0
C824 C 0.46699 0.74121 0.96523 0.0
C825 C 0.46321 0.75135 0.00671 0.0
C826 C 0.48411 0.69604 0.84727 0.0
C827 C 0.49892 0.71155 0.81722 0.0
C828 C 0.48298 0.70401 0.89033 0.0
C829 C 0.49699 0.72735 0.90436 0.0
C830 C 0.51283 0.74218 0.8749 0.0
C831 C 0.51361 0.73448 0.8316 0.0
H832 H 0.74295 0.52642 0.79868 0.0
H833 H 0.67567 0.47238 0.82783 0.0
H834 H 0.757 0.52527 0.87424 0.0
H835 H 0.69009 0.47098 0.90303 0.0
H836 H 0.75378 0.44443 0.00804 0.0
H837 H 0.73558 0.45055 0.93567 0.0
H838 H 0.73737 0.5379 0.95253 0.0
H839 H 0.7552 0.53186 0.02575 0.0
C840 C 0.731 0.51456 0.82125 0.0
C841 C 0.70825 0.49941 0.80722 0.0
C842 C 0.73899 0.51402 0.86446 0.0
C843 C 0.72468 0.49794 0.89424 0.0
C844 C 0.70151 0.48343 0.88056 0.0
C845 C 0.69322 0.48436 0.83757 0.0
C846 C 0.75027 0.46497 0.99644 0.0
C847 C 0.75596 0.48768 0.02258 0.0
C848 C 0.73968 0.46843 0.95513 0.0
C849 C 0.73499 0.49467 0.93872 0.0
C850 C 0.74083 0.51746 0.96456 0.0
C851 C 0.75093 0.51399 0.00638 0.0
H852 H 0.97287 0.743 0.30772 0.0
H853 H 0.02102 0.67108 0.33498 0.0
H854 H 0.97429 0.75539 0.3839 0.0
H855 H 0.02252 0.68374 0.41076 0.0
H856 H 0.0557 0.7438 0.51578 0.0
H857 H 0.04721 0.72614 0.44376 0.0
H858 H 0.96049 0.73725 0.46174 0.0
H859 H 0.96889 0.75466 0.53463 0.0
C860 C 0.98336 0.72961 0.32998 0.0
C861 C 0.99704 0.70618 0.31517 0.0
C862 C 0.98403 0.73666 0.37356 0.0
C863 C 0.9987 0.7206 0.40293 0.0
C864 C 0.01125 0.69653 0.38857 0.0
C865 C 0.01026 0.68927 0.3452 0.0
C866 C 0.03479 0.74241 0.50453 0.0
C867 C 0.01296 0.75066 0.53081 0.0
C868 C 0.02995 0.73211 0.46345 0.0
C869 C 0.0032 0.73023 0.44744 0.0
C870 C 0.98129 0.7385 0.47351 0.0
C871 C 0.9861 0.74836 0.51511 0.0
H872 H 0.74004 0.96721 0.02356 0.0
H873 H 0.75676 0.05319 0.00816 0.0
H874 H 0.75732 0.95878 0.95052 0.0
H875 H 0.77428 0.04469 0.9361 0.0
H876 H 0.82728 0.01677 0.82545 0.0
H877 H 0.81471 0.01833 0.90133 0.0
H878 H 0.74024 0.97467 0.87336 0.0
H879 H 0.75256 0.97324 0.79714 0.0
C880 C 0.74766 0.9842 0.00482 0.0
C881 C 0.74694 0.01086 0.02146 0.0
C882 C 0.75742 0.97939 0.9631 0.0
C883 C 0.76722 0.00109 0.93788 0.0
C884 C 0.76711 0.02757 0.95502 0.0
C885 C 0.75689 0.03244 0.99616 0.0
C886 C 0.80843 0.00708 0.83545 0.0
C887 C 0.79081 0.99508 0.80511 0.0
C888 C 0.80123 0.00808 0.87889 0.0
C889 C 0.77647 0.99673 0.89305 0.0
C890 C 0.75952 0.98343 0.86325 0.0
C891 C 0.76652 0.98277 0.81962 0.0
H892 H 0.51129 0.74296 0.30332 0.0
H893 H 0.49719 0.82657 0.34203 0.0
H894 H 0.50959 0.72879 0.37817 0.0
H895 H 0.49551 0.81209 0.41724 0.0
H896 H 0.51533 0.7739 0.55165 0.0
H897 H 0.52423 0.78955 0.478 0.0
H898 H 0.46921 0.72804 0.42917 0.0
H899 H 0.46024 0.71252 0.50201 0.0
C900 C 0.50818 0.75842 0.32773 0.0
C901 C 0.50406 0.78591 0.31649 0.0
C902 C 0.50713 0.75022 0.37063 0.0
C903 C 0.50214 0.7693 0.40336 0.0
C904 C 0.49947 0.79699 0.39257 0.0
C905 C 0.5003 0.80522 0.34949 0.0
C906 C 0.50525 0.76369 0.52511 0.0
C907 C 0.48701 0.74204 0.53266 0.0
C908 C 0.51027 0.77272 0.4831 0.0
C909 C 0.49751 0.75989 0.448 0.0
C910 C 0.47957 0.73809 0.4556 0.0
C911 C 0.47428 0.72935 0.4974 0.0
H912 H 0.17531 0.49904 0.66822 0.0
H913 H 0.25901 0.48556 0.70779 0.0
H914 H 0.19021 0.50108 0.59319 0.0
H915 H 0.27357 0.48771 0.63319 0.0
H916 H 0.28928 0.53876 0.51038 0.0
H917 H 0.27341 0.52919 0.58298 0.0
H918 H 0.21417 0.47221 0.53278 0.0
H919 H 0.23019 0.48163 0.45955 0.0
C920 C 0.19675 0.4961 0.66099 0.0
C921 C 0.21598 0.49248 0.69416 0.0
C922 C 0.20522 0.49716 0.61804 0.0
C923 C 0.23304 0.49486 0.60766 0.0
C924 C 0.25203 0.48989 0.6405 0.0
C925 C 0.24361 0.48858 0.68323 0.0
C926 C 0.2729 0.52415 0.5147 0.0
C927 C 0.26096 0.51097 0.47925 0.0
C928 C 0.26396 0.51855 0.55629 0.0
C929 C 0.24268 0.49988 0.56335 0.0
C930 C 0.23059 0.48671 0.52804 0.0
C931 C 0.23984 0.49202 0.4863 0.0
H932 H 0.02747 0.25058 0.19065 0.0
H933 H 0.97913 0.17898 0.16187 0.0
H934 H 0.02486 0.26426 0.1149 0.0
H935 H 0.97629 0.19302 0.08689 0.0
H936 H 0.94162 0.25577 0.98644 0.0
H937 H 0.95115 0.23902 0.05869 0.0
H938 H 0.03772 0.24326 0.03352 0.0
H939 H 0.02825 0.25958 0.96021 0.0
C940 C 0.01666 0.23758 0.16818 0.0
C941 C 0.00337 0.21378 0.18242 0.0
C942 C 0.01529 0.24537 0.1249 0.0
C943 C 0.00025 0.22972 0.09541 0.0
C944 C 0.98792 0.20544 0.10919 0.0
C945 C 0.98965 0.19741 0.15213 0.0
C946 C 0.96271 0.25316 0.99618 0.0
C947 C 0.9842 0.25897 0.96766 0.0
C948 C 0.96812 0.24344 0.03743 0.0
C949 C 0.99513 0.23981 0.05138 0.0
C950 C 0.01673 0.24594 0.0233 0.0
C951 C 0.0113 0.25514 0.98148 0.0
H952 H 0.23965 0.03173 0.47812 0.0
H953 H 0.26049 0.94629 0.48745 0.0
H954 H 0.25624 0.03883 0.55181 0.0
H955 H 0.27719 0.95347 0.56034 0.0
H956 H 0.32664 0.97982 0.67583 0.0
H957 H 0.31522 0.97933 0.59946 0.0
H958 H 0.23966 0.02133 0.62644 0.0
H959 H 0.25089 0.02178 0.70302 0.0
C960 C 0.24805 0.01459 0.49566 0.0
C961 C 0.24864 0.98843 0.47709 0.0
C962 C 0.25741 0.01863 0.5378 0.0
C963 C 0.26804 0.9967 0.56166 0.0
C964 C 0.26936 0.97079 0.54255 0.0
C965 C 0.2596 0.96666 0.50091 0.0
C966 C 0.30777 0.98933 0.66553 0.0
C967 C 0.28957 0.00063 0.69567 0.0
C968 C 0.30122 0.98894 0.62178 0.0
C969 C 0.27651 0.00017 0.60712 0.0
C970 C 0.25893 0.01269 0.63686 0.0
C971 C 0.2653 0.01277 0.68073 0.0
H972 H 0.55535 0.24459 0.97884 0.0
H973 H 0.46809 0.23745 0.96027 0.0
H974 H 0.54778 0.26325 0.05031 0.0
H975 H 0.46061 0.25603 0.03271 0.0
H976 H 0.47185 0.25432 0.18681 0.0
H977 H 0.47302 0.23956 0.11166 0.0
H978 H 0.52581 0.30726 0.08066 0.0
H979 H 0.52466 0.32221 0.15533 0.0
C980 C 0.53452 0.24693 0.99005 0.0
C981 C 0.5123 0.2395 0.96391 0.0
C982 C 0.53022 0.25783 0.03086 0.0
C983 C 0.50363 0.26122 0.04677 0.0
C984 C 0.48131 0.25359 0.02101 0.0
C985 C 0.4856 0.24306 0.97966 0.0
C986 C 0.48338 0.2663 0.16386 0.0
C987 C 0.49839 0.28929 0.17722 0.0
C988 C 0.4839 0.25791 0.12086 0.0
C989 C 0.49969 0.27217 0.09064 0.0
C990 C 0.51368 0.29579 0.10353 0.0
C991 C 0.51292 0.30437 0.14629 0.0
H992 H 0.23976 0.61552 0.33376 0.0
H993 H 0.19673 0.54139 0.30037 0.0
H994 H 0.20051 0.64235 0.31089 0.0
H995 H 0.15767 0.56837 0.27698 0.0
H996 H 0.08289 0.62207 0.2755 0.0
H997 H 0.12168 0.59798 0.30631 0.0
H998 H 0.17686 0.65406 0.24367 0.0
H999 H 0.13809 0.67848 0.21315 0.0
C1000 C 0.22197 0.60489 0.32156 0.0
C1001 C 0.22147 0.57622 0.31893 0.0
C1002 C 0.19951 0.62034 0.3083 0.0
C1003 C 0.17596 0.60751 0.29224 0.0
C1004 C 0.17536 0.57886 0.28981 0.0
C1005 C 0.19786 0.5634 0.30294 0.0
C1006 C 0.10325 0.62957 0.2687 0.0
C1007 C 0.1073 0.65214 0.24148 0.0
C1008 C 0.1255 0.61558 0.28613 0.0
C1009 C 0.15234 0.62387 0.27695 0.0
C1010 C 0.15642 0.64722 0.25151 0.0
C1011 C 0.13415 0.6612 0.23395 0.0
H1012 H 0.85383 0.08622 0.78118 0.0
H1013 H 0.85032 0.12783 0.65877 0.0
H1014 H 0.87814 0.12525 0.81224 0.0
H1015 H 0.87505 0.16644 0.68975 0.0
H1016 H 0.95193 0.20863 0.75009 0.0
H1017 H 0.9258 0.17003 0.72167 0.0
H1018 H 0.86757 0.17851 0.82498 0.0
H1019 H 0.89331 0.21746 0.85306 0.0
C1020 C 0.85806 0.10375 0.76104 0.0
C1021 C 0.85014 0.10399 0.71756 0.0
C1022 C 0.87191 0.12602 0.77882 0.0
C1023 C 0.8786 0.14863 0.75319 0.0
C1024 C 0.8703 0.14909 0.70999 0.0
C1025 C 0.85596 0.12711 0.69244 0.0
C1026 C 0.93367 0.20214 0.7669 0.0
C1027 C 0.92464 0.21607 0.80375 0.0
C1028 C 0.91866 0.18022 0.75048 0.0
C1029 C 0.89468 0.17149 0.77113 0.0
C1030 C 0.88603 0.18489 0.8086 0.0
C1031 C 0.90071 0.20717 0.82451 0.0
H1032 H 0.31156 0.95346 0.34569 0.0
H1033 H 0.25884 0.89733 0.2784 0.0
H1034 H 0.35133 0.9274 0.32298 0.0
H1035 H 0.29847 0.87238 0.25242 0.0
H1036 H 0.37192 0.81867 0.23601 0.0
H1037 H 0.33291 0.84258 0.26693 0.0
H1038 H 0.37982 0.91751 0.26781 0.0
H1039 H 0.41908 0.89296 0.24042 0.0
C1040 C 0.3086 0.93575 0.32534 0.0
C1041 C 0.28223 0.92738 0.31372 0.0
C1042 C 0.33141 0.92081 0.31201 0.0
C1043 C 0.32842 0.89761 0.28555 0.0
C1044 C 0.30183 0.8896 0.27356 0.0
C1045 C 0.27902 0.90408 0.28802 0.0
C1046 C 0.37384 0.84017 0.24354 0.0
C1047 C 0.39852 0.85392 0.23619 0.0
C1048 C 0.35139 0.85405 0.26081 0.0
C1049 C 0.35285 0.88223 0.2698 0.0
C1050 C 0.3778 0.89579 0.26248 0.0
C1051 C 0.4004 0.88173 0.24647 0.0
H1052 H 0.54215 0.30402 0.80119 0.0
H1053 H 0.61654 0.25659 0.80783 0.0
H1054 H 0.56815 0.34314 0.77592 0.0
H1055 H 0.64254 0.296 0.78287 0.0
H1056 H 0.66942 0.36249 0.68338 0.0
H1057 H 0.64705 0.32296 0.71546 0.0
H1058 H 0.60271 0.376 0.80161 0.0
H1059 H 0.62473 0.41552 0.7695 0.0
C1060 C 0.56406 0.30194 0.79754 0.0
C1061 C 0.5772 0.27708 0.80653 0.0
C1062 C 0.57899 0.32445 0.78331 0.0
C1063 C 0.60741 0.32267 0.77752 0.0
C1064 C 0.62063 0.29792 0.78673 0.0
C1065 C 0.60572 0.2754 0.80125 0.0
C1066 C 0.65514 0.36574 0.70949 0.0
C1067 C 0.6487 0.39227 0.72349 0.0
C1068 C 0.64241 0.34305 0.72798 0.0
C1069 C 0.62291 0.34641 0.76074 0.0
C1070 C 0.6173 0.37281 0.7759 0.0
C1071 C 0.63007 0.39546 0.75759 0.0
H1072 H 0.73943 0.38786 0.1733 0.0
H1073 H 0.69535 0.4617 0.20468 0.0
H1074 H 0.70039 0.36072 0.19612 0.0
H1075 H 0.65651 0.43441 0.2281 0.0
H1076 H 0.58208 0.37987 0.22487 0.0
H1077 H 0.62133 0.4047 0.19727 0.0
H1078 H 0.67551 0.34858 0.26194 0.0
H1079 H 0.63622 0.32337 0.28926 0.0
C1080 C 0.72147 0.39836 0.18516 0.0
C1081 C 0.72057 0.42705 0.187 0.0
C1082 C 0.69914 0.38273 0.19843 0.0
C1083 C 0.67532 0.39539 0.21374 0.0
C1084 C 0.67442 0.42404 0.2158 0.0
C1085 C 0.69678 0.43969 0.20264 0.0
C1086 C 0.60233 0.37256 0.2329 0.0
C1087 C 0.60593 0.34966 0.25958 0.0
C1088 C 0.62484 0.38698 0.21731 0.0
C1089 C 0.65152 0.37885 0.22789 0.0
C1090 C 0.6552 0.3553 0.25305 0.0
C1091 C 0.63265 0.34086 0.26875 0.0
H1092 H 0.04222 0.68861 0.70076 0.0
H1093 H 0.11704 0.73446 0.68475 0.0
H1094 H 0.06853 0.64946 0.72541 0.0
H1095 H 0.14327 0.6951 0.709 0.0
H1096 H 0.17374 0.63055 0.80786 0.0
H1097 H 0.15014 0.66958 0.77672 0.0
H1098 H 0.10157 0.61532 0.69837 0.0
H1099 H 0.12489 0.5762 0.72973 0.0
C1100 C 0.06426 0.69035 0.7023 0.0
C1101 C 0.07746 0.71477 0.69083 0.0
C1102 C 0.07935 0.66781 0.71613 0.0
C1103 C 0.10798 0.66917 0.71904 0.0
C1104 C 0.12122 0.69351 0.70743 0.0
C1105 C 0.10615 0.71602 0.69336 0.0
C1106 C 0.15825 0.62689 0.78366 0.0
C1107 C 0.15111 0.60016 0.7716 0.0
C1108 C 0.14479 0.64931 0.76569 0.0
C1109 C 0.12382 0.64551 0.73538 0.0
C1110 C 0.11735 0.61887 0.72216 0.0
C1111 C 0.13088 0.59646 0.73995 0.0
H1112 H 0.80636 0.0414 0.19791 0.0
H1113 H 0.76329 0.11573 0.16605 0.0
H1114 H 0.84559 0.06828 0.22125 0.0
H1115 H 0.80264 0.1424 0.18868 0.0
H1116 H 0.86492 0.17912 0.28461 0.0
H1117 H 0.82627 0.15405 0.2552 0.0
H1118 H 0.88163 0.09802 0.19278 0.0
H1119 H 0.92038 0.12277 0.22269 0.0
C1120 C 0.80525 0.06342 0.19567 0.0
C1121 C 0.78157 0.07633 0.18018 0.0
C1122 C 0.82784 0.07882 0.20876 0.0
C1123 C 0.82724 0.10748 0.20673 0.0
C1124 C 0.80364 0.12038 0.19107 0.0
C1125 C 0.78111 0.10502 0.17794 0.0
C1126 C 0.86893 0.16168 0.26416 0.0
C1127 C 0.89584 0.15291 0.25632 0.0
C1128 C 0.84673 0.14733 0.24721 0.0
C1129 C 0.85088 0.12387 0.22201 0.0
C1130 C 0.87776 0.11573 0.21273 0.0
C1131 C 0.89998 0.13009 0.2296 0.0
H1132 H 0.32529 0.86176 0.81706 0.0
H1133 H 0.37297 0.91601 0.73706 0.0
H1134 H 0.34925 0.82269 0.78607 0.0
H1135 H 0.39665 0.87702 0.70631 0.0
H1136 H 0.45734 0.80528 0.70965 0.0
H1137 H 0.43035 0.84359 0.73583 0.0
H1138 H 0.35633 0.79728 0.71629 0.0
H1139 H 0.38327 0.75877 0.69017 0.0
C1140 C 0.34059 0.86538 0.79256 0.0
C1141 C 0.34732 0.8921 0.77989 0.0
C1142 C 0.35425 0.84298 0.77474 0.0
C1143 C 0.37503 0.84686 0.74415 0.0
C1144 C 0.38104 0.87345 0.73035 0.0
C1145 C 0.3673 0.89578 0.74785 0.0
C1146 C 0.43532 0.8032 0.71087 0.0
C1147 C 0.42251 0.77892 0.69772 0.0
C1148 C 0.41985 0.82524 0.72561 0.0
C1149 C 0.39123 0.82345 0.72791 0.0
C1150 C 0.37837 0.79917 0.71506 0.0
C1151 C 0.39383 0.77718 0.6999 0.0
H1152 H 0.90729 0.35639 0.7076 0.0
H1153 H 0.85924 0.33758 0.82034 0.0
H1154 H 0.86825 0.38093 0.67676 0.0
H1155 H 0.82064 0.3628 0.78988 0.0
H1156 H 0.78431 0.44867 0.73982 0.0
H1157 H 0.82163 0.42007 0.76679 0.0
H1158 H 0.81177 0.36581 0.65867 0.0
H1159 H 0.77386 0.39387 0.63214 0.0
C1160 C 0.88831 0.35721 0.72547 0.0
C1161 C 0.88623 0.34504 0.76628 0.0
C1162 C 0.86609 0.3712 0.70786 0.0
C1163 C 0.84173 0.37377 0.73125 0.0
C1164 C 0.83935 0.36106 0.77147 0.0
C1165 C 0.86132 0.34651 0.78864 0.0
C1166 C 0.79017 0.43071 0.72174 0.0
C1167 C 0.77623 0.42347 0.68392 0.0
C1168 C 0.81133 0.41433 0.73729 0.0
C1169 C 0.81929 0.39084 0.71473 0.0
C1170 C 0.80584 0.38386 0.67648 0.0
C1171 C 0.78422 0.39987 0.66146 0.0
H1172 H 0.14687 0.91141 0.21952 0.0
H1173 H 0.14926 0.87092 0.34294 0.0
H1174 H 0.12088 0.87308 0.18973 0.0
H1175 H 0.12291 0.83303 0.31323 0.0
H1176 H 0.04592 0.79081 0.25401 0.0
H1177 H 0.07232 0.82955 0.28161 0.0
H1178 H 0.13023 0.82004 0.17807 0.0
H1179 H 0.10428 0.78109 0.15087 0.0
C1180 C 0.14201 0.89429 0.24016 0.0
C1181 C 0.15019 0.89413 0.28351 0.0
C1182 C 0.12716 0.87243 0.22313 0.0
C1183 C 0.11975 0.85034 0.24939 0.0
C1184 C 0.12817 0.85 0.29252 0.0
C1185 C 0.14347 0.87156 0.30932 0.0
C1186 C 0.06417 0.79713 0.23702 0.0
C1187 C 0.0731 0.78289 0.20041 0.0
C1188 C 0.07932 0.81913 0.25293 0.0
C1189 C 0.10329 0.82761 0.23194 0.0
C1190 C 0.11178 0.8139 0.19469 0.0
C1191 C 0.09698 0.79158 0.17931 0.0
H1192 H 0.70784 0.04031 0.73193 0.0
H1193 H 0.72604 0.10423 0.64068 0.0
H1194 H 0.66889 0.06679 0.75845 0.0
H1195 H 0.68675 0.13032 0.66669 0.0
H1196 H 0.59284 0.14714 0.69899 0.0
H1197 H 0.63194 0.12182 0.66988 0.0
H1198 H 0.66642 0.11587 0.79725 0.0
H1199 H 0.62791 0.14155 0.8263 0.0
C1200 C 0.70338 0.05986 0.71732 0.0
C1201 C 0.72002 0.07026 0.68437 0.0
C1202 C 0.68122 0.07502 0.7326 0.0
C1203 C 0.67496 0.10053 0.71454 0.0
C1204 C 0.69116 0.11065 0.68095 0.0
C1205 C 0.71367 0.09579 0.66631 0.0
C1206 C 0.60892 0.14067 0.72064 0.0
C1207 C 0.60737 0.14645 0.76487 0.0
C1208 C 0.63122 0.12624 0.70401 0.0
C1209 C 0.65195 0.11681 0.73149 0.0
C1210 C 0.65054 0.12278 0.77554 0.0
C1211 C 0.62862 0.13767 0.79201 0.0
H1212 H 0.46118 0.694 0.20774 0.0
H1213 H 0.38653 0.74015 0.19207 0.0
H1214 H 0.43466 0.65489 0.23236 0.0
H1215 H 0.36016 0.70093 0.21634 0.0
H1216 H 0.32933 0.63566 0.31384 0.0
H1217 H 0.3534 0.6749 0.28415 0.0
H1218 H 0.40108 0.62134 0.20341 0.0
H1219 H 0.37727 0.58203 0.23315 0.0
C1220 C 0.43915 0.69583 0.20945 0.0
C1221 C 0.42604 0.72027 0.19792 0.0
C1222 C 0.42395 0.67334 0.22325 0.0
C1223 C 0.39532 0.67484 0.22612 0.0
C1224 C 0.3822 0.69925 0.21474 0.0
C1225 C 0.39736 0.72167 0.20065 0.0
C1226 C 0.34471 0.63222 0.2894 0.0
C1227 C 0.35145 0.60562 0.27615 0.0
C1228 C 0.35845 0.65474 0.27231 0.0
C1229 C 0.37932 0.65115 0.24179 0.0
C1230 C 0.3854 0.62468 0.22741 0.0
C1231 C 0.37156 0.60218 0.24425 0.0
H1232 H 0.36372 0.67058 0.69846 0.0
H1233 H 0.419 0.61905 0.77041 0.0
H1234 H 0.32497 0.64583 0.72858 0.0
H1235 H 0.38024 0.59463 0.80066 0.0
H1236 H 0.3066 0.53614 0.7991 0.0
H1237 H 0.34527 0.5627 0.77296 0.0
H1238 H 0.30079 0.6372 0.79713 0.0
H1239 H 0.26196 0.61078 0.82285 0.0
C1240 C 0.36764 0.65422 0.72104 0.0
C1241 C 0.39455 0.64675 0.73176 0.0
C1242 C 0.34541 0.6401 0.73839 0.0
C1243 C 0.34958 0.61813 0.7667 0.0
C1244 C 0.3764 0.61118 0.77838 0.0
C1245 C 0.39861 0.62535 0.76124 0.0
C1246 C 0.30503 0.55817 0.79893 0.0
C1247 C 0.28111 0.57126 0.81314 0.0
C1248 C 0.32727 0.5734 0.78419 0.0
C1249 C 0.32609 0.60205 0.7831 0.0
C1250 C 0.30222 0.61516 0.79724 0.0
C1251 C 0.28003 0.59996 0.8122 0.0
H1252 H 0.81963 0.37592 0.22711 0.0
H1253 H 0.89422 0.42278 0.22648 0.0
H1254 H 0.84419 0.33701 0.2568 0.0
H1255 H 0.91939 0.38353 0.25254 0.0
H1256 H 0.95683 0.31449 0.32792 0.0
H1257 H 0.93083 0.35467 0.30663 0.0
H1258 H 0.87331 0.3027 0.2394 0.0
H1259 H 0.8982 0.2628 0.26404 0.0
C1260 C 0.84134 0.37778 0.23328 0.0
C1261 C 0.85502 0.40231 0.22481 0.0
C1262 C 0.85558 0.35539 0.2498 0.0
C1263 C 0.88405 0.35674 0.25679 0.0
C1264 C 0.89752 0.38159 0.24861 0.0
C1265 C 0.8831 0.40417 0.2334 0.0
C1266 C 0.93861 0.31187 0.30855 0.0
C1267 C 0.92944 0.2857 0.29757 0.0
C1268 C 0.92369 0.33488 0.29607 0.0
C1269 C 0.89972 0.33222 0.27119 0.0
C1270 C 0.89109 0.30581 0.25951 0.0
C1271 C 0.90554 0.28286 0.27313 0.0
H1272 H 0.0904 0.84832 0.79243 0.0
H1273 H 0.13026 0.84894 0.66843 0.0
H1274 H 0.1287 0.87406 0.82306 0.0
H1275 H 0.16808 0.87518 0.69896 0.0
H1276 H 0.20729 0.95312 0.76311 0.0
H1277 H 0.16947 0.92585 0.73433 0.0
H1278 H 0.18321 0.86502 0.83219 0.0
H1279 H 0.2214 0.89184 0.86043 0.0
C1280 C 0.10739 0.85378 0.77184 0.0
C1281 C 0.10739 0.84652 0.72808 0.0
C1282 C 0.12924 0.86847 0.78936 0.0
C1283 C 0.15111 0.87671 0.76319 0.0
C1284 C 0.1513 0.86921 0.71964 0.0
C1285 C 0.12979 0.854 0.70234 0.0
C1286 C 0.20213 0.93401 0.77858 0.0
C1287 C 0.2173 0.92458 0.81395 0.0
C1288 C 0.18066 0.91838 0.76199 0.0
C1289 C 0.17359 0.89339 0.78109 0.0
C1290 C 0.18829 0.88426 0.81704 0.0
C1291 C 0.21014 0.89956 0.83302 0.0
H1292 H 0.64805 0.09091 0.28012 0.0
H1293 H 0.6513 0.13129 0.15664 0.0
H1294 H 0.62288 0.12976 0.30982 0.0
H1295 H 0.62588 0.16974 0.18631 0.0
H1296 H 0.54807 0.21117 0.24212 0.0
H1297 H 0.57573 0.17329 0.21542 0.0
H1298 H 0.63071 0.18253 0.32298 0.0
H1299 H 0.60332 0.22075 0.34957 0.0
C1300 C 0.64363 0.10814 0.25946 0.0
C1301 C 0.65166 0.10801 0.21602 0.0
C1302 C 0.62929 0.13035 0.27649 0.0
C1303 C 0.62229 0.15255 0.25018 0.0
C1304 C 0.63083 0.15271 0.2071 0.0
C1305 C 0.64556 0.13079 0.19028 0.0
C1306 C 0.56597 0.20506 0.26023 0.0
C1307 C 0.57353 0.21897 0.29792 0.0
C1308 C 0.58187 0.18352 0.24477 0.0
C1309 C 0.60537 0.17515 0.26709 0.0
C1310 C 0.61264 0.1886 0.30528 0.0
C1311 C 0.59702 0.21049 0.32034 0.0
loop_
_geom_bond_atom_site_label_1
_geom_bond_atom_site_label_2
_geom_bond_distance
_geom_bond_site_symmetry_2
_ccdc_geom_bond_type
Sc0 O3 2.025 . S
Sc0 O10 2.105 . S
Sc0 O13 2.105 . S
Sc0 O16 2.105 . S
Sc0 O19 2.105 . S
Sc1 O3 2.025 . S
Sc1 O11 2.105 . S
Sc1 O15 2.105 . S
Sc1 O17 2.105 . S
Sc1 O21 2.105 . S
Sc2 O3 2.025 . S
Sc2 O12 2.105 . S
Sc2 O14 2.105 . S
Sc2 O18 2.105 . S
Sc2 O20 2.105 . S
O3 Sc0 2.025 . S
O3 Sc1 2.025 . S
O3 Sc2 2.025 . S
C4 O10 1.268 . S
C4 O20 1.268 . S
C5 O11 1.268 . S
C5 O19 1.268 . S
C6 O12 1.268 . S
C6 O21 1.268 . S
C7 O13 1.268 . S
C7 O17 1.268 . S
C8 O14 1.268 . S
C8 O16 1.268 . S
C9 O15 1.268 . S
C9 O18 1.268 . S
O10 Sc0 2.105 . S
O10 C4 1.268 . S
O11 Sc1 2.105 . S
O11 C5 1.268 . S
O12 Sc2 2.105 . S
O12 C6 1.268 . S
O13 Sc0 2.105 . S
O13 C7 1.268 . S
O14 Sc2 2.105 . S
O14 C8 1.268 . S
O15 Sc1 2.105 . S
O15 C9 1.268 . S
O16 Sc0 2.105 . S
O16 C8 1.268 . S
O17 Sc1 2.105 . S
O17 C7 1.268 . S
O18 Sc2 2.105 . S
O18 C9 1.268 . S
O19 Sc0 2.105 . S
O19 C5 1.268 . S
O20 Sc2 2.105 . S
O20 C4 1.268 . S
O21 Sc1 2.105 . S
O21 C6 1.268 . S
Sc22 O25 2.025 . S
Sc22 O32 2.105 . S
Sc22 O35 2.105 . S
Sc22 O38 2.105 . S
Sc22 O41 2.105 . S
Sc23 O25 2.025 . S
Sc23 O33 2.105 . S
Sc23 O37 2.105 . S
Sc23 O39 2.105 . S
Sc23 O43 2.105 1_655 S
Sc24 O25 2.025 . S
Sc24 O34 2.105 1_655 S
Sc24 O36 2.105 . S
Sc24 O40 2.105 . S
Sc24 O42 2.105 . S
O25 Sc22 2.025 . S
O25 Sc23 2.025 . S
O25 Sc24 2.025 . S
C26 O32 1.268 . S
C26 O42 1.268 . S
C27 O33 1.268 . S
C27 O41 1.268 . S
C28 O34 1.268 . S
C28 O43 1.268 . S
C29 O35 1.268 . S
C29 O39 1.268 . S
C30 O36 1.268 . S
C30 O38 1.268 . S
C31 O37 1.268 . S
C31 O40 1.268 . S
O32 Sc22 2.105 . S
O32 C26 1.268 . S
O33 Sc23 2.105 . S
O33 C27 1.268 . S
O34 Sc24 2.105 1_455 S
O34 C28 1.268 . S
O35 Sc22 2.105 . S
O35 C29 1.268 . S
O36 Sc24 2.105 . S
O36 C30 1.268 . S
O37 Sc23 2.105 . S
O37 C31 1.268 . S
O38 Sc22 2.105 . S
O38 C30 1.268 . S
O39 Sc23 2.105 . S
O39 C29 1.268 . S
O40 Sc24 2.105 . S
O40 C31 1.268 . S
O41 Sc22 2.105 . S
O41 C27 1.268 . S
O42 Sc24 2.105 . S
O42 C26 1.268 . S
O43 Sc23 2.105 1_455 S
O43 C28 1.268 . S
Sc44 O47 2.025 . S
Sc44 O54 2.105 . S
Sc44 O57 2.105 1_565 S
Sc44 O60 2.105 . S
Sc44 O63 2.105 . S
Sc45 O47 2.025 . S
Sc45 O55 2.105 . S
Sc45 O59 2.105 . S
Sc45 O61 2.105 1_565 S
Sc45 O65 2.105 . S
Sc46 O47 2.025 . S
Sc46 O56 2.105 . S
Sc46 O58 2.105 . S
Sc46 O62 2.105 . S
Sc46 O64 2.105 . S
O47 Sc44 2.025 . S
O47 Sc45 2.025 . S
O47 Sc46 2.025 . S
C48 O54 1.268 . S
C48 O64 1.268 . S
C49 O55 1.268 . S
C49 O63 1.268 . S
C50 O56 1.268 . S
C50 O65 1.268 . S
C51 O57 1.268 . S
C51 O61 1.268 . S
C52 O58 1.268 . S
C52 O60 1.268 . S
C53 O59 1.268 . S
C53 O62 1.268 . S
O54 Sc44 2.105 . S
O54 C48 1.268 . S
O55 Sc45 2.105 . S
O55 C49 1.268 . S
O56 Sc46 2.105 . S
O56 C50 1.268 . S
O57 Sc44 2.105 1_545 S
O57 C51 1.268 . S
O58 Sc46 2.105 . S
O58 C52 1.268 . S
O59 Sc45 2.105 . S
O59 C53 1.268 . S
O60 Sc44 2.105 . S
O60 C52 1.268 . S
O61 Sc45 2.105 1_545 S
O61 C51 1.268 . S
O62 Sc46 2.105 . S
O62 C53 1.268 . S
O63 Sc44 2.105 . S
O63 C49 1.268 . S
O64 Sc46 2.105 . S
O64 C48 1.268 . S
O65 Sc45 2.105 . S
O65 C50 1.268 . S
Sc66 O69 2.025 . S
Sc66 O76 2.105 . S
Sc66 O79 2.105 . S
Sc66 O82 2.105 . S
Sc66 O85 2.105 . S
Sc67 O69 2.025 . S
Sc67 O77 2.105 . S
Sc67 O81 2.105 . S
Sc67 O83 2.105 . S
Sc67 O87 2.105 . S
Sc68 O69 2.025 . S
Sc68 O78 2.105 . S
Sc68 O80 2.105 . S
Sc68 O84 2.105 . S
Sc68 O86 2.105 . S
O69 Sc66 2.025 . S
O69 Sc67 2.025 . S
O69 Sc68 2.025 . S
C70 O76 1.268 . S
C70 O86 1.268 . S
C71 O77 1.268 . S
C71 O85 1.268 . S
C72 O78 1.268 . S
C72 O87 1.268 . S
C73 O79 1.268 . S
C73 O83 1.268 . S
C74 O80 1.268 . S
C74 O82 1.268 . S
C75 O81 1.268 . S
C75 O84 1.268 . S
O76 Sc66 2.105 . S
O76 C70 1.268 . S
O77 Sc67 2.105 . S
O77 C71 1.268 . S
O78 Sc68 2.105 . S
O78 C72 1.268 . S
O79 Sc66 2.105 . S
O79 C73 1.268 . S
O80 Sc68 2.105 . S
O80 C74 1.268 . S
O81 Sc67 2.105 . S
O81 C75 1.268 . S
O82 Sc66 2.105 . S
O82 C74 1.268 . S
O83 Sc67 2.105 . S
O83 C73 1.268 . S
O84 Sc68 2.105 . S
O84 C75 1.268 . S
O85 Sc66 2.105 . S
O85 C71 1.268 . S
O86 Sc68 2.105 . S
O86 C70 1.268 . S
O87 Sc67 2.105 . S
O87 C72 1.268 . S
Sc88 O91 2.025 . S
Sc88 O98 2.105 . S
Sc88 O101 2.105 . S
Sc88 O104 2.105 . S
Sc88 O107 2.105 . S
Sc89 O91 2.025 . S
Sc89 O99 2.105 . S
Sc89 O103 2.105 . S
Sc89 O105 2.105 . S
Sc89 O109 2.105 . S
Sc90 O91 2.025 . S
Sc90 O100 2.105 . S
Sc90 O102 2.105 . S
Sc90 O106 2.105 . S
Sc90 O108 2.105 . S
O91 Sc88 2.025 . S
O91 Sc89 2.025 . S
O91 Sc90 2.025 . S
C92 O98 1.268 . S
C92 O108 1.268 . S
C93 O99 1.268 . S
C93 O107 1.268 . S
C94 O100 1.268 . S
C94 O109 1.268 . S
C95 O101 1.268 . S
C95 O105 1.268 . S
C96 O102 1.268 . S
C96 O104 1.268 . S
C97 O103 1.268 . S
C97 O106 1.268 . S
O98 Sc88 2.105 . S
O98 C92 1.268 . S
O99 Sc89 2.105 . S
O99 C93 1.268 . S
O100 Sc90 2.105 . S
O100 C94 1.268 . S
O101 Sc88 2.105 . S
O101 C95 1.268 . S
O102 Sc90 2.105 . S
O102 C96 1.268 . S
O103 Sc89 2.105 . S
O103 C97 1.268 . S
O104 Sc88 2.105 . S
O104 C96 1.268 . S
O105 Sc89 2.105 . S
O105 C95 1.268 . S
O106 Sc90 2.105 . S
O106 C97 1.268 . S
O107 Sc88 2.105 . S
O107 C93 1.268 . S
O108 Sc90 2.105 . S
O108 C92 1.268 . S
O109 Sc89 2.105 . S
O109 C94 1.268 . S
Sc110 O113 2.025 . S
Sc110 O120 2.105 . S
Sc110 O123 2.105 1_455 S
Sc110 O126 2.105 . S
Sc110 O129 2.105 . S
Sc111 O113 2.025 . S
Sc111 O121 2.105 . S
Sc111 O125 2.105 . S
Sc111 O127 2.105 1_455 S
Sc111 O131 2.105 . S
Sc112 O113 2.025 . S
Sc112 O122 2.105 . S
Sc112 O124 2.105 . S
Sc112 O128 2.105 . S
Sc112 O130 2.105 . S
O113 Sc110 2.025 . S
O113 Sc111 2.025 . S
O113 Sc112 2.025 . S
C114 O120 1.268 . S
C114 O130 1.268 . S
C115 O121 1.268 . S
C115 O129 1.268 . S
C116 O122 1.268 . S
C116 O131 1.268 . S
C117 O123 1.268 . S
C117 O127 1.268 . S
C118 O124 1.268 . S
C118 O126 1.268 . S
C119 O125 1.268 . S
C119 O128 1.268 . S
O120 Sc110 2.105 . S
O120 C114 1.268 . S
O121 Sc111 2.105 . S
O121 C115 1.268 . S
O122 Sc112 2.105 . S
O122 C116 1.268 . S
O123 Sc110 2.105 1_655 S
O123 C117 1.268 . S
O124 Sc112 2.105 . S
O124 C118 1.268 . S
O125 Sc111 2.105 . S
O125 C119 1.268 . S
O126 Sc110 2.105 . S
O126 C118 1.268 . S
O127 Sc111 2.105 1_655 S
O127 C117 1.268 . S
O128 Sc112 2.105 . S
O128 C119 1.268 . S
O129 Sc110 2.105 . S
O129 C115 1.268 . S
O130 Sc112 2.105 . S
O130 C114 1.268 . S
O131 Sc111 2.105 . S
O131 C116 1.268 . S
Sc132 O135 2.025 . S
Sc132 O142 2.105 . S
Sc132 O145 2.105 1_545 S
Sc132 O148 2.105 . S
Sc132 O151 2.105 . S
Sc133 O135 2.025 . S
Sc133 O143 2.105 . S
Sc133 O147 2.105 . S
Sc133 O149 2.105 1_545 S
Sc133 O153 2.105 . S
Sc134 O135 2.025 . S
Sc134 O144 2.105 . S
Sc134 O146 2.105 . S
Sc134 O150 2.105 . S
Sc134 O152 2.105 . S
O135 Sc132 2.025 . S
O135 Sc133 2.025 . S
O135 Sc134 2.025 . S
C136 O142 1.268 . S
C136 O152 1.268 . S
C137 O143 1.268 . S
C137 O151 1.268 . S
C138 O144 1.268 . S
C138 O153 1.268 . S
C139 O145 1.268 . S
C139 O149 1.268 . S
C140 O146 1.268 . S
C140 O148 1.268 . S
C141 O147 1.268 . S
C141 O150 1.268 . S
O142 Sc132 2.105 . S
O142 C136 1.268 . S
O143 Sc133 2.105 . S
O143 C137 1.268 . S
O144 Sc134 2.105 . S
O144 C138 1.268 . S
O145 Sc132 2.105 1_565 S
O145 C139 1.268 . S
O146 Sc134 2.105 . S
O146 C140 1.268 . S
O147 Sc133 2.105 . S
O147 C141 1.268 . S
O148 Sc132 2.105 . S
O148 C140 1.268 . S
O149 Sc133 2.105 1_565 S
O149 C139 1.268 . S
O150 Sc134 2.105 . S
O150 C141 1.268 . S
O151 Sc132 2.105 . S
O151 C137 1.268 . S
O152 Sc134 2.105 . S
O152 C136 1.268 . S
O153 Sc133 2.105 . S
O153 C138 1.268 . S
Sc154 O157 2.025 . S
Sc154 O164 2.105 . S
Sc154 O167 2.105 . S
Sc154 O170 2.105 . S
Sc154 O173 2.105 . S
Sc155 O157 2.025 . S
Sc155 O165 2.105 . S
Sc155 O169 2.105 . S
Sc155 O171 2.105 . S
Sc155 O175 2.105 . S
Sc156 O157 2.025 . S
Sc156 O166 2.105 . S
Sc156 O168 2.105 . S
Sc156 O172 2.105 . S
Sc156 O174 2.105 . S
O157 Sc154 2.025 . S
O157 Sc155 2.025 . S
O157 Sc156 2.025 . S
C158 O164 1.268 . S
C158 O174 1.268 . S
C159 O165 1.268 . S
C159 O173 1.268 . S
C160 O166 1.268 . S
C160 O175 1.268 . S
C161 O167 1.268 . S
C161 O171 1.268 . S
C162 O168 1.268 . S
C162 O170 1.268 . S
C163 O169 1.268 . S
C163 O172 1.268 . S
O164 Sc154 2.105 . S
O164 C158 1.268 . S
O165 Sc155 2.105 . S
O165 C159 1.268 . S
O166 Sc156 2.105 . S
O166 C160 1.268 . S
O167 Sc154 2.105 . S
O167 C161 1.268 . S
O168 Sc156 2.105 . S
O168 C162 1.268 . S
O169 Sc155 2.105 . S
O169 C163 1.268 . S
O170 Sc154 2.105 . S
O170 C162 1.268 . S
O171 Sc155 2.105 . S
O171 C161 1.268 . S
O172 Sc156 2.105 . S
O172 C163 1.268 . S
O173 Sc154 2.105 . S
O173 C159 1.268 . S
O174 Sc156 2.105 . S
O174 C158 1.268 . S
O175 Sc155 2.105 . S
O175 C160 1.268 . S
Sc176 O179 2.025 . S
Sc176 O186 2.105 . S
Sc176 O189 2.105 . S
Sc176 O192 2.105 . S
Sc176 O195 2.105 . S
Sc177 O179 2.025 . S
Sc177 O187 2.105 . S
Sc177 O191 2.105 . S
Sc177 O193 2.105 . S
Sc177 O197 2.105 . S
Sc178 O179 2.025 . S
Sc178 O188 2.105 . S
Sc178 O190 2.105 . S
Sc178 O194 2.105 . S
Sc178 O196 2.105 . S
O179 Sc176 2.025 . S
O179 Sc177 2.025 . S
O179 Sc178 2.025 . S
C180 O186 1.268 . S
C180 O196 1.268 . S
C181 O187 1.268 . S
C181 O195 1.268 . S
C182 O188 1.268 . S
C182 O197 1.268 . S
C183 O189 1.268 . S
C183 O193 1.268 . S
C184 O190 1.268 . S
C184 O192 1.268 . S
C185 O191 1.268 . S
C185 O194 1.268 . S
O186 Sc176 2.105 . S
O186 C180 1.268 . S
O187 Sc177 2.105 . S
O187 C181 1.268 . S
O188 Sc178 2.105 . S
O188 C182 1.268 . S
O189 Sc176 2.105 . S
O189 C183 1.268 . S
O190 Sc178 2.105 . S
O190 C184 1.268 . S
O191 Sc177 2.105 . S
O191 C185 1.268 . S
O192 Sc176 2.105 . S
O192 C184 1.268 . S
O193 Sc177 2.105 . S
O193 C183 1.268 . S
O194 Sc178 2.105 . S
O194 C185 1.268 . S
O195 Sc176 2.105 . S
O195 C181 1.268 . S
O196 Sc178 2.105 . S
O196 C180 1.268 . S
O197 Sc177 2.105 . S
O197 C182 1.268 . S
Sc198 O201 2.025 . S
Sc198 O208 2.105 . S
Sc198 O211 2.105 . S
Sc198 O214 2.105 . S
Sc198 O217 2.105 1_455 S
Sc199 O201 2.025 . S
Sc199 O209 2.105 1_455 S
Sc199 O213 2.105 . S
Sc199 O215 2.105 . S
Sc199 O219 2.105 . S
Sc200 O201 2.025 . S
Sc200 O210 2.105 . S
Sc200 O212 2.105 . S
Sc200 O216 2.105 . S
Sc200 O218 2.105 . S
O201 Sc198 2.025 . S
O201 Sc199 2.025 . S
O201 Sc200 2.025 . S
C202 O208 1.268 . S
C202 O218 1.268 . S
C203 O209 1.268 . S
C203 O217 1.268 . S
C204 O210 1.268 . S
C204 O219 1.268 . S
C205 O211 1.268 . S
C205 O215 1.268 . S
C206 O212 1.268 . S
C206 O214 1.268 . S
C207 O213 1.268 . S
C207 O216 1.268 . S
O208 Sc198 2.105 . S
O208 C202 1.268 . S
O209 Sc199 2.105 1_655 S
O209 C203 1.268 . S
O210 Sc200 2.105 . S
O210 C204 1.268 . S
O211 Sc198 2.105 . S
O211 C205 1.268 . S
O212 Sc200 2.105 . S
O212 C206 1.268 . S
O213 Sc199 2.105 . S
O213 C207 1.268 . S
O214 Sc198 2.105 . S
O214 C206 1.268 . S
O215 Sc199 2.105 . S
O215 C205 1.268 . S
O216 Sc200 2.105 . S
O216 C207 1.268 . S
O217 Sc198 2.105 1_655 S
O217 C203 1.268 . S
O218 Sc200 2.105 . S
O218 C202 1.268 . S
O219 Sc199 2.105 . S
O219 C204 1.268 . S
Sc220 O223 2.025 . S
Sc220 O230 2.105 . S
Sc220 O233 2.105 . S
Sc220 O236 2.105 . S
Sc220 O239 2.105 . S
Sc221 O223 2.025 . S
Sc221 O231 2.105 . S
Sc221 O235 2.105 1_545 S
Sc221 O237 2.105 . S
Sc221 O241 2.105 . S
Sc222 O223 2.025 . S
Sc222 O232 2.105 . S
Sc222 O234 2.105 . S
Sc222 O238 2.105 1_545 S
Sc222 O240 2.105 . S
O223 Sc220 2.025 . S
O223 Sc221 2.025 . S
O223 Sc222 2.025 . S
C224 O230 1.268 . S
C224 O240 1.268 . S
C225 O231 1.268 . S
C225 O239 1.268 . S
C226 O232 1.268 . S
C226 O241 1.268 . S
C227 O233 1.268 . S
C227 O237 1.268 . S
C228 O234 1.268 . S
C228 O236 1.268 . S
C229 O235 1.268 . S
C229 O238 1.268 . S
O230 Sc220 2.105 . S
O230 C224 1.268 . S
O231 Sc221 2.105 . S
O231 C225 1.268 . S
O232 Sc222 2.105 . S
O232 C226 1.268 . S
O233 Sc220 2.105 . S
O233 C227 1.268 . S
O234 Sc222 2.105 . S
O234 C228 1.268 . S
O235 Sc221 2.105 1_565 S
O235 C229 1.268 . S
O236 Sc220 2.105 . S
O236 C228 1.268 . S
O237 Sc221 2.105 . S
O237 C227 1.268 . S
O238 Sc222 2.105 1_565 S
O238 C229 1.268 . S
O239 Sc220 2.105 . S
O239 C225 1.268 . S
O240 Sc222 2.105 . S
O240 C224 1.268 . S
O241 Sc221 2.105 . S
O241 C226 1.268 . S
Sc242 O245 2.025 . S
Sc242 O252 2.105 . S
Sc242 O255 2.105 . S
Sc242 O258 2.105 . S
Sc242 O261 2.105 . S
Sc243 O245 2.025 . S
Sc243 O253 2.105 . S
Sc243 O257 2.105 . S
Sc243 O259 2.105 . S
Sc243 O263 2.105 . S
Sc244 O245 2.025 . S
Sc244 O254 2.105 . S
Sc244 O256 2.105 . S
Sc244 O260 2.105 . S
Sc244 O262 2.105 . S
O245 Sc242 2.025 . S
O245 Sc243 2.025 . S
O245 Sc244 2.025 . S
C246 O252 1.268 . S
C246 O262 1.268 . S
C247 O253 1.268 . S
C247 O261 1.268 . S
C248 O254 1.268 . S
C248 O263 1.268 . S
C249 O255 1.268 . S
C249 O259 1.268 . S
C250 O256 1.268 . S
C250 O258 1.268 . S
C251 O257 1.268 . S
C251 O260 1.268 . S
O252 Sc242 2.105 . S
O252 C246 1.268 . S
O253 Sc243 2.105 . S
O253 C247 1.268 . S
O254 Sc244 2.105 . S
O254 C248 1.268 . S
O255 Sc242 2.105 . S
O255 C249 1.268 . S
O256 Sc244 2.105 . S
O256 C250 1.268 . S
O257 Sc243 2.105 . S
O257 C251 1.268 . S
O258 Sc242 2.105 . S
O258 C250 1.268 . S
O259 Sc243 2.105 . S
O259 C249 1.268 . S
O260 Sc244 2.105 . S
O260 C251 1.268 . S
O261 Sc242 2.105 . S
O261 C247 1.268 . S
O262 Sc244 2.105 . S
O262 C246 1.268 . S
O263 Sc243 2.105 . S
O263 C248 1.268 . S
Sc264 O267 2.025 . S
Sc264 O274 2.105 . S
Sc264 O277 2.105 . S
Sc264 O280 2.105 . S
Sc264 O283 2.105 . S
Sc265 O267 2.025 . S
Sc265 O275 2.105 . S
Sc265 O279 2.105 . S
Sc265 O281 2.105 . S
Sc265 O285 2.105 . S
Sc266 O267 2.025 . S
Sc266 O276 2.105 . S
Sc266 O278 2.105 . S
Sc266 O282 2.105 . S
Sc266 O284 2.105 . S
O267 Sc264 2.025 . S
O267 Sc265 2.025 . S
O267 Sc266 2.025 . S
C268 O274 1.268 . S
C268 O284 1.268 . S
C269 O275 1.268 . S
C269 O283 1.268 . S
C270 O276 1.268 . S
C270 O285 1.268 . S
C271 O277 1.268 . S
C271 O281 1.268 . S
C272 O278 1.268 . S
C272 O280 1.268 . S
C273 O279 1.268 . S
C273 O282 1.268 . S
O274 Sc264 2.105 . S
O274 C268 1.268 . S
O275 Sc265 2.105 . S
O275 C269 1.268 . S
O276 Sc266 2.105 . S
O276 C270 1.268 . S
O277 Sc264 2.105 . S
O277 C271 1.268 . S
O278 Sc266 2.105 . S
O278 C272 1.268 . S
O279 Sc265 2.105 . S
O279 C273 1.268 . S
O280 Sc264 2.105 . S
O280 C272 1.268 . S
O281 Sc265 2.105 . S
O281 C271 1.268 . S
O282 Sc266 2.105 . S
O282 C273 1.268 . S
O283 Sc264 2.105 . S
O283 C269 1.268 . S
O284 Sc266 2.105 . S
O284 C268 1.268 . S
O285 Sc265 2.105 . S
O285 C270 1.268 . S
Sc286 O289 2.025 . S
Sc286 O296 2.105 . S
Sc286 O299 2.105 . S
Sc286 O302 2.105 . S
Sc286 O305 2.105 . S
Sc287 O289 2.025 . S
Sc287 O297 2.105 . S
Sc287 O301 2.105 1_655 S
Sc287 O303 2.105 . S
Sc287 O307 2.105 . S
Sc288 O289 2.025 . S
Sc288 O298 2.105 . S
Sc288 O300 2.105 . S
Sc288 O304 2.105 1_655 S
Sc288 O306 2.105 . S
O289 Sc286 2.025 . S
O289 Sc287 2.025 . S
O289 Sc288 2.025 . S
C290 O296 1.268 . S
C290 O306 1.268 . S
C291 O297 1.268 . S
C291 O305 1.268 . S
C292 O298 1.268 . S
C292 O307 1.268 . S
C293 O299 1.268 . S
C293 O303 1.268 . S
C294 O300 1.268 . S
C294 O302 1.268 . S
C295 O301 1.268 . S
C295 O304 1.268 . S
O296 Sc286 2.105 . S
O296 C290 1.268 . S
O297 Sc287 2.105 . S
O297 C291 1.268 . S
O298 Sc288 2.105 . S
O298 C292 1.268 . S
O299 Sc286 2.105 . S
O299 C293 1.268 . S
O300 Sc288 2.105 . S
O300 C294 1.268 . S
O301 Sc287 2.105 1_455 S
O301 C295 1.268 . S
O302 Sc286 2.105 . S
O302 C294 1.268 . S
O303 Sc287 2.105 . S
O303 C293 1.268 . S
O304 Sc288 2.105 1_455 S
O304 C295 1.268 . S
O305 Sc286 2.105 . S
O305 C291 1.268 . S
O306 Sc288 2.105 . S
O306 C290 1.268 . S
O307 Sc287 2.105 . S
O307 C292 1.268 . S
Sc308 O311 2.025 . S
Sc308 O318 2.105 . S
Sc308 O321 2.105 . S
Sc308 O324 2.105 . S
Sc308 O327 2.105 . S
Sc309 O311 2.025 . S
Sc309 O319 2.105 . S
Sc309 O323 2.105 1_565 S
Sc309 O325 2.105 . S
Sc309 O329 2.105 . S
Sc310 O311 2.025 . S
Sc310 O320 2.105 . S
Sc310 O322 2.105 . S
Sc310 O326 2.105 1_565 S
Sc310 O328 2.105 . S
O311 Sc308 2.025 . S
O311 Sc309 2.025 . S
O311 Sc310 2.025 . S
C312 O318 1.268 . S
C312 O328 1.268 . S
C313 O319 1.268 . S
C313 O327 1.268 . S
C314 O320 1.268 . S
C314 O329 1.268 . S
C315 O321 1.268 . S
C315 O325 1.268 . S
C316 O322 1.268 . S
C316 O324 1.268 . S
C317 O323 1.268 . S
C317 O326 1.268 . S
O318 Sc308 2.105 . S
O318 C312 1.268 . S
O319 Sc309 2.105 . S
O319 C313 1.268 . S
O320 Sc310 2.105 . S
O320 C314 1.268 . S
O321 Sc308 2.105 . S
O321 C315 1.268 . S
O322 Sc310 2.105 . S
O322 C316 1.268 . S
O323 Sc309 2.105 1_545 S
O323 C317 1.268 . S
O324 Sc308 2.105 . S
O324 C316 1.268 . S
O325 Sc309 2.105 . S
O325 C315 1.268 . S
O326 Sc310 2.105 1_545 S
O326 C317 1.268 . S
O327 Sc308 2.105 . S
O327 C313 1.268 . S
O328 Sc310 2.105 . S
O328 C312 1.268 . S
O329 Sc309 2.105 . S
O329 C314 1.268 . S
Sc330 O333 2.025 . S
Sc330 O340 2.105 . S
Sc330 O343 2.105 . S
Sc330 O346 2.105 . S
Sc330 O349 2.105 . S
Sc331 O333 2.025 . S
Sc331 O341 2.105 . S
Sc331 O345 2.105 . S
Sc331 O347 2.105 . S
Sc331 O351 2.105 . S
Sc332 O333 2.025 . S
Sc332 O342 2.105 . S
Sc332 O344 2.105 . S
Sc332 O348 2.105 . S
Sc332 O350 2.105 . S
O333 Sc330 2.025 . S
O333 Sc331 2.025 . S
O333 Sc332 2.025 . S
C334 O340 1.268 . S
C334 O350 1.268 . S
C335 O341 1.268 . S
C335 O349 1.268 . S
C336 O342 1.268 . S
C336 O351 1.268 . S
C337 O343 1.268 . S
C337 O347 1.268 . S
C338 O344 1.268 . S
C338 O346 1.268 . S
C339 O345 1.268 . S
C339 O348 1.268 . S
O340 Sc330 2.105 . S
O340 C334 1.268 . S
O341 Sc331 2.105 . S
O341 C335 1.268 . S
O342 Sc332 2.105 . S
O342 C336 1.268 . S
O343 Sc330 2.105 . S
O343 C337 1.268 . S
O344 Sc332 2.105 . S
O344 C338 1.268 . S
O345 Sc331 2.105 . S
O345 C339 1.268 . S
O346 Sc330 2.105 . S
O346 C338 1.268 . S
O347 Sc331 2.105 . S
O347 C337 1.268 . S
O348 Sc332 2.105 . S
O348 C339 1.268 . S
O349 Sc330 2.105 . S
O349 C335 1.268 . S
O350 Sc332 2.105 . S
O350 C334 1.268 . S
O351 Sc331 2.105 . S
O351 C336 1.268 . S
H352 C360 0.950 . S
H353 C365 0.950 . S
H354 C362 0.950 . S
H355 C364 0.950 . S
H356 C366 0.950 . S
H357 C368 0.950 . S
H358 C370 0.950 . S
H359 C371 0.950 . S
C360 H352 0.950 . S
C360 C361 1.386 . S
C360 C362 1.391 . S
C361 C360 1.386 . S
C361 C365 1.393 . S
C362 H354 0.950 . S
C362 C360 1.391 . S
C362 C363 1.400 . S
C363 C362 1.400 . S
C363 C364 1.398 . S
C363 C369 1.491 . S
C364 H355 0.950 . S
C364 C363 1.398 . S
C364 C365 1.391 . S
C365 H353 0.950 . S
C365 C361 1.393 . S
C365 C364 1.391 . S
C366 H356 0.950 . S
C366 C367 1.386 . S
C366 C368 1.391 . S
C367 C366 1.386 . S
C367 C371 1.393 . S
C368 H357 0.950 . S
C368 C366 1.391 . S
C368 C369 1.400 . S
C369 C363 1.491 . S
C369 C368 1.400 . S
C369 C370 1.398 . S
C370 H358 0.950 . S
C370 C369 1.398 . S
C370 C371 1.391 . S
C371 H359 0.950 . S
C371 C367 1.393 . S
C371 C370 1.391 . S
H372 C380 0.950 . S
H373 C385 0.950 . S
H374 C382 0.950 . S
H375 C384 0.950 1_556 S
H376 C386 0.950 . S
H377 C388 0.950 . S
H378 C390 0.950 1_554 S
H379 C391 0.950 . S
C380 H372 0.950 . S
C380 C381 1.386 . S
C380 C382 1.391 . S
C381 C380 1.386 . S
C381 C385 1.393 . S
C382 H374 0.950 . S
C382 C380 1.391 . S
C382 C383 1.400 . S
C383 C382 1.400 . S
C383 C384 1.398 . S
C383 C389 1.491 1_554 S
C384 H375 0.950 1_554 S
C384 C383 1.398 . S
C384 C385 1.391 . S
C385 H373 0.950 . S
C385 C381 1.393 . S
C385 C384 1.391 . S
C386 H376 0.950 . S
C386 C387 1.386 . S
C386 C388 1.391 . S
C387 C386 1.386 . S
C387 C391 1.393 . S
C388 H377 0.950 . S
C388 C386 1.391 . S
C388 C389 1.400 . S
C389 C383 1.491 1_556 S
C389 C388 1.400 . S
C389 C390 1.398 . S
C390 H378 0.950 1_556 S
C390 C389 1.398 . S
C390 C391 1.391 . S
C391 H379 0.950 . S
C391 C387 1.393 . S
C391 C390 1.391 . S
H392 C400 0.950 . S
H393 C405 0.950 . S
H394 C402 0.950 . S
H395 C404 0.950 . S
H396 C406 0.950 . S
H397 C408 0.950 . S
H398 C410 0.950 . S
H399 C411 0.950 . S
C400 H392 0.950 . S
C400 C401 1.386 . S
C400 C402 1.391 . S
C401 C400 1.386 . S
C401 C405 1.393 . S
C402 H394 0.950 . S
C402 C400 1.391 . S
C402 C403 1.400 . S
C403 C402 1.400 . S
C403 C404 1.398 . S
C403 C409 1.491 . S
C404 H395 0.950 . S
C404 C403 1.398 . S
C404 C405 1.391 . S
C405 H393 0.950 . S
C405 C401 1.393 . S
C405 C404 1.391 . S
C406 H396 0.950 . S
C406 C407 1.386 . S
C406 C408 1.391 . S
C407 C406 1.386 . S
C407 C411 1.393 . S
C408 H397 0.950 . S
C408 C406 1.391 . S
C408 C409 1.400 . S
C409 C403 1.491 . S
C409 C408 1.400 . S
C409 C410 1.398 . S
C410 H398 0.950 . S
C410 C409 1.398 . S
C410 C411 1.391 . S
C411 H399 0.950 . S
C411 C407 1.393 . S
C411 C410 1.391 . S
H412 C420 0.950 . S
H413 C425 0.950 . S
H414 C422 0.950 . S
H415 C424 0.950 1_554 S
H416 C426 0.950 . S
H417 C428 0.950 . S
H418 C430 0.950 1_556 S
H419 C431 0.950 . S
C420 H412 0.950 . S
C420 C421 1.386 . S
C420 C422 1.391 . S
C421 C420 1.386 . S
C421 C425 1.393 . S
C422 H414 0.950 . S
C422 C420 1.391 . S
C422 C423 1.400 . S
C423 C422 1.400 . S
C423 C424 1.398 . S
C423 C429 1.491 1_556 S
C424 H415 0.950 1_556 S
C424 C423 1.398 . S
C424 C425 1.391 . S
C425 H413 0.950 . S
C425 C421 1.393 . S
C425 C424 1.391 . S
C426 H416 0.950 . S
C426 C427 1.386 . S
C426 C428 1.391 . S
C427 C426 1.386 . S
C427 C431 1.393 . S
C428 H417 0.950 . S
C428 C426 1.391 . S
C428 C429 1.400 . S
C429 C423 1.491 1_554 S
C429 C428 1.400 . S
C429 C430 1.398 . S
C430 H418 0.950 1_554 S
C430 C429 1.398 . S
C430 C431 1.391 . S
C431 H419 0.950 . S
C431 C427 1.393 . S
C431 C430 1.391 . S
H432 C440 0.950 . S
H433 C445 0.950 . S
H434 C442 0.950 . S
H435 C444 0.950 . S
H436 C446 0.950 . S
H437 C448 0.950 . S
H438 C450 0.950 . S
H439 C451 0.950 . S
C440 H432 0.950 . S
C440 C441 1.386 . S
C440 C442 1.391 . S
C441 C440 1.386 . S
C441 C445 1.393 . S
C442 H434 0.950 . S
C442 C440 1.391 . S
C442 C443 1.400 . S
C443 C442 1.400 . S
C443 C444 1.398 . S
C443 C449 1.491 . S
C444 H435 0.950 . S
C444 C443 1.398 . S
C444 C445 1.391 . S
C445 H433 0.950 . S
C445 C441 1.393 . S
C445 C444 1.391 . S
C446 H436 0.950 . S
C446 C447 1.386 . S
C446 C448 1.391 . S
C447 C446 1.386 . S
C447 C451 1.393 . S
C448 H437 0.950 . S
C448 C446 1.391 . S
C448 C449 1.400 . S
C449 C443 1.491 . S
C449 C448 1.400 . S
C449 C450 1.398 . S
C450 H438 0.950 . S
C450 C449 1.398 . S
C450 C451 1.391 . S
C451 H439 0.950 . S
C451 C447 1.393 . S
C451 C450 1.391 . S
H452 C460 0.950 . S
H453 C465 0.950 . S
H454 C462 0.950 . S
H455 C464 0.950 1_554 S
H456 C466 0.950 . S
H457 C468 0.950 . S
H458 C470 0.950 1_556 S
H459 C471 0.950 . S
C460 H452 0.950 . S
C460 C461 1.386 . S
C460 C462 1.391 . S
C461 C460 1.386 . S
C461 C465 1.393 . S
C462 H454 0.950 . S
C462 C460 1.391 . S
C462 C463 1.400 . S
C463 C462 1.400 . S
C463 C464 1.398 . S
C463 C469 1.491 1_556 S
C464 H455 0.950 1_556 S
C464 C463 1.398 . S
C464 C465 1.391 . S
C465 H453 0.950 . S
C465 C461 1.393 . S
C465 C464 1.391 . S
C466 H456 0.950 . S
C466 C467 1.386 . S
C466 C468 1.391 . S
C467 C466 1.386 . S
C467 C471 1.393 . S
C468 H457 0.950 . S
C468 C466 1.391 . S
C468 C469 1.400 . S
C469 C463 1.491 1_554 S
C469 C468 1.400 . S
C469 C470 1.398 . S
C470 H458 0.950 1_554 S
C470 C469 1.398 . S
C470 C471 1.391 . S
C471 H459 0.950 . S
C471 C467 1.393 . S
C471 C470 1.391 . S
H472 C480 0.950 . S
H473 C485 0.950 . S
H474 C482 0.950 . S
H475 C484 0.950 . S
H476 C486 0.950 . S
H477 C488 0.950 . S
H478 C490 0.950 . S
H479 C491 0.950 . S
C480 H472 0.950 . S
C480 C481 1.386 . S
C480 C482 1.391 . S
C481 C480 1.386 . S
C481 C485 1.393 . S
C482 H474 0.950 . S
C482 C480 1.391 . S
C482 C483 1.400 . S
C483 C482 1.400 . S
C483 C484 1.398 . S
C483 C489 1.491 . S
C484 H475 0.950 . S
C484 C483 1.398 . S
C484 C485 1.391 . S
C485 H473 0.950 . S
C485 C481 1.393 . S
C485 C484 1.391 . S
C486 H476 0.950 . S
C486 C487 1.386 . S
C486 C488 1.391 . S
C487 C486 1.386 . S
C487 C491 1.393 . S
C488 H477 0.950 . S
C488 C486 1.391 . S
C488 C489 1.400 . S
C489 C483 1.491 . S
C489 C488 1.400 . S
C489 C490 1.398 . S
C490 H478 0.950 . S
C490 C489 1.398 . S
C490 C491 1.391 . S
C491 H479 0.950 . S
C491 C487 1.393 . S
C491 C490 1.391 . S
H492 C500 0.950 . S
H493 C505 0.950 . S
H494 C502 0.936 1_554 S
H495 C504 0.950 . S
H496 C506 0.950 . S
H497 C508 0.937 1_556 S
H498 C510 0.950 . S
H499 C511 0.950 . S
C500 H492 0.950 . S
C500 C501 1.386 . S
C500 C502 1.391 . S
C501 C500 1.386 . S
C501 C505 1.393 . S
C502 H494 0.936 1_556 S
C502 C500 1.391 . S
C502 C503 1.400 . S
C503 C502 1.400 . S
C503 C504 1.398 . S
C503 C509 1.491 1_556 S
C504 H495 0.950 . S
C504 C503 1.398 . S
C504 C505 1.391 . S
C505 H493 0.950 . S
C505 C501 1.393 . S
C505 C504 1.391 . S
C506 H496 0.950 . S
C506 C507 1.386 . S
C506 C508 1.391 . S
C507 C506 1.386 . S
C507 C511 1.393 . S
C508 H497 0.937 1_554 S
C508 C506 1.391 . S
C508 C509 1.400 . S
C509 C503 1.491 1_554 S
C509 C508 1.400 . S
C509 C510 1.398 . S
C510 H498 0.950 . S
C510 C509 1.398 . S
C510 C511 1.391 . S
C511 H499 0.950 . S
C511 C507 1.393 . S
C511 C510 1.391 . S
H512 C520 0.950 . S
H513 C525 0.950 . S
H514 C522 0.950 . S
H515 C524 0.950 . S
H516 C526 0.950 . S
H517 C528 0.950 . S
H518 C530 0.950 . S
H519 C531 0.950 . S
C520 H512 0.950 . S
C520 C521 1.386 . S
C520 C522 1.391 . S
C521 C520 1.386 . S
C521 C525 1.393 . S
C522 H514 0.950 . S
C522 C520 1.391 . S
C522 C523 1.400 . S
C523 C522 1.400 . S
C523 C524 1.398 . S
C523 C529 1.491 . S
C524 H515 0.950 . S
C524 C523 1.398 . S
C524 C525 1.391 . S
C525 H513 0.950 . S
C525 C521 1.393 . S
C525 C524 1.391 . S
C526 H516 0.950 . S
C526 C527 1.386 . S
C526 C528 1.391 . S
C527 C526 1.386 . S
C527 C531 1.393 . S
C528 H517 0.950 . S
C528 C526 1.391 . S
C528 C529 1.400 . S
C529 C523 1.491 . S
C529 C528 1.400 . S
C529 C530 1.398 . S
C530 H518 0.950 . S
C530 C529 1.398 . S
C530 C531 1.391 . S
C531 H519 0.950 . S
C531 C527 1.393 . S
C531 C530 1.391 . S
H532 C540 0.950 . S
H533 C545 0.950 . S
H534 C542 0.950 . S
H535 C544 0.950 . S
H536 C546 0.950 . S
H537 C548 0.950 . S
H538 C550 0.950 . S
H539 C551 0.950 . S
C540 H532 0.950 . S
C540 C541 1.386 . S
C540 C542 1.391 . S
C541 C540 1.386 . S
C541 C545 1.393 . S
C542 H534 0.950 . S
C542 C540 1.391 . S
C542 C543 1.400 . S
C543 C542 1.400 . S
C543 C544 1.398 . S
C543 C549 1.491 . S
C544 H535 0.950 . S
C544 C543 1.398 . S
C544 C545 1.391 . S
C545 H533 0.950 . S
C545 C541 1.393 . S
C545 C544 1.391 . S
C546 H536 0.950 . S
C546 C547 1.386 . S
C546 C548 1.391 . S
C547 C546 1.386 . S
C547 C551 1.393 . S
C548 H537 0.950 . S
C548 C546 1.391 . S
C548 C549 1.400 . S
C549 C543 1.491 . S
C549 C548 1.400 . S
C549 C550 1.398 . S
C550 H538 0.950 . S
C550 C549 1.398 . S
C550 C551 1.391 . S
C551 H539 0.950 . S
C551 C547 1.393 . S
C551 C550 1.391 . S
H552 C560 0.950 . S
H553 C565 0.950 . S
H554 C562 0.950 . S
H555 C564 0.950 . S
H556 C566 0.950 . S
H557 C568 0.950 . S
H558 C570 0.950 . S
H559 C571 0.950 . S
C560 H552 0.950 . S
C560 C561 1.386 . S
C560 C562 1.391 . S
C561 C560 1.386 . S
C561 C565 1.393 . S
C562 H554 0.950 . S
C562 C560 1.391 . S
C562 C563 1.400 . S
C563 C562 1.400 . S
C563 C564 1.398 . S
C563 C569 1.491 . S
C564 H555 0.950 . S
C564 C563 1.398 . S
C564 C565 1.391 . S
C565 H553 0.950 . S
C565 C561 1.393 . S
C565 C564 1.391 . S
C566 H556 0.950 . S
C566 C567 1.386 . S
C566 C568 1.391 . S
C567 C566 1.386 . S
C567 C571 1.393 . S
C568 H557 0.950 . S
C568 C566 1.391 . S
C568 C569 1.400 . S
C569 C563 1.491 . S
C569 C568 1.400 . S
C569 C570 1.398 . S
C570 H558 0.950 . S
C570 C569 1.398 . S
C570 C571 1.391 . S
C571 H559 0.950 . S
C571 C567 1.393 . S
C571 C570 1.391 . S
H572 C580 0.950 . S
H573 C585 0.950 . S
H574 C582 0.950 . S
H575 C584 0.950 . S
H576 C586 0.950 . S
H577 C588 0.950 . S
H578 C590 0.950 . S
H579 C591 0.950 . S
C580 H572 0.950 . S
C580 C581 1.386 . S
C580 C582 1.391 . S
C581 C580 1.386 . S
C581 C585 1.393 . S
C582 H574 0.950 . S
C582 C580 1.391 . S
C582 C583 1.400 . S
C583 C582 1.400 . S
C583 C584 1.398 . S
C583 C589 1.491 . S
C584 H575 0.950 . S
C584 C583 1.398 . S
C584 C585 1.391 . S
C585 H573 0.950 . S
C585 C581 1.393 . S
C585 C584 1.391 . S
C586 H576 0.950 . S
C586 C587 1.386 . S
C586 C588 1.391 . S
C587 C586 1.386 . S
C587 C591 1.393 . S
C588 H577 0.950 . S
C588 C586 1.391 . S
C588 C589 1.400 . S
C589 C583 1.491 . S
C589 C588 1.400 . S
C589 C590 1.398 . S
C590 H578 0.950 . S
C590 C589 1.398 . S
C590 C591 1.391 . S
C591 H579 0.950 . S
C591 C587 1.393 . S
C591 C590 1.391 . S
H592 C600 0.950 . S
H593 C605 0.950 . S
H594 C602 0.950 . S
H595 C604 0.950 . S
H596 C606 0.950 . S
H597 C608 0.950 . S
H598 C610 0.950 . S
H599 C611 0.950 . S
C600 H592 0.950 . S
C600 C601 1.386 . S
C600 C602 1.391 . S
C601 C600 1.386 . S
C601 C605 1.393 . S
C602 H594 0.950 . S
C602 C600 1.391 . S
C602 C603 1.400 . S
C603 C602 1.400 . S
C603 C604 1.398 . S
C603 C609 1.491 . S
C604 H595 0.950 . S
C604 C603 1.398 . S
C604 C605 1.391 . S
C605 H593 0.950 . S
C605 C601 1.393 . S
C605 C604 1.391 . S
C606 H596 0.950 . S
C606 C607 1.386 . S
C606 C608 1.391 . S
C607 C606 1.386 . S
C607 C611 1.393 . S
C608 H597 0.950 . S
C608 C606 1.391 . S
C608 C609 1.400 . S
C609 C603 1.491 . S
C609 C608 1.400 . S
C609 C610 1.398 . S
C610 H598 0.950 . S
C610 C609 1.398 . S
C610 C611 1.391 . S
C611 H599 0.950 . S
C611 C607 1.393 . S
C611 C610 1.391 . S
H612 C620 0.950 . S
H613 C625 0.950 . S
H614 C622 0.950 . S
H615 C624 0.950 . S
H616 C626 0.950 . S
H617 C628 0.950 . S
H618 C630 0.950 . S
H619 C631 0.950 . S
C620 H612 0.950 . S
C620 C621 1.386 . S
C620 C622 1.391 . S
C621 C620 1.386 . S
C621 C625 1.393 . S
C622 H614 0.950 . S
C622 C620 1.391 . S
C622 C623 1.400 . S
C623 C622 1.400 . S
C623 C624 1.398 . S
C623 C629 1.491 . S
C624 H615 0.950 . S
C624 C623 1.398 . S
C624 C625 1.391 . S
C625 H613 0.950 . S
C625 C621 1.393 . S
C625 C624 1.391 . S
C626 H616 0.950 . S
C626 C627 1.386 . S
C626 C628 1.391 . S
C627 C626 1.386 . S
C627 C631 1.393 . S
C628 H617 0.950 . S
C628 C626 1.391 . S
C628 C629 1.400 . S
C629 C623 1.491 . S
C629 C628 1.400 . S
C629 C630 1.398 . S
C630 H618 0.950 . S
C630 C629 1.398 . S
C630 C631 1.391 . S
C631 H619 0.950 . S
C631 C627 1.393 . S
C631 C630 1.391 . S
H632 C640 0.950 . S
H633 C645 0.950 . S
H634 C642 0.950 . S
H635 C644 0.950 . S
H636 C646 0.950 . S
H637 C648 0.950 . S
H638 C650 0.950 . S
H639 C651 0.950 . S
C640 H632 0.950 . S
C640 C641 1.386 . S
C640 C642 1.391 . S
C641 C640 1.386 . S
C641 C645 1.393 . S
C642 H634 0.950 . S
C642 C640 1.391 . S
C642 C643 1.400 . S
C643 C642 1.400 . S
C643 C644 1.398 . S
C643 C649 1.491 . S
C644 H635 0.950 . S
C644 C643 1.398 . S
C644 C645 1.391 . S
C645 H633 0.950 . S
C645 C641 1.393 . S
C645 C644 1.391 . S
C646 H636 0.950 . S
C646 C647 1.386 . S
C646 C648 1.391 . S
C647 C646 1.386 . S
C647 C651 1.393 . S
C648 H637 0.950 . S
C648 C646 1.391 . S
C648 C649 1.400 . S
C649 C643 1.491 . S
C649 C648 1.400 . S
C649 C650 1.398 . S
C650 H638 0.950 . S
C650 C649 1.398 . S
C650 C651 1.391 . S
C651 H639 0.950 . S
C651 C647 1.393 . S
C651 C650 1.391 . S
H652 C660 0.950 . S
H653 C665 0.950 . S
H654 C662 0.950 . S
H655 C664 0.950 . S
H656 C666 0.950 . S
H657 C668 0.950 . S
H658 C670 0.950 . S
H659 C671 0.950 . S
C660 H652 0.950 . S
C660 C661 1.386 . S
C660 C662 1.391 . S
C661 C660 1.386 . S
C661 C665 1.393 . S
C662 H654 0.950 . S
C662 C660 1.391 . S
C662 C663 1.400 . S
C663 C662 1.400 . S
C663 C664 1.398 . S
C663 C669 1.491 . S
C664 H655 0.950 . S
C664 C663 1.398 . S
C664 C665 1.391 . S
C665 H653 0.950 . S
C665 C661 1.393 . S
C665 C664 1.391 . S
C666 H656 0.950 . S
C666 C667 1.386 . S
C666 C668 1.391 . S
C667 C666 1.386 . S
C667 C671 1.393 . S
C668 H657 0.950 . S
C668 C666 1.391 . S
C668 C669 1.400 . S
C669 C663 1.491 . S
C669 C668 1.400 . S
C669 C670 1.398 . S
C670 H658 0.950 . S
C670 C669 1.398 . S
C670 C671 1.391 . S
C671 H659 0.950 . S
C671 C667 1.393 . S
C671 C670 1.391 . S
H672 C680 0.950 . S
H673 C685 0.950 . S
H674 C682 0.950 . S
H675 C684 0.950 . S
H676 C686 0.950 . S
H677 C688 0.950 . S
H678 C690 0.950 . S
H679 C691 0.950 . S
C680 H672 0.950 . S
C680 C681 1.386 1_554 S
C680 C682 1.391 . S
C681 C680 1.386 1_556 S
C681 C685 1.393 . S
C682 H674 0.950 . S
C682 C680 1.391 . S
C682 C683 1.400 . S
C683 C682 1.400 . S
C683 C684 1.398 . S
C683 C689 1.491 . S
C684 H675 0.950 . S
C684 C683 1.398 . S
C684 C685 1.391 1_554 S
C685 H673 0.950 . S
C685 C681 1.393 . S
C685 C684 1.391 1_556 S
C686 H676 0.950 . S
C686 C687 1.386 . S
C686 C688 1.391 . S
C687 C686 1.386 . S
C687 C691 1.393 . S
C688 H677 0.950 . S
C688 C686 1.391 . S
C688 C689 1.400 . S
C689 C683 1.491 . S
C689 C688 1.400 . S
C689 C690 1.398 . S
C690 H678 0.950 . S
C690 C689 1.398 . S
C690 C691 1.391 . S
C691 H679 0.950 . S
C691 C687 1.393 . S
C691 C690 1.391 . S
H692 C700 0.950 . S
H693 C705 0.950 . S
H694 C702 0.950 . S
H695 C704 0.950 . S
H696 C706 0.950 . S
H697 C708 0.950 . S
H698 C710 0.950 . S
H699 C711 0.950 . S
C700 H692 0.950 . S
C700 C701 1.386 . S
C700 C702 1.391 . S
C701 C700 1.386 . S
C701 C705 1.393 1_655 S
C702 H694 0.950 . S
C702 C700 1.391 . S
C702 C703 1.400 . S
C703 C702 1.400 . S
C703 C704 1.398 1_655 S
C703 C709 1.491 . S
C704 H695 0.950 . S
C704 C703 1.398 1_455 S
C704 C705 1.391 . S
C705 H693 0.950 . S
C705 C701 1.393 1_455 S
C705 C704 1.391 . S
C706 H696 0.950 . S
C706 C707 1.386 1_455 S
C706 C708 1.391 . S
C707 C706 1.386 1_655 S
C707 C711 1.393 . S
C708 H697 0.950 . S
C708 C706 1.391 . S
C708 C709 1.400 1_455 S
C709 C703 1.491 . S
C709 C708 1.400 1_655 S
C709 C710 1.398 . S
C710 H698 0.950 . S
C710 C709 1.398 . S
C710 C711 1.391 . S
C711 H699 0.950 . S
C711 C707 1.393 . S
C711 C710 1.391 . S
H712 C720 0.950 1_556 S
H713 C725 0.950 . S
H714 C722 0.950 . S
H715 C724 0.950 . S
H716 C726 0.950 . S
H717 C728 0.950 . S
H718 C730 0.950 . S
H719 C731 0.950 . S
C720 H712 0.950 1_554 S
C720 C721 1.386 1_544 S
C720 C722 1.391 . S
C721 C720 1.386 1_566 S
C721 C725 1.393 . S
C722 H714 0.950 . S
C722 C720 1.391 . S
C722 C723 1.400 1_545 S
C723 C722 1.400 1_565 S
C723 C724 1.398 . S
C723 C729 1.491 . S
C724 H715 0.950 . S
C724 C723 1.398 . S
C724 C725 1.391 1_554 S
C725 H713 0.950 . S
C725 C721 1.393 . S
C725 C724 1.391 1_556 S
C726 H716 0.950 . S
C726 C727 1.386 . S
C726 C728 1.391 . S
C727 C726 1.386 . S
C727 C731 1.393 1_565 S
C728 H717 0.950 . S
C728 C726 1.391 . S
C728 C729 1.400 . S
C729 C723 1.491 . S
C729 C728 1.400 . S
C729 C730 1.398 1_565 S
C730 H718 0.950 . S
C730 C729 1.398 1_545 S
C730 C731 1.391 . S
C731 H719 0.950 . S
C731 C727 1.393 1_545 S
C731 C730 1.391 . S
H732 C740 0.950 . S
H733 C745 0.950 . S
H734 C742 0.950 . S
H735 C744 0.950 . S
H736 C746 0.950 . S
H737 C748 0.950 . S
H738 C750 0.950 . S
H739 C751 0.950 . S
C740 H732 0.950 . S
C740 C741 1.386 . S
C740 C742 1.391 . S
C741 C740 1.386 . S
C741 C745 1.393 . S
C742 H734 0.950 . S
C742 C740 1.391 . S
C742 C743 1.400 . S
C743 C742 1.400 . S
C743 C744 1.398 . S
C743 C749 1.491 . S
C744 H735 0.950 . S
C744 C743 1.398 . S
C744 C745 1.391 . S
C745 H733 0.950 . S
C745 C741 1.393 . S
C745 C744 1.391 . S
C746 H736 0.950 . S
C746 C747 1.386 . S
C746 C748 1.391 . S
C747 C746 1.386 . S
C747 C751 1.393 . S
C748 H737 0.950 . S
C748 C746 1.391 . S
C748 C749 1.400 . S
C749 C743 1.491 . S
C749 C748 1.400 . S
C749 C750 1.398 . S
C750 H738 0.950 . S
C750 C749 1.398 . S
C750 C751 1.391 . S
C751 H739 0.950 . S
C751 C747 1.393 . S
C751 C750 1.391 . S
H752 C760 0.950 . S
H753 C765 0.950 . S
H754 C762 0.950 . S
H755 C764 0.950 . S
H756 C766 0.950 . S
H757 C768 0.950 . S
H758 C770 0.950 . S
H759 C771 0.950 . S
C760 H752 0.950 . S
C760 C761 1.386 . S
C760 C762 1.391 . S
C761 C760 1.386 . S
C761 C765 1.393 . S
C762 H754 0.950 . S
C762 C760 1.391 . S
C762 C763 1.400 . S
C763 C762 1.400 . S
C763 C764 1.398 . S
C763 C769 1.491 . S
C764 H755 0.950 . S
C764 C763 1.398 . S
C764 C765 1.391 . S
C765 H753 0.950 . S
C765 C761 1.393 . S
C765 C764 1.391 . S
C766 H756 0.950 . S
C766 C767 1.386 . S
C766 C768 1.391 . S
C767 C766 1.386 . S
C767 C771 1.393 . S
C768 H757 0.950 . S
C768 C766 1.391 . S
C768 C769 1.400 . S
C769 C763 1.491 . S
C769 C768 1.400 . S
C769 C770 1.398 . S
C770 H758 0.950 . S
C770 C769 1.398 . S
C770 C771 1.391 . S
C771 H759 0.950 . S
C771 C767 1.393 . S
C771 C770 1.391 . S
H772 C780 0.950 . S
H773 C785 0.950 . S
H774 C782 0.950 . S
H775 C784 0.950 . S
H776 C786 0.951 . S
H777 C788 0.950 . S
H778 C790 0.950 . S
H779 C791 0.950 . S
C780 H772 0.950 . S
C780 C781 1.386 1_655 S
C780 C782 1.391 . S
C781 C780 1.386 1_455 S
C781 C785 1.393 . S
C782 H774 0.950 . S
C782 C780 1.391 . S
C782 C783 1.400 1_655 S
C783 C782 1.400 1_455 S
C783 C784 1.398 . S
C783 C789 1.491 . S
C784 H775 0.950 . S
C784 C783 1.398 . S
C784 C785 1.391 . S
C785 H773 0.950 . S
C785 C781 1.393 . S
C785 C784 1.391 . S
C786 H776 0.951 . S
C786 C787 1.386 1_556 S
C786 C788 1.391 . S
C787 C786 1.386 1_554 S
C787 C791 1.393 1_455 S
C788 H777 0.950 . S
C788 C786 1.391 . S
C788 C789 1.400 . S
C789 C783 1.491 . S
C789 C788 1.400 . S
C789 C790 1.398 1_455 S
C790 H778 0.950 . S
C790 C789 1.398 1_655 S
C790 C791 1.391 1_556 S
C791 H779 0.950 . S
C791 C787 1.393 1_655 S
C791 C790 1.391 1_554 S
H792 C800 0.950 . S
H793 C805 0.950 . S
H794 C802 0.950 . S
H795 C804 0.950 . S
H796 C806 0.950 . S
H797 C808 0.950 . S
H798 C810 0.950 . S
H799 C811 0.950 . S
C800 H792 0.950 . S
C800 C801 1.386 . S
C800 C802 1.391 . S
C801 C800 1.386 . S
C801 C805 1.393 1_545 S
C802 H794 0.950 . S
C802 C800 1.391 . S
C802 C803 1.400 . S
C803 C802 1.400 . S
C803 C804 1.398 1_545 S
C803 C809 1.491 . S
C804 H795 0.950 . S
C804 C803 1.398 1_565 S
C804 C805 1.391 . S
C805 H793 0.950 . S
C805 C801 1.393 1_565 S
C805 C804 1.391 . S
C806 H796 0.950 . S
C806 C807 1.386 1_565 S
C806 C808 1.391 . S
C807 C806 1.386 1_545 S
C807 C811 1.393 . S
C808 H797 0.950 . S
C808 C806 1.391 . S
C808 C809 1.400 1_565 S
C809 C803 1.491 . S
C809 C808 1.400 1_545 S
C809 C810 1.398 . S
C810 H798 0.950 . S
C810 C809 1.398 . S
C810 C811 1.391 . S
C811 H799 0.950 . S
C811 C807 1.393 . S
C811 C810 1.391 . S
H812 C820 0.956 . S
H813 C825 0.950 . S
H814 C822 0.950 . S
H815 C824 0.950 . S
H816 C826 0.950 . S
H817 C828 0.950 . S
H818 C830 0.950 . S
H819 C831 0.950 . S
C820 H812 0.956 . S
C820 C821 1.395 . S
C820 C822 1.376 1_554 S
C821 C820 1.395 . S
C821 C825 1.393 . S
C822 H814 0.950 . S
C822 C820 1.376 1_556 S
C822 C823 1.400 . S
C823 C822 1.400 . S
C823 C824 1.398 . S
C823 C829 1.491 . S
C824 H815 0.950 . S
C824 C823 1.398 . S
C824 C825 1.391 1_556 S
C825 H813 0.950 . S
C825 C821 1.393 . S
C825 C824 1.391 1_554 S
C826 H816 0.950 . S
C826 C827 1.386 . S
C826 C828 1.391 . S
C827 C826 1.386 . S
C827 C831 1.393 . S
C828 H817 0.950 . S
C828 C826 1.391 . S
C828 C829 1.400 . S
C829 C823 1.491 . S
C829 C828 1.400 . S
C829 C830 1.398 . S
C830 H818 0.950 . S
C830 C829 1.398 . S
C830 C831 1.391 . S
C831 H819 0.950 . S
C831 C827 1.393 . S
C831 C830 1.391 . S
H832 C840 0.950 . S
H833 C845 0.950 . S
H834 C842 0.950 . S
H835 C844 0.950 . S
H836 C846 0.950 1_554 S
H837 C848 0.950 . S
H838 C850 0.950 . S
H839 C851 0.950 . S
C840 H832 0.950 . S
C840 C841 1.386 . S
C840 C842 1.391 . S
C841 C840 1.386 . S
C841 C845 1.393 . S
C842 H834 0.950 . S
C842 C840 1.391 . S
C842 C843 1.400 . S
C843 C842 1.400 . S
C843 C844 1.398 . S
C843 C849 1.491 . S
C844 H835 0.950 . S
C844 C843 1.398 . S
C844 C845 1.391 . S
C845 H833 0.950 . S
C845 C841 1.393 . S
C845 C844 1.391 . S
C846 H836 0.950 1_556 S
C846 C847 1.386 1_556 S
C846 C848 1.391 . S
C847 C846 1.386 1_554 S
C847 C851 1.393 . S
C848 H837 0.950 . S
C848 C846 1.391 . S
C848 C849 1.400 . S
C849 C843 1.491 . S
C849 C848 1.400 . S
C849 C850 1.398 . S
C850 H838 0.950 . S
C850 C849 1.398 . S
C850 C851 1.391 1_556 S
C851 H839 0.950 . S
C851 C847 1.393 . S
C851 C850 1.391 1_554 S
H852 C860 0.950 . S
H853 C865 0.950 . S
H854 C862 0.950 . S
H855 C864 0.950 . S
H856 C866 0.950 . S
H857 C868 0.950 . S
H858 C870 0.950 . S
H859 C871 0.950 . S
C860 H852 0.950 . S
C860 C861 1.386 1_655 S
C860 C862 1.391 . S
C861 C860 1.386 1_455 S
C861 C865 1.393 . S
C862 H854 0.950 . S
C862 C860 1.391 . S
C862 C863 1.400 1_655 S
C863 C862 1.400 1_455 S
C863 C864 1.398 . S
C863 C869 1.491 . S
C864 H855 0.950 . S
C864 C863 1.398 . S
C864 C865 1.391 . S
C865 H853 0.950 . S
C865 C861 1.393 . S
C865 C864 1.391 . S
C866 H856 0.950 . S
C866 C867 1.386 . S
C866 C868 1.391 . S
C867 C866 1.386 . S
C867 C871 1.393 1_455 S
C868 H857 0.950 . S
C868 C866 1.391 . S
C868 C869 1.400 . S
C869 C863 1.491 . S
C869 C868 1.400 . S
C869 C870 1.398 1_455 S
C870 H858 0.950 . S
C870 C869 1.398 1_655 S
C870 C871 1.391 . S
C871 H859 0.950 . S
C871 C867 1.393 1_655 S
C871 C870 1.391 . S
H872 C880 0.943 1_554 S
H873 C885 0.950 . S
H874 C882 0.950 . S
H875 C884 0.950 . S
H876 C886 0.950 . S
H877 C888 0.950 . S
H878 C890 0.950 . S
H879 C891 0.950 . S
C880 H872 0.943 1_556 S
C880 C881 1.375 1_566 S
C880 C882 1.409 . S
C881 C880 1.375 1_544 S
C881 C885 1.393 . S
C882 H874 0.950 . S
C882 C880 1.409 . S
C882 C883 1.400 1_565 S
C883 C882 1.400 1_545 S
C883 C884 1.398 . S
C883 C889 1.491 . S
C884 H875 0.950 . S
C884 C883 1.398 . S
C884 C885 1.391 1_556 S
C885 H873 0.950 . S
C885 C881 1.393 . S
C885 C884 1.391 1_554 S
C886 H876 0.950 . S
C886 C887 1.386 . S
C886 C888 1.391 . S
C887 C886 1.386 . S
C887 C891 1.393 1_545 S
C888 H877 0.950 . S
C888 C886 1.391 . S
C888 C889 1.400 . S
C889 C883 1.491 . S
C889 C888 1.400 . S
C889 C890 1.398 1_545 S
C890 H878 0.950 . S
C890 C889 1.398 1_565 S
C890 C891 1.391 . S
C891 H879 0.950 . S
C891 C887 1.393 1_565 S
C891 C890 1.391 . S
H892 C900 0.950 . S
H893 C905 0.950 . S
H894 C902 0.950 . S
H895 C904 0.950 . S
H896 C906 0.950 . S
H897 C908 0.950 . S
H898 C910 0.950 . S
H899 C911 0.950 . S
C900 H892 0.950 . S
C900 C901 1.386 . S
C900 C902 1.391 . S
C901 C900 1.386 . S
C901 C905 1.393 . S
C902 H894 0.950 . S
C902 C900 1.391 . S
C902 C903 1.400 . S
C903 C902 1.400 . S
C903 C904 1.398 . S
C903 C909 1.491 . S
C904 H895 0.950 . S
C904 C903 1.398 . S
C904 C905 1.391 . S
C905 H893 0.950 . S
C905 C901 1.393 . S
C905 C904 1.391 . S
C906 H896 0.950 . S
C906 C907 1.386 . S
C906 C908 1.391 . S
C907 C906 1.386 . S
C907 C911 1.393 . S
C908 H897 0.950 . S
C908 C906 1.391 . S
C908 C909 1.400 . S
C909 C903 1.491 . S
C909 C908 1.400 . S
C909 C910 1.398 . S
C910 H898 0.950 . S
C910 C909 1.398 . S
C910 C911 1.391 . S
C911 H899 0.950 . S
C911 C907 1.393 . S
C911 C910 1.391 . S
H912 C920 0.950 . S
H913 C925 0.950 . S
H914 C922 0.950 . S
H915 C924 0.950 . S
H916 C926 0.950 . S
H917 C928 0.950 . S
H918 C930 0.950 . S
H919 C931 0.950 . S
C920 H912 0.950 . S
C920 C921 1.386 . S
C920 C922 1.391 . S
C921 C920 1.386 . S
C921 C925 1.393 . S
C922 H914 0.950 . S
C922 C920 1.391 . S
C922 C923 1.400 . S
C923 C922 1.400 . S
C923 C924 1.398 . S
C923 C929 1.491 . S
C924 H915 0.950 . S
C924 C923 1.398 . S
C924 C925 1.391 . S
C925 H913 0.950 . S
C925 C921 1.393 . S
C925 C924 1.391 . S
C926 H916 0.950 . S
C926 C927 1.386 . S
C926 C928 1.391 . S
C927 C926 1.386 . S
C927 C931 1.393 . S
C928 H917 0.950 . S
C928 C926 1.391 . S
C928 C929 1.400 . S
C929 C923 1.491 . S
C929 C928 1.400 . S
C929 C930 1.398 . S
C930 H918 0.950 . S
C930 C929 1.398 . S
C930 C931 1.391 . S
C931 H919 0.950 . S
C931 C927 1.393 . S
C931 C930 1.391 . S
H932 C940 0.950 . S
H933 C945 0.950 . S
H934 C942 0.950 . S
H935 C944 0.950 . S
H936 C946 0.950 . S
H937 C948 0.950 . S
H938 C950 0.950 . S
H939 C951 0.950 1_556 S
C940 H932 0.950 . S
C940 C941 1.386 1_455 S
C940 C942 1.391 . S
C941 C940 1.386 1_655 S
C941 C945 1.393 . S
C942 H934 0.950 . S
C942 C940 1.391 . S
C942 C943 1.400 1_455 S
C943 C942 1.400 1_655 S
C943 C944 1.398 . S
C943 C949 1.491 . S
C944 H935 0.950 . S
C944 C943 1.398 . S
C944 C945 1.391 . S
C945 H933 0.950 . S
C945 C941 1.393 . S
C945 C944 1.391 . S
C946 H936 0.950 . S
C946 C947 1.386 . S
C946 C948 1.391 1_556 S
C947 C946 1.386 . S
C947 C951 1.393 1_656 S
C948 H937 0.950 . S
C948 C946 1.391 1_554 S
C948 C949 1.400 . S
C949 C943 1.491 . S
C949 C948 1.400 . S
C949 C950 1.398 1_655 S
C950 H938 0.950 . S
C950 C949 1.398 1_455 S
C950 C951 1.391 . S
C951 H939 0.950 1_554 S
C951 C947 1.393 1_454 S
C951 C950 1.391 . S
H952 C960 0.950 . S
H953 C965 0.950 . S
H954 C962 0.950 . S
H955 C964 0.950 . S
H956 C966 0.950 . S
H957 C968 0.950 . S
H958 C970 0.950 . S
H959 C971 0.950 . S
C960 H952 0.950 . S
C960 C961 1.386 1_545 S
C960 C962 1.391 . S
C961 C960 1.386 1_565 S
C961 C965 1.393 . S
C962 H954 0.950 . S
C962 C960 1.391 . S
C962 C963 1.400 1_545 S
C963 C962 1.400 1_565 S
C963 C964 1.398 . S
C963 C969 1.491 . S
C964 H955 0.950 . S
C964 C963 1.398 . S
C964 C965 1.391 . S
C965 H953 0.950 . S
C965 C961 1.393 . S
C965 C964 1.391 . S
C966 H956 0.950 . S
C966 C967 1.386 . S
C966 C968 1.391 . S
C967 C966 1.386 . S
C967 C971 1.393 1_565 S
C968 H957 0.950 . S
C968 C966 1.391 . S
C968 C969 1.400 . S
C969 C963 1.491 . S
C969 C968 1.400 . S
C969 C970 1.398 1_565 S
C970 H958 0.950 . S
C970 C969 1.398 1_545 S
C970 C971 1.391 . S
C971 H959 0.950 . S
C971 C967 1.393 1_545 S
C971 C970 1.391 . S
H972 C980 0.950 . S
H973 C985 0.950 . S
H974 C982 0.950 . S
H975 C984 0.950 . S
H976 C986 0.950 . S
H977 C988 0.950 . S
H978 C990 0.950 . S
H979 C991 0.950 . S
C980 H972 0.950 . S
C980 C981 1.386 . S
C980 C982 1.391 1_556 S
C981 C980 1.386 . S
C981 C985 1.393 . S
C982 H974 0.950 . S
C982 C980 1.391 1_554 S
C982 C983 1.400 . S
C983 C982 1.400 . S
C983 C984 1.398 . S
C983 C989 1.491 . S
C984 H975 0.950 . S
C984 C983 1.398 . S
C984 C985 1.391 1_554 S
C985 H973 0.950 . S
C985 C981 1.393 . S
C985 C984 1.391 1_556 S
C986 H976 0.950 . S
C986 C987 1.386 . S
C986 C988 1.391 . S
C987 C986 1.386 . S
C987 C991 1.393 . S
C988 H977 0.950 . S
C988 C986 1.391 . S
C988 C989 1.400 . S
C989 C983 1.491 . S
C989 C988 1.400 . S
C989 C990 1.398 . S
C990 H978 0.950 . S
C990 C989 1.398 . S
C990 C991 1.391 . S
C991 H979 0.950 . S
C991 C987 1.393 . S
C991 C990 1.391 . S
H992 C1000 0.950 . S
H993 C1005 0.950 . S
H994 C1002 0.950 . S
H995 C1004 0.950 . S
H996 C1006 0.950 . S
H997 C1008 0.950 . S
H998 C1010 0.950 . S
H999 C1011 0.950 . S
C1000 H992 0.950 . S
C1000 C1001 1.386 . S
C1000 C1002 1.391 . S
C1001 C1000 1.386 . S
C1001 C1005 1.393 . S
C1002 H994 0.950 . S
C1002 C1000 1.391 . S
C1002 C1003 1.400 . S
C1003 C1002 1.400 . S
C1003 C1004 1.398 . S
C1003 C1009 1.491 . S
C1004 H995 0.950 . S
C1004 C1003 1.398 . S
C1004 C1005 1.391 . S
C1005 H993 0.950 . S
C1005 C1001 1.393 . S
C1005 C1004 1.391 . S
C1006 H996 0.950 . S
C1006 C1007 1.386 . S
C1006 C1008 1.391 . S
C1007 C1006 1.386 . S
C1007 C1011 1.393 . S
C1008 H997 0.950 . S
C1008 C1006 1.391 . S
C1008 C1009 1.400 . S
C1009 C1003 1.491 . S
C1009 C1008 1.400 . S
C1009 C1010 1.398 . S
C1010 H998 0.950 . S
C1010 C1009 1.398 . S
C1010 C1011 1.391 . S
C1011 H999 0.950 . S
C1011 C1007 1.393 . S
C1011 C1010 1.391 . S
H1012 C1020 0.950 . S
H1013 C1025 0.950 . S
H1014 C1022 0.950 . S
H1015 C1024 0.950 . S
H1016 C1026 0.950 . S
H1017 C1028 0.950 . S
H1018 C1030 0.950 . S
H1019 C1031 0.950 . S
C1020 H1012 0.950 . S
C1020 C1021 1.386 . S
C1020 C1022 1.391 . S
C1021 C1020 1.386 . S
C1021 C1025 1.393 . S
C1022 H1014 0.950 . S
C1022 C1020 1.391 . S
C1022 C1023 1.400 . S
C1023 C1022 1.400 . S
C1023 C1024 1.398 . S
C1023 C1029 1.491 . S
C1024 H1015 0.950 . S
C1024 C1023 1.398 . S
C1024 C1025 1.391 . S
C1025 H1013 0.950 . S
C1025 C1021 1.393 . S
C1025 C1024 1.391 . S
C1026 H1016 0.950 . S
C1026 C1027 1.386 . S
C1026 C1028 1.391 . S
C1027 C1026 1.386 . S
C1027 C1031 1.393 . S
C1028 H1017 0.950 . S
C1028 C1026 1.391 . S
C1028 C1029 1.400 . S
C1029 C1023 1.491 . S
C1029 C1028 1.400 . S
C1029 C1030 1.398 . S
C1030 H1018 0.950 . S
C1030 C1029 1.398 . S
C1030 C1031 1.391 . S
C1031 H1019 0.950 . S
C1031 C1027 1.393 . S
C1031 C1030 1.391 . S
H1032 C1040 0.950 . S
H1033 C1045 0.950 . S
H1034 C1042 0.950 . S
H1035 C1044 0.950 . S
H1036 C1046 0.950 . S
H1037 C1048 0.950 . S
H1038 C1050 0.950 . S
H1039 C1051 0.950 . S
C1040 H1032 0.950 . S
C1040 C1041 1.386 . S
C1040 C1042 1.391 . S
C1041 C1040 1.386 . S
C1041 C1045 1.393 . S
C1042 H1034 0.950 . S
C1042 C1040 1.391 . S
C1042 C1043 1.400 . S
C1043 C1042 1.400 . S
C1043 C1044 1.398 . S
C1043 C1049 1.491 . S
C1044 H1035 0.950 . S
C1044 C1043 1.398 . S
C1044 C1045 1.391 . S
C1045 H1033 0.950 . S
C1045 C1041 1.393 . S
C1045 C1044 1.391 . S
C1046 H1036 0.950 . S
C1046 C1047 1.386 . S
C1046 C1048 1.391 . S
C1047 C1046 1.386 . S
C1047 C1051 1.393 . S
C1048 H1037 0.950 . S
C1048 C1046 1.391 . S
C1048 C1049 1.400 . S
C1049 C1043 1.491 . S
C1049 C1048 1.400 . S
C1049 C1050 1.398 . S
C1050 H1038 0.950 . S
C1050 C1049 1.398 . S
C1050 C1051 1.391 . S
C1051 H1039 0.950 . S
C1051 C1047 1.393 . S
C1051 C1050 1.391 . S
H1052 C1060 0.950 . S
H1053 C1065 0.950 . S
H1054 C1062 0.950 . S
H1055 C1064 0.950 . S
H1056 C1066 0.950 . S
H1057 C1068 0.950 . S
H1058 C1070 0.950 . S
H1059 C1071 0.950 . S
C1060 H1052 0.950 . S
C1060 C1061 1.386 . S
C1060 C1062 1.391 . S
C1061 C1060 1.386 . S
C1061 C1065 1.393 . S
C1062 H1054 0.950 . S
C1062 C1060 1.391 . S
C1062 C1063 1.400 . S
C1063 C1062 1.400 . S
C1063 C1064 1.398 . S
C1063 C1069 1.491 . S
C1064 H1055 0.950 . S
C1064 C1063 1.398 . S
C1064 C1065 1.391 . S
C1065 H1053 0.950 . S
C1065 C1061 1.393 . S
C1065 C1064 1.391 . S
C1066 H1056 0.950 . S
C1066 C1067 1.386 . S
C1066 C1068 1.391 . S
C1067 C1066 1.386 . S
C1067 C1071 1.393 . S
C1068 H1057 0.950 . S
C1068 C1066 1.391 . S
C1068 C1069 1.400 . S
C1069 C1063 1.491 . S
C1069 C1068 1.400 . S
C1069 C1070 1.398 . S
C1070 H1058 0.950 . S
C1070 C1069 1.398 . S
C1070 C1071 1.391 . S
C1071 H1059 0.950 . S
C1071 C1067 1.393 . S
C1071 C1070 1.391 . S
H1072 C1080 0.950 . S
H1073 C1085 0.950 . S
H1074 C1082 0.950 . S
H1075 C1084 0.950 . S
H1076 C1086 0.950 . S
H1077 C1088 0.950 . S
H1078 C1090 0.950 . S
H1079 C1091 0.950 . S
C1080 H1072 0.950 . S
C1080 C1081 1.386 . S
C1080 C1082 1.391 . S
C1081 C1080 1.386 . S
C1081 C1085 1.393 . S
C1082 H1074 0.950 . S
C1082 C1080 1.391 . S
C1082 C1083 1.400 . S
C1083 C1082 1.400 . S
C1083 C1084 1.398 . S
C1083 C1089 1.491 . S
C1084 H1075 0.950 . S
C1084 C1083 1.398 . S
C1084 C1085 1.391 . S
C1085 H1073 0.950 . S
C1085 C1081 1.393 . S
C1085 C1084 1.391 . S
C1086 H1076 0.950 . S
C1086 C1087 1.386 . S
C1086 C1088 1.391 . S
C1087 C1086 1.386 . S
C1087 C1091 1.393 . S
C1088 H1077 0.950 . S
C1088 C1086 1.391 . S
C1088 C1089 1.400 . S
C1089 C1083 1.491 . S
C1089 C1088 1.400 . S
C1089 C1090 1.398 . S
C1090 H1078 0.950 . S
C1090 C1089 1.398 . S
C1090 C1091 1.391 . S
C1091 H1079 0.950 . S
C1091 C1087 1.393 . S
C1091 C1090 1.391 . S
H1092 C1100 0.950 . S
H1093 C1105 0.950 . S
H1094 C1102 0.950 . S
H1095 C1104 0.950 . S
H1096 C1106 0.950 . S
H1097 C1108 0.950 . S
H1098 C1110 0.950 . S
H1099 C1111 0.950 . S
C1100 H1092 0.950 . S
C1100 C1101 1.386 . S
C1100 C1102 1.391 . S
C1101 C1100 1.386 . S
C1101 C1105 1.393 . S
C1102 H1094 0.950 . S
C1102 C1100 1.391 . S
C1102 C1103 1.400 . S
C1103 C1102 1.400 . S
C1103 C1104 1.398 . S
C1103 C1109 1.491 . S
C1104 H1095 0.950 . S
C1104 C1103 1.398 . S
C1104 C1105 1.391 . S
C1105 H1093 0.950 . S
C1105 C1101 1.393 . S
C1105 C1104 1.391 . S
C1106 H1096 0.950 . S
C1106 C1107 1.386 . S
C1106 C1108 1.391 . S
C1107 C1106 1.386 . S
C1107 C1111 1.393 . S
C1108 H1097 0.950 . S
C1108 C1106 1.391 . S
C1108 C1109 1.400 . S
C1109 C1103 1.491 . S
C1109 C1108 1.400 . S
C1109 C1110 1.398 . S
C1110 H1098 0.950 . S
C1110 C1109 1.398 . S
C1110 C1111 1.391 . S
C1111 H1099 0.950 . S
C1111 C1107 1.393 . S
C1111 C1110 1.391 . S
H1112 C1120 0.950 . S
H1113 C1125 0.950 . S
H1114 C1122 0.950 . S
H1115 C1124 0.950 . S
H1116 C1126 0.950 . S
H1117 C1128 0.950 . S
H1118 C1130 0.950 . S
H1119 C1131 0.950 . S
C1120 H1112 0.950 . S
C1120 C1121 1.386 . S
C1120 C1122 1.391 . S
C1121 C1120 1.386 . S
C1121 C1125 1.393 . S
C1122 H1114 0.950 . S
C1122 C1120 1.391 . S
C1122 C1123 1.400 . S
C1123 C1122 1.400 . S
C1123 C1124 1.398 . S
C1123 C1129 1.491 . S
C1124 H1115 0.950 . S
C1124 C1123 1.398 . S
C1124 C1125 1.391 . S
C1125 H1113 0.950 . S
C1125 C1121 1.393 . S
C1125 C1124 1.391 . S
C1126 H1116 0.950 . S
C1126 C1127 1.386 . S
C1126 C1128 1.391 . S
C1127 C1126 1.386 . S
C1127 C1131 1.393 . S
C1128 H1117 0.950 . S
C1128 C1126 1.391 . S
C1128 C1129 1.400 . S
C1129 C1123 1.491 . S
C1129 C1128 1.400 . S
C1129 C1130 1.398 . S
C1130 H1118 0.950 . S
C1130 C1129 1.398 . S
C1130 C1131 1.391 . S
C1131 H1119 0.950 . S
C1131 C1127 1.393 . S
C1131 C1130 1.391 . S
H1132 C1140 0.950 . S
H1133 C1145 0.950 . S
H1134 C1142 0.950 . S
H1135 C1144 0.950 . S
H1136 C1146 0.950 . S
H1137 C1148 0.950 . S
H1138 C1150 0.950 . S
H1139 C1151 0.950 . S
C1140 H1132 0.950 . S
C1140 C1141 1.386 . S
C1140 C1142 1.391 . S
C1141 C1140 1.386 . S
C1141 C1145 1.393 . S
C1142 H1134 0.950 . S
C1142 C1140 1.391 . S
C1142 C1143 1.400 . S
C1143 C1142 1.400 . S
C1143 C1144 1.398 . S
C1143 C1149 1.491 . S
C1144 H1135 0.950 . S
C1144 C1143 1.398 . S
C1144 C1145 1.391 . S
C1145 H1133 0.950 . S
C1145 C1141 1.393 . S
C1145 C1144 1.391 . S
C1146 H1136 0.950 . S
C1146 C1147 1.386 . S
C1146 C1148 1.391 . S
C1147 C1146 1.386 . S
C1147 C1151 1.393 . S
C1148 H1137 0.950 . S
C1148 C1146 1.391 . S
C1148 C1149 1.400 . S
C1149 C1143 1.491 . S
C1149 C1148 1.400 . S
C1149 C1150 1.398 . S
C1150 H1138 0.950 . S
C1150 C1149 1.398 . S
C1150 C1151 1.391 . S
C1151 H1139 0.950 . S
C1151 C1147 1.393 . S
C1151 C1150 1.391 . S
H1152 C1160 0.950 . S
H1153 C1165 0.950 . S
H1154 C1162 0.950 . S
H1155 C1164 0.950 . S
H1156 C1166 0.950 . S
H1157 C1168 0.950 . S
H1158 C1170 0.950 . S
H1159 C1171 0.950 . S
C1160 H1152 0.950 . S
C1160 C1161 1.386 . S
C1160 C1162 1.391 . S
C1161 C1160 1.386 . S
C1161 C1165 1.393 . S
C1162 H1154 0.950 . S
C1162 C1160 1.391 . S
C1162 C1163 1.400 . S
C1163 C1162 1.400 . S
C1163 C1164 1.398 . S
C1163 C1169 1.491 . S
C1164 H1155 0.950 . S
C1164 C1163 1.398 . S
C1164 C1165 1.391 . S
C1165 H1153 0.950 . S
C1165 C1161 1.393 . S
C1165 C1164 1.391 . S
C1166 H1156 0.950 . S
C1166 C1167 1.386 . S
C1166 C1168 1.391 . S
C1167 C1166 1.386 . S
C1167 C1171 1.393 . S
C1168 H1157 0.950 . S
C1168 C1166 1.391 . S
C1168 C1169 1.400 . S
C1169 C1163 1.491 . S
C1169 C1168 1.400 . S
C1169 C1170 1.398 . S
C1170 H1158 0.950 . S
C1170 C1169 1.398 . S
C1170 C1171 1.391 . S
C1171 H1159 0.950 . S
C1171 C1167 1.393 . S
C1171 C1170 1.391 . S
H1172 C1180 0.950 . S
H1173 C1185 0.950 . S
H1174 C1182 0.950 . S
H1175 C1184 0.950 . S
H1176 C1186 0.950 . S
H1177 C1188 0.950 . S
H1178 C1190 0.950 . S
H1179 C1191 0.950 . S
C1180 H1172 0.950 . S
C1180 C1181 1.386 . S
C1180 C1182 1.391 . S
C1181 C1180 1.386 . S
C1181 C1185 1.393 . S
C1182 H1174 0.950 . S
C1182 C1180 1.391 . S
C1182 C1183 1.400 . S
C1183 C1182 1.400 . S
C1183 C1184 1.398 . S
C1183 C1189 1.491 . S
C1184 H1175 0.950 . S
C1184 C1183 1.398 . S
C1184 C1185 1.391 . S
C1185 H1173 0.950 . S
C1185 C1181 1.393 . S
C1185 C1184 1.391 . S
C1186 H1176 0.950 . S
C1186 C1187 1.386 . S
C1186 C1188 1.391 . S
C1187 C1186 1.386 . S
C1187 C1191 1.393 . S
C1188 H1177 0.950 . S
C1188 C1186 1.391 . S
C1188 C1189 1.400 . S
C1189 C1183 1.491 . S
C1189 C1188 1.400 . S
C1189 C1190 1.398 . S
C1190 H1178 0.950 . S
C1190 C1189 1.398 . S
C1190 C1191 1.391 . S
C1191 H1179 0.950 . S
C1191 C1187 1.393 . S
C1191 C1190 1.391 . S
H1192 C1200 0.950 . S
H1193 C1205 0.950 . S
H1194 C1202 0.950 . S
H1195 C1204 0.950 . S
H1196 C1206 0.950 . S
H1197 C1208 0.950 . S
H1198 C1210 0.950 . S
H1199 C1211 0.950 . S
C1200 H1192 0.950 . S
C1200 C1201 1.386 . S
C1200 C1202 1.391 . S
C1201 C1200 1.386 . S
C1201 C1205 1.393 . S
C1202 H1194 0.950 . S
C1202 C1200 1.391 . S
C1202 C1203 1.400 . S
C1203 C1202 1.400 . S
C1203 C1204 1.398 . S
C1203 C1209 1.491 . S
C1204 H1195 0.950 . S
C1204 C1203 1.398 . S
C1204 C1205 1.391 . S
C1205 H1193 0.950 . S
C1205 C1201 1.393 . S
C1205 C1204 1.391 . S
C1206 H1196 0.950 . S
C1206 C1207 1.386 . S
C1206 C1208 1.391 . S
C1207 C1206 1.386 . S
C1207 C1211 1.393 . S
C1208 H1197 0.950 . S
C1208 C1206 1.391 . S
C1208 C1209 1.400 . S
C1209 C1203 1.491 . S
C1209 C1208 1.400 . S
C1209 C1210 1.398 . S
C1210 H1198 0.950 . S
C1210 C1209 1.398 . S
C1210 C1211 1.391 . S
C1211 H1199 0.950 . S
C1211 C1207 1.393 . S
C1211 C1210 1.391 . S
H1212 C1220 0.950 . S
H1213 C1225 0.950 . S
H1214 C1222 0.950 . S
H1215 C1224 0.950 . S
H1216 C1226 0.950 . S
H1217 C1228 0.950 . S
H1218 C1230 0.950 . S
H1219 C1231 0.950 . S
C1220 H1212 0.950 . S
C1220 C1221 1.386 . S
C1220 C1222 1.391 . S
C1221 C1220 1.386 . S
C1221 C1225 1.393 . S
C1222 H1214 0.950 . S
C1222 C1220 1.391 . S
C1222 C1223 1.400 . S
C1223 C1222 1.400 . S
C1223 C1224 1.398 . S
C1223 C1229 1.491 . S
C1224 H1215 0.950 . S
C1224 C1223 1.398 . S
C1224 C1225 1.391 . S
C1225 H1213 0.950 . S
C1225 C1221 1.393 . S
C1225 C1224 1.391 . S
C1226 H1216 0.950 . S
C1226 C1227 1.386 . S
C1226 C1228 1.391 . S
C1227 C1226 1.386 . S
C1227 C1231 1.393 . S
C1228 H1217 0.950 . S
C1228 C1226 1.391 . S
C1228 C1229 1.400 . S
C1229 C1223 1.491 . S
C1229 C1228 1.400 . S
C1229 C1230 1.398 . S
C1230 H1218 0.950 . S
C1230 C1229 1.398 . S
C1230 C1231 1.391 . S
C1231 H1219 0.950 . S
C1231 C1227 1.393 . S
C1231 C1230 1.391 . S
H1232 C1240 0.950 . S
H1233 C1245 0.950 . S
H1234 C1242 0.950 . S
H1235 C1244 0.950 . S
H1236 C1246 0.950 . S
H1237 C1248 0.950 . S
H1238 C1250 0.950 . S
H1239 C1251 0.950 . S
C1240 H1232 0.950 . S
C1240 C1241 1.386 . S
C1240 C1242 1.391 . S
C1241 C1240 1.386 . S
C1241 C1245 1.393 . S
C1242 H1234 0.950 . S
C1242 C1240 1.391 . S
C1242 C1243 1.400 . S
C1243 C1242 1.400 . S
C1243 C1244 1.398 . S
C1243 C1249 1.491 . S
C1244 H1235 0.950 . S
C1244 C1243 1.398 . S
C1244 C1245 1.391 . S
C1245 H1233 0.950 . S
C1245 C1241 1.393 . S
C1245 C1244 1.391 . S
C1246 H1236 0.950 . S
C1246 C1247 1.386 . S
C1246 C1248 1.391 . S
C1247 C1246 1.386 . S
C1247 C1251 1.393 . S
C1248 H1237 0.950 . S
C1248 C1246 1.391 . S
C1248 C1249 1.400 . S
C1249 C1243 1.491 . S
C1249 C1248 1.400 . S
C1249 C1250 1.398 . S
C1250 H1238 0.950 . S
C1250 C1249 1.398 . S
C1250 C1251 1.391 . S
C1251 H1239 0.950 . S
C1251 C1247 1.393 . S
C1251 C1250 1.391 . S
H1252 C1260 0.950 . S
H1253 C1265 0.950 . S
H1254 C1262 0.950 . S
H1255 C1264 0.950 . S
H1256 C1266 0.950 . S
H1257 C1268 0.950 . S
H1258 C1270 0.950 . S
H1259 C1271 0.950 . S
C1260 H1252 0.950 . S
C1260 C1261 1.386 . S
C1260 C1262 1.391 . S
C1261 C1260 1.386 . S
C1261 C1265 1.393 . S
C1262 H1254 0.950 . S
C1262 C1260 1.391 . S
C1262 C1263 1.400 . S
C1263 C1262 1.400 . S
C1263 C1264 1.398 . S
C1263 C1269 1.491 . S
C1264 H1255 0.950 . S
C1264 C1263 1.398 . S
C1264 C1265 1.391 . S
C1265 H1253 0.950 . S
C1265 C1261 1.393 . S
C1265 C1264 1.391 . S
C1266 H1256 0.950 . S
C1266 C1267 1.386 . S
C1266 C1268 1.391 . S
C1267 C1266 1.386 . S
C1267 C1271 1.393 . S
C1268 H1257 0.950 . S
C1268 C1266 1.391 . S
C1268 C1269 1.400 . S
C1269 C1263 1.491 . S
C1269 C1268 1.400 . S
C1269 C1270 1.398 . S
C1270 H1258 0.950 . S
C1270 C1269 1.398 . S
C1270 C1271 1.391 . S
C1271 H1259 0.950 . S
C1271 C1267 1.393 . S
C1271 C1270 1.391 . S
H1272 C1280 0.950 . S
H1273 C1285 0.950 . S
H1274 C1282 0.950 . S
H1275 C1284 0.950 . S
H1276 C1286 0.950 . S
H1277 C1288 0.950 . S
H1278 C1290 0.950 . S
H1279 C1291 0.950 . S
C1280 H1272 0.950 . S
C1280 C1281 1.386 . S
C1280 C1282 1.391 . S
C1281 C1280 1.386 . S
C1281 C1285 1.393 . S
C1282 H1274 0.950 . S
C1282 C1280 1.391 . S
C1282 C1283 1.400 . S
C1283 C1282 1.400 . S
C1283 C1284 1.398 . S
C1283 C1289 1.491 . S
C1284 H1275 0.950 . S
C1284 C1283 1.398 . S
C1284 C1285 1.391 . S
C1285 H1273 0.950 . S
C1285 C1281 1.393 . S
C1285 C1284 1.391 . S
C1286 H1276 0.950 . S
C1286 C1287 1.386 . S
C1286 C1288 1.391 . S
C1287 C1286 1.386 . S
C1287 C1291 1.393 . S
C1288 H1277 0.950 . S
C1288 C1286 1.391 . S
C1288 C1289 1.400 . S
C1289 C1283 1.491 . S
C1289 C1288 1.400 . S
C1289 C1290 1.398 . S
C1290 H1278 0.950 . S
C1290 C1289 1.398 . S
C1290 C1291 1.391 . S
C1291 H1279 0.950 . S
C1291 C1287 1.393 . S
C1291 C1290 1.391 . S
H1292 C1300 0.950 . S
H1293 C1305 0.950 . S
H1294 C1302 0.950 . S
H1295 C1304 0.950 . S
H1296 C1306 0.950 . S
H1297 C1308 0.950 . S
H1298 C1310 0.950 . S
H1299 C1311 0.950 . S
C1300 H1292 0.950 . S
C1300 C1301 1.386 . S
C1300 C1302 1.391 . S
C1301 C1300 1.386 . S
C1301 C1305 1.393 . S
C1302 H1294 0.950 . S
C1302 C1300 1.391 . S
C1302 C1303 1.400 . S
C1303 C1302 1.400 . S
C1303 C1304 1.398 . S
C1303 C1309 1.491 . S
C1304 H1295 0.950 . S
C1304 C1303 1.398 . S
C1304 C1305 1.391 . S
C1305 H1293 0.950 . S
C1305 C1301 1.393 . S
C1305 C1304 1.391 . S
C1306 H1296 0.950 . S
C1306 C1307 1.386 . S
C1306 C1308 1.391 . S
C1307 C1306 1.386 . S
C1307 C1311 1.393 . S
C1308 H1297 0.950 . S
C1308 C1306 1.391 . S
C1308 C1309 1.400 . S
C1309 C1303 1.491 . S
C1309 C1308 1.400 . S
C1309 C1310 1.398 . S
C1310 H1298 0.950 . S
C1310 C1309 1.398 . S
C1310 C1311 1.391 . S
C1311 H1299 0.950 . S
C1311 C1307 1.393 . S
C1311 C1310 1.391 . S
C361 C5 0.882 . S
C367 C159 0.874 . S
C381 C93 0.867 . S
C387 C27 0.899 . S
C401 C119 0.912 . S
C407 C53 0.881 . S
C421 C75 0.884 . S
C427 C141 0.912 . S
C441 C336 0.887 . S
C447 C182 0.911 . S
C461 C270 0.907 . S
C467 C204 0.895 . S
C481 C293 0.879 . S
C487 C227 0.876 . S
C501 C315 0.889 . S
C507 C249 0.910 . S
C521 C6 1.364 . S
C527 C335 1.344 . S
C541 C28 1.364 . S
C547 C269 1.344 . S
C561 C51 1.363 . S
C567 C295 1.346 . S
C581 C317 1.345 . S
C587 C73 1.363 . S
C601 C203 1.368 . S
C607 C94 1.340 . S
C621 C117 1.347 . S
C627 C229 1.362 . S
C641 C251 1.350 . S
C647 C139 1.358 . S
C661 C160 1.340 . S
C667 C181 1.368 . S
C681 C268 1.591 . S
C687 C9 1.614 . S
C701 C31 1.620 . S
C707 C294 1.593 . S
C721 C316 1.587 . S
C727 C49 1.612 . S
C741 C334 1.576 . S
C747 C71 1.613 . S
C761 C97 1.613 . S
C767 C180 1.576 . S
C781 C115 1.613 . S
C787 C202 1.576 . S
C801 C137 1.620 . S
C807 C228 1.586 . S
C821 C250 1.582 . S
C827 C163 1.611 . S
C841 C183 1.619 . S
C847 C92 1.594 . S
C861 C205 1.620 . S
C867 C118 1.593 . S
C881 C140 1.586 . S
C887 C226 1.620 . S
C901 C248 1.615 . S
C907 C158 1.576 . S
C921 C271 1.614 . S
C927 C4 1.592 . S
C941 C292 1.620 . S
C947 C26 1.588 . S
C961 C52 1.587 . S
C967 C314 1.620 . S
C981 C74 1.580 . S
C987 C337 1.611 . S
C1001 C8 1.479 . S
C1007 C207 1.412 . S
C1021 C225 1.392 . S
C1027 C30 1.472 . S
C1041 C48 1.467 . S
C1047 C247 1.382 . S
C1061 C70 1.466 . S
C1067 C185 1.378 . S
C1081 C96 1.478 . S
C1087 C339 1.411 . S
C1101 C114 1.466 . S
C1107 C273 1.379 . S
C1121 C136 1.466 . S
C1127 C291 1.379 . S
C1141 C313 1.411 . S
C1147 C162 1.479 . S
C1161 C29 1.407 . S
C1167 C184 1.476 . S
C1181 C50 1.393 . S
C1187 C206 1.471 . S
C1201 C224 1.470 . S
C1207 C72 1.386 . S
C1221 C246 1.479 . S
C1227 C7 1.412 . S
C1241 C161 1.379 . S
C1247 C272 1.466 . S
C1261 C95 1.385 . S
C1267 C290 1.468 . S
C1281 C116 1.403 . S
C1287 C312 1.474 . S
C1301 C138 1.388 . S
C1307 C338 1.469 . S
