# Generated by pormake.
# Topology nfc, (4)-cn, num edge types: 1
# Building blocks:
#     Node 0, Type 0, BuildingBlock: ESEHIV_clean_sbu_0, # of connection points: 4
#     Node 1, Type 0, BuildingBlock: ESEHIV_clean_sbu_0, # of connection points: 4
#     Node 2, Type 0, BuildingBlock: ESEHIV_clean_sbu_0, # of connection points: 4
#     Node 3, Type 0, BuildingBlock: ESEHIV_clean_sbu_0, # of connection points: 4
#     Node 4, Type 0, BuildingBlock: ESEHIV_clean_sbu_0, # of connection points: 4
#     Node 5, Type 0, BuildingBlock: ESEHIV_clean_sbu_0, # of connection points: 4
#     Node 6, Type 0, BuildingBlock: ESEHIV_clean_sbu_0, # of connection points: 4
#     Node 7, Type 0, BuildingBlock: ESEHIV_clean_sbu_0, # of connection points: 4
#     Node 8, Type 0, BuildingBlock: ESEHIV_clean_sbu_0, # of connection points: 4
#     Node 9, Type 0, BuildingBlock: ESEHIV_clean_sbu_0, # of connection points: 4
#     Node 10, Type 0, BuildingBlock: ESEHIV_clean_sbu_0, # of connection points: 4
#     Node 11, Type 0, BuildingBlock: ESEHIV_clean_sbu_0, # of connection points: 4
#     Node 12, Type 0, BuildingBlock: ESEHIV_clean_sbu_0, # of connection points: 4
#     Node 13, Type 0, BuildingBlock: ESEHIV_clean_sbu_0, # of connection points: 4
#     Node 14, Type 0, BuildingBlock: ESEHIV_clean_sbu_0, # of connection points: 4
#     Node 15, Type 0, BuildingBlock: ESEHIV_clean_sbu_0, # of connection points: 4
#     Edge 16, Type (0, 0), BuildingBlock: XIVTED_clean_linker_0, # of connection points: 2
#     Edge 17, Type (0, 0), BuildingBlock: XIVTED_clean_linker_0, # of connection points: 2
#     Edge 18, Type (0, 0), BuildingBlock: XIVTED_clean_linker_0, # of connection points: 2
#     Edge 19, Type (0, 0), BuildingBlock: XIVTED_clean_linker_0, # of connection points: 2
#     Edge 20, Type (0, 0), BuildingBlock: XIVTED_clean_linker_0, # of connection points: 2
#     Edge 21, Type (0, 0), BuildingBlock: XIVTED_clean_linker_0, # of connection points: 2
#     Edge 22, Type (0, 0), BuildingBlock: XIVTED_clean_linker_0, # of connection points: 2
#     Edge 23, Type (0, 0), BuildingBlock: XIVTED_clean_linker_0, # of connection points: 2
#     Edge 24, Type (0, 0), BuildingBlock: XIVTED_clean_linker_0, # of connection points: 2
#     Edge 25, Type (0, 0), BuildingBlock: XIVTED_clean_linker_0, # of connection points: 2
#     Edge 26, Type (0, 0), BuildingBlock: XIVTED_clean_linker_0, # of connection points: 2
#     Edge 27, Type (0, 0), BuildingBlock: XIVTED_clean_linker_0, # of connection points: 2
#     Edge 28, Type (0, 0), BuildingBlock: XIVTED_clean_linker_0, # of connection points: 2
#     Edge 29, Type (0, 0), BuildingBlock: XIVTED_clean_linker_0, # of connection points: 2
#     Edge 30, Type (0, 0), BuildingBlock: XIVTED_clean_linker_0, # of connection points: 2
#     Edge 31, Type (0, 0), BuildingBlock: XIVTED_clean_linker_0, # of connection points: 2
#     Edge 32, Type (0, 0), BuildingBlock: XIVTED_clean_linker_0, # of connection points: 2
#     Edge 33, Type (0, 0), BuildingBlock: XIVTED_clean_linker_0, # of connection points: 2
#     Edge 34, Type (0, 0), BuildingBlock: XIVTED_clean_linker_0, # of connection points: 2
#     Edge 35, Type (0, 0), BuildingBlock: XIVTED_clean_linker_0, # of connection points: 2
#     Edge 36, Type (0, 0), BuildingBlock: XIVTED_clean_linker_0, # of connection points: 2
#     Edge 37, Type (0, 0), BuildingBlock: XIVTED_clean_linker_0, # of connection points: 2
#     Edge 38, Type (0, 0), BuildingBlock: XIVTED_clean_linker_0, # of connection points: 2
#     Edge 39, Type (0, 0), BuildingBlock: XIVTED_clean_linker_0, # of connection points: 2
#     Edge 40, Type (0, 0), BuildingBlock: XIVTED_clean_linker_0, # of connection points: 2
#     Edge 41, Type (0, 0), BuildingBlock: XIVTED_clean_linker_0, # of connection points: 2
#     Edge 42, Type (0, 0), BuildingBlock: XIVTED_clean_linker_0, # of connection points: 2
#     Edge 43, Type (0, 0), BuildingBlock: XIVTED_clean_linker_0, # of connection points: 2
#     Edge 44, Type (0, 0), BuildingBlock: XIVTED_clean_linker_0, # of connection points: 2
#     Edge 45, Type (0, 0), BuildingBlock: XIVTED_clean_linker_0, # of connection points: 2
#     Edge 46, Type (0, 0), BuildingBlock: XIVTED_clean_linker_0, # of connection points: 2
#     Edge 47, Type (0, 0), BuildingBlock: XIVTED_clean_linker_0, # of connection points: 2
# Relax obj value: 0.068
# Max RMSD: 0.217
# Mean RMSD: 0.158
data_MOF--net-nfc--node1-ESEHIV_clean_sbu_0--edge1-XIVTED_clean_linker_0
_symmetry_space_group_name_H-M    P1
_symmetry_Int_Tables_number       1
_symmetry_cell_setting            triclinic
loop_
_symmetry_equiv_pos_as_xyz
'x, y, z'
_cell_length_a     40.104978
_cell_length_b     40.172141
_cell_length_c     31.655126
_cell_angle_alpha  88.475986
_cell_angle_beta   88.532037
_cell_angle_gamma 80.474855
loop_
_atom_site_label
_atom_site_type_symbol
_atom_site_fract_x
_atom_site_fract_y
_atom_site_fract_z
_atom_type_partial_charge
Cu0 Cu 1.00068 0.0375 0.01655 0.0
N1 N 0.95586 0.03198 0.00354 0.0
N2 N 0.91334 0.00919 0.9766 0.0
C3 C 0.94559 0.01496 0.97103 0.0
C4 C 0.90283 0.02359 0.01372 0.0
C5 C 0.92889 0.0375 0.03011 0.0
O6 O 0.02881 0.02401 0.96629 0.0
C7 C 0.04024 0.00907 0.0879 0.0
O8 O 0.06609 0.01881 0.06762 0.0
H9 H 0.96199 0.0051 0.94507 0.0
H10 H 0.92883 0.04911 0.06056 0.0
N11 N 1.00552 0.08286 0.02726 0.0
N12 N 0.02725 0.12644 0.05309 0.0
C13 C 0.02177 0.09423 0.0597 0.0
C14 C 1.00016 0.10906 -0.00046 0.0
C15 C 0.01339 0.13579 0.01526 0.0
C16 C 0.03264 0.99511 0.94946 0.0
O17 O 0.02153 0.97012 0.96998 0.0
H18 H 0.03119 0.07867 0.08655 0.0
H19 H 0.98906 0.10819 0.96889 0.0
O20 O 0.01201 0.01193 0.0694 0.0
H21 H 0.87834 0.02318 0.02873 0.0
H22 H 0.0136 0.15994 -0.00063 0.0
Cu23 Cu 0.317 0.77185 0.27371 0.0
N24 N 0.28749 0.76941 0.22845 0.0
N25 N 0.26923 0.76963 0.16165 0.0
C26 C 0.29502 0.77367 0.18688 0.0
C27 C 0.24458 0.76246 0.18868 0.0
C28 C 0.25591 0.76221 0.2296 0.0
O29 O 0.36188 0.7502 0.25055 0.0
C30 C 0.28519 0.84056 0.28562 0.0
O31 O 0.26527 0.8345 0.25551 0.0
H32 H 0.319 0.77978 0.17547 0.0
H33 H 0.24213 0.757 0.25817 0.0
N34 N 0.30529 0.74925 0.32401 0.0
N35 N 0.29465 0.74194 0.39387 0.0
C36 C 0.30751 0.76095 0.36344 0.0
C37 C 0.29052 0.72169 0.32957 0.0
C38 C 0.28407 0.71707 0.37237 0.0
C39 C 0.36201 0.72115 0.23462 0.0
O40 O 0.33457 0.70743 0.23948 0.0
H41 H 0.31807 0.78338 0.36947 0.0
H42 H 0.28391 0.70659 0.30427 0.0
O43 O 0.31172 0.81896 0.29335 0.0
H44 H 0.2202 0.75714 0.17962 0.0
H45 H 0.27141 0.69751 0.38623 0.0
Cu46 Cu 0.53702 0.01973 0.50483 0.0
N47 N 0.54399 0.06533 0.49765 0.0
N48 N 0.56766 0.10889 0.471 0.0
C49 C 0.56491 0.07587 0.46772 0.0
C50 C 0.54752 0.11956 0.50453 0.0
C51 C 0.53293 0.09278 0.52076 0.0
O52 O 0.54225 1.00246 0.44729 0.0
C53 C 0.58571 0.01163 0.57057 0.0
O54 O 0.59182 0.04153 0.55826 0.0
H55 H 0.57875 0.05918 0.44469 0.0
H56 H 0.5161 0.09315 0.54806 0.0
N57 N 0.49418 0.01258 0.52654 0.0
N58 N 0.45557 0.9839 0.55718 0.0
C59 C 0.4874 0.98222 0.54071 0.0
C60 C 0.46565 0.03446 0.53432 0.0
C61 C 0.4419 0.01695 0.55298 0.0
C62 C 0.52111 0.01943 0.42213 0.0
O63 O 0.49764 0.04268 0.43823 0.0
H64 H 0.50584 0.95934 0.53911 0.0
H65 H 0.46249 0.06133 0.52762 0.0
O66 O 0.56746 0.99645 0.54773 0.0
H67 H 0.54356 0.1449 0.51658 0.0
H68 H 0.41676 0.02812 0.56349 0.0
Cu69 Cu 0.27766 0.22242 0.75573 0.0
N70 N 0.30451 0.22977 0.70786 0.0
N71 N 0.31863 0.23472 0.63904 0.0
C72 C 0.29605 0.22533 0.66763 0.0
C73 C 0.3423 0.24544 0.66257 0.0
C74 C 0.33349 0.24248 0.70484 0.0
O75 O 0.23098 0.23656 0.73393 0.0
C76 C 0.3213 0.15917 0.77279 0.0
O77 O 0.34092 0.17085 0.74419 0.0
H78 H 0.27345 0.21564 0.65971 0.0
H79 H 0.34694 0.24963 0.73143 0.0
N80 N 0.28553 0.24925 0.80111 0.0
N81 N 0.29191 0.26349 0.86831 0.0
C82 C 0.2833 0.24017 0.84235 0.0
C83 C 0.29601 0.27937 0.80076 0.0
C84 C 0.29985 0.28825 0.84204 0.0
C85 C 0.21246 0.26484 0.74268 0.0
O86 O 0.22122 0.28241 0.7737 0.0
H87 H 0.27543 0.21679 0.85293 0.0
H88 H 0.30083 0.29371 0.7725 0.0
O89 O 0.2914 0.17561 0.77923 0.0
H90 H 0.364 0.25567 0.65028 0.0
H91 H 0.30851 0.31094 0.85171 0.0
Cu92 Cu 0.07705 0.01632 0.51744 0.0
N93 N 0.05139 0.00483 0.47255 0.0
N94 N 0.03756 0.99649 0.40565 0.0
C95 C 0.0588 0.00921 0.43109 0.0
C96 C 0.01593 0.98359 0.43244 0.0
C97 C 0.02459 0.9886 0.47349 0.0
O98 O 0.1236 0.00754 0.49306 0.0
C99 C 0.02721 0.06808 0.54525 0.0
O100 O 0.00987 0.0437 0.53902 0.0
H101 H 0.07961 0.02136 0.41994 0.0
H102 H 0.01256 0.98039 0.50197 0.0
N103 N 0.07271 0.9892 0.56615 0.0
N104 N 0.06788 0.97498 0.63502 0.0
C105 C 0.074 0.99911 0.60645 0.0
C106 C 0.06549 0.9577 0.56913 0.0
C107 C 0.06259 0.94886 0.61137 0.0
C108 C 0.14392 0.98007 0.50072 0.0
O109 O 0.13674 0.96038 0.53223 0.0
H110 H 0.07908 0.02377 0.61443 0.0
H111 H 0.06208 0.94241 0.54247 0.0
O112 O 0.05886 0.06282 0.53582 0.0
H113 H 0.99579 0.97059 0.42322 0.0
H114 H 0.05616 0.92524 0.62347 0.0
Cu115 Cu 0.27665 0.75633 0.75857 0.0
N116 N 0.31508 0.76422 0.72606 0.0
N117 N 0.35076 0.79302 0.68964 0.0
C118 C 0.3218 0.79498 0.71328 0.0
C119 C 0.36256 0.75954 0.68753 0.0
C120 C 0.34061 0.74196 0.70979 0.0
O121 O 0.23813 0.78519 0.73298 0.0
C122 C 0.25654 0.77652 0.84308 0.0
O123 O 0.22606 0.78043 0.82744 0.0
H124 H 0.30569 0.81837 0.72143 0.0
H125 H 0.34301 0.71484 0.71358 0.0
N126 N 0.26735 0.71135 0.76174 0.0
N127 N 0.24403 0.66678 0.78597 0.0
C128 C 0.24998 0.69829 0.79374 0.0
C129 C 0.27285 0.68698 0.73281 0.0
C130 C 0.25847 0.65967 0.7475 0.0
C131 C 0.23107 0.79463 0.69476 0.0
O132 O 0.2036 0.81683 0.6885 0.0
H133 H 0.2408 0.71209 0.8217 0.0
H134 H 0.28582 0.68911 0.70273 0.0
O135 O 0.28196 0.76825 0.81813 0.0
H136 H 0.38521 0.74831 0.67053 0.0
H137 H 0.25862 0.63639 0.73102 0.0
Cu138 Cu 0.53367 0.9685 0.99281 0.0
N139 N 0.56506 0.97613 0.94996 0.0
N140 N 0.5872 0.98163 0.88471 0.0
C141 C 0.56177 0.97165 0.90823 0.0
C142 C 0.60723 0.99277 0.91306 0.0
C143 C 0.59348 0.98951 0.95305 0.0
O144 O 0.4892 0.98044 0.96452 0.0
C145 C 0.5771 0.91811 0.03501 0.0
O146 O 0.5953 0.9423 0.03008 0.0
H147 H 0.54038 0.96241 0.89539 0.0
H148 H 0.60317 0.99708 0.98223 0.0
N149 N 0.53563 0.99725 0.03825 0.0
N150 N 0.53691 0.0138 0.10522 0.0
C151 C 0.53303 0.98846 0.07952 0.0
C152 C 0.54133 0.02932 0.03772 0.0
C153 C 0.54199 0.03965 0.07894 0.0
C154 C 0.46595 0.00466 0.9758 0.0
O155 O 0.46807 0.01841 0.0126 0.0
H156 H 0.5283 0.96387 0.09042 0.0
H157 H 0.54508 0.04401 0.00937 0.0
O158 O 0.54777 0.92255 0.01843 0.0
H159 H 0.63011 1.00289 0.90563 0.0
H160 H 0.54656 0.06408 0.08873 0.0
Cu161 Cu 0.25153 0.29047 0.25978 0.0
N162 N 0.20635 0.28402 0.25051 0.0
N163 N 0.16302 0.26132 0.22548 0.0
C164 C 0.19484 0.26785 0.2181 0.0
C165 C 0.15408 0.27434 0.26383 0.0
C166 C 0.18065 0.28816 0.27906 0.0
O167 O 0.27604 0.28191 0.20568 0.0
C168 C 0.29683 0.25958 0.32418 0.0
O169 O 0.32012 0.2732 0.3033 0.0
H170 H 0.21009 0.25931 0.19064 0.0
H171 H 0.1818 0.29892 0.30985 0.0
N172 N 0.25568 0.33516 0.27483 0.0
N173 N 0.27746 0.37722 0.30441 0.0
C174 C 0.2714 0.34503 0.30876 0.0
C175 C 0.25122 0.36236 0.2486 0.0
C176 C 0.2645 0.38814 0.2666 0.0
C177 C 0.2802 0.25418 0.18605 0.0
O178 O 0.2724 0.22709 0.20547 0.0
H179 H 0.28028 0.32835 0.33491 0.0
H180 H 0.24099 0.36272 0.21727 0.0
O181 O 0.26773 0.26136 0.30815 0.0
H182 H 0.13031 0.27323 0.28034 0.0
H183 H 0.26559 0.41268 0.25217 0.0
Cu184 Cu 0.8233 0.27004 0.76256 0.0
N185 N 0.79921 0.2734 0.71292 0.0
N186 N 0.78938 0.25973 0.64719 0.0
C187 C 0.80558 0.24989 0.6832 0.0
C188 C 0.77161 0.29067 0.65463 0.0
C189 C 0.77799 0.29922 0.6953 0.0
O190 O 0.87086 0.2563 0.74115 0.0
C191 C 0.77782 0.31946 0.80443 0.0
O192 O 0.75729 0.30035 0.78992 0.0
H193 H 0.82299 0.22656 0.68746 0.0
H194 H 0.76939 0.32325 0.70989 0.0
N195 N 0.81037 0.23476 0.79477 0.0
N196 N 0.80825 0.19799 0.84829 0.0
C197 C 0.82031 0.22576 0.83418 0.0
C198 C 0.79097 0.21225 0.78358 0.0
C199 C 0.78951 0.18953 0.81671 0.0
C200 C 0.88485 0.22514 0.74209 0.0
O201 O 0.8711 0.20376 0.76606 0.0
H202 H 0.83603 0.23947 0.85207 0.0
H203 H 0.77902 0.21217 0.75337 0.0
O204 O 0.80957 0.3116 0.79595 0.0
H205 H 0.75702 0.30683 0.63148 0.0
H206 H 0.77602 0.1683 0.81731 0.0
Cu207 Cu 0.77621 0.71073 0.25597 0.0
N208 N 0.80304 0.71236 0.20649 0.0
N209 N 0.81534 0.71481 0.13691 0.0
C210 C 0.79207 0.70951 0.16698 0.0
C211 C 0.84211 0.72119 0.1586 0.0
C212 C 0.83444 0.71974 0.20139 0.0
O213 O 0.72995 0.72963 0.23669 0.0
C214 C 0.81268 0.64592 0.28045 0.0
O215 O 0.83473 0.65341 0.2519 0.0
H216 H 0.76684 0.70501 0.16054 0.0
H217 H 0.85038 0.72437 0.22691 0.0
N218 N 0.78863 0.73738 0.2991 0.0
N219 N 0.79755 0.75219 0.36534 0.0
C220 C 0.78429 0.73084 0.34076 0.0
C221 C 0.80541 0.76377 0.2971 0.0
C222 C 0.81073 0.77308 0.33783 0.0
C223 C 0.72524 0.761 0.22584 0.0
O224 O 0.74973 0.77825 0.23188 0.0
H225 H 0.77175 0.71054 0.35272 0.0
H226 H 0.81377 0.77505 0.26816 0.0
O227 O 0.78388 0.66515 0.28344 0.0
H228 H 0.86554 0.72678 0.14469 0.0
H229 H 0.82416 0.79308 0.34639 0.0
Cu230 Cu 0.78722 0.23622 0.25065 0.0
N231 N 0.77935 0.20938 0.20593 0.0
N232 N 0.78476 0.17958 0.14687 0.0
C233 C 0.80098 0.19421 0.17639 0.0
C234 C 0.75178 0.18569 0.15859 0.0
C235 C 0.74854 0.20414 0.1947 0.0
O236 O 0.8083 0.27492 0.2267 0.0
C237 C 0.73596 0.21403 0.29814 0.0
O238 O 0.75632 0.18599 0.28881 0.0
H239 H 0.82778 0.19499 0.17562 0.0
H240 H 0.72504 0.21447 0.21052 0.0
N241 N 0.8175 0.21205 0.28821 0.0
N242 N 0.83155 0.19491 0.35367 0.0
C243 C 0.8162 0.22027 0.32897 0.0
C244 C 0.83497 0.18039 0.28667 0.0
C245 C 0.84376 0.16969 0.32744 0.0
C246 C 0.83929 0.26689 0.21427 0.0
O247 O 0.8539 0.23548 0.22061 0.0
H248 H 0.80065 0.24286 0.34088 0.0
H249 H 0.83781 0.16499 0.25889 0.0
O250 O 0.74381 0.24224 0.28434 0.0
H251 H 0.73108 0.17956 0.14065 0.0
H252 H 0.85491 0.1444 0.33742 0.0
Cu253 Cu 0.75748 0.7862 0.75704 0.0
N254 N 0.71239 0.77812 0.75048 0.0
N255 N 0.66858 0.75502 0.72782 0.0
C256 C 0.70098 0.75962 0.72034 0.0
C257 C 0.65913 0.77167 0.76382 0.0
C258 C 0.68595 0.78594 0.7775 0.0
O259 O 0.78007 0.77888 0.70156 0.0
C260 C 0.76555 0.7386 0.82764 0.0
O261 O 0.73718 0.72984 0.8157 0.0
H262 H 0.71647 0.74853 0.69427 0.0
H263 H 0.68657 0.79993 0.80612 0.0
N264 N 0.76022 0.8311 0.77186 0.0
N265 N 0.78116 0.8742 0.79997 0.0
C266 C 0.78004 0.84062 0.80195 0.0
C267 C 0.74829 0.85974 0.75033 0.0
C268 C 0.76108 0.88622 0.7675 0.0
C269 C 0.78593 0.75067 0.683 0.0
O270 O 0.78094 0.7232 0.704 0.0
H271 H 0.79489 0.82294 0.82333 0.0
H272 H 0.73262 0.86105 0.72284 0.0
O273 O 0.7795 0.75895 0.80423 0.0
H274 H 0.63466 0.77311 0.77953 0.0
H275 H 0.75646 0.91223 0.75632 0.0
Cu276 Cu 0.50102 0.53257 0.52594 0.0
N277 N 0.45599 0.52669 0.51401 0.0
N278 N 0.41287 0.50565 0.48576 0.0
C279 C 0.44615 0.50823 0.48267 0.0
C280 C 0.40122 0.52357 0.52012 0.0
C281 C 0.42764 0.53659 0.53721 0.0
O282 O 0.52797 0.51982 0.47464 0.0
C283 C 0.50003 0.4916 0.60263 0.0
O284 O 0.47174 0.48373 0.58904 0.0
H285 H 0.46324 0.49587 0.45884 0.0
H286 H 0.42653 0.55126 0.56553 0.0
N287 N 0.50571 0.5778 0.53634 0.0
N288 N 0.5286 0.62093 0.56109 0.0
C289 C 0.52537 0.58797 0.56612 0.0
C290 C 0.49606 0.60538 0.51178 0.0
C291 C 0.51004 0.63189 0.5269 0.0
C292 C 0.5333 0.49046 0.45898 0.0
O293 O 0.52461 0.46502 0.48118 0.0
H294 H 0.53868 0.571 0.58953 0.0
H295 H 0.48121 0.6058 0.48367 0.0
O296 O 0.51728 0.50845 0.57832 0.0
H297 H 0.37547 0.52684 0.53234 0.0
H298 H 0.50733 0.65712 0.51314 0.0
Cu299 Cu 0.03058 0.49555 0.0252 0.0
N300 N 0.07555 0.49811 0.00566 0.0
N301 N 0.11828 0.52022 0.97355 0.0
C302 C 0.08535 0.5163 0.97205 0.0
C303 C 0.12974 0.50333 0.00915 0.0
C304 C 0.10357 0.48993 0.02872 0.0
O305 O 1.00146 0.50947 0.97717 0.0
C306 C 1.00011 0.52266 0.10323 0.0
O307 O 0.97257 0.51201 0.09167 0.0
H308 H 0.06827 0.52844 0.94838 0.0
H309 H 0.10435 0.4771 0.05924 0.0
N310 N 0.0232 0.45162 0.04305 0.0
N311 N 0.99729 0.41005 0.0715 0.0
C312 C 0.99331 0.44195 0.05482 0.0
C313 C 0.04682 0.42477 0.05236 0.0
C314 C 0.03108 0.3993 0.06961 0.0
C315 C 0.99944 0.53773 0.95737 0.0
O316 O 0.01112 0.56257 0.97507 0.0
H317 H 0.96909 0.45816 0.0517 0.0
H318 H 0.07377 0.42415 0.04836 0.0
O319 O 0.02466 0.52213 0.07673 0.0
H320 H 0.15497 0.50184 0.02123 0.0
H321 H 0.04387 0.37514 0.08142 0.0
Cu322 Cu 0.56741 0.50633 0.02616 0.0
N323 N 0.53971 0.49459 0.98361 0.0
N324 N 0.52288 0.48527 0.91828 0.0
C325 C 0.54556 0.49793 0.94159 0.0
C326 C 0.50194 0.47355 0.94716 0.0
C327 C 0.51245 0.47915 0.98717 0.0
O328 O 0.61308 0.49678 -0.00133 0.0
C329 C 0.51833 0.55795 0.05746 0.0
O330 O 0.50096 0.53323 0.05386 0.0
H331 H 0.56675 0.50861 0.92857 0.0
H332 H 0.50124 0.47199 0.01678 0.0
N333 N 0.56507 0.47936 0.07533 0.0
N334 N 0.56216 0.4658 0.14455 0.0
C335 C 0.567 0.48983 0.11524 0.0
C336 C 0.55882 0.44755 0.07929 0.0
C337 C 0.55709 0.4391 0.1218 0.0
C338 C 0.6354 0.47124 0.00844 0.0
O339 O 0.63145 0.45443 0.04384 0.0
H340 H 0.57157 0.51484 0.1224 0.0
H341 H 0.55514 0.43185 0.05315 0.0
O342 O 0.54945 0.55297 0.04516 0.0
H343 H 0.48047 0.46168 0.94016 0.0
H344 H 0.55154 0.41539 0.13474 0.0
Cu345 Cu 0.0102 0.47888 0.53066 0.0
N346 N 0.03471 0.49059 0.48255 0.0
N347 N 0.04228 0.5047 0.41419 0.0
C348 C 0.02258 0.49137 0.44312 0.0
C349 C 0.06829 0.51222 0.4364 0.0
C350 C 0.06346 0.50369 0.47856 0.0
O351 O 0.96351 0.48583 0.50844 0.0
C352 C 0.05922 0.41788 0.54624 0.0
O353 O 0.07646 0.42941 0.5149 0.0
H354 H 0.99926 0.48275 0.436 0.0
H355 H 0.07915 0.50781 0.50457 0.0
N356 N 0.01241 0.50837 0.57532 0.0
N357 N 0.009 0.52792 0.64144 0.0
C358 C 1.00358 0.50281 0.61601 0.0
C359 C 0.02391 0.53798 0.57478 0.0
C360 C 0.0218 0.55009 0.61535 0.0
C361 C 0.94506 0.5151 0.50979 0.0
O362 O 0.95428 0.53789 0.53394 0.0
H363 H 0.99335 0.48065 0.62653 0.0
H364 H 0.03338 0.54985 0.54693 0.0
O365 O 0.02937 0.43348 0.55496 0.0
H366 H 0.08866 0.52428 0.42352 0.0
H367 H 0.02983 0.57314 0.62481 0.0
H368 H 0.09437 0.00745 0.14 0.0
H369 H 0.98592 0.98974 0.35374 0.0
H370 H 0.98956 0.9948 0.14238 0.0
H371 H 0.09088 1.0019 0.35171 0.0
H372 H 0.98759 0.98894 0.27662 0.0
H373 H 0.09449 1.00237 0.21719 0.0
C374 C 0.07146 1.00318 0.15662 0.0
C375 C 0.04189 1.00161 0.13435 0.0
C376 C 0.0103 0.99172 0.29302 0.0
C377 C 0.04176 0.99617 0.22331 0.0
C378 C 0.00941 0.99205 0.33727 0.0
C379 C 0.03827 0.99598 0.35976 0.0
C380 C 0.04026 0.99533 0.27064 0.0
C381 C 0.06781 0.9993 0.33611 0.0
C382 C 0.07152 1.00044 0.20085 0.0
C383 C 0.01299 0.99617 0.15796 0.0
N384 N 0.06801 0.99893 0.29304 0.0
N385 N 0.01362 0.99385 0.20099 0.0
H386 H 0.29753 0.80066 0.43481 0.0
H387 H 0.24483 0.73065 0.66294 0.0
H388 H 0.28297 0.6976 0.45789 0.0
H389 H 0.26067 0.83264 0.63762 0.0
H390 H 0.26506 0.71583 0.59065 0.0
H391 H 0.28935 0.81092 0.51022 0.0
C392 C 0.29296 0.77997 0.45551 0.0
C393 C 0.29093 0.74811 0.43916 0.0
C394 C 0.26491 0.74128 0.60117 0.0
C395 C 0.28107 0.76005 0.52683 0.0
C396 C 0.254 0.74953 0.64282 0.0
C397 C 0.25197 0.78268 0.65683 0.0
C398 C 0.27346 0.7665 0.57304 0.0
C399 C 0.26237 0.80663 0.62842 0.0
C400 C 0.28812 0.78597 0.4989 0.0
C401 C 0.28438 0.7227 0.46839 0.0
N402 N 0.27239 0.79819 0.58806 0.0
N403 N 0.27959 0.72924 0.51048 0.0
H404 H 0.62455 0.01964 0.83615 0.0
H405 H 0.56104 0.96119 0.61623 0.0
H406 H 0.55858 0.94545 0.82772 0.0
H407 H 0.62515 0.03674 0.62713 0.0
H408 H 0.56455 0.95045 0.69269 0.0
H409 H 0.62916 0.02198 0.75939 0.0
C410 C 0.61123 0.00355 0.81839 0.0
C411 C 0.59099 0.98238 0.83898 0.0
C412 C 0.57819 0.96908 0.67826 0.0
C413 C 0.59595 0.98531 0.75008 0.0
C414 C 0.57643 0.97505 0.63447 0.0
C415 C 0.5927 1.00007 0.61505 0.0
C416 C 0.59635 0.98823 0.70292 0.0
C417 C 0.61202 0.01736 0.64058 0.0
C418 C 0.61378 0.00504 0.77428 0.0
C419 C 0.57406 0.96254 0.81358 0.0
N420 N 0.61306 0.01132 0.68307 0.0
N421 N 0.57682 0.9646 0.7706 0.0
H422 H 0.2911 0.31585 0.92188 0.0
H423 H 0.28667 0.20066 0.13232 0.0
H424 H 0.29478 0.20786 0.92076 0.0
H425 H 0.28919 0.30762 0.13311 0.0
H426 H 0.29172 0.20238 0.05511 0.0
H427 H 0.29208 0.31297 -0.00105 0.0
C428 C 0.29233 0.29147 0.9376 0.0
C429 C 0.29275 0.26209 0.91422 0.0
C430 C 0.29144 0.22544 0.07216 0.0
C431 C 0.29356 0.25868 0.00333 0.0
C432 C 0.28868 0.22446 0.11639 0.0
C433 C 0.28745 0.25404 0.13954 0.0
C434 C 0.29282 0.25626 0.05061 0.0
C435 C 0.29005 0.28413 0.11682 0.0
C436 C 0.29276 0.28988 0.98185 0.0
C437 C 0.29389 0.23133 0.93701 0.0
N438 N 0.29238 0.28448 0.07378 0.0
N439 N 0.29418 0.23048 0.98009 0.0
H440 H 0.07038 0.92308 0.69319 0.0
H441 H 0.04744 0.04423 0.89311 0.0
H442 H 0.06104 0.03164 0.68291 0.0
H443 H 0.04175 0.93792 0.9017 0.0
H444 H 0.05851 0.03907 0.81701 0.0
H445 H 0.06513 0.92729 0.76987 0.0
C446 C 0.06715 0.94785 0.70676 0.0
C447 C 0.06599 0.97705 0.68085 0.0
C448 C 0.05508 0.01681 0.83556 0.0
C449 C 0.0604 0.98193 0.76959 0.0
C450 C 0.04893 0.01968 0.87919 0.0
C451 C 0.04355 0.99147 0.90413 0.0
C452 C 0.05601 0.98547 0.81643 0.0
C453 C 0.04568 0.96039 0.88394 0.0
C454 C 0.06431 0.95019 0.75082 0.0
C455 C 0.06238 0.00831 0.70106 0.0
N456 N 0.0516 0.95827 0.84141 0.0
N457 N 0.05966 0.00988 0.744 0.0
H458 H 0.77099 0.20027 0.39257 0.0
H459 H 0.84718 0.22154 0.61859 0.0
H460 H 0.87779 0.18526 0.41529 0.0
H461 H 0.74438 0.26047 0.58475 0.0
H462 H 0.85716 0.1961 0.5493 0.0
H463 H 0.75939 0.2091 0.46803 0.0
C464 C 0.79193 0.1982 0.41392 0.0
C465 C 0.82531 0.19246 0.39821 0.0
C466 C 0.83233 0.20988 0.55719 0.0
C467 C 0.81249 0.20297 0.484 0.0
C468 C 0.82651 0.22422 0.59683 0.0
C469 C 0.79484 0.24312 0.60737 0.0
C470 C 0.80624 0.21439 0.52791 0.0
C471 C 0.76921 0.24639 0.57762 0.0
C472 C 0.78539 0.20338 0.45677 0.0
C473 C 0.85178 0.18968 0.42662 0.0
N474 N 0.7755 0.23225 0.53913 0.0
N475 N 0.84482 0.19545 0.46833 0.0
H476 H 0.55226 0.95931 0.1588 0.0
H477 H 0.49143 0.06483 0.36393 0.0
H478 H 0.51925 0.0671 0.15681 0.0
H479 H 0.55832 0.96913 0.37329 0.0
H480 H 0.49647 0.06283 0.28745 0.0
H481 H 0.55015 0.95937 0.23631 0.0
C482 C 0.54459 0.98299 0.17452 0.0
C483 C 0.53604 0.01331 0.151 0.0
C484 C 0.51012 0.04221 0.30607 0.0
C485 C 0.53327 0.01342 0.23984 0.0
C486 C 0.50713 0.04318 0.34994 0.0
C487 C 0.5244 0.017 0.37534 0.0
C488 C 0.53022 0.01463 0.28682 0.0
C489 C 0.54455 0.98985 0.355 0.0
C490 C 0.54357 0.98299 0.21882 0.0
C491 C 0.52641 0.0432 0.17338 0.0
N492 N 0.54675 0.98923 0.31184 0.0
N493 N 0.52505 0.04244 0.21637 0.0
H494 H 0.84949 0.74693 0.0769 0.0
H495 H 0.74154 0.69615 0.88588 0.0
H496 H 0.77221 0.68424 0.09205 0.0
H497 H 0.8163 0.76163 0.86993 0.0
H498 H 0.75599 0.68785 0.9603 0.0
H499 H 0.84097 0.74921 0.0006 0.0
C500 C 0.83092 0.73338 0.06434 0.0
C501 C 0.81145 0.71547 0.0914 0.0
C502 C 0.76947 0.70382 0.94052 0.0
C503 C 0.80137 0.71823 0.00349 0.0
C504 C 0.76132 0.70849 0.89782 0.0
C505 C 0.77761 0.72973 0.87135 0.0
C506 C 0.79409 0.72058 0.95729 0.0
C507 C 0.80304 0.74499 0.88895 0.0
C508 C 0.82596 0.73484 0.02061 0.0
C509 C 0.78749 0.6988 0.07284 0.0
N510 N 0.8103 0.74031 0.93078 0.0
N511 N 0.78312 0.70066 0.03026 0.0
H512 H 0.54759 0.51749 0.64745 0.0
H513 H 0.4883 0.44639 0.87161 0.0
H514 H 0.47075 0.45429 0.66246 0.0
H515 H 0.55487 0.52047 0.85889 0.0
H516 H 0.4856 0.44521 0.79493 0.0
H517 H 0.55525 0.51422 0.72411 0.0
C518 C 0.53267 0.50249 0.6667 0.0
C519 C 0.5084 0.48618 0.64824 0.0
C520 C 0.50086 0.46169 0.80891 0.0
C521 C 0.51687 0.48263 0.73641 0.0
C522 C 0.5023 0.46257 0.85299 0.0
C523 C 0.52168 0.48378 0.87247 0.0
C524 C 0.519 0.48205 0.78357 0.0
C525 C 0.53972 0.50353 0.84584 0.0
C526 C 0.53691 0.50085 0.71059 0.0
C527 C 0.48969 0.46736 0.67509 0.0
N528 N 0.53787 0.50223 0.80296 0.0
N529 N 0.49422 0.46623 0.71764 0.0
H530 H 0.8617 0.19721 0.8992 0.0
H531 H 0.75885 0.13709 0.09639 0.0
H532 H 0.76582 0.16258 0.89155 0.0
H533 H 0.84049 0.19435 0.10418 0.0
H534 H 0.7723 0.129 0.0213 0.0
H535 H 0.86466 0.17925 0.97345 0.0
C536 C 0.84139 0.18558 0.91306 0.0
C537 C 0.81295 0.18234 0.88955 0.0
C538 C 0.78767 0.14274 0.03972 0.0
C539 C 0.81636 0.16143 0.97425 0.0
C540 C 0.77995 0.14749 0.08252 0.0
C541 C 0.79779 0.16744 0.10634 0.0
C542 C 0.81345 0.15802 0.0207 0.0
C543 C 0.82567 0.17923 0.0871 0.0
C544 C 0.84323 0.1751 0.95532 0.0
C545 C 0.788 0.16592 0.90862 0.0
N546 N 0.83222 0.1749 0.04517 0.0
N547 N 0.78999 0.15661 0.95015 0.0
H548 H 0.0586 0.53173 0.14201 0.0
H549 H 0.98116 0.51336 0.37605 0.0
H550 H 0.95414 0.52394 0.16919 0.0
H551 H 0.08752 0.51186 0.34992 0.0
H552 H 0.97024 0.52246 0.30097 0.0
H553 H 0.06871 0.53079 0.21805 0.0
C554 C 0.03762 0.5304 0.16387 0.0
C555 C 1.00544 0.52779 0.14892 0.0
C556 C 0.996 0.52018 0.31155 0.0
C557 C 0.01705 0.52627 0.23637 0.0
C558 C 1.00235 0.51469 0.35461 0.0
C559 C 0.03547 0.51129 0.36967 0.0
C560 C 0.02289 0.52238 0.28285 0.0
C561 C 0.0616 0.51434 0.34001 0.0
C562 C 0.0435 0.52963 0.20738 0.0
C563 C 0.97938 0.52592 0.17902 0.0
N564 N 0.05478 0.51951 0.29811 0.0
N565 N 0.9858 0.52499 0.22112 0.0
H566 H 0.79257 0.69598 0.63129 0.0
H567 H 0.80277 0.80479 0.41609 0.0
H568 H 0.79376 0.80324 0.62793 0.0
H569 H 0.79429 0.69907 0.42001 0.0
H570 H 0.80343 0.80398 0.49339 0.0
H571 H 0.79747 0.69589 0.55413 0.0
C572 C 0.79423 0.71949 0.61444 0.0
C573 C 0.79268 0.74969 0.63641 0.0
C574 C 0.80146 0.78094 0.47734 0.0
C575 C 0.79801 0.74979 0.5475 0.0
C576 C 0.80123 0.78134 0.43307 0.0
C577 C 0.79829 0.75201 0.41116 0.0
C578 C 0.7989 0.75094 0.5002 0.0
C579 C 0.79603 0.72247 0.43525 0.0
C580 C 0.79688 0.71943 0.57024 0.0
C581 C 0.79484 0.77933 0.61254 0.0
N582 N 0.79638 0.72273 0.47828 0.0
N583 N 0.79725 0.77865 0.56952 0.0
H584 H 0.56756 0.41465 0.20402 0.0
H585 H 0.54439 0.53941 0.40035 0.0
H586 H 0.55424 0.52331 0.19083 0.0
H587 H 0.54378 0.43229 0.41305 0.0
H588 H 0.55387 0.53316 0.32416 0.0
H589 H 0.56382 0.42001 0.28069 0.0
C590 C 0.56378 0.43967 0.21696 0.0
C591 C 0.56108 0.46855 0.19028 0.0
C592 C 0.55189 0.51096 0.34362 0.0
C593 C 0.55724 0.47479 0.27887 0.0
C594 C 0.54665 0.51447 0.38728 0.0
C595 C 0.54318 0.48634 0.41341 0.0
C596 C 0.5538 0.47906 0.32564 0.0
C597 C 0.54625 0.45472 0.39434 0.0
C598 C 0.56182 0.44267 0.26098 0.0
C599 C 0.5568 0.5002 0.2096 0.0
N600 N 0.55123 0.45198 0.35172 0.0
N601 N 0.55496 0.50242 0.2525 0.0
H602 H 0.21336 0.78439 0.11313 0.0
H603 H 0.31496 0.76386 0.89019 0.0
H604 H 0.32218 0.76094 0.10431 0.0
H605 H 0.20677 0.79254 0.90352 0.0
H606 H 0.31904 0.7633 0.96768 0.0
H607 H 0.2113 0.78752 0.0362 0.0
C608 C 0.2369 0.77973 0.09513 0.0
C609 C 0.26799 0.77225 0.11573 0.0
C610 C 0.29445 0.76987 0.95358 0.0
C611 C 0.26581 0.77608 0.02649 0.0
C612 C 0.29209 0.77029 0.90924 0.0
C613 C 0.26045 0.77826 0.88993 0.0
C614 C 0.26494 0.77738 0.979 0.0
C615 C 0.23176 0.78621 0.91659 0.0
C616 C 0.23571 0.78173 0.05094 0.0
C617 C 0.29761 0.76708 0.09014 0.0
N618 N 0.2347 0.78545 0.95941 0.0
N619 N 0.29578 0.76895 0.04703 0.0
H620 H 1.00101 0.59104 0.90132 0.0
H621 H 1.00018 0.47712 0.69783 0.0
H622 H 0.98434 0.48758 0.90732 0.0
H623 H 1.00497 0.58374 0.69017 0.0
H624 H 0.99235 0.48117 0.7742 0.0
H625 H 0.99986 0.58979 0.82411 0.0
C626 C 0.99653 0.56822 0.88653 0.0
C627 C 0.99289 0.53933 0.91113 0.0
C628 C 0.99496 0.50374 0.75578 0.0
C629 C 0.99215 0.53756 0.82233 0.0
C630 C 0.99933 0.50149 0.71188 0.0
C631 C 1.00343 0.5301 0.6869 0.0
C632 C 0.99479 0.53477 0.77532 0.0
C633 C 1.00249 0.56081 0.70773 0.0
C634 C 0.99607 0.56748 0.84233 0.0
C635 C 0.98733 0.51048 0.88989 0.0
N636 N 0.99844 0.56227 0.75055 0.0
N637 N 0.98747 0.51025 0.84687 0.0
H638 H 0.25079 0.23912 0.38098 0.0
H639 H 0.36988 0.23799 0.58122 0.0
H640 H 0.35374 0.25757 0.37153 0.0
H641 H 0.2635 0.2317 0.59095 0.0
H642 H 0.36597 0.24008 0.50431 0.0
H643 H 0.25692 0.23015 0.45729 0.0
C644 C 0.27487 0.24083 0.39476 0.0
C645 C 0.30176 0.24925 0.36953 0.0
C646 C 0.34351 0.23812 0.52331 0.0
C647 C 0.30882 0.23931 0.45746 0.0
C648 C 0.34566 0.2371 0.56744 0.0
C649 C 0.31696 0.23481 0.59322 0.0
C650 C 0.31246 0.23676 0.50439 0.0
C651 C 0.28646 0.23315 0.57289 0.0
C652 C 0.27828 0.23589 0.4385 0.0
C653 C 0.33228 0.25119 0.38953 0.0
N654 N 0.28504 0.23425 0.5299 0.0
N655 N 0.3349 0.24647 0.43219 0.0
H656 H 0.036 0.12179 0.13849 0.0
H657 H 0.16594 0.25449 0.13975 0.0
H658 H 0.06388 0.1749 0.02635 0.0
H659 H 0.11615 0.22291 0.25257 0.0
H660 H 0.13309 0.22143 0.09763 0.0
H661 H 0.06932 0.15438 0.18062 0.0
C662 C 0.04915 0.14019 0.12264 0.0
C663 C 0.04679 0.14558 0.07864 0.0
C664 C 0.12931 0.22179 0.13161 0.0
C665 C 0.08542 0.18305 0.12692 0.0
C666 C 0.14823 0.24057 0.15575 0.0
C667 C 0.14383 0.24182 0.19995 0.0
C668 C 0.10604 0.20351 0.15167 0.0
C669 C 0.12019 0.22325 0.21867 0.0
C670 C 0.06809 0.15895 0.14679 0.0
C671 C 0.06439 0.17006 0.06011 0.0
N672 N 0.10244 0.20486 0.1946 0.0
N673 N 0.08297 0.18764 0.08417 0.0
H674 H 0.19895 0.93127 0.51511 0.0
H675 H 0.23816 0.89696 0.2709 0.0
H676 H 0.15132 0.9967 0.41609 0.0
H677 H 0.30103 0.84636 0.36942 0.0
H678 H 0.20858 0.93575 0.323 0.0
H679 H 0.2385 0.90214 0.46275 0.0
C680 C 0.19716 0.93995 0.48243 0.0
C681 C 0.17166 0.96662 0.47018 0.0
C682 C 0.22917 0.91653 0.33323 0.0
C683 C 0.21675 0.93264 0.40948 0.0
C684 C 0.24622 0.89434 0.30339 0.0
C685 C 0.27221 0.86814 0.31561 0.0
C686 C 0.23761 0.91235 0.37608 0.0
C687 C 0.28131 0.86612 0.35834 0.0
C688 C 0.21979 0.9232 0.45246 0.0
C689 C 0.17064 0.97652 0.42721 0.0
N690 N 0.26374 0.88751 0.38703 0.0
N691 N 0.19247 0.95927 0.39844 0.0
H692 H 0.41697 0.79233 0.66641 0.0
H693 H 0.38833 0.98378 0.57595 0.0
H694 H 0.31992 0.8573 0.66893 0.0
H695 H 0.48625 0.92048 0.5826 0.0
H696 H 0.36278 0.93793 0.6084 0.0
H697 H 0.44217 0.83845 0.63402 0.0
C698 C 0.40079 0.81617 0.66004 0.0
C699 C 0.36604 0.82056 0.67064 0.0
C700 C 0.38987 0.93407 0.60275 0.0
C701 C 0.39521 0.87421 0.63332 0.0
C702 C 0.40467 0.96046 0.58423 0.0
C703 C 0.43985 0.95655 0.57617 0.0
C704 C 0.41013 0.90313 0.61348 0.0
C705 C 0.45914 0.92508 0.58749 0.0
C706 C 0.41536 0.84271 0.64164 0.0
C707 C 0.34679 0.85256 0.66191 0.0
N708 N 0.44411 0.89984 0.6054 0.0
N709 N 0.36155 0.87795 0.64378 0.0
H710 H 0.37406 0.10914 0.75396 0.0
H711 H 0.40757 0.04852 -0.00603 0.0
H712 H 0.3052 0.14405 0.8562 0.0
H713 H 0.46437 1.00009 0.88862 0.0
H714 H 0.36875 0.08184 0.94448 0.0
H715 H 0.40571 0.0677 0.80221 0.0
C716 C 0.36519 0.10775 0.78647 0.0
C717 C 0.33666 0.13021 0.80077 0.0
C718 C 0.38942 0.06366 0.93209 0.0
C719 C 0.37368 0.08283 0.85703 0.0
C720 C 0.41169 0.04448 0.96042 0.0
C721 C 0.43949 0.02123 0.94571 0.0
C722 C 0.39498 0.06017 0.88829 0.0
C723 C 0.4433 0.01741 0.90168 0.0
C724 C 0.38344 0.08403 0.81413 0.0
C725 C 0.32671 0.12713 0.84347 0.0
N726 N 0.42164 0.03688 0.87469 0.0
N727 N 0.34538 0.10428 0.87009 0.0
H728 H 0.86899 0.96845 0.00414 0.0
H729 H 0.81089 0.92773 0.77409 0.0
H730 H 0.9159 1.0028 0.89082 0.0
H731 H 0.79806 0.86393 0.88284 0.0
H732 H 0.8442 0.95988 0.81667 0.0
H733 H 0.83781 0.93466 0.96106 0.0
C734 C 0.87263 0.96907 0.97015 0.0
C735 C 0.89511 0.98876 0.95118 0.0
C736 C 0.83417 0.93881 0.83123 0.0
C737 C 0.85905 0.94998 0.90133 0.0
C738 C 0.81492 0.92053 0.80698 0.0
C739 C 0.80144 0.89302 0.82483 0.0
C740 C 0.83959 0.93015 0.87411 0.0
C741 C 0.80802 0.88475 0.86762 0.0
C742 C 0.85494 0.94953 0.94556 0.0
C743 C 0.89902 0.988 0.90688 0.0
N744 N 0.82626 0.90337 0.89081 0.0
N745 N 0.88098 0.96927 0.88352 0.0
H746 H 0.9517 0.23193 0.72159 0.0
H747 H 0.96102 0.09471 0.53937 0.0
H748 H 0.87012 0.18225 0.68448 0.0
H749 H 0.05172 0.11185 0.59949 0.0
H750 H 0.9281 0.13833 0.58199 0.0
H751 H 0.98912 0.19865 0.66867 0.0
C752 C 0.94146 0.21477 0.70166 0.0
C753 C 0.90752 0.21033 0.70692 0.0
C754 C 0.95523 0.13294 0.58581 0.0
C755 C 0.94991 0.17232 0.64679 0.0
C756 C 0.97417 0.10802 0.56122 0.0
C757 C 0.00927 0.09928 0.5659 0.0
C758 C 0.97113 0.1495 0.61609 0.0
C759 C 0.02475 0.11781 0.59467 0.0
C760 C 0.96284 0.19559 0.67178 0.0
C761 C 0.89583 0.18707 0.68106 0.0
N762 N 1.00553 0.14178 0.61911 0.0
N763 N 0.91677 0.16922 0.65232 0.0
H764 H 0.71149 0.23643 0.37697 0.0
H765 H 0.58747 0.09833 0.38891 0.0
H766 H 0.68904 0.17905 0.27149 0.0
H767 H 0.59549 0.16386 0.4925 0.0
H768 H 0.62362 0.12955 0.34564 0.0
H769 H 0.66735 0.21375 0.41936 0.0
C770 C 0.6964 0.22015 0.36223 0.0
C771 C 0.70352 0.21019 0.32028 0.0
C772 C 0.61745 0.13732 0.37778 0.0
C773 C 0.65396 0.18296 0.36902 0.0
C774 C 0.59689 0.11922 0.40271 0.0
C775 C 0.58838 0.12815 0.44472 0.0
C776 C 0.63022 0.16461 0.39473 0.0
C777 C 0.60111 0.15605 0.46031 0.0
C778 C 0.67153 0.20677 0.38661 0.0
C779 C 0.68405 0.18789 0.30342 0.0
N780 N 0.62154 0.17304 0.43554 0.0
N781 N 0.66057 0.17493 0.32775 0.0
H782 H 0.68827 0.73846 0.16225 0.0
H783 H 0.59484 0.92793 0.11416 0.0
H784 H 0.69367 0.82497 0.23771 0.0
H785 H 0.58812 0.8477 0.02896 0.0
H786 H 0.62388 0.88715 0.16442 0.0
H787 H 0.64566 0.77397 0.11791 0.0
C788 C 0.6798 0.76458 0.17027 0.0
C789 C 0.69447 0.77869 0.204 0.0
C790 C 0.61578 0.87803 0.13513 0.0
C791 C 0.6462 0.81956 0.15311 0.0
C792 C 0.59876 0.90144 0.10649 0.0
C793 C 0.58846 0.8913 0.06753 0.0
C794 C 0.62367 0.84377 0.12476 0.0
C795 C 0.59509 0.85659 0.05894 0.0
C796 C 0.65574 0.78494 0.14468 0.0
C797 C 0.68311 0.81292 0.2122 0.0
N798 N 0.61268 0.83408 0.08709 0.0
N799 N 0.65999 0.83197 0.18705 0.0
H800 H 0.56215 0.67077 0.53154 0.0
H801 H 0.62118 0.71877 0.75847 0.0
H802 H 0.54337 0.61444 0.64492 0.0
H803 H 0.6707 0.74485 0.64278 0.0
H804 H 0.58771 0.68531 0.71803 0.0
H805 H 0.59699 0.7028 0.57195 0.0
C806 C 0.56517 0.66522 0.565 0.0
C807 C 0.54958 0.63981 0.58477 0.0
C808 C 0.60592 0.6983 0.70146 0.0
C809 C 0.58955 0.6768 0.63157 0.0
C810 C 0.62493 0.71764 0.72453 0.0
C811 C 0.64885 0.73486 0.70411 0.0
C812 C 0.6102 0.69651 0.65731 0.0
C813 C 0.65277 0.73194 0.65997 0.0
C814 C 0.5853 0.68342 0.58803 0.0
C815 C 0.55495 0.63358 0.62824 0.0
N816 N 0.63351 0.71347 0.63811 0.0
N817 N 0.57415 0.65209 0.65016 0.0
H818 H 0.69503 0.4289 0.02421 0.0
H819 H 0.71986 0.36314 0.78985 0.0
H820 H 0.63604 0.47777 0.92131 0.0
H821 H 0.79995 0.34157 0.87954 0.0
H822 H 0.68909 0.40506 0.8375 0.0
H823 H 0.73381 0.39698 0.97294 0.0
C824 C 0.69051 0.43339 0.99079 0.0
C825 C 0.66213 0.4563 0.97725 0.0
C826 C 0.71362 0.39165 0.84663 0.0
C827 C 0.70628 0.41891 0.91806 0.0
C828 C 0.73129 0.36769 0.81935 0.0
C829 C 0.76275 0.34894 0.83045 0.0
C830 C 0.72685 0.3965 0.88624 0.0
C831 C 0.77606 0.35574 0.86937 0.0
C832 C 0.71273 0.41507 0.96149 0.0
C833 C 0.65764 0.46073 0.9334 0.0
N834 N 0.75782 0.37852 0.89612 0.0
N835 N 0.67907 0.44189 0.90556 0.0
H836 H 0.90025 0.24967 0.17479 0.0
H837 H 0.93417 0.43521 0.10464 0.0
H838 H 0.82607 0.33778 0.20114 0.0
H839 H 1.00145 0.34194 0.0807 0.0
H840 H 0.89332 0.4025 0.13829 0.0
H841 H 0.93594 0.285 0.13956 0.0
C842 C 0.89124 0.27662 0.17334 0.0
C843 C 0.85976 0.29045 0.19157 0.0
C844 C 0.91701 0.38929 0.12556 0.0
C845 C 0.90174 0.33208 0.15011 0.0
C846 C 0.94038 0.40796 0.10607 0.0
C847 C 0.97175 0.39152 0.08977 0.0
C848 C 0.92488 0.35383 0.12875 0.0
C849 C 0.97815 0.35606 0.09316 0.0
C850 C 0.91193 0.29697 0.15287 0.0
C851 C 0.85001 0.32578 0.18774 0.0
N852 N 0.95517 0.33871 0.1121 0.0
N853 N 0.87094 0.34538 0.16762 0.0
H854 H 0.89145 0.56621 0.51839 0.0
H855 H 0.86165 0.5902 0.27228 0.0
H856 H 0.93722 0.49187 0.42951 0.0
H857 H 0.7925 0.64239 0.36439 0.0
H858 H 0.88863 0.55314 0.32871 0.0
H859 H 0.85401 0.59322 0.46314 0.0
C860 C 0.89323 0.55512 0.48742 0.0
C861 C 0.91773 0.52664 0.47878 0.0
C862 C 0.86717 0.57226 0.33658 0.0
C863 C 0.87524 0.55831 0.41453 0.0
C864 C 0.85165 0.59346 0.3043 0.0
C865 C 0.82454 0.61947 0.31338 0.0
C866 C 0.85614 0.5774 0.37875 0.0
C867 C 0.813 0.62254 0.35567 0.0
C868 C 0.87183 0.57069 0.45577 0.0
C869 C 0.91879 0.51366 0.43784 0.0
N870 N 0.82916 0.60219 0.38674 0.0
N871 N 0.89837 0.52991 0.40713 0.0
H872 H 0.28251 0.37211 0.39031 0.0
H873 H 0.42271 0.49306 0.40172 0.0
H874 H 0.31826 0.42265 0.28061 0.0
H875 H 0.35991 0.47394 0.50919 0.0
H876 H 0.3901 0.46114 0.35767 0.0
H877 H 0.31586 0.40289 0.43514 0.0
C878 C 0.2974 0.38956 0.37561 0.0
C879 C 0.29722 0.39489 0.33151 0.0
C880 C 0.38344 0.46393 0.3909 0.0
C881 C 0.33594 0.43004 0.38273 0.0
C882 C 0.4022 0.48204 0.41615 0.0
C883 C 0.39406 0.48647 0.45933 0.0
C884 C 0.3566 0.44942 0.40892 0.0
C885 C 0.36693 0.47164 0.47605 0.0
C886 C 0.31634 0.40726 0.40124 0.0
C887 C 0.31709 0.41799 0.31438 0.0
N888 N 0.34941 0.4537 0.451 0.0
N889 N 0.33567 0.43444 0.33985 0.0
H890 H 0.54127 0.59845 0.11708 0.0
H891 H 0.35176 0.69592 0.1591 0.0
H892 H 0.45405 0.58845 0.04485 0.0
H893 H 0.4327 0.70839 0.24103 0.0
H894 H 0.39214 0.66202 0.11261 0.0
H895 H 0.50589 0.64338 0.15816 0.0
C896 C 0.51501 0.60631 0.10905 0.0
C897 C 0.50069 0.58973 0.07718 0.0
C898 C 0.40147 0.6722 0.14048 0.0
C899 C 0.45996 0.64066 0.12442 0.0
C900 C 0.37826 0.69175 0.16714 0.0
C901 C 0.38869 0.70503 0.20423 0.0
C902 C 0.43584 0.665 0.1508 0.0
C903 C 0.42352 0.69883 0.21266 0.0
C904 C 0.49472 0.63171 0.13281 0.0
C905 C 0.4663 0.60045 0.06896 0.0
N906 N 0.44582 0.67891 0.18646 0.0
N907 N 0.44734 0.62487 0.0923 0.0
H908 H 0.20679 0.62007 0.76066 0.0
H909 H 0.16798 0.55483 -0.00438 0.0
H910 H 0.238 0.66496 0.87209 0.0
H911 H 0.10977 0.53515 0.88923 0.0
H912 H 0.19805 0.59066 0.94995 0.0
H913 H 0.17553 0.58463 0.80585 0.0
C914 C 0.20726 0.62242 0.79461 0.0
C915 C 0.22525 0.64569 0.8124 0.0
C916 C 0.17873 0.57853 0.93649 0.0
C917 C 0.18938 0.60475 0.86466 0.0
C918 C 0.16163 0.55777 0.96257 0.0
C919 C 0.13626 0.54158 0.94641 0.0
C920 C 0.17101 0.58301 0.89343 0.0
C921 C 0.12896 0.54709 0.90325 0.0
C922 C 0.18917 0.60226 0.82043 0.0
C923 C 0.22441 0.64769 0.85677 0.0
N924 N 0.14636 0.56703 0.8783 0.0
N925 N 0.2071 0.62742 0.88121 0.0
H926 H 0.11311 0.36919 0.52567 0.0
H927 H 0.15777 0.31242 0.7635 0.0
H928 H 0.04663 0.40293 0.63062 0.0
H929 H 0.20405 0.25614 0.65724 0.0
H930 H 0.11717 0.34569 0.71592 0.0
H931 H 0.14666 0.32807 0.57283 0.0
C932 C 0.10524 0.3677 0.55856 0.0
C933 C 0.07673 0.38968 0.57393 0.0
C934 C 0.13585 0.32577 0.70298 0.0
C935 C 0.11591 0.34269 0.62881 0.0
C936 C 0.1591 0.30663 0.73021 0.0
C937 C 0.18442 0.28112 0.71462 0.0
C938 C 0.13812 0.32012 0.65929 0.0
C939 C 0.18483 0.27516 0.67096 0.0
C940 C 0.12452 0.34412 0.58554 0.0
C941 C 0.06809 0.38643 0.61707 0.0
N942 N 0.16245 0.29475 0.64488 0.0
N943 N 0.08778 0.36383 0.64296 0.0
loop_
_geom_bond_atom_site_label_1
_geom_bond_atom_site_label_2
_geom_bond_distance
_geom_bond_site_symmetry_2
_ccdc_geom_bond_type
Cu0 N1 1.999 1_545 S
Cu0 O6 1.974 1_554 S
Cu0 N11 1.985 1_655 S
Cu0 O20 1.959 . S
N1 Cu0 1.999 1_565 S
N1 C3 1.263 1_554 S
N1 C5 1.389 . S
N2 C3 1.358 . S
N2 C4 1.400 1_556 S
C3 N1 1.263 1_556 S
C3 N2 1.358 . S
C3 H9 0.930 . S
C4 N2 1.400 1_554 S
C4 C5 1.351 . S
C4 H21 0.930 . S
C5 N1 1.389 . S
C5 C4 1.351 . S
C5 H10 0.930 1_565 S
O6 Cu0 1.974 1_556 S
O6 C16 1.282 1_655 S
C7 O8 1.261 . S
C7 O20 1.251 1_465 S
O8 C7 1.261 . S
H9 C3 0.930 . S
H10 C5 0.930 1_545 S
N11 Cu0 1.985 1_455 S
N11 C13 1.335 . S
N11 C14 1.377 1_554 S
N12 C13 1.345 . S
N12 C15 1.336 . S
C13 N11 1.335 . S
C13 N12 1.345 . S
C13 H18 0.930 . S
C14 N11 1.377 1_556 S
C14 C15 1.337 1_556 S
C14 H19 0.949 . S
C15 N12 1.336 . S
C15 C14 1.337 1_554 S
C15 H22 0.929 . S
C16 O6 1.282 1_455 S
C16 O17 1.216 1_545 S
O17 C16 1.216 1_565 S
H18 C13 0.930 . S
H19 C14 0.949 . S
O20 Cu0 1.959 . S
O20 C7 1.251 1_645 S
H21 C4 0.930 . S
H22 C15 0.929 . S
Cu23 N24 1.999 . S
Cu23 O29 1.974 . S
Cu23 N34 1.985 . S
Cu23 O43 1.959 . S
N24 Cu23 1.999 . S
N24 C26 1.263 . S
N24 C28 1.389 . S
N25 C26 1.358 . S
N25 C27 1.400 . S
C26 N24 1.263 . S
C26 N25 1.358 . S
C26 H32 0.930 . S
C27 N25 1.400 . S
C27 C28 1.351 . S
C27 H44 0.930 . S
C28 N24 1.389 . S
C28 C27 1.351 . S
C28 H33 0.930 . S
O29 Cu23 1.974 . S
O29 C39 1.282 . S
C30 O31 1.261 . S
C30 O43 1.251 . S
O31 C30 1.261 . S
H32 C26 0.930 . S
H33 C28 0.930 . S
N34 Cu23 1.985 . S
N34 C36 1.335 . S
N34 C37 1.390 . S
N35 C36 1.345 . S
N35 C38 1.336 . S
C36 N34 1.335 . S
C36 N35 1.345 . S
C36 H41 0.930 . S
C37 N34 1.390 . S
C37 C38 1.346 . S
C37 H42 0.930 . S
C38 N35 1.336 . S
C38 C37 1.346 . S
C38 H45 0.929 . S
C39 O29 1.282 . S
C39 O40 1.216 . S
O40 C39 1.216 . S
H41 C36 0.930 . S
H42 C37 0.930 . S
O43 Cu23 1.959 . S
O43 C30 1.251 . S
H44 C27 0.930 . S
H45 C38 0.929 . S
Cu46 N47 1.999 1_565 S
Cu46 O52 1.974 . S
Cu46 N57 1.985 . S
Cu46 O66 1.961 . S
N47 Cu46 1.999 1_545 S
N47 C49 1.263 . S
N47 C51 1.389 . S
N48 C49 1.358 . S
N48 C50 1.400 . S
C49 N47 1.263 . S
C49 N48 1.358 . S
C49 H55 0.930 . S
C50 N48 1.400 . S
C50 C51 1.351 . S
C50 H67 0.930 . S
C51 N47 1.389 . S
C51 C50 1.351 . S
C51 H56 0.930 . S
O52 Cu46 1.974 . S
O52 C62 1.282 1_565 S
C53 O54 1.261 . S
C53 O66 1.238 1_545 S
O54 C53 1.261 . S
H55 C49 0.930 . S
H56 C51 0.930 . S
N57 Cu46 1.985 . S
N57 C59 1.335 . S
N57 C60 1.390 . S
N58 C59 1.345 . S
N58 C61 1.336 . S
C59 N57 1.335 . S
C59 N58 1.345 . S
C59 H64 0.930 . S
C60 N57 1.390 . S
C60 C61 1.346 . S
C60 H65 0.930 . S
C61 N58 1.336 . S
C61 C60 1.346 . S
C61 H68 0.929 . S
C62 O52 1.282 1_545 S
C62 O63 1.216 . S
O63 C62 1.216 . S
H64 C59 0.930 . S
H65 C60 0.930 . S
O66 Cu46 1.961 . S
O66 C53 1.238 1_565 S
H67 C50 0.930 . S
H68 C61 0.929 . S
Cu69 N70 1.999 . S
Cu69 O75 1.974 . S
Cu69 N80 1.985 . S
Cu69 O89 1.959 . S
N70 Cu69 1.999 . S
N70 C72 1.263 . S
N70 C74 1.389 . S
N71 C72 1.358 . S
N71 C73 1.400 . S
C72 N70 1.263 . S
C72 N71 1.358 . S
C72 H78 0.930 . S
C73 N71 1.400 . S
C73 C74 1.351 . S
C73 H90 0.930 . S
C74 N70 1.389 . S
C74 C73 1.351 . S
C74 H79 0.930 . S
O75 Cu69 1.974 . S
O75 C85 1.282 . S
C76 O77 1.261 . S
C76 O89 1.251 . S
O77 C76 1.261 . S
H78 C72 0.930 . S
H79 C74 0.930 . S
N80 Cu69 1.985 . S
N80 C82 1.335 . S
N80 C83 1.390 . S
N81 C82 1.345 . S
N81 C84 1.336 . S
C82 N80 1.335 . S
C82 N81 1.345 . S
C82 H87 0.930 . S
C83 N80 1.390 . S
C83 C84 1.346 . S
C83 H88 0.930 . S
C84 N81 1.336 . S
C84 C83 1.346 . S
C84 H91 0.929 . S
C85 O75 1.282 . S
C85 O86 1.216 . S
O86 C85 1.216 . S
H87 C82 0.930 . S
H88 C83 0.930 . S
O89 Cu69 1.959 . S
O89 C76 1.251 . S
H90 C73 0.930 . S
H91 C84 0.929 . S
Cu92 N93 2.004 . S
Cu92 O98 1.974 1_545 S
Cu92 N103 1.985 1_545 S
Cu92 O112 1.959 1_455 S
N93 Cu92 2.004 . S
N93 C95 1.261 . S
N93 C97 1.386 1_455 S
N94 C95 1.358 1_655 S
N94 C96 1.400 . S
C95 N93 1.261 . S
C95 N94 1.358 1_455 S
C95 H101 0.930 1_545 S
C96 N94 1.400 . S
C96 C97 1.351 . S
C96 H113 0.930 . S
C97 N93 1.386 1_655 S
C97 C96 1.351 . S
C97 H102 0.930 . S
O98 Cu92 1.974 1_565 S
O98 C108 1.282 . S
C99 O100 1.261 . S
C99 O112 1.251 . S
O100 C99 1.261 . S
H101 C95 0.930 1_565 S
H102 C97 0.930 . S
N103 Cu92 1.985 1_565 S
N103 C105 1.335 1_565 S
N103 C106 1.390 . S
N104 C105 1.345 1_565 S
N104 C107 1.336 . S
C105 N103 1.335 1_545 S
C105 N104 1.345 1_545 S
C105 H110 0.930 . S
C106 N103 1.390 . S
C106 C107 1.346 . S
C106 H111 0.930 . S
C107 N104 1.336 . S
C107 C106 1.346 . S
C107 H114 0.929 . S
C108 O98 1.282 . S
C108 O109 1.216 . S
O109 C108 1.216 . S
H110 C105 0.930 . S
H111 C106 0.930 . S
O112 Cu92 1.959 1_655 S
O112 C99 1.251 . S
H113 C96 0.930 . S
H114 C107 0.929 . S
Cu115 N116 1.999 . S
Cu115 O121 1.974 . S
Cu115 N126 1.985 . S
Cu115 O135 1.959 . S
N116 Cu115 1.999 . S
N116 C118 1.263 . S
N116 C120 1.389 . S
N117 C118 1.358 . S
N117 C119 1.400 . S
C118 N116 1.263 . S
C118 N117 1.358 . S
C118 H124 0.930 . S
C119 N117 1.400 . S
C119 C120 1.351 . S
C119 H136 0.930 . S
C120 N116 1.389 . S
C120 C119 1.351 . S
C120 H125 0.930 . S
O121 Cu115 1.974 . S
O121 C131 1.282 . S
C122 O123 1.261 . S
C122 O135 1.251 . S
O123 C122 1.261 . S
H124 C118 0.930 . S
H125 C120 0.930 . S
N126 Cu115 1.985 . S
N126 C128 1.335 . S
N126 C129 1.390 . S
N127 C128 1.345 . S
N127 C130 1.336 . S
C128 N126 1.335 . S
C128 N127 1.345 . S
C128 H133 0.930 . S
C129 N126 1.390 . S
C129 C130 1.346 . S
C129 H134 0.930 . S
C130 N127 1.336 . S
C130 C129 1.346 . S
C130 H137 0.929 . S
C131 O121 1.282 . S
C131 O132 1.216 . S
O132 C131 1.216 . S
H133 C128 0.930 . S
H134 C129 0.930 . S
O135 Cu115 1.959 . S
O135 C122 1.251 . S
H136 C119 0.930 . S
H137 C130 0.929 . S
Cu138 N139 1.999 1_544 S
Cu138 O144 1.974 1_554 S
Cu138 N149 1.985 . S
Cu138 O158 1.959 1_545 S
N139 Cu138 1.999 1_566 S
N139 C141 1.263 1_565 S
N139 C143 1.389 . S
N140 C141 1.358 1_565 S
N140 C142 1.400 . S
C141 N139 1.263 1_545 S
C141 N140 1.358 1_545 S
C141 H147 0.930 . S
C142 N140 1.400 . S
C142 C143 1.351 . S
C142 H159 0.930 . S
C143 N139 1.389 . S
C143 C142 1.351 . S
C143 H148 0.930 . S
O144 Cu138 1.974 1_556 S
O144 C154 1.282 . S
C145 O146 1.256 1_565 S
C145 O158 1.251 . S
O146 C145 1.256 1_545 S
H147 C141 0.930 . S
H148 C143 0.930 . S
N149 Cu138 1.985 . S
N149 C151 1.335 . S
N149 C152 1.390 . S
N150 C151 1.345 . S
N150 C153 1.336 . S
C151 N149 1.335 . S
C151 N150 1.345 . S
C151 H156 0.930 1_545 S
C152 N149 1.390 . S
C152 C153 1.346 . S
C152 H157 0.930 . S
C153 N150 1.336 . S
C153 C152 1.346 . S
C153 H160 0.929 . S
C154 O144 1.282 . S
C154 O155 1.216 . S
O155 C154 1.216 . S
H156 C151 0.930 1_565 S
H157 C152 0.930 . S
O158 Cu138 1.959 1_565 S
O158 C145 1.251 . S
H159 C142 0.930 . S
H160 C153 0.929 . S
Cu161 N162 1.999 . S
Cu161 O167 1.974 . S
Cu161 N172 1.985 . S
Cu161 O181 1.959 . S
N162 Cu161 1.999 . S
N162 C164 1.263 . S
N162 C166 1.389 . S
N163 C164 1.358 . S
N163 C165 1.400 . S
C164 N162 1.263 . S
C164 N163 1.358 . S
C164 H170 0.930 . S
C165 N163 1.400 . S
C165 C166 1.351 . S
C165 H182 0.930 . S
C166 N162 1.389 . S
C166 C165 1.351 . S
C166 H171 0.930 . S
O167 Cu161 1.974 . S
O167 C177 1.282 . S
C168 O169 1.261 . S
C168 O181 1.251 . S
O169 C168 1.261 . S
H170 C164 0.930 . S
H171 C166 0.930 . S
N172 Cu161 1.985 . S
N172 C174 1.335 . S
N172 C175 1.390 . S
N173 C174 1.345 . S
N173 C176 1.336 . S
C174 N172 1.335 . S
C174 N173 1.345 . S
C174 H179 0.930 . S
C175 N172 1.390 . S
C175 C176 1.346 . S
C175 H180 0.930 . S
C176 N173 1.336 . S
C176 C175 1.346 . S
C176 H183 0.929 . S
C177 O167 1.282 . S
C177 O178 1.216 . S
O178 C177 1.216 . S
H179 C174 0.930 . S
H180 C175 0.930 . S
O181 Cu161 1.959 . S
O181 C168 1.251 . S
H182 C165 0.930 . S
H183 C176 0.929 . S
Cu184 N185 1.999 . S
Cu184 O190 1.974 . S
Cu184 N195 1.985 . S
Cu184 O204 1.959 . S
N185 Cu184 1.999 . S
N185 C187 1.263 . S
N185 C189 1.389 . S
N186 C187 1.358 . S
N186 C188 1.400 . S
C187 N185 1.263 . S
C187 N186 1.358 . S
C187 H193 0.930 . S
C188 N186 1.400 . S
C188 C189 1.351 . S
C188 H205 0.930 . S
C189 N185 1.389 . S
C189 C188 1.351 . S
C189 H194 0.930 . S
O190 Cu184 1.974 . S
O190 C200 1.282 . S
C191 O192 1.261 . S
C191 O204 1.251 . S
O192 C191 1.261 . S
H193 C187 0.930 . S
H194 C189 0.930 . S
N195 Cu184 1.985 . S
N195 C197 1.335 . S
N195 C198 1.390 . S
N196 C197 1.345 . S
N196 C199 1.336 . S
C197 N195 1.335 . S
C197 N196 1.345 . S
C197 H202 0.930 . S
C198 N195 1.390 . S
C198 C199 1.346 . S
C198 H203 0.930 . S
C199 N196 1.336 . S
C199 C198 1.346 . S
C199 H206 0.929 . S
C200 O190 1.282 . S
C200 O201 1.216 . S
O201 C200 1.216 . S
H202 C197 0.930 . S
H203 C198 0.930 . S
O204 Cu184 1.959 . S
O204 C191 1.251 . S
H205 C188 0.930 . S
H206 C199 0.929 . S
Cu207 N208 1.999 . S
Cu207 O213 1.974 . S
Cu207 N218 1.985 . S
Cu207 O227 1.959 . S
N208 Cu207 1.999 . S
N208 C210 1.263 . S
N208 C212 1.389 . S
N209 C210 1.358 . S
N209 C211 1.400 . S
C210 N208 1.263 . S
C210 N209 1.358 . S
C210 H216 0.930 . S
C211 N209 1.400 . S
C211 C212 1.351 . S
C211 H228 0.930 . S
C212 N208 1.389 . S
C212 C211 1.351 . S
C212 H217 0.930 . S
O213 Cu207 1.974 . S
O213 C223 1.282 . S
C214 O215 1.261 . S
C214 O227 1.251 . S
O215 C214 1.261 . S
H216 C210 0.930 . S
H217 C212 0.930 . S
N218 Cu207 1.985 . S
N218 C220 1.335 . S
N218 C221 1.390 . S
N219 C220 1.345 . S
N219 C222 1.336 . S
C220 N218 1.335 . S
C220 N219 1.345 . S
C220 H225 0.930 . S
C221 N218 1.390 . S
C221 C222 1.346 . S
C221 H226 0.930 . S
C222 N219 1.336 . S
C222 C221 1.346 . S
C222 H229 0.929 . S
C223 O213 1.282 . S
C223 O224 1.216 . S
O224 C223 1.216 . S
H225 C220 0.930 . S
H226 C221 0.930 . S
O227 Cu207 1.959 . S
O227 C214 1.251 . S
H228 C211 0.930 . S
H229 C222 0.929 . S
Cu230 N231 1.999 . S
Cu230 O236 1.974 . S
Cu230 N241 1.985 . S
Cu230 O250 1.959 . S
N231 Cu230 1.999 . S
N231 C233 1.263 . S
N231 C235 1.389 . S
N232 C233 1.358 . S
N232 C234 1.400 . S
C233 N231 1.263 . S
C233 N232 1.358 . S
C233 H239 0.930 . S
C234 N232 1.400 . S
C234 C235 1.351 . S
C234 H251 0.930 . S
C235 N231 1.389 . S
C235 C234 1.351 . S
C235 H240 0.930 . S
O236 Cu230 1.974 . S
O236 C246 1.282 . S
C237 O238 1.261 . S
C237 O250 1.251 . S
O238 C237 1.261 . S
H239 C233 0.930 . S
H240 C235 0.930 . S
N241 Cu230 1.985 . S
N241 C243 1.335 . S
N241 C244 1.390 . S
N242 C243 1.345 . S
N242 C245 1.336 . S
C243 N241 1.335 . S
C243 N242 1.345 . S
C243 H248 0.930 . S
C244 N241 1.390 . S
C244 C245 1.346 . S
C244 H249 0.930 . S
C245 N242 1.336 . S
C245 C244 1.346 . S
C245 H252 0.929 . S
C246 O236 1.282 . S
C246 O247 1.216 . S
O247 C246 1.216 . S
H248 C243 0.930 . S
H249 C244 0.930 . S
O250 Cu230 1.959 . S
O250 C237 1.251 . S
H251 C234 0.930 . S
H252 C245 0.929 . S
Cu253 N254 1.999 . S
Cu253 O259 1.974 . S
Cu253 N264 1.985 . S
Cu253 O273 1.959 . S
N254 Cu253 1.999 . S
N254 C256 1.263 . S
N254 C258 1.389 . S
N255 C256 1.358 . S
N255 C257 1.400 . S
C256 N254 1.263 . S
C256 N255 1.358 . S
C256 H262 0.930 . S
C257 N255 1.400 . S
C257 C258 1.351 . S
C257 H274 0.930 . S
C258 N254 1.389 . S
C258 C257 1.351 . S
C258 H263 0.930 . S
O259 Cu253 1.974 . S
O259 C269 1.282 . S
C260 O261 1.261 . S
C260 O273 1.251 . S
O261 C260 1.261 . S
H262 C256 0.930 . S
H263 C258 0.930 . S
N264 Cu253 1.985 . S
N264 C266 1.335 . S
N264 C267 1.390 . S
N265 C266 1.345 . S
N265 C268 1.336 . S
C266 N264 1.335 . S
C266 N265 1.345 . S
C266 H271 0.930 . S
C267 N264 1.390 . S
C267 C268 1.346 . S
C267 H272 0.930 . S
C268 N265 1.336 . S
C268 C267 1.346 . S
C268 H275 0.929 . S
C269 O259 1.282 . S
C269 O270 1.216 . S
O270 C269 1.216 . S
H271 C266 0.930 . S
H272 C267 0.930 . S
O273 Cu253 1.959 . S
O273 C260 1.251 . S
H274 C257 0.930 . S
H275 C268 0.929 . S
Cu276 N277 1.999 . S
Cu276 O282 1.974 . S
Cu276 N287 1.985 . S
Cu276 O296 1.959 . S
N277 Cu276 1.999 . S
N277 C279 1.263 . S
N277 C281 1.389 . S
N278 C279 1.358 . S
N278 C280 1.400 . S
C279 N277 1.263 . S
C279 N278 1.358 . S
C279 H285 0.930 . S
C280 N278 1.400 . S
C280 C281 1.351 . S
C280 H297 0.930 . S
C281 N277 1.389 . S
C281 C280 1.351 . S
C281 H286 0.930 . S
O282 Cu276 1.974 . S
O282 C292 1.282 . S
C283 O284 1.261 . S
C283 O296 1.251 . S
O284 C283 1.261 . S
H285 C279 0.930 . S
H286 C281 0.930 . S
N287 Cu276 1.985 . S
N287 C289 1.335 . S
N287 C290 1.390 . S
N288 C289 1.345 . S
N288 C291 1.336 . S
C289 N287 1.335 . S
C289 N288 1.345 . S
C289 H294 0.930 . S
C290 N287 1.390 . S
C290 C291 1.346 . S
C290 H295 0.930 . S
C291 N288 1.336 . S
C291 C290 1.346 . S
C291 H298 0.929 . S
C292 O282 1.282 . S
C292 O293 1.216 . S
O293 C292 1.216 . S
H294 C289 0.930 . S
H295 C290 0.930 . S
O296 Cu276 1.959 . S
O296 C283 1.251 . S
H297 C280 0.930 . S
H298 C291 0.929 . S
Cu299 N300 1.999 . S
Cu299 O305 1.974 1_554 S
Cu299 N310 1.985 . S
Cu299 O319 1.959 . S
N300 Cu299 1.999 . S
N300 C302 1.263 1_554 S
N300 C304 1.389 . S
N301 C302 1.358 . S
N301 C303 1.400 1_556 S
C302 N300 1.263 1_556 S
C302 N301 1.358 . S
C302 H308 0.930 . S
C303 N301 1.400 1_554 S
C303 C304 1.351 . S
C303 H320 0.930 . S
C304 N300 1.389 . S
C304 C303 1.351 . S
C304 H309 0.930 . S
O305 Cu299 1.974 1_556 S
O305 C315 1.282 . S
C306 O307 1.261 . S
C306 O319 1.251 . S
O307 C306 1.261 . S
H308 C302 0.930 . S
H309 C304 0.930 . S
N310 Cu299 1.985 . S
N310 C312 1.335 . S
N310 C313 1.390 1_455 S
N311 C312 1.345 1_655 S
N311 C314 1.336 . S
C312 N310 1.335 . S
C312 N311 1.345 1_455 S
C312 H317 0.930 . S
C313 N310 1.390 1_655 S
C313 C314 1.346 . S
C313 H318 0.930 1_554 S
C314 N311 1.336 . S
C314 C313 1.346 . S
C314 H321 0.929 . S
C315 O305 1.282 . S
C315 O316 1.216 1_455 S
O316 C315 1.216 1_655 S
H317 C312 0.930 . S
H318 C313 0.930 1_556 S
O319 Cu299 1.959 . S
O319 C306 1.251 . S
H320 C303 0.930 . S
H321 C314 0.929 . S
Cu322 N323 1.999 1_554 S
Cu322 O328 1.965 1_554 S
Cu322 N333 1.985 . S
Cu322 O342 1.959 . S
N323 Cu322 1.999 1_556 S
N323 C325 1.263 . S
N323 C327 1.389 . S
N324 C325 1.358 . S
N324 C326 1.400 . S
C325 N323 1.263 . S
C325 N324 1.358 . S
C325 H331 0.930 . S
C326 N324 1.400 . S
C326 C327 1.351 . S
C326 H343 0.930 . S
C327 N323 1.389 . S
C327 C326 1.351 . S
C327 H332 0.930 . S
O328 Cu322 1.965 1_556 S
O328 C338 1.288 . S
C329 O330 1.261 . S
C329 O342 1.251 . S
O330 C329 1.261 . S
H331 C325 0.930 . S
H332 C327 0.930 . S
N333 Cu322 1.985 . S
N333 C335 1.335 . S
N333 C336 1.390 . S
N334 C335 1.345 . S
N334 C337 1.336 . S
C335 N333 1.335 . S
C335 N334 1.345 . S
C335 H340 0.930 . S
C336 N333 1.390 . S
C336 C337 1.346 . S
C336 H341 0.930 . S
C337 N334 1.336 . S
C337 C336 1.346 . S
C337 H344 0.929 . S
C338 O328 1.288 . S
C338 O339 1.216 . S
O339 C338 1.216 . S
H340 C335 0.930 . S
H341 C336 0.930 . S
O342 Cu322 1.959 . S
O342 C329 1.251 . S
H343 C326 0.930 . S
H344 C337 0.929 . S
Cu345 N346 1.999 . S
Cu345 O351 1.974 1_455 S
Cu345 N356 1.985 . S
Cu345 O365 1.959 . S
N346 Cu345 1.999 . S
N346 C348 1.263 . S
N346 C350 1.389 . S
N347 C348 1.358 . S
N347 C349 1.400 . S
C348 N346 1.263 . S
C348 N347 1.358 . S
C348 H354 0.930 . S
C349 N347 1.400 . S
C349 C350 1.351 . S
C349 H366 0.930 . S
C350 N346 1.389 . S
C350 C349 1.351 . S
C350 H355 0.930 . S
O351 Cu345 1.974 1_655 S
O351 C361 1.282 . S
C352 O353 1.261 . S
C352 O365 1.251 . S
O353 C352 1.261 . S
H354 C348 0.930 . S
H355 C350 0.930 . S
N356 Cu345 1.985 . S
N356 C358 1.335 . S
N356 C359 1.396 . S
N357 C358 1.345 . S
N357 C360 1.341 . S
C358 N356 1.335 . S
C358 N357 1.345 . S
C358 H363 0.930 . S
C359 N356 1.396 . S
C359 C360 1.346 . S
C359 H364 0.925 1_455 S
C360 N357 1.341 . S
C360 C359 1.346 . S
C360 H367 0.926 1_455 S
C361 O351 1.282 . S
C361 O362 1.216 1_655 S
O362 C361 1.216 1_455 S
H363 C358 0.930 . S
H364 C359 0.925 1_655 S
O365 Cu345 1.959 . S
O365 C352 1.251 . S
H366 C349 0.930 . S
H367 C360 0.926 1_655 S
H368 C374 0.930 . S
H369 C378 0.930 . S
H370 C383 0.929 . S
H371 C381 0.929 . S
H372 C376 0.929 . S
H373 C382 0.929 . S
C374 H368 0.930 . S
C374 C375 1.367 . S
C374 C382 1.378 . S
C375 C374 1.367 . S
C375 C383 1.433 1_465 S
C376 H372 0.929 . S
C376 C378 1.378 . S
C376 C380 1.350 . S
C377 C380 1.463 . S
C377 C382 1.350 1_645 S
C377 N385 1.427 . S
C378 H369 0.930 . S
C378 C376 1.378 . S
C378 C379 1.367 . S
C379 C378 1.367 . S
C379 C381 1.433 1_655 S
C380 C376 1.350 . S
C380 C377 1.463 . S
C380 N384 1.427 1_655 S
C381 H371 0.929 . S
C381 C379 1.433 1_455 S
C381 N384 1.384 . S
C382 H373 0.929 . S
C382 C374 1.378 . S
C382 C377 1.350 1_465 S
C383 H370 0.929 . S
C383 C375 1.433 1_645 S
C383 N385 1.384 . S
N384 C380 1.427 1_455 S
N384 C381 1.384 . S
N385 C377 1.427 . S
N385 C383 1.384 . S
H386 C392 0.930 . S
H387 C396 0.930 . S
H388 C401 0.929 . S
H389 C399 0.929 . S
H390 C394 0.929 . S
H391 C400 0.929 . S
C392 H386 0.930 . S
C392 C393 1.367 . S
C392 C400 1.378 . S
C393 C392 1.367 . S
C393 C401 1.433 . S
C394 H390 0.929 . S
C394 C396 1.378 . S
C394 C398 1.350 . S
C395 C398 1.463 . S
C395 C400 1.350 . S
C395 N403 1.427 . S
C396 H387 0.930 . S
C396 C394 1.378 . S
C396 C397 1.367 . S
C397 C396 1.367 . S
C397 C399 1.433 . S
C398 C394 1.350 . S
C398 C395 1.463 . S
C398 N402 1.427 . S
C399 H389 0.929 . S
C399 C397 1.433 . S
C399 N402 1.384 . S
C400 H391 0.929 . S
C400 C392 1.378 . S
C400 C395 1.350 . S
C401 H388 0.929 . S
C401 C393 1.433 . S
C401 N403 1.384 . S
N402 C398 1.427 . S
N402 C399 1.384 . S
N403 C395 1.427 . S
N403 C401 1.384 . S
H404 C410 0.930 . S
H405 C414 0.930 . S
H406 C419 0.929 . S
H407 C417 0.929 . S
H408 C412 0.929 . S
H409 C418 0.929 . S
C410 H404 0.930 . S
C410 C411 1.367 1_545 S
C410 C418 1.378 . S
C411 C410 1.367 1_565 S
C411 C419 1.433 . S
C412 H408 0.929 . S
C412 C414 1.378 . S
C412 C416 1.350 1_565 S
C413 C416 1.463 . S
C413 C418 1.350 . S
C413 N421 1.427 1_545 S
C414 H405 0.930 . S
C414 C412 1.378 . S
C414 C415 1.367 1_565 S
C415 C414 1.367 1_545 S
C415 C417 1.433 . S
C416 C412 1.350 1_545 S
C416 C413 1.463 . S
C416 N420 1.427 . S
C417 H407 0.929 . S
C417 C415 1.433 . S
C417 N420 1.384 . S
C418 H409 0.929 . S
C418 C410 1.378 . S
C418 C413 1.350 . S
C419 H406 0.929 . S
C419 C411 1.433 . S
C419 N421 1.384 . S
N420 C416 1.427 . S
N420 C417 1.384 . S
N421 C413 1.427 1_565 S
N421 C419 1.384 . S
H422 C428 0.930 . S
H423 C432 0.930 . S
H424 C437 0.929 . S
H425 C435 0.929 . S
H426 C430 0.929 . S
H427 C436 0.929 . S
C428 H422 0.930 . S
C428 C429 1.367 . S
C428 C436 1.378 1_556 S
C429 C428 1.367 . S
C429 C437 1.433 . S
C430 H426 0.929 . S
C430 C432 1.378 . S
C430 C434 1.350 . S
C431 C434 1.463 . S
C431 C436 1.350 . S
C431 N439 1.427 1_554 S
C432 H423 0.930 . S
C432 C430 1.378 . S
C432 C433 1.367 . S
C433 C432 1.367 . S
C433 C435 1.433 . S
C434 C430 1.350 . S
C434 C431 1.463 . S
C434 N438 1.427 . S
C435 H425 0.929 . S
C435 C433 1.433 . S
C435 N438 1.384 . S
C436 H427 0.929 . S
C436 C428 1.378 1_554 S
C436 C431 1.350 . S
C437 H424 0.929 . S
C437 C429 1.433 . S
C437 N439 1.384 . S
N438 C434 1.427 . S
N438 C435 1.384 . S
N439 C431 1.427 1_556 S
N439 C437 1.384 . S
H440 C446 0.930 . S
H441 C450 0.930 . S
H442 C455 0.929 . S
H443 C453 0.929 . S
H444 C448 0.929 . S
H445 C454 0.929 . S
C446 H440 0.930 . S
C446 C447 1.367 . S
C446 C454 1.378 . S
C447 C446 1.367 . S
C447 C455 1.433 1_465 S
C448 H444 0.929 . S
C448 C450 1.378 . S
C448 C452 1.372 1_655 S
C449 C452 1.459 1_565 S
C449 C454 1.350 . S
C449 N457 1.427 1_465 S
C450 H441 0.930 . S
C450 C448 1.378 . S
C450 C451 1.367 1_655 S
C451 C450 1.367 1_455 S
C451 C453 1.433 1_545 S
C452 C448 1.372 1_455 S
C452 C449 1.459 1_545 S
C452 N456 1.408 1_545 S
C453 H443 0.929 . S
C453 C451 1.433 1_565 S
C453 N456 1.384 . S
C454 H445 0.929 . S
C454 C446 1.378 . S
C454 C449 1.350 . S
C455 H442 0.929 . S
C455 C447 1.433 1_645 S
C455 N457 1.384 . S
N456 C452 1.408 1_565 S
N456 C453 1.384 . S
N457 C449 1.427 1_645 S
N457 C455 1.384 . S
H458 C464 0.930 . S
H459 C468 0.930 . S
H460 C473 0.929 . S
H461 C471 0.929 . S
H462 C466 0.929 . S
H463 C472 0.929 . S
C464 H458 0.930 . S
C464 C465 1.367 . S
C464 C472 1.378 . S
C465 C464 1.367 . S
C465 C473 1.433 . S
C466 H462 0.929 . S
C466 C468 1.378 . S
C466 C470 1.350 . S
C467 C470 1.463 . S
C467 C472 1.350 . S
C467 N475 1.427 . S
C468 H459 0.930 . S
C468 C466 1.378 . S
C468 C469 1.367 . S
C469 C468 1.367 . S
C469 C471 1.433 . S
C470 C466 1.350 . S
C470 C467 1.463 . S
C470 N474 1.427 . S
C471 H461 0.929 . S
C471 C469 1.433 . S
C471 N474 1.384 . S
C472 H463 0.929 . S
C472 C464 1.378 . S
C472 C467 1.350 . S
C473 H460 0.929 . S
C473 C465 1.433 . S
C473 N475 1.384 . S
N474 C470 1.427 . S
N474 C471 1.384 . S
N475 C467 1.427 . S
N475 C473 1.384 . S
H476 C482 0.930 . S
H477 C486 0.930 . S
H478 C491 0.929 . S
H479 C489 0.929 . S
H480 C484 0.929 . S
H481 C490 0.929 . S
C482 H476 0.930 . S
C482 C483 1.367 1_565 S
C482 C490 1.378 . S
C483 C482 1.367 1_545 S
C483 C491 1.433 . S
C484 H480 0.929 . S
C484 C486 1.378 . S
C484 C488 1.350 . S
C485 C488 1.463 . S
C485 C490 1.350 1_545 S
C485 N493 1.427 . S
C486 H477 0.930 . S
C486 C484 1.378 . S
C486 C487 1.367 . S
C487 C486 1.367 . S
C487 C489 1.433 1_545 S
C488 C484 1.350 . S
C488 C485 1.463 . S
C488 N492 1.427 1_545 S
C489 H479 0.929 . S
C489 C487 1.433 1_565 S
C489 N492 1.384 . S
C490 H481 0.929 . S
C490 C482 1.378 . S
C490 C485 1.350 1_565 S
C491 H478 0.929 . S
C491 C483 1.433 . S
C491 N493 1.384 . S
N492 C488 1.427 1_565 S
N492 C489 1.384 . S
N493 C485 1.427 . S
N493 C491 1.384 . S
H494 C500 0.930 . S
H495 C504 0.930 . S
H496 C509 0.929 . S
H497 C507 0.929 . S
H498 C502 0.929 . S
H499 C508 0.929 . S
C500 H494 0.930 . S
C500 C501 1.367 . S
C500 C508 1.378 . S
C501 C500 1.367 . S
C501 C509 1.433 . S
C502 H498 0.929 . S
C502 C504 1.378 . S
C502 C506 1.350 . S
C503 C506 1.463 1_554 S
C503 C508 1.350 . S
C503 N511 1.427 . S
C504 H495 0.930 . S
C504 C502 1.378 . S
C504 C505 1.367 . S
C505 C504 1.367 . S
C505 C507 1.433 . S
C506 C502 1.350 . S
C506 C503 1.463 1_556 S
C506 N510 1.427 . S
C507 H497 0.929 . S
C507 C505 1.433 . S
C507 N510 1.384 . S
C508 H499 0.929 . S
C508 C500 1.378 . S
C508 C503 1.350 . S
C509 H496 0.929 . S
C509 C501 1.433 . S
C509 N511 1.384 . S
N510 C506 1.427 . S
N510 C507 1.384 . S
N511 C503 1.427 . S
N511 C509 1.384 . S
H512 C518 0.930 . S
H513 C522 0.930 . S
H514 C527 0.929 . S
H515 C525 0.929 . S
H516 C520 0.929 . S
H517 C526 0.929 . S
C518 H512 0.930 . S
C518 C519 1.367 . S
C518 C526 1.378 . S
C519 C518 1.367 . S
C519 C527 1.433 . S
C520 H516 0.929 . S
C520 C522 1.378 . S
C520 C524 1.350 . S
C521 C524 1.463 . S
C521 C526 1.350 . S
C521 N529 1.427 . S
C522 H513 0.930 . S
C522 C520 1.378 . S
C522 C523 1.367 . S
C523 C522 1.367 . S
C523 C525 1.433 . S
C524 C520 1.350 . S
C524 C521 1.463 . S
C524 N528 1.427 . S
C525 H515 0.929 . S
C525 C523 1.433 . S
C525 N528 1.384 . S
C526 H517 0.929 . S
C526 C518 1.378 . S
C526 C521 1.350 . S
C527 H514 0.929 . S
C527 C519 1.433 . S
C527 N529 1.384 . S
N528 C524 1.427 . S
N528 C525 1.384 . S
N529 C521 1.427 . S
N529 C527 1.384 . S
H530 C536 0.930 . S
H531 C540 0.930 . S
H532 C545 0.929 . S
H533 C543 0.929 . S
H534 C538 0.929 . S
H535 C544 0.929 . S
C536 H530 0.930 . S
C536 C537 1.367 . S
C536 C544 1.378 . S
C537 C536 1.367 . S
C537 C545 1.433 . S
C538 H534 0.929 . S
C538 C540 1.378 . S
C538 C542 1.350 . S
C539 C542 1.470 . S
C539 C544 1.346 1_554 S
C539 N547 1.424 1_554 S
C540 H531 0.930 . S
C540 C538 1.378 . S
C540 C541 1.367 . S
C541 C540 1.367 . S
C541 C543 1.433 . S
C542 C538 1.350 . S
C542 C539 1.470 . S
C542 N546 1.427 . S
C543 H533 0.929 . S
C543 C541 1.433 . S
C543 N546 1.384 . S
C544 H535 0.929 . S
C544 C536 1.378 . S
C544 C539 1.346 1_556 S
C545 H532 0.929 . S
C545 C537 1.433 . S
C545 N547 1.384 . S
N546 C542 1.427 . S
N546 C543 1.384 . S
N547 C539 1.424 1_556 S
N547 C545 1.384 . S
H548 C554 0.930 . S
H549 C558 0.930 1_655 S
H550 C563 0.929 1_655 S
H551 C561 0.929 . S
H552 C556 0.929 1_655 S
H553 C562 0.929 . S
C554 H548 0.930 . S
C554 C555 1.367 . S
C554 C562 1.378 . S
C555 C554 1.367 . S
C555 C563 1.433 . S
C556 H552 0.929 1_455 S
C556 C558 1.378 . S
C556 C560 1.350 . S
C557 C560 1.463 . S
C557 C562 1.350 . S
C557 N565 1.427 . S
C558 H549 0.930 1_455 S
C558 C556 1.378 . S
C558 C559 1.367 . S
C559 C558 1.367 . S
C559 C561 1.433 . S
C560 C556 1.350 . S
C560 C557 1.463 . S
C560 N564 1.427 . S
C561 H551 0.929 . S
C561 C559 1.433 . S
C561 N564 1.384 . S
C562 H553 0.929 . S
C562 C554 1.378 . S
C562 C557 1.350 . S
C563 H550 0.929 1_455 S
C563 C555 1.433 . S
C563 N565 1.384 . S
N564 C560 1.427 . S
N564 C561 1.384 . S
N565 C557 1.427 . S
N565 C563 1.384 . S
H566 C572 0.930 . S
H567 C576 0.930 . S
H568 C581 0.929 . S
H569 C579 0.929 . S
H570 C574 0.929 . S
H571 C580 0.929 . S
C572 H566 0.930 . S
C572 C573 1.367 . S
C572 C580 1.378 . S
C573 C572 1.367 . S
C573 C581 1.433 . S
C574 H570 0.929 . S
C574 C576 1.378 . S
C574 C578 1.350 . S
C575 C578 1.463 . S
C575 C580 1.350 . S
C575 N583 1.427 . S
C576 H567 0.930 . S
C576 C574 1.378 . S
C576 C577 1.367 . S
C577 C576 1.367 . S
C577 C579 1.433 . S
C578 C574 1.350 . S
C578 C575 1.463 . S
C578 N582 1.427 . S
C579 H569 0.929 . S
C579 C577 1.433 . S
C579 N582 1.384 . S
C580 H571 0.929 . S
C580 C572 1.378 . S
C580 C575 1.350 . S
C581 H568 0.929 . S
C581 C573 1.433 . S
C581 N583 1.384 . S
N582 C578 1.427 . S
N582 C579 1.384 . S
N583 C575 1.427 . S
N583 C581 1.384 . S
H584 C590 0.930 . S
H585 C594 0.930 . S
H586 C599 0.929 . S
H587 C597 0.929 . S
H588 C592 0.929 . S
H589 C598 0.929 . S
C590 H584 0.930 . S
C590 C591 1.367 . S
C590 C598 1.378 . S
C591 C590 1.367 . S
C591 C599 1.433 . S
C592 H588 0.929 . S
C592 C594 1.378 . S
C592 C596 1.350 . S
C593 C596 1.463 . S
C593 C598 1.350 . S
C593 N601 1.427 . S
C594 H585 0.930 . S
C594 C592 1.378 . S
C594 C595 1.367 . S
C595 C594 1.367 . S
C595 C597 1.433 . S
C596 C592 1.350 . S
C596 C593 1.463 . S
C596 N600 1.427 . S
C597 H587 0.929 . S
C597 C595 1.433 . S
C597 N600 1.384 . S
C598 H589 0.929 . S
C598 C590 1.378 . S
C598 C593 1.350 . S
C599 H586 0.929 . S
C599 C591 1.433 . S
C599 N601 1.384 . S
N600 C596 1.427 . S
N600 C597 1.384 . S
N601 C593 1.427 . S
N601 C599 1.384 . S
H602 C608 0.930 . S
H603 C612 0.930 . S
H604 C617 0.929 . S
H605 C615 0.929 . S
H606 C610 0.929 . S
H607 C616 0.929 . S
C608 H602 0.930 . S
C608 C609 1.367 . S
C608 C616 1.378 . S
C609 C608 1.367 . S
C609 C617 1.433 . S
C610 H606 0.929 . S
C610 C612 1.378 . S
C610 C614 1.350 . S
C611 C614 1.463 1_554 S
C611 C616 1.350 . S
C611 N619 1.427 . S
C612 H603 0.930 . S
C612 C610 1.378 . S
C612 C613 1.367 . S
C613 C612 1.367 . S
C613 C615 1.433 . S
C614 C610 1.350 . S
C614 C611 1.463 1_556 S
C614 N618 1.427 . S
C615 H605 0.929 . S
C615 C613 1.433 . S
C615 N618 1.384 . S
C616 H607 0.929 . S
C616 C608 1.378 . S
C616 C611 1.350 . S
C617 H604 0.929 . S
C617 C609 1.433 . S
C617 N619 1.384 . S
N618 C614 1.427 . S
N618 C615 1.384 . S
N619 C611 1.427 . S
N619 C617 1.384 . S
H620 C626 0.930 . S
H621 C630 0.930 1_655 S
H622 C635 0.940 . S
H623 C633 0.929 . S
H624 C628 0.929 1_655 S
H625 C634 0.929 . S
C626 H620 0.930 . S
C626 C627 1.367 . S
C626 C634 1.378 . S
C627 C626 1.367 . S
C627 C635 1.433 . S
C628 H624 0.929 1_455 S
C628 C630 1.378 . S
C628 C632 1.350 . S
C629 C632 1.463 . S
C629 C634 1.350 . S
C629 N637 1.427 . S
C630 H621 0.930 1_455 S
C630 C628 1.378 . S
C630 C631 1.367 . S
C631 C630 1.367 . S
C631 C633 1.433 . S
C632 C628 1.350 . S
C632 C629 1.463 . S
C632 N636 1.427 . S
C633 H623 0.929 . S
C633 C631 1.433 . S
C633 N636 1.384 . S
C634 H625 0.929 . S
C634 C626 1.378 . S
C634 C629 1.350 . S
C635 H622 0.940 . S
C635 C627 1.433 . S
C635 N637 1.384 . S
N636 C632 1.427 . S
N636 C633 1.384 . S
N637 C629 1.427 . S
N637 C635 1.384 . S
H638 C644 0.930 . S
H639 C648 0.930 . S
H640 C653 0.929 . S
H641 C651 0.929 . S
H642 C646 0.929 . S
H643 C652 0.929 . S
C644 H638 0.930 . S
C644 C645 1.367 . S
C644 C652 1.378 . S
C645 C644 1.367 . S
C645 C653 1.433 . S
C646 H642 0.929 . S
C646 C648 1.378 . S
C646 C650 1.350 . S
C647 C650 1.463 . S
C647 C652 1.350 . S
C647 N655 1.427 . S
C648 H639 0.930 . S
C648 C646 1.378 . S
C648 C649 1.367 . S
C649 C648 1.367 . S
C649 C651 1.433 . S
C650 C646 1.350 . S
C650 C647 1.463 . S
C650 N654 1.427 . S
C651 H641 0.929 . S
C651 C649 1.433 . S
C651 N654 1.384 . S
C652 H643 0.929 . S
C652 C644 1.378 . S
C652 C647 1.350 . S
C653 H640 0.929 . S
C653 C645 1.433 . S
C653 N655 1.384 . S
N654 C650 1.427 . S
N654 C651 1.384 . S
N655 C647 1.427 . S
N655 C653 1.384 . S
H656 C662 0.930 . S
H657 C666 0.930 . S
H658 C671 0.929 . S
H659 C669 0.929 . S
H660 C664 0.929 . S
H661 C670 0.929 . S
C662 H656 0.930 . S
C662 C663 1.367 . S
C662 C670 1.378 . S
C663 C662 1.367 . S
C663 C671 1.433 . S
C664 H660 0.929 . S
C664 C666 1.378 . S
C664 C668 1.350 . S
C665 C668 1.463 . S
C665 C670 1.350 . S
C665 N673 1.427 . S
C666 H657 0.930 . S
C666 C664 1.378 . S
C666 C667 1.367 . S
C667 C666 1.367 . S
C667 C669 1.433 . S
C668 C664 1.350 . S
C668 C665 1.463 . S
C668 N672 1.427 . S
C669 H659 0.929 . S
C669 C667 1.433 . S
C669 N672 1.384 . S
C670 H661 0.929 . S
C670 C662 1.378 . S
C670 C665 1.350 . S
C671 H658 0.929 . S
C671 C663 1.433 . S
C671 N673 1.384 . S
N672 C668 1.427 . S
N672 C669 1.384 . S
N673 C665 1.427 . S
N673 C671 1.384 . S
H674 C680 0.930 . S
H675 C684 0.930 . S
H676 C689 0.929 . S
H677 C687 0.929 . S
H678 C682 0.929 . S
H679 C688 0.929 . S
C680 H674 0.930 . S
C680 C681 1.367 . S
C680 C688 1.378 . S
C681 C680 1.367 . S
C681 C689 1.433 . S
C682 H678 0.929 . S
C682 C684 1.378 . S
C682 C686 1.350 . S
C683 C686 1.463 . S
C683 C688 1.350 . S
C683 N691 1.427 . S
C684 H675 0.930 . S
C684 C682 1.378 . S
C684 C685 1.367 . S
C685 C684 1.367 . S
C685 C687 1.433 . S
C686 C682 1.350 . S
C686 C683 1.463 . S
C686 N690 1.427 . S
C687 H677 0.929 . S
C687 C685 1.433 . S
C687 N690 1.384 . S
C688 H679 0.929 . S
C688 C680 1.378 . S
C688 C683 1.350 . S
C689 H676 0.929 . S
C689 C681 1.433 . S
C689 N691 1.384 . S
N690 C686 1.427 . S
N690 C687 1.384 . S
N691 C683 1.427 . S
N691 C689 1.384 . S
H692 C698 0.930 . S
H693 C702 0.930 . S
H694 C707 0.929 . S
H695 C705 0.929 . S
H696 C700 0.929 . S
H697 C706 0.929 . S
C698 H692 0.930 . S
C698 C699 1.367 . S
C698 C706 1.378 . S
C699 C698 1.367 . S
C699 C707 1.433 . S
C700 H696 0.929 . S
C700 C702 1.378 . S
C700 C704 1.350 . S
C701 C704 1.463 . S
C701 C706 1.350 . S
C701 N709 1.427 . S
C702 H693 0.930 . S
C702 C700 1.378 . S
C702 C703 1.367 . S
C703 C702 1.367 . S
C703 C705 1.433 . S
C704 C700 1.350 . S
C704 C701 1.463 . S
C704 N708 1.427 . S
C705 H695 0.929 . S
C705 C703 1.433 . S
C705 N708 1.384 . S
C706 H697 0.929 . S
C706 C698 1.378 . S
C706 C701 1.350 . S
C707 H694 0.929 . S
C707 C699 1.433 . S
C707 N709 1.384 . S
N708 C704 1.427 . S
N708 C705 1.384 . S
N709 C701 1.427 . S
N709 C707 1.384 . S
H710 C716 0.930 . S
H711 C720 0.914 1_554 S
H712 C725 0.929 . S
H713 C723 0.929 . S
H714 C718 0.929 . S
H715 C724 0.929 . S
C716 H710 0.930 . S
C716 C717 1.367 . S
C716 C724 1.378 . S
C717 C716 1.367 . S
C717 C725 1.433 . S
C718 H714 0.929 . S
C718 C720 1.378 . S
C718 C722 1.350 . S
C719 C722 1.463 . S
C719 C724 1.350 . S
C719 N727 1.427 . S
C720 H711 0.914 1_556 S
C720 C718 1.378 . S
C720 C721 1.367 . S
C721 C720 1.367 . S
C721 C723 1.433 . S
C722 C718 1.350 . S
C722 C719 1.463 . S
C722 N726 1.427 . S
C723 H713 0.929 . S
C723 C721 1.433 . S
C723 N726 1.384 . S
C724 H715 0.929 . S
C724 C716 1.378 . S
C724 C719 1.350 . S
C725 H712 0.929 . S
C725 C717 1.433 . S
C725 N727 1.384 . S
N726 C722 1.427 . S
N726 C723 1.384 . S
N727 C719 1.427 . S
N727 C725 1.384 . S
H728 C734 0.930 1_554 S
H729 C738 0.930 . S
H730 C743 0.929 . S
H731 C741 0.929 . S
H732 C736 0.929 . S
H733 C742 0.929 . S
C734 H728 0.930 1_556 S
C734 C735 1.367 . S
C734 C742 1.378 . S
C735 C734 1.367 . S
C735 C743 1.433 . S
C736 H732 0.929 . S
C736 C738 1.378 . S
C736 C740 1.350 . S
C737 C740 1.463 . S
C737 C742 1.350 . S
C737 N745 1.427 . S
C738 H729 0.930 . S
C738 C736 1.378 . S
C738 C739 1.367 . S
C739 C738 1.367 . S
C739 C741 1.433 . S
C740 C736 1.350 . S
C740 C737 1.463 . S
C740 N744 1.427 . S
C741 H731 0.929 . S
C741 C739 1.433 . S
C741 N744 1.384 . S
C742 H733 0.929 . S
C742 C734 1.378 . S
C742 C737 1.350 . S
C743 H730 0.929 . S
C743 C735 1.433 . S
C743 N745 1.384 . S
N744 C740 1.427 . S
N744 C741 1.384 . S
N745 C737 1.427 . S
N745 C743 1.384 . S
H746 C752 0.930 . S
H747 C756 0.930 . S
H748 C761 0.929 . S
H749 C759 0.929 . S
H750 C754 0.929 . S
H751 C760 0.929 . S
C752 H746 0.930 . S
C752 C753 1.367 . S
C752 C760 1.378 . S
C753 C752 1.367 . S
C753 C761 1.433 . S
C754 H750 0.929 . S
C754 C756 1.378 . S
C754 C758 1.350 . S
C755 C758 1.463 . S
C755 C760 1.350 . S
C755 N763 1.427 . S
C756 H747 0.930 . S
C756 C754 1.378 . S
C756 C757 1.367 . S
C757 C756 1.367 . S
C757 C759 1.433 . S
C758 C754 1.350 . S
C758 C755 1.463 . S
C758 N762 1.427 . S
C759 H749 0.929 . S
C759 C757 1.433 . S
C759 N762 1.384 . S
C760 H751 0.929 . S
C760 C752 1.378 . S
C760 C755 1.350 . S
C761 H748 0.929 . S
C761 C753 1.433 . S
C761 N763 1.384 . S
N762 C758 1.427 . S
N762 C759 1.384 . S
N763 C755 1.427 . S
N763 C761 1.384 . S
H764 C770 0.930 . S
H765 C774 0.930 . S
H766 C779 0.929 . S
H767 C777 0.929 . S
H768 C772 0.929 . S
H769 C778 0.929 . S
C770 H764 0.930 . S
C770 C771 1.367 . S
C770 C778 1.378 . S
C771 C770 1.367 . S
C771 C779 1.433 . S
C772 H768 0.929 . S
C772 C774 1.378 . S
C772 C776 1.350 . S
C773 C776 1.463 . S
C773 C778 1.350 . S
C773 N781 1.427 . S
C774 H765 0.930 . S
C774 C772 1.378 . S
C774 C775 1.367 . S
C775 C774 1.367 . S
C775 C777 1.433 . S
C776 C772 1.350 . S
C776 C773 1.463 . S
C776 N780 1.427 . S
C777 H767 0.929 . S
C777 C775 1.433 . S
C777 N780 1.384 . S
C778 H769 0.929 . S
C778 C770 1.378 . S
C778 C773 1.350 . S
C779 H766 0.929 . S
C779 C771 1.433 . S
C779 N781 1.384 . S
N780 C776 1.427 . S
N780 C777 1.384 . S
N781 C773 1.427 . S
N781 C779 1.384 . S
H782 C788 0.930 . S
H783 C792 0.930 . S
H784 C797 0.929 . S
H785 C795 0.929 . S
H786 C790 0.929 . S
H787 C796 0.929 . S
C788 H782 0.930 . S
C788 C789 1.367 . S
C788 C796 1.378 . S
C789 C788 1.367 . S
C789 C797 1.433 . S
C790 H786 0.929 . S
C790 C792 1.378 . S
C790 C794 1.350 . S
C791 C794 1.463 . S
C791 C796 1.350 . S
C791 N799 1.427 . S
C792 H783 0.930 . S
C792 C790 1.378 . S
C792 C793 1.367 . S
C793 C792 1.367 . S
C793 C795 1.433 . S
C794 C790 1.350 . S
C794 C791 1.463 . S
C794 N798 1.427 . S
C795 H785 0.929 . S
C795 C793 1.433 . S
C795 N798 1.384 . S
C796 H787 0.929 . S
C796 C788 1.378 . S
C796 C791 1.350 . S
C797 H784 0.929 . S
C797 C789 1.433 . S
C797 N799 1.384 . S
N798 C794 1.427 . S
N798 C795 1.384 . S
N799 C791 1.427 . S
N799 C797 1.384 . S
H800 C806 0.930 . S
H801 C810 0.930 . S
H802 C815 0.929 . S
H803 C813 0.929 . S
H804 C808 0.929 . S
H805 C814 0.929 . S
C806 H800 0.930 . S
C806 C807 1.367 . S
C806 C814 1.378 . S
C807 C806 1.367 . S
C807 C815 1.433 . S
C808 H804 0.929 . S
C808 C810 1.378 . S
C808 C812 1.350 . S
C809 C812 1.463 . S
C809 C814 1.350 . S
C809 N817 1.427 . S
C810 H801 0.930 . S
C810 C808 1.378 . S
C810 C811 1.367 . S
C811 C810 1.367 . S
C811 C813 1.433 . S
C812 C808 1.350 . S
C812 C809 1.463 . S
C812 N816 1.427 . S
C813 H803 0.929 . S
C813 C811 1.433 . S
C813 N816 1.384 . S
C814 H805 0.929 . S
C814 C806 1.378 . S
C814 C809 1.350 . S
C815 H802 0.929 . S
C815 C807 1.433 . S
C815 N817 1.384 . S
N816 C812 1.427 . S
N816 C813 1.384 . S
N817 C809 1.427 . S
N817 C815 1.384 . S
H818 C824 0.930 . S
H819 C828 0.930 . S
H820 C833 0.929 . S
H821 C831 0.929 . S
H822 C826 0.929 . S
H823 C832 0.929 . S
C824 H818 0.930 . S
C824 C825 1.367 . S
C824 C832 1.378 . S
C825 C824 1.367 . S
C825 C833 1.433 . S
C826 H822 0.929 . S
C826 C828 1.378 . S
C826 C830 1.350 . S
C827 C830 1.463 . S
C827 C832 1.350 . S
C827 N835 1.427 . S
C828 H819 0.930 . S
C828 C826 1.378 . S
C828 C829 1.367 . S
C829 C828 1.367 . S
C829 C831 1.433 . S
C830 C826 1.350 . S
C830 C827 1.463 . S
C830 N834 1.427 . S
C831 H821 0.929 . S
C831 C829 1.433 . S
C831 N834 1.384 . S
C832 H823 0.929 . S
C832 C824 1.378 . S
C832 C827 1.350 . S
C833 H820 0.929 . S
C833 C825 1.433 . S
C833 N835 1.384 . S
N834 C830 1.427 . S
N834 C831 1.384 . S
N835 C827 1.427 . S
N835 C833 1.384 . S
H836 C842 0.930 . S
H837 C846 0.930 . S
H838 C851 0.929 . S
H839 C849 0.929 . S
H840 C844 0.929 . S
H841 C850 0.929 . S
C842 H836 0.930 . S
C842 C843 1.367 . S
C842 C850 1.378 . S
C843 C842 1.367 . S
C843 C851 1.433 . S
C844 H840 0.929 . S
C844 C846 1.378 . S
C844 C848 1.350 . S
C845 C848 1.463 . S
C845 C850 1.350 . S
C845 N853 1.427 . S
C846 H837 0.930 . S
C846 C844 1.378 . S
C846 C847 1.367 . S
C847 C846 1.367 . S
C847 C849 1.433 . S
C848 C844 1.350 . S
C848 C845 1.463 . S
C848 N852 1.427 . S
C849 H839 0.929 . S
C849 C847 1.433 . S
C849 N852 1.384 . S
C850 H841 0.929 . S
C850 C842 1.378 . S
C850 C845 1.350 . S
C851 H838 0.929 . S
C851 C843 1.433 . S
C851 N853 1.384 . S
N852 C848 1.427 . S
N852 C849 1.384 . S
N853 C845 1.427 . S
N853 C851 1.384 . S
H854 C860 0.930 . S
H855 C864 0.930 . S
H856 C869 0.929 . S
H857 C867 0.929 . S
H858 C862 0.929 . S
H859 C868 0.929 . S
C860 H854 0.930 . S
C860 C861 1.367 . S
C860 C868 1.378 . S
C861 C860 1.367 . S
C861 C869 1.433 . S
C862 H858 0.929 . S
C862 C864 1.378 . S
C862 C866 1.350 . S
C863 C866 1.463 . S
C863 C868 1.350 . S
C863 N871 1.427 . S
C864 H855 0.930 . S
C864 C862 1.378 . S
C864 C865 1.367 . S
C865 C864 1.367 . S
C865 C867 1.433 . S
C866 C862 1.350 . S
C866 C863 1.463 . S
C866 N870 1.427 . S
C867 H857 0.929 . S
C867 C865 1.433 . S
C867 N870 1.384 . S
C868 H859 0.929 . S
C868 C860 1.378 . S
C868 C863 1.350 . S
C869 H856 0.929 . S
C869 C861 1.433 . S
C869 N871 1.384 . S
N870 C866 1.427 . S
N870 C867 1.384 . S
N871 C863 1.427 . S
N871 C869 1.384 . S
H872 C878 0.930 . S
H873 C882 0.930 . S
H874 C887 0.929 . S
H875 C885 0.929 . S
H876 C880 0.929 . S
H877 C886 0.929 . S
C878 H872 0.930 . S
C878 C879 1.367 . S
C878 C886 1.378 . S
C879 C878 1.367 . S
C879 C887 1.433 . S
C880 H876 0.929 . S
C880 C882 1.378 . S
C880 C884 1.350 . S
C881 C884 1.463 . S
C881 C886 1.350 . S
C881 N889 1.427 . S
C882 H873 0.930 . S
C882 C880 1.378 . S
C882 C883 1.367 . S
C883 C882 1.367 . S
C883 C885 1.433 . S
C884 C880 1.350 . S
C884 C881 1.463 . S
C884 N888 1.427 . S
C885 H875 0.929 . S
C885 C883 1.433 . S
C885 N888 1.384 . S
C886 H877 0.929 . S
C886 C878 1.378 . S
C886 C881 1.350 . S
C887 H874 0.929 . S
C887 C879 1.433 . S
C887 N889 1.384 . S
N888 C884 1.427 . S
N888 C885 1.384 . S
N889 C881 1.427 . S
N889 C887 1.384 . S
H890 C896 0.930 . S
H891 C900 0.930 . S
H892 C905 0.929 . S
H893 C903 0.929 . S
H894 C898 0.929 . S
H895 C904 0.929 . S
C896 H890 0.930 . S
C896 C897 1.367 . S
C896 C904 1.378 . S
C897 C896 1.367 . S
C897 C905 1.433 . S
C898 H894 0.929 . S
C898 C900 1.378 . S
C898 C902 1.350 . S
C899 C902 1.463 . S
C899 C904 1.350 . S
C899 N907 1.427 . S
C900 H891 0.930 . S
C900 C898 1.378 . S
C900 C901 1.367 . S
C901 C900 1.367 . S
C901 C903 1.433 . S
C902 C898 1.350 . S
C902 C899 1.463 . S
C902 N906 1.427 . S
C903 H893 0.929 . S
C903 C901 1.433 . S
C903 N906 1.384 . S
C904 H895 0.929 . S
C904 C896 1.378 . S
C904 C899 1.350 . S
C905 H892 0.929 . S
C905 C897 1.433 . S
C905 N907 1.384 . S
N906 C902 1.427 . S
N906 C903 1.384 . S
N907 C899 1.427 . S
N907 C905 1.384 . S
H908 C914 0.930 . S
H909 C918 0.930 . S
H910 C923 0.929 . S
H911 C921 0.929 . S
H912 C916 0.929 . S
H913 C922 0.929 . S
C914 H908 0.930 . S
C914 C915 1.367 . S
C914 C922 1.378 . S
C915 C914 1.367 . S
C915 C923 1.433 . S
C916 H912 0.929 . S
C916 C918 1.378 . S
C916 C920 1.350 . S
C917 C920 1.463 . S
C917 C922 1.350 . S
C917 N925 1.427 . S
C918 H909 0.930 . S
C918 C916 1.378 . S
C918 C919 1.367 . S
C919 C918 1.367 . S
C919 C921 1.433 . S
C920 C916 1.350 . S
C920 C917 1.463 . S
C920 N924 1.427 . S
C921 H911 0.929 . S
C921 C919 1.433 . S
C921 N924 1.384 . S
C922 H913 0.929 . S
C922 C914 1.378 . S
C922 C917 1.350 . S
C923 H910 0.929 . S
C923 C915 1.433 . S
C923 N925 1.384 . S
N924 C920 1.427 . S
N924 C921 1.384 . S
N925 C917 1.427 . S
N925 C923 1.384 . S
H926 C932 0.930 . S
H927 C936 0.930 . S
H928 C941 0.929 . S
H929 C939 0.929 . S
H930 C934 0.929 . S
H931 C940 0.929 . S
C932 H926 0.930 . S
C932 C933 1.367 . S
C932 C940 1.378 . S
C933 C932 1.367 . S
C933 C941 1.433 . S
C934 H930 0.929 . S
C934 C936 1.378 . S
C934 C938 1.350 . S
C935 C938 1.463 . S
C935 C940 1.350 . S
C935 N943 1.427 . S
C936 H927 0.930 . S
C936 C934 1.378 . S
C936 C937 1.367 . S
C937 C936 1.367 . S
C937 C939 1.433 . S
C938 C934 1.350 . S
C938 C935 1.463 . S
C938 N942 1.427 . S
C939 H929 0.929 . S
C939 C937 1.433 . S
C939 N942 1.384 . S
C940 H931 0.929 . S
C940 C932 1.378 . S
C940 C935 1.350 . S
C941 H928 0.929 . S
C941 C933 1.433 . S
C941 N943 1.384 . S
N942 C938 1.427 . S
N942 C939 1.384 . S
N943 C935 1.427 . S
N943 C941 1.384 . S
C375 C7 1.112 . S
C379 N94 1.110 . S
C393 N35 1.119 . S
C397 C131 1.125 . S
C411 N140 1.122 . S
C415 C53 1.119 . S
C429 N81 1.135 . S
C433 C177 1.145 . S
C447 N104 1.072 . S
C451 C16 1.081 . S
C465 N242 0.392 . S
C469 N186 0.411 . S
C483 N150 1.062 . S
C487 C62 1.054 . S
C501 N209 1.065 . S
C505 C260 1.072 . S
C519 C283 1.121 . S
C523 N324 1.124 . S
C537 N196 0.486 . S
C541 N232 0.470 . S
C555 C306 1.101 . S
C559 N347 1.098 . S
C573 C269 1.146 . S
C577 N219 1.135 . S
C591 N334 1.055 . S
C595 C292 1.062 . S
C609 N25 1.072 . S
C613 C122 1.078 . S
C627 C315 1.075 . S
C631 N357 1.078 . S
C645 C168 1.071 . S
C649 N71 1.055 . S
C663 N12 1.499 . S
C667 N163 1.469 . S
C681 C108 1.606 . S
C685 C30 1.601 . S
C699 N117 1.614 . S
C703 N58 1.632 . S
C717 C76 1.627 . S
C721 C154 1.635 . S
C735 N2 1.516 . S
C739 N265 1.515 . S
C753 C200 1.577 . S
C757 C99 1.585 . S
C771 C237 1.681 . S
C775 N48 1.681 . S
C789 C223 1.620 . S
C793 C145 1.632 . S
C807 N288 1.491 . S
C811 N255 1.465 . S
C825 C338 1.595 . S
C829 C191 1.592 . S
C843 C246 1.652 . S
C847 N311 1.654 . S
C861 C361 1.564 . S
C865 C214 1.561 . S
C879 N173 1.521 . S
C883 N278 1.525 . S
C897 C329 1.584 . S
C901 C39 1.565 . S
C915 N127 1.641 . S
C919 N301 1.641 . S
C933 C352 1.567 . S
C937 C85 1.548 . S
