# Generated by pormake.
# Topology tzs, (4)-cn, num edge types: 1
# Building blocks:
#     Node 0, Type 0, BuildingBlock: KUFVIS_clean_sbu_0, # of connection points: 4
#     Node 1, Type 0, BuildingBlock: KUFVIS_clean_sbu_0, # of connection points: 4
#     Node 2, Type 0, BuildingBlock: KUFVIS_clean_sbu_0, # of connection points: 4
#     Node 3, Type 0, BuildingBlock: KUFVIS_clean_sbu_0, # of connection points: 4
#     Node 4, Type 0, BuildingBlock: KUFVIS_clean_sbu_0, # of connection points: 4
#     Node 5, Type 0, BuildingBlock: KUFVIS_clean_sbu_0, # of connection points: 4
#     Node 6, Type 0, BuildingBlock: KUFVIS_clean_sbu_0, # of connection points: 4
#     Node 7, Type 0, BuildingBlock: KUFVIS_clean_sbu_0, # of connection points: 4
#     Node 8, Type 0, BuildingBlock: KUFVIS_clean_sbu_0, # of connection points: 4
#     Node 9, Type 0, BuildingBlock: KUFVIS_clean_sbu_0, # of connection points: 4
#     Node 10, Type 0, BuildingBlock: KUFVIS_clean_sbu_0, # of connection points: 4
#     Node 11, Type 0, BuildingBlock: KUFVIS_clean_sbu_0, # of connection points: 4
#     Node 12, Type 0, BuildingBlock: KUFVIS_clean_sbu_0, # of connection points: 4
#     Node 13, Type 0, BuildingBlock: KUFVIS_clean_sbu_0, # of connection points: 4
#     Node 14, Type 0, BuildingBlock: KUFVIS_clean_sbu_0, # of connection points: 4
#     Node 15, Type 0, BuildingBlock: KUFVIS_clean_sbu_0, # of connection points: 4
#     Edge 16, Type (0, 0), BuildingBlock: CIFDUS_clean_linker_0, # of connection points: 2
#     Edge 17, Type (0, 0), BuildingBlock: CIFDUS_clean_linker_0, # of connection points: 2
#     Edge 18, Type (0, 0), BuildingBlock: CIFDUS_clean_linker_0, # of connection points: 2
#     Edge 19, Type (0, 0), BuildingBlock: CIFDUS_clean_linker_0, # of connection points: 2
#     Edge 20, Type (0, 0), BuildingBlock: CIFDUS_clean_linker_0, # of connection points: 2
#     Edge 21, Type (0, 0), BuildingBlock: CIFDUS_clean_linker_0, # of connection points: 2
#     Edge 22, Type (0, 0), BuildingBlock: CIFDUS_clean_linker_0, # of connection points: 2
#     Edge 23, Type (0, 0), BuildingBlock: CIFDUS_clean_linker_0, # of connection points: 2
#     Edge 24, Type (0, 0), BuildingBlock: CIFDUS_clean_linker_0, # of connection points: 2
#     Edge 25, Type (0, 0), BuildingBlock: CIFDUS_clean_linker_0, # of connection points: 2
#     Edge 26, Type (0, 0), BuildingBlock: CIFDUS_clean_linker_0, # of connection points: 2
#     Edge 27, Type (0, 0), BuildingBlock: CIFDUS_clean_linker_0, # of connection points: 2
#     Edge 28, Type (0, 0), BuildingBlock: CIFDUS_clean_linker_0, # of connection points: 2
#     Edge 29, Type (0, 0), BuildingBlock: CIFDUS_clean_linker_0, # of connection points: 2
#     Edge 30, Type (0, 0), BuildingBlock: CIFDUS_clean_linker_0, # of connection points: 2
#     Edge 31, Type (0, 0), BuildingBlock: CIFDUS_clean_linker_0, # of connection points: 2
#     Edge 32, Type (0, 0), BuildingBlock: CIFDUS_clean_linker_0, # of connection points: 2
#     Edge 33, Type (0, 0), BuildingBlock: CIFDUS_clean_linker_0, # of connection points: 2
#     Edge 34, Type (0, 0), BuildingBlock: CIFDUS_clean_linker_0, # of connection points: 2
#     Edge 35, Type (0, 0), BuildingBlock: CIFDUS_clean_linker_0, # of connection points: 2
#     Edge 36, Type (0, 0), BuildingBlock: CIFDUS_clean_linker_0, # of connection points: 2
#     Edge 37, Type (0, 0), BuildingBlock: CIFDUS_clean_linker_0, # of connection points: 2
#     Edge 38, Type (0, 0), BuildingBlock: CIFDUS_clean_linker_0, # of connection points: 2
#     Edge 39, Type (0, 0), BuildingBlock: CIFDUS_clean_linker_0, # of connection points: 2
#     Edge 40, Type (0, 0), BuildingBlock: CIFDUS_clean_linker_0, # of connection points: 2
#     Edge 41, Type (0, 0), BuildingBlock: CIFDUS_clean_linker_0, # of connection points: 2
#     Edge 42, Type (0, 0), BuildingBlock: CIFDUS_clean_linker_0, # of connection points: 2
#     Edge 43, Type (0, 0), BuildingBlock: CIFDUS_clean_linker_0, # of connection points: 2
#     Edge 44, Type (0, 0), BuildingBlock: CIFDUS_clean_linker_0, # of connection points: 2
#     Edge 45, Type (0, 0), BuildingBlock: CIFDUS_clean_linker_0, # of connection points: 2
#     Edge 46, Type (0, 0), BuildingBlock: CIFDUS_clean_linker_0, # of connection points: 2
#     Edge 47, Type (0, 0), BuildingBlock: CIFDUS_clean_linker_0, # of connection points: 2
# Relax obj value: 0.098
# Max RMSD: 0.094
# Mean RMSD: 0.094
data_MOF--net-tzs--node1-KUFVIS_clean_sbu_0--edge1-CIFDUS_clean_linker_0
_symmetry_space_group_name_H-M    P1
_symmetry_Int_Tables_number       1
_symmetry_cell_setting            triclinic
loop_
_symmetry_equiv_pos_as_xyz
'x, y, z'
_cell_length_a     41.920126
_cell_length_b     41.965775
_cell_length_c     34.665465
_cell_angle_alpha  90.070592
_cell_angle_beta   90.033714
_cell_angle_gamma 90.024096
loop_
_atom_site_label
_atom_site_type_symbol
_atom_site_fract_x
_atom_site_fract_y
_atom_site_fract_z
_atom_type_partial_charge
Mn0 Mn 0.157 0.37659 0.19063 0.0
Mn1 Mn 0.2228 0.41196 0.1534 0.0
C2 C 0.17543 0.42524 0.21402 0.0
C3 C 0.10157 0.37061 0.19929 0.0
C4 C 0.22549 0.35294 0.20373 0.0
O5 O 0.15972 0.35684 0.1362 0.0
O6 O 0.20371 0.38303 0.11512 0.0
C7 C 0.1946 0.45067 0.09051 0.0
N8 N 0.21243 0.44866 0.12327 0.0
C9 C 0.22453 0.50472 0.12106 0.0
C10 C 0.20658 0.5073 0.08706 0.0
C11 C 0.19148 0.48017 0.07181 0.0
C12 C 0.22717 0.4746 0.13812 0.0
H13 H 0.18269 0.42999 0.07888 0.0
C14 C 0.1803 0.36386 0.10992 0.0
O15 O 0.12147 0.3484 0.20911 0.0
O16 O 0.11354 0.39471 0.18084 0.0
N17 N 0.2423 0.44118 0.18838 0.0
C18 C 0.25453 0.43546 0.22411 0.0
C19 C 0.26859 0.46048 0.2448 0.0
C20 C 0.26963 0.49106 0.2286 0.0
C21 C 0.25619 0.49661 0.19224 0.0
C22 C 0.24279 0.47066 0.1728 0.0
H23 H 0.25301 0.41214 0.23697 0.0
O24 O 0.15979 0.40609 0.23652 0.0
O25 O 0.18181 0.41439 0.18001 0.0
O26 O 0.19556 0.34998 0.20898 0.0
O27 O 0.23759 0.37528 0.18372 0.0
C28 C 0.25465 0.527 0.17512 0.0
C29 C 0.23889 0.53104 0.13948 0.0
H30 H 0.20378 0.53008 0.07281 0.0
H31 H 0.17733 0.48203 0.04578 0.0
H32 H 0.27839 0.45629 0.27323 0.0
H33 H 0.28033 0.51015 0.24462 0.0
H34 H 0.26486 0.54754 0.18954 0.0
H35 H 0.23723 0.55463 0.127 0.0
Mn36 Mn 0.6474 0.15488 0.20473 0.0
Mn37 Mn 0.61055 0.21922 0.1658 0.0
C38 C 0.60044 0.17514 0.23148 0.0
C39 C 0.65534 0.09975 0.21443 0.0
C40 C 0.67099 0.224 0.21331 0.0
O41 O 0.66519 0.15535 0.14934 0.0
O42 O 0.63856 0.19864 0.12816 0.0
C43 C 0.57049 0.18725 0.10671 0.0
N44 N 0.57338 0.20753 0.1372 0.0
C45 C 0.51903 0.225 0.13035 0.0
C46 C 0.51547 0.20446 0.09869 0.0
C47 C 0.54123 0.18528 0.08706 0.0
C48 C 0.54855 0.2255 0.14917 0.0
H49 H 0.59037 0.17282 0.09742 0.0
C50 C 0.65764 0.17537 0.12287 0.0
O51 O 0.67734 0.12054 0.22199 0.0
O52 O 0.62938 0.11063 0.19881 0.0
N53 N 0.58212 0.24155 0.19898 0.0
C54 C 0.58901 0.25828 0.23159 0.0
C55 C 0.56616 0.27915 0.24675 0.0
C56 C 0.53658 0.2824 0.22821 0.0
C57 C 0.52935 0.26362 0.19595 0.0
C58 C 0.5533 0.24373 0.18174 0.0
H59 H 0.61202 0.25626 0.24532 0.0
O60 O 0.62078 0.15958 0.25256 0.0
O61 O 0.60864 0.17964 0.19588 0.0
O62 O 0.67462 0.19424 0.21918 0.0
O63 O 0.64776 0.23532 0.19413 0.0
C64 C 0.49967 0.26433 0.17683 0.0
C65 C 0.49439 0.24475 0.14429 0.0
H66 H 0.49302 0.20303 0.08331 0.0
H67 H 0.53864 0.16927 0.06277 0.0
H68 H 0.57163 0.29332 0.272 0.0
H69 H 0.51994 0.29988 0.23855 0.0
H70 H 0.48067 0.27962 0.18705 0.0
H71 H 0.4713 0.24505 0.13025 0.0
Mn72 Mn 0.86293 0.63679 0.19923 0.0
Mn73 Mn 0.79156 0.61206 0.16355 0.0
C74 C 0.83948 0.58968 0.22142 0.0
C75 C 0.91905 0.63782 0.20604 0.0
C76 C 0.79861 0.66801 0.21789 0.0
O77 O 0.86142 0.659 0.14632 0.0
O78 O 0.81351 0.6402 0.12684 0.0
C79 C 0.81353 0.57348 0.09689 0.0
N80 N 0.79578 0.57642 0.12959 0.0
C81 C 0.77206 0.5248 0.11987 0.0
C82 C 0.78983 0.52135 0.08585 0.0
C83 C 0.81084 0.5457 0.07449 0.0
C84 C 0.77603 0.55284 0.14123 0.0
H85 H 0.82976 0.59206 0.08814 0.0
C86 C 0.83905 0.65616 0.12115 0.0
O87 O 0.90111 0.66106 0.21746 0.0
O88 O 0.90474 0.61494 0.18751 0.0
N89 N 0.76773 0.58398 0.19587 0.0
C90 C 0.75341 0.59049 0.23023 0.0
C91 C 0.73109 0.56898 0.24537 0.0
C92 C 0.72371 0.54101 0.225 0.0
C93 C 0.73929 0.53442 0.19008 0.0
C94 C 0.76094 0.55701 0.17617 0.0
H95 H 0.75836 0.61232 0.24546 0.0
O96 O 0.85784 0.60674 0.24352 0.0
O97 O 0.83302 0.60203 0.18801 0.0
O98 O 0.82874 0.66683 0.22099 0.0
O99 O 0.78255 0.64847 0.19773 0.0
C100 C 0.73406 0.50644 0.16843 0.0
C101 C 0.75077 0.50143 0.13361 0.0
H102 H 0.78772 0.50002 0.0684 0.0
H103 H 0.82483 0.5431 0.04845 0.0
H104 H 0.71936 0.57409 0.27248 0.0
H105 H 0.70632 0.52454 0.23669 0.0
H106 H 0.71755 0.48844 0.17854 0.0
H107 H 0.74701 0.47957 0.1176 0.0
Mn108 Mn 0.38171 0.86289 0.19077 0.0
Mn109 Mn 0.41116 0.79161 0.16141 0.0
C110 C 0.42354 0.8383 0.22344 0.0
C111 C 0.38123 0.91902 0.19702 0.0
C112 C 0.34978 0.79814 0.20599 0.0
O113 O 0.36726 0.86128 0.13395 0.0
O114 O 0.38543 0.81186 0.121 0.0
C115 C 0.45418 0.81627 0.1003 0.0
N116 N 0.44937 0.79806 0.13229 0.0
C117 C 0.50291 0.7776 0.12925 0.0
C118 C 0.50833 0.79586 0.09605 0.0
C119 C 0.48393 0.81549 0.08171 0.0
C120 C 0.47295 0.77976 0.14687 0.0
H121 H 0.43552 0.8313 0.08904 0.0
C122 C 0.37142 0.83755 0.11103 0.0
O123 O 0.3561 0.90186 0.20357 0.0
O124 O 0.40582 0.90392 0.18337 0.0
N125 N 0.43752 0.76884 0.19685 0.0
C126 C 0.42882 0.75363 0.22989 0.0
C127 C 0.45022 0.73248 0.24747 0.0
C128 C 0.48017 0.72702 0.23068 0.0
C129 C 0.48905 0.74363 0.1974 0.0
C130 C 0.46653 0.76399 0.18081 0.0
H131 H 0.4054 0.75684 0.24202 0.0
O132 O 0.40439 0.85769 0.24119 0.0
O133 O 0.4171 0.83275 0.18748 0.0
O134 O 0.34902 0.82847 0.20595 0.0
O135 O 0.3725 0.78192 0.19154 0.0
C136 C 0.51905 0.74023 0.17951 0.0
C137 C 0.52613 0.75755 0.14575 0.0
H138 H 0.53118 0.79517 0.08151 0.0
H139 H 0.48797 0.82983 0.05625 0.0
H140 H 0.44331 0.71973 0.27328 0.0
H141 H 0.49584 0.70942 0.24302 0.0
H142 H 0.53691 0.7245 0.19152 0.0
H143 H 0.54946 0.75519 0.13264 0.0
Mn144 Mn 0.15093 0.65216 0.30525 0.0
Mn145 Mn 0.22101 0.62826 0.34517 0.0
C146 C 0.17685 0.60671 0.28248 0.0
C147 C 0.09511 0.6533 0.29604 0.0
C148 C 0.2148 0.68685 0.295 0.0
O149 O 0.14952 0.67175 0.35986 0.0
O150 O 0.19592 0.65197 0.38335 0.0
C151 C 0.20021 0.58365 0.40637 0.0
N152 N 0.21755 0.58967 0.37396 0.0
C153 C 0.2428 0.53825 0.37725 0.0
C154 C 0.22492 0.53133 0.41038 0.0
C155 C 0.20346 0.55409 0.42492 0.0
C156 C 0.23819 0.56789 0.35967 0.0
H157 H 0.18405 0.60127 0.41795 0.0
C158 C 0.16984 0.66743 0.38722 0.0
O159 O 0.11334 0.67693 0.28684 0.0
O160 O 0.10885 0.62924 0.31285 0.0
N161 N 0.24726 0.60451 0.31056 0.0
C162 C 0.26208 0.61472 0.27787 0.0
C163 C 0.28532 0.59542 0.26054 0.0
C164 C 0.29314 0.56594 0.27711 0.0
C165 C 0.27673 0.55541 0.31 0.0
C166 C 0.25409 0.57587 0.32625 0.0
H167 H 0.25683 0.63777 0.26564 0.0
O168 O 0.15872 0.62354 0.25981 0.0
O169 O 0.18125 0.61836 0.31672 0.0
O170 O 0.1854 0.68357 0.28708 0.0
O171 O 0.22961 0.6679 0.31716 0.0
C172 C 0.28231 0.52569 0.32767 0.0
C173 C 0.26506 0.51695 0.36098 0.0
H174 H 0.22752 0.50865 0.42494 0.0
H175 H 0.18968 0.54897 0.45057 0.0
H176 H 0.29765 0.60351 0.23494 0.0
H177 H 0.31184 0.55165 0.26429 0.0
H178 H 0.29969 0.50931 0.31579 0.0
H179 H 0.26928 0.4939 0.37404 0.0
Mn180 Mn 0.36934 0.15059 0.29806 0.0
Mn181 Mn 0.4007 0.21912 0.33388 0.0
C182 C 0.41278 0.17538 0.26786 0.0
C183 C 0.36616 0.09489 0.28823 0.0
C184 C 0.33739 0.21632 0.29188 0.0
O185 O 0.35511 0.14938 0.35514 0.0
O186 O 0.37851 0.19525 0.37411 0.0
C187 C 0.44853 0.19388 0.38902 0.0
N188 N 0.44082 0.21314 0.35885 0.0
C189 C 0.49142 0.23998 0.36235 0.0
C190 C 0.49992 0.22056 0.39362 0.0
C191 C 0.47853 0.19712 0.40667 0.0
C192 C 0.46167 0.23492 0.34515 0.0
H193 H 0.43187 0.1763 0.39955 0.0
C194 C 0.36271 0.16994 0.38112 0.0
O195 O 0.34198 0.11357 0.28305 0.0
O196 O 0.39189 0.10811 0.30175 0.0
N197 N 0.42348 0.24482 0.29799 0.0
C198 C 0.41195 0.26054 0.26662 0.0
C199 C 0.42971 0.28557 0.25069 0.0
C200 C 0.45896 0.29426 0.26741 0.0
C201 C 0.47112 0.27666 0.29855 0.0
C202 C 0.45228 0.25202 0.31318 0.0
H203 H 0.38888 0.25472 0.25468 0.0
O204 O 0.39285 0.15793 0.24833 0.0
O205 O 0.4057 0.17953 0.30388 0.0
O206 O 0.3372 0.18643 0.28566 0.0
O207 O 0.35997 0.23018 0.30965 0.0
C208 C 0.50058 0.28325 0.31658 0.0
C209 C 0.51106 0.26444 0.34785 0.0
H210 H 0.5228 0.22339 0.40775 0.0
H211 H 0.48495 0.18197 0.4307 0.0
H212 H 0.42042 0.29881 0.22639 0.0
H213 H 0.47153 0.31478 0.25627 0.0
H214 H 0.51539 0.30273 0.30675 0.0
H215 H 0.53401 0.26935 0.36095 0.0
Mn216 Mn 0.87678 0.3612 0.31267 0.0
Mn217 Mn 0.80964 0.39677 0.34607 0.0
C218 C 0.85719 0.40799 0.28531 0.0
C219 C 0.93217 0.35477 0.30524 0.0
C220 C 0.80904 0.33469 0.30145 0.0
O221 O 0.87401 0.34482 0.36881 0.0
O222 O 0.82923 0.37114 0.38705 0.0
C223 C 0.83663 0.44044 0.40498 0.0
N224 N 0.8191 0.43572 0.37237 0.0
C225 C 0.80601 0.49147 0.36865 0.0
C226 C 0.82358 0.49685 0.40246 0.0
C227 C 0.83906 0.47123 0.42061 0.0
C228 C 0.80414 0.4602 0.35466 0.0
H229 H 0.84883 0.42093 0.41881 0.0
C230 C 0.85305 0.35299 0.39419 0.0
O231 O 0.91231 0.33197 0.29765 0.0
O232 O 0.92025 0.38044 0.32046 0.0
N233 N 0.78961 0.42288 0.30817 0.0
C234 C 0.77695 0.41415 0.27353 0.0
C235 C 0.76277 0.43734 0.2501 0.0
C236 C 0.76177 0.46911 0.26263 0.0
C237 C 0.775 0.47758 0.29831 0.0
C238 C 0.78879 0.45343 0.32044 0.0
H239 H 0.77807 0.38979 0.26365 0.0
O240 O 0.87366 0.38824 0.26438 0.0
O241 O 0.85081 0.39854 0.31981 0.0
O242 O 0.83905 0.33281 0.2965 0.0
O243 O 0.7959 0.3576 0.31952 0.0
C244 C 0.77595 0.50913 0.31222 0.0
C245 C 0.79132 0.51606 0.34746 0.0
H246 H 0.82582 0.52062 0.41436 0.0
H247 H 0.85295 0.47524 0.44649 0.0
H248 H 0.75284 0.43083 0.22236 0.0
H249 H 0.75128 0.4868 0.24428 0.0
H250 H 0.76559 0.52834 0.29568 0.0
H251 H 0.79247 0.5405 0.35744 0.0
Mn252 Mn 0.64777 0.86568 0.30731 0.0
Mn253 Mn 0.61952 0.79554 0.34184 0.0
C254 C 0.60709 0.83835 0.2754 0.0
C255 C 0.64626 0.92158 0.29918 0.0
C256 C 0.68294 0.8017 0.3005 0.0
O257 O 0.66182 0.86695 0.36438 0.0
O258 O 0.64047 0.81999 0.38273 0.0
C259 C 0.5702 0.82057 0.39512 0.0
N260 N 0.57885 0.80086 0.3657 0.0
C261 C 0.52757 0.77523 0.36601 0.0
C262 C 0.51822 0.79488 0.39674 0.0
C263 C 0.53951 0.81793 0.41103 0.0
C264 C 0.55818 0.77945 0.35081 0.0
H265 H 0.58656 0.83817 0.40627 0.0
C266 C 0.65515 0.84592 0.39006 0.0
O267 O 0.67205 0.90526 0.29313 0.0
O268 O 0.62211 0.90581 0.31278 0.0
N269 N 0.5978 0.76913 0.30547 0.0
C270 C 0.60999 0.75345 0.2744 0.0
C271 C 0.59174 0.72965 0.25641 0.0
C272 C 0.56147 0.7219 0.27099 0.0
C273 C 0.5491 0.73889 0.30249 0.0
C274 C 0.56833 0.76243 0.31907 0.0
H275 H 0.63377 0.75848 0.26409 0.0
O276 O 0.6257 0.85777 0.25691 0.0
O277 O 0.61342 0.8346 0.3117 0.0
O278 O 0.68148 0.83162 0.29442 0.0
O279 O 0.66116 0.78632 0.31809 0.0
C280 C 0.51885 0.73294 0.31878 0.0
C281 C 0.50781 0.75155 0.34994 0.0
H282 H 0.49469 0.79267 0.40934 0.0
H283 H 0.53239 0.83341 0.43448 0.0
H284 H 0.60133 0.7167 0.23202 0.0
H285 H 0.54819 0.70261 0.25794 0.0
H286 H 0.50383 0.71404 0.30784 0.0
H287 H 0.48423 0.74722 0.36157 0.0
Mn288 Mn 0.87051 0.64777 0.81412 0.0
Mn289 Mn 0.90881 0.71235 0.85058 0.0
C290 C 0.91971 0.6643 0.78997 0.0
C291 C 0.8608 0.5928 0.80639 0.0
C292 C 0.84997 0.71729 0.80019 0.0
O293 O 0.85107 0.65165 0.86859 0.0
O294 O 0.87837 0.69528 0.88838 0.0
C295 C 0.94507 0.68145 0.91381 0.0
N296 N 0.94445 0.69996 0.88157 0.0
C297 C 1.00095 0.70958 0.88583 0.0
C298 C 1.00207 0.69114 0.91951 0.0
C299 C 0.97402 0.67688 0.93343 0.0
C300 C 0.97133 0.71362 0.8678 0.0
H301 H 0.92371 0.6701 0.92433 0.0
C302 C 0.8584 0.67272 0.89414 0.0
O303 O 0.83984 0.61406 0.79684 0.0
O304 O 0.8864 0.60319 0.82337 0.0
N305 N 0.93964 0.73041 0.81657 0.0
C306 C 0.93517 0.74348 0.78104 0.0
C307 C 0.96133 0.75638 0.76133 0.0
C308 C 0.99164 0.75571 0.77848 0.0
C309 C 0.99572 0.7421 0.81496 0.0
C310 C 0.96878 0.72965 0.83325 0.0
H311 H 0.91198 0.74341 0.76757 0.0
O312 O 0.89981 0.64912 0.76784 0.0
O313 O 0.90949 0.67111 0.82413 0.0
O314 O 0.84549 0.68744 0.79616 0.0
O315 O 0.87326 0.72885 0.81921 0.0
C316 C 0.02565 0.73928 0.83315 0.0
C317 C 0.02825 0.72309 0.86865 0.0
H318 H 0.02442 0.68725 0.93447 0.0
H319 H 0.97476 0.66227 0.95911 0.0
H320 H 0.95822 0.76649 0.73286 0.0
H321 H 0.01178 0.76496 0.7631 0.0
H322 H 0.04692 0.74873 0.81959 0.0
H323 H 0.05149 0.72038 0.88193 0.0
Mn324 Mn 0.36011 0.88559 0.80758 0.0
Mn325 Mn 0.29306 0.92242 0.83931 0.0
C326 C 0.33849 0.92936 0.7746 0.0
C327 C 0.41629 0.88178 0.79992 0.0
C328 C 0.29243 0.85785 0.79919 0.0
O329 O 0.35886 0.87261 0.86537 0.0
O330 O 0.31433 0.89985 0.88135 0.0
C331 C 0.32195 0.97027 0.89199 0.0
N332 N 0.30159 0.9627 0.86279 0.0
C333 C 0.2789 0.0153 0.86316 0.0
C334 C 0.29893 0.02345 0.89407 0.0
C335 C 0.32094 1.00099 0.9081 0.0
C336 C 0.28151 0.98459 0.84782 0.0
H337 H 0.33892 0.95305 0.90262 0.0
C338 C 0.33822 0.88252 0.89015 0.0
O339 O 0.39765 0.85755 0.79411 0.0
O340 O 0.40267 0.90716 0.81352 0.0
N341 N 0.26994 0.94606 0.80168 0.0
C342 C 0.25515 0.93537 0.76921 0.0
C343 C 0.23226 0.95466 0.75126 0.0
C344 C 0.22507 0.98472 0.76683 0.0
C345 C 0.24223 0.9961 0.79876 0.0
C346 C 0.26443 0.97561 0.81564 0.0
H347 H 0.26035 0.91208 0.75767 0.0
O348 O 0.35551 0.9082 0.75665 0.0
O349 O 0.33323 0.92358 0.81067 0.0
O350 O 0.3225 0.85504 0.79427 0.0
O351 O 0.28003 0.88189 0.81582 0.0
C352 C 0.23778 0.02658 0.8151 0.0
C353 C 0.25658 0.03641 0.84677 0.0
H354 H 0.298 0.04702 0.90679 0.0
H355 H 0.33689 1.00726 0.93147 0.0
H356 H 0.21961 0.94608 0.72607 0.0
H357 H 0.20617 0.9986 0.75404 0.0
H358 H 0.22015 0.04275 0.80354 0.0
H359 H 0.25355 0.06019 0.85839 0.0
Mn360 Mn 0.14648 0.36936 0.80086 0.0
Mn361 Mn 0.11022 0.30504 0.84075 0.0
C362 C 0.09957 0.34843 0.77461 0.0
C363 C 0.15429 0.42441 0.79029 0.0
C364 C 0.1697 0.30011 0.79172 0.0
O365 O 0.16476 0.36946 0.85615 0.0
O366 O 0.13938 0.32549 0.87732 0.0
C367 C 0.07209 0.33774 0.90105 0.0
N368 N 0.07396 0.31721 0.87069 0.0
C369 C 0.01959 0.30043 0.87974 0.0
C370 C 0.01712 0.32123 0.91129 0.0
C371 C 0.04341 0.34017 0.92177 0.0
C372 C 0.04863 0.2994 0.8599 0.0
H373 H 0.09236 0.35203 0.90946 0.0
C374 C 0.15813 0.34905 0.88254 0.0
O375 O 0.17627 0.40359 0.78291 0.0
O376 O 0.12841 0.41365 0.80623 0.0
N377 N 0.08065 0.2827 0.80897 0.0
C378 C 0.08626 0.26608 0.77593 0.0
C379 C 0.06248 0.24595 0.76133 0.0
C380 C 0.03331 0.24327 0.78091 0.0
C381 C 0.02751 0.2617 0.81382 0.0
C382 C 0.05229 0.28092 0.82735 0.0
H383 H 0.10885 0.26788 0.76122 0.0
O384 O 0.11961 0.36408 0.75324 0.0
O385 O 0.10784 0.34445 0.81031 0.0
O386 O 0.17365 0.32993 0.78657 0.0
O387 O 0.14648 0.28869 0.81089 0.0
C388 C 0.99829 0.26153 0.83393 0.0
C389 C 0.99427 0.28104 0.86677 0.0
H390 H 0.99508 0.32306 0.92744 0.0
H391 H 0.04164 0.35638 0.94598 0.0
H392 H 0.06686 0.23203 0.73557 0.0
H393 H 0.01575 0.22661 0.77086 0.0
H394 H 0.97865 0.24683 0.82409 0.0
H395 H 0.97153 0.28121 0.88158 0.0
Mn396 Mn 0.6524 0.13976 0.81712 0.0
Mn397 Mn 0.71845 0.10603 0.85595 0.0
C398 C 0.67082 0.09028 0.79632 0.0
C399 C 0.59688 0.14548 0.80838 0.0
C400 C 0.72098 0.16259 0.80185 0.0
O401 O 0.65516 0.16172 0.8702 0.0
O402 O 0.69984 0.13716 0.8917 0.0
C403 C 0.69015 0.07124 0.92207 0.0
N404 N 0.70807 0.07129 0.88931 0.0
C405 C 0.7208 0.01573 0.897 0.0
C406 C 0.70275 0.01517 0.93104 0.0
C407 C 0.68728 0.04302 0.94354 0.0
C408 C 0.72309 0.04464 0.87706 0.0
H409 H 0.67804 0.09249 0.93166 0.0
C410 C 0.6764 0.15632 0.89623 0.0
O411 O 0.61683 0.16722 0.7972 0.0
O412 O 0.60889 0.12203 0.82796 0.0
N413 N 0.73782 0.07478 0.82371 0.0
C414 C 0.75028 0.07836 0.78773 0.0
C415 C 0.76524 0.05241 0.76992 0.0
C416 C 0.76685 0.0231 0.78923 0.0
C417 C 0.75294 0.01965 0.82567 0.0
C418 C 0.73877 0.0465 0.84221 0.0
H419 H 0.74842 0.1007 0.77261 0.0
O420 O 0.65514 0.10868 0.77293 0.0
O421 O 0.67727 0.10222 0.82981 0.0
O422 O 0.69098 0.16578 0.79732 0.0
O423 O 0.73323 0.14073 0.82247 0.0
C424 C 0.75184 0.9905 0.84573 0.0
C425 C 0.73576 0.98853 0.88141 0.0
H426 H 0.70022 0.99338 0.94747 0.0
H427 H 0.67309 0.04271 0.9696 0.0
H428 H 0.77542 0.05498 0.74143 0.0
H429 H 0.77849 1.00333 0.77569 0.0
H430 H 0.76265 0.9693 0.83357 0.0
H431 H 0.73445 0.96585 0.89619 0.0
Mn432 Mn 0.86979 0.36112 0.7062 0.0
Mn433 Mn 0.89932 0.29157 0.67172 0.0
C434 C 0.91253 0.33584 0.73711 0.0
C435 C 0.87019 0.41698 0.71486 0.0
C436 C 0.83604 0.29652 0.71376 0.0
O437 O 0.85517 0.36192 0.64938 0.0
O438 O 0.87759 0.31544 0.63087 0.0
C439 C 0.9477 0.31533 0.61639 0.0
N440 N 0.93959 0.29651 0.64682 0.0
C441 C 0.99042 0.27001 0.64529 0.0
C442 C 0.99931 0.28896 0.61376 0.0
C443 C 0.97799 0.31198 0.59955 0.0
C444 C 0.96031 0.27506 0.66151 0.0
H445 H 0.93118 0.3327 0.6051 0.0
C446 C 0.86216 0.34097 0.62365 0.0
O447 O 0.8448 0.40011 0.7211 0.0
O448 O 0.89443 0.40185 0.70047 0.0
N449 N 0.92157 0.26592 0.70822 0.0
C450 C 0.90982 0.2509 0.73998 0.0
C451 C 0.92778 0.22668 0.75742 0.0
C452 C 0.95739 0.21798 0.74172 0.0
C453 C 0.96953 0.23462 0.70982 0.0
C454 C 0.95057 0.25857 0.69379 0.0
H455 H 0.88654 0.25675 0.75125 0.0
O456 O 0.89286 0.35394 0.75602 0.0
O457 O 0.9054 0.33122 0.70111 0.0
O458 O 0.83654 0.3265 0.7196 0.0
O459 O 0.85828 0.28197 0.69618 0.0
C460 C 0.99935 0.22799 0.69277 0.0
C461 C 0.01009 0.24614 0.66108 0.0
H462 H 0.02247 0.28612 0.60035 0.0
H463 H 0.98472 0.32679 0.57535 0.0
H464 H 0.91847 0.21419 0.78228 0.0
H465 H 0.97057 0.19847 0.75449 0.0
H466 H 0.01435 0.20915 0.70397 0.0
H467 H 0.03335 0.2413 0.64882 0.0
Mn468 Mn 0.64887 0.86277 0.70232 0.0
Mn469 Mn 0.71845 0.89172 0.66593 0.0
C470 C 0.67297 0.90844 0.72851 0.0
C471 C 0.59273 0.86035 0.71073 0.0
C472 C 0.71414 0.83009 0.71114 0.0
O473 O 0.64892 0.84579 0.64609 0.0
O474 O 0.69445 0.86947 0.62576 0.0
C475 C 0.69618 0.93921 0.6086 0.0
N476 N 0.71388 0.93172 0.64029 0.0
C477 C 0.73897 0.98332 0.64021 0.0
C478 C 0.72084 0.99168 0.60775 0.0
C479 C 0.6992 0.96959 0.59205 0.0
C480 C 0.73436 0.953 0.656 0.0
H481 H 0.67967 0.92225 0.59635 0.0
C482 C 0.66918 0.85322 0.61957 0.0
O483 O 0.61123 0.83653 0.71847 0.0
O484 O 0.60639 0.8851 0.69543 0.0
N485 N 0.74362 0.91437 0.70272 0.0
C486 C 0.75843 0.90288 0.7348 0.0
C487 C 0.78221 0.92115 0.75272 0.0
C488 C 0.79043 0.95099 0.73747 0.0
C489 C 0.77359 0.96311 0.70571 0.0
C490 C 0.75045 0.9436 0.68875 0.0
H491 H 0.75278 0.87959 0.746 0.0
O492 O 0.65525 0.89013 0.74986 0.0
O493 O 0.67819 0.89802 0.69404 0.0
O494 O 0.68442 0.83135 0.71853 0.0
O495 O 0.7282 0.85104 0.69097 0.0
C496 C 0.77934 0.99341 0.68965 0.0
C497 C 0.76165 1.00373 0.65734 0.0
H498 H 0.72338 0.01495 0.59462 0.0
H499 H 0.68511 0.97587 0.56702 0.0
H500 H 0.79469 0.91194 0.77766 0.0
H501 H 0.80971 0.9644 0.7505 0.0
H502 H 0.79724 1.00899 0.702 0.0
H503 H 0.76598 0.02724 0.64558 0.0
Mn504 Mn 0.14664 0.6577 0.6959 0.0
Mn505 Mn 0.12018 0.72809 0.65984 0.0
C506 C 0.10062 0.68165 0.72099 0.0
C507 C 0.14633 0.6016 0.70252 0.0
C508 C 0.18125 0.72126 0.70682 0.0
O509 O 0.1657 0.65849 0.64107 0.0
O510 O 0.14178 0.70351 0.61868 0.0
C511 C 0.07213 0.71124 0.60034 0.0
N512 N 0.08003 0.72658 0.63359 0.0
C513 C 0.0292 0.75335 0.63506 0.0
C514 C 0.02037 0.73728 0.60123 0.0
C515 C 0.04192 0.71607 0.58385 0.0
C516 C 0.05946 0.74715 0.65047 0.0
H517 H 0.08872 0.69549 0.58666 0.0
C518 C 0.15869 0.6783 0.61407 0.0
O519 O 0.17072 0.61871 0.71248 0.0
O520 O 0.12314 0.61672 0.68573 0.0
N521 N 0.09833 0.753 0.69773 0.0
C522 C 0.10942 0.76447 0.73198 0.0
C523 C 0.09115 0.78672 0.75261 0.0
C524 C 0.06162 0.79674 0.7379 0.0
C525 C 0.04997 0.78334 0.70356 0.0
C526 C 0.06932 0.76137 0.68425 0.0
H527 H 0.13206 0.75681 0.74339 0.0
O528 O 0.1186 0.66359 0.74232 0.0
O529 O 0.11174 0.68761 0.68685 0.0
O530 O 0.17859 0.69182 0.71488 0.0
O531 O 0.16129 0.7357 0.68554 0.0
C532 C 0.01975 0.79059 0.68804 0.0
C533 C 1.00923 0.77533 0.65405 0.0
H534 H 0.99717 0.74115 0.58827 0.0
H535 H 0.03539 0.70373 0.55757 0.0
H536 H 0.0999 0.79626 0.77964 0.0
H537 H 0.04762 0.81401 0.75382 0.0
H538 H 1.0042 0.80746 0.70238 0.0
H539 H 0.98576 0.78073 0.64273 0.0
Mn540 Mn 0.37057 0.15686 0.69407 0.0
Mn541 Mn 0.30275 0.12428 0.65802 0.0
C542 C 0.34538 0.11434 0.72516 0.0
C543 C 0.42597 0.16043 0.70503 0.0
C544 C 0.30427 0.18793 0.69911 0.0
O545 O 0.37259 0.16991 0.63676 0.0
O546 O 0.32639 0.14706 0.61797 0.0
C547 C 0.33081 0.0771 0.60399 0.0
N548 N 0.31055 0.0843 0.63342 0.0
C549 C 0.28687 0.03214 0.63095 0.0
C550 C 0.30723 0.02422 0.60031 0.0
C551 C 0.32956 0.04669 0.58709 0.0
C552 C 0.28975 0.06253 0.64719 0.0
H553 H 0.34772 0.09444 0.59349 0.0
C554 C 0.35191 0.16253 0.61086 0.0
O555 O 0.40725 0.18473 0.709 0.0
O556 O 0.41304 0.13441 0.69199 0.0
N557 N 0.27732 0.10072 0.69348 0.0
C558 C 0.26094 0.11162 0.72471 0.0
C559 C 0.23709 0.09251 0.74102 0.0
C560 C 0.2304 0.06253 0.72495 0.0
C561 C 0.24874 0.05109 0.6941 0.0
C562 C 0.27189 0.07138 0.67878 0.0
H563 H 0.26544 0.13505 0.73635 0.0
O564 O 0.36259 0.13462 0.74445 0.0
O565 O 0.34197 0.12035 0.68877 0.0
O566 O 0.33429 0.18882 0.70454 0.0
O567 O 0.29044 0.16476 0.68236 0.0
C568 C 0.24442 0.02081 0.67719 0.0
C569 C 0.26387 0.01112 0.6461 0.0
H570 H 0.30609 1.0009 0.58694 0.0
H571 H 0.3455 0.0407 0.56363 0.0
H572 H 0.22326 0.10124 0.76518 0.0
H573 H 0.21072 0.04887 0.73619 0.0
H574 H 0.22627 1.00474 0.6878 0.0
H575 H 0.26075 0.98756 0.63386 0.0
H576 H 0.33998 0.2798 0.28025 0.0
H577 H 0.27664 0.19941 0.26786 0.0
H578 H 0.23518 0.23475 0.24166 0.0
H579 H 0.21764 0.28909 0.22073 0.0
H580 H 0.28499 0.36676 0.22863 0.0
H581 H 0.32393 0.3319 0.25824 0.0
C582 C 0.31714 0.26977 0.27196 0.0
C583 C 0.31152 0.2369 0.27621 0.0
C584 C 0.29399 0.28991 0.2561 0.0
C585 C 0.28171 0.22459 0.2649 0.0
C586 C 0.25798 0.24483 0.24995 0.0
C587 C 0.24076 0.29832 0.22926 0.0
C588 C 0.2481 0.33072 0.22283 0.0
C589 C 0.2639 0.27762 0.24524 0.0
C590 C 0.27842 0.34214 0.23341 0.0
C591 C 0.30088 0.32216 0.25032 0.0
H592 H 0.74673 0.34057 0.28267 0.0
H593 H 0.82384 0.2726 0.28287 0.0
H594 H 0.7879 0.23159 0.25708 0.0
H595 H 0.73393 0.2152 0.2342 0.0
H596 H 0.65917 0.28595 0.23027 0.0
H597 H 0.69471 0.32538 0.25788 0.0
C598 C 0.75579 0.3168 0.27716 0.0
C599 C 0.78792 0.30969 0.28493 0.0
C600 C 0.73527 0.29367 0.2617 0.0
C601 C 0.79922 0.27878 0.27709 0.0
C602 C 0.77863 0.25528 0.26244 0.0
C603 C 0.72546 0.2392 0.23958 0.0
C604 C 0.69368 0.24731 0.23047 0.0
C605 C 0.7465 0.26243 0.25464 0.0
C606 C 0.6833 0.27876 0.23711 0.0
C607 C 0.70367 0.3015 0.2529 0.0
H608 H 0.78899 0.7309 0.20254 0.0
H609 H 0.76789 0.65697 0.28477 0.0
H610 H 0.7316 0.69258 0.31916 0.0
H611 H 0.70289 0.74313 0.32298 0.0
H612 H 0.7236 0.81801 0.24157 0.0
H613 H 0.76338 0.78402 0.21018 0.0
C614 C 0.77678 0.72295 0.22837 0.0
C615 C 0.78071 0.69138 0.24105 0.0
C616 C 0.75583 0.74367 0.24801 0.0
C617 C 0.76481 0.68107 0.27434 0.0
C618 C 0.74413 0.70144 0.29402 0.0
C619 C 0.71628 0.75221 0.29858 0.0
C620 C 0.70999 0.78302 0.28447 0.0
C621 C 0.73893 0.73253 0.28063 0.0
C622 C 0.72793 0.79443 0.2531 0.0
C623 C 0.75058 0.77492 0.23499 0.0
H624 H 0.28742 0.7856 0.18789 0.0
H625 H 0.35905 0.77193 0.27552 0.0
H626 H 0.32289 0.7378 0.31199 0.0
H627 H 0.27256 0.70922 0.31705 0.0
H628 H 0.19981 0.72192 0.23033 0.0
H629 H 0.23436 0.75943 0.19582 0.0
C630 C 0.29476 0.77537 0.2152 0.0
C631 C 0.3259 0.78074 0.2289 0.0
C632 C 0.2737 0.75561 0.23611 0.0
C633 C 0.33536 0.76753 0.26422 0.0
C634 C 0.31467 0.74815 0.28513 0.0
C635 C 0.26405 0.72031 0.29074 0.0
C636 C 0.2337 0.71248 0.27618 0.0
C637 C 0.28405 0.74154 0.271 0.0
C638 C 0.22304 0.72749 0.24226 0.0
C639 C 0.24287 0.74883 0.22239 0.0
H640 H 0.77814 0.8312 0.72036 0.0
H641 H 0.69611 0.77133 0.74021 0.0
H642 H 0.73095 0.73002 0.76759 0.0
H643 H 0.78535 0.71147 0.78693 0.0
H644 H 0.86516 0.77525 0.77144 0.0
H645 H 0.83053 0.81432 0.74129 0.0
C646 C 0.76763 0.80917 0.7306 0.0
C647 C 0.73442 0.80446 0.72802 0.0
C648 C 0.78757 0.78609 0.7471 0.0
C649 C 0.72154 0.77569 0.74183 0.0
C650 C 0.7415 0.75204 0.75745 0.0
C651 C 0.79509 0.73384 0.77667 0.0
C652 C 0.82799 0.74017 0.7811 0.0
C653 C 0.77464 0.757 0.76033 0.0
C654 C 0.84011 0.76955 0.76829 0.0
C655 C 0.82028 0.79202 0.75104 0.0
H656 H 0.17812 0.7838 0.72288 0.0
H657 H 0.24198 0.70369 0.73133 0.0
H658 H 0.28331 0.73869 0.75918 0.0
H659 H 0.30093 0.79332 0.78127 0.0
H660 H 0.23116 0.86921 0.77958 0.0
H661 H 0.19285 0.83464 0.74929 0.0
C662 C 0.20092 0.77365 0.73102 0.0
C663 C 0.20682 0.74108 0.72485 0.0
C664 C 0.22377 0.79343 0.74821 0.0
C665 C 0.23669 0.72868 0.73577 0.0
C666 C 0.26034 0.74875 0.75165 0.0
C667 C 0.27737 0.80219 0.7742 0.0
C668 C 0.26958 0.83438 0.78204 0.0
C669 C 0.25417 0.78137 0.75803 0.0
C670 C 0.23852 0.84506 0.77337 0.0
C671 C 0.21625 0.82517 0.75608 0.0
H672 H 0.23276 0.30809 0.77052 0.0
H673 H 0.1562 0.23913 0.77195 0.0
H674 H 0.19026 0.19997 0.74148 0.0
H675 H 0.2414 0.18437 0.71539 0.0
H676 H 0.32093 0.24954 0.71893 0.0
H677 H 0.2862 0.29095 0.74625 0.0
C678 C 0.22358 0.28454 0.76397 0.0
C679 C 0.19169 0.27688 0.77319 0.0
C680 C 0.24385 0.26133 0.74738 0.0
C681 C 0.1804 0.246 0.76504 0.0
C682 C 0.19992 0.22341 0.74758 0.0
C683 C 0.25133 0.20759 0.72203 0.0
C684 C 0.28377 0.21376 0.71493 0.0
C685 C 0.23162 0.23074 0.73875 0.0
C686 C 0.29604 0.24407 0.72409 0.0
C687 C 0.27617 0.26776 0.73972 0.0
H688 H 0.71488 0.22687 0.78619 0.0
H689 H 0.77873 0.14684 0.77327 0.0
H690 H 0.81832 0.18078 0.74339 0.0
H691 H 0.8362 0.23274 0.72322 0.0
H692 H 0.77639 0.31524 0.73994 0.0
H693 H 0.73407 0.28094 0.76614 0.0
C694 C 0.73733 0.21693 0.77638 0.0
C695 C 0.74353 0.18414 0.78158 0.0
C696 C 0.7609 0.23706 0.76025 0.0
C697 C 0.77303 0.17177 0.76941 0.0
C698 C 0.79587 0.19123 0.75239 0.0
C699 C 0.81392 0.24347 0.73237 0.0
C700 C 0.80959 0.27663 0.72942 0.0
C701 C 0.79022 0.22386 0.74804 0.0
C702 C 0.78049 0.28981 0.74189 0.0
C703 C 0.75625 0.27017 0.75683 0.0
H704 H 0.13535 0.31894 0.94578 0.0
H705 H 0.20565 0.38851 0.91058 0.0
H706 H 0.22091 0.39603 0.97836 0.0
H707 H 0.21201 0.38495 0.04656 0.0
H708 H 0.13777 0.31948 0.08158 0.0
H709 H 0.12667 0.30768 0.01368 0.0
C710 C 0.15426 0.33568 0.95252 0.0
C711 C 0.16942 0.3532 0.92283 0.0
C712 C 0.16213 0.34046 0.99128 0.0
C713 C 0.19361 0.37481 0.93267 0.0
C714 C 0.20229 0.37905 0.97138 0.0
C715 C 0.19347 0.36785 0.0397 0.0
C716 C 0.1756 0.35316 0.06947 0.0
C717 C 0.18638 0.36228 1.00082 0.0
C718 C 0.15183 0.33112 0.05949 0.0
C719 C 0.14542 0.32451 0.02069 0.0
H720 H 0.71088 0.13935 0.95915 0.0
H721 H 0.63267 0.1999 0.92375 0.0
H722 H 0.62228 0.2129 0.99151 0.0
H723 H 0.63248 0.20331 0.05954 0.0
H724 H 0.70656 0.13788 0.09499 0.0
H725 H 0.72135 0.13009 0.02717 0.0
C726 C 0.69162 0.15567 0.96583 0.0
C727 C 0.67238 0.16854 0.93608 0.0
C728 C 0.68487 0.16169 0.00462 0.0
C729 C 0.64777 0.18966 0.94585 0.0
C730 C 0.64175 0.1969 0.98457 0.0
C731 C 0.65209 0.18742 0.0528 0.0
C732 C 0.66845 0.1711 0.08253 0.0
C733 C 0.65968 0.18241 0.01405 0.0
C734 C 0.69357 0.15059 0.07281 0.0
C735 C 0.702 0.14623 0.0341 0.0
H736 H 0.88292 0.70217 0.95714 0.0
H737 H 0.80841 0.63685 0.92239 0.0
H738 H 0.79357 0.62977 0.99027 0.0
H739 H 0.80445 0.63911 0.05833 0.0
H740 H 0.88399 0.69824 0.09305 0.0
H741 H 0.89405 0.71119 0.02519 0.0
C742 C 0.86325 0.6864 0.96403 0.0
C743 C 0.84682 0.66989 0.93443 0.0
C744 C 0.85592 0.6814 1.0029 0.0
C745 C 0.82147 0.64972 0.94442 0.0
C746 C 0.81307 0.64569 0.98319 0.0
C747 C 0.82399 0.65503 0.05144 0.0
C748 C 0.84361 0.66761 0.08103 0.0
C749 C 0.83056 0.66096 0.01256 0.0
C750 C 0.86861 0.68821 0.07104 0.0
C751 C 0.87438 0.69548 0.03227 0.0
H752 H 0.33971 0.885 0.07238 0.0
H753 H 0.38842 0.79547 0.05447 0.0
H754 H 0.38442 0.80172 0.98532 0.0
H755 H 0.36855 0.8334 0.92845 0.0
H756 H 0.31488 0.91987 0.94738 0.0
H757 H 0.31986 0.91403 0.01616 0.0
C758 C 0.34911 0.86671 0.05341 0.0
C759 C 0.36449 0.84012 0.06908 0.0
C760 C 0.3464 0.87 0.01316 0.0
C761 C 0.37637 0.81647 0.04368 0.0
C762 C 0.37433 0.81998 0.00378 0.0
C763 C 0.35814 0.85095 0.94766 0.0
C764 C 0.34216 0.87735 0.93227 0.0
C765 C 0.35976 0.84687 0.98802 0.0
C766 C 0.32808 0.89953 0.95788 0.0
C767 C 0.33061 0.8962 0.99762 0.0
H768 H 0.11926 0.66233 0.5564 0.0
H769 H 0.21808 0.6807 0.58167 0.0
H770 H 0.2298 0.68277 0.51219 0.0
H771 H 0.21098 0.68156 0.44485 0.0
H772 H 0.11084 0.66822 0.42058 0.0
H773 H 0.09974 0.66531 0.4898 0.0
C774 C 0.14322 0.66738 0.54671 0.0
C775 C 0.16774 0.67162 0.57391 0.0
C776 C 0.14914 0.67078 0.5072 0.0
C777 C 0.19901 0.67673 0.56112 0.0
C778 C 0.2055 0.67858 0.52153 0.0
C779 C 0.18659 0.67872 0.45474 0.0
C780 C 0.16169 0.67526 0.42759 0.0
C781 C 0.18058 0.67631 0.49441 0.0
C782 C 0.13029 0.67154 0.44079 0.0
C783 C 0.12407 0.66919 0.48032 0.0
H784 H 0.32198 0.13447 0.55049 0.0
H785 H 0.395 0.20389 0.57741 0.0
H786 H 0.40368 0.21237 0.50818 0.0
H787 H 0.39058 0.19988 0.44153 0.0
H788 H 0.32023 0.12779 0.41451 0.0
H789 H 0.31041 0.1204 0.48375 0.0
C790 C 0.33987 0.1516 0.54157 0.0
C791 C 0.35775 0.16878 0.56937 0.0
C792 C 0.34513 0.15571 0.50209 0.0
C793 C 0.38091 0.1905 0.55681 0.0
C794 C 0.38582 0.19528 0.51729 0.0
C795 C 0.37298 0.18243 0.4504 0.0
C796 C 0.35592 0.16446 0.42258 0.0
C797 C 0.36805 0.17797 0.48987 0.0
C798 C 0.33357 0.14192 0.43513 0.0
C799 C 0.328 0.13777 0.47464 0.0
H800 H 0.82121 0.37835 0.45498 0.0
H801 H 0.89401 0.3091 0.42684 0.0
H802 H 0.90168 0.29866 0.49582 0.0
H803 H 0.88895 0.31059 0.56284 0.0
H804 H 0.81961 0.38324 0.59096 0.0
H805 H 0.80944 0.39121 0.52193 0.0
C806 C 0.8388 0.3608 0.46354 0.0
C807 C 0.85705 0.34442 0.43544 0.0
C808 C 0.84374 0.35579 0.50295 0.0
C809 C 0.87965 0.32196 0.44764 0.0
C810 C 0.88405 0.3161 0.48704 0.0
C811 C 0.87148 0.32823 0.55421 0.0
C812 C 0.85491 0.34631 0.58229 0.0
C813 C 0.86642 0.33313 0.51479 0.0
C814 C 0.83264 0.36908 0.57011 0.0
C815 C 0.82684 0.37355 0.53071 0.0
H816 H 0.70036 0.87841 0.55837 0.0
H817 H 0.62395 0.81328 0.58698 0.0
H818 H 0.61374 0.80524 0.51788 0.0
H819 H 0.62622 0.81746 0.45068 0.0
H820 H 0.69947 0.88623 0.42284 0.0
H821 H 0.71098 0.8926 0.49182 0.0
C822 C 0.6813 0.86238 0.54997 0.0
C823 C 0.66292 0.84632 0.57821 0.0
C824 C 0.67497 0.85884 0.51065 0.0
C825 C 0.63848 0.8258 0.5661 0.0
C826 C 0.63264 0.82134 0.52664 0.0
C827 C 0.64473 0.834 0.45942 0.0
C828 C 0.66217 0.85132 0.43143 0.0
C829 C 0.65067 0.8379 0.49884 0.0
C830 C 0.68578 0.8727 0.44364 0.0
C831 C 0.69236 0.8762 0.483 0.0
H832 H 0.1763 0.57548 0.21354 0.0
H833 H 0.17731 0.55948 0.33577 0.0
H834 H 0.18367 0.5026 0.32629 0.0
H835 H 0.18466 0.4562 0.2824 0.0
H836 H 0.1623 0.4717 0.16275 0.0
H837 H 0.16653 0.52918 0.17143 0.0
C838 C 0.17855 0.55952 0.23798 0.0
C839 C 0.18056 0.5721 0.27541 0.0
C840 C 0.17737 0.52634 0.23234 0.0
C841 C 0.18056 0.55089 0.30679 0.0
C842 C 0.18268 0.51808 0.30131 0.0
C843 C 0.18104 0.47226 0.2583 0.0
C844 C 0.17589 0.45986 0.22132 0.0
C845 C 0.18099 0.50543 0.26411 0.0
C846 C 0.16892 0.4808 0.19085 0.0
C847 C 0.17086 0.5137 0.19588 0.0
H848 H 0.5473 0.16979 0.18778 0.0
H849 H 0.57862 0.18429 0.30474 0.0
H850 H 0.52299 0.18451 0.32632 0.0
H851 H 0.46627 0.17723 0.3112 0.0
H852 H 0.43436 0.17635 0.19335 0.0
H853 H 0.48996 0.17358 0.17184 0.0
C854 C 0.542 0.17535 0.21754 0.0
C855 C 0.56704 0.17889 0.24426 0.0
C856 C 0.51008 0.17772 0.22924 0.0
C857 C 0.55975 0.18245 0.28349 0.0
C858 C 0.52799 0.18271 0.29577 0.0
C859 C 0.47121 0.17965 0.28088 0.0
C860 C 0.446 0.17933 0.25409 0.0
C861 C 0.50304 0.18052 0.26881 0.0
C862 C 0.45325 0.17773 0.21461 0.0
C863 C 0.48503 0.17621 0.20233 0.0
H864 H 0.85069 0.55742 0.28778 0.0
H865 H 0.83381 0.54296 0.16697 0.0
H866 H 0.83301 0.4856 0.17557 0.0
H867 H 0.841 0.43853 0.21798 0.0
H868 H 0.8752 0.45456 0.33361 0.0
H869 H 0.86867 0.51183 0.32603 0.0
C870 C 0.84631 0.54172 0.26346 0.0
C871 C 0.83825 0.55467 0.22744 0.0
C872 C 0.85075 0.50872 0.26762 0.0
C873 C 0.83517 0.53386 0.19583 0.0
C874 C 0.83644 0.50085 0.20049 0.0
C875 C 0.84702 0.45468 0.24132 0.0
C876 C 0.85674 0.44242 0.27701 0.0
C877 C 0.84437 0.4879 0.23635 0.0
C878 C 0.86608 0.46352 0.30647 0.0
C879 C 0.86247 0.49629 0.30218 0.0
H880 H 0.55187 0.83616 0.31483 0.0
H881 H 0.5905 0.82932 0.20015 0.0
H882 H 0.53632 0.82849 0.17363 0.0
H883 H 0.47873 0.8354 0.18403 0.0
H884 H 0.44015 0.83139 0.29899 0.0
H885 H 0.49433 0.83008 0.3255 0.0
C886 C 0.54864 0.83176 0.28439 0.0
C887 C 0.57521 0.83111 0.25972 0.0
C888 C 0.51764 0.8297 0.26969 0.0
C889 C 0.57039 0.82908 0.21975 0.0
C890 C 0.53948 0.82865 0.20464 0.0
C891 C 0.48202 0.83188 0.21467 0.0
C892 C 0.45547 0.83198 0.2394 0.0
C893 C 0.51299 0.82946 0.22941 0.0
C894 C 0.46026 0.83064 0.2794 0.0
C895 C 0.49116 0.82986 0.29449 0.0
H896 H 0.90758 0.55295 0.78137 0.0
H897 H 0.80609 0.55793 0.79983 0.0
H898 H 0.79966 0.50441 0.77246 0.0
H899 H 0.82294 0.45621 0.74234 0.0
H900 H 0.92409 0.45328 0.71964 0.0
H901 H 0.93047 0.50588 0.74878 0.0
C902 C 0.88413 0.54208 0.77993 0.0
C903 C 0.85741 0.55915 0.7934 0.0
C904 C 0.88048 0.51179 0.76269 0.0
C905 C 0.82706 0.54514 0.79018 0.0
C906 C 0.82337 0.5146 0.77429 0.0
C907 C 0.84634 0.46719 0.74342 0.0
C908 C 0.87297 0.45063 0.72862 0.0
C909 C 0.84987 0.49775 0.76013 0.0
C910 C 0.90309 0.46539 0.73042 0.0
C911 C 0.90684 0.49546 0.74741 0.0
H912 H 0.55653 0.90982 0.73807 0.0
H913 H 0.55262 0.80933 0.71293 0.0
H914 H 0.49837 0.80657 0.73883 0.0
H915 H 0.45191 0.83255 0.76981 0.0
H916 H 0.45728 0.93242 0.79868 0.0
H917 H 0.51073 0.93541 0.77098 0.0
C918 C 0.54359 0.88744 0.73774 0.0
C919 C 0.55852 0.85992 0.72286 0.0
C920 C 0.51266 0.88577 0.75408 0.0
C921 C 0.54166 0.83093 0.72375 0.0
C922 C 0.51063 0.82931 0.7388 0.0
C923 C 0.46486 0.85491 0.7704 0.0
C924 C 0.45033 0.88218 0.7866 0.0
C925 C 0.49592 0.8565 0.75441 0.0
C926 C 0.46769 0.91093 0.7868 0.0
C927 C 0.49832 0.91275 0.77065 0.0
H928 H 0.10796 0.46374 0.76223 0.0
H929 H 0.20857 0.46005 0.78732 0.0
H930 H 0.21535 0.51397 0.76162 0.0
H931 H 0.1927 0.56236 0.7316 0.0
H932 H 0.09272 0.56448 0.70225 0.0
H933 H 0.08582 0.51113 0.72922 0.0
C934 C 0.13128 0.47494 0.76248 0.0
C935 C 0.15764 0.45809 0.77737 0.0
C936 C 0.13521 0.50559 0.74626 0.0
C937 C 0.18785 0.4726 0.77645 0.0
C938 C 0.19176 0.5034 0.76156 0.0
C939 C 0.16946 0.55104 0.73074 0.0
C940 C 0.1433 0.56758 0.71474 0.0
C941 C 0.16566 0.52011 0.74616 0.0
C942 C 0.11337 0.55238 0.71399 0.0
C943 C 0.10933 0.52188 0.72974 0.0
H944 H 0.45875 0.11429 0.74344 0.0
H945 H 0.46733 0.21036 0.70104 0.0
H946 H 0.52042 0.21488 0.73017 0.0
H947 H 0.56443 0.19162 0.76841 0.0
H948 H 0.55398 0.09679 0.81468 0.0
H949 H 0.50169 0.09196 0.78419 0.0
C950 C 0.4725 0.13602 0.74011 0.0
C951 C 0.4594 0.16173 0.71938 0.0
C952 C 0.50252 0.13889 0.75833 0.0
C953 C 0.47706 0.19009 0.71638 0.0
C954 C 0.50734 0.19275 0.73327 0.0
C955 C 0.55057 0.17003 0.77222 0.0
C956 C 0.56329 0.14466 0.79403 0.0
C957 C 0.52026 0.1674 0.75461 0.0
C958 C 0.54486 0.11685 0.79843 0.0
C959 C 0.51496 0.11393 0.78067 0.0
H960 H 0.67753 0.05878 0.72833 0.0
H961 H 0.66116 0.04393 0.84938 0.0
H962 H 0.66608 0.98637 0.8411 0.0
H963 H 0.67395 0.9396 0.7983 0.0
H964 H 0.66834 0.95561 0.67621 0.0
H965 H 0.67421 0.0125 0.6851 0.0
C966 C 0.67541 0.04288 0.75284 0.0
C967 C 0.672 0.05553 0.78994 0.0
C968 C 0.6752 0.00972 0.74733 0.0
C969 C 0.66683 0.0347 0.82106 0.0
C970 C 0.66896 1.00174 0.81624 0.0
C971 C 0.67459 0.95561 0.77377 0.0
C972 C 0.67498 0.94311 0.73622 0.0
C973 C 0.67348 0.98888 0.77942 0.0
C974 C 0.67281 0.96429 0.70494 0.0
C975 C 0.67478 0.99707 0.71015 0.0
H976 H 0.9495 0.67829 0.72191 0.0
H977 H 0.96717 0.64844 0.83874 0.0
H978 H 0.0245 0.65524 0.8297 0.0
H979 H 0.06971 0.67218 0.78922 0.0
H980 H 0.05276 0.68385 0.66804 0.0
H981 H 0.99565 0.68463 0.67812 0.0
C982 C 0.96599 0.67335 0.74527 0.0
C983 C 0.95421 0.66499 0.78166 0.0
C984 C 0.99911 0.67598 0.73942 0.0
C985 C 0.97577 0.6568 0.81109 0.0
C986 C 1.00856 0.6605 0.80593 0.0
C987 C 0.05349 0.67548 0.76517 0.0
C988 C 0.0657 0.68233 0.72836 0.0
C989 C 0.0205 0.67099 0.77048 0.0
C990 C 0.04425 0.68374 0.69721 0.0
C991 C 0.01136 0.68242 0.70282 0.0
H992 H 0.34562 0.05909 0.68525 0.0
H993 H 0.33753 0.09665 0.80037 0.0
H994 H 0.33594 0.04224 0.82586 0.0
H995 H 0.34033 0.98459 0.81441 0.0
H996 H 0.33511 0.94734 0.69896 0.0
H997 H 0.33827 1.00169 0.67345 0.0
C998 C 0.34079 0.05561 0.71553 0.0
C999 C 0.3397 0.08201 0.74056 0.0
C1000 C 0.33766 0.02451 0.72959 0.0
C1001 C 0.33746 0.07677 0.78041 0.0
C1002 C 0.33646 0.04571 0.79493 0.0
C1003 C 0.33697 0.98827 0.78391 0.0
C1004 C 0.33537 0.96193 0.75884 0.0
C1005 C 0.33653 0.01947 0.76971 0.0
C1006 C 0.33535 0.96722 0.7189 0.0
C1007 C 0.33707 0.99826 0.70437 0.0
H1008 H 0.0459 0.35356 0.81698 0.0
H1009 H 0.07903 0.33418 0.70182 0.0
H1010 H 0.02369 0.32822 0.67992 0.0
H1011 H 0.96639 0.33244 0.69396 0.0
H1012 H 0.93386 0.33938 0.81129 0.0
H1013 H 0.98888 0.34734 0.8326 0.0
C1014 C 0.04113 0.34627 0.78758 0.0
C1015 C 0.06654 0.34276 0.76147 0.0
C1016 C 1.00957 0.34087 0.77588 0.0
C1017 C 0.05987 0.33622 0.72261 0.0
C1018 C 0.0283 0.33266 0.7102 0.0
C1019 C 0.97125 0.33244 0.72442 0.0
C1020 C 0.94589 0.33319 0.75098 0.0
C1021 C 1.00302 0.33479 0.73669 0.0
C1022 C 0.95288 0.33771 0.79025 0.0
C1023 C 0.98435 0.3423 0.80245 0.0
H1024 H 0.41439 0.058 0.25886 0.0
H1025 H 0.31422 0.05614 0.28674 0.0
H1026 H 0.30964 1.00243 0.25992 0.0
H1027 H 0.3338 0.95595 0.22772 0.0
H1028 H 0.43343 0.95841 0.19686 0.0
H1029 H 0.43834 0.01174 0.2248 0.0
C1030 C 0.3917 0.04561 0.25954 0.0
C1031 C 0.36477 0.06097 0.27541 0.0
C1032 C 0.38898 0.01492 0.24283 0.0
C1033 C 0.33537 0.04484 0.2751 0.0
C1034 C 0.33269 0.01414 0.25953 0.0
C1035 C 0.35655 0.96824 0.22671 0.0
C1036 C 0.38316 0.95301 0.20993 0.0
C1037 C 0.35925 0.99901 0.24299 0.0
C1038 C 0.41243 0.96946 0.2092 0.0
C1039 C 0.41534 0.99996 0.2255 0.0
H1040 H 0.96533 0.40151 0.2692 0.0
H1041 H 0.97267 0.30388 0.3063 0.0
H1042 H 0.02529 0.29952 0.27581 0.0
H1043 H 0.06911 0.32346 0.23765 0.0
H1044 H 0.05927 0.41991 0.1963 0.0
H1045 H 1.00773 0.42449 0.22847 0.0
C1046 C 0.97875 0.37947 0.27115 0.0
C1047 C 0.96551 0.35329 0.29084 0.0
C1048 C 1.00833 0.37673 0.25201 0.0
C1049 C 0.98262 0.32452 0.29192 0.0
C1050 C 0.01259 0.32197 0.2742 0.0
C1051 C 0.05552 0.34535 0.23527 0.0
C1052 C 0.06821 0.37126 0.21436 0.0
C1053 C 0.02561 0.34783 0.25383 0.0
C1054 C 0.05016 0.39945 0.2118 0.0
C1055 C 0.02071 0.40222 0.23054 0.0
H1056 H 0.69335 0.96188 0.27385 0.0
H1057 H 0.59203 0.95747 0.29494 0.0
H1058 H 0.58554 0.01088 0.26818 0.0
H1059 H 0.60844 0.05911 0.23805 0.0
H1060 H 0.71007 0.06504 0.22081 0.0
H1061 H 0.71655 0.01097 0.24612 0.0
C1062 C 0.66988 0.97269 0.27292 0.0
C1063 C 0.64324 0.95549 0.28657 0.0
C1064 C 0.66628 1.00369 0.25759 0.0
C1065 C 0.61303 0.97005 0.28499 0.0
C1066 C 0.60923 1.00061 0.26939 0.0
C1067 C 0.63195 0.04838 0.2394 0.0
C1068 C 0.65869 0.06595 0.22692 0.0
C1069 C 0.63562 0.0176 0.2553 0.0
C1070 C 0.68907 0.05198 0.22985 0.0
C1071 C 0.6928 0.02108 0.24451 0.0
H1072 H 0.05971 0.6053 0.26339 0.0
H1073 H 0.05441 0.70307 0.30096 0.0
H1074 H 1.00017 0.70727 0.27553 0.0
H1075 H 0.95454 0.68377 0.24137 0.0
H1076 H 0.96008 0.58694 0.20016 0.0
H1077 H 0.01383 0.58195 0.22734 0.0
C1078 C 0.04638 0.62729 0.26657 0.0
C1079 C 0.06085 0.65368 0.28478 0.0
C1080 C 0.01542 0.62991 0.25045 0.0
C1081 C 0.04367 0.68233 0.28758 0.0
C1082 C 0.01272 0.68481 0.27277 0.0
C1083 C 0.96755 0.66161 0.23799 0.0
C1084 C 0.95315 0.63582 0.21849 0.0
C1085 C 0.99846 0.6589 0.25377 0.0
C1086 C 0.97054 0.60732 0.21462 0.0
C1087 C 1.00125 0.60436 0.23049 0.0
loop_
_geom_bond_atom_site_label_1
_geom_bond_atom_site_label_2
_geom_bond_distance
_geom_bond_site_symmetry_2
_ccdc_geom_bond_type
Mn0 O5 2.095 . S
Mn0 O15 2.162 . S
Mn0 O16 2.297 . S
Mn0 O24 2.385 . S
Mn0 O25 2.209 . S
Mn0 O26 2.094 . S
Mn1 O6 2.121 . S
Mn1 N8 2.257 . S
Mn1 N17 2.282 . S
Mn1 O25 2.215 . S
Mn1 O27 2.117 . S
C2 O24 1.234 . S
C2 O25 1.283 . S
C3 O15 1.281 . S
C3 O16 1.236 . S
C4 O26 1.240 . S
C4 O27 1.264 . S
O5 Mn0 2.095 . S
O5 C14 1.250 . S
O6 Mn1 2.121 . S
O6 C14 1.258 . S
C7 N8 1.326 . S
C7 C11 1.460 . S
C7 H13 0.929 . S
N8 Mn1 2.257 . S
N8 C7 1.326 . S
N8 C12 1.362 . S
C9 C10 1.258 . S
C9 C12 1.431 . S
C9 C29 1.449 . S
C10 C9 1.258 . S
C10 C11 1.477 . S
C10 H30 0.931 . S
C11 C7 1.460 . S
C11 C10 1.477 . S
C11 H31 0.930 . S
C12 N8 1.362 . S
C12 C9 1.431 . S
C12 C22 1.476 . S
H13 C7 0.929 . S
C14 O5 1.250 . S
C14 O6 1.258 . S
O15 Mn0 2.162 . S
O15 C3 1.281 . S
O16 Mn0 2.297 . S
O16 C3 1.236 . S
N17 Mn1 2.282 . S
N17 C18 1.328 . S
N17 C22 1.318 . S
C18 N17 1.328 . S
C18 C19 1.457 . S
C18 H23 0.929 . S
C19 C18 1.457 . S
C19 C20 1.291 . S
C19 H32 0.931 . S
C20 C19 1.291 . S
C20 C21 1.373 . S
C20 H33 0.929 . S
C21 C20 1.373 . S
C21 C22 1.396 . S
C21 C28 1.403 . S
C22 C12 1.476 . S
C22 N17 1.318 . S
C22 C21 1.396 . S
H23 C18 0.929 . S
O24 Mn0 2.385 . S
O24 C2 1.234 . S
O25 Mn0 2.209 . S
O25 Mn1 2.215 . S
O25 C2 1.283 . S
O26 Mn0 2.094 . S
O26 C4 1.240 . S
O27 Mn1 2.117 . S
O27 C4 1.264 . S
C28 C21 1.403 . S
C28 C29 1.399 . S
C28 H34 0.929 . S
C29 C9 1.449 . S
C29 C28 1.399 . S
C29 H35 0.930 . S
H30 C10 0.931 . S
H31 C11 0.930 . S
H32 C19 0.931 . S
H33 C20 0.929 . S
H34 C28 0.929 . S
H35 C29 0.930 . S
Mn36 O41 2.095 . S
Mn36 O51 2.162 . S
Mn36 O52 2.297 . S
Mn36 O60 2.385 . S
Mn36 O61 2.209 . S
Mn36 O62 2.094 . S
Mn37 O42 2.121 . S
Mn37 N44 2.257 . S
Mn37 N53 2.282 . S
Mn37 O61 2.215 . S
Mn37 O63 2.117 . S
C38 O60 1.234 . S
C38 O61 1.283 . S
C39 O51 1.281 . S
C39 O52 1.236 . S
C40 O62 1.240 . S
C40 O63 1.264 . S
O41 Mn36 2.095 . S
O41 C50 1.250 . S
O42 Mn37 2.121 . S
O42 C50 1.258 . S
C43 N44 1.326 . S
C43 C47 1.460 . S
C43 H49 0.929 . S
N44 Mn37 2.257 . S
N44 C43 1.326 . S
N44 C48 1.362 . S
C45 C46 1.258 . S
C45 C48 1.431 . S
C45 C65 1.449 . S
C46 C45 1.258 . S
C46 C47 1.477 . S
C46 H66 0.931 . S
C47 C43 1.460 . S
C47 C46 1.477 . S
C47 H67 0.930 . S
C48 N44 1.362 . S
C48 C45 1.431 . S
C48 C58 1.476 . S
H49 C43 0.929 . S
C50 O41 1.250 . S
C50 O42 1.258 . S
O51 Mn36 2.162 . S
O51 C39 1.281 . S
O52 Mn36 2.297 . S
O52 C39 1.236 . S
N53 Mn37 2.282 . S
N53 C54 1.328 . S
N53 C58 1.318 . S
C54 N53 1.328 . S
C54 C55 1.457 . S
C54 H59 0.929 . S
C55 C54 1.457 . S
C55 C56 1.291 . S
C55 H68 0.931 . S
C56 C55 1.291 . S
C56 C57 1.373 . S
C56 H69 0.929 . S
C57 C56 1.373 . S
C57 C58 1.396 . S
C57 C64 1.403 . S
C58 C48 1.476 . S
C58 N53 1.318 . S
C58 C57 1.396 . S
H59 C54 0.929 . S
O60 Mn36 2.385 . S
O60 C38 1.234 . S
O61 Mn36 2.209 . S
O61 Mn37 2.215 . S
O61 C38 1.283 . S
O62 Mn36 2.094 . S
O62 C40 1.240 . S
O63 Mn37 2.117 . S
O63 C40 1.264 . S
C64 C57 1.403 . S
C64 C65 1.399 . S
C64 H70 0.929 . S
C65 C45 1.449 . S
C65 C64 1.399 . S
C65 H71 0.930 . S
H66 C46 0.931 . S
H67 C47 0.930 . S
H68 C55 0.931 . S
H69 C56 0.929 . S
H70 C64 0.929 . S
H71 C65 0.930 . S
Mn72 O77 2.095 . S
Mn72 O87 2.162 . S
Mn72 O88 2.297 . S
Mn72 O96 2.385 . S
Mn72 O97 2.209 . S
Mn72 O98 2.094 . S
Mn73 O78 2.121 . S
Mn73 N80 2.257 . S
Mn73 N89 2.282 . S
Mn73 O97 2.215 . S
Mn73 O99 2.117 . S
C74 O96 1.234 . S
C74 O97 1.283 . S
C75 O87 1.281 . S
C75 O88 1.236 . S
C76 O98 1.240 . S
C76 O99 1.264 . S
O77 Mn72 2.095 . S
O77 C86 1.250 . S
O78 Mn73 2.121 . S
O78 C86 1.258 . S
C79 N80 1.326 . S
C79 C83 1.460 . S
C79 H85 0.929 . S
N80 Mn73 2.257 . S
N80 C79 1.326 . S
N80 C84 1.362 . S
C81 C82 1.258 . S
C81 C84 1.431 . S
C81 C101 1.449 . S
C82 C81 1.258 . S
C82 C83 1.477 . S
C82 H102 0.931 . S
C83 C79 1.460 . S
C83 C82 1.477 . S
C83 H103 0.930 . S
C84 N80 1.362 . S
C84 C81 1.431 . S
C84 C94 1.476 . S
H85 C79 0.929 . S
C86 O77 1.250 . S
C86 O78 1.258 . S
O87 Mn72 2.162 . S
O87 C75 1.281 . S
O88 Mn72 2.297 . S
O88 C75 1.236 . S
N89 Mn73 2.282 . S
N89 C90 1.328 . S
N89 C94 1.318 . S
C90 N89 1.328 . S
C90 C91 1.457 . S
C90 H95 0.929 . S
C91 C90 1.457 . S
C91 C92 1.291 . S
C91 H104 0.931 . S
C92 C91 1.291 . S
C92 C93 1.373 . S
C92 H105 0.929 . S
C93 C92 1.373 . S
C93 C94 1.396 . S
C93 C100 1.403 . S
C94 C84 1.476 . S
C94 N89 1.318 . S
C94 C93 1.396 . S
H95 C90 0.929 . S
O96 Mn72 2.385 . S
O96 C74 1.234 . S
O97 Mn72 2.209 . S
O97 Mn73 2.215 . S
O97 C74 1.283 . S
O98 Mn72 2.094 . S
O98 C76 1.240 . S
O99 Mn73 2.117 . S
O99 C76 1.264 . S
C100 C93 1.403 . S
C100 C101 1.399 . S
C100 H106 0.929 . S
C101 C81 1.449 . S
C101 C100 1.399 . S
C101 H107 0.930 . S
H102 C82 0.931 . S
H103 C83 0.930 . S
H104 C91 0.931 . S
H105 C92 0.929 . S
H106 C100 0.929 . S
H107 C101 0.930 . S
Mn108 O113 2.095 . S
Mn108 O123 2.162 . S
Mn108 O124 2.297 . S
Mn108 O132 2.385 . S
Mn108 O133 2.209 . S
Mn108 O134 2.094 . S
Mn109 O114 2.121 . S
Mn109 N116 2.257 . S
Mn109 N125 2.282 . S
Mn109 O133 2.215 . S
Mn109 O135 2.117 . S
C110 O132 1.234 . S
C110 O133 1.283 . S
C111 O123 1.281 . S
C111 O124 1.236 . S
C112 O134 1.240 . S
C112 O135 1.264 . S
O113 Mn108 2.095 . S
O113 C122 1.250 . S
O114 Mn109 2.121 . S
O114 C122 1.258 . S
C115 N116 1.326 . S
C115 C119 1.460 . S
C115 H121 0.929 . S
N116 Mn109 2.257 . S
N116 C115 1.326 . S
N116 C120 1.362 . S
C117 C118 1.258 . S
C117 C120 1.431 . S
C117 C137 1.449 . S
C118 C117 1.258 . S
C118 C119 1.477 . S
C118 H138 0.931 . S
C119 C115 1.460 . S
C119 C118 1.477 . S
C119 H139 0.930 . S
C120 N116 1.362 . S
C120 C117 1.431 . S
C120 C130 1.476 . S
H121 C115 0.929 . S
C122 O113 1.250 . S
C122 O114 1.258 . S
O123 Mn108 2.162 . S
O123 C111 1.281 . S
O124 Mn108 2.297 . S
O124 C111 1.236 . S
N125 Mn109 2.282 . S
N125 C126 1.328 . S
N125 C130 1.318 . S
C126 N125 1.328 . S
C126 C127 1.457 . S
C126 H131 0.929 . S
C127 C126 1.457 . S
C127 C128 1.291 . S
C127 H140 0.931 . S
C128 C127 1.291 . S
C128 C129 1.373 . S
C128 H141 0.929 . S
C129 C128 1.373 . S
C129 C130 1.396 . S
C129 C136 1.403 . S
C130 C120 1.476 . S
C130 N125 1.318 . S
C130 C129 1.396 . S
H131 C126 0.929 . S
O132 Mn108 2.385 . S
O132 C110 1.234 . S
O133 Mn108 2.209 . S
O133 Mn109 2.215 . S
O133 C110 1.283 . S
O134 Mn108 2.094 . S
O134 C112 1.240 . S
O135 Mn109 2.117 . S
O135 C112 1.264 . S
C136 C129 1.403 . S
C136 C137 1.399 . S
C136 H142 0.929 . S
C137 C117 1.449 . S
C137 C136 1.399 . S
C137 H143 0.930 . S
H138 C118 0.931 . S
H139 C119 0.930 . S
H140 C127 0.931 . S
H141 C128 0.929 . S
H142 C136 0.929 . S
H143 C137 0.930 . S
Mn144 O149 2.095 . S
Mn144 O159 2.162 . S
Mn144 O160 2.297 . S
Mn144 O168 2.385 . S
Mn144 O169 2.209 . S
Mn144 O170 2.094 . S
Mn145 O150 2.121 . S
Mn145 N152 2.257 . S
Mn145 N161 2.282 . S
Mn145 O169 2.215 . S
Mn145 O171 2.117 . S
C146 O168 1.234 . S
C146 O169 1.283 . S
C147 O159 1.281 . S
C147 O160 1.236 . S
C148 O170 1.240 . S
C148 O171 1.264 . S
O149 Mn144 2.095 . S
O149 C158 1.250 . S
O150 Mn145 2.121 . S
O150 C158 1.258 . S
C151 N152 1.326 . S
C151 C155 1.460 . S
C151 H157 0.929 . S
N152 Mn145 2.257 . S
N152 C151 1.326 . S
N152 C156 1.362 . S
C153 C154 1.258 . S
C153 C156 1.431 . S
C153 C173 1.449 . S
C154 C153 1.258 . S
C154 C155 1.477 . S
C154 H174 0.931 . S
C155 C151 1.460 . S
C155 C154 1.477 . S
C155 H175 0.930 . S
C156 N152 1.362 . S
C156 C153 1.431 . S
C156 C166 1.476 . S
H157 C151 0.929 . S
C158 O149 1.250 . S
C158 O150 1.258 . S
O159 Mn144 2.162 . S
O159 C147 1.281 . S
O160 Mn144 2.297 . S
O160 C147 1.236 . S
N161 Mn145 2.282 . S
N161 C162 1.328 . S
N161 C166 1.318 . S
C162 N161 1.328 . S
C162 C163 1.457 . S
C162 H167 0.929 . S
C163 C162 1.457 . S
C163 C164 1.291 . S
C163 H176 0.931 . S
C164 C163 1.291 . S
C164 C165 1.373 . S
C164 H177 0.929 . S
C165 C164 1.373 . S
C165 C166 1.396 . S
C165 C172 1.403 . S
C166 C156 1.476 . S
C166 N161 1.318 . S
C166 C165 1.396 . S
H167 C162 0.929 . S
O168 Mn144 2.385 . S
O168 C146 1.234 . S
O169 Mn144 2.209 . S
O169 Mn145 2.215 . S
O169 C146 1.283 . S
O170 Mn144 2.094 . S
O170 C148 1.240 . S
O171 Mn145 2.117 . S
O171 C148 1.264 . S
C172 C165 1.403 . S
C172 C173 1.399 . S
C172 H178 0.929 . S
C173 C153 1.449 . S
C173 C172 1.399 . S
C173 H179 0.930 . S
H174 C154 0.931 . S
H175 C155 0.930 . S
H176 C163 0.931 . S
H177 C164 0.929 . S
H178 C172 0.929 . S
H179 C173 0.930 . S
Mn180 O185 2.095 . S
Mn180 O195 2.162 . S
Mn180 O196 2.297 . S
Mn180 O204 2.385 . S
Mn180 O205 2.209 . S
Mn180 O206 2.094 . S
Mn181 O186 2.121 . S
Mn181 N188 2.257 . S
Mn181 N197 2.282 . S
Mn181 O205 2.215 . S
Mn181 O207 2.117 . S
C182 O204 1.234 . S
C182 O205 1.283 . S
C183 O195 1.281 . S
C183 O196 1.236 . S
C184 O206 1.240 . S
C184 O207 1.264 . S
O185 Mn180 2.095 . S
O185 C194 1.250 . S
O186 Mn181 2.121 . S
O186 C194 1.258 . S
C187 N188 1.326 . S
C187 C191 1.460 . S
C187 H193 0.929 . S
N188 Mn181 2.257 . S
N188 C187 1.326 . S
N188 C192 1.362 . S
C189 C190 1.258 . S
C189 C192 1.431 . S
C189 C209 1.449 . S
C190 C189 1.258 . S
C190 C191 1.477 . S
C190 H210 0.931 . S
C191 C187 1.460 . S
C191 C190 1.477 . S
C191 H211 0.930 . S
C192 N188 1.362 . S
C192 C189 1.431 . S
C192 C202 1.476 . S
H193 C187 0.929 . S
C194 O185 1.250 . S
C194 O186 1.258 . S
O195 Mn180 2.162 . S
O195 C183 1.281 . S
O196 Mn180 2.297 . S
O196 C183 1.236 . S
N197 Mn181 2.282 . S
N197 C198 1.328 . S
N197 C202 1.318 . S
C198 N197 1.328 . S
C198 C199 1.457 . S
C198 H203 0.929 . S
C199 C198 1.457 . S
C199 C200 1.291 . S
C199 H212 0.931 . S
C200 C199 1.291 . S
C200 C201 1.373 . S
C200 H213 0.929 . S
C201 C200 1.373 . S
C201 C202 1.396 . S
C201 C208 1.403 . S
C202 C192 1.476 . S
C202 N197 1.318 . S
C202 C201 1.396 . S
H203 C198 0.929 . S
O204 Mn180 2.385 . S
O204 C182 1.234 . S
O205 Mn180 2.209 . S
O205 Mn181 2.215 . S
O205 C182 1.283 . S
O206 Mn180 2.094 . S
O206 C184 1.240 . S
O207 Mn181 2.117 . S
O207 C184 1.264 . S
C208 C201 1.403 . S
C208 C209 1.399 . S
C208 H214 0.929 . S
C209 C189 1.449 . S
C209 C208 1.399 . S
C209 H215 0.930 . S
H210 C190 0.931 . S
H211 C191 0.930 . S
H212 C199 0.931 . S
H213 C200 0.929 . S
H214 C208 0.929 . S
H215 C209 0.930 . S
Mn216 O221 2.095 . S
Mn216 O231 2.162 . S
Mn216 O232 2.297 . S
Mn216 O240 2.385 . S
Mn216 O241 2.209 . S
Mn216 O242 2.094 . S
Mn217 O222 2.121 . S
Mn217 N224 2.257 . S
Mn217 N233 2.282 . S
Mn217 O241 2.215 . S
Mn217 O243 2.117 . S
C218 O240 1.234 . S
C218 O241 1.283 . S
C219 O231 1.281 . S
C219 O232 1.236 . S
C220 O242 1.240 . S
C220 O243 1.264 . S
O221 Mn216 2.095 . S
O221 C230 1.250 . S
O222 Mn217 2.121 . S
O222 C230 1.258 . S
C223 N224 1.326 . S
C223 C227 1.460 . S
C223 H229 0.929 . S
N224 Mn217 2.257 . S
N224 C223 1.326 . S
N224 C228 1.362 . S
C225 C226 1.258 . S
C225 C228 1.431 . S
C225 C245 1.449 . S
C226 C225 1.258 . S
C226 C227 1.477 . S
C226 H246 0.931 . S
C227 C223 1.460 . S
C227 C226 1.477 . S
C227 H247 0.930 . S
C228 N224 1.362 . S
C228 C225 1.431 . S
C228 C238 1.476 . S
H229 C223 0.929 . S
C230 O221 1.250 . S
C230 O222 1.258 . S
O231 Mn216 2.162 . S
O231 C219 1.281 . S
O232 Mn216 2.297 . S
O232 C219 1.236 . S
N233 Mn217 2.282 . S
N233 C234 1.328 . S
N233 C238 1.318 . S
C234 N233 1.328 . S
C234 C235 1.457 . S
C234 H239 0.929 . S
C235 C234 1.457 . S
C235 C236 1.291 . S
C235 H248 0.931 . S
C236 C235 1.291 . S
C236 C237 1.373 . S
C236 H249 0.929 . S
C237 C236 1.373 . S
C237 C238 1.396 . S
C237 C244 1.403 . S
C238 C228 1.476 . S
C238 N233 1.318 . S
C238 C237 1.396 . S
H239 C234 0.929 . S
O240 Mn216 2.385 . S
O240 C218 1.234 . S
O241 Mn216 2.209 . S
O241 Mn217 2.215 . S
O241 C218 1.283 . S
O242 Mn216 2.094 . S
O242 C220 1.240 . S
O243 Mn217 2.117 . S
O243 C220 1.264 . S
C244 C237 1.403 . S
C244 C245 1.399 . S
C244 H250 0.929 . S
C245 C225 1.449 . S
C245 C244 1.399 . S
C245 H251 0.930 . S
H246 C226 0.931 . S
H247 C227 0.930 . S
H248 C235 0.931 . S
H249 C236 0.929 . S
H250 C244 0.929 . S
H251 C245 0.930 . S
Mn252 O257 2.095 . S
Mn252 O267 2.162 . S
Mn252 O268 2.297 . S
Mn252 O276 2.385 . S
Mn252 O277 2.209 . S
Mn252 O278 2.094 . S
Mn253 O258 2.121 . S
Mn253 N260 2.257 . S
Mn253 N269 2.282 . S
Mn253 O277 2.215 . S
Mn253 O279 2.117 . S
C254 O276 1.234 . S
C254 O277 1.283 . S
C255 O267 1.281 . S
C255 O268 1.236 . S
C256 O278 1.240 . S
C256 O279 1.264 . S
O257 Mn252 2.095 . S
O257 C266 1.250 . S
O258 Mn253 2.121 . S
O258 C266 1.258 . S
C259 N260 1.326 . S
C259 C263 1.460 . S
C259 H265 0.929 . S
N260 Mn253 2.257 . S
N260 C259 1.326 . S
N260 C264 1.362 . S
C261 C262 1.258 . S
C261 C264 1.431 . S
C261 C281 1.449 . S
C262 C261 1.258 . S
C262 C263 1.477 . S
C262 H282 0.931 . S
C263 C259 1.460 . S
C263 C262 1.477 . S
C263 H283 0.930 . S
C264 N260 1.362 . S
C264 C261 1.431 . S
C264 C274 1.476 . S
H265 C259 0.929 . S
C266 O257 1.250 . S
C266 O258 1.258 . S
O267 Mn252 2.162 . S
O267 C255 1.281 . S
O268 Mn252 2.297 . S
O268 C255 1.236 . S
N269 Mn253 2.282 . S
N269 C270 1.328 . S
N269 C274 1.318 . S
C270 N269 1.328 . S
C270 C271 1.457 . S
C270 H275 0.929 . S
C271 C270 1.457 . S
C271 C272 1.291 . S
C271 H284 0.931 . S
C272 C271 1.291 . S
C272 C273 1.373 . S
C272 H285 0.929 . S
C273 C272 1.373 . S
C273 C274 1.396 . S
C273 C280 1.403 . S
C274 C264 1.476 . S
C274 N269 1.318 . S
C274 C273 1.396 . S
H275 C270 0.929 . S
O276 Mn252 2.385 . S
O276 C254 1.234 . S
O277 Mn252 2.209 . S
O277 Mn253 2.215 . S
O277 C254 1.283 . S
O278 Mn252 2.094 . S
O278 C256 1.240 . S
O279 Mn253 2.117 . S
O279 C256 1.264 . S
C280 C273 1.403 . S
C280 C281 1.399 . S
C280 H286 0.929 . S
C281 C261 1.449 . S
C281 C280 1.399 . S
C281 H287 0.930 . S
H282 C262 0.931 . S
H283 C263 0.930 . S
H284 C271 0.931 . S
H285 C272 0.929 . S
H286 C280 0.929 . S
H287 C281 0.930 . S
Mn288 O293 2.095 . S
Mn288 O303 2.162 . S
Mn288 O304 2.297 . S
Mn288 O312 2.385 . S
Mn288 O313 2.209 . S
Mn288 O314 2.094 . S
Mn289 O294 2.121 . S
Mn289 N296 2.257 . S
Mn289 N305 2.282 . S
Mn289 O313 2.215 . S
Mn289 O315 2.117 . S
C290 O312 1.234 . S
C290 O313 1.283 . S
C291 O303 1.281 . S
C291 O304 1.236 . S
C292 O314 1.240 . S
C292 O315 1.264 . S
O293 Mn288 2.095 . S
O293 C302 1.250 . S
O294 Mn289 2.121 . S
O294 C302 1.258 . S
C295 N296 1.326 . S
C295 C299 1.460 . S
C295 H301 0.929 . S
N296 Mn289 2.257 . S
N296 C295 1.326 . S
N296 C300 1.362 . S
C297 C298 1.258 1_655 S
C297 C300 1.431 . S
C297 C317 1.449 1_655 S
C298 C297 1.258 1_455 S
C298 C299 1.477 1_455 S
C298 H318 0.931 . S
C299 C295 1.460 . S
C299 C298 1.477 1_655 S
C299 H319 0.930 . S
C300 N296 1.362 . S
C300 C297 1.431 . S
C300 C310 1.476 . S
H301 C295 0.929 . S
C302 O293 1.250 . S
C302 O294 1.258 . S
O303 Mn288 2.162 . S
O303 C291 1.281 . S
O304 Mn288 2.297 . S
O304 C291 1.236 . S
N305 Mn289 2.282 . S
N305 C306 1.328 . S
N305 C310 1.318 . S
C306 N305 1.328 . S
C306 C307 1.457 . S
C306 H311 0.929 . S
C307 C306 1.457 . S
C307 C308 1.291 . S
C307 H320 0.931 . S
C308 C307 1.291 . S
C308 C309 1.373 . S
C308 H321 0.929 . S
C309 C308 1.373 . S
C309 C310 1.396 . S
C309 C316 1.403 1_655 S
C310 C300 1.476 . S
C310 N305 1.318 . S
C310 C309 1.396 . S
H311 C306 0.929 . S
O312 Mn288 2.385 . S
O312 C290 1.234 . S
O313 Mn288 2.209 . S
O313 Mn289 2.215 . S
O313 C290 1.283 . S
O314 Mn288 2.094 . S
O314 C292 1.240 . S
O315 Mn289 2.117 . S
O315 C292 1.264 . S
C316 C309 1.403 1_455 S
C316 C317 1.399 . S
C316 H322 0.929 . S
C317 C297 1.449 1_455 S
C317 C316 1.399 . S
C317 H323 0.930 . S
H318 C298 0.931 . S
H319 C299 0.930 . S
H320 C307 0.931 . S
H321 C308 0.929 . S
H322 C316 0.929 . S
H323 C317 0.930 . S
Mn324 O329 2.095 . S
Mn324 O339 2.162 . S
Mn324 O340 2.297 . S
Mn324 O348 2.385 . S
Mn324 O349 2.209 . S
Mn324 O350 2.094 . S
Mn325 O330 2.121 . S
Mn325 N332 2.257 . S
Mn325 N341 2.282 . S
Mn325 O349 2.215 . S
Mn325 O351 2.117 . S
C326 O348 1.234 . S
C326 O349 1.283 . S
C327 O339 1.281 . S
C327 O340 1.236 . S
C328 O350 1.240 . S
C328 O351 1.264 . S
O329 Mn324 2.095 . S
O329 C338 1.250 . S
O330 Mn325 2.121 . S
O330 C338 1.258 . S
C331 N332 1.326 . S
C331 C335 1.460 . S
C331 H337 0.929 . S
N332 Mn325 2.257 . S
N332 C331 1.326 . S
N332 C336 1.362 . S
C333 C334 1.258 1_565 S
C333 C336 1.431 . S
C333 C353 1.449 1_565 S
C334 C333 1.258 1_545 S
C334 C335 1.477 1_545 S
C334 H354 0.931 . S
C335 C331 1.460 . S
C335 C334 1.477 1_565 S
C335 H355 0.930 . S
C336 N332 1.362 . S
C336 C333 1.431 . S
C336 C346 1.476 . S
H337 C331 0.929 . S
C338 O329 1.250 . S
C338 O330 1.258 . S
O339 Mn324 2.162 . S
O339 C327 1.281 . S
O340 Mn324 2.297 . S
O340 C327 1.236 . S
N341 Mn325 2.282 . S
N341 C342 1.328 . S
N341 C346 1.318 . S
C342 N341 1.328 . S
C342 C343 1.457 . S
C342 H347 0.929 . S
C343 C342 1.457 . S
C343 C344 1.291 . S
C343 H356 0.931 . S
C344 C343 1.291 . S
C344 C345 1.373 . S
C344 H357 0.929 . S
C345 C344 1.373 . S
C345 C346 1.396 . S
C345 C352 1.403 1_565 S
C346 C336 1.476 . S
C346 N341 1.318 . S
C346 C345 1.396 . S
H347 C342 0.929 . S
O348 Mn324 2.385 . S
O348 C326 1.234 . S
O349 Mn324 2.209 . S
O349 Mn325 2.215 . S
O349 C326 1.283 . S
O350 Mn324 2.094 . S
O350 C328 1.240 . S
O351 Mn325 2.117 . S
O351 C328 1.264 . S
C352 C345 1.403 1_545 S
C352 C353 1.399 . S
C352 H358 0.929 . S
C353 C333 1.449 1_545 S
C353 C352 1.399 . S
C353 H359 0.930 . S
H354 C334 0.931 . S
H355 C335 0.930 . S
H356 C343 0.931 . S
H357 C344 0.929 . S
H358 C352 0.929 . S
H359 C353 0.930 . S
Mn360 O365 2.095 . S
Mn360 O375 2.162 . S
Mn360 O376 2.297 . S
Mn360 O384 2.385 . S
Mn360 O385 2.209 . S
Mn360 O386 2.094 . S
Mn361 O366 2.121 . S
Mn361 N368 2.257 . S
Mn361 N377 2.282 . S
Mn361 O385 2.215 . S
Mn361 O387 2.117 . S
C362 O384 1.234 . S
C362 O385 1.283 . S
C363 O375 1.281 . S
C363 O376 1.236 . S
C364 O386 1.240 . S
C364 O387 1.264 . S
O365 Mn360 2.095 . S
O365 C374 1.250 . S
O366 Mn361 2.121 . S
O366 C374 1.258 . S
C367 N368 1.326 . S
C367 C371 1.460 . S
C367 H373 0.929 . S
N368 Mn361 2.257 . S
N368 C367 1.326 . S
N368 C372 1.362 . S
C369 C370 1.258 1_455 S
C369 C372 1.431 . S
C369 C389 1.449 1_455 S
C370 C369 1.258 1_655 S
C370 C371 1.477 1_655 S
C370 H390 0.931 . S
C371 C367 1.460 . S
C371 C370 1.477 1_455 S
C371 H391 0.930 . S
C372 N368 1.362 . S
C372 C369 1.431 . S
C372 C382 1.476 . S
H373 C367 0.929 . S
C374 O365 1.250 . S
C374 O366 1.258 . S
O375 Mn360 2.162 . S
O375 C363 1.281 . S
O376 Mn360 2.297 . S
O376 C363 1.236 . S
N377 Mn361 2.282 . S
N377 C378 1.328 . S
N377 C382 1.318 . S
C378 N377 1.328 . S
C378 C379 1.457 . S
C378 H383 0.929 . S
C379 C378 1.457 . S
C379 C380 1.291 . S
C379 H392 0.931 . S
C380 C379 1.291 . S
C380 C381 1.373 . S
C380 H393 0.929 . S
C381 C380 1.373 . S
C381 C382 1.396 . S
C381 C388 1.403 1_455 S
C382 C372 1.476 . S
C382 N377 1.318 . S
C382 C381 1.396 . S
H383 C378 0.929 . S
O384 Mn360 2.385 . S
O384 C362 1.234 . S
O385 Mn360 2.209 . S
O385 Mn361 2.215 . S
O385 C362 1.283 . S
O386 Mn360 2.094 . S
O386 C364 1.240 . S
O387 Mn361 2.117 . S
O387 C364 1.264 . S
C388 C381 1.403 1_655 S
C388 C389 1.399 . S
C388 H394 0.929 . S
C389 C369 1.449 1_655 S
C389 C388 1.399 . S
C389 H395 0.930 . S
H390 C370 0.931 . S
H391 C371 0.930 . S
H392 C379 0.931 . S
H393 C380 0.929 . S
H394 C388 0.929 . S
H395 C389 0.930 . S
Mn396 O401 2.095 . S
Mn396 O411 2.162 . S
Mn396 O412 2.297 . S
Mn396 O420 2.385 . S
Mn396 O421 2.209 . S
Mn396 O422 2.094 . S
Mn397 O402 2.121 . S
Mn397 N404 2.257 . S
Mn397 N413 2.282 . S
Mn397 O421 2.215 . S
Mn397 O423 2.117 . S
C398 O420 1.234 . S
C398 O421 1.283 . S
C399 O411 1.281 . S
C399 O412 1.236 . S
C400 O422 1.240 . S
C400 O423 1.264 . S
O401 Mn396 2.095 . S
O401 C410 1.250 . S
O402 Mn397 2.121 . S
O402 C410 1.258 . S
C403 N404 1.326 . S
C403 C407 1.460 . S
C403 H409 0.929 . S
N404 Mn397 2.257 . S
N404 C403 1.326 . S
N404 C408 1.362 . S
C405 C406 1.258 1_545 S
C405 C408 1.431 . S
C405 C425 1.449 1_545 S
C406 C405 1.258 1_565 S
C406 C407 1.477 1_565 S
C406 H426 0.931 . S
C407 C403 1.460 . S
C407 C406 1.477 1_545 S
C407 H427 0.930 . S
C408 N404 1.362 . S
C408 C405 1.431 . S
C408 C418 1.476 . S
H409 C403 0.929 . S
C410 O401 1.250 . S
C410 O402 1.258 . S
O411 Mn396 2.162 . S
O411 C399 1.281 . S
O412 Mn396 2.297 . S
O412 C399 1.236 . S
N413 Mn397 2.282 . S
N413 C414 1.328 . S
N413 C418 1.318 . S
C414 N413 1.328 . S
C414 C415 1.457 . S
C414 H419 0.929 . S
C415 C414 1.457 . S
C415 C416 1.291 . S
C415 H428 0.931 . S
C416 C415 1.291 . S
C416 C417 1.373 . S
C416 H429 0.929 . S
C417 C416 1.373 . S
C417 C418 1.396 . S
C417 C424 1.403 1_545 S
C418 C408 1.476 . S
C418 N413 1.318 . S
C418 C417 1.396 . S
H419 C414 0.929 . S
O420 Mn396 2.385 . S
O420 C398 1.234 . S
O421 Mn396 2.209 . S
O421 Mn397 2.215 . S
O421 C398 1.283 . S
O422 Mn396 2.094 . S
O422 C400 1.240 . S
O423 Mn397 2.117 . S
O423 C400 1.264 . S
C424 C417 1.403 1_565 S
C424 C425 1.399 . S
C424 H430 0.929 . S
C425 C405 1.449 1_565 S
C425 C424 1.399 . S
C425 H431 0.930 . S
H426 C406 0.931 . S
H427 C407 0.930 . S
H428 C415 0.931 . S
H429 C416 0.929 . S
H430 C424 0.929 . S
H431 C425 0.930 . S
Mn432 O437 2.095 . S
Mn432 O447 2.162 . S
Mn432 O448 2.297 . S
Mn432 O456 2.385 . S
Mn432 O457 2.209 . S
Mn432 O458 2.094 . S
Mn433 O438 2.121 . S
Mn433 N440 2.257 . S
Mn433 N449 2.282 . S
Mn433 O457 2.215 . S
Mn433 O459 2.117 . S
C434 O456 1.234 . S
C434 O457 1.283 . S
C435 O447 1.281 . S
C435 O448 1.236 . S
C436 O458 1.240 . S
C436 O459 1.264 . S
O437 Mn432 2.095 . S
O437 C446 1.250 . S
O438 Mn433 2.121 . S
O438 C446 1.258 . S
C439 N440 1.326 . S
C439 C443 1.460 . S
C439 H445 0.929 . S
N440 Mn433 2.257 . S
N440 C439 1.326 . S
N440 C444 1.362 . S
C441 C442 1.258 1_655 S
C441 C444 1.431 . S
C441 C461 1.449 1_655 S
C442 C441 1.258 1_455 S
C442 C443 1.477 1_455 S
C442 H462 0.931 . S
C443 C439 1.460 . S
C443 C442 1.477 1_655 S
C443 H463 0.930 . S
C444 N440 1.362 . S
C444 C441 1.431 . S
C444 C454 1.476 . S
H445 C439 0.929 . S
C446 O437 1.250 . S
C446 O438 1.258 . S
O447 Mn432 2.162 . S
O447 C435 1.281 . S
O448 Mn432 2.297 . S
O448 C435 1.236 . S
N449 Mn433 2.282 . S
N449 C450 1.328 . S
N449 C454 1.318 . S
C450 N449 1.328 . S
C450 C451 1.457 . S
C450 H455 0.929 . S
C451 C450 1.457 . S
C451 C452 1.291 . S
C451 H464 0.931 . S
C452 C451 1.291 . S
C452 C453 1.373 . S
C452 H465 0.929 . S
C453 C452 1.373 . S
C453 C454 1.396 . S
C453 C460 1.403 1_655 S
C454 C444 1.476 . S
C454 N449 1.318 . S
C454 C453 1.396 . S
H455 C450 0.929 . S
O456 Mn432 2.385 . S
O456 C434 1.234 . S
O457 Mn432 2.209 . S
O457 Mn433 2.215 . S
O457 C434 1.283 . S
O458 Mn432 2.094 . S
O458 C436 1.240 . S
O459 Mn433 2.117 . S
O459 C436 1.264 . S
C460 C453 1.403 1_455 S
C460 C461 1.399 . S
C460 H466 0.929 . S
C461 C441 1.449 1_455 S
C461 C460 1.399 . S
C461 H467 0.930 . S
H462 C442 0.931 . S
H463 C443 0.930 . S
H464 C451 0.931 . S
H465 C452 0.929 . S
H466 C460 0.929 . S
H467 C461 0.930 . S
Mn468 O473 2.095 . S
Mn468 O483 2.162 . S
Mn468 O484 2.297 . S
Mn468 O492 2.385 . S
Mn468 O493 2.209 . S
Mn468 O494 2.094 . S
Mn469 O474 2.121 . S
Mn469 N476 2.257 . S
Mn469 N485 2.282 . S
Mn469 O493 2.215 . S
Mn469 O495 2.117 . S
C470 O492 1.234 . S
C470 O493 1.283 . S
C471 O483 1.281 . S
C471 O484 1.236 . S
C472 O494 1.240 . S
C472 O495 1.264 . S
O473 Mn468 2.095 . S
O473 C482 1.250 . S
O474 Mn469 2.121 . S
O474 C482 1.258 . S
C475 N476 1.326 . S
C475 C479 1.460 . S
C475 H481 0.929 . S
N476 Mn469 2.257 . S
N476 C475 1.326 . S
N476 C480 1.362 . S
C477 C478 1.258 1_565 S
C477 C480 1.431 . S
C477 C497 1.449 1_565 S
C478 C477 1.258 1_545 S
C478 C479 1.477 1_545 S
C478 H498 0.931 . S
C479 C475 1.460 . S
C479 C478 1.477 1_565 S
C479 H499 0.930 . S
C480 N476 1.362 . S
C480 C477 1.431 . S
C480 C490 1.476 . S
H481 C475 0.929 . S
C482 O473 1.250 . S
C482 O474 1.258 . S
O483 Mn468 2.162 . S
O483 C471 1.281 . S
O484 Mn468 2.297 . S
O484 C471 1.236 . S
N485 Mn469 2.282 . S
N485 C486 1.328 . S
N485 C490 1.318 . S
C486 N485 1.328 . S
C486 C487 1.457 . S
C486 H491 0.929 . S
C487 C486 1.457 . S
C487 C488 1.291 . S
C487 H500 0.931 . S
C488 C487 1.291 . S
C488 C489 1.373 . S
C488 H501 0.929 . S
C489 C488 1.373 . S
C489 C490 1.396 . S
C489 C496 1.403 1_565 S
C490 C480 1.476 . S
C490 N485 1.318 . S
C490 C489 1.396 . S
H491 C486 0.929 . S
O492 Mn468 2.385 . S
O492 C470 1.234 . S
O493 Mn468 2.209 . S
O493 Mn469 2.215 . S
O493 C470 1.283 . S
O494 Mn468 2.094 . S
O494 C472 1.240 . S
O495 Mn469 2.117 . S
O495 C472 1.264 . S
C496 C489 1.403 1_545 S
C496 C497 1.399 . S
C496 H502 0.929 . S
C497 C477 1.449 1_545 S
C497 C496 1.399 . S
C497 H503 0.930 . S
H498 C478 0.931 . S
H499 C479 0.930 . S
H500 C487 0.931 . S
H501 C488 0.929 . S
H502 C496 0.929 . S
H503 C497 0.930 . S
Mn504 O509 2.095 . S
Mn504 O519 2.162 . S
Mn504 O520 2.297 . S
Mn504 O528 2.385 . S
Mn504 O529 2.209 . S
Mn504 O530 2.094 . S
Mn505 O510 2.121 . S
Mn505 N512 2.257 . S
Mn505 N521 2.282 . S
Mn505 O529 2.215 . S
Mn505 O531 2.117 . S
C506 O528 1.234 . S
C506 O529 1.283 . S
C507 O519 1.281 . S
C507 O520 1.236 . S
C508 O530 1.240 . S
C508 O531 1.264 . S
O509 Mn504 2.095 . S
O509 C518 1.250 . S
O510 Mn505 2.121 . S
O510 C518 1.258 . S
C511 N512 1.326 . S
C511 C515 1.460 . S
C511 H517 0.929 . S
N512 Mn505 2.257 . S
N512 C511 1.326 . S
N512 C516 1.362 . S
C513 C514 1.258 1_455 S
C513 C516 1.431 . S
C513 C533 1.449 1_455 S
C514 C513 1.258 1_655 S
C514 C515 1.477 1_655 S
C514 H534 0.931 . S
C515 C511 1.460 . S
C515 C514 1.477 1_455 S
C515 H535 0.930 . S
C516 N512 1.362 . S
C516 C513 1.431 . S
C516 C526 1.476 . S
H517 C511 0.929 . S
C518 O509 1.250 . S
C518 O510 1.258 . S
O519 Mn504 2.162 . S
O519 C507 1.281 . S
O520 Mn504 2.297 . S
O520 C507 1.236 . S
N521 Mn505 2.282 . S
N521 C522 1.328 . S
N521 C526 1.318 . S
C522 N521 1.328 . S
C522 C523 1.457 . S
C522 H527 0.929 . S
C523 C522 1.457 . S
C523 C524 1.291 . S
C523 H536 0.931 . S
C524 C523 1.291 . S
C524 C525 1.373 . S
C524 H537 0.929 . S
C525 C524 1.373 . S
C525 C526 1.396 . S
C525 C532 1.403 1_455 S
C526 C516 1.476 . S
C526 N521 1.318 . S
C526 C525 1.396 . S
H527 C522 0.929 . S
O528 Mn504 2.385 . S
O528 C506 1.234 . S
O529 Mn504 2.209 . S
O529 Mn505 2.215 . S
O529 C506 1.283 . S
O530 Mn504 2.094 . S
O530 C508 1.240 . S
O531 Mn505 2.117 . S
O531 C508 1.264 . S
C532 C525 1.403 1_655 S
C532 C533 1.399 . S
C532 H538 0.929 . S
C533 C513 1.449 1_655 S
C533 C532 1.399 . S
C533 H539 0.930 . S
H534 C514 0.931 . S
H535 C515 0.930 . S
H536 C523 0.931 . S
H537 C524 0.929 . S
H538 C532 0.929 . S
H539 C533 0.930 . S
Mn540 O545 2.095 . S
Mn540 O555 2.162 . S
Mn540 O556 2.297 . S
Mn540 O564 2.385 . S
Mn540 O565 2.209 . S
Mn540 O566 2.094 . S
Mn541 O546 2.121 . S
Mn541 N548 2.257 . S
Mn541 N557 2.282 . S
Mn541 O565 2.215 . S
Mn541 O567 2.117 . S
C542 O564 1.234 . S
C542 O565 1.283 . S
C543 O555 1.281 . S
C543 O556 1.236 . S
C544 O566 1.240 . S
C544 O567 1.264 . S
O545 Mn540 2.095 . S
O545 C554 1.250 . S
O546 Mn541 2.121 . S
O546 C554 1.258 . S
C547 N548 1.326 . S
C547 C551 1.460 . S
C547 H553 0.929 . S
N548 Mn541 2.257 . S
N548 C547 1.326 . S
N548 C552 1.362 . S
C549 C550 1.258 1_545 S
C549 C552 1.431 . S
C549 C569 1.449 1_545 S
C550 C549 1.258 1_565 S
C550 C551 1.477 1_565 S
C550 H570 0.931 . S
C551 C547 1.460 . S
C551 C550 1.477 1_545 S
C551 H571 0.930 . S
C552 N548 1.362 . S
C552 C549 1.431 . S
C552 C562 1.476 . S
H553 C547 0.929 . S
C554 O545 1.250 . S
C554 O546 1.258 . S
O555 Mn540 2.162 . S
O555 C543 1.281 . S
O556 Mn540 2.297 . S
O556 C543 1.236 . S
N557 Mn541 2.282 . S
N557 C558 1.328 . S
N557 C562 1.318 . S
C558 N557 1.328 . S
C558 C559 1.457 . S
C558 H563 0.929 . S
C559 C558 1.457 . S
C559 C560 1.291 . S
C559 H572 0.931 . S
C560 C559 1.291 . S
C560 C561 1.373 . S
C560 H573 0.929 . S
C561 C560 1.373 . S
C561 C562 1.396 . S
C561 C568 1.403 1_545 S
C562 C552 1.476 . S
C562 N557 1.318 . S
C562 C561 1.396 . S
H563 C558 0.929 . S
O564 Mn540 2.385 . S
O564 C542 1.234 . S
O565 Mn540 2.209 . S
O565 Mn541 2.215 . S
O565 C542 1.283 . S
O566 Mn540 2.094 . S
O566 C544 1.240 . S
O567 Mn541 2.117 . S
O567 C544 1.264 . S
C568 C561 1.403 1_565 S
C568 C569 1.399 . S
C568 H574 0.929 . S
C569 C549 1.449 1_565 S
C569 C568 1.399 . S
C569 H575 0.930 . S
H570 C550 0.931 . S
H571 C551 0.930 . S
H572 C559 0.931 . S
H573 C560 0.929 . S
H574 C568 0.929 . S
H575 C569 0.930 . S
H576 C582 0.930 . S
H577 C585 0.930 . S
H578 C586 0.930 . S
H579 C587 0.930 . S
H580 C590 0.930 . S
H581 C591 0.930 . S
C582 H576 0.930 . S
C582 C583 1.355 . S
C582 C584 1.415 . S
C583 C582 1.355 . S
C583 C585 1.419 . S
C584 C582 1.415 . S
C584 C589 1.425 . S
C584 C591 1.409 . S
C585 H577 0.930 . S
C585 C583 1.419 . S
C585 C586 1.362 . S
C586 H578 0.930 . S
C586 C585 1.362 . S
C586 C589 1.409 . S
C587 H579 0.930 . S
C587 C588 1.355 . S
C587 C589 1.415 . S
C588 C587 1.355 . S
C588 C590 1.419 . S
C589 C584 1.425 . S
C589 C586 1.409 . S
C589 C587 1.415 . S
C590 H580 0.930 . S
C590 C588 1.419 . S
C590 C591 1.362 . S
C591 H581 0.930 . S
C591 C584 1.409 . S
C591 C590 1.362 . S
H592 C598 0.930 . S
H593 C601 0.930 . S
H594 C602 0.930 . S
H595 C603 0.930 . S
H596 C606 0.930 . S
H597 C607 0.930 . S
C598 H592 0.930 . S
C598 C599 1.355 . S
C598 C600 1.415 . S
C599 C598 1.355 . S
C599 C601 1.419 . S
C600 C598 1.415 . S
C600 C605 1.425 . S
C600 C607 1.409 . S
C601 H593 0.930 . S
C601 C599 1.419 . S
C601 C602 1.362 . S
C602 H594 0.930 . S
C602 C601 1.362 . S
C602 C605 1.409 . S
C603 H595 0.930 . S
C603 C604 1.355 . S
C603 C605 1.415 . S
C604 C603 1.355 . S
C604 C606 1.419 . S
C605 C600 1.425 . S
C605 C602 1.409 . S
C605 C603 1.415 . S
C606 H596 0.930 . S
C606 C604 1.419 . S
C606 C607 1.362 . S
C607 H597 0.930 . S
C607 C600 1.409 . S
C607 C606 1.362 . S
H608 C614 0.930 . S
H609 C617 0.930 . S
H610 C618 0.930 . S
H611 C619 0.930 . S
H612 C622 0.930 . S
H613 C623 0.930 . S
C614 H608 0.930 . S
C614 C615 1.355 . S
C614 C616 1.415 . S
C615 C614 1.355 . S
C615 C617 1.419 . S
C616 C614 1.415 . S
C616 C621 1.425 . S
C616 C623 1.409 . S
C617 H609 0.930 . S
C617 C615 1.419 . S
C617 C618 1.362 . S
C618 H610 0.930 . S
C618 C617 1.362 . S
C618 C621 1.409 . S
C619 H611 0.930 . S
C619 C620 1.355 . S
C619 C621 1.415 . S
C620 C619 1.355 . S
C620 C622 1.419 . S
C621 C616 1.425 . S
C621 C618 1.409 . S
C621 C619 1.415 . S
C622 H612 0.930 . S
C622 C620 1.419 . S
C622 C623 1.362 . S
C623 H613 0.930 . S
C623 C616 1.409 . S
C623 C622 1.362 . S
H624 C630 0.930 . S
H625 C633 0.930 . S
H626 C634 0.930 . S
H627 C635 0.930 . S
H628 C638 0.930 . S
H629 C639 0.930 . S
C630 H624 0.930 . S
C630 C631 1.355 . S
C630 C632 1.415 . S
C631 C630 1.355 . S
C631 C633 1.419 . S
C632 C630 1.415 . S
C632 C637 1.425 . S
C632 C639 1.409 . S
C633 H625 0.930 . S
C633 C631 1.419 . S
C633 C634 1.362 . S
C634 H626 0.930 . S
C634 C633 1.362 . S
C634 C637 1.409 . S
C635 H627 0.930 . S
C635 C636 1.355 . S
C635 C637 1.415 . S
C636 C635 1.355 . S
C636 C638 1.419 . S
C637 C632 1.425 . S
C637 C634 1.409 . S
C637 C635 1.415 . S
C638 H628 0.930 . S
C638 C636 1.419 . S
C638 C639 1.362 . S
C639 H629 0.930 . S
C639 C632 1.409 . S
C639 C638 1.362 . S
H640 C646 0.930 . S
H641 C649 0.930 . S
H642 C650 0.930 . S
H643 C651 0.930 . S
H644 C654 0.930 . S
H645 C655 0.930 . S
C646 H640 0.930 . S
C646 C647 1.355 . S
C646 C648 1.415 . S
C647 C646 1.355 . S
C647 C649 1.419 . S
C648 C646 1.415 . S
C648 C653 1.425 . S
C648 C655 1.409 . S
C649 H641 0.930 . S
C649 C647 1.419 . S
C649 C650 1.362 . S
C650 H642 0.930 . S
C650 C649 1.362 . S
C650 C653 1.409 . S
C651 H643 0.930 . S
C651 C652 1.355 . S
C651 C653 1.415 . S
C652 C651 1.355 . S
C652 C654 1.419 . S
C653 C648 1.425 . S
C653 C650 1.409 . S
C653 C651 1.415 . S
C654 H644 0.930 . S
C654 C652 1.419 . S
C654 C655 1.362 . S
C655 H645 0.930 . S
C655 C648 1.409 . S
C655 C654 1.362 . S
H656 C662 0.930 . S
H657 C665 0.930 . S
H658 C666 0.930 . S
H659 C667 0.930 . S
H660 C670 0.930 . S
H661 C671 0.930 . S
C662 H656 0.930 . S
C662 C663 1.355 . S
C662 C664 1.415 . S
C663 C662 1.355 . S
C663 C665 1.419 . S
C664 C662 1.415 . S
C664 C669 1.425 . S
C664 C671 1.409 . S
C665 H657 0.930 . S
C665 C663 1.419 . S
C665 C666 1.362 . S
C666 H658 0.930 . S
C666 C665 1.362 . S
C666 C669 1.409 . S
C667 H659 0.930 . S
C667 C668 1.355 . S
C667 C669 1.415 . S
C668 C667 1.355 . S
C668 C670 1.419 . S
C669 C664 1.425 . S
C669 C666 1.409 . S
C669 C667 1.415 . S
C670 H660 0.930 . S
C670 C668 1.419 . S
C670 C671 1.362 . S
C671 H661 0.930 . S
C671 C664 1.409 . S
C671 C670 1.362 . S
H672 C678 0.930 . S
H673 C681 0.930 . S
H674 C682 0.930 . S
H675 C683 0.930 . S
H676 C686 0.930 . S
H677 C687 0.930 . S
C678 H672 0.930 . S
C678 C679 1.355 . S
C678 C680 1.415 . S
C679 C678 1.355 . S
C679 C681 1.419 . S
C680 C678 1.415 . S
C680 C685 1.425 . S
C680 C687 1.409 . S
C681 H673 0.930 . S
C681 C679 1.419 . S
C681 C682 1.362 . S
C682 H674 0.930 . S
C682 C681 1.362 . S
C682 C685 1.409 . S
C683 H675 0.930 . S
C683 C684 1.355 . S
C683 C685 1.415 . S
C684 C683 1.355 . S
C684 C686 1.419 . S
C685 C680 1.425 . S
C685 C682 1.409 . S
C685 C683 1.415 . S
C686 H676 0.930 . S
C686 C684 1.419 . S
C686 C687 1.362 . S
C687 H677 0.930 . S
C687 C680 1.409 . S
C687 C686 1.362 . S
H688 C694 0.930 . S
H689 C697 0.930 . S
H690 C698 0.930 . S
H691 C699 0.930 . S
H692 C702 0.930 . S
H693 C703 0.930 . S
C694 H688 0.930 . S
C694 C695 1.355 . S
C694 C696 1.415 . S
C695 C694 1.355 . S
C695 C697 1.419 . S
C696 C694 1.415 . S
C696 C701 1.425 . S
C696 C703 1.409 . S
C697 H689 0.930 . S
C697 C695 1.419 . S
C697 C698 1.362 . S
C698 H690 0.930 . S
C698 C697 1.362 . S
C698 C701 1.409 . S
C699 H691 0.930 . S
C699 C700 1.355 . S
C699 C701 1.415 . S
C700 C699 1.355 . S
C700 C702 1.419 . S
C701 C696 1.425 . S
C701 C698 1.409 . S
C701 C699 1.415 . S
C702 H692 0.930 . S
C702 C700 1.419 . S
C702 C703 1.362 . S
C703 H693 0.930 . S
C703 C696 1.409 . S
C703 C702 1.362 . S
H704 C710 0.930 . S
H705 C713 0.930 . S
H706 C714 0.930 . S
H707 C715 0.930 . S
H708 C718 0.930 . S
H709 C719 0.930 . S
C710 H704 0.930 . S
C710 C711 1.355 . S
C710 C712 1.415 . S
C711 C710 1.355 . S
C711 C713 1.419 . S
C712 C710 1.415 . S
C712 C717 1.425 1_556 S
C712 C719 1.409 1_556 S
C713 H705 0.930 . S
C713 C711 1.419 . S
C713 C714 1.362 . S
C714 H706 0.930 . S
C714 C713 1.362 . S
C714 C717 1.409 1_556 S
C715 H707 0.930 . S
C715 C716 1.355 . S
C715 C717 1.415 . S
C716 C715 1.355 . S
C716 C718 1.419 . S
C717 C712 1.425 1_554 S
C717 C714 1.409 1_554 S
C717 C715 1.415 . S
C718 H708 0.930 . S
C718 C716 1.419 . S
C718 C719 1.362 . S
C719 H709 0.930 . S
C719 C712 1.409 1_554 S
C719 C718 1.362 . S
H720 C726 0.930 . S
H721 C729 0.930 . S
H722 C730 0.930 . S
H723 C731 0.930 . S
H724 C734 0.930 . S
H725 C735 0.930 . S
C726 H720 0.930 . S
C726 C727 1.355 . S
C726 C728 1.415 . S
C727 C726 1.355 . S
C727 C729 1.419 . S
C728 C726 1.415 . S
C728 C733 1.425 1_556 S
C728 C735 1.409 1_556 S
C729 H721 0.930 . S
C729 C727 1.419 . S
C729 C730 1.362 . S
C730 H722 0.930 . S
C730 C729 1.362 . S
C730 C733 1.409 1_556 S
C731 H723 0.930 . S
C731 C732 1.355 . S
C731 C733 1.415 . S
C732 C731 1.355 . S
C732 C734 1.419 . S
C733 C728 1.425 1_554 S
C733 C730 1.409 1_554 S
C733 C731 1.415 . S
C734 H724 0.930 . S
C734 C732 1.419 . S
C734 C735 1.362 . S
C735 H725 0.930 . S
C735 C728 1.409 1_554 S
C735 C734 1.362 . S
H736 C742 0.930 . S
H737 C745 0.930 . S
H738 C746 0.930 . S
H739 C747 0.930 . S
H740 C750 0.930 . S
H741 C751 0.930 . S
C742 H736 0.930 . S
C742 C743 1.355 . S
C742 C744 1.415 . S
C743 C742 1.355 . S
C743 C745 1.419 . S
C744 C742 1.415 . S
C744 C749 1.425 1_556 S
C744 C751 1.409 1_556 S
C745 H737 0.930 . S
C745 C743 1.419 . S
C745 C746 1.362 . S
C746 H738 0.930 . S
C746 C745 1.362 . S
C746 C749 1.409 1_556 S
C747 H739 0.930 . S
C747 C748 1.355 . S
C747 C749 1.415 . S
C748 C747 1.355 . S
C748 C750 1.419 . S
C749 C744 1.425 1_554 S
C749 C746 1.409 1_554 S
C749 C747 1.415 . S
C750 H740 0.930 . S
C750 C748 1.419 . S
C750 C751 1.362 . S
C751 H741 0.930 . S
C751 C744 1.409 1_554 S
C751 C750 1.362 . S
H752 C758 0.930 . S
H753 C761 0.930 . S
H754 C762 0.930 . S
H755 C763 0.930 . S
H756 C766 0.930 . S
H757 C767 0.930 . S
C758 H752 0.930 . S
C758 C759 1.355 . S
C758 C760 1.415 . S
C759 C758 1.355 . S
C759 C761 1.419 . S
C760 C758 1.415 . S
C760 C765 1.425 1_554 S
C760 C767 1.409 1_554 S
C761 H753 0.930 . S
C761 C759 1.419 . S
C761 C762 1.362 . S
C762 H754 0.930 . S
C762 C761 1.362 . S
C762 C765 1.409 1_554 S
C763 H755 0.930 . S
C763 C764 1.355 . S
C763 C765 1.415 . S
C764 C763 1.355 . S
C764 C766 1.419 . S
C765 C760 1.425 1_556 S
C765 C762 1.409 1_556 S
C765 C763 1.415 . S
C766 H756 0.930 . S
C766 C764 1.419 . S
C766 C767 1.362 . S
C767 H757 0.930 . S
C767 C760 1.409 1_556 S
C767 C766 1.362 . S
H768 C774 0.930 . S
H769 C777 0.930 . S
H770 C778 0.930 . S
H771 C779 0.930 . S
H772 C782 0.930 . S
H773 C783 0.930 . S
C774 H768 0.930 . S
C774 C775 1.355 . S
C774 C776 1.415 . S
C775 C774 1.355 . S
C775 C777 1.419 . S
C776 C774 1.415 . S
C776 C781 1.425 . S
C776 C783 1.409 . S
C777 H769 0.930 . S
C777 C775 1.419 . S
C777 C778 1.362 . S
C778 H770 0.930 . S
C778 C777 1.362 . S
C778 C781 1.409 . S
C779 H771 0.930 . S
C779 C780 1.355 . S
C779 C781 1.415 . S
C780 C779 1.355 . S
C780 C782 1.419 . S
C781 C776 1.425 . S
C781 C778 1.409 . S
C781 C779 1.415 . S
C782 H772 0.930 . S
C782 C780 1.419 . S
C782 C783 1.362 . S
C783 H773 0.930 . S
C783 C776 1.409 . S
C783 C782 1.362 . S
H784 C790 0.930 . S
H785 C793 0.930 . S
H786 C794 0.930 . S
H787 C795 0.930 . S
H788 C798 0.930 . S
H789 C799 0.930 . S
C790 H784 0.930 . S
C790 C791 1.355 . S
C790 C792 1.415 . S
C791 C790 1.355 . S
C791 C793 1.419 . S
C792 C790 1.415 . S
C792 C797 1.425 . S
C792 C799 1.409 . S
C793 H785 0.930 . S
C793 C791 1.419 . S
C793 C794 1.362 . S
C794 H786 0.930 . S
C794 C793 1.362 . S
C794 C797 1.409 . S
C795 H787 0.930 . S
C795 C796 1.355 . S
C795 C797 1.415 . S
C796 C795 1.355 . S
C796 C798 1.419 . S
C797 C792 1.425 . S
C797 C794 1.409 . S
C797 C795 1.415 . S
C798 H788 0.930 . S
C798 C796 1.419 . S
C798 C799 1.362 . S
C799 H789 0.930 . S
C799 C792 1.409 . S
C799 C798 1.362 . S
H800 C806 0.930 . S
H801 C809 0.930 . S
H802 C810 0.930 . S
H803 C811 0.930 . S
H804 C814 0.930 . S
H805 C815 0.930 . S
C806 H800 0.930 . S
C806 C807 1.355 . S
C806 C808 1.415 . S
C807 C806 1.355 . S
C807 C809 1.419 . S
C808 C806 1.415 . S
C808 C813 1.425 . S
C808 C815 1.409 . S
C809 H801 0.930 . S
C809 C807 1.419 . S
C809 C810 1.362 . S
C810 H802 0.930 . S
C810 C809 1.362 . S
C810 C813 1.409 . S
C811 H803 0.930 . S
C811 C812 1.355 . S
C811 C813 1.415 . S
C812 C811 1.355 . S
C812 C814 1.419 . S
C813 C808 1.425 . S
C813 C810 1.409 . S
C813 C811 1.415 . S
C814 H804 0.930 . S
C814 C812 1.419 . S
C814 C815 1.362 . S
C815 H805 0.930 . S
C815 C808 1.409 . S
C815 C814 1.362 . S
H816 C822 0.930 . S
H817 C825 0.930 . S
H818 C826 0.930 . S
H819 C827 0.930 . S
H820 C830 0.930 . S
H821 C831 0.930 . S
C822 H816 0.930 . S
C822 C823 1.355 . S
C822 C824 1.415 . S
C823 C822 1.355 . S
C823 C825 1.419 . S
C824 C822 1.415 . S
C824 C829 1.425 . S
C824 C831 1.409 . S
C825 H817 0.930 . S
C825 C823 1.419 . S
C825 C826 1.362 . S
C826 H818 0.930 . S
C826 C825 1.362 . S
C826 C829 1.409 . S
C827 H819 0.930 . S
C827 C828 1.355 . S
C827 C829 1.415 . S
C828 C827 1.355 . S
C828 C830 1.419 . S
C829 C824 1.425 . S
C829 C826 1.409 . S
C829 C827 1.415 . S
C830 H820 0.930 . S
C830 C828 1.419 . S
C830 C831 1.362 . S
C831 H821 0.930 . S
C831 C824 1.409 . S
C831 C830 1.362 . S
H832 C838 0.930 . S
H833 C841 0.930 . S
H834 C842 0.930 . S
H835 C843 0.930 . S
H836 C846 0.930 . S
H837 C847 0.930 . S
C838 H832 0.930 . S
C838 C839 1.355 . S
C838 C840 1.415 . S
C839 C838 1.355 . S
C839 C841 1.419 . S
C840 C838 1.415 . S
C840 C845 1.425 . S
C840 C847 1.409 . S
C841 H833 0.930 . S
C841 C839 1.419 . S
C841 C842 1.362 . S
C842 H834 0.930 . S
C842 C841 1.362 . S
C842 C845 1.409 . S
C843 H835 0.930 . S
C843 C844 1.355 . S
C843 C845 1.415 . S
C844 C843 1.355 . S
C844 C846 1.419 . S
C845 C840 1.425 . S
C845 C842 1.409 . S
C845 C843 1.415 . S
C846 H836 0.930 . S
C846 C844 1.419 . S
C846 C847 1.362 . S
C847 H837 0.930 . S
C847 C840 1.409 . S
C847 C846 1.362 . S
H848 C854 0.930 . S
H849 C857 0.930 . S
H850 C858 0.930 . S
H851 C859 0.930 . S
H852 C862 0.930 . S
H853 C863 0.930 . S
C854 H848 0.930 . S
C854 C855 1.355 . S
C854 C856 1.415 . S
C855 C854 1.355 . S
C855 C857 1.419 . S
C856 C854 1.415 . S
C856 C861 1.425 . S
C856 C863 1.409 . S
C857 H849 0.930 . S
C857 C855 1.419 . S
C857 C858 1.362 . S
C858 H850 0.930 . S
C858 C857 1.362 . S
C858 C861 1.409 . S
C859 H851 0.930 . S
C859 C860 1.355 . S
C859 C861 1.415 . S
C860 C859 1.355 . S
C860 C862 1.419 . S
C861 C856 1.425 . S
C861 C858 1.409 . S
C861 C859 1.415 . S
C862 H852 0.930 . S
C862 C860 1.419 . S
C862 C863 1.362 . S
C863 H853 0.930 . S
C863 C856 1.409 . S
C863 C862 1.362 . S
H864 C870 0.930 . S
H865 C873 0.930 . S
H866 C874 0.930 . S
H867 C875 0.930 . S
H868 C878 0.930 . S
H869 C879 0.930 . S
C870 H864 0.930 . S
C870 C871 1.355 . S
C870 C872 1.415 . S
C871 C870 1.355 . S
C871 C873 1.419 . S
C872 C870 1.415 . S
C872 C877 1.425 . S
C872 C879 1.409 . S
C873 H865 0.930 . S
C873 C871 1.419 . S
C873 C874 1.362 . S
C874 H866 0.930 . S
C874 C873 1.362 . S
C874 C877 1.409 . S
C875 H867 0.930 . S
C875 C876 1.355 . S
C875 C877 1.415 . S
C876 C875 1.355 . S
C876 C878 1.419 . S
C877 C872 1.425 . S
C877 C874 1.409 . S
C877 C875 1.415 . S
C878 H868 0.930 . S
C878 C876 1.419 . S
C878 C879 1.362 . S
C879 H869 0.930 . S
C879 C872 1.409 . S
C879 C878 1.362 . S
H880 C886 0.930 . S
H881 C889 0.930 . S
H882 C890 0.930 . S
H883 C891 0.930 . S
H884 C894 0.930 . S
H885 C895 0.930 . S
C886 H880 0.930 . S
C886 C887 1.355 . S
C886 C888 1.415 . S
C887 C886 1.355 . S
C887 C889 1.419 . S
C888 C886 1.415 . S
C888 C893 1.425 . S
C888 C895 1.409 . S
C889 H881 0.930 . S
C889 C887 1.419 . S
C889 C890 1.362 . S
C890 H882 0.930 . S
C890 C889 1.362 . S
C890 C893 1.409 . S
C891 H883 0.930 . S
C891 C892 1.355 . S
C891 C893 1.415 . S
C892 C891 1.355 . S
C892 C894 1.419 . S
C893 C888 1.425 . S
C893 C890 1.409 . S
C893 C891 1.415 . S
C894 H884 0.930 . S
C894 C892 1.419 . S
C894 C895 1.362 . S
C895 H885 0.930 . S
C895 C888 1.409 . S
C895 C894 1.362 . S
H896 C902 0.930 . S
H897 C905 0.930 . S
H898 C906 0.930 . S
H899 C907 0.930 . S
H900 C910 0.930 . S
H901 C911 0.930 . S
C902 H896 0.930 . S
C902 C903 1.355 . S
C902 C904 1.415 . S
C903 C902 1.355 . S
C903 C905 1.419 . S
C904 C902 1.415 . S
C904 C909 1.425 . S
C904 C911 1.409 . S
C905 H897 0.930 . S
C905 C903 1.419 . S
C905 C906 1.362 . S
C906 H898 0.930 . S
C906 C905 1.362 . S
C906 C909 1.409 . S
C907 H899 0.930 . S
C907 C908 1.355 . S
C907 C909 1.415 . S
C908 C907 1.355 . S
C908 C910 1.419 . S
C909 C904 1.425 . S
C909 C906 1.409 . S
C909 C907 1.415 . S
C910 H900 0.930 . S
C910 C908 1.419 . S
C910 C911 1.362 . S
C911 H901 0.930 . S
C911 C904 1.409 . S
C911 C910 1.362 . S
H912 C918 0.930 . S
H913 C921 0.930 . S
H914 C922 0.930 . S
H915 C923 0.930 . S
H916 C926 0.930 . S
H917 C927 0.930 . S
C918 H912 0.930 . S
C918 C919 1.355 . S
C918 C920 1.415 . S
C919 C918 1.355 . S
C919 C921 1.419 . S
C920 C918 1.415 . S
C920 C925 1.425 . S
C920 C927 1.409 . S
C921 H913 0.930 . S
C921 C919 1.419 . S
C921 C922 1.362 . S
C922 H914 0.930 . S
C922 C921 1.362 . S
C922 C925 1.409 . S
C923 H915 0.930 . S
C923 C924 1.355 . S
C923 C925 1.415 . S
C924 C923 1.355 . S
C924 C926 1.419 . S
C925 C920 1.425 . S
C925 C922 1.409 . S
C925 C923 1.415 . S
C926 H916 0.930 . S
C926 C924 1.419 . S
C926 C927 1.362 . S
C927 H917 0.930 . S
C927 C920 1.409 . S
C927 C926 1.362 . S
H928 C934 0.930 . S
H929 C937 0.930 . S
H930 C938 0.930 . S
H931 C939 0.930 . S
H932 C942 0.930 . S
H933 C943 0.930 . S
C934 H928 0.930 . S
C934 C935 1.355 . S
C934 C936 1.415 . S
C935 C934 1.355 . S
C935 C937 1.419 . S
C936 C934 1.415 . S
C936 C941 1.425 . S
C936 C943 1.409 . S
C937 H929 0.930 . S
C937 C935 1.419 . S
C937 C938 1.362 . S
C938 H930 0.930 . S
C938 C937 1.362 . S
C938 C941 1.409 . S
C939 H931 0.930 . S
C939 C940 1.355 . S
C939 C941 1.415 . S
C940 C939 1.355 . S
C940 C942 1.419 . S
C941 C936 1.425 . S
C941 C938 1.409 . S
C941 C939 1.415 . S
C942 H932 0.930 . S
C942 C940 1.419 . S
C942 C943 1.362 . S
C943 H933 0.930 . S
C943 C936 1.409 . S
C943 C942 1.362 . S
H944 C950 0.930 . S
H945 C953 0.930 . S
H946 C954 0.930 . S
H947 C955 0.930 . S
H948 C958 0.930 . S
H949 C959 0.930 . S
C950 H944 0.930 . S
C950 C951 1.355 . S
C950 C952 1.415 . S
C951 C950 1.355 . S
C951 C953 1.419 . S
C952 C950 1.415 . S
C952 C957 1.425 . S
C952 C959 1.409 . S
C953 H945 0.930 . S
C953 C951 1.419 . S
C953 C954 1.362 . S
C954 H946 0.930 . S
C954 C953 1.362 . S
C954 C957 1.409 . S
C955 H947 0.930 . S
C955 C956 1.355 . S
C955 C957 1.415 . S
C956 C955 1.355 . S
C956 C958 1.419 . S
C957 C952 1.425 . S
C957 C954 1.409 . S
C957 C955 1.415 . S
C958 H948 0.930 . S
C958 C956 1.419 . S
C958 C959 1.362 . S
C959 H949 0.930 . S
C959 C952 1.409 . S
C959 C958 1.362 . S
H960 C966 0.930 . S
H961 C969 0.930 . S
H962 C970 0.930 1_565 S
H963 C971 0.930 . S
H964 C974 0.930 . S
H965 C975 0.930 1_545 S
C966 H960 0.930 . S
C966 C967 1.355 . S
C966 C968 1.415 . S
C967 C966 1.355 . S
C967 C969 1.419 . S
C968 C966 1.415 . S
C968 C973 1.425 1_545 S
C968 C975 1.409 1_545 S
C969 H961 0.930 . S
C969 C967 1.419 . S
C969 C970 1.362 . S
C970 H962 0.930 1_545 S
C970 C969 1.362 . S
C970 C973 1.409 1_545 S
C971 H963 0.930 . S
C971 C972 1.355 . S
C971 C973 1.415 . S
C972 C971 1.355 . S
C972 C974 1.419 . S
C973 C968 1.425 1_565 S
C973 C970 1.409 1_565 S
C973 C971 1.415 . S
C974 H964 0.930 . S
C974 C972 1.419 . S
C974 C975 1.362 . S
C975 H965 0.930 1_565 S
C975 C968 1.409 1_565 S
C975 C974 1.362 . S
H976 C982 0.930 . S
H977 C985 0.930 . S
H978 C986 0.930 1_455 S
H979 C987 0.930 . S
H980 C990 0.930 . S
H981 C991 0.930 1_655 S
C982 H976 0.930 . S
C982 C983 1.355 . S
C982 C984 1.415 . S
C983 C982 1.355 . S
C983 C985 1.419 . S
C984 C982 1.415 . S
C984 C989 1.425 1_655 S
C984 C991 1.409 1_655 S
C985 H977 0.930 . S
C985 C983 1.419 . S
C985 C986 1.362 . S
C986 H978 0.930 1_655 S
C986 C985 1.362 . S
C986 C989 1.409 1_655 S
C987 H979 0.930 . S
C987 C988 1.355 . S
C987 C989 1.415 . S
C988 C987 1.355 . S
C988 C990 1.419 . S
C989 C984 1.425 1_455 S
C989 C986 1.409 1_455 S
C989 C987 1.415 . S
C990 H980 0.930 . S
C990 C988 1.419 . S
C990 C991 1.362 . S
C991 H981 0.930 1_455 S
C991 C984 1.409 1_455 S
C991 C990 1.362 . S
H992 C998 0.930 . S
H993 C1001 0.930 . S
H994 C1002 0.930 . S
H995 C1003 0.930 . S
H996 C1006 0.930 . S
H997 C1007 0.930 . S
C998 H992 0.930 . S
C998 C999 1.355 . S
C998 C1000 1.415 . S
C999 C998 1.355 . S
C999 C1001 1.419 . S
C1000 C998 1.415 . S
C1000 C1005 1.425 1_545 S
C1000 C1007 1.409 1_545 S
C1001 H993 0.930 . S
C1001 C999 1.419 . S
C1001 C1002 1.362 . S
C1002 H994 0.930 . S
C1002 C1001 1.362 . S
C1002 C1005 1.409 1_545 S
C1003 H995 0.930 . S
C1003 C1004 1.355 . S
C1003 C1005 1.415 . S
C1004 C1003 1.355 . S
C1004 C1006 1.419 . S
C1005 C1000 1.425 1_565 S
C1005 C1002 1.409 1_565 S
C1005 C1003 1.415 . S
C1006 H996 0.930 . S
C1006 C1004 1.419 . S
C1006 C1007 1.362 . S
C1007 H997 0.930 . S
C1007 C1000 1.409 1_565 S
C1007 C1006 1.362 . S
H1008 C1014 0.930 . S
H1009 C1017 0.930 . S
H1010 C1018 0.930 . S
H1011 C1019 0.930 . S
H1012 C1022 0.930 . S
H1013 C1023 0.930 . S
C1014 H1008 0.930 . S
C1014 C1015 1.355 . S
C1014 C1016 1.415 . S
C1015 C1014 1.355 . S
C1015 C1017 1.419 . S
C1016 C1014 1.415 . S
C1016 C1021 1.425 1_455 S
C1016 C1023 1.409 1_455 S
C1017 H1009 0.930 . S
C1017 C1015 1.419 . S
C1017 C1018 1.362 . S
C1018 H1010 0.930 . S
C1018 C1017 1.362 . S
C1018 C1021 1.409 1_455 S
C1019 H1011 0.930 . S
C1019 C1020 1.355 . S
C1019 C1021 1.415 . S
C1020 C1019 1.355 . S
C1020 C1022 1.419 . S
C1021 C1016 1.425 1_655 S
C1021 C1018 1.409 1_655 S
C1021 C1019 1.415 . S
C1022 H1012 0.930 . S
C1022 C1020 1.419 . S
C1022 C1023 1.362 . S
C1023 H1013 0.930 . S
C1023 C1016 1.409 1_655 S
C1023 C1022 1.362 . S
H1024 C1030 0.930 . S
H1025 C1033 0.930 . S
H1026 C1034 0.930 . S
H1027 C1035 0.930 . S
H1028 C1038 0.930 . S
H1029 C1039 0.930 . S
C1030 H1024 0.930 . S
C1030 C1031 1.355 . S
C1030 C1032 1.415 . S
C1031 C1030 1.355 . S
C1031 C1033 1.419 . S
C1032 C1030 1.415 . S
C1032 C1037 1.425 1_545 S
C1032 C1039 1.409 1_545 S
C1033 H1025 0.930 . S
C1033 C1031 1.419 . S
C1033 C1034 1.362 . S
C1034 H1026 0.930 . S
C1034 C1033 1.362 . S
C1034 C1037 1.409 1_545 S
C1035 H1027 0.930 . S
C1035 C1036 1.355 . S
C1035 C1037 1.415 . S
C1036 C1035 1.355 . S
C1036 C1038 1.419 . S
C1037 C1032 1.425 1_565 S
C1037 C1034 1.409 1_565 S
C1037 C1035 1.415 . S
C1038 H1028 0.930 . S
C1038 C1036 1.419 . S
C1038 C1039 1.362 . S
C1039 H1029 0.930 . S
C1039 C1032 1.409 1_565 S
C1039 C1038 1.362 . S
H1040 C1046 0.930 . S
H1041 C1049 0.930 . S
H1042 C1050 0.909 1_455 S
H1043 C1051 0.930 . S
H1044 C1054 0.930 . S
H1045 C1055 0.909 1_655 S
C1046 H1040 0.930 . S
C1046 C1047 1.355 . S
C1046 C1048 1.415 . S
C1047 C1046 1.355 . S
C1047 C1049 1.419 . S
C1048 C1046 1.415 . S
C1048 C1053 1.425 1_655 S
C1048 C1055 1.397 1_655 S
C1049 H1041 0.930 . S
C1049 C1047 1.419 . S
C1049 C1050 1.395 . S
C1050 H1042 0.909 1_655 S
C1050 C1049 1.395 . S
C1050 C1053 1.397 1_655 S
C1051 H1043 0.930 . S
C1051 C1052 1.355 . S
C1051 C1053 1.415 . S
C1052 C1051 1.355 . S
C1052 C1054 1.419 . S
C1053 C1048 1.425 1_455 S
C1053 C1050 1.397 1_455 S
C1053 C1051 1.415 . S
C1054 H1044 0.930 . S
C1054 C1052 1.419 . S
C1054 C1055 1.395 . S
C1055 H1045 0.909 1_455 S
C1055 C1048 1.397 1_455 S
C1055 C1054 1.395 . S
H1056 C1062 0.930 . S
H1057 C1065 0.930 . S
H1058 C1066 0.930 . S
H1059 C1067 0.930 . S
H1060 C1070 0.930 . S
H1061 C1071 0.930 . S
C1062 H1056 0.930 . S
C1062 C1063 1.355 . S
C1062 C1064 1.415 . S
C1063 C1062 1.355 . S
C1063 C1065 1.419 . S
C1064 C1062 1.415 . S
C1064 C1069 1.425 1_565 S
C1064 C1071 1.409 1_565 S
C1065 H1057 0.930 . S
C1065 C1063 1.419 . S
C1065 C1066 1.362 . S
C1066 H1058 0.930 . S
C1066 C1065 1.362 . S
C1066 C1069 1.409 1_565 S
C1067 H1059 0.930 . S
C1067 C1068 1.355 . S
C1067 C1069 1.415 . S
C1068 C1067 1.355 . S
C1068 C1070 1.419 . S
C1069 C1064 1.425 1_545 S
C1069 C1066 1.409 1_545 S
C1069 C1067 1.415 . S
C1070 H1060 0.930 . S
C1070 C1068 1.419 . S
C1070 C1071 1.362 . S
C1071 H1061 0.930 . S
C1071 C1064 1.409 1_545 S
C1071 C1070 1.362 . S
H1072 C1078 0.930 . S
H1073 C1081 0.930 . S
H1074 C1082 0.930 . S
H1075 C1083 0.930 . S
H1076 C1086 0.930 . S
H1077 C1087 0.930 . S
C1078 H1072 0.930 . S
C1078 C1079 1.355 . S
C1078 C1080 1.415 . S
C1079 C1078 1.355 . S
C1079 C1081 1.419 . S
C1080 C1078 1.415 . S
C1080 C1085 1.425 1_455 S
C1080 C1087 1.409 1_455 S
C1081 H1073 0.930 . S
C1081 C1079 1.419 . S
C1081 C1082 1.362 . S
C1082 H1074 0.930 . S
C1082 C1081 1.362 . S
C1082 C1085 1.409 1_455 S
C1083 H1075 0.930 . S
C1083 C1084 1.355 . S
C1083 C1085 1.415 . S
C1084 C1083 1.355 . S
C1084 C1086 1.419 . S
C1085 C1080 1.425 1_655 S
C1085 C1082 1.409 1_655 S
C1085 C1083 1.415 . S
C1086 H1076 0.930 . S
C1086 C1084 1.419 . S
C1086 C1087 1.362 . S
C1087 H1077 0.930 . S
C1087 C1080 1.409 1_655 S
C1087 C1086 1.362 . S
C583 C184 1.416 . S
C588 C4 1.408 . S
C599 C220 1.411 . S
C604 C40 1.416 . S
C615 C76 1.408 . S
C620 C256 1.411 . S
C631 C112 1.409 . S
C636 C148 1.410 . S
C647 C472 1.413 . S
C652 C292 1.408 . S
C663 C508 1.416 . S
C668 C328 1.411 . S
C679 C364 1.408 . S
C684 C544 1.414 . S
C695 C400 1.408 . S
C700 C436 1.416 . S
C711 C374 1.513 . S
C716 C14 1.497 . S
C727 C410 1.513 . S
C732 C50 1.508 . S
C743 C302 1.502 . S
C748 C86 1.514 . S
C759 C122 1.456 . S
C764 C338 1.460 . S
C775 C518 1.459 . S
C780 C158 1.480 . S
C791 C554 1.469 . S
C796 C194 1.494 . S
C807 C230 1.470 . S
C812 C446 1.496 . S
C823 C482 1.478 . S
C828 C266 1.458 . S
C839 C146 1.159 . S
C844 C2 1.137 . S
C855 C38 1.126 . S
C860 C182 1.136 . S
C871 C74 1.138 . S
C876 C218 1.158 . S
C887 C254 1.118 . S
C892 C110 1.148 . S
C903 C291 1.697 . S
C908 C435 1.698 . S
C919 C471 1.694 . S
C924 C327 1.695 . S
C935 C363 1.696 . S
C940 C507 1.697 . S
C951 C543 1.687 . S
C956 C399 1.687 . S
C967 C398 1.123 . S
C972 C470 1.163 . S
C983 C290 1.137 . S
C988 C506 1.159 . S
C999 C542 1.164 . S
C1004 C326 1.124 . S
C1015 C362 1.161 . S
C1020 C434 1.117 . S
C1031 C183 1.691 . S
C1036 C111 1.693 . S
C1047 C219 1.697 . S
C1052 C3 1.698 . S
C1063 C255 1.696 . S
C1068 C39 1.695 . S
C1079 C147 1.687 . S
C1084 C75 1.688 . S
