# Generated by pormake.
# Topology lcy-e, (6)-cn, num edge types: 1
# Building blocks:
#     Node 0, Type 0, BuildingBlock: BETFEN_clean_sbu_0, # of connection points: 6
#     Node 1, Type 0, BuildingBlock: BETFEN_clean_sbu_0, # of connection points: 6
#     Node 2, Type 0, BuildingBlock: BETFEN_clean_sbu_0, # of connection points: 6
#     Node 3, Type 0, BuildingBlock: BETFEN_clean_sbu_0, # of connection points: 6
#     Node 4, Type 0, BuildingBlock: BETFEN_clean_sbu_0, # of connection points: 6
#     Node 5, Type 0, BuildingBlock: BETFEN_clean_sbu_0, # of connection points: 6
#     Node 6, Type 0, BuildingBlock: BETFEN_clean_sbu_0, # of connection points: 6
#     Node 7, Type 0, BuildingBlock: BETFEN_clean_sbu_0, # of connection points: 6
#     Node 8, Type 0, BuildingBlock: BETFEN_clean_sbu_0, # of connection points: 6
#     Node 9, Type 0, BuildingBlock: BETFEN_clean_sbu_0, # of connection points: 6
#     Node 10, Type 0, BuildingBlock: BETFEN_clean_sbu_0, # of connection points: 6
#     Node 11, Type 0, BuildingBlock: BETFEN_clean_sbu_0, # of connection points: 6
#     Edge 12, Type (0, 0), BuildingBlock: TEMPAE_clean_linker_10, # of connection points: 2
#     Edge 13, Type (0, 0), BuildingBlock: TEMPAE_clean_linker_10, # of connection points: 2
#     Edge 14, Type (0, 0), BuildingBlock: TEMPAE_clean_linker_10, # of connection points: 2
#     Edge 15, Type (0, 0), BuildingBlock: TEMPAE_clean_linker_10, # of connection points: 2
#     Edge 16, Type (0, 0), BuildingBlock: TEMPAE_clean_linker_10, # of connection points: 2
#     Edge 17, Type (0, 0), BuildingBlock: TEMPAE_clean_linker_10, # of connection points: 2
#     Edge 18, Type (0, 0), BuildingBlock: TEMPAE_clean_linker_10, # of connection points: 2
#     Edge 19, Type (0, 0), BuildingBlock: TEMPAE_clean_linker_10, # of connection points: 2
#     Edge 20, Type (0, 0), BuildingBlock: TEMPAE_clean_linker_10, # of connection points: 2
#     Edge 21, Type (0, 0), BuildingBlock: TEMPAE_clean_linker_10, # of connection points: 2
#     Edge 22, Type (0, 0), BuildingBlock: TEMPAE_clean_linker_10, # of connection points: 2
#     Edge 23, Type (0, 0), BuildingBlock: TEMPAE_clean_linker_10, # of connection points: 2
#     Edge 24, Type (0, 0), BuildingBlock: TEMPAE_clean_linker_10, # of connection points: 2
#     Edge 25, Type (0, 0), BuildingBlock: TEMPAE_clean_linker_10, # of connection points: 2
#     Edge 26, Type (0, 0), BuildingBlock: TEMPAE_clean_linker_10, # of connection points: 2
#     Edge 27, Type (0, 0), BuildingBlock: TEMPAE_clean_linker_10, # of connection points: 2
#     Edge 28, Type (0, 0), BuildingBlock: TEMPAE_clean_linker_10, # of connection points: 2
#     Edge 29, Type (0, 0), BuildingBlock: TEMPAE_clean_linker_10, # of connection points: 2
#     Edge 30, Type (0, 0), BuildingBlock: TEMPAE_clean_linker_10, # of connection points: 2
#     Edge 31, Type (0, 0), BuildingBlock: TEMPAE_clean_linker_10, # of connection points: 2
#     Edge 32, Type (0, 0), BuildingBlock: TEMPAE_clean_linker_10, # of connection points: 2
#     Edge 33, Type (0, 0), BuildingBlock: TEMPAE_clean_linker_10, # of connection points: 2
#     Edge 34, Type (0, 0), BuildingBlock: TEMPAE_clean_linker_10, # of connection points: 2
#     Edge 35, Type (0, 0), BuildingBlock: TEMPAE_clean_linker_10, # of connection points: 2
#     Edge 36, Type (0, 0), BuildingBlock: TEMPAE_clean_linker_10, # of connection points: 2
#     Edge 37, Type (0, 0), BuildingBlock: TEMPAE_clean_linker_10, # of connection points: 2
#     Edge 38, Type (0, 0), BuildingBlock: TEMPAE_clean_linker_10, # of connection points: 2
#     Edge 39, Type (0, 0), BuildingBlock: TEMPAE_clean_linker_10, # of connection points: 2
#     Edge 40, Type (0, 0), BuildingBlock: TEMPAE_clean_linker_10, # of connection points: 2
#     Edge 41, Type (0, 0), BuildingBlock: TEMPAE_clean_linker_10, # of connection points: 2
#     Edge 42, Type (0, 0), BuildingBlock: TEMPAE_clean_linker_10, # of connection points: 2
#     Edge 43, Type (0, 0), BuildingBlock: TEMPAE_clean_linker_10, # of connection points: 2
#     Edge 44, Type (0, 0), BuildingBlock: TEMPAE_clean_linker_10, # of connection points: 2
#     Edge 45, Type (0, 0), BuildingBlock: TEMPAE_clean_linker_10, # of connection points: 2
#     Edge 46, Type (0, 0), BuildingBlock: TEMPAE_clean_linker_10, # of connection points: 2
#     Edge 47, Type (0, 0), BuildingBlock: TEMPAE_clean_linker_10, # of connection points: 2
# Relax obj value: 0.212
# Max RMSD: 0.305
# Mean RMSD: 0.292
data_MOF--net-lcy-e--node1-BETFEN_clean_sbu_0--edge1-TEMPAE_clean_linker_10
_symmetry_space_group_name_H-M    P1
_symmetry_Int_Tables_number       1
_symmetry_cell_setting            triclinic
loop_
_symmetry_equiv_pos_as_xyz
'x, y, z'
_cell_length_a     45.126263
_cell_length_b     43.860671
_cell_length_c     46.310212
_cell_angle_alpha  89.928097
_cell_angle_beta   88.222093
_cell_angle_gamma 88.285953
loop_
_atom_site_label
_atom_site_type_symbol
_atom_site_fract_x
_atom_site_fract_y
_atom_site_fract_z
_atom_type_partial_charge
Pr0 Pr 0.12292 0.23803 0.50865 0.0
Pr1 Pr 0.11358 0.28274 0.45868 0.0
C2 C 0.12715 0.20711 0.55877 0.0
C3 C 0.11336 0.17981 0.57105 0.0
C4 C 0.10175 0.15773 0.55298 0.0
C5 C 0.08841 0.13198 0.56482 0.0
C6 C 0.08618 0.12802 0.59495 0.0
C7 C 0.09755 0.15044 0.61294 0.0
C8 C 0.11103 0.1761 0.60107 0.0
C9 C 0.15787 0.22525 0.45878 0.0
C10 C 0.07069 0.22129 0.46474 0.0
C11 C 0.11017 0.30883 0.40605 0.0
C12 C 0.12751 0.32296 0.38207 0.0
C13 C 0.12367 0.35427 0.37643 0.0
C14 C 0.13692 0.36732 0.35185 0.0
C15 C 0.15412 0.34931 0.33215 0.0
C16 C 0.15867 0.31813 0.3382 0.0
C17 C 0.14558 0.3051 0.36291 0.0
C18 C 0.08158 0.29764 0.50964 0.0
C19 C 0.1604 0.30256 0.50499 0.0
O20 O 0.10946 0.23094 0.55569 0.0
O21 O 0.14553 0.20268 0.5367 0.0
O22 O 0.15303 0.25131 0.46963 0.0
O23 O 0.14462 0.20441 0.47392 0.0
O24 O 0.08094 0.24352 0.4483 0.0
O25 O 0.08133 0.21559 0.49043 0.0
O26 O 0.11389 0.27943 0.41011 0.0
O27 O 0.10572 0.32422 0.43012 0.0
O28 O 0.08477 0.27134 0.4988 0.0
O29 O 0.09317 0.31796 0.4926 0.0
O30 O 0.14762 0.28238 0.52224 0.0
O31 O 0.15606 0.30253 0.47699 0.0
H32 H 0.10296 0.16042 0.52972 0.0
H33 H 0.07955 0.11533 0.55042 0.0
H34 H 0.09644 0.14791 0.63622 0.0
H35 H 0.11967 0.19303 0.61533 0.0
H36 H 0.1096 0.36853 0.39054 0.0
H37 H 0.13263 0.39132 0.34765 0.0
H38 H 0.17201 0.30371 0.32358 0.0
H39 H 0.14899 0.28086 0.36652 0.0
Pr40 Pr 0.96578 0.88799 0.72041 0.0
Pr41 Pr 0.02043 0.89834 0.75843 0.0
C42 C 0.92099 0.8878 0.68302 0.0
C43 C 0.91054 0.90401 0.65695 0.0
C44 C 0.91004 0.88784 0.63083 0.0
C45 C 0.90094 0.90218 0.60554 0.0
C46 C 0.89181 0.93309 0.60569 0.0
C47 C 0.89191 0.94932 0.63192 0.0
C48 C 0.90133 0.93495 0.65732 0.0
C49 C 0.01048 0.843 0.71624 0.0
C50 C 0.01318 0.94271 0.70139 0.0
C51 C 0.07551 0.89818 0.77975 0.0
C52 C 0.09633 0.88637 0.80139 0.0
C53 C 0.12137 0.90322 0.8072 0.0
C54 C 0.14398 0.89077 0.82397 0.0
C55 C 0.14208 0.8611 0.83537 0.0
C56 C 0.11633 0.84469 0.83052 0.0
C57 C 0.09371 0.85715 0.81356 0.0
C58 C 0.96719 0.9267 0.77877 0.0
C59 C 0.9703 0.85221 0.78223 0.0
O60 O 0.91864 0.90148 0.70816 0.0
O61 O 0.94559 0.8716 0.67955 0.0
O62 O 0.01479 0.87136 0.71652 0.0
O63 O 0.98248 0.83726 0.71843 0.0
O64 O 0.02863 0.93614 0.72436 0.0
O65 O 0.98918 0.92777 0.69503 0.0
O66 O 0.06694 0.87877 0.76051 0.0
O67 O 0.05494 0.91857 0.78742 0.0
O68 O 0.97628 0.92519 0.75268 0.0
O69 O 0.98709 0.91517 0.79581 0.0
O70 O 0.95117 0.86591 0.76486 0.0
O71 O 0.9992 0.85532 0.77851 0.0
H72 H 0.91677 0.86392 0.62995 0.0
H73 H 0.90058 0.88885 0.58588 0.0
H74 H 0.88502 0.97318 0.6327 0.0
H75 H 0.90149 0.94805 0.67712 0.0
H76 H 0.12394 0.92571 0.7979 0.0
H77 H 0.16322 0.90426 0.82769 0.0
H78 H 0.11418 0.82177 0.83889 0.0
H79 H 0.07467 0.84361 0.80917 0.0
Pr80 Pr 0.3717 0.74548 0.97513 0.0
Pr81 Pr 0.34881 0.79681 0.01349 0.0
C82 C 0.38477 0.69422 0.94502 0.0
C83 C 0.37842 0.68547 0.91528 0.0
C84 C 0.38433 0.65558 0.9057 0.0
C85 C 0.37484 0.64632 0.87868 0.0
C86 C 0.3591 0.66679 0.86087 0.0
C87 C 0.35396 0.697 0.87035 0.0
C88 C 0.36351 0.70623 0.89731 0.0
C89 C 0.39593 0.8019 0.96012 0.0
C90 C 0.31571 0.78807 0.9536 0.0
C91 C 0.33902 0.84673 0.0465 0.0
C92 C 0.35675 0.86991 0.06044 0.0
C93 C 0.34954 0.8789 0.08889 0.0
C94 C 0.36526 0.90182 0.102 0.0
C95 C 0.38837 0.91627 0.08679 0.0
C96 C 0.39593 0.90682 0.05847 0.0
C97 C 0.38036 0.88375 0.04544 0.0
C98 C 0.31803 0.74205 0.01922 0.0
C99 C 0.40367 0.75423 0.03821 0.0
O100 O 0.36119 0.69766 0.96198 0.0
O101 O 0.4039 0.71579 0.94811 0.0
O102 O 0.392 0.79215 0.98554 0.0
O103 O 0.3864 0.78262 0.94159 0.0
O104 O 0.32667 0.80899 0.97016 0.0
O105 O 0.32582 0.75957 0.95499 0.0
O106 O 0.33894 0.8472 0.01824 0.0
O107 O 0.34028 0.81915 0.0573 0.0
O108 O 0.3454 0.74523 0.01752 0.0
O109 O 0.30431 0.76849 0.01868 0.0
O110 O 0.39956 0.7351 0.01666 0.0
O111 O 0.38995 0.78119 0.0394 0.0
H112 H 0.39561 0.63922 0.91941 0.0
H113 H 0.37955 0.62302 0.87186 0.0
H114 H 0.34162 0.71324 0.8574 0.0
H115 H 0.35841 0.72933 0.90455 0.0
H116 H 0.33144 0.8685 0.10082 0.0
H117 H 0.3588 0.90883 0.12378 0.0
H118 H 0.41385 0.91733 0.04637 0.0
H119 H 0.38656 0.87705 0.02353 0.0
Pr120 Pr 0.5188 0.14283 0.21346 0.0
Pr121 Pr 0.46263 0.13454 0.25324 0.0
C122 C 0.5708 0.14609 0.1832 0.0
C123 C 0.58305 0.13507 0.15469 0.0
C124 C 0.58478 0.15508 0.13098 0.0
C125 C 0.59618 0.14494 0.10406 0.0
C126 C 0.6064 0.11454 0.10015 0.0
C127 C 0.60482 0.09455 0.12392 0.0
C128 C 0.59329 0.10466 0.15081 0.0
C129 C 0.46994 0.18111 0.2018 0.0
C130 C 0.47122 0.09369 0.19208 0.0
C131 C 0.40654 0.13212 0.27496 0.0
C132 C 0.38191 0.14676 0.29196 0.0
C133 C 0.38666 0.16721 0.31453 0.0
C134 C 0.36255 0.17921 0.3312 0.0
C135 C 0.33331 0.17094 0.32556 0.0
C136 C 0.32885 0.15081 0.30257 0.0
C137 C 0.35286 0.13894 0.28598 0.0
C138 C 0.51134 0.09726 0.26673 0.0
C139 C 0.51351 0.17551 0.27899 0.0
O140 O 0.56585 0.12568 0.20324 0.0
O141 O 0.5502 0.1677 0.18297 0.0
O142 O 0.47906 0.17498 0.22664 0.0
O143 O 0.48623 0.16743 0.18186 0.0
O144 O 0.4529 0.10534 0.21225 0.0
O145 O 0.49911 0.10169 0.18966 0.0
O146 O 0.41312 0.14349 0.2495 0.0
O147 O 0.42966 0.12168 0.28867 0.0
O148 O 0.50301 0.10339 0.24155 0.0
O149 O 0.49233 0.108 0.28609 0.0
O150 O 0.53153 0.16343 0.25857 0.0
O151 O 0.48443 0.17339 0.27797 0.0
H152 H 0.57739 0.17871 0.13325 0.0
H153 H 0.59751 0.16111 0.08641 0.0
H154 H 0.61227 0.07095 0.12168 0.0
H155 H 0.5924 0.08857 0.16854 0.0
H156 H 0.40896 0.17363 0.31943 0.0
H157 H 0.3668 0.19491 0.34851 0.0
H158 H 0.30681 0.14349 0.29784 0.0
H159 H 0.34875 0.12308 0.26873 0.0
Pr160 Pr 0.63057 0.25074 0.52682 0.0
Pr161 Pr 0.63903 0.30644 0.48718 0.0
C162 C 0.62642 0.19661 0.55425 0.0
C163 C 0.63369 0.18443 0.58288 0.0
C164 C 0.64078 0.20405 0.6054 0.0
C165 C 0.64817 0.19222 0.63242 0.0
C166 C 0.64877 0.16053 0.63734 0.0
C167 C 0.64164 0.14101 0.61462 0.0
C168 C 0.63418 0.15288 0.58765 0.0
C169 C 0.59407 0.30149 0.54086 0.0
C170 C 0.6788 0.30007 0.54723 0.0
C171 C 0.64046 0.36245 0.46315 0.0
C172 C 0.62297 0.38474 0.44605 0.0
C173 C 0.63373 0.39334 0.41857 0.0
C174 C 0.61905 0.41614 0.40289 0.0
C175 C 0.59334 0.43108 0.41443 0.0
C176 C 0.58225 0.42214 0.44178 0.0
C177 C 0.59686 0.39915 0.45742 0.0
C178 C 0.67409 0.25479 0.47242 0.0
C179 C 0.59707 0.25546 0.46344 0.0
O180 O 0.649 0.20357 0.53741 0.0
O181 O 0.60458 0.21684 0.55352 0.0
O182 O 0.59955 0.29171 0.5156 0.0
O183 O 0.60727 0.28465 0.55999 0.0
O184 O 0.66851 0.31787 0.52653 0.0
O185 O 0.66977 0.27193 0.55083 0.0
O186 O 0.63175 0.35753 0.48996 0.0
O187 O 0.65104 0.33789 0.44995 0.0
O188 O 0.66913 0.26502 0.49755 0.0
O189 O 0.6625 0.27294 0.45333 0.0
O190 O 0.61008 0.23697 0.4822 0.0
O191 O 0.5991 0.28526 0.46552 0.0
H192 H 0.64076 0.2285 0.60201 0.0
H193 H 0.6539 0.20785 0.64931 0.0
H194 H 0.64157 0.11654 0.61776 0.0
H195 H 0.62884 0.13741 0.57047 0.0
H196 H 0.65395 0.38288 0.40942 0.0
H197 H 0.62841 0.42275 0.38207 0.0
H198 H 0.56235 0.43302 0.45115 0.0
H199 H 0.58796 0.39308 0.47858 0.0
Pr200 Pr 0.9767 0.39843 0.72255 0.0
Pr201 Pr 0.02307 0.38001 0.77236 0.0
C202 C 0.94708 0.39661 0.67309 0.0
C203 C 0.91694 0.39122 0.6634 0.0
C204 C 0.91024 0.39635 0.63444 0.0
C205 C 0.88291 0.38791 0.62401 0.0
C206 C 0.86179 0.37401 0.64234 0.0
C207 C 0.86829 0.36981 0.67165 0.0
C208 C 0.89565 0.37831 0.68207 0.0
C209 C 0.95998 0.42923 0.77399 0.0
C210 C 0.96214 0.34143 0.76911 0.0
C211 C 0.05932 0.37657 0.81746 0.0
C212 C 0.06763 0.39302 0.84361 0.0
C213 C 0.07075 0.37653 0.86932 0.0
C214 C 0.07937 0.39096 0.89442 0.0
C215 C 0.08515 0.42228 0.89436 0.0
C216 C 0.08165 0.43895 0.86861 0.0
C217 C 0.07284 0.42446 0.84344 0.0
C218 C 0.03222 0.35169 0.71802 0.0
C219 C 0.0357 0.43989 0.73236 0.0
O220 O 0.96077 0.37283 0.68428 0.0
O221 O 0.95147 0.42221 0.68681 0.0
O222 O 0.98147 0.4105 0.77017 0.0
O223 O 0.94547 0.432 0.75025 0.0
O224 O 0.9828 0.3511 0.7861 0.0
O225 O 0.95816 0.35307 0.74303 0.0
O226 O 0.03289 0.36508 0.81792 0.0
O227 O 0.06745 0.38763 0.79224 0.0
O228 O 0.02385 0.37862 0.72317 0.0
O229 O 0.03882 0.33802 0.74201 0.0
O230 O 0.018 0.4292 0.71255 0.0
O231 O 0.03448 0.42978 0.75926 0.0
H232 H 0.92646 0.40618 0.6197 0.0
H233 H 0.87845 0.39194 0.60145 0.0
H234 H 0.85268 0.35895 0.6863 0.0
H235 H 0.90057 0.37394 0.70448 0.0
H236 H 0.06687 0.35226 0.8699 0.0
H237 H 0.08229 0.37736 0.91372 0.0
H238 H 0.08572 0.46315 0.86796 0.0
H239 H 0.07031 0.43775 0.82389 0.0
Pr240 Pr 0.86855 0.7738 0.0375 0.0
Pr241 Pr 0.85836 0.72033 0.99531 0.0
C242 C 0.86452 0.82266 0.07295 0.0
C243 C 0.85699 0.8307 0.10326 0.0
C244 C 0.86818 0.85732 0.11483 0.0
C245 C 0.86026 0.86637 0.14301 0.0
C246 C 0.84094 0.84894 0.16035 0.0
C247 C 0.83005 0.82192 0.14878 0.0
C248 C 0.83807 0.81284 0.12049 0.0
C249 C 0.90807 0.72492 0.04361 0.0
C250 C 0.81394 0.7246 0.05208 0.0
C251 C 0.86254 0.67056 0.96075 0.0
C252 C 0.88209 0.64756 0.94537 0.0
C253 C 0.88469 0.64808 0.91506 0.0
C254 C 0.89926 0.62412 0.8999 0.0
C255 C 0.91149 0.59885 0.91464 0.0
C256 C 0.90983 0.59888 0.94504 0.0
C257 C 0.8953 0.6229 0.96022 0.0
C258 C 0.82407 0.77403 0.98596 0.0
C259 C 0.90712 0.77025 0.97697 0.0
O260 O 0.84274 0.81393 0.0572 0.0
O261 O 0.8893 0.80706 0.0679 0.0
O262 O 0.88059 0.72202 0.03975 0.0
O263 O 0.91506 0.75324 0.04626 0.0
O264 O 0.8232 0.70745 0.03013 0.0
O265 O 0.82649 0.75056 0.05828 0.0
O266 O 0.86021 0.66922 0.98895 0.0
O267 O 0.86096 0.69846 0.95072 0.0
O268 O 0.85059 0.77188 0.99267 0.0
O269 O 0.81402 0.74705 0.98114 0.0
O270 O 0.89234 0.78964 0.99442 0.0
O271 O 0.90368 0.74062 0.98005 0.0
H272 H 0.88269 0.87147 0.10183 0.0
H273 H 0.86863 0.88759 0.15091 0.0
H274 H 0.81532 0.80784 0.16155 0.0
H275 H 0.82924 0.79211 0.11197 0.0
H276 H 0.87443 0.6665 0.90295 0.0
H277 H 0.89973 0.62476 0.87651 0.0
H278 H 0.91929 0.58001 0.95713 0.0
H279 H 0.89364 0.62162 0.98357 0.0
Pr280 Pr 0.514 0.63717 0.23826 0.0
Pr281 Pr 0.47336 0.65561 0.28831 0.0
C282 C 0.54382 0.62407 0.18832 0.0
C283 C 0.57187 0.63488 0.17573 0.0
C284 C 0.59233 0.64875 0.19335 0.0
C285 C 0.61875 0.65968 0.18141 0.0
C286 C 0.62506 0.65715 0.15158 0.0
C287 C 0.60433 0.64347 0.13396 0.0
C288 C 0.57793 0.63241 0.14598 0.0
C289 C 0.52638 0.60652 0.28969 0.0
C290 C 0.53692 0.69239 0.27773 0.0
C291 C 0.4487 0.66824 0.34089 0.0
C292 C 0.43477 0.65329 0.36612 0.0
C293 C 0.43962 0.66481 0.39373 0.0
C294 C 0.42675 0.65128 0.41818 0.0
C295 C 0.40868 0.62593 0.41551 0.0
C296 C 0.40402 0.61424 0.38777 0.0
C297 C 0.41708 0.62773 0.36325 0.0
C298 C 0.46122 0.68608 0.23657 0.0
C299 C 0.44891 0.6041 0.24761 0.0
O300 O 0.52216 0.64444 0.19025 0.0
O301 O 0.54597 0.60727 0.21152 0.0
O302 O 0.50072 0.61124 0.28019 0.0
O303 O 0.54652 0.61818 0.27275 0.0
O304 O 0.51554 0.68451 0.29612 0.0
O305 O 0.53968 0.6799 0.2519 0.0
O306 O 0.47708 0.66256 0.33644 0.0
O307 O 0.43383 0.66967 0.31707 0.0
O308 O 0.48655 0.68086 0.24641 0.0
O309 O 0.44064 0.67743 0.25474 0.0
O310 O 0.4686 0.61429 0.22844 0.0
O311 O 0.45018 0.61163 0.27503 0.0
H312 H 0.58781 0.65124 0.21636 0.0
H313 H 0.63408 0.67048 0.19545 0.0
H314 H 0.60871 0.64099 0.11094 0.0
H315 H 0.56225 0.62197 0.13206 0.0
H316 H 0.45327 0.68447 0.39636 0.0
H317 H 0.43045 0.66109 0.43917 0.0
H318 H 0.39041 0.59459 0.38505 0.0
H319 H 0.41332 0.61827 0.34212 0.0
Pr320 Pr 0.20363 0.53172 0.12886 0.0
Pr321 Pr 0.24997 0.47725 0.10867 0.0
C322 C 0.17129 0.58397 0.13012 0.0
C323 C 0.13986 0.59099 0.1252 0.0
C324 C 0.12182 0.56856 0.11406 0.0
C325 C 0.0925 0.57576 0.10717 0.0
C326 C 0.0807 0.60548 0.11149 0.0
C327 C 0.09872 0.62766 0.12335 0.0
C328 C 0.12809 0.62046 0.13009 0.0
C329 C 0.18932 0.47764 0.15789 0.0
C330 C 0.18874 0.48663 0.07277 0.0
C331 C 0.28597 0.42745 0.10282 0.0
C332 C 0.30144 0.40304 0.11888 0.0
C333 C 0.30011 0.37299 0.10885 0.0
C334 C 0.31551 0.34931 0.12255 0.0
C335 C 0.3327 0.35517 0.14662 0.0
C336 C 0.33361 0.38528 0.15702 0.0
C337 C 0.31802 0.40904 0.14332 0.0
C338 C 0.25468 0.53384 0.08081 0.0
C339 C 0.26538 0.5204 0.16469 0.0
O340 O 0.18665 0.57446 0.1072 0.0
O341 O 0.17717 0.56839 0.15358 0.0
O342 O 0.20985 0.48109 0.13928 0.0
O343 O 0.17416 0.50309 0.16122 0.0
O344 O 0.20998 0.46709 0.08018 0.0
O345 O 0.18415 0.51323 0.08587 0.0
O346 O 0.25701 0.42642 0.1024 0.0
O347 O 0.29585 0.45521 0.1043 0.0
O348 O 0.24947 0.52911 0.10713 0.0
O349 O 0.25981 0.50814 0.06724 0.0
O350 O 0.24493 0.54088 0.15683 0.0
O351 O 0.26748 0.4927 0.1533 0.0
H352 H 0.13062 0.54562 0.11016 0.0
H353 H 0.07914 0.55817 0.09826 0.0
H354 H 0.09043 0.65088 0.1265 0.0
H355 H 0.1418 0.63805 0.13851 0.0
H356 H 0.2875 0.36789 0.09 0.0
H357 H 0.31467 0.32651 0.11372 0.0
H358 H 0.34645 0.39047 0.17567 0.0
H359 H 0.3192 0.43204 0.15161 0.0
Pr360 Pr 0.76076 0.04306 0.87145 0.0
Pr361 Pr 0.70175 1.00043 0.869 0.0
C362 C 0.81249 0.07036 0.85904 0.0
C363 C 0.8257 0.10066 0.85636 0.0
C364 C 0.85656 0.10303 0.85714 0.0
C365 C 0.87001 0.13041 0.84962 0.0
C366 C 0.85286 0.15598 0.8409 0.0
C367 C 0.82176 0.15386 0.84138 0.0
C368 C 0.80833 0.12649 0.84904 0.0
C369 C 0.71756 0.06234 0.91326 0.0
C370 C 0.70777 0.06157 0.82516 0.0
C371 C 0.64575 0.9804 0.87116 0.0
C372 C 0.62211 0.9602 0.88163 0.0
C373 C 0.59672 0.95795 0.86516 0.0
C374 C 0.57239 0.94172 0.87549 0.0
C375 C 0.57293 0.92717 0.90255 0.0
C376 C 0.59878 0.92871 0.91875 0.0
C377 C 0.62312 0.9453 0.90846 0.0
C378 C 0.75321 0.97872 0.83905 0.0
C379 C 0.75492 0.97851 0.91004 0.0
O380 O 0.79272 0.06447 0.83998 0.0
O381 O 0.80586 0.05974 0.88486 0.0
O382 O 0.7159 0.04113 0.89514 0.0
O383 O 0.74268 0.07565 0.90918 0.0
O384 O 0.69233 0.03793 0.834 0.0
O385 O 0.73334 0.06856 0.83629 0.0
O386 O 0.65553 1.00058 0.88907 0.0
O387 O 0.66583 0.97017 0.85223 0.0
O388 O 0.74411 0.00621 0.8414 0.0
O389 O 0.73375 0.96054 0.85065 0.0
O390 O 0.77308 0.99625 0.89475 0.0
O391 O 0.72569 0.98133 0.90904 0.0
H392 H 0.87038 0.08334 0.86253 0.0
H393 H 0.89394 0.13134 0.85009 0.0
H394 H 0.80782 0.1729 0.83459 0.0
H395 H 0.78445 0.12513 0.84803 0.0
H396 H 0.59542 0.9694 0.84446 0.0
H397 H 0.55305 0.94062 0.86229 0.0
H398 H 0.59985 0.91782 0.93971 0.0
H399 H 0.64243 0.94696 0.92164 0.0
Pr400 Pr 0.77733 0.03417 0.36156 0.0
Pr401 Pr 0.73715 0.98503 0.38349 0.0
C402 C 0.81698 0.07796 0.35065 0.0
C403 C 0.84172 0.09238 0.36488 0.0
C404 C 0.86662 0.10047 0.34807 0.0
C405 C 0.89125 0.1125 0.36102 0.0
C406 C 0.89147 0.11676 0.39109 0.0
C407 C 0.86629 0.10897 0.40793 0.0
C408 C 0.84166 0.0967 0.39494 0.0
C409 C 0.77783 0.98344 0.32534 0.0
C410 C 0.79641 0.99303 0.4194 0.0
C411 C 0.70197 0.93674 0.39126 0.0
C412 C 0.68761 0.91236 0.37553 0.0
C413 C 0.68272 0.88464 0.38966 0.0
C414 C 0.66918 0.86092 0.37552 0.0
C415 C 0.66022 0.86441 0.34685 0.0
C416 C 0.66523 0.89229 0.33264 0.0
C417 C 0.67893 0.91607 0.34684 0.0
C418 C 0.73161 0.03966 0.4153 0.0
C419 C 0.71326 0.03007 0.33205 0.0
O420 O 0.79009 0.08383 0.36091 0.0
O421 O 0.82151 0.04944 0.3433 0.0
O422 O 0.77856 0.98168 0.3527 0.0
O423 O 0.7769 0.01149 0.31659 0.0
O424 O 0.77729 0.97289 0.41152 0.0
O425 O 0.79831 0.01953 0.40596 0.0
O426 O 0.73086 0.93481 0.39229 0.0
O427 O 0.69168 0.96469 0.38804 0.0
O428 O 0.73443 0.03734 0.38838 0.0
O429 O 0.72851 0.01303 0.42707 0.0
O430 O 0.73298 0.04995 0.33991 0.0
O431 O 0.71511 1.00152 0.34098 0.0
H432 H 0.86713 0.09718 0.32487 0.0
H433 H 0.91012 0.11865 0.34743 0.0
H434 H 0.86591 0.1118 0.43117 0.0
H435 H 0.82278 0.09025 0.40838 0.0
H436 H 0.68927 0.88137 0.4118 0.0
H437 H 0.66523 0.83999 0.38727 0.0
H438 H 0.65878 0.89562 0.3105 0.0
H439 H 0.68273 0.93726 0.33547 0.0
Pr440 Pr 0.24102 0.5555 0.62787 0.0
Pr441 Pr 0.29272 0.51189 0.63946 0.0
C442 C 0.18959 0.58678 0.61913 0.0
C443 C 0.17421 0.61415 0.63109 0.0
C444 C 0.14617 0.6228 0.62128 0.0
C445 C 0.13172 0.64937 0.63172 0.0
C446 C 0.1451 0.66784 0.65216 0.0
C447 C 0.17313 0.65878 0.66224 0.0
C448 C 0.18757 0.63215 0.65177 0.0
C449 C 0.29226 0.56642 0.59441 0.0
C450 C 0.28529 0.57655 0.67759 0.0
C451 C 0.34667 0.48513 0.64643 0.0
C452 C 0.37137 0.46882 0.63103 0.0
C453 C 0.40005 0.47116 0.64139 0.0
C454 C 0.42401 0.45557 0.62776 0.0
C455 C 0.4198 0.43724 0.60341 0.0
C456 C 0.39097 0.43521 0.59283 0.0
C457 C 0.36694 0.45096 0.60649 0.0
C458 C 0.24087 0.50027 0.67196 0.0
C459 C 0.24716 0.48826 0.59397 0.0
O460 O 0.19159 0.56321 0.63627 0.0
O461 O 0.21407 0.59135 0.60422 0.0
O462 O 0.28198 0.5404 0.59929 0.0
O463 O 0.27626 0.58768 0.60738 0.0
O464 O 0.3034 0.555 0.6668 0.0
O465 O 0.25781 0.57979 0.6689 0.0
O466 O 0.34275 0.51407 0.6404 0.0
O467 O 0.32183 0.47083 0.65043 0.0
O468 O 0.25126 0.52617 0.6671 0.0
O469 O 0.2588 0.47887 0.66186 0.0
O470 O 0.22868 0.50924 0.60548 0.0
O471 O 0.27574 0.48864 0.59871 0.0
H472 H 0.13551 0.60908 0.60541 0.0
H473 H 0.10992 0.65533 0.62391 0.0
H474 H 0.18414 0.67255 0.67782 0.0
H475 H 0.20929 0.62576 0.65957 0.0
H476 H 0.40388 0.48486 0.66031 0.0
H477 H 0.44577 0.4573 0.63675 0.0
H478 H 0.38703 0.42152 0.57397 0.0
H479 H 0.34496 0.44908 0.59801 0.0
C480 C 0.17884 0.33096 0.54749 0.0
C481 C 0.17662 0.32805 0.51747 0.0
C482 C 0.19097 0.35696 0.55961 0.0
C483 C 0.20094 0.38067 0.54127 0.0
C484 C 0.19934 0.37758 0.51097 0.0
C485 C 0.18737 0.35127 0.49944 0.0
C486 C 0.1926 0.35932 0.59204 0.0
C487 C 0.2095 0.40248 0.49073 0.0
C488 C 0.20503 0.46005 0.57357 0.0
C489 C 0.23547 0.46196 0.57831 0.0
C490 C 0.19351 0.43383 0.56126 0.0
C491 C 0.21285 0.40886 0.55375 0.0
C492 C 0.24362 0.41082 0.55811 0.0
C493 C 0.25457 0.43738 0.57016 0.0
C494 C 0.16057 0.43267 0.55664 0.0
C495 C 0.26491 0.38458 0.55063 0.0
H496 H 0.17043 0.31326 0.56161 0.0
H497 H 0.18567 0.34937 0.47622 0.0
H498 H 0.21582 0.36292 0.59815 0.0
H499 H 0.17909 0.37932 0.59996 0.0
H500 H 0.18451 0.3386 0.60324 0.0
H501 H 0.20718 0.39634 0.46766 0.0
H502 H 0.19633 0.42381 0.49524 0.0
H503 H 0.23307 0.40742 0.49432 0.0
H504 H 0.1901 0.47886 0.57988 0.0
H505 H 0.27811 0.4385 0.57387 0.0
H506 H 0.15098 0.41386 0.56958 0.0
H507 H 0.15649 0.42783 0.53362 0.0
H508 H 0.14867 0.45433 0.56283 0.0
H509 H 0.25865 0.36406 0.56318 0.0
H510 H 0.28824 0.38981 0.55523 0.0
H511 H 0.26362 0.37874 0.52742 0.0
C512 C 0.79353 0.93836 0.82923 0.0
C513 C 0.784 0.96914 0.82952 0.0
C514 C 0.82307 0.92977 0.8211 0.0
C515 C 0.84387 0.95255 0.81425 0.0
C516 C 0.83437 0.9836 0.81522 0.0
C517 C 0.80446 0.99125 0.82166 0.0
C518 C 0.83202 0.89638 0.81979 0.0
C519 C 0.85599 0.00889 0.81035 0.0
C520 C 0.92691 0.93232 0.81737 0.0
C521 C 0.93587 0.93388 0.78813 0.0
C522 C 0.89714 0.93814 0.82634 0.0
C523 C 0.8754 0.94436 0.80541 0.0
C524 C 0.88429 0.94485 0.77576 0.0
C525 C 0.91446 0.94073 0.76765 0.0
C526 C 0.8895 0.93719 0.8583 0.0
C527 C 0.86188 0.9493 0.75244 0.0
H528 H 0.7779 0.92098 0.8352 0.0
H529 H 0.79709 0.01473 0.8208 0.0
H530 H 0.84261 0.89087 0.79839 0.0
H531 H 0.84863 0.89114 0.83636 0.0
H532 H 0.81284 0.88143 0.82354 0.0
H533 H 0.84548 0.03185 0.81396 0.0
H534 H 0.87471 0.00594 0.82521 0.0
H535 H 0.86546 0.00798 0.788 0.0
H536 H 0.94324 0.92677 0.8334 0.0
H537 H 0.92125 0.94255 0.74513 0.0
H538 H 0.88734 0.91305 0.86506 0.0
H539 H 0.86854 0.94985 0.86417 0.0
H540 H 0.90764 0.94673 0.87086 0.0
H541 H 0.843 0.934 0.7563 0.0
H542 H 0.8717 0.94465 0.73054 0.0
H543 H 0.85282 0.97307 0.75285 0.0
C544 C 0.27438 0.70745 0.02419 0.0
C545 C 0.30491 0.71205 0.02531 0.0
C546 C 0.26275 0.67854 0.03038 0.0
C547 C 0.2821 0.65405 0.03837 0.0
C548 C 0.31295 0.65871 0.03919 0.0
C549 C 0.32392 0.68744 0.0324 0.0
C550 C 0.2298 0.67427 0.02875 0.0
C551 C 0.33442 0.63357 0.04813 0.0
C552 C 0.25745 0.58992 0.0876 0.0
C553 C 0.25847 0.56485 0.06877 0.0
C554 C 0.26353 0.61935 0.07767 0.0
C555 C 0.27044 0.62407 0.04801 0.0
C556 C 0.2699 0.59911 0.02857 0.0
C557 C 0.26415 0.56968 0.03923 0.0
C558 C 0.26433 0.64504 0.09931 0.0
C559 C 0.27664 0.60328 0.99672 0.0
H560 H 0.25967 0.72633 0.01846 0.0
H561 H 0.34759 0.69077 0.03328 0.0
H562 H 0.22544 0.65429 0.015 0.0
H563 H 0.2203 0.66955 0.05061 0.0
H564 H 0.21809 0.6947 0.01988 0.0
H565 H 0.35782 0.64081 0.04716 0.0
H566 H 0.32889 0.62624 0.07055 0.0
H567 H 0.33255 0.61341 0.03395 0.0
H568 H 0.25293 0.58641 0.11047 0.0
H569 H 0.26467 0.55042 0.02456 0.0
H570 H 0.25089 0.665 0.092 0.0
H571 H 0.28749 0.65248 0.10113 0.0
H572 H 0.25594 0.63819 0.1211 0.0
H573 H 0.26406 0.62338 0.98837 0.0
H574 H 0.27116 0.58286 0.98399 0.0
H575 H 0.30058 0.60761 0.9932 0.0
C576 C 0.55136 0.08905 0.30202 0.0
C577 C 0.54176 0.08681 0.27364 0.0
C578 C 0.58057 0.08083 0.30895 0.0
C579 C 0.60079 0.07031 0.28688 0.0
C580 C 0.59124 0.06816 0.25812 0.0
C581 C 0.56171 0.07616 0.25189 0.0
C582 C 0.58965 0.08305 0.33999 0.0
C583 C 0.61226 0.05767 0.2339 0.0
C584 C 0.68183 0.07035 0.30765 0.0
C585 C 0.68646 0.03995 0.31629 0.0
C586 C 0.6545 0.08034 0.29651 0.0
C587 C 0.63119 0.05955 0.29452 0.0
C588 C 0.6362 0.02862 0.30208 0.0
C589 C 0.66379 0.01917 0.31253 0.0
C590 C 0.65019 0.11336 0.28799 0.0
C591 C 0.61189 1.00575 0.30068 0.0
H592 H 0.53606 0.09744 0.3189 0.0
H593 H 0.55425 0.07419 0.22997 0.0
H594 H 0.59698 0.06021 0.34785 0.0
H595 H 0.60869 0.0983 0.3416 0.0
H596 H 0.57132 0.09193 0.3545 0.0
H597 H 0.601 0.05578 0.21302 0.0
H598 H 0.6304 0.07408 0.23127 0.0
H599 H 0.62265 0.03518 0.23913 0.0
H600 H 0.6992 0.08655 0.31036 0.0
H601 H 0.66701 0.99559 0.31902 0.0
H602 H 0.63481 0.12508 0.30381 0.0
H603 H 0.63999 0.11512 0.26653 0.0
H604 H 0.67142 0.12557 0.28722 0.0
H605 H 0.59352 0.01241 0.31611 0.0
H606 H 0.61981 0.98224 0.30603 0.0
H607 H 0.60261 1.00556 0.27879 0.0
C608 C 0.67358 0.20813 0.44167 0.0
C609 C 0.68335 0.22274 0.46637 0.0
C610 C 0.68084 0.17725 0.43631 0.0
C611 C 0.69896 0.16076 0.45575 0.0
C612 C 0.70877 0.17544 0.48081 0.0
C613 C 0.70058 0.2062 0.48597 0.0
C614 C 0.66926 0.16235 0.40969 0.0
C615 C 0.72835 0.15882 0.5019 0.0
C616 C 0.70101 0.07395 0.44865 0.0
C617 C 0.72545 0.06934 0.42961 0.0
C618 C 0.6925 0.10357 0.45816 0.0
C619 C 0.70916 0.12885 0.44869 0.0
C620 C 0.73485 0.12382 0.43081 0.0
C621 C 0.74248 0.09418 0.4214 0.0
C622 C 0.66486 0.10797 0.47705 0.0
C623 C 0.75367 0.14987 0.42063 0.0
H624 H 0.65974 0.2207 0.42677 0.0
H625 H 0.70794 0.21745 0.5052 0.0
H626 H 0.68807 0.15593 0.39469 0.0
H627 H 0.65783 0.1411 0.41567 0.0
H628 H 0.65353 0.17758 0.39805 0.0
H629 H 0.73315 0.17311 0.52088 0.0
H630 H 0.71766 0.13776 0.50964 0.0
H631 H 0.74966 0.15179 0.49091 0.0
H632 H 0.68768 0.05471 0.45485 0.0
H633 H 0.76165 0.09043 0.40717 0.0
H634 H 0.64748 0.12019 0.46469 0.0
H635 H 0.66939 0.12227 0.49606 0.0
H636 H 0.656 0.08594 0.48474 0.0
H637 H 0.74077 0.16483 0.40596 0.0
H638 H 0.77428 0.1418 0.4089 0.0
H639 H 0.75983 0.16398 0.43925 0.0
C640 C 0.06859 0.4641 0.69437 0.0
C641 C 0.06184 0.45807 0.72357 0.0
C642 C 0.09653 0.47499 0.68559 0.0
C643 C 0.11837 0.47941 0.70644 0.0
C644 C 0.11097 0.47528 0.73606 0.0
C645 C 0.08276 0.46508 0.74426 0.0
C646 C 0.10324 0.48003 0.65384 0.0
C647 C 0.13358 0.47926 0.75904 0.0
C648 C 0.19925 0.46543 0.68315 0.0
C649 C 0.20994 0.49508 0.68205 0.0
C650 C 0.16953 0.46011 0.69098 0.0
C651 C 0.14976 0.48513 0.69729 0.0
C652 C 0.16042 0.51517 0.69606 0.0
C653 C 0.19053 0.51973 0.68905 0.0
C654 C 0.15932 0.42765 0.69262 0.0
C655 C 0.14001 0.54251 0.7019 0.0
H656 H 0.05265 0.45891 0.67818 0.0
H657 H 0.07787 0.46079 0.76694 0.0
H658 H 0.11474 0.50181 0.65039 0.0
H659 H 0.11829 0.4614 0.64546 0.0
H660 H 0.08282 0.48043 0.64104 0.0
H661 H 0.12368 0.47752 0.78122 0.0
H662 H 0.15142 0.46141 0.75641 0.0
H663 H 0.14411 0.50169 0.75673 0.0
H664 H 0.21415 0.44628 0.67779 0.0
H665 H 0.19879 0.54267 0.68864 0.0
H666 H 0.14142 0.42431 0.67717 0.0
H667 H 0.15001 0.4229 0.71458 0.0
H668 H 0.1776 0.41075 0.68766 0.0
H669 H 0.1203 0.54151 0.68821 0.0
H670 H 0.15116 0.56438 0.69762 0.0
H671 H 0.13188 0.54232 0.72474 0.0
C672 C 0.79151 0.93475 0.91224 0.0
C673 C 0.7669 0.95086 0.92442 0.0
C674 C 0.79968 0.90553 0.92232 0.0
C675 C 0.78325 0.89245 0.94557 0.0
C676 C 0.75914 0.90921 0.95867 0.0
C677 C 0.75103 0.93802 0.9477 0.0
C678 C 0.8253 0.88828 0.90748 0.0
C679 C 0.74167 0.89656 0.98407 0.0
C680 C 0.78832 0.80616 0.95715 0.0
C681 C 0.81066 0.80376 0.97742 0.0
C682 C 0.77904 0.83495 0.94653 0.0
C683 C 0.79199 0.86176 0.95696 0.0
C684 C 0.81373 0.85933 0.97821 0.0
C685 C 0.82302 0.83044 0.98782 0.0
C686 C 0.75612 0.83665 0.9235 0.0
C687 C 0.82774 0.88721 0.99039 0.0
H688 H 0.80349 0.94433 0.89389 0.0
H689 H 0.73192 0.95038 0.95707 0.0
H690 H 0.84231 0.88176 0.92332 0.0
H691 H 0.81736 0.86688 0.89803 0.0
H692 H 0.83598 0.90183 0.88999 0.0
H693 H 0.72407 0.91284 0.99231 0.0
H694 H 0.73115 0.87513 0.97776 0.0
H695 H 0.75674 0.89089 1.00192 0.0
H696 H 0.77903 0.78558 0.94876 0.0
H697 H 0.84059 0.82873 1.00318 0.0
H698 H 0.76584 0.84706 0.90365 0.0
H699 H 0.73702 0.8515 0.93077 0.0
H700 H 0.74786 0.81384 0.91798 0.0
H701 H 0.84068 0.89886 0.9731 0.0
H702 H 0.84279 0.88147 1.00827 0.0
H703 H 0.81032 0.90367 0.99857 0.0
C704 C 0.40148 0.57731 0.25804 0.0
C705 C 0.42314 0.58702 0.2379 0.0
C706 C 0.37516 0.56451 0.24901 0.0
C707 C 0.37034 0.56133 0.21913 0.0
C708 C 0.39257 0.57005 0.19873 0.0
C709 C 0.4187 0.58276 0.20836 0.0
C710 C 0.35205 0.5554 0.27141 0.0
C711 C 0.38833 0.56692 0.16666 0.0
C712 C 0.31229 0.50907 0.19072 0.0
C713 C 0.28969 0.53005 0.1832 0.0
C714 C 0.3382 0.51874 0.20352 0.0
C715 C 0.3416 0.55015 0.209 0.0
C716 C 0.31818 0.57122 0.20301 0.0
C717 C 0.2925 0.56092 0.19023 0.0
C718 C 0.36256 0.49553 0.20975 0.0
C719 C 0.32088 0.60491 0.20871 0.0
H720 H 0.40468 0.58046 0.28093 0.0
H721 H 0.43523 0.59022 0.19263 0.0
H722 H 0.33183 0.57018 0.26943 0.0
H723 H 0.34552 0.53156 0.26778 0.0
H724 H 0.36002 0.55738 0.29377 0.0
H725 H 0.4083 0.57336 0.15368 0.0
H726 H 0.38302 0.54308 0.16133 0.0
H727 H 0.36931 0.58171 0.16013 0.0
H728 H 0.31035 0.48513 0.18555 0.0
H729 H 0.27523 0.57735 0.18454 0.0
H730 H 0.36997 0.49808 0.23221 0.0
H731 H 0.38202 0.49943 0.19511 0.0
H732 H 0.35543 0.47175 0.2067 0.0
H733 H 0.32741 0.60874 0.23129 0.0
H734 H 0.29986 0.61795 0.20499 0.0
H735 H 0.33853 0.61419 0.1943 0.0
C736 C 0.50734 0.19557 0.32942 0.0
C737 C 0.52608 0.18843 0.30544 0.0
C738 C 0.51879 0.20512 0.35562 0.0
C739 C 0.54975 0.20813 0.35792 0.0
C740 C 0.56884 0.20123 0.33378 0.0
C741 C 0.5568 0.19127 0.30788 0.0
C742 C 0.49769 0.21181 0.38095 0.0
C743 C 0.60197 0.20451 0.33527 0.0
C744 C 0.57382 0.26281 0.41555 0.0
C745 C 0.58332 0.24292 0.43742 0.0
C746 C 0.56338 0.25173 0.38949 0.0
C747 C 0.56185 0.2199 0.38521 0.0
C748 C 0.57101 0.19959 0.40728 0.0
C749 C 0.58183 0.21135 0.43307 0.0
C750 C 0.55431 0.27415 0.36635 0.0
C751 C 0.56939 0.16549 0.40364 0.0
H752 H 0.4836 0.19312 0.328 0.0
H753 H 0.5715 0.18556 0.28961 0.0
H754 H 0.50419 0.19783 0.39985 0.0
H755 H 0.49891 0.2361 0.38732 0.0
H756 H 0.47434 0.20706 0.37603 0.0
H757 H 0.6138 0.19793 0.31472 0.0
H758 H 0.607 0.2285 0.34034 0.0
H759 H 0.61084 0.19011 0.35291 0.0
H760 H 0.57511 0.28725 0.41845 0.0
H761 H 0.58937 0.19578 0.44968 0.0
H762 H 0.53053 0.27172 0.36172 0.0
H763 H 0.56719 0.26926 0.346 0.0
H764 H 0.55782 0.29818 0.37267 0.0
H765 H 0.54624 0.15928 0.39953 0.0
H766 H 0.57704 0.15281 0.42295 0.0
H767 H 0.58323 0.1579 0.38463 0.0
C768 C 0.05245 0.28694 0.55525 0.0
C769 C 0.07452 0.30323 0.54063 0.0
C770 C 0.04545 0.29252 0.58466 0.0
C771 C 0.06184 0.31392 0.60008 0.0
C772 C 0.08508 0.32941 0.58555 0.0
C773 C 0.09068 0.32435 0.55589 0.0
C774 C 0.0198 0.27639 0.59894 0.0
C775 C 0.10397 0.35146 0.60126 0.0
C776 C 0.02804 0.35705 0.66476 0.0
C777 C 0.0388 0.3403 0.68824 0.0
C778 C 0.03422 0.34782 0.63618 0.0
C779 C 0.05321 0.32209 0.63063 0.0
C780 C 0.06466 0.30525 0.65422 0.0
C781 C 0.05684 0.31422 0.6828 0.0
C782 C 0.02068 0.36599 0.6119 0.0
C783 C 0.08596 0.27845 0.64926 0.0
H784 H 0.04008 0.27049 0.54344 0.0
H785 H 0.10817 0.33655 0.54472 0.0
H786 H 0.02718 0.26401 0.61845 0.0
H787 H 1.00244 0.29343 0.60611 0.0
H788 H 0.00975 0.25989 0.58421 0.0
H789 H 0.1225 0.35987 0.58736 0.0
H790 H 0.09019 0.37137 0.6089 0.0
H791 H 0.11337 0.34028 0.6206 0.0
H792 H 0.01486 0.37774 0.66869 0.0
H793 H 0.06566 0.30148 0.70084 0.0
H794 H 0.01017 0.35054 0.59653 0.0
H795 H 0.03825 0.37819 0.59972 0.0
H796 H 1.00369 0.38306 0.61992 0.0
H797 H 0.07602 0.26126 0.63527 0.0
H798 H 0.09234 0.26729 0.66979 0.0
H799 H 0.10633 0.28625 0.6378 0.0
C800 C 0.98101 0.82401 0.82755 0.0
C801 C 0.95995 0.83689 0.80905 0.0
C802 C 0.9728 0.81348 0.85508 0.0
C803 C 0.94263 0.81503 0.86419 0.0
C804 C 0.92099 0.82696 0.84532 0.0
C805 C 0.92996 0.83806 0.81801 0.0
C806 C 0.99662 0.80148 0.87472 0.0
C807 C 0.8885 0.82865 0.85417 0.0
C808 C 0.92222 0.7615 0.9254 0.0
C809 C 0.9196 0.78141 0.94913 0.0
C810 C 0.92891 0.77233 0.89757 0.0
C811 C 0.934 0.8037 0.89342 0.0
C812 C 0.93232 0.82382 0.91737 0.0
C813 C 0.92478 0.81248 0.94494 0.0
C814 C 0.92977 0.7503 0.87248 0.0
C815 C 0.93829 0.85733 0.91382 0.0
H816 H 1.00427 0.82301 0.82097 0.0
H817 H 0.9136 0.8483 0.80403 0.0
H818 H 0.99603 0.81486 0.89507 0.0
H819 H 0.99252 0.77743 0.88062 0.0
H820 H 0.01921 0.80263 0.86459 0.0
H821 H 0.88461 0.84656 0.87087 0.0
H822 H 0.87423 0.83423 0.83565 0.0
H823 H 0.88152 0.8067 0.86377 0.0
H824 H 0.91775 0.73752 0.92826 0.0
H825 H 0.92252 0.828 0.96312 0.0
H826 H 0.95223 0.74939 0.86202 0.0
H827 H 0.91402 0.75829 0.85595 0.0
H828 H 0.92398 0.72683 0.8792 0.0
H829 H 0.96049 0.86027 0.90337 0.0
H830 H 0.93735 0.86965 0.93479 0.0
H831 H 0.92172 0.86809 0.8995 0.0
C832 C 0.42694 0.69813 0.19643 0.0
C833 C 0.45583 0.69647 0.20665 0.0
C834 C 0.42152 0.70681 0.16779 0.0
C835 C 0.44563 0.71369 0.14875 0.0
C836 C 0.47491 0.71179 0.15893 0.0
C837 C 0.47962 0.70357 0.18785 0.0
C838 C 0.38992 0.70885 0.15798 0.0
C839 C 0.50126 0.71848 0.13932 0.0
C840 C 0.42695 0.71319 0.06897 0.0
C841 C 0.42013 0.74417 0.06408 0.0
C842 C 0.43685 0.70303 0.09601 0.0
C843 C 0.43981 0.7243 0.11871 0.0
C844 C 0.43472 0.75575 0.11328 0.0
C845 C 0.42513 0.76527 0.08608 0.0
C846 C 0.44255 0.66934 0.10075 0.0
C847 C 0.43755 0.77926 0.13677 0.0
H848 H 0.40847 0.69259 0.21083 0.0
H849 H 0.502 0.70253 0.1957 0.0
H850 H 0.38445 0.73245 0.15081 0.0
H851 H 0.38728 0.69359 0.13921 0.0
H852 H 0.3737 0.70248 0.17533 0.0
H853 H 0.52268 0.71367 0.14988 0.0
H854 H 0.50069 0.70461 0.11933 0.0
H855 H 0.50032 0.7428 0.13273 0.0
H856 H 0.42312 0.69666 0.05222 0.0
H857 H 0.42018 0.7893 0.08256 0.0
H858 H 0.4248 0.66028 0.11518 0.0
H859 H 0.46392 0.66528 0.11154 0.0
H860 H 0.44304 0.65631 0.08017 0.0
H861 H 0.42022 0.77579 0.15389 0.0
H862 H 0.43507 0.80296 0.12849 0.0
H863 H 0.45938 0.77661 0.14698 0.0
C864 C 0.1779 0.39174 0.30433 0.0
C865 C 0.16548 0.36281 0.30457 0.0
C866 C 0.18514 0.40648 0.27822 0.0
C867 C 0.17964 0.39207 0.25162 0.0
C868 C 0.16874 0.36213 0.25171 0.0
C869 C 0.16182 0.34784 0.27818 0.0
C870 C 0.19705 0.43826 0.27916 0.0
C871 C 0.16255 0.34596 0.2239 0.0
C872 C 0.15909 0.44891 0.19344 0.0
C873 C 0.1859 0.45152 0.17774 0.0
C874 C 0.1564 0.42834 0.21647 0.0
C875 C 0.1813 0.41009 0.22428 0.0
C876 C 0.20803 0.41133 0.2074 0.0
C877 C 0.20999 0.43202 0.18414 0.0
C878 C 0.12732 0.4275 0.23349 0.0
C879 C 0.23507 0.39225 0.21493 0.0
H880 H 0.18125 0.40321 0.32464 0.0
H881 H 0.15208 0.32555 0.27815 0.0
H882 H 0.21681 0.44001 0.26446 0.0
H883 H 0.17997 0.45489 0.2716 0.0
H884 H 0.20323 0.44486 0.30128 0.0
H885 H 0.15841 0.32137 0.22741 0.0
H886 H 0.14268 0.3567 0.21409 0.0
H887 H 0.18138 0.34811 0.20812 0.0
H888 H 0.1404 0.46391 0.18841 0.0
H889 H 0.23083 0.43417 0.17212 0.0
H890 H 0.13022 0.43674 0.25548 0.0
H891 H 0.12009 0.40366 0.23595 0.0
H892 H 0.10942 0.44109 0.22309 0.0
H893 H 0.24466 0.40147 0.23477 0.0
H894 H 0.25238 0.39227 0.19733 0.0
H895 H 0.22903 0.36836 0.21955 0.0
C896 C 0.85489 0.96505 0.57838 0.0
C897 C 0.88147 0.94765 0.57853 0.0
C898 C 0.84301 0.9755 0.55229 0.0
C899 C 0.85816 0.96856 0.52572 0.0
C900 C 0.88586 0.95252 0.52592 0.0
C901 C 0.89711 0.9422 0.55227 0.0
C902 C 0.81339 0.99246 0.55307 0.0
C903 C 0.90293 0.94488 0.49819 0.0
C904 C 0.81088 0.95862 0.46008 0.0
C905 C 0.81402 0.98648 0.44547 0.0
C906 C 0.82526 0.9526 0.48599 0.0
C907 C 0.8435 0.97486 0.49774 0.0
C908 C 0.84738 1.00279 0.48285 0.0
C909 C 0.83254 0.00831 0.45691 0.0
C910 C 0.82049 0.92248 0.50106 0.0
C911 C 0.86682 0.02701 0.49453 0.0
H912 H 0.84261 0.96923 0.59855 0.0
H913 H 0.91792 0.9292 0.55227 0.0
H914 H 0.8145 0.01345 0.53975 0.0
H915 H 0.79643 0.9779 0.54373 0.0
H916 H 0.80597 0.99885 0.5754 0.0
H917 H 0.92556 0.93547 0.50217 0.0
H918 H 0.89082 0.92776 0.4859 0.0
H919 H 0.90481 0.96545 0.48436 0.0
H920 H 0.7967 0.94152 0.45154 0.0
H921 H 0.83511 0.02993 0.44588 0.0
H922 H 0.81048 0.92651 0.52296 0.0
H923 H 0.84208 0.9102 0.50378 0.0
H924 H 0.80578 0.90751 0.489 0.0
H925 H 0.85769 0.03509 0.51578 0.0
H926 H 0.8686 0.04691 0.47978 0.0
H927 H 0.88941 0.01733 0.49809 0.0
C928 C 0.27588 0.61347 0.71862 0.0
C929 C 0.29573 0.59517 0.70179 0.0
C930 C 0.2852 0.62802 0.7437 0.0
C931 C 0.31503 0.62415 0.75208 0.0
C932 C 0.33541 0.6069 0.73441 0.0
C933 C 0.32555 0.59269 0.70954 0.0
C934 C 0.26286 0.64643 0.76188 0.0
C935 C 0.36743 0.60229 0.74246 0.0
C936 C 0.34838 0.67498 0.80836 0.0
C937 C 0.34715 0.65637 0.83304 0.0
C938 C 0.33723 0.66522 0.78202 0.0
C939 C 0.32464 0.63612 0.78028 0.0
C940 C 0.32288 0.61747 0.80523 0.0
C941 C 0.3341 0.62783 0.83126 0.0
C942 C 0.33952 0.68575 0.75591 0.0
C943 C 0.3096 0.5863 0.80431 0.0
H944 H 0.25283 0.61559 0.7128 0.0
H945 H 0.34117 0.57887 0.69657 0.0
H946 H 0.25867 0.63458 0.78272 0.0
H947 H 0.27166 0.6691 0.76693 0.0
H948 H 0.24141 0.64979 0.75099 0.0
H949 H 0.38091 0.59003 0.7254 0.0
H950 H 0.37752 0.62459 0.74646 0.0
H951 H 0.36861 0.58892 0.76277 0.0
H952 H 0.35859 0.69698 0.80948 0.0
H953 H 0.33247 0.61357 0.85035 0.0
H954 H 0.3175 0.68894 0.74615 0.0
H955 H 0.35463 0.67496 0.73928 0.0
H956 H 0.34803 0.70849 0.76129 0.0
H957 H 0.28674 0.5881 0.79619 0.0
H958 H 0.30882 0.57513 0.82585 0.0
H959 H 0.32285 0.57139 0.78912 0.0
C960 C 0.6064 0.11321 0.04569 0.0
C961 C 0.61937 0.10404 0.07161 0.0
C962 C 0.61936 0.10489 0.01868 0.0
C963 C 0.64609 0.08709 0.01743 0.0
C964 C 0.6588 0.07699 0.0435 0.0
C965 C 0.6453 0.08552 0.0702 0.0
C966 C 0.60492 0.11594 0.99147 0.0
C967 C 0.68737 0.05816 0.04325 0.0
C968 C 0.6753 0.04895 0.94743 0.0
C969 C 0.69676 0.06945 0.93795 0.0
C970 C 0.65795 0.05469 0.97284 0.0
C971 C 0.66233 0.08148 0.98915 0.0
C972 C 0.68344 0.10258 0.97909 0.0
C973 C 0.70033 0.0963 0.95372 0.0
C974 C 0.63565 0.03162 0.98271 0.0
C975 C 0.68889 0.13145 0.99563 0.0
H976 H 0.58611 0.12709 0.04651 0.0
H977 H 0.65568 0.07853 0.09003 0.0
H978 H 0.6194 0.13245 0.98018 0.0
H979 H 0.60212 0.09659 0.97648 0.0
H980 H 0.5829 0.12723 0.99598 0.0
H981 H 0.69319 0.05018 0.06519 0.0
H982 H 0.68566 0.03801 0.02902 0.0
H983 H 0.70575 0.07195 0.03437 0.0
H984 H 0.6728 0.02796 0.93563 0.0
H985 H 0.71691 0.11225 0.94652 0.0
H986 H 0.61374 0.04302 0.98733 0.0
H987 H 0.6429 0.02082 1.00309 0.0
H988 H 0.63298 0.01344 0.96639 0.0
H989 H 0.66783 0.14484 0.99902 0.0
H990 H 0.70523 0.14609 0.9843 0.0
H991 H 0.6973 0.12559 0.01726 0.0
C992 C 0.64597 0.16138 0.6917 0.0
C993 C 0.65703 0.1478 0.66596 0.0
C994 C 0.65333 0.14929 0.71878 0.0
C995 C 0.67226 0.12303 0.7202 0.0
C996 C 0.68369 0.10938 0.69431 0.0
C997 C 0.67593 0.12191 0.66756 0.0
C998 C 0.6406 0.16443 0.74587 0.0
C999 C 0.70406 0.08145 0.69485 0.0
C1000 C 0.71379 0.10335 0.78841 0.0
C1001 C 0.69703 0.07956 0.80008 0.0
C1002 C 0.7055 0.11834 0.76291 0.0
C1003 C 0.67984 0.10938 0.74867 0.0
C1004 C 0.66224 0.08618 0.76088 0.0
C1005 C 0.67101 0.07159 0.7864 0.0
C1006 C 0.72479 0.14307 0.75068 0.0
C1007 C 0.63466 0.076 0.74644 0.0
H1008 H 0.6311 0.18119 0.69066 0.0
H1009 H 0.68494 0.11155 0.64781 0.0
H1010 H 0.62678 0.14814 0.75825 0.0
H1011 H 0.65876 0.17102 0.75999 0.0
H1012 H 0.62676 0.18509 0.74111 0.0
H1013 H 0.71131 0.07379 0.67282 0.0
H1014 H 0.72402 0.08627 0.70727 0.0
H1015 H 0.69265 0.06245 0.70593 0.0
H1016 H 0.73389 0.10981 0.79875 0.0
H1017 H 0.65779 0.05334 0.79517 0.0
H1018 H 0.71121 0.16406 0.74664 0.0
H1019 H 0.73487 0.13558 0.72961 0.0
H1020 H 0.74288 0.14878 0.7653 0.0
H1021 H 0.61959 0.09588 0.74239 0.0
H1022 H 0.62239 0.05903 0.7596 0.0
H1023 H 0.64081 0.06563 0.72517 0.0
C1024 C 0.17606 0.45155 0.03266 0.0
C1025 C 0.17039 0.47889 0.04784 0.0
C1026 C 0.16024 0.44449 1.00807 0.0
C1027 C 0.13803 0.46519 0.99833 0.0
C1028 C 0.13174 0.49258 0.0138 0.0
C1029 C 0.14802 0.49914 0.03835 0.0
C1030 C 0.16761 0.41498 0.99227 0.0
C1031 C 0.10813 0.51514 1.00418 0.0
C1032 C 0.12061 0.45581 0.91913 0.0
C1033 C 0.09617 0.4368 0.92084 0.0
C1034 C 0.13361 0.46648 0.94423 0.0
C1035 C 0.12185 0.45801 0.97171 0.0
C1036 C 0.09623 0.44017 0.97355 0.0
C1037 C 0.08373 0.42976 0.94811 0.0
C1038 C 0.16091 0.48546 0.94133 0.0
C1039 C 0.08283 0.43085 1.00238 0.0
H1040 H 0.19323 0.43569 0.03972 0.0
H1041 H 0.14339 0.52031 0.0499 0.0
H1042 H 0.14751 0.40112 0.99111 0.0
H1043 H 0.17516 0.41989 0.96976 0.0
H1044 H 0.18522 0.40115 1.00285 0.0
H1045 H 0.10495 0.53469 0.01931 0.0
H1046 H 0.11426 0.52407 0.98245 0.0
H1047 H 0.08667 0.50369 1.00233 0.0
H1048 H 0.13048 0.46117 0.89816 0.0
H1049 H 0.06454 0.41549 0.94957 0.0
H1050 H 0.18041 0.4721 0.949 0.0
H1051 H 0.15835 0.50617 0.95501 0.0
H1052 H 0.16558 0.49254 0.91864 0.0
H1053 H 0.0983 0.41471 0.01322 0.0
H1054 H 0.06126 0.41965 1.00017 0.0
H1055 H 0.07943 0.451 0.01669 0.0
C1056 C 0.78421 0.96472 0.27502 0.0
C1057 C 0.7837 0.95803 0.30466 0.0
C1058 C 0.79235 0.94255 0.25435 0.0
C1059 C 0.79984 0.91254 0.26333 0.0
C1060 C 0.79803 0.9051 0.29317 0.0
C1061 C 0.79011 0.92806 0.3136 0.0
C1062 C 0.79396 0.95168 0.22285 0.0
C1063 C 0.80525 0.87321 0.30354 0.0
C1064 C 0.80137 0.85887 0.19909 0.0
C1065 C 0.83123 0.86004 0.18972 0.0
C1066 C 0.79118 0.87355 0.22469 0.0
C1067 C 0.81123 0.89004 0.24117 0.0
C1068 C 0.84175 0.88927 0.23299 0.0
C1069 C 0.85137 0.87422 0.20749 0.0
C1070 C 0.75855 0.87335 0.23283 0.0
C1071 C 0.86397 0.90644 0.24988 0.0
H1072 H 0.77897 0.98774 0.26785 0.0
H1073 H 0.78952 0.92271 0.33646 0.0
H1074 H 0.81709 0.94865 0.21425 0.0
H1075 H 0.77987 0.93684 0.21002 0.0
H1076 H 0.78664 0.97579 0.21942 0.0
H1077 H 0.79896 0.87012 0.32672 0.0
H1078 H 0.79367 0.85624 0.29058 0.0
H1079 H 0.82941 0.8683 0.30061 0.0
H1080 H 0.78557 0.84801 0.1856 0.0
H1081 H 0.8746 0.87456 0.20086 0.0
H1082 H 0.74799 0.89559 0.22696 0.0
H1083 H 0.75513 0.87028 0.25647 0.0
H1084 H 0.74709 0.85502 0.22145 0.0
H1085 H 0.86023 0.93132 0.2466 0.0
H1086 H 0.8872 0.90033 0.24303 0.0
H1087 H 0.86108 0.90185 0.27334 0.0
C1088 C 0.32672 0.54901 0.5539 0.0
C1089 C 0.31334 0.57285 0.57024 0.0
C1090 C 0.34428 0.55508 0.52906 0.0
C1091 C 0.34839 0.58568 0.52036 0.0
C1092 C 0.33577 0.60981 0.53742 0.0
C1093 C 0.31851 0.60309 0.5622 0.0
C1094 C 0.35765 0.52875 0.51164 0.0
C1095 C 0.33964 0.64275 0.52895 0.0
C1096 C 0.40965 0.60837 0.46711 0.0
C1097 C 0.39398 0.61264 0.44163 0.0
C1098 C 0.39538 0.5984 0.49265 0.0
C1099 C 0.36466 0.59273 0.49277 0.0
C1100 C 0.34897 0.59596 0.46686 0.0
C1101 C 0.36383 0.6058 0.4416 0.0
C1102 C 0.41296 0.59491 0.51973 0.0
C1103 C 0.31617 0.59024 0.4661 0.0
H1104 H 0.32289 0.52559 0.56013 0.0
H1105 H 0.30831 0.62161 0.57482 0.0
H1106 H 0.34721 0.52801 0.49029 0.0
H1107 H 0.38173 0.53188 0.50761 0.0
H1108 H 0.35452 0.50648 0.52261 0.0
H1109 H 0.3294 0.65883 0.54516 0.0
H1110 H 0.36355 0.64762 0.5263 0.0
H1111 H 0.32936 0.64722 0.50784 0.0
H1112 H 0.43307 0.61319 0.46715 0.0
H1113 H 0.35153 0.6093 0.42207 0.0
H1114 H 0.4095 0.57218 0.52958 0.0
H1115 H 0.40509 0.61227 0.53583 0.0
H1116 H 0.4371 0.59766 0.51547 0.0
H1117 H 0.31146 0.56731 0.47491 0.0
H1118 H 0.30763 0.59186 0.44389 0.0
H1119 H 0.30376 0.60719 0.47995 0.0
C1120 C 0.18867 0.1886 0.42817 0.0
C1121 C 0.18174 0.21866 0.43678 0.0
C1122 C 0.2128 0.18191 0.40904 0.0
C1123 C 0.23054 0.20584 0.39839 0.0
C1124 C 0.22312 0.23634 0.40644 0.0
C1125 C 0.19875 0.24238 0.42542 0.0
C1126 C 0.21967 0.14914 0.40069 0.0
C1127 C 0.24141 0.26252 0.39563 0.0
C1128 C 0.30975 0.18379 0.3742 0.0
C1129 C 0.30754 0.18213 0.34408 0.0
C1130 C 0.28504 0.1921 0.39204 0.0
C1131 C 0.25732 0.19879 0.37955 0.0
C1132 C 0.25508 0.19788 0.34914 0.0
C1133 C 0.28019 0.18969 0.3318 0.0
C1134 C 0.28845 0.19305 0.42436 0.0
C1135 C 0.22599 0.20492 0.33493 0.0
H1136 H 0.17551 0.17021 0.43678 0.0
H1137 H 0.19344 0.2657 0.43191 0.0
H1138 H 0.22058 0.14682 0.37682 0.0
H1139 H 0.2418 0.14198 0.40854 0.0
H1140 H 0.20296 0.13337 0.40974 0.0
H1141 H 0.23197 0.285 0.40292 0.0
H1142 H 0.26432 0.25986 0.4035 0.0
H1143 H 0.24299 0.26239 0.37168 0.0
H1144 H 0.33061 0.17767 0.38398 0.0
H1145 H 0.27832 0.18903 0.30854 0.0
H1146 H 0.27439 0.17564 0.43486 0.0
H1147 H 0.28077 0.21562 0.43296 0.0
H1148 H 0.31177 0.1887 0.4306 0.0
H1149 H 0.20932 0.18823 0.34217 0.0
H1150 H 0.22813 0.20414 0.31098 0.0
H1151 H 0.21728 0.22787 0.34152 0.0
C1152 C 0.053 0.10285 0.63171 0.0
C1153 C 0.07257 0.10038 0.60764 0.0
C1154 C 0.04139 0.07681 0.64499 0.0
C1155 C 0.04966 0.04753 0.63405 0.0
C1156 C 0.06866 0.04492 0.60921 0.0
C1157 C 0.07984 0.07138 0.59627 0.0
C1158 C 0.02105 0.0806 0.67133 0.0
C1159 C 0.07817 0.01414 0.59699 0.0
C1160 C 0.04949 0.98285 0.68849 0.0
C1161 C 0.02285 0.96851 0.68289 0.0
C1162 C 0.05857 0.00822 0.67245 0.0
C1163 C 0.04062 0.01971 0.65017 0.0
C1164 C 0.01396 1.00509 0.64396 0.0
C1165 C 1.00539 0.97961 0.66039 0.0
C1166 C 0.08721 0.02303 0.67972 0.0
C1167 C 0.99427 0.01669 0.62033 0.0
H1168 H 0.04692 0.12523 0.64032 0.0
H1169 H 0.09514 0.06928 0.57781 0.0
H1170 H 1.00047 0.06784 0.66854 0.0
H1171 H 0.03211 0.07096 0.69052 0.0
H1172 H 0.01491 0.1049 0.67575 0.0
H1173 H 0.09092 0.01606 0.57619 0.0
H1174 H 0.09226 1.00176 0.61264 0.0
H1175 H 0.05854 1.00012 0.59354 0.0
H1176 H 0.06329 0.97444 0.70569 0.0
H1177 H 0.98478 0.96874 0.65588 0.0
H1178 H 0.08258 0.04691 0.68678 0.0
H1179 H 0.10216 0.02382 0.66028 0.0
H1180 H 0.09905 0.01076 0.69714 0.0
H1181 H 0.98615 0.04026 0.62541 0.0
H1182 H 0.97483 1.00214 0.6175 0.0
H1183 H 1.0071 0.01765 0.59954 0.0
C1184 C 0.19667 0.85072 0.84107 0.0
C1185 C 0.16737 0.84722 0.85139 0.0
C1186 C 0.22091 0.83897 0.85634 0.0
C1187 C 0.2159 0.82339 0.88277 0.0
C1188 C 0.18636 0.81906 0.89295 0.0
C1189 C 0.16247 0.8309 0.8771 0.0
C1190 C 0.25196 0.84392 0.84452 0.0
C1191 C 0.18001 0.80279 0.92111 0.0
C1192 C 0.27954 0.7762 0.91492 0.0
C1193 C 0.29063 0.79679 0.9348 0.0
C1194 C 0.25526 0.78445 0.89778 0.0
C1195 C 0.24156 0.81386 0.90078 0.0
C1196 C 0.25268 0.83464 0.92083 0.0
C1197 C 0.27705 0.82594 0.93742 0.0
C1198 C 0.24428 0.76172 0.87646 0.0
C1199 C 0.23876 0.86617 0.92488 0.0
H1200 H 0.20067 0.86276 0.82093 0.0
H1201 H 0.13995 0.82818 0.88531 0.0
H1202 H 0.26374 0.85896 0.85931 0.0
H1203 H 0.26469 0.8219 0.84325 0.0
H1204 H 0.25209 0.85452 0.82272 0.0
H1205 H 0.15591 0.79948 0.9251 0.0
H1206 H 0.1917 0.78018 0.92121 0.0
H1207 H 0.18848 0.81618 0.93925 0.0
H1208 H 0.28986 0.75366 0.91269 0.0
H1209 H 0.28523 0.84204 0.95278 0.0
H1210 H 0.24524 0.77148 0.85435 0.0
H1211 H 0.22075 0.75677 0.88164 0.0
H1212 H 0.2575 0.73993 0.87646 0.0
H1213 H 0.24007 0.879 0.90425 0.0
H1214 H 0.24972 0.87946 0.94171 0.0
H1215 H 0.21492 0.86447 0.9311 0.0
C1216 C 0.43007 0.06361 0.1728 0.0
C1217 C 0.46047 0.06932 0.1733 0.0
C1218 C 0.41958 0.03907 0.15709 0.0
C1219 C 0.43999 0.0196 0.14165 0.0
C1220 C 0.47064 0.02566 0.14142 0.0
C1221 C 0.48052 0.05056 0.15716 0.0
C1222 C 0.38668 0.03358 0.1576 0.0
C1223 C 0.49306 1.0053 0.1253 0.0
C1224 C 0.41305 0.93979 0.12864 0.0
C1225 C 0.40369 0.94193 0.10011 0.0
C1226 C 0.42589 0.96459 0.14208 0.0
C1227 C 0.42916 0.99228 0.12669 0.0
C1228 C 0.42041 0.99433 0.09765 0.0
C1229 C 0.40788 0.96907 0.08466 0.0
C1230 C 0.43527 0.96141 0.17298 0.0
C1231 C 0.4233 0.02354 0.08064 0.0
H1232 H 0.41438 0.0781 0.18502 0.0
H1233 H 0.50406 0.05475 0.1575 0.0
H1234 H 0.37868 0.03234 0.13523 0.0
H1235 H 0.38223 0.01136 0.16811 0.0
H1236 H 0.37363 0.05173 0.16943 0.0
H1237 H 0.51589 0.01401 0.12604 0.0
H1238 H 0.49303 0.98207 0.13481 0.0
H1239 H 0.487 1.00313 0.10238 0.0
H1240 H 0.41016 0.91871 0.1405 0.0
H1241 H 0.4004 0.97089 0.06269 0.0
H1242 H 0.42149 0.97705 0.18702 0.0
H1243 H 0.45868 0.96801 0.17484 0.0
H1244 H 0.43303 0.93778 0.18126 0.0
H1245 H 0.40867 0.04164 0.09064 0.0
H1246 H 0.41721 0.02081 0.05775 0.0
H1247 H 0.44636 0.03153 0.08117 0.0
C1248 C 0.8066 0.36683 0.64609 0.0
C1249 C 0.83369 0.36287 0.6306 0.0
C1250 C 0.78003 0.35648 0.63497 0.0
C1251 C 0.78055 0.3418 0.60772 0.0
C1252 C 0.80786 0.3374 0.59218 0.0
C1253 C 0.83403 0.34794 0.6038 0.0
C1254 C 0.75136 0.36165 0.65217 0.0
C1255 C 0.80942 0.32177 0.5631 0.0
C1256 C 0.71776 0.29209 0.58441 0.0
C1257 C 0.70284 0.31151 0.5652 0.0
C1258 C 0.74248 0.30195 0.59924 0.0
C1259 C 0.75251 0.33195 0.59479 0.0
C1260 C 0.73682 0.35202 0.57635 0.0
C1261 C 0.71224 0.34158 0.56181 0.0
C1262 C 0.75853 0.2799 0.61881 0.0
C1263 C 0.74667 0.38422 0.57108 0.0
H1264 H 0.80609 0.37852 0.66671 0.0
H1265 H 0.8549 0.34422 0.59193 0.0
H1266 H 0.73606 0.37667 0.63989 0.0
H1267 H 0.74023 0.33968 0.65568 0.0
H1268 H 0.75487 0.37229 0.6735 0.0
H1269 H 0.83248 0.31951 0.55408 0.0
H1270 H 0.80013 0.2987 0.56497 0.0
H1271 H 0.7958 0.33489 0.54757 0.0
H1272 H 0.71069 0.26885 0.58727 0.0
H1273 H 0.70081 0.3569 0.54721 0.0
H1274 H 0.76145 0.29042 0.64027 0.0
H1275 H 0.78099 0.27438 0.60948 0.0
H1276 H 0.74656 0.2583 0.62185 0.0
H1277 H 0.74902 0.39622 0.59191 0.0
H1278 H 0.7309 0.39761 0.55774 0.0
H1279 H 0.76875 0.38367 0.55982 0.0
C1280 C 0.92836 0.46771 0.80064 0.0
C1281 C 0.95455 0.44971 0.79916 0.0
C1282 C 0.92363 0.49018 0.82193 0.0
C1283 C 0.94571 0.495 0.84238 0.0
C1284 C 0.97184 0.47611 0.8417 0.0
C1285 C 0.97596 0.45361 0.82005 0.0
C1286 C 0.89532 0.50948 0.82189 0.0
C1287 C 0.99592 0.48041 0.86308 0.0
C1288 C 0.94102 0.57564 0.87265 0.0
C1289 C 0.92398 0.57181 0.89821 0.0
C1290 C 0.94991 0.55056 0.85521 0.0
C1291 C 0.94153 0.5208 0.86338 0.0
C1292 C 0.92573 0.51659 0.88993 0.0
C1293 C 0.91714 0.54208 0.90698 0.0
C1294 C 0.96694 0.55613 0.82722 0.0
C1295 C 0.91637 0.48532 0.89953 0.0
H1296 H 0.91169 0.46472 0.7846 0.0
H1297 H 0.99633 0.43985 0.81889 0.0
H1298 H 0.88387 0.50869 0.84341 0.0
H1299 H 0.9006 0.53362 0.81747 0.0
H1300 H 0.87979 0.50188 0.80538 0.0
H1301 H 0.01288 0.46152 0.86212 0.0
H1302 H 1.00709 0.50214 0.85839 0.0
H1303 H 0.98633 0.482 0.8854 0.0
H1304 H 0.9469 0.59841 0.86593 0.0
H1305 H 0.90379 0.53879 0.92652 0.0
H1306 H 0.95261 0.55157 0.80875 0.0
H1307 H 0.98655 0.54034 0.82524 0.0
H1308 H 0.97451 0.57995 0.82544 0.0
H1309 H 0.8987 0.47743 0.88543 0.0
H1310 H 0.90773 0.48527 0.92225 0.0
H1311 H 0.93527 0.46863 0.89741 0.0
C1312 C 0.77554 0.68637 0.0644 0.0
C1313 C 0.78779 0.71483 0.06953 0.0
C1314 C 0.74965 0.67743 0.07918 0.0
C1315 C 0.73553 0.69744 0.0996 0.0
C1316 C 0.74811 0.7259 0.10546 0.0
C1317 C 0.77414 0.73425 0.09038 0.0
C1318 C 0.73705 0.6468 0.07246 0.0
C1319 C 0.73368 0.74781 0.12712 0.0
C1320 C 0.6533 0.68556 0.11325 0.0
C1321 C 0.65325 0.66858 0.13892 0.0
C1322 C 0.67987 0.69585 0.10067 0.0
C1323 C 0.70707 0.68883 0.114 0.0
C1324 C 0.70712 0.67213 0.14017 0.0
C1325 C 0.68019 0.66226 0.15236 0.0
C1326 C 0.67889 0.71377 0.07284 0.0
C1327 C 0.73568 0.66401 0.1549 0.0
H1328 H 0.78596 0.67108 0.04849 0.0
H1329 H 0.7834 0.75628 0.0945 0.0
H1330 H 0.73422 0.6333 0.09258 0.0
H1331 H 0.71479 0.65008 0.06321 0.0
H1332 H 0.75138 0.63338 0.05689 0.0
H1333 H 0.74707 0.76832 0.13031 0.0
H1334 H 0.71148 0.7553 0.11969 0.0
H1335 H 0.73031 0.73632 0.14827 0.0
H1336 H 0.63248 0.69088 0.10303 0.0
H1337 H 0.68029 0.64892 0.17207 0.0
H1338 H 0.69101 0.70085 0.05536 0.0
H1339 H 0.69013 0.73573 0.07531 0.0
H1340 H 0.65584 0.71862 0.06601 0.0
H1341 H 0.74976 0.64876 0.14074 0.0
H1342 H 0.73178 0.65236 0.17594 0.0
H1343 H 0.74836 0.68485 0.15864 0.0
C1344 C 0.57053 0.48401 0.41249 0.0
C1345 C 0.57905 0.4567 0.39833 0.0
C1346 C 0.55957 0.50934 0.39703 0.0
C1347 C 0.55696 0.50729 0.3667 0.0
C1348 C 0.56444 0.4794 0.35248 0.0
C1349 C 0.57544 0.45452 0.36844 0.0
C1350 C 0.55192 0.53866 0.41299 0.0
C1351 C 0.56172 0.47613 0.32022 0.0
C1352 C 0.51126 0.56546 0.32438 0.0
C1353 C 0.53351 0.58334 0.31189 0.0
C1354 C 0.5184 0.54116 0.34304 0.0
C1355 C 0.54846 0.53475 0.34942 0.0
C1356 C 0.57081 0.55364 0.33784 0.0
C1357 C 0.56307 0.57764 0.31919 0.0
C1358 C 0.49391 0.52165 0.355 0.0
C1359 C 0.60309 0.54782 0.34429 0.0
H1360 H 0.57349 0.48597 0.43555 0.0
H1361 H 0.58156 0.43335 0.35743 0.0
H1362 H 0.56778 0.55636 0.40626 0.0
H1363 H 0.52944 0.54726 0.40748 0.0
H1364 H 0.55273 0.53579 0.4368 0.0
H1365 H 0.56658 0.4524 0.31273 0.0
H1366 H 0.53901 0.48306 0.31379 0.0
H1367 H 0.57736 0.49146 0.30888 0.0
H1368 H 0.48835 0.56984 0.31887 0.0
H1369 H 0.58033 0.59153 0.30975 0.0
H1370 H 0.49545 0.51934 0.37877 0.0
H1371 H 0.49635 0.49839 0.34567 0.0
H1372 H 0.47154 0.53116 0.35003 0.0
H1373 H 0.60601 0.54669 0.36797 0.0
H1374 H 0.61751 0.56576 0.33515 0.0
H1375 H 0.61073 0.52548 0.33513 0.0
C1376 C 0.38042 0.33439 0.1662 0.0
C1377 C 0.35071 0.33002 0.15963 0.0
C1378 C 0.39868 0.30998 0.17537 0.0
C1379 C 0.38694 0.28048 0.17808 0.0
C1380 C 0.35663 0.2762 0.17273 0.0
C1381 C 0.3389 0.301 0.16354 0.0
C1382 C 0.43088 0.3155 0.18089 0.0
C1383 C 0.3432 0.24518 0.17563 0.0
C1384 C 0.4417 0.21368 0.16737 0.0
C1385 C 0.44726 0.20514 0.19589 0.0
C1386 C 0.42176 0.23784 0.16133 0.0
C1387 C 0.40692 0.25379 0.18439 0.0
C1388 C 0.41184 0.24469 0.21325 0.0
C1389 C 0.43202 0.22047 0.21866 0.0
C1390 C 0.41705 0.24673 0.13025 0.0
C1391 C 0.39629 0.26094 0.2384 0.0
H1392 H 0.38979 0.35666 0.16299 0.0
H1393 H 0.31584 0.29757 0.15893 0.0
H1394 H 0.43682 0.30647 0.20241 0.0
H1395 H 0.44513 0.30315 0.16453 0.0
H1396 H 0.43602 0.3401 0.17993 0.0
H1397 H 0.3188 0.24616 0.17307 0.0
H1398 H 0.35329 0.2296 0.15895 0.0
H1399 H 0.34803 0.2351 0.19701 0.0
H1400 H 0.45337 0.20182 0.1497 0.0
H1401 H 0.43618 0.21382 0.24076 0.0
H1402 H 0.42408 0.27048 0.12655 0.0
H1403 H 0.39315 0.24604 0.12543 0.0
H1404 H 0.42966 0.2315 0.11481 0.0
H1405 H 0.40334 0.28493 0.23914 0.0
H1406 H 0.40115 0.24989 0.2594 0.0
H1407 H 0.37194 0.26151 0.23563 0.0
C1408 C 0.92153 0.30394 0.76257 0.0
C1409 C 0.94367 0.31582 0.77959 0.0
C1410 C 0.90507 0.27881 0.77204 0.0
C1411 C 0.91093 0.26514 0.79911 0.0
C1412 C 0.93283 0.2774 0.81658 0.0
C1413 C 0.94883 0.30252 0.80667 0.0
C1414 C 0.88177 0.26655 0.75284 0.0
C1415 C 0.93987 0.26355 0.84555 0.0
C1416 C 0.8553 0.21327 0.83663 0.0
C1417 C 0.86742 0.18414 0.83002 0.0
C1418 C 0.8688 0.23981 0.8262 0.0
C1419 C 0.89516 0.23727 0.80883 0.0
C1420 C 0.90734 0.20797 0.80186 0.0
C1421 C 0.89331 0.18185 0.81242 0.0
C1422 C 0.85509 0.2706 0.83413 0.0
C1423 C 0.93543 0.20418 0.78347 0.0
H1424 H 0.91724 0.31404 0.74168 0.0
H1425 H 0.96578 0.31143 0.82013 0.0
H1426 H 0.88812 0.24292 0.74612 0.0
H1427 H 0.86019 0.26557 0.76491 0.0
H1428 H 0.87876 0.28067 0.73316 0.0
H1429 H 0.95681 0.27641 0.85697 0.0
H1430 H 0.91948 0.26289 0.85951 0.0
H1431 H 0.94821 0.23967 0.84256 0.0
H1432 H 0.83547 0.21538 0.85036 0.0
H1433 H 0.90255 0.15953 0.8066 0.0
H1434 H 0.85112 0.2842 0.81433 0.0
H1435 H 0.8706 0.28342 0.84733 0.0
H1436 H 0.83375 0.26871 0.84652 0.0
H1437 H 0.93269 0.21581 0.76239 0.0
H1438 H 0.94166 0.17983 0.7794 0.0
H1439 H 0.954 0.21506 0.79428 0.0
C1440 C 0.04084 0.60512 0.07493 0.0
C1441 C 0.05038 0.61405 0.10214 0.0
C1442 C 0.0142 0.61698 0.06398 0.0
C1443 C 0.99684 0.63834 0.0806 0.0
C1444 C 1.00519 0.64545 0.10899 0.0
C1445 C 0.03187 0.63324 0.1194 0.0
C1446 C 1.00596 0.60858 0.03373 0.0
C1447 C 0.9872 0.66792 0.12755 0.0
C1448 C 0.95999 0.70624 0.04505 0.0
C1449 C 0.92987 0.69999 0.04869 0.0
C1450 C 0.98196 0.68543 0.0538 0.0
C1451 C 0.97361 0.65761 0.06675 0.0
C1452 C 0.94323 0.65021 0.06877 0.0
C1453 C 0.92155 0.67159 0.05957 0.0
C1454 C 0.01407 0.69415 0.05077 0.0
C1455 C 0.93354 0.62062 0.08212 0.0
H1456 H 0.05504 0.59029 0.06144 0.0
H1457 H 0.03882 0.63965 0.14069 0.0
H1458 H 0.98175 0.60524 0.03256 0.0
H1459 H 0.0117 0.62742 0.01876 0.0
H1460 H 0.01798 0.58748 0.02609 0.0
H1461 H 0.99438 0.66784 0.15028 0.0
H1462 H 0.98971 0.69125 0.11868 0.0
H1463 H 0.9633 0.66273 0.12735 0.0
H1464 H 0.96644 0.72805 0.03617 0.0
H1465 H 0.89822 0.66674 0.06229 0.0
H1466 H 0.02749 0.67567 0.03989 0.0
H1467 H 0.02318 0.69741 0.0725 0.0
H1468 H 0.01687 0.71554 0.03823 0.0
H1469 H 0.948 0.60127 0.07428 0.0
H1470 H 0.91015 0.61584 0.07732 0.0
H1471 H 0.93549 0.62186 0.1059 0.0
C1472 C 0.65494 0.80881 0.33597 0.0
C1473 C 0.64499 0.83917 0.33241 0.0
C1474 C 0.63917 0.78449 0.32499 0.0
C1475 C 0.61276 0.79063 0.31003 0.0
C1476 C 0.60328 0.82126 0.30526 0.0
C1477 C 0.61951 0.84516 0.31649 0.0
C1478 C 0.65015 0.75219 0.3304 0.0
C1479 C 0.57526 0.82878 0.2894 0.0
C1480 C 0.57917 0.72713 0.26663 0.0
C1481 C 0.5571 0.71683 0.28602 0.0
C1482 C 0.59755 0.75107 0.27409 0.0
C1483 C 0.59378 0.76504 0.30158 0.0
C1484 C 0.57175 0.75454 0.32131 0.0
C1485 C 0.55375 0.73062 0.31331 0.0
C1486 C 0.62083 0.76158 0.2525 0.0
C1487 C 0.56705 0.76871 0.35088 0.0
H1488 H 0.67491 0.80401 0.3478 0.0
H1489 H 0.61155 0.86852 0.31381 0.0
H1490 H 0.63421 0.74058 0.34509 0.0
H1491 H 0.65156 0.73912 0.30989 0.0
H1492 H 0.67228 0.75131 0.34029 0.0
H1493 H 0.57233 0.85362 0.28526 0.0
H1494 H 0.57547 0.81652 0.26845 0.0
H1495 H 0.55579 0.82104 0.30234 0.0
H1496 H 0.58197 0.71665 0.2455 0.0
H1497 H 0.53683 0.72289 0.32851 0.0
H1498 H 0.64307 0.75994 0.26206 0.0
H1499 H 0.61648 0.78589 0.247 0.0
H1500 H 0.62136 0.74795 0.23228 0.0
H1501 H 0.58782 0.7667 0.36304 0.0
H1502 H 0.54905 0.75783 0.36373 0.0
H1503 H 0.5614 0.79339 0.34873 0.0
C1504 C 0.55549 0.34025 0.5263 0.0
C1505 C 0.57033 0.32443 0.54817 0.0
C1506 C 0.53141 0.36038 0.53297 0.0
C1507 C 0.52191 0.36462 0.56217 0.0
C1508 C 0.53741 0.34934 0.58434 0.0
C1509 C 0.56147 0.3295 0.57707 0.0
C1510 C 0.51572 0.37649 0.50872 0.0
C1511 C 0.52813 0.35336 0.61576 0.0
C1512 C 0.47322 0.43265 0.58651 0.0
C1513 C 0.44533 0.41952 0.59 0.0
C1514 C 0.49815 0.41538 0.57645 0.0
C1515 C 0.49518 0.38416 0.56973 0.0
C1516 C 0.46688 0.37106 0.57214 0.0
C1517 C 0.44232 0.38889 0.58223 0.0
C1518 C 0.52785 0.43027 0.57395 0.0
C1519 C 0.46276 0.33787 0.56517 0.0
H1520 H 0.5624 0.33653 0.50392 0.0
H1521 H 0.57295 0.31742 0.59405 0.0
H1522 H 0.49273 0.36837 0.50766 0.0
H1523 H 0.51417 0.4014 0.51283 0.0
H1524 H 0.52717 0.37247 0.48742 0.0
H1525 H 0.54314 0.34068 0.63043 0.0
H1526 H 0.52784 0.37787 0.62165 0.0
H1527 H 0.50528 0.3452 0.61943 0.0
H1528 H 0.47563 0.45645 0.59201 0.0
H1529 H 0.42095 0.37847 0.5851 0.0
H1530 H 0.5382 0.42615 0.55221 0.0
H1531 H 0.54301 0.42002 0.58994 0.0
H1532 H 0.52602 0.45527 0.57778 0.0
H1533 H 0.47198 0.33253 0.54321 0.0
H1534 H 0.43906 0.33168 0.56628 0.0
H1535 H 0.47509 0.32333 0.58063 0.0
C1536 C 0.11436 0.71538 0.64361 0.0
C1537 C 0.12968 0.69635 0.66282 0.0
C1538 C 0.09778 0.74107 0.65349 0.0
C1539 C 0.09657 0.74808 0.68335 0.0
C1540 C 0.11308 0.72981 0.70271 0.0
C1541 C 0.12939 0.70411 0.69223 0.0
C1542 C 0.08054 0.75997 0.63209 0.0
C1543 C 0.11248 0.73661 0.73467 0.0
C1544 C 0.06311 0.82618 0.70398 0.0
C1545 C 0.03354 0.81899 0.71024 0.0
C1546 C 0.08431 0.8032 0.69618 0.0
C1547 C 0.07556 0.77249 0.69445 0.0
C1548 C 0.04592 0.76514 0.70167 0.0
C1549 C 0.02535 0.78844 0.70955 0.0
C1550 C 0.11578 0.81187 0.68896 0.0
C1551 C 0.0356 0.73273 0.70012 0.0
H1552 H 0.115 0.70996 0.62076 0.0
H1553 H 0.14105 0.68948 0.70727 0.0
H1554 H 0.05641 0.75772 0.63663 0.0
H1555 H 0.08555 0.78444 0.63433 0.0
H1556 H 0.08558 0.75287 0.60941 0.0
H1557 H 0.12919 0.72256 0.74628 0.0
H1558 H 0.11663 0.76107 0.73846 0.0
H1559 H 0.09018 0.73195 0.74414 0.0
H1560 H 0.06953 0.84978 0.70454 0.0
H1561 H 1.00255 0.78272 0.71455 0.0
H1562 H 0.12072 0.8081 0.6656 0.0
H1563 H 0.1316 0.79722 0.70102 0.0
H1564 H 0.1197 0.83613 0.69408 0.0
H1565 H 0.03772 0.72446 0.67749 0.0
H1566 H 0.01216 0.73066 0.70773 0.0
H1567 H 0.04976 0.71749 0.71338 0.0
C1568 C 0.43147 0.84208 0.97358 0.0
C1569 C 0.4191 0.82408 0.95229 0.0
C1570 C 0.45568 0.86067 0.967 0.0
C1571 C 0.4682 0.86087 0.93854 0.0
C1572 C 0.45528 0.84331 0.91683 0.0
C1573 C 0.43078 0.82538 0.9239 0.0
C1574 C 0.4683 0.8795 0.99068 0.0
C1575 C 0.46794 0.84268 0.88625 0.0
C1576 C 0.51788 0.92441 0.91161 0.0
C1577 C 0.54633 0.91087 0.91367 0.0
C1578 C 0.49236 0.90883 0.9205 0.0
C1579 C 0.49523 0.87875 0.93143 0.0
C1580 C 0.52394 0.86519 0.93415 0.0
C1581 C 0.54913 0.88147 0.92543 0.0
C1582 C 0.46229 0.92437 0.91767 0.0
C1583 C 0.52802 0.83309 0.94545 0.0
H1584 H 0.42258 0.84115 0.99557 0.0
H1585 H 0.42142 0.8115 0.90733 0.0
H1586 H 0.491 0.87084 0.99532 0.0
H1587 H 0.4701 0.90358 0.98366 0.0
H1588 H 0.45452 0.87886 0.01097 0.0
H1589 H 0.455 0.82834 0.87176 0.0
H1590 H 0.46838 0.86614 0.87731 0.0
H1591 H 0.49117 0.83364 0.88612 0.0
H1592 H 0.51555 0.94731 0.90297 0.0
H1593 H 0.57101 0.87079 0.92693 0.0
H1594 H 0.44971 0.92378 0.93862 0.0
H1595 H 0.44929 0.91201 0.90172 0.0
H1596 H 0.46392 0.9485 0.9106 0.0
H1597 H 0.51691 0.831 0.96703 0.0
H1598 H 0.55178 0.8262 0.94722 0.0
H1599 H 0.51747 0.81689 0.93083 0.0
C1600 C 0.91484 0.15294 0.42499 0.0
C1601 C 0.91796 0.12939 0.40458 0.0
C1602 C 0.93984 0.16658 0.4362 0.0
C1603 C 0.96863 0.15623 0.42695 0.0
C1604 C 0.97188 0.1317 0.40714 0.0
C1605 C 0.94653 0.11867 0.39613 0.0
C1606 C 0.93542 0.19279 0.45714 0.0
C1607 C 1.00216 0.11975 0.39699 0.0
C1608 C 0.03111 0.21231 0.42925 0.0
C1609 C 0.04535 0.2037 0.45465 0.0
C1610 C 1.0062 0.19702 0.42006 0.0
C1611 C 0.99528 0.1723 0.43651 0.0
C1612 C 0.00978 0.16315 0.46193 0.0
C1613 C 0.03458 0.17901 0.47076 0.0
C1614 C 0.99134 0.20757 0.39286 0.0
C1615 C 0.99898 0.13673 0.4799 0.0
H1616 H 0.89283 0.16144 0.43145 0.0
H1617 H 0.94906 0.10014 0.3807 0.0
H1618 H 0.9481 0.18826 0.47692 0.0
H1619 H 0.94407 0.2139 0.44718 0.0
H1620 H 0.9117 0.19694 0.46348 0.0
H1621 H 1.00091 0.0992 0.38312 0.0
H1622 H 0.01372 0.13768 0.38449 0.0
H1623 H 0.01591 0.11394 0.41578 0.0
H1624 H 0.03913 0.23137 0.41665 0.0
H1625 H 0.04543 0.17212 0.49038 0.0
H1626 H 0.96788 0.21442 0.39791 0.0
H1627 H 0.99124 0.18859 0.37706 0.0
H1628 H 1.00256 0.22717 0.38253 0.0
H1629 H 0.97592 0.14161 0.48794 0.0
H1630 H 0.01311 0.132 0.49871 0.0
H1631 H 0.99863 0.11585 0.46643 0.0
loop_
_geom_bond_atom_site_label_1
_geom_bond_atom_site_label_2
_geom_bond_distance
_geom_bond_site_symmetry_2
_ccdc_geom_bond_type
Pr0 C2 2.880 . S
Pr0 O20 2.562 . S
Pr0 O21 2.490 . S
Pr0 O22 2.695 . S
Pr0 O23 2.512 . S
Pr0 O25 2.437 . S
Pr0 O28 2.436 . S
Pr0 O30 2.438 . S
Pr1 C11 2.880 . S
Pr1 O22 2.436 . S
Pr1 O24 2.438 . S
Pr1 O26 2.562 . S
Pr1 O27 2.490 . S
Pr1 O28 2.695 . S
Pr1 O29 2.512 . S
Pr1 O31 2.437 . S
C2 Pr0 2.880 . S
C2 C3 1.491 . S
C2 O20 1.254 . S
C2 O21 1.225 . S
C3 C2 1.491 . S
C3 C4 1.392 . S
C3 C8 1.356 . S
C4 C3 1.392 . S
C4 C5 1.368 . S
C4 H32 0.929 . S
C5 C4 1.368 . S
C5 C6 1.386 . S
C5 H33 0.929 . S
C6 C5 1.386 . S
C6 C7 1.373 . S
C7 C6 1.373 . S
C7 C8 1.409 . S
C7 H34 0.931 . S
C8 C3 1.356 . S
C8 C7 1.409 . S
C8 H35 0.930 . S
C9 O22 1.270 . S
C9 O23 1.248 . S
C10 O24 1.267 . S
C10 O25 1.278 . S
C11 Pr1 2.880 . S
C11 C12 1.491 . S
C11 O26 1.254 . S
C11 O27 1.225 . S
C12 C11 1.491 . S
C12 C13 1.392 . S
C12 C17 1.356 . S
C13 C12 1.392 . S
C13 C14 1.368 . S
C13 H36 0.929 . S
C14 C13 1.368 . S
C14 C15 1.386 . S
C14 H37 0.929 . S
C15 C14 1.386 . S
C15 C16 1.373 . S
C16 C15 1.373 . S
C16 C17 1.409 . S
C16 H38 0.931 . S
C17 C12 1.356 . S
C17 C16 1.409 . S
C17 H39 0.930 . S
C18 O28 1.270 . S
C18 O29 1.248 . S
C19 O30 1.267 . S
C19 O31 1.278 . S
O20 Pr0 2.562 . S
O20 C2 1.254 . S
O21 Pr0 2.490 . S
O21 C2 1.225 . S
O22 Pr0 2.695 . S
O22 Pr1 2.436 . S
O22 C9 1.270 . S
O23 Pr0 2.512 . S
O23 C9 1.248 . S
O24 Pr1 2.438 . S
O24 C10 1.267 . S
O25 Pr0 2.437 . S
O25 C10 1.278 . S
O26 Pr1 2.562 . S
O26 C11 1.254 . S
O27 Pr1 2.490 . S
O27 C11 1.225 . S
O28 Pr0 2.436 . S
O28 Pr1 2.695 . S
O28 C18 1.270 . S
O29 Pr1 2.512 . S
O29 C18 1.248 . S
O30 Pr0 2.438 . S
O30 C19 1.267 . S
O31 Pr1 2.437 . S
O31 C19 1.278 . S
H32 C4 0.929 . S
H33 C5 0.929 . S
H34 C7 0.931 . S
H35 C8 0.930 . S
H36 C13 0.929 . S
H37 C14 0.929 . S
H38 C16 0.931 . S
H39 C17 0.930 . S
Pr40 C42 2.880 . S
Pr40 O60 2.562 . S
Pr40 O61 2.490 . S
Pr40 O62 2.695 1_655 S
Pr40 O63 2.512 1_655 S
Pr40 O65 2.437 1_655 S
Pr40 O68 2.436 . S
Pr40 O70 2.438 . S
Pr41 C51 2.880 . S
Pr41 O62 2.436 . S
Pr41 O64 2.438 . S
Pr41 O66 2.562 . S
Pr41 O67 2.490 . S
Pr41 O68 2.695 1_455 S
Pr41 O69 2.512 1_455 S
Pr41 O71 2.437 1_455 S
C42 Pr40 2.880 . S
C42 C43 1.491 . S
C42 O60 1.254 . S
C42 O61 1.225 . S
C43 C42 1.491 . S
C43 C44 1.392 . S
C43 C48 1.356 . S
C44 C43 1.392 . S
C44 C45 1.368 . S
C44 H72 0.929 . S
C45 C44 1.368 . S
C45 C46 1.386 . S
C45 H73 0.929 . S
C46 C45 1.386 . S
C46 C47 1.373 . S
C47 C46 1.373 . S
C47 C48 1.409 . S
C47 H74 0.931 . S
C48 C43 1.356 . S
C48 C47 1.409 . S
C48 H75 0.930 . S
C49 O62 1.270 . S
C49 O63 1.248 . S
C50 O64 1.267 . S
C50 O65 1.278 . S
C51 Pr41 2.880 . S
C51 C52 1.491 . S
C51 O66 1.254 . S
C51 O67 1.225 . S
C52 C51 1.491 . S
C52 C53 1.392 . S
C52 C57 1.356 . S
C53 C52 1.392 . S
C53 C54 1.368 . S
C53 H76 0.929 . S
C54 C53 1.368 . S
C54 C55 1.386 . S
C54 H77 0.929 . S
C55 C54 1.386 . S
C55 C56 1.373 . S
C56 C55 1.373 . S
C56 C57 1.409 . S
C56 H78 0.931 . S
C57 C52 1.356 . S
C57 C56 1.409 . S
C57 H79 0.930 . S
C58 O68 1.270 . S
C58 O69 1.248 . S
C59 O70 1.267 . S
C59 O71 1.278 . S
O60 Pr40 2.562 . S
O60 C42 1.254 . S
O61 Pr40 2.490 . S
O61 C42 1.225 . S
O62 Pr40 2.695 1_455 S
O62 Pr41 2.436 . S
O62 C49 1.270 . S
O63 Pr40 2.512 1_455 S
O63 C49 1.248 . S
O64 Pr41 2.438 . S
O64 C50 1.267 . S
O65 Pr40 2.437 1_455 S
O65 C50 1.278 . S
O66 Pr41 2.562 . S
O66 C51 1.254 . S
O67 Pr41 2.490 . S
O67 C51 1.225 . S
O68 Pr40 2.436 . S
O68 Pr41 2.695 1_655 S
O68 C58 1.270 . S
O69 Pr41 2.512 1_655 S
O69 C58 1.248 . S
O70 Pr40 2.438 . S
O70 C59 1.267 . S
O71 Pr41 2.437 1_655 S
O71 C59 1.278 . S
H72 C44 0.929 . S
H73 C45 0.929 . S
H74 C47 0.931 . S
H75 C48 0.930 . S
H76 C53 0.929 . S
H77 C54 0.929 . S
H78 C56 0.931 . S
H79 C57 0.930 . S
Pr80 C82 2.880 . S
Pr80 O100 2.562 . S
Pr80 O101 2.490 . S
Pr80 O102 2.695 . S
Pr80 O103 2.512 . S
Pr80 O105 2.437 . S
Pr80 O108 2.436 1_556 S
Pr80 O110 2.438 1_556 S
Pr81 C91 2.880 . S
Pr81 O102 2.436 1_554 S
Pr81 O104 2.438 1_554 S
Pr81 O106 2.562 . S
Pr81 O107 2.490 . S
Pr81 O108 2.695 . S
Pr81 O109 2.512 . S
Pr81 O111 2.437 . S
C82 Pr80 2.880 . S
C82 C83 1.491 . S
C82 O100 1.254 . S
C82 O101 1.225 . S
C83 C82 1.491 . S
C83 C84 1.392 . S
C83 C88 1.356 . S
C84 C83 1.392 . S
C84 C85 1.368 . S
C84 H112 0.929 . S
C85 C84 1.368 . S
C85 C86 1.386 . S
C85 H113 0.929 . S
C86 C85 1.386 . S
C86 C87 1.373 . S
C87 C86 1.373 . S
C87 C88 1.409 . S
C87 H114 0.931 . S
C88 C83 1.356 . S
C88 C87 1.409 . S
C88 H115 0.930 . S
C89 O102 1.270 . S
C89 O103 1.248 . S
C90 O104 1.267 . S
C90 O105 1.278 . S
C91 Pr81 2.880 . S
C91 C92 1.491 . S
C91 O106 1.254 . S
C91 O107 1.225 . S
C92 C91 1.491 . S
C92 C93 1.392 . S
C92 C97 1.356 . S
C93 C92 1.392 . S
C93 C94 1.368 . S
C93 H116 0.929 . S
C94 C93 1.368 . S
C94 C95 1.386 . S
C94 H117 0.929 . S
C95 C94 1.386 . S
C95 C96 1.373 . S
C96 C95 1.373 . S
C96 C97 1.409 . S
C96 H118 0.931 . S
C97 C92 1.356 . S
C97 C96 1.409 . S
C97 H119 0.930 . S
C98 O108 1.270 . S
C98 O109 1.248 . S
C99 O110 1.267 . S
C99 O111 1.278 . S
O100 Pr80 2.562 . S
O100 C82 1.254 . S
O101 Pr80 2.490 . S
O101 C82 1.225 . S
O102 Pr80 2.695 . S
O102 Pr81 2.436 1_556 S
O102 C89 1.270 . S
O103 Pr80 2.512 . S
O103 C89 1.248 . S
O104 Pr81 2.438 1_556 S
O104 C90 1.267 . S
O105 Pr80 2.437 . S
O105 C90 1.278 . S
O106 Pr81 2.562 . S
O106 C91 1.254 . S
O107 Pr81 2.490 . S
O107 C91 1.225 . S
O108 Pr80 2.436 1_554 S
O108 Pr81 2.695 . S
O108 C98 1.270 . S
O109 Pr81 2.512 . S
O109 C98 1.248 . S
O110 Pr80 2.438 1_554 S
O110 C99 1.267 . S
O111 Pr81 2.437 . S
O111 C99 1.278 . S
H112 C84 0.929 . S
H113 C85 0.929 . S
H114 C87 0.931 . S
H115 C88 0.930 . S
H116 C93 0.929 . S
H117 C94 0.929 . S
H118 C96 0.931 . S
H119 C97 0.930 . S
Pr120 C122 2.880 . S
Pr120 O140 2.562 . S
Pr120 O141 2.490 . S
Pr120 O142 2.695 . S
Pr120 O143 2.512 . S
Pr120 O145 2.437 . S
Pr120 O148 2.436 . S
Pr120 O150 2.438 . S
Pr121 C131 2.880 . S
Pr121 O142 2.436 . S
Pr121 O144 2.438 . S
Pr121 O146 2.562 . S
Pr121 O147 2.490 . S
Pr121 O148 2.695 . S
Pr121 O149 2.512 . S
Pr121 O151 2.437 . S
C122 Pr120 2.880 . S
C122 C123 1.491 . S
C122 O140 1.254 . S
C122 O141 1.225 . S
C123 C122 1.491 . S
C123 C124 1.392 . S
C123 C128 1.356 . S
C124 C123 1.392 . S
C124 C125 1.368 . S
C124 H152 0.929 . S
C125 C124 1.368 . S
C125 C126 1.386 . S
C125 H153 0.929 . S
C126 C125 1.386 . S
C126 C127 1.373 . S
C127 C126 1.373 . S
C127 C128 1.409 . S
C127 H154 0.931 . S
C128 C123 1.356 . S
C128 C127 1.409 . S
C128 H155 0.930 . S
C129 O142 1.270 . S
C129 O143 1.248 . S
C130 O144 1.267 . S
C130 O145 1.278 . S
C131 Pr121 2.880 . S
C131 C132 1.491 . S
C131 O146 1.254 . S
C131 O147 1.225 . S
C132 C131 1.491 . S
C132 C133 1.392 . S
C132 C137 1.356 . S
C133 C132 1.392 . S
C133 C134 1.368 . S
C133 H156 0.929 . S
C134 C133 1.368 . S
C134 C135 1.386 . S
C134 H157 0.929 . S
C135 C134 1.386 . S
C135 C136 1.373 . S
C136 C135 1.373 . S
C136 C137 1.409 . S
C136 H158 0.931 . S
C137 C132 1.356 . S
C137 C136 1.409 . S
C137 H159 0.930 . S
C138 O148 1.270 . S
C138 O149 1.248 . S
C139 O150 1.267 . S
C139 O151 1.278 . S
O140 Pr120 2.562 . S
O140 C122 1.254 . S
O141 Pr120 2.490 . S
O141 C122 1.225 . S
O142 Pr120 2.695 . S
O142 Pr121 2.436 . S
O142 C129 1.270 . S
O143 Pr120 2.512 . S
O143 C129 1.248 . S
O144 Pr121 2.438 . S
O144 C130 1.267 . S
O145 Pr120 2.437 . S
O145 C130 1.278 . S
O146 Pr121 2.562 . S
O146 C131 1.254 . S
O147 Pr121 2.490 . S
O147 C131 1.225 . S
O148 Pr120 2.436 . S
O148 Pr121 2.695 . S
O148 C138 1.270 . S
O149 Pr121 2.512 . S
O149 C138 1.248 . S
O150 Pr120 2.438 . S
O150 C139 1.267 . S
O151 Pr121 2.437 . S
O151 C139 1.278 . S
H152 C124 0.929 . S
H153 C125 0.929 . S
H154 C127 0.931 . S
H155 C128 0.930 . S
H156 C133 0.929 . S
H157 C134 0.929 . S
H158 C136 0.931 . S
H159 C137 0.930 . S
Pr160 C162 2.880 . S
Pr160 O180 2.562 . S
Pr160 O181 2.490 . S
Pr160 O182 2.695 . S
Pr160 O183 2.512 . S
Pr160 O185 2.437 . S
Pr160 O188 2.436 . S
Pr160 O190 2.438 . S
Pr161 C171 2.880 . S
Pr161 O182 2.436 . S
Pr161 O184 2.438 . S
Pr161 O186 2.562 . S
Pr161 O187 2.490 . S
Pr161 O188 2.695 . S
Pr161 O189 2.512 . S
Pr161 O191 2.437 . S
C162 Pr160 2.880 . S
C162 C163 1.491 . S
C162 O180 1.254 . S
C162 O181 1.225 . S
C163 C162 1.491 . S
C163 C164 1.392 . S
C163 C168 1.356 . S
C164 C163 1.392 . S
C164 C165 1.368 . S
C164 H192 0.929 . S
C165 C164 1.368 . S
C165 C166 1.386 . S
C165 H193 0.929 . S
C166 C165 1.386 . S
C166 C167 1.373 . S
C167 C166 1.373 . S
C167 C168 1.409 . S
C167 H194 0.931 . S
C168 C163 1.356 . S
C168 C167 1.409 . S
C168 H195 0.930 . S
C169 O182 1.270 . S
C169 O183 1.248 . S
C170 O184 1.267 . S
C170 O185 1.278 . S
C171 Pr161 2.880 . S
C171 C172 1.491 . S
C171 O186 1.254 . S
C171 O187 1.225 . S
C172 C171 1.491 . S
C172 C173 1.392 . S
C172 C177 1.356 . S
C173 C172 1.392 . S
C173 C174 1.368 . S
C173 H196 0.929 . S
C174 C173 1.368 . S
C174 C175 1.386 . S
C174 H197 0.929 . S
C175 C174 1.386 . S
C175 C176 1.373 . S
C176 C175 1.373 . S
C176 C177 1.409 . S
C176 H198 0.931 . S
C177 C172 1.356 . S
C177 C176 1.409 . S
C177 H199 0.930 . S
C178 O188 1.270 . S
C178 O189 1.248 . S
C179 O190 1.267 . S
C179 O191 1.278 . S
O180 Pr160 2.562 . S
O180 C162 1.254 . S
O181 Pr160 2.490 . S
O181 C162 1.225 . S
O182 Pr160 2.695 . S
O182 Pr161 2.436 . S
O182 C169 1.270 . S
O183 Pr160 2.512 . S
O183 C169 1.248 . S
O184 Pr161 2.438 . S
O184 C170 1.267 . S
O185 Pr160 2.437 . S
O185 C170 1.278 . S
O186 Pr161 2.562 . S
O186 C171 1.254 . S
O187 Pr161 2.490 . S
O187 C171 1.225 . S
O188 Pr160 2.436 . S
O188 Pr161 2.695 . S
O188 C178 1.270 . S
O189 Pr161 2.512 . S
O189 C178 1.248 . S
O190 Pr160 2.438 . S
O190 C179 1.267 . S
O191 Pr161 2.437 . S
O191 C179 1.278 . S
H192 C164 0.929 . S
H193 C165 0.929 . S
H194 C167 0.931 . S
H195 C168 0.930 . S
H196 C173 0.929 . S
H197 C174 0.929 . S
H198 C176 0.931 . S
H199 C177 0.930 . S
Pr200 C202 2.880 . S
Pr200 O220 2.562 . S
Pr200 O221 2.490 . S
Pr200 O222 2.695 . S
Pr200 O223 2.512 . S
Pr200 O225 2.437 . S
Pr200 O228 2.436 . S
Pr200 O230 2.438 . S
Pr201 C211 2.880 . S
Pr201 O222 2.436 1_455 S
Pr201 O224 2.438 1_455 S
Pr201 O226 2.562 . S
Pr201 O227 2.490 . S
Pr201 O228 2.695 1_455 S
Pr201 O229 2.512 . S
Pr201 O231 2.437 . S
C202 Pr200 2.880 . S
C202 C203 1.491 . S
C202 O220 1.254 . S
C202 O221 1.225 . S
C203 C202 1.491 . S
C203 C204 1.392 . S
C203 C208 1.356 . S
C204 C203 1.392 . S
C204 C205 1.368 . S
C204 H232 0.929 . S
C205 C204 1.368 . S
C205 C206 1.386 . S
C205 H233 0.929 . S
C206 C205 1.386 . S
C206 C207 1.373 . S
C207 C206 1.373 . S
C207 C208 1.409 . S
C207 H234 0.931 . S
C208 C203 1.356 . S
C208 C207 1.409 . S
C208 H235 0.930 . S
C209 O222 1.270 . S
C209 O223 1.248 . S
C210 O224 1.267 . S
C210 O225 1.278 . S
C211 Pr201 2.880 . S
C211 C212 1.491 . S
C211 O226 1.254 . S
C211 O227 1.225 . S
C212 C211 1.491 . S
C212 C213 1.392 . S
C212 C217 1.356 . S
C213 C212 1.392 . S
C213 C214 1.368 . S
C213 H236 0.929 . S
C214 C213 1.368 . S
C214 C215 1.386 . S
C214 H237 0.929 . S
C215 C214 1.386 . S
C215 C216 1.373 . S
C216 C215 1.373 . S
C216 C217 1.409 . S
C216 H238 0.931 . S
C217 C212 1.356 . S
C217 C216 1.409 . S
C217 H239 0.930 . S
C218 O228 1.270 1_455 S
C218 O229 1.248 . S
C219 O230 1.267 1_455 S
C219 O231 1.278 . S
O220 Pr200 2.562 . S
O220 C202 1.254 . S
O221 Pr200 2.490 . S
O221 C202 1.225 . S
O222 Pr200 2.695 . S
O222 Pr201 2.436 1_655 S
O222 C209 1.270 . S
O223 Pr200 2.512 . S
O223 C209 1.248 . S
O224 Pr201 2.438 1_655 S
O224 C210 1.267 . S
O225 Pr200 2.437 . S
O225 C210 1.278 . S
O226 Pr201 2.562 . S
O226 C211 1.254 . S
O227 Pr201 2.490 . S
O227 C211 1.225 . S
O228 Pr200 2.436 . S
O228 Pr201 2.695 1_655 S
O228 C218 1.270 1_655 S
O229 Pr201 2.512 . S
O229 C218 1.248 . S
O230 Pr200 2.438 . S
O230 C219 1.267 1_655 S
O231 Pr201 2.437 . S
O231 C219 1.278 . S
H232 C204 0.929 . S
H233 C205 0.929 . S
H234 C207 0.931 . S
H235 C208 0.930 . S
H236 C213 0.929 . S
H237 C214 0.929 . S
H238 C216 0.931 . S
H239 C217 0.930 . S
Pr240 C242 2.880 . S
Pr240 O260 2.562 . S
Pr240 O261 2.490 . S
Pr240 O262 2.695 . S
Pr240 O263 2.512 . S
Pr240 O265 2.437 . S
Pr240 O268 2.436 1_554 S
Pr240 O270 2.438 1_554 S
Pr241 C251 2.880 . S
Pr241 O262 2.436 1_556 S
Pr241 O264 2.438 1_556 S
Pr241 O266 2.562 . S
Pr241 O267 2.490 . S
Pr241 O268 2.695 . S
Pr241 O269 2.512 . S
Pr241 O271 2.437 . S
C242 Pr240 2.880 . S
C242 C243 1.491 . S
C242 O260 1.254 . S
C242 O261 1.225 . S
C243 C242 1.491 . S
C243 C244 1.392 . S
C243 C248 1.356 . S
C244 C243 1.392 . S
C244 C245 1.368 . S
C244 H272 0.929 . S
C245 C244 1.368 . S
C245 C246 1.386 . S
C245 H273 0.929 . S
C246 C245 1.386 . S
C246 C247 1.373 . S
C247 C246 1.373 . S
C247 C248 1.409 . S
C247 H274 0.931 . S
C248 C243 1.356 . S
C248 C247 1.409 . S
C248 H275 0.930 . S
C249 O262 1.270 . S
C249 O263 1.248 . S
C250 O264 1.267 . S
C250 O265 1.278 . S
C251 Pr241 2.880 . S
C251 C252 1.491 . S
C251 O266 1.254 . S
C251 O267 1.225 . S
C252 C251 1.491 . S
C252 C253 1.392 . S
C252 C257 1.356 . S
C253 C252 1.392 . S
C253 C254 1.368 . S
C253 H276 0.929 . S
C254 C253 1.368 . S
C254 C255 1.386 . S
C254 H277 0.929 . S
C255 C254 1.386 . S
C255 C256 1.373 . S
C256 C255 1.373 . S
C256 C257 1.409 . S
C256 H278 0.931 . S
C257 C252 1.356 . S
C257 C256 1.409 . S
C257 H279 0.930 . S
C258 O268 1.270 . S
C258 O269 1.248 . S
C259 O270 1.267 . S
C259 O271 1.278 . S
O260 Pr240 2.562 . S
O260 C242 1.254 . S
O261 Pr240 2.490 . S
O261 C242 1.225 . S
O262 Pr240 2.695 . S
O262 Pr241 2.436 1_554 S
O262 C249 1.270 . S
O263 Pr240 2.512 . S
O263 C249 1.248 . S
O264 Pr241 2.438 1_554 S
O264 C250 1.267 . S
O265 Pr240 2.437 . S
O265 C250 1.278 . S
O266 Pr241 2.562 . S
O266 C251 1.254 . S
O267 Pr241 2.490 . S
O267 C251 1.225 . S
O268 Pr240 2.436 1_556 S
O268 Pr241 2.695 . S
O268 C258 1.270 . S
O269 Pr241 2.512 . S
O269 C258 1.248 . S
O270 Pr240 2.438 1_556 S
O270 C259 1.267 . S
O271 Pr241 2.437 . S
O271 C259 1.278 . S
H272 C244 0.929 . S
H273 C245 0.929 . S
H274 C247 0.931 . S
H275 C248 0.930 . S
H276 C253 0.929 . S
H277 C254 0.929 . S
H278 C256 0.931 . S
H279 C257 0.930 . S
Pr280 C282 2.880 . S
Pr280 O300 2.562 . S
Pr280 O301 2.490 . S
Pr280 O302 2.695 . S
Pr280 O303 2.512 . S
Pr280 O305 2.437 . S
Pr280 O308 2.436 . S
Pr280 O310 2.438 . S
Pr281 C291 2.880 . S
Pr281 O302 2.436 . S
Pr281 O304 2.438 . S
Pr281 O306 2.562 . S
Pr281 O307 2.490 . S
Pr281 O308 2.695 . S
Pr281 O309 2.512 . S
Pr281 O311 2.437 . S
C282 Pr280 2.880 . S
C282 C283 1.491 . S
C282 O300 1.254 . S
C282 O301 1.225 . S
C283 C282 1.491 . S
C283 C284 1.392 . S
C283 C288 1.356 . S
C284 C283 1.392 . S
C284 C285 1.368 . S
C284 H312 0.929 . S
C285 C284 1.368 . S
C285 C286 1.386 . S
C285 H313 0.929 . S
C286 C285 1.386 . S
C286 C287 1.373 . S
C287 C286 1.373 . S
C287 C288 1.409 . S
C287 H314 0.931 . S
C288 C283 1.356 . S
C288 C287 1.409 . S
C288 H315 0.930 . S
C289 O302 1.270 . S
C289 O303 1.248 . S
C290 O304 1.267 . S
C290 O305 1.278 . S
C291 Pr281 2.880 . S
C291 C292 1.491 . S
C291 O306 1.254 . S
C291 O307 1.225 . S
C292 C291 1.491 . S
C292 C293 1.392 . S
C292 C297 1.356 . S
C293 C292 1.392 . S
C293 C294 1.368 . S
C293 H316 0.929 . S
C294 C293 1.368 . S
C294 C295 1.386 . S
C294 H317 0.929 . S
C295 C294 1.386 . S
C295 C296 1.373 . S
C296 C295 1.373 . S
C296 C297 1.409 . S
C296 H318 0.931 . S
C297 C292 1.356 . S
C297 C296 1.409 . S
C297 H319 0.930 . S
C298 O308 1.270 . S
C298 O309 1.248 . S
C299 O310 1.267 . S
C299 O311 1.278 . S
O300 Pr280 2.562 . S
O300 C282 1.254 . S
O301 Pr280 2.490 . S
O301 C282 1.225 . S
O302 Pr280 2.695 . S
O302 Pr281 2.436 . S
O302 C289 1.270 . S
O303 Pr280 2.512 . S
O303 C289 1.248 . S
O304 Pr281 2.438 . S
O304 C290 1.267 . S
O305 Pr280 2.437 . S
O305 C290 1.278 . S
O306 Pr281 2.562 . S
O306 C291 1.254 . S
O307 Pr281 2.490 . S
O307 C291 1.225 . S
O308 Pr280 2.436 . S
O308 Pr281 2.695 . S
O308 C298 1.270 . S
O309 Pr281 2.512 . S
O309 C298 1.248 . S
O310 Pr280 2.438 . S
O310 C299 1.267 . S
O311 Pr281 2.437 . S
O311 C299 1.278 . S
H312 C284 0.929 . S
H313 C285 0.929 . S
H314 C287 0.931 . S
H315 C288 0.930 . S
H316 C293 0.929 . S
H317 C294 0.929 . S
H318 C296 0.931 . S
H319 C297 0.930 . S
Pr320 C322 2.880 . S
Pr320 O340 2.562 . S
Pr320 O341 2.490 . S
Pr320 O342 2.695 . S
Pr320 O343 2.512 . S
Pr320 O345 2.437 . S
Pr320 O348 2.436 . S
Pr320 O350 2.438 . S
Pr321 C331 2.880 . S
Pr321 O342 2.436 . S
Pr321 O344 2.438 . S
Pr321 O346 2.562 . S
Pr321 O347 2.490 . S
Pr321 O348 2.695 . S
Pr321 O349 2.512 . S
Pr321 O351 2.437 . S
C322 Pr320 2.880 . S
C322 C323 1.491 . S
C322 O340 1.254 . S
C322 O341 1.225 . S
C323 C322 1.491 . S
C323 C324 1.392 . S
C323 C328 1.356 . S
C324 C323 1.392 . S
C324 C325 1.368 . S
C324 H352 0.929 . S
C325 C324 1.368 . S
C325 C326 1.386 . S
C325 H353 0.929 . S
C326 C325 1.386 . S
C326 C327 1.373 . S
C327 C326 1.373 . S
C327 C328 1.409 . S
C327 H354 0.931 . S
C328 C323 1.356 . S
C328 C327 1.409 . S
C328 H355 0.930 . S
C329 O342 1.270 . S
C329 O343 1.248 . S
C330 O344 1.267 . S
C330 O345 1.278 . S
C331 Pr321 2.880 . S
C331 C332 1.491 . S
C331 O346 1.254 . S
C331 O347 1.225 . S
C332 C331 1.491 . S
C332 C333 1.392 . S
C332 C337 1.356 . S
C333 C332 1.392 . S
C333 C334 1.368 . S
C333 H356 0.929 . S
C334 C333 1.368 . S
C334 C335 1.386 . S
C334 H357 0.929 . S
C335 C334 1.386 . S
C335 C336 1.373 . S
C336 C335 1.373 . S
C336 C337 1.409 . S
C336 H358 0.931 . S
C337 C332 1.356 . S
C337 C336 1.409 . S
C337 H359 0.930 . S
C338 O348 1.270 . S
C338 O349 1.248 . S
C339 O350 1.267 . S
C339 O351 1.278 . S
O340 Pr320 2.562 . S
O340 C322 1.254 . S
O341 Pr320 2.490 . S
O341 C322 1.225 . S
O342 Pr320 2.695 . S
O342 Pr321 2.436 . S
O342 C329 1.270 . S
O343 Pr320 2.512 . S
O343 C329 1.248 . S
O344 Pr321 2.438 . S
O344 C330 1.267 . S
O345 Pr320 2.437 . S
O345 C330 1.278 . S
O346 Pr321 2.562 . S
O346 C331 1.254 . S
O347 Pr321 2.490 . S
O347 C331 1.225 . S
O348 Pr320 2.436 . S
O348 Pr321 2.695 . S
O348 C338 1.270 . S
O349 Pr321 2.512 . S
O349 C338 1.248 . S
O350 Pr320 2.438 . S
O350 C339 1.267 . S
O351 Pr321 2.437 . S
O351 C339 1.278 . S
H352 C324 0.929 . S
H353 C325 0.929 . S
H354 C327 0.931 . S
H355 C328 0.930 . S
H356 C333 0.929 . S
H357 C334 0.929 . S
H358 C336 0.931 . S
H359 C337 0.930 . S
Pr360 C362 2.880 . S
Pr360 O380 2.562 . S
Pr360 O381 2.490 . S
Pr360 O382 2.695 . S
Pr360 O383 2.512 . S
Pr360 O385 2.437 . S
Pr360 O388 2.436 1_545 S
Pr360 O390 2.438 1_545 S
Pr361 C371 2.880 . S
Pr361 O382 2.436 1_565 S
Pr361 O384 2.438 1_565 S
Pr361 O386 2.562 . S
Pr361 O387 2.490 . S
Pr361 O388 2.695 . S
Pr361 O389 2.512 . S
Pr361 O391 2.437 . S
C362 Pr360 2.880 . S
C362 C363 1.491 . S
C362 O380 1.254 . S
C362 O381 1.225 . S
C363 C362 1.491 . S
C363 C364 1.392 . S
C363 C368 1.356 . S
C364 C363 1.392 . S
C364 C365 1.368 . S
C364 H392 0.929 . S
C365 C364 1.368 . S
C365 C366 1.386 . S
C365 H393 0.929 . S
C366 C365 1.386 . S
C366 C367 1.373 . S
C367 C366 1.373 . S
C367 C368 1.409 . S
C367 H394 0.931 . S
C368 C363 1.356 . S
C368 C367 1.409 . S
C368 H395 0.930 . S
C369 O382 1.270 . S
C369 O383 1.248 . S
C370 O384 1.267 . S
C370 O385 1.278 . S
C371 Pr361 2.880 . S
C371 C372 1.491 . S
C371 O386 1.254 . S
C371 O387 1.225 . S
C372 C371 1.491 . S
C372 C373 1.392 . S
C372 C377 1.356 . S
C373 C372 1.392 . S
C373 C374 1.368 . S
C373 H396 0.929 . S
C374 C373 1.368 . S
C374 C375 1.386 . S
C374 H397 0.929 . S
C375 C374 1.386 . S
C375 C376 1.373 . S
C376 C375 1.373 . S
C376 C377 1.409 . S
C376 H398 0.931 . S
C377 C372 1.356 . S
C377 C376 1.409 . S
C377 H399 0.930 . S
C378 O388 1.270 . S
C378 O389 1.248 . S
C379 O390 1.267 . S
C379 O391 1.278 . S
O380 Pr360 2.562 . S
O380 C362 1.254 . S
O381 Pr360 2.490 . S
O381 C362 1.225 . S
O382 Pr360 2.695 . S
O382 Pr361 2.436 1_545 S
O382 C369 1.270 . S
O383 Pr360 2.512 . S
O383 C369 1.248 . S
O384 Pr361 2.438 1_545 S
O384 C370 1.267 . S
O385 Pr360 2.437 . S
O385 C370 1.278 . S
O386 Pr361 2.562 . S
O386 C371 1.254 . S
O387 Pr361 2.490 . S
O387 C371 1.225 . S
O388 Pr360 2.436 1_565 S
O388 Pr361 2.695 . S
O388 C378 1.270 . S
O389 Pr361 2.512 . S
O389 C378 1.248 . S
O390 Pr360 2.438 1_565 S
O390 C379 1.267 . S
O391 Pr361 2.437 . S
O391 C379 1.278 . S
H392 C364 0.929 . S
H393 C365 0.929 . S
H394 C367 0.931 . S
H395 C368 0.930 . S
H396 C373 0.929 . S
H397 C374 0.929 . S
H398 C376 0.931 . S
H399 C377 0.930 . S
Pr400 C402 2.880 . S
Pr400 O420 2.562 . S
Pr400 O421 2.490 . S
Pr400 O422 2.695 1_545 S
Pr400 O423 2.512 1_545 S
Pr400 O425 2.437 1_545 S
Pr400 O428 2.436 . S
Pr400 O430 2.438 . S
Pr401 C411 2.880 . S
Pr401 O422 2.436 . S
Pr401 O424 2.438 . S
Pr401 O426 2.562 . S
Pr401 O427 2.490 . S
Pr401 O428 2.695 1_565 S
Pr401 O429 2.512 1_565 S
Pr401 O431 2.437 1_565 S
C402 Pr400 2.880 . S
C402 C403 1.491 . S
C402 O420 1.254 . S
C402 O421 1.225 . S
C403 C402 1.491 . S
C403 C404 1.392 . S
C403 C408 1.356 . S
C404 C403 1.392 . S
C404 C405 1.368 . S
C404 H432 0.929 . S
C405 C404 1.368 . S
C405 C406 1.386 . S
C405 H433 0.929 . S
C406 C405 1.386 . S
C406 C407 1.373 . S
C407 C406 1.373 . S
C407 C408 1.409 . S
C407 H434 0.931 . S
C408 C403 1.356 . S
C408 C407 1.409 . S
C408 H435 0.930 . S
C409 O422 1.270 . S
C409 O423 1.248 . S
C410 O424 1.267 . S
C410 O425 1.278 . S
C411 Pr401 2.880 . S
C411 C412 1.491 . S
C411 O426 1.254 . S
C411 O427 1.225 . S
C412 C411 1.491 . S
C412 C413 1.392 . S
C412 C417 1.356 . S
C413 C412 1.392 . S
C413 C414 1.368 . S
C413 H436 0.929 . S
C414 C413 1.368 . S
C414 C415 1.386 . S
C414 H437 0.929 . S
C415 C414 1.386 . S
C415 C416 1.373 . S
C416 C415 1.373 . S
C416 C417 1.409 . S
C416 H438 0.931 . S
C417 C412 1.356 . S
C417 C416 1.409 . S
C417 H439 0.930 . S
C418 O428 1.270 . S
C418 O429 1.248 . S
C419 O430 1.267 . S
C419 O431 1.278 . S
O420 Pr400 2.562 . S
O420 C402 1.254 . S
O421 Pr400 2.490 . S
O421 C402 1.225 . S
O422 Pr400 2.695 1_565 S
O422 Pr401 2.436 . S
O422 C409 1.270 . S
O423 Pr400 2.512 1_565 S
O423 C409 1.248 . S
O424 Pr401 2.438 . S
O424 C410 1.267 . S
O425 Pr400 2.437 1_565 S
O425 C410 1.278 . S
O426 Pr401 2.562 . S
O426 C411 1.254 . S
O427 Pr401 2.490 . S
O427 C411 1.225 . S
O428 Pr400 2.436 . S
O428 Pr401 2.695 1_545 S
O428 C418 1.270 . S
O429 Pr401 2.512 1_545 S
O429 C418 1.248 . S
O430 Pr400 2.438 . S
O430 C419 1.267 . S
O431 Pr401 2.437 1_545 S
O431 C419 1.278 . S
H432 C404 0.929 . S
H433 C405 0.929 . S
H434 C407 0.931 . S
H435 C408 0.930 . S
H436 C413 0.929 . S
H437 C414 0.929 . S
H438 C416 0.931 . S
H439 C417 0.930 . S
Pr440 C442 2.880 . S
Pr440 O460 2.562 . S
Pr440 O461 2.490 . S
Pr440 O462 2.695 . S
Pr440 O463 2.512 . S
Pr440 O465 2.437 . S
Pr440 O468 2.436 . S
Pr440 O470 2.438 . S
Pr441 C451 2.880 . S
Pr441 O462 2.436 . S
Pr441 O464 2.438 . S
Pr441 O466 2.562 . S
Pr441 O467 2.490 . S
Pr441 O468 2.695 . S
Pr441 O469 2.512 . S
Pr441 O471 2.437 . S
C442 Pr440 2.880 . S
C442 C443 1.491 . S
C442 O460 1.254 . S
C442 O461 1.225 . S
C443 C442 1.491 . S
C443 C444 1.392 . S
C443 C448 1.356 . S
C444 C443 1.392 . S
C444 C445 1.368 . S
C444 H472 0.929 . S
C445 C444 1.368 . S
C445 C446 1.386 . S
C445 H473 0.929 . S
C446 C445 1.386 . S
C446 C447 1.373 . S
C447 C446 1.373 . S
C447 C448 1.409 . S
C447 H474 0.931 . S
C448 C443 1.356 . S
C448 C447 1.409 . S
C448 H475 0.930 . S
C449 O462 1.270 . S
C449 O463 1.248 . S
C450 O464 1.267 . S
C450 O465 1.278 . S
C451 Pr441 2.880 . S
C451 C452 1.491 . S
C451 O466 1.254 . S
C451 O467 1.225 . S
C452 C451 1.491 . S
C452 C453 1.392 . S
C452 C457 1.356 . S
C453 C452 1.392 . S
C453 C454 1.368 . S
C453 H476 0.929 . S
C454 C453 1.368 . S
C454 C455 1.386 . S
C454 H477 0.929 . S
C455 C454 1.386 . S
C455 C456 1.373 . S
C456 C455 1.373 . S
C456 C457 1.409 . S
C456 H478 0.931 . S
C457 C452 1.356 . S
C457 C456 1.409 . S
C457 H479 0.930 . S
C458 O468 1.270 . S
C458 O469 1.248 . S
C459 O470 1.267 . S
C459 O471 1.278 . S
O460 Pr440 2.562 . S
O460 C442 1.254 . S
O461 Pr440 2.490 . S
O461 C442 1.225 . S
O462 Pr440 2.695 . S
O462 Pr441 2.436 . S
O462 C449 1.270 . S
O463 Pr440 2.512 . S
O463 C449 1.248 . S
O464 Pr441 2.438 . S
O464 C450 1.267 . S
O465 Pr440 2.437 . S
O465 C450 1.278 . S
O466 Pr441 2.562 . S
O466 C451 1.254 . S
O467 Pr441 2.490 . S
O467 C451 1.225 . S
O468 Pr440 2.436 . S
O468 Pr441 2.695 . S
O468 C458 1.270 . S
O469 Pr441 2.512 . S
O469 C458 1.248 . S
O470 Pr440 2.438 . S
O470 C459 1.267 . S
O471 Pr441 2.437 . S
O471 C459 1.278 . S
H472 C444 0.929 . S
H473 C445 0.929 . S
H474 C447 0.931 . S
H475 C448 0.930 . S
H476 C453 0.929 . S
H477 C454 0.929 . S
H478 C456 0.931 . S
H479 C457 0.930 . S
C480 C481 1.391 . S
C480 C482 1.394 . S
C480 H496 0.931 . S
C481 C480 1.391 . S
C481 C485 1.376 . S
C482 C480 1.394 . S
C482 C483 1.369 . S
C482 C486 1.531 . S
C483 C482 1.369 . S
C483 C484 1.410 . S
C483 C491 1.503 . S
C484 C483 1.410 . S
C484 C485 1.392 . S
C484 C487 1.511 . S
C485 C481 1.376 . S
C485 C484 1.392 . S
C485 H497 0.929 . S
C486 C482 1.531 . S
C486 H498 0.960 . S
C486 H499 0.962 . S
C486 H500 0.960 . S
C487 C484 1.511 . S
C487 H501 0.961 . S
C487 H502 0.961 . S
C487 H503 0.961 . S
C488 C489 1.370 . S
C488 C490 1.363 . S
C488 H504 0.931 . S
C489 C488 1.370 . S
C489 C493 1.408 . S
C490 C488 1.363 . S
C490 C491 1.370 . S
C490 C494 1.524 . S
C491 C483 1.503 . S
C491 C490 1.370 . S
C491 C492 1.403 . S
C492 C491 1.403 . S
C492 C493 1.404 . S
C492 C495 1.539 . S
C493 C489 1.408 . S
C493 C492 1.404 . S
C493 H505 0.930 . S
C494 C490 1.524 . S
C494 H506 0.956 . S
C494 H507 0.961 . S
C494 H508 0.961 . S
C495 C492 1.539 . S
C495 H509 0.958 . S
C495 H510 0.961 . S
C495 H511 0.960 . S
H496 C480 0.931 . S
H497 C485 0.929 . S
H498 C486 0.960 . S
H499 C486 0.962 . S
H500 C486 0.960 . S
H501 C487 0.961 . S
H502 C487 0.961 . S
H503 C487 0.961 . S
H504 C488 0.931 . S
H505 C493 0.930 . S
H506 C494 0.956 . S
H507 C494 0.961 . S
H508 C494 0.961 . S
H509 C495 0.958 . S
H510 C495 0.961 . S
H511 C495 0.960 . S
C512 C513 1.391 . S
C512 C514 1.394 . S
C512 H528 0.931 . S
C513 C512 1.391 . S
C513 C517 1.376 . S
C514 C512 1.394 . S
C514 C515 1.369 . S
C514 C518 1.531 . S
C515 C514 1.369 . S
C515 C516 1.410 . S
C515 C523 1.503 . S
C516 C515 1.410 . S
C516 C517 1.392 . S
C516 C519 1.511 1_565 S
C517 C513 1.376 . S
C517 C516 1.392 . S
C517 H529 0.929 1_565 S
C518 C514 1.531 . S
C518 H530 0.960 . S
C518 H531 0.962 . S
C518 H532 0.960 . S
C519 C516 1.511 1_545 S
C519 H533 0.961 . S
C519 H534 0.961 1_545 S
C519 H535 0.961 . S
C520 C521 1.370 . S
C520 C522 1.363 . S
C520 H536 0.931 . S
C521 C520 1.370 . S
C521 C525 1.408 . S
C522 C520 1.363 . S
C522 C523 1.370 . S
C522 C526 1.524 . S
C523 C515 1.503 . S
C523 C522 1.370 . S
C523 C524 1.403 . S
C524 C523 1.403 . S
C524 C525 1.404 . S
C524 C527 1.539 . S
C525 C521 1.408 . S
C525 C524 1.404 . S
C525 H537 0.930 . S
C526 C522 1.524 . S
C526 H538 0.956 . S
C526 H539 0.961 . S
C526 H540 0.961 . S
C527 C524 1.539 . S
C527 H541 0.958 . S
C527 H542 0.961 . S
C527 H543 0.960 . S
H528 C512 0.931 . S
H529 C517 0.929 1_545 S
H530 C518 0.960 . S
H531 C518 0.962 . S
H532 C518 0.960 . S
H533 C519 0.961 . S
H534 C519 0.961 1_565 S
H535 C519 0.961 . S
H536 C520 0.931 . S
H537 C525 0.930 . S
H538 C526 0.956 . S
H539 C526 0.961 . S
H540 C526 0.961 . S
H541 C527 0.958 . S
H542 C527 0.961 . S
H543 C527 0.960 . S
C544 C545 1.391 . S
C544 C546 1.394 . S
C544 H560 0.931 . S
C545 C544 1.391 . S
C545 C549 1.376 . S
C546 C544 1.394 . S
C546 C547 1.369 . S
C546 C550 1.531 . S
C547 C546 1.369 . S
C547 C548 1.410 . S
C547 C555 1.503 . S
C548 C547 1.410 . S
C548 C549 1.392 . S
C548 C551 1.511 . S
C549 C545 1.376 . S
C549 C548 1.392 . S
C549 H561 0.929 . S
C550 C546 1.531 . S
C550 H562 0.960 . S
C550 H563 0.962 . S
C550 H564 0.960 . S
C551 C548 1.511 . S
C551 H565 0.961 . S
C551 H566 0.961 . S
C551 H567 0.961 . S
C552 C553 1.370 . S
C552 C554 1.363 . S
C552 H568 0.931 . S
C553 C552 1.370 . S
C553 C557 1.408 . S
C554 C552 1.363 . S
C554 C555 1.370 . S
C554 C558 1.524 . S
C555 C547 1.503 . S
C555 C554 1.370 . S
C555 C556 1.403 . S
C556 C555 1.403 . S
C556 C557 1.404 . S
C556 C559 1.541 1_554 S
C557 C553 1.408 . S
C557 C556 1.404 . S
C557 H569 0.930 . S
C558 C554 1.524 . S
C558 H570 0.956 . S
C558 H571 0.961 . S
C558 H572 0.961 . S
C559 C556 1.541 1_556 S
C559 H573 0.957 . S
C559 H574 0.961 . S
C559 H575 0.959 . S
H560 C544 0.931 . S
H561 C549 0.929 . S
H562 C550 0.960 . S
H563 C550 0.962 . S
H564 C550 0.960 . S
H565 C551 0.961 . S
H566 C551 0.961 . S
H567 C551 0.961 . S
H568 C552 0.931 . S
H569 C557 0.930 . S
H570 C558 0.956 . S
H571 C558 0.961 . S
H572 C558 0.961 . S
H573 C559 0.957 . S
H574 C559 0.961 . S
H575 C559 0.959 . S
C576 C577 1.391 . S
C576 C578 1.394 . S
C576 H592 0.931 . S
C577 C576 1.391 . S
C577 C581 1.376 . S
C578 C576 1.394 . S
C578 C579 1.369 . S
C578 C582 1.531 . S
C579 C578 1.369 . S
C579 C580 1.410 . S
C579 C587 1.503 . S
C580 C579 1.410 . S
C580 C581 1.392 . S
C580 C583 1.511 . S
C581 C577 1.376 . S
C581 C580 1.392 . S
C581 H593 0.929 . S
C582 C578 1.531 . S
C582 H594 0.960 . S
C582 H595 0.962 . S
C582 H596 0.960 . S
C583 C580 1.511 . S
C583 H597 0.961 . S
C583 H598 0.961 . S
C583 H599 0.961 . S
C584 C585 1.370 . S
C584 C586 1.363 . S
C584 H600 0.931 . S
C585 C584 1.370 . S
C585 C589 1.408 . S
C586 C584 1.363 . S
C586 C587 1.370 . S
C586 C590 1.524 . S
C587 C579 1.503 . S
C587 C586 1.370 . S
C587 C588 1.403 . S
C588 C587 1.403 . S
C588 C589 1.404 . S
C588 C591 1.539 1_545 S
C589 C585 1.408 . S
C589 C588 1.404 . S
C589 H601 0.930 1_545 S
C590 C586 1.524 . S
C590 H602 0.956 . S
C590 H603 0.961 . S
C590 H604 0.961 . S
C591 C588 1.539 1_565 S
C591 H605 0.958 . S
C591 H606 0.961 . S
C591 H607 0.960 . S
H592 C576 0.931 . S
H593 C581 0.929 . S
H594 C582 0.960 . S
H595 C582 0.962 . S
H596 C582 0.960 . S
H597 C583 0.961 . S
H598 C583 0.961 . S
H599 C583 0.961 . S
H600 C584 0.931 . S
H601 C589 0.930 1_565 S
H602 C590 0.956 . S
H603 C590 0.961 . S
H604 C590 0.961 . S
H605 C591 0.958 . S
H606 C591 0.961 . S
H607 C591 0.960 . S
C608 C609 1.391 . S
C608 C610 1.394 . S
C608 H624 0.931 . S
C609 C608 1.391 . S
C609 C613 1.376 . S
C610 C608 1.394 . S
C610 C611 1.369 . S
C610 C614 1.531 . S
C611 C610 1.369 . S
C611 C612 1.410 . S
C611 C619 1.503 . S
C612 C611 1.410 . S
C612 C613 1.392 . S
C612 C615 1.511 . S
C613 C609 1.376 . S
C613 C612 1.392 . S
C613 H625 0.929 . S
C614 C610 1.531 . S
C614 H626 0.960 . S
C614 H627 0.962 . S
C614 H628 0.960 . S
C615 C612 1.511 . S
C615 H629 0.961 . S
C615 H630 0.961 . S
C615 H631 0.961 . S
C616 C617 1.370 . S
C616 C618 1.363 . S
C616 H632 0.931 . S
C617 C616 1.370 . S
C617 C621 1.408 . S
C618 C616 1.363 . S
C618 C619 1.370 . S
C618 C622 1.524 . S
C619 C611 1.503 . S
C619 C618 1.370 . S
C619 C620 1.403 . S
C620 C619 1.403 . S
C620 C621 1.404 . S
C620 C623 1.539 . S
C621 C617 1.408 . S
C621 C620 1.404 . S
C621 H633 0.930 . S
C622 C618 1.524 . S
C622 H634 0.956 . S
C622 H635 0.961 . S
C622 H636 0.961 . S
C623 C620 1.539 . S
C623 H637 0.958 . S
C623 H638 0.961 . S
C623 H639 0.960 . S
H624 C608 0.931 . S
H625 C613 0.929 . S
H626 C614 0.960 . S
H627 C614 0.962 . S
H628 C614 0.960 . S
H629 C615 0.961 . S
H630 C615 0.961 . S
H631 C615 0.961 . S
H632 C616 0.931 . S
H633 C621 0.930 . S
H634 C622 0.956 . S
H635 C622 0.961 . S
H636 C622 0.961 . S
H637 C623 0.958 . S
H638 C623 0.961 . S
H639 C623 0.960 . S
C640 C641 1.391 . S
C640 C642 1.394 . S
C640 H656 0.931 . S
C641 C640 1.391 . S
C641 C645 1.376 . S
C642 C640 1.394 . S
C642 C643 1.369 . S
C642 C646 1.531 . S
C643 C642 1.369 . S
C643 C644 1.410 . S
C643 C651 1.503 . S
C644 C643 1.410 . S
C644 C645 1.392 . S
C644 C647 1.511 . S
C645 C641 1.376 . S
C645 C644 1.392 . S
C645 H657 0.929 . S
C646 C642 1.531 . S
C646 H658 0.960 . S
C646 H659 0.962 . S
C646 H660 0.960 . S
C647 C644 1.511 . S
C647 H661 0.961 . S
C647 H662 0.961 . S
C647 H663 0.961 . S
C648 C649 1.370 . S
C648 C650 1.363 . S
C648 H664 0.931 . S
C649 C648 1.370 . S
C649 C653 1.408 . S
C650 C648 1.363 . S
C650 C651 1.370 . S
C650 C654 1.524 . S
C651 C643 1.503 . S
C651 C650 1.370 . S
C651 C652 1.403 . S
C652 C651 1.403 . S
C652 C653 1.404 . S
C652 C655 1.539 . S
C653 C649 1.408 . S
C653 C652 1.404 . S
C653 H665 0.930 . S
C654 C650 1.524 . S
C654 H666 0.956 . S
C654 H667 0.961 . S
C654 H668 0.961 . S
C655 C652 1.539 . S
C655 H669 0.958 . S
C655 H670 0.961 . S
C655 H671 0.960 . S
H656 C640 0.931 . S
H657 C645 0.929 . S
H658 C646 0.960 . S
H659 C646 0.962 . S
H660 C646 0.960 . S
H661 C647 0.961 . S
H662 C647 0.961 . S
H663 C647 0.961 . S
H664 C648 0.931 . S
H665 C653 0.930 . S
H666 C654 0.956 . S
H667 C654 0.961 . S
H668 C654 0.961 . S
H669 C655 0.958 . S
H670 C655 0.961 . S
H671 C655 0.960 . S
C672 C673 1.391 . S
C672 C674 1.394 . S
C672 H688 0.931 . S
C673 C672 1.391 . S
C673 C677 1.376 . S
C674 C672 1.394 . S
C674 C675 1.369 . S
C674 C678 1.531 . S
C675 C674 1.369 . S
C675 C676 1.410 . S
C675 C683 1.503 . S
C676 C675 1.410 . S
C676 C677 1.392 . S
C676 C679 1.511 . S
C677 C673 1.376 . S
C677 C676 1.392 . S
C677 H689 0.929 . S
C678 C674 1.531 . S
C678 H690 0.960 . S
C678 H691 0.962 . S
C678 H692 0.960 . S
C679 C676 1.511 . S
C679 H693 0.961 . S
C679 H694 0.961 . S
C679 H695 0.961 . S
C680 C681 1.370 . S
C680 C682 1.363 . S
C680 H696 0.931 . S
C681 C680 1.370 . S
C681 C685 1.408 . S
C682 C680 1.363 . S
C682 C683 1.370 . S
C682 C686 1.524 . S
C683 C675 1.503 . S
C683 C682 1.370 . S
C683 C684 1.403 . S
C684 C683 1.403 . S
C684 C685 1.404 . S
C684 C687 1.539 . S
C685 C681 1.408 . S
C685 C684 1.404 . S
C685 H697 0.930 . S
C686 C682 1.524 . S
C686 H698 0.956 . S
C686 H699 0.961 . S
C686 H700 0.961 . S
C687 C684 1.539 . S
C687 H701 0.958 . S
C687 H702 0.961 . S
C687 H703 0.960 . S
H688 C672 0.931 . S
H689 C677 0.929 . S
H690 C678 0.960 . S
H691 C678 0.962 . S
H692 C678 0.960 . S
H693 C679 0.961 . S
H694 C679 0.961 . S
H695 C679 0.961 . S
H696 C680 0.931 . S
H697 C685 0.930 . S
H698 C686 0.956 . S
H699 C686 0.961 . S
H700 C686 0.961 . S
H701 C687 0.958 . S
H702 C687 0.961 . S
H703 C687 0.960 . S
C704 C705 1.391 . S
C704 C706 1.394 . S
C704 H720 0.931 . S
C705 C704 1.391 . S
C705 C709 1.376 . S
C706 C704 1.394 . S
C706 C707 1.369 . S
C706 C710 1.531 . S
C707 C706 1.369 . S
C707 C708 1.410 . S
C707 C715 1.503 . S
C708 C707 1.410 . S
C708 C709 1.392 . S
C708 C711 1.511 . S
C709 C705 1.376 . S
C709 C708 1.392 . S
C709 H721 0.929 . S
C710 C706 1.531 . S
C710 H722 0.960 . S
C710 H723 0.962 . S
C710 H724 0.960 . S
C711 C708 1.511 . S
C711 H725 0.961 . S
C711 H726 0.961 . S
C711 H727 0.961 . S
C712 C713 1.370 . S
C712 C714 1.363 . S
C712 H728 0.931 . S
C713 C712 1.370 . S
C713 C717 1.408 . S
C714 C712 1.363 . S
C714 C715 1.370 . S
C714 C718 1.524 . S
C715 C707 1.503 . S
C715 C714 1.370 . S
C715 C716 1.403 . S
C716 C715 1.403 . S
C716 C717 1.404 . S
C716 C719 1.539 . S
C717 C713 1.408 . S
C717 C716 1.404 . S
C717 H729 0.930 . S
C718 C714 1.524 . S
C718 H730 0.956 . S
C718 H731 0.961 . S
C718 H732 0.961 . S
C719 C716 1.539 . S
C719 H733 0.958 . S
C719 H734 0.961 . S
C719 H735 0.960 . S
H720 C704 0.931 . S
H721 C709 0.929 . S
H722 C710 0.960 . S
H723 C710 0.962 . S
H724 C710 0.960 . S
H725 C711 0.961 . S
H726 C711 0.961 . S
H727 C711 0.961 . S
H728 C712 0.931 . S
H729 C717 0.930 . S
H730 C718 0.956 . S
H731 C718 0.961 . S
H732 C718 0.961 . S
H733 C719 0.958 . S
H734 C719 0.961 . S
H735 C719 0.960 . S
C736 C737 1.391 . S
C736 C738 1.394 . S
C736 H752 0.931 . S
C737 C736 1.391 . S
C737 C741 1.376 . S
C738 C736 1.394 . S
C738 C739 1.369 . S
C738 C742 1.531 . S
C739 C738 1.369 . S
C739 C740 1.410 . S
C739 C747 1.503 . S
C740 C739 1.410 . S
C740 C741 1.392 . S
C740 C743 1.511 . S
C741 C737 1.376 . S
C741 C740 1.392 . S
C741 H753 0.929 . S
C742 C738 1.531 . S
C742 H754 0.960 . S
C742 H755 0.962 . S
C742 H756 0.960 . S
C743 C740 1.511 . S
C743 H757 0.961 . S
C743 H758 0.961 . S
C743 H759 0.961 . S
C744 C745 1.370 . S
C744 C746 1.363 . S
C744 H760 0.931 . S
C745 C744 1.370 . S
C745 C749 1.408 . S
C746 C744 1.363 . S
C746 C747 1.370 . S
C746 C750 1.524 . S
C747 C739 1.503 . S
C747 C746 1.370 . S
C747 C748 1.403 . S
C748 C747 1.403 . S
C748 C749 1.404 . S
C748 C751 1.539 . S
C749 C745 1.408 . S
C749 C748 1.404 . S
C749 H761 0.930 . S
C750 C746 1.524 . S
C750 H762 0.956 . S
C750 H763 0.961 . S
C750 H764 0.961 . S
C751 C748 1.539 . S
C751 H765 0.958 . S
C751 H766 0.961 . S
C751 H767 0.960 . S
H752 C736 0.931 . S
H753 C741 0.929 . S
H754 C742 0.960 . S
H755 C742 0.962 . S
H756 C742 0.960 . S
H757 C743 0.961 . S
H758 C743 0.961 . S
H759 C743 0.961 . S
H760 C744 0.931 . S
H761 C749 0.930 . S
H762 C750 0.956 . S
H763 C750 0.961 . S
H764 C750 0.961 . S
H765 C751 0.958 . S
H766 C751 0.961 . S
H767 C751 0.960 . S
C768 C769 1.391 . S
C768 C770 1.394 . S
C768 H784 0.931 . S
C769 C768 1.391 . S
C769 C773 1.376 . S
C770 C768 1.394 . S
C770 C771 1.369 . S
C770 C774 1.535 . S
C771 C770 1.369 . S
C771 C772 1.410 . S
C771 C779 1.503 . S
C772 C771 1.410 . S
C772 C773 1.392 . S
C772 C775 1.511 . S
C773 C769 1.376 . S
C773 C772 1.392 . S
C773 H785 0.929 . S
C774 C770 1.535 . S
C774 H786 0.960 1_455 S
C774 H787 0.959 1_455 S
C774 H788 0.959 1_455 S
C775 C772 1.511 . S
C775 H789 0.961 . S
C775 H790 0.961 . S
C775 H791 0.961 . S
C776 C777 1.370 . S
C776 C778 1.363 . S
C776 H792 0.931 . S
C777 C776 1.370 . S
C777 C781 1.408 . S
C778 C776 1.363 . S
C778 C779 1.370 . S
C778 C782 1.524 . S
C779 C771 1.503 . S
C779 C778 1.370 . S
C779 C780 1.403 . S
C780 C779 1.403 . S
C780 C781 1.404 . S
C780 C783 1.539 . S
C781 C777 1.408 . S
C781 C780 1.404 . S
C781 H793 0.930 . S
C782 C778 1.524 . S
C782 H794 0.956 . S
C782 H795 0.961 . S
C782 H796 0.961 . S
C783 C780 1.539 . S
C783 H797 0.958 . S
C783 H798 0.961 . S
C783 H799 0.960 . S
H784 C768 0.931 . S
H785 C773 0.929 . S
H786 C774 0.960 1_655 S
H787 C774 0.959 1_655 S
H788 C774 0.959 1_655 S
H789 C775 0.961 . S
H790 C775 0.961 . S
H791 C775 0.961 . S
H792 C776 0.931 . S
H793 C781 0.930 . S
H794 C782 0.956 . S
H795 C782 0.961 . S
H796 C782 0.961 . S
H797 C783 0.958 . S
H798 C783 0.961 . S
H799 C783 0.960 . S
C800 C801 1.391 . S
C800 C802 1.394 . S
C800 H816 0.931 . S
C801 C800 1.391 . S
C801 C805 1.376 . S
C802 C800 1.394 . S
C802 C803 1.369 . S
C802 C806 1.531 . S
C803 C802 1.369 . S
C803 C804 1.410 . S
C803 C811 1.503 . S
C804 C803 1.410 . S
C804 C805 1.392 . S
C804 C807 1.511 . S
C805 C801 1.376 . S
C805 C804 1.392 . S
C805 H817 0.929 . S
C806 C802 1.531 . S
C806 H818 0.960 . S
C806 H819 0.962 . S
C806 H820 0.960 . S
C807 C804 1.511 . S
C807 H821 0.961 . S
C807 H822 0.961 . S
C807 H823 0.961 . S
C808 C809 1.370 . S
C808 C810 1.363 . S
C808 H824 0.931 . S
C809 C808 1.370 . S
C809 C813 1.408 . S
C810 C808 1.363 . S
C810 C811 1.370 . S
C810 C814 1.524 . S
C811 C803 1.503 . S
C811 C810 1.370 . S
C811 C812 1.403 . S
C812 C811 1.403 . S
C812 C813 1.404 . S
C812 C815 1.539 . S
C813 C809 1.408 . S
C813 C812 1.404 . S
C813 H825 0.930 . S
C814 C810 1.524 . S
C814 H826 0.956 . S
C814 H827 0.961 . S
C814 H828 0.961 . S
C815 C812 1.539 . S
C815 H829 0.958 1_655 S
C815 H830 0.961 1_655 S
C815 H831 0.960 1_655 S
H816 C800 0.931 . S
H817 C805 0.929 . S
H818 C806 0.960 . S
H819 C806 0.962 . S
H820 C806 0.960 . S
H821 C807 0.961 . S
H822 C807 0.961 . S
H823 C807 0.961 . S
H824 C808 0.931 . S
H825 C813 0.930 . S
H826 C814 0.956 . S
H827 C814 0.961 . S
H828 C814 0.961 . S
H829 C815 0.958 1_455 S
H830 C815 0.961 1_455 S
H831 C815 0.960 1_455 S
C832 C833 1.391 . S
C832 C834 1.394 . S
C832 H848 0.931 . S
C833 C832 1.391 . S
C833 C837 1.376 . S
C834 C832 1.394 . S
C834 C835 1.369 . S
C834 C838 1.531 . S
C835 C834 1.369 . S
C835 C836 1.410 . S
C835 C843 1.503 . S
C836 C835 1.410 . S
C836 C837 1.392 . S
C836 C839 1.511 . S
C837 C833 1.376 . S
C837 C836 1.392 . S
C837 H849 0.929 . S
C838 C834 1.531 . S
C838 H850 0.960 . S
C838 H851 0.962 . S
C838 H852 0.960 . S
C839 C836 1.511 . S
C839 H853 0.961 . S
C839 H854 0.961 . S
C839 H855 0.961 . S
C840 C841 1.370 . S
C840 C842 1.363 . S
C840 H856 0.931 . S
C841 C840 1.370 . S
C841 C845 1.408 . S
C842 C840 1.363 . S
C842 C843 1.370 . S
C842 C846 1.524 . S
C843 C835 1.503 . S
C843 C842 1.370 . S
C843 C844 1.403 . S
C844 C843 1.403 . S
C844 C845 1.404 . S
C844 C847 1.539 . S
C845 C841 1.408 . S
C845 C844 1.404 . S
C845 H857 0.930 . S
C846 C842 1.524 . S
C846 H858 0.956 . S
C846 H859 0.961 . S
C846 H860 0.961 . S
C847 C844 1.539 . S
C847 H861 0.958 . S
C847 H862 0.961 . S
C847 H863 0.960 . S
H848 C832 0.931 . S
H849 C837 0.929 . S
H850 C838 0.960 . S
H851 C838 0.962 . S
H852 C838 0.960 . S
H853 C839 0.961 . S
H854 C839 0.961 . S
H855 C839 0.961 . S
H856 C840 0.931 . S
H857 C845 0.930 . S
H858 C846 0.956 . S
H859 C846 0.961 . S
H860 C846 0.961 . S
H861 C847 0.958 . S
H862 C847 0.961 . S
H863 C847 0.960 . S
C864 C865 1.391 . S
C864 C866 1.394 . S
C864 H880 0.931 . S
C865 C864 1.391 . S
C865 C869 1.376 . S
C866 C864 1.394 . S
C866 C867 1.369 . S
C866 C870 1.531 . S
C867 C866 1.369 . S
C867 C868 1.410 . S
C867 C875 1.503 . S
C868 C867 1.410 . S
C868 C869 1.392 . S
C868 C871 1.511 . S
C869 C865 1.376 . S
C869 C868 1.392 . S
C869 H881 0.929 . S
C870 C866 1.531 . S
C870 H882 0.960 . S
C870 H883 0.962 . S
C870 H884 0.960 . S
C871 C868 1.511 . S
C871 H885 0.961 . S
C871 H886 0.961 . S
C871 H887 0.961 . S
C872 C873 1.370 . S
C872 C874 1.363 . S
C872 H888 0.931 . S
C873 C872 1.370 . S
C873 C877 1.408 . S
C874 C872 1.363 . S
C874 C875 1.370 . S
C874 C878 1.524 . S
C875 C867 1.503 . S
C875 C874 1.370 . S
C875 C876 1.403 . S
C876 C875 1.403 . S
C876 C877 1.404 . S
C876 C879 1.539 . S
C877 C873 1.408 . S
C877 C876 1.404 . S
C877 H889 0.930 . S
C878 C874 1.524 . S
C878 H890 0.956 . S
C878 H891 0.961 . S
C878 H892 0.961 . S
C879 C876 1.539 . S
C879 H893 0.958 . S
C879 H894 0.961 . S
C879 H895 0.960 . S
H880 C864 0.931 . S
H881 C869 0.929 . S
H882 C870 0.960 . S
H883 C870 0.962 . S
H884 C870 0.960 . S
H885 C871 0.961 . S
H886 C871 0.961 . S
H887 C871 0.961 . S
H888 C872 0.931 . S
H889 C877 0.930 . S
H890 C878 0.956 . S
H891 C878 0.961 . S
H892 C878 0.961 . S
H893 C879 0.958 . S
H894 C879 0.961 . S
H895 C879 0.960 . S
C896 C897 1.391 . S
C896 C898 1.394 . S
C896 H912 0.931 . S
C897 C896 1.391 . S
C897 C901 1.376 . S
C898 C896 1.394 . S
C898 C899 1.369 . S
C898 C902 1.531 . S
C899 C898 1.369 . S
C899 C900 1.410 . S
C899 C907 1.503 . S
C900 C899 1.410 . S
C900 C901 1.392 . S
C900 C903 1.511 . S
C901 C897 1.376 . S
C901 C900 1.392 . S
C901 H913 0.929 . S
C902 C898 1.531 . S
C902 H914 0.960 . S
C902 H915 0.962 . S
C902 H916 0.959 1_565 S
C903 C900 1.511 . S
C903 H917 0.961 . S
C903 H918 0.961 . S
C903 H919 0.961 . S
C904 C905 1.370 . S
C904 C906 1.363 . S
C904 H920 0.931 . S
C905 C904 1.370 . S
C905 C909 1.408 . S
C906 C904 1.363 . S
C906 C907 1.370 . S
C906 C910 1.524 . S
C907 C899 1.503 . S
C907 C906 1.370 . S
C907 C908 1.403 . S
C908 C907 1.403 . S
C908 C909 1.404 . S
C908 C911 1.539 . S
C909 C905 1.408 . S
C909 C908 1.404 . S
C909 H921 0.930 . S
C910 C906 1.524 . S
C910 H922 0.956 . S
C910 H923 0.961 . S
C910 H924 0.961 . S
C911 C908 1.539 . S
C911 H925 0.958 . S
C911 H926 0.961 . S
C911 H927 0.960 . S
H912 C896 0.931 . S
H913 C901 0.929 . S
H914 C902 0.960 . S
H915 C902 0.962 . S
H916 C902 0.959 1_545 S
H917 C903 0.961 . S
H918 C903 0.961 . S
H919 C903 0.961 . S
H920 C904 0.931 . S
H921 C909 0.930 . S
H922 C910 0.956 . S
H923 C910 0.961 . S
H924 C910 0.961 . S
H925 C911 0.958 . S
H926 C911 0.961 . S
H927 C911 0.960 . S
C928 C929 1.391 . S
C928 C930 1.394 . S
C928 H944 0.931 . S
C929 C928 1.391 . S
C929 C933 1.376 . S
C930 C928 1.394 . S
C930 C931 1.369 . S
C930 C934 1.531 . S
C931 C930 1.369 . S
C931 C932 1.410 . S
C931 C939 1.503 . S
C932 C931 1.410 . S
C932 C933 1.392 . S
C932 C935 1.511 . S
C933 C929 1.376 . S
C933 C932 1.392 . S
C933 H945 0.929 . S
C934 C930 1.531 . S
C934 H946 0.960 . S
C934 H947 0.962 . S
C934 H948 0.960 . S
C935 C932 1.511 . S
C935 H949 0.961 . S
C935 H950 0.961 . S
C935 H951 0.961 . S
C936 C937 1.370 . S
C936 C938 1.363 . S
C936 H952 0.931 . S
C937 C936 1.370 . S
C937 C941 1.408 . S
C938 C936 1.363 . S
C938 C939 1.370 . S
C938 C942 1.524 . S
C939 C931 1.503 . S
C939 C938 1.370 . S
C939 C940 1.403 . S
C940 C939 1.403 . S
C940 C941 1.404 . S
C940 C943 1.539 . S
C941 C937 1.408 . S
C941 C940 1.404 . S
C941 H953 0.930 . S
C942 C938 1.524 . S
C942 H954 0.956 . S
C942 H955 0.961 . S
C942 H956 0.961 . S
C943 C940 1.539 . S
C943 H957 0.958 . S
C943 H958 0.961 . S
C943 H959 0.960 . S
H944 C928 0.931 . S
H945 C933 0.929 . S
H946 C934 0.960 . S
H947 C934 0.962 . S
H948 C934 0.960 . S
H949 C935 0.961 . S
H950 C935 0.961 . S
H951 C935 0.961 . S
H952 C936 0.931 . S
H953 C941 0.930 . S
H954 C942 0.956 . S
H955 C942 0.961 . S
H956 C942 0.961 . S
H957 C943 0.958 . S
H958 C943 0.961 . S
H959 C943 0.960 . S
C960 C961 1.391 . S
C960 C962 1.394 1_554 S
C960 H976 0.931 . S
C961 C960 1.391 . S
C961 C965 1.376 . S
C962 C960 1.394 1_556 S
C962 C963 1.369 . S
C962 C966 1.531 . S
C963 C962 1.369 . S
C963 C964 1.410 1_556 S
C963 C971 1.503 . S
C964 C963 1.410 1_554 S
C964 C965 1.392 . S
C964 C967 1.511 . S
C965 C961 1.376 . S
C965 C964 1.392 . S
C965 H977 0.929 . S
C966 C962 1.531 . S
C966 H978 0.960 . S
C966 H979 0.962 . S
C966 H980 0.960 . S
C967 C964 1.511 . S
C967 H981 0.961 . S
C967 H982 0.961 1_554 S
C967 H983 0.961 . S
C968 C969 1.370 . S
C968 C970 1.363 . S
C968 H984 0.931 . S
C969 C968 1.370 . S
C969 C973 1.408 . S
C970 C968 1.363 . S
C970 C971 1.370 . S
C970 C974 1.524 . S
C971 C963 1.503 . S
C971 C970 1.370 . S
C971 C972 1.403 . S
C972 C971 1.403 . S
C972 C973 1.404 . S
C972 C975 1.539 . S
C973 C969 1.408 . S
C973 C972 1.404 . S
C973 H985 0.930 . S
C974 C970 1.524 . S
C974 H986 0.956 . S
C974 H987 0.961 . S
C974 H988 0.961 1_545 S
C975 C972 1.539 . S
C975 H989 0.958 . S
C975 H990 0.961 . S
C975 H991 0.960 . S
H976 C960 0.931 . S
H977 C965 0.929 . S
H978 C966 0.960 . S
H979 C966 0.962 . S
H980 C966 0.960 . S
H981 C967 0.961 . S
H982 C967 0.961 1_556 S
H983 C967 0.961 . S
H984 C968 0.931 . S
H985 C973 0.930 . S
H986 C974 0.956 . S
H987 C974 0.961 . S
H988 C974 0.961 1_565 S
H989 C975 0.958 . S
H990 C975 0.961 . S
H991 C975 0.960 . S
C992 C993 1.391 . S
C992 C994 1.394 . S
C992 H1008 0.931 . S
C993 C992 1.391 . S
C993 C997 1.376 . S
C994 C992 1.394 . S
C994 C995 1.369 . S
C994 C998 1.531 . S
C995 C994 1.369 . S
C995 C996 1.410 . S
C995 C1003 1.503 . S
C996 C995 1.410 . S
C996 C997 1.392 . S
C996 C999 1.511 . S
C997 C993 1.376 . S
C997 C996 1.392 . S
C997 H1009 0.929 . S
C998 C994 1.531 . S
C998 H1010 0.960 . S
C998 H1011 0.962 . S
C998 H1012 0.960 . S
C999 C996 1.511 . S
C999 H1013 0.961 . S
C999 H1014 0.961 . S
C999 H1015 0.961 . S
C1000 C1001 1.370 . S
C1000 C1002 1.363 . S
C1000 H1016 0.931 . S
C1001 C1000 1.370 . S
C1001 C1005 1.408 . S
C1002 C1000 1.363 . S
C1002 C1003 1.370 . S
C1002 C1006 1.524 . S
C1003 C995 1.503 . S
C1003 C1002 1.370 . S
C1003 C1004 1.403 . S
C1004 C1003 1.403 . S
C1004 C1005 1.404 . S
C1004 C1007 1.539 . S
C1005 C1001 1.408 . S
C1005 C1004 1.404 . S
C1005 H1017 0.930 . S
C1006 C1002 1.524 . S
C1006 H1018 0.956 . S
C1006 H1019 0.961 . S
C1006 H1020 0.961 . S
C1007 C1004 1.539 . S
C1007 H1021 0.958 . S
C1007 H1022 0.961 . S
C1007 H1023 0.960 . S
H1008 C992 0.931 . S
H1009 C997 0.929 . S
H1010 C998 0.960 . S
H1011 C998 0.962 . S
H1012 C998 0.960 . S
H1013 C999 0.961 . S
H1014 C999 0.961 . S
H1015 C999 0.961 . S
H1016 C1000 0.931 . S
H1017 C1005 0.930 . S
H1018 C1006 0.956 . S
H1019 C1006 0.961 . S
H1020 C1006 0.961 . S
H1021 C1007 0.958 . S
H1022 C1007 0.961 . S
H1023 C1007 0.960 . S
C1024 C1025 1.391 . S
C1024 C1026 1.394 1_554 S
C1024 H1040 0.931 . S
C1025 C1024 1.391 . S
C1025 C1029 1.376 . S
C1026 C1024 1.394 1_556 S
C1026 C1027 1.369 . S
C1026 C1030 1.531 . S
C1027 C1026 1.369 . S
C1027 C1028 1.410 . S
C1027 C1035 1.503 . S
C1028 C1027 1.410 . S
C1028 C1029 1.392 1_556 S
C1028 C1031 1.511 . S
C1029 C1025 1.376 . S
C1029 C1028 1.392 1_554 S
C1029 H1041 0.929 . S
C1030 C1026 1.531 . S
C1030 H1042 0.960 . S
C1030 H1043 0.962 . S
C1030 H1044 0.960 . S
C1031 C1028 1.511 . S
C1031 H1045 0.961 . S
C1031 H1046 0.961 . S
C1031 H1047 0.961 . S
C1032 C1033 1.370 . S
C1032 C1034 1.363 . S
C1032 H1048 0.931 . S
C1033 C1032 1.370 . S
C1033 C1037 1.408 . S
C1034 C1032 1.363 . S
C1034 C1035 1.370 . S
C1034 C1038 1.524 . S
C1035 C1027 1.503 . S
C1035 C1034 1.370 . S
C1035 C1036 1.403 . S
C1036 C1035 1.403 . S
C1036 C1037 1.404 . S
C1036 C1039 1.539 . S
C1037 C1033 1.408 . S
C1037 C1036 1.404 . S
C1037 H1049 0.930 . S
C1038 C1034 1.524 . S
C1038 H1050 0.956 . S
C1038 H1051 0.961 . S
C1038 H1052 0.961 . S
C1039 C1036 1.539 . S
C1039 H1053 0.958 . S
C1039 H1054 0.961 . S
C1039 H1055 0.960 . S
H1040 C1024 0.931 . S
H1041 C1029 0.929 . S
H1042 C1030 0.960 . S
H1043 C1030 0.962 . S
H1044 C1030 0.960 . S
H1045 C1031 0.961 . S
H1046 C1031 0.961 . S
H1047 C1031 0.961 . S
H1048 C1032 0.931 . S
H1049 C1037 0.930 . S
H1050 C1038 0.956 . S
H1051 C1038 0.961 . S
H1052 C1038 0.961 . S
H1053 C1039 0.958 . S
H1054 C1039 0.961 . S
H1055 C1039 0.960 . S
C1056 C1057 1.391 . S
C1056 C1058 1.394 . S
C1056 H1072 0.931 . S
C1057 C1056 1.391 . S
C1057 C1061 1.376 . S
C1058 C1056 1.394 . S
C1058 C1059 1.369 . S
C1058 C1062 1.531 . S
C1059 C1058 1.369 . S
C1059 C1060 1.410 . S
C1059 C1067 1.503 . S
C1060 C1059 1.410 . S
C1060 C1061 1.392 . S
C1060 C1063 1.511 . S
C1061 C1057 1.376 . S
C1061 C1060 1.392 . S
C1061 H1073 0.929 . S
C1062 C1058 1.531 . S
C1062 H1074 0.960 . S
C1062 H1075 0.962 . S
C1062 H1076 0.960 . S
C1063 C1060 1.511 . S
C1063 H1077 0.961 . S
C1063 H1078 0.961 . S
C1063 H1079 0.961 . S
C1064 C1065 1.370 . S
C1064 C1066 1.363 . S
C1064 H1080 0.931 . S
C1065 C1064 1.370 . S
C1065 C1069 1.408 . S
C1066 C1064 1.363 . S
C1066 C1067 1.370 . S
C1066 C1070 1.524 . S
C1067 C1059 1.503 . S
C1067 C1066 1.370 . S
C1067 C1068 1.403 . S
C1068 C1067 1.403 . S
C1068 C1069 1.404 . S
C1068 C1071 1.539 . S
C1069 C1065 1.408 . S
C1069 C1068 1.404 . S
C1069 H1081 0.930 . S
C1070 C1066 1.524 . S
C1070 H1082 0.956 . S
C1070 H1083 0.961 . S
C1070 H1084 0.961 . S
C1071 C1068 1.539 . S
C1071 H1085 0.958 . S
C1071 H1086 0.961 . S
C1071 H1087 0.960 . S
H1072 C1056 0.931 . S
H1073 C1061 0.929 . S
H1074 C1062 0.960 . S
H1075 C1062 0.962 . S
H1076 C1062 0.960 . S
H1077 C1063 0.961 . S
H1078 C1063 0.961 . S
H1079 C1063 0.961 . S
H1080 C1064 0.931 . S
H1081 C1069 0.930 . S
H1082 C1070 0.956 . S
H1083 C1070 0.961 . S
H1084 C1070 0.961 . S
H1085 C1071 0.958 . S
H1086 C1071 0.961 . S
H1087 C1071 0.960 . S
C1088 C1089 1.391 . S
C1088 C1090 1.394 . S
C1088 H1104 0.931 . S
C1089 C1088 1.391 . S
C1089 C1093 1.376 . S
C1090 C1088 1.394 . S
C1090 C1091 1.369 . S
C1090 C1094 1.531 . S
C1091 C1090 1.369 . S
C1091 C1092 1.410 . S
C1091 C1099 1.503 . S
C1092 C1091 1.410 . S
C1092 C1093 1.392 . S
C1092 C1095 1.511 . S
C1093 C1089 1.376 . S
C1093 C1092 1.392 . S
C1093 H1105 0.929 . S
C1094 C1090 1.531 . S
C1094 H1106 0.960 . S
C1094 H1107 0.962 . S
C1094 H1108 0.960 . S
C1095 C1092 1.511 . S
C1095 H1109 0.961 . S
C1095 H1110 0.961 . S
C1095 H1111 0.961 . S
C1096 C1097 1.370 . S
C1096 C1098 1.363 . S
C1096 H1112 0.931 . S
C1097 C1096 1.370 . S
C1097 C1101 1.408 . S
C1098 C1096 1.363 . S
C1098 C1099 1.370 . S
C1098 C1102 1.524 . S
C1099 C1091 1.503 . S
C1099 C1098 1.370 . S
C1099 C1100 1.403 . S
C1100 C1099 1.403 . S
C1100 C1101 1.404 . S
C1100 C1103 1.539 . S
C1101 C1097 1.408 . S
C1101 C1100 1.404 . S
C1101 H1113 0.930 . S
C1102 C1098 1.524 . S
C1102 H1114 0.956 . S
C1102 H1115 0.961 . S
C1102 H1116 0.961 . S
C1103 C1100 1.539 . S
C1103 H1117 0.958 . S
C1103 H1118 0.961 . S
C1103 H1119 0.960 . S
H1104 C1088 0.931 . S
H1105 C1093 0.929 . S
H1106 C1094 0.960 . S
H1107 C1094 0.962 . S
H1108 C1094 0.960 . S
H1109 C1095 0.961 . S
H1110 C1095 0.961 . S
H1111 C1095 0.961 . S
H1112 C1096 0.931 . S
H1113 C1101 0.930 . S
H1114 C1102 0.956 . S
H1115 C1102 0.961 . S
H1116 C1102 0.961 . S
H1117 C1103 0.958 . S
H1118 C1103 0.961 . S
H1119 C1103 0.960 . S
C1120 C1121 1.391 . S
C1120 C1122 1.394 . S
C1120 H1136 0.931 . S
C1121 C1120 1.391 . S
C1121 C1125 1.376 . S
C1122 C1120 1.394 . S
C1122 C1123 1.369 . S
C1122 C1126 1.531 . S
C1123 C1122 1.369 . S
C1123 C1124 1.410 . S
C1123 C1131 1.503 . S
C1124 C1123 1.410 . S
C1124 C1125 1.392 . S
C1124 C1127 1.511 . S
C1125 C1121 1.376 . S
C1125 C1124 1.392 . S
C1125 H1137 0.929 . S
C1126 C1122 1.531 . S
C1126 H1138 0.960 . S
C1126 H1139 0.962 . S
C1126 H1140 0.960 . S
C1127 C1124 1.511 . S
C1127 H1141 0.961 . S
C1127 H1142 0.961 . S
C1127 H1143 0.961 . S
C1128 C1129 1.370 . S
C1128 C1130 1.363 . S
C1128 H1144 0.931 . S
C1129 C1128 1.370 . S
C1129 C1133 1.408 . S
C1130 C1128 1.363 . S
C1130 C1131 1.370 . S
C1130 C1134 1.524 . S
C1131 C1123 1.503 . S
C1131 C1130 1.370 . S
C1131 C1132 1.403 . S
C1132 C1131 1.403 . S
C1132 C1133 1.404 . S
C1132 C1135 1.539 . S
C1133 C1129 1.408 . S
C1133 C1132 1.404 . S
C1133 H1145 0.930 . S
C1134 C1130 1.524 . S
C1134 H1146 0.956 . S
C1134 H1147 0.961 . S
C1134 H1148 0.961 . S
C1135 C1132 1.539 . S
C1135 H1149 0.958 . S
C1135 H1150 0.961 . S
C1135 H1151 0.960 . S
H1136 C1120 0.931 . S
H1137 C1125 0.929 . S
H1138 C1126 0.960 . S
H1139 C1126 0.962 . S
H1140 C1126 0.960 . S
H1141 C1127 0.961 . S
H1142 C1127 0.961 . S
H1143 C1127 0.961 . S
H1144 C1128 0.931 . S
H1145 C1133 0.930 . S
H1146 C1134 0.956 . S
H1147 C1134 0.961 . S
H1148 C1134 0.961 . S
H1149 C1135 0.958 . S
H1150 C1135 0.961 . S
H1151 C1135 0.960 . S
C1152 C1153 1.391 . S
C1152 C1154 1.394 . S
C1152 H1168 0.931 . S
C1153 C1152 1.391 . S
C1153 C1157 1.376 . S
C1154 C1152 1.394 . S
C1154 C1155 1.369 . S
C1154 C1158 1.531 . S
C1155 C1154 1.369 . S
C1155 C1156 1.410 . S
C1155 C1163 1.503 1_545 S
C1156 C1155 1.410 . S
C1156 C1157 1.392 . S
C1156 C1159 1.511 . S
C1157 C1153 1.376 . S
C1157 C1156 1.392 . S
C1157 H1169 0.929 . S
C1158 C1154 1.531 . S
C1158 H1170 0.960 1_545 S
C1158 H1171 0.987 . S
C1158 H1172 0.960 . S
C1159 C1156 1.511 . S
C1159 H1173 0.961 . S
C1159 H1174 0.961 1_545 S
C1159 H1175 0.961 1_545 S
C1160 C1161 1.370 . S
C1160 C1162 1.363 . S
C1160 H1176 0.931 . S
C1161 C1160 1.370 . S
C1161 C1165 1.408 . S
C1162 C1160 1.363 . S
C1162 C1163 1.370 . S
C1162 C1166 1.524 1_565 S
C1163 C1155 1.503 1_565 S
C1163 C1162 1.370 . S
C1163 C1164 1.403 . S
C1164 C1163 1.403 . S
C1164 C1165 1.404 . S
C1164 C1167 1.539 . S
C1165 C1161 1.408 . S
C1165 C1164 1.404 . S
C1165 H1177 0.930 . S
C1166 C1162 1.524 1_545 S
C1166 H1178 0.956 . S
C1166 H1179 0.961 . S
C1166 H1180 0.961 . S
C1167 C1164 1.539 . S
C1167 H1181 0.958 . S
C1167 H1182 0.961 . S
C1167 H1183 0.960 . S
H1168 C1152 0.931 . S
H1169 C1157 0.929 . S
H1170 C1158 0.960 1_565 S
H1171 C1158 0.987 . S
H1172 C1158 0.960 . S
H1173 C1159 0.961 . S
H1174 C1159 0.961 1_565 S
H1175 C1159 0.961 1_565 S
H1176 C1160 0.931 . S
H1177 C1165 0.930 . S
H1178 C1166 0.956 . S
H1179 C1166 0.961 . S
H1180 C1166 0.961 . S
H1181 C1167 0.958 . S
H1182 C1167 0.961 . S
H1183 C1167 0.960 . S
C1184 C1185 1.391 . S
C1184 C1186 1.394 . S
C1184 H1200 0.931 . S
C1185 C1184 1.391 . S
C1185 C1189 1.376 . S
C1186 C1184 1.394 . S
C1186 C1187 1.369 . S
C1186 C1190 1.531 . S
C1187 C1186 1.369 . S
C1187 C1188 1.410 . S
C1187 C1195 1.503 . S
C1188 C1187 1.410 . S
C1188 C1189 1.392 . S
C1188 C1191 1.511 . S
C1189 C1185 1.376 . S
C1189 C1188 1.392 . S
C1189 H1201 0.929 . S
C1190 C1186 1.531 . S
C1190 H1202 0.960 . S
C1190 H1203 0.962 . S
C1190 H1204 0.960 . S
C1191 C1188 1.511 . S
C1191 H1205 0.961 . S
C1191 H1206 0.961 . S
C1191 H1207 0.961 . S
C1192 C1193 1.370 . S
C1192 C1194 1.363 . S
C1192 H1208 0.931 . S
C1193 C1192 1.370 . S
C1193 C1197 1.408 . S
C1194 C1192 1.363 . S
C1194 C1195 1.370 . S
C1194 C1198 1.524 . S
C1195 C1187 1.503 . S
C1195 C1194 1.370 . S
C1195 C1196 1.403 . S
C1196 C1195 1.403 . S
C1196 C1197 1.404 . S
C1196 C1199 1.539 . S
C1197 C1193 1.408 . S
C1197 C1196 1.404 . S
C1197 H1209 0.930 . S
C1198 C1194 1.524 . S
C1198 H1210 0.956 . S
C1198 H1211 0.961 . S
C1198 H1212 0.961 . S
C1199 C1196 1.539 . S
C1199 H1213 0.958 . S
C1199 H1214 0.961 . S
C1199 H1215 0.960 . S
H1200 C1184 0.931 . S
H1201 C1189 0.929 . S
H1202 C1190 0.960 . S
H1203 C1190 0.962 . S
H1204 C1190 0.960 . S
H1205 C1191 0.961 . S
H1206 C1191 0.961 . S
H1207 C1191 0.961 . S
H1208 C1192 0.931 . S
H1209 C1197 0.930 . S
H1210 C1198 0.956 . S
H1211 C1198 0.961 . S
H1212 C1198 0.961 . S
H1213 C1199 0.958 . S
H1214 C1199 0.961 . S
H1215 C1199 0.960 . S
C1216 C1217 1.391 . S
C1216 C1218 1.394 . S
C1216 H1232 0.931 . S
C1217 C1216 1.391 . S
C1217 C1221 1.376 . S
C1218 C1216 1.394 . S
C1218 C1219 1.369 1_545 S
C1218 C1222 1.531 . S
C1219 C1218 1.369 1_565 S
C1219 C1220 1.410 1_565 S
C1219 C1227 1.503 . S
C1220 C1219 1.410 1_545 S
C1220 C1221 1.392 . S
C1220 C1223 1.511 1_545 S
C1221 C1217 1.376 . S
C1221 C1220 1.392 . S
C1221 H1233 0.929 . S
C1222 C1218 1.531 . S
C1222 H1234 0.931 1_545 S
C1222 H1235 0.962 . S
C1222 H1236 0.960 . S
C1223 C1220 1.511 1_565 S
C1223 H1237 0.961 . S
C1223 H1238 0.961 . S
C1223 H1239 0.961 . S
C1224 C1225 1.370 . S
C1224 C1226 1.363 . S
C1224 H1240 0.931 . S
C1225 C1224 1.370 . S
C1225 C1229 1.408 . S
C1226 C1224 1.363 . S
C1226 C1227 1.370 . S
C1226 C1230 1.524 . S
C1227 C1219 1.503 . S
C1227 C1226 1.370 . S
C1227 C1228 1.403 . S
C1228 C1227 1.403 . S
C1228 C1229 1.404 . S
C1228 C1231 1.539 . S
C1229 C1225 1.408 . S
C1229 C1228 1.404 . S
C1229 H1241 0.930 . S
C1230 C1226 1.524 . S
C1230 H1242 0.956 . S
C1230 H1243 0.961 . S
C1230 H1244 0.961 . S
C1231 C1228 1.539 . S
C1231 H1245 0.958 . S
C1231 H1246 0.961 . S
C1231 H1247 0.960 . S
H1232 C1216 0.931 . S
H1233 C1221 0.929 . S
H1234 C1222 0.931 1_565 S
H1235 C1222 0.962 . S
H1236 C1222 0.960 . S
H1237 C1223 0.961 . S
H1238 C1223 0.961 . S
H1239 C1223 0.961 . S
H1240 C1224 0.931 . S
H1241 C1229 0.930 . S
H1242 C1230 0.956 . S
H1243 C1230 0.961 . S
H1244 C1230 0.961 . S
H1245 C1231 0.958 . S
H1246 C1231 0.961 . S
H1247 C1231 0.960 . S
C1248 C1249 1.391 . S
C1248 C1250 1.394 . S
C1248 H1264 0.931 . S
C1249 C1248 1.391 . S
C1249 C1253 1.376 . S
C1250 C1248 1.394 . S
C1250 C1251 1.369 . S
C1250 C1254 1.531 . S
C1251 C1250 1.369 . S
C1251 C1252 1.410 . S
C1251 C1259 1.503 . S
C1252 C1251 1.410 . S
C1252 C1253 1.392 . S
C1252 C1255 1.511 . S
C1253 C1249 1.376 . S
C1253 C1252 1.392 . S
C1253 H1265 0.929 . S
C1254 C1250 1.531 . S
C1254 H1266 0.960 . S
C1254 H1267 0.962 . S
C1254 H1268 0.960 . S
C1255 C1252 1.511 . S
C1255 H1269 0.961 . S
C1255 H1270 0.961 . S
C1255 H1271 0.961 . S
C1256 C1257 1.370 . S
C1256 C1258 1.363 . S
C1256 H1272 0.931 . S
C1257 C1256 1.370 . S
C1257 C1261 1.408 . S
C1258 C1256 1.363 . S
C1258 C1259 1.370 . S
C1258 C1262 1.524 . S
C1259 C1251 1.503 . S
C1259 C1258 1.370 . S
C1259 C1260 1.403 . S
C1260 C1259 1.403 . S
C1260 C1261 1.404 . S
C1260 C1263 1.539 . S
C1261 C1257 1.408 . S
C1261 C1260 1.404 . S
C1261 H1273 0.930 . S
C1262 C1258 1.524 . S
C1262 H1274 0.956 . S
C1262 H1275 0.961 . S
C1262 H1276 0.961 . S
C1263 C1260 1.539 . S
C1263 H1277 0.958 . S
C1263 H1278 0.961 . S
C1263 H1279 0.960 . S
H1264 C1248 0.931 . S
H1265 C1253 0.929 . S
H1266 C1254 0.960 . S
H1267 C1254 0.962 . S
H1268 C1254 0.960 . S
H1269 C1255 0.961 . S
H1270 C1255 0.961 . S
H1271 C1255 0.961 . S
H1272 C1256 0.931 . S
H1273 C1261 0.930 . S
H1274 C1262 0.956 . S
H1275 C1262 0.961 . S
H1276 C1262 0.961 . S
H1277 C1263 0.958 . S
H1278 C1263 0.961 . S
H1279 C1263 0.960 . S
C1280 C1281 1.391 . S
C1280 C1282 1.394 . S
C1280 H1296 0.931 . S
C1281 C1280 1.391 . S
C1281 C1285 1.376 . S
C1282 C1280 1.394 . S
C1282 C1283 1.369 . S
C1282 C1286 1.531 . S
C1283 C1282 1.369 . S
C1283 C1284 1.410 . S
C1283 C1291 1.503 . S
C1284 C1283 1.410 . S
C1284 C1285 1.392 . S
C1284 C1287 1.511 . S
C1285 C1281 1.376 . S
C1285 C1284 1.392 . S
C1285 H1297 0.929 . S
C1286 C1282 1.531 . S
C1286 H1298 0.960 . S
C1286 H1299 0.962 . S
C1286 H1300 0.960 . S
C1287 C1284 1.511 . S
C1287 H1301 0.961 . S
C1287 H1302 0.961 . S
C1287 H1303 0.961 . S
C1288 C1289 1.370 . S
C1288 C1290 1.363 . S
C1288 H1304 0.931 . S
C1289 C1288 1.370 . S
C1289 C1293 1.408 . S
C1290 C1288 1.363 . S
C1290 C1291 1.370 . S
C1290 C1294 1.524 . S
C1291 C1283 1.503 . S
C1291 C1290 1.370 . S
C1291 C1292 1.403 . S
C1292 C1291 1.403 . S
C1292 C1293 1.404 . S
C1292 C1295 1.539 . S
C1293 C1289 1.408 . S
C1293 C1292 1.404 . S
C1293 H1305 0.930 . S
C1294 C1290 1.524 . S
C1294 H1306 0.956 . S
C1294 H1307 0.961 . S
C1294 H1308 0.961 . S
C1295 C1292 1.539 . S
C1295 H1309 0.958 . S
C1295 H1310 0.961 . S
C1295 H1311 0.960 . S
H1296 C1280 0.931 . S
H1297 C1285 0.929 . S
H1298 C1286 0.960 . S
H1299 C1286 0.962 . S
H1300 C1286 0.960 . S
H1301 C1287 0.961 . S
H1302 C1287 0.961 . S
H1303 C1287 0.961 . S
H1304 C1288 0.931 . S
H1305 C1293 0.930 . S
H1306 C1294 0.956 . S
H1307 C1294 0.961 . S
H1308 C1294 0.961 . S
H1309 C1295 0.958 . S
H1310 C1295 0.961 . S
H1311 C1295 0.960 . S
C1312 C1313 1.391 . S
C1312 C1314 1.394 . S
C1312 H1328 0.931 . S
C1313 C1312 1.391 . S
C1313 C1317 1.376 . S
C1314 C1312 1.394 . S
C1314 C1315 1.369 . S
C1314 C1318 1.531 . S
C1315 C1314 1.369 . S
C1315 C1316 1.410 . S
C1315 C1323 1.503 . S
C1316 C1315 1.410 . S
C1316 C1317 1.392 . S
C1316 C1319 1.511 . S
C1317 C1313 1.376 . S
C1317 C1316 1.392 . S
C1317 H1329 0.929 . S
C1318 C1314 1.531 . S
C1318 H1330 0.960 . S
C1318 H1331 0.962 . S
C1318 H1332 0.960 . S
C1319 C1316 1.511 . S
C1319 H1333 0.961 . S
C1319 H1334 0.961 . S
C1319 H1335 0.961 . S
C1320 C1321 1.370 . S
C1320 C1322 1.363 . S
C1320 H1336 0.931 . S
C1321 C1320 1.370 . S
C1321 C1325 1.408 . S
C1322 C1320 1.363 . S
C1322 C1323 1.370 . S
C1322 C1326 1.524 . S
C1323 C1315 1.503 . S
C1323 C1322 1.370 . S
C1323 C1324 1.403 . S
C1324 C1323 1.403 . S
C1324 C1325 1.404 . S
C1324 C1327 1.539 . S
C1325 C1321 1.408 . S
C1325 C1324 1.404 . S
C1325 H1337 0.930 . S
C1326 C1322 1.524 . S
C1326 H1338 0.956 . S
C1326 H1339 0.961 . S
C1326 H1340 0.961 . S
C1327 C1324 1.539 . S
C1327 H1341 0.958 . S
C1327 H1342 0.961 . S
C1327 H1343 0.960 . S
H1328 C1312 0.931 . S
H1329 C1317 0.929 . S
H1330 C1318 0.960 . S
H1331 C1318 0.962 . S
H1332 C1318 0.960 . S
H1333 C1319 0.961 . S
H1334 C1319 0.961 . S
H1335 C1319 0.961 . S
H1336 C1320 0.931 . S
H1337 C1325 0.930 . S
H1338 C1326 0.956 . S
H1339 C1326 0.961 . S
H1340 C1326 0.961 . S
H1341 C1327 0.958 . S
H1342 C1327 0.961 . S
H1343 C1327 0.960 . S
C1344 C1345 1.391 . S
C1344 C1346 1.394 . S
C1344 H1360 0.931 . S
C1345 C1344 1.391 . S
C1345 C1349 1.376 . S
C1346 C1344 1.394 . S
C1346 C1347 1.369 . S
C1346 C1350 1.531 . S
C1347 C1346 1.369 . S
C1347 C1348 1.410 . S
C1347 C1355 1.503 . S
C1348 C1347 1.410 . S
C1348 C1349 1.392 . S
C1348 C1351 1.511 . S
C1349 C1345 1.376 . S
C1349 C1348 1.392 . S
C1349 H1361 0.929 . S
C1350 C1346 1.531 . S
C1350 H1362 0.960 . S
C1350 H1363 0.962 . S
C1350 H1364 0.960 . S
C1351 C1348 1.511 . S
C1351 H1365 0.961 . S
C1351 H1366 0.961 . S
C1351 H1367 0.961 . S
C1352 C1353 1.370 . S
C1352 C1354 1.363 . S
C1352 H1368 0.931 . S
C1353 C1352 1.370 . S
C1353 C1357 1.408 . S
C1354 C1352 1.363 . S
C1354 C1355 1.370 . S
C1354 C1358 1.524 . S
C1355 C1347 1.503 . S
C1355 C1354 1.370 . S
C1355 C1356 1.403 . S
C1356 C1355 1.403 . S
C1356 C1357 1.404 . S
C1356 C1359 1.539 . S
C1357 C1353 1.408 . S
C1357 C1356 1.404 . S
C1357 H1369 0.930 . S
C1358 C1354 1.524 . S
C1358 H1370 0.956 . S
C1358 H1371 0.961 . S
C1358 H1372 0.961 . S
C1359 C1356 1.539 . S
C1359 H1373 0.958 . S
C1359 H1374 0.961 . S
C1359 H1375 0.960 . S
H1360 C1344 0.931 . S
H1361 C1349 0.929 . S
H1362 C1350 0.960 . S
H1363 C1350 0.962 . S
H1364 C1350 0.960 . S
H1365 C1351 0.961 . S
H1366 C1351 0.961 . S
H1367 C1351 0.961 . S
H1368 C1352 0.931 . S
H1369 C1357 0.930 . S
H1370 C1358 0.956 . S
H1371 C1358 0.961 . S
H1372 C1358 0.961 . S
H1373 C1359 0.958 . S
H1374 C1359 0.961 . S
H1375 C1359 0.960 . S
C1376 C1377 1.391 . S
C1376 C1378 1.394 . S
C1376 H1392 0.931 . S
C1377 C1376 1.391 . S
C1377 C1381 1.376 . S
C1378 C1376 1.394 . S
C1378 C1379 1.369 . S
C1378 C1382 1.531 . S
C1379 C1378 1.369 . S
C1379 C1380 1.410 . S
C1379 C1387 1.503 . S
C1380 C1379 1.410 . S
C1380 C1381 1.392 . S
C1380 C1383 1.511 . S
C1381 C1377 1.376 . S
C1381 C1380 1.392 . S
C1381 H1393 0.929 . S
C1382 C1378 1.531 . S
C1382 H1394 0.960 . S
C1382 H1395 0.962 . S
C1382 H1396 0.960 . S
C1383 C1380 1.511 . S
C1383 H1397 0.961 . S
C1383 H1398 0.961 . S
C1383 H1399 0.961 . S
C1384 C1385 1.370 . S
C1384 C1386 1.363 . S
C1384 H1400 0.931 . S
C1385 C1384 1.370 . S
C1385 C1389 1.408 . S
C1386 C1384 1.363 . S
C1386 C1387 1.370 . S
C1386 C1390 1.524 . S
C1387 C1379 1.503 . S
C1387 C1386 1.370 . S
C1387 C1388 1.403 . S
C1388 C1387 1.403 . S
C1388 C1389 1.404 . S
C1388 C1391 1.539 . S
C1389 C1385 1.408 . S
C1389 C1388 1.404 . S
C1389 H1401 0.930 . S
C1390 C1386 1.524 . S
C1390 H1402 0.956 . S
C1390 H1403 0.961 . S
C1390 H1404 0.961 . S
C1391 C1388 1.539 . S
C1391 H1405 0.958 . S
C1391 H1406 0.961 . S
C1391 H1407 0.960 . S
H1392 C1376 0.931 . S
H1393 C1381 0.929 . S
H1394 C1382 0.960 . S
H1395 C1382 0.962 . S
H1396 C1382 0.960 . S
H1397 C1383 0.961 . S
H1398 C1383 0.961 . S
H1399 C1383 0.961 . S
H1400 C1384 0.931 . S
H1401 C1389 0.930 . S
H1402 C1390 0.956 . S
H1403 C1390 0.961 . S
H1404 C1390 0.961 . S
H1405 C1391 0.958 . S
H1406 C1391 0.961 . S
H1407 C1391 0.960 . S
C1408 C1409 1.391 . S
C1408 C1410 1.394 . S
C1408 H1424 0.931 . S
C1409 C1408 1.391 . S
C1409 C1413 1.376 . S
C1410 C1408 1.394 . S
C1410 C1411 1.369 . S
C1410 C1414 1.531 . S
C1411 C1410 1.369 . S
C1411 C1412 1.410 . S
C1411 C1419 1.503 . S
C1412 C1411 1.410 . S
C1412 C1413 1.392 . S
C1412 C1415 1.511 . S
C1413 C1409 1.376 . S
C1413 C1412 1.392 . S
C1413 H1425 0.929 . S
C1414 C1410 1.531 . S
C1414 H1426 0.960 . S
C1414 H1427 0.962 . S
C1414 H1428 0.960 . S
C1415 C1412 1.511 . S
C1415 H1429 0.961 . S
C1415 H1430 0.961 . S
C1415 H1431 0.961 . S
C1416 C1417 1.370 . S
C1416 C1418 1.363 . S
C1416 H1432 0.931 . S
C1417 C1416 1.370 . S
C1417 C1421 1.408 . S
C1418 C1416 1.363 . S
C1418 C1419 1.370 . S
C1418 C1422 1.524 . S
C1419 C1411 1.503 . S
C1419 C1418 1.370 . S
C1419 C1420 1.403 . S
C1420 C1419 1.403 . S
C1420 C1421 1.404 . S
C1420 C1423 1.539 . S
C1421 C1417 1.408 . S
C1421 C1420 1.404 . S
C1421 H1433 0.930 . S
C1422 C1418 1.524 . S
C1422 H1434 0.956 . S
C1422 H1435 0.961 . S
C1422 H1436 0.961 . S
C1423 C1420 1.539 . S
C1423 H1437 0.958 . S
C1423 H1438 0.961 . S
C1423 H1439 0.960 . S
H1424 C1408 0.931 . S
H1425 C1413 0.929 . S
H1426 C1414 0.960 . S
H1427 C1414 0.962 . S
H1428 C1414 0.960 . S
H1429 C1415 0.961 . S
H1430 C1415 0.961 . S
H1431 C1415 0.961 . S
H1432 C1416 0.931 . S
H1433 C1421 0.930 . S
H1434 C1422 0.956 . S
H1435 C1422 0.961 . S
H1436 C1422 0.961 . S
H1437 C1423 0.958 . S
H1438 C1423 0.961 . S
H1439 C1423 0.960 . S
C1440 C1441 1.391 . S
C1440 C1442 1.391 . S
C1440 H1456 0.931 . S
C1441 C1440 1.391 . S
C1441 C1445 1.376 . S
C1442 C1440 1.391 . S
C1442 C1443 1.369 1_455 S
C1442 C1446 1.533 1_455 S
C1443 C1442 1.369 1_655 S
C1443 C1444 1.410 1_655 S
C1443 C1451 1.503 . S
C1444 C1443 1.410 1_455 S
C1444 C1445 1.392 . S
C1444 C1447 1.511 . S
C1445 C1441 1.376 . S
C1445 C1444 1.392 . S
C1445 H1457 0.929 . S
C1446 C1442 1.533 1_655 S
C1446 H1458 0.960 . S
C1446 H1459 0.962 . S
C1446 H1460 0.960 . S
C1447 C1444 1.511 . S
C1447 H1461 0.961 . S
C1447 H1462 0.961 . S
C1447 H1463 0.961 . S
C1448 C1449 1.370 . S
C1448 C1450 1.363 . S
C1448 H1464 0.934 1_554 S
C1449 C1448 1.370 . S
C1449 C1453 1.408 . S
C1450 C1448 1.363 . S
C1450 C1451 1.370 . S
C1450 C1454 1.524 . S
C1451 C1443 1.503 . S
C1451 C1450 1.370 . S
C1451 C1452 1.403 . S
C1452 C1451 1.403 . S
C1452 C1453 1.404 . S
C1452 C1455 1.539 . S
C1453 C1449 1.408 . S
C1453 C1452 1.404 . S
C1453 H1465 0.930 . S
C1454 C1450 1.524 . S
C1454 H1466 0.956 . S
C1454 H1467 0.961 1_655 S
C1454 H1468 0.961 1_554 S
C1455 C1452 1.539 . S
C1455 H1469 0.958 . S
C1455 H1470 0.961 . S
C1455 H1471 0.960 . S
H1456 C1440 0.931 . S
H1457 C1445 0.929 . S
H1458 C1446 0.960 . S
H1459 C1446 0.962 . S
H1460 C1446 0.960 . S
H1461 C1447 0.961 . S
H1462 C1447 0.961 . S
H1463 C1447 0.961 . S
H1464 C1448 0.934 1_556 S
H1465 C1453 0.930 . S
H1466 C1454 0.956 . S
H1467 C1454 0.961 1_455 S
H1468 C1454 0.961 1_556 S
H1469 C1455 0.958 . S
H1470 C1455 0.961 . S
H1471 C1455 0.960 . S
C1472 C1473 1.391 . S
C1472 C1474 1.394 . S
C1472 H1488 0.931 . S
C1473 C1472 1.391 . S
C1473 C1477 1.376 . S
C1474 C1472 1.394 . S
C1474 C1475 1.369 . S
C1474 C1478 1.531 . S
C1475 C1474 1.369 . S
C1475 C1476 1.410 . S
C1475 C1483 1.503 . S
C1476 C1475 1.410 . S
C1476 C1477 1.392 . S
C1476 C1479 1.511 . S
C1477 C1473 1.376 . S
C1477 C1476 1.392 . S
C1477 H1489 0.929 . S
C1478 C1474 1.531 . S
C1478 H1490 0.960 . S
C1478 H1491 0.962 . S
C1478 H1492 0.960 . S
C1479 C1476 1.511 . S
C1479 H1493 0.961 . S
C1479 H1494 0.961 . S
C1479 H1495 0.961 . S
C1480 C1481 1.370 . S
C1480 C1482 1.363 . S
C1480 H1496 0.931 . S
C1481 C1480 1.370 . S
C1481 C1485 1.408 . S
C1482 C1480 1.363 . S
C1482 C1483 1.370 . S
C1482 C1486 1.524 . S
C1483 C1475 1.503 . S
C1483 C1482 1.370 . S
C1483 C1484 1.403 . S
C1484 C1483 1.403 . S
C1484 C1485 1.404 . S
C1484 C1487 1.539 . S
C1485 C1481 1.408 . S
C1485 C1484 1.404 . S
C1485 H1497 0.930 . S
C1486 C1482 1.524 . S
C1486 H1498 0.956 . S
C1486 H1499 0.961 . S
C1486 H1500 0.961 . S
C1487 C1484 1.539 . S
C1487 H1501 0.958 . S
C1487 H1502 0.961 . S
C1487 H1503 0.960 . S
H1488 C1472 0.931 . S
H1489 C1477 0.929 . S
H1490 C1478 0.960 . S
H1491 C1478 0.962 . S
H1492 C1478 0.960 . S
H1493 C1479 0.961 . S
H1494 C1479 0.961 . S
H1495 C1479 0.961 . S
H1496 C1480 0.931 . S
H1497 C1485 0.930 . S
H1498 C1486 0.956 . S
H1499 C1486 0.961 . S
H1500 C1486 0.961 . S
H1501 C1487 0.958 . S
H1502 C1487 0.961 . S
H1503 C1487 0.960 . S
C1504 C1505 1.391 . S
C1504 C1506 1.394 . S
C1504 H1520 0.931 . S
C1505 C1504 1.391 . S
C1505 C1509 1.376 . S
C1506 C1504 1.394 . S
C1506 C1507 1.369 . S
C1506 C1510 1.531 . S
C1507 C1506 1.369 . S
C1507 C1508 1.410 . S
C1507 C1515 1.503 . S
C1508 C1507 1.410 . S
C1508 C1509 1.392 . S
C1508 C1511 1.511 . S
C1509 C1505 1.376 . S
C1509 C1508 1.392 . S
C1509 H1521 0.929 . S
C1510 C1506 1.531 . S
C1510 H1522 0.960 . S
C1510 H1523 0.962 . S
C1510 H1524 0.960 . S
C1511 C1508 1.511 . S
C1511 H1525 0.961 . S
C1511 H1526 0.961 . S
C1511 H1527 0.961 . S
C1512 C1513 1.370 . S
C1512 C1514 1.363 . S
C1512 H1528 0.931 . S
C1513 C1512 1.370 . S
C1513 C1517 1.408 . S
C1514 C1512 1.363 . S
C1514 C1515 1.370 . S
C1514 C1518 1.524 . S
C1515 C1507 1.503 . S
C1515 C1514 1.370 . S
C1515 C1516 1.403 . S
C1516 C1515 1.403 . S
C1516 C1517 1.404 . S
C1516 C1519 1.539 . S
C1517 C1513 1.408 . S
C1517 C1516 1.404 . S
C1517 H1529 0.930 . S
C1518 C1514 1.524 . S
C1518 H1530 0.956 . S
C1518 H1531 0.961 . S
C1518 H1532 0.961 . S
C1519 C1516 1.539 . S
C1519 H1533 0.958 . S
C1519 H1534 0.961 . S
C1519 H1535 0.960 . S
H1520 C1504 0.931 . S
H1521 C1509 0.929 . S
H1522 C1510 0.960 . S
H1523 C1510 0.962 . S
H1524 C1510 0.960 . S
H1525 C1511 0.961 . S
H1526 C1511 0.961 . S
H1527 C1511 0.961 . S
H1528 C1512 0.931 . S
H1529 C1517 0.930 . S
H1530 C1518 0.956 . S
H1531 C1518 0.961 . S
H1532 C1518 0.961 . S
H1533 C1519 0.958 . S
H1534 C1519 0.961 . S
H1535 C1519 0.960 . S
C1536 C1537 1.391 . S
C1536 C1538 1.394 . S
C1536 H1552 0.931 . S
C1537 C1536 1.391 . S
C1537 C1541 1.376 . S
C1538 C1536 1.394 . S
C1538 C1539 1.369 . S
C1538 C1542 1.531 . S
C1539 C1538 1.369 . S
C1539 C1540 1.410 . S
C1539 C1547 1.503 . S
C1540 C1539 1.410 . S
C1540 C1541 1.392 . S
C1540 C1543 1.511 . S
C1541 C1537 1.376 . S
C1541 C1540 1.392 . S
C1541 H1553 0.929 . S
C1542 C1538 1.531 . S
C1542 H1554 0.960 . S
C1542 H1555 0.962 . S
C1542 H1556 0.960 . S
C1543 C1540 1.511 . S
C1543 H1557 0.961 . S
C1543 H1558 0.961 . S
C1543 H1559 0.961 . S
C1544 C1545 1.370 . S
C1544 C1546 1.363 . S
C1544 H1560 0.931 . S
C1545 C1544 1.370 . S
C1545 C1549 1.408 . S
C1546 C1544 1.363 . S
C1546 C1547 1.370 . S
C1546 C1550 1.524 . S
C1547 C1539 1.503 . S
C1547 C1546 1.370 . S
C1547 C1548 1.403 . S
C1548 C1547 1.403 . S
C1548 C1549 1.404 . S
C1548 C1551 1.539 . S
C1549 C1545 1.408 . S
C1549 C1548 1.404 . S
C1549 H1561 0.930 . S
C1550 C1546 1.524 . S
C1550 H1562 0.956 . S
C1550 H1563 0.961 . S
C1550 H1564 0.961 . S
C1551 C1548 1.539 . S
C1551 H1565 0.958 . S
C1551 H1566 0.961 . S
C1551 H1567 0.960 . S
H1552 C1536 0.931 . S
H1553 C1541 0.929 . S
H1554 C1542 0.960 . S
H1555 C1542 0.962 . S
H1556 C1542 0.960 . S
H1557 C1543 0.961 . S
H1558 C1543 0.961 . S
H1559 C1543 0.961 . S
H1560 C1544 0.931 . S
H1561 C1549 0.930 . S
H1562 C1550 0.956 . S
H1563 C1550 0.961 . S
H1564 C1550 0.961 . S
H1565 C1551 0.958 . S
H1566 C1551 0.961 . S
H1567 C1551 0.960 . S
C1568 C1569 1.391 . S
C1568 C1570 1.394 . S
C1568 H1584 0.931 . S
C1569 C1568 1.391 . S
C1569 C1573 1.376 . S
C1570 C1568 1.394 . S
C1570 C1571 1.369 . S
C1570 C1574 1.531 . S
C1571 C1570 1.369 . S
C1571 C1572 1.410 . S
C1571 C1579 1.503 . S
C1572 C1571 1.410 . S
C1572 C1573 1.392 . S
C1572 C1575 1.511 . S
C1573 C1569 1.376 . S
C1573 C1572 1.392 . S
C1573 H1585 0.929 . S
C1574 C1570 1.531 . S
C1574 H1586 0.960 . S
C1574 H1587 0.962 . S
C1574 H1588 0.960 . S
C1575 C1572 1.511 . S
C1575 H1589 0.961 . S
C1575 H1590 0.961 . S
C1575 H1591 0.961 . S
C1576 C1577 1.370 . S
C1576 C1578 1.363 . S
C1576 H1592 0.931 . S
C1577 C1576 1.370 . S
C1577 C1581 1.408 . S
C1578 C1576 1.363 . S
C1578 C1579 1.370 . S
C1578 C1582 1.524 . S
C1579 C1571 1.503 . S
C1579 C1578 1.370 . S
C1579 C1580 1.403 . S
C1580 C1579 1.403 . S
C1580 C1581 1.404 . S
C1580 C1583 1.539 . S
C1581 C1577 1.408 . S
C1581 C1580 1.404 . S
C1581 H1593 0.930 . S
C1582 C1578 1.524 . S
C1582 H1594 0.956 . S
C1582 H1595 0.961 . S
C1582 H1596 0.961 . S
C1583 C1580 1.539 . S
C1583 H1597 0.958 . S
C1583 H1598 0.961 . S
C1583 H1599 0.960 . S
H1584 C1568 0.931 . S
H1585 C1573 0.929 . S
H1586 C1574 0.960 . S
H1587 C1574 0.962 . S
H1588 C1574 0.960 . S
H1589 C1575 0.961 . S
H1590 C1575 0.961 . S
H1591 C1575 0.961 . S
H1592 C1576 0.931 . S
H1593 C1581 0.930 . S
H1594 C1582 0.956 . S
H1595 C1582 0.961 . S
H1596 C1582 0.961 . S
H1597 C1583 0.958 . S
H1598 C1583 0.961 . S
H1599 C1583 0.960 . S
C1600 C1601 1.391 . S
C1600 C1602 1.394 . S
C1600 H1616 0.931 . S
C1601 C1600 1.391 . S
C1601 C1605 1.376 . S
C1602 C1600 1.394 . S
C1602 C1603 1.369 . S
C1602 C1606 1.531 . S
C1603 C1602 1.369 . S
C1603 C1604 1.410 . S
C1603 C1611 1.503 1_655 S
C1604 C1603 1.410 . S
C1604 C1605 1.392 . S
C1604 C1607 1.511 1_655 S
C1605 C1601 1.376 . S
C1605 C1604 1.392 . S
C1605 H1617 0.929 . S
C1606 C1602 1.531 . S
C1606 H1618 0.960 . S
C1606 H1619 0.962 . S
C1606 H1620 0.960 . S
C1607 C1604 1.511 1_455 S
C1607 H1621 0.961 . S
C1607 H1622 0.961 . S
C1607 H1623 0.961 . S
C1608 C1609 1.370 . S
C1608 C1610 1.363 . S
C1608 H1624 0.931 . S
C1609 C1608 1.370 . S
C1609 C1613 1.408 . S
C1610 C1608 1.363 . S
C1610 C1611 1.370 . S
C1610 C1614 1.524 . S
C1611 C1603 1.503 1_455 S
C1611 C1610 1.370 . S
C1611 C1612 1.403 . S
C1612 C1611 1.403 . S
C1612 C1613 1.404 . S
C1612 C1615 1.539 . S
C1613 C1609 1.408 . S
C1613 C1612 1.404 . S
C1613 H1625 0.930 . S
C1614 C1610 1.524 . S
C1614 H1626 0.956 1_455 S
C1614 H1627 0.961 . S
C1614 H1628 0.961 . S
C1615 C1612 1.539 . S
C1615 H1629 0.958 1_455 S
C1615 H1630 0.961 . S
C1615 H1631 0.960 . S
H1616 C1600 0.931 . S
H1617 C1605 0.929 . S
H1618 C1606 0.960 . S
H1619 C1606 0.962 . S
H1620 C1606 0.960 . S
H1621 C1607 0.961 . S
H1622 C1607 0.961 . S
H1623 C1607 0.961 . S
H1624 C1608 0.931 . S
H1625 C1613 0.930 . S
H1626 C1614 0.956 1_655 S
H1627 C1614 0.961 . S
H1628 C1614 0.961 . S
H1629 C1615 0.958 1_655 S
H1630 C1615 0.961 . S
H1631 C1615 0.960 . S
C481 C19 1.355 . S
C489 C459 1.342 . S
C513 C378 2.063 . S
C521 C58 2.059 . S
C545 C98 1.292 . S
C553 C338 1.290 . S
C577 C138 1.646 . S
C585 C419 1.571 . S
C609 C178 1.810 . S
C617 C418 1.808 . S
C641 C219 1.598 . S
C649 C458 1.691 . S
C673 C379 1.656 . S
C681 C258 1.732 . S
C705 C299 1.291 . S
C713 C339 1.321 . S
C737 C139 1.436 . S
C745 C179 1.427 . S
C769 C18 1.898 . S
C777 C218 1.897 . S
C801 C59 1.869 . S
C809 C259 1.884 . S
C833 C298 1.673 . S
C841 C99 1.594 . S
C865 C15 1.933 . S
C873 C329 1.863 . S
C897 C46 1.523 . S
C905 C410 1.513 . S
C929 C450 1.769 . S
C937 C86 1.831 . S
C961 C126 1.719 . S
C969 C369 1.614 . S
C993 C166 1.362 . S
C1001 C370 1.353 . S
C1025 C330 2.717 . S
C1033 C215 2.618 . S
C1057 C409 1.347 . S
C1065 C246 1.384 . S
C1089 C449 1.599 . S
C1097 C295 1.658 . S
C1121 C9 1.762 . S
C1129 C135 1.797 . S
C1153 C6 1.505 . S
C1161 C50 1.475 . S
C1185 C55 2.014 . S
C1193 C90 2.065 . S
C1217 C130 2.097 . S
C1225 C95 2.013 . S
C1249 C206 1.698 . S
C1257 C170 1.666 . S
C1281 C209 1.314 . S
C1289 C255 1.306 . S
C1313 C250 1.474 . S
C1321 C286 1.496 . S
C1345 C175 2.033 . S
C1353 C289 1.953 . S
C1377 C335 1.839 . S
C1385 C129 1.861 . S
C1409 C210 1.733 . S
C1417 C366 1.766 . S
C1441 C326 1.225 . S
C1449 C249 1.155 . S
C1473 C415 1.525 . S
C1481 C290 1.547 . S
C1505 C169 1.552 . S
C1513 C455 1.626 . S
C1537 C446 0.635 . S
C1545 C49 0.628 . S
C1569 C89 1.811 . S
C1577 C375 1.869 . S
C1601 C406 1.580 . S
C1609 C10 1.573 . S
