# Generated by pormake.
# Topology umd, (4)-cn, num edge types: 1
# Building blocks:
#     Node 0, Type 0, BuildingBlock: QUQFOY_clean_sbu_1, # of connection points: 4
#     Node 1, Type 0, BuildingBlock: QUQFOY_clean_sbu_1, # of connection points: 4
#     Node 2, Type 0, BuildingBlock: QUQFOY_clean_sbu_1, # of connection points: 4
#     Node 3, Type 0, BuildingBlock: QUQFOY_clean_sbu_1, # of connection points: 4
#     Node 4, Type 0, BuildingBlock: QUQFOY_clean_sbu_1, # of connection points: 4
#     Node 5, Type 0, BuildingBlock: QUQFOY_clean_sbu_1, # of connection points: 4
#     Node 6, Type 0, BuildingBlock: QUQFOY_clean_sbu_1, # of connection points: 4
#     Node 7, Type 0, BuildingBlock: QUQFOY_clean_sbu_1, # of connection points: 4
#     Node 8, Type 0, BuildingBlock: QUQFOY_clean_sbu_1, # of connection points: 4
#     Node 9, Type 0, BuildingBlock: QUQFOY_clean_sbu_1, # of connection points: 4
#     Node 10, Type 0, BuildingBlock: QUQFOY_clean_sbu_1, # of connection points: 4
#     Node 11, Type 0, BuildingBlock: QUQFOY_clean_sbu_1, # of connection points: 4
#     Node 12, Type 0, BuildingBlock: QUQFOY_clean_sbu_1, # of connection points: 4
#     Node 13, Type 0, BuildingBlock: QUQFOY_clean_sbu_1, # of connection points: 4
#     Node 14, Type 0, BuildingBlock: QUQFOY_clean_sbu_1, # of connection points: 4
#     Node 15, Type 0, BuildingBlock: QUQFOY_clean_sbu_1, # of connection points: 4
#     Edge 16, Type (0, 0), BuildingBlock: UVAHIK_clean_linker_0, # of connection points: 2
#     Edge 17, Type (0, 0), BuildingBlock: UVAHIK_clean_linker_0, # of connection points: 2
#     Edge 18, Type (0, 0), BuildingBlock: UVAHIK_clean_linker_0, # of connection points: 2
#     Edge 19, Type (0, 0), BuildingBlock: UVAHIK_clean_linker_0, # of connection points: 2
#     Edge 20, Type (0, 0), BuildingBlock: UVAHIK_clean_linker_0, # of connection points: 2
#     Edge 21, Type (0, 0), BuildingBlock: UVAHIK_clean_linker_0, # of connection points: 2
#     Edge 22, Type (0, 0), BuildingBlock: UVAHIK_clean_linker_0, # of connection points: 2
#     Edge 23, Type (0, 0), BuildingBlock: UVAHIK_clean_linker_0, # of connection points: 2
#     Edge 24, Type (0, 0), BuildingBlock: UVAHIK_clean_linker_0, # of connection points: 2
#     Edge 25, Type (0, 0), BuildingBlock: UVAHIK_clean_linker_0, # of connection points: 2
#     Edge 26, Type (0, 0), BuildingBlock: UVAHIK_clean_linker_0, # of connection points: 2
#     Edge 27, Type (0, 0), BuildingBlock: UVAHIK_clean_linker_0, # of connection points: 2
#     Edge 28, Type (0, 0), BuildingBlock: UVAHIK_clean_linker_0, # of connection points: 2
#     Edge 29, Type (0, 0), BuildingBlock: UVAHIK_clean_linker_0, # of connection points: 2
#     Edge 30, Type (0, 0), BuildingBlock: UVAHIK_clean_linker_0, # of connection points: 2
#     Edge 31, Type (0, 0), BuildingBlock: UVAHIK_clean_linker_0, # of connection points: 2
#     Edge 32, Type (0, 0), BuildingBlock: UVAHIK_clean_linker_0, # of connection points: 2
#     Edge 33, Type (0, 0), BuildingBlock: UVAHIK_clean_linker_0, # of connection points: 2
#     Edge 34, Type (0, 0), BuildingBlock: UVAHIK_clean_linker_0, # of connection points: 2
#     Edge 35, Type (0, 0), BuildingBlock: UVAHIK_clean_linker_0, # of connection points: 2
#     Edge 36, Type (0, 0), BuildingBlock: UVAHIK_clean_linker_0, # of connection points: 2
#     Edge 37, Type (0, 0), BuildingBlock: UVAHIK_clean_linker_0, # of connection points: 2
#     Edge 38, Type (0, 0), BuildingBlock: UVAHIK_clean_linker_0, # of connection points: 2
#     Edge 39, Type (0, 0), BuildingBlock: UVAHIK_clean_linker_0, # of connection points: 2
#     Edge 40, Type (0, 0), BuildingBlock: UVAHIK_clean_linker_0, # of connection points: 2
#     Edge 41, Type (0, 0), BuildingBlock: UVAHIK_clean_linker_0, # of connection points: 2
#     Edge 42, Type (0, 0), BuildingBlock: UVAHIK_clean_linker_0, # of connection points: 2
#     Edge 43, Type (0, 0), BuildingBlock: UVAHIK_clean_linker_0, # of connection points: 2
#     Edge 44, Type (0, 0), BuildingBlock: UVAHIK_clean_linker_0, # of connection points: 2
#     Edge 45, Type (0, 0), BuildingBlock: UVAHIK_clean_linker_0, # of connection points: 2
#     Edge 46, Type (0, 0), BuildingBlock: UVAHIK_clean_linker_0, # of connection points: 2
#     Edge 47, Type (0, 0), BuildingBlock: UVAHIK_clean_linker_0, # of connection points: 2
# Relax obj value: 0.063
# Max RMSD: 0.194
# Mean RMSD: 0.194
data_MOF--net-umd--node1-QUQFOY_clean_sbu_1--edge1-UVAHIK_clean_linker_0
_symmetry_space_group_name_H-M    P1
_symmetry_Int_Tables_number       1
_symmetry_cell_setting            triclinic
loop_
_symmetry_equiv_pos_as_xyz
'x, y, z'
_cell_length_a     52.495384
_cell_length_b     52.49075
_cell_length_c     74.656869
_cell_angle_alpha  90.00484
_cell_angle_beta   90.004307
_cell_angle_gamma 89.971138
loop_
_atom_site_label
_atom_site_type_symbol
_atom_site_fract_x
_atom_site_fract_y
_atom_site_fract_z
_atom_type_partial_charge
O0 O 0.1902 0.43375 0.10567 0.0
Cd1 Cd 0.17751 0.42473 0.13106 0.0
Cd2 Cd 0.19318 0.47354 0.13621 0.0
O3 O 0.20812 0.47117 0.11057 0.0
O4 O 0.17706 0.38643 0.13178 0.0
O5 O 0.20331 0.40985 0.14797 0.0
C6 C 0.19599 0.38759 0.14278 0.0
C7 C 0.21627 0.48075 0.16237 0.0
C8 C 0.20291 0.4528 0.10006 0.0
C9 C 0.13698 0.46299 0.13984 0.0
O10 O 0.15455 0.47951 0.13823 0.0
O11 O 0.14219 0.4393 0.13876 0.0
O12 O 0.21058 0.49938 0.15177 0.0
O13 O 0.21013 0.458 0.15745 0.0
O14 O 0.57936 0.18984 0.60416 0.0
Cd15 Cd 0.58933 0.17686 0.62932 0.0
Cd16 Cd 0.54075 0.19206 0.63571 0.0
O17 O 0.54228 0.20773 0.61026 0.0
O18 O 0.62763 0.17687 0.62963 0.0
O19 O 0.6042 0.2027 0.64619 0.0
C20 C 0.62645 0.19566 0.64076 0.0
C21 C 0.53364 0.21471 0.6621 0.0
C22 C 0.56009 0.20278 0.59922 0.0
C23 C 0.55183 0.13592 0.63866 0.0
O24 O 0.53506 0.15333 0.63745 0.0
O25 O 0.57539 0.1414 0.63716 0.0
O26 O 0.51495 0.20896 0.65158 0.0
O27 O 0.5564 0.20881 0.65702 0.0
O28 O 0.82323 0.57987 0.10366 0.0
Cd29 Cd 0.8361 0.58965 0.12889 0.0
Cd30 Cd 0.82085 0.54151 0.13536 0.0
O31 O 0.80483 0.54318 0.11002 0.0
O32 O 0.83604 0.6279 0.12933 0.0
O33 O 0.81014 0.60435 0.14575 0.0
C34 C 0.81718 0.62664 0.14039 0.0
C35 C 0.79862 0.53304 0.16174 0.0
C36 C 0.80998 0.56076 0.09886 0.0
C37 C 0.877 0.5521 0.13806 0.0
O38 O 0.85954 0.53542 0.13678 0.0
O39 O 0.87157 0.5757 0.13672 0.0
O40 O 0.80415 0.51498 0.15064 0.0
O41 O 0.80444 0.55607 0.15727 0.0
O42 O 0.43215 0.82392 0.60595 0.0
Cd43 Cd 0.42379 0.83603 0.63158 0.0
Cd44 Cd 0.47219 0.81997 0.63625 0.0
O45 O 0.46911 0.80499 0.61065 0.0
O46 O 0.38556 0.83656 0.63276 0.0
O47 O 0.40931 0.80978 0.64831 0.0
C48 C 0.38694 0.81729 0.64345 0.0
C49 C 0.48092 0.79692 0.66222 0.0
C50 C 0.45082 0.81078 0.60022 0.0
C51 C 0.46234 0.87619 0.64017 0.0
O52 O 0.47869 0.85853 0.63815 0.0
O53 O 0.43861 0.87113 0.63948 0.0
O54 O 0.49882 0.80237 0.65098 0.0
O55 O 0.45789 0.80323 0.65806 0.0
O56 O 0.18958 0.58086 0.4048 0.0
Cd57 Cd 0.17667 0.59013 0.3795 0.0
Cd58 Cd 0.19294 0.54211 0.37327 0.0
O59 O 0.20869 0.54441 0.39868 0.0
O60 O 0.17667 0.62839 0.37849 0.0
O61 O 0.20266 0.60434 0.3625 0.0
C62 C 0.19559 0.62678 0.3675 0.0
C63 C 0.21558 0.53351 0.34707 0.0
C64 C 0.20314 0.56203 0.40974 0.0
C65 C 0.13653 0.55182 0.37044 0.0
O66 O 0.15435 0.5355 0.37173 0.0
O67 O 0.14144 0.57553 0.37174 0.0
O68 O 0.21016 0.51554 0.35826 0.0
O69 O 0.20939 0.55652 0.35136 0.0
O70 O 0.43217 0.19013 0.90322 0.0
Cd71 Cd 0.42361 0.17783 0.87765 0.0
Cd72 Cd 0.47231 0.19296 0.87293 0.0
O73 O 0.46952 0.20818 0.89846 0.0
O74 O 0.38537 0.17762 0.87658 0.0
O75 O 0.40921 0.20401 0.8608 0.0
C76 C 0.38682 0.19672 0.86575 0.0
C77 C 0.48101 0.21575 0.84686 0.0
C78 C 0.4511 0.20291 0.9089 0.0
C79 C 0.46161 0.13694 0.86922 0.0
O80 O 0.47828 0.15429 0.87118 0.0
O81 O 0.43797 0.14246 0.86989 0.0
O82 O 0.49897 0.21016 0.85803 0.0
O83 O 0.45797 0.20969 0.85113 0.0
O84 O 0.82291 0.43401 0.40477 0.0
Cd85 Cd 0.836 0.42414 0.37962 0.0
Cd86 Cd 0.8208 0.47267 0.37328 0.0
O87 O 0.80489 0.47102 0.39866 0.0
O88 O 0.83603 0.38584 0.37927 0.0
O89 O 0.81024 0.40927 0.36269 0.0
C90 C 0.81727 0.38703 0.36812 0.0
C91 C 0.79849 0.48 0.34678 0.0
C92 C 0.80986 0.45321 0.4097 0.0
C93 C 0.87696 0.4617 0.37056 0.0
O94 O 0.85952 0.47843 0.37178 0.0
O95 O 0.87151 0.43811 0.37191 0.0
O96 O 0.8041 0.4986 0.35741 0.0
O97 O 0.80429 0.45719 0.35181 0.0
O98 O 0.57883 0.8234 0.90522 0.0
Cd99 Cd 0.58898 0.83664 0.88017 0.0
Cd100 Cd 0.54079 0.82069 0.8733 0.0
O101 O 0.54212 0.80503 0.89876 0.0
O102 O 0.62729 0.83677 0.87998 0.0
O103 O 0.60405 0.81098 0.86327 0.0
C104 C 0.62624 0.81803 0.8688 0.0
C105 C 0.53384 0.79799 0.8469 0.0
C106 C 0.55966 0.81019 0.90997 0.0
C107 C 0.55108 0.87707 0.8706 0.0
O108 O 0.53463 0.85935 0.87155 0.0
O109 O 0.57471 0.87201 0.87236 0.0
O110 O 0.51512 0.80365 0.85741 0.0
O111 O 0.55656 0.80399 0.85199 0.0
O112 O 0.8227 0.57926 0.90484 0.0
Cd113 Cd 0.83575 0.58932 0.87972 0.0
Cd114 Cd 0.8207 0.54083 0.87324 0.0
O115 O 0.80479 0.54226 0.89862 0.0
O116 O 0.8358 0.62761 0.87959 0.0
O117 O 0.80999 0.60443 0.86286 0.0
C118 C 0.81705 0.6266 0.86843 0.0
C119 C 0.79841 0.53362 0.84672 0.0
C120 C 0.80971 0.56001 0.90971 0.0
C121 C 0.87682 0.55189 0.87049 0.0
O122 O 0.85944 0.53511 0.8717 0.0
O123 O 0.87128 0.57546 0.87193 0.0
O124 O 0.80406 0.51498 0.85731 0.0
O125 O 0.80415 0.55641 0.85181 0.0
O126 O 0.43215 0.82396 0.40304 0.0
Cd127 Cd 0.42378 0.83608 0.37741 0.0
Cd128 Cd 0.4722 0.82005 0.37274 0.0
O129 O 0.46913 0.80508 0.39834 0.0
O130 O 0.38555 0.83656 0.37622 0.0
O131 O 0.40935 0.80981 0.36067 0.0
C132 C 0.38697 0.8173 0.36552 0.0
C133 C 0.48096 0.797 0.34678 0.0
C134 C 0.45083 0.81085 0.40877 0.0
C135 C 0.46231 0.87627 0.36883 0.0
O136 O 0.47867 0.85862 0.37084 0.0
O137 O 0.43857 0.8712 0.36953 0.0
O138 O 0.49885 0.80247 0.35803 0.0
O139 O 0.45792 0.80329 0.35093 0.0
O140 O 0.1902 0.4341 0.90306 0.0
Cd141 Cd 0.17755 0.42515 0.87764 0.0
Cd142 Cd 0.19319 0.47401 0.87259 0.0
O143 O 0.2081 0.47155 0.89823 0.0
O144 O 0.17714 0.38683 0.87684 0.0
O145 O 0.20341 0.41035 0.86073 0.0
C146 C 0.19611 0.38806 0.86587 0.0
C147 C 0.21628 0.48123 0.84644 0.0
C148 C 0.20289 0.45313 0.9087 0.0
C149 C 0.13701 0.46341 0.86889 0.0
O150 O 0.15455 0.47994 0.87056 0.0
O151 O 0.14224 0.43973 0.86992 0.0
O152 O 0.2106 0.49985 0.85704 0.0
O153 O 0.21013 0.45847 0.85134 0.0
O154 O 0.58005 0.18944 0.40512 0.0
Cd155 Cd 0.58975 0.17668 0.37986 0.0
Cd156 Cd 0.54156 0.19204 0.37346 0.0
O157 O 0.5433 0.20782 0.39887 0.0
O158 O 0.628 0.17679 0.37928 0.0
O159 O 0.60426 0.20272 0.363 0.0
C160 C 0.62661 0.19569 0.36826 0.0
C161 C 0.5331 0.21462 0.34722 0.0
C162 C 0.56093 0.20263 0.40999 0.0
C163 C 0.55217 0.13587 0.37056 0.0
O164 O 0.53549 0.15336 0.37184 0.0
O165 O 0.57577 0.14126 0.37196 0.0
O166 O 0.51503 0.20897 0.35827 0.0
O167 O 0.55612 0.20868 0.35166 0.0
O168 O 0.8234 0.43316 0.60374 0.0
Cd169 Cd 0.83632 0.42353 0.62897 0.0
Cd170 Cd 0.82091 0.47165 0.63538 0.0
O171 O 0.80487 0.46983 0.61004 0.0
O172 O 0.83628 0.38528 0.62956 0.0
O173 O 0.8104 0.40897 0.64591 0.0
C174 C 0.81744 0.38664 0.64063 0.0
C175 C 0.79868 0.48028 0.66173 0.0
C176 C 0.81009 0.45222 0.59891 0.0
C177 C 0.87712 0.46118 0.63802 0.0
O178 O 0.8596 0.47781 0.63675 0.0
O179 O 0.87178 0.43756 0.63672 0.0
O180 O 0.80418 0.49827 0.65058 0.0
O181 O 0.80454 0.45722 0.65733 0.0
O182 O 0.57888 0.82344 0.1038 0.0
Cd183 Cd 0.58904 0.83666 0.12886 0.0
Cd184 Cd 0.54082 0.82075 0.13572 0.0
O185 O 0.54217 0.80509 0.11025 0.0
O186 O 0.62735 0.83672 0.1291 0.0
O187 O 0.60403 0.81095 0.14576 0.0
C188 C 0.62624 0.81797 0.14026 0.0
C189 C 0.53387 0.79805 0.16212 0.0
C190 C 0.55971 0.81024 0.09905 0.0
C191 C 0.55116 0.87711 0.13843 0.0
O192 O 0.53469 0.85941 0.13747 0.0
O193 O 0.57479 0.87204 0.13669 0.0
O194 O 0.51515 0.80371 0.15161 0.0
O195 O 0.55658 0.80404 0.15703 0.0
O196 O 0.18955 0.58095 0.60396 0.0
Cd197 Cd 0.1766 0.59024 0.62924 0.0
Cd198 Cd 0.19291 0.54223 0.6355 0.0
O199 O 0.20865 0.54451 0.61009 0.0
O200 O 0.17659 0.6285 0.63024 0.0
O201 O 0.20256 0.60445 0.64626 0.0
C202 C 0.19549 0.62689 0.64125 0.0
C203 C 0.21555 0.53368 0.66171 0.0
C204 C 0.20311 0.56211 0.59903 0.0
C205 C 0.13648 0.55191 0.63831 0.0
O206 O 0.15431 0.5356 0.63704 0.0
O207 O 0.14137 0.57562 0.63698 0.0
O208 O 0.21013 0.51568 0.65053 0.0
O209 O 0.20934 0.55667 0.65741 0.0
O210 O 0.43304 0.19071 0.106 0.0
Cd211 Cd 0.42421 0.17815 0.13146 0.0
Cd212 Cd 0.47327 0.19314 0.13619 0.0
O213 O 0.4707 0.20824 0.11062 0.0
O214 O 0.38591 0.17772 0.13219 0.0
O215 O 0.40931 0.20403 0.14834 0.0
C216 C 0.38705 0.19669 0.14315 0.0
C217 C 0.48059 0.21602 0.16241 0.0
C218 C 0.45211 0.20323 0.10025 0.0
C219 C 0.46216 0.13714 0.13994 0.0
O220 O 0.47891 0.15444 0.13807 0.0
O221 O 0.43854 0.14273 0.13916 0.0
O222 O 0.49919 0.21034 0.15178 0.0
O223 O 0.4578 0.20998 0.15749 0.0
C224 C 0.10497 0.49803 0.14351 0.0
C225 C 0.11028 0.47181 0.14217 0.0
C226 C 0.0799 0.50681 0.14451 0.0
C227 C 0.01376 0.48723 0.1546 0.0
H228 H 0.99625 0.54592 0.12552 0.0
C229 C 0.90958 0.51748 0.14145 0.0
C230 C 0.9038 0.54364 0.1405 0.0
C231 C 0.93478 0.50916 0.14287 0.0
C232 C 1.00085 0.52977 0.13395 0.0
H233 H 0.09317 0.43423 0.14131 0.0
H234 H 0.04925 0.44963 0.143 0.0
H235 H 0.0399 0.53024 0.12576 0.0
H236 H 0.92017 0.58156 0.1407 0.0
H237 H 0.96422 0.56702 0.14343 0.0
H238 H 0.97464 0.48671 0.16273 0.0
C239 C 0.06463 0.46336 0.14337 0.0
C240 C 0.02591 0.52072 0.13405 0.0
C241 C 0.0898 0.45454 0.14234 0.0
C242 C 0.92391 0.56128 0.14134 0.0
C243 C 0.94919 0.55293 0.14279 0.0
C244 C 0.98868 0.49632 0.15452 0.0
C245 C 0.05938 0.48965 0.14422 0.0
C246 C 0.03268 0.4993 0.14434 0.0
C247 C 0.95496 0.52673 0.14343 0.0
C248 C 0.98187 0.51765 0.14413 0.0
H249 H 0.12021 0.51193 0.14355 0.0
H250 H 0.07659 0.52713 0.14549 0.0
H251 H 0.01839 0.4709 0.16285 0.0
H252 H 0.89464 0.5033 0.1408 0.0
H253 H 0.93846 0.48886 0.14308 0.0
C254 C 0.49765 0.90795 0.6435 0.0
C255 C 0.47137 0.90281 0.64255 0.0
C256 C 0.50657 0.93297 0.64458 0.0
C257 C 0.4875 0.99905 0.6555 0.0
H258 H 0.54539 0.01682 0.62574 0.0
C259 C 0.51736 0.10332 0.64245 0.0
C260 C 0.54347 0.10911 0.64117 0.0
C261 C 0.5091 0.0781 0.64389 0.0
C262 C 0.52947 0.01214 0.63436 0.0
H263 H 0.43385 0.92012 0.64241 0.0
H264 H 0.44948 0.96393 0.64421 0.0
H265 H 0.52965 0.9732 0.62589 0.0
H266 H 0.58141 0.09274 0.64083 0.0
H267 H 0.56698 0.04866 0.64358 0.0
H268 H 0.48727 0.03806 0.6639 0.0
C269 C 0.46316 0.94848 0.64425 0.0
C270 C 0.52039 0.9871 0.63441 0.0
C271 C 0.4542 0.92337 0.64315 0.0
C272 C 0.56116 0.089 0.64172 0.0
C273 C 0.55287 0.0637 0.64319 0.0
C274 C 0.49662 0.02411 0.65547 0.0
C275 C 0.48949 0.95358 0.64474 0.0
C276 C 0.49924 0.98024 0.64494 0.0
C277 C 0.5267 0.05793 0.64414 0.0
C278 C 0.51766 0.03101 0.64483 0.0
H279 H 0.51148 0.89264 0.6432 0.0
H280 H 0.52693 0.93616 0.64526 0.0
H281 H 0.4714 0.99435 0.66395 0.0
H282 H 0.50314 0.11826 0.64204 0.0
H283 H 0.48881 0.07442 0.64434 0.0
C284 C 0.10486 0.51648 0.36678 0.0
C285 C 0.10991 0.54274 0.3681 0.0
C286 C 0.07987 0.5075 0.36562 0.0
C287 C 0.0138 0.52664 0.35486 0.0
H288 H 0.99604 0.46793 0.38382 0.0
C289 C 0.90955 0.49627 0.36721 0.0
C290 C 0.90379 0.47012 0.3682 0.0
C291 C 0.93476 0.50459 0.36593 0.0
C292 C 1.00072 0.48408 0.37542 0.0
H293 H 0.09246 0.58019 0.36882 0.0
H294 H 0.04871 0.56445 0.36685 0.0
H295 H 0.03962 0.48379 0.38398 0.0
H296 H 0.92019 0.4322 0.36822 0.0
H297 H 0.96427 0.44673 0.36575 0.0
H298 H 0.97485 0.52697 0.34634 0.0
C299 C 0.06421 0.55083 0.36661 0.0
C300 C 0.02573 0.49323 0.37554 0.0
C301 C 0.08929 0.55985 0.36781 0.0
C302 C 0.92392 0.45247 0.36754 0.0
C303 C 0.94921 0.46082 0.36624 0.0
C304 C 0.98877 0.51744 0.35469 0.0
C305 C 0.0592 0.52451 0.36571 0.0
C306 C 0.03258 0.51468 0.36532 0.0
C307 C 0.95496 0.48702 0.36556 0.0
C308 C 0.98186 0.49612 0.36505 0.0
H309 H 0.12022 0.5027 0.36685 0.0
H310 H 0.07675 0.48715 0.36463 0.0
H311 H 0.0185 0.54297 0.34663 0.0
H312 H 0.89459 0.51047 0.36771 0.0
H313 H 0.93842 0.52489 0.3657 0.0
C314 C 0.51606 0.90893 0.86623 0.0
C315 C 0.54223 0.90374 0.86812 0.0
C316 C 0.50724 0.93397 0.86491 0.0
C317 C 0.52709 0.99999 0.85469 0.0
H318 H 0.46707 0.01789 0.88227 0.0
C319 C 0.49629 0.10432 0.8665 0.0
C320 C 0.47012 0.11013 0.86689 0.0
C321 C 0.50464 0.07909 0.86535 0.0
C322 C 0.4836 0.01317 0.87425 0.0
H323 H 0.57969 0.92101 0.8697 0.0
H324 H 0.56422 0.96485 0.86746 0.0
H325 H 0.48282 0.97426 0.88277 0.0
H326 H 0.4322 0.09381 0.86592 0.0
H327 H 0.4468 0.04971 0.86367 0.0
H328 H 0.52791 0.03896 0.84624 0.0
C329 C 0.55056 0.94942 0.86689 0.0
C330 C 0.49269 0.98813 0.87457 0.0
C331 C 0.55942 0.92429 0.86825 0.0
C332 C 0.45249 0.09004 0.86571 0.0
C333 C 0.46087 0.06474 0.86454 0.0
C334 C 0.51796 0.02505 0.85434 0.0
C335 C 0.52431 0.95455 0.86542 0.0
C336 C 0.51459 0.98122 0.86485 0.0
C337 C 0.48707 0.05893 0.86451 0.0
C338 C 0.49616 0.03201 0.86419 0.0
H339 H 0.50223 0.89364 0.86597 0.0
H340 H 0.48696 0.93719 0.86348 0.0
H341 H 0.54378 0.99525 0.84685 0.0
H342 H 0.51047 0.11924 0.86741 0.0
H343 H 0.52493 0.07539 0.86561 0.0
C344 C 0.90952 0.51743 0.86697 0.0
C345 C 0.90366 0.54355 0.86804 0.0
C346 C 0.93476 0.5092 0.86555 0.0
C347 C 1.00072 0.52992 0.87472 0.0
H348 H 0.01853 0.47134 0.84561 0.0
C349 C 0.10496 0.49843 0.8653 0.0
C350 C 0.1103 0.47221 0.86654 0.0
C351 C 0.07988 0.50719 0.86427 0.0
C352 C 0.01383 0.48758 0.85392 0.0
H353 H 0.9199 0.58153 0.86806 0.0
H354 H 0.96401 0.56716 0.86534 0.0
H355 H 0.97476 0.48706 0.84568 0.0
H356 H 0.09324 0.4346 0.86721 0.0
H357 H 0.04931 0.44995 0.86548 0.0
H358 H 0.03973 0.53041 0.88301 0.0
C359 C 0.94902 0.55301 0.86588 0.0
C360 C 0.98873 0.49662 0.85397 0.0
C361 C 0.9237 0.56127 0.86732 0.0
C362 C 0.08985 0.45491 0.86626 0.0
C363 C 0.06466 0.46371 0.8652 0.0
C364 C 0.0258 0.52093 0.87464 0.0
C365 C 0.95487 0.52684 0.86512 0.0
C366 C 0.98182 0.51785 0.86444 0.0
C367 C 0.05938 0.48999 0.86444 0.0
C368 C 0.03267 0.49961 0.86429 0.0
H369 H 0.89463 0.50318 0.86752 0.0
H370 H 0.93851 0.48891 0.86526 0.0
H371 H 0.99605 0.546 0.8832 0.0
H372 H 0.12018 0.51236 0.86535 0.0
H373 H 0.07655 0.52751 0.86337 0.0
C374 C 0.51757 0.10338 0.36688 0.0
C375 C 0.54371 0.10909 0.36804 0.0
C376 C 0.50923 0.07819 0.36542 0.0
C377 C 0.52954 0.01214 0.37473 0.0
H378 H 0.47123 0.99457 0.34531 0.0
C379 C 0.49759 0.90804 0.36544 0.0
C380 C 0.47132 0.90289 0.36647 0.0
C381 C 0.5065 0.93305 0.36439 0.0
C382 C 0.48739 0.99921 0.35371 0.0
H383 H 0.5816 0.09263 0.36819 0.0
H384 H 0.56704 0.0486 0.36542 0.0
H385 H 0.48714 0.03826 0.34541 0.0
H386 H 0.43381 0.92021 0.36675 0.0
H387 H 0.44943 0.96403 0.365 0.0
H388 H 0.52973 0.97316 0.3831 0.0
C389 C 0.55297 0.06367 0.3659 0.0
C390 C 0.49654 0.02426 0.35377 0.0
C391 C 0.56134 0.08894 0.36738 0.0
C392 C 0.45415 0.92346 0.36596 0.0
C393 C 0.46311 0.94857 0.36489 0.0
C394 C 0.52043 0.98711 0.37464 0.0
C395 C 0.52678 0.05797 0.36505 0.0
C396 C 0.51767 0.03108 0.36435 0.0
C397 C 0.48943 0.95367 0.36433 0.0
C398 C 0.49919 0.98033 0.36418 0.0
H399 H 0.50339 0.11837 0.36738 0.0
H400 H 0.48893 0.07456 0.36505 0.0
H401 H 0.54553 0.01676 0.3833 0.0
H402 H 0.51142 0.89272 0.36566 0.0
H403 H 0.52686 0.93624 0.36364 0.0
C404 C 0.9241 0.45215 0.64112 0.0
C405 C 0.90391 0.46973 0.64036 0.0
C406 C 0.94935 0.4606 0.64243 0.0
C407 C 0.9887 0.51742 0.65384 0.0
H408 H 0.03974 0.48368 0.62477 0.0
C409 C 0.08922 0.5599 0.64083 0.0
C410 C 0.10987 0.54282 0.64063 0.0
C411 C 0.06415 0.55086 0.64201 0.0
C412 C 0.0258 0.49315 0.63315 0.0
H413 H 0.89456 0.51004 0.64068 0.0
H414 H 0.93834 0.52463 0.64271 0.0
H415 H 0.99619 0.46773 0.62489 0.0
H416 H 0.12022 0.50279 0.64202 0.0
H417 H 0.07676 0.48721 0.64419 0.0
H418 H 0.01835 0.54305 0.66189 0.0
C419 C 0.93475 0.50432 0.64255 0.0
C420 C 1.00081 0.48395 0.63324 0.0
C421 C 0.90957 0.4959 0.64126 0.0
C422 C 0.10484 0.51655 0.64202 0.0
C423 C 0.07986 0.50755 0.64316 0.0
C424 C 0.01371 0.52666 0.6537 0.0
C425 C 0.95501 0.48682 0.64301 0.0
C426 C 0.98188 0.49601 0.64353 0.0
C427 C 0.05917 0.52454 0.64297 0.0
C428 C 0.03256 0.51467 0.64332 0.0
H429 H 0.92045 0.43187 0.64051 0.0
H430 H 0.96446 0.44657 0.64299 0.0
H431 H 0.97473 0.52698 0.66213 0.0
H432 H 0.09237 0.58023 0.63977 0.0
H433 H 0.04863 0.56446 0.6417 0.0
C434 C 0.45289 0.09025 0.14334 0.0
C435 C 0.47057 0.1103 0.14228 0.0
C436 C 0.4612 0.06492 0.14451 0.0
C437 C 0.51813 0.02508 0.15487 0.0
H438 H 0.48312 0.97446 0.1262 0.0
C439 C 0.55955 0.92432 0.14088 0.0
C440 C 0.54233 0.90379 0.14092 0.0
C441 C 0.55071 0.94945 0.14225 0.0
C442 C 0.49295 0.98828 0.13447 0.0
H443 H 0.51095 0.11932 0.14196 0.0
H444 H 0.52529 0.07543 0.14375 0.0
H445 H 0.46743 0.01811 0.12674 0.0
H446 H 0.5023 0.89373 0.14294 0.0
H447 H 0.48707 0.9373 0.14545 0.0
H448 H 0.54386 0.99521 0.16238 0.0
C449 C 0.50501 0.07918 0.14393 0.0
C450 C 0.4839 0.01333 0.1348 0.0
C451 C 0.49673 0.10442 0.14277 0.0
C452 C 0.51616 0.90901 0.14274 0.0
C453 C 0.50736 0.93405 0.14408 0.0
C454 C 0.52722 1.0 0.15449 0.0
C455 C 0.48739 0.05906 0.14465 0.0
C456 C 0.49642 0.03211 0.14495 0.0
C457 C 0.52446 0.95462 0.14365 0.0
C458 C 0.51478 0.9813 0.14425 0.0
H459 H 0.43261 0.09407 0.14305 0.0
H460 H 0.44709 0.04993 0.14529 0.0
H461 H 0.52805 0.03894 0.16304 0.0
H462 H 0.57982 0.92101 0.13948 0.0
H463 H 0.56439 0.96487 0.14175 0.0
C464 C 0.23139 0.50238 0.32414 0.0
C465 C 0.22609 0.52766 0.32911 0.0
C466 C 0.23742 0.49636 0.30639 0.0
C467 C 0.25449 0.52425 0.26196 0.0
H468 H 0.2167 0.46634 0.24376 0.0
C469 C 0.22886 0.51039 0.1872 0.0
C470 C 0.2269 0.48546 0.18046 0.0
C471 C 0.23467 0.5146 0.20525 0.0
C472 C 0.22784 0.48228 0.24861 0.0
H473 H 0.22442 0.56664 0.31952 0.0
H474 H 0.23455 0.55613 0.28858 0.0
H475 H 0.21648 0.47531 0.27564 0.0
H476 H 0.23133 0.44546 0.1871 0.0
H477 H 0.24188 0.45283 0.21846 0.0
H478 H 0.26514 0.53159 0.23471 0.0
C479 C 0.23432 0.54093 0.29838 0.0
C480 C 0.22772 0.48743 0.26696 0.0
C481 C 0.22838 0.54696 0.31615 0.0
C482 C 0.23247 0.46491 0.19189 0.0
C483 C 0.23835 0.46913 0.20991 0.0
C484 C 0.25459 0.51909 0.24354 0.0
C485 C 0.23819 0.51547 0.29317 0.0
C486 C 0.24071 0.5087 0.27386 0.0
C487 C 0.23872 0.49398 0.21695 0.0
C488 C 0.24094 0.49824 0.23662 0.0
H489 H 0.22997 0.48707 0.33382 0.0
H490 H 0.24078 0.47661 0.30291 0.0
H491 H 0.26498 0.5406 0.26684 0.0
H492 H 0.22466 0.52664 0.17876 0.0
H493 H 0.23462 0.53398 0.21022 0.0
C494 C 0.50413 0.22736 0.68699 0.0
C495 C 0.52904 0.22526 0.68023 0.0
C496 C 0.49998 0.23331 0.70503 0.0
C497 C 0.5323 0.22677 0.74842 0.0
H498 H 0.47424 0.26459 0.76642 0.0
C499 C 0.51223 0.23129 0.82392 0.0
C500 C 0.48693 0.22621 0.8289 0.0
C501 C 0.51829 0.23713 0.80614 0.0
C502 C 0.49052 0.25392 0.7616 0.0
H503 H 0.56906 0.22951 0.68682 0.0
H504 H 0.5618 0.24026 0.71816 0.0
H505 H 0.48323 0.26427 0.73429 0.0
H506 H 0.44794 0.22477 0.81931 0.0
H507 H 0.45852 0.23458 0.78833 0.0
H508 H 0.53921 0.2157 0.77551 0.0
C509 C 0.54548 0.23677 0.70963 0.0
C510 C 0.49566 0.25374 0.74319 0.0
C511 C 0.54963 0.23076 0.69162 0.0
C512 C 0.46764 0.22857 0.81593 0.0
C513 C 0.47371 0.23432 0.79814 0.0
C514 C 0.52716 0.22693 0.76677 0.0
C515 C 0.52064 0.23734 0.71669 0.0
C516 C 0.51642 0.23984 0.73635 0.0
C517 C 0.4992 0.23793 0.79291 0.0
C518 C 0.50599 0.24017 0.77359 0.0
H519 H 0.48785 0.22322 0.67857 0.0
H520 H 0.48061 0.23341 0.71002 0.0
H521 H 0.54816 0.21545 0.74363 0.0
H522 H 0.52753 0.22981 0.8336 0.0
H523 H 0.53806 0.24031 0.80265 0.0
C524 C 0.78627 0.54659 0.19274 0.0
C525 C 0.7884 0.52725 0.17979 0.0
C526 C 0.7806 0.5406 0.21056 0.0
C527 C 0.78767 0.48717 0.24201 0.0
H528 H 0.75029 0.53119 0.27441 0.0
C529 C 0.78284 0.46428 0.31707 0.0
C530 C 0.78823 0.48477 0.32859 0.0
C531 C 0.77713 0.46859 0.29903 0.0
C532 C 0.76084 0.51873 0.26553 0.0
H533 H 0.78454 0.48665 0.17518 0.0
H534 H 0.77422 0.47627 0.20617 0.0
H535 H 0.75029 0.54029 0.24229 0.0
H536 H 0.7904 0.52595 0.3304 0.0
H537 H 0.78074 0.53345 0.29891 0.0
H538 H 0.79884 0.46602 0.26516 0.0
C539 C 0.77749 0.49601 0.20264 0.0
C540 C 0.76085 0.52394 0.24713 0.0
C541 C 0.78324 0.50198 0.18484 0.0
C542 C 0.78633 0.50973 0.3219 0.0
C543 C 0.78069 0.51404 0.30383 0.0
C544 C 0.78765 0.48196 0.26035 0.0
C545 C 0.77687 0.51515 0.21584 0.0
C546 C 0.77458 0.50842 0.23517 0.0
C547 C 0.77676 0.49348 0.29206 0.0
C548 C 0.77455 0.49786 0.2724 0.0
H549 H 0.79013 0.56626 0.18931 0.0
H550 H 0.78047 0.55583 0.22035 0.0
H551 H 0.79888 0.47507 0.23329 0.0
H552 H 0.78394 0.44481 0.32182 0.0
H553 H 0.7737 0.45234 0.29042 0.0
C554 C 0.5044 0.7852 0.82201 0.0
C555 C 0.5293 0.78742 0.82877 0.0
C556 C 0.50026 0.77923 0.80398 0.0
C557 C 0.53252 0.78582 0.76055 0.0
H558 H 0.47452 0.74788 0.74263 0.0
C559 C 0.51222 0.78125 0.68508 0.0
C560 C 0.48689 0.78637 0.68015 0.0
C561 C 0.51835 0.77539 0.70285 0.0
C562 C 0.49078 0.75858 0.74743 0.0
H563 H 0.56934 0.78337 0.82216 0.0
H564 H 0.56211 0.77257 0.79082 0.0
H565 H 0.48359 0.74823 0.77475 0.0
H566 H 0.44795 0.78784 0.68982 0.0
H567 H 0.45865 0.77798 0.72077 0.0
H568 H 0.53933 0.79687 0.73345 0.0
C569 C 0.54578 0.77599 0.79935 0.0
C570 C 0.49598 0.75878 0.76583 0.0
C571 C 0.54991 0.78202 0.81736 0.0
C572 C 0.46766 0.78401 0.69316 0.0
C573 C 0.4738 0.77823 0.71093 0.0
C574 C 0.52734 0.78564 0.74221 0.0
C575 C 0.52094 0.77528 0.7923 0.0
C576 C 0.5167 0.77274 0.77265 0.0
C577 C 0.49932 0.7746 0.7161 0.0
C578 C 0.50618 0.77235 0.73541 0.0
H579 H 0.48809 0.78925 0.83043 0.0
H580 H 0.48089 0.77903 0.799 0.0
H581 H 0.54835 0.79718 0.76532 0.0
H582 H 0.52748 0.78273 0.67537 0.0
H583 H 0.53814 0.7722 0.70629 0.0
C584 C 0.78618 0.50394 0.82183 0.0
C585 C 0.78816 0.5289 0.82852 0.0
C586 C 0.78054 0.49965 0.80376 0.0
C587 C 0.78764 0.53167 0.76028 0.0
H588 H 0.75014 0.47346 0.74223 0.0
C589 C 0.78333 0.51146 0.68477 0.0
C590 C 0.78844 0.48616 0.67977 0.0
C591 C 0.77756 0.51751 0.70257 0.0
C592 C 0.76073 0.48977 0.74707 0.0
H593 H 0.78401 0.56888 0.82175 0.0
H594 H 0.77378 0.56138 0.79035 0.0
H595 H 0.75011 0.48262 0.77434 0.0
H596 H 0.79006 0.44717 0.68935 0.0
H597 H 0.78036 0.45774 0.72036 0.0
H598 H 0.79894 0.53846 0.73322 0.0
C599 C 0.77714 0.54512 0.79896 0.0
C600 C 0.76071 0.49502 0.76546 0.0
C601 C 0.78285 0.54941 0.817 0.0
C602 C 0.78624 0.46687 0.69275 0.0
C603 C 0.78055 0.47293 0.71055 0.0
C604 C 0.78768 0.52643 0.74194 0.0
C605 C 0.77669 0.52023 0.79198 0.0
C606 C 0.77447 0.51584 0.77232 0.0
C607 C 0.77686 0.49841 0.71579 0.0
C608 C 0.77454 0.50521 0.7351 0.0
H609 H 0.79018 0.48771 0.83034 0.0
H610 H 0.78053 0.48024 0.79884 0.0
H611 H 0.79886 0.54758 0.76508 0.0
H612 H 0.78469 0.52676 0.67509 0.0
H613 H 0.77432 0.53727 0.70606 0.0
C614 C 0.46772 0.78406 0.31585 0.0
C615 C 0.48695 0.78644 0.32885 0.0
C616 C 0.47387 0.77827 0.29808 0.0
C617 C 0.52739 0.7857 0.2668 0.0
H618 H 0.48366 0.74826 0.23426 0.0
C619 C 0.54994 0.78207 0.19165 0.0
C620 C 0.52932 0.78747 0.18025 0.0
C621 C 0.54582 0.77604 0.20966 0.0
C622 C 0.49604 0.75882 0.24318 0.0
H623 H 0.52753 0.78284 0.33364 0.0
H624 H 0.53821 0.7723 0.30272 0.0
H625 H 0.4746 0.74791 0.26638 0.0
H626 H 0.48812 0.78932 0.17859 0.0
H627 H 0.48093 0.77909 0.21002 0.0
H628 H 0.54839 0.79725 0.24369 0.0
C629 C 0.51842 0.77547 0.30617 0.0
C630 C 0.49085 0.75862 0.26159 0.0
C631 C 0.51228 0.78134 0.32393 0.0
C632 C 0.50443 0.78525 0.187 0.0
C633 C 0.5003 0.77928 0.20504 0.0
C634 C 0.53257 0.78588 0.24846 0.0
C635 C 0.49938 0.77465 0.2929 0.0
C636 C 0.50624 0.7724 0.2736 0.0
C637 C 0.52098 0.77533 0.21671 0.0
C638 C 0.51675 0.77279 0.23636 0.0
H639 H 0.448 0.78786 0.31918 0.0
H640 H 0.45872 0.77799 0.28823 0.0
H641 H 0.53938 0.79694 0.27556 0.0
H642 H 0.56937 0.78342 0.18684 0.0
H643 H 0.56216 0.77262 0.21818 0.0
C644 C 0.22885 0.51084 0.8216 0.0
C645 C 0.22692 0.48592 0.82835 0.0
C646 C 0.23466 0.51504 0.80354 0.0
C647 C 0.22787 0.48263 0.7602 0.0
H648 H 0.26495 0.54096 0.74194 0.0
C649 C 0.23139 0.5026 0.68466 0.0
C650 C 0.22607 0.52786 0.67967 0.0
C651 C 0.23742 0.49662 0.70242 0.0
C652 C 0.25448 0.52461 0.74683 0.0
H653 H 0.23142 0.44592 0.82174 0.0
H654 H 0.24196 0.45326 0.79038 0.0
H655 H 0.26512 0.53201 0.77407 0.0
H656 H 0.22438 0.56686 0.68923 0.0
H657 H 0.23451 0.55641 0.72018 0.0
H658 H 0.21651 0.4756 0.73319 0.0
C659 C 0.23841 0.46956 0.79892 0.0
C660 C 0.25458 0.51948 0.76525 0.0
C661 C 0.23253 0.46537 0.81694 0.0
C662 C 0.22835 0.54718 0.69262 0.0
C663 C 0.2343 0.5412 0.71039 0.0
C664 C 0.22774 0.48775 0.74185 0.0
C665 C 0.23874 0.4944 0.79186 0.0
C666 C 0.24096 0.49863 0.77218 0.0
C667 C 0.23818 0.51575 0.71562 0.0
C668 C 0.24071 0.50902 0.73494 0.0
H669 H 0.22462 0.5271 0.83003 0.0
H670 H 0.23458 0.53441 0.79856 0.0
H671 H 0.21674 0.4667 0.76507 0.0
H672 H 0.22998 0.48727 0.675 0.0
H673 H 0.2408 0.47688 0.70591 0.0
C674 C 0.50212 0.23048 0.32422 0.0
C675 C 0.52736 0.22514 0.32924 0.0
C676 C 0.49619 0.23653 0.30646 0.0
C677 C 0.52426 0.2536 0.26209 0.0
H678 H 0.46627 0.21604 0.2438 0.0
C679 C 0.51029 0.22837 0.18726 0.0
C680 C 0.48535 0.22654 0.18053 0.0
C681 C 0.51455 0.23408 0.20533 0.0
C682 C 0.48223 0.22712 0.24868 0.0
H683 H 0.56638 0.22342 0.31975 0.0
H684 H 0.55602 0.23358 0.28877 0.0
H685 H 0.4752 0.21568 0.27567 0.0
H686 H 0.44538 0.23108 0.18719 0.0
H687 H 0.45282 0.24144 0.21858 0.0
H688 H 0.53165 0.26434 0.23487 0.0
C689 C 0.54078 0.23337 0.29855 0.0
C690 C 0.48737 0.22691 0.26703 0.0
C691 C 0.54672 0.22741 0.31633 0.0
C692 C 0.46484 0.23212 0.19198 0.0
C693 C 0.46909 0.2379 0.21001 0.0
C694 C 0.51912 0.25379 0.24368 0.0
C695 C 0.51535 0.23728 0.29328 0.0
C696 C 0.50865 0.23983 0.27397 0.0
C697 C 0.49395 0.23813 0.21705 0.0
C698 C 0.49823 0.24024 0.23672 0.0
H699 H 0.48677 0.22908 0.33386 0.0
H700 H 0.47646 0.23993 0.30295 0.0
H701 H 0.54063 0.26403 0.267 0.0
H702 H 0.52652 0.22416 0.1788 0.0
H703 H 0.53393 0.23393 0.21029 0.0
C704 C 0.2086 0.43177 0.93828 0.0
C705 C 0.20999 0.45407 0.92791 0.0
C706 C 0.21189 0.43271 0.95679 0.0
C707 C 0.23434 0.47165 0.99499 0.0
H708 H 0.1837 0.43211 0.0206 0.0
C709 C 0.21614 0.47695 0.07239 0.0
C710 C 0.21002 0.4538 0.08086 0.0
C711 C 0.21931 0.47797 0.05373 0.0
C712 C 0.19821 0.44301 0.0137 0.0
H713 H 0.21732 0.4947 0.9288 0.0
H714 H 0.22278 0.49638 0.96141 0.0
H715 H 0.18369 0.43216 0.98813 0.0
H716 H 0.20436 0.41331 0.07656 0.0
H717 H 0.21029 0.41503 0.04434 0.0
H718 H 0.24866 0.48258 0.02086 0.0
C719 C 0.21928 0.47815 0.95508 0.0
C720 C 0.1982 0.44304 0.99505 0.0
C721 C 0.21611 0.47719 0.93643 0.0
C722 C 0.20864 0.43154 0.07045 0.0
C723 C 0.21193 0.43254 0.05194 0.0
C724 C 0.23435 0.47162 0.0138 0.0
C725 C 0.21645 0.45599 0.96551 0.0
C726 C 0.21646 0.45703 0.98543 0.0
C727 C 0.21648 0.45585 0.04327 0.0
C728 C 0.21647 0.45696 0.02335 0.0
H729 H 0.20431 0.41357 0.93214 0.0
H730 H 0.21025 0.41518 0.96436 0.0
H731 H 0.24865 0.48264 0.98796 0.0
H732 H 0.21734 0.49444 0.08004 0.0
H733 H 0.2228 0.49623 0.04744 0.0
C734 C 0.53583 0.21946 0.43623 0.0
C735 C 0.55901 0.21084 0.42896 0.0
C736 C 0.53383 0.22491 0.45456 0.0
C737 C 0.57253 0.23766 0.49527 0.0
H738 H 0.51668 0.20587 0.52084 0.0
C739 C 0.57971 0.20903 0.56904 0.0
C740 C 0.55828 0.21099 0.58025 0.0
C741 C 0.57792 0.21463 0.55082 0.0
C742 C 0.53213 0.21533 0.51391 0.0
H743 H 0.59848 0.2022 0.43514 0.0
H744 H 0.59499 0.21168 0.46687 0.0
H745 H 0.51686 0.20582 0.48814 0.0
H746 H 0.51824 0.22112 0.58112 0.0
H747 H 0.51509 0.23087 0.54909 0.0
H748 H 0.58824 0.24643 0.52099 0.0
C749 C 0.57836 0.21435 0.45849 0.0
C750 C 0.53223 0.2153 0.49515 0.0
C751 C 0.58031 0.20871 0.44028 0.0
C752 C 0.53511 0.21942 0.57285 0.0
C753 C 0.53327 0.22487 0.5545 0.0
C754 C 0.57242 0.23771 0.51398 0.0
C755 C 0.55504 0.22216 0.46592 0.0
C756 C 0.55284 0.22577 0.48563 0.0
C757 C 0.55463 0.22227 0.54325 0.0
C758 C 0.55262 0.22584 0.52353 0.0
H759 H 0.51906 0.22129 0.42787 0.0
H760 H 0.51564 0.23105 0.45988 0.0
H761 H 0.58843 0.24635 0.48833 0.0
H762 H 0.59788 0.20266 0.57427 0.0
H763 H 0.59466 0.21207 0.54253 0.0
C764 C 0.79314 0.53559 0.07267 0.0
C765 C 0.80168 0.55881 0.07992 0.0
C766 C 0.78763 0.53356 0.05434 0.0
C767 C 0.77459 0.57219 0.01364 0.0
H768 H 0.80666 0.51648 0.98803 0.0
C769 C 0.80326 0.57957 0.93989 0.0
C770 C 0.80143 0.55814 0.92867 0.0
C771 C 0.79762 0.57773 0.9581 0.0
C772 C 0.79712 0.53188 0.99498 0.0
H773 H 0.81012 0.59831 0.07371 0.0
H774 H 0.80055 0.59476 0.042 0.0
H775 H 0.80673 0.51665 0.02074 0.0
H776 H 0.79148 0.51807 0.92775 0.0
H777 H 0.78168 0.51483 0.95977 0.0
H778 H 0.76573 0.58787 0.98793 0.0
C779 C 0.79798 0.57813 0.05039 0.0
C780 C 0.79717 0.53198 0.01373 0.0
C781 C 0.80367 0.58011 0.06859 0.0
C782 C 0.79308 0.53494 0.93603 0.0
C783 C 0.7876 0.53304 0.95437 0.0
C784 C 0.77454 0.57209 0.99493 0.0
C785 C 0.79025 0.55477 0.04297 0.0
C786 C 0.7866 0.55254 0.02326 0.0
C787 C 0.79008 0.55439 0.96564 0.0
C788 C 0.7865 0.55235 0.98537 0.0
H789 H 0.79142 0.51882 0.08103 0.0
H790 H 0.78156 0.51534 0.04903 0.0
H791 H 0.76584 0.58805 0.02059 0.0
H792 H 0.80955 0.59777 0.93469 0.0
H793 H 0.80009 0.59447 0.96641 0.0
C794 C 0.47445 0.79689 0.57247 0.0
C795 C 0.45155 0.80383 0.58098 0.0
C796 C 0.47533 0.79377 0.55381 0.0
C797 C 0.4411 0.81622 0.51383 0.0
H798 H 0.47881 0.76433 0.48804 0.0
C799 C 0.42935 0.80615 0.4384 0.0
C800 C 0.45156 0.80388 0.42801 0.0
C801 C 0.43021 0.80291 0.45692 0.0
C802 C 0.46837 0.77904 0.49509 0.0
H803 H 0.4113 0.81104 0.57672 0.0
H804 H 0.41276 0.8052 0.54449 0.0
H805 H 0.47881 0.76432 0.52094 0.0
H806 H 0.4919 0.79504 0.42888 0.0
H807 H 0.49345 0.78965 0.46149 0.0
H808 H 0.43075 0.83115 0.48827 0.0
C809 C 0.4302 0.80287 0.55207 0.0
C810 C 0.46837 0.77903 0.51389 0.0
C811 C 0.42935 0.80611 0.57059 0.0
C812 C 0.47446 0.79695 0.43652 0.0
C813 C 0.47534 0.79381 0.45518 0.0
C814 C 0.4411 0.81623 0.49517 0.0
C815 C 0.45332 0.79747 0.54337 0.0
C816 C 0.4544 0.79745 0.52345 0.0
C817 C 0.45332 0.7975 0.46562 0.0
C818 C 0.4544 0.79747 0.48554 0.0
H819 H 0.49189 0.79497 0.58011 0.0
H820 H 0.49344 0.78961 0.5475 0.0
H821 H 0.43075 0.83113 0.52074 0.0
H822 H 0.41131 0.81108 0.43227 0.0
H823 H 0.41277 0.80522 0.4645 0.0
C824 C 0.22041 0.53746 0.43608 0.0
C825 C 0.21134 0.56041 0.42872 0.0
C826 C 0.22585 0.53569 0.45443 0.0
C827 C 0.23759 0.57497 0.49503 0.0
H828 H 0.20713 0.5185 0.52074 0.0
C829 C 0.20871 0.58179 0.5688 0.0
C830 C 0.21132 0.56047 0.58005 0.0
C831 C 0.21432 0.58006 0.55057 0.0
C832 C 0.21621 0.53414 0.51377 0.0
H833 H 0.20185 0.59973 0.43476 0.0
H834 H 0.21127 0.59665 0.46651 0.0
H835 H 0.20713 0.51849 0.48804 0.0
H836 H 0.2226 0.52074 0.581 0.0
H837 H 0.23234 0.51771 0.54897 0.0
H838 H 0.2459 0.59105 0.52072 0.0
C839 C 0.21433 0.58002 0.45819 0.0
C840 C 0.21622 0.53413 0.49501 0.0
C841 C 0.20872 0.58173 0.43996 0.0
C842 C 0.22039 0.53752 0.5727 0.0
C843 C 0.22583 0.53573 0.55435 0.0
C844 C 0.23759 0.57498 0.51374 0.0
C845 C 0.2226 0.55692 0.46572 0.0
C846 C 0.22621 0.55493 0.48544 0.0
C847 C 0.2226 0.55695 0.54305 0.0
C848 C 0.22621 0.55495 0.52333 0.0
H849 H 0.22262 0.52068 0.42778 0.0
H850 H 0.23235 0.51767 0.45982 0.0
H851 H 0.24591 0.59103 0.48805 0.0
H852 H 0.20183 0.59979 0.57399 0.0
H853 H 0.21127 0.59668 0.54224 0.0
C854 C 0.42971 0.20851 0.93848 0.0
C855 C 0.45198 0.21004 0.92811 0.0
C856 C 0.43064 0.2119 0.95699 0.0
C857 C 0.46968 0.23473 0.9951 0.0
H858 H 0.43034 0.18417 0.02093 0.0
C859 C 0.47592 0.21643 0.07242 0.0
C860 C 0.45287 0.21037 0.08104 0.0
C861 C 0.47669 0.21964 0.05376 0.0
C862 C 0.44118 0.19866 0.01397 0.0
H863 H 0.49255 0.2177 0.92896 0.0
H864 H 0.49423 0.22329 0.96154 0.0
H865 H 0.43012 0.18407 0.98847 0.0
H866 H 0.41231 0.20486 0.07702 0.0
H867 H 0.4136 0.21084 0.0448 0.0
H868 H 0.48087 0.24908 0.02089 0.0
C869 C 0.47601 0.21963 0.95524 0.0
C870 C 0.44105 0.19861 0.99531 0.0
C871 C 0.47506 0.21638 0.93659 0.0
C872 C 0.43046 0.20909 0.07079 0.0
C873 C 0.43121 0.21241 0.05228 0.0
C874 C 0.46982 0.23477 0.0139 0.0
C875 C 0.4539 0.21669 0.96569 0.0
C876 C 0.45499 0.21682 0.98561 0.0
C877 C 0.45441 0.21691 0.04345 0.0
C878 C 0.45526 0.21691 0.02353 0.0
H879 H 0.41154 0.20406 0.93236 0.0
H880 H 0.41313 0.21017 0.96457 0.0
H881 H 0.48062 0.24901 0.988 0.0
H882 H 0.49352 0.21756 0.07995 0.0
H883 H 0.49487 0.22309 0.04735 0.0
C884 C 0.80358 0.43351 0.43985 0.0
C885 C 0.80158 0.45496 0.42866 0.0
C886 C 0.79795 0.43526 0.45807 0.0
C887 C 0.79716 0.48102 0.49501 0.0
H888 H 0.76632 0.4246 0.52058 0.0
C889 C 0.7931 0.47726 0.57269 0.0
C890 C 0.80179 0.4541 0.57996 0.0
C891 C 0.78762 0.47926 0.55436 0.0
C892 C 0.77496 0.44053 0.51364 0.0
H893 H 0.79136 0.49498 0.42782 0.0
H894 H 0.78158 0.49806 0.45985 0.0
H895 H 0.76623 0.42482 0.48791 0.0
H896 H 0.81051 0.41465 0.57376 0.0
H897 H 0.80098 0.41812 0.54204 0.0
H898 H 0.80664 0.49629 0.52079 0.0
C899 C 0.78763 0.4799 0.45442 0.0
C900 C 0.77491 0.44066 0.49493 0.0
C901 C 0.79309 0.4781 0.43607 0.0
C902 C 0.80395 0.43281 0.56863 0.0
C903 C 0.79828 0.43474 0.55043 0.0
C904 C 0.7972 0.4809 0.51377 0.0
C905 C 0.79027 0.45853 0.46566 0.0
C906 C 0.7867 0.4605 0.48539 0.0
C907 C 0.79041 0.45805 0.54299 0.0
C908 C 0.78679 0.46025 0.52328 0.0
H909 H 0.80999 0.41536 0.43461 0.0
H910 H 0.80055 0.41851 0.46634 0.0
H911 H 0.80658 0.4965 0.48808 0.0
H912 H 0.79126 0.49403 0.58105 0.0
H913 H 0.78144 0.49743 0.54904 0.0
C914 C 0.57901 0.80375 0.0688 0.0
C915 C 0.55769 0.80193 0.08011 0.0
C916 C 0.57702 0.79806 0.0506 0.0
C917 C 0.53097 0.79755 0.01389 0.0
H918 H 0.58679 0.76583 0.98818 0.0
C919 C 0.53438 0.79352 0.93617 0.0
C920 C 0.55765 0.80188 0.92891 0.0
C921 C 0.53234 0.78802 0.9545 0.0
C922 C 0.57102 0.77471 0.99516 0.0
H923 H 0.51763 0.79199 0.0812 0.0
H924 H 0.51412 0.78213 0.0492 0.0
H925 H 0.5868 0.76585 0.02084 0.0
H926 H 0.59722 0.80999 0.93509 0.0
H927 H 0.59367 0.80044 0.96679 0.0
H928 H 0.51565 0.80719 0.98816 0.0
C929 C 0.53237 0.78806 0.05452 0.0
C930 C 0.57103 0.77472 0.01387 0.0
C931 C 0.53442 0.79357 0.07285 0.0
C932 C 0.57898 0.80369 0.94022 0.0
C933 C 0.577 0.79801 0.95842 0.0
C934 C 0.53096 0.79754 0.99513 0.0
C935 C 0.55362 0.7905 0.04316 0.0
C936 C 0.55142 0.78684 0.02346 0.0
C937 C 0.5536 0.79046 0.96586 0.0
C938 C 0.55141 0.78682 0.98556 0.0
H939 H 0.59726 0.81006 0.07392 0.0
H940 H 0.59369 0.80049 0.04222 0.0
H941 H 0.51566 0.8072 0.02087 0.0
H942 H 0.51758 0.79195 0.92782 0.0
H943 H 0.51409 0.7821 0.95983 0.0
C944 C 0.20383 0.3405 0.14075 0.0
C945 C 0.21054 0.36441 0.1478 0.0
C946 C 0.21969 0.31935 0.14327 0.0
C947 C 0.27558 0.29518 0.16911 0.0
H948 H 0.28804 0.25582 0.12606 0.0
C949 C 0.36578 0.23358 0.15843 0.0
C950 C 0.36386 0.21125 0.14811 0.0
C951 C 0.34462 0.24944 0.16086 0.0
C952 C 0.2845 0.26623 0.13833 0.0
H953 H 0.23856 0.38452 0.16379 0.0
H954 H 0.26627 0.34778 0.16803 0.0
H955 H 0.25529 0.28852 0.12598 0.0
H956 H 0.33777 0.18734 0.13312 0.0
H957 H 0.3008 0.21479 0.13758 0.0
H958 H 0.30536 0.27321 0.18128 0.0
C959 C 0.24866 0.34524 0.16068 0.0
C960 C 0.26565 0.28505 0.13829 0.0
C961 C 0.23279 0.36638 0.15818 0.0
C962 C 0.33996 0.20446 0.14107 0.0
C963 C 0.3188 0.22032 0.14351 0.0
C964 C 0.29448 0.27632 0.16915 0.0
C965 C 0.24265 0.3216 0.15287 0.0
C966 C 0.26116 0.30003 0.15359 0.0
C967 C 0.32101 0.24335 0.15304 0.0
C968 C 0.29942 0.26183 0.15367 0.0
H969 H 0.18676 0.33827 0.13275 0.0
H970 H 0.21422 0.30133 0.13733 0.0
H971 H 0.27241 0.3061 0.18122 0.0
H972 H 0.3839 0.2394 0.16403 0.0
H973 H 0.34713 0.2671 0.16815 0.0
C974 C 0.80946 0.33959 0.63871 0.0
C975 C 0.80273 0.36358 0.64563 0.0
C976 C 0.79354 0.31851 0.64121 0.0
C977 C 0.73742 0.29457 0.66683 0.0
H978 H 0.72532 0.2551 0.62377 0.0
C979 C 0.64753 0.23263 0.65604 0.0
C980 C 0.64956 0.21034 0.64569 0.0
C981 C 0.66861 0.24857 0.65849 0.0
C982 C 0.72876 0.26554 0.63605 0.0
H983 H 0.77459 0.38389 0.6614 0.0
H984 H 0.74675 0.34725 0.66562 0.0
H985 H 0.75801 0.28783 0.62378 0.0
H986 H 0.67576 0.18658 0.63067 0.0
H987 H 0.7126 0.21414 0.63518 0.0
H988 H 0.70764 0.27258 0.67893 0.0
C989 C 0.76443 0.34461 0.65838 0.0
C990 C 0.74757 0.28438 0.63605 0.0
C991 C 0.78037 0.36569 0.65589 0.0
C992 C 0.67348 0.20367 0.63863 0.0
C993 C 0.69458 0.21959 0.64111 0.0
C994 C 0.71857 0.27568 0.66683 0.0
C995 C 0.77048 0.3209 0.65067 0.0
C996 C 0.75194 0.29939 0.65135 0.0
C997 C 0.69226 0.24259 0.65067 0.0
C998 C 0.71377 0.26114 0.65135 0.0
H999 H 0.82662 0.33724 0.63082 0.0
H1000 H 0.79903 0.30044 0.63537 0.0
H1001 H 0.7405 0.30553 0.67893 0.0
H1002 H 0.62939 0.23836 0.66166 0.0
H1003 H 0.66601 0.26619 0.66581 0.0
C1004 C 0.80917 0.67367 0.13827 0.0
C1005 C 0.80247 0.64976 0.14531 0.0
C1006 C 0.79325 0.69479 0.1407 0.0
C1007 C 0.73728 0.71904 0.16635 0.0
H1008 H 0.72499 0.75819 0.12318 0.0
C1009 C 0.64741 0.7811 0.15562 0.0
C1010 C 0.64939 0.8033 0.14517 0.0
C1011 C 0.66849 0.76513 0.15806 0.0
C1012 C 0.72848 0.74784 0.13549 0.0
H1013 H 0.77437 0.62961 0.16121 0.0
H1014 H 0.74654 0.66632 0.16531 0.0
H1015 H 0.75764 0.72539 0.12322 0.0
H1016 H 0.6755 0.82687 0.12995 0.0
H1017 H 0.71234 0.79927 0.13444 0.0
H1018 H 0.7076 0.7412 0.17846 0.0
C1019 C 0.7642 0.66887 0.15803 0.0
C1020 C 0.74727 0.72896 0.13551 0.0
C1021 C 0.78013 0.64776 0.15561 0.0
C1022 C 0.67326 0.80985 0.138 0.0
C1023 C 0.69436 0.7939 0.14046 0.0
C1024 C 0.71846 0.73798 0.16634 0.0
C1025 C 0.77022 0.69251 0.15022 0.0
C1026 C 0.75171 0.71406 0.15086 0.0
C1027 C 0.69209 0.77099 0.15013 0.0
C1028 C 0.71358 0.7524 0.15081 0.0
H1029 H 0.8263 0.67594 0.13035 0.0
H1030 H 0.79873 0.71281 0.13478 0.0
H1031 H 0.74042 0.70817 0.17848 0.0
H1032 H 0.6293 0.77545 0.16133 0.0
H1033 H 0.66592 0.74758 0.16545 0.0
C1034 C 0.20358 0.67398 0.63988 0.0
C1035 C 0.21025 0.64981 0.64651 0.0
C1036 C 0.21957 0.69495 0.64263 0.0
C1037 C 0.27589 0.71797 0.66854 0.0
H1038 H 0.28778 0.75889 0.62613 0.0
C1039 C 0.36597 0.77988 0.65828 0.0
C1040 C 0.36385 0.8026 0.6484 0.0
C1041 C 0.34485 0.76394 0.6606 0.0
C1042 C 0.2844 0.74802 0.63824 0.0
H1043 H 0.23836 0.62905 0.66202 0.0
H1044 H 0.26631 0.66548 0.66666 0.0
H1045 H 0.255 0.72626 0.62569 0.0
H1046 H 0.33747 0.82708 0.63412 0.0
H1047 H 0.3006 0.79949 0.63839 0.0
H1048 H 0.30587 0.73942 0.68089 0.0
C1049 C 0.24863 0.66835 0.65946 0.0
C1050 C 0.26553 0.72925 0.63798 0.0
C1051 C 0.23262 0.64739 0.65673 0.0
C1052 C 0.33982 0.80966 0.64172 0.0
C1053 C 0.3187 0.79373 0.64405 0.0
C1054 C 0.29481 0.73678 0.66879 0.0
C1055 C 0.24263 0.69227 0.65206 0.0
C1056 C 0.26123 0.71373 0.65304 0.0
C1057 C 0.3211 0.77033 0.65311 0.0
C1058 C 0.29954 0.75183 0.65355 0.0
H1059 H 0.18643 0.67656 0.63202 0.0
H1060 H 0.2141 0.71319 0.63703 0.0
H1061 H 0.27287 0.70662 0.68046 0.0
H1062 H 0.38419 0.77383 0.66359 0.0
H1063 H 0.34749 0.74601 0.66752 0.0
C1064 C 0.36605 0.77986 0.35067 0.0
C1065 C 0.36389 0.80258 0.36055 0.0
C1066 C 0.34496 0.7639 0.34833 0.0
C1067 C 0.28448 0.74793 0.37064 0.0
H1068 H 0.27306 0.70651 0.3284 0.0
C1069 C 0.20368 0.67387 0.36889 0.0
C1070 C 0.21036 0.6497 0.36227 0.0
C1071 C 0.21967 0.69484 0.36616 0.0
C1072 C 0.27605 0.71786 0.34032 0.0
H1073 H 0.33747 0.82703 0.37481 0.0
H1074 H 0.30064 0.7994 0.37051 0.0
H1075 H 0.30604 0.73933 0.328 0.0
H1076 H 0.23852 0.62893 0.3468 0.0
H1077 H 0.26647 0.66536 0.34219 0.0
H1078 H 0.25506 0.72615 0.38315 0.0
C1079 C 0.31876 0.79366 0.36486 0.0
C1080 C 0.29496 0.73669 0.3401 0.0
C1081 C 0.33985 0.80962 0.36721 0.0
C1082 C 0.23276 0.64728 0.35208 0.0
C1083 C 0.24877 0.66824 0.34937 0.0
C1084 C 0.26562 0.72914 0.37087 0.0
C1085 C 0.32119 0.77027 0.35581 0.0
C1086 C 0.29964 0.75175 0.35534 0.0
C1087 C 0.24276 0.69216 0.35676 0.0
C1088 C 0.26136 0.71362 0.35581 0.0
H1089 H 0.38429 0.77383 0.34537 0.0
H1090 H 0.34763 0.74597 0.34141 0.0
H1091 H 0.28782 0.7588 0.38274 0.0
H1092 H 0.18651 0.67645 0.37672 0.0
H1093 H 0.21419 0.71308 0.37175 0.0
C1094 C 0.36596 0.23395 0.85058 0.0
C1095 C 0.36378 0.21145 0.86069 0.0
C1096 C 0.34489 0.24992 0.84809 0.0
C1097 C 0.28446 0.26656 0.87024 0.0
H1098 H 0.27305 0.30699 0.82752 0.0
C1099 C 0.20392 0.34094 0.86773 0.0
C1100 C 0.2107 0.36492 0.86083 0.0
C1101 C 0.2198 0.31981 0.8652 0.0
C1102 C 0.27604 0.29591 0.83958 0.0
H1103 H 0.33733 0.18739 0.87523 0.0
H1104 H 0.30054 0.21504 0.87068 0.0
H1105 H 0.30598 0.27407 0.82749 0.0
H1106 H 0.2389 0.38516 0.84508 0.0
H1107 H 0.26665 0.34847 0.84084 0.0
H1108 H 0.2551 0.28872 0.88251 0.0
C1109 C 0.31866 0.2206 0.86495 0.0
C1110 C 0.29492 0.27703 0.83956 0.0
C1111 C 0.33973 0.20464 0.86745 0.0
C1112 C 0.23307 0.36697 0.85058 0.0
C1113 C 0.24897 0.34586 0.84807 0.0
C1114 C 0.26564 0.2854 0.87026 0.0
C1115 C 0.32112 0.24378 0.85565 0.0
C1116 C 0.2996 0.26234 0.85497 0.0
C1117 C 0.24287 0.32215 0.85574 0.0
C1118 C 0.26138 0.30058 0.85502 0.0
H1119 H 0.3842 0.2398 0.84519 0.0
H1120 H 0.34758 0.26769 0.84097 0.0
H1121 H 0.2878 0.25597 0.88246 0.0
H1122 H 0.18676 0.33865 0.87563 0.0
H1123 H 0.21425 0.30175 0.87102 0.0
C1124 C 0.64747 0.23283 0.35302 0.0
C1125 C 0.64964 0.21046 0.36327 0.0
C1126 C 0.66851 0.24882 0.35053 0.0
C1127 C 0.72874 0.26577 0.37283 0.0
H1128 H 0.7404 0.30577 0.32995 0.0
C1129 C 0.80933 0.33997 0.3702 0.0
C1130 C 0.80262 0.3639 0.36317 0.0
C1131 C 0.79343 0.31886 0.36773 0.0
C1132 C 0.73734 0.29481 0.34205 0.0
H1133 H 0.67602 0.18661 0.37806 0.0
H1134 H 0.71277 0.21427 0.37351 0.0
H1135 H 0.70751 0.27284 0.32997 0.0
H1136 H 0.77455 0.38407 0.34725 0.0
H1137 H 0.74675 0.3474 0.34309 0.0
H1138 H 0.758 0.28806 0.38509 0.0
C1139 C 0.69468 0.21974 0.36768 0.0
C1140 C 0.71848 0.27593 0.34206 0.0
C1141 C 0.67364 0.20377 0.37018 0.0
C1142 C 0.78031 0.36592 0.35284 0.0
C1143 C 0.7644 0.34482 0.35039 0.0
C1144 C 0.74754 0.28462 0.37282 0.0
C1145 C 0.69224 0.24281 0.35823 0.0
C1146 C 0.71372 0.26139 0.35754 0.0
C1147 C 0.77042 0.32116 0.35819 0.0
C1148 C 0.75189 0.29963 0.35752 0.0
H1149 H 0.62926 0.23858 0.34751 0.0
H1150 H 0.66584 0.2665 0.3433 0.0
H1151 H 0.72533 0.25531 0.3851 0.0
H1152 H 0.82644 0.3377 0.37815 0.0
H1153 H 0.79892 0.30083 0.37363 0.0
C1154 C 0.78024 0.64802 0.85315 0.0
C1155 C 0.80244 0.64983 0.86362 0.0
C1156 C 0.76437 0.66919 0.85079 0.0
C1157 C 0.74722 0.72899 0.87364 0.0
H1158 H 0.70801 0.74175 0.83055 0.0
C1159 C 0.67324 0.80992 0.87121 0.0
C1160 C 0.64943 0.80341 0.86392 0.0
C1161 C 0.69436 0.794 0.86876 0.0
C1162 C 0.71874 0.73839 0.84271 0.0
H1163 H 0.82609 0.67572 0.87897 0.0
H1164 H 0.79863 0.7127 0.87463 0.0
H1165 H 0.74084 0.70875 0.83049 0.0
H1166 H 0.62948 0.77569 0.84756 0.0
H1167 H 0.66616 0.74788 0.84345 0.0
H1168 H 0.7248 0.75807 0.88602 0.0
C1169 C 0.79321 0.69479 0.86853 0.0
C1170 C 0.73757 0.71946 0.84268 0.0
C1171 C 0.80907 0.67362 0.8709 0.0
C1172 C 0.64754 0.7813 0.85336 0.0
C1173 C 0.66865 0.76537 0.85093 0.0
C1174 C 0.72843 0.74787 0.87368 0.0
C1175 C 0.77031 0.6927 0.85883 0.0
C1176 C 0.75183 0.71428 0.85822 0.0
C1177 C 0.69218 0.77118 0.85898 0.0
C1178 C 0.71369 0.75261 0.85829 0.0
H1179 H 0.77454 0.62998 0.84736 0.0
H1180 H 0.74681 0.66677 0.84337 0.0
H1181 H 0.75745 0.72526 0.88596 0.0
H1182 H 0.67541 0.82687 0.87934 0.0
H1183 H 0.7123 0.79932 0.87487 0.0
loop_
_geom_bond_atom_site_label_1
_geom_bond_atom_site_label_2
_geom_bond_distance
_geom_bond_site_symmetry_2
_ccdc_geom_bond_type
O0 Cd1 2.223 . S
O0 C8 1.315 . S
Cd1 O0 2.223 . S
Cd1 O4 2.297 . S
Cd1 O5 2.439 . S
Cd1 O11 2.240 . S
Cd2 O3 2.240 . S
Cd2 O10 2.223 . S
Cd2 O12 2.297 . S
Cd2 O13 2.439 . S
O3 Cd2 2.240 . S
O3 C8 1.279 . S
O4 Cd1 2.297 . S
O4 C6 1.247 . S
O5 Cd1 2.439 . S
O5 C6 1.208 . S
C6 O4 1.247 . S
C6 O5 1.208 . S
C7 O12 1.247 . S
C7 O13 1.208 . S
C8 O0 1.315 . S
C8 O3 1.279 . S
C9 O10 1.315 . S
C9 O11 1.279 . S
O10 Cd2 2.223 . S
O10 C9 1.315 . S
O11 Cd1 2.240 . S
O11 C9 1.279 . S
O12 Cd2 2.297 . S
O12 C7 1.247 . S
O13 Cd2 2.439 . S
O13 C7 1.208 . S
O14 Cd15 2.223 . S
O14 C22 1.315 . S
Cd15 O14 2.223 . S
Cd15 O18 2.297 . S
Cd15 O19 2.439 . S
Cd15 O25 2.240 . S
Cd16 O17 2.240 . S
Cd16 O24 2.223 . S
Cd16 O26 2.297 . S
Cd16 O27 2.439 . S
O17 Cd16 2.240 . S
O17 C22 1.279 . S
O18 Cd15 2.297 . S
O18 C20 1.247 . S
O19 Cd15 2.439 . S
O19 C20 1.208 . S
C20 O18 1.247 . S
C20 O19 1.208 . S
C21 O26 1.247 . S
C21 O27 1.208 . S
C22 O14 1.315 . S
C22 O17 1.279 . S
C23 O24 1.315 . S
C23 O25 1.279 . S
O24 Cd16 2.223 . S
O24 C23 1.315 . S
O25 Cd15 2.240 . S
O25 C23 1.279 . S
O26 Cd16 2.297 . S
O26 C21 1.247 . S
O27 Cd16 2.439 . S
O27 C21 1.208 . S
O28 Cd29 2.223 . S
O28 C36 1.315 . S
Cd29 O28 2.223 . S
Cd29 O32 2.297 . S
Cd29 O33 2.439 . S
Cd29 O39 2.240 . S
Cd30 O31 2.240 . S
Cd30 O38 2.223 . S
Cd30 O40 2.297 . S
Cd30 O41 2.439 . S
O31 Cd30 2.240 . S
O31 C36 1.279 . S
O32 Cd29 2.297 . S
O32 C34 1.247 . S
O33 Cd29 2.439 . S
O33 C34 1.208 . S
C34 O32 1.247 . S
C34 O33 1.208 . S
C35 O40 1.247 . S
C35 O41 1.208 . S
C36 O28 1.315 . S
C36 O31 1.279 . S
C37 O38 1.315 . S
C37 O39 1.279 . S
O38 Cd30 2.223 . S
O38 C37 1.315 . S
O39 Cd29 2.240 . S
O39 C37 1.279 . S
O40 Cd30 2.297 . S
O40 C35 1.247 . S
O41 Cd30 2.439 . S
O41 C35 1.208 . S
O42 Cd43 2.223 . S
O42 C50 1.315 . S
Cd43 O42 2.223 . S
Cd43 O46 2.297 . S
Cd43 O47 2.439 . S
Cd43 O53 2.240 . S
Cd44 O45 2.240 . S
Cd44 O52 2.223 . S
Cd44 O54 2.297 . S
Cd44 O55 2.439 . S
O45 Cd44 2.240 . S
O45 C50 1.279 . S
O46 Cd43 2.297 . S
O46 C48 1.247 . S
O47 Cd43 2.439 . S
O47 C48 1.208 . S
C48 O46 1.247 . S
C48 O47 1.208 . S
C49 O54 1.247 . S
C49 O55 1.208 . S
C50 O42 1.315 . S
C50 O45 1.279 . S
C51 O52 1.315 . S
C51 O53 1.279 . S
O52 Cd44 2.223 . S
O52 C51 1.315 . S
O53 Cd43 2.240 . S
O53 C51 1.279 . S
O54 Cd44 2.297 . S
O54 C49 1.247 . S
O55 Cd44 2.439 . S
O55 C49 1.208 . S
O56 Cd57 2.223 . S
O56 C64 1.315 . S
Cd57 O56 2.223 . S
Cd57 O60 2.297 . S
Cd57 O61 2.439 . S
Cd57 O67 2.240 . S
Cd58 O59 2.240 . S
Cd58 O66 2.223 . S
Cd58 O68 2.297 . S
Cd58 O69 2.439 . S
O59 Cd58 2.240 . S
O59 C64 1.279 . S
O60 Cd57 2.297 . S
O60 C62 1.247 . S
O61 Cd57 2.439 . S
O61 C62 1.208 . S
C62 O60 1.247 . S
C62 O61 1.208 . S
C63 O68 1.247 . S
C63 O69 1.208 . S
C64 O56 1.315 . S
C64 O59 1.279 . S
C65 O66 1.315 . S
C65 O67 1.279 . S
O66 Cd58 2.223 . S
O66 C65 1.315 . S
O67 Cd57 2.240 . S
O67 C65 1.279 . S
O68 Cd58 2.297 . S
O68 C63 1.247 . S
O69 Cd58 2.439 . S
O69 C63 1.208 . S
O70 Cd71 2.223 . S
O70 C78 1.315 . S
Cd71 O70 2.223 . S
Cd71 O74 2.297 . S
Cd71 O75 2.439 . S
Cd71 O81 2.240 . S
Cd72 O73 2.240 . S
Cd72 O80 2.223 . S
Cd72 O82 2.297 . S
Cd72 O83 2.439 . S
O73 Cd72 2.240 . S
O73 C78 1.279 . S
O74 Cd71 2.297 . S
O74 C76 1.247 . S
O75 Cd71 2.439 . S
O75 C76 1.208 . S
C76 O74 1.247 . S
C76 O75 1.208 . S
C77 O82 1.247 . S
C77 O83 1.208 . S
C78 O70 1.315 . S
C78 O73 1.279 . S
C79 O80 1.315 . S
C79 O81 1.279 . S
O80 Cd72 2.223 . S
O80 C79 1.315 . S
O81 Cd71 2.240 . S
O81 C79 1.279 . S
O82 Cd72 2.297 . S
O82 C77 1.247 . S
O83 Cd72 2.439 . S
O83 C77 1.208 . S
O84 Cd85 2.223 . S
O84 C92 1.315 . S
Cd85 O84 2.223 . S
Cd85 O88 2.297 . S
Cd85 O89 2.439 . S
Cd85 O95 2.240 . S
Cd86 O87 2.240 . S
Cd86 O94 2.223 . S
Cd86 O96 2.297 . S
Cd86 O97 2.439 . S
O87 Cd86 2.240 . S
O87 C92 1.279 . S
O88 Cd85 2.297 . S
O88 C90 1.247 . S
O89 Cd85 2.439 . S
O89 C90 1.208 . S
C90 O88 1.247 . S
C90 O89 1.208 . S
C91 O96 1.247 . S
C91 O97 1.208 . S
C92 O84 1.315 . S
C92 O87 1.279 . S
C93 O94 1.315 . S
C93 O95 1.279 . S
O94 Cd86 2.223 . S
O94 C93 1.315 . S
O95 Cd85 2.240 . S
O95 C93 1.279 . S
O96 Cd86 2.297 . S
O96 C91 1.247 . S
O97 Cd86 2.439 . S
O97 C91 1.208 . S
O98 Cd99 2.223 . S
O98 C106 1.315 . S
Cd99 O98 2.223 . S
Cd99 O102 2.297 . S
Cd99 O103 2.439 . S
Cd99 O109 2.240 . S
Cd100 O101 2.240 . S
Cd100 O108 2.223 . S
Cd100 O110 2.297 . S
Cd100 O111 2.439 . S
O101 Cd100 2.240 . S
O101 C106 1.279 . S
O102 Cd99 2.297 . S
O102 C104 1.247 . S
O103 Cd99 2.439 . S
O103 C104 1.208 . S
C104 O102 1.247 . S
C104 O103 1.208 . S
C105 O110 1.247 . S
C105 O111 1.208 . S
C106 O98 1.315 . S
C106 O101 1.279 . S
C107 O108 1.315 . S
C107 O109 1.279 . S
O108 Cd100 2.223 . S
O108 C107 1.315 . S
O109 Cd99 2.240 . S
O109 C107 1.279 . S
O110 Cd100 2.297 . S
O110 C105 1.247 . S
O111 Cd100 2.439 . S
O111 C105 1.208 . S
O112 Cd113 2.223 . S
O112 C120 1.315 . S
Cd113 O112 2.223 . S
Cd113 O116 2.297 . S
Cd113 O117 2.439 . S
Cd113 O123 2.240 . S
Cd114 O115 2.240 . S
Cd114 O122 2.223 . S
Cd114 O124 2.297 . S
Cd114 O125 2.439 . S
O115 Cd114 2.240 . S
O115 C120 1.279 . S
O116 Cd113 2.297 . S
O116 C118 1.247 . S
O117 Cd113 2.439 . S
O117 C118 1.208 . S
C118 O116 1.247 . S
C118 O117 1.208 . S
C119 O124 1.247 . S
C119 O125 1.208 . S
C120 O112 1.315 . S
C120 O115 1.279 . S
C121 O122 1.315 . S
C121 O123 1.279 . S
O122 Cd114 2.223 . S
O122 C121 1.315 . S
O123 Cd113 2.240 . S
O123 C121 1.279 . S
O124 Cd114 2.297 . S
O124 C119 1.247 . S
O125 Cd114 2.439 . S
O125 C119 1.208 . S
O126 Cd127 2.223 . S
O126 C134 1.315 . S
Cd127 O126 2.223 . S
Cd127 O130 2.297 . S
Cd127 O131 2.439 . S
Cd127 O137 2.240 . S
Cd128 O129 2.240 . S
Cd128 O136 2.223 . S
Cd128 O138 2.297 . S
Cd128 O139 2.439 . S
O129 Cd128 2.240 . S
O129 C134 1.279 . S
O130 Cd127 2.297 . S
O130 C132 1.247 . S
O131 Cd127 2.439 . S
O131 C132 1.208 . S
C132 O130 1.247 . S
C132 O131 1.208 . S
C133 O138 1.247 . S
C133 O139 1.208 . S
C134 O126 1.315 . S
C134 O129 1.279 . S
C135 O136 1.315 . S
C135 O137 1.279 . S
O136 Cd128 2.223 . S
O136 C135 1.315 . S
O137 Cd127 2.240 . S
O137 C135 1.279 . S
O138 Cd128 2.297 . S
O138 C133 1.247 . S
O139 Cd128 2.439 . S
O139 C133 1.208 . S
O140 Cd141 2.223 . S
O140 C148 1.315 . S
Cd141 O140 2.223 . S
Cd141 O144 2.297 . S
Cd141 O145 2.439 . S
Cd141 O151 2.240 . S
Cd142 O143 2.240 . S
Cd142 O150 2.223 . S
Cd142 O152 2.297 . S
Cd142 O153 2.439 . S
O143 Cd142 2.240 . S
O143 C148 1.279 . S
O144 Cd141 2.297 . S
O144 C146 1.247 . S
O145 Cd141 2.439 . S
O145 C146 1.208 . S
C146 O144 1.247 . S
C146 O145 1.208 . S
C147 O152 1.247 . S
C147 O153 1.208 . S
C148 O140 1.315 . S
C148 O143 1.279 . S
C149 O150 1.315 . S
C149 O151 1.279 . S
O150 Cd142 2.223 . S
O150 C149 1.315 . S
O151 Cd141 2.240 . S
O151 C149 1.279 . S
O152 Cd142 2.297 . S
O152 C147 1.247 . S
O153 Cd142 2.439 . S
O153 C147 1.208 . S
O154 Cd155 2.223 . S
O154 C162 1.315 . S
Cd155 O154 2.223 . S
Cd155 O158 2.297 . S
Cd155 O159 2.439 . S
Cd155 O165 2.240 . S
Cd156 O157 2.240 . S
Cd156 O164 2.223 . S
Cd156 O166 2.297 . S
Cd156 O167 2.439 . S
O157 Cd156 2.240 . S
O157 C162 1.279 . S
O158 Cd155 2.297 . S
O158 C160 1.247 . S
O159 Cd155 2.439 . S
O159 C160 1.208 . S
C160 O158 1.247 . S
C160 O159 1.208 . S
C161 O166 1.247 . S
C161 O167 1.208 . S
C162 O154 1.315 . S
C162 O157 1.279 . S
C163 O164 1.315 . S
C163 O165 1.279 . S
O164 Cd156 2.223 . S
O164 C163 1.315 . S
O165 Cd155 2.240 . S
O165 C163 1.279 . S
O166 Cd156 2.297 . S
O166 C161 1.247 . S
O167 Cd156 2.439 . S
O167 C161 1.208 . S
O168 Cd169 2.223 . S
O168 C176 1.315 . S
Cd169 O168 2.223 . S
Cd169 O172 2.297 . S
Cd169 O173 2.439 . S
Cd169 O179 2.240 . S
Cd170 O171 2.240 . S
Cd170 O178 2.223 . S
Cd170 O180 2.297 . S
Cd170 O181 2.439 . S
O171 Cd170 2.240 . S
O171 C176 1.279 . S
O172 Cd169 2.297 . S
O172 C174 1.247 . S
O173 Cd169 2.439 . S
O173 C174 1.208 . S
C174 O172 1.247 . S
C174 O173 1.208 . S
C175 O180 1.247 . S
C175 O181 1.208 . S
C176 O168 1.315 . S
C176 O171 1.279 . S
C177 O178 1.315 . S
C177 O179 1.279 . S
O178 Cd170 2.223 . S
O178 C177 1.315 . S
O179 Cd169 2.240 . S
O179 C177 1.279 . S
O180 Cd170 2.297 . S
O180 C175 1.247 . S
O181 Cd170 2.439 . S
O181 C175 1.208 . S
O182 Cd183 2.223 . S
O182 C190 1.315 . S
Cd183 O182 2.223 . S
Cd183 O186 2.297 . S
Cd183 O187 2.439 . S
Cd183 O193 2.240 . S
Cd184 O185 2.240 . S
Cd184 O192 2.223 . S
Cd184 O194 2.297 . S
Cd184 O195 2.439 . S
O185 Cd184 2.240 . S
O185 C190 1.279 . S
O186 Cd183 2.297 . S
O186 C188 1.247 . S
O187 Cd183 2.439 . S
O187 C188 1.208 . S
C188 O186 1.247 . S
C188 O187 1.208 . S
C189 O194 1.247 . S
C189 O195 1.208 . S
C190 O182 1.315 . S
C190 O185 1.279 . S
C191 O192 1.315 . S
C191 O193 1.279 . S
O192 Cd184 2.223 . S
O192 C191 1.315 . S
O193 Cd183 2.240 . S
O193 C191 1.279 . S
O194 Cd184 2.297 . S
O194 C189 1.247 . S
O195 Cd184 2.439 . S
O195 C189 1.208 . S
O196 Cd197 2.223 . S
O196 C204 1.315 . S
Cd197 O196 2.223 . S
Cd197 O200 2.297 . S
Cd197 O201 2.439 . S
Cd197 O207 2.240 . S
Cd198 O199 2.240 . S
Cd198 O206 2.223 . S
Cd198 O208 2.297 . S
Cd198 O209 2.439 . S
O199 Cd198 2.240 . S
O199 C204 1.279 . S
O200 Cd197 2.297 . S
O200 C202 1.247 . S
O201 Cd197 2.439 . S
O201 C202 1.208 . S
C202 O200 1.247 . S
C202 O201 1.208 . S
C203 O208 1.247 . S
C203 O209 1.208 . S
C204 O196 1.315 . S
C204 O199 1.279 . S
C205 O206 1.315 . S
C205 O207 1.279 . S
O206 Cd198 2.223 . S
O206 C205 1.315 . S
O207 Cd197 2.240 . S
O207 C205 1.279 . S
O208 Cd198 2.297 . S
O208 C203 1.247 . S
O209 Cd198 2.439 . S
O209 C203 1.208 . S
O210 Cd211 2.223 . S
O210 C218 1.315 . S
Cd211 O210 2.223 . S
Cd211 O214 2.297 . S
Cd211 O215 2.439 . S
Cd211 O221 2.240 . S
Cd212 O213 2.240 . S
Cd212 O220 2.223 . S
Cd212 O222 2.297 . S
Cd212 O223 2.439 . S
O213 Cd212 2.240 . S
O213 C218 1.279 . S
O214 Cd211 2.297 . S
O214 C216 1.247 . S
O215 Cd211 2.439 . S
O215 C216 1.208 . S
C216 O214 1.247 . S
C216 O215 1.208 . S
C217 O222 1.247 . S
C217 O223 1.208 . S
C218 O210 1.315 . S
C218 O213 1.279 . S
C219 O220 1.315 . S
C219 O221 1.279 . S
O220 Cd212 2.223 . S
O220 C219 1.315 . S
O221 Cd211 2.240 . S
O221 C219 1.279 . S
O222 Cd212 2.297 . S
O222 C217 1.247 . S
O223 Cd212 2.439 . S
O223 C217 1.208 . S
C224 C225 1.349 . S
C224 C226 1.327 . S
C224 H249 0.950 . S
C225 C224 1.349 . S
C225 C241 1.349 . S
C226 C224 1.327 . S
C226 C245 1.429 . S
C226 H250 0.950 . S
C227 C244 1.574 1_455 S
C227 C246 1.368 . S
C227 H251 0.949 . S
H228 C232 0.949 . S
C229 C230 1.349 . S
C229 C231 1.327 . S
C229 H252 0.950 . S
C230 C229 1.349 . S
C230 C242 1.349 . S
C231 C229 1.327 . S
C231 C247 1.429 . S
C231 H253 0.950 . S
C232 H228 0.949 . S
C232 C240 1.574 1_655 S
C232 C248 1.368 . S
H233 C241 0.950 . S
H234 C239 0.950 . S
H235 C240 0.949 . S
H236 C242 0.950 . S
H237 C243 0.950 . S
H238 C244 0.949 . S
C239 H234 0.950 . S
C239 C241 1.327 . S
C239 C245 1.429 . S
C240 C232 1.574 1_455 S
C240 H235 0.949 . S
C240 C246 1.368 . S
C241 C225 1.349 . S
C241 H233 0.950 . S
C241 C239 1.327 . S
C242 C230 1.349 . S
C242 H236 0.950 . S
C242 C243 1.327 . S
C243 H237 0.950 . S
C243 C242 1.327 . S
C243 C247 1.429 . S
C244 C227 1.574 1_655 S
C244 H238 0.949 . S
C244 C248 1.368 . S
C245 C226 1.429 . S
C245 C239 1.429 . S
C245 C246 1.523 . S
C246 C227 1.368 . S
C246 C240 1.368 . S
C246 C245 1.523 . S
C247 C231 1.429 . S
C247 C243 1.429 . S
C247 C248 1.523 . S
C248 C232 1.368 . S
C248 C244 1.368 . S
C248 C247 1.523 . S
H249 C224 0.950 . S
H250 C226 0.950 . S
H251 C227 0.949 . S
H252 C229 0.950 . S
H253 C231 0.950 . S
C254 C255 1.349 . S
C254 C256 1.327 . S
C254 H279 0.950 . S
C255 C254 1.349 . S
C255 C271 1.349 . S
C256 C254 1.327 . S
C256 C275 1.429 . S
C256 H280 0.950 . S
C257 C274 1.574 1_565 S
C257 C276 1.368 . S
C257 H281 0.949 . S
H258 C262 0.949 . S
C259 C260 1.349 . S
C259 C261 1.327 . S
C259 H282 0.950 . S
C260 C259 1.349 . S
C260 C272 1.349 . S
C261 C259 1.327 . S
C261 C277 1.429 . S
C261 H283 0.950 . S
C262 H258 0.949 . S
C262 C270 1.574 1_545 S
C262 C278 1.368 . S
H263 C271 0.950 . S
H264 C269 0.950 . S
H265 C270 0.949 . S
H266 C272 0.950 . S
H267 C273 0.950 . S
H268 C274 0.949 . S
C269 H264 0.950 . S
C269 C271 1.327 . S
C269 C275 1.429 . S
C270 C262 1.574 1_565 S
C270 H265 0.949 . S
C270 C276 1.368 . S
C271 C255 1.349 . S
C271 H263 0.950 . S
C271 C269 1.327 . S
C272 C260 1.349 . S
C272 H266 0.950 . S
C272 C273 1.327 . S
C273 H267 0.950 . S
C273 C272 1.327 . S
C273 C277 1.429 . S
C274 C257 1.574 1_545 S
C274 H268 0.949 . S
C274 C278 1.368 . S
C275 C256 1.429 . S
C275 C269 1.429 . S
C275 C276 1.523 . S
C276 C257 1.368 . S
C276 C270 1.368 . S
C276 C275 1.523 . S
C277 C261 1.429 . S
C277 C273 1.429 . S
C277 C278 1.523 . S
C278 C262 1.368 . S
C278 C274 1.368 . S
C278 C277 1.523 . S
H279 C254 0.950 . S
H280 C256 0.950 . S
H281 C257 0.949 . S
H282 C259 0.950 . S
H283 C261 0.950 . S
C284 C285 1.349 . S
C284 C286 1.327 . S
C284 H309 0.950 . S
C285 C284 1.349 . S
C285 C301 1.349 . S
C286 C284 1.327 . S
C286 C305 1.429 . S
C286 H310 0.950 . S
C287 C304 1.574 1_455 S
C287 C306 1.368 . S
C287 H311 0.949 . S
H288 C292 0.949 . S
C289 C290 1.349 . S
C289 C291 1.327 . S
C289 H312 0.950 . S
C290 C289 1.349 . S
C290 C302 1.349 . S
C291 C289 1.327 . S
C291 C307 1.429 . S
C291 H313 0.950 . S
C292 H288 0.949 . S
C292 C300 1.574 1_655 S
C292 C308 1.368 . S
H293 C301 0.950 . S
H294 C299 0.950 . S
H295 C300 0.949 . S
H296 C302 0.950 . S
H297 C303 0.950 . S
H298 C304 0.949 . S
C299 H294 0.950 . S
C299 C301 1.327 . S
C299 C305 1.429 . S
C300 C292 1.574 1_455 S
C300 H295 0.949 . S
C300 C306 1.368 . S
C301 C285 1.349 . S
C301 H293 0.950 . S
C301 C299 1.327 . S
C302 C290 1.349 . S
C302 H296 0.950 . S
C302 C303 1.327 . S
C303 H297 0.950 . S
C303 C302 1.327 . S
C303 C307 1.429 . S
C304 C287 1.574 1_655 S
C304 H298 0.949 . S
C304 C308 1.368 . S
C305 C286 1.429 . S
C305 C299 1.429 . S
C305 C306 1.523 . S
C306 C287 1.368 . S
C306 C300 1.368 . S
C306 C305 1.523 . S
C307 C291 1.429 . S
C307 C303 1.429 . S
C307 C308 1.523 . S
C308 C292 1.368 . S
C308 C304 1.368 . S
C308 C307 1.523 . S
H309 C284 0.950 . S
H310 C286 0.950 . S
H311 C287 0.949 . S
H312 C289 0.950 . S
H313 C291 0.950 . S
C314 C315 1.349 . S
C314 C316 1.327 . S
C314 H339 0.950 . S
C315 C314 1.349 . S
C315 C331 1.349 . S
C316 C314 1.327 . S
C316 C335 1.429 . S
C316 H340 0.950 . S
C317 C334 1.574 1_565 S
C317 C336 1.368 . S
C317 H341 0.949 . S
H318 C322 0.949 . S
C319 C320 1.349 . S
C319 C321 1.327 . S
C319 H342 0.950 . S
C320 C319 1.349 . S
C320 C332 1.349 . S
C321 C319 1.327 . S
C321 C337 1.429 . S
C321 H343 0.950 . S
C322 H318 0.949 . S
C322 C330 1.574 1_545 S
C322 C338 1.368 . S
H323 C331 0.950 . S
H324 C329 0.950 . S
H325 C330 0.949 . S
H326 C332 0.950 . S
H327 C333 0.950 . S
H328 C334 0.949 . S
C329 H324 0.950 . S
C329 C331 1.327 . S
C329 C335 1.429 . S
C330 C322 1.574 1_565 S
C330 H325 0.949 . S
C330 C336 1.368 . S
C331 C315 1.349 . S
C331 H323 0.950 . S
C331 C329 1.327 . S
C332 C320 1.349 . S
C332 H326 0.950 . S
C332 C333 1.327 . S
C333 H327 0.950 . S
C333 C332 1.327 . S
C333 C337 1.429 . S
C334 C317 1.574 1_545 S
C334 H328 0.949 . S
C334 C338 1.368 . S
C335 C316 1.429 . S
C335 C329 1.429 . S
C335 C336 1.523 . S
C336 C317 1.368 . S
C336 C330 1.368 . S
C336 C335 1.523 . S
C337 C321 1.429 . S
C337 C333 1.429 . S
C337 C338 1.523 . S
C338 C322 1.368 . S
C338 C334 1.368 . S
C338 C337 1.523 . S
H339 C314 0.950 . S
H340 C316 0.950 . S
H341 C317 0.949 . S
H342 C319 0.950 . S
H343 C321 0.950 . S
C344 C345 1.349 . S
C344 C346 1.327 . S
C344 H369 0.950 . S
C345 C344 1.349 . S
C345 C361 1.349 . S
C346 C344 1.327 . S
C346 C365 1.429 . S
C346 H370 0.950 . S
C347 C364 1.574 1_655 S
C347 C366 1.368 . S
C347 H371 0.949 . S
H348 C352 0.949 . S
C349 C350 1.349 . S
C349 C351 1.327 . S
C349 H372 0.950 . S
C350 C349 1.349 . S
C350 C362 1.349 . S
C351 C349 1.327 . S
C351 C367 1.429 . S
C351 H373 0.950 . S
C352 H348 0.949 . S
C352 C360 1.574 1_455 S
C352 C368 1.368 . S
H353 C361 0.950 . S
H354 C359 0.950 . S
H355 C360 0.949 . S
H356 C362 0.950 . S
H357 C363 0.950 . S
H358 C364 0.949 . S
C359 H354 0.950 . S
C359 C361 1.327 . S
C359 C365 1.429 . S
C360 C352 1.574 1_655 S
C360 H355 0.949 . S
C360 C366 1.368 . S
C361 C345 1.349 . S
C361 H353 0.950 . S
C361 C359 1.327 . S
C362 C350 1.349 . S
C362 H356 0.950 . S
C362 C363 1.327 . S
C363 H357 0.950 . S
C363 C362 1.327 . S
C363 C367 1.429 . S
C364 C347 1.574 1_455 S
C364 H358 0.949 . S
C364 C368 1.368 . S
C365 C346 1.429 . S
C365 C359 1.429 . S
C365 C366 1.523 . S
C366 C347 1.368 . S
C366 C360 1.368 . S
C366 C365 1.523 . S
C367 C351 1.429 . S
C367 C363 1.429 . S
C367 C368 1.523 . S
C368 C352 1.368 . S
C368 C364 1.368 . S
C368 C367 1.523 . S
H369 C344 0.950 . S
H370 C346 0.950 . S
H371 C347 0.949 . S
H372 C349 0.950 . S
H373 C351 0.950 . S
C374 C375 1.349 . S
C374 C376 1.327 . S
C374 H399 0.950 . S
C375 C374 1.349 . S
C375 C391 1.349 . S
C376 C374 1.327 . S
C376 C395 1.429 . S
C376 H400 0.950 . S
C377 C394 1.574 1_545 S
C377 C396 1.368 . S
C377 H401 0.949 . S
H378 C382 0.949 . S
C379 C380 1.349 . S
C379 C381 1.327 . S
C379 H402 0.950 . S
C380 C379 1.349 . S
C380 C392 1.349 . S
C381 C379 1.327 . S
C381 C397 1.429 . S
C381 H403 0.950 . S
C382 H378 0.949 . S
C382 C390 1.574 1_565 S
C382 C398 1.368 . S
H383 C391 0.950 . S
H384 C389 0.950 . S
H385 C390 0.949 . S
H386 C392 0.950 . S
H387 C393 0.950 . S
H388 C394 0.949 . S
C389 H384 0.950 . S
C389 C391 1.327 . S
C389 C395 1.429 . S
C390 C382 1.574 1_545 S
C390 H385 0.949 . S
C390 C396 1.368 . S
C391 C375 1.349 . S
C391 H383 0.950 . S
C391 C389 1.327 . S
C392 C380 1.349 . S
C392 H386 0.950 . S
C392 C393 1.327 . S
C393 H387 0.950 . S
C393 C392 1.327 . S
C393 C397 1.429 . S
C394 C377 1.574 1_565 S
C394 H388 0.949 . S
C394 C398 1.368 . S
C395 C376 1.429 . S
C395 C389 1.429 . S
C395 C396 1.523 . S
C396 C377 1.368 . S
C396 C390 1.368 . S
C396 C395 1.523 . S
C397 C381 1.429 . S
C397 C393 1.429 . S
C397 C398 1.523 . S
C398 C382 1.368 . S
C398 C394 1.368 . S
C398 C397 1.523 . S
H399 C374 0.950 . S
H400 C376 0.950 . S
H401 C377 0.949 . S
H402 C379 0.950 . S
H403 C381 0.950 . S
C404 C405 1.349 . S
C404 C406 1.327 . S
C404 H429 0.950 . S
C405 C404 1.349 . S
C405 C421 1.349 . S
C406 C404 1.327 . S
C406 C425 1.429 . S
C406 H430 0.950 . S
C407 C424 1.574 1_655 S
C407 C426 1.368 . S
C407 H431 0.949 . S
H408 C412 0.949 . S
C409 C410 1.349 . S
C409 C411 1.327 . S
C409 H432 0.950 . S
C410 C409 1.349 . S
C410 C422 1.349 . S
C411 C409 1.327 . S
C411 C427 1.429 . S
C411 H433 0.950 . S
C412 H408 0.949 . S
C412 C420 1.574 1_455 S
C412 C428 1.368 . S
H413 C421 0.950 . S
H414 C419 0.950 . S
H415 C420 0.949 . S
H416 C422 0.950 . S
H417 C423 0.950 . S
H418 C424 0.949 . S
C419 H414 0.950 . S
C419 C421 1.327 . S
C419 C425 1.429 . S
C420 C412 1.574 1_655 S
C420 H415 0.949 . S
C420 C426 1.368 . S
C421 C405 1.349 . S
C421 H413 0.950 . S
C421 C419 1.327 . S
C422 C410 1.349 . S
C422 H416 0.950 . S
C422 C423 1.327 . S
C423 H417 0.950 . S
C423 C422 1.327 . S
C423 C427 1.429 . S
C424 C407 1.574 1_455 S
C424 H418 0.949 . S
C424 C428 1.368 . S
C425 C406 1.429 . S
C425 C419 1.429 . S
C425 C426 1.523 . S
C426 C407 1.368 . S
C426 C420 1.368 . S
C426 C425 1.523 . S
C427 C411 1.429 . S
C427 C423 1.429 . S
C427 C428 1.523 . S
C428 C412 1.368 . S
C428 C424 1.368 . S
C428 C427 1.523 . S
H429 C404 0.950 . S
H430 C406 0.950 . S
H431 C407 0.949 . S
H432 C409 0.950 . S
H433 C411 0.950 . S
C434 C435 1.349 . S
C434 C436 1.327 . S
C434 H459 0.950 . S
C435 C434 1.349 . S
C435 C451 1.349 . S
C436 C434 1.327 . S
C436 C455 1.429 . S
C436 H460 0.950 . S
C437 C454 1.574 1_545 S
C437 C456 1.368 . S
C437 H461 0.949 . S
H438 C442 0.949 . S
C439 C440 1.349 . S
C439 C441 1.327 . S
C439 H462 0.950 . S
C440 C439 1.349 . S
C440 C452 1.349 . S
C441 C439 1.327 . S
C441 C457 1.429 . S
C441 H463 0.950 . S
C442 H438 0.949 . S
C442 C450 1.574 1_565 S
C442 C458 1.368 . S
H443 C451 0.950 . S
H444 C449 0.950 . S
H445 C450 0.949 . S
H446 C452 0.950 . S
H447 C453 0.950 . S
H448 C454 0.949 . S
C449 H444 0.950 . S
C449 C451 1.327 . S
C449 C455 1.429 . S
C450 C442 1.574 1_545 S
C450 H445 0.949 . S
C450 C456 1.368 . S
C451 C435 1.349 . S
C451 H443 0.950 . S
C451 C449 1.327 . S
C452 C440 1.349 . S
C452 H446 0.950 . S
C452 C453 1.327 . S
C453 H447 0.950 . S
C453 C452 1.327 . S
C453 C457 1.429 . S
C454 C437 1.574 1_565 S
C454 H448 0.949 . S
C454 C458 1.368 . S
C455 C436 1.429 . S
C455 C449 1.429 . S
C455 C456 1.523 . S
C456 C437 1.368 . S
C456 C450 1.368 . S
C456 C455 1.523 . S
C457 C441 1.429 . S
C457 C453 1.429 . S
C457 C458 1.523 . S
C458 C442 1.368 . S
C458 C454 1.368 . S
C458 C457 1.523 . S
H459 C434 0.950 . S
H460 C436 0.950 . S
H461 C437 0.949 . S
H462 C439 0.950 . S
H463 C441 0.950 . S
C464 C465 1.349 . S
C464 C466 1.327 . S
C464 H489 0.950 . S
C465 C464 1.349 . S
C465 C481 1.349 . S
C466 C464 1.327 . S
C466 C485 1.429 . S
C466 H490 0.950 . S
C467 C484 1.574 . S
C467 C486 1.368 . S
C467 H491 0.949 . S
H468 C472 0.949 . S
C469 C470 1.349 . S
C469 C471 1.327 . S
C469 H492 0.950 . S
C470 C469 1.349 . S
C470 C482 1.349 . S
C471 C469 1.327 . S
C471 C487 1.429 . S
C471 H493 0.950 . S
C472 H468 0.949 . S
C472 C480 1.574 . S
C472 C488 1.368 . S
H473 C481 0.950 . S
H474 C479 0.950 . S
H475 C480 0.949 . S
H476 C482 0.950 . S
H477 C483 0.950 . S
H478 C484 0.949 . S
C479 H474 0.950 . S
C479 C481 1.327 . S
C479 C485 1.429 . S
C480 C472 1.574 . S
C480 H475 0.949 . S
C480 C486 1.368 . S
C481 C465 1.349 . S
C481 H473 0.950 . S
C481 C479 1.327 . S
C482 C470 1.349 . S
C482 H476 0.950 . S
C482 C483 1.327 . S
C483 H477 0.950 . S
C483 C482 1.327 . S
C483 C487 1.429 . S
C484 C467 1.574 . S
C484 H478 0.949 . S
C484 C488 1.368 . S
C485 C466 1.429 . S
C485 C479 1.429 . S
C485 C486 1.523 . S
C486 C467 1.368 . S
C486 C480 1.368 . S
C486 C485 1.523 . S
C487 C471 1.429 . S
C487 C483 1.429 . S
C487 C488 1.523 . S
C488 C472 1.368 . S
C488 C484 1.368 . S
C488 C487 1.523 . S
H489 C464 0.950 . S
H490 C466 0.950 . S
H491 C467 0.949 . S
H492 C469 0.950 . S
H493 C471 0.950 . S
C494 C495 1.349 . S
C494 C496 1.327 . S
C494 H519 0.950 . S
C495 C494 1.349 . S
C495 C511 1.349 . S
C496 C494 1.327 . S
C496 C515 1.429 . S
C496 H520 0.950 . S
C497 C514 1.574 . S
C497 C516 1.368 . S
C497 H521 0.949 . S
H498 C502 0.949 . S
C499 C500 1.349 . S
C499 C501 1.327 . S
C499 H522 0.950 . S
C500 C499 1.349 . S
C500 C512 1.349 . S
C501 C499 1.327 . S
C501 C517 1.429 . S
C501 H523 0.950 . S
C502 H498 0.949 . S
C502 C510 1.574 . S
C502 C518 1.368 . S
H503 C511 0.950 . S
H504 C509 0.950 . S
H505 C510 0.949 . S
H506 C512 0.950 . S
H507 C513 0.950 . S
H508 C514 0.949 . S
C509 H504 0.950 . S
C509 C511 1.327 . S
C509 C515 1.429 . S
C510 C502 1.574 . S
C510 H505 0.949 . S
C510 C516 1.368 . S
C511 C495 1.349 . S
C511 H503 0.950 . S
C511 C509 1.327 . S
C512 C500 1.349 . S
C512 H506 0.950 . S
C512 C513 1.327 . S
C513 H507 0.950 . S
C513 C512 1.327 . S
C513 C517 1.429 . S
C514 C497 1.574 . S
C514 H508 0.949 . S
C514 C518 1.368 . S
C515 C496 1.429 . S
C515 C509 1.429 . S
C515 C516 1.523 . S
C516 C497 1.368 . S
C516 C510 1.368 . S
C516 C515 1.523 . S
C517 C501 1.429 . S
C517 C513 1.429 . S
C517 C518 1.523 . S
C518 C502 1.368 . S
C518 C514 1.368 . S
C518 C517 1.523 . S
H519 C494 0.950 . S
H520 C496 0.950 . S
H521 C497 0.949 . S
H522 C499 0.950 . S
H523 C501 0.950 . S
C524 C525 1.349 . S
C524 C526 1.327 . S
C524 H549 0.950 . S
C525 C524 1.349 . S
C525 C541 1.349 . S
C526 C524 1.327 . S
C526 C545 1.429 . S
C526 H550 0.950 . S
C527 C544 1.574 . S
C527 C546 1.368 . S
C527 H551 0.949 . S
H528 C532 0.949 . S
C529 C530 1.349 . S
C529 C531 1.327 . S
C529 H552 0.950 . S
C530 C529 1.349 . S
C530 C542 1.349 . S
C531 C529 1.327 . S
C531 C547 1.429 . S
C531 H553 0.950 . S
C532 H528 0.949 . S
C532 C540 1.574 . S
C532 C548 1.368 . S
H533 C541 0.950 . S
H534 C539 0.950 . S
H535 C540 0.949 . S
H536 C542 0.950 . S
H537 C543 0.950 . S
H538 C544 0.949 . S
C539 H534 0.950 . S
C539 C541 1.327 . S
C539 C545 1.429 . S
C540 C532 1.574 . S
C540 H535 0.949 . S
C540 C546 1.368 . S
C541 C525 1.349 . S
C541 H533 0.950 . S
C541 C539 1.327 . S
C542 C530 1.349 . S
C542 H536 0.950 . S
C542 C543 1.327 . S
C543 H537 0.950 . S
C543 C542 1.327 . S
C543 C547 1.429 . S
C544 C527 1.574 . S
C544 H538 0.949 . S
C544 C548 1.368 . S
C545 C526 1.429 . S
C545 C539 1.429 . S
C545 C546 1.523 . S
C546 C527 1.368 . S
C546 C540 1.368 . S
C546 C545 1.523 . S
C547 C531 1.429 . S
C547 C543 1.429 . S
C547 C548 1.523 . S
C548 C532 1.368 . S
C548 C544 1.368 . S
C548 C547 1.523 . S
H549 C524 0.950 . S
H550 C526 0.950 . S
H551 C527 0.949 . S
H552 C529 0.950 . S
H553 C531 0.950 . S
C554 C555 1.349 . S
C554 C556 1.327 . S
C554 H579 0.950 . S
C555 C554 1.349 . S
C555 C571 1.349 . S
C556 C554 1.327 . S
C556 C575 1.429 . S
C556 H580 0.950 . S
C557 C574 1.574 . S
C557 C576 1.368 . S
C557 H581 0.949 . S
H558 C562 0.949 . S
C559 C560 1.349 . S
C559 C561 1.327 . S
C559 H582 0.950 . S
C560 C559 1.349 . S
C560 C572 1.349 . S
C561 C559 1.327 . S
C561 C577 1.429 . S
C561 H583 0.950 . S
C562 H558 0.949 . S
C562 C570 1.574 . S
C562 C578 1.368 . S
H563 C571 0.950 . S
H564 C569 0.950 . S
H565 C570 0.949 . S
H566 C572 0.950 . S
H567 C573 0.950 . S
H568 C574 0.949 . S
C569 H564 0.950 . S
C569 C571 1.327 . S
C569 C575 1.429 . S
C570 C562 1.574 . S
C570 H565 0.949 . S
C570 C576 1.368 . S
C571 C555 1.349 . S
C571 H563 0.950 . S
C571 C569 1.327 . S
C572 C560 1.349 . S
C572 H566 0.950 . S
C572 C573 1.327 . S
C573 H567 0.950 . S
C573 C572 1.327 . S
C573 C577 1.429 . S
C574 C557 1.574 . S
C574 H568 0.949 . S
C574 C578 1.368 . S
C575 C556 1.429 . S
C575 C569 1.429 . S
C575 C576 1.523 . S
C576 C557 1.368 . S
C576 C570 1.368 . S
C576 C575 1.523 . S
C577 C561 1.429 . S
C577 C573 1.429 . S
C577 C578 1.523 . S
C578 C562 1.368 . S
C578 C574 1.368 . S
C578 C577 1.523 . S
H579 C554 0.950 . S
H580 C556 0.950 . S
H581 C557 0.949 . S
H582 C559 0.950 . S
H583 C561 0.950 . S
C584 C585 1.349 . S
C584 C586 1.327 . S
C584 H609 0.950 . S
C585 C584 1.349 . S
C585 C601 1.349 . S
C586 C584 1.327 . S
C586 C605 1.429 . S
C586 H610 0.950 . S
C587 C604 1.574 . S
C587 C606 1.368 . S
C587 H611 0.949 . S
H588 C592 0.949 . S
C589 C590 1.349 . S
C589 C591 1.327 . S
C589 H612 0.950 . S
C590 C589 1.349 . S
C590 C602 1.349 . S
C591 C589 1.327 . S
C591 C607 1.429 . S
C591 H613 0.950 . S
C592 H588 0.949 . S
C592 C600 1.574 . S
C592 C608 1.368 . S
H593 C601 0.950 . S
H594 C599 0.950 . S
H595 C600 0.949 . S
H596 C602 0.950 . S
H597 C603 0.950 . S
H598 C604 0.949 . S
C599 H594 0.950 . S
C599 C601 1.327 . S
C599 C605 1.429 . S
C600 C592 1.574 . S
C600 H595 0.949 . S
C600 C606 1.368 . S
C601 C585 1.349 . S
C601 H593 0.950 . S
C601 C599 1.327 . S
C602 C590 1.349 . S
C602 H596 0.950 . S
C602 C603 1.327 . S
C603 H597 0.950 . S
C603 C602 1.327 . S
C603 C607 1.429 . S
C604 C587 1.574 . S
C604 H598 0.949 . S
C604 C608 1.368 . S
C605 C586 1.429 . S
C605 C599 1.429 . S
C605 C606 1.523 . S
C606 C587 1.368 . S
C606 C600 1.368 . S
C606 C605 1.523 . S
C607 C591 1.429 . S
C607 C603 1.429 . S
C607 C608 1.523 . S
C608 C592 1.368 . S
C608 C604 1.368 . S
C608 C607 1.523 . S
H609 C584 0.950 . S
H610 C586 0.950 . S
H611 C587 0.949 . S
H612 C589 0.950 . S
H613 C591 0.950 . S
C614 C615 1.349 . S
C614 C616 1.327 . S
C614 H639 0.950 . S
C615 C614 1.349 . S
C615 C631 1.349 . S
C616 C614 1.327 . S
C616 C635 1.429 . S
C616 H640 0.950 . S
C617 C634 1.574 . S
C617 C636 1.368 . S
C617 H641 0.949 . S
H618 C622 0.949 . S
C619 C620 1.349 . S
C619 C621 1.327 . S
C619 H642 0.950 . S
C620 C619 1.349 . S
C620 C632 1.349 . S
C621 C619 1.327 . S
C621 C637 1.429 . S
C621 H643 0.950 . S
C622 H618 0.949 . S
C622 C630 1.574 . S
C622 C638 1.368 . S
H623 C631 0.950 . S
H624 C629 0.950 . S
H625 C630 0.949 . S
H626 C632 0.950 . S
H627 C633 0.950 . S
H628 C634 0.949 . S
C629 H624 0.950 . S
C629 C631 1.327 . S
C629 C635 1.429 . S
C630 C622 1.574 . S
C630 H625 0.949 . S
C630 C636 1.368 . S
C631 C615 1.349 . S
C631 H623 0.950 . S
C631 C629 1.327 . S
C632 C620 1.349 . S
C632 H626 0.950 . S
C632 C633 1.327 . S
C633 H627 0.950 . S
C633 C632 1.327 . S
C633 C637 1.429 . S
C634 C617 1.574 . S
C634 H628 0.949 . S
C634 C638 1.368 . S
C635 C616 1.429 . S
C635 C629 1.429 . S
C635 C636 1.523 . S
C636 C617 1.368 . S
C636 C630 1.368 . S
C636 C635 1.523 . S
C637 C621 1.429 . S
C637 C633 1.429 . S
C637 C638 1.523 . S
C638 C622 1.368 . S
C638 C634 1.368 . S
C638 C637 1.523 . S
H639 C614 0.950 . S
H640 C616 0.950 . S
H641 C617 0.949 . S
H642 C619 0.950 . S
H643 C621 0.950 . S
C644 C645 1.349 . S
C644 C646 1.327 . S
C644 H669 0.950 . S
C645 C644 1.349 . S
C645 C661 1.349 . S
C646 C644 1.327 . S
C646 C665 1.429 . S
C646 H670 0.950 . S
C647 C664 1.574 . S
C647 C666 1.368 . S
C647 H671 0.949 . S
H648 C652 0.949 . S
C649 C650 1.349 . S
C649 C651 1.327 . S
C649 H672 0.950 . S
C650 C649 1.349 . S
C650 C662 1.349 . S
C651 C649 1.327 . S
C651 C667 1.429 . S
C651 H673 0.950 . S
C652 H648 0.949 . S
C652 C660 1.574 . S
C652 C668 1.368 . S
H653 C661 0.950 . S
H654 C659 0.950 . S
H655 C660 0.949 . S
H656 C662 0.950 . S
H657 C663 0.950 . S
H658 C664 0.949 . S
C659 H654 0.950 . S
C659 C661 1.327 . S
C659 C665 1.429 . S
C660 C652 1.574 . S
C660 H655 0.949 . S
C660 C666 1.368 . S
C661 C645 1.349 . S
C661 H653 0.950 . S
C661 C659 1.327 . S
C662 C650 1.349 . S
C662 H656 0.950 . S
C662 C663 1.327 . S
C663 H657 0.950 . S
C663 C662 1.327 . S
C663 C667 1.429 . S
C664 C647 1.574 . S
C664 H658 0.949 . S
C664 C668 1.368 . S
C665 C646 1.429 . S
C665 C659 1.429 . S
C665 C666 1.523 . S
C666 C647 1.368 . S
C666 C660 1.368 . S
C666 C665 1.523 . S
C667 C651 1.429 . S
C667 C663 1.429 . S
C667 C668 1.523 . S
C668 C652 1.368 . S
C668 C664 1.368 . S
C668 C667 1.523 . S
H669 C644 0.950 . S
H670 C646 0.950 . S
H671 C647 0.949 . S
H672 C649 0.950 . S
H673 C651 0.950 . S
C674 C675 1.349 . S
C674 C676 1.327 . S
C674 H699 0.950 . S
C675 C674 1.349 . S
C675 C691 1.349 . S
C676 C674 1.327 . S
C676 C695 1.429 . S
C676 H700 0.950 . S
C677 C694 1.574 . S
C677 C696 1.368 . S
C677 H701 0.949 . S
H678 C682 0.949 . S
C679 C680 1.349 . S
C679 C681 1.327 . S
C679 H702 0.950 . S
C680 C679 1.349 . S
C680 C692 1.349 . S
C681 C679 1.327 . S
C681 C697 1.429 . S
C681 H703 0.950 . S
C682 H678 0.949 . S
C682 C690 1.574 . S
C682 C698 1.368 . S
H683 C691 0.950 . S
H684 C689 0.950 . S
H685 C690 0.949 . S
H686 C692 0.950 . S
H687 C693 0.950 . S
H688 C694 0.949 . S
C689 H684 0.950 . S
C689 C691 1.327 . S
C689 C695 1.429 . S
C690 C682 1.574 . S
C690 H685 0.949 . S
C690 C696 1.368 . S
C691 C675 1.349 . S
C691 H683 0.950 . S
C691 C689 1.327 . S
C692 C680 1.349 . S
C692 H686 0.950 . S
C692 C693 1.327 . S
C693 H687 0.950 . S
C693 C692 1.327 . S
C693 C697 1.429 . S
C694 C677 1.574 . S
C694 H688 0.949 . S
C694 C698 1.368 . S
C695 C676 1.429 . S
C695 C689 1.429 . S
C695 C696 1.523 . S
C696 C677 1.368 . S
C696 C690 1.368 . S
C696 C695 1.523 . S
C697 C681 1.429 . S
C697 C693 1.429 . S
C697 C698 1.523 . S
C698 C682 1.368 . S
C698 C694 1.368 . S
C698 C697 1.523 . S
H699 C674 0.950 . S
H700 C676 0.950 . S
H701 C677 0.949 . S
H702 C679 0.950 . S
H703 C681 0.950 . S
C704 C705 1.349 . S
C704 C706 1.327 . S
C704 H729 0.950 . S
C705 C704 1.349 . S
C705 C721 1.349 . S
C706 C704 1.327 . S
C706 C725 1.429 . S
C706 H730 0.950 . S
C707 C724 1.574 1_556 S
C707 C726 1.368 . S
C707 H731 0.949 . S
H708 C712 0.949 . S
C709 C710 1.349 . S
C709 C711 1.327 . S
C709 H732 0.950 . S
C710 C709 1.349 . S
C710 C722 1.349 . S
C711 C709 1.327 . S
C711 C727 1.429 . S
C711 H733 0.950 . S
C712 H708 0.949 . S
C712 C720 1.574 1_554 S
C712 C728 1.368 . S
H713 C721 0.950 . S
H714 C719 0.950 . S
H715 C720 0.949 . S
H716 C722 0.950 . S
H717 C723 0.950 . S
H718 C724 0.949 . S
C719 H714 0.950 . S
C719 C721 1.327 . S
C719 C725 1.429 . S
C720 C712 1.574 1_556 S
C720 H715 0.949 . S
C720 C726 1.368 . S
C721 C705 1.349 . S
C721 H713 0.950 . S
C721 C719 1.327 . S
C722 C710 1.349 . S
C722 H716 0.950 . S
C722 C723 1.327 . S
C723 H717 0.950 . S
C723 C722 1.327 . S
C723 C727 1.429 . S
C724 C707 1.574 1_554 S
C724 H718 0.949 . S
C724 C728 1.368 . S
C725 C706 1.429 . S
C725 C719 1.429 . S
C725 C726 1.523 . S
C726 C707 1.368 . S
C726 C720 1.368 . S
C726 C725 1.523 . S
C727 C711 1.429 . S
C727 C723 1.429 . S
C727 C728 1.523 . S
C728 C712 1.368 . S
C728 C724 1.368 . S
C728 C727 1.523 . S
H729 C704 0.950 . S
H730 C706 0.950 . S
H731 C707 0.949 . S
H732 C709 0.950 . S
H733 C711 0.950 . S
C734 C735 1.349 . S
C734 C736 1.327 . S
C734 H759 0.950 . S
C735 C734 1.349 . S
C735 C751 1.349 . S
C736 C734 1.327 . S
C736 C755 1.429 . S
C736 H760 0.950 . S
C737 C754 1.574 . S
C737 C756 1.368 . S
C737 H761 0.949 . S
H738 C742 0.949 . S
C739 C740 1.349 . S
C739 C741 1.327 . S
C739 H762 0.950 . S
C740 C739 1.349 . S
C740 C752 1.349 . S
C741 C739 1.327 . S
C741 C757 1.429 . S
C741 H763 0.950 . S
C742 H738 0.949 . S
C742 C750 1.574 . S
C742 C758 1.368 . S
H743 C751 0.950 . S
H744 C749 0.950 . S
H745 C750 0.949 . S
H746 C752 0.950 . S
H747 C753 0.950 . S
H748 C754 0.949 . S
C749 H744 0.950 . S
C749 C751 1.327 . S
C749 C755 1.429 . S
C750 C742 1.574 . S
C750 H745 0.949 . S
C750 C756 1.368 . S
C751 C735 1.349 . S
C751 H743 0.950 . S
C751 C749 1.327 . S
C752 C740 1.349 . S
C752 H746 0.950 . S
C752 C753 1.327 . S
C753 H747 0.950 . S
C753 C752 1.327 . S
C753 C757 1.429 . S
C754 C737 1.574 . S
C754 H748 0.949 . S
C754 C758 1.368 . S
C755 C736 1.429 . S
C755 C749 1.429 . S
C755 C756 1.523 . S
C756 C737 1.368 . S
C756 C750 1.368 . S
C756 C755 1.523 . S
C757 C741 1.429 . S
C757 C753 1.429 . S
C757 C758 1.523 . S
C758 C742 1.368 . S
C758 C754 1.368 . S
C758 C757 1.523 . S
H759 C734 0.950 . S
H760 C736 0.950 . S
H761 C737 0.949 . S
H762 C739 0.950 . S
H763 C741 0.950 . S
C764 C765 1.349 . S
C764 C766 1.327 . S
C764 H789 0.950 . S
C765 C764 1.349 . S
C765 C781 1.349 . S
C766 C764 1.327 . S
C766 C785 1.429 . S
C766 H790 0.950 . S
C767 C784 1.574 1_554 S
C767 C786 1.368 . S
C767 H791 0.949 . S
H768 C772 0.949 . S
C769 C770 1.349 . S
C769 C771 1.327 . S
C769 H792 0.950 . S
C770 C769 1.349 . S
C770 C782 1.349 . S
C771 C769 1.327 . S
C771 C787 1.429 . S
C771 H793 0.950 . S
C772 H768 0.949 . S
C772 C780 1.574 1_556 S
C772 C788 1.368 . S
H773 C781 0.950 . S
H774 C779 0.950 . S
H775 C780 0.949 . S
H776 C782 0.950 . S
H777 C783 0.950 . S
H778 C784 0.949 . S
C779 H774 0.950 . S
C779 C781 1.327 . S
C779 C785 1.429 . S
C780 C772 1.574 1_554 S
C780 H775 0.949 . S
C780 C786 1.368 . S
C781 C765 1.349 . S
C781 H773 0.950 . S
C781 C779 1.327 . S
C782 C770 1.349 . S
C782 H776 0.950 . S
C782 C783 1.327 . S
C783 H777 0.950 . S
C783 C782 1.327 . S
C783 C787 1.429 . S
C784 C767 1.574 1_556 S
C784 H778 0.949 . S
C784 C788 1.368 . S
C785 C766 1.429 . S
C785 C779 1.429 . S
C785 C786 1.523 . S
C786 C767 1.368 . S
C786 C780 1.368 . S
C786 C785 1.523 . S
C787 C771 1.429 . S
C787 C783 1.429 . S
C787 C788 1.523 . S
C788 C772 1.368 . S
C788 C784 1.368 . S
C788 C787 1.523 . S
H789 C764 0.950 . S
H790 C766 0.950 . S
H791 C767 0.949 . S
H792 C769 0.950 . S
H793 C771 0.950 . S
C794 C795 1.349 . S
C794 C796 1.327 . S
C794 H819 0.950 . S
C795 C794 1.349 . S
C795 C811 1.349 . S
C796 C794 1.327 . S
C796 C815 1.429 . S
C796 H820 0.950 . S
C797 C814 1.574 . S
C797 C816 1.368 . S
C797 H821 0.949 . S
H798 C802 0.949 . S
C799 C800 1.349 . S
C799 C801 1.327 . S
C799 H822 0.950 . S
C800 C799 1.349 . S
C800 C812 1.349 . S
C801 C799 1.327 . S
C801 C817 1.429 . S
C801 H823 0.950 . S
C802 H798 0.949 . S
C802 C810 1.574 . S
C802 C818 1.368 . S
H803 C811 0.950 . S
H804 C809 0.950 . S
H805 C810 0.949 . S
H806 C812 0.950 . S
H807 C813 0.950 . S
H808 C814 0.949 . S
C809 H804 0.950 . S
C809 C811 1.327 . S
C809 C815 1.429 . S
C810 C802 1.574 . S
C810 H805 0.949 . S
C810 C816 1.368 . S
C811 C795 1.349 . S
C811 H803 0.950 . S
C811 C809 1.327 . S
C812 C800 1.349 . S
C812 H806 0.950 . S
C812 C813 1.327 . S
C813 H807 0.950 . S
C813 C812 1.327 . S
C813 C817 1.429 . S
C814 C797 1.574 . S
C814 H808 0.949 . S
C814 C818 1.368 . S
C815 C796 1.429 . S
C815 C809 1.429 . S
C815 C816 1.523 . S
C816 C797 1.368 . S
C816 C810 1.368 . S
C816 C815 1.523 . S
C817 C801 1.429 . S
C817 C813 1.429 . S
C817 C818 1.523 . S
C818 C802 1.368 . S
C818 C814 1.368 . S
C818 C817 1.523 . S
H819 C794 0.950 . S
H820 C796 0.950 . S
H821 C797 0.949 . S
H822 C799 0.950 . S
H823 C801 0.950 . S
C824 C825 1.349 . S
C824 C826 1.327 . S
C824 H849 0.950 . S
C825 C824 1.349 . S
C825 C841 1.349 . S
C826 C824 1.327 . S
C826 C845 1.429 . S
C826 H850 0.950 . S
C827 C844 1.574 . S
C827 C846 1.368 . S
C827 H851 0.949 . S
H828 C832 0.949 . S
C829 C830 1.349 . S
C829 C831 1.327 . S
C829 H852 0.950 . S
C830 C829 1.349 . S
C830 C842 1.349 . S
C831 C829 1.327 . S
C831 C847 1.429 . S
C831 H853 0.950 . S
C832 H828 0.949 . S
C832 C840 1.574 . S
C832 C848 1.368 . S
H833 C841 0.950 . S
H834 C839 0.950 . S
H835 C840 0.949 . S
H836 C842 0.950 . S
H837 C843 0.950 . S
H838 C844 0.949 . S
C839 H834 0.950 . S
C839 C841 1.327 . S
C839 C845 1.429 . S
C840 C832 1.574 . S
C840 H835 0.949 . S
C840 C846 1.368 . S
C841 C825 1.349 . S
C841 H833 0.950 . S
C841 C839 1.327 . S
C842 C830 1.349 . S
C842 H836 0.950 . S
C842 C843 1.327 . S
C843 H837 0.950 . S
C843 C842 1.327 . S
C843 C847 1.429 . S
C844 C827 1.574 . S
C844 H838 0.949 . S
C844 C848 1.368 . S
C845 C826 1.429 . S
C845 C839 1.429 . S
C845 C846 1.523 . S
C846 C827 1.368 . S
C846 C840 1.368 . S
C846 C845 1.523 . S
C847 C831 1.429 . S
C847 C843 1.429 . S
C847 C848 1.523 . S
C848 C832 1.368 . S
C848 C844 1.368 . S
C848 C847 1.523 . S
H849 C824 0.950 . S
H850 C826 0.950 . S
H851 C827 0.949 . S
H852 C829 0.950 . S
H853 C831 0.950 . S
C854 C855 1.349 . S
C854 C856 1.327 . S
C854 H879 0.950 . S
C855 C854 1.349 . S
C855 C871 1.349 . S
C856 C854 1.327 . S
C856 C875 1.429 . S
C856 H880 0.950 . S
C857 C874 1.574 1_556 S
C857 C876 1.368 . S
C857 H881 0.949 . S
H858 C862 0.949 . S
C859 C860 1.349 . S
C859 C861 1.327 . S
C859 H882 0.950 . S
C860 C859 1.349 . S
C860 C872 1.349 . S
C861 C859 1.327 . S
C861 C877 1.429 . S
C861 H883 0.950 . S
C862 H858 0.949 . S
C862 C870 1.574 1_554 S
C862 C878 1.368 . S
H863 C871 0.950 . S
H864 C869 0.950 . S
H865 C870 0.949 . S
H866 C872 0.950 . S
H867 C873 0.950 . S
H868 C874 0.949 . S
C869 H864 0.950 . S
C869 C871 1.327 . S
C869 C875 1.429 . S
C870 C862 1.574 1_556 S
C870 H865 0.949 . S
C870 C876 1.368 . S
C871 C855 1.349 . S
C871 H863 0.950 . S
C871 C869 1.327 . S
C872 C860 1.349 . S
C872 H866 0.950 . S
C872 C873 1.327 . S
C873 H867 0.950 . S
C873 C872 1.327 . S
C873 C877 1.429 . S
C874 C857 1.574 1_554 S
C874 H868 0.949 . S
C874 C878 1.368 . S
C875 C856 1.429 . S
C875 C869 1.429 . S
C875 C876 1.523 . S
C876 C857 1.368 . S
C876 C870 1.368 . S
C876 C875 1.523 . S
C877 C861 1.429 . S
C877 C873 1.429 . S
C877 C878 1.523 . S
C878 C862 1.368 . S
C878 C874 1.368 . S
C878 C877 1.523 . S
H879 C854 0.950 . S
H880 C856 0.950 . S
H881 C857 0.949 . S
H882 C859 0.950 . S
H883 C861 0.950 . S
C884 C885 1.349 . S
C884 C886 1.327 . S
C884 H909 0.950 . S
C885 C884 1.349 . S
C885 C901 1.349 . S
C886 C884 1.327 . S
C886 C905 1.429 . S
C886 H910 0.950 . S
C887 C904 1.574 . S
C887 C906 1.368 . S
C887 H911 0.949 . S
H888 C892 0.949 . S
C889 C890 1.349 . S
C889 C891 1.327 . S
C889 H912 0.950 . S
C890 C889 1.349 . S
C890 C902 1.349 . S
C891 C889 1.327 . S
C891 C907 1.429 . S
C891 H913 0.950 . S
C892 H888 0.949 . S
C892 C900 1.574 . S
C892 C908 1.368 . S
H893 C901 0.950 . S
H894 C899 0.950 . S
H895 C900 0.949 . S
H896 C902 0.950 . S
H897 C903 0.950 . S
H898 C904 0.949 . S
C899 H894 0.950 . S
C899 C901 1.327 . S
C899 C905 1.429 . S
C900 C892 1.574 . S
C900 H895 0.949 . S
C900 C906 1.368 . S
C901 C885 1.349 . S
C901 H893 0.950 . S
C901 C899 1.327 . S
C902 C890 1.349 . S
C902 H896 0.950 . S
C902 C903 1.327 . S
C903 H897 0.950 . S
C903 C902 1.327 . S
C903 C907 1.429 . S
C904 C887 1.574 . S
C904 H898 0.949 . S
C904 C908 1.368 . S
C905 C886 1.429 . S
C905 C899 1.429 . S
C905 C906 1.523 . S
C906 C887 1.368 . S
C906 C900 1.368 . S
C906 C905 1.523 . S
C907 C891 1.429 . S
C907 C903 1.429 . S
C907 C908 1.523 . S
C908 C892 1.368 . S
C908 C904 1.368 . S
C908 C907 1.523 . S
H909 C884 0.950 . S
H910 C886 0.950 . S
H911 C887 0.949 . S
H912 C889 0.950 . S
H913 C891 0.950 . S
C914 C915 1.349 . S
C914 C916 1.327 . S
C914 H939 0.950 . S
C915 C914 1.349 . S
C915 C931 1.349 . S
C916 C914 1.327 . S
C916 C935 1.429 . S
C916 H940 0.950 . S
C917 C934 1.574 1_554 S
C917 C936 1.368 . S
C917 H941 0.949 . S
H918 C922 0.949 . S
C919 C920 1.349 . S
C919 C921 1.327 . S
C919 H942 0.950 . S
C920 C919 1.349 . S
C920 C932 1.349 . S
C921 C919 1.327 . S
C921 C937 1.429 . S
C921 H943 0.950 . S
C922 H918 0.949 . S
C922 C930 1.574 1_556 S
C922 C938 1.368 . S
H923 C931 0.950 . S
H924 C929 0.950 . S
H925 C930 0.949 . S
H926 C932 0.950 . S
H927 C933 0.950 . S
H928 C934 0.949 . S
C929 H924 0.950 . S
C929 C931 1.327 . S
C929 C935 1.429 . S
C930 C922 1.574 1_554 S
C930 H925 0.949 . S
C930 C936 1.368 . S
C931 C915 1.349 . S
C931 H923 0.950 . S
C931 C929 1.327 . S
C932 C920 1.349 . S
C932 H926 0.950 . S
C932 C933 1.327 . S
C933 H927 0.950 . S
C933 C932 1.327 . S
C933 C937 1.429 . S
C934 C917 1.574 1_556 S
C934 H928 0.949 . S
C934 C938 1.368 . S
C935 C916 1.429 . S
C935 C929 1.429 . S
C935 C936 1.523 . S
C936 C917 1.368 . S
C936 C930 1.368 . S
C936 C935 1.523 . S
C937 C921 1.429 . S
C937 C933 1.429 . S
C937 C938 1.523 . S
C938 C922 1.368 . S
C938 C934 1.368 . S
C938 C937 1.523 . S
H939 C914 0.950 . S
H940 C916 0.950 . S
H941 C917 0.949 . S
H942 C919 0.950 . S
H943 C921 0.950 . S
C944 C945 1.349 . S
C944 C946 1.327 . S
C944 H969 0.950 . S
C945 C944 1.349 . S
C945 C961 1.349 . S
C946 C944 1.327 . S
C946 C965 1.429 . S
C946 H970 0.950 . S
C947 C964 1.574 . S
C947 C966 1.368 . S
C947 H971 0.949 . S
H948 C952 0.949 . S
C949 C950 1.349 . S
C949 C951 1.327 . S
C949 H972 0.950 . S
C950 C949 1.349 . S
C950 C962 1.349 . S
C951 C949 1.327 . S
C951 C967 1.429 . S
C951 H973 0.950 . S
C952 H948 0.949 . S
C952 C960 1.574 . S
C952 C968 1.368 . S
H953 C961 0.950 . S
H954 C959 0.950 . S
H955 C960 0.949 . S
H956 C962 0.950 . S
H957 C963 0.950 . S
H958 C964 0.949 . S
C959 H954 0.950 . S
C959 C961 1.327 . S
C959 C965 1.429 . S
C960 C952 1.574 . S
C960 H955 0.949 . S
C960 C966 1.368 . S
C961 C945 1.349 . S
C961 H953 0.950 . S
C961 C959 1.327 . S
C962 C950 1.349 . S
C962 H956 0.950 . S
C962 C963 1.327 . S
C963 H957 0.950 . S
C963 C962 1.327 . S
C963 C967 1.429 . S
C964 C947 1.574 . S
C964 H958 0.949 . S
C964 C968 1.368 . S
C965 C946 1.429 . S
C965 C959 1.429 . S
C965 C966 1.523 . S
C966 C947 1.368 . S
C966 C960 1.368 . S
C966 C965 1.523 . S
C967 C951 1.429 . S
C967 C963 1.429 . S
C967 C968 1.523 . S
C968 C952 1.368 . S
C968 C964 1.368 . S
C968 C967 1.523 . S
H969 C944 0.950 . S
H970 C946 0.950 . S
H971 C947 0.949 . S
H972 C949 0.950 . S
H973 C951 0.950 . S
C974 C975 1.349 . S
C974 C976 1.327 . S
C974 H999 0.950 . S
C975 C974 1.349 . S
C975 C991 1.349 . S
C976 C974 1.327 . S
C976 C995 1.429 . S
C976 H1000 0.950 . S
C977 C994 1.574 . S
C977 C996 1.368 . S
C977 H1001 0.949 . S
H978 C982 0.949 . S
C979 C980 1.349 . S
C979 C981 1.327 . S
C979 H1002 0.950 . S
C980 C979 1.349 . S
C980 C992 1.349 . S
C981 C979 1.327 . S
C981 C997 1.429 . S
C981 H1003 0.950 . S
C982 H978 0.949 . S
C982 C990 1.574 . S
C982 C998 1.368 . S
H983 C991 0.950 . S
H984 C989 0.950 . S
H985 C990 0.949 . S
H986 C992 0.950 . S
H987 C993 0.950 . S
H988 C994 0.949 . S
C989 H984 0.950 . S
C989 C991 1.327 . S
C989 C995 1.429 . S
C990 C982 1.574 . S
C990 H985 0.949 . S
C990 C996 1.368 . S
C991 C975 1.349 . S
C991 H983 0.950 . S
C991 C989 1.327 . S
C992 C980 1.349 . S
C992 H986 0.950 . S
C992 C993 1.327 . S
C993 H987 0.950 . S
C993 C992 1.327 . S
C993 C997 1.429 . S
C994 C977 1.574 . S
C994 H988 0.949 . S
C994 C998 1.368 . S
C995 C976 1.429 . S
C995 C989 1.429 . S
C995 C996 1.523 . S
C996 C977 1.368 . S
C996 C990 1.368 . S
C996 C995 1.523 . S
C997 C981 1.429 . S
C997 C993 1.429 . S
C997 C998 1.523 . S
C998 C982 1.368 . S
C998 C994 1.368 . S
C998 C997 1.523 . S
H999 C974 0.950 . S
H1000 C976 0.950 . S
H1001 C977 0.949 . S
H1002 C979 0.950 . S
H1003 C981 0.950 . S
C1004 C1005 1.349 . S
C1004 C1006 1.327 . S
C1004 H1029 0.950 . S
C1005 C1004 1.349 . S
C1005 C1021 1.349 . S
C1006 C1004 1.327 . S
C1006 C1025 1.429 . S
C1006 H1030 0.950 . S
C1007 C1024 1.574 . S
C1007 C1026 1.368 . S
C1007 H1031 0.949 . S
H1008 C1012 0.949 . S
C1009 C1010 1.349 . S
C1009 C1011 1.327 . S
C1009 H1032 0.950 . S
C1010 C1009 1.349 . S
C1010 C1022 1.349 . S
C1011 C1009 1.327 . S
C1011 C1027 1.429 . S
C1011 H1033 0.950 . S
C1012 H1008 0.949 . S
C1012 C1020 1.574 . S
C1012 C1028 1.368 . S
H1013 C1021 0.950 . S
H1014 C1019 0.950 . S
H1015 C1020 0.949 . S
H1016 C1022 0.950 . S
H1017 C1023 0.950 . S
H1018 C1024 0.949 . S
C1019 H1014 0.950 . S
C1019 C1021 1.327 . S
C1019 C1025 1.429 . S
C1020 C1012 1.574 . S
C1020 H1015 0.949 . S
C1020 C1026 1.368 . S
C1021 C1005 1.349 . S
C1021 H1013 0.950 . S
C1021 C1019 1.327 . S
C1022 C1010 1.349 . S
C1022 H1016 0.950 . S
C1022 C1023 1.327 . S
C1023 H1017 0.950 . S
C1023 C1022 1.327 . S
C1023 C1027 1.429 . S
C1024 C1007 1.574 . S
C1024 H1018 0.949 . S
C1024 C1028 1.368 . S
C1025 C1006 1.429 . S
C1025 C1019 1.429 . S
C1025 C1026 1.523 . S
C1026 C1007 1.368 . S
C1026 C1020 1.368 . S
C1026 C1025 1.523 . S
C1027 C1011 1.429 . S
C1027 C1023 1.429 . S
C1027 C1028 1.523 . S
C1028 C1012 1.368 . S
C1028 C1024 1.368 . S
C1028 C1027 1.523 . S
H1029 C1004 0.950 . S
H1030 C1006 0.950 . S
H1031 C1007 0.949 . S
H1032 C1009 0.950 . S
H1033 C1011 0.950 . S
C1034 C1035 1.349 . S
C1034 C1036 1.327 . S
C1034 H1059 0.950 . S
C1035 C1034 1.349 . S
C1035 C1051 1.349 . S
C1036 C1034 1.327 . S
C1036 C1055 1.429 . S
C1036 H1060 0.950 . S
C1037 C1054 1.574 . S
C1037 C1056 1.368 . S
C1037 H1061 0.949 . S
H1038 C1042 0.949 . S
C1039 C1040 1.349 . S
C1039 C1041 1.327 . S
C1039 H1062 0.950 . S
C1040 C1039 1.349 . S
C1040 C1052 1.349 . S
C1041 C1039 1.327 . S
C1041 C1057 1.429 . S
C1041 H1063 0.950 . S
C1042 H1038 0.949 . S
C1042 C1050 1.574 . S
C1042 C1058 1.368 . S
H1043 C1051 0.950 . S
H1044 C1049 0.950 . S
H1045 C1050 0.949 . S
H1046 C1052 0.950 . S
H1047 C1053 0.950 . S
H1048 C1054 0.949 . S
C1049 H1044 0.950 . S
C1049 C1051 1.327 . S
C1049 C1055 1.429 . S
C1050 C1042 1.574 . S
C1050 H1045 0.949 . S
C1050 C1056 1.368 . S
C1051 C1035 1.349 . S
C1051 H1043 0.950 . S
C1051 C1049 1.327 . S
C1052 C1040 1.349 . S
C1052 H1046 0.950 . S
C1052 C1053 1.327 . S
C1053 H1047 0.950 . S
C1053 C1052 1.327 . S
C1053 C1057 1.429 . S
C1054 C1037 1.574 . S
C1054 H1048 0.949 . S
C1054 C1058 1.368 . S
C1055 C1036 1.429 . S
C1055 C1049 1.429 . S
C1055 C1056 1.523 . S
C1056 C1037 1.368 . S
C1056 C1050 1.368 . S
C1056 C1055 1.523 . S
C1057 C1041 1.429 . S
C1057 C1053 1.429 . S
C1057 C1058 1.523 . S
C1058 C1042 1.368 . S
C1058 C1054 1.368 . S
C1058 C1057 1.523 . S
H1059 C1034 0.950 . S
H1060 C1036 0.950 . S
H1061 C1037 0.949 . S
H1062 C1039 0.950 . S
H1063 C1041 0.950 . S
C1064 C1065 1.349 . S
C1064 C1066 1.327 . S
C1064 H1089 0.950 . S
C1065 C1064 1.349 . S
C1065 C1081 1.349 . S
C1066 C1064 1.327 . S
C1066 C1085 1.429 . S
C1066 H1090 0.950 . S
C1067 C1084 1.574 . S
C1067 C1086 1.368 . S
C1067 H1091 0.949 . S
H1068 C1072 0.949 . S
C1069 C1070 1.349 . S
C1069 C1071 1.327 . S
C1069 H1092 0.950 . S
C1070 C1069 1.349 . S
C1070 C1082 1.349 . S
C1071 C1069 1.327 . S
C1071 C1087 1.429 . S
C1071 H1093 0.950 . S
C1072 H1068 0.949 . S
C1072 C1080 1.574 . S
C1072 C1088 1.368 . S
H1073 C1081 0.950 . S
H1074 C1079 0.950 . S
H1075 C1080 0.949 . S
H1076 C1082 0.950 . S
H1077 C1083 0.950 . S
H1078 C1084 0.949 . S
C1079 H1074 0.950 . S
C1079 C1081 1.327 . S
C1079 C1085 1.429 . S
C1080 C1072 1.574 . S
C1080 H1075 0.949 . S
C1080 C1086 1.368 . S
C1081 C1065 1.349 . S
C1081 H1073 0.950 . S
C1081 C1079 1.327 . S
C1082 C1070 1.349 . S
C1082 H1076 0.950 . S
C1082 C1083 1.327 . S
C1083 H1077 0.950 . S
C1083 C1082 1.327 . S
C1083 C1087 1.429 . S
C1084 C1067 1.574 . S
C1084 H1078 0.949 . S
C1084 C1088 1.368 . S
C1085 C1066 1.429 . S
C1085 C1079 1.429 . S
C1085 C1086 1.523 . S
C1086 C1067 1.368 . S
C1086 C1080 1.368 . S
C1086 C1085 1.523 . S
C1087 C1071 1.429 . S
C1087 C1083 1.429 . S
C1087 C1088 1.523 . S
C1088 C1072 1.368 . S
C1088 C1084 1.368 . S
C1088 C1087 1.523 . S
H1089 C1064 0.950 . S
H1090 C1066 0.950 . S
H1091 C1067 0.949 . S
H1092 C1069 0.950 . S
H1093 C1071 0.950 . S
C1094 C1095 1.349 . S
C1094 C1096 1.327 . S
C1094 H1119 0.950 . S
C1095 C1094 1.349 . S
C1095 C1111 1.349 . S
C1096 C1094 1.327 . S
C1096 C1115 1.429 . S
C1096 H1120 0.950 . S
C1097 C1114 1.574 . S
C1097 C1116 1.368 . S
C1097 H1121 0.949 . S
H1098 C1102 0.949 . S
C1099 C1100 1.349 . S
C1099 C1101 1.327 . S
C1099 H1122 0.950 . S
C1100 C1099 1.349 . S
C1100 C1112 1.349 . S
C1101 C1099 1.327 . S
C1101 C1117 1.429 . S
C1101 H1123 0.950 . S
C1102 H1098 0.949 . S
C1102 C1110 1.574 . S
C1102 C1118 1.368 . S
H1103 C1111 0.950 . S
H1104 C1109 0.950 . S
H1105 C1110 0.949 . S
H1106 C1112 0.950 . S
H1107 C1113 0.950 . S
H1108 C1114 0.949 . S
C1109 H1104 0.950 . S
C1109 C1111 1.327 . S
C1109 C1115 1.429 . S
C1110 C1102 1.574 . S
C1110 H1105 0.949 . S
C1110 C1116 1.368 . S
C1111 C1095 1.349 . S
C1111 H1103 0.950 . S
C1111 C1109 1.327 . S
C1112 C1100 1.349 . S
C1112 H1106 0.950 . S
C1112 C1113 1.327 . S
C1113 H1107 0.950 . S
C1113 C1112 1.327 . S
C1113 C1117 1.429 . S
C1114 C1097 1.574 . S
C1114 H1108 0.949 . S
C1114 C1118 1.368 . S
C1115 C1096 1.429 . S
C1115 C1109 1.429 . S
C1115 C1116 1.523 . S
C1116 C1097 1.368 . S
C1116 C1110 1.368 . S
C1116 C1115 1.523 . S
C1117 C1101 1.429 . S
C1117 C1113 1.429 . S
C1117 C1118 1.523 . S
C1118 C1102 1.368 . S
C1118 C1114 1.368 . S
C1118 C1117 1.523 . S
H1119 C1094 0.950 . S
H1120 C1096 0.950 . S
H1121 C1097 0.949 . S
H1122 C1099 0.950 . S
H1123 C1101 0.950 . S
C1124 C1125 1.349 . S
C1124 C1126 1.327 . S
C1124 H1149 0.950 . S
C1125 C1124 1.349 . S
C1125 C1141 1.349 . S
C1126 C1124 1.327 . S
C1126 C1145 1.429 . S
C1126 H1150 0.950 . S
C1127 C1144 1.574 . S
C1127 C1146 1.368 . S
C1127 H1151 0.949 . S
H1128 C1132 0.949 . S
C1129 C1130 1.349 . S
C1129 C1131 1.327 . S
C1129 H1152 0.950 . S
C1130 C1129 1.349 . S
C1130 C1142 1.349 . S
C1131 C1129 1.327 . S
C1131 C1147 1.429 . S
C1131 H1153 0.950 . S
C1132 H1128 0.949 . S
C1132 C1140 1.574 . S
C1132 C1148 1.368 . S
H1133 C1141 0.950 . S
H1134 C1139 0.950 . S
H1135 C1140 0.949 . S
H1136 C1142 0.950 . S
H1137 C1143 0.950 . S
H1138 C1144 0.949 . S
C1139 H1134 0.950 . S
C1139 C1141 1.327 . S
C1139 C1145 1.429 . S
C1140 C1132 1.574 . S
C1140 H1135 0.949 . S
C1140 C1146 1.368 . S
C1141 C1125 1.349 . S
C1141 H1133 0.950 . S
C1141 C1139 1.327 . S
C1142 C1130 1.349 . S
C1142 H1136 0.950 . S
C1142 C1143 1.327 . S
C1143 H1137 0.950 . S
C1143 C1142 1.327 . S
C1143 C1147 1.429 . S
C1144 C1127 1.574 . S
C1144 H1138 0.949 . S
C1144 C1148 1.368 . S
C1145 C1126 1.429 . S
C1145 C1139 1.429 . S
C1145 C1146 1.523 . S
C1146 C1127 1.368 . S
C1146 C1140 1.368 . S
C1146 C1145 1.523 . S
C1147 C1131 1.429 . S
C1147 C1143 1.429 . S
C1147 C1148 1.523 . S
C1148 C1132 1.368 . S
C1148 C1144 1.368 . S
C1148 C1147 1.523 . S
H1149 C1124 0.950 . S
H1150 C1126 0.950 . S
H1151 C1127 0.949 . S
H1152 C1129 0.950 . S
H1153 C1131 0.950 . S
C1154 C1155 1.349 . S
C1154 C1156 1.327 . S
C1154 H1179 0.950 . S
C1155 C1154 1.349 . S
C1155 C1171 1.349 . S
C1156 C1154 1.327 . S
C1156 C1175 1.429 . S
C1156 H1180 0.950 . S
C1157 C1174 1.574 . S
C1157 C1176 1.368 . S
C1157 H1181 0.949 . S
H1158 C1162 0.949 . S
C1159 C1160 1.349 . S
C1159 C1161 1.327 . S
C1159 H1182 0.950 . S
C1160 C1159 1.349 . S
C1160 C1172 1.349 . S
C1161 C1159 1.327 . S
C1161 C1177 1.429 . S
C1161 H1183 0.950 . S
C1162 H1158 0.949 . S
C1162 C1170 1.574 . S
C1162 C1178 1.368 . S
H1163 C1171 0.950 . S
H1164 C1169 0.950 . S
H1165 C1170 0.949 . S
H1166 C1172 0.950 . S
H1167 C1173 0.950 . S
H1168 C1174 0.949 . S
C1169 H1164 0.950 . S
C1169 C1171 1.327 . S
C1169 C1175 1.429 . S
C1170 C1162 1.574 . S
C1170 H1165 0.949 . S
C1170 C1176 1.368 . S
C1171 C1155 1.349 . S
C1171 H1163 0.950 . S
C1171 C1169 1.327 . S
C1172 C1160 1.349 . S
C1172 H1166 0.950 . S
C1172 C1173 1.327 . S
C1173 H1167 0.950 . S
C1173 C1172 1.327 . S
C1173 C1177 1.429 . S
C1174 C1157 1.574 . S
C1174 H1168 0.949 . S
C1174 C1178 1.368 . S
C1175 C1156 1.429 . S
C1175 C1169 1.429 . S
C1175 C1176 1.523 . S
C1176 C1157 1.368 . S
C1176 C1170 1.368 . S
C1176 C1175 1.523 . S
C1177 C1161 1.429 . S
C1177 C1173 1.429 . S
C1177 C1178 1.523 . S
C1178 C1162 1.368 . S
C1178 C1174 1.368 . S
C1178 C1177 1.523 . S
H1179 C1154 0.950 . S
H1180 C1156 0.950 . S
H1181 C1157 0.949 . S
H1182 C1159 0.950 . S
H1183 C1161 0.950 . S
C225 C9 1.208 . S
C230 C37 1.208 . S
C255 C51 1.208 . S
C260 C23 1.208 . S
C285 C65 1.208 . S
C290 C93 1.208 . S
C315 C107 1.208 . S
C320 C79 1.208 . S
C345 C121 1.208 . S
C350 C149 1.208 . S
C375 C163 1.208 . S
C380 C135 1.208 . S
C405 C177 1.208 . S
C410 C205 1.208 . S
C435 C219 1.208 . S
C440 C191 1.208 . S
C465 C63 1.324 . S
C470 C7 1.324 . S
C495 C21 1.324 . S
C500 C77 1.324 . S
C525 C35 1.324 . S
C530 C91 1.324 . S
C555 C105 1.324 . S
C560 C49 1.324 . S
C585 C119 1.324 . S
C590 C175 1.324 . S
C615 C133 1.324 . S
C620 C189 1.324 . S
C645 C147 1.324 . S
C650 C203 1.324 . S
C675 C161 1.324 . S
C680 C217 1.324 . S
C705 C148 1.112 . S
C710 C8 1.112 . S
C735 C162 1.112 . S
C740 C22 1.112 . S
C765 C36 1.112 . S
C770 C120 1.112 . S
C795 C50 1.112 . S
C800 C134 1.112 . S
C825 C64 1.112 . S
C830 C204 1.112 . S
C855 C78 1.112 . S
C860 C218 1.112 . S
C885 C92 1.112 . S
C890 C176 1.112 . S
C915 C190 1.112 . S
C920 C106 1.112 . S
C945 C6 1.375 . S
C950 C216 1.375 . S
C975 C174 1.375 . S
C980 C20 1.375 . S
C1005 C34 1.375 . S
C1010 C188 1.375 . S
C1035 C202 1.375 . S
C1040 C48 1.375 . S
C1065 C132 1.375 . S
C1070 C62 1.375 . S
C1095 C76 1.375 . S
C1100 C146 1.375 . S
C1125 C160 1.375 . S
C1130 C90 1.375 . S
C1155 C118 1.375 . S
C1160 C104 1.375 . S
