# Generated by pormake.
# Topology ato, (4)-cn, num edge types: 1
# Building blocks:
#     Node 0, Type 0, BuildingBlock: QUQFOY_clean_sbu_3, # of connection points: 4
#     Node 1, Type 0, BuildingBlock: QUQFOY_clean_sbu_3, # of connection points: 4
#     Node 2, Type 0, BuildingBlock: QUQFOY_clean_sbu_3, # of connection points: 4
#     Node 3, Type 0, BuildingBlock: QUQFOY_clean_sbu_3, # of connection points: 4
#     Node 4, Type 0, BuildingBlock: QUQFOY_clean_sbu_3, # of connection points: 4
#     Node 5, Type 0, BuildingBlock: QUQFOY_clean_sbu_3, # of connection points: 4
#     Node 6, Type 0, BuildingBlock: QUQFOY_clean_sbu_3, # of connection points: 4
#     Node 7, Type 0, BuildingBlock: QUQFOY_clean_sbu_3, # of connection points: 4
#     Node 8, Type 0, BuildingBlock: QUQFOY_clean_sbu_3, # of connection points: 4
#     Node 9, Type 0, BuildingBlock: QUQFOY_clean_sbu_3, # of connection points: 4
#     Node 10, Type 0, BuildingBlock: QUQFOY_clean_sbu_3, # of connection points: 4
#     Node 11, Type 0, BuildingBlock: QUQFOY_clean_sbu_3, # of connection points: 4
#     Node 12, Type 0, BuildingBlock: QUQFOY_clean_sbu_3, # of connection points: 4
#     Node 13, Type 0, BuildingBlock: QUQFOY_clean_sbu_3, # of connection points: 4
#     Node 14, Type 0, BuildingBlock: QUQFOY_clean_sbu_3, # of connection points: 4
#     Node 15, Type 0, BuildingBlock: QUQFOY_clean_sbu_3, # of connection points: 4
#     Node 16, Type 0, BuildingBlock: QUQFOY_clean_sbu_3, # of connection points: 4
#     Node 17, Type 0, BuildingBlock: QUQFOY_clean_sbu_3, # of connection points: 4
#     Node 18, Type 0, BuildingBlock: QUQFOY_clean_sbu_3, # of connection points: 4
#     Node 19, Type 0, BuildingBlock: QUQFOY_clean_sbu_3, # of connection points: 4
#     Node 20, Type 0, BuildingBlock: QUQFOY_clean_sbu_3, # of connection points: 4
#     Node 21, Type 0, BuildingBlock: QUQFOY_clean_sbu_3, # of connection points: 4
#     Node 22, Type 0, BuildingBlock: QUQFOY_clean_sbu_3, # of connection points: 4
#     Node 23, Type 0, BuildingBlock: QUQFOY_clean_sbu_3, # of connection points: 4
#     Node 24, Type 0, BuildingBlock: QUQFOY_clean_sbu_3, # of connection points: 4
#     Node 25, Type 0, BuildingBlock: QUQFOY_clean_sbu_3, # of connection points: 4
#     Node 26, Type 0, BuildingBlock: QUQFOY_clean_sbu_3, # of connection points: 4
#     Node 27, Type 0, BuildingBlock: QUQFOY_clean_sbu_3, # of connection points: 4
#     Node 28, Type 0, BuildingBlock: QUQFOY_clean_sbu_3, # of connection points: 4
#     Node 29, Type 0, BuildingBlock: QUQFOY_clean_sbu_3, # of connection points: 4
#     Node 30, Type 0, BuildingBlock: QUQFOY_clean_sbu_3, # of connection points: 4
#     Node 31, Type 0, BuildingBlock: QUQFOY_clean_sbu_3, # of connection points: 4
#     Node 32, Type 0, BuildingBlock: QUQFOY_clean_sbu_3, # of connection points: 4
#     Node 33, Type 0, BuildingBlock: QUQFOY_clean_sbu_3, # of connection points: 4
#     Node 34, Type 0, BuildingBlock: QUQFOY_clean_sbu_3, # of connection points: 4
#     Node 35, Type 0, BuildingBlock: QUQFOY_clean_sbu_3, # of connection points: 4
#     Edge 36, Type (0, 0), BuildingBlock: CIFDUS_clean_linker_0, # of connection points: 2
#     Edge 37, Type (0, 0), BuildingBlock: CIFDUS_clean_linker_0, # of connection points: 2
#     Edge 38, Type (0, 0), BuildingBlock: CIFDUS_clean_linker_0, # of connection points: 2
#     Edge 39, Type (0, 0), BuildingBlock: CIFDUS_clean_linker_0, # of connection points: 2
#     Edge 40, Type (0, 0), BuildingBlock: CIFDUS_clean_linker_0, # of connection points: 2
#     Edge 41, Type (0, 0), BuildingBlock: CIFDUS_clean_linker_0, # of connection points: 2
#     Edge 42, Type (0, 0), BuildingBlock: CIFDUS_clean_linker_0, # of connection points: 2
#     Edge 43, Type (0, 0), BuildingBlock: CIFDUS_clean_linker_0, # of connection points: 2
#     Edge 44, Type (0, 0), BuildingBlock: CIFDUS_clean_linker_0, # of connection points: 2
#     Edge 45, Type (0, 0), BuildingBlock: CIFDUS_clean_linker_0, # of connection points: 2
#     Edge 46, Type (0, 0), BuildingBlock: CIFDUS_clean_linker_0, # of connection points: 2
#     Edge 47, Type (0, 0), BuildingBlock: CIFDUS_clean_linker_0, # of connection points: 2
#     Edge 48, Type (0, 0), BuildingBlock: CIFDUS_clean_linker_0, # of connection points: 2
#     Edge 49, Type (0, 0), BuildingBlock: CIFDUS_clean_linker_0, # of connection points: 2
#     Edge 50, Type (0, 0), BuildingBlock: CIFDUS_clean_linker_0, # of connection points: 2
#     Edge 51, Type (0, 0), BuildingBlock: CIFDUS_clean_linker_0, # of connection points: 2
#     Edge 52, Type (0, 0), BuildingBlock: CIFDUS_clean_linker_0, # of connection points: 2
#     Edge 53, Type (0, 0), BuildingBlock: CIFDUS_clean_linker_0, # of connection points: 2
#     Edge 54, Type (0, 0), BuildingBlock: CIFDUS_clean_linker_0, # of connection points: 2
#     Edge 55, Type (0, 0), BuildingBlock: CIFDUS_clean_linker_0, # of connection points: 2
#     Edge 56, Type (0, 0), BuildingBlock: CIFDUS_clean_linker_0, # of connection points: 2
#     Edge 57, Type (0, 0), BuildingBlock: CIFDUS_clean_linker_0, # of connection points: 2
#     Edge 58, Type (0, 0), BuildingBlock: CIFDUS_clean_linker_0, # of connection points: 2
#     Edge 59, Type (0, 0), BuildingBlock: CIFDUS_clean_linker_0, # of connection points: 2
#     Edge 60, Type (0, 0), BuildingBlock: CIFDUS_clean_linker_0, # of connection points: 2
#     Edge 61, Type (0, 0), BuildingBlock: CIFDUS_clean_linker_0, # of connection points: 2
#     Edge 62, Type (0, 0), BuildingBlock: CIFDUS_clean_linker_0, # of connection points: 2
#     Edge 63, Type (0, 0), BuildingBlock: CIFDUS_clean_linker_0, # of connection points: 2
#     Edge 64, Type (0, 0), BuildingBlock: CIFDUS_clean_linker_0, # of connection points: 2
#     Edge 65, Type (0, 0), BuildingBlock: CIFDUS_clean_linker_0, # of connection points: 2
#     Edge 66, Type (0, 0), BuildingBlock: CIFDUS_clean_linker_0, # of connection points: 2
#     Edge 67, Type (0, 0), BuildingBlock: CIFDUS_clean_linker_0, # of connection points: 2
#     Edge 68, Type (0, 0), BuildingBlock: CIFDUS_clean_linker_0, # of connection points: 2
#     Edge 69, Type (0, 0), BuildingBlock: CIFDUS_clean_linker_0, # of connection points: 2
#     Edge 70, Type (0, 0), BuildingBlock: CIFDUS_clean_linker_0, # of connection points: 2
#     Edge 71, Type (0, 0), BuildingBlock: CIFDUS_clean_linker_0, # of connection points: 2
#     Edge 72, Type (0, 0), BuildingBlock: CIFDUS_clean_linker_0, # of connection points: 2
#     Edge 73, Type (0, 0), BuildingBlock: CIFDUS_clean_linker_0, # of connection points: 2
#     Edge 74, Type (0, 0), BuildingBlock: CIFDUS_clean_linker_0, # of connection points: 2
#     Edge 75, Type (0, 0), BuildingBlock: CIFDUS_clean_linker_0, # of connection points: 2
#     Edge 76, Type (0, 0), BuildingBlock: CIFDUS_clean_linker_0, # of connection points: 2
#     Edge 77, Type (0, 0), BuildingBlock: CIFDUS_clean_linker_0, # of connection points: 2
#     Edge 78, Type (0, 0), BuildingBlock: CIFDUS_clean_linker_0, # of connection points: 2
#     Edge 79, Type (0, 0), BuildingBlock: CIFDUS_clean_linker_0, # of connection points: 2
#     Edge 80, Type (0, 0), BuildingBlock: CIFDUS_clean_linker_0, # of connection points: 2
#     Edge 81, Type (0, 0), BuildingBlock: CIFDUS_clean_linker_0, # of connection points: 2
#     Edge 82, Type (0, 0), BuildingBlock: CIFDUS_clean_linker_0, # of connection points: 2
#     Edge 83, Type (0, 0), BuildingBlock: CIFDUS_clean_linker_0, # of connection points: 2
#     Edge 84, Type (0, 0), BuildingBlock: CIFDUS_clean_linker_0, # of connection points: 2
#     Edge 85, Type (0, 0), BuildingBlock: CIFDUS_clean_linker_0, # of connection points: 2
#     Edge 86, Type (0, 0), BuildingBlock: CIFDUS_clean_linker_0, # of connection points: 2
#     Edge 87, Type (0, 0), BuildingBlock: CIFDUS_clean_linker_0, # of connection points: 2
#     Edge 88, Type (0, 0), BuildingBlock: CIFDUS_clean_linker_0, # of connection points: 2
#     Edge 89, Type (0, 0), BuildingBlock: CIFDUS_clean_linker_0, # of connection points: 2
#     Edge 90, Type (0, 0), BuildingBlock: CIFDUS_clean_linker_0, # of connection points: 2
#     Edge 91, Type (0, 0), BuildingBlock: CIFDUS_clean_linker_0, # of connection points: 2
#     Edge 92, Type (0, 0), BuildingBlock: CIFDUS_clean_linker_0, # of connection points: 2
#     Edge 93, Type (0, 0), BuildingBlock: CIFDUS_clean_linker_0, # of connection points: 2
#     Edge 94, Type (0, 0), BuildingBlock: CIFDUS_clean_linker_0, # of connection points: 2
#     Edge 95, Type (0, 0), BuildingBlock: CIFDUS_clean_linker_0, # of connection points: 2
#     Edge 96, Type (0, 0), BuildingBlock: CIFDUS_clean_linker_0, # of connection points: 2
#     Edge 97, Type (0, 0), BuildingBlock: CIFDUS_clean_linker_0, # of connection points: 2
#     Edge 98, Type (0, 0), BuildingBlock: CIFDUS_clean_linker_0, # of connection points: 2
#     Edge 99, Type (0, 0), BuildingBlock: CIFDUS_clean_linker_0, # of connection points: 2
#     Edge 100, Type (0, 0), BuildingBlock: CIFDUS_clean_linker_0, # of connection points: 2
#     Edge 101, Type (0, 0), BuildingBlock: CIFDUS_clean_linker_0, # of connection points: 2
#     Edge 102, Type (0, 0), BuildingBlock: CIFDUS_clean_linker_0, # of connection points: 2
#     Edge 103, Type (0, 0), BuildingBlock: CIFDUS_clean_linker_0, # of connection points: 2
#     Edge 104, Type (0, 0), BuildingBlock: CIFDUS_clean_linker_0, # of connection points: 2
#     Edge 105, Type (0, 0), BuildingBlock: CIFDUS_clean_linker_0, # of connection points: 2
#     Edge 106, Type (0, 0), BuildingBlock: CIFDUS_clean_linker_0, # of connection points: 2
#     Edge 107, Type (0, 0), BuildingBlock: CIFDUS_clean_linker_0, # of connection points: 2
# Relax obj value: 0.074
# Max RMSD: 0.089
# Mean RMSD: 0.089
data_MOF--net-ato--node1-QUQFOY_clean_sbu_3--edge1-CIFDUS_clean_linker_0
_symmetry_space_group_name_H-M    P1
_symmetry_Int_Tables_number       1
_symmetry_cell_setting            triclinic
loop_
_symmetry_equiv_pos_as_xyz
'x, y, z'
_cell_length_a     92.454077
_cell_length_b     92.193423
_cell_length_c     21.676299
_cell_angle_alpha  89.988762
_cell_angle_beta   90.071147
_cell_angle_gamma 119.74545
loop_
_atom_site_label
_atom_site_type_symbol
_atom_site_fract_x
_atom_site_fract_y
_atom_site_fract_z
_atom_type_partial_charge
C0 C 0.23071 0.07073 0.2132 0.0
O1 O 0.22923 0.06927 0.15499 0.0
Cd2 Cd 0.2398 0.05543 0.09281 0.0
O3 O 0.23638 0.06293 0.24425 0.0
Cd4 Cd 0.24246 0.04009 0.22285 0.0
C5 C 0.27844 0.06907 0.16273 0.0
O6 O 0.2265 0.02805 0.13076 0.0
O7 O 0.24541 0.02144 0.14933 0.0
O8 O 0.22002 0.02517 0.2933 0.0
C9 C 0.23358 0.01987 0.11518 0.0
O10 O 0.26945 0.06834 0.11686 0.0
C11 C 0.22725 0.01923 0.3258 0.0
O12 O 0.2719 0.06067 0.21168 0.0
O13 O 0.2422 0.02344 0.31163 0.0
C14 C 0.9225 0.14614 0.228 0.0
O15 O 0.92715 0.15072 0.1729 0.0
Cd16 Cd 0.94223 0.1789 0.13874 0.0
O17 O 0.92716 0.15676 0.27164 0.0
Cd18 Cd 0.94664 0.18712 0.28172 0.0
C19 C 0.91878 0.19394 0.2085 0.0
O20 O 0.96639 0.19193 0.20109 0.0
O21 O 0.96571 0.21379 0.23133 0.0
O22 O 0.96058 0.18253 0.36796 0.0
C23 C 0.9725 0.2076 0.19785 0.0
O24 O 0.92421 0.19098 0.15876 0.0
C25 C 0.96002 0.19338 0.40238 0.0
O26 O 0.92398 0.19224 0.26088 0.0
O27 O 0.95247 0.2007 0.3815 0.0
C28 C 0.83827 0.77029 0.203 0.0
O29 O 0.83546 0.77164 0.14656 0.0
Cd30 Cd 0.80882 0.76198 0.10123 0.0
O31 O 0.82647 0.76428 0.24225 0.0
Cd32 Cd 0.79636 0.75545 0.24002 0.0
C33 C 0.78814 0.72156 0.15714 0.0
O34 O 0.79656 0.77429 0.16218 0.0
O35 O 0.77262 0.75279 0.18032 0.0
O36 O 0.80073 0.77245 0.33074 0.0
C37 C 0.78101 0.76663 0.15281 0.0
O38 O 0.79352 0.73137 0.11087 0.0
C39 C 0.78802 0.76148 0.35937 0.0
O40 O 0.78888 0.72721 0.21135 0.0
O41 O 0.7796 0.74732 0.33357 0.0
C42 C 0.07618 0.2432 0.77897 0.0
O43 O 0.0783 0.2459 0.83655 0.0
Cd44 Cd 0.06455 0.25602 0.89966 0.0
O45 O 0.06563 0.24552 0.74907 0.0
Cd46 Cd 0.04425 0.25315 0.77965 0.0
C47 C 0.07331 0.29188 0.82125 0.0
O48 O 0.0367 0.23664 0.87168 0.0
O49 O 0.02621 0.25283 0.86555 0.0
O50 O 0.02655 0.23203 0.7062 0.0
C51 C 0.02662 0.24086 0.89266 0.0
O52 O 0.075 0.28512 0.86991 0.0
C53 C 0.02068 0.24056 0.68211 0.0
O54 O 0.06344 0.28298 0.77864 0.0
O55 O 0.02609 0.25526 0.70262 0.0
C56 C 0.74592 0.83213 0.75959 0.0
O57 O 0.74431 0.83027 0.81764 0.0
Cd58 Cd 0.73188 0.80478 0.87196 0.0
O59 O 0.74142 0.81966 0.72366 0.0
Cd60 Cd 0.73122 0.78921 0.73966 0.0
C61 C 0.69466 0.78339 0.79238 0.0
O62 O 0.74682 0.79237 0.83154 0.0
O63 O 0.72773 0.76708 0.81417 0.0
O64 O 0.75164 0.79159 0.66501 0.0
C65 C 0.74006 0.77718 0.8466 0.0
O66 O 0.70249 0.79013 0.84208 0.0
C67 C 0.74176 0.77875 0.6341 0.0
O68 O 0.70228 0.78217 0.74557 0.0
O69 O 0.72662 0.771 0.65105 0.0
C70 C 0.14047 0.9174 0.77974 0.0
O71 O 0.14524 0.92316 0.8337 0.0
Cd72 Cd 0.17275 0.94191 0.86621 0.0
O73 O 0.15072 0.92217 0.73483 0.0
Cd74 Cd 0.1808 0.94322 0.72426 0.0
C75 C 0.19187 0.92054 0.81282 0.0
O76 O 0.18204 0.96408 0.79393 0.0
O77 O 0.20559 0.96568 0.77621 0.0
O78 O 0.17818 0.9553 0.62838 0.0
C79 C 0.19766 0.97215 0.8004 0.0
O80 O 0.18818 0.92657 0.85922 0.0
C81 C 0.18973 0.95419 0.60097 0.0
O82 O 0.18914 0.92363 0.75823 0.0
O83 O 0.1962 0.9468 0.62955 0.0
C84 C 0.76352 0.92272 0.76782 0.0
O85 O 0.76518 0.92831 0.82247 0.0
Cd86 Cd 0.75526 0.94586 0.86155 0.0
O87 O 0.75703 0.92731 0.72564 0.0
Cd88 Cd 0.74715 0.94782 0.71522 0.0
C89 C 0.71465 0.92364 0.80712 0.0
O90 O 0.76494 0.96775 0.78959 0.0
O91 O 0.74403 0.97041 0.76257 0.0
O92 O 0.76416 0.95834 0.6241 0.0
C93 C 0.7571 0.97568 0.79493 0.0
O94 O 0.72483 0.92941 0.85228 0.0
C95 C 0.75326 0.95949 0.59214 0.0
O96 O 0.71965 0.92737 0.75153 0.0
O97 O 0.73897 0.95414 0.61626 0.0
C98 C 0.06697 0.82598 0.78337 0.0
O99 O 0.0636 0.82373 0.84053 0.0
Cd100 Cd 0.04794 0.7973 0.88889 0.0
O101 O 0.06091 0.81375 0.74573 0.0
Cd102 Cd 0.04015 0.78348 0.74827 0.0
C103 C 0.06744 0.77663 0.8267 0.0
O104 O 0.02325 0.78434 0.83014 0.0
O105 O 0.01851 0.75967 0.8073 0.0
O106 O 0.02841 0.79092 0.66338 0.0
C107 C 0.01477 0.76879 0.83962 0.0
O108 O 0.06376 0.78282 0.87263 0.0
C109 C 0.02493 0.77819 0.63076 0.0
O110 O 0.06137 0.77611 0.77335 0.0
O111 O 0.0292 0.76797 0.65173 0.0
C112 C 0.14561 0.22114 0.75675 0.0
O113 O 0.14971 0.2184 0.80957 0.0
Cd114 Cd 0.17737 0.22784 0.84371 0.0
O115 O 0.15643 0.2282 0.71437 0.0
Cd116 Cd 0.1863 0.23752 0.69798 0.0
C117 C 0.195 0.26916 0.79542 0.0
O118 O 0.1885 0.21853 0.76587 0.0
O119 O 0.21205 0.23956 0.74097 0.0
O120 O 0.17769 0.22099 0.60527 0.0
C121 C 0.20419 0.22596 0.77048 0.0
O122 O 0.19087 0.25847 0.8388 0.0
C123 C 0.18947 0.23169 0.57215 0.0
O124 O 0.19363 0.26477 0.73896 0.0
O125 O 0.19935 0.2457 0.59681 0.0
C126 C 0.91206 0.75494 0.23199 0.0
O127 O 0.91354 0.75467 0.17388 0.0
Cd128 Cd 0.92801 0.74402 0.11767 0.0
O129 O 0.91928 0.74959 0.26808 0.0
Cd130 Cd 0.93956 0.73953 0.24921 0.0
C131 C 0.91085 0.70455 0.18018 0.0
O132 O 0.95454 0.75795 0.16504 0.0
O133 O 0.95797 0.73663 0.17343 0.0
O134 O 0.95766 0.75664 0.33175 0.0
C135 C 0.96232 0.75061 0.14831 0.0
O136 O 0.91323 0.71367 0.13284 0.0
C137 C 0.9589 0.74493 0.35742 0.0
O138 O 0.91805 0.711 0.23099 0.0
O139 O 0.95038 0.73042 0.33444 0.0
C140 C 0.22101 0.14608 0.19853 0.0
O141 O 0.2234 0.14686 0.14071 0.0
Cd142 Cd 0.23463 0.17073 0.07726 0.0
O143 O 0.22457 0.15906 0.23025 0.0
Cd144 Cd 0.23444 0.18862 0.19984 0.0
C145 C 0.27163 0.19496 0.15149 0.0
O146 O 0.21799 0.18235 0.10802 0.0
O147 O 0.2376 0.20788 0.11401 0.0
O148 O 0.21541 0.1904 0.27232 0.0
C149 C 0.22461 0.19696 0.08664 0.0
O150 O 0.26439 0.18773 0.10152 0.0
C151 C 0.22628 0.20401 0.29667 0.0
O152 O 0.26333 0.19582 0.19663 0.0
O153 O 0.24113 0.21014 0.27736 0.0
C154 C 0.83277 0.07454 0.21205 0.0
O155 O 0.8323 0.07424 0.15355 0.0
Cd156 Cd 0.80842 0.06047 0.09096 0.0
O157 O 0.81953 0.0666 0.24396 0.0
Cd158 Cd 0.7899 0.04644 0.21693 0.0
C159 C 0.78391 0.07574 0.14903 0.0
O160 O 0.79596 0.03333 0.13344 0.0
O161 O 0.77062 0.02818 0.13503 0.0
O162 O 0.79021 0.02819 0.29565 0.0
C163 C 0.78139 0.02504 0.11225 0.0
O164 O 0.79191 0.07435 0.10375 0.0
C165 C 0.77656 0.02499 0.32065 0.0
O166 O 0.7822 0.06778 0.19898 0.0
O167 O 0.76928 0.03252 0.29919 0.0
C168 C 0.87694 0.39764 0.55101 0.0
O169 O 0.87695 0.39268 0.49638 0.0
Cd170 Cd 0.88708 0.37492 0.46312 0.0
O171 O 0.88194 0.39237 0.59604 0.0
Cd172 Cd 0.89133 0.37142 0.60524 0.0
C173 C 0.92619 0.39643 0.52728 0.0
O174 O 0.87373 0.35141 0.52897 0.0
O175 O 0.89583 0.35042 0.55204 0.0
O176 O 0.8744 0.3591 0.69665 0.0
C177 C 0.88198 0.3439 0.52409 0.0
O178 O 0.91746 0.39078 0.4784 0.0
C179 C 0.88595 0.35864 0.72683 0.0
O180 O 0.91945 0.39242 0.58029 0.0
O181 O 0.90019 0.36505 0.70159 0.0
C182 C 0.58446 0.48718 0.54357 0.0
O183 O 0.58768 0.49158 0.48751 0.0
Cd184 Cd 0.60233 0.51931 0.45027 0.0
O185 O 0.59011 0.49793 0.58699 0.0
Cd186 Cd 0.60993 0.52859 0.59293 0.0
C187 C 0.58143 0.53609 0.52809 0.0
O188 O 0.62732 0.53094 0.50745 0.0
O189 O 0.62973 0.55427 0.53685 0.0
O190 O 0.62456 0.52354 0.67558 0.0
C191 C 0.63475 0.54664 0.50203 0.0
O192 O 0.58547 0.53222 0.47705 0.0
C193 C 0.62604 0.53548 0.70917 0.0
O194 O 0.58767 0.53482 0.57877 0.0
O195 O 0.61919 0.54365 0.69007 0.0
C196 C 0.50093 0.08565 0.57127 0.0
O197 O 0.49919 0.08696 0.5138 0.0
Cd198 Cd 0.47333 0.07725 0.46205 0.0
O199 O 0.48854 0.08024 0.60767 0.0
Cd200 Cd 0.4591 0.07329 0.59843 0.0
C201 C 0.45106 0.03791 0.52677 0.0
O202 O 0.46053 0.09057 0.51268 0.0
O203 O 0.43596 0.07052 0.53465 0.0
O204 O 0.46539 0.09337 0.67928 0.0
C205 C 0.44502 0.08329 0.50218 0.0
O206 O 0.45748 0.04703 0.47927 0.0
C207 C 0.45258 0.08425 0.71142 0.0
O208 O 0.4509 0.04434 0.57862 0.0
O209 O 0.44293 0.06948 0.69222 0.0
C210 C 0.73944 0.57372 0.09887 0.0
O211 O 0.73841 0.57283 0.15727 0.0
Cd212 Cd 0.72342 0.58187 0.21943 0.0
O213 O 0.73147 0.57917 0.06752 0.0
Cd214 Cd 0.71018 0.58732 0.09222 0.0
C215 C 0.73854 0.62198 0.16472 0.0
O216 O 0.69669 0.56762 0.17403 0.0
O217 O 0.69081 0.58746 0.17033 0.0
O218 O 0.69407 0.56902 0.00957 0.0
C219 C 0.68788 0.57362 0.19335 0.0
O220 O 0.73695 0.61231 0.20935 0.0
C221 C 0.69028 0.57909 0.98426 0.0
O222 O 0.73098 0.61612 0.11383 0.0
O223 O 0.69643 0.59359 0.00783 0.0
C224 C 0.4236 0.16911 0.11261 0.0
O225 O 0.42493 0.16813 0.17058 0.0
Cd226 Cd 0.41779 0.1438 0.22972 0.0
O227 O 0.41857 0.15628 0.07829 0.0
Cd228 Cd 0.41156 0.12699 0.09757 0.0
C229 C 0.3776 0.11914 0.17989 0.0
O230 O 0.43158 0.13158 0.17754 0.0
O231 O 0.41131 0.10632 0.16912 0.0
O232 O 0.42807 0.12754 0.01075 0.0
C233 C 0.42517 0.11645 0.19353 0.0
O234 O 0.38731 0.12624 0.22541 0.0
C235 C 0.41671 0.11432 0.98576 0.0
O236 O 0.38334 0.11884 0.12687 0.0
O237 O 0.40248 0.10734 0.01136 0.0
C238 C 0.82201 0.24628 0.12216 0.0
O239 O 0.82352 0.24603 0.1803 0.0
Cd240 Cd 0.84851 0.25893 0.2375 0.0
O241 O 0.83458 0.25476 0.08755 0.0
Cd242 Cd 0.86458 0.27543 0.106 0.0
C243 C 0.87134 0.24487 0.15583 0.0
O244 O 0.86041 0.28638 0.19957 0.0
O245 O 0.88608 0.29408 0.18201 0.0
O246 O 0.86094 0.29325 0.03379 0.0
C247 C 0.87544 0.29514 0.21564 0.0
O248 O 0.8641 0.24523 0.20533 0.0
C249 C 0.87395 0.29705 0.00267 0.0
O250 O 0.87258 0.25408 0.11011 0.0
O251 O 0.88249 0.2903 0.01854 0.0
C252 C 0.42274 0.25167 0.11836 0.0
O253 O 0.42002 0.25337 0.17452 0.0
Cd254 Cd 0.40613 0.26713 0.21222 0.0
O255 O 0.41858 0.25826 0.07509 0.0
Cd256 Cd 0.40734 0.27796 0.0713 0.0
C257 C 0.3703 0.24822 0.1233 0.0
O258 O 0.42138 0.29304 0.1618 0.0
O259 O 0.40204 0.29787 0.1321 0.0
O260 O 0.42834 0.29317 -0.0064 0.0
C261 C 0.41404 0.30136 0.16863 0.0
O262 O 0.37724 0.25107 0.17615 0.0
C263 C 0.41897 0.29625 0.95986 0.0
O264 O 0.37867 0.2556 0.07541 0.0
O265 O 0.40388 0.29009 0.97651 0.0
C266 C 0.73234 0.17346 0.12484 0.0
O267 O 0.72718 0.16945 0.17982 0.0
Cd268 Cd 0.7099 0.14191 0.21664 0.0
O269 O 0.7275 0.16247 0.08234 0.0
Cd270 Cd 0.7068 0.13221 0.07518 0.0
C271 C 0.73148 0.12305 0.15988 0.0
O272 O 0.6868 0.13089 0.14888 0.0
O273 O 0.68547 0.10738 0.12938 0.0
O274 O 0.69542 0.13784 0.98348 0.0
C275 C 0.67915 0.11521 0.15555 0.0
O276 O 0.72598 0.1273 0.20637 0.0
C277 C 0.69389 0.12532 0.95362 0.0
O278 O 0.72748 0.12476 0.10523 0.0
O279 O 0.6994 0.1166 0.97899 0.0
C280 C 0.81363 0.55838 0.06504 0.0
O281 O 0.81875 0.55732 0.11826 0.0
Cd282 Cd 0.84693 0.5681 0.14602 0.0
O283 O 0.82372 0.56462 0.01994 0.0
Cd284 Cd 0.85392 0.57448 0.00551 0.0
C285 C 0.86318 0.6082 0.08948 0.0
O286 O 0.85635 0.55538 0.07338 0.0
O287 O 0.87943 0.57798 0.05698 0.0
O288 O 0.84845 0.55815 0.91233 0.0
C289 C 0.87201 0.56326 0.07841 0.0
O290 O 0.86014 0.59873 0.13623 0.0
C291 C 0.86014 0.56974 0.8815 0.0
O292 O 0.86088 0.6023 0.03511 0.0
O293 O 0.86822 0.58392 0.90732 0.0
C294 C 0.58342 0.08659 0.54213 0.0
O295 O 0.58412 0.0846 0.48449 0.0
Cd296 Cd 0.59651 0.07099 0.43359 0.0
O297 O 0.59044 0.08161 0.58085 0.0
Cd298 Cd 0.60971 0.06988 0.57259 0.0
C299 C 0.57904 0.03371 0.51558 0.0
O300 O 0.62267 0.08472 0.48153 0.0
O301 O 0.62896 0.0658 0.50261 0.0
O302 O 0.62744 0.09021 0.6482 0.0
C303 C 0.63101 0.07775 0.46802 0.0
O304 O 0.58087 0.04169 0.46549 0.0
C305 C 0.62966 0.08002 0.68062 0.0
O306 O 0.58741 0.04113 0.56356 0.0
O307 O 0.6219 0.06477 0.66428 0.0
C308 C 0.88307 0.48122 0.46482 0.0
O309 O 0.88722 0.48437 0.40851 0.0
Cd310 Cd 0.9036 0.51125 0.36478 0.0
O311 O 0.88685 0.49291 0.5038 0.0
Cd312 Cd 0.89957 0.52384 0.5002 0.0
C313 C 0.93693 0.52823 0.46693 0.0
O314 O 0.8896 0.5251 0.39992 0.0
O315 O 0.90786 0.54903 0.43574 0.0
O316 O 0.87658 0.51954 0.56598 0.0
C317 C 0.89791 0.54073 0.39267 0.0
O318 O 0.93115 0.52335 0.41278 0.0
C319 C 0.88541 0.53177 0.60133 0.0
O320 O 0.92773 0.52861 0.50985 0.0
O321 O 0.90096 0.53996 0.59075 0.0
C322 C 0.49844 0.40771 0.55132 0.0
O323 O 0.49708 0.40478 0.49377 0.0
Cd324 Cd 0.47219 0.38801 0.43818 0.0
O325 O 0.48578 0.40079 0.58664 0.0
Cd326 Cd 0.45611 0.37896 0.57157 0.0
C327 C 0.44829 0.40492 0.48827 0.0
O328 O 0.45985 0.36259 0.49348 0.0
O329 O 0.43487 0.35844 0.50138 0.0
O330 O 0.45813 0.36385 0.65878 0.0
C331 C 0.44471 0.35412 0.47795 0.0
O332 O 0.45541 0.40186 0.44387 0.0
C333 C 0.44498 0.3617 0.68522 0.0
O334 O 0.44781 0.39911 0.54201 0.0
O335 O 0.43733 0.36845 0.66025 0.0
C336 C 0.54673 0.7386 0.88583 0.0
O337 O 0.54675 0.73547 0.82884 0.0
Cd338 Cd 0.55781 0.71978 0.78333 0.0
O339 O 0.55228 0.73246 0.92594 0.0
Cd340 Cd 0.56226 0.71191 0.91918 0.0
C341 C 0.59696 0.73961 0.84735 0.0
O342 O 0.54428 0.69434 0.83885 0.0
O343 O 0.56666 0.69298 0.85071 0.0
O344 O 0.54546 0.69561 0.0056 0.0
C345 C 0.55236 0.687 0.82638 0.0
O346 O 0.58827 0.73549 0.7981 0.0
C347 C 0.55731 0.69504 0.03307 0.0
O348 O 0.59021 0.73382 0.89933 0.0
O349 O 0.57169 0.70322 0.0092 0.0
C350 C 0.24294 0.8258 0.937 0.0
O351 O 0.24648 0.82966 0.88069 0.0
Cd352 Cd 0.26363 0.85645 0.84088 0.0
O353 O 0.24911 0.83683 0.97943 0.0
Cd354 Cd 0.2706 0.86727 0.97836 0.0
C355 C 0.24506 0.87732 0.9054 0.0
O356 O 0.28765 0.86455 0.90232 0.0
O357 O 0.29249 0.88971 0.91272 0.0
O358 O 0.28381 0.86251 0.06611 0.0
C359 C 0.29704 0.87983 0.89111 0.0
O360 O 0.24877 0.87191 0.85737 0.0
C361 C 0.28693 0.8758 0.09439 0.0
O362 O 0.25061 0.87635 0.95801 0.0
O363 O 0.28136 0.88464 0.07059 0.0
C364 C 0.17498 0.44069 0.86639 0.0
O365 O 0.17045 0.43982 0.81056 0.0
Cd366 Cd 0.14271 0.42902 0.77483 0.0
O367 O 0.16447 0.43647 0.91019 0.0
Cd368 Cd 0.13434 0.42742 0.91457 0.0
C369 C 0.1249 0.39109 0.84774 0.0
O370 O 0.13247 0.444 0.83211 0.0
O371 O 0.10931 0.42234 0.85681 0.0
O372 O 0.13759 0.44493 0.00369 0.0
C373 C 0.1168 0.43585 0.8266 0.0
O374 O 0.12792 0.39873 0.79625 0.0
C375 C 0.12565 0.43325 0.03338 0.0
O376 O 0.12759 0.399 0.8983 0.0
O377 O 0.11847 0.41886 0.00881 0.0
C378 C 0.39271 0.88596 0.51928 0.0
O379 O 0.39027 0.88645 0.5767 0.0
Cd380 Cd 0.37716 0.90024 0.62412 0.0
O381 O 0.38703 0.89221 0.48019 0.0
Cd382 Cd 0.36887 0.90491 0.4806 0.0
C383 C 0.39893 0.93889 0.55224 0.0
O384 O 0.35224 0.89083 0.5684 0.0
O385 O 0.35007 0.91184 0.53735 0.0
O386 O 0.35311 0.88529 0.40017 0.0
C387 C 0.34571 0.89996 0.57536 0.0
O388 O 0.3949 0.92994 0.60089 0.0
C389 C 0.35191 0.89587 0.36627 0.0
O390 O 0.39223 0.93264 0.50031 0.0
O391 O 0.35942 0.911 0.38414 0.0
C392 C 0.0733 0.49267 0.42185 0.0
O393 O 0.07234 0.49198 0.48027 0.0
Cd394 Cd 0.0612 0.46744 0.54059 0.0
O395 O 0.06905 0.47964 0.38953 0.0
Cd396 Cd 0.0611 0.45016 0.41347 0.0
C397 C 0.02388 0.44257 0.46485 0.0
O398 O 0.07718 0.45556 0.50602 0.0
O399 O 0.05938 0.42961 0.49161 0.0
O400 O 0.08267 0.45468 0.34143 0.0
C401 C 0.07131 0.44061 0.52335 0.0
O402 O 0.0318 0.45065 0.51267 0.0
C403 C 0.07411 0.44137 0.31085 0.0
O404 O 0.03157 0.44105 0.41884 0.0
O405 O 0.05904 0.43207 0.32721 0.0
C406 C 0.48001 0.5841 0.46774 0.0
O407 O 0.48417 0.58626 0.52426 0.0
Cd408 Cd 0.51149 0.60156 0.56353 0.0
O409 O 0.49079 0.59099 0.42504 0.0
Cd410 Cd 0.5211 0.61192 0.41943 0.0
C411 C 0.53085 0.58417 0.47775 0.0
O412 O 0.52064 0.62654 0.50832 0.0
O413 O 0.54542 0.63397 0.47809 0.0
O414 O 0.51259 0.62465 0.34031 0.0
C415 C 0.53607 0.63608 0.5153 0.0
O416 O 0.52592 0.58677 0.52935 0.0
C417 C 0.52518 0.62883 0.30616 0.0
O418 O 0.52967 0.59107 0.42855 0.0
O419 O 0.53557 0.62441 0.32336 0.0
C420 C 0.08745 0.57966 0.43841 0.0
O421 O 0.08504 0.57936 0.49613 0.0
Cd422 Cd 0.07183 0.59191 0.5497 0.0
O423 O 0.08336 0.58791 0.40215 0.0
Cd424 Cd 0.07267 0.60765 0.41903 0.0
C425 C 0.03573 0.57612 0.46558 0.0
O426 O 0.08708 0.61967 0.5133 0.0
O427 O 0.06731 0.62487 0.49387 0.0
O428 O 0.09272 0.62705 0.34593 0.0
C429 C 0.07959 0.6275 0.52754 0.0
O430 O 0.04242 0.57713 0.51798 0.0
C431 C 0.08218 0.62914 0.3153 0.0
O432 O 0.04429 0.5851 0.42057 0.0
O433 O 0.06703 0.62069 0.33173 0.0
C434 C 0.39745 0.50106 0.42884 0.0
O435 O 0.39294 0.49861 0.48493 0.0
Cd436 Cd 0.37523 0.47246 0.53112 0.0
O437 O 0.39152 0.48906 0.39019 0.0
Cd438 Cd 0.36944 0.4592 0.39368 0.0
C439 C 0.39452 0.45084 0.47926 0.0
O440 O 0.35116 0.46091 0.4685 0.0
O441 O 0.34789 0.43636 0.45561 0.0
O442 O 0.35802 0.46454 0.30212 0.0
C443 C 0.34285 0.44549 0.48041 0.0
O444 O 0.39015 0.45674 0.52413 0.0
C445 C 0.35478 0.45107 0.27496 0.0
O446 O 0.38967 0.45113 0.42447 0.0
O447 O 0.35928 0.44168 0.30167 0.0
C448 C 0.47413 0.88671 0.43231 0.0
O449 O 0.4793 0.88699 0.48683 0.0
Cd450 Cd 0.50701 0.89686 0.51936 0.0
O451 O 0.48414 0.89144 0.38666 0.0
Cd452 Cd 0.51441 0.9007 0.37681 0.0
C453 C 0.52479 0.93596 0.45423 0.0
O454 O 0.51615 0.88263 0.45294 0.0
O455 O 0.5395 0.90424 0.43037 0.0
O456 O 0.50983 0.88404 0.28427 0.0
C457 C 0.53182 0.89034 0.45801 0.0
O458 O 0.5217 0.9273 0.50329 0.0
C459 C 0.52217 0.89548 0.25542 0.0
O460 O 0.52192 0.92907 0.40141 0.0
O461 O 0.53014 0.90961 0.28168 0.0
C462 C 0.24578 0.42008 0.8705 0.0
O463 O 0.24793 0.42059 0.81253 0.0
Cd464 Cd 0.26112 0.40865 0.75499 0.0
O465 O 0.25167 0.41325 0.90604 0.0
Cd466 Cd 0.27052 0.40131 0.89288 0.0
C467 C 0.2412 0.36833 0.81433 0.0
O468 O 0.28627 0.41847 0.80881 0.0
O469 O 0.28989 0.39749 0.82484 0.0
O470 O 0.28766 0.41971 0.97301 0.0
C471 C 0.29369 0.4106 0.79413 0.0
O472 O 0.24452 0.37844 0.76947 0.0
C473 C 0.28884 0.40873 0.0044 0.0
O474 O 0.24812 0.37344 0.86684 0.0
O475 O 0.28058 0.3937 0.98561 0.0
C476 C 0.5652 0.82807 0.8709 0.0
O477 O 0.56415 0.82785 0.81247 0.0
Cd478 Cd 0.57577 0.85141 0.7462 0.0
O479 O 0.57182 0.84175 0.9009 0.0
Cd480 Cd 0.58179 0.87157 0.8762 0.0
C481 C 0.61558 0.87402 0.80866 0.0
O482 O 0.565 0.86759 0.78744 0.0
O483 O 0.58494 0.89286 0.79956 0.0
O484 O 0.56155 0.86923 0.94982 0.0
C485 C 0.57238 0.88252 0.7686 0.0
O486 O 0.60581 0.86588 0.76439 0.0
C487 C 0.57119 0.88206 0.98113 0.0
O488 O 0.61008 0.87717 0.85784 0.0
O489 O 0.58641 0.89009 0.96477 0.0
C490 C 0.17189 0.73523 0.8798 0.0
O491 O 0.1695 0.73063 0.82374 0.0
Cd492 Cd 0.14324 0.71177 0.77926 0.0
O493 O 0.16003 0.72894 0.91866 0.0
Cd494 Cd 0.13065 0.70644 0.91872 0.0
C495 C 0.12049 0.72991 0.83023 0.0
O496 O 0.13226 0.68796 0.84418 0.0
O497 O 0.1076 0.68374 0.86225 0.0
O498 O 0.13684 0.6959 0.01115 0.0
C499 C 0.11675 0.67907 0.83539 0.0
O500 O 0.12644 0.72566 0.78516 0.0
C501 C 0.12388 0.69341 0.04006 0.0
O502 O 0.12144 0.72559 0.88523 0.0
O503 O 0.1144 0.6978 0.01349 0.0
H504 H 0.1804 0.97341 0.53708 0.0
H505 H 0.21565 0.95559 0.53566 0.0
H506 H 0.23063 0.97438 0.45028 0.0
H507 H 0.2347 -0.00282 0.38044 0.0
H508 H 0.19927 0.01477 0.38282 0.0
H509 H 0.18352 -0.00509 0.46409 0.0
C510 C 0.19121 0.97343 0.51752 0.0
C511 C 0.19694 0.96319 0.54282 0.0
C512 C 0.19992 0.98445 0.46939 0.0
C513 C 0.21097 0.96337 0.51694 0.0
C514 C 0.21963 0.9742 0.46845 0.0
C515 C 0.22358 -0.00331 0.39906 0.0
C516 C 0.21825 0.00752 0.37627 0.0
C517 C 0.21443 0.98507 0.44529 0.0
C518 C 0.20366 0.0066 0.39991 0.0
C519 C 0.19461 -0.00478 0.44621 0.0
H520 H 0.00804 0.21011 0.6289 0.0
H521 H 0.00491 0.2553 0.62519 0.0
H522 H 0.98439 0.24382 0.54204 0.0
H523 H 0.9686 0.22162 0.46686 0.0
H524 H 0.97276 0.17701 0.46762 0.0
H525 H -0.00855 0.1875 0.5565 0.0
C526 C 0.00283 0.21743 0.61006 0.0
C527 C 0.00806 0.23356 0.63279 0.0
C528 C -0.00882 0.21083 0.56207 0.0
C529 C 0.00116 0.24288 0.60812 0.0
C530 C 0.9894 0.23632 0.56074 0.0
C531 C 0.97339 0.21408 0.48711 0.0
C532 C 0.96934 0.19859 0.46084 0.0
C533 C 0.98447 0.22038 0.53697 0.0
C534 C 0.97573 0.189 0.4871 0.0
C535 C 0.98646 0.19501 0.53768 0.0
H536 H 0.75718 0.74509 0.4097 0.0
H537 H 0.80627 0.78757 0.43656 0.0
H538 H 0.79622 0.7965 0.5248 0.0
H539 H 0.77329 0.79302 0.59067 0.0
H540 H 0.72391 0.75114 0.56198 0.0
H541 H 0.73427 0.74125 0.47748 0.0
C542 C 0.76572 0.75616 0.43548 0.0
C543 C 0.78243 0.76565 0.41688 0.0
C544 C 0.75977 0.76145 0.4851 0.0
C545 C 0.79334 0.78008 0.45011 0.0
C546 C 0.7876 0.78522 0.50034 0.0
C547 C 0.76477 0.78173 0.56594 0.0
C548 C 0.74785 0.77288 0.58228 0.0
C549 C 0.77079 0.77616 0.51752 0.0
C550 C 0.73699 0.75824 0.54999 0.0
C551 C 0.74291 0.75254 0.50186 0.0
H552 H 0.73812 0.97486 0.53735 0.0
H553 H 0.77915 0.9654 0.51729 0.0
H554 H 0.78974 0.98469 0.43023 0.0
H555 H 0.78849 0.00564 0.36527 0.0
H556 H 0.74813 0.01608 0.38678 0.0
H557 H 0.73618 -0.00492 0.46855 0.0
C558 C 0.74918 0.97678 0.51306 0.0
C559 C 0.75785 0.96874 0.53348 0.0
C560 C 0.75548 0.98828 0.46429 0.0
C561 C 0.77229 0.97148 0.50227 0.0
C562 C 0.7784 0.98257 0.45281 0.0
C563 C 0.77708 0.00335 0.38782 0.0
C564 C 0.76929 0.01252 0.37049 0.0
C565 C 0.77032 0.99132 0.43449 0.0
C566 C 0.75443 0.00928 0.39971 0.0
C567 C 0.74756 -0.00276 0.44624 0.0
H568 H 0.00591 0.74826 0.57472 0.0
H569 H 0.02128 0.80066 0.56139 0.0
H570 H 0.00209 0.79491 0.47557 0.0
H571 H 0.98011 0.77495 0.40776 0.0
H572 H 0.96401 0.7224 0.42205 0.0
H573 H 0.98419 0.72823 0.5047 0.0
C574 C 0.00522 0.75843 0.55231 0.0
C575 C 0.01499 0.77484 0.57409 0.0
C576 C -0.00615 0.75498 0.504 0.0
C577 C 0.01386 0.7879 0.54532 0.0
C578 C 0.00284 0.78463 0.49649 0.0
C579 C 0.98096 0.76475 0.42908 0.0
C580 C 0.97051 0.74827 0.40917 0.0
C581 C -0.00741 0.76819 0.47622 0.0
C582 C 0.97185 0.7352 0.4369 0.0
C583 C 0.98343 0.73853 0.48393 0.0
H584 H 0.19549 0.19438 0.34132 0.0
H585 H 0.24706 0.23268 0.35893 0.0
H586 H 0.23971 0.24611 0.44052 0.0
H587 H 0.21898 0.24566 0.51223 0.0
H588 H 0.16769 0.20653 0.49778 0.0
H589 H 0.17452 0.19496 0.40836 0.0
C590 C 0.20512 0.2057 0.36285 0.0
C591 C 0.22181 0.21241 0.34469 0.0
C592 C 0.20083 0.21328 0.40988 0.0
C593 C 0.23413 0.22717 0.37254 0.0
C594 C 0.22993 0.2349 0.41904 0.0
C595 C 0.20924 0.23483 0.48857 0.0
C596 C 0.19288 0.22692 0.51142 0.0
C597 C 0.21336 0.22791 0.43868 0.0
C598 C 0.18039 0.2128 0.48092 0.0
C599 C 0.1843 0.20612 0.43012 0.0
H600 H 0.90466 0.34704 0.78 0.0
H601 H 0.85914 0.34872 0.80251 0.0
H602 H 0.85164 0.33002 0.89133 0.0
H603 H 0.85727 0.31203 0.95831 0.0
H604 H 0.90217 0.30929 0.93278 0.0
H605 H 0.91062 0.32953 0.84866 0.0
C606 C 0.89323 0.34352 0.80496 0.0
C607 C 0.88248 0.34927 0.78502 0.0
C608 C 0.88878 0.33241 0.85465 0.0
C609 C 0.86761 0.34446 0.81719 0.0
C610 C 0.86329 0.33372 0.8677 0.0
C611 C 0.86892 0.31586 0.93441 0.0
C612 C 0.87904 0.30912 0.95147 0.0
C613 C 0.87363 0.32739 0.88604 0.0
C614 C 0.89411 0.31423 0.9202 0.0
C615 C 0.89898 0.32584 0.8723 0.0
H616 H 0.63925 0.56525 0.76839 0.0
H617 H 0.63699 0.51735 0.77292 0.0
H618 H 0.65687 0.52682 0.85825 0.0
H619 H 0.67545 0.54886 0.9289 0.0
H620 H 0.67843 0.59708 0.92331 0.0
H621 H 0.6578 0.58736 0.84017 0.0
C622 C 0.64295 0.55682 0.78863 0.0
C623 C 0.63663 0.54061 0.76471 0.0
C624 C 0.65466 0.56247 0.83668 0.0
C625 C 0.64168 0.52988 0.79071 0.0
C626 C 0.65309 0.5353 0.83926 0.0
C627 C 0.67164 0.55729 0.90943 0.0
C628 C 0.6785 0.57368 0.93203 0.0
C629 C 0.6598 0.55162 0.86202 0.0
C630 C 0.6734 0.58442 0.90643 0.0
C631 C 0.66155 0.57885 0.85914 0.0
H632 H 0.42261 0.07211 0.76826 0.0
H633 H 0.47366 0.11216 0.7754 0.0
H634 H 0.46684 0.12524 0.85963 0.0
H635 H 0.44644 0.1256 0.92968 0.0
H636 H 0.39523 0.08591 0.9229 0.0
H637 H 0.40201 0.0725 0.83924 0.0
C638 C 0.43225 0.08359 0.78881 0.0
C639 C 0.44861 0.09113 0.76596 0.0
C640 C 0.42819 0.09122 0.83652 0.0
C641 C 0.46097 0.10612 0.79233 0.0
C642 C 0.45708 0.11364 0.84029 0.0
C643 C 0.43671 0.11406 0.9097 0.0
C644 C 0.42035 0.10679 0.93226 0.0
C645 C 0.44072 0.10638 0.86228 0.0
C646 C 0.40792 0.0918 0.90608 0.0
C647 C 0.4118 0.08408 0.85851 0.0
H648 H 0.45873 0.34565 0.74429 0.0
H649 H 0.41594 0.35273 0.74679 0.0
H650 H 0.40372 0.33241 0.83045 0.0
H651 H 0.40507 0.31237 0.90167 0.0
H652 H 0.44817 0.30581 0.89989 0.0
H653 H 0.4603 0.32607 0.81621 0.0
C654 C 0.44678 0.34285 0.76339 0.0
C655 C 0.43826 0.35068 0.73944 0.0
C656 C 0.4398 0.33111 0.81096 0.0
C657 C 0.42278 0.34691 0.76463 0.0
C658 C 0.41574 0.33523 0.81219 0.0
C659 C 0.41704 0.31527 0.88251 0.0
C660 C 0.42567 0.30754 0.90647 0.0
C661 C 0.42408 0.32715 0.83528 0.0
C662 C 0.44128 0.31157 0.88197 0.0
C663 C 0.44824 0.32319 0.83435 0.0
H664 H 0.67859 0.09434 0.9041 0.0
H665 H 0.68704 0.14428 0.87562 0.0
H666 H 0.66785 0.13457 0.78798 0.0
H667 H 0.64771 0.11169 0.72319 0.0
H668 H 0.63831 0.06149 0.75432 0.0
H669 H 0.65873 0.07148 0.83803 0.0
C670 C 0.67644 0.10314 0.87802 0.0
C671 C 0.68425 0.12 0.89589 0.0
C672 C 0.66503 0.09738 0.82904 0.0
C673 C 0.68118 0.13124 0.86245 0.0
C674 C 0.67015 0.12568 0.81265 0.0
C675 C 0.65009 0.10292 0.74835 0.0
C676 C 0.64145 0.08587 0.73284 0.0
C677 C 0.6618 0.10873 0.7963 0.0
C678 C 0.64472 0.07467 0.76569 0.0
C679 C 0.65645 0.08038 0.81331 0.0
H680 H 0.89815 0.56202 0.65573 0.0
H681 H 0.85554 0.5123 0.65723 0.0
H682 H 0.84309 0.5202 0.74086 0.0
H683 H 0.8451 0.54079 0.81682 0.0
H684 H 0.88754 0.59068 0.81411 0.0
H685 H 0.89911 0.58326 0.72641 0.0
C686 C 0.88615 0.55293 0.67451 0.0
C687 C 0.87786 0.53656 0.65123 0.0
C688 C 0.87899 0.55762 0.72175 0.0
C689 C 0.86218 0.52496 0.67489 0.0
C690 C 0.85506 0.52947 0.72252 0.0
C691 C 0.85676 0.55012 0.79646 0.0
C692 C 0.86552 0.56621 0.82217 0.0
C693 C 0.86343 0.54572 0.74664 0.0
C694 C 0.88056 0.57819 0.79514 0.0
C695 C 0.88725 0.57393 0.74531 0.0
H696 H 0.55468 0.64827 0.24957 0.0
H697 H 0.5026 0.63389 0.24311 0.0
H698 H 0.50809 0.65363 0.15911 0.0
H699 H 0.52772 0.67518 0.08882 0.0
H700 H 0.57995 0.69013 0.09707 0.0
H701 H 0.5744 0.67012 0.18001 0.0
C702 C 0.54452 0.64933 0.22924 0.0
C703 C 0.52826 0.63959 0.252 0.0
C704 C 0.54782 0.66096 0.18209 0.0
C705 C 0.51522 0.64125 0.22607 0.0
C706 C 0.51836 0.65257 0.1783 0.0
C707 C 0.53791 0.67416 0.10908 0.0
C708 C 0.55422 0.68414 0.08697 0.0
C709 C 0.53463 0.66258 0.15638 0.0
C710 C 0.56729 0.68264 0.11352 0.0
C711 C 0.56412 0.67113 0.16066 0.0
H712 H 0.33756 0.91199 0.31167 0.0
H713 H 0.34125 0.8672 0.3008 0.0
H714 H 0.32084 0.85672 0.21717 0.0
H715 H 0.30171 0.86009 0.14868 0.0
H716 H 0.29741 0.90454 0.1606 0.0
H717 H 0.3181 0.91523 0.24342 0.0
C718 C 0.33404 0.90004 0.29039 0.0
C719 C 0.34095 0.89042 0.31185 0.0
C720 C 0.32201 0.89392 0.24345 0.0
C721 C 0.33611 0.87484 0.28475 0.0
C722 C 0.32439 0.86881 0.23723 0.0
C723 C 0.30518 0.87206 0.16971 0.0
C724 C 0.29801 0.88149 0.14869 0.0
C725 C 0.31715 0.87817 0.2167 0.0
C726 C 0.30269 0.897 0.17625 0.0
C727 C 0.31459 0.90317 0.22327 0.0
H728 H 0.1051 0.46007 0.26423 0.0
H729 H 0.05992 0.41268 0.24252 0.0
H730 H 0.07256 0.40546 0.15758 0.0
H731 H 0.09602 0.41306 0.08762 0.0
H732 H 0.14074 0.46095 0.10658 0.0
H733 H 0.12873 0.46745 0.19556 0.0
C734 C 0.09801 0.44814 0.24101 0.0
C735 C 0.08158 0.43694 0.25939 0.0
C736 C 0.10529 0.44414 0.19216 0.0
C737 C 0.07256 0.42154 0.22893 0.0
C738 C 0.07979 0.41739 0.18056 0.0
C739 C 0.10323 0.42484 0.1117 0.0
C740 C 0.11925 0.43651 0.09078 0.0
C741 C 0.09611 0.42864 0.16163 0.0
C742 C 0.12838 0.45178 0.12195 0.0
C743 C 0.12151 0.45552 0.1726 0.0
H744 H 0.11353 0.64893 0.27307 0.0
H745 H 0.06251 0.63667 0.24353 0.0
H746 H 0.07125 0.6569 0.15937 0.0
H747 H 0.0932 0.67708 0.09133 0.0
H748 H 0.14402 0.68843 0.11843 0.0
H749 H 0.13556 0.66974 0.2074 0.0
C750 C 0.10432 0.65068 0.24825 0.0
C751 C 0.0874 0.64124 0.26415 0.0
C752 C 0.1094 0.66225 0.1999 0.0
C753 C 0.07561 0.64371 0.23183 0.0
C754 C 0.08059 0.65531 0.18388 0.0
C755 C 0.10246 0.67567 0.11738 0.0
C756 C 0.11919 0.6841 0.09857 0.0
C757 C 0.09744 0.66456 0.16728 0.0
C758 C 0.13104 0.68204 0.13216 0.0
C759 C 0.12621 0.67131 0.18278 0.0
H760 H 0.3365 0.41962 0.22963 0.0
H761 H 0.34992 0.4709 0.19501 0.0
H762 H 0.3304 0.46213 0.10877 0.0
H763 H 0.30891 0.44 0.04621 0.0
H764 H 0.29476 0.38853 0.0808 0.0
H765 H 0.31507 0.39727 0.16501 0.0
C766 C 0.33532 0.42887 0.20253 0.0
C767 C 0.34466 0.44588 0.21833 0.0
C768 C 0.32378 0.42371 0.15392 0.0
C769 C 0.34287 0.45774 0.18355 0.0
C770 C 0.33166 0.45274 0.1345 0.0
C771 C 0.31018 0.43065 0.07227 0.0
C772 C 0.30028 0.41364 0.05758 0.0
C773 C 0.32189 0.43575 0.11997 0.0
C774 C 0.30217 0.4017 0.09155 0.0
C775 C 0.31384 0.4067 0.13941 0.0
H776 H 0.55294 0.91338 0.20574 0.0
H777 H 0.50505 0.86932 0.17711 0.0
H778 H 0.51612 0.86152 0.08873 0.0
H779 H 0.53962 0.86644 0.02364 0.0
H780 H 0.58791 0.90982 0.05411 0.0
H781 H 0.57646 0.91863 0.13863 0.0
C782 C 0.54486 0.90221 0.17952 0.0
C783 C 0.52819 0.89195 0.19761 0.0
C784 C 0.55143 0.89758 0.12995 0.0
C785 C 0.51792 0.87741 0.16389 0.0
C786 C 0.52425 0.87291 0.11362 0.0
C787 C 0.54767 0.87784 0.04868 0.0
C788 C 0.56461 0.88743 0.03289 0.0
C789 C 0.54105 0.88275 0.09702 0.0
C790 C 0.57485 0.90217 0.06569 0.0
C791 C 0.5683 0.90724 0.11379 0.0
H792 H 0.22375 0.97801 0.87368 0.0
H793 H 0.18726 -0.00672 0.83962 0.0
H794 H 0.19577 0.01011 0.93365 0.0
H795 H 0.21176 0.01837 0.02926 0.0
H796 H 0.24737 0.00211 0.06682 0.0
H797 H 0.2409 0.98757 0.9676 0.0
C798 C 0.21794 0.98534 0.88625 0.0
C799 C 0.20494 0.9845 0.8501 0.0
C800 C 0.22249 -0.00553 0.94138 0.0
C801 C 0.19731 -0.0062 0.86704 0.0
C802 C 0.20209 0.00331 0.92085 0.0
C803 C 0.21814 0.01168 0.01577 0.0
C804 C 0.22989 0.01116 0.05544 0.0
C805 C 0.21433 0.00334 0.95913 0.0
C806 C 0.23816 0.00256 0.03714 0.0
C807 C 0.23452 -0.00569 0.98041 0.0
H808 H 0.98898 0.19746 0.12328 0.0
H809 H 0.98076 0.23893 0.15726 0.0
H810 H -0.00329 0.253 0.06467 0.0
H811 H 0.01204 0.25285 0.97151 0.0
H812 H 0.02025 0.21124 0.94038 0.0
H813 H 0.00507 0.19781 0.03416 0.0
C814 C -0.00922 0.20963 0.11072 0.0
C815 C 0.98366 0.2171 0.14668 0.0
C816 C -0.00021 0.21754 0.05758 0.0
C817 C 0.98618 0.23293 0.13019 0.0
C818 C -0.00481 0.24094 0.07712 0.0
C819 C 0.01043 0.24084 0.98534 0.0
C820 C 0.01715 0.233 0.94908 0.0
C821 C 0.00185 0.23323 0.03994 0.0
C822 C 0.01518 0.21752 0.96766 0.0
C823 C 0.00653 0.20982 0.02126 0.0
H824 H 0.76526 0.7972 0.92193 0.0
H825 H 0.72572 0.74619 0.90056 0.0
H826 H 0.7341 0.73864 -0.00275 0.0
H827 H 0.75336 0.74653 0.0857 0.0
H828 H 0.79339 0.79745 0.10313 0.0
H829 H 0.78388 0.80516 0.01016 0.0
C830 C 0.75842 0.78441 0.93835 0.0
C831 C 0.74493 0.77225 0.90418 0.0
C832 C 0.76332 0.78021 -0.00665 0.0
C833 C 0.73621 0.75575 0.92605 0.0
C834 C 0.74096 0.75146 0.98133 0.0
C835 C 0.75983 0.75935 0.06954 0.0
C836 C 0.77402 0.77144 0.10103 0.0
C837 C 0.75455 0.76359 0.01518 0.0
C838 C 0.78244 0.78796 0.07941 0.0
C839 C 0.77706 0.79235 0.02626 0.0
H840 H 0.78161 0.98517 0.87884 0.0
H841 H 0.73897 0.99029 0.83196 0.0
H842 H 0.74223 0.00554 0.9281 0.0
H843 H 0.7569 0.01674 0.02688 0.0
H844 H 0.79952 0.01137 0.07165 0.0
H845 H 0.79633 -0.00346 0.97517 0.0
C846 C 0.77308 0.98972 0.88932 0.0
C847 C 0.76006 0.98659 0.84857 0.0
C848 C 0.77487 -0.00181 0.94468 0.0
C849 C 0.74914 0.99259 0.86269 0.0
C850 C 0.75092 0.0012 0.91778 0.0
C851 C 0.76536 0.01217 0.0156 0.0
C852 C 0.77836 0.01503 0.05615 0.0
C853 C 0.76362 0.00387 0.95949 0.0
C854 C 0.7894 0.00927 0.04093 0.0
C855 C 0.78764 0.00086 0.98578 0.0
H856 H 0.00634 0.78623 0.91685 0.0
H857 H -0.00104 0.7368 0.88466 0.0
H858 H 0.98259 0.72685 0.97957 0.0
H859 H 0.97063 0.73243 0.07218 0.0
H860 H 0.97789 0.78192 0.10169 0.0
H861 H -0.00567 0.7917 0.0075 0.0
C862 C 0.00111 0.77325 0.93039 0.0
C863 C 0.00386 0.76227 0.89398 0.0
C864 C -0.00814 0.76769 0.98479 0.0
C865 C -0.00304 0.74549 0.91198 0.0
C866 C 0.98768 0.73982 0.96633 0.0
C867 C 0.97595 0.74537 0.05816 0.0
C868 C 0.97315 0.75647 0.09374 0.0
C869 C 0.98516 0.75086 0.00331 0.0
C870 C 0.97991 0.77316 0.07488 0.0
C871 C 0.98926 0.77876 0.02103 0.0
H872 H 0.24161 0.22334 0.00897 0.0
H873 H 0.19512 0.1772 0.03085 0.0
H874 H 0.1855 0.18134 0.93137 0.0
H875 H 0.18974 0.1984 0.84069 0.0
H876 H 0.23579 0.24482 0.8172 0.0
H877 H 0.24638 0.23999 0.91412 0.0
C878 C 0.22936 0.21426 0.99188 0.0
C879 C 0.21902 0.20007 0.0272 0.0
C880 C 0.22394 0.21663 0.93422 0.0
C881 C 0.20328 0.18825 0.00445 0.0
C882 C 0.19779 0.19057 0.94754 0.0
C883 C 0.20218 0.20739 0.85636 0.0
C884 C 0.21191 0.22198 0.82229 0.0
C885 C 0.20797 0.20473 0.91231 0.0
C886 C 0.22806 0.23346 0.84277 0.0
C887 C 0.23405 0.23078 0.89837 0.0
H888 H 0.90372 0.33883 0.45614 0.0
H889 H 0.85146 0.32228 0.47944 0.0
H890 H 0.84486 0.30505 0.38689 0.0
H891 H 0.85407 0.29651 0.29608 0.0
H892 H 0.90636 0.31386 0.2681 0.0
H893 H 0.91291 0.32915 0.36605 0.0
C894 C 0.89088 0.33118 0.44149 0.0
C895 C 0.87805 0.33172 0.47429 0.0
C896 C 0.88725 0.32174 0.38716 0.0
C897 C 0.86148 0.322 0.45464 0.0
C898 C 0.85773 0.31224 0.40171 0.0
C899 C 0.86692 0.30358 0.31136 0.0
C900 C 0.87974 0.30418 0.27482 0.0
C901 C 0.87054 0.31234 0.36696 0.0
C902 C 0.8963 0.31332 0.2954 0.0
C903 C 0.90003 0.322 0.35136 0.0
H904 H 0.67736 0.58893 0.27472 0.0
H905 H 0.67469 0.54185 0.2335 0.0
H906 H 0.65849 0.5296 0.32669 0.0
H907 H 0.64544 0.53226 0.41981 0.0
H908 H 0.64806 0.57915 0.4639 0.0
H909 H 0.66421 0.59161 0.36997 0.0
C910 C 0.67307 0.57595 0.28603 0.0
C911 C 0.67712 0.56625 0.24742 0.0
C912 C 0.66398 0.56905 0.34036 0.0
C913 C 0.67171 0.54953 0.26268 0.0
C914 C 0.6625 0.54253 0.31597 0.0
C915 C 0.64958 0.54524 0.40909 0.0
C916 C 0.64556 0.55477 0.44853 0.0
C917 C 0.65868 0.55221 0.35524 0.0
C918 C 0.65106 0.57158 0.43418 0.0
C919 C 0.66021 0.57867 0.3804 0.0
H920 H 0.40809 0.08982 0.26874 0.0
H921 H 0.45653 0.13305 0.23986 0.0
H922 H 0.46687 0.1267 0.33391 0.0
H923 H 0.462 0.10922 0.42472 0.0
H924 H 0.41336 0.06644 0.45594 0.0
H925 H 0.40313 0.07242 0.3607 0.0
C926 C 0.42094 0.09773 0.28279 0.0
C927 C 0.43158 0.11181 0.24754 0.0
C928 C 0.42668 0.09423 0.3375 0.0
C929 C 0.44814 0.12213 0.26647 0.0
C930 C 0.45404 0.11854 0.3202 0.0
C931 C 0.44914 0.10122 0.41082 0.0
C932 C 0.43846 0.08741 0.44713 0.0
C933 C 0.44338 0.10471 0.35626 0.0
C934 C 0.42182 0.07719 0.42872 0.0
C935 C 0.41598 0.08054 0.3742 0.0
H936 H 0.4382 0.30903 0.25221 0.0
H937 H 0.39707 0.31699 0.20907 0.0
H938 H 0.40222 0.33325 0.30418 0.0
H939 H 0.41881 0.34542 0.39887 0.0
H940 H 0.46023 0.33762 0.43841 0.0
H941 H 0.45434 0.32071 0.34549 0.0
C942 C 0.43033 0.31431 0.26344 0.0
C943 C 0.41728 0.31184 0.22381 0.0
C944 C 0.43332 0.3235 0.31774 0.0
C945 C 0.40724 0.3188 0.2389 0.0
C946 C 0.41013 0.32801 0.29331 0.0
C947 C 0.42638 0.33982 0.38739 0.0
C948 C 0.4399 0.34267 0.42523 0.0
C949 C 0.42314 0.33041 0.33311 0.0
C950 C 0.44977 0.33557 0.40973 0.0
C951 C 0.44645 0.32597 0.35663 0.0
H952 H 0.67411 0.08923 0.22877 0.0
H953 H 0.6576 0.12486 0.19521 0.0
H954 H 0.64061 0.1157 0.28842 0.0
H955 H 0.63238 0.09941 0.38247 0.0
H956 H 0.64952 0.06447 0.42077 0.0
H957 H 0.66456 0.07163 0.32231 0.0
C958 C 0.6665 0.0947 0.24135 0.0
C959 C 0.667 0.10765 0.20551 0.0
C960 C 0.6572 0.08975 0.29605 0.0
C961 C 0.65734 0.11487 0.22241 0.0
C962 C 0.64773 0.10971 0.2757 0.0
C963 C 0.63937 0.09329 0.36942 0.0
C964 C 0.63999 0.08155 0.40895 0.0
C965 C 0.64792 0.09749 0.31351 0.0
C966 C 0.64897 0.07365 0.39112 0.0
C967 C 0.65751 0.0777 0.33489 0.0
H968 H 0.88419 0.52455 0.28691 0.0
H969 H 0.9107 0.57395 0.36617 0.0
H970 H 0.9075 0.58592 0.26955 0.0
H971 H 0.89418 0.58171 0.16722 0.0
H972 H 0.86625 0.53189 0.09276 0.0
H973 H 0.87338 0.52066 0.18249 0.0
C974 C 0.88937 0.53796 0.28303 0.0
C975 C 0.89738 0.54835 0.33372 0.0
C976 C 0.88733 0.54464 0.22808 0.0
C977 C 0.90431 0.56571 0.32774 0.0
C978 C 0.9025 0.57254 0.27261 0.0
C979 C 0.89013 0.56849 0.17003 0.0
C980 C 0.87979 0.55756 0.12389 0.0
C981 C 0.89367 0.56206 0.223 0.0
C982 C 0.87429 0.54043 0.12803 0.0
C983 C 0.87823 0.53402 0.17939 0.0
H984 H 0.51764 0.63962 0.60289 0.0
H985 H 0.56856 0.65543 0.55362 0.0
H986 H 0.57822 0.67167 0.64945 0.0
H987 H 0.57194 0.68187 0.74582 0.0
H988 H 0.52079 0.66618 0.79085 0.0
H989 H 0.51138 0.64898 0.69814 0.0
C990 C 0.53088 0.6466 0.6129 0.0
C991 C 0.54239 0.64639 0.57128 0.0
C992 C 0.53624 0.65574 0.66752 0.0
C993 C 0.55948 0.65549 0.58499 0.0
C994 C 0.56498 0.66469 0.63978 0.0
C995 C 0.55875 0.67445 0.73563 0.0
C996 C 0.54702 0.67518 0.77481 0.0
C997 C 0.55345 0.66492 0.68134 0.0
C998 C 0.52998 0.66576 0.76106 0.0
C999 C 0.52461 0.65601 0.70808 0.0
H1000 H 0.30415 0.90281 0.80075 0.0
H1001 H 0.31681 0.8667 0.87054 0.0
H1002 H 0.3334 0.87007 0.77866 0.0
H1003 H 0.34229 0.8814 0.6758 0.0
H1004 H 0.3292 0.91691 0.60258 0.0
H1005 H 0.31455 0.91552 0.6984 0.0
C1006 C 0.31089 0.89603 0.79624 0.0
C1007 C 0.3094 0.8846 0.84196 0.0
C1008 C 0.31995 0.89762 0.74235 0.0
C1009 C 0.31789 0.8756 0.83559 0.0
C1010 C 0.32725 0.87742 0.78305 0.0
C1011 C 0.33621 0.88883 0.68066 0.0
C1012 C 0.33663 0.89908 0.63213 0.0
C1013 C 0.32796 0.88803 0.73552 0.0
C1014 C 0.32891 0.90881 0.63935 0.0
C1015 C 0.32061 0.90808 0.69411 0.0
H1016 H 0.08898 0.41403 0.7638 0.0
H1017 H 0.12683 0.46602 0.77469 0.0
H1018 H 0.11558 0.47208 0.68251 0.0
H1019 H 0.09622 0.46239 0.5962 0.0
H1020 H 0.05901 0.41026 0.58095 0.0
H1021 H 0.06888 0.40439 0.67764 0.0
C1022 C 0.09457 0.42671 0.74643 0.0
C1023 C 0.10866 0.4396 0.77577 0.0
C1024 C 0.08833 0.43001 0.69242 0.0
C1025 C 0.11597 0.45593 0.75259 0.0
C1026 C 0.10959 0.45938 0.6999 0.0
C1027 C 0.09021 0.44973 0.61401 0.0
C1028 C 0.07696 0.43676 0.58147 0.0
C1029 C 0.09599 0.44647 0.66891 0.0
C1030 C 0.0693 0.42044 0.60513 0.0
C1031 C 0.0749 0.41709 0.66041 0.0
H1032 H 0.08905 0.67016 0.7668 0.0
H1033 H 0.13069 0.6617 0.7887 0.0
H1034 H 0.12242 0.64451 0.69567 0.0
H1035 H 0.10452 0.63343 0.60567 0.0
H1036 H 0.0635 0.64268 0.57969 0.0
H1037 H 0.07048 0.65825 0.67697 0.0
C1038 C 0.09613 0.6643 0.75163 0.0
C1039 C 0.11042 0.66709 0.78427 0.0
C1040 C 0.09158 0.65486 0.69719 0.0
C1041 C 0.11966 0.65968 0.76401 0.0
C1042 C 0.11498 0.64994 0.71084 0.0
C1043 C 0.09705 0.63881 0.62125 0.0
C1044 C 0.08356 0.63698 0.58559 0.0
C1045 C 0.10117 0.64773 0.67655 0.0
C1046 C 0.07401 0.64401 0.60635 0.0
C1047 C 0.07796 0.65285 0.66195 0.0
H1048 H 0.29965 0.43548 0.71527 0.0
H1049 H 0.30892 0.39443 0.74323 0.0
H1050 H 0.32386 0.40076 0.64491 0.0
H1051 H 0.33482 0.41849 0.55262 0.0
H1052 H 0.32593 0.45988 0.52757 0.0
H1053 H 0.3099 0.45261 0.62308 0.0
C1054 C 0.30495 0.4279 0.70001 0.0
C1055 C 0.30326 0.41456 0.73643 0.0
C1056 C 0.31339 0.43155 0.6438 0.0
C1057 C 0.31014 0.40483 0.71598 0.0
C1058 C 0.3186 0.40839 0.65975 0.0
C1059 C 0.32914 0.42574 0.56767 0.0
C1060 C 0.33147 0.43966 0.53332 0.0
C1061 C 0.32031 0.42174 0.62335 0.0
C1062 C 0.32426 0.4491 0.55349 0.0
C1063 C 0.31519 0.44501 0.60811 0.0
H1064 H 0.54891 0.8614 0.68954 0.0
H1065 H 0.58608 0.91327 0.71335 0.0
H1066 H 0.57806 0.92004 0.61436 0.0
H1067 H 0.5592 0.91134 0.52459 0.0
H1068 H 0.52139 0.85957 0.50473 0.0
H1069 H 0.53123 0.85253 0.59847 0.0
C1070 C 0.55531 0.8742 0.67313 0.0
C1071 C 0.56795 0.88685 0.70884 0.0
C1072 C 0.5506 0.87796 0.61678 0.0
C1073 C 0.57621 0.90334 0.68673 0.0
C1074 C 0.57167 0.9072 0.63016 0.0
C1075 C 0.55336 0.89848 0.54022 0.0
C1076 C 0.53962 0.88595 0.50812 0.0
C1077 C 0.55875 0.89463 0.59516 0.0
C1078 C 0.53199 0.86938 0.52901 0.0
C1079 C 0.53754 0.86537 0.58263 0.0
H1080 H 0.35421 0.11061 0.0912 0.0
H1081 H 0.36011 0.10883 0.28809 0.0
H1082 H 0.32982 0.0933 0.30072 0.0
H1083 H 0.30165 0.07935 0.25489 0.0
H1084 H 0.29632 0.08206 0.05783 0.0
H1085 H 0.32641 0.09812 0.04641 0.0
C1086 C 0.34889 0.10685 0.13694 0.0
C1087 C 0.35937 0.11073 0.18853 0.0
C1088 C 0.33156 0.09805 0.14385 0.0
C1089 C 0.35228 0.10599 0.24758 0.0
C1090 C 0.33498 0.09706 0.25482 0.0
C1091 C 0.30709 0.08349 0.20952 0.0
C1092 C 0.29673 0.07941 0.15733 0.0
C1093 C 0.32449 0.09288 0.20315 0.0
C1094 C 0.30397 0.08502 0.09888 0.0
C1095 C 0.3212 0.09418 0.09217 0.0
H1096 H 0.87348 0.2261 0.24784 0.0
H1097 H 0.88651 0.23955 0.05684 0.0
H1098 H 0.9011 0.22356 0.05477 0.0
H1099 H 0.91189 0.20758 0.10946 0.0
H1100 H 0.89976 0.1953 0.3017 0.0
H1101 H 0.88293 0.20894 0.30068 0.0
C1102 C 0.87938 0.22545 0.20552 0.0
C1103 C 0.87902 0.23414 0.15277 0.0
C1104 C 0.88795 0.21649 0.20489 0.0
C1105 C 0.8867 0.23308 0.0983 0.0
C1106 C 0.89504 0.22394 0.09704 0.0
C1107 C 0.90538 0.20769 0.1509 0.0
C1108 C 0.90716 0.20054 0.20566 0.0
C1109 C 0.896 0.21586 0.1504 0.0
C1110 C 0.8987 0.20084 0.25905 0.0
C1111 C 0.88908 0.20864 0.25856 0.0
H1112 H 0.7496 0.64593 0.07572 0.0
H1113 H 0.75095 0.63909 0.27233 0.0
H1114 H 0.76697 0.66927 0.28692 0.0
H1115 H 0.7796 0.69756 0.24457 0.0
H1116 H 0.77867 0.70451 0.04788 0.0
H1117 H 0.76359 0.6743 0.03272 0.0
C1118 C 0.75342 0.65104 0.12175 0.0
C1119 C 0.74896 0.64026 0.17285 0.0
C1120 C 0.76271 0.66841 0.12987 0.0
C1121 C 0.75419 0.64709 0.23213 0.0
C1122 C 0.76333 0.66435 0.2406 0.0
C1123 C 0.77617 0.69249 0.19832 0.0
C1124 C 0.78015 0.7033 0.14754 0.0
C1125 C 0.76751 0.67512 0.18988 0.0
C1126 C 0.77576 0.69649 0.08786 0.0
C1127 C 0.76708 0.67921 0.07912 0.0
H1128 H 0.09303 0.31454 0.90692 0.0
H1129 H 0.07508 0.31054 0.7202 0.0
H1130 H 0.0904 0.34093 0.71034 0.0
H1131 H 0.10804 0.36871 0.75633 0.0
H1132 H 0.12499 0.37237 0.94436 0.0
H1133 H 0.11102 0.34202 0.95177 0.0
C1134 C 0.0925 0.32028 0.86391 0.0
C1135 C 0.08287 0.31026 0.81451 0.0
C1136 C 0.10118 0.33772 0.85872 0.0
C1137 C 0.08234 0.31795 0.75914 0.0
C1138 C 0.09111 0.33533 0.75339 0.0
C1139 C 0.10881 0.36285 0.79864 0.0
C1140 C 0.1175 0.37277 0.84971 0.0
C1141 C 0.10047 0.34535 0.80307 0.0
C1142 C 0.11829 0.36501 0.90446 0.0
C1143 C 0.1103 0.34766 0.90881 0.0
H1144 H 0.67438 0.78126 0.88638 0.0
H1145 H 0.67385 0.76963 0.69311 0.0
H1146 H 0.64349 0.75629 0.69172 0.0
H1147 H 0.61703 0.74627 0.74727 0.0
H1148 H 0.61787 0.75701 0.94155 0.0
H1149 H 0.64822 0.7725 0.94036 0.0
C1150 C 0.66768 0.77593 0.84374 0.0
C1151 C 0.67639 0.77634 0.79008 0.0
C1152 C 0.65026 0.76808 0.84345 0.0
C1153 C 0.66746 0.7694 0.73525 0.0
C1154 C 0.65009 0.76176 0.73437 0.0
C1155 C 0.62386 0.7522 0.78911 0.0
C1156 C 0.61522 0.75042 0.84445 0.0
C1157 C 0.64135 0.7608 0.78847 0.0
C1158 C 0.62424 0.75808 0.89842 0.0
C1159 C 0.64159 0.76694 0.89784 0.0
H1160 H 0.20401 0.91517 0.91986 0.0
H1161 H 0.19849 0.90342 0.72531 0.0
H1162 H 0.21395 0.88859 0.73747 0.0
H1163 H 0.23005 0.88001 0.80185 0.0
H1164 H 0.23605 0.89193 -0.00381 0.0
H1165 H 0.21933 0.90559 0.98541 0.0
C1166 C 0.20606 0.90925 0.88022 0.0
C1167 C 0.20017 0.91051 0.82175 0.0
C1168 C 0.21513 0.90084 0.88732 0.0
C1169 C 0.20296 0.90276 0.77085 0.0
C1170 C 0.21182 0.89426 0.77767 0.0
C1171 C 0.22768 0.88554 0.84198 0.0
C1172 C 0.23439 0.88503 0.89962 0.0
C1173 C 0.21815 0.89343 0.83548 0.0
C1174 C 0.23109 0.89219 0.95116 0.0
C1175 C 0.22153 0.90001 0.94507 0.0
H1176 H 0.69025 0.9047 0.72538 0.0
H1177 H 0.69858 0.91929 0.91711 0.0
H1178 H 0.6686 0.90439 0.93552 0.0
H1179 H 0.63999 0.88887 0.89547 0.0
H1180 H 0.63188 0.87417 0.7037 0.0
H1181 H 0.6618 0.88738 0.68735 0.0
C1182 C 0.68553 0.90454 0.77131 0.0
C1183 C 0.69663 0.91325 0.81957 0.0
C1184 C 0.6683 0.89599 0.78159 0.0
C1185 C 0.69031 0.91272 0.87902 0.0
C1186 C 0.67315 0.90425 0.88959 0.0
C1187 C 0.64476 0.88846 0.85021 0.0
C1188 C 0.63368 0.8807 0.80082 0.0
C1189 C 0.66202 0.8961 0.84095 0.0
C1190 C 0.64009 0.88011 0.74259 0.0
C1191 C 0.65722 0.8877 0.73305 0.0
H1192 H 0.08016 0.76464 0.73986 0.0
H1193 H 0.07951 0.77248 0.93612 0.0
H1194 H 0.09633 0.7593 0.95398 0.0
H1195 H 0.11025 0.74456 0.91484 0.0
H1196 H 0.11122 0.73674 0.71883 0.0
H1197 H 0.09534 0.75101 0.70011 0.0
C1198 C 0.08375 0.76353 0.78651 0.0
C1199 C 0.07846 0.76945 0.83651 0.0
C1200 C 0.09346 0.75592 0.79664 0.0
C1201 C 0.08335 0.76801 0.89666 0.0
C1202 C 0.09296 0.76045 0.90705 0.0
C1203 C 0.10705 0.74601 0.86795 0.0
C1204 C 0.11181 0.73948 0.81841 0.0
C1205 C 0.09793 0.7542 0.85748 0.0
C1206 C 0.10769 0.74163 0.7579 0.0
C1207 C 0.09857 0.74975 0.74712 0.0
H1208 H 0.20021 0.2944 0.71784 0.0
H1209 H 0.2057 0.28406 0.90808 0.0
H1210 H 0.21944 0.31384 0.93188 0.0
H1211 H 0.23159 0.34291 0.89707 0.0
H1212 H 0.22602 0.35305 0.70651 0.0
H1213 H 0.21048 0.32323 0.68484 0.0
C1214 C 0.20434 0.29864 0.76461 0.0
C1215 C 0.2021 0.28703 0.81089 0.0
C1216 C 0.21224 0.31575 0.77799 0.0
C1217 C 0.20732 0.29273 0.87144 0.0
C1218 C 0.21521 0.30977 0.88512 0.0
C1219 C 0.22684 0.33861 0.85093 0.0
C1220 C 0.23015 0.35024 0.80343 0.0
C1221 C 0.21799 0.32141 0.83851 0.0
C1222 C 0.22377 0.34441 0.744 0.0
C1223 C 0.2149 0.32734 0.73141 0.0
H1224 H 0.89605 0.68645 0.07714 0.0
H1225 H 0.90225 0.68135 0.27201 0.0
H1226 H 0.88709 0.65099 0.26184 0.0
H1227 H 0.87367 0.62598 0.19645 0.0
H1228 H 0.86823 0.63131 0.00111 0.0
H1229 H 0.88144 0.6615 0.01294 0.0
C1230 C 0.89397 0.67873 0.11756 0.0
C1231 C 0.90039 0.68619 0.17512 0.0
C1232 C 0.88546 0.6613 0.11131 0.0
C1233 C 0.89753 0.67595 0.22701 0.0
C1234 C 0.88888 0.65858 0.22127 0.0
C1235 C 0.87524 0.63372 0.15654 0.0
C1236 C 0.87008 0.62637 0.09795 0.0
C1237 C 0.88303 0.65113 0.16345 0.0
C1238 C 0.87219 0.63662 0.04674 0.0
C1239 C 0.87975 0.6539 0.05339 0.0
H1240 H 0.34794 0.23505 0.21659 0.0
H1241 H 0.35187 0.23565 0.01801 0.0
H1242 H 0.32168 0.21811 0.00942 0.0
H1243 H 0.29407 0.20398 0.05813 0.0
H1244 H 0.29027 0.20461 0.25652 0.0
H1245 H 0.32055 0.22021 0.26525 0.0
C1246 C 0.34224 0.23124 0.17139 0.0
C1247 C 0.35216 0.23672 0.11805 0.0
C1248 C 0.32488 0.22141 0.16672 0.0
C1249 C 0.34452 0.23169 0.05985 0.0
C1250 C 0.32725 0.22165 0.05487 0.0
C1251 C 0.29987 0.20737 0.10329 0.0
C1252 C 0.28994 0.2032 0.15654 0.0
C1253 C 0.3173 0.21664 0.10797 0.0
C1254 C 0.29764 0.20778 0.21474 0.0
C1255 C 0.31495 0.21669 0.21982 0.0
H1256 H 0.74901 0.11695 0.07339 0.0
H1257 H 0.73763 0.11176 0.26802 0.0
H1258 H 0.75337 0.09718 0.28231 0.0
H1259 H 0.76922 0.08473 0.23861 0.0
H1260 H 0.78073 0.09024 0.04401 0.0
H1261 H 0.76612 0.10593 0.0309 0.0
C1262 C 0.75002 0.1127 0.11903 0.0
C1263 C 0.74204 0.11533 0.16942 0.0
C1264 C 0.75907 0.10433 0.12696 0.0
C1265 C 0.74363 0.10989 0.22835 0.0
C1266 C 0.75259 0.1015 0.23658 0.0
C1267 C 0.7686 0.08942 0.19337 0.0
C1268 C 0.77597 0.08618 0.14234 0.0
C1269 C 0.76018 0.09847 0.18605 0.0
C1270 C 0.77516 0.0925 0.08414 0.0
C1271 C 0.76678 0.10146 0.0765 0.0
H1272 H 0.00376 0.44078 0.55882 0.0
H1273 H 0.00262 0.42592 0.36915 0.0
H1274 H 0.97219 0.41119 0.37049 0.0
H1275 H 0.94594 0.40137 0.42734 0.0
H1276 H 0.94747 0.41559 0.61811 0.0
H1277 H 0.97777 0.43183 0.61421 0.0
C1278 C -0.0031 0.43443 0.51754 0.0
C1279 C 0.00549 0.4344 0.46408 0.0
C1280 C 0.97946 0.42582 0.51885 0.0
C1281 C -0.00366 0.42608 0.41107 0.0
C1282 C 0.97893 0.41765 0.41177 0.0
C1283 C 0.95289 0.40815 0.46786 0.0
C1284 C 0.94445 0.4072 0.52298 0.0
C1285 C 0.97037 0.41727 0.46567 0.0
C1286 C 0.95366 0.41601 0.57519 0.0
C1287 C 0.97099 0.42531 0.57305 0.0
H1288 H 0.5701 0.54566 0.42905 0.0
H1289 H 0.56726 0.54221 0.62787 0.0
H1290 H 0.55038 0.55579 0.62914 0.0
H1291 H 0.538 0.57017 0.57472 0.0
H1292 H 0.54157 0.57454 0.3762 0.0
H1293 H 0.55653 0.55894 0.37407 0.0
C1294 C 0.56566 0.54772 0.47265 0.0
C1295 C 0.57004 0.54302 0.52828 0.0
C1296 C 0.55617 0.55577 0.4732 0.0
C1297 C 0.56418 0.5458 0.58436 0.0
C1298 C 0.55453 0.55358 0.58518 0.0
C1299 C 0.54192 0.56762 0.53085 0.0
C1300 C 0.53876 0.57363 0.47577 0.0
C1301 C 0.5507 0.55886 0.52999 0.0
C1302 C 0.54392 0.57015 0.41938 0.0
C1303 C 0.55248 0.56124 0.41808 0.0
H1304 H 0.44159 0.01515 0.61926 0.0
H1305 H 0.44266 0.01949 0.42076 0.0
H1306 H 0.42754 0.98913 0.41095 0.0
H1307 H 0.41245 0.96144 0.45883 0.0
H1308 H 0.4116 0.95717 0.65744 0.0
H1309 H 0.42835 0.98742 0.66686 0.0
C1310 C 0.43859 0.00946 0.57383 0.0
C1311 C 0.44309 0.01957 0.52091 0.0
C1312 C 0.42991 0.99201 0.56845 0.0
C1313 C 0.4393 0.012 0.46233 0.0
C1314 C 0.43062 -0.00536 0.45663 0.0
C1315 C 0.41604 0.9671 0.50418 0.0
C1316 C 0.41061 0.95704 0.55728 0.0
C1317 C 0.42563 0.98453 0.5094 0.0
C1318 C 0.41554 0.9646 0.61569 0.0
C1319 C 0.42508 0.98192 0.62122 0.0
H1320 H 0.56103 0.01389 0.42027 0.0
H1321 H 0.57158 0.01238 0.61358 0.0
H1322 H 0.55465 0.98194 0.61275 0.0
H1323 H 0.53842 0.95571 0.55534 0.0
H1324 H 0.5288 0.95753 0.36122 0.0
H1325 H 0.54375 0.98794 0.36449 0.0
C1326 C 0.55955 0.00696 0.46245 0.0
C1327 C 0.56769 0.01542 0.51675 0.0
C1328 C 0.55002 0.98949 0.46148 0.0
C1329 C 0.56554 0.00619 0.57098 0.0
C1330 C 0.55587 0.98877 0.57056 0.0
C1331 C 0.53944 0.96275 0.5139 0.0
C1332 C 0.5326 0.95434 0.45806 0.0
C1333 C 0.54829 0.98028 0.5158 0.0
C1334 C 0.53406 0.96367 0.40476 0.0
C1335 C 0.54261 0.98107 0.40652 0.0
H1336 H 0.96097 0.53538 0.38194 0.0
H1337 H 0.95321 0.53601 0.57809 0.0
H1338 H 0.98326 0.5496 0.59559 0.0
H1339 H 0.01179 0.56335 0.55417 0.0
H1340 H 0.0192 0.56401 0.35734 0.0
H1341 H 0.98918 0.54775 0.34123 0.0
C1342 C 0.9658 0.53828 0.42866 0.0
C1343 C 0.95487 0.53477 0.47857 0.0
C1344 C 0.98304 0.54643 0.43823 0.0
C1345 C 0.96137 0.53868 0.53877 0.0
C1346 C 0.97855 0.54646 0.54883 0.0
C1347 C 0.00682 0.55974 0.50786 0.0
C1348 C 0.01767 0.56496 0.45702 0.0
C1349 C -0.01049 0.55071 0.49876 0.0
C1350 C 0.01108 0.56028 0.39722 0.0
C1351 C -0.00607 0.55097 0.38793 0.0
H1352 H 0.41021 0.44162 0.39499 0.0
H1353 H 0.40266 0.44314 0.59095 0.0
H1354 H 0.41915 0.42965 0.61102 0.0
H1355 H 0.43483 0.41651 0.57294 0.0
H1356 H 0.44264 0.41521 0.37707 0.0
H1357 H 0.42701 0.42964 0.35718 0.0
C1358 C 0.41219 0.43903 0.44211 0.0
C1359 C 0.4051 0.44328 0.4913 0.0
C1360 C 0.42173 0.43131 0.45342 0.0
C1361 C 0.40794 0.43999 0.55214 0.0
C1362 C 0.41736 0.43224 0.56372 0.0
C1363 C 0.43318 0.41944 0.52588 0.0
C1364 C 0.43981 0.41468 0.47661 0.0
C1365 C 0.42418 0.42772 0.51469 0.0
C1366 C 0.43767 0.4187 0.41595 0.0
C1367 C 0.42868 0.42692 0.40445 0.0
H1368 H 0.20374 0.07384 0.19534 0.0
H1369 H 0.24984 0.0947 0.2967 0.0
H1370 H 0.24823 0.11995 0.31819 0.0
H1371 H 0.23754 0.13836 0.28285 0.0
H1372 H 0.19253 0.11765 0.17474 0.0
H1373 H 0.18933 0.08983 0.18335 0.0
C1374 C 0.21308 0.0837 0.22404 0.0
C1375 C 0.22706 0.08277 0.24328 0.0
C1376 C 0.21224 0.09821 0.23466 0.0
C1377 C 0.23903 0.09534 0.28116 0.0
C1378 C 0.23816 0.1098 0.29298 0.0
C1379 C 0.2266 0.12756 0.26419 0.0
C1380 C 0.21536 0.12987 0.22777 0.0
C1381 C 0.22538 0.11177 0.26649 0.0
C1382 C 0.2013 0.11598 0.20289 0.0
C1383 C 0.1996 0.10015 0.20712 0.0
H1384 H 0.86164 0.07739 0.17575 0.0
H1385 H 0.84018 0.09467 0.31359 0.0
H1386 H 0.86805 0.11716 0.34232 0.0
H1387 H 0.89732 0.13513 0.31086 0.0
H1388 H 0.91781 0.11856 0.16638 0.0
H1389 H 0.89163 0.09224 0.15871 0.0
C1390 C 0.86315 0.08584 0.21321 0.0
C1391 C 0.84904 0.08476 0.24165 0.0
C1392 C 0.87902 0.0989 0.22781 0.0
C1393 C 0.85097 0.09545 0.2909 0.0
C1394 C 0.86687 0.10835 0.3069 0.0
C1395 C 0.89622 0.12548 0.27942 0.0
C1396 C 0.90928 0.12881 0.23837 0.0
C1397 C 0.88086 0.11071 0.27324 0.0
C1398 C 0.90778 0.11628 0.19775 0.0
C1399 C 0.8928 0.1013 0.1931 0.0
H1400 H 0.90958 0.78087 0.19062 0.0
H1401 H 0.88897 0.74108 0.32422 0.0
H1402 H 0.86472 0.74492 0.33727 0.0
H1403 H 0.84698 0.75536 0.29241 0.0
H1404 H 0.8673 0.79353 0.15203 0.0
H1405 H 0.89421 0.79486 0.16059 0.0
C1406 C 0.89999 0.77341 0.22401 0.0
C1407 C 0.90077 0.76054 0.25558 0.0
C1408 C 0.88594 0.77526 0.22918 0.0
C1409 C 0.88852 0.75105 0.29938 0.0
C1410 C 0.8746 0.75312 0.30624 0.0
C1411 C 0.85748 0.76433 0.26525 0.0
C1412 C 0.85516 0.77409 0.22073 0.0
C1413 C 0.87276 0.76454 0.26869 0.0
C1414 C 0.86879 0.78569 0.18578 0.0
C1415 C 0.88414 0.78643 0.19056 0.0
H1416 H 0.07819 0.21661 0.81362 0.0
H1417 H 0.09617 0.25578 0.67772 0.0
H1418 H 0.11818 0.24961 0.64797 0.0
H1419 H 0.1354 0.23712 0.67751 0.0
H1420 H 0.11782 0.19915 0.81882 0.0
H1421 H 0.09221 0.20038 0.82845 0.0
C1422 C 0.08665 0.22342 0.77617 0.0
C1423 C 0.08591 0.23673 0.74835 0.0
C1424 C 0.09939 0.2201 0.7609 0.0
C1425 C 0.09667 0.24547 0.69958 0.0
C1426 C 0.10929 0.24203 0.68308 0.0
C1427 C 0.12571 0.22873 0.70888 0.0
C1428 C 0.12861 0.21836 0.74855 0.0
C1429 C 0.11127 0.22996 0.71582 0.0
C1430 C 0.11596 0.20747 0.78874 0.0
C1431 C 0.10135 0.20821 0.79443 0.0
H1432 H 0.77086 0.86029 0.80629 0.0
H1433 H 0.73469 0.84167 0.65933 0.0
H1434 H 0.73973 0.87001 0.6395 0.0
H1435 H 0.75002 0.89855 0.67969 0.0
H1436 H 0.78495 0.9162 0.83131 0.0
H1437 H 0.78514 0.88988 0.83275 0.0
C1438 C 0.76444 0.86256 0.76878 0.0
C1439 C 0.75222 0.84905 0.73507 0.0
C1440 C 0.76705 0.87867 0.75911 0.0
C1441 C 0.74412 0.85199 0.68593 0.0
C1442 C 0.7469 0.86814 0.67506 0.0
C1443 C 0.75806 0.89681 0.71167 0.0
C1444 C 0.76714 0.90909 0.75636 0.0
C1445 C 0.75767 0.88139 0.71364 0.0
C1446 C 0.7776 0.90676 0.79732 0.0
C1447 C 0.77768 0.89171 0.79829 0.0
H1448 H 0.12922 0.89209 0.69619 0.0
H1449 H 0.11354 0.91119 0.84835 0.0
H1450 H 0.0877 0.88465 0.8568 0.0
H1451 H 0.07223 0.85486 0.83357 0.0
H1452 H 0.08801 0.83502 0.6844 0.0
H1453 H 0.11105 0.86304 0.6615 0.0
C1454 C 0.1199 0.89058 0.72983 0.0
C1455 C 0.12337 0.90341 0.77237 0.0
C1456 C 0.10527 0.87507 0.73576 0.0
C1457 C 0.11122 0.90136 0.81575 0.0
C1458 C 0.09648 0.88617 0.82082 0.0
C1459 C 0.08058 0.85673 0.79542 0.0
C1460 C 0.07875 0.84295 0.76166 0.0
C1461 C 0.09382 0.87273 0.78322 0.0
C1462 C 0.08932 0.84549 0.71139 0.0
C1463 C 0.10252 0.86148 0.69848 0.0
H1464 H 0.85869 0.40558 0.4763 0.0
H1465 H 0.88769 0.42089 0.64387 0.0
H1466 H 0.88915 0.4481 0.63852 0.0
H1467 H 0.88751 0.46923 0.57334 0.0
H1468 H 0.86089 0.45412 0.4005 0.0
H1469 H 0.85297 0.42511 0.42095 0.0
C1470 C 0.86498 0.41473 0.51251 0.0
C1471 C 0.87345 0.41146 0.55941 0.0
C1472 C 0.86641 0.43049 0.50751 0.0
C1473 C 0.88121 0.42321 0.60689 0.0
C1474 C 0.88218 0.43883 0.60349 0.0
C1475 C 0.87955 0.45947 0.54125 0.0
C1476 C 0.87501 0.46372 0.48506 0.0
C1477 C 0.87566 0.44291 0.55207 0.0
C1478 C 0.86472 0.45107 0.44359 0.0
C1479 C 0.86022 0.43452 0.4552 0.0
H1480 H 0.52825 0.41442 0.50778 0.0
H1481 H 0.50519 0.42933 0.64782 0.0
H1482 H 0.53188 0.45463 0.66805 0.0
H1483 H 0.56001 0.47489 0.6299 0.0
H1484 H 0.58182 0.46026 0.48396 0.0
H1485 H 0.55756 0.43229 0.48291 0.0
C1486 C 0.52918 0.42304 0.54371 0.0
C1487 C 0.51481 0.42032 0.57525 0.0
C1488 C 0.54433 0.43766 0.55359 0.0
C1489 C 0.51613 0.4313 0.62264 0.0
C1490 C 0.53135 0.4458 0.63384 0.0
C1491 C 0.55964 0.46536 0.59952 0.0
C1492 C 0.57246 0.46958 0.55641 0.0
C1493 C 0.54531 0.4495 0.59734 0.0
C1494 C 0.57192 0.45725 0.51696 0.0
C1495 C 0.55805 0.44131 0.51613 0.0
H1496 H 0.56042 0.07515 0.63366 0.0
H1497 H 0.58292 0.11324 0.494 0.0
H1498 H 0.55999 0.11907 0.50147 0.0
H1499 H 0.53094 0.10862 0.52895 0.0
H1500 H 0.50719 0.06925 0.66318 0.0
H1501 H 0.53323 0.0688 0.67783 0.0
C1502 C 0.56056 0.08517 0.60689 0.0
C1503 C 0.57307 0.0936 0.56269 0.0
C1504 C 0.54693 0.08793 0.60947 0.0
C1505 C 0.57322 0.10651 0.52781 0.0
C1506 C 0.56009 0.10976 0.53176 0.0
C1507 C 0.53164 0.10029 0.56268 0.0
C1508 C 0.51721 0.08871 0.59379 0.0
C1509 C 0.54642 0.0998 0.56944 0.0
C1510 C 0.5182 0.07818 0.63834 0.0
C1511 C 0.53304 0.07783 0.64634 0.0
H1512 H 0.74467 0.54876 0.13236 0.0
H1513 H 0.75919 0.588 -0.00209 0.0
H1514 H 0.78235 0.58404 0.96475 0.0
H1515 H 0.80136 0.57324 0.98966 0.0
H1516 H 0.78712 0.5351 0.1289 0.0
H1517 H 0.76066 0.53442 0.14344 0.0
C1518 C 0.75272 0.55619 0.09487 0.0
C1519 C 0.75061 0.5689 0.0685 0.0
C1520 C 0.76607 0.55407 0.07724 0.0
C1521 C 0.76076 0.57823 0.01909 0.0
C1522 C 0.77403 0.57603 0.00047 0.0
C1523 C 0.79219 0.56439 0.02153 0.0
C1524 C 0.79623 0.55447 0.05908 0.0
C1525 C 0.77726 0.56453 0.03137 0.0
C1526 C 0.78431 0.54303 0.10025 0.0
C1527 C 0.76925 0.54269 0.10882 0.0
H1528 H 0.44535 0.19973 0.15401 0.0
H1529 H 0.40782 0.17408 0.01481 0.0
H1530 H 0.40692 0.19973 -0.00652 0.0
H1531 H 0.41242 0.22733 0.03154 0.0
H1532 H 0.44835 0.25157 0.17704 0.0
H1533 H 0.45463 0.22883 0.17794 0.0
C1534 C 0.43729 0.1999 0.11789 0.0
C1535 C 0.42638 0.18507 0.08706 0.0
C1536 C 0.43648 0.21443 0.10751 0.0
C1537 C 0.41624 0.1854 0.03945 0.0
C1538 C 0.41563 0.20001 0.02765 0.0
C1539 C 0.42204 0.22785 0.06165 0.0
C1540 C 0.42978 0.24086 0.10474 0.0
C1541 C 0.42503 0.21433 0.06382 0.0
C1542 C 0.44216 0.2415 0.144 0.0
C1543 C 0.44568 0.22848 0.14475 0.0
H1544 H 0.75675 0.1841 0.03819 0.0
H1545 H 0.73796 0.20133 0.1865 0.0
H1546 H 0.76393 0.22788 0.18885 0.0
H1547 H 0.79358 0.24317 0.16508 0.0
H1548 H 0.81339 0.22564 0.02194 0.0
H1549 H 0.78537 0.20238 -1e-05 0.0
C1550 C 0.75817 0.1939 0.06952 0.0
C1551 C 0.74569 0.19069 0.11314 0.0
C1552 C 0.77341 0.20893 0.07216 0.0
C1553 C 0.74758 0.20345 0.15336 0.0
C1554 C 0.76243 0.21861 0.15486 0.0
C1555 C 0.79163 0.2345 0.12786 0.0
C1556 C 0.80537 0.23577 0.0959 0.0
C1557 C 0.77571 0.22103 0.11706 0.0
C1558 C 0.80288 0.22476 0.04716 0.0
C1559 C 0.78691 0.21141 0.0351 0.0
H1560 H 0.56313 0.76402 0.9665 0.0
H1561 H 0.5217 0.74245 0.8398 0.0
H1562 H 0.52151 0.76878 0.83531 0.0
H1563 H 0.53768 0.79908 0.8459 0.0
H1564 H 0.58043 0.82149 0.96609 0.0
H1565 H 0.5755 0.79373 -0.00429 0.0
C1566 C 0.55362 0.76493 0.94021 0.0
C1567 C 0.54263 0.75155 0.90265 0.0
C1568 C 0.55415 0.78038 0.93543 0.0
C1569 C 0.53038 0.75276 0.86846 0.0
C1570 C 0.53036 0.76782 0.86546 0.0
C1571 C 0.54558 0.79781 0.88002 0.0
C1572 C 0.55958 0.81211 0.90276 0.0
C1573 C 0.54292 0.78195 0.89528 0.0
C1574 C 0.56964 0.81052 0.94774 0.0
C1575 C 0.56688 0.79468 0.96426 0.0
H1576 H 0.17874 0.75713 0.97427 0.0
H1577 H 0.20161 0.74477 0.82498 0.0
H1578 H 0.22736 0.77115 0.83905 0.0
H1579 H 0.24129 0.79937 0.88033 0.0
H1580 H 0.21826 0.81309 0.02434 0.0
H1581 H 0.19474 0.78435 0.02709 0.0
C1582 C 0.18952 0.76005 0.94597 0.0
C1583 C 0.18823 0.74923 0.89784 0.0
C1584 C 0.20413 0.77552 0.95297 0.0
C1585 C 0.20225 0.75308 0.86156 0.0
C1586 C 0.21696 0.76814 0.86953 0.0
C1587 C 0.23126 0.79595 0.91324 0.0
C1588 C 0.2312 0.80823 0.95117 0.0
C1589 C 0.21772 0.77973 0.91297 0.0
C1590 C 0.21843 0.80374 -0.00545 0.0
C1591 C 0.20496 0.78739 -0.00434 0.0
H1592 H 0.1851 0.42673 0.95417 0.0
H1593 H 0.2028 0.4619 0.80344 0.0
H1594 H 0.22874 0.46105 0.80058 0.0
H1595 H 0.24319 0.44576 0.82527 0.0
H1596 H 0.22482 0.40887 0.97007 0.0
H1597 H 0.20248 0.41512 0.99201 0.0
C1598 C 0.19492 0.43466 0.92234 0.0
C1599 C 0.19204 0.44416 0.87841 0.0
C1600 C 0.20948 0.4335 0.9191 0.0
C1601 C 0.20475 0.45435 0.83714 0.0
C1602 C 0.21951 0.45379 0.83525 0.0
C1603 C 0.2345 0.43937 0.86258 0.0
C1604 C 0.2353 0.42661 0.89501 0.0
C1605 C 0.22153 0.44267 0.87347 0.0
C1606 C 0.2243 0.41865 0.94417 0.0
C1607 C 0.21148 0.42214 0.95637 0.0
H1608 H 0.41071 0.89344 0.41315 0.0
H1609 H 0.39966 0.86445 0.58051 0.0
H1610 H 0.42244 0.85905 0.55977 0.0
H1611 H 0.44835 0.86704 0.50554 0.0
H1612 H 0.46103 0.89778 0.34261 0.0
H1613 H 0.4345 0.89762 0.34893 0.0
C1614 C 0.41303 0.88558 0.44416 0.0
C1615 C 0.40379 0.87966 0.49898 0.0
C1616 C 0.42653 0.88298 0.43301 0.0
C1617 C 0.40683 0.86941 0.53864 0.0
C1618 C 0.41986 0.86632 0.52685 0.0
C1619 C 0.44513 0.87338 0.47057 0.0
C1620 C 0.45672 0.88273 0.42458 0.0
C1621 C 0.43026 0.87375 0.47595 0.0
C1622 C 0.45231 0.89059 0.37872 0.0
C1623 C 0.43723 0.89063 0.38271 0.0
H1624 H 0.07281 0.55667 0.34839 0.0
H1625 H 0.11353 0.57675 0.47811 0.0
H1626 H 0.11546 0.55138 0.4709 0.0
H1627 H 0.10044 0.52138 0.45111 0.0
H1628 H 0.05802 0.5001 0.32937 0.0
H1629 H 0.06193 0.52798 0.30875 0.0
C1630 C 0.08259 0.55573 0.37257 0.0
C1631 C 0.09288 0.56831 0.41431 0.0
C1632 C 0.08297 0.5407 0.37085 0.0
C1633 C 0.10545 0.56707 0.44606 0.0
C1634 C 0.10643 0.55252 0.44241 0.0
C1635 C 0.09247 0.523 0.41827 0.0
C1636 C 0.07881 0.50891 0.39266 0.0
C1637 C 0.09447 0.53887 0.40862 0.0
C1638 C 0.06859 0.51091 0.34968 0.0
C1639 C 0.07074 0.52681 0.33843 0.0
H1640 H 0.46754 0.56164 0.37391 0.0
H1641 H 0.45333 0.58099 0.52941 0.0
H1642 H 0.42474 0.55808 0.52163 0.0
H1643 H 0.40558 0.53016 0.4842 0.0
H1644 H 0.41996 0.50911 0.33477 0.0
H1645 H 0.44652 0.53521 0.32521 0.0
C1646 C 0.45802 0.56104 0.40475 0.0
C1647 C 0.46245 0.57271 0.45276 0.0
C1648 C 0.44173 0.54743 0.40156 0.0
C1649 C 0.45015 0.57191 0.49273 0.0
C1650 C 0.43384 0.55883 0.48837 0.0
C1651 C 0.41439 0.53141 0.44866 0.0
C1652 C 0.41108 0.51769 0.41132 0.0
C1653 C 0.42975 0.5461 0.44512 0.0
C1654 C 0.42235 0.51953 0.36445 0.0
C1655 C 0.43758 0.53438 0.35934 0.0
loop_
_geom_bond_atom_site_label_1
_geom_bond_atom_site_label_2
_geom_bond_distance
_geom_bond_site_symmetry_2
_ccdc_geom_bond_type
C0 O1 1.306 . S
C0 O3 1.160 . S
O1 C0 1.306 . S
O1 Cd2 2.228 . S
Cd2 O1 2.228 . S
Cd2 O6 2.273 . S
Cd2 O10 2.277 . S
O3 C0 1.160 . S
O3 Cd4 2.203 . S
Cd4 O3 2.203 . S
Cd4 O6 2.411 . S
Cd4 O7 2.333 . S
Cd4 O8 2.352 . S
Cd4 O12 2.277 . S
Cd4 O13 2.356 . S
C5 O10 1.209 . S
C5 O12 1.226 . S
O6 Cd2 2.273 . S
O6 Cd4 2.411 . S
O6 C9 1.320 . S
O7 Cd4 2.333 . S
O7 C9 1.214 . S
O8 Cd4 2.352 . S
O8 C11 1.258 . S
C9 O6 1.320 . S
C9 O7 1.214 . S
O10 Cd2 2.277 . S
O10 C5 1.209 . S
C11 O8 1.258 . S
C11 O13 1.282 . S
O12 Cd4 2.277 . S
O12 C5 1.226 . S
O13 Cd4 2.356 . S
O13 C11 1.282 . S
C14 O15 1.306 . S
C14 O17 1.160 . S
O15 C14 1.306 . S
O15 Cd16 2.228 . S
Cd16 O15 2.228 . S
Cd16 O20 2.273 . S
Cd16 O24 2.277 . S
O17 C14 1.160 . S
O17 Cd18 2.203 . S
Cd18 O17 2.203 . S
Cd18 O20 2.411 . S
Cd18 O21 2.333 . S
Cd18 O22 2.352 . S
Cd18 O26 2.277 . S
Cd18 O27 2.356 . S
C19 O24 1.209 . S
C19 O26 1.226 . S
O20 Cd16 2.273 . S
O20 Cd18 2.411 . S
O20 C23 1.320 . S
O21 Cd18 2.333 . S
O21 C23 1.214 . S
O22 Cd18 2.352 . S
O22 C25 1.258 . S
C23 O20 1.320 . S
C23 O21 1.214 . S
O24 Cd16 2.277 . S
O24 C19 1.209 . S
C25 O22 1.258 . S
C25 O27 1.282 . S
O26 Cd18 2.277 . S
O26 C19 1.226 . S
O27 Cd18 2.356 . S
O27 C25 1.282 . S
C28 O29 1.306 . S
C28 O31 1.160 . S
O29 C28 1.306 . S
O29 Cd30 2.228 . S
Cd30 O29 2.228 . S
Cd30 O34 2.273 . S
Cd30 O38 2.277 . S
O31 C28 1.160 . S
O31 Cd32 2.203 . S
Cd32 O31 2.203 . S
Cd32 O34 2.411 . S
Cd32 O35 2.333 . S
Cd32 O36 2.352 . S
Cd32 O40 2.277 . S
Cd32 O41 2.356 . S
C33 O38 1.209 . S
C33 O40 1.226 . S
O34 Cd30 2.273 . S
O34 Cd32 2.411 . S
O34 C37 1.320 . S
O35 Cd32 2.333 . S
O35 C37 1.214 . S
O36 Cd32 2.352 . S
O36 C39 1.258 . S
C37 O34 1.320 . S
C37 O35 1.214 . S
O38 Cd30 2.277 . S
O38 C33 1.209 . S
C39 O36 1.258 . S
C39 O41 1.282 . S
O40 Cd32 2.277 . S
O40 C33 1.226 . S
O41 Cd32 2.356 . S
O41 C39 1.282 . S
C42 O43 1.306 . S
C42 O45 1.160 . S
O43 C42 1.306 . S
O43 Cd44 2.228 . S
Cd44 O43 2.228 . S
Cd44 O48 2.273 . S
Cd44 O52 2.277 . S
O45 C42 1.160 . S
O45 Cd46 2.203 . S
Cd46 O45 2.203 . S
Cd46 O48 2.411 . S
Cd46 O49 2.333 . S
Cd46 O50 2.352 . S
Cd46 O54 2.277 . S
Cd46 O55 2.356 . S
C47 O52 1.209 . S
C47 O54 1.226 . S
O48 Cd44 2.273 . S
O48 Cd46 2.411 . S
O48 C51 1.320 . S
O49 Cd46 2.333 . S
O49 C51 1.214 . S
O50 Cd46 2.352 . S
O50 C53 1.258 . S
C51 O48 1.320 . S
C51 O49 1.214 . S
O52 Cd44 2.277 . S
O52 C47 1.209 . S
C53 O50 1.258 . S
C53 O55 1.282 . S
O54 Cd46 2.277 . S
O54 C47 1.226 . S
O55 Cd46 2.356 . S
O55 C53 1.282 . S
C56 O57 1.306 . S
C56 O59 1.160 . S
O57 C56 1.306 . S
O57 Cd58 2.228 . S
Cd58 O57 2.228 . S
Cd58 O62 2.273 . S
Cd58 O66 2.277 . S
O59 C56 1.160 . S
O59 Cd60 2.203 . S
Cd60 O59 2.203 . S
Cd60 O62 2.411 . S
Cd60 O63 2.333 . S
Cd60 O64 2.352 . S
Cd60 O68 2.277 . S
Cd60 O69 2.356 . S
C61 O66 1.209 . S
C61 O68 1.226 . S
O62 Cd58 2.273 . S
O62 Cd60 2.411 . S
O62 C65 1.320 . S
O63 Cd60 2.333 . S
O63 C65 1.214 . S
O64 Cd60 2.352 . S
O64 C67 1.258 . S
C65 O62 1.320 . S
C65 O63 1.214 . S
O66 Cd58 2.277 . S
O66 C61 1.209 . S
C67 O64 1.258 . S
C67 O69 1.282 . S
O68 Cd60 2.277 . S
O68 C61 1.226 . S
O69 Cd60 2.356 . S
O69 C67 1.282 . S
C70 O71 1.306 . S
C70 O73 1.160 . S
O71 C70 1.306 . S
O71 Cd72 2.228 . S
Cd72 O71 2.228 . S
Cd72 O76 2.273 . S
Cd72 O80 2.277 . S
O73 C70 1.160 . S
O73 Cd74 2.203 . S
Cd74 O73 2.203 . S
Cd74 O76 2.411 . S
Cd74 O77 2.333 . S
Cd74 O78 2.352 . S
Cd74 O82 2.277 . S
Cd74 O83 2.356 . S
C75 O80 1.209 . S
C75 O82 1.226 . S
O76 Cd72 2.273 . S
O76 Cd74 2.411 . S
O76 C79 1.320 . S
O77 Cd74 2.333 . S
O77 C79 1.214 . S
O78 Cd74 2.352 . S
O78 C81 1.258 . S
C79 O76 1.320 . S
C79 O77 1.214 . S
O80 Cd72 2.277 . S
O80 C75 1.209 . S
C81 O78 1.258 . S
C81 O83 1.282 . S
O82 Cd74 2.277 . S
O82 C75 1.226 . S
O83 Cd74 2.356 . S
O83 C81 1.282 . S
C84 O85 1.306 . S
C84 O87 1.160 . S
O85 C84 1.306 . S
O85 Cd86 2.228 . S
Cd86 O85 2.228 . S
Cd86 O90 2.273 . S
Cd86 O94 2.277 . S
O87 C84 1.160 . S
O87 Cd88 2.203 . S
Cd88 O87 2.203 . S
Cd88 O90 2.411 . S
Cd88 O91 2.333 . S
Cd88 O92 2.352 . S
Cd88 O96 2.277 . S
Cd88 O97 2.356 . S
C89 O94 1.209 . S
C89 O96 1.226 . S
O90 Cd86 2.273 . S
O90 Cd88 2.411 . S
O90 C93 1.320 . S
O91 Cd88 2.333 . S
O91 C93 1.214 . S
O92 Cd88 2.352 . S
O92 C95 1.258 . S
C93 O90 1.320 . S
C93 O91 1.214 . S
O94 Cd86 2.277 . S
O94 C89 1.209 . S
C95 O92 1.258 . S
C95 O97 1.282 . S
O96 Cd88 2.277 . S
O96 C89 1.226 . S
O97 Cd88 2.356 . S
O97 C95 1.282 . S
C98 O99 1.306 . S
C98 O101 1.160 . S
O99 C98 1.306 . S
O99 Cd100 2.228 . S
Cd100 O99 2.228 . S
Cd100 O104 2.273 . S
Cd100 O108 2.277 . S
O101 C98 1.160 . S
O101 Cd102 2.203 . S
Cd102 O101 2.203 . S
Cd102 O104 2.411 . S
Cd102 O105 2.333 . S
Cd102 O106 2.352 . S
Cd102 O110 2.277 . S
Cd102 O111 2.356 . S
C103 O108 1.209 . S
C103 O110 1.226 . S
O104 Cd100 2.273 . S
O104 Cd102 2.411 . S
O104 C107 1.320 . S
O105 Cd102 2.333 . S
O105 C107 1.214 . S
O106 Cd102 2.352 . S
O106 C109 1.258 . S
C107 O104 1.320 . S
C107 O105 1.214 . S
O108 Cd100 2.277 . S
O108 C103 1.209 . S
C109 O106 1.258 . S
C109 O111 1.282 . S
O110 Cd102 2.277 . S
O110 C103 1.226 . S
O111 Cd102 2.356 . S
O111 C109 1.282 . S
C112 O113 1.306 . S
C112 O115 1.160 . S
O113 C112 1.306 . S
O113 Cd114 2.228 . S
Cd114 O113 2.228 . S
Cd114 O118 2.273 . S
Cd114 O122 2.277 . S
O115 C112 1.160 . S
O115 Cd116 2.203 . S
Cd116 O115 2.203 . S
Cd116 O118 2.411 . S
Cd116 O119 2.333 . S
Cd116 O120 2.352 . S
Cd116 O124 2.277 . S
Cd116 O125 2.356 . S
C117 O122 1.209 . S
C117 O124 1.226 . S
O118 Cd114 2.273 . S
O118 Cd116 2.411 . S
O118 C121 1.320 . S
O119 Cd116 2.333 . S
O119 C121 1.214 . S
O120 Cd116 2.352 . S
O120 C123 1.258 . S
C121 O118 1.320 . S
C121 O119 1.214 . S
O122 Cd114 2.277 . S
O122 C117 1.209 . S
C123 O120 1.258 . S
C123 O125 1.282 . S
O124 Cd116 2.277 . S
O124 C117 1.226 . S
O125 Cd116 2.356 . S
O125 C123 1.282 . S
C126 O127 1.306 . S
C126 O129 1.160 . S
O127 C126 1.306 . S
O127 Cd128 2.228 . S
Cd128 O127 2.228 . S
Cd128 O132 2.273 . S
Cd128 O136 2.277 . S
O129 C126 1.160 . S
O129 Cd130 2.203 . S
Cd130 O129 2.203 . S
Cd130 O132 2.411 . S
Cd130 O133 2.333 . S
Cd130 O134 2.352 . S
Cd130 O138 2.277 . S
Cd130 O139 2.356 . S
C131 O136 1.209 . S
C131 O138 1.226 . S
O132 Cd128 2.273 . S
O132 Cd130 2.411 . S
O132 C135 1.320 . S
O133 Cd130 2.333 . S
O133 C135 1.214 . S
O134 Cd130 2.352 . S
O134 C137 1.258 . S
C135 O132 1.320 . S
C135 O133 1.214 . S
O136 Cd128 2.277 . S
O136 C131 1.209 . S
C137 O134 1.258 . S
C137 O139 1.282 . S
O138 Cd130 2.277 . S
O138 C131 1.226 . S
O139 Cd130 2.356 . S
O139 C137 1.282 . S
C140 O141 1.306 . S
C140 O143 1.160 . S
O141 C140 1.306 . S
O141 Cd142 2.228 . S
Cd142 O141 2.228 . S
Cd142 O146 2.273 . S
Cd142 O150 2.277 . S
O143 C140 1.160 . S
O143 Cd144 2.203 . S
Cd144 O143 2.203 . S
Cd144 O146 2.411 . S
Cd144 O147 2.333 . S
Cd144 O148 2.352 . S
Cd144 O152 2.277 . S
Cd144 O153 2.356 . S
C145 O150 1.209 . S
C145 O152 1.226 . S
O146 Cd142 2.273 . S
O146 Cd144 2.411 . S
O146 C149 1.320 . S
O147 Cd144 2.333 . S
O147 C149 1.214 . S
O148 Cd144 2.352 . S
O148 C151 1.258 . S
C149 O146 1.320 . S
C149 O147 1.214 . S
O150 Cd142 2.277 . S
O150 C145 1.209 . S
C151 O148 1.258 . S
C151 O153 1.282 . S
O152 Cd144 2.277 . S
O152 C145 1.226 . S
O153 Cd144 2.356 . S
O153 C151 1.282 . S
C154 O155 1.306 . S
C154 O157 1.160 . S
O155 C154 1.306 . S
O155 Cd156 2.228 . S
Cd156 O155 2.228 . S
Cd156 O160 2.273 . S
Cd156 O164 2.277 . S
O157 C154 1.160 . S
O157 Cd158 2.203 . S
Cd158 O157 2.203 . S
Cd158 O160 2.411 . S
Cd158 O161 2.333 . S
Cd158 O162 2.352 . S
Cd158 O166 2.277 . S
Cd158 O167 2.356 . S
C159 O164 1.209 . S
C159 O166 1.226 . S
O160 Cd156 2.273 . S
O160 Cd158 2.411 . S
O160 C163 1.320 . S
O161 Cd158 2.333 . S
O161 C163 1.214 . S
O162 Cd158 2.352 . S
O162 C165 1.258 . S
C163 O160 1.320 . S
C163 O161 1.214 . S
O164 Cd156 2.277 . S
O164 C159 1.209 . S
C165 O162 1.258 . S
C165 O167 1.282 . S
O166 Cd158 2.277 . S
O166 C159 1.226 . S
O167 Cd158 2.356 . S
O167 C165 1.282 . S
C168 O169 1.306 . S
C168 O171 1.160 . S
O169 C168 1.306 . S
O169 Cd170 2.228 . S
Cd170 O169 2.228 . S
Cd170 O174 2.273 . S
Cd170 O178 2.277 . S
O171 C168 1.160 . S
O171 Cd172 2.203 . S
Cd172 O171 2.203 . S
Cd172 O174 2.411 . S
Cd172 O175 2.333 . S
Cd172 O176 2.352 . S
Cd172 O180 2.277 . S
Cd172 O181 2.356 . S
C173 O178 1.209 . S
C173 O180 1.226 . S
O174 Cd170 2.273 . S
O174 Cd172 2.411 . S
O174 C177 1.320 . S
O175 Cd172 2.333 . S
O175 C177 1.214 . S
O176 Cd172 2.352 . S
O176 C179 1.258 . S
C177 O174 1.320 . S
C177 O175 1.214 . S
O178 Cd170 2.277 . S
O178 C173 1.209 . S
C179 O176 1.258 . S
C179 O181 1.282 . S
O180 Cd172 2.277 . S
O180 C173 1.226 . S
O181 Cd172 2.356 . S
O181 C179 1.282 . S
C182 O183 1.306 . S
C182 O185 1.160 . S
O183 C182 1.306 . S
O183 Cd184 2.228 . S
Cd184 O183 2.228 . S
Cd184 O188 2.273 . S
Cd184 O192 2.277 . S
O185 C182 1.160 . S
O185 Cd186 2.203 . S
Cd186 O185 2.203 . S
Cd186 O188 2.411 . S
Cd186 O189 2.333 . S
Cd186 O190 2.352 . S
Cd186 O194 2.277 . S
Cd186 O195 2.356 . S
C187 O192 1.209 . S
C187 O194 1.226 . S
O188 Cd184 2.273 . S
O188 Cd186 2.411 . S
O188 C191 1.320 . S
O189 Cd186 2.333 . S
O189 C191 1.214 . S
O190 Cd186 2.352 . S
O190 C193 1.258 . S
C191 O188 1.320 . S
C191 O189 1.214 . S
O192 Cd184 2.277 . S
O192 C187 1.209 . S
C193 O190 1.258 . S
C193 O195 1.282 . S
O194 Cd186 2.277 . S
O194 C187 1.226 . S
O195 Cd186 2.356 . S
O195 C193 1.282 . S
C196 O197 1.306 . S
C196 O199 1.160 . S
O197 C196 1.306 . S
O197 Cd198 2.228 . S
Cd198 O197 2.228 . S
Cd198 O202 2.273 . S
Cd198 O206 2.277 . S
O199 C196 1.160 . S
O199 Cd200 2.203 . S
Cd200 O199 2.203 . S
Cd200 O202 2.411 . S
Cd200 O203 2.333 . S
Cd200 O204 2.352 . S
Cd200 O208 2.277 . S
Cd200 O209 2.356 . S
C201 O206 1.209 . S
C201 O208 1.226 . S
O202 Cd198 2.273 . S
O202 Cd200 2.411 . S
O202 C205 1.320 . S
O203 Cd200 2.333 . S
O203 C205 1.214 . S
O204 Cd200 2.352 . S
O204 C207 1.258 . S
C205 O202 1.320 . S
C205 O203 1.214 . S
O206 Cd198 2.277 . S
O206 C201 1.209 . S
C207 O204 1.258 . S
C207 O209 1.282 . S
O208 Cd200 2.277 . S
O208 C201 1.226 . S
O209 Cd200 2.356 . S
O209 C207 1.282 . S
C210 O211 1.306 . S
C210 O213 1.160 . S
O211 C210 1.306 . S
O211 Cd212 2.228 . S
Cd212 O211 2.228 . S
Cd212 O216 2.273 . S
Cd212 O220 2.277 . S
O213 C210 1.160 . S
O213 Cd214 2.203 . S
Cd214 O213 2.203 . S
Cd214 O216 2.411 . S
Cd214 O217 2.333 . S
Cd214 O218 2.352 . S
Cd214 O222 2.277 . S
Cd214 O223 2.356 1_554 S
C215 O220 1.209 . S
C215 O222 1.226 . S
O216 Cd212 2.273 . S
O216 Cd214 2.411 . S
O216 C219 1.320 . S
O217 Cd214 2.333 . S
O217 C219 1.214 . S
O218 Cd214 2.352 . S
O218 C221 1.258 1_554 S
C219 O216 1.320 . S
C219 O217 1.214 . S
O220 Cd212 2.277 . S
O220 C215 1.209 . S
C221 O218 1.258 1_556 S
C221 O223 1.282 . S
O222 Cd214 2.277 . S
O222 C215 1.226 . S
O223 Cd214 2.356 1_556 S
O223 C221 1.282 . S
C224 O225 1.306 . S
C224 O227 1.160 . S
O225 C224 1.306 . S
O225 Cd226 2.228 . S
Cd226 O225 2.228 . S
Cd226 O230 2.273 . S
Cd226 O234 2.277 . S
O227 C224 1.160 . S
O227 Cd228 2.203 . S
Cd228 O227 2.203 . S
Cd228 O230 2.411 . S
Cd228 O231 2.333 . S
Cd228 O232 2.352 . S
Cd228 O236 2.277 . S
Cd228 O237 2.356 1_554 S
C229 O234 1.209 . S
C229 O236 1.226 . S
O230 Cd226 2.273 . S
O230 Cd228 2.411 . S
O230 C233 1.320 . S
O231 Cd228 2.333 . S
O231 C233 1.214 . S
O232 Cd228 2.352 . S
O232 C235 1.258 1_554 S
C233 O230 1.320 . S
C233 O231 1.214 . S
O234 Cd226 2.277 . S
O234 C229 1.209 . S
C235 O232 1.258 1_556 S
C235 O237 1.282 . S
O236 Cd228 2.277 . S
O236 C229 1.226 . S
O237 Cd228 2.356 1_556 S
O237 C235 1.282 . S
C238 O239 1.306 . S
C238 O241 1.160 . S
O239 C238 1.306 . S
O239 Cd240 2.228 . S
Cd240 O239 2.228 . S
Cd240 O244 2.273 . S
Cd240 O248 2.277 . S
O241 C238 1.160 . S
O241 Cd242 2.203 . S
Cd242 O241 2.203 . S
Cd242 O244 2.411 . S
Cd242 O245 2.333 . S
Cd242 O246 2.352 . S
Cd242 O250 2.277 . S
Cd242 O251 2.356 1_554 S
C243 O248 1.209 . S
C243 O250 1.226 . S
O244 Cd240 2.273 . S
O244 Cd242 2.411 . S
O244 C247 1.320 . S
O245 Cd242 2.333 . S
O245 C247 1.214 . S
O246 Cd242 2.352 . S
O246 C249 1.258 1_554 S
C247 O244 1.320 . S
C247 O245 1.214 . S
O248 Cd240 2.277 . S
O248 C243 1.209 . S
C249 O246 1.258 1_556 S
C249 O251 1.282 . S
O250 Cd242 2.277 . S
O250 C243 1.226 . S
O251 Cd242 2.356 1_556 S
O251 C249 1.282 . S
C252 O253 1.306 . S
C252 O255 1.160 . S
O253 C252 1.306 . S
O253 Cd254 2.228 . S
Cd254 O253 2.228 . S
Cd254 O258 2.273 . S
Cd254 O262 2.277 . S
O255 C252 1.160 . S
O255 Cd256 2.203 . S
Cd256 O255 2.203 . S
Cd256 O258 2.411 . S
Cd256 O259 2.333 . S
Cd256 O260 2.352 . S
Cd256 O264 2.277 . S
Cd256 O265 2.356 1_554 S
C257 O262 1.209 . S
C257 O264 1.226 . S
O258 Cd254 2.273 . S
O258 Cd256 2.411 . S
O258 C261 1.320 . S
O259 Cd256 2.333 . S
O259 C261 1.214 . S
O260 Cd256 2.352 . S
O260 C263 1.258 1_554 S
C261 O258 1.320 . S
C261 O259 1.214 . S
O262 Cd254 2.277 . S
O262 C257 1.209 . S
C263 O260 1.258 1_556 S
C263 O265 1.282 . S
O264 Cd256 2.277 . S
O264 C257 1.226 . S
O265 Cd256 2.356 1_556 S
O265 C263 1.282 . S
C266 O267 1.306 . S
C266 O269 1.160 . S
O267 C266 1.306 . S
O267 Cd268 2.228 . S
Cd268 O267 2.228 . S
Cd268 O272 2.273 . S
Cd268 O276 2.277 . S
O269 C266 1.160 . S
O269 Cd270 2.203 . S
Cd270 O269 2.203 . S
Cd270 O272 2.411 . S
Cd270 O273 2.333 . S
Cd270 O274 2.352 . S
Cd270 O278 2.277 . S
Cd270 O279 2.356 1_554 S
C271 O276 1.209 . S
C271 O278 1.226 . S
O272 Cd268 2.273 . S
O272 Cd270 2.411 . S
O272 C275 1.320 . S
O273 Cd270 2.333 . S
O273 C275 1.214 . S
O274 Cd270 2.352 . S
O274 C277 1.258 1_554 S
C275 O272 1.320 . S
C275 O273 1.214 . S
O276 Cd268 2.277 . S
O276 C271 1.209 . S
C277 O274 1.258 1_556 S
C277 O279 1.282 . S
O278 Cd270 2.277 . S
O278 C271 1.226 . S
O279 Cd270 2.356 1_556 S
O279 C277 1.282 . S
C280 O281 1.306 . S
C280 O283 1.160 . S
O281 C280 1.306 . S
O281 Cd282 2.228 . S
Cd282 O281 2.228 . S
Cd282 O286 2.273 . S
Cd282 O290 2.277 . S
O283 C280 1.160 . S
O283 Cd284 2.203 . S
Cd284 O283 2.203 . S
Cd284 O286 2.411 . S
Cd284 O287 2.333 . S
Cd284 O288 2.352 . S
Cd284 O292 2.277 . S
Cd284 O293 2.356 1_554 S
C285 O290 1.209 . S
C285 O292 1.226 . S
O286 Cd282 2.273 . S
O286 Cd284 2.411 . S
O286 C289 1.320 . S
O287 Cd284 2.333 . S
O287 C289 1.214 . S
O288 Cd284 2.352 . S
O288 C291 1.258 1_554 S
C289 O286 1.320 . S
C289 O287 1.214 . S
O290 Cd282 2.277 . S
O290 C285 1.209 . S
C291 O288 1.258 1_556 S
C291 O293 1.282 . S
O292 Cd284 2.277 . S
O292 C285 1.226 . S
O293 Cd284 2.356 1_556 S
O293 C291 1.282 . S
C294 O295 1.306 . S
C294 O297 1.160 . S
O295 C294 1.306 . S
O295 Cd296 2.228 . S
Cd296 O295 2.228 . S
Cd296 O300 2.273 . S
Cd296 O304 2.277 . S
O297 C294 1.160 . S
O297 Cd298 2.203 . S
Cd298 O297 2.203 . S
Cd298 O300 2.411 . S
Cd298 O301 2.333 . S
Cd298 O302 2.352 . S
Cd298 O306 2.277 . S
Cd298 O307 2.356 . S
C299 O304 1.209 . S
C299 O306 1.226 . S
O300 Cd296 2.273 . S
O300 Cd298 2.411 . S
O300 C303 1.320 . S
O301 Cd298 2.333 . S
O301 C303 1.214 . S
O302 Cd298 2.352 . S
O302 C305 1.258 . S
C303 O300 1.320 . S
C303 O301 1.214 . S
O304 Cd296 2.277 . S
O304 C299 1.209 . S
C305 O302 1.258 . S
C305 O307 1.282 . S
O306 Cd298 2.277 . S
O306 C299 1.226 . S
O307 Cd298 2.356 . S
O307 C305 1.282 . S
C308 O309 1.306 . S
C308 O311 1.160 . S
O309 C308 1.306 . S
O309 Cd310 2.228 . S
Cd310 O309 2.228 . S
Cd310 O314 2.273 . S
Cd310 O318 2.277 . S
O311 C308 1.160 . S
O311 Cd312 2.203 . S
Cd312 O311 2.203 . S
Cd312 O314 2.411 . S
Cd312 O315 2.333 . S
Cd312 O316 2.352 . S
Cd312 O320 2.277 . S
Cd312 O321 2.356 . S
C313 O318 1.209 . S
C313 O320 1.226 . S
O314 Cd310 2.273 . S
O314 Cd312 2.411 . S
O314 C317 1.320 . S
O315 Cd312 2.333 . S
O315 C317 1.214 . S
O316 Cd312 2.352 . S
O316 C319 1.258 . S
C317 O314 1.320 . S
C317 O315 1.214 . S
O318 Cd310 2.277 . S
O318 C313 1.209 . S
C319 O316 1.258 . S
C319 O321 1.282 . S
O320 Cd312 2.277 . S
O320 C313 1.226 . S
O321 Cd312 2.356 . S
O321 C319 1.282 . S
C322 O323 1.306 . S
C322 O325 1.160 . S
O323 C322 1.306 . S
O323 Cd324 2.228 . S
Cd324 O323 2.228 . S
Cd324 O328 2.273 . S
Cd324 O332 2.277 . S
O325 C322 1.160 . S
O325 Cd326 2.203 . S
Cd326 O325 2.203 . S
Cd326 O328 2.411 . S
Cd326 O329 2.333 . S
Cd326 O330 2.352 . S
Cd326 O334 2.277 . S
Cd326 O335 2.356 . S
C327 O332 1.209 . S
C327 O334 1.226 . S
O328 Cd324 2.273 . S
O328 Cd326 2.411 . S
O328 C331 1.320 . S
O329 Cd326 2.333 . S
O329 C331 1.214 . S
O330 Cd326 2.352 . S
O330 C333 1.258 . S
C331 O328 1.320 . S
C331 O329 1.214 . S
O332 Cd324 2.277 . S
O332 C327 1.209 . S
C333 O330 1.258 . S
C333 O335 1.282 . S
O334 Cd326 2.277 . S
O334 C327 1.226 . S
O335 Cd326 2.356 . S
O335 C333 1.282 . S
C336 O337 1.306 . S
C336 O339 1.160 . S
O337 C336 1.306 . S
O337 Cd338 2.228 . S
Cd338 O337 2.228 . S
Cd338 O342 2.273 . S
Cd338 O346 2.277 . S
O339 C336 1.160 . S
O339 Cd340 2.203 . S
Cd340 O339 2.203 . S
Cd340 O342 2.411 . S
Cd340 O343 2.333 . S
Cd340 O344 2.352 . S
Cd340 O348 2.277 . S
Cd340 O349 2.356 1_556 S
C341 O346 1.209 . S
C341 O348 1.226 . S
O342 Cd338 2.273 . S
O342 Cd340 2.411 . S
O342 C345 1.320 . S
O343 Cd340 2.333 . S
O343 C345 1.214 . S
O344 Cd340 2.352 . S
O344 C347 1.258 1_556 S
C345 O342 1.320 . S
C345 O343 1.214 . S
O346 Cd338 2.277 . S
O346 C341 1.209 . S
C347 O344 1.258 1_554 S
C347 O349 1.282 . S
O348 Cd340 2.277 . S
O348 C341 1.226 . S
O349 Cd340 2.356 1_554 S
O349 C347 1.282 . S
C350 O351 1.306 . S
C350 O353 1.160 . S
O351 C350 1.306 . S
O351 Cd352 2.228 . S
Cd352 O351 2.228 . S
Cd352 O356 2.273 . S
Cd352 O360 2.277 . S
O353 C350 1.160 . S
O353 Cd354 2.203 . S
Cd354 O353 2.203 . S
Cd354 O356 2.411 . S
Cd354 O357 2.333 . S
Cd354 O358 2.352 . S
Cd354 O362 2.277 . S
Cd354 O363 2.356 1_556 S
C355 O360 1.209 . S
C355 O362 1.226 . S
O356 Cd352 2.273 . S
O356 Cd354 2.411 . S
O356 C359 1.320 . S
O357 Cd354 2.333 . S
O357 C359 1.214 . S
O358 Cd354 2.352 . S
O358 C361 1.258 1_556 S
C359 O356 1.320 . S
C359 O357 1.214 . S
O360 Cd352 2.277 . S
O360 C355 1.209 . S
C361 O358 1.258 1_554 S
C361 O363 1.282 . S
O362 Cd354 2.277 . S
O362 C355 1.226 . S
O363 Cd354 2.356 1_554 S
O363 C361 1.282 . S
C364 O365 1.306 . S
C364 O367 1.160 . S
O365 C364 1.306 . S
O365 Cd366 2.228 . S
Cd366 O365 2.228 . S
Cd366 O370 2.273 . S
Cd366 O374 2.277 . S
O367 C364 1.160 . S
O367 Cd368 2.203 . S
Cd368 O367 2.203 . S
Cd368 O370 2.411 . S
Cd368 O371 2.333 . S
Cd368 O372 2.352 . S
Cd368 O376 2.277 . S
Cd368 O377 2.356 1_556 S
C369 O374 1.209 . S
C369 O376 1.226 . S
O370 Cd366 2.273 . S
O370 Cd368 2.411 . S
O370 C373 1.320 . S
O371 Cd368 2.333 . S
O371 C373 1.214 . S
O372 Cd368 2.352 . S
O372 C375 1.258 1_556 S
C373 O370 1.320 . S
C373 O371 1.214 . S
O374 Cd366 2.277 . S
O374 C369 1.209 . S
C375 O372 1.258 1_554 S
C375 O377 1.282 . S
O376 Cd368 2.277 . S
O376 C369 1.226 . S
O377 Cd368 2.356 1_554 S
O377 C375 1.282 . S
C378 O379 1.306 . S
C378 O381 1.160 . S
O379 C378 1.306 . S
O379 Cd380 2.228 . S
Cd380 O379 2.228 . S
Cd380 O384 2.273 . S
Cd380 O388 2.277 . S
O381 C378 1.160 . S
O381 Cd382 2.203 . S
Cd382 O381 2.203 . S
Cd382 O384 2.411 . S
Cd382 O385 2.333 . S
Cd382 O386 2.352 . S
Cd382 O390 2.277 . S
Cd382 O391 2.356 . S
C383 O388 1.209 . S
C383 O390 1.226 . S
O384 Cd380 2.273 . S
O384 Cd382 2.411 . S
O384 C387 1.320 . S
O385 Cd382 2.333 . S
O385 C387 1.214 . S
O386 Cd382 2.352 . S
O386 C389 1.258 . S
C387 O384 1.320 . S
C387 O385 1.214 . S
O388 Cd380 2.277 . S
O388 C383 1.209 . S
C389 O386 1.258 . S
C389 O391 1.282 . S
O390 Cd382 2.277 . S
O390 C383 1.226 . S
O391 Cd382 2.356 . S
O391 C389 1.282 . S
C392 O393 1.306 . S
C392 O395 1.160 . S
O393 C392 1.306 . S
O393 Cd394 2.228 . S
Cd394 O393 2.228 . S
Cd394 O398 2.273 . S
Cd394 O402 2.277 . S
O395 C392 1.160 . S
O395 Cd396 2.203 . S
Cd396 O395 2.203 . S
Cd396 O398 2.411 . S
Cd396 O399 2.333 . S
Cd396 O400 2.352 . S
Cd396 O404 2.277 . S
Cd396 O405 2.356 . S
C397 O402 1.209 . S
C397 O404 1.226 . S
O398 Cd394 2.273 . S
O398 Cd396 2.411 . S
O398 C401 1.320 . S
O399 Cd396 2.333 . S
O399 C401 1.214 . S
O400 Cd396 2.352 . S
O400 C403 1.258 . S
C401 O398 1.320 . S
C401 O399 1.214 . S
O402 Cd394 2.277 . S
O402 C397 1.209 . S
C403 O400 1.258 . S
C403 O405 1.282 . S
O404 Cd396 2.277 . S
O404 C397 1.226 . S
O405 Cd396 2.356 . S
O405 C403 1.282 . S
C406 O407 1.306 . S
C406 O409 1.160 . S
O407 C406 1.306 . S
O407 Cd408 2.228 . S
Cd408 O407 2.228 . S
Cd408 O412 2.273 . S
Cd408 O416 2.277 . S
O409 C406 1.160 . S
O409 Cd410 2.203 . S
Cd410 O409 2.203 . S
Cd410 O412 2.411 . S
Cd410 O413 2.333 . S
Cd410 O414 2.352 . S
Cd410 O418 2.277 . S
Cd410 O419 2.356 . S
C411 O416 1.209 . S
C411 O418 1.226 . S
O412 Cd408 2.273 . S
O412 Cd410 2.411 . S
O412 C415 1.320 . S
O413 Cd410 2.333 . S
O413 C415 1.214 . S
O414 Cd410 2.352 . S
O414 C417 1.258 . S
C415 O412 1.320 . S
C415 O413 1.214 . S
O416 Cd408 2.277 . S
O416 C411 1.209 . S
C417 O414 1.258 . S
C417 O419 1.282 . S
O418 Cd410 2.277 . S
O418 C411 1.226 . S
O419 Cd410 2.356 . S
O419 C417 1.282 . S
C420 O421 1.306 . S
C420 O423 1.160 . S
O421 C420 1.306 . S
O421 Cd422 2.228 . S
Cd422 O421 2.228 . S
Cd422 O426 2.273 . S
Cd422 O430 2.277 . S
O423 C420 1.160 . S
O423 Cd424 2.203 . S
Cd424 O423 2.203 . S
Cd424 O426 2.411 . S
Cd424 O427 2.333 . S
Cd424 O428 2.352 . S
Cd424 O432 2.277 . S
Cd424 O433 2.356 . S
C425 O430 1.209 . S
C425 O432 1.226 . S
O426 Cd422 2.273 . S
O426 Cd424 2.411 . S
O426 C429 1.320 . S
O427 Cd424 2.333 . S
O427 C429 1.214 . S
O428 Cd424 2.352 . S
O428 C431 1.258 . S
C429 O426 1.320 . S
C429 O427 1.214 . S
O430 Cd422 2.277 . S
O430 C425 1.209 . S
C431 O428 1.258 . S
C431 O433 1.282 . S
O432 Cd424 2.277 . S
O432 C425 1.226 . S
O433 Cd424 2.356 . S
O433 C431 1.282 . S
C434 O435 1.306 . S
C434 O437 1.160 . S
O435 C434 1.306 . S
O435 Cd436 2.228 . S
Cd436 O435 2.228 . S
Cd436 O440 2.273 . S
Cd436 O444 2.277 . S
O437 C434 1.160 . S
O437 Cd438 2.203 . S
Cd438 O437 2.203 . S
Cd438 O440 2.411 . S
Cd438 O441 2.333 . S
Cd438 O442 2.352 . S
Cd438 O446 2.277 . S
Cd438 O447 2.356 . S
C439 O444 1.209 . S
C439 O446 1.226 . S
O440 Cd436 2.273 . S
O440 Cd438 2.411 . S
O440 C443 1.320 . S
O441 Cd438 2.333 . S
O441 C443 1.214 . S
O442 Cd438 2.352 . S
O442 C445 1.258 . S
C443 O440 1.320 . S
C443 O441 1.214 . S
O444 Cd436 2.277 . S
O444 C439 1.209 . S
C445 O442 1.258 . S
C445 O447 1.282 . S
O446 Cd438 2.277 . S
O446 C439 1.226 . S
O447 Cd438 2.356 . S
O447 C445 1.282 . S
C448 O449 1.306 . S
C448 O451 1.160 . S
O449 C448 1.306 . S
O449 Cd450 2.228 . S
Cd450 O449 2.228 . S
Cd450 O454 2.273 . S
Cd450 O458 2.277 . S
O451 C448 1.160 . S
O451 Cd452 2.203 . S
Cd452 O451 2.203 . S
Cd452 O454 2.411 . S
Cd452 O455 2.333 . S
Cd452 O456 2.352 . S
Cd452 O460 2.277 . S
Cd452 O461 2.356 . S
C453 O458 1.209 . S
C453 O460 1.226 . S
O454 Cd450 2.273 . S
O454 Cd452 2.411 . S
O454 C457 1.320 . S
O455 Cd452 2.333 . S
O455 C457 1.214 . S
O456 Cd452 2.352 . S
O456 C459 1.258 . S
C457 O454 1.320 . S
C457 O455 1.214 . S
O458 Cd450 2.277 . S
O458 C453 1.209 . S
C459 O456 1.258 . S
C459 O461 1.282 . S
O460 Cd452 2.277 . S
O460 C453 1.226 . S
O461 Cd452 2.356 . S
O461 C459 1.282 . S
C462 O463 1.306 . S
C462 O465 1.160 . S
O463 C462 1.306 . S
O463 Cd464 2.228 . S
Cd464 O463 2.228 . S
Cd464 O468 2.273 . S
Cd464 O472 2.277 . S
O465 C462 1.160 . S
O465 Cd466 2.203 . S
Cd466 O465 2.203 . S
Cd466 O468 2.411 . S
Cd466 O469 2.333 . S
Cd466 O470 2.352 . S
Cd466 O474 2.277 . S
Cd466 O475 2.356 1_556 S
C467 O472 1.209 . S
C467 O474 1.226 . S
O468 Cd464 2.273 . S
O468 Cd466 2.411 . S
O468 C471 1.320 . S
O469 Cd466 2.333 . S
O469 C471 1.214 . S
O470 Cd466 2.352 . S
O470 C473 1.258 1_556 S
C471 O468 1.320 . S
C471 O469 1.214 . S
O472 Cd464 2.277 . S
O472 C467 1.209 . S
C473 O470 1.258 1_554 S
C473 O475 1.282 . S
O474 Cd466 2.277 . S
O474 C467 1.226 . S
O475 Cd466 2.356 1_554 S
O475 C473 1.282 . S
C476 O477 1.306 . S
C476 O479 1.160 . S
O477 C476 1.306 . S
O477 Cd478 2.228 . S
Cd478 O477 2.228 . S
Cd478 O482 2.273 . S
Cd478 O486 2.277 . S
O479 C476 1.160 . S
O479 Cd480 2.203 . S
Cd480 O479 2.203 . S
Cd480 O482 2.411 . S
Cd480 O483 2.333 . S
Cd480 O484 2.352 . S
Cd480 O488 2.277 . S
Cd480 O489 2.356 1_556 S
C481 O486 1.209 . S
C481 O488 1.226 . S
O482 Cd478 2.273 . S
O482 Cd480 2.411 . S
O482 C485 1.320 . S
O483 Cd480 2.333 . S
O483 C485 1.214 . S
O484 Cd480 2.352 . S
O484 C487 1.258 1_556 S
C485 O482 1.320 . S
C485 O483 1.214 . S
O486 Cd478 2.277 . S
O486 C481 1.209 . S
C487 O484 1.258 1_554 S
C487 O489 1.282 . S
O488 Cd480 2.277 . S
O488 C481 1.226 . S
O489 Cd480 2.356 1_554 S
O489 C487 1.282 . S
C490 O491 1.306 . S
C490 O493 1.160 . S
O491 C490 1.306 . S
O491 Cd492 2.228 . S
Cd492 O491 2.228 . S
Cd492 O496 2.273 . S
Cd492 O500 2.277 . S
O493 C490 1.160 . S
O493 Cd494 2.203 . S
Cd494 O493 2.203 . S
Cd494 O496 2.411 . S
Cd494 O497 2.333 . S
Cd494 O498 2.352 . S
Cd494 O502 2.277 . S
Cd494 O503 2.356 1_556 S
C495 O500 1.209 . S
C495 O502 1.226 . S
O496 Cd492 2.273 . S
O496 Cd494 2.411 . S
O496 C499 1.320 . S
O497 Cd494 2.333 . S
O497 C499 1.214 . S
O498 Cd494 2.352 . S
O498 C501 1.258 1_556 S
C499 O496 1.320 . S
C499 O497 1.214 . S
O500 Cd492 2.277 . S
O500 C495 1.209 . S
C501 O498 1.258 1_554 S
C501 O503 1.282 . S
O502 Cd494 2.277 . S
O502 C495 1.226 . S
O503 Cd494 2.356 1_554 S
O503 C501 1.282 . S
H504 C510 0.952 . S
H505 C513 0.930 . S
H506 C514 0.930 . S
H507 C515 0.952 . S
H508 C518 0.930 . S
H509 C519 0.930 . S
C510 H504 0.952 . S
C510 C511 1.355 . S
C510 C512 1.415 1_565 S
C511 C510 1.355 . S
C511 C513 1.419 . S
C512 C510 1.415 1_545 S
C512 C517 1.425 1_545 S
C512 C519 1.409 . S
C513 H505 0.930 . S
C513 C511 1.419 . S
C513 C514 1.362 . S
C514 H506 0.930 . S
C514 C513 1.362 . S
C514 C517 1.409 . S
C515 H507 0.952 . S
C515 C516 1.355 . S
C515 C517 1.415 1_545 S
C516 C515 1.355 . S
C516 C518 1.419 . S
C517 C512 1.425 1_565 S
C517 C514 1.409 . S
C517 C515 1.415 1_565 S
C518 H508 0.930 . S
C518 C516 1.419 . S
C518 C519 1.362 . S
C519 H509 0.930 . S
C519 C512 1.409 . S
C519 C518 1.362 . S
H520 C526 0.930 . S
H521 C529 0.930 . S
H522 C530 0.930 . S
H523 C531 0.930 . S
H524 C534 0.930 . S
H525 C535 0.930 . S
C526 H520 0.930 . S
C526 C527 1.355 . S
C526 C528 1.415 . S
C527 C526 1.355 . S
C527 C529 1.419 . S
C528 C526 1.415 . S
C528 C533 1.425 1_455 S
C528 C535 1.409 . S
C529 H521 0.930 . S
C529 C527 1.419 . S
C529 C530 1.362 1_455 S
C530 H522 0.930 . S
C530 C529 1.362 1_655 S
C530 C533 1.409 . S
C531 H523 0.930 . S
C531 C532 1.355 . S
C531 C533 1.415 . S
C532 C531 1.355 . S
C532 C534 1.419 . S
C533 C528 1.425 1_655 S
C533 C530 1.409 . S
C533 C531 1.415 . S
C534 H524 0.930 . S
C534 C532 1.419 . S
C534 C535 1.362 1_655 S
C535 H525 0.930 . S
C535 C528 1.409 . S
C535 C534 1.362 1_455 S
H536 C542 0.930 . S
H537 C545 0.930 . S
H538 C546 0.930 . S
H539 C547 0.930 . S
H540 C550 0.930 . S
H541 C551 0.930 . S
C542 H536 0.930 . S
C542 C543 1.355 . S
C542 C544 1.415 . S
C543 C542 1.355 . S
C543 C545 1.419 . S
C544 C542 1.415 . S
C544 C549 1.425 . S
C544 C551 1.409 . S
C545 H537 0.930 . S
C545 C543 1.419 . S
C545 C546 1.362 . S
C546 H538 0.930 . S
C546 C545 1.362 . S
C546 C549 1.409 . S
C547 H539 0.930 . S
C547 C548 1.355 . S
C547 C549 1.415 . S
C548 C547 1.355 . S
C548 C550 1.419 . S
C549 C544 1.425 . S
C549 C546 1.409 . S
C549 C547 1.415 . S
C550 H540 0.930 . S
C550 C548 1.419 . S
C550 C551 1.362 . S
C551 H541 0.930 . S
C551 C544 1.409 . S
C551 C550 1.362 . S
H552 C558 0.930 . S
H553 C561 0.930 . S
H554 C562 0.930 . S
H555 C563 0.930 . S
H556 C566 0.930 . S
H557 C567 0.930 . S
C558 H552 0.930 . S
C558 C559 1.355 . S
C558 C560 1.415 . S
C559 C558 1.355 . S
C559 C561 1.419 . S
C560 C558 1.415 . S
C560 C565 1.425 1_565 S
C560 C567 1.409 . S
C561 H553 0.930 . S
C561 C559 1.419 . S
C561 C562 1.362 1_565 S
C562 H554 0.930 . S
C562 C561 1.362 1_545 S
C562 C565 1.409 . S
C563 H555 0.930 . S
C563 C564 1.355 . S
C563 C565 1.415 . S
C564 C563 1.355 . S
C564 C566 1.419 . S
C565 C560 1.425 1_545 S
C565 C562 1.409 . S
C565 C563 1.415 . S
C566 H556 0.930 . S
C566 C564 1.419 . S
C566 C567 1.362 1_545 S
C567 H557 0.930 . S
C567 C560 1.409 . S
C567 C566 1.362 1_565 S
H568 C574 0.930 . S
H569 C577 0.937 . S
H570 C578 0.930 . S
H571 C579 0.930 . S
H572 C582 0.937 . S
H573 C583 0.930 . S
C574 H568 0.930 . S
C574 C575 1.355 . S
C574 C576 1.415 . S
C575 C574 1.355 . S
C575 C577 1.419 . S
C576 C574 1.415 . S
C576 C581 1.425 1_455 S
C576 C583 1.409 . S
C577 H569 0.937 . S
C577 C575 1.419 . S
C577 C578 1.362 1_455 S
C578 H570 0.930 . S
C578 C577 1.362 1_655 S
C578 C581 1.409 . S
C579 H571 0.930 . S
C579 C580 1.355 . S
C579 C581 1.415 . S
C580 C579 1.355 . S
C580 C582 1.419 . S
C581 C576 1.425 1_655 S
C581 C578 1.409 . S
C581 C579 1.415 . S
C582 H572 0.937 . S
C582 C580 1.419 . S
C582 C583 1.362 1_655 S
C583 H573 0.930 . S
C583 C576 1.409 . S
C583 C582 1.362 1_455 S
H584 C590 0.930 . S
H585 C593 0.930 . S
H586 C594 0.930 . S
H587 C595 0.930 . S
H588 C598 0.930 . S
H589 C599 0.930 . S
C590 H584 0.930 . S
C590 C591 1.355 . S
C590 C592 1.415 . S
C591 C590 1.355 . S
C591 C593 1.419 . S
C592 C590 1.415 . S
C592 C597 1.425 . S
C592 C599 1.409 . S
C593 H585 0.930 . S
C593 C591 1.419 . S
C593 C594 1.362 . S
C594 H586 0.930 . S
C594 C593 1.362 . S
C594 C597 1.409 . S
C595 H587 0.930 . S
C595 C596 1.355 . S
C595 C597 1.415 . S
C596 C595 1.355 . S
C596 C598 1.419 . S
C597 C592 1.425 . S
C597 C594 1.409 . S
C597 C595 1.415 . S
C598 H588 0.930 . S
C598 C596 1.419 . S
C598 C599 1.362 . S
C599 H589 0.930 . S
C599 C592 1.409 . S
C599 C598 1.362 . S
H600 C606 0.930 . S
H601 C609 0.930 . S
H602 C610 0.930 . S
H603 C611 0.930 . S
H604 C614 0.930 . S
H605 C615 0.930 . S
C606 H600 0.930 . S
C606 C607 1.355 . S
C606 C608 1.415 . S
C607 C606 1.355 . S
C607 C609 1.419 . S
C608 C606 1.415 . S
C608 C613 1.425 . S
C608 C615 1.409 . S
C609 H601 0.930 . S
C609 C607 1.419 . S
C609 C610 1.362 . S
C610 H602 0.930 . S
C610 C609 1.362 . S
C610 C613 1.409 . S
C611 H603 0.930 . S
C611 C612 1.355 . S
C611 C613 1.415 . S
C612 C611 1.355 . S
C612 C614 1.419 . S
C613 C608 1.425 . S
C613 C610 1.409 . S
C613 C611 1.415 . S
C614 H604 0.930 . S
C614 C612 1.419 . S
C614 C615 1.362 . S
C615 H605 0.930 . S
C615 C608 1.409 . S
C615 C614 1.362 . S
H616 C622 0.930 . S
H617 C625 0.930 . S
H618 C626 0.930 . S
H619 C627 0.930 . S
H620 C630 0.930 . S
H621 C631 0.930 . S
C622 H616 0.930 . S
C622 C623 1.355 . S
C622 C624 1.415 . S
C623 C622 1.355 . S
C623 C625 1.419 . S
C624 C622 1.415 . S
C624 C629 1.425 . S
C624 C631 1.409 . S
C625 H617 0.930 . S
C625 C623 1.419 . S
C625 C626 1.362 . S
C626 H618 0.930 . S
C626 C625 1.362 . S
C626 C629 1.409 . S
C627 H619 0.930 . S
C627 C628 1.355 . S
C627 C629 1.415 . S
C628 C627 1.355 . S
C628 C630 1.419 . S
C629 C624 1.425 . S
C629 C626 1.409 . S
C629 C627 1.415 . S
C630 H620 0.930 . S
C630 C628 1.419 . S
C630 C631 1.362 . S
C631 H621 0.930 . S
C631 C624 1.409 . S
C631 C630 1.362 . S
H632 C638 0.930 . S
H633 C641 0.930 . S
H634 C642 0.930 . S
H635 C643 0.930 . S
H636 C646 0.930 . S
H637 C647 0.930 . S
C638 H632 0.930 . S
C638 C639 1.355 . S
C638 C640 1.415 . S
C639 C638 1.355 . S
C639 C641 1.419 . S
C640 C638 1.415 . S
C640 C645 1.425 . S
C640 C647 1.409 . S
C641 H633 0.930 . S
C641 C639 1.419 . S
C641 C642 1.362 . S
C642 H634 0.930 . S
C642 C641 1.362 . S
C642 C645 1.409 . S
C643 H635 0.930 . S
C643 C644 1.355 . S
C643 C645 1.415 . S
C644 C643 1.355 . S
C644 C646 1.419 . S
C645 C640 1.425 . S
C645 C642 1.409 . S
C645 C643 1.415 . S
C646 H636 0.930 . S
C646 C644 1.419 . S
C646 C647 1.362 . S
C647 H637 0.930 . S
C647 C640 1.409 . S
C647 C646 1.362 . S
H648 C654 0.930 . S
H649 C657 0.930 . S
H650 C658 0.930 . S
H651 C659 0.930 . S
H652 C662 0.930 . S
H653 C663 0.930 . S
C654 H648 0.930 . S
C654 C655 1.355 . S
C654 C656 1.415 . S
C655 C654 1.355 . S
C655 C657 1.419 . S
C656 C654 1.415 . S
C656 C661 1.425 . S
C656 C663 1.409 . S
C657 H649 0.930 . S
C657 C655 1.419 . S
C657 C658 1.362 . S
C658 H650 0.930 . S
C658 C657 1.362 . S
C658 C661 1.409 . S
C659 H651 0.930 . S
C659 C660 1.355 . S
C659 C661 1.415 . S
C660 C659 1.355 . S
C660 C662 1.419 . S
C661 C656 1.425 . S
C661 C658 1.409 . S
C661 C659 1.415 . S
C662 H652 0.930 . S
C662 C660 1.419 . S
C662 C663 1.362 . S
C663 H653 0.930 . S
C663 C656 1.409 . S
C663 C662 1.362 . S
H664 C670 0.930 . S
H665 C673 0.930 . S
H666 C674 0.930 . S
H667 C675 0.930 . S
H668 C678 0.930 . S
H669 C679 0.930 . S
C670 H664 0.930 . S
C670 C671 1.355 . S
C670 C672 1.415 . S
C671 C670 1.355 . S
C671 C673 1.419 . S
C672 C670 1.415 . S
C672 C677 1.425 . S
C672 C679 1.409 . S
C673 H665 0.930 . S
C673 C671 1.419 . S
C673 C674 1.362 . S
C674 H666 0.930 . S
C674 C673 1.362 . S
C674 C677 1.409 . S
C675 H667 0.930 . S
C675 C676 1.355 . S
C675 C677 1.415 . S
C676 C675 1.355 . S
C676 C678 1.419 . S
C677 C672 1.425 . S
C677 C674 1.409 . S
C677 C675 1.415 . S
C678 H668 0.930 . S
C678 C676 1.419 . S
C678 C679 1.362 . S
C679 H669 0.930 . S
C679 C672 1.409 . S
C679 C678 1.362 . S
H680 C686 0.930 . S
H681 C689 0.930 . S
H682 C690 0.930 . S
H683 C691 0.930 . S
H684 C694 0.930 . S
H685 C695 0.930 . S
C686 H680 0.930 . S
C686 C687 1.355 . S
C686 C688 1.415 . S
C687 C686 1.355 . S
C687 C689 1.419 . S
C688 C686 1.415 . S
C688 C693 1.425 . S
C688 C695 1.409 . S
C689 H681 0.930 . S
C689 C687 1.419 . S
C689 C690 1.362 . S
C690 H682 0.930 . S
C690 C689 1.362 . S
C690 C693 1.409 . S
C691 H683 0.930 . S
C691 C692 1.355 . S
C691 C693 1.415 . S
C692 C691 1.355 . S
C692 C694 1.419 . S
C693 C688 1.425 . S
C693 C690 1.409 . S
C693 C691 1.415 . S
C694 H684 0.930 . S
C694 C692 1.419 . S
C694 C695 1.362 . S
C695 H685 0.930 . S
C695 C688 1.409 . S
C695 C694 1.362 . S
H696 C702 0.930 . S
H697 C705 0.930 . S
H698 C706 0.930 . S
H699 C707 0.930 . S
H700 C710 0.930 . S
H701 C711 0.930 . S
C702 H696 0.930 . S
C702 C703 1.355 . S
C702 C704 1.415 . S
C703 C702 1.355 . S
C703 C705 1.419 . S
C704 C702 1.415 . S
C704 C709 1.425 . S
C704 C711 1.409 . S
C705 H697 0.930 . S
C705 C703 1.419 . S
C705 C706 1.362 . S
C706 H698 0.930 . S
C706 C705 1.362 . S
C706 C709 1.409 . S
C707 H699 0.930 . S
C707 C708 1.355 . S
C707 C709 1.415 . S
C708 C707 1.355 . S
C708 C710 1.419 . S
C709 C704 1.425 . S
C709 C706 1.409 . S
C709 C707 1.415 . S
C710 H700 0.930 . S
C710 C708 1.419 . S
C710 C711 1.362 . S
C711 H701 0.930 . S
C711 C704 1.409 . S
C711 C710 1.362 . S
H712 C718 0.930 . S
H713 C721 0.930 . S
H714 C722 0.930 . S
H715 C723 0.930 . S
H716 C726 0.930 . S
H717 C727 0.930 . S
C718 H712 0.930 . S
C718 C719 1.355 . S
C718 C720 1.415 . S
C719 C718 1.355 . S
C719 C721 1.419 . S
C720 C718 1.415 . S
C720 C725 1.425 . S
C720 C727 1.409 . S
C721 H713 0.930 . S
C721 C719 1.419 . S
C721 C722 1.362 . S
C722 H714 0.930 . S
C722 C721 1.362 . S
C722 C725 1.409 . S
C723 H715 0.930 . S
C723 C724 1.355 . S
C723 C725 1.415 . S
C724 C723 1.355 . S
C724 C726 1.419 . S
C725 C720 1.425 . S
C725 C722 1.409 . S
C725 C723 1.415 . S
C726 H716 0.930 . S
C726 C724 1.419 . S
C726 C727 1.362 . S
C727 H717 0.930 . S
C727 C720 1.409 . S
C727 C726 1.362 . S
H728 C734 0.930 . S
H729 C737 0.930 . S
H730 C738 0.930 . S
H731 C739 0.930 . S
H732 C742 0.930 . S
H733 C743 0.930 . S
C734 H728 0.930 . S
C734 C735 1.355 . S
C734 C736 1.415 . S
C735 C734 1.355 . S
C735 C737 1.419 . S
C736 C734 1.415 . S
C736 C741 1.425 . S
C736 C743 1.409 . S
C737 H729 0.930 . S
C737 C735 1.419 . S
C737 C738 1.362 . S
C738 H730 0.930 . S
C738 C737 1.362 . S
C738 C741 1.409 . S
C739 H731 0.930 . S
C739 C740 1.355 . S
C739 C741 1.415 . S
C740 C739 1.355 . S
C740 C742 1.419 . S
C741 C736 1.425 . S
C741 C738 1.409 . S
C741 C739 1.415 . S
C742 H732 0.930 . S
C742 C740 1.419 . S
C742 C743 1.362 . S
C743 H733 0.930 . S
C743 C736 1.409 . S
C743 C742 1.362 . S
H744 C750 0.930 . S
H745 C753 0.930 . S
H746 C754 0.930 . S
H747 C755 0.930 . S
H748 C758 0.930 . S
H749 C759 0.930 . S
C750 H744 0.930 . S
C750 C751 1.355 . S
C750 C752 1.415 . S
C751 C750 1.355 . S
C751 C753 1.419 . S
C752 C750 1.415 . S
C752 C757 1.425 . S
C752 C759 1.409 . S
C753 H745 0.930 . S
C753 C751 1.419 . S
C753 C754 1.362 . S
C754 H746 0.930 . S
C754 C753 1.362 . S
C754 C757 1.409 . S
C755 H747 0.930 . S
C755 C756 1.355 . S
C755 C757 1.415 . S
C756 C755 1.355 . S
C756 C758 1.419 . S
C757 C752 1.425 . S
C757 C754 1.409 . S
C757 C755 1.415 . S
C758 H748 0.930 . S
C758 C756 1.419 . S
C758 C759 1.362 . S
C759 H749 0.930 . S
C759 C752 1.409 . S
C759 C758 1.362 . S
H760 C766 0.930 . S
H761 C769 0.930 . S
H762 C770 0.930 . S
H763 C771 0.930 . S
H764 C774 0.930 . S
H765 C775 0.930 . S
C766 H760 0.930 . S
C766 C767 1.355 . S
C766 C768 1.415 . S
C767 C766 1.355 . S
C767 C769 1.419 . S
C768 C766 1.415 . S
C768 C773 1.425 . S
C768 C775 1.409 . S
C769 H761 0.930 . S
C769 C767 1.419 . S
C769 C770 1.362 . S
C770 H762 0.930 . S
C770 C769 1.362 . S
C770 C773 1.409 . S
C771 H763 0.930 . S
C771 C772 1.355 . S
C771 C773 1.415 . S
C772 C771 1.355 . S
C772 C774 1.419 . S
C773 C768 1.425 . S
C773 C770 1.409 . S
C773 C771 1.415 . S
C774 H764 0.930 . S
C774 C772 1.419 . S
C774 C775 1.362 . S
C775 H765 0.930 . S
C775 C768 1.409 . S
C775 C774 1.362 . S
H776 C782 0.930 . S
H777 C785 0.930 . S
H778 C786 0.930 . S
H779 C787 0.930 . S
H780 C790 0.930 . S
H781 C791 0.930 . S
C782 H776 0.930 . S
C782 C783 1.355 . S
C782 C784 1.415 . S
C783 C782 1.355 . S
C783 C785 1.419 . S
C784 C782 1.415 . S
C784 C789 1.425 . S
C784 C791 1.409 . S
C785 H777 0.930 . S
C785 C783 1.419 . S
C785 C786 1.362 . S
C786 H778 0.930 . S
C786 C785 1.362 . S
C786 C789 1.409 . S
C787 H779 0.930 . S
C787 C788 1.355 . S
C787 C789 1.415 . S
C788 C787 1.355 . S
C788 C790 1.419 . S
C789 C784 1.425 . S
C789 C786 1.409 . S
C789 C787 1.415 . S
C790 H780 0.930 . S
C790 C788 1.419 . S
C790 C791 1.362 . S
C791 H781 0.930 . S
C791 C784 1.409 . S
C791 C790 1.362 . S
H792 C798 0.930 . S
H793 C801 0.930 . S
H794 C802 0.930 . S
H795 C803 0.930 . S
H796 C806 0.930 . S
H797 C807 0.930 . S
C798 H792 0.930 . S
C798 C799 1.355 . S
C798 C800 1.415 . S
C799 C798 1.355 . S
C799 C801 1.419 . S
C800 C798 1.415 . S
C800 C805 1.425 1_566 S
C800 C807 1.409 1_566 S
C801 H793 0.930 . S
C801 C799 1.419 . S
C801 C802 1.362 . S
C802 H794 0.930 . S
C802 C801 1.362 . S
C802 C805 1.409 1_566 S
C803 H795 0.930 . S
C803 C804 1.355 . S
C803 C805 1.415 . S
C804 C803 1.355 . S
C804 C806 1.419 . S
C805 C800 1.425 1_544 S
C805 C802 1.409 1_544 S
C805 C803 1.415 . S
C806 H796 0.930 . S
C806 C804 1.419 . S
C806 C807 1.362 . S
C807 H797 0.930 . S
C807 C800 1.409 1_544 S
C807 C806 1.362 . S
H808 C814 0.930 . S
H809 C817 0.930 . S
H810 C818 0.930 1_556 S
H811 C819 0.930 . S
H812 C822 0.930 . S
H813 C823 0.930 1_554 S
C814 H808 0.930 . S
C814 C815 1.355 . S
C814 C816 1.415 1_655 S
C815 C814 1.355 . S
C815 C817 1.419 . S
C816 C814 1.415 1_455 S
C816 C821 1.425 1_454 S
C816 C823 1.409 1_554 S
C817 H809 0.930 . S
C817 C815 1.419 . S
C817 C818 1.362 . S
C818 H810 0.930 1_554 S
C818 C817 1.362 . S
C818 C821 1.409 1_554 S
C819 H811 0.930 . S
C819 C820 1.355 . S
C819 C821 1.415 1_455 S
C820 C819 1.355 . S
C820 C822 1.419 . S
C821 C816 1.425 1_656 S
C821 C818 1.409 1_556 S
C821 C819 1.415 1_655 S
C822 H812 0.930 . S
C822 C820 1.419 . S
C822 C823 1.362 . S
C823 H813 0.930 1_556 S
C823 C816 1.409 1_556 S
C823 C822 1.362 . S
H824 C830 0.930 . S
H825 C833 0.930 . S
H826 C834 0.930 . S
H827 C835 0.930 . S
H828 C838 0.930 . S
H829 C839 0.930 . S
C830 H824 0.930 . S
C830 C831 1.355 . S
C830 C832 1.415 . S
C831 C830 1.355 . S
C831 C833 1.419 . S
C832 C830 1.415 . S
C832 C837 1.425 1_556 S
C832 C839 1.409 1_556 S
C833 H825 0.930 . S
C833 C831 1.419 . S
C833 C834 1.362 . S
C834 H826 0.930 . S
C834 C833 1.362 . S
C834 C837 1.409 1_556 S
C835 H827 0.930 . S
C835 C836 1.355 . S
C835 C837 1.415 . S
C836 C835 1.355 . S
C836 C838 1.419 . S
C837 C832 1.425 1_554 S
C837 C834 1.409 1_554 S
C837 C835 1.415 . S
C838 H828 0.930 . S
C838 C836 1.419 . S
C838 C839 1.362 . S
C839 H829 0.930 . S
C839 C832 1.409 1_554 S
C839 C838 1.362 . S
H840 C846 0.930 . S
H841 C849 0.930 . S
H842 C850 0.930 . S
H843 C851 0.930 . S
H844 C854 0.930 . S
H845 C855 0.930 . S
C846 H840 0.930 . S
C846 C847 1.355 . S
C846 C848 1.415 1_556 S
C847 C846 1.355 . S
C847 C849 1.419 . S
C848 C846 1.415 1_554 S
C848 C853 1.425 1_564 S
C848 C855 1.409 . S
C849 H841 0.930 . S
C849 C847 1.419 . S
C849 C850 1.362 1_565 S
C850 H842 0.930 . S
C850 C849 1.362 1_545 S
C850 C853 1.409 . S
C851 H843 0.930 . S
C851 C852 1.355 . S
C851 C853 1.415 1_554 S
C852 C851 1.355 . S
C852 C854 1.419 . S
C853 C848 1.425 1_546 S
C853 C850 1.409 . S
C853 C851 1.415 1_556 S
C854 H844 0.930 . S
C854 C852 1.419 . S
C854 C855 1.362 1_545 S
C855 H845 0.930 . S
C855 C848 1.409 . S
C855 C854 1.362 1_565 S
H856 C862 0.930 . S
H857 C865 0.930 . S
H858 C866 0.930 . S
H859 C867 0.930 . S
H860 C870 0.930 . S
H861 C871 0.930 . S
C862 H856 0.930 . S
C862 C863 1.355 . S
C862 C864 1.426 . S
C863 C862 1.355 . S
C863 C865 1.419 . S
C864 C862 1.426 . S
C864 C869 1.425 1_456 S
C864 C871 1.398 1_556 S
C865 H857 0.930 . S
C865 C863 1.419 . S
C865 C866 1.362 1_455 S
C866 H858 0.930 . S
C866 C865 1.362 1_655 S
C866 C869 1.398 1_556 S
C867 H859 0.930 . S
C867 C868 1.355 . S
C867 C869 1.426 . S
C868 C867 1.355 . S
C868 C870 1.419 . S
C869 C864 1.425 1_654 S
C869 C866 1.398 1_554 S
C869 C867 1.426 . S
C870 H860 0.930 . S
C870 C868 1.419 . S
C870 C871 1.362 1_655 S
C871 H861 0.930 . S
C871 C864 1.398 1_554 S
C871 C870 1.362 1_455 S
H872 C878 0.930 . S
H873 C881 0.930 . S
H874 C882 0.930 . S
H875 C883 0.930 . S
H876 C886 0.930 . S
H877 C887 0.930 . S
C878 H872 0.930 . S
C878 C879 1.355 . S
C878 C880 1.415 . S
C879 C878 1.355 . S
C879 C881 1.419 . S
C880 C878 1.415 . S
C880 C885 1.425 1_554 S
C880 C887 1.409 . S
C881 H873 0.930 . S
C881 C879 1.419 . S
C881 C882 1.362 1_554 S
C882 H874 0.930 . S
C882 C881 1.362 1_556 S
C882 C885 1.409 . S
C883 H875 0.930 . S
C883 C884 1.355 . S
C883 C885 1.415 . S
C884 C883 1.355 . S
C884 C886 1.419 . S
C885 C880 1.425 1_556 S
C885 C882 1.409 . S
C885 C883 1.415 . S
C886 H876 0.930 . S
C886 C884 1.419 . S
C886 C887 1.362 1_556 S
C887 H877 0.930 . S
C887 C880 1.409 . S
C887 C886 1.362 1_554 S
H888 C894 0.930 . S
H889 C897 0.930 . S
H890 C898 0.930 . S
H891 C899 0.930 . S
H892 C902 0.930 . S
H893 C903 0.930 . S
C894 H888 0.930 . S
C894 C895 1.355 . S
C894 C896 1.415 . S
C895 C894 1.355 . S
C895 C897 1.419 . S
C896 C894 1.415 . S
C896 C901 1.425 . S
C896 C903 1.409 . S
C897 H889 0.930 . S
C897 C895 1.419 . S
C897 C898 1.362 . S
C898 H890 0.930 . S
C898 C897 1.362 . S
C898 C901 1.409 . S
C899 H891 0.930 . S
C899 C900 1.355 . S
C899 C901 1.415 . S
C900 C899 1.355 . S
C900 C902 1.419 . S
C901 C896 1.425 . S
C901 C898 1.409 . S
C901 C899 1.415 . S
C902 H892 0.930 . S
C902 C900 1.419 . S
C902 C903 1.362 . S
C903 H893 0.930 . S
C903 C896 1.409 . S
C903 C902 1.362 . S
H904 C910 0.930 . S
H905 C913 0.930 . S
H906 C914 0.930 . S
H907 C915 0.930 . S
H908 C918 0.930 . S
H909 C919 0.930 . S
C910 H904 0.930 . S
C910 C911 1.355 . S
C910 C912 1.415 . S
C911 C910 1.355 . S
C911 C913 1.419 . S
C912 C910 1.415 . S
C912 C917 1.425 . S
C912 C919 1.409 . S
C913 H905 0.930 . S
C913 C911 1.419 . S
C913 C914 1.362 . S
C914 H906 0.930 . S
C914 C913 1.362 . S
C914 C917 1.409 . S
C915 H907 0.930 . S
C915 C916 1.355 . S
C915 C917 1.415 . S
C916 C915 1.355 . S
C916 C918 1.419 . S
C917 C912 1.425 . S
C917 C914 1.409 . S
C917 C915 1.415 . S
C918 H908 0.930 . S
C918 C916 1.419 . S
C918 C919 1.362 . S
C919 H909 0.930 . S
C919 C912 1.409 . S
C919 C918 1.362 . S
H920 C926 0.930 . S
H921 C929 0.930 . S
H922 C930 0.930 . S
H923 C931 0.930 . S
H924 C934 0.930 . S
H925 C935 0.930 . S
C926 H920 0.930 . S
C926 C927 1.355 . S
C926 C928 1.415 . S
C927 C926 1.355 . S
C927 C929 1.419 . S
C928 C926 1.415 . S
C928 C933 1.425 . S
C928 C935 1.409 . S
C929 H921 0.930 . S
C929 C927 1.419 . S
C929 C930 1.362 . S
C930 H922 0.930 . S
C930 C929 1.362 . S
C930 C933 1.409 . S
C931 H923 0.930 . S
C931 C932 1.355 . S
C931 C933 1.415 . S
C932 C931 1.355 . S
C932 C934 1.419 . S
C933 C928 1.425 . S
C933 C930 1.409 . S
C933 C931 1.415 . S
C934 H924 0.930 . S
C934 C932 1.419 . S
C934 C935 1.362 . S
C935 H925 0.930 . S
C935 C928 1.409 . S
C935 C934 1.362 . S
H936 C942 0.930 . S
H937 C945 0.930 . S
H938 C946 0.930 . S
H939 C947 0.930 . S
H940 C950 0.930 . S
H941 C951 0.930 . S
C942 H936 0.930 . S
C942 C943 1.355 . S
C942 C944 1.415 . S
C943 C942 1.355 . S
C943 C945 1.419 . S
C944 C942 1.415 . S
C944 C949 1.425 . S
C944 C951 1.409 . S
C945 H937 0.930 . S
C945 C943 1.419 . S
C945 C946 1.362 . S
C946 H938 0.930 . S
C946 C945 1.362 . S
C946 C949 1.409 . S
C947 H939 0.930 . S
C947 C948 1.355 . S
C947 C949 1.415 . S
C948 C947 1.355 . S
C948 C950 1.419 . S
C949 C944 1.425 . S
C949 C946 1.409 . S
C949 C947 1.415 . S
C950 H940 0.930 . S
C950 C948 1.419 . S
C950 C951 1.362 . S
C951 H941 0.930 . S
C951 C944 1.409 . S
C951 C950 1.362 . S
H952 C958 0.930 . S
H953 C961 0.930 . S
H954 C962 0.930 . S
H955 C963 0.930 . S
H956 C966 0.930 . S
H957 C967 0.930 . S
C958 H952 0.930 . S
C958 C959 1.355 . S
C958 C960 1.415 . S
C959 C958 1.355 . S
C959 C961 1.419 . S
C960 C958 1.415 . S
C960 C965 1.425 . S
C960 C967 1.409 . S
C961 H953 0.930 . S
C961 C959 1.419 . S
C961 C962 1.362 . S
C962 H954 0.930 . S
C962 C961 1.362 . S
C962 C965 1.409 . S
C963 H955 0.930 . S
C963 C964 1.355 . S
C963 C965 1.415 . S
C964 C963 1.355 . S
C964 C966 1.419 . S
C965 C960 1.425 . S
C965 C962 1.409 . S
C965 C963 1.415 . S
C966 H956 0.930 . S
C966 C964 1.419 . S
C966 C967 1.362 . S
C967 H957 0.930 . S
C967 C960 1.409 . S
C967 C966 1.362 . S
H968 C974 0.930 . S
H969 C977 0.930 . S
H970 C978 0.930 . S
H971 C979 0.930 . S
H972 C982 0.930 . S
H973 C983 0.930 . S
C974 H968 0.930 . S
C974 C975 1.355 . S
C974 C976 1.415 . S
C975 C974 1.355 . S
C975 C977 1.419 . S
C976 C974 1.415 . S
C976 C981 1.425 . S
C976 C983 1.409 . S
C977 H969 0.930 . S
C977 C975 1.419 . S
C977 C978 1.362 . S
C978 H970 0.930 . S
C978 C977 1.362 . S
C978 C981 1.409 . S
C979 H971 0.930 . S
C979 C980 1.355 . S
C979 C981 1.415 . S
C980 C979 1.355 . S
C980 C982 1.419 . S
C981 C976 1.425 . S
C981 C978 1.409 . S
C981 C979 1.415 . S
C982 H972 0.930 . S
C982 C980 1.419 . S
C982 C983 1.362 . S
C983 H973 0.930 . S
C983 C976 1.409 . S
C983 C982 1.362 . S
H984 C990 0.930 . S
H985 C993 0.930 . S
H986 C994 0.930 . S
H987 C995 0.930 . S
H988 C998 0.930 . S
H989 C999 0.930 . S
C990 H984 0.930 . S
C990 C991 1.355 . S
C990 C992 1.415 . S
C991 C990 1.355 . S
C991 C993 1.419 . S
C992 C990 1.415 . S
C992 C997 1.425 . S
C992 C999 1.409 . S
C993 H985 0.930 . S
C993 C991 1.419 . S
C993 C994 1.362 . S
C994 H986 0.930 . S
C994 C993 1.362 . S
C994 C997 1.409 . S
C995 H987 0.930 . S
C995 C996 1.355 . S
C995 C997 1.415 . S
C996 C995 1.355 . S
C996 C998 1.419 . S
C997 C992 1.425 . S
C997 C994 1.409 . S
C997 C995 1.415 . S
C998 H988 0.930 . S
C998 C996 1.419 . S
C998 C999 1.362 . S
C999 H989 0.930 . S
C999 C992 1.409 . S
C999 C998 1.362 . S
H1000 C1006 0.930 . S
H1001 C1009 0.930 . S
H1002 C1010 0.930 . S
H1003 C1011 0.930 . S
H1004 C1014 0.930 . S
H1005 C1015 0.930 . S
C1006 H1000 0.930 . S
C1006 C1007 1.355 . S
C1006 C1008 1.415 . S
C1007 C1006 1.355 . S
C1007 C1009 1.419 . S
C1008 C1006 1.415 . S
C1008 C1013 1.425 . S
C1008 C1015 1.409 . S
C1009 H1001 0.930 . S
C1009 C1007 1.419 . S
C1009 C1010 1.362 . S
C1010 H1002 0.930 . S
C1010 C1009 1.362 . S
C1010 C1013 1.409 . S
C1011 H1003 0.930 . S
C1011 C1012 1.355 . S
C1011 C1013 1.415 . S
C1012 C1011 1.355 . S
C1012 C1014 1.419 . S
C1013 C1008 1.425 . S
C1013 C1010 1.409 . S
C1013 C1011 1.415 . S
C1014 H1004 0.930 . S
C1014 C1012 1.419 . S
C1014 C1015 1.362 . S
C1015 H1005 0.930 . S
C1015 C1008 1.409 . S
C1015 C1014 1.362 . S
H1016 C1022 0.930 . S
H1017 C1025 0.930 . S
H1018 C1026 0.930 . S
H1019 C1027 0.930 . S
H1020 C1030 0.930 . S
H1021 C1031 0.930 . S
C1022 H1016 0.930 . S
C1022 C1023 1.355 . S
C1022 C1024 1.415 . S
C1023 C1022 1.355 . S
C1023 C1025 1.419 . S
C1024 C1022 1.415 . S
C1024 C1029 1.425 . S
C1024 C1031 1.409 . S
C1025 H1017 0.930 . S
C1025 C1023 1.419 . S
C1025 C1026 1.362 . S
C1026 H1018 0.930 . S
C1026 C1025 1.362 . S
C1026 C1029 1.409 . S
C1027 H1019 0.930 . S
C1027 C1028 1.355 . S
C1027 C1029 1.415 . S
C1028 C1027 1.355 . S
C1028 C1030 1.419 . S
C1029 C1024 1.425 . S
C1029 C1026 1.409 . S
C1029 C1027 1.415 . S
C1030 H1020 0.930 . S
C1030 C1028 1.419 . S
C1030 C1031 1.362 . S
C1031 H1021 0.930 . S
C1031 C1024 1.409 . S
C1031 C1030 1.362 . S
H1032 C1038 0.930 . S
H1033 C1041 0.930 . S
H1034 C1042 0.930 . S
H1035 C1043 0.930 . S
H1036 C1046 0.930 . S
H1037 C1047 0.930 . S
C1038 H1032 0.930 . S
C1038 C1039 1.355 . S
C1038 C1040 1.415 . S
C1039 C1038 1.355 . S
C1039 C1041 1.419 . S
C1040 C1038 1.415 . S
C1040 C1045 1.425 . S
C1040 C1047 1.409 . S
C1041 H1033 0.930 . S
C1041 C1039 1.419 . S
C1041 C1042 1.362 . S
C1042 H1034 0.930 . S
C1042 C1041 1.362 . S
C1042 C1045 1.409 . S
C1043 H1035 0.930 . S
C1043 C1044 1.355 . S
C1043 C1045 1.415 . S
C1044 C1043 1.355 . S
C1044 C1046 1.419 . S
C1045 C1040 1.425 . S
C1045 C1042 1.409 . S
C1045 C1043 1.415 . S
C1046 H1036 0.930 . S
C1046 C1044 1.419 . S
C1046 C1047 1.362 . S
C1047 H1037 0.930 . S
C1047 C1040 1.409 . S
C1047 C1046 1.362 . S
H1048 C1054 0.930 . S
H1049 C1057 0.930 . S
H1050 C1058 0.930 . S
H1051 C1059 0.930 . S
H1052 C1062 0.930 . S
H1053 C1063 0.930 . S
C1054 H1048 0.930 . S
C1054 C1055 1.355 . S
C1054 C1056 1.415 . S
C1055 C1054 1.355 . S
C1055 C1057 1.419 . S
C1056 C1054 1.415 . S
C1056 C1061 1.425 . S
C1056 C1063 1.409 . S
C1057 H1049 0.930 . S
C1057 C1055 1.419 . S
C1057 C1058 1.362 . S
C1058 H1050 0.930 . S
C1058 C1057 1.362 . S
C1058 C1061 1.409 . S
C1059 H1051 0.930 . S
C1059 C1060 1.355 . S
C1059 C1061 1.415 . S
C1060 C1059 1.355 . S
C1060 C1062 1.419 . S
C1061 C1056 1.425 . S
C1061 C1058 1.409 . S
C1061 C1059 1.415 . S
C1062 H1052 0.930 . S
C1062 C1060 1.419 . S
C1062 C1063 1.362 . S
C1063 H1053 0.930 . S
C1063 C1056 1.409 . S
C1063 C1062 1.362 . S
H1064 C1070 0.930 . S
H1065 C1073 0.930 . S
H1066 C1074 0.930 . S
H1067 C1075 0.930 . S
H1068 C1078 0.930 . S
H1069 C1079 0.930 . S
C1070 H1064 0.930 . S
C1070 C1071 1.355 . S
C1070 C1072 1.415 . S
C1071 C1070 1.355 . S
C1071 C1073 1.419 . S
C1072 C1070 1.415 . S
C1072 C1077 1.425 . S
C1072 C1079 1.409 . S
C1073 H1065 0.930 . S
C1073 C1071 1.419 . S
C1073 C1074 1.362 . S
C1074 H1066 0.930 . S
C1074 C1073 1.362 . S
C1074 C1077 1.409 . S
C1075 H1067 0.930 . S
C1075 C1076 1.355 . S
C1075 C1077 1.415 . S
C1076 C1075 1.355 . S
C1076 C1078 1.419 . S
C1077 C1072 1.425 . S
C1077 C1074 1.409 . S
C1077 C1075 1.415 . S
C1078 H1068 0.930 . S
C1078 C1076 1.419 . S
C1078 C1079 1.362 . S
C1079 H1069 0.930 . S
C1079 C1072 1.409 . S
C1079 C1078 1.362 . S
H1080 C1086 0.930 . S
H1081 C1089 0.930 . S
H1082 C1090 0.930 . S
H1083 C1091 0.930 . S
H1084 C1094 0.930 . S
H1085 C1095 0.930 . S
C1086 H1080 0.930 . S
C1086 C1087 1.355 . S
C1086 C1088 1.415 . S
C1087 C1086 1.355 . S
C1087 C1089 1.419 . S
C1088 C1086 1.415 . S
C1088 C1093 1.425 . S
C1088 C1095 1.409 . S
C1089 H1081 0.930 . S
C1089 C1087 1.419 . S
C1089 C1090 1.362 . S
C1090 H1082 0.930 . S
C1090 C1089 1.362 . S
C1090 C1093 1.409 . S
C1091 H1083 0.930 . S
C1091 C1092 1.355 . S
C1091 C1093 1.415 . S
C1092 C1091 1.355 . S
C1092 C1094 1.419 . S
C1093 C1088 1.425 . S
C1093 C1090 1.409 . S
C1093 C1091 1.415 . S
C1094 H1084 0.930 . S
C1094 C1092 1.419 . S
C1094 C1095 1.362 . S
C1095 H1085 0.930 . S
C1095 C1088 1.409 . S
C1095 C1094 1.362 . S
H1096 C1102 0.930 . S
H1097 C1105 0.930 . S
H1098 C1106 0.930 . S
H1099 C1107 0.930 . S
H1100 C1110 0.930 . S
H1101 C1111 0.930 . S
C1102 H1096 0.930 . S
C1102 C1103 1.355 . S
C1102 C1104 1.415 . S
C1103 C1102 1.355 . S
C1103 C1105 1.419 . S
C1104 C1102 1.415 . S
C1104 C1109 1.425 . S
C1104 C1111 1.409 . S
C1105 H1097 0.930 . S
C1105 C1103 1.419 . S
C1105 C1106 1.362 . S
C1106 H1098 0.930 . S
C1106 C1105 1.362 . S
C1106 C1109 1.409 . S
C1107 H1099 0.930 . S
C1107 C1108 1.355 . S
C1107 C1109 1.415 . S
C1108 C1107 1.355 . S
C1108 C1110 1.419 . S
C1109 C1104 1.425 . S
C1109 C1106 1.409 . S
C1109 C1107 1.415 . S
C1110 H1100 0.930 . S
C1110 C1108 1.419 . S
C1110 C1111 1.362 . S
C1111 H1101 0.930 . S
C1111 C1104 1.409 . S
C1111 C1110 1.362 . S
H1112 C1118 0.930 . S
H1113 C1121 0.930 . S
H1114 C1122 0.930 . S
H1115 C1123 0.930 . S
H1116 C1126 0.930 . S
H1117 C1127 0.930 . S
C1118 H1112 0.930 . S
C1118 C1119 1.355 . S
C1118 C1120 1.415 . S
C1119 C1118 1.355 . S
C1119 C1121 1.419 . S
C1120 C1118 1.415 . S
C1120 C1125 1.425 . S
C1120 C1127 1.409 . S
C1121 H1113 0.930 . S
C1121 C1119 1.419 . S
C1121 C1122 1.362 . S
C1122 H1114 0.930 . S
C1122 C1121 1.362 . S
C1122 C1125 1.409 . S
C1123 H1115 0.930 . S
C1123 C1124 1.355 . S
C1123 C1125 1.415 . S
C1124 C1123 1.355 . S
C1124 C1126 1.419 . S
C1125 C1120 1.425 . S
C1125 C1122 1.409 . S
C1125 C1123 1.415 . S
C1126 H1116 0.930 . S
C1126 C1124 1.419 . S
C1126 C1127 1.362 . S
C1127 H1117 0.930 . S
C1127 C1120 1.409 . S
C1127 C1126 1.362 . S
H1128 C1134 0.930 . S
H1129 C1137 0.930 . S
H1130 C1138 0.930 . S
H1131 C1139 0.930 . S
H1132 C1142 0.930 . S
H1133 C1143 0.930 . S
C1134 H1128 0.930 . S
C1134 C1135 1.355 . S
C1134 C1136 1.415 . S
C1135 C1134 1.355 . S
C1135 C1137 1.419 . S
C1136 C1134 1.415 . S
C1136 C1141 1.425 . S
C1136 C1143 1.409 . S
C1137 H1129 0.930 . S
C1137 C1135 1.419 . S
C1137 C1138 1.362 . S
C1138 H1130 0.930 . S
C1138 C1137 1.362 . S
C1138 C1141 1.409 . S
C1139 H1131 0.930 . S
C1139 C1140 1.355 . S
C1139 C1141 1.415 . S
C1140 C1139 1.355 . S
C1140 C1142 1.419 . S
C1141 C1136 1.425 . S
C1141 C1138 1.409 . S
C1141 C1139 1.415 . S
C1142 H1132 0.930 . S
C1142 C1140 1.419 . S
C1142 C1143 1.362 . S
C1143 H1133 0.930 . S
C1143 C1136 1.409 . S
C1143 C1142 1.362 . S
H1144 C1150 0.930 . S
H1145 C1153 0.930 . S
H1146 C1154 0.930 . S
H1147 C1155 0.930 . S
H1148 C1158 0.930 . S
H1149 C1159 0.930 . S
C1150 H1144 0.930 . S
C1150 C1151 1.355 . S
C1150 C1152 1.415 . S
C1151 C1150 1.355 . S
C1151 C1153 1.419 . S
C1152 C1150 1.415 . S
C1152 C1157 1.425 . S
C1152 C1159 1.409 . S
C1153 H1145 0.930 . S
C1153 C1151 1.419 . S
C1153 C1154 1.362 . S
C1154 H1146 0.930 . S
C1154 C1153 1.362 . S
C1154 C1157 1.409 . S
C1155 H1147 0.930 . S
C1155 C1156 1.355 . S
C1155 C1157 1.415 . S
C1156 C1155 1.355 . S
C1156 C1158 1.419 . S
C1157 C1152 1.425 . S
C1157 C1154 1.409 . S
C1157 C1155 1.415 . S
C1158 H1148 0.930 . S
C1158 C1156 1.419 . S
C1158 C1159 1.362 . S
C1159 H1149 0.930 . S
C1159 C1152 1.409 . S
C1159 C1158 1.362 . S
H1160 C1166 0.930 . S
H1161 C1169 0.930 . S
H1162 C1170 0.930 . S
H1163 C1171 0.930 . S
H1164 C1174 0.930 . S
H1165 C1175 0.930 . S
C1166 H1160 0.930 . S
C1166 C1167 1.355 . S
C1166 C1168 1.415 . S
C1167 C1166 1.355 . S
C1167 C1169 1.419 . S
C1168 C1166 1.415 . S
C1168 C1173 1.425 . S
C1168 C1175 1.409 . S
C1169 H1161 0.930 . S
C1169 C1167 1.419 . S
C1169 C1170 1.362 . S
C1170 H1162 0.930 . S
C1170 C1169 1.362 . S
C1170 C1173 1.409 . S
C1171 H1163 0.930 . S
C1171 C1172 1.355 . S
C1171 C1173 1.415 . S
C1172 C1171 1.355 . S
C1172 C1174 1.419 . S
C1173 C1168 1.425 . S
C1173 C1170 1.409 . S
C1173 C1171 1.415 . S
C1174 H1164 0.930 . S
C1174 C1172 1.419 . S
C1174 C1175 1.362 . S
C1175 H1165 0.930 . S
C1175 C1168 1.409 . S
C1175 C1174 1.362 . S
H1176 C1182 0.930 . S
H1177 C1185 0.930 . S
H1178 C1186 0.930 . S
H1179 C1187 0.930 . S
H1180 C1190 0.930 . S
H1181 C1191 0.930 . S
C1182 H1176 0.930 . S
C1182 C1183 1.355 . S
C1182 C1184 1.415 . S
C1183 C1182 1.355 . S
C1183 C1185 1.419 . S
C1184 C1182 1.415 . S
C1184 C1189 1.425 . S
C1184 C1191 1.409 . S
C1185 H1177 0.930 . S
C1185 C1183 1.419 . S
C1185 C1186 1.362 . S
C1186 H1178 0.930 . S
C1186 C1185 1.362 . S
C1186 C1189 1.409 . S
C1187 H1179 0.930 . S
C1187 C1188 1.355 . S
C1187 C1189 1.415 . S
C1188 C1187 1.355 . S
C1188 C1190 1.419 . S
C1189 C1184 1.425 . S
C1189 C1186 1.409 . S
C1189 C1187 1.415 . S
C1190 H1180 0.930 . S
C1190 C1188 1.419 . S
C1190 C1191 1.362 . S
C1191 H1181 0.930 . S
C1191 C1184 1.409 . S
C1191 C1190 1.362 . S
H1192 C1198 0.930 . S
H1193 C1201 0.930 . S
H1194 C1202 0.930 . S
H1195 C1203 0.930 . S
H1196 C1206 0.930 . S
H1197 C1207 0.930 . S
C1198 H1192 0.930 . S
C1198 C1199 1.355 . S
C1198 C1200 1.415 . S
C1199 C1198 1.355 . S
C1199 C1201 1.419 . S
C1200 C1198 1.415 . S
C1200 C1205 1.425 . S
C1200 C1207 1.409 . S
C1201 H1193 0.930 . S
C1201 C1199 1.419 . S
C1201 C1202 1.362 . S
C1202 H1194 0.930 . S
C1202 C1201 1.362 . S
C1202 C1205 1.409 . S
C1203 H1195 0.930 . S
C1203 C1204 1.355 . S
C1203 C1205 1.415 . S
C1204 C1203 1.355 . S
C1204 C1206 1.419 . S
C1205 C1200 1.425 . S
C1205 C1202 1.409 . S
C1205 C1203 1.415 . S
C1206 H1196 0.930 . S
C1206 C1204 1.419 . S
C1206 C1207 1.362 . S
C1207 H1197 0.930 . S
C1207 C1200 1.409 . S
C1207 C1206 1.362 . S
H1208 C1214 0.930 . S
H1209 C1217 0.930 . S
H1210 C1218 0.930 . S
H1211 C1219 0.930 . S
H1212 C1222 0.930 . S
H1213 C1223 0.930 . S
C1214 H1208 0.930 . S
C1214 C1215 1.355 . S
C1214 C1216 1.415 . S
C1215 C1214 1.355 . S
C1215 C1217 1.419 . S
C1216 C1214 1.415 . S
C1216 C1221 1.425 . S
C1216 C1223 1.409 . S
C1217 H1209 0.930 . S
C1217 C1215 1.419 . S
C1217 C1218 1.362 . S
C1218 H1210 0.930 . S
C1218 C1217 1.362 . S
C1218 C1221 1.409 . S
C1219 H1211 0.930 . S
C1219 C1220 1.355 . S
C1219 C1221 1.415 . S
C1220 C1219 1.355 . S
C1220 C1222 1.419 . S
C1221 C1216 1.425 . S
C1221 C1218 1.409 . S
C1221 C1219 1.415 . S
C1222 H1212 0.930 . S
C1222 C1220 1.419 . S
C1222 C1223 1.362 . S
C1223 H1213 0.930 . S
C1223 C1216 1.409 . S
C1223 C1222 1.362 . S
H1224 C1230 0.930 . S
H1225 C1233 0.930 . S
H1226 C1234 0.930 . S
H1227 C1235 0.930 . S
H1228 C1238 0.930 . S
H1229 C1239 0.930 . S
C1230 H1224 0.930 . S
C1230 C1231 1.355 . S
C1230 C1232 1.415 . S
C1231 C1230 1.355 . S
C1231 C1233 1.419 . S
C1232 C1230 1.415 . S
C1232 C1237 1.425 . S
C1232 C1239 1.409 . S
C1233 H1225 0.930 . S
C1233 C1231 1.419 . S
C1233 C1234 1.362 . S
C1234 H1226 0.930 . S
C1234 C1233 1.362 . S
C1234 C1237 1.409 . S
C1235 H1227 0.930 . S
C1235 C1236 1.355 . S
C1235 C1237 1.415 . S
C1236 C1235 1.355 . S
C1236 C1238 1.419 . S
C1237 C1232 1.425 . S
C1237 C1234 1.409 . S
C1237 C1235 1.415 . S
C1238 H1228 0.930 . S
C1238 C1236 1.419 . S
C1238 C1239 1.362 . S
C1239 H1229 0.930 . S
C1239 C1232 1.409 . S
C1239 C1238 1.362 . S
H1240 C1246 0.930 . S
H1241 C1249 0.930 . S
H1242 C1250 0.930 . S
H1243 C1251 0.930 . S
H1244 C1254 0.930 . S
H1245 C1255 0.930 . S
C1246 H1240 0.930 . S
C1246 C1247 1.355 . S
C1246 C1248 1.415 . S
C1247 C1246 1.355 . S
C1247 C1249 1.419 . S
C1248 C1246 1.415 . S
C1248 C1253 1.425 . S
C1248 C1255 1.409 . S
C1249 H1241 0.930 . S
C1249 C1247 1.419 . S
C1249 C1250 1.362 . S
C1250 H1242 0.930 . S
C1250 C1249 1.362 . S
C1250 C1253 1.409 . S
C1251 H1243 0.930 . S
C1251 C1252 1.355 . S
C1251 C1253 1.415 . S
C1252 C1251 1.355 . S
C1252 C1254 1.419 . S
C1253 C1248 1.425 . S
C1253 C1250 1.409 . S
C1253 C1251 1.415 . S
C1254 H1244 0.930 . S
C1254 C1252 1.419 . S
C1254 C1255 1.362 . S
C1255 H1245 0.930 . S
C1255 C1248 1.409 . S
C1255 C1254 1.362 . S
H1256 C1262 0.930 . S
H1257 C1265 0.930 . S
H1258 C1266 0.930 . S
H1259 C1267 0.930 . S
H1260 C1270 0.930 . S
H1261 C1271 0.930 . S
C1262 H1256 0.930 . S
C1262 C1263 1.355 . S
C1262 C1264 1.415 . S
C1263 C1262 1.355 . S
C1263 C1265 1.419 . S
C1264 C1262 1.415 . S
C1264 C1269 1.425 . S
C1264 C1271 1.409 . S
C1265 H1257 0.930 . S
C1265 C1263 1.419 . S
C1265 C1266 1.362 . S
C1266 H1258 0.930 . S
C1266 C1265 1.362 . S
C1266 C1269 1.409 . S
C1267 H1259 0.930 . S
C1267 C1268 1.355 . S
C1267 C1269 1.415 . S
C1268 C1267 1.355 . S
C1268 C1270 1.419 . S
C1269 C1264 1.425 . S
C1269 C1266 1.409 . S
C1269 C1267 1.415 . S
C1270 H1260 0.930 . S
C1270 C1268 1.419 . S
C1270 C1271 1.362 . S
C1271 H1261 0.930 . S
C1271 C1264 1.409 . S
C1271 C1270 1.362 . S
H1272 C1278 0.930 . S
H1273 C1281 0.930 . S
H1274 C1282 0.930 . S
H1275 C1283 0.930 . S
H1276 C1286 0.930 . S
H1277 C1287 0.930 . S
C1278 H1272 0.930 . S
C1278 C1279 1.355 . S
C1278 C1280 1.415 . S
C1279 C1278 1.355 . S
C1279 C1281 1.419 . S
C1280 C1278 1.415 . S
C1280 C1285 1.425 1_455 S
C1280 C1287 1.409 1_455 S
C1281 H1273 0.930 . S
C1281 C1279 1.419 . S
C1281 C1282 1.362 . S
C1282 H1274 0.930 . S
C1282 C1281 1.362 . S
C1282 C1285 1.409 1_455 S
C1283 H1275 0.930 . S
C1283 C1284 1.355 . S
C1283 C1285 1.415 . S
C1284 C1283 1.355 . S
C1284 C1286 1.419 . S
C1285 C1280 1.425 1_655 S
C1285 C1282 1.409 1_655 S
C1285 C1283 1.415 . S
C1286 H1276 0.930 . S
C1286 C1284 1.419 . S
C1286 C1287 1.362 . S
C1287 H1277 0.930 . S
C1287 C1280 1.409 1_655 S
C1287 C1286 1.362 . S
H1288 C1294 0.930 . S
H1289 C1297 0.930 . S
H1290 C1298 0.930 . S
H1291 C1299 0.930 . S
H1292 C1302 0.930 . S
H1293 C1303 0.930 . S
C1294 H1288 0.930 . S
C1294 C1295 1.355 . S
C1294 C1296 1.415 . S
C1295 C1294 1.355 . S
C1295 C1297 1.419 . S
C1296 C1294 1.415 . S
C1296 C1301 1.425 . S
C1296 C1303 1.409 . S
C1297 H1289 0.930 . S
C1297 C1295 1.419 . S
C1297 C1298 1.362 . S
C1298 H1290 0.930 . S
C1298 C1297 1.362 . S
C1298 C1301 1.409 . S
C1299 H1291 0.930 . S
C1299 C1300 1.355 . S
C1299 C1301 1.415 . S
C1300 C1299 1.355 . S
C1300 C1302 1.419 . S
C1301 C1296 1.425 . S
C1301 C1298 1.409 . S
C1301 C1299 1.415 . S
C1302 H1292 0.930 . S
C1302 C1300 1.419 . S
C1302 C1303 1.362 . S
C1303 H1293 0.930 . S
C1303 C1296 1.409 . S
C1303 C1302 1.362 . S
H1304 C1310 0.930 . S
H1305 C1313 0.930 . S
H1306 C1314 0.930 . S
H1307 C1315 0.930 . S
H1308 C1318 0.930 . S
H1309 C1319 0.930 . S
C1310 H1304 0.930 . S
C1310 C1311 1.355 . S
C1310 C1312 1.415 . S
C1311 C1310 1.355 . S
C1311 C1313 1.419 . S
C1312 C1310 1.415 . S
C1312 C1317 1.425 1_545 S
C1312 C1319 1.409 1_545 S
C1313 H1305 0.930 . S
C1313 C1311 1.419 . S
C1313 C1314 1.362 . S
C1314 H1306 0.930 . S
C1314 C1313 1.362 . S
C1314 C1317 1.409 1_545 S
C1315 H1307 0.930 . S
C1315 C1316 1.355 . S
C1315 C1317 1.415 . S
C1316 C1315 1.355 . S
C1316 C1318 1.419 . S
C1317 C1312 1.425 1_565 S
C1317 C1314 1.409 1_565 S
C1317 C1315 1.415 . S
C1318 H1308 0.930 . S
C1318 C1316 1.419 . S
C1318 C1319 1.362 . S
C1319 H1309 0.930 . S
C1319 C1312 1.409 1_565 S
C1319 C1318 1.362 . S
H1320 C1326 0.930 . S
H1321 C1329 0.930 . S
H1322 C1330 0.930 . S
H1323 C1331 0.930 . S
H1324 C1334 0.930 . S
H1325 C1335 0.930 . S
C1326 H1320 0.930 . S
C1326 C1327 1.355 . S
C1326 C1328 1.415 . S
C1327 C1326 1.355 . S
C1327 C1329 1.419 . S
C1328 C1326 1.415 . S
C1328 C1333 1.425 1_545 S
C1328 C1335 1.409 1_545 S
C1329 H1321 0.930 . S
C1329 C1327 1.419 . S
C1329 C1330 1.362 . S
C1330 H1322 0.930 . S
C1330 C1329 1.362 . S
C1330 C1333 1.409 1_545 S
C1331 H1323 0.930 . S
C1331 C1332 1.355 . S
C1331 C1333 1.415 . S
C1332 C1331 1.355 . S
C1332 C1334 1.419 . S
C1333 C1328 1.425 1_565 S
C1333 C1330 1.409 1_565 S
C1333 C1331 1.415 . S
C1334 H1324 0.930 . S
C1334 C1332 1.419 . S
C1334 C1335 1.362 . S
C1335 H1325 0.930 . S
C1335 C1328 1.409 1_565 S
C1335 C1334 1.362 . S
H1336 C1342 0.930 . S
H1337 C1345 0.930 . S
H1338 C1346 0.930 . S
H1339 C1347 0.930 . S
H1340 C1350 0.930 . S
H1341 C1351 0.930 . S
C1342 H1336 0.930 . S
C1342 C1343 1.355 . S
C1342 C1344 1.415 . S
C1343 C1342 1.355 . S
C1343 C1345 1.419 . S
C1344 C1342 1.415 . S
C1344 C1349 1.425 1_655 S
C1344 C1351 1.409 1_655 S
C1345 H1337 0.930 . S
C1345 C1343 1.419 . S
C1345 C1346 1.362 . S
C1346 H1338 0.930 . S
C1346 C1345 1.362 . S
C1346 C1349 1.409 1_655 S
C1347 H1339 0.930 . S
C1347 C1348 1.355 . S
C1347 C1349 1.415 . S
C1348 C1347 1.355 . S
C1348 C1350 1.419 . S
C1349 C1344 1.425 1_455 S
C1349 C1346 1.409 1_455 S
C1349 C1347 1.415 . S
C1350 H1340 0.930 . S
C1350 C1348 1.419 . S
C1350 C1351 1.362 . S
C1351 H1341 0.930 . S
C1351 C1344 1.409 1_455 S
C1351 C1350 1.362 . S
H1352 C1358 0.930 . S
H1353 C1361 0.930 . S
H1354 C1362 0.930 . S
H1355 C1363 0.930 . S
H1356 C1366 0.930 . S
H1357 C1367 0.930 . S
C1358 H1352 0.930 . S
C1358 C1359 1.355 . S
C1358 C1360 1.415 . S
C1359 C1358 1.355 . S
C1359 C1361 1.419 . S
C1360 C1358 1.415 . S
C1360 C1365 1.425 . S
C1360 C1367 1.409 . S
C1361 H1353 0.930 . S
C1361 C1359 1.419 . S
C1361 C1362 1.362 . S
C1362 H1354 0.930 . S
C1362 C1361 1.362 . S
C1362 C1365 1.409 . S
C1363 H1355 0.930 . S
C1363 C1364 1.355 . S
C1363 C1365 1.415 . S
C1364 C1363 1.355 . S
C1364 C1366 1.419 . S
C1365 C1360 1.425 . S
C1365 C1362 1.409 . S
C1365 C1363 1.415 . S
C1366 H1356 0.930 . S
C1366 C1364 1.419 . S
C1366 C1367 1.362 . S
C1367 H1357 0.930 . S
C1367 C1360 1.409 . S
C1367 C1366 1.362 . S
H1368 C1374 0.930 . S
H1369 C1377 0.930 . S
H1370 C1378 0.930 . S
H1371 C1379 0.930 . S
H1372 C1382 0.930 . S
H1373 C1383 0.930 . S
C1374 H1368 0.930 . S
C1374 C1375 1.355 . S
C1374 C1376 1.415 . S
C1375 C1374 1.355 . S
C1375 C1377 1.419 . S
C1376 C1374 1.415 . S
C1376 C1381 1.425 . S
C1376 C1383 1.409 . S
C1377 H1369 0.930 . S
C1377 C1375 1.419 . S
C1377 C1378 1.362 . S
C1378 H1370 0.930 . S
C1378 C1377 1.362 . S
C1378 C1381 1.409 . S
C1379 H1371 0.930 . S
C1379 C1380 1.355 . S
C1379 C1381 1.415 . S
C1380 C1379 1.355 . S
C1380 C1382 1.419 . S
C1381 C1376 1.425 . S
C1381 C1378 1.409 . S
C1381 C1379 1.415 . S
C1382 H1372 0.930 . S
C1382 C1380 1.419 . S
C1382 C1383 1.362 . S
C1383 H1373 0.930 . S
C1383 C1376 1.409 . S
C1383 C1382 1.362 . S
H1384 C1390 0.930 . S
H1385 C1393 0.930 . S
H1386 C1394 0.930 . S
H1387 C1395 0.930 . S
H1388 C1398 0.930 . S
H1389 C1399 0.930 . S
C1390 H1384 0.930 . S
C1390 C1391 1.355 . S
C1390 C1392 1.415 . S
C1391 C1390 1.355 . S
C1391 C1393 1.419 . S
C1392 C1390 1.415 . S
C1392 C1397 1.425 . S
C1392 C1399 1.409 . S
C1393 H1385 0.930 . S
C1393 C1391 1.419 . S
C1393 C1394 1.362 . S
C1394 H1386 0.930 . S
C1394 C1393 1.362 . S
C1394 C1397 1.409 . S
C1395 H1387 0.930 . S
C1395 C1396 1.355 . S
C1395 C1397 1.415 . S
C1396 C1395 1.355 . S
C1396 C1398 1.419 . S
C1397 C1392 1.425 . S
C1397 C1394 1.409 . S
C1397 C1395 1.415 . S
C1398 H1388 0.930 . S
C1398 C1396 1.419 . S
C1398 C1399 1.362 . S
C1399 H1389 0.930 . S
C1399 C1392 1.409 . S
C1399 C1398 1.362 . S
H1400 C1406 0.930 . S
H1401 C1409 0.930 . S
H1402 C1410 0.930 . S
H1403 C1411 0.930 . S
H1404 C1414 0.930 . S
H1405 C1415 0.930 . S
C1406 H1400 0.930 . S
C1406 C1407 1.355 . S
C1406 C1408 1.415 . S
C1407 C1406 1.355 . S
C1407 C1409 1.419 . S
C1408 C1406 1.415 . S
C1408 C1413 1.425 . S
C1408 C1415 1.409 . S
C1409 H1401 0.930 . S
C1409 C1407 1.419 . S
C1409 C1410 1.362 . S
C1410 H1402 0.930 . S
C1410 C1409 1.362 . S
C1410 C1413 1.409 . S
C1411 H1403 0.930 . S
C1411 C1412 1.355 . S
C1411 C1413 1.415 . S
C1412 C1411 1.355 . S
C1412 C1414 1.419 . S
C1413 C1408 1.425 . S
C1413 C1410 1.409 . S
C1413 C1411 1.415 . S
C1414 H1404 0.930 . S
C1414 C1412 1.419 . S
C1414 C1415 1.362 . S
C1415 H1405 0.930 . S
C1415 C1408 1.409 . S
C1415 C1414 1.362 . S
H1416 C1422 0.930 . S
H1417 C1425 0.930 . S
H1418 C1426 0.930 . S
H1419 C1427 0.930 . S
H1420 C1430 0.930 . S
H1421 C1431 0.930 . S
C1422 H1416 0.930 . S
C1422 C1423 1.355 . S
C1422 C1424 1.415 . S
C1423 C1422 1.355 . S
C1423 C1425 1.419 . S
C1424 C1422 1.415 . S
C1424 C1429 1.425 . S
C1424 C1431 1.409 . S
C1425 H1417 0.930 . S
C1425 C1423 1.419 . S
C1425 C1426 1.362 . S
C1426 H1418 0.930 . S
C1426 C1425 1.362 . S
C1426 C1429 1.409 . S
C1427 H1419 0.930 . S
C1427 C1428 1.355 . S
C1427 C1429 1.415 . S
C1428 C1427 1.355 . S
C1428 C1430 1.419 . S
C1429 C1424 1.425 . S
C1429 C1426 1.409 . S
C1429 C1427 1.415 . S
C1430 H1420 0.930 . S
C1430 C1428 1.419 . S
C1430 C1431 1.362 . S
C1431 H1421 0.930 . S
C1431 C1424 1.409 . S
C1431 C1430 1.362 . S
H1432 C1438 0.930 . S
H1433 C1441 0.930 . S
H1434 C1442 0.930 . S
H1435 C1443 0.930 . S
H1436 C1446 0.930 . S
H1437 C1447 0.930 . S
C1438 H1432 0.930 . S
C1438 C1439 1.355 . S
C1438 C1440 1.415 . S
C1439 C1438 1.355 . S
C1439 C1441 1.419 . S
C1440 C1438 1.415 . S
C1440 C1445 1.425 . S
C1440 C1447 1.409 . S
C1441 H1433 0.930 . S
C1441 C1439 1.419 . S
C1441 C1442 1.362 . S
C1442 H1434 0.930 . S
C1442 C1441 1.362 . S
C1442 C1445 1.409 . S
C1443 H1435 0.930 . S
C1443 C1444 1.355 . S
C1443 C1445 1.415 . S
C1444 C1443 1.355 . S
C1444 C1446 1.419 . S
C1445 C1440 1.425 . S
C1445 C1442 1.409 . S
C1445 C1443 1.415 . S
C1446 H1436 0.930 . S
C1446 C1444 1.419 . S
C1446 C1447 1.362 . S
C1447 H1437 0.930 . S
C1447 C1440 1.409 . S
C1447 C1446 1.362 . S
H1448 C1454 0.930 . S
H1449 C1457 0.930 . S
H1450 C1458 0.930 . S
H1451 C1459 0.930 . S
H1452 C1462 0.930 . S
H1453 C1463 0.930 . S
C1454 H1448 0.930 . S
C1454 C1455 1.355 . S
C1454 C1456 1.415 . S
C1455 C1454 1.355 . S
C1455 C1457 1.419 . S
C1456 C1454 1.415 . S
C1456 C1461 1.425 . S
C1456 C1463 1.409 . S
C1457 H1449 0.930 . S
C1457 C1455 1.419 . S
C1457 C1458 1.362 . S
C1458 H1450 0.930 . S
C1458 C1457 1.362 . S
C1458 C1461 1.409 . S
C1459 H1451 0.930 . S
C1459 C1460 1.355 . S
C1459 C1461 1.415 . S
C1460 C1459 1.355 . S
C1460 C1462 1.419 . S
C1461 C1456 1.425 . S
C1461 C1458 1.409 . S
C1461 C1459 1.415 . S
C1462 H1452 0.930 . S
C1462 C1460 1.419 . S
C1462 C1463 1.362 . S
C1463 H1453 0.930 . S
C1463 C1456 1.409 . S
C1463 C1462 1.362 . S
H1464 C1470 0.930 . S
H1465 C1473 0.930 . S
H1466 C1474 0.930 . S
H1467 C1475 0.930 . S
H1468 C1478 0.930 . S
H1469 C1479 0.930 . S
C1470 H1464 0.930 . S
C1470 C1471 1.355 . S
C1470 C1472 1.415 . S
C1471 C1470 1.355 . S
C1471 C1473 1.419 . S
C1472 C1470 1.415 . S
C1472 C1477 1.425 . S
C1472 C1479 1.409 . S
C1473 H1465 0.930 . S
C1473 C1471 1.419 . S
C1473 C1474 1.362 . S
C1474 H1466 0.930 . S
C1474 C1473 1.362 . S
C1474 C1477 1.409 . S
C1475 H1467 0.930 . S
C1475 C1476 1.355 . S
C1475 C1477 1.415 . S
C1476 C1475 1.355 . S
C1476 C1478 1.419 . S
C1477 C1472 1.425 . S
C1477 C1474 1.409 . S
C1477 C1475 1.415 . S
C1478 H1468 0.930 . S
C1478 C1476 1.419 . S
C1478 C1479 1.362 . S
C1479 H1469 0.930 . S
C1479 C1472 1.409 . S
C1479 C1478 1.362 . S
H1480 C1486 0.930 . S
H1481 C1489 0.930 . S
H1482 C1490 0.930 . S
H1483 C1491 0.930 . S
H1484 C1494 0.930 . S
H1485 C1495 0.930 . S
C1486 H1480 0.930 . S
C1486 C1487 1.355 . S
C1486 C1488 1.415 . S
C1487 C1486 1.355 . S
C1487 C1489 1.419 . S
C1488 C1486 1.415 . S
C1488 C1493 1.425 . S
C1488 C1495 1.409 . S
C1489 H1481 0.930 . S
C1489 C1487 1.419 . S
C1489 C1490 1.362 . S
C1490 H1482 0.930 . S
C1490 C1489 1.362 . S
C1490 C1493 1.409 . S
C1491 H1483 0.930 . S
C1491 C1492 1.355 . S
C1491 C1493 1.415 . S
C1492 C1491 1.355 . S
C1492 C1494 1.419 . S
C1493 C1488 1.425 . S
C1493 C1490 1.409 . S
C1493 C1491 1.415 . S
C1494 H1484 0.930 . S
C1494 C1492 1.419 . S
C1494 C1495 1.362 . S
C1495 H1485 0.930 . S
C1495 C1488 1.409 . S
C1495 C1494 1.362 . S
H1496 C1502 0.930 . S
H1497 C1505 0.930 . S
H1498 C1506 0.930 . S
H1499 C1507 0.930 . S
H1500 C1510 0.930 . S
H1501 C1511 0.930 . S
C1502 H1496 0.930 . S
C1502 C1503 1.355 . S
C1502 C1504 1.415 . S
C1503 C1502 1.355 . S
C1503 C1505 1.419 . S
C1504 C1502 1.415 . S
C1504 C1509 1.425 . S
C1504 C1511 1.409 . S
C1505 H1497 0.930 . S
C1505 C1503 1.419 . S
C1505 C1506 1.362 . S
C1506 H1498 0.930 . S
C1506 C1505 1.362 . S
C1506 C1509 1.409 . S
C1507 H1499 0.930 . S
C1507 C1508 1.355 . S
C1507 C1509 1.415 . S
C1508 C1507 1.355 . S
C1508 C1510 1.419 . S
C1509 C1504 1.425 . S
C1509 C1506 1.409 . S
C1509 C1507 1.415 . S
C1510 H1500 0.930 . S
C1510 C1508 1.419 . S
C1510 C1511 1.362 . S
C1511 H1501 0.930 . S
C1511 C1504 1.409 . S
C1511 C1510 1.362 . S
H1512 C1518 0.930 . S
H1513 C1521 0.930 . S
H1514 C1522 0.930 . S
H1515 C1523 0.930 . S
H1516 C1526 0.930 . S
H1517 C1527 0.930 . S
C1518 H1512 0.930 . S
C1518 C1519 1.355 . S
C1518 C1520 1.415 . S
C1519 C1518 1.355 . S
C1519 C1521 1.419 . S
C1520 C1518 1.415 . S
C1520 C1525 1.425 . S
C1520 C1527 1.409 . S
C1521 H1513 0.930 . S
C1521 C1519 1.419 . S
C1521 C1522 1.362 . S
C1522 H1514 0.930 . S
C1522 C1521 1.362 . S
C1522 C1525 1.409 . S
C1523 H1515 0.930 . S
C1523 C1524 1.355 . S
C1523 C1525 1.415 . S
C1524 C1523 1.355 . S
C1524 C1526 1.419 . S
C1525 C1520 1.425 . S
C1525 C1522 1.409 . S
C1525 C1523 1.415 . S
C1526 H1516 0.930 . S
C1526 C1524 1.419 . S
C1526 C1527 1.362 . S
C1527 H1517 0.930 . S
C1527 C1520 1.409 . S
C1527 C1526 1.362 . S
H1528 C1534 0.930 . S
H1529 C1537 0.930 . S
H1530 C1538 0.930 . S
H1531 C1539 0.930 . S
H1532 C1542 0.930 . S
H1533 C1543 0.930 . S
C1534 H1528 0.930 . S
C1534 C1535 1.355 . S
C1534 C1536 1.415 . S
C1535 C1534 1.355 . S
C1535 C1537 1.419 . S
C1536 C1534 1.415 . S
C1536 C1541 1.425 . S
C1536 C1543 1.409 . S
C1537 H1529 0.930 . S
C1537 C1535 1.419 . S
C1537 C1538 1.362 . S
C1538 H1530 0.930 . S
C1538 C1537 1.362 . S
C1538 C1541 1.409 . S
C1539 H1531 0.930 . S
C1539 C1540 1.355 . S
C1539 C1541 1.415 . S
C1540 C1539 1.355 . S
C1540 C1542 1.419 . S
C1541 C1536 1.425 . S
C1541 C1538 1.409 . S
C1541 C1539 1.415 . S
C1542 H1532 0.930 . S
C1542 C1540 1.419 . S
C1542 C1543 1.362 . S
C1543 H1533 0.930 . S
C1543 C1536 1.409 . S
C1543 C1542 1.362 . S
H1544 C1550 0.930 . S
H1545 C1553 0.930 . S
H1546 C1554 0.930 . S
H1547 C1555 0.930 . S
H1548 C1558 0.930 . S
H1549 C1559 0.930 . S
C1550 H1544 0.930 . S
C1550 C1551 1.355 . S
C1550 C1552 1.415 . S
C1551 C1550 1.355 . S
C1551 C1553 1.419 . S
C1552 C1550 1.415 . S
C1552 C1557 1.425 . S
C1552 C1559 1.409 . S
C1553 H1545 0.930 . S
C1553 C1551 1.419 . S
C1553 C1554 1.362 . S
C1554 H1546 0.930 . S
C1554 C1553 1.362 . S
C1554 C1557 1.409 . S
C1555 H1547 0.930 . S
C1555 C1556 1.355 . S
C1555 C1557 1.415 . S
C1556 C1555 1.355 . S
C1556 C1558 1.419 . S
C1557 C1552 1.425 . S
C1557 C1554 1.409 . S
C1557 C1555 1.415 . S
C1558 H1548 0.930 . S
C1558 C1556 1.419 . S
C1558 C1559 1.362 . S
C1559 H1549 0.930 . S
C1559 C1552 1.409 . S
C1559 C1558 1.362 . S
H1560 C1566 0.930 . S
H1561 C1569 0.930 . S
H1562 C1570 0.930 . S
H1563 C1571 0.930 . S
H1564 C1574 0.930 . S
H1565 C1575 0.930 1_554 S
C1566 H1560 0.930 . S
C1566 C1567 1.355 . S
C1566 C1568 1.415 . S
C1567 C1566 1.355 . S
C1567 C1569 1.419 . S
C1568 C1566 1.415 . S
C1568 C1573 1.425 . S
C1568 C1575 1.409 . S
C1569 H1561 0.930 . S
C1569 C1567 1.419 . S
C1569 C1570 1.362 . S
C1570 H1562 0.930 . S
C1570 C1569 1.362 . S
C1570 C1573 1.409 . S
C1571 H1563 0.930 . S
C1571 C1572 1.355 . S
C1571 C1573 1.415 . S
C1572 C1571 1.355 . S
C1572 C1574 1.419 . S
C1573 C1568 1.425 . S
C1573 C1570 1.409 . S
C1573 C1571 1.415 . S
C1574 H1564 0.930 . S
C1574 C1572 1.419 . S
C1574 C1575 1.362 . S
C1575 H1565 0.930 1_556 S
C1575 C1568 1.409 . S
C1575 C1574 1.362 . S
H1576 C1582 0.930 . S
H1577 C1585 0.930 . S
H1578 C1586 0.930 . S
H1579 C1587 0.930 . S
H1580 C1590 0.930 . S
H1581 C1591 0.930 . S
C1582 H1576 0.930 . S
C1582 C1583 1.355 . S
C1582 C1584 1.415 . S
C1583 C1582 1.355 . S
C1583 C1585 1.419 . S
C1584 C1582 1.415 . S
C1584 C1589 1.425 . S
C1584 C1591 1.409 . S
C1585 H1577 0.930 . S
C1585 C1583 1.419 . S
C1585 C1586 1.362 . S
C1586 H1578 0.930 . S
C1586 C1585 1.362 . S
C1586 C1589 1.409 . S
C1587 H1579 0.930 . S
C1587 C1588 1.355 . S
C1587 C1589 1.415 . S
C1588 C1587 1.355 . S
C1588 C1590 1.419 . S
C1589 C1584 1.425 . S
C1589 C1586 1.409 . S
C1589 C1587 1.415 . S
C1590 H1580 0.930 . S
C1590 C1588 1.419 . S
C1590 C1591 1.362 . S
C1591 H1581 0.930 . S
C1591 C1584 1.409 . S
C1591 C1590 1.362 . S
H1592 C1598 0.930 . S
H1593 C1601 0.930 . S
H1594 C1602 0.930 . S
H1595 C1603 0.930 . S
H1596 C1606 0.930 1_554 S
H1597 C1607 0.930 1_554 S
C1598 H1592 0.930 . S
C1598 C1599 1.355 . S
C1598 C1600 1.415 . S
C1599 C1598 1.355 . S
C1599 C1601 1.419 . S
C1600 C1598 1.415 . S
C1600 C1605 1.425 . S
C1600 C1607 1.409 . S
C1601 H1593 0.930 . S
C1601 C1599 1.419 . S
C1601 C1602 1.362 . S
C1602 H1594 0.930 . S
C1602 C1601 1.362 . S
C1602 C1605 1.409 . S
C1603 H1595 0.930 . S
C1603 C1604 1.355 . S
C1603 C1605 1.415 . S
C1604 C1603 1.355 . S
C1604 C1606 1.419 . S
C1605 C1600 1.425 . S
C1605 C1602 1.409 . S
C1605 C1603 1.415 . S
C1606 H1596 0.930 1_556 S
C1606 C1604 1.419 . S
C1606 C1607 1.362 . S
C1607 H1597 0.930 1_556 S
C1607 C1600 1.409 . S
C1607 C1606 1.362 . S
H1608 C1614 0.930 . S
H1609 C1617 0.930 . S
H1610 C1618 0.930 . S
H1611 C1619 0.930 . S
H1612 C1622 0.930 . S
H1613 C1623 0.930 . S
C1614 H1608 0.930 . S
C1614 C1615 1.355 . S
C1614 C1616 1.415 . S
C1615 C1614 1.355 . S
C1615 C1617 1.419 . S
C1616 C1614 1.415 . S
C1616 C1621 1.425 . S
C1616 C1623 1.409 . S
C1617 H1609 0.930 . S
C1617 C1615 1.419 . S
C1617 C1618 1.362 . S
C1618 H1610 0.930 . S
C1618 C1617 1.362 . S
C1618 C1621 1.409 . S
C1619 H1611 0.930 . S
C1619 C1620 1.355 . S
C1619 C1621 1.415 . S
C1620 C1619 1.355 . S
C1620 C1622 1.419 . S
C1621 C1616 1.425 . S
C1621 C1618 1.409 . S
C1621 C1619 1.415 . S
C1622 H1612 0.930 . S
C1622 C1620 1.419 . S
C1622 C1623 1.362 . S
C1623 H1613 0.930 . S
C1623 C1616 1.409 . S
C1623 C1622 1.362 . S
H1624 C1630 0.930 . S
H1625 C1633 0.930 . S
H1626 C1634 0.930 . S
H1627 C1635 0.930 . S
H1628 C1638 0.930 . S
H1629 C1639 0.930 . S
C1630 H1624 0.930 . S
C1630 C1631 1.355 . S
C1630 C1632 1.415 . S
C1631 C1630 1.355 . S
C1631 C1633 1.419 . S
C1632 C1630 1.415 . S
C1632 C1637 1.425 . S
C1632 C1639 1.409 . S
C1633 H1625 0.930 . S
C1633 C1631 1.419 . S
C1633 C1634 1.362 . S
C1634 H1626 0.930 . S
C1634 C1633 1.362 . S
C1634 C1637 1.409 . S
C1635 H1627 0.930 . S
C1635 C1636 1.355 . S
C1635 C1637 1.415 . S
C1636 C1635 1.355 . S
C1636 C1638 1.419 . S
C1637 C1632 1.425 . S
C1637 C1634 1.409 . S
C1637 C1635 1.415 . S
C1638 H1628 0.930 . S
C1638 C1636 1.419 . S
C1638 C1639 1.362 . S
C1639 H1629 0.930 . S
C1639 C1632 1.409 . S
C1639 C1638 1.362 . S
H1640 C1646 0.930 . S
H1641 C1649 0.930 . S
H1642 C1650 0.930 . S
H1643 C1651 0.930 . S
H1644 C1654 0.930 . S
H1645 C1655 0.930 . S
C1646 H1640 0.930 . S
C1646 C1647 1.355 . S
C1646 C1648 1.415 . S
C1647 C1646 1.355 . S
C1647 C1649 1.419 . S
C1648 C1646 1.415 . S
C1648 C1653 1.425 . S
C1648 C1655 1.409 . S
C1649 H1641 0.930 . S
C1649 C1647 1.419 . S
C1649 C1650 1.362 . S
C1650 H1642 0.930 . S
C1650 C1649 1.362 . S
C1650 C1653 1.409 . S
C1651 H1643 0.930 . S
C1651 C1652 1.355 . S
C1651 C1653 1.415 . S
C1652 C1651 1.355 . S
C1652 C1654 1.419 . S
C1653 C1648 1.425 . S
C1653 C1650 1.409 . S
C1653 C1651 1.415 . S
C1654 H1644 0.930 . S
C1654 C1652 1.419 . S
C1654 C1655 1.362 . S
C1655 H1645 0.930 . S
C1655 C1648 1.409 . S
C1655 C1654 1.362 . S
C511 C81 1.482 . S
C516 C11 1.488 . S
C527 C53 1.460 . S
C532 C25 1.492 . S
C543 C39 1.499 . S
C548 C67 1.459 . S
C559 C95 1.490 . S
C564 C165 1.461 . S
C575 C109 1.485 . S
C580 C137 1.464 . S
C591 C151 1.462 . S
C596 C123 1.487 . S
C607 C179 1.478 . S
C612 C249 1.470 . S
C623 C193 1.483 . S
C628 C221 1.466 . S
C639 C207 1.483 . S
C644 C235 1.466 . S
C655 C333 1.464 . S
C660 C263 1.485 . S
C671 C277 1.485 . S
C676 C305 1.485 . S
C687 C319 1.484 . S
C692 C291 1.486 . S
C703 C417 1.482 . S
C708 C347 1.466 . S
C719 C389 1.499 . S
C724 C361 1.465 . S
C735 C403 1.462 . S
C740 C375 1.488 . S
C751 C431 1.461 . S
C756 C501 1.500 . S
C767 C445 1.488 . S
C772 C473 1.462 . S
C783 C459 1.489 . S
C788 C487 1.461 . S
C799 C79 1.588 . S
C804 C9 1.578 . S
C815 C23 1.577 . S
C820 C51 1.589 . S
C831 C65 1.577 . S
C836 C37 1.588 . S
C847 C93 1.577 . S
C852 C163 1.588 . S
C863 C107 1.577 . S
C868 C135 1.588 . S
C879 C149 1.588 . S
C884 C121 1.578 . S
C895 C177 1.588 . S
C900 C247 1.577 . S
C911 C219 1.589 . S
C916 C191 1.578 . S
C927 C233 1.585 . S
C932 C205 1.582 . S
C943 C261 1.577 . S
C948 C331 1.587 . S
C959 C275 1.586 . S
C964 C303 1.580 . S
C975 C317 1.578 . S
C980 C289 1.586 . S
C991 C415 1.581 . S
C996 C345 1.586 . S
C1007 C359 1.587 . S
C1012 C387 1.577 . S
C1023 C373 1.584 . S
C1028 C401 1.579 . S
C1039 C499 1.589 . S
C1044 C429 1.577 . S
C1055 C471 1.577 . S
C1060 C443 1.587 . S
C1071 C485 1.577 . S
C1076 C457 1.587 . S
C1087 C229 1.623 . S
C1092 C5 1.623 . S
C1103 C243 1.616 . S
C1108 C19 1.616 . S
C1119 C215 1.622 . S
C1124 C33 1.621 . S
C1135 C47 1.619 . S
C1140 C369 1.619 . S
C1151 C61 1.620 . S
C1156 C341 1.620 . S
C1167 C75 1.614 . S
C1172 C355 1.614 . S
C1183 C89 1.619 . S
C1188 C481 1.619 . S
C1199 C103 1.623 . S
C1204 C495 1.623 . S
C1215 C117 1.623 . S
C1220 C467 1.624 . S
C1231 C131 1.614 . S
C1236 C285 1.614 . S
C1247 C257 1.616 . S
C1252 C145 1.617 . S
C1263 C271 1.623 . S
C1268 C159 1.623 . S
C1279 C397 1.617 . S
C1284 C173 1.617 . S
C1295 C187 1.616 . S
C1300 C411 1.616 . S
C1311 C201 1.621 . S
C1316 C383 1.621 . S
C1327 C299 1.618 . S
C1332 C453 1.618 . S
C1343 C313 1.619 . S
C1348 C425 1.619 . S
C1359 C439 1.622 . S
C1364 C327 1.622 . S
C1375 C0 1.314 . S
C1380 C140 1.359 . S
C1391 C154 1.333 . S
C1396 C14 1.341 . S
C1407 C126 1.326 . S
C1412 C28 1.348 . S
C1423 C42 1.333 . S
C1428 C112 1.340 . S
C1439 C56 1.325 . S
C1444 C84 1.349 . S
C1455 C70 1.319 . S
C1460 C98 1.355 . S
C1471 C168 1.332 . S
C1476 C308 1.341 . S
C1487 C322 1.323 . S
C1492 C182 1.351 . S
C1503 C294 1.344 . S
C1508 C196 1.329 . S
C1519 C210 1.325 . S
C1524 C280 1.348 . S
C1535 C224 1.317 . S
C1540 C252 1.356 . S
C1551 C266 1.328 . S
C1556 C238 1.346 . S
C1567 C336 1.343 . S
C1572 C476 1.331 . S
C1583 C490 1.328 . S
C1588 C350 1.346 . S
C1599 C364 1.337 . S
C1604 C462 1.337 . S
C1615 C378 1.363 . S
C1620 C448 1.311 . S
C1631 C420 1.329 . S
C1636 C392 1.344 . S
C1647 C406 1.355 . S
C1652 C434 1.319 . S
