# Generated by pormake.
# Topology afw, (4)-cn, num edge types: 1
# Building blocks:
#     Node 0, Type 0, BuildingBlock: TATPOV_clean_sbu_0, # of connection points: 4
#     Node 1, Type 0, BuildingBlock: TATPOV_clean_sbu_0, # of connection points: 4
#     Node 2, Type 0, BuildingBlock: TATPOV_clean_sbu_0, # of connection points: 4
#     Node 3, Type 0, BuildingBlock: TATPOV_clean_sbu_0, # of connection points: 4
#     Node 4, Type 0, BuildingBlock: TATPOV_clean_sbu_0, # of connection points: 4
#     Node 5, Type 0, BuildingBlock: TATPOV_clean_sbu_0, # of connection points: 4
#     Node 6, Type 0, BuildingBlock: TATPOV_clean_sbu_0, # of connection points: 4
#     Node 7, Type 0, BuildingBlock: TATPOV_clean_sbu_0, # of connection points: 4
#     Node 8, Type 0, BuildingBlock: TATPOV_clean_sbu_0, # of connection points: 4
#     Edge 9, Type (0, 0), BuildingBlock: XIVTED_clean_linker_0, # of connection points: 2
#     Edge 10, Type (0, 0), BuildingBlock: XIVTED_clean_linker_0, # of connection points: 2
#     Edge 11, Type (0, 0), BuildingBlock: XIVTED_clean_linker_0, # of connection points: 2
#     Edge 12, Type (0, 0), BuildingBlock: XIVTED_clean_linker_0, # of connection points: 2
#     Edge 13, Type (0, 0), BuildingBlock: XIVTED_clean_linker_0, # of connection points: 2
#     Edge 14, Type (0, 0), BuildingBlock: XIVTED_clean_linker_0, # of connection points: 2
#     Edge 15, Type (0, 0), BuildingBlock: XIVTED_clean_linker_0, # of connection points: 2
#     Edge 16, Type (0, 0), BuildingBlock: XIVTED_clean_linker_0, # of connection points: 2
#     Edge 17, Type (0, 0), BuildingBlock: XIVTED_clean_linker_0, # of connection points: 2
#     Edge 18, Type (0, 0), BuildingBlock: XIVTED_clean_linker_0, # of connection points: 2
#     Edge 19, Type (0, 0), BuildingBlock: XIVTED_clean_linker_0, # of connection points: 2
#     Edge 20, Type (0, 0), BuildingBlock: XIVTED_clean_linker_0, # of connection points: 2
#     Edge 21, Type (0, 0), BuildingBlock: XIVTED_clean_linker_0, # of connection points: 2
#     Edge 22, Type (0, 0), BuildingBlock: XIVTED_clean_linker_0, # of connection points: 2
#     Edge 23, Type (0, 0), BuildingBlock: XIVTED_clean_linker_0, # of connection points: 2
#     Edge 24, Type (0, 0), BuildingBlock: XIVTED_clean_linker_0, # of connection points: 2
#     Edge 25, Type (0, 0), BuildingBlock: XIVTED_clean_linker_0, # of connection points: 2
#     Edge 26, Type (0, 0), BuildingBlock: XIVTED_clean_linker_0, # of connection points: 2
# Relax obj value: 0.192
# Max RMSD: 0.221
# Mean RMSD: 0.215
data_MOF--net-afw--node1-TATPOV_clean_sbu_0--edge1-XIVTED_clean_linker_0
_symmetry_space_group_name_H-M    P1
_symmetry_Int_Tables_number       1
_symmetry_cell_setting            triclinic
loop_
_symmetry_equiv_pos_as_xyz
'x, y, z'
_cell_length_a     41.443248
_cell_length_b     40.846287
_cell_length_c     36.753224
_cell_angle_alpha  90.402002
_cell_angle_beta   90.540858
_cell_angle_gamma 120.30635
loop_
_atom_site_label
_atom_site_type_symbol
_atom_site_fract_x
_atom_site_fract_y
_atom_site_fract_z
_atom_type_partial_charge
Zn0 Zn 0.03198 0.21049 0.05664 0.0
Zn1 Zn 0.03403 0.23677 -0.00925 0.0
O2 O 0.08181 0.23206 -0.00703 0.0
O3 O 0.08098 0.21363 0.04933 0.0
O4 O 0.03752 0.2615 0.94196 0.0
O5 O 0.03144 0.25314 0.08183 0.0
O6 O 0.02994 0.27407 0.02718 0.0
C7 C 0.09656 0.22303 0.01874 0.0
C8 C 0.97026 0.15795 0.01053 0.0
O9 O -0.01354 0.18384 -0.01309 0.0
O10 O -0.01623 0.16286 0.04251 0.0
C11 C 0.06358 0.29568 0.9381 0.0
O12 O 0.08705 0.31286 0.96538 0.0
C13 C 0.02992 0.27732 0.06178 0.0
Zn14 Zn 0.82748 0.83163 0.90457 0.0
Zn15 Zn 0.7902 0.80684 0.96773 0.0
O16 O 0.83688 0.80269 0.97737 0.0
O17 O 0.86673 0.82179 0.92555 0.0
O18 O 0.7574 0.78364 0.0118 0.0
O19 O 0.78574 0.79082 0.87515 0.0
O20 O 0.75571 0.77134 0.92673 0.0
C21 C 0.86463 0.80958 0.95753 0.0
C22 C 0.81921 0.88878 0.94319 0.0
O23 O 0.80316 0.8628 0.96675 0.0
O24 O 0.83079 0.88203 0.91388 0.0
C25 C 0.76888 0.78458 0.04423 0.0
O26 O 0.80498 0.80331 0.05135 0.0
C27 C 0.75711 0.76758 0.89241 0.0
Zn28 Zn 0.16019 -0.00807 0.10062 0.0
Zn29 Zn 0.1946 0.98672 0.04139 0.0
O30 O 0.14173 0.94043 0.03539 0.0
O31 O 0.1132 0.94533 0.08363 0.0
O32 O 0.22285 0.98298 -0.0013 0.0
O33 O 0.19472 0.98566 0.13395 0.0
O34 O 0.22507 0.98474 0.08547 0.0
C35 C 0.11256 0.92796 0.05472 0.0
C36 C 0.18742 0.05685 0.05388 0.0
O37 O 0.19644 0.03751 0.03348 0.0
O38 O 0.17271 0.04422 0.08447 0.0
C39 C 0.2165 -0.01213 0.96584 0.0
O40 O 0.18979 -0.00468 0.95851 0.0
C41 C 0.22141 0.98363 0.11996 0.0
Zn42 Zn 0.6141 0.51824 0.23579 0.0
Zn43 Zn 0.62393 0.55246 0.29696 0.0
O44 O 0.57992 0.4969 0.30365 0.0
O45 O 0.56962 0.46896 0.25012 0.0
O46 O 0.61992 0.57816 0.34239 0.0
O47 O 0.60893 0.55522 0.20481 0.0
O48 O 0.6279 0.58927 0.25524 0.0
C49 C 0.56178 0.46744 0.28344 0.0
C50 C 0.68559 0.54114 0.27462 0.0
O51 O 0.67285 0.55216 0.30038 0.0
O52 O 0.6666 0.52729 0.24549 0.0
C53 C 0.62227 0.56653 0.37375 0.0
O54 O 0.62989 0.53905 0.37634 0.0
C55 C 0.62067 0.58664 0.2211 0.0
Zn56 Zn 0.49601 0.15805 0.29228 0.0
Zn57 Zn 0.46873 0.13109 0.35605 0.0
O58 O 0.52228 0.13859 0.35946 0.0
O59 O 0.54399 0.16145 0.30525 0.0
O60 O 0.44381 0.10104 0.40138 0.0
O61 O 0.45967 0.11344 0.26365 0.0
O62 O 0.43296 0.09245 0.31646 0.0
C63 C 0.54825 0.15065 0.33611 0.0
C64 C 0.47548 0.20575 0.33232 0.0
O65 O 0.46833 0.1822 0.35802 0.0
O66 O 0.48644 0.20075 0.30186 0.0
C67 C 0.45253 0.11049 0.43463 0.0
O68 O 0.47995 0.14476 0.44292 0.0
C69 C 0.43333 0.08836 0.28201 0.0
Zn70 Zn 0.82603 0.36037 0.21946 0.0
Zn71 Zn 0.86857 0.37684 0.27979 0.0
O72 O 0.85782 0.4207 0.28089 0.0
O73 O 0.82318 0.40724 0.23102 0.0
O74 O 0.8991 0.38355 0.3247 0.0
O75 O 0.86752 0.36536 0.18828 0.0
O76 O 0.90194 0.37709 0.23797 0.0
C77 C 0.83886 0.42834 0.25865 0.0
C78 C 0.79351 0.30236 0.27289 0.0
O79 O 0.82242 0.32606 0.29083 0.0
O80 O 0.7885 0.30937 0.24048 0.0
C81 C 0.88531 0.38079 0.35607 0.0
O82 O 0.85191 0.37674 0.35893 0.0
C83 C 0.89798 0.37262 0.20348 0.0
Zn84 Zn 0.33958 0.84616 0.75895 0.0
Zn85 Zn 0.34042 0.88141 0.70024 0.0
O86 O 0.38679 0.87423 0.69677 0.0
O87 O 0.38815 0.84927 0.74918 0.0
O88 O 0.34891 0.91701 0.65831 0.0
O89 O 0.338 0.88257 0.79347 0.0
O90 O 0.33363 0.91054 0.74428 0.0
C91 C 0.40214 0.86162 0.7184 0.0
C92 C 0.27747 0.80079 0.70873 0.0
O93 O 0.2928 0.83013 0.68876 0.0
O94 O 0.29165 0.80124 0.73959 0.0
C95 C 0.34772 0.90827 0.62484 0.0
O96 O 0.3385 0.87339 0.61582 0.0
C97 C 0.33395 0.9082 0.77893 0.0
Zn98 Zn 0.13294 0.48392 0.56703 0.0
Zn99 Zn 0.10157 0.45276 0.63032 0.0
O100 O 0.14677 0.44492 0.62395 0.0
O101 O 0.17333 0.47134 0.57242 0.0
O102 O 0.08237 0.42696 0.6789 0.0
O103 O 0.08591 0.44706 0.54148 0.0
O104 O 0.05726 0.42449 0.59346 0.0
C105 C 0.1724 0.4535 0.60072 0.0
C106 C 0.13229 0.53768 0.61803 0.0
O107 O 0.11735 0.50909 0.63897 0.0
O108 O 0.14066 0.53395 0.5858 0.0
C109 C 0.10521 0.4399 0.70577 0.0
O110 O 0.13814 0.47022 0.70107 0.0
C111 C 0.05677 0.42503 0.55876 0.0
Zn112 Zn 0.46644 0.61476 0.73183 0.0
Zn113 Zn 0.49977 0.62246 0.66855 0.0
O114 O 0.44835 0.57357 0.66246 0.0
O115 O 0.4205 0.56772 0.71466 0.0
O116 O 0.52635 0.62222 0.62288 0.0
O117 O 0.50508 0.6101 0.75995 0.0
O118 O 0.53589 0.62401 0.70863 0.0
C119 C 0.42013 0.55556 0.68284 0.0
C120 C 0.48648 0.68513 0.69346 0.0
O121 O 0.49662 0.67127 0.66783 0.0
O122 O 0.47399 0.66711 0.72278 0.0
C123 C 0.52168 0.63246 0.59164 0.0
O124 O 0.49864 0.6455 0.58777 0.0
C125 C 0.53421 0.61768 0.74269 0.0
H126 H 0.18093 0.07704 0.98428 0.0
H127 H 0.15573 0.24359 0.06407 0.0
H128 H 0.20183 0.1181 0.09534 0.0
H129 H 0.10841 0.18773 0.96123 0.0
H130 H 0.19426 0.21408 0.06568 0.0
H131 H 0.17416 0.1314 0.96708 0.0
C132 C 0.18511 0.09805 0.0048 0.0
C133 C 0.19124 0.09285 0.04139 0.0
C134 C 0.17624 0.209 0.04221 0.0
C135 C 0.18385 0.1548 0.02199 0.0
C136 C 0.15451 0.22613 0.04116 0.0
C137 C 0.1286 0.21759 0.01274 0.0
C138 C 0.17127 0.18238 0.01511 0.0
C139 C 0.12805 0.19487 0.98368 0.0
C140 C 0.18114 0.12893 -0.00499 0.0
C141 C 0.19641 0.12075 0.06695 0.0
N142 N 0.14832 0.1771 -0.01394 0.0
N143 N 0.19223 0.15027 0.05684 0.0
H144 H 0.84282 0.94765 0.89594 0.0
H145 H 0.92359 0.1012 0.0558 0.0
H146 H 0.81873 0.92032 0.00932 0.0
H147 H 0.94303 0.12912 0.94204 0.0
H148 H 0.87697 0.03628 0.03874 0.0
H149 H 0.87071 0.01475 0.9115 0.0
C150 C 0.84283 0.95571 0.92408 0.0
C151 C 0.82894 0.9283 0.95146 0.0
C152 C 0.89101 0.05667 0.01746 0.0
C153 C 0.86139 0.00535 0.96954 0.0
C154 C 0.91771 0.09382 0.02718 0.0
C155 C 0.93774 0.12056 0.00029 0.0
C156 C 0.88446 0.04592 0.98056 0.0
C157 C 0.92852 0.10941 0.96369 0.0
C158 C 0.85883 -0.00589 0.93295 0.0
C159 C 0.82933 0.94045 -0.01264 0.0
N160 N 0.90297 0.07279 0.9549 0.0
N161 N 0.84591 0.97812 -0.00456 0.0
H162 H 0.87894 0.80136 0.02891 0.0
H163 H 0.09433 0.89352 -0.01274 0.0
H164 H 0.9244 0.81536 0.92117 0.0
H165 H 0.04909 0.88773 0.09391 0.0
H166 H 0.03143 0.84822 0.96461 0.0
H167 H 0.93923 0.8153 0.05454 0.0
C168 C 0.90131 0.80649 0.01061 0.0
C169 C 0.89703 0.80838 0.97292 0.0
C170 C 0.0354 0.85633 -0.00686 0.0
C171 C 0.96609 0.8248 0.002 0.0
C172 C 0.07132 0.88216 0.00607 0.0
C173 C 0.07673 0.89522 0.04224 0.0
C174 C 0.00485 0.84371 0.01657 0.0
C175 C 0.046 0.87919 0.06555 0.0
C176 C 0.93578 0.81457 0.02525 0.0
C177 C 0.9268 0.81464 0.95047 0.0
N178 N 0.01129 0.85479 0.05216 0.0
N179 N 0.96031 0.82339 0.96538 0.0
H180 H 0.83633 0.45912 0.32463 0.0
H181 H 0.71711 0.53148 0.33669 0.0
H182 H 0.82512 0.46867 0.20902 0.0
H183 H 0.73421 0.55053 0.2215 0.0
H184 H 0.76728 0.51666 0.33909 0.0
H185 H 0.81104 0.50101 0.33531 0.0
C186 C 0.8292 0.47068 0.30152 0.0
C187 C 0.83189 0.45976 0.26592 0.0
C188 C 0.76103 0.52511 0.31342 0.0
C189 C 0.8021 0.50685 0.27769 0.0
C190 C 0.73229 0.53366 0.31214 0.0
C191 C 0.7211 0.54139 0.27871 0.0
C192 C 0.77861 0.52459 0.28095 0.0
C193 C 0.7415 0.54387 0.24769 0.0
C194 C 0.81429 0.4943 0.30759 0.0
C195 C 0.82264 0.47569 0.23693 0.0
N196 N 0.76884 0.53499 0.24949 0.0
N197 N 0.80779 0.498 0.24348 0.0
H198 H 0.43796 0.22798 0.28832 0.0
H199 H 0.56155 0.44362 0.35323 0.0
H200 H 0.50847 0.26237 0.38429 0.0
H201 H 0.50466 0.40545 0.24936 0.0
H202 H 0.52932 0.3776 0.37375 0.0
H203 H 0.44793 0.29195 0.28362 0.0
C204 C 0.45468 0.24887 0.30908 0.0
C205 C 0.47246 0.24003 0.33669 0.0
C206 C 0.52329 0.38383 0.34678 0.0
C207 C 0.48537 0.31392 0.33069 0.0
C208 C 0.54145 0.42152 0.33513 0.0
C209 C 0.53609 0.42997 0.29935 0.0
C210 C 0.49939 0.35456 0.32256 0.0
C211 C 0.50997 0.4002 0.277 0.0
C212 C 0.46065 0.28551 0.30624 0.0
C213 C 0.49407 0.26811 0.36276 0.0
N214 N 0.49295 0.3639 0.28882 0.0
N215 N 0.5006 0.30414 0.35871 0.0
H216 H 0.57913 0.11584 0.30028 0.0
H217 H 0.77857 0.29281 0.3456 0.0
H218 H 0.60038 0.19596 0.38702 0.0
H219 H 0.74075 0.23556 0.24153 0.0
H220 H 0.72175 0.24217 0.3733 0.0
H221 H 0.64637 0.14242 0.29379 0.0
C222 C 0.59807 0.13789 0.31914 0.0
C223 C 0.58454 0.15409 0.34397 0.0
C224 C 0.72647 0.24028 0.34462 0.0
C225 C 0.66113 0.18563 0.33568 0.0
C226 C 0.75881 0.26907 0.32878 0.0
C227 C 0.76383 0.26867 0.29106 0.0
C228 C 0.69946 0.21077 0.32261 0.0
C229 C 0.73752 0.23729 0.27056 0.0
C230 C 0.63638 0.15331 0.31518 0.0
C231 C 0.60997 0.18281 0.36757 0.0
N232 N 0.70625 0.20979 0.28653 0.0
N233 N 0.64731 0.19851 0.36218 0.0
H234 H 0.46078 0.86867 0.75822 0.0
H235 H 0.4736 0.71627 0.63265 0.0
H236 H 0.4091 0.83568 0.65175 0.0
H237 H 0.50364 0.73774 0.74654 0.0
H238 H 0.46657 0.77271 0.63172 0.0
H239 H 0.49528 0.83615 0.74564 0.0
C240 C 0.45766 0.85556 0.73169 0.0
C241 C 0.43178 0.85439 0.70616 0.0
C242 C 0.47547 0.76543 0.65666 0.0
C243 C 0.46985 0.81562 0.6921 0.0
C244 C 0.47956 0.73337 0.65716 0.0
C245 C 0.48855 0.72211 0.68989 0.0
C246 C 0.48099 0.7864 0.68899 0.0
C247 C 0.49598 0.7451 0.72091 0.0
C248 C 0.47708 0.83668 0.72459 0.0
C249 C 0.42879 0.83711 0.67217 0.0
N250 N 0.49175 0.77588 0.71975 0.0
N251 N 0.44685 0.81744 0.66642 0.0
H252 H 0.25106 0.78037 0.63838 0.0
H253 H 0.13168 0.56081 0.68838 0.0
H254 H 0.23179 0.73809 0.74805 0.0
H255 H 0.15761 0.60242 0.57865 0.0
H256 H 0.15807 0.62616 0.71054 0.0
H257 H 0.20657 0.71627 0.61598 0.0
C258 C 0.23694 0.75782 0.6578 0.0
C259 C 0.24564 0.76449 0.69508 0.0
C260 C 0.15755 0.62092 0.68156 0.0
C261 C 0.19508 0.69107 0.66968 0.0
C262 C 0.14239 0.58358 0.6689 0.0
C263 C 0.14295 0.57612 0.63166 0.0
C264 C 0.17341 0.651 0.65682 0.0
C265 C 0.15707 0.60682 0.60766 0.0
C266 C 0.21169 0.72116 0.645 0.0
C267 C 0.22642 0.73415 0.719 0.0
N268 N 0.17209 0.64287 0.62068 0.0
N269 N 0.20245 0.69874 0.70588 0.0
H270 H 0.18827 0.42981 0.6646 0.0
H271 H 0.4007 0.53254 0.61167 0.0
H272 H 0.22945 0.46501 0.556 0.0
H273 H 0.35957 0.50477 0.72118 0.0
H274 H 0.33753 0.48938 0.58835 0.0
H275 H 0.24873 0.43774 0.68238 0.0
C276 C 0.20969 0.4383 0.64424 0.0
C277 C 0.20427 0.44802 0.6091 0.0
C278 C 0.34249 0.49209 0.61749 0.0
C279 C 0.2736 0.45768 0.62938 0.0
C280 C 0.3786 0.51668 0.63081 0.0
C281 C 0.38509 0.52315 0.66839 0.0
C282 C 0.31286 0.47415 0.64199 0.0
C283 C 0.35554 0.50145 0.69195 0.0
C284 C 0.24428 0.44292 0.65443 0.0
C285 C 0.23281 0.45827 0.58371 0.0
N286 N 0.32056 0.47851 0.67836 0.0
N287 N 0.26655 0.46367 0.59456 0.0
H288 H 0.01909 0.27056 0.87617 0.0
H289 H 0.14635 0.46337 0.76887 0.0
H290 H 0.11725 0.36804 0.92168 0.0
H291 H 0.04493 0.37024 0.72293 0.0
H292 H 0.13492 0.42857 0.8253 0.0
H293 H 0.0271 0.30595 0.82004 0.0
C294 C 0.0423 0.29935 0.87441 0.0
C295 C 0.06758 0.31628 0.90374 0.0
C296 C 0.115 0.4157 0.803 0.0
C297 C 0.07686 0.35693 0.83961 0.0
C298 C 0.1215 0.43564 0.77068 0.0
C299 C 0.09662 0.41973 0.74097 0.0
C300 C 0.08342 0.37932 0.80585 0.0
C301 C 0.06486 0.38365 0.74512 0.0
C302 C 0.04681 0.31956 0.84237 0.0
C303 C 0.09707 0.35372 0.89987 0.0
N304 N 0.05927 0.36457 0.77688 0.0
N305 N 0.10089 0.37265 0.86849 0.0
H306 H 0.68866 0.71557 0.91884 0.0
H307 H 0.53808 0.59453 0.81129 0.0
H308 H 0.75311 0.74841 0.82046 0.0
H309 H 0.6071 0.65893 0.72182 0.0
H310 H 0.59338 0.62065 0.85045 0.0
H311 H 0.63502 0.66802 0.88425 0.0
C312 C 0.69166 0.71233 0.89 0.0
C313 C 0.72524 0.73638 0.87245 0.0
C314 C 0.59665 0.62936 0.82239 0.0
C315 C 0.66402 0.68104 0.8324 0.0
C316 C 0.56504 0.61393 0.79982 0.0
C317 C 0.56792 0.62542 0.76354 0.0
C318 C 0.63122 0.65713 0.80866 0.0
C319 C 0.60354 0.64977 0.7498 0.0
C320 C 0.66099 0.68472 0.87015 0.0
C321 C 0.72759 0.73083 0.83506 0.0
N322 N 0.63373 0.66542 0.7726 0.0
N323 N 0.69727 0.70405 0.81625 0.0
H324 H 0.35907 0.93075 0.84807 0.0
H325 H 0.20631 -0.01099 0.89186 0.0
H326 H 0.28951 0.93902 0.76493 0.0
H327 H 0.27707 0.97851 0.97225 0.0
H328 H 0.24119 0.97898 0.8438 0.0
H329 H 0.33549 0.95797 0.89216 0.0
C330 C 0.33925 0.93897 0.83898 0.0
C331 C 0.32595 0.93231 0.80291 0.0
C332 C 0.24924 0.97922 0.87196 0.0
C333 C 0.29794 0.96268 0.85358 0.0
C334 C 0.22931 0.98487 0.89943 0.0
C335 C 0.23848 0.98416 0.9362 0.0
C336 C 0.27856 0.97288 0.88137 0.0
C337 C 0.26868 0.97888 0.94435 0.0
C338 C 0.32563 0.95438 0.86422 0.0
C339 C 0.30048 0.94374 0.79251 0.0
N340 N 0.28741 0.97324 0.91722 0.0
N341 N 0.28675 0.9578 0.81793 0.0
H342 H 0.36177 0.04227 0.30582 0.0
H343 H 0.28881 -0.00917 0.10177 0.0
H344 H 0.43251 0.06305 0.21315 0.0
H345 H 0.21843 0.97506 0.19366 0.0
H346 H 0.33924 0.00132 0.14386 0.0
H347 H 0.3072 0.00149 0.26737 0.0
C348 C 0.36589 0.03752 0.27763 0.0
C349 C 0.40151 0.05687 0.26235 0.0
C350 C 0.31254 -0.00506 0.15479 0.0
C351 C 0.33947 0.01083 0.21823 0.0
C352 C 0.28374 -0.01105 0.13074 0.0
C353 C 0.24975 0.98316 0.14424 0.0
C354 C 0.30729 -0.00464 0.19251 0.0
C355 C 0.24454 0.98042 0.18205 0.0
C356 C 0.33475 0.01438 0.25564 0.0
C357 C 0.40536 0.04944 0.22578 0.0
N358 N 0.27322 0.98721 0.20487 0.0
N359 N 0.37466 0.02757 0.2048 0.0
H360 H 0.04953 0.30555 0.13077 0.0
H361 H 0.90287 0.37513 0.12939 0.0
H362 H -0.00372 0.31473 0.03306 0.0
H363 H 0.96032 0.37066 0.22615 0.0
H364 H 0.94571 0.36523 0.0923 0.0
H365 H 0.02712 0.3418 0.16403 0.0
C366 C 0.03366 0.31585 0.11615 0.0
C367 C 0.02407 0.3065 0.07928 0.0
C368 C 0.94936 0.36697 0.12161 0.0
C369 C -0.00229 0.34745 0.11738 0.0
C370 C 0.92482 0.37254 0.14286 0.0
C371 C 0.92752 0.37291 0.18101 0.0
C372 C 0.97658 0.3613 0.13858 0.0
C373 C 0.95691 0.37008 0.19687 0.0
C374 C 0.02083 0.33654 0.13519 0.0
C375 C 0.00399 0.32105 0.06156 0.0
N376 N -0.02009 0.36375 0.17559 0.0
N377 N -0.00923 0.34016 0.08098 0.0
H378 H 0.59597 0.5907 0.15314 0.0
H379 H 0.6924 0.74235 0.03879 0.0
H380 H 0.67456 0.66009 0.23739 0.0
H381 H 0.78376 0.77403 0.11484 0.0
H382 H 0.6492 0.69935 0.08376 0.0
H383 H 0.62684 0.64284 0.11101 0.0
C384 C 0.61906 0.61742 0.16309 0.0
C385 C 0.6327 0.62095 0.19886 0.0
C386 C 0.67869 0.71538 0.09061 0.0
C387 C 0.66864 0.6813 0.15048 0.0
C388 C 0.70342 0.7403 0.06498 0.0
C389 C 0.74196 0.76137 0.07271 0.0
C390 C 0.69257 0.71112 0.12422 0.0
C391 C 0.75439 0.758 0.10743 0.0
C392 C 0.63672 0.64743 0.13895 0.0
C393 C 0.66294 0.65616 0.21013 0.0
N394 N 0.72984 0.7331 0.13174 0.0
N395 N 0.68038 0.68469 0.1858 0.0
H396 H -0.01184 0.41816 0.5687 0.0
H397 H 0.94461 0.36946 0.35841 0.0
H398 H 0.04851 0.38328 0.49872 0.0
H399 H 0.87182 0.38808 0.42789 0.0
H400 H -0.02139 0.36779 0.41187 0.0
H401 H 0.93958 0.39863 0.52104 0.0
C402 C -0.00964 0.40499 0.54387 0.0
C403 C 0.0223 0.40249 0.53728 0.0
C404 C 0.95508 0.37202 0.41563 0.0
C405 C 0.96795 0.38125 0.48269 0.0
C406 C 0.93582 0.3733 0.38499 0.0
C407 C 0.90568 0.37947 0.38867 0.0
C408 C 0.94461 0.37756 0.45036 0.0
C409 C 0.89515 0.38358 0.42387 0.0
C410 C 0.96294 0.39428 0.51654 0.0
C411 C 0.02433 0.38588 0.50459 0.0
N412 N 0.91491 0.38303 0.45342 0.0
N413 N -0.00215 0.37642 0.47832 0.0
H414 H 0.62765 0.55054 0.44503 0.0
H415 H 0.51964 0.65238 0.52077 0.0
H416 H 0.59454 0.6149 0.37742 0.0
H417 H 0.56618 0.60076 0.58952 0.0
H418 H 0.54793 0.64027 0.46805 0.0
H419 H 0.60665 0.57013 0.49843 0.0
C420 C 0.61622 0.56903 0.44141 0.0
C421 C 0.6127 0.58092 0.40662 0.0
C422 C 0.55214 0.63182 0.49472 0.0
C423 C 0.58824 0.60324 0.46774 0.0
C424 C 0.53595 0.63869 0.52484 0.0
C425 C 0.54035 0.62741 0.55965 0.0
C426 C 0.57269 0.6133 0.49936 0.0
C427 C 0.56191 0.60987 0.56323 0.0
C428 C 0.60421 0.58021 0.47196 0.0
C429 C 0.59775 0.60497 0.40368 0.0
N430 N 0.57703 0.60316 0.53348 0.0
N431 N 0.5858 0.61508 0.43379 0.0
H432 H 0.34306 0.89878 0.55063 0.0
H433 H 0.45985 0.12072 0.50896 0.0
H434 H 0.37943 0.98527 0.63446 0.0
H435 H 0.40297 0.0344 0.42591 0.0
H436 H 0.43168 0.07182 0.55545 0.0
H437 H 0.36585 0.94817 0.50461 0.0
C438 C 0.35566 0.92813 0.5594 0.0
C439 C 0.35937 0.93781 0.59654 0.0
C440 C 0.4252 0.06364 0.52705 0.0
C441 C 0.38587 -0.00531 0.54385 0.0
C442 C 0.44131 0.09157 0.50047 0.0
C443 C 0.43391 0.08174 0.4634 0.0
C444 C 0.40179 0.0255 0.51652 0.0
C445 C 0.40956 0.04341 0.4541 0.0
C446 C 0.36864 0.95636 0.53306 0.0
C447 C 0.37593 0.97641 0.60617 0.0
N448 N 0.39464 0.01675 0.48041 0.0
N449 N 0.38879 0.0034 0.58004 0.0
loop_
_geom_bond_atom_site_label_1
_geom_bond_atom_site_label_2
_geom_bond_distance
_geom_bond_site_symmetry_2
_ccdc_geom_bond_type
Zn0 O3 2.031 . S
Zn0 O5 2.049 1_455 S
Zn0 O10 2.067 1_455 S
Zn1 O2 1.962 . S
Zn1 O4 1.986 1_554 S
Zn1 O6 1.996 . S
Zn1 O9 1.943 1_454 S
O2 Zn1 1.962 . S
O2 C7 1.254 . S
O3 Zn0 2.031 . S
O3 C7 1.269 . S
O4 Zn1 1.986 1_556 S
O4 C11 1.262 . S
O5 Zn0 2.049 1_655 S
O5 C13 1.260 . S
O6 Zn1 1.996 . S
O6 C13 1.257 1_455 S
C7 O2 1.254 . S
C7 O3 1.269 . S
C8 O9 1.249 1_554 S
C8 O10 1.270 . S
O9 Zn1 1.943 1_656 S
O9 C8 1.249 1_556 S
O10 Zn0 2.067 1_655 S
O10 C8 1.270 . S
C11 O4 1.262 . S
C11 O12 1.232 . S
O12 C11 1.232 . S
C13 O5 1.260 . S
C13 O6 1.257 1_655 S
Zn14 O17 2.031 . S
Zn14 O19 2.049 . S
Zn14 O24 2.067 . S
Zn15 O16 1.962 . S
Zn15 O18 1.986 . S
Zn15 O20 1.996 1_554 S
Zn15 O23 1.943 . S
O16 Zn15 1.962 . S
O16 C21 1.254 1_554 S
O17 Zn14 2.031 . S
O17 C21 1.269 . S
O18 Zn15 1.986 . S
O18 C25 1.262 . S
O19 Zn14 2.049 . S
O19 C27 1.260 . S
O20 Zn15 1.996 1_556 S
O20 C27 1.257 . S
C21 O16 1.254 1_556 S
C21 O17 1.269 . S
C22 O23 1.249 . S
C22 O24 1.270 1_554 S
O23 Zn15 1.943 . S
O23 C22 1.249 . S
O24 Zn14 2.067 . S
O24 C22 1.270 1_556 S
C25 O18 1.262 . S
C25 O26 1.232 . S
O26 C25 1.232 . S
C27 O19 1.260 . S
C27 O20 1.257 . S
Zn28 O31 2.031 1_545 S
Zn28 O33 2.049 . S
Zn28 O38 2.067 . S
Zn29 O30 1.958 1_546 S
Zn29 O32 1.996 . S
Zn29 O34 1.977 1_556 S
Zn29 O37 1.947 . S
O30 Zn29 1.958 1_564 S
O30 C35 1.254 . S
O31 Zn28 2.031 1_565 S
O31 C35 1.269 . S
O32 Zn29 1.996 . S
O32 C39 1.262 1_545 S
O33 Zn28 2.049 . S
O33 C41 1.260 . S
O34 Zn29 1.977 1_554 S
O34 C41 1.257 . S
C35 O30 1.254 . S
C35 O31 1.269 . S
C36 O37 1.249 1_554 S
C36 O38 1.270 . S
O37 Zn29 1.947 . S
O37 C36 1.249 1_556 S
O38 Zn28 2.067 . S
O38 C36 1.270 . S
C39 O32 1.262 1_565 S
C39 O40 1.232 . S
O40 C39 1.232 . S
C41 O33 1.260 . S
C41 O34 1.257 . S
Zn42 O45 2.031 . S
Zn42 O47 2.049 . S
Zn42 O52 2.067 . S
Zn43 O44 1.962 . S
Zn43 O46 1.986 . S
Zn43 O48 1.996 . S
Zn43 O51 1.943 . S
O44 Zn43 1.962 . S
O44 C49 1.254 . S
O45 Zn42 2.031 . S
O45 C49 1.269 . S
O46 Zn43 1.986 . S
O46 C53 1.262 . S
O47 Zn42 2.049 . S
O47 C55 1.260 . S
O48 Zn43 1.996 . S
O48 C55 1.257 . S
C49 O44 1.254 . S
C49 O45 1.269 . S
C50 O51 1.249 . S
C50 O52 1.270 . S
O51 Zn43 1.943 . S
O51 C50 1.249 . S
O52 Zn42 2.067 . S
O52 C50 1.270 . S
C53 O46 1.262 . S
C53 O54 1.232 . S
O54 C53 1.232 . S
C55 O47 1.260 . S
C55 O48 1.257 . S
Zn56 O59 2.031 . S
Zn56 O61 2.049 . S
Zn56 O66 2.067 . S
Zn57 O58 1.962 . S
Zn57 O60 1.986 . S
Zn57 O62 1.996 . S
Zn57 O65 1.943 . S
O58 Zn57 1.962 . S
O58 C63 1.254 . S
O59 Zn56 2.031 . S
O59 C63 1.269 . S
O60 Zn57 1.986 . S
O60 C67 1.262 . S
O61 Zn56 2.049 . S
O61 C69 1.260 . S
O62 Zn57 1.996 . S
O62 C69 1.257 . S
C63 O58 1.254 . S
C63 O59 1.269 . S
C64 O65 1.249 . S
C64 O66 1.270 . S
O65 Zn57 1.943 . S
O65 C64 1.249 . S
O66 Zn56 2.067 . S
O66 C64 1.270 . S
C67 O60 1.262 . S
C67 O68 1.232 . S
O68 C67 1.232 . S
C69 O61 1.260 . S
C69 O62 1.257 . S
Zn70 O73 2.031 . S
Zn70 O75 2.049 . S
Zn70 O80 2.067 . S
Zn71 O72 1.962 . S
Zn71 O74 1.986 . S
Zn71 O76 1.996 . S
Zn71 O79 1.943 . S
O72 Zn71 1.962 . S
O72 C77 1.254 . S
O73 Zn70 2.031 . S
O73 C77 1.269 . S
O74 Zn71 1.986 . S
O74 C81 1.262 . S
O75 Zn70 2.049 . S
O75 C83 1.260 . S
O76 Zn71 1.996 . S
O76 C83 1.257 . S
C77 O72 1.254 . S
C77 O73 1.269 . S
C78 O79 1.249 . S
C78 O80 1.270 . S
O79 Zn71 1.943 . S
O79 C78 1.249 . S
O80 Zn70 2.067 . S
O80 C78 1.270 . S
C81 O74 1.262 . S
C81 O82 1.232 . S
O82 C81 1.232 . S
C83 O75 1.260 . S
C83 O76 1.257 . S
Zn84 O87 2.031 . S
Zn84 O89 2.049 . S
Zn84 O94 2.067 . S
Zn85 O86 1.962 . S
Zn85 O88 1.986 . S
Zn85 O90 1.996 . S
Zn85 O93 1.943 . S
O86 Zn85 1.962 . S
O86 C91 1.254 . S
O87 Zn84 2.031 . S
O87 C91 1.269 . S
O88 Zn85 1.986 . S
O88 C95 1.262 . S
O89 Zn84 2.049 . S
O89 C97 1.260 . S
O90 Zn85 1.996 . S
O90 C97 1.257 . S
C91 O86 1.254 . S
C91 O87 1.269 . S
C92 O93 1.249 . S
C92 O94 1.270 . S
O93 Zn85 1.943 . S
O93 C92 1.249 . S
O94 Zn84 2.067 . S
O94 C92 1.270 . S
C95 O88 1.262 . S
C95 O96 1.232 . S
O96 C95 1.232 . S
C97 O89 1.260 . S
C97 O90 1.257 . S
Zn98 O101 2.031 . S
Zn98 O103 2.049 . S
Zn98 O108 2.067 . S
Zn99 O100 1.962 . S
Zn99 O102 1.986 . S
Zn99 O104 1.996 . S
Zn99 O107 1.943 . S
O100 Zn99 1.962 . S
O100 C105 1.254 . S
O101 Zn98 2.031 . S
O101 C105 1.269 . S
O102 Zn99 1.986 . S
O102 C109 1.262 . S
O103 Zn98 2.049 . S
O103 C111 1.260 . S
O104 Zn99 1.996 . S
O104 C111 1.257 . S
C105 O100 1.254 . S
C105 O101 1.269 . S
C106 O107 1.249 . S
C106 O108 1.270 . S
O107 Zn99 1.943 . S
O107 C106 1.249 . S
O108 Zn98 2.067 . S
O108 C106 1.270 . S
C109 O102 1.262 . S
C109 O110 1.232 . S
O110 C109 1.232 . S
C111 O103 1.260 . S
C111 O104 1.257 . S
Zn112 O115 2.031 . S
Zn112 O117 2.049 . S
Zn112 O122 2.067 . S
Zn113 O114 1.962 . S
Zn113 O116 1.986 . S
Zn113 O118 1.996 . S
Zn113 O121 1.943 . S
O114 Zn113 1.962 . S
O114 C119 1.254 . S
O115 Zn112 2.031 . S
O115 C119 1.269 . S
O116 Zn113 1.986 . S
O116 C123 1.262 . S
O117 Zn112 2.049 . S
O117 C125 1.260 . S
O118 Zn113 1.996 . S
O118 C125 1.257 . S
C119 O114 1.254 . S
C119 O115 1.269 . S
C120 O121 1.249 . S
C120 O122 1.270 . S
O121 Zn113 1.943 . S
O121 C120 1.249 . S
O122 Zn112 2.067 . S
O122 C120 1.270 . S
C123 O116 1.262 . S
C123 O124 1.232 . S
O124 C123 1.232 . S
C125 O117 1.260 . S
C125 O118 1.257 . S
H126 C132 0.930 . S
H127 C136 0.930 . S
H128 C141 0.929 . S
H129 C139 0.929 . S
H130 C134 0.929 . S
H131 C140 0.929 . S
C132 H126 0.930 . S
C132 C133 1.356 1_554 S
C132 C140 1.378 . S
C133 C132 1.356 1_556 S
C133 C141 1.442 . S
C134 H130 0.929 . S
C134 C136 1.378 . S
C134 C138 1.350 1_556 S
C135 C138 1.463 . S
C135 C140 1.350 . S
C135 N143 1.427 1_554 S
C136 H127 0.930 . S
C136 C134 1.378 . S
C136 C137 1.367 1_556 S
C137 C136 1.367 1_554 S
C137 C139 1.433 . S
C138 C134 1.350 1_554 S
C138 C135 1.463 . S
C138 N142 1.427 . S
C139 H129 0.929 . S
C139 C137 1.433 . S
C139 N142 1.384 . S
C140 H131 0.929 . S
C140 C132 1.378 . S
C140 C135 1.350 . S
C141 H128 0.929 . S
C141 C133 1.442 . S
C141 N143 1.384 . S
N142 C138 1.427 . S
N142 C139 1.384 . S
N143 C135 1.427 1_556 S
N143 C141 1.384 . S
H144 C150 0.930 . S
H145 C154 0.930 . S
H146 C159 0.929 . S
H147 C157 0.929 . S
H148 C152 0.929 . S
H149 C158 0.929 . S
C150 H144 0.930 . S
C150 C151 1.367 1_556 S
C150 C158 1.378 . S
C151 C150 1.367 1_554 S
C151 C159 1.433 . S
C152 H148 0.929 . S
C152 C154 1.378 . S
C152 C156 1.350 . S
C153 C156 1.463 1_565 S
C153 C158 1.350 1_554 S
C153 N161 1.427 . S
C154 H145 0.930 . S
C154 C152 1.378 . S
C154 C155 1.367 . S
C155 C154 1.367 . S
C155 C157 1.433 1_554 S
C156 C152 1.350 . S
C156 C153 1.463 1_545 S
C156 N160 1.427 1_554 S
C157 H147 0.929 . S
C157 C155 1.433 1_556 S
C157 N160 1.384 . S
C158 H149 0.929 . S
C158 C150 1.378 . S
C158 C153 1.350 1_556 S
C159 H146 0.929 . S
C159 C151 1.433 . S
C159 N161 1.384 . S
N160 C156 1.427 1_556 S
N160 C157 1.384 . S
N161 C153 1.427 . S
N161 C159 1.384 . S
H162 C168 0.930 . S
H163 C172 0.930 . S
H164 C177 0.929 . S
H165 C175 0.929 . S
H166 C170 0.929 . S
H167 C176 0.929 . S
C168 H162 0.930 . S
C168 C169 1.367 . S
C168 C176 1.378 . S
C169 C168 1.367 . S
C169 C177 1.433 1_554 S
C170 H166 0.929 . S
C170 C172 1.378 . S
C170 C174 1.350 1_556 S
C171 C174 1.463 1_655 S
C171 C176 1.350 . S
C171 N179 1.427 1_554 S
C172 H163 0.930 . S
C172 C170 1.378 . S
C172 C173 1.367 1_556 S
C173 C172 1.367 1_554 S
C173 C175 1.433 . S
C174 C170 1.350 1_554 S
C174 C171 1.463 1_455 S
C174 N178 1.427 . S
C175 H165 0.929 . S
C175 C173 1.433 . S
C175 N178 1.384 . S
C176 H167 0.929 . S
C176 C168 1.378 . S
C176 C171 1.350 . S
C177 H164 0.929 . S
C177 C169 1.433 1_556 S
C177 N179 1.384 . S
N178 C174 1.427 . S
N178 C175 1.384 . S
N179 C171 1.427 1_556 S
N179 C177 1.384 . S
H180 C186 0.930 . S
H181 C190 0.930 . S
H182 C195 0.929 . S
H183 C193 0.929 . S
H184 C188 0.929 . S
H185 C194 0.929 . S
C186 H180 0.930 . S
C186 C187 1.367 . S
C186 C194 1.378 . S
C187 C186 1.367 . S
C187 C195 1.433 . S
C188 H184 0.929 . S
C188 C190 1.378 . S
C188 C192 1.350 . S
C189 C192 1.463 . S
C189 C194 1.350 . S
C189 N197 1.427 . S
C190 H181 0.930 . S
C190 C188 1.378 . S
C190 C191 1.367 . S
C191 C190 1.367 . S
C191 C193 1.433 . S
C192 C188 1.350 . S
C192 C189 1.463 . S
C192 N196 1.427 . S
C193 H183 0.929 . S
C193 C191 1.433 . S
C193 N196 1.384 . S
C194 H185 0.929 . S
C194 C186 1.378 . S
C194 C189 1.350 . S
C195 H182 0.929 . S
C195 C187 1.433 . S
C195 N197 1.384 . S
N196 C192 1.427 . S
N196 C193 1.384 . S
N197 C189 1.427 . S
N197 C195 1.384 . S
H198 C204 0.930 . S
H199 C208 0.930 . S
H200 C213 0.929 . S
H201 C211 0.929 . S
H202 C206 0.929 . S
H203 C212 0.929 . S
C204 H198 0.930 . S
C204 C205 1.367 . S
C204 C212 1.378 . S
C205 C204 1.367 . S
C205 C213 1.433 . S
C206 H202 0.929 . S
C206 C208 1.378 . S
C206 C210 1.350 . S
C207 C210 1.463 . S
C207 C212 1.350 . S
C207 N215 1.427 . S
C208 H199 0.930 . S
C208 C206 1.378 . S
C208 C209 1.367 . S
C209 C208 1.367 . S
C209 C211 1.433 . S
C210 C206 1.350 . S
C210 C207 1.463 . S
C210 N214 1.427 . S
C211 H201 0.929 . S
C211 C209 1.433 . S
C211 N214 1.384 . S
C212 H203 0.929 . S
C212 C204 1.378 . S
C212 C207 1.350 . S
C213 H200 0.929 . S
C213 C205 1.433 . S
C213 N215 1.384 . S
N214 C210 1.427 . S
N214 C211 1.384 . S
N215 C207 1.427 . S
N215 C213 1.384 . S
H216 C222 0.930 . S
H217 C226 0.930 . S
H218 C231 0.929 . S
H219 C229 0.929 . S
H220 C224 0.929 . S
H221 C230 0.929 . S
C222 H216 0.930 . S
C222 C223 1.367 . S
C222 C230 1.378 . S
C223 C222 1.367 . S
C223 C231 1.433 . S
C224 H220 0.929 . S
C224 C226 1.378 . S
C224 C228 1.350 . S
C225 C228 1.463 . S
C225 C230 1.350 . S
C225 N233 1.427 . S
C226 H217 0.930 . S
C226 C224 1.378 . S
C226 C227 1.367 . S
C227 C226 1.367 . S
C227 C229 1.433 . S
C228 C224 1.350 . S
C228 C225 1.463 . S
C228 N232 1.427 . S
C229 H219 0.929 . S
C229 C227 1.433 . S
C229 N232 1.384 . S
C230 H221 0.929 . S
C230 C222 1.378 . S
C230 C225 1.350 . S
C231 H218 0.929 . S
C231 C223 1.433 . S
C231 N233 1.384 . S
N232 C228 1.427 . S
N232 C229 1.384 . S
N233 C225 1.427 . S
N233 C231 1.384 . S
H234 C240 0.930 . S
H235 C244 0.930 . S
H236 C249 0.929 . S
H237 C247 0.929 . S
H238 C242 0.929 . S
H239 C248 0.929 . S
C240 H234 0.930 . S
C240 C241 1.367 . S
C240 C248 1.378 . S
C241 C240 1.367 . S
C241 C249 1.433 . S
C242 H238 0.929 . S
C242 C244 1.378 . S
C242 C246 1.350 . S
C243 C246 1.463 . S
C243 C248 1.350 . S
C243 N251 1.427 . S
C244 H235 0.930 . S
C244 C242 1.378 . S
C244 C245 1.367 . S
C245 C244 1.367 . S
C245 C247 1.433 . S
C246 C242 1.350 . S
C246 C243 1.463 . S
C246 N250 1.427 . S
C247 H237 0.929 . S
C247 C245 1.433 . S
C247 N250 1.384 . S
C248 H239 0.929 . S
C248 C240 1.378 . S
C248 C243 1.350 . S
C249 H236 0.929 . S
C249 C241 1.433 . S
C249 N251 1.384 . S
N250 C246 1.427 . S
N250 C247 1.384 . S
N251 C243 1.427 . S
N251 C249 1.384 . S
H252 C258 0.930 . S
H253 C262 0.930 . S
H254 C267 0.929 . S
H255 C265 0.929 . S
H256 C260 0.929 . S
H257 C266 0.929 . S
C258 H252 0.930 . S
C258 C259 1.367 . S
C258 C266 1.378 . S
C259 C258 1.367 . S
C259 C267 1.433 . S
C260 H256 0.929 . S
C260 C262 1.378 . S
C260 C264 1.350 . S
C261 C264 1.463 . S
C261 C266 1.350 . S
C261 N269 1.427 . S
C262 H253 0.930 . S
C262 C260 1.378 . S
C262 C263 1.367 . S
C263 C262 1.367 . S
C263 C265 1.433 . S
C264 C260 1.350 . S
C264 C261 1.463 . S
C264 N268 1.427 . S
C265 H255 0.929 . S
C265 C263 1.433 . S
C265 N268 1.384 . S
C266 H257 0.929 . S
C266 C258 1.378 . S
C266 C261 1.350 . S
C267 H254 0.929 . S
C267 C259 1.433 . S
C267 N269 1.384 . S
N268 C264 1.427 . S
N268 C265 1.384 . S
N269 C261 1.427 . S
N269 C267 1.384 . S
H270 C276 0.930 . S
H271 C280 0.930 . S
H272 C285 0.929 . S
H273 C283 0.929 . S
H274 C278 0.929 . S
H275 C284 0.929 . S
C276 H270 0.930 . S
C276 C277 1.367 . S
C276 C284 1.378 . S
C277 C276 1.367 . S
C277 C285 1.433 . S
C278 H274 0.929 . S
C278 C280 1.378 . S
C278 C282 1.350 . S
C279 C282 1.463 . S
C279 C284 1.350 . S
C279 N287 1.427 . S
C280 H271 0.930 . S
C280 C278 1.378 . S
C280 C281 1.367 . S
C281 C280 1.367 . S
C281 C283 1.433 . S
C282 C278 1.350 . S
C282 C279 1.463 . S
C282 N286 1.427 . S
C283 H273 0.929 . S
C283 C281 1.433 . S
C283 N286 1.384 . S
C284 H275 0.929 . S
C284 C276 1.378 . S
C284 C279 1.350 . S
C285 H272 0.929 . S
C285 C277 1.433 . S
C285 N287 1.384 . S
N286 C282 1.427 . S
N286 C283 1.384 . S
N287 C279 1.427 . S
N287 C285 1.384 . S
H288 C294 0.930 . S
H289 C298 0.930 . S
H290 C303 0.929 . S
H291 C301 0.929 . S
H292 C296 0.929 . S
H293 C302 0.929 . S
C294 H288 0.930 . S
C294 C295 1.367 . S
C294 C302 1.378 . S
C295 C294 1.367 . S
C295 C303 1.433 . S
C296 H292 0.929 . S
C296 C298 1.378 . S
C296 C300 1.350 . S
C297 C300 1.463 . S
C297 C302 1.350 . S
C297 N305 1.427 . S
C298 H289 0.930 . S
C298 C296 1.378 . S
C298 C299 1.367 . S
C299 C298 1.367 . S
C299 C301 1.433 . S
C300 C296 1.350 . S
C300 C297 1.463 . S
C300 N304 1.427 . S
C301 H291 0.929 . S
C301 C299 1.433 . S
C301 N304 1.384 . S
C302 H293 0.929 . S
C302 C294 1.378 . S
C302 C297 1.350 . S
C303 H290 0.929 . S
C303 C295 1.433 . S
C303 N305 1.384 . S
N304 C300 1.427 . S
N304 C301 1.384 . S
N305 C297 1.427 . S
N305 C303 1.384 . S
H306 C312 0.930 . S
H307 C316 0.930 . S
H308 C321 0.929 . S
H309 C319 0.929 . S
H310 C314 0.929 . S
H311 C320 0.929 . S
C312 H306 0.930 . S
C312 C313 1.367 . S
C312 C320 1.378 . S
C313 C312 1.367 . S
C313 C321 1.433 . S
C314 H310 0.929 . S
C314 C316 1.378 . S
C314 C318 1.350 . S
C315 C318 1.463 . S
C315 C320 1.350 . S
C315 N323 1.427 . S
C316 H307 0.930 . S
C316 C314 1.378 . S
C316 C317 1.367 . S
C317 C316 1.367 . S
C317 C319 1.433 . S
C318 C314 1.350 . S
C318 C315 1.463 . S
C318 N322 1.427 . S
C319 H309 0.929 . S
C319 C317 1.433 . S
C319 N322 1.384 . S
C320 H311 0.929 . S
C320 C312 1.378 . S
C320 C315 1.350 . S
C321 H308 0.929 . S
C321 C313 1.433 . S
C321 N323 1.384 . S
N322 C318 1.427 . S
N322 C319 1.384 . S
N323 C315 1.427 . S
N323 C321 1.384 . S
H324 C330 0.930 . S
H325 C334 0.930 . S
H326 C339 0.929 . S
H327 C337 0.929 . S
H328 C332 0.929 1_545 S
H329 C338 0.929 . S
C330 H324 0.930 . S
C330 C331 1.367 . S
C330 C338 1.378 . S
C331 C330 1.367 . S
C331 C339 1.433 . S
C332 H328 0.929 1_565 S
C332 C334 1.378 1_565 S
C332 C336 1.350 . S
C333 C336 1.463 . S
C333 C338 1.350 . S
C333 N341 1.427 . S
C334 H325 0.930 . S
C334 C332 1.378 1_545 S
C334 C335 1.367 1_545 S
C335 C334 1.367 1_565 S
C335 C337 1.433 . S
C336 C332 1.350 . S
C336 C333 1.463 . S
C336 N340 1.427 . S
C337 H327 0.929 . S
C337 C335 1.433 . S
C337 N340 1.384 . S
C338 H329 0.929 . S
C338 C330 1.378 . S
C338 C333 1.350 . S
C339 H326 0.929 . S
C339 C331 1.433 . S
C339 N341 1.384 . S
N340 C336 1.427 . S
N340 C337 1.384 . S
N341 C333 1.427 . S
N341 C339 1.384 . S
H342 C348 0.930 . S
H343 C352 0.930 . S
H344 C357 0.929 . S
H345 C355 0.929 . S
H346 C350 0.929 . S
H347 C356 0.929 . S
C348 H342 0.930 . S
C348 C349 1.367 . S
C348 C356 1.378 . S
C349 C348 1.367 . S
C349 C357 1.433 . S
C350 H346 0.929 . S
C350 C352 1.378 . S
C350 C354 1.350 . S
C351 C354 1.463 . S
C351 C356 1.350 . S
C351 N359 1.427 . S
C352 H343 0.930 . S
C352 C350 1.378 . S
C352 C353 1.367 . S
C353 C352 1.367 . S
C353 C355 1.433 . S
C354 C350 1.350 . S
C354 C351 1.463 . S
C354 N358 1.427 . S
C355 H345 0.929 . S
C355 C353 1.433 . S
C355 N358 1.384 . S
C356 H347 0.929 . S
C356 C348 1.378 . S
C356 C351 1.350 . S
C357 H344 0.929 . S
C357 C349 1.433 . S
C357 N359 1.384 . S
N358 C354 1.427 . S
N358 C355 1.384 . S
N359 C351 1.427 . S
N359 C357 1.384 . S
H360 C366 0.930 . S
H361 C370 0.930 . S
H362 C375 0.929 . S
H363 C373 0.929 . S
H364 C368 0.929 . S
H365 C374 0.929 . S
C366 H360 0.930 . S
C366 C367 1.367 . S
C366 C374 1.378 . S
C367 C366 1.367 . S
C367 C375 1.433 1_655 S
C368 H364 0.929 . S
C368 C370 1.378 . S
C368 C372 1.350 . S
C369 C372 1.463 . S
C369 C374 1.350 . S
C369 N377 1.427 . S
C370 H361 0.930 . S
C370 C368 1.378 . S
C370 C371 1.367 . S
C371 C370 1.367 . S
C371 C373 1.433 . S
C372 C368 1.350 . S
C372 C369 1.463 . S
C372 N376 1.427 . S
C373 H363 0.929 . S
C373 C371 1.433 . S
C373 N376 1.384 . S
C374 H365 0.929 . S
C374 C366 1.378 . S
C374 C369 1.350 . S
C375 H362 0.929 . S
C375 C367 1.433 1_455 S
C375 N377 1.384 1_455 S
N376 C372 1.427 . S
N376 C373 1.384 . S
N377 C369 1.427 . S
N377 C375 1.384 1_655 S
H378 C384 0.930 . S
H379 C388 0.930 . S
H380 C393 0.929 . S
H381 C391 0.929 . S
H382 C386 0.929 . S
H383 C392 0.929 . S
C384 H378 0.930 . S
C384 C385 1.367 . S
C384 C392 1.378 . S
C385 C384 1.367 . S
C385 C393 1.433 . S
C386 H382 0.929 . S
C386 C388 1.378 . S
C386 C390 1.350 . S
C387 C390 1.463 . S
C387 C392 1.350 . S
C387 N395 1.427 . S
C388 H379 0.930 . S
C388 C386 1.378 . S
C388 C389 1.367 . S
C389 C388 1.367 . S
C389 C391 1.433 . S
C390 C386 1.350 . S
C390 C387 1.463 . S
C390 N394 1.427 . S
C391 H381 0.929 . S
C391 C389 1.433 . S
C391 N394 1.384 . S
C392 H383 0.929 . S
C392 C384 1.378 . S
C392 C387 1.350 . S
C393 H380 0.929 . S
C393 C385 1.433 . S
C393 N395 1.384 . S
N394 C390 1.427 . S
N394 C391 1.384 . S
N395 C387 1.427 . S
N395 C393 1.384 . S
H396 C402 0.930 . S
H397 C406 0.930 . S
H398 C411 0.929 . S
H399 C409 0.929 . S
H400 C404 0.929 . S
H401 C410 0.929 1_655 S
C402 H396 0.930 . S
C402 C403 1.367 . S
C402 C410 1.378 . S
C403 C402 1.367 . S
C403 C411 1.433 . S
C404 H400 0.929 . S
C404 C406 1.378 1_455 S
C404 C408 1.350 . S
C405 C408 1.463 . S
C405 C410 1.350 . S
C405 N413 1.427 . S
C406 H397 0.930 . S
C406 C404 1.378 1_655 S
C406 C407 1.367 . S
C407 C406 1.367 . S
C407 C409 1.433 . S
C408 C404 1.350 . S
C408 C405 1.463 . S
C408 N412 1.427 1_455 S
C409 H399 0.929 . S
C409 C407 1.433 . S
C409 N412 1.384 . S
C410 H401 0.929 1_455 S
C410 C402 1.378 . S
C410 C405 1.350 . S
C411 H398 0.929 . S
C411 C403 1.433 . S
C411 N413 1.384 . S
N412 C408 1.427 1_655 S
N412 C409 1.384 . S
N413 C405 1.427 . S
N413 C411 1.384 . S
H414 C420 0.930 . S
H415 C424 0.930 . S
H416 C429 0.929 . S
H417 C427 0.929 . S
H418 C422 0.929 . S
H419 C428 0.929 . S
C420 H414 0.930 . S
C420 C421 1.367 . S
C420 C428 1.378 . S
C421 C420 1.367 . S
C421 C429 1.433 . S
C422 H418 0.929 . S
C422 C424 1.378 . S
C422 C426 1.350 . S
C423 C426 1.463 . S
C423 C428 1.350 . S
C423 N431 1.427 . S
C424 H415 0.930 . S
C424 C422 1.378 . S
C424 C425 1.367 . S
C425 C424 1.367 . S
C425 C427 1.433 . S
C426 C422 1.350 . S
C426 C423 1.463 . S
C426 N430 1.427 . S
C427 H417 0.929 . S
C427 C425 1.433 . S
C427 N430 1.384 . S
C428 H419 0.929 . S
C428 C420 1.378 . S
C428 C423 1.350 . S
C429 H416 0.929 . S
C429 C421 1.433 . S
C429 N431 1.384 . S
N430 C426 1.427 . S
N430 C427 1.384 . S
N431 C423 1.427 . S
N431 C429 1.384 . S
H432 C438 0.930 . S
H433 C442 0.930 . S
H434 C447 0.929 . S
H435 C445 0.929 . S
H436 C440 0.929 . S
H437 C446 0.929 . S
C438 H432 0.930 . S
C438 C439 1.367 . S
C438 C446 1.378 . S
C439 C438 1.367 . S
C439 C447 1.433 . S
C440 H436 0.929 . S
C440 C442 1.378 . S
C440 C444 1.350 . S
C441 C444 1.465 . S
C441 C446 1.348 1_545 S
C441 N449 1.427 . S
C442 H433 0.930 . S
C442 C440 1.378 . S
C442 C443 1.367 . S
C443 C442 1.367 . S
C443 C445 1.433 . S
C444 C440 1.350 . S
C444 C441 1.465 . S
C444 N448 1.427 . S
C445 H435 0.929 . S
C445 C443 1.433 . S
C445 N448 1.384 . S
C446 H437 0.929 . S
C446 C438 1.378 . S
C446 C441 1.348 1_565 S
C447 H434 0.929 . S
C447 C439 1.433 . S
C447 N449 1.384 1_565 S
N448 C444 1.427 . S
N448 C445 1.384 . S
N449 C441 1.427 . S
N449 C447 1.384 1_545 S
C133 C36 1.025 1_556 S
C137 C7 1.087 . S
C151 C22 1.048 . S
C155 C8 1.047 . S
C169 C21 0.981 1_554 S
C173 C35 0.981 . S
C187 C77 1.040 . S
C191 C50 0.996 . S
C205 C64 0.958 . S
C209 C49 0.999 . S
C223 C63 1.073 . S
C227 C78 1.037 . S
C241 C91 0.990 . S
C245 C120 0.967 . S
C259 C92 1.054 . S
C263 C106 1.053 . S
C277 C105 0.973 . S
C281 C119 0.961 . S
C295 C11 1.352 . S
C299 C109 1.343 . S
C313 C27 1.268 . S
C317 C125 1.256 . S
C331 C97 1.252 . S
C335 C39 1.345 . S
C349 C69 1.262 . S
C353 C41 1.268 . S
C367 C13 1.316 . S
C371 C83 1.319 . S
C385 C55 1.271 . S
C389 C25 1.350 . S
C403 C111 1.275 . S
C407 C81 1.343 . S
C421 C53 1.300 . S
C425 C123 1.300 . S
C439 C95 1.360 . S
C443 C67 1.361 . S
