# Generated by pormake.
# Topology ske, (6)-cn, num edge types: 1
# Building blocks:
#     Node 0, Type 0, BuildingBlock: BETDIP_clean_sbu_0, # of connection points: 6
#     Node 1, Type 0, BuildingBlock: BETDIP_clean_sbu_0, # of connection points: 6
#     Node 2, Type 0, BuildingBlock: BETDIP_clean_sbu_0, # of connection points: 6
#     Node 3, Type 0, BuildingBlock: BETDIP_clean_sbu_0, # of connection points: 6
#     Node 4, Type 0, BuildingBlock: BETDIP_clean_sbu_0, # of connection points: 6
#     Node 5, Type 0, BuildingBlock: BETDIP_clean_sbu_0, # of connection points: 6
#     Node 6, Type 0, BuildingBlock: BETDIP_clean_sbu_0, # of connection points: 6
#     Node 7, Type 0, BuildingBlock: BETDIP_clean_sbu_0, # of connection points: 6
#     Edge 8, Type (0, 0), BuildingBlock: EZIPEK_clean_linker_0, # of connection points: 2
#     Edge 9, Type (0, 0), BuildingBlock: EZIPEK_clean_linker_0, # of connection points: 2
#     Edge 10, Type (0, 0), BuildingBlock: EZIPEK_clean_linker_0, # of connection points: 2
#     Edge 11, Type (0, 0), BuildingBlock: EZIPEK_clean_linker_0, # of connection points: 2
#     Edge 12, Type (0, 0), BuildingBlock: EZIPEK_clean_linker_0, # of connection points: 2
#     Edge 13, Type (0, 0), BuildingBlock: EZIPEK_clean_linker_0, # of connection points: 2
#     Edge 14, Type (0, 0), BuildingBlock: EZIPEK_clean_linker_0, # of connection points: 2
#     Edge 15, Type (0, 0), BuildingBlock: EZIPEK_clean_linker_0, # of connection points: 2
#     Edge 16, Type (0, 0), BuildingBlock: EZIPEK_clean_linker_0, # of connection points: 2
#     Edge 17, Type (0, 0), BuildingBlock: EZIPEK_clean_linker_0, # of connection points: 2
#     Edge 18, Type (0, 0), BuildingBlock: EZIPEK_clean_linker_0, # of connection points: 2
#     Edge 19, Type (0, 0), BuildingBlock: EZIPEK_clean_linker_0, # of connection points: 2
#     Edge 20, Type (0, 0), BuildingBlock: EZIPEK_clean_linker_0, # of connection points: 2
#     Edge 21, Type (0, 0), BuildingBlock: EZIPEK_clean_linker_0, # of connection points: 2
#     Edge 22, Type (0, 0), BuildingBlock: EZIPEK_clean_linker_0, # of connection points: 2
#     Edge 23, Type (0, 0), BuildingBlock: EZIPEK_clean_linker_0, # of connection points: 2
#     Edge 24, Type (0, 0), BuildingBlock: EZIPEK_clean_linker_0, # of connection points: 2
#     Edge 25, Type (0, 0), BuildingBlock: EZIPEK_clean_linker_0, # of connection points: 2
#     Edge 26, Type (0, 0), BuildingBlock: EZIPEK_clean_linker_0, # of connection points: 2
#     Edge 27, Type (0, 0), BuildingBlock: EZIPEK_clean_linker_0, # of connection points: 2
#     Edge 28, Type (0, 0), BuildingBlock: EZIPEK_clean_linker_0, # of connection points: 2
#     Edge 29, Type (0, 0), BuildingBlock: EZIPEK_clean_linker_0, # of connection points: 2
#     Edge 30, Type (0, 0), BuildingBlock: EZIPEK_clean_linker_0, # of connection points: 2
#     Edge 31, Type (0, 0), BuildingBlock: EZIPEK_clean_linker_0, # of connection points: 2
# Relax obj value: 0.219
# Max RMSD: 0.220
# Mean RMSD: 0.213
data_MOF--net-ske--node1-BETDIP_clean_sbu_0--edge1-EZIPEK_clean_linker_0
_symmetry_space_group_name_H-M    P1
_symmetry_Int_Tables_number       1
_symmetry_cell_setting            triclinic
loop_
_symmetry_equiv_pos_as_xyz
'x, y, z'
_cell_length_a     86.417739
_cell_length_b     21.139662
_cell_length_c     11.42341
_cell_angle_alpha  90.323452
_cell_angle_beta   89.993886
_cell_angle_gamma 90.062267
loop_
_atom_site_label
_atom_site_type_symbol
_atom_site_fract_x
_atom_site_fract_y
_atom_site_fract_z
_atom_type_partial_charge
Tb0 Tb 0.16715 0.26716 0.56133 0.0
Tb1 Tb 0.13386 0.25475 0.56881 0.0
C2 C 0.19525 0.2989 0.5895 0.0
C3 C 0.21053 0.27893 0.63665 0.0
C4 C 0.21521 0.29915 0.74887 0.0
C5 C 0.23046 0.29021 0.78682 0.0
C6 C 0.24138 0.26112 0.71335 0.0
C7 C 0.23665 0.23869 0.60302 0.0
C8 C 0.22139 0.24778 0.56476 0.0
C9 C 0.15784 0.14681 0.54448 0.0
C10 C 0.15046 0.2591 0.80677 0.0
C11 C 0.10561 0.2233 0.55772 0.0
C12 C 0.08987 0.24282 0.52039 0.0
C13 C 0.08039 0.19861 0.46246 0.0
C14 C 0.06452 0.20998 0.44834 0.0
C15 C 0.05783 0.2657 0.49247 0.0
C16 C 0.0674 0.31153 0.54491 0.0
C17 C 0.08329 0.30032 0.55853 0.0
C18 C 0.14332 0.37616 0.57763 0.0
C19 C 0.15053 0.26498 0.32073 0.0
O20 O 0.18425 0.31123 0.66434 0.0
O21 O 0.18993 0.27084 0.49576 0.0
O22 O 0.15195 0.18909 0.6088 0.0
O23 O 0.17031 0.16974 0.50022 0.0
O24 O 0.16172 0.28627 0.74722 0.0
O25 O 0.13931 0.22968 0.74951 0.0
O26 O 0.11581 0.20695 0.47862 0.0
O27 O 0.11185 0.25485 0.64399 0.0
O28 O 0.14897 0.3322 0.51624 0.0
O29 O 0.13143 0.35274 0.63012 0.0
O30 O 0.13842 0.24306 0.37919 0.0
O31 O 0.16245 0.28942 0.37793 0.0
H32 H 0.20726 0.32418 0.80585 0.0
H33 H 0.23388 0.30791 0.87217 0.0
H34 H 0.24491 0.21616 0.54501 0.0
H35 H 0.21828 0.23249 0.47723 0.0
H36 H 0.0851 0.15368 0.43352 0.0
H37 H 0.05733 0.17398 0.40799 0.0
H38 H 0.06244 0.35477 0.57966 0.0
H39 H 0.09025 0.3353 0.60402 0.0
Tb40 Tb 0.87817 0.24516 0.5317 0.0
Tb41 Tb 0.91223 0.25083 0.53827 0.0
C42 C 0.84995 0.21432 0.54772 0.0
C43 C 0.8354 0.22352 0.61462 0.0
C44 C 0.82668 0.17002 0.6454 0.0
C45 C 0.81187 0.17651 0.69372 0.0
C46 C 0.80546 0.23672 0.7121 0.0
C47 C 0.81434 0.29048 0.68513 0.0
C48 C 0.82919 0.28398 0.63658 0.0
C49 C 0.88926 0.36256 0.51411 0.0
C50 C 0.89555 0.25046 0.78117 0.0
C51 C 0.94087 0.26732 0.51631 0.0
C52 C 0.95789 0.27374 0.50152 0.0
C53 C 0.9657 0.32961 0.53384 0.0
C54 C 0.98192 0.3329 0.52846 0.0
C55 C 0.99059 0.28028 0.49123 0.0
C56 C 0.98281 0.22503 0.45668 0.0
C57 C 0.96665 0.22181 0.46146 0.0
C58 C 0.90036 0.13496 0.56197 0.0
C59 C 0.89516 0.24928 0.29452 0.0
O60 O 0.86119 0.18289 0.59728 0.0
O61 O 0.85506 0.26158 0.48533 0.0
O62 O 0.89457 0.31888 0.57766 0.0
O63 O 0.8766 0.34213 0.46712 0.0
O64 O 0.88248 0.24083 0.72241 0.0
O65 O 0.9088 0.26104 0.7265 0.0
O66 O 0.93189 0.31021 0.56415 0.0
O67 O 0.93355 0.21719 0.47831 0.0
O68 O 0.89575 0.17734 0.4925 0.0
O69 O 0.91246 0.15653 0.6149 0.0
O70 O 0.90667 0.2745 0.35534 0.0
O71 O 0.88351 0.22202 0.34951 0.0
H72 H 0.83113 0.12294 0.62841 0.0
H73 H 0.80523 0.13448 0.71404 0.0
H74 H 0.80961 0.33736 0.699 0.0
H75 H 0.8356 0.32613 0.61332 0.0
H76 H 0.9593 0.37029 0.56544 0.0
H77 H 0.98774 0.37591 0.55588 0.0
H78 H 0.98929 0.18391 0.42803 0.0
H79 H 0.96104 0.17794 0.43639 0.0
Tb80 Tb 0.16758 0.75059 0.51601 0.0
Tb81 Tb 0.13185 0.76731 0.51959 0.0
C82 C 0.1939 0.69881 0.51234 0.0
C83 C 0.20957 0.70778 0.46321 0.0
C84 C 0.21905 0.65461 0.44684 0.0
C85 C 0.23417 0.66129 0.40469 0.0
C86 C 0.24011 0.72135 0.37823 0.0
C87 C 0.2306 0.77472 0.39342 0.0
C88 C 0.21541 0.768 0.43563 0.0
C89 C 0.16068 0.87338 0.51975 0.0
C90 C 0.15044 0.76709 0.27401 0.0
C91 C 0.10429 0.80229 0.48858 0.0
C92 C 0.08823 0.79327 0.53056 0.0
C93 C 0.07833 0.84585 0.53668 0.0
C94 C 0.06241 0.83779 0.55461 0.0
C95 C 0.05612 0.77693 0.56633 0.0
C96 C 0.06607 0.72443 0.56597 0.0
C97 C 0.08201 0.73249 0.54844 0.0
C98 C 0.14182 0.65001 0.55751 0.0
C99 C 0.14895 0.76282 0.75971 0.0
O100 O 0.18281 0.68507 0.43831 0.0
O101 O 0.1894 0.73889 0.59325 0.0
O102 O 0.15161 0.82655 0.518 0.0
O103 O 0.17464 0.8511 0.51525 0.0
O104 O 0.16396 0.76068 0.32765 0.0
O105 O 0.13718 0.77102 0.33192 0.0
O106 O 0.11409 0.83334 0.5554 0.0
O107 O 0.11071 0.75407 0.43515 0.0
O108 O 0.14768 0.69071 0.48984 0.0
O109 O 0.12917 0.67414 0.59972 0.0
O110 O 0.1364 0.78235 0.70427 0.0
O111 O 0.16126 0.74043 0.70277 0.0
H112 H 0.21479 0.60778 0.46764 0.0
H113 H 0.24129 0.61956 0.39319 0.0
H114 H 0.23495 0.82144 0.37296 0.0
H115 H 0.2083 0.8097 0.4474 0.0
H116 H 0.08281 0.89305 0.52207 0.0
H117 H 0.05491 0.87881 0.55417 0.0
H118 H 0.06141 0.67709 0.57454 0.0
H119 H 0.08934 0.69101 0.54371 0.0
Tb120 Tb 0.87692 0.75544 0.51747 0.0
Tb121 Tb 0.91298 0.74533 0.51941 0.0
C122 C 0.84985 0.79976 0.52303 0.0
C123 C 0.83435 0.78986 0.47133 0.0
C124 C 0.82503 0.84285 0.44964 0.0
C125 C 0.81002 0.8355 0.40569 0.0
C126 C 0.80405 0.77495 0.38291 0.0
C127 C 0.81339 0.72174 0.40322 0.0
C128 C 0.82847 0.72911 0.44707 0.0
C129 C 0.88622 0.63404 0.51074 0.0
C130 C 0.89375 0.74312 0.27448 0.0
C131 C 0.941 0.71703 0.48817 0.0
C132 C 0.95706 0.73075 0.5275 0.0
C133 C 0.96611 0.6818 0.57445 0.0
C134 C 0.98202 0.69021 0.59265 0.0
C135 C 0.98919 0.74761 0.56344 0.0
C136 C 0.9801 0.79749 0.52117 0.0
C137 C 0.96419 0.78925 0.50349 0.0
C138 C 0.90147 0.86094 0.55928 0.0
C139 C 0.89552 0.74611 0.75915 0.0
O140 O 0.86069 0.82056 0.45297 0.0
O141 O 0.85495 0.75668 0.59541 0.0
O142 O 0.89398 0.68411 0.51508 0.0
O143 O 0.87187 0.65188 0.50647 0.0
O144 O 0.88051 0.7553 0.32864 0.0
O145 O 0.9069 0.73259 0.33228 0.0
O146 O 0.9318 0.68552 0.5584 0.0
O147 O 0.93374 0.7616 0.43104 0.0
O148 O 0.89618 0.8187 0.49154 0.0
O149 O 0.91453 0.83981 0.59902 0.0
O150 O 0.90784 0.7241 0.70266 0.0
O151 O 0.88354 0.77056 0.70233 0.0
H152 H 0.82932 0.89007 0.46784 0.0
H153 H 0.80301 0.87707 0.3902 0.0
H154 H 0.80899 0.67466 0.3856 0.0
H155 H 0.83545 0.68751 0.46284 0.0
H156 H 0.961 0.63603 0.59227 0.0
H157 H 0.98887 0.65107 0.6247 0.0
H158 H 0.98545 0.84203 0.49769 0.0
H159 H 0.95763 0.82789 0.46639 0.0
Tb160 Tb 0.66825 0.76478 1.01895 0.0
Tb161 Tb 0.63449 0.76669 1.02597 0.0
C162 C 0.697 0.78606 0.03593 0.0
C163 C 0.71115 0.77492 0.10695 0.0
C164 C 0.71636 0.82123 0.18679 0.0
C165 C 0.73104 0.81655 0.23811 0.0
C166 C 0.74083 0.76573 0.21007 0.0
C167 C 0.73547 0.71816 0.13409 0.0
C168 C 0.72079 0.72276 0.08277 0.0
C169 C 0.65552 0.65047 0.99735 0.0
C170 C 0.6509 0.76235 0.26829 0.0
C171 C 0.60569 0.75535 1.00742 0.0
C172 C 0.58859 0.75354 0.99854 0.0
C173 C 0.58057 0.69606 0.98521 0.0
C174 C 0.56434 0.6953 0.98087 0.0
C175 C 0.55592 0.75193 0.99108 0.0
C176 C 0.56392 0.80925 1.00409 0.0
C177 C 0.58008 0.81009 1.00733 0.0
C178 C 0.64767 0.88018 0.04994 0.0
C179 C 0.65162 0.76631 0.78018 0.0
O180 O 0.68633 0.82356 0.07804 0.0
O181 O 0.69105 0.73813 0.97907 0.0
O182 O 0.65104 0.69443 0.06466 0.0
O183 O 0.66818 0.6688 0.94821 0.0
O184 O 0.66404 0.77086 0.21009 0.0
O185 O 0.63764 0.75341 0.21324 0.0
O186 O 0.6145 0.70734 0.03503 0.0
O187 O 0.61319 0.8077 0.98736 0.0
O188 O 0.65168 0.83679 0.9795 0.0
O189 O 0.63582 0.85999 0.10776 0.0
O190 O 0.63932 0.74701 0.83915 0.0
O191 O 0.6639 0.78782 0.83628 0.0
H192 H 0.70937 0.86251 0.20592 0.0
H193 H 0.73501 0.85383 0.29627 0.0
H194 H 0.74288 0.6787 0.11115 0.0
H195 H 0.71729 0.68674 1.02036 0.0
H196 H 0.58683 0.65183 0.97849 0.0
H197 H 0.55833 0.6506 0.97091 0.0
H198 H 0.55762 0.85334 1.01225 0.0
H199 H 0.58592 0.85509 1.01853 0.0
Tb200 Tb 0.37659 0.7324 1.0286 0.0
Tb201 Tb 0.41029 0.73692 0.03543 0.0
C202 C 0.34823 0.70419 0.04691 0.0
C203 C 0.33376 0.71704 0.11361 0.0
C204 C 0.32856 0.67393 0.19855 0.0
C205 C 0.31373 0.67952 0.24723 0.0
C206 C 0.30374 0.72804 0.21143 0.0
C207 C 0.30906 0.77254 0.13001 0.0
C208 C 0.32389 0.76706 0.08139 0.0
C209 C 0.38778 0.84949 1.00767 0.0
C210 C 0.39391 0.73739 0.27843 0.0
C211 C 0.43898 0.75073 1.01359 0.0
C212 C 0.45601 0.75444 0.99973 0.0
C213 C 0.46409 0.81111 1.02098 0.0
C214 C 0.48031 0.81247 1.01583 0.0
C215 C 0.48867 0.75708 0.99036 0.0
C216 C 0.48061 0.70078 0.96755 0.0
C217 C 0.46445 0.6995 0.9718 0.0
C218 C 0.39835 0.62139 0.05867 0.0
C219 C 0.39342 0.73523 0.79161 0.0
O220 O 0.35936 0.67292 0.09844 0.0
O221 O 0.35358 0.74894 0.97962 0.0
O222 O 0.39294 0.80676 0.07421 0.0
O223 O 0.37527 0.82821 0.95998 0.0
O224 O 0.38084 0.72806 0.21954 0.0
O225 O 0.40712 0.74779 0.22353 0.0
O226 O 0.43035 0.79395 0.06391 0.0
O227 O 0.4313 0.70218 0.97287 0.0
O228 O 0.39382 0.66362 0.98902 0.0
O229 O 0.41027 0.64304 0.11355 0.0
O230 O 0.40486 0.76079 0.85238 0.0
O231 O 0.38184 0.70769 0.84698 0.0
H232 H 0.33573 0.63432 0.22401 0.0
H233 H 0.30982 0.64459 0.30968 0.0
H234 H 0.30151 0.81021 0.10104 0.0
H235 H 0.32737 0.80062 1.0151 0.0
H236 H 0.45789 0.85406 0.04311 0.0
H237 H 0.48637 0.85635 0.03378 0.0
H238 H 0.48687 0.65763 0.94784 0.0
H239 H 0.45859 0.65497 0.9558 0.0
Tb240 Tb 0.66733 0.26381 1.00385 0.0
Tb241 Tb 0.63281 0.26739 1.00736 0.0
C242 C 0.69582 0.23879 1.02574 0.0
C243 C 0.71109 0.24508 0.96625 0.0
C244 C 0.71609 0.19987 0.88346 0.0
C245 C 0.73122 0.20158 0.83911 0.0
C246 C 0.74169 0.24824 0.87697 0.0
C247 C 0.73666 0.29422 0.95749 0.0
C248 C 0.72155 0.29252 1.00198 0.0
C249 C 0.65533 0.37889 0.978 0.0
C250 C 0.65115 0.26908 0.76245 0.0
C251 C 0.60446 0.29132 0.97551 0.0
C252 C 0.58835 0.28053 1.01645 0.0
C253 C 0.57872 0.33304 0.03667 0.0
C254 C 0.56278 0.32516 0.05406 0.0
C255 C 0.55614 0.26456 0.05118 0.0
C256 C 0.5658 0.21171 0.03617 0.0
C257 C 0.58177 0.21956 1.01891 0.0
C258 C 0.64481 0.15276 0.03724 0.0
C259 C 0.64896 0.2646 0.25 0.0
O260 O 0.68567 0.19961 0.98089 0.0
O261 O 0.68932 0.29035 0.0658 0.0
O262 O 0.65044 0.33558 0.04402 0.0
O263 O 0.66797 0.35887 0.9292 0.0
O264 O 0.66392 0.25138 0.81644 0.0
O265 O 0.63862 0.28601 0.82184 0.0
O266 O 0.61363 0.32715 0.03861 0.0
O267 O 0.61178 0.24365 0.92767 0.0
O268 O 0.64966 0.19528 0.96914 0.0
O269 O 0.63202 0.17276 0.08367 0.0
O270 O 0.63597 0.27925 0.19523 0.0
O271 O 0.66178 0.25004 0.1916 0.0
H272 H 0.70846 0.16209 0.85517 0.0
H273 H 0.73488 0.16558 0.77721 0.0
H274 H 0.74457 0.33053 0.98801 0.0
H275 H 0.7182 0.32741 0.06698 0.0
H276 H 0.58343 0.38054 0.0337 0.0
H277 H 0.55553 0.36654 0.06501 0.0
H278 H 0.56089 0.16456 0.03336 0.0
H279 H 0.58881 0.17809 1.00274 0.0
Tb280 Tb 0.37786 0.23988 1.02095 0.0
Tb281 Tb 0.41219 0.23191 1.02425 0.0
C282 C 0.34972 0.27009 0.04402 0.0
C283 C 0.33484 0.26791 0.98004 0.0
C284 C 0.32413 0.31696 0.99739 0.0
C285 C 0.30938 0.31375 0.94716 0.0
C286 C 0.30504 0.26127 0.87883 0.0
C287 C 0.31585 0.21275 0.85884 0.0
C288 C 0.33065 0.21602 0.90904 0.0
C289 C 0.38864 0.12285 0.99314 0.0
C290 C 0.39394 0.23059 0.77992 0.0
C291 C 0.44048 0.20656 0.99162 0.0
C292 C 0.45667 0.22125 1.02711 0.0
C293 C 0.46589 0.17338 0.07606 0.0
C294 C 0.48187 0.18203 0.09045 0.0
C295 C 0.48897 0.23862 0.05551 0.0
C296 C 0.47974 0.28751 1.01094 0.0
C297 C 0.46375 0.27898 0.99684 0.0
C298 C 0.40099 0.34818 0.0566 0.0
C299 C 0.39613 0.23578 0.26719 0.0
O300 O 0.36036 0.30886 1.00569 0.0
O301 O 0.35554 0.21606 0.07693 0.0
O302 O 0.39407 0.16523 0.06013 0.0
O303 O 0.37637 0.14551 0.94337 0.0
O304 O 0.38149 0.25217 0.83388 0.0
O305 O 0.40601 0.20994 0.84026 0.0
O306 O 0.43161 0.17532 0.06413 0.0
O307 O 0.43283 0.24985 0.93453 0.0
O308 O 0.39593 0.30622 0.98762 0.0
O309 O 0.4138 0.32716 0.10009 0.0
O310 O 0.40908 0.2209 0.21205 0.0
O311 O 0.38331 0.25032 0.20934 0.0
H312 H 0.32708 0.35726 0.05208 0.0
H313 H 0.30123 0.35171 0.96328 0.0
H314 H 0.31272 0.172 0.80597 0.0
H315 H 0.3387 0.17754 0.89428 0.0
H316 H 0.46084 0.1281 0.09847 0.0
H317 H 0.4888 0.14361 0.12439 0.0
H318 H 0.48501 0.33143 0.98301 0.0
H319 H 0.45708 0.3167 0.95771 0.0
C320 C 0.269 0.29927 0.69954 0.0
C321 C 0.25796 0.25765 0.74998 0.0
C322 C 0.27777 0.21833 0.88572 0.0
C323 C 0.28901 0.25716 0.83044 0.0
N324 N 0.2961 0.32538 0.67099 0.0
N325 N 0.25234 0.16955 0.87594 0.0
C326 C 0.28484 0.29481 0.733 0.0
C327 C 0.26252 0.21473 0.83864 0.0
N328 N 0.26426 0.34504 0.62346 0.0
N329 N 0.28152 0.18676 0.98593 0.0
H330 H 0.2411 0.16567 0.84347 0.0
H331 H 0.25542 0.13268 0.93129 0.0
H332 H 0.29258 0.18761 1.02238 0.0
H333 H 0.27342 0.16365 0.03792 0.0
H334 H 0.27142 0.3813 0.59417 0.0
H335 H 0.25279 0.35012 0.59677 0.0
H336 H 0.29406 0.34802 0.59177 0.0
H337 H 0.30779 0.32339 0.69338 0.0
C338 C 0.76175 0.26691 0.72013 0.0
C339 C 0.75811 0.24744 0.83565 0.0
C340 C 0.78577 0.22956 0.87458 0.0
C341 C 0.78921 0.24291 0.75574 0.0
N342 N 0.78024 0.26531 0.56033 0.0
N343 N 0.76629 0.20116 1.01798 0.0
C344 C 0.77713 0.25934 0.6771 0.0
C345 C 0.77004 0.22642 0.91174 0.0
N346 N 0.75058 0.29421 0.65249 0.0
N347 N 0.79758 0.22145 0.95268 0.0
H348 H 0.75494 0.19799 0.04843 0.0
H349 H 0.77425 0.17855 0.07183 0.0
H350 H 0.80921 0.22334 0.92854 0.0
H351 H 0.79592 0.21834 0.04274 0.0
H352 H 0.75285 0.3157 0.57251 0.0
H353 H 0.73919 0.30022 0.68081 0.0
H354 H 0.7717 0.27005 0.49677 0.0
H355 H 0.79133 0.2604 0.52533 0.0
C356 C 0.28377 0.75291 0.36643 0.0
C357 C 0.28734 0.72949 0.2529 0.0
C358 C 0.25968 0.71041 0.21613 0.0
C359 C 0.2563 0.72759 0.33366 0.0
N360 N 0.2652 0.7584 0.52571 0.0
N361 N 0.27907 0.678 0.07455 0.0
C362 C 0.26837 0.74729 0.41016 0.0
C363 C 0.27538 0.70626 0.17885 0.0
N364 N 0.29506 0.7818 0.43138 0.0
N365 N 0.24783 0.69948 0.1393 0.0
H366 H 0.29039 0.67438 0.04356 0.0
H367 H 0.2711 0.65363 1.0229 0.0
H368 H 0.2362 0.70188 0.16359 0.0
H369 H 0.24942 0.6935 0.04958 0.0
H370 H 0.29291 0.80594 0.50937 0.0
H371 H 0.30647 0.78606 0.40252 0.0
H372 H 0.27369 0.76584 0.58889 0.0
H373 H 0.25406 0.75565 0.56054 0.0
C374 C 0.76033 0.74629 0.37014 0.0
C375 C 0.75711 0.76486 0.25346 0.0
C376 C 0.7849 0.78026 0.21754 0.0
C377 C 0.78796 0.76798 0.33731 0.0
N378 N 0.77858 0.74622 0.53175 0.0
N379 N 0.76595 0.80766 0.06983 0.0
C380 C 0.77567 0.75259 0.41477 0.0
C381 C 0.76931 0.78386 0.17795 0.0
N382 N 0.74877 0.72129 0.43732 0.0
N383 N 0.79696 0.78713 0.14109 0.0
H384 H 0.75471 0.81073 0.03712 0.0
H385 H 0.77412 0.82905 1.01603 0.0
H386 H 0.80852 0.78519 0.16717 0.0
H387 H 0.79558 0.78933 0.05067 0.0
H388 H 0.75064 0.70055 0.51853 0.0
H389 H 0.7374 0.71668 0.40776 0.0
H390 H 0.76994 0.74224 0.59478 0.0
H391 H 0.78967 0.74941 0.56733 0.0
C392 C 0.15981 0.9737 0.64065 0.0
C393 C 0.15694 0.94225 0.53217 0.0
C394 C 0.15148 0.04508 0.44053 0.0
C395 C 0.15487 0.07681 0.54753 0.0
N396 N 0.15926 0.0709 0.7555 0.0
N397 N 0.15359 0.94939 0.32375 0.0
C398 C 0.15803 0.04091 0.64964 0.0
C399 C 0.15346 0.97824 0.43107 0.0
N400 N 0.16551 0.93984 0.73273 0.0
N401 N 0.14607 0.07909 0.34786 0.0
H402 H 0.15581 0.90129 0.31292 0.0
H403 H 0.15301 0.97359 0.24478 0.0
H404 H 0.14447 0.12782 0.35193 0.0
H405 H 0.14174 0.0587 0.2714 0.0
H406 H 0.1698 0.96014 0.80931 0.0
H407 H 0.16687 0.89083 0.73029 0.0
H408 H 0.15979 0.0474 0.83519 0.0
H409 H 0.15845 0.1197 0.76532 0.0
C410 C 0.89348 0.46544 0.40789 0.0
C411 C 0.89339 0.43191 0.51587 0.0
C412 C 0.89246 0.53383 0.62197 0.0
C413 C 0.89171 0.56669 0.51399 0.0
N414 N 0.89647 0.56572 0.30729 0.0
N415 N 0.89787 0.43616 0.7248 0.0
C416 C 0.89382 0.53296 0.4079 0.0
C417 C 0.89459 0.46666 0.62275 0.0
N418 N 0.89294 0.43259 0.30463 0.0
N419 N 0.89063 0.56677 0.72411 0.0
H420 H 0.90004 0.38797 0.72932 0.0
H421 H 0.90016 0.45944 0.80345 0.0
H422 H 0.89026 0.61594 0.72647 0.0
H423 H 0.88882 0.54567 0.8051 0.0
H424 H 0.89074 0.45336 0.22393 0.0
H425 H 0.89422 0.3837 0.30013 0.0
H426 H 0.89943 0.54469 0.22779 0.0
H427 H 0.89732 0.61481 0.3068 0.0
C428 C 0.88786 0.96311 0.61196 0.0
C429 C 0.89893 0.9305 0.54252 0.0
C430 C 0.90752 0.03257 0.46144 0.0
C431 C 0.89821 0.06527 0.54445 0.0
N432 N 0.88058 0.06153 0.70757 0.0
N433 N 0.91994 0.93439 0.40361 0.0
C434 C 0.88856 0.03048 0.62153 0.0
C435 C 0.90883 0.96532 0.46696 0.0
N436 N 0.87658 0.92973 0.66798 0.0
N437 N 0.91519 0.06591 0.37734 0.0
H438 H 0.92093 0.88531 0.40133 0.0
H439 H 0.92879 0.95728 0.35873 0.0
H440 H 0.91487 0.11503 0.37313 0.0
H441 H 0.92078 0.04501 0.30631 0.0
H442 H 0.86732 0.95083 0.71151 0.0
H443 H 0.8756 0.88082 0.66003 0.0
H444 H 0.87475 0.03853 0.77486 0.0
H445 H 0.88072 0.11062 0.71669 0.0
C446 C 0.15705 0.54799 0.58033 0.0
C447 C 0.14359 0.57991 0.54111 0.0
C448 C 0.13103 0.47712 0.50188 0.0
C449 C 0.14422 0.44527 0.54714 0.0
N450 N 0.17145 0.44964 0.58766 0.0
N451 N 0.1201 0.57493 0.42786 0.0
C452 C 0.15778 0.48058 0.5731 0.0
C453 C 0.13124 0.54441 0.49103 0.0
N454 N 0.16895 0.58179 0.62821 0.0
N455 N 0.11833 0.44305 0.46804 0.0
H456 H 0.12038 0.62351 0.41263 0.0
H457 H 0.11153 0.55178 0.38002 0.0
H458 H 0.11841 0.39393 0.45939 0.0
H459 H 0.10759 0.46328 0.45097 0.0
H460 H 0.17827 0.56121 0.67138 0.0
H461 H 0.16901 0.63098 0.63085 0.0
H462 H 0.18208 0.47227 0.59777 0.0
H463 H 0.17228 0.40113 0.57455 0.0
C464 C 0.66228 0.5471 0.09184 0.0
C465 C 0.65247 0.58167 1.01586 0.0
C466 C 0.64142 0.48175 0.94132 0.0
C467 C 0.65292 0.44765 1.00308 0.0
N468 N 0.67354 0.44584 0.14496 0.0
N469 N 0.63182 0.58366 0.87506 0.0
C470 C 0.66299 0.47978 0.08198 0.0
C471 C 0.64161 0.54937 0.94382 0.0
N472 N 0.67083 0.57899 0.17395 0.0
N473 N 0.63027 0.44921 0.88111 0.0
H474 H 0.631 0.63271 0.88152 0.0
H475 H 0.62487 0.56433 0.80967 0.0
H476 H 0.62992 0.39997 0.8782 0.0
H477 H 0.62075 0.47019 0.84142 0.0
H478 H 0.67721 0.55722 0.23952 0.0
H479 H 0.67059 0.62812 0.18259 0.0
H480 H 0.68252 0.46593 0.19305 0.0
H481 H 0.67362 0.39654 0.14667 0.0
C482 C 0.37832 0.95402 0.08543 0.0
C483 C 0.39001 0.91906 1.0263 0.0
C484 C 0.40287 0.01892 0.97142 0.0
C485 C 0.39011 0.05347 1.01678 0.0
N486 N 0.36607 0.05526 0.12406 0.0
N487 N 0.4137 0.91681 0.91601 0.0
C488 C 0.37803 0.02132 0.07701 0.0
C489 C 0.40252 0.9512 0.97189 0.0
N490 N 0.36761 0.92255 0.1514 0.0
N491 N 0.41529 0.05106 0.92747 0.0
H492 H 0.41416 0.86769 0.92022 0.0
H493 H 0.42219 0.93614 0.8625 0.0
H494 H 0.4156 0.10022 0.92269 0.0
H495 H 0.42566 0.02989 0.90289 0.0
H496 H 0.35977 0.9445 0.20742 0.0
H497 H 0.36722 0.87341 0.15699 0.0
H498 H 0.35581 0.03539 0.15421 0.0
H499 H 0.36617 0.10439 0.13042 0.0
C500 C 0.38825 0.44925 0.12488 0.0
C501 C 0.39803 0.4175 0.04385 0.0
C502 C 0.40398 0.5195 0.95104 0.0
C503 C 0.3961 0.55182 0.04266 0.0
N504 N 0.3815 0.54797 0.222 0.0
N505 N 0.41668 0.42314 0.88724 0.0
C506 C 0.38834 0.51675 0.13058 0.0
C507 C 0.40617 0.45279 0.95806 0.0
N508 N 0.37876 0.41487 0.19588 0.0
N509 N 0.40951 0.55254 0.85755 0.0
H510 H 0.41872 0.37467 0.89037 0.0
H511 H 0.4243 0.44702 0.83241 0.0
H512 H 0.4084 0.6013 0.85045 0.0
H513 H 0.41389 0.53116 0.78218 0.0
H514 H 0.37026 0.43487 0.249 0.0
H515 H 0.37844 0.36569 0.19346 0.0
H516 H 0.37734 0.52545 0.29648 0.0
H517 H 0.38077 0.59717 0.22647 0.0
C518 C 0.63762 0.04699 0.94942 0.0
C519 C 0.64781 0.08364 1.02023 0.0
C520 C 0.66002 0.98622 0.09267 0.0
C521 C 0.64939 0.94939 1.02618 0.0
N522 N 0.63001 0.94352 0.87482 0.0
N523 N 0.67084 0.08968 0.13781 0.0
C524 C 0.63885 0.97956 0.94887 0.0
C525 C 0.65974 0.0536 0.08457 0.0
N526 N 0.62648 0.07688 0.88517 0.0
N527 N 0.66994 0.95676 0.16766 0.0
H528 H 0.67065 0.13886 0.13608 0.0
H529 H 0.68079 0.07146 0.17616 0.0
H530 H 0.67087 0.90777 0.17187 0.0
H531 H 0.67664 0.98018 0.22992 0.0
H532 H 0.61738 0.05385 0.84329 0.0
H533 H 0.62603 0.1259 0.87623 0.0
H534 H 0.62317 0.96177 0.80824 0.0
H535 H 0.63036 0.89427 0.87368 0.0
C536 C 0.16198 0.22865 0.12711 0.0
C537 C 0.15055 0.26386 0.18902 0.0
C538 C 0.1384 0.29205 1.00073 0.0
C539 C 0.1505 0.26071 0.93855 0.0
N540 N 0.17492 0.20546 0.94314 0.0
N541 N 0.12943 0.33795 0.18428 0.0
C542 C 0.16266 0.23123 1.00207 0.0
C543 C 0.13912 0.29766 0.12559 0.0
N544 N 0.17174 0.18986 0.18752 0.0
N545 N 0.12618 0.31689 0.94055 0.0
H546 H 0.12976 0.34411 0.27486 0.0
H547 H 0.122 0.3695 0.14303 0.0
H548 H 0.12568 0.31821 0.84955 0.0
H549 H 0.11609 0.33288 0.98061 0.0
H550 H 0.17904 0.15703 0.14772 0.0
H551 H 0.17161 0.18632 0.27835 0.0
H552 H 0.18506 0.19088 0.98403 0.0
H553 H 0.17545 0.2021 0.8522 0.0
C554 C 0.90721 0.21895 0.09989 0.0
C555 C 0.8954 0.25107 0.16312 0.0
C556 C 0.88462 0.28868 0.97576 0.0
C557 C 0.89532 0.25038 0.91281 0.0
N558 N 0.91441 0.16718 0.91884 0.0
N559 N 0.87154 0.31059 0.15926 0.0
C560 C 0.90602 0.21251 0.97596 0.0
C561 C 0.88365 0.28375 0.10035 0.0
N562 N 0.91966 0.19422 0.1574 0.0
N563 N 0.87593 0.33246 0.91762 0.0
H564 H 0.87078 0.3118 0.25016 0.0
H565 H 0.86172 0.32802 0.11765 0.0
H566 H 0.87654 0.33905 0.82741 0.0
H567 H 0.86926 0.36663 0.95991 0.0
H568 H 0.92943 0.177 0.1143 0.0
H569 H 0.92092 0.19579 0.24786 0.0
H570 H 0.9211 0.13354 0.96178 0.0
H571 H 0.91329 0.15828 0.82973 0.0
C572 C 0.14273 0.81623 0.07927 0.0
C573 C 0.14985 0.76604 0.14229 0.0
C574 C 0.15384 0.7094 0.95489 0.0
C575 C 0.14897 0.76362 0.89161 0.0
N576 N 0.1407 0.87298 0.89686 0.0
N577 N 0.1627 0.66444 0.13756 0.0
C578 C 0.14388 0.81807 0.95472 0.0
C579 C 0.15574 0.71296 0.07909 0.0
N580 N 0.13449 0.86191 0.13705 0.0
N581 N 0.15542 0.65274 0.8978 0.0
H582 H 0.16265 0.66028 0.22837 0.0
H583 H 0.16916 0.62944 0.09559 0.0
H584 H 0.15281 0.64676 0.80944 0.0
H585 H 0.15745 0.61007 0.94017 0.0
H586 H 0.12747 0.89449 0.09436 0.0
H587 H 0.13343 0.86443 0.22753 0.0
H588 H 0.13908 0.91619 0.93941 0.0
H589 H 0.14102 0.8773 0.80631 0.0
C590 C 0.90642 0.77806 0.95811 0.0
C591 C 0.89512 0.7446 0.89127 0.0
C592 C 0.88356 0.70584 0.07601 0.0
C593 C 0.8941 0.74336 0.14237 0.0
N594 N 0.91308 0.82704 0.14373 0.0
N595 N 0.87132 0.68419 0.88894 0.0
C596 C 0.90493 0.78234 0.08255 0.0
C597 C 0.88318 0.71104 0.95102 0.0
N598 N 0.91856 0.80684 0.90322 0.0
N599 N 0.87434 0.66289 0.13166 0.0
H600 H 0.87086 0.68322 0.79789 0.0
H601 H 0.86133 0.66653 0.92787 0.0
H602 H 0.87414 0.65751 0.22223 0.0
H603 H 0.86787 0.62859 0.08778 0.0
H604 H 0.92819 0.82432 0.94773 0.0
H605 H 0.91958 0.80985 0.81275 0.0
H606 H 0.91982 0.86177 0.10427 0.0
H607 H 0.91178 0.8341 0.23342 0.0
C608 C 0.64946 0.70594 0.46273 0.0
C609 C 0.651 0.76328 0.39948 0.0
C610 C 0.65215 0.82299 0.58578 0.0
C611 C 0.65151 0.76528 0.64895 0.0
N612 N 0.65211 0.65134 0.64822 0.0
N613 N 0.65419 0.87637 0.3986 0.0
C614 C 0.65076 0.70661 0.58751 0.0
C615 C 0.65252 0.82174 0.46067 0.0
N616 N 0.64659 0.65078 0.40343 0.0
N617 N 0.65172 0.87923 0.64556 0.0
H618 H 0.65275 0.87805 0.30829 0.0
H619 H 0.65746 0.91954 0.43511 0.0
H620 H 0.65188 0.8822 0.73656 0.0
H621 H 0.65031 0.9231 0.60627 0.0
H622 H 0.64354 0.60861 0.44401 0.0
H623 H 0.64619 0.64793 0.31232 0.0
H624 H 0.65329 0.60709 0.60892 0.0
H625 H 0.65344 0.65005 0.73876 0.0
C626 C 0.40559 0.70542 0.5972 0.0
C627 C 0.39367 0.73691 0.6604 0.0
C628 C 0.38296 0.77492 0.47343 0.0
C629 C 0.39371 0.73699 0.41018 0.0
N630 N 0.41296 0.65433 0.41594 0.0
N631 N 0.36973 0.79586 0.65649 0.0
C632 C 0.40445 0.69924 0.4732 0.0
C633 C 0.3819 0.76942 0.59774 0.0
N634 N 0.41809 0.68115 0.65472 0.0
N635 N 0.3744 0.81923 0.41589 0.0
H636 H 0.36893 0.79688 0.74734 0.0
H637 H 0.3599 0.81307 0.61465 0.0
H638 H 0.37541 0.82688 0.32637 0.0
H639 H 0.3676 0.85293 0.45827 0.0
H640 H 0.42791 0.66444 0.61158 0.0
H641 H 0.41935 0.68258 0.74523 0.0
H642 H 0.41968 0.62077 0.45882 0.0
H643 H 0.41192 0.64569 0.32673 0.0
C644 C 0.64863 0.32445 0.44276 0.0
C645 C 0.64932 0.26569 0.38147 0.0
C646 C 0.65037 0.2093 0.5702 0.0
C647 C 0.65061 0.26816 0.63114 0.0
N648 N 0.6517 0.38188 0.62674 0.0
N649 N 0.65187 0.15227 0.38507 0.0
C650 C 0.65011 0.32579 0.56766 0.0
C651 C 0.65055 0.20819 0.44491 0.0
N652 N 0.64653 0.37915 0.38131 0.0
N653 N 0.64923 0.15436 0.63242 0.0
H654 H 0.65069 0.14898 0.29452 0.0
H655 H 0.65483 0.10954 0.42384 0.0
H656 H 0.64916 0.15315 0.72367 0.0
H657 H 0.64725 0.11018 0.59471 0.0
H658 H 0.64411 0.4227 0.41993 0.0
H659 H 0.64636 0.38072 0.2901 0.0
H660 H 0.65311 0.42549 0.58639 0.0
H661 H 0.65273 0.38458 0.71753 0.0
C662 C 0.40517 0.27545 0.46548 0.0
C663 C 0.39569 0.23406 0.39842 0.0
C664 C 0.38418 0.19342 0.5809 0.0
C665 C 0.39462 0.2309 0.64833 0.0
N666 N 0.41664 0.30144 0.65306 0.0
N667 N 0.37828 0.14505 0.39281 0.0
C668 C 0.40565 0.26971 0.58992 0.0
C669 C 0.38571 0.19089 0.45637 0.0
N670 N 0.41313 0.32275 0.41088 0.0
N671 N 0.37276 0.15996 0.63541 0.0
H672 H 0.37943 0.14067 0.30234 0.0
H673 H 0.3722 0.10775 0.43031 0.0
H674 H 0.37177 0.15706 0.72594 0.0
H675 H 0.36363 0.13841 0.59086 0.0
H676 H 0.41878 0.35916 0.45536 0.0
H677 H 0.41286 0.32925 0.3207 0.0
H678 H 0.42613 0.32381 0.61525 0.0
H679 H 0.41695 0.30175 0.74398 0.0
C680 C 0.03288 0.29948 0.39612 0.0
C681 C 0.04064 0.27308 0.49385 0.0
C682 C 1.01574 0.26012 0.59552 0.0
C683 C 1.00788 0.28122 0.49381 0.0
N684 N 1.00857 0.31613 0.29359 0.0
N685 N 0.03962 0.22219 0.68211 0.0
C686 C 1.01636 0.29982 0.39312 0.0
C687 C 0.0321 0.25197 0.59259 0.0
N688 N 0.04135 0.32524 0.30722 0.0
N689 N 1.00753 0.24882 0.69568 0.0
H690 H 0.05161 0.21694 0.68509 0.0
H691 H 0.03398 0.19881 0.74976 0.0
H692 H 0.99552 0.25266 0.70038 0.0
H693 H 1.01264 0.24028 0.77657 0.0
H694 H 0.03656 0.35117 0.23912 0.0
H695 H 0.05342 0.32454 0.30579 0.0
H696 H 1.0139 0.32322 0.21303 0.0
H697 H 0.99653 0.31896 0.28963 0.0
C698 C 1.01402 0.77297 0.67061 0.0
C699 C 1.00639 0.75362 0.56632 0.0
C700 C 0.03122 0.75249 0.46153 0.0
C701 C 0.03899 0.76791 0.56751 0.0
N702 N 0.03831 0.78487 0.77601 0.0
N703 N 1.00772 0.71547 0.36722 0.0
C704 C 0.03052 0.77592 0.67308 0.0
C705 C 1.01501 0.7406 0.46313 0.0
N706 N 1.00545 0.78998 0.76629 0.0
N707 N 0.03928 0.75134 0.35842 0.0
H708 H 0.99582 0.70749 0.36373 0.0
H709 H 1.01356 0.69794 0.29428 0.0
H710 H 0.05119 0.75873 0.3535 0.0
H711 H 0.03404 0.74793 0.27656 0.0
H712 H 1.01011 0.81107 0.84091 0.0
H713 H 0.9934 0.78687 0.7682 0.0
H714 H 0.03303 0.78448 0.85786 0.0
H715 H 0.05035 0.78817 0.7804 0.0
C716 C 0.53061 0.76487 0.88449 0.0
C717 C 0.53866 0.75174 0.99001 0.0
C718 C 0.51401 0.74732 0.09721 0.0
C719 C 0.50592 0.75703 0.99054 0.0
N720 N 0.50607 0.76867 0.78089 0.0
N721 N 0.53835 0.72402 0.19432 0.0
C722 C 0.51411 0.76407 0.88361 0.0
C723 C 0.53043 0.74112 0.09575 0.0
N724 N 0.5388 0.77933 0.78565 0.0
N725 N 0.50595 0.74522 0.20024 0.0
H726 H 0.55039 0.72133 0.19777 0.0
H727 H 0.53307 0.70855 0.27084 0.0
H728 H 0.4939 0.7473 0.20439 0.0
H729 H 0.51112 0.74548 0.28247 0.0
H730 H 0.5338 0.79663 0.70943 0.0
H731 H 0.55085 0.77749 0.78154 0.0
H732 H 0.51117 0.76649 0.69849 0.0
H733 H 0.49402 0.77101 0.77739 0.0
C734 C 0.51421 0.26026 0.1608 0.0
C735 C 0.50622 0.24463 0.05589 0.0
C736 C 0.53079 0.24608 0.94741 0.0
C737 C 0.53893 0.25699 0.05372 0.0
N738 N 0.53879 0.26621 0.26391 0.0
N739 N 0.507 0.21234 0.85316 0.0
C740 C 0.53073 0.26182 0.1612 0.0
C741 C 0.51456 0.23461 0.95025 0.0
N742 N 0.50596 0.27527 0.2592 0.0
N743 N 0.53852 0.2489 0.84302 0.0
H744 H 0.49511 0.20408 0.85104 0.0
H745 H 0.51266 0.19708 0.77767 0.0
H746 H 0.55041 0.25671 0.83694 0.0
H747 H 0.53299 0.24875 0.76202 0.0
H748 H 0.51093 0.29372 0.33505 0.0
H749 H 0.4939 0.27361 0.26231 0.0
H750 H 0.53366 0.26318 0.34614 0.0
H751 H 0.55085 0.26811 0.26711 0.0
loop_
_geom_bond_atom_site_label_1
_geom_bond_atom_site_label_2
_geom_bond_distance
_geom_bond_site_symmetry_2
_ccdc_geom_bond_type
Tb0 C2 2.809 . S
Tb0 O20 2.484 . S
Tb0 O21 2.440 . S
Tb0 O22 2.658 . S
Tb0 O23 2.409 . S
Tb0 O24 2.378 . S
Tb0 O28 2.325 . S
Tb0 O31 2.341 . S
Tb1 C11 2.809 . S
Tb1 O22 2.325 . S
Tb1 O25 2.341 . S
Tb1 O26 2.484 . S
Tb1 O27 2.440 . S
Tb1 O28 2.658 . S
Tb1 O29 2.409 . S
Tb1 O30 2.378 . S
C2 Tb0 2.809 . S
C2 C3 1.514 . S
C2 O20 1.248 . S
C2 O21 1.266 . S
C3 C2 1.514 . S
C3 C4 1.359 . S
C3 C8 1.348 . S
C4 C3 1.359 . S
C4 C5 1.380 . S
C4 H32 0.929 . S
C5 C4 1.380 . S
C5 C6 1.347 . S
C5 H33 0.931 . S
C6 C5 1.347 . S
C6 C7 1.369 . S
C7 C6 1.369 . S
C7 C8 1.408 . S
C7 H34 0.930 . S
C8 C3 1.348 . S
C8 C7 1.408 . S
C8 H35 0.930 . S
C9 O22 1.281 . S
C9 O23 1.254 . S
C10 O24 1.236 . S
C10 O25 1.266 . S
C11 Tb1 2.809 . S
C11 C12 1.514 . S
C11 O26 1.248 . S
C11 O27 1.266 . S
C12 C11 1.514 . S
C12 C13 1.359 . S
C12 C17 1.348 . S
C13 C12 1.359 . S
C13 C14 1.380 . S
C13 H36 0.929 . S
C14 C13 1.380 . S
C14 C15 1.347 . S
C14 H37 0.931 . S
C15 C14 1.347 . S
C15 C16 1.369 . S
C16 C15 1.369 . S
C16 C17 1.408 . S
C16 H38 0.930 . S
C17 C12 1.348 . S
C17 C16 1.408 . S
C17 H39 0.930 . S
C18 O28 1.281 . S
C18 O29 1.254 . S
C19 O30 1.236 . S
C19 O31 1.266 . S
O20 Tb0 2.484 . S
O20 C2 1.248 . S
O21 Tb0 2.440 . S
O21 C2 1.266 . S
O22 Tb0 2.658 . S
O22 Tb1 2.325 . S
O22 C9 1.281 . S
O23 Tb0 2.409 . S
O23 C9 1.254 . S
O24 Tb0 2.378 . S
O24 C10 1.236 . S
O25 Tb1 2.341 . S
O25 C10 1.266 . S
O26 Tb1 2.484 . S
O26 C11 1.248 . S
O27 Tb1 2.440 . S
O27 C11 1.266 . S
O28 Tb0 2.325 . S
O28 Tb1 2.658 . S
O28 C18 1.281 . S
O29 Tb1 2.409 . S
O29 C18 1.254 . S
O30 Tb1 2.378 . S
O30 C19 1.236 . S
O31 Tb0 2.341 . S
O31 C19 1.266 . S
H32 C4 0.929 . S
H33 C5 0.931 . S
H34 C7 0.930 . S
H35 C8 0.930 . S
H36 C13 0.929 . S
H37 C14 0.931 . S
H38 C16 0.930 . S
H39 C17 0.930 . S
Tb40 C42 2.809 . S
Tb40 O60 2.484 . S
Tb40 O61 2.440 . S
Tb40 O62 2.658 . S
Tb40 O63 2.409 . S
Tb40 O64 2.378 . S
Tb40 O68 2.325 . S
Tb40 O71 2.341 . S
Tb41 C51 2.809 . S
Tb41 O62 2.325 . S
Tb41 O65 2.341 . S
Tb41 O66 2.484 . S
Tb41 O67 2.440 . S
Tb41 O68 2.658 . S
Tb41 O69 2.409 . S
Tb41 O70 2.378 . S
C42 Tb40 2.809 . S
C42 C43 1.514 . S
C42 O60 1.248 . S
C42 O61 1.266 . S
C43 C42 1.514 . S
C43 C44 1.359 . S
C43 C48 1.348 . S
C44 C43 1.359 . S
C44 C45 1.380 . S
C44 H72 0.929 . S
C45 C44 1.380 . S
C45 C46 1.347 . S
C45 H73 0.931 . S
C46 C45 1.347 . S
C46 C47 1.369 . S
C47 C46 1.369 . S
C47 C48 1.408 . S
C47 H74 0.930 . S
C48 C43 1.348 . S
C48 C47 1.408 . S
C48 H75 0.930 . S
C49 O62 1.281 . S
C49 O63 1.254 . S
C50 O64 1.236 . S
C50 O65 1.266 . S
C51 Tb41 2.809 . S
C51 C52 1.514 . S
C51 O66 1.248 . S
C51 O67 1.266 . S
C52 C51 1.514 . S
C52 C53 1.359 . S
C52 C57 1.348 . S
C53 C52 1.359 . S
C53 C54 1.380 . S
C53 H76 0.929 . S
C54 C53 1.380 . S
C54 C55 1.347 . S
C54 H77 0.931 . S
C55 C54 1.347 . S
C55 C56 1.369 . S
C56 C55 1.369 . S
C56 C57 1.408 . S
C56 H78 0.930 . S
C57 C52 1.348 . S
C57 C56 1.408 . S
C57 H79 0.930 . S
C58 O68 1.281 . S
C58 O69 1.254 . S
C59 O70 1.236 . S
C59 O71 1.266 . S
O60 Tb40 2.484 . S
O60 C42 1.248 . S
O61 Tb40 2.440 . S
O61 C42 1.266 . S
O62 Tb40 2.658 . S
O62 Tb41 2.325 . S
O62 C49 1.281 . S
O63 Tb40 2.409 . S
O63 C49 1.254 . S
O64 Tb40 2.378 . S
O64 C50 1.236 . S
O65 Tb41 2.341 . S
O65 C50 1.266 . S
O66 Tb41 2.484 . S
O66 C51 1.248 . S
O67 Tb41 2.440 . S
O67 C51 1.266 . S
O68 Tb40 2.325 . S
O68 Tb41 2.658 . S
O68 C58 1.281 . S
O69 Tb41 2.409 . S
O69 C58 1.254 . S
O70 Tb41 2.378 . S
O70 C59 1.236 . S
O71 Tb40 2.341 . S
O71 C59 1.266 . S
H72 C44 0.929 . S
H73 C45 0.931 . S
H74 C47 0.930 . S
H75 C48 0.930 . S
H76 C53 0.929 . S
H77 C54 0.931 . S
H78 C56 0.930 . S
H79 C57 0.930 . S
Tb80 C82 2.809 . S
Tb80 O100 2.484 . S
Tb80 O101 2.440 . S
Tb80 O102 2.658 . S
Tb80 O103 2.409 . S
Tb80 O104 2.378 . S
Tb80 O108 2.325 . S
Tb80 O111 2.341 . S
Tb81 C91 2.809 . S
Tb81 O102 2.325 . S
Tb81 O105 2.341 . S
Tb81 O106 2.484 . S
Tb81 O107 2.440 . S
Tb81 O108 2.658 . S
Tb81 O109 2.409 . S
Tb81 O110 2.378 . S
C82 Tb80 2.809 . S
C82 C83 1.514 . S
C82 O100 1.248 . S
C82 O101 1.266 . S
C83 C82 1.514 . S
C83 C84 1.359 . S
C83 C88 1.348 . S
C84 C83 1.359 . S
C84 C85 1.380 . S
C84 H112 0.929 . S
C85 C84 1.380 . S
C85 C86 1.347 . S
C85 H113 0.931 . S
C86 C85 1.347 . S
C86 C87 1.369 . S
C87 C86 1.369 . S
C87 C88 1.408 . S
C87 H114 0.930 . S
C88 C83 1.348 . S
C88 C87 1.408 . S
C88 H115 0.930 . S
C89 O102 1.281 . S
C89 O103 1.254 . S
C90 O104 1.236 . S
C90 O105 1.266 . S
C91 Tb81 2.809 . S
C91 C92 1.514 . S
C91 O106 1.248 . S
C91 O107 1.266 . S
C92 C91 1.514 . S
C92 C93 1.359 . S
C92 C97 1.348 . S
C93 C92 1.359 . S
C93 C94 1.380 . S
C93 H116 0.929 . S
C94 C93 1.380 . S
C94 C95 1.347 . S
C94 H117 0.931 . S
C95 C94 1.347 . S
C95 C96 1.369 . S
C96 C95 1.369 . S
C96 C97 1.408 . S
C96 H118 0.930 . S
C97 C92 1.348 . S
C97 C96 1.408 . S
C97 H119 0.930 . S
C98 O108 1.281 . S
C98 O109 1.254 . S
C99 O110 1.236 . S
C99 O111 1.266 . S
O100 Tb80 2.484 . S
O100 C82 1.248 . S
O101 Tb80 2.440 . S
O101 C82 1.266 . S
O102 Tb80 2.658 . S
O102 Tb81 2.325 . S
O102 C89 1.281 . S
O103 Tb80 2.409 . S
O103 C89 1.254 . S
O104 Tb80 2.378 . S
O104 C90 1.236 . S
O105 Tb81 2.341 . S
O105 C90 1.266 . S
O106 Tb81 2.484 . S
O106 C91 1.248 . S
O107 Tb81 2.440 . S
O107 C91 1.266 . S
O108 Tb80 2.325 . S
O108 Tb81 2.658 . S
O108 C98 1.281 . S
O109 Tb81 2.409 . S
O109 C98 1.254 . S
O110 Tb81 2.378 . S
O110 C99 1.236 . S
O111 Tb80 2.341 . S
O111 C99 1.266 . S
H112 C84 0.929 . S
H113 C85 0.931 . S
H114 C87 0.930 . S
H115 C88 0.930 . S
H116 C93 0.929 . S
H117 C94 0.931 . S
H118 C96 0.930 . S
H119 C97 0.930 . S
Tb120 C122 2.809 . S
Tb120 O140 2.484 . S
Tb120 O141 2.440 . S
Tb120 O142 2.658 . S
Tb120 O143 2.409 . S
Tb120 O144 2.378 . S
Tb120 O148 2.325 . S
Tb120 O151 2.341 . S
Tb121 C131 2.809 . S
Tb121 O142 2.325 . S
Tb121 O145 2.341 . S
Tb121 O146 2.484 . S
Tb121 O147 2.440 . S
Tb121 O148 2.658 . S
Tb121 O149 2.409 . S
Tb121 O150 2.378 . S
C122 Tb120 2.809 . S
C122 C123 1.514 . S
C122 O140 1.248 . S
C122 O141 1.266 . S
C123 C122 1.514 . S
C123 C124 1.359 . S
C123 C128 1.348 . S
C124 C123 1.359 . S
C124 C125 1.380 . S
C124 H152 0.929 . S
C125 C124 1.380 . S
C125 C126 1.347 . S
C125 H153 0.931 . S
C126 C125 1.347 . S
C126 C127 1.369 . S
C127 C126 1.369 . S
C127 C128 1.408 . S
C127 H154 0.930 . S
C128 C123 1.348 . S
C128 C127 1.408 . S
C128 H155 0.930 . S
C129 O142 1.281 . S
C129 O143 1.254 . S
C130 O144 1.236 . S
C130 O145 1.266 . S
C131 Tb121 2.809 . S
C131 C132 1.514 . S
C131 O146 1.248 . S
C131 O147 1.266 . S
C132 C131 1.514 . S
C132 C133 1.359 . S
C132 C137 1.348 . S
C133 C132 1.359 . S
C133 C134 1.380 . S
C133 H156 0.929 . S
C134 C133 1.380 . S
C134 C135 1.347 . S
C134 H157 0.931 . S
C135 C134 1.347 . S
C135 C136 1.369 . S
C136 C135 1.369 . S
C136 C137 1.408 . S
C136 H158 0.930 . S
C137 C132 1.348 . S
C137 C136 1.408 . S
C137 H159 0.930 . S
C138 O148 1.281 . S
C138 O149 1.254 . S
C139 O150 1.236 . S
C139 O151 1.266 . S
O140 Tb120 2.484 . S
O140 C122 1.248 . S
O141 Tb120 2.440 . S
O141 C122 1.266 . S
O142 Tb120 2.658 . S
O142 Tb121 2.325 . S
O142 C129 1.281 . S
O143 Tb120 2.409 . S
O143 C129 1.254 . S
O144 Tb120 2.378 . S
O144 C130 1.236 . S
O145 Tb121 2.341 . S
O145 C130 1.266 . S
O146 Tb121 2.484 . S
O146 C131 1.248 . S
O147 Tb121 2.440 . S
O147 C131 1.266 . S
O148 Tb120 2.325 . S
O148 Tb121 2.658 . S
O148 C138 1.281 . S
O149 Tb121 2.409 . S
O149 C138 1.254 . S
O150 Tb121 2.378 . S
O150 C139 1.236 . S
O151 Tb120 2.341 . S
O151 C139 1.266 . S
H152 C124 0.929 . S
H153 C125 0.931 . S
H154 C127 0.930 . S
H155 C128 0.930 . S
H156 C133 0.929 . S
H157 C134 0.931 . S
H158 C136 0.930 . S
H159 C137 0.930 . S
Tb160 C162 2.809 1_556 S
Tb160 O180 2.484 1_556 S
Tb160 O181 2.440 1_556 S
Tb160 O182 2.658 . S
Tb160 O183 2.409 . S
Tb160 O184 2.378 1_556 S
Tb160 O188 2.325 1_556 S
Tb160 O191 2.341 . S
Tb161 C171 2.809 1_554 S
Tb161 O182 2.325 1_554 S
Tb161 O185 2.341 . S
Tb161 O186 2.484 1_554 S
Tb161 O187 2.440 1_554 S
Tb161 O188 2.658 . S
Tb161 O189 2.409 . S
Tb161 O190 2.378 1_554 S
C162 Tb160 2.809 1_554 S
C162 C163 1.514 . S
C162 O180 1.248 . S
C162 O181 1.266 . S
C163 C162 1.514 . S
C163 C164 1.359 . S
C163 C168 1.348 . S
C164 C163 1.359 . S
C164 C165 1.380 . S
C164 H192 0.929 . S
C165 C164 1.380 . S
C165 C166 1.347 . S
C165 H193 0.931 . S
C166 C165 1.347 . S
C166 C167 1.369 . S
C167 C166 1.369 . S
C167 C168 1.408 . S
C167 H194 0.930 . S
C168 C163 1.348 . S
C168 C167 1.408 . S
C168 H195 0.930 . S
C169 O182 1.281 . S
C169 O183 1.254 . S
C170 O184 1.236 . S
C170 O185 1.266 . S
C171 Tb161 2.809 1_556 S
C171 C172 1.514 . S
C171 O186 1.248 . S
C171 O187 1.266 . S
C172 C171 1.514 . S
C172 C173 1.359 . S
C172 C177 1.348 . S
C173 C172 1.359 . S
C173 C174 1.380 . S
C173 H196 0.929 . S
C174 C173 1.380 . S
C174 C175 1.347 . S
C174 H197 0.931 . S
C175 C174 1.347 . S
C175 C176 1.369 . S
C176 C175 1.369 . S
C176 C177 1.408 . S
C176 H198 0.930 . S
C177 C172 1.348 . S
C177 C176 1.408 . S
C177 H199 0.930 . S
C178 O188 1.281 . S
C178 O189 1.254 . S
C179 O190 1.236 . S
C179 O191 1.266 . S
O180 Tb160 2.484 1_554 S
O180 C162 1.248 . S
O181 Tb160 2.440 1_554 S
O181 C162 1.266 . S
O182 Tb160 2.658 . S
O182 Tb161 2.325 1_556 S
O182 C169 1.281 . S
O183 Tb160 2.409 . S
O183 C169 1.254 . S
O184 Tb160 2.378 1_554 S
O184 C170 1.236 . S
O185 Tb161 2.341 . S
O185 C170 1.266 . S
O186 Tb161 2.484 1_556 S
O186 C171 1.248 . S
O187 Tb161 2.440 1_556 S
O187 C171 1.266 . S
O188 Tb160 2.325 1_554 S
O188 Tb161 2.658 . S
O188 C178 1.281 . S
O189 Tb161 2.409 . S
O189 C178 1.254 . S
O190 Tb161 2.378 1_556 S
O190 C179 1.236 . S
O191 Tb160 2.341 . S
O191 C179 1.266 . S
H192 C164 0.929 . S
H193 C165 0.931 . S
H194 C167 0.930 . S
H195 C168 0.930 . S
H196 C173 0.929 . S
H197 C174 0.931 . S
H198 C176 0.930 . S
H199 C177 0.930 . S
Tb200 C202 2.809 1_556 S
Tb200 O220 2.484 1_556 S
Tb200 O221 2.440 1_556 S
Tb200 O222 2.658 . S
Tb200 O223 2.409 . S
Tb200 O224 2.378 1_556 S
Tb200 O228 2.325 1_556 S
Tb200 O231 2.341 . S
Tb201 C211 2.809 1_554 S
Tb201 O222 2.325 1_554 S
Tb201 O225 2.341 . S
Tb201 O226 2.484 1_554 S
Tb201 O227 2.440 1_554 S
Tb201 O228 2.658 . S
Tb201 O229 2.409 . S
Tb201 O230 2.378 1_554 S
C202 Tb200 2.809 1_554 S
C202 C203 1.514 . S
C202 O220 1.248 . S
C202 O221 1.266 . S
C203 C202 1.514 . S
C203 C204 1.359 . S
C203 C208 1.348 . S
C204 C203 1.359 . S
C204 C205 1.380 . S
C204 H232 0.929 . S
C205 C204 1.380 . S
C205 C206 1.347 . S
C205 H233 0.931 . S
C206 C205 1.347 . S
C206 C207 1.369 . S
C207 C206 1.369 . S
C207 C208 1.408 . S
C207 H234 0.930 . S
C208 C203 1.348 . S
C208 C207 1.408 . S
C208 H235 0.930 . S
C209 O222 1.281 . S
C209 O223 1.254 . S
C210 O224 1.236 . S
C210 O225 1.266 . S
C211 Tb201 2.809 1_556 S
C211 C212 1.514 . S
C211 O226 1.248 . S
C211 O227 1.266 . S
C212 C211 1.514 . S
C212 C213 1.359 . S
C212 C217 1.348 . S
C213 C212 1.359 . S
C213 C214 1.380 . S
C213 H236 0.929 . S
C214 C213 1.380 . S
C214 C215 1.347 . S
C214 H237 0.931 . S
C215 C214 1.347 . S
C215 C216 1.369 . S
C216 C215 1.369 . S
C216 C217 1.408 . S
C216 H238 0.930 . S
C217 C212 1.348 . S
C217 C216 1.408 . S
C217 H239 0.930 . S
C218 O228 1.281 . S
C218 O229 1.254 . S
C219 O230 1.236 . S
C219 O231 1.266 . S
O220 Tb200 2.484 1_554 S
O220 C202 1.248 . S
O221 Tb200 2.440 1_554 S
O221 C202 1.266 . S
O222 Tb200 2.658 . S
O222 Tb201 2.325 1_556 S
O222 C209 1.281 . S
O223 Tb200 2.409 . S
O223 C209 1.254 . S
O224 Tb200 2.378 1_554 S
O224 C210 1.236 . S
O225 Tb201 2.341 . S
O225 C210 1.266 . S
O226 Tb201 2.484 1_556 S
O226 C211 1.248 . S
O227 Tb201 2.440 1_556 S
O227 C211 1.266 . S
O228 Tb200 2.325 1_554 S
O228 Tb201 2.658 . S
O228 C218 1.281 . S
O229 Tb201 2.409 . S
O229 C218 1.254 . S
O230 Tb201 2.378 1_556 S
O230 C219 1.236 . S
O231 Tb200 2.341 . S
O231 C219 1.266 . S
H232 C204 0.929 . S
H233 C205 0.931 . S
H234 C207 0.930 . S
H235 C208 0.930 . S
H236 C213 0.929 . S
H237 C214 0.931 . S
H238 C216 0.930 . S
H239 C217 0.930 . S
Tb240 C242 2.809 1_554 S
Tb240 O260 2.484 1_554 S
Tb240 O261 2.440 1_554 S
Tb240 O262 2.658 . S
Tb240 O263 2.409 . S
Tb240 O264 2.378 1_554 S
Tb240 O268 2.325 1_554 S
Tb240 O271 2.341 . S
Tb241 C251 2.809 1_556 S
Tb241 O262 2.325 1_556 S
Tb241 O265 2.341 . S
Tb241 O266 2.484 1_556 S
Tb241 O267 2.440 1_556 S
Tb241 O268 2.658 . S
Tb241 O269 2.409 . S
Tb241 O270 2.378 1_556 S
C242 Tb240 2.809 1_556 S
C242 C243 1.514 . S
C242 O260 1.248 . S
C242 O261 1.266 . S
C243 C242 1.514 . S
C243 C244 1.359 . S
C243 C248 1.348 . S
C244 C243 1.359 . S
C244 C245 1.380 . S
C244 H272 0.929 . S
C245 C244 1.380 . S
C245 C246 1.347 . S
C245 H273 0.931 . S
C246 C245 1.347 . S
C246 C247 1.369 . S
C247 C246 1.369 . S
C247 C248 1.408 . S
C247 H274 0.930 . S
C248 C243 1.348 . S
C248 C247 1.408 . S
C248 H275 0.930 . S
C249 O262 1.281 . S
C249 O263 1.254 . S
C250 O264 1.236 . S
C250 O265 1.266 . S
C251 Tb241 2.809 1_554 S
C251 C252 1.514 . S
C251 O266 1.248 . S
C251 O267 1.266 . S
C252 C251 1.514 . S
C252 C253 1.359 . S
C252 C257 1.348 . S
C253 C252 1.359 . S
C253 C254 1.380 . S
C253 H276 0.929 . S
C254 C253 1.380 . S
C254 C255 1.347 . S
C254 H277 0.931 . S
C255 C254 1.347 . S
C255 C256 1.369 . S
C256 C255 1.369 . S
C256 C257 1.408 . S
C256 H278 0.930 . S
C257 C252 1.348 . S
C257 C256 1.408 . S
C257 H279 0.930 . S
C258 O268 1.281 . S
C258 O269 1.254 . S
C259 O270 1.236 . S
C259 O271 1.266 . S
O260 Tb240 2.484 1_556 S
O260 C242 1.248 . S
O261 Tb240 2.440 1_556 S
O261 C242 1.266 . S
O262 Tb240 2.658 . S
O262 Tb241 2.325 1_554 S
O262 C249 1.281 . S
O263 Tb240 2.409 . S
O263 C249 1.254 . S
O264 Tb240 2.378 1_556 S
O264 C250 1.236 . S
O265 Tb241 2.341 . S
O265 C250 1.266 . S
O266 Tb241 2.484 1_554 S
O266 C251 1.248 . S
O267 Tb241 2.440 1_554 S
O267 C251 1.266 . S
O268 Tb240 2.325 1_556 S
O268 Tb241 2.658 . S
O268 C258 1.281 . S
O269 Tb241 2.409 . S
O269 C258 1.254 . S
O270 Tb241 2.378 1_554 S
O270 C259 1.236 . S
O271 Tb240 2.341 . S
O271 C259 1.266 . S
H272 C244 0.929 . S
H273 C245 0.931 . S
H274 C247 0.930 . S
H275 C248 0.930 . S
H276 C253 0.929 . S
H277 C254 0.931 . S
H278 C256 0.930 . S
H279 C257 0.930 . S
Tb280 C282 2.809 1_554 S
Tb280 O300 2.484 1_554 S
Tb280 O301 2.440 1_554 S
Tb280 O302 2.658 . S
Tb280 O303 2.409 . S
Tb280 O304 2.378 1_554 S
Tb280 O308 2.325 1_554 S
Tb280 O311 2.341 . S
Tb281 C291 2.809 1_556 S
Tb281 O302 2.325 1_556 S
Tb281 O305 2.341 . S
Tb281 O306 2.484 1_556 S
Tb281 O307 2.440 1_556 S
Tb281 O308 2.658 . S
Tb281 O309 2.409 . S
Tb281 O310 2.378 1_556 S
C282 Tb280 2.809 1_556 S
C282 C283 1.514 . S
C282 O300 1.248 . S
C282 O301 1.266 . S
C283 C282 1.514 . S
C283 C284 1.359 . S
C283 C288 1.348 . S
C284 C283 1.359 . S
C284 C285 1.380 . S
C284 H312 0.929 . S
C285 C284 1.380 . S
C285 C286 1.347 . S
C285 H313 0.931 . S
C286 C285 1.347 . S
C286 C287 1.369 . S
C287 C286 1.369 . S
C287 C288 1.408 . S
C287 H314 0.930 . S
C288 C283 1.348 . S
C288 C287 1.408 . S
C288 H315 0.930 . S
C289 O302 1.281 . S
C289 O303 1.254 . S
C290 O304 1.236 . S
C290 O305 1.266 . S
C291 Tb281 2.809 1_554 S
C291 C292 1.514 . S
C291 O306 1.248 . S
C291 O307 1.266 . S
C292 C291 1.514 . S
C292 C293 1.359 . S
C292 C297 1.348 . S
C293 C292 1.359 . S
C293 C294 1.380 . S
C293 H316 0.929 . S
C294 C293 1.380 . S
C294 C295 1.347 . S
C294 H317 0.931 . S
C295 C294 1.347 . S
C295 C296 1.369 . S
C296 C295 1.369 . S
C296 C297 1.408 . S
C296 H318 0.930 . S
C297 C292 1.348 . S
C297 C296 1.408 . S
C297 H319 0.930 . S
C298 O308 1.281 . S
C298 O309 1.254 . S
C299 O310 1.236 . S
C299 O311 1.266 . S
O300 Tb280 2.484 1_556 S
O300 C282 1.248 . S
O301 Tb280 2.440 1_556 S
O301 C282 1.266 . S
O302 Tb280 2.658 . S
O302 Tb281 2.325 1_554 S
O302 C289 1.281 . S
O303 Tb280 2.409 . S
O303 C289 1.254 . S
O304 Tb280 2.378 1_556 S
O304 C290 1.236 . S
O305 Tb281 2.341 . S
O305 C290 1.266 . S
O306 Tb281 2.484 1_554 S
O306 C291 1.248 . S
O307 Tb281 2.440 1_554 S
O307 C291 1.266 . S
O308 Tb280 2.325 1_556 S
O308 Tb281 2.658 . S
O308 C298 1.281 . S
O309 Tb281 2.409 . S
O309 C298 1.254 . S
O310 Tb281 2.378 1_554 S
O310 C299 1.236 . S
O311 Tb280 2.341 . S
O311 C299 1.266 . S
H312 C284 0.929 . S
H313 C285 0.931 . S
H314 C287 0.930 . S
H315 C288 0.930 . S
H316 C293 0.929 . S
H317 C294 0.931 . S
H318 C296 0.930 . S
H319 C297 0.930 . S
C320 C321 1.363 . S
C320 C326 1.379 . S
C320 N328 1.356 . S
C321 C320 1.363 . S
C321 C327 1.363 . S
C322 C323 1.363 . S
C322 C327 1.379 . S
C322 N329 1.356 . S
C323 C322 1.363 . S
C323 C326 1.363 . S
N324 C326 1.356 . S
N324 H336 0.984 . S
N324 H337 0.985 . S
N325 C327 1.356 . S
N325 H330 0.984 . S
N325 H331 0.985 . S
C326 C320 1.379 . S
C326 C323 1.363 . S
C326 N324 1.356 . S
C327 C321 1.363 . S
C327 C322 1.379 . S
C327 N325 1.356 . S
N328 C320 1.356 . S
N328 H334 0.984 . S
N328 H335 0.984 . S
N329 C322 1.356 . S
N329 H332 0.984 . S
N329 H333 0.985 . S
H330 N325 0.984 . S
H331 N325 0.985 . S
H332 N329 0.984 . S
H333 N329 0.985 . S
H334 N328 0.984 . S
H335 N328 0.984 . S
H336 N324 0.984 . S
H337 N324 0.985 . S
C338 C339 1.363 . S
C338 C344 1.379 . S
C338 N346 1.356 . S
C339 C338 1.363 . S
C339 C345 1.363 . S
C340 C341 1.363 . S
C340 C345 1.379 . S
C340 N347 1.356 . S
C341 C340 1.363 . S
C341 C344 1.363 . S
N342 C344 1.356 . S
N342 H354 0.984 . S
N342 H355 0.985 . S
N343 C345 1.356 . S
N343 H348 0.984 . S
N343 H349 0.985 . S
C344 C338 1.379 . S
C344 C341 1.363 . S
C344 N342 1.356 . S
C345 C339 1.363 . S
C345 C340 1.379 . S
C345 N343 1.356 . S
N346 C338 1.356 . S
N346 H352 0.984 . S
N346 H353 0.984 . S
N347 C340 1.356 . S
N347 H350 0.984 . S
N347 H351 0.985 . S
H348 N343 0.984 . S
H349 N343 0.985 . S
H350 N347 0.984 . S
H351 N347 0.985 . S
H352 N346 0.984 . S
H353 N346 0.984 . S
H354 N342 0.984 . S
H355 N342 0.985 . S
C356 C357 1.363 . S
C356 C362 1.379 . S
C356 N364 1.356 . S
C357 C356 1.363 . S
C357 C363 1.363 . S
C358 C359 1.363 . S
C358 C363 1.379 . S
C358 N365 1.356 . S
C359 C358 1.363 . S
C359 C362 1.363 . S
N360 C362 1.356 . S
N360 H372 0.984 . S
N360 H373 0.985 . S
N361 C363 1.356 . S
N361 H366 0.984 . S
N361 H367 0.985 . S
C362 C356 1.379 . S
C362 C359 1.363 . S
C362 N360 1.356 . S
C363 C357 1.363 . S
C363 C358 1.379 . S
C363 N361 1.356 . S
N364 C356 1.356 . S
N364 H370 0.984 . S
N364 H371 0.984 . S
N365 C358 1.356 . S
N365 H368 0.984 . S
N365 H369 0.985 . S
H366 N361 0.984 . S
H367 N361 0.985 . S
H368 N365 0.984 . S
H369 N365 0.985 . S
H370 N364 0.984 . S
H371 N364 0.984 . S
H372 N360 0.984 . S
H373 N360 0.985 . S
C374 C375 1.363 . S
C374 C380 1.379 . S
C374 N382 1.356 . S
C375 C374 1.363 . S
C375 C381 1.363 . S
C376 C377 1.363 . S
C376 C381 1.379 . S
C376 N383 1.356 . S
C377 C376 1.363 . S
C377 C380 1.363 . S
N378 C380 1.356 . S
N378 H390 0.984 . S
N378 H391 0.985 . S
N379 C381 1.356 . S
N379 H384 0.984 . S
N379 H385 0.985 . S
C380 C374 1.379 . S
C380 C377 1.363 . S
C380 N378 1.356 . S
C381 C375 1.363 . S
C381 C376 1.379 . S
C381 N379 1.356 . S
N382 C374 1.356 . S
N382 H388 0.984 . S
N382 H389 0.984 . S
N383 C376 1.356 . S
N383 H386 0.984 . S
N383 H387 0.985 . S
H384 N379 0.984 . S
H385 N379 0.985 . S
H386 N383 0.984 . S
H387 N383 0.985 . S
H388 N382 0.984 . S
H389 N382 0.984 . S
H390 N378 0.984 . S
H391 N378 0.985 . S
C392 C393 1.363 . S
C392 C398 1.379 1_565 S
C392 N400 1.356 . S
C393 C392 1.363 . S
C393 C399 1.363 . S
C394 C395 1.363 . S
C394 C399 1.379 1_545 S
C394 N401 1.356 . S
C395 C394 1.363 . S
C395 C398 1.363 . S
N396 C398 1.356 . S
N396 H408 0.984 . S
N396 H409 0.985 . S
N397 C399 1.356 . S
N397 H402 0.984 . S
N397 H403 0.985 . S
C398 C392 1.379 1_545 S
C398 C395 1.363 . S
C398 N396 1.356 . S
C399 C393 1.363 . S
C399 C394 1.379 1_565 S
C399 N397 1.356 . S
N400 C392 1.356 . S
N400 H406 0.984 . S
N400 H407 0.984 . S
N401 C394 1.356 . S
N401 H404 0.984 . S
N401 H405 0.985 . S
H402 N397 0.984 . S
H403 N397 0.985 . S
H404 N401 0.984 . S
H405 N401 0.985 . S
H406 N400 0.984 . S
H407 N400 0.984 . S
H408 N396 0.984 . S
H409 N396 0.985 . S
C410 C411 1.363 . S
C410 C416 1.379 . S
C410 N418 1.356 . S
C411 C410 1.363 . S
C411 C417 1.363 . S
C412 C413 1.363 . S
C412 C417 1.379 . S
C412 N419 1.356 . S
C413 C412 1.363 . S
C413 C416 1.363 . S
N414 C416 1.356 . S
N414 H426 0.984 . S
N414 H427 0.985 . S
N415 C417 1.356 . S
N415 H420 0.984 . S
N415 H421 0.985 . S
C416 C410 1.379 . S
C416 C413 1.363 . S
C416 N414 1.356 . S
C417 C411 1.363 . S
C417 C412 1.379 . S
C417 N415 1.356 . S
N418 C410 1.356 . S
N418 H424 0.984 . S
N418 H425 0.984 . S
N419 C412 1.356 . S
N419 H422 0.984 . S
N419 H423 0.985 . S
H420 N415 0.984 . S
H421 N415 0.985 . S
H422 N419 0.984 . S
H423 N419 0.985 . S
H424 N418 0.984 . S
H425 N418 0.984 . S
H426 N414 0.984 . S
H427 N414 0.985 . S
C428 C429 1.363 . S
C428 C434 1.379 1_565 S
C428 N436 1.356 . S
C429 C428 1.363 . S
C429 C435 1.363 . S
C430 C431 1.363 . S
C430 C435 1.379 1_545 S
C430 N437 1.356 . S
C431 C430 1.363 . S
C431 C434 1.363 . S
N432 C434 1.356 . S
N432 H444 0.984 . S
N432 H445 0.985 . S
N433 C435 1.356 . S
N433 H438 0.984 . S
N433 H439 0.985 . S
C434 C428 1.379 1_545 S
C434 C431 1.363 . S
C434 N432 1.356 . S
C435 C429 1.363 . S
C435 C430 1.379 1_565 S
C435 N433 1.356 . S
N436 C428 1.356 . S
N436 H442 0.984 . S
N436 H443 0.984 . S
N437 C430 1.356 . S
N437 H440 0.984 . S
N437 H441 0.985 . S
H438 N433 0.984 . S
H439 N433 0.985 . S
H440 N437 0.984 . S
H441 N437 0.985 . S
H442 N436 0.984 . S
H443 N436 0.984 . S
H444 N432 0.984 . S
H445 N432 0.985 . S
C446 C447 1.363 . S
C446 C452 1.379 . S
C446 N454 1.356 . S
C447 C446 1.363 . S
C447 C453 1.363 . S
C448 C449 1.363 . S
C448 C453 1.379 . S
C448 N455 1.356 . S
C449 C448 1.363 . S
C449 C452 1.363 . S
N450 C452 1.356 . S
N450 H462 0.984 . S
N450 H463 0.985 . S
N451 C453 1.356 . S
N451 H456 0.984 . S
N451 H457 0.985 . S
C452 C446 1.379 . S
C452 C449 1.363 . S
C452 N450 1.356 . S
C453 C447 1.363 . S
C453 C448 1.379 . S
C453 N451 1.356 . S
N454 C446 1.356 . S
N454 H460 0.984 . S
N454 H461 0.984 . S
N455 C448 1.356 . S
N455 H458 0.984 . S
N455 H459 0.985 . S
H456 N451 0.984 . S
H457 N451 0.985 . S
H458 N455 0.984 . S
H459 N455 0.985 . S
H460 N454 0.984 . S
H461 N454 0.984 . S
H462 N450 0.984 . S
H463 N450 0.985 . S
C464 C465 1.363 . S
C464 C470 1.379 . S
C464 N472 1.356 . S
C465 C464 1.363 . S
C465 C471 1.363 1_554 S
C466 C467 1.369 . S
C466 C471 1.379 . S
C466 N473 1.356 . S
C467 C466 1.369 . S
C467 C470 1.357 1_556 S
N468 C470 1.356 . S
N468 H480 0.984 . S
N468 H481 0.985 . S
N469 C471 1.356 . S
N469 H474 0.984 . S
N469 H475 0.985 . S
C470 C464 1.379 . S
C470 C467 1.357 1_554 S
C470 N468 1.356 . S
C471 C465 1.363 1_556 S
C471 C466 1.379 . S
C471 N469 1.356 . S
N472 C464 1.356 . S
N472 H478 0.984 . S
N472 H479 0.984 . S
N473 C466 1.356 . S
N473 H476 0.984 . S
N473 H477 0.985 . S
H474 N469 0.984 . S
H475 N469 0.985 . S
H476 N473 0.984 . S
H477 N473 0.985 . S
H478 N472 0.984 . S
H479 N472 0.984 . S
H480 N468 0.984 . S
H481 N468 0.985 . S
C482 C483 1.363 . S
C482 C488 1.379 1_565 S
C482 N490 1.356 . S
C483 C482 1.363 . S
C483 C489 1.363 1_554 S
C484 C485 1.369 . S
C484 C489 1.379 1_545 S
C484 N491 1.356 . S
C485 C484 1.369 . S
C485 C488 1.357 1_556 S
N486 C488 1.356 . S
N486 H498 0.984 . S
N486 H499 0.985 . S
N487 C489 1.356 . S
N487 H492 0.984 . S
N487 H493 0.985 . S
C488 C482 1.379 1_545 S
C488 C485 1.357 1_554 S
C488 N486 1.356 . S
C489 C483 1.363 1_556 S
C489 C484 1.379 1_565 S
C489 N487 1.356 . S
N490 C482 1.356 . S
N490 H496 0.984 . S
N490 H497 0.984 . S
N491 C484 1.356 . S
N491 H494 0.984 . S
N491 H495 0.985 . S
H492 N487 0.984 . S
H493 N487 0.985 . S
H494 N491 0.984 . S
H495 N491 0.985 . S
H496 N490 0.984 . S
H497 N490 0.984 . S
H498 N486 0.984 . S
H499 N486 0.985 . S
C500 C501 1.363 . S
C500 C506 1.379 . S
C500 N508 1.356 . S
C501 C500 1.363 . S
C501 C507 1.363 1_554 S
C502 C503 1.363 . S
C502 C507 1.379 . S
C502 N509 1.356 . S
C503 C502 1.363 . S
C503 C506 1.363 1_556 S
N504 C506 1.356 . S
N504 H516 0.984 . S
N504 H517 0.985 . S
N505 C507 1.356 . S
N505 H510 0.984 . S
N505 H511 0.985 . S
C506 C500 1.379 . S
C506 C503 1.363 1_554 S
C506 N504 1.356 . S
C507 C501 1.363 1_556 S
C507 C502 1.379 . S
C507 N505 1.356 . S
N508 C500 1.356 . S
N508 H514 0.984 . S
N508 H515 0.984 . S
N509 C502 1.356 . S
N509 H512 0.984 . S
N509 H513 0.985 . S
H510 N505 0.984 . S
H511 N505 0.985 . S
H512 N509 0.984 . S
H513 N509 0.985 . S
H514 N508 0.984 . S
H515 N508 0.984 . S
H516 N504 0.984 . S
H517 N504 0.985 . S
C518 C519 1.363 1_556 S
C518 C524 1.379 1_545 S
C518 N526 1.356 . S
C519 C518 1.363 1_554 S
C519 C525 1.363 . S
C520 C521 1.363 1_554 S
C520 C525 1.379 1_565 S
C520 N527 1.356 . S
C521 C520 1.363 1_556 S
C521 C524 1.363 . S
N522 C524 1.356 . S
N522 H534 0.984 . S
N522 H535 0.985 . S
N523 C525 1.356 . S
N523 H528 0.984 . S
N523 H529 0.985 . S
C524 C518 1.379 1_565 S
C524 C521 1.363 . S
C524 N522 1.356 . S
C525 C519 1.363 . S
C525 C520 1.379 1_545 S
C525 N523 1.356 . S
N526 C518 1.356 . S
N526 H532 0.984 . S
N526 H533 0.984 . S
N527 C520 1.356 . S
N527 H530 0.984 . S
N527 H531 0.985 . S
H528 N523 0.984 . S
H529 N523 0.985 . S
H530 N527 0.984 . S
H531 N527 0.985 . S
H532 N526 0.984 . S
H533 N526 0.984 . S
H534 N522 0.984 . S
H535 N522 0.985 . S
C536 C537 1.363 1_556 S
C536 C542 1.379 . S
C536 N544 1.356 1_556 S
C537 C536 1.363 1_554 S
C537 C543 1.363 1_554 S
C538 C539 1.363 . S
C538 C543 1.379 . S
C538 N545 1.356 . S
C539 C538 1.363 . S
C539 C542 1.363 . S
N540 C542 1.356 . S
N540 H552 0.984 . S
N540 H553 0.985 . S
N541 C543 1.356 1_554 S
N541 H546 0.984 . S
N541 H547 0.985 1_554 S
C542 C536 1.379 . S
C542 C539 1.363 . S
C542 N540 1.356 . S
C543 C537 1.363 1_556 S
C543 C538 1.379 . S
C543 N541 1.356 1_556 S
N544 C536 1.356 1_554 S
N544 H550 0.984 . S
N544 H551 0.984 . S
N545 C538 1.356 . S
N545 H548 0.984 . S
N545 H549 0.985 . S
H546 N541 0.984 . S
H547 N541 0.985 1_556 S
H548 N545 0.984 . S
H549 N545 0.985 . S
H550 N544 0.984 . S
H551 N544 0.984 . S
H552 N540 0.984 . S
H553 N540 0.985 . S
C554 C555 1.363 1_556 S
C554 C560 1.379 . S
C554 N562 1.356 1_556 S
C555 C554 1.363 1_554 S
C555 C561 1.363 1_554 S
C556 C557 1.363 . S
C556 C561 1.379 . S
C556 N563 1.356 . S
C557 C556 1.363 . S
C557 C560 1.363 . S
N558 C560 1.356 . S
N558 H570 0.984 . S
N558 H571 0.985 . S
N559 C561 1.356 1_554 S
N559 H564 0.984 . S
N559 H565 0.985 . S
C560 C554 1.379 . S
C560 C557 1.363 . S
C560 N558 1.356 . S
C561 C555 1.363 1_556 S
C561 C556 1.379 . S
C561 N559 1.356 1_556 S
N562 C554 1.356 1_554 S
N562 H568 0.984 1_554 S
N562 H569 0.984 . S
N563 C556 1.356 . S
N563 H566 0.984 . S
N563 H567 0.985 . S
H564 N559 0.984 . S
H565 N559 0.985 . S
H566 N563 0.984 . S
H567 N563 0.985 . S
H568 N562 0.984 1_556 S
H569 N562 0.984 . S
H570 N558 0.984 . S
H571 N558 0.985 . S
C572 C573 1.363 . S
C572 C578 1.379 . S
C572 N580 1.356 . S
C573 C572 1.363 . S
C573 C579 1.363 . S
C574 C575 1.363 1_554 S
C574 C579 1.379 . S
C574 N581 1.356 1_554 S
C575 C574 1.363 1_556 S
C575 C578 1.363 1_556 S
N576 C578 1.356 1_556 S
N576 H588 0.984 1_556 S
N576 H589 0.985 . S
N577 C579 1.356 . S
N577 H582 0.984 . S
N577 H583 0.985 . S
C578 C572 1.379 . S
C578 C575 1.363 1_554 S
C578 N576 1.356 1_554 S
C579 C573 1.363 . S
C579 C574 1.379 . S
C579 N577 1.356 . S
N580 C572 1.356 . S
N580 H586 0.984 . S
N580 H587 0.984 . S
N581 C574 1.356 1_556 S
N581 H584 0.984 . S
N581 H585 0.985 . S
H582 N577 0.984 . S
H583 N577 0.985 . S
H584 N581 0.984 . S
H585 N581 0.985 . S
H586 N580 0.984 . S
H587 N580 0.984 . S
H588 N576 0.984 1_554 S
H589 N576 0.985 . S
C590 C591 1.363 1_554 S
C590 C596 1.379 . S
C590 N598 1.356 1_554 S
C591 C590 1.363 1_556 S
C591 C597 1.363 1_556 S
C592 C593 1.363 . S
C592 C597 1.379 . S
C592 N599 1.356 . S
C593 C592 1.363 . S
C593 C596 1.363 . S
N594 C596 1.356 . S
N594 H606 0.984 . S
N594 H607 0.985 . S
N595 C597 1.356 1_556 S
N595 H600 0.984 . S
N595 H601 0.985 . S
C596 C590 1.379 . S
C596 C593 1.363 . S
C596 N594 1.356 . S
C597 C591 1.363 1_554 S
C597 C592 1.379 . S
C597 N595 1.356 1_554 S
N598 C590 1.356 1_556 S
N598 H604 0.984 1_556 S
N598 H605 0.984 . S
N599 C592 1.356 . S
N599 H602 0.984 . S
N599 H603 0.985 . S
H600 N595 0.984 . S
H601 N595 0.985 . S
H602 N599 0.984 . S
H603 N599 0.985 . S
H604 N598 0.984 1_554 S
H605 N598 0.984 . S
H606 N594 0.984 . S
H607 N594 0.985 . S
C608 C609 1.363 . S
C608 C614 1.379 . S
C608 N616 1.356 . S
C609 C608 1.363 . S
C609 C615 1.363 . S
C610 C611 1.363 . S
C610 C615 1.379 . S
C610 N617 1.356 . S
C611 C610 1.363 . S
C611 C614 1.363 . S
N612 C614 1.356 . S
N612 H624 0.984 . S
N612 H625 0.985 . S
N613 C615 1.356 . S
N613 H618 0.984 . S
N613 H619 0.985 . S
C614 C608 1.379 . S
C614 C611 1.363 . S
C614 N612 1.356 . S
C615 C609 1.363 . S
C615 C610 1.379 . S
C615 N613 1.356 . S
N616 C608 1.356 . S
N616 H622 0.984 . S
N616 H623 0.984 . S
N617 C610 1.356 . S
N617 H620 0.984 . S
N617 H621 0.985 . S
H618 N613 0.984 . S
H619 N613 0.985 . S
H620 N617 0.984 . S
H621 N617 0.985 . S
H622 N616 0.984 . S
H623 N616 0.984 . S
H624 N612 0.984 . S
H625 N612 0.985 . S
C626 C627 1.363 . S
C626 C632 1.379 . S
C626 N634 1.356 . S
C627 C626 1.363 . S
C627 C633 1.363 . S
C628 C629 1.363 . S
C628 C633 1.379 . S
C628 N635 1.356 . S
C629 C628 1.363 . S
C629 C632 1.363 . S
N630 C632 1.356 . S
N630 H642 0.984 . S
N630 H643 0.985 . S
N631 C633 1.356 . S
N631 H636 0.984 . S
N631 H637 0.985 . S
C632 C626 1.379 . S
C632 C629 1.363 . S
C632 N630 1.356 . S
C633 C627 1.363 . S
C633 C628 1.379 . S
C633 N631 1.356 . S
N634 C626 1.356 . S
N634 H640 0.984 . S
N634 H641 0.984 . S
N635 C628 1.356 . S
N635 H638 0.984 . S
N635 H639 0.985 . S
H636 N631 0.984 . S
H637 N631 0.985 . S
H638 N635 0.984 . S
H639 N635 0.985 . S
H640 N634 0.984 . S
H641 N634 0.984 . S
H642 N630 0.984 . S
H643 N630 0.985 . S
C644 C645 1.363 . S
C644 C650 1.379 . S
C644 N652 1.356 . S
C645 C644 1.363 . S
C645 C651 1.363 . S
C646 C647 1.363 . S
C646 C651 1.379 . S
C646 N653 1.356 . S
C647 C646 1.363 . S
C647 C650 1.363 . S
N648 C650 1.356 . S
N648 H660 0.984 . S
N648 H661 0.985 . S
N649 C651 1.356 . S
N649 H654 0.984 . S
N649 H655 0.985 . S
C650 C644 1.379 . S
C650 C647 1.363 . S
C650 N648 1.356 . S
C651 C645 1.363 . S
C651 C646 1.379 . S
C651 N649 1.356 . S
N652 C644 1.356 . S
N652 H658 0.984 . S
N652 H659 0.984 . S
N653 C646 1.356 . S
N653 H656 0.984 . S
N653 H657 0.985 . S
H654 N649 0.984 . S
H655 N649 0.985 . S
H656 N653 0.984 . S
H657 N653 0.985 . S
H658 N652 0.984 . S
H659 N652 0.984 . S
H660 N648 0.984 . S
H661 N648 0.985 . S
C662 C663 1.363 . S
C662 C668 1.379 . S
C662 N670 1.356 . S
C663 C662 1.363 . S
C663 C669 1.363 . S
C664 C665 1.363 . S
C664 C669 1.379 . S
C664 N671 1.356 . S
C665 C664 1.363 . S
C665 C668 1.363 . S
N666 C668 1.356 . S
N666 H678 0.984 . S
N666 H679 0.985 . S
N667 C669 1.356 . S
N667 H672 0.984 . S
N667 H673 0.985 . S
C668 C662 1.379 . S
C668 C665 1.363 . S
C668 N666 1.356 . S
C669 C663 1.363 . S
C669 C664 1.379 . S
C669 N667 1.356 . S
N670 C662 1.356 . S
N670 H676 0.984 . S
N670 H677 0.984 . S
N671 C664 1.356 . S
N671 H674 0.984 . S
N671 H675 0.985 . S
H672 N667 0.984 . S
H673 N667 0.985 . S
H674 N671 0.984 . S
H675 N671 0.985 . S
H676 N670 0.984 . S
H677 N670 0.984 . S
H678 N666 0.984 . S
H679 N666 0.985 . S
C680 C681 1.363 . S
C680 C686 1.379 1_455 S
C680 N688 1.356 1_554 S
C681 C680 1.363 . S
C681 C687 1.363 . S
C682 C683 1.363 . S
C682 C687 1.379 1_655 S
C682 N689 1.356 . S
C683 C682 1.363 . S
C683 C686 1.363 . S
N684 C686 1.356 1_556 S
N684 H696 0.984 . S
N684 H697 0.985 . S
N685 C687 1.356 . S
N685 H690 0.984 . S
N685 H691 0.985 . S
C686 C680 1.379 1_655 S
C686 C683 1.363 . S
C686 N684 1.356 1_554 S
C687 C681 1.363 . S
C687 C682 1.379 1_455 S
C687 N685 1.356 . S
N688 C680 1.356 1_556 S
N688 H694 0.984 . S
N688 H695 0.984 . S
N689 C682 1.356 . S
N689 H692 0.984 . S
N689 H693 0.985 . S
H690 N685 0.984 . S
H691 N685 0.985 . S
H692 N689 0.984 . S
H693 N689 0.985 . S
H694 N688 0.984 . S
H695 N688 0.984 . S
H696 N684 0.984 . S
H697 N684 0.985 . S
C698 C699 1.363 . S
C698 C704 1.379 1_655 S
C698 N706 1.356 1_556 S
C699 C698 1.363 . S
C699 C705 1.363 . S
C700 C701 1.363 . S
C700 C705 1.379 1_455 S
C700 N707 1.356 . S
C701 C700 1.363 . S
C701 C704 1.363 . S
N702 C704 1.356 1_554 S
N702 H714 0.984 . S
N702 H715 0.985 . S
N703 C705 1.356 . S
N703 H708 0.984 . S
N703 H709 0.985 . S
C704 C698 1.379 1_455 S
C704 C701 1.363 . S
C704 N702 1.356 1_556 S
C705 C699 1.363 . S
C705 C700 1.379 1_655 S
C705 N703 1.356 . S
N706 C698 1.356 1_554 S
N706 H712 0.984 . S
N706 H713 0.984 . S
N707 C700 1.356 . S
N707 H710 0.984 . S
N707 H711 0.985 . S
H708 N703 0.984 . S
H709 N703 0.985 . S
H710 N707 0.984 . S
H711 N707 0.985 . S
H712 N706 0.984 . S
H713 N706 0.984 . S
H714 N702 0.984 . S
H715 N702 0.985 . S
C716 C717 1.363 . S
C716 C722 1.379 . S
C716 N724 1.356 . S
C717 C716 1.363 . S
C717 C723 1.363 . S
C718 C719 1.363 . S
C718 C723 1.379 . S
C718 N725 1.356 . S
C719 C718 1.363 . S
C719 C722 1.363 . S
N720 C722 1.356 . S
N720 H732 0.984 . S
N720 H733 0.985 . S
N721 C723 1.356 . S
N721 H726 0.984 . S
N721 H727 0.985 . S
C722 C716 1.379 . S
C722 C719 1.363 . S
C722 N720 1.356 . S
C723 C717 1.363 . S
C723 C718 1.379 . S
C723 N721 1.356 . S
N724 C716 1.356 . S
N724 H730 0.984 . S
N724 H731 0.984 . S
N725 C718 1.356 . S
N725 H728 0.984 . S
N725 H729 0.985 . S
H726 N721 0.984 . S
H727 N721 0.985 . S
H728 N725 0.984 . S
H729 N725 0.985 . S
H730 N724 0.984 . S
H731 N724 0.984 . S
H732 N720 0.984 . S
H733 N720 0.985 . S
C734 C735 1.363 . S
C734 C740 1.379 . S
C734 N742 1.356 . S
C735 C734 1.363 . S
C735 C741 1.363 . S
C736 C737 1.363 . S
C736 C741 1.379 . S
C736 N743 1.356 . S
C737 C736 1.363 . S
C737 C740 1.363 . S
N738 C740 1.356 . S
N738 H750 0.984 . S
N738 H751 0.985 . S
N739 C741 1.356 . S
N739 H744 0.984 . S
N739 H745 0.985 . S
C740 C734 1.379 . S
C740 C737 1.363 . S
C740 N738 1.356 . S
C741 C735 1.363 . S
C741 C736 1.379 . S
C741 N739 1.356 . S
N742 C734 1.356 . S
N742 H748 0.984 . S
N742 H749 0.984 . S
N743 C736 1.356 . S
N743 H746 0.984 . S
N743 H747 0.985 . S
H744 N739 0.984 . S
H745 N739 0.985 . S
H746 N743 0.984 . S
H747 N743 0.985 . S
H748 N742 0.984 . S
H749 N742 0.984 . S
H750 N738 0.984 . S
H751 N738 0.985 . S
C321 C6 1.735 . S
C323 C286 1.735 . S
C339 C246 1.735 . S
C341 C46 1.735 . S
C357 C206 1.735 . S
C359 C86 1.735 . S
C375 C166 1.735 . S
C377 C126 1.735 . S
C393 C89 1.859 . S
C395 C9 1.859 . S
C411 C49 1.859 . S
C413 C129 1.859 . S
C429 C138 1.380 . S
C431 C58 1.380 . S
C447 C98 1.380 . S
C449 C18 1.380 . S
C465 C169 1.667 1_554 S
C467 C249 1.666 1_556 S
C483 C209 1.667 1_554 S
C485 C289 1.666 1_556 S
C501 C298 1.192 1_554 S
C503 C218 1.192 1_556 S
C519 C258 1.192 1_554 S
C521 C178 1.192 1_556 S
C537 C19 2.091 . S
C539 C10 2.091 . S
C555 C59 2.091 . S
C557 C50 2.091 . S
C573 C90 2.091 . S
C575 C99 2.091 . S
C591 C139 2.091 . S
C593 C130 2.091 . S
C609 C170 2.090 . S
C611 C179 2.090 . S
C627 C219 2.090 . S
C629 C210 2.090 . S
C645 C259 2.090 . S
C647 C250 2.090 . S
C663 C299 2.090 . S
C665 C290 2.090 . S
C681 C15 2.286 . S
C683 C55 2.286 . S
C699 C135 2.286 . S
C701 C95 2.286 . S
C717 C175 2.287 . S
C719 C215 2.287 . S
C735 C295 2.287 . S
C737 C255 2.287 . S
