# Generated by pormake.
# Topology uot, (4)-cn, num edge types: 1
# Building blocks:
#     Node 0, Type 0, BuildingBlock: AZAVOO_clean_sbu_0, # of connection points: 4
#     Node 1, Type 0, BuildingBlock: AZAVOO_clean_sbu_0, # of connection points: 4
#     Node 2, Type 0, BuildingBlock: AZAVOO_clean_sbu_0, # of connection points: 4
#     Node 3, Type 0, BuildingBlock: AZAVOO_clean_sbu_0, # of connection points: 4
#     Node 4, Type 0, BuildingBlock: AZAVOO_clean_sbu_0, # of connection points: 4
#     Node 5, Type 0, BuildingBlock: AZAVOO_clean_sbu_0, # of connection points: 4
#     Node 6, Type 0, BuildingBlock: AZAVOO_clean_sbu_0, # of connection points: 4
#     Node 7, Type 0, BuildingBlock: AZAVOO_clean_sbu_0, # of connection points: 4
#     Node 8, Type 0, BuildingBlock: AZAVOO_clean_sbu_0, # of connection points: 4
#     Node 9, Type 0, BuildingBlock: AZAVOO_clean_sbu_0, # of connection points: 4
#     Node 10, Type 0, BuildingBlock: AZAVOO_clean_sbu_0, # of connection points: 4
#     Node 11, Type 0, BuildingBlock: AZAVOO_clean_sbu_0, # of connection points: 4
#     Node 12, Type 0, BuildingBlock: AZAVOO_clean_sbu_0, # of connection points: 4
#     Node 13, Type 0, BuildingBlock: AZAVOO_clean_sbu_0, # of connection points: 4
#     Node 14, Type 0, BuildingBlock: AZAVOO_clean_sbu_0, # of connection points: 4
#     Node 15, Type 0, BuildingBlock: AZAVOO_clean_sbu_0, # of connection points: 4
#     Edge 16, Type (0, 0), BuildingBlock: CIFDUS_clean_linker_0, # of connection points: 2
#     Edge 17, Type (0, 0), BuildingBlock: CIFDUS_clean_linker_0, # of connection points: 2
#     Edge 18, Type (0, 0), BuildingBlock: CIFDUS_clean_linker_0, # of connection points: 2
#     Edge 19, Type (0, 0), BuildingBlock: CIFDUS_clean_linker_0, # of connection points: 2
#     Edge 20, Type (0, 0), BuildingBlock: CIFDUS_clean_linker_0, # of connection points: 2
#     Edge 21, Type (0, 0), BuildingBlock: CIFDUS_clean_linker_0, # of connection points: 2
#     Edge 22, Type (0, 0), BuildingBlock: CIFDUS_clean_linker_0, # of connection points: 2
#     Edge 23, Type (0, 0), BuildingBlock: CIFDUS_clean_linker_0, # of connection points: 2
#     Edge 24, Type (0, 0), BuildingBlock: CIFDUS_clean_linker_0, # of connection points: 2
#     Edge 25, Type (0, 0), BuildingBlock: CIFDUS_clean_linker_0, # of connection points: 2
#     Edge 26, Type (0, 0), BuildingBlock: CIFDUS_clean_linker_0, # of connection points: 2
#     Edge 27, Type (0, 0), BuildingBlock: CIFDUS_clean_linker_0, # of connection points: 2
#     Edge 28, Type (0, 0), BuildingBlock: CIFDUS_clean_linker_0, # of connection points: 2
#     Edge 29, Type (0, 0), BuildingBlock: CIFDUS_clean_linker_0, # of connection points: 2
#     Edge 30, Type (0, 0), BuildingBlock: CIFDUS_clean_linker_0, # of connection points: 2
#     Edge 31, Type (0, 0), BuildingBlock: CIFDUS_clean_linker_0, # of connection points: 2
#     Edge 32, Type (0, 0), BuildingBlock: CIFDUS_clean_linker_0, # of connection points: 2
#     Edge 33, Type (0, 0), BuildingBlock: CIFDUS_clean_linker_0, # of connection points: 2
#     Edge 34, Type (0, 0), BuildingBlock: CIFDUS_clean_linker_0, # of connection points: 2
#     Edge 35, Type (0, 0), BuildingBlock: CIFDUS_clean_linker_0, # of connection points: 2
#     Edge 36, Type (0, 0), BuildingBlock: CIFDUS_clean_linker_0, # of connection points: 2
#     Edge 37, Type (0, 0), BuildingBlock: CIFDUS_clean_linker_0, # of connection points: 2
#     Edge 38, Type (0, 0), BuildingBlock: CIFDUS_clean_linker_0, # of connection points: 2
#     Edge 39, Type (0, 0), BuildingBlock: CIFDUS_clean_linker_0, # of connection points: 2
#     Edge 40, Type (0, 0), BuildingBlock: CIFDUS_clean_linker_0, # of connection points: 2
#     Edge 41, Type (0, 0), BuildingBlock: CIFDUS_clean_linker_0, # of connection points: 2
#     Edge 42, Type (0, 0), BuildingBlock: CIFDUS_clean_linker_0, # of connection points: 2
#     Edge 43, Type (0, 0), BuildingBlock: CIFDUS_clean_linker_0, # of connection points: 2
#     Edge 44, Type (0, 0), BuildingBlock: CIFDUS_clean_linker_0, # of connection points: 2
#     Edge 45, Type (0, 0), BuildingBlock: CIFDUS_clean_linker_0, # of connection points: 2
#     Edge 46, Type (0, 0), BuildingBlock: CIFDUS_clean_linker_0, # of connection points: 2
#     Edge 47, Type (0, 0), BuildingBlock: CIFDUS_clean_linker_0, # of connection points: 2
# Relax obj value: 0.217
# Max RMSD: 0.320
# Mean RMSD: 0.231
data_MOF--net-uot--node1-AZAVOO_clean_sbu_0--edge1-CIFDUS_clean_linker_0
_symmetry_space_group_name_H-M    P1
_symmetry_Int_Tables_number       1
_symmetry_cell_setting            triclinic
loop_
_symmetry_equiv_pos_as_xyz
'x, y, z'
_cell_length_a     42.833859
_cell_length_b     30.648496
_cell_length_c     35.878903
_cell_angle_alpha  89.839817
_cell_angle_beta   89.753894
_cell_angle_gamma 90.123091
loop_
_atom_site_label
_atom_site_type_symbol
_atom_site_fract_x
_atom_site_fract_y
_atom_site_fract_z
_atom_type_partial_charge
Mg0 Mg 0.17026 0.45199 0.32697 0.0
O1 O 0.15711 0.5135 0.29283 0.0
O2 O 0.18991 0.56552 0.31174 0.0
Mg3 Mg 0.22265 0.53858 0.35653 0.0
C4 C 0.16719 0.55281 0.29153 0.0
C5 C 0.1234 0.38323 0.31629 0.0
O6 O 0.1279 0.38792 0.35224 0.0
O7 O 0.21442 0.43895 0.29224 0.0
O8 O 0.24563 0.49024 0.31599 0.0
O9 O 0.13769 0.47273 0.37186 0.0
O10 O 0.18808 0.48833 0.37074 0.0
C11 C 0.24121 0.45723 0.29493 0.0
C12 C 0.16156 0.49055 0.3876 0.0
O13 O 0.13908 0.40685 0.29364 0.0
Mg14 Mg 0.48014 0.67295 0.6947 0.0
O15 O 0.45274 0.73651 0.69928 0.0
O16 O 0.48212 0.79322 0.68214 0.0
Mg17 Mg 0.52972 0.76458 0.6649 0.0
C18 C 0.45642 0.77739 0.69426 0.0
C19 C 0.43204 0.59809 0.71515 0.0
O20 O 0.45753 0.57511 0.72023 0.0
O21 O 0.47531 0.67284 0.63089 0.0
O22 O 0.50943 0.72595 0.61652 0.0
O23 O 0.49885 0.68482 0.75217 0.0
O24 O 0.52179 0.70667 0.70011 0.0
C25 C 0.49084 0.69537 0.60711 0.0
C26 C 0.52104 0.70649 0.73585 0.0
O27 O 0.43419 0.63731 0.7039 0.0
Mg28 Mg 0.81791 0.55343 0.31981 0.0
O29 O 0.84183 0.49912 0.28617 0.0
O30 O 0.81533 0.43798 0.29848 0.0
Mg31 Mg 0.77764 0.45196 0.3424 0.0
C32 C 0.83718 0.45834 0.28142 0.0
C33 C 0.85804 0.63271 0.30764 0.0
O34 O 0.8571 0.62819 0.34404 0.0
O35 O 0.77589 0.55412 0.28128 0.0
O36 O 0.74998 0.49552 0.30214 0.0
O37 O 0.84909 0.54184 0.368 0.0
O38 O 0.8032 0.51022 0.36063 0.0
C39 C 0.75162 0.52984 0.28186 0.0
C40 C 0.82767 0.51592 0.38073 0.0
O41 O 0.84331 0.60572 0.28737 0.0
Mg42 Mg 0.5242 0.32455 0.67311 0.0
O43 O 0.55067 0.25971 0.68082 0.0
O44 O 0.51993 0.20632 0.65982 0.0
Mg45 Mg 0.47386 0.23584 0.63923 0.0
C46 C 0.54538 0.21932 0.67459 0.0
C47 C 0.59079 0.35627 0.70598 0.0
O48 O 0.58971 0.32099 0.72681 0.0
O49 O 0.5328 0.32427 0.60978 0.0
O50 O 0.49764 0.27395 0.59257 0.0
O51 O 0.50031 0.31388 0.72898 0.0
O52 O 0.48186 0.29223 0.67491 0.0
C53 C 0.51783 0.30328 0.58478 0.0
C54 C 0.47899 0.29343 0.71037 0.0
O55 O 0.56866 0.36424 0.68342 0.0
Mg56 Mg 0.18821 0.56265 0.66527 0.0
O57 O 0.16327 0.50953 0.69973 0.0
O58 O 0.18838 0.44718 0.68869 0.0
Mg59 Mg 0.22624 0.4592 0.64445 0.0
C60 C 0.167 0.46871 0.7053 0.0
C61 C 0.14699 0.64129 0.67728 0.0
O62 O 0.14668 0.6359 0.64099 0.0
O63 O 0.23076 0.56268 0.70325 0.0
O64 O 0.25493 0.50211 0.68401 0.0
O65 O 0.15676 0.55094 0.61743 0.0
O66 O 0.20221 0.51837 0.62509 0.0
C67 C 0.25431 0.53708 0.70335 0.0
C68 C 0.17775 0.52433 0.60504 0.0
O69 O 0.16321 0.61565 0.69729 0.0
Mg70 Mg 0.52208 0.66881 0.3025 0.0
O71 O 0.55352 0.72914 0.29397 0.0
O72 O 0.52696 0.78835 0.31108 0.0
Mg73 Mg 0.47828 0.76611 0.33069 0.0
C74 C 0.55158 0.77043 0.29808 0.0
C75 C 0.58348 0.62969 0.26806 0.0
O76 O 0.5799 0.66223 0.24456 0.0
O77 O 0.52835 0.6709 0.36604 0.0
O78 O 0.497 0.72713 0.3799 0.0
O79 O 0.5023 0.6793 0.24522 0.0
O80 O 0.48278 0.7068 0.29711 0.0
C81 C 0.5143 0.69526 0.38961 0.0
C82 C 0.48199 0.70414 0.26148 0.0
O83 O 0.56391 0.62441 0.29445 0.0
Mg84 Mg 0.82787 0.46118 0.66248 0.0
O85 O 0.84106 0.52495 0.69223 0.0
O86 O 0.80982 0.57672 0.66985 0.0
Mg87 Mg 0.77806 0.54626 0.62547 0.0
C88 C 0.83187 0.56454 0.6913 0.0
C89 C 0.86817 0.38861 0.68324 0.0
O90 O 0.85702 0.38043 0.64991 0.0
O91 O 0.78294 0.45236 0.69638 0.0
O92 O 0.7529 0.50143 0.66763 0.0
O93 O 0.86185 0.47595 0.61759 0.0
O94 O 0.81174 0.49337 0.61553 0.0
C95 C 0.75638 0.47026 0.69103 0.0
C96 C 0.83878 0.49307 0.59969 0.0
O97 O 0.85803 0.42168 0.70084 0.0
Mg98 Mg 0.48092 0.33035 0.28034 0.0
O99 O 0.45721 0.26293 0.28139 0.0
O100 O 0.49332 0.21317 0.29548 0.0
Mg101 Mg 0.53998 0.24859 0.30505 0.0
C102 C 0.46534 0.22333 0.28684 0.0
C103 C 0.40901 0.35349 0.26138 0.0
O104 O 0.40928 0.31793 0.24103 0.0
O105 O 0.48229 0.33219 0.34428 0.0
O106 O 0.52085 0.28472 0.35567 0.0
O107 O 0.49459 0.31696 0.22062 0.0
O108 O 0.52374 0.30194 0.26966 0.0
C109 C 0.50086 0.31275 0.36667 0.0
C110 C 0.51949 0.29949 0.23446 0.0
O111 O 0.43343 0.3646 0.27912 0.0
Mg112 Mg 0.67257 0.97131 0.82022 0.0
O113 O 0.65832 0.03259 0.78728 0.0
O114 O 0.68869 0.08624 0.8083 0.0
Mg115 Mg 0.72003 0.05994 0.85504 0.0
C116 C 0.66715 0.07243 0.78681 0.0
C117 C 0.63285 0.89713 0.80191 0.0
O118 O 0.63533 0.89898 0.83836 0.0
O119 O 0.71799 0.96377 0.78793 0.0
O120 O 0.7474 0.01436 0.81562 0.0
O121 O 0.6373 0.9862 0.8638 0.0
O122 O 0.68683 0.00653 0.86624 0.0
C123 C 0.74433 0.9823 0.79316 0.0
C124 C 0.65969 0.00496 0.88179 0.0
O125 O 0.64646 0.92602 0.78216 0.0
Mg126 Mg 0.96872 0.17774 0.17938 0.0
O127 O 0.9417 0.24115 0.18573 0.0
O128 O 0.96982 0.29809 0.16636 0.0
Mg129 Mg 0.01651 0.26983 0.14523 0.0
C130 C 0.94489 0.28203 0.18043 0.0
C131 C 0.92155 0.10235 0.20296 0.0
O132 O 0.94746 0.07967 0.20539 0.0
O133 O 0.96064 0.17653 0.11588 0.0
O134 O 0.99371 0.23022 0.09935 0.0
O135 O 0.99246 0.19118 0.23464 0.0
O136 O 0.01082 0.21122 0.17977 0.0
C137 C 0.97495 0.19935 0.09118 0.0
C138 C 0.01364 0.21123 0.21519 0.0
O139 O 0.92295 0.14203 0.19269 0.0
Mg140 Mg 0.32642 0.05042 0.82725 0.0
O141 O 0.35024 0.99634 0.79277 0.0
O142 O 0.32389 0.93497 0.80462 0.0
Mg143 Mg 0.28519 0.94868 0.84702 0.0
C144 C 0.34582 0.95551 0.78792 0.0
C145 C 0.36822 0.12842 0.81976 0.0
O146 O 0.36476 0.12224 0.85577 0.0
O147 O 0.28418 0.05338 0.78871 0.0
O148 O 0.25886 0.9923 0.80549 0.0
O149 O 0.35702 0.03612 0.87515 0.0
O150 O 0.3105 0.00649 0.8672 0.0
C151 C 0.26063 0.02775 0.78674 0.0
C152 C 0.33504 0.01088 0.88746 0.0
O153 O 0.35383 0.10344 0.79726 0.0
Mg154 Mg 0.02916 0.81807 0.18732 0.0
O155 O 0.05337 0.75112 0.19505 0.0
O156 O 0.01771 0.70048 0.18108 0.0
Mg157 Mg 0.9714 0.73337 0.16596 0.0
C158 C 0.04517 0.71116 0.19151 0.0
C159 C 0.09639 0.85356 0.21341 0.0
O160 O 0.09372 0.82613 0.24144 0.0
O161 O 0.03114 0.81207 0.12358 0.0
O162 O 0.99198 0.76489 0.11378 0.0
O163 O 0.01149 0.81444 0.24679 0.0
O164 O 0.98633 0.79049 0.19739 0.0
C165 C 0.01285 0.79125 0.10182 0.0
C166 C 0.9875 0.79462 0.23285 0.0
O167 O 0.07526 0.85498 0.18867 0.0
Mg168 Mg 0.67675 0.04749 0.16374 0.0
O169 O 0.65608 0.98979 0.19689 0.0
O170 O 0.68367 0.93043 0.18312 0.0
Mg171 Mg 0.72047 0.94956 0.13917 0.0
C172 C 0.66156 0.94912 0.20085 0.0
C173 C 0.61774 0.08892 0.19367 0.0
O174 O 0.60796 0.05179 0.17968 0.0
O175 O 0.72007 0.05208 0.20091 0.0
O176 O 0.74694 0.99497 0.17908 0.0
O177 O 0.64608 0.03449 0.11543 0.0
O178 O 0.69329 0.00696 0.12171 0.0
C179 C 0.74505 0.02923 0.19925 0.0
C180 C 0.66858 0.0114 0.10179 0.0
O181 O 0.64698 0.09599 0.19578 0.0
Mg182 Mg 0.03425 0.18785 0.79184 0.0
O183 O 0.06003 0.25263 0.79379 0.0
O184 O 0.02843 0.30743 0.80895 0.0
Mg185 Mg 0.97969 0.27564 0.8167 0.0
C186 C 0.05535 0.293 0.79989 0.0
C187 C 0.09285 0.12949 0.76712 0.0
O188 O 0.07405 0.11302 0.74196 0.0
O189 O 0.03106 0.18403 0.85589 0.0
O190 O 0.99447 0.23464 0.8664 0.0
O191 O 0.02209 0.20171 0.73172 0.0
O192 O 0.99327 0.22092 0.78027 0.0
C193 C 0.01225 0.20407 0.8777 0.0
C194 C 0.99825 0.22248 0.745 0.0
O195 O 0.08246 0.1568 0.79067 0.0
Mg196 Mg 0.33015 0.96399 0.16925 0.0
O197 O 0.3455 0.02636 0.19955 0.0
O198 O 0.31547 0.07953 0.17706 0.0
Mg199 Mg 0.28368 0.05189 0.1314 0.0
C200 C 0.3371 0.06629 0.19869 0.0
C201 C 0.36844 0.88993 0.19022 0.0
O202 O 0.36493 0.88943 0.15386 0.0
O203 O 0.28476 0.95868 0.20199 0.0
O204 O 0.25592 0.00827 0.17224 0.0
O205 O 0.36556 0.97625 0.12524 0.0
O206 O 0.31628 0.99756 0.12216 0.0
C207 C 0.25861 0.9772 0.19589 0.0
C208 C 0.34346 0.99506 0.10681 0.0
O209 O 0.35583 0.92039 0.20892 0.0
Mg210 Mg 0.97437 0.82455 0.79785 0.0
O211 O 0.94855 0.75898 0.78957 0.0
O212 O 0.98268 0.70645 0.80354 0.0
Mg213 Mg 0.02987 0.73689 0.81888 0.0
C214 C 0.95559 0.71862 0.79304 0.0
C215 C 0.90674 0.85999 0.77323 0.0
O216 O 0.90797 0.83034 0.7469 0.0
O217 O 0.97198 0.81753 0.86162 0.0
O218 O 0.00989 0.76844 0.87108 0.0
O219 O 0.99242 0.82087 0.73843 0.0
O220 O 0.0166 0.79524 0.78794 0.0
C221 C 0.98968 0.79547 0.88323 0.0
C222 C 0.01584 0.79994 0.75252 0.0
O223 O 0.92896 0.86307 0.79647 0.0
H224 H 0.30115 0.48554 0.29823 0.0
H225 H 0.24456 0.38088 0.25459 0.0
H226 H 0.29182 0.34061 0.23766 0.0
H227 H 0.34925 0.33201 0.24128 0.0
H228 H 0.40451 0.4359 0.28862 0.0
H229 H 0.35767 0.47927 0.29823 0.0
C230 C 0.29896 0.45418 0.28454 0.0
C231 C 0.26918 0.43622 0.27807 0.0
C232 C 0.3261 0.43066 0.27604 0.0
C233 C 0.26709 0.3956 0.26003 0.0
C234 C 0.29415 0.37236 0.25058 0.0
C235 C 0.35104 0.36431 0.25337 0.0
C236 C 0.38039 0.38043 0.26455 0.0
C237 C 0.32378 0.38903 0.25944 0.0
C238 C 0.38226 0.42238 0.28014 0.0
C239 C 0.35546 0.44734 0.28557 0.0
H240 H 0.37777 0.64024 0.72936 0.0
H241 H 0.41659 0.51164 0.7145 0.0
H242 H 0.36416 0.47992 0.71643 0.0
H243 H 0.30743 0.49017 0.71382 0.0
H244 H 0.26873 0.61911 0.72807 0.0
H245 H 0.32104 0.64898 0.73626 0.0
C246 C 0.37475 0.60521 0.7269 0.0
C247 C 0.4009 0.57837 0.72093 0.0
C248 C 0.34461 0.58725 0.7281 0.0
C249 C 0.39677 0.53299 0.71871 0.0
C250 C 0.36682 0.51486 0.71979 0.0
C251 C 0.31033 0.52467 0.71957 0.0
C252 C 0.28416 0.55245 0.71949 0.0
C253 C 0.34054 0.54186 0.7233 0.0
C254 C 0.28838 0.59693 0.72769 0.0
C255 C 0.31836 0.61417 0.73199 0.0
H256 H 0.63909 0.64703 0.2341 0.0
H257 H 0.58968 0.54819 0.29693 0.0
H258 H 0.63689 0.50406 0.29994 0.0
H259 H 0.69311 0.49825 0.29224 0.0
H260 H 0.74419 0.59991 0.23473 0.0
H261 H 0.69527 0.63751 0.22107 0.0
C262 C 0.63859 0.61549 0.24789 0.0
C263 C 0.61109 0.6011 0.26568 0.0
C264 C 0.66612 0.59082 0.2505 0.0
C265 C 0.61071 0.56023 0.2835 0.0
C266 C 0.63766 0.53493 0.28515 0.0
C267 C 0.69365 0.52812 0.27596 0.0
C268 C 0.72241 0.54649 0.26502 0.0
C269 C 0.66569 0.55057 0.26982 0.0
C270 C 0.72244 0.58516 0.24379 0.0
C271 C 0.69447 0.60688 0.23621 0.0
H272 H 0.64831 0.34093 0.73631 0.0
H273 H 0.59463 0.43871 0.6782 0.0
H274 H 0.64039 0.48571 0.67419 0.0
H275 H 0.69639 0.49586 0.68094 0.0
H276 H 0.75167 0.39688 0.73523 0.0
H277 H 0.70443 0.35432 0.74795 0.0
C278 C 0.64656 0.37275 0.7232 0.0
C279 C 0.61813 0.38598 0.70715 0.0
C280 C 0.67327 0.3995 0.72032 0.0
C281 C 0.61627 0.42738 0.69033 0.0
C282 C 0.64244 0.45441 0.6881 0.0
C283 C 0.69822 0.46536 0.69616 0.0
C284 C 0.72774 0.44947 0.70664 0.0
C285 C 0.6712 0.44033 0.70211 0.0
C286 C 0.72936 0.40996 0.72664 0.0
C287 C 0.70233 0.38537 0.73366 0.0
H288 H 0.8042 0.99903 0.81273 0.0
H289 H 0.7488 0.91708 0.74094 0.0
H290 H 0.79495 0.87345 0.72618 0.0
H291 H 0.84993 0.85413 0.73891 0.0
H292 H 0.90348 0.93435 0.81411 0.0
H293 H 0.8591 0.98279 0.82235 0.0
C294 C 0.80219 0.97217 0.79327 0.0
C295 C 0.77294 0.96132 0.77816 0.0
C296 C 0.82847 0.94632 0.786 0.0
C297 C 0.77097 0.92619 0.75309 0.0
C298 C 0.79733 0.901 0.74482 0.0
C299 C 0.85193 0.88241 0.75683 0.0
C300 C 0.87992 0.89026 0.77615 0.0
C301 C 0.82602 0.90998 0.762 0.0
C302 C 0.88213 0.92713 0.79925 0.0
C303 C 0.85678 0.95503 0.80391 0.0
H304 H 0.80013 0.98679 0.20892 0.0
H305 H 0.75728 0.11341 0.2205 0.0
H306 H 0.80875 0.14723 0.22544 0.0
H307 H 0.86581 0.14198 0.21699 0.0
H308 H 0.90837 0.01527 0.20487 0.0
H309 H 0.85716 0.9805 0.20939 0.0
C310 C 0.80197 0.02168 0.21341 0.0
C311 C 0.77478 0.04752 0.2137 0.0
C312 C 0.83166 0.04108 0.21525 0.0
C313 C 0.77769 0.09261 0.22009 0.0
C314 C 0.8072 0.11211 0.22246 0.0
C315 C 0.86389 0.10673 0.21568 0.0
C316 C 0.89084 0.08132 0.20985 0.0
C317 C 0.83432 0.08688 0.21842 0.0
C318 C 0.88802 0.03564 0.20899 0.0
C319 C 0.85872 0.01571 0.21157 0.0
H320 H 0.12096 0.05538 0.74176 0.0
H321 H 0.1402 0.18025 0.79208 0.0
H322 H 0.19557 0.16258 0.79537 0.0
H323 H 0.23748 0.10895 0.79044 0.0
H324 H 0.21781 0.98078 0.74738 0.0
H325 H 0.16404 0.00262 0.73368 0.0
C326 C 0.13739 0.07879 0.75308 0.0
C327 C 0.12648 0.11881 0.76703 0.0
C328 C 0.1692 0.06789 0.75592 0.0
C329 C 0.14796 0.1489 0.78171 0.0
C330 C 0.17966 0.13895 0.78341 0.0
C331 C 0.22168 0.08629 0.77692 0.0
C332 C 0.23159 0.04355 0.76945 0.0
C333 C 0.19044 0.09821 0.77138 0.0
C334 C 0.21068 0.01403 0.75297 0.0
C335 C 0.17989 0.02637 0.74554 0.0
H336 H 0.19922 0.99293 0.17424 0.0
H337 H 0.25308 0.91414 0.25026 0.0
H338 H 0.2067 0.87039 0.26469 0.0
H339 H 0.15217 0.84969 0.2503 0.0
H340 H 0.10053 0.92642 0.17051 0.0
H341 H 0.1448 0.97545 0.16286 0.0
C342 C 0.20083 0.96678 0.19456 0.0
C343 C 0.22973 0.95679 0.21094 0.0
C344 C 0.17451 0.94074 0.20153 0.0
C345 C 0.23118 0.92256 0.23712 0.0
C346 C 0.2047 0.8973 0.24519 0.0
C347 C 0.15057 0.87735 0.23149 0.0
C348 C 0.12318 0.88402 0.21071 0.0
C349 C 0.17647 0.90522 0.22663 0.0
C350 C 0.12146 0.92008 0.18648 0.0
C351 C 0.14673 0.94833 0.18218 0.0
H352 H 0.1139 0.54232 0.25041 0.0
H353 H 0.18263 0.63873 0.28152 0.0
H354 H 0.15229 0.69554 0.25104 0.0
H355 H 0.10416 0.71926 0.22 0.0
H356 H 0.03521 0.62296 0.18931 0.0
H357 H 0.0678 0.56522 0.21478 0.0
C358 C 0.1225 0.57563 0.25015 0.0
C359 C 0.15047 0.58601 0.26868 0.0
C360 C 0.10474 0.60851 0.23279 0.0
C361 C 0.16113 0.62953 0.26781 0.0
C362 C 0.14374 0.66224 0.25039 0.0
C363 C 0.09637 0.68562 0.21843 0.0
C364 C 0.06701 0.67581 0.20297 0.0
C365 C 0.11516 0.65231 0.23349 0.0
C366 C 0.05754 0.63181 0.20118 0.0
C367 C 0.07617 0.59859 0.21585 0.0
H368 H 0.57167 0.74756 0.70825 0.0
H369 H 0.51766 0.73175 0.80923 0.0
H370 H 0.54883 0.78882 0.83923 0.0
H371 H 0.58872 0.84664 0.83472 0.0
H372 H 0.63833 0.86664 0.73103 0.0
H373 H 0.61046 0.80521 0.70333 0.0
C374 C 0.56638 0.75681 0.73672 0.0
C375 C 0.54195 0.73617 0.75626 0.0
C376 C 0.58322 0.79079 0.75293 0.0
C377 C 0.53627 0.74734 0.79358 0.0
C378 C 0.55389 0.78016 0.81057 0.0
C379 C 0.59344 0.83746 0.80607 0.0
C380 C 0.61545 0.86104 0.78482 0.0
C381 C 0.57694 0.80272 0.79019 0.0
C382 C 0.62127 0.84913 0.74774 0.0
C383 C 0.60552 0.81392 0.73202 0.0
H384 H 0.94715 0.37064 0.19045 0.0
H385 H 0.88599 0.2591 0.20189 0.0
H386 H 0.84671 0.30441 0.23186 0.0
H387 H 0.83113 0.37399 0.25913 0.0
H388 H 0.89201 0.48588 0.24902 0.0
H389 H 0.92969 0.44221 0.21403 0.0
C390 C 0.92506 0.35636 0.19899 0.0
C391 C 0.91977 0.31134 0.19413 0.0
C392 C 0.90252 0.38258 0.21678 0.0
C393 C 0.89093 0.2935 0.20549 0.0
C394 C 0.86838 0.3194 0.22273 0.0
C395 C 0.85252 0.38904 0.24911 0.0
C396 C 0.85876 0.43313 0.25712 0.0
C397 C 0.87419 0.36371 0.22926 0.0
C398 C 0.88655 0.45201 0.24345 0.0
C399 C 0.90819 0.427 0.22347 0.0
H400 H 0.47481 0.26443 0.78253 0.0
H401 H 0.42619 0.26521 0.67738 0.0
H402 H 0.38745 0.21469 0.70189 0.0
H403 H 0.36896 0.16656 0.75166 0.0
H404 H 0.41576 0.16678 0.85784 0.0
H405 H 0.45336 0.22052 0.83462 0.0
C406 C 0.45548 0.25397 0.76528 0.0
C407 C 0.45375 0.26784 0.72804 0.0
C408 C 0.43304 0.22473 0.77957 0.0
C409 C 0.42847 0.25425 0.70597 0.0
C410 C 0.4062 0.22537 0.71991 0.0
C411 C 0.38735 0.17848 0.7697 0.0
C412 C 0.38981 0.16246 0.80615 0.0
C413 C 0.40863 0.20965 0.75637 0.0
C414 C 0.41343 0.17864 0.82952 0.0
C415 C 0.43498 0.20932 0.81629 0.0
H416 H 0.17395 0.38788 0.73548 0.0
H417 H 0.10937 0.49553 0.72959 0.0
H418 H 0.06995 0.45229 0.76262 0.0
H419 H 0.052 0.38108 0.78713 0.0
H420 H 0.11706 0.27376 0.79208 0.0
H421 H 0.15803 0.31989 0.76603 0.0
C422 C 0.15137 0.40211 0.74172 0.0
C423 C 0.14456 0.44471 0.72956 0.0
C424 C 0.12875 0.37702 0.76053 0.0
C425 C 0.11528 0.46277 0.73845 0.0
C426 C 0.09264 0.43798 0.75726 0.0
C427 C 0.07531 0.36805 0.78329 0.0
C428 C 0.08123 0.32379 0.79122 0.0
C429 C 0.09885 0.39467 0.76763 0.0
C430 C 0.11165 0.30753 0.78593 0.0
C431 C 0.13515 0.33387 0.77089 0.0
H432 H 0.4104 0.83594 0.15795 0.0
H433 H 0.36639 0.86609 0.26328 0.0
H434 H 0.39569 0.80762 0.29337 0.0
H435 H 0.43405 0.74969 0.28992 0.0
H436 H 0.48213 0.72309 0.18651 0.0
H437 H 0.44983 0.77766 0.1548 0.0
C438 C 0.40719 0.8296 0.18748 0.0
C439 C 0.38636 0.85519 0.20849 0.0
C440 C 0.42448 0.79652 0.20466 0.0
C441 C 0.38249 0.84695 0.24669 0.0
C442 C 0.39908 0.81346 0.26381 0.0
C443 C 0.43783 0.75606 0.26051 0.0
C444 C 0.46087 0.73309 0.24071 0.0
C445 C 0.42023 0.78837 0.24309 0.0
C446 C 0.46461 0.74057 0.20235 0.0
C447 C 0.44632 0.7719 0.18434 0.0
H448 H 0.88221 0.5527 0.73677 0.0
H449 H 0.82018 0.65233 0.69521 0.0
H450 H 0.85146 0.70846 0.72549 0.0
H451 H 0.89878 0.72998 0.75957 0.0
H452 H 0.96115 0.63013 0.80006 0.0
H453 H 0.92725 0.57377 0.7747 0.0
C454 C 0.87526 0.58662 0.73461 0.0
C455 C 0.84893 0.59806 0.71334 0.0
C456 C 0.89357 0.61895 0.75178 0.0
C457 C 0.84037 0.64234 0.71114 0.0
C458 C 0.85831 0.67461 0.72843 0.0
C459 C 0.9048 0.69591 0.7633 0.0
C460 C 0.93275 0.68458 0.78149 0.0
C461 C 0.88533 0.6634 0.7482 0.0
C462 C 0.93999 0.64007 0.78601 0.0
C463 C 0.9206 0.60767 0.77143 0.0
H464 H 0.62916 0.17614 0.19528 0.0
H465 H 0.55513 0.08098 0.20491 0.0
H466 H 0.5167 0.13935 0.21091 0.0
H467 H 0.50458 0.21735 0.21696 0.0
H468 H 0.57873 0.31209 0.21105 0.0
H469 H 0.61661 0.25426 0.19812 0.0
C470 C 0.60465 0.16819 0.19895 0.0
C471 C 0.59505 0.12432 0.20019 0.0
C472 C 0.58265 0.2019 0.20184 0.0
C473 C 0.56313 0.11453 0.20423 0.0
C474 C 0.54112 0.14786 0.20734 0.0
C475 C 0.52886 0.22525 0.21142 0.0
C476 C 0.53893 0.2687 0.21382 0.0
C477 C 0.55061 0.19164 0.20623 0.0
C478 C 0.57052 0.27882 0.20807 0.0
C479 C 0.59219 0.24572 0.20146 0.0
H480 H 0.61806 0.05731 0.73996 0.0
H481 H 0.67818 0.16014 0.78006 0.0
H482 H 0.64738 0.21413 0.74653 0.0
H483 H 0.6011 0.23301 0.70978 0.0
H484 H 0.54052 0.13034 0.6704 0.0
H485 H 0.57398 0.07578 0.69928 0.0
C486 C 0.62468 0.09145 0.7411 0.0
C487 C 0.65034 0.10444 0.76292 0.0
C488 C 0.60667 0.1226 0.72195 0.0
C489 C 0.65851 0.14897 0.76376 0.0
C490 C 0.64085 0.18002 0.7446 0.0
C491 C 0.59531 0.19872 0.70713 0.0
C492 C 0.56802 0.1861 0.68816 0.0
C493 C 0.61451 0.16733 0.72421 0.0
C494 C 0.56121 0.14129 0.68492 0.0
C495 C 0.58032 0.10993 0.70156 0.0
H496 H 0.12275 0.34175 0.24979 0.0
H497 H 0.07346 0.35113 0.35448 0.0
H498 H 0.03586 0.29626 0.33396 0.0
H499 H 0.01591 0.24708 0.28501 0.0
H500 H 0.06701 0.23657 0.18147 0.0
H501 H 0.10505 0.28963 0.20296 0.0
C502 C 0.1037 0.33185 0.26798 0.0
C503 C 0.10065 0.35064 0.30331 0.0
C504 C 0.08256 0.29975 0.25634 0.0
C505 C 0.07621 0.33707 0.32699 0.0
C506 C 0.05472 0.30567 0.31535 0.0
C507 C 0.03565 0.25597 0.26751 0.0
C508 C 0.03842 0.23837 0.23162 0.0
C509 C 0.05759 0.28681 0.27999 0.0
C510 C 0.06411 0.25016 0.20912 0.0
C511 C 0.0859 0.28058 0.22128 0.0
H512 H 0.34002 0.87129 0.76532 0.0
H513 H 0.40165 0.98262 0.75763 0.0
H514 H 0.44039 0.93827 0.72494 0.0
H515 H 0.45852 0.86617 0.70325 0.0
H516 H 0.39658 0.75519 0.71245 0.0
H517 H 0.3563 0.80127 0.73954 0.0
C518 C 0.3618 0.8861 0.75628 0.0
C519 C 0.36795 0.93021 0.76437 0.0
C520 C 0.38409 0.86035 0.73785 0.0
C521 C 0.39624 0.94876 0.75196 0.0
C522 C 0.41849 0.92334 0.73334 0.0
C523 C 0.43606 0.85217 0.71067 0.0
C524 C 0.43083 0.80707 0.70606 0.0
C525 C 0.41294 0.87885 0.7268 0.0
C526 C 0.4015 0.78963 0.71591 0.0
C527 C 0.37837 0.81597 0.73149 0.0
H528 H 0.90671 0.67574 0.33891 0.0
H529 H 0.8519 0.66746 0.23842 0.0
H530 H 0.88517 0.72221 0.20869 0.0
H531 H 0.93142 0.76778 0.20967 0.0
H532 H 0.99003 0.7716 0.3071 0.0
H533 H 0.95289 0.7242 0.34043 0.0
C534 C 0.90192 0.68629 0.31063 0.0
C535 C 0.87707 0.66752 0.2907 0.0
C536 C 0.92166 0.71692 0.2934 0.0
C537 C 0.87111 0.6812 0.25409 0.0
C538 C 0.89002 0.71254 0.23717 0.0
C539 C 0.93619 0.75827 0.23823 0.0
C540 C 0.96369 0.77232 0.25572 0.0
C541 C 0.91565 0.72985 0.25632 0.0
C542 C 0.96904 0.76094 0.29305 0.0
C543 C 0.94796 0.73363 0.31192 0.0
H544 H 0.66506 0.86167 0.21577 0.0
H545 H 0.61001 0.97618 0.23983 0.0
H546 H 0.57258 0.93155 0.27442 0.0
H547 H 0.55341 0.85951 0.29418 0.0
H548 H 0.60801 0.74482 0.2693 0.0
H549 H 0.64762 0.79015 0.23912 0.0
C550 C 0.64504 0.87703 0.22881 0.0
C551 C 0.64039 0.92234 0.22481 0.0
C552 C 0.62335 0.85109 0.2485 0.0
C553 C 0.61428 0.94146 0.24219 0.0
C554 C 0.59275 0.91591 0.262 0.0
C555 C 0.57413 0.84436 0.28259 0.0
C556 C 0.57744 0.79861 0.28389 0.0
C557 C 0.59675 0.8706 0.26481 0.0
C558 C 0.60459 0.77982 0.26865 0.0
C559 C 0.62731 0.80576 0.25125 0.0
H560 H 0.88933 0.31074 0.65751 0.0
H561 H 0.90738 0.41034 0.73969 0.0
H562 H 0.95326 0.37056 0.76085 0.0
H563 H 0.98674 0.30678 0.75759 0.0
H564 H 0.96608 0.20248 0.68154 0.0
H565 H 0.92378 0.24619 0.65421 0.0
C566 C 0.90328 0.32366 0.6801 0.0
C567 C 0.89482 0.36321 0.6973 0.0
C568 C 0.92943 0.30032 0.69246 0.0
C569 C 0.91314 0.37968 0.7264 0.0
C570 C 0.93953 0.3572 0.73827 0.0
C571 C 0.97278 0.29344 0.73534 0.0
C572 C 0.9788 0.2513 0.72216 0.0
C573 C 0.94762 0.3174 0.72174 0.0
C574 C 0.96176 0.23507 0.69195 0.0
C575 C 0.93736 0.25974 0.67683 0.0
H576 H 0.40452 0.23142 0.26541 0.0
H577 H 0.47514 0.13501 0.28908 0.0
H578 H 0.44044 0.07738 0.2673 0.0
H579 H 0.39207 0.05504 0.23594 0.0
H580 H 0.3224 0.15204 0.21011 0.0
H581 H 0.35465 0.20843 0.23849 0.0
C582 C 0.41227 0.1978 0.26625 0.0
C583 C 0.44262 0.18786 0.27864 0.0
C584 C 0.39241 0.16476 0.25299 0.0
C585 C 0.45201 0.14388 0.27967 0.0
C586 C 0.43219 0.11079 0.26704 0.0
C587 C 0.38367 0.08837 0.23699 0.0
C588 C 0.35487 0.09916 0.22054 0.0
C589 C 0.40262 0.12095 0.25281 0.0
C590 C 0.34451 0.14267 0.22223 0.0
C591 C 0.36299 0.17506 0.23844 0.0
H592 H 0.09762 0.68324 0.64636 0.0
H593 H 0.15242 0.67503 0.74691 0.0
H594 H 0.11827 0.728 0.77701 0.0
H595 H 0.07155 0.77241 0.77619 0.0
H596 H 0.01354 0.77716 0.67828 0.0
H597 H 0.05095 0.73053 0.64501 0.0
C598 C 0.10223 0.6934 0.67474 0.0
C599 C 0.1274 0.67516 0.69452 0.0
C600 C 0.08207 0.72315 0.69215 0.0
C601 C 0.13305 0.68837 0.73128 0.0
C602 C 0.11361 0.71869 0.74844 0.0
C603 C 0.06699 0.76331 0.74753 0.0
C604 C 0.03961 0.7775 0.72984 0.0
C605 C 0.08782 0.73558 0.72935 0.0
C606 C 0.03446 0.76648 0.69244 0.0
C607 C 0.05571 0.73962 0.6736 0.0
H608 H 0.13177 0.5373 0.55434 0.0
H609 H 0.22238 0.47796 0.56843 0.0
H610 H 0.2262 0.46599 0.50151 0.0
H611 H 0.20514 0.47547 0.43897 0.0
H612 H 0.11338 0.53011 0.42418 0.0
H613 H 0.10897 0.54217 0.49161 0.0
C614 C 0.15211 0.52108 0.54283 0.0
C615 C 0.17683 0.50879 0.56628 0.0
C616 C 0.15433 0.51468 0.50425 0.0
C617 C 0.203 0.48769 0.55101 0.0
C618 C 0.20538 0.48125 0.5127 0.0
C619 C 0.18441 0.49072 0.4505 0.0
C620 C 0.15995 0.50307 0.42691 0.0
C621 C 0.18154 0.49555 0.48907 0.0
C622 C 0.1327 0.52124 0.44204 0.0
C623 C 0.13009 0.52767 0.48048 0.0
H624 H 0.46535 0.6862 0.43564 0.0
H625 H 0.5659 0.68227 0.43267 0.0
H626 H 0.56716 0.67784 0.50102 0.0
H627 H 0.53951 0.68367 0.56114 0.0
H628 H 0.43891 0.68481 0.56411 0.0
H629 H 0.43754 0.68108 0.49576 0.0
C630 C 0.48749 0.68368 0.45008 0.0
C631 C 0.51555 0.68516 0.42961 0.0
C632 C 0.48789 0.68087 0.48904 0.0
C633 C 0.54412 0.68124 0.44813 0.0
C634 C 0.54479 0.67896 0.48707 0.0
C635 C 0.51731 0.68235 0.54671 0.0
C636 C 0.48931 0.68508 0.56719 0.0
C637 C 0.51683 0.68003 0.50774 0.0
C638 C 0.46065 0.68275 0.54866 0.0
C639 C 0.45993 0.68091 0.50972 0.0
H640 H 0.87288 0.53057 0.43209 0.0
H641 H 0.78266 0.46983 0.41743 0.0
H642 H 0.77753 0.46041 0.48457 0.0
H643 H 0.79698 0.47351 0.54738 0.0
H644 H 0.8882 0.52998 0.56301 0.0
H645 H 0.89437 0.53823 0.49527 0.0
C646 C 0.85236 0.51454 0.44354 0.0
C647 C 0.82808 0.50126 0.41983 0.0
C648 C 0.84937 0.50969 0.48224 0.0
C649 C 0.8017 0.48038 0.43505 0.0
C650 C 0.79857 0.47539 0.47347 0.0
C651 C 0.81801 0.48822 0.5359 0.0
C652 C 0.84177 0.50234 0.55979 0.0
C653 C 0.82184 0.49101 0.49728 0.0
C654 C 0.86942 0.51978 0.54485 0.0
C655 C 0.87303 0.52407 0.50628 0.0
H656 H 0.54923 0.31458 0.41452 0.0
H657 H 0.44934 0.33077 0.40888 0.0
H658 H 0.44647 0.33367 0.47704 0.0
H659 H 0.47177 0.3228 0.5377 0.0
H660 H 0.57167 0.30858 0.54378 0.0
H661 H 0.57542 0.31425 0.47556 0.0
C662 C 0.52689 0.3193 0.42828 0.0
C663 C 0.49942 0.32169 0.40696 0.0
C664 C 0.52552 0.32106 0.46728 0.0
C665 C 0.4707 0.3287 0.42484 0.0
C666 C 0.46907 0.33012 0.46372 0.0
C667 C 0.49439 0.32172 0.52399 0.0
C668 C 0.52142 0.31478 0.54525 0.0
C669 C 0.49621 0.32503 0.48513 0.0
C670 C 0.55067 0.31394 0.52769 0.0
C671 C 0.55272 0.31687 0.48882 0.0
H672 H 0.62342 0.02719 0.05057 0.0
H673 H 0.71545 0.97181 0.06323 0.0
H674 H 0.72153 0.96878 -0.00424 0.0
H675 H 0.7021 0.98555 0.93352 0.0
H676 H 0.60919 0.03661 0.91968 0.0
H677 H 0.60233 0.03905 0.98764 0.0
C678 C 0.64457 0.01371 0.03858 0.0
C679 C 0.66904 1.00005 0.06191 0.0
C680 C 0.64812 0.01262 -0.00027 0.0
C681 C 0.69625 0.98253 0.04594 0.0
C682 C 0.69992 0.98125 0.00736 0.0
C683 C 0.68056 0.99796 0.94545 0.0
C684 C 0.65649 0.01216 0.92199 0.0
C685 C 0.67636 0.99728 0.9841 0.0
C686 C 0.62822 0.0265 0.9375 0.0
C687 C 0.62422 0.0274 0.97619 0.0
H688 H 0.95967 0.20438 0.91902 0.0
H689 H 0.0579 0.17433 0.92455 0.0
H690 H 0.05335 0.16316 -0.0079 0.0
H691 H 0.02283 0.1721 0.04986 0.0
H692 H 0.92489 0.20297 0.04439 0.0
H693 H 0.92758 0.20285 0.97597 0.0
C694 C 0.98003 0.19495 0.935 0.0
C695 C 0.00927 0.19112 0.91717 0.0
C696 C 0.97716 0.18869 0.97355 0.0
C697 C 0.03528 0.17781 0.93784 0.0
C698 C 0.03266 0.17157 0.97636 0.0
C699 C 0.00192 0.1775 0.03351 0.0
C700 C 0.97368 0.1875 0.05167 0.0
C701 C 0.00394 0.17826 -0.00545 0.0
C702 C 0.94669 0.19473 0.03072 0.0
C703 C 0.94839 0.19516 -0.00825 0.0
H704 H 0.38038 0.02372 0.93891 0.0
H705 H 0.28854 0.9679 0.92439 0.0
H706 H 0.28253 0.96112 -0.00829 0.0
H707 H 0.30167 0.9758 0.05444 0.0
H708 H 0.39429 0.02766 0.06994 0.0
H709 H 0.40144 0.0326 0.0021 0.0
C710 C 0.35929 0.00929 0.95043 0.0
C711 C 0.33481 0.99675 0.92671 0.0
C712 C 0.35577 0.00613 0.98919 0.0
C713 C 0.30772 0.97786 0.94203 0.0
C714 C 0.30409 0.97444 0.98053 0.0
C715 C 0.32323 0.98882 0.04289 0.0
C716 C 0.3471 0.00267 0.06674 0.0
C717 C 0.32756 0.98969 0.00428 0.0
C718 C 0.37542 0.0178 0.05178 0.0
C719 C 0.37958 0.02016 0.01317 0.0
H720 H 0.03855 0.80098 0.92955 0.0
H721 H 0.93795 0.80465 0.92738 0.0
H722 H 0.93653 0.80586 -0.00422 0.0
H723 H 0.96406 0.79969 0.05562 0.0
H724 H 0.06471 0.79987 0.05778 0.0
H725 H 0.06616 0.80372 0.98946 0.0
C726 C 0.01633 0.80242 0.94415 0.0
C727 C 0.98833 0.80201 0.9238 0.0
C728 C 0.01582 0.80359 0.98315 0.0
C729 C 0.9597 0.8048 0.94267 0.0
C730 C 0.95894 0.80528 0.98164 0.0
C731 C 0.9863 0.8009 0.04104 0.0
C732 C 0.01428 0.79875 0.06135 0.0
C733 C 0.98684 0.80369 0.00208 0.0
C734 C 0.04296 0.80131 0.04252 0.0
C735 C 0.04374 0.80333 0.00359 0.0
loop_
_geom_bond_atom_site_label_1
_geom_bond_atom_site_label_2
_geom_bond_distance
_geom_bond_site_symmetry_2
_ccdc_geom_bond_type
Mg0 O1 2.028 . S
Mg0 O7 1.986 . S
Mg0 O9 2.114 . S
Mg0 O10 2.251 . S
Mg0 O13 2.010 . S
O1 Mg0 2.028 . S
O1 C4 1.250 . S
O2 Mg3 2.028 . S
O2 C4 1.248 . S
Mg3 O2 2.028 . S
Mg3 O8 2.032 . S
Mg3 O10 2.079 . S
C4 O1 1.250 . S
C4 O2 1.248 . S
C5 O6 1.264 . S
C5 O13 1.249 . S
O6 C5 1.264 . S
O7 Mg0 1.986 . S
O7 C11 1.246 . S
O8 Mg3 2.032 . S
O8 C11 1.259 . S
O9 Mg0 2.114 . S
O9 C12 1.252 . S
O10 Mg0 2.251 . S
O10 Mg3 2.079 . S
O10 C12 1.273 . S
C11 O7 1.246 . S
C11 O8 1.259 . S
C12 O9 1.252 . S
C12 O10 1.273 . S
O13 Mg0 2.010 . S
O13 C5 1.249 . S
Mg14 O15 2.028 . S
Mg14 O21 1.986 . S
Mg14 O23 2.114 . S
Mg14 O24 2.251 . S
Mg14 O27 2.010 . S
O15 Mg14 2.028 . S
O15 C18 1.250 . S
O16 Mg17 2.028 . S
O16 C18 1.248 . S
Mg17 O16 2.028 . S
Mg17 O22 2.032 . S
Mg17 O24 2.079 . S
C18 O15 1.250 . S
C18 O16 1.248 . S
C19 O20 1.264 . S
C19 O27 1.249 . S
O20 C19 1.264 . S
O21 Mg14 1.986 . S
O21 C25 1.246 . S
O22 Mg17 2.032 . S
O22 C25 1.259 . S
O23 Mg14 2.114 . S
O23 C26 1.252 . S
O24 Mg14 2.251 . S
O24 Mg17 2.079 . S
O24 C26 1.273 . S
C25 O21 1.246 . S
C25 O22 1.259 . S
C26 O23 1.252 . S
C26 O24 1.273 . S
O27 Mg14 2.010 . S
O27 C19 1.249 . S
Mg28 O29 2.028 . S
Mg28 O35 1.986 . S
Mg28 O37 2.114 . S
Mg28 O38 2.251 . S
Mg28 O41 2.010 . S
O29 Mg28 2.028 . S
O29 C32 1.250 . S
O30 Mg31 2.028 . S
O30 C32 1.248 . S
Mg31 O30 2.028 . S
Mg31 O36 2.032 . S
Mg31 O38 2.079 . S
C32 O29 1.250 . S
C32 O30 1.248 . S
C33 O34 1.264 . S
C33 O41 1.249 . S
O34 C33 1.264 . S
O35 Mg28 1.986 . S
O35 C39 1.246 . S
O36 Mg31 2.032 . S
O36 C39 1.259 . S
O37 Mg28 2.114 . S
O37 C40 1.252 . S
O38 Mg28 2.251 . S
O38 Mg31 2.079 . S
O38 C40 1.273 . S
C39 O35 1.246 . S
C39 O36 1.259 . S
C40 O37 1.252 . S
C40 O38 1.273 . S
O41 Mg28 2.010 . S
O41 C33 1.249 . S
Mg42 O43 2.028 . S
Mg42 O49 1.986 . S
Mg42 O51 2.114 . S
Mg42 O52 2.251 . S
Mg42 O55 2.010 . S
O43 Mg42 2.028 . S
O43 C46 1.250 . S
O44 Mg45 2.028 . S
O44 C46 1.248 . S
Mg45 O44 2.028 . S
Mg45 O50 2.032 . S
Mg45 O52 2.079 . S
C46 O43 1.250 . S
C46 O44 1.248 . S
C47 O48 1.264 . S
C47 O55 1.249 . S
O48 C47 1.264 . S
O49 Mg42 1.986 . S
O49 C53 1.246 . S
O50 Mg45 2.032 . S
O50 C53 1.259 . S
O51 Mg42 2.114 . S
O51 C54 1.252 . S
O52 Mg42 2.251 . S
O52 Mg45 2.079 . S
O52 C54 1.273 . S
C53 O49 1.246 . S
C53 O50 1.259 . S
C54 O51 1.252 . S
C54 O52 1.273 . S
O55 Mg42 2.010 . S
O55 C47 1.249 . S
Mg56 O57 2.028 . S
Mg56 O63 1.986 . S
Mg56 O65 2.114 . S
Mg56 O66 2.251 . S
Mg56 O69 2.010 . S
O57 Mg56 2.028 . S
O57 C60 1.250 . S
O58 Mg59 2.028 . S
O58 C60 1.248 . S
Mg59 O58 2.028 . S
Mg59 O64 2.032 . S
Mg59 O66 2.079 . S
C60 O57 1.250 . S
C60 O58 1.248 . S
C61 O62 1.264 . S
C61 O69 1.249 . S
O62 C61 1.264 . S
O63 Mg56 1.986 . S
O63 C67 1.246 . S
O64 Mg59 2.032 . S
O64 C67 1.259 . S
O65 Mg56 2.114 . S
O65 C68 1.252 . S
O66 Mg56 2.251 . S
O66 Mg59 2.079 . S
O66 C68 1.273 . S
C67 O63 1.246 . S
C67 O64 1.259 . S
C68 O65 1.252 . S
C68 O66 1.273 . S
O69 Mg56 2.010 . S
O69 C61 1.249 . S
Mg70 O71 2.028 . S
Mg70 O77 1.986 . S
Mg70 O79 2.114 . S
Mg70 O80 2.251 . S
Mg70 O83 2.010 . S
O71 Mg70 2.028 . S
O71 C74 1.250 . S
O72 Mg73 2.028 . S
O72 C74 1.248 . S
Mg73 O72 2.028 . S
Mg73 O78 2.032 . S
Mg73 O80 2.079 . S
C74 O71 1.250 . S
C74 O72 1.248 . S
C75 O76 1.264 . S
C75 O83 1.249 . S
O76 C75 1.264 . S
O77 Mg70 1.986 . S
O77 C81 1.246 . S
O78 Mg73 2.032 . S
O78 C81 1.259 . S
O79 Mg70 2.114 . S
O79 C82 1.252 . S
O80 Mg70 2.251 . S
O80 Mg73 2.079 . S
O80 C82 1.273 . S
C81 O77 1.246 . S
C81 O78 1.259 . S
C82 O79 1.252 . S
C82 O80 1.273 . S
O83 Mg70 2.010 . S
O83 C75 1.249 . S
Mg84 O85 2.028 . S
Mg84 O91 1.986 . S
Mg84 O93 2.114 . S
Mg84 O94 2.251 . S
Mg84 O97 2.010 . S
O85 Mg84 2.028 . S
O85 C88 1.250 . S
O86 Mg87 2.028 . S
O86 C88 1.248 . S
Mg87 O86 2.028 . S
Mg87 O92 2.032 . S
Mg87 O94 2.079 . S
C88 O85 1.250 . S
C88 O86 1.248 . S
C89 O90 1.264 . S
C89 O97 1.249 . S
O90 C89 1.264 . S
O91 Mg84 1.986 . S
O91 C95 1.246 . S
O92 Mg87 2.032 . S
O92 C95 1.259 . S
O93 Mg84 2.114 . S
O93 C96 1.252 . S
O94 Mg84 2.251 . S
O94 Mg87 2.079 . S
O94 C96 1.273 . S
C95 O91 1.246 . S
C95 O92 1.259 . S
C96 O93 1.252 . S
C96 O94 1.273 . S
O97 Mg84 2.010 . S
O97 C89 1.249 . S
Mg98 O99 2.028 . S
Mg98 O105 1.986 . S
Mg98 O107 2.114 . S
Mg98 O108 2.251 . S
Mg98 O111 2.010 . S
O99 Mg98 2.028 . S
O99 C102 1.250 . S
O100 Mg101 2.028 . S
O100 C102 1.248 . S
Mg101 O100 2.028 . S
Mg101 O106 2.032 . S
Mg101 O108 2.079 . S
C102 O99 1.250 . S
C102 O100 1.248 . S
C103 O104 1.264 . S
C103 O111 1.249 . S
O104 C103 1.264 . S
O105 Mg98 1.986 . S
O105 C109 1.246 . S
O106 Mg101 2.032 . S
O106 C109 1.259 . S
O107 Mg98 2.114 . S
O107 C110 1.252 . S
O108 Mg98 2.251 . S
O108 Mg101 2.079 . S
O108 C110 1.273 . S
C109 O105 1.246 . S
C109 O106 1.259 . S
C110 O107 1.252 . S
C110 O108 1.273 . S
O111 Mg98 2.010 . S
O111 C103 1.249 . S
Mg112 O113 2.028 . S
Mg112 O119 1.986 . S
Mg112 O121 2.114 . S
Mg112 O122 2.251 . S
Mg112 O125 2.010 . S
O113 Mg112 2.028 . S
O113 C116 1.250 1_565 S
O114 Mg115 2.028 . S
O114 C116 1.248 . S
Mg115 O114 2.028 . S
Mg115 O120 2.032 1_545 S
Mg115 O122 2.079 1_545 S
C116 O113 1.250 1_545 S
C116 O114 1.248 . S
C117 O118 1.264 . S
C117 O125 1.249 . S
O118 C117 1.264 . S
O119 Mg112 1.986 . S
O119 C123 1.246 . S
O120 Mg115 2.032 1_565 S
O120 C123 1.259 . S
O121 Mg112 2.114 . S
O121 C124 1.252 . S
O122 Mg112 2.251 . S
O122 Mg115 2.079 1_565 S
O122 C124 1.273 . S
C123 O119 1.246 . S
C123 O120 1.259 . S
C124 O121 1.252 . S
C124 O122 1.273 . S
O125 Mg112 2.010 . S
O125 C117 1.249 . S
Mg126 O127 2.028 . S
Mg126 O133 1.986 . S
Mg126 O135 2.114 . S
Mg126 O136 2.251 . S
Mg126 O139 2.010 . S
O127 Mg126 2.028 . S
O127 C130 1.250 . S
O128 Mg129 2.028 . S
O128 C130 1.248 . S
Mg129 O128 2.028 . S
Mg129 O134 2.032 . S
Mg129 O136 2.079 . S
C130 O127 1.250 . S
C130 O128 1.248 . S
C131 O132 1.264 . S
C131 O139 1.249 . S
O132 C131 1.264 . S
O133 Mg126 1.986 . S
O133 C137 1.246 . S
O134 Mg129 2.032 . S
O134 C137 1.259 . S
O135 Mg126 2.114 . S
O135 C138 1.252 . S
O136 Mg126 2.251 . S
O136 Mg129 2.079 . S
O136 C138 1.273 . S
C137 O133 1.246 . S
C137 O134 1.259 . S
C138 O135 1.252 . S
C138 O136 1.273 . S
O139 Mg126 2.010 . S
O139 C131 1.249 . S
Mg140 O141 2.028 . S
Mg140 O147 1.986 . S
Mg140 O149 2.114 . S
Mg140 O150 2.251 . S
Mg140 O153 2.010 . S
O141 Mg140 2.028 . S
O141 C144 1.250 1_545 S
O142 Mg143 2.028 . S
O142 C144 1.248 . S
Mg143 O142 2.028 . S
Mg143 O148 2.032 1_565 S
Mg143 O150 2.079 1_565 S
C144 O141 1.250 1_565 S
C144 O142 1.248 . S
C145 O146 1.264 . S
C145 O153 1.249 . S
O146 C145 1.264 . S
O147 Mg140 1.986 . S
O147 C151 1.246 . S
O148 Mg143 2.032 1_545 S
O148 C151 1.259 . S
O149 Mg140 2.114 . S
O149 C152 1.252 . S
O150 Mg140 2.251 . S
O150 Mg143 2.079 1_545 S
O150 C152 1.273 . S
C151 O147 1.246 . S
C151 O148 1.259 . S
C152 O149 1.252 . S
C152 O150 1.273 . S
O153 Mg140 2.010 . S
O153 C145 1.249 . S
Mg154 O155 2.028 . S
Mg154 O161 1.986 . S
Mg154 O163 2.114 . S
Mg154 O164 2.251 . S
Mg154 O167 2.010 . S
O155 Mg154 2.028 . S
O155 C158 1.250 . S
O156 Mg157 2.028 . S
O156 C158 1.248 . S
Mg157 O156 2.028 . S
Mg157 O162 2.032 . S
Mg157 O164 2.079 . S
C158 O155 1.250 . S
C158 O156 1.248 . S
C159 O160 1.264 . S
C159 O167 1.249 . S
O160 C159 1.264 . S
O161 Mg154 1.986 . S
O161 C165 1.246 . S
O162 Mg157 2.032 . S
O162 C165 1.259 . S
O163 Mg154 2.114 . S
O163 C166 1.252 . S
O164 Mg154 2.251 . S
O164 Mg157 2.079 . S
O164 C166 1.273 . S
C165 O161 1.246 . S
C165 O162 1.259 . S
C166 O163 1.252 . S
C166 O164 1.273 . S
O167 Mg154 2.010 . S
O167 C159 1.249 . S
Mg168 O169 2.028 . S
Mg168 O175 1.986 . S
Mg168 O177 2.114 . S
Mg168 O178 2.251 . S
Mg168 O181 2.010 . S
O169 Mg168 2.028 . S
O169 C172 1.250 1_545 S
O170 Mg171 2.028 . S
O170 C172 1.248 . S
Mg171 O170 2.028 . S
Mg171 O176 2.032 1_565 S
Mg171 O178 2.079 1_565 S
C172 O169 1.250 1_565 S
C172 O170 1.248 . S
C173 O174 1.264 . S
C173 O181 1.249 . S
O174 C173 1.264 . S
O175 Mg168 1.986 . S
O175 C179 1.246 . S
O176 Mg171 2.032 1_545 S
O176 C179 1.259 . S
O177 Mg168 2.114 . S
O177 C180 1.252 . S
O178 Mg168 2.251 . S
O178 Mg171 2.079 1_545 S
O178 C180 1.273 . S
C179 O175 1.246 . S
C179 O176 1.259 . S
C180 O177 1.252 . S
C180 O178 1.273 . S
O181 Mg168 2.010 . S
O181 C173 1.249 . S
Mg182 O183 2.028 . S
Mg182 O189 1.986 . S
Mg182 O191 2.114 . S
Mg182 O192 2.251 . S
Mg182 O195 2.010 . S
O183 Mg182 2.028 . S
O183 C186 1.250 . S
O184 Mg185 2.028 . S
O184 C186 1.248 . S
Mg185 O184 2.028 . S
Mg185 O190 2.032 . S
Mg185 O192 2.079 . S
C186 O183 1.250 . S
C186 O184 1.248 . S
C187 O188 1.264 . S
C187 O195 1.249 . S
O188 C187 1.264 . S
O189 Mg182 1.986 . S
O189 C193 1.246 . S
O190 Mg185 2.032 . S
O190 C193 1.259 . S
O191 Mg182 2.114 . S
O191 C194 1.252 . S
O192 Mg182 2.251 . S
O192 Mg185 2.079 . S
O192 C194 1.273 . S
C193 O189 1.246 . S
C193 O190 1.259 . S
C194 O191 1.252 . S
C194 O192 1.273 . S
O195 Mg182 2.010 . S
O195 C187 1.249 . S
Mg196 O197 2.028 . S
Mg196 O203 1.986 . S
Mg196 O205 2.114 . S
Mg196 O206 2.251 . S
Mg196 O209 2.010 . S
O197 Mg196 2.028 . S
O197 C200 1.250 1_565 S
O198 Mg199 2.028 . S
O198 C200 1.248 . S
Mg199 O198 2.028 . S
Mg199 O204 2.032 1_545 S
Mg199 O206 2.079 1_545 S
C200 O197 1.250 1_545 S
C200 O198 1.248 . S
C201 O202 1.264 . S
C201 O209 1.249 . S
O202 C201 1.264 . S
O203 Mg196 1.986 . S
O203 C207 1.246 . S
O204 Mg199 2.032 1_565 S
O204 C207 1.259 . S
O205 Mg196 2.114 . S
O205 C208 1.252 . S
O206 Mg196 2.251 . S
O206 Mg199 2.079 1_565 S
O206 C208 1.273 . S
C207 O203 1.246 . S
C207 O204 1.259 . S
C208 O205 1.252 . S
C208 O206 1.273 . S
O209 Mg196 2.010 . S
O209 C201 1.249 . S
Mg210 O211 2.028 . S
Mg210 O217 1.986 . S
Mg210 O219 2.114 . S
Mg210 O220 2.251 . S
Mg210 O223 2.010 . S
O211 Mg210 2.028 . S
O211 C214 1.250 . S
O212 Mg213 2.028 . S
O212 C214 1.248 . S
Mg213 O212 2.028 . S
Mg213 O218 2.032 . S
Mg213 O220 2.079 . S
C214 O211 1.250 . S
C214 O212 1.248 . S
C215 O216 1.264 . S
C215 O223 1.249 . S
O216 C215 1.264 . S
O217 Mg210 1.986 . S
O217 C221 1.246 . S
O218 Mg213 2.032 . S
O218 C221 1.259 . S
O219 Mg210 2.114 . S
O219 C222 1.252 . S
O220 Mg210 2.251 . S
O220 Mg213 2.079 . S
O220 C222 1.273 . S
C221 O217 1.246 . S
C221 O218 1.259 . S
C222 O219 1.252 . S
C222 O220 1.273 . S
O223 Mg210 2.010 . S
O223 C215 1.249 . S
H224 C230 0.930 . S
H225 C233 0.930 . S
H226 C234 0.930 . S
H227 C235 0.930 . S
H228 C238 0.930 . S
H229 C239 0.930 . S
C230 H224 0.930 . S
C230 C231 1.355 . S
C230 C232 1.415 . S
C231 C230 1.355 . S
C231 C233 1.419 . S
C232 C230 1.415 . S
C232 C237 1.425 . S
C232 C239 1.409 . S
C233 H225 0.930 . S
C233 C231 1.419 . S
C233 C234 1.362 . S
C234 H226 0.930 . S
C234 C233 1.362 . S
C234 C237 1.409 . S
C235 H227 0.930 . S
C235 C236 1.355 . S
C235 C237 1.415 . S
C236 C235 1.355 . S
C236 C238 1.419 . S
C237 C232 1.425 . S
C237 C234 1.409 . S
C237 C235 1.415 . S
C238 H228 0.930 . S
C238 C236 1.419 . S
C238 C239 1.362 . S
C239 H229 0.930 . S
C239 C232 1.409 . S
C239 C238 1.362 . S
H240 C246 0.930 . S
H241 C249 0.930 . S
H242 C250 0.930 . S
H243 C251 0.930 . S
H244 C254 0.930 . S
H245 C255 0.930 . S
C246 H240 0.930 . S
C246 C247 1.355 . S
C246 C248 1.415 . S
C247 C246 1.355 . S
C247 C249 1.419 . S
C248 C246 1.415 . S
C248 C253 1.425 . S
C248 C255 1.409 . S
C249 H241 0.930 . S
C249 C247 1.419 . S
C249 C250 1.362 . S
C250 H242 0.930 . S
C250 C249 1.362 . S
C250 C253 1.409 . S
C251 H243 0.930 . S
C251 C252 1.355 . S
C251 C253 1.415 . S
C252 C251 1.355 . S
C252 C254 1.419 . S
C253 C248 1.425 . S
C253 C250 1.409 . S
C253 C251 1.415 . S
C254 H244 0.930 . S
C254 C252 1.419 . S
C254 C255 1.362 . S
C255 H245 0.930 . S
C255 C248 1.409 . S
C255 C254 1.362 . S
H256 C262 0.930 . S
H257 C265 0.930 . S
H258 C266 0.930 . S
H259 C267 0.930 . S
H260 C270 0.930 . S
H261 C271 0.930 . S
C262 H256 0.930 . S
C262 C263 1.355 . S
C262 C264 1.415 . S
C263 C262 1.355 . S
C263 C265 1.419 . S
C264 C262 1.415 . S
C264 C269 1.425 . S
C264 C271 1.409 . S
C265 H257 0.930 . S
C265 C263 1.419 . S
C265 C266 1.362 . S
C266 H258 0.930 . S
C266 C265 1.362 . S
C266 C269 1.409 . S
C267 H259 0.930 . S
C267 C268 1.355 . S
C267 C269 1.415 . S
C268 C267 1.355 . S
C268 C270 1.419 . S
C269 C264 1.425 . S
C269 C266 1.409 . S
C269 C267 1.415 . S
C270 H260 0.930 . S
C270 C268 1.419 . S
C270 C271 1.362 . S
C271 H261 0.930 . S
C271 C264 1.409 . S
C271 C270 1.362 . S
H272 C278 0.930 . S
H273 C281 0.930 . S
H274 C282 0.930 . S
H275 C283 0.930 . S
H276 C286 0.930 . S
H277 C287 0.930 . S
C278 H272 0.930 . S
C278 C279 1.355 . S
C278 C280 1.415 . S
C279 C278 1.355 . S
C279 C281 1.419 . S
C280 C278 1.415 . S
C280 C285 1.425 . S
C280 C287 1.409 . S
C281 H273 0.930 . S
C281 C279 1.419 . S
C281 C282 1.362 . S
C282 H274 0.930 . S
C282 C281 1.362 . S
C282 C285 1.409 . S
C283 H275 0.930 . S
C283 C284 1.355 . S
C283 C285 1.415 . S
C284 C283 1.355 . S
C284 C286 1.419 . S
C285 C280 1.425 . S
C285 C282 1.409 . S
C285 C283 1.415 . S
C286 H276 0.930 . S
C286 C284 1.419 . S
C286 C287 1.362 . S
C287 H277 0.930 . S
C287 C280 1.409 . S
C287 C286 1.362 . S
H288 C294 0.930 . S
H289 C297 0.930 . S
H290 C298 0.930 . S
H291 C299 0.930 . S
H292 C302 0.930 . S
H293 C303 0.930 . S
C294 H288 0.930 . S
C294 C295 1.355 . S
C294 C296 1.415 . S
C295 C294 1.355 . S
C295 C297 1.419 . S
C296 C294 1.415 . S
C296 C301 1.425 . S
C296 C303 1.409 . S
C297 H289 0.930 . S
C297 C295 1.419 . S
C297 C298 1.362 . S
C298 H290 0.930 . S
C298 C297 1.362 . S
C298 C301 1.409 . S
C299 H291 0.930 . S
C299 C300 1.355 . S
C299 C301 1.415 . S
C300 C299 1.355 . S
C300 C302 1.419 . S
C301 C296 1.425 . S
C301 C298 1.409 . S
C301 C299 1.415 . S
C302 H292 0.930 . S
C302 C300 1.419 . S
C302 C303 1.362 . S
C303 H293 0.930 . S
C303 C296 1.409 . S
C303 C302 1.362 . S
H304 C310 0.930 . S
H305 C313 0.930 . S
H306 C314 0.930 . S
H307 C315 0.930 . S
H308 C318 0.930 . S
H309 C319 0.930 . S
C310 H304 0.930 . S
C310 C311 1.355 . S
C310 C312 1.415 . S
C311 C310 1.355 . S
C311 C313 1.419 . S
C312 C310 1.415 . S
C312 C317 1.425 . S
C312 C319 1.409 . S
C313 H305 0.930 . S
C313 C311 1.419 . S
C313 C314 1.362 . S
C314 H306 0.930 . S
C314 C313 1.362 . S
C314 C317 1.409 . S
C315 H307 0.930 . S
C315 C316 1.355 . S
C315 C317 1.415 . S
C316 C315 1.355 . S
C316 C318 1.419 . S
C317 C312 1.425 . S
C317 C314 1.409 . S
C317 C315 1.415 . S
C318 H308 0.930 . S
C318 C316 1.419 . S
C318 C319 1.362 . S
C319 H309 0.930 . S
C319 C312 1.409 . S
C319 C318 1.362 . S
H320 C326 0.930 . S
H321 C329 0.930 . S
H322 C330 0.930 . S
H323 C331 0.930 . S
H324 C334 0.930 . S
H325 C335 0.930 . S
C326 H320 0.930 . S
C326 C327 1.355 . S
C326 C328 1.415 . S
C327 C326 1.355 . S
C327 C329 1.419 . S
C328 C326 1.415 . S
C328 C333 1.425 . S
C328 C335 1.409 . S
C329 H321 0.930 . S
C329 C327 1.419 . S
C329 C330 1.362 . S
C330 H322 0.930 . S
C330 C329 1.362 . S
C330 C333 1.409 . S
C331 H323 0.930 . S
C331 C332 1.355 . S
C331 C333 1.415 . S
C332 C331 1.355 . S
C332 C334 1.419 . S
C333 C328 1.425 . S
C333 C330 1.409 . S
C333 C331 1.415 . S
C334 H324 0.930 . S
C334 C332 1.419 . S
C334 C335 1.362 . S
C335 H325 0.930 . S
C335 C328 1.409 . S
C335 C334 1.362 . S
H336 C342 0.930 . S
H337 C345 0.930 . S
H338 C346 0.930 . S
H339 C347 0.930 . S
H340 C350 0.930 . S
H341 C351 0.930 . S
C342 H336 0.930 . S
C342 C343 1.355 . S
C342 C344 1.415 . S
C343 C342 1.355 . S
C343 C345 1.419 . S
C344 C342 1.415 . S
C344 C349 1.425 . S
C344 C351 1.409 . S
C345 H337 0.930 . S
C345 C343 1.419 . S
C345 C346 1.362 . S
C346 H338 0.930 . S
C346 C345 1.362 . S
C346 C349 1.409 . S
C347 H339 0.930 . S
C347 C348 1.355 . S
C347 C349 1.415 . S
C348 C347 1.355 . S
C348 C350 1.419 . S
C349 C344 1.425 . S
C349 C346 1.409 . S
C349 C347 1.415 . S
C350 H340 0.930 . S
C350 C348 1.419 . S
C350 C351 1.362 . S
C351 H341 0.930 . S
C351 C344 1.409 . S
C351 C350 1.362 . S
H352 C358 0.930 . S
H353 C361 0.930 . S
H354 C362 0.930 . S
H355 C363 0.930 . S
H356 C366 0.930 . S
H357 C367 0.930 . S
C358 H352 0.930 . S
C358 C359 1.355 . S
C358 C360 1.415 . S
C359 C358 1.355 . S
C359 C361 1.419 . S
C360 C358 1.415 . S
C360 C365 1.425 . S
C360 C367 1.409 . S
C361 H353 0.930 . S
C361 C359 1.419 . S
C361 C362 1.362 . S
C362 H354 0.930 . S
C362 C361 1.362 . S
C362 C365 1.409 . S
C363 H355 0.930 . S
C363 C364 1.355 . S
C363 C365 1.415 . S
C364 C363 1.355 . S
C364 C366 1.419 . S
C365 C360 1.425 . S
C365 C362 1.409 . S
C365 C363 1.415 . S
C366 H356 0.930 . S
C366 C364 1.419 . S
C366 C367 1.362 . S
C367 H357 0.930 . S
C367 C360 1.409 . S
C367 C366 1.362 . S
H368 C374 0.930 . S
H369 C377 0.930 . S
H370 C378 0.930 . S
H371 C379 0.930 . S
H372 C382 0.930 . S
H373 C383 0.930 . S
C374 H368 0.930 . S
C374 C375 1.355 . S
C374 C376 1.415 . S
C375 C374 1.355 . S
C375 C377 1.419 . S
C376 C374 1.415 . S
C376 C381 1.425 . S
C376 C383 1.409 . S
C377 H369 0.930 . S
C377 C375 1.419 . S
C377 C378 1.362 . S
C378 H370 0.930 . S
C378 C377 1.362 . S
C378 C381 1.409 . S
C379 H371 0.930 . S
C379 C380 1.355 . S
C379 C381 1.415 . S
C380 C379 1.355 . S
C380 C382 1.419 . S
C381 C376 1.425 . S
C381 C378 1.409 . S
C381 C379 1.415 . S
C382 H372 0.930 . S
C382 C380 1.419 . S
C382 C383 1.362 . S
C383 H373 0.930 . S
C383 C376 1.409 . S
C383 C382 1.362 . S
H384 C390 0.930 . S
H385 C393 0.930 . S
H386 C394 0.930 . S
H387 C395 0.930 . S
H388 C398 0.930 . S
H389 C399 0.930 . S
C390 H384 0.930 . S
C390 C391 1.355 . S
C390 C392 1.415 . S
C391 C390 1.355 . S
C391 C393 1.419 . S
C392 C390 1.415 . S
C392 C397 1.425 . S
C392 C399 1.409 . S
C393 H385 0.930 . S
C393 C391 1.419 . S
C393 C394 1.362 . S
C394 H386 0.930 . S
C394 C393 1.362 . S
C394 C397 1.409 . S
C395 H387 0.930 . S
C395 C396 1.355 . S
C395 C397 1.415 . S
C396 C395 1.355 . S
C396 C398 1.419 . S
C397 C392 1.425 . S
C397 C394 1.409 . S
C397 C395 1.415 . S
C398 H388 0.930 . S
C398 C396 1.419 . S
C398 C399 1.362 . S
C399 H389 0.930 . S
C399 C392 1.409 . S
C399 C398 1.362 . S
H400 C406 0.930 . S
H401 C409 0.930 . S
H402 C410 0.930 . S
H403 C411 0.930 . S
H404 C414 0.930 . S
H405 C415 0.930 . S
C406 H400 0.930 . S
C406 C407 1.355 . S
C406 C408 1.415 . S
C407 C406 1.355 . S
C407 C409 1.419 . S
C408 C406 1.415 . S
C408 C413 1.425 . S
C408 C415 1.409 . S
C409 H401 0.930 . S
C409 C407 1.419 . S
C409 C410 1.362 . S
C410 H402 0.930 . S
C410 C409 1.362 . S
C410 C413 1.409 . S
C411 H403 0.930 . S
C411 C412 1.355 . S
C411 C413 1.415 . S
C412 C411 1.355 . S
C412 C414 1.419 . S
C413 C408 1.425 . S
C413 C410 1.409 . S
C413 C411 1.415 . S
C414 H404 0.930 . S
C414 C412 1.419 . S
C414 C415 1.362 . S
C415 H405 0.930 . S
C415 C408 1.409 . S
C415 C414 1.362 . S
H416 C422 0.930 . S
H417 C425 0.930 . S
H418 C426 0.930 . S
H419 C427 0.930 . S
H420 C430 0.930 . S
H421 C431 0.930 . S
C422 H416 0.930 . S
C422 C423 1.355 . S
C422 C424 1.415 . S
C423 C422 1.355 . S
C423 C425 1.419 . S
C424 C422 1.415 . S
C424 C429 1.425 . S
C424 C431 1.409 . S
C425 H417 0.930 . S
C425 C423 1.419 . S
C425 C426 1.362 . S
C426 H418 0.930 . S
C426 C425 1.362 . S
C426 C429 1.409 . S
C427 H419 0.930 . S
C427 C428 1.355 . S
C427 C429 1.415 . S
C428 C427 1.355 . S
C428 C430 1.419 . S
C429 C424 1.425 . S
C429 C426 1.409 . S
C429 C427 1.415 . S
C430 H420 0.930 . S
C430 C428 1.419 . S
C430 C431 1.362 . S
C431 H421 0.930 . S
C431 C424 1.409 . S
C431 C430 1.362 . S
H432 C438 0.930 . S
H433 C441 0.930 . S
H434 C442 0.930 . S
H435 C443 0.930 . S
H436 C446 0.930 . S
H437 C447 0.930 . S
C438 H432 0.930 . S
C438 C439 1.355 . S
C438 C440 1.415 . S
C439 C438 1.355 . S
C439 C441 1.419 . S
C440 C438 1.415 . S
C440 C445 1.425 . S
C440 C447 1.409 . S
C441 H433 0.930 . S
C441 C439 1.419 . S
C441 C442 1.362 . S
C442 H434 0.930 . S
C442 C441 1.362 . S
C442 C445 1.409 . S
C443 H435 0.930 . S
C443 C444 1.355 . S
C443 C445 1.415 . S
C444 C443 1.355 . S
C444 C446 1.419 . S
C445 C440 1.425 . S
C445 C442 1.409 . S
C445 C443 1.415 . S
C446 H436 0.930 . S
C446 C444 1.419 . S
C446 C447 1.362 . S
C447 H437 0.930 . S
C447 C440 1.409 . S
C447 C446 1.362 . S
H448 C454 0.930 . S
H449 C457 0.930 . S
H450 C458 0.930 . S
H451 C459 0.930 . S
H452 C462 0.930 . S
H453 C463 0.930 . S
C454 H448 0.930 . S
C454 C455 1.355 . S
C454 C456 1.415 . S
C455 C454 1.355 . S
C455 C457 1.419 . S
C456 C454 1.415 . S
C456 C461 1.425 . S
C456 C463 1.409 . S
C457 H449 0.930 . S
C457 C455 1.419 . S
C457 C458 1.362 . S
C458 H450 0.930 . S
C458 C457 1.362 . S
C458 C461 1.409 . S
C459 H451 0.930 . S
C459 C460 1.355 . S
C459 C461 1.415 . S
C460 C459 1.355 . S
C460 C462 1.419 . S
C461 C456 1.425 . S
C461 C458 1.409 . S
C461 C459 1.415 . S
C462 H452 0.930 . S
C462 C460 1.419 . S
C462 C463 1.362 . S
C463 H453 0.930 . S
C463 C456 1.409 . S
C463 C462 1.362 . S
H464 C470 0.930 . S
H465 C473 0.930 . S
H466 C474 0.930 . S
H467 C475 0.930 . S
H468 C478 0.930 . S
H469 C479 0.930 . S
C470 H464 0.930 . S
C470 C471 1.355 . S
C470 C472 1.415 . S
C471 C470 1.355 . S
C471 C473 1.419 . S
C472 C470 1.415 . S
C472 C477 1.425 . S
C472 C479 1.409 . S
C473 H465 0.930 . S
C473 C471 1.419 . S
C473 C474 1.362 . S
C474 H466 0.930 . S
C474 C473 1.362 . S
C474 C477 1.409 . S
C475 H467 0.930 . S
C475 C476 1.355 . S
C475 C477 1.415 . S
C476 C475 1.355 . S
C476 C478 1.419 . S
C477 C472 1.425 . S
C477 C474 1.409 . S
C477 C475 1.415 . S
C478 H468 0.930 . S
C478 C476 1.419 . S
C478 C479 1.362 . S
C479 H469 0.930 . S
C479 C472 1.409 . S
C479 C478 1.362 . S
H480 C486 0.930 . S
H481 C489 0.930 . S
H482 C490 0.930 . S
H483 C491 0.930 . S
H484 C494 0.930 . S
H485 C495 0.930 . S
C486 H480 0.930 . S
C486 C487 1.355 . S
C486 C488 1.415 . S
C487 C486 1.355 . S
C487 C489 1.419 . S
C488 C486 1.415 . S
C488 C493 1.425 . S
C488 C495 1.409 . S
C489 H481 0.930 . S
C489 C487 1.419 . S
C489 C490 1.362 . S
C490 H482 0.930 . S
C490 C489 1.362 . S
C490 C493 1.409 . S
C491 H483 0.930 . S
C491 C492 1.355 . S
C491 C493 1.415 . S
C492 C491 1.355 . S
C492 C494 1.419 . S
C493 C488 1.425 . S
C493 C490 1.409 . S
C493 C491 1.415 . S
C494 H484 0.930 . S
C494 C492 1.419 . S
C494 C495 1.362 . S
C495 H485 0.930 . S
C495 C488 1.409 . S
C495 C494 1.362 . S
H496 C502 0.930 . S
H497 C505 0.930 . S
H498 C506 0.930 . S
H499 C507 0.930 1_655 S
H500 C510 0.930 . S
H501 C511 0.930 . S
C502 H496 0.930 . S
C502 C503 1.355 . S
C502 C504 1.415 . S
C503 C502 1.355 . S
C503 C505 1.419 . S
C504 C502 1.415 . S
C504 C509 1.425 . S
C504 C511 1.409 . S
C505 H497 0.930 . S
C505 C503 1.419 . S
C505 C506 1.362 . S
C506 H498 0.930 . S
C506 C505 1.362 . S
C506 C509 1.409 . S
C507 H499 0.930 1_455 S
C507 C508 1.355 . S
C507 C509 1.415 . S
C508 C507 1.355 . S
C508 C510 1.419 . S
C509 C504 1.425 . S
C509 C506 1.409 . S
C509 C507 1.415 . S
C510 H500 0.930 . S
C510 C508 1.419 . S
C510 C511 1.362 . S
C511 H501 0.930 . S
C511 C504 1.409 . S
C511 C510 1.362 . S
H512 C518 0.930 . S
H513 C521 0.930 1_545 S
H514 C522 0.930 . S
H515 C523 0.930 . S
H516 C526 0.930 . S
H517 C527 0.930 . S
C518 H512 0.930 . S
C518 C519 1.355 . S
C518 C520 1.415 . S
C519 C518 1.355 . S
C519 C521 1.419 . S
C520 C518 1.415 . S
C520 C525 1.425 . S
C520 C527 1.409 . S
C521 H513 0.930 1_565 S
C521 C519 1.419 . S
C521 C522 1.362 . S
C522 H514 0.930 . S
C522 C521 1.362 . S
C522 C525 1.409 . S
C523 H515 0.930 . S
C523 C524 1.355 . S
C523 C525 1.415 . S
C524 C523 1.355 . S
C524 C526 1.419 . S
C525 C520 1.425 . S
C525 C522 1.409 . S
C525 C523 1.415 . S
C526 H516 0.930 . S
C526 C524 1.419 . S
C526 C527 1.362 . S
C527 H517 0.930 . S
C527 C520 1.409 . S
C527 C526 1.362 . S
H528 C534 0.930 . S
H529 C537 0.930 . S
H530 C538 0.930 . S
H531 C539 0.930 . S
H532 C542 0.930 . S
H533 C543 0.930 . S
C534 H528 0.930 . S
C534 C535 1.355 . S
C534 C536 1.415 . S
C535 C534 1.355 . S
C535 C537 1.419 . S
C536 C534 1.415 . S
C536 C541 1.425 . S
C536 C543 1.409 . S
C537 H529 0.930 . S
C537 C535 1.419 . S
C537 C538 1.362 . S
C538 H530 0.930 . S
C538 C537 1.362 . S
C538 C541 1.409 . S
C539 H531 0.930 . S
C539 C540 1.355 . S
C539 C541 1.415 . S
C540 C539 1.355 . S
C540 C542 1.419 1_655 S
C541 C536 1.425 . S
C541 C538 1.409 . S
C541 C539 1.415 . S
C542 H532 0.930 . S
C542 C540 1.419 1_455 S
C542 C543 1.362 1_455 S
C543 H533 0.930 . S
C543 C536 1.409 . S
C543 C542 1.362 1_655 S
H544 C550 0.930 . S
H545 C553 0.930 1_545 S
H546 C554 0.930 . S
H547 C555 0.930 . S
H548 C558 0.930 . S
H549 C559 0.930 . S
C550 H544 0.930 . S
C550 C551 1.355 . S
C550 C552 1.415 . S
C551 C550 1.355 . S
C551 C553 1.419 . S
C552 C550 1.415 . S
C552 C557 1.425 . S
C552 C559 1.409 . S
C553 H545 0.930 1_565 S
C553 C551 1.419 . S
C553 C554 1.362 . S
C554 H546 0.930 . S
C554 C553 1.362 . S
C554 C557 1.409 . S
C555 H547 0.930 . S
C555 C556 1.355 . S
C555 C557 1.415 . S
C556 C555 1.355 . S
C556 C558 1.419 . S
C557 C552 1.425 . S
C557 C554 1.409 . S
C557 C555 1.415 . S
C558 H548 0.930 . S
C558 C556 1.419 . S
C558 C559 1.362 . S
C559 H549 0.930 . S
C559 C552 1.409 . S
C559 C558 1.362 . S
H560 C566 0.930 . S
H561 C569 0.930 . S
H562 C570 0.930 . S
H563 C571 0.930 1_455 S
H564 C574 0.930 . S
H565 C575 0.930 . S
C566 H560 0.930 . S
C566 C567 1.355 . S
C566 C568 1.415 . S
C567 C566 1.355 . S
C567 C569 1.419 . S
C568 C566 1.415 . S
C568 C573 1.425 . S
C568 C575 1.409 . S
C569 H561 0.930 . S
C569 C567 1.419 . S
C569 C570 1.362 . S
C570 H562 0.930 . S
C570 C569 1.362 . S
C570 C573 1.409 . S
C571 H563 0.930 1_655 S
C571 C572 1.355 . S
C571 C573 1.415 . S
C572 C571 1.355 . S
C572 C574 1.419 . S
C573 C568 1.425 . S
C573 C570 1.409 . S
C573 C571 1.415 . S
C574 H564 0.930 . S
C574 C572 1.419 . S
C574 C575 1.362 . S
C575 H565 0.930 . S
C575 C568 1.409 . S
C575 C574 1.362 . S
H576 C582 0.930 . S
H577 C585 0.930 . S
H578 C586 0.930 . S
H579 C587 0.930 . S
H580 C590 0.930 . S
H581 C591 0.930 . S
C582 H576 0.930 . S
C582 C583 1.355 . S
C582 C584 1.415 . S
C583 C582 1.355 . S
C583 C585 1.419 . S
C584 C582 1.415 . S
C584 C589 1.425 . S
C584 C591 1.409 . S
C585 H577 0.930 . S
C585 C583 1.419 . S
C585 C586 1.362 . S
C586 H578 0.930 . S
C586 C585 1.362 . S
C586 C589 1.409 . S
C587 H579 0.930 . S
C587 C588 1.355 . S
C587 C589 1.415 . S
C588 C587 1.355 . S
C588 C590 1.419 . S
C589 C584 1.425 . S
C589 C586 1.409 . S
C589 C587 1.415 . S
C590 H580 0.930 . S
C590 C588 1.419 . S
C590 C591 1.362 . S
C591 H581 0.930 . S
C591 C584 1.409 . S
C591 C590 1.362 . S
H592 C598 0.930 . S
H593 C601 0.930 . S
H594 C602 0.930 . S
H595 C603 0.930 . S
H596 C606 0.930 . S
H597 C607 0.930 1_655 S
C598 H592 0.930 . S
C598 C599 1.355 . S
C598 C600 1.415 . S
C599 C598 1.355 . S
C599 C601 1.419 . S
C600 C598 1.415 . S
C600 C605 1.425 . S
C600 C607 1.409 . S
C601 H593 0.930 . S
C601 C599 1.419 . S
C601 C602 1.362 . S
C602 H594 0.930 . S
C602 C601 1.362 . S
C602 C605 1.409 . S
C603 H595 0.930 . S
C603 C604 1.355 . S
C603 C605 1.415 . S
C604 C603 1.355 . S
C604 C606 1.419 1_455 S
C605 C600 1.425 . S
C605 C602 1.409 . S
C605 C603 1.415 . S
C606 H596 0.930 . S
C606 C604 1.419 1_655 S
C606 C607 1.362 1_655 S
C607 H597 0.930 1_455 S
C607 C600 1.409 . S
C607 C606 1.362 1_455 S
H608 C614 0.930 . S
H609 C617 0.930 . S
H610 C618 0.930 . S
H611 C619 0.930 . S
H612 C622 0.930 . S
H613 C623 0.930 . S
C614 H608 0.930 . S
C614 C615 1.355 . S
C614 C616 1.415 . S
C615 C614 1.355 . S
C615 C617 1.419 . S
C616 C614 1.415 . S
C616 C621 1.425 . S
C616 C623 1.409 . S
C617 H609 0.930 . S
C617 C615 1.419 . S
C617 C618 1.362 . S
C618 H610 0.930 . S
C618 C617 1.362 . S
C618 C621 1.409 . S
C619 H611 0.930 . S
C619 C620 1.355 . S
C619 C621 1.415 . S
C620 C619 1.355 . S
C620 C622 1.419 . S
C621 C616 1.425 . S
C621 C618 1.409 . S
C621 C619 1.415 . S
C622 H612 0.930 . S
C622 C620 1.419 . S
C622 C623 1.362 . S
C623 H613 0.930 . S
C623 C616 1.409 . S
C623 C622 1.362 . S
H624 C630 0.930 . S
H625 C633 0.930 . S
H626 C634 0.930 . S
H627 C635 0.930 . S
H628 C638 0.930 . S
H629 C639 0.930 . S
C630 H624 0.930 . S
C630 C631 1.355 . S
C630 C632 1.415 . S
C631 C630 1.355 . S
C631 C633 1.419 . S
C632 C630 1.415 . S
C632 C637 1.425 . S
C632 C639 1.409 . S
C633 H625 0.930 . S
C633 C631 1.419 . S
C633 C634 1.362 . S
C634 H626 0.930 . S
C634 C633 1.362 . S
C634 C637 1.409 . S
C635 H627 0.930 . S
C635 C636 1.355 . S
C635 C637 1.415 . S
C636 C635 1.355 . S
C636 C638 1.419 . S
C637 C632 1.425 . S
C637 C634 1.409 . S
C637 C635 1.415 . S
C638 H628 0.930 . S
C638 C636 1.419 . S
C638 C639 1.362 . S
C639 H629 0.930 . S
C639 C632 1.409 . S
C639 C638 1.362 . S
H640 C646 0.930 . S
H641 C649 0.930 . S
H642 C650 0.930 . S
H643 C651 0.930 . S
H644 C654 0.930 . S
H645 C655 0.930 . S
C646 H640 0.930 . S
C646 C647 1.355 . S
C646 C648 1.415 . S
C647 C646 1.355 . S
C647 C649 1.419 . S
C648 C646 1.415 . S
C648 C653 1.425 . S
C648 C655 1.409 . S
C649 H641 0.930 . S
C649 C647 1.419 . S
C649 C650 1.362 . S
C650 H642 0.930 . S
C650 C649 1.362 . S
C650 C653 1.409 . S
C651 H643 0.930 . S
C651 C652 1.355 . S
C651 C653 1.415 . S
C652 C651 1.355 . S
C652 C654 1.419 . S
C653 C648 1.425 . S
C653 C650 1.409 . S
C653 C651 1.415 . S
C654 H644 0.930 . S
C654 C652 1.419 . S
C654 C655 1.362 . S
C655 H645 0.930 . S
C655 C648 1.409 . S
C655 C654 1.362 . S
H656 C662 0.930 . S
H657 C665 0.930 . S
H658 C666 0.930 . S
H659 C667 0.930 . S
H660 C670 0.930 . S
H661 C671 0.930 . S
C662 H656 0.930 . S
C662 C663 1.355 . S
C662 C664 1.415 . S
C663 C662 1.355 . S
C663 C665 1.419 . S
C664 C662 1.415 . S
C664 C669 1.425 . S
C664 C671 1.409 . S
C665 H657 0.930 . S
C665 C663 1.419 . S
C665 C666 1.362 . S
C666 H658 0.930 . S
C666 C665 1.362 . S
C666 C669 1.409 . S
C667 H659 0.930 . S
C667 C668 1.355 . S
C667 C669 1.415 . S
C668 C667 1.355 . S
C668 C670 1.419 . S
C669 C664 1.425 . S
C669 C666 1.409 . S
C669 C667 1.415 . S
C670 H660 0.930 . S
C670 C668 1.419 . S
C670 C671 1.362 . S
C671 H661 0.930 . S
C671 C664 1.409 . S
C671 C670 1.362 . S
H672 C678 0.930 . S
H673 C681 0.930 . S
H674 C682 0.930 . S
H675 C683 0.930 . S
H676 C686 0.930 . S
H677 C687 0.930 . S
C678 H672 0.930 . S
C678 C679 1.355 . S
C678 C680 1.415 . S
C679 C678 1.355 . S
C679 C681 1.419 . S
C680 C678 1.415 . S
C680 C685 1.425 1_544 S
C680 C687 1.409 1_554 S
C681 H673 0.930 . S
C681 C679 1.419 . S
C681 C682 1.362 1_545 S
C682 H674 0.930 . S
C682 C681 1.362 1_565 S
C682 C685 1.409 1_554 S
C683 H675 0.930 . S
C683 C684 1.355 . S
C683 C685 1.415 . S
C684 C683 1.355 . S
C684 C686 1.419 . S
C685 C680 1.425 1_566 S
C685 C682 1.409 1_556 S
C685 C683 1.415 . S
C686 H676 0.930 . S
C686 C684 1.419 . S
C686 C687 1.362 1_565 S
C687 H677 0.930 . S
C687 C680 1.409 1_556 S
C687 C686 1.362 1_545 S
H688 C694 0.930 . S
H689 C697 0.930 . S
H690 C698 0.930 . S
H691 C699 0.930 . S
H692 C702 0.930 . S
H693 C703 0.930 . S
C694 H688 0.930 . S
C694 C695 1.355 . S
C694 C696 1.415 . S
C695 C694 1.355 . S
C695 C697 1.419 . S
C696 C694 1.415 . S
C696 C701 1.425 1_456 S
C696 C703 1.409 1_556 S
C697 H689 0.930 . S
C697 C695 1.419 . S
C697 C698 1.362 1_455 S
C698 H690 0.930 . S
C698 C697 1.362 1_655 S
C698 C701 1.409 1_556 S
C699 H691 0.930 . S
C699 C700 1.355 . S
C699 C701 1.415 . S
C700 C699 1.355 . S
C700 C702 1.419 . S
C701 C696 1.425 1_654 S
C701 C698 1.409 1_554 S
C701 C699 1.415 . S
C702 H692 0.930 . S
C702 C700 1.419 . S
C702 C703 1.362 1_655 S
C703 H693 0.930 . S
C703 C696 1.409 1_554 S
C703 C702 1.362 1_455 S
H704 C710 0.930 . S
H705 C713 0.930 . S
H706 C714 0.930 1_554 S
H707 C715 0.930 . S
H708 C718 0.930 . S
H709 C719 0.930 1_556 S
C710 H704 0.930 . S
C710 C711 1.355 1_565 S
C710 C712 1.415 . S
C711 C710 1.355 1_545 S
C711 C713 1.419 . S
C712 C710 1.415 . S
C712 C717 1.425 1_566 S
C712 C719 1.409 1_556 S
C713 H705 0.930 . S
C713 C711 1.419 . S
C713 C714 1.362 . S
C714 H706 0.930 1_556 S
C714 C713 1.362 . S
C714 C717 1.409 1_556 S
C715 H707 0.930 . S
C715 C716 1.355 1_545 S
C715 C717 1.415 . S
C716 C715 1.355 1_565 S
C716 C718 1.419 . S
C717 C712 1.425 1_544 S
C717 C714 1.409 1_554 S
C717 C715 1.415 . S
C718 H708 0.930 . S
C718 C716 1.419 . S
C718 C719 1.362 . S
C719 H709 0.930 1_554 S
C719 C712 1.409 1_554 S
C719 C718 1.362 . S
H720 C726 0.930 . S
H721 C729 0.930 . S
H722 C730 0.930 . S
H723 C731 0.930 . S
H724 C734 0.930 . S
H725 C735 0.930 . S
C726 H720 0.930 . S
C726 C727 1.355 . S
C726 C728 1.415 1_556 S
C727 C726 1.355 . S
C727 C729 1.419 1_655 S
C728 C726 1.415 1_554 S
C728 C733 1.425 1_654 S
C728 C735 1.409 . S
C729 H721 0.930 . S
C729 C727 1.419 1_455 S
C729 C730 1.362 . S
C730 H722 0.930 . S
C730 C729 1.362 . S
C730 C733 1.409 . S
C731 H723 0.930 . S
C731 C732 1.355 . S
C731 C733 1.415 1_554 S
C732 C731 1.355 . S
C732 C734 1.419 1_455 S
C733 C728 1.425 1_456 S
C733 C730 1.409 . S
C733 C731 1.415 1_556 S
C734 H724 0.930 . S
C734 C732 1.419 1_655 S
C734 C735 1.362 . S
C735 H725 0.930 . S
C735 C728 1.409 . S
C735 C734 1.362 . S
C231 C11 1.399 . S
C236 C103 1.307 . S
C247 C19 1.314 . S
C252 C67 1.390 . S
C263 C75 1.290 . S
C268 C39 1.410 . S
C279 C47 1.290 . S
C284 C95 1.410 . S
C295 C123 1.398 . S
C300 C215 1.309 . S
C311 C179 1.409 . S
C316 C131 1.290 . S
C327 C187 1.366 . S
C332 C151 1.354 . S
C343 C207 1.391 . S
C348 C159 1.319 . S
C359 C4 1.288 . S
C364 C158 1.265 . S
C375 C26 1.093 . S
C380 C117 0.980 . S
C391 C130 1.276 . S
C396 C32 1.331 . S
C407 C54 1.068 . S
C412 C145 0.914 . S
C423 C60 1.336 . S
C428 C186 1.295 . S
C439 C201 0.924 . S
C444 C82 1.056 . S
C455 C88 1.287 . S
C460 C214 1.272 . S
C471 C173 1.039 . S
C476 C110 1.152 . S
C487 C116 1.289 . S
C492 C46 1.290 . S
C503 C5 1.009 . S
C508 C138 1.133 1_455 S
C519 C144 1.335 . S
C524 C18 1.311 . S
C535 C33 0.985 . S
C540 C166 1.096 1_655 S
C551 C172 1.337 . S
C556 C74 1.302 . S
C567 C89 1.071 . S
C572 C194 1.164 1_655 S
C583 C102 1.251 . S
C588 C200 1.295 . S
C599 C61 0.878 . S
C604 C222 1.032 1_455 S
C615 C68 1.408 . S
C620 C12 1.417 . S
C631 C81 1.633 . S
C636 C25 1.654 . S
C647 C40 1.412 . S
C652 C96 1.420 . S
C663 C109 1.645 . S
C668 C53 1.676 . S
C679 C180 1.407 . S
C684 C124 1.414 . S
C695 C193 1.675 . S
C700 C137 1.644 . S
C711 C152 1.412 . S
C716 C208 1.420 . S
C727 C221 1.636 . S
C732 C165 1.640 . S
