# Generated by pormake.
# Topology whw, (6)-cn, num edge types: 1
# Building blocks:
#     Node 0, Type 0, BuildingBlock: BETDIP_clean_sbu_0, # of connection points: 6
#     Node 1, Type 0, BuildingBlock: BETDIP_clean_sbu_0, # of connection points: 6
#     Node 2, Type 0, BuildingBlock: BETDIP_clean_sbu_0, # of connection points: 6
#     Node 3, Type 0, BuildingBlock: BETDIP_clean_sbu_0, # of connection points: 6
#     Node 4, Type 0, BuildingBlock: BETDIP_clean_sbu_0, # of connection points: 6
#     Node 5, Type 0, BuildingBlock: BETDIP_clean_sbu_0, # of connection points: 6
#     Node 6, Type 0, BuildingBlock: BETDIP_clean_sbu_0, # of connection points: 6
#     Node 7, Type 0, BuildingBlock: BETDIP_clean_sbu_0, # of connection points: 6
#     Node 8, Type 0, BuildingBlock: BETDIP_clean_sbu_0, # of connection points: 6
#     Node 9, Type 0, BuildingBlock: BETDIP_clean_sbu_0, # of connection points: 6
#     Node 10, Type 0, BuildingBlock: BETDIP_clean_sbu_0, # of connection points: 6
#     Node 11, Type 0, BuildingBlock: BETDIP_clean_sbu_0, # of connection points: 6
#     Node 12, Type 0, BuildingBlock: BETDIP_clean_sbu_0, # of connection points: 6
#     Node 13, Type 0, BuildingBlock: BETDIP_clean_sbu_0, # of connection points: 6
#     Node 14, Type 0, BuildingBlock: BETDIP_clean_sbu_0, # of connection points: 6
#     Node 15, Type 0, BuildingBlock: BETDIP_clean_sbu_0, # of connection points: 6
#     Edge 16, Type (0, 0), BuildingBlock: CIFDUS_clean_linker_0, # of connection points: 2
#     Edge 17, Type (0, 0), BuildingBlock: CIFDUS_clean_linker_0, # of connection points: 2
#     Edge 18, Type (0, 0), BuildingBlock: CIFDUS_clean_linker_0, # of connection points: 2
#     Edge 19, Type (0, 0), BuildingBlock: CIFDUS_clean_linker_0, # of connection points: 2
#     Edge 20, Type (0, 0), BuildingBlock: CIFDUS_clean_linker_0, # of connection points: 2
#     Edge 21, Type (0, 0), BuildingBlock: CIFDUS_clean_linker_0, # of connection points: 2
#     Edge 22, Type (0, 0), BuildingBlock: CIFDUS_clean_linker_0, # of connection points: 2
#     Edge 23, Type (0, 0), BuildingBlock: CIFDUS_clean_linker_0, # of connection points: 2
#     Edge 24, Type (0, 0), BuildingBlock: CIFDUS_clean_linker_0, # of connection points: 2
#     Edge 25, Type (0, 0), BuildingBlock: CIFDUS_clean_linker_0, # of connection points: 2
#     Edge 26, Type (0, 0), BuildingBlock: CIFDUS_clean_linker_0, # of connection points: 2
#     Edge 27, Type (0, 0), BuildingBlock: CIFDUS_clean_linker_0, # of connection points: 2
#     Edge 28, Type (0, 0), BuildingBlock: CIFDUS_clean_linker_0, # of connection points: 2
#     Edge 29, Type (0, 0), BuildingBlock: CIFDUS_clean_linker_0, # of connection points: 2
#     Edge 30, Type (0, 0), BuildingBlock: CIFDUS_clean_linker_0, # of connection points: 2
#     Edge 31, Type (0, 0), BuildingBlock: CIFDUS_clean_linker_0, # of connection points: 2
#     Edge 32, Type (0, 0), BuildingBlock: CIFDUS_clean_linker_0, # of connection points: 2
#     Edge 33, Type (0, 0), BuildingBlock: CIFDUS_clean_linker_0, # of connection points: 2
#     Edge 34, Type (0, 0), BuildingBlock: CIFDUS_clean_linker_0, # of connection points: 2
#     Edge 35, Type (0, 0), BuildingBlock: CIFDUS_clean_linker_0, # of connection points: 2
#     Edge 36, Type (0, 0), BuildingBlock: CIFDUS_clean_linker_0, # of connection points: 2
#     Edge 37, Type (0, 0), BuildingBlock: CIFDUS_clean_linker_0, # of connection points: 2
#     Edge 38, Type (0, 0), BuildingBlock: CIFDUS_clean_linker_0, # of connection points: 2
#     Edge 39, Type (0, 0), BuildingBlock: CIFDUS_clean_linker_0, # of connection points: 2
#     Edge 40, Type (0, 0), BuildingBlock: CIFDUS_clean_linker_0, # of connection points: 2
#     Edge 41, Type (0, 0), BuildingBlock: CIFDUS_clean_linker_0, # of connection points: 2
#     Edge 42, Type (0, 0), BuildingBlock: CIFDUS_clean_linker_0, # of connection points: 2
#     Edge 43, Type (0, 0), BuildingBlock: CIFDUS_clean_linker_0, # of connection points: 2
#     Edge 44, Type (0, 0), BuildingBlock: CIFDUS_clean_linker_0, # of connection points: 2
#     Edge 45, Type (0, 0), BuildingBlock: CIFDUS_clean_linker_0, # of connection points: 2
#     Edge 46, Type (0, 0), BuildingBlock: CIFDUS_clean_linker_0, # of connection points: 2
#     Edge 47, Type (0, 0), BuildingBlock: CIFDUS_clean_linker_0, # of connection points: 2
#     Edge 48, Type (0, 0), BuildingBlock: CIFDUS_clean_linker_0, # of connection points: 2
#     Edge 49, Type (0, 0), BuildingBlock: CIFDUS_clean_linker_0, # of connection points: 2
#     Edge 50, Type (0, 0), BuildingBlock: CIFDUS_clean_linker_0, # of connection points: 2
#     Edge 51, Type (0, 0), BuildingBlock: CIFDUS_clean_linker_0, # of connection points: 2
#     Edge 52, Type (0, 0), BuildingBlock: CIFDUS_clean_linker_0, # of connection points: 2
#     Edge 53, Type (0, 0), BuildingBlock: CIFDUS_clean_linker_0, # of connection points: 2
#     Edge 54, Type (0, 0), BuildingBlock: CIFDUS_clean_linker_0, # of connection points: 2
#     Edge 55, Type (0, 0), BuildingBlock: CIFDUS_clean_linker_0, # of connection points: 2
#     Edge 56, Type (0, 0), BuildingBlock: CIFDUS_clean_linker_0, # of connection points: 2
#     Edge 57, Type (0, 0), BuildingBlock: CIFDUS_clean_linker_0, # of connection points: 2
#     Edge 58, Type (0, 0), BuildingBlock: CIFDUS_clean_linker_0, # of connection points: 2
#     Edge 59, Type (0, 0), BuildingBlock: CIFDUS_clean_linker_0, # of connection points: 2
#     Edge 60, Type (0, 0), BuildingBlock: CIFDUS_clean_linker_0, # of connection points: 2
#     Edge 61, Type (0, 0), BuildingBlock: CIFDUS_clean_linker_0, # of connection points: 2
#     Edge 62, Type (0, 0), BuildingBlock: CIFDUS_clean_linker_0, # of connection points: 2
#     Edge 63, Type (0, 0), BuildingBlock: CIFDUS_clean_linker_0, # of connection points: 2
# Relax obj value: 0.500
# Max RMSD: 0.275
# Mean RMSD: 0.231
data_MOF--net-whw--node1-BETDIP_clean_sbu_0--edge1-CIFDUS_clean_linker_0
_symmetry_space_group_name_H-M    P1
_symmetry_Int_Tables_number       1
_symmetry_cell_setting            triclinic
loop_
_symmetry_equiv_pos_as_xyz
'x, y, z'
_cell_length_a     40.204014
_cell_length_b     39.871883
_cell_length_c     30.312725
_cell_angle_alpha  91.052219
_cell_angle_beta   75.877659
_cell_angle_gamma 103.24446
loop_
_atom_site_label
_atom_site_type_symbol
_atom_site_fract_x
_atom_site_fract_y
_atom_site_fract_z
_atom_type_partial_charge
Tb0 Tb 0.06198 0.11554 0.20148 0.0
Tb1 Tb 0.04291 0.12901 0.10916 0.0
C2 C 0.0786 0.12053 0.2784 0.0
C3 C 0.08016 0.13794 0.32372 0.0
C4 C 0.09497 0.17341 0.3269 0.0
C5 C 0.09957 0.18777 0.36907 0.0
C6 C 0.09008 0.16735 0.41016 0.0
C7 C 0.07501 0.13193 0.40672 0.0
C8 C 0.07015 0.1177 0.36473 0.0
C9 C 0.02535 0.06179 0.16475 0.0
C10 C -0.00361 0.14591 0.20224 0.0
C11 C 0.01552 0.14261 1.04608 0.0
C12 C 0.01289 0.15656 1.00103 0.0
C13 C 0.02414 0.14183 0.95902 0.0
C14 C 0.01666 0.15251 0.91879 0.0
C15 C -0.00318 0.17783 0.91888 0.0
C16 C -0.01325 0.19326 0.96095 0.0
C17 C -0.00531 0.18293 1.00088 0.0
C18 C 0.09663 0.17457 0.12988 0.0
C19 C 0.10496 0.094 0.10876 0.0
O20 O 0.09916 0.13557 0.2399 0.0
O21 O 0.04868 0.1018 0.27233 0.0
O22 O 0.0232 0.09263 0.16508 0.0
O23 O 0.04771 0.05943 0.18855 0.0
O24 O 0.02216 0.14523 0.22185 0.0
O25 O -0.00381 0.13428 0.16123 0.0
O26 O 0.02449 0.1132 1.05007 0.0
O27 O 0.02323 0.16411 0.07731 0.0
O28 O 0.06841 0.15856 0.15638 0.0
O29 O 0.09562 0.16287 0.08993 0.0
O30 O 0.07839 0.09454 0.08986 0.0
O31 O 0.1072 0.10714 0.14897 0.0
H32 H 0.10363 0.19012 0.29653 0.0
H33 H 0.11157 0.215 0.36902 0.0
H34 H 0.06669 0.11489 0.43672 0.0
H35 H 0.05906 0.09029 0.36422 0.0
H36 H 0.03818 0.1215 0.95728 0.0
H37 H 0.0263 0.14034 0.88762 0.0
H38 H 0.97133 0.2125 0.96392 0.0
H39 H 0.98519 0.19482 1.03245 0.0
Tb40 Tb 0.14186 0.75389 0.48213 0.0
Tb41 Tb 0.1236 0.69026 0.46194 0.0
C42 C 0.15563 0.81061 0.5193 0.0
C43 C 0.1561 0.81927 0.56672 0.0
C44 C 0.17388 0.80287 0.59126 0.0
C45 C 0.17221 0.80949 0.63704 0.0
C46 C 0.1528 0.83269 0.65925 0.0
C47 C 0.13584 0.84978 0.63426 0.0
C48 C 0.13752 0.84314 0.58844 0.0
C49 C 0.19297 0.73935 0.41503 0.0
C50 C 0.12726 0.69633 0.56335 0.0
C51 C 0.10339 0.62944 0.43892 0.0
C52 C 0.11512 0.61048 0.39823 0.0
C53 C 0.15111 0.61276 0.37884 0.0
C54 C 0.16199 0.59985 0.33592 0.0
C55 C 0.13716 0.58511 0.31125 0.0
C56 C 0.10104 0.5809 0.33224 0.0
C57 C 0.09017 0.59335 0.37539 0.0
C58 C 0.064 0.71196 0.52983 0.0
C59 C 0.11694 0.74275 0.39143 0.0
O60 O 0.12477 0.79728 0.51158 0.0
O61 O 0.17944 0.79449 0.49849 0.0
O62 O 0.17685 0.71969 0.45022 0.0
O63 O 0.18067 0.7666 0.41743 0.0
O64 O 0.13819 0.72931 0.54983 0.0
O65 O 0.1209 0.6738 0.53239 0.0
O66 O 0.12513 0.6381 0.46522 0.0
O67 O 0.08957 0.65475 0.43173 0.0
O68 O 0.08847 0.72062 0.49267 0.0
O69 O 0.08809 0.721 0.49296 0.0
O70 O 0.12587 0.71287 0.39467 0.0
O71 O 0.11812 0.76388 0.42576 0.0
H72 H 0.18858 0.78436 0.57542 0.0
H73 H 0.18569 0.79606 0.65522 0.0
H74 H 0.12006 0.86732 0.65055 0.0
H75 H 0.12358 0.85602 0.57027 0.0
H76 H 0.17095 0.62593 0.39577 0.0
H77 H 0.18996 0.60294 0.32117 0.0
H78 H 0.0811 0.57019 0.31421 0.0
H79 H 0.0623 0.59148 0.38974 0.0
Tb80 Tb 0.47044 0.83962 0.67705 0.0
Tb81 Tb 0.5433 0.87034 0.67994 0.0
C82 C 0.41043 0.82957 0.66177 0.0
C83 C 0.3949 0.83658 0.62524 0.0
C84 C 0.41506 0.85875 0.58828 0.0
C85 C 0.39983 0.86554 0.55381 0.0
C86 C 0.36423 0.85023 0.55583 0.0
C87 C 0.34409 0.82824 0.59322 0.0
C88 C 0.35937 0.82153 0.6278 0.0
C89 C 0.49711 0.79984 0.71927 0.0
C90 C 0.53426 0.82609 0.59475 0.0
C91 C 0.60151 0.89604 0.69735 0.0
C92 C 0.61368 0.89507 0.73881 0.0
C93 C 0.59658 0.86855 0.77178 0.0
C94 C 0.60483 0.86959 0.81372 0.0
C95 C 0.62993 0.89751 0.82376 0.0
C96 C 0.64799 0.92353 0.79013 0.0
C97 C 0.63979 0.92232 0.74779 0.0
C98 C 0.51849 0.90673 0.62837 0.0
C99 C 0.48229 0.85682 0.77545 0.0
O100 O 0.42465 0.85693 0.68114 0.0
O101 O 0.43008 0.807 0.65356 0.0
O102 O 0.51286 0.81961 0.68526 0.0
O103 O 0.46355 0.79764 0.72692 0.0
O104 O 0.50056 0.8286 0.60708 0.0
O105 O 0.55542 0.83722 0.62217 0.0
O106 O 0.5948 0.86657 0.67778 0.0
O107 O 0.5766 0.91276 0.70064 0.0
O108 O 0.5015 0.89222 0.667 0.0
O109 O 0.54973 0.90135 0.61933 0.0
O110 O 0.51651 0.86488 0.75454 0.0
O111 O 0.45852 0.84982 0.75084 0.0
H112 H 0.44258 0.87053 0.58597 0.0
H113 H 0.41625 0.88196 0.52489 0.0
H114 H 0.31666 0.81613 0.59556 0.0
H115 H 0.34353 0.80449 0.65644 0.0
H116 H 0.57604 0.84754 0.76573 0.0
H117 H 0.59102 0.84881 0.83866 0.0
H118 H 0.66739 0.94534 0.79713 0.0
H119 H 0.65293 0.94317 0.72271 0.0
Tb120 Tb 0.40418 0.20948 0.8629 0.0
Tb121 Tb 0.42335 0.28471 0.83906 0.0
C122 C 0.39201 0.14976 0.8965 0.0
C123 C 0.38845 0.13824 0.94352 0.0
C124 C 0.41587 0.12651 0.95458 0.0
C125 C 0.41586 0.12175 1.00001 0.0
C126 C 0.38829 0.12843 1.03494 0.0
C127 C 0.35991 0.13824 1.0238 0.0
C128 C 0.35992 0.14302 0.97852 0.0
C129 C 0.35565 0.23345 0.83606 0.0
C130 C 0.41152 0.26391 0.9437 0.0
C131 C 0.41833 0.34298 0.81564 0.0
C132 C 0.4005 0.35629 0.78559 0.0
C133 C 0.39086 0.38781 0.79453 0.0
C134 C 0.37484 0.40145 0.7653 0.0
C135 C 0.36856 0.38381 0.72646 0.0
C136 C 0.37608 0.35092 0.71975 0.0
C137 C 0.39175 0.33724 0.74919 0.0
C138 C 0.4743 0.26185 0.85915 0.0
C139 C 0.43745 0.22889 0.76002 0.0
O140 O 0.42351 0.16691 0.87516 0.0
O141 O 0.36734 0.16417 0.89007 0.0
O142 O 0.37444 0.24804 0.86202 0.0
O143 O 0.36344 0.20423 0.82511 0.0
O144 O 0.40703 0.2314 0.93064 0.0
O145 O 0.4159 0.28944 0.9137 0.0
O146 O 0.39693 0.32454 0.85073 0.0
O147 O 0.4448 0.32924 0.79638 0.0
O148 O 0.45179 0.24666 0.83886 0.0
O149 O 0.47118 0.29348 0.86447 0.0
O150 O 0.43016 0.25986 0.77029 0.0
O151 O 0.43327 0.20576 0.79283 0.0
H152 H 0.43805 0.1225 0.92816 0.0
H153 H 0.4378 0.11364 1.0078 0.0
H154 H 0.33848 0.14386 1.05006 0.0
H155 H 0.33832 0.15206 0.97121 0.0
H156 H 0.39656 0.40231 0.82345 0.0
H157 H 0.36903 0.42655 0.77182 0.0
H158 H 0.37226 0.33661 0.68998 0.0
H159 H 0.39816 0.31238 0.74258 0.0
Tb160 Tb 0.0032 0.86242 0.99141 0.0
Tb161 Tb 0.97848 0.88775 0.90634 0.0
C162 C 0.01972 0.84792 0.0637 0.0
C163 C 0.02909 0.83773 0.10655 0.0
C164 C 0.04634 0.86244 0.13236 0.0
C165 C 0.05635 0.85268 0.17109 0.0
C166 C 0.04989 0.81768 0.18571 0.0
C167 C 0.03283 0.79296 0.1595 0.0
C168 C 0.02253 0.80277 0.12098 0.0
C169 C 0.97328 0.81632 0.9412 0.0
C170 C 0.93076 0.8883 1.00404 0.0
C171 C 0.95678 0.88221 0.83295 0.0
C172 C 0.95856 0.86924 0.78481 0.0
C173 C 0.96889 0.83852 0.77027 0.0
C174 C 0.96564 0.82476 0.72744 0.0
C175 C 0.95131 0.84069 0.69714 0.0
C176 C 0.94169 0.8719 0.71173 0.0
C177 C 0.94528 0.88574 0.75433 0.0
C178 C 0.0062 0.93623 0.95697 0.0
C179 C 0.05532 0.87179 0.89471 0.0
O180 O 0.03199 0.87817 1.04211 0.0
O181 O -0.00297 0.82695 1.04548 0.0
O182 O 0.96602 0.84454 0.95145 0.0
O183 O -0.00231 0.81223 0.96032 0.0
O184 O 0.95627 0.88234 1.02189 0.0
O185 O 0.93167 0.88785 0.95998 0.0
O186 O 0.9458 0.85947 0.86713 0.0
O187 O 0.9802 0.90899 0.84124 0.0
O188 O 0.01389 0.90742 0.94829 0.0
O189 O 0.98457 0.94042 0.93249 0.0
O190 O 0.02916 0.87504 0.87672 0.0
O191 O 0.05272 0.86976 0.93916 0.0
H192 H 0.05234 0.88955 0.12247 0.0
H193 H 0.06988 0.87286 0.18913 0.0
H194 H 0.02705 0.76583 0.16893 0.0
H195 H 0.00975 0.78275 0.10199 0.0
H196 H 0.97899 0.82464 0.79238 0.0
H197 H 0.9744 0.8013 0.71843 0.0
H198 H 0.93014 0.88538 0.691 0.0
H199 H 0.9364 0.90909 0.76417 0.0
Tb200 Tb 0.41556 0.79714 0.1434 0.0
Tb201 Tb 0.39923 0.72398 0.12278 0.0
C202 C 0.41117 0.85467 0.17638 0.0
C203 C 0.39576 0.86848 0.21998 0.0
C204 C 0.35917 0.8605 0.23905 0.0
C205 C 0.34556 0.87057 0.28277 0.0
C206 C 0.3683 0.88929 0.30769 0.0
C207 C 0.40455 0.89976 0.28702 0.0
C208 C 0.41815 0.88939 0.24352 0.0
C209 C 0.47059 0.7766 0.0917 0.0
C210 C 0.42994 0.7411 0.20949 0.0
C211 C 0.38841 0.6663 0.08775 0.0
C212 C 0.38978 0.65548 1.04091 0.0
C213 C 0.41317 0.67572 1.00384 0.0
C214 C 0.41329 0.66585 0.95943 0.0
C215 C 0.39004 0.63554 0.95125 0.0
C216 C 0.36614 0.61573 0.9885 0.0
C217 C 0.36597 0.62572 1.03299 0.0
C218 C 0.35021 0.74073 0.18919 0.0
C219 C 0.41238 0.78283 1.04191 0.0
O220 O 0.38897 0.83694 0.15453 0.0
O221 O 0.4377 0.84054 0.17563 0.0
O222 O 0.44579 0.76033 0.12271 0.0
O223 O 0.46578 0.80769 0.09114 0.0
O224 O 0.42345 0.77231 0.20508 0.0
O225 O 0.42577 0.71814 0.17747 0.0
O226 O 0.41854 0.68115 0.09688 0.0
O227 O 0.36349 0.6824 0.10468 0.0
O228 O 0.36635 0.75902 0.15265 0.0
O229 O 0.3603 0.71219 0.18702 0.0
O230 O 0.4066 0.74976 1.05461 0.0
O231 O 0.4139 0.80668 0.07268 0.0
H232 H 0.34113 0.84555 0.22097 0.0
H233 H 0.31749 0.86236 0.29791 0.0
H234 H 0.42277 0.91387 0.30566 0.0
H235 H 0.44638 0.89647 0.22907 0.0
H236 H 0.43162 0.69896 1.00915 0.0
H237 H 0.43251 0.68133 0.93156 0.0
H238 H 0.34785 0.59235 0.98324 0.0
H239 H 0.34732 0.61013 0.06124 0.0
Tb240 Tb 0.50179 0.11705 0.42796 0.0
Tb241 Tb 0.57602 0.1308 0.43398 0.0
C242 C 0.4445 0.1112 0.40769 0.0
C243 C 0.43598 0.12095 0.36629 0.0
C244 C 0.4543 0.15213 0.34222 0.0
C245 C 0.45 0.15869 0.29923 0.0
C246 C 0.42775 0.1339 0.27943 0.0
C247 C 0.40876 0.10311 0.30432 0.0
C248 C 0.41269 0.09684 0.34753 0.0
C249 C 0.51676 0.06704 0.47116 0.0
C250 C 0.56269 0.12555 0.33314 0.0
C251 C 0.63714 0.12729 0.4362 0.0
C252 C 0.66139 0.13984 0.4654 0.0
C253 C 0.67048 0.11579 0.49059 0.0
C254 C 0.68902 0.12669 0.52348 0.0
C255 C 0.69935 0.16202 0.53147 0.0
C256 C 0.69303 0.18622 0.50318 0.0
C257 C 0.67397 0.17524 0.47064 0.0
C258 C 0.55308 0.18585 0.42381 0.0
C259 C 0.51773 0.14515 0.52078 0.0
O260 O 0.45745 0.13677 0.43124 0.0
O261 O 0.46168 0.08647 0.40256 0.0
O262 O 0.5364 0.08404 0.43554 0.0
O263 O 0.48761 0.07684 0.48146 0.0
O264 O 0.52899 0.12419 0.35353 0.0
O265 O 0.58528 0.12492 0.35863 0.0
O266 O 0.60871 0.10382 0.45515 0.0
O267 O 0.6305 0.15047 0.41168 0.0
O268 O 0.54648 0.15752 0.40607 0.0
O269 O 0.57396 0.18476 0.45012 0.0
O270 O 0.54875 0.13641 0.5065 0.0
O271 O 0.49671 0.14372 0.49271 0.0
H272 H 0.47286 0.17089 0.35585 0.0
H273 H 0.46467 0.18279 0.28117 0.0
H274 H 0.39198 0.08311 0.28974 0.0
H275 H 0.39883 0.07242 0.36539 0.0
H276 H 0.66148 0.08838 0.48664 0.0
H277 H 0.69284 0.10712 0.54479 0.0
H278 H 0.7012 0.21361 0.50774 0.0
H279 H 0.66788 0.19446 0.45107 0.0
Tb280 Tb 0.11596 0.20549 0.76936 0.0
Tb281 Tb 0.13077 0.27975 0.73998 0.0
C282 C 0.12665 0.15131 0.79786 0.0
C283 C 0.14919 0.14545 0.82689 0.0
C284 C 0.16365 0.11639 0.82133 0.0
C285 C 0.18488 0.11051 0.84932 0.0
C286 C 0.19153 0.13344 0.88371 0.0
C287 C 0.17932 0.16407 0.88623 0.0
C288 C 0.15848 0.17002 0.85801 0.0
C289 C 0.06208 0.22414 0.75152 0.0
C290 C 0.10209 0.26374 0.84498 0.0
C291 C 0.13837 0.33814 0.70442 0.0
C292 C 0.13497 0.34852 0.66014 0.0
C293 C 0.11291 0.32587 0.63787 0.0
C294 C 0.11414 0.33239 0.59264 0.0
C295 C 0.13811 0.36133 0.56862 0.0
C296 C 0.15888 0.38507 0.59156 0.0
C297 C 0.15733 0.37862 0.63724 0.0
C298 C 0.18241 0.26005 0.76565 0.0
C299 C 0.12322 0.22065 0.66429 0.0
O300 O 0.1442 0.16699 0.75891 0.0
O301 O 0.09925 0.16375 0.81709 0.0
O302 O 0.08528 0.24136 0.76915 0.0
O303 O 0.0665 0.19282 0.74699 0.0
O304 O 0.11045 0.23315 0.83584 0.0
O305 O 0.10431 0.28543 0.81119 0.0
O306 O 0.10918 0.32178 0.73266 0.0
O307 O 0.16442 0.32315 0.70228 0.0
O308 O 0.1627 0.24362 0.74207 0.0
O309 O 0.17428 0.28941 0.77432 0.0
O310 O 0.12437 0.25351 0.67492 0.0
O311 O 0.12307 0.19777 0.69573 0.0
H312 H 0.15782 0.09784 0.79611 0.0
H313 H 0.19437 0.08704 0.84577 0.0
H314 H 0.18346 0.18238 0.91229 0.0
H315 H 0.14868 0.1933 0.86158 0.0
H316 H 0.09604 0.30222 0.6547 0.0
H317 H 0.09736 0.31404 0.57591 0.0
H318 H 0.17761 0.40752 0.57361 0.0
H319 H 0.17482 0.39613 0.65394 0.0
Tb320 Tb 0.90303 0.3002 0.65212 0.0
Tb321 Tb 0.89432 0.22768 0.62731 0.0
C322 C 0.8918 0.35203 0.69599 0.0
C323 C 0.87539 0.3527 0.74452 0.0
C324 C 0.85745 0.32134 0.76784 0.0
C325 C 0.84467 0.31975 0.81466 0.0
C326 C 0.85121 0.34945 0.83958 0.0
C327 C 0.86819 0.38137 0.8162 0.0
C328 C 0.88017 0.38298 0.76865 0.0
C329 C 0.96193 0.28622 0.60196 0.0
C330 C 0.92113 0.24423 0.71567 0.0
C331 C 0.88879 0.17354 0.58466 0.0
C332 C 0.89743 0.17051 0.53494 0.0
C333 C 0.93124 0.18606 0.50867 0.0
C334 C 0.9373 0.19059 0.46179 0.0
C335 C 0.90969 0.1799 0.44007 0.0
C336 C 0.87627 0.16277 0.46598 0.0
C337 C 0.87021 0.15809 0.51309 0.0
C338 C 0.8406 0.23933 0.69138 0.0
C339 C 0.90533 0.28789 0.54939 0.0
O340 O 0.87081 0.33506 0.67204 0.0
O341 O 0.92214 0.34336 0.68705 0.0
O342 O 0.93752 0.26746 0.63115 0.0
O343 O 0.95445 0.31635 0.60276 0.0
O344 O 0.91158 0.27405 0.71246 0.0
O345 O 0.91997 0.22201 0.6824 0.0
O346 O 0.91532 0.18537 0.60321 0.0
O347 O 0.86238 0.18816 0.6 0.0
O348 O 0.85723 0.25879 0.65616 0.0
O349 O 0.85311 0.21217 0.68949 0.0
O350 O 0.90741 0.25619 0.55954 0.0
O351 O 0.89826 0.30924 0.5826 0.0
H352 H 0.8549 0.2977 0.74993 0.0
H353 H 0.83137 0.29488 0.83158 0.0
H354 H 0.87396 0.40461 0.8347 0.0
H355 H 0.89448 0.40738 0.7511 0.0
H356 H 0.95278 0.19613 0.52437 0.0
H357 H 0.96368 0.20279 0.44258 0.0
H358 H 0.85458 0.154 0.4501 0.0
H359 H 0.84381 0.14638 0.53277 0.0
Tb360 Tb 0.62016 0.69665 0.26889 0.0
Tb361 Tb 0.63948 0.76985 0.23525 0.0
C362 C 0.62295 0.63838 0.29576 0.0
C363 C 0.63988 0.6214 0.32371 0.0
C364 C 0.67613 0.63211 0.32123 0.0
C365 C 0.69179 0.61493 0.34725 0.0
C366 C 0.67132 0.58698 0.37672 0.0
C367 C 0.63534 0.57533 0.37715 0.0
C368 C 0.61987 0.59235 0.35083 0.0
C369 C 0.56874 0.71742 0.24608 0.0
C370 C 0.60662 0.75617 0.34119 0.0
C371 C 0.65045 0.82846 0.19817 0.0
C372 C 0.64274 0.84122 0.15789 0.0
C373 C 0.62117 0.819 0.13458 0.0
C374 C 0.614 0.8309 0.09591 0.0
C375 C 0.62873 0.86511 0.07969 0.0
C376 C 0.6506 0.88736 0.10282 0.0
C377 C 0.65741 0.87546 0.14201 0.0
C378 C 0.68872 0.74988 0.26608 0.0
C379 C 0.62919 0.70965 0.16277 0.0
O380 O 0.644 0.65522 0.25917 0.0
O381 O 0.59885 0.65454 0.31645 0.0
O382 O 0.59195 0.73413 0.26395 0.0
O383 O 0.57175 0.68571 0.24385 0.0
O384 O 0.61311 0.72458 0.33517 0.0
O385 O 0.61165 0.77706 0.30533 0.0
O386 O 0.62285 0.81543 0.23107 0.0
O387 O 0.67345 0.8092 0.19007 0.0
O388 O 0.66951 0.73256 0.24236 0.0
O389 O 0.68137 0.77973 0.27151 0.0
O390 O 0.63157 0.74285 0.17158 0.0
O391 O 0.62818 0.68752 0.19548 0.0
H392 H 0.69226 0.65405 0.2998 0.0
H393 H 0.7195 0.62455 0.34596 0.0
H394 H 0.61834 0.55442 0.40005 0.0
H395 H 0.59202 0.58327 0.35249 0.0
H396 H 0.61006 0.7924 0.14608 0.0
H397 H 0.59773 0.81311 0.07794 0.0
H398 H 0.66237 0.91379 0.09052 0.0
H399 H 0.67431 0.89281 0.15963 0.0
Tb400 Tb 0.63595 0.25763 0.98498 0.0
Tb401 Tb 0.62543 0.1841 0.96387 0.0
C402 C 0.64416 0.3135 1.02409 0.0
C403 C 0.63874 0.3196 0.07307 0.0
C404 C 0.60824 0.30133 0.10403 0.0
C405 C 0.60619 0.30152 0.15054 0.0
C406 C 0.63461 0.31981 0.16717 0.0
C407 C 0.66455 0.33932 0.13638 0.0
C408 C 0.66661 0.33911 0.08962 0.0
C409 C 0.68764 0.24328 0.92023 0.0
C410 C 0.62385 0.1993 0.06616 0.0
C411 C 0.6374 0.13118 0.92354 0.0
C412 C 0.65422 0.12697 0.87542 0.0
C413 C 0.69051 0.12775 0.86174 0.0
C414 C 0.70824 0.13203 0.81567 0.0
C415 C 0.6898 0.13555 0.78302 0.0
C416 C 0.65307 0.13139 0.79634 0.0
C417 C 0.6354 0.12703 0.84207 0.0
C418 C 0.56754 0.19985 1.01406 0.0
C419 C 0.60772 0.2393 0.89797 0.0
O420 O 0.61593 0.30049 1.00927 0.0
O421 O 0.66984 0.29809 1.00803 0.0
O422 O 0.67164 0.22508 0.95674 0.0
O423 O 0.67599 0.27091 0.92138 0.0
O424 O 0.62398 0.23115 1.05351 0.0
O425 O 0.62901 0.17622 1.03465 0.0
O426 O 0.65825 0.14958 0.94663 0.0
O427 O 0.60673 0.13935 0.93167 0.0
O428 O 0.5918 0.21782 0.98371 0.0
O429 O 0.57441 0.16948 1.01415 0.0
O430 O 0.61613 0.20892 0.90251 0.0
O431 O 0.60986 0.26231 0.93021 0.0
H432 H 0.58645 0.28578 0.09231 0.0
H433 H 0.58232 0.28705 0.17352 0.0
H434 H 0.68673 0.35381 0.14828 0.0
H435 H 0.69059 0.35299 0.06623 0.0
H436 H 0.70557 0.12717 0.88677 0.0
H437 H 0.73651 0.13456 0.80584 0.0
H438 H 0.63818 0.13292 0.77136 0.0
H439 H 0.60733 0.12572 0.85127 0.0
Tb440 Tb 0.91435 0.71938 0.37302 0.0
Tb441 Tb 0.92829 0.79222 0.33809 0.0
C442 C 0.9015 0.66188 0.41444 0.0
C443 C 0.90024 0.65164 0.46101 0.0
C444 C 0.91403 0.67621 0.48923 0.0
C445 C 0.90936 0.66835 0.53504 0.0
C446 C 0.89017 0.63572 0.55383 0.0
C447 C 0.87692 0.6106 0.52539 0.0
C448 C 0.88182 0.61862 0.47912 0.0
C449 C 0.86365 0.73625 0.34201 0.0
C450 C 0.91961 0.78187 0.44434 0.0
C451 C 0.91345 0.84302 0.30704 0.0
C452 C 0.88766 0.84472 0.28088 0.0
C453 C 0.87904 0.8185 0.25145 0.0
C454 C 0.85511 0.82053 0.22586 0.0
C455 C 0.83932 0.84894 0.22911 0.0
C456 C 0.84504 0.87301 0.26264 0.0
C457 C 0.8693 0.87105 0.28805 0.0
C458 C 0.98266 0.78 0.36329 0.0
C459 C 0.94442 0.73208 0.26706 0.0
O460 O 0.9325 0.67667 0.38873 0.0
O461 O 0.87744 0.67833 0.41171 0.0
O462 O 0.88202 0.75399 0.36614 0.0
O463 O 0.87333 0.70755 0.33465 0.0
O464 O 0.91824 0.74861 0.43645 0.0
O465 O 0.92032 0.80334 0.41097 0.0
O466 O 0.89908 0.82993 0.34827 0.0
O467 O 0.94081 0.83086 0.28663 0.0
O468 O 0.96045 0.75882 0.34707 0.0
O469 O 0.97806 0.81069 0.35727 0.0
O470 O 0.93542 0.76247 0.27401 0.0
O471 O 0.94237 0.71175 0.30245 0.0
H472 H 0.92834 0.70162 0.47592 0.0
H473 H 0.92076 0.68792 0.55582 0.0
H474 H 0.86203 0.5852 0.53913 0.0
H475 H 0.87049 0.59945 0.45785 0.0
H476 H 0.8917 0.79702 0.24702 0.0
H477 H 0.85159 0.80128 0.20071 0.0
H478 H 0.83275 0.89475 0.26685 0.0
H479 H 0.87451 0.89065 0.3123 0.0
Tb480 Tb 0.56551 0.60212 0.70217 0.0
Tb481 Tb 0.54273 0.62411 0.61304 0.0
C482 C 0.58642 0.61072 0.77605 0.0
C483 C 0.58508 0.62354 0.82418 0.0
C484 C 0.5736 0.65353 0.83979 0.0
C485 C 0.5773 0.66728 0.88249 0.0
C486 C 0.59323 0.65207 0.91155 0.0
C487 C 0.60401 0.6216 0.89587 0.0
C488 C 0.59996 0.60775 0.85345 0.0
C489 C 0.54328 0.55106 0.65147 0.0
C490 C 0.48861 0.61627 0.7086 0.0
C491 C 0.52684 0.63668 0.53943 0.0
C492 C 0.51805 0.64633 0.49571 0.0
C493 C 0.49746 0.622 0.47293 0.0
C494 C 0.4873 0.63157 0.43414 0.0
C495 C 0.49692 0.66609 0.41631 0.0
C496 C 0.5173 0.69042 0.43956 0.0
C497 C 0.52779 0.68077 0.47808 0.0
C498 C 0.57016 0.67231 0.66326 0.0
C499 C 0.61589 0.60135 0.60618 0.0
O500 O 0.59574 0.6334 0.74194 0.0
O501 O 0.56464 0.58256 0.76793 0.0
O502 O 0.53322 0.5792 0.65691 0.0
O503 O 0.56292 0.54935 0.67972 0.0
O504 O 0.51315 0.61142 0.72858 0.0
O505 O 0.49299 0.61951 0.66394 0.0
O506 O 0.51107 0.6086 0.56512 0.0
O507 O 0.55279 0.65592 0.55405 0.0
O508 O 0.57747 0.64393 0.65517 0.0
O509 O 0.54677 0.67541 0.64185 0.0
O510 O 0.59057 0.6049 0.58625 0.0
O511 O 0.61379 0.60346 0.65046 0.0
H512 H 0.56218 0.66683 0.81868 0.0
H513 H 0.56761 0.69015 0.89239 0.0
H514 H 0.61684 0.6087 0.91555 0.0
H515 H 0.60976 0.58501 0.84276 0.0
H516 H 0.48879 0.59536 0.48539 0.0
H517 H 0.47106 0.61169 0.41875 0.0
H518 H 0.52542 0.71713 0.42788 0.0
H519 H 0.54313 0.70062 0.49467 0.0
Tb520 Tb 0.97129 0.35967 0.18187 0.0
Tb521 Tb 0.04622 0.36383 0.18197 0.0
C522 C 0.91372 0.37629 0.18747 0.0
C523 C 0.88757 0.37502 0.16057 0.0
C524 C 0.88759 0.40499 0.13695 0.0
C525 C 0.86661 0.40336 0.10623 0.0
C526 C 0.84502 0.37176 0.09898 0.0
C527 C 0.84196 0.34269 0.12658 0.0
C528 C 0.86322 0.34425 0.15702 0.0
C529 C -0.01282 0.29984 0.18077 0.0
C530 C 0.02524 0.34256 0.09029 0.0
C531 C 0.10569 0.36473 0.19402 0.0
C532 C 0.11942 0.35401 0.23035 0.0
C533 C 0.09905 0.32729 0.26165 0.0
C534 C 0.1098 0.32112 0.30044 0.0
C535 C 0.14065 0.34211 0.30864 0.0
C536 C 0.16192 0.36768 0.27613 0.0
C537 C 0.1514 0.37347 0.23699 0.0
C538 C 0.0347 0.41875 0.14476 0.0
C539 C -0.01171 0.353 0.27994 0.0
O540 O 0.94472 0.3967 0.17078 0.0
O541 O 0.9161 0.34703 0.20394 0.0
O542 O -0.00154 0.32592 0.20147 0.0
O543 O 0.96418 0.3064 0.16041 0.0
O544 O -0.00408 0.35432 0.10716 0.0
O545 O 0.04652 0.33981 0.11659 0.0
O546 O 0.08842 0.33994 0.17333 0.0
O547 O 0.08996 0.39033 0.204 0.0
O548 O 0.01557 0.40173 0.18055 0.0
O549 O 0.06155 0.40568 0.13025 0.0
O550 O 0.02152 0.35488 0.25665 0.0
O551 O 0.96444 0.35645 0.25758 0.0
H552 H 0.90538 0.42931 0.14019 0.0
H553 H 0.86966 0.4262 0.08544 0.0
H554 H 0.825 0.31815 0.1222 0.0
H555 H 0.86177 0.32097 0.17595 0.0
H556 H 0.07397 0.31249 0.2574 0.0
H557 H 0.09273 0.30167 0.32555 0.0
H558 H 0.18571 0.38421 0.28214 0.0
H559 H 0.16722 0.39436 0.21318 0.0
Tb560 Tb 0.50199 0.36589 0.49682 0.0
Tb561 Tb 0.48275 0.37547 0.40217 0.0
C562 C 0.52898 0.35471 0.56174 0.0
C563 C 0.52937 0.33839 0.60677 0.0
C564 C 0.51732 0.35206 0.64935 0.0
C565 C 0.52312 0.33968 0.68986 0.0
C566 C 0.542 0.31352 0.68975 0.0
C567 C 0.55286 0.2991 0.64714 0.0
C568 C 0.5467 0.31124 0.60681 0.0
C569 C 0.45333 0.3165 0.47274 0.0
C570 C 0.43459 0.39207 0.49438 0.0
C571 C 0.46914 0.3622 0.32485 0.0
C572 C 0.4607 0.35392 0.2786 0.0
C573 C 0.43538 0.32414 0.27262 0.0
C574 C 0.42958 0.31503 0.22896 0.0
C575 C 0.44866 0.33538 0.18908 0.0
C576 C 0.47404 0.36512 0.19534 0.0
C577 C 0.47997 0.37405 0.23882 0.0
C578 C 0.51013 0.43281 0.44077 0.0
C579 C 0.55506 0.3582 0.40405 0.0
O580 O 0.51516 0.38148 0.55952 0.0
O581 O 0.52702 0.33495 0.52696 0.0
O582 O 0.48103 0.33442 0.44743 0.0
O583 O 0.45322 0.32598 0.51381 0.0
O584 O 0.46094 0.3945 0.51487 0.0
O585 O 0.43488 0.37929 0.45331 0.0
O586 O 0.44894 0.34708 0.3635 0.0
O587 O 0.49569 0.38672 0.33063 0.0
O588 O 0.51679 0.40351 0.44204 0.0
O589 O 0.48974 0.43152 0.4129 0.0
O590 O 0.52945 0.35496 0.38308 0.0
O591 O 0.55205 0.36851 0.44625 0.0
H592 H 0.50404 0.37301 0.65138 0.0
H593 H 0.51298 0.35124 0.72133 0.0
H594 H 0.56758 0.27927 0.6442 0.0
H595 H 0.55697 0.3001 0.57496 0.0
H596 H 0.4202 0.30741 0.30183 0.0
H597 H 0.40965 0.2921 0.22669 0.0
H598 H 0.4901 0.38152 0.16628 0.0
H599 H 0.50015 0.39678 0.2411 0.0
Tb600 Tb 0.00414 0.61289 0.93401 0.0
Tb601 Tb 0.0797 0.6401 0.93293 0.0
C602 C 0.94487 0.59135 0.91843 0.0
C603 C 0.93095 0.59221 0.87826 0.0
C604 C 0.94287 0.62108 0.848 0.0
C605 C 0.93165 0.62052 0.80799 0.0
C606 C 0.90872 0.59098 0.79737 0.0
C607 C 0.89667 0.56218 0.82776 0.0
C608 C 0.90761 0.56288 0.86815 0.0
C609 C 0.02851 0.57476 0.98402 0.0
C610 C 0.06368 0.62741 0.83411 0.0
C611 C 0.14199 0.64037 0.93434 0.0
C612 C 0.15845 0.63278 0.97046 0.0
C613 C 0.15946 0.59877 0.98051 0.0
C614 C 0.17038 0.5912 1.01878 0.0
C615 C 0.18052 0.61747 1.04771 0.0
C616 C 0.18188 0.65175 1.03567 0.0
C617 C 0.17119 0.65933 0.99735 0.0
C618 C 0.04714 0.68643 0.91734 0.0
C619 C 0.02111 0.65254 1.02018 0.0
O620 O 0.95424 0.62116 0.93656 0.0
O621 O 0.96794 0.57227 0.91498 0.0
O622 O 0.04498 0.58917 0.9453 0.0
O623 O -0.0025 0.58069 0.99403 0.0
O624 O 0.03003 0.61514 0.85771 0.0
O625 O 0.08813 0.63892 0.85715 0.0
O626 O 0.12077 0.61425 0.92116 0.0
O627 O 0.12912 0.66792 0.93923 0.0
O628 O 0.04257 0.65604 0.90588 0.0
O629 O 0.07487 0.6941 0.93366 0.0
O630 O 0.05293 0.64547 1.00564 0.0
O631 O -0.00134 0.64678 0.99337 0.0
H632 H 0.96143 0.64375 0.85474 0.0
H633 H 0.94178 0.64282 0.78463 0.0
H634 H 0.87901 0.53917 0.82012 0.0
H635 H 0.8985 0.54029 0.89102 0.0
H636 H 0.15052 0.57779 0.95988 0.0
H637 H 0.16966 0.56461 1.02661 0.0
H638 H 0.18916 0.67266 0.05731 0.0
H639 H 0.17131 0.68587 0.9901 0.0
H640 H 0.17046 0.13382 0.08272 0.0
H641 H 0.10698 0.03406 0.06581 0.0
H642 H 0.14313 0.03234 0.98918 0.0
H643 H 0.17451 0.06892 0.92222 0.0
H644 H 0.2329 0.17211 0.93592 0.0
H645 H 0.21857 0.16247 1.01833 0.0
C646 C 0.16606 0.11087 0.06313 0.0
C647 C 0.13564 0.08457 0.07883 0.0
C648 C 0.18542 0.11136 1.01777 0.0
C649 C 0.12994 0.05483 1.05373 0.0
C650 C 0.15044 0.05407 1.00966 0.0
C651 C 0.18585 0.0888 0.94268 0.0
C652 C 0.20243 0.12209 0.92343 0.0
C653 C 0.17566 0.08374 0.99005 0.0
C654 C 0.21822 0.14684 0.95041 0.0
C655 C 0.2098 0.14142 0.99764 0.0
H656 H 0.09256 0.80016 0.37444 0.0
H657 H 0.11441 0.70645 0.31369 0.0
H658 H 0.09527 0.7201 0.24689 0.0
H659 H 0.07299 0.75917 0.20382 0.0
H660 H 0.05055 0.85259 0.2653 0.0
H661 H 0.06916 0.83861 0.33207 0.0
C662 C 0.09339 0.78272 0.34657 0.0
C663 C 0.10551 0.75224 0.34977 0.0
C664 C 0.08216 0.79078 0.30757 0.0
C665 C 0.10566 0.73012 0.31287 0.0
C666 C 0.09456 0.73794 0.27431 0.0
C667 C 0.07188 0.77654 0.23177 0.0
C668 C 0.06056 0.80748 0.22804 0.0
C669 C 0.08277 0.76826 0.271 0.0
C670 C 0.05977 0.82915 0.26553 0.0
C671 C 0.07031 0.82102 0.30436 0.0
H672 H 0.32872 0.83834 0.36777 0.0
H673 H 0.38193 0.94592 0.35848 0.0
H674 H 0.37842 0.94468 0.44015 0.0
H675 H 0.3718 0.90987 0.50895 0.0
H676 H 0.32416 0.80091 0.51497 0.0
H677 H 0.3127 0.80599 0.44033 0.0
C678 C 0.33825 0.86187 0.38397 0.0
C679 C 0.35603 0.89205 0.35731 0.0
C680 C 0.33761 0.86048 0.43022 0.0
C681 C 0.36853 0.92231 0.3785 0.0
C682 C 0.36672 0.92152 0.42502 0.0
C683 C 0.35834 0.88741 0.49417 0.0
C684 C 0.34959 0.85497 0.51679 0.0
C685 C 0.35325 0.89024 0.45047 0.0
C686 C 0.33129 0.82617 0.49809 0.0
C687 C 0.325 0.82899 0.45523 0.0
H688 H 0.49523 0.2022 0.7236 0.0
H689 H 0.40799 0.23069 0.68745 0.0
H690 H 0.423 0.20512 0.61301 0.0
H691 H 0.45973 0.17196 0.55864 0.0
H692 H 0.55157 0.15055 0.59084 0.0
H693 H 0.53578 0.17496 0.66577 0.0
C694 C 0.47987 0.20342 0.69907 0.0
C695 C 0.45041 0.21871 0.71155 0.0
C696 C 0.48939 0.18936 0.6554 0.0
C697 C 0.43095 0.21974 0.67903 0.0
C698 C 0.43947 0.20477 0.63636 0.0
C699 C 0.47683 0.17333 0.5815 0.0
C700 C 0.50726 0.1595 0.56793 0.0
C701 C 0.46845 0.18915 0.62417 0.0
C702 C 0.52814 0.16075 0.59942 0.0
C703 C 0.51913 0.17497 0.64253 0.0
H704 H 0.85081 0.91261 0.19012 0.0
H705 H 0.7999 0.80658 0.17739 0.0
H706 H 0.8183 0.81406 0.0946 0.0
H707 H 0.86821 0.84333 1.03209 0.0
H708 H 0.92474 0.94632 1.04909 0.0
H709 H 0.88489 0.94794 0.1234 0.0
C710 C 0.84202 0.89148 0.16955 0.0
C711 C 0.82687 0.85821 0.18961 0.0
C712 C 0.85512 0.89534 0.12233 0.0
C713 C 0.81368 0.83197 0.16243 0.0
C714 C 0.82466 0.8361 0.11502 0.0
C715 C 0.87044 0.86666 1.05126 0.0
C716 C 0.89946 0.89445 1.03618 0.0
C717 C 0.84864 0.86648 0.09516 0.0
C718 C 0.90266 0.92462 0.06072 0.0
C719 C 0.87995 0.92542 0.10328 0.0
H720 H 0.94383 0.18658 0.73569 0.0
H721 H 0.93147 0.28571 0.7871 0.0
H722 H 0.9549 0.27538 0.85153 0.0
H723 H 0.97858 0.23805 0.89478 0.0
H724 H -0.0126 0.13729 0.84523 0.0
H725 H 0.96706 0.14907 0.7794 0.0
C726 C 0.94602 0.20596 0.76101 0.0
C727 C 0.93529 0.23693 0.75591 0.0
C728 C 0.95945 0.19973 0.79883 0.0
C729 C 0.939 0.26154 0.78951 0.0
C730 C 0.95259 0.25564 0.82668 0.0
C731 C 0.97581 0.21823 0.87018 0.0
C732 C 0.98511 0.18652 0.87651 0.0
C733 C 0.96277 0.22471 0.83205 0.0
C734 C 0.9816 0.16221 0.84235 0.0
C735 C 0.96935 0.16875 0.80431 0.0
H736 H 0.68514 0.18913 0.73506 0.0
H737 H 0.73541 0.10382 0.72464 0.0
H738 H 0.7524 0.11162 0.64139 0.0
H739 H 0.7406 0.13409 0.57315 0.0
H740 H 0.6817 0.21342 0.5868 0.0
H741 H 0.68198 0.2178 0.66646 0.0
C742 C 0.70048 0.17276 0.71441 0.0
C743 C 0.70819 0.14535 0.73523 0.0
C744 C 0.70847 0.17633 0.66704 0.0
C745 C 0.72886 0.12479 0.70887 0.0
C746 C 0.73832 0.12913 0.66142 0.0
C747 C 0.72832 0.15273 0.59339 0.0
C748 C 0.71021 0.17254 0.5741 0.0
C749 C 0.72632 0.15345 0.6402 0.0
C750 C 0.69577 0.19764 0.60036 0.0
C751 C 0.69543 0.19988 0.64634 0.0
H752 H 0.51716 0.82356 0.51023 0.0
H753 H 0.58518 0.78918 0.58047 0.0
H754 H 0.61176 0.76254 0.51162 0.0
H755 H 0.61818 0.7504 0.42879 0.0
H756 H 0.55314 0.78898 0.35762 0.0
H757 H 0.52369 0.81176 0.42782 0.0
C758 C 0.53762 0.81007 0.51067 0.0
C759 C 0.54882 0.80868 0.55137 0.0
C760 C 0.55387 0.79536 0.4699 0.0
C761 C 0.57584 0.79116 0.5502 0.0
C762 C 0.59121 0.77573 0.5105 0.0
C763 C 0.59741 0.76355 0.42866 0.0
C764 C 0.58818 0.76765 0.38709 0.0
C765 C 0.58085 0.77786 0.46971 0.0
C766 C 0.56129 0.78536 0.3884 0.0
C767 C 0.5442 0.7985 0.4289 0.0
H768 H 0.71272 0.62682 0.42527 0.0
H769 H 0.65879 0.52143 0.41454 0.0
H770 H 0.64485 0.51276 0.49697 0.0
H771 H 0.62725 0.54286 0.56739 0.0
H772 H 0.67578 0.64995 0.57597 0.0
H773 H 0.71361 0.65029 0.49952 0.0
C774 C 0.69972 0.60132 0.44047 0.0
C775 C 0.68416 0.57559 0.41454 0.0
C776 C 0.68997 0.59733 0.48795 0.0
C777 C 0.66918 0.54226 0.43445 0.0
C778 C 0.66086 0.5374 0.48167 0.0
C779 C 0.64762 0.56555 0.55332 0.0
C780 C 0.64847 0.59653 0.57595 0.0
C781 C 0.66768 0.56591 0.50854 0.0
C782 C 0.6748 0.62596 0.5584 0.0
C783 C 0.69609 0.6262 0.51453 0.0
H784 H 0.58822 0.29841 0.87669 0.0
H785 H 0.59699 0.19839 0.82554 0.0
H786 H 0.57658 0.21113 0.75921 0.0
H787 H 0.55698 0.25123 0.7139 0.0
H788 H 0.55101 0.35223 0.76483 0.0
H789 H 0.56847 0.33805 0.83196 0.0
C790 C 0.58583 0.27926 0.85111 0.0
C791 C 0.59472 0.24735 0.85684 0.0
C792 C 0.57412 0.28688 0.81234 0.0
C793 C 0.59082 0.2232 0.82276 0.0
C794 C 0.579 0.23053 0.78447 0.0
C795 C 0.55963 0.27049 0.73925 0.0
C796 C 0.55201 0.3031 0.73279 0.0
C797 C 0.57076 0.26244 0.77849 0.0
C798 C 0.5555 0.32673 0.76771 0.0
C799 C 0.56606 0.31876 0.80656 0.0
H800 H 0.8514 0.32083 1.04112 0.0
H801 H 0.81399 0.41447 0.06027 0.0
H802 H 0.80958 0.41439 0.981 0.0
H803 H 0.82385 0.39127 0.90402 0.0
H804 H 0.86539 0.29975 0.88681 0.0
H805 H 0.86004 0.29513 0.96792 0.0
C806 C 0.84099 0.34058 1.02865 0.0
C807 C 0.83303 0.3676 0.05644 0.0
C808 C 0.83976 0.34099 0.98312 0.0
C809 C 0.82042 0.39345 1.03929 0.0
C810 C 0.81813 0.39352 0.99399 0.0
C811 C 0.8314 0.37023 0.91826 0.0
C812 C 0.84479 0.34584 0.8895 0.0
C813 C 0.82908 0.36811 0.96512 0.0
C814 C 0.85435 0.31853 0.90826 0.0
C815 C 0.85156 0.31594 0.95465 0.0
H816 H -0.01026 0.68884 0.23261 0.0
H817 H 0.92564 0.74886 0.19032 0.0
H818 H 0.94191 0.7295 0.11248 0.0
H819 H 0.9744 0.69482 1.0547 0.0
H820 H 0.0428 0.63933 0.0958 0.0
H821 H 0.02518 0.65741 0.17397 0.0
C822 C 0.97918 0.69769 0.20649 0.0
C823 C 0.95588 0.72026 0.21847 0.0
C824 C -0.01038 0.68712 0.16068 0.0
C825 C 0.94337 0.73159 0.18309 0.0
C826 C 0.95269 0.72036 0.13815 0.0
C827 C 0.98547 0.68657 0.08069 0.0
C828 C 0.00996 0.66517 0.06841 0.0
C829 C 0.9758 0.69801 0.12624 0.0
C830 C 0.02408 0.6556 0.10328 0.0
C831 C 0.01386 0.66596 0.14846 0.0
H832 H 0.42786 0.44812 0.54249 0.0
H833 H 0.36922 0.34973 0.51192 0.0
H834 H 0.3293 0.34474 0.58766 0.0
H835 H 0.32812 0.35775 0.66743 0.0
H836 H 0.39544 0.45155 0.69799 0.0
H837 H 0.41276 0.4702 0.61856 0.0
C838 C 0.40501 0.42665 0.55168 0.0
C839 C 0.40197 0.39877 0.52297 0.0
C840 C 0.38406 0.42286 0.59627 0.0
C841 C 0.37218 0.37126 0.53412 0.0
C842 C 0.34972 0.36817 0.57776 0.0
C843 C 0.34552 0.38288 0.65682 0.0
C844 C 0.36227 0.40205 0.68803 0.0
C845 C 0.3579 0.39209 0.6103 0.0
C846 C 0.38298 0.4355 0.67462 0.0
C847 C 0.39341 0.44609 0.62879 0.0
H848 H 0.48248 0.72838 0.39211 0.0
H849 H 0.4871 0.62708 0.34196 0.0
H850 H 0.46761 0.64064 0.27583 0.0
H851 H 0.44769 0.68064 0.23116 0.0
H852 H 0.44371 0.78215 0.28026 0.0
H853 H 0.46464 0.76923 0.34588 0.0
C854 C 0.47952 0.70913 0.3668 0.0
C855 C 0.48599 0.67614 0.37385 0.0
C856 C 0.46814 0.71717 0.32776 0.0
C857 C 0.48164 0.65222 0.33948 0.0
C858 C 0.47062 0.6601 0.30089 0.0
C859 C 0.45122 0.70004 0.25618 0.0
C860 C 0.44339 0.73244 0.25006 0.0
C861 C 0.46335 0.69234 0.29466 0.0
C862 C 0.44889 0.75693 0.28336 0.0
C863 C 0.46102 0.74951 0.32129 0.0
H864 H 0.19231 0.62395 0.24872 0.0
H865 H 0.10726 0.53317 0.26221 0.0
H866 H 0.11673 0.53246 0.17959 0.0
H867 H 0.14234 0.56346 0.10572 0.0
H868 H 0.2286 0.65312 0.09226 0.0
H869 H 0.22584 0.64783 0.17318 0.0
C870 C 0.17661 0.60317 0.2338 0.0
C871 C 0.14854 0.57911 0.26186 0.0
C872 C 0.18208 0.60299 0.18636 0.0
C873 C 0.1284 0.55261 0.24152 0.0
C874 C 0.13385 0.55213 0.19425 0.0
C875 C 0.16143 0.58117 0.11996 0.0
C876 C 0.1851 0.60916 0.0931 0.0
C877 C 0.15958 0.57811 0.16654 0.0
C878 C 0.20946 0.6319 0.11243 0.0
C879 C 0.20795 0.62886 0.15868 0.0
H880 H 0.05024 0.29927 0.88044 0.0
H881 H 0.12557 0.25222 0.91994 0.0
H882 H 0.10983 0.27362 0.99686 0.0
H883 H 0.0769 0.30806 1.05227 0.0
H884 H -0.00447 0.34854 1.01745 0.0
H885 H 0.0119 0.32831 0.93971 0.0
C886 C 0.06317 0.29356 0.90592 0.0
C887 C 0.08967 0.27433 0.89358 0.0
C888 C 0.05311 0.30524 0.95106 0.0
C889 C 0.10535 0.26682 0.92778 0.0
C890 C 0.09641 0.27931 0.97194 0.0
C891 C 0.06212 0.31213 1.02818 0.0
C892 C 0.03459 0.33 1.04184 0.0
C893 C 0.07064 0.29889 0.98393 0.0
C894 C 0.01665 0.33508 1.00887 0.0
C895 C 0.02606 0.32334 0.96412 0.0
H896 H 0.02972 0.27895 0.2246 0.0
H897 H -0.00808 0.26517 0.10246 0.0
H898 H 0.04042 0.23884 0.06662 0.0
H899 H 0.093 0.22092 0.06982 0.0
H900 H 0.11566 0.21255 0.20025 0.0
H901 H 0.07916 0.25315 0.23086 0.0
C902 C 0.03219 0.26991 0.19026 0.0
C903 C 0.00838 0.27482 0.16541 0.0
C904 C 0.05946 0.25405 0.17043 0.0
C905 C 0.01033 0.26177 0.12188 0.0
C906 C 0.03843 0.24755 0.10107 0.0
C907 C 0.09064 0.22859 0.10482 0.0
C908 C 0.10473 0.21197 0.13375 0.0
C909 C 0.06362 0.24456 0.12463 0.0
C910 C 0.10399 0.22422 0.17765 0.0
C911 C 0.08184 0.2461 0.1957 0.0
H912 H 0.98503 0.71736 0.39484 0.0
H913 H 0.01472 0.82603 0.41577 0.0
H914 H 0.03211 0.81412 0.48448 0.0
H915 H 0.04341 0.77249 0.53463 0.0
H916 H 0.00947 0.66383 0.51696 0.0
H917 H -0.01318 0.67563 0.4529 0.0
C918 C -0.00555 0.73823 0.41505 0.0
C919 C -0.00216 0.77228 0.40068 0.0
C920 C 0.00273 0.73116 0.4558 0.0
C921 C 0.0118 0.79943 0.42606 0.0
C922 C 0.02122 0.79268 0.4658 0.0
C923 C 0.02861 0.75146 0.51896 0.0
C924 C 0.02943 0.71739 0.52902 0.0
C925 C 0.01663 0.75861 0.48113 0.0
C926 C 0.00967 0.69033 0.50925 0.0
C927 C -0.00211 0.69709 0.4714 0.0
H928 H 0.53298 0.67033 0.75031 0.0
H929 H 0.62691 0.72534 0.65578 0.0
H930 H 0.61625 0.77991 0.68599 0.0
H931 H 0.56621 0.80628 0.70608 0.0
H932 H 0.46605 0.74923 0.78609 0.0
H933 H 0.49263 0.70158 0.79698 0.0
C934 C 0.55209 0.69414 0.73832 0.0
C935 C 0.57914 0.69461 0.69912 0.0
C936 C 0.54339 0.72514 0.75235 0.0
C937 C 0.60508 0.72494 0.68512 0.0
C938 C 0.59859 0.75615 0.7019 0.0
C939 C 0.5507 0.78416 0.72775 0.0
C940 C 0.51416 0.7798 0.7427 0.0
C941 C 0.56543 0.75622 0.73045 0.0
C942 C 0.4941 0.75195 0.7723 0.0
C943 C 0.50925 0.72478 0.77835 0.0
H944 H 0.52395 0.16126 0.97048 0.0
H945 H 0.53492 0.24889 0.05516 0.0
H946 H 0.50506 0.2778 1.01145 0.0
H947 H 0.49008 0.28345 0.93831 0.0
H948 H 0.48992 0.19958 0.84652 0.0
H949 H 0.50472 0.16486 0.90131 0.0
C950 C 0.51809 0.18594 0.98075 0.0
C951 C 0.53219 0.20344 1.01499 0.0
C952 C 0.50568 0.20409 0.95175 0.0
C953 C 0.52432 0.23513 1.0286 0.0
C954 C 0.50853 0.25215 1.00254 0.0
C955 C 0.49324 0.25754 0.93049 0.0
C956 C 0.48837 0.24359 0.88908 0.0
C957 C 0.50179 0.23793 0.96204 0.0
C958 C 0.49299 0.21034 0.87876 0.0
C959 C 0.50106 0.19046 0.91015 0.0
H960 H 0.00764 0.81277 0.85322 0.0
H961 H 0.91202 0.76675 0.95051 0.0
H962 H 0.92749 0.71086 0.9437 0.0
H963 H 0.97907 0.686 0.93746 0.0
H964 H 0.08002 0.73768 0.85365 0.0
H965 H 0.05289 0.78051 0.82737 0.0
C966 C -0.01058 0.7899 0.87086 0.0
C967 C 0.96149 0.79385 0.90685 0.0
C968 C 0.00133 0.75975 0.87145 0.0
C969 C 0.93565 0.76433 0.92548 0.0
C970 C 0.94503 0.73263 0.92275 0.0
C971 C -0.0051 0.7064 0.91298 0.0
C972 C 0.03144 0.7105 0.89928 0.0
C973 C 0.97973 0.73164 0.90055 0.0
C974 C 0.05205 0.73598 0.86651 0.0
C975 C 0.03662 0.75995 0.85126 0.0
H976 H 0.5492 0.69276 0.1699 0.0
H977 H 0.55307 0.77941 0.25732 0.0
H978 H 0.53492 0.81196 0.20368 0.0
H979 H 0.51445 0.81419 0.13543 0.0
H980 H 0.50037 0.72455 1.05461 0.0
H981 H 0.5307 0.69622 0.09845 0.0
C982 C 0.54589 0.7187 0.17708 0.0
C983 C 0.55254 0.73396 0.21705 0.0
C984 C 0.53578 0.73732 0.14589 0.0
C985 C 0.54814 0.76744 0.22644 0.0
C986 C 0.53817 0.78612 0.19567 0.0
C987 C 0.51953 0.78907 0.12608 0.0
C988 C 0.50506 0.77123 0.09236 0.0
C989 C 0.53217 0.77137 0.15523 0.0
C990 C 0.51165 0.73879 0.08034 0.0
C991 C 0.52772 0.72214 0.10651 0.0
H992 H 0.51189 0.20846 0.49617 0.0
H993 H 0.54534 0.2165 0.34995 0.0
H994 H 0.50294 0.25178 0.34795 0.0
H995 H 0.46098 0.28459 0.39109 0.0
H996 H 0.41847 0.26327 0.5347 0.0
H997 H 0.45623 0.22401 0.53437 0.0
C998 C 0.5092 0.21695 0.4639 0.0
C999 C 0.532 0.2109 0.42347 0.0
C1000 C 0.48199 0.23279 0.46259 0.0
C1001 C 0.52875 0.22244 0.38161 0.0
C1002 C 0.50392 0.24154 0.38036 0.0
C1003 C 0.45827 0.26944 0.42167 0.0
C1004 C 0.44154 0.27994 0.46414 0.0
C1005 C 0.48055 0.24705 0.42089 0.0
C1006 C 0.43435 0.25767 0.50226 0.0
C1007 C 0.45671 0.23583 0.50245 0.0
H1008 H 0.04487 0.20306 0.67255 0.0
H1009 H 0.04046 0.28272 0.77053 0.0
H1010 H 0.02064 0.31689 0.72052 0.0
H1011 H 0.00167 0.32246 0.65172 0.0
H1012 H -0.0028 0.23962 0.55883 0.0
H1013 H 0.02781 0.21011 0.60081 0.0
C1014 C 0.03932 0.22779 0.68285 0.0
C1015 C 0.04418 0.24068 0.72475 0.0
C1016 C 0.02848 0.24749 0.65361 0.0
C1017 C 0.03689 0.27258 0.73815 0.0
C1018 C 0.02604 0.29226 0.70943 0.0
C1019 C 0.00906 0.29879 0.63939 0.0
C1020 C -0.00293 0.28295 0.60274 0.0
C1021 C 0.02209 0.28009 0.66697 0.0
C1022 C 0.00649 0.25229 0.58694 0.0
C1023 C 0.02273 0.23485 0.61194 0.0
H1024 H 0.05494 0.00892 0.12667 0.0
H1025 H 0.97363 0.06184 0.12198 0.0
H1026 H 0.96093 0.02883 0.05688 0.0
H1027 H 0.97439 0.98628 0.99879 0.0
H1028 H 0.05834 0.93622 0.99982 0.0
H1029 H 0.0691 0.96693 0.0675 0.0
C1030 C 0.03421 0.01289 0.11165 0.0
C1031 C 0.01524 0.03782 0.12931 0.0
C1032 C 0.02783 -0.00546 0.07294 0.0
C1033 C -0.01141 0.04278 0.10919 0.0
C1034 C 0.98147 0.02407 0.07167 0.0
C1035 C -0.00502 0.98207 1.01393 0.0
C1036 C 0.01466 0.95793 0.99523 0.0
C1037 C 0.00125 0.00023 1.05274 0.0
C1038 C 0.04182 0.95351 1.01464 0.0
C1039 C 0.04815 0.97129 1.05323 0.0
H1040 H 0.22401 0.78025 0.33808 0.0
H1041 H 0.22961 0.68771 0.4046 0.0
H1042 H 0.27885 0.68114 0.34128 0.0
H1043 H 0.32024 0.70157 0.26716 0.0
H1044 H 0.3129 0.79213 0.19817 0.0
H1045 H 0.26482 0.80003 0.26264 0.0
C1046 C 0.23603 0.75862 0.33892 0.0
C1047 C 0.22305 0.73456 0.37664 0.0
C1048 C 0.2642 0.75489 0.302 0.0
C1049 C 0.23892 0.70664 0.37652 0.0
C1050 C 0.26714 0.70293 0.34017 0.0
C1051 C 0.30821 0.72316 0.26602 0.0
C1052 C 0.32085 0.74672 0.22781 0.0
C1053 C 0.28 0.72688 0.30277 0.0
C1054 C 0.30451 0.77419 0.22727 0.0
C1055 C 0.27674 0.77844 0.26408 0.0
H1056 H 0.47241 0.02949 0.54532 0.0
H1057 H 0.57315 0.0362 0.45032 0.0
H1058 H 0.58132 0.98677 0.49005 0.0
H1059 H 0.56026 0.94218 0.55196 0.0
H1060 H 0.45969 0.93494 0.64752 0.0
H1061 H 0.45068 0.98372 0.60687 0.0
C1062 C 0.49621 0.02015 0.53319 0.0
C1063 C 0.52233 0.03686 0.49479 0.0
C1064 C 0.50057 0.9915 0.55621 0.0
C1065 C 0.55283 0.02421 0.47974 0.0
C1066 C 0.5574 -0.00418 0.50246 0.0
C1067 C 0.53622 0.95113 0.56405 0.0
C1068 C 0.51071 0.93485 0.60318 0.0
C1069 C 0.5315 0.97933 0.54074 0.0
C1070 C 0.47976 0.94686 0.61782 0.0
C1071 C 0.47471 0.97485 0.59455 0.0
H1072 H 0.31037 0.19907 0.788 0.0
H1073 H 0.33041 0.29095 0.86369 0.0
H1074 H 0.27878 0.30715 0.8489 0.0
H1075 H 0.22728 0.29487 0.81475 0.0
H1076 H 0.20809 0.20313 0.73853 0.0
H1077 H 0.25916 0.18677 0.75421 0.0
C1078 C 0.3035 0.22269 0.80126 0.0
C1079 C 0.32457 0.24391 0.82669 0.0
C1080 C 0.27348 0.23161 0.793 0.0
C1081 C 0.31506 0.27432 0.84366 0.0
C1082 C 0.28534 0.28349 0.83537 0.0
C1083 C 0.23427 0.27127 0.80161 0.0
C1084 C 0.21345 0.25004 0.77586 0.0
C1085 C 0.26427 0.26231 0.81014 0.0
C1086 C 0.22307 0.21965 0.75904 0.0
C1087 C 0.25255 0.21042 0.76771 0.0
H1088 H 0.7131 0.27809 0.83818 0.0
H1089 H 0.72658 0.19344 0.91324 0.0
H1090 H 0.77422 0.18486 0.84888 0.0
H1091 H 0.81275 0.20204 0.7716 0.0
H1092 H 0.79943 0.28697 0.69688 0.0
H1093 H 0.75097 0.29472 0.7606 0.0
C1094 C 0.72634 0.25761 0.84057 0.0
C1095 C 0.71598 0.23633 0.8809 0.0
C1096 C 0.75376 0.25291 0.80328 0.0
C1097 C 0.73361 0.21003 0.88291 0.0
C1098 C 0.761 0.20525 0.84602 0.0
C1099 C 0.79915 0.22219 0.76901 0.0
C1100 C 0.81001 0.24401 0.72912 0.0
C1101 C 0.77135 0.22654 0.80603 0.0
C1102 C 0.79189 0.26988 0.72679 0.0
C1103 C 0.76416 0.2743 0.7634 0.0
H1104 H 0.82323 0.6999 0.28866 0.0
H1105 H 0.83357 0.79061 0.36848 0.0
H1106 H 0.78121 0.80301 0.3512 0.0
H1107 H 0.73093 0.78697 0.31591 0.0
H1108 H 0.72033 0.69677 0.23534 0.0
H1109 H 0.77372 0.68491 0.25095 0.0
C1110 C 0.81403 0.72242 0.30219 0.0
C1111 C 0.83248 0.74435 0.32983 0.0
C1112 C 0.78349 0.7292 0.29246 0.0
C1113 C 0.82018 0.77344 0.34693 0.0
C1114 C 0.79004 0.78044 0.33724 0.0
C1115 C 0.74028 0.76468 0.30175 0.0
C1116 C 0.72118 0.74236 0.27518 0.0
C1117 C 0.77126 0.75833 0.31045 0.0
C1118 C 0.73405 0.71394 0.25662 0.0
C1119 C 0.76473 0.70729 0.26536 0.0
H1120 H 0.50298 0.54782 0.58884 0.0
H1121 H 0.57501 0.49775 0.63092 0.0
H1122 H 0.57241 0.45799 0.56914 0.0
H1123 H 0.55019 0.4373 0.50228 0.0
H1124 H 0.47927 0.48777 0.45817 0.0
H1125 H 0.48204 0.5282 0.51979 0.0
C1126 C 0.51865 0.52876 0.58382 0.0
C1127 C 0.53973 0.52647 0.61411 0.0
C1128 C 0.51747 0.50607 0.5474 0.0
C1129 C 0.55866 0.5004 0.60819 0.0
C1130 C 0.55734 0.47764 0.57262 0.0
C1131 C 0.53543 0.45722 0.50608 0.0
C1132 C 0.51446 0.45935 0.47566 0.0
C1133 C 0.53697 0.48027 0.54186 0.0
C1134 C 0.49576 0.48557 0.48089 0.0
C1135 C 0.49715 0.5086 0.51639 0.0
H1136 H -0.00741 0.54593 0.06708 0.0
H1137 H 0.08383 0.54218 0.95894 0.0
H1138 H 0.09358 0.49395 0.99972 0.0
H1139 H 0.07433 0.45109 0.06455 0.0
H1140 H 0.98437 0.45669 0.17382 0.0
H1141 H 0.97547 0.50549 0.13374 0.0
C1142 C 0.01477 0.5347 1.05238 0.0
C1143 C 0.03734 0.54762 1.00962 0.0
C1144 C 0.02001 0.50691 0.07599 0.0
C1145 C 0.06608 0.53287 0.99156 0.0
C1146 C 0.0715 0.50515 1.01488 0.0
C1147 C 0.05275 0.46299 0.07975 0.0
C1148 C 0.02939 0.44942 0.12184 0.0
C1149 C 0.04834 0.49164 0.05683 0.0
C1150 C 0.002 0.46565 0.14105 0.0
C1151 C -0.00283 0.49386 0.11824 0.0
H1152 H 0.10588 0.13738 0.48354 0.0
H1153 H 0.08686 0.23281 0.4423 0.0
H1154 H 0.09584 0.25781 0.51394 0.0
H1155 H 0.10952 0.25339 0.59028 0.0
H1156 H 0.12725 0.15707 0.63064 0.0
H1157 H 0.11865 0.13273 0.55896 0.0
C1158 C 0.10348 0.16365 0.48986 0.0
C1159 C 0.09573 0.18275 0.45584 0.0
C1160 C 0.10888 0.17832 0.53186 0.0
C1161 C 0.09331 0.21703 0.46621 0.0
C1162 C 0.09839 0.23156 0.50782 0.0
C1163 C 0.11185 0.22717 0.58342 0.0
C1164 C 0.11944 0.20758 0.61716 0.0
C1165 C 0.10646 0.21266 0.54112 0.0
C1166 C 0.12167 0.17336 0.6065 0.0
C1167 C 0.11664 0.15914 0.56498 0.0
H1168 H 0.15326 0.89204 0.70491 0.0
H1169 H 0.14025 0.78258 0.72577 0.0
H1170 H 0.11848 0.78747 0.80744 0.0
H1171 H 0.08836 0.82005 0.86892 0.0
H1172 H 0.09581 0.92785 0.84514 0.0
H1173 H 0.1345 0.92672 0.7696 0.0
C1174 C 0.14596 0.86931 0.72744 0.0
C1175 C 0.14736 0.83691 0.70909 0.0
C1176 C 0.13175 0.87197 0.77408 0.0
C1177 C 0.13911 0.80787 0.73885 0.0
C1178 C 0.12622 0.81055 0.78563 0.0
C1179 C 0.09972 0.84342 0.84766 0.0
C1180 C 0.08917 0.87383 0.86184 0.0
C1181 C 0.12027 0.84202 0.80317 0.0
C1182 C 0.10387 0.9042 0.83459 0.0
C1183 C 0.12551 0.90342 0.79118 0.0
H1184 H 0.45857 0.84105 0.99347 0.0
H1185 H 0.38544 0.74774 0.97438 0.0
H1186 H 0.3982 0.76308 0.89301 0.0
H1187 H 0.43096 0.80273 0.82543 0.0
H1188 H 0.50966 0.89206 0.84266 0.0
H1189 H 0.49413 0.87881 0.92495 0.0
C1190 C 0.44505 0.82417 0.97171 0.0
C1191 C 0.42017 0.79337 0.99134 0.0
C1192 C 0.45365 0.83263 0.9238 0.0
C1193 C 0.40417 0.77168 0.96135 0.0
C1194 C 0.41158 0.78052 0.91437 0.0
C1195 C 0.44442 0.81969 0.84718 0.0
C1196 C 0.47097 0.84925 0.82702 0.0
C1197 C 0.43626 0.81096 0.89494 0.0
C1198 C 0.48876 0.86972 0.85642 0.0
C1199 C 0.47987 0.86198 0.90387 0.0
H1200 H 0.36983 0.11585 0.246 0.0
H1201 H 0.48132 0.16304 0.20633 0.0
H1202 H 0.47855 0.16669 0.12712 0.0
H1203 H 0.44497 0.15371 0.06888 0.0
H1204 H 0.33493 0.10121 0.10827 0.0
H1205 H 0.33683 0.10169 0.18809 0.0
C1206 C 0.39363 0.12663 0.22003 0.0
C1207 C 0.4257 0.13893 0.23207 0.0
C1208 C 0.3922 0.12731 0.17453 0.0
C1209 C 0.45612 0.15377 0.19813 0.0
C1210 C 0.45468 0.1555 0.15275 0.0
C1211 C 0.42157 0.14191 0.09491 0.0
C1212 C 0.38992 0.12723 0.08287 0.0
C1213 C 0.42298 0.14178 0.14054 0.0
C1214 C 0.35954 0.11282 0.1169 0.0
C1215 C 0.36061 0.11304 0.16243 0.0
H1216 H 0.92436 0.7495 0.52408 0.0
H1217 H 0.92674 0.84925 0.46913 0.0
H1218 H 0.93724 0.87567 0.53906 0.0
H1219 H 0.94654 0.87171 0.6165 0.0
H1220 H 0.94185 0.77168 0.67334 0.0
H1221 H 0.93246 0.74532 0.60305 0.0
C1222 C 0.92684 0.77695 0.52727 0.0
C1223 C 0.92421 0.79684 0.49017 0.0
C1224 C 0.93302 0.79251 0.56854 0.0
C1225 C 0.92813 0.83265 0.49617 0.0
C1226 C 0.93434 0.84805 0.53659 0.0
C1227 C 0.94315 0.84406 0.61432 0.0
C1228 C 0.94544 0.82442 0.65194 0.0
C1229 C 0.93687 0.8284 0.57325 0.0
C1230 C 0.94129 0.78847 0.64606 0.0
C1231 C 0.93544 0.77296 0.6054 0.0
H1232 H 0.88675 0.13481 0.37948 0.0
H1233 H 0.94859 0.23732 0.38863 0.0
H1234 H 0.97554 0.23977 0.30711 0.0
H1235 H -0.00744 0.20619 0.24025 0.0
H1236 H 0.93196 0.10343 0.23131 0.0
H1237 H 0.89218 0.10795 0.30528 0.0
C1238 C 0.90504 0.15819 0.36337 0.0
C1239 C 0.91693 0.18526 0.39016 0.0
C1240 C 0.92073 0.15918 0.3166 0.0
C1241 C 0.94025 0.21562 0.36875 0.0
C1242 C 0.95554 0.21708 0.32219 0.0
C1243 C 0.96942 0.18567 0.25351 0.0
C1244 C 0.96508 0.1545 0.23127 0.0
C1245 C 0.94773 0.18807 0.29658 0.0
C1246 C 0.93543 0.12772 0.24822 0.0
C1247 C 0.91311 0.13011 0.2908 0.0
H1248 H 0.63998 0.14946 0.11827 0.0
H1249 H 0.57581 0.22381 0.13013 0.0
H1250 H 0.55015 0.20684 0.21027 0.0
H1251 H 0.545 0.17083 0.27904 0.0
H1252 H 0.61322 0.10081 0.27086 0.0
H1253 H 0.63739 0.11565 0.18919 0.0
C1254 C 0.62052 0.16211 0.13833 0.0
C1255 C 0.61035 0.18837 0.11693 0.0
C1256 C 0.60605 0.15264 0.18595 0.0
C1257 C 0.58496 0.20409 0.14467 0.0
C1258 C 0.56987 0.19412 0.19097 0.0
C1259 C 0.56495 0.1585 0.25943 0.0
C1260 C 0.57651 0.13394 0.28188 0.0
C1261 C 0.58002 0.16838 0.21226 0.0
C1262 C 0.60324 0.11934 0.25525 0.0
C1263 C 0.61725 0.128 0.20815 0.0
H1264 H 0.58033 0.88515 0.90307 0.0
H1265 H 0.69293 0.91476 0.84767 0.0
H1266 H 0.7023 0.91177 0.92419 0.0
H1267 H 0.6784 0.89427 1.00529 0.0
H1268 H 0.56597 0.86004 0.05874 0.0
H1269 H 0.55641 0.87097 0.98419 0.0
C1270 C 0.60694 0.89092 0.90777 0.0
C1271 C 0.63594 0.89955 0.86992 0.0
C1272 C 0.61205 0.88812 0.95133 0.0
C1273 C 0.67023 0.908 0.87644 0.0
C1274 C 0.67558 0.90609 0.92005 0.0
C1275 C 0.65185 0.88999 1.00064 0.0
C1276 C 0.62288 0.87648 1.03698 0.0
C1277 C 0.6467 0.89533 0.95753 0.0
C1278 C 0.58854 0.87041 1.03088 0.0
C1279 C 0.58312 0.87657 0.98841 0.0
H1280 H 0.60153 0.62132 0.99009 0.0
H1281 H 0.59981 0.72063 0.93733 0.0
H1282 H 0.61 0.74672 1.00753 0.0
H1283 H 0.62081 0.74255 0.08538 0.0
H1284 H 0.62454 0.64322 0.13556 0.0
H1285 H 0.61327 0.61729 0.06585 0.0
C1286 C 0.60375 0.64879 0.99305 0.0
C1287 C 0.59948 0.66827 0.95664 0.0
C1288 C 0.6105 0.6643 1.03396 0.0
C1289 C 0.60202 0.70394 0.96366 0.0
C1290 C 0.60834 0.71931 1.00424 0.0
C1291 C 0.61956 0.71529 0.08106 0.0
C1292 C 0.62407 0.69535 0.11685 0.0
C1293 C 0.61285 0.69991 1.03985 0.0
C1294 C 0.6216 0.65983 0.10959 0.0
C1295 C 0.61497 0.64469 0.06928 0.0
H1296 H 0.5714 0.29925 0.37431 0.0
H1297 H 0.61143 0.40922 0.3666 0.0
H1298 H 0.64775 0.40598 0.28987 0.0
H1299 H 0.65317 0.37389 0.21929 0.0
H1300 H 0.61001 0.264 0.22644 0.0
H1301 H 0.59021 0.26494 0.30898 0.0
C1302 C 0.58974 0.32213 0.35671 0.0
C1303 C 0.58877 0.35439 0.37542 0.0
C1304 C 0.60879 0.32018 0.3118 0.0
C1305 C 0.61216 0.3841 0.35268 0.0
C1306 C 0.6323 0.38229 0.30842 0.0
C1307 C 0.64056 0.34999 0.23907 0.0
C1308 C 0.63181 0.31917 0.2168 0.0
C1309 C 0.62858 0.35081 0.28654 0.0
C1310 C 0.61581 0.28829 0.24284 0.0
C1311 C 0.60458 0.28876 0.29004 0.0
H1312 H 0.92826 0.35756 0.34975 0.0
H1313 H 0.0222 0.3181 0.32489 0.0
H1314 H 0.00459 0.29321 0.40223 0.0
H1315 H 0.96224 0.28142 0.47871 0.0
H1316 H 0.87164 0.32589 0.50738 0.0
H1317 H 0.8877 0.34906 0.42855 0.0
C1318 C 0.94509 0.34375 0.36118 0.0
C1319 C 0.97697 0.34023 0.33016 0.0
C1320 C 0.93505 0.32974 0.40721 0.0
C1321 C -0.00209 0.32199 0.34693 0.0
C1322 C -0.01233 0.30739 0.39165 0.0
C1323 C 0.9458 0.29602 0.46776 0.0
C1324 C 0.91514 0.30115 0.49971 0.0
C1325 C 0.9562 0.31081 0.4223 0.0
C1326 C 0.89505 0.321 0.48424 0.0
C1327 C 0.90438 0.33444 0.43879 0.0
H1328 H 0.88365 0.63869 0.76226 0.0
H1329 H 0.91271 0.54148 0.7344 0.0
H1330 H 0.90549 0.54472 0.65679 0.0
H1331 H 0.89802 0.57892 0.59458 0.0
H1332 H 0.87004 0.67673 0.62298 0.0
H1333 H 0.86984 0.66967 0.70276 0.0
C1334 C 0.88797 0.61808 0.73924 0.0
C1335 C 0.89902 0.59013 0.75348 0.0
C1336 C 0.88435 0.62043 0.69478 0.0
C1337 C 0.90408 0.56321 0.72393 0.0
C1338 C 0.90021 0.56519 0.67957 0.0
C1339 C 0.89109 0.59824 0.61852 0.0
C1340 C 0.8846 0.6285 0.60298 0.0
C1341 C 0.89133 0.59417 0.66427 0.0
C1342 C 0.8758 0.6535 0.63416 0.0
C1343 C 0.87559 0.64947 0.67972 0.0
H1344 H 0.42901 0.2709 0.15046 0.0
H1345 H 0.4523 0.38015 0.11855 0.0
H1346 H 0.44293 0.36843 1.04288 0.0
H1347 H 0.42818 0.32754 0.98361 0.0
H1348 H 0.40492 0.21828 1.0146 0.0
H1349 H 0.41386 0.22971 0.0909 0.0
C1350 C 0.43186 0.29232 0.1273 0.0
C1351 C 0.44186 0.32671 0.14165 0.0
C1352 C 0.42621 0.28538 0.08266 0.0
C1353 C 0.44548 0.35348 0.10962 0.0
C1354 C 0.43979 0.34677 0.06582 0.0
C1355 C 0.42463 0.30608 1.00704 0.0
C1356 C 0.41521 0.27186 0.99232 0.0
C1357 C 0.43016 0.31287 1.05164 0.0
C1358 C 0.41156 0.24487 1.02403 0.0
C1359 C 0.41686 0.25144 0.06815 0.0
H1360 H 0.39922 0.67244 0.87238 0.0
H1361 H 0.39024 0.56999 0.92499 0.0
H1362 H 0.41163 0.5518 0.84834 0.0
H1363 H 0.44619 0.56895 0.77065 0.0
H1364 H 0.45982 0.67211 0.71831 0.0
H1365 H 0.42241 0.6859 0.78982 0.0
C1366 C 0.40122 0.64594 0.86683 0.0
C1367 C 0.39396 0.62283 0.9044 0.0
C1368 C 0.41457 0.63587 0.82265 0.0
C1369 C 0.39578 0.58835 0.89676 0.0
C1370 C 0.40829 0.57796 0.8529 0.0
C1371 C 0.43949 0.59391 0.77433 0.0
C1372 C 0.45555 0.61955 0.73982 0.0
C1373 C 0.41962 0.60201 0.81612 0.0
C1374 C 0.4472 0.65191 0.74447 0.0
C1375 C 0.42638 0.65993 0.78565 0.0
H1376 H 0.07745 0.64106 0.61655 0.0
H1377 H 0.16115 0.72792 0.62698 0.0
H1378 H 0.15065 0.71408 0.70824 0.0
H1379 H 0.11713 0.67781 0.77863 0.0
H1380 H 0.0297 0.5942 0.77049 0.0
H1381 H 0.04213 0.606 0.68815 0.0
C1382 C 0.09376 0.65682 0.63633 0.0
C1383 C 0.12077 0.68554 0.61403 0.0
C1384 C 0.08678 0.64915 0.68452 0.0
C1385 C 0.1405 0.70571 0.64182 0.0
C1386 C 0.13442 0.6977 0.68888 0.0
C1387 C 0.1009 0.66176 0.75898 0.0
C1388 C 0.07267 0.63434 0.78203 0.0
C1389 C 0.10761 0.66951 0.71097 0.0
C1390 C 0.05177 0.61502 0.75485 0.0
C1391 C 0.05892 0.62191 0.70722 0.0
H1392 H 0.14799 0.3951 0.3637 0.0
H1393 H 0.14582 0.28657 0.35538 0.0
H1394 H 0.14799 0.28393 0.43529 0.0
H1395 H 0.14539 0.31155 0.50837 0.0
H1396 H 0.14301 0.41911 0.51813 0.0
H1397 H 0.14816 0.42338 0.43614 0.0
C1398 C 0.14875 0.37108 0.37928 0.0
C1399 C 0.14711 0.34112 0.35412 0.0
C1400 C 0.14862 0.36957 0.42531 0.0
C1401 C 0.14725 0.30988 0.37447 0.0
C1402 C 0.14823 0.30836 0.42002 0.0
C1403 C 0.14576 0.33586 0.49252 0.0
C1404 C 0.14318 0.36484 0.51904 0.0
C1405 C 0.14797 0.33785 0.44595 0.0
C1406 C 0.14485 0.39649 0.49817 0.0
C1407 C 0.14767 0.39888 0.45149 0.0
loop_
_geom_bond_atom_site_label_1
_geom_bond_atom_site_label_2
_geom_bond_distance
_geom_bond_site_symmetry_2
_ccdc_geom_bond_type
Tb0 C2 2.809 . S
Tb0 O20 2.484 . S
Tb0 O21 2.440 . S
Tb0 O22 2.658 . S
Tb0 O23 2.409 . S
Tb0 O24 2.378 . S
Tb0 O28 2.325 . S
Tb0 O31 2.341 . S
Tb1 C11 2.809 1_455 S
Tb1 O22 2.325 . S
Tb1 O25 2.341 . S
Tb1 O26 2.484 . S
Tb1 O27 2.440 1_455 S
Tb1 O28 2.658 . S
Tb1 O29 2.409 . S
Tb1 O30 2.378 . S
C2 Tb0 2.809 . S
C2 C3 1.514 . S
C2 O20 1.248 . S
C2 O21 1.266 . S
C3 C2 1.514 . S
C3 C4 1.359 . S
C3 C8 1.348 . S
C4 C3 1.359 . S
C4 C5 1.380 . S
C4 H32 0.929 . S
C5 C4 1.380 . S
C5 C6 1.347 . S
C5 H33 0.931 . S
C6 C5 1.347 . S
C6 C7 1.369 . S
C7 C6 1.369 . S
C7 C8 1.408 . S
C7 H34 0.930 . S
C8 C3 1.348 . S
C8 C7 1.408 . S
C8 H35 0.930 . S
C9 O22 1.281 . S
C9 O23 1.254 . S
C10 O24 1.236 . S
C10 O25 1.266 . S
C11 Tb1 2.809 1_655 S
C11 C12 1.514 1_554 S
C11 O26 1.248 1_655 S
C11 O27 1.266 . S
C12 C11 1.514 1_556 S
C12 C13 1.359 . S
C12 C17 1.348 . S
C13 C12 1.359 . S
C13 C14 1.380 . S
C13 H36 0.929 . S
C14 C13 1.380 . S
C14 C15 1.347 . S
C14 H37 0.931 . S
C15 C14 1.347 . S
C15 C16 1.369 . S
C16 C15 1.369 . S
C16 C17 1.408 . S
C16 H38 0.930 . S
C17 C12 1.348 . S
C17 C16 1.408 . S
C17 H39 0.930 . S
C18 O28 1.281 . S
C18 O29 1.254 . S
C19 O30 1.236 . S
C19 O31 1.266 . S
O20 Tb0 2.484 . S
O20 C2 1.248 . S
O21 Tb0 2.440 . S
O21 C2 1.266 . S
O22 Tb0 2.658 . S
O22 Tb1 2.325 . S
O22 C9 1.281 . S
O23 Tb0 2.409 . S
O23 C9 1.254 . S
O24 Tb0 2.378 . S
O24 C10 1.236 . S
O25 Tb1 2.341 . S
O25 C10 1.266 . S
O26 Tb1 2.484 . S
O26 C11 1.248 1_455 S
O27 Tb1 2.440 1_655 S
O27 C11 1.266 . S
O28 Tb0 2.325 . S
O28 Tb1 2.658 . S
O28 C18 1.281 . S
O29 Tb1 2.409 . S
O29 C18 1.254 . S
O30 Tb1 2.378 . S
O30 C19 1.236 . S
O31 Tb0 2.341 . S
O31 C19 1.266 . S
H32 C4 0.929 . S
H33 C5 0.931 . S
H34 C7 0.930 . S
H35 C8 0.930 . S
H36 C13 0.929 . S
H37 C14 0.931 . S
H38 C16 0.930 . S
H39 C17 0.930 . S
Tb40 C42 2.809 . S
Tb40 O60 2.484 . S
Tb40 O61 2.440 . S
Tb40 O62 2.658 . S
Tb40 O63 2.409 . S
Tb40 O64 2.378 . S
Tb40 O68 2.325 . S
Tb40 O71 2.341 . S
Tb41 C51 2.809 . S
Tb41 O62 2.325 . S
Tb41 O65 2.341 . S
Tb41 O66 2.484 . S
Tb41 O67 2.440 . S
Tb41 O68 2.658 . S
Tb41 O69 2.409 . S
Tb41 O70 2.378 . S
C42 Tb40 2.809 . S
C42 C43 1.514 . S
C42 O60 1.248 . S
C42 O61 1.266 . S
C43 C42 1.514 . S
C43 C44 1.359 . S
C43 C48 1.348 . S
C44 C43 1.359 . S
C44 C45 1.380 . S
C44 H72 0.929 . S
C45 C44 1.380 . S
C45 C46 1.347 . S
C45 H73 0.931 . S
C46 C45 1.347 . S
C46 C47 1.369 . S
C47 C46 1.369 . S
C47 C48 1.408 . S
C47 H74 0.930 . S
C48 C43 1.348 . S
C48 C47 1.408 . S
C48 H75 0.930 . S
C49 O62 1.281 . S
C49 O63 1.254 . S
C50 O64 1.236 . S
C50 O65 1.266 . S
C51 Tb41 2.809 . S
C51 C52 1.514 . S
C51 O66 1.248 . S
C51 O67 1.266 . S
C52 C51 1.514 . S
C52 C53 1.359 . S
C52 C57 1.348 . S
C53 C52 1.359 . S
C53 C54 1.380 . S
C53 H76 0.929 . S
C54 C53 1.380 . S
C54 C55 1.347 . S
C54 H77 0.931 . S
C55 C54 1.347 . S
C55 C56 1.369 . S
C56 C55 1.369 . S
C56 C57 1.408 . S
C56 H78 0.930 . S
C57 C52 1.348 . S
C57 C56 1.408 . S
C57 H79 0.930 . S
C58 O68 1.281 . S
C58 O69 1.254 . S
C59 O70 1.236 . S
C59 O71 1.266 . S
O60 Tb40 2.484 . S
O60 C42 1.248 . S
O61 Tb40 2.440 . S
O61 C42 1.266 . S
O62 Tb40 2.658 . S
O62 Tb41 2.325 . S
O62 C49 1.281 . S
O63 Tb40 2.409 . S
O63 C49 1.254 . S
O64 Tb40 2.378 . S
O64 C50 1.236 . S
O65 Tb41 2.341 . S
O65 C50 1.266 . S
O66 Tb41 2.484 . S
O66 C51 1.248 . S
O67 Tb41 2.440 . S
O67 C51 1.266 . S
O68 Tb40 2.325 . S
O68 Tb41 2.658 . S
O68 C58 1.281 . S
O69 Tb41 2.409 . S
O69 C58 1.254 . S
O70 Tb41 2.378 . S
O70 C59 1.236 . S
O71 Tb40 2.341 . S
O71 C59 1.266 . S
H72 C44 0.929 . S
H73 C45 0.931 . S
H74 C47 0.930 . S
H75 C48 0.930 . S
H76 C53 0.929 . S
H77 C54 0.931 . S
H78 C56 0.930 . S
H79 C57 0.930 . S
Tb80 C82 2.809 . S
Tb80 O100 2.484 . S
Tb80 O101 2.440 . S
Tb80 O102 2.658 . S
Tb80 O103 2.409 . S
Tb80 O104 2.378 . S
Tb80 O108 2.325 . S
Tb80 O111 2.341 . S
Tb81 C91 2.809 . S
Tb81 O102 2.325 . S
Tb81 O105 2.341 . S
Tb81 O106 2.484 . S
Tb81 O107 2.440 . S
Tb81 O108 2.658 . S
Tb81 O109 2.409 . S
Tb81 O110 2.378 . S
C82 Tb80 2.809 . S
C82 C83 1.514 . S
C82 O100 1.248 . S
C82 O101 1.266 . S
C83 C82 1.514 . S
C83 C84 1.359 . S
C83 C88 1.348 . S
C84 C83 1.359 . S
C84 C85 1.380 . S
C84 H112 0.929 . S
C85 C84 1.380 . S
C85 C86 1.347 . S
C85 H113 0.931 . S
C86 C85 1.347 . S
C86 C87 1.369 . S
C87 C86 1.369 . S
C87 C88 1.408 . S
C87 H114 0.930 . S
C88 C83 1.348 . S
C88 C87 1.408 . S
C88 H115 0.930 . S
C89 O102 1.281 . S
C89 O103 1.254 . S
C90 O104 1.236 . S
C90 O105 1.266 . S
C91 Tb81 2.809 . S
C91 C92 1.514 . S
C91 O106 1.248 . S
C91 O107 1.266 . S
C92 C91 1.514 . S
C92 C93 1.359 . S
C92 C97 1.348 . S
C93 C92 1.359 . S
C93 C94 1.380 . S
C93 H116 0.929 . S
C94 C93 1.380 . S
C94 C95 1.347 . S
C94 H117 0.931 . S
C95 C94 1.347 . S
C95 C96 1.369 . S
C96 C95 1.369 . S
C96 C97 1.408 . S
C96 H118 0.930 . S
C97 C92 1.348 . S
C97 C96 1.408 . S
C97 H119 0.930 . S
C98 O108 1.281 . S
C98 O109 1.254 . S
C99 O110 1.236 . S
C99 O111 1.266 . S
O100 Tb80 2.484 . S
O100 C82 1.248 . S
O101 Tb80 2.440 . S
O101 C82 1.266 . S
O102 Tb80 2.658 . S
O102 Tb81 2.325 . S
O102 C89 1.281 . S
O103 Tb80 2.409 . S
O103 C89 1.254 . S
O104 Tb80 2.378 . S
O104 C90 1.236 . S
O105 Tb81 2.341 . S
O105 C90 1.266 . S
O106 Tb81 2.484 . S
O106 C91 1.248 . S
O107 Tb81 2.440 . S
O107 C91 1.266 . S
O108 Tb80 2.325 . S
O108 Tb81 2.658 . S
O108 C98 1.281 . S
O109 Tb81 2.409 . S
O109 C98 1.254 . S
O110 Tb81 2.378 . S
O110 C99 1.236 . S
O111 Tb80 2.341 . S
O111 C99 1.266 . S
H112 C84 0.929 . S
H113 C85 0.931 . S
H114 C87 0.930 . S
H115 C88 0.930 . S
H116 C93 0.929 . S
H117 C94 0.931 . S
H118 C96 0.930 . S
H119 C97 0.930 . S
Tb120 C122 2.809 . S
Tb120 O140 2.484 . S
Tb120 O141 2.440 . S
Tb120 O142 2.658 . S
Tb120 O143 2.409 . S
Tb120 O144 2.378 . S
Tb120 O148 2.325 . S
Tb120 O151 2.341 . S
Tb121 C131 2.809 . S
Tb121 O142 2.325 . S
Tb121 O145 2.341 . S
Tb121 O146 2.484 . S
Tb121 O147 2.440 . S
Tb121 O148 2.658 . S
Tb121 O149 2.409 . S
Tb121 O150 2.378 . S
C122 Tb120 2.809 . S
C122 C123 1.514 . S
C122 O140 1.248 . S
C122 O141 1.266 . S
C123 C122 1.514 . S
C123 C124 1.359 1_556 S
C123 C128 1.348 1_556 S
C124 C123 1.359 1_554 S
C124 C125 1.380 . S
C124 H152 0.929 1_554 S
C125 C124 1.380 . S
C125 C126 1.347 . S
C125 H153 0.931 . S
C126 C125 1.347 . S
C126 C127 1.369 . S
C127 C126 1.369 . S
C127 C128 1.408 . S
C127 H154 0.930 . S
C128 C123 1.348 1_554 S
C128 C127 1.408 . S
C128 H155 0.935 . S
C129 O142 1.281 . S
C129 O143 1.254 . S
C130 O144 1.236 . S
C130 O145 1.266 . S
C131 Tb121 2.809 . S
C131 C132 1.514 . S
C131 O146 1.248 . S
C131 O147 1.266 . S
C132 C131 1.514 . S
C132 C133 1.359 . S
C132 C137 1.348 . S
C133 C132 1.359 . S
C133 C134 1.380 . S
C133 H156 0.929 . S
C134 C133 1.380 . S
C134 C135 1.347 . S
C134 H157 0.931 . S
C135 C134 1.347 . S
C135 C136 1.369 . S
C136 C135 1.369 . S
C136 C137 1.408 . S
C136 H158 0.930 . S
C137 C132 1.348 . S
C137 C136 1.408 . S
C137 H159 0.930 . S
C138 O148 1.281 . S
C138 O149 1.254 . S
C139 O150 1.236 . S
C139 O151 1.266 . S
O140 Tb120 2.484 . S
O140 C122 1.248 . S
O141 Tb120 2.440 . S
O141 C122 1.266 . S
O142 Tb120 2.658 . S
O142 Tb121 2.325 . S
O142 C129 1.281 . S
O143 Tb120 2.409 . S
O143 C129 1.254 . S
O144 Tb120 2.378 . S
O144 C130 1.236 . S
O145 Tb121 2.341 . S
O145 C130 1.266 . S
O146 Tb121 2.484 . S
O146 C131 1.248 . S
O147 Tb121 2.440 . S
O147 C131 1.266 . S
O148 Tb120 2.325 . S
O148 Tb121 2.658 . S
O148 C138 1.281 . S
O149 Tb121 2.409 . S
O149 C138 1.254 . S
O150 Tb121 2.378 . S
O150 C139 1.236 . S
O151 Tb120 2.341 . S
O151 C139 1.266 . S
H152 C124 0.929 1_556 S
H153 C125 0.931 . S
H154 C127 0.930 . S
H155 C128 0.935 . S
H156 C133 0.929 . S
H157 C134 0.931 . S
H158 C136 0.930 . S
H159 C137 0.930 . S
Tb160 C162 2.809 . S
Tb160 O180 2.484 . S
Tb160 O181 2.440 . S
Tb160 O182 2.658 . S
Tb160 O183 2.409 . S
Tb160 O184 2.378 . S
Tb160 O188 2.325 . S
Tb160 O191 2.341 . S
Tb161 C171 2.809 . S
Tb161 O182 2.325 1_655 S
Tb161 O185 2.341 . S
Tb161 O186 2.484 . S
Tb161 O187 2.440 . S
Tb161 O188 2.658 1_655 S
Tb161 O189 2.409 . S
Tb161 O190 2.378 1_655 S
C162 Tb160 2.809 . S
C162 C163 1.514 1_556 S
C162 O180 1.248 . S
C162 O181 1.266 . S
C163 C162 1.514 1_554 S
C163 C164 1.359 . S
C163 C168 1.348 . S
C164 C163 1.359 . S
C164 C165 1.380 . S
C164 H192 0.929 . S
C165 C164 1.380 . S
C165 C166 1.347 . S
C165 H193 0.931 . S
C166 C165 1.347 . S
C166 C167 1.369 . S
C167 C166 1.369 . S
C167 C168 1.408 . S
C167 H194 0.930 . S
C168 C163 1.348 . S
C168 C167 1.408 . S
C168 H195 0.930 . S
C169 O182 1.281 . S
C169 O183 1.254 . S
C170 O184 1.236 1_655 S
C170 O185 1.266 . S
C171 Tb161 2.809 . S
C171 C172 1.514 . S
C171 O186 1.248 . S
C171 O187 1.266 . S
C172 C171 1.514 . S
C172 C173 1.359 . S
C172 C177 1.348 . S
C173 C172 1.359 . S
C173 C174 1.380 . S
C173 H196 0.929 . S
C174 C173 1.380 . S
C174 C175 1.347 . S
C174 H197 0.931 . S
C175 C174 1.347 . S
C175 C176 1.369 . S
C176 C175 1.369 . S
C176 C177 1.408 . S
C176 H198 0.930 . S
C177 C172 1.348 . S
C177 C176 1.408 . S
C177 H199 0.930 . S
C178 O188 1.281 . S
C178 O189 1.254 1_455 S
C179 O190 1.236 . S
C179 O191 1.266 . S
O180 Tb160 2.484 . S
O180 C162 1.248 . S
O181 Tb160 2.440 . S
O181 C162 1.266 . S
O182 Tb160 2.658 . S
O182 Tb161 2.325 1_455 S
O182 C169 1.281 . S
O183 Tb160 2.409 . S
O183 C169 1.254 . S
O184 Tb160 2.378 . S
O184 C170 1.236 1_455 S
O185 Tb161 2.341 . S
O185 C170 1.266 . S
O186 Tb161 2.484 . S
O186 C171 1.248 . S
O187 Tb161 2.440 . S
O187 C171 1.266 . S
O188 Tb160 2.325 . S
O188 Tb161 2.658 1_455 S
O188 C178 1.281 . S
O189 Tb161 2.409 . S
O189 C178 1.254 1_655 S
O190 Tb161 2.378 1_455 S
O190 C179 1.236 . S
O191 Tb160 2.341 . S
O191 C179 1.266 . S
H192 C164 0.929 . S
H193 C165 0.931 . S
H194 C167 0.930 . S
H195 C168 0.930 . S
H196 C173 0.929 . S
H197 C174 0.931 . S
H198 C176 0.930 . S
H199 C177 0.930 . S
Tb200 C202 2.809 . S
Tb200 O220 2.484 . S
Tb200 O221 2.440 . S
Tb200 O222 2.658 . S
Tb200 O223 2.409 . S
Tb200 O224 2.378 . S
Tb200 O228 2.325 . S
Tb200 O231 2.341 . S
Tb201 C211 2.809 1_554 S
Tb201 O222 2.325 . S
Tb201 O225 2.341 . S
Tb201 O226 2.484 . S
Tb201 O227 2.440 . S
Tb201 O228 2.658 . S
Tb201 O229 2.409 . S
Tb201 O230 2.378 . S
C202 Tb200 2.809 . S
C202 C203 1.514 . S
C202 O220 1.248 . S
C202 O221 1.266 . S
C203 C202 1.514 . S
C203 C204 1.359 . S
C203 C208 1.348 . S
C204 C203 1.359 . S
C204 C205 1.380 . S
C204 H232 0.929 . S
C205 C204 1.380 . S
C205 C206 1.347 . S
C205 H233 0.931 . S
C206 C205 1.347 . S
C206 C207 1.369 . S
C207 C206 1.369 . S
C207 C208 1.408 . S
C207 H234 0.930 . S
C208 C203 1.348 . S
C208 C207 1.408 . S
C208 H235 0.930 . S
C209 O222 1.281 . S
C209 O223 1.254 . S
C210 O224 1.236 . S
C210 O225 1.266 . S
C211 Tb201 2.809 1_556 S
C211 C212 1.514 . S
C211 O226 1.248 1_556 S
C211 O227 1.266 1_556 S
C212 C211 1.514 . S
C212 C213 1.359 . S
C212 C217 1.348 . S
C213 C212 1.359 . S
C213 C214 1.380 . S
C213 H236 0.929 . S
C214 C213 1.380 . S
C214 C215 1.347 . S
C214 H237 0.931 . S
C215 C214 1.347 . S
C215 C216 1.369 . S
C216 C215 1.369 . S
C216 C217 1.408 . S
C216 H238 0.930 . S
C217 C212 1.348 . S
C217 C216 1.408 . S
C217 H239 0.930 . S
C218 O228 1.281 . S
C218 O229 1.254 . S
C219 O230 1.236 . S
C219 O231 1.266 . S
O220 Tb200 2.484 . S
O220 C202 1.248 . S
O221 Tb200 2.440 . S
O221 C202 1.266 . S
O222 Tb200 2.658 . S
O222 Tb201 2.325 . S
O222 C209 1.281 . S
O223 Tb200 2.409 . S
O223 C209 1.254 . S
O224 Tb200 2.378 . S
O224 C210 1.236 . S
O225 Tb201 2.341 . S
O225 C210 1.266 . S
O226 Tb201 2.484 . S
O226 C211 1.248 1_554 S
O227 Tb201 2.440 . S
O227 C211 1.266 1_554 S
O228 Tb200 2.325 . S
O228 Tb201 2.658 . S
O228 C218 1.281 . S
O229 Tb201 2.409 . S
O229 C218 1.254 . S
O230 Tb201 2.378 . S
O230 C219 1.236 . S
O231 Tb200 2.341 . S
O231 C219 1.266 . S
H232 C204 0.929 . S
H233 C205 0.931 . S
H234 C207 0.930 . S
H235 C208 0.930 . S
H236 C213 0.929 . S
H237 C214 0.931 . S
H238 C216 0.930 . S
H239 C217 0.930 . S
Tb240 C242 2.809 . S
Tb240 O260 2.484 . S
Tb240 O261 2.440 . S
Tb240 O262 2.658 . S
Tb240 O263 2.409 . S
Tb240 O264 2.378 . S
Tb240 O268 2.325 . S
Tb240 O271 2.341 . S
Tb241 C251 2.809 . S
Tb241 O262 2.325 . S
Tb241 O265 2.341 . S
Tb241 O266 2.484 . S
Tb241 O267 2.440 . S
Tb241 O268 2.658 . S
Tb241 O269 2.409 . S
Tb241 O270 2.378 . S
C242 Tb240 2.809 . S
C242 C243 1.514 . S
C242 O260 1.248 . S
C242 O261 1.266 . S
C243 C242 1.514 . S
C243 C244 1.359 . S
C243 C248 1.348 . S
C244 C243 1.359 . S
C244 C245 1.380 . S
C244 H272 0.929 . S
C245 C244 1.380 . S
C245 C246 1.347 . S
C245 H273 0.931 . S
C246 C245 1.347 . S
C246 C247 1.369 . S
C247 C246 1.369 . S
C247 C248 1.408 . S
C247 H274 0.930 . S
C248 C243 1.348 . S
C248 C247 1.408 . S
C248 H275 0.930 . S
C249 O262 1.281 . S
C249 O263 1.254 . S
C250 O264 1.236 . S
C250 O265 1.266 . S
C251 Tb241 2.809 . S
C251 C252 1.514 . S
C251 O266 1.248 . S
C251 O267 1.266 . S
C252 C251 1.514 . S
C252 C253 1.359 . S
C252 C257 1.348 . S
C253 C252 1.359 . S
C253 C254 1.380 . S
C253 H276 0.929 . S
C254 C253 1.380 . S
C254 C255 1.347 . S
C254 H277 0.931 . S
C255 C254 1.347 . S
C255 C256 1.369 . S
C256 C255 1.369 . S
C256 C257 1.408 . S
C256 H278 0.930 . S
C257 C252 1.348 . S
C257 C256 1.408 . S
C257 H279 0.930 . S
C258 O268 1.281 . S
C258 O269 1.254 . S
C259 O270 1.236 . S
C259 O271 1.266 . S
O260 Tb240 2.484 . S
O260 C242 1.248 . S
O261 Tb240 2.440 . S
O261 C242 1.266 . S
O262 Tb240 2.658 . S
O262 Tb241 2.325 . S
O262 C249 1.281 . S
O263 Tb240 2.409 . S
O263 C249 1.254 . S
O264 Tb240 2.378 . S
O264 C250 1.236 . S
O265 Tb241 2.341 . S
O265 C250 1.266 . S
O266 Tb241 2.484 . S
O266 C251 1.248 . S
O267 Tb241 2.440 . S
O267 C251 1.266 . S
O268 Tb240 2.325 . S
O268 Tb241 2.658 . S
O268 C258 1.281 . S
O269 Tb241 2.409 . S
O269 C258 1.254 . S
O270 Tb241 2.378 . S
O270 C259 1.236 . S
O271 Tb240 2.341 . S
O271 C259 1.266 . S
H272 C244 0.929 . S
H273 C245 0.931 . S
H274 C247 0.930 . S
H275 C248 0.930 . S
H276 C253 0.929 . S
H277 C254 0.931 . S
H278 C256 0.930 . S
H279 C257 0.930 . S
Tb280 C282 2.809 . S
Tb280 O300 2.484 . S
Tb280 O301 2.440 . S
Tb280 O302 2.658 . S
Tb280 O303 2.409 . S
Tb280 O304 2.378 . S
Tb280 O308 2.325 . S
Tb280 O311 2.341 . S
Tb281 C291 2.809 . S
Tb281 O302 2.325 . S
Tb281 O305 2.341 . S
Tb281 O306 2.484 . S
Tb281 O307 2.440 . S
Tb281 O308 2.658 . S
Tb281 O309 2.409 . S
Tb281 O310 2.378 . S
C282 Tb280 2.809 . S
C282 C283 1.514 . S
C282 O300 1.248 . S
C282 O301 1.266 . S
C283 C282 1.514 . S
C283 C284 1.359 . S
C283 C288 1.348 . S
C284 C283 1.359 . S
C284 C285 1.380 . S
C284 H312 0.929 . S
C285 C284 1.380 . S
C285 C286 1.347 . S
C285 H313 0.931 . S
C286 C285 1.347 . S
C286 C287 1.369 . S
C287 C286 1.369 . S
C287 C288 1.408 . S
C287 H314 0.930 . S
C288 C283 1.348 . S
C288 C287 1.408 . S
C288 H315 0.930 . S
C289 O302 1.281 . S
C289 O303 1.254 . S
C290 O304 1.236 . S
C290 O305 1.266 . S
C291 Tb281 2.809 . S
C291 C292 1.514 . S
C291 O306 1.248 . S
C291 O307 1.266 . S
C292 C291 1.514 . S
C292 C293 1.359 . S
C292 C297 1.348 . S
C293 C292 1.359 . S
C293 C294 1.380 . S
C293 H316 0.929 . S
C294 C293 1.380 . S
C294 C295 1.347 . S
C294 H317 0.931 . S
C295 C294 1.347 . S
C295 C296 1.369 . S
C296 C295 1.369 . S
C296 C297 1.408 . S
C296 H318 0.930 . S
C297 C292 1.348 . S
C297 C296 1.408 . S
C297 H319 0.930 . S
C298 O308 1.281 . S
C298 O309 1.254 . S
C299 O310 1.236 . S
C299 O311 1.266 . S
O300 Tb280 2.484 . S
O300 C282 1.248 . S
O301 Tb280 2.440 . S
O301 C282 1.266 . S
O302 Tb280 2.658 . S
O302 Tb281 2.325 . S
O302 C289 1.281 . S
O303 Tb280 2.409 . S
O303 C289 1.254 . S
O304 Tb280 2.378 . S
O304 C290 1.236 . S
O305 Tb281 2.341 . S
O305 C290 1.266 . S
O306 Tb281 2.484 . S
O306 C291 1.248 . S
O307 Tb281 2.440 . S
O307 C291 1.266 . S
O308 Tb280 2.325 . S
O308 Tb281 2.658 . S
O308 C298 1.281 . S
O309 Tb281 2.409 . S
O309 C298 1.254 . S
O310 Tb281 2.378 . S
O310 C299 1.236 . S
O311 Tb280 2.341 . S
O311 C299 1.266 . S
H312 C284 0.929 . S
H313 C285 0.931 . S
H314 C287 0.930 . S
H315 C288 0.930 . S
H316 C293 0.929 . S
H317 C294 0.931 . S
H318 C296 0.930 . S
H319 C297 0.930 . S
Tb320 C322 2.809 . S
Tb320 O340 2.484 . S
Tb320 O341 2.440 . S
Tb320 O342 2.658 . S
Tb320 O343 2.409 . S
Tb320 O344 2.378 . S
Tb320 O348 2.325 . S
Tb320 O351 2.341 . S
Tb321 C331 2.809 . S
Tb321 O342 2.325 . S
Tb321 O345 2.341 . S
Tb321 O346 2.484 . S
Tb321 O347 2.440 . S
Tb321 O348 2.658 . S
Tb321 O349 2.409 . S
Tb321 O350 2.378 . S
C322 Tb320 2.809 . S
C322 C323 1.514 . S
C322 O340 1.248 . S
C322 O341 1.266 . S
C323 C322 1.514 . S
C323 C324 1.359 . S
C323 C328 1.348 . S
C324 C323 1.359 . S
C324 C325 1.380 . S
C324 H352 0.929 . S
C325 C324 1.380 . S
C325 C326 1.347 . S
C325 H353 0.931 . S
C326 C325 1.347 . S
C326 C327 1.369 . S
C327 C326 1.369 . S
C327 C328 1.408 . S
C327 H354 0.930 . S
C328 C323 1.348 . S
C328 C327 1.408 . S
C328 H355 0.930 . S
C329 O342 1.281 . S
C329 O343 1.254 . S
C330 O344 1.236 . S
C330 O345 1.266 . S
C331 Tb321 2.809 . S
C331 C332 1.514 . S
C331 O346 1.248 . S
C331 O347 1.266 . S
C332 C331 1.514 . S
C332 C333 1.359 . S
C332 C337 1.348 . S
C333 C332 1.359 . S
C333 C334 1.380 . S
C333 H356 0.929 . S
C334 C333 1.380 . S
C334 C335 1.347 . S
C334 H357 0.931 . S
C335 C334 1.347 . S
C335 C336 1.369 . S
C336 C335 1.369 . S
C336 C337 1.408 . S
C336 H358 0.930 . S
C337 C332 1.348 . S
C337 C336 1.408 . S
C337 H359 0.930 . S
C338 O348 1.281 . S
C338 O349 1.254 . S
C339 O350 1.236 . S
C339 O351 1.266 . S
O340 Tb320 2.484 . S
O340 C322 1.248 . S
O341 Tb320 2.440 . S
O341 C322 1.266 . S
O342 Tb320 2.658 . S
O342 Tb321 2.325 . S
O342 C329 1.281 . S
O343 Tb320 2.409 . S
O343 C329 1.254 . S
O344 Tb320 2.378 . S
O344 C330 1.236 . S
O345 Tb321 2.341 . S
O345 C330 1.266 . S
O346 Tb321 2.484 . S
O346 C331 1.248 . S
O347 Tb321 2.440 . S
O347 C331 1.266 . S
O348 Tb320 2.325 . S
O348 Tb321 2.658 . S
O348 C338 1.281 . S
O349 Tb321 2.409 . S
O349 C338 1.254 . S
O350 Tb321 2.378 . S
O350 C339 1.236 . S
O351 Tb320 2.341 . S
O351 C339 1.266 . S
H352 C324 0.929 . S
H353 C325 0.931 . S
H354 C327 0.930 . S
H355 C328 0.930 . S
H356 C333 0.929 . S
H357 C334 0.931 . S
H358 C336 0.930 . S
H359 C337 0.930 . S
Tb360 C362 2.809 . S
Tb360 O380 2.484 . S
Tb360 O381 2.440 . S
Tb360 O382 2.658 . S
Tb360 O383 2.409 . S
Tb360 O384 2.378 . S
Tb360 O388 2.325 . S
Tb360 O391 2.341 . S
Tb361 C371 2.809 . S
Tb361 O382 2.325 . S
Tb361 O385 2.341 . S
Tb361 O386 2.484 . S
Tb361 O387 2.440 . S
Tb361 O388 2.658 . S
Tb361 O389 2.409 . S
Tb361 O390 2.378 . S
C362 Tb360 2.809 . S
C362 C363 1.514 . S
C362 O380 1.248 . S
C362 O381 1.266 . S
C363 C362 1.514 . S
C363 C364 1.359 . S
C363 C368 1.348 . S
C364 C363 1.359 . S
C364 C365 1.380 . S
C364 H392 0.929 . S
C365 C364 1.380 . S
C365 C366 1.347 . S
C365 H393 0.931 . S
C366 C365 1.347 . S
C366 C367 1.369 . S
C367 C366 1.369 . S
C367 C368 1.408 . S
C367 H394 0.930 . S
C368 C363 1.348 . S
C368 C367 1.408 . S
C368 H395 0.930 . S
C369 O382 1.281 . S
C369 O383 1.254 . S
C370 O384 1.236 . S
C370 O385 1.266 . S
C371 Tb361 2.809 . S
C371 C372 1.514 . S
C371 O386 1.248 . S
C371 O387 1.266 . S
C372 C371 1.514 . S
C372 C373 1.359 1_554 S
C372 C377 1.348 1_554 S
C373 C372 1.359 1_556 S
C373 C374 1.380 . S
C373 H396 0.929 1_556 S
C374 C373 1.380 . S
C374 C375 1.347 . S
C374 H397 0.931 . S
C375 C374 1.347 . S
C375 C376 1.369 . S
C376 C375 1.369 . S
C376 C377 1.408 . S
C376 H398 0.930 . S
C377 C372 1.348 1_556 S
C377 C376 1.408 . S
C377 H399 0.935 . S
C378 O388 1.281 . S
C378 O389 1.254 . S
C379 O390 1.236 . S
C379 O391 1.266 . S
O380 Tb360 2.484 . S
O380 C362 1.248 . S
O381 Tb360 2.440 . S
O381 C362 1.266 . S
O382 Tb360 2.658 . S
O382 Tb361 2.325 . S
O382 C369 1.281 . S
O383 Tb360 2.409 . S
O383 C369 1.254 . S
O384 Tb360 2.378 . S
O384 C370 1.236 . S
O385 Tb361 2.341 . S
O385 C370 1.266 . S
O386 Tb361 2.484 . S
O386 C371 1.248 . S
O387 Tb361 2.440 . S
O387 C371 1.266 . S
O388 Tb360 2.325 . S
O388 Tb361 2.658 . S
O388 C378 1.281 . S
O389 Tb361 2.409 . S
O389 C378 1.254 . S
O390 Tb361 2.378 . S
O390 C379 1.236 . S
O391 Tb360 2.341 . S
O391 C379 1.266 . S
H392 C364 0.929 . S
H393 C365 0.931 . S
H394 C367 0.930 . S
H395 C368 0.930 . S
H396 C373 0.929 1_554 S
H397 C374 0.931 . S
H398 C376 0.930 . S
H399 C377 0.935 . S
Tb400 C402 2.809 1_556 S
Tb400 O420 2.484 . S
Tb400 O421 2.440 . S
Tb400 O422 2.658 . S
Tb400 O423 2.409 . S
Tb400 O424 2.378 . S
Tb400 O428 2.325 . S
Tb400 O431 2.341 . S
Tb401 C411 2.809 . S
Tb401 O422 2.325 . S
Tb401 O425 2.341 . S
Tb401 O426 2.484 . S
Tb401 O427 2.440 . S
Tb401 O428 2.658 . S
Tb401 O429 2.409 . S
Tb401 O430 2.378 . S
C402 Tb400 2.809 1_554 S
C402 C403 1.514 . S
C402 O420 1.248 1_554 S
C402 O421 1.266 1_554 S
C403 C402 1.514 . S
C403 C404 1.359 . S
C403 C408 1.348 . S
C404 C403 1.359 . S
C404 C405 1.380 . S
C404 H432 0.929 . S
C405 C404 1.380 . S
C405 C406 1.347 . S
C405 H433 0.931 . S
C406 C405 1.347 . S
C406 C407 1.369 . S
C407 C406 1.369 . S
C407 C408 1.408 . S
C407 H434 0.930 . S
C408 C403 1.348 . S
C408 C407 1.408 . S
C408 H435 0.930 . S
C409 O422 1.281 . S
C409 O423 1.254 . S
C410 O424 1.236 . S
C410 O425 1.266 . S
C411 Tb401 2.809 . S
C411 C412 1.514 . S
C411 O426 1.248 . S
C411 O427 1.266 . S
C412 C411 1.514 . S
C412 C413 1.359 . S
C412 C417 1.348 . S
C413 C412 1.359 . S
C413 C414 1.380 . S
C413 H436 0.929 . S
C414 C413 1.380 . S
C414 C415 1.347 . S
C414 H437 0.931 . S
C415 C414 1.347 . S
C415 C416 1.369 . S
C416 C415 1.369 . S
C416 C417 1.408 . S
C416 H438 0.930 . S
C417 C412 1.348 . S
C417 C416 1.408 . S
C417 H439 0.930 . S
C418 O428 1.281 . S
C418 O429 1.254 . S
C419 O430 1.236 . S
C419 O431 1.266 . S
O420 Tb400 2.484 . S
O420 C402 1.248 1_556 S
O421 Tb400 2.440 . S
O421 C402 1.266 1_556 S
O422 Tb400 2.658 . S
O422 Tb401 2.325 . S
O422 C409 1.281 . S
O423 Tb400 2.409 . S
O423 C409 1.254 . S
O424 Tb400 2.378 . S
O424 C410 1.236 . S
O425 Tb401 2.341 . S
O425 C410 1.266 . S
O426 Tb401 2.484 . S
O426 C411 1.248 . S
O427 Tb401 2.440 . S
O427 C411 1.266 . S
O428 Tb400 2.325 . S
O428 Tb401 2.658 . S
O428 C418 1.281 . S
O429 Tb401 2.409 . S
O429 C418 1.254 . S
O430 Tb401 2.378 . S
O430 C419 1.236 . S
O431 Tb400 2.341 . S
O431 C419 1.266 . S
H432 C404 0.929 . S
H433 C405 0.931 . S
H434 C407 0.930 . S
H435 C408 0.930 . S
H436 C413 0.929 . S
H437 C414 0.931 . S
H438 C416 0.930 . S
H439 C417 0.930 . S
Tb440 C442 2.809 . S
Tb440 O460 2.484 . S
Tb440 O461 2.440 . S
Tb440 O462 2.658 . S
Tb440 O463 2.409 . S
Tb440 O464 2.378 . S
Tb440 O468 2.325 . S
Tb440 O471 2.341 . S
Tb441 C451 2.809 . S
Tb441 O462 2.325 . S
Tb441 O465 2.341 . S
Tb441 O466 2.484 . S
Tb441 O467 2.440 . S
Tb441 O468 2.658 . S
Tb441 O469 2.409 . S
Tb441 O470 2.378 . S
C442 Tb440 2.809 . S
C442 C443 1.514 . S
C442 O460 1.248 . S
C442 O461 1.266 . S
C443 C442 1.514 . S
C443 C444 1.359 . S
C443 C448 1.348 . S
C444 C443 1.359 . S
C444 C445 1.380 . S
C444 H472 0.929 . S
C445 C444 1.380 . S
C445 C446 1.347 . S
C445 H473 0.931 . S
C446 C445 1.347 . S
C446 C447 1.369 . S
C447 C446 1.369 . S
C447 C448 1.408 . S
C447 H474 0.930 . S
C448 C443 1.348 . S
C448 C447 1.408 . S
C448 H475 0.930 . S
C449 O462 1.281 . S
C449 O463 1.254 . S
C450 O464 1.236 . S
C450 O465 1.266 . S
C451 Tb441 2.809 . S
C451 C452 1.514 . S
C451 O466 1.248 . S
C451 O467 1.266 . S
C452 C451 1.514 . S
C452 C453 1.359 . S
C452 C457 1.348 . S
C453 C452 1.359 . S
C453 C454 1.380 . S
C453 H476 0.929 . S
C454 C453 1.380 . S
C454 C455 1.347 . S
C454 H477 0.931 . S
C455 C454 1.347 . S
C455 C456 1.369 . S
C456 C455 1.369 . S
C456 C457 1.408 . S
C456 H478 0.930 . S
C457 C452 1.348 . S
C457 C456 1.408 . S
C457 H479 0.930 . S
C458 O468 1.281 . S
C458 O469 1.254 . S
C459 O470 1.236 . S
C459 O471 1.266 . S
O460 Tb440 2.484 . S
O460 C442 1.248 . S
O461 Tb440 2.440 . S
O461 C442 1.266 . S
O462 Tb440 2.658 . S
O462 Tb441 2.325 . S
O462 C449 1.281 . S
O463 Tb440 2.409 . S
O463 C449 1.254 . S
O464 Tb440 2.378 . S
O464 C450 1.236 . S
O465 Tb441 2.341 . S
O465 C450 1.266 . S
O466 Tb441 2.484 . S
O466 C451 1.248 . S
O467 Tb441 2.440 . S
O467 C451 1.266 . S
O468 Tb440 2.325 . S
O468 Tb441 2.658 . S
O468 C458 1.281 . S
O469 Tb441 2.409 . S
O469 C458 1.254 . S
O470 Tb441 2.378 . S
O470 C459 1.236 . S
O471 Tb440 2.341 . S
O471 C459 1.266 . S
H472 C444 0.929 . S
H473 C445 0.931 . S
H474 C447 0.930 . S
H475 C448 0.930 . S
H476 C453 0.929 . S
H477 C454 0.931 . S
H478 C456 0.930 . S
H479 C457 0.930 . S
Tb480 C482 2.809 . S
Tb480 O500 2.484 . S
Tb480 O501 2.440 . S
Tb480 O502 2.658 . S
Tb480 O503 2.409 . S
Tb480 O504 2.378 . S
Tb480 O508 2.325 . S
Tb480 O511 2.341 . S
Tb481 C491 2.809 . S
Tb481 O502 2.325 . S
Tb481 O505 2.341 . S
Tb481 O506 2.484 . S
Tb481 O507 2.440 . S
Tb481 O508 2.658 . S
Tb481 O509 2.409 . S
Tb481 O510 2.378 . S
C482 Tb480 2.809 . S
C482 C483 1.514 . S
C482 O500 1.248 . S
C482 O501 1.266 . S
C483 C482 1.514 . S
C483 C484 1.359 . S
C483 C488 1.348 . S
C484 C483 1.359 . S
C484 C485 1.380 . S
C484 H512 0.929 . S
C485 C484 1.380 . S
C485 C486 1.347 . S
C485 H513 0.931 . S
C486 C485 1.347 . S
C486 C487 1.369 . S
C487 C486 1.369 . S
C487 C488 1.408 . S
C487 H514 0.930 . S
C488 C483 1.348 . S
C488 C487 1.408 . S
C488 H515 0.930 . S
C489 O502 1.281 . S
C489 O503 1.254 . S
C490 O504 1.236 . S
C490 O505 1.266 . S
C491 Tb481 2.809 . S
C491 C492 1.514 . S
C491 O506 1.248 . S
C491 O507 1.266 . S
C492 C491 1.514 . S
C492 C493 1.359 . S
C492 C497 1.348 . S
C493 C492 1.359 . S
C493 C494 1.380 . S
C493 H516 0.929 . S
C494 C493 1.380 . S
C494 C495 1.347 . S
C494 H517 0.931 . S
C495 C494 1.347 . S
C495 C496 1.369 . S
C496 C495 1.369 . S
C496 C497 1.408 . S
C496 H518 0.930 . S
C497 C492 1.348 . S
C497 C496 1.408 . S
C497 H519 0.930 . S
C498 O508 1.281 . S
C498 O509 1.254 . S
C499 O510 1.236 . S
C499 O511 1.266 . S
O500 Tb480 2.484 . S
O500 C482 1.248 . S
O501 Tb480 2.440 . S
O501 C482 1.266 . S
O502 Tb480 2.658 . S
O502 Tb481 2.325 . S
O502 C489 1.281 . S
O503 Tb480 2.409 . S
O503 C489 1.254 . S
O504 Tb480 2.378 . S
O504 C490 1.236 . S
O505 Tb481 2.341 . S
O505 C490 1.266 . S
O506 Tb481 2.484 . S
O506 C491 1.248 . S
O507 Tb481 2.440 . S
O507 C491 1.266 . S
O508 Tb480 2.325 . S
O508 Tb481 2.658 . S
O508 C498 1.281 . S
O509 Tb481 2.409 . S
O509 C498 1.254 . S
O510 Tb481 2.378 . S
O510 C499 1.236 . S
O511 Tb480 2.341 . S
O511 C499 1.266 . S
H512 C484 0.929 . S
H513 C485 0.931 . S
H514 C487 0.930 . S
H515 C488 0.930 . S
H516 C493 0.929 . S
H517 C494 0.931 . S
H518 C496 0.930 . S
H519 C497 0.930 . S
Tb520 C522 2.794 1_455 S
Tb520 O540 2.484 . S
Tb520 O541 2.440 1_455 S
Tb520 O542 2.658 . S
Tb520 O543 2.409 . S
Tb520 O544 2.378 . S
Tb520 O548 2.325 . S
Tb520 O551 2.341 . S
Tb521 C531 2.809 . S
Tb521 O542 2.325 . S
Tb521 O545 2.341 . S
Tb521 O546 2.484 . S
Tb521 O547 2.440 . S
Tb521 O548 2.658 . S
Tb521 O549 2.409 . S
Tb521 O550 2.378 . S
C522 Tb520 2.794 1_655 S
C522 C523 1.529 1_554 S
C522 O540 1.240 1_655 S
C522 O541 1.260 . S
C523 C522 1.529 1_556 S
C523 C524 1.359 . S
C523 C528 1.348 . S
C524 C523 1.359 . S
C524 C525 1.380 . S
C524 H552 0.928 1_655 S
C525 C524 1.380 . S
C525 C526 1.347 . S
C525 H553 0.931 . S
C526 C525 1.347 . S
C526 C527 1.369 . S
C527 C526 1.369 . S
C527 C528 1.408 . S
C527 H554 0.930 . S
C528 C523 1.348 . S
C528 C527 1.408 . S
C528 H555 0.930 . S
C529 O542 1.281 . S
C529 O543 1.254 . S
C530 O544 1.236 . S
C530 O545 1.266 . S
C531 Tb521 2.809 . S
C531 C532 1.514 . S
C531 O546 1.248 . S
C531 O547 1.266 . S
C532 C531 1.514 . S
C532 C533 1.359 . S
C532 C537 1.348 . S
C533 C532 1.359 . S
C533 C534 1.380 . S
C533 H556 0.929 . S
C534 C533 1.380 . S
C534 C535 1.347 . S
C534 H557 0.931 . S
C535 C534 1.347 . S
C535 C536 1.369 . S
C536 C535 1.369 . S
C536 C537 1.408 . S
C536 H558 0.930 . S
C537 C532 1.348 . S
C537 C536 1.408 . S
C537 H559 0.930 . S
C538 O548 1.281 . S
C538 O549 1.254 . S
C539 O550 1.236 . S
C539 O551 1.266 . S
O540 Tb520 2.484 . S
O540 C522 1.240 1_455 S
O541 Tb520 2.440 1_655 S
O541 C522 1.260 . S
O542 Tb520 2.658 . S
O542 Tb521 2.325 . S
O542 C529 1.281 . S
O543 Tb520 2.409 . S
O543 C529 1.254 . S
O544 Tb520 2.378 . S
O544 C530 1.236 . S
O545 Tb521 2.341 . S
O545 C530 1.266 . S
O546 Tb521 2.484 . S
O546 C531 1.248 . S
O547 Tb521 2.440 . S
O547 C531 1.266 . S
O548 Tb520 2.325 . S
O548 Tb521 2.658 . S
O548 C538 1.281 . S
O549 Tb521 2.409 . S
O549 C538 1.254 . S
O550 Tb521 2.378 . S
O550 C539 1.236 . S
O551 Tb520 2.341 . S
O551 C539 1.266 . S
H552 C524 0.928 1_455 S
H553 C525 0.931 . S
H554 C527 0.930 . S
H555 C528 0.930 . S
H556 C533 0.929 . S
H557 C534 0.931 . S
H558 C536 0.930 . S
H559 C537 0.930 . S
Tb560 C562 2.809 . S
Tb560 O580 2.484 . S
Tb560 O581 2.440 . S
Tb560 O582 2.658 . S
Tb560 O583 2.409 . S
Tb560 O584 2.378 . S
Tb560 O588 2.325 . S
Tb560 O591 2.341 . S
Tb561 C571 2.809 . S
Tb561 O582 2.325 . S
Tb561 O585 2.341 . S
Tb561 O586 2.484 . S
Tb561 O587 2.440 . S
Tb561 O588 2.658 . S
Tb561 O589 2.409 . S
Tb561 O590 2.378 . S
C562 Tb560 2.809 . S
C562 C563 1.514 . S
C562 O580 1.248 . S
C562 O581 1.266 . S
C563 C562 1.514 . S
C563 C564 1.359 . S
C563 C568 1.348 . S
C564 C563 1.359 . S
C564 C565 1.380 . S
C564 H592 0.929 . S
C565 C564 1.380 . S
C565 C566 1.347 . S
C565 H593 0.931 . S
C566 C565 1.347 . S
C566 C567 1.369 . S
C567 C566 1.369 . S
C567 C568 1.408 . S
C567 H594 0.930 . S
C568 C563 1.348 . S
C568 C567 1.408 . S
C568 H595 0.930 . S
C569 O582 1.281 . S
C569 O583 1.254 . S
C570 O584 1.236 . S
C570 O585 1.266 . S
C571 Tb561 2.809 . S
C571 C572 1.514 . S
C571 O586 1.248 . S
C571 O587 1.266 . S
C572 C571 1.514 . S
C572 C573 1.359 . S
C572 C577 1.348 . S
C573 C572 1.359 . S
C573 C574 1.380 . S
C573 H596 0.929 . S
C574 C573 1.380 . S
C574 C575 1.347 . S
C574 H597 0.931 . S
C575 C574 1.347 . S
C575 C576 1.369 . S
C576 C575 1.369 . S
C576 C577 1.408 . S
C576 H598 0.930 . S
C577 C572 1.348 . S
C577 C576 1.408 . S
C577 H599 0.930 . S
C578 O588 1.281 . S
C578 O589 1.254 . S
C579 O590 1.236 . S
C579 O591 1.266 . S
O580 Tb560 2.484 . S
O580 C562 1.248 . S
O581 Tb560 2.440 . S
O581 C562 1.266 . S
O582 Tb560 2.658 . S
O582 Tb561 2.325 . S
O582 C569 1.281 . S
O583 Tb560 2.409 . S
O583 C569 1.254 . S
O584 Tb560 2.378 . S
O584 C570 1.236 . S
O585 Tb561 2.341 . S
O585 C570 1.266 . S
O586 Tb561 2.484 . S
O586 C571 1.248 . S
O587 Tb561 2.440 . S
O587 C571 1.266 . S
O588 Tb560 2.325 . S
O588 Tb561 2.658 . S
O588 C578 1.281 . S
O589 Tb561 2.409 . S
O589 C578 1.254 . S
O590 Tb561 2.378 . S
O590 C579 1.236 . S
O591 Tb560 2.341 . S
O591 C579 1.266 . S
H592 C564 0.929 . S
H593 C565 0.931 . S
H594 C567 0.930 . S
H595 C568 0.930 . S
H596 C573 0.929 . S
H597 C574 0.931 . S
H598 C576 0.930 . S
H599 C577 0.930 . S
Tb600 C602 2.809 . S
Tb600 O620 2.484 . S
Tb600 O621 2.440 . S
Tb600 O622 2.658 1_655 S
Tb600 O623 2.409 . S
Tb600 O624 2.378 1_655 S
Tb600 O628 2.325 1_655 S
Tb600 O631 2.341 . S
Tb601 C611 2.809 . S
Tb601 O622 2.325 . S
Tb601 O625 2.341 . S
Tb601 O626 2.484 . S
Tb601 O627 2.440 . S
Tb601 O628 2.658 . S
Tb601 O629 2.409 . S
Tb601 O630 2.378 . S
C602 Tb600 2.809 . S
C602 C603 1.514 . S
C602 O620 1.248 . S
C602 O621 1.266 . S
C603 C602 1.514 . S
C603 C604 1.359 . S
C603 C608 1.348 . S
C604 C603 1.359 . S
C604 C605 1.380 . S
C604 H632 0.929 . S
C605 C604 1.380 . S
C605 C606 1.347 . S
C605 H633 0.931 . S
C606 C605 1.347 . S
C606 C607 1.369 . S
C607 C606 1.369 . S
C607 C608 1.408 . S
C607 H634 0.930 . S
C608 C603 1.348 . S
C608 C607 1.408 . S
C608 H635 0.930 . S
C609 O622 1.281 . S
C609 O623 1.254 1_455 S
C610 O624 1.236 . S
C610 O625 1.266 . S
C611 Tb601 2.809 . S
C611 C612 1.514 1_556 S
C611 O626 1.248 . S
C611 O627 1.266 . S
C612 C611 1.514 1_554 S
C612 C613 1.359 . S
C612 C617 1.348 . S
C613 C612 1.359 . S
C613 C614 1.380 . S
C613 H636 0.929 . S
C614 C613 1.380 . S
C614 C615 1.347 . S
C614 H637 0.931 . S
C615 C614 1.347 . S
C615 C616 1.369 . S
C616 C615 1.369 . S
C616 C617 1.408 . S
C616 H638 0.930 . S
C617 C612 1.348 . S
C617 C616 1.408 . S
C617 H639 0.930 . S
C618 O628 1.281 . S
C618 O629 1.254 . S
C619 O630 1.236 1_655 S
C619 O631 1.266 . S
O620 Tb600 2.484 . S
O620 C602 1.248 . S
O621 Tb600 2.440 . S
O621 C602 1.266 . S
O622 Tb600 2.658 1_455 S
O622 Tb601 2.325 . S
O622 C609 1.281 . S
O623 Tb600 2.409 . S
O623 C609 1.254 1_655 S
O624 Tb600 2.378 1_455 S
O624 C610 1.236 . S
O625 Tb601 2.341 . S
O625 C610 1.266 . S
O626 Tb601 2.484 . S
O626 C611 1.248 . S
O627 Tb601 2.440 . S
O627 C611 1.266 . S
O628 Tb600 2.325 1_455 S
O628 Tb601 2.658 . S
O628 C618 1.281 . S
O629 Tb601 2.409 . S
O629 C618 1.254 . S
O630 Tb601 2.378 . S
O630 C619 1.236 1_455 S
O631 Tb600 2.341 . S
O631 C619 1.266 . S
H632 C604 0.929 . S
H633 C605 0.931 . S
H634 C607 0.930 . S
H635 C608 0.930 . S
H636 C613 0.929 . S
H637 C614 0.931 . S
H638 C616 0.930 . S
H639 C617 0.930 . S
H640 C646 0.930 . S
H641 C649 0.930 . S
H642 C650 0.930 . S
H643 C651 0.930 . S
H644 C654 0.930 . S
H645 C655 0.930 . S
C646 H640 0.930 . S
C646 C647 1.355 . S
C646 C648 1.415 1_554 S
C647 C646 1.355 . S
C647 C649 1.419 . S
C648 C646 1.415 1_556 S
C648 C653 1.425 . S
C648 C655 1.409 . S
C649 H641 0.930 . S
C649 C647 1.419 . S
C649 C650 1.362 1_554 S
C650 H642 0.930 . S
C650 C649 1.362 1_556 S
C650 C653 1.409 . S
C651 H643 0.930 . S
C651 C652 1.355 . S
C651 C653 1.415 . S
C652 C651 1.355 . S
C652 C654 1.419 . S
C653 C648 1.425 . S
C653 C650 1.409 . S
C653 C651 1.415 . S
C654 H644 0.930 . S
C654 C652 1.419 . S
C654 C655 1.362 . S
C655 H645 0.930 . S
C655 C648 1.409 . S
C655 C654 1.362 . S
H656 C662 0.930 . S
H657 C665 0.930 . S
H658 C666 0.930 . S
H659 C667 0.930 . S
H660 C670 0.930 . S
H661 C671 0.930 . S
C662 H656 0.930 . S
C662 C663 1.355 . S
C662 C664 1.415 . S
C663 C662 1.355 . S
C663 C665 1.419 . S
C664 C662 1.415 . S
C664 C669 1.425 . S
C664 C671 1.409 . S
C665 H657 0.930 . S
C665 C663 1.419 . S
C665 C666 1.362 . S
C666 H658 0.930 . S
C666 C665 1.362 . S
C666 C669 1.409 . S
C667 H659 0.930 . S
C667 C668 1.355 . S
C667 C669 1.415 . S
C668 C667 1.355 . S
C668 C670 1.419 . S
C669 C664 1.425 . S
C669 C666 1.409 . S
C669 C667 1.415 . S
C670 H660 0.930 . S
C670 C668 1.419 . S
C670 C671 1.362 . S
C671 H661 0.930 . S
C671 C664 1.409 . S
C671 C670 1.362 . S
H672 C678 0.930 . S
H673 C681 0.930 . S
H674 C682 0.930 . S
H675 C683 0.930 . S
H676 C686 0.930 . S
H677 C687 0.930 . S
C678 H672 0.930 . S
C678 C679 1.355 . S
C678 C680 1.415 . S
C679 C678 1.355 . S
C679 C681 1.419 . S
C680 C678 1.415 . S
C680 C685 1.425 . S
C680 C687 1.409 . S
C681 H673 0.930 . S
C681 C679 1.419 . S
C681 C682 1.362 . S
C682 H674 0.930 . S
C682 C681 1.362 . S
C682 C685 1.409 . S
C683 H675 0.930 . S
C683 C684 1.355 . S
C683 C685 1.415 . S
C684 C683 1.355 . S
C684 C686 1.419 . S
C685 C680 1.425 . S
C685 C682 1.409 . S
C685 C683 1.415 . S
C686 H676 0.930 . S
C686 C684 1.419 . S
C686 C687 1.362 . S
C687 H677 0.930 . S
C687 C680 1.409 . S
C687 C686 1.362 . S
H688 C694 0.930 . S
H689 C697 0.930 . S
H690 C698 0.930 . S
H691 C699 0.930 . S
H692 C702 0.930 . S
H693 C703 0.930 . S
C694 H688 0.930 . S
C694 C695 1.355 . S
C694 C696 1.415 . S
C695 C694 1.355 . S
C695 C697 1.419 . S
C696 C694 1.415 . S
C696 C701 1.425 . S
C696 C703 1.409 . S
C697 H689 0.930 . S
C697 C695 1.419 . S
C697 C698 1.362 . S
C698 H690 0.930 . S
C698 C697 1.362 . S
C698 C701 1.409 . S
C699 H691 0.930 . S
C699 C700 1.355 . S
C699 C701 1.415 . S
C700 C699 1.355 . S
C700 C702 1.419 . S
C701 C696 1.425 . S
C701 C698 1.409 . S
C701 C699 1.415 . S
C702 H692 0.930 . S
C702 C700 1.419 . S
C702 C703 1.362 . S
C703 H693 0.930 . S
C703 C696 1.409 . S
C703 C702 1.362 . S
H704 C710 0.930 . S
H705 C713 0.930 . S
H706 C714 0.930 . S
H707 C715 0.930 . S
H708 C718 0.930 . S
H709 C719 0.930 1_455 S
C710 H704 0.930 . S
C710 C711 1.355 . S
C710 C712 1.415 . S
C711 C710 1.355 . S
C711 C713 1.419 . S
C712 C710 1.415 . S
C712 C717 1.425 . S
C712 C719 1.409 . S
C713 H705 0.930 . S
C713 C711 1.419 . S
C713 C714 1.362 . S
C714 H706 0.930 . S
C714 C713 1.362 . S
C714 C717 1.409 . S
C715 H707 0.930 . S
C715 C716 1.355 . S
C715 C717 1.415 1_556 S
C716 C715 1.355 . S
C716 C718 1.419 1_655 S
C717 C712 1.425 . S
C717 C714 1.409 . S
C717 C715 1.415 1_554 S
C718 H708 0.930 . S
C718 C716 1.419 1_455 S
C718 C719 1.362 1_456 S
C719 H709 0.930 1_655 S
C719 C712 1.409 . S
C719 C718 1.362 1_654 S
H720 C726 0.930 . S
H721 C729 0.930 . S
H722 C730 0.930 . S
H723 C731 0.930 . S
H724 C734 0.930 . S
H725 C735 0.930 . S
C726 H720 0.930 . S
C726 C727 1.355 . S
C726 C728 1.415 . S
C727 C726 1.355 . S
C727 C729 1.419 . S
C728 C726 1.415 . S
C728 C733 1.425 . S
C728 C735 1.409 . S
C729 H721 0.930 . S
C729 C727 1.419 . S
C729 C730 1.362 . S
C730 H722 0.930 . S
C730 C729 1.362 . S
C730 C733 1.409 . S
C731 H723 0.930 . S
C731 C732 1.355 . S
C731 C733 1.415 . S
C732 C731 1.355 . S
C732 C734 1.419 . S
C733 C728 1.425 . S
C733 C730 1.409 . S
C733 C731 1.415 . S
C734 H724 0.930 . S
C734 C732 1.419 . S
C734 C735 1.362 . S
C735 H725 0.930 . S
C735 C728 1.409 . S
C735 C734 1.362 . S
H736 C742 0.930 . S
H737 C745 0.930 . S
H738 C746 0.930 . S
H739 C747 0.930 . S
H740 C750 0.930 . S
H741 C751 0.930 . S
C742 H736 0.930 . S
C742 C743 1.355 . S
C742 C744 1.415 . S
C743 C742 1.355 . S
C743 C745 1.419 . S
C744 C742 1.415 . S
C744 C749 1.425 . S
C744 C751 1.409 . S
C745 H737 0.930 . S
C745 C743 1.419 . S
C745 C746 1.362 . S
C746 H738 0.930 . S
C746 C745 1.362 . S
C746 C749 1.409 . S
C747 H739 0.930 . S
C747 C748 1.355 . S
C747 C749 1.415 . S
C748 C747 1.355 . S
C748 C750 1.419 . S
C749 C744 1.425 . S
C749 C746 1.409 . S
C749 C747 1.415 . S
C750 H740 0.930 . S
C750 C748 1.419 . S
C750 C751 1.362 . S
C751 H741 0.930 . S
C751 C744 1.409 . S
C751 C750 1.362 . S
H752 C758 0.930 . S
H753 C761 0.930 . S
H754 C762 0.930 . S
H755 C763 0.930 . S
H756 C766 0.930 . S
H757 C767 0.930 . S
C758 H752 0.930 . S
C758 C759 1.355 . S
C758 C760 1.415 . S
C759 C758 1.355 . S
C759 C761 1.419 . S
C760 C758 1.415 . S
C760 C765 1.425 . S
C760 C767 1.409 . S
C761 H753 0.930 . S
C761 C759 1.419 . S
C761 C762 1.362 . S
C762 H754 0.930 . S
C762 C761 1.362 . S
C762 C765 1.409 . S
C763 H755 0.930 . S
C763 C764 1.355 . S
C763 C765 1.415 . S
C764 C763 1.355 . S
C764 C766 1.419 . S
C765 C760 1.425 . S
C765 C762 1.409 . S
C765 C763 1.415 . S
C766 H756 0.930 . S
C766 C764 1.419 . S
C766 C767 1.362 . S
C767 H757 0.930 . S
C767 C760 1.409 . S
C767 C766 1.362 . S
H768 C774 0.930 . S
H769 C777 0.930 . S
H770 C778 0.930 . S
H771 C779 0.930 . S
H772 C782 0.930 . S
H773 C783 0.930 . S
C774 H768 0.930 . S
C774 C775 1.355 . S
C774 C776 1.415 . S
C775 C774 1.355 . S
C775 C777 1.419 . S
C776 C774 1.415 . S
C776 C781 1.425 . S
C776 C783 1.409 . S
C777 H769 0.930 . S
C777 C775 1.419 . S
C777 C778 1.362 . S
C778 H770 0.930 . S
C778 C777 1.362 . S
C778 C781 1.409 . S
C779 H771 0.930 . S
C779 C780 1.355 . S
C779 C781 1.415 . S
C780 C779 1.355 . S
C780 C782 1.419 . S
C781 C776 1.425 . S
C781 C778 1.409 . S
C781 C779 1.415 . S
C782 H772 0.930 . S
C782 C780 1.419 . S
C782 C783 1.362 . S
C783 H773 0.930 . S
C783 C776 1.409 . S
C783 C782 1.362 . S
H784 C790 0.930 . S
H785 C793 0.930 . S
H786 C794 0.930 . S
H787 C795 0.930 . S
H788 C798 0.930 . S
H789 C799 0.930 . S
C790 H784 0.930 . S
C790 C791 1.355 . S
C790 C792 1.415 . S
C791 C790 1.355 . S
C791 C793 1.419 . S
C792 C790 1.415 . S
C792 C797 1.425 . S
C792 C799 1.409 . S
C793 H785 0.930 . S
C793 C791 1.419 . S
C793 C794 1.362 . S
C794 H786 0.930 . S
C794 C793 1.362 . S
C794 C797 1.409 . S
C795 H787 0.930 . S
C795 C796 1.355 . S
C795 C797 1.415 . S
C796 C795 1.355 . S
C796 C798 1.419 . S
C797 C792 1.425 . S
C797 C794 1.409 . S
C797 C795 1.415 . S
C798 H788 0.930 . S
C798 C796 1.419 . S
C798 C799 1.362 . S
C799 H789 0.930 . S
C799 C792 1.409 . S
C799 C798 1.362 . S
H800 C806 0.930 . S
H801 C809 0.930 . S
H802 C810 0.930 . S
H803 C811 0.930 . S
H804 C814 0.930 . S
H805 C815 0.930 . S
C806 H800 0.930 . S
C806 C807 1.355 . S
C806 C808 1.415 . S
C807 C806 1.355 . S
C807 C809 1.419 . S
C808 C806 1.415 . S
C808 C813 1.425 . S
C808 C815 1.409 . S
C809 H801 0.930 . S
C809 C807 1.419 . S
C809 C810 1.362 . S
C810 H802 0.930 . S
C810 C809 1.362 . S
C810 C813 1.409 . S
C811 H803 0.930 . S
C811 C812 1.355 . S
C811 C813 1.415 . S
C812 C811 1.355 . S
C812 C814 1.419 . S
C813 C808 1.425 . S
C813 C810 1.409 . S
C813 C811 1.415 . S
C814 H804 0.930 . S
C814 C812 1.419 . S
C814 C815 1.362 . S
C815 H805 0.930 . S
C815 C808 1.409 . S
C815 C814 1.362 . S
H816 C822 0.930 . S
H817 C825 0.930 . S
H818 C826 0.930 . S
H819 C827 0.930 . S
H820 C830 0.930 . S
H821 C831 0.930 . S
C822 H816 0.930 . S
C822 C823 1.355 . S
C822 C824 1.415 . S
C823 C822 1.355 . S
C823 C825 1.419 . S
C824 C822 1.415 . S
C824 C829 1.425 . S
C824 C831 1.409 . S
C825 H817 0.930 . S
C825 C823 1.419 . S
C825 C826 1.362 . S
C826 H818 0.930 . S
C826 C825 1.362 . S
C826 C829 1.409 . S
C827 H819 0.930 . S
C827 C828 1.355 . S
C827 C829 1.415 . S
C828 C827 1.355 . S
C828 C830 1.419 . S
C829 C824 1.425 . S
C829 C826 1.409 . S
C829 C827 1.415 . S
C830 H820 0.930 . S
C830 C828 1.419 . S
C830 C831 1.362 . S
C831 H821 0.930 . S
C831 C824 1.409 . S
C831 C830 1.362 . S
H832 C838 0.930 . S
H833 C841 0.930 . S
H834 C842 0.930 . S
H835 C843 0.930 . S
H836 C846 0.930 . S
H837 C847 0.930 . S
C838 H832 0.930 . S
C838 C839 1.355 . S
C838 C840 1.415 . S
C839 C838 1.355 . S
C839 C841 1.419 . S
C840 C838 1.415 . S
C840 C845 1.425 . S
C840 C847 1.409 . S
C841 H833 0.930 . S
C841 C839 1.419 . S
C841 C842 1.362 . S
C842 H834 0.930 . S
C842 C841 1.362 . S
C842 C845 1.409 . S
C843 H835 0.930 . S
C843 C844 1.355 . S
C843 C845 1.415 . S
C844 C843 1.355 . S
C844 C846 1.419 . S
C845 C840 1.425 . S
C845 C842 1.409 . S
C845 C843 1.415 . S
C846 H836 0.930 . S
C846 C844 1.419 . S
C846 C847 1.362 . S
C847 H837 0.930 . S
C847 C840 1.409 . S
C847 C846 1.362 . S
H848 C854 0.930 . S
H849 C857 0.930 . S
H850 C858 0.930 . S
H851 C859 0.930 . S
H852 C862 0.930 . S
H853 C863 0.930 . S
C854 H848 0.930 . S
C854 C855 1.355 . S
C854 C856 1.415 . S
C855 C854 1.355 . S
C855 C857 1.419 . S
C856 C854 1.415 . S
C856 C861 1.425 . S
C856 C863 1.409 . S
C857 H849 0.930 . S
C857 C855 1.419 . S
C857 C858 1.362 . S
C858 H850 0.930 . S
C858 C857 1.362 . S
C858 C861 1.409 . S
C859 H851 0.930 . S
C859 C860 1.355 . S
C859 C861 1.415 . S
C860 C859 1.355 . S
C860 C862 1.419 . S
C861 C856 1.425 . S
C861 C858 1.409 . S
C861 C859 1.415 . S
C862 H852 0.930 . S
C862 C860 1.419 . S
C862 C863 1.362 . S
C863 H853 0.930 . S
C863 C856 1.409 . S
C863 C862 1.362 . S
H864 C870 0.930 . S
H865 C873 0.930 . S
H866 C874 0.930 . S
H867 C875 0.930 . S
H868 C878 0.930 . S
H869 C879 0.930 . S
C870 H864 0.930 . S
C870 C871 1.355 . S
C870 C872 1.415 . S
C871 C870 1.355 . S
C871 C873 1.419 . S
C872 C870 1.415 . S
C872 C877 1.425 . S
C872 C879 1.409 . S
C873 H865 0.930 . S
C873 C871 1.419 . S
C873 C874 1.362 . S
C874 H866 0.930 . S
C874 C873 1.362 . S
C874 C877 1.409 . S
C875 H867 0.930 . S
C875 C876 1.355 . S
C875 C877 1.415 . S
C876 C875 1.355 . S
C876 C878 1.419 . S
C877 C872 1.425 . S
C877 C874 1.409 . S
C877 C875 1.415 . S
C878 H868 0.930 . S
C878 C876 1.419 . S
C878 C879 1.362 . S
C879 H869 0.930 . S
C879 C872 1.409 . S
C879 C878 1.362 . S
H880 C886 0.930 . S
H881 C889 0.930 . S
H882 C890 0.930 . S
H883 C891 0.930 . S
H884 C894 0.930 . S
H885 C895 0.930 . S
C886 H880 0.930 . S
C886 C887 1.355 . S
C886 C888 1.415 . S
C887 C886 1.355 . S
C887 C889 1.419 . S
C888 C886 1.415 . S
C888 C893 1.425 . S
C888 C895 1.409 . S
C889 H881 0.930 . S
C889 C887 1.419 . S
C889 C890 1.362 . S
C890 H882 0.930 . S
C890 C889 1.362 . S
C890 C893 1.409 . S
C891 H883 0.930 . S
C891 C892 1.355 . S
C891 C893 1.415 . S
C892 C891 1.355 . S
C892 C894 1.419 . S
C893 C888 1.425 . S
C893 C890 1.409 . S
C893 C891 1.415 . S
C894 H884 0.930 . S
C894 C892 1.419 . S
C894 C895 1.362 . S
C895 H885 0.930 . S
C895 C888 1.409 . S
C895 C894 1.362 . S
H896 C902 0.930 . S
H897 C905 0.930 . S
H898 C906 0.930 . S
H899 C907 0.930 . S
H900 C910 0.930 . S
H901 C911 0.930 1_655 S
C902 H896 0.930 . S
C902 C903 1.355 . S
C902 C904 1.415 . S
C903 C902 1.355 . S
C903 C905 1.419 . S
C904 C902 1.415 . S
C904 C909 1.425 . S
C904 C911 1.409 . S
C905 H897 0.930 . S
C905 C903 1.419 . S
C905 C906 1.362 . S
C906 H898 0.930 . S
C906 C905 1.362 . S
C906 C909 1.409 . S
C907 H899 0.930 . S
C907 C908 1.355 . S
C907 C909 1.415 . S
C908 C907 1.355 . S
C908 C910 1.419 . S
C909 C904 1.425 . S
C909 C906 1.409 . S
C909 C907 1.415 . S
C910 H900 0.930 . S
C910 C908 1.419 . S
C910 C911 1.362 . S
C911 H901 0.930 1_455 S
C911 C904 1.409 . S
C911 C910 1.362 . S
H912 C918 0.927 1_455 S
H913 C921 0.930 . S
H914 C922 0.930 . S
H915 C923 0.930 . S
H916 C926 0.930 . S
H917 C927 0.930 . S
C918 H912 0.927 1_655 S
C918 C919 1.355 . S
C918 C920 1.415 1_655 S
C919 C918 1.355 . S
C919 C921 1.419 . S
C920 C918 1.415 1_455 S
C920 C925 1.425 . S
C920 C927 1.409 . S
C921 H913 0.930 . S
C921 C919 1.419 . S
C921 C922 1.362 . S
C922 H914 0.930 . S
C922 C921 1.362 . S
C922 C925 1.409 1_655 S
C923 H915 0.930 . S
C923 C924 1.355 . S
C923 C925 1.415 . S
C924 C923 1.355 . S
C924 C926 1.419 . S
C925 C920 1.425 . S
C925 C922 1.409 1_455 S
C925 C923 1.415 . S
C926 H916 0.930 . S
C926 C924 1.419 . S
C926 C927 1.362 . S
C927 H917 0.930 . S
C927 C920 1.409 . S
C927 C926 1.362 . S
H928 C934 0.930 . S
H929 C937 0.930 . S
H930 C938 0.930 . S
H931 C939 0.930 . S
H932 C942 0.930 . S
H933 C943 0.930 . S
C934 H928 0.930 . S
C934 C935 1.355 . S
C934 C936 1.415 . S
C935 C934 1.355 . S
C935 C937 1.419 . S
C936 C934 1.415 . S
C936 C941 1.425 . S
C936 C943 1.409 . S
C937 H929 0.930 . S
C937 C935 1.419 . S
C937 C938 1.362 . S
C938 H930 0.930 . S
C938 C937 1.362 . S
C938 C941 1.409 . S
C939 H931 0.930 . S
C939 C940 1.355 . S
C939 C941 1.415 . S
C940 C939 1.355 . S
C940 C942 1.419 . S
C941 C936 1.425 . S
C941 C938 1.409 . S
C941 C939 1.415 . S
C942 H932 0.930 . S
C942 C940 1.419 . S
C942 C943 1.362 . S
C943 H933 0.930 . S
C943 C936 1.409 . S
C943 C942 1.362 . S
H944 C950 0.930 . S
H945 C953 0.930 . S
H946 C954 0.930 . S
H947 C955 0.930 . S
H948 C958 0.930 . S
H949 C959 0.930 . S
C950 H944 0.930 . S
C950 C951 1.355 . S
C950 C952 1.415 . S
C951 C950 1.355 . S
C951 C953 1.419 . S
C952 C950 1.415 . S
C952 C957 1.425 . S
C952 C959 1.409 . S
C953 H945 0.930 . S
C953 C951 1.419 . S
C953 C954 1.362 . S
C954 H946 0.930 . S
C954 C953 1.362 . S
C954 C957 1.409 . S
C955 H947 0.930 . S
C955 C956 1.355 . S
C955 C957 1.415 . S
C956 C955 1.355 . S
C956 C958 1.419 . S
C957 C952 1.425 . S
C957 C954 1.409 . S
C957 C955 1.415 . S
C958 H948 0.930 . S
C958 C956 1.419 . S
C958 C959 1.362 . S
C959 H949 0.930 . S
C959 C952 1.409 . S
C959 C958 1.362 . S
H960 C966 0.930 . S
H961 C969 0.930 . S
H962 C970 0.930 . S
H963 C971 0.930 . S
H964 C974 0.930 . S
H965 C975 0.930 . S
C966 H960 0.930 . S
C966 C967 1.351 1_455 S
C966 C968 1.415 . S
C967 C966 1.351 1_655 S
C967 C969 1.423 . S
C968 C966 1.415 . S
C968 C973 1.425 1_455 S
C968 C975 1.409 . S
C969 H961 0.930 . S
C969 C967 1.423 . S
C969 C970 1.362 . S
C970 H962 0.930 . S
C970 C969 1.362 . S
C970 C973 1.409 . S
C971 H963 0.930 . S
C971 C972 1.355 1_655 S
C971 C973 1.415 . S
C972 C971 1.355 1_455 S
C972 C974 1.419 . S
C973 C968 1.425 1_655 S
C973 C970 1.409 . S
C973 C971 1.415 . S
C974 H964 0.930 . S
C974 C972 1.419 . S
C974 C975 1.362 . S
C975 H965 0.930 . S
C975 C968 1.409 . S
C975 C974 1.362 . S
H976 C982 0.930 . S
H977 C985 0.930 . S
H978 C986 0.930 . S
H979 C987 0.930 . S
H980 C990 0.930 . S
H981 C991 0.930 . S
C982 H976 0.930 . S
C982 C983 1.355 . S
C982 C984 1.415 . S
C983 C982 1.355 . S
C983 C985 1.419 . S
C984 C982 1.415 . S
C984 C989 1.425 . S
C984 C991 1.409 . S
C985 H977 0.930 . S
C985 C983 1.419 . S
C985 C986 1.362 . S
C986 H978 0.930 . S
C986 C985 1.362 . S
C986 C989 1.409 . S
C987 H979 0.930 . S
C987 C988 1.355 . S
C987 C989 1.415 . S
C988 C987 1.355 . S
C988 C990 1.419 . S
C989 C984 1.425 . S
C989 C986 1.409 . S
C989 C987 1.415 . S
C990 H980 0.930 . S
C990 C988 1.419 . S
C990 C991 1.362 . S
C991 H981 0.930 . S
C991 C984 1.409 . S
C991 C990 1.362 . S
H992 C998 0.930 . S
H993 C1001 0.930 . S
H994 C1002 0.930 . S
H995 C1003 0.930 . S
H996 C1006 0.930 . S
H997 C1007 0.930 . S
C998 H992 0.930 . S
C998 C999 1.355 . S
C998 C1000 1.415 . S
C999 C998 1.355 . S
C999 C1001 1.419 . S
C1000 C998 1.415 . S
C1000 C1005 1.425 . S
C1000 C1007 1.409 . S
C1001 H993 0.930 . S
C1001 C999 1.419 . S
C1001 C1002 1.362 . S
C1002 H994 0.930 . S
C1002 C1001 1.362 . S
C1002 C1005 1.409 . S
C1003 H995 0.930 . S
C1003 C1004 1.355 . S
C1003 C1005 1.415 . S
C1004 C1003 1.355 . S
C1004 C1006 1.419 . S
C1005 C1000 1.425 . S
C1005 C1002 1.409 . S
C1005 C1003 1.415 . S
C1006 H996 0.930 . S
C1006 C1004 1.419 . S
C1006 C1007 1.362 . S
C1007 H997 0.930 . S
C1007 C1000 1.409 . S
C1007 C1006 1.362 . S
H1008 C1014 0.930 . S
H1009 C1017 0.930 . S
H1010 C1018 0.930 . S
H1011 C1019 0.930 . S
H1012 C1022 0.930 . S
H1013 C1023 0.930 1_655 S
C1014 H1008 0.930 . S
C1014 C1015 1.355 . S
C1014 C1016 1.415 . S
C1015 C1014 1.355 . S
C1015 C1017 1.419 . S
C1016 C1014 1.415 . S
C1016 C1021 1.425 . S
C1016 C1023 1.409 . S
C1017 H1009 0.930 . S
C1017 C1015 1.419 . S
C1017 C1018 1.362 . S
C1018 H1010 0.930 . S
C1018 C1017 1.362 . S
C1018 C1021 1.409 . S
C1019 H1011 0.930 . S
C1019 C1020 1.339 1_455 S
C1019 C1021 1.415 . S
C1020 C1019 1.339 1_655 S
C1020 C1022 1.421 . S
C1021 C1016 1.425 . S
C1021 C1018 1.409 . S
C1021 C1019 1.415 . S
C1022 H1012 0.930 . S
C1022 C1020 1.421 . S
C1022 C1023 1.362 1_655 S
C1023 H1013 0.930 1_455 S
C1023 C1016 1.409 . S
C1023 C1022 1.362 1_455 S
H1024 C1030 0.930 . S
H1025 C1033 0.930 1_655 S
H1026 C1034 0.930 . S
H1027 C1035 0.930 1_655 S
H1028 C1038 0.930 . S
H1029 C1039 0.930 . S
C1030 H1024 0.930 . S
C1030 C1031 1.355 . S
C1030 C1032 1.428 . S
C1031 C1030 1.355 . S
C1031 C1033 1.419 . S
C1032 C1030 1.428 . S
C1032 C1037 1.439 1_544 S
C1032 C1039 1.390 1_544 S
C1033 H1025 0.930 1_455 S
C1033 C1031 1.419 . S
C1033 C1034 1.362 1_455 S
C1034 H1026 0.930 . S
C1034 C1033 1.362 1_655 S
C1034 C1037 1.390 1_644 S
C1035 H1027 0.930 1_455 S
C1035 C1036 1.355 . S
C1035 C1037 1.428 . S
C1036 C1035 1.355 . S
C1036 C1038 1.419 . S
C1037 C1032 1.439 1_566 S
C1037 C1034 1.390 1_466 S
C1037 C1035 1.428 . S
C1038 H1028 0.930 . S
C1038 C1036 1.419 . S
C1038 C1039 1.362 . S
C1039 H1029 0.930 . S
C1039 C1032 1.390 1_566 S
C1039 C1038 1.362 . S
H1040 C1046 0.930 . S
H1041 C1049 0.930 . S
H1042 C1050 0.930 . S
H1043 C1051 0.930 . S
H1044 C1054 0.930 . S
H1045 C1055 0.930 . S
C1046 H1040 0.930 . S
C1046 C1047 1.355 . S
C1046 C1048 1.415 . S
C1047 C1046 1.355 . S
C1047 C1049 1.419 . S
C1048 C1046 1.415 . S
C1048 C1053 1.425 . S
C1048 C1055 1.409 . S
C1049 H1041 0.930 . S
C1049 C1047 1.419 . S
C1049 C1050 1.362 . S
C1050 H1042 0.930 . S
C1050 C1049 1.362 . S
C1050 C1053 1.409 . S
C1051 H1043 0.930 . S
C1051 C1052 1.355 . S
C1051 C1053 1.415 . S
C1052 C1051 1.355 . S
C1052 C1054 1.419 . S
C1053 C1048 1.425 . S
C1053 C1050 1.409 . S
C1053 C1051 1.415 . S
C1054 H1044 0.930 . S
C1054 C1052 1.419 . S
C1054 C1055 1.362 . S
C1055 H1045 0.930 . S
C1055 C1048 1.409 . S
C1055 C1054 1.362 . S
H1056 C1062 0.930 . S
H1057 C1065 0.930 . S
H1058 C1066 0.930 . S
H1059 C1067 0.930 . S
H1060 C1070 0.930 . S
H1061 C1071 0.930 . S
C1062 H1056 0.930 . S
C1062 C1063 1.355 . S
C1062 C1064 1.415 . S
C1063 C1062 1.355 . S
C1063 C1065 1.419 1_545 S
C1064 C1062 1.415 . S
C1064 C1069 1.425 1_545 S
C1064 C1071 1.409 . S
C1065 H1057 0.930 . S
C1065 C1063 1.419 1_565 S
C1065 C1066 1.362 . S
C1066 H1058 0.930 . S
C1066 C1065 1.362 . S
C1066 C1069 1.409 . S
C1067 H1059 0.930 . S
C1067 C1068 1.355 . S
C1067 C1069 1.415 . S
C1068 C1067 1.355 . S
C1068 C1070 1.419 1_565 S
C1069 C1064 1.425 1_565 S
C1069 C1066 1.409 . S
C1069 C1067 1.415 . S
C1070 H1060 0.930 . S
C1070 C1068 1.419 1_545 S
C1070 C1071 1.362 . S
C1071 H1061 0.930 . S
C1071 C1064 1.409 . S
C1071 C1070 1.362 . S
H1072 C1078 0.930 . S
H1073 C1081 0.930 . S
H1074 C1082 0.930 . S
H1075 C1083 0.930 . S
H1076 C1086 0.930 . S
H1077 C1087 0.930 . S
C1078 H1072 0.930 . S
C1078 C1079 1.355 . S
C1078 C1080 1.415 . S
C1079 C1078 1.355 . S
C1079 C1081 1.419 . S
C1080 C1078 1.415 . S
C1080 C1085 1.425 . S
C1080 C1087 1.409 . S
C1081 H1073 0.930 . S
C1081 C1079 1.419 . S
C1081 C1082 1.362 . S
C1082 H1074 0.930 . S
C1082 C1081 1.362 . S
C1082 C1085 1.409 . S
C1083 H1075 0.930 . S
C1083 C1084 1.355 . S
C1083 C1085 1.415 . S
C1084 C1083 1.355 . S
C1084 C1086 1.419 . S
C1085 C1080 1.425 . S
C1085 C1082 1.409 . S
C1085 C1083 1.415 . S
C1086 H1076 0.930 . S
C1086 C1084 1.419 . S
C1086 C1087 1.362 . S
C1087 H1077 0.930 . S
C1087 C1080 1.409 . S
C1087 C1086 1.362 . S
H1088 C1094 0.930 . S
H1089 C1097 0.930 . S
H1090 C1098 0.930 . S
H1091 C1099 0.930 . S
H1092 C1102 0.930 . S
H1093 C1103 0.930 . S
C1094 H1088 0.930 . S
C1094 C1095 1.355 . S
C1094 C1096 1.415 . S
C1095 C1094 1.355 . S
C1095 C1097 1.419 . S
C1096 C1094 1.415 . S
C1096 C1101 1.425 . S
C1096 C1103 1.409 . S
C1097 H1089 0.930 . S
C1097 C1095 1.419 . S
C1097 C1098 1.362 . S
C1098 H1090 0.930 . S
C1098 C1097 1.362 . S
C1098 C1101 1.409 . S
C1099 H1091 0.930 . S
C1099 C1100 1.355 . S
C1099 C1101 1.415 . S
C1100 C1099 1.355 . S
C1100 C1102 1.419 . S
C1101 C1096 1.425 . S
C1101 C1098 1.409 . S
C1101 C1099 1.415 . S
C1102 H1092 0.930 . S
C1102 C1100 1.419 . S
C1102 C1103 1.362 . S
C1103 H1093 0.930 . S
C1103 C1096 1.409 . S
C1103 C1102 1.362 . S
H1104 C1110 0.930 . S
H1105 C1113 0.930 . S
H1106 C1114 0.930 . S
H1107 C1115 0.930 . S
H1108 C1118 0.930 . S
H1109 C1119 0.930 . S
C1110 H1104 0.930 . S
C1110 C1111 1.355 . S
C1110 C1112 1.415 . S
C1111 C1110 1.355 . S
C1111 C1113 1.419 . S
C1112 C1110 1.415 . S
C1112 C1117 1.425 . S
C1112 C1119 1.409 . S
C1113 H1105 0.930 . S
C1113 C1111 1.419 . S
C1113 C1114 1.362 . S
C1114 H1106 0.930 . S
C1114 C1113 1.362 . S
C1114 C1117 1.409 . S
C1115 H1107 0.930 . S
C1115 C1116 1.355 . S
C1115 C1117 1.415 . S
C1116 C1115 1.355 . S
C1116 C1118 1.419 . S
C1117 C1112 1.425 . S
C1117 C1114 1.409 . S
C1117 C1115 1.415 . S
C1118 H1108 0.930 . S
C1118 C1116 1.419 . S
C1118 C1119 1.362 . S
C1119 H1109 0.930 . S
C1119 C1112 1.409 . S
C1119 C1118 1.362 . S
H1120 C1126 0.930 . S
H1121 C1129 0.930 . S
H1122 C1130 0.930 . S
H1123 C1131 0.930 . S
H1124 C1134 0.930 . S
H1125 C1135 0.930 . S
C1126 H1120 0.930 . S
C1126 C1127 1.355 . S
C1126 C1128 1.415 . S
C1127 C1126 1.355 . S
C1127 C1129 1.419 . S
C1128 C1126 1.415 . S
C1128 C1133 1.425 . S
C1128 C1135 1.409 . S
C1129 H1121 0.930 . S
C1129 C1127 1.419 . S
C1129 C1130 1.362 . S
C1130 H1122 0.930 . S
C1130 C1129 1.362 . S
C1130 C1133 1.409 . S
C1131 H1123 0.930 . S
C1131 C1132 1.355 . S
C1131 C1133 1.415 . S
C1132 C1131 1.355 . S
C1132 C1134 1.419 . S
C1133 C1128 1.425 . S
C1133 C1130 1.409 . S
C1133 C1131 1.415 . S
C1134 H1124 0.930 . S
C1134 C1132 1.419 . S
C1134 C1135 1.362 . S
C1135 H1125 0.930 . S
C1135 C1128 1.409 . S
C1135 C1134 1.362 . S
H1136 C1142 0.930 . S
H1137 C1145 0.930 . S
H1138 C1146 0.930 . S
H1139 C1147 0.930 . S
H1140 C1150 0.930 . S
H1141 C1151 0.930 . S
C1142 H1136 0.930 . S
C1142 C1143 1.355 . S
C1142 C1144 1.415 . S
C1143 C1142 1.355 . S
C1143 C1145 1.419 1_455 S
C1144 C1142 1.415 . S
C1144 C1149 1.425 1_556 S
C1144 C1151 1.409 . S
C1145 H1137 0.930 . S
C1145 C1143 1.419 1_655 S
C1145 C1146 1.362 1_556 S
C1146 H1138 0.930 . S
C1146 C1145 1.362 1_554 S
C1146 C1149 1.409 1_655 S
C1147 H1139 0.930 . S
C1147 C1148 1.355 . S
C1147 C1149 1.415 . S
C1148 C1147 1.355 . S
C1148 C1150 1.419 . S
C1149 C1144 1.425 1_554 S
C1149 C1146 1.409 1_455 S
C1149 C1147 1.415 . S
C1150 H1140 0.930 . S
C1150 C1148 1.419 . S
C1150 C1151 1.362 1_554 S
C1151 H1141 0.930 . S
C1151 C1144 1.409 . S
C1151 C1150 1.362 1_556 S
H1152 C1158 0.930 . S
H1153 C1161 0.930 . S
H1154 C1162 0.930 . S
H1155 C1163 0.930 . S
H1156 C1166 0.930 . S
H1157 C1167 0.930 . S
C1158 H1152 0.930 . S
C1158 C1159 1.355 . S
C1158 C1160 1.415 . S
C1159 C1158 1.355 . S
C1159 C1161 1.419 . S
C1160 C1158 1.415 . S
C1160 C1165 1.425 . S
C1160 C1167 1.409 . S
C1161 H1153 0.930 . S
C1161 C1159 1.419 . S
C1161 C1162 1.362 . S
C1162 H1154 0.930 . S
C1162 C1161 1.362 . S
C1162 C1165 1.409 . S
C1163 H1155 0.930 . S
C1163 C1164 1.355 . S
C1163 C1165 1.415 . S
C1164 C1163 1.355 . S
C1164 C1166 1.419 . S
C1165 C1160 1.425 . S
C1165 C1162 1.409 . S
C1165 C1163 1.415 . S
C1166 H1156 0.930 . S
C1166 C1164 1.419 . S
C1166 C1167 1.362 . S
C1167 H1157 0.930 . S
C1167 C1160 1.409 . S
C1167 C1166 1.362 . S
H1168 C1174 0.930 . S
H1169 C1177 0.930 . S
H1170 C1178 0.930 . S
H1171 C1179 0.930 . S
H1172 C1182 0.930 . S
H1173 C1183 0.930 . S
C1174 H1168 0.930 . S
C1174 C1175 1.355 . S
C1174 C1176 1.415 . S
C1175 C1174 1.355 . S
C1175 C1177 1.419 . S
C1176 C1174 1.415 . S
C1176 C1181 1.425 . S
C1176 C1183 1.409 . S
C1177 H1169 0.930 . S
C1177 C1175 1.419 . S
C1177 C1178 1.362 . S
C1178 H1170 0.930 . S
C1178 C1177 1.362 . S
C1178 C1181 1.409 . S
C1179 H1171 0.930 . S
C1179 C1180 1.355 . S
C1179 C1181 1.415 . S
C1180 C1179 1.355 . S
C1180 C1182 1.419 . S
C1181 C1176 1.425 . S
C1181 C1178 1.409 . S
C1181 C1179 1.415 . S
C1182 H1172 0.930 . S
C1182 C1180 1.419 . S
C1182 C1183 1.362 . S
C1183 H1173 0.930 . S
C1183 C1176 1.409 . S
C1183 C1182 1.362 . S
H1184 C1190 0.930 . S
H1185 C1193 0.930 . S
H1186 C1194 0.930 . S
H1187 C1195 0.930 . S
H1188 C1198 0.930 . S
H1189 C1199 0.930 . S
C1190 H1184 0.930 . S
C1190 C1191 1.355 . S
C1190 C1192 1.415 . S
C1191 C1190 1.355 . S
C1191 C1193 1.419 . S
C1192 C1190 1.415 . S
C1192 C1197 1.425 . S
C1192 C1199 1.409 . S
C1193 H1185 0.930 . S
C1193 C1191 1.419 . S
C1193 C1194 1.362 . S
C1194 H1186 0.930 . S
C1194 C1193 1.362 . S
C1194 C1197 1.409 . S
C1195 H1187 0.930 . S
C1195 C1196 1.355 . S
C1195 C1197 1.415 . S
C1196 C1195 1.355 . S
C1196 C1198 1.419 . S
C1197 C1192 1.425 . S
C1197 C1194 1.409 . S
C1197 C1195 1.415 . S
C1198 H1188 0.930 . S
C1198 C1196 1.419 . S
C1198 C1199 1.362 . S
C1199 H1189 0.930 . S
C1199 C1192 1.409 . S
C1199 C1198 1.362 . S
H1200 C1206 0.930 . S
H1201 C1209 0.930 . S
H1202 C1210 0.930 . S
H1203 C1211 0.930 . S
H1204 C1214 0.930 . S
H1205 C1215 0.930 . S
C1206 H1200 0.930 . S
C1206 C1207 1.355 . S
C1206 C1208 1.415 . S
C1207 C1206 1.355 . S
C1207 C1209 1.419 . S
C1208 C1206 1.415 . S
C1208 C1213 1.425 . S
C1208 C1215 1.409 . S
C1209 H1201 0.930 . S
C1209 C1207 1.419 . S
C1209 C1210 1.362 . S
C1210 H1202 0.930 . S
C1210 C1209 1.362 . S
C1210 C1213 1.409 . S
C1211 H1203 0.930 . S
C1211 C1212 1.355 . S
C1211 C1213 1.415 . S
C1212 C1211 1.355 . S
C1212 C1214 1.419 . S
C1213 C1208 1.425 . S
C1213 C1210 1.409 . S
C1213 C1211 1.415 . S
C1214 H1204 0.930 . S
C1214 C1212 1.419 . S
C1214 C1215 1.362 . S
C1215 H1205 0.930 . S
C1215 C1208 1.409 . S
C1215 C1214 1.362 . S
H1216 C1222 0.930 . S
H1217 C1225 0.930 . S
H1218 C1226 0.930 . S
H1219 C1227 0.930 . S
H1220 C1230 0.930 . S
H1221 C1231 0.930 . S
C1222 H1216 0.930 . S
C1222 C1223 1.355 . S
C1222 C1224 1.415 . S
C1223 C1222 1.355 . S
C1223 C1225 1.419 . S
C1224 C1222 1.415 . S
C1224 C1229 1.425 . S
C1224 C1231 1.409 . S
C1225 H1217 0.930 . S
C1225 C1223 1.419 . S
C1225 C1226 1.362 . S
C1226 H1218 0.930 . S
C1226 C1225 1.362 . S
C1226 C1229 1.409 . S
C1227 H1219 0.930 . S
C1227 C1228 1.355 . S
C1227 C1229 1.415 . S
C1228 C1227 1.355 . S
C1228 C1230 1.419 . S
C1229 C1224 1.425 . S
C1229 C1226 1.409 . S
C1229 C1227 1.415 . S
C1230 H1220 0.930 . S
C1230 C1228 1.419 . S
C1230 C1231 1.362 . S
C1231 H1221 0.930 . S
C1231 C1224 1.409 . S
C1231 C1230 1.362 . S
H1232 C1238 0.930 . S
H1233 C1241 0.930 . S
H1234 C1242 0.930 . S
H1235 C1243 0.930 1_455 S
H1236 C1246 0.930 . S
H1237 C1247 0.930 . S
C1238 H1232 0.930 . S
C1238 C1239 1.355 . S
C1238 C1240 1.415 . S
C1239 C1238 1.355 . S
C1239 C1241 1.419 . S
C1240 C1238 1.415 . S
C1240 C1245 1.425 . S
C1240 C1247 1.409 . S
C1241 H1233 0.930 . S
C1241 C1239 1.419 . S
C1241 C1242 1.362 . S
C1242 H1234 0.930 . S
C1242 C1241 1.362 . S
C1242 C1245 1.409 . S
C1243 H1235 0.930 1_655 S
C1243 C1244 1.355 1_655 S
C1243 C1245 1.415 . S
C1244 C1243 1.355 1_455 S
C1244 C1246 1.419 1_455 S
C1245 C1240 1.425 . S
C1245 C1242 1.409 . S
C1245 C1243 1.415 . S
C1246 H1236 0.930 . S
C1246 C1244 1.419 1_655 S
C1246 C1247 1.362 . S
C1247 H1237 0.930 . S
C1247 C1240 1.409 . S
C1247 C1246 1.362 . S
H1248 C1254 0.930 . S
H1249 C1257 0.930 . S
H1250 C1258 0.930 . S
H1251 C1259 0.930 . S
H1252 C1262 0.930 . S
H1253 C1263 0.930 . S
C1254 H1248 0.930 . S
C1254 C1255 1.355 . S
C1254 C1256 1.415 . S
C1255 C1254 1.355 . S
C1255 C1257 1.419 . S
C1256 C1254 1.415 . S
C1256 C1261 1.425 . S
C1256 C1263 1.409 . S
C1257 H1249 0.930 . S
C1257 C1255 1.419 . S
C1257 C1258 1.362 . S
C1258 H1250 0.930 . S
C1258 C1257 1.362 . S
C1258 C1261 1.409 . S
C1259 H1251 0.930 . S
C1259 C1260 1.355 . S
C1259 C1261 1.415 . S
C1260 C1259 1.355 . S
C1260 C1262 1.419 . S
C1261 C1256 1.425 . S
C1261 C1258 1.409 . S
C1261 C1259 1.415 . S
C1262 H1252 0.930 . S
C1262 C1260 1.419 . S
C1262 C1263 1.362 . S
C1263 H1253 0.930 . S
C1263 C1256 1.409 . S
C1263 C1262 1.362 . S
H1264 C1270 0.930 . S
H1265 C1273 0.930 . S
H1266 C1274 0.930 . S
H1267 C1275 0.930 . S
H1268 C1278 0.930 . S
H1269 C1279 0.930 . S
C1270 H1264 0.930 . S
C1270 C1271 1.355 . S
C1270 C1272 1.415 . S
C1271 C1270 1.355 . S
C1271 C1273 1.419 . S
C1272 C1270 1.415 . S
C1272 C1277 1.425 . S
C1272 C1279 1.409 . S
C1273 H1265 0.930 . S
C1273 C1271 1.419 . S
C1273 C1274 1.362 . S
C1274 H1266 0.930 . S
C1274 C1273 1.362 . S
C1274 C1277 1.409 . S
C1275 H1267 0.930 . S
C1275 C1276 1.355 . S
C1275 C1277 1.415 . S
C1276 C1275 1.355 . S
C1276 C1278 1.419 . S
C1277 C1272 1.425 . S
C1277 C1274 1.409 . S
C1277 C1275 1.415 . S
C1278 H1268 0.930 . S
C1278 C1276 1.419 . S
C1278 C1279 1.362 . S
C1279 H1269 0.930 . S
C1279 C1272 1.409 . S
C1279 C1278 1.362 . S
H1280 C1286 0.930 . S
H1281 C1289 0.930 . S
H1282 C1290 0.930 . S
H1283 C1291 0.930 . S
H1284 C1294 0.930 . S
H1285 C1295 0.930 . S
C1286 H1280 0.930 . S
C1286 C1287 1.355 . S
C1286 C1288 1.415 . S
C1287 C1286 1.355 . S
C1287 C1289 1.419 . S
C1288 C1286 1.415 . S
C1288 C1293 1.425 . S
C1288 C1295 1.409 . S
C1289 H1281 0.930 . S
C1289 C1287 1.419 . S
C1289 C1290 1.362 . S
C1290 H1282 0.930 . S
C1290 C1289 1.362 . S
C1290 C1293 1.409 . S
C1291 H1283 0.930 . S
C1291 C1292 1.355 1_556 S
C1291 C1293 1.415 . S
C1292 C1291 1.355 1_554 S
C1292 C1294 1.419 . S
C1293 C1288 1.425 . S
C1293 C1290 1.409 . S
C1293 C1291 1.415 . S
C1294 H1284 0.930 . S
C1294 C1292 1.419 . S
C1294 C1295 1.362 1_554 S
C1295 H1285 0.930 . S
C1295 C1288 1.409 . S
C1295 C1294 1.362 1_556 S
H1296 C1302 0.930 . S
H1297 C1305 0.930 . S
H1298 C1306 0.930 . S
H1299 C1307 0.930 . S
H1300 C1310 0.930 . S
H1301 C1311 0.930 . S
C1302 H1296 0.930 . S
C1302 C1303 1.355 . S
C1302 C1304 1.415 . S
C1303 C1302 1.355 . S
C1303 C1305 1.419 . S
C1304 C1302 1.415 . S
C1304 C1309 1.425 . S
C1304 C1311 1.409 . S
C1305 H1297 0.930 . S
C1305 C1303 1.419 . S
C1305 C1306 1.362 . S
C1306 H1298 0.930 . S
C1306 C1305 1.362 . S
C1306 C1309 1.409 . S
C1307 H1299 0.930 . S
C1307 C1308 1.355 . S
C1307 C1309 1.415 . S
C1308 C1307 1.355 . S
C1308 C1310 1.419 . S
C1309 C1304 1.425 . S
C1309 C1306 1.409 . S
C1309 C1307 1.415 . S
C1310 H1300 0.930 . S
C1310 C1308 1.419 . S
C1310 C1311 1.362 . S
C1311 H1301 0.930 . S
C1311 C1304 1.409 . S
C1311 C1310 1.362 . S
H1312 C1318 0.930 . S
H1313 C1321 0.930 . S
H1314 C1322 0.930 . S
H1315 C1323 0.930 . S
H1316 C1326 0.930 . S
H1317 C1327 0.930 . S
C1318 H1312 0.930 . S
C1318 C1319 1.355 . S
C1318 C1320 1.415 . S
C1319 C1318 1.355 . S
C1319 C1321 1.419 . S
C1320 C1318 1.415 . S
C1320 C1325 1.425 . S
C1320 C1327 1.409 . S
C1321 H1313 0.930 . S
C1321 C1319 1.419 . S
C1321 C1322 1.362 . S
C1322 H1314 0.930 . S
C1322 C1321 1.362 . S
C1322 C1325 1.409 . S
C1323 H1315 0.930 . S
C1323 C1324 1.355 . S
C1323 C1325 1.415 . S
C1324 C1323 1.355 . S
C1324 C1326 1.419 . S
C1325 C1320 1.425 . S
C1325 C1322 1.409 . S
C1325 C1323 1.415 . S
C1326 H1316 0.930 . S
C1326 C1324 1.419 . S
C1326 C1327 1.362 . S
C1327 H1317 0.930 . S
C1327 C1320 1.409 . S
C1327 C1326 1.362 . S
H1328 C1334 0.930 . S
H1329 C1337 0.930 . S
H1330 C1338 0.930 . S
H1331 C1339 0.930 . S
H1332 C1342 0.930 . S
H1333 C1343 0.930 . S
C1334 H1328 0.930 . S
C1334 C1335 1.355 . S
C1334 C1336 1.415 . S
C1335 C1334 1.355 . S
C1335 C1337 1.419 . S
C1336 C1334 1.415 . S
C1336 C1341 1.425 . S
C1336 C1343 1.409 . S
C1337 H1329 0.930 . S
C1337 C1335 1.419 . S
C1337 C1338 1.362 . S
C1338 H1330 0.930 . S
C1338 C1337 1.362 . S
C1338 C1341 1.409 . S
C1339 H1331 0.930 . S
C1339 C1340 1.355 . S
C1339 C1341 1.415 . S
C1340 C1339 1.355 . S
C1340 C1342 1.419 . S
C1341 C1336 1.425 . S
C1341 C1338 1.409 . S
C1341 C1339 1.415 . S
C1342 H1332 0.930 . S
C1342 C1340 1.419 . S
C1342 C1343 1.362 . S
C1343 H1333 0.930 . S
C1343 C1336 1.409 . S
C1343 C1342 1.362 . S
H1344 C1350 0.930 . S
H1345 C1353 0.930 . S
H1346 C1354 0.930 . S
H1347 C1355 0.930 . S
H1348 C1358 0.930 . S
H1349 C1359 0.930 . S
C1350 H1344 0.930 . S
C1350 C1351 1.355 . S
C1350 C1352 1.415 . S
C1351 C1350 1.355 . S
C1351 C1353 1.419 . S
C1352 C1350 1.415 . S
C1352 C1357 1.425 . S
C1352 C1359 1.409 . S
C1353 H1345 0.930 . S
C1353 C1351 1.419 . S
C1353 C1354 1.362 . S
C1354 H1346 0.930 . S
C1354 C1353 1.362 . S
C1354 C1357 1.409 . S
C1355 H1347 0.930 . S
C1355 C1356 1.355 . S
C1355 C1357 1.415 1_556 S
C1356 C1355 1.355 . S
C1356 C1358 1.419 1_556 S
C1357 C1352 1.425 . S
C1357 C1354 1.409 . S
C1357 C1355 1.415 1_554 S
C1358 H1348 0.930 . S
C1358 C1356 1.419 1_554 S
C1358 C1359 1.362 . S
C1359 H1349 0.930 . S
C1359 C1352 1.409 . S
C1359 C1358 1.362 . S
H1360 C1366 0.930 . S
H1361 C1369 0.930 . S
H1362 C1370 0.930 . S
H1363 C1371 0.930 . S
H1364 C1374 0.930 . S
H1365 C1375 0.930 . S
C1366 H1360 0.930 . S
C1366 C1367 1.355 . S
C1366 C1368 1.415 . S
C1367 C1366 1.355 . S
C1367 C1369 1.419 . S
C1368 C1366 1.415 . S
C1368 C1373 1.425 . S
C1368 C1375 1.409 . S
C1369 H1361 0.930 . S
C1369 C1367 1.419 . S
C1369 C1370 1.362 . S
C1370 H1362 0.930 . S
C1370 C1369 1.362 . S
C1370 C1373 1.409 . S
C1371 H1363 0.930 . S
C1371 C1372 1.355 . S
C1371 C1373 1.415 . S
C1372 C1371 1.355 . S
C1372 C1374 1.419 . S
C1373 C1368 1.425 . S
C1373 C1370 1.409 . S
C1373 C1371 1.415 . S
C1374 H1364 0.930 . S
C1374 C1372 1.419 . S
C1374 C1375 1.362 . S
C1375 H1365 0.930 . S
C1375 C1368 1.409 . S
C1375 C1374 1.362 . S
H1376 C1382 0.930 . S
H1377 C1385 0.930 . S
H1378 C1386 0.930 . S
H1379 C1387 0.930 . S
H1380 C1390 0.930 . S
H1381 C1391 0.930 . S
C1382 H1376 0.930 . S
C1382 C1383 1.355 . S
C1382 C1384 1.415 . S
C1383 C1382 1.355 . S
C1383 C1385 1.419 . S
C1384 C1382 1.415 . S
C1384 C1389 1.425 . S
C1384 C1391 1.409 . S
C1385 H1377 0.930 . S
C1385 C1383 1.419 . S
C1385 C1386 1.362 . S
C1386 H1378 0.930 . S
C1386 C1385 1.362 . S
C1386 C1389 1.409 . S
C1387 H1379 0.930 . S
C1387 C1388 1.355 . S
C1387 C1389 1.415 . S
C1388 C1387 1.355 . S
C1388 C1390 1.419 . S
C1389 C1384 1.425 . S
C1389 C1386 1.409 . S
C1389 C1387 1.415 . S
C1390 H1380 0.930 . S
C1390 C1388 1.419 . S
C1390 C1391 1.362 . S
C1391 H1381 0.930 . S
C1391 C1384 1.409 . S
C1391 C1390 1.362 . S
H1392 C1398 0.930 . S
H1393 C1401 0.930 . S
H1394 C1402 0.930 . S
H1395 C1403 0.930 . S
H1396 C1406 0.930 . S
H1397 C1407 0.930 . S
C1398 H1392 0.930 . S
C1398 C1399 1.355 . S
C1398 C1400 1.415 . S
C1399 C1398 1.355 . S
C1399 C1401 1.419 . S
C1400 C1398 1.415 . S
C1400 C1405 1.425 . S
C1400 C1407 1.409 . S
C1401 H1393 0.930 . S
C1401 C1399 1.419 . S
C1401 C1402 1.362 . S
C1402 H1394 0.930 . S
C1402 C1401 1.362 . S
C1402 C1405 1.409 . S
C1403 H1395 0.930 . S
C1403 C1404 1.355 . S
C1403 C1405 1.415 . S
C1404 C1403 1.355 . S
C1404 C1406 1.419 . S
C1405 C1400 1.425 . S
C1405 C1402 1.409 . S
C1405 C1403 1.415 . S
C1406 H1396 0.930 . S
C1406 C1404 1.419 . S
C1406 C1407 1.362 . S
C1407 H1397 0.930 . S
C1407 C1400 1.409 . S
C1407 C1406 1.362 . S
C647 C19 0.539 . S
C652 C286 0.455 . S
C663 C59 1.980 . S
C668 C166 2.034 . S
C679 C206 1.078 . S
C684 C86 0.897 . S
C695 C139 2.751 . S
C700 C259 2.695 . S
C711 C455 0.575 . S
C716 C170 0.458 . S
C727 C330 2.028 . S
C732 C15 2.032 . S
C743 C415 1.067 . S
C748 C255 0.863 . S
C759 C90 2.661 . S
C764 C370 2.748 . S
C775 C366 0.573 . S
C780 C499 0.479 . S
C791 C419 2.017 . S
C796 C566 2.045 . S
C807 C526 0.885 . S
C812 C326 1.010 . S
C823 C459 2.754 . S
C828 C619 2.690 1_554 S
C839 C570 0.406 . S
C844 C135 0.510 . S
C855 C495 2.034 . S
C860 C210 1.980 . S
C871 C55 0.954 . S
C876 C615 0.786 . S
C887 C290 2.743 . S
C892 C530 2.659 1_556 S
C903 C529 0.710 . S
C908 C18 0.503 . S
C919 C458 1.030 . S
C924 C58 0.869 . S
C935 C498 0.505 . S
C940 C89 0.708 . S
C951 C418 0.891 . S
C956 C138 1.062 . S
C967 C169 0.696 1_655 S
C972 C618 0.511 . S
C983 C369 1.091 . S
C988 C209 0.927 . S
C999 C258 0.519 . S
C1004 C569 0.694 . S
C1015 C289 1.065 . S
C1020 C329 0.913 . S
C1031 C9 1.763 . S
C1036 C178 1.763 . S
C1047 C49 2.218 . S
C1052 C218 2.218 . S
C1063 C249 1.745 . S
C1068 C98 1.745 . S
C1079 C129 1.539 . S
C1084 C298 1.539 . S
C1095 C409 2.232 . S
C1100 C338 2.232 . S
C1111 C449 1.456 . S
C1116 C378 1.456 . S
C1127 C489 1.748 . S
C1132 C578 1.748 . S
C1143 C609 1.664 . S
C1148 C538 1.664 . S
C1159 C6 2.844 . S
C1164 C299 2.907 . S
C1175 C46 1.165 . S
C1180 C179 1.189 . S
C1191 C219 3.720 1_556 S
C1196 C99 3.696 . S
C1207 C246 0.740 . S
C1212 C126 0.826 . S
C1223 C450 2.908 . S
C1228 C175 2.836 . S
C1239 C335 1.051 . S
C1244 C10 1.155 . S
C1255 C410 3.714 1_554 S
C1260 C250 3.697 . S
C1271 C95 0.745 . S
C1276 C375 0.684 . S
C1287 C486 2.828 . S
C1292 C379 2.910 . S
C1303 C579 1.198 . S
C1308 C406 1.144 . S
C1319 C539 3.687 1_655 S
C1324 C339 3.716 . S
C1335 C606 0.862 . S
C1340 C446 0.849 . S
C1351 C575 2.856 . S
C1356 C130 2.912 . S
C1367 C215 1.157 . S
C1372 C490 1.181 . S
C1383 C50 3.718 . S
C1388 C610 3.691 . S
C1399 C535 0.689 . S
C1404 C295 0.736 . S
