# Generated by pormake.
# Topology sod, (4)-cn, num edge types: 1
# Building blocks:
#     Node 0, Type 0, BuildingBlock: UXUYUI_clean_sbu_0, # of connection points: 4
#     Node 1, Type 0, BuildingBlock: UXUYUI_clean_sbu_0, # of connection points: 4
#     Node 2, Type 0, BuildingBlock: UXUYUI_clean_sbu_0, # of connection points: 4
#     Node 3, Type 0, BuildingBlock: UXUYUI_clean_sbu_0, # of connection points: 4
#     Node 4, Type 0, BuildingBlock: UXUYUI_clean_sbu_0, # of connection points: 4
#     Node 5, Type 0, BuildingBlock: UXUYUI_clean_sbu_0, # of connection points: 4
#     Node 6, Type 0, BuildingBlock: UXUYUI_clean_sbu_0, # of connection points: 4
#     Node 7, Type 0, BuildingBlock: UXUYUI_clean_sbu_0, # of connection points: 4
#     Node 8, Type 0, BuildingBlock: UXUYUI_clean_sbu_0, # of connection points: 4
#     Node 9, Type 0, BuildingBlock: UXUYUI_clean_sbu_0, # of connection points: 4
#     Node 10, Type 0, BuildingBlock: UXUYUI_clean_sbu_0, # of connection points: 4
#     Node 11, Type 0, BuildingBlock: UXUYUI_clean_sbu_0, # of connection points: 4
#     Edge 12, Type (0, 0), BuildingBlock: TEMPAE_clean_linker_10, # of connection points: 2
#     Edge 13, Type (0, 0), BuildingBlock: TEMPAE_clean_linker_10, # of connection points: 2
#     Edge 14, Type (0, 0), BuildingBlock: TEMPAE_clean_linker_10, # of connection points: 2
#     Edge 15, Type (0, 0), BuildingBlock: TEMPAE_clean_linker_10, # of connection points: 2
#     Edge 16, Type (0, 0), BuildingBlock: TEMPAE_clean_linker_10, # of connection points: 2
#     Edge 17, Type (0, 0), BuildingBlock: TEMPAE_clean_linker_10, # of connection points: 2
#     Edge 18, Type (0, 0), BuildingBlock: TEMPAE_clean_linker_10, # of connection points: 2
#     Edge 19, Type (0, 0), BuildingBlock: TEMPAE_clean_linker_10, # of connection points: 2
#     Edge 20, Type (0, 0), BuildingBlock: TEMPAE_clean_linker_10, # of connection points: 2
#     Edge 21, Type (0, 0), BuildingBlock: TEMPAE_clean_linker_10, # of connection points: 2
#     Edge 22, Type (0, 0), BuildingBlock: TEMPAE_clean_linker_10, # of connection points: 2
#     Edge 23, Type (0, 0), BuildingBlock: TEMPAE_clean_linker_10, # of connection points: 2
#     Edge 24, Type (0, 0), BuildingBlock: TEMPAE_clean_linker_10, # of connection points: 2
#     Edge 25, Type (0, 0), BuildingBlock: TEMPAE_clean_linker_10, # of connection points: 2
#     Edge 26, Type (0, 0), BuildingBlock: TEMPAE_clean_linker_10, # of connection points: 2
#     Edge 27, Type (0, 0), BuildingBlock: TEMPAE_clean_linker_10, # of connection points: 2
#     Edge 28, Type (0, 0), BuildingBlock: TEMPAE_clean_linker_10, # of connection points: 2
#     Edge 29, Type (0, 0), BuildingBlock: TEMPAE_clean_linker_10, # of connection points: 2
#     Edge 30, Type (0, 0), BuildingBlock: TEMPAE_clean_linker_10, # of connection points: 2
#     Edge 31, Type (0, 0), BuildingBlock: TEMPAE_clean_linker_10, # of connection points: 2
#     Edge 32, Type (0, 0), BuildingBlock: TEMPAE_clean_linker_10, # of connection points: 2
#     Edge 33, Type (0, 0), BuildingBlock: TEMPAE_clean_linker_10, # of connection points: 2
#     Edge 34, Type (0, 0), BuildingBlock: TEMPAE_clean_linker_10, # of connection points: 2
#     Edge 35, Type (0, 0), BuildingBlock: TEMPAE_clean_linker_10, # of connection points: 2
# Relax obj value: 0.150
# Max RMSD: 0.167
# Mean RMSD: 0.167
data_MOF--net-sod--node1-UXUYUI_clean_sbu_0--edge1-TEMPAE_clean_linker_10
_symmetry_space_group_name_H-M    P1
_symmetry_Int_Tables_number       1
_symmetry_cell_setting            triclinic
loop_
_symmetry_equiv_pos_as_xyz
'x, y, z'
_cell_length_a     62.899104
_cell_length_b     62.891468
_cell_length_c     62.883009
_cell_angle_alpha  89.977427
_cell_angle_beta   89.973426
_cell_angle_gamma 90.002003
loop_
_atom_site_label
_atom_site_type_symbol
_atom_site_fract_x
_atom_site_fract_y
_atom_site_fract_z
_atom_type_partial_charge
Li0 Li 0.97739 0.23363 0.49994 0.0
Li1 Li 0.99694 0.25949 0.52108 0.0
Li2 Li 0.9971 0.26099 0.48237 0.0
Li3 Li 0.01604 0.23307 0.50151 0.0
C4 C 0.96255 0.28181 0.49384 0.0
N5 N 0.94406 0.31767 0.47641 0.0
C6 C 0.96446 0.30146 0.50406 0.0
C7 C 0.95114 0.28039 0.47482 0.0
C8 C 0.95499 0.3194 0.49499 0.0
C9 C 0.94196 0.29871 0.46623 0.0
C10 C 0.99262 0.22682 0.54616 0.0
C11 C 0.00565 0.22953 0.58213 0.0
N12 N 0.98565 0.22592 0.58954 0.0
C13 C 0.97221 0.22311 0.55413 0.0
C14 C 0.00951 0.23 0.56026 0.0
C15 C 0.96901 0.2227 0.57611 0.0
C16 C 0.95598 0.19517 0.50473 0.0
N17 N 0.95314 0.21582 0.49909 0.0
C18 C 0.91639 0.20966 0.49191 0.0
C19 C 0.93385 0.22333 0.49292 0.0
C20 C 0.91889 0.18818 0.49751 0.0
C21 C 0.93899 0.18098 0.50404 0.0
H22 H 0.97154 0.18972 0.50963 0.0
H23 H 0.93202 0.23988 0.48876 0.0
C24 C 0.01417 0.28665 0.55222 0.0
N25 N 0.99633 0.27613 0.54615 0.0
C26 C 0.01392 0.29951 0.57027 0.0
C27 C 0.97693 0.29037 0.57551 0.0
C28 C 0.9779 0.2777 0.55733 0.0
C29 C 0.99508 0.3016 0.58209 0.0
H30 H 0.02849 0.28538 0.54283 0.0
H31 H 0.96391 0.26929 0.55195 0.0
C32 C 0.98905 0.21369 0.46555 0.0
N33 N 0.96987 0.17929 0.44611 0.0
C34 C 0.99695 0.19318 0.46884 0.0
C35 C 0.97149 0.21673 0.45227 0.0
C36 C 0.98702 0.17599 0.45887 0.0
C37 C 0.96198 0.19913 0.44264 0.0
C38 C 0.04282 0.2649 0.4994 0.0
C39 C 0.05136 0.27032 0.4796 0.0
C40 C 0.0564 0.25945 0.51613 0.0
C41 C 0.07341 0.27007 0.47684 0.0
C42 C 0.07835 0.25935 0.51271 0.0
N43 N 0.08632 0.26462 0.4933 0.0
C44 C 0.00087 0.30079 0.4629 0.0
C45 C 0.99592 0.27231 0.43867 0.0
C46 C 0.00065 0.31547 0.4463 0.0
N47 N -0.0019 0.27976 0.45884 0.0
C48 C 0.99594 0.28642 0.42152 0.0
C49 C -0.00195 0.30831 0.42533 0.0
H50 H 0.003 0.30616 0.47909 0.0
H51 H 0.99407 0.25546 0.43592 0.0
C52 C 0.04368 0.20201 0.51798 0.0
N53 N 0.04006 0.21493 0.50105 0.0
C54 C 0.06085 0.18801 0.51783 0.0
C55 C 0.07026 0.20088 0.48281 0.0
C56 C 0.05279 0.21454 0.48358 0.0
C57 C 0.07435 0.1873 0.50006 0.0
H58 H 0.03308 0.20238 0.53148 0.0
H59 H 0.04923 0.2247 0.47017 0.0
O60 O 0.972 0.26412 0.50228 0.0
O61 O 0.99602 0.22767 0.52469 0.0
O62 O -0.00181 0.23066 0.47562 0.0
O63 O 0.02126 0.26473 0.50234 0.0
H64 H 0.97333 0.30292 0.5187 0.0
H65 H 0.94973 0.26539 0.46654 0.0
H66 H 0.95642 0.33472 0.50268 0.0
H67 H 0.93325 0.29787 0.45143 0.0
H68 H 0.01854 0.23211 0.59322 0.0
H69 H 0.95891 0.22081 0.54347 0.0
H70 H 0.02537 0.23313 0.55438 0.0
H71 H 0.95328 0.21993 0.5825 0.0
H72 H 0.90109 0.21584 0.48701 0.0
H73 H 0.94162 0.16449 0.50824 0.0
H74 H 0.02815 0.30821 0.57454 0.0
H75 H 0.96213 0.29146 0.58424 0.0
H76 H 0.01043 0.19051 0.47916 0.0
H77 H 0.96506 0.23248 0.44971 0.0
H78 H 0.99289 0.16002 0.46135 0.0
H79 H 0.94827 0.20122 0.43247 0.0
H80 H 0.04111 0.27449 0.46645 0.0
H81 H 0.05006 0.25502 0.5315 0.0
H82 H 0.08024 0.27415 0.46159 0.0
H83 H 0.08904 0.25501 0.52547 0.0
H84 H 0.00265 0.33222 0.44978 0.0
H85 H 0.99393 0.28037 0.40553 0.0
H86 H 0.06354 0.17784 0.53147 0.0
H87 H 0.08014 0.20057 0.46871 0.0
Li88 Li 0.73358 0.9972 0.51316 0.0
Li89 Li 0.75969 0.97764 0.4921 0.0
Li90 Li 0.7595 0.01742 0.49173 0.0
Li91 Li 0.73246 0.99647 0.47338 0.0
C92 C 0.77284 0.00325 0.53537 0.0
N93 N 0.78906 0.01457 0.57463 0.0
C94 C 0.78241 0.98796 0.54837 0.0
C95 C 0.77187 0.02437 0.54221 0.0
C96 C 0.79041 0.99397 0.5682 0.0
C97 C 0.78006 0.02976 0.56214 0.0
C98 C 0.7275 0.95122 0.4964 0.0
C99 C 0.73069 0.91573 0.48226 0.0
N100 N 0.72643 0.90765 0.50187 0.0
C101 C 0.723 0.94259 0.51638 0.0
C102 C 0.73123 0.93771 0.47915 0.0
C103 C 0.72257 0.92051 0.51883 0.0
C104 C 0.69593 0.00406 0.53493 0.0
N105 N 0.71627 0.99741 0.53783 0.0
C106 C 0.70971 0.99114 0.57473 0.0
C107 C 0.72333 0.99085 0.55718 0.0
C108 C 0.68865 -0.00186 0.57224 0.0
C109 C 0.68181 0.00463 0.55199 0.0
H110 H 0.69068 0.00885 0.51926 0.0
H111 H 0.7394 0.98515 0.559 0.0
C112 C 0.79067 0.95056 0.47481 0.0
N113 N 0.77785 0.95356 0.49194 0.0
C114 C 0.80488 0.93355 0.47435 0.0
C115 C 0.79231 0.92291 0.50911 0.0
C116 C 0.77837 0.94017 0.50891 0.0
C117 C 0.80595 0.91957 0.49173 0.0
H118 H 0.79009 0.96154 0.46162 0.0
H119 H 0.76812 0.94305 0.5224 0.0
C120 C 0.72074 0.04074 0.49765 0.0
N121 N 0.70538 0.08076 0.50739 0.0
C122 C 0.71122 0.05322 0.4819 0.0
C123 C 0.72209 0.04849 0.51843 0.0
C124 C 0.70366 0.07344 0.48712 0.0
C125 C 0.71432 0.06879 0.52302 0.0
C126 C 0.76443 -0.00072 0.44616 0.0
C127 C 0.76985 0.01877 0.43695 0.0
C128 C 0.75971 0.98189 0.43315 0.0
C129 C 0.77018 0.02061 0.41481 0.0
C130 C 0.76017 0.9844 0.41108 0.0
N131 N 0.76534 0.00354 0.40244 0.0
C132 C 0.79794 0.03817 0.49643 0.0
C133 C 0.77057 0.06112 0.4844 0.0
C134 C 0.81255 0.05482 0.49619 0.0
N135 N 0.7774 0.04162 0.49075 0.0
C136 C 0.78464 0.07828 0.48397 0.0
C137 C 0.80594 0.0752 0.48992 0.0
H138 H 0.80293 0.02242 0.50123 0.0
H139 H 0.75432 0.06335 0.47941 0.0
C140 C 0.7003 0.97957 0.44741 0.0
N141 N 0.71393 0.99618 0.44962 0.0
C142 C 0.6862 0.97893 0.43032 0.0
C143 C 0.70049 0.01246 0.41806 0.0
C144 C 0.71423 0.01251 0.43546 0.0
C145 C 0.68617 0.99556 0.41541 0.0
H146 H 0.70027 0.96689 0.45901 0.0
H147 H 0.72508 0.02563 0.43775 0.0
O148 O 0.76504 -0.00241 0.51585 0.0
O149 O 0.72825 0.97279 0.49374 0.0
O150 O 0.72814 0.02085 0.49278 0.0
O151 O 0.7638 0.99723 0.46781 0.0
H152 H 0.78357 0.97159 0.54326 0.0
H153 H 0.76513 0.03655 0.53218 0.0
H154 H 0.79772 0.98226 0.57846 0.0
H155 H 0.77936 0.04604 0.56762 0.0
H156 H 0.7337 0.90508 0.46909 0.0
H157 H 0.72002 0.95281 0.52988 0.0
H158 H 0.73468 0.94415 0.46357 0.0
H159 H 0.71922 0.9136 0.53423 0.0
H160 H 0.71563 0.98604 0.59007 0.0
H161 H 0.66559 0.00974 0.54927 0.0
H162 H 0.81498 0.93141 0.46056 0.0
H163 H 0.79282 0.91266 0.52294 0.0
H164 H 0.70978 0.04741 0.4658 0.0
H165 H 0.72879 0.03889 0.53098 0.0
H166 H 0.6964 0.08332 0.47504 0.0
H167 H 0.71532 0.07498 0.53904 0.0
H168 H 0.77362 0.03236 0.44677 0.0
H169 H 0.75552 0.9667 0.44003 0.0
H170 H 0.77424 0.03563 0.40745 0.0
H171 H 0.75639 0.97112 0.40082 0.0
H172 H 0.82878 0.05182 0.50109 0.0
H173 H 0.77902 0.0937 0.47875 0.0
H174 H 0.67548 0.96554 0.42874 0.0
H175 H 0.70076 0.02571 0.40705 0.0
Li176 Li 0.01753 0.7629 0.49726 0.0
Li177 Li -0.00193 0.73531 0.51494 0.0
Li178 Li -0.00073 0.73665 0.47671 0.0
Li179 Li 0.9793 0.7625 0.49609 0.0
C180 C 0.04132 0.72745 0.48513 0.0
N181 N 0.07764 0.71823 0.46218 0.0
C182 C 0.05382 0.70991 0.49059 0.0
C183 C 0.0473 0.74031 0.46801 0.0
C184 C 0.07212 0.70551 0.47879 0.0
C185 C 0.06571 0.73538 0.4566 0.0
C186 C 0.00886 0.7706 0.53955 0.0
C187 C 0.01451 0.79181 0.57099 0.0
N188 N 0.03167 0.77964 0.57599 0.0
C189 C 0.02655 0.75829 0.54502 0.0
C190 C 0.00277 0.78748 0.55264 0.0
C191 C 0.03787 0.76312 0.5635 0.0
C192 C 0.0389 0.80117 0.49108 0.0
N193 N 0.04148 0.78112 0.49866 0.0
C194 C 0.07762 0.78835 0.50775 0.0
C195 C 0.06032 0.77448 0.50691 0.0
C196 C 0.07545 0.8092 0.50003 0.0
C197 C 0.05577 0.81554 0.49156 0.0
H198 H 0.02369 0.80595 0.48464 0.0
H199 H 0.06193 0.75844 0.51288 0.0
C200 C 0.00415 0.69605 0.53402 0.0
N201 N 0.99736 0.71612 0.53813 0.0
C202 C 0.00399 0.68071 0.55002 0.0
C203 C 0.9898 0.70703 0.57422 0.0
C204 C 0.99015 0.72185 0.5577 0.0
C205 C 0.99676 0.68615 0.57044 0.0
H206 H 0.00968 0.69199 0.51824 0.0
H207 H 0.98459 0.73788 0.56047 0.0
C208 C 0.98777 0.77298 0.45432 0.0
N209 N 0.96473 0.78355 0.41843 0.0
C210 C 0.97029 0.76068 0.44824 0.0
C211 C 0.99355 0.79064 0.44213 0.0
C212 C 0.95884 0.76629 0.43006 0.0
C213 C 0.9817 0.79573 0.42404 0.0
C214 C 0.95619 0.72617 0.50612 0.0
C215 C 0.9433 0.70942 0.49927 0.0
C216 C 0.95071 0.73745 0.52448 0.0
C217 C 0.92513 0.7042 0.51094 0.0
C218 C 0.93241 0.73174 0.53571 0.0
N219 N 0.92011 0.71537 0.52877 0.0
C220 C 0.992 0.69942 0.45434 0.0
C221 C 0.00918 0.72587 0.43365 0.0
C222 C 0.99246 0.68527 0.43732 0.0
N223 N 0.00031 0.71922 0.45222 0.0
C224 C 0.01014 0.71215 0.41622 0.0
C225 C 0.00179 0.69149 0.41797 0.0
H226 H 0.98508 0.69463 0.46935 0.0
H227 H 0.01569 0.74173 0.43242 0.0
C228 C 0.95725 0.79999 0.50425 0.0
N229 N 0.95496 0.78024 0.49587 0.0
C230 C 0.94009 0.81403 0.50456 0.0
C231 C 0.91857 0.7871 0.48753 0.0
C232 C 0.93615 0.77358 0.48756 0.0
C233 C 0.92043 0.80764 0.49611 0.0
H234 H 0.97248 0.80486 0.51058 0.0
H235 H 0.93478 0.75778 0.48095 0.0
O236 O 0.02334 0.73183 0.49659 0.0
O237 O -0.00252 0.76631 0.52152 0.0
O238 O -0.00072 0.76793 0.47209 0.0
O239 O 0.97406 0.73134 0.4948 0.0
H240 H 0.04941 0.69981 0.50382 0.0
H241 H 0.03788 0.75397 0.46354 0.0
H242 H 0.08195 0.69198 0.48283 0.0
H243 H 0.07051 0.7452 0.44331 0.0
H244 H 0.00997 0.80484 0.58126 0.0
H245 H 0.03149 0.74511 0.53517 0.0
H246 H 0.9891 0.79715 0.54864 0.0
H247 H 0.05159 0.75373 0.5679 0.0
H248 H 0.09243 0.78289 0.51463 0.0
H249 H 0.05348 0.83137 0.48518 0.0
H250 H 0.00967 0.66484 0.54653 0.0
H251 H 0.98389 0.71176 0.58969 0.0
H252 H 0.96558 0.74691 0.45739 0.0
H253 H 0.00706 0.80031 0.4466 0.0
H254 H 0.94528 0.75691 0.42518 0.0
H255 H 0.98599 0.80936 0.41446 0.0
H256 H 0.9473 0.70056 0.48507 0.0
H257 H 0.96039 0.75051 0.53002 0.0
H258 H 0.91501 0.69127 0.50582 0.0
H259 H 0.92799 0.74033 0.54994 0.0
H260 H 0.98548 0.66965 0.43928 0.0
H261 H 0.01766 0.71754 0.4017 0.0
H262 H 0.94231 0.82985 0.511 0.0
H263 H 0.90365 0.78149 0.48102 0.0
Li264 Li 0.23604 0.01842 0.50218 0.0
Li265 Li 0.26261 -0.00169 0.52256 0.0
Li266 Li 0.26286 -0.00197 0.48239 0.0
Li267 Li 0.23629 0.97856 0.50275 0.0
C268 C 0.2737 0.04295 0.50166 0.0
N269 N 0.28647 0.08499 0.50031 0.0
C270 C 0.28077 0.05308 0.52013 0.0
C271 C 0.27347 0.05412 0.48244 0.0
C272 C 0.28707 0.07437 0.51914 0.0
C273 C 0.27989 0.07538 0.4821 0.0
C274 C 0.22744 0.00095 0.54778 0.0
C275 C 0.22728 0.98651 0.58333 0.0
N276 N 0.22013 0.00547 0.59088 0.0
C277 C 0.21994 0.02024 0.55588 0.0
C278 C 0.23098 0.98388 0.56158 0.0
C279 C 0.21639 0.02222 0.57772 0.0
C280 C 0.19903 0.04013 0.49144 0.0
N281 N 0.21806 0.04271 0.50133 0.0
C282 C 0.20975 0.07889 0.50939 0.0
C283 C 0.22353 0.06153 0.51043 0.0
C284 C 0.19006 0.07676 0.49908 0.0
C285 C 0.18475 0.05703 0.49007 0.0
H286 H 0.19489 0.02486 0.48473 0.0
H287 H 0.23839 0.06306 0.5188 0.0
C288 C 0.29751 0.98485 0.5464 0.0
N289 N 0.28051 -0.00183 0.54695 0.0
C290 C 0.31165 0.98405 0.56345 0.0
C291 C 0.29046 0.01061 0.58145 0.0
C292 C 0.27688 0.0111 0.56391 0.0
C293 C 0.30815 0.99704 0.58125 0.0
H294 H 0.30021 0.97497 0.5326 0.0
H295 H 0.26367 0.02204 0.56373 0.0
C296 C 0.22681 0.00249 0.45761 0.0
N297 N 0.21728 0.01158 0.41568 0.0
C298 C 0.21906 0.98656 0.44421 0.0
C299 C 0.22938 0.02312 0.44977 0.0
C300 C 0.21443 0.99144 0.42303 0.0
C301 C 0.22456 0.02739 0.42851 0.0
C302 C 0.26946 0.9526 0.50323 0.0
C303 C 0.27439 0.94129 0.48474 0.0
C304 C 0.26634 0.94165 0.52231 0.0
C305 C 0.27571 0.91913 0.48559 0.0
C306 C 0.26779 0.91948 0.52251 0.0
N307 N 0.27238 0.90878 0.50429 0.0
C308 C 0.29792 0.01047 0.45786 0.0
C309 C 0.27568 0.9851 0.44107 0.0
C310 C 0.31132 0.01098 0.44021 0.0
N311 N 0.28039 -0.00214 0.45787 0.0
C312 C 0.28878 0.98495 0.42313 0.0
C313 C 0.30681 -0.00191 0.42257 0.0
H314 H 0.30164 0.01999 0.47167 0.0
H315 H 0.26192 0.97484 0.44169 0.0
C316 C 0.20508 0.95099 0.51913 0.0
N317 N 0.21878 0.954 0.5027 0.0
C318 C 0.19153 0.93344 0.51931 0.0
C319 C 0.20638 0.92244 0.48559 0.0
C320 C 0.21971 0.94017 0.48611 0.0
C321 C 0.19198 0.91898 0.50232 0.0
H322 H 0.20436 0.96242 0.5319 0.0
H323 H 0.23067 0.94303 0.47318 0.0
O324 O 0.26751 0.02208 0.50237 0.0
O325 O 0.231 -0.00127 0.52642 0.0
O326 O 0.23156 -0.00206 0.47837 0.0
O327 O 0.26777 0.97427 0.50266 0.0
H328 H 0.28127 0.04468 0.5351 0.0
H329 H 0.26863 0.04643 0.46787 0.0
H330 H 0.29243 0.08243 0.53335 0.0
H331 H 0.27973 0.08421 0.46734 0.0
H332 H 0.23007 0.97347 0.5942 0.0
H333 H 0.21693 0.03355 0.54544 0.0
H334 H 0.23659 0.96879 0.5556 0.0
H335 H 0.21068 0.03709 0.58421 0.0
H336 H 0.21449 0.09381 0.51655 0.0
H337 H 0.16955 0.05453 0.48239 0.0
H338 H 0.32514 0.97337 0.56277 0.0
H339 H 0.28748 0.0211 0.59478 0.0
H340 H 0.21673 0.97056 0.45004 0.0
H341 H 0.23484 0.03575 0.46002 0.0
H342 H 0.20856 0.97922 0.41245 0.0
H343 H 0.22654 0.04328 0.42223 0.0
H344 H 0.277 0.94952 0.46988 0.0
H345 H 0.26282 0.95017 0.53681 0.0
H346 H 0.27937 0.91017 0.47137 0.0
H347 H 0.26528 0.9108 0.53715 0.0
H348 H 0.32533 0.021 0.44055 0.0
H349 H 0.28483 0.97474 0.40984 0.0
H350 H 0.18039 0.93156 0.53232 0.0
H351 H 0.20729 0.91159 0.47225 0.0
Li352 Li 0.49504 0.01652 0.23138 0.0
Li353 Li 0.476 0.99498 0.26095 0.0
Li354 Li 0.51479 0.99559 0.25678 0.0
Li355 Li 0.49432 0.97763 0.23212 0.0
C356 C 0.50523 0.03035 0.27916 0.0
N357 N 0.52613 0.04997 0.31241 0.0
C358 C 0.50432 0.02165 0.29959 0.0
C359 C 0.51661 0.04911 0.27564 0.0
C360 C 0.51506 0.03178 0.31619 0.0
C361 C 0.5271 0.05878 0.29267 0.0
C362 C 0.45609 0.98793 0.21615 0.0
C363 C 0.42484 0.96703 0.20867 0.0
N364 N 0.42944 0.96795 0.18755 0.0
C365 C 0.46043 0.98881 0.19437 0.0
C366 C 0.43811 0.97706 0.22339 0.0
C367 C 0.4468 0.97853 0.18017 0.0
C368 C 0.49877 0.0386 0.19335 0.0
N369 N 0.49353 0.04096 0.21416 0.0
C370 C 0.48693 0.07801 0.20914 0.0
C371 C 0.48753 0.06008 0.22224 0.0
C372 C 0.49245 0.07611 0.18755 0.0
C373 C 0.49828 0.05602 0.17969 0.0
H374 H 0.5035 0.02316 0.18744 0.0
H375 H 0.48334 0.06139 0.23888 0.0
C376 C 0.45466 0.98387 0.29841 0.0
N377 N 0.45303 0.99532 0.28017 0.0
C378 C 0.43808 0.98392 0.31312 0.0
C379 C 0.41863 0.00787 0.29015 0.0
C380 C 0.43556 0.00723 0.27579 0.0
C381 C 0.41978 0.99611 0.30914 0.0
H382 H 0.46887 0.97469 0.30151 0.0
H383 H 0.43488 0.01633 0.2612 0.0
C384 C 0.53967 -0.00056 0.22305 0.0
N385 N 0.583 0.00516 0.2185 0.0
C386 C 0.55353 0.98224 0.22548 0.0
C387 C 0.54783 0.01952 0.2181 0.0
C388 C 0.57539 0.98547 0.2232 0.0
C389 C 0.56979 0.02209 0.21589 0.0
C390 C 0.49521 0.94954 0.26289 0.0
C391 C 0.51318 0.93763 0.25751 0.0
C392 C 0.47625 0.93911 0.268 0.0
C393 C 0.51183 0.91546 0.25709 0.0
C394 C 0.47556 0.91691 0.26745 0.0
N395 N 0.4932 0.90565 0.26202 0.0
C396 C 0.54303 0.97926 0.28732 0.0
C397 C 0.55443 0.01186 0.27222 0.0
C398 C 0.56066 0.97888 0.30073 0.0
N399 N 0.54024 0.99557 0.27342 0.0
C400 C 0.57224 0.01218 0.28542 0.0
C401 C 0.57545 0.99558 0.29998 0.0
H402 H 0.5313 0.96677 0.28837 0.0
H403 H 0.55172 0.02486 0.26136 0.0
C404 C 0.50875 0.95179 0.19876 0.0
N405 N 0.49297 0.95369 0.21338 0.0
C406 C 0.50885 0.93482 0.18452 0.0
C407 C 0.47625 0.92212 0.20042 0.0
C408 C 0.47683 0.93933 0.2144 0.0
C409 C 0.49241 0.91972 0.18521 0.0
H410 H 0.52127 0.96351 0.19806 0.0
H411 H 0.46429 0.94127 0.22595 0.0
O412 O 0.49525 0.02037 0.26263 0.0
O413 O 0.46936 -0.00234 0.23034 0.0
O414 O 0.51821 0.99657 0.22523 0.0
O415 O 0.4962 0.97128 0.26325 0.0
H416 H 0.49569 0.00707 0.30253 0.0
H417 H 0.51762 0.05594 0.25988 0.0
H418 H 0.51464 0.02514 0.33205 0.0
H419 H 0.53609 0.07322 0.29016 0.0
H420 H 0.41093 0.95846 0.21404 0.0
H421 H 0.47432 0.99709 0.18853 0.0
H422 H 0.43458 0.97616 0.24021 0.0
H423 H 0.45005 0.97894 0.16328 0.0
H424 H 0.48249 0.09322 0.21588 0.0
H425 H 0.50229 0.05373 0.16309 0.0
H426 H 0.43955 0.97439 0.32739 0.0
H427 H 0.40498 0.01772 0.28657 0.0
H428 H 0.5475 0.96657 0.22916 0.0
H429 H 0.53741 0.03305 0.21628 0.0
H430 H 0.5863 0.97232 0.22515 0.0
H431 H 0.57633 0.03756 0.2122 0.0
H432 H 0.528 0.94542 0.25361 0.0
H433 H 0.4621 0.94804 0.27195 0.0
H434 H 0.52559 0.90606 0.25284 0.0
H435 H 0.46095 0.90864 0.27122 0.0
H436 H 0.56234 0.96599 0.31204 0.0
H437 H 0.58331 0.02533 0.28433 0.0
H438 H 0.52174 0.93347 0.17318 0.0
H439 H 0.46311 0.91103 0.2013 0.0
Li440 Li 0.98168 0.4974 0.23679 0.0
Li441 Li 0.00116 0.47829 0.26455 0.0
Li442 Li 0.0012 0.51671 0.26407 0.0
Li443 Li 0.01988 0.49557 0.23734 0.0
C444 C 0.95858 0.48661 0.27355 0.0
N445 N 0.92263 0.46376 0.28442 0.0
C446 C 0.95455 0.46689 0.26409 0.0
C447 C 0.94429 0.49468 0.28855 0.0
C448 C 0.93631 0.45559 0.26981 0.0
C449 C 0.92621 0.4829 0.29382 0.0
C450 C 0.01026 0.45926 0.21949 0.0
C451 C 0.03985 0.43653 0.2105 0.0
N452 N 0.03275 0.43548 0.19011 0.0
C453 C 0.00308 0.45765 0.19852 0.0
C454 C 0.02862 0.44834 0.22559 0.0
C455 C 0.01473 0.44566 0.18388 0.0
C456 C 0.96287 0.50117 0.19716 0.0
N457 N 0.95788 0.49954 0.21812 0.0
C458 C 0.92082 0.50239 0.21019 0.0
C459 C 0.93736 0.50061 0.2249 0.0
C460 C 0.92553 0.50318 0.18839 0.0
C461 C 0.94687 0.50276 0.18192 0.0
H462 H 0.97936 0.50138 0.19231 0.0
H463 H 0.93369 0.5003 0.24164 0.0
C464 C -0.00249 0.45897 0.30445 0.0
N465 N 8e-05 0.45473 0.28342 0.0
C466 C 0.99729 0.44246 0.31923 0.0
C467 C 0.00104 0.41739 0.2903 0.0
C468 C 0.0015 0.43445 0.27608 0.0
C469 C -0.0008 0.42139 0.31218 0.0
H470 H 0.99579 0.47523 0.30974 0.0
H471 H 0.00296 0.4315 0.25923 0.0
C472 C 0.991 0.53914 0.22754 0.0
N473 N 0.96905 0.57567 0.21687 0.0
C474 C -0.00141 0.55242 0.21142 0.0
C475 C 0.97222 0.54442 0.23822 0.0
C476 C 0.98727 0.57083 0.20627 0.0
C477 C 0.96137 0.56296 0.2326 0.0
C478 C 0.03547 0.4904 0.2862 0.0
C479 C 0.03299 0.50149 0.30531 0.0
C480 C 0.04753 0.47172 0.28591 0.0
C481 C 0.0422 0.49346 0.32386 0.0
C482 C 0.05645 0.46418 0.30481 0.0
N483 N 0.0536 0.4751 0.32324 0.0
C484 C 0.98912 0.54233 0.29828 0.0
C485 C 0.01288 0.55896 0.27417 0.0
C486 C 0.98871 0.56046 0.311 0.0
N487 N 0.00115 0.54191 0.28037 0.0
C488 C 0.01283 0.57753 0.28635 0.0
C489 C 0.00068 0.5784 0.3051 0.0
H490 H 0.98019 0.52839 0.3029 0.0
H491 H 0.02226 0.55812 0.25977 0.0
C492 C 0.04058 0.50172 0.19875 0.0
N493 N 0.04376 0.4953 0.21912 0.0
C494 C 0.05736 0.50154 0.18427 0.0
C495 C 0.08032 0.48798 0.21201 0.0
C496 C 0.06312 0.48865 0.22604 0.0
C497 C 0.0775 0.49453 0.19085 0.0
H498 H 0.02493 0.50682 0.19375 0.0
H499 H 0.06515 0.48372 0.24236 0.0
O500 O 0.97647 0.49794 0.26846 0.0
O501 O -0.00065 0.47134 0.23399 0.0
O502 O 0.0019 0.521 0.23261 0.0
O503 O 0.02627 0.49787 0.2679 0.0
H504 H 0.9653 0.46033 0.25242 0.0
H505 H 0.94708 0.50993 0.296 0.0
H506 H 0.93301 0.44032 0.26261 0.0
H507 H 0.91501 0.48898 0.30538 0.0
H508 H 0.05422 0.42823 0.215 0.0
H509 H 0.9886 0.4654 0.19358 0.0
H510 H 0.03427 0.44915 0.24176 0.0
H511 H 0.00939 0.44441 0.16758 0.0
H512 H 0.90454 0.50284 0.21579 0.0
H513 H 0.95113 0.50387 0.16527 0.0
H514 H 0.99547 0.44609 0.33597 0.0
H515 H 0.00246 0.40131 0.28431 0.0
H516 H 0.01308 0.54852 0.20298 0.0
H517 H 0.96604 0.53433 0.2507 0.0
H518 H 0.99297 0.58126 0.19382 0.0
H519 H 0.94682 0.56723 0.24072 0.0
H520 H 0.024 0.51608 0.3059 0.0
H521 H 0.04986 0.46298 0.27133 0.0
H522 H 0.04027 0.50183 0.33877 0.0
H523 H 0.06562 0.44963 0.30481 0.0
H524 H 0.97948 0.56023 0.32553 0.0
H525 H 0.02213 0.59104 0.28111 0.0
H526 H 0.05454 0.50648 0.16801 0.0
H527 H 0.09567 0.4826 0.21766 0.0
Li528 Li 0.48128 -0.00183 0.73719 0.0
Li529 Li 0.50261 0.97849 0.76301 0.0
Li530 Li 0.50237 0.01739 0.76297 0.0
Li531 Li 0.52008 0.99695 0.73494 0.0
C532 C 0.45732 0.99656 0.77206 0.0
N533 N 0.41388 0.99339 0.77774 0.0
C534 C 0.44812 0.97697 0.77713 0.0
C535 C 0.44446 0.01457 0.77006 0.0
C536 C 0.42612 0.97569 0.77991 0.0
C537 C 0.42252 0.01263 0.77293 0.0
C538 C 0.50687 0.96322 0.71453 0.0
C539 C 0.53312 0.9418 0.69654 0.0
N540 N 0.52286 0.94516 0.67781 0.0
C541 C 0.49654 0.96639 0.69512 0.0
C542 C 0.52525 0.95074 0.7153 0.0
C543 C 0.50488 0.95713 0.67672 0.0
C544 C 0.45227 0.01464 0.70747 0.0
N545 N 0.45577 -0.00171 0.72114 0.0
C546 C 0.42359 0.98131 0.71029 0.0
C547 C 0.44202 0.9817 0.72264 0.0
C548 C 0.41956 -0.00206 0.6959 0.0
C549 C 0.43421 0.01479 0.69464 0.0
H550 H 0.46376 0.02732 0.70613 0.0
H551 H 0.44551 0.96861 0.73322 0.0
C552 C 0.4982 0.95792 0.80208 0.0
N553 N 0.50275 0.95453 0.78124 0.0
C554 C 0.4983 0.94102 0.81641 0.0
C555 C 0.50755 0.9174 0.78749 0.0
C556 C 0.50725 0.9348 0.7737 0.0
C557 C 0.50309 0.92043 0.80918 0.0
H558 H 0.49448 0.9738 0.80752 0.0
H559 H 0.51066 0.93258 0.75701 0.0
C560 C 0.5026 0.04314 0.72885 0.0
N561 N 0.50621 0.08667 0.7241 0.0
C562 C 0.52153 0.05202 0.72131 0.0
C563 C 0.48546 0.05638 0.73383 0.0
C564 C 0.52304 0.07407 0.71904 0.0
C565 C 0.48762 0.07835 0.73138 0.0
C566 C 0.53767 0.98942 0.78217 0.0
C567 C 0.53587 -0.00148 0.80236 0.0
C568 C 0.54941 0.97073 0.77953 0.0
C569 C 0.54572 0.98864 0.81965 0.0
C570 C 0.55898 0.96131 0.79723 0.0
N571 N 0.55694 0.97038 0.81675 0.0
C572 C 0.48964 0.0428 0.79717 0.0
C573 C 0.51845 0.0571 0.77755 0.0
C574 C 0.49022 0.05991 0.81123 0.0
N575 N 0.50355 0.04177 0.78068 0.0
C576 C 0.51928 0.07479 0.79093 0.0
C577 C 0.5051 0.07635 0.80817 0.0
H578 H 0.47837 0.03007 0.79967 0.0
H579 H 0.52979 0.05555 0.76474 0.0
C580 C 0.53901 0.00184 0.69495 0.0
N581 N 0.54315 0.99697 0.71558 0.0
C582 C 0.55533 0.00163 0.67995 0.0
C583 C 0.57992 0.99172 0.7078 0.0
C584 C 0.5631 0.99212 0.72228 0.0
C585 C 0.5761 0.99644 0.6863 0.0
H586 H 0.52299 0.00587 0.69018 0.0
H587 H 0.56593 0.98849 0.73882 0.0
O588 O 0.47879 -0.0019 0.76907 0.0
O589 O 0.49922 0.97253 0.73264 0.0
O590 O 0.50082 0.0216 0.73124 0.0
O591 O 0.5277 -0.00144 0.76513 0.0
H592 H 0.45782 0.96285 0.77865 0.0
H593 H 0.45135 0.02986 0.76626 0.0
H594 H 0.41876 0.96061 0.78372 0.0
H595 H 0.41236 0.02641 0.77133 0.0
H596 H 0.54744 0.93228 0.69687 0.0
H597 H 0.48235 0.97605 0.6942 0.0
H598 H 0.53359 0.94831 0.73015 0.0
H599 H 0.49711 0.95953 0.66157 0.0
H600 H 0.41272 0.96805 0.7119 0.0
H601 H 0.43211 0.02766 0.6834 0.0
H602 H 0.49441 0.94401 0.83292 0.0
H603 H 0.51147 0.90182 0.7813 0.0
H604 H 0.53499 0.04204 0.71745 0.0
H605 H 0.47069 0.04977 0.73964 0.0
H606 H 0.53763 0.08117 0.71331 0.0
H607 H 0.47452 0.08879 0.73528 0.0
H608 H 0.52683 0.01295 0.80472 0.0
H609 H 0.55076 0.96334 0.76405 0.0
H610 H 0.54438 0.99545 0.83539 0.0
H611 H 0.56793 0.94674 0.79545 0.0
H612 H 0.4794 0.05996 0.82461 0.0
H613 H 0.53092 0.08705 0.78773 0.0
H614 H 0.55175 0.00571 0.6636 0.0
H615 H 0.59567 0.9875 0.71332 0.0
Li616 Li -0.00249 0.5168 0.73216 0.0
Li617 Li 0.9763 0.49948 0.76 0.0
Li618 Li 0.01414 0.4982 0.76058 0.0
Li619 Li 0.99561 0.47834 0.73463 0.0
C620 C 0.00923 0.53781 0.77268 0.0
N621 N 0.03738 0.56443 0.79337 0.0
C622 C 0.00626 0.54267 0.79416 0.0
C623 C 0.02647 0.54655 0.7617 0.0
C624 C 0.02069 0.55614 0.80435 0.0
C625 C 0.04053 0.55997 0.77245 0.0
C626 C 0.95537 0.51031 0.7216 0.0
C627 C 0.92703 0.51684 0.69663 0.0
N628 N 0.922 0.535 0.70724 0.0
C629 C 0.94992 0.52904 0.73226 0.0
C630 C 0.94386 0.50415 0.70363 0.0
C631 C 0.93299 0.5413 0.72475 0.0
C632 C 0.00562 0.53595 0.69292 0.0
N633 N -0.00133 0.53983 0.71299 0.0
C634 C 0.99215 0.57626 0.70462 0.0
C635 C 0.99209 0.55947 0.71913 0.0
C636 C -0.00086 0.57273 0.6837 0.0
C637 C 0.00605 0.5523 0.67793 0.0
H638 H 0.0106 0.52008 0.68853 0.0
H639 H 0.98665 0.56204 0.73523 0.0
C640 C 0.95514 0.50339 0.7985 0.0
N641 N 0.95168 0.50025 0.77743 0.0
C642 C 0.93819 0.50317 0.81277 0.0
C643 C 0.9144 0.49608 0.78343 0.0
C644 C 0.93185 0.49637 0.76972 0.0
C645 C 0.91747 0.49952 0.80528 0.0
H646 H 0.97118 0.50556 0.80424 0.0
H647 H 0.92957 0.49315 0.753 0.0
C648 C 0.03826 0.48335 0.72627 0.0
N649 N 0.07262 0.45707 0.71854 0.0
C650 C 0.04218 0.46589 0.73947 0.0
C651 C 0.05181 0.48742 0.70913 0.0
C652 C 0.05963 0.45281 0.73531 0.0
C653 C 0.0691 0.47396 0.70549 0.0
C654 C 0.98155 0.45763 0.77096 0.0
C655 C 0.98637 0.44481 0.78845 0.0
C656 C 0.96346 0.45326 0.75879 0.0
C657 C 0.97302 0.42778 0.79349 0.0
C658 C 0.95051 0.43609 0.76435 0.0
N659 N 0.95551 0.42381 0.78143 0.0
C660 C 0.0333 0.49402 0.80026 0.0
C661 C 0.05742 0.50398 0.77299 0.0
C662 C 0.04954 0.49451 0.81533 0.0
N663 N 0.03752 0.49867 0.77959 0.0
C664 C 0.07422 0.50431 0.78747 0.0
C665 C 0.07029 0.49957 0.80891 0.0
H666 H 0.01724 0.49007 0.805 0.0
H667 H 0.06024 0.50808 0.75653 0.0
C668 C 0.98951 0.456 0.69713 0.0
N669 N 0.99531 0.45346 0.71776 0.0
C670 C 0.98936 0.43864 0.68337 0.0
C671 C 0.00112 0.41632 0.71242 0.0
C672 C 0.00111 0.43416 0.72561 0.0
C673 C 0.99529 0.41849 0.69097 0.0
H674 H 0.98513 0.47161 0.69136 0.0
H675 H 0.00593 0.43264 0.74203 0.0
O676 O 0.99571 0.52409 0.76256 0.0
O677 O 0.97209 0.49816 0.7284 0.0
O678 O 0.0212 0.49638 0.72984 0.0
O679 O 0.99447 0.47445 0.76607 0.0
H680 H 0.99303 0.53607 0.80292 0.0
H681 H 0.02922 0.54271 0.74516 0.0
H682 H 0.01862 0.55998 0.82099 0.0
H683 H 0.05402 0.56673 0.76418 0.0
H684 H 0.91799 0.51226 0.68273 0.0
H685 H 0.95859 0.53407 0.74622 0.0
H686 H 0.94791 0.48972 0.69518 0.0
H687 H 0.9286 0.55582 0.73285 0.0
H688 H 0.98688 0.59184 0.70973 0.0
H689 H 0.01131 0.54888 0.66188 0.0
H690 H 0.94136 0.50533 0.82956 0.0
H691 H 0.8987 0.49319 0.77699 0.0
H692 H 0.03192 0.46246 0.75283 0.0
H693 H 0.04897 0.50086 0.69874 0.0
H694 H 0.06284 0.43925 0.7454 0.0
H695 H 0.07971 0.47693 0.69228 0.0
H696 H 0.00029 0.44802 0.79805 0.0
H697 H 0.95942 0.46295 0.74519 0.0
H698 H 0.97657 0.41773 0.80699 0.0
H699 H 0.93647 0.43254 0.75508 0.0
H700 H 0.04599 0.4907 0.83175 0.0
H701 H 0.09002 0.50851 0.78206 0.0
H702 H 0.98455 0.44093 0.66699 0.0
H703 H 0.00604 0.4011 0.7188 0.0
Li704 Li 0.23163 0.49498 0.0156 0.0
Li705 Li 0.26105 0.47764 0.99552 0.0
Li706 Li 0.2575 0.51681 0.99704 0.0
Li707 Li 0.23257 0.49565 0.97753 0.0
C708 C 0.26738 0.50806 0.03904 0.0
N709 N 0.27645 0.53093 0.07543 0.0
C710 C 0.28492 0.50264 0.05154 0.0
C711 C 0.25446 0.52514 0.04502 0.0
C712 C 0.28924 0.51439 0.06989 0.0
C713 C 0.25931 0.53649 0.06348 0.0
C714 C 0.21499 0.45833 0.98692 0.0
C715 C 0.20308 0.43526 0.9587 0.0
N716 N 0.18312 0.43554 0.96703 0.0
C717 C 0.19442 0.45819 0.99534 0.0
C718 C 0.21942 0.44658 0.96859 0.0
C719 C 0.17851 0.44664 0.98501 0.0
C720 C 0.19426 0.50181 0.0382 0.0
N721 N 0.21398 0.49316 0.03976 0.0
C722 C 0.2074 0.48251 0.07562 0.0
C723 C 0.22077 0.48358 0.05791 0.0
C724 C 0.18684 0.49113 0.07438 0.0
C725 C 0.18031 0.50088 0.05539 0.0
H726 H 0.18936 0.50927 0.0235 0.0
H727 H 0.23656 0.4768 0.05861 0.0
C728 C 0.30157 0.46047 0.99138 0.0
N729 N 0.28092 0.45536 0.99507 0.0
C730 C 0.31694 0.44455 0.99031 0.0
C731 C 0.28949 0.41846 0.99717 0.0
C732 C 0.2746 0.43491 -0.00202 0.0
C733 C 0.31095 0.42323 0.99321 0.0
H734 H 0.30602 0.47694 0.98914 0.0
H735 H 0.258 0.4314 0.00081 0.0
C736 C 0.22019 0.53745 0.98598 0.0
N737 N 0.2083 0.57341 0.9637 0.0
C738 C 0.23011 0.54248 0.96673 0.0
C739 C 0.20423 0.55072 0.9939 0.0
C740 C 0.22387 0.56072 0.9557 0.0
C741 C 0.19844 0.56883 0.9824 0.0
C742 C 0.27239 0.49479 0.95309 0.0
C743 C 0.28028 0.51173 0.94104 0.0
C744 C 0.27408 0.47405 0.94528 0.0
C745 C 0.28953 0.50765 0.92126 0.0
C746 C 0.28346 0.47063 0.92543 0.0
N747 N 0.29091 0.48736 0.91393 0.0
C748 C 0.29433 0.53963 0.99054 0.0
C749 C 0.26658 0.56073 0.00495 0.0
C750 C 0.30797 0.55706 0.99023 0.0
N751 N 0.27408 0.54181 -0.00233 0.0
C752 C 0.27976 0.57862 0.00505 0.0
C753 C 0.30071 0.57688 0.9975 0.0
H754 H 0.29987 0.52427 0.98514 0.0
H755 H 0.25044 0.56194 0.01073 0.0
C756 C 0.19294 0.49717 0.95839 0.0
N757 N 0.21395 0.49556 0.95353 0.0
C758 C 0.1777 0.49721 0.94232 0.0
C759 C 0.20599 0.49501 0.91638 0.0
C760 C 0.22069 0.49461 0.93299 0.0
C761 C 0.18423 0.49617 0.92103 0.0
H762 H 0.18805 0.49844 0.97483 0.0
H763 H 0.23737 0.49368 0.92935 0.0
O764 O 0.26306 0.49675 0.02098 0.0
O765 O 0.23067 0.4699 0.99659 0.0
O766 O 0.22596 0.51967 0.99712 0.0
O767 O 0.26348 0.49854 0.9726 0.0
H768 H 0.29509 0.48949 0.04708 0.0
H769 H 0.24084 0.52961 0.03554 0.0
H770 H 0.30276 0.51037 0.07972 0.0
H771 H 0.24945 0.54974 0.06829 0.0
H772 H 0.20625 0.42625 0.9444 0.0
H773 H 0.19072 0.46703 0.0096 0.0
H774 H 0.23526 0.44632 0.96196 0.0
H775 H 0.16249 0.44653 0.99127 0.0
H776 H 0.21291 0.47477 0.08998 0.0
H777 H 0.16465 0.5079 0.05392 0.0
H778 H 0.33337 0.44888 0.98748 0.0
H779 H 0.28424 0.4022 -0.00068 0.0
H780 H 0.24244 0.53242 0.96033 0.0
H781 H 0.19643 0.54708 0.00881 0.0
H782 H 0.23141 0.56477 0.94077 0.0
H783 H 0.18612 0.57925 0.98836 0.0
H784 H 0.27925 0.52788 0.94688 0.0
H785 H 0.26826 0.46073 0.9544 0.0
H786 H 0.29564 0.52062 0.91175 0.0
H787 H 0.28483 0.45466 0.91919 0.0
H788 H 0.32413 0.55497 0.98466 0.0
H789 H 0.2736 0.59365 0.01075 0.0
H790 H 0.16102 0.49841 0.94644 0.0
H791 H 0.21154 0.49421 0.90009 0.0
Li792 Li 0.5206 0.2628 0.00046 0.0
Li793 Li 0.49783 0.23652 0.01829 0.0
Li794 Li 0.50247 0.2358 0.97985 0.0
Li795 Li 0.48257 0.26391 0.99732 0.0
C796 C 0.54303 0.22513 0.99276 0.0
N797 N 0.58066 0.21221 0.97414 0.0
C798 C 0.55414 0.20773 0.00098 0.0
C799 C 0.55104 0.23595 0.97506 0.0
C800 C 0.57315 0.20145 0.99134 0.0
C801 C 0.57009 0.22918 0.96588 0.0
C802 C 0.49214 0.28612 0.03164 0.0
C803 C 0.46588 0.30569 0.05165 0.0
N804 N 0.47585 0.32417 0.04648 0.0
C805 C 0.50221 0.30531 0.02668 0.0
C806 C 0.47391 0.2863 0.04439 0.0
C807 C 0.49371 0.32437 0.0343 0.0
C808 C 0.55025 0.29352 0.98781 0.0
N809 N 0.54603 0.27858 0.0028 0.0
C810 C 0.57789 0.2872 0.02155 0.0
C811 C 0.55939 0.27509 0.01941 0.0
C812 C 0.58257 0.30295 0.00639 0.0
C813 C 0.56851 0.30596 0.98929 0.0
H814 H 0.53922 0.296 0.9749 0.0
H815 H 0.55556 0.26302 0.03106 0.0
C816 C 0.49678 0.19738 0.03865 0.0
N817 N 0.49535 0.21862 0.04219 0.0
C818 C 0.49484 0.18313 0.05551 0.0
C819 C 0.48997 0.21294 0.07934 0.0
C820 C 0.4921 0.22664 0.06199 0.0
C821 C 0.49133 0.19085 0.07619 0.0
H822 H 0.49945 0.19157 0.02268 0.0
H823 H 0.49104 0.24365 0.06426 0.0
C824 C 0.49369 0.27139 0.95527 0.0
N825 N 0.4729 0.28026 0.91754 0.0
C826 C 0.47498 0.26058 0.94997 0.0
C827 C 0.50177 0.28673 0.94134 0.0
C828 C 0.46473 0.26529 0.93084 0.0
C829 C 0.49104 0.29098 0.92236 0.0
C830 C 0.4593 0.22158 0.0043 0.0
C831 C 0.45091 0.20453 0.99278 0.0
C832 C 0.45076 0.22656 0.0242 0.0
C833 C 0.43446 0.19246 0.00159 0.0
C834 C 0.43436 0.21411 0.0325 0.0
N835 N 0.42662 0.19743 0.02113 0.0
C836 C 0.49896 0.19674 0.95942 0.0
C837 C 0.51361 0.22365 0.9375 0.0
C838 C 0.5001 0.18208 0.94285 0.0
N839 N 0.50521 0.21715 0.95633 0.0
C840 C 0.51547 0.2094 0.92059 0.0
C841 C 0.50845 0.18829 0.92304 0.0
H842 H 0.49306 0.19187 0.97481 0.0
H843 H 0.51905 0.23985 0.93564 0.0
C844 C 0.46389 0.30348 0.98936 0.0
N845 N 0.45929 0.28298 0.99444 0.0
C846 C 0.44772 0.31859 0.98814 0.0
C847 C 0.42223 0.29101 0.99637 0.0
C848 C 0.43893 0.27646 -0.00241 0.0
C849 C 0.4266 0.31242 0.99187 0.0
H850 H 0.4802 0.30813 0.98652 0.0
H851 H 0.4356 0.26005 0.00122 0.0
O852 O 0.52433 0.23133 0.00198 0.0
O853 O 0.49997 0.26732 0.02391 0.0
O854 O 0.50408 0.26722 0.97397 0.0
O855 O 0.47564 0.2334 0.99602 0.0
H856 H 0.5481 0.19917 0.01464 0.0
H857 H 0.54262 0.24938 0.96841 0.0
H858 H 0.58191 0.18801 -0.00247 0.0
H859 H 0.57646 0.23739 0.95217 0.0
H860 H 0.4517 0.30604 0.06139 0.0
H861 H 0.51627 0.30558 0.01682 0.0
H862 H 0.46597 0.27167 0.04858 0.0
H863 H 0.50127 0.33933 0.03044 0.0
H864 H 0.5884 0.28429 0.03487 0.0
H865 H 0.57129 0.31817 0.97747 0.0
H866 H 0.49639 0.16627 0.0524 0.0
H867 H 0.48711 0.21954 0.09498 0.0
H868 H 0.46837 0.24866 0.96038 0.0
H869 H 0.51619 0.29529 0.9451 0.0
H870 H 0.45027 0.25703 0.92656 0.0
H871 H 0.49714 0.30281 0.91145 0.0
H872 H 0.4568 0.20078 0.97708 0.0
H873 H 0.45681 0.23987 0.03317 0.0
H874 H 0.42787 0.17919 0.99286 0.0
H875 H 0.42776 0.21772 0.04797 0.0
H876 H 0.49423 0.16613 0.94556 0.0
H877 H 0.52253 0.21484 0.90586 0.0
H878 H 0.45169 0.33491 0.9843 0.0
H879 H 0.40614 0.28566 -0.00062 0.0
Li880 Li 0.73538 0.51499 -0.00184 0.0
Li881 Li 0.76478 0.49814 0.01918 0.0
Li882 Li 0.76188 0.49515 0.97946 0.0
Li883 Li 0.73785 0.47692 0.00148 0.0
C884 C 0.76769 0.54263 -0.00133 0.0
N885 N 0.76936 0.5864 0.00236 0.0
C886 C 0.77609 0.552 0.017 0.0
C887 C 0.76025 0.55556 0.98218 0.0
C888 C 0.77678 0.57415 0.01856 0.0
C889 C 0.76118 0.57764 0.98437 0.0
C890 C 0.71685 0.49046 0.03542 0.0
C891 C 0.70161 0.47032 0.06429 0.0
N892 N 0.68193 0.47337 0.05588 0.0
C893 C 0.69647 0.49345 0.02709 0.0
C894 C 0.71948 0.47882 0.05417 0.0
C895 C 0.67901 0.48466 0.03766 0.0
C896 C 0.70062 0.53912 0.98344 0.0
N897 N 0.71635 0.53843 -0.00179 0.0
C898 C 0.70419 0.57086 0.01378 0.0
C899 C 0.71813 0.5536 0.01349 0.0
C900 C 0.6879 0.57219 -0.00147 0.0
C901 C 0.68617 0.55593 0.98329 0.0
H902 H 0.69905 0.52641 0.972 0.0
H903 H 0.73043 0.55233 0.02542 0.0
C904 C 0.80472 0.50033 0.03795 0.0
N905 N 0.78358 0.50128 0.04225 0.0
C906 C 0.81951 0.50235 0.05433 0.0
C907 C 0.79043 0.50635 0.07923 0.0
C908 C 0.7762 0.50446 0.06231 0.0
C909 C 0.81239 0.50525 0.07529 0.0
H910 H 0.81003 0.49786 0.02177 0.0
H911 H 0.75929 0.50555 0.06514 0.0
C912 C 0.73086 0.49159 0.95423 0.0
N913 N 0.73324 0.48767 0.91051 0.0
C914 C 0.73251 0.47149 0.94487 0.0
C915 C 0.73036 0.50969 0.94132 0.0
C916 C 0.7337 0.46984 0.92275 0.0
C917 C 0.73158 0.50737 0.91926 0.0
C918 C 0.77169 0.45191 0.00597 0.0
C919 C 0.76617 0.43597 0.99148 0.0
C920 C 0.77989 0.44627 0.02586 0.0
C921 C 0.76878 0.41467 0.9972 0.0
C922 C 0.78229 0.42478 0.03096 0.0
N923 N 0.77671 0.40956 0.01666 0.0
C924 C 0.78331 0.51242 0.94383 0.0
C925 C 0.78699 0.47515 0.94787 0.0
C926 C 0.79619 0.51214 0.92578 0.0
N927 N 0.77898 0.49411 0.95445 0.0
C928 C 0.8 0.47412 0.92993 0.0
C929 C 0.80485 0.49282 0.91873 0.0
H930 H 0.77691 0.52729 0.94946 0.0
H931 H 0.78343 0.46085 0.95664 0.0
C932 C 0.70401 0.45002 0.99099 0.0
N933 N 0.72034 0.45224 0.00494 0.0
C934 C 0.69 0.43297 0.99277 0.0
C935 C 0.70954 0.42089 0.02358 0.0
C936 C 0.72318 0.43825 0.0212 0.0
C937 C 0.69266 0.41814 0.00925 0.0
H938 H 0.70166 0.46168 0.97859 0.0
H939 H 0.73582 0.44071 0.03255 0.0
O940 O 0.76684 0.52094 0.9969 0.0
O941 O 0.73417 0.49843 0.02495 0.0
O942 O 0.73031 0.49355 0.97591 0.0
O943 O 0.76934 0.4729 0.00067 0.0
H944 H 0.78197 0.54232 0.02992 0.0
H945 H 0.75337 0.54867 0.96804 0.0
H946 H 0.78319 0.58159 0.03268 0.0
H947 H 0.7553 0.58782 0.97181 0.0
H948 H 0.70342 0.46117 0.07874 0.0
H949 H 0.69417 0.50217 0.01245 0.0
H950 H 0.73516 0.47604 0.06065 0.0
H951 H 0.66316 0.48674 0.03133 0.0
H952 H 0.70622 0.58304 0.02577 0.0
H953 H 0.67352 0.55592 0.97163 0.0
H954 H 0.83631 0.50123 0.05071 0.0
H955 H 0.78438 0.50881 0.09517 0.0
H956 H 0.73308 0.45731 0.95458 0.0
H957 H 0.72937 0.52538 0.94823 0.0
H958 H 0.73509 0.4544 0.91532 0.0
H959 H 0.73134 0.52125 0.9091 0.0
H960 H 0.75959 0.43996 0.97613 0.0
H961 H 0.78424 0.45831 0.03731 0.0
H962 H 0.76441 0.40219 0.98621 0.0
H963 H 0.78855 0.42021 0.04632 0.0
H964 H 0.7998 0.52697 0.91779 0.0
H965 H 0.80626 0.45887 0.92492 0.0
H966 H 0.67726 0.43138 0.9813 0.0
H967 H 0.71191 0.41002 0.03673 0.0
Li968 Li 0.49637 0.7578 0.01694 0.0
Li969 Li 0.47548 0.73156 -0.00239 0.0
Li970 Li 0.51553 0.73078 -0.00201 0.0
Li971 Li 0.49652 0.75772 0.9773 0.0
C972 C 0.49368 0.72536 0.04338 0.0
N973 N 0.49043 0.72382 0.08716 0.0
C974 C 0.47409 0.72111 0.05298 0.0
C975 C 0.51166 0.72856 0.05602 0.0
C976 C 0.47277 0.72045 0.07515 0.0
C977 C 0.50968 0.72781 0.07813 0.0
C978 C 0.45301 0.77012 0.99053 0.0
C979 C 0.42665 0.77441 0.96302 0.0
N980 N 0.41389 0.78486 0.97701 0.0
C981 C 0.43974 0.7811 0.00458 0.0
C982 C 0.4465 0.7669 0.96953 0.0
C983 C 0.41998 0.78834 0.99747 0.0
C984 C 0.51284 0.78836 0.04523 0.0
N985 N 0.49592 0.77558 0.04119 0.0
C986 C 0.47733 0.78924 0.07135 0.0
C987 C 0.47834 0.77578 0.05376 0.0
C988 C 0.4945 0.80281 0.07585 0.0
C989 C 0.51247 0.80217 0.06258 0.0
H990 H 0.52645 0.78814 0.03476 0.0
H991 H 0.46502 0.76558 0.05 0.0
C992 C 0.45303 0.69408 0.99095 0.0
N993 N 0.45082 0.71437 -0.00199 0.0
C994 C 0.43577 0.6802 0.99133 0.0
C995 C 0.41428 0.7083 0.00643 0.0
C996 C 0.43202 0.72163 0.00581 0.0
C997 C 0.41609 0.68726 -0.0008 0.0
H998 H 0.46828 0.68869 0.98509 0.0
H999 H 0.43085 0.73762 0.01195 0.0
C1000 C 0.5421 0.76414 0.99524 0.0
N1001 N 0.58565 0.76792 0.99098 0.0
C1002 C 0.55091 0.7707 0.97591 0.0
C1003 C 0.55542 0.75974 0.01248 0.0
C1004 C 0.57297 0.77246 0.97407 0.0
C1005 C 0.5774 0.76166 0.00998 0.0
C1006 C 0.49288 0.71841 0.95386 0.0
C1007 C 0.51028 0.71072 0.94236 0.0
C1008 C 0.47254 0.71733 0.94499 0.0
C1009 C 0.5071 0.70253 0.92196 0.0
C1010 C 0.47 0.70901 0.92455 0.0
N1011 N 0.4872 0.70187 0.91354 0.0
C1012 C 0.5395 0.69657 0.0133 0.0
C1013 C 0.55525 0.71413 0.98386 0.0
C1014 C 0.55625 0.68206 0.01407 0.0
N1015 N 0.53933 0.71221 -0.00163 0.0
C1016 C 0.57246 0.70014 0.98424 0.0
C1017 C 0.57298 0.68378 -0.00059 0.0
H1018 H 0.52651 0.69523 0.02447 0.0
H1019 H 0.55451 0.72637 0.97184 0.0
C1020 C 0.49054 0.79603 0.95642 0.0
N1021 N 0.49698 0.77569 0.95305 0.0
C1022 C 0.49057 0.81068 0.93979 0.0
C1023 C 0.50412 0.78326 0.91651 0.0
C1024 C 0.50384 0.76912 0.93363 0.0
C1025 C 0.49742 0.80436 0.91949 0.0
H1026 H 0.4855 0.80088 0.97214 0.0
H1027 H 0.50934 0.75305 0.93142 0.0
O1028 O 0.49523 0.72638 0.02172 0.0
O1029 O 0.4724 0.76293 0.99729 0.0
O1030 O 0.52053 0.76226 0.99733 0.0
O1031 O 0.49573 0.72631 0.97394 0.0
H1032 H 0.46004 0.71852 0.04342 0.0
H1033 H 0.52696 0.73172 0.04882 0.0
H1034 H 0.45769 0.7173 0.08281 0.0
H1035 H 0.52343 0.7304 0.08812 0.0
H1036 H 0.42142 0.77201 0.94681 0.0
H1037 H 0.4446 0.78391 0.02083 0.0
H1038 H 0.45675 0.75893 0.95831 0.0
H1039 H 0.4095 0.79675 0.00821 0.0
H1040 H 0.46324 0.78909 0.08125 0.0
H1041 H 0.52589 0.81264 0.0652 0.0
H1042 H 0.43777 0.66414 0.98545 0.0
H1043 H 0.39947 0.71422 0.01292 0.0
H1044 H 0.54084 0.77428 0.96245 0.0
H1045 H 0.54886 0.75474 0.02757 0.0
H1046 H 0.58002 0.77742 0.95917 0.0
H1047 H 0.58791 0.75816 0.02314 0.0
H1048 H 0.5261 0.71122 0.94903 0.0
H1049 H 0.45879 0.72261 0.95383 0.0
H1050 H 0.52045 0.69667 0.91283 0.0
H1051 H 0.45435 0.70813 0.91748 0.0
H1052 H 0.55616 0.66966 0.02603 0.0
H1053 H 0.58496 0.70175 0.97249 0.0
H1054 H 0.48567 0.82689 0.94291 0.0
H1055 H 0.50946 0.77771 0.9011 0.0
C1056 C 0.9843 0.34159 0.40877 0.0
C1057 C -0.00248 0.32371 0.40759 0.0
C1058 C 0.9841 0.35677 0.39246 0.0
C1059 C -0.00229 0.35412 0.37472 0.0
C1060 C 0.01092 0.33594 0.37332 0.0
C1061 C 0.01054 0.32083 0.38974 0.0
C1062 C 0.96956 0.37579 0.39434 0.0
C1063 C 0.02583 0.33274 0.35477 0.0
C1064 C 0.98587 0.38618 0.32495 0.0
C1065 C -0.00067 0.40372 0.32768 0.0
C1066 C 0.98528 0.36977 0.34006 0.0
C1067 C -0.00129 0.37085 0.35809 0.0
C1068 C 0.01268 0.38831 0.36063 0.0
C1069 C 0.01271 0.40463 0.34545 0.0
C1070 C 0.96997 0.35153 0.33699 0.0
C1071 C 0.02746 0.38986 0.3795 0.0
H1072 H 0.97405 0.34365 0.42249 0.0
H1073 H 0.02087 0.30706 0.38893 0.0
H1074 H 0.97915 0.39056 0.39532 0.0
H1075 H 0.95939 0.37709 0.37999 0.0
H1076 H 0.95916 0.37488 0.4086 0.0
H1077 H 0.03455 0.31741 0.35575 0.0
H1078 H 0.01686 0.33318 0.3396 0.0
H1079 H 0.03759 0.34589 0.35426 0.0
H1080 H 0.97541 0.38559 0.31125 0.0
H1081 H 0.02329 0.4181 0.34741 0.0
H1082 H 0.95845 0.35111 0.35035 0.0
H1083 H 0.97868 0.3362 0.33713 0.0
H1084 H 0.961 0.35281 0.32183 0.0
H1085 H 0.01806 0.39082 0.3944 0.0
H1086 H 0.03801 0.404 0.37859 0.0
H1087 H 0.03748 0.37538 0.38054 0.0
C1088 C 0.67751 0.00082 0.3769 0.0
C1089 C 0.67086 0.99553 0.39752 0.0
C1090 C 0.66306 0.00102 0.35991 0.0
C1091 C 0.64147 0.99593 0.36373 0.0
C1092 C 0.63468 0.99059 0.38452 0.0
C1093 C 0.64948 0.99041 0.40116 0.0
C1094 C 0.67086 0.00665 0.33791 0.0
C1095 C 0.61175 0.98522 0.38922 0.0
C1096 C 0.59838 0.01483 0.32609 0.0
C1097 C 0.59353 0.99608 0.31506 0.0
C1098 C 0.61439 0.01516 0.34158 0.0
C1099 C 0.62583 0.99631 0.34607 0.0
C1100 C 0.62145 0.9775 0.33452 0.0
C1101 C 0.6053 0.97761 0.31916 0.0
C1102 C 0.61856 0.03549 0.35366 0.0
C1103 C 0.63344 0.95714 0.33877 0.0
H1104 H 0.69409 0.00459 0.37403 0.0
H1105 H 0.64424 0.9866 0.41714 0.0
H1106 H 0.66748 0.99341 0.32676 0.0
H1107 H 0.66225 0.02083 0.33192 0.0
H1108 H 0.68819 0.01002 0.33759 0.0
H1109 H 0.6091 0.98136 0.40626 0.0
H1110 H 0.60139 -0.00118 0.38486 0.0
H1111 H 0.60667 0.97143 0.37948 0.0
H1112 H 0.58915 0.02908 0.32312 0.0
H1113 H 0.60174 0.96316 0.31046 0.0
H1114 H 0.63569 0.03965 0.35289 0.0
H1115 H 0.61447 0.03322 0.37067 0.0
H1116 H 0.60917 0.04907 0.34738 0.0
H1117 H 0.65082 0.95996 0.33765 0.0
H1118 H 0.62905 0.94429 0.32748 0.0
H1119 H 0.63008 0.95158 0.35518 0.0
C1120 C 0.98231 0.60433 0.32909 0.0
C1121 C 0.00097 0.59753 0.31893 0.0
C1122 C 0.98269 0.62099 0.34387 0.0
C1123 C 0.00217 0.63127 0.34842 0.0
C1124 C 0.02087 0.62523 0.33746 0.0
C1125 C 0.02007 0.60834 0.32291 0.0
C1126 C 0.96241 0.62697 0.35527 0.0
C1127 C 0.04189 0.636 0.34175 0.0
C1128 C -0.00092 0.68326 0.37898 0.0
C1129 C 0.00287 0.67636 0.39987 0.0
C1130 C -0.00068 0.66886 0.36192 0.0
C1131 C 0.00324 0.64707 0.36592 0.0
C1132 C 0.00744 0.64008 0.3869 0.0
C1133 C 0.00735 0.65483 0.40357 0.0
C1134 C 0.995 0.67688 0.33971 0.0
C1135 C 0.01165 0.61694 0.3918 0.0
H1136 H 0.9674 0.59635 0.32575 0.0
H1137 H 0.0346 0.60309 0.31527 0.0
H1138 H 0.96397 0.62327 0.37245 0.0
H1139 H 0.9595 0.64431 0.35388 0.0
H1140 H 0.94836 0.61835 0.34893 0.0
H1141 H 0.05439 0.63103 0.33029 0.0
H1142 H 0.0401 0.65353 0.34094 0.0
H1143 H 0.04734 0.63201 0.35805 0.0
H1144 H 0.99543 0.69983 0.376 0.0
H1145 H 0.01076 0.64945 0.41959 0.0
H1146 H 0.97997 0.66989 0.33368 0.0
H1147 H 0.00788 0.67179 0.32878 0.0
H1148 H 0.99366 0.69448 0.33909 0.0
H1149 H -0.00232 0.60722 0.38718 0.0
H1150 H 0.01497 0.61419 0.40894 0.0
H1151 H 0.02541 0.61117 0.38241 0.0
C1152 C 0.32886 0.01706 0.39549 0.0
C1153 C 0.32134 -0.00209 0.40405 0.0
C1154 C 0.34378 0.01712 0.37892 0.0
C1155 C 0.35149 -0.00245 0.37092 0.0
C1156 C 0.34352 0.97816 0.37912 0.0
C1157 C 0.32844 0.97857 0.39556 0.0
C1158 C 0.35172 0.03812 0.37037 0.0
C1159 C 0.35151 0.95698 0.37112 0.0
C1160 C 0.38088 0.99652 0.31816 0.0
C1161 C 0.40216 0.99672 0.32487 0.0
C1162 C 0.36417 0.99693 0.33296 0.0
C1163 C 0.36888 0.99737 0.35495 0.0
C1164 C 0.39029 -0.00241 0.36183 0.0
C1165 C 0.40666 0.9974 0.34671 0.0
C1166 C 0.3415 0.99681 0.32507 0.0
C1167 C 0.39594 -0.00199 0.38517 0.0
H1168 H 0.32316 0.03202 0.40188 0.0
H1169 H 0.32277 0.96375 0.40229 0.0
H1170 H 0.36887 0.03993 0.37406 0.0
H1171 H 0.35006 0.03858 0.35281 0.0
H1172 H 0.34301 0.05186 0.37725 0.0
H1173 H 0.34278 0.94339 0.37827 0.0
H1174 H 0.34996 0.9561 0.35357 0.0
H1175 H 0.36864 0.95529 0.37495 0.0
H1176 H 0.37727 0.99575 0.30133 0.0
H1177 H 0.42304 -0.00204 0.35203 0.0
H1178 H 0.33287 0.01087 0.33132 0.0
H1179 H 0.33314 0.98248 0.33106 0.0
H1180 H 0.34054 0.99696 0.30743 0.0
H1181 H 0.38923 0.01247 0.39272 0.0
H1182 H 0.41339 -0.00216 0.38787 0.0
H1183 H 0.38885 0.98407 0.39334 0.0
C1184 C 0.98111 0.60353 0.66613 0.0
C1185 C -0.00112 0.59017 0.66786 0.0
C1186 C 0.98038 0.61968 0.65076 0.0
C1187 C -0.00213 0.62257 0.63689 0.0
C1188 C 0.01597 0.60932 0.63876 0.0
C1189 C 0.01623 0.59324 0.6542 0.0
C1190 C 0.96076 0.63343 0.64914 0.0
C1191 C 0.03498 0.61203 0.62433 0.0
C1192 C 0.98901 0.64947 0.58367 0.0
C1193 C 0.99652 0.67007 0.58767 0.0
C1194 C 0.98914 0.63392 0.59964 0.0
C1195 C 0.99706 0.63909 0.62006 0.0
C1196 C 0.00449 0.65992 0.62426 0.0
C1197 C 0.00408 0.67519 0.608 0.0
C1198 C 0.98092 0.61192 0.59463 0.0
C1199 C 0.01314 0.66596 0.64582 0.0
H1200 H 0.96757 0.60104 0.6765 0.0
H1201 H 0.03009 0.5831 0.65568 0.0
H1202 H 0.96512 0.65044 0.65076 0.0
H1203 H 0.95337 0.63143 0.63324 0.0
H1204 H 0.94875 0.62947 0.66148 0.0
H1205 H 0.04803 0.60078 0.62824 0.0
H1206 H 0.03018 0.60946 0.60755 0.0
H1207 H 0.04118 0.6285 0.62553 0.0
H1208 H 0.98288 0.64555 0.56804 0.0
H1209 H 0.0101 0.69105 0.61107 0.0
H1210 H 0.96789 0.60767 0.60574 0.0
H1211 H 0.99379 0.60006 0.59687 0.0
H1212 H 0.97489 0.61062 0.57808 0.0
H1213 H 0.00102 0.66293 0.65828 0.0
H1214 H 0.01792 0.68295 0.6466 0.0
H1215 H 0.02717 0.65597 0.64964 0.0
C1216 C 0.39442 0.97808 0.67214 0.0
C1217 C 0.40085 0.99731 0.68146 0.0
C1218 C 0.37795 0.97754 0.65712 0.0
C1219 C 0.3679 0.99672 0.65102 0.0
C1220 C 0.3738 0.01607 0.66085 0.0
C1221 C 0.39008 0.01611 0.67608 0.0
C1222 C 0.37189 0.95654 0.64717 0.0
C1223 C 0.36351 0.03687 0.65467 0.0
C1224 C 0.34513 -0.00108 0.5953 0.0
C1225 C 0.32331 0.9969 0.59921 0.0
C1226 C 0.35977 -0.00095 0.61208 0.0
C1227 C 0.3524 0.99677 0.63323 0.0
C1228 C 0.33036 0.99458 0.63727 0.0
C1229 C 0.31602 0.99485 0.62017 0.0
C1230 C 0.38313 0.00174 0.60716 0.0
C1231 C 0.32198 0.99177 0.6596 0.0
H1232 H 0.40276 0.9635 0.67596 0.0
H1233 H 0.39461 0.03096 0.68353 0.0
H1234 H 0.35441 0.95428 0.64781 0.0
H1235 H 0.3766 0.95647 0.63017 0.0
H1236 H 0.37966 0.94286 0.65519 0.0
H1237 H 0.36905 0.05033 0.66467 0.0
H1238 H 0.36722 0.04052 0.6378 0.0
H1239 H 0.34597 0.03567 0.65604 0.0
H1240 H 0.35071 0.00076 0.57909 0.0
H1241 H 0.29913 0.99313 0.62314 0.0
H1242 H 0.39215 0.98773 0.61292 0.0
H1243 H 0.38945 0.01589 0.6156 0.0
H1244 H 0.38619 0.00367 0.58986 0.0
H1245 H 0.32916 0.97742 0.66693 0.0
H1246 H 0.3044 0.99014 0.66001 0.0
H1247 H 0.3266 0.00557 0.66956 0.0
C1248 C 0.97678 0.33016 0.60283 0.0
C1249 C 0.99415 0.31639 0.60043 0.0
C1250 C 0.97653 0.34559 0.6189 0.0
C1251 C 0.9941 0.34732 0.63284 0.0
C1252 C 0.01132 0.33295 0.63103 0.0
C1253 C 0.01113 0.31763 0.61482 0.0
C1254 C 0.95787 0.36063 0.62037 0.0
C1255 C 0.03028 0.33426 0.64569 0.0
C1256 C 0.0042 0.40196 0.656 0.0
C1257 C 0.9956 0.39994 0.67646 0.0
C1258 C 0.00409 0.38482 0.64179 0.0
C1259 C 0.99515 0.36519 0.64821 0.0
C1260 C 0.98675 0.36291 0.66897 0.0
C1261 C 0.9871 0.38035 0.68289 0.0
C1262 C 0.01334 0.3878 0.61981 0.0
C1263 C 0.97705 0.34221 0.67631 0.0
H1264 H 0.96372 0.32944 0.59162 0.0
H1265 H 0.02444 0.3068 0.61322 0.0
H1266 H 0.95162 0.36106 0.63687 0.0
H1267 H 0.96312 0.37698 0.61631 0.0
H1268 H 0.94474 0.35609 0.60947 0.0
H1269 H 0.04156 0.32089 0.64324 0.0
H1270 H 0.03887 0.34942 0.64291 0.0
H1271 H 0.02501 0.33422 0.66253 0.0
H1272 H 0.01111 0.41698 0.65111 0.0
H1273 H 0.98029 0.37879 0.69865 0.0
H1274 H 0.00083 0.3852 0.60765 0.0
H1275 H 0.02602 0.37589 0.61692 0.0
H1276 H 0.02014 0.40394 0.6175 0.0
H1277 H 0.96296 0.3384 0.66641 0.0
H1278 H 0.97204 0.34279 0.69324 0.0
H1279 H 0.98859 0.32903 0.67426 0.0
C1280 C 0.59042 0.98717 0.65036 0.0
C1281 C 0.59366 0.99606 0.67054 0.0
C1282 C 0.6066 0.98729 0.63503 0.0
C1283 C 0.62652 0.99647 0.64003 0.0
C1284 C 0.63004 0.00515 0.66049 0.0
C1285 C 0.61354 0.00487 0.67551 0.0
C1286 C 0.60228 0.97782 0.61338 0.0
C1287 C 0.6511 0.01505 0.66637 0.0
C1288 C 0.67294 0.98109 0.60467 0.0
C1289 C 0.67366 -0.00172 0.59046 0.0
C1290 C 0.658 0.98051 0.62123 0.0
C1291 C 0.64342 -0.00251 0.62358 0.0
C1292 C 0.6444 0.01511 0.60961 0.0
C1293 C 0.65953 0.01531 0.59324 0.0
C1294 C 0.65744 0.96148 0.63587 0.0
C1295 C 0.62916 0.03356 0.61166 0.0
H1296 H 0.5752 0.98003 0.64656 0.0
H1297 H 0.61606 0.01196 0.69101 0.0
H1298 H 0.60401 0.99024 0.60097 0.0
H1299 H 0.61407 0.9652 0.60984 0.0
H1300 H 0.58607 0.9709 0.6122 0.0
H1301 H 0.65154 0.02033 0.68323 0.0
H1302 H 0.66417 0.00352 0.66372 0.0
H1303 H 0.65424 0.02899 0.65602 0.0
H1304 H 0.68367 0.96778 0.60247 0.0
H1305 H 0.66026 0.02879 0.58253 0.0
H1306 H 0.64215 0.95292 0.63392 0.0
H1307 H 0.6584 0.9667 0.6527 0.0
H1308 H 0.67065 0.95019 0.63269 0.0
H1309 H 0.61263 0.02793 0.60915 0.0
H1310 H 0.63256 0.04641 0.60002 0.0
H1311 H 0.62996 0.04032 0.62793 0.0
C1312 C 0.39019 0.32404 0.98083 0.0
C1313 C 0.40927 0.32834 0.99149 0.0
C1314 C 0.37362 0.33896 0.98054 0.0
C1315 C 0.37621 0.35855 0.99132 0.0
C1316 C 0.39543 0.36295 0.00216 0.0
C1317 C 0.41176 0.3478 0.00206 0.0
C1318 C 0.3534 0.33383 0.96867 0.0
C1319 C 0.39868 0.3836 0.01397 0.0
C1320 C 0.34246 0.4061 0.97606 0.0
C1321 C 0.3271 0.40612 0.99223 0.0
C1322 C 0.35831 0.39045 0.97534 0.0
C1323 C 0.35886 0.37454 0.99124 0.0
C1324 C 0.34322 0.37429 0.00744 0.0
C1325 C 0.32747 0.39008 0.0077 0.0
C1326 C 0.37462 0.3911 0.95772 0.0
C1327 C 0.3434 0.35763 0.02473 0.0
H1328 H 0.38832 0.30907 0.97249 0.0
H1329 H 0.42641 0.35103 0.01056 0.0
H1330 H 0.33965 0.33432 0.97971 0.0
H1331 H 0.35053 0.34596 0.95619 0.0
H1332 H 0.35396 0.31791 0.96105 0.0
H1333 H 0.41454 0.38449 0.0217 0.0
H1334 H 0.39708 0.39721 0.00285 0.0
H1335 H 0.38626 0.38545 0.02637 0.0
H1336 H 0.34202 0.41833 0.96391 0.0
H1337 H 0.31574 0.39018 0.02034 0.0
H1338 H 0.37479 0.37574 0.94906 0.0
H1339 H 0.39071 0.39344 0.96455 0.0
H1340 H 0.37149 0.40408 0.94614 0.0
H1341 H 0.34297 0.34149 0.01762 0.0
H1342 H 0.32972 0.35928 0.0358 0.0
H1343 H 0.35834 0.35884 0.03403 0.0
C1344 C 0.31687 0.60851 0.01546 0.0
C1345 C 0.31524 0.59542 0.99749 0.0
C1346 C 0.33197 0.62493 0.01629 0.0
C1347 C 0.34564 0.62829 -0.00129 0.0
C1348 C 0.34345 0.61566 0.98022 0.0
C1349 C 0.32828 0.59936 0.97985 0.0
C1350 C 0.33387 0.63809 0.03627 0.0
C1351 C 0.35763 0.61887 0.9611 0.0
C1352 C 0.37753 0.67926 0.99328 0.0
C1353 C 0.39769 0.67258 7e-05 0.0
C1354 C 0.36024 0.66515 0.99318 0.0
C1355 C 0.36324 0.64394 0.00011 0.0
C1356 C 0.38343 0.63729 0.00748 0.0
C1357 C 0.40042 0.65169 0.00734 0.0
C1358 C 0.33893 0.67275 0.98517 0.0
C1359 C 0.38721 0.61483 0.01513 0.0
H1360 H 0.3069 0.60541 0.02918 0.0
H1361 H 0.3268 0.58947 0.96581 0.0
H1362 H 0.34933 0.63476 0.04408 0.0
H1363 H 0.33358 0.65528 0.03234 0.0
H1364 H 0.32091 0.63467 0.04778 0.0
H1365 H 0.35293 0.60866 0.94747 0.0
H1366 H 0.3572 0.63573 0.95593 0.0
H1367 H 0.37432 0.61512 0.9654 0.0
H1368 H 0.37541 0.69536 0.98751 0.0
H1369 H 0.4159 0.6466 0.01295 0.0
H1370 H 0.32639 0.66947 0.99714 0.0
H1371 H 0.33461 0.66393 0.97052 0.0
H1372 H 0.33893 0.69004 0.98153 0.0
H1373 H 0.37581 0.61079 0.02798 0.0
H1374 H 0.40363 0.61248 0.0212 0.0
H1375 H 0.38445 0.60349 0.0019 0.0
C1376 C 0.6066 0.32575 0.0285 0.0
C1377 C 0.60146 0.31689 0.00869 0.0
C1378 C 0.6229 0.34086 0.03039 0.0
C1379 C 0.63421 0.34728 0.01202 0.0
C1380 C 0.6298 0.3376 0.99219 0.0
C1381 C 0.6135 0.32249 0.99078 0.0
C1382 C 0.62727 0.35074 0.05183 0.0
C1383 C 0.64159 0.34397 0.97224 0.0
C1384 C 0.65581 0.40336 0.00868 0.0
C1385 C 0.67767 0.40007 0.01147 0.0
C1386 C 0.64148 0.38634 0.00936 0.0
C1387 C 0.64918 0.36551 0.01301 0.0
C1388 C 0.67115 0.36214 0.01652 0.0
C1389 C 0.68517 0.37949 0.01569 0.0
C1390 C 0.61813 0.3906 0.00563 0.0
C1391 C 0.67989 0.34015 0.02055 0.0
H1392 H 0.59726 0.32159 0.04238 0.0
H1393 H 0.60986 0.31537 0.97551 0.0
H1394 H 0.64457 0.35074 0.05521 0.0
H1395 H 0.62192 0.36756 0.05175 0.0
H1396 H 0.61891 0.34227 0.06489 0.0
H1397 H 0.63745 0.33372 0.95846 0.0
H1398 H 0.63768 0.36068 0.96815 0.0
H1399 H 0.659 0.34313 0.97487 0.0
H1400 H 0.64989 0.4193 0.00584 0.0
H1401 H 0.70208 0.37686 0.01773 0.0
H1402 H 0.60859 0.38433 0.01908 0.0
H1403 H 0.61281 0.38222 0.99104 0.0
H1404 H 0.61465 0.40782 0.00379 0.0
H1405 H 0.67108 0.33238 0.03372 0.0
H1406 H 0.69707 0.34044 0.02461 0.0
H1407 H 0.67769 0.33017 0.00618 0.0
C1408 C 0.66486 0.59873 0.97969 0.0
C1409 C 0.67242 0.59005 -0.00119 0.0
C1410 C 0.64932 0.61471 0.97967 0.0
C1411 C 0.64137 0.62243 -0.00075 0.0
C1412 C 0.64941 0.61427 0.01861 0.0
C1413 C 0.66472 0.59806 0.01816 0.0
C1414 C 0.64103 0.62296 0.95869 0.0
C1415 C 0.64145 0.62228 0.03981 0.0
C1416 C 0.61176 0.67504 -0.00103 0.0
C1417 C 0.59057 0.66819 -0.00045 0.0
C1418 C 0.62853 0.66033 -0.00091 0.0
C1419 C 0.6239 0.6383 -0.00054 0.0
C1420 C 0.60251 0.63132 -9e-05 0.0
C1421 C 0.58609 0.64638 0.0001 0.0
C1422 C 0.65116 0.66832 -0.00107 0.0
C1423 C 0.59695 0.60796 -2e-05 0.0
H1424 H 0.67102 0.59295 0.96467 0.0
H1425 H 0.67023 0.5913 0.03302 0.0
H1426 H 0.62377 0.61953 0.95736 0.0
H1427 H 0.64296 0.64046 0.95784 0.0
H1428 H 0.64929 0.61569 0.94487 0.0
H1429 H 0.65043 0.6154 0.05337 0.0
H1430 H 0.64271 0.63987 0.04052 0.0
H1431 H 0.62441 0.61816 0.04172 0.0
H1432 H 0.61519 0.69193 -0.00128 0.0
H1433 H 0.56968 0.64109 0.0003 0.0
H1434 H 0.65959 0.66229 0.98466 0.0
H1435 H 0.65977 0.66221 0.01307 0.0
H1436 H 0.65204 0.68597 -0.00104 0.0
H1437 H 0.60376 0.60013 0.9857 0.0
H1438 H 0.5795 0.6052 0.00015 0.0
H1439 H 0.60401 0.60012 0.01412 0.0
C1440 C 0.48136 0.83452 0.89908 0.0
C1441 C 0.49799 0.8199 0.90173 0.0
C1442 C 0.48222 0.85011 0.88317 0.0
C1443 C 0.50009 0.85103 0.86952 0.0
C1444 C 0.51666 0.83597 0.87171 0.0
C1445 C 0.51543 0.8206 0.88784 0.0
C1446 C 0.46422 0.86589 0.88129 0.0
C1447 C 0.53592 0.83644 0.85738 0.0
C1448 C 0.49403 0.88273 0.8185 0.0
C1449 C 0.50319 0.90225 0.82423 0.0
C1450 C 0.49328 0.86573 0.83294 0.0
C1451 C 0.50181 0.86838 0.85359 0.0
C1452 C 0.51141 0.8879 0.85934 0.0
C1453 C 0.51203 0.90458 0.84456 0.0
C1454 C 0.48298 0.8451 0.82626 0.0
C1455 C 0.52071 0.8913 0.88121 0.0
H1456 H 0.46767 0.83382 0.90953 0.0
H1457 H 0.52844 0.80949 0.88994 0.0
H1458 H 0.47024 0.88219 0.88432 0.0
H1459 H 0.45767 0.8657 0.86491 0.0
H1460 H 0.45112 0.86253 0.89266 0.0
H1461 H 0.54678 0.82283 0.86032 0.0
H1462 H 0.53094 0.83614 0.84046 0.0
H1463 H 0.54487 0.85142 0.85992 0.0
H1464 H 0.48698 0.88091 0.80289 0.0
H1465 H 0.51946 0.9195 0.84895 0.0
H1466 H 0.46874 0.84205 0.83621 0.0
H1467 H 0.49411 0.83165 0.8288 0.0
H1468 H 0.47807 0.84526 0.80929 0.0
H1469 H 0.50808 0.88956 0.89342 0.0
H1470 H 0.52808 0.90725 0.88297 0.0
H1471 H 0.53294 0.87904 0.88456 0.0
C1472 C 0.15135 0.48211 0.90403 0.0
C1473 C 0.16833 0.4965 0.90379 0.0
C1474 C 0.13588 0.48247 0.88799 0.0
C1475 C 0.13727 0.49788 0.87163 0.0
C1476 C 0.15444 0.51244 0.87131 0.0
C1477 C 0.16992 0.51143 0.88733 0.0
C1478 C 0.11801 0.46644 0.88862 0.0
C1479 C 0.15623 0.52931 0.85432 0.0
C1480 C 0.10638 0.48816 0.82074 0.0
C1481 C 0.08778 0.49978 0.82457 0.0
C1482 C 0.12272 0.48747 0.83589 0.0
C1483 C 0.12047 0.499 0.8551 0.0
C1484 C 0.1019 0.51117 0.85879 0.0
C1485 C 0.08566 0.51125 0.84353 0.0
C1486 C 0.14215 0.47404 0.83158 0.0
C1487 C 0.09912 0.52397 0.87891 0.0
H1488 H 0.15029 0.47046 0.9167 0.0
H1489 H 0.18301 0.52265 0.88731 0.0
H1490 H 0.10256 0.47476 0.89038 0.0
H1491 H 0.11744 0.45746 0.87345 0.0
H1492 H 0.11975 0.45496 0.90194 0.0
H1493 H 0.17066 0.5393 0.85627 0.0
H1494 H 0.15668 0.52182 0.83836 0.0
H1495 H 0.14202 0.53977 0.85479 0.0
H1496 H 0.10789 0.47916 0.80611 0.0
H1497 H 0.07132 0.5204 0.84635 0.0
H1498 H 0.1436 0.46152 0.84392 0.0
H1499 H 0.1567 0.48396 0.83246 0.0
H1500 H 0.14157 0.4663 0.81571 0.0
H1501 H 0.09893 0.51321 0.89289 0.0
H1502 H 0.08417 0.53338 0.87887 0.0
H1503 H 0.11273 0.53501 0.88097 0.0
C1504 C 0.4876 0.1023 0.83301 0.0
C1505 C 0.50617 0.09457 0.82329 0.0
C1506 C 0.4885 0.11828 0.84851 0.0
C1507 C 0.50836 0.12728 0.85398 0.0
C1508 C 0.52705 0.12033 0.84358 0.0
C1509 C 0.52578 0.10385 0.82861 0.0
C1510 C 0.46824 0.12506 0.8595 0.0
C1511 C 0.54846 0.12994 0.84864 0.0
C1512 C 0.50623 0.17957 0.88404 0.0
C1513 C 0.50961 0.17286 0.90509 0.0
C1514 C 0.50652 0.16502 0.86712 0.0
C1515 C 0.50964 0.14316 0.8714 0.0
C1516 C 0.51327 0.13628 0.89251 0.0
C1517 C 0.51355 0.15124 0.90902 0.0
C1518 C 0.50312 0.17299 0.84473 0.0
C1519 C 0.51637 0.11304 0.89775 0.0
H1520 H 0.47229 0.09571 0.82867 0.0
H1521 H 0.5403 0.0979 0.8215 0.0
H1522 H 0.46948 0.12182 0.87681 0.0
H1523 H 0.46579 0.14241 0.85757 0.0
H1524 H 0.45404 0.11664 0.85322 0.0
H1525 H 0.56108 0.12431 0.83764 0.0
H1526 H 0.54762 0.14754 0.84774 0.0
H1527 H 0.55313 0.12574 0.86512 0.0
H1528 H 0.50289 0.19614 0.88075 0.0
H1529 H 0.51676 0.14589 0.92508 0.0
H1530 H 0.48787 0.16678 0.83843 0.0
H1531 H 0.51595 0.16708 0.83415 0.0
H1532 H 0.50276 0.19063 0.84388 0.0
H1533 H 0.50223 0.10382 0.89262 0.0
H1534 H 0.51889 0.1103 0.91502 0.0
H1535 H 0.53026 0.10665 0.88896 0.0
C1536 C 0.88362 0.48306 0.81842 0.0
C1537 C 0.89933 0.49878 0.82035 0.0
C1538 C 0.86698 0.48158 0.83322 0.0
C1539 C 0.86614 0.49611 0.85038 0.0
C1540 C 0.88168 0.51228 0.85215 0.0
C1541 C 0.89805 0.51345 0.83708 0.0
C1542 C 0.85063 0.46417 0.83081 0.0
C1543 C 0.88128 0.52809 0.87023 0.0
C1544 C 0.81553 0.50441 0.88213 0.0
C1545 C 0.81973 0.4924 0.90045 0.0
C1546 C 0.83022 0.50527 0.86537 0.0
C1547 C 0.84958 0.49393 0.86706 0.0
C1548 C 0.85365 0.48133 0.88526 0.0
C1549 C 0.83866 0.48071 0.90174 0.0
C1550 C 0.82528 0.51872 0.8461 0.0
C1551 C 0.87416 0.46907 0.88765 0.0
H1552 H 0.88464 0.47152 0.80566 0.0
H1553 H 0.90994 0.52586 0.83844 0.0
H1554 H 0.85177 0.45301 0.84443 0.0
H1555 H 0.83437 0.47101 0.831 0.0
H1556 H 0.85276 0.45503 0.81585 0.0
H1557 H 0.8942 0.54007 0.86897 0.0
H1558 H 0.8658 0.53651 0.87058 0.0
H1559 H 0.88298 0.5196 0.88562 0.0
H1560 H 0.80077 0.51325 0.88098 0.0
H1561 H 0.8421 0.47161 0.91597 0.0
H1562 H 0.8269 0.50912 0.83139 0.0
H1563 H 0.83685 0.53199 0.84497 0.0
H1564 H 0.80898 0.5255 0.84668 0.0
H1565 H 0.87667 0.45859 0.87369 0.0
H1566 H 0.87438 0.45915 0.90227 0.0
H1567 H 0.88775 0.4803 0.88829 0.0
C1568 C 0.50816 0.09742 0.15785 0.0
C1569 C 0.49215 0.09484 0.17317 0.0
C1570 C 0.50747 0.11418 0.1432 0.0
C1571 C 0.49049 0.1289 0.14404 0.0
C1572 C 0.47466 0.12688 0.15991 0.0
C1573 C 0.47563 0.10979 0.17425 0.0
C1574 C 0.52466 0.11581 0.12648 0.0
C1575 C 0.45642 0.14241 0.16138 0.0
C1576 C 0.49963 0.18026 0.11374 0.0
C1577 C 0.48955 0.17585 0.09434 0.0
C1578 C 0.49934 0.16547 0.13045 0.0
C1579 C 0.48888 0.14575 0.12758 0.0
C1580 C 0.47808 0.1415 0.10831 0.0
C1581 C 0.47847 0.15664 0.09196 0.0
C1582 C 0.51088 0.17061 0.15086 0.0
C1583 C 0.46676 0.12064 0.10465 0.0
H1584 H 0.52123 0.0862 0.15721 0.0
H1585 H 0.46311 0.10782 0.18594 0.0
H1586 H 0.51754 0.11415 0.11043 0.0
H1587 H 0.53234 0.13167 0.12719 0.0
H1588 H 0.5371 0.10342 0.12841 0.0
H1589 H 0.44634 0.13957 0.1756 0.0
H1590 H 0.46253 0.15895 0.16197 0.0
H1591 H 0.44632 0.14109 0.14698 0.0
H1592 H 0.50837 0.19499 0.11564 0.0
H1593 H 0.47027 0.15332 0.07717 0.0
H1594 H 0.52486 0.16 0.15259 0.0
H1595 H 0.50037 0.16773 0.16474 0.0
H1596 H 0.51646 0.18736 0.15133 0.0
H1597 H 0.47844 0.10743 0.10489 0.0
H1598 H 0.45819 0.12028 0.08921 0.0
H1599 H 0.45517 0.11763 0.11761 0.0
C1600 C 0.89153 0.51874 0.17477 0.0
C1601 C 0.9083 0.50425 0.17241 0.0
C1602 C 0.87525 0.51996 0.15956 0.0
C1603 C 0.87569 0.50617 0.14177 0.0
C1604 C 0.89251 0.4914 0.13943 0.0
C1605 C 0.90868 0.4907 0.15474 0.0
C1606 C 0.85769 0.53607 0.16242 0.0
C1607 C 0.8934 0.47628 0.12079 0.0
C1608 C 0.82502 0.49431 0.11134 0.0
C1609 C 0.82786 0.50662 0.09297 0.0
C1610 C 0.84027 0.49435 0.1276 0.0
C1611 C 0.85866 0.50717 0.12547 0.0
C1612 C 0.86127 0.52013 0.10725 0.0
C1613 C 0.84587 0.5196 0.09114 0.0
C1614 C 0.83705 0.48017 0.14671 0.0
C1615 C 0.88054 0.5342 0.10456 0.0
H1616 H 0.89134 0.52936 0.18834 0.0
H1617 H 0.92151 0.47932 0.15304 0.0
H1618 H 0.85727 0.547 0.14857 0.0
H1619 H 0.84207 0.52791 0.16311 0.0
H1620 H 0.8597 0.54565 0.17712 0.0
H1621 H 0.9074 0.46554 0.12151 0.0
H1622 H 0.87877 0.46643 0.12035 0.0
H1623 H 0.89406 0.48538 0.10569 0.0
H1624 H 0.81118 0.48412 0.11267 0.0
H1625 H 0.84794 0.52932 0.07704 0.0
H1626 H 0.83814 0.48961 0.16156 0.0
H1627 H 0.84982 0.46801 0.14729 0.0
H1628 H 0.82144 0.47192 0.14639 0.0
H1629 H 0.88242 0.54467 0.11863 0.0
H1630 H 0.87952 0.54428 0.09008 0.0
H1631 H 0.89506 0.52425 0.10344 0.0
C1632 C 0.51132 0.8223 0.10625 0.0
C1633 C 0.49336 0.81822 0.09368 0.0
C1634 C 0.5109 0.83797 0.1221 0.0
C1635 C 0.49203 0.84973 0.12553 0.0
C1636 C 0.47364 0.84521 0.11341 0.0
C1637 C 0.47454 0.82957 0.09756 0.0
C1638 C 0.53083 0.84236 0.13474 0.0
C1639 C 0.4532 0.85739 0.1167 0.0
C1640 C 0.48654 0.88122 0.17674 0.0
C1641 C 0.49207 0.90175 0.16996 0.0
C1642 C 0.48636 0.86409 0.16244 0.0
C1643 C 0.49192 0.86762 0.14092 0.0
C1644 C 0.49743 0.8883 0.13397 0.0
C1645 C 0.49738 0.90512 0.14856 0.0
C1646 C 0.48034 0.84224 0.17036 0.0
C1647 C 0.50343 0.89267 0.11112 0.0
H1648 H 0.52579 0.81334 0.10357 0.0
H1649 H 0.46068 0.8267 0.08775 0.0
H1650 H 0.53646 0.85875 0.13144 0.0
H1651 H 0.52743 0.84136 0.15203 0.0
H1652 H 0.54385 0.83106 0.13088 0.0
H1653 H 0.43992 0.85089 0.10705 0.0
H1654 H 0.44854 0.85702 0.13371 0.0
H1655 H 0.45559 0.8743 0.11227 0.0
H1656 H 0.48266 0.87848 0.19331 0.0
H1657 H 0.50131 0.92101 0.14316 0.0
H1658 H 0.49374 0.83105 0.16786 0.0
H1659 H 0.4666 0.83608 0.16117 0.0
H1660 H 0.47612 0.84225 0.18752 0.0
H1661 H 0.51732 0.8828 0.10655 0.0
H1662 H 0.50743 0.90965 0.10833 0.0
H1663 H 0.49011 0.88821 0.10045 0.0
C1664 C 0.15105 0.48356 0.08972 0.0
C1665 C 0.17215 0.49004 0.09273 0.0
C1666 C 0.13657 0.48348 0.10665 0.0
C1667 C 0.14333 0.49023 0.12702 0.0
C1668 C 0.16474 0.49636 0.13027 0.0
C1669 C 0.17896 0.49609 0.11306 0.0
C1670 C 0.11392 0.47658 0.10263 0.0
C1671 C 0.17245 0.50382 0.15175 0.0
C1672 C 0.09943 0.51139 0.1624 0.0
C1673 C 0.09535 0.49388 0.17556 0.0
C1674 C 0.11552 0.51064 0.14701 0.0
C1675 C 0.12764 0.49183 0.14459 0.0
C1676 C 0.12391 0.47425 0.15815 0.0
C1677 C 0.10784 0.47553 0.17359 0.0
C1678 C 0.11921 0.52981 0.133 0.0
C1679 C 0.1364 0.45388 0.15589 0.0
H1680 H 0.14586 0.4786 0.07405 0.0
H1681 H 0.19525 0.50124 0.11536 0.0
H1682 H 0.10936 0.46381 0.11392 0.0
H1683 H 0.10299 0.49015 0.10535 0.0
H1684 H 0.11154 0.47068 0.08615 0.0
H1685 H 0.18983 0.50696 0.15189 0.0
H1686 H 0.16401 0.51864 0.15625 0.0
H1687 H 0.16877 0.49176 0.16409 0.0
H1688 H 0.08994 0.52568 0.16412 0.0
H1689 H 0.10458 0.46192 0.18366 0.0
H1690 H 0.11541 0.52577 0.11626 0.0
H1691 H 0.13619 0.53455 0.13353 0.0
H1692 H 0.10932 0.54363 0.13782 0.0
H1693 H 0.13306 0.4466 0.14017 0.0
H1694 H 0.13241 0.44215 0.16849 0.0
H1695 H 0.1537 0.45721 0.15653 0.0
C1696 C 0.81621 0.88181 0.49941 0.0
C1697 C 0.8218 0.90212 0.49207 0.0
C1698 C 0.83127 0.86536 0.50019 0.0
C1699 C 0.85239 0.86939 0.49353 0.0
C1700 C 0.85808 0.88983 0.486 0.0
C1701 C 0.84271 0.90593 0.48537 0.0
C1702 C 0.82464 0.84373 0.50821 0.0
C1703 C 0.88048 0.89476 0.47886 0.0
C1704 C 0.89787 0.83535 0.51364 0.0
C1705 C 0.90212 0.82251 0.49591 0.0
C1706 C 0.88134 0.8503 0.51328 0.0
C1707 C 0.86876 0.85243 0.49475 0.0
C1708 C 0.87258 0.83913 0.47701 0.0
C1709 C 0.88925 0.82433 0.47779 0.0
C1710 C 0.87767 0.86416 0.53255 0.0
C1711 C 0.85948 0.84096 0.45698 0.0
H1712 H 0.8 0.87874 0.5044 0.0
H1713 H 0.8472 0.92169 0.48 0.0
H1714 H 0.82784 0.8315 0.4959 0.0
H1715 H 0.83415 0.83942 0.52243 0.0
H1716 H 0.80751 0.84311 0.51249 0.0
H1717 H 0.88219 0.91135 0.47305 0.0
H1718 H 0.8917 0.8923 0.49225 0.0
H1719 H 0.88527 0.88376 0.46593 0.0
H1720 H 0.90754 0.83375 0.52782 0.0
H1721 H 0.8926 0.81461 0.46396 0.0
H1722 H 0.8609 0.86288 0.53786 0.0
H1723 H 0.88057 0.88105 0.52835 0.0
H1724 H 0.88822 0.85983 0.54604 0.0
H1725 H 0.84231 0.83971 0.46079 0.0
H1726 H 0.86358 0.82852 0.44513 0.0
H1727 H 0.86208 0.85679 0.44961 0.0
C1728 C 0.88729 0.17307 0.47863 0.0
C1729 C 0.90074 0.17322 0.49641 0.0
C1730 C 0.87077 0.15817 0.47691 0.0
C1731 C 0.86766 0.14316 0.4934 0.0
C1732 C 0.88085 0.1436 0.51163 0.0
C1733 C 0.89725 0.15862 0.51289 0.0
C1734 C 0.85705 0.15811 0.45722 0.0
C1735 C 0.87792 0.12793 0.52959 0.0
C1736 C 0.81567 0.1129 0.49822 0.0
C1737 C 0.82127 0.09308 0.48967 0.0
C1738 C 0.83048 0.12957 0.49912 0.0
C1739 C 0.8513 0.12629 0.49123 0.0
C1740 C 0.85686 0.1065 0.48208 0.0
C1741 C 0.84177 0.09013 0.48143 0.0
C1742 C 0.82403 0.15046 0.50903 0.0
C1743 C 0.87887 0.10247 0.47337 0.0
H1744 H 0.89007 0.18422 0.46577 0.0
H1745 H 0.90742 0.15892 0.5268 0.0
H1746 H 0.8594 0.14302 0.44839 0.0
H1747 H 0.84 0.15896 0.46168 0.0
H1748 H 0.86076 0.17159 0.44642 0.0
H1749 H 0.88891 0.13103 0.54307 0.0
H1750 H 0.86134 0.12857 0.53558 0.0
H1751 H 0.88074 0.11153 0.52372 0.0
H1752 H 0.79989 0.11518 0.50476 0.0
H1753 H 0.84603 0.07493 0.47451 0.0
H1754 H 0.82737 0.16376 0.49793 0.0
H1755 H 0.83355 0.15329 0.52361 0.0
H1756 H 0.80691 0.15082 0.51334 0.0
H1757 H 0.88298 0.1147 0.46133 0.0
H1758 H 0.88033 0.08652 0.46593 0.0
H1759 H 0.89074 0.1037 0.48636 0.0
C1760 C 0.09016 0.84559 0.50656 0.0
C1761 C 0.09356 0.82432 0.5008 0.0
C1762 C 0.10696 0.86022 0.50689 0.0
C1763 C 0.1277 0.85339 0.50143 0.0
C1764 C 0.13132 0.83189 0.49588 0.0
C1765 C 0.11418 0.8176 0.49558 0.0
C1766 C 0.10249 0.88303 0.51293 0.0
C1767 C 0.15324 0.82405 0.49 0.0
C1768 C 0.16552 0.89654 0.48294 0.0
C1769 C 0.17677 0.90099 0.50165 0.0
C1770 C 0.14988 0.88066 0.48249 0.0
C1771 C 0.14546 0.86894 0.5012 0.0
C1772 C 0.15723 0.87289 0.51996 0.0
C1773 C 0.17273 0.88893 0.51997 0.0
C1774 C 0.13757 0.87695 0.46221 0.0
C1775 C 0.15308 0.86057 0.54015 0.0
H1776 H 0.07433 0.8508 0.51096 0.0
H1777 H 0.11687 0.80124 0.49089 0.0
H1778 H 0.11229 0.8876 0.52686 0.0
H1779 H 0.10694 0.89374 0.49963 0.0
H1780 H 0.08548 0.88573 0.51688 0.0
H1781 H 0.15352 0.80669 0.48678 0.0
H1782 H 0.15898 0.83254 0.47564 0.0
H1783 H 0.16461 0.82756 0.50303 0.0
H1784 H 0.16844 0.90598 0.46881 0.0
H1785 H 0.1816 0.89216 0.53439 0.0
H1786 H 0.12061 0.88111 0.46473 0.0
H1787 H 0.13818 0.8599 0.45774 0.0
H1788 H 0.14378 0.88656 0.44874 0.0
H1789 H 0.13674 0.8639 0.54591 0.0
H1790 H 0.1645 0.86469 0.55298 0.0
H1791 H 0.15409 0.84324 0.53702 0.0
C1792 C 0.08894 0.15081 0.50548 0.0
C1793 C 0.0922 0.17197 0.49931 0.0
C1794 C 0.10559 0.13603 0.50493 0.0
C1795 C 0.12601 0.14262 0.49815 0.0
C1796 C 0.12942 0.16397 0.49187 0.0
C1797 C 0.11241 0.17841 0.49244 0.0
C1798 C 0.1013 0.11334 0.51157 0.0
C1799 C 0.15103 0.17157 0.4847 0.0
C1800 C 0.17151 0.10752 0.51628 0.0
C1801 C 0.17479 0.09473 0.4983 0.0
C1802 C 0.15617 0.1237 0.51619 0.0
C1803 C 0.14374 0.12706 0.49774 0.0
C1804 C 0.14737 0.11462 0.47936 0.0
C1805 C 0.1629 0.09863 0.47984 0.0
C1806 C 0.15278 0.13672 0.53608 0.0
C1807 C 0.13442 0.11776 0.45938 0.0
H1808 H 0.07325 0.14573 0.5105 0.0
H1809 H 0.11498 0.19482 0.48783 0.0
H1810 H 0.10516 0.10237 0.4983 0.0
H1811 H 0.11167 0.10898 0.52516 0.0
H1812 H 0.08448 0.11078 0.5163 0.0
H1813 H 0.15099 0.18866 0.48021 0.0
H1814 H 0.1628 0.16915 0.49761 0.0
H1815 H 0.15648 0.16211 0.47084 0.0
H1816 H 0.18046 0.10446 0.53068 0.0
H1817 H 0.16563 0.08905 0.46578 0.0
H1818 H 0.13678 0.13337 0.54272 0.0
H1819 H 0.15339 0.15394 0.53229 0.0
H1820 H 0.16485 0.13323 0.5485 0.0
H1821 H 0.1175 0.11399 0.46263 0.0
H1822 H 0.14001 0.10755 0.44609 0.0
H1823 H 0.13514 0.13462 0.45423 0.0
loop_
_geom_bond_atom_site_label_1
_geom_bond_atom_site_label_2
_geom_bond_distance
_geom_bond_site_symmetry_2
_ccdc_geom_bond_type
Li0 N17 1.990 . S
Li0 O60 1.956 . S
Li0 O61 1.972 . S
Li0 O62 1.950 1_655 S
Li1 N25 1.991 . S
Li1 O60 1.955 1_455 S
Li1 O61 1.956 1_455 S
Li1 O63 1.976 . S
Li2 N47 1.991 . S
Li2 O60 1.967 . S
Li2 O62 1.956 1_655 S
Li2 O63 1.964 1_655 S
Li3 N53 1.990 . S
Li3 O61 1.959 1_455 S
Li3 O62 1.981 . S
Li3 O63 1.956 . S
C4 C6 1.348 . S
C4 C7 1.356 . S
C4 O60 1.325 . S
N5 C8 1.314 . S
N5 C9 1.279 . S
C6 C4 1.348 . S
C6 C8 1.353 . S
C6 H64 0.929 . S
C7 C4 1.356 . S
C7 C9 1.358 . S
C7 H65 0.930 . S
C8 N5 1.314 . S
C8 C6 1.353 . S
C8 H66 0.930 . S
C9 N5 1.279 . S
C9 C7 1.358 . S
C9 H67 0.930 . S
C10 C13 1.345 1_455 S
C10 C14 1.359 . S
C10 O61 1.325 1_455 S
C11 N12 1.279 . S
C11 C14 1.358 . S
C11 H68 0.930 . S
N12 C11 1.279 . S
N12 C15 1.314 1_455 S
C13 C10 1.345 1_655 S
C13 C15 1.353 . S
C13 H69 0.929 . S
C14 C10 1.359 . S
C14 C11 1.358 . S
C14 H70 0.930 . S
C15 N12 1.314 1_655 S
C15 C13 1.353 . S
C15 H71 0.930 . S
C16 N17 1.314 . S
C16 C21 1.353 . S
C16 H22 0.930 . S
N17 Li0 1.990 . S
N17 C16 1.314 . S
N17 C19 1.279 . S
C18 C19 1.358 . S
C18 C20 1.356 . S
C18 H72 0.930 . S
C19 N17 1.279 . S
C19 C18 1.358 . S
C19 H23 0.930 . S
C20 C18 1.356 . S
C20 C21 1.348 . S
C21 C16 1.353 . S
C21 C20 1.348 . S
C21 H73 0.929 . S
H22 C16 0.930 . S
H23 C19 0.930 . S
C24 N25 1.314 . S
C24 C26 1.353 . S
C24 H30 0.930 . S
N25 Li1 1.991 . S
N25 C24 1.314 . S
N25 C28 1.279 1_455 S
C26 C24 1.353 . S
C26 C29 1.346 . S
C26 H74 0.929 . S
C27 C28 1.358 . S
C27 C29 1.357 1_655 S
C27 H75 0.930 . S
C28 N25 1.279 1_655 S
C28 C27 1.358 . S
C28 H31 0.930 . S
C29 C26 1.346 . S
C29 C27 1.357 1_455 S
H30 C24 0.930 . S
H31 C28 0.930 . S
C32 C34 1.345 . S
C32 C35 1.359 1_455 S
C32 O62 1.325 . S
N33 C36 1.277 1_655 S
N33 C37 1.316 . S
C34 C32 1.345 . S
C34 C36 1.353 . S
C34 H76 0.929 . S
C35 C32 1.359 1_655 S
C35 C37 1.358 . S
C35 H77 0.930 . S
C36 N33 1.277 1_455 S
C36 C34 1.353 . S
C36 H78 0.930 . S
C37 N33 1.316 . S
C37 C35 1.358 . S
C37 H79 0.930 . S
C38 C39 1.348 . S
C38 C40 1.356 . S
C38 O63 1.325 . S
C39 C38 1.348 . S
C39 C41 1.353 . S
C39 H80 0.929 . S
C40 C38 1.356 . S
C40 C42 1.358 . S
C40 H81 0.930 . S
C41 C39 1.353 . S
C41 N43 1.314 . S
C41 H82 0.930 . S
C42 C40 1.358 . S
C42 N43 1.279 . S
C42 H83 0.930 . S
N43 C41 1.314 . S
N43 C42 1.279 . S
C44 C46 1.353 . S
C44 N47 1.314 . S
C44 H50 0.930 . S
C45 N47 1.279 1_455 S
C45 C48 1.358 . S
C45 H51 0.930 . S
C46 C44 1.353 . S
C46 C49 1.346 1_655 S
C46 H84 0.929 . S
N47 Li2 1.991 . S
N47 C44 1.314 . S
N47 C45 1.279 1_655 S
C48 C45 1.358 . S
C48 C49 1.357 . S
C48 H85 0.930 . S
C49 C46 1.346 1_455 S
C49 C48 1.357 . S
H50 C44 0.930 . S
H51 C45 0.930 . S
C52 N53 1.314 . S
C52 C54 1.353 . S
C52 H58 0.930 . S
N53 Li3 1.990 . S
N53 C52 1.314 . S
N53 C56 1.279 . S
C54 C52 1.353 . S
C54 C57 1.348 . S
C54 H86 0.929 . S
C55 C56 1.358 . S
C55 C57 1.356 . S
C55 H87 0.930 . S
C56 N53 1.279 . S
C56 C55 1.358 . S
C56 H59 0.930 . S
C57 C54 1.348 . S
C57 C55 1.356 . S
H58 C52 0.930 . S
H59 C56 0.930 . S
O60 Li0 1.956 . S
O60 Li1 1.955 1_655 S
O60 Li2 1.967 . S
O60 C4 1.325 . S
O61 Li0 1.972 . S
O61 Li1 1.956 1_655 S
O61 Li3 1.959 1_655 S
O61 C10 1.325 1_655 S
O62 Li0 1.950 1_455 S
O62 Li2 1.956 1_455 S
O62 Li3 1.981 . S
O62 C32 1.325 . S
O63 Li1 1.976 . S
O63 Li2 1.964 1_455 S
O63 Li3 1.956 . S
O63 C38 1.325 . S
H64 C6 0.929 . S
H65 C7 0.930 . S
H66 C8 0.930 . S
H67 C9 0.930 . S
H68 C11 0.930 . S
H69 C13 0.929 . S
H70 C14 0.930 . S
H71 C15 0.930 . S
H72 C18 0.930 . S
H73 C21 0.929 . S
H74 C26 0.929 . S
H75 C27 0.930 . S
H76 C34 0.929 . S
H77 C35 0.930 . S
H78 C36 0.930 . S
H79 C37 0.930 . S
H80 C39 0.929 . S
H81 C40 0.930 . S
H82 C41 0.930 . S
H83 C42 0.930 . S
H84 C46 0.929 . S
H85 C48 0.930 . S
H86 C54 0.929 . S
H87 C55 0.930 . S
Li88 N105 1.991 . S
Li88 O148 1.956 1_545 S
Li88 O149 1.955 1_545 S
Li88 O150 1.976 . S
Li89 N113 1.990 . S
Li89 O148 1.972 . S
Li89 O149 1.956 . S
Li89 O151 1.950 1_565 S
Li90 N135 1.990 . S
Li90 O148 1.959 1_545 S
Li90 O150 1.956 . S
Li90 O151 1.981 . S
Li91 N141 1.991 . S
Li91 O149 1.967 . S
Li91 O150 1.964 1_565 S
Li91 O151 1.956 1_565 S
C92 C94 1.345 1_545 S
C92 C95 1.359 . S
C92 O148 1.325 1_545 S
N93 C96 1.314 1_545 S
N93 C97 1.279 . S
C94 C92 1.345 1_565 S
C94 C96 1.353 . S
C94 H152 0.929 . S
C95 C92 1.359 . S
C95 C97 1.358 . S
C95 H153 0.930 . S
C96 N93 1.314 1_565 S
C96 C94 1.353 . S
C96 H154 0.930 . S
C97 N93 1.279 . S
C97 C95 1.358 . S
C97 H155 0.930 . S
C98 C101 1.348 . S
C98 C102 1.356 . S
C98 O149 1.325 . S
C99 N100 1.279 . S
C99 C102 1.358 . S
C99 H156 0.930 . S
N100 C99 1.279 . S
N100 C103 1.314 . S
C101 C98 1.348 . S
C101 C103 1.353 . S
C101 H157 0.929 . S
C102 C98 1.356 . S
C102 C99 1.358 . S
C102 H158 0.930 . S
C103 N100 1.314 . S
C103 C101 1.353 . S
C103 H159 0.930 . S
C104 N105 1.314 . S
C104 C109 1.353 . S
C104 H110 0.930 . S
N105 Li88 1.991 . S
N105 C104 1.314 . S
N105 C107 1.279 1_545 S
C106 C107 1.358 . S
C106 C108 1.357 1_565 S
C106 H160 0.930 . S
C107 N105 1.279 1_565 S
C107 C106 1.358 . S
C107 H111 0.930 . S
C108 C106 1.357 1_545 S
C108 C109 1.346 . S
C109 C104 1.353 . S
C109 C108 1.346 . S
C109 H161 0.929 . S
H110 C104 0.930 . S
H111 C107 0.930 . S
C112 N113 1.314 . S
C112 C114 1.353 . S
C112 H118 0.930 . S
N113 Li89 1.990 . S
N113 C112 1.314 . S
N113 C116 1.279 . S
C114 C112 1.353 . S
C114 C117 1.348 . S
C114 H162 0.929 . S
C115 C116 1.358 . S
C115 C117 1.356 . S
C115 H163 0.930 . S
C116 N113 1.279 . S
C116 C115 1.358 . S
C116 H119 0.930 . S
C117 C114 1.348 . S
C117 C115 1.356 . S
H118 C112 0.930 . S
H119 C116 0.930 . S
C120 C122 1.348 . S
C120 C123 1.356 . S
C120 O150 1.325 . S
N121 C124 1.314 . S
N121 C125 1.279 . S
C122 C120 1.348 . S
C122 C124 1.353 . S
C122 H164 0.929 . S
C123 C120 1.356 . S
C123 C125 1.358 . S
C123 H165 0.930 . S
C124 N121 1.314 . S
C124 C122 1.353 . S
C124 H166 0.930 . S
C125 N121 1.279 . S
C125 C123 1.358 . S
C125 H167 0.930 . S
C126 C127 1.345 . S
C126 C128 1.359 1_545 S
C126 O151 1.325 . S
C127 C126 1.345 . S
C127 C129 1.353 . S
C127 H168 0.929 . S
C128 C126 1.359 1_565 S
C128 C130 1.358 . S
C128 H169 0.930 . S
C129 C127 1.353 . S
C129 N131 1.277 1_545 S
C129 H170 0.930 . S
C130 C128 1.358 . S
C130 N131 1.316 . S
C130 H171 0.930 . S
N131 C129 1.277 1_565 S
N131 C130 1.316 . S
C132 C134 1.353 . S
C132 N135 1.314 . S
C132 H138 0.930 . S
C133 N135 1.279 . S
C133 C136 1.358 . S
C133 H139 0.930 . S
C134 C132 1.353 . S
C134 C137 1.348 . S
C134 H172 0.929 . S
N135 Li90 1.990 . S
N135 C132 1.314 . S
N135 C133 1.279 . S
C136 C133 1.358 . S
C136 C137 1.356 . S
C136 H173 0.930 . S
C137 C134 1.348 . S
C137 C136 1.356 . S
H138 C132 0.930 . S
H139 C133 0.930 . S
C140 N141 1.314 . S
C140 C142 1.353 . S
C140 H146 0.930 . S
N141 Li91 1.991 . S
N141 C140 1.314 . S
N141 C144 1.279 1_565 S
C142 C140 1.353 . S
C142 C145 1.346 1_565 S
C142 H174 0.929 . S
C143 C144 1.358 . S
C143 C145 1.357 . S
C143 H175 0.930 . S
C144 N141 1.279 1_545 S
C144 C143 1.358 . S
C144 H147 0.930 . S
C145 C142 1.346 1_545 S
C145 C143 1.357 . S
H146 C140 0.930 . S
H147 C144 0.930 . S
O148 Li88 1.956 1_565 S
O148 Li89 1.972 . S
O148 Li90 1.959 1_565 S
O148 C92 1.325 1_565 S
O149 Li88 1.955 1_565 S
O149 Li89 1.956 . S
O149 Li91 1.967 . S
O149 C98 1.325 . S
O150 Li88 1.976 . S
O150 Li90 1.956 . S
O150 Li91 1.964 1_545 S
O150 C120 1.325 . S
O151 Li89 1.950 1_545 S
O151 Li90 1.981 . S
O151 Li91 1.956 1_545 S
O151 C126 1.325 . S
H152 C94 0.929 . S
H153 C95 0.930 . S
H154 C96 0.930 . S
H155 C97 0.930 . S
H156 C99 0.930 . S
H157 C101 0.929 . S
H158 C102 0.930 . S
H159 C103 0.930 . S
H160 C106 0.930 . S
H161 C109 0.929 . S
H162 C114 0.929 . S
H163 C115 0.930 . S
H164 C122 0.929 . S
H165 C123 0.930 . S
H166 C124 0.930 . S
H167 C125 0.930 . S
H168 C127 0.929 . S
H169 C128 0.930 . S
H170 C129 0.930 . S
H171 C130 0.930 . S
H172 C134 0.929 . S
H173 C136 0.930 . S
H174 C142 0.929 . S
H175 C143 0.930 . S
Li176 N193 1.990 . S
Li176 O236 1.956 . S
Li176 O237 1.981 . S
Li176 O238 1.959 1_455 S
Li177 N201 1.991 . S
Li177 O236 1.964 1_655 S
Li177 O237 1.956 1_655 S
Li177 O239 1.967 . S
Li178 N223 1.991 . S
Li178 O236 1.976 . S
Li178 O238 1.956 1_455 S
Li178 O239 1.955 1_455 S
Li179 N229 1.990 . S
Li179 O237 1.950 1_655 S
Li179 O238 1.972 . S
Li179 O239 1.956 . S
C180 C182 1.348 . S
C180 C183 1.356 . S
C180 O236 1.325 . S
N181 C184 1.314 . S
N181 C185 1.279 . S
C182 C180 1.348 . S
C182 C184 1.353 . S
C182 H240 0.929 . S
C183 C180 1.356 . S
C183 C185 1.358 . S
C183 H241 0.930 . S
C184 N181 1.314 . S
C184 C182 1.353 . S
C184 H242 0.930 . S
C185 N181 1.279 . S
C185 C183 1.358 . S
C185 H243 0.930 . S
C186 C189 1.345 . S
C186 C190 1.359 1_455 S
C186 O237 1.325 . S
C187 N188 1.316 . S
C187 C190 1.358 . S
C187 H244 0.930 . S
N188 C187 1.316 . S
N188 C191 1.277 1_655 S
C189 C186 1.345 . S
C189 C191 1.353 . S
C189 H245 0.929 . S
C190 C186 1.359 1_655 S
C190 C187 1.358 . S
C190 H246 0.930 . S
C191 N188 1.277 1_455 S
C191 C189 1.353 . S
C191 H247 0.930 . S
C192 N193 1.314 . S
C192 C197 1.353 . S
C192 H198 0.930 . S
N193 Li176 1.990 . S
N193 C192 1.314 . S
N193 C195 1.279 . S
C194 C195 1.358 . S
C194 C196 1.356 . S
C194 H248 0.930 . S
C195 N193 1.279 . S
C195 C194 1.358 . S
C195 H199 0.930 . S
C196 C194 1.356 . S
C196 C197 1.348 . S
C197 C192 1.353 . S
C197 C196 1.348 . S
C197 H249 0.929 . S
H198 C192 0.930 . S
H199 C195 0.930 . S
C200 N201 1.314 . S
C200 C202 1.353 . S
C200 H206 0.930 . S
N201 Li177 1.991 . S
N201 C200 1.314 . S
N201 C204 1.279 1_655 S
C202 C200 1.353 . S
C202 C205 1.346 1_655 S
C202 H250 0.929 . S
C203 C204 1.358 . S
C203 C205 1.357 . S
C203 H251 0.930 . S
C204 N201 1.279 1_455 S
C204 C203 1.358 . S
C204 H207 0.930 . S
C205 C202 1.346 1_455 S
C205 C203 1.357 . S
H206 C200 0.930 . S
H207 C204 0.930 . S
C208 C210 1.345 1_455 S
C208 C211 1.359 . S
C208 O238 1.325 1_455 S
N209 C212 1.314 1_455 S
N209 C213 1.279 . S
C210 C208 1.345 1_655 S
C210 C212 1.353 . S
C210 H252 0.929 . S
C211 C208 1.359 . S
C211 C213 1.358 . S
C211 H253 0.930 . S
C212 N209 1.314 1_655 S
C212 C210 1.353 . S
C212 H254 0.930 . S
C213 N209 1.279 . S
C213 C211 1.358 . S
C213 H255 0.930 . S
C214 C215 1.348 . S
C214 C216 1.356 . S
C214 O239 1.325 . S
C215 C214 1.348 . S
C215 C217 1.353 . S
C215 H256 0.929 . S
C216 C214 1.356 . S
C216 C218 1.358 . S
C216 H257 0.930 . S
C217 C215 1.353 . S
C217 N219 1.314 . S
C217 H258 0.930 . S
C218 C216 1.358 . S
C218 N219 1.279 . S
C218 H259 0.930 . S
N219 C217 1.314 . S
N219 C218 1.279 . S
C220 C222 1.353 . S
C220 N223 1.314 . S
C220 H226 0.930 . S
C221 N223 1.279 1_655 S
C221 C224 1.358 . S
C221 H227 0.930 . S
C222 C220 1.353 . S
C222 C225 1.346 . S
C222 H260 0.929 . S
N223 Li178 1.991 . S
N223 C220 1.314 . S
N223 C221 1.279 1_455 S
C224 C221 1.358 . S
C224 C225 1.357 1_655 S
C224 H261 0.930 . S
C225 C222 1.346 . S
C225 C224 1.357 1_455 S
H226 C220 0.930 . S
H227 C221 0.930 . S
C228 N229 1.314 . S
C228 C230 1.353 . S
C228 H234 0.930 . S
N229 Li179 1.990 . S
N229 C228 1.314 . S
N229 C232 1.279 . S
C230 C228 1.353 . S
C230 C233 1.348 . S
C230 H262 0.929 . S
C231 C232 1.358 . S
C231 C233 1.356 . S
C231 H263 0.930 . S
C232 N229 1.279 . S
C232 C231 1.358 . S
C232 H235 0.930 . S
C233 C230 1.348 . S
C233 C231 1.356 . S
H234 C228 0.930 . S
H235 C232 0.930 . S
O236 Li176 1.956 . S
O236 Li177 1.964 1_455 S
O236 Li178 1.976 . S
O236 C180 1.325 . S
O237 Li176 1.981 . S
O237 Li177 1.956 1_455 S
O237 Li179 1.950 1_455 S
O237 C186 1.325 . S
O238 Li176 1.959 1_655 S
O238 Li178 1.956 1_655 S
O238 Li179 1.972 . S
O238 C208 1.325 1_655 S
O239 Li177 1.967 . S
O239 Li178 1.955 1_655 S
O239 Li179 1.956 . S
O239 C214 1.325 . S
H240 C182 0.929 . S
H241 C183 0.930 . S
H242 C184 0.930 . S
H243 C185 0.930 . S
H244 C187 0.930 . S
H245 C189 0.929 . S
H246 C190 0.930 . S
H247 C191 0.930 . S
H248 C194 0.930 . S
H249 C197 0.929 . S
H250 C202 0.929 . S
H251 C203 0.930 . S
H252 C210 0.929 . S
H253 C211 0.930 . S
H254 C212 0.930 . S
H255 C213 0.930 . S
H256 C215 0.929 . S
H257 C216 0.930 . S
H258 C217 0.930 . S
H259 C218 0.930 . S
H260 C222 0.929 . S
H261 C224 0.930 . S
H262 C230 0.929 . S
H263 C231 0.930 . S
Li264 N281 1.990 . S
Li264 O324 1.956 . S
Li264 O325 1.981 . S
Li264 O326 1.959 1_545 S
Li265 N289 1.991 . S
Li265 O324 1.964 1_565 S
Li265 O325 1.956 1_565 S
Li265 O327 1.967 . S
Li266 N311 1.991 . S
Li266 O324 1.976 . S
Li266 O326 1.956 1_545 S
Li266 O327 1.955 1_545 S
Li267 N317 1.990 . S
Li267 O325 1.950 1_565 S
Li267 O326 1.972 . S
Li267 O327 1.956 . S
C268 C270 1.348 . S
C268 C271 1.356 . S
C268 O324 1.325 . S
N269 C272 1.314 . S
N269 C273 1.279 . S
C270 C268 1.348 . S
C270 C272 1.353 . S
C270 H328 0.929 . S
C271 C268 1.356 . S
C271 C273 1.358 . S
C271 H329 0.930 . S
C272 N269 1.314 . S
C272 C270 1.353 . S
C272 H330 0.930 . S
C273 N269 1.279 . S
C273 C271 1.358 . S
C273 H331 0.930 . S
C274 C277 1.345 . S
C274 C278 1.359 1_545 S
C274 O325 1.325 . S
C275 N276 1.316 . S
C275 C278 1.358 . S
C275 H332 0.930 . S
N276 C275 1.316 . S
N276 C279 1.277 1_565 S
C277 C274 1.345 . S
C277 C279 1.353 . S
C277 H333 0.929 . S
C278 C274 1.359 1_565 S
C278 C275 1.358 . S
C278 H334 0.930 . S
C279 N276 1.277 1_545 S
C279 C277 1.353 . S
C279 H335 0.930 . S
C280 N281 1.314 . S
C280 C285 1.353 . S
C280 H286 0.930 . S
N281 Li264 1.990 . S
N281 C280 1.314 . S
N281 C283 1.279 . S
C282 C283 1.358 . S
C282 C284 1.356 . S
C282 H336 0.930 . S
C283 N281 1.279 . S
C283 C282 1.358 . S
C283 H287 0.930 . S
C284 C282 1.356 . S
C284 C285 1.348 . S
C285 C280 1.353 . S
C285 C284 1.348 . S
C285 H337 0.929 . S
H286 C280 0.930 . S
H287 C283 0.930 . S
C288 N289 1.314 . S
C288 C290 1.353 . S
C288 H294 0.930 . S
N289 Li265 1.991 . S
N289 C288 1.314 . S
N289 C292 1.279 1_565 S
C290 C288 1.353 . S
C290 C293 1.346 1_565 S
C290 H338 0.929 . S
C291 C292 1.358 . S
C291 C293 1.357 . S
C291 H339 0.930 . S
C292 N289 1.279 1_545 S
C292 C291 1.358 . S
C292 H295 0.930 . S
C293 C290 1.346 1_545 S
C293 C291 1.357 . S
H294 C288 0.930 . S
H295 C292 0.930 . S
C296 C298 1.345 1_545 S
C296 C299 1.359 . S
C296 O326 1.325 1_545 S
N297 C300 1.314 1_545 S
N297 C301 1.279 . S
C298 C296 1.345 1_565 S
C298 C300 1.353 . S
C298 H340 0.929 . S
C299 C296 1.359 . S
C299 C301 1.358 . S
C299 H341 0.930 . S
C300 N297 1.314 1_565 S
C300 C298 1.353 . S
C300 H342 0.930 . S
C301 N297 1.279 . S
C301 C299 1.358 . S
C301 H343 0.930 . S
C302 C303 1.348 . S
C302 C304 1.356 . S
C302 O327 1.325 . S
C303 C302 1.348 . S
C303 C305 1.353 . S
C303 H344 0.929 . S
C304 C302 1.356 . S
C304 C306 1.358 . S
C304 H345 0.930 . S
C305 C303 1.353 . S
C305 N307 1.314 . S
C305 H346 0.930 . S
C306 C304 1.358 . S
C306 N307 1.279 . S
C306 H347 0.930 . S
N307 C305 1.314 . S
N307 C306 1.279 . S
C308 C310 1.353 . S
C308 N311 1.314 . S
C308 H314 0.930 . S
C309 N311 1.279 1_565 S
C309 C312 1.358 . S
C309 H315 0.930 . S
C310 C308 1.353 . S
C310 C313 1.346 . S
C310 H348 0.929 . S
N311 Li266 1.991 . S
N311 C308 1.314 . S
N311 C309 1.279 1_545 S
C312 C309 1.358 . S
C312 C313 1.357 1_565 S
C312 H349 0.930 . S
C313 C310 1.346 . S
C313 C312 1.357 1_545 S
H314 C308 0.930 . S
H315 C309 0.930 . S
C316 N317 1.314 . S
C316 C318 1.353 . S
C316 H322 0.930 . S
N317 Li267 1.990 . S
N317 C316 1.314 . S
N317 C320 1.279 . S
C318 C316 1.353 . S
C318 C321 1.348 . S
C318 H350 0.929 . S
C319 C320 1.358 . S
C319 C321 1.356 . S
C319 H351 0.930 . S
C320 N317 1.279 . S
C320 C319 1.358 . S
C320 H323 0.930 . S
C321 C318 1.348 . S
C321 C319 1.356 . S
H322 C316 0.930 . S
H323 C320 0.930 . S
O324 Li264 1.956 . S
O324 Li265 1.964 1_545 S
O324 Li266 1.976 . S
O324 C268 1.325 . S
O325 Li264 1.981 . S
O325 Li265 1.956 1_545 S
O325 Li267 1.950 1_545 S
O325 C274 1.325 . S
O326 Li264 1.959 1_565 S
O326 Li266 1.956 1_565 S
O326 Li267 1.972 . S
O326 C296 1.325 1_565 S
O327 Li265 1.967 . S
O327 Li266 1.955 1_565 S
O327 Li267 1.956 . S
O327 C302 1.325 . S
H328 C270 0.929 . S
H329 C271 0.930 . S
H330 C272 0.930 . S
H331 C273 0.930 . S
H332 C275 0.930 . S
H333 C277 0.929 . S
H334 C278 0.930 . S
H335 C279 0.930 . S
H336 C282 0.930 . S
H337 C285 0.929 . S
H338 C290 0.929 . S
H339 C291 0.930 . S
H340 C298 0.929 . S
H341 C299 0.930 . S
H342 C300 0.930 . S
H343 C301 0.930 . S
H344 C303 0.929 . S
H345 C304 0.930 . S
H346 C305 0.930 . S
H347 C306 0.930 . S
H348 C310 0.929 . S
H349 C312 0.930 . S
H350 C318 0.929 . S
H351 C319 0.930 . S
Li352 N369 1.990 . S
Li352 O412 1.956 . S
Li352 O413 1.981 . S
Li352 O414 1.959 1_545 S
Li353 N377 1.991 . S
Li353 O412 1.964 1_565 S
Li353 O413 1.956 1_565 S
Li353 O415 1.967 . S
Li354 N399 1.991 . S
Li354 O412 1.976 . S
Li354 O414 1.956 1_545 S
Li354 O415 1.955 1_545 S
Li355 N405 1.990 . S
Li355 O413 1.950 1_565 S
Li355 O414 1.972 . S
Li355 O415 1.956 . S
C356 C358 1.348 . S
C356 C359 1.356 . S
C356 O412 1.325 . S
N357 C360 1.314 . S
N357 C361 1.279 . S
C358 C356 1.348 . S
C358 C360 1.353 . S
C358 H416 0.929 . S
C359 C356 1.356 . S
C359 C361 1.358 . S
C359 H417 0.930 . S
C360 N357 1.314 . S
C360 C358 1.353 . S
C360 H418 0.930 . S
C361 N357 1.279 . S
C361 C359 1.358 . S
C361 H419 0.930 . S
C362 C365 1.345 . S
C362 C366 1.359 1_545 S
C362 O413 1.325 . S
C363 N364 1.316 . S
C363 C366 1.358 . S
C363 H420 0.930 . S
N364 C363 1.316 . S
N364 C367 1.277 1_565 S
C365 C362 1.345 . S
C365 C367 1.353 . S
C365 H421 0.929 . S
C366 C362 1.359 1_565 S
C366 C363 1.358 . S
C366 H422 0.930 . S
C367 N364 1.277 1_545 S
C367 C365 1.353 . S
C367 H423 0.930 . S
C368 N369 1.314 . S
C368 C373 1.353 . S
C368 H374 0.930 . S
N369 Li352 1.990 . S
N369 C368 1.314 . S
N369 C371 1.279 . S
C370 C371 1.358 . S
C370 C372 1.356 . S
C370 H424 0.930 . S
C371 N369 1.279 . S
C371 C370 1.358 . S
C371 H375 0.930 . S
C372 C370 1.356 . S
C372 C373 1.348 . S
C373 C368 1.353 . S
C373 C372 1.348 . S
C373 H425 0.929 . S
H374 C368 0.930 . S
H375 C371 0.930 . S
C376 N377 1.314 . S
C376 C378 1.353 . S
C376 H382 0.930 . S
N377 Li353 1.991 . S
N377 C376 1.314 . S
N377 C380 1.279 1_565 S
C378 C376 1.353 . S
C378 C381 1.346 1_565 S
C378 H426 0.929 . S
C379 C380 1.358 . S
C379 C381 1.357 . S
C379 H427 0.930 . S
C380 N377 1.279 1_545 S
C380 C379 1.358 . S
C380 H383 0.930 . S
C381 C378 1.346 1_545 S
C381 C379 1.357 . S
H382 C376 0.930 . S
H383 C380 0.930 . S
C384 C386 1.345 1_545 S
C384 C387 1.359 . S
C384 O414 1.325 1_545 S
N385 C388 1.314 1_545 S
N385 C389 1.279 . S
C386 C384 1.345 1_565 S
C386 C388 1.353 . S
C386 H428 0.929 . S
C387 C384 1.359 . S
C387 C389 1.358 . S
C387 H429 0.930 . S
C388 N385 1.314 1_565 S
C388 C386 1.353 . S
C388 H430 0.930 . S
C389 N385 1.279 . S
C389 C387 1.358 . S
C389 H431 0.930 . S
C390 C391 1.348 . S
C390 C392 1.356 . S
C390 O415 1.325 . S
C391 C390 1.348 . S
C391 C393 1.353 . S
C391 H432 0.929 . S
C392 C390 1.356 . S
C392 C394 1.358 . S
C392 H433 0.930 . S
C393 C391 1.353 . S
C393 N395 1.314 . S
C393 H434 0.930 . S
C394 C392 1.358 . S
C394 N395 1.279 . S
C394 H435 0.930 . S
N395 C393 1.314 . S
N395 C394 1.279 . S
C396 C398 1.353 . S
C396 N399 1.314 . S
C396 H402 0.930 . S
C397 N399 1.279 1_565 S
C397 C400 1.358 . S
C397 H403 0.930 . S
C398 C396 1.353 . S
C398 C401 1.346 . S
C398 H436 0.929 . S
N399 Li354 1.991 . S
N399 C396 1.314 . S
N399 C397 1.279 1_545 S
C400 C397 1.358 . S
C400 C401 1.357 1_565 S
C400 H437 0.930 . S
C401 C398 1.346 . S
C401 C400 1.357 1_545 S
H402 C396 0.930 . S
H403 C397 0.930 . S
C404 N405 1.314 . S
C404 C406 1.353 . S
C404 H410 0.930 . S
N405 Li355 1.990 . S
N405 C404 1.314 . S
N405 C408 1.279 . S
C406 C404 1.353 . S
C406 C409 1.348 . S
C406 H438 0.929 . S
C407 C408 1.358 . S
C407 C409 1.356 . S
C407 H439 0.930 . S
C408 N405 1.279 . S
C408 C407 1.358 . S
C408 H411 0.930 . S
C409 C406 1.348 . S
C409 C407 1.356 . S
H410 C404 0.930 . S
H411 C408 0.930 . S
O412 Li352 1.956 . S
O412 Li353 1.964 1_545 S
O412 Li354 1.976 . S
O412 C356 1.325 . S
O413 Li352 1.981 . S
O413 Li353 1.956 1_545 S
O413 Li355 1.950 1_545 S
O413 C362 1.325 . S
O414 Li352 1.959 1_565 S
O414 Li354 1.956 1_565 S
O414 Li355 1.972 . S
O414 C384 1.325 1_565 S
O415 Li353 1.967 . S
O415 Li354 1.955 1_565 S
O415 Li355 1.956 . S
O415 C390 1.325 . S
H416 C358 0.929 . S
H417 C359 0.930 . S
H418 C360 0.930 . S
H419 C361 0.930 . S
H420 C363 0.930 . S
H421 C365 0.929 . S
H422 C366 0.930 . S
H423 C367 0.930 . S
H424 C370 0.930 . S
H425 C373 0.929 . S
H426 C378 0.929 . S
H427 C379 0.930 . S
H428 C386 0.929 . S
H429 C387 0.930 . S
H430 C388 0.930 . S
H431 C389 0.930 . S
H432 C391 0.929 . S
H433 C392 0.930 . S
H434 C393 0.930 . S
H435 C394 0.930 . S
H436 C398 0.929 . S
H437 C400 0.930 . S
H438 C406 0.929 . S
H439 C407 0.930 . S
Li440 N457 1.990 . S
Li440 O500 1.956 . S
Li440 O501 1.972 . S
Li440 O502 1.950 1_655 S
Li441 N465 1.991 . S
Li441 O500 1.955 1_455 S
Li441 O501 1.956 1_455 S
Li441 O503 1.976 . S
Li442 N487 1.991 . S
Li442 O500 1.967 . S
Li442 O502 1.956 1_655 S
Li442 O503 1.964 1_655 S
Li443 N493 1.990 . S
Li443 O501 1.959 1_455 S
Li443 O502 1.981 . S
Li443 O503 1.956 . S
C444 C446 1.348 . S
C444 C447 1.356 . S
C444 O500 1.325 . S
N445 C448 1.314 . S
N445 C449 1.279 . S
C446 C444 1.348 . S
C446 C448 1.353 . S
C446 H504 0.929 . S
C447 C444 1.356 . S
C447 C449 1.358 . S
C447 H505 0.930 . S
C448 N445 1.314 . S
C448 C446 1.353 . S
C448 H506 0.930 . S
C449 N445 1.279 . S
C449 C447 1.358 . S
C449 H507 0.930 . S
C450 C453 1.345 1_455 S
C450 C454 1.359 . S
C450 O501 1.325 1_455 S
C451 N452 1.279 . S
C451 C454 1.358 . S
C451 H508 0.930 . S
N452 C451 1.279 . S
N452 C455 1.314 1_455 S
C453 C450 1.345 1_655 S
C453 C455 1.353 . S
C453 H509 0.929 . S
C454 C450 1.359 . S
C454 C451 1.358 . S
C454 H510 0.930 . S
C455 N452 1.314 1_655 S
C455 C453 1.353 . S
C455 H511 0.930 . S
C456 N457 1.314 . S
C456 C461 1.353 . S
C456 H462 0.930 . S
N457 Li440 1.990 . S
N457 C456 1.314 . S
N457 C459 1.279 . S
C458 C459 1.358 . S
C458 C460 1.356 . S
C458 H512 0.930 . S
C459 N457 1.279 . S
C459 C458 1.358 . S
C459 H463 0.930 . S
C460 C458 1.356 . S
C460 C461 1.348 . S
C461 C456 1.353 . S
C461 C460 1.348 . S
C461 H513 0.929 . S
H462 C456 0.930 . S
H463 C459 0.930 . S
C464 N465 1.314 . S
C464 C466 1.353 . S
C464 H470 0.930 . S
N465 Li441 1.991 . S
N465 C464 1.314 . S
N465 C468 1.279 1_455 S
C466 C464 1.353 . S
C466 C469 1.346 . S
C466 H514 0.929 . S
C467 C468 1.358 . S
C467 C469 1.357 1_655 S
C467 H515 0.930 . S
C468 N465 1.279 1_655 S
C468 C467 1.358 . S
C468 H471 0.930 . S
C469 C466 1.346 . S
C469 C467 1.357 1_455 S
H470 C464 0.930 . S
H471 C468 0.930 . S
C472 C474 1.345 . S
C472 C475 1.359 1_455 S
C472 O502 1.325 . S
N473 C476 1.277 1_655 S
N473 C477 1.316 . S
C474 C472 1.345 . S
C474 C476 1.353 . S
C474 H516 0.929 . S
C475 C472 1.359 1_655 S
C475 C477 1.358 . S
C475 H517 0.930 . S
C476 N473 1.277 1_455 S
C476 C474 1.353 . S
C476 H518 0.930 . S
C477 N473 1.316 . S
C477 C475 1.358 . S
C477 H519 0.930 . S
C478 C479 1.348 . S
C478 C480 1.356 . S
C478 O503 1.325 . S
C479 C478 1.348 . S
C479 C481 1.353 . S
C479 H520 0.929 . S
C480 C478 1.356 . S
C480 C482 1.358 . S
C480 H521 0.930 . S
C481 C479 1.353 . S
C481 N483 1.314 . S
C481 H522 0.930 . S
C482 C480 1.358 . S
C482 N483 1.279 . S
C482 H523 0.930 . S
N483 C481 1.314 . S
N483 C482 1.279 . S
C484 C486 1.353 . S
C484 N487 1.314 . S
C484 H490 0.930 . S
C485 N487 1.279 1_455 S
C485 C488 1.358 . S
C485 H491 0.930 . S
C486 C484 1.353 . S
C486 C489 1.346 1_655 S
C486 H524 0.929 . S
N487 Li442 1.991 . S
N487 C484 1.314 . S
N487 C485 1.279 1_655 S
C488 C485 1.358 . S
C488 C489 1.357 . S
C488 H525 0.930 . S
C489 C486 1.346 1_455 S
C489 C488 1.357 . S
H490 C484 0.930 . S
H491 C485 0.930 . S
C492 N493 1.314 . S
C492 C494 1.353 . S
C492 H498 0.930 . S
N493 Li443 1.990 . S
N493 C492 1.314 . S
N493 C496 1.279 . S
C494 C492 1.353 . S
C494 C497 1.348 . S
C494 H526 0.929 . S
C495 C496 1.358 . S
C495 C497 1.356 . S
C495 H527 0.930 . S
C496 N493 1.279 . S
C496 C495 1.358 . S
C496 H499 0.930 . S
C497 C494 1.348 . S
C497 C495 1.356 . S
H498 C492 0.930 . S
H499 C496 0.930 . S
O500 Li440 1.956 . S
O500 Li441 1.955 1_655 S
O500 Li442 1.967 . S
O500 C444 1.325 . S
O501 Li440 1.972 . S
O501 Li441 1.956 1_655 S
O501 Li443 1.959 1_655 S
O501 C450 1.325 1_655 S
O502 Li440 1.950 1_455 S
O502 Li442 1.956 1_455 S
O502 Li443 1.981 . S
O502 C472 1.325 . S
O503 Li441 1.976 . S
O503 Li442 1.964 1_455 S
O503 Li443 1.956 . S
O503 C478 1.325 . S
H504 C446 0.929 . S
H505 C447 0.930 . S
H506 C448 0.930 . S
H507 C449 0.930 . S
H508 C451 0.930 . S
H509 C453 0.929 . S
H510 C454 0.930 . S
H511 C455 0.930 . S
H512 C458 0.930 . S
H513 C461 0.929 . S
H514 C466 0.929 . S
H515 C467 0.930 . S
H516 C474 0.929 . S
H517 C475 0.930 . S
H518 C476 0.930 . S
H519 C477 0.930 . S
H520 C479 0.929 . S
H521 C480 0.930 . S
H522 C481 0.930 . S
H523 C482 0.930 . S
H524 C486 0.929 . S
H525 C488 0.930 . S
H526 C494 0.929 . S
H527 C495 0.930 . S
Li528 N545 1.991 . S
Li528 O588 1.956 1_545 S
Li528 O589 1.955 1_545 S
Li528 O590 1.976 . S
Li529 N553 1.990 . S
Li529 O588 1.972 . S
Li529 O589 1.956 . S
Li529 O591 1.950 1_565 S
Li530 N575 1.990 . S
Li530 O588 1.959 1_545 S
Li530 O590 1.956 . S
Li530 O591 1.981 . S
Li531 N581 1.991 . S
Li531 O589 1.967 . S
Li531 O590 1.964 1_565 S
Li531 O591 1.956 1_565 S
C532 C534 1.345 1_545 S
C532 C535 1.359 . S
C532 O588 1.325 1_545 S
N533 C536 1.314 1_545 S
N533 C537 1.279 . S
C534 C532 1.345 1_565 S
C534 C536 1.353 . S
C534 H592 0.929 . S
C535 C532 1.359 . S
C535 C537 1.358 . S
C535 H593 0.930 . S
C536 N533 1.314 1_565 S
C536 C534 1.353 . S
C536 H594 0.930 . S
C537 N533 1.279 . S
C537 C535 1.358 . S
C537 H595 0.930 . S
C538 C541 1.348 . S
C538 C542 1.356 . S
C538 O589 1.325 . S
C539 N540 1.279 . S
C539 C542 1.358 . S
C539 H596 0.930 . S
N540 C539 1.279 . S
N540 C543 1.314 . S
C541 C538 1.348 . S
C541 C543 1.353 . S
C541 H597 0.929 . S
C542 C538 1.356 . S
C542 C539 1.358 . S
C542 H598 0.930 . S
C543 N540 1.314 . S
C543 C541 1.353 . S
C543 H599 0.930 . S
C544 N545 1.314 . S
C544 C549 1.353 . S
C544 H550 0.930 . S
N545 Li528 1.991 . S
N545 C544 1.314 . S
N545 C547 1.279 1_545 S
C546 C547 1.358 . S
C546 C548 1.357 1_565 S
C546 H600 0.930 . S
C547 N545 1.279 1_565 S
C547 C546 1.358 . S
C547 H551 0.930 . S
C548 C546 1.357 1_545 S
C548 C549 1.346 . S
C549 C544 1.353 . S
C549 C548 1.346 . S
C549 H601 0.929 . S
H550 C544 0.930 . S
H551 C547 0.930 . S
C552 N553 1.314 . S
C552 C554 1.353 . S
C552 H558 0.930 . S
N553 Li529 1.990 . S
N553 C552 1.314 . S
N553 C556 1.279 . S
C554 C552 1.353 . S
C554 C557 1.348 . S
C554 H602 0.929 . S
C555 C556 1.358 . S
C555 C557 1.356 . S
C555 H603 0.930 . S
C556 N553 1.279 . S
C556 C555 1.358 . S
C556 H559 0.930 . S
C557 C554 1.348 . S
C557 C555 1.356 . S
H558 C552 0.930 . S
H559 C556 0.930 . S
C560 C562 1.348 . S
C560 C563 1.356 . S
C560 O590 1.325 . S
N561 C564 1.314 . S
N561 C565 1.279 . S
C562 C560 1.348 . S
C562 C564 1.353 . S
C562 H604 0.929 . S
C563 C560 1.356 . S
C563 C565 1.358 . S
C563 H605 0.930 . S
C564 N561 1.314 . S
C564 C562 1.353 . S
C564 H606 0.930 . S
C565 N561 1.279 . S
C565 C563 1.358 . S
C565 H607 0.930 . S
C566 C567 1.345 . S
C566 C568 1.359 1_545 S
C566 O591 1.325 . S
C567 C566 1.345 . S
C567 C569 1.353 . S
C567 H608 0.929 . S
C568 C566 1.359 1_565 S
C568 C570 1.358 . S
C568 H609 0.930 . S
C569 C567 1.353 . S
C569 N571 1.277 1_545 S
C569 H610 0.930 . S
C570 C568 1.358 . S
C570 N571 1.316 . S
C570 H611 0.930 . S
N571 C569 1.277 1_565 S
N571 C570 1.316 . S
C572 C574 1.353 . S
C572 N575 1.314 . S
C572 H578 0.930 . S
C573 N575 1.279 . S
C573 C576 1.358 . S
C573 H579 0.930 . S
C574 C572 1.353 . S
C574 C577 1.348 . S
C574 H612 0.929 . S
N575 Li530 1.990 . S
N575 C572 1.314 . S
N575 C573 1.279 . S
C576 C573 1.358 . S
C576 C577 1.356 . S
C576 H613 0.930 . S
C577 C574 1.348 . S
C577 C576 1.356 . S
H578 C572 0.930 . S
H579 C573 0.930 . S
C580 N581 1.314 . S
C580 C582 1.353 . S
C580 H586 0.930 . S
N581 Li531 1.991 . S
N581 C580 1.314 . S
N581 C584 1.279 1_565 S
C582 C580 1.353 . S
C582 C585 1.346 1_565 S
C582 H614 0.929 . S
C583 C584 1.358 . S
C583 C585 1.357 . S
C583 H615 0.930 . S
C584 N581 1.279 1_545 S
C584 C583 1.358 . S
C584 H587 0.930 . S
C585 C582 1.346 1_545 S
C585 C583 1.357 . S
H586 C580 0.930 . S
H587 C584 0.930 . S
O588 Li528 1.956 1_565 S
O588 Li529 1.972 . S
O588 Li530 1.959 1_565 S
O588 C532 1.325 1_565 S
O589 Li528 1.955 1_565 S
O589 Li529 1.956 . S
O589 Li531 1.967 . S
O589 C538 1.325 . S
O590 Li528 1.976 . S
O590 Li530 1.956 . S
O590 Li531 1.964 1_545 S
O590 C560 1.325 . S
O591 Li529 1.950 1_545 S
O591 Li530 1.981 . S
O591 Li531 1.956 1_545 S
O591 C566 1.325 . S
H592 C534 0.929 . S
H593 C535 0.930 . S
H594 C536 0.930 . S
H595 C537 0.930 . S
H596 C539 0.930 . S
H597 C541 0.929 . S
H598 C542 0.930 . S
H599 C543 0.930 . S
H600 C546 0.930 . S
H601 C549 0.929 . S
H602 C554 0.929 . S
H603 C555 0.930 . S
H604 C562 0.929 . S
H605 C563 0.930 . S
H606 C564 0.930 . S
H607 C565 0.930 . S
H608 C567 0.929 . S
H609 C568 0.930 . S
H610 C569 0.930 . S
H611 C570 0.930 . S
H612 C574 0.929 . S
H613 C576 0.930 . S
H614 C582 0.929 . S
H615 C583 0.930 . S
Li616 N633 1.991 . S
Li616 O676 1.956 1_455 S
Li616 O677 1.955 1_455 S
Li616 O678 1.976 . S
Li617 N641 1.990 . S
Li617 O676 1.972 . S
Li617 O677 1.956 . S
Li617 O679 1.950 1_655 S
Li618 N663 1.990 . S
Li618 O676 1.959 1_455 S
Li618 O678 1.956 . S
Li618 O679 1.981 . S
Li619 N669 1.991 . S
Li619 O677 1.967 . S
Li619 O678 1.964 1_655 S
Li619 O679 1.956 1_655 S
C620 C622 1.345 1_455 S
C620 C623 1.359 . S
C620 O676 1.325 1_455 S
N621 C624 1.314 1_455 S
N621 C625 1.279 . S
C622 C620 1.345 1_655 S
C622 C624 1.353 . S
C622 H680 0.929 . S
C623 C620 1.359 . S
C623 C625 1.358 . S
C623 H681 0.930 . S
C624 N621 1.314 1_655 S
C624 C622 1.353 . S
C624 H682 0.930 . S
C625 N621 1.279 . S
C625 C623 1.358 . S
C625 H683 0.930 . S
C626 C629 1.348 . S
C626 C630 1.356 . S
C626 O677 1.325 . S
C627 N628 1.279 . S
C627 C630 1.358 . S
C627 H684 0.930 . S
N628 C627 1.279 . S
N628 C631 1.314 . S
C629 C626 1.348 . S
C629 C631 1.353 . S
C629 H685 0.929 . S
C630 C626 1.356 . S
C630 C627 1.358 . S
C630 H686 0.930 . S
C631 N628 1.314 . S
C631 C629 1.353 . S
C631 H687 0.930 . S
C632 N633 1.314 . S
C632 C637 1.353 . S
C632 H638 0.930 . S
N633 Li616 1.991 . S
N633 C632 1.314 . S
N633 C635 1.279 1_455 S
C634 C635 1.358 . S
C634 C636 1.357 1_655 S
C634 H688 0.930 . S
C635 N633 1.279 1_655 S
C635 C634 1.358 . S
C635 H639 0.930 . S
C636 C634 1.357 1_455 S
C636 C637 1.346 . S
C637 C632 1.353 . S
C637 C636 1.346 . S
C637 H689 0.929 . S
H638 C632 0.930 . S
H639 C635 0.930 . S
C640 N641 1.314 . S
C640 C642 1.353 . S
C640 H646 0.930 . S
N641 Li617 1.990 . S
N641 C640 1.314 . S
N641 C644 1.279 . S
C642 C640 1.353 . S
C642 C645 1.348 . S
C642 H690 0.929 . S
C643 C644 1.358 . S
C643 C645 1.356 . S
C643 H691 0.930 . S
C644 N641 1.279 . S
C644 C643 1.358 . S
C644 H647 0.930 . S
C645 C642 1.348 . S
C645 C643 1.356 . S
H646 C640 0.930 . S
H647 C644 0.930 . S
C648 C650 1.348 . S
C648 C651 1.356 . S
C648 O678 1.325 . S
N649 C652 1.314 . S
N649 C653 1.279 . S
C650 C648 1.348 . S
C650 C652 1.353 . S
C650 H692 0.929 . S
C651 C648 1.356 . S
C651 C653 1.358 . S
C651 H693 0.930 . S
C652 N649 1.314 . S
C652 C650 1.353 . S
C652 H694 0.930 . S
C653 N649 1.279 . S
C653 C651 1.358 . S
C653 H695 0.930 . S
C654 C655 1.345 . S
C654 C656 1.359 1_455 S
C654 O679 1.325 . S
C655 C654 1.345 . S
C655 C657 1.353 . S
C655 H696 0.929 . S
C656 C654 1.359 1_655 S
C656 C658 1.358 . S
C656 H697 0.930 . S
C657 C655 1.353 . S
C657 N659 1.277 1_455 S
C657 H698 0.930 . S
C658 C656 1.358 . S
C658 N659 1.316 . S
C658 H699 0.930 . S
N659 C657 1.277 1_655 S
N659 C658 1.316 . S
C660 C662 1.353 . S
C660 N663 1.314 . S
C660 H666 0.930 . S
C661 N663 1.279 . S
C661 C664 1.358 . S
C661 H667 0.930 . S
C662 C660 1.353 . S
C662 C665 1.348 . S
C662 H700 0.929 . S
N663 Li618 1.990 . S
N663 C660 1.314 . S
N663 C661 1.279 . S
C664 C661 1.358 . S
C664 C665 1.356 . S
C664 H701 0.930 . S
C665 C662 1.348 . S
C665 C664 1.356 . S
H666 C660 0.930 . S
H667 C661 0.930 . S
C668 N669 1.314 . S
C668 C670 1.353 . S
C668 H674 0.930 . S
N669 Li619 1.991 . S
N669 C668 1.314 . S
N669 C672 1.279 1_655 S
C670 C668 1.353 . S
C670 C673 1.346 1_655 S
C670 H702 0.929 . S
C671 C672 1.358 . S
C671 C673 1.357 . S
C671 H703 0.930 . S
C672 N669 1.279 1_455 S
C672 C671 1.358 . S
C672 H675 0.930 . S
C673 C670 1.346 1_455 S
C673 C671 1.357 . S
H674 C668 0.930 . S
H675 C672 0.930 . S
O676 Li616 1.956 1_655 S
O676 Li617 1.972 . S
O676 Li618 1.959 1_655 S
O676 C620 1.325 1_655 S
O677 Li616 1.955 1_655 S
O677 Li617 1.956 . S
O677 Li619 1.967 . S
O677 C626 1.325 . S
O678 Li616 1.976 . S
O678 Li618 1.956 . S
O678 Li619 1.964 1_455 S
O678 C648 1.325 . S
O679 Li617 1.950 1_455 S
O679 Li618 1.981 . S
O679 Li619 1.956 1_455 S
O679 C654 1.325 . S
H680 C622 0.929 . S
H681 C623 0.930 . S
H682 C624 0.930 . S
H683 C625 0.930 . S
H684 C627 0.930 . S
H685 C629 0.929 . S
H686 C630 0.930 . S
H687 C631 0.930 . S
H688 C634 0.930 . S
H689 C637 0.929 . S
H690 C642 0.929 . S
H691 C643 0.930 . S
H692 C650 0.929 . S
H693 C651 0.930 . S
H694 C652 0.930 . S
H695 C653 0.930 . S
H696 C655 0.929 . S
H697 C656 0.930 . S
H698 C657 0.930 . S
H699 C658 0.930 . S
H700 C662 0.929 . S
H701 C664 0.930 . S
H702 C670 0.929 . S
H703 C671 0.930 . S
Li704 N721 1.990 . S
Li704 O764 1.956 . S
Li704 O765 1.981 . S
Li704 O766 1.959 1_554 S
Li705 N729 1.991 . S
Li705 O764 1.964 1_556 S
Li705 O765 1.956 1_556 S
Li705 O767 1.967 . S
Li706 N751 1.991 . S
Li706 O764 1.976 . S
Li706 O766 1.956 1_554 S
Li706 O767 1.955 1_554 S
Li707 N757 1.990 . S
Li707 O765 1.950 1_556 S
Li707 O766 1.972 . S
Li707 O767 1.956 . S
C708 C710 1.348 . S
C708 C711 1.356 . S
C708 O764 1.325 . S
N709 C712 1.314 . S
N709 C713 1.279 . S
C710 C708 1.348 . S
C710 C712 1.353 . S
C710 H768 0.929 . S
C711 C708 1.356 . S
C711 C713 1.358 . S
C711 H769 0.930 . S
C712 N709 1.314 . S
C712 C710 1.353 . S
C712 H770 0.930 . S
C713 N709 1.279 . S
C713 C711 1.358 . S
C713 H771 0.930 . S
C714 C717 1.345 . S
C714 C718 1.359 1_554 S
C714 O765 1.325 . S
C715 N716 1.316 . S
C715 C718 1.358 . S
C715 H772 0.930 . S
N716 C715 1.316 . S
N716 C719 1.277 1_556 S
C717 C714 1.345 . S
C717 C719 1.353 . S
C717 H773 0.929 . S
C718 C714 1.359 1_556 S
C718 C715 1.358 . S
C718 H774 0.930 . S
C719 N716 1.277 1_554 S
C719 C717 1.353 . S
C719 H775 0.930 . S
C720 N721 1.314 . S
C720 C725 1.353 . S
C720 H726 0.930 . S
N721 Li704 1.990 . S
N721 C720 1.314 . S
N721 C723 1.279 . S
C722 C723 1.358 . S
C722 C724 1.356 . S
C722 H776 0.930 . S
C723 N721 1.279 . S
C723 C722 1.358 . S
C723 H727 0.930 . S
C724 C722 1.356 . S
C724 C725 1.348 . S
C725 C720 1.353 . S
C725 C724 1.348 . S
C725 H777 0.929 . S
H726 C720 0.930 . S
H727 C723 0.930 . S
C728 N729 1.314 . S
C728 C730 1.353 . S
C728 H734 0.930 . S
N729 Li705 1.991 . S
N729 C728 1.314 . S
N729 C732 1.279 1_556 S
C730 C728 1.353 . S
C730 C733 1.346 1_556 S
C730 H778 0.929 . S
C731 C732 1.358 . S
C731 C733 1.357 . S
C731 H779 0.930 . S
C732 N729 1.279 1_554 S
C732 C731 1.358 . S
C732 H735 0.930 . S
C733 C730 1.346 1_554 S
C733 C731 1.357 . S
H734 C728 0.930 . S
H735 C732 0.930 . S
C736 C738 1.345 1_554 S
C736 C739 1.359 . S
C736 O766 1.325 1_554 S
N737 C740 1.314 1_554 S
N737 C741 1.279 . S
C738 C736 1.345 1_556 S
C738 C740 1.353 . S
C738 H780 0.929 . S
C739 C736 1.359 . S
C739 C741 1.358 . S
C739 H781 0.930 . S
C740 N737 1.314 1_556 S
C740 C738 1.353 . S
C740 H782 0.930 . S
C741 N737 1.279 . S
C741 C739 1.358 . S
C741 H783 0.930 . S
C742 C743 1.348 . S
C742 C744 1.356 . S
C742 O767 1.325 . S
C743 C742 1.348 . S
C743 C745 1.353 . S
C743 H784 0.929 . S
C744 C742 1.356 . S
C744 C746 1.358 . S
C744 H785 0.930 . S
C745 C743 1.353 . S
C745 N747 1.314 . S
C745 H786 0.930 . S
C746 C744 1.358 . S
C746 N747 1.279 . S
C746 H787 0.930 . S
N747 C745 1.314 . S
N747 C746 1.279 . S
C748 C750 1.353 . S
C748 N751 1.314 . S
C748 H754 0.930 . S
C749 N751 1.279 1_556 S
C749 C752 1.358 . S
C749 H755 0.930 . S
C750 C748 1.353 . S
C750 C753 1.346 . S
C750 H788 0.929 . S
N751 Li706 1.991 . S
N751 C748 1.314 . S
N751 C749 1.279 1_554 S
C752 C749 1.358 . S
C752 C753 1.357 1_556 S
C752 H789 0.930 . S
C753 C750 1.346 . S
C753 C752 1.357 1_554 S
H754 C748 0.930 . S
H755 C749 0.930 . S
C756 N757 1.314 . S
C756 C758 1.353 . S
C756 H762 0.930 . S
N757 Li707 1.990 . S
N757 C756 1.314 . S
N757 C760 1.279 . S
C758 C756 1.353 . S
C758 C761 1.348 . S
C758 H790 0.929 . S
C759 C760 1.358 . S
C759 C761 1.356 . S
C759 H791 0.930 . S
C760 N757 1.279 . S
C760 C759 1.358 . S
C760 H763 0.930 . S
C761 C758 1.348 . S
C761 C759 1.356 . S
H762 C756 0.930 . S
H763 C760 0.930 . S
O764 Li704 1.956 . S
O764 Li705 1.964 1_554 S
O764 Li706 1.976 . S
O764 C708 1.325 . S
O765 Li704 1.981 . S
O765 Li705 1.956 1_554 S
O765 Li707 1.950 1_554 S
O765 C714 1.325 . S
O766 Li704 1.959 1_556 S
O766 Li706 1.956 1_556 S
O766 Li707 1.972 . S
O766 C736 1.325 1_556 S
O767 Li705 1.967 . S
O767 Li706 1.955 1_556 S
O767 Li707 1.956 . S
O767 C742 1.325 . S
H768 C710 0.929 . S
H769 C711 0.930 . S
H770 C712 0.930 . S
H771 C713 0.930 . S
H772 C715 0.930 . S
H773 C717 0.929 . S
H774 C718 0.930 . S
H775 C719 0.930 . S
H776 C722 0.930 . S
H777 C725 0.929 . S
H778 C730 0.929 . S
H779 C731 0.930 . S
H780 C738 0.929 . S
H781 C739 0.930 . S
H782 C740 0.930 . S
H783 C741 0.930 . S
H784 C743 0.929 . S
H785 C744 0.930 . S
H786 C745 0.930 . S
H787 C746 0.930 . S
H788 C750 0.929 . S
H789 C752 0.930 . S
H790 C758 0.929 . S
H791 C759 0.930 . S
Li792 N809 1.991 . S
Li792 O852 1.956 1_556 S
Li792 O853 1.964 1_556 S
Li792 O854 1.967 . S
Li793 N817 1.990 . S
Li793 O852 1.981 . S
Li793 O853 1.956 . S
Li793 O855 1.959 1_554 S
Li794 N839 1.990 . S
Li794 O852 1.950 1_556 S
Li794 O854 1.956 . S
Li794 O855 1.972 . S
Li795 N845 1.991 . S
Li795 O853 1.976 . S
Li795 O854 1.955 1_554 S
Li795 O855 1.956 1_554 S
C796 C798 1.345 . S
C796 C799 1.359 1_554 S
C796 O852 1.325 . S
N797 C800 1.277 1_556 S
N797 C801 1.316 . S
C798 C796 1.345 . S
C798 C800 1.353 . S
C798 H856 0.929 . S
C799 C796 1.359 1_556 S
C799 C801 1.358 . S
C799 H857 0.930 . S
C800 N797 1.277 1_554 S
C800 C798 1.353 . S
C800 H858 0.930 . S
C801 N797 1.316 . S
C801 C799 1.358 . S
C801 H859 0.930 . S
C802 C805 1.348 . S
C802 C806 1.356 . S
C802 O853 1.325 . S
C803 N804 1.279 . S
C803 C806 1.358 . S
C803 H860 0.930 . S
N804 C803 1.279 . S
N804 C807 1.314 . S
C805 C802 1.348 . S
C805 C807 1.353 . S
C805 H861 0.929 . S
C806 C802 1.356 . S
C806 C803 1.358 . S
C806 H862 0.930 . S
C807 N804 1.314 . S
C807 C805 1.353 . S
C807 H863 0.930 . S
C808 N809 1.314 . S
C808 C813 1.353 . S
C808 H814 0.930 . S
N809 Li792 1.991 . S
N809 C808 1.314 . S
N809 C811 1.279 1_556 S
C810 C811 1.358 . S
C810 C812 1.357 . S
C810 H864 0.930 . S
C811 N809 1.279 1_554 S
C811 C810 1.358 . S
C811 H815 0.930 . S
C812 C810 1.357 . S
C812 C813 1.346 1_554 S
C813 C808 1.353 . S
C813 C812 1.346 1_556 S
C813 H865 0.929 . S
H814 C808 0.930 . S
H815 C811 0.930 . S
C816 N817 1.314 . S
C816 C818 1.353 . S
C816 H822 0.930 . S
N817 Li793 1.990 . S
N817 C816 1.314 . S
N817 C820 1.279 . S
C818 C816 1.353 . S
C818 C821 1.348 . S
C818 H866 0.929 . S
C819 C820 1.358 . S
C819 C821 1.356 . S
C819 H867 0.930 . S
C820 N817 1.279 . S
C820 C819 1.358 . S
C820 H823 0.930 . S
C821 C818 1.348 . S
C821 C819 1.356 . S
H822 C816 0.930 . S
H823 C820 0.930 . S
C824 C826 1.348 . S
C824 C827 1.356 . S
C824 O854 1.325 . S
N825 C828 1.314 . S
N825 C829 1.279 . S
C826 C824 1.348 . S
C826 C828 1.353 . S
C826 H868 0.929 . S
C827 C824 1.356 . S
C827 C829 1.358 . S
C827 H869 0.930 . S
C828 N825 1.314 . S
C828 C826 1.353 . S
C828 H870 0.930 . S
C829 N825 1.279 . S
C829 C827 1.358 . S
C829 H871 0.930 . S
C830 C831 1.345 1_554 S
C830 C832 1.359 . S
C830 O855 1.325 1_554 S
C831 C830 1.345 1_556 S
C831 C833 1.353 . S
C831 H872 0.929 . S
C832 C830 1.359 . S
C832 C834 1.358 . S
C832 H873 0.930 . S
C833 C831 1.353 . S
C833 N835 1.314 1_556 S
C833 H874 0.930 . S
C834 C832 1.358 . S
C834 N835 1.279 . S
C834 H875 0.930 . S
N835 C833 1.314 1_554 S
N835 C834 1.279 . S
C836 C838 1.353 . S
C836 N839 1.314 . S
C836 H842 0.930 . S
C837 N839 1.279 . S
C837 C840 1.358 . S
C837 H843 0.930 . S
C838 C836 1.353 . S
C838 C841 1.348 . S
C838 H876 0.929 . S
N839 Li794 1.990 . S
N839 C836 1.314 . S
N839 C837 1.279 . S
C840 C837 1.358 . S
C840 C841 1.356 . S
C840 H877 0.930 . S
C841 C838 1.348 . S
C841 C840 1.356 . S
H842 C836 0.930 . S
H843 C837 0.930 . S
C844 N845 1.314 . S
C844 C846 1.353 . S
C844 H850 0.930 . S
N845 Li795 1.991 . S
N845 C844 1.314 . S
N845 C848 1.279 1_554 S
C846 C844 1.353 . S
C846 C849 1.346 . S
C846 H878 0.929 . S
C847 C848 1.358 . S
C847 C849 1.357 1_556 S
C847 H879 0.930 . S
C848 N845 1.279 1_556 S
C848 C847 1.358 . S
C848 H851 0.930 . S
C849 C846 1.346 . S
C849 C847 1.357 1_554 S
H850 C844 0.930 . S
H851 C848 0.930 . S
O852 Li792 1.956 1_554 S
O852 Li793 1.981 . S
O852 Li794 1.950 1_554 S
O852 C796 1.325 . S
O853 Li792 1.964 1_554 S
O853 Li793 1.956 . S
O853 Li795 1.976 . S
O853 C802 1.325 . S
O854 Li792 1.967 . S
O854 Li794 1.956 . S
O854 Li795 1.955 1_556 S
O854 C824 1.325 . S
O855 Li793 1.959 1_556 S
O855 Li794 1.972 . S
O855 Li795 1.956 1_556 S
O855 C830 1.325 1_556 S
H856 C798 0.929 . S
H857 C799 0.930 . S
H858 C800 0.930 . S
H859 C801 0.930 . S
H860 C803 0.930 . S
H861 C805 0.929 . S
H862 C806 0.930 . S
H863 C807 0.930 . S
H864 C810 0.930 . S
H865 C813 0.929 . S
H866 C818 0.929 . S
H867 C819 0.930 . S
H868 C826 0.929 . S
H869 C827 0.930 . S
H870 C828 0.930 . S
H871 C829 0.930 . S
H872 C831 0.929 . S
H873 C832 0.930 . S
H874 C833 0.930 . S
H875 C834 0.930 . S
H876 C838 0.929 . S
H877 C840 0.930 . S
H878 C846 0.929 . S
H879 C847 0.930 . S
Li880 N897 1.991 . S
Li880 O940 1.956 1_556 S
Li880 O941 1.964 1_556 S
Li880 O942 1.967 . S
Li881 N905 1.990 . S
Li881 O940 1.981 . S
Li881 O941 1.956 . S
Li881 O943 1.959 1_554 S
Li882 N927 1.990 . S
Li882 O940 1.950 1_556 S
Li882 O942 1.956 . S
Li882 O943 1.972 . S
Li883 N933 1.991 . S
Li883 O941 1.976 . S
Li883 O942 1.955 1_554 S
Li883 O943 1.956 1_554 S
C884 C886 1.345 . S
C884 C887 1.359 1_554 S
C884 O940 1.325 . S
N885 C888 1.277 1_556 S
N885 C889 1.316 . S
C886 C884 1.345 . S
C886 C888 1.353 . S
C886 H944 0.929 . S
C887 C884 1.359 1_556 S
C887 C889 1.358 . S
C887 H945 0.930 . S
C888 N885 1.277 1_554 S
C888 C886 1.353 . S
C888 H946 0.930 . S
C889 N885 1.316 . S
C889 C887 1.358 . S
C889 H947 0.930 . S
C890 C893 1.348 . S
C890 C894 1.356 . S
C890 O941 1.325 . S
C891 N892 1.279 . S
C891 C894 1.358 . S
C891 H948 0.930 . S
N892 C891 1.279 . S
N892 C895 1.314 . S
C893 C890 1.348 . S
C893 C895 1.353 . S
C893 H949 0.929 . S
C894 C890 1.356 . S
C894 C891 1.358 . S
C894 H950 0.930 . S
C895 N892 1.314 . S
C895 C893 1.353 . S
C895 H951 0.930 . S
C896 N897 1.314 . S
C896 C901 1.353 . S
C896 H902 0.930 . S
N897 Li880 1.991 . S
N897 C896 1.314 . S
N897 C899 1.279 1_556 S
C898 C899 1.358 . S
C898 C900 1.357 . S
C898 H952 0.930 . S
C899 N897 1.279 1_554 S
C899 C898 1.358 . S
C899 H903 0.930 . S
C900 C898 1.357 . S
C900 C901 1.346 1_554 S
C901 C896 1.353 . S
C901 C900 1.346 1_556 S
C901 H953 0.929 . S
H902 C896 0.930 . S
H903 C899 0.930 . S
C904 N905 1.314 . S
C904 C906 1.353 . S
C904 H910 0.930 . S
N905 Li881 1.990 . S
N905 C904 1.314 . S
N905 C908 1.279 . S
C906 C904 1.353 . S
C906 C909 1.348 . S
C906 H954 0.929 . S
C907 C908 1.358 . S
C907 C909 1.356 . S
C907 H955 0.930 . S
C908 N905 1.279 . S
C908 C907 1.358 . S
C908 H911 0.930 . S
C909 C906 1.348 . S
C909 C907 1.356 . S
H910 C904 0.930 . S
H911 C908 0.930 . S
C912 C914 1.348 . S
C912 C915 1.356 . S
C912 O942 1.325 . S
N913 C916 1.314 . S
N913 C917 1.279 . S
C914 C912 1.348 . S
C914 C916 1.353 . S
C914 H956 0.929 . S
C915 C912 1.356 . S
C915 C917 1.358 . S
C915 H957 0.930 . S
C916 N913 1.314 . S
C916 C914 1.353 . S
C916 H958 0.930 . S
C917 N913 1.279 . S
C917 C915 1.358 . S
C917 H959 0.930 . S
C918 C919 1.345 1_554 S
C918 C920 1.359 . S
C918 O943 1.325 1_554 S
C919 C918 1.345 1_556 S
C919 C921 1.353 . S
C919 H960 0.929 . S
C920 C918 1.359 . S
C920 C922 1.358 . S
C920 H961 0.930 . S
C921 C919 1.353 . S
C921 N923 1.314 1_556 S
C921 H962 0.930 . S
C922 C920 1.358 . S
C922 N923 1.279 . S
C922 H963 0.930 . S
N923 C921 1.314 1_554 S
N923 C922 1.279 . S
C924 C926 1.353 . S
C924 N927 1.314 . S
C924 H930 0.930 . S
C925 N927 1.279 . S
C925 C928 1.358 . S
C925 H931 0.930 . S
C926 C924 1.353 . S
C926 C929 1.348 . S
C926 H964 0.929 . S
N927 Li882 1.990 . S
N927 C924 1.314 . S
N927 C925 1.279 . S
C928 C925 1.358 . S
C928 C929 1.356 . S
C928 H965 0.930 . S
C929 C926 1.348 . S
C929 C928 1.356 . S
H930 C924 0.930 . S
H931 C925 0.930 . S
C932 N933 1.314 . S
C932 C934 1.353 . S
C932 H938 0.930 . S
N933 Li883 1.991 . S
N933 C932 1.314 . S
N933 C936 1.279 1_554 S
C934 C932 1.353 . S
C934 C937 1.346 . S
C934 H966 0.929 . S
C935 C936 1.358 . S
C935 C937 1.357 1_556 S
C935 H967 0.930 . S
C936 N933 1.279 1_556 S
C936 C935 1.358 . S
C936 H939 0.930 . S
C937 C934 1.346 . S
C937 C935 1.357 1_554 S
H938 C932 0.930 . S
H939 C936 0.930 . S
O940 Li880 1.956 1_554 S
O940 Li881 1.981 . S
O940 Li882 1.950 1_554 S
O940 C884 1.325 . S
O941 Li880 1.964 1_554 S
O941 Li881 1.956 . S
O941 Li883 1.976 . S
O941 C890 1.325 . S
O942 Li880 1.967 . S
O942 Li882 1.956 . S
O942 Li883 1.955 1_556 S
O942 C912 1.325 . S
O943 Li881 1.959 1_556 S
O943 Li882 1.972 . S
O943 Li883 1.956 1_556 S
O943 C918 1.325 1_556 S
H944 C886 0.929 . S
H945 C887 0.930 . S
H946 C888 0.930 . S
H947 C889 0.930 . S
H948 C891 0.930 . S
H949 C893 0.929 . S
H950 C894 0.930 . S
H951 C895 0.930 . S
H952 C898 0.930 . S
H953 C901 0.929 . S
H954 C906 0.929 . S
H955 C907 0.930 . S
H956 C914 0.929 . S
H957 C915 0.930 . S
H958 C916 0.930 . S
H959 C917 0.930 . S
H960 C919 0.929 . S
H961 C920 0.930 . S
H962 C921 0.930 . S
H963 C922 0.930 . S
H964 C926 0.929 . S
H965 C928 0.930 . S
H966 C934 0.929 . S
H967 C935 0.930 . S
Li968 N985 1.990 . S
Li968 O1028 1.956 . S
Li968 O1029 1.981 . S
Li968 O1030 1.959 1_554 S
Li969 N993 1.991 . S
Li969 O1028 1.964 1_556 S
Li969 O1029 1.956 1_556 S
Li969 O1031 1.967 . S
Li970 N1015 1.991 . S
Li970 O1028 1.976 . S
Li970 O1030 1.956 1_554 S
Li970 O1031 1.955 1_554 S
Li971 N1021 1.990 . S
Li971 O1029 1.950 1_556 S
Li971 O1030 1.972 . S
Li971 O1031 1.956 . S
C972 C974 1.348 . S
C972 C975 1.356 . S
C972 O1028 1.325 . S
N973 C976 1.314 . S
N973 C977 1.279 . S
C974 C972 1.348 . S
C974 C976 1.353 . S
C974 H1032 0.929 . S
C975 C972 1.356 . S
C975 C977 1.358 . S
C975 H1033 0.930 . S
C976 N973 1.314 . S
C976 C974 1.353 . S
C976 H1034 0.930 . S
C977 N973 1.279 . S
C977 C975 1.358 . S
C977 H1035 0.930 . S
C978 C981 1.345 . S
C978 C982 1.359 1_554 S
C978 O1029 1.325 . S
C979 N980 1.316 . S
C979 C982 1.358 . S
C979 H1036 0.930 . S
N980 C979 1.316 . S
N980 C983 1.277 1_556 S
C981 C978 1.345 . S
C981 C983 1.353 . S
C981 H1037 0.929 . S
C982 C978 1.359 1_556 S
C982 C979 1.358 . S
C982 H1038 0.930 . S
C983 N980 1.277 1_554 S
C983 C981 1.353 . S
C983 H1039 0.930 . S
C984 N985 1.314 . S
C984 C989 1.353 . S
C984 H990 0.930 . S
N985 Li968 1.990 . S
N985 C984 1.314 . S
N985 C987 1.279 . S
C986 C987 1.358 . S
C986 C988 1.356 . S
C986 H1040 0.930 . S
C987 N985 1.279 . S
C987 C986 1.358 . S
C987 H991 0.930 . S
C988 C986 1.356 . S
C988 C989 1.348 . S
C989 C984 1.353 . S
C989 C988 1.348 . S
C989 H1041 0.929 . S
H990 C984 0.930 . S
H991 C987 0.930 . S
C992 N993 1.314 . S
C992 C994 1.353 . S
C992 H998 0.930 . S
N993 Li969 1.991 . S
N993 C992 1.314 . S
N993 C996 1.279 1_556 S
C994 C992 1.353 . S
C994 C997 1.346 1_556 S
C994 H1042 0.929 . S
C995 C996 1.358 . S
C995 C997 1.357 . S
C995 H1043 0.930 . S
C996 N993 1.279 1_554 S
C996 C995 1.358 . S
C996 H999 0.930 . S
C997 C994 1.346 1_554 S
C997 C995 1.357 . S
H998 C992 0.930 . S
H999 C996 0.930 . S
C1000 C1002 1.345 1_554 S
C1000 C1003 1.359 . S
C1000 O1030 1.325 1_554 S
N1001 C1004 1.314 1_554 S
N1001 C1005 1.279 . S
C1002 C1000 1.345 1_556 S
C1002 C1004 1.353 . S
C1002 H1044 0.929 . S
C1003 C1000 1.359 . S
C1003 C1005 1.358 . S
C1003 H1045 0.930 . S
C1004 N1001 1.314 1_556 S
C1004 C1002 1.353 . S
C1004 H1046 0.930 . S
C1005 N1001 1.279 . S
C1005 C1003 1.358 . S
C1005 H1047 0.930 . S
C1006 C1007 1.348 . S
C1006 C1008 1.356 . S
C1006 O1031 1.325 . S
C1007 C1006 1.348 . S
C1007 C1009 1.353 . S
C1007 H1048 0.929 . S
C1008 C1006 1.356 . S
C1008 C1010 1.358 . S
C1008 H1049 0.930 . S
C1009 C1007 1.353 . S
C1009 N1011 1.314 . S
C1009 H1050 0.930 . S
C1010 C1008 1.358 . S
C1010 N1011 1.279 . S
C1010 H1051 0.930 . S
N1011 C1009 1.314 . S
N1011 C1010 1.279 . S
C1012 C1014 1.353 . S
C1012 N1015 1.314 . S
C1012 H1018 0.930 . S
C1013 N1015 1.279 1_556 S
C1013 C1016 1.358 . S
C1013 H1019 0.930 . S
C1014 C1012 1.353 . S
C1014 C1017 1.346 . S
C1014 H1052 0.929 . S
N1015 Li970 1.991 . S
N1015 C1012 1.314 . S
N1015 C1013 1.279 1_554 S
C1016 C1013 1.358 . S
C1016 C1017 1.357 1_556 S
C1016 H1053 0.930 . S
C1017 C1014 1.346 . S
C1017 C1016 1.357 1_554 S
H1018 C1012 0.930 . S
H1019 C1013 0.930 . S
C1020 N1021 1.314 . S
C1020 C1022 1.353 . S
C1020 H1026 0.930 . S
N1021 Li971 1.990 . S
N1021 C1020 1.314 . S
N1021 C1024 1.279 . S
C1022 C1020 1.353 . S
C1022 C1025 1.348 . S
C1022 H1054 0.929 . S
C1023 C1024 1.358 . S
C1023 C1025 1.356 . S
C1023 H1055 0.930 . S
C1024 N1021 1.279 . S
C1024 C1023 1.358 . S
C1024 H1027 0.930 . S
C1025 C1022 1.348 . S
C1025 C1023 1.356 . S
H1026 C1020 0.930 . S
H1027 C1024 0.930 . S
O1028 Li968 1.956 . S
O1028 Li969 1.964 1_554 S
O1028 Li970 1.976 . S
O1028 C972 1.325 . S
O1029 Li968 1.981 . S
O1029 Li969 1.956 1_554 S
O1029 Li971 1.950 1_554 S
O1029 C978 1.325 . S
O1030 Li968 1.959 1_556 S
O1030 Li970 1.956 1_556 S
O1030 Li971 1.972 . S
O1030 C1000 1.325 1_556 S
O1031 Li969 1.967 . S
O1031 Li970 1.955 1_556 S
O1031 Li971 1.956 . S
O1031 C1006 1.325 . S
H1032 C974 0.929 . S
H1033 C975 0.930 . S
H1034 C976 0.930 . S
H1035 C977 0.930 . S
H1036 C979 0.930 . S
H1037 C981 0.929 . S
H1038 C982 0.930 . S
H1039 C983 0.930 . S
H1040 C986 0.930 . S
H1041 C989 0.929 . S
H1042 C994 0.929 . S
H1043 C995 0.930 . S
H1044 C1002 0.929 . S
H1045 C1003 0.930 . S
H1046 C1004 0.930 . S
H1047 C1005 0.930 . S
H1048 C1007 0.929 . S
H1049 C1008 0.930 . S
H1050 C1009 0.930 . S
H1051 C1010 0.930 . S
H1052 C1014 0.929 . S
H1053 C1016 0.930 . S
H1054 C1022 0.929 . S
H1055 C1023 0.930 . S
C1056 C1057 1.391 1_655 S
C1056 C1058 1.394 . S
C1056 H1072 0.931 . S
C1057 C1056 1.391 1_455 S
C1057 C1061 1.376 . S
C1058 C1056 1.394 . S
C1058 C1059 1.369 1_655 S
C1058 C1062 1.531 . S
C1059 C1058 1.369 1_455 S
C1059 C1060 1.410 . S
C1059 C1067 1.503 . S
C1060 C1059 1.410 . S
C1060 C1061 1.392 . S
C1060 C1063 1.511 . S
C1061 C1057 1.376 . S
C1061 C1060 1.392 . S
C1061 H1073 0.929 . S
C1062 C1058 1.531 . S
C1062 H1074 0.960 . S
C1062 H1075 0.962 . S
C1062 H1076 0.960 . S
C1063 C1060 1.511 . S
C1063 H1077 0.961 . S
C1063 H1078 0.961 . S
C1063 H1079 0.961 . S
C1064 C1065 1.357 1_655 S
C1064 C1066 1.363 . S
C1064 H1080 0.931 . S
C1065 C1064 1.357 1_455 S
C1065 C1069 1.423 . S
C1066 C1064 1.363 . S
C1066 C1067 1.370 1_655 S
C1066 C1070 1.524 . S
C1067 C1059 1.503 . S
C1067 C1066 1.370 1_455 S
C1067 C1068 1.403 . S
C1068 C1067 1.403 . S
C1068 C1069 1.404 . S
C1068 C1071 1.539 . S
C1069 C1065 1.423 . S
C1069 C1068 1.404 . S
C1069 H1081 0.930 . S
C1070 C1066 1.524 . S
C1070 H1082 0.956 . S
C1070 H1083 0.961 . S
C1070 H1084 0.961 . S
C1071 C1068 1.539 . S
C1071 H1085 0.958 . S
C1071 H1086 0.961 . S
C1071 H1087 0.960 . S
H1072 C1056 0.931 . S
H1073 C1061 0.929 . S
H1074 C1062 0.960 . S
H1075 C1062 0.962 . S
H1076 C1062 0.960 . S
H1077 C1063 0.961 . S
H1078 C1063 0.961 . S
H1079 C1063 0.961 . S
H1080 C1064 0.931 . S
H1081 C1069 0.930 . S
H1082 C1070 0.956 . S
H1083 C1070 0.961 . S
H1084 C1070 0.961 . S
H1085 C1071 0.958 . S
H1086 C1071 0.961 . S
H1087 C1071 0.960 . S
C1088 C1089 1.391 . S
C1088 C1090 1.394 . S
C1088 H1104 0.931 . S
C1089 C1088 1.391 . S
C1089 C1093 1.376 1_565 S
C1090 C1088 1.394 . S
C1090 C1091 1.369 . S
C1090 C1094 1.531 . S
C1091 C1090 1.369 . S
C1091 C1092 1.410 1_565 S
C1091 C1099 1.503 . S
C1092 C1091 1.410 1_545 S
C1092 C1093 1.392 . S
C1092 C1095 1.511 . S
C1093 C1089 1.376 1_545 S
C1093 C1092 1.392 . S
C1093 H1105 0.929 . S
C1094 C1090 1.531 . S
C1094 H1106 0.960 . S
C1094 H1107 0.962 . S
C1094 H1108 0.960 . S
C1095 C1092 1.511 . S
C1095 H1109 0.961 . S
C1095 H1110 0.961 . S
C1095 H1111 0.961 . S
C1096 C1097 1.338 1_545 S
C1096 C1098 1.363 . S
C1096 H1112 0.931 . S
C1097 C1096 1.338 1_565 S
C1097 C1101 1.445 . S
C1098 C1096 1.363 . S
C1098 C1099 1.370 1_545 S
C1098 C1102 1.524 . S
C1099 C1091 1.503 . S
C1099 C1098 1.370 1_565 S
C1099 C1100 1.403 . S
C1100 C1099 1.403 . S
C1100 C1101 1.404 . S
C1100 C1103 1.539 . S
C1101 C1097 1.445 . S
C1101 C1100 1.404 . S
C1101 H1113 0.930 . S
C1102 C1098 1.524 . S
C1102 H1114 0.956 . S
C1102 H1115 0.961 . S
C1102 H1116 0.961 . S
C1103 C1100 1.539 . S
C1103 H1117 0.958 . S
C1103 H1118 0.961 . S
C1103 H1119 0.960 . S
H1104 C1088 0.931 . S
H1105 C1093 0.929 . S
H1106 C1094 0.960 . S
H1107 C1094 0.962 . S
H1108 C1094 0.960 . S
H1109 C1095 0.961 . S
H1110 C1095 0.961 . S
H1111 C1095 0.961 . S
H1112 C1096 0.931 . S
H1113 C1101 0.930 . S
H1114 C1102 0.956 . S
H1115 C1102 0.961 . S
H1116 C1102 0.961 . S
H1117 C1103 0.958 . S
H1118 C1103 0.961 . S
H1119 C1103 0.960 . S
C1120 C1121 1.391 1_655 S
C1120 C1122 1.394 . S
C1120 H1136 0.931 . S
C1121 C1120 1.391 1_455 S
C1121 C1125 1.376 . S
C1122 C1120 1.394 . S
C1122 C1123 1.369 1_655 S
C1122 C1126 1.531 . S
C1123 C1122 1.369 1_455 S
C1123 C1124 1.410 . S
C1123 C1131 1.503 . S
C1124 C1123 1.410 . S
C1124 C1125 1.392 . S
C1124 C1127 1.511 . S
C1125 C1121 1.376 . S
C1125 C1124 1.392 . S
C1125 H1137 0.929 . S
C1126 C1122 1.531 . S
C1126 H1138 0.960 . S
C1126 H1139 0.962 . S
C1126 H1140 0.960 . S
C1127 C1124 1.511 . S
C1127 H1141 0.961 . S
C1127 H1142 0.961 . S
C1127 H1143 0.961 . S
C1128 C1129 1.369 1_655 S
C1128 C1130 1.363 . S
C1128 H1144 0.931 . S
C1129 C1128 1.369 1_455 S
C1129 C1133 1.409 . S
C1130 C1128 1.363 . S
C1130 C1131 1.370 1_655 S
C1130 C1134 1.524 . S
C1131 C1123 1.503 . S
C1131 C1130 1.370 1_455 S
C1131 C1132 1.403 . S
C1132 C1131 1.403 . S
C1132 C1133 1.404 . S
C1132 C1135 1.539 . S
C1133 C1129 1.409 . S
C1133 C1132 1.404 . S
C1133 H1145 0.930 . S
C1134 C1130 1.524 . S
C1134 H1146 0.956 . S
C1134 H1147 0.975 . S
C1134 H1148 0.961 . S
C1135 C1132 1.539 . S
C1135 H1149 0.958 . S
C1135 H1150 0.961 . S
C1135 H1151 0.960 . S
H1136 C1120 0.931 . S
H1137 C1125 0.929 . S
H1138 C1126 0.960 . S
H1139 C1126 0.962 . S
H1140 C1126 0.960 . S
H1141 C1127 0.961 . S
H1142 C1127 0.961 . S
H1143 C1127 0.961 . S
H1144 C1128 0.931 . S
H1145 C1133 0.930 . S
H1146 C1134 0.956 . S
H1147 C1134 0.975 . S
H1148 C1134 0.961 . S
H1149 C1135 0.958 . S
H1150 C1135 0.961 . S
H1151 C1135 0.960 . S
C1152 C1153 1.359 1_545 S
C1152 C1154 1.394 . S
C1152 H1168 0.931 . S
C1153 C1152 1.359 1_565 S
C1153 C1157 1.409 . S
C1154 C1152 1.394 . S
C1154 C1155 1.325 1_545 S
C1154 C1158 1.531 . S
C1155 C1154 1.325 1_565 S
C1155 C1156 1.454 . S
C1155 C1163 1.503 . S
C1156 C1155 1.454 . S
C1156 C1157 1.392 . S
C1156 C1159 1.511 . S
C1157 C1153 1.409 . S
C1157 C1156 1.392 . S
C1157 H1169 0.929 . S
C1158 C1154 1.531 . S
C1158 H1170 0.960 . S
C1158 H1171 0.962 . S
C1158 H1172 0.960 . S
C1159 C1156 1.511 . S
C1159 H1173 0.961 . S
C1159 H1174 0.961 . S
C1159 H1175 0.961 . S
C1160 C1161 1.370 . S
C1160 C1162 1.363 . S
C1160 H1176 0.931 . S
C1161 C1160 1.370 . S
C1161 C1165 1.408 1_545 S
C1162 C1160 1.363 . S
C1162 C1163 1.364 1_545 S
C1162 C1166 1.524 . S
C1163 C1155 1.503 . S
C1163 C1162 1.364 1_565 S
C1163 C1164 1.409 . S
C1164 C1163 1.409 . S
C1164 C1165 1.404 . S
C1164 C1167 1.539 . S
C1165 C1161 1.408 1_565 S
C1165 C1164 1.404 . S
C1165 H1177 0.930 . S
C1166 C1162 1.524 . S
C1166 H1178 0.956 . S
C1166 H1179 0.961 1_545 S
C1166 H1180 0.961 . S
C1167 C1164 1.539 . S
C1167 H1181 0.949 1_565 S
C1167 H1182 0.961 . S
C1167 H1183 0.960 . S
H1168 C1152 0.931 . S
H1169 C1157 0.929 . S
H1170 C1158 0.960 . S
H1171 C1158 0.962 . S
H1172 C1158 0.960 . S
H1173 C1159 0.961 . S
H1174 C1159 0.961 . S
H1175 C1159 0.961 . S
H1176 C1160 0.931 . S
H1177 C1165 0.930 . S
H1178 C1166 0.956 . S
H1179 C1166 0.961 1_565 S
H1180 C1166 0.961 . S
H1181 C1167 0.949 1_545 S
H1182 C1167 0.961 . S
H1183 C1167 0.960 . S
C1184 C1185 1.360 1_655 S
C1184 C1186 1.394 . S
C1184 H1200 0.931 . S
C1185 C1184 1.360 1_455 S
C1185 C1189 1.411 . S
C1186 C1184 1.394 . S
C1186 C1187 1.369 1_655 S
C1186 C1190 1.531 . S
C1187 C1186 1.369 1_455 S
C1187 C1188 1.410 . S
C1187 C1195 1.503 . S
C1188 C1187 1.410 . S
C1188 C1189 1.392 . S
C1188 C1191 1.511 . S
C1189 C1185 1.411 . S
C1189 C1188 1.392 . S
C1189 H1201 0.929 . S
C1190 C1186 1.531 . S
C1190 H1202 0.960 . S
C1190 H1203 0.962 . S
C1190 H1204 0.960 . S
C1191 C1188 1.511 . S
C1191 H1205 0.961 . S
C1191 H1206 0.961 . S
C1191 H1207 0.961 . S
C1192 C1193 1.345 1_655 S
C1192 C1194 1.363 . S
C1192 H1208 0.931 . S
C1193 C1192 1.345 1_455 S
C1193 C1197 1.436 . S
C1194 C1192 1.363 . S
C1194 C1195 1.370 1_655 S
C1194 C1198 1.524 . S
C1195 C1187 1.503 . S
C1195 C1194 1.370 1_455 S
C1195 C1196 1.403 . S
C1196 C1195 1.403 . S
C1196 C1197 1.404 . S
C1196 C1199 1.539 . S
C1197 C1193 1.436 . S
C1197 C1196 1.404 . S
C1197 H1209 0.930 . S
C1198 C1194 1.524 . S
C1198 H1210 0.956 . S
C1198 H1211 0.961 . S
C1198 H1212 0.961 . S
C1199 C1196 1.539 . S
C1199 H1213 0.958 . S
C1199 H1214 0.961 . S
C1199 H1215 0.960 . S
H1200 C1184 0.931 . S
H1201 C1189 0.929 . S
H1202 C1190 0.960 . S
H1203 C1190 0.962 . S
H1204 C1190 0.960 . S
H1205 C1191 0.961 . S
H1206 C1191 0.961 . S
H1207 C1191 0.961 . S
H1208 C1192 0.931 . S
H1209 C1197 0.930 . S
H1210 C1198 0.956 . S
H1211 C1198 0.961 . S
H1212 C1198 0.961 . S
H1213 C1199 0.958 . S
H1214 C1199 0.961 . S
H1215 C1199 0.960 . S
C1216 C1217 1.435 . S
C1216 C1218 1.394 . S
C1216 H1232 0.931 . S
C1217 C1216 1.435 . S
C1217 C1221 1.335 1_565 S
C1218 C1216 1.394 . S
C1218 C1219 1.369 . S
C1218 C1222 1.531 . S
C1219 C1218 1.369 . S
C1219 C1220 1.410 1_565 S
C1219 C1227 1.503 . S
C1220 C1219 1.410 1_545 S
C1220 C1221 1.392 . S
C1220 C1223 1.511 . S
C1221 C1217 1.335 1_545 S
C1221 C1220 1.392 . S
C1221 H1233 0.929 . S
C1222 C1218 1.531 . S
C1222 H1234 0.960 . S
C1222 H1235 0.962 . S
C1222 H1236 0.960 . S
C1223 C1220 1.511 . S
C1223 H1237 0.961 . S
C1223 H1238 0.961 . S
C1223 H1239 0.961 . S
C1224 C1225 1.373 . S
C1224 C1226 1.363 . S
C1224 H1240 0.931 . S
C1225 C1224 1.373 . S
C1225 C1229 1.405 1_545 S
C1226 C1224 1.363 . S
C1226 C1227 1.370 1_545 S
C1226 C1230 1.524 . S
C1227 C1219 1.503 . S
C1227 C1226 1.370 1_565 S
C1227 C1228 1.403 . S
C1228 C1227 1.403 . S
C1228 C1229 1.404 . S
C1228 C1231 1.539 . S
C1229 C1225 1.405 1_565 S
C1229 C1228 1.404 . S
C1229 H1241 0.930 . S
C1230 C1226 1.524 . S
C1230 H1242 0.956 . S
C1230 H1243 0.961 . S
C1230 H1244 0.961 . S
C1231 C1228 1.539 . S
C1231 H1245 0.958 . S
C1231 H1246 0.961 . S
C1231 H1247 0.960 . S
H1232 C1216 0.931 . S
H1233 C1221 0.929 . S
H1234 C1222 0.960 . S
H1235 C1222 0.962 . S
H1236 C1222 0.960 . S
H1237 C1223 0.961 . S
H1238 C1223 0.961 . S
H1239 C1223 0.961 . S
H1240 C1224 0.931 . S
H1241 C1229 0.930 . S
H1242 C1230 0.956 . S
H1243 C1230 0.961 . S
H1244 C1230 0.961 . S
H1245 C1231 0.958 . S
H1246 C1231 0.961 . S
H1247 C1231 0.960 . S
C1248 C1249 1.391 . S
C1248 C1250 1.394 . S
C1248 H1264 0.931 . S
C1249 C1248 1.391 . S
C1249 C1253 1.376 1_655 S
C1250 C1248 1.394 . S
C1250 C1251 1.369 . S
C1250 C1254 1.531 . S
C1251 C1250 1.369 . S
C1251 C1252 1.410 1_655 S
C1251 C1259 1.503 . S
C1252 C1251 1.410 1_455 S
C1252 C1253 1.392 . S
C1252 C1255 1.511 . S
C1253 C1249 1.376 1_455 S
C1253 C1252 1.392 . S
C1253 H1265 0.929 . S
C1254 C1250 1.531 . S
C1254 H1266 0.960 . S
C1254 H1267 0.962 . S
C1254 H1268 0.960 . S
C1255 C1252 1.511 . S
C1255 H1269 0.961 . S
C1255 H1270 0.961 . S
C1255 H1271 0.961 . S
C1256 C1257 1.372 . S
C1256 C1258 1.363 . S
C1256 H1272 0.931 . S
C1257 C1256 1.372 . S
C1257 C1261 1.406 1_455 S
C1258 C1256 1.363 . S
C1258 C1259 1.370 1_455 S
C1258 C1262 1.524 . S
C1259 C1251 1.503 . S
C1259 C1258 1.370 1_655 S
C1259 C1260 1.403 . S
C1260 C1259 1.403 . S
C1260 C1261 1.404 . S
C1260 C1263 1.539 . S
C1261 C1257 1.406 1_655 S
C1261 C1260 1.404 . S
C1261 H1273 0.930 . S
C1262 C1258 1.524 . S
C1262 H1274 0.956 . S
C1262 H1275 0.961 . S
C1262 H1276 0.961 . S
C1263 C1260 1.539 . S
C1263 H1277 0.958 . S
C1263 H1278 0.961 . S
C1263 H1279 0.960 . S
H1264 C1248 0.931 . S
H1265 C1253 0.929 . S
H1266 C1254 0.960 . S
H1267 C1254 0.962 . S
H1268 C1254 0.960 . S
H1269 C1255 0.961 . S
H1270 C1255 0.961 . S
H1271 C1255 0.961 . S
H1272 C1256 0.931 . S
H1273 C1261 0.930 . S
H1274 C1262 0.956 . S
H1275 C1262 0.961 . S
H1276 C1262 0.961 . S
H1277 C1263 0.958 . S
H1278 C1263 0.961 . S
H1279 C1263 0.960 . S
C1280 C1281 1.391 1_565 S
C1280 C1282 1.394 . S
C1280 H1296 0.931 . S
C1281 C1280 1.391 1_545 S
C1281 C1285 1.376 . S
C1282 C1280 1.394 . S
C1282 C1283 1.369 1_565 S
C1282 C1286 1.531 . S
C1283 C1282 1.369 1_545 S
C1283 C1284 1.410 . S
C1283 C1291 1.503 . S
C1284 C1283 1.410 . S
C1284 C1285 1.392 . S
C1284 C1287 1.511 . S
C1285 C1281 1.376 . S
C1285 C1284 1.392 . S
C1285 H1297 0.929 . S
C1286 C1282 1.531 . S
C1286 H1298 0.960 . S
C1286 H1299 0.962 . S
C1286 H1300 0.960 . S
C1287 C1284 1.511 . S
C1287 H1301 0.961 . S
C1287 H1302 0.961 . S
C1287 H1303 0.961 . S
C1288 C1289 1.353 1_565 S
C1288 C1290 1.363 . S
C1288 H1304 0.931 . S
C1289 C1288 1.353 1_545 S
C1289 C1293 1.427 . S
C1290 C1288 1.363 . S
C1290 C1291 1.370 1_565 S
C1290 C1294 1.524 . S
C1291 C1283 1.503 . S
C1291 C1290 1.370 1_545 S
C1291 C1292 1.403 . S
C1292 C1291 1.403 . S
C1292 C1293 1.404 . S
C1292 C1295 1.539 . S
C1293 C1289 1.427 . S
C1293 C1292 1.404 . S
C1293 H1305 0.930 . S
C1294 C1290 1.524 . S
C1294 H1306 0.956 . S
C1294 H1307 0.961 . S
C1294 H1308 0.961 . S
C1295 C1292 1.539 . S
C1295 H1309 0.958 . S
C1295 H1310 0.961 . S
C1295 H1311 0.960 . S
H1296 C1280 0.931 . S
H1297 C1285 0.929 . S
H1298 C1286 0.960 . S
H1299 C1286 0.962 . S
H1300 C1286 0.960 . S
H1301 C1287 0.961 . S
H1302 C1287 0.961 . S
H1303 C1287 0.961 . S
H1304 C1288 0.931 . S
H1305 C1293 0.930 . S
H1306 C1294 0.956 . S
H1307 C1294 0.961 . S
H1308 C1294 0.961 . S
H1309 C1295 0.958 . S
H1310 C1295 0.961 . S
H1311 C1295 0.960 . S
C1312 C1313 1.391 1_556 S
C1312 C1314 1.394 . S
C1312 H1328 0.931 . S
C1313 C1312 1.391 1_554 S
C1313 C1317 1.376 . S
C1314 C1312 1.394 . S
C1314 C1315 1.369 1_556 S
C1314 C1318 1.531 . S
C1315 C1314 1.369 1_554 S
C1315 C1316 1.410 . S
C1315 C1323 1.503 . S
C1316 C1315 1.410 . S
C1316 C1317 1.392 . S
C1316 C1319 1.511 . S
C1317 C1313 1.376 . S
C1317 C1316 1.392 . S
C1317 H1329 0.929 . S
C1318 C1314 1.531 . S
C1318 H1330 0.960 . S
C1318 H1331 0.962 . S
C1318 H1332 0.960 . S
C1319 C1316 1.511 . S
C1319 H1333 0.961 . S
C1319 H1334 0.961 . S
C1319 H1335 0.961 . S
C1320 C1321 1.370 1_556 S
C1320 C1322 1.363 . S
C1320 H1336 0.931 . S
C1321 C1320 1.370 1_554 S
C1321 C1325 1.408 . S
C1322 C1320 1.363 . S
C1322 C1323 1.370 1_556 S
C1322 C1326 1.524 . S
C1323 C1315 1.503 . S
C1323 C1322 1.370 1_554 S
C1323 C1324 1.403 . S
C1324 C1323 1.403 . S
C1324 C1325 1.404 . S
C1324 C1327 1.539 . S
C1325 C1321 1.408 . S
C1325 C1324 1.404 . S
C1325 H1337 0.930 . S
C1326 C1322 1.524 . S
C1326 H1338 0.956 . S
C1326 H1339 0.961 . S
C1326 H1340 0.961 . S
C1327 C1324 1.539 . S
C1327 H1341 0.958 . S
C1327 H1342 0.961 . S
C1327 H1343 0.960 . S
H1328 C1312 0.931 . S
H1329 C1317 0.929 . S
H1330 C1318 0.960 . S
H1331 C1318 0.962 . S
H1332 C1318 0.960 . S
H1333 C1319 0.961 . S
H1334 C1319 0.961 . S
H1335 C1319 0.961 . S
H1336 C1320 0.931 . S
H1337 C1325 0.930 . S
H1338 C1326 0.956 . S
H1339 C1326 0.961 . S
H1340 C1326 0.961 . S
H1341 C1327 0.958 . S
H1342 C1327 0.961 . S
H1343 C1327 0.960 . S
C1344 C1345 1.413 . S
C1344 C1346 1.394 . S
C1344 H1360 0.931 . S
C1345 C1344 1.413 . S
C1345 C1349 1.356 1_554 S
C1346 C1344 1.394 . S
C1346 C1347 1.369 . S
C1346 C1350 1.531 . S
C1347 C1346 1.369 . S
C1347 C1348 1.410 1_554 S
C1347 C1355 1.503 . S
C1348 C1347 1.410 1_556 S
C1348 C1349 1.392 . S
C1348 C1351 1.511 . S
C1349 C1345 1.356 1_556 S
C1349 C1348 1.392 . S
C1349 H1361 0.929 . S
C1350 C1346 1.531 . S
C1350 H1362 0.960 . S
C1350 H1363 0.962 . S
C1350 H1364 0.960 . S
C1351 C1348 1.511 . S
C1351 H1365 0.961 . S
C1351 H1366 0.961 . S
C1351 H1367 0.961 . S
C1352 C1353 1.360 1_556 S
C1352 C1354 1.363 . S
C1352 H1368 0.931 . S
C1353 C1352 1.360 1_554 S
C1353 C1357 1.421 . S
C1354 C1352 1.363 . S
C1354 C1355 1.370 1_556 S
C1354 C1358 1.524 . S
C1355 C1347 1.503 . S
C1355 C1354 1.370 1_554 S
C1355 C1356 1.403 . S
C1356 C1355 1.403 . S
C1356 C1357 1.404 . S
C1356 C1359 1.539 . S
C1357 C1353 1.421 . S
C1357 C1356 1.404 . S
C1357 H1369 0.930 . S
C1358 C1354 1.524 . S
C1358 H1370 0.956 . S
C1358 H1371 0.961 . S
C1358 H1372 0.961 . S
C1359 C1356 1.539 . S
C1359 H1373 0.958 . S
C1359 H1374 0.961 . S
C1359 H1375 0.960 . S
H1360 C1344 0.931 . S
H1361 C1349 0.929 . S
H1362 C1350 0.960 . S
H1363 C1350 0.962 . S
H1364 C1350 0.960 . S
H1365 C1351 0.961 . S
H1366 C1351 0.961 . S
H1367 C1351 0.961 . S
H1368 C1352 0.931 . S
H1369 C1357 0.930 . S
H1370 C1358 0.956 . S
H1371 C1358 0.961 . S
H1372 C1358 0.961 . S
H1373 C1359 0.958 . S
H1374 C1359 0.961 . S
H1375 C1359 0.960 . S
C1376 C1377 1.385 1_554 S
C1376 C1378 1.394 . S
C1376 H1392 0.931 . S
C1377 C1376 1.385 1_556 S
C1377 C1381 1.382 . S
C1378 C1376 1.394 . S
C1378 C1379 1.369 1_554 S
C1378 C1382 1.531 . S
C1379 C1378 1.369 1_556 S
C1379 C1380 1.410 . S
C1379 C1387 1.503 . S
C1380 C1379 1.410 . S
C1380 C1381 1.392 . S
C1380 C1383 1.511 . S
C1381 C1377 1.382 . S
C1381 C1380 1.392 . S
C1381 H1393 0.929 . S
C1382 C1378 1.531 . S
C1382 H1394 0.960 . S
C1382 H1395 0.962 . S
C1382 H1396 0.960 . S
C1383 C1380 1.511 . S
C1383 H1397 0.961 . S
C1383 H1398 0.961 . S
C1383 H1399 0.961 . S
C1384 C1385 1.361 1_554 S
C1384 C1386 1.363 . S
C1384 H1400 0.931 . S
C1385 C1384 1.361 1_556 S
C1385 C1389 1.418 . S
C1386 C1384 1.363 . S
C1386 C1387 1.370 1_554 S
C1386 C1390 1.524 . S
C1387 C1379 1.503 . S
C1387 C1386 1.370 1_556 S
C1387 C1388 1.403 . S
C1388 C1387 1.403 . S
C1388 C1389 1.404 . S
C1388 C1391 1.539 . S
C1389 C1385 1.418 . S
C1389 C1388 1.404 . S
C1389 H1401 0.930 . S
C1390 C1386 1.524 . S
C1390 H1402 0.956 . S
C1390 H1403 0.961 . S
C1390 H1404 0.961 . S
C1391 C1388 1.539 . S
C1391 H1405 0.958 . S
C1391 H1406 0.961 . S
C1391 H1407 0.960 . S
H1392 C1376 0.931 . S
H1393 C1381 0.929 . S
H1394 C1382 0.960 . S
H1395 C1382 0.962 . S
H1396 C1382 0.960 . S
H1397 C1383 0.961 . S
H1398 C1383 0.961 . S
H1399 C1383 0.961 . S
H1400 C1384 0.931 . S
H1401 C1389 0.930 . S
H1402 C1390 0.956 . S
H1403 C1390 0.961 . S
H1404 C1390 0.961 . S
H1405 C1391 0.958 . S
H1406 C1391 0.961 . S
H1407 C1391 0.960 . S
C1408 C1409 1.394 1_556 S
C1408 C1410 1.394 . S
C1408 H1424 0.931 . S
C1409 C1408 1.394 1_554 S
C1409 C1413 1.373 . S
C1410 C1408 1.394 . S
C1410 C1411 1.369 . S
C1410 C1414 1.531 . S
C1411 C1410 1.369 . S
C1411 C1412 1.410 1_556 S
C1411 C1419 1.505 . S
C1412 C1411 1.410 1_554 S
C1412 C1413 1.392 . S
C1412 C1415 1.511 . S
C1413 C1409 1.373 . S
C1413 C1412 1.392 . S
C1413 H1425 0.929 . S
C1414 C1410 1.531 . S
C1414 H1426 0.960 . S
C1414 H1427 0.962 . S
C1414 H1428 0.960 . S
C1415 C1412 1.511 . S
C1415 H1429 0.961 . S
C1415 H1430 0.961 . S
C1415 H1431 0.961 . S
C1416 C1417 1.369 1_554 S
C1416 C1418 1.363 . S
C1416 H1432 0.931 . S
C1417 C1416 1.369 1_556 S
C1417 C1421 1.410 . S
C1418 C1416 1.363 . S
C1418 C1419 1.362 1_554 S
C1418 C1422 1.524 . S
C1419 C1411 1.505 . S
C1419 C1418 1.362 1_556 S
C1419 C1420 1.413 . S
C1420 C1419 1.413 . S
C1420 C1421 1.404 . S
C1420 C1423 1.539 . S
C1421 C1417 1.410 . S
C1421 C1420 1.404 . S
C1421 H1433 0.930 . S
C1422 C1418 1.524 . S
C1422 H1434 0.956 1_554 S
C1422 H1435 0.961 . S
C1422 H1436 0.961 . S
C1423 C1420 1.539 . S
C1423 H1437 0.958 . S
C1423 H1438 0.961 . S
C1423 H1439 0.960 . S
H1424 C1408 0.931 . S
H1425 C1413 0.929 . S
H1426 C1414 0.960 . S
H1427 C1414 0.962 . S
H1428 C1414 0.960 . S
H1429 C1415 0.961 . S
H1430 C1415 0.961 . S
H1431 C1415 0.961 . S
H1432 C1416 0.931 . S
H1433 C1421 0.930 . S
H1434 C1422 0.956 1_556 S
H1435 C1422 0.961 . S
H1436 C1422 0.961 . S
H1437 C1423 0.958 . S
H1438 C1423 0.961 . S
H1439 C1423 0.960 . S
C1440 C1441 1.391 . S
C1440 C1442 1.394 . S
C1440 H1456 0.931 . S
C1441 C1440 1.391 . S
C1441 C1445 1.376 . S
C1442 C1440 1.394 . S
C1442 C1443 1.369 . S
C1442 C1446 1.531 . S
C1443 C1442 1.369 . S
C1443 C1444 1.410 . S
C1443 C1451 1.503 . S
C1444 C1443 1.410 . S
C1444 C1445 1.392 . S
C1444 C1447 1.511 . S
C1445 C1441 1.376 . S
C1445 C1444 1.392 . S
C1445 H1457 0.929 . S
C1446 C1442 1.531 . S
C1446 H1458 0.960 . S
C1446 H1459 0.962 . S
C1446 H1460 0.960 . S
C1447 C1444 1.511 . S
C1447 H1461 0.961 . S
C1447 H1462 0.961 . S
C1447 H1463 0.961 . S
C1448 C1449 1.370 . S
C1448 C1450 1.363 . S
C1448 H1464 0.931 . S
C1449 C1448 1.370 . S
C1449 C1453 1.408 . S
C1450 C1448 1.363 . S
C1450 C1451 1.370 . S
C1450 C1454 1.524 . S
C1451 C1443 1.503 . S
C1451 C1450 1.370 . S
C1451 C1452 1.403 . S
C1452 C1451 1.403 . S
C1452 C1453 1.404 . S
C1452 C1455 1.539 . S
C1453 C1449 1.408 . S
C1453 C1452 1.404 . S
C1453 H1465 0.930 . S
C1454 C1450 1.524 . S
C1454 H1466 0.956 . S
C1454 H1467 0.961 . S
C1454 H1468 0.961 . S
C1455 C1452 1.539 . S
C1455 H1469 0.958 . S
C1455 H1470 0.961 . S
C1455 H1471 0.960 . S
H1456 C1440 0.931 . S
H1457 C1445 0.929 . S
H1458 C1446 0.960 . S
H1459 C1446 0.962 . S
H1460 C1446 0.960 . S
H1461 C1447 0.961 . S
H1462 C1447 0.961 . S
H1463 C1447 0.961 . S
H1464 C1448 0.931 . S
H1465 C1453 0.930 . S
H1466 C1454 0.956 . S
H1467 C1454 0.961 . S
H1468 C1454 0.961 . S
H1469 C1455 0.958 . S
H1470 C1455 0.961 . S
H1471 C1455 0.960 . S
C1472 C1473 1.391 . S
C1472 C1474 1.394 . S
C1472 H1488 0.931 . S
C1473 C1472 1.391 . S
C1473 C1477 1.376 . S
C1474 C1472 1.394 . S
C1474 C1475 1.369 . S
C1474 C1478 1.531 . S
C1475 C1474 1.369 . S
C1475 C1476 1.410 . S
C1475 C1483 1.503 . S
C1476 C1475 1.410 . S
C1476 C1477 1.392 . S
C1476 C1479 1.511 . S
C1477 C1473 1.376 . S
C1477 C1476 1.392 . S
C1477 H1489 0.929 . S
C1478 C1474 1.531 . S
C1478 H1490 0.960 . S
C1478 H1491 0.962 . S
C1478 H1492 0.960 . S
C1479 C1476 1.511 . S
C1479 H1493 0.961 . S
C1479 H1494 0.961 . S
C1479 H1495 0.961 . S
C1480 C1481 1.370 . S
C1480 C1482 1.363 . S
C1480 H1496 0.931 . S
C1481 C1480 1.370 . S
C1481 C1485 1.408 . S
C1482 C1480 1.363 . S
C1482 C1483 1.370 . S
C1482 C1486 1.524 . S
C1483 C1475 1.503 . S
C1483 C1482 1.370 . S
C1483 C1484 1.403 . S
C1484 C1483 1.403 . S
C1484 C1485 1.404 . S
C1484 C1487 1.539 . S
C1485 C1481 1.408 . S
C1485 C1484 1.404 . S
C1485 H1497 0.930 . S
C1486 C1482 1.524 . S
C1486 H1498 0.956 . S
C1486 H1499 0.961 . S
C1486 H1500 0.961 . S
C1487 C1484 1.539 . S
C1487 H1501 0.958 . S
C1487 H1502 0.961 . S
C1487 H1503 0.960 . S
H1488 C1472 0.931 . S
H1489 C1477 0.929 . S
H1490 C1478 0.960 . S
H1491 C1478 0.962 . S
H1492 C1478 0.960 . S
H1493 C1479 0.961 . S
H1494 C1479 0.961 . S
H1495 C1479 0.961 . S
H1496 C1480 0.931 . S
H1497 C1485 0.930 . S
H1498 C1486 0.956 . S
H1499 C1486 0.961 . S
H1500 C1486 0.961 . S
H1501 C1487 0.958 . S
H1502 C1487 0.961 . S
H1503 C1487 0.960 . S
C1504 C1505 1.391 . S
C1504 C1506 1.394 . S
C1504 H1520 0.931 . S
C1505 C1504 1.391 . S
C1505 C1509 1.376 . S
C1506 C1504 1.394 . S
C1506 C1507 1.369 . S
C1506 C1510 1.531 . S
C1507 C1506 1.369 . S
C1507 C1508 1.410 . S
C1507 C1515 1.503 . S
C1508 C1507 1.410 . S
C1508 C1509 1.392 . S
C1508 C1511 1.511 . S
C1509 C1505 1.376 . S
C1509 C1508 1.392 . S
C1509 H1521 0.929 . S
C1510 C1506 1.531 . S
C1510 H1522 0.960 . S
C1510 H1523 0.962 . S
C1510 H1524 0.960 . S
C1511 C1508 1.511 . S
C1511 H1525 0.961 . S
C1511 H1526 0.961 . S
C1511 H1527 0.961 . S
C1512 C1513 1.370 . S
C1512 C1514 1.363 . S
C1512 H1528 0.931 . S
C1513 C1512 1.370 . S
C1513 C1517 1.408 . S
C1514 C1512 1.363 . S
C1514 C1515 1.370 . S
C1514 C1518 1.524 . S
C1515 C1507 1.503 . S
C1515 C1514 1.370 . S
C1515 C1516 1.403 . S
C1516 C1515 1.403 . S
C1516 C1517 1.404 . S
C1516 C1519 1.539 . S
C1517 C1513 1.408 . S
C1517 C1516 1.404 . S
C1517 H1529 0.930 . S
C1518 C1514 1.524 . S
C1518 H1530 0.956 . S
C1518 H1531 0.961 . S
C1518 H1532 0.961 . S
C1519 C1516 1.539 . S
C1519 H1533 0.958 . S
C1519 H1534 0.961 . S
C1519 H1535 0.960 . S
H1520 C1504 0.931 . S
H1521 C1509 0.929 . S
H1522 C1510 0.960 . S
H1523 C1510 0.962 . S
H1524 C1510 0.960 . S
H1525 C1511 0.961 . S
H1526 C1511 0.961 . S
H1527 C1511 0.961 . S
H1528 C1512 0.931 . S
H1529 C1517 0.930 . S
H1530 C1518 0.956 . S
H1531 C1518 0.961 . S
H1532 C1518 0.961 . S
H1533 C1519 0.958 . S
H1534 C1519 0.961 . S
H1535 C1519 0.960 . S
C1536 C1537 1.391 . S
C1536 C1538 1.394 . S
C1536 H1552 0.931 . S
C1537 C1536 1.391 . S
C1537 C1541 1.376 . S
C1538 C1536 1.394 . S
C1538 C1539 1.369 . S
C1538 C1542 1.531 . S
C1539 C1538 1.369 . S
C1539 C1540 1.410 . S
C1539 C1547 1.503 . S
C1540 C1539 1.410 . S
C1540 C1541 1.392 . S
C1540 C1543 1.511 . S
C1541 C1537 1.376 . S
C1541 C1540 1.392 . S
C1541 H1553 0.929 . S
C1542 C1538 1.531 . S
C1542 H1554 0.960 . S
C1542 H1555 0.962 . S
C1542 H1556 0.960 . S
C1543 C1540 1.511 . S
C1543 H1557 0.961 . S
C1543 H1558 0.961 . S
C1543 H1559 0.961 . S
C1544 C1545 1.370 . S
C1544 C1546 1.363 . S
C1544 H1560 0.931 . S
C1545 C1544 1.370 . S
C1545 C1549 1.408 . S
C1546 C1544 1.363 . S
C1546 C1547 1.370 . S
C1546 C1550 1.524 . S
C1547 C1539 1.503 . S
C1547 C1546 1.370 . S
C1547 C1548 1.403 . S
C1548 C1547 1.403 . S
C1548 C1549 1.404 . S
C1548 C1551 1.539 . S
C1549 C1545 1.408 . S
C1549 C1548 1.404 . S
C1549 H1561 0.930 . S
C1550 C1546 1.524 . S
C1550 H1562 0.956 . S
C1550 H1563 0.961 . S
C1550 H1564 0.961 . S
C1551 C1548 1.539 . S
C1551 H1565 0.958 . S
C1551 H1566 0.961 . S
C1551 H1567 0.960 . S
H1552 C1536 0.931 . S
H1553 C1541 0.929 . S
H1554 C1542 0.960 . S
H1555 C1542 0.962 . S
H1556 C1542 0.960 . S
H1557 C1543 0.961 . S
H1558 C1543 0.961 . S
H1559 C1543 0.961 . S
H1560 C1544 0.931 . S
H1561 C1549 0.930 . S
H1562 C1550 0.956 . S
H1563 C1550 0.961 . S
H1564 C1550 0.961 . S
H1565 C1551 0.958 . S
H1566 C1551 0.961 . S
H1567 C1551 0.960 . S
C1568 C1569 1.391 . S
C1568 C1570 1.394 . S
C1568 H1584 0.931 . S
C1569 C1568 1.391 . S
C1569 C1573 1.376 . S
C1570 C1568 1.394 . S
C1570 C1571 1.369 . S
C1570 C1574 1.531 . S
C1571 C1570 1.369 . S
C1571 C1572 1.410 . S
C1571 C1579 1.503 . S
C1572 C1571 1.410 . S
C1572 C1573 1.392 . S
C1572 C1575 1.511 . S
C1573 C1569 1.376 . S
C1573 C1572 1.392 . S
C1573 H1585 0.929 . S
C1574 C1570 1.531 . S
C1574 H1586 0.960 . S
C1574 H1587 0.962 . S
C1574 H1588 0.960 . S
C1575 C1572 1.511 . S
C1575 H1589 0.961 . S
C1575 H1590 0.961 . S
C1575 H1591 0.961 . S
C1576 C1577 1.370 . S
C1576 C1578 1.363 . S
C1576 H1592 0.931 . S
C1577 C1576 1.370 . S
C1577 C1581 1.408 . S
C1578 C1576 1.363 . S
C1578 C1579 1.370 . S
C1578 C1582 1.524 . S
C1579 C1571 1.503 . S
C1579 C1578 1.370 . S
C1579 C1580 1.403 . S
C1580 C1579 1.403 . S
C1580 C1581 1.404 . S
C1580 C1583 1.539 . S
C1581 C1577 1.408 . S
C1581 C1580 1.404 . S
C1581 H1593 0.930 . S
C1582 C1578 1.524 . S
C1582 H1594 0.956 . S
C1582 H1595 0.961 . S
C1582 H1596 0.961 . S
C1583 C1580 1.539 . S
C1583 H1597 0.958 . S
C1583 H1598 0.961 . S
C1583 H1599 0.960 . S
H1584 C1568 0.931 . S
H1585 C1573 0.929 . S
H1586 C1574 0.960 . S
H1587 C1574 0.962 . S
H1588 C1574 0.960 . S
H1589 C1575 0.961 . S
H1590 C1575 0.961 . S
H1591 C1575 0.961 . S
H1592 C1576 0.931 . S
H1593 C1581 0.930 . S
H1594 C1582 0.956 . S
H1595 C1582 0.961 . S
H1596 C1582 0.961 . S
H1597 C1583 0.958 . S
H1598 C1583 0.961 . S
H1599 C1583 0.960 . S
C1600 C1601 1.391 . S
C1600 C1602 1.394 . S
C1600 H1616 0.931 . S
C1601 C1600 1.391 . S
C1601 C1605 1.376 . S
C1602 C1600 1.394 . S
C1602 C1603 1.369 . S
C1602 C1606 1.531 . S
C1603 C1602 1.369 . S
C1603 C1604 1.410 . S
C1603 C1611 1.503 . S
C1604 C1603 1.410 . S
C1604 C1605 1.392 . S
C1604 C1607 1.511 . S
C1605 C1601 1.376 . S
C1605 C1604 1.392 . S
C1605 H1617 0.929 . S
C1606 C1602 1.531 . S
C1606 H1618 0.960 . S
C1606 H1619 0.962 . S
C1606 H1620 0.960 . S
C1607 C1604 1.511 . S
C1607 H1621 0.961 . S
C1607 H1622 0.961 . S
C1607 H1623 0.961 . S
C1608 C1609 1.370 . S
C1608 C1610 1.363 . S
C1608 H1624 0.931 . S
C1609 C1608 1.370 . S
C1609 C1613 1.408 . S
C1610 C1608 1.363 . S
C1610 C1611 1.370 . S
C1610 C1614 1.524 . S
C1611 C1603 1.503 . S
C1611 C1610 1.370 . S
C1611 C1612 1.403 . S
C1612 C1611 1.403 . S
C1612 C1613 1.404 . S
C1612 C1615 1.539 . S
C1613 C1609 1.408 . S
C1613 C1612 1.404 . S
C1613 H1625 0.930 . S
C1614 C1610 1.524 . S
C1614 H1626 0.956 . S
C1614 H1627 0.961 . S
C1614 H1628 0.961 . S
C1615 C1612 1.539 . S
C1615 H1629 0.958 . S
C1615 H1630 0.961 . S
C1615 H1631 0.960 . S
H1616 C1600 0.931 . S
H1617 C1605 0.929 . S
H1618 C1606 0.960 . S
H1619 C1606 0.962 . S
H1620 C1606 0.960 . S
H1621 C1607 0.961 . S
H1622 C1607 0.961 . S
H1623 C1607 0.961 . S
H1624 C1608 0.931 . S
H1625 C1613 0.930 . S
H1626 C1614 0.956 . S
H1627 C1614 0.961 . S
H1628 C1614 0.961 . S
H1629 C1615 0.958 . S
H1630 C1615 0.961 . S
H1631 C1615 0.960 . S
C1632 C1633 1.391 . S
C1632 C1634 1.394 . S
C1632 H1648 0.931 . S
C1633 C1632 1.391 . S
C1633 C1637 1.376 . S
C1634 C1632 1.394 . S
C1634 C1635 1.369 . S
C1634 C1638 1.531 . S
C1635 C1634 1.369 . S
C1635 C1636 1.410 . S
C1635 C1643 1.503 . S
C1636 C1635 1.410 . S
C1636 C1637 1.392 . S
C1636 C1639 1.511 . S
C1637 C1633 1.376 . S
C1637 C1636 1.392 . S
C1637 H1649 0.929 . S
C1638 C1634 1.531 . S
C1638 H1650 0.960 . S
C1638 H1651 0.962 . S
C1638 H1652 0.960 . S
C1639 C1636 1.511 . S
C1639 H1653 0.961 . S
C1639 H1654 0.961 . S
C1639 H1655 0.961 . S
C1640 C1641 1.370 . S
C1640 C1642 1.363 . S
C1640 H1656 0.931 . S
C1641 C1640 1.370 . S
C1641 C1645 1.408 . S
C1642 C1640 1.363 . S
C1642 C1643 1.370 . S
C1642 C1646 1.524 . S
C1643 C1635 1.503 . S
C1643 C1642 1.370 . S
C1643 C1644 1.403 . S
C1644 C1643 1.403 . S
C1644 C1645 1.404 . S
C1644 C1647 1.539 . S
C1645 C1641 1.408 . S
C1645 C1644 1.404 . S
C1645 H1657 0.930 . S
C1646 C1642 1.524 . S
C1646 H1658 0.956 . S
C1646 H1659 0.961 . S
C1646 H1660 0.961 . S
C1647 C1644 1.539 . S
C1647 H1661 0.958 . S
C1647 H1662 0.961 . S
C1647 H1663 0.960 . S
H1648 C1632 0.931 . S
H1649 C1637 0.929 . S
H1650 C1638 0.960 . S
H1651 C1638 0.962 . S
H1652 C1638 0.960 . S
H1653 C1639 0.961 . S
H1654 C1639 0.961 . S
H1655 C1639 0.961 . S
H1656 C1640 0.931 . S
H1657 C1645 0.930 . S
H1658 C1646 0.956 . S
H1659 C1646 0.961 . S
H1660 C1646 0.961 . S
H1661 C1647 0.958 . S
H1662 C1647 0.961 . S
H1663 C1647 0.960 . S
C1664 C1665 1.391 . S
C1664 C1666 1.394 . S
C1664 H1680 0.931 . S
C1665 C1664 1.391 . S
C1665 C1669 1.376 . S
C1666 C1664 1.394 . S
C1666 C1667 1.369 . S
C1666 C1670 1.531 . S
C1667 C1666 1.369 . S
C1667 C1668 1.410 . S
C1667 C1675 1.503 . S
C1668 C1667 1.410 . S
C1668 C1669 1.392 . S
C1668 C1671 1.511 . S
C1669 C1665 1.376 . S
C1669 C1668 1.392 . S
C1669 H1681 0.929 . S
C1670 C1666 1.531 . S
C1670 H1682 0.960 . S
C1670 H1683 0.962 . S
C1670 H1684 0.960 . S
C1671 C1668 1.511 . S
C1671 H1685 0.961 . S
C1671 H1686 0.961 . S
C1671 H1687 0.961 . S
C1672 C1673 1.370 . S
C1672 C1674 1.363 . S
C1672 H1688 0.931 . S
C1673 C1672 1.370 . S
C1673 C1677 1.408 . S
C1674 C1672 1.363 . S
C1674 C1675 1.370 . S
C1674 C1678 1.524 . S
C1675 C1667 1.503 . S
C1675 C1674 1.370 . S
C1675 C1676 1.403 . S
C1676 C1675 1.403 . S
C1676 C1677 1.404 . S
C1676 C1679 1.539 . S
C1677 C1673 1.408 . S
C1677 C1676 1.404 . S
C1677 H1689 0.930 . S
C1678 C1674 1.524 . S
C1678 H1690 0.956 . S
C1678 H1691 0.961 . S
C1678 H1692 0.961 . S
C1679 C1676 1.539 . S
C1679 H1693 0.958 . S
C1679 H1694 0.961 . S
C1679 H1695 0.960 . S
H1680 C1664 0.931 . S
H1681 C1669 0.929 . S
H1682 C1670 0.960 . S
H1683 C1670 0.962 . S
H1684 C1670 0.960 . S
H1685 C1671 0.961 . S
H1686 C1671 0.961 . S
H1687 C1671 0.961 . S
H1688 C1672 0.931 . S
H1689 C1677 0.930 . S
H1690 C1678 0.956 . S
H1691 C1678 0.961 . S
H1692 C1678 0.961 . S
H1693 C1679 0.958 . S
H1694 C1679 0.961 . S
H1695 C1679 0.960 . S
C1696 C1697 1.391 . S
C1696 C1698 1.394 . S
C1696 H1712 0.931 . S
C1697 C1696 1.391 . S
C1697 C1701 1.376 . S
C1698 C1696 1.394 . S
C1698 C1699 1.369 . S
C1698 C1702 1.531 . S
C1699 C1698 1.369 . S
C1699 C1700 1.410 . S
C1699 C1707 1.503 . S
C1700 C1699 1.410 . S
C1700 C1701 1.392 . S
C1700 C1703 1.511 . S
C1701 C1697 1.376 . S
C1701 C1700 1.392 . S
C1701 H1713 0.929 . S
C1702 C1698 1.531 . S
C1702 H1714 0.960 . S
C1702 H1715 0.962 . S
C1702 H1716 0.960 . S
C1703 C1700 1.511 . S
C1703 H1717 0.961 . S
C1703 H1718 0.961 . S
C1703 H1719 0.961 . S
C1704 C1705 1.370 . S
C1704 C1706 1.363 . S
C1704 H1720 0.931 . S
C1705 C1704 1.370 . S
C1705 C1709 1.408 . S
C1706 C1704 1.363 . S
C1706 C1707 1.370 . S
C1706 C1710 1.524 . S
C1707 C1699 1.503 . S
C1707 C1706 1.370 . S
C1707 C1708 1.403 . S
C1708 C1707 1.403 . S
C1708 C1709 1.404 . S
C1708 C1711 1.539 . S
C1709 C1705 1.408 . S
C1709 C1708 1.404 . S
C1709 H1721 0.930 . S
C1710 C1706 1.524 . S
C1710 H1722 0.956 . S
C1710 H1723 0.961 . S
C1710 H1724 0.961 . S
C1711 C1708 1.539 . S
C1711 H1725 0.958 . S
C1711 H1726 0.961 . S
C1711 H1727 0.960 . S
H1712 C1696 0.931 . S
H1713 C1701 0.929 . S
H1714 C1702 0.960 . S
H1715 C1702 0.962 . S
H1716 C1702 0.960 . S
H1717 C1703 0.961 . S
H1718 C1703 0.961 . S
H1719 C1703 0.961 . S
H1720 C1704 0.931 . S
H1721 C1709 0.930 . S
H1722 C1710 0.956 . S
H1723 C1710 0.961 . S
H1724 C1710 0.961 . S
H1725 C1711 0.958 . S
H1726 C1711 0.961 . S
H1727 C1711 0.960 . S
C1728 C1729 1.391 . S
C1728 C1730 1.394 . S
C1728 H1744 0.931 . S
C1729 C1728 1.391 . S
C1729 C1733 1.376 . S
C1730 C1728 1.394 . S
C1730 C1731 1.369 . S
C1730 C1734 1.531 . S
C1731 C1730 1.369 . S
C1731 C1732 1.410 . S
C1731 C1739 1.503 . S
C1732 C1731 1.410 . S
C1732 C1733 1.392 . S
C1732 C1735 1.511 . S
C1733 C1729 1.376 . S
C1733 C1732 1.392 . S
C1733 H1745 0.929 . S
C1734 C1730 1.531 . S
C1734 H1746 0.960 . S
C1734 H1747 0.962 . S
C1734 H1748 0.960 . S
C1735 C1732 1.511 . S
C1735 H1749 0.961 . S
C1735 H1750 0.961 . S
C1735 H1751 0.961 . S
C1736 C1737 1.370 . S
C1736 C1738 1.363 . S
C1736 H1752 0.931 . S
C1737 C1736 1.370 . S
C1737 C1741 1.408 . S
C1738 C1736 1.363 . S
C1738 C1739 1.370 . S
C1738 C1742 1.524 . S
C1739 C1731 1.503 . S
C1739 C1738 1.370 . S
C1739 C1740 1.403 . S
C1740 C1739 1.403 . S
C1740 C1741 1.404 . S
C1740 C1743 1.539 . S
C1741 C1737 1.408 . S
C1741 C1740 1.404 . S
C1741 H1753 0.930 . S
C1742 C1738 1.524 . S
C1742 H1754 0.956 . S
C1742 H1755 0.961 . S
C1742 H1756 0.961 . S
C1743 C1740 1.539 . S
C1743 H1757 0.958 . S
C1743 H1758 0.961 . S
C1743 H1759 0.960 . S
H1744 C1728 0.931 . S
H1745 C1733 0.929 . S
H1746 C1734 0.960 . S
H1747 C1734 0.962 . S
H1748 C1734 0.960 . S
H1749 C1735 0.961 . S
H1750 C1735 0.961 . S
H1751 C1735 0.961 . S
H1752 C1736 0.931 . S
H1753 C1741 0.930 . S
H1754 C1742 0.956 . S
H1755 C1742 0.961 . S
H1756 C1742 0.961 . S
H1757 C1743 0.958 . S
H1758 C1743 0.961 . S
H1759 C1743 0.960 . S
C1760 C1761 1.391 . S
C1760 C1762 1.394 . S
C1760 H1776 0.931 . S
C1761 C1760 1.391 . S
C1761 C1765 1.376 . S
C1762 C1760 1.394 . S
C1762 C1763 1.369 . S
C1762 C1766 1.531 . S
C1763 C1762 1.369 . S
C1763 C1764 1.410 . S
C1763 C1771 1.503 . S
C1764 C1763 1.410 . S
C1764 C1765 1.392 . S
C1764 C1767 1.511 . S
C1765 C1761 1.376 . S
C1765 C1764 1.392 . S
C1765 H1777 0.929 . S
C1766 C1762 1.531 . S
C1766 H1778 0.960 . S
C1766 H1779 0.962 . S
C1766 H1780 0.960 . S
C1767 C1764 1.511 . S
C1767 H1781 0.961 . S
C1767 H1782 0.961 . S
C1767 H1783 0.961 . S
C1768 C1769 1.370 . S
C1768 C1770 1.363 . S
C1768 H1784 0.931 . S
C1769 C1768 1.370 . S
C1769 C1773 1.408 . S
C1770 C1768 1.363 . S
C1770 C1771 1.370 . S
C1770 C1774 1.524 . S
C1771 C1763 1.503 . S
C1771 C1770 1.370 . S
C1771 C1772 1.403 . S
C1772 C1771 1.403 . S
C1772 C1773 1.404 . S
C1772 C1775 1.539 . S
C1773 C1769 1.408 . S
C1773 C1772 1.404 . S
C1773 H1785 0.930 . S
C1774 C1770 1.524 . S
C1774 H1786 0.956 . S
C1774 H1787 0.961 . S
C1774 H1788 0.961 . S
C1775 C1772 1.539 . S
C1775 H1789 0.958 . S
C1775 H1790 0.961 . S
C1775 H1791 0.960 . S
H1776 C1760 0.931 . S
H1777 C1765 0.929 . S
H1778 C1766 0.960 . S
H1779 C1766 0.962 . S
H1780 C1766 0.960 . S
H1781 C1767 0.961 . S
H1782 C1767 0.961 . S
H1783 C1767 0.961 . S
H1784 C1768 0.931 . S
H1785 C1773 0.930 . S
H1786 C1774 0.956 . S
H1787 C1774 0.961 . S
H1788 C1774 0.961 . S
H1789 C1775 0.958 . S
H1790 C1775 0.961 . S
H1791 C1775 0.960 . S
C1792 C1793 1.391 . S
C1792 C1794 1.394 . S
C1792 H1808 0.931 . S
C1793 C1792 1.391 . S
C1793 C1797 1.376 . S
C1794 C1792 1.394 . S
C1794 C1795 1.369 . S
C1794 C1798 1.531 . S
C1795 C1794 1.369 . S
C1795 C1796 1.410 . S
C1795 C1803 1.503 . S
C1796 C1795 1.410 . S
C1796 C1797 1.392 . S
C1796 C1799 1.511 . S
C1797 C1793 1.376 . S
C1797 C1796 1.392 . S
C1797 H1809 0.929 . S
C1798 C1794 1.531 . S
C1798 H1810 0.960 . S
C1798 H1811 0.962 . S
C1798 H1812 0.960 . S
C1799 C1796 1.511 . S
C1799 H1813 0.961 . S
C1799 H1814 0.961 . S
C1799 H1815 0.961 . S
C1800 C1801 1.370 . S
C1800 C1802 1.363 . S
C1800 H1816 0.931 . S
C1801 C1800 1.370 . S
C1801 C1805 1.408 . S
C1802 C1800 1.363 . S
C1802 C1803 1.370 . S
C1802 C1806 1.524 . S
C1803 C1795 1.503 . S
C1803 C1802 1.370 . S
C1803 C1804 1.403 . S
C1804 C1803 1.403 . S
C1804 C1805 1.404 . S
C1804 C1807 1.539 . S
C1805 C1801 1.408 . S
C1805 C1804 1.404 . S
C1805 H1817 0.930 . S
C1806 C1802 1.524 . S
C1806 H1818 0.956 . S
C1806 H1819 0.961 . S
C1806 H1820 0.961 . S
C1807 C1804 1.539 . S
C1807 H1821 0.958 . S
C1807 H1822 0.961 . S
C1807 H1823 0.960 . S
H1808 C1792 0.931 . S
H1809 C1797 0.929 . S
H1810 C1798 0.960 . S
H1811 C1798 0.962 . S
H1812 C1798 0.960 . S
H1813 C1799 0.961 . S
H1814 C1799 0.961 . S
H1815 C1799 0.961 . S
H1816 C1800 0.931 . S
H1817 C1805 0.930 . S
H1818 C1806 0.956 . S
H1819 C1806 0.961 . S
H1820 C1806 0.961 . S
H1821 C1807 0.958 . S
H1822 C1807 0.961 . S
H1823 C1807 0.960 . S
C1057 C49 1.208 . S
C1065 C469 1.212 . S
C1089 C145 1.205 1_565 S
C1097 C401 1.212 1_565 S
C1121 C489 1.204 . S
C1129 C225 1.211 . S
C1153 C313 1.202 1_565 S
C1161 C381 1.211 . S
C1185 C636 1.218 . S
C1193 C205 1.218 . S
C1217 C548 1.221 1_565 S
C1225 C293 1.219 . S
C1249 C29 1.223 1_655 S
C1257 C673 1.219 . S
C1281 C585 1.209 . S
C1289 C108 1.212 . S
C1313 C849 1.216 . S
C1321 C733 1.218 . S
C1345 C753 1.202 . S
C1353 C997 1.211 . S
C1377 C812 1.221 1_556 S
C1385 C937 1.219 1_556 S
C1409 C900 1.202 . S
C1417 C1017 1.211 1_556 S
C1441 C1025 1.206 . S
C1449 C557 1.216 . S
C1473 C761 1.208 . S
C1481 C665 1.213 . S
C1505 C577 1.205 . S
C1513 C841 1.212 . S
C1537 C645 1.206 . S
C1545 C929 1.218 . S
C1569 C372 1.205 . S
C1577 C821 1.207 . S
C1601 C460 1.203 . S
C1609 C909 1.211 . S
C1633 C988 1.203 . S
C1641 C409 1.211 . S
C1665 C724 1.220 . S
C1673 C497 1.213 . S
C1697 C117 1.208 . S
C1705 C233 1.218 . S
C1729 C20 1.202 . S
C1737 C137 1.211 . S
C1761 C196 1.216 . S
C1769 C321 1.216 . S
C1793 C57 1.214 . S
C1801 C284 1.212 . S
