# Generated by pormake.
# Topology lcy, (6)-cn, num edge types: 1
# Building blocks:
#     Node 0, Type 0, BuildingBlock: LEVNOQ01_clean_sbu_1, # of connection points: 6
#     Node 1, Type 0, BuildingBlock: LEVNOQ01_clean_sbu_1, # of connection points: 6
#     Node 2, Type 0, BuildingBlock: LEVNOQ01_clean_sbu_1, # of connection points: 6
#     Node 3, Type 0, BuildingBlock: LEVNOQ01_clean_sbu_1, # of connection points: 6
#     Edge 4, Type (0, 0), BuildingBlock: EZIPEK_clean_linker_0, # of connection points: 2
#     Edge 5, Type (0, 0), BuildingBlock: EZIPEK_clean_linker_0, # of connection points: 2
#     Edge 6, Type (0, 0), BuildingBlock: EZIPEK_clean_linker_0, # of connection points: 2
#     Edge 7, Type (0, 0), BuildingBlock: EZIPEK_clean_linker_0, # of connection points: 2
#     Edge 8, Type (0, 0), BuildingBlock: EZIPEK_clean_linker_0, # of connection points: 2
#     Edge 9, Type (0, 0), BuildingBlock: EZIPEK_clean_linker_0, # of connection points: 2
#     Edge 10, Type (0, 0), BuildingBlock: EZIPEK_clean_linker_0, # of connection points: 2
#     Edge 11, Type (0, 0), BuildingBlock: EZIPEK_clean_linker_0, # of connection points: 2
#     Edge 12, Type (0, 0), BuildingBlock: EZIPEK_clean_linker_0, # of connection points: 2
#     Edge 13, Type (0, 0), BuildingBlock: EZIPEK_clean_linker_0, # of connection points: 2
#     Edge 14, Type (0, 0), BuildingBlock: EZIPEK_clean_linker_0, # of connection points: 2
#     Edge 15, Type (0, 0), BuildingBlock: EZIPEK_clean_linker_0, # of connection points: 2
# Relax obj value: 0.339
# Max RMSD: 0.281
# Mean RMSD: 0.277
data_MOF--net-lcy--node1-LEVNOQ01_clean_sbu_1--edge1-EZIPEK_clean_linker_0
_symmetry_space_group_name_H-M    P1
_symmetry_Int_Tables_number       1
_symmetry_cell_setting            triclinic
loop_
_symmetry_equiv_pos_as_xyz
'x, y, z'
_cell_length_a     19.30183
_cell_length_b     17.192887
_cell_length_c     19.322709
_cell_angle_alpha  89.665746
_cell_angle_beta   89.585114
_cell_angle_gamma 91.786214
loop_
_atom_site_label
_atom_site_type_symbol
_atom_site_fract_x
_atom_site_fract_y
_atom_site_fract_z
_atom_type_partial_charge
O0 O 0.51697 0.47531 0.42319 0.0
Mg1 Mg 0.43901 0.55955 0.39871 0.0
O2 O 0.45653 0.36907 0.46158 0.0
Mg3 Mg 0.36096 0.38117 0.39352 0.0
O4 O 0.35599 0.50128 0.43179 0.0
O5 O 0.39103 0.60121 0.49183 0.0
O6 O 0.28037 0.40079 0.31061 0.0
O7 O 0.27429 0.36063 0.47936 0.0
Mg8 Mg 0.26347 0.23215 0.37608 0.0
O9 O 0.36844 0.25259 0.36077 0.0
O10 O 0.21424 0.29473 0.29561 0.0
O11 O 0.22141 0.2455 0.47605 0.0
O12 O 0.31815 0.13509 0.34959 0.0
C13 C 0.43174 0.48449 0.27372 0.0
C14 C 0.51387 0.40789 0.45171 0.0
C15 C 0.35208 0.53969 0.48775 0.0
C16 C 0.23433 0.36273 0.27699 0.0
C17 C 0.2285 0.31206 0.50297 0.0
C18 C 0.37237 0.18026 0.34249 0.0
O19 O 0.39337 0.53405 0.30144 0.0
O20 O 0.4381 0.41917 0.30482 0.0
O21 O 0.91301 0.05086 0.4627 0.0
Mg22 Mg 0.96384 0.09489 0.54811 0.0
O23 O 0.82447 0.11405 0.50452 0.0
Mg24 Mg 0.83841 0.1464 0.6209 0.0
O25 O 0.92656 0.05898 0.64257 0.0
O26 O 0.02708 0.02146 0.59533 0.0
O27 O 0.83992 0.18407 0.73401 0.0
O28 O 0.77043 0.03744 0.65176 0.0
Mg29 Mg 0.6863 0.19819 0.69098 0.0
O30 O 0.74758 0.22649 0.60508 0.0
O31 O 0.7524 0.26355 0.75402 0.0
O32 O 0.68502 0.08097 0.7165 0.0
O33 O 0.63436 0.22124 0.6 0.0
C34 C 0.97945 0.26124 0.57377 0.0
C35 C 0.85275 0.07589 0.45617 0.0
C36 C 0.98128 0.01647 0.64426 0.0
C37 C 0.81556 0.24612 0.75968 0.0
C38 C 0.72019 0.02554 0.69407 0.0
C39 C 0.69266 0.23143 0.56825 0.0
O40 O 0.00605 0.20489 0.54316 0.0
O41 O 0.91943 0.25427 0.60269 0.0
O42 O 0.27379 0.69164 0.84685 0.0
Mg43 Mg 0.17798 0.689 0.79648 0.0
O44 O 0.2053 0.67973 0.93604 0.0
Mg45 Mg 0.12585 0.60089 0.87793 0.0
O46 O 0.07611 0.70532 0.8167 0.0
O47 O 0.15236 0.79994 0.78226 0.0
O48 O 0.0422 0.51801 0.82142 0.0
O49 O 0.04122 0.63688 0.95392 0.0
Mg50 Mg 0.09557 0.48017 0.92002 0.0
O51 O 0.18132 0.522 0.96522 0.0
O52 O 0.10668 0.41627 0.82769 0.0
O53 O -0.00548 0.5197 0.94475 0.0
O54 O 0.11739 0.41833 0.00363 0.0
C55 C 0.20019 0.56667 0.72324 0.0
C56 C 0.26488 0.69548 0.91099 0.0
C57 C 0.08963 0.77581 0.79439 0.0
C58 C 0.05072 0.44596 0.80933 0.0
C59 C 0.98888 0.59034 0.96022 0.0
C60 C 0.16846 0.46718 0.01075 0.0
O61 O 0.17999 0.63267 0.7059 0.0
O62 O 0.20185 0.54894 0.78804 0.0
O63 O 0.77576 0.85499 0.23417 0.0
Mg64 Mg 0.76927 0.76142 0.16754 0.0
O65 O 0.73551 0.93848 0.15924 0.0
Mg66 Mg 0.65102 0.86182 0.10566 0.0
O67 O 0.72174 0.76476 0.071 0.0
O68 O 0.83436 0.77909 0.08319 0.0
O69 O 0.55926 0.79611 0.05712 0.0
O70 O 0.68569 0.90219 -0.00763 0.0
Mg71 Mg 0.59492 0.97147 0.04683 0.0
O72 O 0.57791 0.96453 0.15156 0.0
O73 O 0.51804 0.89732 0.0024 0.0
O74 O 0.6703 0.02547 0.98042 0.0
O75 O 0.55127 0.06596 0.08458 0.0
C76 C 0.63 0.71528 0.21377 0.0
C77 C 0.76454 0.92391 0.2165 0.0
C78 C 0.78284 0.76127 0.04438 0.0
C79 C 0.51371 0.82596 0.01889 0.0
C80 C 0.69277 0.96359 0.95598 0.0
C81 C 0.54833 0.03148 0.1437 0.0
O82 O 0.6882 0.68758 0.19806 0.0
O83 O 0.61865 0.78788 0.20447 0.0
C84 C 0.23929 0.3868 0.08259 0.0
C85 C 0.2091 0.45916 0.07401 0.0
C86 C 0.19894 0.47245 0.19978 0.0
C87 C 0.21719 0.39311 0.20738 0.0
N88 N 0.24349 0.27043 0.15093 0.0
N89 N 0.16342 0.57542 0.12193 0.0
C90 C 0.23446 0.34892 0.14754 0.0
C91 C 0.19132 0.50424 0.1321 0.0
N92 N 0.27096 0.35359 0.0272 0.0
N93 N 0.18725 0.51658 0.25709 0.0
H94 H 0.16103 0.60104 0.07295 0.0
H95 H 0.14129 0.60801 0.16104 0.0
H96 H 0.18427 0.49322 0.30699 0.0
H97 H 0.18238 0.57668 0.25555 0.0
H98 H 0.30004 0.30368 0.03107 0.0
H99 H 0.27404 0.38157 0.97905 0.0
H100 H 0.24778 0.23601 0.10699 0.0
H101 H 0.24108 0.23709 0.1958 0.0
C102 C 0.73562 0.96595 0.33505 0.0
C103 C 0.77054 0.98286 0.27137 0.0
C104 C 0.84446 0.08089 0.32774 0.0
C105 C 0.8149 0.05717 0.39236 0.0
N106 N 0.72239 0.99192 0.45729 0.0
N107 N 0.84673 0.06546 0.20243 0.0
C108 C 0.75665 0.00515 0.39584 0.0
C109 C 0.8207 0.04433 0.26602 0.0
N110 N 0.6846 0.90886 0.3375 0.0
N111 N 0.89675 0.13648 0.32649 0.0
H112 H 0.83031 0.03862 0.15692 0.0
H113 H 0.88165 0.11175 0.1936 0.0
H114 H 0.91181 0.16727 0.37059 0.0
H115 H 0.92556 0.15244 0.28275 0.0
H116 H 0.66427 0.8841 0.3828 0.0
H117 H 0.66242 0.88544 0.29296 0.0
H118 H 0.6748 0.96219 0.46169 0.0
H119 H 0.73835 0.01539 0.50425 0.0
C120 C 0.1935 0.5278 0.60081 0.0
C121 C 0.22577 0.51779 0.66596 0.0
C122 C 0.33444 0.48901 0.60845 0.0
C123 C 0.30587 0.51566 0.54527 0.0
N124 N 0.20753 0.55219 0.47769 0.0
N125 N 0.31379 0.45364 0.72939 0.0
C126 C 0.23446 0.52995 0.53982 0.0
C127 C 0.29214 0.48626 0.66911 0.0
N128 N 0.12391 0.5389 0.59877 0.0
N129 N 0.4027 0.47054 0.61077 0.0
H130 H 0.28101 0.44699 0.77227 0.0
H131 H 0.3604 0.42547 0.73462 0.0
H132 H 0.43406 0.47025 0.56662 0.0
H133 H 0.42892 0.45824 0.65619 0.0
H134 H 0.09487 0.54199 0.55377 0.0
H135 H 0.09457 0.53992 0.64395 0.0
H136 H 0.15771 0.57228 0.47134 0.0
H137 H 0.23585 0.5523 0.43154 0.0
C138 C 0.64081 0.94983 0.83746 0.0
C139 C 0.70114 0.95578 0.87994 0.0
C140 C 0.77281 0.93938 0.77657 0.0
C141 C 0.71469 0.95333 0.73572 0.0
N142 N 0.59463 0.92412 0.72232 0.0
N143 N 0.82563 0.95161 0.88968 0.0
C144 C 0.64908 0.93884 0.76521 0.0
C145 C 0.76768 0.94748 0.84965 0.0
N146 N 0.57664 0.96209 0.86455 0.0
N147 N 0.83186 0.91728 0.74483 0.0
H148 H 0.82326 0.95699 0.94341 0.0
H149 H 0.87569 0.95316 0.86906 0.0
H150 H 0.83438 0.91175 0.69104 0.0
H151 H 0.87319 0.8955 0.77229 0.0
H152 H 0.53177 0.96333 0.83507 0.0
H153 H 0.56914 0.97988 0.91519 0.0
H154 H 0.54492 0.90851 0.7398 0.0
H155 H 0.60225 0.92128 0.66877 0.0
C156 C 0.08316 0.30809 0.63279 0.0
C157 C 0.02897 0.32657 0.58693 0.0
C158 C 0.11297 0.37506 0.50157 0.0
C159 C 0.1668 0.34093 0.54064 0.0
N160 N 0.20779 0.29948 0.65116 0.0
N161 N 0.99149 0.41037 0.49764 0.0
C162 C 0.15347 0.3169 0.6097 0.0
C163 C 0.04434 0.37344 0.52897 0.0
N164 N 0.06604 0.27221 0.69396 0.0
N165 N 0.12611 0.40247 0.43618 0.0
H166 H 0.94102 0.4054 0.51755 0.0
H167 H -0.00135 0.44996 0.45703 0.0
H168 H 0.17576 0.40594 0.41478 0.0
H169 H 0.08767 0.41982 0.40242 0.0
H170 H 0.10172 0.25008 0.7284 0.0
H171 H 0.01424 0.26362 0.70895 0.0
H172 H 0.2027 0.2846 0.70326 0.0
H173 H 0.25901 0.30579 0.63368 0.0
C174 C 0.00912 0.8112 0.70155 0.0
C175 C 0.03436 0.82524 0.76905 0.0
C176 C 0.0017 0.96154 0.76284 0.0
C177 C 0.98563 0.95001 0.69214 0.0
N178 N 0.95842 0.86432 0.59723 0.0
N179 N 0.03751 0.90269 0.87157 0.0
C180 C 0.98352 0.87436 0.66282 0.0
C181 C 0.02428 0.89708 0.80241 0.0
N182 N 0.01291 0.73828 0.67397 0.0
N183 N -0.00221 0.03419 0.79066 0.0
H184 H 0.05292 0.85478 0.9005 0.0
H185 H 0.02889 0.95185 0.90111 0.0
H186 H 0.97967 0.08143 0.76274 0.0
H187 H 0.01282 0.04838 0.8407 0.0
H188 H -0.0008 0.72344 0.62377 0.0
H189 H 0.02912 0.69054 0.70233 0.0
H190 H 0.95691 0.81202 0.5706 0.0
H191 H 0.93588 0.90903 0.56936 0.0
C192 C 0.32353 0.78979 0.99073 0.0
C193 C 0.3238 0.71864 0.95446 0.0
C194 C 0.44914 0.71077 0.96828 0.0
C195 C 0.44889 0.78256 0.00371 0.0
N196 N 0.38429 0.87409 0.07106 0.0
N197 N 0.38074 0.59954 0.92814 0.0
C198 C 0.38543 0.81681 0.02228 0.0
C199 C 0.38479 0.67501 0.94992 0.0
N200 N 0.26588 0.83401 -0.00851 0.0
N201 N 0.51026 0.67924 0.94852 0.0
H202 H 0.33369 0.57178 0.91541 0.0
H203 H 0.42244 0.56255 0.92956 0.0
H204 H 0.55858 0.70434 0.96023 0.0
H205 H 0.51303 0.63128 0.91604 0.0
H206 H 0.26616 0.89086 0.00991 0.0
H207 H 0.21902 0.81638 0.96919 0.0
H208 H 0.33858 0.89638 0.09059 0.0
H209 H 0.42848 0.89302 0.0977 0.0
C210 C 0.42041 0.16607 0.22497 0.0
C211 C 0.42847 0.15359 0.29657 0.0
C212 C 0.523 0.06576 0.27054 0.0
C213 C 0.50567 0.06813 0.19907 0.0
N214 N 0.41702 0.10027 0.11601 0.0
N215 N 0.48276 0.08414 0.38888 0.0
C216 C 0.4485 0.11271 0.17828 0.0
C217 C 0.478 0.10041 0.31993 0.0
N218 N 0.38493 0.22792 0.20108 0.0
N219 N 0.58355 0.03467 0.29104 0.0
H220 H 0.45338 0.11256 0.42599 0.0
H221 H 0.51314 0.04015 0.40842 0.0
H222 H 0.62084 0.01685 0.25594 0.0
H223 H 0.59974 0.03423 0.34225 0.0
H224 H 0.38333 0.24208 0.14853 0.0
H225 H 0.36448 0.26945 0.23389 0.0
H226 H 0.37225 0.12859 0.10162 0.0
H227 H 0.4292 0.05422 0.08366 0.0
C228 C 0.69195 0.36118 0.52075 0.0
C229 C 0.69079 0.28119 0.50635 0.0
C230 C 0.59323 0.29831 0.42944 0.0
C231 C 0.57982 0.3691 0.46417 0.0
N232 N 0.62131 0.4732 0.5387 0.0
N233 N 0.65643 0.17823 0.43157 0.0
C234 C 0.63159 0.40356 0.5072 0.0
C235 C 0.64816 0.25252 0.45319 0.0
N236 N 0.74907 0.39416 0.55095 0.0
N237 N 0.55415 0.27547 0.37416 0.0
H238 H 0.69746 0.14597 0.44974 0.0
H239 H 0.62259 0.14911 0.39838 0.0
H240 H 0.5123 0.30663 0.35654 0.0
H241 H 0.56733 0.22987 0.34197 0.0
H242 H 0.75515 0.4537 0.55976 0.0
H243 H 0.79285 0.36151 0.56027 0.0
H244 H 0.65506 0.49677 0.5754 0.0
H245 H 0.57663 0.50481 0.53196 0.0
C246 C 0.971 0.33345 0.84731 0.0
C247 C 0.98839 0.39511 0.79929 0.0
C248 C 0.87704 0.37349 0.7423 0.0
C249 C 0.86562 0.30522 0.78308 0.0
N250 N 0.90062 0.21774 0.87278 0.0
N251 N 0.96003 0.46825 0.69703 0.0
C252 C 0.9121 0.28488 0.83536 0.0
C253 C 0.94161 0.41391 0.74612 0.0
N254 N 0.0081 0.32259 0.90623 0.0
N255 N 0.82658 0.40058 0.69993 0.0
H256 H 0.0048 0.50279 0.70021 0.0
H257 H 0.93359 0.47502 0.65066 0.0
H258 H 0.77846 0.3733 0.69285 0.0
H259 H 0.82976 0.45519 0.67629 0.0
H260 H 0.99028 0.28807 0.94755 0.0
H261 H 0.05461 0.35075 0.91681 0.0
H262 H 0.93799 0.19295 0.90389 0.0
H263 H 0.85452 0.18451 0.87005 0.0
C264 C 0.89233 0.67186 0.91944 0.0
C265 C 0.91893 0.62016 0.96975 0.0
C266 C 0.81006 0.62571 0.03309 0.0
C267 C 0.79738 0.69613 -0.00159 0.0
N268 N 0.80963 0.77259 0.89618 0.0
N269 N 0.89887 0.53923 0.0712 0.0
C270 C 0.83276 0.71403 0.93657 0.0
C271 C 0.87583 0.59272 0.02492 0.0
N272 N 0.92231 0.67784 0.85539 0.0
N273 N 0.76053 0.59406 0.0762 0.0
H274 H 0.9475 0.51477 0.06723 0.0
H275 H 0.87152 0.5231 0.11596 0.0
H276 H 0.71172 0.61823 0.08011 0.0
H277 H 0.76514 0.54057 0.10108 0.0
H278 H 0.90375 0.71219 0.81551 0.0
H279 H 0.96152 0.64129 0.84001 0.0
H280 H 0.83559 0.79371 0.85231 0.0
H281 H 0.76328 0.79933 0.90835 0.0
C282 C 0.51009 0.65557 0.19665 0.0
C283 C 0.5742 0.65728 0.23286 0.0
C284 C 0.55592 0.51938 0.26335 0.0
C285 C 0.48981 0.52042 0.23338 0.0
N286 N 0.4157 0.57554 0.14927 0.0
N287 N 0.64913 0.59565 0.31468 0.0
C288 C 0.47184 0.58396 0.19145 0.0
C289 C 0.59455 0.59022 0.27016 0.0
N290 N 0.4824 0.72265 0.1728 0.0
N291 N 0.58249 0.45011 0.28268 0.0
H292 H 0.67571 0.64834 0.32398 0.0
H293 H 0.66266 0.55056 0.34771 0.0
H294 H 0.5568 0.3975 0.27133 0.0
H295 H 0.63266 0.44453 0.30121 0.0
H296 H 0.43343 0.72486 0.15083 0.0
H297 H 0.5032 0.7777 0.18337 0.0
H298 H 0.40205 0.61674 0.11248 0.0
H299 H 0.38709 0.52296 0.14718 0.0
loop_
_geom_bond_atom_site_label_1
_geom_bond_atom_site_label_2
_geom_bond_distance
_geom_bond_site_symmetry_2
_ccdc_geom_bond_type
O0 Mg1 1.990 . S
O0 C14 1.253 . S
Mg1 O0 1.990 . S
Mg1 O4 2.180 . S
Mg1 O5 2.117 . S
Mg1 O19 2.030 . S
O2 Mg3 2.072 . S
O2 C14 1.260 . S
Mg3 O2 2.072 . S
Mg3 O4 2.099 . S
Mg3 O6 2.079 . S
Mg3 O7 2.072 . S
Mg3 O9 2.099 . S
Mg3 O20 2.079 . S
O4 Mg1 2.180 . S
O4 Mg3 2.099 . S
O4 C15 1.279 . S
O5 Mg1 2.117 . S
O5 C15 1.250 . S
O6 Mg3 2.079 . S
O6 C16 1.264 . S
O7 Mg3 2.072 . S
O7 C17 1.260 . S
Mg8 O9 2.180 . S
Mg8 O10 2.030 . S
Mg8 O11 1.990 . S
Mg8 O12 2.117 . S
O9 Mg3 2.099 . S
O9 Mg8 2.180 . S
O9 C18 1.279 . S
O10 Mg8 2.030 . S
O10 C16 1.248 . S
O11 Mg8 1.990 . S
O11 C17 1.253 . S
O12 Mg8 2.117 . S
O12 C18 1.250 . S
C13 O19 1.248 . S
C13 O20 1.264 . S
C14 O0 1.253 . S
C14 O2 1.260 . S
C15 O4 1.279 . S
C15 O5 1.250 . S
C16 O6 1.264 . S
C16 O10 1.248 . S
C17 O7 1.260 . S
C17 O11 1.253 . S
C18 O9 1.279 . S
C18 O12 1.250 . S
O19 Mg1 2.030 . S
O19 C13 1.248 . S
O20 Mg3 2.079 . S
O20 C13 1.264 . S
O21 Mg22 1.990 . S
O21 C35 1.253 1_565 S
Mg22 O21 1.990 . S
Mg22 O25 2.180 1_565 S
Mg22 O26 2.117 . S
Mg22 O40 2.030 1_565 S
O23 Mg24 2.072 . S
O23 C35 1.260 . S
Mg24 O23 2.072 . S
Mg24 O25 2.099 . S
Mg24 O27 2.079 . S
Mg24 O28 2.072 . S
Mg24 O30 2.099 . S
Mg24 O41 2.079 . S
O25 Mg22 2.180 1_545 S
O25 Mg24 2.099 . S
O25 C36 1.279 1_545 S
O26 Mg22 2.117 . S
O26 C36 1.250 . S
O27 Mg24 2.079 . S
O27 C37 1.264 . S
O28 Mg24 2.072 . S
O28 C38 1.260 . S
Mg29 O30 2.180 . S
Mg29 O31 2.030 . S
Mg29 O32 1.990 . S
Mg29 O33 2.117 . S
O30 Mg24 2.099 . S
O30 Mg29 2.180 . S
O30 C39 1.279 . S
O31 Mg29 2.030 . S
O31 C37 1.248 . S
O32 Mg29 1.990 . S
O32 C38 1.253 . S
O33 Mg29 2.117 . S
O33 C39 1.250 . S
C34 O40 1.248 . S
C34 O41 1.264 . S
C35 O21 1.253 1_545 S
C35 O23 1.260 . S
C36 O25 1.279 1_565 S
C36 O26 1.250 . S
C37 O27 1.264 . S
C37 O31 1.248 . S
C38 O28 1.260 . S
C38 O32 1.253 . S
C39 O30 1.279 . S
C39 O33 1.250 . S
O40 Mg22 2.030 1_545 S
O40 C34 1.248 . S
O41 Mg24 2.079 . S
O41 C34 1.264 . S
O42 Mg43 1.990 . S
O42 C56 1.253 . S
Mg43 O42 1.990 . S
Mg43 O46 2.180 . S
Mg43 O47 2.117 . S
Mg43 O61 2.030 . S
O44 Mg45 2.072 . S
O44 C56 1.260 . S
Mg45 O44 2.072 . S
Mg45 O46 2.099 . S
Mg45 O48 2.079 . S
Mg45 O49 2.072 . S
Mg45 O51 2.099 . S
Mg45 O62 2.079 . S
O46 Mg43 2.180 . S
O46 Mg45 2.099 . S
O46 C57 1.279 . S
O47 Mg43 2.117 . S
O47 C57 1.250 . S
O48 Mg45 2.079 . S
O48 C58 1.264 1_455 S
O49 Mg45 2.072 . S
O49 C59 1.260 1_455 S
Mg50 O51 2.180 . S
Mg50 O52 2.030 1_455 S
Mg50 O53 1.990 1_456 S
Mg50 O54 2.117 1_556 S
O51 Mg45 2.099 . S
O51 Mg50 2.180 . S
O51 C60 1.279 1_556 S
O52 Mg50 2.030 1_655 S
O52 C58 1.248 . S
O53 Mg50 1.990 1_654 S
O53 C59 1.253 1_554 S
O54 Mg50 2.117 1_554 S
O54 C60 1.250 . S
C55 O61 1.248 . S
C55 O62 1.264 . S
C56 O42 1.253 . S
C56 O44 1.260 . S
C57 O46 1.279 . S
C57 O47 1.250 . S
C58 O48 1.264 1_655 S
C58 O52 1.248 . S
C59 O49 1.260 1_655 S
C59 O53 1.253 1_556 S
C60 O51 1.279 1_554 S
C60 O54 1.250 . S
O61 Mg43 2.030 . S
O61 C55 1.248 . S
O62 Mg45 2.079 . S
O62 C55 1.264 . S
O63 Mg64 1.990 . S
O63 C77 1.253 . S
Mg64 O63 1.990 . S
Mg64 O67 2.180 . S
Mg64 O68 2.117 . S
Mg64 O82 2.030 . S
O65 Mg66 2.072 . S
O65 C77 1.260 . S
Mg66 O65 2.072 . S
Mg66 O67 2.099 . S
Mg66 O69 2.079 . S
Mg66 O70 2.072 . S
Mg66 O72 2.099 . S
Mg66 O83 2.079 . S
O67 Mg64 2.180 . S
O67 Mg66 2.099 . S
O67 C78 1.279 . S
O68 Mg64 2.117 . S
O68 C78 1.250 . S
O69 Mg66 2.079 . S
O69 C79 1.264 1_554 S
O70 Mg66 2.072 . S
O70 C80 1.260 . S
Mg71 O72 2.180 1_545 S
Mg71 O73 2.030 1_544 S
Mg71 O74 1.990 . S
Mg71 O75 2.117 . S
O72 Mg66 2.099 . S
O72 Mg71 2.180 1_565 S
O72 C81 1.279 1_565 S
O73 Mg71 2.030 1_566 S
O73 C79 1.248 . S
O74 Mg71 1.990 . S
O74 C80 1.253 1_545 S
O75 Mg71 2.117 . S
O75 C81 1.250 . S
C76 O82 1.248 . S
C76 O83 1.264 . S
C77 O63 1.253 . S
C77 O65 1.260 . S
C78 O67 1.279 . S
C78 O68 1.250 . S
C79 O69 1.264 1_556 S
C79 O73 1.248 . S
C80 O70 1.260 . S
C80 O74 1.253 1_565 S
C81 O72 1.279 1_545 S
C81 O75 1.250 . S
O82 Mg64 2.030 . S
O82 C76 1.248 . S
O83 Mg66 2.079 . S
O83 C76 1.264 . S
C84 C85 1.363 . S
C84 C90 1.379 . S
C84 N92 1.356 . S
C85 C84 1.363 . S
C85 C91 1.363 . S
C86 C87 1.363 . S
C86 C91 1.379 . S
C86 N93 1.356 . S
C87 C86 1.363 . S
C87 C90 1.363 . S
N88 C90 1.356 . S
N88 H100 0.984 . S
N88 H101 0.985 . S
N89 C91 1.356 . S
N89 H94 0.984 . S
N89 H95 0.985 . S
C90 C84 1.379 . S
C90 C87 1.363 . S
C90 N88 1.356 . S
C91 C85 1.363 . S
C91 C86 1.379 . S
C91 N89 1.356 . S
N92 C84 1.356 . S
N92 H98 0.984 . S
N92 H99 0.984 1_554 S
N93 C86 1.356 . S
N93 H96 0.984 . S
N93 H97 0.985 . S
H94 N89 0.984 . S
H95 N89 0.985 . S
H96 N93 0.984 . S
H97 N93 0.985 . S
H98 N92 0.984 . S
H99 N92 0.984 1_556 S
H100 N88 0.984 . S
H101 N88 0.985 . S
C102 C103 1.363 . S
C102 C108 1.379 . S
C102 N110 1.356 . S
C103 C102 1.363 . S
C103 C109 1.363 . S
C104 C105 1.363 . S
C104 C109 1.379 . S
C104 N111 1.356 1_565 S
C105 C104 1.363 . S
C105 C108 1.363 . S
N106 C108 1.356 . S
N106 H118 0.984 . S
N106 H119 0.985 1_565 S
N107 C109 1.356 . S
N107 H112 0.984 . S
N107 H113 0.985 . S
C108 C102 1.379 . S
C108 C105 1.363 . S
C108 N106 1.356 . S
C109 C103 1.363 . S
C109 C104 1.379 . S
C109 N107 1.356 . S
N110 C102 1.356 . S
N110 H116 0.984 . S
N110 H117 0.984 . S
N111 C104 1.356 1_545 S
N111 H114 0.984 . S
N111 H115 0.985 . S
H112 N107 0.984 . S
H113 N107 0.985 . S
H114 N111 0.984 . S
H115 N111 0.985 . S
H116 N110 0.984 . S
H117 N110 0.984 . S
H118 N106 0.984 . S
H119 N106 0.985 1_545 S
C120 C121 1.363 . S
C120 C126 1.379 . S
C120 N128 1.356 . S
C121 C120 1.363 . S
C121 C127 1.363 . S
C122 C123 1.363 . S
C122 C127 1.379 . S
C122 N129 1.356 . S
C123 C122 1.363 . S
C123 C126 1.363 . S
N124 C126 1.356 . S
N124 H136 0.984 . S
N124 H137 0.985 . S
N125 C127 1.356 . S
N125 H130 0.984 . S
N125 H131 0.985 . S
C126 C120 1.379 . S
C126 C123 1.363 . S
C126 N124 1.356 . S
C127 C121 1.363 . S
C127 C122 1.379 . S
C127 N125 1.356 . S
N128 C120 1.356 . S
N128 H134 0.984 . S
N128 H135 0.984 . S
N129 C122 1.356 . S
N129 H132 0.984 . S
N129 H133 0.985 . S
H130 N125 0.984 . S
H131 N125 0.985 . S
H132 N129 0.984 . S
H133 N129 0.985 . S
H134 N128 0.984 . S
H135 N128 0.984 . S
H136 N124 0.984 . S
H137 N124 0.985 . S
C138 C139 1.363 . S
C138 C144 1.379 . S
C138 N146 1.356 . S
C139 C138 1.363 . S
C139 C145 1.363 1_545 S
C140 C141 1.363 1_565 S
C140 C145 1.379 . S
C140 N147 1.356 . S
C141 C140 1.363 1_545 S
C141 C144 1.363 . S
N142 C144 1.356 . S
N142 H154 0.984 . S
N142 H155 0.985 . S
N143 C145 1.356 . S
N143 H148 0.984 . S
N143 H149 0.985 . S
C144 C138 1.379 . S
C144 C141 1.363 . S
C144 N142 1.356 . S
C145 C139 1.363 1_565 S
C145 C140 1.379 . S
C145 N143 1.356 . S
N146 C138 1.356 . S
N146 H152 0.984 . S
N146 H153 0.984 1_556 S
N147 C140 1.356 . S
N147 H150 0.984 1_565 S
N147 H151 0.985 . S
H148 N143 0.984 . S
H149 N143 0.985 . S
H150 N147 0.984 1_545 S
H151 N147 0.985 . S
H152 N146 0.984 . S
H153 N146 0.984 1_554 S
H154 N142 0.984 . S
H155 N142 0.985 . S
C156 C157 1.363 . S
C156 C162 1.379 . S
C156 N164 1.356 . S
C157 C156 1.363 . S
C157 C163 1.363 . S
C158 C159 1.363 . S
C158 C163 1.379 . S
C158 N165 1.356 . S
C159 C158 1.363 . S
C159 C162 1.363 . S
N160 C162 1.356 . S
N160 H172 0.984 . S
N160 H173 0.985 . S
N161 C163 1.356 . S
N161 H166 0.984 1_455 S
N161 H167 0.985 . S
C162 C156 1.379 . S
C162 C159 1.363 . S
C162 N160 1.356 . S
C163 C157 1.363 . S
C163 C158 1.379 . S
C163 N161 1.356 . S
N164 C156 1.356 . S
N164 H170 0.984 . S
N164 H171 0.984 1_455 S
N165 C158 1.356 . S
N165 H168 0.984 . S
N165 H169 0.985 . S
H166 N161 0.984 1_655 S
H167 N161 0.985 . S
H168 N165 0.984 . S
H169 N165 0.985 . S
H170 N164 0.984 . S
H171 N164 0.984 1_655 S
H172 N160 0.984 . S
H173 N160 0.985 . S
C174 C175 1.363 . S
C174 C180 1.379 . S
C174 N182 1.356 . S
C175 C174 1.363 . S
C175 C181 1.363 1_455 S
C176 C177 1.363 . S
C176 C181 1.379 . S
C176 N183 1.356 . S
C177 C176 1.363 . S
C177 C180 1.363 1_655 S
N178 C180 1.356 . S
N178 H190 0.984 . S
N178 H191 0.985 1_455 S
N179 C181 1.356 . S
N179 H184 0.984 1_655 S
N179 H185 0.985 . S
C180 C174 1.379 . S
C180 C177 1.363 1_455 S
C180 N178 1.356 . S
C181 C175 1.363 1_655 S
C181 C176 1.379 . S
C181 N179 1.356 . S
N182 C174 1.356 . S
N182 H188 0.984 . S
N182 H189 0.984 . S
N183 C176 1.356 . S
N183 H186 0.984 1_565 S
N183 H187 0.985 . S
H184 N179 0.984 1_455 S
H185 N179 0.985 . S
H186 N183 0.984 1_545 S
H187 N183 0.985 . S
H188 N182 0.984 . S
H189 N182 0.984 . S
H190 N178 0.984 . S
H191 N178 0.985 1_655 S
C192 C193 1.363 1_554 S
C192 C198 1.379 . S
C192 N200 1.356 . S
C193 C192 1.363 1_556 S
C193 C199 1.363 . S
C194 C195 1.363 . S
C194 C199 1.379 . S
C194 N201 1.356 . S
C195 C194 1.363 . S
C195 C198 1.363 1_556 S
N196 C198 1.356 . S
N196 H208 0.984 . S
N196 H209 0.985 . S
N197 C199 1.356 . S
N197 H202 0.984 . S
N197 H203 0.985 . S
C198 C192 1.379 . S
C198 C195 1.363 1_554 S
C198 N196 1.356 . S
C199 C193 1.363 . S
C199 C194 1.379 . S
C199 N197 1.356 . S
N200 C192 1.356 . S
N200 H206 0.984 . S
N200 H207 0.984 . S
N201 C194 1.356 . S
N201 H204 0.984 . S
N201 H205 0.985 . S
H202 N197 0.984 . S
H203 N197 0.985 . S
H204 N201 0.984 . S
H205 N201 0.985 . S
H206 N200 0.984 . S
H207 N200 0.984 . S
H208 N196 0.984 . S
H209 N196 0.985 . S
C210 C211 1.363 . S
C210 C216 1.379 . S
C210 N218 1.356 . S
C211 C210 1.363 . S
C211 C217 1.363 . S
C212 C213 1.363 . S
C212 C217 1.379 . S
C212 N219 1.356 . S
C213 C212 1.363 . S
C213 C216 1.363 . S
N214 C216 1.356 . S
N214 H226 0.984 . S
N214 H227 0.985 . S
N215 C217 1.356 . S
N215 H220 0.984 . S
N215 H221 0.985 . S
C216 C210 1.379 . S
C216 C213 1.363 . S
C216 N214 1.356 . S
C217 C211 1.363 . S
C217 C212 1.379 . S
C217 N215 1.356 . S
N218 C210 1.356 . S
N218 H224 0.984 . S
N218 H225 0.984 . S
N219 C212 1.356 . S
N219 H222 0.984 1_545 S
N219 H223 0.985 . S
H220 N215 0.984 . S
H221 N215 0.985 . S
H222 N219 0.984 1_565 S
H223 N219 0.985 . S
H224 N218 0.984 . S
H225 N218 0.984 . S
H226 N214 0.984 . S
H227 N214 0.985 . S
C228 C229 1.363 . S
C228 C234 1.379 . S
C228 N236 1.356 . S
C229 C228 1.363 . S
C229 C235 1.363 . S
C230 C231 1.363 . S
C230 C235 1.379 . S
C230 N237 1.356 . S
C231 C230 1.363 . S
C231 C234 1.363 . S
N232 C234 1.356 . S
N232 H244 0.984 . S
N232 H245 0.985 . S
N233 C235 1.356 . S
N233 H238 0.984 . S
N233 H239 0.985 . S
C234 C228 1.379 . S
C234 C231 1.363 . S
C234 N232 1.356 . S
C235 C229 1.363 . S
C235 C230 1.379 . S
C235 N233 1.356 . S
N236 C228 1.356 . S
N236 H242 0.984 . S
N236 H243 0.984 . S
N237 C230 1.356 . S
N237 H240 0.984 . S
N237 H241 0.985 . S
H238 N233 0.984 . S
H239 N233 0.985 . S
H240 N237 0.984 . S
H241 N237 0.985 . S
H242 N236 0.984 . S
H243 N236 0.984 . S
H244 N232 0.984 . S
H245 N232 0.985 . S
C246 C247 1.363 . S
C246 C252 1.379 . S
C246 N254 1.356 . S
C247 C246 1.363 . S
C247 C253 1.363 . S
C248 C249 1.363 . S
C248 C253 1.379 . S
C248 N255 1.356 . S
C249 C248 1.363 . S
C249 C252 1.363 . S
N250 C252 1.356 . S
N250 H262 0.984 . S
N250 H263 0.985 . S
N251 C253 1.356 . S
N251 H256 0.984 . S
N251 H257 0.985 1_655 S
C252 C246 1.379 . S
C252 C249 1.363 . S
C252 N250 1.356 . S
C253 C247 1.363 . S
C253 C248 1.379 . S
C253 N251 1.356 . S
N254 C246 1.356 . S
N254 H260 0.984 . S
N254 H261 0.984 . S
N255 C248 1.356 . S
N255 H258 0.984 . S
N255 H259 0.985 . S
H256 N251 0.984 . S
H257 N251 0.985 1_455 S
H258 N255 0.984 . S
H259 N255 0.985 . S
H260 N254 0.984 . S
H261 N254 0.984 . S
H262 N250 0.984 . S
H263 N250 0.985 . S
C264 C265 1.363 . S
C264 C270 1.379 . S
C264 N272 1.356 . S
C265 C264 1.363 . S
C265 C271 1.363 1_556 S
C266 C267 1.363 . S
C266 C271 1.379 . S
C266 N273 1.356 . S
C267 C266 1.363 . S
C267 C270 1.363 1_554 S
N268 C270 1.356 . S
N268 H280 0.984 . S
N268 H281 0.985 . S
N269 C271 1.356 . S
N269 H274 0.984 . S
N269 H275 0.985 . S
C270 C264 1.379 . S
C270 C267 1.363 1_556 S
C270 N268 1.356 . S
C271 C265 1.363 1_554 S
C271 C266 1.379 . S
C271 N269 1.356 . S
N272 C264 1.356 . S
N272 H278 0.984 . S
N272 H279 0.984 . S
N273 C266 1.356 . S
N273 H276 0.984 . S
N273 H277 0.985 . S
H274 N269 0.984 . S
H275 N269 0.985 . S
H276 N273 0.984 . S
H277 N273 0.985 . S
H278 N272 0.984 . S
H279 N272 0.984 . S
H280 N268 0.984 . S
H281 N268 0.985 . S
C282 C283 1.363 . S
C282 C288 1.379 . S
C282 N290 1.356 . S
C283 C282 1.363 . S
C283 C289 1.363 . S
C284 C285 1.363 . S
C284 C289 1.379 . S
C284 N291 1.356 . S
C285 C284 1.363 . S
C285 C288 1.363 . S
N286 C288 1.356 . S
N286 H298 0.984 . S
N286 H299 0.985 . S
N287 C289 1.356 . S
N287 H292 0.984 . S
N287 H293 0.985 . S
C288 C282 1.379 . S
C288 C285 1.363 . S
C288 N286 1.356 . S
C289 C283 1.363 . S
C289 C284 1.379 . S
C289 N287 1.356 . S
N290 C282 1.356 . S
N290 H296 0.984 . S
N290 H297 0.984 . S
N291 C284 1.356 . S
N291 H294 0.984 . S
N291 H295 0.985 . S
H292 N287 0.984 . S
H293 N287 0.985 . S
H294 N291 0.984 . S
H295 N291 0.985 . S
H296 N290 0.984 . S
H297 N290 0.984 . S
H298 N286 0.984 . S
H299 N286 0.985 . S
C85 C60 1.435 . S
C87 C16 1.606 . S
C103 C77 1.391 . S
C105 C35 1.377 1_565 S
C121 C55 1.606 . S
C123 C15 1.435 . S
C139 C80 1.377 1_546 S
C141 C38 1.391 . S
C157 C34 1.660 1_455 S
C159 C17 1.789 . S
C175 C57 1.245 . S
C177 C36 1.238 . S
C193 C56 1.789 . S
C195 C79 1.660 . S
C211 C18 1.245 . S
C213 C81 1.238 . S
C229 C39 1.116 . S
C231 C14 1.340 . S
C247 C58 1.153 . S
C249 C37 1.151 . S
C265 C59 1.340 . S
C267 C78 1.116 . S
C283 C76 1.151 . S
C285 C13 1.153 . S
