# Generated by pormake.
# Topology sma, (6)-cn, num edge types: 1
# Building blocks:
#     Node 0, Type 0, BuildingBlock: BETDIP_clean_sbu_0, # of connection points: 6
#     Node 1, Type 0, BuildingBlock: BETDIP_clean_sbu_0, # of connection points: 6
#     Node 2, Type 0, BuildingBlock: BETDIP_clean_sbu_0, # of connection points: 6
#     Edge 3, Type (0, 0), BuildingBlock: ZUJKAS_clean_linker_0, # of connection points: 2
#     Edge 4, Type (0, 0), BuildingBlock: ZUJKAS_clean_linker_0, # of connection points: 2
#     Edge 5, Type (0, 0), BuildingBlock: ZUJKAS_clean_linker_0, # of connection points: 2
#     Edge 6, Type (0, 0), BuildingBlock: ZUJKAS_clean_linker_0, # of connection points: 2
#     Edge 7, Type (0, 0), BuildingBlock: ZUJKAS_clean_linker_0, # of connection points: 2
#     Edge 8, Type (0, 0), BuildingBlock: ZUJKAS_clean_linker_0, # of connection points: 2
#     Edge 9, Type (0, 0), BuildingBlock: ZUJKAS_clean_linker_0, # of connection points: 2
#     Edge 10, Type (0, 0), BuildingBlock: ZUJKAS_clean_linker_0, # of connection points: 2
#     Edge 11, Type (0, 0), BuildingBlock: ZUJKAS_clean_linker_0, # of connection points: 2
# Relax obj value: 0.088
# Max RMSD: 0.184
# Mean RMSD: 0.184
data_MOF--net-sma--node1-BETDIP_clean_sbu_0--edge1-ZUJKAS_clean_linker_0
_symmetry_space_group_name_H-M    P1
_symmetry_Int_Tables_number       1
_symmetry_cell_setting            triclinic
loop_
_symmetry_equiv_pos_as_xyz
'x, y, z'
_cell_length_a     47.837375
_cell_length_b     47.861717
_cell_length_c     17.926245
_cell_angle_alpha  90.19911
_cell_angle_beta   89.706311
_cell_angle_gamma 119.8907
loop_
_atom_site_label
_atom_site_type_symbol
_atom_site_fract_x
_atom_site_fract_y
_atom_site_fract_z
_atom_type_partial_charge
Tb0 Tb 0.07337 0.57684 0.11685 0.0
Tb1 Tb 1.0309 0.50422 0.08649 0.0
C2 C 0.09995 0.63174 0.17682 0.0
C3 C 0.13246 0.65741 0.19797 0.0
C4 C 0.13597 0.68524 0.23263 0.0
C5 C 0.16657 0.71064 0.2507 0.0
C6 C 0.19441 0.70878 0.23441 0.0
C7 C 0.19073 0.68049 0.20066 0.0
C8 C 0.15999 0.65503 0.18242 0.0
C9 C 0.07399 0.55949 -0.0201 0.0
C10 C 0.10766 0.53668 0.09249 0.0
C11 C 1.00145 0.44519 0.05456 0.0
C12 C 0.9718 0.41751 0.08527 0.0
C13 C 0.95065 0.3923 0.03848 0.0
C14 C 0.92255 0.36606 0.06752 0.0
C15 C 0.91503 0.36452 0.14408 0.0
C16 C 0.93638 0.3899 0.19065 0.0
C17 C 0.96433 0.41606 0.16162 0.0
C18 C 1.03439 0.5236 0.22553 0.0
C19 C 0.99746 0.54595 0.08135 0.0
O20 O 0.08791 0.60475 0.2146 0.0
O21 O 0.09435 0.62685 0.10516 0.0
O22 O 1.05003 0.54737 0.0231 0.0
O23 O 0.09809 0.58453 0.0104 0.0
O24 O 0.10968 0.56227 0.12678 0.0
O25 O 0.08012 0.51366 0.06377 0.0
O26 O 0.99771 0.46664 0.01749 0.0
O27 O 1.02606 0.4586 0.09995 0.0
O28 O 1.05636 0.53376 0.178 0.0
O29 O 1.0089 0.4999 0.19662 0.0
O30 O 0.99572 0.51854 0.06114 0.0
O31 O 1.02414 0.57019 0.1105 0.0
H32 H 0.11498 0.68745 0.24527 0.0
H33 H 0.16839 0.73175 0.27779 0.0
H34 H 0.21163 0.67833 0.1868 0.0
H35 H 0.15773 0.63371 0.15546 0.0
H36 H 0.95582 0.39295 -0.0206 0.0
H37 H 0.90652 0.34721 0.02975 0.0
H38 H 0.93176 0.3894 0.24996 0.0
H39 H 0.9802 0.43508 0.19922 0.0
Tb40 Tb 0.57275 1.02384 0.45161 0.0
Tb41 Tb 0.54226 0.06551 0.41848 0.0
C42 C 0.60145 0.99739 0.51061 0.0
C43 C 0.59579 0.9648 0.52683 0.0
C44 C 0.56472 0.93767 0.52577 0.0
C45 C 0.56021 0.90703 0.5422 0.0
C46 C 0.5867 0.90302 0.55953 0.0
C47 C 0.61772 0.9304 0.56026 0.0
C48 C 0.62217 0.96091 0.54409 0.0
C49 C 0.56141 1.02779 0.31017 0.0
C50 C 0.49955 0.98856 0.41798 0.0
C51 C 0.51211 0.09423 0.38565 0.0
C52 C 0.51367 0.12443 0.41254 0.0
C53 C 0.53857 0.15502 0.39049 0.0
C54 C 0.54041 0.18311 0.4198 0.0
C55 C 0.51746 0.18135 0.47206 0.0
C56 C 0.49228 0.15069 0.49288 0.0
C57 C 0.49032 0.12269 0.4632 0.0
C58 C 0.55833 0.06404 0.55664 0.0
C59 C 0.61732 0.1005 0.42327 0.0
O60 O 0.58398 1.00676 0.54791 0.0
O61 O 0.60437 1.00554 0.44024 0.0
O62 O 0.57018 0.0496 0.35832 0.0
O63 O 0.56043 1.00265 0.3402 0.0
O64 O 0.5224 0.98645 0.45462 0.0
O65 O 0.50429 1.01631 0.39024 0.0
O66 O 0.53646 0.09677 0.34609 0.0
O67 O 0.50186 0.07088 0.43464 0.0
O68 O 0.54613 0.04079 0.51221 0.0
O69 O 0.56011 0.08917 0.52579 0.0
O70 O 0.59198 0.10169 0.39793 0.0
O71 O 0.61452 0.07375 0.45334 0.0
H72 H 0.54403 0.94018 0.51228 0.0
H73 H 0.53604 0.88646 0.54043 0.0
H74 H 0.63861 0.92835 0.57446 0.0
H75 H 0.64631 0.98158 0.54542 0.0
H76 H 0.55686 0.15734 0.35114 0.0
H77 H 0.55982 0.20621 0.40122 0.0
H78 H 0.47438 0.14816 0.53361 0.0
H79 H 0.47073 0.09954 0.48115 0.0
Tb80 Tb 0.52357 0.52546 0.78685 0.0
Tb81 Tb 0.59464 0.55351 0.74333 0.0
C82 C 0.46984 0.50008 0.85308 0.0
C83 C 0.44369 0.50726 0.87052 0.0
C84 C 0.44806 0.53151 0.92156 0.0
C85 C 0.42231 0.53638 0.94036 0.0
C86 C 0.39165 0.51718 0.90852 0.0
C87 C 0.3875 0.4932 0.85696 0.0
C88 C 0.41315 0.48824 0.83847 0.0
C89 C 0.53554 0.53342 0.64341 0.0
C90 C 0.56209 0.59789 0.74455 0.0
C91 C 0.65233 0.58097 0.7002 0.0
C92 C 0.67993 0.5772 0.72255 0.0
C93 C 0.71153 0.60179 0.70777 0.0
C94 C 0.73788 0.59993 0.73565 0.0
C95 C 0.73315 0.57347 0.77928 0.0
C96 C 0.70132 0.54858 0.79272 0.0
C97 C 0.67503 0.55045 0.76471 0.0
C98 C 0.58036 0.54124 0.88449 0.0
C99 C 0.55354 0.4788 0.75919 0.0
O100 O 0.49757 0.51718 0.88676 0.0
O101 O 0.47341 0.49473 0.78297 0.0
O102 O 0.54931 0.52514 0.6905 0.0
O103 O 0.51245 0.53578 0.67582 0.0
O104 O 0.53784 0.5762 0.78535 0.0
O105 O 0.584 0.59188 0.71438 0.0
O106 O 0.62881 0.55667 0.6646 0.0
O107 O 0.64165 0.59249 0.75243 0.0
O108 O 0.56862 0.55271 0.84013 0.0
O109 O 0.60249 0.53787 0.85139 0.0
O110 O 0.57976 0.50308 0.72947 0.0
O111 O 0.53056 0.48293 0.7909 0.0
H112 H 0.47124 0.54654 0.94759 0.0
H113 H 0.42645 0.55527 -0.02028 0.0
H114 H 0.36415 0.47763 0.8322 0.0
H115 H 0.40894 0.4691 0.79975 0.0
H116 H 0.71582 0.62275 0.6758 0.0
H117 H 0.76198 0.61932 0.72317 0.0
H118 H 0.69663 0.52805 0.82681 0.0
H119 H 0.65082 0.53134 0.77751 0.0
H120 H 0.16968 0.58091 0.13269 0.0
H121 H 0.21897 0.57907 0.1059 0.0
H122 H 0.16295 0.4873 -0.00347 0.0
H123 H 0.11355 0.48872 0.02341 0.0
H124 H 0.21014 0.4896 0.09412 0.0
H125 H 0.2616 0.59335 0.89841 0.0
H126 H 0.25056 0.6013 -0.01131 0.0
H127 H 0.21984 0.57305 0.92724 0.0
C128 C 0.16776 0.56024 0.10321 0.0
C129 C 0.13755 0.53499 0.08008 0.0
C130 C 0.19604 0.55934 0.08752 0.0
C131 C 0.19472 0.53327 0.04825 0.0
C132 C 0.16457 0.50773 0.02663 0.0
H133 H 0.34509 0.51604 0.81778 0.0
H134 H 0.29798 0.52034 0.85412 0.0
C135 C 0.13632 0.5086 0.0421 0.0
C136 C 0.22465 0.5325 0.02941 0.0
H137 H 0.2945 0.57095 0.92793 0.0
C138 C 0.22864 0.50743 0.05798 0.0
C139 C 0.24858 0.55555 -0.01855 0.0
C140 C 0.24496 0.58221 0.94651 0.0
C141 C 0.25598 0.5049 0.04029 0.0
C142 C 0.28018 0.52828 -0.00661 0.0
C143 C 0.27609 0.55323 -0.03558 0.0
C144 C 0.30937 0.52659 -0.02825 0.0
C145 C 0.25837 0.47678 0.07049 0.0
C146 C 0.33177 0.52921 0.02562 0.0
C147 C 0.35872 0.52669 0.00504 0.0
C148 C 0.36385 0.52149 0.93008 0.0
C149 C 0.34167 0.51956 0.87611 0.0
C150 C 0.31481 0.52221 0.89671 0.0
H151 H 0.23474 0.45726 0.09124 0.0
H152 H 0.26745 0.46668 0.02702 0.0
H153 H 0.27559 0.48512 0.11769 0.0
H154 H 0.32833 0.53308 0.08371 0.0
H155 H 0.37515 0.52808 0.04813 0.0
H156 H 0.67675 0.105 0.43872 0.0
H157 H 0.72914 0.14947 0.39796 0.0
H158 H 0.68368 0.20386 0.33222 0.0
H159 H 0.6315 0.15978 0.37206 0.0
H160 H 0.72184 0.19921 0.22041 0.0
H161 H 0.78852 0.23933 0.48816 0.0
H162 H 0.77022 0.19695 0.46854 0.0
H163 H 0.74517 0.21454 0.48419 0.0
C164 C 0.67799 0.12666 0.41688 0.0
C165 C 0.6498 0.12869 0.40857 0.0
C166 C 0.708 0.1521 0.39367 0.0
C167 C 0.71038 0.18009 0.36223 0.0
C168 C 0.68245 0.18251 0.35616 0.0
H169 H 0.87452 0.3656 0.25179 0.0
H170 H 0.826 0.32009 0.30441 0.0
C171 C 0.65258 0.15721 0.3792 0.0
C172 C 0.7414 0.20612 0.33119 0.0
H173 H 0.81802 0.26384 0.37792 0.0
C174 C 0.7429 0.21328 0.25483 0.0
C175 C 0.76878 0.22463 0.37623 0.0
C176 C 0.76821 0.21877 0.45897 0.0
C177 C 0.77094 0.23843 0.22232 0.0
C178 C 0.79846 0.25674 0.26712 0.0
C179 C 0.79699 0.24962 0.34353 0.0
C180 C 0.82855 0.28411 0.23606 0.0
C181 C 0.7706 0.24576 0.14062 0.0
C182 C 0.84636 0.27903 0.18052 0.0
C183 C 0.87429 0.30503 0.15046 0.0
C184 C 0.88511 0.33671 0.17554 0.0
C185 C 0.86725 0.34158 0.23168 0.0
C186 C 0.83939 0.31558 0.26175 0.0
H187 H 0.74568 0.2344 0.11827 0.0
H188 H 0.78259 0.27217 0.13113 0.0
H189 H 0.784 0.2363 0.10852 0.0
H190 H 0.83875 0.25489 0.16068 0.0
H191 H 0.88767 0.30023 0.10836 0.0
H192 H 0.53914 0.85491 0.64448 0.0
H193 H 0.53372 0.80281 0.67802 0.0
H194 H 0.61863 0.82559 0.54853 0.0
H195 H 0.62415 0.87751 0.51452 0.0
H196 H 0.52683 0.75148 0.58907 0.0
H197 H 0.64001 0.8032 0.75226 0.0
H198 H 0.62183 0.82674 0.72444 0.0
H199 H 0.64547 0.81858 0.65891 0.0
C200 C 0.55651 0.84873 0.6226 0.0
C201 C 0.58229 0.87061 0.57737 0.0
C202 C 0.55346 0.81899 0.64213 0.0
C203 C 0.57615 0.81056 0.6171 0.0
C204 C 0.60132 0.83191 0.57019 0.0
H205 H 0.60713 0.64796 0.66021 0.0
H206 H 0.60915 0.69875 0.63077 0.0
C207 C 0.60443 0.86161 0.55076 0.0
C208 C 0.57352 0.77941 0.63955 0.0
H209 H 0.61442 0.7471 0.72604 0.0
C210 C 0.54585 0.75049 0.61951 0.0
C211 C 0.59835 0.77813 0.67935 0.0
C212 C 0.62797 0.8083 0.70569 0.0
C213 C 0.54278 0.72037 0.63621 0.0
C214 C 0.56781 0.71912 0.6752 0.0
C215 C 0.5953 0.74805 0.69597 0.0
C216 C 0.5663 0.6881 0.69382 0.0
C217 C 0.5132 0.69017 0.60997 0.0
C218 C 0.54179 0.66533 0.74009 0.0
C219 C 0.54053 0.63616 0.75709 0.0
C220 C 0.56388 0.62922 0.72852 0.0
C221 C 0.58868 0.65236 0.68315 0.0
C222 C 0.58991 0.68148 0.66621 0.0
H223 H 0.50035 0.69533 0.56542 0.0
H224 H 0.51962 0.67228 0.58853 0.0
H225 H 0.49631 0.67913 0.65759 0.0
H226 H 0.5237 0.67017 0.76341 0.0
H227 H 0.52117 0.61905 0.79249 0.0
H228 H 0.78863 0.62304 0.83928 0.0
H229 H 0.8343 0.62063 0.89313 0.0
H230 H 0.78626 0.51837 0.85128 0.0
H231 H 0.74112 0.52072 0.79478 0.0
H232 H 0.83669 0.58631 0.0145 0.0
H233 H 0.87423 0.5489 0.75759 0.0
H234 H 0.84638 0.56399 0.75619 0.0
H235 H 0.83262 0.52275 0.78121 0.0
C236 C 0.78796 0.6001 0.84034 0.0
C237 C 0.76117 0.57211 0.81196 0.0
C238 C 0.81401 0.59873 0.87184 0.0
C239 C 0.814 0.56942 0.87535 0.0
C240 C 0.78717 0.5414 0.84795 0.0
H241 H 0.93738 0.49994 0.03683 0.0
H242 H 0.89355 0.50749 -0.00769 0.0
C243 C 0.76114 0.54273 0.81636 0.0
C244 C 0.84178 0.568 0.90847 0.0
H245 H 0.89778 0.54532 0.87116 0.0
C246 C 0.85023 0.57759 -0.01696 0.0
C247 C 0.85958 0.55678 0.86734 0.0
C248 C 0.853 0.54782 0.78595 0.0
C249 C 0.87522 0.57518 0.01823 0.0
C250 C 0.8925 0.56327 -0.02251 0.0
C251 C 0.88441 0.55426 0.90258 0.0
C252 C 0.91845 0.55894 0.0115 0.0
C253 C 0.88224 0.58445 0.09933 0.0
C254 C 0.94703 0.58532 0.03837 0.0
C255 C 0.97233 0.58108 0.06432 0.0
C256 C 0.96958 0.55039 0.06324 0.0
C257 C 0.94051 0.52396 0.0383 0.0
C258 C 0.91535 0.52821 0.01264 0.0
H259 H 0.86224 0.58603 0.127 0.0
H260 H 0.88648 0.56679 0.13001 0.0
H261 H 0.90437 0.60839 0.10354 0.0
H262 H 0.95024 0.60936 0.03694 0.0
H263 H 0.99441 0.602 0.08255 0.0
H264 H 0.44549 0.98351 0.35321 0.0
H265 H 0.39493 0.93451 0.3246 0.0
H266 H 0.43245 0.8769 0.41746 0.0
H267 H 0.48299 0.92586 0.44765 0.0
H268 H 0.38487 0.88463 0.23299 0.0
H269 H 0.34562 0.83935 0.5211 0.0
H270 H 0.37768 0.87979 0.50197 0.0
H271 H 0.38517 0.84654 0.49731 0.0
C272 C 0.44299 0.96047 0.3682 0.0
C273 C 0.46836 0.95873 0.40312 0.0
C274 C 0.41401 0.93242 0.35164 0.0
C275 C 0.40963 0.90197 0.36971 0.0
C276 C 0.43491 0.9001 0.40447 0.0
H277 H 0.2468 0.70744 0.29293 0.0
H278 H 0.29991 0.75343 0.32289 0.0
C279 C 0.4639 0.92818 0.42138 0.0
C280 C 0.37901 0.8723 0.34964 0.0
H281 H 0.31447 0.80494 0.42255 0.0
C282 C 0.36948 0.86725 0.27452 0.0
C283 C 0.35894 0.84947 0.40371 0.0
C284 C 0.36714 0.8541 0.48563 0.0
C285 C 0.34057 0.84009 0.25199 0.0
C286 C 0.32031 0.81751 0.30613 0.0
C287 C 0.33004 0.82224 0.38108 0.0
C288 C 0.28837 0.78953 0.28645 0.0
C289 C 0.33211 0.83564 0.17019 0.0
C290 C 0.26416 0.79452 0.25651 0.0
C291 C 0.2339 0.76836 0.23913 0.0
C292 C 0.22702 0.73652 0.25168 0.0
C293 C 0.25135 0.73158 0.28173 0.0
C294 C 0.28166 0.75784 0.29934 0.0
H295 H 0.35374 0.84965 0.13448 0.0
H296 H 0.32052 0.80983 0.15401 0.0
H297 H 0.31489 0.84425 0.15876 0.0
H298 H 0.26857 0.81874 0.24717 0.0
H299 H 0.21591 0.77311 0.21539 0.0
H300 H 0.59847 0.46202 0.72099 0.0
H301 H 0.58922 0.40907 0.68275 0.0
H302 H 0.48782 0.36771 0.73039 0.0
H303 H 0.49682 0.42088 0.76866 0.0
H304 H 0.55978 0.34751 0.75909 0.0
H305 H 0.49248 0.34669 0.50598 0.0
H306 H 0.51725 0.38296 0.55868 0.0
H307 H 0.47841 0.35344 0.59373 0.0
C308 C 0.5742 0.44164 0.72427 0.0
C309 C 0.54833 0.44579 0.74742 0.0
C310 C 0.56899 0.41135 0.7024 0.0
C311 C 0.53778 0.38455 0.70251 0.0
C312 C 0.51205 0.3882 0.72883 0.0
H313 H 0.46839 0.19317 0.50945 0.0
H314 H 0.47251 0.24086 0.56999 0.0
C315 C 0.51728 0.41855 0.75129 0.0
C316 C 0.53233 0.35328 0.67196 0.0
H317 H 0.49948 0.30192 0.52414 0.0
C318 C 0.54646 0.33741 0.70793 0.0
C319 C 0.51495 0.34016 0.6052 0.0
C320 C 0.50003 0.35669 0.56305 0.0
C321 C 0.54361 0.30872 0.67912 0.0
C322 C 0.52693 0.296 0.61121 0.0
C323 C 0.51235 0.31165 0.57596 0.0
C324 C 0.52462 0.26676 0.57523 0.0
C325 C 0.55812 0.29211 0.72247 0.0
C326 C 0.55253 0.26545 0.5567 0.0
C327 C 0.55025 0.23794 0.523 0.0
C328 C 0.51998 0.21117 0.50593 0.0
C329 C 0.4921 0.21293 0.52297 0.0
C330 C 0.49441 0.24035 0.55717 0.0
H331 H 0.56076 0.29883 0.78248 0.0
H332 H 0.54319 0.2655 0.71782 0.0
H333 H 0.58251 0.29962 0.7 0.0
H334 H 0.57617 0.28579 0.56811 0.0
H335 H 0.57228 0.23754 0.51144 0.0
H336 H 1.02438 0.51246 0.90258 0.0
H337 H 1.02656 0.4957 0.77519 0.0
H338 H 0.13011 0.55662 0.77391 0.0
H339 H 0.12796 0.57383 0.90136 0.0
H340 H 0.09765 0.57608 0.6818 0.0
H341 H 1.05483 0.44658 0.63601 0.0
H342 H 1.02984 0.45303 0.70068 0.0
H343 H 0.07119 0.4665 0.72408 0.0
C344 C 1.04765 0.52141 0.87582 0.0
C345 C 0.07589 0.54507 0.90991 0.0
C346 C 1.04895 0.51142 0.80367 0.0
C347 C 0.07853 0.52487 0.76567 0.0
C348 C 0.10715 0.54591 0.80291 0.0
H349 H 0.09313 0.55671 0.28864 0.0
H350 H 0.10655 0.55595 0.41885 0.0
C351 C 0.10582 0.55608 0.87488 0.0
C352 C 0.07814 0.52459 0.68408 0.0
H353 H 1.0462 0.47489 0.53437 0.0
C354 C 0.0872 0.55407 0.64906 0.0
C355 C 0.06392 0.49575 0.64251 0.0
C356 C 1.05466 0.46371 0.67775 0.0
C357 C 0.08059 0.55531 0.57402 0.0
C358 C 0.06536 0.52633 0.53288 0.0
C359 C 1.05762 0.49696 0.56685 0.0
C360 C 1.057 0.5262 0.45453 0.0
C361 C 0.08833 0.58736 0.54068 0.0
C362 C 1.02465 0.5094 0.43211 0.0
C363 C 1.01685 0.50953 0.35738 0.0
C364 C 1.0414 0.52655 0.30507 0.0
C365 C 0.07369 0.54379 0.3282 0.0
C366 C 0.08145 0.5433 0.40234 0.0
H367 H 0.09204 0.60542 0.58433 0.0
H368 H 0.1109 0.59701 0.50749 0.0
H369 H 0.06877 0.5847 0.5031 0.0
H370 H 1.00557 0.49617 0.47232 0.0
H371 H 0.99185 0.49587 0.34031 0.0
H372 H 0.59926 0.08688 0.25108 0.0
H373 H 0.61573 0.09991 0.12147 0.0
H374 H 0.55692 0.99958 0.06193 0.0
H375 H 0.54161 0.98602 0.19346 0.0
H376 H 0.61683 1.02947 -0.0081 0.0
H377 H 0.55602 0.10255 -0.03181 0.0
H378 H 0.58623 0.1157 0.03928 0.0
H379 H 0.55013 0.07711 0.0474 0.0
C380 C 0.58962 0.06759 0.21036 0.0
C381 C 0.56875 1.03547 0.23143 0.0
C382 C 0.59917 0.0751 0.13655 0.0
C383 C 0.58713 0.05077 0.08255 0.0
C384 C 0.56641 1.01861 0.10338 0.0
H385 H 0.5436 1.01295 0.64509 0.0
H386 H 0.56455 1.01433 0.76971 0.0
C387 C 0.55742 1.01094 0.17783 0.0
C388 C 0.59473 0.05904 0.00366 0.0
H389 H 0.58153 0.09781 0.86162 0.0
C390 C 0.60951 0.04471 -0.03671 0.0
C391 C 0.58542 0.07926 -0.03269 0.0
C392 C 0.56834 0.09435 0.00749 0.0
C393 C 0.61369 0.04877 0.88605 0.0
C394 C 0.60274 0.06752 0.8494 0.0
C395 C 0.59013 0.08368 0.89054 0.0
C396 C 0.59785 0.06581 0.76865 0.0
C397 C 0.62852 1.03202 0.84395 0.0
C398 C 0.60988 0.09429 0.72715 0.0
C399 C 0.59761 0.09355 0.65656 0.0
C400 C 0.57332 0.06433 0.62716 0.0
C401 C 0.56259 1.03564 0.66689 0.0
C402 C 0.57484 1.03636 0.73741 0.0
H403 H 0.64543 1.02856 0.8798 0.0
H404 H 0.60914 1.00785 0.82609 0.0
H405 H 0.64161 0.04581 0.79345 0.0
H406 H 0.62725 0.11724 0.75125 0.0
H407 H 0.60632 0.1159 0.62608 0.0
H408 H 0.50857 0.54934 0.53012 0.0
H409 H 0.50662 0.5345 0.39838 0.0
H410 H 0.55711 0.48328 0.45036 0.0
H411 H 0.5605 0.49925 0.58038 0.0
H412 H 0.58496 0.5242 0.34187 0.0
H413 H 0.45455 0.45225 0.28229 0.0
H414 H 0.46474 0.49031 0.32366 0.0
H415 H 0.47018 0.46135 0.37619 0.0
C416 C 0.51918 0.53492 0.51297 0.0
C417 C 0.53493 0.52569 0.56456 0.0
C418 C 0.51755 0.52597 0.43838 0.0
C419 C 0.531 0.50711 0.41543 0.0
C420 C 0.5463 0.49752 0.46741 0.0
H421 H 0.5828 0.49266 0.955 0.0
H422 H 0.56416 0.47338 0.08212 0.0
C423 C 0.5485 0.50697 0.54135 0.0
C424 C 0.53317 0.50122 0.33587 0.0
H425 H 0.48975 0.47715 0.17515 0.0
C426 C 0.56409 0.51312 0.30557 0.0
C427 C 0.50582 0.48664 0.28922 0.0
C428 C 0.47195 0.47161 0.31975 0.0
C429 C 0.5687 0.51303 0.22883 0.0
C430 C 0.54151 0.50038 0.18174 0.0
C431 C 0.5104 0.48674 0.21206 0.0
C432 C 0.54573 0.50591 0.10138 0.0
C433 C 0.60272 0.52856 0.19849 0.0
C434 C 0.54032 0.52963 0.07042 0.0
C435 C 0.55098 0.54067 -0.00147 0.0
C436 C 0.56698 0.52796 0.95732 0.0
C437 C 0.57083 0.503 -0.01321 0.0
C438 C 0.55997 0.49179 0.05858 0.0
H439 H 0.62111 0.54087 0.24263 0.0
H440 H 0.60687 0.50983 0.17268 0.0
H441 H 0.60642 0.54648 0.15476 0.0
H442 H 0.52959 0.5409 0.10341 0.0
H443 H 0.5479 0.56001 -0.02366 0.0
loop_
_geom_bond_atom_site_label_1
_geom_bond_atom_site_label_2
_geom_bond_distance
_geom_bond_site_symmetry_2
_ccdc_geom_bond_type
Tb0 C2 2.809 . S
Tb0 O20 2.484 . S
Tb0 O21 2.440 . S
Tb0 O22 2.658 1_455 S
Tb0 O23 2.409 . S
Tb0 O24 2.378 . S
Tb0 O28 2.325 . S
Tb0 O31 2.341 1_455 S
Tb1 C11 2.809 . S
Tb1 O22 2.325 . S
Tb1 O25 2.341 1_655 S
Tb1 O26 2.484 . S
Tb1 O27 2.440 . S
Tb1 O28 2.658 1_655 S
Tb1 O29 2.409 . S
Tb1 O30 2.378 . S
C2 Tb0 2.809 . S
C2 C3 1.514 . S
C2 O20 1.248 . S
C2 O21 1.266 . S
C3 C2 1.514 . S
C3 C4 1.359 . S
C3 C8 1.348 . S
C4 C3 1.359 . S
C4 C5 1.380 . S
C4 H32 0.929 . S
C5 C4 1.380 . S
C5 C6 1.347 . S
C5 H33 0.931 . S
C6 C5 1.347 . S
C6 C7 1.369 . S
C7 C6 1.369 . S
C7 C8 1.408 . S
C7 H34 0.930 . S
C8 C3 1.348 . S
C8 C7 1.408 . S
C8 H35 0.930 . S
C9 O22 1.281 1_455 S
C9 O23 1.254 . S
C10 O24 1.236 . S
C10 O25 1.266 . S
C11 Tb1 2.809 . S
C11 C12 1.514 . S
C11 O26 1.248 . S
C11 O27 1.266 . S
C12 C11 1.514 . S
C12 C13 1.359 . S
C12 C17 1.348 . S
C13 C12 1.359 . S
C13 C14 1.380 . S
C13 H36 0.929 . S
C14 C13 1.380 . S
C14 C15 1.347 . S
C14 H37 0.931 . S
C15 C14 1.347 . S
C15 C16 1.369 . S
C16 C15 1.369 . S
C16 C17 1.408 . S
C16 H38 0.930 . S
C17 C12 1.348 . S
C17 C16 1.408 . S
C17 H39 0.930 . S
C18 O28 1.281 . S
C18 O29 1.253 1_455 S
C19 O30 1.236 . S
C19 O31 1.266 . S
O20 Tb0 2.484 . S
O20 C2 1.248 . S
O21 Tb0 2.440 . S
O21 C2 1.266 . S
O22 Tb0 2.658 1_655 S
O22 Tb1 2.325 . S
O22 C9 1.281 1_655 S
O23 Tb0 2.409 . S
O23 C9 1.254 . S
O24 Tb0 2.378 . S
O24 C10 1.236 . S
O25 Tb1 2.341 1_455 S
O25 C10 1.266 . S
O26 Tb1 2.484 . S
O26 C11 1.248 . S
O27 Tb1 2.440 . S
O27 C11 1.266 . S
O28 Tb0 2.325 . S
O28 Tb1 2.658 1_455 S
O28 C18 1.281 . S
O29 Tb1 2.409 . S
O29 C18 1.253 1_655 S
O30 Tb1 2.378 . S
O30 C19 1.236 . S
O31 Tb0 2.341 1_655 S
O31 C19 1.266 . S
H32 C4 0.929 . S
H33 C5 0.931 . S
H34 C7 0.930 . S
H35 C8 0.930 . S
H36 C13 0.929 . S
H37 C14 0.931 . S
H38 C16 0.930 . S
H39 C17 0.930 . S
Tb40 C42 2.809 . S
Tb40 O60 2.484 . S
Tb40 O61 2.440 . S
Tb40 O62 2.658 1_565 S
Tb40 O63 2.409 . S
Tb40 O64 2.378 . S
Tb40 O68 2.325 . S
Tb40 O71 2.341 1_565 S
Tb41 C51 2.809 . S
Tb41 O62 2.325 . S
Tb41 O65 2.341 1_545 S
Tb41 O66 2.484 . S
Tb41 O67 2.440 . S
Tb41 O68 2.658 1_545 S
Tb41 O69 2.409 . S
Tb41 O70 2.378 . S
C42 Tb40 2.809 . S
C42 C43 1.514 . S
C42 O60 1.248 . S
C42 O61 1.266 . S
C43 C42 1.514 . S
C43 C44 1.359 . S
C43 C48 1.348 . S
C44 C43 1.359 . S
C44 C45 1.380 . S
C44 H72 0.929 . S
C45 C44 1.380 . S
C45 C46 1.347 . S
C45 H73 0.931 . S
C46 C45 1.347 . S
C46 C47 1.369 . S
C47 C46 1.369 . S
C47 C48 1.408 . S
C47 H74 0.930 . S
C48 C43 1.348 . S
C48 C47 1.408 . S
C48 H75 0.930 . S
C49 O62 1.283 1_565 S
C49 O63 1.250 . S
C50 O64 1.236 . S
C50 O65 1.266 . S
C51 Tb41 2.809 . S
C51 C52 1.514 . S
C51 O66 1.248 . S
C51 O67 1.266 . S
C52 C51 1.514 . S
C52 C53 1.359 . S
C52 C57 1.348 . S
C53 C52 1.359 . S
C53 C54 1.380 . S
C53 H76 0.929 . S
C54 C53 1.380 . S
C54 C55 1.347 . S
C54 H77 0.931 . S
C55 C54 1.347 . S
C55 C56 1.369 . S
C56 C55 1.369 . S
C56 C57 1.408 . S
C56 H78 0.930 . S
C57 C52 1.348 . S
C57 C56 1.408 . S
C57 H79 0.930 . S
C58 O68 1.281 1_545 S
C58 O69 1.254 . S
C59 O70 1.236 . S
C59 O71 1.266 . S
O60 Tb40 2.484 . S
O60 C42 1.248 . S
O61 Tb40 2.440 . S
O61 C42 1.266 . S
O62 Tb40 2.658 1_545 S
O62 Tb41 2.325 . S
O62 C49 1.283 1_545 S
O63 Tb40 2.409 . S
O63 C49 1.250 . S
O64 Tb40 2.378 . S
O64 C50 1.236 . S
O65 Tb41 2.341 1_565 S
O65 C50 1.266 . S
O66 Tb41 2.484 . S
O66 C51 1.248 . S
O67 Tb41 2.440 . S
O67 C51 1.266 . S
O68 Tb40 2.325 . S
O68 Tb41 2.658 1_565 S
O68 C58 1.281 1_565 S
O69 Tb41 2.409 . S
O69 C58 1.254 . S
O70 Tb41 2.378 . S
O70 C59 1.236 . S
O71 Tb40 2.341 1_545 S
O71 C59 1.266 . S
H72 C44 0.929 . S
H73 C45 0.931 . S
H74 C47 0.930 . S
H75 C48 0.930 . S
H76 C53 0.929 . S
H77 C54 0.931 . S
H78 C56 0.930 . S
H79 C57 0.930 . S
Tb80 C82 2.809 . S
Tb80 O100 2.484 . S
Tb80 O101 2.440 . S
Tb80 O102 2.658 . S
Tb80 O103 2.409 . S
Tb80 O104 2.378 . S
Tb80 O108 2.325 . S
Tb80 O111 2.341 . S
Tb81 C91 2.809 . S
Tb81 O102 2.325 . S
Tb81 O105 2.341 . S
Tb81 O106 2.484 . S
Tb81 O107 2.440 . S
Tb81 O108 2.658 . S
Tb81 O109 2.409 . S
Tb81 O110 2.378 . S
C82 Tb80 2.809 . S
C82 C83 1.514 . S
C82 O100 1.248 . S
C82 O101 1.266 . S
C83 C82 1.514 . S
C83 C84 1.359 . S
C83 C88 1.348 . S
C84 C83 1.359 . S
C84 C85 1.380 . S
C84 H112 0.929 . S
C85 C84 1.380 . S
C85 C86 1.347 . S
C85 H113 0.931 . S
C86 C85 1.347 . S
C86 C87 1.369 . S
C87 C86 1.369 . S
C87 C88 1.408 . S
C87 H114 0.930 . S
C88 C83 1.348 . S
C88 C87 1.408 . S
C88 H115 0.930 . S
C89 O102 1.281 . S
C89 O103 1.254 . S
C90 O104 1.236 . S
C90 O105 1.266 . S
C91 Tb81 2.809 . S
C91 C92 1.514 . S
C91 O106 1.248 . S
C91 O107 1.266 . S
C92 C91 1.514 . S
C92 C93 1.359 . S
C92 C97 1.348 . S
C93 C92 1.359 . S
C93 C94 1.380 . S
C93 H116 0.929 . S
C94 C93 1.380 . S
C94 C95 1.347 . S
C94 H117 0.931 . S
C95 C94 1.347 . S
C95 C96 1.369 . S
C96 C95 1.369 . S
C96 C97 1.408 . S
C96 H118 0.930 . S
C97 C92 1.348 . S
C97 C96 1.408 . S
C97 H119 0.930 . S
C98 O108 1.281 . S
C98 O109 1.254 . S
C99 O110 1.236 . S
C99 O111 1.266 . S
O100 Tb80 2.484 . S
O100 C82 1.248 . S
O101 Tb80 2.440 . S
O101 C82 1.266 . S
O102 Tb80 2.658 . S
O102 Tb81 2.325 . S
O102 C89 1.281 . S
O103 Tb80 2.409 . S
O103 C89 1.254 . S
O104 Tb80 2.378 . S
O104 C90 1.236 . S
O105 Tb81 2.341 . S
O105 C90 1.266 . S
O106 Tb81 2.484 . S
O106 C91 1.248 . S
O107 Tb81 2.440 . S
O107 C91 1.266 . S
O108 Tb80 2.325 . S
O108 Tb81 2.658 . S
O108 C98 1.281 . S
O109 Tb81 2.409 . S
O109 C98 1.254 . S
O110 Tb81 2.378 . S
O110 C99 1.236 . S
O111 Tb80 2.341 . S
O111 C99 1.266 . S
H112 C84 0.929 . S
H113 C85 0.931 . S
H114 C87 0.930 . S
H115 C88 0.930 . S
H116 C93 0.929 . S
H117 C94 0.931 . S
H118 C96 0.930 . S
H119 C97 0.930 . S
H120 C128 0.929 . S
H121 C130 0.930 . S
H122 C132 0.930 1_556 S
H123 C135 0.929 . S
H124 C138 0.930 . S
H125 C140 0.960 . S
H126 C140 0.960 1_554 S
H127 C140 0.960 . S
C128 H120 0.929 . S
C128 C129 1.377 . S
C128 C130 1.384 . S
C129 C128 1.377 . S
C129 C135 1.390 . S
C130 H121 0.930 . S
C130 C128 1.384 . S
C130 C131 1.372 . S
C131 C130 1.372 . S
C131 C132 1.400 . S
C131 C136 1.490 . S
C132 H122 0.930 1_554 S
C132 C131 1.400 . S
C132 C135 1.386 . S
H133 C149 0.930 . S
H134 C150 0.931 . S
C135 H123 0.929 . S
C135 C129 1.390 . S
C135 C132 1.386 . S
C136 C131 1.490 . S
C136 C138 1.395 . S
C136 C139 1.403 1_554 S
H137 C143 0.930 . S
C138 H124 0.930 . S
C138 C136 1.395 . S
C138 C141 1.403 . S
C139 C136 1.403 1_556 S
C139 C140 1.524 . S
C139 C143 1.400 . S
C140 H125 0.960 . S
C140 H126 0.960 1_556 S
C140 H127 0.960 . S
C140 C139 1.524 . S
C141 C138 1.403 . S
C141 C142 1.392 1_554 S
C141 C145 1.495 . S
C142 C141 1.392 1_556 S
C142 C143 1.385 . S
C142 C144 1.478 . S
C143 H137 0.930 . S
C143 C139 1.400 . S
C143 C142 1.385 . S
C144 C142 1.478 . S
C144 C146 1.381 1_556 S
C144 C150 1.383 . S
C145 C141 1.495 . S
C145 H151 0.959 . S
C145 H152 0.961 . S
C145 H153 0.960 . S
C146 C144 1.381 1_554 S
C146 C147 1.394 1_554 S
C146 H154 0.930 . S
C147 C146 1.394 1_556 S
C147 C148 1.383 . S
C147 H155 0.929 1_556 S
C148 C147 1.383 . S
C148 C149 1.377 . S
C149 H133 0.930 . S
C149 C148 1.377 . S
C149 C150 1.379 . S
C150 H134 0.931 . S
C150 C144 1.383 . S
C150 C149 1.379 . S
H151 C145 0.959 . S
H152 C145 0.961 . S
H153 C145 0.960 . S
H154 C146 0.930 . S
H155 C147 0.929 1_554 S
H156 C164 0.929 . S
H157 C166 0.930 . S
H158 C168 0.930 . S
H159 C171 0.929 . S
H160 C174 0.930 . S
H161 C176 0.960 . S
H162 C176 0.960 . S
H163 C176 0.960 . S
C164 H156 0.929 . S
C164 C165 1.377 . S
C164 C166 1.384 . S
C165 C164 1.377 . S
C165 C171 1.390 . S
C166 H157 0.930 . S
C166 C164 1.384 . S
C166 C167 1.372 . S
C167 C166 1.372 . S
C167 C168 1.400 . S
C167 C172 1.490 . S
C168 H158 0.930 . S
C168 C167 1.400 . S
C168 C171 1.386 . S
H169 C185 0.930 . S
H170 C186 0.931 . S
C171 H159 0.929 . S
C171 C165 1.390 . S
C171 C168 1.386 . S
C172 C167 1.490 . S
C172 C174 1.395 . S
C172 C175 1.403 . S
H173 C179 0.930 . S
C174 H160 0.930 . S
C174 C172 1.395 . S
C174 C177 1.403 . S
C175 C172 1.403 . S
C175 C176 1.524 . S
C175 C179 1.400 . S
C176 H161 0.960 . S
C176 H162 0.960 . S
C176 H163 0.960 . S
C176 C175 1.524 . S
C177 C174 1.403 . S
C177 C178 1.392 . S
C177 C181 1.495 . S
C178 C177 1.392 . S
C178 C179 1.385 . S
C178 C180 1.478 . S
C179 H173 0.930 . S
C179 C175 1.400 . S
C179 C178 1.385 . S
C180 C178 1.478 . S
C180 C182 1.381 . S
C180 C186 1.383 . S
C181 C177 1.495 . S
C181 H187 0.959 . S
C181 H188 0.961 . S
C181 H189 0.960 . S
C182 C180 1.381 . S
C182 C183 1.394 . S
C182 H190 0.930 . S
C183 C182 1.394 . S
C183 C184 1.383 . S
C183 H191 0.929 . S
C184 C183 1.383 . S
C184 C185 1.377 . S
C185 H169 0.930 . S
C185 C184 1.377 . S
C185 C186 1.379 . S
C186 H170 0.931 . S
C186 C180 1.383 . S
C186 C185 1.379 . S
H187 C181 0.959 . S
H188 C181 0.961 . S
H189 C181 0.960 . S
H190 C182 0.930 . S
H191 C183 0.929 . S
H192 C200 0.929 . S
H193 C202 0.930 . S
H194 C204 0.930 . S
H195 C207 0.929 . S
H196 C210 0.930 . S
H197 C212 0.960 . S
H198 C212 0.960 . S
H199 C212 0.960 . S
C200 H192 0.929 . S
C200 C201 1.377 . S
C200 C202 1.384 . S
C201 C200 1.377 . S
C201 C207 1.390 . S
C202 H193 0.930 . S
C202 C200 1.384 . S
C202 C203 1.372 . S
C203 C202 1.372 . S
C203 C204 1.400 . S
C203 C208 1.490 . S
C204 H194 0.930 . S
C204 C203 1.400 . S
C204 C207 1.386 . S
H205 C221 0.930 . S
H206 C222 0.931 . S
C207 H195 0.929 . S
C207 C201 1.390 . S
C207 C204 1.386 . S
C208 C203 1.490 . S
C208 C210 1.395 . S
C208 C211 1.403 . S
H209 C215 0.930 . S
C210 H196 0.930 . S
C210 C208 1.395 . S
C210 C213 1.403 . S
C211 C208 1.403 . S
C211 C212 1.524 . S
C211 C215 1.400 . S
C212 H197 0.960 . S
C212 H198 0.960 . S
C212 H199 0.960 . S
C212 C211 1.524 . S
C213 C210 1.403 . S
C213 C214 1.392 . S
C213 C217 1.495 . S
C214 C213 1.392 . S
C214 C215 1.385 . S
C214 C216 1.478 . S
C215 H209 0.930 . S
C215 C211 1.400 . S
C215 C214 1.385 . S
C216 C214 1.478 . S
C216 C218 1.381 . S
C216 C222 1.383 . S
C217 C213 1.495 . S
C217 H223 0.959 . S
C217 H224 0.961 . S
C217 H225 0.960 . S
C218 C216 1.381 . S
C218 C219 1.394 . S
C218 H226 0.930 . S
C219 C218 1.394 . S
C219 C220 1.383 . S
C219 H227 0.929 . S
C220 C219 1.383 . S
C220 C221 1.377 . S
C221 H205 0.930 . S
C221 C220 1.377 . S
C221 C222 1.379 . S
C222 H206 0.931 . S
C222 C216 1.383 . S
C222 C221 1.379 . S
H223 C217 0.959 . S
H224 C217 0.961 . S
H225 C217 0.960 . S
H226 C218 0.930 . S
H227 C219 0.929 . S
H228 C236 0.929 . S
H229 C238 0.930 . S
H230 C240 0.930 1_554 S
H231 C243 0.929 . S
H232 C246 0.930 . S
H233 C248 0.960 1_554 S
H234 C248 0.960 . S
H235 C248 0.960 1_554 S
C236 H228 0.929 . S
C236 C237 1.377 . S
C236 C238 1.384 . S
C237 C236 1.377 . S
C237 C243 1.390 . S
C238 H229 0.930 . S
C238 C236 1.384 . S
C238 C239 1.372 . S
C239 C238 1.372 . S
C239 C240 1.400 . S
C239 C244 1.490 . S
C240 H230 0.930 1_556 S
C240 C239 1.400 . S
C240 C243 1.386 . S
H241 C257 0.930 . S
H242 C258 0.931 . S
C243 H231 0.929 . S
C243 C237 1.390 . S
C243 C240 1.386 . S
C244 C239 1.490 . S
C244 C246 1.395 . S
C244 C247 1.403 . S
H245 C251 0.930 . S
C246 H232 0.930 . S
C246 C244 1.395 . S
C246 C249 1.403 . S
C247 C244 1.403 . S
C247 C248 1.524 . S
C247 C251 1.400 1_556 S
C248 H233 0.960 1_556 S
C248 H234 0.960 . S
C248 H235 0.960 1_556 S
C248 C247 1.524 . S
C249 C246 1.403 . S
C249 C250 1.392 1_556 S
C249 C253 1.495 . S
C250 C249 1.392 1_554 S
C250 C251 1.385 . S
C250 C252 1.478 . S
C251 H245 0.930 . S
C251 C247 1.400 1_554 S
C251 C250 1.385 . S
C252 C250 1.478 . S
C252 C254 1.381 . S
C252 C258 1.383 . S
C253 C249 1.495 . S
C253 H259 0.959 . S
C253 H260 0.961 1_556 S
C253 H261 0.960 . S
C254 C252 1.381 . S
C254 C255 1.394 . S
C254 H262 0.930 1_554 S
C255 C254 1.394 . S
C255 C256 1.383 . S
C255 H263 0.929 . S
C256 C255 1.383 . S
C256 C257 1.377 . S
C257 H241 0.930 . S
C257 C256 1.377 . S
C257 C258 1.379 . S
C258 H242 0.931 . S
C258 C252 1.383 . S
C258 C257 1.379 . S
H259 C253 0.959 . S
H260 C253 0.961 1_554 S
H261 C253 0.960 . S
H262 C254 0.930 1_556 S
H263 C255 0.929 . S
H264 C272 0.929 . S
H265 C274 0.930 . S
H266 C276 0.930 . S
H267 C279 0.929 . S
H268 C282 0.930 . S
H269 C284 0.960 . S
H270 C284 0.960 . S
H271 C284 0.960 . S
C272 H264 0.929 . S
C272 C273 1.377 . S
C272 C274 1.384 . S
C273 C272 1.377 . S
C273 C279 1.390 . S
C274 H265 0.930 . S
C274 C272 1.384 . S
C274 C275 1.372 . S
C275 C274 1.372 . S
C275 C276 1.400 . S
C275 C280 1.490 . S
C276 H266 0.930 . S
C276 C275 1.400 . S
C276 C279 1.386 . S
H277 C293 0.930 . S
H278 C294 0.931 . S
C279 H267 0.929 . S
C279 C273 1.390 . S
C279 C276 1.386 . S
C280 C275 1.490 . S
C280 C282 1.395 . S
C280 C283 1.403 . S
H281 C287 0.930 . S
C282 H268 0.930 . S
C282 C280 1.395 . S
C282 C285 1.403 . S
C283 C280 1.403 . S
C283 C284 1.524 . S
C283 C287 1.400 . S
C284 H269 0.960 . S
C284 H270 0.960 . S
C284 H271 0.960 . S
C284 C283 1.524 . S
C285 C282 1.403 . S
C285 C286 1.392 . S
C285 C289 1.495 . S
C286 C285 1.392 . S
C286 C287 1.385 . S
C286 C288 1.478 . S
C287 H281 0.930 . S
C287 C283 1.400 . S
C287 C286 1.385 . S
C288 C286 1.478 . S
C288 C290 1.381 . S
C288 C294 1.383 . S
C289 C285 1.495 . S
C289 H295 0.959 . S
C289 H296 0.961 . S
C289 H297 0.960 . S
C290 C288 1.381 . S
C290 C291 1.394 . S
C290 H298 0.930 . S
C291 C290 1.394 . S
C291 C292 1.383 . S
C291 H299 0.929 . S
C292 C291 1.383 . S
C292 C293 1.377 . S
C293 H277 0.930 . S
C293 C292 1.377 . S
C293 C294 1.379 . S
C294 H278 0.931 . S
C294 C288 1.383 . S
C294 C293 1.379 . S
H295 C289 0.959 . S
H296 C289 0.961 . S
H297 C289 0.960 . S
H298 C290 0.930 . S
H299 C291 0.929 . S
H300 C308 0.929 . S
H301 C310 0.930 . S
H302 C312 0.930 . S
H303 C315 0.929 . S
H304 C318 0.930 . S
H305 C320 0.960 . S
H306 C320 0.960 . S
H307 C320 0.960 . S
C308 H300 0.929 . S
C308 C309 1.377 . S
C308 C310 1.384 . S
C309 C308 1.377 . S
C309 C315 1.390 . S
C310 H301 0.930 . S
C310 C308 1.384 . S
C310 C311 1.372 . S
C311 C310 1.372 . S
C311 C312 1.400 . S
C311 C316 1.490 . S
C312 H302 0.930 . S
C312 C311 1.400 . S
C312 C315 1.386 . S
H313 C329 0.930 . S
H314 C330 0.931 . S
C315 H303 0.929 . S
C315 C309 1.390 . S
C315 C312 1.386 . S
C316 C311 1.490 . S
C316 C318 1.395 . S
C316 C319 1.403 . S
H317 C323 0.930 . S
C318 H304 0.930 . S
C318 C316 1.395 . S
C318 C321 1.403 . S
C319 C316 1.403 . S
C319 C320 1.524 . S
C319 C323 1.400 . S
C320 H305 0.960 . S
C320 H306 0.960 . S
C320 H307 0.960 . S
C320 C319 1.524 . S
C321 C318 1.403 . S
C321 C322 1.392 . S
C321 C325 1.495 . S
C322 C321 1.392 . S
C322 C323 1.385 . S
C322 C324 1.478 . S
C323 H317 0.930 . S
C323 C319 1.400 . S
C323 C322 1.385 . S
C324 C322 1.478 . S
C324 C326 1.381 . S
C324 C330 1.383 . S
C325 C321 1.495 . S
C325 H331 0.959 . S
C325 H332 0.961 . S
C325 H333 0.960 . S
C326 C324 1.381 . S
C326 C327 1.394 . S
C326 H334 0.930 . S
C327 C326 1.394 . S
C327 C328 1.383 . S
C327 H335 0.929 . S
C328 C327 1.383 . S
C328 C329 1.377 . S
C329 H313 0.930 . S
C329 C328 1.377 . S
C329 C330 1.379 . S
C330 H314 0.931 . S
C330 C324 1.383 . S
C330 C329 1.379 . S
H331 C325 0.959 . S
H332 C325 0.961 . S
H333 C325 0.960 . S
H334 C326 0.930 . S
H335 C327 0.929 . S
H336 C344 0.929 . S
H337 C346 0.930 . S
H338 C348 0.930 . S
H339 C351 0.929 . S
H340 C354 0.930 . S
H341 C356 0.960 . S
H342 C356 0.960 . S
H343 C356 0.960 . S
C344 H336 0.929 . S
C344 C345 1.377 1_556 S
C344 C346 1.384 . S
C345 C344 1.377 1_554 S
C345 C351 1.390 1_654 S
C346 H337 0.930 . S
C346 C344 1.384 . S
C346 C347 1.372 . S
C347 C346 1.372 . S
C347 C348 1.400 1_655 S
C347 C352 1.490 . S
C348 H338 0.930 . S
C348 C347 1.400 1_455 S
C348 C351 1.386 . S
H349 C365 0.930 . S
H350 C366 0.931 . S
C351 H339 0.929 . S
C351 C345 1.390 1_456 S
C351 C348 1.386 . S
C352 C347 1.490 . S
C352 C354 1.395 . S
C352 C355 1.403 1_655 S
H353 C359 0.930 . S
C354 H340 0.930 . S
C354 C352 1.395 . S
C354 C357 1.403 . S
C355 C352 1.403 1_455 S
C355 C356 1.524 . S
C355 C359 1.400 . S
C356 H341 0.960 . S
C356 H342 0.960 . S
C356 H343 0.960 . S
C356 C355 1.524 . S
C357 C354 1.403 . S
C357 C358 1.392 . S
C357 C361 1.495 . S
C358 C357 1.392 . S
C358 C359 1.385 1_655 S
C358 C360 1.478 . S
C359 H353 0.930 . S
C359 C355 1.400 . S
C359 C358 1.385 1_455 S
C360 C358 1.478 . S
C360 C362 1.400 . S
C360 C366 1.362 1_655 S
C361 C357 1.495 . S
C361 H367 0.959 . S
C361 H368 0.961 . S
C361 H369 0.960 . S
C362 C360 1.400 . S
C362 C363 1.394 . S
C362 H370 0.930 . S
C363 C362 1.394 . S
C363 C364 1.383 1_655 S
C363 H371 0.929 . S
C364 C363 1.383 1_455 S
C364 C365 1.377 . S
C365 H349 0.930 . S
C365 C364 1.377 . S
C365 C366 1.379 . S
C366 H350 0.931 . S
C366 C360 1.362 1_455 S
C366 C365 1.379 . S
H367 C361 0.959 . S
H368 C361 0.961 . S
H369 C361 0.960 . S
H370 C362 0.930 . S
H371 C363 0.929 . S
H372 C380 0.929 . S
H373 C382 0.930 . S
H374 C384 0.930 . S
H375 C387 0.929 . S
H376 C390 0.930 . S
H377 C392 0.960 . S
H378 C392 0.960 . S
H379 C392 0.960 . S
C380 H372 0.929 . S
C380 C381 1.377 . S
C380 C382 1.384 . S
C381 C380 1.377 . S
C381 C387 1.390 1_545 S
C382 H373 0.930 . S
C382 C380 1.384 . S
C382 C383 1.372 . S
C383 C382 1.372 . S
C383 C384 1.400 1_545 S
C383 C388 1.490 . S
C384 H374 0.930 . S
C384 C383 1.400 1_565 S
C384 C387 1.386 . S
H385 C401 0.930 . S
H386 C402 0.931 . S
C387 H375 0.929 . S
C387 C381 1.390 1_565 S
C387 C384 1.386 . S
C388 C383 1.490 . S
C388 C390 1.395 1_545 S
C388 C391 1.403 . S
H389 C395 0.930 . S
C390 H376 0.930 . S
C390 C388 1.395 1_565 S
C390 C393 1.403 1_554 S
C391 C388 1.403 . S
C391 C392 1.524 . S
C391 C395 1.400 1_554 S
C392 H377 0.960 . S
C392 H378 0.960 . S
C392 H379 0.960 . S
C392 C391 1.524 . S
C393 C390 1.403 1_556 S
C393 C394 1.392 . S
C393 C397 1.495 . S
C394 C393 1.392 . S
C394 C395 1.385 1_565 S
C394 C396 1.478 . S
C395 H389 0.930 . S
C395 C391 1.400 1_556 S
C395 C394 1.385 1_545 S
C396 C394 1.478 . S
C396 C398 1.381 1_565 S
C396 C402 1.383 . S
C397 C393 1.495 . S
C397 H403 0.959 . S
C397 H404 0.961 . S
C397 H405 0.960 . S
C398 C396 1.381 1_545 S
C398 C399 1.394 . S
C398 H406 0.930 . S
C399 C398 1.394 . S
C399 C400 1.383 1_545 S
C399 H407 0.929 . S
C400 C399 1.383 1_565 S
C400 C401 1.377 . S
C401 H385 0.930 . S
C401 C400 1.377 . S
C401 C402 1.379 . S
C402 H386 0.931 . S
C402 C396 1.383 . S
C402 C401 1.379 . S
H403 C397 0.959 . S
H404 C397 0.961 . S
H405 C397 0.960 . S
H406 C398 0.930 . S
H407 C399 0.929 . S
H408 C416 0.929 . S
H409 C418 0.930 . S
H410 C420 0.930 . S
H411 C423 0.929 . S
H412 C426 0.930 . S
H413 C428 0.960 . S
H414 C428 0.960 . S
H415 C428 0.960 . S
C416 H408 0.929 . S
C416 C417 1.377 . S
C416 C418 1.384 . S
C417 C416 1.377 . S
C417 C423 1.390 . S
C418 H409 0.930 . S
C418 C416 1.384 . S
C418 C419 1.372 . S
C419 C418 1.372 . S
C419 C420 1.400 . S
C419 C424 1.490 . S
C420 H410 0.930 . S
C420 C419 1.400 . S
C420 C423 1.386 . S
H421 C437 0.930 . S
H422 C438 0.931 . S
C423 H411 0.929 . S
C423 C417 1.390 . S
C423 C420 1.386 . S
C424 C419 1.490 . S
C424 C426 1.395 . S
C424 C427 1.403 . S
H425 C431 0.930 . S
C426 H412 0.930 . S
C426 C424 1.395 . S
C426 C429 1.403 . S
C427 C424 1.403 . S
C427 C428 1.524 . S
C427 C431 1.400 . S
C428 H413 0.960 . S
C428 H414 0.960 . S
C428 H415 0.960 . S
C428 C427 1.524 . S
C429 C426 1.403 . S
C429 C430 1.392 . S
C429 C433 1.495 . S
C430 C429 1.392 . S
C430 C431 1.385 . S
C430 C432 1.478 . S
C431 H425 0.930 . S
C431 C427 1.400 . S
C431 C430 1.385 . S
C432 C430 1.478 . S
C432 C434 1.381 . S
C432 C438 1.383 . S
C433 C429 1.495 . S
C433 H439 0.959 . S
C433 H440 0.961 . S
C433 H441 0.960 . S
C434 C432 1.381 . S
C434 C435 1.394 . S
C434 H442 0.930 . S
C435 C434 1.394 . S
C435 C436 1.383 1_554 S
C435 H443 0.929 . S
C436 C435 1.383 1_556 S
C436 C437 1.377 1_556 S
C437 H421 0.930 . S
C437 C436 1.377 1_554 S
C437 C438 1.379 . S
C438 H422 0.931 . S
C438 C432 1.383 . S
C438 C437 1.379 . S
H439 C433 0.959 . S
H440 C433 0.961 . S
H441 C433 0.960 . S
H442 C434 0.930 . S
H443 C435 0.929 . S
C129 C10 1.983 . S
C148 C86 2.020 . S
C165 C59 2.279 . S
C184 C15 2.238 . S
C201 C46 2.031 . S
C220 C90 1.987 . S
C237 C95 2.228 . S
C256 C19 2.270 . S
C273 C50 1.984 . S
C292 C6 2.030 . S
C309 C99 2.278 . S
C328 C55 2.219 . S
C345 C9 0.443 1_655 S
C364 C18 0.493 . S
C381 C49 0.434 1_545 S
C400 C58 0.520 1_565 S
C417 C89 0.404 . S
C436 C98 0.344 . S
