# Generated by pormake.
# Topology noy, (5)-cn, num edge types: 1
# Building blocks:
#     Node 0, Type 0, BuildingBlock: BEQFEK_clean_sbu_0, # of connection points: 5
#     Node 1, Type 0, BuildingBlock: BEQFEK_clean_sbu_0, # of connection points: 5
#     Node 2, Type 0, BuildingBlock: BEQFEK_clean_sbu_0, # of connection points: 5
#     Node 3, Type 0, BuildingBlock: BEQFEK_clean_sbu_0, # of connection points: 5
#     Node 4, Type 0, BuildingBlock: BEQFEK_clean_sbu_0, # of connection points: 5
#     Node 5, Type 0, BuildingBlock: BEQFEK_clean_sbu_0, # of connection points: 5
#     Node 6, Type 0, BuildingBlock: BEQFEK_clean_sbu_0, # of connection points: 5
#     Node 7, Type 0, BuildingBlock: BEQFEK_clean_sbu_0, # of connection points: 5
#     Edge 8, Type (0, 0), BuildingBlock: XIVTED_clean_linker_0, # of connection points: 2
#     Edge 9, Type (0, 0), BuildingBlock: XIVTED_clean_linker_0, # of connection points: 2
#     Edge 10, Type (0, 0), BuildingBlock: XIVTED_clean_linker_0, # of connection points: 2
#     Edge 11, Type (0, 0), BuildingBlock: XIVTED_clean_linker_0, # of connection points: 2
#     Edge 12, Type (0, 0), BuildingBlock: XIVTED_clean_linker_0, # of connection points: 2
#     Edge 13, Type (0, 0), BuildingBlock: XIVTED_clean_linker_0, # of connection points: 2
#     Edge 14, Type (0, 0), BuildingBlock: XIVTED_clean_linker_0, # of connection points: 2
#     Edge 15, Type (0, 0), BuildingBlock: XIVTED_clean_linker_0, # of connection points: 2
#     Edge 16, Type (0, 0), BuildingBlock: XIVTED_clean_linker_0, # of connection points: 2
#     Edge 17, Type (0, 0), BuildingBlock: XIVTED_clean_linker_0, # of connection points: 2
#     Edge 18, Type (0, 0), BuildingBlock: XIVTED_clean_linker_0, # of connection points: 2
#     Edge 19, Type (0, 0), BuildingBlock: XIVTED_clean_linker_0, # of connection points: 2
#     Edge 20, Type (0, 0), BuildingBlock: XIVTED_clean_linker_0, # of connection points: 2
#     Edge 21, Type (0, 0), BuildingBlock: XIVTED_clean_linker_0, # of connection points: 2
#     Edge 22, Type (0, 0), BuildingBlock: XIVTED_clean_linker_0, # of connection points: 2
#     Edge 23, Type (0, 0), BuildingBlock: XIVTED_clean_linker_0, # of connection points: 2
#     Edge 24, Type (0, 0), BuildingBlock: XIVTED_clean_linker_0, # of connection points: 2
#     Edge 25, Type (0, 0), BuildingBlock: XIVTED_clean_linker_0, # of connection points: 2
#     Edge 26, Type (0, 0), BuildingBlock: XIVTED_clean_linker_0, # of connection points: 2
#     Edge 27, Type (0, 0), BuildingBlock: XIVTED_clean_linker_0, # of connection points: 2
# Relax obj value: 0.053
# Max RMSD: 0.089
# Mean RMSD: 0.089
data_MOF--net-noy--node1-BEQFEK_clean_sbu_0--edge1-XIVTED_clean_linker_0
_symmetry_space_group_name_H-M    P1
_symmetry_Int_Tables_number       1
_symmetry_cell_setting            triclinic
loop_
_symmetry_equiv_pos_as_xyz
'x, y, z'
_cell_length_a     45.357643
_cell_length_b     47.360052
_cell_length_c     24.306824
_cell_angle_alpha  89.968031
_cell_angle_beta   89.992239
_cell_angle_gamma 89.945364
loop_
_atom_site_label
_atom_site_type_symbol
_atom_site_fract_x
_atom_site_fract_y
_atom_site_fract_z
_atom_type_partial_charge
Co0 Co 0.33519 0.40862 0.25202 0.0
Co1 Co 0.33961 0.3646 0.1559 0.0
C2 C 0.32127 0.42555 0.13735 0.0
O3 O 0.32272 0.43144 0.18833 0.0
O4 O 0.32736 0.40084 0.11981 0.0
C5 C 0.30926 0.44828 0.32879 0.0
O6 O 0.2876 0.44999 0.29306 0.0
C7 C 0.31415 0.32775 0.07068 0.0
C8 C 0.352 0.3004 0.04969 0.0
C9 C 0.32263 0.30535 0.03728 0.0
N10 N 0.33736 0.33538 0.10176 0.0
N11 N 0.35992 0.31899 0.08885 0.0
C12 C 0.28514 0.34285 0.07087 0.0
H13 H 0.2874 0.36413 0.08933 0.0
H14 H 0.26899 0.33079 0.09574 0.0
H15 H 0.27639 0.34459 0.02835 0.0
C16 C 0.29811 0.36323 0.29979 0.0
N17 N 0.31358 0.3744 0.25776 0.0
N18 N 0.31576 0.35557 0.21809 0.0
C19 C 0.30208 0.33163 0.23416 0.0
C20 C 0.29026 0.3358 0.2862 0.0
C21 C 0.29151 0.37847 0.35229 0.0
H22 H 0.27884 0.39788 0.34279 0.0
H23 H 0.27834 0.36544 0.38111 0.0
H24 H 0.31246 0.38479 0.37233 0.0
O25 O 0.37787 0.40029 0.24545 0.0
O26 O 0.38136 0.36754 0.18028 0.0
H27 H 0.32582 0.3016 0.1849 0.0
H28 H 0.29976 0.286 0.23208 0.0
C29 C 0.3038 0.3041 0.20407 0.0
H30 H 0.28685 0.30369 0.17131 0.0
H31 H 0.38075 0.32047 0.10685 0.0
O32 O 0.33083 0.43184 0.31929 0.0
C33 C 0.39319 0.38338 0.21641 0.0
Co34 Co 0.66707 0.60143 0.75148 0.0
Co35 Co 0.66201 0.6453 0.655 0.0
C36 C 0.67959 0.58443 0.63571 0.0
O37 O 0.67832 0.5788 0.68688 0.0
O38 O 0.67381 0.60915 0.61761 0.0
C39 C 0.68316 0.55457 0.82285 0.0
O40 O 0.69224 0.54192 0.77785 0.0
C41 C 0.68339 0.6816 0.56482 0.0
C42 C 0.65098 0.71644 0.56726 0.0
C43 C 0.67652 0.70749 0.54138 0.0
N44 N 0.66285 0.67557 0.60299 0.0
N45 N 0.64328 0.69626 0.60352 0.0
C46 C 0.71051 0.66431 0.55533 0.0
H47 H 0.71493 0.65047 0.59127 0.0
H48 H 0.72978 0.67818 0.54747 0.0
H49 H 0.70711 0.65085 0.51853 0.0
C50 C 0.70601 0.64556 0.79625 0.0
N51 N 0.68921 0.63509 0.75549 0.0
N52 N 0.68727 0.6538 0.71561 0.0
C53 C 0.70275 0.67699 0.73012 0.0
C54 C 0.71509 0.67251 0.78176 0.0
C55 C 0.71285 0.63002 0.84836 0.0
H56 H 0.72053 0.60838 0.83836 0.0
H57 H 0.73011 0.64088 0.87278 0.0
H58 H 0.69246 0.62818 0.87335 0.0
O59 O 0.62455 0.60993 0.74741 0.0
O60 O 0.62055 0.64225 0.68159 0.0
H61 H 0.68021 0.71014 0.68756 0.0
H62 H 0.71358 0.7214 0.72123 0.0
C63 C 0.7031 0.70395 0.69797 0.0
H64 H 0.71541 0.70064 0.65911 0.0
H65 H 0.62531 0.69717 0.63028 0.0
O66 O 0.6724 0.5793 0.81986 0.0
C67 C 0.60902 0.62672 0.71858 0.0
Co68 Co 0.33296 0.601 0.75338 0.0
Co69 Co 0.33831 0.64549 0.84843 0.0
C70 C 0.31935 0.58516 0.86921 0.0
O71 O 0.32067 0.57899 0.81832 0.0
O72 O 0.32559 0.60992 0.88624 0.0
C73 C 0.30592 0.5616 0.67698 0.0
O74 O 0.28365 0.56113 0.71153 0.0
C75 C 0.31527 0.68313 0.93462 0.0
C76 C 0.35237 0.71275 0.94577 0.0
C77 C 0.32394 0.70708 0.96375 0.0
N78 N 0.33747 0.67538 0.90117 0.0
N79 N 0.35967 0.693 0.90845 0.0
C80 C 0.28584 0.66889 0.93472 0.0
H81 H 0.28309 0.6559 0.89707 0.0
H82 H 0.26785 0.68474 0.93725 0.0
H83 H 0.28436 0.65471 0.97096 0.0
C84 C 0.29628 0.64661 0.70506 0.0
N85 N 0.31185 0.63549 0.74701 0.0
N86 N 0.31396 0.65432 0.7867 0.0
C87 C 0.29979 0.67808 0.77098 0.0
C88 C 0.28802 0.67389 0.71895 0.0
C89 C 0.29007 0.63155 0.65221 0.0
H90 H 0.27615 0.61286 0.66088 0.0
H91 H 0.2783 0.64514 0.62226 0.0
H92 H 0.31108 0.62408 0.63388 0.0
O93 O 0.37569 0.60864 0.75855 0.0
O94 O 0.37989 0.64157 0.82312 0.0
H95 H 0.32288 0.70921 0.81832 0.0
H96 H 0.2939 0.72342 0.77557 0.0
C97 C 0.30044 0.70537 0.80202 0.0
H98 H 0.28487 0.70412 0.83707 0.0
H99 H 0.3796 0.69189 0.88708 0.0
O100 O 0.32804 0.57721 0.68706 0.0
C101 C 0.39135 0.62544 0.78705 0.0
Co102 Co 0.66998 0.40561 0.25507 0.0
Co103 Co 0.66248 0.36291 0.35263 0.0
C104 C 0.68143 0.42389 0.36949 0.0
O105 O 0.68136 0.42905 0.31816 0.0
O106 O 0.67453 0.39953 0.38785 0.0
C107 C 0.66966 0.45304 0.18371 0.0
O108 O 0.65715 0.46515 0.22638 0.0
C109 C 0.68648 0.32642 0.4396 0.0
C110 C 0.6478 0.30067 0.46251 0.0
C111 C 0.67738 0.30479 0.4743 0.0
N112 N 0.66344 0.33442 0.40841 0.0
N113 N 0.64036 0.319 0.42247 0.0
C114 C 0.71599 0.34056 0.43822 0.0
H115 H 0.71426 0.3618 0.41926 0.0
H116 H 0.7315 0.32785 0.41318 0.0
H117 H 0.72515 0.34229 0.48044 0.0
C118 C 0.70735 0.35971 0.21262 0.0
N119 N 0.69115 0.37126 0.25314 0.0
N120 N 0.68745 0.35262 0.29271 0.0
C121 C 0.70069 0.32822 0.27777 0.0
C122 C 0.71387 0.33202 0.22667 0.0
C123 C 0.71554 0.37478 0.16069 0.0
H124 H 0.72354 0.3963 0.17064 0.0
H125 H 0.73296 0.36332 0.1377 0.0
H126 H 0.69569 0.37687 0.13429 0.0
O127 O 0.62705 0.39822 0.25848 0.0
O128 O 0.6213 0.36641 0.32502 0.0
H129 H 0.6998 0.28259 0.27896 0.0
H130 H 0.7141 0.29898 0.33992 0.0
C131 C 0.69708 0.30072 0.30742 0.0
H132 H 0.67501 0.29956 0.32682 0.0
H133 H 0.61954 0.32094 0.4046 0.0
O134 O 0.67727 0.42729 0.18698 0.0
C135 C 0.61068 0.38207 0.28718 0.0
Co136 Co 0.83286 0.90511 0.2505 0.0
Co137 Co 0.83938 0.86138 0.15472 0.0
C138 C 0.82209 0.92228 0.13443 0.0
O139 O 0.82327 0.92831 0.18539 0.0
O140 O 0.82741 0.89732 0.11745 0.0
C141 C 0.83494 0.95303 0.32102 0.0
O142 O 0.84937 0.96405 0.27935 0.0
C143 C 0.81502 0.82352 0.07099 0.0
C144 C 0.85393 0.79824 0.04708 0.0
C145 C 0.82411 0.80177 0.03657 0.0
N146 N 0.83831 0.83214 0.10075 0.0
N147 N 0.86151 0.817 0.08619 0.0
C148 C 0.7853 0.83723 0.07343 0.0
H149 H 0.78699 0.85876 0.09108 0.0
H150 H 0.77056 0.82466 0.10029 0.0
H151 H 0.77532 0.83823 0.03178 0.0
C152 C 0.79299 0.86132 0.29322 0.0
N153 N 0.81015 0.87169 0.2529 0.0
N154 N 0.81457 0.85206 0.21557 0.0
C155 C 0.80143 0.82797 0.23245 0.0
C156 C 0.78714 0.83304 0.28228 0.0
C157 C 0.7825 0.87848 0.3411 0.0
H158 H 0.77715 0.90022 0.32732 0.0
H159 H 0.7626 0.86905 0.36022 0.0
H160 H 0.80034 0.87981 0.37225 0.0
O161 O 0.87559 0.89535 0.25047 0.0
O162 O 0.88051 0.86536 0.1807 0.0
H163 H 0.80553 0.78258 0.23708 0.0
H164 H 0.78867 0.79589 0.17537 0.0
C165 C 0.80628 0.79977 0.20607 0.0
H166 H 0.82793 0.79918 0.18502 0.0
H167 H 0.88254 0.81949 0.10291 0.0
O168 O 0.82555 0.92785 0.31741 0.0
C169 C 0.89154 0.87955 0.22016 0.0
Co170 Co 0.16803 0.1027 0.75273 0.0
Co171 Co 0.1639 0.14594 0.65521 0.0
C172 C 0.1805 0.08492 0.63709 0.0
O173 O 0.17852 0.07914 0.68813 0.0
O174 O 0.17568 0.10982 0.61936 0.0
C175 C 0.19335 0.06199 0.82863 0.0
O176 O 0.21417 0.05888 0.79153 0.0
C177 C 0.18879 0.18262 0.56916 0.0
C178 C 0.15076 0.2099 0.54884 0.0
C179 C 0.18005 0.20494 0.53578 0.0
N180 N 0.1658 0.17503 0.60084 0.0
N181 N 0.14313 0.19136 0.58834 0.0
C182 C 0.2178 0.16753 0.56872 0.0
H183 H 0.21569 0.14629 0.58749 0.0
H184 H 0.23414 0.17965 0.59298 0.0
H185 H 0.22621 0.16568 0.52598 0.0
C186 C 0.20677 0.14732 0.79794 0.0
N187 N 0.19076 0.13623 0.75658 0.0
N188 N 0.18832 0.15501 0.71683 0.0
C189 C 0.20239 0.17886 0.73223 0.0
C190 C 0.21471 0.17468 0.7839 0.0
C191 C 0.21358 0.13212 0.85042 0.0
H192 H 0.22485 0.11197 0.84072 0.0
H193 H 0.22807 0.14466 0.8778 0.0
H194 H 0.19271 0.12711 0.87215 0.0
O195 O 0.12569 0.11296 0.74979 0.0
O196 O 0.12222 0.14285 0.67958 0.0
H197 H 0.20464 0.22448 0.72997 0.0
H198 H 0.21742 0.20679 0.66915 0.0
C199 C 0.20054 0.20638 0.70205 0.0
H200 H 0.17848 0.20885 0.68309 0.0
H201 H 0.12242 0.18989 0.60684 0.0
O202 O 0.17267 0.07959 0.82017 0.0
C203 C 0.11044 0.12895 0.71871 0.0
Co204 Co 0.83562 0.10227 0.75282 0.0
Co205 Co 0.83931 0.14459 0.8519 0.0
C206 C 0.82343 0.08314 0.86765 0.0
O207 O 0.82561 0.07785 0.81645 0.0
O208 O 0.82783 0.10794 0.88624 0.0
C209 C 0.81837 0.05695 0.67904 0.0
O210 O 0.80653 0.04527 0.72279 0.0
C211 C 0.81398 0.18027 0.93906 0.0
C212 C 0.85211 0.20671 0.96228 0.0
C213 C 0.82268 0.20184 0.97421 0.0
N214 N 0.83715 0.173 0.90753 0.0
N215 N 0.85987 0.18885 0.92173 0.0
C216 C 0.78485 0.16545 0.9378 0.0
H217 H 0.78689 0.14467 0.91717 0.0
H218 H 0.7687 0.17831 0.9145 0.0
H219 H 0.77628 0.16266 0.98024 0.0
C220 C 0.79594 0.14639 0.70991 0.0
N221 N 0.81234 0.13542 0.75081 0.0
N222 N 0.81474 0.15406 0.79071 0.0
C223 C 0.80035 0.17785 0.77569 0.0
C224 C 0.78784 0.17369 0.72411 0.0
C225 C 0.78904 0.13118 0.65753 0.0
H226 H 0.78196 0.1093 0.66699 0.0
H227 H 0.77133 0.14194 0.63401 0.0
H228 H 0.80924 0.13003 0.63186 0.0
O229 O 0.87779 0.11294 0.75605 0.0
O230 O 0.88104 0.14206 0.82743 0.0
H231 H 0.82384 0.20746 0.82634 0.0
H232 H 0.79865 0.22347 0.77794 0.0
C233 C 0.80208 0.20529 0.80607 0.0
H234 H 0.78464 0.2059 0.83796 0.0
H235 H 0.88072 0.18743 0.90379 0.0
O236 O 0.83107 0.08076 0.68337 0.0
C237 C 0.89292 0.12868 0.78772 0.0
Co238 Co 0.16614 0.90844 0.25186 0.0
Co239 Co 0.16374 0.86465 0.34887 0.0
C240 C 0.17983 0.9254 0.36807 0.0
O241 O 0.17725 0.93127 0.31717 0.0
O242 O 0.17541 0.90044 0.38572 0.0
C243 C 0.19412 0.94622 0.17418 0.0
O244 O 0.21747 0.94359 0.20576 0.0
C245 C 0.18718 0.82826 0.43791 0.0
C246 C 0.15145 0.79687 0.4462 0.0
C247 C 0.1789 0.80416 0.46659 0.0
N248 N 0.16575 0.83462 0.40159 0.0
N249 N 0.14441 0.81585 0.4071 0.0
C250 C 0.21437 0.84562 0.44664 0.0
H251 H 0.21158 0.86713 0.42962 0.0
H252 H 0.23334 0.83561 0.42551 0.0
H253 H 0.21966 0.84683 0.49118 0.0
C254 C 0.20417 0.86381 0.20337 0.0
N255 N 0.18872 0.87481 0.24564 0.0
N256 N 0.18782 0.8563 0.2861 0.0
C257 C 0.20287 0.83296 0.27075 0.0
C258 C 0.21388 0.83704 0.21794 0.0
C259 C 0.20644 0.87715 0.14765 0.0
H260 H 0.18536 0.88762 0.13689 0.0
H261 H 0.22418 0.89323 0.14823 0.0
H262 H 0.21168 0.86132 0.11548 0.0
O263 O 0.124 0.89828 0.25577 0.0
O264 O 0.12169 0.86804 0.32562 0.0
H265 H 0.18413 0.79889 0.31685 0.0
H266 H 0.21914 0.79037 0.28505 0.0
C267 C 0.20622 0.80714 0.30574 0.0
H268 H 0.21784 0.81285 0.34409 0.0
H269 H 0.12507 0.81587 0.38384 0.0
O270 O 0.17068 0.93294 0.18632 0.0
C271 C 0.10929 0.88209 0.28731 0.0
H272 H 0.43051 0.33838 0.20224 0.0
H273 H 0.57729 0.42525 0.24728 0.0
H274 H 0.42896 0.42599 0.2508 0.0
H275 H 0.57129 0.33879 0.30227 0.0
H276 H 0.52418 0.42513 0.22929 0.0
H277 H 0.48393 0.33729 0.22006 0.0
C278 C 0.44144 0.35738 0.21629 0.0
C279 C 0.42538 0.38231 0.2252 0.0
C280 C 0.53455 0.40621 0.24529 0.0
C281 C 0.48607 0.38127 0.24464 0.0
C282 C 0.5648 0.40621 0.25536 0.0
C283 C 0.57863 0.38201 0.27646 0.0
C284 C 0.51814 0.38164 0.25505 0.0
C285 C 0.56138 0.35793 0.28637 0.0
C286 C 0.47176 0.35668 0.22673 0.0
C287 C 0.44052 0.40631 0.24373 0.0
N288 N 0.53198 0.35825 0.27507 0.0
N289 N 0.47008 0.40528 0.25234 0.0
H290 H 0.57097 0.67108 0.70236 0.0
H291 H 0.42608 0.58213 0.7522 0.0
H292 H 0.57406 0.58433 0.75654 0.0
H293 H 0.42962 0.66976 0.80033 0.0
H294 H 0.47929 0.58305 0.73555 0.0
H295 H 0.51755 0.67162 0.72047 0.0
C296 C 0.56039 0.65217 0.71779 0.0
C297 C 0.57688 0.62763 0.72809 0.0
C298 C 0.46837 0.60204 0.74981 0.0
C299 C 0.51621 0.62803 0.74786 0.0
C300 C 0.43807 0.60158 0.75913 0.0
C301 C 0.42351 0.62589 0.77783 0.0
C302 C 0.48412 0.62716 0.75791 0.0
C303 C 0.44012 0.65052 0.7863 0.0
C304 C 0.53008 0.65256 0.72838 0.0
C305 C 0.56218 0.60373 0.74835 0.0
N306 N 0.4696 0.65064 0.77574 0.0
N307 N 0.53263 0.60443 0.75706 0.0
H308 H 0.06675 0.8686 0.3631 0.0
H309 H 0.93497 0.86508 0.1475 0.0
H310 H 0.07876 0.89007 0.19198 0.0
H311 H 0.92109 0.89036 0.31614 0.0
H312 H 0.98819 0.86406 0.1645 0.0
H313 H 0.01323 0.86655 0.34768 0.0
C314 C 0.05815 0.87268 0.32229 0.0
C315 C 0.07714 0.87967 0.27879 0.0
C316 C 0.97342 0.86975 0.19772 0.0
C317 C 0.01635 0.87693 0.26089 0.0
C318 C 0.9431 0.87024 0.18818 0.0
C319 C 0.92362 0.87798 0.23042 0.0
C320 C 0.98429 0.87644 0.25015 0.0
C321 C 0.93538 0.88451 0.28233 0.0
C322 C 0.02769 0.87164 0.31364 0.0
C323 C 0.06486 0.88485 0.22674 0.0
N324 N 0.965 0.88345 0.29086 0.0
N325 N 0.03525 0.8832 0.21915 0.0
H326 H 0.06738 0.14349 0.64494 0.0
H327 H 0.93596 0.1423 0.86215 0.0
H328 H 0.08057 0.11972 0.81462 0.0
H329 H 0.92277 0.12081 0.69138 0.0
H330 H 0.98931 0.14429 0.84551 0.0
H331 H 0.01405 0.14542 0.66169 0.0
C332 C 0.05907 0.13887 0.68575 0.0
C333 C 0.07836 0.13125 0.72838 0.0
C334 C 0.97463 0.13923 0.81177 0.0
C335 C 0.0177 0.13383 0.74784 0.0
C336 C 0.94427 0.13821 0.82113 0.0
C337 C 0.92498 0.1312 0.77814 0.0
C338 C 0.98565 0.13383 0.75884 0.0
C339 C 0.93691 0.12604 0.72578 0.0
C340 C 0.02871 0.13987 0.69517 0.0
C341 C 0.06643 0.12542 0.78048 0.0
N342 N 0.96649 0.12759 0.7175 0.0
N343 N 0.03685 0.12697 0.78885 0.0
H344 H 0.31499 0.5891 0.98182 0.0
H345 H 0.31533 0.42181 0.02504 0.0
H346 H 0.3096 0.52905 0.84854 0.0
H347 H 0.31235 0.48175 0.15876 0.0
H348 H 0.30959 0.46077 0.95991 0.0
H349 H 0.31031 0.55019 0.04739 0.0
C350 C 0.31252 0.5678 0.96626 0.0
C351 C 0.31299 0.56239 0.90947 0.0
C352 C 0.30992 0.46537 0.00354 0.0
C353 C 0.30786 0.51765 0.98446 0.0
C354 C 0.3132 0.44311 0.0408 0.0
C355 C 0.31462 0.44847 0.09754 0.0
C356 C 0.30824 0.49327 0.02303 0.0
C357 C 0.31157 0.47655 0.11542 0.0
C358 C 0.30987 0.54556 0.00377 0.0
C359 C 0.30956 0.5343 0.89188 0.0
N360 N 0.30882 0.49788 0.07832 0.0
N361 N 0.30744 0.51302 0.92918 0.0
H362 H 0.69155 0.47955 0.34512 0.0
H363 H 0.69 0.5288 0.65971 0.0
H364 H 0.68426 0.42209 0.48249 0.0
H365 H 0.68318 0.58652 0.52264 0.0
H366 H 0.69526 0.48975 0.59528 0.0
H367 H 0.69584 0.51883 0.4095 0.0
C368 C 0.69115 0.47509 0.38883 0.0
C369 C 0.68727 0.44739 0.40833 0.0
C370 C 0.69281 0.51096 0.57925 0.0
C371 C 0.69209 0.4925 0.48237 0.0
C372 C 0.68986 0.53337 0.61605 0.0
C373 C 0.68584 0.56108 0.59668 0.0
C374 C 0.69179 0.51616 0.52246 0.0
C375 C 0.68601 0.56554 0.53954 0.0
C376 C 0.69352 0.49761 0.42557 0.0
C377 C 0.68701 0.44305 0.46548 0.0
N378 N 0.68874 0.54329 0.50447 0.0
N379 N 0.6892 0.46538 0.50044 0.0
H380 H 0.70109 0.50033 0.84456 0.0
H381 H 0.65652 0.50843 0.16295 0.0
H382 H 0.66729 0.57534 0.92351 0.0
H383 H 0.69247 0.43371 0.08633 0.0
H384 H 0.66206 0.53371 0.07605 0.0
H385 H 0.69996 0.47598 0.9333 0.0
C386 C 0.69357 0.51173 0.88055 0.0
C387 C 0.6841 0.53987 0.8765 0.0
C388 C 0.66883 0.51181 0.07825 0.0
C389 C 0.68268 0.51212 0.97811 0.0
C390 C 0.66566 0.49735 0.1279 0.0
C391 C 0.67391 0.46887 0.13188 0.0
C392 C 0.68027 0.49769 0.0321 0.0
C393 C 0.68573 0.45563 0.0851 0.0
C394 C 0.69291 0.4978 0.93121 0.0
C395 C 0.67463 0.55359 0.92457 0.0
N396 N 0.68844 0.47012 0.0371 0.0
N397 N 0.67405 0.53955 0.97326 0.0
H398 H 0.35485 0.45878 0.39901 0.0
H399 H 0.25827 0.53681 0.62688 0.0
H400 H 0.26202 0.47519 0.37613 0.0
H401 H 0.35237 0.54771 0.61111 0.0
H402 H 0.25841 0.50901 0.54163 0.0
H403 H 0.35353 0.48609 0.4841 0.0
C404 C 0.33415 0.46809 0.41194 0.0
C405 C 0.30851 0.46479 0.38034 0.0
C406 C 0.27896 0.51756 0.55695 0.0
C407 C 0.30684 0.49591 0.47797 0.0
C408 C 0.27893 0.53329 0.60562 0.0
C409 C 0.30535 0.54459 0.62605 0.0
C410 C 0.30566 0.51275 0.52921 0.0
C411 C 0.33148 0.5395 0.59675 0.0
C412 C 0.33346 0.48376 0.46042 0.0
C413 C 0.28233 0.47737 0.39911 0.0
N414 N 0.331 0.52383 0.55002 0.0
N415 N 0.28212 0.49229 0.44694 0.0
H416 H 0.81551 0.08613 0.97945 0.0
H417 H 0.81899 0.91857 0.02166 0.0
H418 H 0.81841 0.02651 0.84518 0.0
H419 H 0.813 0.97854 0.155 0.0
H420 H 0.81485 0.95755 0.95608 0.0
H421 H 0.81064 0.04684 0.04386 0.0
C422 C 0.8149 0.06481 0.96339 0.0
C423 C 0.81764 0.05968 0.90671 0.0
C424 C 0.8142 0.96215 0.99969 0.0
C425 C 0.81221 0.01446 0.98053 0.0
C426 C 0.81654 0.93987 0.03722 0.0
C427 C 0.81659 0.94523 0.09406 0.0
C428 C 0.812 0.99003 0.01903 0.0
C429 C 0.81323 0.97332 0.11165 0.0
C430 C 0.81212 0.04234 1.00028 0.0
C431 C 0.81652 0.03154 0.88847 0.0
N432 N 0.81131 0.99463 0.07433 0.0
N433 N 0.81414 0.01001 0.92527 0.0
H434 H 0.18648 0.08879 0.52493 0.0
H435 H 0.18669 0.92144 0.48008 0.0
H436 H 0.18762 0.02832 0.65796 0.0
H437 H 0.18655 0.982 0.34719 0.0
H438 H 0.19163 0.96021 0.54565 0.0
H439 H 0.1911 0.05 0.45934 0.0
C440 C 0.18795 0.06739 0.54046 0.0
C441 C 0.18637 0.06187 0.59717 0.0
C442 C 0.19075 0.96501 0.50212 0.0
C443 C 0.19152 0.01723 0.52201 0.0
C444 C 0.18795 0.94285 0.46457 0.0
C445 C 0.18591 0.94841 0.40792 0.0
C446 C 0.19143 0.99302 0.48304 0.0
C447 C 0.18785 0.97664 0.39042 0.0
C448 C 0.19057 0.04522 0.5029 0.0
C449 C 0.18857 0.03365 0.61469 0.0
N450 N 0.19025 0.99785 0.42782 0.0
N451 N 0.19078 0.01242 0.57727 0.0
H452 H 0.14882 0.0555 0.90306 0.0
H453 H 0.24275 0.96638 0.11964 0.0
H454 H 0.23896 0.0309 0.87186 0.0
H455 H 0.14763 0.96596 0.11426 0.0
H456 H 0.24328 0.99497 0.03537 0.0
H457 H 0.14955 0.02779 0.9877 0.0
C458 C 0.16882 0.04432 0.91407 0.0
C459 C 0.19385 0.04544 0.88022 0.0
C460 C 0.22235 0.98856 0.05275 0.0
C461 C 0.19485 0.0138 0.97736 0.0
C462 C 0.22201 0.97239 0.10089 0.0
C463 C 0.1951 0.96379 0.12395 0.0
C464 C 0.19558 0.99652 0.02814 0.0
C465 C 0.16888 0.97203 0.0978 0.0
C466 C 0.16917 0.02843 0.96231 0.0
C467 C 0.21912 0.03048 0.89661 0.0
N468 N 0.16978 0.98804 0.0515 0.0
N469 N 0.21903 0.01534 0.94421 0.0
H470 H 0.79633 1.00441 0.65537 0.0
H471 H 0.85218 0.00727 0.34275 0.0
H472 H 0.83996 0.07574 0.5805 0.0
H473 H 0.80767 0.93602 0.41608 0.0
H474 H 0.84618 0.03329 0.4287 0.0
H475 H 0.79845 0.97964 0.5672 0.0
C476 C 0.80624 0.01493 0.62037 0.0
C477 C 0.81813 0.04214 0.62545 0.0
C478 C 0.83764 0.01199 0.42598 0.0
C479 C 0.8207 0.01388 0.52444 0.0
C480 C 0.84106 0.99711 0.37686 0.0
C481 C 0.83052 0.96937 0.37223 0.0
C482 C 0.82361 0.99905 0.47094 0.0
C483 C 0.81623 0.95733 0.41782 0.0
C484 C 0.80746 1.00076 0.57004 0.0
C485 C 0.83065 0.05473 0.57864 0.0
N486 N 0.81328 0.97221 0.46531 0.0
N487 N 0.83169 0.04046 0.53022 0.0
H488 H 0.26526 0.28748 0.04738 0.0
H489 H 0.2638 0.20529 0.75931 0.0
H490 H 0.34015 0.28444 0.93822 0.0
H491 H 0.19926 0.1922 0.88681 0.0
H492 H 0.28925 0.23936 0.81885 0.0
H493 H 0.23776 0.25774 0.98332 0.0
C494 C 0.27571 0.28111 0.00936 0.0
C495 C 0.30486 0.28888 0.99759 0.0
C496 C 0.26953 0.22903 0.83381 0.0
C497 C 0.27377 0.25421 0.9247 0.0
C498 C 0.25504 0.20971 0.79987 0.0
C499 C 0.22976 0.19577 0.81874 0.0
C500 C 0.25836 0.23467 0.88665 0.0
C501 C 0.21902 0.20225 0.8713 0.0
C502 C 0.26012 0.2638 0.97312 0.0
C503 C 0.31766 0.279 0.94869 0.0
N504 N 0.23339 0.22122 0.9035 0.0
N505 N 0.30203 0.26223 0.91395 0.0
H506 H 0.69476 0.76134 0.55614 0.0
H507 H 0.74847 0.7908 0.25419 0.0
H508 H 0.69834 0.69257 0.44027 0.0
H509 H 0.79277 0.82757 0.39386 0.0
H510 H 0.72317 0.75794 0.31684 0.0
H511 H 0.72345 0.79047 0.49222 0.0
C512 C 0.70163 0.75245 0.51712 0.0
C513 C 0.6944 0.72461 0.50328 0.0
C514 C 0.73851 0.77324 0.33346 0.0
C515 C 0.72653 0.75781 0.42985 0.0
C516 C 0.75295 0.79191 0.29788 0.0
C517 C 0.77235 0.81231 0.31893 0.0
C518 C 0.7431 0.77546 0.39038 0.0
C519 C 0.77725 0.81289 0.37595 0.0
C520 C 0.71804 0.76897 0.4809 0.0
C521 C 0.70378 0.71394 0.45236 0.0
N522 N 0.76241 0.79504 0.40974 0.0
N523 N 0.71913 0.73072 0.41696 0.0
H524 H 0.26512 0.84726 0.16367 0.0
H525 H 0.27938 0.692 0.03654 0.0
H526 H 0.20055 0.78215 0.19182 0.0
H527 H 0.33088 0.76331 0.98185 0.0
H528 H 0.25243 0.72317 0.09884 0.0
H529 H 0.29202 0.81525 0.1026 0.0
C530 C 0.25675 0.82611 0.15711 0.0
C531 C 0.23082 0.81717 0.1831 0.0
C532 C 0.2695 0.73198 0.07286 0.0
C533 C 0.26137 0.78039 0.1134 0.0
C534 C 0.28472 0.71422 0.03667 0.0
C535 C 0.307 0.72509 1.00259 0.0
C536 C 0.27691 0.76074 0.07563 0.0
C537 C 0.3138 0.75394 0.00703 0.0
C538 C 0.27205 0.80786 0.12229 0.0
C539 C 0.22081 0.78961 0.17331 0.0
N540 N 0.29883 0.77071 0.04271 0.0
N541 N 0.23612 0.77214 0.13925 0.0
H542 H 0.65989 0.28554 0.57475 0.0
H543 H 0.80266 0.18959 0.62001 0.0
H544 H 0.73394 0.28481 0.46351 0.0
H545 H 0.7396 0.20585 0.74874 0.0
H546 H 0.77685 0.22337 0.56084 0.0
H547 H 0.68764 0.25526 0.63809 0.0
C548 C 0.68212 0.27926 0.56398 0.0
C549 C 0.69484 0.28815 0.51429 0.0
C550 C 0.76866 0.21967 0.60207 0.0
C551 C 0.72652 0.25317 0.58598 0.0
C552 C 0.78328 0.2003 0.63564 0.0
C553 C 0.77295 0.19481 0.6889 0.0
C554 C 0.74336 0.2335 0.62177 0.0
C555 C 0.7481 0.20952 0.70773 0.0
C556 C 0.69796 0.26204 0.60014 0.0
C557 C 0.72359 0.2792 0.50204 0.0
N558 N 0.73396 0.22806 0.67401 0.0
N559 N 0.73838 0.26207 0.53747 0.0
H560 H 0.76558 0.70152 0.75844 0.0
H561 H 0.76748 0.78213 0.04826 0.0
H562 H 0.69977 0.69013 0.8843 0.0
H563 H 0.84142 0.78164 0.93668 0.0
H564 H 0.74008 0.75249 0.98412 0.0
H565 H 0.79164 0.73481 0.81878 0.0
C566 C 0.75665 0.70617 0.79877 0.0
C567 C 0.73073 0.69308 0.81683 0.0
C568 C 0.76221 0.75905 0.9734 0.0
C569 C 0.7601 0.73094 0.88576 0.0
C570 C 0.77775 0.77631 0.00974 0.0
C571 C 0.80657 0.78486 0.99726 0.0
C572 C 0.7756 0.7502 0.9242 0.0
C573 C 0.81918 0.77561 0.94771 0.0
C574 C 0.77149 0.72504 0.83319 0.0
C575 C 0.71992 0.69966 0.86928 0.0
N576 N 0.8036 0.75883 0.91289 0.0
N577 N 0.73464 0.71814 0.90194 0.0
H578 H 0.16191 0.22559 0.43694 0.0
H579 H 0.30677 0.31796 0.38827 0.0
H580 H 0.23735 0.22307 0.54479 0.0
H581 H 0.24066 0.30562 0.26338 0.0
H582 H 0.28107 0.28401 0.44736 0.0
H583 H 0.18966 0.25578 0.37365 0.0
C584 C 0.18445 0.23114 0.44695 0.0
C585 C 0.19754 0.22139 0.49566 0.0
C586 C 0.2722 0.28862 0.40699 0.0
C587 C 0.22925 0.25625 0.42403 0.0
C588 C 0.28675 0.30807 0.37351 0.0
C589 C 0.27548 0.31472 0.32145 0.0
C590 C 0.24608 0.27589 0.3883 0.0
C591 C 0.24984 0.30107 0.30354 0.0
C592 C 0.20028 0.24831 0.41081 0.0
C593 C 0.22668 0.22938 0.50696 0.0
N594 N 0.23582 0.28243 0.33712 0.0
N595 N 0.2415 0.2465 0.47159 0.0
H596 H 0.84008 0.21983 0.07543 0.0
H597 H 0.69882 0.31697 0.12233 0.0
H598 H 0.76586 0.2212 0.96463 0.0
H599 H 0.76059 0.29803 0.25185 0.0
H600 H 0.72384 0.28278 0.06289 0.0
H601 H 0.81226 0.24935 0.13992 0.0
C602 C 0.81778 0.22607 0.06502 0.0
C603 C 0.80506 0.21767 0.01506 0.0
C604 C 0.73188 0.28595 0.10438 0.0
C605 C 0.77333 0.25178 0.08804 0.0
C606 C 0.71771 0.30554 0.1381 0.0
C607 C 0.72798 0.31042 0.1916 0.0
C608 C 0.75667 0.27135 0.1242 0.0
C609 C 0.75218 0.29484 0.21063 0.0
C610 C 0.80191 0.24285 0.10184 0.0
C611 C 0.77622 0.2265 0.00331 0.0
N612 N 0.76594 0.27615 0.17673 0.0
N613 N 0.76141 0.24326 0.03933 0.0
H614 H 0.15805 0.77945 0.55993 0.0
H615 H 0.30626 0.69408 0.61986 0.0
H616 H 0.23759 0.7903 0.46515 0.0
H617 H 0.23633 0.70138 0.73891 0.0
H618 H 0.28054 0.72798 0.56056 0.0
H619 H 0.18529 0.74933 0.62438 0.0
C620 C 0.18134 0.77576 0.55314 0.0
C621 C 0.19574 0.78783 0.50782 0.0
C622 C 0.27083 0.72229 0.59972 0.0
C623 C 0.22687 0.75306 0.58054 0.0
C624 C 0.28542 0.7029 0.6333 0.0
C625 C 0.2731 0.69488 0.68375 0.0
C626 C 0.24361 0.73352 0.61662 0.0
C627 C 0.24632 0.70704 0.69999 0.0
C628 C 0.19687 0.75864 0.5899 0.0
C629 C 0.22584 0.78217 0.50044 0.0
N630 N 0.23228 0.72562 0.66626 0.0
N631 N 0.24036 0.76503 0.53621 0.0
loop_
_geom_bond_atom_site_label_1
_geom_bond_atom_site_label_2
_geom_bond_distance
_geom_bond_site_symmetry_2
_ccdc_geom_bond_type
Co0 O3 1.970 . S
Co0 N17 1.989 . S
Co0 O25 1.967 . S
Co0 O32 1.920 . S
Co1 O4 1.966 . S
Co1 N10 2.022 . S
Co1 N18 1.993 . S
Co1 O26 1.941 . S
C2 O3 1.258 . S
C2 O4 1.263 . S
O3 Co0 1.970 . S
O3 C2 1.258 . S
O4 Co1 1.966 . S
O4 C2 1.263 . S
C5 O6 1.235 . S
C5 O32 1.289 . S
O6 C5 1.235 . S
C7 C9 1.400 . S
C7 N10 1.351 . S
C7 C12 1.501 . S
C8 C9 1.387 . S
C8 N11 1.341 . S
C9 C7 1.400 . S
C9 C8 1.387 . S
N10 Co1 2.022 . S
N10 C7 1.351 . S
N10 N11 1.365 . S
N11 C8 1.341 . S
N11 N10 1.365 . S
N11 H31 0.862 . S
C12 C7 1.501 . S
C12 H13 0.961 . S
C12 H14 0.961 . S
C12 H15 0.960 . S
H13 C12 0.961 . S
H14 C12 0.961 . S
H15 C12 0.960 . S
C16 N17 1.342 . S
C16 C20 1.401 . S
C16 C21 1.499 . S
N17 Co0 1.989 . S
N17 C16 1.342 . S
N17 N18 1.388 . S
N18 Co1 1.993 . S
N18 N17 1.388 . S
N18 C19 1.346 . S
C19 N18 1.346 . S
C19 C20 1.396 . S
C19 C29 1.510 . S
C20 C16 1.401 . S
C20 C19 1.396 . S
C21 C16 1.499 . S
C21 H22 0.959 . S
C21 H23 0.960 . S
C21 H24 0.961 . S
H22 C21 0.959 . S
H23 C21 0.960 . S
H24 C21 0.961 . S
O25 Co0 1.967 . S
O25 C33 1.258 . S
O26 Co1 1.941 . S
O26 C33 1.266 . S
H27 C29 0.959 . S
H28 C29 0.961 . S
C29 C19 1.510 . S
C29 H27 0.959 . S
C29 H28 0.961 . S
C29 H30 0.960 . S
H30 C29 0.960 . S
H31 N11 0.862 . S
O32 Co0 1.920 . S
O32 C5 1.289 . S
C33 O25 1.258 . S
C33 O26 1.266 . S
Co34 O37 1.970 . S
Co34 N51 1.989 . S
Co34 O59 1.967 . S
Co34 O66 1.920 . S
Co35 O38 1.966 . S
Co35 N44 2.022 . S
Co35 N52 1.993 . S
Co35 O60 1.941 . S
C36 O37 1.258 . S
C36 O38 1.263 . S
O37 Co34 1.970 . S
O37 C36 1.258 . S
O38 Co35 1.966 . S
O38 C36 1.263 . S
C39 O40 1.235 . S
C39 O66 1.289 . S
O40 C39 1.235 . S
C41 C43 1.400 . S
C41 N44 1.351 . S
C41 C46 1.501 . S
C42 C43 1.387 . S
C42 N45 1.341 . S
C43 C41 1.400 . S
C43 C42 1.387 . S
N44 Co35 2.022 . S
N44 C41 1.351 . S
N44 N45 1.365 . S
N45 C42 1.341 . S
N45 N44 1.365 . S
N45 H65 0.862 . S
C46 C41 1.501 . S
C46 H47 0.961 . S
C46 H48 0.961 . S
C46 H49 0.960 . S
H47 C46 0.961 . S
H48 C46 0.961 . S
H49 C46 0.960 . S
C50 N51 1.342 . S
C50 C54 1.401 . S
C50 C55 1.499 . S
N51 Co34 1.989 . S
N51 C50 1.342 . S
N51 N52 1.388 . S
N52 Co35 1.993 . S
N52 N51 1.388 . S
N52 C53 1.346 . S
C53 N52 1.346 . S
C53 C54 1.396 . S
C53 C63 1.510 . S
C54 C50 1.401 . S
C54 C53 1.396 . S
C55 C50 1.499 . S
C55 H56 0.959 . S
C55 H57 0.960 . S
C55 H58 0.961 . S
H56 C55 0.959 . S
H57 C55 0.960 . S
H58 C55 0.961 . S
O59 Co34 1.967 . S
O59 C67 1.258 . S
O60 Co35 1.941 . S
O60 C67 1.266 . S
H61 C63 0.959 . S
H62 C63 0.961 . S
C63 C53 1.510 . S
C63 H61 0.959 . S
C63 H62 0.961 . S
C63 H64 0.960 . S
H64 C63 0.960 . S
H65 N45 0.862 . S
O66 Co34 1.920 . S
O66 C39 1.289 . S
C67 O59 1.258 . S
C67 O60 1.266 . S
Co68 O71 1.970 . S
Co68 N85 1.989 . S
Co68 O93 1.967 . S
Co68 O100 1.920 . S
Co69 O72 1.966 . S
Co69 N78 2.022 . S
Co69 N86 1.993 . S
Co69 O94 1.941 . S
C70 O71 1.258 . S
C70 O72 1.263 . S
O71 Co68 1.970 . S
O71 C70 1.258 . S
O72 Co69 1.966 . S
O72 C70 1.263 . S
C73 O74 1.235 . S
C73 O100 1.289 . S
O74 C73 1.235 . S
C75 C77 1.400 . S
C75 N78 1.351 . S
C75 C80 1.501 . S
C76 C77 1.387 . S
C76 N79 1.341 . S
C77 C75 1.400 . S
C77 C76 1.387 . S
N78 Co69 2.022 . S
N78 C75 1.351 . S
N78 N79 1.365 . S
N79 C76 1.341 . S
N79 N78 1.365 . S
N79 H99 0.862 . S
C80 C75 1.501 . S
C80 H81 0.961 . S
C80 H82 0.961 . S
C80 H83 0.960 . S
H81 C80 0.961 . S
H82 C80 0.961 . S
H83 C80 0.960 . S
C84 N85 1.342 . S
C84 C88 1.401 . S
C84 C89 1.499 . S
N85 Co68 1.989 . S
N85 C84 1.342 . S
N85 N86 1.388 . S
N86 Co69 1.993 . S
N86 N85 1.388 . S
N86 C87 1.346 . S
C87 N86 1.346 . S
C87 C88 1.396 . S
C87 C97 1.510 . S
C88 C84 1.401 . S
C88 C87 1.396 . S
C89 C84 1.499 . S
C89 H90 0.959 . S
C89 H91 0.960 . S
C89 H92 0.961 . S
H90 C89 0.959 . S
H91 C89 0.960 . S
H92 C89 0.961 . S
O93 Co68 1.967 . S
O93 C101 1.258 . S
O94 Co69 1.941 . S
O94 C101 1.266 . S
H95 C97 0.959 . S
H96 C97 0.961 . S
C97 C87 1.510 . S
C97 H95 0.959 . S
C97 H96 0.961 . S
C97 H98 0.960 . S
H98 C97 0.960 . S
H99 N79 0.862 . S
O100 Co68 1.920 . S
O100 C73 1.289 . S
C101 O93 1.258 . S
C101 O94 1.266 . S
Co102 O105 1.970 . S
Co102 N119 1.989 . S
Co102 O127 1.967 . S
Co102 O134 1.920 . S
Co103 O106 1.966 . S
Co103 N112 2.022 . S
Co103 N120 1.993 . S
Co103 O128 1.941 . S
C104 O105 1.258 . S
C104 O106 1.263 . S
O105 Co102 1.970 . S
O105 C104 1.258 . S
O106 Co103 1.966 . S
O106 C104 1.263 . S
C107 O108 1.235 . S
C107 O134 1.289 . S
O108 C107 1.235 . S
C109 C111 1.400 . S
C109 N112 1.351 . S
C109 C114 1.501 . S
C110 C111 1.387 . S
C110 N113 1.341 . S
C111 C109 1.400 . S
C111 C110 1.387 . S
N112 Co103 2.022 . S
N112 C109 1.351 . S
N112 N113 1.365 . S
N113 C110 1.341 . S
N113 N112 1.365 . S
N113 H133 0.862 . S
C114 C109 1.501 . S
C114 H115 0.961 . S
C114 H116 0.961 . S
C114 H117 0.960 . S
H115 C114 0.961 . S
H116 C114 0.961 . S
H117 C114 0.960 . S
C118 N119 1.342 . S
C118 C122 1.401 . S
C118 C123 1.499 . S
N119 Co102 1.989 . S
N119 C118 1.342 . S
N119 N120 1.388 . S
N120 Co103 1.993 . S
N120 N119 1.388 . S
N120 C121 1.346 . S
C121 N120 1.346 . S
C121 C122 1.396 . S
C121 C131 1.510 . S
C122 C118 1.401 . S
C122 C121 1.396 . S
C123 C118 1.499 . S
C123 H124 0.959 . S
C123 H125 0.960 . S
C123 H126 0.961 . S
H124 C123 0.959 . S
H125 C123 0.960 . S
H126 C123 0.961 . S
O127 Co102 1.967 . S
O127 C135 1.258 . S
O128 Co103 1.941 . S
O128 C135 1.266 . S
H129 C131 0.959 . S
H130 C131 0.961 . S
C131 C121 1.510 . S
C131 H129 0.959 . S
C131 H130 0.961 . S
C131 H132 0.960 . S
H132 C131 0.960 . S
H133 N113 0.862 . S
O134 Co102 1.920 . S
O134 C107 1.289 . S
C135 O127 1.258 . S
C135 O128 1.266 . S
Co136 O139 1.970 . S
Co136 N153 1.989 . S
Co136 O161 1.967 . S
Co136 O168 1.920 . S
Co137 O140 1.966 . S
Co137 N146 2.022 . S
Co137 N154 1.993 . S
Co137 O162 1.941 . S
C138 O139 1.258 . S
C138 O140 1.263 . S
O139 Co136 1.970 . S
O139 C138 1.258 . S
O140 Co137 1.966 . S
O140 C138 1.263 . S
C141 O142 1.235 . S
C141 O168 1.289 . S
O142 C141 1.235 . S
C143 C145 1.400 . S
C143 N146 1.351 . S
C143 C148 1.501 . S
C144 C145 1.387 . S
C144 N147 1.341 . S
C145 C143 1.400 . S
C145 C144 1.387 . S
N146 Co137 2.022 . S
N146 C143 1.351 . S
N146 N147 1.365 . S
N147 C144 1.341 . S
N147 N146 1.365 . S
N147 H167 0.862 . S
C148 C143 1.501 . S
C148 H149 0.961 . S
C148 H150 0.961 . S
C148 H151 0.960 . S
H149 C148 0.961 . S
H150 C148 0.961 . S
H151 C148 0.960 . S
C152 N153 1.342 . S
C152 C156 1.401 . S
C152 C157 1.499 . S
N153 Co136 1.989 . S
N153 C152 1.342 . S
N153 N154 1.388 . S
N154 Co137 1.993 . S
N154 N153 1.388 . S
N154 C155 1.346 . S
C155 N154 1.346 . S
C155 C156 1.396 . S
C155 C165 1.510 . S
C156 C152 1.401 . S
C156 C155 1.396 . S
C157 C152 1.499 . S
C157 H158 0.959 . S
C157 H159 0.960 . S
C157 H160 0.961 . S
H158 C157 0.959 . S
H159 C157 0.960 . S
H160 C157 0.961 . S
O161 Co136 1.967 . S
O161 C169 1.258 . S
O162 Co137 1.941 . S
O162 C169 1.266 . S
H163 C165 0.959 . S
H164 C165 0.961 . S
C165 C155 1.510 . S
C165 H163 0.959 . S
C165 H164 0.961 . S
C165 H166 0.960 . S
H166 C165 0.960 . S
H167 N147 0.862 . S
O168 Co136 1.920 . S
O168 C141 1.289 . S
C169 O161 1.258 . S
C169 O162 1.266 . S
Co170 O173 1.970 . S
Co170 N187 1.989 . S
Co170 O195 1.967 . S
Co170 O202 1.920 . S
Co171 O174 1.966 . S
Co171 N180 2.022 . S
Co171 N188 1.993 . S
Co171 O196 1.941 . S
C172 O173 1.258 . S
C172 O174 1.263 . S
O173 Co170 1.970 . S
O173 C172 1.258 . S
O174 Co171 1.966 . S
O174 C172 1.263 . S
C175 O176 1.235 . S
C175 O202 1.289 . S
O176 C175 1.235 . S
C177 C179 1.400 . S
C177 N180 1.351 . S
C177 C182 1.501 . S
C178 C179 1.387 . S
C178 N181 1.341 . S
C179 C177 1.400 . S
C179 C178 1.387 . S
N180 Co171 2.022 . S
N180 C177 1.351 . S
N180 N181 1.365 . S
N181 C178 1.341 . S
N181 N180 1.365 . S
N181 H201 0.862 . S
C182 C177 1.501 . S
C182 H183 0.961 . S
C182 H184 0.961 . S
C182 H185 0.960 . S
H183 C182 0.961 . S
H184 C182 0.961 . S
H185 C182 0.960 . S
C186 N187 1.342 . S
C186 C190 1.401 . S
C186 C191 1.499 . S
N187 Co170 1.989 . S
N187 C186 1.342 . S
N187 N188 1.388 . S
N188 Co171 1.993 . S
N188 N187 1.388 . S
N188 C189 1.346 . S
C189 N188 1.346 . S
C189 C190 1.396 . S
C189 C199 1.510 . S
C190 C186 1.401 . S
C190 C189 1.396 . S
C191 C186 1.499 . S
C191 H192 0.959 . S
C191 H193 0.960 . S
C191 H194 0.961 . S
H192 C191 0.959 . S
H193 C191 0.960 . S
H194 C191 0.961 . S
O195 Co170 1.967 . S
O195 C203 1.258 . S
O196 Co171 1.941 . S
O196 C203 1.266 . S
H197 C199 0.959 . S
H198 C199 0.961 . S
C199 C189 1.510 . S
C199 H197 0.959 . S
C199 H198 0.961 . S
C199 H200 0.960 . S
H200 C199 0.960 . S
H201 N181 0.862 . S
O202 Co170 1.920 . S
O202 C175 1.289 . S
C203 O195 1.258 . S
C203 O196 1.266 . S
Co204 O207 1.970 . S
Co204 N221 1.989 . S
Co204 O229 1.967 . S
Co204 O236 1.920 . S
Co205 O208 1.966 . S
Co205 N214 2.022 . S
Co205 N222 1.993 . S
Co205 O230 1.941 . S
C206 O207 1.258 . S
C206 O208 1.263 . S
O207 Co204 1.970 . S
O207 C206 1.258 . S
O208 Co205 1.966 . S
O208 C206 1.263 . S
C209 O210 1.235 . S
C209 O236 1.289 . S
O210 C209 1.235 . S
C211 C213 1.400 . S
C211 N214 1.351 . S
C211 C216 1.501 . S
C212 C213 1.387 . S
C212 N215 1.341 . S
C213 C211 1.400 . S
C213 C212 1.387 . S
N214 Co205 2.022 . S
N214 C211 1.351 . S
N214 N215 1.365 . S
N215 C212 1.341 . S
N215 N214 1.365 . S
N215 H235 0.862 . S
C216 C211 1.501 . S
C216 H217 0.961 . S
C216 H218 0.961 . S
C216 H219 0.960 . S
H217 C216 0.961 . S
H218 C216 0.961 . S
H219 C216 0.960 . S
C220 N221 1.342 . S
C220 C224 1.401 . S
C220 C225 1.499 . S
N221 Co204 1.989 . S
N221 C220 1.342 . S
N221 N222 1.388 . S
N222 Co205 1.993 . S
N222 N221 1.388 . S
N222 C223 1.346 . S
C223 N222 1.346 . S
C223 C224 1.396 . S
C223 C233 1.510 . S
C224 C220 1.401 . S
C224 C223 1.396 . S
C225 C220 1.499 . S
C225 H226 0.959 . S
C225 H227 0.960 . S
C225 H228 0.961 . S
H226 C225 0.959 . S
H227 C225 0.960 . S
H228 C225 0.961 . S
O229 Co204 1.967 . S
O229 C237 1.258 . S
O230 Co205 1.941 . S
O230 C237 1.266 . S
H231 C233 0.959 . S
H232 C233 0.961 . S
C233 C223 1.510 . S
C233 H231 0.959 . S
C233 H232 0.961 . S
C233 H234 0.960 . S
H234 C233 0.960 . S
H235 N215 0.862 . S
O236 Co204 1.920 . S
O236 C209 1.289 . S
C237 O229 1.258 . S
C237 O230 1.266 . S
Co238 O241 1.970 . S
Co238 N255 1.989 . S
Co238 O263 1.967 . S
Co238 O270 1.920 . S
Co239 O242 1.966 . S
Co239 N248 2.022 . S
Co239 N256 1.993 . S
Co239 O264 1.941 . S
C240 O241 1.258 . S
C240 O242 1.263 . S
O241 Co238 1.970 . S
O241 C240 1.258 . S
O242 Co239 1.966 . S
O242 C240 1.263 . S
C243 O244 1.235 . S
C243 O270 1.289 . S
O244 C243 1.235 . S
C245 C247 1.400 . S
C245 N248 1.351 . S
C245 C250 1.501 . S
C246 C247 1.387 . S
C246 N249 1.341 . S
C247 C245 1.400 . S
C247 C246 1.387 . S
N248 Co239 2.022 . S
N248 C245 1.351 . S
N248 N249 1.365 . S
N249 C246 1.341 . S
N249 N248 1.365 . S
N249 H269 0.862 . S
C250 C245 1.501 . S
C250 H251 0.961 . S
C250 H252 0.961 . S
C250 H253 0.960 . S
H251 C250 0.961 . S
H252 C250 0.961 . S
H253 C250 0.960 . S
C254 N255 1.342 . S
C254 C258 1.401 . S
C254 C259 1.499 . S
N255 Co238 1.989 . S
N255 C254 1.342 . S
N255 N256 1.388 . S
N256 Co239 1.993 . S
N256 N255 1.388 . S
N256 C257 1.346 . S
C257 N256 1.346 . S
C257 C258 1.396 . S
C257 C267 1.510 . S
C258 C254 1.401 . S
C258 C257 1.396 . S
C259 C254 1.499 . S
C259 H260 0.959 . S
C259 H261 0.960 . S
C259 H262 0.961 . S
H260 C259 0.959 . S
H261 C259 0.960 . S
H262 C259 0.961 . S
O263 Co238 1.967 . S
O263 C271 1.258 . S
O264 Co239 1.941 . S
O264 C271 1.266 . S
H265 C267 0.959 . S
H266 C267 0.961 . S
C267 C257 1.510 . S
C267 H265 0.959 . S
C267 H266 0.961 . S
C267 H268 0.960 . S
H268 C267 0.960 . S
H269 N249 0.862 . S
O270 Co238 1.920 . S
O270 C243 1.289 . S
C271 O263 1.258 . S
C271 O264 1.266 . S
H272 C278 0.930 . S
H273 C282 0.930 . S
H274 C287 0.929 . S
H275 C285 0.929 . S
H276 C280 0.929 . S
H277 C286 0.929 . S
C278 H272 0.930 . S
C278 C279 1.367 . S
C278 C286 1.378 . S
C279 C278 1.367 . S
C279 C287 1.433 . S
C280 H276 0.929 . S
C280 C282 1.378 . S
C280 C284 1.350 . S
C281 C284 1.463 . S
C281 C286 1.350 . S
C281 N289 1.427 . S
C282 H273 0.930 . S
C282 C280 1.378 . S
C282 C283 1.367 . S
C283 C282 1.367 . S
C283 C285 1.433 . S
C284 C280 1.350 . S
C284 C281 1.463 . S
C284 N288 1.427 . S
C285 H275 0.929 . S
C285 C283 1.433 . S
C285 N288 1.384 . S
C286 H277 0.929 . S
C286 C278 1.378 . S
C286 C281 1.350 . S
C287 H274 0.929 . S
C287 C279 1.433 . S
C287 N289 1.384 . S
N288 C284 1.427 . S
N288 C285 1.384 . S
N289 C281 1.427 . S
N289 C287 1.384 . S
H290 C296 0.930 . S
H291 C300 0.930 . S
H292 C305 0.929 . S
H293 C303 0.929 . S
H294 C298 0.929 . S
H295 C304 0.929 . S
C296 H290 0.930 . S
C296 C297 1.367 . S
C296 C304 1.378 . S
C297 C296 1.367 . S
C297 C305 1.433 . S
C298 H294 0.929 . S
C298 C300 1.378 . S
C298 C302 1.350 . S
C299 C302 1.463 . S
C299 C304 1.350 . S
C299 N307 1.427 . S
C300 H291 0.930 . S
C300 C298 1.378 . S
C300 C301 1.367 . S
C301 C300 1.367 . S
C301 C303 1.433 . S
C302 C298 1.350 . S
C302 C299 1.463 . S
C302 N306 1.427 . S
C303 H293 0.929 . S
C303 C301 1.433 . S
C303 N306 1.384 . S
C304 H295 0.929 . S
C304 C296 1.378 . S
C304 C299 1.350 . S
C305 H292 0.929 . S
C305 C297 1.433 . S
C305 N307 1.384 . S
N306 C302 1.427 . S
N306 C303 1.384 . S
N307 C299 1.427 . S
N307 C305 1.384 . S
H308 C314 0.930 . S
H309 C318 0.930 . S
H310 C323 0.929 . S
H311 C321 0.929 . S
H312 C316 0.929 . S
H313 C322 0.929 . S
C314 H308 0.930 . S
C314 C315 1.367 . S
C314 C322 1.378 . S
C315 C314 1.367 . S
C315 C323 1.433 . S
C316 H312 0.929 . S
C316 C318 1.378 . S
C316 C320 1.350 . S
C317 C320 1.463 1_455 S
C317 C322 1.350 . S
C317 N325 1.427 . S
C318 H309 0.930 . S
C318 C316 1.378 . S
C318 C319 1.367 . S
C319 C318 1.367 . S
C319 C321 1.433 . S
C320 C316 1.350 . S
C320 C317 1.463 1_655 S
C320 N324 1.427 . S
C321 H311 0.929 . S
C321 C319 1.433 . S
C321 N324 1.384 . S
C322 H313 0.929 . S
C322 C314 1.378 . S
C322 C317 1.350 . S
C323 H310 0.929 . S
C323 C315 1.433 . S
C323 N325 1.384 . S
N324 C320 1.427 . S
N324 C321 1.384 . S
N325 C317 1.427 . S
N325 C323 1.384 . S
H326 C332 0.930 . S
H327 C336 0.930 . S
H328 C341 0.929 . S
H329 C339 0.929 . S
H330 C334 0.929 . S
H331 C340 0.929 . S
C332 H326 0.930 . S
C332 C333 1.367 . S
C332 C340 1.378 . S
C333 C332 1.367 . S
C333 C341 1.433 . S
C334 H330 0.929 . S
C334 C336 1.378 . S
C334 C338 1.350 . S
C335 C338 1.463 1_455 S
C335 C340 1.350 . S
C335 N343 1.427 . S
C336 H327 0.930 . S
C336 C334 1.378 . S
C336 C337 1.367 . S
C337 C336 1.367 . S
C337 C339 1.433 . S
C338 C334 1.350 . S
C338 C335 1.463 1_655 S
C338 N342 1.427 . S
C339 H329 0.929 . S
C339 C337 1.433 . S
C339 N342 1.384 . S
C340 H331 0.929 . S
C340 C332 1.378 . S
C340 C335 1.350 . S
C341 H328 0.929 . S
C341 C333 1.433 . S
C341 N343 1.384 . S
N342 C338 1.427 . S
N342 C339 1.384 . S
N343 C335 1.427 . S
N343 C341 1.384 . S
H344 C350 0.930 . S
H345 C354 0.930 . S
H346 C359 0.929 . S
H347 C357 0.929 . S
H348 C352 0.929 1_556 S
H349 C358 0.929 1_554 S
C350 H344 0.930 . S
C350 C351 1.367 . S
C350 C358 1.378 . S
C351 C350 1.367 . S
C351 C359 1.433 . S
C352 H348 0.929 1_554 S
C352 C354 1.378 . S
C352 C356 1.350 . S
C353 C356 1.463 1_556 S
C353 C358 1.350 . S
C353 N361 1.427 . S
C354 H345 0.930 . S
C354 C352 1.378 . S
C354 C355 1.367 . S
C355 C354 1.367 . S
C355 C357 1.433 . S
C356 C352 1.350 . S
C356 C353 1.463 1_554 S
C356 N360 1.427 . S
C357 H347 0.929 . S
C357 C355 1.433 . S
C357 N360 1.384 . S
C358 H349 0.929 1_556 S
C358 C350 1.378 . S
C358 C353 1.350 . S
C359 H346 0.929 . S
C359 C351 1.433 . S
C359 N361 1.384 . S
N360 C356 1.427 . S
N360 C357 1.384 . S
N361 C353 1.427 . S
N361 C359 1.384 . S
H362 C368 0.930 . S
H363 C372 0.930 . S
H364 C377 0.929 . S
H365 C375 0.929 . S
H366 C370 0.929 . S
H367 C376 0.929 . S
C368 H362 0.930 . S
C368 C369 1.367 . S
C368 C376 1.378 . S
C369 C368 1.367 . S
C369 C377 1.433 . S
C370 H366 0.929 . S
C370 C372 1.378 . S
C370 C374 1.350 . S
C371 C374 1.463 . S
C371 C376 1.350 . S
C371 N379 1.427 . S
C372 H363 0.930 . S
C372 C370 1.378 . S
C372 C373 1.367 . S
C373 C372 1.367 . S
C373 C375 1.433 . S
C374 C370 1.350 . S
C374 C371 1.463 . S
C374 N378 1.427 . S
C375 H365 0.929 . S
C375 C373 1.433 . S
C375 N378 1.384 . S
C376 H367 0.929 . S
C376 C368 1.378 . S
C376 C371 1.350 . S
C377 H364 0.929 . S
C377 C369 1.433 . S
C377 N379 1.384 . S
N378 C374 1.427 . S
N378 C375 1.384 . S
N379 C371 1.427 . S
N379 C377 1.384 . S
H380 C386 0.930 . S
H381 C390 0.930 . S
H382 C395 0.929 . S
H383 C393 0.929 . S
H384 C388 0.929 . S
H385 C394 0.929 . S
C386 H380 0.930 . S
C386 C387 1.367 . S
C386 C394 1.378 . S
C387 C386 1.367 . S
C387 C395 1.433 . S
C388 H384 0.929 . S
C388 C390 1.378 . S
C388 C392 1.350 . S
C389 C392 1.463 1_556 S
C389 C394 1.350 . S
C389 N397 1.427 . S
C390 H381 0.930 . S
C390 C388 1.378 . S
C390 C391 1.367 . S
C391 C390 1.367 . S
C391 C393 1.433 . S
C392 C388 1.350 . S
C392 C389 1.463 1_554 S
C392 N396 1.427 . S
C393 H383 0.929 . S
C393 C391 1.433 . S
C393 N396 1.384 . S
C394 H385 0.929 . S
C394 C386 1.378 . S
C394 C389 1.350 . S
C395 H382 0.929 . S
C395 C387 1.433 . S
C395 N397 1.384 . S
N396 C392 1.427 . S
N396 C393 1.384 . S
N397 C389 1.427 . S
N397 C395 1.384 . S
H398 C404 0.930 . S
H399 C408 0.930 . S
H400 C413 0.929 . S
H401 C411 0.929 . S
H402 C406 0.929 . S
H403 C412 0.929 . S
C404 H398 0.930 . S
C404 C405 1.367 . S
C404 C412 1.378 . S
C405 C404 1.367 . S
C405 C413 1.433 . S
C406 H402 0.929 . S
C406 C408 1.378 . S
C406 C410 1.350 . S
C407 C410 1.463 . S
C407 C412 1.350 . S
C407 N415 1.427 . S
C408 H399 0.930 . S
C408 C406 1.378 . S
C408 C409 1.367 . S
C409 C408 1.367 . S
C409 C411 1.433 . S
C410 C406 1.350 . S
C410 C407 1.463 . S
C410 N414 1.427 . S
C411 H401 0.929 . S
C411 C409 1.433 . S
C411 N414 1.384 . S
C412 H403 0.929 . S
C412 C404 1.378 . S
C412 C407 1.350 . S
C413 H400 0.929 . S
C413 C405 1.433 . S
C413 N415 1.384 . S
N414 C410 1.427 . S
N414 C411 1.384 . S
N415 C407 1.427 . S
N415 C413 1.384 . S
H416 C422 0.930 . S
H417 C426 0.930 . S
H418 C431 0.929 . S
H419 C429 0.929 . S
H420 C424 0.929 1_556 S
H421 C430 0.929 1_554 S
C422 H416 0.930 . S
C422 C423 1.367 . S
C422 C430 1.378 . S
C423 C422 1.367 . S
C423 C431 1.433 . S
C424 H420 0.929 1_554 S
C424 C426 1.378 . S
C424 C428 1.350 . S
C425 C428 1.463 1_546 S
C425 C430 1.350 . S
C425 N433 1.427 . S
C426 H417 0.930 . S
C426 C424 1.378 . S
C426 C427 1.367 . S
C427 C426 1.367 . S
C427 C429 1.433 . S
C428 C424 1.350 . S
C428 C425 1.463 1_564 S
C428 N432 1.427 . S
C429 H419 0.929 . S
C429 C427 1.433 . S
C429 N432 1.384 . S
C430 H421 0.929 1_556 S
C430 C422 1.378 . S
C430 C425 1.350 . S
C431 H418 0.929 . S
C431 C423 1.433 . S
C431 N433 1.384 . S
N432 C428 1.427 . S
N432 C429 1.384 . S
N433 C425 1.427 . S
N433 C431 1.384 . S
H434 C440 0.930 . S
H435 C444 0.930 . S
H436 C449 0.929 . S
H437 C447 0.929 . S
H438 C442 0.929 . S
H439 C448 0.929 . S
C440 H434 0.930 . S
C440 C441 1.367 . S
C440 C448 1.378 . S
C441 C440 1.367 . S
C441 C449 1.433 . S
C442 H438 0.929 . S
C442 C444 1.378 . S
C442 C446 1.350 . S
C443 C446 1.463 1_545 S
C443 C448 1.350 . S
C443 N451 1.427 . S
C444 H435 0.930 . S
C444 C442 1.378 . S
C444 C445 1.367 . S
C445 C444 1.367 . S
C445 C447 1.433 . S
C446 C442 1.350 . S
C446 C443 1.463 1_565 S
C446 N450 1.427 . S
C447 H437 0.929 . S
C447 C445 1.433 . S
C447 N450 1.384 . S
C448 H439 0.929 . S
C448 C440 1.378 . S
C448 C443 1.350 . S
C449 H436 0.929 . S
C449 C441 1.433 . S
C449 N451 1.384 . S
N450 C446 1.427 . S
N450 C447 1.384 . S
N451 C443 1.427 . S
N451 C449 1.384 . S
H452 C458 0.930 . S
H453 C462 0.930 . S
H454 C467 0.929 . S
H455 C465 0.929 . S
H456 C460 0.929 1_556 S
H457 C466 0.929 1_554 S
C458 H452 0.930 . S
C458 C459 1.367 . S
C458 C466 1.378 . S
C459 C458 1.367 . S
C459 C467 1.433 . S
C460 H456 0.929 1_554 S
C460 C462 1.378 . S
C460 C464 1.350 . S
C461 C464 1.463 1_546 S
C461 C466 1.350 . S
C461 N469 1.436 . S
C462 H453 0.930 . S
C462 C460 1.378 . S
C462 C463 1.367 . S
C463 C462 1.367 . S
C463 C465 1.433 . S
C464 C460 1.350 . S
C464 C461 1.463 1_564 S
C464 N468 1.436 . S
C465 H455 0.929 . S
C465 C463 1.433 . S
C465 N468 1.400 . S
C466 H457 0.929 1_556 S
C466 C458 1.378 . S
C466 C461 1.350 . S
C467 H454 0.929 . S
C467 C459 1.433 . S
C467 N469 1.400 . S
N468 C464 1.436 . S
N468 C465 1.400 . S
N469 C461 1.436 . S
N469 C467 1.400 . S
H470 C476 0.930 . S
H471 C480 0.930 . S
H472 C485 0.929 . S
H473 C483 0.929 . S
H474 C478 0.929 . S
H475 C484 0.929 . S
C476 H470 0.930 . S
C476 C477 1.367 . S
C476 C484 1.378 1_545 S
C477 C476 1.367 . S
C477 C485 1.433 . S
C478 H474 0.929 . S
C478 C480 1.378 1_545 S
C478 C482 1.350 1_545 S
C479 C482 1.463 1_545 S
C479 C484 1.350 1_545 S
C479 N487 1.427 . S
C480 H471 0.930 . S
C480 C478 1.378 1_565 S
C480 C481 1.367 . S
C481 C480 1.367 . S
C481 C483 1.433 . S
C482 C478 1.350 1_565 S
C482 C479 1.463 1_565 S
C482 N486 1.427 . S
C483 H473 0.929 . S
C483 C481 1.433 . S
C483 N486 1.384 . S
C484 H475 0.929 . S
C484 C476 1.378 1_565 S
C484 C479 1.350 1_565 S
C485 H472 0.929 . S
C485 C477 1.433 . S
C485 N487 1.384 . S
N486 C482 1.427 . S
N486 C483 1.384 . S
N487 C479 1.427 . S
N487 C485 1.384 . S
H488 C494 0.930 . S
H489 C498 0.930 . S
H490 C503 0.929 . S
H491 C501 0.929 . S
H492 C496 0.929 . S
H493 C502 0.929 . S
C494 H488 0.930 . S
C494 C495 1.367 . S
C494 C502 1.378 . S
C495 C494 1.367 . S
C495 C503 1.433 1_554 S
C496 H492 0.929 . S
C496 C498 1.378 . S
C496 C500 1.350 . S
C497 C500 1.463 . S
C497 C502 1.350 1_556 S
C497 N505 1.427 . S
C498 H489 0.930 . S
C498 C496 1.378 . S
C498 C499 1.367 . S
C499 C498 1.367 . S
C499 C501 1.433 . S
C500 C496 1.350 . S
C500 C497 1.463 . S
C500 N504 1.427 . S
C501 H491 0.929 . S
C501 C499 1.433 . S
C501 N504 1.384 . S
C502 H493 0.929 . S
C502 C494 1.378 . S
C502 C497 1.350 1_554 S
C503 H490 0.929 . S
C503 C495 1.433 1_556 S
C503 N505 1.384 . S
N504 C500 1.427 . S
N504 C501 1.384 . S
N505 C497 1.427 . S
N505 C503 1.384 . S
H506 C512 0.930 . S
H507 C516 0.930 . S
H508 C521 0.929 . S
H509 C519 0.929 . S
H510 C514 0.929 . S
H511 C520 0.929 . S
C512 H506 0.930 . S
C512 C513 1.367 . S
C512 C520 1.378 . S
C513 C512 1.367 . S
C513 C521 1.433 . S
C514 H510 0.929 . S
C514 C516 1.378 . S
C514 C518 1.350 . S
C515 C518 1.463 . S
C515 C520 1.350 . S
C515 N523 1.427 . S
C516 H507 0.930 . S
C516 C514 1.378 . S
C516 C517 1.367 . S
C517 C516 1.367 . S
C517 C519 1.433 . S
C518 C514 1.350 . S
C518 C515 1.463 . S
C518 N522 1.427 . S
C519 H509 0.929 . S
C519 C517 1.433 . S
C519 N522 1.384 . S
C520 H511 0.929 . S
C520 C512 1.378 . S
C520 C515 1.350 . S
C521 H508 0.929 . S
C521 C513 1.433 . S
C521 N523 1.384 . S
N522 C518 1.427 . S
N522 C519 1.384 . S
N523 C515 1.427 . S
N523 C521 1.384 . S
H524 C530 0.930 . S
H525 C534 0.930 . S
H526 C539 0.929 . S
H527 C537 0.929 . S
H528 C532 0.929 . S
H529 C538 0.929 . S
C530 H524 0.930 . S
C530 C531 1.367 . S
C530 C538 1.378 . S
C531 C530 1.367 . S
C531 C539 1.433 . S
C532 H528 0.929 . S
C532 C534 1.378 . S
C532 C536 1.350 . S
C533 C536 1.463 . S
C533 C538 1.350 . S
C533 N541 1.427 . S
C534 H525 0.930 . S
C534 C532 1.378 . S
C534 C535 1.367 1_554 S
C535 C534 1.367 1_556 S
C535 C537 1.433 . S
C536 C532 1.350 . S
C536 C533 1.463 . S
C536 N540 1.427 . S
C537 H527 0.929 . S
C537 C535 1.433 . S
C537 N540 1.384 1_556 S
C538 H529 0.929 . S
C538 C530 1.378 . S
C538 C533 1.350 . S
C539 H526 0.929 . S
C539 C531 1.433 . S
C539 N541 1.384 . S
N540 C536 1.427 . S
N540 C537 1.384 1_554 S
N541 C533 1.427 . S
N541 C539 1.384 . S
H542 C548 0.930 . S
H543 C552 0.930 . S
H544 C557 0.929 . S
H545 C555 0.929 . S
H546 C550 0.929 . S
H547 C556 0.929 . S
C548 H542 0.930 . S
C548 C549 1.367 . S
C548 C556 1.378 . S
C549 C548 1.367 . S
C549 C557 1.433 . S
C550 H546 0.929 . S
C550 C552 1.378 . S
C550 C554 1.350 . S
C551 C554 1.463 . S
C551 C556 1.350 . S
C551 N559 1.427 . S
C552 H543 0.930 . S
C552 C550 1.378 . S
C552 C553 1.367 . S
C553 C552 1.367 . S
C553 C555 1.433 . S
C554 C550 1.350 . S
C554 C551 1.463 . S
C554 N558 1.427 . S
C555 H545 0.929 . S
C555 C553 1.433 . S
C555 N558 1.384 . S
C556 H547 0.929 . S
C556 C548 1.378 . S
C556 C551 1.350 . S
C557 H544 0.929 . S
C557 C549 1.433 . S
C557 N559 1.384 . S
N558 C554 1.427 . S
N558 C555 1.384 . S
N559 C551 1.427 . S
N559 C557 1.384 . S
H560 C566 0.930 . S
H561 C570 0.930 . S
H562 C575 0.929 . S
H563 C573 0.929 . S
H564 C568 0.929 1_554 S
H565 C574 0.929 . S
C566 H560 0.930 . S
C566 C567 1.367 . S
C566 C574 1.378 . S
C567 C566 1.367 . S
C567 C575 1.433 . S
C568 H564 0.929 1_556 S
C568 C570 1.378 1_556 S
C568 C572 1.350 . S
C569 C572 1.463 . S
C569 C574 1.350 . S
C569 N577 1.427 . S
C570 H561 0.930 . S
C570 C568 1.378 1_554 S
C570 C571 1.367 . S
C571 C570 1.367 . S
C571 C573 1.433 1_554 S
C572 C568 1.350 . S
C572 C569 1.463 . S
C572 N576 1.427 . S
C573 H563 0.929 . S
C573 C571 1.433 1_556 S
C573 N576 1.384 . S
C574 H565 0.929 . S
C574 C566 1.378 . S
C574 C569 1.350 . S
C575 H562 0.929 . S
C575 C567 1.433 . S
C575 N577 1.384 . S
N576 C572 1.427 . S
N576 C573 1.384 . S
N577 C569 1.427 . S
N577 C575 1.384 . S
H578 C584 0.930 . S
H579 C588 0.930 . S
H580 C593 0.929 . S
H581 C591 0.929 . S
H582 C586 0.929 . S
H583 C592 0.929 . S
C584 H578 0.930 . S
C584 C585 1.367 . S
C584 C592 1.378 . S
C585 C584 1.367 . S
C585 C593 1.433 . S
C586 H582 0.929 . S
C586 C588 1.378 . S
C586 C590 1.350 . S
C587 C590 1.463 . S
C587 C592 1.350 . S
C587 N595 1.427 . S
C588 H579 0.930 . S
C588 C586 1.378 . S
C588 C589 1.367 . S
C589 C588 1.367 . S
C589 C591 1.433 . S
C590 C586 1.350 . S
C590 C587 1.463 . S
C590 N594 1.427 . S
C591 H581 0.929 . S
C591 C589 1.433 . S
C591 N594 1.384 . S
C592 H583 0.929 . S
C592 C584 1.378 . S
C592 C587 1.350 . S
C593 H580 0.929 . S
C593 C585 1.433 . S
C593 N595 1.384 . S
N594 C590 1.427 . S
N594 C591 1.384 . S
N595 C587 1.427 . S
N595 C593 1.384 . S
H596 C602 0.930 . S
H597 C606 0.930 . S
H598 C611 0.929 . S
H599 C609 0.929 . S
H600 C604 0.929 . S
H601 C610 0.929 . S
C602 H596 0.930 . S
C602 C603 1.367 1_554 S
C602 C610 1.378 . S
C603 C602 1.367 1_556 S
C603 C611 1.433 . S
C604 H600 0.929 . S
C604 C606 1.378 . S
C604 C608 1.350 . S
C605 C608 1.463 . S
C605 C610 1.350 . S
C605 N613 1.427 1_554 S
C606 H597 0.930 . S
C606 C604 1.378 . S
C606 C607 1.367 . S
C607 C606 1.367 . S
C607 C609 1.433 . S
C608 C604 1.350 . S
C608 C605 1.463 . S
C608 N612 1.427 . S
C609 H599 0.929 . S
C609 C607 1.433 . S
C609 N612 1.384 . S
C610 H601 0.929 . S
C610 C602 1.378 . S
C610 C605 1.350 . S
C611 H598 0.929 . S
C611 C603 1.433 . S
C611 N613 1.384 . S
N612 C608 1.427 . S
N612 C609 1.384 . S
N613 C605 1.427 1_556 S
N613 C611 1.384 . S
H614 C620 0.930 . S
H615 C624 0.930 . S
H616 C629 0.929 . S
H617 C627 0.929 . S
H618 C622 0.929 . S
H619 C628 0.929 . S
C620 H614 0.930 . S
C620 C621 1.367 . S
C620 C628 1.378 . S
C621 C620 1.367 . S
C621 C629 1.433 . S
C622 H618 0.929 . S
C622 C624 1.378 . S
C622 C626 1.350 . S
C623 C626 1.463 . S
C623 C628 1.350 . S
C623 N631 1.427 . S
C624 H615 0.930 . S
C624 C622 1.378 . S
C624 C625 1.367 . S
C625 C624 1.367 . S
C625 C627 1.433 . S
C626 C622 1.350 . S
C626 C623 1.463 . S
C626 N630 1.427 . S
C627 H617 0.929 . S
C627 C625 1.433 . S
C627 N630 1.384 . S
C628 H619 0.929 . S
C628 C620 1.378 . S
C628 C623 1.350 . S
C629 H616 0.929 . S
C629 C621 1.433 . S
C629 N631 1.384 . S
N630 C626 1.427 . S
N630 C627 1.384 . S
N631 C623 1.427 . S
N631 C629 1.384 . S
C279 C33 1.542 . S
C283 C135 1.541 . S
C297 C67 1.544 . S
C301 C101 1.543 . S
C315 C271 1.545 . S
C319 C169 1.545 . S
C333 C203 1.545 . S
C337 C237 1.544 . S
C351 C70 2.057 . S
C355 C2 2.056 . S
C369 C104 2.056 . S
C373 C36 2.055 . S
C387 C39 1.343 . S
C391 C107 1.345 . S
C405 C5 1.346 . S
C409 C73 1.341 . S
C423 C206 2.057 . S
C427 C138 2.056 . S
C441 C172 2.055 . S
C445 C240 2.057 . S
C459 C175 1.346 . S
C463 C243 1.342 . S
C477 C209 1.343 . S
C481 C141 1.346 . S
C495 C9 1.310 . S
C499 C190 1.351 . S
C513 C43 1.309 . S
C517 C156 1.351 . S
C531 C258 1.350 . S
C535 C77 1.318 . S
C549 C111 1.310 . S
C553 C224 1.350 . S
C567 C54 1.351 . S
C571 C145 1.314 . S
C585 C179 1.311 . S
C589 C20 1.350 . S
C603 C213 1.312 . S
C607 C122 1.350 . S
C621 C247 1.312 . S
C625 C88 1.350 . S
