# Generated by pormake.
# Topology umr, (4)-cn, num edge types: 1
# Building blocks:
#     Node 0, Type 0, BuildingBlock: GALJAG_clean_sbu_0, # of connection points: 4
#     Node 1, Type 0, BuildingBlock: GALJAG_clean_sbu_0, # of connection points: 4
#     Node 2, Type 0, BuildingBlock: GALJAG_clean_sbu_0, # of connection points: 4
#     Node 3, Type 0, BuildingBlock: GALJAG_clean_sbu_0, # of connection points: 4
#     Node 4, Type 0, BuildingBlock: GALJAG_clean_sbu_0, # of connection points: 4
#     Node 5, Type 0, BuildingBlock: GALJAG_clean_sbu_0, # of connection points: 4
#     Node 6, Type 0, BuildingBlock: GALJAG_clean_sbu_0, # of connection points: 4
#     Node 7, Type 0, BuildingBlock: GALJAG_clean_sbu_0, # of connection points: 4
#     Node 8, Type 0, BuildingBlock: GALJAG_clean_sbu_0, # of connection points: 4
#     Node 9, Type 0, BuildingBlock: GALJAG_clean_sbu_0, # of connection points: 4
#     Node 10, Type 0, BuildingBlock: GALJAG_clean_sbu_0, # of connection points: 4
#     Node 11, Type 0, BuildingBlock: GALJAG_clean_sbu_0, # of connection points: 4
#     Node 12, Type 0, BuildingBlock: GALJAG_clean_sbu_0, # of connection points: 4
#     Node 13, Type 0, BuildingBlock: GALJAG_clean_sbu_0, # of connection points: 4
#     Node 14, Type 0, BuildingBlock: GALJAG_clean_sbu_0, # of connection points: 4
#     Node 15, Type 0, BuildingBlock: GALJAG_clean_sbu_0, # of connection points: 4
#     Node 16, Type 0, BuildingBlock: GALJAG_clean_sbu_0, # of connection points: 4
#     Node 17, Type 0, BuildingBlock: GALJAG_clean_sbu_0, # of connection points: 4
#     Node 18, Type 0, BuildingBlock: GALJAG_clean_sbu_0, # of connection points: 4
#     Node 19, Type 0, BuildingBlock: GALJAG_clean_sbu_0, # of connection points: 4
#     Node 20, Type 0, BuildingBlock: GALJAG_clean_sbu_0, # of connection points: 4
#     Node 21, Type 0, BuildingBlock: GALJAG_clean_sbu_0, # of connection points: 4
#     Node 22, Type 0, BuildingBlock: GALJAG_clean_sbu_0, # of connection points: 4
#     Node 23, Type 0, BuildingBlock: GALJAG_clean_sbu_0, # of connection points: 4
#     Node 24, Type 0, BuildingBlock: GALJAG_clean_sbu_0, # of connection points: 4
#     Node 25, Type 0, BuildingBlock: GALJAG_clean_sbu_0, # of connection points: 4
#     Node 26, Type 0, BuildingBlock: GALJAG_clean_sbu_0, # of connection points: 4
#     Node 27, Type 0, BuildingBlock: GALJAG_clean_sbu_0, # of connection points: 4
#     Node 28, Type 0, BuildingBlock: GALJAG_clean_sbu_0, # of connection points: 4
#     Node 29, Type 0, BuildingBlock: GALJAG_clean_sbu_0, # of connection points: 4
#     Node 30, Type 0, BuildingBlock: GALJAG_clean_sbu_0, # of connection points: 4
#     Node 31, Type 0, BuildingBlock: GALJAG_clean_sbu_0, # of connection points: 4
#     Edge 32, Type (0, 0), BuildingBlock: OJICUG_clean_linker_0, # of connection points: 2
#     Edge 33, Type (0, 0), BuildingBlock: OJICUG_clean_linker_0, # of connection points: 2
#     Edge 34, Type (0, 0), BuildingBlock: OJICUG_clean_linker_0, # of connection points: 2
#     Edge 35, Type (0, 0), BuildingBlock: OJICUG_clean_linker_0, # of connection points: 2
#     Edge 36, Type (0, 0), BuildingBlock: OJICUG_clean_linker_0, # of connection points: 2
#     Edge 37, Type (0, 0), BuildingBlock: OJICUG_clean_linker_0, # of connection points: 2
#     Edge 38, Type (0, 0), BuildingBlock: OJICUG_clean_linker_0, # of connection points: 2
#     Edge 39, Type (0, 0), BuildingBlock: OJICUG_clean_linker_0, # of connection points: 2
#     Edge 40, Type (0, 0), BuildingBlock: OJICUG_clean_linker_0, # of connection points: 2
#     Edge 41, Type (0, 0), BuildingBlock: OJICUG_clean_linker_0, # of connection points: 2
#     Edge 42, Type (0, 0), BuildingBlock: OJICUG_clean_linker_0, # of connection points: 2
#     Edge 43, Type (0, 0), BuildingBlock: OJICUG_clean_linker_0, # of connection points: 2
#     Edge 44, Type (0, 0), BuildingBlock: OJICUG_clean_linker_0, # of connection points: 2
#     Edge 45, Type (0, 0), BuildingBlock: OJICUG_clean_linker_0, # of connection points: 2
#     Edge 46, Type (0, 0), BuildingBlock: OJICUG_clean_linker_0, # of connection points: 2
#     Edge 47, Type (0, 0), BuildingBlock: OJICUG_clean_linker_0, # of connection points: 2
#     Edge 48, Type (0, 0), BuildingBlock: OJICUG_clean_linker_0, # of connection points: 2
#     Edge 49, Type (0, 0), BuildingBlock: OJICUG_clean_linker_0, # of connection points: 2
#     Edge 50, Type (0, 0), BuildingBlock: OJICUG_clean_linker_0, # of connection points: 2
#     Edge 51, Type (0, 0), BuildingBlock: OJICUG_clean_linker_0, # of connection points: 2
#     Edge 52, Type (0, 0), BuildingBlock: OJICUG_clean_linker_0, # of connection points: 2
#     Edge 53, Type (0, 0), BuildingBlock: OJICUG_clean_linker_0, # of connection points: 2
#     Edge 54, Type (0, 0), BuildingBlock: OJICUG_clean_linker_0, # of connection points: 2
#     Edge 55, Type (0, 0), BuildingBlock: OJICUG_clean_linker_0, # of connection points: 2
#     Edge 56, Type (0, 0), BuildingBlock: OJICUG_clean_linker_0, # of connection points: 2
#     Edge 57, Type (0, 0), BuildingBlock: OJICUG_clean_linker_0, # of connection points: 2
#     Edge 58, Type (0, 0), BuildingBlock: OJICUG_clean_linker_0, # of connection points: 2
#     Edge 59, Type (0, 0), BuildingBlock: OJICUG_clean_linker_0, # of connection points: 2
#     Edge 60, Type (0, 0), BuildingBlock: OJICUG_clean_linker_0, # of connection points: 2
#     Edge 61, Type (0, 0), BuildingBlock: OJICUG_clean_linker_0, # of connection points: 2
#     Edge 62, Type (0, 0), BuildingBlock: OJICUG_clean_linker_0, # of connection points: 2
#     Edge 63, Type (0, 0), BuildingBlock: OJICUG_clean_linker_0, # of connection points: 2
#     Edge 64, Type (0, 0), BuildingBlock: OJICUG_clean_linker_0, # of connection points: 2
#     Edge 65, Type (0, 0), BuildingBlock: OJICUG_clean_linker_0, # of connection points: 2
#     Edge 66, Type (0, 0), BuildingBlock: OJICUG_clean_linker_0, # of connection points: 2
#     Edge 67, Type (0, 0), BuildingBlock: OJICUG_clean_linker_0, # of connection points: 2
#     Edge 68, Type (0, 0), BuildingBlock: OJICUG_clean_linker_0, # of connection points: 2
#     Edge 69, Type (0, 0), BuildingBlock: OJICUG_clean_linker_0, # of connection points: 2
#     Edge 70, Type (0, 0), BuildingBlock: OJICUG_clean_linker_0, # of connection points: 2
#     Edge 71, Type (0, 0), BuildingBlock: OJICUG_clean_linker_0, # of connection points: 2
#     Edge 72, Type (0, 0), BuildingBlock: OJICUG_clean_linker_0, # of connection points: 2
#     Edge 73, Type (0, 0), BuildingBlock: OJICUG_clean_linker_0, # of connection points: 2
#     Edge 74, Type (0, 0), BuildingBlock: OJICUG_clean_linker_0, # of connection points: 2
#     Edge 75, Type (0, 0), BuildingBlock: OJICUG_clean_linker_0, # of connection points: 2
#     Edge 76, Type (0, 0), BuildingBlock: OJICUG_clean_linker_0, # of connection points: 2
#     Edge 77, Type (0, 0), BuildingBlock: OJICUG_clean_linker_0, # of connection points: 2
#     Edge 78, Type (0, 0), BuildingBlock: OJICUG_clean_linker_0, # of connection points: 2
#     Edge 79, Type (0, 0), BuildingBlock: OJICUG_clean_linker_0, # of connection points: 2
#     Edge 80, Type (0, 0), BuildingBlock: OJICUG_clean_linker_0, # of connection points: 2
#     Edge 81, Type (0, 0), BuildingBlock: OJICUG_clean_linker_0, # of connection points: 2
#     Edge 82, Type (0, 0), BuildingBlock: OJICUG_clean_linker_0, # of connection points: 2
#     Edge 83, Type (0, 0), BuildingBlock: OJICUG_clean_linker_0, # of connection points: 2
#     Edge 84, Type (0, 0), BuildingBlock: OJICUG_clean_linker_0, # of connection points: 2
#     Edge 85, Type (0, 0), BuildingBlock: OJICUG_clean_linker_0, # of connection points: 2
#     Edge 86, Type (0, 0), BuildingBlock: OJICUG_clean_linker_0, # of connection points: 2
#     Edge 87, Type (0, 0), BuildingBlock: OJICUG_clean_linker_0, # of connection points: 2
#     Edge 88, Type (0, 0), BuildingBlock: OJICUG_clean_linker_0, # of connection points: 2
#     Edge 89, Type (0, 0), BuildingBlock: OJICUG_clean_linker_0, # of connection points: 2
#     Edge 90, Type (0, 0), BuildingBlock: OJICUG_clean_linker_0, # of connection points: 2
#     Edge 91, Type (0, 0), BuildingBlock: OJICUG_clean_linker_0, # of connection points: 2
#     Edge 92, Type (0, 0), BuildingBlock: OJICUG_clean_linker_0, # of connection points: 2
#     Edge 93, Type (0, 0), BuildingBlock: OJICUG_clean_linker_0, # of connection points: 2
#     Edge 94, Type (0, 0), BuildingBlock: OJICUG_clean_linker_0, # of connection points: 2
#     Edge 95, Type (0, 0), BuildingBlock: OJICUG_clean_linker_0, # of connection points: 2
# Relax obj value: 0.027
# Max RMSD: 0.060
# Mean RMSD: 0.060
data_MOF--net-umr--node1-GALJAG_clean_sbu_0--edge1-OJICUG_clean_linker_0
_symmetry_space_group_name_H-M    P1
_symmetry_Int_Tables_number       1
_symmetry_cell_setting            triclinic
loop_
_symmetry_equiv_pos_as_xyz
'x, y, z'
_cell_length_a     59.919069
_cell_length_b     59.87819
_cell_length_c     20.581938
_cell_angle_alpha  90.025128
_cell_angle_beta   89.986364
_cell_angle_gamma 90.038355
loop_
_atom_site_label
_atom_site_type_symbol
_atom_site_fract_x
_atom_site_fract_y
_atom_site_fract_z
_atom_type_partial_charge
In0 In 0.1482 0.27234 0.05325 0.0
O1 O 0.13723 0.24434 0.12229 0.0
O2 O 0.15356 0.2729 0.16183 0.0
C3 C 0.13846 0.25654 0.9342 0.0
C4 C 0.11826 0.30433 0.07624 0.0
C5 C 0.19241 0.27496 0.03409 0.0
O6 O 0.13954 0.24403 0.98359 0.0
O7 O 0.14112 0.27707 0.94566 0.0
O8 O 0.1802 0.29216 0.03437 0.0
O9 O 0.18237 0.25688 0.04572 0.0
C10 C 0.14409 0.25445 0.17249 0.0
O11 O 0.13888 0.30852 0.07147 0.0
O12 O 0.1128 0.28425 0.06604 0.0
In13 In 0.95527 0.89948 0.30619 0.0
O14 O 0.91921 0.8897 0.32438 0.0
O15 O 0.94374 0.8639 0.3181 0.0
C16 C 0.95207 0.94373 0.28753 0.0
C17 C 0.97326 0.89522 0.42534 0.0
C18 C 0.97111 0.89005 0.18694 0.0
O19 O 0.93504 0.93127 0.28775 0.0
O20 O 0.97026 0.93392 0.29904 0.0
O21 O 0.98363 0.89136 0.23624 0.0
O22 O 0.95057 0.89235 0.19856 0.0
C23 C 0.92361 0.8691 0.32853 0.0
O24 O 0.98341 0.88864 0.37491 0.0
O25 O 0.95473 0.90452 0.41497 0.0
In26 In 0.32914 0.70235 0.54162 0.0
O27 O 0.33895 0.66606 0.5589 0.0
O28 O 0.36464 0.69064 0.55095 0.0
C29 C 0.28448 0.70065 0.53169 0.0
C30 C 0.33496 0.72023 0.66062 0.0
C31 C 0.3376 0.71819 0.42137 0.0
O32 O 0.29632 0.68329 0.52605 0.0
O33 O 0.29518 0.71831 0.54349 0.0
O34 O 0.33778 0.73054 0.47122 0.0
O35 O 0.33406 0.69778 0.43263 0.0
C36 C 0.35957 0.67051 0.56189 0.0
O37 O 0.34045 0.73064 0.60951 0.0
O38 O 0.32617 0.70136 0.65113 0.0
In39 In 0.51974 0.07996 0.80007 0.0
O40 O 0.55583 0.08954 0.8191 0.0
O41 O 0.53135 0.11542 0.81605 0.0
C42 C 0.52274 0.03593 0.77742 0.0
C43 C 0.50174 0.08228 0.9197 0.0
C44 C 0.50388 0.09028 0.68147 0.0
O45 O 0.53981 0.04833 0.77875 0.0
O46 O 0.50457 0.04566 0.78967 0.0
O47 O 0.49144 0.08917 0.73103 0.0
O48 O 0.52438 0.08751 0.69267 0.0
C49 C 0.55148 0.11008 0.82575 0.0
O50 O 0.49161 0.08971 0.87027 0.0
O51 O 0.52031 0.07321 0.90803 0.0
In52 In 0.14611 0.70986 0.46204 0.0
O53 O 0.12601 0.73092 0.38908 0.0
O54 O 0.1603 0.7253 0.36962 0.0
C55 C 0.13616 0.72433 0.58301 0.0
C56 C 0.11977 0.6759 0.42603 0.0
C57 C 0.18985 0.70489 0.4837 0.0
O58 O 0.13708 0.73725 0.53456 0.0
O59 O 0.1391 0.70399 0.56979 0.0
O60 O 0.17738 0.68822 0.47252 0.0
O61 O 0.18019 0.72363 0.48259 0.0
C62 C 0.14219 0.73368 0.35079 0.0
O63 O 0.1408 0.67434 0.42392 0.0
O64 O 0.11243 0.69397 0.44912 0.0
In65 In 0.52416 0.89776 0.70425 0.0
O66 O 0.49453 0.888 0.63853 0.0
O67 O 0.52477 0.89932 0.59507 0.0
C68 C 0.51265 0.89034 0.82881 0.0
C69 C 0.55688 0.86827 0.68447 0.0
C70 C 0.52453 0.94234 0.71293 0.0
O71 O 0.50102 0.88282 0.78226 0.0
O72 O 0.53004 0.90072 0.81218 0.0
O73 O 0.54234 0.93104 0.71051 0.0
O74 O 0.50671 0.93113 0.70843 0.0
C75 C 0.5053 0.8919 0.58671 0.0
O76 O 0.56045 0.88909 0.68444 0.0
O77 O 0.53717 0.86252 0.69823 0.0
In78 In 0.32955 0.27238 0.94288 0.0
O79 O 0.33787 0.30884 0.92493 0.0
O80 O 0.36458 0.28527 0.92877 0.0
C81 C 0.28536 0.27491 0.96301 0.0
C82 C 0.33381 0.2544 0.82348 0.0
C83 C 0.33967 0.25633 0.06162 0.0
O84 O 0.2976 0.2921 0.9629 0.0
O85 O 0.29534 0.25687 0.95076 0.0
O86 O 0.33805 0.24389 0.01219 0.0
O87 O 0.33741 0.2769 0.05033 0.0
C88 C 0.35857 0.30523 0.91916 0.0
O89 O 0.34119 0.24465 0.87358 0.0
O90 O 0.32376 0.27251 0.8343 0.0
In91 In 0.95347 0.08096 0.19616 0.0
O92 O 0.98142 0.09204 0.12701 0.0
O93 O 0.95314 0.07523 0.08764 0.0
C94 C 0.96927 0.09102 0.31509 0.0
C95 C 0.92136 0.1107 0.1719 0.0
C96 C 0.95111 0.03674 0.21626 0.0
O97 O 0.98175 0.08985 0.26564 0.0
O98 O 0.94876 0.08833 0.30374 0.0
O99 O 0.93385 0.04886 0.21613 0.0
O100 O 0.96908 0.04685 0.20399 0.0
C101 C 0.97147 0.08491 0.07688 0.0
O102 O 0.91727 0.09004 0.17699 0.0
O103 O 0.94137 0.11628 0.1826 0.0
In104 In 0.83193 0.70446 0.94354 0.0
O105 O 0.8417 0.6684 0.92462 0.0
O106 O 0.86747 0.69299 0.93036 0.0
C107 C 0.7878 0.70172 0.964 0.0
C108 C 0.83548 0.72236 0.82412 0.0
C109 C 0.84158 0.72042 0.06253 0.0
O110 O 0.80003 0.68453 0.96362 0.0
O111 O 0.79775 0.71977 0.95161 0.0
O112 O 0.84044 0.73288 0.01304 0.0
O113 O 0.8391 0.69986 0.05118 0.0
C114 C 0.86227 0.67287 0.91975 0.0
O115 O 0.84256 0.73246 0.87407 0.0
O116 O 0.82607 0.70389 0.83514 0.0
In117 In 0.02088 0.08117 0.69594 0.0
O118 O -0.00707 0.09241 0.62702 0.0
O119 O 0.02119 0.0757 0.58731 0.0
C120 C 0.00492 0.09087 0.81501 0.0
C121 C 0.05317 0.1108 0.67251 0.0
C122 C 0.02383 0.03696 0.71494 0.0
O123 O -0.00754 0.08945 0.76562 0.0
O124 O 0.02547 0.08861 0.80354 0.0
O125 O 0.0409 0.04935 0.71508 0.0
O126 O 0.0057 0.04681 0.70306 0.0
C127 C 0.00286 0.08538 0.57675 0.0
O128 O 0.05711 0.09013 0.67757 0.0
O129 O 0.03316 0.11648 0.68274 0.0
In130 In 0.64589 0.27363 0.44605 0.0
O131 O 0.63511 0.24544 0.37721 0.0
O132 O 0.65099 0.27414 0.3372 0.0
C133 C 0.63641 0.25768 0.5653 0.0
C134 C 0.61562 0.30545 0.42351 0.0
C135 C 0.69017 0.27653 0.4644 0.0
O136 O 0.63739 0.24524 0.5157 0.0
O137 O 0.63906 0.27821 0.55402 0.0
O138 O 0.67786 0.29366 0.46456 0.0
O139 O 0.6802 0.25842 0.45284 0.0
C140 C 0.64174 0.25555 0.3268 0.0
O141 O 0.63624 0.30976 0.42772 0.0
O142 O 0.61035 0.28534 0.43402 0.0
In143 In 0.45725 0.89374 0.20436 0.0
O144 O 0.48078 0.87593 0.13284 0.0
O145 O 0.46879 0.9082 0.10785 0.0
C146 C 0.47198 0.88389 0.32493 0.0
C147 C 0.4244 0.8659 0.16882 0.0
C148 C 0.45289 0.93737 0.22943 0.0
O149 O 0.48484 0.8851 0.27636 0.0
O150 O 0.45156 0.88636 0.31192 0.0
O151 O 0.436 0.92511 0.21918 0.0
O152 O 0.47152 0.92761 0.22528 0.0
C153 C 0.48016 0.89145 0.09146 0.0
O154 O 0.42158 0.88683 0.16987 0.0
O155 O 0.44317 0.85933 0.1887 0.0
In156 In 0.82775 0.27381 0.55081 0.0
O157 O 0.83845 0.24563 0.61969 0.0
O158 O 0.82243 0.27428 0.65953 0.0
C159 C 0.83731 0.2579 0.43156 0.0
C160 C 0.85805 0.30555 0.5742 0.0
C161 C 0.78349 0.27664 0.53207 0.0
O162 O 0.83628 0.24545 0.48108 0.0
O163 O 0.83469 0.27844 0.44293 0.0
O164 O 0.79579 0.29379 0.53208 0.0
O165 O 0.79346 0.25854 0.54367 0.0
C166 C 0.8317 0.25573 0.67002 0.0
O167 O 0.83747 0.30993 0.56952 0.0
O168 O 0.86328 0.28544 0.5636 0.0
In169 In 0.45236 0.07597 0.30196 0.0
O170 O 0.41628 0.08577 0.32071 0.0
O171 O 0.44072 0.11156 0.31116 0.0
C172 C 0.45004 0.03136 0.28945 0.0
C173 C 0.47018 0.08204 0.42066 0.0
C174 C 0.46812 0.08478 0.18207 0.0
O175 O 0.4329 0.04353 0.28432 0.0
O176 O 0.46781 0.0417 0.3025 0.0
O177 O 0.48064 0.08404 0.23149 0.0
O178 O 0.44764 0.08198 0.19368 0.0
C179 C 0.42068 0.10643 0.32308 0.0
O180 O 0.48052 0.08763 0.36954 0.0
O181 O 0.45152 0.07281 0.41128 0.0
In182 In 0.65118 0.70544 0.06084 0.0
O183 O 0.64007 0.73346 0.1297 0.0
O184 O 0.657 0.70531 0.16931 0.0
C185 C 0.64103 0.72138 0.94218 0.0
C186 C 0.62134 0.67355 0.08629 0.0
C187 C 0.69527 0.70231 0.03987 0.0
O188 O 0.64292 0.73389 0.99138 0.0
O189 O 0.64305 0.70079 0.95369 0.0
O190 O 0.68281 0.68527 0.03994 0.0
O191 O 0.68556 0.72045 0.05277 0.0
C192 C 0.64719 0.72358 0.17992 0.0
O193 O 0.64191 0.66929 0.08041 0.0
O194 O 0.61587 0.69359 0.07556 0.0
In195 In 0.02238 0.89976 0.80583 0.0
O196 O 0.05861 0.89109 0.82586 0.0
O197 O 0.03467 0.86467 0.82188 0.0
C198 C 0.02465 0.94392 0.78529 0.0
C199 C 0.00426 0.89605 0.92489 0.0
C200 C 0.00678 0.88931 0.68698 0.0
O201 O 0.04192 0.93182 0.7854 0.0
O202 O 0.00668 0.93381 0.79766 0.0
O203 O -0.00575 0.89057 0.73628 0.0
O204 O 0.02728 0.89206 0.69849 0.0
C205 C 0.05461 0.87049 0.83269 0.0
O206 O -0.00556 0.88865 0.87489 0.0
O207 O 0.02248 0.90593 0.91404 0.0
In208 In 0.6499 0.77257 0.56072 0.0
O209 O 0.63888 0.74469 0.63017 0.0
O210 O 0.65611 0.77285 0.66894 0.0
C211 C 0.63992 0.75674 0.4418 0.0
C212 C 0.62017 0.80455 0.58597 0.0
C213 C 0.69398 0.77521 0.53964 0.0
O214 O 0.64135 0.74422 0.4911 0.0
O215 O 0.64222 0.7773 0.45339 0.0
O216 O 0.68178 0.79241 0.54025 0.0
O217 O 0.68403 0.75715 0.55211 0.0
C218 C 0.6463 0.7546 0.68003 0.0
O219 O 0.64075 0.80877 0.57969 0.0
O220 O 0.61464 0.78448 0.57578 0.0
In221 In 0.45207 0.40203 0.80617 0.0
O222 O 0.48012 0.39043 0.87403 0.0
O223 O 0.45104 0.4052 0.91545 0.0
C224 C 0.46782 0.39344 0.6862 0.0
C225 C 0.42045 0.37142 0.82639 0.0
C226 C 0.45001 0.44663 0.794 0.0
O227 O 0.48032 0.39395 0.73568 0.0
O228 O 0.44735 0.39633 0.6978 0.0
O229 O 0.43278 0.43456 0.78881 0.0
O230 O 0.46771 0.4362 0.80702 0.0
C231 C 0.4697 0.39603 0.92502 0.0
O232 O 0.41599 0.39207 0.8244 0.0
O233 O 0.44052 0.3664 0.81465 0.0
In234 In 0.82741 0.20594 0.05075 0.0
O235 O 0.83828 0.2341 0.1196 0.0
O236 O 0.82211 0.20554 0.15949 0.0
C237 C 0.83709 0.22185 0.93159 0.0
C238 C 0.85747 0.17405 0.07436 0.0
C239 C 0.78315 0.20306 0.03205 0.0
O240 O 0.83597 0.2343 0.98111 0.0
O241 O 0.83449 0.20131 0.94292 0.0
O242 O 0.79547 0.18593 0.03188 0.0
O243 O 0.79311 0.22117 0.04377 0.0
C244 C 0.8315 0.22405 0.16996 0.0
O245 O 0.83686 0.16978 0.06949 0.0
O246 O 0.86285 0.19413 0.06376 0.0
In247 In 0.02714 0.58036 0.29991 0.0
O248 O -0.00082 0.5912 0.36932 0.0
O249 O 0.02788 0.5752 0.40878 0.0
C250 C 0.01127 0.58981 0.18061 0.0
C251 C 0.05883 0.61083 0.32182 0.0
C252 C 0.02908 0.53605 0.28175 0.0
O253 O -0.00113 0.58922 0.23032 0.0
O254 O 0.03175 0.58679 0.19178 0.0
O255 O 0.04652 0.54797 0.28185 0.0
O256 O 0.01121 0.54644 0.2931 0.0
C257 C 0.00934 0.58448 0.41954 0.0
O258 O 0.06339 0.59026 0.31713 0.0
O259 O 0.03863 0.61585 0.312 0.0
In260 In 0.64556 0.20562 0.94603 0.0
O261 O 0.63603 0.16946 0.92731 0.0
O262 O 0.61006 0.19379 0.93319 0.0
C263 C 0.68983 0.20287 0.96468 0.0
C264 C 0.64164 0.22371 0.82681 0.0
C265 C 0.63601 0.22154 0.0653 0.0
O266 O 0.67755 0.1857 0.96476 0.0
O267 O 0.67982 0.22095 0.95307 0.0
O268 O 0.63695 0.23397 0.01572 0.0
O269 O 0.63871 0.20101 0.05398 0.0
C270 C 0.61541 0.17371 0.9226 0.0
O271 O 0.63482 0.23377 0.87712 0.0
O272 O 0.65094 0.20517 0.83734 0.0
In273 In 0.02274 0.39872 0.19287 0.0
O274 O -0.00546 0.38794 0.12411 0.0
O275 O 0.02312 0.40399 0.08407 0.0
C276 C 0.00651 0.38911 0.31172 0.0
C277 C 0.05448 0.3685 0.16971 0.0
C278 C 0.02663 0.44289 0.21227 0.0
O279 O -0.00589 0.39091 0.26231 0.0
O280 O 0.02711 0.39102 0.3004 0.0
O281 O 0.04343 0.43016 0.21238 0.0
O282 O 0.00831 0.43339 0.20019 0.0
C283 C 0.0046 0.39466 0.0737 0.0
O284 O 0.0588 0.38911 0.17445 0.0
O285 O 0.03438 0.36318 0.17999 0.0
In286 In 0.8306 0.77191 0.44345 0.0
O287 O 0.84186 0.744 0.37443 0.0
O288 O 0.82512 0.77224 0.33478 0.0
C289 C 0.84049 0.75587 0.5622 0.0
C290 C 0.86028 0.80419 0.42042 0.0
C291 C 0.78646 0.77482 0.46365 0.0
O292 O 0.83892 0.74342 0.51279 0.0
O293 O 0.83824 0.77645 0.55089 0.0
O294 O 0.79883 0.79191 0.4636 0.0
O295 O 0.79628 0.75671 0.45111 0.0
C296 C 0.83485 0.75394 0.32418 0.0
O297 O 0.83961 0.80816 0.42502 0.0
O298 O 0.8659 0.78417 0.43073 0.0
In299 In 0.45833 0.58398 0.707 0.0
O300 O 0.48023 0.60315 0.63402 0.0
O301 O 0.47238 0.56931 0.6134 0.0
C302 C 0.47298 0.59451 0.82736 0.0
C303 C 0.42454 0.61021 0.66926 0.0
C304 C 0.4537 0.54043 0.73265 0.0
O305 O 0.48585 0.59316 0.77888 0.0
O306 O 0.45259 0.59188 0.81431 0.0
O307 O 0.43691 0.55273 0.72177 0.0
O308 O 0.47239 0.55009 0.72876 0.0
C309 C 0.48178 0.587 0.59495 0.0
O310 O 0.42275 0.58917 0.66956 0.0
O311 O 0.44274 0.61767 0.69107 0.0
In312 In 0.32961 0.20476 0.44275 0.0
O313 O 0.34121 0.23255 0.37359 0.0
O314 O 0.32385 0.20461 0.3342 0.0
C315 C 0.33968 0.22083 0.56158 0.0
C316 C 0.35873 0.17207 0.41858 0.0
C317 C 0.28542 0.20219 0.4627 0.0
O318 O 0.33809 0.23326 0.51216 0.0
O319 O 0.33743 0.20025 0.55024 0.0
O320 O 0.29765 0.18502 0.4629 0.0
O321 O 0.29541 0.22022 0.45025 0.0
C322 C 0.33386 0.22276 0.32344 0.0
O323 O 0.33805 0.16835 0.42435 0.0
O324 O 0.36469 0.19202 0.42854 0.0
In325 In 0.52494 0.58106 0.20692 0.0
O326 O 0.4954 0.59105 0.14116 0.0
O327 O 0.52548 0.57926 0.09778 0.0
C328 C 0.5138 0.58863 0.33171 0.0
C329 C 0.55779 0.61035 0.1864 0.0
C330 C 0.52493 0.53649 0.21603 0.0
O331 O 0.50192 0.5959 0.28539 0.0
O332 O 0.53125 0.57845 0.31469 0.0
O333 O 0.54283 0.54765 0.2131 0.0
O334 O 0.5072 0.54782 0.21178 0.0
C335 C 0.50611 0.58693 0.08936 0.0
O336 O 0.56124 0.58952 0.1867 0.0
O337 O 0.53812 0.61622 0.20023 0.0
In338 In 0.14776 0.77649 0.96279 0.0
O339 O 0.13823 0.74678 0.89699 0.0
O340 O 0.14983 0.77701 0.85383 0.0
C341 C 0.14009 0.76565 0.08768 0.0
C342 C 0.11808 0.80877 0.94033 0.0
C343 C 0.19231 0.77662 0.97101 0.0
O344 O 0.13314 0.75348 0.04151 0.0
O345 O 0.15002 0.78324 0.07043 0.0
O346 O 0.18114 0.79452 0.96834 0.0
O347 O 0.18097 0.75885 0.96755 0.0
C348 C 0.14241 0.75753 0.84529 0.0
O349 O 0.13883 0.81265 0.94194 0.0
O350 O 0.11247 0.78901 0.95415 0.0
In351 In 0.95505 0.39832 0.69306 0.0
O352 O 0.98283 0.38705 0.62362 0.0
O353 O 0.95463 0.40402 0.58457 0.0
C354 C 0.97078 0.3885 0.81223 0.0
C355 C 0.92268 0.36871 0.6696 0.0
C356 C 0.95328 0.44261 0.71223 0.0
O357 O 0.98323 0.38923 0.76266 0.0
O358 O 0.95031 0.39148 0.80091 0.0
O359 O 0.93583 0.43072 0.71196 0.0
O360 O 0.97113 0.43222 0.70065 0.0
C361 C 0.9729 0.39427 0.57361 0.0
O362 O 0.91873 0.38938 0.6748 0.0
O363 O 0.94269 0.36304 0.67973 0.0
In364 In 0.33102 0.77104 0.04052 0.0
O365 O 0.34059 0.80735 0.05785 0.0
O366 O 0.36644 0.78286 0.055 0.0
C367 C 0.28675 0.7742 0.02263 0.0
C368 C 0.33438 0.75283 0.15997 0.0
C369 C 0.34078 0.75494 0.92137 0.0
O370 O 0.29924 0.79121 0.02237 0.0
O371 O 0.29656 0.75598 0.03355 0.0
O372 O 0.34002 0.74263 0.97121 0.0
O373 O 0.33776 0.77544 0.93233 0.0
C374 C 0.36114 0.80305 0.06405 0.0
O375 O 0.34101 0.74262 0.10969 0.0
O376 O 0.32567 0.77164 0.14938 0.0
In377 In 0.95902 0.58008 0.8001 0.0
O378 O 0.92283 0.58924 0.81859 0.0
O379 O 0.94692 0.61548 0.81369 0.0
C380 C 0.95542 0.53585 0.78094 0.0
C381 C 0.97721 0.58413 0.91926 0.0
C382 C 0.97533 0.58974 0.68121 0.0
O383 O 0.93856 0.54851 0.78041 0.0
O384 O 0.97367 0.54546 0.7932 0.0
O385 O 0.98768 0.58808 0.73077 0.0
O386 O 0.95474 0.5877 0.69239 0.0
C387 C 0.92688 0.60988 0.82386 0.0
O388 O 0.98715 0.59107 0.8689 0.0
O389 O 0.95878 0.57462 0.90884 0.0
In390 In 0.14826 0.20519 0.55314 0.0
O391 O 0.13763 0.2333 0.62222 0.0
O392 O 0.15365 0.20459 0.66172 0.0
C393 C 0.1385 0.22099 0.43418 0.0
C394 C 0.1179 0.17361 0.5766 0.0
C395 C 0.19244 0.20236 0.53371 0.0
O396 O 0.13966 0.2335 0.48358 0.0
O397 O 0.14112 0.20046 0.44557 0.0
O398 O 0.18014 0.1852 0.53404 0.0
O399 O 0.18251 0.22047 0.54542 0.0
C400 C 0.14436 0.22312 0.67241 0.0
O401 O 0.13847 0.16914 0.57184 0.0
O402 O 0.11273 0.19374 0.56602 0.0
In403 In 0.5194 0.39899 0.30429 0.0
O404 O 0.49128 0.38915 0.37441 0.0
O405 O 0.51996 0.40568 0.41233 0.0
C406 C 0.5034 0.3885 0.18593 0.0
C407 C 0.55122 0.36899 0.32958 0.0
C408 C 0.52257 0.44301 0.28144 0.0
O409 O 0.49099 0.38983 0.23549 0.0
O410 O 0.52393 0.39119 0.19701 0.0
O411 O 0.53957 0.43054 0.28268 0.0
O412 O 0.50436 0.43336 0.2939 0.0
C413 C 0.50141 0.39656 0.4239 0.0
O414 O 0.55551 0.38955 0.32305 0.0
O415 O 0.5311 0.36357 0.32008 0.0
C416 C 0.25018 0.29567 0.98968 0.0
C417 C 0.26151 0.27538 0.98014 0.0
H418 H 0.21919 0.31149 0.0144 0.0
C419 C 0.25004 0.25519 0.98943 0.0
H420 H 0.25869 0.31147 0.98305 0.0
C421 C 0.22772 0.25521 0.00807 0.0
C422 C 0.21629 0.27542 0.01729 0.0
H423 H 0.25836 0.23929 0.98284 0.0
H424 H 0.21937 0.23932 0.01465 0.0
C425 C 0.22767 0.29568 0.00782 0.0
C426 C 0.93094 0.97877 0.26142 0.0
C427 C 0.95132 0.96763 0.27077 0.0
H428 H 0.91483 0.00963 0.2367 0.0
C429 C 0.97138 0.9793 0.26138 0.0
H430 H 0.91523 0.9701 0.26814 0.0
C431 C 0.97114 0.00162 0.24267 0.0
C432 C 0.95085 0.01286 0.23349 0.0
H433 H 0.98735 0.97114 0.26783 0.0
H434 H 0.98695 0.01012 0.23594 0.0
C435 C 0.9307 0.0013 0.24323 0.0
C436 C 0.22584 0.72236 0.5148 0.0
C437 C 0.21391 0.70308 0.49755 0.0
H438 H 0.25732 0.73658 0.53962 0.0
C439 C 0.2252 0.68255 0.49368 0.0
H440 H 0.21761 0.73841 0.51857 0.0
C441 C 0.2482 0.68149 0.50579 0.0
C442 C 0.2601 0.70094 0.52217 0.0
H443 H 0.21635 0.66742 0.48063 0.0
H444 H 0.25667 0.66558 0.50162 0.0
C445 C 0.24863 0.72129 0.52706 0.0
C446 C 0.54397 0.00119 0.7494 0.0
C447 C 0.52354 0.01207 0.7601 0.0
H448 H 0.56033 0.97041 0.72559 0.0
C449 C 0.50356 7e-05 0.75268 0.0
H450 H 0.55961 0.01009 0.75447 0.0
C451 C 0.50395 0.97757 0.73558 0.0
C452 C 0.52434 0.96654 0.72587 0.0
H453 H 0.48754 0.00806 0.76013 0.0
H454 H 0.48825 0.96873 0.73099 0.0
C455 C 0.54437 0.97855 0.73259 0.0
C456 C 0.73058 0.72175 0.01192 0.0
C457 C 0.71904 0.70163 0.0217 0.0
H458 H 0.76116 0.73745 0.98509 0.0
C459 C 0.73016 0.68128 0.01143 0.0
H460 H 0.72241 0.7377 0.01902 0.0
C461 C 0.75257 0.68113 0.99207 0.0
C462 C 0.76401 0.70133 0.98204 0.0
H463 H 0.72158 0.66553 0.0184 0.0
H464 H 0.76091 0.66528 0.98494 0.0
C465 C 0.75276 0.7216 0.99202 0.0
C466 C 0.04507 0.97934 0.75881 0.0
C467 C 0.02491 0.96779 0.76821 0.0
H468 H 0.06059 0.01055 0.73443 0.0
C469 C 0.00463 0.97905 0.75898 0.0
H470 H 0.06095 0.97099 0.76541 0.0
C471 C 0.00443 0.00139 0.74056 0.0
C472 C 0.02451 0.01305 0.73151 0.0
H473 H 0.98882 0.97055 0.76548 0.0
H474 H 0.98847 0.00959 0.73404 0.0
C475 C 0.04487 0.00189 0.7409 0.0
C476 C 0.72566 0.25691 0.48916 0.0
C477 C 0.71414 0.27709 0.48049 0.0
H478 H 0.75642 0.24105 0.51307 0.0
C479 C 0.72552 0.29738 0.48963 0.0
H480 H 0.71731 0.241 0.48283 0.0
C481 C 0.74814 0.29741 0.50686 0.0
C482 C 0.75955 0.27714 0.51582 0.0
H483 H 0.71698 0.31317 0.48345 0.0
H484 H 0.75665 0.31322 0.51323 0.0
C485 C 0.74806 0.25694 0.5069 0.0
C486 C 0.47094 0.97272 0.26423 0.0
C487 C 0.45145 0.96127 0.24628 0.0
H488 H 0.48565 0.00364 0.29261 0.0
C489 C 0.43106 0.97284 0.24493 0.0
H490 H 0.4869 0.96424 0.26619 0.0
C491 C 0.43034 -0.00434 0.2601 0.0
C492 C 0.44999 0.00709 0.27719 0.0
H493 H 0.41577 0.96436 0.23144 0.0
H494 H 0.41453 0.00437 0.25772 0.0
C495 C 0.47021 -0.00468 0.27965 0.0
C496 C 0.72898 0.75536 0.51107 0.0
C497 C 0.71773 0.77561 0.52134 0.0
H498 H 0.75935 0.73933 0.48384 0.0
C499 C 0.72913 0.79584 0.51144 0.0
H500 H 0.7206 0.7395 0.51787 0.0
C501 C 0.75152 0.79574 0.49201 0.0
C502 C 0.76268 0.77542 0.48157 0.0
H503 H 0.72078 0.81168 0.51878 0.0
H504 H 0.76008 0.81151 0.48521 0.0
C505 C 0.75116 0.75527 0.49111 0.0
C506 C 0.43064 0.48238 0.76387 0.0
C507 C 0.45015 0.47088 0.78163 0.0
H508 H 0.41639 0.51368 0.73425 0.0
C509 C 0.47045 0.48253 0.78445 0.0
H510 H 0.41477 0.47375 0.76119 0.0
C511 C 0.4714 0.50509 0.76864 0.0
C512 C 0.45205 0.5166 0.74994 0.0
H513 H 0.48579 0.47415 0.79795 0.0
H514 H 0.48741 0.51348 0.77087 0.0
C515 C 0.43157 0.50515 0.7483 0.0
C516 C 0.72521 0.18215 0.98975 0.0
C517 C 0.71378 0.2024 0.98078 0.0
H518 H 0.75638 0.16641 0.01311 0.0
C519 C 0.72526 0.22262 0.98957 0.0
H520 H 0.7167 0.16633 0.98347 0.0
C521 C 0.74767 0.22266 0.00721 0.0
C522 C 0.7592 0.20249 0.01593 0.0
H523 H 0.71688 0.2385 0.98337 0.0
H524 H 0.75601 0.23858 0.01346 0.0
C525 C 0.74783 0.18219 0.00689 0.0
C526 C 0.04835 0.47763 0.23832 0.0
C527 C 0.02778 0.46679 0.22898 0.0
H528 H 0.06497 0.50832 0.26249 0.0
C529 C 0.00792 0.47878 0.23805 0.0
H530 H 0.0639 0.4687 0.23185 0.0
C531 C 0.00852 0.50114 0.2563 0.0
C532 C 0.029 0.5121 0.26533 0.0
H533 H -0.00819 0.47085 0.23161 0.0
H534 H -0.00714 0.50989 0.26271 0.0
C535 C 0.04895 0.50021 0.25606 0.0
C536 C 0.25011 0.22196 0.48865 0.0
C537 C 0.26154 0.20174 0.47972 0.0
H538 H 0.21947 0.23791 0.51358 0.0
C539 C 0.25018 0.18149 0.48954 0.0
H540 H 0.25846 0.23784 0.48183 0.0
C541 C 0.22765 0.18153 0.50764 0.0
C542 C 0.21632 0.20182 0.5168 0.0
H543 H 0.25866 0.16567 0.48319 0.0
H544 H 0.21914 0.16574 0.51448 0.0
C545 C 0.22779 0.222 0.50726 0.0
C546 C 0.50359 0.47895 0.25677 0.0
C547 C 0.52349 0.46685 0.26395 0.0
H548 H 0.48847 0.51036 0.23503 0.0
C549 C 0.54398 0.47758 0.25278 0.0
H550 H 0.48753 0.47108 0.26459 0.0
C551 C 0.54452 0.50019 0.23573 0.0
C552 C 0.52457 0.51231 0.22923 0.0
H553 H 0.55957 0.46859 0.25765 0.0
H554 H 0.56053 0.50821 0.22836 0.0
C555 C 0.50412 0.50143 0.23943 0.0
C556 C 0.25034 0.75526 0.00426 0.0
C557 C 0.26264 0.77516 0.009 0.0
H558 H 0.21855 0.74016 0.98779 0.0
C559 C 0.25177 0.79567 0.9994 0.0
H560 H 0.2583 0.73919 0.01108 0.0
C561 C 0.22889 0.79623 0.98601 0.0
C562 C 0.21662 0.77628 0.98169 0.0
H563 H 0.2609 0.81126 0.00255 0.0
H564 H 0.22081 0.81225 0.97952 0.0
C565 C 0.22759 0.75581 0.9906 0.0
C566 C 0.93334 0.47843 0.7375 0.0
C567 C 0.95333 0.46655 0.72874 0.0
H568 H 0.91827 0.50994 0.76101 0.0
C569 C 0.97377 0.47755 0.73813 0.0
H570 H 0.91735 0.4703 0.73078 0.0
C571 C 0.97429 0.49994 0.75613 0.0
C572 C 0.95438 0.51192 0.76459 0.0
H573 H -0.01054 0.4688 0.73212 0.0
H574 H -0.00964 0.50791 0.76282 0.0
C575 C 0.93386 0.50103 0.75499 0.0
C576 C 0.14145 0.225 0.8556 0.0
C577 C 0.1373 0.24771 0.86732 0.0
H578 H 0.14724 0.19957 0.78465 0.0
C579 C 0.13435 0.2622 0.81423 0.0
H580 H 0.14391 0.21347 0.8955 0.0
C581 C 0.1361 0.25419 0.75053 0.0
C582 C 0.14121 0.23166 0.73903 0.0
H583 H 0.13118 0.27981 0.82193 0.0
H584 H 0.1341 0.26573 0.71044 0.0
C585 C 0.14355 0.2171 0.79211 0.0
C586 C 0.01032 0.89567 0.04456 0.0
C587 C -0.00421 0.89292 0.99157 0.0
H588 H 0.014 0.89631 0.14791 0.0
C589 C 0.97338 0.88739 0.00324 0.0
H590 H 0.02776 0.89968 0.03696 0.0
C591 C 0.96544 0.88563 0.06702 0.0
C592 C 0.97989 0.88897 0.12001 0.0
H593 H 0.96187 0.88507 0.96321 0.0
H594 H 0.94791 0.88213 0.07485 0.0
C595 C 0.00249 0.89354 0.10811 0.0
C596 C 0.33605 0.75008 0.34342 0.0
C597 C 0.33901 0.72715 0.35458 0.0
H598 H 0.33198 0.77605 0.27306 0.0
C599 C 0.34149 0.71274 0.30105 0.0
H600 H 0.33399 0.76158 0.38362 0.0
C601 C 0.34058 0.72108 0.23752 0.0
C602 C 0.33674 0.74389 0.22653 0.0
H603 H 0.34377 0.69497 0.30826 0.0
H604 H 0.34224 0.7096 0.19711 0.0
C605 C 0.33474 0.75833 0.28008 0.0
C606 C 0.47217 0.08743 0.60343 0.0
C607 C 0.49495 0.09128 0.61464 0.0
H608 H 0.44661 0.08122 0.53323 0.0
C609 C 0.50942 0.09348 0.56116 0.0
H610 H 0.46064 0.08555 0.64361 0.0
C611 C 0.50134 0.09112 0.49769 0.0
C612 C 0.47875 0.08617 0.48683 0.0
H613 H 0.52709 0.0964 0.56841 0.0
H614 H 0.51289 0.09243 0.45737 0.0
C615 C 0.46419 0.08474 0.54021 0.0
C616 C 0.13608 0.72573 0.76737 0.0
C617 C 0.13873 0.74867 0.77912 0.0
H618 H 0.13314 0.69991 0.69547 0.0
C619 C 0.13848 0.76354 0.72627 0.0
H620 H 0.13612 0.71393 0.80725 0.0
C621 C 0.13644 0.75564 0.6628 0.0
C622 C 0.13486 0.73265 0.65057 0.0
H623 H 0.14021 0.78136 0.73382 0.0
H624 H 0.13694 0.76754 0.62319 0.0
C625 C 0.13432 0.71775 0.70349 0.0
C626 C 0.50234 0.90805 0.0019 0.0
C627 C 0.49044 0.88984 0.02681 0.0
H628 H 0.51924 0.92206 0.91991 0.0
C629 C 0.4865 0.87116 0.98706 0.0
H630 H 0.50536 0.92268 0.03166 0.0
C631 C 0.49367 0.87113 0.9222 0.0
C632 C 0.50556 0.88944 0.89732 0.0
H633 H 0.47702 0.85707 0.00528 0.0
H634 H 0.48992 0.8569 0.89157 0.0
C635 C 0.51022 0.90768 0.93812 0.0
C636 C 0.34445 0.26175 0.18162 0.0
C637 C 0.3409 0.2474 0.12844 0.0
H638 H 0.3452 0.26515 0.28549 0.0
C639 C 0.33621 0.2248 0.1401 0.0
H640 H 0.34804 0.27928 0.17401 0.0
C641 C 0.33414 0.21687 0.20359 0.0
C642 C 0.33707 0.2313 0.25679 0.0
H643 H 0.33328 0.21337 0.10018 0.0
H644 H 0.33001 0.19944 0.21098 0.0
C645 C 0.34275 0.25371 0.24533 0.0
C646 C 0.00878 0.08606 0.45697 0.0
C647 C -0.00571 0.08856 0.51017 0.0
H648 H 0.01232 0.08549 0.35356 0.0
C649 C 0.97179 0.09376 0.4988 0.0
H650 H 0.02628 0.08229 0.46433 0.0
C651 C 0.96373 0.09542 0.43512 0.0
C652 C 0.97815 0.0923 0.38192 0.0
H653 H 0.9603 0.09587 0.53898 0.0
H654 H 0.94614 0.09864 0.42753 0.0
C655 C 0.00083 0.08809 0.39352 0.0
C656 C 0.83795 0.75196 0.14095 0.0
C657 C 0.84253 0.72932 0.12939 0.0
H658 H 0.83161 0.77733 0.21172 0.0
C659 C 0.84568 0.71493 0.18262 0.0
H660 H 0.83531 0.76341 0.10096 0.0
C661 C 0.84372 0.72296 0.24627 0.0
C662 C 0.83819 0.7454 0.2576 0.0
H663 H 0.84917 0.69738 0.17506 0.0
H664 H 0.8459 0.71149 0.28645 0.0
C665 C 0.83563 0.75987 0.20439 0.0
C666 C 0.00244 0.09356 0.99873 0.0
C667 C 0.98001 0.08805 0.01023 0.0
H668 H 0.02799 0.09879 0.92736 0.0
C669 C 0.96554 0.08531 0.95709 0.0
H670 H 0.01391 0.09587 0.03886 0.0
C671 C 0.97344 0.08742 0.89359 0.0
C672 C -0.00394 0.09198 0.88188 0.0
H673 H 0.94809 0.08131 0.96452 0.0
H674 H 0.96198 0.08465 0.85369 0.0
C675 C 0.01045 0.09531 0.93502 0.0
C676 C 0.6392 0.226 0.64351 0.0
C677 C 0.6352 0.24875 0.6321 0.0
H678 H 0.64466 0.20039 0.7141 0.0
C679 C 0.63221 0.26314 0.68544 0.0
H680 H 0.64168 0.21452 0.60344 0.0
C681 C 0.63375 0.25499 0.74906 0.0
C682 C 0.63868 0.2324 0.76026 0.0
H683 H 0.62915 0.28078 0.67803 0.0
H684 H 0.63172 0.26646 0.78933 0.0
C685 C 0.64109 0.21795 0.7069 0.0
C686 C 0.50336 0.88509 0.40437 0.0
C687 C 0.4804 0.88299 0.39244 0.0
H688 H 0.52906 0.88971 0.47496 0.0
C689 C 0.46559 0.88244 0.44555 0.0
H690 H 0.51519 0.88563 0.36461 0.0
C691 C 0.47358 0.8847 0.50926 0.0
C692 C 0.49647 0.88784 0.52068 0.0
H693 H 0.44778 0.88089 0.43778 0.0
H694 H 0.46183 0.8847 0.54925 0.0
C695 C 0.51127 0.88761 0.46767 0.0
C696 C 0.83228 0.21824 0.28981 0.0
C697 C 0.83464 0.23271 0.23651 0.0
H698 H 0.83186 0.21477 0.39326 0.0
C699 C 0.83972 0.25527 0.24777 0.0
H700 H 0.8286 0.20069 0.28257 0.0
C701 C 0.84141 0.26339 0.3114 0.0
C702 C 0.83845 0.24898 0.3647 0.0
H703 H 0.84173 0.26675 0.20753 0.0
H704 H 0.84456 0.28102 0.31888 0.0
C705 C 0.83433 0.22625 0.35322 0.0
C706 C 0.46243 0.08976 0.06232 0.0
C707 C 0.47691 0.08633 0.11518 0.0
H708 H 0.45898 0.09141 0.95859 0.0
C709 C 0.49964 0.08253 0.10315 0.0
H710 H 0.4448 0.0927 0.07025 0.0
C711 C 0.50761 0.08137 0.03951 0.0
C712 C 0.49309 0.08433 0.98659 0.0
H713 H 0.51117 0.07973 0.14284 0.0
H714 H 0.52517 0.07799 0.03177 0.0
C715 C 0.4705 0.08898 0.99851 0.0
C716 C 0.64446 0.75279 0.86336 0.0
C717 C 0.6397 0.73021 0.87532 0.0
H718 H 0.65057 0.77804 0.79213 0.0
C719 C 0.63599 0.71581 0.82238 0.0
H720 H 0.64751 0.76425 0.9031 0.0
C721 C 0.63758 0.72376 0.75858 0.0
C722 C 0.64331 0.74613 0.7468 0.0
H723 H 0.63234 0.6983 0.83025 0.0
H724 H 0.63498 0.71229 0.71859 0.0
C725 C 0.6464 0.76062 0.79977 0.0
C726 C 0.0044 0.88698 0.50322 0.0
C727 C 0.98184 0.89193 0.49187 0.0
H728 H 0.03008 0.88223 0.57448 0.0
C729 C 0.96729 0.89403 0.54505 0.0
H730 H 0.01594 0.88516 0.46305 0.0
C731 C 0.97522 0.89192 0.60848 0.0
C732 C -0.00204 0.88799 0.6201 0.0
H733 H 0.94974 0.89758 0.53771 0.0
H734 H 0.96368 0.89424 0.64843 0.0
C735 C 0.01244 0.88522 0.5669 0.0
C736 C 0.64383 0.72533 0.3631 0.0
C737 C 0.63903 0.74791 0.37486 0.0
H738 H 0.65052 0.70011 0.29217 0.0
C739 C 0.63582 0.76233 0.32175 0.0
H740 H 0.64652 0.71385 0.40299 0.0
C741 C 0.63795 0.75441 0.25803 0.0
C742 C 0.64374 0.73204 0.24653 0.0
H743 H 0.63215 0.77985 0.32945 0.0
H744 H 0.63572 0.76591 0.21793 0.0
C745 C 0.64633 0.71753 0.29962 0.0
C746 C 0.49933 0.39591 0.60734 0.0
C747 C 0.4766 0.39205 0.61929 0.0
H748 H 0.52486 0.40067 0.53604 0.0
C749 C 0.46211 0.38874 0.56638 0.0
H750 H 0.51086 0.39865 0.64709 0.0
C751 C 0.47018 0.38968 0.50259 0.0
C752 C 0.49277 0.39438 0.49076 0.0
H753 H 0.44449 0.38575 0.57426 0.0
H754 H 0.45866 0.38733 0.46263 0.0
C755 C 0.5073 0.39725 0.54373 0.0
C756 C 0.83237 0.26153 0.7899 0.0
C757 C 0.83474 0.24705 0.73658 0.0
H758 H 0.83184 0.26499 0.89335 0.0
C759 C 0.83971 0.22448 0.74782 0.0
H760 H 0.82878 0.27908 0.78268 0.0
C761 C 0.84129 0.21635 0.81145 0.0
C762 C 0.83832 0.23076 0.86476 0.0
H763 H 0.84172 0.21299 0.70757 0.0
H764 H 0.84437 0.19871 0.8189 0.0
C765 C 0.83431 0.2535 0.85331 0.0
C766 C 0.97957 0.58693 0.10255 0.0
C767 C 0.00231 0.59095 0.11383 0.0
H768 H 0.95395 0.5813 0.03208 0.0
C769 C 0.01668 0.59383 0.06041 0.0
H770 H 0.96812 0.58451 0.14268 0.0
C771 C 0.00851 0.59219 0.99684 0.0
C772 C 0.98593 0.58722 0.98577 0.0
H773 H 0.03432 0.59691 0.06774 0.0
H774 H 0.01995 0.59416 0.9565 0.0
C775 C 0.9715 0.5849 0.03919 0.0
C776 C 0.64088 0.26131 0.20689 0.0
C777 C 0.63863 0.24685 0.26027 0.0
H778 H 0.64122 0.26473 0.10343 0.0
C779 C 0.63371 0.22425 0.24911 0.0
H780 H 0.64444 0.27888 0.21406 0.0
C781 C 0.63205 0.21609 0.18551 0.0
C782 C 0.63488 0.23048 0.13214 0.0
H783 H 0.63181 0.21277 0.2894 0.0
H784 H 0.62901 0.19843 0.17813 0.0
C785 C 0.63885 0.25325 0.14352 0.0
C786 C 0.96705 0.3944 0.45376 0.0
C787 C 0.98144 0.39129 0.50689 0.0
H788 H 0.9636 0.39558 0.35037 0.0
C789 C 0.00383 0.38565 0.49533 0.0
H790 H 0.94964 0.39853 0.46122 0.0
C791 C 0.01189 0.38413 0.43161 0.0
C792 C -0.00242 0.38784 0.37851 0.0
H793 H 0.01524 0.38307 0.53543 0.0
H794 H 0.0294 0.38053 0.42393 0.0
C795 C 0.97499 0.39254 0.39024 0.0
C796 C 0.83547 0.71642 0.70429 0.0
C797 C 0.83835 0.7309 0.75739 0.0
H798 H 0.83448 0.71287 0.6009 0.0
C799 C 0.84373 0.75337 0.7458 0.0
H800 H 0.83156 0.69894 0.71179 0.0
C801 C 0.84524 0.7614 0.68207 0.0
C802 C 0.84179 0.74699 0.629 0.0
H803 H 0.84613 0.76485 0.78588 0.0
H804 H 0.84865 0.77897 0.67436 0.0
C805 C 0.83734 0.72434 0.64076 0.0
C806 C 0.51217 0.59113 0.97035 0.0
C807 C 0.49733 0.59098 0.02327 0.0
H808 H 0.51616 0.59292 0.86728 0.0
C809 C 0.47447 0.59417 0.01171 0.0
H810 H 0.52995 0.58899 0.97776 0.0
C811 C 0.46652 0.59633 0.94792 0.0
C812 C 0.48136 0.59564 0.89489 0.0
H813 H 0.46269 0.59424 0.05163 0.0
H814 H 0.44871 0.59787 0.94003 0.0
C815 C 0.5043 0.59355 0.90697 0.0
C816 C 0.33613 0.25235 0.64013 0.0
C817 C 0.34089 0.22976 0.62842 0.0
H818 H 0.32986 0.27769 0.71105 0.0
C819 C 0.34447 0.21544 0.68158 0.0
H820 H 0.33316 0.26376 0.60022 0.0
C821 C 0.34276 0.22348 0.7453 0.0
C822 C 0.33702 0.24587 0.7568 0.0
H823 H 0.34811 0.19792 0.67393 0.0
H824 H 0.34525 0.21206 0.78544 0.0
C825 C 0.33404 0.26027 0.70363 0.0
C826 C 0.48715 0.60722 0.48993 0.0
C827 C 0.49197 0.58889 0.53017 0.0
H828 H 0.48979 0.62128 0.39401 0.0
C829 C 0.50471 0.57119 0.50564 0.0
H830 H 0.47705 0.62091 0.5078 0.0
C831 C 0.51247 0.5717 0.44174 0.0
C832 C 0.50691 0.58953 0.40044 0.0
H833 H 0.50846 0.55683 0.53574 0.0
H834 H 0.52211 0.55768 0.42385 0.0
C835 C 0.49425 0.60736 0.42499 0.0
C836 C 0.12206 0.73827 0.24536 0.0
C837 C 0.13997 0.74396 0.28624 0.0
H838 H 0.1083 0.74021 0.14897 0.0
C839 C 0.15708 0.75765 0.26244 0.0
H840 H 0.10884 0.72745 0.26267 0.0
C841 C 0.15645 0.76541 0.19855 0.0
C842 C 0.13912 0.75893 0.15656 0.0
H843 H 0.17111 0.76209 0.29304 0.0
H844 H 0.17005 0.77574 0.1812 0.0
C845 C 0.12183 0.7454 0.18048 0.0
C846 C 0.96525 0.38466 0.93243 0.0
C847 C 0.97968 0.38739 0.87908 0.0
H848 H 0.96187 0.38462 0.03631 0.0
C849 C 0.00242 0.3914 0.89048 0.0
H850 H 0.94762 0.38161 0.92502 0.0
C851 C 0.01043 0.39357 0.95385 0.0
C852 C -0.00406 0.39144 0.00719 0.0
H853 H 0.01392 0.39371 0.8504 0.0
H854 H 0.02798 0.39716 0.96103 0.0
C855 C 0.97337 0.38646 0.99603 0.0
C856 C 0.33893 0.72294 0.84376 0.0
C857 C 0.3421 0.74586 0.85465 0.0
H858 H 0.33396 0.69698 0.77382 0.0
C859 C 0.34428 0.76022 0.80092 0.0
H860 H 0.3371 0.71147 0.88412 0.0
C861 C 0.34265 0.75187 0.7375 0.0
C862 C 0.33845 0.72909 0.72686 0.0
H863 H 0.34671 0.77799 0.80788 0.0
H864 H 0.34395 0.76334 0.69698 0.0
C865 C 0.33697 0.71467 0.78057 0.0
C866 C 0.97006 0.59434 0.56112 0.0
C867 C 0.98434 0.59096 0.61445 0.0
H868 H 0.9668 0.59513 0.45725 0.0
C869 C 0.00701 0.58655 0.603 0.0
H870 H 0.95248 0.59772 0.56854 0.0
C871 C 0.01506 0.58466 0.53957 0.0
C872 C 0.0007 0.58746 0.48621 0.0
H873 H 0.0184 0.58376 0.64304 0.0
H874 H 0.03254 0.58077 0.53234 0.0
C875 C 0.97821 0.59279 0.4975 0.0
C876 C 0.13582 0.22338 0.25054 0.0
C877 C 0.14095 0.24591 0.23908 0.0
H878 H 0.13101 0.19773 0.3219 0.0
C879 C 0.14339 0.26046 0.2922 0.0
H880 H 0.13376 0.21185 0.21042 0.0
C881 C 0.14138 0.25254 0.35568 0.0
C882 C 0.13724 0.22982 0.36735 0.0
H883 H 0.14709 0.27798 0.28476 0.0
H884 H 0.14392 0.26406 0.39559 0.0
C885 C 0.13418 0.21535 0.31424 0.0
C886 C 0.50891 0.38493 0.06573 0.0
C887 C 0.49446 0.38733 0.11916 0.0
H888 H 0.51236 0.38564 0.96192 0.0
C889 C 0.47169 0.39118 0.1079 0.0
H890 H 0.52656 0.38199 0.07302 0.0
C891 C 0.4637 0.39367 0.04463 0.0
C892 C 0.47825 0.39205 0.99127 0.0
H893 H 0.46017 0.3932 0.14805 0.0
H894 H 0.44614 0.39721 0.03758 0.0
C895 C 0.50083 0.38709 0.00222 0.0
C896 C 0.10855 0.34315 0.11077 0.0
C897 C 0.10194 0.32107 0.09814 0.0
H898 H 0.09865 0.37556 0.14408 0.0
C899 C 0.07981 0.31464 0.11055 0.0
H900 H 0.12556 0.34849 0.10203 0.0
C901 C 0.06456 0.32998 0.13529 0.0
C902 C 0.07111 0.35208 0.14779 0.0
H903 H 0.0743 0.29767 0.10175 0.0
H904 H 0.04757 0.32456 0.14402 0.0
C905 C 0.09322 0.35857 0.13526 0.0
C906 C 0.89862 0.81489 0.38625 0.0
C907 C 0.87646 0.8211 0.39876 0.0
H908 H 0.93079 0.82516 0.3531 0.0
C909 C 0.86969 0.84316 0.38662 0.0
H910 H 0.90426 0.79794 0.39468 0.0
C911 C 0.88492 0.85877 0.36255 0.0
C912 C 0.90708 0.8525 0.34995 0.0
H913 H 0.85264 0.84833 0.39546 0.0
H914 H 0.87937 0.87575 0.35413 0.0
C915 C 0.91378 0.83042 0.3619 0.0
C916 C 0.37063 0.63193 0.59683 0.0
C917 C 0.37632 0.65432 0.58467 0.0
H918 H 0.38157 0.60018 0.63342 0.0
C919 C 0.39789 0.66182 0.59978 0.0
H920 H 0.35405 0.62576 0.5859 0.0
C921 C 0.41333 0.64744 0.62792 0.0
C922 C 0.40765 0.62514 0.64087 0.0
H923 H 0.40276 0.67901 0.59132 0.0
H924 H 0.42978 0.65384 0.63937 0.0
C925 C 0.38627 0.61737 0.62434 0.0
C926 C 0.60559 0.13508 0.88623 0.0
C927 C 0.59902 0.15708 0.90015 0.0
H928 H 0.59566 0.1029 0.85101 0.0
C929 C 0.57688 0.16355 0.88835 0.0
H930 H 0.62261 0.1297 0.89446 0.0
C931 C 0.56159 0.14836 0.86282 0.0
C932 C 0.56811 0.12636 0.84887 0.0
H933 H 0.57138 0.18045 0.89817 0.0
H934 H 0.54459 0.15382 0.85452 0.0
C935 C 0.59023 0.11981 0.86091 0.0
C936 C 0.09765 0.62205 0.35382 0.0
C937 C 0.07507 0.62755 0.34451 0.0
H938 H 0.12974 0.6332 0.38716 0.0
C939 C 0.06754 0.64892 0.3618 0.0
H940 H 0.10384 0.60563 0.34114 0.0
C941 C 0.08212 0.66438 0.38905 0.0
C942 C 0.10464 0.65893 0.3989 0.0
H943 H 0.05021 0.65362 0.35558 0.0
H944 H 0.0757 0.68069 0.40211 0.0
C945 C 0.1124 0.63773 0.38043 0.0
C946 C 0.58238 0.81439 0.62655 0.0
C947 C 0.60405 0.82116 0.60979 0.0
H948 H 0.55066 0.82393 0.66471 0.0
C949 C 0.61045 0.84346 0.61988 0.0
H950 H 0.57705 0.79725 0.61992 0.0
C951 C 0.59529 0.85879 0.64576 0.0
C952 C 0.5736 0.85197 0.66238 0.0
H953 H 0.62715 0.84905 0.60781 0.0
H954 H 0.60048 0.87598 0.65222 0.0
C955 C 0.56733 0.82962 0.65283 0.0
C956 C 0.41116 0.3324 0.85746 0.0
C957 C 0.40417 0.35452 0.84755 0.0
H958 H 0.40228 0.29961 0.88901 0.0
C959 C 0.38209 0.36048 0.86236 0.0
H960 H 0.42814 0.32736 0.84694 0.0
C961 C 0.36724 0.34453 0.8867 0.0
C962 C 0.37433 0.32246 0.89697 0.0
H963 H 0.37633 0.37747 0.85558 0.0
H964 H 0.35024 0.34947 0.89735 0.0
C965 C 0.39641 0.31655 0.88212 0.0
C966 C 0.86732 0.1354 0.11025 0.0
C967 C 0.87382 0.15748 0.09712 0.0
H968 H 0.87732 0.10319 0.14497 0.0
C969 C 0.89585 0.16411 0.11005 0.0
H970 H 0.85038 0.12991 0.10113 0.0
C971 C 0.9111 0.14898 0.13586 0.0
C972 C 0.90467 0.12689 0.14891 0.0
H973 H 0.90129 0.18107 0.1009 0.0
H974 H 0.92802 0.15457 0.14498 0.0
C975 C 0.88266 0.12018 0.13579 0.0
C976 C 0.90084 0.66319 0.88488 0.0
C977 C 0.8788 0.65643 0.89722 0.0
H978 H 0.9332 0.65384 0.85089 0.0
C979 C 0.87249 0.6343 0.8839 0.0
H980 H 0.90613 0.6802 0.8942 0.0
C981 C 0.88802 0.61919 0.85881 0.0
C982 C 0.91004 0.62602 0.84634 0.0
H983 H 0.85556 0.6287 0.89256 0.0
H984 H 0.88281 0.60216 0.84948 0.0
C985 C 0.91629 0.64815 0.85953 0.0
C986 C 0.07934 0.16402 0.61152 0.0
C987 C 0.10135 0.1572 0.59909 0.0
H988 H 0.04698 0.15474 0.64564 0.0
C989 C 0.1076 0.13507 0.61237 0.0
H990 H 0.0741 0.18103 0.60224 0.0
C991 C 0.09204 0.11999 0.63753 0.0
C992 C 0.07006 0.12688 0.65007 0.0
H993 H 0.12452 0.12944 0.60365 0.0
H994 H 0.0972 0.10295 0.64683 0.0
C995 C 0.06387 0.14902 0.63693 0.0
C996 C 0.5901 0.35935 0.36354 0.0
C997 C 0.56795 0.35275 0.35211 0.0
H998 H 0.62263 0.34953 0.39585 0.0
C999 C 0.56152 0.33071 0.36593 0.0
H1000 H 0.59546 0.3763 0.35371 0.0
C1001 C 0.57694 0.31553 0.39069 0.0
C1002 C 0.59912 0.32206 0.40184 0.0
H1003 H 0.54451 0.3252 0.35808 0.0
H1004 H 0.57152 0.29859 0.40041 0.0
C1005 C 0.60559 0.3441 0.38809 0.0
C1006 C 0.39904 0.81279 0.10406 0.0
C1007 C 0.37743 0.81969 0.08714 0.0
H1008 H 0.43058 0.82193 0.14407 0.0
C1009 C 0.37124 0.84207 0.09708 0.0
H1010 H 0.40425 0.79563 0.09734 0.0
C1011 C 0.38643 0.85726 0.12394 0.0
C1012 C 0.40791 0.85017 0.14185 0.0
H1013 H 0.35463 0.84779 0.08473 0.0
H1014 H 0.38134 0.87444 0.1311 0.0
C1015 C 0.41406 0.82784 0.13138 0.0
C1016 C 0.88379 0.35937 0.63466 0.0
C1017 C 0.90581 0.35257 0.6472 0.0
H1018 H 0.85133 0.34977 0.60098 0.0
C1019 C 0.91204 0.33042 0.63418 0.0
H1020 H 0.87859 0.3764 0.64384 0.0
C1021 C 0.8966 0.31534 0.60895 0.0
C1022 C 0.87457 0.32206 0.59655 0.0
H1023 H 0.92895 0.32476 0.64287 0.0
H1024 H 0.9019 0.29833 0.59978 0.0
C1025 C 0.86826 0.3442 0.60969 0.0
C1026 C 0.39658 0.161 0.38093 0.0
C1027 C 0.37453 0.15496 0.39581 0.0
H1028 H 0.42829 0.15045 0.34503 0.0
C1029 C 0.36748 0.1329 0.38488 0.0
H1030 H 0.40242 0.17794 0.38832 0.0
C1031 C 0.38234 0.1171 0.35983 0.0
C1032 C 0.40439 0.1232 0.34496 0.0
H1033 H 0.35051 0.12786 0.39552 0.0
H1034 H 0.37661 0.10012 0.35253 0.0
C1035 C 0.41133 0.1453 0.35556 0.0
C1036 C 0.61146 0.63478 0.1211 0.0
C1037 C 0.60515 0.65706 0.11043 0.0
H1038 H 0.60135 0.60239 0.1543 0.0
C1039 C 0.5835 0.66394 0.12701 0.0
H1040 H 0.62813 0.6291 0.10918 0.0
C1041 C 0.56839 0.64885 0.15371 0.0
C1042 C 0.57457 0.62652 0.16386 0.0
H1043 H 0.57824 0.68108 0.11994 0.0
H1044 H 0.55174 0.65463 0.16545 0.0
C1045 C 0.59623 0.61957 0.14738 0.0
C1046 C 0.09326 0.86154 0.87032 0.0
C1047 C 0.0712 0.85473 0.85847 0.0
H1048 H 0.1255 0.8523 0.90641 0.0
C1049 C 0.06457 0.83305 0.87583 0.0
H1050 H 0.09874 0.87826 0.85786 0.0
C1051 C 0.0797 0.81843 0.9045 0.0
C1052 C 0.10181 0.82512 0.9159 0.0
H1053 H 0.04762 0.82742 0.8679 0.0
H1054 H 0.07411 0.80174 0.91679 0.0
C1055 C 0.1085 0.8468 0.89861 0.0
loop_
_geom_bond_atom_site_label_1
_geom_bond_atom_site_label_2
_geom_bond_distance
_geom_bond_site_symmetry_2
_ccdc_geom_bond_type
In0 O1 2.294 . S
In0 O2 2.326 . S
In0 O6 2.266 1_554 S
In0 O7 2.326 1_554 S
In0 O8 2.266 . S
In0 O9 2.326 . S
In0 O11 2.294 . S
In0 O12 2.326 . S
O1 In0 2.294 . S
O1 C10 1.240 . S
O2 In0 2.326 . S
O2 C10 1.252 . S
C3 O6 1.252 . S
C3 O7 1.260 . S
C4 O11 1.240 . S
C4 O12 1.252 . S
C5 O8 1.252 . S
C5 O9 1.260 . S
O6 In0 2.266 1_556 S
O6 C3 1.252 . S
O7 In0 2.326 1_556 S
O7 C3 1.260 . S
O8 In0 2.266 . S
O8 C5 1.252 . S
O9 In0 2.326 . S
O9 C5 1.260 . S
C10 O1 1.240 . S
C10 O2 1.252 . S
O11 In0 2.294 . S
O11 C4 1.240 . S
O12 In0 2.326 . S
O12 C4 1.252 . S
In13 O14 2.294 . S
In13 O15 2.326 . S
In13 O19 2.266 . S
In13 O20 2.326 . S
In13 O21 2.275 . S
In13 O22 2.326 . S
In13 O24 2.294 . S
In13 O25 2.326 . S
O14 In13 2.294 . S
O14 C23 1.240 . S
O15 In13 2.326 . S
O15 C23 1.252 . S
C16 O19 1.252 . S
C16 O20 1.260 . S
C17 O24 1.240 . S
C17 O25 1.252 . S
C18 O21 1.259 . S
C18 O22 1.260 . S
O19 In13 2.266 . S
O19 C16 1.252 . S
O20 In13 2.326 . S
O20 C16 1.260 . S
O21 In13 2.275 . S
O21 C18 1.259 . S
O22 In13 2.326 . S
O22 C18 1.260 . S
C23 O14 1.240 . S
C23 O15 1.252 . S
O24 In13 2.294 . S
O24 C17 1.240 . S
O25 In13 2.326 . S
O25 C17 1.252 . S
In26 O27 2.294 . S
In26 O28 2.326 . S
In26 O32 2.266 . S
In26 O33 2.326 . S
In26 O34 2.266 . S
In26 O35 2.326 . S
In26 O37 2.294 . S
In26 O38 2.326 . S
O27 In26 2.294 . S
O27 C36 1.240 . S
O28 In26 2.326 . S
O28 C36 1.252 . S
C29 O32 1.252 . S
C29 O33 1.260 . S
C30 O37 1.240 . S
C30 O38 1.252 . S
C31 O34 1.252 . S
C31 O35 1.260 . S
O32 In26 2.266 . S
O32 C29 1.252 . S
O33 In26 2.326 . S
O33 C29 1.260 . S
O34 In26 2.266 . S
O34 C31 1.252 . S
O35 In26 2.326 . S
O35 C31 1.260 . S
C36 O27 1.240 . S
C36 O28 1.252 . S
O37 In26 2.294 . S
O37 C30 1.240 . S
O38 In26 2.326 . S
O38 C30 1.252 . S
In39 O40 2.294 . S
In39 O41 2.326 . S
In39 O45 2.266 . S
In39 O46 2.326 . S
In39 O47 2.266 . S
In39 O48 2.326 . S
In39 O50 2.294 . S
In39 O51 2.326 . S
O40 In39 2.294 . S
O40 C49 1.240 . S
O41 In39 2.326 . S
O41 C49 1.252 . S
C42 O45 1.252 . S
C42 O46 1.260 . S
C43 O50 1.240 . S
C43 O51 1.252 . S
C44 O47 1.252 . S
C44 O48 1.260 . S
O45 In39 2.266 . S
O45 C42 1.252 . S
O46 In39 2.326 . S
O46 C42 1.260 . S
O47 In39 2.266 . S
O47 C44 1.252 . S
O48 In39 2.326 . S
O48 C44 1.260 . S
C49 O40 1.240 . S
C49 O41 1.252 . S
O50 In39 2.294 . S
O50 C43 1.240 . S
O51 In39 2.326 . S
O51 C43 1.252 . S
In52 O53 2.294 . S
In52 O54 2.326 . S
In52 O58 2.266 . S
In52 O59 2.326 . S
In52 O60 2.266 . S
In52 O61 2.326 . S
In52 O63 2.294 . S
In52 O64 2.326 . S
O53 In52 2.294 . S
O53 C62 1.240 . S
O54 In52 2.326 . S
O54 C62 1.252 . S
C55 O58 1.252 . S
C55 O59 1.260 . S
C56 O63 1.240 . S
C56 O64 1.252 . S
C57 O60 1.252 . S
C57 O61 1.260 . S
O58 In52 2.266 . S
O58 C55 1.252 . S
O59 In52 2.326 . S
O59 C55 1.260 . S
O60 In52 2.266 . S
O60 C57 1.252 . S
O61 In52 2.326 . S
O61 C57 1.260 . S
C62 O53 1.240 . S
C62 O54 1.252 . S
O63 In52 2.294 . S
O63 C56 1.240 . S
O64 In52 2.326 . S
O64 C56 1.252 . S
In65 O66 2.294 . S
In65 O67 2.326 . S
In65 O71 2.266 . S
In65 O72 2.326 . S
In65 O73 2.266 . S
In65 O74 2.326 . S
In65 O76 2.294 . S
In65 O77 2.326 . S
O66 In65 2.294 . S
O66 C75 1.240 . S
O67 In65 2.326 . S
O67 C75 1.252 . S
C68 O71 1.252 . S
C68 O72 1.260 . S
C69 O76 1.240 . S
C69 O77 1.252 . S
C70 O73 1.252 . S
C70 O74 1.260 . S
O71 In65 2.266 . S
O71 C68 1.252 . S
O72 In65 2.326 . S
O72 C68 1.260 . S
O73 In65 2.266 . S
O73 C70 1.252 . S
O74 In65 2.326 . S
O74 C70 1.260 . S
C75 O66 1.240 . S
C75 O67 1.252 . S
O76 In65 2.294 . S
O76 C69 1.240 . S
O77 In65 2.326 . S
O77 C69 1.252 . S
In78 O79 2.294 . S
In78 O80 2.326 . S
In78 O84 2.266 . S
In78 O85 2.326 . S
In78 O86 2.266 1_556 S
In78 O87 2.326 1_556 S
In78 O89 2.294 . S
In78 O90 2.326 . S
O79 In78 2.294 . S
O79 C88 1.240 . S
O80 In78 2.326 . S
O80 C88 1.252 . S
C81 O84 1.252 . S
C81 O85 1.260 . S
C82 O89 1.240 . S
C82 O90 1.252 . S
C83 O86 1.252 . S
C83 O87 1.260 . S
O84 In78 2.266 . S
O84 C81 1.252 . S
O85 In78 2.326 . S
O85 C81 1.260 . S
O86 In78 2.266 1_554 S
O86 C83 1.252 . S
O87 In78 2.326 1_554 S
O87 C83 1.260 . S
C88 O79 1.240 . S
C88 O80 1.252 . S
O89 In78 2.294 . S
O89 C82 1.240 . S
O90 In78 2.326 . S
O90 C82 1.252 . S
In91 O92 2.294 . S
In91 O93 2.326 . S
In91 O97 2.275 . S
In91 O98 2.326 . S
In91 O99 2.266 . S
In91 O100 2.326 . S
In91 O102 2.294 . S
In91 O103 2.326 . S
O92 In91 2.294 . S
O92 C101 1.240 . S
O93 In91 2.326 . S
O93 C101 1.252 . S
C94 O97 1.259 . S
C94 O98 1.260 . S
C95 O102 1.240 . S
C95 O103 1.252 . S
C96 O99 1.252 . S
C96 O100 1.260 . S
O97 In91 2.275 . S
O97 C94 1.259 . S
O98 In91 2.326 . S
O98 C94 1.260 . S
O99 In91 2.266 . S
O99 C96 1.252 . S
O100 In91 2.326 . S
O100 C96 1.260 . S
C101 O92 1.240 . S
C101 O93 1.252 . S
O102 In91 2.294 . S
O102 C95 1.240 . S
O103 In91 2.326 . S
O103 C95 1.252 . S
In104 O105 2.294 . S
In104 O106 2.326 . S
In104 O110 2.266 . S
In104 O111 2.326 . S
In104 O112 2.266 1_556 S
In104 O113 2.326 1_556 S
In104 O115 2.294 . S
In104 O116 2.326 . S
O105 In104 2.294 . S
O105 C114 1.240 . S
O106 In104 2.326 . S
O106 C114 1.252 . S
C107 O110 1.252 . S
C107 O111 1.260 . S
C108 O115 1.240 . S
C108 O116 1.252 . S
C109 O112 1.252 . S
C109 O113 1.260 . S
O110 In104 2.266 . S
O110 C107 1.252 . S
O111 In104 2.326 . S
O111 C107 1.260 . S
O112 In104 2.266 1_554 S
O112 C109 1.252 . S
O113 In104 2.326 1_554 S
O113 C109 1.260 . S
C114 O105 1.240 . S
C114 O106 1.252 . S
O115 In104 2.294 . S
O115 C108 1.240 . S
O116 In104 2.326 . S
O116 C108 1.252 . S
In117 O118 2.294 . S
In117 O119 2.326 . S
In117 O123 2.275 . S
In117 O124 2.326 . S
In117 O125 2.266 . S
In117 O126 2.326 . S
In117 O128 2.294 . S
In117 O129 2.326 . S
O118 In117 2.294 . S
O118 C127 1.240 . S
O119 In117 2.326 . S
O119 C127 1.252 . S
C120 O123 1.259 . S
C120 O124 1.260 . S
C121 O128 1.240 . S
C121 O129 1.252 . S
C122 O125 1.252 . S
C122 O126 1.260 . S
O123 In117 2.275 . S
O123 C120 1.259 . S
O124 In117 2.326 . S
O124 C120 1.260 . S
O125 In117 2.266 . S
O125 C122 1.252 . S
O126 In117 2.326 . S
O126 C122 1.260 . S
C127 O118 1.240 . S
C127 O119 1.252 . S
O128 In117 2.294 . S
O128 C121 1.240 . S
O129 In117 2.326 . S
O129 C121 1.252 . S
In130 O131 2.294 . S
In130 O132 2.326 . S
In130 O136 2.266 . S
In130 O137 2.326 . S
In130 O138 2.266 . S
In130 O139 2.326 . S
In130 O141 2.294 . S
In130 O142 2.326 . S
O131 In130 2.294 . S
O131 C140 1.240 . S
O132 In130 2.326 . S
O132 C140 1.252 . S
C133 O136 1.252 . S
C133 O137 1.260 . S
C134 O141 1.240 . S
C134 O142 1.252 . S
C135 O138 1.252 . S
C135 O139 1.260 . S
O136 In130 2.266 . S
O136 C133 1.252 . S
O137 In130 2.326 . S
O137 C133 1.260 . S
O138 In130 2.266 . S
O138 C135 1.252 . S
O139 In130 2.326 . S
O139 C135 1.260 . S
C140 O131 1.240 . S
C140 O132 1.252 . S
O141 In130 2.294 . S
O141 C134 1.240 . S
O142 In130 2.326 . S
O142 C134 1.252 . S
In143 O144 2.294 . S
In143 O145 2.326 . S
In143 O149 2.266 . S
In143 O150 2.326 . S
In143 O151 2.266 . S
In143 O152 2.326 . S
In143 O154 2.294 . S
In143 O155 2.326 . S
O144 In143 2.294 . S
O144 C153 1.240 . S
O145 In143 2.326 . S
O145 C153 1.252 . S
C146 O149 1.252 . S
C146 O150 1.260 . S
C147 O154 1.240 . S
C147 O155 1.252 . S
C148 O151 1.252 . S
C148 O152 1.260 . S
O149 In143 2.266 . S
O149 C146 1.252 . S
O150 In143 2.326 . S
O150 C146 1.260 . S
O151 In143 2.266 . S
O151 C148 1.252 . S
O152 In143 2.326 . S
O152 C148 1.260 . S
C153 O144 1.240 . S
C153 O145 1.252 . S
O154 In143 2.294 . S
O154 C147 1.240 . S
O155 In143 2.326 . S
O155 C147 1.252 . S
In156 O157 2.294 . S
In156 O158 2.326 . S
In156 O162 2.266 . S
In156 O163 2.326 . S
In156 O164 2.266 . S
In156 O165 2.326 . S
In156 O167 2.294 . S
In156 O168 2.326 . S
O157 In156 2.294 . S
O157 C166 1.240 . S
O158 In156 2.326 . S
O158 C166 1.252 . S
C159 O162 1.252 . S
C159 O163 1.260 . S
C160 O167 1.240 . S
C160 O168 1.252 . S
C161 O164 1.252 . S
C161 O165 1.260 . S
O162 In156 2.266 . S
O162 C159 1.252 . S
O163 In156 2.326 . S
O163 C159 1.260 . S
O164 In156 2.266 . S
O164 C161 1.252 . S
O165 In156 2.326 . S
O165 C161 1.260 . S
C166 O157 1.240 . S
C166 O158 1.252 . S
O167 In156 2.294 . S
O167 C160 1.240 . S
O168 In156 2.326 . S
O168 C160 1.252 . S
In169 O170 2.294 . S
In169 O171 2.326 . S
In169 O175 2.266 . S
In169 O176 2.326 . S
In169 O177 2.266 . S
In169 O178 2.326 . S
In169 O180 2.294 . S
In169 O181 2.326 . S
O170 In169 2.294 . S
O170 C179 1.240 . S
O171 In169 2.326 . S
O171 C179 1.252 . S
C172 O175 1.252 . S
C172 O176 1.260 . S
C173 O180 1.240 . S
C173 O181 1.252 . S
C174 O177 1.252 . S
C174 O178 1.260 . S
O175 In169 2.266 . S
O175 C172 1.252 . S
O176 In169 2.326 . S
O176 C172 1.260 . S
O177 In169 2.266 . S
O177 C174 1.252 . S
O178 In169 2.326 . S
O178 C174 1.260 . S
C179 O170 1.240 . S
C179 O171 1.252 . S
O180 In169 2.294 . S
O180 C173 1.240 . S
O181 In169 2.326 . S
O181 C173 1.252 . S
In182 O183 2.294 . S
In182 O184 2.326 . S
In182 O188 2.266 1_554 S
In182 O189 2.326 1_554 S
In182 O190 2.266 . S
In182 O191 2.326 . S
In182 O193 2.294 . S
In182 O194 2.326 . S
O183 In182 2.294 . S
O183 C192 1.240 . S
O184 In182 2.326 . S
O184 C192 1.252 . S
C185 O188 1.252 . S
C185 O189 1.260 . S
C186 O193 1.240 . S
C186 O194 1.252 . S
C187 O190 1.252 . S
C187 O191 1.260 . S
O188 In182 2.266 1_556 S
O188 C185 1.252 . S
O189 In182 2.326 1_556 S
O189 C185 1.260 . S
O190 In182 2.266 . S
O190 C187 1.252 . S
O191 In182 2.326 . S
O191 C187 1.260 . S
C192 O183 1.240 . S
C192 O184 1.252 . S
O193 In182 2.294 . S
O193 C186 1.240 . S
O194 In182 2.326 . S
O194 C186 1.252 . S
In195 O196 2.294 . S
In195 O197 2.326 . S
In195 O201 2.266 . S
In195 O202 2.326 . S
In195 O203 2.275 . S
In195 O204 2.326 . S
In195 O206 2.294 . S
In195 O207 2.326 . S
O196 In195 2.294 . S
O196 C205 1.240 . S
O197 In195 2.326 . S
O197 C205 1.252 . S
C198 O201 1.252 . S
C198 O202 1.260 . S
C199 O206 1.240 . S
C199 O207 1.252 . S
C200 O203 1.259 . S
C200 O204 1.260 . S
O201 In195 2.266 . S
O201 C198 1.252 . S
O202 In195 2.326 . S
O202 C198 1.260 . S
O203 In195 2.275 . S
O203 C200 1.259 . S
O204 In195 2.326 . S
O204 C200 1.260 . S
C205 O196 1.240 . S
C205 O197 1.252 . S
O206 In195 2.294 . S
O206 C199 1.240 . S
O207 In195 2.326 . S
O207 C199 1.252 . S
In208 O209 2.294 . S
In208 O210 2.326 . S
In208 O214 2.266 . S
In208 O215 2.326 . S
In208 O216 2.266 . S
In208 O217 2.326 . S
In208 O219 2.294 . S
In208 O220 2.326 . S
O209 In208 2.294 . S
O209 C218 1.240 . S
O210 In208 2.326 . S
O210 C218 1.252 . S
C211 O214 1.252 . S
C211 O215 1.260 . S
C212 O219 1.240 . S
C212 O220 1.252 . S
C213 O216 1.252 . S
C213 O217 1.260 . S
O214 In208 2.266 . S
O214 C211 1.252 . S
O215 In208 2.326 . S
O215 C211 1.260 . S
O216 In208 2.266 . S
O216 C213 1.252 . S
O217 In208 2.326 . S
O217 C213 1.260 . S
C218 O209 1.240 . S
C218 O210 1.252 . S
O219 In208 2.294 . S
O219 C212 1.240 . S
O220 In208 2.326 . S
O220 C212 1.252 . S
In221 O222 2.294 . S
In221 O223 2.326 . S
In221 O227 2.266 . S
In221 O228 2.326 . S
In221 O229 2.266 . S
In221 O230 2.326 . S
In221 O232 2.294 . S
In221 O233 2.326 . S
O222 In221 2.294 . S
O222 C231 1.240 . S
O223 In221 2.326 . S
O223 C231 1.252 . S
C224 O227 1.252 . S
C224 O228 1.260 . S
C225 O232 1.240 . S
C225 O233 1.252 . S
C226 O229 1.252 . S
C226 O230 1.260 . S
O227 In221 2.266 . S
O227 C224 1.252 . S
O228 In221 2.326 . S
O228 C224 1.260 . S
O229 In221 2.266 . S
O229 C226 1.252 . S
O230 In221 2.326 . S
O230 C226 1.260 . S
C231 O222 1.240 . S
C231 O223 1.252 . S
O232 In221 2.294 . S
O232 C225 1.240 . S
O233 In221 2.326 . S
O233 C225 1.252 . S
In234 O235 2.294 . S
In234 O236 2.326 . S
In234 O240 2.266 1_554 S
In234 O241 2.326 1_554 S
In234 O242 2.266 . S
In234 O243 2.326 . S
In234 O245 2.294 . S
In234 O246 2.326 . S
O235 In234 2.294 . S
O235 C244 1.240 . S
O236 In234 2.326 . S
O236 C244 1.252 . S
C237 O240 1.252 . S
C237 O241 1.260 . S
C238 O245 1.240 . S
C238 O246 1.252 . S
C239 O242 1.252 . S
C239 O243 1.260 . S
O240 In234 2.266 1_556 S
O240 C237 1.252 . S
O241 In234 2.326 1_556 S
O241 C237 1.260 . S
O242 In234 2.266 . S
O242 C239 1.252 . S
O243 In234 2.326 . S
O243 C239 1.260 . S
C244 O235 1.240 . S
C244 O236 1.252 . S
O245 In234 2.294 . S
O245 C238 1.240 . S
O246 In234 2.326 . S
O246 C238 1.252 . S
In247 O248 2.294 . S
In247 O249 2.326 . S
In247 O253 2.275 . S
In247 O254 2.326 . S
In247 O255 2.266 . S
In247 O256 2.326 . S
In247 O258 2.294 . S
In247 O259 2.326 . S
O248 In247 2.294 . S
O248 C257 1.240 . S
O249 In247 2.326 . S
O249 C257 1.252 . S
C250 O253 1.259 . S
C250 O254 1.260 . S
C251 O258 1.240 . S
C251 O259 1.252 . S
C252 O255 1.252 . S
C252 O256 1.260 . S
O253 In247 2.275 . S
O253 C250 1.259 . S
O254 In247 2.326 . S
O254 C250 1.260 . S
O255 In247 2.266 . S
O255 C252 1.252 . S
O256 In247 2.326 . S
O256 C252 1.260 . S
C257 O248 1.240 . S
C257 O249 1.252 . S
O258 In247 2.294 . S
O258 C251 1.240 . S
O259 In247 2.326 . S
O259 C251 1.252 . S
In260 O261 2.294 . S
In260 O262 2.326 . S
In260 O266 2.266 . S
In260 O267 2.326 . S
In260 O268 2.266 1_556 S
In260 O269 2.326 1_556 S
In260 O271 2.294 . S
In260 O272 2.326 . S
O261 In260 2.294 . S
O261 C270 1.240 . S
O262 In260 2.326 . S
O262 C270 1.252 . S
C263 O266 1.252 . S
C263 O267 1.260 . S
C264 O271 1.240 . S
C264 O272 1.252 . S
C265 O268 1.252 . S
C265 O269 1.260 . S
O266 In260 2.266 . S
O266 C263 1.252 . S
O267 In260 2.326 . S
O267 C263 1.260 . S
O268 In260 2.266 1_554 S
O268 C265 1.252 . S
O269 In260 2.326 1_554 S
O269 C265 1.260 . S
C270 O261 1.240 . S
C270 O262 1.252 . S
O271 In260 2.294 . S
O271 C264 1.240 . S
O272 In260 2.326 . S
O272 C264 1.252 . S
In273 O274 2.294 . S
In273 O275 2.326 . S
In273 O279 2.275 . S
In273 O280 2.326 . S
In273 O281 2.266 . S
In273 O282 2.326 . S
In273 O284 2.294 . S
In273 O285 2.326 . S
O274 In273 2.294 . S
O274 C283 1.240 . S
O275 In273 2.326 . S
O275 C283 1.252 . S
C276 O279 1.259 . S
C276 O280 1.260 . S
C277 O284 1.240 . S
C277 O285 1.252 . S
C278 O281 1.252 . S
C278 O282 1.260 . S
O279 In273 2.275 . S
O279 C276 1.259 . S
O280 In273 2.326 . S
O280 C276 1.260 . S
O281 In273 2.266 . S
O281 C278 1.252 . S
O282 In273 2.326 . S
O282 C278 1.260 . S
C283 O274 1.240 . S
C283 O275 1.252 . S
O284 In273 2.294 . S
O284 C277 1.240 . S
O285 In273 2.326 . S
O285 C277 1.252 . S
In286 O287 2.294 . S
In286 O288 2.326 . S
In286 O292 2.266 . S
In286 O293 2.326 . S
In286 O294 2.266 . S
In286 O295 2.326 . S
In286 O297 2.294 . S
In286 O298 2.326 . S
O287 In286 2.294 . S
O287 C296 1.240 . S
O288 In286 2.326 . S
O288 C296 1.252 . S
C289 O292 1.252 . S
C289 O293 1.260 . S
C290 O297 1.240 . S
C290 O298 1.252 . S
C291 O294 1.252 . S
C291 O295 1.260 . S
O292 In286 2.266 . S
O292 C289 1.252 . S
O293 In286 2.326 . S
O293 C289 1.260 . S
O294 In286 2.266 . S
O294 C291 1.252 . S
O295 In286 2.326 . S
O295 C291 1.260 . S
C296 O287 1.240 . S
C296 O288 1.252 . S
O297 In286 2.294 . S
O297 C290 1.240 . S
O298 In286 2.326 . S
O298 C290 1.252 . S
In299 O300 2.294 . S
In299 O301 2.326 . S
In299 O305 2.266 . S
In299 O306 2.326 . S
In299 O307 2.266 . S
In299 O308 2.326 . S
In299 O310 2.294 . S
In299 O311 2.326 . S
O300 In299 2.294 . S
O300 C309 1.240 . S
O301 In299 2.326 . S
O301 C309 1.252 . S
C302 O305 1.252 . S
C302 O306 1.260 . S
C303 O310 1.240 . S
C303 O311 1.252 . S
C304 O307 1.252 . S
C304 O308 1.260 . S
O305 In299 2.266 . S
O305 C302 1.252 . S
O306 In299 2.326 . S
O306 C302 1.260 . S
O307 In299 2.266 . S
O307 C304 1.252 . S
O308 In299 2.326 . S
O308 C304 1.260 . S
C309 O300 1.240 . S
C309 O301 1.252 . S
O310 In299 2.294 . S
O310 C303 1.240 . S
O311 In299 2.326 . S
O311 C303 1.252 . S
In312 O313 2.294 . S
In312 O314 2.326 . S
In312 O318 2.266 . S
In312 O319 2.326 . S
In312 O320 2.266 . S
In312 O321 2.326 . S
In312 O323 2.294 . S
In312 O324 2.326 . S
O313 In312 2.294 . S
O313 C322 1.240 . S
O314 In312 2.326 . S
O314 C322 1.252 . S
C315 O318 1.252 . S
C315 O319 1.260 . S
C316 O323 1.240 . S
C316 O324 1.252 . S
C317 O320 1.252 . S
C317 O321 1.260 . S
O318 In312 2.266 . S
O318 C315 1.252 . S
O319 In312 2.326 . S
O319 C315 1.260 . S
O320 In312 2.266 . S
O320 C317 1.252 . S
O321 In312 2.326 . S
O321 C317 1.260 . S
C322 O313 1.240 . S
C322 O314 1.252 . S
O323 In312 2.294 . S
O323 C316 1.240 . S
O324 In312 2.326 . S
O324 C316 1.252 . S
In325 O326 2.294 . S
In325 O327 2.326 . S
In325 O331 2.266 . S
In325 O332 2.326 . S
In325 O333 2.266 . S
In325 O334 2.326 . S
In325 O336 2.294 . S
In325 O337 2.326 . S
O326 In325 2.294 . S
O326 C335 1.240 . S
O327 In325 2.326 . S
O327 C335 1.252 . S
C328 O331 1.252 . S
C328 O332 1.260 . S
C329 O336 1.240 . S
C329 O337 1.252 . S
C330 O333 1.252 . S
C330 O334 1.260 . S
O331 In325 2.266 . S
O331 C328 1.252 . S
O332 In325 2.326 . S
O332 C328 1.260 . S
O333 In325 2.266 . S
O333 C330 1.252 . S
O334 In325 2.326 . S
O334 C330 1.260 . S
C335 O326 1.240 . S
C335 O327 1.252 . S
O336 In325 2.294 . S
O336 C329 1.240 . S
O337 In325 2.326 . S
O337 C329 1.252 . S
In338 O339 2.294 . S
In338 O340 2.326 . S
In338 O344 2.266 1_556 S
In338 O345 2.326 1_556 S
In338 O346 2.266 . S
In338 O347 2.326 . S
In338 O349 2.294 . S
In338 O350 2.326 . S
O339 In338 2.294 . S
O339 C348 1.240 . S
O340 In338 2.326 . S
O340 C348 1.252 . S
C341 O344 1.252 . S
C341 O345 1.260 . S
C342 O349 1.240 . S
C342 O350 1.252 . S
C343 O346 1.252 . S
C343 O347 1.260 . S
O344 In338 2.266 1_554 S
O344 C341 1.252 . S
O345 In338 2.326 1_554 S
O345 C341 1.260 . S
O346 In338 2.266 . S
O346 C343 1.252 . S
O347 In338 2.326 . S
O347 C343 1.260 . S
C348 O339 1.240 . S
C348 O340 1.252 . S
O349 In338 2.294 . S
O349 C342 1.240 . S
O350 In338 2.326 . S
O350 C342 1.252 . S
In351 O352 2.294 . S
In351 O353 2.326 . S
In351 O357 2.275 . S
In351 O358 2.326 . S
In351 O359 2.266 . S
In351 O360 2.326 . S
In351 O362 2.294 . S
In351 O363 2.326 . S
O352 In351 2.294 . S
O352 C361 1.240 . S
O353 In351 2.326 . S
O353 C361 1.252 . S
C354 O357 1.259 . S
C354 O358 1.260 . S
C355 O362 1.240 . S
C355 O363 1.252 . S
C356 O359 1.252 . S
C356 O360 1.260 . S
O357 In351 2.275 . S
O357 C354 1.259 . S
O358 In351 2.326 . S
O358 C354 1.260 . S
O359 In351 2.266 . S
O359 C356 1.252 . S
O360 In351 2.326 . S
O360 C356 1.260 . S
C361 O352 1.240 . S
C361 O353 1.252 . S
O362 In351 2.294 . S
O362 C355 1.240 . S
O363 In351 2.326 . S
O363 C355 1.252 . S
In364 O365 2.294 . S
In364 O366 2.326 . S
In364 O370 2.266 . S
In364 O371 2.326 . S
In364 O372 2.266 1_554 S
In364 O373 2.326 1_554 S
In364 O375 2.294 . S
In364 O376 2.326 . S
O365 In364 2.294 . S
O365 C374 1.240 . S
O366 In364 2.326 . S
O366 C374 1.252 . S
C367 O370 1.252 . S
C367 O371 1.260 . S
C368 O375 1.240 . S
C368 O376 1.252 . S
C369 O372 1.252 . S
C369 O373 1.260 . S
O370 In364 2.266 . S
O370 C367 1.252 . S
O371 In364 2.326 . S
O371 C367 1.260 . S
O372 In364 2.266 1_556 S
O372 C369 1.252 . S
O373 In364 2.326 1_556 S
O373 C369 1.260 . S
C374 O365 1.240 . S
C374 O366 1.252 . S
O375 In364 2.294 . S
O375 C368 1.240 . S
O376 In364 2.326 . S
O376 C368 1.252 . S
In377 O378 2.294 . S
In377 O379 2.326 . S
In377 O383 2.266 . S
In377 O384 2.326 . S
In377 O385 2.275 . S
In377 O386 2.326 . S
In377 O388 2.294 . S
In377 O389 2.326 . S
O378 In377 2.294 . S
O378 C387 1.240 . S
O379 In377 2.326 . S
O379 C387 1.252 . S
C380 O383 1.252 . S
C380 O384 1.260 . S
C381 O388 1.240 . S
C381 O389 1.252 . S
C382 O385 1.259 . S
C382 O386 1.260 . S
O383 In377 2.266 . S
O383 C380 1.252 . S
O384 In377 2.326 . S
O384 C380 1.260 . S
O385 In377 2.275 . S
O385 C382 1.259 . S
O386 In377 2.326 . S
O386 C382 1.260 . S
C387 O378 1.240 . S
C387 O379 1.252 . S
O388 In377 2.294 . S
O388 C381 1.240 . S
O389 In377 2.326 . S
O389 C381 1.252 . S
In390 O391 2.294 . S
In390 O392 2.326 . S
In390 O396 2.266 . S
In390 O397 2.326 . S
In390 O398 2.266 . S
In390 O399 2.326 . S
In390 O401 2.294 . S
In390 O402 2.326 . S
O391 In390 2.294 . S
O391 C400 1.240 . S
O392 In390 2.326 . S
O392 C400 1.252 . S
C393 O396 1.252 . S
C393 O397 1.260 . S
C394 O401 1.240 . S
C394 O402 1.252 . S
C395 O398 1.252 . S
C395 O399 1.260 . S
O396 In390 2.266 . S
O396 C393 1.252 . S
O397 In390 2.326 . S
O397 C393 1.260 . S
O398 In390 2.266 . S
O398 C395 1.252 . S
O399 In390 2.326 . S
O399 C395 1.260 . S
C400 O391 1.240 . S
C400 O392 1.252 . S
O401 In390 2.294 . S
O401 C394 1.240 . S
O402 In390 2.326 . S
O402 C394 1.252 . S
In403 O404 2.294 . S
In403 O405 2.326 . S
In403 O409 2.266 . S
In403 O410 2.326 . S
In403 O411 2.266 . S
In403 O412 2.326 . S
In403 O414 2.294 . S
In403 O415 2.326 . S
O404 In403 2.294 . S
O404 C413 1.240 . S
O405 In403 2.326 . S
O405 C413 1.252 . S
C406 O409 1.252 . S
C406 O410 1.260 . S
C407 O414 1.240 . S
C407 O415 1.252 . S
C408 O411 1.252 . S
C408 O412 1.260 . S
O409 In403 2.266 . S
O409 C406 1.252 . S
O410 In403 2.326 . S
O410 C406 1.260 . S
O411 In403 2.266 . S
O411 C408 1.252 . S
O412 In403 2.326 . S
O412 C408 1.260 . S
C413 O404 1.240 . S
C413 O405 1.252 . S
O414 In403 2.294 . S
O414 C407 1.240 . S
O415 In403 2.326 . S
O415 C407 1.252 . S
C416 C417 1.387 . S
C416 H420 0.950 . S
C416 C425 1.390 1_556 S
C417 C416 1.387 . S
C417 C419 1.387 . S
H418 C425 0.950 . S
C419 C417 1.387 . S
C419 C421 1.390 1_556 S
C419 H423 0.950 . S
H420 C416 0.950 . S
C421 C419 1.390 1_554 S
C421 C422 1.387 . S
C421 H424 0.950 . S
C422 C421 1.387 . S
C422 C425 1.387 . S
H423 C419 0.950 . S
H424 C421 0.950 . S
C425 C416 1.390 1_554 S
C425 H418 0.950 . S
C425 C422 1.387 . S
C426 C427 1.387 . S
C426 H430 0.950 . S
C426 C435 1.390 1_565 S
C427 C426 1.387 . S
C427 C429 1.387 . S
H428 C435 0.950 . S
C429 C427 1.387 . S
C429 C431 1.390 1_565 S
C429 H433 0.950 1_655 S
H430 C426 0.950 . S
C431 C429 1.390 1_545 S
C431 C432 1.387 . S
C431 H434 0.950 1_655 S
C432 C431 1.387 . S
C432 C435 1.387 . S
H433 C429 0.950 1_455 S
H434 C431 0.950 1_455 S
C435 C426 1.390 1_545 S
C435 H428 0.950 . S
C435 C432 1.387 . S
C436 C437 1.387 . S
C436 H440 0.950 . S
C436 C445 1.390 . S
C437 C436 1.387 . S
C437 C439 1.387 . S
H438 C445 0.950 . S
C439 C437 1.387 . S
C439 C441 1.390 . S
C439 H443 0.950 . S
H440 C436 0.950 . S
C441 C439 1.390 . S
C441 C442 1.387 . S
C441 H444 0.950 . S
C442 C441 1.387 . S
C442 C445 1.387 . S
H443 C439 0.950 . S
H444 C441 0.950 . S
C445 C436 1.390 . S
C445 H438 0.950 . S
C445 C442 1.387 . S
C446 C447 1.387 . S
C446 H450 0.950 . S
C446 C455 1.390 1_545 S
C447 C446 1.387 . S
C447 C449 1.387 . S
H448 C455 0.950 . S
C449 C447 1.387 . S
C449 C451 1.390 1_545 S
C449 H453 0.950 . S
H450 C446 0.950 . S
C451 C449 1.390 1_565 S
C451 C452 1.387 . S
C451 H454 0.950 . S
C452 C451 1.387 . S
C452 C455 1.387 . S
H453 C449 0.950 . S
H454 C451 0.950 . S
C455 C446 1.390 1_565 S
C455 H448 0.950 . S
C455 C452 1.387 . S
C456 C457 1.387 . S
C456 H460 0.950 . S
C456 C465 1.390 1_554 S
C457 C456 1.387 . S
C457 C459 1.387 . S
H458 C465 0.950 . S
C459 C457 1.387 . S
C459 C461 1.390 1_554 S
C459 H463 0.950 . S
H460 C456 0.950 . S
C461 C459 1.390 1_556 S
C461 C462 1.387 . S
C461 H464 0.950 . S
C462 C461 1.387 . S
C462 C465 1.387 . S
H463 C459 0.950 . S
H464 C461 0.950 . S
C465 C456 1.390 1_556 S
C465 H458 0.950 . S
C465 C462 1.387 . S
C466 C467 1.387 . S
C466 H470 0.950 . S
C466 C475 1.390 1_565 S
C467 C466 1.387 . S
C467 C469 1.387 . S
H468 C475 0.950 . S
C469 C467 1.387 . S
C469 C471 1.390 1_565 S
C469 H473 0.950 1_455 S
H470 C466 0.950 . S
C471 C469 1.390 1_545 S
C471 C472 1.387 . S
C471 H474 0.950 1_455 S
C472 C471 1.387 . S
C472 C475 1.387 . S
H473 C469 0.950 1_655 S
H474 C471 0.950 1_655 S
C475 C466 1.390 1_545 S
C475 H468 0.950 . S
C475 C472 1.387 . S
C476 C477 1.387 . S
C476 H480 0.950 . S
C476 C485 1.390 . S
C477 C476 1.387 . S
C477 C479 1.387 . S
H478 C485 0.950 . S
C479 C477 1.387 . S
C479 C481 1.390 . S
C479 H483 0.950 . S
H480 C476 0.950 . S
C481 C479 1.390 . S
C481 C482 1.387 . S
C481 H484 0.950 . S
C482 C481 1.387 . S
C482 C485 1.387 . S
H483 C479 0.950 . S
H484 C481 0.950 . S
C485 C476 1.390 . S
C485 H478 0.950 . S
C485 C482 1.387 . S
C486 C487 1.387 . S
C486 H490 0.950 . S
C486 C495 1.390 1_565 S
C487 C486 1.387 . S
C487 C489 1.387 . S
H488 C495 0.950 . S
C489 C487 1.387 . S
C489 C491 1.390 1_565 S
C489 H493 0.950 . S
H490 C486 0.950 . S
C491 C489 1.390 1_545 S
C491 C492 1.387 . S
C491 H494 0.950 . S
C492 C491 1.387 . S
C492 C495 1.387 . S
H493 C489 0.950 . S
H494 C491 0.950 . S
C495 C486 1.390 1_545 S
C495 H488 0.950 . S
C495 C492 1.387 . S
C496 C497 1.387 . S
C496 H500 0.950 . S
C496 C505 1.390 . S
C497 C496 1.387 . S
C497 C499 1.387 . S
H498 C505 0.950 . S
C499 C497 1.387 . S
C499 C501 1.390 . S
C499 H503 0.950 . S
H500 C496 0.950 . S
C501 C499 1.390 . S
C501 C502 1.387 . S
C501 H504 0.950 . S
C502 C501 1.387 . S
C502 C505 1.387 . S
H503 C499 0.950 . S
H504 C501 0.950 . S
C505 C496 1.390 . S
C505 H498 0.950 . S
C505 C502 1.387 . S
C506 C507 1.387 . S
C506 H510 0.950 . S
C506 C515 1.390 . S
C507 C506 1.387 . S
C507 C509 1.387 . S
H508 C515 0.950 . S
C509 C507 1.387 . S
C509 C511 1.390 . S
C509 H513 0.950 . S
H510 C506 0.950 . S
C511 C509 1.390 . S
C511 C512 1.387 . S
C511 H514 0.950 . S
C512 C511 1.387 . S
C512 C515 1.387 . S
H513 C509 0.950 . S
H514 C511 0.950 . S
C515 C506 1.390 . S
C515 H508 0.950 . S
C515 C512 1.387 . S
C516 C517 1.387 . S
C516 H520 0.950 . S
C516 C525 1.390 1_556 S
C517 C516 1.387 . S
C517 C519 1.387 . S
H518 C525 0.950 . S
C519 C517 1.387 . S
C519 C521 1.390 1_556 S
C519 H523 0.950 . S
H520 C516 0.950 . S
C521 C519 1.390 1_554 S
C521 C522 1.387 . S
C521 H524 0.950 . S
C522 C521 1.387 . S
C522 C525 1.387 . S
H523 C519 0.950 . S
H524 C521 0.950 . S
C525 C516 1.390 1_554 S
C525 H518 0.950 . S
C525 C522 1.387 . S
C526 C527 1.387 . S
C526 H530 0.950 . S
C526 C535 1.390 . S
C527 C526 1.387 . S
C527 C529 1.387 . S
H528 C535 0.950 . S
C529 C527 1.387 . S
C529 C531 1.390 . S
C529 H533 0.950 1_455 S
H530 C526 0.950 . S
C531 C529 1.390 . S
C531 C532 1.387 . S
C531 H534 0.950 1_455 S
C532 C531 1.387 . S
C532 C535 1.387 . S
H533 C529 0.950 1_655 S
H534 C531 0.950 1_655 S
C535 C526 1.390 . S
C535 H528 0.950 . S
C535 C532 1.387 . S
C536 C537 1.387 . S
C536 H540 0.950 . S
C536 C545 1.390 . S
C537 C536 1.387 . S
C537 C539 1.387 . S
H538 C545 0.950 . S
C539 C537 1.387 . S
C539 C541 1.390 . S
C539 H543 0.950 . S
H540 C536 0.950 . S
C541 C539 1.390 . S
C541 C542 1.387 . S
C541 H544 0.950 . S
C542 C541 1.387 . S
C542 C545 1.387 . S
H543 C539 0.950 . S
H544 C541 0.950 . S
C545 C536 1.390 . S
C545 H538 0.950 . S
C545 C542 1.387 . S
C546 C547 1.387 . S
C546 H550 0.950 . S
C546 C555 1.390 . S
C547 C546 1.387 . S
C547 C549 1.387 . S
H548 C555 0.950 . S
C549 C547 1.387 . S
C549 C551 1.390 . S
C549 H553 0.950 . S
H550 C546 0.950 . S
C551 C549 1.390 . S
C551 C552 1.387 . S
C551 H554 0.950 . S
C552 C551 1.387 . S
C552 C555 1.387 . S
H553 C549 0.950 . S
H554 C551 0.950 . S
C555 C546 1.390 . S
C555 H548 0.950 . S
C555 C552 1.387 . S
C556 C557 1.387 . S
C556 H560 0.950 . S
C556 C565 1.390 1_554 S
C557 C556 1.387 . S
C557 C559 1.387 . S
H558 C565 0.950 . S
C559 C557 1.387 . S
C559 C561 1.390 1_554 S
C559 H563 0.950 . S
H560 C556 0.950 . S
C561 C559 1.390 1_556 S
C561 C562 1.387 . S
C561 H564 0.950 . S
C562 C561 1.387 . S
C562 C565 1.387 . S
H563 C559 0.950 . S
H564 C561 0.950 . S
C565 C556 1.390 1_556 S
C565 H558 0.950 . S
C565 C562 1.387 . S
C566 C567 1.387 . S
C566 H570 0.950 . S
C566 C575 1.390 . S
C567 C566 1.387 . S
C567 C569 1.387 . S
H568 C575 0.950 . S
C569 C567 1.387 . S
C569 C571 1.390 . S
C569 H573 0.950 1_655 S
H570 C566 0.950 . S
C571 C569 1.390 . S
C571 C572 1.387 . S
C571 H574 0.950 1_655 S
C572 C571 1.387 . S
C572 C575 1.387 . S
H573 C569 0.950 1_455 S
H574 C571 0.950 1_455 S
C575 C566 1.390 . S
C575 H568 0.950 . S
C575 C572 1.387 . S
C576 C577 1.387 . S
C576 H580 0.950 . S
C576 C585 1.390 . S
C577 C576 1.387 . S
C577 C579 1.387 . S
H578 C585 0.950 . S
C579 C577 1.387 . S
C579 C581 1.390 . S
C579 H583 0.950 . S
H580 C576 0.950 . S
C581 C579 1.390 . S
C581 C582 1.387 . S
C581 H584 0.950 . S
C582 C581 1.387 . S
C582 C585 1.387 . S
H583 C579 0.950 . S
H584 C581 0.950 . S
C585 C576 1.390 . S
C585 H578 0.950 . S
C585 C582 1.387 . S
C586 C587 1.387 1_554 S
C586 H590 0.950 . S
C586 C595 1.395 . S
C587 C586 1.387 1_556 S
C587 C589 1.377 1_456 S
H588 C595 0.949 . S
C589 C587 1.377 1_654 S
C589 C591 1.401 . S
C589 H593 0.961 . S
H590 C586 0.950 . S
C591 C589 1.401 . S
C591 C592 1.387 . S
C591 H594 0.950 . S
C592 C591 1.387 . S
C592 C595 1.382 1_655 S
H593 C589 0.961 . S
H594 C591 0.950 . S
C595 C586 1.395 . S
C595 H588 0.949 . S
C595 C592 1.382 1_455 S
C596 C597 1.387 . S
C596 H600 0.950 . S
C596 C605 1.390 . S
C597 C596 1.387 . S
C597 C599 1.387 . S
H598 C605 0.950 . S
C599 C597 1.387 . S
C599 C601 1.390 . S
C599 H603 0.950 . S
H600 C596 0.950 . S
C601 C599 1.390 . S
C601 C602 1.387 . S
C601 H604 0.950 . S
C602 C601 1.387 . S
C602 C605 1.387 . S
H603 C599 0.950 . S
H604 C601 0.950 . S
C605 C596 1.390 . S
C605 H598 0.950 . S
C605 C602 1.387 . S
C606 C607 1.387 . S
C606 H610 0.950 . S
C606 C615 1.390 . S
C607 C606 1.387 . S
C607 C609 1.387 . S
H608 C615 0.950 . S
C609 C607 1.387 . S
C609 C611 1.390 . S
C609 H613 0.950 . S
H610 C606 0.950 . S
C611 C609 1.390 . S
C611 C612 1.387 . S
C611 H614 0.950 . S
C612 C611 1.387 . S
C612 C615 1.387 . S
H613 C609 0.950 . S
H614 C611 0.950 . S
C615 C606 1.390 . S
C615 H608 0.950 . S
C615 C612 1.387 . S
C616 C617 1.387 . S
C616 H620 0.950 . S
C616 C625 1.390 . S
C617 C616 1.387 . S
C617 C619 1.387 . S
H618 C625 0.950 . S
C619 C617 1.387 . S
C619 C621 1.390 . S
C619 H623 0.950 . S
H620 C616 0.950 . S
C621 C619 1.390 . S
C621 C622 1.387 . S
C621 H624 0.950 . S
C622 C621 1.387 . S
C622 C625 1.387 . S
H623 C619 0.950 . S
H624 C621 0.950 . S
C625 C616 1.390 . S
C625 H618 0.950 . S
C625 C622 1.387 . S
C626 C627 1.387 1_556 S
C626 H630 0.950 . S
C626 C635 1.390 . S
C627 C626 1.387 1_554 S
C627 C629 1.387 1_554 S
H628 C635 0.950 . S
C629 C627 1.387 1_556 S
C629 C631 1.390 . S
C629 H633 0.950 . S
H630 C626 0.950 . S
C631 C629 1.390 . S
C631 C632 1.387 . S
C631 H634 0.950 . S
C632 C631 1.387 . S
C632 C635 1.387 . S
H633 C629 0.950 . S
H634 C631 0.950 . S
C635 C626 1.390 . S
C635 H628 0.950 . S
C635 C632 1.387 . S
C636 C637 1.387 . S
C636 H640 0.950 . S
C636 C645 1.390 . S
C637 C636 1.387 . S
C637 C639 1.387 . S
H638 C645 0.950 . S
C639 C637 1.387 . S
C639 C641 1.390 . S
C639 H643 0.950 . S
H640 C636 0.950 . S
C641 C639 1.390 . S
C641 C642 1.387 . S
C641 H644 0.950 . S
C642 C641 1.387 . S
C642 C645 1.387 . S
H643 C639 0.950 . S
H644 C641 0.950 . S
C645 C636 1.390 . S
C645 H638 0.950 . S
C645 C642 1.387 . S
C646 C647 1.393 . S
C646 H650 0.951 . S
C646 C655 1.384 1_455 S
C647 C646 1.393 . S
C647 C649 1.387 . S
H648 C655 0.950 . S
C649 C647 1.387 . S
C649 C651 1.380 1_455 S
C649 H653 0.950 . S
H650 C646 0.951 . S
C651 C649 1.380 1_655 S
C651 C652 1.398 . S
C651 H654 0.953 . S
C652 C651 1.398 . S
C652 C655 1.387 . S
H653 C649 0.950 . S
H654 C651 0.953 . S
C655 C646 1.384 1_655 S
C655 H648 0.950 . S
C655 C652 1.387 . S
C656 C657 1.387 . S
C656 H660 0.950 . S
C656 C665 1.390 . S
C657 C656 1.387 . S
C657 C659 1.387 . S
H658 C665 0.950 . S
C659 C657 1.387 . S
C659 C661 1.390 . S
C659 H663 0.950 . S
H660 C656 0.950 . S
C661 C659 1.390 . S
C661 C662 1.387 . S
C661 H664 0.950 . S
C662 C661 1.387 . S
C662 C665 1.387 . S
H663 C659 0.950 . S
H664 C661 0.950 . S
C665 C656 1.390 . S
C665 H658 0.950 . S
C665 C662 1.387 . S
C666 C667 1.387 1_456 S
C666 H670 0.956 . S
C666 C675 1.390 . S
C667 C666 1.387 1_654 S
C667 C669 1.387 1_554 S
H668 C675 0.950 . S
C669 C667 1.387 1_556 S
C669 C671 1.398 . S
C669 H673 0.950 . S
H670 C666 0.956 . S
C671 C669 1.398 . S
C671 C672 1.379 1_655 S
C671 H674 0.951 . S
C672 C671 1.379 1_455 S
C672 C675 1.387 . S
H673 C669 0.950 . S
H674 C671 0.951 . S
C675 C666 1.390 . S
C675 H668 0.950 . S
C675 C672 1.387 . S
C676 C677 1.387 . S
C676 H680 0.950 . S
C676 C685 1.390 . S
C677 C676 1.387 . S
C677 C679 1.387 . S
H678 C685 0.950 . S
C679 C677 1.387 . S
C679 C681 1.390 . S
C679 H683 0.950 . S
H680 C676 0.950 . S
C681 C679 1.390 . S
C681 C682 1.387 . S
C681 H684 0.950 . S
C682 C681 1.387 . S
C682 C685 1.387 . S
H683 C679 0.950 . S
H684 C681 0.950 . S
C685 C676 1.390 . S
C685 H678 0.950 . S
C685 C682 1.387 . S
C686 C687 1.387 . S
C686 H690 0.950 . S
C686 C695 1.390 . S
C687 C686 1.387 . S
C687 C689 1.387 . S
H688 C695 0.950 . S
C689 C687 1.387 . S
C689 C691 1.390 . S
C689 H693 0.950 . S
H690 C686 0.950 . S
C691 C689 1.390 . S
C691 C692 1.387 . S
C691 H694 0.950 . S
C692 C691 1.387 . S
C692 C695 1.387 . S
H693 C689 0.950 . S
H694 C691 0.950 . S
C695 C686 1.390 . S
C695 H688 0.950 . S
C695 C692 1.387 . S
C696 C697 1.387 . S
C696 H700 0.950 . S
C696 C705 1.390 . S
C697 C696 1.387 . S
C697 C699 1.387 . S
H698 C705 0.950 . S
C699 C697 1.387 . S
C699 C701 1.390 . S
C699 H703 0.950 . S
H700 C696 0.950 . S
C701 C699 1.390 . S
C701 C702 1.387 . S
C701 H704 0.950 . S
C702 C701 1.387 . S
C702 C705 1.387 . S
H703 C699 0.950 . S
H704 C701 0.950 . S
C705 C696 1.390 . S
C705 H698 0.950 . S
C705 C702 1.387 . S
C706 C707 1.387 . S
C706 H710 0.950 . S
C706 C715 1.390 . S
C707 C706 1.387 . S
C707 C709 1.387 . S
H708 C715 0.950 . S
C709 C707 1.387 . S
C709 C711 1.390 . S
C709 H713 0.950 . S
H710 C706 0.950 . S
C711 C709 1.390 . S
C711 C712 1.387 1_554 S
C711 H714 0.950 . S
C712 C711 1.387 1_556 S
C712 C715 1.387 1_556 S
H713 C709 0.950 . S
H714 C711 0.950 . S
C715 C706 1.390 . S
C715 H708 0.950 . S
C715 C712 1.387 1_554 S
C716 C717 1.387 . S
C716 H720 0.950 . S
C716 C725 1.390 . S
C717 C716 1.387 . S
C717 C719 1.387 . S
H718 C725 0.950 . S
C719 C717 1.387 . S
C719 C721 1.390 . S
C719 H723 0.950 . S
H720 C716 0.950 . S
C721 C719 1.390 . S
C721 C722 1.387 . S
C721 H724 0.950 . S
C722 C721 1.387 . S
C722 C725 1.387 . S
H723 C719 0.950 . S
H724 C721 0.950 . S
C725 C716 1.390 . S
C725 H718 0.950 . S
C725 C722 1.387 . S
C726 C727 1.387 1_455 S
C726 H730 0.950 . S
C726 C735 1.390 . S
C727 C726 1.387 1_655 S
C727 C729 1.387 . S
H728 C735 0.950 . S
C729 C727 1.387 . S
C729 C731 1.390 . S
C729 H733 0.950 . S
H730 C726 0.950 . S
C731 C729 1.390 . S
C731 C732 1.387 1_655 S
C731 H734 0.950 . S
C732 C731 1.387 1_455 S
C732 C735 1.387 . S
H733 C729 0.950 . S
H734 C731 0.950 . S
C735 C726 1.390 . S
C735 H728 0.950 . S
C735 C732 1.387 . S
C736 C737 1.387 . S
C736 H740 0.950 . S
C736 C745 1.390 . S
C737 C736 1.387 . S
C737 C739 1.387 . S
H738 C745 0.950 . S
C739 C737 1.387 . S
C739 C741 1.390 . S
C739 H743 0.950 . S
H740 C736 0.950 . S
C741 C739 1.390 . S
C741 C742 1.387 . S
C741 H744 0.950 . S
C742 C741 1.387 . S
C742 C745 1.387 . S
H743 C739 0.950 . S
H744 C741 0.950 . S
C745 C736 1.390 . S
C745 H738 0.950 . S
C745 C742 1.387 . S
C746 C747 1.387 . S
C746 H750 0.950 . S
C746 C755 1.390 . S
C747 C746 1.387 . S
C747 C749 1.387 . S
H748 C755 0.950 . S
C749 C747 1.387 . S
C749 C751 1.390 . S
C749 H753 0.950 . S
H750 C746 0.950 . S
C751 C749 1.390 . S
C751 C752 1.387 . S
C751 H754 0.950 . S
C752 C751 1.387 . S
C752 C755 1.387 . S
H753 C749 0.950 . S
H754 C751 0.950 . S
C755 C746 1.390 . S
C755 H748 0.950 . S
C755 C752 1.387 . S
C756 C757 1.387 . S
C756 H760 0.950 . S
C756 C765 1.390 . S
C757 C756 1.387 . S
C757 C759 1.387 . S
H758 C765 0.950 . S
C759 C757 1.387 . S
C759 C761 1.390 . S
C759 H763 0.950 . S
H760 C756 0.950 . S
C761 C759 1.390 . S
C761 C762 1.387 . S
C761 H764 0.950 . S
C762 C761 1.387 . S
C762 C765 1.387 . S
H763 C759 0.950 . S
H764 C761 0.950 . S
C765 C756 1.390 . S
C765 H758 0.950 . S
C765 C762 1.387 . S
C766 C767 1.387 . S
C766 H770 0.950 . S
C766 C775 1.390 1_455 S
C767 C766 1.387 . S
C767 C769 1.387 . S
H768 C775 0.950 . S
C769 C767 1.387 . S
C769 C771 1.390 1_455 S
C769 H773 0.950 . S
H770 C766 0.950 . S
C771 C769 1.390 1_655 S
C771 C772 1.387 1_554 S
C771 H774 0.950 . S
C772 C771 1.387 1_556 S
C772 C775 1.387 1_556 S
H773 C769 0.950 . S
H774 C771 0.950 . S
C775 C766 1.390 1_655 S
C775 H768 0.950 . S
C775 C772 1.387 1_554 S
C776 C777 1.387 . S
C776 H780 0.950 . S
C776 C785 1.390 . S
C777 C776 1.387 . S
C777 C779 1.387 . S
H778 C785 0.950 . S
C779 C777 1.387 . S
C779 C781 1.390 . S
C779 H783 0.950 . S
H780 C776 0.950 . S
C781 C779 1.390 . S
C781 C782 1.387 . S
C781 H784 0.950 . S
C782 C781 1.387 . S
C782 C785 1.387 . S
H783 C779 0.950 . S
H784 C781 0.950 . S
C785 C776 1.390 . S
C785 H778 0.950 . S
C785 C782 1.387 . S
C786 C787 1.387 . S
C786 H790 0.950 . S
C786 C795 1.390 1_655 S
C787 C786 1.387 . S
C787 C789 1.387 . S
H788 C795 0.950 . S
C789 C787 1.387 . S
C789 C791 1.390 1_655 S
C789 H793 0.950 . S
H790 C786 0.950 . S
C791 C789 1.390 1_455 S
C791 C792 1.387 . S
C791 H794 0.950 . S
C792 C791 1.387 . S
C792 C795 1.387 . S
H793 C789 0.950 . S
H794 C791 0.950 . S
C795 C786 1.390 1_455 S
C795 H788 0.950 . S
C795 C792 1.387 . S
C796 C797 1.387 . S
C796 H800 0.950 . S
C796 C805 1.390 . S
C797 C796 1.387 . S
C797 C799 1.387 . S
H798 C805 0.950 . S
C799 C797 1.387 . S
C799 C801 1.390 . S
C799 H803 0.950 . S
H800 C796 0.950 . S
C801 C799 1.390 . S
C801 C802 1.387 . S
C801 H804 0.950 . S
C802 C801 1.387 . S
C802 C805 1.387 . S
H803 C799 0.950 . S
H804 C801 0.950 . S
C805 C796 1.390 . S
C805 H798 0.950 . S
C805 C802 1.387 . S
C806 C807 1.387 1_556 S
C806 H810 0.950 . S
C806 C815 1.390 . S
C807 C806 1.387 1_554 S
C807 C809 1.387 1_554 S
H808 C815 0.950 . S
C809 C807 1.387 1_556 S
C809 C811 1.390 . S
C809 H813 0.950 . S
H810 C806 0.950 . S
C811 C809 1.390 . S
C811 C812 1.387 . S
C811 H814 0.950 . S
C812 C811 1.387 . S
C812 C815 1.387 . S
H813 C809 0.950 . S
H814 C811 0.950 . S
C815 C806 1.390 . S
C815 H808 0.950 . S
C815 C812 1.387 . S
C816 C817 1.387 . S
C816 H820 0.950 . S
C816 C825 1.390 . S
C817 C816 1.387 . S
C817 C819 1.387 . S
H818 C825 0.950 . S
C819 C817 1.387 . S
C819 C821 1.390 . S
C819 H823 0.950 . S
H820 C816 0.950 . S
C821 C819 1.390 . S
C821 C822 1.387 . S
C821 H824 0.950 . S
C822 C821 1.387 . S
C822 C825 1.387 . S
H823 C819 0.950 . S
H824 C821 0.950 . S
C825 C816 1.390 . S
C825 H818 0.950 . S
C825 C822 1.387 . S
C826 C827 1.387 . S
C826 H830 0.950 . S
C826 C835 1.390 . S
C827 C826 1.387 . S
C827 C829 1.387 . S
H828 C835 0.950 . S
C829 C827 1.387 . S
C829 C831 1.390 . S
C829 H833 0.950 . S
H830 C826 0.950 . S
C831 C829 1.390 . S
C831 C832 1.387 . S
C831 H834 0.950 . S
C832 C831 1.387 . S
C832 C835 1.387 . S
H833 C829 0.950 . S
H834 C831 0.950 . S
C835 C826 1.390 . S
C835 H828 0.950 . S
C835 C832 1.387 . S
C836 C837 1.387 . S
C836 H840 0.950 . S
C836 C845 1.390 . S
C837 C836 1.387 . S
C837 C839 1.387 . S
H838 C845 0.950 . S
C839 C837 1.387 . S
C839 C841 1.390 . S
C839 H843 0.950 . S
H840 C836 0.950 . S
C841 C839 1.390 . S
C841 C842 1.387 . S
C841 H844 0.950 . S
C842 C841 1.387 . S
C842 C845 1.387 . S
H843 C839 0.950 . S
H844 C841 0.950 . S
C845 C836 1.390 . S
C845 H838 0.950 . S
C845 C842 1.387 . S
C846 C847 1.387 . S
C846 H850 0.950 . S
C846 C855 1.390 1_655 S
C847 C846 1.387 . S
C847 C849 1.387 . S
H848 C855 0.950 . S
C849 C847 1.387 . S
C849 C851 1.390 1_655 S
C849 H853 0.950 . S
H850 C846 0.950 . S
C851 C849 1.390 1_455 S
C851 C852 1.387 1_556 S
C851 H854 0.950 . S
C852 C851 1.387 1_554 S
C852 C855 1.387 1_554 S
H853 C849 0.950 . S
H854 C851 0.950 . S
C855 C846 1.390 1_455 S
C855 H848 0.950 . S
C855 C852 1.387 1_556 S
C856 C857 1.387 . S
C856 H860 0.950 . S
C856 C865 1.390 . S
C857 C856 1.387 . S
C857 C859 1.387 . S
H858 C865 0.950 . S
C859 C857 1.387 . S
C859 C861 1.390 . S
C859 H863 0.950 . S
H860 C856 0.950 . S
C861 C859 1.390 . S
C861 C862 1.387 . S
C861 H864 0.950 . S
C862 C861 1.387 . S
C862 C865 1.387 . S
H863 C859 0.950 . S
H864 C861 0.950 . S
C865 C856 1.390 . S
C865 H858 0.950 . S
C865 C862 1.387 . S
C866 C867 1.387 . S
C866 H870 0.950 . S
C866 C875 1.390 1_655 S
C867 C866 1.387 . S
C867 C869 1.387 . S
H868 C875 0.950 . S
C869 C867 1.387 . S
C869 C871 1.390 1_655 S
C869 H873 0.950 . S
H870 C866 0.950 . S
C871 C869 1.390 1_455 S
C871 C872 1.387 . S
C871 H874 0.950 . S
C872 C871 1.387 . S
C872 C875 1.387 . S
H873 C869 0.950 . S
H874 C871 0.950 . S
C875 C866 1.390 1_455 S
C875 H868 0.950 . S
C875 C872 1.387 . S
C876 C877 1.387 . S
C876 H880 0.950 . S
C876 C885 1.390 . S
C877 C876 1.387 . S
C877 C879 1.387 . S
H878 C885 0.950 . S
C879 C877 1.387 . S
C879 C881 1.390 . S
C879 H883 0.950 . S
H880 C876 0.950 . S
C881 C879 1.390 . S
C881 C882 1.387 . S
C881 H884 0.950 . S
C882 C881 1.387 . S
C882 C885 1.387 . S
H883 C879 0.950 . S
H884 C881 0.950 . S
C885 C876 1.390 . S
C885 H878 0.950 . S
C885 C882 1.387 . S
C886 C887 1.387 . S
C886 H890 0.950 . S
C886 C895 1.390 . S
C887 C886 1.387 . S
C887 C889 1.387 . S
H888 C895 0.950 1_556 S
C889 C887 1.387 . S
C889 C891 1.390 . S
C889 H893 0.950 . S
H890 C886 0.950 . S
C891 C889 1.390 . S
C891 C892 1.387 1_554 S
C891 H894 0.950 . S
C892 C891 1.387 1_556 S
C892 C895 1.387 1_556 S
H893 C889 0.950 . S
H894 C891 0.950 . S
C895 C886 1.390 . S
C895 H888 0.950 1_554 S
C895 C892 1.387 1_554 S
C896 C897 1.387 . S
C896 H900 0.950 . S
C896 C905 1.390 . S
C897 C896 1.387 . S
C897 C899 1.387 . S
H898 C905 0.950 . S
C899 C897 1.387 . S
C899 C901 1.390 . S
C899 H903 0.950 . S
H900 C896 0.950 . S
C901 C899 1.390 . S
C901 C902 1.387 . S
C901 H904 0.950 . S
C902 C901 1.387 . S
C902 C905 1.387 . S
H903 C899 0.950 . S
H904 C901 0.950 . S
C905 C896 1.390 . S
C905 H898 0.950 . S
C905 C902 1.387 . S
C906 C907 1.387 . S
C906 H910 0.950 . S
C906 C915 1.390 . S
C907 C906 1.387 . S
C907 C909 1.387 . S
H908 C915 0.950 . S
C909 C907 1.387 . S
C909 C911 1.390 . S
C909 H913 0.950 . S
H910 C906 0.950 . S
C911 C909 1.390 . S
C911 C912 1.387 . S
C911 H914 0.950 . S
C912 C911 1.387 . S
C912 C915 1.387 . S
H913 C909 0.950 . S
H914 C911 0.950 . S
C915 C906 1.390 . S
C915 H908 0.950 . S
C915 C912 1.387 . S
C916 C917 1.387 . S
C916 H920 0.950 . S
C916 C925 1.390 . S
C917 C916 1.387 . S
C917 C919 1.387 . S
H918 C925 0.950 . S
C919 C917 1.387 . S
C919 C921 1.390 . S
C919 H923 0.950 . S
H920 C916 0.950 . S
C921 C919 1.390 . S
C921 C922 1.387 . S
C921 H924 0.950 . S
C922 C921 1.387 . S
C922 C925 1.387 . S
H923 C919 0.950 . S
H924 C921 0.950 . S
C925 C916 1.390 . S
C925 H918 0.950 . S
C925 C922 1.387 . S
C926 C927 1.387 . S
C926 H930 0.950 . S
C926 C935 1.390 . S
C927 C926 1.387 . S
C927 C929 1.387 . S
H928 C935 0.950 . S
C929 C927 1.387 . S
C929 C931 1.390 . S
C929 H933 0.950 . S
H930 C926 0.950 . S
C931 C929 1.390 . S
C931 C932 1.387 . S
C931 H934 0.950 . S
C932 C931 1.387 . S
C932 C935 1.387 . S
H933 C929 0.950 . S
H934 C931 0.950 . S
C935 C926 1.390 . S
C935 H928 0.950 . S
C935 C932 1.387 . S
C936 C937 1.387 . S
C936 H940 0.950 . S
C936 C945 1.390 . S
C937 C936 1.387 . S
C937 C939 1.387 . S
H938 C945 0.950 . S
C939 C937 1.387 . S
C939 C941 1.390 . S
C939 H943 0.950 . S
H940 C936 0.950 . S
C941 C939 1.390 . S
C941 C942 1.387 . S
C941 H944 0.950 . S
C942 C941 1.387 . S
C942 C945 1.387 . S
H943 C939 0.950 . S
H944 C941 0.950 . S
C945 C936 1.390 . S
C945 H938 0.950 . S
C945 C942 1.387 . S
C946 C947 1.387 . S
C946 H950 0.950 . S
C946 C955 1.390 . S
C947 C946 1.387 . S
C947 C949 1.387 . S
H948 C955 0.950 . S
C949 C947 1.387 . S
C949 C951 1.390 . S
C949 H953 0.950 . S
H950 C946 0.950 . S
C951 C949 1.390 . S
C951 C952 1.387 . S
C951 H954 0.950 . S
C952 C951 1.387 . S
C952 C955 1.387 . S
H953 C949 0.950 . S
H954 C951 0.950 . S
C955 C946 1.390 . S
C955 H948 0.950 . S
C955 C952 1.387 . S
C956 C957 1.387 . S
C956 H960 0.950 . S
C956 C965 1.390 . S
C957 C956 1.387 . S
C957 C959 1.387 . S
H958 C965 0.950 . S
C959 C957 1.387 . S
C959 C961 1.390 . S
C959 H963 0.950 . S
H960 C956 0.950 . S
C961 C959 1.390 . S
C961 C962 1.387 . S
C961 H964 0.950 . S
C962 C961 1.387 . S
C962 C965 1.387 . S
H963 C959 0.950 . S
H964 C961 0.950 . S
C965 C956 1.390 . S
C965 H958 0.950 . S
C965 C962 1.387 . S
C966 C967 1.387 . S
C966 H970 0.950 . S
C966 C975 1.390 . S
C967 C966 1.387 . S
C967 C969 1.387 . S
H968 C975 0.950 . S
C969 C967 1.387 . S
C969 C971 1.390 . S
C969 H973 0.950 . S
H970 C966 0.950 . S
C971 C969 1.390 . S
C971 C972 1.387 . S
C971 H974 0.950 . S
C972 C971 1.387 . S
C972 C975 1.387 . S
H973 C969 0.950 . S
H974 C971 0.950 . S
C975 C966 1.390 . S
C975 H968 0.950 . S
C975 C972 1.387 . S
C976 C977 1.387 . S
C976 H980 0.950 . S
C976 C985 1.390 . S
C977 C976 1.387 . S
C977 C979 1.387 . S
H978 C985 0.950 . S
C979 C977 1.387 . S
C979 C981 1.390 . S
C979 H983 0.950 . S
H980 C976 0.950 . S
C981 C979 1.390 . S
C981 C982 1.387 . S
C981 H984 0.950 . S
C982 C981 1.387 . S
C982 C985 1.387 . S
H983 C979 0.950 . S
H984 C981 0.950 . S
C985 C976 1.390 . S
C985 H978 0.950 . S
C985 C982 1.387 . S
C986 C987 1.387 . S
C986 H990 0.950 . S
C986 C995 1.390 . S
C987 C986 1.387 . S
C987 C989 1.387 . S
H988 C995 0.950 . S
C989 C987 1.387 . S
C989 C991 1.390 . S
C989 H993 0.950 . S
H990 C986 0.950 . S
C991 C989 1.390 . S
C991 C992 1.387 . S
C991 H994 0.950 . S
C992 C991 1.387 . S
C992 C995 1.387 . S
H993 C989 0.950 . S
H994 C991 0.950 . S
C995 C986 1.390 . S
C995 H988 0.950 . S
C995 C992 1.387 . S
C996 C997 1.387 . S
C996 H1000 0.950 . S
C996 C1005 1.390 . S
C997 C996 1.387 . S
C997 C999 1.387 . S
H998 C1005 0.950 . S
C999 C997 1.387 . S
C999 C1001 1.390 . S
C999 H1003 0.950 . S
H1000 C996 0.950 . S
C1001 C999 1.390 . S
C1001 C1002 1.387 . S
C1001 H1004 0.950 . S
C1002 C1001 1.387 . S
C1002 C1005 1.387 . S
H1003 C999 0.950 . S
H1004 C1001 0.950 . S
C1005 C996 1.390 . S
C1005 H998 0.950 . S
C1005 C1002 1.387 . S
C1006 C1007 1.387 . S
C1006 H1010 0.950 . S
C1006 C1015 1.390 . S
C1007 C1006 1.387 . S
C1007 C1009 1.387 . S
H1008 C1015 0.950 . S
C1009 C1007 1.387 . S
C1009 C1011 1.390 . S
C1009 H1013 0.950 . S
H1010 C1006 0.950 . S
C1011 C1009 1.390 . S
C1011 C1012 1.387 . S
C1011 H1014 0.950 . S
C1012 C1011 1.387 . S
C1012 C1015 1.387 . S
H1013 C1009 0.950 . S
H1014 C1011 0.950 . S
C1015 C1006 1.390 . S
C1015 H1008 0.950 . S
C1015 C1012 1.387 . S
C1016 C1017 1.387 . S
C1016 H1020 0.950 . S
C1016 C1025 1.390 . S
C1017 C1016 1.387 . S
C1017 C1019 1.387 . S
H1018 C1025 0.950 . S
C1019 C1017 1.387 . S
C1019 C1021 1.390 . S
C1019 H1023 0.950 . S
H1020 C1016 0.950 . S
C1021 C1019 1.390 . S
C1021 C1022 1.387 . S
C1021 H1024 0.950 . S
C1022 C1021 1.387 . S
C1022 C1025 1.387 . S
H1023 C1019 0.950 . S
H1024 C1021 0.950 . S
C1025 C1016 1.390 . S
C1025 H1018 0.950 . S
C1025 C1022 1.387 . S
C1026 C1027 1.387 . S
C1026 H1030 0.950 . S
C1026 C1035 1.390 . S
C1027 C1026 1.387 . S
C1027 C1029 1.387 . S
H1028 C1035 0.950 . S
C1029 C1027 1.387 . S
C1029 C1031 1.390 . S
C1029 H1033 0.950 . S
H1030 C1026 0.950 . S
C1031 C1029 1.390 . S
C1031 C1032 1.387 . S
C1031 H1034 0.950 . S
C1032 C1031 1.387 . S
C1032 C1035 1.387 . S
H1033 C1029 0.950 . S
H1034 C1031 0.950 . S
C1035 C1026 1.390 . S
C1035 H1028 0.950 . S
C1035 C1032 1.387 . S
C1036 C1037 1.387 . S
C1036 H1040 0.950 . S
C1036 C1045 1.390 . S
C1037 C1036 1.387 . S
C1037 C1039 1.387 . S
H1038 C1045 0.950 . S
C1039 C1037 1.387 . S
C1039 C1041 1.390 . S
C1039 H1043 0.950 . S
H1040 C1036 0.950 . S
C1041 C1039 1.390 . S
C1041 C1042 1.387 . S
C1041 H1044 0.950 . S
C1042 C1041 1.387 . S
C1042 C1045 1.387 . S
H1043 C1039 0.950 . S
H1044 C1041 0.950 . S
C1045 C1036 1.390 . S
C1045 H1038 0.950 . S
C1045 C1042 1.387 . S
C1046 C1047 1.387 . S
C1046 H1050 0.950 . S
C1046 C1055 1.390 . S
C1047 C1046 1.387 . S
C1047 C1049 1.387 . S
H1048 C1055 0.950 . S
C1049 C1047 1.387 . S
C1049 C1051 1.390 . S
C1049 H1053 0.950 . S
H1050 C1046 0.950 . S
C1051 C1049 1.390 . S
C1051 C1052 1.387 . S
C1051 H1054 0.950 . S
C1052 C1051 1.387 . S
C1052 C1055 1.387 . S
H1053 C1049 0.950 . S
H1054 C1051 0.950 . S
C1055 C1046 1.390 . S
C1055 H1048 0.950 . S
C1055 C1052 1.387 . S
C417 C81 1.504 . S
C422 C5 1.504 . S
C427 C16 1.504 . S
C432 C96 1.504 . S
C437 C57 1.504 . S
C442 C29 1.504 . S
C447 C42 1.504 . S
C452 C70 1.504 . S
C457 C187 1.504 . S
C462 C107 1.504 . S
C467 C198 1.504 . S
C472 C122 1.504 . S
C477 C135 1.504 . S
C482 C161 1.504 . S
C487 C148 1.504 . S
C492 C172 1.504 . S
C497 C213 1.504 . S
C502 C291 1.504 . S
C507 C226 1.504 . S
C512 C304 1.504 . S
C517 C263 1.504 . S
C522 C239 1.504 . S
C527 C278 1.504 . S
C532 C252 1.504 . S
C537 C317 1.504 . S
C542 C395 1.504 . S
C547 C408 1.504 . S
C552 C330 1.504 . S
C557 C367 1.504 . S
C562 C343 1.504 . S
C567 C356 1.504 . S
C572 C380 1.504 . S
C577 C3 1.399 . S
C582 C400 1.407 . S
C587 C199 1.407 . S
C592 C18 1.399 . S
C597 C31 1.399 . S
C602 C368 1.407 . S
C607 C44 1.399 . S
C612 C173 1.407 . S
C617 C348 1.407 . S
C622 C55 1.399 . S
C627 C153 1.407 . S
C632 C68 1.399 . S
C637 C83 1.400 . S
C642 C322 1.407 . S
C647 C127 1.407 . S
C652 C94 1.399 . S
C657 C109 1.400 . S
C662 C296 1.408 . S
C667 C101 1.407 . S
C672 C120 1.399 . S
C677 C133 1.399 . S
C682 C264 1.407 . S
C687 C146 1.400 . S
C692 C75 1.407 . S
C697 C244 1.408 . S
C702 C159 1.400 . S
C707 C174 1.399 . S
C712 C43 1.407 . S
C717 C185 1.400 . S
C722 C218 1.408 . S
C727 C17 1.408 . S
C732 C200 1.400 . S
C737 C211 1.399 . S
C742 C192 1.407 . S
C747 C224 1.399 . S
C752 C413 1.407 . S
C757 C166 1.407 . S
C762 C237 1.399 . S
C767 C250 1.399 . S
C772 C381 1.407 . S
C777 C140 1.408 . S
C782 C265 1.400 . S
C787 C361 1.407 . S
C792 C276 1.399 . S
C797 C108 1.407 . S
C802 C289 1.399 . S
C807 C335 1.407 . S
C812 C302 1.399 . S
C817 C315 1.400 . S
C822 C82 1.408 . S
C827 C309 1.407 . S
C832 C328 1.399 . S
C837 C62 1.407 . S
C842 C341 1.399 . S
C847 C354 1.399 . S
C852 C283 1.407 . S
C857 C369 1.400 . S
C862 C30 1.408 . S
C867 C382 1.399 . S
C872 C257 1.407 . S
C877 C10 1.408 . S
C882 C393 1.399 . S
C887 C406 1.399 . S
C892 C231 1.407 . S
C897 C4 1.466 . S
C902 C277 1.466 . S
C907 C290 1.466 . S
C912 C23 1.467 . S
C917 C36 1.466 . S
C922 C303 1.466 . S
C927 C270 1.466 . S
C932 C49 1.466 . S
C937 C251 1.466 . S
C942 C56 1.466 . S
C947 C212 1.466 . S
C952 C69 1.466 . S
C957 C225 1.466 . S
C962 C88 1.466 . S
C967 C238 1.466 . S
C972 C95 1.466 . S
C977 C114 1.466 . S
C982 C387 1.466 . S
C987 C394 1.466 . S
C992 C121 1.466 . S
C997 C407 1.466 . S
C1002 C134 1.466 . S
C1007 C374 1.466 . S
C1012 C147 1.466 . S
C1017 C355 1.466 . S
C1022 C160 1.466 . S
C1027 C316 1.466 . S
C1032 C179 1.466 . S
C1037 C186 1.466 . S
C1042 C329 1.466 . S
C1047 C205 1.466 . S
C1052 C342 1.466 . S
