# Generated by pormake.
# Topology uoh, (4)-cn, num edge types: 1
# Building blocks:
#     Node 0, Type 0, BuildingBlock: AZAVOO_clean_sbu_0, # of connection points: 4
#     Node 1, Type 0, BuildingBlock: AZAVOO_clean_sbu_0, # of connection points: 4
#     Node 2, Type 0, BuildingBlock: AZAVOO_clean_sbu_0, # of connection points: 4
#     Node 3, Type 0, BuildingBlock: AZAVOO_clean_sbu_0, # of connection points: 4
#     Node 4, Type 0, BuildingBlock: AZAVOO_clean_sbu_0, # of connection points: 4
#     Node 5, Type 0, BuildingBlock: AZAVOO_clean_sbu_0, # of connection points: 4
#     Node 6, Type 0, BuildingBlock: AZAVOO_clean_sbu_0, # of connection points: 4
#     Node 7, Type 0, BuildingBlock: AZAVOO_clean_sbu_0, # of connection points: 4
#     Node 8, Type 0, BuildingBlock: AZAVOO_clean_sbu_0, # of connection points: 4
#     Node 9, Type 0, BuildingBlock: AZAVOO_clean_sbu_0, # of connection points: 4
#     Node 10, Type 0, BuildingBlock: AZAVOO_clean_sbu_0, # of connection points: 4
#     Node 11, Type 0, BuildingBlock: AZAVOO_clean_sbu_0, # of connection points: 4
#     Node 12, Type 0, BuildingBlock: AZAVOO_clean_sbu_0, # of connection points: 4
#     Node 13, Type 0, BuildingBlock: AZAVOO_clean_sbu_0, # of connection points: 4
#     Node 14, Type 0, BuildingBlock: AZAVOO_clean_sbu_0, # of connection points: 4
#     Node 15, Type 0, BuildingBlock: AZAVOO_clean_sbu_0, # of connection points: 4
#     Node 16, Type 0, BuildingBlock: AZAVOO_clean_sbu_0, # of connection points: 4
#     Node 17, Type 0, BuildingBlock: AZAVOO_clean_sbu_0, # of connection points: 4
#     Node 18, Type 0, BuildingBlock: AZAVOO_clean_sbu_0, # of connection points: 4
#     Node 19, Type 0, BuildingBlock: AZAVOO_clean_sbu_0, # of connection points: 4
#     Node 20, Type 0, BuildingBlock: AZAVOO_clean_sbu_0, # of connection points: 4
#     Node 21, Type 0, BuildingBlock: AZAVOO_clean_sbu_0, # of connection points: 4
#     Node 22, Type 0, BuildingBlock: AZAVOO_clean_sbu_0, # of connection points: 4
#     Node 23, Type 0, BuildingBlock: AZAVOO_clean_sbu_0, # of connection points: 4
#     Node 24, Type 0, BuildingBlock: AZAVOO_clean_sbu_0, # of connection points: 4
#     Node 25, Type 0, BuildingBlock: AZAVOO_clean_sbu_0, # of connection points: 4
#     Node 26, Type 0, BuildingBlock: AZAVOO_clean_sbu_0, # of connection points: 4
#     Node 27, Type 0, BuildingBlock: AZAVOO_clean_sbu_0, # of connection points: 4
#     Node 28, Type 0, BuildingBlock: AZAVOO_clean_sbu_0, # of connection points: 4
#     Node 29, Type 0, BuildingBlock: AZAVOO_clean_sbu_0, # of connection points: 4
#     Node 30, Type 0, BuildingBlock: AZAVOO_clean_sbu_0, # of connection points: 4
#     Node 31, Type 0, BuildingBlock: AZAVOO_clean_sbu_0, # of connection points: 4
#     Node 32, Type 0, BuildingBlock: AZAVOO_clean_sbu_0, # of connection points: 4
#     Node 33, Type 0, BuildingBlock: AZAVOO_clean_sbu_0, # of connection points: 4
#     Node 34, Type 0, BuildingBlock: AZAVOO_clean_sbu_0, # of connection points: 4
#     Node 35, Type 0, BuildingBlock: AZAVOO_clean_sbu_0, # of connection points: 4
#     Edge 36, Type (0, 0), BuildingBlock: ZUJKAS_clean_linker_0, # of connection points: 2
#     Edge 37, Type (0, 0), BuildingBlock: ZUJKAS_clean_linker_0, # of connection points: 2
#     Edge 38, Type (0, 0), BuildingBlock: ZUJKAS_clean_linker_0, # of connection points: 2
#     Edge 39, Type (0, 0), BuildingBlock: ZUJKAS_clean_linker_0, # of connection points: 2
#     Edge 40, Type (0, 0), BuildingBlock: ZUJKAS_clean_linker_0, # of connection points: 2
#     Edge 41, Type (0, 0), BuildingBlock: ZUJKAS_clean_linker_0, # of connection points: 2
#     Edge 42, Type (0, 0), BuildingBlock: ZUJKAS_clean_linker_0, # of connection points: 2
#     Edge 43, Type (0, 0), BuildingBlock: ZUJKAS_clean_linker_0, # of connection points: 2
#     Edge 44, Type (0, 0), BuildingBlock: ZUJKAS_clean_linker_0, # of connection points: 2
#     Edge 45, Type (0, 0), BuildingBlock: ZUJKAS_clean_linker_0, # of connection points: 2
#     Edge 46, Type (0, 0), BuildingBlock: ZUJKAS_clean_linker_0, # of connection points: 2
#     Edge 47, Type (0, 0), BuildingBlock: ZUJKAS_clean_linker_0, # of connection points: 2
#     Edge 48, Type (0, 0), BuildingBlock: ZUJKAS_clean_linker_0, # of connection points: 2
#     Edge 49, Type (0, 0), BuildingBlock: ZUJKAS_clean_linker_0, # of connection points: 2
#     Edge 50, Type (0, 0), BuildingBlock: ZUJKAS_clean_linker_0, # of connection points: 2
#     Edge 51, Type (0, 0), BuildingBlock: ZUJKAS_clean_linker_0, # of connection points: 2
#     Edge 52, Type (0, 0), BuildingBlock: ZUJKAS_clean_linker_0, # of connection points: 2
#     Edge 53, Type (0, 0), BuildingBlock: ZUJKAS_clean_linker_0, # of connection points: 2
#     Edge 54, Type (0, 0), BuildingBlock: ZUJKAS_clean_linker_0, # of connection points: 2
#     Edge 55, Type (0, 0), BuildingBlock: ZUJKAS_clean_linker_0, # of connection points: 2
#     Edge 56, Type (0, 0), BuildingBlock: ZUJKAS_clean_linker_0, # of connection points: 2
#     Edge 57, Type (0, 0), BuildingBlock: ZUJKAS_clean_linker_0, # of connection points: 2
#     Edge 58, Type (0, 0), BuildingBlock: ZUJKAS_clean_linker_0, # of connection points: 2
#     Edge 59, Type (0, 0), BuildingBlock: ZUJKAS_clean_linker_0, # of connection points: 2
#     Edge 60, Type (0, 0), BuildingBlock: ZUJKAS_clean_linker_0, # of connection points: 2
#     Edge 61, Type (0, 0), BuildingBlock: ZUJKAS_clean_linker_0, # of connection points: 2
#     Edge 62, Type (0, 0), BuildingBlock: ZUJKAS_clean_linker_0, # of connection points: 2
#     Edge 63, Type (0, 0), BuildingBlock: ZUJKAS_clean_linker_0, # of connection points: 2
#     Edge 64, Type (0, 0), BuildingBlock: ZUJKAS_clean_linker_0, # of connection points: 2
#     Edge 65, Type (0, 0), BuildingBlock: ZUJKAS_clean_linker_0, # of connection points: 2
#     Edge 66, Type (0, 0), BuildingBlock: ZUJKAS_clean_linker_0, # of connection points: 2
#     Edge 67, Type (0, 0), BuildingBlock: ZUJKAS_clean_linker_0, # of connection points: 2
#     Edge 68, Type (0, 0), BuildingBlock: ZUJKAS_clean_linker_0, # of connection points: 2
#     Edge 69, Type (0, 0), BuildingBlock: ZUJKAS_clean_linker_0, # of connection points: 2
#     Edge 70, Type (0, 0), BuildingBlock: ZUJKAS_clean_linker_0, # of connection points: 2
#     Edge 71, Type (0, 0), BuildingBlock: ZUJKAS_clean_linker_0, # of connection points: 2
#     Edge 72, Type (0, 0), BuildingBlock: ZUJKAS_clean_linker_0, # of connection points: 2
#     Edge 73, Type (0, 0), BuildingBlock: ZUJKAS_clean_linker_0, # of connection points: 2
#     Edge 74, Type (0, 0), BuildingBlock: ZUJKAS_clean_linker_0, # of connection points: 2
#     Edge 75, Type (0, 0), BuildingBlock: ZUJKAS_clean_linker_0, # of connection points: 2
#     Edge 76, Type (0, 0), BuildingBlock: ZUJKAS_clean_linker_0, # of connection points: 2
#     Edge 77, Type (0, 0), BuildingBlock: ZUJKAS_clean_linker_0, # of connection points: 2
#     Edge 78, Type (0, 0), BuildingBlock: ZUJKAS_clean_linker_0, # of connection points: 2
#     Edge 79, Type (0, 0), BuildingBlock: ZUJKAS_clean_linker_0, # of connection points: 2
#     Edge 80, Type (0, 0), BuildingBlock: ZUJKAS_clean_linker_0, # of connection points: 2
#     Edge 81, Type (0, 0), BuildingBlock: ZUJKAS_clean_linker_0, # of connection points: 2
#     Edge 82, Type (0, 0), BuildingBlock: ZUJKAS_clean_linker_0, # of connection points: 2
#     Edge 83, Type (0, 0), BuildingBlock: ZUJKAS_clean_linker_0, # of connection points: 2
#     Edge 84, Type (0, 0), BuildingBlock: ZUJKAS_clean_linker_0, # of connection points: 2
#     Edge 85, Type (0, 0), BuildingBlock: ZUJKAS_clean_linker_0, # of connection points: 2
#     Edge 86, Type (0, 0), BuildingBlock: ZUJKAS_clean_linker_0, # of connection points: 2
#     Edge 87, Type (0, 0), BuildingBlock: ZUJKAS_clean_linker_0, # of connection points: 2
#     Edge 88, Type (0, 0), BuildingBlock: ZUJKAS_clean_linker_0, # of connection points: 2
#     Edge 89, Type (0, 0), BuildingBlock: ZUJKAS_clean_linker_0, # of connection points: 2
#     Edge 90, Type (0, 0), BuildingBlock: ZUJKAS_clean_linker_0, # of connection points: 2
#     Edge 91, Type (0, 0), BuildingBlock: ZUJKAS_clean_linker_0, # of connection points: 2
#     Edge 92, Type (0, 0), BuildingBlock: ZUJKAS_clean_linker_0, # of connection points: 2
#     Edge 93, Type (0, 0), BuildingBlock: ZUJKAS_clean_linker_0, # of connection points: 2
#     Edge 94, Type (0, 0), BuildingBlock: ZUJKAS_clean_linker_0, # of connection points: 2
#     Edge 95, Type (0, 0), BuildingBlock: ZUJKAS_clean_linker_0, # of connection points: 2
#     Edge 96, Type (0, 0), BuildingBlock: ZUJKAS_clean_linker_0, # of connection points: 2
#     Edge 97, Type (0, 0), BuildingBlock: ZUJKAS_clean_linker_0, # of connection points: 2
#     Edge 98, Type (0, 0), BuildingBlock: ZUJKAS_clean_linker_0, # of connection points: 2
#     Edge 99, Type (0, 0), BuildingBlock: ZUJKAS_clean_linker_0, # of connection points: 2
#     Edge 100, Type (0, 0), BuildingBlock: ZUJKAS_clean_linker_0, # of connection points: 2
#     Edge 101, Type (0, 0), BuildingBlock: ZUJKAS_clean_linker_0, # of connection points: 2
#     Edge 102, Type (0, 0), BuildingBlock: ZUJKAS_clean_linker_0, # of connection points: 2
#     Edge 103, Type (0, 0), BuildingBlock: ZUJKAS_clean_linker_0, # of connection points: 2
#     Edge 104, Type (0, 0), BuildingBlock: ZUJKAS_clean_linker_0, # of connection points: 2
#     Edge 105, Type (0, 0), BuildingBlock: ZUJKAS_clean_linker_0, # of connection points: 2
#     Edge 106, Type (0, 0), BuildingBlock: ZUJKAS_clean_linker_0, # of connection points: 2
#     Edge 107, Type (0, 0), BuildingBlock: ZUJKAS_clean_linker_0, # of connection points: 2
# Relax obj value: 0.294
# Max RMSD: 0.301
# Mean RMSD: 0.300
data_MOF--net-uoh--node1-AZAVOO_clean_sbu_0--edge1-ZUJKAS_clean_linker_0
_symmetry_space_group_name_H-M    P1
_symmetry_Int_Tables_number       1
_symmetry_cell_setting            triclinic
loop_
_symmetry_equiv_pos_as_xyz
'x, y, z'
_cell_length_a     110.67218
_cell_length_b     110.66189
_cell_length_c     34.99248
_cell_angle_alpha  90.010591
_cell_angle_beta   89.968936
_cell_angle_gamma 120.01322
loop_
_atom_site_label
_atom_site_type_symbol
_atom_site_fract_x
_atom_site_fract_y
_atom_site_fract_z
_atom_type_partial_charge
Mg0 Mg 0.23557 0.14087 0.25138 0.0
O1 O 0.25767 0.14505 0.24285 0.0
O2 O 0.26977 0.15353 0.29674 0.0
Mg3 Mg 0.25448 0.1535 0.3414 0.0
C4 C 0.26898 0.14986 0.2618 0.0
C5 C 0.22731 0.14534 0.16822 0.0
O6 O 0.22199 0.15199 0.18639 0.0
O7 O 0.24381 0.16413 0.25094 0.0
O8 O 0.25343 0.17112 0.30885 0.0
O9 O 0.22872 0.11914 0.27012 0.0
O10 O 0.23652 0.1373 0.30899 0.0
C11 C 0.24982 0.17356 0.27634 0.0
C12 C 0.23223 0.12422 0.30431 0.0
O13 O 0.23306 0.13976 0.1871 0.0
Mg14 Mg 0.83702 0.08047 0.25592 0.0
O15 O 0.83343 0.0986 0.24332 0.0
O16 O 0.82328 0.10236 0.29338 0.0
Mg17 Mg 0.82075 0.0864 0.33912 0.0
C18 C 0.82829 0.10532 0.2596 0.0
C19 C 0.85263 0.08295 0.17958 0.0
O20 O 0.86297 0.08647 0.20367 0.0
O21 O 0.81402 0.0653 0.24916 0.0
O22 O 0.80438 0.06832 0.30178 0.0
O23 O 0.85779 0.09517 0.28034 0.0
O24 O 0.83824 0.08467 0.31403 0.0
C25 C 0.80341 0.06207 0.2702 0.0
C26 C 0.85145 0.09346 0.31274 0.0
O27 O 0.8406 0.07945 0.1925 0.0
Mg28 Mg 0.91641 0.75655 0.24037 0.0
O29 O 0.89843 0.73443 0.22959 0.0
O30 O 0.8952 0.72148 0.28158 0.0
Mg31 Mg 0.91136 0.73555 0.32576 0.0
C32 C 0.89196 0.72286 0.24751 0.0
C33 C 0.9156 0.77064 0.16457 0.0
O34 O 0.91424 0.7788 0.18935 0.0
O35 O 0.93191 0.74907 0.23424 0.0
O36 O 0.92912 0.73692 0.28777 0.0
O37 O 0.90144 0.76243 0.26392 0.0
O38 O 0.91237 0.7541 0.29858 0.0
C39 C 0.93522 0.7419 0.25584 0.0
C40 C 0.90326 0.7581 0.29664 0.0
O41 O 0.91713 0.76068 0.17676 0.0
Mg42 Mg 0.14915 0.22953 0.24089 0.0
O43 O 0.15362 0.25187 0.24374 0.0
O44 O 0.16147 0.26295 0.18829 0.0
Mg45 Mg 0.1621 0.24675 0.14844 0.0
C46 C 0.15795 0.26274 0.22312 0.0
C47 C 0.13888 0.23235 0.31887 0.0
O48 O 0.13128 0.23481 0.29471 0.0
O49 O 0.17239 0.23736 0.24287 0.0
O50 O 0.17947 0.24677 0.18485 0.0
O51 O 0.12763 0.22268 0.22023 0.0
O52 O 0.14588 0.22921 0.18233 0.0
C53 C 0.18194 0.2434 0.2177 0.0
C54 C 0.13289 0.22543 0.18615 0.0
O55 O 0.14753 0.22902 0.30576 0.0
Mg56 Mg 0.76385 0.91322 0.24669 0.0
O57 O 0.74209 0.89446 0.25409 0.0
O58 O 0.72979 0.89021 0.20039 0.0
Mg59 Mg 0.74433 0.90691 0.15772 0.0
C60 C 0.7309 0.88733 0.23508 0.0
C61 C 0.77429 0.92394 0.33139 0.0
O62 O 0.78322 0.93572 0.31472 0.0
O63 O 0.75487 0.92757 0.24956 0.0
O64 O 0.74346 0.9239 0.19423 0.0
O65 O 0.77146 0.89926 0.2257 0.0
O66 O 0.76303 0.90947 0.18845 0.0
C67 C 0.74754 0.93013 0.22641 0.0
C68 C 0.76774 0.90097 0.19195 0.0
O69 O 0.76589 0.91359 0.31115 0.0
Mg70 Mg 0.08433 0.84591 0.24534 0.0
O71 O 0.10328 0.84329 0.2548 0.0
O72 O 0.10807 0.83559 0.2012 0.0
Mg73 Mg 0.09192 0.83348 0.15681 0.0
C74 C 0.11064 0.83942 0.23608 0.0
C75 C 0.08474 0.85834 0.32573 0.0
O76 O 0.08729 0.86914 0.30446 0.0
O77 O 0.07021 0.82253 0.2467 0.0
O78 O 0.07443 0.81528 0.19128 0.0
O79 O 0.09825 0.8677 0.22571 0.0
O80 O 0.08886 0.84928 0.18751 0.0
C81 C 0.06786 0.81284 0.223 0.0
C82 C 0.09708 0.86252 0.1918 0.0
O83 O 0.08267 0.84717 0.30967 0.0
Mg84 Mg 0.75615 0.84833 0.74415 0.0
O85 O 0.73415 0.84462 0.75154 0.0
O86 O 0.72252 0.8376 0.69652 0.0
Mg87 Mg 0.73795 0.8376 0.65257 0.0
C88 C 0.7231 0.84063 0.73192 0.0
C89 C 0.7672 0.84771 0.82735 0.0
O90 O 0.77673 0.84625 0.80884 0.0
O91 O 0.74768 0.82498 0.74186 0.0
O92 O 0.73797 0.81924 0.68383 0.0
O93 O 0.76374 0.87044 0.72756 0.0
O94 O 0.75599 0.85285 0.68674 0.0
C95 C 0.74145 0.81602 0.71542 0.0
C96 C 0.76066 0.86594 0.69275 0.0
O97 O 0.75787 0.84865 0.8087 0.0
Mg98 Mg 0.1567 0.91248 0.74961 0.0
O99 O 0.16112 0.89463 0.75659 0.0
O100 O 0.17032 0.89178 0.70303 0.0
Mg101 Mg 0.17133 0.90808 0.6606 0.0
C102 C 0.16611 0.88835 0.73738 0.0
C103 C 0.1539 0.92178 0.8335 0.0
O104 O 0.15526 0.93294 0.81628 0.0
O105 O 0.17978 0.92817 0.75378 0.0
O106 O 0.18797 0.92607 0.69729 0.0
O107 O 0.13551 0.89766 0.72742 0.0
O108 O 0.15428 0.90902 0.69108 0.0
C109 C 0.18975 0.93196 0.72988 0.0
C110 C 0.14119 0.89993 0.69386 0.0
O111 O 0.15416 0.91225 0.81387 0.0
Mg112 Mg 0.08539 0.24853 0.74317 0.0
O113 O 0.10226 0.27072 0.75823 0.0
O114 O 0.10619 0.28491 0.70874 0.0
Mg115 Mg 0.09122 0.27137 0.66139 0.0
C116 C 0.10873 0.28277 0.74288 0.0
C117 C 0.09486 0.24643 0.82397 0.0
O118 O 0.10675 0.25291 0.80532 0.0
O119 O 0.06901 0.25485 0.74893 0.0
O120 O 0.07225 0.2681 0.69745 0.0
O121 O 0.10138 0.24402 0.72021 0.0
O122 O 0.09058 0.25256 0.68576 0.0
C123 C 0.06562 0.26214 0.72807 0.0
C124 C 0.09993 0.24887 0.68789 0.0
O125 O 0.08357 0.24275 0.80605 0.0
Mg126 Mg 0.84162 0.76088 0.74314 0.0
O127 O 0.83834 0.73894 0.73954 0.0
O128 O 0.82957 0.72734 0.79389 0.0
Mg129 Mg 0.82747 0.74272 0.83377 0.0
C130 C 0.83392 0.72797 0.75976 0.0
C131 C 0.85347 0.75958 0.66578 0.0
O132 O 0.86064 0.75659 0.69008 0.0
O133 O 0.81829 0.75201 0.73778 0.0
O134 O 0.81039 0.74251 0.79539 0.0
O135 O 0.86295 0.76864 0.76651 0.0
O136 O 0.84395 0.76077 0.80205 0.0
C137 C 0.80839 0.74579 0.76188 0.0
C138 C 0.85716 0.76532 0.79992 0.0
O139 O 0.84447 0.76247 0.67862 0.0
Mg140 Mg 0.23694 0.08705 0.75416 0.0
O141 O 0.2588 0.10592 0.75119 0.0
O142 O 0.26907 0.10952 0.80818 0.0
Mg143 Mg 0.25294 0.0929 0.84859 0.0
C144 C 0.26926 0.11276 0.77307 0.0
C145 C 0.22911 0.07523 0.67065 0.0
O146 O 0.22095 0.06357 0.68898 0.0
O147 O 0.24614 0.07286 0.75636 0.0
O148 O 0.25423 0.07538 0.81614 0.0
O149 O 0.22853 0.1009 0.77016 0.0
O150 O 0.23576 0.09077 0.8116 0.0
C151 C 0.25181 0.06964 0.78319 0.0
C152 C 0.2312 0.09925 0.80521 0.0
O153 O 0.23658 0.08634 0.68952 0.0
Mg154 Mg 0.91329 0.15591 0.75699 0.0
O155 O 0.89476 0.15895 0.74491 0.0
O156 O 0.89048 0.16842 0.79566 0.0
Mg157 Mg 0.90659 0.17122 0.84114 0.0
C158 C 0.88772 0.16365 0.76162 0.0
C159 C 0.91051 0.14055 0.68036 0.0
O160 O 0.90694 0.1302 0.70446 0.0
O161 O 0.92799 0.17909 0.75097 0.0
O162 O 0.92432 0.18808 0.80396 0.0
O163 O 0.899 0.13488 0.7807 0.0
O164 O 0.90898 0.15425 0.81518 0.0
C165 C 0.93074 0.18947 0.77243 0.0
C166 C 0.90046 0.14098 0.81335 0.0
O167 O 0.91433 0.15264 0.69335 0.0
Mg168 Mg 0.91895 0.49809 0.58575 0.0
O169 O 0.94067 0.50193 0.57089 0.0
O170 O 0.95507 0.51181 0.62018 0.0
Mg171 Mg 0.94213 0.51437 0.66734 0.0
C172 C 0.95268 0.50696 0.58621 0.0
C173 C 0.91561 0.48508 0.50703 0.0
O174 O 0.92104 0.47902 0.52748 0.0
O175 O 0.92662 0.5211 0.57911 0.0
O176 O 0.94 0.53062 0.63069 0.0
O177 O 0.91317 0.47735 0.6096 0.0
O178 O 0.9227 0.49689 0.64336 0.0
C179 C 0.93434 0.53166 0.59993 0.0
C180 C 0.91823 0.48367 0.64176 0.0
O181 O 0.91311 0.49391 0.52299 0.0
Mg182 Mg 0.50468 0.42043 0.58909 0.0
O183 O 0.50105 0.43862 0.57795 0.0
O184 O 0.49384 0.44449 0.6307 0.0
Mg185 Mg 0.49143 0.42834 0.67569 0.0
C186 C 0.49734 0.44631 0.59553 0.0
C187 C 0.51523 0.43015 0.50847 0.0
O188 O 0.52253 0.44137 0.52939 0.0
O189 O 0.48151 0.4058 0.58708 0.0
O190 O 0.47365 0.4103 0.64103 0.0
O191 O 0.52621 0.43485 0.60928 0.0
O192 O 0.50762 0.42535 0.64689 0.0
C193 C 0.47159 0.40343 0.60997 0.0
C194 C 0.52084 0.43372 0.64292 0.0
O195 O 0.50669 0.41881 0.52493 0.0
Mg196 Mg 0.58461 0.08627 0.59526 0.0
O197 O 0.56599 0.06469 0.58325 0.0
O198 O 0.56213 0.0505 0.63266 0.0
Mg199 Mg 0.57887 0.0635 0.67707 0.0
C200 C 0.55905 0.05282 0.59935 0.0
C201 C 0.57341 0.08961 0.51946 0.0
O202 O 0.56302 0.08613 0.54336 0.0
O203 O 0.59915 0.07785 0.58561 0.0
O204 O 0.59607 0.06459 0.63692 0.0
O205 O 0.57059 0.09277 0.62136 0.0
O206 O 0.58073 0.08301 0.65359 0.0
C207 C 0.6021 0.06994 0.60515 0.0
C208 C 0.57205 0.08759 0.65305 0.0
O209 O 0.58484 0.09116 0.5322 0.0
Mg210 Mg 0.83196 0.58128 0.58419 0.0
O211 O 0.83545 0.60315 0.59465 0.0
O212 O 0.84428 0.61636 0.54271 0.0
Mg213 Mg 0.84672 0.6025 0.49828 0.0
C214 C 0.8399 0.6147 0.57712 0.0
C215 C 0.82048 0.58033 0.66423 0.0
O216 O 0.814 0.58519 0.64331 0.0
O217 O 0.85515 0.58962 0.58911 0.0
O218 O 0.86373 0.60184 0.53522 0.0
O219 O 0.8108 0.57446 0.5616 0.0
O220 O 0.82989 0.58347 0.52598 0.0
C221 C 0.86536 0.59705 0.56688 0.0
C222 C 0.81666 0.57881 0.52853 0.0
O223 O 0.82882 0.57718 0.64811 0.0
Mg224 Mg 0.42185 0.25001 0.59234 0.0
O225 O 0.39962 0.23265 0.60543 0.0
O226 O 0.38602 0.22842 0.55438 0.0
Mg227 Mg 0.39981 0.24389 0.50846 0.0
C228 C 0.38782 0.22589 0.58885 0.0
C229 C 0.42302 0.24024 0.6733 0.0
O230 O 0.41726 0.22852 0.65381 0.0
O231 O 0.41488 0.26594 0.59708 0.0
O232 O 0.40173 0.26219 0.54506 0.0
O233 O 0.42704 0.23438 0.57023 0.0
O234 O 0.41858 0.24501 0.53474 0.0
C235 C 0.40731 0.26886 0.5759 0.0
C236 C 0.42237 0.23575 0.53754 0.0
O237 O 0.42673 0.25163 0.65583 0.0
Mg238 Mg 0.74868 0.17065 0.56584 0.0
O239 O 0.76781 0.16843 0.57605 0.0
O240 O 0.77258 0.16023 0.52341 0.0
Mg241 Mg 0.75635 0.15769 0.47859 0.0
C242 C 0.7752 0.16443 0.558 0.0
C243 C 0.74864 0.1838 0.64404 0.0
O244 O 0.75034 0.19389 0.62094 0.0
O245 O 0.73491 0.14729 0.56872 0.0
O246 O 0.73894 0.13959 0.51382 0.0
O247 O 0.7622 0.19228 0.5453 0.0
O248 O 0.75311 0.17365 0.50785 0.0
C249 C 0.73252 0.13739 0.54573 0.0
C250 C 0.76108 0.18696 0.51162 0.0
O251 O 0.74714 0.17256 0.6299 0.0
Mg252 Mg 0.426 0.17871 0.09007 0.0
O253 O 0.40366 0.17424 0.0927 0.0
O254 O 0.39303 0.16692 0.03647 0.0
Mg255 Mg 0.40968 0.16739 0.99602 0.0
C256 C 0.39292 0.16996 0.07162 0.0
C257 C 0.42269 0.18743 0.16986 0.0
O258 O 0.41952 0.19493 0.14729 0.0
O259 O 0.41779 0.15539 0.08926 0.0
O260 O 0.40953 0.14939 0.02963 0.0
O261 O 0.43328 0.20063 0.07218 0.0
O262 O 0.42678 0.18295 0.03217 0.0
C263 C 0.41228 0.14637 0.06258 0.0
C264 C 0.4308 0.19594 0.03748 0.0
O265 O 0.42645 0.17935 0.15499 0.0
Mg266 Mg 0.81927 0.24354 0.07076 0.0
O267 O 0.82316 0.2254 0.07872 0.0
O268 O 0.83295 0.22236 0.0267 0.0
Mg269 Mg 0.83509 0.23913 0.9842 0.0
C270 C 0.82818 0.21893 0.0606 0.0
C271 C 0.81299 0.2508 0.15397 0.0
O272 O 0.81137 0.26039 0.13643 0.0
O273 O 0.84228 0.25879 0.07726 0.0
O274 O 0.85159 0.25654 0.02289 0.0
O275 O 0.79841 0.22907 0.04645 0.0
O276 O 0.81775 0.24043 0.01215 0.0
C277 C 0.85275 0.26232 0.05538 0.0
C278 C 0.80459 0.23144 0.01358 0.0
O279 O 0.81606 0.24298 0.13472 0.0
Mg280 Mg 0.75197 0.57078 0.08469 0.0
O281 O 0.76992 0.59318 0.09052 0.0
O282 O 0.77289 0.60459 0.03564 0.0
Mg283 Mg 0.75623 0.58916 0.99454 0.0
C284 C 0.77632 0.60419 0.07023 0.0
C285 C 0.75509 0.5604 0.16469 0.0
O286 O 0.75762 0.55225 0.14287 0.0
O287 O 0.73639 0.57826 0.08785 0.0
O288 O 0.73895 0.58909 0.03194 0.0
O289 O 0.76693 0.56449 0.06342 0.0
O290 O 0.75531 0.57139 0.02631 0.0
C291 C 0.73304 0.58495 0.0645 0.0
C292 C 0.76461 0.56769 0.02966 0.0
O293 O 0.752 0.56887 0.14918 0.0
Mg294 Mg 0.50669 0.08684 0.09623 0.0
O295 O 0.50362 0.06526 0.08494 0.0
O296 O 0.49431 0.05137 0.13541 0.0
Mg297 Mg 0.49177 0.06484 0.18099 0.0
C298 C 0.49902 0.05349 0.1013 0.0
C299 C 0.52027 0.08919 0.02001 0.0
O300 O 0.52737 0.08621 0.04456 0.0
O301 O 0.48337 0.07808 0.0902 0.0
O302 O 0.47505 0.06602 0.14447 0.0
O303 O 0.52778 0.09387 0.12015 0.0
O304 O 0.50842 0.08427 0.15455 0.0
C305 C 0.47325 0.0707 0.11284 0.0
C306 C 0.52169 0.08906 0.15267 0.0
O307 O 0.5104 0.09087 0.03236 0.0
Mg308 Mg 0.89678 0.41249 0.08726 0.0
O309 O 0.91881 0.43107 0.08301 0.0
O310 O 0.93075 0.43437 0.13693 0.0
Mg311 Mg 0.91571 0.41667 0.17652 0.0
C312 C 0.92988 0.43786 0.10272 0.0
C313 C 0.89834 0.42606 0.01087 0.0
O314 O 0.90073 0.43584 0.03597 0.0
O315 O 0.90537 0.39785 0.08127 0.0
O316 O 0.91649 0.40041 0.13665 0.0
O317 O 0.88952 0.42634 0.11113 0.0
O318 O 0.8973 0.41498 0.14619 0.0
C319 C 0.91251 0.39477 0.10372 0.0
C320 C 0.89308 0.42392 0.14426 0.0
O321 O 0.89535 0.41404 0.02282 0.0
Mg322 Mg 0.5796 0.48764 0.08558 0.0
O323 O 0.56182 0.49151 0.06975 0.0
O324 O 0.55715 0.50124 0.11918 0.0
Mg325 Mg 0.57216 0.50344 0.1672 0.0
C326 C 0.55482 0.49652 0.08507 0.0
C327 C 0.57829 0.47299 0.00788 0.0
O328 O 0.57319 0.46196 0.03013 0.0
O329 O 0.59507 0.51063 0.08114 0.0
O330 O 0.59098 0.52005 0.1325 0.0
O331 O 0.56414 0.46669 0.10767 0.0
O332 O 0.57404 0.48595 0.14264 0.0
C333 C 0.59789 0.52113 0.10214 0.0
C334 C 0.56506 0.47282 0.13998 0.0
O335 O 0.58221 0.48487 0.02257 0.0
Mg336 Mg 0.57058 0.81889 0.92757 0.0
O337 O 0.59228 0.8221 0.91716 0.0
O338 O 0.60491 0.8297 0.97052 0.0
Mg339 Mg 0.59065 0.8309 0.0162 0.0
C340 C 0.60364 0.82614 0.93538 0.0
C341 C 0.55914 0.80668 0.84652 0.0
O342 O 0.55155 0.79543 0.86709 0.0
O343 O 0.57958 0.84233 0.92743 0.0
O344 O 0.59065 0.84901 0.98357 0.0
O345 O 0.56327 0.797 0.94669 0.0
O346 O 0.57193 0.81534 0.98504 0.0
C347 C 0.58664 0.85175 0.95214 0.0
C348 C 0.56724 0.80219 0.98059 0.0
O349 O 0.56758 0.81798 0.86327 0.0
Mg350 Mg 0.1755 0.74853 0.9203 0.0
O351 O 0.17169 0.76672 0.91015 0.0
O352 O 0.16225 0.77064 0.96152 0.0
Mg353 Mg 0.15961 0.7541 0.00525 0.0
C354 C 0.16693 0.77359 0.92744 0.0
C355 C 0.18839 0.76033 0.84339 0.0
O356 O 0.19522 0.77069 0.8674 0.0
O357 O 0.15243 0.73339 0.91361 0.0
O358 O 0.14313 0.73672 0.96655 0.0
O359 O 0.19633 0.76306 0.94439 0.0
O360 O 0.17695 0.75243 0.97873 0.0
C361 C 0.14194 0.73048 0.93482 0.0
C362 C 0.19011 0.76139 0.97692 0.0
O363 O 0.17922 0.74855 0.85642 0.0
Mg364 Mg 0.24555 0.43001 0.93245 0.0
O365 O 0.22635 0.40845 0.92749 0.0
O366 O 0.22126 0.39718 0.98315 0.0
Mg367 Mg 0.23786 0.4124 0.02522 0.0
C368 C 0.21876 0.39772 0.94778 0.0
C369 C 0.23525 0.42822 0.85057 0.0
O370 O 0.22438 0.42594 0.87116 0.0
O371 O 0.25912 0.42004 0.93438 0.0
O372 O 0.25499 0.41049 0.99269 0.0
O373 O 0.23215 0.43888 0.94935 0.0
O374 O 0.24149 0.43058 0.99008 0.0
C375 C 0.26136 0.41337 0.96057 0.0
C376 C 0.23347 0.43571 0.98414 0.0
O377 O 0.24649 0.43097 0.86751 0.0
Mg378 Mg 0.49025 0.90805 0.90187 0.0
O379 O 0.49306 0.92961 0.91032 0.0
O380 O 0.50225 0.94243 0.85787 0.0
Mg381 Mg 0.50426 0.92805 0.81392 0.0
C382 C 0.49769 0.94104 0.89206 0.0
C383 C 0.47608 0.89593 0.97994 0.0
O384 O 0.46586 0.88785 0.95673 0.0
O385 O 0.5136 0.91728 0.90657 0.0
O386 O 0.52157 0.92761 0.84981 0.0
O387 O 0.46884 0.90046 0.87939 0.0
O388 O 0.48787 0.90934 0.84359 0.0
C389 C 0.52351 0.92389 0.88279 0.0
C390 C 0.47461 0.90448 0.84611 0.0
O391 O 0.48771 0.90499 0.96594 0.0
Mg392 Mg 0.07919 0.57499 0.90982 0.0
O393 O 0.05704 0.55783 0.9239 0.0
O394 O 0.04317 0.55399 0.87373 0.0
Mg395 Mg 0.05691 0.56905 0.82673 0.0
C396 C 0.0451 0.55134 0.90795 0.0
C397 C 0.08139 0.56564 0.99083 0.0
O398 O 0.0754 0.55377 0.97204 0.0
O399 O 0.07257 0.59114 0.91472 0.0
O400 O 0.05986 0.58805 0.86217 0.0
O401 O 0.08423 0.55933 0.88729 0.0
O402 O 0.07572 0.57 0.8522 0.0
C403 C 0.06552 0.5946 0.89311 0.0
C404 C 0.07969 0.56087 0.85457 0.0
O405 O 0.0846 0.57684 0.97299 0.0
Mg406 Mg 0.41483 0.50139 0.89312 0.0
O407 O 0.43296 0.49762 0.90318 0.0
O408 O 0.4354 0.48673 0.85264 0.0
Mg409 Mg 0.41892 0.48438 0.80868 0.0
C410 C 0.43911 0.49206 0.88592 0.0
C411 C 0.41692 0.5176 0.96699 0.0
O412 O 0.41807 0.5267 0.94104 0.0
O413 O 0.39976 0.47844 0.90223 0.0
O414 O 0.40098 0.46863 0.84745 0.0
O415 O 0.42935 0.52195 0.86734 0.0
O416 O 0.41821 0.50224 0.83462 0.0
C417 C 0.3957 0.46785 0.88051 0.0
C418 C 0.42725 0.51539 0.83521 0.0
O419 O 0.41495 0.50579 0.95629 0.0
Mg420 Mg 0.09873 0.51257 0.40866 0.0
O421 O 0.07679 0.5092 0.41245 0.0
O422 O 0.06565 0.50134 0.35702 0.0
Mg423 Mg 0.08137 0.50011 0.31639 0.0
C424 C 0.06598 0.50508 0.3917 0.0
C425 C 0.10642 0.52533 0.49048 0.0
O426 O 0.11385 0.5367 0.47025 0.0
O427 O 0.08993 0.48917 0.41043 0.0
O428 O 0.08091 0.48231 0.35188 0.0
O429 O 0.10626 0.53431 0.38826 0.0
O430 O 0.09907 0.51598 0.35033 0.0
C431 C 0.08392 0.47973 0.38503 0.0
C432 C 0.10324 0.52906 0.35419 0.0
O433 O 0.09955 0.51372 0.47338 0.0
Mg434 Mg 0.49145 0.58232 0.3905 0.0
O435 O 0.49386 0.56319 0.39519 0.0
O436 O 0.50521 0.56152 0.34453 0.0
Mg437 Mg 0.50782 0.57893 0.30348 0.0
C438 C 0.49931 0.55717 0.37693 0.0
C439 C 0.47743 0.56852 0.46523 0.0
O440 O 0.4705 0.55884 0.43948 0.0
O441 O 0.51468 0.59614 0.40039 0.0
O442 O 0.52405 0.59544 0.34428 0.0
O443 O 0.47074 0.56954 0.36364 0.0
O444 O 0.49059 0.58042 0.33139 0.0
C445 C 0.52518 0.60012 0.37829 0.0
C446 C 0.47728 0.57205 0.33135 0.0
O447 O 0.48703 0.58044 0.45424 0.0
Mg448 Mg 0.41568 0.91112 0.40097 0.0
O449 O 0.4348 0.93234 0.41299 0.0
O450 O 0.43926 0.94643 0.36293 0.0
Mg451 Mg 0.42265 0.93371 0.31792 0.0
C452 C 0.44209 0.9441 0.39655 0.0
C453 C 0.42581 0.90672 0.47757 0.0
O454 O 0.43629 0.90979 0.45436 0.0
O455 O 0.40176 0.92038 0.40909 0.0
O456 O 0.40547 0.93333 0.35666 0.0
O457 O 0.42914 0.90371 0.37576 0.0
O458 O 0.41974 0.91398 0.34263 0.0
C459 C 0.39921 0.92834 0.38843 0.0
C460 C 0.42791 0.90881 0.34365 0.0
O461 O 0.41485 0.90613 0.46423 0.0
Mg462 Mg 0.17447 0.41342 0.41976 0.0
O463 O 0.17007 0.39154 0.40553 0.0
O464 O 0.16028 0.37764 0.45584 0.0
Mg465 Mg 0.15923 0.39127 0.50372 0.0
C466 C 0.16476 0.37961 0.42149 0.0
C467 C 0.17592 0.42786 0.34056 0.0
O468 O 0.17296 0.43588 0.36155 0.0
O469 O 0.15139 0.40615 0.41611 0.0
O470 O 0.14287 0.39414 0.47032 0.0
O471 O 0.19558 0.41906 0.44181 0.0
O472 O 0.17647 0.41021 0.47717 0.0
C473 C 0.14132 0.39932 0.43931 0.0
C474 C 0.1896 0.41444 0.47463 0.0
O475 O 0.17725 0.41826 0.35642 0.0
Mg476 Mg 0.57999 0.75351 0.42898 0.0
O477 O 0.60214 0.7712 0.41797 0.0
O478 O 0.615 0.77587 0.47074 0.0
Mg479 Mg 0.60048 0.76091 0.51683 0.0
C480 C 0.61368 0.77815 0.43565 0.0
C481 C 0.57982 0.76244 0.34594 0.0
O482 O 0.58521 0.77438 0.36432 0.0
O483 O 0.58784 0.73813 0.42842 0.0
O484 O 0.59906 0.74211 0.48422 0.0
O485 O 0.57352 0.76864 0.44813 0.0
O486 O 0.58199 0.75879 0.48644 0.0
C487 C 0.59459 0.73529 0.45298 0.0
C488 C 0.57756 0.76748 0.48198 0.0
O489 O 0.57612 0.75131 0.36475 0.0
Mg490 Mg 0.24939 0.82923 0.42032 0.0
O491 O 0.23106 0.83294 0.41184 0.0
O492 O 0.2273 0.84194 0.46444 0.0
Mg493 Mg 0.24396 0.84422 0.50731 0.0
C494 C 0.22423 0.83753 0.43014 0.0
C495 C 0.23771 0.81707 0.34245 0.0
O496 O 0.22709 0.8103 0.36576 0.0
O497 O 0.26431 0.85237 0.41482 0.0
O498 O 0.26126 0.86113 0.46921 0.0
O499 O 0.2351 0.80812 0.44316 0.0
O500 O 0.24562 0.82719 0.47878 0.0
C501 C 0.26734 0.86266 0.43701 0.0
C502 C 0.23682 0.814 0.47625 0.0
O503 O 0.24944 0.82601 0.35623 0.0
H504 H 0.22495 0.12032 0.80075 0.0
H505 H 0.2225 0.13338 0.85425 0.0
H506 H 0.23146 0.10919 0.93386 0.0
H507 H 0.23383 0.09611 0.88123 0.0
H508 H 0.20395 0.11462 0.93902 0.0
H509 H 0.25887 0.15854 0.93753 0.0
H510 H 0.24938 0.1505 0.89408 0.0
H511 H 0.25552 0.14144 0.92355 0.0
C512 C 0.22639 0.1178 0.82969 0.0
C513 C 0.22969 0.10725 0.83679 0.0
C514 C 0.22498 0.12525 0.86006 0.0
C515 C 0.22683 0.12219 0.89771 0.0
C516 C 0.23003 0.11166 0.90484 0.0
H517 H 0.23986 0.13483 0.12311 0.0
H518 H 0.23872 0.13245 0.05391 0.0
C519 C 0.23145 0.10425 0.8747 0.0
C520 C 0.22558 0.12984 0.93046 0.0
H521 H 0.24622 0.15449 0.99545 0.0
C522 C 0.21301 0.12367 0.95093 0.0
C523 C 0.23747 0.14157 0.9456 0.0
C524 C 0.25112 0.14852 0.92413 0.0
C525 C 0.21236 0.12822 0.9879 0.0
C526 C 0.2246 0.13918 0.0044 0.0
C527 C 0.23685 0.1461 0.98256 0.0
C528 C 0.22565 0.14164 0.04602 0.0
C529 C 0.19897 0.12048 0.01039 0.0
C530 C 0.21872 0.14771 0.0644 0.0
C531 C 0.21933 0.14909 0.10426 0.0
C532 C 0.22683 0.14436 0.12608 0.0
C533 C 0.23391 0.13851 0.10726 0.0
C534 C 0.23335 0.1372 0.06767 0.0
H535 H 0.19053 0.11183 0.99374 0.0
H536 H 0.20081 0.11611 0.03688 0.0
H537 H 0.19538 0.12783 0.01898 0.0
H538 H 0.21278 0.15125 0.048 0.0
H539 H 0.21381 0.15369 0.11796 0.0
H540 H 0.88117 0.11317 0.81785 0.0
H541 H 0.86933 0.0998 0.87528 0.0
H542 H 0.89052 0.1373 0.94298 0.0
H543 H 0.9023 0.15071 0.88599 0.0
H544 H 0.88198 0.09676 0.94039 0.0
H545 H 0.84988 0.1207 0.97631 0.0
H546 H 0.85774 0.12255 0.92986 0.0
H547 H 0.86789 0.13349 0.96896 0.0
C548 C 0.88317 0.11859 0.8449 0.0
C549 C 0.89261 0.13302 0.84735 0.0
C550 C 0.87641 0.11094 0.87763 0.0
C551 C 0.8789 0.11761 0.9132 0.0
C552 C 0.88822 0.13201 0.91564 0.0
H553 H 0.87764 0.09324 0.14271 0.0
H554 H 0.88234 0.099 0.07504 0.0
C555 C 0.89498 0.13966 0.88302 0.0
C556 C 0.87248 0.10949 0.94835 0.0
H557 H 0.85405 0.10868 0.02729 0.0
C558 C 0.87567 0.09919 0.95916 0.0
C559 C 0.86407 0.1125 0.97241 0.0
C560 C 0.85956 0.12281 0.96113 0.0
C561 C 0.87133 0.09238 0.99454 0.0
C562 C 0.86382 0.09617 0.01985 0.0
C563 C 0.85994 0.10589 0.00803 0.0
C564 C 0.8607 0.09101 0.05967 0.0
C565 C 0.87498 0.08134 0.00466 0.0
C566 C 0.84698 0.08464 0.07355 0.0
C567 C 0.84427 0.08146 0.11234 0.0
C568 C 0.85526 0.08468 0.13797 0.0
C569 C 0.86893 0.09058 0.12373 0.0
C570 C 0.87163 0.09379 0.08496 0.0
H571 H 0.8764 0.07644 0.97861 0.0
H572 H 0.88496 0.08623 0.02072 0.0
H573 H 0.86678 0.07306 0.0228 0.0
H574 H 0.83841 0.08248 0.05452 0.0
H575 H 0.83361 0.07689 0.12238 0.0
H576 H 0.90778 0.78779 0.12999 0.0
H577 H 0.90137 0.78744 0.06305 0.0
H578 H 0.91277 0.75625 0.03861 0.0
H579 H 0.91894 0.75628 0.10575 0.0
H580 H 0.91511 0.79156 0.99291 0.0
H581 H 0.87146 0.73698 0.00979 0.0
H582 H 0.88113 0.74762 0.05 0.0
H583 H 0.88852 0.73969 0.02037 0.0
C584 C 0.9091 0.78097 0.11033 0.0
C585 C 0.91365 0.77189 0.12328 0.0
C586 C 0.90546 0.78082 0.07206 0.0
C587 C 0.90635 0.77162 0.04613 0.0
C588 C 0.91175 0.7632 0.05841 0.0
H589 H 0.88418 0.77084 0.80376 0.0
H590 H 0.89742 0.77226 0.86141 0.0
C591 C 0.9153 0.76328 0.09674 0.0
C592 C 0.9006 0.77016 0.00718 0.0
H593 H 0.87392 0.74747 0.94981 0.0
C594 C 0.90619 0.7819 0.98322 0.0
C595 C 0.88888 0.75755 0.99496 0.0
C596 C 0.88204 0.74476 0.02015 0.0
C597 C 0.90015 0.78146 0.94761 0.0
C598 C 0.88835 0.76889 0.93561 0.0
C599 C 0.88301 0.75706 0.95912 0.0
C600 C 0.88058 0.76805 0.90043 0.0
C601 C 0.90603 0.7946 0.92391 0.0
C602 C 0.86668 0.76494 0.90333 0.0
C603 C 0.85908 0.76401 0.87062 0.0
C604 C 0.86524 0.76614 0.83431 0.0
C605 C 0.87917 0.7692 0.83139 0.0
C606 C 0.88677 0.77009 0.86424 0.0
H607 H 0.91339 0.80399 0.9405 0.0
H608 H 0.91177 0.79365 0.89914 0.0
H609 H 0.89753 0.79616 0.91269 0.0
H610 H 0.86172 0.76333 0.93104 0.0
H611 H 0.84842 0.76174 0.87389 0.0
H612 H 0.15279 0.22811 0.37771 0.0
H613 H 0.15146 0.2324 0.44606 0.0
H614 H 0.12171 0.24568 0.42132 0.0
H615 H 0.12297 0.24151 0.3535 0.0
H616 H 0.14528 0.2641 0.471 0.0
H617 H 0.11672 0.2083 0.51664 0.0
H618 H 0.13228 0.21445 0.4882 0.0
H619 H 0.11693 0.2133 0.46741 0.0
C620 C 0.14593 0.23188 0.38692 0.0
C621 C 0.13793 0.2344 0.36023 0.0
C622 C 0.14518 0.23432 0.42588 0.0
C623 C 0.13645 0.23931 0.43855 0.0
C624 C 0.12852 0.24185 0.41199 0.0
H625 H 0.09886 0.25806 0.61631 0.0
H626 H 0.11113 0.25729 0.5594 0.0
C627 C 0.12922 0.23939 0.37325 0.0
C628 C 0.1353 0.24187 0.47942 0.0
H629 H 0.11916 0.22505 0.56172 0.0
C630 C 0.1398 0.2556 0.49113 0.0
C631 C 0.12828 0.23076 0.50554 0.0
C632 C 0.12319 0.21583 0.49406 0.0
C633 C 0.1368 0.25845 0.52784 0.0
C634 C 0.12887 0.24724 0.55303 0.0
C635 C 0.1252 0.23361 0.54221 0.0
C636 C 0.12281 0.24917 0.5886 0.0
C637 C 0.14179 0.27339 0.5389 0.0
C638 C 0.12523 0.24476 0.62389 0.0
C639 C 0.11818 0.24516 0.6566 0.0
C640 C 0.10848 0.24983 0.65438 0.0
C641 C 0.10634 0.25453 0.61913 0.0
C642 C 0.11342 0.25417 0.58655 0.0
H643 H 0.15135 0.28071 0.52281 0.0
H644 H 0.13356 0.27598 0.53188 0.0
H645 H 0.14401 0.27507 0.56999 0.0
H646 H 0.13235 0.24074 0.62594 0.0
H647 H 0.12003 0.24142 0.68335 0.0
H648 H 0.75413 0.90296 0.37381 0.0
H649 H 0.7538 0.89956 0.44256 0.0
H650 H 0.79298 0.93802 0.45345 0.0
H651 H 0.79342 0.94156 0.38401 0.0
H652 H 0.79247 0.91477 0.48752 0.0
H653 H 0.74675 0.91866 0.53341 0.0
H654 H 0.74289 0.90756 0.49248 0.0
H655 H 0.75569 0.92581 0.48869 0.0
C656 C 0.76263 0.91081 0.39075 0.0
C657 C 0.77385 0.92251 0.37344 0.0
C658 C 0.76234 0.90892 0.43015 0.0
C659 C 0.77323 0.91867 0.45314 0.0
C660 C 0.78439 0.93048 0.43616 0.0
H661 H 0.76767 0.89349 0.69594 0.0
H662 H 0.7723 0.90934 0.64166 0.0
C663 C 0.78463 0.93246 0.39656 0.0
C664 C 0.77349 0.9155 0.49407 0.0
H665 H 0.75254 0.90414 0.57294 0.0
C666 C 0.78397 0.91283 0.50663 0.0
C667 C 0.76246 0.91311 0.51907 0.0
C668 C 0.75139 0.91658 0.50785 0.0
C669 C 0.78301 0.90666 0.54229 0.0
C670 C 0.77128 0.90304 0.56568 0.0
C671 C 0.76144 0.90681 0.55464 0.0
C672 C 0.76813 0.89367 0.59875 0.0
C673 C 0.79414 0.90331 0.55388 0.0
C674 C 0.76398 0.87963 0.59229 0.0
C675 C 0.76123 0.87058 0.62292 0.0
C676 C 0.76262 0.87543 0.66068 0.0
C677 C 0.76653 0.88947 0.66714 0.0
C678 C 0.76919 0.89853 0.63629 0.0
H679 H 0.80399 0.90971 0.5378 0.0
H680 H 0.79633 0.90505 0.58497 0.0
H681 H 0.79042 0.89214 0.54778 0.0
H682 H 0.76298 0.8757 0.56341 0.0
H683 H 0.7583 0.85986 0.61692 0.0
H684 H 0.1137 0.87945 0.69056 0.0
H685 H 0.10006 0.86784 0.63321 0.0
H686 H 0.1365 0.89195 0.56328 0.0
H687 H 0.15014 0.9035 0.62 0.0
H688 H 0.09525 0.88052 0.57054 0.0
H689 H 0.12213 0.8521 0.52554 0.0
H690 H 0.1238 0.85911 0.57311 0.0
H691 H 0.13418 0.87021 0.53449 0.0
C692 C 0.11883 0.88215 0.66298 0.0
C693 C 0.13303 0.89231 0.65985 0.0
C694 C 0.11102 0.87552 0.63031 0.0
C695 C 0.11734 0.87887 0.59415 0.0
C696 C 0.13151 0.88897 0.59103 0.0
H697 H 0.09273 0.88172 0.36883 0.0
H698 H 0.09763 0.88446 0.43721 0.0
C699 C 0.13929 0.89559 0.62353 0.0
C700 C 0.1091 0.87254 0.55914 0.0
H701 H 0.1096 0.85656 0.47639 0.0
C702 C 0.09818 0.87503 0.5502 0.0
C703 C 0.11277 0.86516 0.53302 0.0
C704 C 0.12377 0.86135 0.54219 0.0
C705 C 0.09145 0.87116 0.51461 0.0
C706 C 0.09598 0.86488 0.48721 0.0
C707 C 0.10624 0.86154 0.49722 0.0
C708 C 0.09113 0.86272 0.44703 0.0
C709 C 0.07976 0.87407 0.50651 0.0
C710 C 0.0859 0.8496 0.42973 0.0
C711 C 0.08326 0.84804 0.39049 0.0
C712 C 0.08587 0.8596 0.36781 0.0
C713 C 0.09057 0.8726 0.38548 0.0
C714 C 0.09327 0.87416 0.42469 0.0
H715 H 0.07441 0.87415 0.53329 0.0
H716 H 0.08414 0.88452 0.49314 0.0
H717 H 0.07194 0.8662 0.48672 0.0
H718 H 0.08426 0.84066 0.44642 0.0
H719 H 0.0796 0.83787 0.37777 0.0
H720 H 0.76301 0.90436 0.11747 0.0
H721 H 0.76475 0.89204 0.06187 0.0
H722 H 0.77621 0.86792 0.13454 0.0
H723 H 0.77439 0.88018 0.19081 0.0
H724 H 0.78981 0.89076 0.04014 0.0
H725 H 0.74255 0.83891 0.06626 0.0
H726 H 0.74468 0.85466 0.08799 0.0
H727 H 0.75483 0.8472 0.10465 0.0
C728 C 0.76578 0.89636 0.12181 0.0
C729 C 0.76848 0.89318 0.15858 0.0
C730 C 0.76683 0.88938 0.08997 0.0
C731 C 0.77054 0.87906 0.09423 0.0
C732 C 0.77321 0.87579 0.13082 0.0
H733 H 0.78763 0.85001 0.8764 0.0
H734 H 0.78962 0.85544 0.9449 0.0
C735 C 0.7722 0.88282 0.16284 0.0
C736 C 0.77175 0.87202 0.05982 0.0
H737 H 0.75407 0.84215 0.00752 0.0
C738 C 0.78219 0.88004 0.03319 0.0
C739 C 0.76174 0.85806 0.0511 0.0
C740 C 0.75024 0.84913 0.07879 0.0
C741 C 0.78246 0.87471 0.99705 0.0
C742 C 0.77208 0.86094 0.98763 0.0
C743 C 0.76206 0.85267 0.01503 0.0
C744 C 0.77025 0.85577 0.94789 0.0
C745 C 0.79327 0.88417 0.96837 0.0
C746 C 0.75846 0.85364 0.92742 0.0
C747 C 0.75728 0.85053 0.88855 0.0
C748 C 0.76787 0.84946 0.86934 0.0
C749 C 0.77935 0.85088 0.89033 0.0
C750 C 0.78053 0.85401 0.92939 0.0
H751 H 0.7993 0.89513 0.97855 0.0
H752 H 0.80071 0.8804 0.963 0.0
H753 H 0.78824 0.88401 0.94078 0.0
H754 H 0.75042 0.85494 0.94121 0.0
H755 H 0.74824 0.84937 0.87335 0.0
H756 H 0.09494 0.85489 0.11705 0.0
H757 H 0.10736 0.86961 0.0625 0.0
H758 H 0.12935 0.90501 0.13735 0.0
H759 H 0.11699 0.89026 0.19253 0.0
H760 H 0.10719 0.89513 0.04123 0.0
H761 H 0.16018 0.9031 0.07091 0.0
H762 H 0.14464 0.88881 0.09165 0.0
H763 H 0.15108 0.90623 0.10886 0.0
C764 C 0.10251 0.86576 0.12209 0.0
C765 C 0.10504 0.87139 0.15914 0.0
C766 C 0.10955 0.87417 0.09085 0.0
C767 C 0.11928 0.88834 0.09603 0.0
C768 C 0.12195 0.89404 0.13293 0.0
H769 H 0.14903 0.93796 0.88371 0.0
H770 H 0.14236 0.93293 0.95124 0.0
C771 C 0.11486 0.88562 0.16432 0.0
C772 C 0.12632 0.89704 0.06225 0.0
H773 H 0.15698 0.91172 0.01271 0.0
C774 C 0.11814 0.89902 0.03517 0.0
C775 C 0.14058 0.90201 0.0547 0.0
C776 C 0.1497 0.89993 0.08285 0.0
C777 C 0.12367 0.90524 -0.00027 0.0
C778 C 0.13781 0.90973 0.9915 0.0
C779 C 0.14617 0.90834 0.01934 0.0
C780 C 0.14346 0.91396 0.95244 0.0
C781 C 0.11414 0.90617 0.97049 0.0
C782 C 0.14671 0.9052 0.93134 0.0
C783 C 0.15051 0.90802 0.89302 0.0
C784 C 0.15117 0.91969 0.87502 0.0
C785 C 0.14852 0.92883 0.8967 0.0
C786 C 0.14469 0.92597 0.9352 0.0
H787 H 0.10303 0.90043 0.97958 0.0
H788 H 0.11723 0.91727 0.96607 0.0
H789 H 0.11507 0.90189 0.94264 0.0
H790 H 0.14583 0.89588 0.94417 0.0
H791 H 0.1526 0.90083 0.87728 0.0
H792 H 0.07255 0.22871 0.86846 0.0
H793 H 0.07293 0.2234 0.93646 0.0
H794 H 0.11721 0.25237 0.94005 0.0
H795 H 0.11698 0.25766 0.8725 0.0
H796 H 0.09024 0.21285 0.96773 0.0
H797 H 0.1011 0.26269 0.03439 0.0
H798 H 0.09361 0.25744 0.9872 0.0
H799 H 0.11211 0.26501 0.99406 0.0
C800 C 0.08234 0.23403 0.88389 0.0
C801 C 0.09476 0.24355 0.86517 0.0
C802 C 0.08251 0.231 0.92264 0.0
C803 C 0.09505 0.23766 0.94323 0.0
C804 C 0.10739 0.24732 0.92474 0.0
H805 H 0.13923 0.22532 0.11132 0.0
H806 H 0.12635 0.22615 0.05579 0.0
C807 C 0.10726 0.25023 0.88606 0.0
C808 C 0.09573 0.23382 0.98323 0.0
H809 H 0.1079 0.24847 0.07068 0.0
C810 C 0.09373 0.22049 0.99058 0.0
C811 C 0.10012 0.24377 0.01298 0.0
C812 C 0.10174 0.258 0.00693 0.0
C813 C 0.09721 0.21726 0.02617 0.0
C814 C 0.10283 0.22765 0.05475 0.0
C815 C 0.10367 0.24056 0.0485 0.0
C816 C 0.10978 0.22608 0.08878 0.0
C817 C 0.09552 0.20301 0.03234 0.0
C818 C 0.10474 0.2259 0.12567 0.0
C819 C 0.11207 0.22536 0.1576 0.0
C820 C 0.12466 0.2253 0.15289 0.0
C821 C 0.12959 0.22542 0.11584 0.0
C822 C 0.1222 0.22578 0.08409 0.0
H823 H 0.08762 0.19516 0.01264 0.0
H824 H 0.10563 0.20351 0.02675 0.0
H825 H 0.0924 0.19947 0.06227 0.0
H826 H 0.09523 0.22627 0.1297 0.0
H827 H 0.10807 0.22533 0.18587 0.0
H828 H 0.88225 0.76433 0.30069 0.0
H829 H 0.86905 0.76382 0.35764 0.0
H830 H 0.89228 0.74987 0.42538 0.0
H831 H 0.90548 0.75037 0.36906 0.0
H832 H 0.86192 0.73468 0.43596 0.0
H833 H 0.88642 0.79252 0.44771 0.0
H834 H 0.87889 0.78437 0.40265 0.0
H835 H 0.89422 0.78449 0.41971 0.0
C836 C 0.8845 0.76111 0.32771 0.0
C837 C 0.89489 0.75736 0.33037 0.0
C838 C 0.87698 0.76086 0.36015 0.0
C839 C 0.87978 0.75689 0.3956 0.0
C840 C 0.88997 0.75293 0.39817 0.0
H841 H 0.86923 0.75031 0.63074 0.0
H842 H 0.87273 0.74907 0.56247 0.0
C843 C 0.89749 0.75321 0.36591 0.0
C844 C 0.87243 0.75705 0.43062 0.0
H845 H 0.8723 0.77908 0.49864 0.0
C846 C 0.86397 0.74436 0.4494 0.0
C847 C 0.87505 0.7697 0.44778 0.0
C848 C 0.88418 0.7836 0.42869 0.0
C849 C 0.85863 0.74403 0.48592 0.0
C850 C 0.86208 0.75674 0.50424 0.0
C851 C 0.86975 0.76937 0.48445 0.0
C852 C 0.8594 0.75723 0.54539 0.0
C853 C 0.84973 0.73012 0.50516 0.0
C854 C 0.85098 0.76254 0.55837 0.0
C855 C 0.84896 0.7633 0.5976 0.0
C856 C 0.85551 0.75894 0.62428 0.0
C857 C 0.86403 0.75376 0.611 0.0
C858 C 0.86596 0.75293 0.57197 0.0
H859 H 0.84448 0.7216 0.48385 0.0
H860 H 0.85647 0.72768 0.52324 0.0
H861 H 0.84168 0.7303 0.52372 0.0
H862 H 0.84596 0.76604 0.53818 0.0
H863 H 0.84236 0.76737 0.60701 0.0
H864 H 0.21132 0.05507 0.62064 0.0
H865 H 0.21086 0.05692 0.55082 0.0
H866 H 0.24682 0.09829 0.55603 0.0
H867 H 0.2474 0.09654 0.62527 0.0
H868 H 0.20729 0.0772 0.51392 0.0
H869 H 0.25662 0.08065 0.46741 0.0
H870 H 0.24876 0.07363 0.51337 0.0
H871 H 0.25936 0.0922 0.50658 0.0
C872 C 0.21926 0.06446 0.6068 0.0
C873 C 0.22935 0.07569 0.62845 0.0
C874 C 0.219 0.06548 0.56697 0.0
C875 C 0.22895 0.07764 0.54827 0.0
C876 C 0.23925 0.08868 0.5698 0.0
H877 H 0.23534 0.13128 0.37946 0.0
H878 H 0.23315 0.11667 0.43413 0.0
C879 C 0.23946 0.08772 0.60946 0.0
C880 C 0.22777 0.0797 0.50701 0.0
H881 H 0.24763 0.0922 0.42644 0.0
C882 C 0.21592 0.08006 0.4944 0.0
C883 C 0.23899 0.08332 0.48149 0.0
C884 C 0.25158 0.08229 0.49281 0.0
C885 C 0.21556 0.08518 0.45805 0.0
C886 C 0.22734 0.09005 0.43402 0.0
C887 C 0.23867 0.08855 0.44522 0.0
C888 C 0.22888 0.09863 0.40021 0.0
C889 C 0.20298 0.08619 0.4464 0.0
C890 C 0.22739 0.0933 0.3631 0.0
C891 C 0.2286 0.10164 0.3316 0.0
C892 C 0.23147 0.11544 0.33699 0.0
C893 C 0.2332 0.12075 0.37429 0.0
C894 C 0.23189 0.11241 0.40558 0.0
H895 H 0.19369 0.0793 0.46403 0.0
H896 H 0.20532 0.09711 0.45015 0.0
H897 H 0.20046 0.08339 0.41581 0.0
H898 H 0.22511 0.08268 0.3586 0.0
H899 H 0.22722 0.09729 0.30316 0.0
H900 H 0.91652 0.15952 0.62291 0.0
H901 H 0.90984 0.15456 0.55563 0.0
H902 H 0.89232 0.11053 0.57696 0.0
H903 H 0.89918 0.11538 0.64401 0.0
H904 H 0.90677 0.11927 0.50775 0.0
H905 H 0.86882 0.13796 0.52511 0.0
H906 H 0.8866 0.1504 0.53685 0.0
H907 H 0.87715 0.13491 0.56529 0.0
C908 C 0.91142 0.14879 0.61318 0.0
C909 C 0.90821 0.13781 0.6389 0.0
C910 C 0.90755 0.14598 0.57479 0.0
C911 C 0.90033 0.13217 0.5616 0.0
C912 C 0.89782 0.12127 0.58669 0.0
H913 H 0.84141 0.09037 0.38539 0.0
H914 H 0.85454 0.10148 0.44334 0.0
C915 C 0.90173 0.12406 0.62501 0.0
C916 C 0.89462 0.12888 0.52238 0.0
H917 H 0.87004 0.12939 0.46461 0.0
C918 C 0.89884 0.1216 0.49807 0.0
C919 C 0.88417 0.13182 0.51017 0.0
C920 C 0.8788 0.1391 0.53573 0.0
C921 C 0.89266 0.11687 0.4621 0.0
C922 C 0.88215 0.11974 0.45002 0.0
C923 C 0.87817 0.12732 0.47394 0.0
C924 C 0.87425 0.11387 0.41423 0.0
C925 C 0.89696 0.10831 0.43813 0.0
C926 C 0.88094 0.11742 0.37857 0.0
C927 C 0.87345 0.11105 0.34531 0.0
C928 C 0.85914 0.10112 0.34724 0.0
C929 C 0.8524 0.09799 0.38289 0.0
C930 C 0.85989 0.10432 0.41606 0.0
H931 H 0.90309 0.10469 0.45483 0.0
H932 H 0.88767 0.09905 0.42601 0.0
H933 H 0.90353 0.11476 0.41401 0.0
H934 H 0.89197 0.12497 0.37653 0.0
H935 H 0.87892 0.11374 0.31821 0.0
H936 H 0.89068 0.44737 0.14702 0.0
H937 H 0.89244 0.46121 0.20383 0.0
H938 H 0.89801 0.43246 0.27451 0.0
H939 H 0.89631 0.41863 0.21828 0.0
H940 H 0.87671 0.44188 0.29837 0.0
H941 H 0.93144 0.48344 0.26734 0.0
H942 H 0.91849 0.47708 0.22992 0.0
H943 H 0.92455 0.466 0.24867 0.0
C944 C 0.89219 0.44396 0.17472 0.0
C945 C 0.89347 0.43198 0.17824 0.0
C946 C 0.8932 0.45187 0.20701 0.0
C947 C 0.89538 0.44781 0.24308 0.0
C948 C 0.89632 0.43571 0.24676 0.0
H949 H 0.92362 0.47005 0.46315 0.0
H950 H 0.91786 0.46335 0.39636 0.0
C951 C 0.89542 0.42787 0.21461 0.0
C952 C 0.89724 0.45632 0.27729 0.0
H953 H 0.92258 0.48331 0.32853 0.0
C954 C 0.88658 0.45117 0.30473 0.0
C955 C 0.91018 0.46835 0.28521 0.0
C956 C 0.9219 0.47413 0.25641 0.0
C957 C 0.88881 0.45735 0.34093 0.0
C958 C 0.90203 0.46889 0.34962 0.0
C959 C 0.91244 0.4745 0.32147 0.0
C960 C 0.90591 0.47378 0.38926 0.0
C961 C 0.87741 0.451 0.37058 0.0
C962 C 0.90115 0.48198 0.40703 0.0
C963 C 0.90446 0.48589 0.44533 0.0
C964 C 0.91247 0.48153 0.46623 0.0
C965 C 0.91735 0.47349 0.44795 0.0
C966 C 0.91413 0.4697 0.40977 0.0
H967 H 0.86779 0.44185 0.3594 0.0
H968 H 0.88112 0.44766 0.39577 0.0
H969 H 0.87477 0.45893 0.3805 0.0
H970 H 0.89481 0.48523 0.39142 0.0
H971 H 0.90058 0.49211 0.45869 0.0
H972 H 0.56523 0.4829 0.21105 0.0
H973 H 0.55082 0.47023 0.26566 0.0
H974 H 0.5299 0.43269 0.19809 0.0
H975 H 0.54431 0.44538 0.14267 0.0
H976 H 0.51978 0.4539 0.27017 0.0
H977 H 0.54648 0.42312 0.29497 0.0
H978 H 0.55458 0.43893 0.26692 0.0
H979 H 0.53999 0.42346 0.248 0.0
C980 C 0.55748 0.47201 0.20748 0.0
C981 C 0.55589 0.46516 0.17247 0.0
C982 C 0.54926 0.46478 0.23877 0.0
C983 C 0.53937 0.45055 0.2358 0.0
C984 C 0.53756 0.44366 0.20085 0.0
H985 H 0.50415 0.40875 0.45626 0.0
H986 H 0.50653 0.41073 0.38635 0.0
C987 C 0.54578 0.45093 0.16931 0.0
C988 C 0.53145 0.44311 0.27022 0.0
H989 H 0.53242 0.42364 0.3444 0.0
C990 C 0.52224 0.44698 0.28603 0.0
C991 C 0.53462 0.43401 0.29055 0.0
C992 C 0.54447 0.42959 0.27452 0.0
C993 C 0.51689 0.44279 0.32297 0.0
C994 C 0.52108 0.43475 0.34465 0.0
C995 C 0.52931 0.42987 0.32764 0.0
C996 C 0.51895 0.43327 0.3864 0.0
C997 C 0.50736 0.44758 0.33921 0.0
C998 C 0.52536 0.44526 0.40929 0.0
C999 C 0.52415 0.44417 0.4489 0.0
C1000 C 0.51651 0.43105 0.46645 0.0
C1001 C 0.51009 0.419 0.44348 0.0
C1002 C 0.5114 0.4201 0.40366 0.0
H1003 H 0.50159 0.44947 0.3162 0.0
H1004 H 0.49973 0.4398 0.35955 0.0
H1005 H 0.51371 0.45756 0.35476 0.0
H1006 H 0.53149 0.45549 0.39649 0.0
H1007 H 0.52921 0.45365 0.46571 0.0
H1008 H 0.5923 0.09598 0.46119 0.0
H1009 H 0.58795 0.09612 0.39237 0.0
H1010 H 0.5455 0.08541 0.41607 0.0
H1011 H 0.54966 0.08523 0.48436 0.0
H1012 H 0.55099 0.06779 0.35901 0.0
H1013 H 0.57954 0.12525 0.33296 0.0
H1014 H 0.58754 0.1174 0.36072 0.0
H1015 H 0.57296 0.11823 0.37989 0.0
C1016 C 0.58208 0.09377 0.45169 0.0
C1017 C 0.57132 0.09059 0.47818 0.0
C1018 C 0.57964 0.09386 0.41248 0.0
C1019 C 0.56643 0.09078 0.39945 0.0
C1020 C 0.55576 0.0878 0.42578 0.0
H1021 H 0.51181 0.08019 0.22463 0.0
H1022 H 0.52483 0.07985 0.28029 0.0
C1023 C 0.55818 0.08774 0.46478 0.0
C1024 C 0.56331 0.09022 0.35837 0.0
H1025 H 0.56484 0.11083 0.284 0.0
C1026 C 0.55424 0.07716 0.34223 0.0
C1027 C 0.5677 0.10248 0.33671 0.0
C1028 C 0.57747 0.11669 0.3532 0.0
C1029 C 0.54875 0.07609 0.30555 0.0
C1030 C 0.55228 0.08841 0.285 0.0
C1031 C 0.56213 0.10142 0.30004 0.0
C1032 C 0.54452 0.08808 0.2504 0.0
C1033 C 0.53882 0.06182 0.28965 0.0
C1034 C 0.55137 0.09308 0.21535 0.0
C1035 C 0.54391 0.09324 0.1833 0.0
C1036 C 0.52955 0.08855 0.18606 0.0
C1037 C 0.52279 0.08366 0.22135 0.0
C1038 C 0.53021 0.08343 0.2532 0.0
H1039 H 0.5406 0.05369 0.30275 0.0
H1040 H 0.52795 0.05914 0.29618 0.0
H1041 H 0.53991 0.06156 0.25815 0.0
H1042 H 0.56245 0.09685 0.21287 0.0
H1043 H 0.54942 0.09714 0.15651 0.0
H1044 H 0.80889 0.59205 0.70832 0.0
H1045 H 0.80413 0.58899 0.77676 0.0
H1046 H 0.82183 0.56208 0.78306 0.0
H1047 H 0.82679 0.56518 0.71415 0.0
H1048 H 0.79347 0.5514 0.81509 0.0
H1049 H 0.83209 0.60384 0.86933 0.0
H1050 H 0.82288 0.60419 0.82745 0.0
H1051 H 0.83424 0.59699 0.8245 0.0
C1052 C 0.81187 0.58554 0.72423 0.0
C1053 C 0.81816 0.5788 0.70589 0.0
C1054 C 0.80925 0.58391 0.76337 0.0
C1055 C 0.81281 0.57547 0.78488 0.0
C1056 C 0.81916 0.56875 0.76685 0.0
H1057 H 0.7888 0.56659 0.02891 0.0
H1058 H 0.80234 0.56711 0.97255 0.0
C1059 C 0.82196 0.57052 0.7276 0.0
C1060 C 0.80876 0.57292 0.82551 0.0
H1061 H 0.81179 0.5903 0.90866 0.0
C1062 C 0.79771 0.55977 0.83594 0.0
C1063 C 0.8144 0.58386 0.85258 0.0
C1064 C 0.82665 0.598 0.84309 0.0
C1065 C 0.79139 0.55762 0.87193 0.0
C1066 C 0.79629 0.56889 0.89779 0.0
C1067 C 0.80804 0.58172 0.88854 0.0
C1068 C 0.78817 0.56814 0.93195 0.0
C1069 C 0.77903 0.54356 0.88141 0.0
C1070 C 0.77587 0.56869 0.92743 0.0
C1071 C 0.76826 0.56856 0.95929 0.0
C1072 C 0.77277 0.56779 0.99624 0.0
C1073 C 0.78507 0.56715 0.00073 0.0
C1074 C 0.7928 0.56744 0.96871 0.0
H1075 H 0.77842 0.53524 0.86235 0.0
H1076 H 0.77955 0.54072 0.91156 0.0
H1077 H 0.7693 0.54402 0.87791 0.0
H1078 H 0.77225 0.56935 0.89917 0.0
H1079 H 0.7588 0.569 0.9549 0.0
H1080 H 0.41054 0.21769 0.72012 0.0
H1081 H 0.41359 0.21691 0.78889 0.0
H1082 H 0.44238 0.26126 0.79003 0.0
H1083 H 0.43929 0.26219 0.72074 0.0
H1084 H 0.45176 0.24328 0.82582 0.0
H1085 H 0.4001 0.23256 0.87825 0.0
H1086 H 0.39904 0.22205 0.83785 0.0
H1087 H 0.40715 0.24067 0.83254 0.0
C1088 C 0.41747 0.22731 0.73493 0.0
C1089 C 0.42472 0.24 0.71505 0.0
C1090 C 0.41909 0.22686 0.77427 0.0
C1091 C 0.42803 0.23906 0.79446 0.0
C1092 C 0.43531 0.25178 0.77486 0.0
H1093 H 0.43221 0.2214 0.03922 0.0
H1094 H 0.4335 0.23578 0.98402 0.0
C1095 C 0.43355 0.25228 0.73539 0.0
C1096 C 0.43046 0.23803 0.83546 0.0
H1097 H 0.41258 0.22469 0.91856 0.0
C1098 C 0.44335 0.23962 0.84651 0.0
C1099 C 0.41951 0.23341 0.86238 0.0
C1100 C 0.4057 0.23219 0.85231 0.0
C1101 C 0.44513 0.23543 0.88286 0.0
C1102 C 0.43372 0.22951 0.90842 0.0
C1103 C 0.42127 0.22916 0.89868 0.0
C1104 C 0.43372 0.22152 0.94211 0.0
C1105 C 0.45889 0.23653 0.89291 0.0
C1106 C 0.43325 0.20876 0.93649 0.0
C1107 C 0.43232 0.20051 0.9676 0.0
C1108 C 0.43192 0.20491 0.00498 0.0
C1109 C 0.43255 0.21779 0.01067 0.0
C1110 C 0.4333 0.226 0.97932 0.0
H1111 H 0.46754 0.24454 0.87523 0.0
H1112 H 0.4614 0.23917 0.92359 0.0
H1113 H 0.45823 0.22633 0.88759 0.0
H1114 H 0.43337 0.20508 0.90787 0.0
H1115 H 0.43193 0.19067 0.96232 0.0
H1116 H 0.75655 0.20808 0.68258 0.0
H1117 H 0.76255 0.21271 0.75018 0.0
H1118 H 0.75031 0.16949 0.76771 0.0
H1119 H 0.74459 0.16481 0.69983 0.0
H1120 H 0.74835 0.20209 0.81843 0.0
H1121 H 0.79119 0.19008 0.79991 0.0
H1122 H 0.78201 0.19199 0.75993 0.0
H1123 H 0.77408 0.17619 0.78761 0.0
C1124 C 0.75497 0.19951 0.70085 0.0
C1125 C 0.75031 0.18613 0.68574 0.0
C1126 C 0.75838 0.20217 0.73951 0.0
C1127 C 0.75713 0.1915 0.76371 0.0
C1128 C 0.75163 0.17793 0.74927 0.0
H1129 H 0.77762 0.20993 0.00815 0.0
H1130 H 0.7648 0.19842 0.94971 0.0
C1131 C 0.74832 0.17527 0.71053 0.0
C1132 C 0.76256 0.19492 0.80321 0.0
H1133 H 0.78851 0.19729 0.86087 0.0
C1134 C 0.75704 0.20092 0.82796 0.0
C1135 C 0.77398 0.19349 0.81525 0.0
C1136 C 0.78077 0.1877 0.78927 0.0
C1137 C 0.76289 0.20589 0.86415 0.0
C1138 C 0.7744 0.20458 0.87599 0.0
C1139 C 0.77963 0.19819 0.8517 0.0
C1140 C 0.78206 0.21097 0.91176 0.0
C1141 C 0.75716 0.21311 0.88859 0.0
C1142 C 0.79609 0.22152 0.90979 0.0
C1143 C 0.80346 0.22798 0.94297 0.0
C1144 C 0.79692 0.22401 0.97884 0.0
C1145 C 0.78291 0.21326 0.98088 0.0
C1146 C 0.77555 0.20673 0.94756 0.0
H1147 H 0.75017 0.21571 0.87216 0.0
H1148 H 0.75105 0.20613 0.9125 0.0
H1149 H 0.76576 0.22287 0.90101 0.0
H1150 H 0.8013 0.22492 0.88241 0.0
H1151 H 0.8142 0.23627 0.94038 0.0
H1152 H 0.42848 0.21463 0.53531 0.0
H1153 H 0.42739 0.20063 0.47964 0.0
H1154 H 0.41247 0.2227 0.41046 0.0
H1155 H 0.41358 0.23672 0.46546 0.0
H1156 H 0.39752 0.19182 0.40316 0.0
H1157 H 0.45537 0.21779 0.38708 0.0
H1158 H 0.44766 0.21079 0.43296 0.0
H1159 H 0.44728 0.22569 0.41439 0.0
C1160 C 0.4249 0.21644 0.50827 0.0
C1161 C 0.4211 0.22678 0.50478 0.0
C1162 C 0.4243 0.20845 0.47658 0.0
C1163 C 0.41991 0.21071 0.44108 0.0
C1164 C 0.41584 0.2208 0.43775 0.0
H1165 H 0.41134 0.20065 0.20837 0.0
H1166 H 0.40986 0.20276 0.2772 0.0
C1167 C 0.41647 0.22879 0.46924 0.0
C1168 C 0.41996 0.20308 0.40659 0.0
H1169 H 0.4417 0.20369 0.33656 0.0
C1170 C 0.40716 0.19414 0.38892 0.0
C1171 C 0.43256 0.20605 0.38842 0.0
C1172 C 0.44655 0.21563 0.40642 0.0
C1173 C 0.40666 0.18879 0.35231 0.0
C1174 C 0.41928 0.19273 0.33278 0.0
C1175 C 0.43205 0.20076 0.35165 0.0
C1176 C 0.4195 0.19045 0.29126 0.0
C1177 C 0.39264 0.17944 0.33421 0.0
C1178 C 0.42568 0.18306 0.27635 0.0
C1179 C 0.4266 0.18188 0.23676 0.0
C1180 C 0.42154 0.18827 0.21168 0.0
C1181 C 0.41536 0.19563 0.22687 0.0
C1182 C 0.41437 0.19673 0.26624 0.0
H1183 H 0.38452 0.17368 0.35624 0.0
H1184 H 0.38943 0.18591 0.31764 0.0
H1185 H 0.39305 0.17179 0.31447 0.0
H1186 H 0.42984 0.1783 0.29532 0.0
H1187 H 0.43144 0.17616 0.22585 0.0
H1188 H 0.77965 0.21502 0.51146 0.0
H1189 H 0.79042 0.23006 0.45575 0.0
H1190 H 0.76998 0.19424 0.38162 0.0
H1191 H 0.75911 0.17916 0.43688 0.0
H1192 H 0.80784 0.22865 0.39722 0.0
H1193 H 0.75814 0.2219 0.34016 0.0
H1194 H 0.75999 0.2176 0.3888 0.0
H1195 H 0.75744 0.20567 0.35059 0.0
C1196 C 0.77751 0.21033 0.4833 0.0
C1197 C 0.76848 0.1959 0.47852 0.0
C1198 C 0.78366 0.21894 0.45158 0.0
C1199 C 0.78077 0.21327 0.41467 0.0
C1200 C 0.77212 0.19883 0.40991 0.0
H1201 H 0.81744 0.23318 0.19822 0.0
H1202 H 0.81125 0.22726 0.26501 0.0
C1203 C 0.766 0.19022 0.44154 0.0
C1204 C 0.78674 0.22233 0.38084 0.0
H1205 H 0.7774 0.23076 0.2965 0.0
C1206 C 0.80124 0.22932 0.37541 0.0
C1207 C 0.77812 0.22344 0.35295 0.0
C1208 C 0.76256 0.21688 0.3585 0.0
C1209 C 0.80725 0.23663 0.34147 0.0
C1210 C 0.79849 0.23674 0.31222 0.0
C1211 C 0.7841 0.23056 0.31882 0.0
C1212 C 0.80372 0.24175 0.27317 0.0
C1213 C 0.82289 0.24389 0.33691 0.0
C1214 C 0.80141 0.25179 0.25538 0.0
C1215 C 0.80485 0.25515 0.21684 0.0
C1216 C 0.81049 0.24837 0.19549 0.0
C1217 C 0.8131 0.23859 0.21378 0.0
C1218 C 0.8097 0.23529 0.25215 0.0
H1219 H 0.82822 0.24702 0.36506 0.0
H1220 H 0.82577 0.23662 0.32336 0.0
H1221 H 0.82679 0.25331 0.31858 0.0
H1222 H 0.79666 0.25679 0.27108 0.0
H1223 H 0.8027 0.26271 0.20355 0.0
H1224 H 0.82568 0.58537 0.4549 0.0
H1225 H 0.81174 0.58288 0.39842 0.0
H1226 H 0.77507 0.56853 0.46885 0.0
H1227 H 0.78896 0.57086 0.52574 0.0
H1228 H 0.77076 0.55147 0.40732 0.0
H1229 H 0.79551 0.60644 0.36008 0.0
H1230 H 0.80815 0.60107 0.36791 0.0
H1231 H 0.79799 0.60158 0.40745 0.0
C1232 C 0.81471 0.58191 0.45854 0.0
C1233 C 0.80844 0.57837 0.49481 0.0
C1234 C 0.80676 0.58055 0.42621 0.0
C1235 C 0.79243 0.57574 0.42954 0.0
C1236 C 0.78615 0.57236 0.46575 0.0
H1237 H 0.75053 0.57584 0.21775 0.0
H1238 H 0.75676 0.57857 0.28548 0.0
C1239 C 0.7941 0.57371 0.49818 0.0
C1240 C 0.78393 0.57334 0.39477 0.0
H1241 H 0.78285 0.589 0.31201 0.0
C1242 C 0.77322 0.55972 0.38673 0.0
C1243 C 0.78698 0.58415 0.36831 0.0
C1244 C 0.79769 0.59915 0.37655 0.0
C1245 C 0.76604 0.55645 0.3518 0.0
C1246 C 0.7699 0.56705 0.32407 0.0
C1247 C 0.78001 0.58084 0.3331 0.0
C1248 C 0.7644 0.564 0.28456 0.0
C1249 C 0.75456 0.54166 0.34479 0.0
C1250 C 0.76648 0.55477 0.2617 0.0
C1251 C 0.76289 0.55314 0.22305 0.0
C1252 C 0.75731 0.56085 0.20643 0.0
C1253 C 0.75484 0.56977 0.22967 0.0
C1254 C 0.75838 0.57134 0.26837 0.0
H1255 H 0.74973 0.53625 0.37207 0.0
H1256 H 0.74629 0.54132 0.32611 0.0
H1257 H 0.75901 0.53579 0.33059 0.0
H1258 H 0.77142 0.54925 0.27335 0.0
H1259 H 0.76498 0.54623 0.20593 0.0
H1260 H 0.57331 0.07819 0.72426 0.0
H1261 H 0.56005 0.07744 0.78082 0.0
H1262 H 0.53866 0.0941 0.71544 0.0
H1263 H 0.55195 0.09494 0.65856 0.0
H1264 H 0.54976 0.10806 0.78416 0.0
H1265 H 0.51897 0.051 0.80725 0.0
H1266 H 0.53723 0.05707 0.80123 0.0
H1267 H 0.52744 0.05861 0.76234 0.0
C1268 C 0.56566 0.08151 0.72171 0.0
C1269 C 0.56363 0.08655 0.6869 0.0
C1270 C 0.55804 0.08102 0.75402 0.0
C1271 C 0.54821 0.08548 0.75206 0.0
C1272 C 0.54612 0.09049 0.71737 0.0
H1273 H 0.50742 0.09435 0.96 0.0
H1274 H 0.51198 0.09359 0.89148 0.0
C1275 C 0.55372 0.09097 0.68498 0.0
C1276 C 0.54089 0.08576 0.78705 0.0
H1277 H 0.52206 0.06547 0.86221 0.0
C1278 C 0.54342 0.09873 0.80089 0.0
C1279 C 0.53253 0.07354 0.8085 0.0
C1280 C 0.52875 0.05925 0.79388 0.0
C1281 C 0.53867 0.09991 0.83712 0.0
C1282 C 0.53118 0.0878 0.85964 0.0
C1283 C 0.52789 0.07474 0.84478 0.0
C1284 C 0.52836 0.08865 0.90042 0.0
C1285 C 0.54244 0.11414 0.8522 0.0
C1286 C 0.5361 0.08614 0.92769 0.0
C1287 C 0.53358 0.0866 0.96646 0.0
C1288 C 0.52321 0.08951 0.97876 0.0
C1289 C 0.5155 0.09213 0.95135 0.0
C1290 C 0.51808 0.09171 0.91232 0.0
H1291 H 0.54898 0.12261 0.83179 0.0
H1292 H 0.53277 0.11452 0.85796 0.0
H1293 H 0.54817 0.11612 0.87964 0.0
H1294 H 0.54409 0.08379 0.91891 0.0
H1295 H 0.53969 0.08451 0.98676 0.0
H1296 H 0.91065 0.45609 0.64636 0.0
H1297 H 0.90874 0.4428 0.70425 0.0
H1298 H 0.92406 0.48028 0.77165 0.0
H1299 H 0.92617 0.49364 0.71413 0.0
H1300 H 0.93537 0.46327 0.79232 0.0
H1301 H 0.87733 0.43316 0.78207 0.0
H1302 H 0.88692 0.43239 0.74155 0.0
H1303 H 0.8878 0.44857 0.75376 0.0
C1304 C 0.91376 0.46153 0.67347 0.0
C1305 C 0.91847 0.4759 0.67575 0.0
C1306 C 0.9126 0.4539 0.70648 0.0
C1307 C 0.91604 0.46053 0.74219 0.0
C1308 C 0.92132 0.47498 0.74429 0.0
H1309 H 0.90885 0.45175 0.97884 0.0
H1310 H 0.91364 0.45798 0.91158 0.0
C1311 C 0.92252 0.4826 0.71138 0.0
C1312 C 0.91353 0.45249 0.77789 0.0
H1313 H 0.88743 0.42994 0.83718 0.0
C1314 C 0.92492 0.45581 0.80191 0.0
C1315 C 0.89987 0.44272 0.79016 0.0
C1316 C 0.88723 0.43901 0.76577 0.0
C1317 C 0.92295 0.45009 0.83865 0.0
C1318 C 0.90924 0.44096 0.85168 0.0
C1319 C 0.89792 0.43697 0.82692 0.0
C1320 C 0.90635 0.43687 0.89224 0.0
C1321 C 0.9355 0.45418 0.8637 0.0
C1322 C 0.90031 0.42286 0.9034 0.0
C1323 C 0.89751 0.41922 0.94203 0.0
C1324 C 0.90056 0.42955 0.9698 0.0
C1325 C 0.90635 0.44353 0.95822 0.0
C1326 C 0.90922 0.44714 0.91982 0.0
H1327 H 0.94514 0.4578 0.84645 0.0
H1328 H 0.93705 0.46287 0.8827 0.0
H1329 H 0.93398 0.44531 0.88193 0.0
H1330 H 0.89789 0.41479 0.88232 0.0
H1331 H 0.89304 0.40837 0.95012 0.0
H1332 H 0.5125 0.43324 0.71648 0.0
H1333 H 0.52715 0.44452 0.77191 0.0
H1334 H 0.56373 0.46285 0.70011 0.0
H1335 H 0.54908 0.45156 0.64407 0.0
H1336 H 0.56582 0.44881 0.76457 0.0
H1337 H 0.54786 0.48558 0.8051 0.0
H1338 H 0.53359 0.46823 0.79738 0.0
H1339 H 0.54491 0.47777 0.75819 0.0
C1340 C 0.52361 0.43987 0.71222 0.0
C1341 C 0.52961 0.44156 0.67583 0.0
C1342 C 0.53197 0.44635 0.74397 0.0
C1343 C 0.54648 0.45467 0.73996 0.0
C1344 C 0.55253 0.45655 0.70365 0.0
H1345 H 0.58811 0.49372 0.95428 0.0
H1346 H 0.58401 0.4911 0.8854 0.0
C1347 C 0.54414 0.45011 0.67173 0.0
C1348 C 0.55525 0.46043 0.77439 0.0
H1349 H 0.55824 0.47883 0.85531 0.0
C1350 C 0.56441 0.45562 0.78413 0.0
C1351 C 0.55357 0.4695 0.79946 0.0
C1352 C 0.54456 0.47569 0.78933 0.0
C1353 C 0.57119 0.45884 0.81965 0.0
C1354 C 0.56852 0.46689 0.84611 0.0
C1355 C 0.56015 0.47252 0.83518 0.0
C1356 C 0.57313 0.46853 0.8864 0.0
C1357 C 0.58086 0.45333 0.82883 0.0
C1358 C 0.56861 0.4567 0.90968 0.0
C1359 C 0.57095 0.45816 0.94905 0.0
C1360 C 0.57771 0.47147 0.96586 0.0
C1361 C 0.5828 0.48331 0.94223 0.0
C1362 C 0.58049 0.48184 0.90286 0.0
H1363 H 0.58553 0.45183 0.80242 0.0
H1364 H 0.58939 0.46049 0.84826 0.0
H1365 H 0.57485 0.44303 0.84305 0.0
H1366 H 0.56262 0.44632 0.89773 0.0
H1367 H 0.56687 0.44883 0.96644 0.0
H1368 H 0.57315 0.82806 0.79578 0.0
H1369 H 0.57542 0.82624 0.72683 0.0
H1370 H 0.54793 0.78168 0.73324 0.0
H1371 H 0.54535 0.78344 0.80187 0.0
H1372 H 0.58696 0.81263 0.69519 0.0
H1373 H 0.5336 0.79073 0.63815 0.0
H1374 H 0.53837 0.7984 0.68522 0.0
H1375 H 0.53381 0.7805 0.67757 0.0
C1376 C 0.56735 0.81791 0.78238 0.0
C1377 C 0.55912 0.80587 0.80434 0.0
C1378 C 0.56865 0.8169 0.74296 0.0
C1379 C 0.56172 0.80386 0.72477 0.0
C1380 C 0.5531 0.7919 0.74644 0.0
H1381 H 0.58453 0.76636 0.55599 0.0
H1382 H 0.58183 0.77826 0.61091 0.0
C1383 C 0.55172 0.79291 0.7858 0.0
C1384 C 0.56483 0.80241 0.68439 0.0
H1385 H 0.54936 0.78589 0.60111 0.0
C1386 C 0.57876 0.80706 0.67434 0.0
C1387 C 0.55419 0.7954 0.6569 0.0
C1388 C 0.53918 0.79112 0.66492 0.0
C1389 C 0.5822 0.80393 0.63858 0.0
C1390 C 0.57141 0.79572 0.61256 0.0
C1391 C 0.55761 0.79201 0.62137 0.0
C1392 C 0.57402 0.78952 0.5783 0.0
C1393 C 0.59734 0.80907 0.62947 0.0
C1394 C 0.57034 0.79176 0.54171 0.0
C1395 C 0.57188 0.78493 0.51002 0.0
C1396 C 0.57698 0.77565 0.51461 0.0
C1397 C 0.58077 0.77357 0.55129 0.0
C1398 C 0.57927 0.78041 0.58278 0.0
H1399 H 0.60431 0.8188 0.64544 0.0
H1400 H 0.59999 0.80104 0.63817 0.0
H1401 H 0.59945 0.8111 0.59842 0.0
H1402 H 0.56613 0.79866 0.53777 0.0
H1403 H 0.56879 0.78668 0.48213 0.0
H1404 H 0.23868 0.82323 0.54945 0.0
H1405 H 0.22578 0.8097 0.60521 0.0
H1406 H 0.20374 0.77294 0.53509 0.0
H1407 H 0.21661 0.78644 0.47878 0.0
H1408 H 0.19525 0.7932 0.61516 0.0
H1409 H 0.22219 0.76205 0.62364 0.0
H1410 H 0.22947 0.77817 0.59704 0.0
H1411 H 0.21459 0.76278 0.57881 0.0
C1412 C 0.23101 0.81231 0.5457 0.0
C1413 C 0.22865 0.80592 0.5097 0.0
C1414 C 0.22367 0.8046 0.57761 0.0
C1415 C 0.21391 0.79034 0.57416 0.0
C1416 C 0.21134 0.78392 0.53825 0.0
H1417 H 0.17746 0.74121 0.78495 0.0
H1418 H 0.18091 0.74604 0.716 0.0
C1419 C 0.21868 0.79166 0.50619 0.0
C1420 C 0.20673 0.78234 0.60872 0.0
H1421 H 0.20787 0.76039 0.67522 0.0
C1422 C 0.19777 0.78581 0.62798 0.0
C1423 C 0.20997 0.77262 0.62504 0.0
C1424 C 0.21962 0.76865 0.60532 0.0
C1425 C 0.19259 0.78041 0.66432 0.0
C1426 C 0.19668 0.77152 0.68189 0.0
C1427 C 0.20482 0.76725 0.66154 0.0
C1428 C 0.19436 0.76831 0.72303 0.0
C1429 C 0.18325 0.7847 0.68435 0.0
C1430 C 0.20105 0.7792 0.74943 0.0
C1431 C 0.19922 0.7765 0.78846 0.0
C1432 C 0.19067 0.76283 0.8019 0.0
C1433 C 0.1841 0.75186 0.77539 0.0
C1434 C 0.18602 0.75458 0.73611 0.0
H1435 H 0.17777 0.78788 0.66358 0.0
H1436 H 0.17538 0.77609 0.70238 0.0
H1437 H 0.1897 0.79377 0.70314 0.0
H1438 H 0.20774 0.78983 0.73977 0.0
H1439 H 0.20443 0.78519 0.80805 0.0
H1440 H 0.17965 0.40594 0.54658 0.0
H1441 H 0.19277 0.4074 0.60372 0.0
H1442 H 0.23062 0.42412 0.53739 0.0
H1443 H 0.21746 0.4227 0.4794 0.0
H1444 H 0.21018 0.39571 0.62096 0.0
H1445 H 0.23892 0.45396 0.62116 0.0
H1446 H 0.2236 0.444 0.59206 0.0
H1447 H 0.23978 0.44506 0.57909 0.0
C1448 C 0.19071 0.40973 0.54381 0.0
C1449 C 0.1975 0.41421 0.50839 0.0
C1450 C 0.19821 0.41057 0.57659 0.0
C1451 C 0.21266 0.41597 0.57478 0.0
C1452 C 0.21948 0.42006 0.53935 0.0
H1453 H 0.25612 0.43521 0.79784 0.0
H1454 H 0.25351 0.43185 0.72824 0.0
C1455 C 0.21194 0.41919 0.50631 0.0
C1456 C 0.22037 0.41786 0.61081 0.0
H1457 H 0.23973 0.44275 0.67706 0.0
C1458 C 0.21694 0.40599 0.63291 0.0
C1459 C 0.22922 0.43129 0.62619 0.0
C1460 C 0.23311 0.44436 0.60364 0.0
C1461 C 0.22133 0.40722 0.67097 0.0
C1462 C 0.22921 0.42063 0.68727 0.0
C1463 C 0.23363 0.4325 0.66433 0.0
C1464 C 0.23105 0.4225 0.72904 0.0
C1465 C 0.21692 0.39416 0.69407 0.0
C1466 C 0.21931 0.41858 0.75212 0.0
C1467 C 0.22076 0.42061 0.7915 0.0
C1468 C 0.23399 0.42657 0.80863 0.0
C1469 C 0.24579 0.43057 0.78542 0.0
C1470 C 0.24433 0.42864 0.74578 0.0
H1471 H 0.21462 0.38513 0.67541 0.0
H1472 H 0.22512 0.39568 0.71495 0.0
H1473 H 0.20728 0.39157 0.71018 0.0
H1474 H 0.20901 0.41403 0.73955 0.0
H1475 H 0.21146 0.41737 0.80853 0.0
H1476 H 0.49499 0.91107 0.03559 0.0
H1477 H 0.4902 0.91283 0.10294 0.0
H1478 H 0.44674 0.88264 0.08512 0.0
H1479 H 0.45147 0.88058 0.01808 0.0
H1480 H 0.4734 0.9222 0.12787 0.0
H1481 H 0.45446 0.86905 0.18422 0.0
H1482 H 0.46368 0.87488 0.13936 0.0
H1483 H 0.44525 0.86876 0.14177 0.0
C1484 C 0.48446 0.90459 0.04618 0.0
C1485 C 0.47359 0.89572 0.02147 0.0
C1486 C 0.48175 0.90562 0.08466 0.0
C1487 C 0.46815 0.89776 0.09912 0.0
C1488 C 0.45737 0.88856 0.0748 0.0
H1489 H 0.4255 0.91612 0.27076 0.0
H1490 H 0.43726 0.91445 0.21365 0.0
C1491 C 0.46008 0.88747 0.03637 0.0
C1492 C 0.4649 0.90022 0.13838 0.0
H1493 H 0.44768 0.88344 0.21967 0.0
C1494 C 0.46798 0.91377 0.14821 0.0
C1495 C 0.45803 0.88927 0.16509 0.0
C1496 C 0.4553 0.87471 0.15723 0.0
C1497 C 0.46372 0.91652 0.18328 0.0
C1498 C 0.45592 0.90536 0.20874 0.0
C1499 C 0.45349 0.89196 0.19982 0.0
C1500 C 0.44951 0.90718 0.24375 0.0
C1501 C 0.4675 0.93132 0.19252 0.0
C1502 C 0.45233 0.90343 0.2795 0.0
C1503 C 0.44553 0.90425 0.31217 0.0
C1504 C 0.43575 0.9088 0.30955 0.0
C1505 C 0.43308 0.91272 0.27377 0.0
C1506 C 0.43985 0.91184 0.24112 0.0
H1507 H 0.477 0.93897 0.17678 0.0
H1508 H 0.45881 0.93299 0.18375 0.0
H1509 H 0.46932 0.93346 0.22361 0.0
H1510 H 0.4597 0.89973 0.28205 0.0
H1511 H 0.44779 0.90114 0.33936 0.0
H1512 H 0.09676 0.58843 0.03665 0.0
H1513 H 0.10242 0.58838 0.10449 0.0
H1514 H 0.07855 0.54342 0.10547 0.0
H1515 H 0.07286 0.54331 0.0381 0.0
H1516 H 0.07409 0.55866 0.17014 0.0
H1517 H 0.12947 0.57369 0.14134 0.0
H1518 H 0.12244 0.58373 0.12031 0.0
H1519 H 0.11633 0.56621 0.10448 0.0
C1520 C 0.09267 0.57854 0.05141 0.0
C1521 C 0.08445 0.56586 0.03198 0.0
C1522 C 0.09592 0.57855 0.09006 0.0
C1523 C 0.09093 0.5659 0.10972 0.0
C1524 C 0.08247 0.55328 0.09066 0.0
H1525 H 0.10234 0.52229 0.27941 0.0
H1526 H 0.10098 0.53493 0.22408 0.0
C1527 C 0.07929 0.55325 0.05213 0.0
C1528 C 0.09487 0.56548 0.14976 0.0
H1529 H 0.12071 0.56545 0.20276 0.0
C1530 C 0.08438 0.56052 0.17772 0.0
C1531 C 0.10831 0.56789 0.15921 0.0
C1532 C 0.11985 0.57314 0.12991 0.0
C1533 C 0.08675 0.55704 0.21441 0.0
C1534 C 0.09992 0.55858 0.22305 0.0
C1535 C 0.11067 0.5644 0.1959 0.0
C1536 C 0.10185 0.55188 0.25706 0.0
C1537 C 0.07491 0.55075 0.2428 0.0
C1538 C 0.10298 0.55738 0.29384 0.0
C1539 C 0.10379 0.55016 0.32571 0.0
C1540 C 0.10335 0.53732 0.32101 0.0
C1541 C 0.10256 0.53208 0.28399 0.0
C1542 C 0.10186 0.53931 0.25233 0.0
H1543 H 0.0652 0.54999 0.23126 0.0
H1544 H 0.0727 0.54015 0.25102 0.0
H1545 H 0.07793 0.55722 0.2691 0.0
H1546 H 0.10301 0.5671 0.29787 0.0
H1547 H 0.10441 0.55444 0.35395 0.0
H1548 H 0.4258 0.54336 0.99793 0.0
H1549 H 0.43361 0.55076 0.06346 0.0
H1550 H 0.42205 0.50854 0.09362 0.0
H1551 H 0.41448 0.50107 0.02792 0.0
H1552 H 0.42099 0.54271 0.13518 0.0
H1553 H 0.4638 0.53067 0.11762 0.0
H1554 H 0.45363 0.53104 0.07786 0.0
H1555 H 0.44659 0.51622 0.10933 0.0
C1556 C 0.42476 0.5356 0.01857 0.0
C1557 C 0.41973 0.52167 0.00761 0.0
C1558 C 0.42921 0.53985 0.05601 0.0
C1559 C 0.42866 0.53024 0.08306 0.0
C1560 C 0.42283 0.51616 0.07286 0.0
H1561 H 0.45011 0.55135 0.32405 0.0
H1562 H 0.43758 0.54042 0.26496 0.0
C1563 C 0.41846 0.51191 0.03537 0.0
C1564 C 0.435 0.53518 0.12114 0.0
H1565 H 0.4617 0.53891 0.17794 0.0
C1566 C 0.42984 0.54183 0.14471 0.0
C1567 C 0.44667 0.53416 0.13308 0.0
C1568 C 0.45311 0.52775 0.10809 0.0
C1569 C 0.43612 0.5476 0.17996 0.0
C1570 C 0.4477 0.54645 0.19204 0.0
C1571 C 0.45276 0.53968 0.16861 0.0
C1572 C 0.45521 0.55282 0.22798 0.0
C1573 C 0.43062 0.55529 0.20329 0.0
C1574 C 0.46937 0.56311 0.22676 0.0
C1575 C 0.47659 0.56925 0.26042 0.0
C1576 C 0.46977 0.5652 0.29589 0.0
C1577 C 0.45563 0.55476 0.29709 0.0
C1578 C 0.44842 0.54856 0.26339 0.0
H1579 H 0.42394 0.55806 0.186 0.0
H1580 H 0.42422 0.54853 0.2272 0.0
H1581 H 0.43932 0.56499 0.21566 0.0
H1582 H 0.47479 0.56649 0.19967 0.0
H1583 H 0.48746 0.57731 0.25855 0.0
H1584 H 0.07271 0.56331 0.78135 0.0
H1585 H 0.07583 0.55258 0.72417 0.0
H1586 H 0.09019 0.53002 0.79341 0.0
H1587 H 0.08725 0.54087 0.85095 0.0
H1588 H 0.10816 0.54441 0.73551 0.0
H1589 H 0.05454 0.51372 0.6786 0.0
H1590 H 0.05908 0.53138 0.68877 0.0
H1591 H 0.0581 0.52009 0.72717 0.0
C1592 C 0.07624 0.55584 0.78457 0.0
C1593 C 0.07974 0.55295 0.82067 0.0
C1594 C 0.07796 0.54966 0.75183 0.0
C1595 C 0.08308 0.54037 0.7546 0.0
C1596 C 0.08615 0.5371 0.79072 0.0
H1597 H 0.0906 0.50399 0.53982 0.0
H1598 H 0.08572 0.50586 0.60705 0.0
C1599 C 0.08445 0.5433 0.82353 0.0
C1600 C 0.08653 0.53527 0.71949 0.0
H1601 H 0.07323 0.52018 0.63317 0.0
C1602 C 0.10048 0.53888 0.71338 0.0
C1603 C 0.07647 0.52788 0.69092 0.0
C1604 C 0.06118 0.52291 0.69684 0.0
C1605 C 0.10479 0.53603 0.67851 0.0
C1606 C 0.09492 0.52963 0.64886 0.0
C1607 C 0.08082 0.52526 0.65579 0.0
C1608 C 0.0991 0.52828 0.60964 0.0
C1609 C 0.1199 0.5401 0.67355 0.0
C1610 C 0.10834 0.54025 0.58896 0.0
C1611 C 0.11117 0.53923 0.55059 0.0
C1612 C 0.1047 0.52622 0.53211 0.0
C1613 C 0.09576 0.51418 0.55321 0.0
C1614 C 0.09294 0.51521 0.59162 0.0
H1615 H 0.12486 0.5405 0.70147 0.0
H1616 H 0.12101 0.53269 0.65449 0.0
H1617 H 0.12566 0.55066 0.66061 0.0
H1618 H 0.11296 0.55048 0.60208 0.0
H1619 H 0.11806 0.54871 0.53514 0.0
H1620 H 0.44856 0.54239 0.82903 0.0
H1621 H 0.46116 0.55451 0.77091 0.0
H1622 H 0.43652 0.51697 0.70552 0.0
H1623 H 0.42396 0.50478 0.76321 0.0
H1624 H 0.46588 0.531 0.69022 0.0
H1625 H 0.44376 0.5665 0.68455 0.0
H1626 H 0.45223 0.56624 0.72815 0.0
H1627 H 0.43626 0.55105 0.71405 0.0
C1628 C 0.44586 0.53671 0.80228 0.0
C1629 C 0.43526 0.52263 0.80067 0.0
C1630 C 0.45304 0.54366 0.76915 0.0
C1631 C 0.44965 0.53664 0.734 0.0
C1632 C 0.43927 0.52254 0.73247 0.0
H1633 H 0.45976 0.54323 0.49663 0.0
H1634 H 0.45545 0.53729 0.56417 0.0
C1635 C 0.43211 0.51559 0.76548 0.0
C1636 C 0.45661 0.54391 0.69832 0.0
H1637 H 0.45784 0.56744 0.63315 0.0
C1638 C 0.4643 0.53911 0.67794 0.0
C1639 C 0.45459 0.55454 0.68264 0.0
C1640 C 0.4462 0.55989 0.70322 0.0
C1641 C 0.46955 0.54427 0.64145 0.0
C1642 C 0.46684 0.55431 0.62487 0.0
C1643 C 0.45985 0.5597 0.64608 0.0
C1644 C 0.46979 0.55817 0.58418 0.0
C1645 C 0.47766 0.53868 0.62052 0.0
C1646 C 0.47902 0.57198 0.57317 0.0
C1647 C 0.4815 0.57546 0.5344 0.0
C1648 C 0.47463 0.56517 0.50624 0.0
C1649 C 0.46523 0.5514 0.51756 0.0
C1650 C 0.46283 0.54795 0.55615 0.0
H1651 H 0.48241 0.53448 0.64069 0.0
H1652 H 0.47048 0.53003 0.60145 0.0
H1653 H 0.48604 0.54689 0.60267 0.0
H1654 H 0.48437 0.58002 0.59453 0.0
H1655 H 0.48878 0.58616 0.52652 0.0
H1656 H 0.44735 0.89832 0.84318 0.0
H1657 H 0.43365 0.89616 0.78568 0.0
H1658 H 0.46954 0.90654 0.71534 0.0
H1659 H 0.48326 0.90877 0.77213 0.0
H1660 H 0.4429 0.91887 0.72057 0.0
H1661 H 0.43487 0.86696 0.67855 0.0
H1662 H 0.43793 0.87309 0.72742 0.0
H1663 H 0.45221 0.87939 0.69427 0.0
C1664 C 0.45232 0.90019 0.81544 0.0
C1665 C 0.46638 0.90372 0.81213 0.0
C1666 C 0.44449 0.89896 0.78277 0.0
C1667 C 0.45061 0.90108 0.74652 0.0
C1668 C 0.46466 0.90478 0.7432 0.0
H1669 H 0.44754 0.90647 0.51287 0.0
H1670 H 0.45029 0.90362 0.58073 0.0
C1671 C 0.47249 0.90611 0.77569 0.0
C1672 C 0.44254 0.89947 0.71154 0.0
H1673 H 0.43203 0.88037 0.6295 0.0
C1674 C 0.44013 0.91029 0.70091 0.0
C1675 C 0.43899 0.88823 0.68632 0.0
C1676 C 0.44101 0.87617 0.69721 0.0
C1677 C 0.43524 0.9107 0.6642 0.0
C1678 C 0.4326 0.89992 0.638 0.0
C1679 C 0.4341 0.88862 0.6497 0.0
C1680 C 0.43032 0.90117 0.59699 0.0
C1681 C 0.4339 0.92312 0.6527 0.0
C1682 C 0.4181 0.90061 0.58372 0.0
C1683 C 0.41648 0.90225 0.54472 0.0
C1684 C 0.42708 0.90447 0.51863 0.0
C1685 C 0.43919 0.90481 0.53216 0.0
C1686 C 0.44077 0.90315 0.57093 0.0
H1687 H 0.43768 0.93125 0.6753 0.0
H1688 H 0.43988 0.92784 0.62607 0.0
H1689 H 0.42278 0.91965 0.64682 0.0
H1690 H 0.40986 0.89895 0.60347 0.0
H1691 H 0.40701 0.90191 0.53511 0.0
H1692 H 0.17857 0.44992 0.29809 0.0
H1693 H 0.18417 0.45421 0.22976 0.0
H1694 H 0.18414 0.41531 0.22132 0.0
H1695 H 0.17852 0.41092 0.28892 0.0
H1696 H 0.20815 0.4569 0.19719 0.0
H1697 H 0.16196 0.41399 0.12694 0.0
H1698 H 0.16154 0.41936 0.17549 0.0
H1699 H 0.16789 0.40754 0.16537 0.0
C1700 C 0.17954 0.44219 0.28147 0.0
C1701 C 0.17818 0.43012 0.29893 0.0
C1702 C 0.1827 0.44464 0.24249 0.0
C1703 C 0.18431 0.43495 0.22038 0.0
C1704 C 0.18259 0.42275 0.23761 0.0
H1705 H 0.23746 0.43398 0.06002 0.0
H1706 H 0.22458 0.43637 0.11315 0.0
C1707 C 0.17953 0.42034 0.27642 0.0
C1708 C 0.18942 0.43813 0.18054 0.0
H1709 H 0.1841 0.42271 0.09299 0.0
C1710 C 0.20272 0.44965 0.17406 0.0
C1711 C 0.18225 0.42881 0.1502 0.0
C1712 C 0.16755 0.41682 0.15476 0.0
C1713 C 0.20959 0.45133 0.13914 0.0
C1714 C 0.20301 0.44114 0.11032 0.0
C1715 C 0.18919 0.43039 0.11541 0.0
C1716 C 0.21097 0.44033 0.07749 0.0
C1717 C 0.22412 0.46358 0.13405 0.0
C1718 C 0.20736 0.4415 0.0398 0.0
C1719 C 0.21474 0.44012 0.00918 0.0
C1720 C 0.22564 0.43732 0.01598 0.0
C1721 C 0.2291 0.43608 0.05381 0.0
C1722 C 0.22183 0.43757 0.08423 0.0
H1723 H 0.2259 0.47246 0.15265 0.0
H1724 H 0.23183 0.4604 0.14211 0.0
H1725 H 0.22606 0.46716 0.10386 0.0
H1726 H 0.19889 0.44348 0.03413 0.0
H1727 H 0.21183 0.44109 0.98028 0.0
H1728 H 0.56441 0.77604 0.97932 0.0
H1729 H 0.5645 0.76235 0.03475 0.0
H1730 H 0.56934 0.79528 0.11019 0.0
H1731 H 0.56943 0.80899 0.0556 0.0
H1732 H 0.58868 0.7757 0.09896 0.0
H1733 H 0.53392 0.75509 0.14639 0.0
H1734 H 0.53928 0.75913 0.09698 0.0
H1735 H 0.54285 0.77291 0.13012 0.0
C1736 C 0.56544 0.7803 0.00778 0.0
C1737 C 0.56698 0.7936 0.01318 0.0
C1738 C 0.56549 0.77249 0.03926 0.0
C1739 C 0.56682 0.77783 0.07634 0.0
C1740 C 0.56821 0.791 0.0817 0.0
H1741 H 0.59219 0.78438 0.29701 0.0
H1742 H 0.58881 0.78433 0.22816 0.0
C1743 C 0.56833 0.79883 0.05046 0.0
C1744 C 0.56739 0.77017 0.1101 0.0
H1745 H 0.55025 0.75676 0.19407 0.0
C1746 C 0.58016 0.77114 0.11937 0.0
C1747 C 0.55623 0.76419 0.1364 0.0
C1748 C 0.54223 0.76263 0.127 0.0
C1749 C 0.58243 0.76737 0.15581 0.0
C1750 C 0.57167 0.76265 0.1834 0.0
C1751 C 0.5585 0.76047 0.17288 0.0
C1752 C 0.57451 0.76209 0.22441 0.0
C1753 C 0.59654 0.76919 0.16522 0.0
C1754 C 0.56745 0.7496 0.24514 0.0
C1755 C 0.5694 0.74958 0.28468 0.0
C1756 C 0.57819 0.76212 0.30401 0.0
C1757 C 0.5853 0.77457 0.28299 0.0
C1758 C 0.58348 0.77454 0.24358 0.0
H1759 H 0.60196 0.76865 0.13909 0.0
H1760 H 0.60311 0.77959 0.17845 0.0
H1761 H 0.5956 0.76112 0.18578 0.0
H1762 H 0.56036 0.73993 0.2308 0.0
H1763 H 0.56377 0.73984 0.30019 0.0
H1764 H 0.25766 0.82689 0.28605 0.0
H1765 H 0.25387 0.82235 0.21709 0.0
H1766 H 0.20958 0.7971 0.23669 0.0
H1767 H 0.2132 0.80155 0.305 0.0
H1768 H 0.24047 0.79537 0.18106 0.0
H1769 H 0.21275 0.82432 0.15137 0.0
H1770 H 0.22349 0.82753 0.19327 0.0
H1771 H 0.20584 0.81316 0.19234 0.0
C1772 C 0.24712 0.82044 0.27555 0.0
C1773 C 0.23572 0.81457 0.30091 0.0
C1774 C 0.24499 0.81788 0.23626 0.0
C1775 C 0.23143 0.80962 0.22191 0.0
C1776 C 0.22009 0.80376 0.24719 0.0
H1777 H 0.18007 0.75981 0.04903 0.0
H1778 H 0.1926 0.77397 0.10431 0.0
C1779 C 0.2222 0.80622 0.28628 0.0
C1780 C 0.22891 0.80626 0.18086 0.0
H1781 H 0.20814 0.80548 0.10786 0.0
C1782 C 0.23373 0.79788 0.16451 0.0
C1783 C 0.22018 0.80965 0.15947 0.0
C1784 C 0.21538 0.81929 0.17488 0.0
C1785 C 0.22906 0.79181 0.1284 0.0
C1786 C 0.21945 0.79432 0.10839 0.0
C1787 C 0.21544 0.80351 0.12355 0.0
C1788 C 0.21211 0.78619 0.0742 0.0
C1789 C 0.23362 0.78199 0.11297 0.0
C1790 C 0.21898 0.7885 0.03904 0.0
C1791 C 0.21181 0.78046 0.00722 0.0
C1792 C 0.19769 0.77002 0.01026 0.0
C1793 C 0.19089 0.76783 0.0456 0.0
C1794 C 0.19803 0.77589 0.07724 0.0
H1795 H 0.24042 0.78042 0.13333 0.0
H1796 H 0.22435 0.77169 0.10647 0.0
H1797 H 0.23946 0.78623 0.0859 0.0
H1798 H 0.22985 0.79648 0.03625 0.0
H1799 H 0.21734 0.7824 0.98034 0.0
H1800 H 0.19186 0.23871 0.28446 0.0
H1801 H 0.21192 0.23537 0.29128 0.0
H1802 H 0.22332 0.24763 0.17393 0.0
H1803 H 0.20333 0.25107 0.16671 0.0
H1804 H 0.21489 0.21932 0.19363 0.0
H1805 H 0.25567 0.25691 0.29202 0.0
H1806 H 0.23801 0.25055 0.30759 0.0
H1807 H 0.24423 0.26105 0.26517 0.0
C1808 C 0.19887 0.24116 0.26043 0.0
C1809 C 0.1958 0.24486 0.22479 0.0
C1810 C 0.21044 0.23938 0.26453 0.0
C1811 C 0.21911 0.2413 0.23313 0.0
C1812 C 0.2168 0.24622 0.19856 0.0
H1813 H 0.25573 0.18777 0.209 0.0
H1814 H 0.25287 0.20788 0.19492 0.0
C1815 C 0.2053 0.2481 0.19448 0.0
C1816 C 0.22817 0.23505 0.23394 0.0
H1817 H 0.25475 0.23495 0.28292 0.0
C1818 C 0.22384 0.22289 0.21242 0.0
C1819 C 0.23965 0.23968 0.25892 0.0
C1820 C 0.24477 0.25284 0.28208 0.0
C1821 C 0.23003 0.21464 0.21709 0.0
C1822 C 0.24135 0.21904 0.24288 0.0
C1823 C 0.24616 0.23164 0.26298 0.0
C1824 C 0.24699 0.20978 0.2527 0.0
C1825 C 0.22359 0.20077 0.19656 0.0
C1826 C 0.246 0.20512 0.2905 0.0
C1827 C 0.24815 0.194 0.29883 0.0
C1828 C 0.25106 0.18724 0.26931 0.0
C1829 C 0.25327 0.1927 0.23211 0.0
C1830 C 0.25155 0.20411 0.22403 0.0
H1831 H 0.21303 0.19761 0.18526 0.0
H1832 H 0.23026 0.20155 0.17193 0.0
H1833 H 0.22266 0.19238 0.21585 0.0
H1834 H 0.24259 0.2094 0.31316 0.0
H1835 H 0.24641 0.18999 0.32777 0.0
H1836 H 0.7611 0.95079 0.27853 0.0
H1837 H 0.75938 0.97156 0.28714 0.0
H1838 H 0.72573 0.9562 0.20523 0.0
H1839 H 0.728 0.93553 0.19477 0.0
H1840 H 0.74249 0.98066 0.18716 0.0
H1841 H 0.73669 0.98404 0.34059 0.0
H1842 H 0.75092 0.98084 0.33579 0.0
H1843 H 0.73376 0.96798 0.31894 0.0
C1844 C 0.7531 0.95163 0.26291 0.0
C1845 C 0.74476 0.94155 0.23576 0.0
C1846 C 0.75197 0.96349 0.26829 0.0
C1847 C 0.74218 0.9654 0.24757 0.0
C1848 C 0.73331 0.95497 0.22179 0.0
H1849 H 0.77758 0.05248 0.30309 0.0
H1850 H 0.75668 0.02973 0.29264 0.0
C1851 C 0.73463 0.94317 0.21578 0.0
C1852 C 0.74301 0.97923 0.24869 0.0
H1853 H 0.75418 0.00683 0.30922 0.0
C1854 C 0.74454 0.98626 0.214 0.0
C1855 C 0.74495 0.98656 0.28337 0.0
C1856 C 0.74129 0.97932 0.32165 0.0
C1857 C 0.75007 0.00075 0.21314 0.0
C1858 C 0.75481 0.00842 0.24759 0.0
C1859 C 0.75116 0.00113 0.28245 0.0
C1860 C 0.76587 0.02338 0.24789 0.0
C1861 C 0.75148 0.00772 0.17507 0.0
C1862 C 0.77787 0.02763 0.2255 0.0
C1863 C 0.78968 0.04065 0.23093 0.0
C1864 C 0.78997 0.04963 0.25973 0.0
C1865 C 0.77773 0.04575 0.28084 0.0
C1866 C 0.76576 0.03275 0.27486 0.0
H1867 H 0.74199 0.00142 0.15754 0.0
H1868 H 0.75308 0.01841 0.17831 0.0
H1869 H 0.76041 0.00827 0.15912 0.0
H1870 H 0.77856 0.02053 0.20552 0.0
H1871 H 0.79889 0.04323 0.21417 0.0
H1872 H 0.95524 0.75733 0.20357 0.0
H1873 H 0.97753 0.75866 0.19503 0.0
H1874 H 0.96554 0.72479 0.27494 0.0
H1875 H 0.94326 0.72398 0.28539 0.0
H1876 H 0.9888 0.74364 0.29514 0.0
H1877 H 0.99516 0.74063 0.14194 0.0
H1878 H 0.98945 0.75306 0.14683 0.0
H1879 H 0.97819 0.73522 0.16218 0.0
C1880 C 0.95714 0.7499 0.21867 0.0
C1881 C 0.94751 0.74065 0.24546 0.0
C1882 C 0.96991 0.75053 0.21332 0.0
C1883 C 0.97324 0.74164 0.23369 0.0
C1884 C 0.96324 0.73174 0.25871 0.0
H1885 H 0.06165 0.78827 0.18714 0.0
H1886 H 0.04024 0.76566 0.19408 0.0
C1887 C 0.95051 0.73129 0.2647 0.0
C1888 C 0.9879 0.74458 0.23356 0.0
H1889 H 0.01637 0.76001 0.17557 0.0
C1890 C 0.99477 0.74674 0.26881 0.0
C1891 C 0.99585 0.74797 0.19952 0.0
C1892 C 0.98916 0.74389 0.16059 0.0
C1893 C 0.00937 0.75415 0.27096 0.0
C1894 C 0.01722 0.76013 0.2373 0.0
C1895 C 0.01043 0.75602 0.20177 0.0
C1896 C 0.03146 0.77256 0.23859 0.0
C1897 C 0.01616 0.75614 0.30959 0.0
C1898 C 0.03388 0.7839 0.26186 0.0
C1899 C 0.04614 0.79669 0.25844 0.0
C1900 C 0.05616 0.79861 0.23082 0.0
C1901 C 0.05408 0.78713 0.20856 0.0
C1902 C 0.04185 0.7742 0.21254 0.0
H1903 H 0.01072 0.74632 0.32637 0.0
H1904 H 0.02737 0.75932 0.30721 0.0
H1905 H 0.01514 0.76421 0.32583 0.0
H1906 H 0.0259 0.78322 0.28111 0.0
H1907 H 0.04733 0.8053 0.27589 0.0
H1908 H 0.78909 0.74508 0.81137 0.0
H1909 H 0.76962 0.74848 0.7957 0.0
H1910 H 0.77676 0.7458 0.67547 0.0
H1911 H 0.79687 0.7432 0.69114 0.0
H1912 H 0.7781 0.76882 0.68853 0.0
H1913 H 0.73052 0.72986 0.76184 0.0
H1914 H 0.7444 0.73733 0.79596 0.0
H1915 H 0.74543 0.72751 0.7561 0.0
C1916 C 0.78624 0.74474 0.78161 0.0
C1917 C 0.79462 0.74409 0.75245 0.0
C1918 C 0.77496 0.74654 0.77264 0.0
C1919 C 0.77158 0.7473 0.73434 0.0
C1920 C 0.77915 0.74527 0.70524 0.0
H1921 H 0.7321 0.79517 0.66185 0.0
H1922 H 0.73513 0.77476 0.66326 0.0
C1923 C 0.79066 0.74382 0.71419 0.0
C1924 C 0.76239 0.75312 0.72508 0.0
H1925 H 0.73302 0.75327 0.75456 0.0
C1926 C 0.76801 0.76509 0.70195 0.0
C1927 C 0.74923 0.74836 0.74262 0.0
C1928 C 0.74202 0.73496 0.76515 0.0
C1929 C 0.76143 0.77302 0.69831 0.0
C1930 C 0.74886 0.76886 0.71828 0.0
C1931 C 0.74273 0.75645 0.73952 0.0
C1932 C 0.74317 0.77837 0.72093 0.0
C1933 C 0.76848 0.78635 0.67526 0.0
C1934 C 0.74602 0.78667 0.75366 0.0
C1935 C 0.7444 0.79839 0.75296 0.0
C1936 C 0.73991 0.80199 0.71943 0.0
C1937 C 0.73573 0.79281 0.688 0.0
C1938 C 0.73739 0.7811 0.68874 0.0
H1939 H 0.77887 0.78871 0.66435 0.0
H1940 H 0.76184 0.78542 0.65044 0.0
H1941 H 0.76983 0.79528 0.69291 0.0
H1942 H 0.75052 0.78471 0.77873 0.0
H1943 H 0.74754 0.80511 0.77783 0.0
H1944 H 0.25101 0.05131 0.83642 0.0
H1945 H 0.24893 0.0287 0.82409 0.0
H1946 H 0.25594 0.03848 0.70384 0.0
H1947 H 0.25724 0.06086 0.71588 0.0
H1948 H 0.23274 0.0162 0.71306 0.0
H1949 H 0.27046 0.0099 0.80093 0.0
H1950 H 0.26113 0.01567 0.83051 0.0
H1951 H 0.27215 0.02679 0.79262 0.0
C1952 C 0.25256 0.04883 0.80753 0.0
C1953 C 0.2541 0.05774 0.77702 0.0
C1954 C 0.25151 0.03592 0.80052 0.0
C1955 C 0.25239 0.03186 0.76303 0.0
C1956 C 0.25522 0.04135 0.73301 0.0
H1957 H 0.21239 0.94557 0.68245 0.0
H1958 H 0.23148 0.96959 0.68938 0.0
C1959 C 0.25593 0.05412 0.73988 0.0
C1960 C 0.24754 0.01699 0.75446 0.0
H1961 H 0.24848 0.98831 0.78678 0.0
C1962 C 0.23652 0.01022 0.72834 0.0
C1963 C 0.25235 0.00909 0.77454 0.0
C1964 C 0.26478 0.01581 0.80088 0.0
C1965 C 0.22958 0.99574 0.72359 0.0
C1966 C 0.23382 0.98776 0.74543 0.0
C1967 C 0.24527 0.9945 0.77018 0.0
C1968 C 0.22526 0.9724 0.74574 0.0
C1969 C 0.21718 0.98896 0.697 0.0
C1970 C 0.21598 0.96585 0.7761 0.0
C1971 C 0.20501 0.95216 0.77224 0.0
C1972 C 0.20316 0.94483 0.73787 0.0
C1973 C 0.21339 0.95096 0.70913 0.0
C1974 C 0.22435 0.96467 0.71304 0.0
H1975 H 0.21432 0.99655 0.68545 0.0
H1976 H 0.21964 0.98416 0.67257 0.0
H1977 H 0.20798 0.98055 0.71208 0.0
H1978 H 0.21654 0.9717 0.80154 0.0
H1979 H 0.19745 0.94771 0.79516 0.0
H1980 H 0.93812 0.21507 0.80361 0.0
H1981 H 0.95989 0.23706 0.79302 0.0
H1982 H 0.97252 0.21661 0.71013 0.0
H1983 H 0.95073 0.19507 0.719 0.0
H1984 H 0.98383 0.24212 0.81099 0.0
H1985 H 0.98773 0.25249 0.65786 0.0
H1986 H 0.97127 0.24025 0.67957 0.0
H1987 H 0.98301 0.23456 0.66209 0.0
C1988 C 0.94539 0.21541 0.78231 0.0
C1989 C 0.94271 0.20329 0.7623 0.0
C1990 C 0.95783 0.22799 0.77625 0.0
C1991 C 0.96783 0.22864 0.75028 0.0
C1992 C 0.96484 0.21665 0.72924 0.0
H1993 H 0.04588 0.24612 0.78047 0.0
H1994 H 0.02306 0.24361 0.789 0.0
C1995 C 0.95237 0.20419 0.73476 0.0
C1996 C 0.98223 0.24084 0.74941 0.0
H1997 H 0.00994 0.25623 0.68874 0.0
C1998 C 0.98945 0.24559 0.78416 0.0
C1999 C 0.98965 0.24605 0.71476 0.0
C2000 C 0.98239 0.24316 0.67659 0.0
C2001 C 0.00404 0.25372 0.78497 0.0
C2002 C 0.01158 0.25659 0.7503 0.0
C2003 C 0.00427 0.2536 0.71557 0.0
C2004 C 0.02641 0.26008 0.74941 0.0
C2005 C 0.01121 0.2585 0.82316 0.0
C2006 C 0.036 0.27005 0.7238 0.0
C2007 C 0.04907 0.27124 0.71796 0.0
C2008 C 0.05278 0.2625 0.73779 0.0
C2009 C 0.04344 0.25309 0.76486 0.0
C2010 C 0.03037 0.25176 0.77019 0.0
H2011 H 0.00522 0.26169 0.84206 0.0
H2012 H 0.01149 0.24969 0.83744 0.0
H2013 H 0.02202 0.26739 0.82025 0.0
H2014 H 0.03318 0.27653 0.70722 0.0
H2015 H 0.05606 0.27865 0.69701 0.0
H2016 H 0.87124 0.58265 0.61954 0.0
H2017 H 0.89264 0.582 0.62607 0.0
H2018 H 0.91261 0.61489 0.54246 0.0
H2019 H 0.89072 0.61506 0.5342 0.0
H2020 H 0.91695 0.59577 0.52272 0.0
H2021 H 0.92921 0.60182 0.67474 0.0
H2022 H 0.91113 0.58893 0.67212 0.0
H2023 H 0.91697 0.60644 0.65508 0.0
C2024 C 0.88025 0.59003 0.60318 0.0
C2025 C 0.87921 0.59881 0.57604 0.0
C2026 C 0.89264 0.58978 0.60734 0.0
C2027 C 0.90444 0.59858 0.58533 0.0
C2028 C 0.9037 0.60803 0.55993 0.0
H2029 H 0.95217 0.55753 0.63028 0.0
H2030 H 0.95115 0.57894 0.62124 0.0
C2031 C 0.89117 0.60811 0.5552 0.0
C2032 C 0.9164 0.59602 0.58445 0.0
H2033 H 0.93178 0.58285 0.64214 0.0
C2034 C 0.92059 0.59343 0.54892 0.0
C2035 C 0.92186 0.59354 0.61822 0.0
C2036 C 0.91965 0.59804 0.65706 0.0
C2037 C 0.92833 0.58658 0.54656 0.0
C2038 C 0.93136 0.58164 0.58047 0.0
C2039 C 0.929 0.58609 0.61589 0.0
C2040 C 0.93429 0.56992 0.58006 0.0
C2041 C 0.93251 0.58408 0.50762 0.0
C2042 C 0.92543 0.55779 0.55929 0.0
C2043 C 0.92615 0.54567 0.56391 0.0
C2044 C 0.93548 0.54522 0.59027 0.0
C2045 C 0.9448 0.55751 0.60988 0.0
C2046 C 0.94424 0.56977 0.60471 0.0
H2047 H 0.93585 0.59339 0.48915 0.0
H2048 H 0.94115 0.58173 0.50925 0.0
H2049 H 0.92337 0.57524 0.49361 0.0
H2050 H 0.9173 0.55735 0.54119 0.0
H2051 H 0.91875 0.5364 0.54849 0.0
H2052 H 0.38688 0.27471 0.55461 0.0
H2053 H 0.38681 0.2966 0.56521 0.0
H2054 H 0.42565 0.31297 0.62697 0.0
H2055 H 0.42527 0.29105 0.6187 0.0
H2056 H 0.41027 0.32187 0.65842 0.0
H2057 H 0.40988 0.32962 0.501 0.0
H2058 H 0.39477 0.31509 0.52173 0.0
H2059 H 0.41108 0.3152 0.52043 0.0
C2060 C 0.39526 0.28295 0.57096 0.0
C2061 C 0.40617 0.28124 0.58545 0.0
C2062 C 0.39526 0.29548 0.57676 0.0
C2063 C 0.40641 0.30662 0.59601 0.0
C2064 C 0.4169 0.30458 0.61203 0.0
H2065 H 0.46531 0.38274 0.55852 0.0
H2066 H 0.44426 0.36027 0.55533 0.0
C2067 C 0.41671 0.29201 0.60715 0.0
C2068 C 0.40824 0.32086 0.59725 0.0
H2069 H 0.41796 0.34912 0.53964 0.0
C2070 C 0.41171 0.32784 0.63254 0.0
C2071 C 0.40973 0.32855 0.56347 0.0
C2072 C 0.40625 0.32181 0.52446 0.0
C2073 C 0.4187 0.34245 0.63453 0.0
C2074 C 0.42155 0.35024 0.60025 0.0
C2075 C 0.41599 0.34312 0.56573 0.0
C2076 C 0.43299 0.365 0.59796 0.0
C2077 C 0.42429 0.34931 0.6728 0.0
C2078 C 0.43358 0.37553 0.62173 0.0
C2079 C 0.44594 0.38843 0.62447 0.0
C2080 C 0.45771 0.39111 0.6026 0.0
C2081 C 0.45653 0.38105 0.57608 0.0
C2082 C 0.44439 0.36813 0.57407 0.0
H2083 H 0.42251 0.3416 0.6956 0.0
H2084 H 0.43567 0.35677 0.67097 0.0
H2085 H 0.419 0.35513 0.68156 0.0
H2086 H 0.42476 0.37357 0.63941 0.0
H2087 H 0.44645 0.39609 0.64468 0.0
H2088 H 0.62112 0.08465 0.5499 0.0
H2089 H 0.64255 0.08481 0.53605 0.0
H2090 H 0.6313 0.05107 0.6159 0.0
H2091 H 0.60989 0.05141 0.63168 0.0
H2092 H 0.65553 0.0692 0.6314 0.0
H2093 H 0.6571 0.06511 0.47695 0.0
H2094 H 0.65224 0.07809 0.48421 0.0
H2095 H 0.64092 0.06047 0.5011 0.0
C2096 C 0.62297 0.077 0.56398 0.0
C2097 C 0.61383 0.06811 0.59221 0.0
C2098 C 0.63523 0.07696 0.55553 0.0
C2099 C 0.63852 0.06773 0.5742 0.0
C2100 C 0.629 0.05823 0.60087 0.0
H2101 H 0.72516 0.11265 0.50888 0.0
H2102 H 0.70394 0.0901 0.51904 0.0
C2103 C 0.61677 0.05845 0.60992 0.0
C2104 C 0.65288 0.06995 0.57041 0.0
H2105 H 0.67958 0.08441 0.50642 0.0
C2106 C 0.6607 0.07202 0.60385 0.0
C2107 C 0.65979 0.07293 0.53467 0.0
C2108 C 0.65195 0.06882 0.49732 0.0
C2109 C 0.67533 0.07909 0.60275 0.0
C2110 C 0.68221 0.08482 0.5677 0.0
C2111 C 0.67441 0.08066 0.53373 0.0
C2112 C 0.6965 0.0972 0.56645 0.0
C2113 C 0.68318 0.08108 0.63957 0.0
C2114 C 0.69961 0.10865 0.59014 0.0
C2115 C 0.71176 0.1214 0.58482 0.0
C2116 C 0.72097 0.1232 0.55489 0.0
C2117 C 0.71823 0.11162 0.53208 0.0
C2118 C 0.70611 0.09872 0.5379 0.0
H2119 H 0.67811 0.07131 0.65663 0.0
H2120 H 0.69424 0.0841 0.63446 0.0
H2121 H 0.68279 0.08927 0.65699 0.0
H2122 H 0.69221 0.10807 0.61136 0.0
H2123 H 0.71345 0.13006 0.60285 0.0
H2124 H 0.40465 0.13105 0.12837 0.0
H2125 H 0.40557 0.10971 0.14069 0.0
H2126 H 0.41783 0.10967 0.02357 0.0
H2127 H 0.4159 0.13029 0.01058 0.0
H2128 H 0.40345 0.08377 0.0485 0.0
H2129 H 0.44368 0.11594 0.15688 0.0
H2130 H 0.42654 0.1129 0.16741 0.0
H2131 H 0.43584 0.12317 0.12633 0.0
C2132 C 0.4072 0.12624 0.10514 0.0
C2133 C 0.41045 0.13239 0.06873 0.0
C2134 C 0.4078 0.11412 0.11221 0.0
C2135 C 0.41228 0.1084 0.08343 0.0
C2136 C 0.41444 0.11394 0.04633 0.0
H2137 H 0.46452 0.07744 0.04716 0.0
H2138 H 0.44476 0.0813 0.04113 0.0
C2139 C 0.41339 0.12576 0.03894 0.0
C2140 C 0.41652 0.09795 0.09248 0.0
H2141 H 0.44074 0.09413 0.14308 0.0
C2142 C 0.41145 0.08592 0.06963 0.0
C2143 C 0.42703 0.10078 0.11996 0.0
C2144 C 0.4337 0.11394 0.14382 0.0
C2145 C 0.41709 0.07706 0.07221 0.0
C2146 C 0.42792 0.08024 0.09857 0.0
C2147 C 0.43231 0.09168 0.12315 0.0
C2148 C 0.43652 0.07349 0.09752 0.0
C2149 C 0.41187 0.06468 0.04583 0.0
C2150 C 0.4381 0.06729 0.13064 0.0
C2151 C 0.44942 0.06509 0.13424 0.0
C2152 C 0.45947 0.06932 0.10499 0.0
C2153 C 0.45706 0.07423 0.07039 0.0
C2154 C 0.44567 0.0763 0.06672 0.0
H2155 H 0.40121 0.06139 0.03513 0.0
H2156 H 0.41896 0.06755 0.02083 0.0
H2157 H 0.41176 0.05572 0.06046 0.0
H2158 H 0.4312 0.06516 0.15481 0.0
H2159 H 0.45087 0.06117 0.16118 0.0
H2160 H 0.9315 0.38837 0.13416 0.0
H2161 H 0.93285 0.36726 0.12254 0.0
H2162 H 0.89961 0.35367 0.03984 0.0
H2163 H 0.8988 0.37489 0.04964 0.0
H2164 H 0.91512 0.34307 0.14002 0.0
H2165 H 0.92108 0.33971 0.98663 0.0
H2166 H 0.92471 0.35597 0.00852 0.0
H2167 H 0.90739 0.34372 0.99129 0.0
C2168 C 0.92479 0.38104 0.11267 0.0
C2169 C 0.915 0.38327 0.09293 0.0
C2170 C 0.92558 0.36898 0.10601 0.0
C2171 C 0.9165 0.35888 0.07982 0.0
C2172 C 0.90714 0.36145 0.05908 0.0
H2173 H 0.85742 0.28124 0.11126 0.0
H2174 H 0.87805 0.30374 0.12036 0.0
C2175 C 0.90655 0.37358 0.06511 0.0
C2176 C 0.91493 0.34473 0.0785 0.0
H2177 H 0.90288 0.31718 0.01748 0.0
C2178 C 0.91294 0.33752 0.11309 0.0
C2179 C 0.91276 0.33741 0.0437 0.0
C2180 C 0.9168 0.34474 0.00557 0.0
C2181 C 0.90684 0.32295 0.1137 0.0
C2182 C 0.902 0.31543 0.07907 0.0
C2183 C 0.90599 0.3228 0.04436 0.0
C2184 C 0.89065 0.30059 0.07837 0.0
C2185 C 0.90498 0.31579 0.15169 0.0
C2186 C 0.89061 0.29114 0.05143 0.0
C2187 C 0.8785 0.27828 0.0452 0.0
C2188 C 0.86627 0.27461 0.06607 0.0
C2189 C 0.86665 0.28366 0.09478 0.0
C2190 C 0.87861 0.29656 0.10044 0.0
H2191 H 0.91443 0.3218 0.16964 0.0
H2192 H 0.89611 0.31552 0.16727 0.0
H2193 H 0.90303 0.30498 0.14835 0.0
H2194 H 0.89972 0.29399 0.03391 0.0
H2195 H 0.87856 0.27149 0.02301 0.0
H2196 H 0.71174 0.56886 0.11248 0.0
H2197 H 0.68974 0.56844 0.11925 0.0
H2198 H 0.70484 0.60457 0.04608 0.0
H2199 H 0.72675 0.60441 0.03703 0.0
H2200 H 0.68027 0.5842 0.14375 0.0
H2201 H 0.67182 0.5786 0.98606 0.0
H2202 H 0.68656 0.57862 0.00776 0.0
H2203 H 0.68619 0.59463 0.00325 0.0
C2204 C 0.71049 0.57684 0.09815 0.0
C2205 C 0.72086 0.5865 0.07363 0.0
C2206 C 0.69788 0.57664 0.10216 0.0
C2207 C 0.69543 0.58626 0.08239 0.0
C2208 C 0.70626 0.59673 0.06052 0.0
H2209 H 0.6057 0.5473 0.1303 0.0
H2210 H 0.62844 0.56855 0.12219 0.0
C2211 C 0.71881 0.59669 0.05561 0.0
C2212 C 0.68104 0.58406 0.08237 0.0
H2213 H 0.65247 0.5717 0.02455 0.0
C2214 C 0.67418 0.58171 0.11769 0.0
C2215 C 0.67317 0.58115 0.04823 0.0
C2216 C 0.67973 0.58329 0.00915 0.0
C2217 C 0.65956 0.57456 0.12004 0.0
C2218 C 0.65164 0.57037 0.08587 0.0
C2219 C 0.65859 0.57472 0.05063 0.0
C2220 C 0.6369 0.55883 0.08547 0.0
C2221 C 0.65287 0.57028 0.15902 0.0
C2222 C 0.63372 0.54663 0.06526 0.0
C2223 C 0.6207 0.53469 0.06886 0.0
C2224 C 0.61058 0.53456 0.09335 0.0
C2225 C 0.61339 0.54702 0.11172 0.0
C2226 C 0.62641 0.55914 0.10735 0.0
H2227 H 0.66068 0.57292 0.18214 0.0
H2228 H 0.647 0.57576 0.16519 0.0
H2229 H 0.64546 0.55887 0.15996 0.0
H2230 H 0.64158 0.54606 0.04813 0.0
H2231 H 0.61891 0.52533 0.05411 0.0
H2232 H 0.54068 0.92027 0.83487 0.0
H2233 H 0.55965 0.91632 0.85361 0.0
H2234 H 0.5567 0.92781 0.96967 0.0
H2235 H 0.53693 0.93073 0.95146 0.0
H2236 H 0.58455 0.92785 0.88639 0.0
H2237 H 0.54511 0.88792 0.98447 0.0
H2238 H 0.54074 0.89758 0.95148 0.0
H2239 H 0.54971 0.90552 0.99537 0.0
C2240 C 0.54431 0.92229 0.86418 0.0
C2241 C 0.5372 0.92549 0.89195 0.0
C2242 C 0.55518 0.92005 0.87488 0.0
C2243 C 0.55926 0.92128 0.91335 0.0
C2244 C 0.55336 0.92628 0.94013 0.0
H2245 H 0.59486 0.87274 0.00468 0.0
H2246 H 0.59327 0.89388 0.99814 0.0
C2247 C 0.54215 0.92805 0.9297 0.0
C2248 C 0.56795 0.91525 0.92574 0.0
H2249 H 0.56607 0.8882 0.97736 0.0
C2250 C 0.58064 0.91934 0.90679 0.0
C2251 C 0.56279 0.90405 0.95224 0.0
C2252 C 0.5488 0.8984 0.97183 0.0
C2253 C 0.5879 0.91208 0.91221 0.0
C2254 C 0.5824 0.90059 0.93743 0.0
C2255 C 0.57029 0.89713 0.95829 0.0
C2256 C 0.58746 0.89053 0.93846 0.0
C2257 C 0.60109 0.91636 0.88991 0.0
C2258 C 0.58514 0.88191 0.9067 0.0
C2259 C 0.58583 0.86971 0.91043 0.0
C2260 C 0.58887 0.86596 0.94602 0.0
C2261 C 0.59242 0.87528 0.9769 0.0
C2262 C 0.5916 0.88742 0.97322 0.0
H2263 H 0.60606 0.92743 0.88063 0.0
H2264 H 0.60868 0.91488 0.90713 0.0
H2265 H 0.59852 0.90975 0.86396 0.0
H2266 H 0.58169 0.884 0.87981 0.0
H2267 H 0.58318 0.86283 0.88599 0.0
H2268 H 0.04888 0.60413 0.86251 0.0
H2269 H 0.05188 0.62752 0.8701 0.0
H2270 H 0.08574 0.6381 0.94893 0.0
H2271 H 0.08226 0.61479 0.94339 0.0
H2272 H 0.07215 0.65057 0.96957 0.0
H2273 H 0.08227 0.65883 0.81288 0.0
H2274 H 0.06506 0.64589 0.82767 0.0
H2275 H 0.07954 0.64311 0.83584 0.0
C2276 C 0.05675 0.61139 0.88205 0.0
C2277 C 0.06549 0.60768 0.90182 0.0
C2278 C 0.05853 0.62479 0.88612 0.0
C2279 C 0.06933 0.63475 0.90914 0.0
C2280 C 0.07735 0.63067 0.93085 0.0
H2281 H 0.1371 0.70892 0.88823 0.0
H2282 H 0.11535 0.68718 0.87967 0.0
C2283 C 0.07539 0.61728 0.92751 0.0
C2284 C 0.07358 0.64979 0.90844 0.0
H2285 H 0.09065 0.67845 0.85121 0.0
C2286 C 0.07596 0.65672 0.94364 0.0
C2287 C 0.07831 0.65777 0.87442 0.0
C2288 C 0.07626 0.65109 0.83553 0.0
C2289 C 0.08464 0.67123 0.9464 0.0
C2290 C 0.09045 0.6791 0.9126 0.0
C2291 C 0.08636 0.67235 0.87705 0.0
C2292 C 0.1029 0.69332 0.91363 0.0
C2293 C 0.08863 0.67768 0.98571 0.0
C2294 C 0.10316 0.7043 0.93445 0.0
C2295 C 0.1158 0.7167 0.94034 0.0
C2296 C 0.12825 0.71845 0.92443 0.0
C2297 C 0.12771 0.70791 0.90095 0.0
C2298 C 0.11522 0.69545 0.89593 0.0
H2299 H 0.08482 0.66971 0.00874 0.0
H2300 H 0.10015 0.6842 0.98835 0.0
H2301 H 0.08402 0.68444 0.99054 0.0
H2302 H 0.09373 0.70311 0.94729 0.0
H2303 H 0.11588 0.72477 0.95808 0.0
H2304 H 0.27466 0.41413 0.89397 0.0
H2305 H 0.29668 0.41428 0.88762 0.0
H2306 H 0.29629 0.40617 0.00824 0.0
H2307 H 0.27419 0.40592 0.01497 0.0
H2308 H 0.31838 0.43215 0.98125 0.0
H2309 H 0.31379 0.38824 0.8942 0.0
H2310 H 0.30417 0.3961 0.87578 0.0
H2311 H 0.29936 0.38727 0.92109 0.0
C2312 C 0.27902 0.41194 0.91898 0.0
C2313 C 0.2728 0.41027 0.95511 0.0
C2314 C 0.29153 0.41187 0.91519 0.0
C2315 C 0.29805 0.41014 0.94742 0.0
C2316 C 0.29132 0.40737 0.98298 0.0
H2317 H 0.3891 0.4563 0.95163 0.0
H2318 H 0.36602 0.4381 0.97322 0.0
C2319 C 0.27873 0.4073 0.98676 0.0
C2320 C 0.31299 0.41442 0.94528 0.0
H2321 H 0.33641 0.40908 0.89547 0.0
C2322 C 0.32239 0.42694 0.96334 0.0
C2323 C 0.31807 0.40764 0.92153 0.0
C2324 C 0.30833 0.39399 0.90226 0.0
C2325 C 0.33672 0.43353 0.95589 0.0
C2326 C 0.34187 0.42704 0.93091 0.0
C2327 C 0.33249 0.41402 0.91474 0.0
C2328 C 0.35652 0.43459 0.91721 0.0
C2329 C 0.34594 0.44794 0.97232 0.0
C2330 C 0.35917 0.43754 0.87806 0.0
C2331 C 0.37246 0.4475 0.86553 0.0
C2332 C 0.38319 0.45482 0.89209 0.0
C2333 C 0.3809 0.45091 0.93074 0.0
C2334 C 0.36771 0.4406 0.94308 0.0
H2335 H 0.33979 0.45259 0.98367 0.0
H2336 H 0.35214 0.44729 0.99631 0.0
H2337 H 0.35325 0.45514 0.95038 0.0
H2338 H 0.35073 0.43296 0.85749 0.0
H2339 H 0.37399 0.45034 0.83556 0.0
H2340 H 0.07792 0.46596 0.45332 0.0
H2341 H 0.07892 0.44481 0.46767 0.0
H2342 H 0.08761 0.44163 0.34899 0.0
H2343 H 0.08566 0.46212 0.33419 0.0
H2344 H 0.07355 0.41639 0.37916 0.0
H2345 H 0.11724 0.45063 0.47639 0.0
H2346 H 0.10066 0.44841 0.49027 0.0
H2347 H 0.10874 0.45734 0.44641 0.0
C2348 C 0.07969 0.46051 0.43023 0.0
C2349 C 0.08194 0.46577 0.39279 0.0
C2350 C 0.08035 0.4485 0.43846 0.0
C2351 C 0.08386 0.44194 0.40966 0.0
C2352 C 0.085 0.44656 0.37176 0.0
H2353 H 0.13256 0.40605 0.37373 0.0
H2354 H 0.11403 0.41179 0.36845 0.0
C2355 C 0.08392 0.45831 0.36333 0.0
C2356 C 0.08808 0.43151 0.41913 0.0
H2357 H 0.11304 0.42805 0.467 0.0
C2358 C 0.08205 0.41884 0.3988 0.0
C2359 C 0.09927 0.43476 0.44457 0.0
C2360 C 0.10695 0.44856 0.4654 0.0
C2361 C 0.08729 0.40965 0.4021 0.0
C2362 C 0.09868 0.41316 0.42662 0.0
C2363 C 0.10417 0.42537 0.44854 0.0
C2364 C 0.10655 0.40563 0.42629 0.0
C2365 C 0.08095 0.3965 0.37851 0.0
C2366 C 0.10814 0.39979 0.46013 0.0
C2367 C 0.11872 0.39647 0.46326 0.0
C2368 C 0.12806 0.39922 0.43279 0.0
C2369 C 0.12564 0.40392 0.39783 0.0
C2370 C 0.11495 0.40709 0.39463 0.0
H2371 H 0.07027 0.39351 0.36869 0.0
H2372 H 0.08755 0.39822 0.35292 0.0
H2373 H 0.08051 0.38772 0.39506 0.0
H2374 H 0.10182 0.39873 0.48496 0.0
H2375 H 0.12025 0.39282 0.49055 0.0
H2376 H 0.54576 0.6199 0.33406 0.0
H2377 H 0.56538 0.64183 0.35559 0.0
H2378 H 0.55531 0.62834 0.47288 0.0
H2379 H 0.53505 0.60663 0.45131 0.0
H2380 H 0.55551 0.65093 0.46508 0.0
H2381 H 0.60366 0.65966 0.39526 0.0
H2382 H 0.59059 0.6549 0.35923 0.0
H2383 H 0.58819 0.64261 0.39653 0.0
C2384 C 0.54797 0.62141 0.36439 0.0
C2385 C 0.53878 0.61167 0.39106 0.0
C2386 C 0.55934 0.63394 0.37673 0.0
C2387 C 0.56199 0.63677 0.41594 0.0
C2388 C 0.55351 0.62643 0.44248 0.0
H2389 H 0.60295 0.72235 0.50473 0.0
H2390 H 0.59935 0.69873 0.49977 0.0
C2391 C 0.54191 0.61405 0.43017 0.0
C2392 C 0.57148 0.65131 0.42887 0.0
H2393 H 0.60192 0.68093 0.40608 0.0
C2394 C 0.56587 0.65735 0.45323 0.0
C2395 C 0.58502 0.65978 0.41351 0.0
C2396 C 0.59222 0.6538 0.39003 0.0
C2397 C 0.57285 0.67173 0.45997 0.0
C2398 C 0.5858 0.68032 0.44186 0.0
C2399 C 0.59192 0.67427 0.41965 0.0
C2400 C 0.59183 0.69559 0.44159 0.0
C2401 C 0.56584 0.67778 0.48412 0.0
C2402 C 0.58943 0.70181 0.40982 0.0
C2403 C 0.59134 0.71523 0.41256 0.0
C2404 C 0.59572 0.72264 0.44719 0.0
C2405 C 0.59944 0.71688 0.47775 0.0
C2406 C 0.59746 0.70341 0.47499 0.0
H2407 H 0.5553 0.66971 0.49394 0.0
H2408 H 0.57234 0.68293 0.50967 0.0
H2409 H 0.56484 0.68582 0.46769 0.0
H2410 H 0.58504 0.69587 0.38384 0.0
H2411 H 0.58856 0.71942 0.38832 0.0
H2412 H 0.39192 0.94673 0.35796 0.0
H2413 H 0.37033 0.94718 0.3698 0.0
H2414 H 0.3582 0.9145 0.45371 0.0
H2415 H 0.37981 0.91456 0.44368 0.0
H2416 H 0.34644 0.92849 0.35269 0.0
H2417 H 0.34259 0.93472 0.50562 0.0
H2418 H 0.35912 0.93915 0.48395 0.0
H2419 H 0.34761 0.92173 0.50191 0.0
C2420 C 0.38481 0.93997 0.3798 0.0
C2421 C 0.38754 0.93053 0.39966 0.0
C2422 C 0.37248 0.94025 0.38658 0.0
C2423 C 0.36263 0.93103 0.4131 0.0
C2424 C 0.36575 0.92212 0.43416 0.0
H2425 H 0.287 0.86838 0.3825 0.0
H2426 H 0.30878 0.88988 0.3735 0.0
C2427 C 0.37812 0.92201 0.42795 0.0
C2428 C 0.34819 0.92869 0.41425 0.0
H2429 H 0.32056 0.91522 0.47532 0.0
C2430 C 0.34086 0.92609 0.37963 0.0
C2431 C 0.34077 0.9262 0.44901 0.0
C2432 C 0.34805 0.93081 0.48708 0.0
C2433 C 0.32624 0.91906 0.37904 0.0
C2434 C 0.31883 0.91395 0.41374 0.0
C2435 C 0.32614 0.91854 0.44841 0.0
C2436 C 0.30437 0.90184 0.41465 0.0
C2437 C 0.31895 0.91652 0.34102 0.0
C2438 C 0.29451 0.90114 0.44121 0.0
C2439 C 0.28208 0.88856 0.44737 0.0
C2440 C 0.27927 0.87649 0.42682 0.0
C2441 C 0.28876 0.87746 0.39866 0.0
C2442 C 0.30122 0.88991 0.39307 0.0
H2443 H 0.32441 0.92595 0.32271 0.0
H2444 H 0.31938 0.90792 0.32587 0.0
H2445 H 0.30789 0.91379 0.34427 0.0
H2446 H 0.29669 0.91015 0.45839 0.0
H2447 H 0.27493 0.88816 0.46914 0.0
H2448 H 0.2954 0.16019 0.29082 0.0
H2449 H 0.31621 0.16354 0.25679 0.0
H2450 H 0.29186 0.14654 0.15435 0.0
H2451 H 0.27109 0.14327 0.18772 0.0
H2452 H 0.32053 0.14334 0.21901 0.0
H2453 H 0.3246 0.18413 0.11872 0.0
H2454 H 0.31397 0.17929 0.16133 0.0
H2455 H 0.30786 0.16846 0.11947 0.0
C2456 C 0.29446 0.15717 0.26104 0.0
C2457 C 0.28157 0.15153 0.242 0.0
C2458 C 0.30636 0.1591 0.24167 0.0
C2459 C 0.30559 0.15551 0.20292 0.0
C2460 C 0.29272 0.14965 0.18403 0.0
H2461 H 0.367 0.15966 0.03883 0.0
H2462 H 0.34549 0.15577 0.07009 0.0
C2463 C 0.28084 0.14772 0.2033 0.0
C2464 C 0.3182 0.15765 0.18234 0.0
H2465 H 0.33981 0.17521 0.10768 0.0
C2466 C 0.32479 0.15034 0.19476 0.0
C2467 C 0.32365 0.16673 0.15057 0.0
C2468 C 0.31725 0.17521 0.13684 0.0
C2469 C 0.33664 0.15176 0.17601 0.0
C2470 C 0.34216 0.16093 0.14446 0.0
C2471 C 0.33551 0.16816 0.13182 0.0
C2472 C 0.35516 0.16355 0.12517 0.0
C2473 C 0.34303 0.14328 0.1898 0.0
C2474 C 0.36771 0.1695 0.14561 0.0
C2475 C 0.37996 0.17172 0.12797 0.0
C2476 C 0.37994 0.16813 0.08934 0.0
C2477 C 0.36738 0.1625 0.06861 0.0
C2478 C 0.35509 0.16027 0.08639 0.0
H2479 H 0.33551 0.13411 0.20689 0.0
H2480 H 0.34673 0.13956 0.16543 0.0
H2481 H 0.35213 0.14991 0.20829 0.0
H2482 H 0.36804 0.1724 0.17533 0.0
H2483 H 0.38942 0.17618 0.14485 0.0
H2484 H 0.81899 0.20895 0.13251 0.0
H2485 H 0.81945 0.18971 0.16485 0.0
H2486 H 0.83844 0.1829 0.06573 0.0
H2487 H 0.8379 0.20214 0.03265 0.0
H2488 H 0.81579 0.15832 0.09679 0.0
H2489 H 0.85408 0.19022 0.20868 0.0
H2490 H 0.83952 0.19308 0.20496 0.0
H2491 H 0.85156 0.19775 0.16577 0.0
C2492 C 0.82331 0.20343 0.11746 0.0
C2493 C 0.82848 0.20717 0.07996 0.0
C2494 C 0.82363 0.19246 0.13615 0.0
C2495 C 0.8292 0.18506 0.11792 0.0
C2496 C 0.8342 0.18858 0.08035 0.0
H2497 H 0.83777 0.11431 0.18709 0.0
H2498 H 0.83785 0.13344 0.15226 0.0
C2499 C 0.83389 0.19958 0.06154 0.0
C2500 C 0.82948 0.17343 0.13797 0.0
H2501 H 0.84202 0.16561 0.21763 0.0
C2502 C 0.82161 0.1599 0.12304 0.0
C2503 C 0.83705 0.17556 0.17226 0.0
C2504 C 0.84614 0.18995 0.18875 0.0
C2505 C 0.82083 0.14837 0.14206 0.0
C2506 C 0.8283 0.15049 0.17654 0.0
C2507 C 0.83626 0.16403 0.19129 0.0
C2508 C 0.8281 0.13881 0.19764 0.0
C2509 C 0.81174 0.13397 0.12564 0.0
C2510 C 0.82287 0.13569 0.23506 0.0
C2511 C 0.82287 0.12479 0.25525 0.0
C2512 C 0.82819 0.11687 0.23841 0.0
C2513 C 0.83352 0.12013 0.20094 0.0
C2514 C 0.83351 0.13101 0.18083 0.0
H2515 H 0.80406 0.13376 0.10479 0.0
H2516 H 0.81841 0.13064 0.11053 0.0
H2517 H 0.80599 0.12627 0.1486 0.0
H2518 H 0.81873 0.14167 0.24858 0.0
H2519 H 0.81872 0.1226 0.28405 0.0
H2520 H 0.78671 0.60716 0.14269 0.0
H2521 H 0.80641 0.62778 0.17086 0.0
H2522 H 0.81272 0.65025 0.06527 0.0
H2523 H 0.79291 0.62971 0.03674 0.0
H2524 H 0.83432 0.6419 0.14465 0.0
H2525 H 0.81129 0.67649 0.14653 0.0
H2526 H 0.80086 0.65783 0.14021 0.0
H2527 H 0.81088 0.66874 0.10105 0.0
C2528 C 0.79222 0.61649 0.1254 0.0
C2529 C 0.78818 0.61678 0.08742 0.0
C2530 C 0.80349 0.62826 0.1416 0.0
C2531 C 0.8109 0.64056 0.12029 0.0
C2532 C 0.80696 0.64091 0.08238 0.0
H2533 H 0.88232 0.72153 0.17464 0.0
H2534 H 0.86302 0.7015 0.14299 0.0
C2535 C 0.79568 0.62914 0.06609 0.0
C2536 C 0.82298 0.65287 0.13757 0.0
H2537 H 0.83495 0.68658 0.16495 0.0
C2538 C 0.83447 0.65167 0.14916 0.0
C2539 C 0.82312 0.66559 0.14324 0.0
C2540 C 0.81085 0.66728 0.13243 0.0
C2541 C 0.84618 0.66292 0.16608 0.0
C2542 C 0.84627 0.67559 0.17217 0.0
C2543 C 0.83483 0.67684 0.16024 0.0
C2544 C 0.85805 0.68763 0.19137 0.0
C2545 C 0.85846 0.6612 0.17674 0.0
C2546 C 0.86153 0.6865 0.22922 0.0
C2547 C 0.87258 0.69791 0.24743 0.0
C2548 C 0.88029 0.71072 0.22818 0.0
C2549 C 0.87665 0.71183 0.19032 0.0
C2550 C 0.86561 0.7004 0.17215 0.0
H2551 H 0.85832 0.6524 0.16109 0.0
H2552 H 0.86848 0.67088 0.17071 0.0
H2553 H 0.85802 0.65897 0.20778 0.0
H2554 H 0.85563 0.67681 0.24481 0.0
H2555 H 0.87502 0.69669 0.27665 0.0
H2556 H 0.17249 0.37974 0.34713 0.0
H2557 H 0.17095 0.36027 0.31034 0.0
H2558 H 0.15369 0.33332 0.4083 0.0
H2559 H 0.15501 0.35268 0.44535 0.0
H2560 H 0.18352 0.34436 0.32536 0.0
H2561 H 0.12583 0.31141 0.32327 0.0
H2562 H 0.13463 0.32963 0.33643 0.0
H2563 H 0.13304 0.31669 0.37033 0.0
C2564 C 0.16831 0.36967 0.36092 0.0
C2565 C 0.16381 0.36777 0.39923 0.0
C2566 C 0.16745 0.35856 0.33979 0.0
C2567 C 0.16202 0.34533 0.35643 0.0
C2568 C 0.15764 0.34339 0.3947 0.0
H2569 H 0.15111 0.26563 0.29615 0.0
H2570 H 0.15243 0.28618 0.32564 0.0
C2571 C 0.15848 0.3545 0.41589 0.0
C2572 C 0.16128 0.33363 0.33402 0.0
H2573 H 0.13872 0.30071 0.30224 0.0
C2574 C 0.17373 0.33485 0.31996 0.0
C2575 C 0.14847 0.3213 0.32694 0.0
C2576 C 0.13471 0.31968 0.33969 0.0
C2577 C 0.17376 0.32384 0.30014 0.0
C2578 C 0.16097 0.31139 0.29381 0.0
C2579 C 0.1485 0.31028 0.30722 0.0
C2580 C 0.16035 0.2991 0.27518 0.0
C2581 C 0.18749 0.3254 0.2873 0.0
C2582 C 0.16428 0.29954 0.23683 0.0
C2583 C 0.16355 0.28775 0.21969 0.0
C2584 C 0.15882 0.27534 0.24067 0.0
C2585 C 0.15482 0.27499 0.27905 0.0
C2586 C 0.15555 0.28672 0.29603 0.0
H2587 H 0.19652 0.33448 0.30101 0.0
H2588 H 0.18796 0.31583 0.29393 0.0
H2589 H 0.1885 0.32698 0.2559 0.0
H2590 H 0.16782 0.30895 0.2201 0.0
H2591 H 0.16666 0.28837 0.19008 0.0
H2592 H 0.61482 0.78551 0.36055 0.0
H2593 H 0.63468 0.80369 0.32572 0.0
H2594 H 0.65998 0.81385 0.42728 0.0
H2595 H 0.64007 0.79576 0.46279 0.0
H2596 H 0.66182 0.83713 0.38938 0.0
H2597 H 0.66926 0.80258 0.28869 0.0
H2598 H 0.65184 0.79986 0.28983 0.0
H2599 H 0.65887 0.79612 0.33156 0.0
C2600 C 0.62459 0.79155 0.37559 0.0
C2601 C 0.62583 0.78913 0.41452 0.0
C2602 C 0.63597 0.80189 0.3555 0.0
C2603 C 0.64884 0.80994 0.37378 0.0
C2604 C 0.65014 0.80766 0.41264 0.0
H2605 H 0.72951 0.87844 0.30863 0.0
H2606 H 0.70948 0.85968 0.34149 0.0
C2607 C 0.63874 0.79731 0.43282 0.0
C2608 C 0.66084 0.82106 0.35263 0.0
H2609 H 0.68243 0.82694 0.27655 0.0
C2610 C 0.66638 0.83491 0.36483 0.0
C2611 C 0.66669 0.8181 0.32049 0.0
C2612 C 0.66146 0.80335 0.30698 0.0
C2613 C 0.67753 0.84594 0.34543 0.0
C2614 C 0.68343 0.84298 0.31341 0.0
C2615 C 0.67785 0.82914 0.30107 0.0
C2616 C 0.69561 0.85411 0.29293 0.0
C2617 C 0.68276 0.86069 0.35895 0.0
C2618 C 0.69455 0.8569 0.25434 0.0
C2619 C 0.70603 0.86761 0.23529 0.0
C2620 C 0.71879 0.87563 0.25448 0.0
C2621 C 0.71985 0.87256 0.29297 0.0
C2622 C 0.70838 0.86188 0.31191 0.0
H2623 H 0.67494 0.86147 0.3771 0.0
H2624 H 0.69234 0.86416 0.37626 0.0
H2625 H 0.68542 0.86794 0.33439 0.0
H2626 H 0.68478 0.85093 0.23917 0.0
H2627 H 0.70487 0.86967 0.20563 0.0
H2628 H 0.20663 0.84603 0.45911 0.0
H2629 H 0.18725 0.84632 0.42638 0.0
H2630 H 0.19564 0.82969 0.32479 0.0
H2631 H 0.21508 0.82947 0.35691 0.0
H2632 H 0.19199 0.85285 0.31163 0.0
H2633 H 0.14912 0.81222 0.39971 0.0
H2634 H 0.16283 0.82627 0.42633 0.0
H2635 H 0.16651 0.81465 0.39944 0.0
C2636 C 0.20434 0.84239 0.42984 0.0
C2637 C 0.21241 0.83769 0.41073 0.0
C2638 C 0.19321 0.8425 0.41127 0.0
C2639 C 0.18992 0.83785 0.37337 0.0
C2640 C 0.19799 0.83326 0.35412 0.0
H2641 H 0.12865 0.83146 0.20701 0.0
H2642 H 0.148 0.83122 0.23995 0.0
C2643 C 0.2091 0.83313 0.37261 0.0
C2644 C 0.17825 0.83806 0.35338 0.0
H2645 H 0.14293 0.82431 0.35513 0.0
C2646 C 0.18125 0.84658 0.32101 0.0
C2647 C 0.16427 0.82987 0.36578 0.0
C2648 C 0.16041 0.82013 0.39952 0.0
C2649 C 0.17065 0.84732 0.30101 0.0
C2650 C 0.15667 0.83911 0.31337 0.0
C2651 C 0.15367 0.83059 0.34576 0.0
C2652 C 0.14499 0.83927 0.29327 0.0
C2653 C 0.17454 0.85709 0.26734 0.0
C2654 C 0.1367 0.84358 0.31262 0.0
C2655 C 0.12558 0.84366 0.294 0.0
C2656 C 0.12249 0.83935 0.25565 0.0
C2657 C 0.13077 0.83493 0.23645 0.0
C2658 C 0.14189 0.83485 0.25515 0.0
H2659 H 0.1858 0.86512 0.26756 0.0
H2660 H 0.17235 0.85101 0.24049 0.0
H2661 H 0.16831 0.86244 0.26709 0.0
H2662 H 0.13889 0.84697 0.34212 0.0
H2663 H 0.11942 0.8471 0.30976 0.0
H2664 H 0.69702 0.83153 0.70172 0.0
H2665 H 0.6763 0.82868 0.73512 0.0
H2666 H 0.70005 0.84372 0.83927 0.0
H2667 H 0.72071 0.84645 0.80652 0.0
H2668 H 0.67437 0.81912 0.84848 0.0
H2669 H 0.66849 0.85958 0.77019 0.0
H2670 H 0.66947 0.84684 0.74053 0.0
H2671 H 0.68432 0.85867 0.76856 0.0
C2672 C 0.69787 0.83431 0.73167 0.0
C2673 C 0.71056 0.83925 0.75137 0.0
C2674 C 0.68603 0.83273 0.75065 0.0
C2675 C 0.68671 0.83615 0.78953 0.0
C2676 C 0.69933 0.84106 0.80923 0.0
H2677 H 0.62993 0.83468 0.96289 0.0
H2678 H 0.64991 0.83663 0.92753 0.0
C2679 C 0.71114 0.84264 0.79037 0.0
C2680 C 0.67421 0.83426 0.81018 0.0
H2681 H 0.65065 0.84558 0.8141 0.0
C2682 C 0.66918 0.82491 0.84104 0.0
C2683 C 0.66748 0.84183 0.80031 0.0
C2684 C 0.67275 0.85239 0.76831 0.0
C2685 C 0.65751 0.82282 0.86214 0.0
C2686 C 0.65085 0.83047 0.85246 0.0
C2687 C 0.6558 0.83974 0.82142 0.0
C2688 C 0.63872 0.82902 0.87419 0.0
C2689 C 0.65226 0.81228 0.89418 0.0
C2690 C 0.6259 0.82432 0.85573 0.0
C2691 C 0.61449 0.82326 0.87574 0.0
C2692 C 0.6157 0.82696 0.91464 0.0
C2693 C 0.6286 0.83167 0.93306 0.0
C2694 C 0.64001 0.83273 0.91295 0.0
H2695 H 0.65622 0.80486 0.89167 0.0
H2696 H 0.65591 0.81782 0.92188 0.0
H2697 H 0.64068 0.80625 0.89466 0.0
H2698 H 0.62472 0.82147 0.82578 0.0
H2699 H 0.60475 0.81961 0.86056 0.0
H2700 H 0.15819 0.79124 0.95427 0.0
H2701 H 0.15825 0.81057 0.92028 0.0
H2702 H 0.17556 0.80183 0.82071 0.0
H2703 H 0.17573 0.78261 0.85445 0.0
H2704 H 0.189 0.83012 0.84024 0.0
H2705 H 0.13153 0.80733 0.83467 0.0
H2706 H 0.13826 0.80807 0.88183 0.0
H2707 H 0.13962 0.7971 0.84619 0.0
C2708 C 0.16197 0.79339 0.92511 0.0
C2709 C 0.16689 0.78531 0.90708 0.0
C2710 C 0.16193 0.8044 0.90567 0.0
C2711 C 0.1667 0.80747 0.86781 0.0
C2712 C 0.17176 0.79956 0.84986 0.0
H2713 H 0.17517 0.87149 0.70608 0.0
H2714 H 0.17568 0.85183 0.73657 0.0
C2715 C 0.17183 0.78856 0.86924 0.0
C2716 C 0.16667 0.81912 0.84714 0.0
H2717 H 0.14532 0.83107 0.81605 0.0
C2718 C 0.17945 0.83031 0.8347 0.0
C2719 C 0.15418 0.81928 0.83989 0.0
C2720 C 0.1401 0.80725 0.851 0.0
C2721 C 0.18012 0.84187 0.81611 0.0
C2722 C 0.16765 0.84211 0.80935 0.0
C2723 C 0.15486 0.83085 0.82139 0.0
C2724 C 0.16764 0.85412 0.79082 0.0
C2725 C 0.19419 0.8539 0.80485 0.0
C2726 C 0.16274 0.86174 0.81104 0.0
C2727 C 0.16236 0.8729 0.79373 0.0
C2728 C 0.16682 0.87664 0.75568 0.0
C2729 C 0.17172 0.86895 0.73545 0.0
C2730 C 0.17209 0.85776 0.75287 0.0
H2731 H 0.20286 0.85348 0.81959 0.0
H2732 H 0.19565 0.85351 0.7736 0.0
H2733 H 0.19486 0.86404 0.81151 0.0
H2734 H 0.15922 0.85906 0.84033 0.0
H2735 H 0.15851 0.87856 0.81024 0.0
H2736 H 0.20999 0.39577 0.87392 0.0
H2737 H 0.19077 0.37581 0.8424 0.0
H2738 H 0.18142 0.35202 0.94669 0.0
H2739 H 0.2006 0.3721 0.97897 0.0
H2740 H 0.1876 0.34956 0.83208 0.0
H2741 H 0.14337 0.34658 0.91522 0.0
H2742 H 0.16066 0.36169 0.91635 0.0
H2743 H 0.15684 0.34637 0.94334 0.0
C2744 C 0.20383 0.38636 0.89042 0.0
C2745 C 0.20684 0.38558 0.92913 0.0
C2746 C 0.19284 0.37494 0.87224 0.0
C2747 C 0.18458 0.3625 0.8923 0.0
C2748 C 0.18752 0.36162 0.9309 0.0
H2749 H 0.11586 0.28254 0.81769 0.0
H2750 H 0.13432 0.30168 0.85418 0.0
C2751 C 0.19853 0.37309 0.94923 0.0
C2752 C 0.17323 0.35037 0.87212 0.0
H2753 H 0.13791 0.32867 0.86998 0.0
C2754 C 0.17673 0.34499 0.84033 0.0
C2755 C 0.15908 0.34443 0.88306 0.0
C2756 C 0.15469 0.35011 0.91615 0.0
C2757 C 0.16645 0.33381 0.81918 0.0
C2758 C 0.1523 0.32799 0.8298 0.0
C2759 C 0.14879 0.33321 0.86191 0.0
C2760 C 0.14097 0.31653 0.80771 0.0
C2761 C 0.17083 0.3282 0.78589 0.0
C2762 C 0.13848 0.31863 0.76965 0.0
C2763 C 0.12793 0.30772 0.74862 0.0
C2764 C 0.11966 0.29451 0.76535 0.0
C2765 C 0.12207 0.29254 0.80377 0.0
C2766 C 0.13259 0.30347 0.82476 0.0
H2767 H 0.18209 0.33147 0.78722 0.0
H2768 H 0.16465 0.31662 0.785 0.0
H2769 H 0.16897 0.33225 0.75886 0.0
H2770 H 0.1447 0.32873 0.75622 0.0
H2771 H 0.12633 0.30963 0.7192 0.0
H2772 H 0.84172 0.72555 0.68738 0.0
H2773 H 0.8425 0.70581 0.65938 0.0
H2774 H 0.82769 0.68309 0.7652 0.0
H2775 H 0.8267 0.70282 0.79363 0.0
H2776 H 0.85806 0.6937 0.6846 0.0
H2777 H 0.80113 0.65547 0.68475 0.0
H2778 H 0.80801 0.67395 0.69133 0.0
H2779 H 0.80834 0.66347 0.73006 0.0
C2780 C 0.83855 0.71636 0.70481 0.0
C2781 C 0.8341 0.71578 0.74283 0.0
C2782 C 0.83902 0.70508 0.68869 0.0
C2783 C 0.83501 0.69295 0.71007 0.0
C2784 C 0.83059 0.69228 0.74802 0.0
H2785 H 0.832 0.61517 0.65099 0.0
H2786 H 0.83133 0.63424 0.68413 0.0
C2787 C 0.8301 0.70359 0.76425 0.0
C2788 C 0.83583 0.68119 0.69263 0.0
H2789 H 0.8161 0.64725 0.66437 0.0
C2790 C 0.84889 0.68353 0.68018 0.0
C2791 C 0.82386 0.66796 0.687 0.0
C2792 C 0.80951 0.66502 0.69866 0.0
C2793 C 0.85031 0.67296 0.6623 0.0
C2794 C 0.83831 0.65979 0.65616 0.0
C2795 C 0.82527 0.65738 0.66909 0.0
C2796 C 0.83902 0.64839 0.63603 0.0
C2797 C 0.86467 0.67593 0.65059 0.0
C2798 C 0.84346 0.65001 0.59785 0.0
C2799 C 0.84388 0.63913 0.57872 0.0
C2800 C 0.83975 0.62639 0.59739 0.0
C2801 C 0.83526 0.62482 0.63566 0.0
C2802 C 0.83486 0.63571 0.65471 0.0
H2803 H 0.873 0.68505 0.66617 0.0
H2804 H 0.86596 0.66674 0.65588 0.0
H2805 H 0.86613 0.67832 0.61958 0.0
H2806 H 0.84646 0.65964 0.58269 0.0
H2807 H 0.84731 0.64068 0.54924 0.0
H2808 H 0.29419 0.12993 0.809 0.0
H2809 H 0.31486 0.15005 0.78166 0.0
H2810 H 0.2937 0.14298 0.67354 0.0
H2811 H 0.27304 0.12302 0.70036 0.0
H2812 H 0.33072 0.15053 0.71639 0.0
H2813 H 0.30751 0.18442 0.69669 0.0
H2814 H 0.29986 0.16931 0.72756 0.0
H2815 H 0.29728 0.16726 0.67673 0.0
C2816 C 0.29391 0.13268 0.77944 0.0
C2817 C 0.28191 0.12488 0.75697 0.0
C2818 C 0.30573 0.14417 0.7639 0.0
C2819 C 0.30569 0.1481 0.72581 0.0
C2820 C 0.29382 0.14027 0.70323 0.0
H2821 H 0.36139 0.20811 0.56277 0.0
H2822 H 0.34197 0.18944 0.59811 0.0
C2823 C 0.28204 0.1288 0.71863 0.0
C2824 C 0.31815 0.16018 0.70906 0.0
H2825 H 0.32907 0.19146 0.66489 0.0
C2826 C 0.33045 0.15957 0.70549 0.0
C2827 C 0.31769 0.17192 0.69488 0.0
C2828 C 0.30492 0.17338 0.69942 0.0
C2829 C 0.3422 0.17018 0.68676 0.0
C2830 C 0.34164 0.18178 0.67187 0.0
C2831 C 0.32943 0.18252 0.67619 0.0
C2832 C 0.3535 0.19311 0.65083 0.0
C2833 C 0.35492 0.16864 0.68184 0.0
C2834 C 0.36635 0.20145 0.66896 0.0
C2835 C 0.37749 0.21212 0.64886 0.0
C2836 C 0.37594 0.2147 0.61027 0.0
C2837 C 0.36296 0.20641 0.59239 0.0
C2838 C 0.35185 0.19574 0.61253 0.0
H2839 H 0.3525 0.15774 0.68681 0.0
H2840 H 0.35937 0.17188 0.65272 0.0
H2841 H 0.363 0.17546 0.70278 0.0
H2842 H 0.36775 0.19977 0.69874 0.0
H2843 H 0.38729 0.21835 0.66367 0.0
H2844 H 0.87901 0.15459 0.68864 0.0
H2845 H 0.86003 0.15473 0.65363 0.0
H2846 H 0.8511 0.17282 0.7511 0.0
H2847 H 0.87002 0.17261 0.78672 0.0
H2848 H 0.82734 0.14997 0.71783 0.0
H2849 H 0.8603 0.18921 0.60881 0.0
H2850 H 0.86328 0.17473 0.61351 0.0
H2851 H 0.86737 0.18669 0.65264 0.0
C2852 C 0.87306 0.15864 0.70273 0.0
C2853 C 0.87611 0.16366 0.74052 0.0
C2854 C 0.86225 0.15878 0.68253 0.0
C2855 C 0.85432 0.164 0.69958 0.0
C2856 C 0.85718 0.16884 0.73739 0.0
H2857 H 0.78415 0.17311 0.63103 0.0
H2858 H 0.80323 0.17278 0.66491 0.0
C2859 C 0.868 0.16872 0.75767 0.0
C2860 C 0.84285 0.16412 0.6782 0.0
H2861 H 0.83583 0.17765 0.59917 0.0
C2862 C 0.82918 0.15606 0.69198 0.0
C2863 C 0.84532 0.17203 0.64439 0.0
C2864 C 0.85987 0.18126 0.62904 0.0
C2865 C 0.81784 0.15554 0.67253 0.0
C2866 C 0.82031 0.16351 0.63884 0.0
C2867 C 0.83398 0.17153 0.62498 0.0
C2868 C 0.80886 0.16386 0.61794 0.0
C2869 C 0.8033 0.14625 0.68782 0.0
C2870 C 0.80596 0.15933 0.57986 0.0
C2871 C 0.79509 0.15958 0.56019 0.0
C2872 C 0.78697 0.16444 0.57825 0.0
C2873 C 0.7901 0.1692 0.61625 0.0
C2874 C 0.80096 0.16895 0.63581 0.0
H2875 H 0.80284 0.13811 0.70734 0.0
H2876 H 0.79998 0.15268 0.7042 0.0
H2877 H 0.79574 0.14105 0.6642 0.0
H2878 H 0.81203 0.15545 0.5655 0.0
H2879 H 0.79301 0.15588 0.53096 0.0
H2880 H 0.0633 0.51257 0.46417 0.0
H2881 H 0.04322 0.51263 0.49243 0.0
H2882 H 0.02056 0.49748 0.38671 0.0
H2883 H 0.04066 0.49725 0.35792 0.0
H2884 H 0.03016 0.52763 0.46594 0.0
H2885 H 0.99378 0.47023 0.46897 0.0
H2886 H 0.01238 0.47776 0.46276 0.0
H2887 H 0.00179 0.4776 0.42371 0.0
C2888 C 0.05405 0.50918 0.4468 0.0
C2889 C 0.0536 0.50486 0.40871 0.0
C2890 C 0.04259 0.50925 0.46307 0.0
C2891 C 0.03039 0.50495 0.44178 0.0
C2892 C 0.02983 0.50064 0.40377 0.0
H2893 H 0.95162 0.4981 0.51257 0.0
H2894 H 0.97036 0.49811 0.47569 0.0
C2895 C 0.04134 0.50058 0.38735 0.0
C2896 C 0.01844 0.5053 0.45955 0.0
H2897 H 0.98517 0.48452 0.49182 0.0
C2898 C 0.0203 0.51822 0.47149 0.0
C2899 C 0.00559 0.493 0.46656 0.0
C2900 C 0.00321 0.47882 0.45514 0.0
C2901 C 0.00966 0.51918 0.49056 0.0
C2902 C 0.99694 0.50684 0.49853 0.0
C2903 C 0.99496 0.49394 0.48578 0.0
C2904 C 0.98568 0.50706 0.52085 0.0
C2905 C 0.01209 0.5334 0.50175 0.0
C2906 C 0.98806 0.51196 0.55865 0.0
C2907 C 0.97738 0.51201 0.57988 0.0
C2908 C 0.96408 0.50704 0.56376 0.0
C2909 C 0.96173 0.50203 0.52593 0.0
C2910 C 0.97242 0.50201 0.50475 0.0
H2911 H 0.02052 0.5418 0.48441 0.0
H2912 H 0.00244 0.53401 0.49837 0.0
H2913 H 0.0153 0.53539 0.53219 0.0
H2914 H 0.99815 0.51563 0.57188 0.0
H2915 H 0.97955 0.51585 0.60898 0.0
H2916 H 0.47759 0.53577 0.41347 0.0
H2917 H 0.47771 0.5169 0.44943 0.0
H2918 H 0.52113 0.5334 0.42071 0.0
H2919 H 0.52066 0.55168 0.38219 0.0
H2920 H 0.50946 0.50719 0.41955 0.0
H2921 H 0.49217 0.52022 0.55343 0.0
H2922 H 0.47928 0.51589 0.51706 0.0
H2923 H 0.49641 0.531 0.51144 0.0
C2924 C 0.48709 0.53522 0.4145 0.0
C2925 C 0.49913 0.54512 0.39523 0.0
C2926 C 0.48722 0.52457 0.43551 0.0
C2927 C 0.49957 0.524 0.4391 0.0
C2928 C 0.5115 0.53367 0.41874 0.0
H2929 H 0.50593 0.47281 0.6199 0.0
H2930 H 0.50761 0.49218 0.58182 0.0
C2931 C 0.51123 0.54407 0.39666 0.0
C2932 C 0.49999 0.51326 0.46375 0.0
H2933 H 0.49051 0.49776 0.55142 0.0
C2934 C 0.50546 0.50525 0.44855 0.0
C2935 C 0.49514 0.51092 0.50205 0.0
C2936 C 0.49059 0.52009 0.52203 0.0
C2937 C 0.50589 0.49477 0.47007 0.0
C2938 C 0.49995 0.49165 0.5072 0.0
C2939 C 0.49482 0.49991 0.52276 0.0
C2940 C 0.49893 0.4799 0.53038 0.0
C2941 C 0.51304 0.48747 0.4529 0.0
C2942 C 0.49325 0.46647 0.5146 0.0
C2943 C 0.49272 0.45556 0.53593 0.0
C2944 C 0.49727 0.45771 0.57404 0.0
C2945 C 0.50231 0.47092 0.59058 0.0
C2946 C 0.50328 0.48197 0.56879 0.0
H2947 H 0.52123 0.49432 0.43215 0.0
H2948 H 0.51798 0.48421 0.47516 0.0
H2949 H 0.50528 0.47809 0.43706 0.0
H2950 H 0.48924 0.46439 0.48569 0.0
H2951 H 0.48863 0.4454 0.52273 0.0
H2952 H 0.54147 0.02596 0.62324 0.0
H2953 H 0.52179 0.00737 0.58829 0.0
H2954 H 0.52968 0.03543 0.49397 0.0
H2955 H 0.54942 0.05402 0.52826 0.0
H2956 H 0.49782 0.00728 0.56037 0.0
H2957 H 0.52818 0.00132 0.44286 0.0
H2958 H 0.53618 0.01042 0.48669 0.0
H2959 H 0.53172 0.01886 0.44996 0.0
C2960 C 0.53907 0.02817 0.59499 0.0
C2961 C 0.54709 0.04148 0.57852 0.0
C2962 C 0.52782 0.01754 0.5751 0.0
C2963 C 0.52444 0.01998 0.53835 0.0
C2964 C 0.53231 0.03326 0.52199 0.0
H2965 H 0.46003 0.97087 0.37264 0.0
H2966 H 0.47978 0.9893 0.40771 0.0
C2967 C 0.54355 0.04389 0.54179 0.0
C2968 C 0.51245 0.00875 0.51746 0.0
H2969 H 0.50355 0.98927 0.43583 0.0
C2970 C 0.49906 0.00327 0.53325 0.0
C2971 C 0.51413 0.00361 0.48203 0.0
C2972 C 0.52833 0.00875 0.46447 0.0
C2973 C 0.48724 0.99294 0.51417 0.0
C2974 C 0.48892 0.9878 0.47872 0.0
C2975 C 0.50231 0.99327 0.46296 0.0
C2976 C 0.47691 0.97663 0.4577 0.0
C2977 C 0.47303 0.98783 0.5317 0.0
C2978 C 0.46889 0.96337 0.47403 0.0
C2979 C 0.4576 0.95283 0.45416 0.0
C2980 C 0.45415 0.95532 0.41738 0.0
C2981 C 0.46234 0.96859 0.40091 0.0
C2982 C 0.47365 0.97914 0.42088 0.0
H2983 H 0.4732 0.99528 0.55326 0.0
H2984 H 0.46519 0.98616 0.50946 0.0
H2985 H 0.46963 0.97772 0.54626 0.0
H2986 H 0.47143 0.96114 0.50209 0.0
H2987 H 0.4516 0.94271 0.46767 0.0
H2988 H 0.50831 0.05444 0.02835 0.0
H2989 H 0.50787 0.0355 0.99162 0.0
H2990 H 0.48963 0.00772 0.0876 0.0
H2991 H 0.48983 0.02658 0.12466 0.0
H2992 H 0.52063 0.01974 0.00803 0.0
H2993 H 0.463 0.98643 -0.00082 0.0
H2994 H 0.47147 0.00453 0.01338 0.0
H2995 H 0.46964 0.9914 0.04689 0.0
C2996 C 0.50416 0.04431 0.04177 0.0
C2997 C 0.49902 0.04202 0.07948 0.0
C2998 C 0.50394 0.0335 0.02067 0.0
C2999 C 0.49853 0.02018 0.0367 0.0
C3000 C 0.49359 0.01788 0.07447 0.0
H3001 H 0.4889 0.94166 0.96458 0.0
H3002 H 0.48947 0.96128 0.99779 0.0
C3003 C 0.49379 0.02869 0.09567 0.0
C3004 C 0.49826 0.00878 0.01396 0.0
H3005 H 0.47639 0.97648 0.97711 0.0
C3006 C 0.51096 0.0103 0.00105 0.0
C3007 C 0.48562 0.99653 0.00483 0.0
C3008 C 0.47164 0.99462 0.01645 0.0
C3009 C 0.51139 -0.00028 0.98007 0.0
C3010 C 0.49876 0.9874 0.97132 0.0
C3011 C 0.48605 0.98595 0.98389 0.0
C3012 C 0.49851 0.97565 0.95049 0.0
C3013 C 0.52536 0.00161 0.96839 0.0
C3014 C 0.50328 0.9772 0.91265 0.0
C3015 C 0.503 0.96597 0.89342 0.0
C3016 C 0.49787 0.95299 0.91173 0.0
C3017 C 0.49295 0.95149 0.94954 0.0
C3018 C 0.49325 0.96269 0.96864 0.0
H3019 H 0.53409 0.01021 0.98444 0.0
H3020 H 0.5257 0.99185 0.97305 0.0
H3021 H 0.52706 0.00418 0.9375 0.0
H3022 H 0.50715 0.98707 0.89794 0.0
H3023 H 0.5068 0.96747 0.8643 0.0
H3024 H 0.95557 0.45544 0.13431 0.0
H3025 H 0.97534 0.47563 0.10407 0.0
H3026 H 0.95135 0.46802 0.00078 0.0
H3027 H 0.93158 0.44802 0.03055 0.0
H3028 H 0.98957 0.47602 0.03667 0.0
H3029 H 0.96557 0.5094 0.02225 0.0
H3030 H 0.95854 0.49438 0.05339 0.0
H3031 H 0.95514 0.49218 0.00288 0.0
C3032 C 0.95447 0.4581 0.10523 0.0
C3033 C 0.94195 0.45012 0.08498 0.0
C3034 C 0.96578 0.46963 0.08802 0.0
C3035 C 0.96471 0.47344 0.05045 0.0
C3036 C 0.95229 0.46544 0.03009 0.0
H3037 H 0.01835 0.53387 0.88326 0.0
H3038 H -0.00085 0.51513 0.91918 0.0
C3039 C 0.94101 0.45394 0.04717 0.0
C3040 C 0.97671 0.48545 0.03183 0.0
H3041 H 0.98663 0.51655 0.98766 0.0
C3042 C 0.98901 0.48496 0.02627 0.0
C3043 C 0.97588 0.49705 0.0182 0.0
C3044 C 0.96312 0.49839 0.02475 0.0
C3045 C 0.00038 0.49558 0.00639 0.0
C3046 C -0.00051 0.5071 0.99235 0.0
C3047 C 0.98725 0.50767 -0.00165 0.0
C3048 C 0.0111 0.5186 0.97101 0.0
C3049 C 0.01309 0.49416 -0.00045 0.0
C3050 C 0.02409 0.52689 0.98851 0.0
C3051 C 0.03509 0.53757 0.9681 0.0
C3052 C 0.03327 0.54025 0.9298 0.0
C3053 C 0.02013 0.53209 0.91262 0.0
C3054 C 0.00914 0.52138 0.93309 0.0
H3055 H 0.01077 0.48325 0.00364 0.0
H3056 H 0.01722 0.49757 0.9702 0.0
H3057 H 0.02138 0.50088 0.02013 0.0
H3058 H 0.02572 0.5251 0.01801 0.0
H3059 H 0.04502 0.54371 0.9824 0.0
H3060 H 0.54647 0.48695 0.0122 0.0
H3061 H 0.52706 0.48602 0.97658 0.0
H3062 H 0.51787 0.50501 0.07142 0.0
H3063 H 0.53717 0.50584 0.10762 0.0
H3064 H 0.49453 0.48108 0.04243 0.0
H3065 H 0.52475 0.51825 0.92622 0.0
H3066 H 0.5285 0.50437 0.93302 0.0
H3067 H 0.53275 0.51714 0.97003 0.0
C3068 C 0.5404 0.49103 0.02548 0.0
C3069 C 0.54341 0.4965 0.06282 0.0
C3070 C 0.52935 0.49055 0.00494 0.0
C3071 C 0.52116 0.49561 0.02118 0.0
C3072 C 0.52413 0.50111 0.05834 0.0
H3073 H 0.44939 0.50188 0.95724 0.0
H3074 H 0.46906 0.50209 0.98909 0.0
C3075 C 0.53518 0.50159 0.07894 0.0
C3076 C 0.50913 0.49466 8e-05 0.0
H3077 H 0.50013 0.50583 0.91974 0.0
C3078 C 0.49575 0.48651 0.01566 0.0
C3079 C 0.51077 0.5017 0.96504 0.0
C3080 C 0.52497 0.51096 0.94766 0.0
C3081 C 0.48391 0.48515 0.99703 0.0
C3082 C 0.48556 0.49232 0.96224 0.0
C3083 C 0.49892 0.50033 0.94639 0.0
C3084 C 0.47359 0.49206 0.94266 0.0
C3085 C 0.46972 0.47592 0.01452 0.0
C3086 C 0.46981 0.48662 0.90558 0.0
C3087 C 0.45856 0.48651 0.88709 0.0
C3088 C 0.45097 0.49197 0.9053 0.0
C3089 C 0.45492 0.49752 0.94236 0.0
C3090 C 0.46613 0.49759 0.96077 0.0
H3091 H 0.46986 0.46832 0.03498 0.0
H3092 H 0.46646 0.4825 0.03038 0.0
H3093 H 0.4618 0.4701 0.99214 0.0
H3094 H 0.47553 0.48238 0.89107 0.0
H3095 H 0.45584 0.48221 0.85852 0.0
loop_
_geom_bond_atom_site_label_1
_geom_bond_atom_site_label_2
_geom_bond_distance
_geom_bond_site_symmetry_2
_ccdc_geom_bond_type
Mg0 O1 2.028 . S
Mg0 O7 1.986 . S
Mg0 O9 2.114 . S
Mg0 O10 2.251 . S
Mg0 O13 2.010 . S
O1 Mg0 2.028 . S
O1 C4 1.250 . S
O2 Mg3 2.028 . S
O2 C4 1.248 . S
Mg3 O2 2.028 . S
Mg3 O8 2.032 . S
Mg3 O10 2.079 . S
C4 O1 1.250 . S
C4 O2 1.248 . S
C5 O6 1.264 . S
C5 O13 1.249 . S
O6 C5 1.264 . S
O7 Mg0 1.986 . S
O7 C11 1.246 . S
O8 Mg3 2.032 . S
O8 C11 1.259 . S
O9 Mg0 2.114 . S
O9 C12 1.252 . S
O10 Mg0 2.251 . S
O10 Mg3 2.079 . S
O10 C12 1.273 . S
C11 O7 1.246 . S
C11 O8 1.259 . S
C12 O9 1.252 . S
C12 O10 1.273 . S
O13 Mg0 2.010 . S
O13 C5 1.249 . S
Mg14 O15 2.028 . S
Mg14 O21 1.986 . S
Mg14 O23 2.114 . S
Mg14 O24 2.251 . S
Mg14 O27 2.010 . S
O15 Mg14 2.028 . S
O15 C18 1.250 . S
O16 Mg17 2.028 . S
O16 C18 1.248 . S
Mg17 O16 2.028 . S
Mg17 O22 2.032 . S
Mg17 O24 2.079 . S
C18 O15 1.250 . S
C18 O16 1.248 . S
C19 O20 1.264 . S
C19 O27 1.249 . S
O20 C19 1.264 . S
O21 Mg14 1.986 . S
O21 C25 1.246 . S
O22 Mg17 2.032 . S
O22 C25 1.259 . S
O23 Mg14 2.114 . S
O23 C26 1.252 . S
O24 Mg14 2.251 . S
O24 Mg17 2.079 . S
O24 C26 1.273 . S
C25 O21 1.246 . S
C25 O22 1.259 . S
C26 O23 1.252 . S
C26 O24 1.273 . S
O27 Mg14 2.010 . S
O27 C19 1.249 . S
Mg28 O29 2.028 . S
Mg28 O35 1.986 . S
Mg28 O37 2.114 . S
Mg28 O38 2.251 . S
Mg28 O41 2.010 . S
O29 Mg28 2.028 . S
O29 C32 1.250 . S
O30 Mg31 2.028 . S
O30 C32 1.248 . S
Mg31 O30 2.028 . S
Mg31 O36 2.032 . S
Mg31 O38 2.079 . S
C32 O29 1.250 . S
C32 O30 1.248 . S
C33 O34 1.264 . S
C33 O41 1.249 . S
O34 C33 1.264 . S
O35 Mg28 1.986 . S
O35 C39 1.246 . S
O36 Mg31 2.032 . S
O36 C39 1.259 . S
O37 Mg28 2.114 . S
O37 C40 1.252 . S
O38 Mg28 2.251 . S
O38 Mg31 2.079 . S
O38 C40 1.273 . S
C39 O35 1.246 . S
C39 O36 1.259 . S
C40 O37 1.252 . S
C40 O38 1.273 . S
O41 Mg28 2.010 . S
O41 C33 1.249 . S
Mg42 O43 2.028 . S
Mg42 O49 1.986 . S
Mg42 O51 2.114 . S
Mg42 O52 2.251 . S
Mg42 O55 2.010 . S
O43 Mg42 2.028 . S
O43 C46 1.250 . S
O44 Mg45 2.028 . S
O44 C46 1.248 . S
Mg45 O44 2.028 . S
Mg45 O50 2.032 . S
Mg45 O52 2.079 . S
C46 O43 1.250 . S
C46 O44 1.248 . S
C47 O48 1.264 . S
C47 O55 1.249 . S
O48 C47 1.264 . S
O49 Mg42 1.986 . S
O49 C53 1.246 . S
O50 Mg45 2.032 . S
O50 C53 1.259 . S
O51 Mg42 2.114 . S
O51 C54 1.252 . S
O52 Mg42 2.251 . S
O52 Mg45 2.079 . S
O52 C54 1.273 . S
C53 O49 1.246 . S
C53 O50 1.259 . S
C54 O51 1.252 . S
C54 O52 1.273 . S
O55 Mg42 2.010 . S
O55 C47 1.249 . S
Mg56 O57 2.028 . S
Mg56 O63 1.986 . S
Mg56 O65 2.114 . S
Mg56 O66 2.251 . S
Mg56 O69 2.010 . S
O57 Mg56 2.028 . S
O57 C60 1.250 . S
O58 Mg59 2.028 . S
O58 C60 1.248 . S
Mg59 O58 2.028 . S
Mg59 O64 2.032 . S
Mg59 O66 2.079 . S
C60 O57 1.250 . S
C60 O58 1.248 . S
C61 O62 1.264 . S
C61 O69 1.249 . S
O62 C61 1.264 . S
O63 Mg56 1.986 . S
O63 C67 1.246 . S
O64 Mg59 2.032 . S
O64 C67 1.259 . S
O65 Mg56 2.114 . S
O65 C68 1.252 . S
O66 Mg56 2.251 . S
O66 Mg59 2.079 . S
O66 C68 1.273 . S
C67 O63 1.246 . S
C67 O64 1.259 . S
C68 O65 1.252 . S
C68 O66 1.273 . S
O69 Mg56 2.010 . S
O69 C61 1.249 . S
Mg70 O71 2.028 . S
Mg70 O77 1.986 . S
Mg70 O79 2.114 . S
Mg70 O80 2.251 . S
Mg70 O83 2.010 . S
O71 Mg70 2.028 . S
O71 C74 1.250 . S
O72 Mg73 2.028 . S
O72 C74 1.248 . S
Mg73 O72 2.028 . S
Mg73 O78 2.032 . S
Mg73 O80 2.079 . S
C74 O71 1.250 . S
C74 O72 1.248 . S
C75 O76 1.264 . S
C75 O83 1.249 . S
O76 C75 1.264 . S
O77 Mg70 1.986 . S
O77 C81 1.246 . S
O78 Mg73 2.032 . S
O78 C81 1.259 . S
O79 Mg70 2.114 . S
O79 C82 1.252 . S
O80 Mg70 2.251 . S
O80 Mg73 2.079 . S
O80 C82 1.273 . S
C81 O77 1.246 . S
C81 O78 1.259 . S
C82 O79 1.252 . S
C82 O80 1.273 . S
O83 Mg70 2.010 . S
O83 C75 1.249 . S
Mg84 O85 2.028 . S
Mg84 O91 1.986 . S
Mg84 O93 2.114 . S
Mg84 O94 2.251 . S
Mg84 O97 2.010 . S
O85 Mg84 2.028 . S
O85 C88 1.250 . S
O86 Mg87 2.028 . S
O86 C88 1.248 . S
Mg87 O86 2.028 . S
Mg87 O92 2.032 . S
Mg87 O94 2.079 . S
C88 O85 1.250 . S
C88 O86 1.248 . S
C89 O90 1.264 . S
C89 O97 1.249 . S
O90 C89 1.264 . S
O91 Mg84 1.986 . S
O91 C95 1.246 . S
O92 Mg87 2.032 . S
O92 C95 1.259 . S
O93 Mg84 2.114 . S
O93 C96 1.252 . S
O94 Mg84 2.251 . S
O94 Mg87 2.079 . S
O94 C96 1.273 . S
C95 O91 1.246 . S
C95 O92 1.259 . S
C96 O93 1.252 . S
C96 O94 1.273 . S
O97 Mg84 2.010 . S
O97 C89 1.249 . S
Mg98 O99 2.028 . S
Mg98 O105 1.986 . S
Mg98 O107 2.114 . S
Mg98 O108 2.251 . S
Mg98 O111 2.010 . S
O99 Mg98 2.028 . S
O99 C102 1.250 . S
O100 Mg101 2.028 . S
O100 C102 1.248 . S
Mg101 O100 2.028 . S
Mg101 O106 2.032 . S
Mg101 O108 2.079 . S
C102 O99 1.250 . S
C102 O100 1.248 . S
C103 O104 1.264 . S
C103 O111 1.249 . S
O104 C103 1.264 . S
O105 Mg98 1.986 . S
O105 C109 1.246 . S
O106 Mg101 2.032 . S
O106 C109 1.259 . S
O107 Mg98 2.114 . S
O107 C110 1.252 . S
O108 Mg98 2.251 . S
O108 Mg101 2.079 . S
O108 C110 1.273 . S
C109 O105 1.246 . S
C109 O106 1.259 . S
C110 O107 1.252 . S
C110 O108 1.273 . S
O111 Mg98 2.010 . S
O111 C103 1.249 . S
Mg112 O113 2.028 . S
Mg112 O119 1.986 . S
Mg112 O121 2.114 . S
Mg112 O122 2.251 . S
Mg112 O125 2.010 . S
O113 Mg112 2.028 . S
O113 C116 1.250 . S
O114 Mg115 2.028 . S
O114 C116 1.248 . S
Mg115 O114 2.028 . S
Mg115 O120 2.032 . S
Mg115 O122 2.079 . S
C116 O113 1.250 . S
C116 O114 1.248 . S
C117 O118 1.264 . S
C117 O125 1.249 . S
O118 C117 1.264 . S
O119 Mg112 1.986 . S
O119 C123 1.246 . S
O120 Mg115 2.032 . S
O120 C123 1.259 . S
O121 Mg112 2.114 . S
O121 C124 1.252 . S
O122 Mg112 2.251 . S
O122 Mg115 2.079 . S
O122 C124 1.273 . S
C123 O119 1.246 . S
C123 O120 1.259 . S
C124 O121 1.252 . S
C124 O122 1.273 . S
O125 Mg112 2.010 . S
O125 C117 1.249 . S
Mg126 O127 2.028 . S
Mg126 O133 1.986 . S
Mg126 O135 2.114 . S
Mg126 O136 2.251 . S
Mg126 O139 2.010 . S
O127 Mg126 2.028 . S
O127 C130 1.250 . S
O128 Mg129 2.028 . S
O128 C130 1.248 . S
Mg129 O128 2.028 . S
Mg129 O134 2.032 . S
Mg129 O136 2.079 . S
C130 O127 1.250 . S
C130 O128 1.248 . S
C131 O132 1.264 . S
C131 O139 1.249 . S
O132 C131 1.264 . S
O133 Mg126 1.986 . S
O133 C137 1.246 . S
O134 Mg129 2.032 . S
O134 C137 1.259 . S
O135 Mg126 2.114 . S
O135 C138 1.252 . S
O136 Mg126 2.251 . S
O136 Mg129 2.079 . S
O136 C138 1.273 . S
C137 O133 1.246 . S
C137 O134 1.259 . S
C138 O135 1.252 . S
C138 O136 1.273 . S
O139 Mg126 2.010 . S
O139 C131 1.249 . S
Mg140 O141 2.028 . S
Mg140 O147 1.986 . S
Mg140 O149 2.114 . S
Mg140 O150 2.251 . S
Mg140 O153 2.010 . S
O141 Mg140 2.028 . S
O141 C144 1.250 . S
O142 Mg143 2.028 . S
O142 C144 1.248 . S
Mg143 O142 2.028 . S
Mg143 O148 2.032 . S
Mg143 O150 2.079 . S
C144 O141 1.250 . S
C144 O142 1.248 . S
C145 O146 1.264 . S
C145 O153 1.249 . S
O146 C145 1.264 . S
O147 Mg140 1.986 . S
O147 C151 1.246 . S
O148 Mg143 2.032 . S
O148 C151 1.259 . S
O149 Mg140 2.114 . S
O149 C152 1.252 . S
O150 Mg140 2.251 . S
O150 Mg143 2.079 . S
O150 C152 1.273 . S
C151 O147 1.246 . S
C151 O148 1.259 . S
C152 O149 1.252 . S
C152 O150 1.273 . S
O153 Mg140 2.010 . S
O153 C145 1.249 . S
Mg154 O155 2.028 . S
Mg154 O161 1.986 . S
Mg154 O163 2.114 . S
Mg154 O164 2.251 . S
Mg154 O167 2.010 . S
O155 Mg154 2.028 . S
O155 C158 1.250 . S
O156 Mg157 2.028 . S
O156 C158 1.248 . S
Mg157 O156 2.028 . S
Mg157 O162 2.032 . S
Mg157 O164 2.079 . S
C158 O155 1.250 . S
C158 O156 1.248 . S
C159 O160 1.264 . S
C159 O167 1.249 . S
O160 C159 1.264 . S
O161 Mg154 1.986 . S
O161 C165 1.246 . S
O162 Mg157 2.032 . S
O162 C165 1.259 . S
O163 Mg154 2.114 . S
O163 C166 1.252 . S
O164 Mg154 2.251 . S
O164 Mg157 2.079 . S
O164 C166 1.273 . S
C165 O161 1.246 . S
C165 O162 1.259 . S
C166 O163 1.252 . S
C166 O164 1.273 . S
O167 Mg154 2.010 . S
O167 C159 1.249 . S
Mg168 O169 2.028 . S
Mg168 O175 1.986 . S
Mg168 O177 2.114 . S
Mg168 O178 2.251 . S
Mg168 O181 2.010 . S
O169 Mg168 2.028 . S
O169 C172 1.250 . S
O170 Mg171 2.028 . S
O170 C172 1.248 . S
Mg171 O170 2.028 . S
Mg171 O176 2.032 . S
Mg171 O178 2.079 . S
C172 O169 1.250 . S
C172 O170 1.248 . S
C173 O174 1.264 . S
C173 O181 1.249 . S
O174 C173 1.264 . S
O175 Mg168 1.986 . S
O175 C179 1.246 . S
O176 Mg171 2.032 . S
O176 C179 1.259 . S
O177 Mg168 2.114 . S
O177 C180 1.252 . S
O178 Mg168 2.251 . S
O178 Mg171 2.079 . S
O178 C180 1.273 . S
C179 O175 1.246 . S
C179 O176 1.259 . S
C180 O177 1.252 . S
C180 O178 1.273 . S
O181 Mg168 2.010 . S
O181 C173 1.249 . S
Mg182 O183 2.028 . S
Mg182 O189 1.986 . S
Mg182 O191 2.114 . S
Mg182 O192 2.251 . S
Mg182 O195 2.010 . S
O183 Mg182 2.028 . S
O183 C186 1.250 . S
O184 Mg185 2.028 . S
O184 C186 1.248 . S
Mg185 O184 2.028 . S
Mg185 O190 2.032 . S
Mg185 O192 2.079 . S
C186 O183 1.250 . S
C186 O184 1.248 . S
C187 O188 1.264 . S
C187 O195 1.249 . S
O188 C187 1.264 . S
O189 Mg182 1.986 . S
O189 C193 1.246 . S
O190 Mg185 2.032 . S
O190 C193 1.259 . S
O191 Mg182 2.114 . S
O191 C194 1.252 . S
O192 Mg182 2.251 . S
O192 Mg185 2.079 . S
O192 C194 1.273 . S
C193 O189 1.246 . S
C193 O190 1.259 . S
C194 O191 1.252 . S
C194 O192 1.273 . S
O195 Mg182 2.010 . S
O195 C187 1.249 . S
Mg196 O197 2.028 . S
Mg196 O203 1.986 . S
Mg196 O205 2.114 . S
Mg196 O206 2.251 . S
Mg196 O209 2.010 . S
O197 Mg196 2.028 . S
O197 C200 1.250 . S
O198 Mg199 2.028 . S
O198 C200 1.248 . S
Mg199 O198 2.028 . S
Mg199 O204 2.032 . S
Mg199 O206 2.079 . S
C200 O197 1.250 . S
C200 O198 1.248 . S
C201 O202 1.264 . S
C201 O209 1.249 . S
O202 C201 1.264 . S
O203 Mg196 1.986 . S
O203 C207 1.246 . S
O204 Mg199 2.032 . S
O204 C207 1.259 . S
O205 Mg196 2.114 . S
O205 C208 1.252 . S
O206 Mg196 2.251 . S
O206 Mg199 2.079 . S
O206 C208 1.273 . S
C207 O203 1.246 . S
C207 O204 1.259 . S
C208 O205 1.252 . S
C208 O206 1.273 . S
O209 Mg196 2.010 . S
O209 C201 1.249 . S
Mg210 O211 2.028 . S
Mg210 O217 1.986 . S
Mg210 O219 2.114 . S
Mg210 O220 2.251 . S
Mg210 O223 2.010 . S
O211 Mg210 2.028 . S
O211 C214 1.250 . S
O212 Mg213 2.028 . S
O212 C214 1.248 . S
Mg213 O212 2.028 . S
Mg213 O218 2.032 . S
Mg213 O220 2.079 . S
C214 O211 1.250 . S
C214 O212 1.248 . S
C215 O216 1.264 . S
C215 O223 1.249 . S
O216 C215 1.264 . S
O217 Mg210 1.986 . S
O217 C221 1.246 . S
O218 Mg213 2.032 . S
O218 C221 1.259 . S
O219 Mg210 2.114 . S
O219 C222 1.252 . S
O220 Mg210 2.251 . S
O220 Mg213 2.079 . S
O220 C222 1.273 . S
C221 O217 1.246 . S
C221 O218 1.259 . S
C222 O219 1.252 . S
C222 O220 1.273 . S
O223 Mg210 2.010 . S
O223 C215 1.249 . S
Mg224 O225 2.028 . S
Mg224 O231 1.986 . S
Mg224 O233 2.114 . S
Mg224 O234 2.251 . S
Mg224 O237 2.010 . S
O225 Mg224 2.028 . S
O225 C228 1.250 . S
O226 Mg227 2.028 . S
O226 C228 1.248 . S
Mg227 O226 2.028 . S
Mg227 O232 2.032 . S
Mg227 O234 2.079 . S
C228 O225 1.250 . S
C228 O226 1.248 . S
C229 O230 1.264 . S
C229 O237 1.249 . S
O230 C229 1.264 . S
O231 Mg224 1.986 . S
O231 C235 1.246 . S
O232 Mg227 2.032 . S
O232 C235 1.259 . S
O233 Mg224 2.114 . S
O233 C236 1.252 . S
O234 Mg224 2.251 . S
O234 Mg227 2.079 . S
O234 C236 1.273 . S
C235 O231 1.246 . S
C235 O232 1.259 . S
C236 O233 1.252 . S
C236 O234 1.273 . S
O237 Mg224 2.010 . S
O237 C229 1.249 . S
Mg238 O239 2.028 . S
Mg238 O245 1.986 . S
Mg238 O247 2.114 . S
Mg238 O248 2.251 . S
Mg238 O251 2.010 . S
O239 Mg238 2.028 . S
O239 C242 1.250 . S
O240 Mg241 2.028 . S
O240 C242 1.248 . S
Mg241 O240 2.028 . S
Mg241 O246 2.032 . S
Mg241 O248 2.079 . S
C242 O239 1.250 . S
C242 O240 1.248 . S
C243 O244 1.264 . S
C243 O251 1.249 . S
O244 C243 1.264 . S
O245 Mg238 1.986 . S
O245 C249 1.246 . S
O246 Mg241 2.032 . S
O246 C249 1.259 . S
O247 Mg238 2.114 . S
O247 C250 1.252 . S
O248 Mg238 2.251 . S
O248 Mg241 2.079 . S
O248 C250 1.273 . S
C249 O245 1.246 . S
C249 O246 1.259 . S
C250 O247 1.252 . S
C250 O248 1.273 . S
O251 Mg238 2.010 . S
O251 C243 1.249 . S
Mg252 O253 2.028 . S
Mg252 O259 1.986 . S
Mg252 O261 2.114 . S
Mg252 O262 2.251 . S
Mg252 O265 2.010 . S
O253 Mg252 2.028 . S
O253 C256 1.250 . S
O254 Mg255 2.028 . S
O254 C256 1.248 . S
Mg255 O254 2.028 . S
Mg255 O260 2.032 . S
Mg255 O262 2.079 . S
C256 O253 1.250 . S
C256 O254 1.248 . S
C257 O258 1.264 . S
C257 O265 1.249 . S
O258 C257 1.264 . S
O259 Mg252 1.986 . S
O259 C263 1.246 . S
O260 Mg255 2.032 . S
O260 C263 1.259 . S
O261 Mg252 2.114 . S
O261 C264 1.252 . S
O262 Mg252 2.251 . S
O262 Mg255 2.079 . S
O262 C264 1.273 . S
C263 O259 1.246 . S
C263 O260 1.259 . S
C264 O261 1.252 . S
C264 O262 1.273 . S
O265 Mg252 2.010 . S
O265 C257 1.249 . S
Mg266 O267 2.028 . S
Mg266 O273 1.986 . S
Mg266 O275 2.114 . S
Mg266 O276 2.251 . S
Mg266 O279 2.010 . S
O267 Mg266 2.028 . S
O267 C270 1.250 . S
O268 Mg269 2.028 . S
O268 C270 1.248 . S
Mg269 O268 2.028 . S
Mg269 O274 2.032 . S
Mg269 O276 2.079 . S
C270 O267 1.250 . S
C270 O268 1.248 . S
C271 O272 1.264 . S
C271 O279 1.249 . S
O272 C271 1.264 . S
O273 Mg266 1.986 . S
O273 C277 1.246 . S
O274 Mg269 2.032 . S
O274 C277 1.259 . S
O275 Mg266 2.114 . S
O275 C278 1.252 . S
O276 Mg266 2.251 . S
O276 Mg269 2.079 . S
O276 C278 1.273 . S
C277 O273 1.246 . S
C277 O274 1.259 . S
C278 O275 1.252 . S
C278 O276 1.273 . S
O279 Mg266 2.010 . S
O279 C271 1.249 . S
Mg280 O281 2.028 . S
Mg280 O287 1.986 . S
Mg280 O289 2.114 . S
Mg280 O290 2.251 . S
Mg280 O293 2.010 . S
O281 Mg280 2.028 . S
O281 C284 1.250 . S
O282 Mg283 2.028 . S
O282 C284 1.248 . S
Mg283 O282 2.028 . S
Mg283 O288 2.032 . S
Mg283 O290 2.079 . S
C284 O281 1.250 . S
C284 O282 1.248 . S
C285 O286 1.264 . S
C285 O293 1.249 . S
O286 C285 1.264 . S
O287 Mg280 1.986 . S
O287 C291 1.246 . S
O288 Mg283 2.032 . S
O288 C291 1.259 . S
O289 Mg280 2.114 . S
O289 C292 1.252 . S
O290 Mg280 2.251 . S
O290 Mg283 2.079 . S
O290 C292 1.273 . S
C291 O287 1.246 . S
C291 O288 1.259 . S
C292 O289 1.252 . S
C292 O290 1.273 . S
O293 Mg280 2.010 . S
O293 C285 1.249 . S
Mg294 O295 2.028 . S
Mg294 O301 1.986 . S
Mg294 O303 2.114 . S
Mg294 O304 2.251 . S
Mg294 O307 2.010 1_554 S
O295 Mg294 2.028 . S
O295 C298 1.250 . S
O296 Mg297 2.028 . S
O296 C298 1.248 . S
Mg297 O296 2.028 . S
Mg297 O302 2.032 . S
Mg297 O304 2.079 . S
C298 O295 1.250 . S
C298 O296 1.248 . S
C299 O300 1.264 . S
C299 O307 1.249 . S
O300 C299 1.264 . S
O301 Mg294 1.986 . S
O301 C305 1.246 . S
O302 Mg297 2.032 . S
O302 C305 1.259 . S
O303 Mg294 2.114 . S
O303 C306 1.252 . S
O304 Mg294 2.251 . S
O304 Mg297 2.079 . S
O304 C306 1.273 . S
C305 O301 1.246 . S
C305 O302 1.259 . S
C306 O303 1.252 . S
C306 O304 1.273 . S
O307 Mg294 2.010 1_556 S
O307 C299 1.249 . S
Mg308 O309 2.028 . S
Mg308 O315 1.986 . S
Mg308 O317 2.114 . S
Mg308 O318 2.251 . S
Mg308 O321 2.010 1_554 S
O309 Mg308 2.028 . S
O309 C312 1.250 . S
O310 Mg311 2.028 . S
O310 C312 1.248 . S
Mg311 O310 2.028 . S
Mg311 O316 2.032 . S
Mg311 O318 2.079 . S
C312 O309 1.250 . S
C312 O310 1.248 . S
C313 O314 1.264 . S
C313 O321 1.249 . S
O314 C313 1.264 . S
O315 Mg308 1.986 . S
O315 C319 1.246 . S
O316 Mg311 2.032 . S
O316 C319 1.259 . S
O317 Mg308 2.114 . S
O317 C320 1.252 . S
O318 Mg308 2.251 . S
O318 Mg311 2.079 . S
O318 C320 1.273 . S
C319 O315 1.246 . S
C319 O316 1.259 . S
C320 O317 1.252 . S
C320 O318 1.273 . S
O321 Mg308 2.010 1_556 S
O321 C313 1.249 . S
Mg322 O323 2.028 . S
Mg322 O329 1.986 . S
Mg322 O331 2.114 . S
Mg322 O332 2.251 . S
Mg322 O335 2.010 1_554 S
O323 Mg322 2.028 . S
O323 C326 1.250 . S
O324 Mg325 2.028 . S
O324 C326 1.248 . S
Mg325 O324 2.028 . S
Mg325 O330 2.032 . S
Mg325 O332 2.079 . S
C326 O323 1.250 . S
C326 O324 1.248 . S
C327 O328 1.264 . S
C327 O335 1.249 . S
O328 C327 1.264 . S
O329 Mg322 1.986 . S
O329 C333 1.246 . S
O330 Mg325 2.032 . S
O330 C333 1.259 . S
O331 Mg322 2.114 . S
O331 C334 1.252 . S
O332 Mg322 2.251 . S
O332 Mg325 2.079 . S
O332 C334 1.273 . S
C333 O329 1.246 . S
C333 O330 1.259 . S
C334 O331 1.252 . S
C334 O332 1.273 . S
O335 Mg322 2.010 1_556 S
O335 C327 1.249 . S
Mg336 O337 2.028 . S
Mg336 O343 1.986 . S
Mg336 O345 2.114 . S
Mg336 O346 2.251 . S
Mg336 O349 2.010 . S
O337 Mg336 2.028 . S
O337 C340 1.250 . S
O338 Mg339 2.028 . S
O338 C340 1.248 . S
Mg339 O338 2.028 . S
Mg339 O344 2.032 . S
Mg339 O346 2.079 . S
C340 O337 1.250 . S
C340 O338 1.248 . S
C341 O342 1.264 . S
C341 O349 1.249 . S
O342 C341 1.264 . S
O343 Mg336 1.986 . S
O343 C347 1.246 . S
O344 Mg339 2.032 . S
O344 C347 1.259 . S
O345 Mg336 2.114 . S
O345 C348 1.252 . S
O346 Mg336 2.251 . S
O346 Mg339 2.079 . S
O346 C348 1.273 . S
C347 O343 1.246 . S
C347 O344 1.259 . S
C348 O345 1.252 . S
C348 O346 1.273 . S
O349 Mg336 2.010 . S
O349 C341 1.249 . S
Mg350 O351 2.028 . S
Mg350 O357 1.986 . S
Mg350 O359 2.114 . S
Mg350 O360 2.251 . S
Mg350 O363 2.010 . S
O351 Mg350 2.028 . S
O351 C354 1.250 . S
O352 Mg353 2.028 . S
O352 C354 1.248 . S
Mg353 O352 2.028 . S
Mg353 O358 2.032 . S
Mg353 O360 2.079 . S
C354 O351 1.250 . S
C354 O352 1.248 . S
C355 O356 1.264 . S
C355 O363 1.249 . S
O356 C355 1.264 . S
O357 Mg350 1.986 . S
O357 C361 1.246 . S
O358 Mg353 2.032 . S
O358 C361 1.259 . S
O359 Mg350 2.114 . S
O359 C362 1.252 . S
O360 Mg350 2.251 . S
O360 Mg353 2.079 . S
O360 C362 1.273 . S
C361 O357 1.246 . S
C361 O358 1.259 . S
C362 O359 1.252 . S
C362 O360 1.273 . S
O363 Mg350 2.010 . S
O363 C355 1.249 . S
Mg364 O365 2.028 . S
Mg364 O371 1.986 . S
Mg364 O373 2.114 . S
Mg364 O374 2.251 . S
Mg364 O377 2.010 . S
O365 Mg364 2.028 . S
O365 C368 1.250 . S
O366 Mg367 2.028 . S
O366 C368 1.248 . S
Mg367 O366 2.028 . S
Mg367 O372 2.032 . S
Mg367 O374 2.079 . S
C368 O365 1.250 . S
C368 O366 1.248 . S
C369 O370 1.264 . S
C369 O377 1.249 . S
O370 C369 1.264 . S
O371 Mg364 1.986 . S
O371 C375 1.246 . S
O372 Mg367 2.032 . S
O372 C375 1.259 . S
O373 Mg364 2.114 . S
O373 C376 1.252 . S
O374 Mg364 2.251 . S
O374 Mg367 2.079 . S
O374 C376 1.273 . S
C375 O371 1.246 . S
C375 O372 1.259 . S
C376 O373 1.252 . S
C376 O374 1.273 . S
O377 Mg364 2.010 . S
O377 C369 1.249 . S
Mg378 O379 2.028 . S
Mg378 O385 1.986 . S
Mg378 O387 2.114 . S
Mg378 O388 2.251 . S
Mg378 O391 2.010 1_556 S
O379 Mg378 2.028 . S
O379 C382 1.250 . S
O380 Mg381 2.028 . S
O380 C382 1.248 . S
Mg381 O380 2.028 . S
Mg381 O386 2.032 . S
Mg381 O388 2.079 . S
C382 O379 1.250 . S
C382 O380 1.248 . S
C383 O384 1.264 . S
C383 O391 1.249 . S
O384 C383 1.264 . S
O385 Mg378 1.986 . S
O385 C389 1.246 . S
O386 Mg381 2.032 . S
O386 C389 1.259 . S
O387 Mg378 2.114 . S
O387 C390 1.252 . S
O388 Mg378 2.251 . S
O388 Mg381 2.079 . S
O388 C390 1.273 . S
C389 O385 1.246 . S
C389 O386 1.259 . S
C390 O387 1.252 . S
C390 O388 1.273 . S
O391 Mg378 2.010 1_554 S
O391 C383 1.249 . S
Mg392 O393 2.028 . S
Mg392 O399 1.986 . S
Mg392 O401 2.114 . S
Mg392 O402 2.251 . S
Mg392 O405 2.010 1_556 S
O393 Mg392 2.028 . S
O393 C396 1.250 . S
O394 Mg395 2.028 . S
O394 C396 1.248 . S
Mg395 O394 2.028 . S
Mg395 O400 2.032 . S
Mg395 O402 2.079 . S
C396 O393 1.250 . S
C396 O394 1.248 . S
C397 O398 1.264 . S
C397 O405 1.249 . S
O398 C397 1.264 . S
O399 Mg392 1.986 . S
O399 C403 1.246 . S
O400 Mg395 2.032 . S
O400 C403 1.259 . S
O401 Mg392 2.114 . S
O401 C404 1.252 . S
O402 Mg392 2.251 . S
O402 Mg395 2.079 . S
O402 C404 1.273 . S
C403 O399 1.246 . S
C403 O400 1.259 . S
C404 O401 1.252 . S
C404 O402 1.273 . S
O405 Mg392 2.010 1_554 S
O405 C397 1.249 . S
Mg406 O407 2.028 . S
Mg406 O413 1.986 . S
Mg406 O415 2.114 . S
Mg406 O416 2.251 . S
Mg406 O419 2.010 1_556 S
O407 Mg406 2.028 . S
O407 C410 1.250 . S
O408 Mg409 2.028 . S
O408 C410 1.248 . S
Mg409 O408 2.028 . S
Mg409 O414 2.032 . S
Mg409 O416 2.079 . S
C410 O407 1.250 . S
C410 O408 1.248 . S
C411 O412 1.264 . S
C411 O419 1.249 . S
O412 C411 1.264 . S
O413 Mg406 1.986 . S
O413 C417 1.246 . S
O414 Mg409 2.032 . S
O414 C417 1.259 . S
O415 Mg406 2.114 . S
O415 C418 1.252 . S
O416 Mg406 2.251 . S
O416 Mg409 2.079 . S
O416 C418 1.273 . S
C417 O413 1.246 . S
C417 O414 1.259 . S
C418 O415 1.252 . S
C418 O416 1.273 . S
O419 Mg406 2.010 1_554 S
O419 C411 1.249 . S
Mg420 O421 2.028 . S
Mg420 O427 1.986 . S
Mg420 O429 2.114 . S
Mg420 O430 2.251 . S
Mg420 O433 2.010 . S
O421 Mg420 2.028 . S
O421 C424 1.250 . S
O422 Mg423 2.028 . S
O422 C424 1.248 . S
Mg423 O422 2.028 . S
Mg423 O428 2.032 . S
Mg423 O430 2.079 . S
C424 O421 1.250 . S
C424 O422 1.248 . S
C425 O426 1.264 . S
C425 O433 1.249 . S
O426 C425 1.264 . S
O427 Mg420 1.986 . S
O427 C431 1.246 . S
O428 Mg423 2.032 . S
O428 C431 1.259 . S
O429 Mg420 2.114 . S
O429 C432 1.252 . S
O430 Mg420 2.251 . S
O430 Mg423 2.079 . S
O430 C432 1.273 . S
C431 O427 1.246 . S
C431 O428 1.259 . S
C432 O429 1.252 . S
C432 O430 1.273 . S
O433 Mg420 2.010 . S
O433 C425 1.249 . S
Mg434 O435 2.028 . S
Mg434 O441 1.986 . S
Mg434 O443 2.114 . S
Mg434 O444 2.251 . S
Mg434 O447 2.010 . S
O435 Mg434 2.028 . S
O435 C438 1.250 . S
O436 Mg437 2.028 . S
O436 C438 1.248 . S
Mg437 O436 2.028 . S
Mg437 O442 2.032 . S
Mg437 O444 2.079 . S
C438 O435 1.250 . S
C438 O436 1.248 . S
C439 O440 1.264 . S
C439 O447 1.249 . S
O440 C439 1.264 . S
O441 Mg434 1.986 . S
O441 C445 1.246 . S
O442 Mg437 2.032 . S
O442 C445 1.259 . S
O443 Mg434 2.114 . S
O443 C446 1.252 . S
O444 Mg434 2.251 . S
O444 Mg437 2.079 . S
O444 C446 1.273 . S
C445 O441 1.246 . S
C445 O442 1.259 . S
C446 O443 1.252 . S
C446 O444 1.273 . S
O447 Mg434 2.010 . S
O447 C439 1.249 . S
Mg448 O449 2.028 . S
Mg448 O455 1.986 . S
Mg448 O457 2.114 . S
Mg448 O458 2.251 . S
Mg448 O461 2.010 . S
O449 Mg448 2.028 . S
O449 C452 1.250 . S
O450 Mg451 2.028 . S
O450 C452 1.248 . S
Mg451 O450 2.028 . S
Mg451 O456 2.032 . S
Mg451 O458 2.079 . S
C452 O449 1.250 . S
C452 O450 1.248 . S
C453 O454 1.264 . S
C453 O461 1.249 . S
O454 C453 1.264 . S
O455 Mg448 1.986 . S
O455 C459 1.246 . S
O456 Mg451 2.032 . S
O456 C459 1.259 . S
O457 Mg448 2.114 . S
O457 C460 1.252 . S
O458 Mg448 2.251 . S
O458 Mg451 2.079 . S
O458 C460 1.273 . S
C459 O455 1.246 . S
C459 O456 1.259 . S
C460 O457 1.252 . S
C460 O458 1.273 . S
O461 Mg448 2.010 . S
O461 C453 1.249 . S
Mg462 O463 2.028 . S
Mg462 O469 1.986 . S
Mg462 O471 2.114 . S
Mg462 O472 2.251 . S
Mg462 O475 2.010 . S
O463 Mg462 2.028 . S
O463 C466 1.250 . S
O464 Mg465 2.028 . S
O464 C466 1.248 . S
Mg465 O464 2.028 . S
Mg465 O470 2.032 . S
Mg465 O472 2.079 . S
C466 O463 1.250 . S
C466 O464 1.248 . S
C467 O468 1.264 . S
C467 O475 1.249 . S
O468 C467 1.264 . S
O469 Mg462 1.986 . S
O469 C473 1.246 . S
O470 Mg465 2.032 . S
O470 C473 1.259 . S
O471 Mg462 2.114 . S
O471 C474 1.252 . S
O472 Mg462 2.251 . S
O472 Mg465 2.079 . S
O472 C474 1.273 . S
C473 O469 1.246 . S
C473 O470 1.259 . S
C474 O471 1.252 . S
C474 O472 1.273 . S
O475 Mg462 2.010 . S
O475 C467 1.249 . S
Mg476 O477 2.028 . S
Mg476 O483 1.986 . S
Mg476 O485 2.114 . S
Mg476 O486 2.251 . S
Mg476 O489 2.010 . S
O477 Mg476 2.028 . S
O477 C480 1.250 . S
O478 Mg479 2.028 . S
O478 C480 1.248 . S
Mg479 O478 2.028 . S
Mg479 O484 2.032 . S
Mg479 O486 2.079 . S
C480 O477 1.250 . S
C480 O478 1.248 . S
C481 O482 1.264 . S
C481 O489 1.249 . S
O482 C481 1.264 . S
O483 Mg476 1.986 . S
O483 C487 1.246 . S
O484 Mg479 2.032 . S
O484 C487 1.259 . S
O485 Mg476 2.114 . S
O485 C488 1.252 . S
O486 Mg476 2.251 . S
O486 Mg479 2.079 . S
O486 C488 1.273 . S
C487 O483 1.246 . S
C487 O484 1.259 . S
C488 O485 1.252 . S
C488 O486 1.273 . S
O489 Mg476 2.010 . S
O489 C481 1.249 . S
Mg490 O491 2.028 . S
Mg490 O497 1.986 . S
Mg490 O499 2.114 . S
Mg490 O500 2.251 . S
Mg490 O503 2.010 . S
O491 Mg490 2.028 . S
O491 C494 1.250 . S
O492 Mg493 2.028 . S
O492 C494 1.248 . S
Mg493 O492 2.028 . S
Mg493 O498 2.032 . S
Mg493 O500 2.079 . S
C494 O491 1.250 . S
C494 O492 1.248 . S
C495 O496 1.264 . S
C495 O503 1.249 . S
O496 C495 1.264 . S
O497 Mg490 1.986 . S
O497 C501 1.246 . S
O498 Mg493 2.032 . S
O498 C501 1.259 . S
O499 Mg490 2.114 . S
O499 C502 1.252 . S
O500 Mg490 2.251 . S
O500 Mg493 2.079 . S
O500 C502 1.273 . S
C501 O497 1.246 . S
C501 O498 1.259 . S
C502 O499 1.252 . S
C502 O500 1.273 . S
O503 Mg490 2.010 . S
O503 C495 1.249 . S
H504 C512 0.929 . S
H505 C514 0.930 . S
H506 C516 0.930 . S
H507 C519 0.929 . S
H508 C522 0.930 . S
H509 C524 0.960 . S
H510 C524 0.960 . S
H511 C524 0.960 . S
C512 H504 0.929 . S
C512 C513 1.377 . S
C512 C514 1.384 . S
C513 C512 1.377 . S
C513 C519 1.390 . S
C514 H505 0.930 . S
C514 C512 1.384 . S
C514 C515 1.372 . S
C515 C514 1.372 . S
C515 C516 1.400 . S
C515 C520 1.490 . S
C516 H506 0.930 . S
C516 C515 1.400 . S
C516 C519 1.386 . S
H517 C533 0.930 . S
H518 C534 0.931 . S
C519 H507 0.929 . S
C519 C513 1.390 . S
C519 C516 1.386 . S
C520 C515 1.490 . S
C520 C522 1.395 . S
C520 C523 1.403 . S
H521 C527 0.930 . S
C522 H508 0.930 . S
C522 C520 1.395 . S
C522 C525 1.403 . S
C523 C520 1.403 . S
C523 C524 1.524 . S
C523 C527 1.400 . S
C524 H509 0.960 . S
C524 H510 0.960 . S
C524 H511 0.960 . S
C524 C523 1.524 . S
C525 C522 1.403 . S
C525 C526 1.392 . S
C525 C529 1.495 . S
C526 C525 1.392 . S
C526 C527 1.385 . S
C526 C528 1.478 1_556 S
C527 H521 0.930 . S
C527 C523 1.400 . S
C527 C526 1.385 . S
C528 C526 1.478 1_554 S
C528 C530 1.381 . S
C528 C534 1.383 . S
C529 C525 1.495 . S
C529 H535 0.959 . S
C529 H536 0.961 1_556 S
C529 H537 0.960 . S
C530 C528 1.381 . S
C530 C531 1.394 . S
C530 H538 0.930 . S
C531 C530 1.394 . S
C531 C532 1.383 . S
C531 H539 0.929 . S
C532 C531 1.383 . S
C532 C533 1.377 . S
C533 H517 0.930 . S
C533 C532 1.377 . S
C533 C534 1.379 . S
C534 H518 0.931 . S
C534 C528 1.383 . S
C534 C533 1.379 . S
H535 C529 0.959 . S
H536 C529 0.961 1_554 S
H537 C529 0.960 . S
H538 C530 0.930 . S
H539 C531 0.929 . S
H540 C548 0.929 . S
H541 C550 0.930 . S
H542 C552 0.930 . S
H543 C555 0.929 . S
H544 C558 0.930 . S
H545 C560 0.960 . S
H546 C560 0.960 . S
H547 C560 0.960 . S
C548 H540 0.929 . S
C548 C549 1.377 . S
C548 C550 1.384 . S
C549 C548 1.377 . S
C549 C555 1.390 . S
C550 H541 0.930 . S
C550 C548 1.384 . S
C550 C551 1.372 . S
C551 C550 1.372 . S
C551 C552 1.400 . S
C551 C556 1.490 . S
C552 H542 0.930 . S
C552 C551 1.400 . S
C552 C555 1.386 . S
H553 C569 0.930 . S
H554 C570 0.931 . S
C555 H543 0.929 . S
C555 C549 1.390 . S
C555 C552 1.386 . S
C556 C551 1.490 . S
C556 C558 1.395 . S
C556 C559 1.403 . S
H557 C563 0.930 . S
C558 H544 0.930 . S
C558 C556 1.395 . S
C558 C561 1.403 . S
C559 C556 1.403 . S
C559 C560 1.524 . S
C559 C563 1.400 . S
C560 H545 0.960 . S
C560 H546 0.960 . S
C560 H547 0.960 . S
C560 C559 1.524 . S
C561 C558 1.403 . S
C561 C562 1.392 . S
C561 C565 1.495 . S
C562 C561 1.392 . S
C562 C563 1.385 . S
C562 C564 1.478 1_556 S
C563 H557 0.930 . S
C563 C559 1.400 . S
C563 C562 1.385 . S
C564 C562 1.478 1_554 S
C564 C566 1.381 . S
C564 C570 1.383 . S
C565 C561 1.495 . S
C565 H571 0.959 . S
C565 H572 0.961 1_556 S
C565 H573 0.960 1_556 S
C566 C564 1.381 . S
C566 C567 1.394 . S
C566 H574 0.930 . S
C567 C566 1.394 . S
C567 C568 1.383 . S
C567 H575 0.929 . S
C568 C567 1.383 . S
C568 C569 1.377 . S
C569 H553 0.930 . S
C569 C568 1.377 . S
C569 C570 1.379 . S
C570 H554 0.931 . S
C570 C564 1.383 . S
C570 C569 1.379 . S
H571 C565 0.959 . S
H572 C565 0.961 1_554 S
H573 C565 0.960 1_554 S
H574 C566 0.930 . S
H575 C567 0.929 . S
H576 C584 0.929 . S
H577 C586 0.930 . S
H578 C588 0.930 . S
H579 C591 0.929 . S
H580 C594 0.930 . S
H581 C596 0.960 . S
H582 C596 0.960 1_554 S
H583 C596 0.960 1_554 S
C584 H576 0.929 . S
C584 C585 1.377 . S
C584 C586 1.384 . S
C585 C584 1.377 . S
C585 C591 1.390 . S
C586 H577 0.930 . S
C586 C584 1.384 . S
C586 C587 1.372 . S
C587 C586 1.372 . S
C587 C588 1.400 . S
C587 C592 1.490 1_554 S
C588 H578 0.930 . S
C588 C587 1.400 . S
C588 C591 1.386 . S
H589 C605 0.930 . S
H590 C606 0.931 . S
C591 H579 0.929 . S
C591 C585 1.390 . S
C591 C588 1.386 . S
C592 C587 1.490 1_556 S
C592 C594 1.395 . S
C592 C595 1.403 . S
H593 C599 0.930 . S
C594 H580 0.930 . S
C594 C592 1.395 . S
C594 C597 1.403 . S
C595 C592 1.403 . S
C595 C596 1.524 . S
C595 C599 1.400 . S
C596 H581 0.960 . S
C596 H582 0.960 1_556 S
C596 H583 0.960 1_556 S
C596 C595 1.524 . S
C597 C594 1.403 . S
C597 C598 1.392 . S
C597 C601 1.495 . S
C598 C597 1.392 . S
C598 C599 1.385 . S
C598 C600 1.478 . S
C599 H593 0.930 . S
C599 C595 1.400 . S
C599 C598 1.385 . S
C600 C598 1.478 . S
C600 C602 1.381 . S
C600 C606 1.383 . S
C601 C597 1.495 . S
C601 H607 0.959 . S
C601 H608 0.961 . S
C601 H609 0.960 . S
C602 C600 1.381 . S
C602 C603 1.394 . S
C602 H610 0.930 . S
C603 C602 1.394 . S
C603 C604 1.383 . S
C603 H611 0.929 . S
C604 C603 1.383 . S
C604 C605 1.377 . S
C605 H589 0.930 . S
C605 C604 1.377 . S
C605 C606 1.379 . S
C606 H590 0.931 . S
C606 C600 1.383 . S
C606 C605 1.379 . S
H607 C601 0.959 . S
H608 C601 0.961 . S
H609 C601 0.960 . S
H610 C602 0.930 . S
H611 C603 0.929 . S
H612 C620 0.929 . S
H613 C622 0.930 . S
H614 C624 0.930 . S
H615 C627 0.929 . S
H616 C630 0.930 . S
H617 C632 0.960 . S
H618 C632 0.960 . S
H619 C632 0.960 . S
C620 H612 0.929 . S
C620 C621 1.377 . S
C620 C622 1.384 . S
C621 C620 1.377 . S
C621 C627 1.390 . S
C622 H613 0.930 . S
C622 C620 1.384 . S
C622 C623 1.372 . S
C623 C622 1.372 . S
C623 C624 1.400 . S
C623 C628 1.490 . S
C624 H614 0.930 . S
C624 C623 1.400 . S
C624 C627 1.386 . S
H625 C641 0.930 . S
H626 C642 0.931 . S
C627 H615 0.929 . S
C627 C621 1.390 . S
C627 C624 1.386 . S
C628 C623 1.490 . S
C628 C630 1.395 . S
C628 C631 1.403 . S
H629 C635 0.930 . S
C630 H616 0.930 . S
C630 C628 1.395 . S
C630 C633 1.403 . S
C631 C628 1.403 . S
C631 C632 1.524 . S
C631 C635 1.400 . S
C632 H617 0.960 . S
C632 H618 0.960 . S
C632 H619 0.960 . S
C632 C631 1.524 . S
C633 C630 1.403 . S
C633 C634 1.392 . S
C633 C637 1.495 . S
C634 C633 1.392 . S
C634 C635 1.385 . S
C634 C636 1.478 . S
C635 H629 0.930 . S
C635 C631 1.400 . S
C635 C634 1.385 . S
C636 C634 1.478 . S
C636 C638 1.381 . S
C636 C642 1.383 . S
C637 C633 1.495 . S
C637 H643 0.959 . S
C637 H644 0.961 . S
C637 H645 0.960 . S
C638 C636 1.381 . S
C638 C639 1.394 . S
C638 H646 0.930 . S
C639 C638 1.394 . S
C639 C640 1.383 . S
C639 H647 0.929 . S
C640 C639 1.383 . S
C640 C641 1.377 . S
C641 H625 0.930 . S
C641 C640 1.377 . S
C641 C642 1.379 . S
C642 H626 0.931 . S
C642 C636 1.383 . S
C642 C641 1.379 . S
H643 C637 0.959 . S
H644 C637 0.961 . S
H645 C637 0.960 . S
H646 C638 0.930 . S
H647 C639 0.929 . S
H648 C656 0.929 . S
H649 C658 0.930 . S
H650 C660 0.930 . S
H651 C663 0.929 . S
H652 C666 0.930 . S
H653 C668 0.960 . S
H654 C668 0.960 . S
H655 C668 0.960 . S
C656 H648 0.929 . S
C656 C657 1.377 . S
C656 C658 1.384 . S
C657 C656 1.377 . S
C657 C663 1.390 . S
C658 H649 0.930 . S
C658 C656 1.384 . S
C658 C659 1.372 . S
C659 C658 1.372 . S
C659 C660 1.400 . S
C659 C664 1.490 . S
C660 H650 0.930 . S
C660 C659 1.400 . S
C660 C663 1.386 . S
H661 C677 0.930 . S
H662 C678 0.931 . S
C663 H651 0.929 . S
C663 C657 1.390 . S
C663 C660 1.386 . S
C664 C659 1.490 . S
C664 C666 1.395 . S
C664 C667 1.403 . S
H665 C671 0.930 . S
C666 H652 0.930 . S
C666 C664 1.395 . S
C666 C669 1.403 . S
C667 C664 1.403 . S
C667 C668 1.524 . S
C667 C671 1.400 . S
C668 H653 0.960 . S
C668 H654 0.960 . S
C668 H655 0.960 . S
C668 C667 1.524 . S
C669 C666 1.403 . S
C669 C670 1.392 . S
C669 C673 1.495 . S
C670 C669 1.392 . S
C670 C671 1.385 . S
C670 C672 1.478 . S
C671 H665 0.930 . S
C671 C667 1.400 . S
C671 C670 1.385 . S
C672 C670 1.478 . S
C672 C674 1.381 . S
C672 C678 1.383 . S
C673 C669 1.495 . S
C673 H679 0.959 . S
C673 H680 0.961 . S
C673 H681 0.960 . S
C674 C672 1.381 . S
C674 C675 1.394 . S
C674 H682 0.930 . S
C675 C674 1.394 . S
C675 C676 1.383 . S
C675 H683 0.929 . S
C676 C675 1.383 . S
C676 C677 1.377 . S
C677 H661 0.930 . S
C677 C676 1.377 . S
C677 C678 1.379 . S
C678 H662 0.931 . S
C678 C672 1.383 . S
C678 C677 1.379 . S
H679 C673 0.959 . S
H680 C673 0.961 . S
H681 C673 0.960 . S
H682 C674 0.930 . S
H683 C675 0.929 . S
H684 C692 0.929 . S
H685 C694 0.930 . S
H686 C696 0.930 . S
H687 C699 0.929 . S
H688 C702 0.930 . S
H689 C704 0.960 . S
H690 C704 0.960 . S
H691 C704 0.960 . S
C692 H684 0.929 . S
C692 C693 1.377 . S
C692 C694 1.384 . S
C693 C692 1.377 . S
C693 C699 1.390 . S
C694 H685 0.930 . S
C694 C692 1.384 . S
C694 C695 1.372 . S
C695 C694 1.372 . S
C695 C696 1.400 . S
C695 C700 1.490 . S
C696 H686 0.930 . S
C696 C695 1.400 . S
C696 C699 1.386 . S
H697 C713 0.930 . S
H698 C714 0.931 . S
C699 H687 0.929 . S
C699 C693 1.390 . S
C699 C696 1.386 . S
C700 C695 1.490 . S
C700 C702 1.395 . S
C700 C703 1.403 . S
H701 C707 0.930 . S
C702 H688 0.930 . S
C702 C700 1.395 . S
C702 C705 1.403 . S
C703 C700 1.403 . S
C703 C704 1.524 . S
C703 C707 1.400 . S
C704 H689 0.960 . S
C704 H690 0.960 . S
C704 H691 0.960 . S
C704 C703 1.524 . S
C705 C702 1.403 . S
C705 C706 1.392 . S
C705 C709 1.495 . S
C706 C705 1.392 . S
C706 C707 1.385 . S
C706 C708 1.478 . S
C707 H701 0.930 . S
C707 C703 1.400 . S
C707 C706 1.385 . S
C708 C706 1.478 . S
C708 C710 1.381 . S
C708 C714 1.383 . S
C709 C705 1.495 . S
C709 H715 0.959 . S
C709 H716 0.961 . S
C709 H717 0.960 . S
C710 C708 1.381 . S
C710 C711 1.394 . S
C710 H718 0.930 . S
C711 C710 1.394 . S
C711 C712 1.383 . S
C711 H719 0.929 . S
C712 C711 1.383 . S
C712 C713 1.377 . S
C713 H697 0.930 . S
C713 C712 1.377 . S
C713 C714 1.379 . S
C714 H698 0.931 . S
C714 C708 1.383 . S
C714 C713 1.379 . S
H715 C709 0.959 . S
H716 C709 0.961 . S
H717 C709 0.960 . S
H718 C710 0.930 . S
H719 C711 0.929 . S
H720 C728 0.929 . S
H721 C730 0.930 . S
H722 C732 0.930 . S
H723 C735 0.929 . S
H724 C738 0.930 . S
H725 C740 0.960 . S
H726 C740 0.960 . S
H727 C740 0.960 . S
C728 H720 0.929 . S
C728 C729 1.377 . S
C728 C730 1.384 . S
C729 C728 1.377 . S
C729 C735 1.390 . S
C730 H721 0.930 . S
C730 C728 1.384 . S
C730 C731 1.372 . S
C731 C730 1.372 . S
C731 C732 1.400 . S
C731 C736 1.490 . S
C732 H722 0.930 . S
C732 C731 1.400 . S
C732 C735 1.386 . S
H733 C749 0.930 . S
H734 C750 0.931 . S
C735 H723 0.929 . S
C735 C729 1.390 . S
C735 C732 1.386 . S
C736 C731 1.490 . S
C736 C738 1.395 . S
C736 C739 1.403 . S
H737 C743 0.930 . S
C738 H724 0.930 . S
C738 C736 1.395 . S
C738 C741 1.403 . S
C739 C736 1.403 . S
C739 C740 1.524 . S
C739 C743 1.400 . S
C740 H725 0.960 . S
C740 H726 0.960 . S
C740 H727 0.960 . S
C740 C739 1.524 . S
C741 C738 1.403 . S
C741 C742 1.392 . S
C741 C745 1.495 . S
C742 C741 1.392 . S
C742 C743 1.385 . S
C742 C744 1.478 1_554 S
C743 H737 0.930 . S
C743 C739 1.400 . S
C743 C742 1.385 . S
C744 C742 1.478 1_556 S
C744 C746 1.381 . S
C744 C750 1.383 . S
C745 C741 1.495 . S
C745 H751 0.959 . S
C745 H752 0.961 1_554 S
C745 H753 0.960 1_554 S
C746 C744 1.381 . S
C746 C747 1.394 . S
C746 H754 0.930 . S
C747 C746 1.394 . S
C747 C748 1.383 . S
C747 H755 0.929 . S
C748 C747 1.383 . S
C748 C749 1.377 . S
C749 H733 0.930 . S
C749 C748 1.377 . S
C749 C750 1.379 . S
C750 H734 0.931 . S
C750 C744 1.383 . S
C750 C749 1.379 . S
H751 C745 0.959 . S
H752 C745 0.961 1_556 S
H753 C745 0.960 1_556 S
H754 C746 0.930 . S
H755 C747 0.929 . S
H756 C764 0.929 . S
H757 C766 0.930 . S
H758 C768 0.930 . S
H759 C771 0.929 . S
H760 C774 0.930 . S
H761 C776 0.960 . S
H762 C776 0.960 . S
H763 C776 0.960 . S
C764 H756 0.929 . S
C764 C765 1.377 . S
C764 C766 1.384 . S
C765 C764 1.377 . S
C765 C771 1.390 . S
C766 H757 0.930 . S
C766 C764 1.384 . S
C766 C767 1.372 . S
C767 C766 1.372 . S
C767 C768 1.400 . S
C767 C772 1.490 . S
C768 H758 0.930 . S
C768 C767 1.400 . S
C768 C771 1.386 . S
H769 C785 0.930 . S
H770 C786 0.931 . S
C771 H759 0.929 . S
C771 C765 1.390 . S
C771 C768 1.386 . S
C772 C767 1.490 . S
C772 C774 1.395 . S
C772 C775 1.403 . S
H773 C779 0.930 . S
C774 H760 0.930 . S
C774 C772 1.395 . S
C774 C777 1.403 . S
C775 C772 1.403 . S
C775 C776 1.524 . S
C775 C779 1.400 . S
C776 H761 0.960 . S
C776 H762 0.960 . S
C776 H763 0.960 . S
C776 C775 1.524 . S
C777 C774 1.403 . S
C777 C778 1.392 . S
C777 C781 1.495 . S
C778 C777 1.392 . S
C778 C779 1.385 . S
C778 C780 1.478 1_554 S
C779 H773 0.930 . S
C779 C775 1.400 . S
C779 C778 1.385 . S
C780 C778 1.478 1_556 S
C780 C782 1.381 . S
C780 C786 1.383 . S
C781 C777 1.495 . S
C781 H787 0.959 . S
C781 H788 0.961 1_554 S
C781 H789 0.960 1_554 S
C782 C780 1.381 . S
C782 C783 1.394 . S
C782 H790 0.930 . S
C783 C782 1.394 . S
C783 C784 1.383 . S
C783 H791 0.929 . S
C784 C783 1.383 . S
C784 C785 1.377 . S
C785 H769 0.930 . S
C785 C784 1.377 . S
C785 C786 1.379 . S
C786 H770 0.931 . S
C786 C780 1.383 . S
C786 C785 1.379 . S
H787 C781 0.959 . S
H788 C781 0.961 1_556 S
H789 C781 0.960 1_556 S
H790 C782 0.930 . S
H791 C783 0.929 . S
H792 C800 0.929 . S
H793 C802 0.930 . S
H794 C804 0.930 . S
H795 C807 0.929 . S
H796 C810 0.930 . S
H797 C812 0.960 . S
H798 C812 0.960 . S
H799 C812 0.967 . S
C800 H792 0.929 . S
C800 C801 1.377 . S
C800 C802 1.384 . S
C801 C800 1.377 . S
C801 C807 1.390 . S
C802 H793 0.930 . S
C802 C800 1.384 . S
C802 C803 1.372 . S
C803 C802 1.372 . S
C803 C804 1.400 . S
C803 C808 1.490 1_556 S
C804 H794 0.930 . S
C804 C803 1.400 . S
C804 C807 1.386 . S
H805 C821 0.930 . S
H806 C822 0.931 . S
C807 H795 0.929 . S
C807 C801 1.390 . S
C807 C804 1.386 . S
C808 C803 1.490 1_554 S
C808 C810 1.395 . S
C808 C811 1.403 . S
H809 C815 0.930 . S
C810 H796 0.930 . S
C810 C808 1.395 . S
C810 C813 1.403 . S
C811 C808 1.403 . S
C811 C812 1.524 . S
C811 C815 1.400 . S
C812 H797 0.960 . S
C812 H798 0.960 . S
C812 H799 0.967 . S
C812 C811 1.524 . S
C813 C810 1.403 . S
C813 C814 1.392 . S
C813 C817 1.495 . S
C814 C813 1.392 . S
C814 C815 1.385 . S
C814 C816 1.478 . S
C815 H809 0.930 . S
C815 C811 1.400 . S
C815 C814 1.385 . S
C816 C814 1.478 . S
C816 C818 1.381 . S
C816 C822 1.383 . S
C817 C813 1.495 . S
C817 H823 0.959 . S
C817 H824 0.961 . S
C817 H825 0.960 . S
C818 C816 1.381 . S
C818 C819 1.394 . S
C818 H826 0.930 . S
C819 C818 1.394 . S
C819 C820 1.383 . S
C819 H827 0.929 . S
C820 C819 1.383 . S
C820 C821 1.377 . S
C821 H805 0.930 . S
C821 C820 1.377 . S
C821 C822 1.379 . S
C822 H806 0.931 . S
C822 C816 1.383 . S
C822 C821 1.379 . S
H823 C817 0.959 . S
H824 C817 0.961 . S
H825 C817 0.960 . S
H826 C818 0.930 . S
H827 C819 0.929 . S
H828 C836 0.929 . S
H829 C838 0.930 . S
H830 C840 0.930 . S
H831 C843 0.929 . S
H832 C846 0.930 . S
H833 C848 0.960 . S
H834 C848 0.960 . S
H835 C848 0.960 . S
C836 H828 0.929 . S
C836 C837 1.377 . S
C836 C838 1.384 . S
C837 C836 1.377 . S
C837 C843 1.390 . S
C838 H829 0.930 . S
C838 C836 1.384 . S
C838 C839 1.372 . S
C839 C838 1.372 . S
C839 C840 1.400 . S
C839 C844 1.490 . S
C840 H830 0.930 . S
C840 C839 1.400 . S
C840 C843 1.386 . S
H841 C857 0.930 . S
H842 C858 0.931 . S
C843 H831 0.929 . S
C843 C837 1.390 . S
C843 C840 1.386 . S
C844 C839 1.490 . S
C844 C846 1.395 . S
C844 C847 1.403 . S
H845 C851 0.930 . S
C846 H832 0.930 . S
C846 C844 1.395 . S
C846 C849 1.403 . S
C847 C844 1.403 . S
C847 C848 1.524 . S
C847 C851 1.400 . S
C848 H833 0.960 . S
C848 H834 0.960 . S
C848 H835 0.960 . S
C848 C847 1.524 . S
C849 C846 1.403 . S
C849 C850 1.392 . S
C849 C853 1.495 . S
C850 C849 1.392 . S
C850 C851 1.385 . S
C850 C852 1.478 . S
C851 H845 0.930 . S
C851 C847 1.400 . S
C851 C850 1.385 . S
C852 C850 1.478 . S
C852 C854 1.381 . S
C852 C858 1.383 . S
C853 C849 1.495 . S
C853 H859 0.959 . S
C853 H860 0.961 . S
C853 H861 0.960 . S
C854 C852 1.381 . S
C854 C855 1.394 . S
C854 H862 0.930 . S
C855 C854 1.394 . S
C855 C856 1.383 . S
C855 H863 0.929 . S
C856 C855 1.383 . S
C856 C857 1.377 . S
C857 H841 0.930 . S
C857 C856 1.377 . S
C857 C858 1.379 . S
C858 H842 0.931 . S
C858 C852 1.383 . S
C858 C857 1.379 . S
H859 C853 0.959 . S
H860 C853 0.961 . S
H861 C853 0.960 . S
H862 C854 0.930 . S
H863 C855 0.929 . S
H864 C872 0.929 . S
H865 C874 0.930 . S
H866 C876 0.930 . S
H867 C879 0.929 . S
H868 C882 0.930 . S
H869 C884 0.960 . S
H870 C884 0.960 . S
H871 C884 0.960 . S
C872 H864 0.929 . S
C872 C873 1.377 . S
C872 C874 1.384 . S
C873 C872 1.377 . S
C873 C879 1.390 . S
C874 H865 0.930 . S
C874 C872 1.384 . S
C874 C875 1.372 . S
C875 C874 1.372 . S
C875 C876 1.400 . S
C875 C880 1.490 . S
C876 H866 0.930 . S
C876 C875 1.400 . S
C876 C879 1.386 . S
H877 C893 0.930 . S
H878 C894 0.931 . S
C879 H867 0.929 . S
C879 C873 1.390 . S
C879 C876 1.386 . S
C880 C875 1.490 . S
C880 C882 1.395 . S
C880 C883 1.403 . S
H881 C887 0.930 . S
C882 H868 0.930 . S
C882 C880 1.395 . S
C882 C885 1.403 . S
C883 C880 1.403 . S
C883 C884 1.524 . S
C883 C887 1.400 . S
C884 H869 0.960 . S
C884 H870 0.960 . S
C884 H871 0.960 . S
C884 C883 1.524 . S
C885 C882 1.403 . S
C885 C886 1.392 . S
C885 C889 1.495 . S
C886 C885 1.392 . S
C886 C887 1.385 . S
C886 C888 1.478 . S
C887 H881 0.930 . S
C887 C883 1.400 . S
C887 C886 1.385 . S
C888 C886 1.478 . S
C888 C890 1.381 . S
C888 C894 1.383 . S
C889 C885 1.495 . S
C889 H895 0.959 . S
C889 H896 0.961 . S
C889 H897 0.960 . S
C890 C888 1.381 . S
C890 C891 1.394 . S
C890 H898 0.930 . S
C891 C890 1.394 . S
C891 C892 1.383 . S
C891 H899 0.929 . S
C892 C891 1.383 . S
C892 C893 1.377 . S
C893 H877 0.930 . S
C893 C892 1.377 . S
C893 C894 1.379 . S
C894 H878 0.931 . S
C894 C888 1.383 . S
C894 C893 1.379 . S
H895 C889 0.959 . S
H896 C889 0.961 . S
H897 C889 0.960 . S
H898 C890 0.930 . S
H899 C891 0.929 . S
H900 C908 0.929 . S
H901 C910 0.930 . S
H902 C912 0.930 . S
H903 C915 0.929 . S
H904 C918 0.930 . S
H905 C920 0.960 . S
H906 C920 0.960 . S
H907 C920 0.960 . S
C908 H900 0.929 . S
C908 C909 1.377 . S
C908 C910 1.384 . S
C909 C908 1.377 . S
C909 C915 1.390 . S
C910 H901 0.930 . S
C910 C908 1.384 . S
C910 C911 1.372 . S
C911 C910 1.372 . S
C911 C912 1.400 . S
C911 C916 1.490 . S
C912 H902 0.930 . S
C912 C911 1.400 . S
C912 C915 1.386 . S
H913 C929 0.930 . S
H914 C930 0.931 . S
C915 H903 0.929 . S
C915 C909 1.390 . S
C915 C912 1.386 . S
C916 C911 1.490 . S
C916 C918 1.395 . S
C916 C919 1.403 . S
H917 C923 0.930 . S
C918 H904 0.930 . S
C918 C916 1.395 . S
C918 C921 1.403 . S
C919 C916 1.403 . S
C919 C920 1.524 . S
C919 C923 1.400 . S
C920 H905 0.960 . S
C920 H906 0.960 . S
C920 H907 0.960 . S
C920 C919 1.524 . S
C921 C918 1.403 . S
C921 C922 1.392 . S
C921 C925 1.495 . S
C922 C921 1.392 . S
C922 C923 1.385 . S
C922 C924 1.478 . S
C923 H917 0.930 . S
C923 C919 1.400 . S
C923 C922 1.385 . S
C924 C922 1.478 . S
C924 C926 1.381 . S
C924 C930 1.383 . S
C925 C921 1.495 . S
C925 H931 0.959 . S
C925 H932 0.961 . S
C925 H933 0.960 . S
C926 C924 1.381 . S
C926 C927 1.394 . S
C926 H934 0.930 . S
C927 C926 1.394 . S
C927 C928 1.383 . S
C927 H935 0.929 . S
C928 C927 1.383 . S
C928 C929 1.377 . S
C929 H913 0.930 . S
C929 C928 1.377 . S
C929 C930 1.379 . S
C930 H914 0.931 . S
C930 C924 1.383 . S
C930 C929 1.379 . S
H931 C925 0.959 . S
H932 C925 0.961 . S
H933 C925 0.960 . S
H934 C926 0.930 . S
H935 C927 0.929 . S
H936 C944 0.929 . S
H937 C946 0.930 . S
H938 C948 0.930 . S
H939 C951 0.929 . S
H940 C954 0.930 . S
H941 C956 0.960 . S
H942 C956 0.960 . S
H943 C956 0.960 . S
C944 H936 0.929 . S
C944 C945 1.377 . S
C944 C946 1.384 . S
C945 C944 1.377 . S
C945 C951 1.390 . S
C946 H937 0.930 . S
C946 C944 1.384 . S
C946 C947 1.372 . S
C947 C946 1.372 . S
C947 C948 1.400 . S
C947 C952 1.490 . S
C948 H938 0.930 . S
C948 C947 1.400 . S
C948 C951 1.386 . S
H949 C965 0.930 . S
H950 C966 0.931 . S
C951 H939 0.929 . S
C951 C945 1.390 . S
C951 C948 1.386 . S
C952 C947 1.490 . S
C952 C954 1.395 . S
C952 C955 1.403 . S
H953 C959 0.930 . S
C954 H940 0.930 . S
C954 C952 1.395 . S
C954 C957 1.403 . S
C955 C952 1.403 . S
C955 C956 1.524 . S
C955 C959 1.400 . S
C956 H941 0.960 . S
C956 H942 0.960 . S
C956 H943 0.960 . S
C956 C955 1.524 . S
C957 C954 1.403 . S
C957 C958 1.392 . S
C957 C961 1.495 . S
C958 C957 1.392 . S
C958 C959 1.385 . S
C958 C960 1.478 . S
C959 H953 0.930 . S
C959 C955 1.400 . S
C959 C958 1.385 . S
C960 C958 1.478 . S
C960 C962 1.381 . S
C960 C966 1.383 . S
C961 C957 1.495 . S
C961 H967 0.959 . S
C961 H968 0.961 . S
C961 H969 0.960 . S
C962 C960 1.381 . S
C962 C963 1.394 . S
C962 H970 0.930 . S
C963 C962 1.394 . S
C963 C964 1.383 . S
C963 H971 0.929 . S
C964 C963 1.383 . S
C964 C965 1.377 . S
C965 H949 0.930 . S
C965 C964 1.377 . S
C965 C966 1.379 . S
C966 H950 0.931 . S
C966 C960 1.383 . S
C966 C965 1.379 . S
H967 C961 0.959 . S
H968 C961 0.961 . S
H969 C961 0.960 . S
H970 C962 0.930 . S
H971 C963 0.929 . S
H972 C980 0.929 . S
H973 C982 0.930 . S
H974 C984 0.930 . S
H975 C987 0.929 . S
H976 C990 0.930 . S
H977 C992 0.960 . S
H978 C992 0.960 . S
H979 C992 0.960 . S
C980 H972 0.929 . S
C980 C981 1.377 . S
C980 C982 1.384 . S
C981 C980 1.377 . S
C981 C987 1.390 . S
C982 H973 0.930 . S
C982 C980 1.384 . S
C982 C983 1.372 . S
C983 C982 1.372 . S
C983 C984 1.400 . S
C983 C988 1.490 . S
C984 H974 0.930 . S
C984 C983 1.400 . S
C984 C987 1.386 . S
H985 C1001 0.930 . S
H986 C1002 0.931 . S
C987 H975 0.929 . S
C987 C981 1.390 . S
C987 C984 1.386 . S
C988 C983 1.490 . S
C988 C990 1.395 . S
C988 C991 1.403 . S
H989 C995 0.930 . S
C990 H976 0.930 . S
C990 C988 1.395 . S
C990 C993 1.403 . S
C991 C988 1.403 . S
C991 C992 1.524 . S
C991 C995 1.400 . S
C992 H977 0.960 . S
C992 H978 0.960 . S
C992 H979 0.960 . S
C992 C991 1.524 . S
C993 C990 1.403 . S
C993 C994 1.392 . S
C993 C997 1.495 . S
C994 C993 1.392 . S
C994 C995 1.385 . S
C994 C996 1.478 . S
C995 H989 0.930 . S
C995 C991 1.400 . S
C995 C994 1.385 . S
C996 C994 1.478 . S
C996 C998 1.381 . S
C996 C1002 1.383 . S
C997 C993 1.495 . S
C997 H1003 0.959 . S
C997 H1004 0.961 . S
C997 H1005 0.960 . S
C998 C996 1.381 . S
C998 C999 1.394 . S
C998 H1006 0.930 . S
C999 C998 1.394 . S
C999 C1000 1.383 . S
C999 H1007 0.929 . S
C1000 C999 1.383 . S
C1000 C1001 1.377 . S
C1001 H985 0.930 . S
C1001 C1000 1.377 . S
C1001 C1002 1.379 . S
C1002 H986 0.931 . S
C1002 C996 1.383 . S
C1002 C1001 1.379 . S
H1003 C997 0.959 . S
H1004 C997 0.961 . S
H1005 C997 0.960 . S
H1006 C998 0.930 . S
H1007 C999 0.929 . S
H1008 C1016 0.929 . S
H1009 C1018 0.930 . S
H1010 C1020 0.930 . S
H1011 C1023 0.929 . S
H1012 C1026 0.930 . S
H1013 C1028 0.960 . S
H1014 C1028 0.960 . S
H1015 C1028 0.960 . S
C1016 H1008 0.929 . S
C1016 C1017 1.377 . S
C1016 C1018 1.384 . S
C1017 C1016 1.377 . S
C1017 C1023 1.390 . S
C1018 H1009 0.930 . S
C1018 C1016 1.384 . S
C1018 C1019 1.372 . S
C1019 C1018 1.372 . S
C1019 C1020 1.400 . S
C1019 C1024 1.490 . S
C1020 H1010 0.930 . S
C1020 C1019 1.400 . S
C1020 C1023 1.386 . S
H1021 C1037 0.930 . S
H1022 C1038 0.931 . S
C1023 H1011 0.929 . S
C1023 C1017 1.390 . S
C1023 C1020 1.386 . S
C1024 C1019 1.490 . S
C1024 C1026 1.395 . S
C1024 C1027 1.403 . S
H1025 C1031 0.930 . S
C1026 H1012 0.930 . S
C1026 C1024 1.395 . S
C1026 C1029 1.403 . S
C1027 C1024 1.403 . S
C1027 C1028 1.524 . S
C1027 C1031 1.400 . S
C1028 H1013 0.960 . S
C1028 H1014 0.960 . S
C1028 H1015 0.960 . S
C1028 C1027 1.524 . S
C1029 C1026 1.403 . S
C1029 C1030 1.392 . S
C1029 C1033 1.495 . S
C1030 C1029 1.392 . S
C1030 C1031 1.385 . S
C1030 C1032 1.478 . S
C1031 H1025 0.930 . S
C1031 C1027 1.400 . S
C1031 C1030 1.385 . S
C1032 C1030 1.478 . S
C1032 C1034 1.381 . S
C1032 C1038 1.383 . S
C1033 C1029 1.495 . S
C1033 H1039 0.959 . S
C1033 H1040 0.961 . S
C1033 H1041 0.960 . S
C1034 C1032 1.381 . S
C1034 C1035 1.394 . S
C1034 H1042 0.930 . S
C1035 C1034 1.394 . S
C1035 C1036 1.383 . S
C1035 H1043 0.929 . S
C1036 C1035 1.383 . S
C1036 C1037 1.377 . S
C1037 H1021 0.930 . S
C1037 C1036 1.377 . S
C1037 C1038 1.379 . S
C1038 H1022 0.931 . S
C1038 C1032 1.383 . S
C1038 C1037 1.379 . S
H1039 C1033 0.959 . S
H1040 C1033 0.961 . S
H1041 C1033 0.960 . S
H1042 C1034 0.930 . S
H1043 C1035 0.929 . S
H1044 C1052 0.929 . S
H1045 C1054 0.930 . S
H1046 C1056 0.930 . S
H1047 C1059 0.929 . S
H1048 C1062 0.930 . S
H1049 C1064 0.960 . S
H1050 C1064 0.960 . S
H1051 C1064 0.960 . S
C1052 H1044 0.929 . S
C1052 C1053 1.377 . S
C1052 C1054 1.384 . S
C1053 C1052 1.377 . S
C1053 C1059 1.390 . S
C1054 H1045 0.930 . S
C1054 C1052 1.384 . S
C1054 C1055 1.372 . S
C1055 C1054 1.372 . S
C1055 C1056 1.400 . S
C1055 C1060 1.490 . S
C1056 H1046 0.930 . S
C1056 C1055 1.400 . S
C1056 C1059 1.386 . S
H1057 C1073 0.930 . S
H1058 C1074 0.930 1_556 S
C1059 H1047 0.929 . S
C1059 C1053 1.390 . S
C1059 C1056 1.386 . S
C1060 C1055 1.490 . S
C1060 C1062 1.395 . S
C1060 C1063 1.403 . S
H1061 C1067 0.930 . S
C1062 H1048 0.930 . S
C1062 C1060 1.395 . S
C1062 C1065 1.403 . S
C1063 C1060 1.403 . S
C1063 C1064 1.524 . S
C1063 C1067 1.400 . S
C1064 H1049 0.960 . S
C1064 H1050 0.960 . S
C1064 H1051 0.960 . S
C1064 C1063 1.524 . S
C1065 C1062 1.403 . S
C1065 C1066 1.392 . S
C1065 C1069 1.495 . S
C1066 C1065 1.392 . S
C1066 C1067 1.385 . S
C1066 C1068 1.478 . S
C1067 H1061 0.930 . S
C1067 C1063 1.400 . S
C1067 C1066 1.385 . S
C1068 C1066 1.478 . S
C1068 C1070 1.381 . S
C1068 C1074 1.380 1_556 S
C1069 C1065 1.495 . S
C1069 H1075 0.959 . S
C1069 H1076 0.961 . S
C1069 H1077 0.960 . S
C1070 C1068 1.381 . S
C1070 C1071 1.394 1_556 S
C1070 H1078 0.930 . S
C1071 C1070 1.394 1_554 S
C1071 C1072 1.383 . S
C1071 H1079 0.929 . S
C1072 C1071 1.383 . S
C1072 C1073 1.377 . S
C1073 H1057 0.930 . S
C1073 C1072 1.377 . S
C1073 C1074 1.383 . S
C1074 H1058 0.930 1_554 S
C1074 C1068 1.380 1_554 S
C1074 C1073 1.383 . S
H1075 C1069 0.959 . S
H1076 C1069 0.961 . S
H1077 C1069 0.960 . S
H1078 C1070 0.930 . S
H1079 C1071 0.929 . S
H1080 C1088 0.929 . S
H1081 C1090 0.930 . S
H1082 C1092 0.930 . S
H1083 C1095 0.929 . S
H1084 C1098 0.930 . S
H1085 C1100 0.960 . S
H1086 C1100 0.960 . S
H1087 C1100 0.960 . S
C1088 H1080 0.929 . S
C1088 C1089 1.377 . S
C1088 C1090 1.384 . S
C1089 C1088 1.377 . S
C1089 C1095 1.390 . S
C1090 H1081 0.930 . S
C1090 C1088 1.384 . S
C1090 C1091 1.372 . S
C1091 C1090 1.372 . S
C1091 C1092 1.400 . S
C1091 C1096 1.490 . S
C1092 H1082 0.930 . S
C1092 C1091 1.400 . S
C1092 C1095 1.386 . S
H1093 C1109 0.930 . S
H1094 C1110 0.931 . S
C1095 H1083 0.929 . S
C1095 C1089 1.390 . S
C1095 C1092 1.386 . S
C1096 C1091 1.490 . S
C1096 C1098 1.395 . S
C1096 C1099 1.403 . S
H1097 C1103 0.930 . S
C1098 H1084 0.930 . S
C1098 C1096 1.395 . S
C1098 C1101 1.403 . S
C1099 C1096 1.403 . S
C1099 C1100 1.524 . S
C1099 C1103 1.400 . S
C1100 H1085 0.960 . S
C1100 H1086 0.960 . S
C1100 H1087 0.960 . S
C1100 C1099 1.524 . S
C1101 C1098 1.403 . S
C1101 C1102 1.392 . S
C1101 C1105 1.495 . S
C1102 C1101 1.392 . S
C1102 C1103 1.385 . S
C1102 C1104 1.478 . S
C1103 H1097 0.930 . S
C1103 C1099 1.400 . S
C1103 C1102 1.385 . S
C1104 C1102 1.478 . S
C1104 C1106 1.381 . S
C1104 C1110 1.383 . S
C1105 C1101 1.495 . S
C1105 H1111 0.959 . S
C1105 H1112 0.961 . S
C1105 H1113 0.960 . S
C1106 C1104 1.381 . S
C1106 C1107 1.394 1_556 S
C1106 H1114 0.930 . S
C1107 C1106 1.394 1_554 S
C1107 C1108 1.383 . S
C1107 H1115 0.929 . S
C1108 C1107 1.383 . S
C1108 C1109 1.377 . S
C1109 H1093 0.930 . S
C1109 C1108 1.377 . S
C1109 C1110 1.379 1_554 S
C1110 H1094 0.931 . S
C1110 C1104 1.383 . S
C1110 C1109 1.379 1_556 S
H1111 C1105 0.959 . S
H1112 C1105 0.961 . S
H1113 C1105 0.960 . S
H1114 C1106 0.930 . S
H1115 C1107 0.929 . S
H1116 C1124 0.929 . S
H1117 C1126 0.930 . S
H1118 C1128 0.930 . S
H1119 C1131 0.929 . S
H1120 C1134 0.930 . S
H1121 C1136 0.960 . S
H1122 C1136 0.960 . S
H1123 C1136 0.960 . S
C1124 H1116 0.929 . S
C1124 C1125 1.377 . S
C1124 C1126 1.384 . S
C1125 C1124 1.377 . S
C1125 C1131 1.390 . S
C1126 H1117 0.930 . S
C1126 C1124 1.384 . S
C1126 C1127 1.372 . S
C1127 C1126 1.372 . S
C1127 C1128 1.400 . S
C1127 C1132 1.490 . S
C1128 H1118 0.930 . S
C1128 C1127 1.400 . S
C1128 C1131 1.386 . S
H1129 C1145 0.930 . S
H1130 C1146 0.944 . S
C1131 H1119 0.929 . S
C1131 C1125 1.390 . S
C1131 C1128 1.386 . S
C1132 C1127 1.490 . S
C1132 C1134 1.395 . S
C1132 C1135 1.403 . S
H1133 C1139 0.930 . S
C1134 H1120 0.930 . S
C1134 C1132 1.395 . S
C1134 C1137 1.403 . S
C1135 C1132 1.403 . S
C1135 C1136 1.524 . S
C1135 C1139 1.400 . S
C1136 H1121 0.960 . S
C1136 H1122 0.960 . S
C1136 H1123 0.960 . S
C1136 C1135 1.524 . S
C1137 C1134 1.403 . S
C1137 C1138 1.392 . S
C1137 C1141 1.495 . S
C1138 C1137 1.392 . S
C1138 C1139 1.385 . S
C1138 C1140 1.478 . S
C1139 H1133 0.930 . S
C1139 C1135 1.400 . S
C1139 C1138 1.385 . S
C1140 C1138 1.478 . S
C1140 C1142 1.381 . S
C1140 C1146 1.400 . S
C1141 C1137 1.495 . S
C1141 H1147 0.959 . S
C1141 H1148 0.961 . S
C1141 H1149 0.960 . S
C1142 C1140 1.381 . S
C1142 C1143 1.394 1_556 S
C1142 H1150 0.930 . S
C1143 C1142 1.394 1_554 S
C1143 C1144 1.383 . S
C1143 H1151 0.929 . S
C1144 C1143 1.383 . S
C1144 C1145 1.377 . S
C1145 H1129 0.930 . S
C1145 C1144 1.377 . S
C1145 C1146 1.350 1_554 S
C1146 H1130 0.944 . S
C1146 C1140 1.400 . S
C1146 C1145 1.350 1_556 S
H1147 C1141 0.959 . S
H1148 C1141 0.961 . S
H1149 C1141 0.960 . S
H1150 C1142 0.930 . S
H1151 C1143 0.929 . S
H1152 C1160 0.929 . S
H1153 C1162 0.930 . S
H1154 C1164 0.930 . S
H1155 C1167 0.929 . S
H1156 C1170 0.930 . S
H1157 C1172 0.960 . S
H1158 C1172 0.960 . S
H1159 C1172 0.960 . S
C1160 H1152 0.929 . S
C1160 C1161 1.377 . S
C1160 C1162 1.384 . S
C1161 C1160 1.377 . S
C1161 C1167 1.390 . S
C1162 H1153 0.930 . S
C1162 C1160 1.384 . S
C1162 C1163 1.372 . S
C1163 C1162 1.372 . S
C1163 C1164 1.400 . S
C1163 C1168 1.490 . S
C1164 H1154 0.930 . S
C1164 C1163 1.400 . S
C1164 C1167 1.386 . S
H1165 C1181 0.930 . S
H1166 C1182 0.931 . S
C1167 H1155 0.929 . S
C1167 C1161 1.390 . S
C1167 C1164 1.386 . S
C1168 C1163 1.490 . S
C1168 C1170 1.395 . S
C1168 C1171 1.403 . S
H1169 C1175 0.930 . S
C1170 H1156 0.930 . S
C1170 C1168 1.395 . S
C1170 C1173 1.403 . S
C1171 C1168 1.403 . S
C1171 C1172 1.524 . S
C1171 C1175 1.400 . S
C1172 H1157 0.960 . S
C1172 H1158 0.960 . S
C1172 H1159 0.960 . S
C1172 C1171 1.524 . S
C1173 C1170 1.403 . S
C1173 C1174 1.392 . S
C1173 C1177 1.495 . S
C1174 C1173 1.392 . S
C1174 C1175 1.385 . S
C1174 C1176 1.478 . S
C1175 H1169 0.930 . S
C1175 C1171 1.400 . S
C1175 C1174 1.385 . S
C1176 C1174 1.478 . S
C1176 C1178 1.381 . S
C1176 C1182 1.383 . S
C1177 C1173 1.495 . S
C1177 H1183 0.959 . S
C1177 H1184 0.961 . S
C1177 H1185 0.960 . S
C1178 C1176 1.381 . S
C1178 C1179 1.394 . S
C1178 H1186 0.930 . S
C1179 C1178 1.394 . S
C1179 C1180 1.383 . S
C1179 H1187 0.929 . S
C1180 C1179 1.383 . S
C1180 C1181 1.377 . S
C1181 H1165 0.930 . S
C1181 C1180 1.377 . S
C1181 C1182 1.379 . S
C1182 H1166 0.931 . S
C1182 C1176 1.383 . S
C1182 C1181 1.379 . S
H1183 C1177 0.959 . S
H1184 C1177 0.961 . S
H1185 C1177 0.960 . S
H1186 C1178 0.930 . S
H1187 C1179 0.929 . S
H1188 C1196 0.929 . S
H1189 C1198 0.930 . S
H1190 C1200 0.930 . S
H1191 C1203 0.929 . S
H1192 C1206 0.930 . S
H1193 C1208 0.960 . S
H1194 C1208 0.960 . S
H1195 C1208 0.960 . S
C1196 H1188 0.929 . S
C1196 C1197 1.377 . S
C1196 C1198 1.384 . S
C1197 C1196 1.377 . S
C1197 C1203 1.390 . S
C1198 H1189 0.930 . S
C1198 C1196 1.384 . S
C1198 C1199 1.372 . S
C1199 C1198 1.372 . S
C1199 C1200 1.400 . S
C1199 C1204 1.490 . S
C1200 H1190 0.930 . S
C1200 C1199 1.400 . S
C1200 C1203 1.386 . S
H1201 C1217 0.930 . S
H1202 C1218 0.931 . S
C1203 H1191 0.929 . S
C1203 C1197 1.390 . S
C1203 C1200 1.386 . S
C1204 C1199 1.490 . S
C1204 C1206 1.395 . S
C1204 C1207 1.403 . S
H1205 C1211 0.930 . S
C1206 H1192 0.930 . S
C1206 C1204 1.395 . S
C1206 C1209 1.403 . S
C1207 C1204 1.403 . S
C1207 C1208 1.524 . S
C1207 C1211 1.400 . S
C1208 H1193 0.960 . S
C1208 H1194 0.960 . S
C1208 H1195 0.960 . S
C1208 C1207 1.524 . S
C1209 C1206 1.403 . S
C1209 C1210 1.392 . S
C1209 C1213 1.495 . S
C1210 C1209 1.392 . S
C1210 C1211 1.385 . S
C1210 C1212 1.478 . S
C1211 H1205 0.930 . S
C1211 C1207 1.400 . S
C1211 C1210 1.385 . S
C1212 C1210 1.478 . S
C1212 C1214 1.381 . S
C1212 C1218 1.383 . S
C1213 C1209 1.495 . S
C1213 H1219 0.959 . S
C1213 H1220 0.961 . S
C1213 H1221 0.960 . S
C1214 C1212 1.381 . S
C1214 C1215 1.394 . S
C1214 H1222 0.930 . S
C1215 C1214 1.394 . S
C1215 C1216 1.383 . S
C1215 H1223 0.929 . S
C1216 C1215 1.383 . S
C1216 C1217 1.377 . S
C1217 H1201 0.930 . S
C1217 C1216 1.377 . S
C1217 C1218 1.379 . S
C1218 H1202 0.931 . S
C1218 C1212 1.383 . S
C1218 C1217 1.379 . S
H1219 C1213 0.959 . S
H1220 C1213 0.961 . S
H1221 C1213 0.960 . S
H1222 C1214 0.930 . S
H1223 C1215 0.929 . S
H1224 C1232 0.929 . S
H1225 C1234 0.930 . S
H1226 C1236 0.930 . S
H1227 C1239 0.929 . S
H1228 C1242 0.930 . S
H1229 C1244 0.960 . S
H1230 C1244 0.960 . S
H1231 C1244 0.960 . S
C1232 H1224 0.929 . S
C1232 C1233 1.377 . S
C1232 C1234 1.384 . S
C1233 C1232 1.377 . S
C1233 C1239 1.390 . S
C1234 H1225 0.930 . S
C1234 C1232 1.384 . S
C1234 C1235 1.372 . S
C1235 C1234 1.372 . S
C1235 C1236 1.400 . S
C1235 C1240 1.490 . S
C1236 H1226 0.930 . S
C1236 C1235 1.400 . S
C1236 C1239 1.386 . S
H1237 C1253 0.930 . S
H1238 C1254 0.931 . S
C1239 H1227 0.929 . S
C1239 C1233 1.390 . S
C1239 C1236 1.386 . S
C1240 C1235 1.490 . S
C1240 C1242 1.395 . S
C1240 C1243 1.403 . S
H1241 C1247 0.930 . S
C1242 H1228 0.930 . S
C1242 C1240 1.395 . S
C1242 C1245 1.403 . S
C1243 C1240 1.403 . S
C1243 C1244 1.524 . S
C1243 C1247 1.400 . S
C1244 H1229 0.960 . S
C1244 H1230 0.960 . S
C1244 H1231 0.960 . S
C1244 C1243 1.524 . S
C1245 C1242 1.403 . S
C1245 C1246 1.392 . S
C1245 C1249 1.495 . S
C1246 C1245 1.392 . S
C1246 C1247 1.385 . S
C1246 C1248 1.478 . S
C1247 H1241 0.930 . S
C1247 C1243 1.400 . S
C1247 C1246 1.385 . S
C1248 C1246 1.478 . S
C1248 C1250 1.381 . S
C1248 C1254 1.383 . S
C1249 C1245 1.495 . S
C1249 H1255 0.959 . S
C1249 H1256 0.961 . S
C1249 H1257 0.960 . S
C1250 C1248 1.381 . S
C1250 C1251 1.394 . S
C1250 H1258 0.930 . S
C1251 C1250 1.394 . S
C1251 C1252 1.383 . S
C1251 H1259 0.929 . S
C1252 C1251 1.383 . S
C1252 C1253 1.377 . S
C1253 H1237 0.930 . S
C1253 C1252 1.377 . S
C1253 C1254 1.379 . S
C1254 H1238 0.931 . S
C1254 C1248 1.383 . S
C1254 C1253 1.379 . S
H1255 C1249 0.959 . S
H1256 C1249 0.961 . S
H1257 C1249 0.960 . S
H1258 C1250 0.930 . S
H1259 C1251 0.929 . S
H1260 C1268 0.929 . S
H1261 C1270 0.930 . S
H1262 C1272 0.930 . S
H1263 C1275 0.929 . S
H1264 C1278 0.930 . S
H1265 C1280 0.960 . S
H1266 C1280 0.960 . S
H1267 C1280 0.960 . S
C1268 H1260 0.929 . S
C1268 C1269 1.377 . S
C1268 C1270 1.384 . S
C1269 C1268 1.377 . S
C1269 C1275 1.390 . S
C1270 H1261 0.930 . S
C1270 C1268 1.384 . S
C1270 C1271 1.372 . S
C1271 C1270 1.372 . S
C1271 C1272 1.400 . S
C1271 C1276 1.490 . S
C1272 H1262 0.930 . S
C1272 C1271 1.400 . S
C1272 C1275 1.386 . S
H1273 C1289 0.930 . S
H1274 C1290 0.931 . S
C1275 H1263 0.929 . S
C1275 C1269 1.390 . S
C1275 C1272 1.386 . S
C1276 C1271 1.490 . S
C1276 C1278 1.395 . S
C1276 C1279 1.403 . S
H1277 C1283 0.930 . S
C1278 H1264 0.930 . S
C1278 C1276 1.395 . S
C1278 C1281 1.403 . S
C1279 C1276 1.403 . S
C1279 C1280 1.524 . S
C1279 C1283 1.400 . S
C1280 H1265 0.960 . S
C1280 H1266 0.960 . S
C1280 H1267 0.960 . S
C1280 C1279 1.524 . S
C1281 C1278 1.403 . S
C1281 C1282 1.392 . S
C1281 C1285 1.495 . S
C1282 C1281 1.392 . S
C1282 C1283 1.385 . S
C1282 C1284 1.478 . S
C1283 H1277 0.930 . S
C1283 C1279 1.400 . S
C1283 C1282 1.385 . S
C1284 C1282 1.478 . S
C1284 C1286 1.381 . S
C1284 C1290 1.383 . S
C1285 C1281 1.495 . S
C1285 H1291 0.959 . S
C1285 H1292 0.961 . S
C1285 H1293 0.960 . S
C1286 C1284 1.381 . S
C1286 C1287 1.394 . S
C1286 H1294 0.930 . S
C1287 C1286 1.394 . S
C1287 C1288 1.383 . S
C1287 H1295 0.929 . S
C1288 C1287 1.383 . S
C1288 C1289 1.377 . S
C1289 H1273 0.930 . S
C1289 C1288 1.377 . S
C1289 C1290 1.379 . S
C1290 H1274 0.931 . S
C1290 C1284 1.383 . S
C1290 C1289 1.379 . S
H1291 C1285 0.959 . S
H1292 C1285 0.961 . S
H1293 C1285 0.960 . S
H1294 C1286 0.930 . S
H1295 C1287 0.929 . S
H1296 C1304 0.929 . S
H1297 C1306 0.930 . S
H1298 C1308 0.930 . S
H1299 C1311 0.929 . S
H1300 C1314 0.930 . S
H1301 C1316 0.960 . S
H1302 C1316 0.960 . S
H1303 C1316 0.960 . S
C1304 H1296 0.929 . S
C1304 C1305 1.377 . S
C1304 C1306 1.384 . S
C1305 C1304 1.377 . S
C1305 C1311 1.390 . S
C1306 H1297 0.930 . S
C1306 C1304 1.384 . S
C1306 C1307 1.372 . S
C1307 C1306 1.372 . S
C1307 C1308 1.400 . S
C1307 C1312 1.490 . S
C1308 H1298 0.930 . S
C1308 C1307 1.400 . S
C1308 C1311 1.386 . S
H1309 C1325 0.930 . S
H1310 C1326 0.931 . S
C1311 H1299 0.929 . S
C1311 C1305 1.390 . S
C1311 C1308 1.386 . S
C1312 C1307 1.490 . S
C1312 C1314 1.395 . S
C1312 C1315 1.403 . S
H1313 C1319 0.930 . S
C1314 H1300 0.930 . S
C1314 C1312 1.395 . S
C1314 C1317 1.403 . S
C1315 C1312 1.403 . S
C1315 C1316 1.524 . S
C1315 C1319 1.400 . S
C1316 H1301 0.960 . S
C1316 H1302 0.960 . S
C1316 H1303 0.960 . S
C1316 C1315 1.524 . S
C1317 C1314 1.403 . S
C1317 C1318 1.392 . S
C1317 C1321 1.495 . S
C1318 C1317 1.392 . S
C1318 C1319 1.385 . S
C1318 C1320 1.478 . S
C1319 H1313 0.930 . S
C1319 C1315 1.400 . S
C1319 C1318 1.385 . S
C1320 C1318 1.478 . S
C1320 C1322 1.381 . S
C1320 C1326 1.383 . S
C1321 C1317 1.495 . S
C1321 H1327 0.959 . S
C1321 H1328 0.961 . S
C1321 H1329 0.960 . S
C1322 C1320 1.381 . S
C1322 C1323 1.394 . S
C1322 H1330 0.930 . S
C1323 C1322 1.394 . S
C1323 C1324 1.383 . S
C1323 H1331 0.929 . S
C1324 C1323 1.383 . S
C1324 C1325 1.377 . S
C1325 H1309 0.930 . S
C1325 C1324 1.377 . S
C1325 C1326 1.379 . S
C1326 H1310 0.931 . S
C1326 C1320 1.383 . S
C1326 C1325 1.379 . S
H1327 C1321 0.959 . S
H1328 C1321 0.961 . S
H1329 C1321 0.960 . S
H1330 C1322 0.930 . S
H1331 C1323 0.929 . S
H1332 C1340 0.929 . S
H1333 C1342 0.930 . S
H1334 C1344 0.930 . S
H1335 C1347 0.929 . S
H1336 C1350 0.930 . S
H1337 C1352 0.960 . S
H1338 C1352 0.960 . S
H1339 C1352 0.960 . S
C1340 H1332 0.929 . S
C1340 C1341 1.377 . S
C1340 C1342 1.384 . S
C1341 C1340 1.377 . S
C1341 C1347 1.390 . S
C1342 H1333 0.930 . S
C1342 C1340 1.384 . S
C1342 C1343 1.372 . S
C1343 C1342 1.372 . S
C1343 C1344 1.400 . S
C1343 C1348 1.490 . S
C1344 H1334 0.930 . S
C1344 C1343 1.400 . S
C1344 C1347 1.386 . S
H1345 C1361 0.930 . S
H1346 C1362 0.931 . S
C1347 H1335 0.929 . S
C1347 C1341 1.390 . S
C1347 C1344 1.386 . S
C1348 C1343 1.490 . S
C1348 C1350 1.395 . S
C1348 C1351 1.403 . S
H1349 C1355 0.930 . S
C1350 H1336 0.930 . S
C1350 C1348 1.395 . S
C1350 C1353 1.403 . S
C1351 C1348 1.403 . S
C1351 C1352 1.524 . S
C1351 C1355 1.400 . S
C1352 H1337 0.960 . S
C1352 H1338 0.960 . S
C1352 H1339 0.960 . S
C1352 C1351 1.524 . S
C1353 C1350 1.403 . S
C1353 C1354 1.392 . S
C1353 C1357 1.495 . S
C1354 C1353 1.392 . S
C1354 C1355 1.385 . S
C1354 C1356 1.478 . S
C1355 H1349 0.930 . S
C1355 C1351 1.400 . S
C1355 C1354 1.385 . S
C1356 C1354 1.478 . S
C1356 C1358 1.381 . S
C1356 C1362 1.383 . S
C1357 C1353 1.495 . S
C1357 H1363 0.959 . S
C1357 H1364 0.961 . S
C1357 H1365 0.960 . S
C1358 C1356 1.381 . S
C1358 C1359 1.394 . S
C1358 H1366 0.930 . S
C1359 C1358 1.394 . S
C1359 C1360 1.383 . S
C1359 H1367 0.929 . S
C1360 C1359 1.383 . S
C1360 C1361 1.377 . S
C1361 H1345 0.930 . S
C1361 C1360 1.377 . S
C1361 C1362 1.379 . S
C1362 H1346 0.931 . S
C1362 C1356 1.383 . S
C1362 C1361 1.379 . S
H1363 C1357 0.959 . S
H1364 C1357 0.961 . S
H1365 C1357 0.960 . S
H1366 C1358 0.930 . S
H1367 C1359 0.929 . S
H1368 C1376 0.929 . S
H1369 C1378 0.930 . S
H1370 C1380 0.930 . S
H1371 C1383 0.929 . S
H1372 C1386 0.930 . S
H1373 C1388 0.960 . S
H1374 C1388 0.960 . S
H1375 C1388 0.960 . S
C1376 H1368 0.929 . S
C1376 C1377 1.377 . S
C1376 C1378 1.384 . S
C1377 C1376 1.377 . S
C1377 C1383 1.390 . S
C1378 H1369 0.930 . S
C1378 C1376 1.384 . S
C1378 C1379 1.372 . S
C1379 C1378 1.372 . S
C1379 C1380 1.400 . S
C1379 C1384 1.490 . S
C1380 H1370 0.930 . S
C1380 C1379 1.400 . S
C1380 C1383 1.386 . S
H1381 C1397 0.930 . S
H1382 C1398 0.931 . S
C1383 H1371 0.929 . S
C1383 C1377 1.390 . S
C1383 C1380 1.386 . S
C1384 C1379 1.490 . S
C1384 C1386 1.395 . S
C1384 C1387 1.403 . S
H1385 C1391 0.930 . S
C1386 H1372 0.930 . S
C1386 C1384 1.395 . S
C1386 C1389 1.403 . S
C1387 C1384 1.403 . S
C1387 C1388 1.524 . S
C1387 C1391 1.400 . S
C1388 H1373 0.960 . S
C1388 H1374 0.960 . S
C1388 H1375 0.960 . S
C1388 C1387 1.524 . S
C1389 C1386 1.403 . S
C1389 C1390 1.392 . S
C1389 C1393 1.495 . S
C1390 C1389 1.392 . S
C1390 C1391 1.385 . S
C1390 C1392 1.478 . S
C1391 H1385 0.930 . S
C1391 C1387 1.400 . S
C1391 C1390 1.385 . S
C1392 C1390 1.478 . S
C1392 C1394 1.381 . S
C1392 C1398 1.383 . S
C1393 C1389 1.495 . S
C1393 H1399 0.959 . S
C1393 H1400 0.961 . S
C1393 H1401 0.960 . S
C1394 C1392 1.381 . S
C1394 C1395 1.394 . S
C1394 H1402 0.930 . S
C1395 C1394 1.394 . S
C1395 C1396 1.383 . S
C1395 H1403 0.929 . S
C1396 C1395 1.383 . S
C1396 C1397 1.377 . S
C1397 H1381 0.930 . S
C1397 C1396 1.377 . S
C1397 C1398 1.379 . S
C1398 H1382 0.931 . S
C1398 C1392 1.383 . S
C1398 C1397 1.379 . S
H1399 C1393 0.959 . S
H1400 C1393 0.961 . S
H1401 C1393 0.960 . S
H1402 C1394 0.930 . S
H1403 C1395 0.929 . S
H1404 C1412 0.929 . S
H1405 C1414 0.930 . S
H1406 C1416 0.930 . S
H1407 C1419 0.929 . S
H1408 C1422 0.930 . S
H1409 C1424 0.960 . S
H1410 C1424 0.960 . S
H1411 C1424 0.960 . S
C1412 H1404 0.929 . S
C1412 C1413 1.377 . S
C1412 C1414 1.384 . S
C1413 C1412 1.377 . S
C1413 C1419 1.390 . S
C1414 H1405 0.930 . S
C1414 C1412 1.384 . S
C1414 C1415 1.372 . S
C1415 C1414 1.372 . S
C1415 C1416 1.400 . S
C1415 C1420 1.490 . S
C1416 H1406 0.930 . S
C1416 C1415 1.400 . S
C1416 C1419 1.386 . S
H1417 C1433 0.930 . S
H1418 C1434 0.931 . S
C1419 H1407 0.929 . S
C1419 C1413 1.390 . S
C1419 C1416 1.386 . S
C1420 C1415 1.490 . S
C1420 C1422 1.395 . S
C1420 C1423 1.403 . S
H1421 C1427 0.930 . S
C1422 H1408 0.930 . S
C1422 C1420 1.395 . S
C1422 C1425 1.403 . S
C1423 C1420 1.403 . S
C1423 C1424 1.524 . S
C1423 C1427 1.400 . S
C1424 H1409 0.960 . S
C1424 H1410 0.960 . S
C1424 H1411 0.960 . S
C1424 C1423 1.524 . S
C1425 C1422 1.403 . S
C1425 C1426 1.392 . S
C1425 C1429 1.495 . S
C1426 C1425 1.392 . S
C1426 C1427 1.385 . S
C1426 C1428 1.478 . S
C1427 H1421 0.930 . S
C1427 C1423 1.400 . S
C1427 C1426 1.385 . S
C1428 C1426 1.478 . S
C1428 C1430 1.381 . S
C1428 C1434 1.383 . S
C1429 C1425 1.495 . S
C1429 H1435 0.959 . S
C1429 H1436 0.961 . S
C1429 H1437 0.960 . S
C1430 C1428 1.381 . S
C1430 C1431 1.394 . S
C1430 H1438 0.930 . S
C1431 C1430 1.394 . S
C1431 C1432 1.383 . S
C1431 H1439 0.929 . S
C1432 C1431 1.383 . S
C1432 C1433 1.377 . S
C1433 H1417 0.930 . S
C1433 C1432 1.377 . S
C1433 C1434 1.379 . S
C1434 H1418 0.931 . S
C1434 C1428 1.383 . S
C1434 C1433 1.379 . S
H1435 C1429 0.959 . S
H1436 C1429 0.961 . S
H1437 C1429 0.960 . S
H1438 C1430 0.930 . S
H1439 C1431 0.929 . S
H1440 C1448 0.929 . S
H1441 C1450 0.930 . S
H1442 C1452 0.930 . S
H1443 C1455 0.929 . S
H1444 C1458 0.930 . S
H1445 C1460 0.960 . S
H1446 C1460 0.960 . S
H1447 C1460 0.960 . S
C1448 H1440 0.929 . S
C1448 C1449 1.377 . S
C1448 C1450 1.384 . S
C1449 C1448 1.377 . S
C1449 C1455 1.390 . S
C1450 H1441 0.930 . S
C1450 C1448 1.384 . S
C1450 C1451 1.372 . S
C1451 C1450 1.372 . S
C1451 C1452 1.400 . S
C1451 C1456 1.490 . S
C1452 H1442 0.930 . S
C1452 C1451 1.400 . S
C1452 C1455 1.386 . S
H1453 C1469 0.930 . S
H1454 C1470 0.931 . S
C1455 H1443 0.929 . S
C1455 C1449 1.390 . S
C1455 C1452 1.386 . S
C1456 C1451 1.490 . S
C1456 C1458 1.395 . S
C1456 C1459 1.403 . S
H1457 C1463 0.930 . S
C1458 H1444 0.930 . S
C1458 C1456 1.395 . S
C1458 C1461 1.403 . S
C1459 C1456 1.403 . S
C1459 C1460 1.524 . S
C1459 C1463 1.400 . S
C1460 H1445 0.960 . S
C1460 H1446 0.960 . S
C1460 H1447 0.960 . S
C1460 C1459 1.524 . S
C1461 C1458 1.403 . S
C1461 C1462 1.392 . S
C1461 C1465 1.495 . S
C1462 C1461 1.392 . S
C1462 C1463 1.385 . S
C1462 C1464 1.478 . S
C1463 H1457 0.930 . S
C1463 C1459 1.400 . S
C1463 C1462 1.385 . S
C1464 C1462 1.478 . S
C1464 C1466 1.381 . S
C1464 C1470 1.383 . S
C1465 C1461 1.495 . S
C1465 H1471 0.959 . S
C1465 H1472 0.961 . S
C1465 H1473 0.960 . S
C1466 C1464 1.381 . S
C1466 C1467 1.394 . S
C1466 H1474 0.930 . S
C1467 C1466 1.394 . S
C1467 C1468 1.383 . S
C1467 H1475 0.929 . S
C1468 C1467 1.383 . S
C1468 C1469 1.377 . S
C1469 H1453 0.930 . S
C1469 C1468 1.377 . S
C1469 C1470 1.379 . S
C1470 H1454 0.931 . S
C1470 C1464 1.383 . S
C1470 C1469 1.379 . S
H1471 C1465 0.959 . S
H1472 C1465 0.961 . S
H1473 C1465 0.960 . S
H1474 C1466 0.930 . S
H1475 C1467 0.929 . S
H1476 C1484 0.929 . S
H1477 C1486 0.930 . S
H1478 C1488 0.930 . S
H1479 C1491 0.929 . S
H1480 C1494 0.930 . S
H1481 C1496 0.960 . S
H1482 C1496 0.960 . S
H1483 C1496 0.960 . S
C1484 H1476 0.929 . S
C1484 C1485 1.377 . S
C1484 C1486 1.384 . S
C1485 C1484 1.377 . S
C1485 C1491 1.390 . S
C1486 H1477 0.930 . S
C1486 C1484 1.384 . S
C1486 C1487 1.372 . S
C1487 C1486 1.372 . S
C1487 C1488 1.400 . S
C1487 C1492 1.490 . S
C1488 H1478 0.930 . S
C1488 C1487 1.400 . S
C1488 C1491 1.386 . S
H1489 C1505 0.930 . S
H1490 C1506 0.931 . S
C1491 H1479 0.929 . S
C1491 C1485 1.390 . S
C1491 C1488 1.386 . S
C1492 C1487 1.490 . S
C1492 C1494 1.395 . S
C1492 C1495 1.403 . S
H1493 C1499 0.930 . S
C1494 H1480 0.930 . S
C1494 C1492 1.395 . S
C1494 C1497 1.403 . S
C1495 C1492 1.403 . S
C1495 C1496 1.524 . S
C1495 C1499 1.400 . S
C1496 H1481 0.960 . S
C1496 H1482 0.960 . S
C1496 H1483 0.960 . S
C1496 C1495 1.524 . S
C1497 C1494 1.403 . S
C1497 C1498 1.392 . S
C1497 C1501 1.495 . S
C1498 C1497 1.392 . S
C1498 C1499 1.385 . S
C1498 C1500 1.478 . S
C1499 H1493 0.930 . S
C1499 C1495 1.400 . S
C1499 C1498 1.385 . S
C1500 C1498 1.478 . S
C1500 C1502 1.381 . S
C1500 C1506 1.383 . S
C1501 C1497 1.495 . S
C1501 H1507 0.959 . S
C1501 H1508 0.961 . S
C1501 H1509 0.960 . S
C1502 C1500 1.381 . S
C1502 C1503 1.394 . S
C1502 H1510 0.930 . S
C1503 C1502 1.394 . S
C1503 C1504 1.383 . S
C1503 H1511 0.929 . S
C1504 C1503 1.383 . S
C1504 C1505 1.377 . S
C1505 H1489 0.930 . S
C1505 C1504 1.377 . S
C1505 C1506 1.379 . S
C1506 H1490 0.931 . S
C1506 C1500 1.383 . S
C1506 C1505 1.379 . S
H1507 C1501 0.959 . S
H1508 C1501 0.961 . S
H1509 C1501 0.960 . S
H1510 C1502 0.930 . S
H1511 C1503 0.929 . S
H1512 C1520 0.929 . S
H1513 C1522 0.930 . S
H1514 C1524 0.930 . S
H1515 C1527 0.929 . S
H1516 C1530 0.930 . S
H1517 C1532 0.960 . S
H1518 C1532 0.960 . S
H1519 C1532 0.960 . S
C1520 H1512 0.929 . S
C1520 C1521 1.377 . S
C1520 C1522 1.384 . S
C1521 C1520 1.377 . S
C1521 C1527 1.390 . S
C1522 H1513 0.930 . S
C1522 C1520 1.384 . S
C1522 C1523 1.372 . S
C1523 C1522 1.372 . S
C1523 C1524 1.400 . S
C1523 C1528 1.490 . S
C1524 H1514 0.930 . S
C1524 C1523 1.400 . S
C1524 C1527 1.386 . S
H1525 C1541 0.930 . S
H1526 C1542 0.931 . S
C1527 H1515 0.929 . S
C1527 C1521 1.390 . S
C1527 C1524 1.386 . S
C1528 C1523 1.490 . S
C1528 C1530 1.395 . S
C1528 C1531 1.403 . S
H1529 C1535 0.930 . S
C1530 H1516 0.930 . S
C1530 C1528 1.395 . S
C1530 C1533 1.403 . S
C1531 C1528 1.403 . S
C1531 C1532 1.524 . S
C1531 C1535 1.400 . S
C1532 H1517 0.960 . S
C1532 H1518 0.960 . S
C1532 H1519 0.960 . S
C1532 C1531 1.524 . S
C1533 C1530 1.403 . S
C1533 C1534 1.392 . S
C1533 C1537 1.495 . S
C1534 C1533 1.392 . S
C1534 C1535 1.385 . S
C1534 C1536 1.478 . S
C1535 H1529 0.930 . S
C1535 C1531 1.400 . S
C1535 C1534 1.385 . S
C1536 C1534 1.478 . S
C1536 C1538 1.381 . S
C1536 C1542 1.383 . S
C1537 C1533 1.495 . S
C1537 H1543 0.959 . S
C1537 H1544 0.961 . S
C1537 H1545 0.960 . S
C1538 C1536 1.381 . S
C1538 C1539 1.394 . S
C1538 H1546 0.930 . S
C1539 C1538 1.394 . S
C1539 C1540 1.383 . S
C1539 H1547 0.929 . S
C1540 C1539 1.383 . S
C1540 C1541 1.377 . S
C1541 H1525 0.930 . S
C1541 C1540 1.377 . S
C1541 C1542 1.379 . S
C1542 H1526 0.931 . S
C1542 C1536 1.383 . S
C1542 C1541 1.379 . S
H1543 C1537 0.959 . S
H1544 C1537 0.961 . S
H1545 C1537 0.960 . S
H1546 C1538 0.930 . S
H1547 C1539 0.929 . S
H1548 C1556 0.929 . S
H1549 C1558 0.930 . S
H1550 C1560 0.930 . S
H1551 C1563 0.929 . S
H1552 C1566 0.930 . S
H1553 C1568 0.960 . S
H1554 C1568 0.960 . S
H1555 C1568 0.960 . S
C1556 H1548 0.929 . S
C1556 C1557 1.377 . S
C1556 C1558 1.384 . S
C1557 C1556 1.377 . S
C1557 C1563 1.390 . S
C1558 H1549 0.930 . S
C1558 C1556 1.384 . S
C1558 C1559 1.372 . S
C1559 C1558 1.372 . S
C1559 C1560 1.400 . S
C1559 C1564 1.490 . S
C1560 H1550 0.930 . S
C1560 C1559 1.400 . S
C1560 C1563 1.386 . S
H1561 C1577 0.930 . S
H1562 C1578 0.931 . S
C1563 H1551 0.929 . S
C1563 C1557 1.390 . S
C1563 C1560 1.386 . S
C1564 C1559 1.490 . S
C1564 C1566 1.395 . S
C1564 C1567 1.403 . S
H1565 C1571 0.930 . S
C1566 H1552 0.930 . S
C1566 C1564 1.395 . S
C1566 C1569 1.403 . S
C1567 C1564 1.403 . S
C1567 C1568 1.524 . S
C1567 C1571 1.400 . S
C1568 H1553 0.960 . S
C1568 H1554 0.960 . S
C1568 H1555 0.960 . S
C1568 C1567 1.524 . S
C1569 C1566 1.403 . S
C1569 C1570 1.392 . S
C1569 C1573 1.495 . S
C1570 C1569 1.392 . S
C1570 C1571 1.385 . S
C1570 C1572 1.478 . S
C1571 H1565 0.930 . S
C1571 C1567 1.400 . S
C1571 C1570 1.385 . S
C1572 C1570 1.478 . S
C1572 C1574 1.381 . S
C1572 C1578 1.383 . S
C1573 C1569 1.495 . S
C1573 H1579 0.959 . S
C1573 H1580 0.961 . S
C1573 H1581 0.960 . S
C1574 C1572 1.381 . S
C1574 C1575 1.394 . S
C1574 H1582 0.930 . S
C1575 C1574 1.394 . S
C1575 C1576 1.383 . S
C1575 H1583 0.929 . S
C1576 C1575 1.383 . S
C1576 C1577 1.377 . S
C1577 H1561 0.930 . S
C1577 C1576 1.377 . S
C1577 C1578 1.379 . S
C1578 H1562 0.931 . S
C1578 C1572 1.383 . S
C1578 C1577 1.379 . S
H1579 C1573 0.959 . S
H1580 C1573 0.961 . S
H1581 C1573 0.960 . S
H1582 C1574 0.930 . S
H1583 C1575 0.929 . S
H1584 C1592 0.929 . S
H1585 C1594 0.930 . S
H1586 C1596 0.930 . S
H1587 C1599 0.929 . S
H1588 C1602 0.930 . S
H1589 C1604 0.960 . S
H1590 C1604 0.960 . S
H1591 C1604 0.960 . S
C1592 H1584 0.929 . S
C1592 C1593 1.377 . S
C1592 C1594 1.384 . S
C1593 C1592 1.377 . S
C1593 C1599 1.390 . S
C1594 H1585 0.930 . S
C1594 C1592 1.384 . S
C1594 C1595 1.372 . S
C1595 C1594 1.372 . S
C1595 C1596 1.400 . S
C1595 C1600 1.490 . S
C1596 H1586 0.930 . S
C1596 C1595 1.400 . S
C1596 C1599 1.386 . S
H1597 C1613 0.930 . S
H1598 C1614 0.931 . S
C1599 H1587 0.929 . S
C1599 C1593 1.390 . S
C1599 C1596 1.386 . S
C1600 C1595 1.490 . S
C1600 C1602 1.395 . S
C1600 C1603 1.403 . S
H1601 C1607 0.930 . S
C1602 H1588 0.930 . S
C1602 C1600 1.395 . S
C1602 C1605 1.403 . S
C1603 C1600 1.403 . S
C1603 C1604 1.524 . S
C1603 C1607 1.400 . S
C1604 H1589 0.960 . S
C1604 H1590 0.960 . S
C1604 H1591 0.960 . S
C1604 C1603 1.524 . S
C1605 C1602 1.403 . S
C1605 C1606 1.392 . S
C1605 C1609 1.495 . S
C1606 C1605 1.392 . S
C1606 C1607 1.385 . S
C1606 C1608 1.478 . S
C1607 H1601 0.930 . S
C1607 C1603 1.400 . S
C1607 C1606 1.385 . S
C1608 C1606 1.478 . S
C1608 C1610 1.381 . S
C1608 C1614 1.383 . S
C1609 C1605 1.495 . S
C1609 H1615 0.959 . S
C1609 H1616 0.961 . S
C1609 H1617 0.960 . S
C1610 C1608 1.381 . S
C1610 C1611 1.394 . S
C1610 H1618 0.930 . S
C1611 C1610 1.394 . S
C1611 C1612 1.383 . S
C1611 H1619 0.929 . S
C1612 C1611 1.383 . S
C1612 C1613 1.377 . S
C1613 H1597 0.930 . S
C1613 C1612 1.377 . S
C1613 C1614 1.379 . S
C1614 H1598 0.931 . S
C1614 C1608 1.383 . S
C1614 C1613 1.379 . S
H1615 C1609 0.959 . S
H1616 C1609 0.961 . S
H1617 C1609 0.960 . S
H1618 C1610 0.930 . S
H1619 C1611 0.929 . S
H1620 C1628 0.929 . S
H1621 C1630 0.930 . S
H1622 C1632 0.930 . S
H1623 C1635 0.929 . S
H1624 C1638 0.930 . S
H1625 C1640 0.960 . S
H1626 C1640 0.960 . S
H1627 C1640 0.960 . S
C1628 H1620 0.929 . S
C1628 C1629 1.377 . S
C1628 C1630 1.384 . S
C1629 C1628 1.377 . S
C1629 C1635 1.390 . S
C1630 H1621 0.930 . S
C1630 C1628 1.384 . S
C1630 C1631 1.372 . S
C1631 C1630 1.372 . S
C1631 C1632 1.400 . S
C1631 C1636 1.490 . S
C1632 H1622 0.930 . S
C1632 C1631 1.400 . S
C1632 C1635 1.386 . S
H1633 C1649 0.930 . S
H1634 C1650 0.931 . S
C1635 H1623 0.929 . S
C1635 C1629 1.390 . S
C1635 C1632 1.386 . S
C1636 C1631 1.490 . S
C1636 C1638 1.395 . S
C1636 C1639 1.403 . S
H1637 C1643 0.930 . S
C1638 H1624 0.930 . S
C1638 C1636 1.395 . S
C1638 C1641 1.403 . S
C1639 C1636 1.403 . S
C1639 C1640 1.524 . S
C1639 C1643 1.400 . S
C1640 H1625 0.960 . S
C1640 H1626 0.960 . S
C1640 H1627 0.960 . S
C1640 C1639 1.524 . S
C1641 C1638 1.403 . S
C1641 C1642 1.392 . S
C1641 C1645 1.495 . S
C1642 C1641 1.392 . S
C1642 C1643 1.385 . S
C1642 C1644 1.478 . S
C1643 H1637 0.930 . S
C1643 C1639 1.400 . S
C1643 C1642 1.385 . S
C1644 C1642 1.478 . S
C1644 C1646 1.381 . S
C1644 C1650 1.383 . S
C1645 C1641 1.495 . S
C1645 H1651 0.959 . S
C1645 H1652 0.961 . S
C1645 H1653 0.960 . S
C1646 C1644 1.381 . S
C1646 C1647 1.394 . S
C1646 H1654 0.930 . S
C1647 C1646 1.394 . S
C1647 C1648 1.383 . S
C1647 H1655 0.929 . S
C1648 C1647 1.383 . S
C1648 C1649 1.377 . S
C1649 H1633 0.930 . S
C1649 C1648 1.377 . S
C1649 C1650 1.379 . S
C1650 H1634 0.931 . S
C1650 C1644 1.383 . S
C1650 C1649 1.379 . S
H1651 C1645 0.959 . S
H1652 C1645 0.961 . S
H1653 C1645 0.960 . S
H1654 C1646 0.930 . S
H1655 C1647 0.929 . S
H1656 C1664 0.929 . S
H1657 C1666 0.930 . S
H1658 C1668 0.930 . S
H1659 C1671 0.929 . S
H1660 C1674 0.930 . S
H1661 C1676 0.960 . S
H1662 C1676 0.960 . S
H1663 C1676 0.960 . S
C1664 H1656 0.929 . S
C1664 C1665 1.377 . S
C1664 C1666 1.384 . S
C1665 C1664 1.377 . S
C1665 C1671 1.390 . S
C1666 H1657 0.930 . S
C1666 C1664 1.384 . S
C1666 C1667 1.372 . S
C1667 C1666 1.372 . S
C1667 C1668 1.400 . S
C1667 C1672 1.490 . S
C1668 H1658 0.930 . S
C1668 C1667 1.400 . S
C1668 C1671 1.386 . S
H1669 C1685 0.930 . S
H1670 C1686 0.931 . S
C1671 H1659 0.929 . S
C1671 C1665 1.390 . S
C1671 C1668 1.386 . S
C1672 C1667 1.490 . S
C1672 C1674 1.395 . S
C1672 C1675 1.403 . S
H1673 C1679 0.930 . S
C1674 H1660 0.930 . S
C1674 C1672 1.395 . S
C1674 C1677 1.403 . S
C1675 C1672 1.403 . S
C1675 C1676 1.524 . S
C1675 C1679 1.400 . S
C1676 H1661 0.960 . S
C1676 H1662 0.960 . S
C1676 H1663 0.960 . S
C1676 C1675 1.524 . S
C1677 C1674 1.403 . S
C1677 C1678 1.392 . S
C1677 C1681 1.495 . S
C1678 C1677 1.392 . S
C1678 C1679 1.385 . S
C1678 C1680 1.478 . S
C1679 H1673 0.930 . S
C1679 C1675 1.400 . S
C1679 C1678 1.385 . S
C1680 C1678 1.478 . S
C1680 C1682 1.381 . S
C1680 C1686 1.383 . S
C1681 C1677 1.495 . S
C1681 H1687 0.959 . S
C1681 H1688 0.961 . S
C1681 H1689 0.960 . S
C1682 C1680 1.381 . S
C1682 C1683 1.394 . S
C1682 H1690 0.930 . S
C1683 C1682 1.394 . S
C1683 C1684 1.383 . S
C1683 H1691 0.929 . S
C1684 C1683 1.383 . S
C1684 C1685 1.377 . S
C1685 H1669 0.930 . S
C1685 C1684 1.377 . S
C1685 C1686 1.379 . S
C1686 H1670 0.931 . S
C1686 C1680 1.383 . S
C1686 C1685 1.379 . S
H1687 C1681 0.959 . S
H1688 C1681 0.961 . S
H1689 C1681 0.960 . S
H1690 C1682 0.930 . S
H1691 C1683 0.929 . S
H1692 C1700 0.929 . S
H1693 C1702 0.930 . S
H1694 C1704 0.930 . S
H1695 C1707 0.929 . S
H1696 C1710 0.930 . S
H1697 C1712 0.960 . S
H1698 C1712 0.960 . S
H1699 C1712 0.960 . S
C1700 H1692 0.929 . S
C1700 C1701 1.377 . S
C1700 C1702 1.384 . S
C1701 C1700 1.377 . S
C1701 C1707 1.390 . S
C1702 H1693 0.930 . S
C1702 C1700 1.384 . S
C1702 C1703 1.372 . S
C1703 C1702 1.372 . S
C1703 C1704 1.400 . S
C1703 C1708 1.490 . S
C1704 H1694 0.930 . S
C1704 C1703 1.400 . S
C1704 C1707 1.386 . S
H1705 C1721 0.930 . S
H1706 C1722 0.931 . S
C1707 H1695 0.929 . S
C1707 C1701 1.390 . S
C1707 C1704 1.386 . S
C1708 C1703 1.490 . S
C1708 C1710 1.395 . S
C1708 C1711 1.403 . S
H1709 C1715 0.930 . S
C1710 H1696 0.930 . S
C1710 C1708 1.395 . S
C1710 C1713 1.403 . S
C1711 C1708 1.403 . S
C1711 C1712 1.524 . S
C1711 C1715 1.400 . S
C1712 H1697 0.960 . S
C1712 H1698 0.960 . S
C1712 H1699 0.960 . S
C1712 C1711 1.524 . S
C1713 C1710 1.403 . S
C1713 C1714 1.392 . S
C1713 C1717 1.495 . S
C1714 C1713 1.392 . S
C1714 C1715 1.385 . S
C1714 C1716 1.478 . S
C1715 H1709 0.930 . S
C1715 C1711 1.400 . S
C1715 C1714 1.385 . S
C1716 C1714 1.478 . S
C1716 C1718 1.381 . S
C1716 C1722 1.383 . S
C1717 C1713 1.495 . S
C1717 H1723 0.959 . S
C1717 H1724 0.961 . S
C1717 H1725 0.960 . S
C1718 C1716 1.381 . S
C1718 C1719 1.394 1_554 S
C1718 H1726 0.930 . S
C1719 C1718 1.394 1_556 S
C1719 C1720 1.383 . S
C1719 H1727 0.929 . S
C1720 C1719 1.383 . S
C1720 C1721 1.377 . S
C1721 H1705 0.930 . S
C1721 C1720 1.377 . S
C1721 C1722 1.379 1_556 S
C1722 H1706 0.931 . S
C1722 C1716 1.383 . S
C1722 C1721 1.379 1_554 S
H1723 C1717 0.959 . S
H1724 C1717 0.961 . S
H1725 C1717 0.960 . S
H1726 C1718 0.930 . S
H1727 C1719 0.929 . S
H1728 C1736 0.929 . S
H1729 C1738 0.930 . S
H1730 C1740 0.930 . S
H1731 C1743 0.929 . S
H1732 C1746 0.930 . S
H1733 C1748 0.960 . S
H1734 C1748 0.960 . S
H1735 C1748 0.960 . S
C1736 H1728 0.929 . S
C1736 C1737 1.377 . S
C1736 C1738 1.384 1_556 S
C1737 C1736 1.377 . S
C1737 C1743 1.390 . S
C1738 H1729 0.930 . S
C1738 C1736 1.384 1_554 S
C1738 C1739 1.372 . S
C1739 C1738 1.372 . S
C1739 C1740 1.400 . S
C1739 C1744 1.490 . S
C1740 H1730 0.930 . S
C1740 C1739 1.400 . S
C1740 C1743 1.386 1_554 S
H1741 C1757 0.930 . S
H1742 C1758 0.931 . S
C1743 H1731 0.929 . S
C1743 C1737 1.390 . S
C1743 C1740 1.386 1_556 S
C1744 C1739 1.490 . S
C1744 C1746 1.395 . S
C1744 C1747 1.403 . S
H1745 C1751 0.930 . S
C1746 H1732 0.930 . S
C1746 C1744 1.395 . S
C1746 C1749 1.403 . S
C1747 C1744 1.403 . S
C1747 C1748 1.524 . S
C1747 C1751 1.400 . S
C1748 H1733 0.960 . S
C1748 H1734 0.960 . S
C1748 H1735 0.960 . S
C1748 C1747 1.524 . S
C1749 C1746 1.403 . S
C1749 C1750 1.392 . S
C1749 C1753 1.495 . S
C1750 C1749 1.392 . S
C1750 C1751 1.385 . S
C1750 C1752 1.478 . S
C1751 H1745 0.930 . S
C1751 C1747 1.400 . S
C1751 C1750 1.385 . S
C1752 C1750 1.478 . S
C1752 C1754 1.381 . S
C1752 C1758 1.383 . S
C1753 C1749 1.495 . S
C1753 H1759 0.959 . S
C1753 H1760 0.961 . S
C1753 H1761 0.960 . S
C1754 C1752 1.381 . S
C1754 C1755 1.394 . S
C1754 H1762 0.930 . S
C1755 C1754 1.394 . S
C1755 C1756 1.383 . S
C1755 H1763 0.929 . S
C1756 C1755 1.383 . S
C1756 C1757 1.377 . S
C1757 H1741 0.930 . S
C1757 C1756 1.377 . S
C1757 C1758 1.379 . S
C1758 H1742 0.931 . S
C1758 C1752 1.383 . S
C1758 C1757 1.379 . S
H1759 C1753 0.959 . S
H1760 C1753 0.961 . S
H1761 C1753 0.960 . S
H1762 C1754 0.930 . S
H1763 C1755 0.929 . S
H1764 C1772 0.929 . S
H1765 C1774 0.930 . S
H1766 C1776 0.930 . S
H1767 C1779 0.929 . S
H1768 C1782 0.930 . S
H1769 C1784 0.960 . S
H1770 C1784 0.960 . S
H1771 C1784 0.960 . S
C1772 H1764 0.929 . S
C1772 C1773 1.377 . S
C1772 C1774 1.384 . S
C1773 C1772 1.377 . S
C1773 C1779 1.390 . S
C1774 H1765 0.930 . S
C1774 C1772 1.384 . S
C1774 C1775 1.372 . S
C1775 C1774 1.372 . S
C1775 C1776 1.400 . S
C1775 C1780 1.490 . S
C1776 H1766 0.930 . S
C1776 C1775 1.400 . S
C1776 C1779 1.386 . S
H1777 C1793 0.930 . S
H1778 C1794 0.931 . S
C1779 H1767 0.929 . S
C1779 C1773 1.390 . S
C1779 C1776 1.386 . S
C1780 C1775 1.490 . S
C1780 C1782 1.395 . S
C1780 C1783 1.403 . S
H1781 C1787 0.930 . S
C1782 H1768 0.930 . S
C1782 C1780 1.395 . S
C1782 C1785 1.403 . S
C1783 C1780 1.403 . S
C1783 C1784 1.524 . S
C1783 C1787 1.400 . S
C1784 H1769 0.960 . S
C1784 H1770 0.960 . S
C1784 H1771 0.960 . S
C1784 C1783 1.524 . S
C1785 C1782 1.403 . S
C1785 C1786 1.392 . S
C1785 C1789 1.495 . S
C1786 C1785 1.392 . S
C1786 C1787 1.385 . S
C1786 C1788 1.478 . S
C1787 H1781 0.930 . S
C1787 C1783 1.400 . S
C1787 C1786 1.385 . S
C1788 C1786 1.478 . S
C1788 C1790 1.381 1_554 S
C1788 C1794 1.383 . S
C1789 C1785 1.495 . S
C1789 H1795 0.959 . S
C1789 H1796 0.961 . S
C1789 H1797 0.960 . S
C1790 C1788 1.381 1_556 S
C1790 C1791 1.394 . S
C1790 H1798 0.930 1_556 S
C1791 C1790 1.394 . S
C1791 C1792 1.383 . S
C1791 H1799 0.929 . S
C1792 C1791 1.383 . S
C1792 C1793 1.377 . S
C1793 H1777 0.930 . S
C1793 C1792 1.377 . S
C1793 C1794 1.379 1_556 S
C1794 H1778 0.931 . S
C1794 C1788 1.383 . S
C1794 C1793 1.379 1_554 S
H1795 C1789 0.959 . S
H1796 C1789 0.961 . S
H1797 C1789 0.960 . S
H1798 C1790 0.930 1_554 S
H1799 C1791 0.929 . S
H1800 C1808 0.929 . S
H1801 C1810 0.930 . S
H1802 C1812 0.930 . S
H1803 C1815 0.929 . S
H1804 C1818 0.930 . S
H1805 C1820 0.960 . S
H1806 C1820 0.960 . S
H1807 C1820 0.960 . S
C1808 H1800 0.929 . S
C1808 C1809 1.377 . S
C1808 C1810 1.384 . S
C1809 C1808 1.377 . S
C1809 C1815 1.390 . S
C1810 H1801 0.930 . S
C1810 C1808 1.384 . S
C1810 C1811 1.372 . S
C1811 C1810 1.372 . S
C1811 C1812 1.400 . S
C1811 C1816 1.490 . S
C1812 H1802 0.930 . S
C1812 C1811 1.400 . S
C1812 C1815 1.386 . S
H1813 C1829 0.930 . S
H1814 C1830 0.931 . S
C1815 H1803 0.929 . S
C1815 C1809 1.390 . S
C1815 C1812 1.386 . S
C1816 C1811 1.490 . S
C1816 C1818 1.395 . S
C1816 C1819 1.403 . S
H1817 C1823 0.930 . S
C1818 H1804 0.930 . S
C1818 C1816 1.395 . S
C1818 C1821 1.403 . S
C1819 C1816 1.403 . S
C1819 C1820 1.524 . S
C1819 C1823 1.400 . S
C1820 H1805 0.960 . S
C1820 H1806 0.960 . S
C1820 H1807 0.960 . S
C1820 C1819 1.524 . S
C1821 C1818 1.403 . S
C1821 C1822 1.392 . S
C1821 C1825 1.495 . S
C1822 C1821 1.392 . S
C1822 C1823 1.385 . S
C1822 C1824 1.478 . S
C1823 H1817 0.930 . S
C1823 C1819 1.400 . S
C1823 C1822 1.385 . S
C1824 C1822 1.478 . S
C1824 C1826 1.381 . S
C1824 C1830 1.383 . S
C1825 C1821 1.495 . S
C1825 H1831 0.959 . S
C1825 H1832 0.961 . S
C1825 H1833 0.960 . S
C1826 C1824 1.381 . S
C1826 C1827 1.394 . S
C1826 H1834 0.930 . S
C1827 C1826 1.394 . S
C1827 C1828 1.383 . S
C1827 H1835 0.929 . S
C1828 C1827 1.383 . S
C1828 C1829 1.377 . S
C1829 H1813 0.930 . S
C1829 C1828 1.377 . S
C1829 C1830 1.379 . S
C1830 H1814 0.931 . S
C1830 C1824 1.383 . S
C1830 C1829 1.379 . S
H1831 C1825 0.959 . S
H1832 C1825 0.961 . S
H1833 C1825 0.960 . S
H1834 C1826 0.930 . S
H1835 C1827 0.929 . S
H1836 C1844 0.929 . S
H1837 C1846 0.930 . S
H1838 C1848 0.930 . S
H1839 C1851 0.929 . S
H1840 C1854 0.930 . S
H1841 C1856 0.960 . S
H1842 C1856 0.960 . S
H1843 C1856 0.960 . S
C1844 H1836 0.929 . S
C1844 C1845 1.377 . S
C1844 C1846 1.384 . S
C1845 C1844 1.377 . S
C1845 C1851 1.390 . S
C1846 H1837 0.930 . S
C1846 C1844 1.384 . S
C1846 C1847 1.372 . S
C1847 C1846 1.372 . S
C1847 C1848 1.400 . S
C1847 C1852 1.490 . S
C1848 H1838 0.930 . S
C1848 C1847 1.400 . S
C1848 C1851 1.386 . S
H1849 C1865 0.930 . S
H1850 C1866 0.931 . S
C1851 H1839 0.929 . S
C1851 C1845 1.390 . S
C1851 C1848 1.386 . S
C1852 C1847 1.490 . S
C1852 C1854 1.395 . S
C1852 C1855 1.403 . S
H1853 C1859 0.930 . S
C1854 H1840 0.930 . S
C1854 C1852 1.395 . S
C1854 C1857 1.403 1_565 S
C1855 C1852 1.403 . S
C1855 C1856 1.524 . S
C1855 C1859 1.400 1_565 S
C1856 H1841 0.960 . S
C1856 H1842 0.960 . S
C1856 H1843 0.960 . S
C1856 C1855 1.524 . S
C1857 C1854 1.403 1_545 S
C1857 C1858 1.392 . S
C1857 C1861 1.495 . S
C1858 C1857 1.392 . S
C1858 C1859 1.385 . S
C1858 C1860 1.478 . S
C1859 H1853 0.930 . S
C1859 C1855 1.400 1_545 S
C1859 C1858 1.385 . S
C1860 C1858 1.478 . S
C1860 C1862 1.381 . S
C1860 C1866 1.383 . S
C1861 C1857 1.495 . S
C1861 H1867 0.959 . S
C1861 H1868 0.961 . S
C1861 H1869 0.960 . S
C1862 C1860 1.381 . S
C1862 C1863 1.394 . S
C1862 H1870 0.930 . S
C1863 C1862 1.394 . S
C1863 C1864 1.383 . S
C1863 H1871 0.929 . S
C1864 C1863 1.383 . S
C1864 C1865 1.377 . S
C1865 H1849 0.930 . S
C1865 C1864 1.377 . S
C1865 C1866 1.379 . S
C1866 H1850 0.931 . S
C1866 C1860 1.383 . S
C1866 C1865 1.379 . S
H1867 C1861 0.959 . S
H1868 C1861 0.961 . S
H1869 C1861 0.960 . S
H1870 C1862 0.930 . S
H1871 C1863 0.929 . S
H1872 C1880 0.929 . S
H1873 C1882 0.930 . S
H1874 C1884 0.930 . S
H1875 C1887 0.929 . S
H1876 C1890 0.930 . S
H1877 C1892 0.960 1_455 S
H1878 C1892 0.960 . S
H1879 C1892 0.960 . S
C1880 H1872 0.929 . S
C1880 C1881 1.377 . S
C1880 C1882 1.384 . S
C1881 C1880 1.377 . S
C1881 C1887 1.390 . S
C1882 H1873 0.930 . S
C1882 C1880 1.384 . S
C1882 C1883 1.372 . S
C1883 C1882 1.372 . S
C1883 C1884 1.400 . S
C1883 C1888 1.490 . S
C1884 H1874 0.930 . S
C1884 C1883 1.400 . S
C1884 C1887 1.386 . S
H1885 C1901 0.930 . S
H1886 C1902 0.931 . S
C1887 H1875 0.929 . S
C1887 C1881 1.390 . S
C1887 C1884 1.386 . S
C1888 C1883 1.490 . S
C1888 C1890 1.395 . S
C1888 C1891 1.403 . S
H1889 C1895 0.930 . S
C1890 H1876 0.930 . S
C1890 C1888 1.395 . S
C1890 C1893 1.403 1_655 S
C1891 C1888 1.403 . S
C1891 C1892 1.524 . S
C1891 C1895 1.400 1_655 S
C1892 H1877 0.960 1_655 S
C1892 H1878 0.960 . S
C1892 H1879 0.960 . S
C1892 C1891 1.524 . S
C1893 C1890 1.403 1_455 S
C1893 C1894 1.392 . S
C1893 C1897 1.495 . S
C1894 C1893 1.392 . S
C1894 C1895 1.385 . S
C1894 C1896 1.478 . S
C1895 H1889 0.930 . S
C1895 C1891 1.400 1_455 S
C1895 C1894 1.385 . S
C1896 C1894 1.478 . S
C1896 C1898 1.381 . S
C1896 C1902 1.383 . S
C1897 C1893 1.495 . S
C1897 H1903 0.959 1_455 S
C1897 H1904 0.961 . S
C1897 H1905 0.960 . S
C1898 C1896 1.381 . S
C1898 C1899 1.394 . S
C1898 H1906 0.930 . S
C1899 C1898 1.394 . S
C1899 C1900 1.383 . S
C1899 H1907 0.929 . S
C1900 C1899 1.383 . S
C1900 C1901 1.377 . S
C1901 H1885 0.930 . S
C1901 C1900 1.377 . S
C1901 C1902 1.379 . S
C1902 H1886 0.931 . S
C1902 C1896 1.383 . S
C1902 C1901 1.379 . S
H1903 C1897 0.959 1_655 S
H1904 C1897 0.961 . S
H1905 C1897 0.960 . S
H1906 C1898 0.930 . S
H1907 C1899 0.929 . S
H1908 C1916 0.929 . S
H1909 C1918 0.930 . S
H1910 C1920 0.930 . S
H1911 C1923 0.929 . S
H1912 C1926 0.930 . S
H1913 C1928 0.960 . S
H1914 C1928 0.960 . S
H1915 C1928 0.960 . S
C1916 H1908 0.929 . S
C1916 C1917 1.377 . S
C1916 C1918 1.384 . S
C1917 C1916 1.377 . S
C1917 C1923 1.390 . S
C1918 H1909 0.930 . S
C1918 C1916 1.384 . S
C1918 C1919 1.372 . S
C1919 C1918 1.372 . S
C1919 C1920 1.400 . S
C1919 C1924 1.490 . S
C1920 H1910 0.930 . S
C1920 C1919 1.400 . S
C1920 C1923 1.386 . S
H1921 C1937 0.930 . S
H1922 C1938 0.931 . S
C1923 H1911 0.929 . S
C1923 C1917 1.390 . S
C1923 C1920 1.386 . S
C1924 C1919 1.490 . S
C1924 C1926 1.395 . S
C1924 C1927 1.403 . S
H1925 C1931 0.930 . S
C1926 H1912 0.930 . S
C1926 C1924 1.395 . S
C1926 C1929 1.403 . S
C1927 C1924 1.403 . S
C1927 C1928 1.524 . S
C1927 C1931 1.400 . S
C1928 H1913 0.960 . S
C1928 H1914 0.960 . S
C1928 H1915 0.960 . S
C1928 C1927 1.524 . S
C1929 C1926 1.403 . S
C1929 C1930 1.392 . S
C1929 C1933 1.495 . S
C1930 C1929 1.392 . S
C1930 C1931 1.385 . S
C1930 C1932 1.478 . S
C1931 H1925 0.930 . S
C1931 C1927 1.400 . S
C1931 C1930 1.385 . S
C1932 C1930 1.478 . S
C1932 C1934 1.381 . S
C1932 C1938 1.383 . S
C1933 C1929 1.495 . S
C1933 H1939 0.959 . S
C1933 H1940 0.961 . S
C1933 H1941 0.960 . S
C1934 C1932 1.381 . S
C1934 C1935 1.394 . S
C1934 H1942 0.930 . S
C1935 C1934 1.394 . S
C1935 C1936 1.383 . S
C1935 H1943 0.929 . S
C1936 C1935 1.383 . S
C1936 C1937 1.377 . S
C1937 H1921 0.930 . S
C1937 C1936 1.377 . S
C1937 C1938 1.379 . S
C1938 H1922 0.931 . S
C1938 C1932 1.383 . S
C1938 C1937 1.379 . S
H1939 C1933 0.959 . S
H1940 C1933 0.961 . S
H1941 C1933 0.960 . S
H1942 C1934 0.930 . S
H1943 C1935 0.929 . S
H1944 C1952 0.929 . S
H1945 C1954 0.930 . S
H1946 C1956 0.930 . S
H1947 C1959 0.929 . S
H1948 C1962 0.930 . S
H1949 C1964 0.960 . S
H1950 C1964 0.960 . S
H1951 C1964 0.960 . S
C1952 H1944 0.929 . S
C1952 C1953 1.377 . S
C1952 C1954 1.384 . S
C1953 C1952 1.377 . S
C1953 C1959 1.390 . S
C1954 H1945 0.930 . S
C1954 C1952 1.384 . S
C1954 C1955 1.372 . S
C1955 C1954 1.372 . S
C1955 C1956 1.400 . S
C1955 C1960 1.490 . S
C1956 H1946 0.930 . S
C1956 C1955 1.400 . S
C1956 C1959 1.386 . S
H1957 C1973 0.930 . S
H1958 C1974 0.931 . S
C1959 H1947 0.929 . S
C1959 C1953 1.390 . S
C1959 C1956 1.386 . S
C1960 C1955 1.490 . S
C1960 C1962 1.395 . S
C1960 C1963 1.403 . S
H1961 C1967 0.930 . S
C1962 H1948 0.930 . S
C1962 C1960 1.395 . S
C1962 C1965 1.403 1_545 S
C1963 C1960 1.403 . S
C1963 C1964 1.524 . S
C1963 C1967 1.400 1_545 S
C1964 H1949 0.960 . S
C1964 H1950 0.960 . S
C1964 H1951 0.960 . S
C1964 C1963 1.524 . S
C1965 C1962 1.403 1_565 S
C1965 C1966 1.392 . S
C1965 C1969 1.495 . S
C1966 C1965 1.392 . S
C1966 C1967 1.385 . S
C1966 C1968 1.478 . S
C1967 H1961 0.930 . S
C1967 C1963 1.400 1_565 S
C1967 C1966 1.385 . S
C1968 C1966 1.478 . S
C1968 C1970 1.381 . S
C1968 C1974 1.383 . S
C1969 C1965 1.495 . S
C1969 H1975 0.959 . S
C1969 H1976 0.961 . S
C1969 H1977 0.960 . S
C1970 C1968 1.381 . S
C1970 C1971 1.394 . S
C1970 H1978 0.930 . S
C1971 C1970 1.394 . S
C1971 C1972 1.383 . S
C1971 H1979 0.929 . S
C1972 C1971 1.383 . S
C1972 C1973 1.377 . S
C1973 H1957 0.930 . S
C1973 C1972 1.377 . S
C1973 C1974 1.379 . S
C1974 H1958 0.931 . S
C1974 C1968 1.383 . S
C1974 C1973 1.379 . S
H1975 C1969 0.959 . S
H1976 C1969 0.961 . S
H1977 C1969 0.960 . S
H1978 C1970 0.930 . S
H1979 C1971 0.929 . S
H1980 C1988 0.929 . S
H1981 C1990 0.930 . S
H1982 C1992 0.930 . S
H1983 C1995 0.929 . S
H1984 C1998 0.930 . S
H1985 C2000 1.034 . S
H1986 C2000 0.960 . S
H1987 C2000 0.960 . S
C1988 H1980 0.929 . S
C1988 C1989 1.377 . S
C1988 C1990 1.384 . S
C1989 C1988 1.377 . S
C1989 C1995 1.390 . S
C1990 H1981 0.930 . S
C1990 C1988 1.384 . S
C1990 C1991 1.372 . S
C1991 C1990 1.372 . S
C1991 C1992 1.400 . S
C1991 C1996 1.490 . S
C1992 H1982 0.930 . S
C1992 C1991 1.400 . S
C1992 C1995 1.386 . S
H1993 C2009 0.930 . S
H1994 C2010 0.931 . S
C1995 H1983 0.929 . S
C1995 C1989 1.390 . S
C1995 C1992 1.386 . S
C1996 C1991 1.490 . S
C1996 C1998 1.395 . S
C1996 C1999 1.403 . S
H1997 C2003 0.930 . S
C1998 H1984 0.930 . S
C1998 C1996 1.395 . S
C1998 C2001 1.403 1_655 S
C1999 C1996 1.403 . S
C1999 C2000 1.524 . S
C1999 C2003 1.400 1_655 S
C2000 H1985 1.034 . S
C2000 H1986 0.960 . S
C2000 H1987 0.960 . S
C2000 C1999 1.524 . S
C2001 C1998 1.403 1_455 S
C2001 C2002 1.392 . S
C2001 C2005 1.495 . S
C2002 C2001 1.392 . S
C2002 C2003 1.385 . S
C2002 C2004 1.478 . S
C2003 H1997 0.930 . S
C2003 C1999 1.400 1_455 S
C2003 C2002 1.385 . S
C2004 C2002 1.478 . S
C2004 C2006 1.381 . S
C2004 C2010 1.383 . S
C2005 C2001 1.495 . S
C2005 H2011 0.959 . S
C2005 H2012 0.961 . S
C2005 H2013 0.960 . S
C2006 C2004 1.381 . S
C2006 C2007 1.394 . S
C2006 H2014 0.930 . S
C2007 C2006 1.394 . S
C2007 C2008 1.383 . S
C2007 H2015 0.929 . S
C2008 C2007 1.383 . S
C2008 C2009 1.377 . S
C2009 H1993 0.930 . S
C2009 C2008 1.377 . S
C2009 C2010 1.379 . S
C2010 H1994 0.931 . S
C2010 C2004 1.383 . S
C2010 C2009 1.379 . S
H2011 C2005 0.959 . S
H2012 C2005 0.961 . S
H2013 C2005 0.960 . S
H2014 C2006 0.930 . S
H2015 C2007 0.929 . S
H2016 C2024 0.929 . S
H2017 C2026 0.930 . S
H2018 C2028 0.930 . S
H2019 C2031 0.929 . S
H2020 C2034 0.930 . S
H2021 C2036 0.960 . S
H2022 C2036 0.960 . S
H2023 C2036 0.960 . S
C2024 H2016 0.929 . S
C2024 C2025 1.377 . S
C2024 C2026 1.384 . S
C2025 C2024 1.377 . S
C2025 C2031 1.390 . S
C2026 H2017 0.930 . S
C2026 C2024 1.384 . S
C2026 C2027 1.372 . S
C2027 C2026 1.372 . S
C2027 C2028 1.400 . S
C2027 C2032 1.490 . S
C2028 H2018 0.930 . S
C2028 C2027 1.400 . S
C2028 C2031 1.386 . S
H2029 C2045 0.930 . S
H2030 C2046 0.931 . S
C2031 H2019 0.929 . S
C2031 C2025 1.390 . S
C2031 C2028 1.386 . S
C2032 C2027 1.490 . S
C2032 C2034 1.395 . S
C2032 C2035 1.403 . S
H2033 C2039 0.930 . S
C2034 H2020 0.930 . S
C2034 C2032 1.395 . S
C2034 C2037 1.403 . S
C2035 C2032 1.403 . S
C2035 C2036 1.524 . S
C2035 C2039 1.400 . S
C2036 H2021 0.960 . S
C2036 H2022 0.960 . S
C2036 H2023 0.960 . S
C2036 C2035 1.524 . S
C2037 C2034 1.403 . S
C2037 C2038 1.392 . S
C2037 C2041 1.495 . S
C2038 C2037 1.392 . S
C2038 C2039 1.385 . S
C2038 C2040 1.478 . S
C2039 H2033 0.930 . S
C2039 C2035 1.400 . S
C2039 C2038 1.385 . S
C2040 C2038 1.478 . S
C2040 C2042 1.381 . S
C2040 C2046 1.383 . S
C2041 C2037 1.495 . S
C2041 H2047 0.959 . S
C2041 H2048 0.961 . S
C2041 H2049 0.960 . S
C2042 C2040 1.381 . S
C2042 C2043 1.394 . S
C2042 H2050 0.930 . S
C2043 C2042 1.394 . S
C2043 C2044 1.383 . S
C2043 H2051 0.929 . S
C2044 C2043 1.383 . S
C2044 C2045 1.377 . S
C2045 H2029 0.930 . S
C2045 C2044 1.377 . S
C2045 C2046 1.379 . S
C2046 H2030 0.931 . S
C2046 C2040 1.383 . S
C2046 C2045 1.379 . S
H2047 C2041 0.959 . S
H2048 C2041 0.961 . S
H2049 C2041 0.960 . S
H2050 C2042 0.930 . S
H2051 C2043 0.929 . S
H2052 C2060 0.929 . S
H2053 C2062 0.930 . S
H2054 C2064 0.930 . S
H2055 C2067 0.929 . S
H2056 C2070 0.930 . S
H2057 C2072 0.960 . S
H2058 C2072 0.960 . S
H2059 C2072 0.960 . S
C2060 H2052 0.929 . S
C2060 C2061 1.377 . S
C2060 C2062 1.384 . S
C2061 C2060 1.377 . S
C2061 C2067 1.390 . S
C2062 H2053 0.930 . S
C2062 C2060 1.384 . S
C2062 C2063 1.372 . S
C2063 C2062 1.372 . S
C2063 C2064 1.400 . S
C2063 C2068 1.490 . S
C2064 H2054 0.930 . S
C2064 C2063 1.400 . S
C2064 C2067 1.386 . S
H2065 C2081 0.930 . S
H2066 C2082 0.931 . S
C2067 H2055 0.929 . S
C2067 C2061 1.390 . S
C2067 C2064 1.386 . S
C2068 C2063 1.490 . S
C2068 C2070 1.395 . S
C2068 C2071 1.403 . S
H2069 C2075 0.930 . S
C2070 H2056 0.930 . S
C2070 C2068 1.395 . S
C2070 C2073 1.403 . S
C2071 C2068 1.403 . S
C2071 C2072 1.524 . S
C2071 C2075 1.400 . S
C2072 H2057 0.960 . S
C2072 H2058 0.960 . S
C2072 H2059 0.960 . S
C2072 C2071 1.524 . S
C2073 C2070 1.403 . S
C2073 C2074 1.392 . S
C2073 C2077 1.495 . S
C2074 C2073 1.392 . S
C2074 C2075 1.385 . S
C2074 C2076 1.478 . S
C2075 H2069 0.930 . S
C2075 C2071 1.400 . S
C2075 C2074 1.385 . S
C2076 C2074 1.478 . S
C2076 C2078 1.381 . S
C2076 C2082 1.383 . S
C2077 C2073 1.495 . S
C2077 H2083 0.959 . S
C2077 H2084 0.961 . S
C2077 H2085 0.960 . S
C2078 C2076 1.381 . S
C2078 C2079 1.394 . S
C2078 H2086 0.930 . S
C2079 C2078 1.394 . S
C2079 C2080 1.383 . S
C2079 H2087 0.929 . S
C2080 C2079 1.383 . S
C2080 C2081 1.377 . S
C2081 H2065 0.930 . S
C2081 C2080 1.377 . S
C2081 C2082 1.379 . S
C2082 H2066 0.931 . S
C2082 C2076 1.383 . S
C2082 C2081 1.379 . S
H2083 C2077 0.959 . S
H2084 C2077 0.961 . S
H2085 C2077 0.960 . S
H2086 C2078 0.930 . S
H2087 C2079 0.929 . S
H2088 C2096 0.929 . S
H2089 C2098 0.930 . S
H2090 C2100 0.930 . S
H2091 C2103 0.929 . S
H2092 C2106 0.930 . S
H2093 C2108 0.960 . S
H2094 C2108 0.960 . S
H2095 C2108 0.960 . S
C2096 H2088 0.929 . S
C2096 C2097 1.377 . S
C2096 C2098 1.384 . S
C2097 C2096 1.377 . S
C2097 C2103 1.390 . S
C2098 H2089 0.930 . S
C2098 C2096 1.384 . S
C2098 C2099 1.372 . S
C2099 C2098 1.372 . S
C2099 C2100 1.400 . S
C2099 C2104 1.490 . S
C2100 H2090 0.930 . S
C2100 C2099 1.400 . S
C2100 C2103 1.386 . S
H2101 C2117 0.930 . S
H2102 C2118 0.931 . S
C2103 H2091 0.929 . S
C2103 C2097 1.390 . S
C2103 C2100 1.386 . S
C2104 C2099 1.490 . S
C2104 C2106 1.395 . S
C2104 C2107 1.403 . S
H2105 C2111 0.930 . S
C2106 H2092 0.930 . S
C2106 C2104 1.395 . S
C2106 C2109 1.403 . S
C2107 C2104 1.403 . S
C2107 C2108 1.524 . S
C2107 C2111 1.400 . S
C2108 H2093 0.960 . S
C2108 H2094 0.960 . S
C2108 H2095 0.960 . S
C2108 C2107 1.524 . S
C2109 C2106 1.403 . S
C2109 C2110 1.392 . S
C2109 C2113 1.495 . S
C2110 C2109 1.392 . S
C2110 C2111 1.385 . S
C2110 C2112 1.478 . S
C2111 H2105 0.930 . S
C2111 C2107 1.400 . S
C2111 C2110 1.385 . S
C2112 C2110 1.478 . S
C2112 C2114 1.381 . S
C2112 C2118 1.383 . S
C2113 C2109 1.495 . S
C2113 H2119 0.959 . S
C2113 H2120 0.961 . S
C2113 H2121 0.960 . S
C2114 C2112 1.381 . S
C2114 C2115 1.394 . S
C2114 H2122 0.930 . S
C2115 C2114 1.394 . S
C2115 C2116 1.383 . S
C2115 H2123 0.929 . S
C2116 C2115 1.383 . S
C2116 C2117 1.377 . S
C2117 H2101 0.930 . S
C2117 C2116 1.377 . S
C2117 C2118 1.379 . S
C2118 H2102 0.931 . S
C2118 C2112 1.383 . S
C2118 C2117 1.379 . S
H2119 C2113 0.959 . S
H2120 C2113 0.961 . S
H2121 C2113 0.960 . S
H2122 C2114 0.930 . S
H2123 C2115 0.929 . S
H2124 C2132 0.929 . S
H2125 C2134 0.930 . S
H2126 C2136 0.930 . S
H2127 C2139 0.929 . S
H2128 C2142 0.930 . S
H2129 C2144 0.960 . S
H2130 C2144 0.960 . S
H2131 C2144 0.960 . S
C2132 H2124 0.929 . S
C2132 C2133 1.377 . S
C2132 C2134 1.384 . S
C2133 C2132 1.377 . S
C2133 C2139 1.390 . S
C2134 H2125 0.930 . S
C2134 C2132 1.384 . S
C2134 C2135 1.372 . S
C2135 C2134 1.372 . S
C2135 C2136 1.400 . S
C2135 C2140 1.490 . S
C2136 H2126 0.930 . S
C2136 C2135 1.400 . S
C2136 C2139 1.386 . S
H2137 C2153 0.930 . S
H2138 C2154 0.931 . S
C2139 H2127 0.929 . S
C2139 C2133 1.390 . S
C2139 C2136 1.386 . S
C2140 C2135 1.490 . S
C2140 C2142 1.395 . S
C2140 C2143 1.403 . S
H2141 C2147 0.930 . S
C2142 H2128 0.930 . S
C2142 C2140 1.395 . S
C2142 C2145 1.403 . S
C2143 C2140 1.403 . S
C2143 C2144 1.524 . S
C2143 C2147 1.400 . S
C2144 H2129 0.960 . S
C2144 H2130 0.960 . S
C2144 H2131 0.960 . S
C2144 C2143 1.524 . S
C2145 C2142 1.403 . S
C2145 C2146 1.392 . S
C2145 C2149 1.495 . S
C2146 C2145 1.392 . S
C2146 C2147 1.385 . S
C2146 C2148 1.478 . S
C2147 H2141 0.930 . S
C2147 C2143 1.400 . S
C2147 C2146 1.385 . S
C2148 C2146 1.478 . S
C2148 C2150 1.381 . S
C2148 C2154 1.383 . S
C2149 C2145 1.495 . S
C2149 H2155 0.959 . S
C2149 H2156 0.961 . S
C2149 H2157 0.960 . S
C2150 C2148 1.381 . S
C2150 C2151 1.394 . S
C2150 H2158 0.930 . S
C2151 C2150 1.394 . S
C2151 C2152 1.383 . S
C2151 H2159 0.929 . S
C2152 C2151 1.383 . S
C2152 C2153 1.377 . S
C2153 H2137 0.930 . S
C2153 C2152 1.377 . S
C2153 C2154 1.379 . S
C2154 H2138 0.931 . S
C2154 C2148 1.383 . S
C2154 C2153 1.379 . S
H2155 C2149 0.959 . S
H2156 C2149 0.961 . S
H2157 C2149 0.960 . S
H2158 C2150 0.930 . S
H2159 C2151 0.929 . S
H2160 C2168 0.929 . S
H2161 C2170 0.930 . S
H2162 C2172 0.930 . S
H2163 C2175 0.929 . S
H2164 C2178 0.930 . S
H2165 C2180 0.960 . S
H2166 C2180 0.960 1_556 S
H2167 C2180 0.960 . S
C2168 H2160 0.929 . S
C2168 C2169 1.377 . S
C2168 C2170 1.384 . S
C2169 C2168 1.377 . S
C2169 C2175 1.390 . S
C2170 H2161 0.930 . S
C2170 C2168 1.384 . S
C2170 C2171 1.372 . S
C2171 C2170 1.372 . S
C2171 C2172 1.400 . S
C2171 C2176 1.490 . S
C2172 H2162 0.930 . S
C2172 C2171 1.400 . S
C2172 C2175 1.386 . S
H2173 C2189 0.930 . S
H2174 C2190 0.931 . S
C2175 H2163 0.929 . S
C2175 C2169 1.390 . S
C2175 C2172 1.386 . S
C2176 C2171 1.490 . S
C2176 C2178 1.395 . S
C2176 C2179 1.403 . S
H2177 C2183 0.930 . S
C2178 H2164 0.930 . S
C2178 C2176 1.395 . S
C2178 C2181 1.403 . S
C2179 C2176 1.403 . S
C2179 C2180 1.524 . S
C2179 C2183 1.400 . S
C2180 H2165 0.960 . S
C2180 H2166 0.960 1_554 S
C2180 H2167 0.960 . S
C2180 C2179 1.524 . S
C2181 C2178 1.403 . S
C2181 C2182 1.392 . S
C2181 C2185 1.495 . S
C2182 C2181 1.392 . S
C2182 C2183 1.385 . S
C2182 C2184 1.478 . S
C2183 H2177 0.930 . S
C2183 C2179 1.400 . S
C2183 C2182 1.385 . S
C2184 C2182 1.478 . S
C2184 C2186 1.381 . S
C2184 C2190 1.383 . S
C2185 C2181 1.495 . S
C2185 H2191 0.959 . S
C2185 H2192 0.961 . S
C2185 H2193 0.960 . S
C2186 C2184 1.381 . S
C2186 C2187 1.394 . S
C2186 H2194 0.930 . S
C2187 C2186 1.394 . S
C2187 C2188 1.383 . S
C2187 H2195 0.929 . S
C2188 C2187 1.383 . S
C2188 C2189 1.377 . S
C2189 H2173 0.930 . S
C2189 C2188 1.377 . S
C2189 C2190 1.379 . S
C2190 H2174 0.931 . S
C2190 C2184 1.383 . S
C2190 C2189 1.379 . S
H2191 C2185 0.959 . S
H2192 C2185 0.961 . S
H2193 C2185 0.960 . S
H2194 C2186 0.930 . S
H2195 C2187 0.929 . S
H2196 C2204 0.929 . S
H2197 C2206 0.930 . S
H2198 C2208 0.930 . S
H2199 C2211 0.929 . S
H2200 C2214 0.930 . S
H2201 C2216 0.960 . S
H2202 C2216 0.960 . S
H2203 C2216 0.960 . S
C2204 H2196 0.929 . S
C2204 C2205 1.377 . S
C2204 C2206 1.384 . S
C2205 C2204 1.377 . S
C2205 C2211 1.390 . S
C2206 H2197 0.930 . S
C2206 C2204 1.384 . S
C2206 C2207 1.372 . S
C2207 C2206 1.372 . S
C2207 C2208 1.400 . S
C2207 C2212 1.490 . S
C2208 H2198 0.930 . S
C2208 C2207 1.400 . S
C2208 C2211 1.386 . S
H2209 C2225 0.930 1_556 S
H2210 C2226 0.931 . S
C2211 H2199 0.929 . S
C2211 C2205 1.390 . S
C2211 C2208 1.386 . S
C2212 C2207 1.490 . S
C2212 C2214 1.395 . S
C2212 C2215 1.403 . S
H2213 C2219 0.930 . S
C2214 H2200 0.930 . S
C2214 C2212 1.395 . S
C2214 C2217 1.403 . S
C2215 C2212 1.403 . S
C2215 C2216 1.524 . S
C2215 C2219 1.400 . S
C2216 H2201 0.960 . S
C2216 H2202 0.960 . S
C2216 H2203 0.960 . S
C2216 C2215 1.524 . S
C2217 C2214 1.403 . S
C2217 C2218 1.392 . S
C2217 C2221 1.495 . S
C2218 C2217 1.392 . S
C2218 C2219 1.385 . S
C2218 C2220 1.478 . S
C2219 H2213 0.930 . S
C2219 C2215 1.400 . S
C2219 C2218 1.385 . S
C2220 C2218 1.478 . S
C2220 C2222 1.381 . S
C2220 C2226 1.383 . S
C2221 C2217 1.495 . S
C2221 H2227 0.959 . S
C2221 H2228 0.961 . S
C2221 H2229 0.960 . S
C2222 C2220 1.381 . S
C2222 C2223 1.394 . S
C2222 H2230 0.930 . S
C2223 C2222 1.394 . S
C2223 C2224 1.383 . S
C2223 H2231 0.929 . S
C2224 C2223 1.383 . S
C2224 C2225 1.377 . S
C2225 H2209 0.930 1_554 S
C2225 C2224 1.377 . S
C2225 C2226 1.379 . S
C2226 H2210 0.931 . S
C2226 C2220 1.383 . S
C2226 C2225 1.379 . S
H2227 C2221 0.959 . S
H2228 C2221 0.961 . S
H2229 C2221 0.960 . S
H2230 C2222 0.930 . S
H2231 C2223 0.929 . S
H2232 C2240 0.929 . S
H2233 C2242 0.930 . S
H2234 C2244 0.930 . S
H2235 C2247 0.929 1_554 S
H2236 C2250 0.930 . S
H2237 C2252 0.960 . S
H2238 C2252 0.960 . S
H2239 C2252 0.960 . S
C2240 H2232 0.929 . S
C2240 C2241 1.377 . S
C2240 C2242 1.384 . S
C2241 C2240 1.377 . S
C2241 C2247 1.390 . S
C2242 H2233 0.930 . S
C2242 C2240 1.384 . S
C2242 C2243 1.372 . S
C2243 C2242 1.372 . S
C2243 C2244 1.400 . S
C2243 C2248 1.490 . S
C2244 H2234 0.930 . S
C2244 C2243 1.400 . S
C2244 C2247 1.386 . S
H2245 C2261 0.930 . S
H2246 C2262 0.931 . S
C2247 H2235 0.929 1_556 S
C2247 C2241 1.390 . S
C2247 C2244 1.386 . S
C2248 C2243 1.490 . S
C2248 C2250 1.395 . S
C2248 C2251 1.403 . S
H2249 C2255 0.930 . S
C2250 H2236 0.930 . S
C2250 C2248 1.395 . S
C2250 C2253 1.403 . S
C2251 C2248 1.403 . S
C2251 C2252 1.524 . S
C2251 C2255 1.400 . S
C2252 H2237 0.960 . S
C2252 H2238 0.960 . S
C2252 H2239 0.960 . S
C2252 C2251 1.524 . S
C2253 C2250 1.403 . S
C2253 C2254 1.392 . S
C2253 C2257 1.495 . S
C2254 C2253 1.392 . S
C2254 C2255 1.385 . S
C2254 C2256 1.478 . S
C2255 H2249 0.930 . S
C2255 C2251 1.400 . S
C2255 C2254 1.385 . S
C2256 C2254 1.478 . S
C2256 C2258 1.381 . S
C2256 C2262 1.383 . S
C2257 C2253 1.495 . S
C2257 H2263 0.959 . S
C2257 H2264 0.961 . S
C2257 H2265 0.960 . S
C2258 C2256 1.381 . S
C2258 C2259 1.394 . S
C2258 H2266 0.930 . S
C2259 C2258 1.394 . S
C2259 C2260 1.383 . S
C2259 H2267 0.929 . S
C2260 C2259 1.383 . S
C2260 C2261 1.377 . S
C2261 H2245 0.930 . S
C2261 C2260 1.377 . S
C2261 C2262 1.379 . S
C2262 H2246 0.931 . S
C2262 C2256 1.383 . S
C2262 C2261 1.379 . S
H2263 C2257 0.959 . S
H2264 C2257 0.961 . S
H2265 C2257 0.960 . S
H2266 C2258 0.930 . S
H2267 C2259 0.929 . S
H2268 C2276 0.929 . S
H2269 C2278 0.930 . S
H2270 C2280 0.930 . S
H2271 C2283 0.929 . S
H2272 C2286 0.930 . S
H2273 C2288 0.960 . S
H2274 C2288 0.960 . S
H2275 C2288 0.960 . S
C2276 H2268 0.929 . S
C2276 C2277 1.377 . S
C2276 C2278 1.384 . S
C2277 C2276 1.377 . S
C2277 C2283 1.390 . S
C2278 H2269 0.930 . S
C2278 C2276 1.384 . S
C2278 C2279 1.372 . S
C2279 C2278 1.372 . S
C2279 C2280 1.400 . S
C2279 C2284 1.490 . S
C2280 H2270 0.930 . S
C2280 C2279 1.400 . S
C2280 C2283 1.386 . S
H2281 C2297 0.930 . S
H2282 C2298 0.931 . S
C2283 H2271 0.929 . S
C2283 C2277 1.390 . S
C2283 C2280 1.386 . S
C2284 C2279 1.490 . S
C2284 C2286 1.395 . S
C2284 C2287 1.403 . S
H2285 C2291 0.930 . S
C2286 H2272 0.930 . S
C2286 C2284 1.395 . S
C2286 C2289 1.403 . S
C2287 C2284 1.403 . S
C2287 C2288 1.524 . S
C2287 C2291 1.400 . S
C2288 H2273 0.960 . S
C2288 H2274 0.960 . S
C2288 H2275 0.960 . S
C2288 C2287 1.524 . S
C2289 C2286 1.403 . S
C2289 C2290 1.392 . S
C2289 C2293 1.495 . S
C2290 C2289 1.392 . S
C2290 C2291 1.385 . S
C2290 C2292 1.478 . S
C2291 H2285 0.930 . S
C2291 C2287 1.400 . S
C2291 C2290 1.385 . S
C2292 C2290 1.478 . S
C2292 C2294 1.381 . S
C2292 C2298 1.383 . S
C2293 C2289 1.495 . S
C2293 H2299 0.959 . S
C2293 H2300 0.961 . S
C2293 H2301 0.960 . S
C2294 C2292 1.381 . S
C2294 C2295 1.394 . S
C2294 H2302 0.930 . S
C2295 C2294 1.394 . S
C2295 C2296 1.383 . S
C2295 H2303 0.929 . S
C2296 C2295 1.383 . S
C2296 C2297 1.377 . S
C2297 H2281 0.930 . S
C2297 C2296 1.377 . S
C2297 C2298 1.379 . S
C2298 H2282 0.931 . S
C2298 C2292 1.383 . S
C2298 C2297 1.379 . S
H2299 C2293 0.959 . S
H2300 C2293 0.961 . S
H2301 C2293 0.960 . S
H2302 C2294 0.930 . S
H2303 C2295 0.929 . S
H2304 C2312 0.929 . S
H2305 C2314 0.930 . S
H2306 C2316 0.930 . S
H2307 C2319 0.929 . S
H2308 C2322 0.930 . S
H2309 C2324 0.960 . S
H2310 C2324 0.960 . S
H2311 C2324 0.960 . S
C2312 H2304 0.929 . S
C2312 C2313 1.377 . S
C2312 C2314 1.384 . S
C2313 C2312 1.377 . S
C2313 C2319 1.390 . S
C2314 H2305 0.930 . S
C2314 C2312 1.384 . S
C2314 C2315 1.372 . S
C2315 C2314 1.372 . S
C2315 C2316 1.400 . S
C2315 C2320 1.490 . S
C2316 H2306 0.930 . S
C2316 C2315 1.400 . S
C2316 C2319 1.386 . S
H2317 C2333 0.930 1_554 S
H2318 C2334 0.931 . S
C2319 H2307 0.929 . S
C2319 C2313 1.390 . S
C2319 C2316 1.386 . S
C2320 C2315 1.490 . S
C2320 C2322 1.395 . S
C2320 C2323 1.403 . S
H2321 C2327 0.930 . S
C2322 H2308 0.930 . S
C2322 C2320 1.395 . S
C2322 C2325 1.403 . S
C2323 C2320 1.403 . S
C2323 C2324 1.524 . S
C2323 C2327 1.400 . S
C2324 H2309 0.960 . S
C2324 H2310 0.960 . S
C2324 H2311 0.960 . S
C2324 C2323 1.524 . S
C2325 C2322 1.403 . S
C2325 C2326 1.392 . S
C2325 C2329 1.495 . S
C2326 C2325 1.392 . S
C2326 C2327 1.385 . S
C2326 C2328 1.478 . S
C2327 H2321 0.930 . S
C2327 C2323 1.400 . S
C2327 C2326 1.385 . S
C2328 C2326 1.478 . S
C2328 C2330 1.381 . S
C2328 C2334 1.383 . S
C2329 C2325 1.495 . S
C2329 H2335 0.959 . S
C2329 H2336 0.961 . S
C2329 H2337 0.960 . S
C2330 C2328 1.381 . S
C2330 C2331 1.394 . S
C2330 H2338 0.930 . S
C2331 C2330 1.394 . S
C2331 C2332 1.383 . S
C2331 H2339 0.929 . S
C2332 C2331 1.383 . S
C2332 C2333 1.377 . S
C2333 H2317 0.930 1_556 S
C2333 C2332 1.377 . S
C2333 C2334 1.379 . S
C2334 H2318 0.931 . S
C2334 C2328 1.383 . S
C2334 C2333 1.379 . S
H2335 C2329 0.959 . S
H2336 C2329 0.961 . S
H2337 C2329 0.960 . S
H2338 C2330 0.930 . S
H2339 C2331 0.929 . S
H2340 C2348 0.929 . S
H2341 C2350 0.930 . S
H2342 C2352 0.930 . S
H2343 C2355 0.929 . S
H2344 C2358 0.930 . S
H2345 C2360 0.960 . S
H2346 C2360 0.960 . S
H2347 C2360 0.960 . S
C2348 H2340 0.929 . S
C2348 C2349 1.377 . S
C2348 C2350 1.384 . S
C2349 C2348 1.377 . S
C2349 C2355 1.390 . S
C2350 H2341 0.930 . S
C2350 C2348 1.384 . S
C2350 C2351 1.372 . S
C2351 C2350 1.372 . S
C2351 C2352 1.400 . S
C2351 C2356 1.490 . S
C2352 H2342 0.930 . S
C2352 C2351 1.400 . S
C2352 C2355 1.386 . S
H2353 C2369 0.930 . S
H2354 C2370 0.931 . S
C2355 H2343 0.929 . S
C2355 C2349 1.390 . S
C2355 C2352 1.386 . S
C2356 C2351 1.490 . S
C2356 C2358 1.395 . S
C2356 C2359 1.403 . S
H2357 C2363 0.930 . S
C2358 H2344 0.930 . S
C2358 C2356 1.395 . S
C2358 C2361 1.403 . S
C2359 C2356 1.403 . S
C2359 C2360 1.524 . S
C2359 C2363 1.400 . S
C2360 H2345 0.960 . S
C2360 H2346 0.960 . S
C2360 H2347 0.960 . S
C2360 C2359 1.524 . S
C2361 C2358 1.403 . S
C2361 C2362 1.392 . S
C2361 C2365 1.495 . S
C2362 C2361 1.392 . S
C2362 C2363 1.385 . S
C2362 C2364 1.478 . S
C2363 H2357 0.930 . S
C2363 C2359 1.400 . S
C2363 C2362 1.385 . S
C2364 C2362 1.478 . S
C2364 C2366 1.381 . S
C2364 C2370 1.383 . S
C2365 C2361 1.495 . S
C2365 H2371 0.959 . S
C2365 H2372 0.961 . S
C2365 H2373 0.960 . S
C2366 C2364 1.381 . S
C2366 C2367 1.394 . S
C2366 H2374 0.930 . S
C2367 C2366 1.394 . S
C2367 C2368 1.383 . S
C2367 H2375 0.929 . S
C2368 C2367 1.383 . S
C2368 C2369 1.377 . S
C2369 H2353 0.930 . S
C2369 C2368 1.377 . S
C2369 C2370 1.379 . S
C2370 H2354 0.931 . S
C2370 C2364 1.383 . S
C2370 C2369 1.379 . S
H2371 C2365 0.959 . S
H2372 C2365 0.961 . S
H2373 C2365 0.960 . S
H2374 C2366 0.930 . S
H2375 C2367 0.929 . S
H2376 C2384 0.929 . S
H2377 C2386 0.930 . S
H2378 C2388 0.930 . S
H2379 C2391 0.929 . S
H2380 C2394 0.930 . S
H2381 C2396 0.960 . S
H2382 C2396 0.960 . S
H2383 C2396 0.960 . S
C2384 H2376 0.929 . S
C2384 C2385 1.377 . S
C2384 C2386 1.384 . S
C2385 C2384 1.377 . S
C2385 C2391 1.390 . S
C2386 H2377 0.930 . S
C2386 C2384 1.384 . S
C2386 C2387 1.372 . S
C2387 C2386 1.372 . S
C2387 C2388 1.400 . S
C2387 C2392 1.490 . S
C2388 H2378 0.930 . S
C2388 C2387 1.400 . S
C2388 C2391 1.386 . S
H2389 C2405 0.930 . S
H2390 C2406 0.931 . S
C2391 H2379 0.929 . S
C2391 C2385 1.390 . S
C2391 C2388 1.386 . S
C2392 C2387 1.490 . S
C2392 C2394 1.395 . S
C2392 C2395 1.403 . S
H2393 C2399 0.930 . S
C2394 H2380 0.930 . S
C2394 C2392 1.395 . S
C2394 C2397 1.403 . S
C2395 C2392 1.403 . S
C2395 C2396 1.524 . S
C2395 C2399 1.400 . S
C2396 H2381 0.960 . S
C2396 H2382 0.960 . S
C2396 H2383 0.960 . S
C2396 C2395 1.524 . S
C2397 C2394 1.403 . S
C2397 C2398 1.392 . S
C2397 C2401 1.495 . S
C2398 C2397 1.392 . S
C2398 C2399 1.385 . S
C2398 C2400 1.478 . S
C2399 H2393 0.930 . S
C2399 C2395 1.400 . S
C2399 C2398 1.385 . S
C2400 C2398 1.478 . S
C2400 C2402 1.381 . S
C2400 C2406 1.383 . S
C2401 C2397 1.495 . S
C2401 H2407 0.959 . S
C2401 H2408 0.961 . S
C2401 H2409 0.960 . S
C2402 C2400 1.381 . S
C2402 C2403 1.394 . S
C2402 H2410 0.930 . S
C2403 C2402 1.394 . S
C2403 C2404 1.383 . S
C2403 H2411 0.929 . S
C2404 C2403 1.383 . S
C2404 C2405 1.377 . S
C2405 H2389 0.930 . S
C2405 C2404 1.377 . S
C2405 C2406 1.379 . S
C2406 H2390 0.931 . S
C2406 C2400 1.383 . S
C2406 C2405 1.379 . S
H2407 C2401 0.959 . S
H2408 C2401 0.961 . S
H2409 C2401 0.960 . S
H2410 C2402 0.930 . S
H2411 C2403 0.929 . S
H2412 C2420 0.929 . S
H2413 C2422 0.930 . S
H2414 C2424 0.930 . S
H2415 C2427 0.929 . S
H2416 C2430 0.930 . S
H2417 C2432 0.960 . S
H2418 C2432 0.960 . S
H2419 C2432 0.960 . S
C2420 H2412 0.929 . S
C2420 C2421 1.377 . S
C2420 C2422 1.384 . S
C2421 C2420 1.377 . S
C2421 C2427 1.390 . S
C2422 H2413 0.930 . S
C2422 C2420 1.384 . S
C2422 C2423 1.372 . S
C2423 C2422 1.372 . S
C2423 C2424 1.400 . S
C2423 C2428 1.490 . S
C2424 H2414 0.930 . S
C2424 C2423 1.400 . S
C2424 C2427 1.386 . S
H2425 C2441 0.930 . S
H2426 C2442 0.931 . S
C2427 H2415 0.929 . S
C2427 C2421 1.390 . S
C2427 C2424 1.386 . S
C2428 C2423 1.490 . S
C2428 C2430 1.395 . S
C2428 C2431 1.403 . S
H2429 C2435 0.930 . S
C2430 H2416 0.930 . S
C2430 C2428 1.395 . S
C2430 C2433 1.403 . S
C2431 C2428 1.403 . S
C2431 C2432 1.524 . S
C2431 C2435 1.400 . S
C2432 H2417 0.960 . S
C2432 H2418 0.960 . S
C2432 H2419 0.960 . S
C2432 C2431 1.524 . S
C2433 C2430 1.403 . S
C2433 C2434 1.392 . S
C2433 C2437 1.495 . S
C2434 C2433 1.392 . S
C2434 C2435 1.385 . S
C2434 C2436 1.478 . S
C2435 H2429 0.930 . S
C2435 C2431 1.400 . S
C2435 C2434 1.385 . S
C2436 C2434 1.478 . S
C2436 C2438 1.381 . S
C2436 C2442 1.383 . S
C2437 C2433 1.495 . S
C2437 H2443 0.959 . S
C2437 H2444 0.961 . S
C2437 H2445 0.960 . S
C2438 C2436 1.381 . S
C2438 C2439 1.394 . S
C2438 H2446 0.930 . S
C2439 C2438 1.394 . S
C2439 C2440 1.383 . S
C2439 H2447 0.929 . S
C2440 C2439 1.383 . S
C2440 C2441 1.377 . S
C2441 H2425 0.930 . S
C2441 C2440 1.377 . S
C2441 C2442 1.379 . S
C2442 H2426 0.931 . S
C2442 C2436 1.383 . S
C2442 C2441 1.379 . S
H2443 C2437 0.959 . S
H2444 C2437 0.961 . S
H2445 C2437 0.960 . S
H2446 C2438 0.930 . S
H2447 C2439 0.929 . S
H2448 C2456 0.929 . S
H2449 C2458 0.930 . S
H2450 C2460 0.930 . S
H2451 C2463 0.929 . S
H2452 C2466 0.930 . S
H2453 C2468 0.960 . S
H2454 C2468 0.960 . S
H2455 C2468 0.960 . S
C2456 H2448 0.929 . S
C2456 C2457 1.377 . S
C2456 C2458 1.384 . S
C2457 C2456 1.377 . S
C2457 C2463 1.390 . S
C2458 H2449 0.930 . S
C2458 C2456 1.384 . S
C2458 C2459 1.372 . S
C2459 C2458 1.372 . S
C2459 C2460 1.400 . S
C2459 C2464 1.490 . S
C2460 H2450 0.930 . S
C2460 C2459 1.400 . S
C2460 C2463 1.386 . S
H2461 C2477 0.930 . S
H2462 C2478 0.931 . S
C2463 H2451 0.929 . S
C2463 C2457 1.390 . S
C2463 C2460 1.386 . S
C2464 C2459 1.490 . S
C2464 C2466 1.395 . S
C2464 C2467 1.403 . S
H2465 C2471 0.930 . S
C2466 H2452 0.930 . S
C2466 C2464 1.395 . S
C2466 C2469 1.403 . S
C2467 C2464 1.403 . S
C2467 C2468 1.524 . S
C2467 C2471 1.400 . S
C2468 H2453 0.960 . S
C2468 H2454 0.960 . S
C2468 H2455 0.960 . S
C2468 C2467 1.524 . S
C2469 C2466 1.403 . S
C2469 C2470 1.392 . S
C2469 C2473 1.495 . S
C2470 C2469 1.392 . S
C2470 C2471 1.385 . S
C2470 C2472 1.478 . S
C2471 H2465 0.930 . S
C2471 C2467 1.400 . S
C2471 C2470 1.385 . S
C2472 C2470 1.478 . S
C2472 C2474 1.381 . S
C2472 C2478 1.383 . S
C2473 C2469 1.495 . S
C2473 H2479 0.959 . S
C2473 H2480 0.961 . S
C2473 H2481 0.960 . S
C2474 C2472 1.381 . S
C2474 C2475 1.394 . S
C2474 H2482 0.930 . S
C2475 C2474 1.394 . S
C2475 C2476 1.383 . S
C2475 H2483 0.929 . S
C2476 C2475 1.383 . S
C2476 C2477 1.377 . S
C2477 H2461 0.930 . S
C2477 C2476 1.377 . S
C2477 C2478 1.379 . S
C2478 H2462 0.931 . S
C2478 C2472 1.383 . S
C2478 C2477 1.379 . S
H2479 C2473 0.959 . S
H2480 C2473 0.961 . S
H2481 C2473 0.960 . S
H2482 C2474 0.930 . S
H2483 C2475 0.929 . S
H2484 C2492 0.929 . S
H2485 C2494 0.930 . S
H2486 C2496 0.930 . S
H2487 C2499 0.929 . S
H2488 C2502 0.930 . S
H2489 C2504 0.960 . S
H2490 C2504 0.960 . S
H2491 C2504 0.960 . S
C2492 H2484 0.929 . S
C2492 C2493 1.377 . S
C2492 C2494 1.384 . S
C2493 C2492 1.377 . S
C2493 C2499 1.390 . S
C2494 H2485 0.930 . S
C2494 C2492 1.384 . S
C2494 C2495 1.372 . S
C2495 C2494 1.372 . S
C2495 C2496 1.400 . S
C2495 C2500 1.490 . S
C2496 H2486 0.930 . S
C2496 C2495 1.400 . S
C2496 C2499 1.386 . S
H2497 C2513 0.930 . S
H2498 C2514 0.931 . S
C2499 H2487 0.929 . S
C2499 C2493 1.390 . S
C2499 C2496 1.386 . S
C2500 C2495 1.490 . S
C2500 C2502 1.395 . S
C2500 C2503 1.403 . S
H2501 C2507 0.930 . S
C2502 H2488 0.930 . S
C2502 C2500 1.395 . S
C2502 C2505 1.403 . S
C2503 C2500 1.403 . S
C2503 C2504 1.524 . S
C2503 C2507 1.400 . S
C2504 H2489 0.960 . S
C2504 H2490 0.960 . S
C2504 H2491 0.960 . S
C2504 C2503 1.524 . S
C2505 C2502 1.403 . S
C2505 C2506 1.392 . S
C2505 C2509 1.495 . S
C2506 C2505 1.392 . S
C2506 C2507 1.385 . S
C2506 C2508 1.478 . S
C2507 H2501 0.930 . S
C2507 C2503 1.400 . S
C2507 C2506 1.385 . S
C2508 C2506 1.478 . S
C2508 C2510 1.381 . S
C2508 C2514 1.383 . S
C2509 C2505 1.495 . S
C2509 H2515 0.959 . S
C2509 H2516 0.961 . S
C2509 H2517 0.960 . S
C2510 C2508 1.381 . S
C2510 C2511 1.394 . S
C2510 H2518 0.930 . S
C2511 C2510 1.394 . S
C2511 C2512 1.383 . S
C2511 H2519 0.929 . S
C2512 C2511 1.383 . S
C2512 C2513 1.377 . S
C2513 H2497 0.930 . S
C2513 C2512 1.377 . S
C2513 C2514 1.379 . S
C2514 H2498 0.931 . S
C2514 C2508 1.383 . S
C2514 C2513 1.379 . S
H2515 C2509 0.959 . S
H2516 C2509 0.961 . S
H2517 C2509 0.960 . S
H2518 C2510 0.930 . S
H2519 C2511 0.929 . S
H2520 C2528 0.929 . S
H2521 C2530 0.930 . S
H2522 C2532 0.930 . S
H2523 C2535 0.929 . S
H2524 C2538 0.930 . S
H2525 C2540 0.960 . S
H2526 C2540 0.960 . S
H2527 C2540 0.960 . S
C2528 H2520 0.929 . S
C2528 C2529 1.377 . S
C2528 C2530 1.384 . S
C2529 C2528 1.377 . S
C2529 C2535 1.390 . S
C2530 H2521 0.930 . S
C2530 C2528 1.384 . S
C2530 C2531 1.372 . S
C2531 C2530 1.372 . S
C2531 C2532 1.400 . S
C2531 C2536 1.490 . S
C2532 H2522 0.930 . S
C2532 C2531 1.400 . S
C2532 C2535 1.386 . S
H2533 C2549 0.930 . S
H2534 C2550 0.931 . S
C2535 H2523 0.929 . S
C2535 C2529 1.390 . S
C2535 C2532 1.386 . S
C2536 C2531 1.490 . S
C2536 C2538 1.395 . S
C2536 C2539 1.403 . S
H2537 C2543 0.930 . S
C2538 H2524 0.930 . S
C2538 C2536 1.395 . S
C2538 C2541 1.403 . S
C2539 C2536 1.403 . S
C2539 C2540 1.524 . S
C2539 C2543 1.400 . S
C2540 H2525 0.960 . S
C2540 H2526 0.960 . S
C2540 H2527 0.960 . S
C2540 C2539 1.524 . S
C2541 C2538 1.403 . S
C2541 C2542 1.392 . S
C2541 C2545 1.495 . S
C2542 C2541 1.392 . S
C2542 C2543 1.385 . S
C2542 C2544 1.478 . S
C2543 H2537 0.930 . S
C2543 C2539 1.400 . S
C2543 C2542 1.385 . S
C2544 C2542 1.478 . S
C2544 C2546 1.381 . S
C2544 C2550 1.383 . S
C2545 C2541 1.495 . S
C2545 H2551 0.959 . S
C2545 H2552 0.961 . S
C2545 H2553 0.960 . S
C2546 C2544 1.381 . S
C2546 C2547 1.394 . S
C2546 H2554 0.930 . S
C2547 C2546 1.394 . S
C2547 C2548 1.383 . S
C2547 H2555 0.929 . S
C2548 C2547 1.383 . S
C2548 C2549 1.377 . S
C2549 H2533 0.930 . S
C2549 C2548 1.377 . S
C2549 C2550 1.379 . S
C2550 H2534 0.931 . S
C2550 C2544 1.383 . S
C2550 C2549 1.379 . S
H2551 C2545 0.959 . S
H2552 C2545 0.961 . S
H2553 C2545 0.960 . S
H2554 C2546 0.930 . S
H2555 C2547 0.929 . S
H2556 C2564 0.929 . S
H2557 C2566 0.930 . S
H2558 C2568 0.930 . S
H2559 C2571 0.929 . S
H2560 C2574 0.930 . S
H2561 C2576 0.960 . S
H2562 C2576 0.960 . S
H2563 C2576 0.960 . S
C2564 H2556 0.929 . S
C2564 C2565 1.377 . S
C2564 C2566 1.384 . S
C2565 C2564 1.377 . S
C2565 C2571 1.390 . S
C2566 H2557 0.930 . S
C2566 C2564 1.384 . S
C2566 C2567 1.372 . S
C2567 C2566 1.372 . S
C2567 C2568 1.400 . S
C2567 C2572 1.490 . S
C2568 H2558 0.930 . S
C2568 C2567 1.400 . S
C2568 C2571 1.386 . S
H2569 C2585 0.930 . S
H2570 C2586 0.931 . S
C2571 H2559 0.929 . S
C2571 C2565 1.390 . S
C2571 C2568 1.386 . S
C2572 C2567 1.490 . S
C2572 C2574 1.395 . S
C2572 C2575 1.403 . S
H2573 C2579 0.930 . S
C2574 H2560 0.930 . S
C2574 C2572 1.395 . S
C2574 C2577 1.403 . S
C2575 C2572 1.403 . S
C2575 C2576 1.524 . S
C2575 C2579 1.400 . S
C2576 H2561 0.960 . S
C2576 H2562 0.960 . S
C2576 H2563 0.960 . S
C2576 C2575 1.524 . S
C2577 C2574 1.403 . S
C2577 C2578 1.392 . S
C2577 C2581 1.495 . S
C2578 C2577 1.392 . S
C2578 C2579 1.385 . S
C2578 C2580 1.478 . S
C2579 H2573 0.930 . S
C2579 C2575 1.400 . S
C2579 C2578 1.385 . S
C2580 C2578 1.478 . S
C2580 C2582 1.381 . S
C2580 C2586 1.383 . S
C2581 C2577 1.495 . S
C2581 H2587 0.959 . S
C2581 H2588 0.961 . S
C2581 H2589 0.960 . S
C2582 C2580 1.381 . S
C2582 C2583 1.394 . S
C2582 H2590 0.930 . S
C2583 C2582 1.394 . S
C2583 C2584 1.383 . S
C2583 H2591 0.929 . S
C2584 C2583 1.383 . S
C2584 C2585 1.377 . S
C2585 H2569 0.930 . S
C2585 C2584 1.377 . S
C2585 C2586 1.379 . S
C2586 H2570 0.931 . S
C2586 C2580 1.383 . S
C2586 C2585 1.379 . S
H2587 C2581 0.959 . S
H2588 C2581 0.961 . S
H2589 C2581 0.960 . S
H2590 C2582 0.930 . S
H2591 C2583 0.929 . S
H2592 C2600 0.929 . S
H2593 C2602 0.930 . S
H2594 C2604 0.930 . S
H2595 C2607 0.929 . S
H2596 C2610 0.930 . S
H2597 C2612 0.960 . S
H2598 C2612 0.960 . S
H2599 C2612 0.960 . S
C2600 H2592 0.929 . S
C2600 C2601 1.377 . S
C2600 C2602 1.384 . S
C2601 C2600 1.377 . S
C2601 C2607 1.390 . S
C2602 H2593 0.930 . S
C2602 C2600 1.384 . S
C2602 C2603 1.372 . S
C2603 C2602 1.372 . S
C2603 C2604 1.400 . S
C2603 C2608 1.490 . S
C2604 H2594 0.930 . S
C2604 C2603 1.400 . S
C2604 C2607 1.386 . S
H2605 C2621 0.930 . S
H2606 C2622 0.931 . S
C2607 H2595 0.929 . S
C2607 C2601 1.390 . S
C2607 C2604 1.386 . S
C2608 C2603 1.490 . S
C2608 C2610 1.395 . S
C2608 C2611 1.403 . S
H2609 C2615 0.930 . S
C2610 H2596 0.930 . S
C2610 C2608 1.395 . S
C2610 C2613 1.403 . S
C2611 C2608 1.403 . S
C2611 C2612 1.524 . S
C2611 C2615 1.400 . S
C2612 H2597 0.960 . S
C2612 H2598 0.960 . S
C2612 H2599 0.960 . S
C2612 C2611 1.524 . S
C2613 C2610 1.403 . S
C2613 C2614 1.392 . S
C2613 C2617 1.495 . S
C2614 C2613 1.392 . S
C2614 C2615 1.385 . S
C2614 C2616 1.478 . S
C2615 H2609 0.930 . S
C2615 C2611 1.400 . S
C2615 C2614 1.385 . S
C2616 C2614 1.478 . S
C2616 C2618 1.381 . S
C2616 C2622 1.383 . S
C2617 C2613 1.495 . S
C2617 H2623 0.959 . S
C2617 H2624 0.961 . S
C2617 H2625 0.960 . S
C2618 C2616 1.381 . S
C2618 C2619 1.394 . S
C2618 H2626 0.930 . S
C2619 C2618 1.394 . S
C2619 C2620 1.383 . S
C2619 H2627 0.929 . S
C2620 C2619 1.383 . S
C2620 C2621 1.377 . S
C2621 H2605 0.930 . S
C2621 C2620 1.377 . S
C2621 C2622 1.379 . S
C2622 H2606 0.931 . S
C2622 C2616 1.383 . S
C2622 C2621 1.379 . S
H2623 C2617 0.959 . S
H2624 C2617 0.961 . S
H2625 C2617 0.960 . S
H2626 C2618 0.930 . S
H2627 C2619 0.929 . S
H2628 C2636 0.929 . S
H2629 C2638 0.930 . S
H2630 C2640 0.930 . S
H2631 C2643 0.929 . S
H2632 C2646 0.930 . S
H2633 C2648 0.960 . S
H2634 C2648 0.960 . S
H2635 C2648 0.960 . S
C2636 H2628 0.929 . S
C2636 C2637 1.377 . S
C2636 C2638 1.384 . S
C2637 C2636 1.377 . S
C2637 C2643 1.390 . S
C2638 H2629 0.930 . S
C2638 C2636 1.384 . S
C2638 C2639 1.372 . S
C2639 C2638 1.372 . S
C2639 C2640 1.400 . S
C2639 C2644 1.490 . S
C2640 H2630 0.930 . S
C2640 C2639 1.400 . S
C2640 C2643 1.386 . S
H2641 C2657 0.930 . S
H2642 C2658 0.931 . S
C2643 H2631 0.929 . S
C2643 C2637 1.390 . S
C2643 C2640 1.386 . S
C2644 C2639 1.490 . S
C2644 C2646 1.395 . S
C2644 C2647 1.403 . S
H2645 C2651 0.930 . S
C2646 H2632 0.930 . S
C2646 C2644 1.395 . S
C2646 C2649 1.403 . S
C2647 C2644 1.403 . S
C2647 C2648 1.524 . S
C2647 C2651 1.400 . S
C2648 H2633 0.960 . S
C2648 H2634 0.960 . S
C2648 H2635 0.960 . S
C2648 C2647 1.524 . S
C2649 C2646 1.403 . S
C2649 C2650 1.392 . S
C2649 C2653 1.495 . S
C2650 C2649 1.392 . S
C2650 C2651 1.385 . S
C2650 C2652 1.478 . S
C2651 H2645 0.930 . S
C2651 C2647 1.400 . S
C2651 C2650 1.385 . S
C2652 C2650 1.478 . S
C2652 C2654 1.381 . S
C2652 C2658 1.383 . S
C2653 C2649 1.495 . S
C2653 H2659 0.959 . S
C2653 H2660 0.961 . S
C2653 H2661 0.960 . S
C2654 C2652 1.381 . S
C2654 C2655 1.394 . S
C2654 H2662 0.930 . S
C2655 C2654 1.394 . S
C2655 C2656 1.383 . S
C2655 H2663 0.929 . S
C2656 C2655 1.383 . S
C2656 C2657 1.377 . S
C2657 H2641 0.930 . S
C2657 C2656 1.377 . S
C2657 C2658 1.379 . S
C2658 H2642 0.931 . S
C2658 C2652 1.383 . S
C2658 C2657 1.379 . S
H2659 C2653 0.959 . S
H2660 C2653 0.961 . S
H2661 C2653 0.960 . S
H2662 C2654 0.930 . S
H2663 C2655 0.929 . S
H2664 C2672 0.929 . S
H2665 C2674 0.930 . S
H2666 C2676 0.930 . S
H2667 C2679 0.929 . S
H2668 C2682 0.930 . S
H2669 C2684 0.960 . S
H2670 C2684 0.960 . S
H2671 C2684 0.960 . S
C2672 H2664 0.929 . S
C2672 C2673 1.377 . S
C2672 C2674 1.384 . S
C2673 C2672 1.377 . S
C2673 C2679 1.390 . S
C2674 H2665 0.930 . S
C2674 C2672 1.384 . S
C2674 C2675 1.372 . S
C2675 C2674 1.372 . S
C2675 C2676 1.400 . S
C2675 C2680 1.490 . S
C2676 H2666 0.930 . S
C2676 C2675 1.400 . S
C2676 C2679 1.386 . S
H2677 C2693 0.930 . S
H2678 C2694 0.931 . S
C2679 H2667 0.929 . S
C2679 C2673 1.390 . S
C2679 C2676 1.386 . S
C2680 C2675 1.490 . S
C2680 C2682 1.395 . S
C2680 C2683 1.403 . S
H2681 C2687 0.930 . S
C2682 H2668 0.930 . S
C2682 C2680 1.395 . S
C2682 C2685 1.403 . S
C2683 C2680 1.403 . S
C2683 C2684 1.524 . S
C2683 C2687 1.400 . S
C2684 H2669 0.960 . S
C2684 H2670 0.960 . S
C2684 H2671 0.960 . S
C2684 C2683 1.524 . S
C2685 C2682 1.403 . S
C2685 C2686 1.392 . S
C2685 C2689 1.495 . S
C2686 C2685 1.392 . S
C2686 C2687 1.385 . S
C2686 C2688 1.478 . S
C2687 H2681 0.930 . S
C2687 C2683 1.400 . S
C2687 C2686 1.385 . S
C2688 C2686 1.478 . S
C2688 C2690 1.381 . S
C2688 C2694 1.383 . S
C2689 C2685 1.495 . S
C2689 H2695 0.959 . S
C2689 H2696 0.961 . S
C2689 H2697 0.960 . S
C2690 C2688 1.381 . S
C2690 C2691 1.394 . S
C2690 H2698 0.930 . S
C2691 C2690 1.394 . S
C2691 C2692 1.383 . S
C2691 H2699 0.929 . S
C2692 C2691 1.383 . S
C2692 C2693 1.377 . S
C2693 H2677 0.930 . S
C2693 C2692 1.377 . S
C2693 C2694 1.379 . S
C2694 H2678 0.931 . S
C2694 C2688 1.383 . S
C2694 C2693 1.379 . S
H2695 C2689 0.959 . S
H2696 C2689 0.961 . S
H2697 C2689 0.960 . S
H2698 C2690 0.930 . S
H2699 C2691 0.929 . S
H2700 C2708 0.929 . S
H2701 C2710 0.930 . S
H2702 C2712 0.930 . S
H2703 C2715 0.929 . S
H2704 C2718 0.930 . S
H2705 C2720 0.960 . S
H2706 C2720 0.960 . S
H2707 C2720 0.960 . S
C2708 H2700 0.929 . S
C2708 C2709 1.377 . S
C2708 C2710 1.384 . S
C2709 C2708 1.377 . S
C2709 C2715 1.390 . S
C2710 H2701 0.930 . S
C2710 C2708 1.384 . S
C2710 C2711 1.372 . S
C2711 C2710 1.372 . S
C2711 C2712 1.400 . S
C2711 C2716 1.490 . S
C2712 H2702 0.930 . S
C2712 C2711 1.400 . S
C2712 C2715 1.386 . S
H2713 C2729 0.930 . S
H2714 C2730 0.931 . S
C2715 H2703 0.929 . S
C2715 C2709 1.390 . S
C2715 C2712 1.386 . S
C2716 C2711 1.490 . S
C2716 C2718 1.395 . S
C2716 C2719 1.403 . S
H2717 C2723 0.930 . S
C2718 H2704 0.930 . S
C2718 C2716 1.395 . S
C2718 C2721 1.403 . S
C2719 C2716 1.403 . S
C2719 C2720 1.524 . S
C2719 C2723 1.400 . S
C2720 H2705 0.960 . S
C2720 H2706 0.960 . S
C2720 H2707 0.960 . S
C2720 C2719 1.524 . S
C2721 C2718 1.403 . S
C2721 C2722 1.392 . S
C2721 C2725 1.495 . S
C2722 C2721 1.392 . S
C2722 C2723 1.385 . S
C2722 C2724 1.478 . S
C2723 H2717 0.930 . S
C2723 C2719 1.400 . S
C2723 C2722 1.385 . S
C2724 C2722 1.478 . S
C2724 C2726 1.381 . S
C2724 C2730 1.383 . S
C2725 C2721 1.495 . S
C2725 H2731 0.959 . S
C2725 H2732 0.961 . S
C2725 H2733 0.960 . S
C2726 C2724 1.381 . S
C2726 C2727 1.394 . S
C2726 H2734 0.930 . S
C2727 C2726 1.394 . S
C2727 C2728 1.383 . S
C2727 H2735 0.929 . S
C2728 C2727 1.383 . S
C2728 C2729 1.377 . S
C2729 H2713 0.930 . S
C2729 C2728 1.377 . S
C2729 C2730 1.379 . S
C2730 H2714 0.931 . S
C2730 C2724 1.383 . S
C2730 C2729 1.379 . S
H2731 C2725 0.959 . S
H2732 C2725 0.961 . S
H2733 C2725 0.960 . S
H2734 C2726 0.930 . S
H2735 C2727 0.929 . S
H2736 C2744 0.929 . S
H2737 C2746 0.930 . S
H2738 C2748 0.930 . S
H2739 C2751 0.929 . S
H2740 C2754 0.930 . S
H2741 C2756 0.960 . S
H2742 C2756 0.960 . S
H2743 C2756 0.960 . S
C2744 H2736 0.929 . S
C2744 C2745 1.377 . S
C2744 C2746 1.384 . S
C2745 C2744 1.377 . S
C2745 C2751 1.390 . S
C2746 H2737 0.930 . S
C2746 C2744 1.384 . S
C2746 C2747 1.372 . S
C2747 C2746 1.372 . S
C2747 C2748 1.400 . S
C2747 C2752 1.490 . S
C2748 H2738 0.930 . S
C2748 C2747 1.400 . S
C2748 C2751 1.386 . S
H2749 C2765 0.930 . S
H2750 C2766 0.931 . S
C2751 H2739 0.929 . S
C2751 C2745 1.390 . S
C2751 C2748 1.386 . S
C2752 C2747 1.490 . S
C2752 C2754 1.395 . S
C2752 C2755 1.403 . S
H2753 C2759 0.930 . S
C2754 H2740 0.930 . S
C2754 C2752 1.395 . S
C2754 C2757 1.403 . S
C2755 C2752 1.403 . S
C2755 C2756 1.524 . S
C2755 C2759 1.400 . S
C2756 H2741 0.960 . S
C2756 H2742 0.960 . S
C2756 H2743 0.960 . S
C2756 C2755 1.524 . S
C2757 C2754 1.403 . S
C2757 C2758 1.392 . S
C2757 C2761 1.495 . S
C2758 C2757 1.392 . S
C2758 C2759 1.385 . S
C2758 C2760 1.478 . S
C2759 H2753 0.930 . S
C2759 C2755 1.400 . S
C2759 C2758 1.385 . S
C2760 C2758 1.478 . S
C2760 C2762 1.381 . S
C2760 C2766 1.383 . S
C2761 C2757 1.495 . S
C2761 H2767 0.959 . S
C2761 H2768 0.961 . S
C2761 H2769 0.960 . S
C2762 C2760 1.381 . S
C2762 C2763 1.394 . S
C2762 H2770 0.930 . S
C2763 C2762 1.394 . S
C2763 C2764 1.383 . S
C2763 H2771 0.929 . S
C2764 C2763 1.383 . S
C2764 C2765 1.377 . S
C2765 H2749 0.930 . S
C2765 C2764 1.377 . S
C2765 C2766 1.379 . S
C2766 H2750 0.931 . S
C2766 C2760 1.383 . S
C2766 C2765 1.379 . S
H2767 C2761 0.959 . S
H2768 C2761 0.961 . S
H2769 C2761 0.960 . S
H2770 C2762 0.930 . S
H2771 C2763 0.929 . S
H2772 C2780 0.929 . S
H2773 C2782 0.930 . S
H2774 C2784 0.930 . S
H2775 C2787 0.929 . S
H2776 C2790 0.930 . S
H2777 C2792 0.960 . S
H2778 C2792 0.960 . S
H2779 C2792 0.960 . S
C2780 H2772 0.929 . S
C2780 C2781 1.377 . S
C2780 C2782 1.384 . S
C2781 C2780 1.377 . S
C2781 C2787 1.390 . S
C2782 H2773 0.930 . S
C2782 C2780 1.384 . S
C2782 C2783 1.372 . S
C2783 C2782 1.372 . S
C2783 C2784 1.400 . S
C2783 C2788 1.490 . S
C2784 H2774 0.930 . S
C2784 C2783 1.400 . S
C2784 C2787 1.386 . S
H2785 C2801 0.930 . S
H2786 C2802 0.931 . S
C2787 H2775 0.929 . S
C2787 C2781 1.390 . S
C2787 C2784 1.386 . S
C2788 C2783 1.490 . S
C2788 C2790 1.395 . S
C2788 C2791 1.403 . S
H2789 C2795 0.930 . S
C2790 H2776 0.930 . S
C2790 C2788 1.395 . S
C2790 C2793 1.403 . S
C2791 C2788 1.403 . S
C2791 C2792 1.524 . S
C2791 C2795 1.400 . S
C2792 H2777 0.960 . S
C2792 H2778 0.960 . S
C2792 H2779 0.960 . S
C2792 C2791 1.524 . S
C2793 C2790 1.403 . S
C2793 C2794 1.392 . S
C2793 C2797 1.495 . S
C2794 C2793 1.392 . S
C2794 C2795 1.385 . S
C2794 C2796 1.478 . S
C2795 H2789 0.930 . S
C2795 C2791 1.400 . S
C2795 C2794 1.385 . S
C2796 C2794 1.478 . S
C2796 C2798 1.381 . S
C2796 C2802 1.383 . S
C2797 C2793 1.495 . S
C2797 H2803 0.959 . S
C2797 H2804 0.961 . S
C2797 H2805 0.960 . S
C2798 C2796 1.381 . S
C2798 C2799 1.394 . S
C2798 H2806 0.930 . S
C2799 C2798 1.394 . S
C2799 C2800 1.383 . S
C2799 H2807 0.929 . S
C2800 C2799 1.383 . S
C2800 C2801 1.377 . S
C2801 H2785 0.930 . S
C2801 C2800 1.377 . S
C2801 C2802 1.379 . S
C2802 H2786 0.931 . S
C2802 C2796 1.383 . S
C2802 C2801 1.379 . S
H2803 C2797 0.959 . S
H2804 C2797 0.961 . S
H2805 C2797 0.960 . S
H2806 C2798 0.930 . S
H2807 C2799 0.929 . S
H2808 C2816 0.929 . S
H2809 C2818 0.930 . S
H2810 C2820 0.930 . S
H2811 C2823 0.929 . S
H2812 C2826 0.930 . S
H2813 C2828 0.960 . S
H2814 C2828 0.960 . S
H2815 C2828 0.960 . S
C2816 H2808 0.929 . S
C2816 C2817 1.377 . S
C2816 C2818 1.384 . S
C2817 C2816 1.377 . S
C2817 C2823 1.390 . S
C2818 H2809 0.930 . S
C2818 C2816 1.384 . S
C2818 C2819 1.372 . S
C2819 C2818 1.372 . S
C2819 C2820 1.400 . S
C2819 C2824 1.490 . S
C2820 H2810 0.930 . S
C2820 C2819 1.400 . S
C2820 C2823 1.386 . S
H2821 C2837 0.930 . S
H2822 C2838 0.931 . S
C2823 H2811 0.929 . S
C2823 C2817 1.390 . S
C2823 C2820 1.386 . S
C2824 C2819 1.490 . S
C2824 C2826 1.395 . S
C2824 C2827 1.403 . S
H2825 C2831 0.930 . S
C2826 H2812 0.930 . S
C2826 C2824 1.395 . S
C2826 C2829 1.403 . S
C2827 C2824 1.403 . S
C2827 C2828 1.524 . S
C2827 C2831 1.400 . S
C2828 H2813 0.960 . S
C2828 H2814 0.960 . S
C2828 H2815 0.960 . S
C2828 C2827 1.524 . S
C2829 C2826 1.403 . S
C2829 C2830 1.392 . S
C2829 C2833 1.495 . S
C2830 C2829 1.392 . S
C2830 C2831 1.385 . S
C2830 C2832 1.478 . S
C2831 H2825 0.930 . S
C2831 C2827 1.400 . S
C2831 C2830 1.385 . S
C2832 C2830 1.478 . S
C2832 C2834 1.381 . S
C2832 C2838 1.383 . S
C2833 C2829 1.495 . S
C2833 H2839 0.959 . S
C2833 H2840 0.961 . S
C2833 H2841 0.960 . S
C2834 C2832 1.381 . S
C2834 C2835 1.394 . S
C2834 H2842 0.930 . S
C2835 C2834 1.394 . S
C2835 C2836 1.383 . S
C2835 H2843 0.929 . S
C2836 C2835 1.383 . S
C2836 C2837 1.377 . S
C2837 H2821 0.930 . S
C2837 C2836 1.377 . S
C2837 C2838 1.379 . S
C2838 H2822 0.931 . S
C2838 C2832 1.383 . S
C2838 C2837 1.379 . S
H2839 C2833 0.959 . S
H2840 C2833 0.961 . S
H2841 C2833 0.960 . S
H2842 C2834 0.930 . S
H2843 C2835 0.929 . S
H2844 C2852 0.929 . S
H2845 C2854 0.930 . S
H2846 C2856 0.930 . S
H2847 C2859 0.929 . S
H2848 C2862 0.930 . S
H2849 C2864 0.960 . S
H2850 C2864 0.960 . S
H2851 C2864 0.960 . S
C2852 H2844 0.929 . S
C2852 C2853 1.377 . S
C2852 C2854 1.384 . S
C2853 C2852 1.377 . S
C2853 C2859 1.390 . S
C2854 H2845 0.930 . S
C2854 C2852 1.384 . S
C2854 C2855 1.372 . S
C2855 C2854 1.372 . S
C2855 C2856 1.400 . S
C2855 C2860 1.490 . S
C2856 H2846 0.930 . S
C2856 C2855 1.400 . S
C2856 C2859 1.386 . S
H2857 C2873 0.930 . S
H2858 C2874 0.931 . S
C2859 H2847 0.929 . S
C2859 C2853 1.390 . S
C2859 C2856 1.386 . S
C2860 C2855 1.490 . S
C2860 C2862 1.395 . S
C2860 C2863 1.403 . S
H2861 C2867 0.930 . S
C2862 H2848 0.930 . S
C2862 C2860 1.395 . S
C2862 C2865 1.403 . S
C2863 C2860 1.403 . S
C2863 C2864 1.524 . S
C2863 C2867 1.400 . S
C2864 H2849 0.960 . S
C2864 H2850 0.960 . S
C2864 H2851 0.960 . S
C2864 C2863 1.524 . S
C2865 C2862 1.403 . S
C2865 C2866 1.392 . S
C2865 C2869 1.495 . S
C2866 C2865 1.392 . S
C2866 C2867 1.385 . S
C2866 C2868 1.478 . S
C2867 H2861 0.930 . S
C2867 C2863 1.400 . S
C2867 C2866 1.385 . S
C2868 C2866 1.478 . S
C2868 C2870 1.381 . S
C2868 C2874 1.383 . S
C2869 C2865 1.495 . S
C2869 H2875 0.959 . S
C2869 H2876 0.961 . S
C2869 H2877 0.960 . S
C2870 C2868 1.381 . S
C2870 C2871 1.394 . S
C2870 H2878 0.930 . S
C2871 C2870 1.394 . S
C2871 C2872 1.383 . S
C2871 H2879 0.929 . S
C2872 C2871 1.383 . S
C2872 C2873 1.377 . S
C2873 H2857 0.930 . S
C2873 C2872 1.377 . S
C2873 C2874 1.379 . S
C2874 H2858 0.931 . S
C2874 C2868 1.383 . S
C2874 C2873 1.379 . S
H2875 C2869 0.959 . S
H2876 C2869 0.961 . S
H2877 C2869 0.960 . S
H2878 C2870 0.930 . S
H2879 C2871 0.929 . S
H2880 C2888 0.929 . S
H2881 C2890 0.930 . S
H2882 C2892 0.930 . S
H2883 C2895 0.929 . S
H2884 C2898 0.930 . S
H2885 C2900 1.011 . S
H2886 C2900 0.918 1_455 S
H2887 C2900 0.929 1_455 S
C2888 H2880 0.929 . S
C2888 C2889 1.377 . S
C2888 C2890 1.384 . S
C2889 C2888 1.377 . S
C2889 C2895 1.390 . S
C2890 H2881 0.930 . S
C2890 C2888 1.384 . S
C2890 C2891 1.372 . S
C2891 C2890 1.372 . S
C2891 C2892 1.400 . S
C2891 C2896 1.490 . S
C2892 H2882 0.930 . S
C2892 C2891 1.400 . S
C2892 C2895 1.386 . S
H2893 C2909 0.930 . S
H2894 C2910 0.931 . S
C2895 H2883 0.929 . S
C2895 C2889 1.390 . S
C2895 C2892 1.386 . S
C2896 C2891 1.490 . S
C2896 C2898 1.395 . S
C2896 C2899 1.419 . S
H2897 C2903 0.930 . S
C2898 H2884 0.930 . S
C2898 C2896 1.395 . S
C2898 C2901 1.470 . S
C2899 C2896 1.419 . S
C2899 C2900 1.563 1_455 S
C2899 C2903 1.372 1_455 S
C2900 H2885 1.011 . S
C2900 H2886 0.918 1_655 S
C2900 H2887 0.929 1_655 S
C2900 C2899 1.563 1_655 S
C2901 C2898 1.470 . S
C2901 C2902 1.356 1_455 S
C2901 C2905 1.470 . S
C2902 C2901 1.356 1_655 S
C2902 C2903 1.385 . S
C2902 C2904 1.478 . S
C2903 H2897 0.930 . S
C2903 C2899 1.372 1_655 S
C2903 C2902 1.385 . S
C2904 C2902 1.478 . S
C2904 C2906 1.381 . S
C2904 C2910 1.383 . S
C2905 C2901 1.470 . S
C2905 H2911 0.959 . S
C2905 H2912 0.961 1_455 S
C2905 H2913 0.960 1_455 S
C2906 C2904 1.381 . S
C2906 C2907 1.394 . S
C2906 H2914 0.930 . S
C2907 C2906 1.394 . S
C2907 C2908 1.383 . S
C2907 H2915 0.929 . S
C2908 C2907 1.383 . S
C2908 C2909 1.377 . S
C2909 H2893 0.930 . S
C2909 C2908 1.377 . S
C2909 C2910 1.379 . S
C2910 H2894 0.931 . S
C2910 C2904 1.383 . S
C2910 C2909 1.379 . S
H2911 C2905 0.959 . S
H2912 C2905 0.961 1_655 S
H2913 C2905 0.960 1_655 S
H2914 C2906 0.930 . S
H2915 C2907 0.929 . S
H2916 C2924 0.929 . S
H2917 C2926 0.930 . S
H2918 C2928 0.930 . S
H2919 C2931 0.929 . S
H2920 C2934 0.930 . S
H2921 C2936 0.960 . S
H2922 C2936 0.960 . S
H2923 C2936 0.960 . S
C2924 H2916 0.929 . S
C2924 C2925 1.377 . S
C2924 C2926 1.384 . S
C2925 C2924 1.377 . S
C2925 C2931 1.390 . S
C2926 H2917 0.930 . S
C2926 C2924 1.384 . S
C2926 C2927 1.372 . S
C2927 C2926 1.372 . S
C2927 C2928 1.400 . S
C2927 C2932 1.490 . S
C2928 H2918 0.930 . S
C2928 C2927 1.400 . S
C2928 C2931 1.386 . S
H2929 C2945 0.930 . S
H2930 C2946 0.931 . S
C2931 H2919 0.929 . S
C2931 C2925 1.390 . S
C2931 C2928 1.386 . S
C2932 C2927 1.490 . S
C2932 C2934 1.395 . S
C2932 C2935 1.403 . S
H2933 C2939 0.930 . S
C2934 H2920 0.930 . S
C2934 C2932 1.395 . S
C2934 C2937 1.403 . S
C2935 C2932 1.403 . S
C2935 C2936 1.524 . S
C2935 C2939 1.400 . S
C2936 H2921 0.960 . S
C2936 H2922 0.960 . S
C2936 H2923 0.960 . S
C2936 C2935 1.524 . S
C2937 C2934 1.403 . S
C2937 C2938 1.392 . S
C2937 C2941 1.495 . S
C2938 C2937 1.392 . S
C2938 C2939 1.385 . S
C2938 C2940 1.478 . S
C2939 H2933 0.930 . S
C2939 C2935 1.400 . S
C2939 C2938 1.385 . S
C2940 C2938 1.478 . S
C2940 C2942 1.381 . S
C2940 C2946 1.383 . S
C2941 C2937 1.495 . S
C2941 H2947 0.959 . S
C2941 H2948 0.961 . S
C2941 H2949 0.960 . S
C2942 C2940 1.381 . S
C2942 C2943 1.394 . S
C2942 H2950 0.930 . S
C2943 C2942 1.394 . S
C2943 C2944 1.383 . S
C2943 H2951 0.929 . S
C2944 C2943 1.383 . S
C2944 C2945 1.377 . S
C2945 H2929 0.930 . S
C2945 C2944 1.377 . S
C2945 C2946 1.379 . S
C2946 H2930 0.931 . S
C2946 C2940 1.383 . S
C2946 C2945 1.379 . S
H2947 C2941 0.959 . S
H2948 C2941 0.961 . S
H2949 C2941 0.960 . S
H2950 C2942 0.930 . S
H2951 C2943 0.929 . S
H2952 C2960 0.929 . S
H2953 C2962 0.930 . S
H2954 C2964 0.930 . S
H2955 C2967 0.929 . S
H2956 C2970 0.930 . S
H2957 C2972 0.960 1_565 S
H2958 C2972 0.960 . S
H2959 C2972 0.960 . S
C2960 H2952 0.929 . S
C2960 C2961 1.377 . S
C2960 C2962 1.384 . S
C2961 C2960 1.377 . S
C2961 C2967 1.390 . S
C2962 H2953 0.930 . S
C2962 C2960 1.384 . S
C2962 C2963 1.372 . S
C2963 C2962 1.372 . S
C2963 C2964 1.400 . S
C2963 C2968 1.490 . S
C2964 H2954 0.930 . S
C2964 C2963 1.400 . S
C2964 C2967 1.386 . S
H2965 C2981 0.930 . S
H2966 C2982 0.931 . S
C2967 H2955 0.929 . S
C2967 C2961 1.390 . S
C2967 C2964 1.386 . S
C2968 C2963 1.490 . S
C2968 C2970 1.395 . S
C2968 C2971 1.403 . S
H2969 C2975 0.930 . S
C2970 H2956 0.930 . S
C2970 C2968 1.395 . S
C2970 C2973 1.403 1_545 S
C2971 C2968 1.403 . S
C2971 C2972 1.524 . S
C2971 C2975 1.400 1_545 S
C2972 H2957 0.960 1_545 S
C2972 H2958 0.960 . S
C2972 H2959 0.960 . S
C2972 C2971 1.524 . S
C2973 C2970 1.403 1_565 S
C2973 C2974 1.392 . S
C2973 C2977 1.495 . S
C2974 C2973 1.392 . S
C2974 C2975 1.385 . S
C2974 C2976 1.478 . S
C2975 H2969 0.930 . S
C2975 C2971 1.400 1_565 S
C2975 C2974 1.385 . S
C2976 C2974 1.478 . S
C2976 C2978 1.381 . S
C2976 C2982 1.383 . S
C2977 C2973 1.495 . S
C2977 H2983 0.916 1_565 S
C2977 H2984 0.961 . S
C2977 H2985 0.960 . S
C2978 C2976 1.381 . S
C2978 C2979 1.394 . S
C2978 H2986 0.930 . S
C2979 C2978 1.394 . S
C2979 C2980 1.383 . S
C2979 H2987 0.929 . S
C2980 C2979 1.383 . S
C2980 C2981 1.377 . S
C2981 H2965 0.930 . S
C2981 C2980 1.377 . S
C2981 C2982 1.379 . S
C2982 H2966 0.931 . S
C2982 C2976 1.383 . S
C2982 C2981 1.379 . S
H2983 C2977 0.916 1_545 S
H2984 C2977 0.961 . S
H2985 C2977 0.960 . S
H2986 C2978 0.930 . S
H2987 C2979 0.929 . S
H2988 C2996 0.929 . S
H2989 C2998 0.930 . S
H2990 C3000 0.930 . S
H2991 C3003 0.929 . S
H2992 C3006 0.930 . S
H2993 C3008 1.002 . S
H2994 C3008 0.924 1_546 S
H2995 C3008 0.932 1_545 S
C2996 H2988 0.929 . S
C2996 C2997 1.377 1_556 S
C2996 C2998 1.384 . S
C2997 C2996 1.377 1_554 S
C2997 C3003 1.390 . S
C2998 H2989 0.930 . S
C2998 C2996 1.384 . S
C2998 C2999 1.372 1_556 S
C2999 C2998 1.372 1_554 S
C2999 C3000 1.400 . S
C2999 C3004 1.490 . S
C3000 H2990 0.930 . S
C3000 C2999 1.400 . S
C3000 C3003 1.386 . S
H3001 C3017 0.930 . S
H3002 C3018 0.931 . S
C3003 H2991 0.929 . S
C3003 C2997 1.390 . S
C3003 C3000 1.386 . S
C3004 C2999 1.490 . S
C3004 C3006 1.395 1_554 S
C3004 C3007 1.421 . S
H3005 C3011 0.930 . S
C3006 H2992 0.930 . S
C3006 C3004 1.395 1_556 S
C3006 C3009 1.498 . S
C3007 C3004 1.421 . S
C3007 C3008 1.567 1_545 S
C3007 C3011 1.365 1_544 S
C3008 H2993 1.002 . S
C3008 H2994 0.924 1_564 S
C3008 H2995 0.932 1_565 S
C3008 C3007 1.567 1_565 S
C3009 C3006 1.498 . S
C3009 C3010 1.347 1_545 S
C3009 C3013 1.455 . S
C3010 C3009 1.347 1_565 S
C3010 C3011 1.385 . S
C3010 C3012 1.478 . S
C3011 H3005 0.930 . S
C3011 C3007 1.365 1_566 S
C3011 C3010 1.385 . S
C3012 C3010 1.478 . S
C3012 C3014 1.381 . S
C3012 C3018 1.383 1_556 S
C3013 C3009 1.455 . S
C3013 H3019 0.959 . S
C3013 H3020 0.961 1_546 S
C3013 H3021 0.960 1_545 S
C3014 C3012 1.381 . S
C3014 C3015 1.394 . S
C3014 H3022 0.930 . S
C3015 C3014 1.394 . S
C3015 C3016 1.383 . S
C3015 H3023 0.929 . S
C3016 C3015 1.383 . S
C3016 C3017 1.377 1_556 S
C3017 H3001 0.930 . S
C3017 C3016 1.377 1_554 S
C3017 C3018 1.379 . S
C3018 H3002 0.931 . S
C3018 C3012 1.383 1_554 S
C3018 C3017 1.379 . S
H3019 C3013 0.959 . S
H3020 C3013 0.961 1_564 S
H3021 C3013 0.960 1_565 S
H3022 C3014 0.930 . S
H3023 C3015 0.929 . S
H3024 C3032 0.929 . S
H3025 C3034 0.930 . S
H3026 C3036 0.930 . S
H3027 C3039 0.929 . S
H3028 C3042 0.907 . S
H3029 C3044 0.960 . S
H3030 C3044 0.960 . S
H3031 C3044 0.960 . S
C3032 H3024 0.929 . S
C3032 C3033 1.377 . S
C3032 C3034 1.384 . S
C3033 C3032 1.377 . S
C3033 C3039 1.390 1_554 S
C3034 H3025 0.930 . S
C3034 C3032 1.384 . S
C3034 C3035 1.372 . S
C3035 C3034 1.372 . S
C3035 C3036 1.400 1_554 S
C3035 C3040 1.490 . S
C3036 H3026 0.930 . S
C3036 C3035 1.400 1_556 S
C3036 C3039 1.386 . S
H3037 C3053 0.930 . S
H3038 C3054 0.931 . S
C3039 H3027 0.929 . S
C3039 C3033 1.390 1_556 S
C3039 C3036 1.386 . S
C3040 C3035 1.490 . S
C3040 C3042 1.475 . S
C3040 C3043 1.403 1_554 S
H3041 C3047 0.930 . S
C3042 H3028 0.907 . S
C3042 C3040 1.475 . S
C3042 C3045 1.352 1_655 S
C3043 C3040 1.403 1_556 S
C3043 C3044 1.524 . S
C3043 C3047 1.400 1_655 S
C3044 H3029 0.960 . S
C3044 H3030 0.960 . S
C3044 H3031 0.960 . S
C3044 C3043 1.524 . S
C3045 C3042 1.352 1_455 S
C3045 C3046 1.390 1_554 S
C3045 C3049 1.495 . S
C3046 C3045 1.390 1_556 S
C3046 C3047 1.387 . S
C3046 C3048 1.478 . S
C3047 H3041 0.930 . S
C3047 C3043 1.400 1_455 S
C3047 C3046 1.387 . S
C3048 C3046 1.478 . S
C3048 C3050 1.381 1_556 S
C3048 C3054 1.383 . S
C3049 C3045 1.495 . S
C3049 H3055 0.959 . S
C3049 H3056 0.961 . S
C3049 H3057 0.960 . S
C3050 C3048 1.381 1_554 S
C3050 C3051 1.394 . S
C3050 H3058 0.930 . S
C3051 C3050 1.394 . S
C3051 C3052 1.383 1_554 S
C3051 H3059 0.929 . S
C3052 C3051 1.383 1_556 S
C3052 C3053 1.377 . S
C3053 H3037 0.930 . S
C3053 C3052 1.377 . S
C3053 C3054 1.379 . S
C3054 H3038 0.931 . S
C3054 C3048 1.383 . S
C3054 C3053 1.379 . S
H3055 C3049 0.959 . S
H3056 C3049 0.961 . S
H3057 C3049 0.960 . S
H3058 C3050 0.930 . S
H3059 C3051 0.929 . S
H3060 C3068 0.929 . S
H3061 C3070 0.930 . S
H3062 C3072 0.930 . S
H3063 C3075 0.929 . S
H3064 C3078 0.930 . S
H3065 C3080 0.960 . S
H3066 C3080 0.960 . S
H3067 C3080 0.960 . S
C3068 H3060 0.929 . S
C3068 C3069 1.377 . S
C3068 C3070 1.384 . S
C3069 C3068 1.377 . S
C3069 C3075 1.390 . S
C3070 H3061 0.930 . S
C3070 C3068 1.384 . S
C3070 C3071 1.372 . S
C3071 C3070 1.372 . S
C3071 C3072 1.400 . S
C3071 C3076 1.490 . S
C3072 H3062 0.930 . S
C3072 C3071 1.400 . S
C3072 C3075 1.386 . S
H3073 C3089 0.930 . S
H3074 C3090 0.938 . S
C3075 H3063 0.929 . S
C3075 C3069 1.390 . S
C3075 C3072 1.386 . S
C3076 C3071 1.490 . S
C3076 C3078 1.395 . S
C3076 C3079 1.403 1_554 S
H3077 C3083 0.930 . S
C3078 H3064 0.930 . S
C3078 C3076 1.395 . S
C3078 C3081 1.403 . S
C3079 C3076 1.403 1_556 S
C3079 C3080 1.524 . S
C3079 C3083 1.400 . S
C3080 H3065 0.960 . S
C3080 H3066 0.960 . S
C3080 H3067 0.960 . S
C3080 C3079 1.524 . S
C3081 C3078 1.403 . S
C3081 C3082 1.390 . S
C3081 C3085 1.495 . S
C3082 C3081 1.390 . S
C3082 C3083 1.387 1_554 S
C3082 C3084 1.478 1_554 S
C3083 H3077 0.930 . S
C3083 C3079 1.400 . S
C3083 C3082 1.387 1_556 S
C3084 C3082 1.478 1_556 S
C3084 C3086 1.381 . S
C3084 C3090 1.380 1_556 S
C3085 C3081 1.495 . S
C3085 H3091 0.959 . S
C3085 H3092 0.961 . S
C3085 H3093 0.960 . S
C3086 C3084 1.381 . S
C3086 C3087 1.394 . S
C3086 H3094 0.930 . S
C3087 C3086 1.394 . S
C3087 C3088 1.383 . S
C3087 H3095 0.929 . S
C3088 C3087 1.383 . S
C3088 C3089 1.377 . S
C3089 H3073 0.930 . S
C3089 C3088 1.377 . S
C3089 C3090 1.376 1_556 S
C3090 H3074 0.938 . S
C3090 C3084 1.380 1_554 S
C3090 C3089 1.376 1_554 S
H3091 C3085 0.959 . S
H3092 C3085 0.961 . S
H3093 C3085 0.960 . S
H3094 C3086 0.930 . S
H3095 C3087 0.929 . S
C513 C152 0.864 . S
C532 C5 0.804 . S
C549 C166 0.862 . S
C568 C19 0.855 . S
C585 C33 0.828 . S
C604 C138 0.889 . S
C621 C47 0.820 . S
C640 C124 0.878 . S
C657 C61 0.839 . S
C676 C96 0.823 . S
C693 C110 0.859 . S
C712 C75 0.767 . S
C729 C68 0.858 . S
C748 C89 0.852 . S
C765 C82 0.862 . S
C784 C103 0.882 . S
C801 C117 0.841 . S
C820 C54 0.877 . S
C837 C40 0.862 . S
C856 C131 0.883 . S
C873 C145 0.820 . S
C892 C12 0.826 . S
C909 C159 0.830 . S
C928 C26 0.852 . S
C945 C320 0.853 . S
C964 C173 0.803 . S
C981 C334 0.855 . S
C1000 C187 0.897 . S
C1017 C201 0.826 . S
C1036 C306 0.841 . S
C1053 C215 0.841 . S
C1072 C292 0.873 . S
C1089 C229 0.830 . S
C1108 C264 0.889 . S
C1125 C243 0.836 . S
C1144 C278 0.882 . S
C1161 C236 0.864 . S
C1180 C257 0.897 . S
C1197 C250 0.854 . S
C1216 C271 0.801 . S
C1233 C222 0.851 . S
C1252 C285 0.767 . S
C1269 C208 0.850 . S
C1288 C299 0.767 . S
C1305 C180 0.864 . S
C1324 C313 0.890 . S
C1341 C194 0.855 . S
C1360 C327 0.819 . S
C1377 C341 0.824 . S
C1396 C488 0.844 . S
C1413 C502 0.863 . S
C1432 C355 0.846 . S
C1449 C474 0.857 . S
C1468 C369 0.893 . S
C1485 C383 0.822 . S
C1504 C460 0.855 . S
C1521 C397 0.832 . S
C1540 C432 0.828 . S
C1557 C411 0.846 . S
C1576 C446 0.856 . S
C1593 C404 0.850 . S
C1612 C425 0.770 . S
C1629 C418 0.864 . S
C1648 C439 0.890 . S
C1665 C390 0.857 . S
C1684 C453 0.825 . S
C1701 C467 0.823 . S
C1720 C376 0.833 . S
C1737 C348 0.864 . S
C1756 C481 0.894 . S
C1773 C495 0.845 . S
C1792 C362 0.886 . S
C1809 C53 1.159 . S
C1828 C11 1.159 . S
C1845 C67 1.158 . S
C1864 C25 1.160 . S
C1881 C39 1.153 . S
C1900 C81 1.177 . S
C1917 C137 1.147 . S
C1936 C95 1.134 . S
C1953 C151 1.146 . S
C1972 C109 1.137 . S
C1989 C165 1.158 . S
C2008 C123 1.168 . S
C2025 C221 1.156 . S
C2044 C179 1.179 . S
C2061 C235 1.149 . S
C2080 C193 1.122 . S
C2097 C207 1.158 . S
C2116 C249 1.167 . S
C2133 C263 1.159 . S
C2152 C305 1.167 . S
C2169 C319 1.158 . S
C2188 C277 1.174 . S
C2205 C291 1.155 . S
C2224 C333 1.136 . S
C2241 C389 1.150 . S
C2260 C347 1.169 . S
C2277 C403 1.147 . S
C2296 C361 1.130 . S
C2313 C375 1.158 . S
C2332 C417 1.145 . S
C2349 C431 1.158 . S
C2368 C473 1.156 . S
C2385 C445 1.148 . S
C2404 C487 1.152 . S
C2421 C459 1.158 . S
C2440 C501 1.166 . S
C2457 C4 1.170 . S
C2476 C256 1.190 . S
C2493 C270 1.164 . S
C2512 C18 1.181 . S
C2529 C284 1.171 . S
C2548 C32 1.162 . S
C2565 C466 1.169 . S
C2584 C46 1.149 . S
C2601 C480 1.169 . S
C2620 C60 1.189 . S
C2637 C494 1.162 . S
C2656 C74 1.138 . S
C2673 C88 1.165 . S
C2692 C340 1.138 . S
C2709 C354 1.161 . S
C2728 C102 1.170 . S
C2745 C368 1.164 . S
C2764 C116 1.138 . S
C2781 C130 1.172 . S
C2800 C214 1.178 . S
C2817 C144 1.162 . S
C2836 C228 1.173 . S
C2853 C158 1.168 . S
C2872 C242 1.189 . S
C2889 C424 1.172 . S
C2908 C172 1.170 . S
C2925 C438 1.161 . S
C2944 C186 1.164 . S
C2961 C200 1.168 . S
C2980 C452 1.190 . S
C2997 C298 1.172 . S
C3016 C382 1.180 . S
C3033 C312 1.160 . S
C3052 C396 1.160 . S
C3069 C326 1.168 . S
C3088 C410 1.190 . S
