# Generated by pormake.
# Topology snl, (6)-cn, num edge types: 1
# Building blocks:
#     Node 0, Type 0, BuildingBlock: CUWYAW_clean_sbu_0, # of connection points: 6
#     Node 1, Type 0, BuildingBlock: CUWYAW_clean_sbu_0, # of connection points: 6
#     Node 2, Type 0, BuildingBlock: CUWYAW_clean_sbu_0, # of connection points: 6
#     Node 3, Type 0, BuildingBlock: CUWYAW_clean_sbu_0, # of connection points: 6
#     Node 4, Type 0, BuildingBlock: CUWYAW_clean_sbu_0, # of connection points: 6
#     Node 5, Type 0, BuildingBlock: CUWYAW_clean_sbu_0, # of connection points: 6
#     Node 6, Type 0, BuildingBlock: CUWYAW_clean_sbu_0, # of connection points: 6
#     Node 7, Type 0, BuildingBlock: CUWYAW_clean_sbu_0, # of connection points: 6
#     Node 8, Type 0, BuildingBlock: CUWYAW_clean_sbu_0, # of connection points: 6
#     Node 9, Type 0, BuildingBlock: CUWYAW_clean_sbu_0, # of connection points: 6
#     Node 10, Type 0, BuildingBlock: CUWYAW_clean_sbu_0, # of connection points: 6
#     Node 11, Type 0, BuildingBlock: CUWYAW_clean_sbu_0, # of connection points: 6
#     Node 12, Type 0, BuildingBlock: CUWYAW_clean_sbu_0, # of connection points: 6
#     Node 13, Type 0, BuildingBlock: CUWYAW_clean_sbu_0, # of connection points: 6
#     Node 14, Type 0, BuildingBlock: CUWYAW_clean_sbu_0, # of connection points: 6
#     Node 15, Type 0, BuildingBlock: CUWYAW_clean_sbu_0, # of connection points: 6
#     Edge 16, Type (0, 0), BuildingBlock: MIFKUJ_clean_linker_0, # of connection points: 2
#     Edge 17, Type (0, 0), BuildingBlock: MIFKUJ_clean_linker_0, # of connection points: 2
#     Edge 18, Type (0, 0), BuildingBlock: MIFKUJ_clean_linker_0, # of connection points: 2
#     Edge 19, Type (0, 0), BuildingBlock: MIFKUJ_clean_linker_0, # of connection points: 2
#     Edge 20, Type (0, 0), BuildingBlock: MIFKUJ_clean_linker_0, # of connection points: 2
#     Edge 21, Type (0, 0), BuildingBlock: MIFKUJ_clean_linker_0, # of connection points: 2
#     Edge 22, Type (0, 0), BuildingBlock: MIFKUJ_clean_linker_0, # of connection points: 2
#     Edge 23, Type (0, 0), BuildingBlock: MIFKUJ_clean_linker_0, # of connection points: 2
#     Edge 24, Type (0, 0), BuildingBlock: MIFKUJ_clean_linker_0, # of connection points: 2
#     Edge 25, Type (0, 0), BuildingBlock: MIFKUJ_clean_linker_0, # of connection points: 2
#     Edge 26, Type (0, 0), BuildingBlock: MIFKUJ_clean_linker_0, # of connection points: 2
#     Edge 27, Type (0, 0), BuildingBlock: MIFKUJ_clean_linker_0, # of connection points: 2
#     Edge 28, Type (0, 0), BuildingBlock: MIFKUJ_clean_linker_0, # of connection points: 2
#     Edge 29, Type (0, 0), BuildingBlock: MIFKUJ_clean_linker_0, # of connection points: 2
#     Edge 30, Type (0, 0), BuildingBlock: MIFKUJ_clean_linker_0, # of connection points: 2
#     Edge 31, Type (0, 0), BuildingBlock: MIFKUJ_clean_linker_0, # of connection points: 2
#     Edge 32, Type (0, 0), BuildingBlock: MIFKUJ_clean_linker_0, # of connection points: 2
#     Edge 33, Type (0, 0), BuildingBlock: MIFKUJ_clean_linker_0, # of connection points: 2
#     Edge 34, Type (0, 0), BuildingBlock: MIFKUJ_clean_linker_0, # of connection points: 2
#     Edge 35, Type (0, 0), BuildingBlock: MIFKUJ_clean_linker_0, # of connection points: 2
#     Edge 36, Type (0, 0), BuildingBlock: MIFKUJ_clean_linker_0, # of connection points: 2
#     Edge 37, Type (0, 0), BuildingBlock: MIFKUJ_clean_linker_0, # of connection points: 2
#     Edge 38, Type (0, 0), BuildingBlock: MIFKUJ_clean_linker_0, # of connection points: 2
#     Edge 39, Type (0, 0), BuildingBlock: MIFKUJ_clean_linker_0, # of connection points: 2
#     Edge 40, Type (0, 0), BuildingBlock: MIFKUJ_clean_linker_0, # of connection points: 2
#     Edge 41, Type (0, 0), BuildingBlock: MIFKUJ_clean_linker_0, # of connection points: 2
#     Edge 42, Type (0, 0), BuildingBlock: MIFKUJ_clean_linker_0, # of connection points: 2
#     Edge 43, Type (0, 0), BuildingBlock: MIFKUJ_clean_linker_0, # of connection points: 2
#     Edge 44, Type (0, 0), BuildingBlock: MIFKUJ_clean_linker_0, # of connection points: 2
#     Edge 45, Type (0, 0), BuildingBlock: MIFKUJ_clean_linker_0, # of connection points: 2
#     Edge 46, Type (0, 0), BuildingBlock: MIFKUJ_clean_linker_0, # of connection points: 2
#     Edge 47, Type (0, 0), BuildingBlock: MIFKUJ_clean_linker_0, # of connection points: 2
#     Edge 48, Type (0, 0), BuildingBlock: MIFKUJ_clean_linker_0, # of connection points: 2
#     Edge 49, Type (0, 0), BuildingBlock: MIFKUJ_clean_linker_0, # of connection points: 2
#     Edge 50, Type (0, 0), BuildingBlock: MIFKUJ_clean_linker_0, # of connection points: 2
#     Edge 51, Type (0, 0), BuildingBlock: MIFKUJ_clean_linker_0, # of connection points: 2
#     Edge 52, Type (0, 0), BuildingBlock: MIFKUJ_clean_linker_0, # of connection points: 2
#     Edge 53, Type (0, 0), BuildingBlock: MIFKUJ_clean_linker_0, # of connection points: 2
#     Edge 54, Type (0, 0), BuildingBlock: MIFKUJ_clean_linker_0, # of connection points: 2
#     Edge 55, Type (0, 0), BuildingBlock: MIFKUJ_clean_linker_0, # of connection points: 2
#     Edge 56, Type (0, 0), BuildingBlock: MIFKUJ_clean_linker_0, # of connection points: 2
#     Edge 57, Type (0, 0), BuildingBlock: MIFKUJ_clean_linker_0, # of connection points: 2
#     Edge 58, Type (0, 0), BuildingBlock: MIFKUJ_clean_linker_0, # of connection points: 2
#     Edge 59, Type (0, 0), BuildingBlock: MIFKUJ_clean_linker_0, # of connection points: 2
#     Edge 60, Type (0, 0), BuildingBlock: MIFKUJ_clean_linker_0, # of connection points: 2
#     Edge 61, Type (0, 0), BuildingBlock: MIFKUJ_clean_linker_0, # of connection points: 2
#     Edge 62, Type (0, 0), BuildingBlock: MIFKUJ_clean_linker_0, # of connection points: 2
#     Edge 63, Type (0, 0), BuildingBlock: MIFKUJ_clean_linker_0, # of connection points: 2
# Relax obj value: 0.183
# Max RMSD: 0.237
# Mean RMSD: 0.214
data_MOF--net-snl--node1-CUWYAW_clean_sbu_0--edge1-MIFKUJ_clean_linker_0
_symmetry_space_group_name_H-M    P1
_symmetry_Int_Tables_number       1
_symmetry_cell_setting            triclinic
loop_
_symmetry_equiv_pos_as_xyz
'x, y, z'
_cell_length_a     75.532697
_cell_length_b     73.754344
_cell_length_c     30.608517
_cell_angle_alpha  87.236909
_cell_angle_beta   92.663297
_cell_angle_gamma 90.195789
loop_
_atom_site_label
_atom_site_type_symbol
_atom_site_fract_x
_atom_site_fract_y
_atom_site_fract_z
_atom_type_partial_charge
C0 C 0.12819 0.64198 0.02685 0.0
Eu1 Eu 0.13519 0.63214 0.10934 0.0
C2 C 0.12986 0.63689 0.98073 0.0
C3 C 0.14642 0.63465 0.96246 0.0
C4 C 0.14755 0.63184 0.91757 0.0
C5 C 0.13215 0.6313 0.88977 0.0
C6 C 0.1156 0.63303 0.90854 0.0
C7 C 0.11449 0.63582 0.9533 0.0
C8 C 0.16831 0.63105 0.14958 0.0
C9 C 0.13958 0.5882 0.12003 0.0
C10 C 0.14406 0.6051 0.28213 0.0
Eu11 Eu 0.13679 0.61474 0.19954 0.0
C12 C 0.14289 0.61047 0.32822 0.0
C13 C 0.12651 0.61284 0.34731 0.0
C14 C 0.12577 0.61571 0.39224 0.0
C15 C 0.14136 0.61621 0.41932 0.0
C16 C 0.15774 0.61435 0.39976 0.0
C17 C 0.15847 0.61149 0.35491 0.0
C18 C 0.10342 0.61566 0.16123 0.0
C19 C 0.13171 0.65896 0.18543 0.0
O20 O 0.11722 0.63263 0.05098 0.0
O21 O 0.14247 0.64685 0.04915 0.0
O22 O 0.16224 0.64457 0.12472 0.0
O23 O 0.15705 0.61837 0.15045 0.0
O24 O 0.1344 0.60241 0.09496 0.0
O25 O 0.14359 0.58975 0.16234 0.0
O26 O 0.15519 0.61384 0.25726 0.0
O27 O 0.12945 0.60075 0.26054 0.0
O28 O 0.11005 0.60216 0.18517 0.0
O29 O 0.11459 0.62851 0.15927 0.0
O30 O 0.13779 0.64534 0.21175 0.0
O31 O 0.1267 0.65629 0.14446 0.0
H32 H 0.15855 0.63549 0.98258 0.0
H33 H 0.16054 0.63071 0.90441 0.0
H34 H 0.10343 0.63236 0.88854 0.0
H35 H 0.10155 0.63757 0.96635 0.0
H36 H 0.11422 0.61201 0.32784 0.0
H37 H 0.1129 0.61691 0.406 0.0
H38 H 0.17006 0.61497 0.4192 0.0
H39 H 0.17129 0.60963 0.34125 0.0
C40 C 0.62975 0.8695 0.48372 0.0
Eu41 Eu 0.63555 0.87821 0.40179 0.0
C42 C 0.63136 0.87623 0.5288 0.0
C43 C 0.64712 0.87386 0.55476 0.0
C44 C 0.64785 0.87815 0.59893 0.0
C45 C 0.63279 0.88478 0.61838 0.0
C46 C 0.61719 0.88764 0.59203 0.0
C47 C 0.61648 0.88339 0.54788 0.0
C48 C 0.66715 0.87783 0.36129 0.0
C49 C 0.64001 0.92207 0.3879 0.0
C50 C 0.64742 0.9046 0.22908 0.0
Eu51 Eu 0.63566 0.89511 0.30578 0.0
C52 C 0.64462 0.90243 0.18132 0.0
C53 C 0.62836 0.90646 0.15876 0.0
C54 C 0.62664 0.90545 0.11305 0.0
C55 C 0.64114 0.90043 0.08889 0.0
C56 C 0.65727 0.89609 0.11184 0.0
C57 C 0.65897 0.8971 0.15739 0.0
C58 C 0.60108 0.89111 0.32825 0.0
C59 C 0.62833 0.85152 0.32515 0.0
O60 O 0.61788 0.87713 0.45626 0.0
O61 O 0.64427 0.86529 0.46477 0.0
O62 O 0.66172 0.86473 0.38735 0.0
O63 O 0.656 0.89061 0.35924 0.0
O64 O 0.6385 0.90779 0.41519 0.0
O65 O 0.63983 0.92076 0.34466 0.0
O66 O 0.65327 0.89044 0.25289 0.0
O67 O 0.63591 0.91418 0.24904 0.0
O68 O 0.60599 0.89784 0.29073 0.0
O69 O 0.61486 0.88687 0.3517 0.0
O70 O 0.63512 0.86416 0.29825 0.0
O71 O 0.62434 0.85502 0.36535 0.0
H72 H 0.65879 0.86817 0.54139 0.0
H73 H 0.66003 0.87557 0.61825 0.0
H74 H 0.60542 0.89298 0.60566 0.0
H75 H 0.60407 0.88525 0.529 0.0
H76 H 0.61705 0.91066 0.17627 0.0
H77 H 0.61405 0.90902 0.09656 0.0
H78 H 0.66864 0.89185 0.09461 0.0
H79 H 0.67166 0.89393 0.17396 0.0
C80 C 0.37885 0.36404 0.563 0.0
Eu81 Eu 0.37577 0.37409 0.64327 0.0
C82 C 0.37525 0.36866 0.51561 0.0
C83 C 0.36425 0.35725 0.4908 0.0
C84 C 0.3626 0.35966 0.44512 0.0
C85 C 0.37203 0.37348 0.42289 0.0
C86 C 0.38257 0.38532 0.44792 0.0
C87 C 0.38418 0.38292 0.4937 0.0
C88 C 0.34404 0.37537 0.68353 0.0
C89 C 0.37295 0.41785 0.64537 0.0
C90 C 0.37308 0.39994 0.80922 0.0
Eu91 Eu 0.37771 0.39036 0.72917 0.0
C92 C 0.37465 0.39472 0.85671 0.0
C93 C 0.38515 0.40545 0.88438 0.0
C94 C 0.38524 0.4025 0.92988 0.0
C95 C 0.37472 0.38879 0.94909 0.0
C96 C 0.36463 0.37762 0.92127 0.0
C97 C 0.36458 0.38056 0.87557 0.0
C98 C 0.40983 0.38995 0.69164 0.0
C99 C 0.38291 0.34655 0.72285 0.0
O100 O 0.39082 0.37346 0.5843 0.0
O101 O 0.36554 0.35934 0.58692 0.0
O102 O 0.34954 0.36148 0.6636 0.0
O103 O 0.35533 0.38797 0.68098 0.0
O104 O 0.377 0.4038 0.62284 0.0
O105 O 0.37016 0.41587 0.68771 0.0
O106 O 0.36082 0.39224 0.78482 0.0
O107 O 0.38763 0.40304 0.78868 0.0
O108 O 0.40387 0.40321 0.71298 0.0
O109 O 0.39867 0.37704 0.69156 0.0
O110 O 0.37691 0.35953 0.74676 0.0
O111 O 0.38685 0.35015 0.68201 0.0
H112 H 0.3573 0.34606 0.50667 0.0
H113 H 0.3541 0.35047 0.42717 0.0
H114 H 0.39016 0.39601 0.43208 0.0
H115 H 0.3929 0.3919 0.5117 0.0
H116 H 0.39297 0.41652 0.87082 0.0
H117 H 0.39345 0.41115 0.95007 0.0
H118 H 0.35627 0.36701 0.93479 0.0
H119 H 0.35628 0.37208 0.85516 0.0
C120 C 0.88278 0.14197 0.99539 0.0
Eu121 Eu 0.87624 0.13257 0.91475 0.0
C122 C 0.88001 0.13687 0.04226 0.0
C123 C 0.86583 0.14418 0.06386 0.0
C124 C 0.86448 0.14123 0.10921 0.0
C125 C 0.87739 0.13104 0.13424 0.0
C126 C 0.89133 0.12337 0.11242 0.0
C127 C 0.89265 0.12628 0.06711 0.0
C128 C 0.84326 0.13195 0.87344 0.0
C129 C 0.87104 0.08894 0.91243 0.0
C130 C 0.86797 0.10655 0.74745 0.0
Eu131 Eu 0.87513 0.11585 0.82804 0.0
C132 C 0.87021 0.11142 0.70024 0.0
C133 C 0.88519 0.10572 0.67892 0.0
C134 C 0.88617 0.1083 0.63339 0.0
C135 C 0.87214 0.11655 0.60786 0.0
C136 C 0.85735 0.12257 0.62943 0.0
C137 C 0.85637 0.11998 0.67491 0.0
C138 C 0.90842 0.11622 0.8672 0.0
C139 C 0.88148 0.15962 0.83383 0.0
O140 O 0.89335 0.13185 0.97422 0.0
O141 O 0.86923 0.14797 0.97075 0.0
O142 O 0.84929 0.14524 0.89605 0.0
O143 O 0.85447 0.11925 0.87536 0.0
O144 O 0.87637 0.1028 0.93525 0.0
O145 O 0.86738 0.09091 0.86972 0.0
O146 O 0.85756 0.11662 0.76913 0.0
O147 O 0.88179 0.10078 0.77134 0.0
O148 O 0.9019 0.10319 0.84451 0.0
O149 O 0.89727 0.12903 0.86685 0.0
O150 O 0.87485 0.14652 0.80979 0.0
O151 O 0.88621 0.15642 0.87538 0.0
H152 H 0.85601 0.15266 0.04596 0.0
H153 H 0.85368 0.14753 0.12487 0.0
H154 H 0.90138 0.11525 0.13047 0.0
H155 H 0.90387 0.12059 0.05176 0.0
H156 H 0.89598 0.09877 0.69721 0.0
H157 H 0.89768 0.10322 0.61809 0.0
H158 H 0.84639 0.12916 0.61106 0.0
H159 H 0.84453 0.12427 0.69015 0.0
C160 C 0.13763 0.36547 0.99579 0.0
Eu161 Eu 0.13843 0.37491 0.91227 0.0
C162 C 0.13587 0.37209 0.0406 0.0
C163 C 0.1511 0.37386 0.06829 0.0
C164 C 0.14973 0.3779 0.11221 0.0
C165 C 0.13307 0.38021 0.12995 0.0
C166 C 0.11781 0.3788 0.102 0.0
C167 C 0.11919 0.37475 0.0579 0.0
C168 C 0.16919 0.37565 0.86777 0.0
C169 C 0.13735 0.41875 0.89788 0.0
C170 C 0.14516 0.40148 0.73937 0.0
Eu171 Eu 0.13582 0.39122 0.81777 0.0
C172 C 0.14162 0.39877 0.69206 0.0
C173 C 0.12466 0.40065 0.67134 0.0
C174 C 0.12232 0.39915 0.62579 0.0
C175 C 0.13691 0.39588 0.60015 0.0
C176 C 0.15372 0.39359 0.62137 0.0
C177 C 0.156 0.39505 0.66665 0.0
C178 C 0.10176 0.38552 0.8419 0.0
C179 C 0.13219 0.34706 0.83785 0.0
O180 O 0.12364 0.36528 0.96884 0.0
O181 O 0.1521 0.36975 0.97584 0.0
O182 O 0.16414 0.36208 0.89275 0.0
O183 O 0.15782 0.38823 0.86762 0.0
O184 O 0.13511 0.40442 0.92443 0.0
O185 O 0.13944 0.4172 0.85537 0.0
O186 O 0.15272 0.38805 0.76277 0.0
O187 O 0.13334 0.41008 0.76062 0.0
O188 O 0.1063 0.39221 0.80415 0.0
O189 O 0.11565 0.38198 0.86589 0.0
O190 O 0.13638 0.36036 0.80926 0.0
O191 O 0.12954 0.35007 0.87909 0.0
H192 H 0.16414 0.37156 0.05636 0.0
H193 H 0.16178 0.37853 0.13267 0.0
H194 H 0.10476 0.38068 0.11427 0.0
H195 H 0.10715 0.37331 0.0377 0.0
H196 H 0.11329 0.40353 0.69013 0.0
H197 H 0.10919 0.40103 0.61051 0.0
H198 H 0.16517 0.39066 0.6029 0.0
H199 H 0.16911 0.39352 0.68204 0.0
C200 C 0.88689 0.86435 0.06563 0.0
Eu201 Eu 0.87521 0.87331 0.14028 0.0
C202 C 0.88391 0.86692 0.01795 0.0
C203 C 0.86943 0.87684 0.99914 0.0
C204 C 0.86751 0.87968 0.95351 0.0
C205 C 0.88011 0.87275 0.92617 0.0
C206 C 0.89446 0.86269 0.94543 0.0
C207 C 0.89632 0.85981 0.99083 0.0
C208 C 0.84082 0.87658 0.16804 0.0
C209 C 0.87052 0.91623 0.15394 0.0
C210 C 0.86043 0.89637 0.31429 0.0
Eu211 Eu 0.87321 0.88753 0.24065 0.0
C212 C 0.86374 0.8957 0.36203 0.0
C213 C 0.87845 0.88665 0.38233 0.0
C214 C 0.8805 0.88525 0.42815 0.0
C215 C 0.86778 0.89278 0.45424 0.0
C216 C 0.85327 0.90212 0.43346 0.0
C217 C 0.85129 0.90355 0.38784 0.0
C218 C 0.90776 0.88394 0.2175 0.0
C219 C 0.8795 0.84462 0.22379 0.0
O220 O 0.89249 0.87859 0.0863 0.0
O221 O 0.87523 0.85464 0.08713 0.0
O222 O 0.84451 0.87065 0.1301 0.0
O223 O 0.85546 0.88032 0.18643 0.0
O224 O 0.87516 0.90335 0.12819 0.0
O225 O 0.86746 0.91314 0.19628 0.0
O226 O 0.85729 0.88079 0.29651 0.0
O227 O 0.87034 0.9073 0.29067 0.0
O228 O 0.90312 0.88911 0.25541 0.0
O229 O 0.89369 0.88091 0.19493 0.0
O230 O 0.87339 0.85659 0.25058 0.0
O231 O 0.88334 0.84889 0.18283 0.0
H232 H 0.85979 0.88253 0.01971 0.0
H233 H 0.85638 0.8876 0.93971 0.0
H234 H 0.90424 0.85692 0.92536 0.0
H235 H 0.90759 0.85213 1.00484 0.0
H236 H 0.88815 0.88042 0.3628 0.0
H237 H 0.89175 0.87786 0.44313 0.0
H238 H 0.84341 0.90833 0.4525 0.0
H239 H 0.83984 0.91058 0.37267 0.0
C240 C 0.38273 0.6446 0.48819 0.0
Eu241 Eu 0.37691 0.63489 0.40762 0.0
C242 C 0.38019 0.64054 0.53533 0.0
C243 C 0.36399 0.63433 0.55133 0.0
C244 C 0.36187 0.63207 0.59668 0.0
C245 C 0.37587 0.63611 0.62679 0.0
C246 C 0.39215 0.64187 0.61034 0.0
C247 C 0.39425 0.64405 0.56525 0.0
C248 C 0.34491 0.63491 0.36163 0.0
C249 C 0.37308 0.591 0.40257 0.0
C250 C 0.37661 0.60949 0.23868 0.0
Eu251 Eu 0.37853 0.61888 0.32039 0.0
C252 C 0.37363 0.61573 0.19194 0.0
C253 C 0.38729 0.62415 0.16863 0.0
C254 C 0.38545 0.6274 0.12318 0.0
C255 C 0.36991 0.62229 0.09962 0.0
C256 C 0.35601 0.61443 0.1232 0.0
C257 C 0.35787 0.61114 0.16871 0.0
C258 C 0.4103 0.61863 0.36697 0.0
C259 C 0.38195 0.66239 0.32797 0.0
O260 O 0.39338 0.63409 0.46838 0.0
O261 O 0.36911 0.65009 0.46312 0.0
O262 O 0.35007 0.6474 0.38781 0.0
O263 O 0.35619 0.62223 0.36344 0.0
O264 O 0.37604 0.60503 0.42702 0.0
O265 O 0.37189 0.59289 0.35928 0.0
O266 O 0.36315 0.60871 0.26405 0.0
O267 O 0.39121 0.61448 0.25931 0.0
O268 O 0.40405 0.60529 0.34492 0.0
O269 O 0.39937 0.63168 0.36379 0.0
O270 O 0.37511 0.64942 0.30392 0.0
O271 O 0.38718 0.65881 0.36904 0.0
H272 H 0.35291 0.63153 0.52889 0.0
H273 H 0.34914 0.62767 0.60817 0.0
H274 H 0.40333 0.64477 0.63239 0.0
H275 H 0.40687 0.64883 0.55371 0.0
H276 H 0.39973 0.62764 0.18521 0.0
H277 H 0.39655 0.63325 0.10631 0.0
H278 H 0.34375 0.61055 0.10641 0.0
H279 H 0.34716 0.60447 0.18554 0.0
C280 C 0.63012 0.14236 0.5263 0.0
Eu281 Eu 0.6359 0.1325 0.60926 0.0
C282 C 0.63054 0.13639 0.48065 0.0
C283 C 0.64531 0.12759 0.46503 0.0
C284 C 0.64594 0.12387 0.42051 0.0
C285 C 0.63182 0.12881 0.39055 0.0
C286 C 0.6169 0.13721 0.40675 0.0
C287 C 0.6163 0.14094 0.45111 0.0
C288 C 0.66884 0.13098 0.65066 0.0
C289 C 0.63826 0.08869 0.62087 0.0
C290 C 0.64367 0.10524 0.78186 0.0
Eu291 Eu 0.63678 0.11563 0.69955 0.0
C292 C 0.64268 0.10949 0.8286 0.0
C293 C 0.62808 0.1184 0.84467 0.0
C294 C 0.62701 0.12074 0.88983 0.0
C295 C 0.64052 0.11421 0.9199 0.0
C296 C 0.65516 0.10548 0.90336 0.0
C297 C 0.65622 0.1032 0.85838 0.0
C298 C 0.60351 0.11752 0.66051 0.0
C299 C 0.63283 0.16006 0.68399 0.0
O300 O 0.61787 0.13553 0.55109 0.0
O301 O 0.64519 0.14466 0.54804 0.0
O302 O 0.66296 0.14462 0.62593 0.0
O303 O 0.6574 0.11844 0.65124 0.0
O304 O 0.63265 0.10281 0.59614 0.0
O305 O 0.64353 0.09059 0.66232 0.0
O306 O 0.65484 0.11438 0.75794 0.0
O307 O 0.62895 0.10152 0.75998 0.0
O308 O 0.60969 0.10374 0.6842 0.0
O309 O 0.61508 0.12998 0.65892 0.0
O310 O 0.63821 0.14638 0.71123 0.0
O311 O 0.62822 0.15726 0.64285 0.0
H312 H 0.6565 0.12388 0.487 0.0
H313 H 0.65757 0.11722 0.40954 0.0
H314 H 0.60587 0.1415 0.38489 0.0
H315 H 0.60483 0.14788 0.46218 0.0
H316 H 0.6174 0.12335 0.82243 0.0
H317 H 0.61561 0.12768 0.90118 0.0
H318 H 0.6657 0.10002 0.92527 0.0
H319 H 0.66754 0.09614 0.84689 0.0
C320 C 0.86465 0.40532 0.7261 0.0
Eu321 Eu 0.87715 0.3952 0.80451 0.0
C322 C 0.86734 0.40302 0.67907 0.0
C323 C 0.8835 0.39702 0.66406 0.0
C324 C 0.88563 0.39531 0.61904 0.0
C325 C 0.87164 0.39959 0.58813 0.0
C326 C 0.85543 0.4054 0.60367 0.0
C327 C 0.85334 0.40708 0.64852 0.0
C328 C 0.9121 0.38897 0.82966 0.0
C329 C 0.88288 0.35156 0.82439 0.0
C330 C 0.88566 0.3686 0.98372 0.0
Eu331 Eu 0.87897 0.37826 0.90107 0.0
C332 C 0.88504 0.37435 0.02952 0.0
C333 C 0.86948 0.38101 0.04652 0.0
C334 C 0.86886 0.38439 0.09123 0.0
C335 C 0.88375 0.38112 0.12001 0.0
C336 C 0.89944 0.37498 0.10244 0.0
C337 C 0.90004 0.37163 0.05786 0.0
C338 C 0.84616 0.37989 0.8583 0.0
C339 C 0.87756 0.42229 0.88614 0.0
O340 O 0.85872 0.3912 0.74868 0.0
O341 O 0.8767 0.41447 0.74811 0.0
O342 O 0.90659 0.39588 0.79171 0.0
O343 O 0.89869 0.38573 0.85214 0.0
O344 O 0.87553 0.36438 0.79747 0.0
O345 O 0.88834 0.35484 0.8648 0.0
O346 O 0.89738 0.37628 0.95864 0.0
O347 O 0.87067 0.36533 0.96239 0.0
O348 O 0.85149 0.36659 0.885 0.0
O349 O 0.85809 0.39193 0.85693 0.0
O350 O 0.87997 0.40798 0.91332 0.0
O351 O 0.87481 0.42089 0.84316 0.0
H352 H 0.89449 0.39377 0.68708 0.0
H353 H 0.89834 0.39094 0.60843 0.0
H354 H 0.84424 0.40848 0.58118 0.0
H355 H 0.84071 0.41162 0.65938 0.0
H356 H 0.85766 0.38319 0.02555 0.0
H357 H 0.85651 0.38898 0.10347 0.0
H358 H 0.91128 0.37263 0.12322 0.0
H359 H 0.9122 0.36647 0.04568 0.0
C360 C 0.37272 0.10192 0.79293 0.0
Eu361 Eu 0.38034 0.11196 0.71252 0.0
C362 C 0.37418 0.1068 0.83959 0.0
C363 C 0.39063 0.10992 0.86149 0.0
C364 C 0.39165 0.11262 0.9067 0.0
C365 C 0.37627 0.11217 0.93118 0.0
C366 C 0.35982 0.10951 0.9088 0.0
C367 C 0.35882 0.10684 0.86371 0.0
C368 C 0.41368 0.11442 0.68196 0.0
C369 C 0.38422 0.15633 0.69988 0.0
C370 C 0.3873 0.14007 0.54096 0.0
Eu371 Eu 0.38131 0.12972 0.6222 0.0
C372 C 0.38635 0.13457 0.49469 0.0
C373 C 0.3701 0.13118 0.47215 0.0
C374 C 0.36945 0.12812 0.42714 0.0
C375 C 0.38502 0.12845 0.40341 0.0
C376 C 0.40129 0.13134 0.42642 0.0
C377 C 0.40193 0.13438 0.47134 0.0
C378 C 0.34843 0.12717 0.65632 0.0
C379 C 0.37871 0.08581 0.63202 0.0
O380 O 0.36204 0.11151 0.76612 0.0
O381 O 0.38706 0.09699 0.77434 0.0
O382 O 0.40785 0.10094 0.70598 0.0
O383 O 0.40191 0.12663 0.67667 0.0
O384 O 0.37874 0.14242 0.72489 0.0
O385 O 0.38896 0.15408 0.65959 0.0
O386 O 0.39925 0.13233 0.56796 0.0
O387 O 0.3725 0.14315 0.55985 0.0
O388 O 0.35394 0.14113 0.63337 0.0
O389 O 0.36014 0.11497 0.65859 0.0
O390 O 0.38431 0.10008 0.60899 0.0
O391 O 0.37353 0.08735 0.67247 0.0
H392 H 0.40275 0.10988 0.84394 0.0
H393 H 0.40457 0.11447 0.92269 0.0
H394 H 0.34765 0.10939 0.92616 0.0
H395 H 0.34597 0.10441 0.84778 0.0
H396 H 0.3578 0.13134 0.48898 0.0
H397 H 0.35665 0.12611 0.41066 0.0
H398 H 0.4136 0.13139 0.40964 0.0
H399 H 0.41465 0.13703 0.48767 0.0
C400 C 0.65156 0.61315 0.49077 0.0
Eu401 Eu 0.64356 0.62535 0.41123 0.0
C402 C 0.64872 0.61609 0.53717 0.0
C403 C 0.65094 0.63321 0.55491 0.0
C404 C 0.64942 0.63516 0.59986 0.0
C405 C 0.64558 0.62006 0.6277 0.0
C406 C 0.643 0.60305 0.60953 0.0
C407 C 0.64459 0.6011 0.56475 0.0
C408 C 0.63816 0.66025 0.3799 0.0
C409 C 0.60135 0.63001 0.38122 0.0
C410 C 0.62439 0.63167 0.22799 0.0
Eu411 Eu 0.63074 0.62505 0.31158 0.0
C412 C 0.63108 0.6287 0.18427 0.0
C413 C 0.63017 0.61156 0.16607 0.0
C414 C 0.63432 0.6096 0.1225 0.0
C415 C 0.63946 0.62472 0.09625 0.0
C416 C 0.64106 0.64169 0.11507 0.0
C417 C 0.63685 0.64366 0.15855 0.0
C418 C 0.63194 0.5925 0.35832 0.0
C419 C 0.67336 0.62352 0.33637 0.0
O420 O 0.63798 0.60722 0.46726 0.0
O421 O 0.66126 0.62505 0.46931 0.0
O422 O 0.64346 0.65583 0.42 0.0
O423 O 0.63589 0.64591 0.35948 0.0
O424 O 0.61305 0.62368 0.41212 0.0
O425 O 0.60619 0.63478 0.3414 0.0
O426 O 0.63345 0.64265 0.25297 0.0
O427 O 0.61778 0.61774 0.24995 0.0
O428 O 0.61991 0.59649 0.32764 0.0
O429 O 0.64291 0.6053 0.36057 0.0
O430 O 0.66047 0.62397 0.30547 0.0
O431 O 0.6702 0.6234 0.37879 0.0
H432 H 0.65407 0.64501 0.53425 0.0
H433 H 0.6513 0.64847 0.61284 0.0
H434 H 0.64027 0.5911 0.63013 0.0
H435 H 0.64294 0.58775 0.55174 0.0
H436 H 0.62575 0.59975 0.185 0.0
H437 H 0.63319 0.5963 0.1091 0.0
H438 H 0.64477 0.65365 0.09564 0.0
H439 H 0.63749 0.65706 0.17161 0.0
C440 C 0.13949 0.90316 0.28687 0.0
Eu441 Eu 0.13165 0.89452 0.2061 0.0
C442 C 0.13854 0.89794 0.33412 0.0
C443 C 0.12249 0.89313 0.35315 0.0
C444 C 0.12173 0.89051 0.39879 0.0
C445 C 0.13698 0.89273 0.42638 0.0
C446 C 0.1531 0.89695 0.40694 0.0
C447 C 0.15385 0.89953 0.36145 0.0
C448 C 0.09764 0.89296 0.17132 0.0
C449 C 0.12745 0.85056 0.19634 0.0
C450 C 0.12384 0.87064 0.03862 0.0
Eu451 Eu 0.12997 0.87981 0.11968 0.0
C452 C 0.12523 0.87574 0.9914 0.0
C453 C 0.14147 0.88036 0.97307 0.0
C454 C 0.14258 0.88295 0.9275 0.0
C455 C 0.12749 0.88086 0.89928 0.0
C456 C 0.11119 0.8768 0.91799 0.0
C457 C 0.1101 0.87426 0.96339 0.0
C458 C 0.16363 0.88145 0.15799 0.0
C459 C 0.13168 0.92337 0.12517 0.0
O460 O 0.15016 0.8941 0.26356 0.0
O461 O 0.12488 0.90797 0.26497 0.0
O462 O 0.10427 0.9064 0.1923 0.0
O463 O 0.10921 0.88063 0.16965 0.0
O464 O 0.13397 0.86349 0.22122 0.0
O465 O 0.12151 0.85468 0.15612 0.0
O466 O 0.11244 0.87935 0.06063 0.0
O467 O 0.1383 0.86645 0.06193 0.0
O468 O 0.1573 0.86774 0.13747 0.0
O469 O 0.15207 0.89381 0.157 0.0
O470 O 0.12596 0.90968 0.10236 0.0
O471 O 0.13768 0.92056 0.16622 0.0
H472 H 0.11043 0.89188 0.33294 0.0
H473 H 0.10906 0.88738 0.41253 0.0
H474 H 0.16518 0.89845 0.42696 0.0
H475 H 0.16638 0.90328 0.34765 0.0
H476 H 0.1534 0.88151 0.99379 0.0
H477 H 0.15537 0.88596 0.9143 0.0
H478 H 0.09924 0.87541 0.89748 0.0
H479 H 0.09743 0.87064 0.97662 0.0
C480 C 0.87689 0.60058 0.28729 0.0
Eu481 Eu 0.88122 0.61165 0.20557 0.0
C482 C 0.8783 0.60566 0.33391 0.0
C483 C 0.88932 0.59541 0.36394 0.0
C484 C 0.88972 0.59859 0.40879 0.0
C485 C 0.87896 0.61204 0.42506 0.0
C486 C 0.86812 0.62253 0.39486 0.0
C487 C 0.86784 0.61942 0.34983 0.0
C488 C 0.91305 0.6133 0.16693 0.0
C489 C 0.8857 0.65599 0.19604 0.0
C490 C 0.88398 0.64172 0.03445 0.0
Eu491 Eu 0.87968 0.63086 0.11624 0.0
C492 C 0.88177 0.63644 0.98798 0.0
C493 C 0.86926 0.6455 0.95936 0.0
C494 C 0.86828 0.64229 0.91447 0.0
C495 C 0.8799 0.63001 0.89669 0.0
C496 C 0.8922 0.62065 0.92554 0.0
C497 C 0.89313 0.62382 0.97052 0.0
C498 C 0.84831 0.62954 0.15727 0.0
C499 C 0.87537 0.58673 0.12329 0.0
O500 O 0.86427 0.6078 0.26138 0.0
O501 O 0.89157 0.59848 0.26716 0.0
O502 O 0.90735 0.5994 0.18976 0.0
O503 O 0.90185 0.62608 0.1662 0.0
O504 O 0.88067 0.6418 0.22073 0.0
O505 O 0.88908 0.65442 0.15452 0.0
O506 O 0.89631 0.63368 0.05979 0.0
O507 O 0.86973 0.64503 0.05545 0.0
O508 O 0.85365 0.64341 0.13365 0.0
O509 O 0.85929 0.61668 0.15639 0.0
O510 O 0.87917 0.60141 0.09919 0.0
O511 O 0.87353 0.58728 0.16604 0.0
H512 H 0.89738 0.58458 0.35282 0.0
H513 H 0.89808 0.5901 0.43091 0.0
H514 H 0.85983 0.63314 0.40607 0.0
H515 H 0.85922 0.6276 0.32761 0.0
H516 H 0.8605 0.65551 0.97151 0.0
H517 H 0.85879 0.64996 0.89345 0.0
H518 H 0.90121 0.6109 0.91335 0.0
H519 H 0.90303 0.61664 0.99139 0.0
C520 C 0.15039 0.11207 0.98101 0.0
Eu521 Eu 0.14203 0.12271 0.90032 0.0
C522 C 0.14841 0.11615 0.02711 0.0
C523 C 0.14455 0.13369 0.03978 0.0
C524 C 0.14357 0.13715 0.08427 0.0
C525 C 0.14651 0.12313 0.11671 0.0
C526 C 0.15004 0.10554 0.10353 0.0
C527 C 0.15098 0.10212 0.05922 0.0
C528 C 0.13813 0.15719 0.86512 0.0
C529 C 0.09947 0.12642 0.87028 0.0
C530 C 0.12199 0.1228 0.71692 0.0
Eu531 Eu 0.12915 0.1206 0.80124 0.0
C532 C 0.12902 0.12646 0.67288 0.0
C533 C 0.13557 0.11216 0.64952 0.0
C534 C 0.13948 0.11485 0.60548 0.0
C535 C 0.13688 0.1319 0.58353 0.0
C536 C 0.13097 0.14639 0.60737 0.0
C537 C 0.12703 0.14368 0.65147 0.0
C538 C 0.12917 0.08928 0.85282 0.0
C539 C 0.17163 0.12137 0.82571 0.0
O540 O 0.13626 0.10635 0.95927 0.0
O541 O 0.16018 0.12317 0.95756 0.0
O542 O 0.14314 0.15322 0.90561 0.0
O543 O 0.13524 0.14263 0.84582 0.0
O544 O 0.11149 0.12179 0.90214 0.0
O545 O 0.10385 0.12926 0.82924 0.0
O546 O 0.12011 0.13644 0.74228 0.0
O547 O 0.12692 0.1078 0.7387 0.0
O548 O 0.11678 0.09341 0.82321 0.0
O549 O 0.14078 0.1015 0.85266 0.0
O550 O 0.15875 0.12406 0.79527 0.0
O551 O 0.16835 0.11876 0.86787 0.0
H552 H 0.14251 0.14471 0.01537 0.0
H553 H 0.14092 0.15086 0.09332 0.0
H554 H 0.15203 0.09436 0.1275 0.0
H555 H 0.15388 0.08847 0.05001 0.0
H556 H 0.13699 0.09864 0.6647 0.0
H557 H 0.14375 0.10331 0.58812 0.0
H558 H 0.12903 0.15976 0.5917 0.0
H559 H 0.12183 0.15495 0.66833 0.0
C560 C 0.64343 0.404 0.78746 0.0
Eu561 Eu 0.63528 0.39588 0.70648 0.0
C562 C 0.64034 0.39956 0.83443 0.0
C563 C 0.62887 0.41039 0.85696 0.0
C564 C 0.62757 0.408 0.90235 0.0
C565 C 0.63779 0.39479 0.9266 0.0
C566 C 0.64891 0.38359 0.90391 0.0
C567 C 0.65022 0.38599 0.85842 0.0
C568 C 0.60098 0.39448 0.67328 0.0
C569 C 0.63032 0.35214 0.69643 0.0
C570 C 0.62696 0.37278 0.53854 0.0
Eu571 Eu 0.63326 0.38141 0.61993 0.0
C572 C 0.63093 0.37706 0.49202 0.0
C573 C 0.64214 0.36561 0.47046 0.0
C574 C 0.64415 0.3679 0.42528 0.0
C575 C 0.63489 0.38163 0.40026 0.0
C576 C 0.62406 0.39344 0.42208 0.0
C577 C 0.62207 0.39116 0.46734 0.0
C578 C 0.66722 0.38319 0.65686 0.0
C579 C 0.63538 0.42486 0.62572 0.0
O580 O 0.65249 0.39263 0.76583 0.0
O581 O 0.63054 0.41163 0.76336 0.0
O582 O 0.60773 0.40746 0.69565 0.0
O583 O 0.61254 0.38225 0.67004 0.0
O584 O 0.6374 0.36485 0.72103 0.0
O585 O 0.62405 0.35653 0.6566 0.0
O586 O 0.61734 0.38421 0.55857 0.0
O587 O 0.63941 0.36532 0.56441 0.0
O588 O 0.66108 0.36988 0.63466 0.0
O589 O 0.65551 0.39532 0.65712 0.0
O590 O 0.6292 0.4113 0.60313 0.0
O591 O 0.6418 0.4218 0.66637 0.0
H592 H 0.62122 0.42111 0.83966 0.0
H593 H 0.61867 0.4167 0.91853 0.0
H594 H 0.65712 0.3734 0.92149 0.0
H595 H 0.6594 0.37758 0.84231 0.0
H596 H 0.649 0.35449 0.48835 0.0
H597 H 0.65281 0.35872 0.40984 0.0
H598 H 0.61656 0.40404 0.40395 0.0
H599 H 0.61313 0.4001 0.48268 0.0
C600 C 0.3711 0.9076 0.22233 0.0
Eu601 Eu 0.37702 0.89819 0.30559 0.0
C602 C 0.37345 0.90242 0.17647 0.0
C603 C 0.38547 0.91213 0.15049 0.0
C604 C 0.3864 0.90908 0.1058 0.0
C605 C 0.37524 0.89631 0.08563 0.0
C606 C 0.36345 0.8863 0.11187 0.0
C607 C 0.36255 0.88933 0.15667 0.0
C608 C 0.41025 0.89739 0.34575 0.0
C609 C 0.38238 0.85423 0.32053 0.0
C610 C 0.38219 0.8716 0.47744 0.0
Eu611 Eu 0.37693 0.88134 0.39431 0.0
C612 C 0.37926 0.87664 0.52314 0.0
C613 C 0.36766 0.86626 0.5489 0.0
C614 C 0.36639 0.86922 0.59356 0.0
C615 C 0.37681 0.88256 0.61387 0.0
C616 C 0.38811 0.89326 0.58781 0.0
C617 C 0.38932 0.89035 0.54307 0.0
C618 C 0.34431 0.88202 0.35049 0.0
C619 C 0.3718 0.92498 0.38334 0.0
O620 O 0.35985 0.89844 0.246 0.0
O621 O 0.38511 0.91252 0.24545 0.0
O622 O 0.40363 0.91083 0.3216 0.0
O623 O 0.39897 0.8846 0.34776 0.0
O624 O 0.37627 0.86758 0.29349 0.0
O625 O 0.38684 0.85728 0.36152 0.0
O626 O 0.39344 0.88122 0.45472 0.0
O627 O 0.36856 0.86629 0.45336 0.0
O628 O 0.35049 0.8683 0.37453 0.0
O629 O 0.35536 0.89491 0.35146 0.0
O630 O 0.37644 0.91094 0.40948 0.0
O631 O 0.36923 0.92334 0.34065 0.0
H632 H 0.39383 0.92254 0.16446 0.0
H633 H 0.39546 0.91726 0.08673 0.0
H634 H 0.3548 0.87619 0.09773 0.0
H635 H 0.35301 0.88169 0.17549 0.0
H636 H 0.35994 0.85541 0.53479 0.0
H637 H 0.3577 0.86056 0.61254 0.0
H638 H 0.39617 0.90382 0.6021 0.0
H639 H 0.39849 0.89856 0.52442 0.0
H640 H 0.11213 0.64867 0.82323 0.0
H641 H 0.11379 0.64585 0.74442 0.0
H642 H 0.15653 0.60743 0.76679 0.0
H643 H 0.1549 0.61013 0.84597 0.0
H644 H 0.16374 0.63099 0.70111 0.0
H645 H 0.11383 0.59386 0.73693 0.0
H646 H 0.08506 0.58678 0.76867 0.0
H647 H 0.06011 0.62864 0.68522 0.0
H648 H 0.0888 0.63615 0.65339 0.0
H649 H 0.16181 0.5989 0.48526 0.0
H650 H 0.16045 0.60159 0.56421 0.0
H651 H 0.11764 0.64 0.54318 0.0
H652 H 0.11896 0.63743 0.46394 0.0
H653 H 0.11054 0.61622 0.60831 0.0
H654 H 0.16055 0.6534 0.57271 0.0
H655 H 0.18936 0.66044 0.5411 0.0
H656 H 0.21415 0.61837 0.62419 0.0
H657 H 0.18542 0.6109 0.6559 0.0
C658 C 0.12176 0.63942 0.81157 0.0
C659 C 0.13328 0.62951 0.84133 0.0
C660 C 0.12272 0.63785 0.76629 0.0
C661 C 0.13512 0.62622 0.74934 0.0
C662 C 0.14682 0.61649 0.77885 0.0
C663 C 0.14589 0.61809 0.82424 0.0
C664 C 0.13596 0.62436 0.70092 0.0
C665 C 0.15215 0.6275 0.68097 0.0
C666 C 0.12079 0.62022 0.67414 0.0
C667 C 0.1035 0.61568 0.69307 0.0
C668 C 0.10224 0.60165 0.72557 0.0
C669 C 0.08594 0.59754 0.74355 0.0
C670 C 0.07077 0.60728 0.72905 0.0
C671 C 0.07187 0.62112 0.69645 0.0
C672 C 0.08815 0.6253 0.67841 0.0
C673 C 0.15224 0.60813 0.49724 0.0
C674 C 0.14058 0.61804 0.46784 0.0
C675 C 0.15145 0.60962 0.54261 0.0
C676 C 0.13909 0.62118 0.55998 0.0
C677 C 0.12731 0.63097 0.5308 0.0
C678 C 0.12806 0.62945 0.48536 0.0
C679 C 0.13832 0.62289 0.60847 0.0
C680 C 0.12214 0.61971 0.62844 0.0
C681 C 0.1535 0.62697 0.63527 0.0
C682 C 0.1708 0.63148 0.61637 0.0
C683 C 0.17212 0.64555 0.58401 0.0
C684 C 0.18844 0.64964 0.56611 0.0
C685 C 0.20357 0.63983 0.58055 0.0
C686 C 0.20241 0.62594 0.613 0.0
C687 C 0.18612 0.62179 0.63097 0.0
H688 H 0.21619 0.64301 0.56665 0.0
H689 H 0.05817 0.60408 0.743 0.0
H690 H 0.61312 0.88845 0.03711 0.0
H691 H 0.61102 0.88718 0.95732 0.0
H692 H 0.6637 0.9095 0.94997 0.0
H693 H 0.66566 0.9114 0.02954 0.0
H694 H 0.64236 0.92459 0.88604 0.0
H695 H 0.65589 0.86388 0.941 0.0
H696 H 0.65169 0.83566 0.98591 0.0
H697 H 0.60032 0.82837 0.92305 0.0
H698 H 0.60412 0.85669 0.87816 0.0
H699 H 0.65946 0.89957 0.66975 0.0
H700 H 0.66036 0.90296 0.74896 0.0
H701 H 0.60765 0.88061 0.75489 0.0
H702 H 0.6069 0.87658 0.67607 0.0
H703 H 0.62865 0.86589 0.81933 0.0
H704 H 0.61575 0.92625 0.76201 0.0
H705 H 0.6208 0.95373 0.7151 0.0
H706 H 0.67141 0.96149 0.78142 0.0
H707 H 0.66682 0.93383 0.82817 0.0
C708 C 0.6242 0.89329 0.01855 0.0
C709 C 0.63962 0.8999 0.04002 0.0
C710 C 0.62304 0.8924 0.97285 0.0
C711 C 0.6373 0.89801 0.94747 0.0
C712 C 0.65254 0.90501 0.9687 0.0
C713 C 0.65371 0.9059 0.01436 0.0
C714 C 0.63649 0.89628 0.89897 0.0
C715 C 0.63955 0.91171 0.87151 0.0
C716 C 0.63251 0.87956 0.8797 0.0
C717 C 0.63022 0.86251 0.90656 0.0
C718 C 0.64365 0.85634 0.937 0.0
C719 C 0.64135 0.84031 0.96241 0.0
C720 C 0.62573 0.83026 0.95742 0.0
C721 C 0.6124 0.83619 0.92693 0.0
C722 C 0.61462 0.85222 0.90147 0.0
C723 C 0.64808 0.8953 0.68791 0.0
C724 C 0.6331 0.88782 0.66635 0.0
C725 C 0.64855 0.89739 0.73322 0.0
C726 C 0.634 0.89219 0.75803 0.0
C727 C 0.61903 0.88476 0.73658 0.0
C728 C 0.61855 0.88265 0.69133 0.0
C729 C 0.63447 0.89419 0.80639 0.0
C730 C 0.63138 0.8788 0.83384 0.0
C731 C 0.63844 0.91092 0.82556 0.0
C732 C 0.64101 0.92787 0.79836 0.0
C733 C 0.628 0.93376 0.76645 0.0
C734 C 0.63078 0.94937 0.73989 0.0
C735 C 0.64643 0.95933 0.74523 0.0
C736 C 0.6593 0.95374 0.77729 0.0
C737 C 0.65661 0.9381 0.80385 0.0
H738 H 0.64857 0.97138 0.72455 0.0
H739 H 0.62398 0.81785 0.97711 0.0
H740 H 0.37156 0.34591 0.36563 0.0
H741 H 0.37116 0.34822 0.28582 0.0
H742 H 0.37167 0.40662 0.28856 0.0
H743 H 0.37138 0.40443 0.3686 0.0
H744 H 0.34895 0.39596 0.22535 0.0
H745 H 0.40937 0.38227 0.26971 0.0
H746 H 0.43367 0.36498 0.30865 0.0
H747 H 0.41875 0.31759 0.23943 0.0
H748 H 0.3942 0.33454 0.20049 0.0
H749 H 0.37392 0.41565 1.00791 0.0
H750 H 0.373 0.41248 0.08744 0.0
H751 H 0.37196 0.35422 0.08094 0.0
H752 H 0.37348 0.35726 1.00109 0.0
H753 H 0.39453 0.36427 0.14586 0.0
H754 H 0.33443 0.37826 0.1003 0.0
H755 H 0.3103 0.39572 0.06116 0.0
H756 H 0.32473 0.44269 0.13248 0.0
H757 H 0.34912 0.42558 0.17163 0.0
C758 C 0.37134 0.35928 0.34939 0.0
C759 C 0.37149 0.37499 0.37386 0.0
C760 C 0.37133 0.36058 0.30359 0.0
C761 C 0.37165 0.3776 0.28096 0.0
C762 C 0.37151 0.39332 0.30516 0.0
C763 C 0.37149 0.39204 0.35104 0.0
C764 C 0.37214 0.37898 0.23215 0.0
C765 C 0.35907 0.38922 0.20805 0.0
C766 C 0.38506 0.36984 0.20925 0.0
C767 C 0.39984 0.35963 0.23251 0.0
C768 C 0.41119 0.36813 0.26304 0.0
C769 C 0.42502 0.35839 0.28507 0.0
C770 C 0.42772 0.34019 0.27661 0.0
C771 C 0.41663 0.33169 0.246 0.0
C772 C 0.40276 0.34136 0.22392 0.0
C773 C 0.37368 0.40212 0.02328 0.0
C774 C 0.37385 0.38671 0.99784 0.0
C775 C 0.37294 0.40034 0.06889 0.0
C776 C 0.37219 0.38311 0.09037 0.0
C777 C 0.37246 0.36767 0.0652 0.0
C778 C 0.37319 0.36944 0.01946 0.0
C779 C 0.37137 0.38129 0.13908 0.0
C780 C 0.38439 0.37097 0.16316 0.0
C781 C 0.35842 0.39038 0.16195 0.0
C782 C 0.34371 0.40068 0.13861 0.0
C783 C 0.33254 0.39235 0.10741 0.0
C784 C 0.3188 0.40218 0.08526 0.0
C785 C 0.31601 0.42031 0.09426 0.0
C786 C 0.32692 0.42865 0.12551 0.0
C787 C 0.3407 0.41889 0.14772 0.0
H788 H 0.30536 0.4279 0.07708 0.0
H789 H 0.43844 0.33267 0.29369 0.0
H790 H 0.9008 0.12428 0.55749 0.0
H791 H 0.9016 0.12637 0.47772 0.0
H792 H 0.84545 0.1156 0.46713 0.0
H793 H 0.84469 0.1126 0.54677 0.0
H794 H 0.86135 0.09702 0.40973 0.0
H795 H 0.86329 0.15912 0.44906 0.0
H796 H 0.87455 0.18557 0.48816 0.0
H797 H 0.92509 0.18032 0.43134 0.0
H798 H 0.9142 0.15367 0.39233 0.0
H799 H 0.84829 0.12502 0.18391 0.0
H800 H 0.84733 0.12262 0.26383 0.0
H801 H 0.90398 0.12998 0.27512 0.0
H802 H 0.90499 0.13284 0.19537 0.0
H803 H 0.88766 0.15038 0.33184 0.0
H804 H 0.88522 0.08812 0.29223 0.0
H805 H 0.87344 0.06201 0.25265 0.0
H806 H 0.82305 0.06809 0.30966 0.0
H807 H 0.83446 0.09441 0.34913 0.0
C808 C 0.88862 0.12219 0.5383 0.0
C809 C 0.87266 0.11835 0.55894 0.0
C810 C 0.88907 0.1236 0.49252 0.0
C811 C 0.87353 0.12141 0.46612 0.0
C812 C 0.85762 0.11744 0.48659 0.0
C813 C 0.85718 0.11593 0.53233 0.0
C814 C 0.87388 0.12304 0.41726 0.0
C815 C 0.86689 0.10882 0.39275 0.0
C816 C 0.88141 0.13824 0.3948 0.0
C817 C 0.88798 0.15429 0.41812 0.0
C818 C 0.87685 0.16352 0.44516 0.0
C819 C 0.88316 0.17856 0.46726 0.0
C820 C 0.90054 0.18459 0.46233 0.0
C821 C 0.91164 0.17562 0.43518 0.0
C822 C 0.9054 0.16055 0.41304 0.0
C823 C 0.86054 0.1262 0.20336 0.0
C824 C 0.87673 0.12904 0.18302 0.0
C825 C 0.85999 0.12468 0.24913 0.0
C826 C 0.87561 0.12594 0.27567 0.0
C827 C 0.89176 0.1289 0.25547 0.0
C828 C 0.89233 0.13036 0.20975 0.0
C829 C 0.87514 0.12437 0.32444 0.0
C830 C 0.88211 0.1386 0.34889 0.0
C831 C 0.86751 0.10922 0.34682 0.0
C832 C 0.86065 0.09335 0.32329 0.0
C833 C 0.87159 0.08398 0.29606 0.0
C834 C 0.86498 0.06912 0.2737 0.0
C835 C 0.84749 0.06343 0.27855 0.0
C836 C 0.83658 0.07254 0.30589 0.0
C837 C 0.84312 0.08741 0.32829 0.0
H838 H 0.8424 0.05192 0.2612 0.0
H839 H 0.9054 0.19624 0.47946 0.0
H840 H 0.1086 0.36619 0.18641 0.0
H841 H 0.10769 0.36967 0.26533 0.0
H842 H 0.15383 0.40417 0.26133 0.0
H843 H 0.15469 0.401 0.18237 0.0
H844 H 0.15738 0.3786 0.32691 0.0
H845 H 0.11252 0.4215 0.27496 0.0
H846 H 0.08518 0.43161 0.23383 0.0
H847 H 0.05485 0.39282 0.30828 0.0
H848 H 0.08205 0.3823 0.34946 0.0
H849 H 0.15838 0.41132 0.53915 0.0
H850 H 0.15618 0.40916 0.45979 0.0
H851 H 0.10879 0.3768 0.47082 0.0
H852 H 0.11082 0.37911 0.55063 0.0
H853 H 0.10516 0.40022 0.40191 0.0
H854 H 0.14949 0.35735 0.45419 0.0
H855 H 0.17662 0.3468 0.49553 0.0
H856 H 0.20774 0.38458 0.42026 0.0
H857 H 0.18075 0.39555 0.37887 0.0
C858 C 0.11837 0.3748 0.20208 0.0
C859 C 0.13174 0.38328 0.17773 0.0
C860 C 0.11786 0.37673 0.24737 0.0
C861 C 0.13065 0.38724 0.26946 0.0
C862 C 0.14386 0.39591 0.2452 0.0
C863 C 0.14436 0.39403 0.19995 0.0
C864 C 0.1307 0.38873 0.318 0.0
C865 C 0.14603 0.38357 0.34319 0.0
C866 C 0.11572 0.39465 0.33961 0.0
C867 C 0.09935 0.40099 0.31497 0.0
C868 C 0.10004 0.41502 0.28231 0.0
C869 C 0.08457 0.42084 0.25904 0.0
C870 C 0.0683 0.41282 0.26835 0.0
C871 C 0.06746 0.399 0.30105 0.0
C872 C 0.0829 0.39311 0.32439 0.0
C873 C 0.14751 0.40366 0.52479 0.0
C874 C 0.1349 0.39519 0.55144 0.0
C875 C 0.14627 0.40243 0.47929 0.0
C876 C 0.13252 0.39249 0.45913 0.0
C877 C 0.11957 0.38448 0.48547 0.0
C878 C 0.12073 0.38583 0.53113 0.0
C879 C 0.13192 0.39028 0.41076 0.0
C880 C 0.1165 0.39524 0.38562 0.0
C881 C 0.14679 0.38406 0.38912 0.0
C882 C 0.16307 0.37738 0.41369 0.0
C883 C 0.1621 0.36349 0.44665 0.0
C884 C 0.17746 0.35743 0.47007 0.0
C885 C 0.19388 0.36504 0.4606 0.0
C886 C 0.195 0.37871 0.42759 0.0
C887 C 0.17968 0.38484 0.40411 0.0
H888 H 0.20575 0.36033 0.47878 0.0
H889 H 0.05633 0.41735 0.2503 0.0
H890 H 0.85023 0.87085 0.87203 0.0
H891 H 0.84807 0.87487 0.79204 0.0
H892 H 0.90421 0.88564 0.79085 0.0
H893 H 0.90638 0.88206 0.87072 0.0
H894 H 0.88592 0.90881 0.73468 0.0
H895 H 0.88809 0.84444 0.76573 0.0
H896 H 0.87876 0.8152 0.7999 0.0
H897 H 0.82712 0.82136 0.73623 0.0
H898 H 0.83608 0.85077 0.70214 0.0
H899 H 0.89754 0.896 0.50842 0.0
H900 H 0.89964 0.89292 0.58858 0.0
H901 H 0.84355 0.88191 0.59016 0.0
H902 H 0.84144 0.88452 0.51022 0.0
H903 H 0.86187 0.85896 0.64617 0.0
H904 H 0.85981 0.92333 0.61476 0.0
H905 H 0.86923 0.95253 0.58057 0.0
H906 H 0.92077 0.94633 0.64478 0.0
H907 H 0.91172 0.91696 0.6789 0.0
C908 C 0.86207 0.87428 0.85476 0.0
C909 C 0.8785 0.87599 0.87775 0.0
C910 C 0.86085 0.87643 0.80902 0.0
C911 C 0.87603 0.88032 0.78537 0.0
C912 C 0.89234 0.88255 0.80834 0.0
C913 C 0.89358 0.88035 0.85399 0.0
C914 C 0.87501 0.88178 0.73668 0.0
C915 C 0.88086 0.89783 0.71531 0.0
C916 C 0.86811 0.86759 0.71137 0.0
C917 C 0.8627 0.8499 0.73176 0.0
C918 C 0.8747 0.83963 0.7593 0.0
C919 C 0.86949 0.82301 0.77861 0.0
C920 C 0.85234 0.81645 0.77034 0.0
C921 C 0.84039 0.82647 0.74266 0.0
C922 C 0.84553 0.84311 0.72331 0.0
C923 C 0.88569 0.89278 0.52585 0.0
C924 C 0.8693 0.89063 0.50291 0.0
C925 C 0.88687 0.89117 0.57167 0.0
C926 C 0.8717 0.8874 0.59544 0.0
C927 C 0.85541 0.88491 0.57257 0.0
C928 C 0.85421 0.88656 0.52685 0.0
C929 C 0.87274 0.886 0.64414 0.0
C930 C 0.86691 0.86995 0.66552 0.0
C931 C 0.87967 0.90019 0.66943 0.0
C932 C 0.88514 0.91786 0.64901 0.0
C933 C 0.8732 0.92812 0.6213 0.0
C934 C 0.87846 0.94472 0.60199 0.0
C935 C 0.8956 0.95126 0.6104 0.0
C936 C 0.9075 0.94124 0.63824 0.0
C937 C 0.90231 0.92462 0.6576 0.0
H938 H 0.89966 0.96411 0.59543 0.0
H939 H 0.84834 0.80358 0.7853 0.0
H940 H 0.38764 0.65985 0.68779 0.0
H941 H 0.3853 0.65725 0.76706 0.0
H942 H 0.35651 0.607 0.75527 0.0
H943 H 0.35877 0.60956 0.67548 0.0
H944 H 0.34205 0.62733 0.81473 0.0
H945 H 0.40058 0.60728 0.78884 0.0
H946 H 0.43024 0.60907 0.75848 0.0
H947 H 0.44165 0.65718 0.82831 0.0
H948 H 0.41194 0.65582 0.85862 0.0
H949 H 0.35482 0.59886 0.04125 0.0
H950 H 0.35422 0.6014 0.96132 0.0
H951 H 0.38196 0.65249 0.96644 0.0
H952 H 0.38239 0.65021 0.04643 0.0
H953 H 0.39673 0.63069 0.91026 0.0
H954 H 0.33777 0.65052 0.93591 0.0
H955 H 0.30814 0.64821 0.96635 0.0
H956 H 0.29769 0.59967 0.89745 0.0
H957 H 0.32737 0.60156 0.86706 0.0
C958 C 0.3809 0.64815 0.70197 0.0
C959 C 0.3736 0.63479 0.67513 0.0
C960 C 0.37955 0.6467 0.74743 0.0
C961 C 0.37101 0.63175 0.76745 0.0
C962 C 0.36322 0.61863 0.74072 0.0
C963 C 0.3645 0.62013 0.69506 0.0
C964 C 0.37048 0.62979 0.81622 0.0
C965 C 0.35403 0.6278 0.83558 0.0
C966 C 0.38607 0.63071 0.8437 0.0
C967 C 0.40397 0.63154 0.82568 0.0
C968 C 0.40937 0.61832 0.79747 0.0
C969 C 0.42619 0.61924 0.78031 0.0
C970 C 0.43781 0.63326 0.79138 0.0
C971 C 0.43263 0.64635 0.81972 0.0
C972 C 0.41581 0.64549 0.83693 0.0
C973 C 0.36051 0.61083 0.02551 0.0
C974 C 0.36864 0.62434 0.05062 0.0
C975 C 0.36021 0.61223 0.97963 0.0
C976 C 0.36796 0.62719 0.95764 0.0
C977 C 0.37594 0.64077 0.98254 0.0
C978 C 0.37622 0.63941 0.0284 0.0
C979 C 0.36829 0.62842 0.90881 0.0
C980 C 0.38474 0.63022 0.88942 0.0
C981 C 0.35272 0.62722 0.88141 0.0
C982 C 0.33486 0.62608 0.89957 0.0
C983 C 0.32921 0.63927 0.92754 0.0
C984 C 0.3124 0.63805 0.94473 0.0
C985 C 0.30106 0.62378 0.93394 0.0
C986 C 0.3065 0.61071 0.90583 0.0
C987 C 0.32331 0.61186 0.88859 0.0
H988 H 0.28805 0.62286 0.94727 0.0
H989 H 0.45083 0.63395 0.77806 0.0
H990 H 0.61115 0.11022 0.9696 0.0
H991 H 0.60947 0.11214 0.04886 0.0
H992 H 0.66538 0.12407 0.05966 0.0
H993 H 0.66716 0.12217 0.98045 0.0
H994 H 0.65719 0.10009 0.12297 0.0
H995 H 0.63298 0.15729 0.06736 0.0
H996 H 0.61281 0.17737 0.02175 0.0
H997 H 0.56797 0.15293 0.08285 0.0
H998 H 0.58788 0.13253 0.12843 0.0
H999 H 0.66075 0.13243 0.33921 0.0
H1000 H 0.66193 0.12921 0.26031 0.0
H1001 H 0.6063 0.11588 0.2532 0.0
H1002 H 0.60503 0.11885 0.3322 0.0
H1003 H 0.61393 0.14004 0.18831 0.0
H1004 H 0.63802 0.08348 0.24553 0.0
H1005 H 0.6581 0.06374 0.29225 0.0
H1006 H 0.70299 0.08683 0.22865 0.0
H1007 H 0.68319 0.10697 0.18207 0.0
C1008 C 0.62306 0.11349 0.98869 0.0
C1009 C 0.63929 0.11607 0.9683 0.0
C1010 C 0.62209 0.11454 0.0342 0.0
C1011 C 0.63727 0.11841 0.06058 0.0
C1012 C 0.65347 0.121 0.04031 0.0
C1013 C 0.65447 0.11988 0.99485 0.0
C1014 C 0.63632 0.11967 0.10921 0.0
C1015 C 0.64787 0.10902 0.13716 0.0
C1016 C 0.62389 0.13094 0.12818 0.0
C1017 C 0.61191 0.14326 0.10099 0.0
C1018 C 0.61881 0.15611 0.07084 0.0
C1019 C 0.60743 0.16757 0.04503 0.0
C1020 C 0.58912 0.1664 0.04932 0.0
C1021 C 0.58216 0.15381 0.07952 0.0
C1022 C 0.59348 0.1423 0.10538 0.0
C1023 C 0.6488 0.12852 0.32112 0.0
C1024 C 0.63279 0.12591 0.34248 0.0
C1025 C 0.64948 0.12675 0.27578 0.0
C1026 C 0.63422 0.1222 0.25052 0.0
C1027 C 0.61825 0.11949 0.27173 0.0
C1028 C 0.61755 0.12124 0.31706 0.0
C1029 C 0.63484 0.12055 0.202 0.0
C1030 C 0.62323 0.1311 0.1741 0.0
C1031 C 0.64719 0.10917 0.18311 0.0
C1032 C 0.65912 0.09686 0.21056 0.0
C1033 C 0.65218 0.08444 0.2417 0.0
C1034 C 0.66351 0.07318 0.26815 0.0
C1035 C 0.68181 0.07406 0.26349 0.0
C1036 C 0.68881 0.08618 0.23226 0.0
C1037 C 0.67754 0.09752 0.20581 0.0
H1038 H 0.69056 0.06533 0.284 0.0
H1039 H 0.58033 0.17528 0.02931 0.0
H1040 H 0.89854 0.35958 0.18773 0.0
H1041 H 0.8971 0.3632 0.26631 0.0
H1042 H 0.865 0.41113 0.24113 0.0
H1043 H 0.86687 0.40792 0.16216 0.0
H1044 H 0.88965 0.41642 0.30566 0.0
H1045 H 0.84668 0.37024 0.27437 0.0
H1046 H 0.83581 0.34147 0.24514 0.0
H1047 H 0.87348 0.31175 0.32989 0.0
H1048 H 0.88475 0.34038 0.35921 0.0
H1049 H 0.85875 0.42238 0.52038 0.0
H1050 H 0.86126 0.41939 0.44186 0.0
H1051 H 0.89235 0.37078 0.46742 0.0
H1052 H 0.88935 0.37333 0.5462 0.0
H1053 H 0.86844 0.36587 0.40263 0.0
H1054 H 0.91132 0.41189 0.43445 0.0
H1055 H 0.92239 0.44061 0.46359 0.0
H1056 H 0.8852 0.47058 0.378 0.0
H1057 H 0.87373 0.44201 0.34876 0.0
C1058 C 0.89133 0.37104 0.19873 0.0
C1059 C 0.88284 0.38346 0.16827 0.0
C1060 C 0.89035 0.37298 0.24387 0.0
C1061 C 0.88075 0.38732 0.25994 0.0
C1062 C 0.87244 0.3999 0.22971 0.0
C1063 C 0.8734 0.39796 0.18446 0.0
C1064 C 0.87939 0.38915 0.30818 0.0
C1065 C 0.88477 0.40545 0.32674 0.0
C1066 C 0.87346 0.37471 0.33613 0.0
C1067 C 0.86667 0.35747 0.31868 0.0
C1068 C 0.85274 0.35758 0.28653 0.0
C1069 C 0.84649 0.34129 0.26999 0.0
C1070 C 0.85398 0.32479 0.28556 0.0
C1071 C 0.86771 0.32454 0.31781 0.0
C1072 C 0.87402 0.34079 0.33443 0.0
C1073 C 0.86603 0.41096 0.50945 0.0
C1074 C 0.87381 0.39808 0.53996 0.0
C1075 C 0.86763 0.40938 0.46435 0.0
C1076 C 0.87718 0.39497 0.4484 0.0
C1077 C 0.88496 0.38207 0.47872 0.0
C1078 C 0.88336 0.38364 0.5239 0.0
C1079 C 0.87871 0.39316 0.40018 0.0
C1080 C 0.87334 0.37685 0.3816 0.0
C1081 C 0.88467 0.40759 0.37224 0.0
C1082 C 0.89155 0.42479 0.38973 0.0
C1083 C 0.9054 0.4246 0.42209 0.0
C1084 C 0.91177 0.44085 0.43858 0.0
C1085 C 0.90447 0.4574 0.42274 0.0
C1086 C 0.89082 0.45774 0.39029 0.0
C1087 C 0.8844 0.44153 0.37371 0.0
H1088 H 0.90942 0.46997 0.43554 0.0
H1089 H 0.84912 0.3122 0.27272 0.0
H1090 H 0.40446 0.14672 0.34148 0.0
H1091 H 0.40317 0.1437 0.26232 0.0
H1092 H 0.36223 0.10317 0.27495 0.0
H1093 H 0.36385 0.10568 0.35454 0.0
H1094 H 0.38574 0.09309 0.21798 0.0
H1095 H 0.3527 0.14717 0.23784 0.0
H1096 H 0.34739 0.17756 0.26479 0.0
H1097 H 0.39098 0.19901 0.19325 0.0
H1098 H 0.39671 0.16868 0.16634 0.0
H1099 H 0.35719 0.09366 0.99343 0.0
H1100 H 0.35877 0.09653 0.07264 0.0
H1101 H 0.39972 0.13703 0.05955 0.0
H1102 H 0.39782 0.13466 0.97991 0.0
H1103 H 0.3763 0.14712 0.11675 0.0
H1104 H 0.40924 0.09299 0.09666 0.0
H1105 H 0.41446 0.06259 0.06967 0.0
H1106 H 0.37095 0.04121 0.1416 0.0
H1107 H 0.36531 0.07156 0.16855 0.0
C1108 C 0.3953 0.13699 0.32763 0.0
C1109 C 0.38427 0.12644 0.35477 0.0
C1110 C 0.39443 0.13543 0.2821 0.0
C1111 C 0.38243 0.12337 0.26227 0.0
C1112 C 0.37156 0.11263 0.28925 0.0
C1113 C 0.37241 0.1142 0.33485 0.0
C1114 C 0.38127 0.12195 0.21353 0.0
C1115 C 0.38342 0.10489 0.19591 0.0
C1116 C 0.37867 0.13735 0.18437 0.0
C1117 C 0.37524 0.15561 0.20044 0.0
C1118 C 0.36124 0.15834 0.22814 0.0
C1119 C 0.35814 0.17556 0.24336 0.0
C1120 C 0.36887 0.1902 0.23084 0.0
C1121 C 0.3827 0.18765 0.20298 0.0
C1122 C 0.38587 0.17045 0.1877 0.0
C1123 C 0.36643 0.10334 1.0072 0.0
C1124 C 0.37736 0.11394 0.97991 0.0
C1125 C 0.36746 0.10482 0.05275 0.0
C1126 C 0.37953 0.11684 0.07245 0.0
C1127 C 0.39034 0.12759 0.04534 0.0
C1128 C 0.38933 0.12611 0.99971 0.0
C1129 C 0.38077 0.11826 0.12119 0.0
C1130 C 0.37862 0.13533 0.13881 0.0
C1131 C 0.38336 0.10286 0.15035 0.0
C1132 C 0.38675 0.08459 0.13427 0.0
C1133 C 0.4007 0.08184 0.10644 0.0
C1134 C 0.40375 0.06462 0.0912 0.0
C1135 C 0.39302 0.04999 0.10382 0.0
C1136 C 0.37924 0.05256 0.1318 0.0
C1137 C 0.37612 0.06977 0.1471 0.0
H1138 H 0.3954 0.03666 0.09199 0.0
H1139 H 0.36644 0.20352 0.24265 0.0
H1140 H 0.66526 0.64021 0.04634 0.0
H1141 H 0.66754 0.63947 0.96689 0.0
H1142 H 0.62124 0.60515 0.95924 0.0
H1143 H 0.61888 0.60584 0.03841 0.0
H1144 H 0.64608 0.59373 0.90749 0.0
H1145 H 0.61859 0.65076 0.93388 0.0
H1146 H 0.61635 0.68041 0.96717 0.0
H1147 H 0.66448 0.69796 0.90875 0.0
H1148 H 0.66714 0.6683 0.87559 0.0
H1149 H 0.6215 0.60492 0.68275 0.0
H1150 H 0.62166 0.60591 0.76247 0.0
H1151 H 0.66825 0.63989 0.76118 0.0
H1152 H 0.66816 0.63897 0.68133 0.0
H1153 H 0.64488 0.65156 0.81751 0.0
H1154 H 0.67165 0.59477 0.7886 0.0
H1155 H 0.67356 0.56519 0.75487 0.0
H1156 H 0.62656 0.54716 0.81784 0.0
H1157 H 0.62423 0.57675 0.85146 0.0
C1158 C 0.65559 0.63249 0.0277 0.0
C1159 C 0.64186 0.62313 0.04867 0.0
C1160 C 0.6569 0.63208 0.98233 0.0
C1161 C 0.64442 0.62245 0.95705 0.0
C1162 C 0.63104 0.61265 0.97808 0.0
C1163 C 0.62975 0.613 0.02339 0.0
C1164 C 0.64497 0.62288 0.90859 0.0
C1165 C 0.64564 0.60637 0.88779 0.0
C1166 C 0.64479 0.63938 0.88292 0.0
C1167 C 0.64316 0.65725 0.90265 0.0
C1168 C 0.62877 0.66089 0.92841 0.0
C1169 C 0.62741 0.6777 0.94721 0.0
C1170 C 0.64029 0.69104 0.94018 0.0
C1171 C 0.65453 0.6876 0.91423 0.0
C1172 C 0.65597 0.6708 0.8954 0.0
C1173 C 0.6318 0.61258 0.69944 0.0
C1174 C 0.6449 0.62176 0.67576 0.0
C1175 C 0.63187 0.61314 0.74499 0.0
C1176 C 0.64515 0.62271 0.76784 0.0
C1177 C 0.65791 0.63238 0.74421 0.0
C1178 C 0.6578 0.63189 0.69859 0.0
C1179 C 0.64585 0.6224 0.81642 0.0
C1180 C 0.64541 0.63893 0.83722 0.0
C1181 C 0.64623 0.6059 0.8421 0.0
C1182 C 0.64769 0.58804 0.82225 0.0
C1183 C 0.66166 0.58454 0.79502 0.0
C1184 C 0.66282 0.56777 0.77595 0.0
C1185 C 0.65017 0.55432 0.78413 0.0
C1186 C 0.63635 0.5576 0.8115 0.0
C1187 C 0.63511 0.57436 0.8306 0.0
H1188 H 0.65109 0.54134 0.76932 0.0
H1189 H 0.63922 0.70405 0.95476 0.0
H1190 H 0.1534 0.91427 0.48662 0.0
H1191 H 0.15199 0.91214 0.5662 0.0
H1192 H 0.11685 0.86614 0.55688 0.0
H1193 H 0.11819 0.86822 0.47696 0.0
H1194 H 0.10533 0.88878 0.61445 0.0
H1195 H 0.1613 0.86132 0.59016 0.0
H1196 H 0.19102 0.85959 0.56054 0.0
H1197 H 0.20751 0.90632 0.63042 0.0
H1198 H 0.17779 0.90848 0.66 0.0
H1199 H 0.11138 0.85935 0.83856 0.0
H1200 H 0.11308 0.8616 0.75907 0.0
H1201 H 0.14828 0.90749 0.76952 0.0
H1202 H 0.14667 0.90529 0.8494 0.0
H1203 H 0.15982 0.8851 0.7114 0.0
H1204 H 0.10396 0.91258 0.7358 0.0
H1205 H 0.07424 0.91444 0.76537 0.0
H1206 H 0.05754 0.86786 0.69523 0.0
H1207 H 0.08725 0.86556 0.66569 0.0
C1208 C 0.14553 0.90354 0.50142 0.0
C1209 C 0.13604 0.89131 0.47517 0.0
C1210 C 0.14471 0.90236 0.54708 0.0
C1211 C 0.13452 0.88881 0.56785 0.0
C1212 C 0.12484 0.87671 0.54177 0.0
C1213 C 0.12559 0.87794 0.49599 0.0
C1214 C 0.13383 0.88741 0.61665 0.0
C1215 C 0.11725 0.88771 0.63559 0.0
C1216 C 0.14936 0.88649 0.64453 0.0
C1217 C 0.16727 0.88516 0.62696 0.0
C1218 C 0.17122 0.87131 0.59896 0.0
C1219 C 0.18808 0.87024 0.58222 0.0
C1220 C 0.20113 0.88287 0.5935 0.0
C1221 C 0.19738 0.89657 0.62166 0.0
C1222 C 0.18054 0.89771 0.63846 0.0
C1223 C 0.11934 0.87008 0.82403 0.0
C1224 C 0.12875 0.88226 0.85057 0.0
C1225 C 0.12032 0.87133 0.77842 0.0
C1226 C 0.13058 0.8849 0.75798 0.0
C1227 C 0.14024 0.89691 0.78437 0.0
C1228 C 0.13933 0.89562 0.83012 0.0
C1229 C 0.13132 0.88644 0.70919 0.0
C1230 C 0.1479 0.88617 0.69025 0.0
C1231 C 0.11579 0.88741 0.68131 0.0
C1232 C 0.09788 0.8888 0.69886 0.0
C1233 C 0.09399 0.90265 0.72693 0.0
C1234 C 0.07714 0.9038 0.74365 0.0
C1235 C 0.06402 0.89125 0.73227 0.0
C1236 C 0.06772 0.87756 0.70405 0.0
C1237 C 0.08455 0.87634 0.68728 0.0
H1238 H 0.05098 0.89216 0.74525 0.0
H1239 H 0.21417 0.88202 0.58051 0.0
H1240 H 0.85094 0.62858 0.83863 0.0
H1241 H 0.85056 0.62572 0.75932 0.0
H1242 H 0.9076 0.62255 0.76499 0.0
H1243 H 0.90812 0.62593 0.84415 0.0
H1244 H 0.89665 0.64458 0.69787 0.0
H1245 H 0.88121 0.58469 0.7501 0.0
H1246 H 0.86428 0.56148 0.79125 0.0
H1247 H 0.81672 0.57729 0.71705 0.0
H1248 H 0.83333 0.60078 0.67584 0.0
H1249 H 0.90727 0.61215 0.4849 0.0
H1250 H 0.90695 0.61528 0.56407 0.0
H1251 H 0.85012 0.62111 0.55445 0.0
H1252 H 0.85032 0.61774 0.47513 0.0
H1253 H 0.86057 0.59792 0.62321 0.0
H1254 H 0.87645 0.65767 0.5704 0.0
H1255 H 0.89373 0.68056 0.52915 0.0
H1256 H 0.94092 0.66454 0.6046 0.0
H1257 H 0.92396 0.64136 0.64592 0.0
C1258 C 0.86344 0.62736 0.82309 0.0
C1259 C 0.87956 0.62746 0.84819 0.0
C1260 C 0.86319 0.62554 0.77759 0.0
C1261 C 0.87905 0.62373 0.75583 0.0
C1262 C 0.89516 0.62387 0.78076 0.0
C1263 C 0.89542 0.62564 0.82627 0.0
C1264 C 0.87887 0.62198 0.70713 0.0
C1265 C 0.88894 0.6342 0.68172 0.0
C1266 C 0.86851 0.60873 0.68549 0.0
C1267 C 0.85848 0.59463 0.7102 0.0
C1268 C 0.86711 0.58332 0.74281 0.0
C1269 C 0.85758 0.5701 0.7661 0.0
C1270 C 0.83942 0.56795 0.75686 0.0
C1271 C 0.83077 0.57899 0.72422 0.0
C1272 C 0.84024 0.59226 0.70086 0.0
C1273 C 0.89468 0.61406 0.49955 0.0
C1274 C 0.87883 0.61472 0.47337 0.0
C1275 C 0.89453 0.61598 0.54493 0.0
C1276 C 0.87852 0.61857 0.56551 0.0
C1277 C 0.86266 0.61916 0.53953 0.0
C1278 C 0.86281 0.61739 0.49403 0.0
C1279 C 0.87837 0.62049 0.61408 0.0
C1280 C 0.86826 0.60831 0.63942 0.0
C1281 C 0.88873 0.63372 0.63569 0.0
C1282 C 0.89897 0.64766 0.61095 0.0
C1283 C 0.89054 0.65892 0.57795 0.0
C1284 C 0.90027 0.67197 0.55461 0.0
C1285 C 0.91842 0.67397 0.56417 0.0
C1286 C 0.92687 0.66295 0.59719 0.0
C1287 C 0.9172 0.64987 0.62061 0.0
H1288 H 0.92593 0.68408 0.54607 0.0
H1289 H 0.83206 0.55769 0.77492 0.0
H1290 H 0.11604 0.1513 0.52226 0.0
H1291 H 0.11838 0.15301 0.44288 0.0
H1292 H 0.16457 0.11861 0.45585 0.0
H1293 H 0.16275 0.11742 0.5355 0.0
H1294 H 0.16879 0.14512 0.39424 0.0
H1295 H 0.12335 0.10152 0.42887 0.0
H1296 H 0.09574 0.09078 0.46153 0.0
H1297 H 0.06612 0.13138 0.38424 0.0
H1298 H 0.09361 0.14252 0.35154 0.0
H1299 H 0.16909 0.11004 0.18319 0.0
H1300 H 0.16774 0.11455 0.2614 0.0
H1301 H 0.12209 0.14912 0.23629 0.0
H1302 H 0.12306 0.14422 0.15778 0.0
H1303 H 0.11703 0.12491 0.30317 0.0
H1304 H 0.16257 0.16702 0.26443 0.0
H1305 H 0.1903 0.17717 0.23146 0.0
H1306 H 0.21989 0.13894 0.31597 0.0
H1307 H 0.1923 0.12838 0.34905 0.0
C1308 C 0.12693 0.14439 0.5084 0.0
C1309 C 0.13916 0.13414 0.53541 0.0
C1310 C 0.12812 0.14521 0.46288 0.0
C1311 C 0.14146 0.13567 0.44327 0.0
C1312 C 0.15409 0.126 0.47017 0.0
C1313 C 0.15294 0.12521 0.51572 0.0
C1314 C 0.14194 0.13525 0.39476 0.0
C1315 C 0.15753 0.14055 0.37437 0.0
C1316 C 0.12711 0.12969 0.36862 0.0
C1317 C 0.11056 0.12298 0.38812 0.0
C1318 C 0.11097 0.10824 0.41909 0.0
C1319 C 0.09534 0.10207 0.43757 0.0
C1320 C 0.07919 0.11043 0.42506 0.0
C1321 C 0.07864 0.12495 0.39395 0.0
C1322 C 0.09424 0.13119 0.37542 0.0
C1323 C 0.15871 0.11855 0.19424 0.0
C1324 C 0.14613 0.1267 0.16416 0.0
C1325 C 0.15807 0.12128 0.239 0.0
C1326 C 0.14493 0.13234 0.25477 0.0
C1327 C 0.1324 0.14059 0.22487 0.0
C1328 C 0.13304 0.13788 0.17997 0.0
C1329 C 0.14394 0.13465 0.30263 0.0
C1330 C 0.12825 0.12966 0.32295 0.0
C1331 C 0.1587 0.14043 0.32867 0.0
C1332 C 0.17534 0.14681 0.30898 0.0
C1333 C 0.17497 0.16068 0.27577 0.0
C1334 C 0.19067 0.16653 0.25709 0.0
C1335 C 0.20684 0.15868 0.27154 0.0
C1336 C 0.20735 0.145 0.30478 0.0
C1337 C 0.19169 0.13909 0.32354 0.0
H1338 H 0.21898 0.16323 0.25704 0.0
H1339 H 0.06711 0.10563 0.4394 0.0
H1340 H 0.63616 0.41255 0.3463 0.0
H1341 H 0.63679 0.41473 0.26636 0.0
H1342 H 0.63657 0.35633 0.26359 0.0
H1343 H 0.63578 0.35403 0.34334 0.0
H1344 H 0.65992 0.37064 0.20812 0.0
H1345 H 0.59897 0.38118 0.23745 0.0
H1346 H 0.57426 0.3962 0.2712 0.0
H1347 H 0.58875 0.44723 0.20924 0.0
H1348 H 0.61371 0.43256 0.17558 0.0
H1349 H 0.63799 0.36381 0.98054 0.0
H1350 H 0.63782 0.36156 0.06057 0.0
H1351 H 0.63662 0.41995 0.06342 0.0
H1352 H 0.63679 0.4223 0.98358 0.0
H1353 H 0.61405 0.40562 0.11899 0.0
H1354 H 0.67492 0.3953 0.08958 0.0
H1355 H 0.69977 0.3805 0.05589 0.0
H1356 H 0.68569 0.32935 0.11797 0.0
H1357 H 0.66059 0.34382 0.15157 0.0
C1358 C 0.63614 0.40016 0.32872 0.0
C1359 C 0.6359 0.38311 0.3515 0.0
C1360 C 0.63652 0.40142 0.28293 0.0
C1361 C 0.63654 0.38569 0.25875 0.0
C1362 C 0.6366 0.36868 0.2814 0.0
C1363 C 0.63623 0.36739 0.32715 0.0
C1364 C 0.63638 0.38692 0.2099 0.0
C1365 C 0.64976 0.3781 0.18863 0.0
C1366 C 0.62336 0.39697 0.1843 0.0
C1367 C 0.60832 0.40581 0.20436 0.0
C1368 C 0.59697 0.39564 0.23129 0.0
C1369 C 0.58291 0.40408 0.25036 0.0
C1370 C 0.57997 0.42267 0.24246 0.0
C1371 C 0.59106 0.43284 0.21538 0.0
C1372 C 0.60516 0.42447 0.19627 0.0
C1373 C 0.6378 0.37618 0.99819 0.0
C1374 C 0.63739 0.39324 0.97544 0.0
C1375 C 0.63771 0.37488 0.04403 0.0
C1376 C 0.6374 0.39059 0.06826 0.0
C1377 C 0.63681 0.40761 0.0456 0.0
C1378 C 0.63685 0.40893 0.99983 0.0
C1379 C 0.63761 0.38936 0.11715 0.0
C1380 C 0.62423 0.39816 0.13844 0.0
C1381 C 0.65066 0.37933 0.14276 0.0
C1382 C 0.66577 0.37061 0.12273 0.0
C1383 C 0.67704 0.38087 0.09578 0.0
C1384 C 0.69118 0.37255 0.07675 0.0
C1385 C 0.69428 0.35399 0.08469 0.0
C1386 C 0.68326 0.34373 0.11179 0.0
C1387 C 0.66908 0.35198 0.13087 0.0
H1388 H 0.70523 0.34756 0.06993 0.0
H1389 H 0.56907 0.42918 0.25725 0.0
H1390 H 0.404 0.8963 0.03352 0.0
H1391 H 0.40413 0.89404 0.95411 0.0
H1392 H 0.3472 0.88885 0.94817 0.0
H1393 H 0.34695 0.89116 0.02757 0.0
H1394 H 0.36137 0.86551 0.89581 0.0
H1395 H 0.36809 0.92919 0.91843 0.0
H1396 H 0.38179 0.95629 0.95007 0.0
H1397 H 0.43105 0.94407 0.8934 0.0
H1398 H 0.41771 0.91675 0.86191 0.0
H1399 H 0.34796 0.88155 0.66569 0.0
H1400 H 0.34761 0.88385 0.74509 0.0
H1401 H 0.40439 0.89058 0.75147 0.0
H1402 H 0.40482 0.88841 0.67207 0.0
H1403 H 0.39019 0.91318 0.80373 0.0
H1404 H 0.38375 0.84951 0.78146 0.0
H1405 H 0.37027 0.82227 0.74998 0.0
H1406 H 0.32084 0.83423 0.80613 0.0
H1407 H 0.33396 0.86169 0.83747 0.0
C1408 C 0.39147 0.89478 0.01538 0.0
C1409 C 0.37545 0.89401 0.03723 0.0
C1410 C 0.39157 0.89348 0.96982 0.0
C1411 C 0.37565 0.89154 0.94478 0.0
C1412 C 0.35968 0.89034 0.96657 0.0
C1413 C 0.35957 0.8916 1.01215 0.0
C1414 C 0.37562 0.89084 0.89595 0.0
C1415 C 0.36747 0.87607 0.87567 0.0
C1416 C 0.38391 0.90437 0.86944 0.0
C1417 C 0.39194 0.92083 0.88817 0.0
C1418 C 0.38188 0.93221 0.91299 0.0
C1419 C 0.38958 0.94762 0.93085 0.0
C1420 C 0.4073 0.95187 0.92384 0.0
C1421 C 0.41734 0.94074 0.89885 0.0
C1422 C 0.40971 0.9253 0.88096 0.0
C1423 C 0.3604 0.88345 0.68396 0.0
C1424 C 0.37643 0.88473 0.66226 0.0
C1425 C 0.36018 0.88474 0.72951 0.0
C1426 C 0.37601 0.88711 0.7547 0.0
C1427 C 0.39198 0.88875 0.733 0.0
C1428 C 0.3922 0.88757 0.68743 0.0
C1429 C 0.37596 0.88783 0.80354 0.0
C1430 C 0.38409 0.90261 0.82384 0.0
C1431 C 0.36768 0.87429 0.83008 0.0
C1432 C 0.35979 0.85775 0.81144 0.0
C1433 C 0.36997 0.8464 0.78683 0.0
C1434 C 0.3624 0.83091 0.76905 0.0
C1435 C 0.3447 0.82654 0.77596 0.0
C1436 C 0.33454 0.83764 0.80076 0.0
C1437 C 0.34204 0.85316 0.81856 0.0
H1438 H 0.33887 0.81455 0.76217 0.0
H1439 H 0.41323 0.9638 0.9377 0.0
H1440 H 0.11327 0.68743 0.14658 0.0
H1441 H 0.11481 0.7192 0.16424 0.0
H1442 H 0.15013 0.70565 0.27561 0.0
H1443 H 0.14859 0.67339 0.2581 0.0
H1444 H 0.12414 0.73402 0.29023 0.0
H1445 H 0.169 0.72154 0.19221 0.0
H1446 H 0.18155 0.7083 0.12803 0.0
H1447 H 0.14591 0.74017 0.04238 0.0
H1448 H 0.13292 0.75338 0.10611 0.0
H1449 H 0.1465 0.83295 0.26565 0.0
H1450 H 0.14924 0.79978 0.27981 0.0
H1451 H 0.11132 0.79115 0.17323 0.0
H1452 H 0.10828 0.8237 0.15954 0.0
H1453 H 0.14545 0.77361 0.16783 0.0
H1454 H 0.09853 0.78277 0.26901 0.0
H1455 H 0.08636 0.79561 0.33418 0.0
H1456 H 0.12794 0.77028 0.41568 0.0
H1457 H 0.1405 0.75749 0.35081 0.0
C1458 C 0.12123 0.69106 0.1752 0.0
C1459 C 0.13097 0.67781 0.20063 0.0
C1460 C 0.12208 0.7093 0.18529 0.0
C1461 C 0.13277 0.71489 0.22088 0.0
C1462 C 0.14179 0.70165 0.24796 0.0
C1463 C 0.14091 0.68323 0.23788 0.0
C1464 C 0.13534 0.73471 0.22672 0.0
C1465 C 0.12917 0.74267 0.26395 0.0
C1466 C 0.14197 0.74605 0.19257 0.0
C1467 C 0.14992 0.73839 0.15399 0.0
C1468 C 0.16376 0.72565 0.1597 0.0
C1469 C 0.17096 0.71815 0.1234 0.0
C1470 C 0.16452 0.72338 0.08115 0.0
C1471 C 0.15089 0.73614 0.07513 0.0
C1472 C 0.14362 0.74366 0.11134 0.0
C1473 C 0.13846 0.82395 0.24601 0.0
C1474 C 0.12732 0.83103 0.21117 0.0
C1475 C 0.14009 0.80502 0.254 0.0
C1476 C 0.13062 0.79299 0.22719 0.0
C1477 C 0.11888 0.80013 0.19405 0.0
C1478 C 0.11717 0.81883 0.18631 0.0
C1479 C 0.1336 0.773 0.23048 0.0
C1480 C 0.14084 0.76498 0.1947 0.0
C1481 C 0.12817 0.76172 0.26616 0.0
C1482 C 0.12059 0.7694 0.30502 0.0
C1483 C 0.10519 0.78011 0.30076 0.0
C1484 C 0.09819 0.78733 0.33766 0.0
C1485 C 0.10641 0.78383 0.37903 0.0
C1486 C 0.12161 0.77303 0.3836 0.0
C1487 C 0.12867 0.76578 0.34679 0.0
H1488 H 0.10097 0.78943 0.40756 0.0
H1489 H 0.17011 0.71755 0.05308 0.0
H1490 H 0.58462 0.8686 0.3902 0.0
H1491 H 0.55252 0.867 0.40335 0.0
H1492 H 0.54284 0.91053 0.30627 0.0
H1493 H 0.57434 0.91179 0.29233 0.0
H1494 H 0.52572 0.91467 0.38792 0.0
H1495 H 0.5339 0.87017 0.27808 0.0
H1496 H 0.54691 0.84231 0.25181 0.0
H1497 H 0.52503 0.81099 0.35832 0.0
H1498 H 0.51211 0.83874 0.3856 0.0
H1499 H 0.43587 0.9218 0.32407 0.0
H1500 H 0.46787 0.91857 0.33111 0.0
H1501 H 0.46199 0.86532 0.39344 0.0
H1502 H 0.4295 0.86827 0.38447 0.0
H1503 H 0.48777 0.86321 0.34286 0.0
H1504 H 0.47776 0.9053 0.45133 0.0
H1505 H 0.46703 0.93231 0.48644 0.0
H1506 H 0.49343 0.96699 0.39325 0.0
H1507 H 0.50427 0.94018 0.3575 0.0
C1508 C 0.57561 0.87787 0.37197 0.0
C1509 C 0.5821 0.89035 0.34026 0.0
C1510 C 0.55725 0.87689 0.3793 0.0
C1511 C 0.54513 0.88864 0.35569 0.0
C1512 C 0.55178 0.90132 0.32494 0.0
C1513 C 0.56988 0.90201 0.317 0.0
C1514 C 0.52551 0.88809 0.36225 0.0
C1515 C 0.51741 0.90344 0.37791 0.0
C1516 C 0.51461 0.87321 0.35083 0.0
C1517 C 0.52224 0.85655 0.33419 0.0
C1518 C 0.53201 0.85737 0.29614 0.0
C1519 C 0.53933 0.84159 0.28101 0.0
C1520 C 0.53685 0.8249 0.30347 0.0
C1521 C 0.52698 0.82394 0.34101 0.0
C1522 C 0.51965 0.83968 0.35631 0.0
C1523 C 0.44128 0.9094 0.33962 0.0
C1524 C 0.42994 0.89533 0.35383 0.0
C1525 C 0.45978 0.90761 0.34403 0.0
C1526 C 0.46774 0.89184 0.3638 0.0
C1527 C 0.45642 0.87771 0.37825 0.0
C1528 C 0.43777 0.87943 0.37334 0.0
C1529 C 0.48775 0.89012 0.36753 0.0
C1530 C 0.49597 0.87438 0.35364 0.0
C1531 C 0.49888 0.90455 0.38146 0.0
C1532 C 0.49173 0.92072 0.40159 0.0
C1533 C 0.48112 0.91868 0.43806 0.0
C1534 C 0.47508 0.93397 0.45817 0.0
C1535 C 0.47955 0.95136 0.44207 0.0
C1536 C 0.49 0.95351 0.40571 0.0
C1537 C 0.49612 0.93828 0.38558 0.0
H1538 H 0.47498 0.96319 0.45784 0.0
H1539 H 0.54254 0.8127 0.29171 0.0
H1540 H 0.36379 0.32797 0.78574 0.0
H1541 H 0.36271 0.29466 0.79865 0.0
H1542 H 0.40423 0.28884 0.70843 0.0
H1543 H 0.40554 0.32162 0.69594 0.0
H1544 H 0.36975 0.27104 0.68809 0.0
H1545 H 0.41491 0.27908 0.80514 0.0
H1546 H 0.42571 0.29082 0.87562 0.0
H1547 H 0.38362 0.26298 0.94068 0.0
H1548 H 0.37242 0.25128 0.87039 0.0
H1549 H 0.40193 0.18548 0.66589 0.0
H1550 H 0.4002 0.21694 0.68566 0.0
H1551 H 0.3658 0.2015 0.78971 0.0
H1552 H 0.36767 0.16956 0.77031 0.0
H1553 H 0.39011 0.2295 0.81255 0.0
H1554 H 0.34691 0.21828 0.69932 0.0
H1555 H 0.33528 0.20633 0.6298 0.0
H1556 H 0.37122 0.24052 0.55868 0.0
H1557 H 0.38328 0.25246 0.62784 0.0
C1558 C 0.37305 0.31957 0.76987 0.0
C1559 C 0.38462 0.32739 0.73949 0.0
C1560 C 0.37236 0.30057 0.77708 0.0
C1561 C 0.38327 0.28931 0.75408 0.0
C1562 C 0.39562 0.29726 0.72626 0.0
C1563 C 0.39634 0.31603 0.71919 0.0
C1564 C 0.38078 0.26932 0.75424 0.0
C1565 C 0.37418 0.26196 0.71534 0.0
C1566 C 0.38593 0.2575 0.79032 0.0
C1567 C 0.39269 0.26452 0.83244 0.0
C1568 C 0.40784 0.27563 0.83438 0.0
C1569 C 0.41406 0.28224 0.87432 0.0
C1570 C 0.40531 0.27771 0.91258 0.0
C1571 C 0.39036 0.26651 0.911 0.0
C1572 C 0.38407 0.25989 0.87114 0.0
C1573 C 0.39412 0.18865 0.69332 0.0
C1574 C 0.38474 0.17499 0.71614 0.0
C1575 C 0.39315 0.2067 0.70461 0.0
C1576 C 0.3826 0.21167 0.73863 0.0
C1577 C 0.37396 0.19799 0.76321 0.0
C1578 C 0.37503 0.17977 0.75205 0.0
C1579 C 0.37982 0.23128 0.74561 0.0
C1580 C 0.38532 0.23856 0.78565 0.0
C1581 C 0.37343 0.24315 0.71069 0.0
C1582 C 0.36606 0.2362 0.66885 0.0
C1583 C 0.35241 0.22318 0.66888 0.0
C1584 C 0.34574 0.21641 0.62953 0.0
C1585 C 0.35252 0.22265 0.58985 0.0
C1586 C 0.36597 0.2357 0.58944 0.0
C1587 C 0.37272 0.24249 0.62872 0.0
H1588 H 0.34734 0.21738 0.55942 0.0
H1589 H 0.41016 0.28283 0.94347 0.0
H1590 H 0.92656 0.14246 0.91306 0.0
H1591 H 0.95884 0.14537 0.92548 0.0
H1592 H 0.96644 0.09744 0.85309 0.0
H1593 H 0.9345 0.094 0.84294 0.0
H1594 H 0.98949 0.09598 0.91435 0.0
H1595 H 0.97107 0.14464 0.81023 0.0
H1596 H 0.95388 0.17195 0.78568 0.0
H1597 H 0.97711 0.20085 0.89258 0.0
H1598 H 0.99428 0.17362 0.91804 0.0
H1599 H 0.07271 0.13962 0.81471 0.0
H1600 H 0.04101 0.13924 0.82471 0.0
H1601 H 0.05004 0.11604 0.95583 0.0
H1602 H 0.08215 0.116 0.9456 0.0
H1603 H 0.01894 0.1542 0.87422 0.0
H1604 H 0.01495 0.08774 0.98026 0.0
H1605 H 0.03188 0.0594 0.99574 0.0
H1606 H 0.05338 0.06449 0.86829 0.0
H1607 H 0.03639 0.09269 0.85186 0.0
C1608 C 0.93517 0.1325 0.90017 0.0
C1609 C 0.9279 0.11807 0.87679 0.0
C1610 C 0.95368 0.13422 0.90699 0.0
C1611 C 0.96537 0.12181 0.88961 0.0
C1612 C 0.95796 0.10723 0.86708 0.0
C1613 C 0.93956 0.10532 0.86104 0.0
C1614 C 0.98523 0.12402 0.89333 0.0
C1615 C 0.99585 0.1088 0.90586 0.0
C1616 C 0.99386 0.14061 0.88202 0.0
C1617 C 0.98381 0.15706 0.86628 0.0
C1618 C 0.97245 0.15681 0.82857 0.0
C1619 C 0.96271 0.17226 0.81451 0.0
C1620 C 0.96436 0.18811 0.83764 0.0
C1621 C 0.97582 0.18856 0.87475 0.0
C1622 C 0.98557 0.17312 0.889 0.0
C1623 C 0.0681 0.13448 0.84592 0.0
C1624 C 0.08017 0.12769 0.87922 0.0
C1625 C 0.04982 0.13438 0.85166 0.0
C1626 C 0.04289 0.12745 0.89085 0.0
C1627 C 0.05491 0.12124 0.92495 0.0
C1628 C 0.07333 0.12132 0.91918 0.0
C1629 C 0.02312 0.1261 0.89451 0.0
C1630 C 0.01255 0.14148 0.88339 0.0
C1631 C 0.01452 0.10953 0.90585 0.0
C1632 C 0.02458 0.09244 0.91512 0.0
C1633 C 0.02326 0.08277 0.95553 0.0
C1634 C 0.03286 0.06674 0.96446 0.0
C1635 C 0.04376 0.06019 0.93309 0.0
C1636 C 0.045 0.06961 0.89263 0.0
C1637 C 0.03539 0.08562 0.88351 0.0
H1638 H 0.05121 0.0478 0.9401 0.0
H1639 H 0.95678 0.20005 0.82674 0.0
H1640 H 0.12467 0.33264 0.75686 0.0
H1641 H 0.1244 0.30013 0.74017 0.0
H1642 H 0.13988 0.28588 0.87468 0.0
H1643 H 0.13972 0.31773 0.8917 0.0
H1644 H 0.1609 0.2706 0.79894 0.0
H1645 H 0.10211 0.27892 0.85974 0.0
H1646 H 0.0725 0.29305 0.85702 0.0
H1647 H 0.06181 0.27392 0.72813 0.0
H1648 H 0.0915 0.2599 0.7299 0.0
H1649 H 0.15144 0.18677 0.90278 0.0
H1650 H 0.15001 0.21828 0.87611 0.0
H1651 H 0.12129 0.20269 0.75871 0.0
H1652 H 0.12284 0.17052 0.78561 0.0
H1653 H 0.10626 0.23304 0.79786 0.0
H1654 H 0.16198 0.21711 0.74746 0.0
H1655 H 0.19199 0.20404 0.74762 0.0
H1656 H 0.20923 0.23789 0.85164 0.0
H1657 H 0.17928 0.25095 0.85273 0.0
C1658 C 0.12796 0.32252 0.78274 0.0
C1659 C 0.13207 0.32778 0.82566 0.0
C1660 C 0.12776 0.304 0.77322 0.0
C1661 C 0.13207 0.29062 0.8063 0.0
C1662 C 0.13646 0.29595 0.84874 0.0
C1663 C 0.13628 0.31422 0.8584 0.0
C1664 C 0.13246 0.27094 0.7979 0.0
C1665 C 0.14898 0.26235 0.79826 0.0
C1666 C 0.11688 0.26027 0.79559 0.0
C1667 C 0.09909 0.26863 0.79466 0.0
C1668 C 0.09352 0.27792 0.83063 0.0
C1669 C 0.07671 0.28586 0.82932 0.0
C1670 C 0.06531 0.28445 0.79235 0.0
C1671 C 0.07068 0.27504 0.75668 0.0
C1672 C 0.08749 0.2671 0.75782 0.0
C1673 C 0.14488 0.18992 0.8711 0.0
C1674 C 0.13728 0.17611 0.84627 0.0
C1675 C 0.14416 0.20801 0.85577 0.0
C1676 C 0.13575 0.21292 0.81514 0.0
C1677 C 0.12797 0.19921 0.79005 0.0
C1678 C 0.12889 0.18087 0.80533 0.0
C1679 C 0.13484 0.23255 0.80091 0.0
C1680 C 0.11823 0.24119 0.79674 0.0
C1681 C 0.1504 0.24332 0.79948 0.0
C1682 C 0.16832 0.23502 0.80015 0.0
C1683 C 0.17211 0.22164 0.7707 0.0
C1684 C 0.18913 0.21426 0.77051 0.0
C1685 C 0.20251 0.22019 0.79951 0.0
C1686 C 0.19886 0.23336 0.82909 0.0
C1687 C 0.18186 0.24077 0.82947 0.0
H1688 H 0.21574 0.21466 0.79895 0.0
H1689 H 0.05229 0.2906 0.7914 0.0
H1690 H 0.07787 0.86151 0.18031 0.0
H1691 H 0.04547 0.85888 0.18046 0.0
H1692 H 0.04076 0.91627 0.14707 0.0
H1693 H 0.07302 0.91899 0.15011 0.0
H1694 H 0.01927 0.91069 0.20196 0.0
H1695 H 0.02879 0.87835 0.07443 0.0
H1696 H 0.0418 0.85536 0.02962 0.0
H1697 H 0.02065 0.81278 0.11257 0.0
H1698 H 0.0077 0.83552 0.15823 0.0
H1699 H 0.92202 0.87981 0.1359 0.0
H1700 H 0.9537 0.88035 0.11912 0.0
H1701 H 0.96783 0.88478 0.25627 0.0
H1702 H 0.93665 0.88471 0.27267 0.0
H1703 H 0.98337 0.8608 0.14024 0.0
H1704 H 1.00147 0.91265 0.27312 0.0
H1705 H 0.9876 0.93842 0.30698 0.0
H1706 H 0.95255 0.94697 0.19338 0.0
H1707 H 0.96635 0.92142 0.15863 0.0
C1708 C 0.06986 0.87348 0.1724 0.0
C1709 C 0.07805 0.89046 0.16509 0.0
C1710 C 0.05123 0.87199 0.17225 0.0
C1711 C 0.04025 0.88734 0.16339 0.0
C1712 C 0.0486 0.90415 0.15447 0.0
C1713 C 0.06715 0.90571 0.15584 0.0
C1714 C 0.02027 0.88631 0.16598 0.0
C1715 C 0.01157 0.89974 0.18817 0.0
C1716 C 0.00971 0.87236 0.14739 0.0
C1717 C 0.01741 0.85864 0.11997 0.0
C1718 C 0.02701 0.86408 0.08328 0.0
C1719 C 0.03436 0.8511 0.05771 0.0
C1720 C 0.03209 0.83262 0.0683 0.0
C1721 C 0.02241 0.82709 0.10443 0.0
C1722 C 0.01505 0.84002 0.13014 0.0
C1723 C 0.93191 0.88078 0.16236 0.0
C1724 C 0.9267 0.88242 0.20557 0.0
C1725 C 0.95007 0.88106 0.15281 0.0
C1726 C 0.96336 0.88299 0.18627 0.0
C1727 C 0.95803 0.88374 0.22953 0.0
C1728 C 0.94007 0.88362 0.23892 0.0
C1729 C 0.98272 0.88495 0.17681 0.0
C1730 C 0.99122 0.87173 0.15361 0.0
C1731 C 0.99309 0.89949 0.19289 0.0
C1732 C 0.98485 0.91501 0.21347 0.0
C1733 C 0.99085 0.92008 0.2553 0.0
C1734 C 0.98299 0.93464 0.27466 0.0
C1735 C 0.96917 0.94429 0.25241 0.0
C1736 C 0.96321 0.93944 0.21067 0.0
C1737 C 0.97103 0.92491 0.19115 0.0
H1738 H 0.9631 0.95555 0.26747 0.0
H1739 H 0.03779 0.82259 0.04847 0.0
H1740 H 0.40532 0.68783 0.35511 0.0
H1741 H 0.40436 0.72041 0.3382 0.0
H1742 H 0.36021 0.71323 0.24621 0.0
H1743 H 0.36123 0.68018 0.26282 0.0
H1744 H 0.38582 0.74239 0.2211 0.0
H1745 H 0.34932 0.72361 0.33902 0.0
H1746 H 0.3427 0.70639 0.40738 0.0
H1747 H 0.38487 0.73394 0.47603 0.0
H1748 H 0.39196 0.7511 0.40787 0.0
H1749 H 0.36414 0.83801 0.25248 0.0
H1750 H 0.36311 0.80533 0.23919 0.0
H1751 H 0.40237 0.79527 0.34436 0.0
H1752 H 0.40331 0.82748 0.35793 0.0
H1753 H 0.37369 0.77451 0.35531 0.0
H1754 H 0.41165 0.79141 0.2364 0.0
H1755 H 0.41901 0.80807 0.1678 0.0
H1756 H 0.37399 0.78443 0.10101 0.0
H1757 H 0.36623 0.76781 0.16941 0.0
C1758 C 0.3956 0.69308 0.33062 0.0
C1759 C 0.38318 0.68146 0.31075 0.0
C1760 C 0.3951 0.71173 0.3209 0.0
C1761 C 0.38205 0.7193 0.29149 0.0
C1762 C 0.37039 0.70766 0.26905 0.0
C1763 C 0.37098 0.68881 0.27858 0.0
C1764 C 0.37954 0.73933 0.28896 0.0
C1765 C 0.38283 0.74946 0.25013 0.0
C1766 C 0.37572 0.74855 0.3269 0.0
C1767 C 0.37123 0.73857 0.36825 0.0
C1768 C 0.35725 0.72593 0.36864 0.0
C1769 C 0.35341 0.71617 0.40735 0.0
C1770 C 0.36337 0.71905 0.44601 0.0
C1771 C 0.37717 0.73172 0.44606 0.0
C1772 C 0.38109 0.74148 0.40739 0.0
C1773 C 0.37281 0.82883 0.27205 0.0
C1774 C 0.38367 0.83531 0.30653 0.0
C1775 C 0.37219 0.81016 0.26449 0.0
C1776 C 0.38256 0.79779 0.29106 0.0
C1777 C 0.3941 0.80448 0.32375 0.0
C1778 C 0.39464 0.82295 0.33142 0.0
C1779 C 0.38066 0.77776 0.28791 0.0
C1780 C 0.37641 0.76755 0.32592 0.0
C1781 C 0.38354 0.76861 0.2492 0.0
C1782 C 0.38824 0.77855 0.20813 0.0
C1783 C 0.40323 0.7899 0.20718 0.0
C1784 C 0.40749 0.7993 0.16831 0.0
C1785 C 0.39694 0.79736 0.1301 0.0
C1786 C 0.38213 0.78595 0.13065 0.0
C1787 C 0.3778 0.77653 0.16945 0.0
H1788 H 0.40026 0.80465 0.10005 0.0
H1789 H 0.36039 0.71147 0.47595 0.0
H1790 H 0.58404 0.149 0.66195 0.0
H1791 H 0.55149 0.15173 0.65898 0.0
H1792 H 0.54667 0.09464 0.63681 0.0
H1793 H 0.57905 0.09173 0.64139 0.0
H1794 H 0.52147 0.12027 0.58261 0.0
H1795 H 0.54313 0.10266 0.73195 0.0
H1796 H 0.56202 0.10721 0.79845 0.0
H1797 H 0.53892 0.15978 0.81011 0.0
H1798 H 0.52008 0.15563 0.7432 0.0
H1799 H 0.44103 0.0935 0.71577 0.0
H1800 H 0.47272 0.09754 0.70628 0.0
H1801 H 0.46208 0.14501 0.62159 0.0
H1802 H 0.43003 0.14124 0.63183 0.0
H1803 H 0.49497 0.12745 0.72612 0.0
H1804 H 0.49528 0.14302 0.54168 0.0
H1805 H 0.47625 0.13873 0.4752 0.0
H1806 H 0.45493 0.08989 0.53426 0.0
H1807 H 0.47401 0.09376 0.60077 0.0
C1808 C 0.57603 0.13713 0.65561 0.0
C1809 C 0.5841 0.12014 0.65187 0.0
C1810 C 0.55743 0.13869 0.654 0.0
C1811 C 0.54659 0.12339 0.64755 0.0
C1812 C 0.5547 0.10665 0.64151 0.0
C1813 C 0.57322 0.105 0.64424 0.0
C1814 C 0.52693 0.12431 0.65114 0.0
C1815 C 0.51567 0.12206 0.61388 0.0
C1816 C 0.51926 0.12655 0.69186 0.0
C1817 C 0.53037 0.12893 0.73235 0.0
C1818 C 0.5422 0.11525 0.74849 0.0
C1819 C 0.55287 0.11774 0.78628 0.0
C1820 C 0.55171 0.1338 0.80842 0.0
C1821 C 0.53983 0.14737 0.79288 0.0
C1822 C 0.52915 0.14495 0.75504 0.0
C1823 C 0.44535 0.10486 0.69513 0.0
C1824 C 0.43293 0.11706 0.67458 0.0
C1825 C 0.46355 0.10719 0.6899 0.0
C1826 C 0.46989 0.12159 0.66331 0.0
C1827 C 0.45754 0.13377 0.64228 0.0
C1828 C 0.43924 0.13161 0.64811 0.0
C1829 C 0.48942 0.12343 0.65759 0.0
C1830 C 0.50069 0.12608 0.6946 0.0
C1831 C 0.49706 0.12163 0.61659 0.0
C1832 C 0.48593 0.11881 0.57633 0.0
C1833 C 0.48659 0.13133 0.54036 0.0
C1834 C 0.47578 0.12898 0.5027 0.0
C1835 C 0.46433 0.11409 0.50058 0.0
C1836 C 0.46375 0.10146 0.536 0.0
C1837 C 0.47455 0.10373 0.5737 0.0
H1838 H 0.45594 0.11232 0.47145 0.0
H1839 H 0.55999 0.13571 0.83767 0.0
H1840 H 0.90709 0.18367 0.85578 0.0
H1841 H 0.90721 0.21631 0.839 0.0
H1842 H 0.85998 0.21125 0.75574 0.0
H1843 H 0.86003 0.17818 0.77188 0.0
H1844 H 0.88429 0.23952 0.72582 0.0
H1845 H 0.85392 0.22087 0.85472 0.0
H1846 H 0.85064 0.20362 0.92492 0.0
H1847 H 0.89612 0.23076 0.9805 0.0
H1848 H 0.89986 0.24794 0.91035 0.0
H1849 H 0.86265 0.33421 0.76167 0.0
H1850 H 0.86223 0.30147 0.74947 0.0
H1851 H 0.9057 0.2935 0.84487 0.0
H1852 H 0.90599 0.32582 0.85753 0.0
H1853 H 0.87905 0.27151 0.86358 0.0
H1854 H 0.9103 0.28914 0.73384 0.0
H1855 H 0.91415 0.30588 0.66321 0.0
H1856 H 0.86702 0.28111 0.60923 0.0
H1857 H 0.86276 0.2644 0.67978 0.0
C1858 C 0.89696 0.18941 0.83303 0.0
C1859 C 0.88342 0.17843 0.81555 0.0
C1860 C 0.89705 0.20808 0.82344 0.0
C1861 C 0.8834 0.21628 0.79683 0.0
C1862 C 0.87061 0.2052 0.77644 0.0
C1863 C 0.87065 0.18634 0.78565 0.0
C1864 C 0.8815 0.23639 0.79546 0.0
C1865 C 0.88286 0.24656 0.75575 0.0
C1866 C 0.87972 0.24558 0.83456 0.0
C1867 C 0.87724 0.23561 0.87717 0.0
C1868 C 0.86328 0.22309 0.88184 0.0
C1869 C 0.86133 0.21333 0.92162 0.0
C1870 C 0.87318 0.21608 0.95713 0.0
C1871 C 0.88696 0.22864 0.95296 0.0
C1872 C 0.88899 0.23841 0.91321 0.0
C1873 C 0.87233 0.32548 0.77931 0.0
C1874 C 0.88422 0.33257 0.81091 0.0
C1875 C 0.87208 0.30678 0.77234 0.0
C1876 C 0.88386 0.29495 0.79649 0.0
C1877 C 0.89635 0.30226 0.82617 0.0
C1878 C 0.89651 0.32079 0.83334 0.0
C1879 C 0.88249 0.27484 0.79416 0.0
C1880 C 0.88035 0.26458 0.83341 0.0
C1881 C 0.8835 0.2657 0.75464 0.0
C1882 C 0.8861 0.27569 0.71223 0.0
C1883 C 0.90067 0.28739 0.70703 0.0
C1884 C 0.90294 0.29684 0.66698 0.0
C1885 C 0.8908 0.2946 0.6318 0.0
C1886 C 0.87639 0.28286 0.63654 0.0
C1887 C 0.87405 0.27338 0.67654 0.0
H1888 H 0.89259 0.30194 0.60082 0.0
H1889 H 0.87166 0.20849 0.98789 0.0
H1890 H 0.60698 0.82565 0.36086 0.0
H1891 H 0.60775 0.79309 0.3521 0.0
H1892 H 0.64603 0.80081 0.25255 0.0
H1893 H 0.6456 0.83374 0.26202 0.0
H1894 H 0.60156 0.76918 0.29213 0.0
H1895 H 0.67618 0.76404 0.26766 0.0
H1896 H 0.70353 0.78202 0.27725 0.0
H1897 H 0.68079 0.80994 0.38103 0.0
H1898 H 0.65352 0.79165 0.37305 0.0
H1899 H 0.62466 0.6734 0.29874 0.0
H1900 H 0.62236 0.70549 0.27231 0.0
H1901 H 0.64588 0.72191 0.39533 0.0
H1902 H 0.64818 0.69029 0.42145 0.0
H1903 H 0.66015 0.74075 0.32832 0.0
H1904 H 0.6014 0.72382 0.37396 0.0
H1905 H 0.57392 0.70566 0.37109 0.0
H1906 H 0.56452 0.72239 0.23569 0.0
H1907 H 0.59211 0.74045 0.23764 0.0
C1908 C 0.6154 0.82052 0.33655 0.0
C1909 C 0.62642 0.83234 0.31257 0.0
C1910 C 0.61573 0.80182 0.33137 0.0
C1911 C 0.62715 0.79433 0.30218 0.0
C1912 C 0.63727 0.80619 0.27577 0.0
C1913 C 0.63694 0.82504 0.28097 0.0
C1914 C 0.62951 0.77416 0.30333 0.0
C1915 C 0.61444 0.76298 0.2993 0.0
C1916 C 0.64624 0.7659 0.31312 0.0
C1917 C 0.6627 0.7767 0.31917 0.0
C1918 C 0.67705 0.77397 0.29263 0.0
C1919 C 0.69255 0.7842 0.29784 0.0
C1920 C 0.69385 0.79726 0.32944 0.0
C1921 C 0.67973 0.7999 0.35638 0.0
C1922 C 0.66427 0.78956 0.35162 0.0
C1923 C 0.62939 0.6839 0.31989 0.0
C1924 C 0.6366 0.67931 0.36216 0.0
C1925 C 0.62805 0.70222 0.30485 0.0
C1926 C 0.63398 0.7162 0.33181 0.0
C1927 C 0.64134 0.71147 0.37372 0.0
C1928 C 0.64254 0.69333 0.38874 0.0
C1929 C 0.63218 0.73584 0.31788 0.0
C1930 C 0.64736 0.74692 0.31972 0.0
C1931 C 0.61553 0.74401 0.30687 0.0
C1932 C 0.59891 0.73328 0.30578 0.0
C1933 C 0.59354 0.7235 0.34349 0.0
C1934 C 0.57794 0.71325 0.34205 0.0
C1935 C 0.56751 0.71282 0.30319 0.0
C1936 C 0.57263 0.7227 0.26573 0.0
C1937 C 0.58825 0.73294 0.26698 0.0
H1938 H 0.55543 0.70488 0.30213 0.0
H1939 H 0.70581 0.80526 0.33318 0.0
H1940 H 0.87131 0.66777 0.27057 0.0
H1941 H 0.87132 0.69891 0.2958 0.0
H1942 H 0.90299 0.71642 0.1879 0.0
H1943 H 0.90302 0.68559 0.16261 0.0
H1944 H 0.9141 0.7317 0.26563 0.0
H1945 H 0.85874 0.72131 0.18091 0.0
H1946 H 0.83055 0.70507 0.16752 0.0
H1947 H 0.81344 0.71909 0.29341 0.0
H1948 H 0.84168 0.73518 0.30779 0.0
H1949 H 0.90068 0.82012 0.18873 0.0
H1950 H 0.90253 0.78771 0.20499 0.0
H1951 H 0.86615 0.79222 0.30847 0.0
H1952 H 0.86393 0.82518 0.29153 0.0
H1953 H 0.8568 0.76469 0.2566 0.0
H1954 H 0.90955 0.78112 0.33374 0.0
H1955 H 0.93778 0.79718 0.34746 0.0
H1956 H 0.96011 0.77174 0.23946 0.0
H1957 H 0.93193 0.75572 0.22462 0.0
C1958 C 0.87847 0.67823 0.25262 0.0
C1959 C 0.88707 0.67422 0.2144 0.0
C1960 C 0.87841 0.69601 0.26699 0.0
C1961 C 0.88706 0.71003 0.24356 0.0
C1962 C 0.89625 0.70585 0.20655 0.0
C1963 C 0.89617 0.6882 0.19198 0.0
C1964 C 0.88585 0.72931 0.25537 0.0
C1965 C 0.90159 0.73893 0.26382 0.0
C1966 C 0.86946 0.73861 0.25469 0.0
C1967 C 0.85238 0.72925 0.24564 0.0
C1968 C 0.84901 0.72083 0.20584 0.0
C1969 C 0.83302 0.71166 0.19806 0.0
C1970 C 0.82023 0.711 0.22965 0.0
C1971 C 0.82337 0.71957 0.26901 0.0
C1972 C 0.83936 0.72872 0.27699 0.0
C1973 C 0.89316 0.81436 0.21534 0.0
C1974 C 0.88208 0.8253 0.23871 0.0
C1975 C 0.89436 0.79575 0.22486 0.0
C1976 C 0.88467 0.78745 0.25834 0.0
C1977 C 0.87385 0.79833 0.28263 0.0
C1978 C 0.87267 0.81716 0.27312 0.0
C1979 C 0.88518 0.7673 0.26502 0.0
C1980 C 0.86931 0.75746 0.2599 0.0
C1981 C 0.90148 0.75776 0.26906 0.0
C1982 C 0.91857 0.76723 0.27802 0.0
C1983 C 0.92044 0.77901 0.31275 0.0
C1984 C 0.93645 0.78811 0.32074 0.0
C1985 C 0.95073 0.78549 0.29434 0.0
C1986 C 0.94904 0.77374 0.25992 0.0
C1987 C 0.93306 0.76461 0.25176 0.0
H1988 H 0.96311 0.79255 0.30056 0.0
H1989 H 0.80787 0.70388 0.22359 0.0
H1990 H 0.64781 0.17471 0.75899 0.0
H1991 H 0.64912 0.20706 0.7758 0.0
H1992 H 0.61785 0.2206 0.65736 0.0
H1993 H 0.61651 0.18881 0.64052 0.0
H1994 H 0.64718 0.24116 0.66235 0.0
H1995 H 0.60064 0.22184 0.75826 0.0
H1996 H 0.58823 0.20361 0.81921 0.0
H1997 H 0.62772 0.22475 0.90862 0.0
H1998 H 0.64052 0.24294 0.84801 0.0
H1999 H 0.60967 0.32577 0.66198 0.0
H2000 H 0.61208 0.29311 0.67574 0.0
H2001 H 0.65227 0.30096 0.77765 0.0
H2002 H 0.65003 0.33414 0.76375 0.0
H2003 H 0.62438 0.26986 0.79185 0.0
H2004 H 0.66892 0.29175 0.69519 0.0
H2005 H 0.67976 0.31068 0.63338 0.0
H2006 H 0.64333 0.28447 0.54478 0.0
H2007 H 0.63204 0.26561 0.60623 0.0
C2008 C 0.64102 0.18458 0.73694 0.0
C2009 C 0.63219 0.1791 0.6982 0.0
C2010 C 0.64179 0.20308 0.74655 0.0
C2011 C 0.63369 0.21636 0.71764 0.0
C2012 C 0.62437 0.21073 0.67996 0.0
C2013 C 0.6236 0.19243 0.67043 0.0
C2014 C 0.63537 0.23623 0.72456 0.0
C2015 C 0.64223 0.24736 0.6908 0.0
C2016 C 0.6294 0.24444 0.76215 0.0
C2017 C 0.62168 0.23356 0.79853 0.0
C2018 C 0.60678 0.22247 0.79084 0.0
C2019 C 0.59965 0.21217 0.82534 0.0
C2020 C 0.60722 0.21297 0.86774 0.0
C2021 C 0.6219 0.22411 0.87574 0.0
C2022 C 0.62909 0.23442 0.84134 0.0
C2023 C 0.61886 0.32068 0.6879 0.0
C2024 C 0.62983 0.33264 0.7114 0.0
C2025 C 0.62015 0.30194 0.69582 0.0
C2026 C 0.63245 0.29455 0.72742 0.0
C2027 C 0.64265 0.30638 0.75316 0.0
C2028 C 0.64136 0.32533 0.74517 0.0
C2029 C 0.63573 0.2746 0.72908 0.0
C2030 C 0.62977 0.26354 0.76409 0.0
C2031 C 0.64253 0.26634 0.69263 0.0
C2032 C 0.64956 0.27735 0.65538 0.0
C2033 C 0.66314 0.29011 0.66257 0.0
C2034 C 0.66937 0.30082 0.62759 0.0
C2035 C 0.66222 0.2988 0.58519 0.0
C2036 C 0.64886 0.28602 0.57766 0.0
C2037 C 0.64255 0.2753 0.61255 0.0
H2038 H 0.66705 0.30711 0.55815 0.0
H2039 H 0.60168 0.20498 0.89441 0.0
H2040 H 0.93942 0.39367 0.77657 0.0
H2041 H 0.97095 0.3893 0.79269 0.0
H2042 H 0.96074 0.37303 0.9263 0.0
H2043 H 0.92857 0.37743 0.91001 0.0
H2044 H 0.99091 0.39724 0.91793 0.0
H2045 H 0.97151 0.3411 0.86266 0.0
H2046 H 0.9552 0.3211 0.81254 0.0
H2047 H 0.98532 0.34197 0.70565 0.0
H2048 H 1.00161 0.36235 0.75494 0.0
H2049 H 0.08619 0.3764 0.92163 0.0
H2050 H 0.05411 0.37312 0.93368 0.0
H2051 H 0.0425 0.38486 0.79599 0.0
H2052 H 0.07386 0.38801 0.78404 0.0
H2053 H 0.02294 0.35714 0.82287 0.0
H2054 H 0.03807 0.4168 0.87604 0.0
H2055 H 0.05396 0.43745 0.92542 0.0
H2056 H 0.03196 0.40948 0.03668 0.0
H2057 H 0.0161 0.38851 0.98793 0.0
C2058 C 0.94374 0.38913 0.80952 0.0
C2059 C 0.93132 0.38583 0.84191 0.0
C2060 C 0.9619 0.38661 0.81869 0.0
C2061 C 0.96841 0.38067 0.86063 0.0
C2062 C 0.95613 0.3776 0.8936 0.0
C2063 C 0.93772 0.38003 0.88425 0.0
C2064 C 0.98801 0.37751 0.86847 0.0
C2065 C 0.99788 0.38813 0.89791 0.0
C2066 C 0.99731 0.36576 0.84228 0.0
C2067 C 0.98774 0.35333 0.81253 0.0
C2068 C 0.97459 0.34151 0.82841 0.0
C2069 C 0.96535 0.3301 0.80015 0.0
C2070 C 0.96921 0.33028 0.75593 0.0
C2071 C 0.98235 0.34184 0.73991 0.0
C2072 C 0.99161 0.35331 0.76803 0.0
C2073 C 0.07675 0.37815 0.89406 0.0
C2074 C 0.0827 0.38249 0.85187 0.0
C2075 C 0.05838 0.37637 0.90094 0.0
C2076 C 0.04567 0.37878 0.86572 0.0
C2077 C 0.05181 0.38282 0.8238 0.0
C2078 C 0.06991 0.38469 0.81705 0.0
C2079 C 0.02595 0.37739 0.87103 0.0
C2080 C 0.016 0.36591 0.84379 0.0
C2081 C 0.01666 0.38832 0.89927 0.0
C2082 C 0.0261 0.40096 0.92843 0.0
C2083 C 0.03674 0.41497 0.91107 0.0
C2084 C 0.04571 0.42675 0.93892 0.0
C2085 C 0.04402 0.42474 0.98417 0.0
C2086 C 0.03329 0.41099 1.00164 0.0
C2087 C 0.02431 0.39916 0.97391 0.0
H2088 H 0.05098 0.43387 1.00568 0.0
H2089 H 0.96204 0.32144 0.7341 0.0
H2090 H 0.42785 0.6445 0.41523 0.0
H2091 H 0.46001 0.64741 0.42986 0.0
H2092 H 0.46854 0.60019 0.35552 0.0
H2093 H 0.43671 0.59665 0.34357 0.0
H2094 H 0.49113 0.59819 0.41633 0.0
H2095 H 0.47345 0.64828 0.31607 0.0
H2096 H 0.45651 0.67588 0.2925 0.0
H2097 H 0.47852 0.70324 0.40324 0.0
H2098 H 0.49543 0.67572 0.42773 0.0
H2099 H 0.57505 0.64493 0.3268 0.0
H2100 H 0.54325 0.64411 0.33502 0.0
H2101 H 0.55121 0.61711 0.46252 0.0
H2102 H 0.58341 0.61739 0.45385 0.0
H2103 H 0.52059 0.65717 0.38418 0.0
H2104 H 0.51612 0.58851 0.48185 0.0
H2105 H 0.533 0.55996 0.49403 0.0
H2106 H 0.55538 0.56818 0.36816 0.0
H2107 H 0.53845 0.59662 0.35501 0.0
C2108 C 0.43664 0.63468 0.40245 0.0
C2109 C 0.42967 0.6204 0.37807 0.0
C2110 C 0.45509 0.63641 0.41049 0.0
C2111 C 0.46702 0.62423 0.39315 0.0
C2112 C 0.45989 0.6098 0.36956 0.0
C2113 C 0.44155 0.60783 0.36249 0.0
C2114 C 0.48686 0.62651 0.39808 0.0
C2115 C 0.49748 0.61117 0.40953 0.0
C2116 C 0.49551 0.64331 0.38894 0.0
C2117 C 0.48553 0.6599 0.37397 0.0
C2118 C 0.4746 0.66017 0.33549 0.0
C2119 C 0.46501 0.67579 0.32197 0.0
C2120 C 0.46639 0.69128 0.34644 0.0
C2121 C 0.47743 0.69122 0.38438 0.0
C2122 C 0.48702 0.67562 0.39808 0.0
C2123 C 0.57018 0.63884 0.35684 0.0
C2124 C 0.58198 0.63105 0.3895 0.0
C2125 C 0.55183 0.63849 0.36158 0.0
C2126 C 0.54457 0.63035 0.39914 0.0
C2127 C 0.55633 0.62321 0.43278 0.0
C2128 C 0.57481 0.62348 0.42795 0.0
C2129 C 0.52476 0.62879 0.4015 0.0
C2130 C 0.51419 0.64427 0.39156 0.0
C2131 C 0.51615 0.61199 0.41042 0.0
C2132 C 0.52621 0.5948 0.41776 0.0
C2133 C 0.52461 0.58419 0.45676 0.0
C2134 C 0.53419 0.56803 0.46382 0.0
C2135 C 0.54532 0.5623 0.43197 0.0
C2136 C 0.54682 0.57267 0.39288 0.0
C2137 C 0.53724 0.58881 0.38563 0.0
H2138 H 0.55274 0.54981 0.43753 0.0
H2139 H 0.45894 0.70336 0.33595 0.0
H2140 H 0.43501 0.41614 0.69915 0.0
H2141 H 0.46668 0.41422 0.6886 0.0
H2142 H 0.46046 0.35874 0.65215 0.0
H2143 H 0.42841 0.36051 0.66376 0.0
H2144 H 0.48964 0.36174 0.70499 0.0
H2145 H 0.46817 0.39384 0.57481 0.0
H2146 H 0.45133 0.41724 0.5303 0.0
H2147 H 0.48187 0.45908 0.59128 0.0
H2148 H 0.49873 0.43595 0.63665 0.0
H2149 H 0.58174 0.36418 0.64846 0.0
H2150 H 0.54925 0.36077 0.64329 0.0
H2151 H 0.54345 0.41611 0.67985 0.0
H2152 H 0.57557 0.4196 0.6842 0.0
H2153 H 0.51988 0.40985 0.61738 0.0
H2154 H 0.53881 0.37748 0.75315 0.0
H2155 H 0.55554 0.35397 0.79763 0.0
H2156 H 0.5298 0.31237 0.72438 0.0
H2157 H 0.51307 0.33567 0.6791 0.0
C2158 C 0.44028 0.40351 0.68863 0.0
C2159 C 0.42905 0.3885 0.68218 0.0
C2160 C 0.4585 0.40245 0.68237 0.0
C2161 C 0.46617 0.38642 0.66885 0.0
C2162 C 0.455 0.37132 0.6624 0.0
C2163 C 0.43663 0.37237 0.66881 0.0
C2164 C 0.48583 0.38564 0.66238 0.0
C2165 C 0.49618 0.37208 0.6851 0.0
C2166 C 0.49464 0.39917 0.63688 0.0
C2167 C 0.48464 0.41315 0.60935 0.0
C2168 C 0.47123 0.40804 0.57893 0.0
C2169 C 0.46168 0.42126 0.55352 0.0
C2170 C 0.46551 0.43964 0.55801 0.0
C2171 C 0.47892 0.44484 0.58785 0.0
C2172 C 0.48849 0.43168 0.61338 0.0
C2173 C 0.5735 0.37563 0.65503 0.0
C2174 C 0.58133 0.39215 0.66693 0.0
C2175 C 0.55488 0.37365 0.65239 0.0
C2176 C 0.54366 0.38811 0.66173 0.0
C2177 C 0.55159 0.40469 0.67247 0.0
C2178 C 0.57007 0.40666 0.67509 0.0
C2179 C 0.52374 0.38628 0.66098 0.0
C2180 C 0.51333 0.39937 0.63683 0.0
C2181 C 0.51491 0.3723 0.68503 0.0
C2182 C 0.52485 0.35831 0.71244 0.0
C2183 C 0.53681 0.36333 0.74635 0.0
C2184 C 0.54628 0.35004 0.77173 0.0
C2185 C 0.54378 0.33169 0.76374 0.0
C2186 C 0.53175 0.32659 0.73047 0.0
C2187 C 0.52227 0.33982 0.70496 0.0
H2188 H 0.55113 0.32143 0.78341 0.0
H2189 H 0.4581 0.44985 0.53832 0.0
H2190 H 0.0838 0.64621 0.13449 0.0
H2191 H 0.05131 0.64855 0.12536 0.0
H2192 H 0.04668 0.59124 0.15809 0.0
H2193 H 0.07885 0.58885 0.1665 0.0
H2194 H 0.02371 0.60011 0.09363 0.0
H2195 H 0.04021 0.62476 0.23337 0.0
H2196 H 0.05587 0.64583 0.28208 0.0
H2197 H 0.03025 0.69115 0.21238 0.0
H2198 H 0.01461 0.67033 0.16287 0.0
H2199 H 0.93831 0.58708 0.17233 0.0
H2200 H 0.96999 0.59019 0.16181 0.0
H2201 H 0.96298 0.64723 0.12786 0.0
H2202 H 0.931 0.64418 0.1392 0.0
H2203 H 0.99138 0.64211 0.18336 0.0
H2204 H 0.97184 0.61643 0.0494 0.0
H2205 H 0.95604 0.59483 1.00238 0.0
H2206 H 0.98724 0.55097 0.062 0.0
H2207 H 1.00307 0.57226 0.10983 0.0
C2208 C 0.07583 0.63411 0.13923 0.0
C2209 C 0.08394 0.61737 0.15147 0.0
C2210 C 0.05722 0.63546 0.1343 0.0
C2211 C 0.04636 0.62011 0.14159 0.0
C2212 C 0.0546 0.60332 0.15228 0.0
C2213 C 0.07308 0.60198 0.15723 0.0
C2214 C 0.02648 0.62129 0.13945 0.0
C2215 C 0.01668 0.60925 0.11345 0.0
C2216 C 0.01709 0.63352 0.16428 0.0
C2217 C 0.02642 0.64602 0.19411 0.0
C2218 C 0.03802 0.63923 0.22824 0.0
C2219 C 0.04688 0.65112 0.25602 0.0
C2220 C 0.0441 0.66982 0.25024 0.0
C2221 C 0.03242 0.67666 0.21675 0.0
C2222 C 0.02355 0.66483 0.18883 0.0
C2223 C 0.94344 0.60029 0.16225 0.0
C2224 C 0.93207 0.61538 0.15656 0.0
C2225 C 0.96162 0.60204 0.15602 0.0
C2226 C 0.96902 0.61891 0.14348 0.0
C2227 C 0.95767 0.63404 0.13741 0.0
C2228 C 0.93937 0.63228 0.14365 0.0
C2229 C 0.98865 0.62062 0.13829 0.0
C2230 C 0.99839 0.63317 0.16296 0.0
C2231 C 0.998 0.6088 0.11233 0.0
C2232 C 0.98859 0.59596 0.08337 0.0
C2233 C 0.97527 0.60217 0.05267 0.0
C2234 C 0.96632 0.58998 0.02584 0.0
C2235 C 0.97066 0.57155 0.02917 0.0
C2236 C 0.98393 0.56526 0.05939 0.0
C2237 C 0.99291 0.57739 0.08634 0.0
H2238 H 0.96375 0.56214 1.0083 0.0
H2239 H 0.05097 0.67901 0.27177 0.0
H2240 H 0.14039 0.58307 0.0327 0.0
H2241 H 0.14097 0.55478 0.99543 0.0
H2242 H 0.1423 0.52464 0.1198 0.0
H2243 H 0.14215 0.5533 0.1579 0.0
H2244 H 0.16376 0.50923 0.06543 0.0
H2245 H 0.10352 0.52915 0.05343 0.0
H2246 H 0.07904 0.55078 0.03658 0.0
H2247 H 0.09267 0.55494 0.90182 0.0
H2248 H 0.11739 0.53351 0.91799 0.0
H2249 H 0.13643 0.42523 0.98474 0.0
H2250 H 0.13786 0.45397 0.01997 0.0
H2251 H 0.14128 0.48245 0.89434 0.0
H2252 H 0.13979 0.45332 0.85809 0.0
H2253 H 0.11776 0.49878 0.94816 0.0
H2254 H 0.17781 0.47777 0.96135 0.0
H2255 H 0.2017 0.4556 0.97962 0.0
H2256 H 0.18754 0.45281 0.11403 0.0
H2257 H 0.1634 0.47479 0.09645 0.0
C2258 C 0.14083 0.57048 0.05245 0.0
C2259 C 0.14103 0.57055 0.09852 0.0
C2260 C 0.14107 0.55422 0.03087 0.0
C2261 C 0.14123 0.53743 0.05452 0.0
C2262 C 0.14204 0.53738 0.10065 0.0
C2263 C 0.14195 0.55378 0.12246 0.0
C2264 C 0.14043 0.52012 0.03071 0.0
C2265 C 0.15354 0.50687 0.04025 0.0
C2266 C 0.12736 0.51708 0.99695 0.0
C2267 C 0.11241 0.52985 0.98701 0.0
C2268 C 0.10137 0.53477 0.02026 0.0
C2269 C 0.08744 0.54698 1.01082 0.0
C2270 C 0.08433 0.55426 0.96818 0.0
C2271 C 0.09511 0.5493 0.93485 0.0
C2272 C 0.10907 0.53711 0.94412 0.0
C2273 C 0.13749 0.43751 0.96416 0.0
C2274 C 0.13804 0.4368 0.91825 0.0
C2275 C 0.13839 0.45403 0.98465 0.0
C2276 C 0.13993 0.47045 0.96006 0.0
C2277 C 0.14019 0.46995 0.91412 0.0
C2278 C 0.13937 0.45329 0.8934 0.0
C2279 C 0.14109 0.48795 0.98287 0.0
C2280 C 0.12801 0.50121 0.97322 0.0
C2281 C 0.1541 0.49093 0.01673 0.0
C2282 C 0.1687 0.47782 0.02749 0.0
C2283 C 0.17971 0.47234 0.99474 0.0
C2284 C 0.19331 0.45982 1.00499 0.0
C2285 C 0.19611 0.45278 0.04794 0.0
C2286 C 0.18535 0.45827 0.08076 0.0
C2287 C 0.17172 0.47077 0.07069 0.0
H2288 H 0.20665 0.44308 0.0558 0.0
H2289 H 0.07355 0.56372 0.96094 0.0
H2290 H 0.68141 0.90514 0.30922 0.0
H2291 H 0.70995 0.90548 0.27396 0.0
H2292 H 0.72122 0.85177 0.33012 0.0
H2293 H 0.69253 0.85123 0.36423 0.0
H2294 H 0.74282 0.90505 0.29988 0.0
H2295 H 0.74763 0.8281 0.26582 0.0
H2296 H 0.72765 0.80275 0.24786 0.0
H2297 H 0.68788 0.84052 0.19664 0.0
H2298 H 0.70778 0.86608 0.21324 0.0
H2299 H 0.83163 0.8886 0.24761 0.0
H2300 H 0.80256 0.88836 0.27924 0.0
H2301 H 0.77925 0.86872 0.15905 0.0
H2302 H 0.80877 0.86726 0.12943 0.0
H2303 H 0.7624 0.85334 0.21649 0.0
H2304 H 0.7766 0.91623 0.19715 0.0
H2305 H 0.79472 0.94391 0.20432 0.0
H2306 H 0.79278 0.93838 0.34431 0.0
H2307 H 0.7748 0.91055 0.33799 0.0
C2308 C 0.68992 0.89335 0.31382 0.0
C2309 C 0.68455 0.87812 0.33945 0.0
C2310 C 0.70636 0.89359 0.29378 0.0
C2311 C 0.71794 0.87859 0.2987 0.0
C2312 C 0.7126 0.86345 0.32479 0.0
C2313 C 0.69614 0.86317 0.34461 0.0
C2314 C 0.73554 0.8788 0.27691 0.0
C2315 C 0.74705 0.8937 0.28169 0.0
C2316 C 0.74115 0.86433 0.25186 0.0
C2317 C 0.72915 0.84901 0.24129 0.0
C2318 C 0.73466 0.83099 0.25055 0.0
C2319 C 0.72334 0.81658 0.24057 0.0
C2320 C 0.70647 0.82002 0.22129 0.0
C2321 C 0.70092 0.83787 0.21172 0.0
C2322 C 0.71223 0.85233 0.22138 0.0
C2323 C 0.82041 0.88382 0.2284 0.0
C2324 C 0.82275 0.87756 0.18641 0.0
C2325 C 0.80355 0.88407 0.24613 0.0
C2326 C 0.78824 0.87884 0.22163 0.0
C2327 C 0.79059 0.87279 0.17923 0.0
C2328 C 0.80756 0.87207 0.16203 0.0
C2329 C 0.76994 0.87946 0.24012 0.0
C2330 C 0.75824 0.86471 0.2347 0.0
C2331 C 0.76388 0.89438 0.26318 0.0
C2332 C 0.77448 0.91123 0.2671 0.0
C2333 C 0.7801 0.92088 0.22947 0.0
C2334 C 0.79034 0.9366 0.23338 0.0
C2335 C 0.79493 0.94288 0.27475 0.0
C2336 C 0.78923 0.93349 0.31229 0.0
C2337 C 0.77899 0.91776 0.30857 0.0
H2338 H 0.80288 0.95503 0.27771 0.0
H2339 H 0.69772 0.80884 0.21366 0.0
H2340 H 0.36883 0.45177 0.67843 0.0
H2341 H 0.36758 0.48117 0.6371 0.0
H2342 H 0.37209 0.45388 0.5166 0.0
H2343 H 0.37369 0.4248 0.55726 0.0
H2344 H 0.39333 0.4817 0.5163 0.0
H2345 H 0.33219 0.47211 0.54817 0.0
H2346 H 0.30705 0.46618 0.59548 0.0
H2347 H 0.31898 0.51482 0.66277 0.0
H2348 H 0.34434 0.52091 0.61622 0.0
H2349 H 0.37188 0.55709 0.36771 0.0
H2350 H 0.37032 0.52751 0.40791 0.0
H2351 H 0.36856 0.55447 0.52956 0.0
H2352 H 0.36992 0.5838 0.49006 0.0
H2353 H 0.34553 0.52683 0.52869 0.0
H2354 H 0.40691 0.53602 0.49752 0.0
H2355 H 0.43202 0.54195 0.45012 0.0
H2356 H 0.41945 0.49385 0.38125 0.0
H2357 H 0.39409 0.48777 0.42788 0.0
C2358 C 0.36946 0.45206 0.64314 0.0
C2359 C 0.37139 0.43587 0.62134 0.0
C2360 C 0.3687 0.46888 0.61946 0.0
C2361 C 0.36963 0.46981 0.57352 0.0
C2362 C 0.37141 0.45362 0.55191 0.0
C2363 C 0.37228 0.43692 0.5754 0.0
C2364 C 0.36915 0.48752 0.54762 0.0
C2365 C 0.38272 0.49144 0.51866 0.0
C2366 C 0.35554 0.50048 0.55108 0.0
C2367 C 0.34027 0.49687 0.57901 0.0
C2368 C 0.32953 0.48147 0.57328 0.0
C2369 C 0.31523 0.47809 0.59992 0.0
C2370 C 0.31145 0.49009 0.63219 0.0
C2371 C 0.32194 0.50552 0.63781 0.0
C2372 C 0.33627 0.50895 0.61128 0.0
C2373 C 0.37103 0.5567 0.40296 0.0
C2374 C 0.37115 0.57287 0.42553 0.0
C2375 C 0.37021 0.53978 0.42597 0.0
C2376 C 0.3695 0.53872 0.47193 0.0
C2377 C 0.3691 0.55487 0.49421 0.0
C2378 C 0.36998 0.57169 0.47141 0.0
C2379 C 0.36965 0.52092 0.49731 0.0
C2380 C 0.35607 0.51703 0.52624 0.0
C2381 C 0.38323 0.50796 0.4938 0.0
C2382 C 0.39849 0.51155 0.46585 0.0
C2383 C 0.40942 0.52679 0.47203 0.0
C2384 C 0.42371 0.53016 0.44535 0.0
C2385 C 0.4273 0.51832 0.41261 0.0
C2386 C 0.41663 0.50304 0.40657 0.0
C2387 C 0.40231 0.49962 0.43313 0.0
H2388 H 0.43837 0.52095 0.39199 0.0
H2389 H 0.30037 0.48745 0.65278 0.0
H2390 H 0.82961 0.10681 0.81737 0.0
H2391 H 0.80015 0.1066 0.77975 0.0
H2392 H 0.7861 0.15484 0.84414 0.0
H2393 H 0.81575 0.15553 0.88039 0.0
H2394 H 0.759 0.12771 0.84527 0.0
H2395 H 0.79396 0.1613 0.74618 0.0
H2396 H 0.81875 0.16894 0.69909 0.0
H2397 H 0.80666 0.12268 0.62309 0.0
H2398 H 0.78189 0.11458 0.67025 0.0
H2399 H 0.69519 0.15627 0.64558 0.0
H2400 H 0.72435 0.15595 0.68396 0.0
H2401 H 0.71223 0.10423 0.74737 0.0
H2402 H 0.68302 0.10437 0.70831 0.0
H2403 H 0.75241 0.134 0.68325 0.0
H2404 H 0.73229 0.10373 0.85347 0.0
H2405 H 0.70684 0.10411 0.90124 0.0
H2406 H 0.68842 0.15382 0.83605 0.0
H2407 H 0.71384 0.15389 0.78841 0.0
C2408 C 0.82029 0.11744 0.82331 0.0
C2409 C 0.82515 0.13128 0.85165 0.0
C2410 C 0.80341 0.11727 0.80186 0.0
C2411 C 0.7908 0.1307 0.80901 0.0
C2412 C 0.7955 0.14429 0.8381 0.0
C2413 C 0.81251 0.1447 0.85873 0.0
C2414 C 0.77289 0.13078 0.78555 0.0
C2415 C 0.75758 0.12886 0.80982 0.0
C2416 C 0.77087 0.13297 0.73935 0.0
C2417 C 0.7862 0.13721 0.71208 0.0
C2418 C 0.79674 0.15258 0.71985 0.0
C2419 C 0.81073 0.15706 0.69303 0.0
C2420 C 0.81423 0.14635 0.65805 0.0
C2421 C 0.80388 0.131 0.65014 0.0
C2422 C 0.78987 0.12645 0.67693 0.0
C2423 C 0.69872 0.14477 0.66757 0.0
C2424 C 0.68669 0.13037 0.67391 0.0
C2425 C 0.71548 0.14459 0.68948 0.0
C2426 C 0.72061 0.13012 0.7189 0.0
C2427 C 0.70862 0.11565 0.72523 0.0
C2428 C 0.6919 0.11573 0.70282 0.0
C2429 C 0.73846 0.1303 0.74282 0.0
C2430 C 0.7538 0.13239 0.71865 0.0
C2431 C 0.74044 0.12889 0.78919 0.0
C2432 C 0.72487 0.12868 0.81703 0.0
C2433 C 0.72279 0.11472 0.84932 0.0
C2434 C 0.70839 0.11488 0.87641 0.0
C2435 C 0.69605 0.129 0.87169 0.0
C2436 C 0.69798 0.14289 0.83962 0.0
C2437 C 0.71236 0.14281 0.81251 0.0
H2438 H 0.68505 0.12925 0.89305 0.0
H2439 H 0.82493 0.14999 0.63705 0.0
H2440 H 0.882 0.5517 0.15511 0.0
H2441 H 0.88157 0.52413 0.11276 0.0
H2442 H 0.86326 0.55559 0.99719 0.0
H2443 H 0.86397 0.58303 0.03879 0.0
H2444 H 0.84579 0.52167 1.00732 0.0
H2445 H 0.90427 0.54673 1.00635 0.0
H2446 H 0.93196 0.55865 0.03976 0.0
H2447 H 0.94207 0.50707 0.10728 0.0
H2448 H 0.91415 0.49497 0.07511 0.0
H2449 H 0.86555 0.45563 0.8507 0.0
H2450 H 0.86455 0.48441 0.88814 0.0
H2451 H 0.88864 0.45813 1.00491 0.0
H2452 H 0.88987 0.42978 0.96819 0.0
H2453 H 0.90312 0.49063 0.99105 0.0
H2454 H 0.84387 0.46602 0.99419 0.0
H2455 H 0.81582 0.45444 0.96162 0.0
H2456 H 0.80729 0.50529 0.88949 0.0
H2457 H 0.83543 0.51708 0.92121 0.0
C2458 C 0.87763 0.55264 0.12087 0.0
C2459 C 0.87311 0.56954 0.10029 0.0
C2460 C 0.87746 0.53692 0.09665 0.0
C2461 C 0.87247 0.53782 0.05168 0.0
C2462 C 0.86714 0.55454 0.03175 0.0
C2463 C 0.86763 0.57023 0.05562 0.0
C2464 C 0.87374 0.52163 0.02466 0.0
C2465 C 0.85835 0.51497 1.0034 0.0
C2466 C 0.8901 0.51285 0.01963 0.0
C2467 C 0.907 0.52 0.03872 0.0
C2468 C 0.9123 0.53797 0.02866 0.0
C2469 C 0.92806 0.54476 0.04732 0.0
C2470 C 0.93877 0.53363 0.07566 0.0
C2471 C 0.93375 0.51569 0.08536 0.0
C2472 C 0.91794 0.50886 0.06696 0.0
C2473 C 0.87075 0.45606 0.8842 0.0
C2474 C 0.87765 0.4403 0.90637 0.0
C2475 C 0.87009 0.47249 0.90569 0.0
C2476 C 0.87637 0.47344 0.94963 0.0
C2477 C 0.8837 0.45783 0.97114 0.0
C2478 C 0.88429 0.44153 0.94995 0.0
C2479 C 0.8751 0.4904 0.97412 0.0
C2480 C 0.89054 0.49729 0.99486 0.0
C2481 C 0.85878 0.49939 0.97863 0.0
C2482 C 0.84184 0.49235 0.95967 0.0
C2483 C 0.83608 0.47468 0.97111 0.0
C2484 C 0.82016 0.46809 0.95286 0.0
C2485 C 0.80981 0.4791 0.9234 0.0
C2486 C 0.81534 0.49676 0.91224 0.0
C2487 C 0.83127 0.50341 0.93036 0.0
H2488 H 0.79749 0.47398 0.9093 0.0
H2489 H 0.95098 0.53891 0.09003 0.0
H2490 H 0.20302 0.12021 0.87626 0.0
H2491 H 0.23342 0.11994 0.85101 0.0
H2492 H 0.21303 0.12107 0.71705 0.0
H2493 H 0.1828 0.12132 0.74177 0.0
H2494 H 0.24027 0.0973 0.72904 0.0
H2495 H 0.22827 0.15866 0.76381 0.0
H2496 H 0.21949 0.18234 0.8124 0.0
H2497 H 0.26462 0.16994 0.89904 0.0
H2498 H 0.27329 0.1456 0.85178 0.0
H2499 H 0.32273 0.15316 0.65554 0.0
H2500 H 0.29357 0.15108 0.68717 0.0
H2501 H 0.30503 0.09622 0.73492 0.0
H2502 H 0.33418 0.09818 0.70262 0.0
H2503 H 0.28247 0.14628 0.76779 0.0
H2504 H 0.26617 0.07164 0.73603 0.0
H2505 H 0.27363 0.0481 0.68534 0.0
H2506 H 0.28399 0.08928 0.58581 0.0
H2507 H 0.27634 0.11307 0.6357 0.0
C2508 C 0.20498 0.12036 0.84142 0.0
C2509 C 0.19032 0.12089 0.81119 0.0
C2510 C 0.22242 0.12023 0.82698 0.0
C2511 C 0.22565 0.12056 0.78196 0.0
C2512 C 0.21101 0.12075 0.75189 0.0
C2513 C 0.19365 0.12101 0.76622 0.0
C2514 C 0.24413 0.12127 0.76578 0.0
C2515 C 0.24952 0.10795 0.73784 0.0
C2516 C 0.25627 0.13526 0.77657 0.0
C2517 C 0.25132 0.15016 0.8045 0.0
C2518 C 0.23625 0.16087 0.79341 0.0
C2519 C 0.2313 0.17443 0.82071 0.0
C2520 C 0.24151 0.17771 0.85874 0.0
C2521 C 0.2567 0.16738 0.86958 0.0
C2522 C 0.26162 0.15365 0.84262 0.0
C2523 C 0.31904 0.14062 0.6727 0.0
C2524 C 0.33078 0.12579 0.67626 0.0
C2525 C 0.30235 0.13948 0.69103 0.0
C2526 C 0.29686 0.12344 0.71326 0.0
C2527 C 0.30872 0.10868 0.71745 0.0
C2528 C 0.32544 0.10982 0.69906 0.0
C2529 C 0.27868 0.1222 0.7313 0.0
C2530 C 0.27332 0.13548 0.75946 0.0
C2531 C 0.26649 0.10826 0.7204 0.0
C2532 C 0.27086 0.09412 0.68979 0.0
C2533 C 0.26997 0.07566 0.70328 0.0
C2534 C 0.27424 0.06228 0.6747 0.0
C2535 C 0.27934 0.0672 0.63245 0.0
C2536 C 0.2801 0.08551 0.61861 0.0
C2537 C 0.27581 0.09894 0.64704 0.0
H2538 H 0.28265 0.0568 0.61045 0.0
H2539 H 0.23766 0.18826 0.87978 0.0
H2540 H 0.65715 0.58279 0.42193 0.0
H2541 H 0.65788 0.55589 0.47179 0.0
H2542 H 0.60938 0.53678 0.40945 0.0
H2543 H 0.60816 0.56428 0.36098 0.0
H2544 H 0.6076 0.53014 0.49219 0.0
H2545 H 0.65266 0.51904 0.39172 0.0
H2546 H 0.67949 0.5256 0.35079 0.0
H2547 H 0.71049 0.52791 0.4716 0.0
H2548 H 0.68379 0.52158 0.51328 0.0
H2549 H 0.61469 0.43648 0.55489 0.0
H2550 H 0.61458 0.46595 0.51535 0.0
H2551 H 0.65536 0.4849 0.60529 0.0
H2552 H 0.65539 0.45517 0.64588 0.0
H2553 H 0.66186 0.49246 0.51388 0.0
H2554 H 0.61569 0.50074 0.61316 0.0
H2555 H 0.58837 0.49271 0.65076 0.0
H2556 H 0.55887 0.49404 0.52732 0.0
H2557 H 0.58607 0.5018 0.48887 0.0
C2558 C 0.64658 0.5729 0.41898 0.0
C2559 C 0.63255 0.57574 0.38756 0.0
C2560 C 0.6471 0.55738 0.44733 0.0
C2561 C 0.63386 0.54396 0.44423 0.0
C2562 C 0.61981 0.54681 0.41274 0.0
C2563 C 0.61915 0.56251 0.38479 0.0
C2564 C 0.63458 0.52708 0.47385 0.0
C2565 C 0.61944 0.52184 0.49641 0.0
C2566 C 0.6501 0.51629 0.48057 0.0
C2567 C 0.66619 0.52003 0.45561 0.0
C2568 C 0.66518 0.52108 0.40956 0.0
C2569 C 0.68036 0.52473 0.38623 0.0
C2570 C 0.69668 0.52722 0.40858 0.0
C2571 C 0.69784 0.52601 0.45433 0.0
C2572 C 0.68269 0.52237 0.47782 0.0
C2573 C 0.62362 0.44689 0.56662 0.0
C2574 C 0.63507 0.44339 0.60372 0.0
C2575 C 0.62348 0.46381 0.54391 0.0
C2576 C 0.63489 0.47774 0.5573 0.0
C2577 C 0.6464 0.47438 0.59433 0.0
C2578 C 0.64635 0.45742 0.61765 0.0
C2579 C 0.63487 0.49555 0.53167 0.0
C2580 C 0.65011 0.5009 0.50982 0.0
C2581 C 0.61937 0.50629 0.52506 0.0
C2582 C 0.60296 0.50169 0.5481 0.0
C2583 C 0.60341 0.49916 0.59398 0.0
C2584 C 0.58794 0.49469 0.61546 0.0
C2585 C 0.5719 0.49282 0.59144 0.0
C2586 C 0.5713 0.49547 0.54588 0.0
C2587 C 0.58674 0.49992 0.52423 0.0
H2588 H 0.55994 0.48936 0.60813 0.0
H2589 H 0.70842 0.53005 0.39046 0.0
H2590 H 0.32563 0.91208 0.317 0.0
H2591 H 0.29524 0.91318 0.28424 0.0
H2592 H 0.29129 0.85503 0.30235 0.0
H2593 H 0.32143 0.85393 0.33582 0.0
H2594 H 0.27858 0.86816 0.21835 0.0
H2595 H 0.27097 0.88096 0.36966 0.0
H2596 H 0.27644 0.89791 0.43648 0.0
H2597 H 0.25762 0.94683 0.36822 0.0
H2598 H 0.25226 0.93021 0.30078 0.0
H2599 H 0.18708 0.85366 0.17528 0.0
H2600 H 0.21724 0.85476 0.20746 0.0
H2601 H 0.21267 0.9127 0.21719 0.0
H2602 H 0.18199 0.9114 0.18693 0.0
H2603 H 0.23045 0.90133 0.28497 0.0
H2604 H 0.2376 0.8904 0.13486 0.0
H2605 H 0.23306 0.87529 0.06507 0.0
H2606 H 0.25393 0.82563 0.12551 0.0
H2607 H 0.25838 0.84038 0.19584 0.0
C2608 C 0.31828 0.89953 0.31401 0.0
C2609 C 0.326 0.88291 0.32929 0.0
C2610 C 0.30084 0.90017 0.29534 0.0
C2611 C 0.29076 0.88419 0.29086 0.0
C2612 C 0.29864 0.86758 0.30533 0.0
C2613 C 0.31592 0.86697 0.32463 0.0
C2614 C 0.27206 0.88466 0.27128 0.0
C2615 C 0.26802 0.87525 0.23322 0.0
C2616 C 0.25826 0.89442 0.28951 0.0
C2617 C 0.2614 0.90439 0.33006 0.0
C2618 C 0.26814 0.89537 0.3688 0.0
C2619 C 0.27119 0.90491 0.4068 0.0
C2620 C 0.26743 0.92345 0.40657 0.0
C2621 C 0.26056 0.93248 0.36834 0.0
C2622 C 0.2575 0.923 0.33023 0.0
C2623 C 0.19248 0.86667 0.18423 0.0
C2624 C 0.18209 0.88246 0.17805 0.0
C2625 C 0.2099 0.86733 0.20242 0.0
C2626 C 0.21776 0.8839 0.21398 0.0
C2627 C 0.20721 0.89969 0.20852 0.0
C2628 C 0.18961 0.89897 0.191 0.0
C2629 C 0.23679 0.88464 0.23194 0.0
C2630 C 0.24094 0.89429 0.26975 0.0
C2631 C 0.25081 0.87539 0.21295 0.0
C2632 C 0.24817 0.86645 0.17072 0.0
C2633 C 0.24111 0.87622 0.13334 0.0
C2634 C 0.23857 0.86772 0.09368 0.0
C2635 C 0.24317 0.8495 0.09089 0.0
C2636 C 0.25036 0.83974 0.12774 0.0
C2637 C 0.25291 0.84816 0.1675 0.0
H2638 H 0.24119 0.84294 0.06015 0.0
H2639 H 0.2698 0.93081 0.43602 0.0
H2640 H 0.65894 0.92898 0.46274 0.0
H2641 H 0.66029 0.95698 0.50201 0.0
H2642 H 0.62645 0.98326 0.40069 0.0
H2643 H 0.62598 0.95533 0.3599 0.0
H2644 H 0.64887 0.00656 0.42644 0.0
H2645 H 0.61256 0.96421 0.50729 0.0
H2646 H 0.60531 0.93577 0.54846 0.0
H2647 H 0.6474 0.94562 0.64351 0.0
H2648 H 0.65515 0.97393 0.6025 0.0
H2649 H 0.62062 0.07939 0.54575 0.0
H2650 H 0.62226 0.05138 0.50751 0.0
H2651 H 0.65892 0.02931 0.60838 0.0
H2652 H 0.6569 0.05747 0.64794 0.0
H2653 H 0.63641 1.00389 0.58428 0.0
H2654 H 0.67203 0.04669 0.5043 0.0
H2655 H 0.67896 0.07529 0.46345 0.0
H2656 H 0.63755 0.06471 0.36715 0.0
H2657 H 0.63015 0.0362 0.40779 0.0
C2658 C 0.65196 0.94081 0.44851 0.0
C2659 C 0.64231 0.93991 0.40821 0.0
C2660 C 0.65256 0.95681 0.47135 0.0
C2661 C 0.64298 0.97224 0.4554 0.0
C2662 C 0.63386 0.97158 0.41418 0.0
C2663 C 0.63362 0.95563 0.39068 0.0
C2664 C 0.64247 0.98895 0.48163 0.0
C2665 C 0.64588 0.00593 0.46079 0.0
C2666 C 0.63913 0.98829 0.52706 0.0
C2667 C 0.63456 0.97113 0.5515 0.0
C2668 C 0.62038 0.96024 0.53673 0.0
C2669 C 0.61618 0.94414 0.56008 0.0
C2670 C 0.62591 0.93889 0.59853 0.0
C2671 C 0.6399 0.9497 0.61368 0.0
C2672 C 0.6442 0.96576 0.59039 0.0
C2673 C 0.62906 0.06862 0.56008 0.0
C2674 C 0.63877 0.07083 0.59992 0.0
C2675 C 0.63007 0.05256 0.53783 0.0
C2676 C 0.6411 0.03827 0.55416 0.0
C2677 C 0.65042 0.04016 0.59471 0.0
C2678 C 0.64926 0.05626 0.6174 0.0
C2679 C 0.64263 0.02143 0.52891 0.0
C2680 C 0.63943 1.00446 0.54993 0.0
C2681 C 0.64609 0.02209 0.48363 0.0
C2682 C 0.65045 0.03934 0.45934 0.0
C2683 C 0.66429 0.05053 0.47463 0.0
C2684 C 0.66832 0.06672 0.45147 0.0
C2685 C 0.65869 0.07181 0.41275 0.0
C2686 C 0.64499 0.06075 0.39716 0.0
C2687 C 0.64088 0.04457 0.42023 0.0
H2688 H 0.66189 0.08428 0.39472 0.0
H2689 H 0.62258 0.9265 0.6167 0.0
H2690 H 0.18434 0.40447 0.82147 0.0
H2691 H 0.2137 0.40582 0.79011 0.0
H2692 H 0.22289 0.34995 0.83316 0.0
H2693 H 0.19388 0.34879 0.86534 0.0
H2694 H 0.25141 0.36645 0.85045 0.0
H2695 H 0.21629 0.3654 0.71379 0.0
H2696 H 0.19438 0.37468 0.65469 0.0
H2697 H 0.21567 0.42877 0.65124 0.0
H2698 H 0.23797 0.41966 0.70964 0.0
H2699 H 0.32234 0.34743 0.70927 0.0
H2700 H 0.29337 0.34908 0.74216 0.0
H2701 H 0.29665 0.40747 0.73632 0.0
H2702 H 0.32596 0.40585 0.70471 0.0
H2703 H 0.26285 0.39167 0.70135 0.0
H2704 H 0.30061 0.39053 0.83134 0.0
H2705 H 0.32483 0.37911 0.88185 0.0
H2706 H 0.29896 0.3273 0.89422 0.0
H2707 H 0.27453 0.33846 0.84369 0.0
C2708 C 0.19259 0.39245 0.824 0.0
C2709 C 0.18667 0.37654 0.84616 0.0
C2710 C 0.20943 0.39316 0.80568 0.0
C2711 C 0.22079 0.37793 0.80859 0.0
C2712 C 0.21467 0.36199 0.83031 0.0
C2713 C 0.19794 0.36131 0.84871 0.0
C2714 C 0.23924 0.37864 0.79097 0.0
C2715 C 0.25371 0.37178 0.81757 0.0
C2716 C 0.24285 0.38601 0.74852 0.0
C2717 C 0.22858 0.39193 0.71639 0.0
C2718 C 0.21613 0.37932 0.70077 0.0
C2719 C 0.20378 0.3845 0.66711 0.0
C2720 C 0.2036 0.40233 0.64932 0.0
C2721 C 0.2158 0.41499 0.6651 0.0
C2722 C 0.22836 0.4098 0.69829 0.0
C2723 C 0.31694 0.36063 0.71517 0.0
C2724 C 0.3265 0.37651 0.70421 0.0
C2725 C 0.30037 0.36156 0.73411 0.0
C2726 C 0.2927 0.3784 0.74185 0.0
C2727 C 0.30219 0.3943 0.73074 0.0
C2728 C 0.31899 0.39336 0.71272 0.0
C2729 C 0.27466 0.3793 0.76057 0.0
C2730 C 0.26039 0.38644 0.73426 0.0
C2731 C 0.27123 0.37207 0.80304 0.0
C2732 C 0.28584 0.36527 0.8334 0.0
C2733 C 0.30016 0.37665 0.84454 0.0
C2734 C 0.31391 0.37024 0.87325 0.0
C2735 C 0.31351 0.35244 0.89103 0.0
C2736 C 0.29927 0.34107 0.88034 0.0
C2737 C 0.28544 0.34745 0.85177 0.0
H2738 H 0.32419 0.3475 0.9132 0.0
H2739 H 0.19405 0.40633 0.62325 0.0
H2740 H 0.87241 0.92559 0.06716 0.0
H2741 H 0.87134 0.95545 0.03098 0.0
H2742 H 0.86356 0.97951 0.1542 0.0
H2743 H 0.86458 0.94912 0.19161 0.0
H2744 H 0.84196 0.99501 0.08444 0.0
H2745 H 0.90308 0.98269 0.11418 0.0
H2746 H 0.93057 0.96466 0.11739 0.0
H2747 H 0.92795 0.96264 0.97728 0.0
H2748 H 0.90026 0.98042 0.97325 0.0
H2749 H 0.86617 0.08329 0.99947 0.0
H2750 H 0.86441 0.05453 0.0417 0.0
H2751 H 0.86938 0.02549 0.92398 0.0
H2752 H 0.87096 0.0545 0.88096 0.0
H2753 H 0.89286 0.01352 0.99541 0.0
H2754 H 0.83076 0.02571 0.96772 0.0
H2755 H 0.80357 0.04414 0.96669 0.0
H2756 H 0.80891 0.04744 0.10636 0.0
H2757 H 0.8363 0.02923 0.10816 0.0
C2758 C 0.87047 0.9371 0.08708 0.0
C2759 C 0.8688 0.93482 0.13273 0.0
C2760 C 0.86988 0.95427 0.06606 0.0
C2761 C 0.86769 0.96979 0.08984 0.0
C2762 C 0.86538 0.9677 0.1352 0.0
C2763 C 0.86599 0.95034 0.15655 0.0
C2764 C 0.8682 0.98799 0.06654 0.0
C2765 C 0.85321 0.99923 0.06565 0.0
C2766 C 0.88276 0.99337 0.04129 0.0
C2767 C 0.8995 0.98277 0.04345 0.0
C2768 C 0.90828 0.97828 0.08406 0.0
C2769 C 0.92392 0.96813 0.08603 0.0
C2770 C 0.93098 0.96248 0.04757 0.0
C2771 C 0.92245 0.96702 1.00705 0.0
C2772 C 0.90679 0.97715 1.0049 0.0
C2773 C 0.86677 0.07082 0.98232 0.0
C2774 C 0.86875 0.07121 0.93673 0.0
C2775 C 0.86569 0.05436 1.00661 0.0
C2776 C 0.8667 0.03784 0.98608 0.0
C2777 C 0.86854 0.0381 0.9405 0.0
C2778 C 0.86936 0.05466 0.91592 0.0
C2779 C 0.86652 0.0204 1.01274 0.0
C2780 C 0.88162 0.00934 0.01434 0.0
C2781 C 0.85216 0.01534 0.03899 0.0
C2782 C 0.83568 0.02626 0.03801 0.0
C2783 C 0.82623 0.0305 0.99817 0.0
C2784 C 0.81076 0.04088 0.99745 0.0
C2785 C 0.80454 0.047 0.03642 0.0
C2786 C 0.81376 0.04271 0.07619 0.0
C2787 C 0.82925 0.03235 0.07708 0.0
H2788 H 0.79256 0.05503 0.03579 0.0
H2789 H 0.94309 0.95461 0.04916 0.0
H2790 H 0.18297 0.60426 0.20562 0.0
H2791 H 0.21215 0.60426 0.24447 0.0
H2792 H 0.2238 0.65622 0.18141 0.0
H2793 H 0.19446 0.6566 0.14429 0.0
H2794 H 0.24455 0.60351 0.22408 0.0
H2795 H 0.25073 0.68156 0.24312 0.0
H2796 H 0.23099 0.70759 0.25201 0.0
H2797 H 0.19199 0.67181 0.30679 0.0
H2798 H 0.21159 0.64562 0.29893 0.0
H2799 H 0.33437 0.62133 0.28281 0.0
H2800 H 0.30462 0.6205 0.24839 0.0
H2801 H 0.28385 0.6444 0.36139 0.0
H2802 H 0.31398 0.64651 0.39399 0.0
H2803 H 0.26624 0.65784 0.29964 0.0
H2804 H 0.27999 0.59546 0.33297 0.0
H2805 H 0.29758 0.56732 0.33365 0.0
H2806 H 0.29312 0.56798 0.19321 0.0
H2807 H 0.27567 0.59625 0.19168 0.0
C2808 C 0.19173 0.61573 0.20032 0.0
C2809 C 0.18627 0.63052 0.17218 0.0
C2810 C 0.2085 0.61569 0.2224 0.0
C2811 C 0.22028 0.63038 0.21672 0.0
C2812 C 0.21495 0.6449 0.18754 0.0
C2813 C 0.19814 0.64505 0.16597 0.0
C2814 C 0.23808 0.6306 0.24107 0.0
C2815 C 0.24925 0.6154 0.24064 0.0
C2816 C 0.24424 0.64583 0.26404 0.0
C2817 C 0.23258 0.6616 0.27001 0.0
C2818 C 0.23799 0.67926 0.25732 0.0
C2819 C 0.22682 0.69404 0.26213 0.0
C2820 C 0.21023 0.69135 0.27981 0.0
C2821 C 0.20482 0.67388 0.29297 0.0
C2822 C 0.21595 0.65906 0.28833 0.0
C2823 C 0.32348 0.62628 0.30039 0.0
C2824 C 0.3266 0.63376 0.34136 0.0
C2825 C 0.3063 0.62571 0.28078 0.0
C2826 C 0.29156 0.6319 0.30245 0.0
C2827 C 0.29476 0.63946 0.34354 0.0
C2828 C 0.31204 0.64059 0.36242 0.0
C2829 C 0.27297 0.63082 0.28213 0.0
C2830 C 0.2616 0.64589 0.28328 0.0
C2831 C 0.26635 0.61515 0.26141 0.0
C2832 C 0.27665 0.59804 0.26222 0.0
C2833 C 0.28283 0.58964 0.30224 0.0
C2834 C 0.29277 0.57367 0.30277 0.0
C2835 C 0.29649 0.56589 0.26349 0.0
C2836 C 0.29023 0.57403 0.2236 0.0
C2837 C 0.2803 0.59001 0.22289 0.0
H2838 H 0.30421 0.55354 0.26397 0.0
H2839 H 0.20158 0.7028 0.28337 0.0
H2840 H 0.38144 0.95946 0.35531 0.0
H2841 H 0.38042 0.98711 0.39731 0.0
H2842 H 0.35422 0.9572 0.50017 0.0
H2843 H 0.35576 0.92957 0.45928 0.0
H2844 H 0.34093 0.99576 0.47595 0.0
H2845 H 0.39252 0.96004 0.5236 0.0
H2846 H 0.41888 0.94221 0.50818 0.0
H2847 H 0.44149 0.98907 0.44311 0.0
H2848 H 0.41506 0.00712 0.45757 0.0
H2849 H 0.35883 0.05522 0.65254 0.0
H2850 H 0.35575 0.02766 0.61044 0.0
H2851 H 0.39295 0.04956 0.51902 0.0
H2852 H 0.39611 0.07678 0.56052 0.0
H2853 H 0.3997 0.01441 0.53811 0.0
H2854 H 0.34891 0.05087 0.49375 0.0
H2855 H 0.32181 0.06836 0.50431 0.0
H2856 H 0.2972 0.0207 0.56049 0.0
H2857 H 0.32427 1.00296 0.55076 0.0
C2858 C 0.37514 0.95893 0.38641 0.0
C2859 C 0.36872 0.94239 0.40408 0.0
C2860 C 0.37457 0.97469 0.41041 0.0
C2861 C 0.3672 0.97421 0.45187 0.0
C2862 C 0.35984 0.95793 0.46821 0.0
C2863 C 0.36082 0.94214 0.44486 0.0
C2864 C 0.36888 0.99002 0.48032 0.0
C2865 C 0.35373 0.99977 0.48992 0.0
C2866 C 0.38557 0.99533 0.4983 0.0
C2867 C 0.40178 0.98485 0.49123 0.0
C2868 C 0.40308 0.96651 0.50582 0.0
C2869 C 0.41801 0.95638 0.49728 0.0
C2870 C 0.43179 0.9645 0.47452 0.0
C2871 C 0.43076 0.98281 0.46064 0.0
C2872 C 0.41582 0.99301 0.46903 0.0
C2873 C 0.36648 0.05403 0.62376 0.0
C2874 C 0.37765 0.06827 0.60989 0.0
C2875 C 0.36462 0.03834 0.59951 0.0
C2876 C 0.37399 0.03657 0.56118 0.0
C2877 C 0.38555 0.05054 0.54831 0.0
C2878 C 0.38729 0.06618 0.57214 0.0
C2879 C 0.37173 0.02042 0.53376 0.0
C2880 C 0.38684 0.0105 0.52435 0.0
C2881 C 0.35496 0.01503 0.51594 0.0
C2882 C 0.33869 0.02564 0.52197 0.0
C2883 C 0.33778 0.04415 0.50872 0.0
C2884 C 0.32242 0.0541 0.51448 0.0
C2885 C 0.30781 0.04566 0.53313 0.0
C2886 C 0.30853 0.02723 0.54608 0.0
C2887 C 0.32388 0.01721 0.54043 0.0
H2888 H 0.2959 0.05337 0.53736 0.0
H2889 H 0.44322 0.95658 0.46764 0.0
H2890 H 0.82446 0.65689 0.1631 0.0
H2891 H 0.79585 0.65583 0.19739 0.0
H2892 H 0.80417 0.59924 0.23468 0.0
H2893 H 0.83304 0.60039 0.20092 0.0
H2894 H 0.76676 0.63895 0.18031 0.0
H2895 H 0.78341 0.58712 0.32439 0.0
H2896 H 0.80859 0.57871 0.37563 0.0
H2897 H 0.82971 0.63265 0.36015 0.0
H2898 H 0.80485 0.64126 0.30847 0.0
H2899 H 0.68485 0.61097 0.26012 0.0
H2900 H 0.71483 0.61115 0.23392 0.0
H2901 H 0.73421 0.63536 0.35246 0.0
H2902 H 0.70415 0.63432 0.3799 0.0
H2903 H 0.75817 0.61358 0.33089 0.0
H2904 H 0.72579 0.66048 0.24944 0.0
H2905 H 0.70089 0.67362 0.20355 0.0
H2906 H 0.712 0.63797 0.10145 0.0
H2907 H 0.73685 0.62445 0.14697 0.0
C2908 C 0.82024 0.64422 0.17874 0.0
C2909 C 0.83106 0.62871 0.17915 0.0
C2910 C 0.80381 0.64361 0.19833 0.0
C2911 C 0.7977 0.62749 0.21904 0.0
C2912 C 0.80857 0.61197 0.21966 0.0
C2913 C 0.82507 0.61259 0.20011 0.0
C2914 C 0.77979 0.62687 0.23864 0.0
C2915 C 0.76494 0.63336 0.21323 0.0
C2916 C 0.77721 0.62001 0.28197 0.0
C2917 C 0.79238 0.61476 0.3123 0.0
C2918 C 0.79348 0.59714 0.33185 0.0
C2919 C 0.80774 0.59232 0.36084 0.0
C2920 C 0.82084 0.60509 0.3709 0.0
C2921 C 0.81971 0.62269 0.35197 0.0
C2922 C 0.80559 0.62752 0.32267 0.0
C2923 C 0.69548 0.61626 0.28083 0.0
C2924 C 0.69199 0.62279 0.32204 0.0
C2925 C 0.7127 0.61647 0.2656 0.0
C2926 C 0.72693 0.62374 0.29045 0.0
C2927 C 0.72357 0.62976 0.33231 0.0
C2928 C 0.70633 0.62919 0.34802 0.0
C2929 C 0.74508 0.62539 0.27228 0.0
C2930 C 0.75997 0.6191 0.29791 0.0
C2931 C 0.74779 0.63302 0.22958 0.0
C2932 C 0.73308 0.64135 0.20177 0.0
C2933 C 0.72288 0.65539 0.21727 0.0
C2934 C 0.70878 0.66291 0.19133 0.0
C2935 C 0.70484 0.6566 0.14966 0.0
C2936 C 0.71506 0.64283 0.13376 0.0
C2937 C 0.72916 0.63525 0.15959 0.0
H2938 H 0.69389 0.66241 0.12966 0.0
H2939 H 0.83182 0.60136 0.39352 0.0
H2940 H 0.15424 0.08005 0.91713 0.0
H2941 H 0.15469 0.05367 0.96858 0.0
H2942 H 0.10589 0.03455 0.9077 0.0
H2943 H 0.10489 0.06161 0.85783 0.0
H2944 H 0.10416 0.02835 0.99004 0.0
H2945 H 0.14932 0.01641 0.89026 0.0
H2946 H 0.17624 0.02262 0.84939 0.0
H2947 H 0.20708 0.02557 0.97028 0.0
H2948 H 0.18029 0.0196 1.01189 0.0
H2949 H 0.11108 0.93476 0.05403 0.0
H2950 H 0.11099 0.96418 0.01416 0.0
H2951 H 0.15146 0.9834 0.10461 0.0
H2952 H 0.15145 0.95375 0.14548 0.0
H2953 H 0.15825 0.99049 1.01306 0.0
H2954 H 0.11187 0.99924 0.11158 0.0
H2955 H 0.08444 0.99138 0.14885 0.0
H2956 H 0.05523 0.99253 0.02501 0.0
H2957 H 0.08255 1.00011 0.9869 0.0
C2958 C 0.14352 0.07029 0.91492 0.0
C2959 C 0.12948 0.07298 0.88347 0.0
C2960 C 0.14389 0.05505 0.94414 0.0
C2961 C 0.13051 0.04175 0.94181 0.0
C2962 C 0.11642 0.0445 0.9104 0.0
C2963 C 0.11589 0.05994 0.88167 0.0
C2964 C 0.13116 0.02507 0.972 0.0
C2965 C 0.11596 0.02001 0.99456 0.0
C2966 C 0.14664 0.01422 0.97909 0.0
C2967 C 0.16277 0.01775 0.95417 0.0
C2968 C 0.16182 0.01851 0.90812 0.0
C2969 C 0.17706 0.02197 0.88482 0.0
C2970 C 0.19335 0.02454 0.90722 0.0
C2971 C 0.19445 0.02361 0.95298 0.0
C2972 C 0.17925 0.02017 0.97644 0.0
C2973 C 0.11993 0.94523 0.06577 0.0
C2974 C 0.1313 0.94184 0.10306 0.0
C2975 C 0.11981 0.96211 0.04291 0.0
C2976 C 0.13115 0.97608 0.05636 0.0
C2977 C 0.14255 0.97283 0.09362 0.0
C2978 C 0.14248 0.95593 0.11709 0.0
C2979 C 0.13124 0.99379 0.03047 0.0
C2980 C 0.14654 0.99898 1.00869 0.0
C2981 C 0.11579 1.00457 0.0235 0.0
C2982 C 0.09931 1.00009 0.04635 0.0
C2983 C 0.09963 0.99766 0.09225 0.0
C2984 C 0.0841 0.99328 0.11353 0.0
C2985 C 0.06811 0.99141 0.08931 0.0
C2986 C 0.06763 0.99396 0.04374 0.0
C2987 C 0.08313 0.99832 0.02228 0.0
H2988 H 0.0561 0.98802 0.10585 0.0
H2989 H 0.20513 0.02722 0.88913 0.0
H2990 H 0.68156 0.40865 0.71149 0.0
H2991 H 0.71181 0.40971 0.74478 0.0
H2992 H 0.72497 0.36107 0.68079 0.0
H2993 H 0.6948 0.35988 0.64795 0.0
H2994 H 0.73065 0.38606 0.80111 0.0
H2995 H 0.7688 0.36356 0.65336 0.0
H2996 H 0.76599 0.36545 0.57264 0.0
H2997 H 0.73443 0.41363 0.57602 0.0
H2998 H 0.73725 0.41217 0.65669 0.0
H2999 H 0.81826 0.35648 0.86749 0.0
H3000 H 0.78832 0.35878 0.83329 0.0
H3001 H 0.80275 0.40866 0.76471 0.0
H3002 H 0.83274 0.40656 0.79956 0.0
H3003 H 0.78338 0.38614 0.7103 0.0
H3004 H 0.77744 0.41011 0.8513 0.0
H3005 H 0.78031 0.41018 0.93187 0.0
H3006 H 0.74746 0.36266 0.94172 0.0
H3007 H 0.74461 0.36215 0.86116 0.0
C3008 C 0.69091 0.39821 0.70444 0.0
C3009 C 0.6857 0.38423 0.6768 0.0
C3010 C 0.70823 0.39878 0.72367 0.0
C3011 C 0.72091 0.38556 0.71521 0.0
C3012 C 0.71566 0.37159 0.68762 0.0
C3013 C 0.69832 0.3709 0.66885 0.0
C3014 C 0.73953 0.38624 0.73529 0.0
C3015 C 0.74214 0.38605 0.78113 0.0
C3016 C 0.75472 0.38652 0.70963 0.0
C3017 C 0.7531 0.38764 0.6611 0.0
C3018 C 0.76132 0.37459 0.63687 0.0
C3019 C 0.75971 0.37559 0.59112 0.0
C3020 C 0.74999 0.38962 0.56922 0.0
C3021 C 0.7419 0.40273 0.59303 0.0
C3022 C 0.74347 0.40181 0.63877 0.0
C3023 C 0.8151 0.36797 0.84515 0.0
C3024 C 0.828 0.38133 0.83637 0.0
C3025 C 0.79789 0.3693 0.82562 0.0
C3026 C 0.79305 0.38396 0.79643 0.0
C3027 C 0.80602 0.39719 0.787 0.0
C3028 C 0.82321 0.39598 0.80702 0.0
C3029 C 0.77448 0.38546 0.77613 0.0
C3030 C 0.77189 0.38608 0.73026 0.0
C3031 C 0.75929 0.38571 0.80175 0.0
C3032 C 0.76095 0.38599 0.85019 0.0
C3033 C 0.77095 0.39958 0.87064 0.0
C3034 C 0.77255 0.39972 0.91631 0.0
C3035 C 0.7641 0.38641 0.9419 0.0
C3036 C 0.75401 0.37295 0.92186 0.0
C3037 C 0.75238 0.37274 0.87619 0.0
H3038 H 0.76535 0.38654 0.97725 0.0
H3039 H 0.74876 0.39036 0.53381 0.0
loop_
_geom_bond_atom_site_label_1
_geom_bond_atom_site_label_2
_geom_bond_distance
_geom_bond_site_symmetry_2
_ccdc_geom_bond_type
C0 Eu1 2.835 . S
C0 C2 1.500 . S
C0 O20 1.257 . S
C0 O21 1.260 . S
Eu1 C0 2.835 . S
Eu1 O20 2.473 . S
Eu1 O21 2.480 . S
Eu1 O22 2.430 . S
Eu1 O23 2.670 . S
Eu1 O24 2.394 . S
Eu1 O29 2.355 . S
Eu1 O31 2.374 . S
C2 C0 1.500 . S
C2 C3 1.377 1_554 S
C2 C7 1.377 1_554 S
C3 C2 1.377 1_556 S
C3 C4 1.395 . S
C3 H32 0.931 . S
C4 C3 1.395 . S
C4 C5 1.383 . S
C4 H33 0.931 . S
C5 C4 1.383 . S
C5 C6 1.394 . S
C6 C5 1.394 . S
C6 C7 1.378 . S
C6 H34 0.931 . S
C7 C2 1.377 1_556 S
C7 C6 1.378 . S
C7 H35 0.931 1_556 S
C8 O22 1.259 . S
C8 O23 1.270 . S
C9 O24 1.251 . S
C9 O25 1.251 . S
C10 Eu11 2.835 . S
C10 C12 1.500 . S
C10 O26 1.257 . S
C10 O27 1.260 . S
Eu11 C10 2.835 . S
Eu11 O23 2.355 . S
Eu11 O25 2.374 . S
Eu11 O26 2.473 . S
Eu11 O27 2.480 . S
Eu11 O28 2.430 . S
Eu11 O29 2.670 . S
Eu11 O30 2.394 . S
C12 C10 1.500 . S
C12 C13 1.377 . S
C12 C17 1.377 . S
C13 C12 1.377 . S
C13 C14 1.395 . S
C13 H36 0.931 . S
C14 C13 1.395 . S
C14 C15 1.383 . S
C14 H37 0.931 . S
C15 C14 1.383 . S
C15 C16 1.394 . S
C16 C15 1.394 . S
C16 C17 1.378 . S
C16 H38 0.931 . S
C17 C12 1.377 . S
C17 C16 1.378 . S
C17 H39 0.931 . S
C18 O28 1.259 . S
C18 O29 1.270 . S
C19 O30 1.251 . S
C19 O31 1.251 . S
O20 C0 1.257 . S
O20 Eu1 2.473 . S
O21 C0 1.260 . S
O21 Eu1 2.480 . S
O22 Eu1 2.430 . S
O22 C8 1.259 . S
O23 Eu1 2.670 . S
O23 C8 1.270 . S
O23 Eu11 2.355 . S
O24 Eu1 2.394 . S
O24 C9 1.251 . S
O25 C9 1.251 . S
O25 Eu11 2.374 . S
O26 C10 1.257 . S
O26 Eu11 2.473 . S
O27 C10 1.260 . S
O27 Eu11 2.480 . S
O28 Eu11 2.430 . S
O28 C18 1.259 . S
O29 Eu1 2.355 . S
O29 Eu11 2.670 . S
O29 C18 1.270 . S
O30 Eu11 2.394 . S
O30 C19 1.251 . S
O31 Eu1 2.374 . S
O31 C19 1.251 . S
H32 C3 0.931 . S
H33 C4 0.931 . S
H34 C6 0.931 . S
H35 C7 0.931 1_554 S
H36 C13 0.931 . S
H37 C14 0.931 . S
H38 C16 0.931 . S
H39 C17 0.931 . S
C40 Eu41 2.835 . S
C40 C42 1.500 . S
C40 O60 1.257 . S
C40 O61 1.260 . S
Eu41 C40 2.835 . S
Eu41 O60 2.473 . S
Eu41 O61 2.480 . S
Eu41 O62 2.430 . S
Eu41 O63 2.670 . S
Eu41 O64 2.394 . S
Eu41 O69 2.355 . S
Eu41 O71 2.374 . S
C42 C40 1.500 . S
C42 C43 1.377 . S
C42 C47 1.377 . S
C43 C42 1.377 . S
C43 C44 1.395 . S
C43 H72 0.931 . S
C44 C43 1.395 . S
C44 C45 1.383 . S
C44 H73 0.931 . S
C45 C44 1.383 . S
C45 C46 1.394 . S
C46 C45 1.394 . S
C46 C47 1.378 . S
C46 H74 0.931 . S
C47 C42 1.377 . S
C47 C46 1.378 . S
C47 H75 0.931 . S
C48 O62 1.259 . S
C48 O63 1.270 . S
C49 O64 1.251 . S
C49 O65 1.251 . S
C50 Eu51 2.835 . S
C50 C52 1.500 . S
C50 O66 1.257 . S
C50 O67 1.260 . S
Eu51 C50 2.835 . S
Eu51 O63 2.355 . S
Eu51 O65 2.374 . S
Eu51 O66 2.473 . S
Eu51 O67 2.480 . S
Eu51 O68 2.430 . S
Eu51 O69 2.670 . S
Eu51 O70 2.394 . S
C52 C50 1.500 . S
C52 C53 1.377 . S
C52 C57 1.377 . S
C53 C52 1.377 . S
C53 C54 1.395 . S
C53 H76 0.931 . S
C54 C53 1.395 . S
C54 C55 1.383 . S
C54 H77 0.931 . S
C55 C54 1.383 . S
C55 C56 1.394 . S
C56 C55 1.394 . S
C56 C57 1.378 . S
C56 H78 0.931 . S
C57 C52 1.377 . S
C57 C56 1.378 . S
C57 H79 0.931 . S
C58 O68 1.259 . S
C58 O69 1.270 . S
C59 O70 1.251 . S
C59 O71 1.251 . S
O60 C40 1.257 . S
O60 Eu41 2.473 . S
O61 C40 1.260 . S
O61 Eu41 2.480 . S
O62 Eu41 2.430 . S
O62 C48 1.259 . S
O63 Eu41 2.670 . S
O63 C48 1.270 . S
O63 Eu51 2.355 . S
O64 Eu41 2.394 . S
O64 C49 1.251 . S
O65 C49 1.251 . S
O65 Eu51 2.374 . S
O66 C50 1.257 . S
O66 Eu51 2.473 . S
O67 C50 1.260 . S
O67 Eu51 2.480 . S
O68 Eu51 2.430 . S
O68 C58 1.259 . S
O69 Eu41 2.355 . S
O69 Eu51 2.670 . S
O69 C58 1.270 . S
O70 Eu51 2.394 . S
O70 C59 1.251 . S
O71 Eu41 2.374 . S
O71 C59 1.251 . S
H72 C43 0.931 . S
H73 C44 0.931 . S
H74 C46 0.931 . S
H75 C47 0.931 . S
H76 C53 0.931 . S
H77 C54 0.931 . S
H78 C56 0.931 . S
H79 C57 0.931 . S
C80 Eu81 2.835 . S
C80 C82 1.500 . S
C80 O100 1.257 . S
C80 O101 1.260 . S
Eu81 C80 2.835 . S
Eu81 O100 2.473 . S
Eu81 O101 2.480 . S
Eu81 O102 2.430 . S
Eu81 O103 2.670 . S
Eu81 O104 2.394 . S
Eu81 O109 2.355 . S
Eu81 O111 2.374 . S
C82 C80 1.500 . S
C82 C83 1.377 . S
C82 C87 1.377 . S
C83 C82 1.377 . S
C83 C84 1.395 . S
C83 H112 0.931 . S
C84 C83 1.395 . S
C84 C85 1.383 . S
C84 H113 0.931 . S
C85 C84 1.383 . S
C85 C86 1.394 . S
C86 C85 1.394 . S
C86 C87 1.378 . S
C86 H114 0.931 . S
C87 C82 1.377 . S
C87 C86 1.378 . S
C87 H115 0.931 . S
C88 O102 1.259 . S
C88 O103 1.270 . S
C89 O104 1.251 . S
C89 O105 1.251 . S
C90 Eu91 2.835 . S
C90 C92 1.500 . S
C90 O106 1.257 . S
C90 O107 1.260 . S
Eu91 C90 2.835 . S
Eu91 O103 2.355 . S
Eu91 O105 2.374 . S
Eu91 O106 2.473 . S
Eu91 O107 2.480 . S
Eu91 O108 2.430 . S
Eu91 O109 2.670 . S
Eu91 O110 2.394 . S
C92 C90 1.500 . S
C92 C93 1.377 . S
C92 C97 1.377 . S
C93 C92 1.377 . S
C93 C94 1.395 . S
C93 H116 0.931 . S
C94 C93 1.395 . S
C94 C95 1.383 . S
C94 H117 0.931 . S
C95 C94 1.383 . S
C95 C96 1.394 . S
C96 C95 1.394 . S
C96 C97 1.378 . S
C96 H118 0.931 . S
C97 C92 1.377 . S
C97 C96 1.378 . S
C97 H119 0.931 . S
C98 O108 1.259 . S
C98 O109 1.270 . S
C99 O110 1.251 . S
C99 O111 1.251 . S
O100 C80 1.257 . S
O100 Eu81 2.473 . S
O101 C80 1.260 . S
O101 Eu81 2.480 . S
O102 Eu81 2.430 . S
O102 C88 1.259 . S
O103 Eu81 2.670 . S
O103 C88 1.270 . S
O103 Eu91 2.355 . S
O104 Eu81 2.394 . S
O104 C89 1.251 . S
O105 C89 1.251 . S
O105 Eu91 2.374 . S
O106 C90 1.257 . S
O106 Eu91 2.473 . S
O107 C90 1.260 . S
O107 Eu91 2.480 . S
O108 Eu91 2.430 . S
O108 C98 1.259 . S
O109 Eu81 2.355 . S
O109 Eu91 2.670 . S
O109 C98 1.270 . S
O110 Eu91 2.394 . S
O110 C99 1.251 . S
O111 Eu81 2.374 . S
O111 C99 1.251 . S
H112 C83 0.931 . S
H113 C84 0.931 . S
H114 C86 0.931 . S
H115 C87 0.931 . S
H116 C93 0.931 . S
H117 C94 0.931 . S
H118 C96 0.931 . S
H119 C97 0.931 . S
C120 Eu121 2.835 . S
C120 C122 1.500 1_556 S
C120 O140 1.257 . S
C120 O141 1.260 . S
Eu121 C120 2.835 . S
Eu121 O140 2.473 . S
Eu121 O141 2.480 . S
Eu121 O142 2.430 . S
Eu121 O143 2.670 . S
Eu121 O144 2.394 . S
Eu121 O149 2.355 . S
Eu121 O151 2.374 . S
C122 C120 1.500 1_554 S
C122 C123 1.377 . S
C122 C127 1.377 . S
C123 C122 1.377 . S
C123 C124 1.395 . S
C123 H152 0.931 . S
C124 C123 1.395 . S
C124 C125 1.383 . S
C124 H153 0.931 . S
C125 C124 1.383 . S
C125 C126 1.394 . S
C126 C125 1.394 . S
C126 C127 1.378 . S
C126 H154 0.931 . S
C127 C122 1.377 . S
C127 C126 1.378 . S
C127 H155 0.931 . S
C128 O142 1.259 . S
C128 O143 1.270 . S
C129 O144 1.251 . S
C129 O145 1.251 . S
C130 Eu131 2.835 . S
C130 C132 1.500 . S
C130 O146 1.257 . S
C130 O147 1.260 . S
Eu131 C130 2.835 . S
Eu131 O143 2.355 . S
Eu131 O145 2.374 . S
Eu131 O146 2.473 . S
Eu131 O147 2.480 . S
Eu131 O148 2.430 . S
Eu131 O149 2.670 . S
Eu131 O150 2.394 . S
C132 C130 1.500 . S
C132 C133 1.377 . S
C132 C137 1.377 . S
C133 C132 1.377 . S
C133 C134 1.395 . S
C133 H156 0.931 . S
C134 C133 1.395 . S
C134 C135 1.383 . S
C134 H157 0.931 . S
C135 C134 1.383 . S
C135 C136 1.394 . S
C136 C135 1.394 . S
C136 C137 1.378 . S
C136 H158 0.931 . S
C137 C132 1.377 . S
C137 C136 1.378 . S
C137 H159 0.931 . S
C138 O148 1.259 . S
C138 O149 1.270 . S
C139 O150 1.251 . S
C139 O151 1.251 . S
O140 C120 1.257 . S
O140 Eu121 2.473 . S
O141 C120 1.260 . S
O141 Eu121 2.480 . S
O142 Eu121 2.430 . S
O142 C128 1.259 . S
O143 Eu121 2.670 . S
O143 C128 1.270 . S
O143 Eu131 2.355 . S
O144 Eu121 2.394 . S
O144 C129 1.251 . S
O145 C129 1.251 . S
O145 Eu131 2.374 . S
O146 C130 1.257 . S
O146 Eu131 2.473 . S
O147 C130 1.260 . S
O147 Eu131 2.480 . S
O148 Eu131 2.430 . S
O148 C138 1.259 . S
O149 Eu121 2.355 . S
O149 Eu131 2.670 . S
O149 C138 1.270 . S
O150 Eu131 2.394 . S
O150 C139 1.251 . S
O151 Eu121 2.374 . S
O151 C139 1.251 . S
H152 C123 0.931 . S
H153 C124 0.931 . S
H154 C126 0.931 . S
H155 C127 0.931 . S
H156 C133 0.931 . S
H157 C134 0.931 . S
H158 C136 0.931 . S
H159 C137 0.931 . S
C160 Eu161 2.835 . S
C160 C162 1.500 1_556 S
C160 O180 1.257 . S
C160 O181 1.260 . S
Eu161 C160 2.835 . S
Eu161 O180 2.473 . S
Eu161 O181 2.480 . S
Eu161 O182 2.430 . S
Eu161 O183 2.670 . S
Eu161 O184 2.394 . S
Eu161 O189 2.355 . S
Eu161 O191 2.374 . S
C162 C160 1.500 1_554 S
C162 C163 1.377 . S
C162 C167 1.377 . S
C163 C162 1.377 . S
C163 C164 1.395 . S
C163 H192 0.931 . S
C164 C163 1.395 . S
C164 C165 1.383 . S
C164 H193 0.931 . S
C165 C164 1.383 . S
C165 C166 1.394 . S
C166 C165 1.394 . S
C166 C167 1.378 . S
C166 H194 0.931 . S
C167 C162 1.377 . S
C167 C166 1.378 . S
C167 H195 0.931 . S
C168 O182 1.259 . S
C168 O183 1.270 . S
C169 O184 1.251 . S
C169 O185 1.251 . S
C170 Eu171 2.835 . S
C170 C172 1.500 . S
C170 O186 1.257 . S
C170 O187 1.260 . S
Eu171 C170 2.835 . S
Eu171 O183 2.355 . S
Eu171 O185 2.374 . S
Eu171 O186 2.473 . S
Eu171 O187 2.480 . S
Eu171 O188 2.430 . S
Eu171 O189 2.670 . S
Eu171 O190 2.394 . S
C172 C170 1.500 . S
C172 C173 1.377 . S
C172 C177 1.377 . S
C173 C172 1.377 . S
C173 C174 1.395 . S
C173 H196 0.931 . S
C174 C173 1.395 . S
C174 C175 1.383 . S
C174 H197 0.931 . S
C175 C174 1.383 . S
C175 C176 1.394 . S
C176 C175 1.394 . S
C176 C177 1.378 . S
C176 H198 0.931 . S
C177 C172 1.377 . S
C177 C176 1.378 . S
C177 H199 0.931 . S
C178 O188 1.259 . S
C178 O189 1.270 . S
C179 O190 1.251 . S
C179 O191 1.251 . S
O180 C160 1.257 . S
O180 Eu161 2.473 . S
O181 C160 1.260 . S
O181 Eu161 2.480 . S
O182 Eu161 2.430 . S
O182 C168 1.259 . S
O183 Eu161 2.670 . S
O183 C168 1.270 . S
O183 Eu171 2.355 . S
O184 Eu161 2.394 . S
O184 C169 1.251 . S
O185 C169 1.251 . S
O185 Eu171 2.374 . S
O186 C170 1.257 . S
O186 Eu171 2.473 . S
O187 C170 1.260 . S
O187 Eu171 2.480 . S
O188 Eu171 2.430 . S
O188 C178 1.259 . S
O189 Eu161 2.355 . S
O189 Eu171 2.670 . S
O189 C178 1.270 . S
O190 Eu171 2.394 . S
O190 C179 1.251 . S
O191 Eu161 2.374 . S
O191 C179 1.251 . S
H192 C163 0.931 . S
H193 C164 0.931 . S
H194 C166 0.931 . S
H195 C167 0.931 . S
H196 C173 0.931 . S
H197 C174 0.931 . S
H198 C176 0.931 . S
H199 C177 0.931 . S
C200 Eu201 2.835 . S
C200 C202 1.500 . S
C200 O220 1.257 . S
C200 O221 1.260 . S
Eu201 C200 2.835 . S
Eu201 O220 2.473 . S
Eu201 O221 2.480 . S
Eu201 O222 2.430 . S
Eu201 O223 2.670 . S
Eu201 O224 2.394 . S
Eu201 O229 2.355 . S
Eu201 O231 2.374 . S
C202 C200 1.500 . S
C202 C203 1.377 1_554 S
C202 C207 1.377 1_554 S
C203 C202 1.377 1_556 S
C203 C204 1.395 . S
C203 H232 0.931 . S
C204 C203 1.395 . S
C204 C205 1.383 . S
C204 H233 0.931 . S
C205 C204 1.383 . S
C205 C206 1.394 . S
C206 C205 1.394 . S
C206 C207 1.378 . S
C206 H234 0.931 . S
C207 C202 1.377 1_556 S
C207 C206 1.378 . S
C207 H235 0.931 1_556 S
C208 O222 1.259 . S
C208 O223 1.270 . S
C209 O224 1.251 . S
C209 O225 1.251 . S
C210 Eu211 2.835 . S
C210 C212 1.500 . S
C210 O226 1.257 . S
C210 O227 1.260 . S
Eu211 C210 2.835 . S
Eu211 O223 2.355 . S
Eu211 O225 2.374 . S
Eu211 O226 2.473 . S
Eu211 O227 2.480 . S
Eu211 O228 2.430 . S
Eu211 O229 2.670 . S
Eu211 O230 2.394 . S
C212 C210 1.500 . S
C212 C213 1.377 . S
C212 C217 1.377 . S
C213 C212 1.377 . S
C213 C214 1.395 . S
C213 H236 0.931 . S
C214 C213 1.395 . S
C214 C215 1.383 . S
C214 H237 0.931 . S
C215 C214 1.383 . S
C215 C216 1.394 . S
C216 C215 1.394 . S
C216 C217 1.378 . S
C216 H238 0.931 . S
C217 C212 1.377 . S
C217 C216 1.378 . S
C217 H239 0.931 . S
C218 O228 1.259 . S
C218 O229 1.270 . S
C219 O230 1.251 . S
C219 O231 1.251 . S
O220 C200 1.257 . S
O220 Eu201 2.473 . S
O221 C200 1.260 . S
O221 Eu201 2.480 . S
O222 Eu201 2.430 . S
O222 C208 1.259 . S
O223 Eu201 2.670 . S
O223 C208 1.270 . S
O223 Eu211 2.355 . S
O224 Eu201 2.394 . S
O224 C209 1.251 . S
O225 C209 1.251 . S
O225 Eu211 2.374 . S
O226 C210 1.257 . S
O226 Eu211 2.473 . S
O227 C210 1.260 . S
O227 Eu211 2.480 . S
O228 Eu211 2.430 . S
O228 C218 1.259 . S
O229 Eu201 2.355 . S
O229 Eu211 2.670 . S
O229 C218 1.270 . S
O230 Eu211 2.394 . S
O230 C219 1.251 . S
O231 Eu201 2.374 . S
O231 C219 1.251 . S
H232 C203 0.931 . S
H233 C204 0.931 . S
H234 C206 0.931 . S
H235 C207 0.931 1_554 S
H236 C213 0.931 . S
H237 C214 0.931 . S
H238 C216 0.931 . S
H239 C217 0.931 . S
C240 Eu241 2.835 . S
C240 C242 1.500 . S
C240 O260 1.257 . S
C240 O261 1.260 . S
Eu241 C240 2.835 . S
Eu241 O260 2.473 . S
Eu241 O261 2.480 . S
Eu241 O262 2.430 . S
Eu241 O263 2.670 . S
Eu241 O264 2.394 . S
Eu241 O269 2.355 . S
Eu241 O271 2.374 . S
C242 C240 1.500 . S
C242 C243 1.377 . S
C242 C247 1.377 . S
C243 C242 1.377 . S
C243 C244 1.395 . S
C243 H272 0.931 . S
C244 C243 1.395 . S
C244 C245 1.383 . S
C244 H273 0.931 . S
C245 C244 1.383 . S
C245 C246 1.394 . S
C246 C245 1.394 . S
C246 C247 1.378 . S
C246 H274 0.931 . S
C247 C242 1.377 . S
C247 C246 1.378 . S
C247 H275 0.931 . S
C248 O262 1.259 . S
C248 O263 1.270 . S
C249 O264 1.251 . S
C249 O265 1.251 . S
C250 Eu251 2.835 . S
C250 C252 1.500 . S
C250 O266 1.257 . S
C250 O267 1.260 . S
Eu251 C250 2.835 . S
Eu251 O263 2.355 . S
Eu251 O265 2.374 . S
Eu251 O266 2.473 . S
Eu251 O267 2.480 . S
Eu251 O268 2.430 . S
Eu251 O269 2.670 . S
Eu251 O270 2.394 . S
C252 C250 1.500 . S
C252 C253 1.377 . S
C252 C257 1.377 . S
C253 C252 1.377 . S
C253 C254 1.395 . S
C253 H276 0.931 . S
C254 C253 1.395 . S
C254 C255 1.383 . S
C254 H277 0.931 . S
C255 C254 1.383 . S
C255 C256 1.394 . S
C256 C255 1.394 . S
C256 C257 1.378 . S
C256 H278 0.931 . S
C257 C252 1.377 . S
C257 C256 1.378 . S
C257 H279 0.931 . S
C258 O268 1.259 . S
C258 O269 1.270 . S
C259 O270 1.251 . S
C259 O271 1.251 . S
O260 C240 1.257 . S
O260 Eu241 2.473 . S
O261 C240 1.260 . S
O261 Eu241 2.480 . S
O262 Eu241 2.430 . S
O262 C248 1.259 . S
O263 Eu241 2.670 . S
O263 C248 1.270 . S
O263 Eu251 2.355 . S
O264 Eu241 2.394 . S
O264 C249 1.251 . S
O265 C249 1.251 . S
O265 Eu251 2.374 . S
O266 C250 1.257 . S
O266 Eu251 2.473 . S
O267 C250 1.260 . S
O267 Eu251 2.480 . S
O268 Eu251 2.430 . S
O268 C258 1.259 . S
O269 Eu241 2.355 . S
O269 Eu251 2.670 . S
O269 C258 1.270 . S
O270 Eu251 2.394 . S
O270 C259 1.251 . S
O271 Eu241 2.374 . S
O271 C259 1.251 . S
H272 C243 0.931 . S
H273 C244 0.931 . S
H274 C246 0.931 . S
H275 C247 0.931 . S
H276 C253 0.931 . S
H277 C254 0.931 . S
H278 C256 0.931 . S
H279 C257 0.931 . S
C280 Eu281 2.835 . S
C280 C282 1.500 . S
C280 O300 1.257 . S
C280 O301 1.260 . S
Eu281 C280 2.835 . S
Eu281 O300 2.473 . S
Eu281 O301 2.480 . S
Eu281 O302 2.430 . S
Eu281 O303 2.670 . S
Eu281 O304 2.394 . S
Eu281 O309 2.355 . S
Eu281 O311 2.374 . S
C282 C280 1.500 . S
C282 C283 1.377 . S
C282 C287 1.377 . S
C283 C282 1.377 . S
C283 C284 1.395 . S
C283 H312 0.931 . S
C284 C283 1.395 . S
C284 C285 1.383 . S
C284 H313 0.931 . S
C285 C284 1.383 . S
C285 C286 1.394 . S
C286 C285 1.394 . S
C286 C287 1.378 . S
C286 H314 0.931 . S
C287 C282 1.377 . S
C287 C286 1.378 . S
C287 H315 0.931 . S
C288 O302 1.259 . S
C288 O303 1.270 . S
C289 O304 1.251 . S
C289 O305 1.251 . S
C290 Eu291 2.835 . S
C290 C292 1.500 . S
C290 O306 1.257 . S
C290 O307 1.260 . S
Eu291 C290 2.835 . S
Eu291 O303 2.355 . S
Eu291 O305 2.374 . S
Eu291 O306 2.473 . S
Eu291 O307 2.480 . S
Eu291 O308 2.430 . S
Eu291 O309 2.670 . S
Eu291 O310 2.394 . S
C292 C290 1.500 . S
C292 C293 1.377 . S
C292 C297 1.377 . S
C293 C292 1.377 . S
C293 C294 1.395 . S
C293 H316 0.931 . S
C294 C293 1.395 . S
C294 C295 1.383 . S
C294 H317 0.931 . S
C295 C294 1.383 . S
C295 C296 1.394 . S
C296 C295 1.394 . S
C296 C297 1.378 . S
C296 H318 0.931 . S
C297 C292 1.377 . S
C297 C296 1.378 . S
C297 H319 0.931 . S
C298 O308 1.259 . S
C298 O309 1.270 . S
C299 O310 1.251 . S
C299 O311 1.251 . S
O300 C280 1.257 . S
O300 Eu281 2.473 . S
O301 C280 1.260 . S
O301 Eu281 2.480 . S
O302 Eu281 2.430 . S
O302 C288 1.259 . S
O303 Eu281 2.670 . S
O303 C288 1.270 . S
O303 Eu291 2.355 . S
O304 Eu281 2.394 . S
O304 C289 1.251 . S
O305 C289 1.251 . S
O305 Eu291 2.374 . S
O306 C290 1.257 . S
O306 Eu291 2.473 . S
O307 C290 1.260 . S
O307 Eu291 2.480 . S
O308 Eu291 2.430 . S
O308 C298 1.259 . S
O309 Eu281 2.355 . S
O309 Eu291 2.670 . S
O309 C298 1.270 . S
O310 Eu291 2.394 . S
O310 C299 1.251 . S
O311 Eu281 2.374 . S
O311 C299 1.251 . S
H312 C283 0.931 . S
H313 C284 0.931 . S
H314 C286 0.931 . S
H315 C287 0.931 . S
H316 C293 0.931 . S
H317 C294 0.931 . S
H318 C296 0.931 . S
H319 C297 0.931 . S
C320 Eu321 2.835 . S
C320 C322 1.500 . S
C320 O340 1.257 . S
C320 O341 1.260 . S
Eu321 C320 2.835 . S
Eu321 O340 2.473 . S
Eu321 O341 2.480 . S
Eu321 O342 2.430 . S
Eu321 O343 2.670 . S
Eu321 O344 2.394 . S
Eu321 O349 2.355 . S
Eu321 O351 2.374 . S
C322 C320 1.500 . S
C322 C323 1.377 . S
C322 C327 1.377 . S
C323 C322 1.377 . S
C323 C324 1.395 . S
C323 H352 0.931 . S
C324 C323 1.395 . S
C324 C325 1.383 . S
C324 H353 0.931 . S
C325 C324 1.383 . S
C325 C326 1.394 . S
C326 C325 1.394 . S
C326 C327 1.378 . S
C326 H354 0.931 . S
C327 C322 1.377 . S
C327 C326 1.378 . S
C327 H355 0.931 . S
C328 O342 1.259 . S
C328 O343 1.270 . S
C329 O344 1.251 . S
C329 O345 1.251 . S
C330 Eu331 2.835 . S
C330 C332 1.500 . S
C330 O346 1.257 . S
C330 O347 1.260 . S
Eu331 C330 2.835 . S
Eu331 O343 2.355 . S
Eu331 O345 2.374 . S
Eu331 O346 2.473 . S
Eu331 O347 2.480 . S
Eu331 O348 2.430 . S
Eu331 O349 2.670 . S
Eu331 O350 2.394 . S
C332 C330 1.500 . S
C332 C333 1.377 1_556 S
C332 C337 1.377 1_556 S
C333 C332 1.377 1_554 S
C333 C334 1.395 . S
C333 H356 0.931 . S
C334 C333 1.395 . S
C334 C335 1.383 . S
C334 H357 0.931 . S
C335 C334 1.383 . S
C335 C336 1.394 . S
C336 C335 1.394 . S
C336 C337 1.378 . S
C336 H358 0.931 . S
C337 C332 1.377 1_554 S
C337 C336 1.378 . S
C337 H359 0.931 1_554 S
C338 O348 1.259 . S
C338 O349 1.270 . S
C339 O350 1.251 . S
C339 O351 1.251 . S
O340 C320 1.257 . S
O340 Eu321 2.473 . S
O341 C320 1.260 . S
O341 Eu321 2.480 . S
O342 Eu321 2.430 . S
O342 C328 1.259 . S
O343 Eu321 2.670 . S
O343 C328 1.270 . S
O343 Eu331 2.355 . S
O344 Eu321 2.394 . S
O344 C329 1.251 . S
O345 C329 1.251 . S
O345 Eu331 2.374 . S
O346 C330 1.257 . S
O346 Eu331 2.473 . S
O347 C330 1.260 . S
O347 Eu331 2.480 . S
O348 Eu331 2.430 . S
O348 C338 1.259 . S
O349 Eu321 2.355 . S
O349 Eu331 2.670 . S
O349 C338 1.270 . S
O350 Eu331 2.394 . S
O350 C339 1.251 . S
O351 Eu321 2.374 . S
O351 C339 1.251 . S
H352 C323 0.931 . S
H353 C324 0.931 . S
H354 C326 0.931 . S
H355 C327 0.931 . S
H356 C333 0.931 . S
H357 C334 0.931 . S
H358 C336 0.931 . S
H359 C337 0.931 1_556 S
C360 Eu361 2.835 . S
C360 C362 1.500 . S
C360 O380 1.257 . S
C360 O381 1.260 . S
Eu361 C360 2.835 . S
Eu361 O380 2.473 . S
Eu361 O381 2.480 . S
Eu361 O382 2.430 . S
Eu361 O383 2.670 . S
Eu361 O384 2.394 . S
Eu361 O389 2.355 . S
Eu361 O391 2.374 . S
C362 C360 1.500 . S
C362 C363 1.377 . S
C362 C367 1.377 . S
C363 C362 1.377 . S
C363 C364 1.395 . S
C363 H392 0.931 . S
C364 C363 1.395 . S
C364 C365 1.383 . S
C364 H393 0.931 . S
C365 C364 1.383 . S
C365 C366 1.394 . S
C366 C365 1.394 . S
C366 C367 1.378 . S
C366 H394 0.931 . S
C367 C362 1.377 . S
C367 C366 1.378 . S
C367 H395 0.931 . S
C368 O382 1.259 . S
C368 O383 1.270 . S
C369 O384 1.251 . S
C369 O385 1.251 . S
C370 Eu371 2.835 . S
C370 C372 1.500 . S
C370 O386 1.257 . S
C370 O387 1.260 . S
Eu371 C370 2.835 . S
Eu371 O383 2.355 . S
Eu371 O385 2.374 . S
Eu371 O386 2.473 . S
Eu371 O387 2.480 . S
Eu371 O388 2.430 . S
Eu371 O389 2.670 . S
Eu371 O390 2.394 . S
C372 C370 1.500 . S
C372 C373 1.377 . S
C372 C377 1.377 . S
C373 C372 1.377 . S
C373 C374 1.395 . S
C373 H396 0.931 . S
C374 C373 1.395 . S
C374 C375 1.383 . S
C374 H397 0.931 . S
C375 C374 1.383 . S
C375 C376 1.394 . S
C376 C375 1.394 . S
C376 C377 1.378 . S
C376 H398 0.931 . S
C377 C372 1.377 . S
C377 C376 1.378 . S
C377 H399 0.931 . S
C378 O388 1.259 . S
C378 O389 1.270 . S
C379 O390 1.251 . S
C379 O391 1.251 . S
O380 C360 1.257 . S
O380 Eu361 2.473 . S
O381 C360 1.260 . S
O381 Eu361 2.480 . S
O382 Eu361 2.430 . S
O382 C368 1.259 . S
O383 Eu361 2.670 . S
O383 C368 1.270 . S
O383 Eu371 2.355 . S
O384 Eu361 2.394 . S
O384 C369 1.251 . S
O385 C369 1.251 . S
O385 Eu371 2.374 . S
O386 C370 1.257 . S
O386 Eu371 2.473 . S
O387 C370 1.260 . S
O387 Eu371 2.480 . S
O388 Eu371 2.430 . S
O388 C378 1.259 . S
O389 Eu361 2.355 . S
O389 Eu371 2.670 . S
O389 C378 1.270 . S
O390 Eu371 2.394 . S
O390 C379 1.251 . S
O391 Eu361 2.374 . S
O391 C379 1.251 . S
H392 C363 0.931 . S
H393 C364 0.931 . S
H394 C366 0.931 . S
H395 C367 0.931 . S
H396 C373 0.931 . S
H397 C374 0.931 . S
H398 C376 0.931 . S
H399 C377 0.931 . S
C400 Eu401 2.835 . S
C400 C402 1.500 . S
C400 O420 1.257 . S
C400 O421 1.260 . S
Eu401 C400 2.835 . S
Eu401 O420 2.473 . S
Eu401 O421 2.480 . S
Eu401 O422 2.430 . S
Eu401 O423 2.670 . S
Eu401 O424 2.394 . S
Eu401 O429 2.355 . S
Eu401 O431 2.374 . S
C402 C400 1.500 . S
C402 C403 1.377 . S
C402 C407 1.377 . S
C403 C402 1.377 . S
C403 C404 1.395 . S
C403 H432 0.931 . S
C404 C403 1.395 . S
C404 C405 1.383 . S
C404 H433 0.931 . S
C405 C404 1.383 . S
C405 C406 1.394 . S
C406 C405 1.394 . S
C406 C407 1.378 . S
C406 H434 0.931 . S
C407 C402 1.377 . S
C407 C406 1.378 . S
C407 H435 0.931 . S
C408 O422 1.259 . S
C408 O423 1.270 . S
C409 O424 1.251 . S
C409 O425 1.251 . S
C410 Eu411 2.835 . S
C410 C412 1.500 . S
C410 O426 1.257 . S
C410 O427 1.260 . S
Eu411 C410 2.835 . S
Eu411 O423 2.355 . S
Eu411 O425 2.374 . S
Eu411 O426 2.473 . S
Eu411 O427 2.480 . S
Eu411 O428 2.430 . S
Eu411 O429 2.670 . S
Eu411 O430 2.394 . S
C412 C410 1.500 . S
C412 C413 1.377 . S
C412 C417 1.377 . S
C413 C412 1.377 . S
C413 C414 1.395 . S
C413 H436 0.931 . S
C414 C413 1.395 . S
C414 C415 1.383 . S
C414 H437 0.931 . S
C415 C414 1.383 . S
C415 C416 1.394 . S
C416 C415 1.394 . S
C416 C417 1.378 . S
C416 H438 0.931 . S
C417 C412 1.377 . S
C417 C416 1.378 . S
C417 H439 0.931 . S
C418 O428 1.259 . S
C418 O429 1.270 . S
C419 O430 1.251 . S
C419 O431 1.251 . S
O420 C400 1.257 . S
O420 Eu401 2.473 . S
O421 C400 1.260 . S
O421 Eu401 2.480 . S
O422 Eu401 2.430 . S
O422 C408 1.259 . S
O423 Eu401 2.670 . S
O423 C408 1.270 . S
O423 Eu411 2.355 . S
O424 Eu401 2.394 . S
O424 C409 1.251 . S
O425 C409 1.251 . S
O425 Eu411 2.374 . S
O426 C410 1.257 . S
O426 Eu411 2.473 . S
O427 C410 1.260 . S
O427 Eu411 2.480 . S
O428 Eu411 2.430 . S
O428 C418 1.259 . S
O429 Eu401 2.355 . S
O429 Eu411 2.670 . S
O429 C418 1.270 . S
O430 Eu411 2.394 . S
O430 C419 1.251 . S
O431 Eu401 2.374 . S
O431 C419 1.251 . S
H432 C403 0.931 . S
H433 C404 0.931 . S
H434 C406 0.931 . S
H435 C407 0.931 . S
H436 C413 0.931 . S
H437 C414 0.931 . S
H438 C416 0.931 . S
H439 C417 0.931 . S
C440 Eu441 2.835 . S
C440 C442 1.500 . S
C440 O460 1.257 . S
C440 O461 1.260 . S
Eu441 C440 2.835 . S
Eu441 O460 2.473 . S
Eu441 O461 2.480 . S
Eu441 O462 2.430 . S
Eu441 O463 2.670 . S
Eu441 O464 2.394 . S
Eu441 O469 2.355 . S
Eu441 O471 2.374 . S
C442 C440 1.500 . S
C442 C443 1.377 . S
C442 C447 1.377 . S
C443 C442 1.377 . S
C443 C444 1.395 . S
C443 H472 0.931 . S
C444 C443 1.395 . S
C444 C445 1.383 . S
C444 H473 0.931 . S
C445 C444 1.383 . S
C445 C446 1.394 . S
C446 C445 1.394 . S
C446 C447 1.378 . S
C446 H474 0.931 . S
C447 C442 1.377 . S
C447 C446 1.378 . S
C447 H475 0.931 . S
C448 O462 1.259 . S
C448 O463 1.270 . S
C449 O464 1.251 . S
C449 O465 1.251 . S
C450 Eu451 2.835 . S
C450 C452 1.500 1_554 S
C450 O466 1.257 . S
C450 O467 1.260 . S
Eu451 C450 2.835 . S
Eu451 O463 2.355 . S
Eu451 O465 2.374 . S
Eu451 O466 2.473 . S
Eu451 O467 2.480 . S
Eu451 O468 2.430 . S
Eu451 O469 2.670 . S
Eu451 O470 2.394 . S
C452 C450 1.500 1_556 S
C452 C453 1.377 . S
C452 C457 1.377 . S
C453 C452 1.377 . S
C453 C454 1.395 . S
C453 H476 0.931 . S
C454 C453 1.395 . S
C454 C455 1.383 . S
C454 H477 0.931 . S
C455 C454 1.383 . S
C455 C456 1.394 . S
C456 C455 1.394 . S
C456 C457 1.378 . S
C456 H478 0.931 . S
C457 C452 1.377 . S
C457 C456 1.378 . S
C457 H479 0.931 . S
C458 O468 1.259 . S
C458 O469 1.270 . S
C459 O470 1.251 . S
C459 O471 1.251 . S
O460 C440 1.257 . S
O460 Eu441 2.473 . S
O461 C440 1.260 . S
O461 Eu441 2.480 . S
O462 Eu441 2.430 . S
O462 C448 1.259 . S
O463 Eu441 2.670 . S
O463 C448 1.270 . S
O463 Eu451 2.355 . S
O464 Eu441 2.394 . S
O464 C449 1.251 . S
O465 C449 1.251 . S
O465 Eu451 2.374 . S
O466 C450 1.257 . S
O466 Eu451 2.473 . S
O467 C450 1.260 . S
O467 Eu451 2.480 . S
O468 Eu451 2.430 . S
O468 C458 1.259 . S
O469 Eu441 2.355 . S
O469 Eu451 2.670 . S
O469 C458 1.270 . S
O470 Eu451 2.394 . S
O470 C459 1.251 . S
O471 Eu441 2.374 . S
O471 C459 1.251 . S
H472 C443 0.931 . S
H473 C444 0.931 . S
H474 C446 0.931 . S
H475 C447 0.931 . S
H476 C453 0.931 . S
H477 C454 0.931 . S
H478 C456 0.931 . S
H479 C457 0.931 . S
C480 Eu481 2.835 . S
C480 C482 1.500 . S
C480 O500 1.257 . S
C480 O501 1.260 . S
Eu481 C480 2.835 . S
Eu481 O500 2.473 . S
Eu481 O501 2.480 . S
Eu481 O502 2.430 . S
Eu481 O503 2.670 . S
Eu481 O504 2.394 . S
Eu481 O509 2.355 . S
Eu481 O511 2.374 . S
C482 C480 1.500 . S
C482 C483 1.377 . S
C482 C487 1.377 . S
C483 C482 1.377 . S
C483 C484 1.395 . S
C483 H512 0.931 . S
C484 C483 1.395 . S
C484 C485 1.383 . S
C484 H513 0.931 . S
C485 C484 1.383 . S
C485 C486 1.394 . S
C486 C485 1.394 . S
C486 C487 1.378 . S
C486 H514 0.931 . S
C487 C482 1.377 . S
C487 C486 1.378 . S
C487 H515 0.931 . S
C488 O502 1.259 . S
C488 O503 1.270 . S
C489 O504 1.251 . S
C489 O505 1.251 . S
C490 Eu491 2.835 . S
C490 C492 1.500 1_554 S
C490 O506 1.257 . S
C490 O507 1.260 . S
Eu491 C490 2.835 . S
Eu491 O503 2.355 . S
Eu491 O505 2.374 . S
Eu491 O506 2.473 . S
Eu491 O507 2.480 . S
Eu491 O508 2.430 . S
Eu491 O509 2.670 . S
Eu491 O510 2.394 . S
C492 C490 1.500 1_556 S
C492 C493 1.377 . S
C492 C497 1.377 . S
C493 C492 1.377 . S
C493 C494 1.395 . S
C493 H516 0.931 . S
C494 C493 1.395 . S
C494 C495 1.383 . S
C494 H517 0.931 . S
C495 C494 1.383 . S
C495 C496 1.394 . S
C496 C495 1.394 . S
C496 C497 1.378 . S
C496 H518 0.931 . S
C497 C492 1.377 . S
C497 C496 1.378 . S
C497 H519 0.931 . S
C498 O508 1.259 . S
C498 O509 1.270 . S
C499 O510 1.251 . S
C499 O511 1.251 . S
O500 C480 1.257 . S
O500 Eu481 2.473 . S
O501 C480 1.260 . S
O501 Eu481 2.480 . S
O502 Eu481 2.430 . S
O502 C488 1.259 . S
O503 Eu481 2.670 . S
O503 C488 1.270 . S
O503 Eu491 2.355 . S
O504 Eu481 2.394 . S
O504 C489 1.251 . S
O505 C489 1.251 . S
O505 Eu491 2.374 . S
O506 C490 1.257 . S
O506 Eu491 2.473 . S
O507 C490 1.260 . S
O507 Eu491 2.480 . S
O508 Eu491 2.430 . S
O508 C498 1.259 . S
O509 Eu481 2.355 . S
O509 Eu491 2.670 . S
O509 C498 1.270 . S
O510 Eu491 2.394 . S
O510 C499 1.251 . S
O511 Eu481 2.374 . S
O511 C499 1.251 . S
H512 C483 0.931 . S
H513 C484 0.931 . S
H514 C486 0.931 . S
H515 C487 0.931 . S
H516 C493 0.931 . S
H517 C494 0.931 . S
H518 C496 0.931 . S
H519 C497 0.931 . S
C520 Eu521 2.835 . S
C520 C522 1.500 . S
C520 O540 1.257 . S
C520 O541 1.260 . S
Eu521 C520 2.835 . S
Eu521 O540 2.473 . S
Eu521 O541 2.480 . S
Eu521 O542 2.430 . S
Eu521 O543 2.670 . S
Eu521 O544 2.394 . S
Eu521 O549 2.355 . S
Eu521 O551 2.374 . S
C522 C520 1.500 . S
C522 C523 1.377 1_556 S
C522 C527 1.377 1_556 S
C523 C522 1.377 1_554 S
C523 C524 1.395 . S
C523 H552 0.931 . S
C524 C523 1.395 . S
C524 C525 1.383 . S
C524 H553 0.931 . S
C525 C524 1.383 . S
C525 C526 1.394 . S
C526 C525 1.394 . S
C526 C527 1.378 . S
C526 H554 0.931 . S
C527 C522 1.377 1_554 S
C527 C526 1.378 . S
C527 H555 0.931 1_554 S
C528 O542 1.259 . S
C528 O543 1.270 . S
C529 O544 1.251 . S
C529 O545 1.251 . S
C530 Eu531 2.835 . S
C530 C532 1.500 . S
C530 O546 1.257 . S
C530 O547 1.260 . S
Eu531 C530 2.835 . S
Eu531 O543 2.355 . S
Eu531 O545 2.374 . S
Eu531 O546 2.473 . S
Eu531 O547 2.480 . S
Eu531 O548 2.430 . S
Eu531 O549 2.670 . S
Eu531 O550 2.394 . S
C532 C530 1.500 . S
C532 C533 1.377 . S
C532 C537 1.377 . S
C533 C532 1.377 . S
C533 C534 1.395 . S
C533 H556 0.931 . S
C534 C533 1.395 . S
C534 C535 1.383 . S
C534 H557 0.931 . S
C535 C534 1.383 . S
C535 C536 1.394 . S
C536 C535 1.394 . S
C536 C537 1.378 . S
C536 H558 0.931 . S
C537 C532 1.377 . S
C537 C536 1.378 . S
C537 H559 0.931 . S
C538 O548 1.259 . S
C538 O549 1.270 . S
C539 O550 1.251 . S
C539 O551 1.251 . S
O540 C520 1.257 . S
O540 Eu521 2.473 . S
O541 C520 1.260 . S
O541 Eu521 2.480 . S
O542 Eu521 2.430 . S
O542 C528 1.259 . S
O543 Eu521 2.670 . S
O543 C528 1.270 . S
O543 Eu531 2.355 . S
O544 Eu521 2.394 . S
O544 C529 1.251 . S
O545 C529 1.251 . S
O545 Eu531 2.374 . S
O546 C530 1.257 . S
O546 Eu531 2.473 . S
O547 C530 1.260 . S
O547 Eu531 2.480 . S
O548 Eu531 2.430 . S
O548 C538 1.259 . S
O549 Eu521 2.355 . S
O549 Eu531 2.670 . S
O549 C538 1.270 . S
O550 Eu531 2.394 . S
O550 C539 1.251 . S
O551 Eu521 2.374 . S
O551 C539 1.251 . S
H552 C523 0.931 . S
H553 C524 0.931 . S
H554 C526 0.931 . S
H555 C527 0.931 1_556 S
H556 C533 0.931 . S
H557 C534 0.931 . S
H558 C536 0.931 . S
H559 C537 0.931 . S
C560 Eu561 2.835 . S
C560 C562 1.500 . S
C560 O580 1.257 . S
C560 O581 1.260 . S
Eu561 C560 2.835 . S
Eu561 O580 2.473 . S
Eu561 O581 2.480 . S
Eu561 O582 2.430 . S
Eu561 O583 2.670 . S
Eu561 O584 2.394 . S
Eu561 O589 2.355 . S
Eu561 O591 2.374 . S
C562 C560 1.500 . S
C562 C563 1.377 . S
C562 C567 1.377 . S
C563 C562 1.377 . S
C563 C564 1.395 . S
C563 H592 0.931 . S
C564 C563 1.395 . S
C564 C565 1.383 . S
C564 H593 0.931 . S
C565 C564 1.383 . S
C565 C566 1.394 . S
C566 C565 1.394 . S
C566 C567 1.378 . S
C566 H594 0.931 . S
C567 C562 1.377 . S
C567 C566 1.378 . S
C567 H595 0.931 . S
C568 O582 1.259 . S
C568 O583 1.270 . S
C569 O584 1.251 . S
C569 O585 1.251 . S
C570 Eu571 2.835 . S
C570 C572 1.500 . S
C570 O586 1.257 . S
C570 O587 1.260 . S
Eu571 C570 2.835 . S
Eu571 O583 2.355 . S
Eu571 O585 2.374 . S
Eu571 O586 2.473 . S
Eu571 O587 2.480 . S
Eu571 O588 2.430 . S
Eu571 O589 2.670 . S
Eu571 O590 2.394 . S
C572 C570 1.500 . S
C572 C573 1.377 . S
C572 C577 1.377 . S
C573 C572 1.377 . S
C573 C574 1.395 . S
C573 H596 0.931 . S
C574 C573 1.395 . S
C574 C575 1.383 . S
C574 H597 0.931 . S
C575 C574 1.383 . S
C575 C576 1.394 . S
C576 C575 1.394 . S
C576 C577 1.378 . S
C576 H598 0.931 . S
C577 C572 1.377 . S
C577 C576 1.378 . S
C577 H599 0.931 . S
C578 O588 1.259 . S
C578 O589 1.270 . S
C579 O590 1.251 . S
C579 O591 1.251 . S
O580 C560 1.257 . S
O580 Eu561 2.473 . S
O581 C560 1.260 . S
O581 Eu561 2.480 . S
O582 Eu561 2.430 . S
O582 C568 1.259 . S
O583 Eu561 2.670 . S
O583 C568 1.270 . S
O583 Eu571 2.355 . S
O584 Eu561 2.394 . S
O584 C569 1.251 . S
O585 C569 1.251 . S
O585 Eu571 2.374 . S
O586 C570 1.257 . S
O586 Eu571 2.473 . S
O587 C570 1.260 . S
O587 Eu571 2.480 . S
O588 Eu571 2.430 . S
O588 C578 1.259 . S
O589 Eu561 2.355 . S
O589 Eu571 2.670 . S
O589 C578 1.270 . S
O590 Eu571 2.394 . S
O590 C579 1.251 . S
O591 Eu561 2.374 . S
O591 C579 1.251 . S
H592 C563 0.931 . S
H593 C564 0.931 . S
H594 C566 0.931 . S
H595 C567 0.931 . S
H596 C573 0.931 . S
H597 C574 0.931 . S
H598 C576 0.931 . S
H599 C577 0.931 . S
C600 Eu601 2.835 . S
C600 C602 1.500 . S
C600 O620 1.257 . S
C600 O621 1.260 . S
Eu601 C600 2.835 . S
Eu601 O620 2.473 . S
Eu601 O621 2.480 . S
Eu601 O622 2.430 . S
Eu601 O623 2.670 . S
Eu601 O624 2.394 . S
Eu601 O629 2.355 . S
Eu601 O631 2.374 . S
C602 C600 1.500 . S
C602 C603 1.377 . S
C602 C607 1.377 . S
C603 C602 1.377 . S
C603 C604 1.395 . S
C603 H632 0.931 . S
C604 C603 1.395 . S
C604 C605 1.383 . S
C604 H633 0.931 . S
C605 C604 1.383 . S
C605 C606 1.394 . S
C606 C605 1.394 . S
C606 C607 1.378 . S
C606 H634 0.931 . S
C607 C602 1.377 . S
C607 C606 1.378 . S
C607 H635 0.931 . S
C608 O622 1.259 . S
C608 O623 1.270 . S
C609 O624 1.251 . S
C609 O625 1.251 . S
C610 Eu611 2.835 . S
C610 C612 1.500 . S
C610 O626 1.257 . S
C610 O627 1.260 . S
Eu611 C610 2.835 . S
Eu611 O623 2.355 . S
Eu611 O625 2.374 . S
Eu611 O626 2.473 . S
Eu611 O627 2.480 . S
Eu611 O628 2.430 . S
Eu611 O629 2.670 . S
Eu611 O630 2.394 . S
C612 C610 1.500 . S
C612 C613 1.377 . S
C612 C617 1.377 . S
C613 C612 1.377 . S
C613 C614 1.395 . S
C613 H636 0.931 . S
C614 C613 1.395 . S
C614 C615 1.383 . S
C614 H637 0.931 . S
C615 C614 1.383 . S
C615 C616 1.394 . S
C616 C615 1.394 . S
C616 C617 1.378 . S
C616 H638 0.931 . S
C617 C612 1.377 . S
C617 C616 1.378 . S
C617 H639 0.931 . S
C618 O628 1.259 . S
C618 O629 1.270 . S
C619 O630 1.251 . S
C619 O631 1.251 . S
O620 C600 1.257 . S
O620 Eu601 2.473 . S
O621 C600 1.260 . S
O621 Eu601 2.480 . S
O622 Eu601 2.430 . S
O622 C608 1.259 . S
O623 Eu601 2.670 . S
O623 C608 1.270 . S
O623 Eu611 2.355 . S
O624 Eu601 2.394 . S
O624 C609 1.251 . S
O625 C609 1.251 . S
O625 Eu611 2.374 . S
O626 C610 1.257 . S
O626 Eu611 2.473 . S
O627 C610 1.260 . S
O627 Eu611 2.480 . S
O628 Eu611 2.430 . S
O628 C618 1.259 . S
O629 Eu601 2.355 . S
O629 Eu611 2.670 . S
O629 C618 1.270 . S
O630 Eu611 2.394 . S
O630 C619 1.251 . S
O631 Eu601 2.374 . S
O631 C619 1.251 . S
H632 C603 0.931 . S
H633 C604 0.931 . S
H634 C606 0.931 . S
H635 C607 0.931 . S
H636 C613 0.931 . S
H637 C614 0.931 . S
H638 C616 0.931 . S
H639 C617 0.931 . S
H640 C658 0.951 . S
H641 C660 0.951 . S
H642 C662 0.950 . S
H643 C663 0.950 . S
H644 C665 0.950 . S
H645 C668 0.950 . S
H646 C669 0.950 . S
H647 C671 0.950 . S
H648 C672 0.950 . S
H649 C673 0.951 . S
H650 C675 0.951 . S
H651 C677 0.950 . S
H652 C678 0.950 . S
H653 C680 0.950 . S
H654 C683 0.950 . S
H655 C684 0.950 . S
H656 C686 0.950 . S
H657 C687 0.950 . S
C658 H640 0.951 . S
C658 C659 1.366 . S
C658 C660 1.388 . S
C659 C658 1.366 . S
C659 C663 1.385 . S
C660 H641 0.951 . S
C660 C658 1.388 . S
C660 C661 1.366 . S
C661 C660 1.366 . S
C661 C662 1.414 . S
C661 C664 1.499 . S
C662 H642 0.950 . S
C662 C661 1.414 . S
C662 C663 1.374 . S
C663 H643 0.950 . S
C663 C659 1.385 . S
C663 C662 1.374 . S
C664 C661 1.499 . S
C664 C665 1.373 . S
C664 C666 1.389 . S
C665 H644 0.950 . S
C665 C664 1.373 . S
C665 C681 1.377 . S
C666 C664 1.389 . S
C666 C667 1.524 . S
C666 C680 1.377 . S
C667 C666 1.524 . S
C667 C668 1.397 . S
C667 C672 1.363 . S
C668 H645 0.950 . S
C668 C667 1.397 . S
C668 C669 1.334 . S
C669 H646 0.950 . S
C669 C668 1.334 . S
C669 C670 1.287 . S
C670 C669 1.287 . S
C670 C671 1.524 . S
C670 H689 0.913 . S
C671 H647 0.950 . S
C671 C670 1.524 . S
C671 C672 1.415 . S
C672 H648 0.950 . S
C672 C667 1.363 . S
C672 C671 1.415 . S
C673 H649 0.951 . S
C673 C674 1.366 . S
C673 C675 1.388 . S
C674 C673 1.366 . S
C674 C678 1.385 . S
C675 H650 0.951 . S
C675 C673 1.388 . S
C675 C676 1.366 . S
C676 C675 1.366 . S
C676 C677 1.414 . S
C676 C679 1.499 . S
C677 H651 0.950 . S
C677 C676 1.414 . S
C677 C678 1.374 . S
C678 H652 0.950 . S
C678 C674 1.385 . S
C678 C677 1.374 . S
C679 C676 1.499 . S
C679 C680 1.373 . S
C679 C681 1.389 . S
C680 H653 0.950 . S
C680 C666 1.377 . S
C680 C679 1.373 . S
C681 C665 1.377 . S
C681 C679 1.389 . S
C681 C682 1.524 . S
C682 C681 1.524 . S
C682 C683 1.397 . S
C682 C687 1.363 . S
C683 H654 0.950 . S
C683 C682 1.397 . S
C683 C684 1.334 . S
C684 H655 0.950 . S
C684 C683 1.334 . S
C684 C685 1.287 . S
C685 C684 1.287 . S
C685 C686 1.524 . S
C685 H688 0.999 . S
C686 H656 0.950 . S
C686 C685 1.524 . S
C686 C687 1.415 . S
C687 H657 0.950 . S
C687 C682 1.363 . S
C687 C686 1.415 . S
H688 C685 0.999 . S
H689 C670 0.913 . S
H690 C708 0.951 1_554 S
H691 C710 0.951 . S
H692 C712 0.950 . S
H693 C713 0.950 . S
H694 C715 0.950 . S
H695 C718 0.950 . S
H696 C719 0.950 . S
H697 C721 0.950 . S
H698 C722 0.950 . S
H699 C723 0.951 . S
H700 C725 0.951 . S
H701 C727 0.950 . S
H702 C728 0.950 . S
H703 C730 0.950 . S
H704 C733 0.950 . S
H705 C734 0.950 . S
H706 C736 0.950 . S
H707 C737 0.950 . S
C708 H690 0.951 1_556 S
C708 C709 1.366 1_556 S
C708 C710 1.388 . S
C709 C708 1.366 1_554 S
C709 C713 1.385 . S
C710 H691 0.951 . S
C710 C708 1.388 . S
C710 C711 1.366 . S
C711 C710 1.366 . S
C711 C712 1.414 . S
C711 C714 1.499 . S
C712 H692 0.950 . S
C712 C711 1.414 . S
C712 C713 1.374 1_556 S
C713 H693 0.950 . S
C713 C709 1.385 . S
C713 C712 1.374 1_554 S
C714 C711 1.499 . S
C714 C715 1.373 . S
C714 C716 1.389 . S
C715 H694 0.950 . S
C715 C714 1.373 . S
C715 C731 1.377 . S
C716 C714 1.389 . S
C716 C717 1.524 . S
C716 C730 1.377 . S
C717 C716 1.524 . S
C717 C718 1.397 . S
C717 C722 1.363 . S
C718 H695 0.950 . S
C718 C717 1.397 . S
C718 C719 1.334 . S
C719 H696 0.950 . S
C719 C718 1.334 . S
C719 C720 1.287 . S
C720 C719 1.287 . S
C720 C721 1.524 . S
C720 H739 0.913 . S
C721 H697 0.950 . S
C721 C720 1.524 . S
C721 C722 1.415 . S
C722 H698 0.950 . S
C722 C717 1.363 . S
C722 C721 1.415 . S
C723 H699 0.951 . S
C723 C724 1.366 . S
C723 C725 1.388 . S
C724 C723 1.366 . S
C724 C728 1.385 . S
C725 H700 0.951 . S
C725 C723 1.388 . S
C725 C726 1.366 . S
C726 C725 1.366 . S
C726 C727 1.414 . S
C726 C729 1.499 . S
C727 H701 0.950 . S
C727 C726 1.414 . S
C727 C728 1.374 . S
C728 H702 0.950 . S
C728 C724 1.385 . S
C728 C727 1.374 . S
C729 C726 1.499 . S
C729 C730 1.373 . S
C729 C731 1.389 . S
C730 H703 0.950 . S
C730 C716 1.377 . S
C730 C729 1.373 . S
C731 C715 1.377 . S
C731 C729 1.389 . S
C731 C732 1.524 . S
C732 C731 1.524 . S
C732 C733 1.397 . S
C732 C737 1.363 . S
C733 H704 0.950 . S
C733 C732 1.397 . S
C733 C734 1.334 . S
C734 H705 0.950 . S
C734 C733 1.334 . S
C734 C735 1.287 . S
C735 C734 1.287 . S
C735 C736 1.524 . S
C735 H738 0.999 . S
C736 H706 0.950 . S
C736 C735 1.524 . S
C736 C737 1.415 . S
C737 H707 0.950 . S
C737 C732 1.363 . S
C737 C736 1.415 . S
H738 C735 0.999 . S
H739 C720 0.913 . S
H740 C758 0.951 . S
H741 C760 0.951 . S
H742 C762 0.950 . S
H743 C763 0.950 . S
H744 C765 0.950 . S
H745 C768 0.950 . S
H746 C769 0.950 . S
H747 C771 0.950 . S
H748 C772 0.950 . S
H749 C773 0.951 . S
H750 C775 0.951 . S
H751 C777 0.950 . S
H752 C778 0.950 . S
H753 C780 0.950 . S
H754 C783 0.950 . S
H755 C784 0.950 . S
H756 C786 0.950 . S
H757 C787 0.950 . S
C758 H740 0.951 . S
C758 C759 1.366 . S
C758 C760 1.388 . S
C759 C758 1.366 . S
C759 C763 1.385 . S
C760 H741 0.951 . S
C760 C758 1.388 . S
C760 C761 1.366 . S
C761 C760 1.366 . S
C761 C762 1.414 . S
C761 C764 1.499 . S
C762 H742 0.950 . S
C762 C761 1.414 . S
C762 C763 1.374 . S
C763 H743 0.950 . S
C763 C759 1.385 . S
C763 C762 1.374 . S
C764 C761 1.499 . S
C764 C765 1.373 . S
C764 C766 1.389 . S
C765 H744 0.950 . S
C765 C764 1.373 . S
C765 C781 1.377 . S
C766 C764 1.389 . S
C766 C767 1.524 . S
C766 C780 1.377 . S
C767 C766 1.524 . S
C767 C768 1.397 . S
C767 C772 1.363 . S
C768 H745 0.950 . S
C768 C767 1.397 . S
C768 C769 1.334 . S
C769 H746 0.950 . S
C769 C768 1.334 . S
C769 C770 1.287 . S
C770 C769 1.287 . S
C770 C771 1.524 . S
C770 H789 0.913 . S
C771 H747 0.950 . S
C771 C770 1.524 . S
C771 C772 1.415 . S
C772 H748 0.950 . S
C772 C767 1.363 . S
C772 C771 1.415 . S
C773 H749 0.951 . S
C773 C774 1.366 . S
C773 C775 1.388 . S
C774 C773 1.366 . S
C774 C778 1.385 . S
C775 H750 0.951 . S
C775 C773 1.388 . S
C775 C776 1.366 . S
C776 C775 1.366 . S
C776 C777 1.414 . S
C776 C779 1.499 . S
C777 H751 0.950 . S
C777 C776 1.414 . S
C777 C778 1.374 . S
C778 H752 0.950 . S
C778 C774 1.385 . S
C778 C777 1.374 . S
C779 C776 1.499 . S
C779 C780 1.373 . S
C779 C781 1.389 . S
C780 H753 0.950 . S
C780 C766 1.377 . S
C780 C779 1.373 . S
C781 C765 1.377 . S
C781 C779 1.389 . S
C781 C782 1.524 . S
C782 C781 1.524 . S
C782 C783 1.397 . S
C782 C787 1.363 . S
C783 H754 0.950 . S
C783 C782 1.397 . S
C783 C784 1.334 . S
C784 H755 0.950 . S
C784 C783 1.334 . S
C784 C785 1.287 . S
C785 C784 1.287 . S
C785 C786 1.524 . S
C785 H788 0.999 . S
C786 H756 0.950 . S
C786 C785 1.524 . S
C786 C787 1.415 . S
C787 H757 0.950 . S
C787 C782 1.363 . S
C787 C786 1.415 . S
H788 C785 0.999 . S
H789 C770 0.913 . S
H790 C808 0.951 . S
H791 C810 0.951 . S
H792 C812 0.950 . S
H793 C813 0.950 . S
H794 C815 0.950 . S
H795 C818 0.950 . S
H796 C819 0.950 . S
H797 C821 0.950 . S
H798 C822 0.950 . S
H799 C823 0.951 . S
H800 C825 0.951 . S
H801 C827 0.950 . S
H802 C828 0.950 . S
H803 C830 0.950 . S
H804 C833 0.950 . S
H805 C834 0.950 . S
H806 C836 0.950 . S
H807 C837 0.950 . S
C808 H790 0.951 . S
C808 C809 1.366 . S
C808 C810 1.388 . S
C809 C808 1.366 . S
C809 C813 1.385 . S
C810 H791 0.951 . S
C810 C808 1.388 . S
C810 C811 1.366 . S
C811 C810 1.366 . S
C811 C812 1.414 . S
C811 C814 1.499 . S
C812 H792 0.950 . S
C812 C811 1.414 . S
C812 C813 1.374 . S
C813 H793 0.950 . S
C813 C809 1.385 . S
C813 C812 1.374 . S
C814 C811 1.499 . S
C814 C815 1.373 . S
C814 C816 1.389 . S
C815 H794 0.950 . S
C815 C814 1.373 . S
C815 C831 1.377 . S
C816 C814 1.389 . S
C816 C817 1.524 . S
C816 C830 1.377 . S
C817 C816 1.524 . S
C817 C818 1.397 . S
C817 C822 1.363 . S
C818 H795 0.950 . S
C818 C817 1.397 . S
C818 C819 1.334 . S
C819 H796 0.950 . S
C819 C818 1.334 . S
C819 C820 1.287 . S
C820 C819 1.287 . S
C820 C821 1.524 . S
C820 H839 0.913 . S
C821 H797 0.950 . S
C821 C820 1.524 . S
C821 C822 1.415 . S
C822 H798 0.950 . S
C822 C817 1.363 . S
C822 C821 1.415 . S
C823 H799 0.951 . S
C823 C824 1.366 . S
C823 C825 1.388 . S
C824 C823 1.366 . S
C824 C828 1.385 . S
C825 H800 0.951 . S
C825 C823 1.388 . S
C825 C826 1.366 . S
C826 C825 1.366 . S
C826 C827 1.414 . S
C826 C829 1.499 . S
C827 H801 0.950 . S
C827 C826 1.414 . S
C827 C828 1.374 . S
C828 H802 0.950 . S
C828 C824 1.385 . S
C828 C827 1.374 . S
C829 C826 1.499 . S
C829 C830 1.373 . S
C829 C831 1.389 . S
C830 H803 0.950 . S
C830 C816 1.377 . S
C830 C829 1.373 . S
C831 C815 1.377 . S
C831 C829 1.389 . S
C831 C832 1.524 . S
C832 C831 1.524 . S
C832 C833 1.397 . S
C832 C837 1.363 . S
C833 H804 0.950 . S
C833 C832 1.397 . S
C833 C834 1.334 . S
C834 H805 0.950 . S
C834 C833 1.334 . S
C834 C835 1.287 . S
C835 C834 1.287 . S
C835 C836 1.524 . S
C835 H838 0.999 . S
C836 H806 0.950 . S
C836 C835 1.524 . S
C836 C837 1.415 . S
C837 H807 0.950 . S
C837 C832 1.363 . S
C837 C836 1.415 . S
H838 C835 0.999 . S
H839 C820 0.913 . S
H840 C858 0.951 . S
H841 C860 0.951 . S
H842 C862 0.950 . S
H843 C863 0.950 . S
H844 C865 0.950 . S
H845 C868 0.950 . S
H846 C869 0.950 . S
H847 C871 0.950 . S
H848 C872 0.950 . S
H849 C873 0.951 . S
H850 C875 0.951 . S
H851 C877 0.950 . S
H852 C878 0.950 . S
H853 C880 0.950 . S
H854 C883 0.950 . S
H855 C884 0.950 . S
H856 C886 0.950 . S
H857 C887 0.950 . S
C858 H840 0.951 . S
C858 C859 1.366 . S
C858 C860 1.388 . S
C859 C858 1.366 . S
C859 C863 1.385 . S
C860 H841 0.951 . S
C860 C858 1.388 . S
C860 C861 1.366 . S
C861 C860 1.366 . S
C861 C862 1.414 . S
C861 C864 1.499 . S
C862 H842 0.950 . S
C862 C861 1.414 . S
C862 C863 1.374 . S
C863 H843 0.950 . S
C863 C859 1.385 . S
C863 C862 1.374 . S
C864 C861 1.499 . S
C864 C865 1.373 . S
C864 C866 1.389 . S
C865 H844 0.950 . S
C865 C864 1.373 . S
C865 C881 1.377 . S
C866 C864 1.389 . S
C866 C867 1.524 . S
C866 C880 1.377 . S
C867 C866 1.524 . S
C867 C868 1.397 . S
C867 C872 1.363 . S
C868 H845 0.950 . S
C868 C867 1.397 . S
C868 C869 1.334 . S
C869 H846 0.950 . S
C869 C868 1.334 . S
C869 C870 1.287 . S
C870 C869 1.287 . S
C870 C871 1.524 . S
C870 H889 0.913 . S
C871 H847 0.950 . S
C871 C870 1.524 . S
C871 C872 1.415 . S
C872 H848 0.950 . S
C872 C867 1.363 . S
C872 C871 1.415 . S
C873 H849 0.951 . S
C873 C874 1.366 . S
C873 C875 1.388 . S
C874 C873 1.366 . S
C874 C878 1.385 . S
C875 H850 0.951 . S
C875 C873 1.388 . S
C875 C876 1.366 . S
C876 C875 1.366 . S
C876 C877 1.414 . S
C876 C879 1.499 . S
C877 H851 0.950 . S
C877 C876 1.414 . S
C877 C878 1.374 . S
C878 H852 0.950 . S
C878 C874 1.385 . S
C878 C877 1.374 . S
C879 C876 1.499 . S
C879 C880 1.373 . S
C879 C881 1.389 . S
C880 H853 0.950 . S
C880 C866 1.377 . S
C880 C879 1.373 . S
C881 C865 1.377 . S
C881 C879 1.389 . S
C881 C882 1.524 . S
C882 C881 1.524 . S
C882 C883 1.397 . S
C882 C887 1.363 . S
C883 H854 0.950 . S
C883 C882 1.397 . S
C883 C884 1.334 . S
C884 H855 0.950 . S
C884 C883 1.334 . S
C884 C885 1.287 . S
C885 C884 1.287 . S
C885 C886 1.524 . S
C885 H888 0.999 . S
C886 H856 0.950 . S
C886 C885 1.524 . S
C886 C887 1.415 . S
C887 H857 0.950 . S
C887 C882 1.363 . S
C887 C886 1.415 . S
H888 C885 0.999 . S
H889 C870 0.913 . S
H890 C908 0.951 . S
H891 C910 0.951 . S
H892 C912 0.950 . S
H893 C913 0.950 . S
H894 C915 0.950 . S
H895 C918 0.950 . S
H896 C919 0.950 . S
H897 C921 0.950 . S
H898 C922 0.950 . S
H899 C923 0.951 . S
H900 C925 0.951 . S
H901 C927 0.950 . S
H902 C928 0.950 . S
H903 C930 0.950 . S
H904 C933 0.950 . S
H905 C934 0.950 . S
H906 C936 0.950 . S
H907 C937 0.950 . S
C908 H890 0.951 . S
C908 C909 1.366 . S
C908 C910 1.388 . S
C909 C908 1.366 . S
C909 C913 1.385 . S
C910 H891 0.951 . S
C910 C908 1.388 . S
C910 C911 1.366 . S
C911 C910 1.366 . S
C911 C912 1.414 . S
C911 C914 1.499 . S
C912 H892 0.950 . S
C912 C911 1.414 . S
C912 C913 1.374 . S
C913 H893 0.950 . S
C913 C909 1.385 . S
C913 C912 1.374 . S
C914 C911 1.499 . S
C914 C915 1.373 . S
C914 C916 1.389 . S
C915 H894 0.950 . S
C915 C914 1.373 . S
C915 C931 1.377 . S
C916 C914 1.389 . S
C916 C917 1.524 . S
C916 C930 1.377 . S
C917 C916 1.524 . S
C917 C918 1.397 . S
C917 C922 1.363 . S
C918 H895 0.950 . S
C918 C917 1.397 . S
C918 C919 1.334 . S
C919 H896 0.950 . S
C919 C918 1.334 . S
C919 C920 1.287 . S
C920 C919 1.287 . S
C920 C921 1.524 . S
C920 H939 0.913 . S
C921 H897 0.950 . S
C921 C920 1.524 . S
C921 C922 1.415 . S
C922 H898 0.950 . S
C922 C917 1.363 . S
C922 C921 1.415 . S
C923 H899 0.951 . S
C923 C924 1.366 . S
C923 C925 1.388 . S
C924 C923 1.366 . S
C924 C928 1.385 . S
C925 H900 0.951 . S
C925 C923 1.388 . S
C925 C926 1.366 . S
C926 C925 1.366 . S
C926 C927 1.414 . S
C926 C929 1.499 . S
C927 H901 0.950 . S
C927 C926 1.414 . S
C927 C928 1.374 . S
C928 H902 0.950 . S
C928 C924 1.385 . S
C928 C927 1.374 . S
C929 C926 1.499 . S
C929 C930 1.373 . S
C929 C931 1.389 . S
C930 H903 0.950 . S
C930 C916 1.377 . S
C930 C929 1.373 . S
C931 C915 1.377 . S
C931 C929 1.389 . S
C931 C932 1.524 . S
C932 C931 1.524 . S
C932 C933 1.397 . S
C932 C937 1.363 . S
C933 H904 0.950 . S
C933 C932 1.397 . S
C933 C934 1.334 . S
C934 H905 0.950 . S
C934 C933 1.334 . S
C934 C935 1.287 . S
C935 C934 1.287 . S
C935 C936 1.524 . S
C935 H938 0.999 . S
C936 H906 0.950 . S
C936 C935 1.524 . S
C936 C937 1.415 . S
C937 H907 0.950 . S
C937 C932 1.363 . S
C937 C936 1.415 . S
H938 C935 0.999 . S
H939 C920 0.913 . S
H940 C958 0.951 . S
H941 C960 0.951 . S
H942 C962 0.950 . S
H943 C963 0.950 . S
H944 C965 0.950 . S
H945 C968 0.950 . S
H946 C969 0.950 . S
H947 C971 0.950 . S
H948 C972 0.950 . S
H949 C973 0.965 . S
H950 C975 0.951 . S
H951 C977 0.950 . S
H952 C978 0.950 . S
H953 C980 0.950 . S
H954 C983 0.950 . S
H955 C984 0.950 . S
H956 C986 0.950 . S
H957 C987 0.950 . S
C958 H940 0.951 . S
C958 C959 1.366 . S
C958 C960 1.388 . S
C959 C958 1.366 . S
C959 C963 1.385 . S
C960 H941 0.951 . S
C960 C958 1.388 . S
C960 C961 1.366 . S
C961 C960 1.366 . S
C961 C962 1.414 . S
C961 C964 1.499 . S
C962 H942 0.950 . S
C962 C961 1.414 . S
C962 C963 1.374 . S
C963 H943 0.950 . S
C963 C959 1.385 . S
C963 C962 1.374 . S
C964 C961 1.499 . S
C964 C965 1.373 . S
C964 C966 1.389 . S
C965 H944 0.950 . S
C965 C964 1.373 . S
C965 C981 1.377 . S
C966 C964 1.389 . S
C966 C967 1.524 . S
C966 C980 1.377 . S
C967 C966 1.524 . S
C967 C968 1.397 . S
C967 C972 1.363 . S
C968 H945 0.950 . S
C968 C967 1.397 . S
C968 C969 1.334 . S
C969 H946 0.950 . S
C969 C968 1.334 . S
C969 C970 1.287 . S
C970 C969 1.287 . S
C970 C971 1.524 . S
C970 H989 0.913 . S
C971 H947 0.950 . S
C971 C970 1.524 . S
C971 C972 1.415 . S
C972 H948 0.950 . S
C972 C967 1.363 . S
C972 C971 1.415 . S
C973 H949 0.965 . S
C973 C974 1.373 . S
C973 C975 1.368 1_554 S
C974 C973 1.373 . S
C974 C978 1.385 1_554 S
C975 H950 0.951 . S
C975 C973 1.368 1_556 S
C975 C976 1.366 . S
C976 C975 1.366 . S
C976 C977 1.414 . S
C976 C979 1.499 . S
C977 H951 0.950 . S
C977 C976 1.414 . S
C977 C978 1.374 . S
C978 H952 0.950 . S
C978 C974 1.385 1_556 S
C978 C977 1.374 . S
C979 C976 1.499 . S
C979 C980 1.373 . S
C979 C981 1.389 . S
C980 H953 0.950 . S
C980 C966 1.377 . S
C980 C979 1.373 . S
C981 C965 1.377 . S
C981 C979 1.389 . S
C981 C982 1.524 . S
C982 C981 1.524 . S
C982 C983 1.397 . S
C982 C987 1.363 . S
C983 H954 0.950 . S
C983 C982 1.397 . S
C983 C984 1.334 . S
C984 H955 0.950 . S
C984 C983 1.334 . S
C984 C985 1.287 . S
C985 C984 1.287 . S
C985 C986 1.524 . S
C985 H988 0.999 . S
C986 H956 0.950 . S
C986 C985 1.524 . S
C986 C987 1.415 . S
C987 H957 0.950 . S
C987 C982 1.363 . S
C987 C986 1.415 . S
H988 C985 0.999 . S
H989 C970 0.913 . S
H990 C1008 0.951 . S
H991 C1010 0.951 . S
H992 C1012 0.950 . S
H993 C1013 0.950 . S
H994 C1015 0.950 . S
H995 C1018 0.950 . S
H996 C1019 0.950 . S
H997 C1021 0.950 . S
H998 C1022 0.950 . S
H999 C1023 0.951 . S
H1000 C1025 0.951 . S
H1001 C1027 0.950 . S
H1002 C1028 0.950 . S
H1003 C1030 0.950 . S
H1004 C1033 0.950 . S
H1005 C1034 0.950 . S
H1006 C1036 0.950 . S
H1007 C1037 0.950 . S
C1008 H990 0.951 . S
C1008 C1009 1.366 . S
C1008 C1010 1.388 . S
C1009 C1008 1.366 . S
C1009 C1013 1.385 . S
C1010 H991 0.951 . S
C1010 C1008 1.388 . S
C1010 C1011 1.366 . S
C1011 C1010 1.366 . S
C1011 C1012 1.414 . S
C1011 C1014 1.499 . S
C1012 H992 0.950 . S
C1012 C1011 1.414 . S
C1012 C1013 1.374 . S
C1013 H993 0.950 . S
C1013 C1009 1.385 . S
C1013 C1012 1.374 . S
C1014 C1011 1.499 . S
C1014 C1015 1.373 . S
C1014 C1016 1.389 . S
C1015 H994 0.950 . S
C1015 C1014 1.373 . S
C1015 C1031 1.377 . S
C1016 C1014 1.389 . S
C1016 C1017 1.524 . S
C1016 C1030 1.377 . S
C1017 C1016 1.524 . S
C1017 C1018 1.397 . S
C1017 C1022 1.363 . S
C1018 H995 0.950 . S
C1018 C1017 1.397 . S
C1018 C1019 1.334 . S
C1019 H996 0.950 . S
C1019 C1018 1.334 . S
C1019 C1020 1.287 . S
C1020 C1019 1.287 . S
C1020 C1021 1.524 . S
C1020 H1039 0.913 . S
C1021 H997 0.950 . S
C1021 C1020 1.524 . S
C1021 C1022 1.415 . S
C1022 H998 0.950 . S
C1022 C1017 1.363 . S
C1022 C1021 1.415 . S
C1023 H999 0.951 . S
C1023 C1024 1.366 . S
C1023 C1025 1.388 . S
C1024 C1023 1.366 . S
C1024 C1028 1.385 . S
C1025 H1000 0.951 . S
C1025 C1023 1.388 . S
C1025 C1026 1.366 . S
C1026 C1025 1.366 . S
C1026 C1027 1.414 . S
C1026 C1029 1.499 . S
C1027 H1001 0.950 . S
C1027 C1026 1.414 . S
C1027 C1028 1.374 . S
C1028 H1002 0.950 . S
C1028 C1024 1.385 . S
C1028 C1027 1.374 . S
C1029 C1026 1.499 . S
C1029 C1030 1.373 . S
C1029 C1031 1.389 . S
C1030 H1003 0.950 . S
C1030 C1016 1.377 . S
C1030 C1029 1.373 . S
C1031 C1015 1.377 . S
C1031 C1029 1.389 . S
C1031 C1032 1.524 . S
C1032 C1031 1.524 . S
C1032 C1033 1.397 . S
C1032 C1037 1.363 . S
C1033 H1004 0.950 . S
C1033 C1032 1.397 . S
C1033 C1034 1.334 . S
C1034 H1005 0.950 . S
C1034 C1033 1.334 . S
C1034 C1035 1.287 . S
C1035 C1034 1.287 . S
C1035 C1036 1.524 . S
C1035 H1038 0.999 . S
C1036 H1006 0.950 . S
C1036 C1035 1.524 . S
C1036 C1037 1.415 . S
C1037 H1007 0.950 . S
C1037 C1032 1.363 . S
C1037 C1036 1.415 . S
H1038 C1035 0.999 . S
H1039 C1020 0.913 . S
H1040 C1058 0.951 . S
H1041 C1060 0.951 . S
H1042 C1062 0.950 . S
H1043 C1063 0.950 . S
H1044 C1065 0.950 . S
H1045 C1068 0.950 . S
H1046 C1069 0.950 . S
H1047 C1071 0.950 . S
H1048 C1072 0.950 . S
H1049 C1073 0.951 . S
H1050 C1075 0.951 . S
H1051 C1077 0.950 . S
H1052 C1078 0.950 . S
H1053 C1080 0.950 . S
H1054 C1083 0.950 . S
H1055 C1084 0.950 . S
H1056 C1086 0.950 . S
H1057 C1087 0.950 . S
C1058 H1040 0.951 . S
C1058 C1059 1.366 . S
C1058 C1060 1.388 . S
C1059 C1058 1.366 . S
C1059 C1063 1.385 . S
C1060 H1041 0.951 . S
C1060 C1058 1.388 . S
C1060 C1061 1.366 . S
C1061 C1060 1.366 . S
C1061 C1062 1.414 . S
C1061 C1064 1.499 . S
C1062 H1042 0.950 . S
C1062 C1061 1.414 . S
C1062 C1063 1.374 . S
C1063 H1043 0.950 . S
C1063 C1059 1.385 . S
C1063 C1062 1.374 . S
C1064 C1061 1.499 . S
C1064 C1065 1.373 . S
C1064 C1066 1.389 . S
C1065 H1044 0.950 . S
C1065 C1064 1.373 . S
C1065 C1081 1.377 . S
C1066 C1064 1.389 . S
C1066 C1067 1.524 . S
C1066 C1080 1.377 . S
C1067 C1066 1.524 . S
C1067 C1068 1.397 . S
C1067 C1072 1.363 . S
C1068 H1045 0.950 . S
C1068 C1067 1.397 . S
C1068 C1069 1.334 . S
C1069 H1046 0.950 . S
C1069 C1068 1.334 . S
C1069 C1070 1.287 . S
C1070 C1069 1.287 . S
C1070 C1071 1.524 . S
C1070 H1089 0.913 . S
C1071 H1047 0.950 . S
C1071 C1070 1.524 . S
C1071 C1072 1.415 . S
C1072 H1048 0.950 . S
C1072 C1067 1.363 . S
C1072 C1071 1.415 . S
C1073 H1049 0.951 . S
C1073 C1074 1.366 . S
C1073 C1075 1.388 . S
C1074 C1073 1.366 . S
C1074 C1078 1.385 . S
C1075 H1050 0.951 . S
C1075 C1073 1.388 . S
C1075 C1076 1.366 . S
C1076 C1075 1.366 . S
C1076 C1077 1.414 . S
C1076 C1079 1.499 . S
C1077 H1051 0.950 . S
C1077 C1076 1.414 . S
C1077 C1078 1.374 . S
C1078 H1052 0.950 . S
C1078 C1074 1.385 . S
C1078 C1077 1.374 . S
C1079 C1076 1.499 . S
C1079 C1080 1.373 . S
C1079 C1081 1.389 . S
C1080 H1053 0.950 . S
C1080 C1066 1.377 . S
C1080 C1079 1.373 . S
C1081 C1065 1.377 . S
C1081 C1079 1.389 . S
C1081 C1082 1.524 . S
C1082 C1081 1.524 . S
C1082 C1083 1.397 . S
C1082 C1087 1.363 . S
C1083 H1054 0.950 . S
C1083 C1082 1.397 . S
C1083 C1084 1.334 . S
C1084 H1055 0.950 . S
C1084 C1083 1.334 . S
C1084 C1085 1.287 . S
C1085 C1084 1.287 . S
C1085 C1086 1.524 . S
C1085 H1088 0.999 . S
C1086 H1056 0.950 . S
C1086 C1085 1.524 . S
C1086 C1087 1.415 . S
C1087 H1057 0.950 . S
C1087 C1082 1.363 . S
C1087 C1086 1.415 . S
H1088 C1085 0.999 . S
H1089 C1070 0.913 . S
H1090 C1108 0.951 . S
H1091 C1110 0.951 . S
H1092 C1112 0.950 . S
H1093 C1113 0.950 . S
H1094 C1115 0.950 . S
H1095 C1118 0.950 . S
H1096 C1119 0.950 . S
H1097 C1121 0.950 . S
H1098 C1122 0.950 . S
H1099 C1123 0.951 . S
H1100 C1125 0.951 . S
H1101 C1127 0.950 . S
H1102 C1128 0.950 1_556 S
H1103 C1130 0.950 . S
H1104 C1133 0.950 . S
H1105 C1134 0.950 . S
H1106 C1136 0.950 . S
H1107 C1137 0.950 . S
C1108 H1090 0.951 . S
C1108 C1109 1.366 . S
C1108 C1110 1.388 . S
C1109 C1108 1.366 . S
C1109 C1113 1.385 . S
C1110 H1091 0.951 . S
C1110 C1108 1.388 . S
C1110 C1111 1.366 . S
C1111 C1110 1.366 . S
C1111 C1112 1.414 . S
C1111 C1114 1.499 . S
C1112 H1092 0.950 . S
C1112 C1111 1.414 . S
C1112 C1113 1.374 . S
C1113 H1093 0.950 . S
C1113 C1109 1.385 . S
C1113 C1112 1.374 . S
C1114 C1111 1.499 . S
C1114 C1115 1.373 . S
C1114 C1116 1.389 . S
C1115 H1094 0.950 . S
C1115 C1114 1.373 . S
C1115 C1131 1.377 . S
C1116 C1114 1.389 . S
C1116 C1117 1.524 . S
C1116 C1130 1.377 . S
C1117 C1116 1.524 . S
C1117 C1118 1.397 . S
C1117 C1122 1.363 . S
C1118 H1095 0.950 . S
C1118 C1117 1.397 . S
C1118 C1119 1.334 . S
C1119 H1096 0.950 . S
C1119 C1118 1.334 . S
C1119 C1120 1.287 . S
C1120 C1119 1.287 . S
C1120 C1121 1.524 . S
C1120 H1139 0.913 . S
C1121 H1097 0.950 . S
C1121 C1120 1.524 . S
C1121 C1122 1.415 . S
C1122 H1098 0.950 . S
C1122 C1117 1.363 . S
C1122 C1121 1.415 . S
C1123 H1099 0.951 . S
C1123 C1124 1.366 . S
C1123 C1125 1.388 1_556 S
C1124 C1123 1.366 . S
C1124 C1128 1.385 1_556 S
C1125 H1100 0.951 . S
C1125 C1123 1.388 1_554 S
C1125 C1126 1.366 . S
C1126 C1125 1.366 . S
C1126 C1127 1.414 . S
C1126 C1129 1.499 . S
C1127 H1101 0.950 . S
C1127 C1126 1.414 . S
C1127 C1128 1.374 . S
C1128 H1102 0.950 1_554 S
C1128 C1124 1.385 1_554 S
C1128 C1127 1.374 . S
C1129 C1126 1.499 . S
C1129 C1130 1.373 . S
C1129 C1131 1.389 . S
C1130 H1103 0.950 . S
C1130 C1116 1.377 . S
C1130 C1129 1.373 . S
C1131 C1115 1.377 . S
C1131 C1129 1.389 . S
C1131 C1132 1.524 . S
C1132 C1131 1.524 . S
C1132 C1133 1.397 . S
C1132 C1137 1.363 . S
C1133 H1104 0.950 . S
C1133 C1132 1.397 . S
C1133 C1134 1.334 . S
C1134 H1105 0.950 . S
C1134 C1133 1.334 . S
C1134 C1135 1.287 . S
C1135 C1134 1.287 . S
C1135 C1136 1.524 . S
C1135 H1138 0.999 . S
C1136 H1106 0.950 . S
C1136 C1135 1.524 . S
C1136 C1137 1.415 . S
C1137 H1107 0.950 . S
C1137 C1132 1.363 . S
C1137 C1136 1.415 . S
H1138 C1135 0.999 . S
H1139 C1120 0.913 . S
H1140 C1158 0.951 . S
H1141 C1160 0.951 . S
H1142 C1162 0.950 . S
H1143 C1163 0.950 . S
H1144 C1165 0.950 . S
H1145 C1168 0.950 . S
H1146 C1169 0.950 . S
H1147 C1171 0.950 . S
H1148 C1172 0.950 . S
H1149 C1173 0.951 . S
H1150 C1175 0.951 . S
H1151 C1177 0.950 . S
H1152 C1178 0.950 . S
H1153 C1180 0.950 . S
H1154 C1183 0.950 . S
H1155 C1184 0.950 . S
H1156 C1186 0.950 . S
H1157 C1187 0.950 . S
C1158 H1140 0.951 . S
C1158 C1159 1.366 . S
C1158 C1160 1.388 . S
C1159 C1158 1.366 . S
C1159 C1163 1.385 . S
C1160 H1141 0.951 . S
C1160 C1158 1.388 . S
C1160 C1161 1.366 . S
C1161 C1160 1.366 . S
C1161 C1162 1.414 . S
C1161 C1164 1.499 . S
C1162 H1142 0.950 . S
C1162 C1161 1.414 . S
C1162 C1163 1.374 . S
C1163 H1143 0.950 . S
C1163 C1159 1.385 . S
C1163 C1162 1.374 . S
C1164 C1161 1.499 . S
C1164 C1165 1.373 . S
C1164 C1166 1.389 . S
C1165 H1144 0.950 . S
C1165 C1164 1.373 . S
C1165 C1181 1.377 . S
C1166 C1164 1.389 . S
C1166 C1167 1.524 . S
C1166 C1180 1.377 . S
C1167 C1166 1.524 . S
C1167 C1168 1.397 . S
C1167 C1172 1.363 . S
C1168 H1145 0.950 . S
C1168 C1167 1.397 . S
C1168 C1169 1.334 . S
C1169 H1146 0.950 . S
C1169 C1168 1.334 . S
C1169 C1170 1.287 . S
C1170 C1169 1.287 . S
C1170 C1171 1.524 . S
C1170 H1189 0.913 . S
C1171 H1147 0.950 . S
C1171 C1170 1.524 . S
C1171 C1172 1.415 . S
C1172 H1148 0.950 . S
C1172 C1167 1.363 . S
C1172 C1171 1.415 . S
C1173 H1149 0.951 . S
C1173 C1174 1.366 . S
C1173 C1175 1.388 . S
C1174 C1173 1.366 . S
C1174 C1178 1.385 . S
C1175 H1150 0.951 . S
C1175 C1173 1.388 . S
C1175 C1176 1.366 . S
C1176 C1175 1.366 . S
C1176 C1177 1.414 . S
C1176 C1179 1.499 . S
C1177 H1151 0.950 . S
C1177 C1176 1.414 . S
C1177 C1178 1.374 . S
C1178 H1152 0.950 . S
C1178 C1174 1.385 . S
C1178 C1177 1.374 . S
C1179 C1176 1.499 . S
C1179 C1180 1.373 . S
C1179 C1181 1.389 . S
C1180 H1153 0.950 . S
C1180 C1166 1.377 . S
C1180 C1179 1.373 . S
C1181 C1165 1.377 . S
C1181 C1179 1.389 . S
C1181 C1182 1.524 . S
C1182 C1181 1.524 . S
C1182 C1183 1.397 . S
C1182 C1187 1.363 . S
C1183 H1154 0.950 . S
C1183 C1182 1.397 . S
C1183 C1184 1.334 . S
C1184 H1155 0.950 . S
C1184 C1183 1.334 . S
C1184 C1185 1.287 . S
C1185 C1184 1.287 . S
C1185 C1186 1.524 . S
C1185 H1188 0.999 . S
C1186 H1156 0.950 . S
C1186 C1185 1.524 . S
C1186 C1187 1.415 . S
C1187 H1157 0.950 . S
C1187 C1182 1.363 . S
C1187 C1186 1.415 . S
H1188 C1185 0.999 . S
H1189 C1170 0.913 . S
H1190 C1208 0.951 . S
H1191 C1210 0.951 . S
H1192 C1212 0.950 . S
H1193 C1213 0.950 . S
H1194 C1215 0.950 . S
H1195 C1218 0.950 . S
H1196 C1219 0.950 . S
H1197 C1221 0.950 . S
H1198 C1222 0.950 . S
H1199 C1223 0.951 . S
H1200 C1225 0.951 . S
H1201 C1227 0.950 . S
H1202 C1228 0.950 . S
H1203 C1230 0.950 . S
H1204 C1233 0.950 . S
H1205 C1234 0.950 . S
H1206 C1236 0.950 . S
H1207 C1237 0.950 . S
C1208 H1190 0.951 . S
C1208 C1209 1.366 . S
C1208 C1210 1.388 . S
C1209 C1208 1.366 . S
C1209 C1213 1.385 . S
C1210 H1191 0.951 . S
C1210 C1208 1.388 . S
C1210 C1211 1.366 . S
C1211 C1210 1.366 . S
C1211 C1212 1.414 . S
C1211 C1214 1.499 . S
C1212 H1192 0.950 . S
C1212 C1211 1.414 . S
C1212 C1213 1.374 . S
C1213 H1193 0.950 . S
C1213 C1209 1.385 . S
C1213 C1212 1.374 . S
C1214 C1211 1.499 . S
C1214 C1215 1.373 . S
C1214 C1216 1.389 . S
C1215 H1194 0.950 . S
C1215 C1214 1.373 . S
C1215 C1231 1.377 . S
C1216 C1214 1.389 . S
C1216 C1217 1.524 . S
C1216 C1230 1.377 . S
C1217 C1216 1.524 . S
C1217 C1218 1.397 . S
C1217 C1222 1.363 . S
C1218 H1195 0.950 . S
C1218 C1217 1.397 . S
C1218 C1219 1.334 . S
C1219 H1196 0.950 . S
C1219 C1218 1.334 . S
C1219 C1220 1.287 . S
C1220 C1219 1.287 . S
C1220 C1221 1.524 . S
C1220 H1239 0.913 . S
C1221 H1197 0.950 . S
C1221 C1220 1.524 . S
C1221 C1222 1.415 . S
C1222 H1198 0.950 . S
C1222 C1217 1.363 . S
C1222 C1221 1.415 . S
C1223 H1199 0.951 . S
C1223 C1224 1.366 . S
C1223 C1225 1.388 . S
C1224 C1223 1.366 . S
C1224 C1228 1.385 . S
C1225 H1200 0.951 . S
C1225 C1223 1.388 . S
C1225 C1226 1.366 . S
C1226 C1225 1.366 . S
C1226 C1227 1.414 . S
C1226 C1229 1.499 . S
C1227 H1201 0.950 . S
C1227 C1226 1.414 . S
C1227 C1228 1.374 . S
C1228 H1202 0.950 . S
C1228 C1224 1.385 . S
C1228 C1227 1.374 . S
C1229 C1226 1.499 . S
C1229 C1230 1.373 . S
C1229 C1231 1.389 . S
C1230 H1203 0.950 . S
C1230 C1216 1.377 . S
C1230 C1229 1.373 . S
C1231 C1215 1.377 . S
C1231 C1229 1.389 . S
C1231 C1232 1.524 . S
C1232 C1231 1.524 . S
C1232 C1233 1.397 . S
C1232 C1237 1.363 . S
C1233 H1204 0.950 . S
C1233 C1232 1.397 . S
C1233 C1234 1.334 . S
C1234 H1205 0.950 . S
C1234 C1233 1.334 . S
C1234 C1235 1.287 . S
C1235 C1234 1.287 . S
C1235 C1236 1.524 . S
C1235 H1238 0.999 . S
C1236 H1206 0.950 . S
C1236 C1235 1.524 . S
C1236 C1237 1.415 . S
C1237 H1207 0.950 . S
C1237 C1232 1.363 . S
C1237 C1236 1.415 . S
H1238 C1235 0.999 . S
H1239 C1220 0.913 . S
H1240 C1258 0.951 . S
H1241 C1260 0.951 . S
H1242 C1262 0.950 . S
H1243 C1263 0.950 . S
H1244 C1265 0.950 . S
H1245 C1268 0.950 . S
H1246 C1269 0.950 . S
H1247 C1271 0.950 . S
H1248 C1272 0.950 . S
H1249 C1273 0.951 . S
H1250 C1275 0.951 . S
H1251 C1277 0.950 . S
H1252 C1278 0.950 . S
H1253 C1280 0.950 . S
H1254 C1283 0.950 . S
H1255 C1284 0.950 . S
H1256 C1286 0.950 . S
H1257 C1287 0.950 . S
C1258 H1240 0.951 . S
C1258 C1259 1.366 . S
C1258 C1260 1.388 . S
C1259 C1258 1.366 . S
C1259 C1263 1.385 . S
C1260 H1241 0.951 . S
C1260 C1258 1.388 . S
C1260 C1261 1.366 . S
C1261 C1260 1.366 . S
C1261 C1262 1.414 . S
C1261 C1264 1.499 . S
C1262 H1242 0.950 . S
C1262 C1261 1.414 . S
C1262 C1263 1.374 . S
C1263 H1243 0.950 . S
C1263 C1259 1.385 . S
C1263 C1262 1.374 . S
C1264 C1261 1.499 . S
C1264 C1265 1.373 . S
C1264 C1266 1.389 . S
C1265 H1244 0.950 . S
C1265 C1264 1.373 . S
C1265 C1281 1.377 . S
C1266 C1264 1.389 . S
C1266 C1267 1.524 . S
C1266 C1280 1.377 . S
C1267 C1266 1.524 . S
C1267 C1268 1.397 . S
C1267 C1272 1.363 . S
C1268 H1245 0.950 . S
C1268 C1267 1.397 . S
C1268 C1269 1.334 . S
C1269 H1246 0.950 . S
C1269 C1268 1.334 . S
C1269 C1270 1.287 . S
C1270 C1269 1.287 . S
C1270 C1271 1.524 . S
C1270 H1289 0.913 . S
C1271 H1247 0.950 . S
C1271 C1270 1.524 . S
C1271 C1272 1.415 . S
C1272 H1248 0.950 . S
C1272 C1267 1.363 . S
C1272 C1271 1.415 . S
C1273 H1249 0.951 . S
C1273 C1274 1.366 . S
C1273 C1275 1.388 . S
C1274 C1273 1.366 . S
C1274 C1278 1.385 . S
C1275 H1250 0.951 . S
C1275 C1273 1.388 . S
C1275 C1276 1.366 . S
C1276 C1275 1.366 . S
C1276 C1277 1.414 . S
C1276 C1279 1.499 . S
C1277 H1251 0.950 . S
C1277 C1276 1.414 . S
C1277 C1278 1.374 . S
C1278 H1252 0.950 . S
C1278 C1274 1.385 . S
C1278 C1277 1.374 . S
C1279 C1276 1.499 . S
C1279 C1280 1.373 . S
C1279 C1281 1.389 . S
C1280 H1253 0.950 . S
C1280 C1266 1.377 . S
C1280 C1279 1.373 . S
C1281 C1265 1.377 . S
C1281 C1279 1.389 . S
C1281 C1282 1.524 . S
C1282 C1281 1.524 . S
C1282 C1283 1.397 . S
C1282 C1287 1.363 . S
C1283 H1254 0.950 . S
C1283 C1282 1.397 . S
C1283 C1284 1.334 . S
C1284 H1255 0.950 . S
C1284 C1283 1.334 . S
C1284 C1285 1.287 . S
C1285 C1284 1.287 . S
C1285 C1286 1.524 . S
C1285 H1288 0.999 . S
C1286 H1256 0.950 . S
C1286 C1285 1.524 . S
C1286 C1287 1.415 . S
C1287 H1257 0.950 . S
C1287 C1282 1.363 . S
C1287 C1286 1.415 . S
H1288 C1285 0.999 . S
H1289 C1270 0.913 . S
H1290 C1308 0.951 . S
H1291 C1310 0.951 . S
H1292 C1312 0.950 . S
H1293 C1313 0.950 . S
H1294 C1315 0.950 . S
H1295 C1318 0.950 . S
H1296 C1319 0.950 . S
H1297 C1321 0.950 . S
H1298 C1322 0.950 . S
H1299 C1323 0.951 . S
H1300 C1325 0.951 . S
H1301 C1327 0.950 . S
H1302 C1328 0.950 . S
H1303 C1330 0.950 . S
H1304 C1333 0.950 . S
H1305 C1334 0.950 . S
H1306 C1336 0.950 . S
H1307 C1337 0.950 . S
C1308 H1290 0.951 . S
C1308 C1309 1.366 . S
C1308 C1310 1.388 . S
C1309 C1308 1.366 . S
C1309 C1313 1.385 . S
C1310 H1291 0.951 . S
C1310 C1308 1.388 . S
C1310 C1311 1.366 . S
C1311 C1310 1.366 . S
C1311 C1312 1.414 . S
C1311 C1314 1.499 . S
C1312 H1292 0.950 . S
C1312 C1311 1.414 . S
C1312 C1313 1.374 . S
C1313 H1293 0.950 . S
C1313 C1309 1.385 . S
C1313 C1312 1.374 . S
C1314 C1311 1.499 . S
C1314 C1315 1.373 . S
C1314 C1316 1.389 . S
C1315 H1294 0.950 . S
C1315 C1314 1.373 . S
C1315 C1331 1.377 . S
C1316 C1314 1.389 . S
C1316 C1317 1.524 . S
C1316 C1330 1.377 . S
C1317 C1316 1.524 . S
C1317 C1318 1.397 . S
C1317 C1322 1.363 . S
C1318 H1295 0.950 . S
C1318 C1317 1.397 . S
C1318 C1319 1.334 . S
C1319 H1296 0.950 . S
C1319 C1318 1.334 . S
C1319 C1320 1.287 . S
C1320 C1319 1.287 . S
C1320 C1321 1.524 . S
C1320 H1339 0.913 . S
C1321 H1297 0.950 . S
C1321 C1320 1.524 . S
C1321 C1322 1.415 . S
C1322 H1298 0.950 . S
C1322 C1317 1.363 . S
C1322 C1321 1.415 . S
C1323 H1299 0.951 . S
C1323 C1324 1.366 . S
C1323 C1325 1.388 . S
C1324 C1323 1.366 . S
C1324 C1328 1.385 . S
C1325 H1300 0.951 . S
C1325 C1323 1.388 . S
C1325 C1326 1.366 . S
C1326 C1325 1.366 . S
C1326 C1327 1.414 . S
C1326 C1329 1.499 . S
C1327 H1301 0.950 . S
C1327 C1326 1.414 . S
C1327 C1328 1.374 . S
C1328 H1302 0.950 . S
C1328 C1324 1.385 . S
C1328 C1327 1.374 . S
C1329 C1326 1.499 . S
C1329 C1330 1.373 . S
C1329 C1331 1.389 . S
C1330 H1303 0.950 . S
C1330 C1316 1.377 . S
C1330 C1329 1.373 . S
C1331 C1315 1.377 . S
C1331 C1329 1.389 . S
C1331 C1332 1.524 . S
C1332 C1331 1.524 . S
C1332 C1333 1.397 . S
C1332 C1337 1.363 . S
C1333 H1304 0.950 . S
C1333 C1332 1.397 . S
C1333 C1334 1.334 . S
C1334 H1305 0.950 . S
C1334 C1333 1.334 . S
C1334 C1335 1.287 . S
C1335 C1334 1.287 . S
C1335 C1336 1.524 . S
C1335 H1338 0.999 . S
C1336 H1306 0.950 . S
C1336 C1335 1.524 . S
C1336 C1337 1.415 . S
C1337 H1307 0.950 . S
C1337 C1332 1.363 . S
C1337 C1336 1.415 . S
H1338 C1335 0.999 . S
H1339 C1320 0.913 . S
H1340 C1358 0.951 . S
H1341 C1360 0.951 . S
H1342 C1362 0.950 . S
H1343 C1363 0.950 . S
H1344 C1365 0.950 . S
H1345 C1368 0.950 . S
H1346 C1369 0.950 . S
H1347 C1371 0.950 . S
H1348 C1372 0.950 . S
H1349 C1373 0.951 . S
H1350 C1375 0.951 . S
H1351 C1377 0.950 . S
H1352 C1378 0.950 . S
H1353 C1380 0.950 . S
H1354 C1383 0.950 . S
H1355 C1384 0.950 . S
H1356 C1386 0.950 . S
H1357 C1387 0.950 . S
C1358 H1340 0.951 . S
C1358 C1359 1.366 . S
C1358 C1360 1.388 . S
C1359 C1358 1.366 . S
C1359 C1363 1.385 . S
C1360 H1341 0.951 . S
C1360 C1358 1.388 . S
C1360 C1361 1.366 . S
C1361 C1360 1.366 . S
C1361 C1362 1.414 . S
C1361 C1364 1.499 . S
C1362 H1342 0.950 . S
C1362 C1361 1.414 . S
C1362 C1363 1.374 . S
C1363 H1343 0.950 . S
C1363 C1359 1.385 . S
C1363 C1362 1.374 . S
C1364 C1361 1.499 . S
C1364 C1365 1.373 . S
C1364 C1366 1.389 . S
C1365 H1344 0.950 . S
C1365 C1364 1.373 . S
C1365 C1381 1.377 . S
C1366 C1364 1.389 . S
C1366 C1367 1.524 . S
C1366 C1380 1.377 . S
C1367 C1366 1.524 . S
C1367 C1368 1.397 . S
C1367 C1372 1.363 . S
C1368 H1345 0.950 . S
C1368 C1367 1.397 . S
C1368 C1369 1.334 . S
C1369 H1346 0.950 . S
C1369 C1368 1.334 . S
C1369 C1370 1.287 . S
C1370 C1369 1.287 . S
C1370 C1371 1.524 . S
C1370 H1389 0.913 . S
C1371 H1347 0.950 . S
C1371 C1370 1.524 . S
C1371 C1372 1.415 . S
C1372 H1348 0.950 . S
C1372 C1367 1.363 . S
C1372 C1371 1.415 . S
C1373 H1349 0.951 . S
C1373 C1374 1.366 1_554 S
C1373 C1375 1.388 . S
C1374 C1373 1.366 1_556 S
C1374 C1378 1.385 . S
C1375 H1350 0.951 . S
C1375 C1373 1.388 . S
C1375 C1376 1.366 . S
C1376 C1375 1.366 . S
C1376 C1377 1.414 . S
C1376 C1379 1.499 . S
C1377 H1351 0.950 . S
C1377 C1376 1.414 . S
C1377 C1378 1.374 1_554 S
C1378 H1352 0.950 . S
C1378 C1374 1.385 . S
C1378 C1377 1.374 1_556 S
C1379 C1376 1.499 . S
C1379 C1380 1.373 . S
C1379 C1381 1.389 . S
C1380 H1353 0.950 . S
C1380 C1366 1.377 . S
C1380 C1379 1.373 . S
C1381 C1365 1.377 . S
C1381 C1379 1.389 . S
C1381 C1382 1.524 . S
C1382 C1381 1.524 . S
C1382 C1383 1.397 . S
C1382 C1387 1.363 . S
C1383 H1354 0.950 . S
C1383 C1382 1.397 . S
C1383 C1384 1.334 . S
C1384 H1355 0.950 . S
C1384 C1383 1.334 . S
C1384 C1385 1.287 . S
C1385 C1384 1.287 . S
C1385 C1386 1.524 . S
C1385 H1388 0.999 . S
C1386 H1356 0.950 . S
C1386 C1385 1.524 . S
C1386 C1387 1.415 . S
C1387 H1357 0.950 . S
C1387 C1382 1.363 . S
C1387 C1386 1.415 . S
H1388 C1385 0.999 . S
H1389 C1370 0.913 . S
H1390 C1408 0.951 . S
H1391 C1410 0.951 . S
H1392 C1412 0.950 . S
H1393 C1413 0.950 . S
H1394 C1415 0.950 . S
H1395 C1418 0.950 . S
H1396 C1419 0.950 . S
H1397 C1421 0.950 . S
H1398 C1422 0.950 . S
H1399 C1423 0.951 . S
H1400 C1425 0.951 . S
H1401 C1427 0.950 . S
H1402 C1428 0.950 . S
H1403 C1430 0.950 . S
H1404 C1433 0.950 . S
H1405 C1434 0.950 . S
H1406 C1436 0.950 . S
H1407 C1437 0.950 . S
C1408 H1390 0.951 . S
C1408 C1409 1.366 . S
C1408 C1410 1.388 . S
C1409 C1408 1.366 . S
C1409 C1413 1.385 . S
C1410 H1391 0.951 . S
C1410 C1408 1.388 . S
C1410 C1411 1.366 . S
C1411 C1410 1.366 . S
C1411 C1412 1.414 . S
C1411 C1414 1.499 . S
C1412 H1392 0.950 . S
C1412 C1411 1.414 . S
C1412 C1413 1.374 . S
C1413 H1393 0.950 . S
C1413 C1409 1.385 . S
C1413 C1412 1.374 . S
C1414 C1411 1.499 . S
C1414 C1415 1.373 . S
C1414 C1416 1.389 . S
C1415 H1394 0.950 . S
C1415 C1414 1.373 . S
C1415 C1431 1.377 . S
C1416 C1414 1.389 . S
C1416 C1417 1.524 . S
C1416 C1430 1.377 . S
C1417 C1416 1.524 . S
C1417 C1418 1.397 . S
C1417 C1422 1.363 . S
C1418 H1395 0.950 . S
C1418 C1417 1.397 . S
C1418 C1419 1.334 . S
C1419 H1396 0.950 . S
C1419 C1418 1.334 . S
C1419 C1420 1.287 . S
C1420 C1419 1.287 . S
C1420 C1421 1.524 . S
C1420 H1439 0.913 . S
C1421 H1397 0.950 . S
C1421 C1420 1.524 . S
C1421 C1422 1.415 . S
C1422 H1398 0.950 . S
C1422 C1417 1.363 . S
C1422 C1421 1.415 . S
C1423 H1399 0.951 . S
C1423 C1424 1.366 . S
C1423 C1425 1.388 . S
C1424 C1423 1.366 . S
C1424 C1428 1.385 . S
C1425 H1400 0.951 . S
C1425 C1423 1.388 . S
C1425 C1426 1.366 . S
C1426 C1425 1.366 . S
C1426 C1427 1.414 . S
C1426 C1429 1.499 . S
C1427 H1401 0.950 . S
C1427 C1426 1.414 . S
C1427 C1428 1.374 . S
C1428 H1402 0.950 . S
C1428 C1424 1.385 . S
C1428 C1427 1.374 . S
C1429 C1426 1.499 . S
C1429 C1430 1.373 . S
C1429 C1431 1.389 . S
C1430 H1403 0.950 . S
C1430 C1416 1.377 . S
C1430 C1429 1.373 . S
C1431 C1415 1.377 . S
C1431 C1429 1.389 . S
C1431 C1432 1.524 . S
C1432 C1431 1.524 . S
C1432 C1433 1.397 . S
C1432 C1437 1.363 . S
C1433 H1404 0.950 . S
C1433 C1432 1.397 . S
C1433 C1434 1.334 . S
C1434 H1405 0.950 . S
C1434 C1433 1.334 . S
C1434 C1435 1.287 . S
C1435 C1434 1.287 . S
C1435 C1436 1.524 . S
C1435 H1438 0.999 . S
C1436 H1406 0.950 . S
C1436 C1435 1.524 . S
C1436 C1437 1.415 . S
C1437 H1407 0.950 . S
C1437 C1432 1.363 . S
C1437 C1436 1.415 . S
H1438 C1435 0.999 . S
H1439 C1420 0.913 . S
H1440 C1458 0.951 . S
H1441 C1460 0.951 . S
H1442 C1462 0.950 . S
H1443 C1463 0.950 . S
H1444 C1465 0.950 . S
H1445 C1468 0.950 . S
H1446 C1469 0.950 . S
H1447 C1471 0.950 . S
H1448 C1472 0.950 . S
H1449 C1473 0.951 . S
H1450 C1475 0.951 . S
H1451 C1477 0.950 . S
H1452 C1478 0.950 . S
H1453 C1480 0.950 . S
H1454 C1483 0.950 . S
H1455 C1484 0.950 . S
H1456 C1486 0.950 . S
H1457 C1487 0.950 . S
C1458 H1440 0.951 . S
C1458 C1459 1.366 . S
C1458 C1460 1.388 . S
C1459 C1458 1.366 . S
C1459 C1463 1.385 . S
C1460 H1441 0.951 . S
C1460 C1458 1.388 . S
C1460 C1461 1.366 . S
C1461 C1460 1.366 . S
C1461 C1462 1.414 . S
C1461 C1464 1.499 . S
C1462 H1442 0.950 . S
C1462 C1461 1.414 . S
C1462 C1463 1.374 . S
C1463 H1443 0.950 . S
C1463 C1459 1.385 . S
C1463 C1462 1.374 . S
C1464 C1461 1.499 . S
C1464 C1465 1.373 . S
C1464 C1466 1.389 . S
C1465 H1444 0.950 . S
C1465 C1464 1.373 . S
C1465 C1481 1.377 . S
C1466 C1464 1.389 . S
C1466 C1467 1.524 . S
C1466 C1480 1.377 . S
C1467 C1466 1.524 . S
C1467 C1468 1.397 . S
C1467 C1472 1.363 . S
C1468 H1445 0.950 . S
C1468 C1467 1.397 . S
C1468 C1469 1.334 . S
C1469 H1446 0.950 . S
C1469 C1468 1.334 . S
C1469 C1470 1.287 . S
C1470 C1469 1.287 . S
C1470 C1471 1.524 . S
C1470 H1489 0.913 . S
C1471 H1447 0.950 . S
C1471 C1470 1.524 . S
C1471 C1472 1.415 . S
C1472 H1448 0.950 . S
C1472 C1467 1.363 . S
C1472 C1471 1.415 . S
C1473 H1449 0.951 . S
C1473 C1474 1.366 . S
C1473 C1475 1.388 . S
C1474 C1473 1.366 . S
C1474 C1478 1.385 . S
C1475 H1450 0.951 . S
C1475 C1473 1.388 . S
C1475 C1476 1.366 . S
C1476 C1475 1.366 . S
C1476 C1477 1.414 . S
C1476 C1479 1.499 . S
C1477 H1451 0.950 . S
C1477 C1476 1.414 . S
C1477 C1478 1.374 . S
C1478 H1452 0.950 . S
C1478 C1474 1.385 . S
C1478 C1477 1.374 . S
C1479 C1476 1.499 . S
C1479 C1480 1.373 . S
C1479 C1481 1.389 . S
C1480 H1453 0.950 . S
C1480 C1466 1.377 . S
C1480 C1479 1.373 . S
C1481 C1465 1.377 . S
C1481 C1479 1.389 . S
C1481 C1482 1.524 . S
C1482 C1481 1.524 . S
C1482 C1483 1.397 . S
C1482 C1487 1.363 . S
C1483 H1454 0.950 . S
C1483 C1482 1.397 . S
C1483 C1484 1.334 . S
C1484 H1455 0.950 . S
C1484 C1483 1.334 . S
C1484 C1485 1.287 . S
C1485 C1484 1.287 . S
C1485 C1486 1.524 . S
C1485 H1488 0.999 . S
C1486 H1456 0.950 . S
C1486 C1485 1.524 . S
C1486 C1487 1.415 . S
C1487 H1457 0.950 . S
C1487 C1482 1.363 . S
C1487 C1486 1.415 . S
H1488 C1485 0.999 . S
H1489 C1470 0.913 . S
H1490 C1508 0.951 . S
H1491 C1510 0.951 . S
H1492 C1512 0.950 . S
H1493 C1513 0.950 . S
H1494 C1515 0.950 . S
H1495 C1518 0.950 . S
H1496 C1519 0.950 . S
H1497 C1521 0.950 . S
H1498 C1522 0.950 . S
H1499 C1523 0.951 . S
H1500 C1525 0.951 . S
H1501 C1527 0.950 . S
H1502 C1528 0.950 . S
H1503 C1530 0.950 . S
H1504 C1533 0.950 . S
H1505 C1534 0.950 . S
H1506 C1536 0.950 . S
H1507 C1537 0.950 . S
C1508 H1490 0.951 . S
C1508 C1509 1.366 . S
C1508 C1510 1.388 . S
C1509 C1508 1.366 . S
C1509 C1513 1.385 . S
C1510 H1491 0.951 . S
C1510 C1508 1.388 . S
C1510 C1511 1.366 . S
C1511 C1510 1.366 . S
C1511 C1512 1.414 . S
C1511 C1514 1.499 . S
C1512 H1492 0.950 . S
C1512 C1511 1.414 . S
C1512 C1513 1.374 . S
C1513 H1493 0.950 . S
C1513 C1509 1.385 . S
C1513 C1512 1.374 . S
C1514 C1511 1.499 . S
C1514 C1515 1.373 . S
C1514 C1516 1.389 . S
C1515 H1494 0.950 . S
C1515 C1514 1.373 . S
C1515 C1531 1.377 . S
C1516 C1514 1.389 . S
C1516 C1517 1.524 . S
C1516 C1530 1.377 . S
C1517 C1516 1.524 . S
C1517 C1518 1.397 . S
C1517 C1522 1.363 . S
C1518 H1495 0.950 . S
C1518 C1517 1.397 . S
C1518 C1519 1.334 . S
C1519 H1496 0.950 . S
C1519 C1518 1.334 . S
C1519 C1520 1.287 . S
C1520 C1519 1.287 . S
C1520 C1521 1.524 . S
C1520 H1539 0.913 . S
C1521 H1497 0.950 . S
C1521 C1520 1.524 . S
C1521 C1522 1.415 . S
C1522 H1498 0.950 . S
C1522 C1517 1.363 . S
C1522 C1521 1.415 . S
C1523 H1499 0.951 . S
C1523 C1524 1.366 . S
C1523 C1525 1.388 . S
C1524 C1523 1.366 . S
C1524 C1528 1.385 . S
C1525 H1500 0.951 . S
C1525 C1523 1.388 . S
C1525 C1526 1.366 . S
C1526 C1525 1.366 . S
C1526 C1527 1.414 . S
C1526 C1529 1.499 . S
C1527 H1501 0.950 . S
C1527 C1526 1.414 . S
C1527 C1528 1.374 . S
C1528 H1502 0.950 . S
C1528 C1524 1.385 . S
C1528 C1527 1.374 . S
C1529 C1526 1.499 . S
C1529 C1530 1.373 . S
C1529 C1531 1.389 . S
C1530 H1503 0.950 . S
C1530 C1516 1.377 . S
C1530 C1529 1.373 . S
C1531 C1515 1.377 . S
C1531 C1529 1.389 . S
C1531 C1532 1.524 . S
C1532 C1531 1.524 . S
C1532 C1533 1.397 . S
C1532 C1537 1.363 . S
C1533 H1504 0.950 . S
C1533 C1532 1.397 . S
C1533 C1534 1.334 . S
C1534 H1505 0.950 . S
C1534 C1533 1.334 . S
C1534 C1535 1.287 . S
C1535 C1534 1.287 . S
C1535 C1536 1.524 . S
C1535 H1538 0.999 . S
C1536 H1506 0.950 . S
C1536 C1535 1.524 . S
C1536 C1537 1.415 . S
C1537 H1507 0.950 . S
C1537 C1532 1.363 . S
C1537 C1536 1.415 . S
H1538 C1535 0.999 . S
H1539 C1520 0.913 . S
H1540 C1558 0.951 . S
H1541 C1560 0.951 . S
H1542 C1562 0.950 . S
H1543 C1563 0.950 . S
H1544 C1565 0.950 . S
H1545 C1568 0.950 . S
H1546 C1569 0.950 . S
H1547 C1571 0.950 . S
H1548 C1572 0.950 . S
H1549 C1573 0.951 . S
H1550 C1575 0.951 . S
H1551 C1577 0.950 . S
H1552 C1578 0.950 . S
H1553 C1580 0.950 . S
H1554 C1583 0.950 . S
H1555 C1584 0.950 . S
H1556 C1586 0.950 . S
H1557 C1587 0.950 . S
C1558 H1540 0.951 . S
C1558 C1559 1.366 . S
C1558 C1560 1.388 . S
C1559 C1558 1.366 . S
C1559 C1563 1.385 . S
C1560 H1541 0.951 . S
C1560 C1558 1.388 . S
C1560 C1561 1.366 . S
C1561 C1560 1.366 . S
C1561 C1562 1.414 . S
C1561 C1564 1.499 . S
C1562 H1542 0.950 . S
C1562 C1561 1.414 . S
C1562 C1563 1.374 . S
C1563 H1543 0.950 . S
C1563 C1559 1.385 . S
C1563 C1562 1.374 . S
C1564 C1561 1.499 . S
C1564 C1565 1.373 . S
C1564 C1566 1.389 . S
C1565 H1544 0.950 . S
C1565 C1564 1.373 . S
C1565 C1581 1.377 . S
C1566 C1564 1.389 . S
C1566 C1567 1.524 . S
C1566 C1580 1.377 . S
C1567 C1566 1.524 . S
C1567 C1568 1.397 . S
C1567 C1572 1.363 . S
C1568 H1545 0.950 . S
C1568 C1567 1.397 . S
C1568 C1569 1.334 . S
C1569 H1546 0.950 . S
C1569 C1568 1.334 . S
C1569 C1570 1.287 . S
C1570 C1569 1.287 . S
C1570 C1571 1.524 . S
C1570 H1589 0.913 . S
C1571 H1547 0.950 . S
C1571 C1570 1.524 . S
C1571 C1572 1.415 . S
C1572 H1548 0.950 . S
C1572 C1567 1.363 . S
C1572 C1571 1.415 . S
C1573 H1549 0.951 . S
C1573 C1574 1.366 . S
C1573 C1575 1.388 . S
C1574 C1573 1.366 . S
C1574 C1578 1.385 . S
C1575 H1550 0.951 . S
C1575 C1573 1.388 . S
C1575 C1576 1.366 . S
C1576 C1575 1.366 . S
C1576 C1577 1.414 . S
C1576 C1579 1.499 . S
C1577 H1551 0.950 . S
C1577 C1576 1.414 . S
C1577 C1578 1.374 . S
C1578 H1552 0.950 . S
C1578 C1574 1.385 . S
C1578 C1577 1.374 . S
C1579 C1576 1.499 . S
C1579 C1580 1.373 . S
C1579 C1581 1.389 . S
C1580 H1553 0.950 . S
C1580 C1566 1.377 . S
C1580 C1579 1.373 . S
C1581 C1565 1.377 . S
C1581 C1579 1.389 . S
C1581 C1582 1.524 . S
C1582 C1581 1.524 . S
C1582 C1583 1.397 . S
C1582 C1587 1.363 . S
C1583 H1554 0.950 . S
C1583 C1582 1.397 . S
C1583 C1584 1.334 . S
C1584 H1555 0.950 . S
C1584 C1583 1.334 . S
C1584 C1585 1.287 . S
C1585 C1584 1.287 . S
C1585 C1586 1.524 . S
C1585 H1588 0.999 . S
C1586 H1556 0.950 . S
C1586 C1585 1.524 . S
C1586 C1587 1.415 . S
C1587 H1557 0.950 . S
C1587 C1582 1.363 . S
C1587 C1586 1.415 . S
H1588 C1585 0.999 . S
H1589 C1570 0.913 . S
H1590 C1608 0.951 . S
H1591 C1610 0.951 . S
H1592 C1612 0.950 . S
H1593 C1613 0.950 . S
H1594 C1615 0.950 . S
H1595 C1618 0.950 . S
H1596 C1619 0.950 . S
H1597 C1621 0.950 . S
H1598 C1622 0.950 . S
H1599 C1623 0.951 . S
H1600 C1625 0.951 . S
H1601 C1627 0.950 . S
H1602 C1628 0.950 . S
H1603 C1630 0.950 . S
H1604 C1633 0.950 . S
H1605 C1634 0.950 . S
H1606 C1636 0.950 . S
H1607 C1637 0.931 1_655 S
C1608 H1590 0.951 . S
C1608 C1609 1.366 . S
C1608 C1610 1.388 . S
C1609 C1608 1.366 . S
C1609 C1613 1.385 . S
C1610 H1591 0.951 . S
C1610 C1608 1.388 . S
C1610 C1611 1.366 . S
C1611 C1610 1.366 . S
C1611 C1612 1.414 . S
C1611 C1614 1.499 . S
C1612 H1592 0.950 . S
C1612 C1611 1.414 . S
C1612 C1613 1.374 . S
C1613 H1593 0.950 . S
C1613 C1609 1.385 . S
C1613 C1612 1.374 . S
C1614 C1611 1.499 . S
C1614 C1615 1.373 . S
C1614 C1616 1.389 . S
C1615 H1594 0.950 . S
C1615 C1614 1.373 . S
C1615 C1631 1.377 1_655 S
C1616 C1614 1.389 . S
C1616 C1617 1.524 . S
C1616 C1630 1.377 1_655 S
C1617 C1616 1.524 . S
C1617 C1618 1.397 . S
C1617 C1622 1.363 . S
C1618 H1595 0.950 . S
C1618 C1617 1.397 . S
C1618 C1619 1.334 . S
C1619 H1596 0.950 . S
C1619 C1618 1.334 . S
C1619 C1620 1.287 . S
C1620 C1619 1.287 . S
C1620 C1621 1.524 . S
C1620 H1639 0.913 . S
C1621 H1597 0.950 . S
C1621 C1620 1.524 . S
C1621 C1622 1.415 . S
C1622 H1598 0.950 . S
C1622 C1617 1.363 . S
C1622 C1621 1.415 . S
C1623 H1599 0.951 . S
C1623 C1624 1.366 . S
C1623 C1625 1.388 . S
C1624 C1623 1.366 . S
C1624 C1628 1.385 . S
C1625 H1600 0.951 . S
C1625 C1623 1.388 . S
C1625 C1626 1.366 . S
C1626 C1625 1.366 . S
C1626 C1627 1.414 . S
C1626 C1629 1.499 . S
C1627 H1601 0.950 . S
C1627 C1626 1.414 . S
C1627 C1628 1.374 . S
C1628 H1602 0.950 . S
C1628 C1624 1.385 . S
C1628 C1627 1.374 . S
C1629 C1626 1.499 . S
C1629 C1630 1.373 . S
C1629 C1631 1.389 . S
C1630 H1603 0.950 . S
C1630 C1616 1.377 1_455 S
C1630 C1629 1.373 . S
C1631 C1615 1.377 1_455 S
C1631 C1629 1.389 . S
C1631 C1632 1.524 . S
C1632 C1631 1.524 . S
C1632 C1633 1.397 . S
C1632 C1637 1.363 . S
C1633 H1604 0.950 . S
C1633 C1632 1.397 . S
C1633 C1634 1.334 . S
C1634 H1605 0.950 . S
C1634 C1633 1.334 . S
C1634 C1635 1.287 . S
C1635 C1634 1.287 . S
C1635 C1636 1.524 . S
C1635 H1638 0.999 . S
C1636 H1606 0.950 . S
C1636 C1635 1.524 . S
C1636 C1637 1.415 . S
C1637 H1607 0.931 1_455 S
C1637 C1632 1.363 . S
C1637 C1636 1.415 . S
H1638 C1635 0.999 . S
H1639 C1620 0.913 . S
H1640 C1658 0.951 . S
H1641 C1660 0.951 . S
H1642 C1662 0.950 . S
H1643 C1663 0.950 . S
H1644 C1665 0.950 . S
H1645 C1668 0.950 . S
H1646 C1669 0.950 . S
H1647 C1671 0.950 . S
H1648 C1672 0.950 . S
H1649 C1673 0.951 . S
H1650 C1675 0.951 . S
H1651 C1677 0.950 . S
H1652 C1678 0.950 . S
H1653 C1680 0.950 . S
H1654 C1683 0.950 . S
H1655 C1684 0.950 . S
H1656 C1686 0.950 . S
H1657 C1687 0.950 . S
C1658 H1640 0.951 . S
C1658 C1659 1.366 . S
C1658 C1660 1.388 . S
C1659 C1658 1.366 . S
C1659 C1663 1.385 . S
C1660 H1641 0.951 . S
C1660 C1658 1.388 . S
C1660 C1661 1.366 . S
C1661 C1660 1.366 . S
C1661 C1662 1.414 . S
C1661 C1664 1.499 . S
C1662 H1642 0.950 . S
C1662 C1661 1.414 . S
C1662 C1663 1.374 . S
C1663 H1643 0.950 . S
C1663 C1659 1.385 . S
C1663 C1662 1.374 . S
C1664 C1661 1.499 . S
C1664 C1665 1.373 . S
C1664 C1666 1.389 . S
C1665 H1644 0.950 . S
C1665 C1664 1.373 . S
C1665 C1681 1.377 . S
C1666 C1664 1.389 . S
C1666 C1667 1.524 . S
C1666 C1680 1.377 . S
C1667 C1666 1.524 . S
C1667 C1668 1.397 . S
C1667 C1672 1.363 . S
C1668 H1645 0.950 . S
C1668 C1667 1.397 . S
C1668 C1669 1.334 . S
C1669 H1646 0.950 . S
C1669 C1668 1.334 . S
C1669 C1670 1.287 . S
C1670 C1669 1.287 . S
C1670 C1671 1.524 . S
C1670 H1689 0.913 . S
C1671 H1647 0.950 . S
C1671 C1670 1.524 . S
C1671 C1672 1.415 . S
C1672 H1648 0.950 . S
C1672 C1667 1.363 . S
C1672 C1671 1.415 . S
C1673 H1649 0.951 . S
C1673 C1674 1.366 . S
C1673 C1675 1.388 . S
C1674 C1673 1.366 . S
C1674 C1678 1.385 . S
C1675 H1650 0.951 . S
C1675 C1673 1.388 . S
C1675 C1676 1.366 . S
C1676 C1675 1.366 . S
C1676 C1677 1.414 . S
C1676 C1679 1.499 . S
C1677 H1651 0.950 . S
C1677 C1676 1.414 . S
C1677 C1678 1.374 . S
C1678 H1652 0.950 . S
C1678 C1674 1.385 . S
C1678 C1677 1.374 . S
C1679 C1676 1.499 . S
C1679 C1680 1.373 . S
C1679 C1681 1.389 . S
C1680 H1653 0.950 . S
C1680 C1666 1.377 . S
C1680 C1679 1.373 . S
C1681 C1665 1.377 . S
C1681 C1679 1.389 . S
C1681 C1682 1.524 . S
C1682 C1681 1.524 . S
C1682 C1683 1.397 . S
C1682 C1687 1.363 . S
C1683 H1654 0.950 . S
C1683 C1682 1.397 . S
C1683 C1684 1.334 . S
C1684 H1655 0.950 . S
C1684 C1683 1.334 . S
C1684 C1685 1.287 . S
C1685 C1684 1.287 . S
C1685 C1686 1.524 . S
C1685 H1688 0.999 . S
C1686 H1656 0.950 . S
C1686 C1685 1.524 . S
C1686 C1687 1.415 . S
C1687 H1657 0.950 . S
C1687 C1682 1.363 . S
C1687 C1686 1.415 . S
H1688 C1685 0.999 . S
H1689 C1670 0.913 . S
H1690 C1708 0.951 . S
H1691 C1710 0.951 . S
H1692 C1712 0.950 . S
H1693 C1713 0.950 . S
H1694 C1715 0.950 . S
H1695 C1718 0.950 . S
H1696 C1719 0.950 . S
H1697 C1721 0.950 . S
H1698 C1722 0.950 . S
H1699 C1723 0.951 . S
H1700 C1725 0.951 . S
H1701 C1727 0.950 . S
H1702 C1728 0.950 . S
H1703 C1730 0.950 . S
H1704 C1733 0.950 . S
H1705 C1734 0.950 . S
H1706 C1736 0.950 . S
H1707 C1737 0.950 . S
C1708 H1690 0.951 . S
C1708 C1709 1.366 . S
C1708 C1710 1.388 . S
C1709 C1708 1.366 . S
C1709 C1713 1.385 . S
C1710 H1691 0.951 . S
C1710 C1708 1.388 . S
C1710 C1711 1.366 . S
C1711 C1710 1.366 . S
C1711 C1712 1.414 . S
C1711 C1714 1.499 . S
C1712 H1692 0.950 . S
C1712 C1711 1.414 . S
C1712 C1713 1.374 . S
C1713 H1693 0.950 . S
C1713 C1709 1.385 . S
C1713 C1712 1.374 . S
C1714 C1711 1.499 . S
C1714 C1715 1.373 . S
C1714 C1716 1.389 . S
C1715 H1694 0.950 . S
C1715 C1714 1.373 . S
C1715 C1731 1.377 1_455 S
C1716 C1714 1.389 . S
C1716 C1717 1.524 . S
C1716 C1730 1.377 1_455 S
C1717 C1716 1.524 . S
C1717 C1718 1.397 . S
C1717 C1722 1.363 . S
C1718 H1695 0.950 . S
C1718 C1717 1.397 . S
C1718 C1719 1.334 . S
C1719 H1696 0.950 . S
C1719 C1718 1.334 . S
C1719 C1720 1.287 . S
C1720 C1719 1.287 . S
C1720 C1721 1.524 . S
C1720 H1739 0.913 . S
C1721 H1697 0.950 . S
C1721 C1720 1.524 . S
C1721 C1722 1.415 . S
C1722 H1698 0.950 . S
C1722 C1717 1.363 . S
C1722 C1721 1.415 . S
C1723 H1699 0.951 . S
C1723 C1724 1.366 . S
C1723 C1725 1.388 . S
C1724 C1723 1.366 . S
C1724 C1728 1.385 . S
C1725 H1700 0.951 . S
C1725 C1723 1.388 . S
C1725 C1726 1.366 . S
C1726 C1725 1.366 . S
C1726 C1727 1.414 . S
C1726 C1729 1.499 . S
C1727 H1701 0.950 . S
C1727 C1726 1.414 . S
C1727 C1728 1.374 . S
C1728 H1702 0.950 . S
C1728 C1724 1.385 . S
C1728 C1727 1.374 . S
C1729 C1726 1.499 . S
C1729 C1730 1.373 . S
C1729 C1731 1.389 . S
C1730 H1703 0.950 . S
C1730 C1716 1.377 1_655 S
C1730 C1729 1.373 . S
C1731 C1715 1.377 1_655 S
C1731 C1729 1.389 . S
C1731 C1732 1.524 . S
C1732 C1731 1.524 . S
C1732 C1733 1.397 . S
C1732 C1737 1.363 . S
C1733 H1704 0.950 . S
C1733 C1732 1.397 . S
C1733 C1734 1.334 . S
C1734 H1705 0.950 . S
C1734 C1733 1.334 . S
C1734 C1735 1.287 . S
C1735 C1734 1.287 . S
C1735 C1736 1.524 . S
C1735 H1738 0.999 . S
C1736 H1706 0.950 . S
C1736 C1735 1.524 . S
C1736 C1737 1.415 . S
C1737 H1707 0.950 . S
C1737 C1732 1.363 . S
C1737 C1736 1.415 . S
H1738 C1735 0.999 . S
H1739 C1720 0.913 . S
H1740 C1758 0.951 . S
H1741 C1760 0.951 . S
H1742 C1762 0.950 . S
H1743 C1763 0.950 . S
H1744 C1765 0.950 . S
H1745 C1768 0.950 . S
H1746 C1769 0.950 . S
H1747 C1771 0.950 . S
H1748 C1772 0.950 . S
H1749 C1773 0.951 . S
H1750 C1775 0.951 . S
H1751 C1777 0.950 . S
H1752 C1778 0.950 . S
H1753 C1780 0.950 . S
H1754 C1783 0.950 . S
H1755 C1784 0.950 . S
H1756 C1786 0.950 . S
H1757 C1787 0.950 . S
C1758 H1740 0.951 . S
C1758 C1759 1.366 . S
C1758 C1760 1.388 . S
C1759 C1758 1.366 . S
C1759 C1763 1.385 . S
C1760 H1741 0.951 . S
C1760 C1758 1.388 . S
C1760 C1761 1.366 . S
C1761 C1760 1.366 . S
C1761 C1762 1.414 . S
C1761 C1764 1.499 . S
C1762 H1742 0.950 . S
C1762 C1761 1.414 . S
C1762 C1763 1.374 . S
C1763 H1743 0.950 . S
C1763 C1759 1.385 . S
C1763 C1762 1.374 . S
C1764 C1761 1.499 . S
C1764 C1765 1.373 . S
C1764 C1766 1.389 . S
C1765 H1744 0.950 . S
C1765 C1764 1.373 . S
C1765 C1781 1.377 . S
C1766 C1764 1.389 . S
C1766 C1767 1.524 . S
C1766 C1780 1.377 . S
C1767 C1766 1.524 . S
C1767 C1768 1.397 . S
C1767 C1772 1.363 . S
C1768 H1745 0.950 . S
C1768 C1767 1.397 . S
C1768 C1769 1.334 . S
C1769 H1746 0.950 . S
C1769 C1768 1.334 . S
C1769 C1770 1.287 . S
C1770 C1769 1.287 . S
C1770 C1771 1.524 . S
C1770 H1789 0.913 . S
C1771 H1747 0.950 . S
C1771 C1770 1.524 . S
C1771 C1772 1.415 . S
C1772 H1748 0.950 . S
C1772 C1767 1.363 . S
C1772 C1771 1.415 . S
C1773 H1749 0.951 . S
C1773 C1774 1.366 . S
C1773 C1775 1.388 . S
C1774 C1773 1.366 . S
C1774 C1778 1.385 . S
C1775 H1750 0.951 . S
C1775 C1773 1.388 . S
C1775 C1776 1.366 . S
C1776 C1775 1.366 . S
C1776 C1777 1.414 . S
C1776 C1779 1.499 . S
C1777 H1751 0.950 . S
C1777 C1776 1.414 . S
C1777 C1778 1.374 . S
C1778 H1752 0.950 . S
C1778 C1774 1.385 . S
C1778 C1777 1.374 . S
C1779 C1776 1.499 . S
C1779 C1780 1.373 . S
C1779 C1781 1.389 . S
C1780 H1753 0.950 . S
C1780 C1766 1.377 . S
C1780 C1779 1.373 . S
C1781 C1765 1.377 . S
C1781 C1779 1.389 . S
C1781 C1782 1.524 . S
C1782 C1781 1.524 . S
C1782 C1783 1.397 . S
C1782 C1787 1.363 . S
C1783 H1754 0.950 . S
C1783 C1782 1.397 . S
C1783 C1784 1.334 . S
C1784 H1755 0.950 . S
C1784 C1783 1.334 . S
C1784 C1785 1.287 . S
C1785 C1784 1.287 . S
C1785 C1786 1.524 . S
C1785 H1788 0.999 . S
C1786 H1756 0.950 . S
C1786 C1785 1.524 . S
C1786 C1787 1.415 . S
C1787 H1757 0.950 . S
C1787 C1782 1.363 . S
C1787 C1786 1.415 . S
H1788 C1785 0.999 . S
H1789 C1770 0.913 . S
H1790 C1808 0.951 . S
H1791 C1810 0.951 . S
H1792 C1812 0.950 . S
H1793 C1813 0.950 . S
H1794 C1815 0.950 . S
H1795 C1818 0.950 . S
H1796 C1819 0.950 . S
H1797 C1821 0.950 . S
H1798 C1822 0.950 . S
H1799 C1823 0.951 . S
H1800 C1825 0.951 . S
H1801 C1827 0.950 . S
H1802 C1828 0.950 . S
H1803 C1830 0.950 . S
H1804 C1833 0.950 . S
H1805 C1834 0.950 . S
H1806 C1836 0.950 . S
H1807 C1837 0.950 . S
C1808 H1790 0.951 . S
C1808 C1809 1.366 . S
C1808 C1810 1.388 . S
C1809 C1808 1.366 . S
C1809 C1813 1.385 . S
C1810 H1791 0.951 . S
C1810 C1808 1.388 . S
C1810 C1811 1.366 . S
C1811 C1810 1.366 . S
C1811 C1812 1.414 . S
C1811 C1814 1.499 . S
C1812 H1792 0.950 . S
C1812 C1811 1.414 . S
C1812 C1813 1.374 . S
C1813 H1793 0.950 . S
C1813 C1809 1.385 . S
C1813 C1812 1.374 . S
C1814 C1811 1.499 . S
C1814 C1815 1.373 . S
C1814 C1816 1.389 . S
C1815 H1794 0.950 . S
C1815 C1814 1.373 . S
C1815 C1831 1.377 . S
C1816 C1814 1.389 . S
C1816 C1817 1.524 . S
C1816 C1830 1.377 . S
C1817 C1816 1.524 . S
C1817 C1818 1.397 . S
C1817 C1822 1.363 . S
C1818 H1795 0.950 . S
C1818 C1817 1.397 . S
C1818 C1819 1.334 . S
C1819 H1796 0.950 . S
C1819 C1818 1.334 . S
C1819 C1820 1.287 . S
C1820 C1819 1.287 . S
C1820 C1821 1.524 . S
C1820 H1839 0.913 . S
C1821 H1797 0.950 . S
C1821 C1820 1.524 . S
C1821 C1822 1.415 . S
C1822 H1798 0.950 . S
C1822 C1817 1.363 . S
C1822 C1821 1.415 . S
C1823 H1799 0.951 . S
C1823 C1824 1.366 . S
C1823 C1825 1.388 . S
C1824 C1823 1.366 . S
C1824 C1828 1.385 . S
C1825 H1800 0.951 . S
C1825 C1823 1.388 . S
C1825 C1826 1.366 . S
C1826 C1825 1.366 . S
C1826 C1827 1.414 . S
C1826 C1829 1.499 . S
C1827 H1801 0.950 . S
C1827 C1826 1.414 . S
C1827 C1828 1.374 . S
C1828 H1802 0.950 . S
C1828 C1824 1.385 . S
C1828 C1827 1.374 . S
C1829 C1826 1.499 . S
C1829 C1830 1.373 . S
C1829 C1831 1.389 . S
C1830 H1803 0.950 . S
C1830 C1816 1.377 . S
C1830 C1829 1.373 . S
C1831 C1815 1.377 . S
C1831 C1829 1.389 . S
C1831 C1832 1.524 . S
C1832 C1831 1.524 . S
C1832 C1833 1.397 . S
C1832 C1837 1.363 . S
C1833 H1804 0.950 . S
C1833 C1832 1.397 . S
C1833 C1834 1.334 . S
C1834 H1805 0.950 . S
C1834 C1833 1.334 . S
C1834 C1835 1.287 . S
C1835 C1834 1.287 . S
C1835 C1836 1.524 . S
C1835 H1838 0.999 . S
C1836 H1806 0.950 . S
C1836 C1835 1.524 . S
C1836 C1837 1.415 . S
C1837 H1807 0.950 . S
C1837 C1832 1.363 . S
C1837 C1836 1.415 . S
H1838 C1835 0.999 . S
H1839 C1820 0.913 . S
H1840 C1858 0.951 . S
H1841 C1860 0.951 . S
H1842 C1862 0.950 . S
H1843 C1863 0.950 . S
H1844 C1865 0.950 . S
H1845 C1868 0.950 . S
H1846 C1869 0.950 . S
H1847 C1871 0.950 . S
H1848 C1872 0.950 . S
H1849 C1873 0.951 . S
H1850 C1875 0.951 . S
H1851 C1877 0.950 . S
H1852 C1878 0.950 . S
H1853 C1880 0.950 . S
H1854 C1883 0.950 . S
H1855 C1884 0.950 . S
H1856 C1886 0.950 . S
H1857 C1887 0.950 . S
C1858 H1840 0.951 . S
C1858 C1859 1.366 . S
C1858 C1860 1.388 . S
C1859 C1858 1.366 . S
C1859 C1863 1.385 . S
C1860 H1841 0.951 . S
C1860 C1858 1.388 . S
C1860 C1861 1.366 . S
C1861 C1860 1.366 . S
C1861 C1862 1.414 . S
C1861 C1864 1.499 . S
C1862 H1842 0.950 . S
C1862 C1861 1.414 . S
C1862 C1863 1.374 . S
C1863 H1843 0.950 . S
C1863 C1859 1.385 . S
C1863 C1862 1.374 . S
C1864 C1861 1.499 . S
C1864 C1865 1.373 . S
C1864 C1866 1.389 . S
C1865 H1844 0.950 . S
C1865 C1864 1.373 . S
C1865 C1881 1.377 . S
C1866 C1864 1.389 . S
C1866 C1867 1.524 . S
C1866 C1880 1.377 . S
C1867 C1866 1.524 . S
C1867 C1868 1.397 . S
C1867 C1872 1.363 . S
C1868 H1845 0.950 . S
C1868 C1867 1.397 . S
C1868 C1869 1.334 . S
C1869 H1846 0.950 . S
C1869 C1868 1.334 . S
C1869 C1870 1.287 . S
C1870 C1869 1.287 . S
C1870 C1871 1.524 . S
C1870 H1889 0.913 . S
C1871 H1847 0.950 . S
C1871 C1870 1.524 . S
C1871 C1872 1.415 . S
C1872 H1848 0.950 . S
C1872 C1867 1.363 . S
C1872 C1871 1.415 . S
C1873 H1849 0.951 . S
C1873 C1874 1.366 . S
C1873 C1875 1.388 . S
C1874 C1873 1.366 . S
C1874 C1878 1.385 . S
C1875 H1850 0.951 . S
C1875 C1873 1.388 . S
C1875 C1876 1.366 . S
C1876 C1875 1.366 . S
C1876 C1877 1.414 . S
C1876 C1879 1.499 . S
C1877 H1851 0.950 . S
C1877 C1876 1.414 . S
C1877 C1878 1.374 . S
C1878 H1852 0.950 . S
C1878 C1874 1.385 . S
C1878 C1877 1.374 . S
C1879 C1876 1.499 . S
C1879 C1880 1.373 . S
C1879 C1881 1.389 . S
C1880 H1853 0.950 . S
C1880 C1866 1.377 . S
C1880 C1879 1.373 . S
C1881 C1865 1.377 . S
C1881 C1879 1.389 . S
C1881 C1882 1.524 . S
C1882 C1881 1.524 . S
C1882 C1883 1.397 . S
C1882 C1887 1.363 . S
C1883 H1854 0.950 . S
C1883 C1882 1.397 . S
C1883 C1884 1.334 . S
C1884 H1855 0.950 . S
C1884 C1883 1.334 . S
C1884 C1885 1.287 . S
C1885 C1884 1.287 . S
C1885 C1886 1.524 . S
C1885 H1888 0.999 . S
C1886 H1856 0.950 . S
C1886 C1885 1.524 . S
C1886 C1887 1.415 . S
C1887 H1857 0.950 . S
C1887 C1882 1.363 . S
C1887 C1886 1.415 . S
H1888 C1885 0.999 . S
H1889 C1870 0.913 . S
H1890 C1908 0.951 . S
H1891 C1910 0.951 . S
H1892 C1912 0.950 . S
H1893 C1913 0.950 . S
H1894 C1915 0.950 . S
H1895 C1918 0.950 . S
H1896 C1919 0.950 . S
H1897 C1921 0.950 . S
H1898 C1922 0.950 . S
H1899 C1923 0.951 . S
H1900 C1925 0.951 . S
H1901 C1927 0.950 . S
H1902 C1928 0.950 . S
H1903 C1930 0.950 . S
H1904 C1933 0.950 . S
H1905 C1934 0.950 . S
H1906 C1936 0.950 . S
H1907 C1937 0.950 . S
C1908 H1890 0.951 . S
C1908 C1909 1.366 . S
C1908 C1910 1.388 . S
C1909 C1908 1.366 . S
C1909 C1913 1.385 . S
C1910 H1891 0.951 . S
C1910 C1908 1.388 . S
C1910 C1911 1.366 . S
C1911 C1910 1.366 . S
C1911 C1912 1.414 . S
C1911 C1914 1.499 . S
C1912 H1892 0.950 . S
C1912 C1911 1.414 . S
C1912 C1913 1.374 . S
C1913 H1893 0.950 . S
C1913 C1909 1.385 . S
C1913 C1912 1.374 . S
C1914 C1911 1.499 . S
C1914 C1915 1.373 . S
C1914 C1916 1.389 . S
C1915 H1894 0.950 . S
C1915 C1914 1.373 . S
C1915 C1931 1.377 . S
C1916 C1914 1.389 . S
C1916 C1917 1.524 . S
C1916 C1930 1.377 . S
C1917 C1916 1.524 . S
C1917 C1918 1.397 . S
C1917 C1922 1.363 . S
C1918 H1895 0.950 . S
C1918 C1917 1.397 . S
C1918 C1919 1.334 . S
C1919 H1896 0.950 . S
C1919 C1918 1.334 . S
C1919 C1920 1.287 . S
C1920 C1919 1.287 . S
C1920 C1921 1.524 . S
C1920 H1939 0.913 . S
C1921 H1897 0.950 . S
C1921 C1920 1.524 . S
C1921 C1922 1.415 . S
C1922 H1898 0.950 . S
C1922 C1917 1.363 . S
C1922 C1921 1.415 . S
C1923 H1899 0.951 . S
C1923 C1924 1.366 . S
C1923 C1925 1.388 . S
C1924 C1923 1.366 . S
C1924 C1928 1.385 . S
C1925 H1900 0.951 . S
C1925 C1923 1.388 . S
C1925 C1926 1.366 . S
C1926 C1925 1.366 . S
C1926 C1927 1.414 . S
C1926 C1929 1.499 . S
C1927 H1901 0.950 . S
C1927 C1926 1.414 . S
C1927 C1928 1.374 . S
C1928 H1902 0.950 . S
C1928 C1924 1.385 . S
C1928 C1927 1.374 . S
C1929 C1926 1.499 . S
C1929 C1930 1.373 . S
C1929 C1931 1.389 . S
C1930 H1903 0.950 . S
C1930 C1916 1.377 . S
C1930 C1929 1.373 . S
C1931 C1915 1.377 . S
C1931 C1929 1.389 . S
C1931 C1932 1.524 . S
C1932 C1931 1.524 . S
C1932 C1933 1.397 . S
C1932 C1937 1.363 . S
C1933 H1904 0.950 . S
C1933 C1932 1.397 . S
C1933 C1934 1.334 . S
C1934 H1905 0.950 . S
C1934 C1933 1.334 . S
C1934 C1935 1.287 . S
C1935 C1934 1.287 . S
C1935 C1936 1.524 . S
C1935 H1938 0.999 . S
C1936 H1906 0.950 . S
C1936 C1935 1.524 . S
C1936 C1937 1.415 . S
C1937 H1907 0.950 . S
C1937 C1932 1.363 . S
C1937 C1936 1.415 . S
H1938 C1935 0.999 . S
H1939 C1920 0.913 . S
H1940 C1958 0.951 . S
H1941 C1960 0.951 . S
H1942 C1962 0.950 . S
H1943 C1963 0.950 . S
H1944 C1965 0.950 . S
H1945 C1968 0.950 . S
H1946 C1969 0.950 . S
H1947 C1971 0.950 . S
H1948 C1972 0.950 . S
H1949 C1973 0.951 . S
H1950 C1975 0.951 . S
H1951 C1977 0.950 . S
H1952 C1978 0.950 . S
H1953 C1980 0.950 . S
H1954 C1983 0.950 . S
H1955 C1984 0.950 . S
H1956 C1986 0.950 . S
H1957 C1987 0.950 . S
C1958 H1940 0.951 . S
C1958 C1959 1.366 . S
C1958 C1960 1.388 . S
C1959 C1958 1.366 . S
C1959 C1963 1.385 . S
C1960 H1941 0.951 . S
C1960 C1958 1.388 . S
C1960 C1961 1.366 . S
C1961 C1960 1.366 . S
C1961 C1962 1.414 . S
C1961 C1964 1.499 . S
C1962 H1942 0.950 . S
C1962 C1961 1.414 . S
C1962 C1963 1.374 . S
C1963 H1943 0.950 . S
C1963 C1959 1.385 . S
C1963 C1962 1.374 . S
C1964 C1961 1.499 . S
C1964 C1965 1.373 . S
C1964 C1966 1.389 . S
C1965 H1944 0.950 . S
C1965 C1964 1.373 . S
C1965 C1981 1.377 . S
C1966 C1964 1.389 . S
C1966 C1967 1.524 . S
C1966 C1980 1.377 . S
C1967 C1966 1.524 . S
C1967 C1968 1.397 . S
C1967 C1972 1.363 . S
C1968 H1945 0.950 . S
C1968 C1967 1.397 . S
C1968 C1969 1.334 . S
C1969 H1946 0.950 . S
C1969 C1968 1.334 . S
C1969 C1970 1.287 . S
C1970 C1969 1.287 . S
C1970 C1971 1.524 . S
C1970 H1989 0.913 . S
C1971 H1947 0.950 . S
C1971 C1970 1.524 . S
C1971 C1972 1.415 . S
C1972 H1948 0.950 . S
C1972 C1967 1.363 . S
C1972 C1971 1.415 . S
C1973 H1949 0.951 . S
C1973 C1974 1.366 . S
C1973 C1975 1.388 . S
C1974 C1973 1.366 . S
C1974 C1978 1.385 . S
C1975 H1950 0.951 . S
C1975 C1973 1.388 . S
C1975 C1976 1.366 . S
C1976 C1975 1.366 . S
C1976 C1977 1.414 . S
C1976 C1979 1.499 . S
C1977 H1951 0.950 . S
C1977 C1976 1.414 . S
C1977 C1978 1.374 . S
C1978 H1952 0.950 . S
C1978 C1974 1.385 . S
C1978 C1977 1.374 . S
C1979 C1976 1.499 . S
C1979 C1980 1.373 . S
C1979 C1981 1.389 . S
C1980 H1953 0.950 . S
C1980 C1966 1.377 . S
C1980 C1979 1.373 . S
C1981 C1965 1.377 . S
C1981 C1979 1.389 . S
C1981 C1982 1.524 . S
C1982 C1981 1.524 . S
C1982 C1983 1.397 . S
C1982 C1987 1.363 . S
C1983 H1954 0.950 . S
C1983 C1982 1.397 . S
C1983 C1984 1.334 . S
C1984 H1955 0.950 . S
C1984 C1983 1.334 . S
C1984 C1985 1.287 . S
C1985 C1984 1.287 . S
C1985 C1986 1.524 . S
C1985 H1988 0.999 . S
C1986 H1956 0.950 . S
C1986 C1985 1.524 . S
C1986 C1987 1.415 . S
C1987 H1957 0.950 . S
C1987 C1982 1.363 . S
C1987 C1986 1.415 . S
H1988 C1985 0.999 . S
H1989 C1970 0.913 . S
H1990 C2008 0.951 . S
H1991 C2010 0.951 . S
H1992 C2012 0.950 . S
H1993 C2013 0.950 . S
H1994 C2015 0.950 . S
H1995 C2018 0.950 . S
H1996 C2019 0.950 . S
H1997 C2021 0.950 . S
H1998 C2022 0.950 . S
H1999 C2023 0.951 . S
H2000 C2025 0.951 . S
H2001 C2027 0.950 . S
H2002 C2028 0.950 . S
H2003 C2030 0.950 . S
H2004 C2033 0.950 . S
H2005 C2034 0.950 . S
H2006 C2036 0.950 . S
H2007 C2037 0.950 . S
C2008 H1990 0.951 . S
C2008 C2009 1.366 . S
C2008 C2010 1.388 . S
C2009 C2008 1.366 . S
C2009 C2013 1.385 . S
C2010 H1991 0.951 . S
C2010 C2008 1.388 . S
C2010 C2011 1.366 . S
C2011 C2010 1.366 . S
C2011 C2012 1.414 . S
C2011 C2014 1.499 . S
C2012 H1992 0.950 . S
C2012 C2011 1.414 . S
C2012 C2013 1.374 . S
C2013 H1993 0.950 . S
C2013 C2009 1.385 . S
C2013 C2012 1.374 . S
C2014 C2011 1.499 . S
C2014 C2015 1.373 . S
C2014 C2016 1.389 . S
C2015 H1994 0.950 . S
C2015 C2014 1.373 . S
C2015 C2031 1.377 . S
C2016 C2014 1.389 . S
C2016 C2017 1.524 . S
C2016 C2030 1.377 . S
C2017 C2016 1.524 . S
C2017 C2018 1.397 . S
C2017 C2022 1.363 . S
C2018 H1995 0.950 . S
C2018 C2017 1.397 . S
C2018 C2019 1.334 . S
C2019 H1996 0.950 . S
C2019 C2018 1.334 . S
C2019 C2020 1.287 . S
C2020 C2019 1.287 . S
C2020 C2021 1.524 . S
C2020 H2039 0.913 . S
C2021 H1997 0.950 . S
C2021 C2020 1.524 . S
C2021 C2022 1.415 . S
C2022 H1998 0.950 . S
C2022 C2017 1.363 . S
C2022 C2021 1.415 . S
C2023 H1999 0.951 . S
C2023 C2024 1.366 . S
C2023 C2025 1.388 . S
C2024 C2023 1.366 . S
C2024 C2028 1.385 . S
C2025 H2000 0.951 . S
C2025 C2023 1.388 . S
C2025 C2026 1.366 . S
C2026 C2025 1.366 . S
C2026 C2027 1.414 . S
C2026 C2029 1.499 . S
C2027 H2001 0.950 . S
C2027 C2026 1.414 . S
C2027 C2028 1.374 . S
C2028 H2002 0.950 . S
C2028 C2024 1.385 . S
C2028 C2027 1.374 . S
C2029 C2026 1.499 . S
C2029 C2030 1.373 . S
C2029 C2031 1.389 . S
C2030 H2003 0.950 . S
C2030 C2016 1.377 . S
C2030 C2029 1.373 . S
C2031 C2015 1.377 . S
C2031 C2029 1.389 . S
C2031 C2032 1.524 . S
C2032 C2031 1.524 . S
C2032 C2033 1.397 . S
C2032 C2037 1.363 . S
C2033 H2004 0.950 . S
C2033 C2032 1.397 . S
C2033 C2034 1.334 . S
C2034 H2005 0.950 . S
C2034 C2033 1.334 . S
C2034 C2035 1.287 . S
C2035 C2034 1.287 . S
C2035 C2036 1.524 . S
C2035 H2038 0.999 . S
C2036 H2006 0.950 . S
C2036 C2035 1.524 . S
C2036 C2037 1.415 . S
C2037 H2007 0.950 . S
C2037 C2032 1.363 . S
C2037 C2036 1.415 . S
H2038 C2035 0.999 . S
H2039 C2020 0.913 . S
H2040 C2058 0.951 . S
H2041 C2060 0.951 . S
H2042 C2062 0.950 . S
H2043 C2063 0.950 . S
H2044 C2065 0.950 . S
H2045 C2068 0.950 . S
H2046 C2069 0.950 . S
H2047 C2071 0.950 . S
H2048 C2072 0.950 . S
H2049 C2073 0.951 . S
H2050 C2075 0.951 . S
H2051 C2077 0.950 . S
H2052 C2078 0.950 . S
H2053 C2080 0.950 . S
H2054 C2083 0.950 . S
H2055 C2084 0.950 . S
H2056 C2086 0.950 1_554 S
H2057 C2087 0.950 . S
C2058 H2040 0.951 . S
C2058 C2059 1.366 . S
C2058 C2060 1.388 . S
C2059 C2058 1.366 . S
C2059 C2063 1.385 . S
C2060 H2041 0.951 . S
C2060 C2058 1.388 . S
C2060 C2061 1.366 . S
C2061 C2060 1.366 . S
C2061 C2062 1.414 . S
C2061 C2064 1.499 . S
C2062 H2042 0.950 . S
C2062 C2061 1.414 . S
C2062 C2063 1.374 . S
C2063 H2043 0.950 . S
C2063 C2059 1.385 . S
C2063 C2062 1.374 . S
C2064 C2061 1.499 . S
C2064 C2065 1.373 . S
C2064 C2066 1.389 . S
C2065 H2044 0.950 . S
C2065 C2064 1.373 . S
C2065 C2081 1.377 1_655 S
C2066 C2064 1.389 . S
C2066 C2067 1.524 . S
C2066 C2080 1.377 1_655 S
C2067 C2066 1.524 . S
C2067 C2068 1.397 . S
C2067 C2072 1.363 . S
C2068 H2045 0.950 . S
C2068 C2067 1.397 . S
C2068 C2069 1.334 . S
C2069 H2046 0.950 . S
C2069 C2068 1.334 . S
C2069 C2070 1.287 . S
C2070 C2069 1.287 . S
C2070 C2071 1.524 . S
C2070 H2089 0.913 . S
C2071 H2047 0.950 . S
C2071 C2070 1.524 . S
C2071 C2072 1.415 . S
C2072 H2048 0.950 . S
C2072 C2067 1.363 . S
C2072 C2071 1.415 . S
C2073 H2049 0.951 . S
C2073 C2074 1.366 . S
C2073 C2075 1.388 . S
C2074 C2073 1.366 . S
C2074 C2078 1.385 . S
C2075 H2050 0.951 . S
C2075 C2073 1.388 . S
C2075 C2076 1.366 . S
C2076 C2075 1.366 . S
C2076 C2077 1.414 . S
C2076 C2079 1.499 . S
C2077 H2051 0.950 . S
C2077 C2076 1.414 . S
C2077 C2078 1.374 . S
C2078 H2052 0.950 . S
C2078 C2074 1.385 . S
C2078 C2077 1.374 . S
C2079 C2076 1.499 . S
C2079 C2080 1.373 . S
C2079 C2081 1.389 . S
C2080 H2053 0.950 . S
C2080 C2066 1.377 1_455 S
C2080 C2079 1.373 . S
C2081 C2065 1.377 1_455 S
C2081 C2079 1.389 . S
C2081 C2082 1.524 . S
C2082 C2081 1.524 . S
C2082 C2083 1.397 . S
C2082 C2087 1.363 . S
C2083 H2054 0.950 . S
C2083 C2082 1.397 . S
C2083 C2084 1.334 . S
C2084 H2055 0.950 . S
C2084 C2083 1.334 . S
C2084 C2085 1.287 . S
C2085 C2084 1.287 . S
C2085 C2086 1.524 . S
C2085 H2088 0.999 1_556 S
C2086 H2056 0.950 1_556 S
C2086 C2085 1.524 . S
C2086 C2087 1.415 . S
C2087 H2057 0.950 . S
C2087 C2082 1.363 . S
C2087 C2086 1.415 . S
H2088 C2085 0.999 1_554 S
H2089 C2070 0.913 . S
H2090 C2108 0.951 . S
H2091 C2110 0.951 . S
H2092 C2112 0.950 . S
H2093 C2113 0.950 . S
H2094 C2115 0.950 . S
H2095 C2118 0.950 . S
H2096 C2119 0.950 . S
H2097 C2121 0.950 . S
H2098 C2122 0.950 . S
H2099 C2123 0.951 . S
H2100 C2125 0.951 . S
H2101 C2127 0.950 . S
H2102 C2128 0.950 . S
H2103 C2130 0.950 . S
H2104 C2133 0.950 . S
H2105 C2134 0.950 . S
H2106 C2136 0.950 . S
H2107 C2137 0.950 . S
C2108 H2090 0.951 . S
C2108 C2109 1.366 . S
C2108 C2110 1.388 . S
C2109 C2108 1.366 . S
C2109 C2113 1.385 . S
C2110 H2091 0.951 . S
C2110 C2108 1.388 . S
C2110 C2111 1.366 . S
C2111 C2110 1.366 . S
C2111 C2112 1.414 . S
C2111 C2114 1.499 . S
C2112 H2092 0.950 . S
C2112 C2111 1.414 . S
C2112 C2113 1.374 . S
C2113 H2093 0.950 . S
C2113 C2109 1.385 . S
C2113 C2112 1.374 . S
C2114 C2111 1.499 . S
C2114 C2115 1.373 . S
C2114 C2116 1.389 . S
C2115 H2094 0.950 . S
C2115 C2114 1.373 . S
C2115 C2131 1.377 . S
C2116 C2114 1.389 . S
C2116 C2117 1.524 . S
C2116 C2130 1.377 . S
C2117 C2116 1.524 . S
C2117 C2118 1.397 . S
C2117 C2122 1.363 . S
C2118 H2095 0.950 . S
C2118 C2117 1.397 . S
C2118 C2119 1.334 . S
C2119 H2096 0.950 . S
C2119 C2118 1.334 . S
C2119 C2120 1.287 . S
C2120 C2119 1.287 . S
C2120 C2121 1.524 . S
C2120 H2139 0.913 . S
C2121 H2097 0.950 . S
C2121 C2120 1.524 . S
C2121 C2122 1.415 . S
C2122 H2098 0.950 . S
C2122 C2117 1.363 . S
C2122 C2121 1.415 . S
C2123 H2099 0.951 . S
C2123 C2124 1.366 . S
C2123 C2125 1.388 . S
C2124 C2123 1.366 . S
C2124 C2128 1.385 . S
C2125 H2100 0.951 . S
C2125 C2123 1.388 . S
C2125 C2126 1.366 . S
C2126 C2125 1.366 . S
C2126 C2127 1.414 . S
C2126 C2129 1.499 . S
C2127 H2101 0.950 . S
C2127 C2126 1.414 . S
C2127 C2128 1.374 . S
C2128 H2102 0.950 . S
C2128 C2124 1.385 . S
C2128 C2127 1.374 . S
C2129 C2126 1.499 . S
C2129 C2130 1.373 . S
C2129 C2131 1.389 . S
C2130 H2103 0.950 . S
C2130 C2116 1.377 . S
C2130 C2129 1.373 . S
C2131 C2115 1.377 . S
C2131 C2129 1.389 . S
C2131 C2132 1.524 . S
C2132 C2131 1.524 . S
C2132 C2133 1.397 . S
C2132 C2137 1.363 . S
C2133 H2104 0.950 . S
C2133 C2132 1.397 . S
C2133 C2134 1.334 . S
C2134 H2105 0.950 . S
C2134 C2133 1.334 . S
C2134 C2135 1.287 . S
C2135 C2134 1.287 . S
C2135 C2136 1.524 . S
C2135 H2138 0.999 . S
C2136 H2106 0.950 . S
C2136 C2135 1.524 . S
C2136 C2137 1.415 . S
C2137 H2107 0.950 . S
C2137 C2132 1.363 . S
C2137 C2136 1.415 . S
H2138 C2135 0.999 . S
H2139 C2120 0.913 . S
H2140 C2158 0.951 . S
H2141 C2160 0.951 . S
H2142 C2162 0.950 . S
H2143 C2163 0.950 . S
H2144 C2165 0.950 . S
H2145 C2168 0.950 . S
H2146 C2169 0.950 . S
H2147 C2171 0.950 . S
H2148 C2172 0.950 . S
H2149 C2173 0.951 . S
H2150 C2175 0.951 . S
H2151 C2177 0.950 . S
H2152 C2178 0.950 . S
H2153 C2180 0.950 . S
H2154 C2183 0.950 . S
H2155 C2184 0.950 . S
H2156 C2186 0.950 . S
H2157 C2187 0.950 . S
C2158 H2140 0.951 . S
C2158 C2159 1.366 . S
C2158 C2160 1.388 . S
C2159 C2158 1.366 . S
C2159 C2163 1.385 . S
C2160 H2141 0.951 . S
C2160 C2158 1.388 . S
C2160 C2161 1.366 . S
C2161 C2160 1.366 . S
C2161 C2162 1.414 . S
C2161 C2164 1.499 . S
C2162 H2142 0.950 . S
C2162 C2161 1.414 . S
C2162 C2163 1.374 . S
C2163 H2143 0.950 . S
C2163 C2159 1.385 . S
C2163 C2162 1.374 . S
C2164 C2161 1.499 . S
C2164 C2165 1.373 . S
C2164 C2166 1.389 . S
C2165 H2144 0.950 . S
C2165 C2164 1.373 . S
C2165 C2181 1.377 . S
C2166 C2164 1.389 . S
C2166 C2167 1.524 . S
C2166 C2180 1.377 . S
C2167 C2166 1.524 . S
C2167 C2168 1.397 . S
C2167 C2172 1.363 . S
C2168 H2145 0.950 . S
C2168 C2167 1.397 . S
C2168 C2169 1.334 . S
C2169 H2146 0.950 . S
C2169 C2168 1.334 . S
C2169 C2170 1.287 . S
C2170 C2169 1.287 . S
C2170 C2171 1.524 . S
C2170 H2189 0.913 . S
C2171 H2147 0.950 . S
C2171 C2170 1.524 . S
C2171 C2172 1.415 . S
C2172 H2148 0.950 . S
C2172 C2167 1.363 . S
C2172 C2171 1.415 . S
C2173 H2149 0.951 . S
C2173 C2174 1.366 . S
C2173 C2175 1.388 . S
C2174 C2173 1.366 . S
C2174 C2178 1.385 . S
C2175 H2150 0.951 . S
C2175 C2173 1.388 . S
C2175 C2176 1.366 . S
C2176 C2175 1.366 . S
C2176 C2177 1.414 . S
C2176 C2179 1.499 . S
C2177 H2151 0.950 . S
C2177 C2176 1.414 . S
C2177 C2178 1.374 . S
C2178 H2152 0.950 . S
C2178 C2174 1.385 . S
C2178 C2177 1.374 . S
C2179 C2176 1.499 . S
C2179 C2180 1.373 . S
C2179 C2181 1.389 . S
C2180 H2153 0.950 . S
C2180 C2166 1.377 . S
C2180 C2179 1.373 . S
C2181 C2165 1.377 . S
C2181 C2179 1.389 . S
C2181 C2182 1.524 . S
C2182 C2181 1.524 . S
C2182 C2183 1.397 . S
C2182 C2187 1.363 . S
C2183 H2154 0.950 . S
C2183 C2182 1.397 . S
C2183 C2184 1.334 . S
C2184 H2155 0.950 . S
C2184 C2183 1.334 . S
C2184 C2185 1.287 . S
C2185 C2184 1.287 . S
C2185 C2186 1.524 . S
C2185 H2188 0.999 . S
C2186 H2156 0.950 . S
C2186 C2185 1.524 . S
C2186 C2187 1.415 . S
C2187 H2157 0.950 . S
C2187 C2182 1.363 . S
C2187 C2186 1.415 . S
H2188 C2185 0.999 . S
H2189 C2170 0.913 . S
H2190 C2208 0.951 . S
H2191 C2210 0.951 . S
H2192 C2212 0.950 . S
H2193 C2213 0.950 . S
H2194 C2215 0.950 . S
H2195 C2218 0.950 . S
H2196 C2219 0.950 . S
H2197 C2221 0.950 . S
H2198 C2222 0.950 . S
H2199 C2223 0.951 . S
H2200 C2225 0.951 . S
H2201 C2227 0.950 . S
H2202 C2228 0.950 . S
H2203 C2230 0.950 . S
H2204 C2233 0.950 . S
H2205 C2234 0.950 . S
H2206 C2236 0.950 . S
H2207 C2237 0.950 . S
C2208 H2190 0.951 . S
C2208 C2209 1.366 . S
C2208 C2210 1.388 . S
C2209 C2208 1.366 . S
C2209 C2213 1.385 . S
C2210 H2191 0.951 . S
C2210 C2208 1.388 . S
C2210 C2211 1.366 . S
C2211 C2210 1.366 . S
C2211 C2212 1.414 . S
C2211 C2214 1.499 . S
C2212 H2192 0.950 . S
C2212 C2211 1.414 . S
C2212 C2213 1.374 . S
C2213 H2193 0.950 . S
C2213 C2209 1.385 . S
C2213 C2212 1.374 . S
C2214 C2211 1.499 . S
C2214 C2215 1.373 . S
C2214 C2216 1.389 . S
C2215 H2194 0.950 . S
C2215 C2214 1.373 . S
C2215 C2231 1.377 1_455 S
C2216 C2214 1.389 . S
C2216 C2217 1.524 . S
C2216 C2230 1.377 1_455 S
C2217 C2216 1.524 . S
C2217 C2218 1.397 . S
C2217 C2222 1.363 . S
C2218 H2195 0.950 . S
C2218 C2217 1.397 . S
C2218 C2219 1.334 . S
C2219 H2196 0.950 . S
C2219 C2218 1.334 . S
C2219 C2220 1.287 . S
C2220 C2219 1.287 . S
C2220 C2221 1.524 . S
C2220 H2239 0.913 . S
C2221 H2197 0.950 . S
C2221 C2220 1.524 . S
C2221 C2222 1.415 . S
C2222 H2198 0.950 . S
C2222 C2217 1.363 . S
C2222 C2221 1.415 . S
C2223 H2199 0.951 . S
C2223 C2224 1.366 . S
C2223 C2225 1.388 . S
C2224 C2223 1.366 . S
C2224 C2228 1.385 . S
C2225 H2200 0.951 . S
C2225 C2223 1.388 . S
C2225 C2226 1.366 . S
C2226 C2225 1.366 . S
C2226 C2227 1.414 . S
C2226 C2229 1.499 . S
C2227 H2201 0.950 . S
C2227 C2226 1.414 . S
C2227 C2228 1.374 . S
C2228 H2202 0.950 . S
C2228 C2224 1.385 . S
C2228 C2227 1.374 . S
C2229 C2226 1.499 . S
C2229 C2230 1.373 . S
C2229 C2231 1.389 . S
C2230 H2203 0.950 . S
C2230 C2216 1.377 1_655 S
C2230 C2229 1.373 . S
C2231 C2215 1.377 1_655 S
C2231 C2229 1.389 . S
C2231 C2232 1.524 . S
C2232 C2231 1.524 . S
C2232 C2233 1.397 . S
C2232 C2237 1.363 . S
C2233 H2204 0.950 . S
C2233 C2232 1.397 . S
C2233 C2234 1.334 . S
C2234 H2205 0.950 . S
C2234 C2233 1.334 . S
C2234 C2235 1.287 . S
C2235 C2234 1.287 . S
C2235 C2236 1.524 . S
C2235 H2238 0.999 1_554 S
C2236 H2206 0.950 . S
C2236 C2235 1.524 . S
C2236 C2237 1.415 . S
C2237 H2207 0.950 . S
C2237 C2232 1.363 . S
C2237 C2236 1.415 . S
H2238 C2235 0.999 1_556 S
H2239 C2220 0.913 . S
H2240 C2258 0.951 . S
H2241 C2260 0.951 . S
H2242 C2262 0.950 . S
H2243 C2263 0.950 . S
H2244 C2265 0.950 . S
H2245 C2268 0.950 . S
H2246 C2269 0.950 . S
H2247 C2271 0.950 . S
H2248 C2272 0.950 . S
H2249 C2273 0.951 . S
H2250 C2275 0.951 1_554 S
H2251 C2277 0.950 . S
H2252 C2278 0.950 . S
H2253 C2280 0.950 . S
H2254 C2283 0.950 . S
H2255 C2284 0.950 . S
H2256 C2286 0.950 . S
H2257 C2287 0.950 . S
C2258 H2240 0.951 . S
C2258 C2259 1.366 . S
C2258 C2260 1.388 . S
C2259 C2258 1.366 . S
C2259 C2263 1.385 . S
C2260 H2241 0.951 . S
C2260 C2258 1.388 . S
C2260 C2261 1.366 . S
C2261 C2260 1.366 . S
C2261 C2262 1.414 . S
C2261 C2264 1.499 . S
C2262 H2242 0.950 . S
C2262 C2261 1.414 . S
C2262 C2263 1.374 . S
C2263 H2243 0.950 . S
C2263 C2259 1.385 . S
C2263 C2262 1.374 . S
C2264 C2261 1.499 . S
C2264 C2265 1.373 . S
C2264 C2266 1.389 . S
C2265 H2244 0.950 . S
C2265 C2264 1.373 . S
C2265 C2281 1.377 . S
C2266 C2264 1.389 . S
C2266 C2267 1.524 . S
C2266 C2280 1.377 1_554 S
C2267 C2266 1.524 . S
C2267 C2268 1.397 . S
C2267 C2272 1.363 1_554 S
C2268 H2245 0.950 . S
C2268 C2267 1.397 . S
C2268 C2269 1.334 . S
C2269 H2246 0.950 . S
C2269 C2268 1.334 . S
C2269 C2270 1.287 . S
C2270 C2269 1.287 . S
C2270 C2271 1.524 1_554 S
C2270 H2289 0.913 . S
C2271 H2247 0.950 . S
C2271 C2270 1.524 1_556 S
C2271 C2272 1.415 . S
C2272 H2248 0.950 . S
C2272 C2267 1.363 1_556 S
C2272 C2271 1.415 . S
C2273 H2249 0.951 . S
C2273 C2274 1.366 . S
C2273 C2275 1.388 . S
C2274 C2273 1.366 . S
C2274 C2278 1.385 . S
C2275 H2250 0.951 1_556 S
C2275 C2273 1.388 . S
C2275 C2276 1.366 . S
C2276 C2275 1.366 . S
C2276 C2277 1.414 . S
C2276 C2279 1.499 . S
C2277 H2251 0.950 . S
C2277 C2276 1.414 . S
C2277 C2278 1.374 . S
C2278 H2252 0.950 . S
C2278 C2274 1.385 . S
C2278 C2277 1.374 . S
C2279 C2276 1.499 . S
C2279 C2280 1.373 . S
C2279 C2281 1.389 1_556 S
C2280 H2253 0.950 . S
C2280 C2266 1.377 1_556 S
C2280 C2279 1.373 . S
C2281 C2265 1.377 . S
C2281 C2279 1.389 1_554 S
C2281 C2282 1.524 . S
C2282 C2281 1.524 . S
C2282 C2283 1.397 1_554 S
C2282 C2287 1.363 . S
C2283 H2254 0.950 . S
C2283 C2282 1.397 1_556 S
C2283 C2284 1.334 . S
C2284 H2255 0.950 . S
C2284 C2283 1.334 . S
C2284 C2285 1.287 1_556 S
C2285 C2284 1.287 1_554 S
C2285 C2286 1.524 . S
C2285 H2288 0.999 . S
C2286 H2256 0.950 . S
C2286 C2285 1.524 . S
C2286 C2287 1.415 . S
C2287 H2257 0.950 . S
C2287 C2282 1.363 . S
C2287 C2286 1.415 . S
H2288 C2285 0.999 . S
H2289 C2270 0.913 . S
H2290 C2308 0.951 . S
H2291 C2310 0.951 . S
H2292 C2312 0.950 . S
H2293 C2313 0.950 . S
H2294 C2315 0.950 . S
H2295 C2318 0.950 . S
H2296 C2319 0.950 . S
H2297 C2321 0.950 . S
H2298 C2322 0.950 . S
H2299 C2323 0.951 . S
H2300 C2325 0.951 . S
H2301 C2327 0.950 . S
H2302 C2328 0.950 . S
H2303 C2330 0.950 . S
H2304 C2333 0.950 . S
H2305 C2334 0.950 . S
H2306 C2336 0.950 . S
H2307 C2337 0.950 . S
C2308 H2290 0.951 . S
C2308 C2309 1.366 . S
C2308 C2310 1.388 . S
C2309 C2308 1.366 . S
C2309 C2313 1.385 . S
C2310 H2291 0.951 . S
C2310 C2308 1.388 . S
C2310 C2311 1.366 . S
C2311 C2310 1.366 . S
C2311 C2312 1.414 . S
C2311 C2314 1.499 . S
C2312 H2292 0.950 . S
C2312 C2311 1.414 . S
C2312 C2313 1.374 . S
C2313 H2293 0.950 . S
C2313 C2309 1.385 . S
C2313 C2312 1.374 . S
C2314 C2311 1.499 . S
C2314 C2315 1.373 . S
C2314 C2316 1.389 . S
C2315 H2294 0.950 . S
C2315 C2314 1.373 . S
C2315 C2331 1.377 . S
C2316 C2314 1.389 . S
C2316 C2317 1.524 . S
C2316 C2330 1.377 . S
C2317 C2316 1.524 . S
C2317 C2318 1.397 . S
C2317 C2322 1.363 . S
C2318 H2295 0.950 . S
C2318 C2317 1.397 . S
C2318 C2319 1.334 . S
C2319 H2296 0.950 . S
C2319 C2318 1.334 . S
C2319 C2320 1.287 . S
C2320 C2319 1.287 . S
C2320 C2321 1.524 . S
C2320 H2339 0.913 . S
C2321 H2297 0.950 . S
C2321 C2320 1.524 . S
C2321 C2322 1.415 . S
C2322 H2298 0.950 . S
C2322 C2317 1.363 . S
C2322 C2321 1.415 . S
C2323 H2299 0.951 . S
C2323 C2324 1.366 . S
C2323 C2325 1.388 . S
C2324 C2323 1.366 . S
C2324 C2328 1.385 . S
C2325 H2300 0.951 . S
C2325 C2323 1.388 . S
C2325 C2326 1.366 . S
C2326 C2325 1.366 . S
C2326 C2327 1.414 . S
C2326 C2329 1.499 . S
C2327 H2301 0.950 . S
C2327 C2326 1.414 . S
C2327 C2328 1.374 . S
C2328 H2302 0.950 . S
C2328 C2324 1.385 . S
C2328 C2327 1.374 . S
C2329 C2326 1.499 . S
C2329 C2330 1.373 . S
C2329 C2331 1.389 . S
C2330 H2303 0.950 . S
C2330 C2316 1.377 . S
C2330 C2329 1.373 . S
C2331 C2315 1.377 . S
C2331 C2329 1.389 . S
C2331 C2332 1.524 . S
C2332 C2331 1.524 . S
C2332 C2333 1.397 . S
C2332 C2337 1.363 . S
C2333 H2304 0.950 . S
C2333 C2332 1.397 . S
C2333 C2334 1.334 . S
C2334 H2305 0.950 . S
C2334 C2333 1.334 . S
C2334 C2335 1.287 . S
C2335 C2334 1.287 . S
C2335 C2336 1.524 . S
C2335 H2338 0.999 . S
C2336 H2306 0.950 . S
C2336 C2335 1.524 . S
C2336 C2337 1.415 . S
C2337 H2307 0.950 . S
C2337 C2332 1.363 . S
C2337 C2336 1.415 . S
H2338 C2335 0.999 . S
H2339 C2320 0.913 . S
H2340 C2358 0.951 . S
H2341 C2360 0.951 . S
H2342 C2362 0.950 . S
H2343 C2363 0.950 . S
H2344 C2365 0.950 . S
H2345 C2368 0.950 . S
H2346 C2369 0.950 . S
H2347 C2371 0.950 . S
H2348 C2372 0.950 . S
H2349 C2373 0.951 . S
H2350 C2375 0.951 . S
H2351 C2377 0.950 . S
H2352 C2378 0.950 . S
H2353 C2380 0.950 . S
H2354 C2383 0.950 . S
H2355 C2384 0.950 . S
H2356 C2386 0.950 . S
H2357 C2387 0.950 . S
C2358 H2340 0.951 . S
C2358 C2359 1.366 . S
C2358 C2360 1.388 . S
C2359 C2358 1.366 . S
C2359 C2363 1.385 . S
C2360 H2341 0.951 . S
C2360 C2358 1.388 . S
C2360 C2361 1.366 . S
C2361 C2360 1.366 . S
C2361 C2362 1.414 . S
C2361 C2364 1.499 . S
C2362 H2342 0.950 . S
C2362 C2361 1.414 . S
C2362 C2363 1.374 . S
C2363 H2343 0.950 . S
C2363 C2359 1.385 . S
C2363 C2362 1.374 . S
C2364 C2361 1.499 . S
C2364 C2365 1.373 . S
C2364 C2366 1.389 . S
C2365 H2344 0.950 . S
C2365 C2364 1.373 . S
C2365 C2381 1.377 . S
C2366 C2364 1.389 . S
C2366 C2367 1.524 . S
C2366 C2380 1.377 . S
C2367 C2366 1.524 . S
C2367 C2368 1.397 . S
C2367 C2372 1.363 . S
C2368 H2345 0.950 . S
C2368 C2367 1.397 . S
C2368 C2369 1.334 . S
C2369 H2346 0.950 . S
C2369 C2368 1.334 . S
C2369 C2370 1.287 . S
C2370 C2369 1.287 . S
C2370 C2371 1.524 . S
C2370 H2389 0.913 . S
C2371 H2347 0.950 . S
C2371 C2370 1.524 . S
C2371 C2372 1.415 . S
C2372 H2348 0.950 . S
C2372 C2367 1.363 . S
C2372 C2371 1.415 . S
C2373 H2349 0.951 . S
C2373 C2374 1.366 . S
C2373 C2375 1.388 . S
C2374 C2373 1.366 . S
C2374 C2378 1.385 . S
C2375 H2350 0.951 . S
C2375 C2373 1.388 . S
C2375 C2376 1.366 . S
C2376 C2375 1.366 . S
C2376 C2377 1.414 . S
C2376 C2379 1.499 . S
C2377 H2351 0.950 . S
C2377 C2376 1.414 . S
C2377 C2378 1.374 . S
C2378 H2352 0.950 . S
C2378 C2374 1.385 . S
C2378 C2377 1.374 . S
C2379 C2376 1.499 . S
C2379 C2380 1.373 . S
C2379 C2381 1.389 . S
C2380 H2353 0.950 . S
C2380 C2366 1.377 . S
C2380 C2379 1.373 . S
C2381 C2365 1.377 . S
C2381 C2379 1.389 . S
C2381 C2382 1.524 . S
C2382 C2381 1.524 . S
C2382 C2383 1.397 . S
C2382 C2387 1.363 . S
C2383 H2354 0.950 . S
C2383 C2382 1.397 . S
C2383 C2384 1.334 . S
C2384 H2355 0.950 . S
C2384 C2383 1.334 . S
C2384 C2385 1.287 . S
C2385 C2384 1.287 . S
C2385 C2386 1.524 . S
C2385 H2388 0.999 . S
C2386 H2356 0.950 . S
C2386 C2385 1.524 . S
C2386 C2387 1.415 . S
C2387 H2357 0.950 . S
C2387 C2382 1.363 . S
C2387 C2386 1.415 . S
H2388 C2385 0.999 . S
H2389 C2370 0.913 . S
H2390 C2408 0.951 . S
H2391 C2410 0.951 . S
H2392 C2412 0.950 . S
H2393 C2413 0.950 . S
H2394 C2415 0.950 . S
H2395 C2418 0.950 . S
H2396 C2419 0.950 . S
H2397 C2421 0.950 . S
H2398 C2422 0.950 . S
H2399 C2423 0.951 . S
H2400 C2425 0.951 . S
H2401 C2427 0.950 . S
H2402 C2428 0.950 . S
H2403 C2430 0.950 . S
H2404 C2433 0.950 . S
H2405 C2434 0.950 . S
H2406 C2436 0.950 . S
H2407 C2437 0.950 . S
C2408 H2390 0.951 . S
C2408 C2409 1.366 . S
C2408 C2410 1.388 . S
C2409 C2408 1.366 . S
C2409 C2413 1.385 . S
C2410 H2391 0.951 . S
C2410 C2408 1.388 . S
C2410 C2411 1.366 . S
C2411 C2410 1.366 . S
C2411 C2412 1.414 . S
C2411 C2414 1.499 . S
C2412 H2392 0.950 . S
C2412 C2411 1.414 . S
C2412 C2413 1.374 . S
C2413 H2393 0.950 . S
C2413 C2409 1.385 . S
C2413 C2412 1.374 . S
C2414 C2411 1.499 . S
C2414 C2415 1.373 . S
C2414 C2416 1.389 . S
C2415 H2394 0.950 . S
C2415 C2414 1.373 . S
C2415 C2431 1.377 . S
C2416 C2414 1.389 . S
C2416 C2417 1.524 . S
C2416 C2430 1.377 . S
C2417 C2416 1.524 . S
C2417 C2418 1.397 . S
C2417 C2422 1.363 . S
C2418 H2395 0.950 . S
C2418 C2417 1.397 . S
C2418 C2419 1.334 . S
C2419 H2396 0.950 . S
C2419 C2418 1.334 . S
C2419 C2420 1.287 . S
C2420 C2419 1.287 . S
C2420 C2421 1.524 . S
C2420 H2439 0.913 . S
C2421 H2397 0.950 . S
C2421 C2420 1.524 . S
C2421 C2422 1.415 . S
C2422 H2398 0.950 . S
C2422 C2417 1.363 . S
C2422 C2421 1.415 . S
C2423 H2399 0.951 . S
C2423 C2424 1.366 . S
C2423 C2425 1.388 . S
C2424 C2423 1.366 . S
C2424 C2428 1.385 . S
C2425 H2400 0.951 . S
C2425 C2423 1.388 . S
C2425 C2426 1.366 . S
C2426 C2425 1.366 . S
C2426 C2427 1.414 . S
C2426 C2429 1.499 . S
C2427 H2401 0.950 . S
C2427 C2426 1.414 . S
C2427 C2428 1.374 . S
C2428 H2402 0.950 . S
C2428 C2424 1.385 . S
C2428 C2427 1.374 . S
C2429 C2426 1.499 . S
C2429 C2430 1.373 . S
C2429 C2431 1.389 . S
C2430 H2403 0.950 . S
C2430 C2416 1.377 . S
C2430 C2429 1.373 . S
C2431 C2415 1.377 . S
C2431 C2429 1.389 . S
C2431 C2432 1.524 . S
C2432 C2431 1.524 . S
C2432 C2433 1.397 . S
C2432 C2437 1.363 . S
C2433 H2404 0.950 . S
C2433 C2432 1.397 . S
C2433 C2434 1.334 . S
C2434 H2405 0.950 . S
C2434 C2433 1.334 . S
C2434 C2435 1.287 . S
C2435 C2434 1.287 . S
C2435 C2436 1.524 . S
C2435 H2438 0.999 . S
C2436 H2406 0.950 . S
C2436 C2435 1.524 . S
C2436 C2437 1.415 . S
C2437 H2407 0.950 . S
C2437 C2432 1.363 . S
C2437 C2436 1.415 . S
H2438 C2435 0.999 . S
H2439 C2420 0.913 . S
H2440 C2458 0.951 . S
H2441 C2460 0.951 . S
H2442 C2462 0.950 . S
H2443 C2463 0.950 . S
H2444 C2465 0.950 . S
H2445 C2468 0.950 . S
H2446 C2469 0.950 . S
H2447 C2471 0.950 . S
H2448 C2472 0.950 . S
H2449 C2473 0.951 . S
H2450 C2475 0.951 . S
H2451 C2477 0.950 . S
H2452 C2478 0.950 . S
H2453 C2480 0.950 . S
H2454 C2483 0.948 1_554 S
H2455 C2484 0.950 . S
H2456 C2486 0.950 . S
H2457 C2487 0.950 . S
C2458 H2440 0.951 . S
C2458 C2459 1.366 . S
C2458 C2460 1.388 . S
C2459 C2458 1.366 . S
C2459 C2463 1.385 . S
C2460 H2441 0.951 . S
C2460 C2458 1.388 . S
C2460 C2461 1.366 . S
C2461 C2460 1.366 . S
C2461 C2462 1.414 . S
C2461 C2464 1.499 . S
C2462 H2442 0.950 . S
C2462 C2461 1.414 . S
C2462 C2463 1.374 . S
C2463 H2443 0.950 . S
C2463 C2459 1.385 . S
C2463 C2462 1.374 . S
C2464 C2461 1.499 . S
C2464 C2465 1.373 . S
C2464 C2466 1.389 1_554 S
C2465 H2444 0.950 . S
C2465 C2464 1.373 . S
C2465 C2481 1.377 1_554 S
C2466 C2464 1.389 1_556 S
C2466 C2467 1.524 . S
C2466 C2480 1.377 . S
C2467 C2466 1.524 . S
C2467 C2468 1.397 . S
C2467 C2472 1.363 . S
C2468 H2445 0.950 . S
C2468 C2467 1.397 . S
C2468 C2469 1.334 . S
C2469 H2446 0.950 . S
C2469 C2468 1.334 . S
C2469 C2470 1.287 . S
C2470 C2469 1.287 . S
C2470 C2471 1.524 . S
C2470 H2489 0.913 . S
C2471 H2447 0.950 . S
C2471 C2470 1.524 . S
C2471 C2472 1.415 . S
C2472 H2448 0.950 . S
C2472 C2467 1.363 . S
C2472 C2471 1.415 . S
C2473 H2449 0.951 . S
C2473 C2474 1.366 . S
C2473 C2475 1.388 . S
C2474 C2473 1.366 . S
C2474 C2478 1.385 . S
C2475 H2450 0.951 . S
C2475 C2473 1.388 . S
C2475 C2476 1.366 . S
C2476 C2475 1.366 . S
C2476 C2477 1.414 . S
C2476 C2479 1.499 . S
C2477 H2451 0.950 . S
C2477 C2476 1.414 . S
C2477 C2478 1.374 . S
C2478 H2452 0.950 . S
C2478 C2474 1.385 . S
C2478 C2477 1.374 . S
C2479 C2476 1.499 . S
C2479 C2480 1.373 . S
C2479 C2481 1.389 . S
C2480 H2453 0.950 . S
C2480 C2466 1.377 . S
C2480 C2479 1.373 . S
C2481 C2465 1.377 1_556 S
C2481 C2479 1.389 . S
C2481 C2482 1.524 . S
C2482 C2481 1.524 . S
C2482 C2483 1.402 . S
C2482 C2487 1.363 . S
C2483 H2454 0.948 1_556 S
C2483 C2482 1.402 . S
C2483 C2484 1.331 1_556 S
C2484 H2455 0.950 . S
C2484 C2483 1.331 1_554 S
C2484 C2485 1.287 . S
C2485 C2484 1.287 . S
C2485 C2486 1.524 1_554 S
C2485 H2488 0.999 . S
C2486 H2456 0.950 . S
C2486 C2485 1.524 1_556 S
C2486 C2487 1.415 . S
C2487 H2457 0.950 . S
C2487 C2482 1.363 . S
C2487 C2486 1.415 . S
H2488 C2485 0.999 . S
H2489 C2470 0.913 . S
H2490 C2508 0.951 . S
H2491 C2510 0.951 . S
H2492 C2512 0.950 . S
H2493 C2513 0.950 . S
H2494 C2515 0.950 . S
H2495 C2518 0.950 . S
H2496 C2519 0.950 . S
H2497 C2521 0.950 . S
H2498 C2522 0.950 . S
H2499 C2523 0.951 . S
H2500 C2525 0.951 . S
H2501 C2527 0.950 . S
H2502 C2528 0.950 . S
H2503 C2530 0.950 . S
H2504 C2533 0.950 . S
H2505 C2534 0.950 . S
H2506 C2536 0.950 . S
H2507 C2537 0.950 . S
C2508 H2490 0.951 . S
C2508 C2509 1.366 . S
C2508 C2510 1.388 . S
C2509 C2508 1.366 . S
C2509 C2513 1.385 . S
C2510 H2491 0.951 . S
C2510 C2508 1.388 . S
C2510 C2511 1.366 . S
C2511 C2510 1.366 . S
C2511 C2512 1.414 . S
C2511 C2514 1.499 . S
C2512 H2492 0.950 . S
C2512 C2511 1.414 . S
C2512 C2513 1.374 . S
C2513 H2493 0.950 . S
C2513 C2509 1.385 . S
C2513 C2512 1.374 . S
C2514 C2511 1.499 . S
C2514 C2515 1.373 . S
C2514 C2516 1.389 . S
C2515 H2494 0.950 . S
C2515 C2514 1.373 . S
C2515 C2531 1.377 . S
C2516 C2514 1.389 . S
C2516 C2517 1.524 . S
C2516 C2530 1.377 . S
C2517 C2516 1.524 . S
C2517 C2518 1.397 . S
C2517 C2522 1.363 . S
C2518 H2495 0.950 . S
C2518 C2517 1.397 . S
C2518 C2519 1.334 . S
C2519 H2496 0.950 . S
C2519 C2518 1.334 . S
C2519 C2520 1.287 . S
C2520 C2519 1.287 . S
C2520 C2521 1.524 . S
C2520 H2539 0.913 . S
C2521 H2497 0.950 . S
C2521 C2520 1.524 . S
C2521 C2522 1.415 . S
C2522 H2498 0.950 . S
C2522 C2517 1.363 . S
C2522 C2521 1.415 . S
C2523 H2499 0.951 . S
C2523 C2524 1.366 . S
C2523 C2525 1.388 . S
C2524 C2523 1.366 . S
C2524 C2528 1.385 . S
C2525 H2500 0.951 . S
C2525 C2523 1.388 . S
C2525 C2526 1.366 . S
C2526 C2525 1.366 . S
C2526 C2527 1.414 . S
C2526 C2529 1.499 . S
C2527 H2501 0.950 . S
C2527 C2526 1.414 . S
C2527 C2528 1.374 . S
C2528 H2502 0.950 . S
C2528 C2524 1.385 . S
C2528 C2527 1.374 . S
C2529 C2526 1.499 . S
C2529 C2530 1.373 . S
C2529 C2531 1.389 . S
C2530 H2503 0.950 . S
C2530 C2516 1.377 . S
C2530 C2529 1.373 . S
C2531 C2515 1.377 . S
C2531 C2529 1.389 . S
C2531 C2532 1.524 . S
C2532 C2531 1.524 . S
C2532 C2533 1.397 . S
C2532 C2537 1.363 . S
C2533 H2504 0.950 . S
C2533 C2532 1.397 . S
C2533 C2534 1.334 . S
C2534 H2505 0.950 . S
C2534 C2533 1.334 . S
C2534 C2535 1.287 . S
C2535 C2534 1.287 . S
C2535 C2536 1.524 . S
C2535 H2538 0.999 . S
C2536 H2506 0.950 . S
C2536 C2535 1.524 . S
C2536 C2537 1.415 . S
C2537 H2507 0.950 . S
C2537 C2532 1.363 . S
C2537 C2536 1.415 . S
H2538 C2535 0.999 . S
H2539 C2520 0.913 . S
H2540 C2558 0.951 . S
H2541 C2560 0.951 . S
H2542 C2562 0.950 . S
H2543 C2563 0.950 . S
H2544 C2565 0.950 . S
H2545 C2568 0.950 . S
H2546 C2569 0.950 . S
H2547 C2571 0.950 . S
H2548 C2572 0.950 . S
H2549 C2573 0.951 . S
H2550 C2575 0.951 . S
H2551 C2577 0.950 . S
H2552 C2578 0.950 . S
H2553 C2580 0.950 . S
H2554 C2583 0.950 . S
H2555 C2584 0.950 . S
H2556 C2586 0.950 . S
H2557 C2587 0.950 . S
C2558 H2540 0.951 . S
C2558 C2559 1.366 . S
C2558 C2560 1.388 . S
C2559 C2558 1.366 . S
C2559 C2563 1.385 . S
C2560 H2541 0.951 . S
C2560 C2558 1.388 . S
C2560 C2561 1.366 . S
C2561 C2560 1.366 . S
C2561 C2562 1.414 . S
C2561 C2564 1.499 . S
C2562 H2542 0.950 . S
C2562 C2561 1.414 . S
C2562 C2563 1.374 . S
C2563 H2543 0.950 . S
C2563 C2559 1.385 . S
C2563 C2562 1.374 . S
C2564 C2561 1.499 . S
C2564 C2565 1.373 . S
C2564 C2566 1.389 . S
C2565 H2544 0.950 . S
C2565 C2564 1.373 . S
C2565 C2581 1.377 . S
C2566 C2564 1.389 . S
C2566 C2567 1.524 . S
C2566 C2580 1.377 . S
C2567 C2566 1.524 . S
C2567 C2568 1.397 . S
C2567 C2572 1.363 . S
C2568 H2545 0.950 . S
C2568 C2567 1.397 . S
C2568 C2569 1.334 . S
C2569 H2546 0.950 . S
C2569 C2568 1.334 . S
C2569 C2570 1.287 . S
C2570 C2569 1.287 . S
C2570 C2571 1.524 . S
C2570 H2589 0.913 . S
C2571 H2547 0.950 . S
C2571 C2570 1.524 . S
C2571 C2572 1.415 . S
C2572 H2548 0.950 . S
C2572 C2567 1.363 . S
C2572 C2571 1.415 . S
C2573 H2549 0.951 . S
C2573 C2574 1.366 . S
C2573 C2575 1.388 . S
C2574 C2573 1.366 . S
C2574 C2578 1.385 . S
C2575 H2550 0.951 . S
C2575 C2573 1.388 . S
C2575 C2576 1.366 . S
C2576 C2575 1.366 . S
C2576 C2577 1.414 . S
C2576 C2579 1.499 . S
C2577 H2551 0.950 . S
C2577 C2576 1.414 . S
C2577 C2578 1.374 . S
C2578 H2552 0.950 . S
C2578 C2574 1.385 . S
C2578 C2577 1.374 . S
C2579 C2576 1.499 . S
C2579 C2580 1.373 . S
C2579 C2581 1.389 . S
C2580 H2553 0.950 . S
C2580 C2566 1.377 . S
C2580 C2579 1.373 . S
C2581 C2565 1.377 . S
C2581 C2579 1.389 . S
C2581 C2582 1.524 . S
C2582 C2581 1.524 . S
C2582 C2583 1.397 . S
C2582 C2587 1.363 . S
C2583 H2554 0.950 . S
C2583 C2582 1.397 . S
C2583 C2584 1.334 . S
C2584 H2555 0.950 . S
C2584 C2583 1.334 . S
C2584 C2585 1.287 . S
C2585 C2584 1.287 . S
C2585 C2586 1.524 . S
C2585 H2588 0.999 . S
C2586 H2556 0.950 . S
C2586 C2585 1.524 . S
C2586 C2587 1.415 . S
C2587 H2557 0.950 . S
C2587 C2582 1.363 . S
C2587 C2586 1.415 . S
H2588 C2585 0.999 . S
H2589 C2570 0.913 . S
H2590 C2608 0.951 . S
H2591 C2610 0.951 . S
H2592 C2612 0.950 . S
H2593 C2613 0.950 . S
H2594 C2615 0.950 . S
H2595 C2618 0.950 . S
H2596 C2619 0.950 . S
H2597 C2621 0.950 . S
H2598 C2622 0.950 . S
H2599 C2623 0.951 . S
H2600 C2625 0.951 . S
H2601 C2627 0.950 . S
H2602 C2628 0.950 . S
H2603 C2630 0.950 . S
H2604 C2633 0.950 . S
H2605 C2634 0.950 . S
H2606 C2636 0.950 . S
H2607 C2637 0.950 . S
C2608 H2590 0.951 . S
C2608 C2609 1.366 . S
C2608 C2610 1.388 . S
C2609 C2608 1.366 . S
C2609 C2613 1.385 . S
C2610 H2591 0.951 . S
C2610 C2608 1.388 . S
C2610 C2611 1.366 . S
C2611 C2610 1.366 . S
C2611 C2612 1.414 . S
C2611 C2614 1.499 . S
C2612 H2592 0.950 . S
C2612 C2611 1.414 . S
C2612 C2613 1.374 . S
C2613 H2593 0.950 . S
C2613 C2609 1.385 . S
C2613 C2612 1.374 . S
C2614 C2611 1.499 . S
C2614 C2615 1.373 . S
C2614 C2616 1.389 . S
C2615 H2594 0.950 . S
C2615 C2614 1.373 . S
C2615 C2631 1.377 . S
C2616 C2614 1.389 . S
C2616 C2617 1.524 . S
C2616 C2630 1.377 . S
C2617 C2616 1.524 . S
C2617 C2618 1.397 . S
C2617 C2622 1.363 . S
C2618 H2595 0.950 . S
C2618 C2617 1.397 . S
C2618 C2619 1.334 . S
C2619 H2596 0.950 . S
C2619 C2618 1.334 . S
C2619 C2620 1.287 . S
C2620 C2619 1.287 . S
C2620 C2621 1.524 . S
C2620 H2639 0.913 . S
C2621 H2597 0.950 . S
C2621 C2620 1.524 . S
C2621 C2622 1.415 . S
C2622 H2598 0.950 . S
C2622 C2617 1.363 . S
C2622 C2621 1.415 . S
C2623 H2599 0.951 . S
C2623 C2624 1.366 . S
C2623 C2625 1.388 . S
C2624 C2623 1.366 . S
C2624 C2628 1.385 . S
C2625 H2600 0.951 . S
C2625 C2623 1.388 . S
C2625 C2626 1.366 . S
C2626 C2625 1.366 . S
C2626 C2627 1.414 . S
C2626 C2629 1.499 . S
C2627 H2601 0.950 . S
C2627 C2626 1.414 . S
C2627 C2628 1.374 . S
C2628 H2602 0.950 . S
C2628 C2624 1.385 . S
C2628 C2627 1.374 . S
C2629 C2626 1.499 . S
C2629 C2630 1.373 . S
C2629 C2631 1.389 . S
C2630 H2603 0.950 . S
C2630 C2616 1.377 . S
C2630 C2629 1.373 . S
C2631 C2615 1.377 . S
C2631 C2629 1.389 . S
C2631 C2632 1.524 . S
C2632 C2631 1.524 . S
C2632 C2633 1.397 . S
C2632 C2637 1.363 . S
C2633 H2604 0.950 . S
C2633 C2632 1.397 . S
C2633 C2634 1.334 . S
C2634 H2605 0.950 . S
C2634 C2633 1.334 . S
C2634 C2635 1.287 . S
C2635 C2634 1.287 . S
C2635 C2636 1.524 . S
C2635 H2638 0.999 . S
C2636 H2606 0.950 . S
C2636 C2635 1.524 . S
C2636 C2637 1.415 . S
C2637 H2607 0.950 . S
C2637 C2632 1.363 . S
C2637 C2636 1.415 . S
H2638 C2635 0.999 . S
H2639 C2620 0.913 . S
H2640 C2658 0.951 . S
H2641 C2660 0.951 . S
H2642 C2662 0.950 . S
H2643 C2663 0.950 . S
H2644 C2665 0.950 . S
H2645 C2668 0.950 . S
H2646 C2669 0.950 . S
H2647 C2671 0.950 . S
H2648 C2672 0.950 . S
H2649 C2673 0.951 . S
H2650 C2675 0.951 . S
H2651 C2677 0.950 . S
H2652 C2678 0.950 . S
H2653 C2680 0.946 1_545 S
H2654 C2683 0.950 . S
H2655 C2684 0.950 . S
H2656 C2686 0.950 . S
H2657 C2687 0.950 . S
C2658 H2640 0.951 . S
C2658 C2659 1.366 . S
C2658 C2660 1.388 . S
C2659 C2658 1.366 . S
C2659 C2663 1.385 . S
C2660 H2641 0.951 . S
C2660 C2658 1.388 . S
C2660 C2661 1.366 . S
C2661 C2660 1.366 . S
C2661 C2662 1.414 . S
C2661 C2664 1.499 . S
C2662 H2642 0.950 . S
C2662 C2661 1.414 . S
C2662 C2663 1.374 . S
C2663 H2643 0.950 . S
C2663 C2659 1.385 . S
C2663 C2662 1.374 . S
C2664 C2661 1.499 . S
C2664 C2665 1.373 . S
C2664 C2666 1.389 . S
C2665 H2644 0.950 . S
C2665 C2664 1.373 . S
C2665 C2681 1.377 1_565 S
C2666 C2664 1.389 . S
C2666 C2667 1.524 . S
C2666 C2680 1.409 . S
C2667 C2666 1.524 . S
C2667 C2668 1.397 . S
C2667 C2672 1.363 . S
C2668 H2645 0.950 . S
C2668 C2667 1.397 . S
C2668 C2669 1.334 . S
C2669 H2646 0.950 . S
C2669 C2668 1.334 . S
C2669 C2670 1.287 . S
C2670 C2669 1.287 . S
C2670 C2671 1.524 . S
C2670 H2689 0.913 . S
C2671 H2647 0.950 . S
C2671 C2670 1.524 . S
C2671 C2672 1.415 . S
C2672 H2648 0.950 . S
C2672 C2667 1.363 . S
C2672 C2671 1.415 . S
C2673 H2649 0.951 . S
C2673 C2674 1.366 . S
C2673 C2675 1.388 . S
C2674 C2673 1.366 . S
C2674 C2678 1.385 . S
C2675 H2650 0.951 . S
C2675 C2673 1.388 . S
C2675 C2676 1.366 . S
C2676 C2675 1.366 . S
C2676 C2677 1.414 . S
C2676 C2679 1.499 . S
C2677 H2651 0.950 . S
C2677 C2676 1.414 . S
C2677 C2678 1.374 . S
C2678 H2652 0.950 . S
C2678 C2674 1.385 . S
C2678 C2677 1.374 . S
C2679 C2676 1.499 . S
C2679 C2680 1.345 1_545 S
C2679 C2681 1.389 . S
C2680 H2653 0.946 1_565 S
C2680 C2666 1.409 . S
C2680 C2679 1.345 1_565 S
C2681 C2665 1.377 1_545 S
C2681 C2679 1.389 . S
C2681 C2682 1.524 . S
C2682 C2681 1.524 . S
C2682 C2683 1.397 . S
C2682 C2687 1.363 . S
C2683 H2654 0.950 . S
C2683 C2682 1.397 . S
C2683 C2684 1.334 . S
C2684 H2655 0.950 . S
C2684 C2683 1.334 . S
C2684 C2685 1.287 . S
C2685 C2684 1.287 . S
C2685 C2686 1.524 . S
C2685 H2688 0.999 . S
C2686 H2656 0.950 . S
C2686 C2685 1.524 . S
C2686 C2687 1.415 . S
C2687 H2657 0.950 . S
C2687 C2682 1.363 . S
C2687 C2686 1.415 . S
H2688 C2685 0.999 . S
H2689 C2670 0.913 . S
H2690 C2708 0.951 . S
H2691 C2710 0.951 . S
H2692 C2712 0.950 . S
H2693 C2713 0.950 . S
H2694 C2715 0.950 . S
H2695 C2718 0.950 . S
H2696 C2719 0.950 . S
H2697 C2721 0.950 . S
H2698 C2722 0.950 . S
H2699 C2723 0.951 . S
H2700 C2725 0.951 . S
H2701 C2727 0.950 . S
H2702 C2728 0.950 . S
H2703 C2730 0.950 . S
H2704 C2733 0.950 . S
H2705 C2734 0.950 . S
H2706 C2736 0.950 . S
H2707 C2737 0.950 . S
C2708 H2690 0.951 . S
C2708 C2709 1.366 . S
C2708 C2710 1.388 . S
C2709 C2708 1.366 . S
C2709 C2713 1.385 . S
C2710 H2691 0.951 . S
C2710 C2708 1.388 . S
C2710 C2711 1.366 . S
C2711 C2710 1.366 . S
C2711 C2712 1.414 . S
C2711 C2714 1.499 . S
C2712 H2692 0.950 . S
C2712 C2711 1.414 . S
C2712 C2713 1.374 . S
C2713 H2693 0.950 . S
C2713 C2709 1.385 . S
C2713 C2712 1.374 . S
C2714 C2711 1.499 . S
C2714 C2715 1.373 . S
C2714 C2716 1.389 . S
C2715 H2694 0.950 . S
C2715 C2714 1.373 . S
C2715 C2731 1.377 . S
C2716 C2714 1.389 . S
C2716 C2717 1.524 . S
C2716 C2730 1.377 . S
C2717 C2716 1.524 . S
C2717 C2718 1.397 . S
C2717 C2722 1.363 . S
C2718 H2695 0.950 . S
C2718 C2717 1.397 . S
C2718 C2719 1.334 . S
C2719 H2696 0.950 . S
C2719 C2718 1.334 . S
C2719 C2720 1.287 . S
C2720 C2719 1.287 . S
C2720 C2721 1.524 . S
C2720 H2739 0.913 . S
C2721 H2697 0.950 . S
C2721 C2720 1.524 . S
C2721 C2722 1.415 . S
C2722 H2698 0.950 . S
C2722 C2717 1.363 . S
C2722 C2721 1.415 . S
C2723 H2699 0.951 . S
C2723 C2724 1.366 . S
C2723 C2725 1.388 . S
C2724 C2723 1.366 . S
C2724 C2728 1.385 . S
C2725 H2700 0.951 . S
C2725 C2723 1.388 . S
C2725 C2726 1.366 . S
C2726 C2725 1.366 . S
C2726 C2727 1.414 . S
C2726 C2729 1.499 . S
C2727 H2701 0.950 . S
C2727 C2726 1.414 . S
C2727 C2728 1.374 . S
C2728 H2702 0.950 . S
C2728 C2724 1.385 . S
C2728 C2727 1.374 . S
C2729 C2726 1.499 . S
C2729 C2730 1.373 . S
C2729 C2731 1.389 . S
C2730 H2703 0.950 . S
C2730 C2716 1.377 . S
C2730 C2729 1.373 . S
C2731 C2715 1.377 . S
C2731 C2729 1.389 . S
C2731 C2732 1.524 . S
C2732 C2731 1.524 . S
C2732 C2733 1.397 . S
C2732 C2737 1.363 . S
C2733 H2704 0.950 . S
C2733 C2732 1.397 . S
C2733 C2734 1.334 . S
C2734 H2705 0.950 . S
C2734 C2733 1.334 . S
C2734 C2735 1.287 . S
C2735 C2734 1.287 . S
C2735 C2736 1.524 . S
C2735 H2738 0.999 . S
C2736 H2706 0.950 . S
C2736 C2735 1.524 . S
C2736 C2737 1.415 . S
C2737 H2707 0.950 . S
C2737 C2732 1.363 . S
C2737 C2736 1.415 . S
H2738 C2735 0.999 . S
H2739 C2720 0.913 . S
H2740 C2758 0.951 . S
H2741 C2760 0.951 . S
H2742 C2762 0.950 . S
H2743 C2763 0.950 . S
H2744 C2765 0.950 . S
H2745 C2768 0.950 . S
H2746 C2769 0.950 . S
H2747 C2771 0.950 . S
H2748 C2772 0.950 1_556 S
H2749 C2773 0.951 . S
H2750 C2775 0.951 . S
H2751 C2777 0.950 . S
H2752 C2778 0.950 . S
H2753 C2780 0.949 1_556 S
H2754 C2783 0.950 . S
H2755 C2784 0.950 . S
H2756 C2786 0.950 . S
H2757 C2787 0.950 . S
C2758 H2740 0.951 . S
C2758 C2759 1.366 . S
C2758 C2760 1.388 . S
C2759 C2758 1.366 . S
C2759 C2763 1.385 . S
C2760 H2741 0.951 . S
C2760 C2758 1.388 . S
C2760 C2761 1.366 . S
C2761 C2760 1.366 . S
C2761 C2762 1.414 . S
C2761 C2764 1.499 . S
C2762 H2742 0.950 . S
C2762 C2761 1.414 . S
C2762 C2763 1.374 . S
C2763 H2743 0.950 . S
C2763 C2759 1.385 . S
C2763 C2762 1.374 . S
C2764 C2761 1.499 . S
C2764 C2765 1.373 . S
C2764 C2766 1.389 . S
C2765 H2744 0.950 . S
C2765 C2764 1.373 . S
C2765 C2781 1.377 1_565 S
C2766 C2764 1.389 . S
C2766 C2767 1.524 . S
C2766 C2780 1.379 1_565 S
C2767 C2766 1.524 . S
C2767 C2768 1.397 . S
C2767 C2772 1.363 . S
C2768 H2745 0.950 . S
C2768 C2767 1.397 . S
C2768 C2769 1.334 . S
C2769 H2746 0.950 . S
C2769 C2768 1.334 . S
C2769 C2770 1.287 . S
C2770 C2769 1.287 . S
C2770 C2771 1.524 . S
C2770 H2789 0.913 . S
C2771 H2747 0.950 . S
C2771 C2770 1.524 . S
C2771 C2772 1.415 . S
C2772 H2748 0.950 1_554 S
C2772 C2767 1.363 . S
C2772 C2771 1.415 . S
C2773 H2749 0.951 . S
C2773 C2774 1.366 . S
C2773 C2775 1.388 . S
C2774 C2773 1.366 . S
C2774 C2778 1.385 . S
C2775 H2750 0.951 . S
C2775 C2773 1.388 . S
C2775 C2776 1.366 . S
C2776 C2775 1.366 . S
C2776 C2777 1.414 . S
C2776 C2779 1.499 . S
C2777 H2751 0.950 . S
C2777 C2776 1.414 . S
C2777 C2778 1.374 . S
C2778 H2752 0.950 . S
C2778 C2774 1.385 . S
C2778 C2777 1.374 . S
C2779 C2776 1.499 . S
C2779 C2780 1.373 1_556 S
C2779 C2781 1.389 1_556 S
C2780 H2753 0.949 1_554 S
C2780 C2766 1.379 1_545 S
C2780 C2779 1.373 1_554 S
C2781 C2765 1.377 1_545 S
C2781 C2779 1.389 1_554 S
C2781 C2782 1.524 1_554 S
C2782 C2781 1.524 1_556 S
C2782 C2783 1.397 . S
C2782 C2787 1.363 1_556 S
C2783 H2754 0.950 . S
C2783 C2782 1.397 . S
C2783 C2784 1.334 . S
C2784 H2755 0.950 . S
C2784 C2783 1.334 . S
C2784 C2785 1.287 . S
C2785 C2784 1.287 . S
C2785 C2786 1.524 1_556 S
C2785 H2788 0.999 . S
C2786 H2756 0.950 . S
C2786 C2785 1.524 1_554 S
C2786 C2787 1.415 . S
C2787 H2757 0.950 . S
C2787 C2782 1.363 1_554 S
C2787 C2786 1.415 . S
H2788 C2785 0.999 . S
H2789 C2770 0.913 . S
H2790 C2808 0.951 . S
H2791 C2810 0.951 . S
H2792 C2812 0.950 . S
H2793 C2813 0.950 . S
H2794 C2815 0.950 . S
H2795 C2818 0.950 . S
H2796 C2819 0.950 . S
H2797 C2821 0.950 . S
H2798 C2822 0.950 . S
H2799 C2823 0.951 . S
H2800 C2825 0.951 . S
H2801 C2827 0.950 . S
H2802 C2828 0.950 . S
H2803 C2830 0.950 . S
H2804 C2833 0.950 . S
H2805 C2834 0.950 . S
H2806 C2836 0.950 . S
H2807 C2837 0.950 . S
C2808 H2790 0.951 . S
C2808 C2809 1.366 . S
C2808 C2810 1.388 . S
C2809 C2808 1.366 . S
C2809 C2813 1.385 . S
C2810 H2791 0.951 . S
C2810 C2808 1.388 . S
C2810 C2811 1.366 . S
C2811 C2810 1.366 . S
C2811 C2812 1.414 . S
C2811 C2814 1.499 . S
C2812 H2792 0.950 . S
C2812 C2811 1.414 . S
C2812 C2813 1.374 . S
C2813 H2793 0.950 . S
C2813 C2809 1.385 . S
C2813 C2812 1.374 . S
C2814 C2811 1.499 . S
C2814 C2815 1.373 . S
C2814 C2816 1.389 . S
C2815 H2794 0.950 . S
C2815 C2814 1.373 . S
C2815 C2831 1.377 . S
C2816 C2814 1.389 . S
C2816 C2817 1.524 . S
C2816 C2830 1.377 . S
C2817 C2816 1.524 . S
C2817 C2818 1.397 . S
C2817 C2822 1.363 . S
C2818 H2795 0.950 . S
C2818 C2817 1.397 . S
C2818 C2819 1.334 . S
C2819 H2796 0.950 . S
C2819 C2818 1.334 . S
C2819 C2820 1.287 . S
C2820 C2819 1.287 . S
C2820 C2821 1.524 . S
C2820 H2839 0.913 . S
C2821 H2797 0.950 . S
C2821 C2820 1.524 . S
C2821 C2822 1.415 . S
C2822 H2798 0.950 . S
C2822 C2817 1.363 . S
C2822 C2821 1.415 . S
C2823 H2799 0.951 . S
C2823 C2824 1.366 . S
C2823 C2825 1.388 . S
C2824 C2823 1.366 . S
C2824 C2828 1.385 . S
C2825 H2800 0.951 . S
C2825 C2823 1.388 . S
C2825 C2826 1.366 . S
C2826 C2825 1.366 . S
C2826 C2827 1.414 . S
C2826 C2829 1.499 . S
C2827 H2801 0.950 . S
C2827 C2826 1.414 . S
C2827 C2828 1.374 . S
C2828 H2802 0.950 . S
C2828 C2824 1.385 . S
C2828 C2827 1.374 . S
C2829 C2826 1.499 . S
C2829 C2830 1.373 . S
C2829 C2831 1.389 . S
C2830 H2803 0.950 . S
C2830 C2816 1.377 . S
C2830 C2829 1.373 . S
C2831 C2815 1.377 . S
C2831 C2829 1.389 . S
C2831 C2832 1.524 . S
C2832 C2831 1.524 . S
C2832 C2833 1.397 . S
C2832 C2837 1.363 . S
C2833 H2804 0.950 . S
C2833 C2832 1.397 . S
C2833 C2834 1.334 . S
C2834 H2805 0.950 . S
C2834 C2833 1.334 . S
C2834 C2835 1.287 . S
C2835 C2834 1.287 . S
C2835 C2836 1.524 . S
C2835 H2838 0.999 . S
C2836 H2806 0.950 . S
C2836 C2835 1.524 . S
C2836 C2837 1.415 . S
C2837 H2807 0.950 . S
C2837 C2832 1.363 . S
C2837 C2836 1.415 . S
H2838 C2835 0.999 . S
H2839 C2820 0.913 . S
H2840 C2858 0.951 . S
H2841 C2860 0.951 . S
H2842 C2862 0.950 . S
H2843 C2863 0.950 . S
H2844 C2865 0.950 . S
H2845 C2868 0.950 . S
H2846 C2869 0.950 . S
H2847 C2871 0.950 . S
H2848 C2872 0.925 1_545 S
H2849 C2873 0.951 . S
H2850 C2875 0.951 . S
H2851 C2877 0.950 . S
H2852 C2878 0.950 . S
H2853 C2880 0.950 . S
H2854 C2883 0.950 . S
H2855 C2884 0.950 . S
H2856 C2886 0.950 . S
H2857 C2887 0.950 . S
C2858 H2840 0.951 . S
C2858 C2859 1.366 . S
C2858 C2860 1.388 . S
C2859 C2858 1.366 . S
C2859 C2863 1.385 . S
C2860 H2841 0.951 . S
C2860 C2858 1.388 . S
C2860 C2861 1.366 . S
C2861 C2860 1.366 . S
C2861 C2862 1.414 . S
C2861 C2864 1.499 . S
C2862 H2842 0.950 . S
C2862 C2861 1.414 . S
C2862 C2863 1.374 . S
C2863 H2843 0.950 . S
C2863 C2859 1.385 . S
C2863 C2862 1.374 . S
C2864 C2861 1.499 . S
C2864 C2865 1.373 . S
C2864 C2866 1.389 . S
C2865 H2844 0.950 . S
C2865 C2864 1.373 . S
C2865 C2881 1.377 1_565 S
C2866 C2864 1.389 . S
C2866 C2867 1.524 . S
C2866 C2880 1.377 1_565 S
C2867 C2866 1.524 . S
C2867 C2868 1.397 . S
C2867 C2872 1.363 . S
C2868 H2845 0.950 . S
C2868 C2867 1.397 . S
C2868 C2869 1.334 . S
C2869 H2846 0.950 . S
C2869 C2868 1.334 . S
C2869 C2870 1.287 . S
C2870 C2869 1.287 . S
C2870 C2871 1.524 . S
C2870 H2889 0.913 . S
C2871 H2847 0.950 . S
C2871 C2870 1.524 . S
C2871 C2872 1.415 . S
C2872 H2848 0.925 1_565 S
C2872 C2867 1.363 . S
C2872 C2871 1.415 . S
C2873 H2849 0.951 . S
C2873 C2874 1.366 . S
C2873 C2875 1.388 . S
C2874 C2873 1.366 . S
C2874 C2878 1.385 . S
C2875 H2850 0.951 . S
C2875 C2873 1.388 . S
C2875 C2876 1.366 . S
C2876 C2875 1.366 . S
C2876 C2877 1.414 . S
C2876 C2879 1.499 . S
C2877 H2851 0.950 . S
C2877 C2876 1.414 . S
C2877 C2878 1.374 . S
C2878 H2852 0.950 . S
C2878 C2874 1.385 . S
C2878 C2877 1.374 . S
C2879 C2876 1.499 . S
C2879 C2880 1.373 . S
C2879 C2881 1.389 . S
C2880 H2853 0.950 . S
C2880 C2866 1.377 1_545 S
C2880 C2879 1.373 . S
C2881 C2865 1.377 1_545 S
C2881 C2879 1.389 . S
C2881 C2882 1.524 . S
C2882 C2881 1.524 . S
C2882 C2883 1.397 . S
C2882 C2887 1.363 . S
C2883 H2854 0.950 . S
C2883 C2882 1.397 . S
C2883 C2884 1.334 . S
C2884 H2855 0.950 . S
C2884 C2883 1.334 . S
C2884 C2885 1.287 . S
C2885 C2884 1.287 . S
C2885 C2886 1.524 . S
C2885 H2888 0.999 . S
C2886 H2856 0.950 . S
C2886 C2885 1.524 . S
C2886 C2887 1.415 . S
C2887 H2857 0.950 . S
C2887 C2882 1.363 . S
C2887 C2886 1.415 . S
H2888 C2885 0.999 . S
H2889 C2870 0.913 . S
H2890 C2908 0.951 . S
H2891 C2910 0.951 . S
H2892 C2912 0.950 . S
H2893 C2913 0.950 . S
H2894 C2915 0.950 . S
H2895 C2918 0.950 . S
H2896 C2919 0.950 . S
H2897 C2921 0.950 . S
H2898 C2922 0.950 . S
H2899 C2923 0.951 . S
H2900 C2925 0.951 . S
H2901 C2927 0.950 . S
H2902 C2928 0.950 . S
H2903 C2930 0.950 . S
H2904 C2933 0.950 . S
H2905 C2934 0.950 . S
H2906 C2936 0.950 . S
H2907 C2937 0.950 . S
C2908 H2890 0.951 . S
C2908 C2909 1.366 . S
C2908 C2910 1.388 . S
C2909 C2908 1.366 . S
C2909 C2913 1.385 . S
C2910 H2891 0.951 . S
C2910 C2908 1.388 . S
C2910 C2911 1.366 . S
C2911 C2910 1.366 . S
C2911 C2912 1.414 . S
C2911 C2914 1.499 . S
C2912 H2892 0.950 . S
C2912 C2911 1.414 . S
C2912 C2913 1.374 . S
C2913 H2893 0.950 . S
C2913 C2909 1.385 . S
C2913 C2912 1.374 . S
C2914 C2911 1.499 . S
C2914 C2915 1.373 . S
C2914 C2916 1.389 . S
C2915 H2894 0.950 . S
C2915 C2914 1.373 . S
C2915 C2931 1.377 . S
C2916 C2914 1.389 . S
C2916 C2917 1.524 . S
C2916 C2930 1.377 . S
C2917 C2916 1.524 . S
C2917 C2918 1.397 . S
C2917 C2922 1.363 . S
C2918 H2895 0.950 . S
C2918 C2917 1.397 . S
C2918 C2919 1.334 . S
C2919 H2896 0.950 . S
C2919 C2918 1.334 . S
C2919 C2920 1.287 . S
C2920 C2919 1.287 . S
C2920 C2921 1.524 . S
C2920 H2939 0.913 . S
C2921 H2897 0.950 . S
C2921 C2920 1.524 . S
C2921 C2922 1.415 . S
C2922 H2898 0.950 . S
C2922 C2917 1.363 . S
C2922 C2921 1.415 . S
C2923 H2899 0.951 . S
C2923 C2924 1.366 . S
C2923 C2925 1.388 . S
C2924 C2923 1.366 . S
C2924 C2928 1.385 . S
C2925 H2900 0.951 . S
C2925 C2923 1.388 . S
C2925 C2926 1.366 . S
C2926 C2925 1.366 . S
C2926 C2927 1.414 . S
C2926 C2929 1.499 . S
C2927 H2901 0.950 . S
C2927 C2926 1.414 . S
C2927 C2928 1.374 . S
C2928 H2902 0.950 . S
C2928 C2924 1.385 . S
C2928 C2927 1.374 . S
C2929 C2926 1.499 . S
C2929 C2930 1.373 . S
C2929 C2931 1.389 . S
C2930 H2903 0.950 . S
C2930 C2916 1.377 . S
C2930 C2929 1.373 . S
C2931 C2915 1.377 . S
C2931 C2929 1.389 . S
C2931 C2932 1.524 . S
C2932 C2931 1.524 . S
C2932 C2933 1.397 . S
C2932 C2937 1.363 . S
C2933 H2904 0.950 . S
C2933 C2932 1.397 . S
C2933 C2934 1.334 . S
C2934 H2905 0.950 . S
C2934 C2933 1.334 . S
C2934 C2935 1.287 . S
C2935 C2934 1.287 . S
C2935 C2936 1.524 . S
C2935 H2938 0.999 . S
C2936 H2906 0.950 . S
C2936 C2935 1.524 . S
C2936 C2937 1.415 . S
C2937 H2907 0.950 . S
C2937 C2932 1.363 . S
C2937 C2936 1.415 . S
H2938 C2935 0.999 . S
H2939 C2920 0.913 . S
H2940 C2958 0.951 . S
H2941 C2960 0.951 . S
H2942 C2962 0.950 . S
H2943 C2963 0.950 . S
H2944 C2965 0.950 . S
H2945 C2968 0.950 . S
H2946 C2969 0.954 . S
H2947 C2971 0.950 . S
H2948 C2972 0.950 . S
H2949 C2973 0.951 . S
H2950 C2975 0.951 . S
H2951 C2977 0.950 . S
H2952 C2978 0.950 . S
H2953 C2980 0.950 . S
H2954 C2983 0.950 . S
H2955 C2984 0.950 . S
H2956 C2986 0.950 . S
H2957 C2987 0.950 1_556 S
C2958 H2940 0.951 . S
C2958 C2959 1.366 . S
C2958 C2960 1.388 . S
C2959 C2958 1.366 . S
C2959 C2963 1.385 . S
C2960 H2941 0.951 . S
C2960 C2958 1.388 . S
C2960 C2961 1.366 . S
C2961 C2960 1.366 . S
C2961 C2962 1.414 . S
C2961 C2964 1.499 . S
C2962 H2942 0.950 . S
C2962 C2961 1.414 . S
C2962 C2963 1.374 . S
C2963 H2943 0.950 . S
C2963 C2959 1.385 . S
C2963 C2962 1.374 . S
C2964 C2961 1.499 . S
C2964 C2965 1.373 . S
C2964 C2966 1.430 . S
C2965 H2944 0.950 . S
C2965 C2964 1.373 . S
C2965 C2981 1.377 1_545 S
C2966 C2964 1.430 . S
C2966 C2967 1.524 . S
C2966 C2980 1.335 1_545 S
C2967 C2966 1.524 . S
C2967 C2968 1.397 . S
C2967 C2972 1.358 1_545 S
C2968 H2945 0.950 . S
C2968 C2967 1.397 . S
C2968 C2969 1.338 . S
C2969 H2946 0.954 . S
C2969 C2968 1.338 . S
C2969 C2970 1.282 1_545 S
C2970 C2969 1.282 1_565 S
C2970 C2971 1.524 . S
C2970 H2989 0.913 . S
C2971 H2947 0.950 . S
C2971 C2970 1.524 . S
C2971 C2972 1.415 . S
C2972 H2948 0.950 . S
C2972 C2967 1.358 1_565 S
C2972 C2971 1.415 . S
C2973 H2949 0.951 . S
C2973 C2974 1.366 . S
C2973 C2975 1.388 . S
C2974 C2973 1.366 . S
C2974 C2978 1.385 . S
C2975 H2950 0.951 . S
C2975 C2973 1.388 . S
C2975 C2976 1.366 . S
C2976 C2975 1.366 . S
C2976 C2977 1.414 . S
C2976 C2979 1.513 . S
C2977 H2951 0.950 . S
C2977 C2976 1.414 . S
C2977 C2978 1.374 . S
C2978 H2952 0.950 . S
C2978 C2974 1.385 . S
C2978 C2977 1.374 . S
C2979 C2976 1.513 . S
C2979 C2980 1.357 1_554 S
C2979 C2981 1.391 1_554 S
C2980 H2953 0.950 . S
C2980 C2966 1.335 1_565 S
C2980 C2979 1.357 1_556 S
C2981 C2965 1.377 1_565 S
C2981 C2979 1.391 1_556 S
C2981 C2982 1.523 1_556 S
C2982 C2981 1.523 1_554 S
C2982 C2983 1.397 . S
C2982 C2987 1.363 1_565 S
C2983 H2954 0.950 . S
C2983 C2982 1.397 . S
C2983 C2984 1.334 . S
C2984 H2955 0.950 . S
C2984 C2983 1.334 . S
C2984 C2985 1.285 1_565 S
C2985 C2984 1.285 1_545 S
C2985 C2986 1.524 . S
C2985 H2988 0.998 . S
C2986 H2956 0.950 . S
C2986 C2985 1.524 . S
C2986 C2987 1.415 . S
C2987 H2957 0.950 1_554 S
C2987 C2982 1.363 1_545 S
C2987 C2986 1.415 . S
H2988 C2985 0.998 . S
H2989 C2970 0.913 . S
H2990 C3008 0.951 . S
H2991 C3010 0.951 . S
H2992 C3012 0.950 . S
H2993 C3013 0.950 . S
H2994 C3015 0.950 . S
H2995 C3018 0.950 . S
H2996 C3019 0.950 . S
H2997 C3021 0.950 . S
H2998 C3022 0.950 . S
H2999 C3023 0.951 . S
H3000 C3025 0.951 . S
H3001 C3027 0.950 . S
H3002 C3028 0.950 . S
H3003 C3030 0.950 . S
H3004 C3033 0.950 . S
H3005 C3034 0.950 . S
H3006 C3036 0.950 . S
H3007 C3037 0.950 . S
C3008 H2990 0.951 . S
C3008 C3009 1.366 . S
C3008 C3010 1.388 . S
C3009 C3008 1.366 . S
C3009 C3013 1.385 . S
C3010 H2991 0.951 . S
C3010 C3008 1.388 . S
C3010 C3011 1.366 . S
C3011 C3010 1.366 . S
C3011 C3012 1.414 . S
C3011 C3014 1.499 . S
C3012 H2992 0.950 . S
C3012 C3011 1.414 . S
C3012 C3013 1.374 . S
C3013 H2993 0.950 . S
C3013 C3009 1.385 . S
C3013 C3012 1.374 . S
C3014 C3011 1.499 . S
C3014 C3015 1.373 . S
C3014 C3016 1.389 . S
C3015 H2994 0.950 . S
C3015 C3014 1.373 . S
C3015 C3031 1.377 . S
C3016 C3014 1.389 . S
C3016 C3017 1.524 . S
C3016 C3030 1.377 . S
C3017 C3016 1.524 . S
C3017 C3018 1.397 . S
C3017 C3022 1.363 . S
C3018 H2995 0.950 . S
C3018 C3017 1.397 . S
C3018 C3019 1.334 . S
C3019 H2996 0.950 . S
C3019 C3018 1.334 . S
C3019 C3020 1.287 . S
C3020 C3019 1.287 . S
C3020 C3021 1.524 . S
C3020 H3039 0.913 . S
C3021 H2997 0.950 . S
C3021 C3020 1.524 . S
C3021 C3022 1.415 . S
C3022 H2998 0.950 . S
C3022 C3017 1.363 . S
C3022 C3021 1.415 . S
C3023 H2999 0.951 . S
C3023 C3024 1.366 . S
C3023 C3025 1.388 . S
C3024 C3023 1.366 . S
C3024 C3028 1.385 . S
C3025 H3000 0.951 . S
C3025 C3023 1.388 . S
C3025 C3026 1.366 . S
C3026 C3025 1.366 . S
C3026 C3027 1.414 . S
C3026 C3029 1.499 . S
C3027 H3001 0.950 . S
C3027 C3026 1.414 . S
C3027 C3028 1.374 . S
C3028 H3002 0.950 . S
C3028 C3024 1.385 . S
C3028 C3027 1.374 . S
C3029 C3026 1.499 . S
C3029 C3030 1.373 . S
C3029 C3031 1.389 . S
C3030 H3003 0.950 . S
C3030 C3016 1.377 . S
C3030 C3029 1.373 . S
C3031 C3015 1.377 . S
C3031 C3029 1.389 . S
C3031 C3032 1.524 . S
C3032 C3031 1.524 . S
C3032 C3033 1.397 . S
C3032 C3037 1.363 . S
C3033 H3004 0.950 . S
C3033 C3032 1.397 . S
C3033 C3034 1.334 . S
C3034 H3005 0.950 . S
C3034 C3033 1.334 . S
C3034 C3035 1.287 . S
C3035 C3034 1.287 . S
C3035 C3036 1.524 . S
C3035 H3038 0.999 . S
C3036 H3006 0.950 . S
C3036 C3035 1.524 . S
C3036 C3037 1.415 . S
C3037 H3007 0.950 . S
C3037 C3032 1.363 . S
C3037 C3036 1.415 . S
H3038 C3035 0.999 . S
H3039 C3020 0.913 . S
C659 C5 1.611 . S
C674 C15 1.611 . S
C709 C55 1.545 . S
C724 C45 1.545 . S
C759 C85 1.765 . S
C774 C95 1.765 1_554 S
C809 C135 1.691 . S
C824 C125 1.691 . S
C859 C165 1.545 . S
C874 C175 1.545 . S
C909 C205 1.765 . S
C924 C215 1.765 . S
C959 C245 1.692 . S
C974 C255 1.692 . S
C1009 C295 1.611 1_554 S
C1024 C285 1.611 . S
C1059 C335 1.608 . S
C1074 C325 1.608 . S
C1109 C375 1.543 . S
C1124 C365 1.543 . S
C1159 C415 1.805 1_556 S
C1174 C405 1.805 . S
C1209 C445 1.695 . S
C1224 C455 1.695 . S
C1259 C495 1.542 . S
C1274 C485 1.542 . S
C1309 C535 1.805 . S
C1324 C525 1.805 . S
C1359 C575 1.695 . S
C1374 C565 1.695 . S
C1409 C605 1.608 1_556 S
C1424 C615 1.608 . S
C1459 C19 1.961 . S
C1474 C449 1.966 . S
C1509 C58 1.564 . S
C1524 C608 1.577 . S
C1559 C99 1.968 . S
C1574 C369 2.014 . S
C1609 C138 1.484 . S
C1624 C529 1.527 . S
C1659 C179 1.924 . S
C1674 C528 1.864 . S
C1709 C448 1.480 . S
C1724 C218 1.523 . S
C1759 C259 1.921 . S
C1774 C609 1.916 . S
C1809 C298 1.527 . S
C1824 C368 1.515 . S
C1859 C139 1.921 . S
C1874 C329 1.916 . S
C1909 C59 1.923 . S
C1924 C408 1.865 . S
C1959 C489 2.014 . S
C1974 C219 1.969 . S
C2009 C299 1.961 . S
C2024 C569 1.966 . S
C2059 C328 1.578 . S
C2074 C178 1.564 . S
C2109 C258 1.484 . S
C2124 C409 1.527 . S
C2159 C98 1.523 . S
C2174 C568 1.480 . S
C2209 C18 1.527 . S
C2224 C488 1.515 . S
C2259 C9 1.993 . S
C2274 C169 1.998 . S
C2309 C48 1.711 . S
C2324 C208 1.709 . S
C2359 C89 1.712 . S
C2374 C249 1.713 . S
C2409 C128 1.425 . S
C2424 C288 1.414 . S
C2459 C499 1.958 . S
C2474 C339 1.954 . S
C2509 C539 1.630 . S
C2524 C378 1.610 . S
C2559 C418 1.878 . S
C2574 C579 1.886 . S
C2609 C618 1.467 . S
C2624 C458 1.477 . S
C2659 C49 1.998 . S
C2674 C289 1.993 . S
C2709 C168 1.710 . S
C2724 C88 1.709 . S
C2759 C209 1.712 . S
C2774 C129 1.713 . S
C2809 C8 1.415 . S
C2824 C248 1.425 . S
C2859 C619 1.954 . S
C2874 C379 1.959 . S
C2909 C498 1.609 . S
C2924 C419 1.630 . S
C2959 C538 1.878 . S
C2974 C459 1.886 . S
C3009 C578 1.477 . S
C3024 C338 1.467 . S
