# Generated by pormake.
# Topology umk, (4)-cn, num edge types: 1
# Building blocks:
#     Node 0, Type 0, BuildingBlock: KUFVIS_clean_sbu_0, # of connection points: 4
#     Node 1, Type 0, BuildingBlock: KUFVIS_clean_sbu_0, # of connection points: 4
#     Node 2, Type 0, BuildingBlock: KUFVIS_clean_sbu_0, # of connection points: 4
#     Node 3, Type 0, BuildingBlock: KUFVIS_clean_sbu_0, # of connection points: 4
#     Node 4, Type 0, BuildingBlock: KUFVIS_clean_sbu_0, # of connection points: 4
#     Node 5, Type 0, BuildingBlock: KUFVIS_clean_sbu_0, # of connection points: 4
#     Node 6, Type 0, BuildingBlock: KUFVIS_clean_sbu_0, # of connection points: 4
#     Node 7, Type 0, BuildingBlock: KUFVIS_clean_sbu_0, # of connection points: 4
#     Node 8, Type 0, BuildingBlock: KUFVIS_clean_sbu_0, # of connection points: 4
#     Node 9, Type 0, BuildingBlock: KUFVIS_clean_sbu_0, # of connection points: 4
#     Node 10, Type 0, BuildingBlock: KUFVIS_clean_sbu_0, # of connection points: 4
#     Node 11, Type 0, BuildingBlock: KUFVIS_clean_sbu_0, # of connection points: 4
#     Node 12, Type 0, BuildingBlock: KUFVIS_clean_sbu_0, # of connection points: 4
#     Node 13, Type 0, BuildingBlock: KUFVIS_clean_sbu_0, # of connection points: 4
#     Node 14, Type 0, BuildingBlock: KUFVIS_clean_sbu_0, # of connection points: 4
#     Node 15, Type 0, BuildingBlock: KUFVIS_clean_sbu_0, # of connection points: 4
#     Node 16, Type 0, BuildingBlock: KUFVIS_clean_sbu_0, # of connection points: 4
#     Node 17, Type 0, BuildingBlock: KUFVIS_clean_sbu_0, # of connection points: 4
#     Node 18, Type 0, BuildingBlock: KUFVIS_clean_sbu_0, # of connection points: 4
#     Node 19, Type 0, BuildingBlock: KUFVIS_clean_sbu_0, # of connection points: 4
#     Node 20, Type 0, BuildingBlock: KUFVIS_clean_sbu_0, # of connection points: 4
#     Node 21, Type 0, BuildingBlock: KUFVIS_clean_sbu_0, # of connection points: 4
#     Node 22, Type 0, BuildingBlock: KUFVIS_clean_sbu_0, # of connection points: 4
#     Node 23, Type 0, BuildingBlock: KUFVIS_clean_sbu_0, # of connection points: 4
#     Edge 24, Type (0, 0), BuildingBlock: AJUNOK_clean_linker_0, # of connection points: 2
#     Edge 25, Type (0, 0), BuildingBlock: AJUNOK_clean_linker_0, # of connection points: 2
#     Edge 26, Type (0, 0), BuildingBlock: AJUNOK_clean_linker_0, # of connection points: 2
#     Edge 27, Type (0, 0), BuildingBlock: AJUNOK_clean_linker_0, # of connection points: 2
#     Edge 28, Type (0, 0), BuildingBlock: AJUNOK_clean_linker_0, # of connection points: 2
#     Edge 29, Type (0, 0), BuildingBlock: AJUNOK_clean_linker_0, # of connection points: 2
#     Edge 30, Type (0, 0), BuildingBlock: AJUNOK_clean_linker_0, # of connection points: 2
#     Edge 31, Type (0, 0), BuildingBlock: AJUNOK_clean_linker_0, # of connection points: 2
#     Edge 32, Type (0, 0), BuildingBlock: AJUNOK_clean_linker_0, # of connection points: 2
#     Edge 33, Type (0, 0), BuildingBlock: AJUNOK_clean_linker_0, # of connection points: 2
#     Edge 34, Type (0, 0), BuildingBlock: AJUNOK_clean_linker_0, # of connection points: 2
#     Edge 35, Type (0, 0), BuildingBlock: AJUNOK_clean_linker_0, # of connection points: 2
#     Edge 36, Type (0, 0), BuildingBlock: AJUNOK_clean_linker_0, # of connection points: 2
#     Edge 37, Type (0, 0), BuildingBlock: AJUNOK_clean_linker_0, # of connection points: 2
#     Edge 38, Type (0, 0), BuildingBlock: AJUNOK_clean_linker_0, # of connection points: 2
#     Edge 39, Type (0, 0), BuildingBlock: AJUNOK_clean_linker_0, # of connection points: 2
#     Edge 40, Type (0, 0), BuildingBlock: AJUNOK_clean_linker_0, # of connection points: 2
#     Edge 41, Type (0, 0), BuildingBlock: AJUNOK_clean_linker_0, # of connection points: 2
#     Edge 42, Type (0, 0), BuildingBlock: AJUNOK_clean_linker_0, # of connection points: 2
#     Edge 43, Type (0, 0), BuildingBlock: AJUNOK_clean_linker_0, # of connection points: 2
#     Edge 44, Type (0, 0), BuildingBlock: AJUNOK_clean_linker_0, # of connection points: 2
#     Edge 45, Type (0, 0), BuildingBlock: AJUNOK_clean_linker_0, # of connection points: 2
#     Edge 46, Type (0, 0), BuildingBlock: AJUNOK_clean_linker_0, # of connection points: 2
#     Edge 47, Type (0, 0), BuildingBlock: AJUNOK_clean_linker_0, # of connection points: 2
#     Edge 48, Type (0, 0), BuildingBlock: AJUNOK_clean_linker_0, # of connection points: 2
#     Edge 49, Type (0, 0), BuildingBlock: AJUNOK_clean_linker_0, # of connection points: 2
#     Edge 50, Type (0, 0), BuildingBlock: AJUNOK_clean_linker_0, # of connection points: 2
#     Edge 51, Type (0, 0), BuildingBlock: AJUNOK_clean_linker_0, # of connection points: 2
#     Edge 52, Type (0, 0), BuildingBlock: AJUNOK_clean_linker_0, # of connection points: 2
#     Edge 53, Type (0, 0), BuildingBlock: AJUNOK_clean_linker_0, # of connection points: 2
#     Edge 54, Type (0, 0), BuildingBlock: AJUNOK_clean_linker_0, # of connection points: 2
#     Edge 55, Type (0, 0), BuildingBlock: AJUNOK_clean_linker_0, # of connection points: 2
#     Edge 56, Type (0, 0), BuildingBlock: AJUNOK_clean_linker_0, # of connection points: 2
#     Edge 57, Type (0, 0), BuildingBlock: AJUNOK_clean_linker_0, # of connection points: 2
#     Edge 58, Type (0, 0), BuildingBlock: AJUNOK_clean_linker_0, # of connection points: 2
#     Edge 59, Type (0, 0), BuildingBlock: AJUNOK_clean_linker_0, # of connection points: 2
#     Edge 60, Type (0, 0), BuildingBlock: AJUNOK_clean_linker_0, # of connection points: 2
#     Edge 61, Type (0, 0), BuildingBlock: AJUNOK_clean_linker_0, # of connection points: 2
#     Edge 62, Type (0, 0), BuildingBlock: AJUNOK_clean_linker_0, # of connection points: 2
#     Edge 63, Type (0, 0), BuildingBlock: AJUNOK_clean_linker_0, # of connection points: 2
#     Edge 64, Type (0, 0), BuildingBlock: AJUNOK_clean_linker_0, # of connection points: 2
#     Edge 65, Type (0, 0), BuildingBlock: AJUNOK_clean_linker_0, # of connection points: 2
#     Edge 66, Type (0, 0), BuildingBlock: AJUNOK_clean_linker_0, # of connection points: 2
#     Edge 67, Type (0, 0), BuildingBlock: AJUNOK_clean_linker_0, # of connection points: 2
#     Edge 68, Type (0, 0), BuildingBlock: AJUNOK_clean_linker_0, # of connection points: 2
#     Edge 69, Type (0, 0), BuildingBlock: AJUNOK_clean_linker_0, # of connection points: 2
#     Edge 70, Type (0, 0), BuildingBlock: AJUNOK_clean_linker_0, # of connection points: 2
#     Edge 71, Type (0, 0), BuildingBlock: AJUNOK_clean_linker_0, # of connection points: 2
# Relax obj value: 0.070
# Max RMSD: 0.063
# Mean RMSD: 0.063
data_MOF--net-umk--node1-KUFVIS_clean_sbu_0--edge1-AJUNOK_clean_linker_0
_symmetry_space_group_name_H-M    P1
_symmetry_Int_Tables_number       1
_symmetry_cell_setting            triclinic
loop_
_symmetry_equiv_pos_as_xyz
'x, y, z'
_cell_length_a     48.545183
_cell_length_b     48.481755
_cell_length_c     30.992148
_cell_angle_alpha  89.995682
_cell_angle_beta   89.995841
_cell_angle_gamma 119.98125
loop_
_atom_site_label
_atom_site_type_symbol
_atom_site_fract_x
_atom_site_fract_y
_atom_site_fract_z
_atom_type_partial_charge
Mn0 Mn 0.3535 0.48342 0.08001 0.0
Mn1 Mn 0.41619 0.52886 0.14476 0.0
C2 C 0.40103 0.52296 0.05013 0.0
C3 C 0.30589 0.47682 0.04971 0.0
C4 C 0.39752 0.46112 0.11787 0.0
O5 O 0.33388 0.47327 0.14057 0.0
O6 O 0.37619 0.50978 0.17799 0.0
C7 C 0.39893 0.57854 0.16053 0.0
N8 N 0.42056 0.57027 0.14725 0.0
C9 C 0.45838 0.62458 0.12908 0.0
C10 C 0.43661 0.63373 0.14291 0.0
C11 C 0.40671 0.61058 0.15856 0.0
C12 C 0.4491 0.59224 0.13125 0.0
H13 H 0.37582 0.56079 0.17224 0.0
C14 C 0.34696 0.48831 0.17521 0.0
O15 O 0.31073 0.45284 0.05344 0.0
O16 O 0.32825 0.50384 0.06403 0.0
N17 N 0.45734 0.54959 0.11841 0.0
C18 C 0.47656 0.53719 0.11 0.0
C19 C 0.50798 0.55742 0.09631 0.0
C20 C 0.51961 0.59029 0.09246 0.0
C21 C 0.49985 0.60269 0.10303 0.0
C22 C 0.46889 0.58141 0.11704 0.0
H23 H 0.46799 0.51204 0.11368 0.0
O24 O 0.37952 0.50099 0.02589 0.0
O25 O 0.3935 0.52181 0.09044 0.0
O26 O 0.37473 0.45629 0.09218 0.0
O27 O 0.41295 0.48645 0.14074 0.0
C28 C 0.5098 0.63539 0.10081 0.0
C29 C 0.48892 0.64628 0.11329 0.0
H30 H 0.44258 0.65844 0.14161 0.0
H31 H 0.3897 0.61742 0.16907 0.0
H32 H 0.52321 0.54773 0.08877 0.0
H33 H 0.54379 0.60579 0.08161 0.0
H34 H 0.53348 0.65237 0.08967 0.0
H35 H 0.49676 0.67144 0.11119 0.0
Mn36 Mn 0.88169 0.34404 0.57784 0.0
Mn37 Mn 0.91926 0.41285 0.63525 0.0
C38 C 0.88555 0.39033 0.5495 0.0
C39 C 0.8368 0.29582 0.55698 0.0
C40 C 0.95451 0.38749 0.58412 0.0
O41 O 0.88068 0.32764 0.63859 0.0
O42 O 0.90878 0.37505 0.67174 0.0
C43 C 0.8677 0.40184 0.69621 0.0
N44 N 0.88968 0.42048 0.6662 0.0
C45 C 0.88191 0.46463 0.68267 0.0
C46 C 0.85926 0.44592 0.71382 0.0
C47 C 0.85198 0.41431 0.72041 0.0
C48 C 0.89664 0.45081 0.65934 0.0
H49 H 0.86248 0.37778 0.702 0.0
C50 C 0.89392 0.34458 0.67181 0.0
O51 O 0.86542 0.30053 0.55295 0.0
O52 O 0.8342 0.31881 0.5743 0.0
N53 N 0.93093 0.45191 0.60593 0.0
C54 C 0.95263 0.46648 0.57378 0.0
C55 C 0.9613 0.49772 0.5617 0.0
C56 C 0.94788 0.51376 0.58298 0.0
C57 C 0.92609 0.49853 0.61651 0.0
C58 C 0.91828 0.46738 0.62711 0.0
H59 H 0.96348 0.45446 0.55786 0.0
O60 O 0.88229 0.3672 0.52494 0.0
O61 O 0.88705 0.38635 0.59106 0.0
O62 O 0.9303 0.36123 0.57277 0.0
O63 O 0.9527 0.40869 0.60594 0.0
C64 C 0.9119 0.51309 0.63995 0.0
C65 C 0.88994 0.49621 0.67313 0.0
H66 H 0.84714 0.45549 0.73262 0.0
H67 H 0.83455 0.39972 0.74442 0.0
H68 H 0.97879 0.50979 0.53673 0.0
H69 H 0.95473 0.53788 0.57358 0.0
H70 H 0.91758 0.53721 0.63255 0.0
H71 H 0.87895 0.50755 0.69062 0.0
Mn72 Mn 0.55094 0.87915 0.07981 0.0
Mn73 Mn 0.50622 0.89566 0.1471 0.0
C74 C 0.51232 0.88931 0.0515 0.0
C75 C 0.55549 0.83707 0.04812 0.0
C76 C 0.57358 0.94517 0.11948 0.0
O77 O 0.56156 0.86848 0.13915 0.0
O78 O 0.52647 0.87511 0.17847 0.0
C79 C 0.45818 0.82795 0.16153 0.0
N80 N 0.46545 0.85782 0.14924 0.0
C81 C 0.4109 0.83978 0.1308 0.0
C82 C 0.40279 0.80889 0.14362 0.0
C83 C 0.42656 0.80294 0.15892 0.0
C84 C 0.4429 0.86361 0.13342 0.0
H85 H 0.4764 0.82319 0.17291 0.0
C86 C 0.54747 0.86685 0.17446 0.0
O87 O 0.58016 0.86551 0.05149 0.0
O88 O 0.52921 0.83369 0.06318 0.0
N89 N 0.48416 0.91564 0.12355 0.0
C90 C 0.49491 0.94749 0.1211 0.0
C91 C 0.47358 0.95815 0.11086 0.0
C92 C 0.44138 0.93599 0.10351 0.0
C93 C 0.43045 0.90346 0.10915 0.0
C94 C 0.45266 0.89439 0.12091 0.0
H95 H 0.51955 0.96467 0.12737 0.0
O96 O 0.53371 0.88921 0.02666 0.0
O97 O 0.51313 0.88165 0.09137 0.0
O98 O 0.57854 0.92725 0.09369 0.0
O99 O 0.54821 0.93533 0.14234 0.0
C100 C 0.39816 0.87986 0.10571 0.0
C101 C 0.38845 0.84794 0.11599 0.0
H102 H 0.37838 0.7896 0.14197 0.0
H103 H 0.42053 0.77914 0.16869 0.0
H104 H 0.48199 0.98339 0.10834 0.0
H105 H 0.4251 0.94429 0.09502 0.0
H106 H 0.38053 0.8861 0.09598 0.0
H107 H 0.36354 0.83001 0.1135 0.0
Mn108 Mn 0.68133 0.53823 0.58014 0.0
Mn109 Mn 0.61968 0.4986 0.64885 0.0
C110 C 0.63212 0.49982 0.55396 0.0
C111 C 0.726 0.54092 0.54669 0.0
C112 C 0.64106 0.56558 0.61624 0.0
O113 O 0.70317 0.5496 0.63931 0.0
O114 O 0.66038 0.51903 0.6805 0.0
C115 C 0.63618 0.44924 0.67123 0.0
N116 N 0.61473 0.45716 0.65596 0.0
C117 C 0.57676 0.40229 0.64098 0.0
C118 C 0.59835 0.39353 0.65687 0.0
C119 C 0.62821 0.41713 0.67198 0.0
C120 C 0.58617 0.4347 0.64064 0.0
H121 H 0.65928 0.4673 0.68242 0.0
C122 C 0.6901 0.53817 0.67563 0.0
O123 O 0.72309 0.56608 0.55035 0.0
O124 O 0.70373 0.51495 0.5637 0.0
N125 N 0.57802 0.47692 0.62411 0.0
C126 C 0.55871 0.48903 0.61469 0.0
C127 C 0.52718 0.46833 0.60176 0.0
C128 C 0.51562 0.43542 0.59951 0.0
C129 C 0.53545 0.42337 0.61133 0.0
C130 C 0.56644 0.44508 0.62476 0.0
H131 H 0.56733 0.51428 0.61694 0.0
O132 O 0.65348 0.52032 0.52808 0.0
O133 O 0.64068 0.50167 0.59399 0.0
O134 O 0.66331 0.56816 0.59127 0.0
O135 O 0.62391 0.54116 0.63999 0.0
C136 C 0.52548 0.39064 0.61117 0.0
C137 C 0.54626 0.38013 0.62557 0.0
H138 H 0.59225 0.36877 0.65761 0.0
H139 H 0.64508 0.41059 0.6841 0.0
H140 H 0.51178 0.47765 0.59355 0.0
H141 H 0.49139 0.41959 0.58917 0.0
H142 H 0.50182 0.37334 0.60032 0.0
H143 H 0.53834 0.35491 0.6253 0.0
Mn144 Mn 0.156 0.68188 0.08035 0.0
Mn145 Mn 0.13855 0.61979 0.14627 0.0
C146 C 0.151 0.63524 0.05144 0.0
C147 C 0.19775 0.73038 0.05299 0.0
C148 C 0.0893 0.63695 0.11489 0.0
O149 O 0.1611 0.70067 0.14089 0.0
O150 O 0.15766 0.65984 0.1797 0.0
C151 C 0.20499 0.63808 0.1673 0.0
N152 N 0.1759 0.61629 0.15165 0.0
C153 C 0.19399 0.57939 0.13563 0.0
C154 C 0.22412 0.60139 0.15171 0.0
C155 C 0.22965 0.63089 0.16754 0.0
C156 C 0.17048 0.58807 0.13571 0.0
H157 H 0.20936 0.66084 0.17931 0.0
C158 C 0.1628 0.68827 0.17632 0.0
O159 O 0.16855 0.72471 0.05336 0.0
O160 O 0.20227 0.70836 0.06902 0.0
N161 N 0.11959 0.57862 0.12002 0.0
C162 C 0.08824 0.5587 0.11085 0.0
C163 C 0.07805 0.52739 0.09732 0.0
C164 C 0.10001 0.51661 0.0945 0.0
C165 C 0.13181 0.53702 0.10616 0.0
C166 C 0.14045 0.56781 0.11995 0.0
H167 H 0.07113 0.56664 0.11379 0.0
O168 O 0.15127 0.65676 0.02641 0.0
O169 O 0.1552 0.64242 0.09213 0.0
O170 O 0.10714 0.65912 0.08828 0.0
O171 O 0.09925 0.62231 0.13929 0.0
C172 C 0.15512 0.52781 0.10554 0.0
C173 C 0.18629 0.54912 0.11983 0.0
H174 H 0.24315 0.59586 0.15216 0.0
H175 H 0.25285 0.64802 0.17994 0.0
H176 H 0.05334 0.51161 0.08918 0.0
H177 H 0.09212 0.49252 0.08383 0.0
H178 H 0.14926 0.50431 0.09447 0.0
H179 H 0.204 0.54176 0.11925 0.0
Mn180 Mn 0.48582 0.1477 0.58121 0.0
Mn181 Mn 0.5334 0.13252 0.6444 0.0
C182 C 0.52497 0.13988 0.54987 0.0
C183 C 0.47813 0.1881 0.55147 0.0
C184 C 0.46549 0.08238 0.62045 0.0
O185 O 0.47659 0.15756 0.64198 0.0
O186 O 0.51492 0.15394 0.67792 0.0
C187 C 0.58296 0.19992 0.65698 0.0
N188 N 0.57462 0.16977 0.64466 0.0
C189 C 0.62857 0.18608 0.62492 0.0
C190 C 0.6378 0.21725 0.63777 0.0
C191 C 0.61485 0.22421 0.6537 0.0
C192 C 0.59635 0.16298 0.62832 0.0
H193 H 0.56536 0.20541 0.66893 0.0
C194 C 0.4928 0.16085 0.67587 0.0
O195 O 0.45441 0.1592 0.55578 0.0
O196 O 0.50546 0.19307 0.5648 0.0
N197 N 0.55371 0.11178 0.61767 0.0
C198 C 0.54131 0.08004 0.61009 0.0
C199 C 0.56137 0.0687 0.59609 0.0
C200 C 0.59409 0.08994 0.59111 0.0
C201 C 0.60654 0.12227 0.60081 0.0
C202 C 0.58542 0.13211 0.61506 0.0
H203 H 0.5163 0.06345 0.6147 0.0
O204 O 0.50243 0.13893 0.52642 0.0
O205 O 0.52466 0.1468 0.59016 0.0
O206 O 0.45972 0.09955 0.59448 0.0
O207 O 0.49119 0.09312 0.64265 0.0
C208 C 0.63912 0.14503 0.59753 0.0
C209 C 0.65007 0.17701 0.60899 0.0
H210 H 0.6624 0.23601 0.6355 0.0
H211 H 0.62175 0.24825 0.66344 0.0
H212 H 0.55164 0.04366 0.58923 0.0
H213 H 0.60946 0.08114 0.5801 0.0
H214 H 0.65598 0.13817 0.58633 0.0
H215 H 0.67514 0.19434 0.60603 0.0
Mn216 Mn 0.54997 0.6781 0.94268 0.0
Mn217 Mn 0.50336 0.61671 0.87725 0.0
C218 C 0.50979 0.63069 0.97233 0.0
C219 C 0.55543 0.72566 0.97256 0.0
C220 C 0.57111 0.634 0.90274 0.0
O221 O 0.56102 0.69787 0.8824 0.0
O222 O 0.52229 0.65726 0.84498 0.0
C223 C 0.45388 0.63459 0.86462 0.0
N224 N 0.46211 0.61259 0.87638 0.0
C225 C 0.408 0.57464 0.89504 0.0
C226 C 0.39889 0.59677 0.88276 0.0
C227 C 0.42196 0.62693 0.86764 0.0
C228 C 0.44023 0.58381 0.89188 0.0
H229 H 0.4716 0.65787 0.85332 0.0
C230 C 0.54521 0.68589 0.84794 0.0
O231 O 0.57978 0.72131 0.97002 0.0
O232 O 0.52915 0.70301 0.95727 0.0
N233 N 0.48278 0.57513 0.9025 0.0
C234 C 0.49512 0.55568 0.90948 0.0
C235 C 0.47495 0.52404 0.92251 0.0
C236 C 0.44219 0.51246 0.92717 0.0
C237 C 0.42982 0.53249 0.91803 0.0
C238 C 0.45104 0.56366 0.90461 0.0
H239 H 0.52017 0.5642 0.90513 0.0
O240 O 0.53173 0.65199 0.99677 0.0
O241 O 0.51139 0.6385 0.93212 0.0
O242 O 0.57658 0.65613 0.93023 0.0
O243 O 0.54557 0.61981 0.88005 0.0
C244 C 0.39724 0.52265 0.92119 0.0
C245 C 0.38639 0.54385 0.91023 0.0
H246 H 0.37427 0.5909 0.88487 0.0
H247 H 0.41516 0.64421 0.85836 0.0
H248 H 0.48463 0.5086 0.92884 0.0
H249 H 0.42674 0.48811 0.9375 0.0
H250 H 0.38031 0.4988 0.93195 0.0
H251 H 0.36131 0.53608 0.91306 0.0
Mn252 Mn 0.88202 0.54255 0.44422 0.0
Mn253 Mn 0.92356 0.51768 0.38248 0.0
C254 C 0.88852 0.50097 0.47057 0.0
C255 C 0.83548 0.54212 0.46641 0.0
C256 C 0.95475 0.57777 0.4357 0.0
O257 O 0.87966 0.5591 0.38473 0.0
O258 O 0.90763 0.54132 0.34824 0.0
C259 C 0.87181 0.47254 0.32508 0.0
N260 N 0.89679 0.4794 0.3516 0.0
C261 C 0.89597 0.43101 0.33186 0.0
C262 C 0.87031 0.42348 0.30411 0.0
C263 C 0.85813 0.4443 0.30081 0.0
C264 C 0.90893 0.45972 0.35467 0.0
H265 H 0.86265 0.48867 0.32219 0.0
C266 C 0.89184 0.55586 0.35016 0.0
O267 O 0.86342 0.56698 0.47107 0.0
O268 O 0.83446 0.51763 0.44774 0.0
N269 N 0.94159 0.49447 0.40809 0.0
C270 C 0.96323 0.50315 0.44057 0.0
C271 C 0.97617 0.48365 0.45043 0.0
C272 C 0.96719 0.45586 0.42642 0.0
C273 C 0.945 0.44753 0.39294 0.0
C274 C 0.93313 0.46798 0.38424 0.0
H275 H 0.97044 0.52471 0.45875 0.0
O276 O 0.88428 0.51996 0.49558 0.0
O277 O 0.8906 0.50747 0.42897 0.0
O278 O 0.92958 0.57632 0.45044 0.0
O279 O 0.95473 0.55694 0.41095 0.0
C280 C 0.93311 0.41903 0.36922 0.0
C281 C 0.90866 0.41081 0.33864 0.0
H282 H 0.85955 0.4016 0.28559 0.0
H283 H 0.83834 0.43866 0.27948 0.0
H284 H 0.99294 0.48985 0.47657 0.0
H285 H 0.97698 0.44076 0.43459 0.0
H286 H 0.94198 0.40283 0.37509 0.0
H287 H 0.89923 0.38849 0.32131 0.0
Mn288 Mn 0.35616 0.87981 0.94348 0.0
Mn289 Mn 0.41779 0.89479 0.87772 0.0
C290 C 0.40431 0.88925 0.97301 0.0
C291 C 0.30878 0.83977 0.97553 0.0
C292 C 0.40085 0.94535 0.90342 0.0
O293 O 0.33538 0.86868 0.88369 0.0
O294 O 0.37732 0.87467 0.84548 0.0
C295 C 0.3973 0.82673 0.86466 0.0
N296 N 0.42011 0.85655 0.87661 0.0
C297 C 0.45597 0.83786 0.89605 0.0
C298 C 0.43299 0.80702 0.88344 0.0
C299 C 0.40347 0.80142 0.86782 0.0
C300 C 0.44822 0.862 0.89284 0.0
H301 H 0.37449 0.82226 0.85323 0.0
C302 C 0.3481 0.86672 0.84877 0.0
O303 O 0.31376 0.86855 0.97042 0.0
O304 O 0.331 0.83466 0.9619 0.0
N305 N 0.45956 0.91429 0.90205 0.0
C306 C 0.48094 0.94607 0.90445 0.0
C307 C 0.51274 0.95635 0.91518 0.0
C308 C 0.52236 0.93388 0.92298 0.0
C309 C 0.50053 0.90143 0.9174 0.0
C310 C 0.46943 0.89273 0.90523 0.0
H311 H 0.47383 0.9635 0.89779 0.0
O312 O 0.38293 0.89007 0.99711 0.0
O313 O 0.3961 0.88113 0.93315 0.0
O314 O 0.37753 0.92772 0.9286 0.0
O315 O 0.41632 0.93503 0.88131 0.0
C316 C 0.50881 0.87753 0.92131 0.0
C317 C 0.48638 0.84566 0.91122 0.0
H318 H 0.43777 0.7875 0.88553 0.0
H319 H 0.3855 0.77766 0.85827 0.0
H320 H 0.52976 0.98153 0.91769 0.0
H321 H 0.5468 0.94188 0.93181 0.0
H322 H 0.53253 0.88348 0.93129 0.0
H323 H 0.49305 0.82749 0.91414 0.0
Mn324 Mn 0.48472 0.34564 0.44361 0.0
Mn325 Mn 0.53269 0.40786 0.38014 0.0
C326 C 0.52409 0.39251 0.47495 0.0
C327 C 0.47731 0.29761 0.4733 0.0
C328 C 0.46453 0.39013 0.40287 0.0
O329 O 0.47523 0.32658 0.38285 0.0
O330 O 0.5146 0.36773 0.34694 0.0
C331 C 0.58257 0.39026 0.36968 0.0
N332 N 0.57402 0.41209 0.38096 0.0
C333 C 0.62774 0.45007 0.40127 0.0
C334 C 0.6372 0.42813 0.3894 0.0
C335 C 0.61447 0.39804 0.37372 0.0
C336 C 0.59553 0.44078 0.3971 0.0
H337 H 0.56512 0.36702 0.35807 0.0
C338 C 0.49181 0.33898 0.34906 0.0
O339 O 0.45347 0.30263 0.46924 0.0
O340 O 0.50449 0.32002 0.4597 0.0
N341 N 0.5526 0.44903 0.40657 0.0
C342 C 0.53992 0.46814 0.41388 0.0
C343 C 0.55971 0.49958 0.42794 0.0
C344 C 0.59246 0.51138 0.43317 0.0
C345 C 0.60519 0.49169 0.42384 0.0
C346 C 0.58433 0.46065 0.40961 0.0
H347 H 0.51489 0.45949 0.40906 0.0
O348 O 0.5015 0.37099 0.49844 0.0
O349 O 0.52357 0.38522 0.43465 0.0
O350 O 0.45879 0.36789 0.43015 0.0
O351 O 0.49032 0.40477 0.38077 0.0
C352 C 0.63779 0.50175 0.42767 0.0
C353 C 0.64899 0.48079 0.41702 0.0
H354 H 0.66181 0.4341 0.39232 0.0
H355 H 0.62152 0.38087 0.36479 0.0
H356 H 0.54974 0.51469 0.43471 0.0
H357 H 0.60761 0.53559 0.44424 0.0
H358 H 0.65446 0.52557 0.43878 0.0
H359 H 0.67406 0.48867 0.42056 0.0
Mn360 Mn 0.15535 0.48523 0.94331 0.0
Mn361 Mn 0.13921 0.53122 0.87804 0.0
C362 C 0.15125 0.52724 0.97273 0.0
C363 C 0.19638 0.4774 0.97084 0.0
C364 C 0.08887 0.46512 0.90909 0.0
O365 O 0.16007 0.47147 0.88261 0.0
O366 O 0.15678 0.50906 0.84408 0.0
C367 C 0.20603 0.57771 0.85623 0.0
N368 N 0.17737 0.5714 0.87237 0.0
C369 C 0.19736 0.62673 0.88852 0.0
C370 C 0.22709 0.63386 0.87195 0.0
C371 C 0.23144 0.60922 0.8558 0.0
C372 C 0.17307 0.59484 0.88862 0.0
H373 H 0.20949 0.5588 0.84395 0.0
C374 C 0.16136 0.48541 0.84718 0.0
O375 O 0.16701 0.45422 0.97011 0.0
O376 O 0.2015 0.50417 0.95487 0.0
N377 N 0.12164 0.55459 0.90461 0.0
C378 C 0.09047 0.54421 0.91365 0.0
C379 C 0.08135 0.56613 0.92727 0.0
C380 C 0.10421 0.59862 0.93029 0.0
C381 C 0.13581 0.60897 0.91862 0.0
C382 C 0.14335 0.58604 0.90472 0.0
H383 H 0.07269 0.51936 0.91056 0.0
O384 O 0.15095 0.50558 0.99748 0.0
O385 O 0.15552 0.52447 0.93198 0.0
O386 O 0.10644 0.45991 0.9351 0.0
O387 O 0.09924 0.49014 0.88545 0.0
C388 C 0.15994 0.6412 0.91915 0.0
C389 C 0.19079 0.65004 0.90454 0.0
H390 H 0.24668 0.65816 0.87133 0.0
H391 H 0.25431 0.61452 0.843 0.0
H392 H 0.05678 0.55802 0.93535 0.0
H393 H 0.09715 0.61545 0.94102 0.0
H394 H 0.15493 0.65943 0.93029 0.0
H395 H 0.20913 0.67491 0.90498 0.0
Mn396 Mn 0.68038 0.14781 0.44345 0.0
Mn397 Mn 0.61983 0.13183 0.37548 0.0
C398 C 0.63181 0.13827 0.4708 0.0
C399 C 0.72639 0.18772 0.47765 0.0
C400 C 0.63899 0.08289 0.40077 0.0
O401 O 0.70202 0.15939 0.38428 0.0
O402 O 0.66083 0.1541 0.34449 0.0
C403 C 0.6365 0.19887 0.36222 0.0
N404 N 0.61489 0.16855 0.37405 0.0
C405 C 0.57626 0.18393 0.39227 0.0
C406 C 0.59801 0.21528 0.37995 0.0
C407 C 0.62829 0.22279 0.36497 0.0
C408 C 0.58592 0.1612 0.38924 0.0
H409 H 0.6599 0.20479 0.35109 0.0
C410 C 0.69001 0.16198 0.34898 0.0
O411 O 0.72198 0.15917 0.47222 0.0
O412 O 0.70453 0.19289 0.46262 0.0
N413 N 0.57806 0.11024 0.39993 0.0
C414 C 0.55913 0.07843 0.40735 0.0
C415 C 0.52747 0.06658 0.42046 0.0
C416 C 0.5154 0.08741 0.42493 0.0
C417 C 0.53496 0.11983 0.4155 0.0
C418 C 0.56614 0.13016 0.40192 0.0
H419 H 0.56809 0.0622 0.40335 0.0
O420 O 0.65254 0.13712 0.4959 0.0
O421 O 0.6407 0.14616 0.43114 0.0
O422 O 0.66047 0.10012 0.4284 0.0
O423 O 0.62364 0.09295 0.37812 0.0
C424 C 0.52465 0.14226 0.41866 0.0
C425 C 0.54542 0.17437 0.4075 0.0
H426 H 0.59174 0.23377 0.38194 0.0
H427 H 0.64527 0.24696 0.35564 0.0
H428 H 0.51242 0.04147 0.42714 0.0
H429 H 0.49107 0.07823 0.4354 0.0
H430 H 0.5008 0.13506 0.4296 0.0
H431 H 0.5373 0.19143 0.41029 0.0
Mn432 Mn 0.685 0.54431 0.9439 0.0
Mn433 Mn 0.6233 0.49636 0.87952 0.0
C434 C 0.6379 0.50431 0.97438 0.0
C435 C 0.733 0.55209 0.97456 0.0
C436 C 0.6402 0.56434 0.90329 0.0
O437 O 0.70459 0.55424 0.88331 0.0
O438 O 0.66352 0.51537 0.84669 0.0
C439 C 0.64179 0.44723 0.86739 0.0
N440 N 0.6197 0.45526 0.87927 0.0
C441 C 0.5822 0.40105 0.8983 0.0
C442 C 0.60445 0.39214 0.88596 0.0
C443 C 0.63443 0.41537 0.8706 0.0
C444 C 0.59109 0.43325 0.89503 0.0
H445 H 0.66492 0.46506 0.85582 0.0
C446 C 0.69225 0.5381 0.84913 0.0
O447 O 0.72768 0.57574 0.97024 0.0
O448 O 0.71091 0.52481 0.96066 0.0
N449 N 0.58194 0.47558 0.90527 0.0
C450 C 0.56225 0.48767 0.91196 0.0
C451 C 0.53071 0.46729 0.92508 0.0
C452 C 0.51946 0.43457 0.93006 0.0
C453 C 0.53972 0.42245 0.92116 0.0
C454 C 0.57079 0.44387 0.90772 0.0
H455 H 0.5705 0.51267 0.90729 0.0
O456 O 0.65906 0.5269 0.99825 0.0
O457 O 0.64563 0.50513 0.93423 0.0
O458 O 0.6627 0.57034 0.93021 0.0
O459 O 0.62577 0.53839 0.88145 0.0
C460 C 0.53014 0.38988 0.9244 0.0
C461 C 0.55152 0.37925 0.91355 0.0
H462 H 0.59878 0.36755 0.88815 0.0
H463 H 0.65179 0.40871 0.86122 0.0
H464 H 0.51508 0.47677 0.9312 0.0
H465 H 0.49517 0.41895 0.9404 0.0
H466 H 0.50635 0.37279 0.93507 0.0
H467 H 0.54395 0.35419 0.91643 0.0
Mn468 Mn 0.15854 0.68334 0.44468 0.0
Mn469 Mn 0.11791 0.6167 0.38293 0.0
C470 C 0.15259 0.63551 0.47132 0.0
C471 C 0.20491 0.7299 0.46638 0.0
C472 C 0.0859 0.645 0.43578 0.0
O473 O 0.16055 0.70204 0.38509 0.0
O474 O 0.13376 0.65614 0.34852 0.0
C475 C 0.17023 0.6237 0.32642 0.0
N476 N 0.1451 0.60545 0.35265 0.0
C477 C 0.14634 0.55804 0.33334 0.0
C478 C 0.17215 0.57628 0.30586 0.0
C479 C 0.1842 0.60927 0.30249 0.0
C480 C 0.13311 0.57365 0.35581 0.0
H481 H 0.1793 0.64899 0.32352 0.0
C482 C 0.14895 0.68648 0.35044 0.0
O483 O 0.17686 0.72648 0.47134 0.0
O484 O 0.20609 0.70649 0.44782 0.0
N485 N 0.1 0.57552 0.40872 0.0
C486 C 0.07804 0.56241 0.44082 0.0
C487 C 0.06508 0.52994 0.4506 0.0
C488 C 0.07442 0.51127 0.42696 0.0
C489 C 0.09693 0.52528 0.39387 0.0
C490 C 0.10876 0.5576 0.38517 0.0
H491 H 0.07054 0.57664 0.45871 0.0
O492 O 0.15673 0.65878 0.49616 0.0
O493 O 0.15048 0.63981 0.42969 0.0
O494 O 0.1108 0.6688 0.45101 0.0
O495 O 0.08639 0.62453 0.4108 0.0
C496 C 0.1091 0.5088 0.37045 0.0
C497 C 0.13375 0.52515 0.34016 0.0
H498 H 0.18314 0.56528 0.28759 0.0
H499 H 0.20411 0.6235 0.28139 0.0
H500 H 0.04798 0.51924 0.47634 0.0
H501 H 0.0646 0.48636 0.43506 0.0
H502 H 0.10028 0.48373 0.37633 0.0
H503 H 0.14339 0.51236 0.32308 0.0
Mn504 Mn 0.49104 0.14943 0.94428 0.0
Mn505 Mn 0.53675 0.13345 0.87837 0.0
C506 C 0.53091 0.14167 0.97349 0.0
C507 C 0.48411 0.19034 0.97452 0.0
C508 C 0.46924 0.08378 0.90479 0.0
O509 O 0.48033 0.1587 0.88408 0.0
O510 O 0.51808 0.15532 0.84621 0.0
C511 C 0.58677 0.20056 0.86495 0.0
N512 N 0.57823 0.17031 0.87702 0.0
C513 C 0.63227 0.18598 0.89528 0.0
C514 C 0.6417 0.21724 0.88269 0.0
C515 C 0.61881 0.22458 0.86762 0.0
C516 C 0.59994 0.16316 0.89246 0.0
H517 H 0.5692 0.20634 0.85369 0.0
C518 C 0.49585 0.16201 0.84948 0.0
O519 O 0.46034 0.16138 0.97116 0.0
O520 O 0.51115 0.19511 0.96019 0.0
N521 N 0.55704 0.1122 0.90371 0.0
C522 C 0.54438 0.08039 0.91111 0.0
C523 C 0.56431 0.06866 0.92419 0.0
C524 C 0.59717 0.08959 0.92846 0.0
C525 C 0.60984 0.12199 0.91894 0.0
C526 C 0.58884 0.1322 0.90551 0.0
H527 H 0.51925 0.06405 0.9071 0.0
O528 O 0.50906 0.14113 0.99809 0.0
O529 O 0.52947 0.14814 0.9333 0.0
O530 O 0.46442 0.1011 0.93174 0.0
O531 O 0.4943 0.09438 0.88124 0.0
C532 C 0.64253 0.14449 0.92178 0.0
C533 C 0.65369 0.17655 0.91048 0.0
H534 H 0.66641 0.2358 0.88454 0.0
H535 H 0.62586 0.24869 0.85808 0.0
H536 H 0.55438 0.04355 0.93091 0.0
H537 H 0.61244 0.08051 0.93884 0.0
H538 H 0.65929 0.13738 0.93255 0.0
H539 H 0.67884 0.19367 0.91306 0.0
Mn540 Mn 0.36053 0.4891 0.44262 0.0
Mn541 Mn 0.42067 0.53186 0.37311 0.0
C542 C 0.40967 0.52809 0.4687 0.0
C543 C 0.31562 0.48483 0.47778 0.0
C544 C 0.40111 0.46411 0.401 0.0
O545 O 0.33816 0.47826 0.38393 0.0
O546 O 0.37941 0.51248 0.34282 0.0
C547 C 0.40383 0.58191 0.35791 0.0
N548 N 0.42557 0.57347 0.37008 0.0
C549 C 0.4642 0.62782 0.38676 0.0
C550 C 0.44232 0.63713 0.37408 0.0
C551 C 0.41197 0.61405 0.35969 0.0
C552 C 0.4546 0.5954 0.38474 0.0
H553 H 0.38038 0.5642 0.34726 0.0
C554 C 0.35011 0.49181 0.34804 0.0
O555 O 0.31904 0.46005 0.47278 0.0
O556 O 0.33749 0.51122 0.46127 0.0
N557 N 0.46275 0.55259 0.39651 0.0
C558 C 0.482 0.54001 0.40332 0.0
C559 C 0.51384 0.56015 0.41537 0.0
C560 C 0.52578 0.59307 0.41931 0.0
C561 C 0.50593 0.60564 0.41022 0.0
C562 C 0.47457 0.58445 0.39766 0.0
H563 H 0.47312 0.5148 0.39965 0.0
O564 O 0.38893 0.50677 0.49441 0.0
O565 O 0.40048 0.52659 0.42908 0.0
O566 O 0.37963 0.46045 0.42831 0.0
O567 O 0.41674 0.48918 0.37773 0.0
C568 C 0.51614 0.63839 0.41254 0.0
C569 C 0.49517 0.64944 0.40127 0.0
H570 H 0.44855 0.66192 0.37528 0.0
H571 H 0.39488 0.62102 0.35007 0.0
H572 H 0.52916 0.55036 0.42158 0.0
H573 H 0.55027 0.60848 0.42894 0.0
H574 H 0.54011 0.65529 0.42278 0.0
H575 H 0.50325 0.67465 0.40328 0.0
Mn576 Mn 0.88466 0.34931 0.94301 0.0
Mn577 Mn 0.90061 0.4111 0.87711 0.0
C578 C 0.88868 0.39552 0.97195 0.0
C579 C 0.84367 0.30049 0.97093 0.0
C580 C 0.95114 0.39585 0.90872 0.0
O581 O 0.88006 0.33055 0.8825 0.0
O582 O 0.88334 0.37123 0.84349 0.0
C583 C 0.83368 0.39011 0.85514 0.0
N584 N 0.86227 0.41272 0.87117 0.0
C585 C 0.84181 0.44769 0.88706 0.0
C586 C 0.81215 0.42483 0.8706 0.0
C587 C 0.80807 0.3959 0.85463 0.0
C588 C 0.86631 0.44041 0.88725 0.0
H589 H 0.83043 0.36779 0.84302 0.0
C590 C 0.87887 0.34305 0.84689 0.0
O591 O 0.87306 0.30676 0.97028 0.0
O592 O 0.83851 0.32201 0.95464 0.0
N593 N 0.91791 0.45217 0.90321 0.0
C594 C 0.94906 0.47328 0.9119 0.0
C595 C 0.95793 0.50434 0.9252 0.0
C596 C 0.93485 0.51365 0.92825 0.0
C597 C 0.90326 0.49207 0.91686 0.0
C598 C 0.89598 0.46162 0.90323 0.0
H599 H 0.96701 0.46645 0.90878 0.0
O600 O 0.88899 0.37427 0.99692 0.0
O601 O 0.8844 0.38829 0.93126 0.0
O602 O 0.9336 0.37307 0.93478 0.0
O603 O 0.94071 0.41035 0.88489 0.0
C604 C 0.87892 0.49985 0.91737 0.0
C605 C 0.84811 0.47754 0.90291 0.0
H606 H 0.7924 0.42928 0.86992 0.0
H607 H 0.78526 0.37811 0.84191 0.0
H608 H 0.98249 0.52105 0.93302 0.0
H609 H 0.94172 0.53755 0.93875 0.0
H610 H 0.88371 0.52305 0.92835 0.0
H611 H 0.82961 0.48383 0.9033 0.0
Mn612 Mn 0.55494 0.88103 0.44205 0.0
Mn613 Mn 0.50672 0.89454 0.37788 0.0
C614 C 0.51594 0.88927 0.47265 0.0
C615 C 0.56268 0.84175 0.47485 0.0
C616 C 0.57475 0.94543 0.40005 0.0
O617 O 0.56384 0.86985 0.38196 0.0
O618 O 0.52579 0.87334 0.34504 0.0
C619 C 0.45797 0.82667 0.36687 0.0
N620 N 0.46583 0.85682 0.37849 0.0
C621 C 0.4119 0.83965 0.39944 0.0
C622 C 0.40317 0.80846 0.38737 0.0
C623 C 0.42635 0.80193 0.37115 0.0
C624 C 0.44387 0.86322 0.39499 0.0
H625 H 0.47576 0.82151 0.35475 0.0
C626 C 0.54792 0.86647 0.34774 0.0
O627 O 0.58656 0.87032 0.46865 0.0
O628 O 0.53534 0.83617 0.46075 0.0
N629 N 0.48588 0.91498 0.40399 0.0
C630 C 0.49776 0.94673 0.41082 0.0
C631 C 0.47736 0.95763 0.42492 0.0
C632 C 0.44484 0.93592 0.43085 0.0
C633 C 0.43291 0.90355 0.42194 0.0
C634 C 0.45433 0.89417 0.40745 0.0
H635 H 0.52262 0.96363 0.40556 0.0
O636 O 0.53883 0.89109 0.49617 0.0
O637 O 0.51594 0.88141 0.43269 0.0
O638 O 0.58087 0.92884 0.42663 0.0
O639 O 0.54862 0.93438 0.37878 0.0
C640 C 0.40057 0.8803 0.42631 0.0
C641 C 0.39014 0.84828 0.41565 0.0
H642 H 0.37878 0.78935 0.39049 0.0
H643 H 0.41984 0.77789 0.362 0.0
H644 H 0.48667 0.98269 0.43119 0.0
H645 H 0.42922 0.94439 0.442 0.0
H646 H 0.38349 0.8868 0.43776 0.0
H647 H 0.36525 0.83057 0.41947 0.0
Mn648 Mn 0.48922 0.34826 0.08038 0.0
Mn649 Mn 0.53365 0.41022 0.14664 0.0
C650 C 0.52928 0.39606 0.05169 0.0
C651 C 0.48311 0.30063 0.05054 0.0
C652 C 0.46633 0.39173 0.11821 0.0
O653 O 0.47795 0.32821 0.14057 0.0
O654 O 0.51466 0.36971 0.17909 0.0
C655 C 0.58375 0.39359 0.16234 0.0
N656 N 0.57523 0.41515 0.1495 0.0
C657 C 0.62945 0.45368 0.13222 0.0
C658 C 0.63885 0.43202 0.14575 0.0
C659 C 0.61586 0.40179 0.16072 0.0
C660 C 0.59705 0.44401 0.13413 0.0
H661 H 0.56612 0.37024 0.17333 0.0
C662 C 0.49281 0.34062 0.17552 0.0
O663 O 0.45915 0.30556 0.05312 0.0
O664 O 0.50987 0.32302 0.06544 0.0
N665 N 0.55414 0.45168 0.12102 0.0
C666 C 0.54142 0.47062 0.11244 0.0
C667 C 0.56141 0.50222 0.09912 0.0
C668 C 0.59434 0.5143 0.09575 0.0
C669 C 0.60703 0.4948 0.10642 0.0
C670 C 0.58598 0.46365 0.12009 0.0
H671 H 0.51622 0.46171 0.11571 0.0
O672 O 0.50779 0.37469 0.02677 0.0
O673 O 0.52735 0.38817 0.09196 0.0
O674 O 0.46205 0.36955 0.09165 0.0
O675 O 0.4911 0.40652 0.14221 0.0
C676 C 0.63978 0.50515 0.10448 0.0
C677 C 0.65094 0.48446 0.11689 0.0
H678 H 0.66362 0.4383 0.14466 0.0
H679 H 0.62287 0.38483 0.17092 0.0
H680 H 0.55148 0.51723 0.0915 0.0
H681 H 0.60964 0.53861 0.08516 0.0
H682 H 0.65659 0.52897 0.09354 0.0
H683 H 0.67614 0.49261 0.11499 0.0
Mn684 Mn 0.16035 0.48577 0.57822 0.0
Mn685 Mn 0.12129 0.51541 0.63556 0.0
C686 C 0.15574 0.52785 0.55021 0.0
C687 C 0.20619 0.48397 0.55783 0.0
C688 C 0.08734 0.45505 0.58365 0.0
O689 O 0.16122 0.47008 0.63879 0.0
O690 O 0.13212 0.48826 0.67182 0.0
C691 C 0.17205 0.55607 0.69742 0.0
N692 N 0.15017 0.55258 0.66718 0.0
C693 C 0.15685 0.60399 0.68431 0.0
C694 C 0.17939 0.60809 0.71571 0.0
C695 C 0.18717 0.5841 0.72208 0.0
C696 C 0.14273 0.57563 0.66053 0.0
H697 H 0.17765 0.53748 0.70306 0.0
C698 C 0.14744 0.47312 0.67189 0.0
O699 O 0.17787 0.45962 0.55311 0.0
O700 O 0.20786 0.50901 0.57558 0.0
N701 N 0.10919 0.54254 0.60643 0.0
C702 C 0.08765 0.5353 0.57404 0.0
C703 C 0.07854 0.55758 0.56218 0.0
C704 C 0.09134 0.58683 0.5839 0.0
C705 C 0.11297 0.59349 0.61766 0.0
C706 C 0.12124 0.57045 0.62804 0.0
H707 H 0.07726 0.51257 0.5578 0.0
O708 O 0.15966 0.50846 0.52552 0.0
O709 O 0.15401 0.52209 0.5917 0.0
O710 O 0.11192 0.4536 0.57248 0.0
O711 O 0.08854 0.47775 0.60556 0.0
C712 C 0.12653 0.62203 0.64155 0.0
C713 C 0.14835 0.62723 0.67498 0.0
H714 H 0.19105 0.62964 0.73486 0.0
H715 H 0.20452 0.58705 0.74629 0.0
H716 H 0.06115 0.55207 0.53704 0.0
H717 H 0.08414 0.60385 0.57466 0.0
H718 H 0.12049 0.64023 0.63432 0.0
H719 H 0.15886 0.64939 0.69282 0.0
Mn720 Mn 0.6866 0.14944 0.08083 0.0
Mn721 Mn 0.62384 0.13201 0.14549 0.0
C722 C 0.63898 0.14115 0.05084 0.0
C723 C 0.73422 0.19055 0.0505 0.0
C724 C 0.64313 0.08331 0.11935 0.0
O725 O 0.70608 0.15907 0.14147 0.0
O726 O 0.66387 0.15391 0.17854 0.0
C727 C 0.63978 0.19871 0.16005 0.0
N728 N 0.61857 0.16851 0.14723 0.0
C729 C 0.57973 0.1836 0.12907 0.0
C730 C 0.60104 0.21481 0.14241 0.0
C731 C 0.63125 0.22241 0.15781 0.0
C732 C 0.58974 0.16112 0.13146 0.0
H733 H 0.6631 0.20469 0.1716 0.0
C734 C 0.69307 0.16154 0.17588 0.0
O735 O 0.72945 0.16176 0.05441 0.0
O736 O 0.71178 0.19514 0.06468 0.0
N737 N 0.58269 0.11061 0.11918 0.0
C738 C 0.5641 0.07888 0.11083 0.0
C739 C 0.53254 0.06691 0.09717 0.0
C740 C 0.52013 0.08749 0.09337 0.0
C741 C 0.53928 0.11979 0.10382 0.0
C742 C 0.57043 0.13026 0.11768 0.0
H743 H 0.57324 0.06279 0.1145 0.0
O744 O 0.66057 0.14082 0.02664 0.0
O745 O 0.64649 0.14757 0.09113 0.0
O746 O 0.66557 0.10113 0.09314 0.0
O747 O 0.62787 0.09327 0.14241 0.0
C748 C 0.52857 0.14193 0.10148 0.0
C749 C 0.54892 0.17392 0.11356 0.0
H750 H 0.59449 0.23312 0.14093 0.0
H751 H 0.64791 0.24648 0.16794 0.0
H752 H 0.51783 0.04189 0.08964 0.0
H753 H 0.49585 0.07821 0.08259 0.0
H754 H 0.5047 0.13459 0.09048 0.0
H755 H 0.5405 0.19077 0.11133 0.0
Mn756 Mn 0.55623 0.68366 0.5783 0.0
Mn757 Mn 0.5115 0.61955 0.64074 0.0
C758 C 0.51687 0.63698 0.5466 0.0
C759 C 0.56228 0.73223 0.55311 0.0
C760 C 0.57953 0.64032 0.61348 0.0
O761 O 0.56669 0.70127 0.63995 0.0
O762 O 0.52845 0.65883 0.67532 0.0
C763 C 0.4595 0.6334 0.65671 0.0
N764 N 0.46929 0.61302 0.64289 0.0
C765 C 0.41579 0.57327 0.62434 0.0
C766 C 0.40508 0.59372 0.6387 0.0
C767 C 0.42706 0.62397 0.65479 0.0
C768 C 0.44845 0.58418 0.62646 0.0
H769 H 0.47635 0.65674 0.66884 0.0
C770 C 0.55059 0.68788 0.67378 0.0
O771 O 0.58631 0.72735 0.55398 0.0
O772 O 0.53543 0.70906 0.56648 0.0
N773 N 0.49282 0.57904 0.61265 0.0
C774 C 0.50685 0.56159 0.60224 0.0
C775 C 0.48804 0.53032 0.58705 0.0
C776 C 0.4549 0.51685 0.5841 0.0
C777 C 0.44086 0.53483 0.59649 0.0
C778 C 0.46081 0.56586 0.61148 0.0
H779 H 0.53221 0.57149 0.60526 0.0
O780 O 0.53838 0.65944 0.5229 0.0
O781 O 0.51831 0.64325 0.58743 0.0
O782 O 0.58346 0.66232 0.58692 0.0
O783 O 0.55482 0.62493 0.6374 0.0
C784 C 0.40784 0.52313 0.59472 0.0
C785 C 0.39535 0.54251 0.60804 0.0
H786 H 0.38006 0.58647 0.63743 0.0
H787 H 0.41901 0.63996 0.66569 0.0
H788 H 0.49909 0.51671 0.57743 0.0
H789 H 0.44051 0.49276 0.57218 0.0
H790 H 0.39184 0.49928 0.58308 0.0
H791 H 0.36997 0.5334 0.60604 0.0
Mn792 Mn 0.8852 0.54609 0.07967 0.0
Mn793 Mn 0.90272 0.50119 0.14501 0.0
C794 C 0.89017 0.5045 0.05036 0.0
C795 C 0.84361 0.55311 0.05238 0.0
C796 C 0.95185 0.56789 0.11426 0.0
O797 O 0.87998 0.55939 0.14048 0.0
O798 O 0.88341 0.52177 0.17875 0.0
C799 C 0.83638 0.45264 0.16588 0.0
N800 N 0.86552 0.46019 0.15016 0.0
C801 C 0.84782 0.40529 0.13405 0.0
C802 C 0.81764 0.39689 0.15021 0.0
C803 C 0.81189 0.42069 0.16612 0.0
C804 C 0.87115 0.43756 0.13414 0.0
H805 H 0.83184 0.47088 0.17796 0.0
C806 C 0.8782 0.54502 0.1757 0.0
O807 O 0.87283 0.57659 0.05303 0.0
O808 O 0.83896 0.52644 0.06814 0.0
N809 N 0.92188 0.47932 0.11837 0.0
C810 C 0.95322 0.49101 0.10893 0.0
C811 C 0.96361 0.4701 0.09522 0.0
C812 C 0.94187 0.43729 0.09249 0.0
C813 C 0.91006 0.42563 0.10438 0.0
C814 C 0.90121 0.44759 0.1183 0.0
H815 H 0.97019 0.51612 0.1118 0.0
O816 O 0.89001 0.52591 0.02553 0.0
O817 O 0.88596 0.50735 0.09108 0.0
O818 O 0.93404 0.57225 0.08768 0.0
O819 O 0.94192 0.54318 0.13842 0.0
C820 C 0.88694 0.39302 0.1038 0.0
C821 C 0.85574 0.38289 0.11819 0.0
H822 H 0.79875 0.37225 0.15066 0.0
H823 H 0.78866 0.41442 0.17858 0.0
H824 H 0.98833 0.47924 0.08688 0.0
H825 H 0.94991 0.42124 0.0817 0.0
H826 H 0.89298 0.37552 0.09268 0.0
H827 H 0.83818 0.35776 0.11763 0.0
Mn828 Mn 0.35996 0.87845 0.58085 0.0
Mn829 Mn 0.42122 0.89643 0.64843 0.0
C830 C 0.4086 0.88864 0.55336 0.0
C831 C 0.31479 0.83776 0.54648 0.0
C832 C 0.40168 0.94458 0.62069 0.0
O833 O 0.33839 0.86706 0.64004 0.0
O834 O 0.38044 0.87535 0.68032 0.0
C835 C 0.40402 0.82955 0.66481 0.0
N836 N 0.42574 0.85948 0.65169 0.0
C837 C 0.46341 0.84284 0.63335 0.0
C838 C 0.44154 0.8119 0.64705 0.0
C839 C 0.41168 0.80522 0.66277 0.0
C840 C 0.4543 0.86602 0.63581 0.0
H841 H 0.38092 0.82423 0.67633 0.0
C842 C 0.35098 0.86635 0.67579 0.0
O843 O 0.31817 0.86593 0.55174 0.0
O844 O 0.33681 0.83326 0.56246 0.0
N845 N 0.4628 0.91702 0.62331 0.0
C846 C 0.48207 0.94864 0.61494 0.0
C847 C 0.51347 0.95977 0.60119 0.0
C848 C 0.52493 0.93841 0.59699 0.0
C849 C 0.50508 0.90623 0.60747 0.0
C850 C 0.47422 0.89667 0.62178 0.0
H851 H 0.47354 0.96525 0.61863 0.0
O852 O 0.38755 0.88919 0.52829 0.0
O853 O 0.40001 0.88095 0.59319 0.0
O854 O 0.37921 0.92624 0.59489 0.0
O855 O 0.41775 0.93539 0.64344 0.0
C856 C 0.51481 0.88334 0.60479 0.0
C857 C 0.49385 0.85157 0.61727 0.0
H858 H 0.44739 0.79308 0.64554 0.0
H859 H 0.39458 0.78135 0.67314 0.0
H860 H 0.52878 0.98471 0.59374 0.0
H861 H 0.54905 0.94702 0.58597 0.0
H862 H 0.53837 0.88992 0.59326 0.0
H863 H 0.50154 0.83415 0.61488 0.0
C864 C 0.32733 0.50333 0.23904 0.0
C865 C 0.32966 0.47944 0.21642 0.0
C866 C 0.3282 0.50431 0.28426 0.0
C867 C 0.33133 0.48136 0.30809 0.0
H868 H 0.32909 0.52359 0.22178 0.0
H869 H 0.33064 0.52529 0.30024 0.0
S870 S 0.33243 0.41094 0.26422 0.0
N871 N 0.33026 0.42982 0.22112 0.0
N872 N 0.33177 0.43158 0.30623 0.0
C873 C 0.32903 0.45499 0.28606 0.0
C874 C 0.32821 0.45403 0.24 0.0
C875 C 0.85688 0.31902 0.73261 0.0
C876 C 0.88717 0.32955 0.71472 0.0
C877 C 0.85276 0.31876 0.7775 0.0
C878 C 0.87857 0.32789 0.80567 0.0
H879 H 0.83722 0.31501 0.71191 0.0
H880 H 0.83018 0.31474 0.78992 0.0
S881 S 0.96106 0.351 0.77479 0.0
N882 N 0.9422 0.34506 0.72834 0.0
N883 N 0.93414 0.34289 0.81274 0.0
C884 C 0.90785 0.33417 0.78818 0.0
C885 C 0.91226 0.33541 0.74257 0.0
C886 C 0.53359 0.83226 0.28339 0.0
C887 C 0.55712 0.85828 0.30661 0.0
C888 C 0.53363 0.83226 0.23817 0.0
C889 C 0.55711 0.85836 0.21497 0.0
H890 H 0.51296 0.8138 0.30003 0.0
H891 H 0.51301 0.81379 0.22153 0.0
S892 S 0.6268 0.92943 0.26082 0.0
N893 N 0.60699 0.90828 0.30339 0.0
N894 N 0.60694 0.90838 0.21824 0.0
C895 C 0.58305 0.88225 0.23776 0.0
C896 C 0.58308 0.8822 0.28384 0.0
C897 C 0.71207 0.52451 0.78392 0.0
C898 C 0.7093 0.54771 0.80769 0.0
C899 C 0.71184 0.52473 0.73867 0.0
C900 C 0.70857 0.54801 0.7159 0.0
H901 H 0.71039 0.50395 0.80023 0.0
H902 H 0.70999 0.50433 0.72171 0.0
S903 S 0.70614 0.61688 0.76308 0.0
N904 N 0.70818 0.59714 0.80527 0.0
N905 N 0.70734 0.59732 0.72013 0.0
C906 C 0.71017 0.57361 0.73918 0.0
C907 C 0.71063 0.57351 0.78528 0.0
C908 C 0.18669 0.71059 0.29033 0.0
C909 C 0.15719 0.70292 0.30858 0.0
C910 C 0.1904 0.71077 0.24539 0.0
C911 C 0.16497 0.70419 0.21756 0.0
H912 H 0.2056 0.71223 0.31069 0.0
H913 H 0.21197 0.71245 0.23261 0.0
S914 S 0.08506 0.68887 0.24957 0.0
N915 N 0.10371 0.69291 0.29574 0.0
N916 N 0.11108 0.69466 0.21124 0.0
C917 C 0.13691 0.70092 0.23544 0.0
C918 C 0.13289 0.69992 0.28112 0.0
C919 C 0.50996 0.19583 0.78482 0.0
C920 C 0.48633 0.17036 0.80873 0.0
C921 C 0.50908 0.19558 0.73965 0.0
C922 C 0.4846 0.16981 0.71717 0.0
H923 H 0.53121 0.21393 0.80079 0.0
H924 H 0.52969 0.21351 0.72237 0.0
S925 S 0.41411 0.10068 0.76514 0.0
N926 N 0.43527 0.12155 0.8071 0.0
N927 N 0.43368 0.12103 0.72195 0.0
C928 C 0.45861 0.14668 0.74075 0.0
C929 C 0.45947 0.14696 0.78682 0.0
C930 C 0.53418 0.70667 0.73705 0.0
C931 C 0.55854 0.70465 0.71535 0.0
C932 C 0.53264 0.70594 0.7822 0.0
C933 C 0.55549 0.70333 0.8069 0.0
H934 H 0.51411 0.7047 0.71911 0.0
H935 H 0.51144 0.70345 0.79753 0.0
S936 S 0.62682 0.70293 0.76554 0.0
N937 N 0.60831 0.70462 0.72173 0.0
N938 N 0.60555 0.70349 0.80681 0.0
C939 C 0.58221 0.70577 0.78577 0.0
C940 C 0.58371 0.70639 0.73973 0.0
C941 C 0.90823 0.58463 0.2806 0.0
C942 C 0.88352 0.564 0.30827 0.0
C943 C 0.90427 0.58211 0.23565 0.0
C944 C 0.87577 0.55832 0.21717 0.0
H945 H 0.93174 0.60035 0.29355 0.0
H946 H 0.92494 0.59592 0.21546 0.0
S947 S 0.80266 0.50171 0.27574 0.0
N948 N 0.82829 0.52238 0.31424 0.0
N949 N 0.82139 0.51661 0.22968 0.0
C950 C 0.84991 0.54004 0.24448 0.0
C951 C 0.85367 0.54317 0.29021 0.0
C952 C 0.33234 0.88355 0.7386 0.0
C953 C 0.33261 0.85849 0.71611 0.0
C954 C 0.33127 0.88354 0.7839 0.0
C955 C 0.33047 0.85849 0.80778 0.0
H956 H 0.33731 0.90509 0.7216 0.0
H957 H 0.33559 0.90513 0.80018 0.0
S958 S 0.32249 0.78394 0.76349 0.0
N959 N 0.32564 0.80545 0.72046 0.0
N960 N 0.3233 0.80529 0.80552 0.0
C961 C 0.32578 0.83131 0.78537 0.0
C962 C 0.327 0.83138 0.73939 0.0
C963 C 0.45761 0.32144 0.28457 0.0
C964 C 0.4827 0.32183 0.30774 0.0
C965 C 0.45784 0.32187 0.23923 0.0
C966 C 0.48313 0.32259 0.21614 0.0
H967 H 0.44017 0.32525 0.30128 0.0
H968 H 0.4406 0.326 0.2226 0.0
S969 S 0.54977 0.31561 0.26193 0.0
N970 N 0.52978 0.3166 0.30448 0.0
N971 N 0.53008 0.31714 0.21937 0.0
C972 C 0.50552 0.31806 0.23893 0.0
C973 C 0.50534 0.31775 0.28489 0.0
C974 C 0.18416 0.48451 0.73302 0.0
C975 C 0.15403 0.46467 0.71475 0.0
C976 C 0.18798 0.48804 0.77797 0.0
C977 C 0.16203 0.47096 0.8058 0.0
H978 H 0.20389 0.50045 0.71261 0.0
H979 H 0.21041 0.50665 0.79073 0.0
S980 S 0.07992 0.41126 0.77381 0.0
N981 N 0.09903 0.42465 0.72762 0.0
N982 N 0.10655 0.42997 0.81212 0.0
C983 C 0.13294 0.4479 0.7879 0.0
C984 C 0.12883 0.44505 0.74224 0.0
C985 C 0.71104 0.19628 0.28488 0.0
C986 C 0.70848 0.17045 0.30873 0.0
C987 C 0.71204 0.19623 0.23968 0.0
C988 C 0.71035 0.17028 0.2171 0.0
H989 H 0.70814 0.21455 0.30084 0.0
H990 H 0.70984 0.21447 0.2224 0.0
S991 S 0.70922 0.09981 0.26499 0.0
N992 N 0.70929 0.12085 0.30696 0.0
N993 N 0.71098 0.12067 0.22186 0.0
C994 C 0.71236 0.14664 0.24071 0.0
C995 C 0.71144 0.14674 0.28677 0.0
C996 C 0.25216 0.50348 0.99798 0.0
C997 C 0.22329 0.47511 0.99051 0.0
C998 C 0.27827 0.50336 0.01688 0.0
C999 C 0.27715 0.47485 0.02905 0.0
H1000 H 0.25473 0.52634 0.98956 0.0
H1001 H 0.29969 0.5261 0.02182 0.0
S1002 S 0.20751 0.39367 0.0161 0.0
N1003 N 0.19516 0.41738 0.99666 0.0
N1004 N 0.24465 0.41713 0.03182 0.0
C1005 C 0.2486 0.4461 0.02144 0.0
C1006 C 0.22162 0.44624 1.00241 0.0
C1007 C 0.75333 0.24056 0.5148 0.0
C1008 C 0.75454 0.21366 0.50018 0.0
C1009 C 0.77965 0.26637 0.53434 0.0
C1010 C 0.80858 0.2667 0.53972 0.0
H1011 H 0.73184 0.24189 0.51089 0.0
H1012 H 0.77745 0.28661 0.54427 0.0
S1013 S 0.82399 0.20156 0.50889 0.0
N1014 N 0.78677 0.18838 0.49411 0.0
N1015 N 0.83647 0.23707 0.53027 0.0
C1016 C 0.80999 0.23966 0.52613 0.0
C1017 C 0.78294 0.21312 0.50659 0.0
C1018 C 0.58481 0.80969 0.01858 0.0
C1019 C 0.55613 0.80916 0.02832 0.0
C1020 C 0.58483 0.78268 1.00108 0.0
C1021 C 0.55618 0.75425 0.99235 0.0
H1022 H 0.60737 0.83098 0.02479 0.0
H1023 H 0.6074 0.7842 0.99403 0.0
S1024 S 0.47454 0.74036 0.01212 0.0
N1025 N 0.49831 0.7774 0.02754 0.0
N1026 N 0.49835 0.72743 0.99563 0.0
C1027 C 0.52745 0.75358 1.00209 0.0
C1028 C 0.52743 0.78077 0.01975 0.0
C1029 C 0.78241 0.56953 0.51976 0.0
C1030 C 0.75307 0.54122 0.52379 0.0
C1031 C 0.8087 0.56965 0.50046 0.0
C1032 C 0.80658 0.54156 0.48383 0.0
H1033 H 0.78537 0.59163 0.53261 0.0
H1034 H 0.83099 0.59197 0.49906 0.0
S1035 S 0.73401 0.46158 0.4828 0.0
N1036 N 0.7228 0.48464 0.50715 0.0
N1037 N 0.7719 0.48493 0.47064 0.0
C1038 C 0.77697 0.51329 0.48628 0.0
C1039 C 0.75034 0.51311 0.50633 0.0
C1040 C 0.28069 0.78615 1.00991 0.0
C1041 C 0.27981 0.8134 0.99635 0.0
C1042 C 0.25418 0.76004 0.02835 0.0
C1043 C 0.22514 0.75954 0.03396 0.0
H1044 H 0.30219 0.78481 1.0063 0.0
H1045 H 0.25657 0.73983 0.03783 0.0
S1046 S 0.20995 0.82496 1.00441 0.0
N1047 N 0.24741 0.83856 0.9904 0.0
N1048 N 0.19719 0.78907 0.02477 0.0
C1049 C 0.22376 0.78666 0.02083 0.0
C1050 C 0.25114 0.81366 1.00223 0.0
C1051 C 0.50399 0.24293 0.52134 0.0
C1052 C 0.47564 0.21474 0.53141 0.0
C1053 C 0.50378 0.26906 0.50277 0.0
C1054 C 0.47521 0.26864 0.49337 0.0
H1055 H 0.52691 0.24501 0.52762 0.0
H1056 H 0.52656 0.28994 0.49594 0.0
S1057 S 0.39405 0.20078 0.51338 0.0
N1058 N 0.41785 0.18785 0.53051 0.0
N1059 N 0.41745 0.23744 0.49567 0.0
C1060 C 0.44647 0.2407 0.5033 0.0
C1061 C 0.44669 0.21368 0.52217 0.0
C1062 C 0.78742 0.52656 0.02683 0.0
C1063 C 0.81636 0.55506 0.0332 0.0
C1064 C 0.76105 0.52632 1.00826 0.0
C1065 C 0.76195 0.5546 0.9953 0.0
H1066 H 0.785 0.50385 0.03583 0.0
H1067 H 0.73961 0.50348 1.00412 0.0
S1068 S 0.83163 0.63601 1.00543 0.0
N1069 N 0.8443 0.61268 0.02534 0.0
N1070 N 0.7943 0.61225 0.99074 0.0
C1071 C 0.79054 0.58349 1.00191 0.0
C1072 C 0.8178 0.58371 0.02064 0.0
C1073 C 0.23131 0.7835 0.50275 0.0
C1074 C 0.23383 0.75849 0.48336 0.0
C1075 C 0.25773 0.80967 0.52191 0.0
C1076 C 0.2876 0.81164 0.52293 0.0
H1077 H 0.2086 0.78265 0.50384 0.0
H1078 H 0.25448 0.82794 0.53719 0.0
S1079 S 0.30793 0.75435 0.4732 0.0
N1080 N 0.26952 0.73886 0.46382 0.0
N1081 N 0.31883 0.78765 0.5 0.0
C1082 C 0.29074 0.78742 0.50241 0.0
C1083 C 0.26398 0.76097 0.48258 0.0
C1084 C 0.51017 0.24552 1.00423 0.0
C1085 C 0.48182 0.21726 0.99424 0.0
C1086 C 0.50993 0.27187 0.02224 0.0
C1087 C 0.48133 0.27159 0.031 0.0
H1088 H 0.53306 0.24744 0.99831 0.0
H1089 H 0.53265 0.29281 0.02912 0.0
S1090 S 0.40021 0.20364 1.01089 0.0
N1091 N 0.42404 0.19053 0.9946 0.0
N1092 N 0.4236 0.24042 0.0282 0.0
C1093 C 0.45264 0.24358 0.02112 0.0
C1094 C 0.45288 0.21637 1.00294 0.0
C1095 C 0.23223 0.45609 0.52201 0.0
C1096 C 0.23496 0.48379 0.5411 0.0
C1097 C 0.25856 0.45608 0.50286 0.0
C1098 C 0.28853 0.4839 0.50154 0.0
H1099 H 0.20942 0.43431 0.52108 0.0
H1100 H 0.25514 0.43445 0.48775 0.0
S1101 S 0.30941 0.56193 0.55042 0.0
N1102 N 0.27101 0.5392 0.56005 0.0
N1103 N 0.32004 0.53922 0.52389 0.0
C1104 C 0.29186 0.51142 0.5218 0.0
C1105 C 0.26524 0.51136 0.54162 0.0
C1106 C 0.78793 0.27086 0.99836 0.0
C1107 C 0.8168 0.27136 0.99088 0.0
C1108 C 0.76185 0.24468 0.01745 0.0
C1109 C 0.76297 0.21733 0.02979 0.0
H1110 H 0.78536 0.29112 0.98979 0.0
H1111 H 0.74044 0.246 0.02236 0.0
S1112 S 0.83262 0.20582 0.01701 0.0
N1113 N 0.84494 0.24182 0.99731 0.0
N1114 N 0.7955 0.19217 0.03279 0.0
C1115 C 0.79152 0.21714 0.02222 0.0
C1116 C 0.81849 0.24422 1.00301 0.0
C1117 C 0.59096 0.8114 0.49383 0.0
C1118 C 0.56498 0.81644 0.49878 0.0
C1119 C 0.59061 0.78463 0.51251 0.0
C1120 C 0.56436 0.76222 0.53694 0.0
H1121 H 0.61101 0.82743 0.47399 0.0
H1122 H 0.61053 0.78095 0.50663 0.0
S1123 S 0.4927 0.76776 0.5647 0.0
N1124 N 0.514 0.79885 0.53347 0.0
N1125 N 0.51334 0.74925 0.56866 0.0
C1126 C 0.53916 0.76826 0.54398 0.0
C1127 C 0.53947 0.79517 0.52489 0.0
C1128 C 0.42532 0.43658 0.15637 0.0
C1129 C 0.40909 0.43783 0.11942 0.0
C1130 C 0.44192 0.4198 0.15645 0.0
C1131 C 0.44315 0.40346 0.11956 0.0
H1132 H 0.4263 0.44976 0.18511 0.0
H1133 H 0.455 0.42076 0.18527 0.0
S1134 S 0.40317 0.39762 0.01507 0.0
N1135 N 0.39387 0.41973 0.04553 0.0
N1136 N 0.42512 0.3882 0.04564 0.0
C1137 C 0.42551 0.40292 0.08313 0.0
C1138 C 0.4085 0.42008 0.08307 0.0
C1139 C 0.03752 0.43514 0.54162 0.0
C1140 C 0.05502 0.42922 0.57278 0.0
C1141 C 1.00409 0.41817 0.5418 0.0
C1142 C 0.98705 0.39474 0.57316 0.0
H1143 H 0.04967 0.45502 0.51959 0.0
H1144 H 0.99156 0.42551 0.51986 0.0
S1145 S 0.02168 0.36919 0.66017 0.0
N1146 N 0.05289 0.39713 0.6341 0.0
N1147 N 0.9901 0.36529 0.63446 0.0
C1148 C 1.00426 0.38696 0.60232 0.0
C1149 C 0.03828 0.40422 0.60212 0.0
C1150 C 0.59808 0.99758 0.1579 0.0
C1151 C 0.59689 0.98 0.12106 0.0
C1152 C 0.61498 0.03097 0.15791 0.0
C1153 C 0.63149 0.04843 0.12105 0.0
H1154 H 0.58476 0.98545 0.18659 0.0
H1155 H 0.61397 0.04321 0.18659 0.0
S1156 S 0.63747 0.01402 0.01684 0.0
N1157 N 0.61518 0.98268 0.04731 0.0
N1158 N 0.64692 0.04547 0.0473 0.0
C1159 C 0.63207 0.03123 0.08476 0.0
C1160 C 0.6148 0.99706 0.08476 0.0
C1161 C 0.62367 0.59891 0.57588 0.0
C1162 C 0.63234 0.59076 0.61516 0.0
C1163 C 0.60893 0.61758 0.57512 0.0
C1164 C 0.6025 0.62871 0.61362 0.0
H1165 H 0.62633 0.58902 0.54585 0.0
H1166 H 0.60046 0.62136 0.54457 0.0
S1167 S 0.62702 0.6199 0.7235 0.0
N1168 N 0.63785 0.59921 0.69256 0.0
N1169 N 0.61024 0.63433 0.69113 0.0
C1170 C 0.61342 0.62287 0.6526 0.0
C1171 C 0.62831 0.60386 0.65338 0.0
C1172 C 1.00386 0.60581 0.07833 0.0
C1173 C 0.98649 0.59129 0.11613 0.0
C1174 C 0.03741 0.62266 0.07849 0.0
C1175 C 0.05461 0.62549 0.11645 0.0
H1176 H 0.99157 0.60244 0.04793 0.0
H1177 H 0.04985 0.63174 0.04821 0.0
S1178 S 1.02027 0.59698 0.22539 0.0
N1179 N 0.98905 0.58477 0.19353 0.0
N1180 N 0.05164 0.61601 0.19379 0.0
C1181 C 0.03741 0.61318 0.15497 0.0
C1182 C 1.00349 0.59621 0.15482 0.0
C1183 C 0.4438 0.03033 0.65902 0.0
C1184 C 0.44321 0.04738 0.62257 0.0
C1185 C 0.42855 0.99701 0.65897 0.0
C1186 C 0.41193 0.97911 0.62249 0.0
H1187 H 0.45738 0.04289 0.68733 0.0
H1188 H 0.43094 0.98525 0.68728 0.0
S1189 S 0.40115 1.01193 0.51969 0.0
N1190 N 0.42286 0.04364 0.5498 0.0
N1191 N 0.3941 0.98094 0.54974 0.0
C1192 C 0.40939 0.99567 0.58675 0.0
C1193 C 0.42503 0.02978 0.58678 0.0
C1194 C 0.61523 0.6256 0.93194 0.0
C1195 C 0.59359 0.62139 0.89871 0.0
C1196 C 0.63195 0.60868 0.93207 0.0
C1197 C 0.62766 0.58686 0.89901 0.0
H1198 H 0.61798 0.64068 0.95927 0.0
H1199 H 0.64693 0.61143 0.95949 0.0
S1200 S 0.57656 0.56984 0.80201 0.0
N1201 N 0.57144 0.59598 0.82962 0.0
N1202 N 0.60238 0.56451 0.83001 0.0
C1203 C 0.60777 0.58418 0.8642 0.0
C1204 C 0.59091 0.60132 0.86401 0.0
C1205 C 1.00366 0.60129 0.48012 0.0
C1206 C 0.98632 0.60474 0.44626 0.0
C1207 C 0.03709 0.61852 0.48021 0.0
C1208 C 0.05406 0.6396 0.44642 0.0
H1209 H 0.9915 0.58276 0.50404 0.0
H1210 H 0.04964 0.61268 0.50418 0.0
S1211 S 1.01961 0.65913 0.35275 0.0
N1212 N 0.9884 0.63271 0.38039 0.0
N1213 N 0.05113 0.66499 0.38054 0.0
C1214 C 0.03691 0.64537 0.41473 0.0
C1215 C 1.00299 0.62791 0.41465 0.0
C1216 C 0.4469 0.03149 0.86629 0.0
C1217 C 0.44647 0.04878 0.90261 0.0
C1218 C 0.43058 0.9981 0.866 0.0
C1219 C 0.41287 0.98031 0.90193 0.0
H1220 H 0.46104 0.04384 0.83826 0.0
H1221 H 0.43281 0.98615 0.83781 0.0
S1222 S 0.40238 1.01372 1.00442 0.0
N1223 N 0.4254 0.04534 0.97485 0.0
N1224 N 0.39459 0.98258 0.97424 0.0
C1225 C 0.41071 0.99717 0.93762 0.0
C1226 C 0.42748 0.03134 0.93797 0.0
C1227 C 0.41091 0.42285 0.4357 0.0
C1228 C 0.41102 0.43963 0.3985 0.0
C1229 C 0.42621 0.40466 0.43611 0.0
C1230 C 0.44214 0.4026 0.39932 0.0
H1231 H 0.40076 0.42542 0.46551 0.0
H1232 H 0.42738 0.39396 0.46623 0.0
S1233 S 0.44381 0.43673 0.29145 0.0
N1234 N 0.42438 0.44908 0.32228 0.0
N1235 N 0.45302 0.41511 0.32306 0.0
C1236 C 0.44008 0.41709 0.36103 0.0
C1237 C 0.42456 0.43553 0.36061 0.0
C1238 C 0.03677 0.42579 0.94388 0.0
C1239 C 0.0541 0.44222 0.9069 0.0
C1240 C 1.00322 0.40891 0.94379 0.0
C1241 C 0.98595 0.40794 0.90671 0.0
H1242 H 0.04911 0.42751 0.97376 0.0
H1243 H 0.99082 0.39818 0.9736 0.0
S1244 S 1.02015 0.4423 0.79953 0.0
N1245 N 0.05136 0.4529 0.83081 0.0
N1246 N 0.98887 0.42146 0.83063 0.0
C1247 C 1.00312 0.42229 0.86877 0.0
C1248 C 0.03702 0.43934 0.86887 0.0
C1249 C 0.61368 0.99787 0.43351 0.0
C1250 C 0.59714 0.98028 0.39677 0.0
C1251 C 0.62919 0.03136 0.43375 0.0
C1252 C 0.6287 0.04845 0.39726 0.0
H1253 H 0.61288 0.98569 0.46319 0.0
H1254 H 0.63985 0.04376 0.46359 0.0
S1255 S 0.59432 1.01387 0.29031 0.0
N1256 N 0.58528 0.98268 0.32111 0.0
N1257 N 0.61435 0.04535 0.3215 0.0
C1258 C 0.61454 0.0312 0.35929 0.0
C1259 C 0.59879 0.99722 0.35906 0.0
C1260 C 0.4826 0.57527 1.00151 0.0
C1261 C 0.48193 0.60313 0.9914 0.0
C1262 C 0.45578 0.54873 0.01908 0.0
C1263 C 0.42876 0.55047 0.03073 0.0
H1264 H 0.50377 0.57381 0.99513 0.0
H1265 H 0.45644 0.527 0.0245 0.0
S1266 S 0.41611 0.61888 0.01341 0.0
N1267 N 0.45212 0.63102 0.99416 0.0
N1268 N 0.4029 0.58226 0.03127 0.0
C1269 C 0.42818 0.57853 0.0219 0.0
C1270 C 0.45472 0.60482 1.00182 0.0
C1271 C 0.8907 0.42408 0.48577 0.0
C1272 C 0.88335 0.41708 0.52973 0.0
C1273 C 0.88824 0.44873 0.46591 0.0
C1274 C 0.88365 0.47043 0.48973 0.0
H1275 H 0.89695 0.40957 0.46607 0.0
H1276 H 0.88751 0.44952 0.4318 0.0
S1277 S 0.83914 0.4472 0.59297 0.0
N1278 N 0.85144 0.42121 0.58686 0.0
N1279 N 0.85471 0.47257 0.55257 0.0
C1280 C 0.87049 0.46015 0.5313 0.0
C1281 C 0.86915 0.43258 0.55046 0.0
C1282 C 0.43156 0.86183 1.00272 0.0
C1283 C 0.43244 0.8905 0.99272 0.0
C1284 C 0.45743 0.86186 0.02281 0.0
C1285 C 0.48521 0.89056 0.03258 0.0
H1286 H 0.41063 0.83924 0.99524 0.0
H1287 H 0.45587 0.83929 0.03027 0.0
S1288 S 0.49951 0.97203 0.01229 0.0
N1289 N 0.46245 0.94829 0.9963 0.0
N1290 N 0.51288 0.94835 0.02854 0.0
C1291 C 0.48673 0.9194 0.0217 0.0
C1292 C 0.45968 0.91937 1.00352 0.0
C1293 C 0.5504 0.44724 0.50615 0.0
C1294 C 0.55146 0.4197 0.49533 0.0
C1295 C 0.57701 0.47367 0.52425 0.0
C1296 C 0.60402 0.47198 0.53602 0.0
H1297 H 0.52926 0.44867 0.49946 0.0
H1298 H 0.57633 0.4954 0.52946 0.0
S1299 S 0.61764 0.40439 0.5168 0.0
N1300 N 0.58166 0.39219 0.49735 0.0
N1301 N 0.63035 0.44063 0.53577 0.0
C1302 C 0.60489 0.44414 0.52671 0.0
C1303 C 0.57867 0.41805 0.5059 0.0
C1304 C 0.12278 0.55366 1.00325 0.0
C1305 C 0.1514 0.55508 0.99174 0.0
C1306 C 0.1227 0.58016 0.02138 0.0
C1307 C 0.15125 0.60749 0.03277 0.0
H1308 H 0.10031 0.53218 0.99732 0.0
H1309 H 0.10019 0.57908 0.02713 0.0
S1310 S 0.23258 0.62216 0.01207 0.0
N1311 N 0.20903 0.58602 0.99282 0.0
N1312 N 0.2089 0.63453 0.03146 0.0
C1313 C 0.18005 0.60882 0.0227 0.0
C1314 C 0.18012 0.58266 1.00175 0.0
C1315 C 0.55024 0.11059 0.51826 0.0
C1316 C 0.55205 0.13947 0.52954 0.0
C1317 C 0.57657 0.11017 0.50027 0.0
C1318 C 0.6042 0.13864 0.4894 0.0
H1319 H 0.52869 0.08824 0.5245 0.0
H1320 H 0.57516 0.08749 0.49431 0.0
S1321 S 0.61978 0.22043 0.50976 0.0
N1322 N 0.58349 0.19715 0.52858 0.0
N1323 N 0.63182 0.19639 0.49069 0.0
C1324 C 0.60584 0.16764 0.49919 0.0
C1325 C 0.5798 0.16806 0.51969 0.0
C1326 C 0.55598 0.45124 0.02163 0.0
C1327 C 0.55719 0.42387 0.03312 0.0
C1328 C 0.58274 0.47792 1.0042 0.0
C1329 C 0.61033 0.47678 0.99407 0.0
H1330 H 0.5344 0.45218 0.02676 0.0
H1331 H 0.58159 0.49926 0.99762 0.0
S1332 S 0.6247 0.40994 0.01571 0.0
N1333 N 0.58822 0.39721 0.03356 0.0
N1334 N 0.63739 0.44617 0.99668 0.0
C1335 C 0.61153 0.44927 1.00444 0.0
C1336 C 0.58501 0.42286 0.0244 0.0
C1337 C 0.15331 0.58379 0.46677 0.0
C1338 C 0.15729 0.60981 0.49071 0.0
C1339 C 0.15087 0.55666 0.48653 0.0
C1340 C 0.15767 0.55676 0.53066 0.0
H1341 H 0.1545 0.58558 0.43267 0.0
H1342 H 0.14514 0.53612 0.46663 0.0
S1343 S 0.20021 0.63068 0.59519 0.0
N1344 N 0.185 0.64053 0.55442 0.0
N1345 N 0.18847 0.59254 0.58865 0.0
C1346 C 0.17124 0.58629 0.55181 0.0
C1347 C 0.16982 0.61248 0.53267 0.0
C1348 C 0.58409 0.1127 0.02009 0.0
C1349 C 0.61144 0.14128 0.03141 0.0
C1350 C 0.55742 0.11281 1.00273 0.0
C1351 C 0.55858 0.14155 0.99243 0.0
H1352 H 0.58307 0.09014 0.02554 0.0
H1353 H 0.536 0.09034 0.99661 0.0
S1354 S 0.62549 0.22278 0.01338 0.0
N1355 N 0.63818 0.199 0.03138 0.0
N1356 N 0.58927 0.19926 0.99451 0.0
C1357 C 0.58615 0.17027 1.00244 0.0
C1358 C 0.61253 0.17013 0.02238 0.0
C1359 C 0.49197 0.58297 0.51335 0.0
C1360 C 0.48967 0.60941 0.52656 0.0
C1361 C 0.46558 0.55607 0.49572 0.0
C1362 C 0.43738 0.55629 0.48673 0.0
H1363 H 0.51397 0.58273 0.51784 0.0
H1364 H 0.46733 0.53513 0.48876 0.0
S1365 S 0.4201 0.62056 0.51313 0.0
N1366 N 0.45697 0.63422 0.52999 0.0
N1367 N 0.40854 0.58505 0.49232 0.0
C1368 C 0.43518 0.58303 0.49852 0.0
C1369 C 0.46128 0.60952 0.51892 0.0
C1370 C 0.91762 0.45064 1.00174 0.0
C1371 C 0.88883 0.42345 0.99069 0.0
C1372 C 0.91799 0.4774 0.01975 0.0
C1373 C 0.88961 0.4764 0.0315 0.0
H1374 H 0.93998 0.45147 0.99555 0.0
H1375 H 0.94062 0.4988 0.02519 0.0
S1376 S 0.80798 0.4098 0.01225 0.0
N1377 N 0.83123 0.39696 0.9927 0.0
N1378 N 0.83195 0.44596 0.03113 0.0
C1379 C 0.86067 0.44893 0.02193 0.0
C1380 C 0.86028 0.42251 1.00109 0.0
C1381 C 0.48976 0.91774 0.50392 0.0
C1382 C 0.48863 0.88911 0.49308 0.0
C1383 C 0.46333 0.91758 0.52256 0.0
C1384 C 0.43639 0.88885 0.53453 0.0
H1385 H 0.51084 0.94032 0.49695 0.0
H1386 H 0.46414 0.94001 0.52821 0.0
S1387 S 0.4228 0.8076 0.51566 0.0
N1388 N 0.4586 0.83138 0.49565 0.0
N1389 N 0.41012 0.83114 0.53465 0.0
C1390 C 0.43545 0.86012 0.52514 0.0
C1391 C 0.46154 0.86024 0.504 0.0
loop_
_geom_bond_atom_site_label_1
_geom_bond_atom_site_label_2
_geom_bond_distance
_geom_bond_site_symmetry_2
_ccdc_geom_bond_type
Mn0 O5 2.095 . S
Mn0 O15 2.162 . S
Mn0 O16 2.297 . S
Mn0 O24 2.385 . S
Mn0 O25 2.209 . S
Mn0 O26 2.094 . S
Mn1 O6 2.121 . S
Mn1 N8 2.257 . S
Mn1 N17 2.282 . S
Mn1 O25 2.215 . S
Mn1 O27 2.117 . S
C2 O24 1.234 . S
C2 O25 1.283 . S
C3 O15 1.281 . S
C3 O16 1.236 . S
C4 O26 1.240 . S
C4 O27 1.264 . S
O5 Mn0 2.095 . S
O5 C14 1.250 . S
O6 Mn1 2.121 . S
O6 C14 1.258 . S
C7 N8 1.326 . S
C7 C11 1.460 . S
C7 H13 0.929 . S
N8 Mn1 2.257 . S
N8 C7 1.326 . S
N8 C12 1.362 . S
C9 C10 1.258 . S
C9 C12 1.431 . S
C9 C29 1.449 . S
C10 C9 1.258 . S
C10 C11 1.477 . S
C10 H30 0.931 . S
C11 C7 1.460 . S
C11 C10 1.477 . S
C11 H31 0.930 . S
C12 N8 1.362 . S
C12 C9 1.431 . S
C12 C22 1.476 . S
H13 C7 0.929 . S
C14 O5 1.250 . S
C14 O6 1.258 . S
O15 Mn0 2.162 . S
O15 C3 1.281 . S
O16 Mn0 2.297 . S
O16 C3 1.236 . S
N17 Mn1 2.282 . S
N17 C18 1.328 . S
N17 C22 1.318 . S
C18 N17 1.328 . S
C18 C19 1.457 . S
C18 H23 0.929 . S
C19 C18 1.457 . S
C19 C20 1.291 . S
C19 H32 0.931 1_554 S
C20 C19 1.291 . S
C20 C21 1.373 . S
C20 H33 0.929 . S
C21 C20 1.373 . S
C21 C22 1.396 . S
C21 C28 1.403 . S
C22 C12 1.476 . S
C22 N17 1.318 . S
C22 C21 1.396 . S
H23 C18 0.929 . S
O24 Mn0 2.385 . S
O24 C2 1.234 . S
O25 Mn0 2.209 . S
O25 Mn1 2.215 . S
O25 C2 1.283 . S
O26 Mn0 2.094 . S
O26 C4 1.240 . S
O27 Mn1 2.117 . S
O27 C4 1.264 . S
C28 C21 1.403 . S
C28 C29 1.399 . S
C28 H34 0.929 . S
C29 C9 1.449 . S
C29 C28 1.399 . S
C29 H35 0.930 . S
H30 C10 0.931 . S
H31 C11 0.930 . S
H32 C19 0.931 1_556 S
H33 C20 0.929 . S
H34 C28 0.929 . S
H35 C29 0.930 . S
Mn36 O41 2.095 . S
Mn36 O51 2.162 . S
Mn36 O52 2.297 . S
Mn36 O60 2.385 . S
Mn36 O61 2.209 . S
Mn36 O62 2.094 . S
Mn37 O42 2.121 . S
Mn37 N44 2.257 . S
Mn37 N53 2.282 . S
Mn37 O61 2.215 . S
Mn37 O63 2.117 . S
C38 O60 1.234 . S
C38 O61 1.283 . S
C39 O51 1.281 . S
C39 O52 1.236 . S
C40 O62 1.240 . S
C40 O63 1.264 . S
O41 Mn36 2.095 . S
O41 C50 1.250 . S
O42 Mn37 2.121 . S
O42 C50 1.258 . S
C43 N44 1.326 . S
C43 C47 1.460 . S
C43 H49 0.929 . S
N44 Mn37 2.257 . S
N44 C43 1.326 . S
N44 C48 1.362 . S
C45 C46 1.258 . S
C45 C48 1.431 . S
C45 C65 1.449 . S
C46 C45 1.258 . S
C46 C47 1.477 . S
C46 H66 0.931 . S
C47 C43 1.460 . S
C47 C46 1.477 . S
C47 H67 0.930 . S
C48 N44 1.362 . S
C48 C45 1.431 . S
C48 C58 1.476 . S
H49 C43 0.929 . S
C50 O41 1.250 . S
C50 O42 1.258 . S
O51 Mn36 2.162 . S
O51 C39 1.281 . S
O52 Mn36 2.297 . S
O52 C39 1.236 . S
N53 Mn37 2.282 . S
N53 C54 1.328 . S
N53 C58 1.318 . S
C54 N53 1.328 . S
C54 C55 1.457 . S
C54 H59 0.929 . S
C55 C54 1.457 . S
C55 C56 1.291 . S
C55 H68 0.931 . S
C56 C55 1.291 . S
C56 C57 1.373 . S
C56 H69 0.929 . S
C57 C56 1.373 . S
C57 C58 1.396 . S
C57 C64 1.403 . S
C58 C48 1.476 . S
C58 N53 1.318 . S
C58 C57 1.396 . S
H59 C54 0.929 . S
O60 Mn36 2.385 . S
O60 C38 1.234 . S
O61 Mn36 2.209 . S
O61 Mn37 2.215 . S
O61 C38 1.283 . S
O62 Mn36 2.094 . S
O62 C40 1.240 . S
O63 Mn37 2.117 . S
O63 C40 1.264 . S
C64 C57 1.403 . S
C64 C65 1.399 . S
C64 H70 0.929 . S
C65 C45 1.449 . S
C65 C64 1.399 . S
C65 H71 0.930 . S
H66 C46 0.931 . S
H67 C47 0.930 . S
H68 C55 0.931 . S
H69 C56 0.929 . S
H70 C64 0.929 . S
H71 C65 0.930 . S
Mn72 O77 2.095 . S
Mn72 O87 2.162 . S
Mn72 O88 2.297 . S
Mn72 O96 2.385 . S
Mn72 O97 2.209 . S
Mn72 O98 2.094 . S
Mn73 O78 2.121 . S
Mn73 N80 2.257 . S
Mn73 N89 2.282 . S
Mn73 O97 2.215 . S
Mn73 O99 2.117 . S
C74 O96 1.234 . S
C74 O97 1.283 . S
C75 O87 1.281 . S
C75 O88 1.236 . S
C76 O98 1.240 . S
C76 O99 1.264 . S
O77 Mn72 2.095 . S
O77 C86 1.250 . S
O78 Mn73 2.121 . S
O78 C86 1.258 . S
C79 N80 1.326 . S
C79 C83 1.460 . S
C79 H85 0.929 . S
N80 Mn73 2.257 . S
N80 C79 1.326 . S
N80 C84 1.362 . S
C81 C82 1.258 . S
C81 C84 1.431 . S
C81 C101 1.449 . S
C82 C81 1.258 . S
C82 C83 1.477 . S
C82 H102 0.931 . S
C83 C79 1.460 . S
C83 C82 1.477 . S
C83 H103 0.930 . S
C84 N80 1.362 . S
C84 C81 1.431 . S
C84 C94 1.476 . S
H85 C79 0.929 . S
C86 O77 1.250 . S
C86 O78 1.258 . S
O87 Mn72 2.162 . S
O87 C75 1.281 . S
O88 Mn72 2.297 . S
O88 C75 1.236 . S
N89 Mn73 2.282 . S
N89 C90 1.328 . S
N89 C94 1.318 . S
C90 N89 1.328 . S
C90 C91 1.457 . S
C90 H95 0.929 . S
C91 C90 1.457 . S
C91 C92 1.291 . S
C91 H104 0.931 1_554 S
C92 C91 1.291 . S
C92 C93 1.373 . S
C92 H105 0.929 . S
C93 C92 1.373 . S
C93 C94 1.396 . S
C93 C100 1.403 . S
C94 C84 1.476 . S
C94 N89 1.318 . S
C94 C93 1.396 . S
H95 C90 0.929 . S
O96 Mn72 2.385 . S
O96 C74 1.234 . S
O97 Mn72 2.209 . S
O97 Mn73 2.215 . S
O97 C74 1.283 . S
O98 Mn72 2.094 . S
O98 C76 1.240 . S
O99 Mn73 2.117 . S
O99 C76 1.264 . S
C100 C93 1.403 . S
C100 C101 1.399 . S
C100 H106 0.929 . S
C101 C81 1.449 . S
C101 C100 1.399 . S
C101 H107 0.930 . S
H102 C82 0.931 . S
H103 C83 0.930 . S
H104 C91 0.931 1_556 S
H105 C92 0.929 . S
H106 C100 0.929 . S
H107 C101 0.930 . S
Mn108 O113 2.095 . S
Mn108 O123 2.162 . S
Mn108 O124 2.297 . S
Mn108 O132 2.385 . S
Mn108 O133 2.209 . S
Mn108 O134 2.094 . S
Mn109 O114 2.121 . S
Mn109 N116 2.257 . S
Mn109 N125 2.282 . S
Mn109 O133 2.215 . S
Mn109 O135 2.117 . S
C110 O132 1.234 . S
C110 O133 1.283 . S
C111 O123 1.281 . S
C111 O124 1.236 . S
C112 O134 1.240 . S
C112 O135 1.264 . S
O113 Mn108 2.095 . S
O113 C122 1.250 . S
O114 Mn109 2.121 . S
O114 C122 1.258 . S
C115 N116 1.326 . S
C115 C119 1.460 . S
C115 H121 0.929 . S
N116 Mn109 2.257 . S
N116 C115 1.326 . S
N116 C120 1.362 . S
C117 C118 1.258 . S
C117 C120 1.431 . S
C117 C137 1.449 . S
C118 C117 1.258 . S
C118 C119 1.477 . S
C118 H138 0.931 . S
C119 C115 1.460 . S
C119 C118 1.477 . S
C119 H139 0.930 . S
C120 N116 1.362 . S
C120 C117 1.431 . S
C120 C130 1.476 . S
H121 C115 0.929 . S
C122 O113 1.250 . S
C122 O114 1.258 . S
O123 Mn108 2.162 . S
O123 C111 1.281 . S
O124 Mn108 2.297 . S
O124 C111 1.236 . S
N125 Mn109 2.282 . S
N125 C126 1.328 . S
N125 C130 1.318 . S
C126 N125 1.328 . S
C126 C127 1.457 . S
C126 H131 0.929 . S
C127 C126 1.457 . S
C127 C128 1.291 . S
C127 H140 0.931 . S
C128 C127 1.291 . S
C128 C129 1.373 . S
C128 H141 0.929 . S
C129 C128 1.373 . S
C129 C130 1.396 . S
C129 C136 1.403 . S
C130 C120 1.476 . S
C130 N125 1.318 . S
C130 C129 1.396 . S
H131 C126 0.929 . S
O132 Mn108 2.385 . S
O132 C110 1.234 . S
O133 Mn108 2.209 . S
O133 Mn109 2.215 . S
O133 C110 1.283 . S
O134 Mn108 2.094 . S
O134 C112 1.240 . S
O135 Mn109 2.117 . S
O135 C112 1.264 . S
C136 C129 1.403 . S
C136 C137 1.399 . S
C136 H142 0.929 . S
C137 C117 1.449 . S
C137 C136 1.399 . S
C137 H143 0.930 . S
H138 C118 0.931 . S
H139 C119 0.930 . S
H140 C127 0.931 . S
H141 C128 0.929 . S
H142 C136 0.929 . S
H143 C137 0.930 . S
Mn144 O149 2.095 . S
Mn144 O159 2.162 . S
Mn144 O160 2.297 . S
Mn144 O168 2.385 . S
Mn144 O169 2.209 . S
Mn144 O170 2.094 . S
Mn145 O150 2.121 . S
Mn145 N152 2.257 . S
Mn145 N161 2.282 . S
Mn145 O169 2.215 . S
Mn145 O171 2.117 . S
C146 O168 1.234 . S
C146 O169 1.283 . S
C147 O159 1.281 . S
C147 O160 1.236 . S
C148 O170 1.240 . S
C148 O171 1.264 . S
O149 Mn144 2.095 . S
O149 C158 1.250 . S
O150 Mn145 2.121 . S
O150 C158 1.258 . S
C151 N152 1.326 . S
C151 C155 1.460 . S
C151 H157 0.929 . S
N152 Mn145 2.257 . S
N152 C151 1.326 . S
N152 C156 1.362 . S
C153 C154 1.258 . S
C153 C156 1.431 . S
C153 C173 1.449 . S
C154 C153 1.258 . S
C154 C155 1.477 . S
C154 H174 0.931 . S
C155 C151 1.460 . S
C155 C154 1.477 . S
C155 H175 0.930 . S
C156 N152 1.362 . S
C156 C153 1.431 . S
C156 C166 1.476 . S
H157 C151 0.929 . S
C158 O149 1.250 . S
C158 O150 1.258 . S
O159 Mn144 2.162 . S
O159 C147 1.281 . S
O160 Mn144 2.297 . S
O160 C147 1.236 . S
N161 Mn145 2.282 . S
N161 C162 1.328 . S
N161 C166 1.318 . S
C162 N161 1.328 . S
C162 C163 1.457 . S
C162 H167 0.929 . S
C163 C162 1.457 . S
C163 C164 1.291 . S
C163 H176 0.931 1_554 S
C164 C163 1.291 . S
C164 C165 1.373 . S
C164 H177 0.929 . S
C165 C164 1.373 . S
C165 C166 1.396 . S
C165 C172 1.403 . S
C166 C156 1.476 . S
C166 N161 1.318 . S
C166 C165 1.396 . S
H167 C162 0.929 . S
O168 Mn144 2.385 . S
O168 C146 1.234 . S
O169 Mn144 2.209 . S
O169 Mn145 2.215 . S
O169 C146 1.283 . S
O170 Mn144 2.094 . S
O170 C148 1.240 . S
O171 Mn145 2.117 . S
O171 C148 1.264 . S
C172 C165 1.403 . S
C172 C173 1.399 . S
C172 H178 0.929 . S
C173 C153 1.449 . S
C173 C172 1.399 . S
C173 H179 0.930 . S
H174 C154 0.931 . S
H175 C155 0.930 . S
H176 C163 0.931 1_556 S
H177 C164 0.929 . S
H178 C172 0.929 . S
H179 C173 0.930 . S
Mn180 O185 2.095 . S
Mn180 O195 2.162 . S
Mn180 O196 2.297 . S
Mn180 O204 2.385 . S
Mn180 O205 2.209 . S
Mn180 O206 2.094 . S
Mn181 O186 2.121 . S
Mn181 N188 2.257 . S
Mn181 N197 2.282 . S
Mn181 O205 2.215 . S
Mn181 O207 2.117 . S
C182 O204 1.234 . S
C182 O205 1.283 . S
C183 O195 1.281 . S
C183 O196 1.236 . S
C184 O206 1.240 . S
C184 O207 1.264 . S
O185 Mn180 2.095 . S
O185 C194 1.250 . S
O186 Mn181 2.121 . S
O186 C194 1.258 . S
C187 N188 1.326 . S
C187 C191 1.460 . S
C187 H193 0.929 . S
N188 Mn181 2.257 . S
N188 C187 1.326 . S
N188 C192 1.362 . S
C189 C190 1.258 . S
C189 C192 1.431 . S
C189 C209 1.449 . S
C190 C189 1.258 . S
C190 C191 1.477 . S
C190 H210 0.931 . S
C191 C187 1.460 . S
C191 C190 1.477 . S
C191 H211 0.930 . S
C192 N188 1.362 . S
C192 C189 1.431 . S
C192 C202 1.476 . S
H193 C187 0.929 . S
C194 O185 1.250 . S
C194 O186 1.258 . S
O195 Mn180 2.162 . S
O195 C183 1.281 . S
O196 Mn180 2.297 . S
O196 C183 1.236 . S
N197 Mn181 2.282 . S
N197 C198 1.328 . S
N197 C202 1.318 . S
C198 N197 1.328 . S
C198 C199 1.457 . S
C198 H203 0.929 . S
C199 C198 1.457 . S
C199 C200 1.291 . S
C199 H212 0.931 . S
C200 C199 1.291 . S
C200 C201 1.373 . S
C200 H213 0.929 . S
C201 C200 1.373 . S
C201 C202 1.396 . S
C201 C208 1.403 . S
C202 C192 1.476 . S
C202 N197 1.318 . S
C202 C201 1.396 . S
H203 C198 0.929 . S
O204 Mn180 2.385 . S
O204 C182 1.234 . S
O205 Mn180 2.209 . S
O205 Mn181 2.215 . S
O205 C182 1.283 . S
O206 Mn180 2.094 . S
O206 C184 1.240 . S
O207 Mn181 2.117 . S
O207 C184 1.264 . S
C208 C201 1.403 . S
C208 C209 1.399 . S
C208 H214 0.929 . S
C209 C189 1.449 . S
C209 C208 1.399 . S
C209 H215 0.930 . S
H210 C190 0.931 . S
H211 C191 0.930 . S
H212 C199 0.931 . S
H213 C200 0.929 . S
H214 C208 0.929 . S
H215 C209 0.930 . S
Mn216 O221 2.095 . S
Mn216 O231 2.162 . S
Mn216 O232 2.297 . S
Mn216 O240 2.385 . S
Mn216 O241 2.209 . S
Mn216 O242 2.094 . S
Mn217 O222 2.121 . S
Mn217 N224 2.257 . S
Mn217 N233 2.282 . S
Mn217 O241 2.215 . S
Mn217 O243 2.117 . S
C218 O240 1.234 . S
C218 O241 1.283 . S
C219 O231 1.281 . S
C219 O232 1.236 . S
C220 O242 1.240 . S
C220 O243 1.264 . S
O221 Mn216 2.095 . S
O221 C230 1.250 . S
O222 Mn217 2.121 . S
O222 C230 1.258 . S
C223 N224 1.326 . S
C223 C227 1.460 . S
C223 H229 0.929 . S
N224 Mn217 2.257 . S
N224 C223 1.326 . S
N224 C228 1.362 . S
C225 C226 1.258 . S
C225 C228 1.431 . S
C225 C245 1.449 . S
C226 C225 1.258 . S
C226 C227 1.477 . S
C226 H246 0.931 . S
C227 C223 1.460 . S
C227 C226 1.477 . S
C227 H247 0.930 . S
C228 N224 1.362 . S
C228 C225 1.431 . S
C228 C238 1.476 . S
H229 C223 0.929 . S
C230 O221 1.250 . S
C230 O222 1.258 . S
O231 Mn216 2.162 . S
O231 C219 1.281 . S
O232 Mn216 2.297 . S
O232 C219 1.236 . S
N233 Mn217 2.282 . S
N233 C234 1.328 . S
N233 C238 1.318 . S
C234 N233 1.328 . S
C234 C235 1.457 . S
C234 H239 0.929 . S
C235 C234 1.457 . S
C235 C236 1.291 . S
C235 H248 0.931 1_556 S
C236 C235 1.291 . S
C236 C237 1.373 . S
C236 H249 0.929 . S
C237 C236 1.373 . S
C237 C238 1.396 . S
C237 C244 1.403 . S
C238 C228 1.476 . S
C238 N233 1.318 . S
C238 C237 1.396 . S
H239 C234 0.929 . S
O240 Mn216 2.385 . S
O240 C218 1.234 . S
O241 Mn216 2.209 . S
O241 Mn217 2.215 . S
O241 C218 1.283 . S
O242 Mn216 2.094 . S
O242 C220 1.240 . S
O243 Mn217 2.117 . S
O243 C220 1.264 . S
C244 C237 1.403 . S
C244 C245 1.399 . S
C244 H250 0.929 . S
C245 C225 1.449 . S
C245 C244 1.399 . S
C245 H251 0.930 . S
H246 C226 0.931 . S
H247 C227 0.930 . S
H248 C235 0.931 1_554 S
H249 C236 0.929 . S
H250 C244 0.929 . S
H251 C245 0.930 . S
Mn252 O257 2.095 . S
Mn252 O267 2.162 . S
Mn252 O268 2.297 . S
Mn252 O276 2.385 . S
Mn252 O277 2.209 . S
Mn252 O278 2.094 . S
Mn253 O258 2.121 . S
Mn253 N260 2.257 . S
Mn253 N269 2.282 . S
Mn253 O277 2.215 . S
Mn253 O279 2.117 . S
C254 O276 1.234 . S
C254 O277 1.283 . S
C255 O267 1.281 . S
C255 O268 1.236 . S
C256 O278 1.240 . S
C256 O279 1.264 . S
O257 Mn252 2.095 . S
O257 C266 1.250 . S
O258 Mn253 2.121 . S
O258 C266 1.258 . S
C259 N260 1.326 . S
C259 C263 1.460 . S
C259 H265 0.929 . S
N260 Mn253 2.257 . S
N260 C259 1.326 . S
N260 C264 1.362 . S
C261 C262 1.258 . S
C261 C264 1.431 . S
C261 C281 1.449 . S
C262 C261 1.258 . S
C262 C263 1.477 . S
C262 H282 0.931 . S
C263 C259 1.460 . S
C263 C262 1.477 . S
C263 H283 0.930 . S
C264 N260 1.362 . S
C264 C261 1.431 . S
C264 C274 1.476 . S
H265 C259 0.929 . S
C266 O257 1.250 . S
C266 O258 1.258 . S
O267 Mn252 2.162 . S
O267 C255 1.281 . S
O268 Mn252 2.297 . S
O268 C255 1.236 . S
N269 Mn253 2.282 . S
N269 C270 1.328 . S
N269 C274 1.318 . S
C270 N269 1.328 . S
C270 C271 1.457 . S
C270 H275 0.929 . S
C271 C270 1.457 . S
C271 C272 1.291 . S
C271 H284 0.931 . S
C272 C271 1.291 . S
C272 C273 1.373 . S
C272 H285 0.929 . S
C273 C272 1.373 . S
C273 C274 1.396 . S
C273 C280 1.403 . S
C274 C264 1.476 . S
C274 N269 1.318 . S
C274 C273 1.396 . S
H275 C270 0.929 . S
O276 Mn252 2.385 . S
O276 C254 1.234 . S
O277 Mn252 2.209 . S
O277 Mn253 2.215 . S
O277 C254 1.283 . S
O278 Mn252 2.094 . S
O278 C256 1.240 . S
O279 Mn253 2.117 . S
O279 C256 1.264 . S
C280 C273 1.403 . S
C280 C281 1.399 . S
C280 H286 0.929 . S
C281 C261 1.449 . S
C281 C280 1.399 . S
C281 H287 0.930 . S
H282 C262 0.931 . S
H283 C263 0.930 . S
H284 C271 0.931 . S
H285 C272 0.929 . S
H286 C280 0.929 . S
H287 C281 0.930 . S
Mn288 O293 2.095 . S
Mn288 O303 2.162 . S
Mn288 O304 2.297 . S
Mn288 O312 2.385 . S
Mn288 O313 2.209 . S
Mn288 O314 2.094 . S
Mn289 O294 2.121 . S
Mn289 N296 2.257 . S
Mn289 N305 2.282 . S
Mn289 O313 2.215 . S
Mn289 O315 2.117 . S
C290 O312 1.234 . S
C290 O313 1.283 . S
C291 O303 1.281 . S
C291 O304 1.236 . S
C292 O314 1.240 . S
C292 O315 1.264 . S
O293 Mn288 2.095 . S
O293 C302 1.250 . S
O294 Mn289 2.121 . S
O294 C302 1.258 . S
C295 N296 1.326 . S
C295 C299 1.460 . S
C295 H301 0.929 . S
N296 Mn289 2.257 . S
N296 C295 1.326 . S
N296 C300 1.362 . S
C297 C298 1.258 . S
C297 C300 1.431 . S
C297 C317 1.449 . S
C298 C297 1.258 . S
C298 C299 1.477 . S
C298 H318 0.931 . S
C299 C295 1.460 . S
C299 C298 1.477 . S
C299 H319 0.930 . S
C300 N296 1.362 . S
C300 C297 1.431 . S
C300 C310 1.476 . S
H301 C295 0.929 . S
C302 O293 1.250 . S
C302 O294 1.258 . S
O303 Mn288 2.162 . S
O303 C291 1.281 . S
O304 Mn288 2.297 . S
O304 C291 1.236 . S
N305 Mn289 2.282 . S
N305 C306 1.328 . S
N305 C310 1.318 . S
C306 N305 1.328 . S
C306 C307 1.457 . S
C306 H311 0.929 . S
C307 C306 1.457 . S
C307 C308 1.291 . S
C307 H320 0.931 1_556 S
C308 C307 1.291 . S
C308 C309 1.373 . S
C308 H321 0.929 . S
C309 C308 1.373 . S
C309 C310 1.396 . S
C309 C316 1.403 . S
C310 C300 1.476 . S
C310 N305 1.318 . S
C310 C309 1.396 . S
H311 C306 0.929 . S
O312 Mn288 2.385 . S
O312 C290 1.234 . S
O313 Mn288 2.209 . S
O313 Mn289 2.215 . S
O313 C290 1.283 . S
O314 Mn288 2.094 . S
O314 C292 1.240 . S
O315 Mn289 2.117 . S
O315 C292 1.264 . S
C316 C309 1.403 . S
C316 C317 1.399 . S
C316 H322 0.929 . S
C317 C297 1.449 . S
C317 C316 1.399 . S
C317 H323 0.930 . S
H318 C298 0.931 . S
H319 C299 0.930 . S
H320 C307 0.931 1_554 S
H321 C308 0.929 . S
H322 C316 0.929 . S
H323 C317 0.930 . S
Mn324 O329 2.095 . S
Mn324 O339 2.162 . S
Mn324 O340 2.297 . S
Mn324 O348 2.385 . S
Mn324 O349 2.209 . S
Mn324 O350 2.094 . S
Mn325 O330 2.121 . S
Mn325 N332 2.257 . S
Mn325 N341 2.282 . S
Mn325 O349 2.215 . S
Mn325 O351 2.117 . S
C326 O348 1.234 . S
C326 O349 1.283 . S
C327 O339 1.281 . S
C327 O340 1.236 . S
C328 O350 1.240 . S
C328 O351 1.264 . S
O329 Mn324 2.095 . S
O329 C338 1.250 . S
O330 Mn325 2.121 . S
O330 C338 1.258 . S
C331 N332 1.326 . S
C331 C335 1.460 . S
C331 H337 0.929 . S
N332 Mn325 2.257 . S
N332 C331 1.326 . S
N332 C336 1.362 . S
C333 C334 1.258 . S
C333 C336 1.431 . S
C333 C353 1.449 . S
C334 C333 1.258 . S
C334 C335 1.477 . S
C334 H354 0.931 . S
C335 C331 1.460 . S
C335 C334 1.477 . S
C335 H355 0.930 . S
C336 N332 1.362 . S
C336 C333 1.431 . S
C336 C346 1.476 . S
H337 C331 0.929 . S
C338 O329 1.250 . S
C338 O330 1.258 . S
O339 Mn324 2.162 . S
O339 C327 1.281 . S
O340 Mn324 2.297 . S
O340 C327 1.236 . S
N341 Mn325 2.282 . S
N341 C342 1.328 . S
N341 C346 1.318 . S
C342 N341 1.328 . S
C342 C343 1.457 . S
C342 H347 0.929 . S
C343 C342 1.457 . S
C343 C344 1.291 . S
C343 H356 0.931 . S
C344 C343 1.291 . S
C344 C345 1.373 . S
C344 H357 0.929 . S
C345 C344 1.373 . S
C345 C346 1.396 . S
C345 C352 1.403 . S
C346 C336 1.476 . S
C346 N341 1.318 . S
C346 C345 1.396 . S
H347 C342 0.929 . S
O348 Mn324 2.385 . S
O348 C326 1.234 . S
O349 Mn324 2.209 . S
O349 Mn325 2.215 . S
O349 C326 1.283 . S
O350 Mn324 2.094 . S
O350 C328 1.240 . S
O351 Mn325 2.117 . S
O351 C328 1.264 . S
C352 C345 1.403 . S
C352 C353 1.399 . S
C352 H358 0.929 . S
C353 C333 1.449 . S
C353 C352 1.399 . S
C353 H359 0.930 . S
H354 C334 0.931 . S
H355 C335 0.930 . S
H356 C343 0.931 . S
H357 C344 0.929 . S
H358 C352 0.929 . S
H359 C353 0.930 . S
Mn360 O365 2.095 . S
Mn360 O375 2.162 . S
Mn360 O376 2.297 . S
Mn360 O384 2.385 . S
Mn360 O385 2.209 . S
Mn360 O386 2.094 . S
Mn361 O366 2.121 . S
Mn361 N368 2.257 . S
Mn361 N377 2.282 . S
Mn361 O385 2.215 . S
Mn361 O387 2.117 . S
C362 O384 1.234 . S
C362 O385 1.283 . S
C363 O375 1.281 . S
C363 O376 1.236 . S
C364 O386 1.240 . S
C364 O387 1.264 . S
O365 Mn360 2.095 . S
O365 C374 1.250 . S
O366 Mn361 2.121 . S
O366 C374 1.258 . S
C367 N368 1.326 . S
C367 C371 1.460 . S
C367 H373 0.929 . S
N368 Mn361 2.257 . S
N368 C367 1.326 . S
N368 C372 1.362 . S
C369 C370 1.258 . S
C369 C372 1.431 . S
C369 C389 1.449 . S
C370 C369 1.258 . S
C370 C371 1.477 . S
C370 H390 0.931 . S
C371 C367 1.460 . S
C371 C370 1.477 . S
C371 H391 0.930 . S
C372 N368 1.362 . S
C372 C369 1.431 . S
C372 C382 1.476 . S
H373 C367 0.929 . S
C374 O365 1.250 . S
C374 O366 1.258 . S
O375 Mn360 2.162 . S
O375 C363 1.281 . S
O376 Mn360 2.297 . S
O376 C363 1.236 . S
N377 Mn361 2.282 . S
N377 C378 1.328 . S
N377 C382 1.318 . S
C378 N377 1.328 . S
C378 C379 1.457 . S
C378 H383 0.929 . S
C379 C378 1.457 . S
C379 C380 1.291 . S
C379 H392 0.931 1_556 S
C380 C379 1.291 . S
C380 C381 1.373 . S
C380 H393 0.929 . S
C381 C380 1.373 . S
C381 C382 1.396 . S
C381 C388 1.403 . S
C382 C372 1.476 . S
C382 N377 1.318 . S
C382 C381 1.396 . S
H383 C378 0.929 . S
O384 Mn360 2.385 . S
O384 C362 1.234 . S
O385 Mn360 2.209 . S
O385 Mn361 2.215 . S
O385 C362 1.283 . S
O386 Mn360 2.094 . S
O386 C364 1.240 . S
O387 Mn361 2.117 . S
O387 C364 1.264 . S
C388 C381 1.403 . S
C388 C389 1.399 . S
C388 H394 0.929 . S
C389 C369 1.449 . S
C389 C388 1.399 . S
C389 H395 0.930 . S
H390 C370 0.931 . S
H391 C371 0.930 . S
H392 C379 0.931 1_554 S
H393 C380 0.929 . S
H394 C388 0.929 . S
H395 C389 0.930 . S
Mn396 O401 2.095 . S
Mn396 O411 2.162 . S
Mn396 O412 2.297 . S
Mn396 O420 2.385 . S
Mn396 O421 2.209 . S
Mn396 O422 2.094 . S
Mn397 O402 2.121 . S
Mn397 N404 2.257 . S
Mn397 N413 2.282 . S
Mn397 O421 2.215 . S
Mn397 O423 2.117 . S
C398 O420 1.234 . S
C398 O421 1.283 . S
C399 O411 1.281 . S
C399 O412 1.236 . S
C400 O422 1.240 . S
C400 O423 1.264 . S
O401 Mn396 2.095 . S
O401 C410 1.250 . S
O402 Mn397 2.121 . S
O402 C410 1.258 . S
C403 N404 1.326 . S
C403 C407 1.460 . S
C403 H409 0.929 . S
N404 Mn397 2.257 . S
N404 C403 1.326 . S
N404 C408 1.362 . S
C405 C406 1.258 . S
C405 C408 1.431 . S
C405 C425 1.449 . S
C406 C405 1.258 . S
C406 C407 1.477 . S
C406 H426 0.931 . S
C407 C403 1.460 . S
C407 C406 1.477 . S
C407 H427 0.930 . S
C408 N404 1.362 . S
C408 C405 1.431 . S
C408 C418 1.476 . S
H409 C403 0.929 . S
C410 O401 1.250 . S
C410 O402 1.258 . S
O411 Mn396 2.162 . S
O411 C399 1.281 . S
O412 Mn396 2.297 . S
O412 C399 1.236 . S
N413 Mn397 2.282 . S
N413 C414 1.328 . S
N413 C418 1.318 . S
C414 N413 1.328 . S
C414 C415 1.457 . S
C414 H419 0.929 . S
C415 C414 1.457 . S
C415 C416 1.291 . S
C415 H428 0.931 . S
C416 C415 1.291 . S
C416 C417 1.373 . S
C416 H429 0.929 . S
C417 C416 1.373 . S
C417 C418 1.396 . S
C417 C424 1.403 . S
C418 C408 1.476 . S
C418 N413 1.318 . S
C418 C417 1.396 . S
H419 C414 0.929 . S
O420 Mn396 2.385 . S
O420 C398 1.234 . S
O421 Mn396 2.209 . S
O421 Mn397 2.215 . S
O421 C398 1.283 . S
O422 Mn396 2.094 . S
O422 C400 1.240 . S
O423 Mn397 2.117 . S
O423 C400 1.264 . S
C424 C417 1.403 . S
C424 C425 1.399 . S
C424 H430 0.929 . S
C425 C405 1.449 . S
C425 C424 1.399 . S
C425 H431 0.930 . S
H426 C406 0.931 . S
H427 C407 0.930 . S
H428 C415 0.931 . S
H429 C416 0.929 . S
H430 C424 0.929 . S
H431 C425 0.930 . S
Mn432 O437 2.095 . S
Mn432 O447 2.162 . S
Mn432 O448 2.297 . S
Mn432 O456 2.385 . S
Mn432 O457 2.209 . S
Mn432 O458 2.094 . S
Mn433 O438 2.121 . S
Mn433 N440 2.257 . S
Mn433 N449 2.282 . S
Mn433 O457 2.215 . S
Mn433 O459 2.117 . S
C434 O456 1.234 . S
C434 O457 1.283 . S
C435 O447 1.281 . S
C435 O448 1.236 . S
C436 O458 1.240 . S
C436 O459 1.264 . S
O437 Mn432 2.095 . S
O437 C446 1.250 . S
O438 Mn433 2.121 . S
O438 C446 1.258 . S
C439 N440 1.326 . S
C439 C443 1.460 . S
C439 H445 0.929 . S
N440 Mn433 2.257 . S
N440 C439 1.326 . S
N440 C444 1.362 . S
C441 C442 1.258 . S
C441 C444 1.431 . S
C441 C461 1.449 . S
C442 C441 1.258 . S
C442 C443 1.477 . S
C442 H462 0.931 . S
C443 C439 1.460 . S
C443 C442 1.477 . S
C443 H463 0.930 . S
C444 N440 1.362 . S
C444 C441 1.431 . S
C444 C454 1.476 . S
H445 C439 0.929 . S
C446 O437 1.250 . S
C446 O438 1.258 . S
O447 Mn432 2.162 . S
O447 C435 1.281 . S
O448 Mn432 2.297 . S
O448 C435 1.236 . S
N449 Mn433 2.282 . S
N449 C450 1.328 . S
N449 C454 1.318 . S
C450 N449 1.328 . S
C450 C451 1.457 . S
C450 H455 0.929 . S
C451 C450 1.457 . S
C451 C452 1.291 . S
C451 H464 0.931 1_556 S
C452 C451 1.291 . S
C452 C453 1.373 . S
C452 H465 0.929 . S
C453 C452 1.373 . S
C453 C454 1.396 . S
C453 C460 1.403 . S
C454 C444 1.476 . S
C454 N449 1.318 . S
C454 C453 1.396 . S
H455 C450 0.929 . S
O456 Mn432 2.385 . S
O456 C434 1.234 . S
O457 Mn432 2.209 . S
O457 Mn433 2.215 . S
O457 C434 1.283 . S
O458 Mn432 2.094 . S
O458 C436 1.240 . S
O459 Mn433 2.117 . S
O459 C436 1.264 . S
C460 C453 1.403 . S
C460 C461 1.399 . S
C460 H466 0.929 . S
C461 C441 1.449 . S
C461 C460 1.399 . S
C461 H467 0.930 . S
H462 C442 0.931 . S
H463 C443 0.930 . S
H464 C451 0.931 1_554 S
H465 C452 0.929 . S
H466 C460 0.929 . S
H467 C461 0.930 . S
Mn468 O473 2.095 . S
Mn468 O483 2.162 . S
Mn468 O484 2.297 . S
Mn468 O492 2.385 . S
Mn468 O493 2.209 . S
Mn468 O494 2.094 . S
Mn469 O474 2.121 . S
Mn469 N476 2.257 . S
Mn469 N485 2.282 . S
Mn469 O493 2.215 . S
Mn469 O495 2.117 . S
C470 O492 1.234 . S
C470 O493 1.283 . S
C471 O483 1.281 . S
C471 O484 1.236 . S
C472 O494 1.240 . S
C472 O495 1.264 . S
O473 Mn468 2.095 . S
O473 C482 1.250 . S
O474 Mn469 2.121 . S
O474 C482 1.258 . S
C475 N476 1.326 . S
C475 C479 1.460 . S
C475 H481 0.929 . S
N476 Mn469 2.257 . S
N476 C475 1.326 . S
N476 C480 1.362 . S
C477 C478 1.258 . S
C477 C480 1.431 . S
C477 C497 1.449 . S
C478 C477 1.258 . S
C478 C479 1.477 . S
C478 H498 0.931 . S
C479 C475 1.460 . S
C479 C478 1.477 . S
C479 H499 0.930 . S
C480 N476 1.362 . S
C480 C477 1.431 . S
C480 C490 1.476 . S
H481 C475 0.929 . S
C482 O473 1.250 . S
C482 O474 1.258 . S
O483 Mn468 2.162 . S
O483 C471 1.281 . S
O484 Mn468 2.297 . S
O484 C471 1.236 . S
N485 Mn469 2.282 . S
N485 C486 1.328 . S
N485 C490 1.318 . S
C486 N485 1.328 . S
C486 C487 1.457 . S
C486 H491 0.929 . S
C487 C486 1.457 . S
C487 C488 1.291 . S
C487 H500 0.931 . S
C488 C487 1.291 . S
C488 C489 1.373 . S
C488 H501 0.929 . S
C489 C488 1.373 . S
C489 C490 1.396 . S
C489 C496 1.403 . S
C490 C480 1.476 . S
C490 N485 1.318 . S
C490 C489 1.396 . S
H491 C486 0.929 . S
O492 Mn468 2.385 . S
O492 C470 1.234 . S
O493 Mn468 2.209 . S
O493 Mn469 2.215 . S
O493 C470 1.283 . S
O494 Mn468 2.094 . S
O494 C472 1.240 . S
O495 Mn469 2.117 . S
O495 C472 1.264 . S
C496 C489 1.403 . S
C496 C497 1.399 . S
C496 H502 0.929 . S
C497 C477 1.449 . S
C497 C496 1.399 . S
C497 H503 0.930 . S
H498 C478 0.931 . S
H499 C479 0.930 . S
H500 C487 0.931 . S
H501 C488 0.929 . S
H502 C496 0.929 . S
H503 C497 0.930 . S
Mn504 O509 2.095 . S
Mn504 O519 2.162 . S
Mn504 O520 2.297 . S
Mn504 O528 2.385 . S
Mn504 O529 2.209 . S
Mn504 O530 2.094 . S
Mn505 O510 2.121 . S
Mn505 N512 2.257 . S
Mn505 N521 2.282 . S
Mn505 O529 2.215 . S
Mn505 O531 2.117 . S
C506 O528 1.234 . S
C506 O529 1.283 . S
C507 O519 1.281 . S
C507 O520 1.236 . S
C508 O530 1.240 . S
C508 O531 1.264 . S
O509 Mn504 2.095 . S
O509 C518 1.250 . S
O510 Mn505 2.121 . S
O510 C518 1.258 . S
C511 N512 1.326 . S
C511 C515 1.460 . S
C511 H517 0.929 . S
N512 Mn505 2.257 . S
N512 C511 1.326 . S
N512 C516 1.362 . S
C513 C514 1.258 . S
C513 C516 1.431 . S
C513 C533 1.449 . S
C514 C513 1.258 . S
C514 C515 1.477 . S
C514 H534 0.931 . S
C515 C511 1.460 . S
C515 C514 1.477 . S
C515 H535 0.930 . S
C516 N512 1.362 . S
C516 C513 1.431 . S
C516 C526 1.476 . S
H517 C511 0.929 . S
C518 O509 1.250 . S
C518 O510 1.258 . S
O519 Mn504 2.162 . S
O519 C507 1.281 . S
O520 Mn504 2.297 . S
O520 C507 1.236 . S
N521 Mn505 2.282 . S
N521 C522 1.328 . S
N521 C526 1.318 . S
C522 N521 1.328 . S
C522 C523 1.457 . S
C522 H527 0.929 . S
C523 C522 1.457 . S
C523 C524 1.291 . S
C523 H536 0.931 1_556 S
C524 C523 1.291 . S
C524 C525 1.373 . S
C524 H537 0.929 . S
C525 C524 1.373 . S
C525 C526 1.396 . S
C525 C532 1.403 . S
C526 C516 1.476 . S
C526 N521 1.318 . S
C526 C525 1.396 . S
H527 C522 0.929 . S
O528 Mn504 2.385 . S
O528 C506 1.234 . S
O529 Mn504 2.209 . S
O529 Mn505 2.215 . S
O529 C506 1.283 . S
O530 Mn504 2.094 . S
O530 C508 1.240 . S
O531 Mn505 2.117 . S
O531 C508 1.264 . S
C532 C525 1.403 . S
C532 C533 1.399 . S
C532 H538 0.929 . S
C533 C513 1.449 . S
C533 C532 1.399 . S
C533 H539 0.930 . S
H534 C514 0.931 . S
H535 C515 0.930 . S
H536 C523 0.931 1_554 S
H537 C524 0.929 . S
H538 C532 0.929 . S
H539 C533 0.930 . S
Mn540 O545 2.095 . S
Mn540 O555 2.162 . S
Mn540 O556 2.297 . S
Mn540 O564 2.385 . S
Mn540 O565 2.209 . S
Mn540 O566 2.094 . S
Mn541 O546 2.121 . S
Mn541 N548 2.257 . S
Mn541 N557 2.282 . S
Mn541 O565 2.215 . S
Mn541 O567 2.117 . S
C542 O564 1.234 . S
C542 O565 1.283 . S
C543 O555 1.281 . S
C543 O556 1.236 . S
C544 O566 1.240 . S
C544 O567 1.264 . S
O545 Mn540 2.095 . S
O545 C554 1.250 . S
O546 Mn541 2.121 . S
O546 C554 1.258 . S
C547 N548 1.326 . S
C547 C551 1.460 . S
C547 H553 0.929 . S
N548 Mn541 2.257 . S
N548 C547 1.326 . S
N548 C552 1.362 . S
C549 C550 1.258 . S
C549 C552 1.431 . S
C549 C569 1.449 . S
C550 C549 1.258 . S
C550 C551 1.477 . S
C550 H570 0.931 . S
C551 C547 1.460 . S
C551 C550 1.477 . S
C551 H571 0.930 . S
C552 N548 1.362 . S
C552 C549 1.431 . S
C552 C562 1.476 . S
H553 C547 0.929 . S
C554 O545 1.250 . S
C554 O546 1.258 . S
O555 Mn540 2.162 . S
O555 C543 1.281 . S
O556 Mn540 2.297 . S
O556 C543 1.236 . S
N557 Mn541 2.282 . S
N557 C558 1.328 . S
N557 C562 1.318 . S
C558 N557 1.328 . S
C558 C559 1.457 . S
C558 H563 0.929 . S
C559 C558 1.457 . S
C559 C560 1.291 . S
C559 H572 0.931 . S
C560 C559 1.291 . S
C560 C561 1.373 . S
C560 H573 0.929 . S
C561 C560 1.373 . S
C561 C562 1.396 . S
C561 C568 1.403 . S
C562 C552 1.476 . S
C562 N557 1.318 . S
C562 C561 1.396 . S
H563 C558 0.929 . S
O564 Mn540 2.385 . S
O564 C542 1.234 . S
O565 Mn540 2.209 . S
O565 Mn541 2.215 . S
O565 C542 1.283 . S
O566 Mn540 2.094 . S
O566 C544 1.240 . S
O567 Mn541 2.117 . S
O567 C544 1.264 . S
C568 C561 1.403 . S
C568 C569 1.399 . S
C568 H574 0.929 . S
C569 C549 1.449 . S
C569 C568 1.399 . S
C569 H575 0.930 . S
H570 C550 0.931 . S
H571 C551 0.930 . S
H572 C559 0.931 . S
H573 C560 0.929 . S
H574 C568 0.929 . S
H575 C569 0.930 . S
Mn576 O581 2.095 . S
Mn576 O591 2.162 . S
Mn576 O592 2.297 . S
Mn576 O600 2.385 . S
Mn576 O601 2.209 . S
Mn576 O602 2.094 . S
Mn577 O582 2.121 . S
Mn577 N584 2.257 . S
Mn577 N593 2.282 . S
Mn577 O601 2.215 . S
Mn577 O603 2.117 . S
C578 O600 1.234 . S
C578 O601 1.283 . S
C579 O591 1.281 . S
C579 O592 1.236 . S
C580 O602 1.240 . S
C580 O603 1.264 . S
O581 Mn576 2.095 . S
O581 C590 1.250 . S
O582 Mn577 2.121 . S
O582 C590 1.258 . S
C583 N584 1.326 . S
C583 C587 1.460 . S
C583 H589 0.929 . S
N584 Mn577 2.257 . S
N584 C583 1.326 . S
N584 C588 1.362 . S
C585 C586 1.258 . S
C585 C588 1.431 . S
C585 C605 1.449 . S
C586 C585 1.258 . S
C586 C587 1.477 . S
C586 H606 0.931 . S
C587 C583 1.460 . S
C587 C586 1.477 . S
C587 H607 0.930 . S
C588 N584 1.362 . S
C588 C585 1.431 . S
C588 C598 1.476 . S
H589 C583 0.929 . S
C590 O581 1.250 . S
C590 O582 1.258 . S
O591 Mn576 2.162 . S
O591 C579 1.281 . S
O592 Mn576 2.297 . S
O592 C579 1.236 . S
N593 Mn577 2.282 . S
N593 C594 1.328 . S
N593 C598 1.318 . S
C594 N593 1.328 . S
C594 C595 1.457 . S
C594 H599 0.929 . S
C595 C594 1.457 . S
C595 C596 1.291 . S
C595 H608 0.931 1_556 S
C596 C595 1.291 . S
C596 C597 1.373 . S
C596 H609 0.929 . S
C597 C596 1.373 . S
C597 C598 1.396 . S
C597 C604 1.403 . S
C598 C588 1.476 . S
C598 N593 1.318 . S
C598 C597 1.396 . S
H599 C594 0.929 . S
O600 Mn576 2.385 . S
O600 C578 1.234 . S
O601 Mn576 2.209 . S
O601 Mn577 2.215 . S
O601 C578 1.283 . S
O602 Mn576 2.094 . S
O602 C580 1.240 . S
O603 Mn577 2.117 . S
O603 C580 1.264 . S
C604 C597 1.403 . S
C604 C605 1.399 . S
C604 H610 0.929 . S
C605 C585 1.449 . S
C605 C604 1.399 . S
C605 H611 0.930 . S
H606 C586 0.931 . S
H607 C587 0.930 . S
H608 C595 0.931 1_554 S
H609 C596 0.929 . S
H610 C604 0.929 . S
H611 C605 0.930 . S
Mn612 O617 2.095 . S
Mn612 O627 2.162 . S
Mn612 O628 2.297 . S
Mn612 O636 2.385 . S
Mn612 O637 2.209 . S
Mn612 O638 2.094 . S
Mn613 O618 2.121 . S
Mn613 N620 2.257 . S
Mn613 N629 2.282 . S
Mn613 O637 2.215 . S
Mn613 O639 2.117 . S
C614 O636 1.234 . S
C614 O637 1.283 . S
C615 O627 1.281 . S
C615 O628 1.236 . S
C616 O638 1.240 . S
C616 O639 1.264 . S
O617 Mn612 2.095 . S
O617 C626 1.250 . S
O618 Mn613 2.121 . S
O618 C626 1.258 . S
C619 N620 1.326 . S
C619 C623 1.460 . S
C619 H625 0.929 . S
N620 Mn613 2.257 . S
N620 C619 1.326 . S
N620 C624 1.362 . S
C621 C622 1.258 . S
C621 C624 1.431 . S
C621 C641 1.449 . S
C622 C621 1.258 . S
C622 C623 1.477 . S
C622 H642 0.931 . S
C623 C619 1.460 . S
C623 C622 1.477 . S
C623 H643 0.930 . S
C624 N620 1.362 . S
C624 C621 1.431 . S
C624 C634 1.476 . S
H625 C619 0.929 . S
C626 O617 1.250 . S
C626 O618 1.258 . S
O627 Mn612 2.162 . S
O627 C615 1.281 . S
O628 Mn612 2.297 . S
O628 C615 1.236 . S
N629 Mn613 2.282 . S
N629 C630 1.328 . S
N629 C634 1.318 . S
C630 N629 1.328 . S
C630 C631 1.457 . S
C630 H635 0.929 . S
C631 C630 1.457 . S
C631 C632 1.291 . S
C631 H644 0.931 . S
C632 C631 1.291 . S
C632 C633 1.373 . S
C632 H645 0.929 . S
C633 C632 1.373 . S
C633 C634 1.396 . S
C633 C640 1.403 . S
C634 C624 1.476 . S
C634 N629 1.318 . S
C634 C633 1.396 . S
H635 C630 0.929 . S
O636 Mn612 2.385 . S
O636 C614 1.234 . S
O637 Mn612 2.209 . S
O637 Mn613 2.215 . S
O637 C614 1.283 . S
O638 Mn612 2.094 . S
O638 C616 1.240 . S
O639 Mn613 2.117 . S
O639 C616 1.264 . S
C640 C633 1.403 . S
C640 C641 1.399 . S
C640 H646 0.929 . S
C641 C621 1.449 . S
C641 C640 1.399 . S
C641 H647 0.930 . S
H642 C622 0.931 . S
H643 C623 0.930 . S
H644 C631 0.931 . S
H645 C632 0.929 . S
H646 C640 0.929 . S
H647 C641 0.930 . S
Mn648 O653 2.095 . S
Mn648 O663 2.162 . S
Mn648 O664 2.297 . S
Mn648 O672 2.385 . S
Mn648 O673 2.209 . S
Mn648 O674 2.094 . S
Mn649 O654 2.121 . S
Mn649 N656 2.257 . S
Mn649 N665 2.282 . S
Mn649 O673 2.215 . S
Mn649 O675 2.117 . S
C650 O672 1.234 . S
C650 O673 1.283 . S
C651 O663 1.281 . S
C651 O664 1.236 . S
C652 O674 1.240 . S
C652 O675 1.264 . S
O653 Mn648 2.095 . S
O653 C662 1.250 . S
O654 Mn649 2.121 . S
O654 C662 1.258 . S
C655 N656 1.326 . S
C655 C659 1.460 . S
C655 H661 0.929 . S
N656 Mn649 2.257 . S
N656 C655 1.326 . S
N656 C660 1.362 . S
C657 C658 1.258 . S
C657 C660 1.431 . S
C657 C677 1.449 . S
C658 C657 1.258 . S
C658 C659 1.477 . S
C658 H678 0.931 . S
C659 C655 1.460 . S
C659 C658 1.477 . S
C659 H679 0.930 . S
C660 N656 1.362 . S
C660 C657 1.431 . S
C660 C670 1.476 . S
H661 C655 0.929 . S
C662 O653 1.250 . S
C662 O654 1.258 . S
O663 Mn648 2.162 . S
O663 C651 1.281 . S
O664 Mn648 2.297 . S
O664 C651 1.236 . S
N665 Mn649 2.282 . S
N665 C666 1.328 . S
N665 C670 1.318 . S
C666 N665 1.328 . S
C666 C667 1.457 . S
C666 H671 0.929 . S
C667 C666 1.457 . S
C667 C668 1.291 . S
C667 H680 0.931 1_554 S
C668 C667 1.291 . S
C668 C669 1.373 . S
C668 H681 0.929 . S
C669 C668 1.373 . S
C669 C670 1.396 . S
C669 C676 1.403 . S
C670 C660 1.476 . S
C670 N665 1.318 . S
C670 C669 1.396 . S
H671 C666 0.929 . S
O672 Mn648 2.385 . S
O672 C650 1.234 . S
O673 Mn648 2.209 . S
O673 Mn649 2.215 . S
O673 C650 1.283 . S
O674 Mn648 2.094 . S
O674 C652 1.240 . S
O675 Mn649 2.117 . S
O675 C652 1.264 . S
C676 C669 1.403 . S
C676 C677 1.399 . S
C676 H682 0.929 . S
C677 C657 1.449 . S
C677 C676 1.399 . S
C677 H683 0.930 . S
H678 C658 0.931 . S
H679 C659 0.930 . S
H680 C667 0.931 1_556 S
H681 C668 0.929 . S
H682 C676 0.929 . S
H683 C677 0.930 . S
Mn684 O689 2.095 . S
Mn684 O699 2.162 . S
Mn684 O700 2.297 . S
Mn684 O708 2.385 . S
Mn684 O709 2.209 . S
Mn684 O710 2.094 . S
Mn685 O690 2.121 . S
Mn685 N692 2.257 . S
Mn685 N701 2.282 . S
Mn685 O709 2.215 . S
Mn685 O711 2.117 . S
C686 O708 1.234 . S
C686 O709 1.283 . S
C687 O699 1.281 . S
C687 O700 1.236 . S
C688 O710 1.240 . S
C688 O711 1.264 . S
O689 Mn684 2.095 . S
O689 C698 1.250 . S
O690 Mn685 2.121 . S
O690 C698 1.258 . S
C691 N692 1.326 . S
C691 C695 1.460 . S
C691 H697 0.929 . S
N692 Mn685 2.257 . S
N692 C691 1.326 . S
N692 C696 1.362 . S
C693 C694 1.258 . S
C693 C696 1.431 . S
C693 C713 1.449 . S
C694 C693 1.258 . S
C694 C695 1.477 . S
C694 H714 0.931 . S
C695 C691 1.460 . S
C695 C694 1.477 . S
C695 H715 0.930 . S
C696 N692 1.362 . S
C696 C693 1.431 . S
C696 C706 1.476 . S
H697 C691 0.929 . S
C698 O689 1.250 . S
C698 O690 1.258 . S
O699 Mn684 2.162 . S
O699 C687 1.281 . S
O700 Mn684 2.297 . S
O700 C687 1.236 . S
N701 Mn685 2.282 . S
N701 C702 1.328 . S
N701 C706 1.318 . S
C702 N701 1.328 . S
C702 C703 1.457 . S
C702 H707 0.929 . S
C703 C702 1.457 . S
C703 C704 1.291 . S
C703 H716 0.931 . S
C704 C703 1.291 . S
C704 C705 1.373 . S
C704 H717 0.929 . S
C705 C704 1.373 . S
C705 C706 1.396 . S
C705 C712 1.403 . S
C706 C696 1.476 . S
C706 N701 1.318 . S
C706 C705 1.396 . S
H707 C702 0.929 . S
O708 Mn684 2.385 . S
O708 C686 1.234 . S
O709 Mn684 2.209 . S
O709 Mn685 2.215 . S
O709 C686 1.283 . S
O710 Mn684 2.094 . S
O710 C688 1.240 . S
O711 Mn685 2.117 . S
O711 C688 1.264 . S
C712 C705 1.403 . S
C712 C713 1.399 . S
C712 H718 0.929 . S
C713 C693 1.449 . S
C713 C712 1.399 . S
C713 H719 0.930 . S
H714 C694 0.931 . S
H715 C695 0.930 . S
H716 C703 0.931 . S
H717 C704 0.929 . S
H718 C712 0.929 . S
H719 C713 0.930 . S
Mn720 O725 2.095 . S
Mn720 O735 2.162 . S
Mn720 O736 2.297 . S
Mn720 O744 2.385 . S
Mn720 O745 2.209 . S
Mn720 O746 2.094 . S
Mn721 O726 2.121 . S
Mn721 N728 2.257 . S
Mn721 N737 2.282 . S
Mn721 O745 2.215 . S
Mn721 O747 2.117 . S
C722 O744 1.234 . S
C722 O745 1.283 . S
C723 O735 1.281 . S
C723 O736 1.236 . S
C724 O746 1.240 . S
C724 O747 1.264 . S
O725 Mn720 2.095 . S
O725 C734 1.250 . S
O726 Mn721 2.121 . S
O726 C734 1.258 . S
C727 N728 1.326 . S
C727 C731 1.460 . S
C727 H733 0.929 . S
N728 Mn721 2.257 . S
N728 C727 1.326 . S
N728 C732 1.362 . S
C729 C730 1.258 . S
C729 C732 1.431 . S
C729 C749 1.449 . S
C730 C729 1.258 . S
C730 C731 1.477 . S
C730 H750 0.931 . S
C731 C727 1.460 . S
C731 C730 1.477 . S
C731 H751 0.930 . S
C732 N728 1.362 . S
C732 C729 1.431 . S
C732 C742 1.476 . S
H733 C727 0.929 . S
C734 O725 1.250 . S
C734 O726 1.258 . S
O735 Mn720 2.162 . S
O735 C723 1.281 . S
O736 Mn720 2.297 . S
O736 C723 1.236 . S
N737 Mn721 2.282 . S
N737 C738 1.328 . S
N737 C742 1.318 . S
C738 N737 1.328 . S
C738 C739 1.457 . S
C738 H743 0.929 . S
C739 C738 1.457 . S
C739 C740 1.291 . S
C739 H752 0.931 1_554 S
C740 C739 1.291 . S
C740 C741 1.373 . S
C740 H753 0.929 . S
C741 C740 1.373 . S
C741 C742 1.396 . S
C741 C748 1.403 . S
C742 C732 1.476 . S
C742 N737 1.318 . S
C742 C741 1.396 . S
H743 C738 0.929 . S
O744 Mn720 2.385 . S
O744 C722 1.234 . S
O745 Mn720 2.209 . S
O745 Mn721 2.215 . S
O745 C722 1.283 . S
O746 Mn720 2.094 . S
O746 C724 1.240 . S
O747 Mn721 2.117 . S
O747 C724 1.264 . S
C748 C741 1.403 . S
C748 C749 1.399 . S
C748 H754 0.929 . S
C749 C729 1.449 . S
C749 C748 1.399 . S
C749 H755 0.930 . S
H750 C730 0.931 . S
H751 C731 0.930 . S
H752 C739 0.931 1_556 S
H753 C740 0.929 . S
H754 C748 0.929 . S
H755 C749 0.930 . S
Mn756 O761 2.095 . S
Mn756 O771 2.162 . S
Mn756 O772 2.297 . S
Mn756 O780 2.385 . S
Mn756 O781 2.209 . S
Mn756 O782 2.094 . S
Mn757 O762 2.121 . S
Mn757 N764 2.257 . S
Mn757 N773 2.282 . S
Mn757 O781 2.215 . S
Mn757 O783 2.117 . S
C758 O780 1.234 . S
C758 O781 1.283 . S
C759 O771 1.281 . S
C759 O772 1.236 . S
C760 O782 1.240 . S
C760 O783 1.264 . S
O761 Mn756 2.095 . S
O761 C770 1.250 . S
O762 Mn757 2.121 . S
O762 C770 1.258 . S
C763 N764 1.326 . S
C763 C767 1.460 . S
C763 H769 0.929 . S
N764 Mn757 2.257 . S
N764 C763 1.326 . S
N764 C768 1.362 . S
C765 C766 1.258 . S
C765 C768 1.431 . S
C765 C785 1.449 . S
C766 C765 1.258 . S
C766 C767 1.477 . S
C766 H786 0.931 . S
C767 C763 1.460 . S
C767 C766 1.477 . S
C767 H787 0.930 . S
C768 N764 1.362 . S
C768 C765 1.431 . S
C768 C778 1.476 . S
H769 C763 0.929 . S
C770 O761 1.250 . S
C770 O762 1.258 . S
O771 Mn756 2.162 . S
O771 C759 1.281 . S
O772 Mn756 2.297 . S
O772 C759 1.236 . S
N773 Mn757 2.282 . S
N773 C774 1.328 . S
N773 C778 1.318 . S
C774 N773 1.328 . S
C774 C775 1.457 . S
C774 H779 0.929 . S
C775 C774 1.457 . S
C775 C776 1.291 . S
C775 H788 0.931 . S
C776 C775 1.291 . S
C776 C777 1.373 . S
C776 H789 0.929 . S
C777 C776 1.373 . S
C777 C778 1.396 . S
C777 C784 1.403 . S
C778 C768 1.476 . S
C778 N773 1.318 . S
C778 C777 1.396 . S
H779 C774 0.929 . S
O780 Mn756 2.385 . S
O780 C758 1.234 . S
O781 Mn756 2.209 . S
O781 Mn757 2.215 . S
O781 C758 1.283 . S
O782 Mn756 2.094 . S
O782 C760 1.240 . S
O783 Mn757 2.117 . S
O783 C760 1.264 . S
C784 C777 1.403 . S
C784 C785 1.399 . S
C784 H790 0.929 . S
C785 C765 1.449 . S
C785 C784 1.399 . S
C785 H791 0.930 . S
H786 C766 0.931 . S
H787 C767 0.930 . S
H788 C775 0.931 . S
H789 C776 0.929 . S
H790 C784 0.929 . S
H791 C785 0.930 . S
Mn792 O797 2.095 . S
Mn792 O807 2.162 . S
Mn792 O808 2.297 . S
Mn792 O816 2.385 . S
Mn792 O817 2.209 . S
Mn792 O818 2.094 . S
Mn793 O798 2.121 . S
Mn793 N800 2.257 . S
Mn793 N809 2.282 . S
Mn793 O817 2.215 . S
Mn793 O819 2.117 . S
C794 O816 1.234 . S
C794 O817 1.283 . S
C795 O807 1.281 . S
C795 O808 1.236 . S
C796 O818 1.240 . S
C796 O819 1.264 . S
O797 Mn792 2.095 . S
O797 C806 1.250 . S
O798 Mn793 2.121 . S
O798 C806 1.258 . S
C799 N800 1.326 . S
C799 C803 1.460 . S
C799 H805 0.929 . S
N800 Mn793 2.257 . S
N800 C799 1.326 . S
N800 C804 1.362 . S
C801 C802 1.258 . S
C801 C804 1.431 . S
C801 C821 1.449 . S
C802 C801 1.258 . S
C802 C803 1.477 . S
C802 H822 0.931 . S
C803 C799 1.460 . S
C803 C802 1.477 . S
C803 H823 0.930 . S
C804 N800 1.362 . S
C804 C801 1.431 . S
C804 C814 1.476 . S
H805 C799 0.929 . S
C806 O797 1.250 . S
C806 O798 1.258 . S
O807 Mn792 2.162 . S
O807 C795 1.281 . S
O808 Mn792 2.297 . S
O808 C795 1.236 . S
N809 Mn793 2.282 . S
N809 C810 1.328 . S
N809 C814 1.318 . S
C810 N809 1.328 . S
C810 C811 1.457 . S
C810 H815 0.929 . S
C811 C810 1.457 . S
C811 C812 1.291 . S
C811 H824 0.931 1_554 S
C812 C811 1.291 . S
C812 C813 1.373 . S
C812 H825 0.929 . S
C813 C812 1.373 . S
C813 C814 1.396 . S
C813 C820 1.403 . S
C814 C804 1.476 . S
C814 N809 1.318 . S
C814 C813 1.396 . S
H815 C810 0.929 . S
O816 Mn792 2.385 . S
O816 C794 1.234 . S
O817 Mn792 2.209 . S
O817 Mn793 2.215 . S
O817 C794 1.283 . S
O818 Mn792 2.094 . S
O818 C796 1.240 . S
O819 Mn793 2.117 . S
O819 C796 1.264 . S
C820 C813 1.403 . S
C820 C821 1.399 . S
C820 H826 0.929 . S
C821 C801 1.449 . S
C821 C820 1.399 . S
C821 H827 0.930 . S
H822 C802 0.931 . S
H823 C803 0.930 . S
H824 C811 0.931 1_556 S
H825 C812 0.929 . S
H826 C820 0.929 . S
H827 C821 0.930 . S
Mn828 O833 2.095 . S
Mn828 O843 2.162 . S
Mn828 O844 2.297 . S
Mn828 O852 2.385 . S
Mn828 O853 2.209 . S
Mn828 O854 2.094 . S
Mn829 O834 2.121 . S
Mn829 N836 2.257 . S
Mn829 N845 2.282 . S
Mn829 O853 2.215 . S
Mn829 O855 2.117 . S
C830 O852 1.234 . S
C830 O853 1.283 . S
C831 O843 1.281 . S
C831 O844 1.236 . S
C832 O854 1.240 . S
C832 O855 1.264 . S
O833 Mn828 2.095 . S
O833 C842 1.250 . S
O834 Mn829 2.121 . S
O834 C842 1.258 . S
C835 N836 1.326 . S
C835 C839 1.460 . S
C835 H841 0.929 . S
N836 Mn829 2.257 . S
N836 C835 1.326 . S
N836 C840 1.362 . S
C837 C838 1.258 . S
C837 C840 1.431 . S
C837 C857 1.449 . S
C838 C837 1.258 . S
C838 C839 1.477 . S
C838 H858 0.931 . S
C839 C835 1.460 . S
C839 C838 1.477 . S
C839 H859 0.930 . S
C840 N836 1.362 . S
C840 C837 1.431 . S
C840 C850 1.476 . S
H841 C835 0.929 . S
C842 O833 1.250 . S
C842 O834 1.258 . S
O843 Mn828 2.162 . S
O843 C831 1.281 . S
O844 Mn828 2.297 . S
O844 C831 1.236 . S
N845 Mn829 2.282 . S
N845 C846 1.328 . S
N845 C850 1.318 . S
C846 N845 1.328 . S
C846 C847 1.457 . S
C846 H851 0.929 . S
C847 C846 1.457 . S
C847 C848 1.291 . S
C847 H860 0.931 . S
C848 C847 1.291 . S
C848 C849 1.373 . S
C848 H861 0.929 . S
C849 C848 1.373 . S
C849 C850 1.396 . S
C849 C856 1.403 . S
C850 C840 1.476 . S
C850 N845 1.318 . S
C850 C849 1.396 . S
H851 C846 0.929 . S
O852 Mn828 2.385 . S
O852 C830 1.234 . S
O853 Mn828 2.209 . S
O853 Mn829 2.215 . S
O853 C830 1.283 . S
O854 Mn828 2.094 . S
O854 C832 1.240 . S
O855 Mn829 2.117 . S
O855 C832 1.264 . S
C856 C849 1.403 . S
C856 C857 1.399 . S
C856 H862 0.929 . S
C857 C837 1.449 . S
C857 C856 1.399 . S
C857 H863 0.930 . S
H858 C838 0.931 . S
H859 C839 0.930 . S
H860 C847 0.931 . S
H861 C848 0.929 . S
H862 C856 0.929 . S
H863 C857 0.930 . S
C864 C865 1.369 . S
C864 C866 1.419 . S
C864 H868 0.930 . S
C865 C864 1.369 . S
C865 C874 1.429 . S
C866 C864 1.419 . S
C866 C867 1.363 . S
C866 H869 0.929 . S
C867 C866 1.363 . S
C867 C873 1.428 . S
H868 C864 0.930 . S
H869 C866 0.929 . S
S870 N871 1.613 . S
S870 N872 1.610 . S
N871 S870 1.613 . S
N871 C874 1.350 . S
N872 S870 1.610 . S
N872 C873 1.351 . S
C873 C867 1.428 . S
C873 N872 1.351 . S
C873 C874 1.434 . S
C874 C865 1.429 . S
C874 N871 1.350 . S
C874 C873 1.434 . S
C875 C876 1.369 . S
C875 C877 1.419 . S
C875 H879 0.930 . S
C876 C875 1.369 . S
C876 C885 1.429 . S
C877 C875 1.419 . S
C877 C878 1.363 . S
C877 H880 0.929 . S
C878 C877 1.363 . S
C878 C884 1.428 . S
H879 C875 0.930 . S
H880 C877 0.929 . S
S881 N882 1.613 . S
S881 N883 1.610 . S
N882 S881 1.613 . S
N882 C885 1.350 . S
N883 S881 1.610 . S
N883 C884 1.351 . S
C884 C878 1.428 . S
C884 N883 1.351 . S
C884 C885 1.434 . S
C885 C876 1.429 . S
C885 N882 1.350 . S
C885 C884 1.434 . S
C886 C887 1.369 . S
C886 C888 1.419 . S
C886 H890 0.930 . S
C887 C886 1.369 . S
C887 C896 1.429 . S
C888 C886 1.419 . S
C888 C889 1.363 . S
C888 H891 0.929 . S
C889 C888 1.363 . S
C889 C895 1.428 . S
H890 C886 0.930 . S
H891 C888 0.929 . S
S892 N893 1.613 . S
S892 N894 1.610 . S
N893 S892 1.613 . S
N893 C896 1.350 . S
N894 S892 1.610 . S
N894 C895 1.351 . S
C895 C889 1.428 . S
C895 N894 1.351 . S
C895 C896 1.434 . S
C896 C887 1.429 . S
C896 N893 1.350 . S
C896 C895 1.434 . S
C897 C898 1.369 . S
C897 C899 1.419 . S
C897 H901 0.930 . S
C898 C897 1.369 . S
C898 C907 1.429 . S
C899 C897 1.419 . S
C899 C900 1.363 . S
C899 H902 0.929 . S
C900 C899 1.363 . S
C900 C906 1.428 . S
H901 C897 0.930 . S
H902 C899 0.929 . S
S903 N904 1.613 . S
S903 N905 1.610 . S
N904 S903 1.613 . S
N904 C907 1.350 . S
N905 S903 1.610 . S
N905 C906 1.351 . S
C906 C900 1.428 . S
C906 N905 1.351 . S
C906 C907 1.434 . S
C907 C898 1.429 . S
C907 N904 1.350 . S
C907 C906 1.434 . S
C908 C909 1.369 . S
C908 C910 1.419 . S
C908 H912 0.930 . S
C909 C908 1.369 . S
C909 C918 1.429 . S
C910 C908 1.419 . S
C910 C911 1.363 . S
C910 H913 0.929 . S
C911 C910 1.363 . S
C911 C917 1.428 . S
H912 C908 0.930 . S
H913 C910 0.929 . S
S914 N915 1.613 . S
S914 N916 1.610 . S
N915 S914 1.613 . S
N915 C918 1.350 . S
N916 S914 1.610 . S
N916 C917 1.351 . S
C917 C911 1.428 . S
C917 N916 1.351 . S
C917 C918 1.434 . S
C918 C909 1.429 . S
C918 N915 1.350 . S
C918 C917 1.434 . S
C919 C920 1.369 . S
C919 C921 1.419 . S
C919 H923 0.930 . S
C920 C919 1.369 . S
C920 C929 1.429 . S
C921 C919 1.419 . S
C921 C922 1.363 . S
C921 H924 0.929 . S
C922 C921 1.363 . S
C922 C928 1.428 . S
H923 C919 0.930 . S
H924 C921 0.929 . S
S925 N926 1.613 . S
S925 N927 1.610 . S
N926 S925 1.613 . S
N926 C929 1.350 . S
N927 S925 1.610 . S
N927 C928 1.351 . S
C928 C922 1.428 . S
C928 N927 1.351 . S
C928 C929 1.434 . S
C929 C920 1.429 . S
C929 N926 1.350 . S
C929 C928 1.434 . S
C930 C931 1.369 . S
C930 C932 1.419 . S
C930 H934 0.930 . S
C931 C930 1.369 . S
C931 C940 1.429 . S
C932 C930 1.419 . S
C932 C933 1.363 . S
C932 H935 0.929 . S
C933 C932 1.363 . S
C933 C939 1.428 . S
H934 C930 0.930 . S
H935 C932 0.929 . S
S936 N937 1.613 . S
S936 N938 1.610 . S
N937 S936 1.613 . S
N937 C940 1.350 . S
N938 S936 1.610 . S
N938 C939 1.351 . S
C939 C933 1.428 . S
C939 N938 1.351 . S
C939 C940 1.434 . S
C940 C931 1.429 . S
C940 N937 1.350 . S
C940 C939 1.434 . S
C941 C942 1.369 . S
C941 C943 1.419 . S
C941 H945 0.930 . S
C942 C941 1.369 . S
C942 C951 1.429 . S
C943 C941 1.419 . S
C943 C944 1.363 . S
C943 H946 0.929 . S
C944 C943 1.363 . S
C944 C950 1.428 . S
H945 C941 0.930 . S
H946 C943 0.929 . S
S947 N948 1.613 . S
S947 N949 1.610 . S
N948 S947 1.613 . S
N948 C951 1.350 . S
N949 S947 1.610 . S
N949 C950 1.351 . S
C950 C944 1.428 . S
C950 N949 1.351 . S
C950 C951 1.434 . S
C951 C942 1.429 . S
C951 N948 1.350 . S
C951 C950 1.434 . S
C952 C953 1.369 . S
C952 C954 1.419 . S
C952 H956 0.930 . S
C953 C952 1.369 . S
C953 C962 1.429 . S
C954 C952 1.419 . S
C954 C955 1.363 . S
C954 H957 0.929 . S
C955 C954 1.363 . S
C955 C961 1.428 . S
H956 C952 0.930 . S
H957 C954 0.929 . S
S958 N959 1.613 . S
S958 N960 1.610 . S
N959 S958 1.613 . S
N959 C962 1.350 . S
N960 S958 1.610 . S
N960 C961 1.351 . S
C961 C955 1.428 . S
C961 N960 1.351 . S
C961 C962 1.434 . S
C962 C953 1.429 . S
C962 N959 1.350 . S
C962 C961 1.434 . S
C963 C964 1.369 . S
C963 C965 1.419 . S
C963 H967 0.930 . S
C964 C963 1.369 . S
C964 C973 1.429 . S
C965 C963 1.419 . S
C965 C966 1.363 . S
C965 H968 0.929 . S
C966 C965 1.363 . S
C966 C972 1.428 . S
H967 C963 0.930 . S
H968 C965 0.929 . S
S969 N970 1.613 . S
S969 N971 1.610 . S
N970 S969 1.613 . S
N970 C973 1.350 . S
N971 S969 1.610 . S
N971 C972 1.351 . S
C972 C966 1.428 . S
C972 N971 1.351 . S
C972 C973 1.434 . S
C973 C964 1.429 . S
C973 N970 1.350 . S
C973 C972 1.434 . S
C974 C975 1.369 . S
C974 C976 1.419 . S
C974 H978 0.930 . S
C975 C974 1.369 . S
C975 C984 1.429 . S
C976 C974 1.419 . S
C976 C977 1.363 . S
C976 H979 0.929 . S
C977 C976 1.363 . S
C977 C983 1.428 . S
H978 C974 0.930 . S
H979 C976 0.929 . S
S980 N981 1.613 . S
S980 N982 1.610 . S
N981 S980 1.613 . S
N981 C984 1.350 . S
N982 S980 1.610 . S
N982 C983 1.351 . S
C983 C977 1.428 . S
C983 N982 1.351 . S
C983 C984 1.434 . S
C984 C975 1.429 . S
C984 N981 1.350 . S
C984 C983 1.434 . S
C985 C986 1.369 . S
C985 C987 1.419 . S
C985 H989 0.930 . S
C986 C985 1.369 . S
C986 C995 1.429 . S
C987 C985 1.419 . S
C987 C988 1.363 . S
C987 H990 0.929 . S
C988 C987 1.363 . S
C988 C994 1.428 . S
H989 C985 0.930 . S
H990 C987 0.929 . S
S991 N992 1.613 . S
S991 N993 1.610 . S
N992 S991 1.613 . S
N992 C995 1.350 . S
N993 S991 1.610 . S
N993 C994 1.351 . S
C994 C988 1.428 . S
C994 N993 1.351 . S
C994 C995 1.434 . S
C995 C986 1.429 . S
C995 N992 1.350 . S
C995 C994 1.434 . S
C996 C997 1.369 . S
C996 C998 1.419 . S
C996 H1000 0.930 . S
C997 C996 1.369 . S
C997 C1006 1.429 1_556 S
C998 C996 1.419 . S
C998 C999 1.363 1_556 S
C998 H1001 0.929 . S
C999 C998 1.363 1_554 S
C999 C1005 1.428 . S
H1000 C996 0.930 . S
H1001 C998 0.929 . S
S1002 N1003 1.613 . S
S1002 N1004 1.610 . S
N1003 S1002 1.613 . S
N1003 C1006 1.350 . S
N1004 S1002 1.610 . S
N1004 C1005 1.351 . S
C1005 C999 1.428 . S
C1005 N1004 1.351 . S
C1005 C1006 1.434 . S
C1006 C997 1.429 1_554 S
C1006 N1003 1.350 . S
C1006 C1005 1.434 . S
C1007 C1008 1.369 . S
C1007 C1009 1.419 . S
C1007 H1011 0.930 . S
C1008 C1007 1.369 . S
C1008 C1017 1.429 . S
C1009 C1007 1.419 . S
C1009 C1010 1.363 . S
C1009 H1012 0.929 . S
C1010 C1009 1.363 . S
C1010 C1016 1.428 . S
H1011 C1007 0.930 . S
H1012 C1009 0.929 . S
S1013 N1014 1.613 . S
S1013 N1015 1.610 . S
N1014 S1013 1.613 . S
N1014 C1017 1.350 . S
N1015 S1013 1.610 . S
N1015 C1016 1.351 . S
C1016 C1010 1.428 . S
C1016 N1015 1.351 . S
C1016 C1017 1.434 . S
C1017 C1008 1.429 . S
C1017 N1014 1.350 . S
C1017 C1016 1.434 . S
C1018 C1019 1.369 . S
C1018 C1020 1.419 . S
C1018 H1022 0.930 . S
C1019 C1018 1.369 . S
C1019 C1028 1.429 1_554 S
C1020 C1018 1.419 . S
C1020 C1021 1.363 1_554 S
C1020 H1023 0.929 . S
C1021 C1020 1.363 1_556 S
C1021 C1027 1.428 . S
H1022 C1018 0.930 . S
H1023 C1020 0.929 . S
S1024 N1025 1.613 . S
S1024 N1026 1.610 . S
N1025 S1024 1.613 . S
N1025 C1028 1.350 . S
N1026 S1024 1.610 . S
N1026 C1027 1.351 . S
C1027 C1021 1.428 . S
C1027 N1026 1.351 . S
C1027 C1028 1.434 . S
C1028 C1019 1.429 1_556 S
C1028 N1025 1.350 . S
C1028 C1027 1.434 . S
C1029 C1030 1.369 . S
C1029 C1031 1.419 . S
C1029 H1033 0.930 . S
C1030 C1029 1.369 . S
C1030 C1039 1.429 . S
C1031 C1029 1.419 . S
C1031 C1032 1.363 . S
C1031 H1034 0.929 . S
C1032 C1031 1.363 . S
C1032 C1038 1.428 . S
H1033 C1029 0.930 . S
H1034 C1031 0.929 . S
S1035 N1036 1.613 . S
S1035 N1037 1.610 . S
N1036 S1035 1.613 . S
N1036 C1039 1.350 . S
N1037 S1035 1.610 . S
N1037 C1038 1.351 . S
C1038 C1032 1.428 . S
C1038 N1037 1.351 . S
C1038 C1039 1.434 . S
C1039 C1030 1.429 . S
C1039 N1036 1.350 . S
C1039 C1038 1.434 . S
C1040 C1041 1.369 . S
C1040 C1042 1.415 1_556 S
C1040 H1044 0.930 . S
C1041 C1040 1.369 . S
C1041 C1050 1.429 1_556 S
C1042 C1040 1.415 1_554 S
C1042 C1043 1.367 . S
C1042 H1045 0.929 1_554 S
C1043 C1042 1.367 . S
C1043 C1049 1.428 . S
H1044 C1040 0.930 . S
H1045 C1042 0.929 1_556 S
S1046 N1047 1.613 . S
S1046 N1048 1.610 . S
N1047 S1046 1.613 . S
N1047 C1050 1.350 . S
N1048 S1046 1.610 . S
N1048 C1049 1.351 . S
C1049 C1043 1.428 . S
C1049 N1048 1.351 . S
C1049 C1050 1.434 . S
C1050 C1041 1.429 1_554 S
C1050 N1047 1.350 . S
C1050 C1049 1.434 . S
C1051 C1052 1.369 . S
C1051 C1053 1.419 . S
C1051 H1055 0.930 . S
C1052 C1051 1.369 . S
C1052 C1061 1.429 . S
C1053 C1051 1.419 . S
C1053 C1054 1.363 . S
C1053 H1056 0.929 . S
C1054 C1053 1.363 . S
C1054 C1060 1.428 . S
H1055 C1051 0.930 . S
H1056 C1053 0.929 . S
S1057 N1058 1.613 . S
S1057 N1059 1.610 . S
N1058 S1057 1.613 . S
N1058 C1061 1.350 . S
N1059 S1057 1.610 . S
N1059 C1060 1.351 . S
C1060 C1054 1.428 . S
C1060 N1059 1.351 . S
C1060 C1061 1.434 . S
C1061 C1052 1.429 . S
C1061 N1058 1.350 . S
C1061 C1060 1.434 . S
C1062 C1063 1.377 . S
C1062 C1064 1.411 1_554 S
C1062 H1066 0.930 1_554 S
C1063 C1062 1.377 . S
C1063 C1072 1.429 . S
C1064 C1062 1.411 1_556 S
C1064 C1065 1.363 . S
C1064 H1067 0.929 . S
C1065 C1064 1.363 . S
C1065 C1071 1.417 1_556 S
H1066 C1062 0.930 1_556 S
H1067 C1064 0.929 . S
S1068 N1069 1.613 . S
S1068 N1070 1.610 . S
N1069 S1068 1.613 . S
N1069 C1072 1.350 . S
N1070 S1068 1.610 . S
N1070 C1071 1.354 . S
C1071 C1065 1.417 1_554 S
C1071 N1070 1.354 . S
C1071 C1072 1.445 . S
C1072 C1063 1.429 . S
C1072 N1069 1.350 . S
C1072 C1071 1.445 . S
C1073 C1074 1.369 . S
C1073 C1075 1.419 . S
C1073 H1077 0.930 . S
C1074 C1073 1.369 . S
C1074 C1083 1.429 . S
C1075 C1073 1.419 . S
C1075 C1076 1.363 . S
C1075 H1078 0.929 . S
C1076 C1075 1.363 . S
C1076 C1082 1.428 . S
H1077 C1073 0.930 . S
H1078 C1075 0.929 . S
S1079 N1080 1.613 . S
S1079 N1081 1.610 . S
N1080 S1079 1.613 . S
N1080 C1083 1.350 . S
N1081 S1079 1.610 . S
N1081 C1082 1.351 . S
C1082 C1076 1.428 . S
C1082 N1081 1.351 . S
C1082 C1083 1.434 . S
C1083 C1074 1.429 . S
C1083 N1080 1.350 . S
C1083 C1082 1.434 . S
C1084 C1085 1.369 . S
C1084 C1086 1.419 . S
C1084 H1088 0.930 . S
C1085 C1084 1.369 . S
C1085 C1094 1.429 1_556 S
C1086 C1084 1.419 . S
C1086 C1087 1.363 1_556 S
C1086 H1089 0.929 . S
C1087 C1086 1.363 1_554 S
C1087 C1093 1.428 . S
H1088 C1084 0.930 . S
H1089 C1086 0.929 . S
S1090 N1091 1.613 . S
S1090 N1092 1.610 . S
N1091 S1090 1.613 . S
N1091 C1094 1.350 . S
N1092 S1090 1.610 . S
N1092 C1093 1.351 . S
C1093 C1087 1.428 . S
C1093 N1092 1.351 . S
C1093 C1094 1.434 . S
C1094 C1085 1.429 1_554 S
C1094 N1091 1.350 . S
C1094 C1093 1.434 . S
C1095 C1096 1.369 . S
C1095 C1097 1.419 . S
C1095 H1099 0.930 . S
C1096 C1095 1.369 . S
C1096 C1105 1.429 . S
C1097 C1095 1.419 . S
C1097 C1098 1.363 . S
C1097 H1100 0.929 . S
C1098 C1097 1.363 . S
C1098 C1104 1.428 . S
H1099 C1095 0.930 . S
H1100 C1097 0.929 . S
S1101 N1102 1.613 . S
S1101 N1103 1.610 . S
N1102 S1101 1.613 . S
N1102 C1105 1.350 . S
N1103 S1101 1.610 . S
N1103 C1104 1.351 . S
C1104 C1098 1.428 . S
C1104 N1103 1.351 . S
C1104 C1105 1.434 . S
C1105 C1096 1.429 . S
C1105 N1102 1.350 . S
C1105 C1104 1.434 . S
C1106 C1107 1.369 . S
C1106 C1108 1.419 . S
C1106 H1110 0.930 . S
C1107 C1106 1.369 . S
C1107 C1116 1.429 1_556 S
C1108 C1106 1.419 . S
C1108 C1109 1.363 1_556 S
C1108 H1111 0.929 . S
C1109 C1108 1.363 1_554 S
C1109 C1115 1.428 . S
H1110 C1106 0.930 . S
H1111 C1108 0.929 . S
S1112 N1113 1.613 . S
S1112 N1114 1.610 . S
N1113 S1112 1.613 . S
N1113 C1116 1.350 . S
N1114 S1112 1.610 . S
N1114 C1115 1.351 . S
C1115 C1109 1.428 . S
C1115 N1114 1.351 . S
C1115 C1116 1.434 . S
C1116 C1107 1.429 1_554 S
C1116 N1113 1.350 . S
C1116 C1115 1.434 . S
C1117 C1118 1.369 . S
C1117 C1119 1.419 . S
C1117 H1121 0.930 . S
C1118 C1117 1.369 . S
C1118 C1127 1.429 . S
C1119 C1117 1.419 . S
C1119 C1120 1.363 . S
C1119 H1122 0.929 . S
C1120 C1119 1.363 . S
C1120 C1126 1.428 . S
H1121 C1117 0.930 . S
H1122 C1119 0.929 . S
S1123 N1124 1.613 . S
S1123 N1125 1.610 . S
N1124 S1123 1.613 . S
N1124 C1127 1.350 . S
N1125 S1123 1.610 . S
N1125 C1126 1.351 . S
C1126 C1120 1.428 . S
C1126 N1125 1.351 . S
C1126 C1127 1.434 . S
C1127 C1118 1.429 . S
C1127 N1124 1.350 . S
C1127 C1126 1.434 . S
C1128 C1129 1.369 . S
C1128 C1130 1.419 . S
C1128 H1132 0.930 . S
C1129 C1128 1.369 . S
C1129 C1138 1.429 . S
C1130 C1128 1.419 . S
C1130 C1131 1.363 . S
C1130 H1133 0.929 . S
C1131 C1130 1.363 . S
C1131 C1137 1.428 . S
H1132 C1128 0.930 . S
H1133 C1130 0.929 . S
S1134 N1135 1.613 . S
S1134 N1136 1.610 . S
N1135 S1134 1.613 . S
N1135 C1138 1.350 1_556 S
N1136 S1134 1.610 . S
N1136 C1137 1.351 1_556 S
C1137 C1131 1.428 . S
C1137 N1136 1.351 1_554 S
C1137 C1138 1.434 . S
C1138 C1129 1.429 . S
C1138 N1135 1.350 1_554 S
C1138 C1137 1.434 . S
C1139 C1140 1.369 . S
C1139 C1141 1.419 1_455 S
C1139 H1143 0.930 . S
C1140 C1139 1.369 . S
C1140 C1149 1.429 . S
C1141 C1139 1.419 1_655 S
C1141 C1142 1.363 . S
C1141 H1144 0.929 . S
C1142 C1141 1.363 . S
C1142 C1148 1.428 . S
H1143 C1139 0.930 . S
H1144 C1141 0.929 . S
S1145 N1146 1.617 1_655 S
S1145 N1147 1.609 . S
N1146 S1145 1.617 1_455 S
N1146 C1149 1.350 . S
N1147 S1145 1.609 . S
N1147 C1148 1.351 . S
C1148 C1142 1.428 . S
C1148 N1147 1.351 . S
C1148 C1149 1.434 1_655 S
C1149 C1140 1.429 . S
C1149 N1146 1.350 . S
C1149 C1148 1.434 1_455 S
C1150 C1151 1.369 . S
C1150 C1152 1.419 1_565 S
C1150 H1154 0.930 . S
C1151 C1150 1.369 . S
C1151 C1160 1.429 . S
C1152 C1150 1.419 1_545 S
C1152 C1153 1.363 . S
C1152 H1155 0.929 . S
C1153 C1152 1.363 . S
C1153 C1159 1.428 . S
H1154 C1150 0.930 . S
H1155 C1152 0.929 . S
S1156 N1157 1.614 1_545 S
S1156 N1158 1.608 . S
N1157 S1156 1.614 1_565 S
N1157 C1160 1.350 . S
N1158 S1156 1.608 . S
N1158 C1159 1.351 . S
C1159 C1153 1.428 . S
C1159 N1158 1.351 . S
C1159 C1160 1.434 1_545 S
C1160 C1151 1.429 . S
C1160 N1157 1.350 . S
C1160 C1159 1.434 1_565 S
C1161 C1162 1.369 . S
C1161 C1163 1.419 . S
C1161 H1165 0.930 . S
C1162 C1161 1.369 . S
C1162 C1171 1.429 . S
C1163 C1161 1.419 . S
C1163 C1164 1.363 . S
C1163 H1166 0.929 . S
C1164 C1163 1.363 . S
C1164 C1170 1.428 . S
H1165 C1161 0.930 . S
H1166 C1163 0.929 . S
S1167 N1168 1.613 . S
S1167 N1169 1.610 . S
N1168 S1167 1.613 . S
N1168 C1171 1.350 . S
N1169 S1167 1.610 . S
N1169 C1170 1.351 . S
C1170 C1164 1.428 . S
C1170 N1169 1.351 . S
C1170 C1171 1.434 . S
C1171 C1162 1.429 . S
C1171 N1168 1.350 . S
C1171 C1170 1.434 . S
C1172 C1173 1.369 . S
C1172 C1174 1.419 1_655 S
C1172 H1176 0.930 . S
C1173 C1172 1.369 . S
C1173 C1182 1.429 . S
C1174 C1172 1.419 1_455 S
C1174 C1175 1.363 . S
C1174 H1177 0.929 . S
C1175 C1174 1.363 . S
C1175 C1181 1.428 . S
H1176 C1172 0.930 . S
H1177 C1174 0.929 . S
S1178 N1179 1.617 1_455 S
S1178 N1180 1.609 . S
N1179 S1178 1.617 1_655 S
N1179 C1182 1.350 . S
N1180 S1178 1.609 . S
N1180 C1181 1.351 . S
C1181 C1175 1.428 . S
C1181 N1180 1.351 . S
C1181 C1182 1.434 1_455 S
C1182 C1173 1.429 . S
C1182 N1179 1.350 . S
C1182 C1181 1.434 1_655 S
C1183 C1184 1.369 . S
C1183 C1185 1.419 1_545 S
C1183 H1187 0.930 . S
C1184 C1183 1.369 . S
C1184 C1193 1.429 . S
C1185 C1183 1.419 1_565 S
C1185 C1186 1.363 . S
C1185 H1188 0.929 . S
C1186 C1185 1.363 . S
C1186 C1192 1.428 . S
H1187 C1183 0.930 . S
H1188 C1185 0.929 . S
S1189 N1190 1.614 1_565 S
S1189 N1191 1.608 . S
N1190 S1189 1.614 1_545 S
N1190 C1193 1.350 . S
N1191 S1189 1.608 . S
N1191 C1192 1.351 . S
C1192 C1186 1.428 . S
C1192 N1191 1.351 . S
C1192 C1193 1.434 1_565 S
C1193 C1184 1.429 . S
C1193 N1190 1.350 . S
C1193 C1192 1.434 1_545 S
C1194 C1195 1.369 . S
C1194 C1196 1.419 . S
C1194 H1198 0.930 . S
C1195 C1194 1.369 . S
C1195 C1204 1.429 . S
C1196 C1194 1.419 . S
C1196 C1197 1.363 . S
C1196 H1199 0.929 . S
C1197 C1196 1.363 . S
C1197 C1203 1.428 . S
H1198 C1194 0.930 . S
H1199 C1196 0.929 . S
S1200 N1201 1.613 . S
S1200 N1202 1.610 . S
N1201 S1200 1.613 . S
N1201 C1204 1.350 . S
N1202 S1200 1.610 . S
N1202 C1203 1.351 . S
C1203 C1197 1.428 . S
C1203 N1202 1.351 . S
C1203 C1204 1.434 . S
C1204 C1195 1.429 . S
C1204 N1201 1.350 . S
C1204 C1203 1.434 . S
C1205 C1206 1.369 . S
C1205 C1207 1.419 1_655 S
C1205 H1209 0.930 . S
C1206 C1205 1.369 . S
C1206 C1215 1.429 . S
C1207 C1205 1.419 1_455 S
C1207 C1208 1.363 . S
C1207 H1210 0.929 . S
C1208 C1207 1.363 . S
C1208 C1214 1.428 . S
H1209 C1205 0.930 . S
H1210 C1207 0.929 . S
S1211 N1212 1.616 1_455 S
S1211 N1213 1.608 . S
N1212 S1211 1.616 1_655 S
N1212 C1215 1.350 . S
N1213 S1211 1.608 . S
N1213 C1214 1.351 . S
C1214 C1208 1.428 . S
C1214 N1213 1.351 . S
C1214 C1215 1.434 1_455 S
C1215 C1206 1.429 . S
C1215 N1212 1.350 . S
C1215 C1214 1.434 1_655 S
C1216 C1217 1.369 . S
C1216 C1218 1.419 1_545 S
C1216 H1220 0.930 . S
C1217 C1216 1.369 . S
C1217 C1226 1.429 . S
C1218 C1216 1.419 1_565 S
C1218 C1219 1.363 . S
C1218 H1221 0.929 . S
C1219 C1218 1.363 . S
C1219 C1225 1.428 . S
H1220 C1216 0.930 . S
H1221 C1218 0.929 . S
S1222 N1223 1.614 1_565 S
S1222 N1224 1.608 . S
N1223 S1222 1.614 1_545 S
N1223 C1226 1.350 . S
N1224 S1222 1.608 . S
N1224 C1225 1.351 . S
C1225 C1219 1.428 . S
C1225 N1224 1.351 . S
C1225 C1226 1.434 1_565 S
C1226 C1217 1.429 . S
C1226 N1223 1.350 . S
C1226 C1225 1.434 1_545 S
C1227 C1228 1.369 . S
C1227 C1229 1.419 . S
C1227 H1231 0.930 . S
C1228 C1227 1.369 . S
C1228 C1237 1.429 . S
C1229 C1227 1.419 . S
C1229 C1230 1.363 . S
C1229 H1232 0.929 . S
C1230 C1229 1.363 . S
C1230 C1236 1.428 . S
H1231 C1227 0.930 . S
H1232 C1229 0.929 . S
S1233 N1234 1.613 . S
S1233 N1235 1.610 . S
N1234 S1233 1.613 . S
N1234 C1237 1.350 . S
N1235 S1233 1.610 . S
N1235 C1236 1.351 . S
C1236 C1230 1.428 . S
C1236 N1235 1.351 . S
C1236 C1237 1.434 . S
C1237 C1228 1.429 . S
C1237 N1234 1.350 . S
C1237 C1236 1.434 . S
C1238 C1239 1.369 . S
C1238 C1240 1.419 1_455 S
C1238 H1242 0.930 . S
C1239 C1238 1.369 . S
C1239 C1248 1.429 . S
C1240 C1238 1.419 1_655 S
C1240 C1241 1.363 . S
C1240 H1243 0.929 . S
C1241 C1240 1.363 . S
C1241 C1247 1.428 . S
H1242 C1238 0.930 . S
H1243 C1240 0.929 . S
S1244 N1245 1.615 1_655 S
S1244 N1246 1.608 . S
N1245 S1244 1.615 1_455 S
N1245 C1248 1.350 . S
N1246 S1244 1.608 . S
N1246 C1247 1.351 . S
C1247 C1241 1.428 . S
C1247 N1246 1.351 . S
C1247 C1248 1.434 1_655 S
C1248 C1239 1.429 . S
C1248 N1245 1.350 . S
C1248 C1247 1.434 1_455 S
C1249 C1250 1.369 . S
C1249 C1251 1.419 1_565 S
C1249 H1253 0.930 . S
C1250 C1249 1.369 . S
C1250 C1259 1.429 . S
C1251 C1249 1.419 1_545 S
C1251 C1252 1.363 . S
C1251 H1254 0.929 . S
C1252 C1251 1.363 . S
C1252 C1258 1.428 . S
H1253 C1249 0.930 . S
H1254 C1251 0.929 . S
S1255 N1256 1.617 1_545 S
S1255 N1257 1.609 . S
N1256 S1255 1.617 1_565 S
N1256 C1259 1.350 . S
N1257 S1255 1.609 . S
N1257 C1258 1.351 . S
C1258 C1252 1.428 . S
C1258 N1257 1.351 . S
C1258 C1259 1.434 1_545 S
C1259 C1250 1.429 . S
C1259 N1256 1.350 . S
C1259 C1258 1.434 1_565 S
C1260 C1261 1.369 . S
C1260 C1262 1.419 1_556 S
C1260 H1264 0.930 . S
C1261 C1260 1.369 . S
C1261 C1270 1.429 . S
C1262 C1260 1.419 1_554 S
C1262 C1263 1.363 . S
C1262 H1265 0.929 . S
C1263 C1262 1.363 . S
C1263 C1269 1.428 . S
H1264 C1260 0.930 . S
H1265 C1262 0.929 . S
S1266 N1267 1.613 . S
S1266 N1268 1.610 1_556 S
N1267 S1266 1.613 . S
N1267 C1270 1.350 . S
N1268 S1266 1.610 1_554 S
N1268 C1269 1.351 . S
C1269 C1263 1.428 . S
C1269 N1268 1.351 . S
C1269 C1270 1.434 1_554 S
C1270 C1261 1.429 . S
C1270 N1267 1.350 . S
C1270 C1269 1.434 1_556 S
C1271 C1272 1.369 . S
C1271 C1273 1.419 . S
C1271 H1275 0.930 . S
C1272 C1271 1.369 . S
C1272 C1281 1.429 . S
C1273 C1271 1.419 . S
C1273 C1274 1.363 . S
C1273 H1276 0.929 . S
C1274 C1273 1.363 . S
C1274 C1280 1.428 . S
H1275 C1271 0.930 . S
H1276 C1273 0.929 . S
S1277 N1278 1.613 . S
S1277 N1279 1.610 . S
N1278 S1277 1.613 . S
N1278 C1281 1.350 . S
N1279 S1277 1.610 . S
N1279 C1280 1.351 . S
C1280 C1274 1.428 . S
C1280 N1279 1.351 . S
C1280 C1281 1.434 . S
C1281 C1272 1.429 . S
C1281 N1278 1.350 . S
C1281 C1280 1.434 . S
C1282 C1283 1.368 1_554 S
C1282 C1284 1.419 . S
C1282 H1286 0.930 . S
C1283 C1282 1.368 1_556 S
C1283 C1292 1.429 . S
C1284 C1282 1.419 . S
C1284 C1285 1.363 . S
C1284 H1287 0.929 . S
C1285 C1284 1.363 . S
C1285 C1291 1.428 1_554 S
H1286 C1282 0.930 . S
H1287 C1284 0.929 . S
S1288 N1289 1.613 . S
S1288 N1290 1.610 . S
N1289 S1288 1.613 . S
N1289 C1292 1.350 . S
N1290 S1288 1.610 . S
N1290 C1291 1.351 . S
C1291 C1285 1.428 1_556 S
C1291 N1290 1.351 . S
C1291 C1292 1.434 . S
C1292 C1283 1.429 . S
C1292 N1289 1.350 . S
C1292 C1291 1.434 . S
C1293 C1294 1.369 . S
C1293 C1295 1.419 . S
C1293 H1297 0.930 . S
C1294 C1293 1.369 . S
C1294 C1303 1.429 . S
C1295 C1293 1.419 . S
C1295 C1296 1.363 . S
C1295 H1298 0.929 . S
C1296 C1295 1.363 . S
C1296 C1302 1.428 . S
H1297 C1293 0.930 . S
H1298 C1295 0.929 . S
S1299 N1300 1.613 . S
S1299 N1301 1.610 . S
N1300 S1299 1.613 . S
N1300 C1303 1.350 . S
N1301 S1299 1.610 . S
N1301 C1302 1.351 . S
C1302 C1296 1.428 . S
C1302 N1301 1.351 . S
C1302 C1303 1.434 . S
C1303 C1294 1.429 . S
C1303 N1300 1.350 . S
C1303 C1302 1.434 . S
C1304 C1305 1.369 1_554 S
C1304 C1306 1.419 . S
C1304 H1308 0.930 . S
C1305 C1304 1.369 1_556 S
C1305 C1314 1.429 . S
C1306 C1304 1.419 . S
C1306 C1307 1.363 . S
C1306 H1309 0.929 . S
C1307 C1306 1.363 . S
C1307 C1313 1.428 1_554 S
H1308 C1304 0.930 . S
H1309 C1306 0.929 . S
S1310 N1311 1.613 . S
S1310 N1312 1.610 . S
N1311 S1310 1.613 . S
N1311 C1314 1.350 . S
N1312 S1310 1.610 . S
N1312 C1313 1.351 . S
C1313 C1307 1.428 1_556 S
C1313 N1312 1.351 . S
C1313 C1314 1.434 . S
C1314 C1305 1.429 . S
C1314 N1311 1.350 . S
C1314 C1313 1.434 . S
C1315 C1316 1.369 . S
C1315 C1317 1.419 . S
C1315 H1319 0.930 . S
C1316 C1315 1.369 . S
C1316 C1325 1.429 . S
C1317 C1315 1.419 . S
C1317 C1318 1.363 . S
C1317 H1320 0.929 . S
C1318 C1317 1.363 . S
C1318 C1324 1.428 . S
H1319 C1315 0.930 . S
H1320 C1317 0.929 . S
S1321 N1322 1.613 . S
S1321 N1323 1.610 . S
N1322 S1321 1.613 . S
N1322 C1325 1.350 . S
N1323 S1321 1.610 . S
N1323 C1324 1.351 . S
C1324 C1318 1.428 . S
C1324 N1323 1.351 . S
C1324 C1325 1.434 . S
C1325 C1316 1.429 . S
C1325 N1322 1.350 . S
C1325 C1324 1.434 . S
C1326 C1327 1.369 1_556 S
C1326 C1328 1.419 . S
C1326 H1330 0.930 . S
C1327 C1326 1.369 1_554 S
C1327 C1336 1.429 . S
C1328 C1326 1.419 . S
C1328 C1329 1.363 . S
C1328 H1331 0.929 . S
C1329 C1328 1.363 . S
C1329 C1335 1.428 1_556 S
H1330 C1326 0.930 . S
H1331 C1328 0.929 . S
S1332 N1333 1.613 . S
S1332 N1334 1.610 . S
N1333 S1332 1.613 . S
N1333 C1336 1.350 . S
N1334 S1332 1.610 . S
N1334 C1335 1.351 . S
C1335 C1329 1.428 1_554 S
C1335 N1334 1.351 . S
C1335 C1336 1.434 . S
C1336 C1327 1.429 . S
C1336 N1333 1.350 . S
C1336 C1335 1.434 . S
C1337 C1338 1.369 . S
C1337 C1339 1.419 . S
C1337 H1341 0.930 . S
C1338 C1337 1.369 . S
C1338 C1347 1.429 . S
C1339 C1337 1.419 . S
C1339 C1340 1.363 . S
C1339 H1342 0.929 . S
C1340 C1339 1.363 . S
C1340 C1346 1.428 . S
H1341 C1337 0.930 . S
H1342 C1339 0.929 . S
S1343 N1344 1.613 . S
S1343 N1345 1.610 . S
N1344 S1343 1.613 . S
N1344 C1347 1.350 . S
N1345 S1343 1.610 . S
N1345 C1346 1.351 . S
C1346 C1340 1.428 . S
C1346 N1345 1.351 . S
C1346 C1347 1.434 . S
C1347 C1338 1.429 . S
C1347 N1344 1.350 . S
C1347 C1346 1.434 . S
C1348 C1349 1.369 . S
C1348 C1350 1.419 1_554 S
C1348 H1352 0.930 . S
C1349 C1348 1.369 . S
C1349 C1358 1.429 . S
C1350 C1348 1.419 1_556 S
C1350 C1351 1.363 . S
C1350 H1353 0.929 . S
C1351 C1350 1.363 . S
C1351 C1357 1.428 . S
H1352 C1348 0.930 . S
H1353 C1350 0.929 . S
S1354 N1355 1.613 . S
S1354 N1356 1.610 1_554 S
N1355 S1354 1.613 . S
N1355 C1358 1.350 . S
N1356 S1354 1.610 1_556 S
N1356 C1357 1.351 . S
C1357 C1351 1.428 . S
C1357 N1356 1.351 . S
C1357 C1358 1.434 1_556 S
C1358 C1349 1.429 . S
C1358 N1355 1.350 . S
C1358 C1357 1.434 1_554 S
C1359 C1360 1.369 . S
C1359 C1361 1.419 . S
C1359 H1363 0.930 . S
C1360 C1359 1.369 . S
C1360 C1369 1.429 . S
C1361 C1359 1.419 . S
C1361 C1362 1.363 . S
C1361 H1364 0.929 . S
C1362 C1361 1.363 . S
C1362 C1368 1.428 . S
H1363 C1359 0.930 . S
H1364 C1361 0.929 . S
S1365 N1366 1.613 . S
S1365 N1367 1.610 . S
N1366 S1365 1.613 . S
N1366 C1369 1.350 . S
N1367 S1365 1.610 . S
N1367 C1368 1.351 . S
C1368 C1362 1.428 . S
C1368 N1367 1.351 . S
C1368 C1369 1.434 . S
C1369 C1360 1.429 . S
C1369 N1366 1.350 . S
C1369 C1368 1.434 . S
C1370 C1371 1.369 . S
C1370 C1372 1.419 1_556 S
C1370 H1374 0.930 . S
C1371 C1370 1.369 . S
C1371 C1380 1.429 . S
C1372 C1370 1.419 1_554 S
C1372 C1373 1.363 . S
C1372 H1375 0.929 . S
C1373 C1372 1.363 . S
C1373 C1379 1.428 . S
H1374 C1370 0.930 . S
H1375 C1372 0.929 . S
S1376 N1377 1.613 1_554 S
S1376 N1378 1.610 . S
N1377 S1376 1.613 1_556 S
N1377 C1380 1.350 . S
N1378 S1376 1.610 . S
N1378 C1379 1.351 . S
C1379 C1373 1.428 . S
C1379 N1378 1.351 . S
C1379 C1380 1.434 1_554 S
C1380 C1371 1.429 . S
C1380 N1377 1.350 . S
C1380 C1379 1.434 1_556 S
C1381 C1382 1.369 . S
C1381 C1383 1.419 . S
C1381 H1385 0.930 . S
C1382 C1381 1.369 . S
C1382 C1391 1.429 . S
C1383 C1381 1.419 . S
C1383 C1384 1.363 . S
C1383 H1386 0.929 . S
C1384 C1383 1.363 . S
C1384 C1390 1.428 . S
H1385 C1381 0.930 . S
H1386 C1383 0.929 . S
S1387 N1388 1.613 . S
S1387 N1389 1.610 . S
N1388 S1387 1.613 . S
N1388 C1391 1.350 . S
N1389 S1387 1.610 . S
N1389 C1390 1.351 . S
C1390 C1384 1.428 . S
C1390 N1389 1.351 . S
C1390 C1391 1.434 . S
C1391 C1382 1.429 . S
C1391 N1388 1.350 . S
C1391 C1390 1.434 . S
C865 C14 1.404 . S
C867 C554 1.403 . S
C876 C50 1.398 . S
C878 C590 1.399 . S
C887 C626 1.399 . S
C889 C86 1.400 . S
C898 C446 1.402 . S
C900 C122 1.403 . S
C909 C482 1.398 . S
C911 C158 1.399 . S
C920 C518 1.400 . S
C922 C194 1.401 . S
C931 C770 1.397 . S
C933 C230 1.399 . S
C942 C266 1.408 . S
C944 C806 1.407 . S
C953 C842 1.408 . S
C955 C302 1.406 . S
C964 C338 1.398 . S
C966 C662 1.400 . S
C975 C698 1.397 . S
C977 C374 1.399 . S
C986 C410 1.398 . S
C988 C734 1.399 . S
C997 C363 1.347 . S
C999 C3 1.348 . S
C1008 C399 1.348 . S
C1010 C39 1.347 . S
C1019 C75 1.347 . S
C1021 C219 1.348 . S
C1030 C111 1.348 . S
C1032 C255 1.347 . S
C1041 C291 1.347 . S
C1043 C147 1.348 . S
C1052 C183 1.348 . S
C1054 C327 1.347 . S
C1063 C795 1.348 . S
C1065 C435 1.347 . S
C1074 C471 1.348 . S
C1076 C831 1.347 . S
C1085 C507 1.347 . S
C1087 C651 1.348 . S
C1096 C687 1.348 . S
C1098 C543 1.347 . S
C1107 C579 1.347 . S
C1109 C723 1.348 . S
C1118 C615 1.347 . S
C1120 C759 1.348 . S
C1129 C4 1.411 . S
C1131 C652 1.410 . S
C1140 C688 1.406 . S
C1142 C40 1.407 . S
C1151 C76 1.412 . S
C1153 C724 1.412 . S
C1162 C112 1.407 . S
C1164 C760 1.408 . S
C1173 C796 1.406 . S
C1175 C148 1.407 . S
C1184 C184 1.412 . S
C1186 C832 1.412 . S
C1195 C220 1.406 . S
C1197 C436 1.407 . S
C1206 C256 1.407 . S
C1208 C472 1.407 . S
C1217 C508 1.412 . S
C1219 C292 1.412 . S
C1228 C544 1.412 . S
C1230 C328 1.412 . S
C1239 C364 1.407 . S
C1241 C580 1.408 . S
C1250 C616 1.407 . S
C1252 C400 1.407 . S
C1261 C218 1.497 . S
C1263 C2 1.497 . S
C1272 C38 1.497 . S
C1274 C254 1.496 . S
C1283 C290 1.495 . S
C1285 C74 1.494 . S
C1294 C326 1.497 . S
C1296 C110 1.496 . S
C1305 C362 1.497 . S
C1307 C146 1.496 . S
C1316 C182 1.494 . S
C1318 C398 1.496 . S
C1327 C650 1.497 . S
C1329 C434 1.496 . S
C1338 C470 1.495 . S
C1340 C686 1.496 . S
C1349 C722 1.497 . S
C1351 C506 1.496 . S
C1360 C758 1.494 . S
C1362 C542 1.496 . S
C1371 C578 1.497 . S
C1373 C794 1.496 . S
C1382 C614 1.496 . S
C1384 C830 1.495 . S
