# Generated by pormake.
# Topology und, (4)-cn, num edge types: 1
# Building blocks:
#     Node 0, Type 0, BuildingBlock: QUQFOY_clean_sbu_3, # of connection points: 4
#     Node 1, Type 0, BuildingBlock: QUQFOY_clean_sbu_3, # of connection points: 4
#     Node 2, Type 0, BuildingBlock: QUQFOY_clean_sbu_3, # of connection points: 4
#     Node 3, Type 0, BuildingBlock: QUQFOY_clean_sbu_3, # of connection points: 4
#     Node 4, Type 0, BuildingBlock: QUQFOY_clean_sbu_3, # of connection points: 4
#     Node 5, Type 0, BuildingBlock: QUQFOY_clean_sbu_3, # of connection points: 4
#     Node 6, Type 0, BuildingBlock: QUQFOY_clean_sbu_3, # of connection points: 4
#     Node 7, Type 0, BuildingBlock: QUQFOY_clean_sbu_3, # of connection points: 4
#     Node 8, Type 0, BuildingBlock: QUQFOY_clean_sbu_3, # of connection points: 4
#     Node 9, Type 0, BuildingBlock: QUQFOY_clean_sbu_3, # of connection points: 4
#     Node 10, Type 0, BuildingBlock: QUQFOY_clean_sbu_3, # of connection points: 4
#     Node 11, Type 0, BuildingBlock: QUQFOY_clean_sbu_3, # of connection points: 4
#     Node 12, Type 0, BuildingBlock: QUQFOY_clean_sbu_3, # of connection points: 4
#     Node 13, Type 0, BuildingBlock: QUQFOY_clean_sbu_3, # of connection points: 4
#     Node 14, Type 0, BuildingBlock: QUQFOY_clean_sbu_3, # of connection points: 4
#     Node 15, Type 0, BuildingBlock: QUQFOY_clean_sbu_3, # of connection points: 4
#     Edge 16, Type (0, 0), BuildingBlock: XUDNAN_clean_linker_2, # of connection points: 2
#     Edge 17, Type (0, 0), BuildingBlock: XUDNAN_clean_linker_2, # of connection points: 2
#     Edge 18, Type (0, 0), BuildingBlock: XUDNAN_clean_linker_2, # of connection points: 2
#     Edge 19, Type (0, 0), BuildingBlock: XUDNAN_clean_linker_2, # of connection points: 2
#     Edge 20, Type (0, 0), BuildingBlock: XUDNAN_clean_linker_2, # of connection points: 2
#     Edge 21, Type (0, 0), BuildingBlock: XUDNAN_clean_linker_2, # of connection points: 2
#     Edge 22, Type (0, 0), BuildingBlock: XUDNAN_clean_linker_2, # of connection points: 2
#     Edge 23, Type (0, 0), BuildingBlock: XUDNAN_clean_linker_2, # of connection points: 2
#     Edge 24, Type (0, 0), BuildingBlock: XUDNAN_clean_linker_2, # of connection points: 2
#     Edge 25, Type (0, 0), BuildingBlock: XUDNAN_clean_linker_2, # of connection points: 2
#     Edge 26, Type (0, 0), BuildingBlock: XUDNAN_clean_linker_2, # of connection points: 2
#     Edge 27, Type (0, 0), BuildingBlock: XUDNAN_clean_linker_2, # of connection points: 2
#     Edge 28, Type (0, 0), BuildingBlock: XUDNAN_clean_linker_2, # of connection points: 2
#     Edge 29, Type (0, 0), BuildingBlock: XUDNAN_clean_linker_2, # of connection points: 2
#     Edge 30, Type (0, 0), BuildingBlock: XUDNAN_clean_linker_2, # of connection points: 2
#     Edge 31, Type (0, 0), BuildingBlock: XUDNAN_clean_linker_2, # of connection points: 2
#     Edge 32, Type (0, 0), BuildingBlock: XUDNAN_clean_linker_2, # of connection points: 2
#     Edge 33, Type (0, 0), BuildingBlock: XUDNAN_clean_linker_2, # of connection points: 2
#     Edge 34, Type (0, 0), BuildingBlock: XUDNAN_clean_linker_2, # of connection points: 2
#     Edge 35, Type (0, 0), BuildingBlock: XUDNAN_clean_linker_2, # of connection points: 2
#     Edge 36, Type (0, 0), BuildingBlock: XUDNAN_clean_linker_2, # of connection points: 2
#     Edge 37, Type (0, 0), BuildingBlock: XUDNAN_clean_linker_2, # of connection points: 2
#     Edge 38, Type (0, 0), BuildingBlock: XUDNAN_clean_linker_2, # of connection points: 2
#     Edge 39, Type (0, 0), BuildingBlock: XUDNAN_clean_linker_2, # of connection points: 2
#     Edge 40, Type (0, 0), BuildingBlock: XUDNAN_clean_linker_2, # of connection points: 2
#     Edge 41, Type (0, 0), BuildingBlock: XUDNAN_clean_linker_2, # of connection points: 2
#     Edge 42, Type (0, 0), BuildingBlock: XUDNAN_clean_linker_2, # of connection points: 2
#     Edge 43, Type (0, 0), BuildingBlock: XUDNAN_clean_linker_2, # of connection points: 2
#     Edge 44, Type (0, 0), BuildingBlock: XUDNAN_clean_linker_2, # of connection points: 2
#     Edge 45, Type (0, 0), BuildingBlock: XUDNAN_clean_linker_2, # of connection points: 2
#     Edge 46, Type (0, 0), BuildingBlock: XUDNAN_clean_linker_2, # of connection points: 2
#     Edge 47, Type (0, 0), BuildingBlock: XUDNAN_clean_linker_2, # of connection points: 2
# Relax obj value: 0.006
# Max RMSD: 0.046
# Mean RMSD: 0.046
data_MOF--net-und--node1-QUQFOY_clean_sbu_3--edge1-XUDNAN_clean_linker_2
_symmetry_space_group_name_H-M    P1
_symmetry_Int_Tables_number       1
_symmetry_cell_setting            triclinic
loop_
_symmetry_equiv_pos_as_xyz
'x, y, z'
_cell_length_a     61.282693
_cell_length_b     61.208532
_cell_length_c     22.795337
_cell_angle_alpha  89.94289
_cell_angle_beta   89.970075
_cell_angle_gamma 94.909855
loop_
_atom_site_label
_atom_site_type_symbol
_atom_site_fract_x
_atom_site_fract_y
_atom_site_fract_z
_atom_type_partial_charge
C0 C 0.24353 0.29908 0.05374 0.0
O1 O 0.26373 0.30324 0.04244 0.0
Cd2 Cd 0.27468 0.33234 0.97513 0.0
O3 O 0.22962 0.31169 0.03492 0.0
Cd4 Cd 0.22786 0.34671 0.98202 0.0
C5 C 0.23882 0.31933 0.86112 0.0
O6 O 0.26268 0.36641 0.01045 0.0
O7 O 0.2472 0.37766 0.93203 0.0
O8 O 0.20516 0.35509 0.0643 0.0
C9 C 0.26206 0.38079 0.97047 0.0
O10 O 0.25834 0.32045 0.8809 0.0
C11 C 0.19069 0.36371 0.03448 0.0
O12 O 0.22352 0.32682 0.89072 0.0
O13 O 0.19327 0.3644 0.97915 0.0
C14 C 0.93985 0.98753 0.18106 0.0
O15 O 0.93546 0.97001 0.21017 0.0
Cd16 Cd 0.91597 0.96997 0.3016 0.0
O17 O 0.93209 0.00525 0.19666 0.0
Cd18 Cd 0.90757 0.0193 0.27063 0.0
C19 C 0.94642 0.0126 0.37106 0.0
O20 O 0.88272 0.98727 0.29078 0.0
O21 O 0.88438 0.01281 0.35677 0.0
O22 O 0.88276 0.03341 0.20092 0.0
C23 C 0.87543 0.99463 0.33837 0.0
O24 O 0.94063 0.99218 0.36637 0.0
C25 C 0.88825 0.05353 0.2105 0.0
O26 O 0.93767 0.02662 0.33931 0.0
O27 O 0.90305 0.05813 0.24867 0.0
C28 C 0.23241 0.69554 0.62376 0.0
O29 O 0.2144 0.69019 0.59792 0.0
Cd30 Cd 0.21294 0.67488 0.50119 0.0
O31 O 0.25046 0.69095 0.60118 0.0
Cd32 Cd 0.26394 0.67122 0.51583 0.0
C33 C 0.24937 0.71293 0.43312 0.0
O34 O 0.23355 0.64342 0.50116 0.0
O35 O 0.25571 0.64929 0.42813 0.0
O36 O 0.28626 0.65338 0.58578 0.0
C37 C 0.2394 0.63804 0.45016 0.0
O38 O 0.22979 0.7043 0.43843 0.0
C39 C 0.30382 0.65583 0.55603 0.0
O40 O 0.26513 0.7049 0.4597 0.0
O41 O 0.30301 0.66584 0.50731 0.0
C42 C 0.52881 0.01266 0.67737 0.0
O43 O 0.53337 0.03272 0.69002 0.0
Cd44 Cd 0.55938 0.04165 0.76831 0.0
O45 O 0.54022 -0.00187 0.69826 0.0
Cd46 Cd 0.57291 0.99306 0.7561 0.0
C47 C 0.53993 0.00172 0.86825 0.0
O48 O 0.59475 0.02857 0.75291 0.0
O49 O 0.59998 0.00676 0.82561 0.0
O50 O 0.58644 0.97613 0.66931 0.0
C51 C 0.60523 0.02474 0.79949 0.0
O52 O 0.54275 0.02176 0.85249 0.0
C53 C 0.59083 0.9585 0.69429 0.0
O54 O 0.54811 0.98672 0.83872 0.0
O55 O 0.58704 0.95683 0.7491 0.0
C56 C 0.72276 0.69709 0.93196 0.0
O57 O 0.70563 0.69153 0.96159 0.0
Cd58 Cd 0.70804 0.67233 0.05321 0.0
O59 O 0.74113 0.69066 0.94712 0.0
Cd60 Cd 0.7584 0.66762 0.01869 0.0
C61 C 0.74936 0.70622 0.11827 0.0
O62 O 0.72806 0.64079 0.04042 0.0
O63 O 0.75474 0.64303 0.10288 0.0
O64 O 0.77371 0.64732 0.94059 0.0
C65 C 0.73647 0.63362 0.08681 0.0
O66 O 0.72929 0.69883 0.11543 0.0
C67 C 0.79365 0.65244 0.95323 0.0
O68 O 0.76375 0.69847 0.08569 0.0
O69 O 0.79753 0.66493 -0.00274 0.0
C70 C 0.05412 0.02079 0.88471 0.0
O71 O 0.05954 0.04123 0.88114 0.0
Cd72 Cd 0.08385 0.05473 0.80244 0.0
O73 O 0.0627 0.0076 0.8505 0.0
Cd74 Cd 0.08963 0.00522 0.77301 0.0
C75 C 0.05573 0.03054 0.68528 0.0
O76 O 0.11674 0.03587 0.79552 0.0
O77 O 0.11759 0.02141 0.70882 0.0
O78 O 0.10356 0.97856 0.83697 0.0
C79 C 0.12601 0.03518 0.74562 0.0
O80 O 0.06238 0.04783 0.71339 0.0
C81 C 0.10294 0.96302 0.80011 0.0
O82 O 0.06185 0.01189 0.69992 0.0
O83 O 0.09614 0.96703 0.74874 0.0
C84 C 0.77882 0.32505 0.34627 0.0
O85 O 0.79681 0.3335 0.36714 0.0
Cd86 Cd 0.79764 0.35173 0.46086 0.0
O87 O 0.7608 0.328 0.3715 0.0
Cd88 Cd 0.74413 0.34683 0.4526 0.0
C89 C 0.76725 0.31041 0.5377 0.0
O90 O 0.77114 0.37824 0.46364 0.0
O91 O 0.74778 0.37195 0.53398 0.0
O92 O 0.72036 0.35796 0.37569 0.0
C93 C 0.76408 0.38368 0.51354 0.0
O94 O 0.78533 0.3214 0.52571 0.0
C95 C 0.70272 0.35468 0.40476 0.0
O96 O 0.74923 0.31545 0.51552 0.0
O97 O 0.70415 0.34735 0.45673 0.0
C98 C 0.41473 0.98931 0.37825 0.0
O99 O 0.40455 0.97173 0.35976 0.0
Cd100 Cd 0.38795 0.96986 0.26431 0.0
O101 O 0.41437 0.00703 0.34918 0.0
Cd102 Cd 0.3981 0.02303 0.26202 0.0
C103 C 0.43234 0.99391 0.1854 0.0
O104 O 0.36464 -0.00115 0.25323 0.0
O105 O 0.37387 0.01874 0.17761 0.0
O106 O 0.38931 0.04954 0.33453 0.0
C107 C 0.36051 0.00431 0.20087 0.0
O108 O 0.41946 0.97727 0.19958 0.0
C109 C 0.39331 0.0663 0.30235 0.0
O110 O 0.42923 0.01305 0.20407 0.0
O111 O 0.39987 0.06322 0.2503 0.0
C112 C 0.75041 0.81103 0.63236 0.0
O113 O 0.77082 0.8165 0.62891 0.0
Cd114 Cd 0.78556 0.84175 0.55469 0.0
O115 O 0.73712 0.81989 0.59894 0.0
Cd116 Cd 0.73667 0.84797 0.5226 0.0
C117 C 0.76284 0.81554 0.43295 0.0
O118 O 0.76679 0.87458 0.55272 0.0
O119 O 0.75512 0.87644 0.46338 0.0
O120 O 0.70821 0.86156 0.58145 0.0
C121 C 0.76746 0.8846 0.50379 0.0
O122 O 0.77984 0.822 0.46241 0.0
C123 C 0.69451 0.86295 0.54025 0.0
O124 O 0.74401 0.82113 0.44757 0.0
O125 O 0.70021 0.85693 0.48949 0.0
C126 C 0.44772 0.48889 0.73354 0.0
O127 O 0.44132 0.47143 0.76086 0.0
Cd128 Cd 0.41667 0.47201 0.84208 0.0
O129 O 0.43956 0.50683 0.74529 0.0
Cd130 Cd 0.41116 0.52168 0.80722 0.0
C131 C 0.44422 0.51438 0.9206 0.0
O132 O 0.38509 0.4894 0.81115 0.0
O133 O 0.38158 0.51383 0.87788 0.0
O134 O 0.4017 0.53993 0.71724 0.0
C135 C 0.37428 0.49597 0.85416 0.0
O136 O 0.43803 0.49406 0.91509 0.0
C137 C 0.3985 0.55806 0.74133 0.0
O138 O 0.43774 0.52848 0.88496 0.0
O139 O 0.40125 0.55942 0.79648 0.0
C140 C 0.74341 0.21143 0.05119 0.0
O141 O 0.72344 0.21119 0.03632 0.0
Cd142 Cd 0.70869 0.18696 0.96025 0.0
O143 O 0.75554 0.19773 0.02912 0.0
Cd144 Cd 0.75406 0.16665 0.96079 0.0
C145 C 0.7453 0.20103 0.84972 0.0
O146 O 0.71739 0.15008 0.98011 0.0
O147 O 0.7326 0.14006 0.89974 0.0
O148 O 0.77181 0.14295 0.02748 0.0
C149 C 0.71677 0.1375 0.93576 0.0
O150 O 0.72594 0.2015 0.86978 0.0
C151 C 0.78989 0.14376 0.00013 0.0
O152 O 0.75925 0.19024 0.8759 0.0
O153 O 0.79138 0.15493 0.95309 0.0
C154 C 0.04505 0.53396 0.18615 0.0
O155 O 0.05063 0.5521 0.21116 0.0
Cd156 Cd 0.07874 0.55627 0.28384 0.0
O157 O 0.05524 0.51712 0.19698 0.0
Cd158 Cd 0.08645 0.50759 0.25822 0.0
C159 C 0.05771 0.51727 0.38027 0.0
O160 O 0.1107 0.54084 0.24521 0.0
O161 O 0.11828 0.52016 0.3179 0.0
O162 O 0.09962 0.48458 0.18027 0.0
C163 C 0.12396 0.53645 0.28529 0.0
O164 O 0.06204 0.53765 0.37026 0.0
C165 C 0.09986 0.46756 0.21212 0.0
O166 O 0.06385 0.503 0.34482 0.0
O167 O 0.09355 0.46918 0.26486 0.0
C168 C 0.21856 0.18811 0.35879 0.0
O169 O 0.20078 0.17958 0.38076 0.0
Cd170 Cd 0.19919 0.16652 0.48014 0.0
O171 O 0.23648 0.18771 0.38685 0.0
Cd172 Cd 0.25209 0.17338 0.47739 0.0
C173 C 0.22635 0.2122 0.54637 0.0
O174 O 0.22643 0.14142 0.49599 0.0
O175 O 0.24706 0.15292 0.56836 0.0
O176 O 0.27807 0.1583 0.41241 0.0
C177 C 0.23233 0.13901 0.54888 0.0
O178 O 0.20885 0.19999 0.53614 0.0
C179 C 0.29505 0.16489 0.44131 0.0
O180 O 0.24489 0.20704 0.52803 0.0
O181 O 0.29222 0.1759 0.4876 0.0
C182 C 0.56106 0.51721 0.43251 0.0
O183 O 0.56635 0.53759 0.4265 0.0
Cd184 Cd 0.5877 0.55128 0.34322 0.0
O185 O 0.56769 0.50361 0.39587 0.0
Cd186 Cd 0.59023 0.50227 0.30758 0.0
C187 C 0.55415 0.5301 0.23339 0.0
O188 O 0.61944 0.53106 0.3295 0.0
O189 O 0.61659 0.51969 0.23979 0.0
O190 O 0.60422 0.47111 0.35518 0.0
C191 C 0.62718 0.53139 0.27775 0.0
O192 O 0.56269 0.54708 0.25974 0.0
C193 C 0.60215 0.45836 0.31133 0.0
O194 O 0.56006 0.51116 0.24545 0.0
O195 O 0.59424 0.46597 0.26477 0.0
C196 C 0.25559 0.80804 0.92608 0.0
O197 O 0.27536 0.81606 0.92856 0.0
Cd198 Cd 0.28456 0.84528 -0.00169 0.0
O199 O 0.24083 0.81711 0.9538 0.0
Cd200 Cd 0.23402 0.84885 0.01325 0.0
C201 C 0.25753 0.82263 0.12075 0.0
O202 O 0.26373 0.8764 0.98547 0.0
O203 O 0.24725 0.88066 0.06834 0.0
O204 O 0.20963 0.85441 0.93335 0.0
C205 C 0.26127 0.88807 0.03081 0.0
O206 O 0.27515 0.82894 0.09361 0.0
C207 C 0.19335 0.85865 0.96436 0.0
O208 O 0.23885 0.82612 0.09967 0.0
O209 O 0.19563 0.858 0.01986 0.0
C210 C 0.93247 0.4972 0.88999 0.0
O211 O 0.9299 0.4768 0.87936 0.0
Cd212 Cd 0.91303 0.46402 0.78886 0.0
O213 O 0.92553 0.51088 0.85403 0.0
Cd214 Cd 0.90634 0.51289 0.76021 0.0
C215 C 0.94761 0.49142 0.68947 0.0
O216 O 0.87985 0.48129 0.7699 0.0
O217 O 0.88461 0.49483 0.6823 0.0
O218 O 0.88009 0.53629 0.7971 0.0
C219 C 0.87369 0.48171 0.71671 0.0
O220 O 0.94054 0.47344 0.71374 0.0
C221 C 0.88781 0.55373 0.77201 0.0
O222 O 0.93879 0.50909 0.70034 0.0
O223 O 0.90459 0.55256 0.73974 0.0
H224 H 0.26823 0.2744 0.12411 0.0
H225 H 0.2016 0.28054 0.06573 0.0
H226 H 0.18848 0.24964 0.12968 0.0
H227 H 0.26358 0.21408 0.14057 0.0
H228 H 0.28024 0.21521 0.20583 0.0
H229 H 0.2848 0.23606 0.15023 0.0
H230 H 0.2798 0.26614 0.2279 0.0
H231 H 0.27529 0.24542 0.2836 0.0
H232 H 0.25512 0.26471 0.27132 0.0
H233 H 0.18216 0.22015 0.20534 0.0
H234 H 0.18293 0.19555 0.29102 0.0
H235 H 0.25358 0.20904 0.30105 0.0
C236 C 0.25094 0.26898 0.12394 0.0
C237 C 0.23596 0.2798 0.08972 0.0
C238 C 0.21339 0.27249 0.09158 0.0
C239 C 0.20578 0.25486 0.12749 0.0
C240 C 0.22093 0.24472 0.16125 0.0
C241 C 0.24303 0.25152 0.15989 0.0
C242 C 0.25562 0.23909 0.20413 0.0
C243 C 0.27203 0.22529 0.17333 0.0
C244 C 0.26712 0.25478 0.24941 0.0
C245 C 0.23706 0.22468 0.23162 0.0
C246 C 0.21724 0.22791 0.20564 0.0
C247 C 0.19762 0.21728 0.22565 0.0
C248 C 0.19822 0.20334 0.27436 0.0
C249 C 0.2183 0.20033 0.30279 0.0
C250 C 0.23797 0.21083 0.28012 0.0
H251 H 0.96994 0.9869 0.44115 0.0
H252 H 0.96142 0.05488 0.399 0.0
H253 H 0.98932 0.06685 0.47306 0.0
H254 H 0.97626 0.99401 0.59488 0.0
H255 H -0.00337 0.9746 0.60192 0.0
H256 H 0.97656 0.97143 0.54425 0.0
H257 H 0.00758 0.97146 0.46686 0.0
H258 H 0.02776 0.97461 0.52432 0.0
H259 H 0.0285 0.99402 0.46467 0.0
H260 H 0.01711 0.07132 0.55392 0.0
H261 H 0.04319 0.06812 0.6351 0.0
H262 H 0.03367 -0.0029 0.62327 0.0
C263 C 0.97396 0.00433 0.44719 0.0
C264 C 0.96346 0.01996 0.41427 0.0
C265 C 0.96925 0.0426 0.42365 0.0
C266 C 0.98507 0.04956 0.46558 0.0
C267 C -0.00501 0.03367 0.49743 0.0
C268 C 0.98971 0.01154 0.48859 0.0
C269 C 0.0025 -0.00221 0.52917 0.0
C270 C 0.98706 0.98363 0.56997 0.0
C271 C 0.01747 0.98364 0.49415 0.0
C272 C 0.01565 0.01567 0.56275 0.0
C273 C 0.01111 0.03624 0.5437 0.0
C274 C 0.02088 0.05531 0.56902 0.0
C275 C 0.03564 0.05329 0.61521 0.0
C276 C 0.04051 0.03235 0.63556 0.0
C277 C 0.03042 0.01334 0.60857 0.0
H278 H 0.26719 0.7199 0.67319 0.0
H279 H 0.19779 0.70104 0.69646 0.0
H280 H 0.19727 0.72554 0.78225 0.0
H281 H 0.2813 0.72646 0.83066 0.0
H282 H 0.30032 0.75003 0.81687 0.0
H283 H 0.29592 0.72893 0.76201 0.0
H284 H 0.28607 0.75806 0.68616 0.0
H285 H 0.29027 0.77921 0.74075 0.0
H286 H 0.26446 0.77533 0.70265 0.0
H287 H 0.20334 0.75412 0.85888 0.0
H288 H 0.21536 0.78537 0.92197 0.0
H289 H 0.28088 0.78652 0.84838 0.0
C290 C 0.252 0.72052 0.69718 0.0
C291 C 0.23255 0.70845 0.67844 0.0
C292 C 0.21289 0.7101 0.71016 0.0
C293 C 0.21245 0.7239 0.75903 0.0
C294 C 0.2318 0.73593 0.77551 0.0
C295 C 0.25123 0.73437 0.74572 0.0
C296 C 0.26927 0.75041 0.76961 0.0
C297 C 0.2878 0.73823 0.79639 0.0
C298 C 0.27802 0.76671 0.72195 0.0
C299 C 0.25677 0.76163 0.81652 0.0
C300 C 0.23526 0.7528 0.81954 0.0
C301 C 0.22019 0.76103 0.85741 0.0
C302 C 0.2272 0.77887 0.89291 0.0
C303 C 0.2491 0.78844 0.89017 0.0
C304 C 0.26411 0.77948 0.85184 0.0
H305 H 0.45835 0.02554 0.1269 0.0
H306 H 0.44748 0.95508 0.15166 0.0
H307 H 0.47608 0.94949 0.07848 0.0
H308 H 0.46465 0.02408 0.97497 0.0
H309 H 0.48565 0.04653 0.9712 0.0
H310 H 0.46612 0.0452 0.03027 0.0
H311 H 0.49775 0.04711 0.10606 0.0
H312 H 0.51743 0.04855 0.0471 0.0
H313 H 0.51802 0.02747 0.10222 0.0
H314 H 0.50369 0.95135 -0.0029 0.0
H315 H 0.52821 0.96068 0.91302 0.0
H316 H 0.52068 0.02981 0.94139 0.0
C317 C 0.46227 0.00896 0.1178 0.0
C318 C 0.45071 0.99077 0.14512 0.0
C319 C 0.4561 0.9693 0.13126 0.0
C320 C 0.47238 0.96593 0.08991 0.0
C321 C 0.48316 0.98419 0.06294 0.0
C322 C 0.4784 0.00529 0.07644 0.0
C323 C 0.49133 0.02201 0.03839 0.0
C324 C 0.47602 0.03522 0.00153 0.0
C325 C 0.50707 0.03718 0.07568 0.0
C326 C 0.50368 0.00697 0.00045 0.0
C327 C 0.49895 0.98525 0.01568 0.0
C328 C 0.50772 0.96832 0.98512 0.0
C329 C 0.52158 0.97378 0.93738 0.0
C330 C 0.52638 -0.00404 0.92057 0.0
C331 C 0.51744 0.01269 0.95315 0.0
H332 H 0.2255 0.79571 0.17558 0.0
H333 H 0.2936 0.82129 0.18997 0.0
H334 H 0.29795 0.79807 0.27668 0.0
H335 H 0.21479 0.78979 0.33544 0.0
H336 H 0.19771 0.76458 0.32585 0.0
H337 H 0.19913 0.78515 0.26902 0.0
H338 H 0.21041 0.75637 0.19401 0.0
H339 H 0.20917 0.73578 0.25057 0.0
H340 H 0.23399 0.74154 0.20884 0.0
H341 H 0.29614 0.76982 0.35509 0.0
H342 H 0.28802 0.73852 0.42198 0.0
H343 H 0.22113 0.731 0.35723 0.0
C344 C 0.24117 0.79679 0.19781 0.0
C345 C 0.25919 0.81034 0.1761 0.0
C346 C 0.27957 0.81099 0.20574 0.0
C347 C 0.28219 0.79793 0.25519 0.0
C348 C 0.26429 0.78435 0.27461 0.0
C349 C 0.24413 0.78374 0.24718 0.0
C350 C 0.22802 0.76652 0.27455 0.0
C351 C 0.20877 0.77715 0.30291 0.0
C352 C 0.21993 0.74902 0.22929 0.0
C353 C 0.24248 0.75721 0.32051 0.0
C354 C 0.26326 0.76788 0.32012 0.0
C355 C 0.27985 0.76149 0.35642 0.0
C356 C 0.27509 0.74363 0.39407 0.0
C357 C 0.25393 0.73233 0.39499 0.0
C358 C 0.2374 0.73942 0.35802 0.0
H359 H 0.43876 0.02406 0.42937 0.0
H360 H 0.4221 0.95393 0.44711 0.0
H361 H 0.44799 0.95296 0.52971 0.0
H362 H 0.49479 0.02329 0.45429 0.0
H363 H 0.49786 0.0485 0.49541 0.0
H364 H 0.47641 0.04429 0.44168 0.0
H365 H 0.4474 0.05149 0.52047 0.0
H366 H 0.46879 0.05594 0.57446 0.0
H367 H 0.44617 0.0357 0.58736 0.0
H368 H 0.47802 0.9588 0.60286 0.0
H369 H 0.50905 0.97133 0.66632 0.0
H370 H 0.50597 0.03792 0.60274 0.0
C371 C 0.44023 0.00854 0.45123 0.0
C372 C 0.42837 0.98905 0.43172 0.0
C373 C 0.43094 0.96908 0.46132 0.0
C374 C 0.4456 0.96836 0.50829 0.0
C375 C 0.45741 0.98777 0.52538 0.0
C376 C 0.45473 0.00754 0.49824 0.0
C377 C 0.47018 0.02582 0.52336 0.0
C378 C 0.48573 0.03607 0.47585 0.0
C379 C 0.45737 0.04327 0.5532 0.0
C380 C 0.48237 0.01312 0.56789 0.0
C381 C 0.47466 0.99122 0.56839 0.0
C382 C 0.48402 0.97595 0.60346 0.0
C383 C 0.50174 0.98324 0.63909 0.0
C384 C 0.50992 0.00563 0.63957 0.0
C385 C 0.49995 0.02076 0.60374 0.0
H386 H 0.25941 0.23507 0.60721 0.0
H387 H 0.18997 0.23369 0.56831 0.0
H388 H 0.18667 0.26447 0.63652 0.0
H389 H 0.25445 0.243 0.75613 0.0
H390 H 0.27917 0.2609 0.76458 0.0
H391 H 0.27696 0.24126 0.70585 0.0
H392 H 0.28569 0.27241 0.63014 0.0
H393 H 0.28803 0.2922 0.68882 0.0
H394 H 0.26936 0.29555 0.62905 0.0
H395 H 0.18989 0.29221 0.71651 0.0
H396 H 0.19931 0.31461 0.80422 0.0
H397 H 0.26657 0.29766 0.79211 0.0
C398 C 0.24365 0.24165 0.61184 0.0
C399 C 0.22498 0.23209 0.58225 0.0
C400 C 0.20451 0.24079 0.59054 0.0
C401 C 0.20248 0.25834 0.62892 0.0
C402 C 0.22109 0.26703 0.65858 0.0
C403 C 0.2413 0.25905 0.65039 0.0
C404 C 0.25822 0.26981 0.69192 0.0
C405 C 0.26774 0.25272 0.73198 0.0
C406 C 0.2764 0.2833 0.65794 0.0
C407 C 0.24417 0.28452 0.72606 0.0
C408 C 0.22289 0.28294 0.7055 0.0
C409 C 0.20658 0.29386 0.7325 0.0
C410 C 0.21208 0.30649 0.78241 0.0
C411 C 0.23369 0.30793 0.80502 0.0
C412 C 0.24996 0.2971 0.77562 0.0
H413 H 0.02694 0.04339 0.95452 0.0
H414 H 0.04361 0.97773 0.91119 0.0
H415 H 0.01516 0.96211 0.97892 0.0
H416 H 0.01641 0.03316 0.10777 0.0
H417 H 0.99377 0.05007 0.11107 0.0
H418 H 0.01545 0.05618 0.05872 0.0
H419 H 0.98694 0.05428 0.97451 0.0
H420 H 0.96519 0.04798 0.02661 0.0
H421 H 0.9686 0.02987 0.96559 0.0
H422 H 0.98542 0.9534 0.05206 0.0
H423 H 0.95678 0.95242 0.12845 0.0
H424 H 0.95885 0.02352 0.1231 0.0
C425 C 0.02466 0.02575 0.95947 0.0
C426 C 0.03753 0.01182 0.92748 0.0
C427 C 0.03395 0.98878 0.93505 0.0
C428 C 0.01779 0.9797 0.97338 0.0
C429 C 0.00526 0.99383 0.00374 0.0
C430 C 0.00849 0.01635 -0.00258 0.0
C431 C 0.99282 0.0278 0.03575 0.0
C432 C 0.00537 0.04268 0.08102 0.0
C433 C 0.97748 0.04074 -0.00164 0.0
C434 C 0.98047 0.0082 0.06483 0.0
C435 C 0.98786 0.98877 0.04561 0.0
C436 C 0.97939 0.9685 0.06734 0.0
C437 C 0.96312 0.96811 0.11065 0.0
C438 C 0.95549 0.98786 0.13161 0.0
C439 C 0.96415 0.00811 0.10763 0.0
H440 H 0.75738 0.71674 0.8706 0.0
H441 H 0.68638 0.71265 0.88158 0.0
H442 H 0.68568 0.74072 0.80367 0.0
H443 H 0.76517 0.77391 0.85338 0.0
H444 H 0.78782 0.77335 0.80308 0.0
H445 H 0.78266 0.7517 0.85605 0.0
H446 H 0.78048 0.7228 0.77274 0.0
H447 H 0.78584 0.74435 0.71946 0.0
H448 H 0.76176 0.72545 0.71266 0.0
H449 H 0.69297 0.77039 0.72798 0.0
H450 H 0.7075 0.7992 0.65926 0.0
H451 H 0.77382 0.78423 0.70025 0.0
C452 C 0.74162 0.72145 0.85612 0.0
C453 C 0.72191 0.71242 0.88203 0.0
C454 C 0.70168 0.71929 0.86223 0.0
C455 C 0.70112 0.73522 0.81805 0.0
C456 C 0.72092 0.74406 0.79433 0.0
C457 C 0.74077 0.73736 0.81254 0.0
C458 C 0.75977 0.75006 0.78194 0.0
C459 C 0.77473 0.76302 0.82627 0.0
C460 C 0.77272 0.73475 0.74447 0.0
C461 C 0.74753 0.76518 0.74405 0.0
C462 C 0.72513 0.76136 0.75153 0.0
C463 C 0.71046 0.77346 0.72158 0.0
C464 C 0.7189 0.78981 0.68271 0.0
C465 C 0.74182 0.794 0.67441 0.0
C466 C 0.75624 0.7815 0.70572 0.0
H467 H 0.74304 0.30779 0.28539 0.0
H468 H 0.81389 0.30814 0.2929 0.0
H469 H 0.81259 0.27973 0.21567 0.0
H470 H 0.73177 0.25119 0.2696 0.0
H471 H 0.70915 0.25286 0.21973 0.0
H472 H 0.71574 0.27454 0.27168 0.0
H473 H 0.71942 0.30301 0.18727 0.0
H474 H 0.71257 0.28145 0.135 0.0
H475 H 0.73761 0.2989 0.12684 0.0
H476 H 0.80317 0.24911 0.14427 0.0
H477 H 0.78674 0.22039 0.0782 0.0
H478 H 0.72203 0.24057 0.11702 0.0
C479 C 0.75836 0.30219 0.27023 0.0
C480 C 0.77859 0.31019 0.29519 0.0
C481 C 0.79822 0.30234 0.27418 0.0
C482 C 0.79763 0.28616 0.2305 0.0
C483 C 0.77733 0.27822 0.20808 0.0
C484 C 0.75808 0.28617 0.2267 0.0
C485 C 0.73833 0.27443 0.19704 0.0
C486 C 0.72285 0.26255 0.24222 0.0
C487 C 0.72628 0.2904 0.15928 0.0
C488 C 0.74944 0.25833 0.15947 0.0
C489 C 0.77193 0.26077 0.16647 0.0
C490 C 0.78561 0.2472 0.13793 0.0
C491 C 0.77609 0.23086 0.10073 0.0
C492 C 0.75308 0.22826 0.09227 0.0
C493 C 0.73966 0.24221 0.12223 0.0
H494 H 0.72014 0.2266 0.7832 0.0
H495 H 0.78577 0.20533 0.79803 0.0
H496 H 0.79777 0.22935 0.71526 0.0
H497 H 0.71968 0.23131 0.62229 0.0
H498 H 0.70463 0.25535 0.62372 0.0
H499 H 0.7007 0.23512 0.68111 0.0
H500 H 0.71029 0.26522 0.75902 0.0
H501 H 0.71435 0.28551 0.70197 0.0
H502 H 0.73596 0.28186 0.75377 0.0
H503 H 0.80351 0.25782 0.63763 0.0
H504 H 0.80236 0.28815 0.56685 0.0
H505 H 0.73284 0.29047 0.60058 0.0
C506 C 0.73696 0.22672 0.76854 0.0
C507 C 0.75201 0.21406 0.79713 0.0
C508 C 0.77391 0.21483 0.77679 0.0
C509 C 0.7809 0.22841 0.72976 0.0
C510 C 0.76574 0.24095 0.70328 0.0
C511 C 0.74419 0.24011 0.72154 0.0
C512 C 0.73147 0.25599 0.68719 0.0
C513 C 0.71303 0.24371 0.65145 0.0
C514 C 0.7225 0.27316 0.72793 0.0
C515 C 0.74939 0.26622 0.64766 0.0
C516 C 0.769 0.25723 0.65759 0.0
C517 C 0.7882 0.26481 0.62884 0.0
C518 C 0.78739 0.2821 0.58895 0.0
C519 C 0.76748 0.29158 0.57804 0.0
C520 C 0.74821 0.28334 0.60742 0.0
H521 H 0.72257 0.72825 0.18907 0.0
H522 H 0.79092 0.72413 0.14321 0.0
H523 H 0.80168 0.75287 0.21611 0.0
H524 H 0.72614 0.78716 0.21213 0.0
H525 H 0.70722 0.78517 0.27284 0.0
H526 H 0.70488 0.76493 0.21535 0.0
H527 H 0.70742 0.73408 0.29243 0.0
H528 H 0.70978 0.75421 0.35011 0.0
H529 H 0.73047 0.7352 0.34179 0.0
H530 H 0.80503 0.78063 0.29713 0.0
H531 H 0.80085 0.80591 0.37969 0.0
H532 H 0.73019 0.79216 0.37131 0.0
C533 C 0.73981 0.73344 0.19398 0.0
C534 C 0.75591 0.7239 0.16043 0.0
C535 C 0.77829 0.73121 0.16835 0.0
C536 C 0.78456 0.74753 0.2096 0.0
C537 C 0.76825 0.75643 0.24219 0.0
C538 C 0.74634 0.74972 0.23467 0.0
C539 C 0.73207 0.76154 0.27614 0.0
C540 C 0.71667 0.77553 0.24207 0.0
C541 C 0.71919 0.74529 0.31757 0.0
C542 C 0.74942 0.77575 0.30885 0.0
C543 C 0.77017 0.7726 0.28849 0.0
C544 C 0.78887 0.78335 0.31318 0.0
C545 C 0.7863 0.79764 0.36017 0.0
C546 C 0.76518 0.80106 0.38192 0.0
C547 C 0.74654 0.79005 0.35542 0.0
H548 H 0.5301 0.49731 0.17449 0.0
H549 H 0.54012 0.56821 0.18944 0.0
H550 H 0.51241 0.57202 0.11238 0.0
H551 H 0.52347 0.49532 0.01933 0.0
H552 H 0.50266 0.47266 0.02102 0.0
H553 H 0.52294 0.47558 0.0782 0.0
H554 H 0.49218 0.47508 0.15648 0.0
H555 H 0.4718 0.47216 0.0995 0.0
H556 H 0.47171 0.49445 0.15109 0.0
H557 H 0.48438 0.56803 0.03147 0.0
H558 H 0.4577 0.55648 0.95391 0.0
H559 H 0.46591 0.48827 0.99397 0.0
C560 C 0.52646 0.51366 0.16177 0.0
C561 C 0.5373 0.53246 0.18801 0.0
C562 C 0.532 0.55355 0.17004 0.0
C563 C 0.5163 0.5559 0.12631 0.0
C564 C 0.50599 0.53701 0.10126 0.0
C565 C 0.51081 0.51631 0.11847 0.0
C566 C 0.49756 0.49864 0.08438 0.0
C567 C 0.51256 0.48474 0.04861 0.0
C568 C 0.48241 0.48424 0.12532 0.0
C569 C 0.48463 0.51264 0.04498 0.0
C570 C 0.48971 0.53472 0.0553 0.0
C571 C 0.48017 0.55078 0.02319 0.0
C572 C 0.46507 0.54406 0.97922 0.0
C573 C 0.45965 0.52147 0.968 0.0
C574 C 0.46955 0.50565 0.00169 0.0
H575 H 0.03225 0.54174 0.44899 0.0
H576 H 0.05289 0.4761 0.42728 0.0
H577 H 0.02854 0.46297 0.50835 0.0
H578 H 0.02619 0.53985 0.60974 0.0
H579 H 0.0022 0.55494 0.60857 0.0
H580 H 0.02286 0.55969 0.55265 0.0
H581 H 0.99341 0.55125 0.4724 0.0
H582 H 0.9727 0.54634 0.52798 0.0
H583 H 0.97678 0.52549 0.47424 0.0
H584 H 0.00041 0.45637 0.5865 0.0
H585 H 0.97011 0.45662 0.65737 0.0
H586 H 0.96715 0.52645 0.62757 0.0
C587 C 0.03197 0.5247 0.46205 0.0
C588 C 0.04454 0.50996 0.43202 0.0
C589 C 0.04341 0.48769 0.44969 0.0
C590 C 0.02968 0.48008 0.49578 0.0
C591 C 0.01719 0.49494 0.52368 0.0
C592 C 0.01822 0.51679 0.5077 0.0
C593 C 0.00207 0.529 0.54249 0.0
C594 C 0.01405 0.54693 0.58063 0.0
C595 C 0.98525 0.53857 0.50184 0.0
C596 C 0.99155 0.5105 0.57973 0.0
C597 C 0.00067 0.49105 0.56851 0.0
C598 C 0.99324 0.47153 0.59607 0.0
C599 C 0.97597 0.47185 0.63617 0.0
C600 C 0.96622 0.49156 0.64813 0.0
C601 C 0.97428 0.51114 0.61962 0.0
H602 H 0.02812 0.4976 0.12564 0.0
H603 H 0.01917 0.5664 0.15501 0.0
H604 H 0.98739 0.56347 0.08839 0.0
H605 H 0.01541 0.49707 0.97395 0.0
H606 H 0.00136 0.46996 0.97494 0.0
H607 H 0.0227 0.47721 0.02737 0.0
H608 H -0.00419 0.46618 0.11226 0.0
H609 H 0.97432 0.45905 0.06001 0.0
H610 H 0.97025 0.47862 0.11718 0.0
H611 H 0.95789 0.55371 0.0155 0.0
H612 H 0.93329 0.53807 0.93791 0.0
H613 H 0.96096 0.47546 0.9568 0.0
C614 C 0.01943 0.51205 0.11833 0.0
C615 C 0.02615 0.53224 0.14562 0.0
C616 C 0.01436 0.55075 0.13463 0.0
C617 C -0.00378 0.54924 0.09707 0.0
C618 C 0.99002 0.52909 0.07107 0.0
C619 C 0.00127 0.51083 0.08106 0.0
C620 C 0.99173 0.49136 0.04575 0.0
C621 C 0.00882 0.48345 0.00296 0.0
C622 C 0.98247 0.4727 0.08623 0.0
C623 C 0.9736 0.50166 0.01352 0.0
C624 C 0.97281 0.52339 0.02916 0.0
C625 C 0.9582 0.53667 0.00324 0.0
C626 C 0.94431 0.52763 0.9592 0.0
C627 C 0.94514 0.50552 0.94156 0.0
C628 C 0.9597 0.49229 0.97001 0.0
H629 H 0.46795 0.52399 0.67426 0.0
H630 H 0.46726 0.45326 0.69232 0.0
H631 H 0.49714 0.45309 0.61974 0.0
H632 H 0.47807 0.52633 0.51956 0.0
H633 H 0.49573 0.55139 0.52341 0.0
H634 H 0.47439 0.54589 0.57705 0.0
H635 H 0.50313 0.55098 0.66038 0.0
H636 H 0.5246 0.55635 0.60697 0.0
H637 H 0.52635 0.53476 0.66015 0.0
H638 H 0.52651 0.4605 0.54429 0.0
H639 H 0.55315 0.47486 0.4697 0.0
H640 H 0.53517 0.54088 0.50239 0.0
C641 C 0.47402 0.50843 0.66295 0.0
C642 C 0.46523 0.48862 0.68896 0.0
C643 C 0.47372 0.46864 0.67299 0.0
C644 C 0.49072 0.46838 0.6319 0.0
C645 C 0.49908 0.48822 0.60745 0.0
C646 C 0.49102 0.50787 0.62229 0.0
C647 C 0.50278 0.52688 0.5893 0.0
C648 C 0.48679 0.53829 0.54999 0.0
C649 C 0.51494 0.5432 0.63175 0.0
C650 C 0.51864 0.51481 0.55324 0.0
C651 C 0.51623 0.49254 0.56444 0.0
C652 C 0.52862 0.47791 0.5353 0.0
C653 C 0.5437 0.48625 0.49301 0.0
C654 C 0.54629 0.50901 0.48038 0.0
C655 C 0.53374 0.52345 0.51151 0.0
H656 H 0.11624 0.46 0.10268 0.0
H657 H 0.10325 0.42945 0.27253 0.0
H658 H 0.12122 0.39704 0.23991 0.0
H659 H 0.10971 0.40827 0.01439 0.0
H660 H 0.13165 0.41769 0.96546 0.0
H661 H 0.115 0.43713 -0.00098 0.0
H662 H 0.1499 0.45844 0.04096 0.0
H663 H 0.16661 0.43908 0.00782 0.0
H664 H 0.16837 0.44415 0.08563 0.0
H665 H 0.14514 0.37085 0.19524 0.0
H666 H 0.1724 0.3518 0.1396 0.0
H667 H 0.16886 0.39829 -0.00306 0.0
C668 C 0.1167 0.44626 0.13249 0.0
C669 C 0.10832 0.44722 0.1901 0.0
C670 C 0.1095 0.42905 0.22812 0.0
C671 C 0.11961 0.41053 0.20994 0.0
C672 C 0.12821 0.41033 0.15339 0.0
C673 C 0.12665 0.4276 0.11493 0.0
C674 C 0.13878 0.424 0.05827 0.0
C675 C 0.12283 0.42163 0.0062 0.0
C676 C 0.15699 0.44251 0.0476 0.0
C677 C 0.14817 0.40247 0.07192 0.0
C678 C 0.14168 0.39478 0.12683 0.0
C679 C 0.14992 0.37639 0.15164 0.0
C680 C 0.16545 0.36574 0.11987 0.0
C681 C 0.17244 0.37345 0.06382 0.0
C682 C 0.16333 0.39175 0.03907 0.0
H683 H 0.783 0.89814 0.39704 0.0
H684 H 0.78857 0.91282 0.58283 0.0
H685 H 0.81584 0.94405 0.56056 0.0
H686 H 0.83971 0.90852 0.36531 0.0
H687 H 0.83531 0.91986 0.29371 0.0
H688 H 0.81534 0.89979 0.32444 0.0
H689 H 0.78518 0.92661 0.31096 0.0
H690 H 0.80508 0.9468 0.28024 0.0
H691 H 0.78893 0.95365 0.34264 0.0
H692 H 0.84227 0.97389 0.51673 0.0
H693 H 0.86807 -0.00222 0.4564 0.0
H694 H 0.84638 0.96146 0.30068 0.0
C695 C 0.78978 0.90805 0.43307 0.0
C696 C 0.78358 0.90329 0.49161 0.0
C697 C 0.79313 0.91631 0.53766 0.0
C698 C 0.80852 0.93408 0.52539 0.0
C699 C 0.81429 0.9383 0.467 0.0
C700 C 0.80536 0.92548 0.42172 0.0
C701 C 0.81512 0.93256 0.36311 0.0
C702 C 0.82708 0.91409 0.33502 0.0
C703 C 0.79753 0.94037 0.32182 0.0
C704 C 0.83102 0.9514 0.38233 0.0
C705 C 0.83011 0.9547 0.44226 0.0
C706 C 0.84316 0.9714 0.46983 0.0
C707 C 0.85769 0.98491 0.43524 0.0
C708 C 0.85923 0.98133 0.37405 0.0
C709 C 0.84563 0.96444 0.34745 0.0
H710 H 0.3138 0.64399 0.66744 0.0
H711 H 0.33817 0.64489 0.48873 0.0
H712 H 0.36849 0.62332 0.51974 0.0
H713 H 0.36907 0.64685 0.74006 0.0
H714 H 0.35879 0.62901 0.79863 0.0
H715 H 0.34102 0.64711 0.76378 0.0
H716 H 0.31327 0.61389 0.7406 0.0
H717 H 0.33096 0.59571 0.77484 0.0
H718 H 0.32229 0.59104 0.70002 0.0
H719 H 0.39153 0.59616 0.56633 0.0
H720 H 0.40791 0.56836 0.62727 0.0
H721 H 0.37043 0.58748 0.77716 0.0
C722 C 0.32586 0.64012 0.63517 0.0
C723 C 0.3237 0.64603 0.57574 0.0
C724 C 0.33967 0.64062 0.53459 0.0
C725 C 0.35691 0.62838 0.5518 0.0
C726 C 0.35819 0.62219 0.61051 0.0
C727 C 0.34335 0.62828 0.65183 0.0
C728 C 0.34749 0.61843 0.7113 0.0
C729 C 0.35452 0.63643 0.75608 0.0
C730 C 0.32731 0.60391 0.7329 0.0
C731 C 0.36627 0.60492 0.69636 0.0
C732 C 0.37228 0.60738 0.63805 0.0
C733 C 0.38746 0.59459 0.61243 0.0
C734 C 0.39658 0.5788 0.64719 0.0
C735 C 0.39067 0.57616 0.70694 0.0
C736 C 0.37568 0.58969 0.732 0.0
H737 H 0.70268 0.11933 0.8311 0.0
H738 H 0.68878 0.11889 0.01783 0.0
H739 H 0.65812 0.0906 0.00227 0.0
H740 H 0.64549 0.11291 0.78483 0.0
H741 H 0.65087 0.09583 0.723 0.0
H742 H 0.67173 0.11611 0.74863 0.0
H743 H 0.69867 0.08601 0.7605 0.0
H744 H 0.6779 0.06564 0.735 0.0
H745 H 0.69087 0.06225 0.805 0.0
H746 H 0.63113 0.06074 0.96802 0.0
H747 H 0.6069 0.03296 0.91588 0.0
H748 H 0.63591 0.0546 0.74987 0.0
C749 C 0.69313 0.11327 0.86861 0.0
C750 C 0.69811 0.12112 0.92574 0.0
C751 C 0.68517 0.11306 0.97374 0.0
C752 C 0.66777 0.097 0.96535 0.0
C753 C 0.66334 0.08952 0.90855 0.0
C754 C 0.6754 0.09757 0.86084 0.0
C755 C 0.66692 0.08691 0.80433 0.0
C756 C 0.65823 0.10396 0.76275 0.0
C757 C 0.68465 0.07446 0.77447 0.0
C758 C 0.64846 0.07129 0.82794 0.0
C759 C 0.64685 0.073 0.88827 0.0
C760 C 0.632 0.05945 0.92075 0.0
C761 C 0.6184 0.04368 0.89081 0.0
C762 C 0.61952 0.04185 0.82901 0.0
C763 C 0.63457 0.05597 0.79708 0.0
H764 H 0.14283 0.54516 0.39198 0.0
H765 H 0.1488 0.56137 0.20712 0.0
H766 H 0.18121 0.58709 0.22859 0.0
H767 H 0.15462 0.59949 0.44194 0.0
H768 H 0.16922 0.59198 0.50651 0.0
H769 H 0.14817 0.57309 0.4758 0.0
H770 H 0.1758 0.54344 0.46768 0.0
H771 H 0.19697 0.56227 0.49838 0.0
H772 H 0.20113 0.54957 0.4284 0.0
H773 H 0.21242 0.61136 0.27053 0.0
H774 H 0.23787 0.63546 0.33068 0.0
H775 H 0.20955 0.60548 0.48896 0.0
C776 C 0.15122 0.55386 0.35599 0.0
C777 C 0.14363 0.55116 0.29783 0.0
C778 C 0.15454 0.56322 0.25192 0.0
C779 C 0.17297 0.57774 0.26367 0.0
C780 C 0.17999 0.58017 0.32163 0.0
C781 C 0.1693 0.56877 0.36712 0.0
C782 C 0.17891 0.57582 0.42598 0.0
C783 C 0.16171 0.58569 0.46482 0.0
C784 C 0.18879 0.55663 0.45692 0.0
C785 C 0.19655 0.59311 0.40652 0.0
C786 C 0.19719 0.59506 0.34612 0.0
C787 C 0.21208 0.60999 0.31787 0.0
C788 C 0.2265 0.62356 0.35237 0.0
C789 C 0.22557 0.62234 0.41437 0.0
C790 C 0.21053 0.60677 0.44162 0.0
H791 H 0.61516 0.92667 0.73721 0.0
H792 H 0.58956 0.95209 0.57597 0.0
H793 H 0.60928 0.92575 0.51876 0.0
H794 H 0.66732 0.92314 0.68569 0.0
H795 H 0.67241 0.89844 0.7246 0.0
H796 H 0.65309 0.91615 0.75329 0.0
H797 H 0.62301 0.88368 0.75473 0.0
H798 H 0.64233 0.8658 0.72598 0.0
H799 H 0.6168 0.86837 0.68841 0.0
H800 H 0.63501 0.8998 0.47862 0.0
H801 H 0.66646 0.8781 0.45888 0.0
H802 H 0.67615 0.87071 0.64615 0.0
C803 C 0.6132 0.92621 0.69 0.0
C804 C 0.60071 0.94121 0.66096 0.0
C805 C 0.59902 0.94063 0.59902 0.0
C806 C 0.61003 0.92564 0.56619 0.0
C807 C 0.62269 0.91139 0.59601 0.0
C808 C 0.62435 0.91157 0.65656 0.0
C809 C 0.6411 0.89655 0.6775 0.0
C810 C 0.65957 0.90934 0.71228 0.0
C811 C 0.63015 0.87746 0.7138 0.0
C812 C 0.64922 0.88861 0.61925 0.0
C813 C 0.63805 0.8969 0.57277 0.0
C814 C 0.64367 0.89293 0.51466 0.0
C815 C 0.66153 0.88059 0.50384 0.0
C816 C 0.6737 0.87275 0.55097 0.0
C817 C 0.66707 0.8764 0.60922 0.0
H818 H 0.34568 0.46545 0.80164 0.0
H819 H 0.36435 0.49361 0.97069 0.0
H820 H 0.33751 0.46711 0.01956 0.0
H821 H 0.28733 0.45651 0.83552 0.0
H822 H 0.28384 0.43141 0.794 0.0
H823 H 0.30449 0.45266 0.77274 0.0
H824 H 0.33405 0.42488 0.77881 0.0
H825 H 0.31353 0.40359 0.80051 0.0
H826 H 0.33727 0.40993 0.84601 0.0
H827 H 0.31104 0.43531 0.05024 0.0
H828 H 0.28311 0.4037 0.05946 0.0
H829 H 0.27935 0.39888 0.86992 0.0
C830 C 0.34396 0.46609 0.84889 0.0
C831 C 0.35706 0.48142 0.88256 0.0
C832 C 0.35433 0.482 0.94421 0.0
C833 C 0.33924 0.46697 0.97232 0.0
C834 C 0.32673 0.45184 0.93792 0.0
C835 C 0.3286 0.4516 0.87747 0.0
C836 C 0.31282 0.43406 0.85055 0.0
C837 C 0.29613 0.44427 0.81087 0.0
C838 C 0.32516 0.41711 0.81701 0.0
C839 C 0.30207 0.42422 0.90537 0.0
C840 C 0.31051 0.4345 0.95539 0.0
C841 C 0.30403 0.42737 0.01138 0.0
C842 C 0.2883 0.4094 0.01624 0.0
C843 C 0.27901 0.39918 0.96541 0.0
C844 C 0.28597 0.40672 0.90943 0.0
H845 H 0.78802 0.10482 0.05769 0.0
H846 H 0.83329 0.15828 -0.0035 0.0
H847 H 0.86387 0.14148 0.04572 0.0
H848 H 0.8115 0.09715 0.19682 0.0
H849 H 0.80726 0.06765 0.19528 0.0
H850 H 0.78915 0.08387 0.15516 0.0
H851 H 0.7974 0.06339 0.05921 0.0
H852 H 0.81533 0.04692 0.09918 0.0
H853 H 0.8254 0.06233 0.03588 0.0
H854 H 0.88872 0.1201 0.10985 0.0
H855 H 0.90682 0.09297 0.16984 0.0
H856 H 0.84553 0.05217 0.17954 0.0
C857 C 0.80442 0.11286 0.05433 0.0
C858 C 0.80843 0.13282 0.0238 0.0
C859 C 0.83004 0.14287 0.01962 0.0
C860 C 0.84741 0.13354 0.04769 0.0
C861 C 0.84286 0.11396 0.07842 0.0
C862 C 0.82195 0.10349 0.08061 0.0
C863 C 0.82141 0.08224 0.11455 0.0
C864 C 0.80645 0.08277 0.16866 0.0
C865 C 0.81448 0.06256 0.07482 0.0
C866 C 0.8452 0.08251 0.13203 0.0
C867 C 0.85731 0.10107 0.11168 0.0
C868 C 0.87947 0.10534 0.12522 0.0
C869 C 0.88957 0.08999 0.15951 0.0
C870 C 0.87754 0.07052 0.17853 0.0
C871 C 0.85512 0.06683 0.16474 0.0
H872 H 0.78969 0.61685 0.88223 0.0
H873 H 0.83738 0.66708 0.94916 0.0
H874 H 0.86673 0.65013 0.89504 0.0
H875 H 0.82172 0.57391 0.90264 0.0
H876 H 0.81201 0.55885 0.83853 0.0
H877 H 0.79475 0.57711 0.874 0.0
H878 H 0.79088 0.59787 0.77577 0.0
H879 H 0.80833 0.5797 0.74005 0.0
H880 H 0.81512 0.60892 0.73751 0.0
H881 H 0.89116 0.62571 0.8389 0.0
H882 H 0.90863 0.59391 0.79789 0.0
H883 H 0.84467 0.55914 0.77481 0.0
C884 C 0.80622 0.62461 0.88446 0.0
C885 C 0.81128 0.64339 0.91922 0.0
C886 C 0.83319 0.65272 0.92241 0.0
C887 C 0.8499 0.64331 0.89149 0.0
C888 C 0.84436 0.62457 0.85798 0.0
C889 C 0.82302 0.61526 0.85486 0.0
C890 C 0.82151 0.59372 0.82229 0.0
C891 C 0.81195 0.57479 0.86173 0.0
C892 C 0.80817 0.59515 0.76553 0.0
C893 C 0.84543 0.5919 0.80912 0.0
C894 C 0.85837 0.61012 0.82835 0.0
C895 C 0.88115 0.6115 0.82314 0.0
C896 C 0.89093 0.59348 0.79956 0.0
C897 C 0.87788 0.57431 0.7831 0.0
C898 C 0.85491 0.57378 0.78663 0.0
H899 H 0.202 0.10532 0.51945 0.0
H900 H 0.23489 0.13752 0.66855 0.0
H901 H 0.21227 0.11346 0.73589 0.0
H902 H 0.14919 0.09918 0.58052 0.0
H903 H 0.14191 0.0725 0.54934 0.0
H904 H 0.1616 0.09136 0.51284 0.0
H905 H 0.19001 0.06231 0.51486 0.0
H906 H 0.17034 0.0433 0.55111 0.0
H907 H 0.19683 0.05012 0.58376 0.0
H908 H 0.18366 0.08805 0.78706 0.0
H909 H 0.15311 0.06127 0.81749 0.0
H910 H 0.14042 0.04482 0.63483 0.0
C911 C 0.20463 0.10712 0.56623 0.0
C912 C 0.22016 0.1233 0.58875 0.0
C913 C 0.22312 0.12518 0.65028 0.0
C914 C 0.21032 0.11162 0.68892 0.0
C915 C 0.19487 0.09608 0.66532 0.0
C916 C 0.19219 0.09357 0.60539 0.0
C917 C 0.1742 0.07589 0.59124 0.0
C918 C 0.15563 0.08531 0.55645 0.0
C919 C 0.1834 0.05677 0.55831 0.0
C920 C 0.16688 0.06919 0.65253 0.0
C921 C 0.17894 0.08102 0.69474 0.0
C922 C 0.17431 0.07844 0.75442 0.0
C923 C 0.15692 0.06329 0.7713 0.0
C924 C 0.14457 0.05087 0.72859 0.0
C925 C 0.14977 0.05385 0.66858 0.0
H926 H 0.67038 0.37244 0.46494 0.0
H927 H 0.68985 0.35401 0.29047 0.0
H928 H 0.65938 0.37274 0.24814 0.0
H929 H 0.60882 0.37368 0.43515 0.0
H930 H 0.60795 0.39774 0.48034 0.0
H931 H 0.62658 0.37743 0.49801 0.0
H932 H 0.65896 0.40757 0.49603 0.0
H933 H 0.64058 0.42783 0.47792 0.0
H934 H 0.66366 0.42412 0.431 0.0
H935 H 0.63203 0.39904 0.22373 0.0
H936 H 0.61185 0.43226 0.21905 0.0
H937 H 0.61175 0.43551 0.40906 0.0
C938 C 0.66748 0.37145 0.41812 0.0
C939 C 0.68207 0.3615 0.3809 0.0
C940 C 0.67857 0.36135 0.31959 0.0
C941 C 0.66125 0.37184 0.29526 0.0
C942 C 0.6477 0.38251 0.33288 0.0
C943 C 0.65058 0.38233 0.39315 0.0
C944 C 0.63665 0.39829 0.42305 0.0
C945 C 0.61895 0.38605 0.4614 0.0
C946 C 0.65082 0.41546 0.45905 0.0
C947 C 0.62664 0.40848 0.37007 0.0
C948 C 0.63254 0.39861 0.3186 0.0
C949 C 0.6269 0.40658 0.26378 0.0
C950 C 0.61547 0.42547 0.2615 0.0
C951 C 0.61031 0.4364 0.3137 0.0
C952 C 0.61538 0.42736 0.3685 0.0
H953 H 0.32806 0.97388 0.23803 0.0
H954 H 0.35707 0.0045 0.08135 0.0
H955 H 0.33341 0.97924 0.01979 0.0
H956 H 0.32431 0.92 0.18761 0.0
H957 H 0.29824 0.91193 0.22132 0.0
H958 H 0.31609 0.9336 0.25313 0.0
H959 H 0.2852 0.95993 0.24703 0.0
H960 H 0.26716 0.93826 0.21564 0.0
H961 H 0.27206 0.96405 0.17763 0.0
H962 H 0.30979 0.94769 0.97565 0.0
H963 H 0.28515 0.91456 0.95262 0.0
H964 H 0.27024 0.90624 0.13779 0.0
C965 C 0.32914 0.97553 0.19079 0.0
C966 C 0.3444 0.99111 0.1645 0.0
C967 C 0.34541 0.99273 0.10249 0.0
C968 C 0.33208 0.97842 0.0671 0.0
C969 C 0.31758 0.96286 0.0944 0.0
C970 C 0.31574 0.9616 0.15482 0.0
C971 C 0.29928 0.94304 0.17324 0.0
C972 C 0.31014 0.92615 0.21104 0.0
C973 C 0.27977 0.95185 0.20527 0.0
C974 C 0.29261 0.93372 0.11386 0.0
C975 C 0.30336 0.9453 0.06885 0.0
C976 C 0.30094 0.93874 0.01043 0.0
C977 C 0.28704 0.91989 -0.00224 0.0
C978 C 0.27565 0.90807 0.04332 0.0
C979 C 0.27843 0.91521 0.10192 0.0
H980 H 0.80037 0.41116 0.48449 0.0
H981 H 0.75589 0.39278 0.62806 0.0
H982 H 0.77847 0.41692 0.69462 0.0
H983 H 0.84914 0.41262 0.56536 0.0
H984 H 0.86245 0.43626 0.52879 0.0
H985 H 0.84202 0.41876 0.49076 0.0
H986 H 0.81978 0.45207 0.46975 0.0
H987 H 0.84027 0.46974 0.50726 0.0
H988 H 0.81202 0.46891 0.52982 0.0
H989 H 0.80761 0.43977 0.74783 0.0
H990 H 0.83992 0.4631 0.78248 0.0
H991 H 0.8646 0.46838 0.60408 0.0
C992 C 0.79521 0.4125 0.52969 0.0
C993 C 0.77642 0.40004 0.5511 0.0
C994 C 0.77022 0.40217 0.61061 0.0
C995 C 0.78295 0.41582 0.64885 0.0
C996 C 0.80165 0.42747 0.62676 0.0
C997 C 0.80761 0.42627 0.56843 0.0
C998 C 0.82877 0.44022 0.5564 0.0
C999 C 0.84665 0.42612 0.53402 0.0
C1000 C 0.82498 0.45884 0.51326 0.0
C1001 C 0.83397 0.449 0.61736 0.0
C1002 C 0.81814 0.44136 0.65729 0.0
C1003 C 0.81996 0.44615 0.7169 0.0
C1004 C 0.8384 0.45928 0.73619 0.0
C1005 C 0.8546 0.46761 0.69587 0.0
C1006 C 0.85228 0.46245 0.6357 0.0
H1007 H 0.30724 0.15111 0.33366 0.0
H1008 H 0.33122 0.16269 0.51073 0.0
H1009 H 0.3645 0.14445 0.48639 0.0
H1010 H 0.32057 0.09993 0.3198 0.0
H1011 H 0.329 0.10124 0.244 0.0
H1012 H 0.30996 0.11957 0.2707 0.0
H1013 H 0.33551 0.15293 0.23544 0.0
H1014 H 0.35469 0.1346 0.20819 0.0
H1015 H 0.36363 0.15595 0.25937 0.0
H1016 H 0.38933 0.11716 0.45148 0.0
H1017 H 0.40532 0.0855 0.40602 0.0
H1018 H 0.36748 0.09389 0.24867 0.0
C1019 C 0.3199 0.1505 0.36662 0.0
C1020 C 0.31673 0.15826 0.42402 0.0
C1021 C 0.33345 0.15701 0.46632 0.0
C1022 C 0.35242 0.1467 0.45282 0.0
C1023 C 0.35462 0.13831 0.39642 0.0
C1024 C 0.33903 0.14058 0.35352 0.0
C1025 C 0.34396 0.12804 0.29853 0.0
C1026 C 0.32474 0.1112 0.2824 0.0
C1027 C 0.3498 0.14383 0.24735 0.0
C1028 C 0.36379 0.11695 0.3187 0.0
C1029 C 0.3699 0.12335 0.37503 0.0
C1030 C 0.38536 0.11269 0.40658 0.0
C1031 C 0.39432 0.09473 0.38058 0.0
C1032 C 0.38805 0.08788 0.3234 0.0
C1033 C 0.37321 0.09957 0.29141 0.0
H1034 H 0.63819 0.54556 0.16763 0.0
H1035 H 0.65913 0.55094 0.3492 0.0
H1036 H 0.69103 0.5761 0.31919 0.0
H1037 H 0.69196 0.54785 0.10055 0.0
H1038 H 0.68415 0.56427 0.03962 0.0
H1039 H 0.66401 0.54555 0.0751 0.0
H1040 H 0.63965 0.57744 0.09395 0.0
H1041 H 0.65967 0.59623 0.05845 0.0
H1042 H 0.65099 0.60156 0.13225 0.0
H1043 H 0.72046 0.60086 0.26859 0.0
H1044 H 0.74325 0.62574 0.20328 0.0
H1045 H 0.7014 0.60543 0.05624 0.0
C1046 C 0.64962 0.55183 0.20106 0.0
C1047 C 0.64638 0.54619 0.26066 0.0
C1048 C 0.66141 0.55506 0.30327 0.0
C1049 C 0.67958 0.56925 0.28659 0.0
C1050 C 0.68226 0.57452 0.22732 0.0
C1051 C 0.66755 0.56623 0.18534 0.0
C1052 C 0.67326 0.57545 0.12517 0.0
C1053 C 0.67867 0.55719 0.08261 0.0
C1054 C 0.6548 0.58845 0.10107 0.0
C1055 C 0.69344 0.59039 0.13978 0.0
C1056 C 0.69858 0.58939 0.19872 0.0
C1057 C 0.71658 0.60178 0.2224 0.0
C1058 C 0.72944 0.6158 0.18496 0.0
C1059 C 0.724 0.61752 0.12483 0.0
C1060 C 0.70588 0.60449 0.10207 0.0
H1061 H 0.16563 0.88706 0.00861 0.0
H1062 H 0.17827 0.84866 0.85462 0.0
H1063 H 0.15085 0.86748 0.79903 0.0
H1064 H 0.10534 0.8937 0.97761 0.0
H1065 H 0.10831 0.92155 0.004 0.0
H1066 H 0.12448 0.90127 0.03566 0.0
H1067 H 0.15982 0.92611 0.01247 0.0
H1068 H 0.14388 0.94626 0.98018 0.0
H1069 H 0.16516 0.93503 0.93803 0.0
H1070 H 0.12752 0.89478 0.7555 0.0
H1071 H 0.11027 0.92842 0.72802 0.0
H1072 H 0.11378 0.94976 0.90949 0.0
C1073 C 0.16183 0.88194 0.96405 0.0
C1074 C 0.17376 0.86625 0.93604 0.0
C1075 C 0.16909 0.86053 0.87693 0.0
C1076 C 0.15349 0.87108 0.84508 0.0
C1077 C 0.14273 0.8873 0.87302 0.0
C1078 C 0.14654 0.89258 0.93141 0.0
C1079 C 0.13538 0.91274 0.94862 0.0
C1080 C 0.1173 0.90696 0.99417 0.0
C1081 C 0.15206 0.9311 0.9711 0.0
C1082 C 0.12576 0.91863 0.89017 0.0
C1083 C 0.12967 0.90348 0.8474 0.0
C1084 C 0.12393 0.90651 0.78887 0.0
C1085 C 0.11422 0.92569 0.77359 0.0
C1086 C 0.1107 0.94167 0.81658 0.0
C1087 C 0.11614 0.93777 0.87567 0.0
loop_
_geom_bond_atom_site_label_1
_geom_bond_atom_site_label_2
_geom_bond_distance
_geom_bond_site_symmetry_2
_ccdc_geom_bond_type
C0 O1 1.306 . S
C0 O3 1.160 . S
O1 C0 1.306 . S
O1 Cd2 2.228 . S
Cd2 O1 2.228 . S
Cd2 O6 2.273 . S
Cd2 O10 2.277 1_554 S
O3 C0 1.160 . S
O3 Cd4 2.203 . S
Cd4 O3 2.203 . S
Cd4 O6 2.411 . S
Cd4 O7 2.333 1_554 S
Cd4 O8 2.352 . S
Cd4 O12 2.277 1_554 S
Cd4 O13 2.356 . S
C5 O10 1.209 . S
C5 O12 1.226 . S
O6 Cd2 2.273 . S
O6 Cd4 2.411 . S
O6 C9 1.320 1_554 S
O7 Cd4 2.333 1_556 S
O7 C9 1.214 . S
O8 Cd4 2.352 . S
O8 C11 1.258 . S
C9 O6 1.320 1_556 S
C9 O7 1.214 . S
O10 Cd2 2.277 1_556 S
O10 C5 1.209 . S
C11 O8 1.258 . S
C11 O13 1.282 . S
O12 Cd4 2.277 1_556 S
O12 C5 1.226 . S
O13 Cd4 2.356 . S
O13 C11 1.282 . S
C14 O15 1.306 1_545 S
C14 O17 1.160 . S
O15 C14 1.306 1_565 S
O15 Cd16 2.228 . S
Cd16 O15 2.228 . S
Cd16 O20 2.273 . S
Cd16 O24 2.277 . S
O17 C14 1.160 . S
O17 Cd18 2.203 . S
Cd18 O17 2.203 . S
Cd18 O20 2.411 1_545 S
Cd18 O21 2.333 . S
Cd18 O22 2.352 . S
Cd18 O26 2.277 . S
Cd18 O27 2.356 . S
C19 O24 1.209 1_545 S
C19 O26 1.226 . S
O20 Cd16 2.273 . S
O20 Cd18 2.411 1_565 S
O20 C23 1.320 . S
O21 Cd18 2.333 . S
O21 C23 1.214 1_545 S
O22 Cd18 2.352 . S
O22 C25 1.258 . S
C23 O20 1.320 . S
C23 O21 1.214 1_565 S
O24 Cd16 2.277 . S
O24 C19 1.209 1_565 S
C25 O22 1.258 . S
C25 O27 1.282 . S
O26 Cd18 2.277 . S
O26 C19 1.226 . S
O27 Cd18 2.356 . S
O27 C25 1.282 . S
C28 O29 1.306 . S
C28 O31 1.160 . S
O29 C28 1.306 . S
O29 Cd30 2.228 . S
Cd30 O29 2.228 . S
Cd30 O34 2.273 . S
Cd30 O38 2.277 . S
O31 C28 1.160 . S
O31 Cd32 2.203 . S
Cd32 O31 2.203 . S
Cd32 O34 2.411 . S
Cd32 O35 2.333 . S
Cd32 O36 2.352 . S
Cd32 O40 2.277 . S
Cd32 O41 2.356 . S
C33 O38 1.209 . S
C33 O40 1.226 . S
O34 Cd30 2.273 . S
O34 Cd32 2.411 . S
O34 C37 1.320 . S
O35 Cd32 2.333 . S
O35 C37 1.214 . S
O36 Cd32 2.352 . S
O36 C39 1.258 . S
C37 O34 1.320 . S
C37 O35 1.214 . S
O38 Cd30 2.277 . S
O38 C33 1.209 . S
C39 O36 1.258 . S
C39 O41 1.282 . S
O40 Cd32 2.277 . S
O40 C33 1.226 . S
O41 Cd32 2.356 . S
O41 C39 1.282 . S
C42 O43 1.306 . S
C42 O45 1.187 . S
O43 C42 1.306 . S
O43 Cd44 2.228 . S
Cd44 O43 2.228 . S
Cd44 O48 2.273 . S
Cd44 O52 2.277 . S
O45 C42 1.187 . S
O45 Cd46 2.206 . S
Cd46 O45 2.206 . S
Cd46 O48 2.411 . S
Cd46 O49 2.333 . S
Cd46 O50 2.352 1_545 S
Cd46 O54 2.277 1_545 S
Cd46 O55 2.356 1_545 S
C47 O52 1.209 . S
C47 O54 1.226 1_545 S
O48 Cd44 2.273 . S
O48 Cd46 2.411 . S
O48 C51 1.320 . S
O49 Cd46 2.333 . S
O49 C51 1.214 . S
O50 Cd46 2.352 1_565 S
O50 C53 1.258 . S
C51 O48 1.320 . S
C51 O49 1.214 . S
O52 Cd44 2.277 . S
O52 C47 1.209 . S
C53 O50 1.258 . S
C53 O55 1.282 . S
O54 Cd46 2.277 1_565 S
O54 C47 1.226 1_565 S
O55 Cd46 2.356 1_565 S
O55 C53 1.282 . S
C56 O57 1.306 . S
C56 O59 1.160 . S
O57 C56 1.306 . S
O57 Cd58 2.228 1_556 S
Cd58 O57 2.228 1_554 S
Cd58 O62 2.273 . S
Cd58 O66 2.277 . S
O59 C56 1.160 . S
O59 Cd60 2.203 1_556 S
Cd60 O59 2.203 1_554 S
Cd60 O62 2.411 . S
Cd60 O63 2.333 . S
Cd60 O64 2.352 1_554 S
Cd60 O68 2.277 . S
Cd60 O69 2.356 . S
C61 O66 1.209 . S
C61 O68 1.226 . S
O62 Cd58 2.273 . S
O62 Cd60 2.411 . S
O62 C65 1.320 . S
O63 Cd60 2.333 . S
O63 C65 1.214 . S
O64 Cd60 2.352 1_556 S
O64 C67 1.258 . S
C65 O62 1.320 . S
C65 O63 1.214 . S
O66 Cd58 2.277 . S
O66 C61 1.209 . S
C67 O64 1.258 . S
C67 O69 1.282 1_556 S
O68 Cd60 2.277 . S
O68 C61 1.226 . S
O69 Cd60 2.356 . S
O69 C67 1.282 1_554 S
C70 O71 1.306 . S
C70 O73 1.187 . S
O71 C70 1.306 . S
O71 Cd72 2.228 . S
Cd72 O71 2.228 . S
Cd72 O76 2.273 . S
Cd72 O80 2.277 . S
O73 C70 1.187 . S
O73 Cd74 2.206 . S
Cd74 O73 2.206 . S
Cd74 O76 2.411 . S
Cd74 O77 2.333 . S
Cd74 O78 2.352 1_545 S
Cd74 O82 2.277 1_545 S
Cd74 O83 2.356 1_545 S
C75 O80 1.209 . S
C75 O82 1.226 1_545 S
O76 Cd72 2.273 . S
O76 Cd74 2.411 . S
O76 C79 1.320 . S
O77 Cd74 2.333 . S
O77 C79 1.214 . S
O78 Cd74 2.352 1_565 S
O78 C81 1.258 . S
C79 O76 1.320 . S
C79 O77 1.214 . S
O80 Cd72 2.277 . S
O80 C75 1.209 . S
C81 O78 1.258 . S
C81 O83 1.282 . S
O82 Cd74 2.277 1_565 S
O82 C75 1.226 1_565 S
O83 Cd74 2.356 1_565 S
O83 C81 1.282 . S
C84 O85 1.306 . S
C84 O87 1.160 . S
O85 C84 1.306 . S
O85 Cd86 2.228 . S
Cd86 O85 2.228 . S
Cd86 O90 2.273 . S
Cd86 O94 2.277 . S
O87 C84 1.160 . S
O87 Cd88 2.203 . S
Cd88 O87 2.203 . S
Cd88 O90 2.411 . S
Cd88 O91 2.333 . S
Cd88 O92 2.352 . S
Cd88 O96 2.277 . S
Cd88 O97 2.356 . S
C89 O94 1.209 . S
C89 O96 1.226 . S
O90 Cd86 2.273 . S
O90 Cd88 2.411 . S
O90 C93 1.320 . S
O91 Cd88 2.333 . S
O91 C93 1.214 . S
O92 Cd88 2.352 . S
O92 C95 1.258 . S
C93 O90 1.320 . S
C93 O91 1.214 . S
O94 Cd86 2.277 . S
O94 C89 1.209 . S
C95 O92 1.258 . S
C95 O97 1.282 . S
O96 Cd88 2.277 . S
O96 C89 1.226 . S
O97 Cd88 2.356 . S
O97 C95 1.282 . S
C98 O99 1.306 1_545 S
C98 O101 1.160 . S
O99 C98 1.306 1_565 S
O99 Cd100 2.228 . S
Cd100 O99 2.228 . S
Cd100 O104 2.273 . S
Cd100 O108 2.277 . S
O101 C98 1.160 . S
O101 Cd102 2.203 . S
Cd102 O101 2.203 . S
Cd102 O104 2.411 1_545 S
Cd102 O105 2.333 . S
Cd102 O106 2.352 . S
Cd102 O110 2.277 . S
Cd102 O111 2.356 . S
C103 O108 1.209 1_545 S
C103 O110 1.226 . S
O104 Cd100 2.273 . S
O104 Cd102 2.411 1_565 S
O104 C107 1.320 . S
O105 Cd102 2.333 . S
O105 C107 1.214 1_545 S
O106 Cd102 2.352 . S
O106 C109 1.258 . S
C107 O104 1.320 . S
C107 O105 1.214 1_565 S
O108 Cd100 2.277 . S
O108 C103 1.209 1_565 S
C109 O106 1.258 . S
C109 O111 1.282 . S
O110 Cd102 2.277 . S
O110 C103 1.226 . S
O111 Cd102 2.356 . S
O111 C109 1.282 . S
C112 O113 1.306 . S
C112 O115 1.160 . S
O113 C112 1.306 . S
O113 Cd114 2.228 . S
Cd114 O113 2.228 . S
Cd114 O118 2.273 . S
Cd114 O122 2.277 . S
O115 C112 1.160 . S
O115 Cd116 2.203 . S
Cd116 O115 2.203 . S
Cd116 O118 2.411 . S
Cd116 O119 2.333 . S
Cd116 O120 2.352 . S
Cd116 O124 2.277 . S
Cd116 O125 2.356 . S
C117 O122 1.209 . S
C117 O124 1.226 . S
O118 Cd114 2.273 . S
O118 Cd116 2.411 . S
O118 C121 1.320 . S
O119 Cd116 2.333 . S
O119 C121 1.214 . S
O120 Cd116 2.352 . S
O120 C123 1.258 . S
C121 O118 1.320 . S
C121 O119 1.214 . S
O122 Cd114 2.277 . S
O122 C117 1.209 . S
C123 O120 1.258 . S
C123 O125 1.282 . S
O124 Cd116 2.277 . S
O124 C117 1.226 . S
O125 Cd116 2.356 . S
O125 C123 1.282 . S
C126 O127 1.306 . S
C126 O129 1.160 . S
O127 C126 1.306 . S
O127 Cd128 2.228 . S
Cd128 O127 2.228 . S
Cd128 O132 2.273 . S
Cd128 O136 2.277 . S
O129 C126 1.160 . S
O129 Cd130 2.203 . S
Cd130 O129 2.203 . S
Cd130 O132 2.411 . S
Cd130 O133 2.333 . S
Cd130 O134 2.352 . S
Cd130 O138 2.277 . S
Cd130 O139 2.356 . S
C131 O136 1.209 . S
C131 O138 1.226 . S
O132 Cd128 2.273 . S
O132 Cd130 2.411 . S
O132 C135 1.320 . S
O133 Cd130 2.333 . S
O133 C135 1.214 . S
O134 Cd130 2.352 . S
O134 C137 1.258 . S
C135 O132 1.320 . S
C135 O133 1.214 . S
O136 Cd128 2.277 . S
O136 C131 1.209 . S
C137 O134 1.258 . S
C137 O139 1.282 . S
O138 Cd130 2.277 . S
O138 C131 1.226 . S
O139 Cd130 2.356 . S
O139 C137 1.282 . S
C140 O141 1.306 . S
C140 O143 1.160 . S
O141 C140 1.306 . S
O141 Cd142 2.228 . S
Cd142 O141 2.228 . S
Cd142 O146 2.273 . S
Cd142 O150 2.277 1_554 S
O143 C140 1.160 . S
O143 Cd144 2.203 . S
Cd144 O143 2.203 . S
Cd144 O146 2.411 . S
Cd144 O147 2.333 1_554 S
Cd144 O148 2.352 . S
Cd144 O152 2.277 1_554 S
Cd144 O153 2.356 . S
C145 O150 1.209 . S
C145 O152 1.226 . S
O146 Cd142 2.273 . S
O146 Cd144 2.411 . S
O146 C149 1.320 1_554 S
O147 Cd144 2.333 1_556 S
O147 C149 1.214 . S
O148 Cd144 2.352 . S
O148 C151 1.258 . S
C149 O146 1.320 1_556 S
C149 O147 1.214 . S
O150 Cd142 2.277 1_556 S
O150 C145 1.209 . S
C151 O148 1.258 . S
C151 O153 1.282 . S
O152 Cd144 2.277 1_556 S
O152 C145 1.226 . S
O153 Cd144 2.356 . S
O153 C151 1.282 . S
C154 O155 1.306 . S
C154 O157 1.160 . S
O155 C154 1.306 . S
O155 Cd156 2.228 . S
Cd156 O155 2.228 . S
Cd156 O160 2.273 . S
Cd156 O164 2.277 . S
O157 C154 1.160 . S
O157 Cd158 2.203 . S
Cd158 O157 2.203 . S
Cd158 O160 2.411 . S
Cd158 O161 2.333 . S
Cd158 O162 2.352 . S
Cd158 O166 2.277 . S
Cd158 O167 2.356 . S
C159 O164 1.209 . S
C159 O166 1.226 . S
O160 Cd156 2.273 . S
O160 Cd158 2.411 . S
O160 C163 1.320 . S
O161 Cd158 2.333 . S
O161 C163 1.214 . S
O162 Cd158 2.352 . S
O162 C165 1.258 . S
C163 O160 1.320 . S
C163 O161 1.214 . S
O164 Cd156 2.277 . S
O164 C159 1.209 . S
C165 O162 1.258 . S
C165 O167 1.282 . S
O166 Cd158 2.277 . S
O166 C159 1.226 . S
O167 Cd158 2.356 . S
O167 C165 1.282 . S
C168 O169 1.306 . S
C168 O171 1.160 . S
O169 C168 1.306 . S
O169 Cd170 2.228 . S
Cd170 O169 2.228 . S
Cd170 O174 2.273 . S
Cd170 O178 2.277 . S
O171 C168 1.160 . S
O171 Cd172 2.203 . S
Cd172 O171 2.203 . S
Cd172 O174 2.411 . S
Cd172 O175 2.333 . S
Cd172 O176 2.352 . S
Cd172 O180 2.277 . S
Cd172 O181 2.356 . S
C173 O178 1.209 . S
C173 O180 1.226 . S
O174 Cd170 2.273 . S
O174 Cd172 2.411 . S
O174 C177 1.320 . S
O175 Cd172 2.333 . S
O175 C177 1.214 . S
O176 Cd172 2.352 . S
O176 C179 1.258 . S
C177 O174 1.320 . S
C177 O175 1.214 . S
O178 Cd170 2.277 . S
O178 C173 1.209 . S
C179 O176 1.258 . S
C179 O181 1.282 . S
O180 Cd172 2.277 . S
O180 C173 1.226 . S
O181 Cd172 2.356 . S
O181 C179 1.282 . S
C182 O183 1.306 . S
C182 O185 1.160 . S
O183 C182 1.306 . S
O183 Cd184 2.228 . S
Cd184 O183 2.228 . S
Cd184 O188 2.273 . S
Cd184 O192 2.277 . S
O185 C182 1.160 . S
O185 Cd186 2.203 . S
Cd186 O185 2.203 . S
Cd186 O188 2.411 . S
Cd186 O189 2.333 . S
Cd186 O190 2.352 . S
Cd186 O194 2.277 . S
Cd186 O195 2.356 . S
C187 O192 1.209 . S
C187 O194 1.226 . S
O188 Cd184 2.273 . S
O188 Cd186 2.411 . S
O188 C191 1.320 . S
O189 Cd186 2.333 . S
O189 C191 1.214 . S
O190 Cd186 2.352 . S
O190 C193 1.258 . S
C191 O188 1.320 . S
C191 O189 1.214 . S
O192 Cd184 2.277 . S
O192 C187 1.209 . S
C193 O190 1.258 . S
C193 O195 1.282 . S
O194 Cd186 2.277 . S
O194 C187 1.226 . S
O195 Cd186 2.356 . S
O195 C193 1.282 . S
C196 O197 1.306 . S
C196 O199 1.160 . S
O197 C196 1.306 . S
O197 Cd198 2.228 1_556 S
Cd198 O197 2.228 1_554 S
Cd198 O202 2.273 . S
Cd198 O206 2.277 . S
O199 C196 1.160 . S
O199 Cd200 2.203 1_556 S
Cd200 O199 2.203 1_554 S
Cd200 O202 2.411 . S
Cd200 O203 2.333 . S
Cd200 O204 2.352 1_554 S
Cd200 O208 2.277 . S
Cd200 O209 2.356 . S
C201 O206 1.209 . S
C201 O208 1.226 . S
O202 Cd198 2.273 . S
O202 Cd200 2.411 . S
O202 C205 1.320 . S
O203 Cd200 2.333 . S
O203 C205 1.214 . S
O204 Cd200 2.352 1_556 S
O204 C207 1.258 . S
C205 O202 1.320 . S
C205 O203 1.214 . S
O206 Cd198 2.277 . S
O206 C201 1.209 . S
C207 O204 1.258 . S
C207 O209 1.282 1_556 S
O208 Cd200 2.277 . S
O208 C201 1.226 . S
O209 Cd200 2.356 . S
O209 C207 1.282 1_554 S
C210 O211 1.306 . S
C210 O213 1.160 . S
O211 C210 1.306 . S
O211 Cd212 2.228 . S
Cd212 O211 2.228 . S
Cd212 O216 2.273 . S
Cd212 O220 2.277 . S
O213 C210 1.160 . S
O213 Cd214 2.203 . S
Cd214 O213 2.203 . S
Cd214 O216 2.411 . S
Cd214 O217 2.333 . S
Cd214 O218 2.352 . S
Cd214 O222 2.277 . S
Cd214 O223 2.356 . S
C215 O220 1.209 . S
C215 O222 1.226 . S
O216 Cd212 2.273 . S
O216 Cd214 2.411 . S
O216 C219 1.320 . S
O217 Cd214 2.333 . S
O217 C219 1.214 . S
O218 Cd214 2.352 . S
O218 C221 1.258 . S
C219 O216 1.320 . S
C219 O217 1.214 . S
O220 Cd212 2.277 . S
O220 C215 1.209 . S
C221 O218 1.258 . S
C221 O223 1.282 . S
O222 Cd214 2.277 . S
O222 C215 1.226 . S
O223 Cd214 2.356 . S
O223 C221 1.282 . S
H224 C236 0.930 . S
H225 C238 0.930 . S
H226 C239 0.930 . S
H227 C243 0.959 . S
H228 C243 0.959 . S
H229 C243 0.961 . S
H230 C244 0.960 . S
H231 C244 0.961 . S
H232 C244 0.959 . S
H233 C247 0.929 . S
H234 C248 0.931 . S
H235 C250 0.930 . S
C236 H224 0.930 . S
C236 C237 1.399 . S
C236 C241 1.399 . S
C237 C236 1.399 . S
C237 C238 1.376 . S
C238 H225 0.930 . S
C238 C237 1.376 . S
C238 C239 1.388 . S
C239 H226 0.930 . S
C239 C238 1.388 . S
C239 C240 1.390 . S
C240 C239 1.390 . S
C240 C241 1.394 . S
C240 C246 1.465 . S
C241 C236 1.399 . S
C241 C240 1.394 . S
C241 C242 1.516 . S
C242 C241 1.516 . S
C242 C243 1.502 . S
C242 C244 1.561 . S
C242 C245 1.526 . S
C243 H227 0.959 . S
C243 H228 0.959 . S
C243 H229 0.961 . S
C243 C242 1.502 . S
C244 H230 0.960 . S
C244 H231 0.961 . S
C244 H232 0.959 . S
C244 C242 1.561 . S
C245 C242 1.526 . S
C245 C246 1.396 . S
C245 C250 1.390 . S
C246 C240 1.465 . S
C246 C245 1.396 . S
C246 C247 1.399 . S
C247 H233 0.929 . S
C247 C246 1.399 . S
C247 C248 1.385 . S
C248 H234 0.931 . S
C248 C247 1.385 . S
C248 C249 1.389 . S
C249 C248 1.389 . S
C249 C250 1.387 . S
C250 H235 0.930 . S
C250 C245 1.390 . S
C250 C249 1.387 . S
H251 C263 0.930 1_565 S
H252 C265 0.930 . S
H253 C266 0.930 1_455 S
H254 C270 0.959 . S
H255 C270 0.959 . S
H256 C270 0.961 . S
H257 C271 0.960 1_655 S
H258 C271 0.961 . S
H259 C271 0.959 . S
H260 C274 0.929 . S
H261 C275 0.931 . S
H262 C277 0.930 . S
C263 H251 0.930 1_545 S
C263 C264 1.399 . S
C263 C268 1.399 . S
C264 C263 1.399 . S
C264 C265 1.376 . S
C265 H252 0.930 . S
C265 C264 1.376 . S
C265 C266 1.388 . S
C266 H253 0.930 1_655 S
C266 C265 1.388 . S
C266 C267 1.390 . S
C267 C266 1.390 . S
C267 C268 1.394 . S
C267 C273 1.465 1_655 S
C268 C263 1.399 . S
C268 C267 1.394 . S
C268 C269 1.516 1_545 S
C269 C268 1.516 1_565 S
C269 C270 1.502 . S
C269 C271 1.561 1_655 S
C269 C272 1.526 1_665 S
C270 H254 0.959 . S
C270 H255 0.959 . S
C270 H256 0.961 . S
C270 C269 1.502 . S
C271 H257 0.960 1_455 S
C271 H258 0.961 . S
C271 H259 0.959 . S
C271 C269 1.561 1_455 S
C272 C269 1.526 1_445 S
C272 C273 1.396 . S
C272 C277 1.390 1_545 S
C273 C267 1.465 1_455 S
C273 C272 1.396 . S
C273 C274 1.399 . S
C274 H260 0.929 . S
C274 C273 1.399 . S
C274 C275 1.385 . S
C275 H261 0.931 . S
C275 C274 1.385 . S
C275 C276 1.389 . S
C276 C275 1.389 . S
C276 C277 1.387 1_545 S
C277 H262 0.930 . S
C277 C272 1.390 1_565 S
C277 C276 1.387 1_565 S
H278 C290 0.930 . S
H279 C292 0.930 . S
H280 C293 0.930 . S
H281 C297 0.959 . S
H282 C297 0.959 . S
H283 C297 0.961 . S
H284 C298 0.960 . S
H285 C298 0.961 . S
H286 C298 0.959 . S
H287 C301 0.929 . S
H288 C302 0.931 . S
H289 C304 0.930 . S
C290 H278 0.930 . S
C290 C291 1.399 . S
C290 C295 1.399 . S
C291 C290 1.399 . S
C291 C292 1.376 . S
C292 H279 0.930 . S
C292 C291 1.376 . S
C292 C293 1.388 . S
C293 H280 0.930 . S
C293 C292 1.388 . S
C293 C294 1.390 . S
C294 C293 1.390 . S
C294 C295 1.394 . S
C294 C300 1.465 . S
C295 C290 1.399 . S
C295 C294 1.394 . S
C295 C296 1.516 . S
C296 C295 1.516 . S
C296 C297 1.502 . S
C296 C298 1.561 . S
C296 C299 1.526 . S
C297 H281 0.959 . S
C297 H282 0.959 . S
C297 H283 0.961 . S
C297 C296 1.502 . S
C298 H284 0.960 . S
C298 H285 0.961 . S
C298 H286 0.959 . S
C298 C296 1.561 . S
C299 C296 1.526 . S
C299 C300 1.396 . S
C299 C304 1.390 . S
C300 C294 1.465 . S
C300 C299 1.396 . S
C300 C301 1.399 . S
C301 H287 0.929 . S
C301 C300 1.399 . S
C301 C302 1.385 . S
C302 H288 0.931 . S
C302 C301 1.385 . S
C302 C303 1.389 . S
C303 C302 1.389 . S
C303 C304 1.387 . S
C304 H289 0.930 . S
C304 C299 1.390 . S
C304 C303 1.387 . S
H305 C317 0.930 . S
H306 C319 0.930 1_565 S
H307 C320 0.930 . S
H308 C324 0.959 . S
H309 C324 0.959 . S
H310 C324 0.961 . S
H311 C325 0.960 1_554 S
H312 C325 0.961 . S
H313 C325 0.959 1_554 S
H314 C328 0.929 . S
H315 C329 0.931 . S
H316 C331 0.930 . S
C317 H305 0.930 . S
C317 C318 1.399 . S
C317 C322 1.399 . S
C318 C317 1.399 . S
C318 C319 1.376 . S
C319 H306 0.930 1_545 S
C319 C318 1.376 . S
C319 C320 1.388 1_545 S
C320 H307 0.930 . S
C320 C319 1.388 1_565 S
C320 C321 1.390 1_565 S
C321 C320 1.390 1_545 S
C321 C322 1.394 . S
C321 C327 1.465 . S
C322 C317 1.399 . S
C322 C321 1.394 . S
C322 C323 1.516 1_554 S
C323 C322 1.516 1_556 S
C323 C324 1.502 . S
C323 C325 1.561 . S
C323 C326 1.526 . S
C324 H308 0.959 . S
C324 H309 0.959 . S
C324 H310 0.961 . S
C324 C323 1.502 . S
C325 H311 0.960 1_556 S
C325 H312 0.961 . S
C325 H313 0.959 1_556 S
C325 C323 1.561 . S
C326 C323 1.526 . S
C326 C327 1.396 1_556 S
C326 C331 1.390 . S
C327 C321 1.465 . S
C327 C326 1.396 1_554 S
C327 C328 1.399 1_545 S
C328 H314 0.929 . S
C328 C327 1.399 1_565 S
C328 C329 1.385 1_554 S
C329 H315 0.931 . S
C329 C328 1.385 1_556 S
C329 C330 1.389 1_565 S
C330 C329 1.389 1_545 S
C330 C331 1.387 . S
C331 H316 0.930 . S
C331 C326 1.390 . S
C331 C330 1.387 . S
H332 C344 0.930 . S
H333 C346 0.930 . S
H334 C347 0.930 . S
H335 C351 0.959 . S
H336 C351 0.959 . S
H337 C351 0.961 . S
H338 C352 0.960 . S
H339 C352 0.961 . S
H340 C352 0.959 . S
H341 C355 0.929 . S
H342 C356 0.931 . S
H343 C358 0.930 . S
C344 H332 0.930 . S
C344 C345 1.399 . S
C344 C349 1.399 . S
C345 C344 1.399 . S
C345 C346 1.376 . S
C346 H333 0.930 . S
C346 C345 1.376 . S
C346 C347 1.388 . S
C347 H334 0.930 . S
C347 C346 1.388 . S
C347 C348 1.390 . S
C348 C347 1.390 . S
C348 C349 1.394 . S
C348 C354 1.465 . S
C349 C344 1.399 . S
C349 C348 1.394 . S
C349 C350 1.516 . S
C350 C349 1.516 . S
C350 C351 1.502 . S
C350 C352 1.561 . S
C350 C353 1.526 . S
C351 H335 0.959 . S
C351 H336 0.959 . S
C351 H337 0.961 . S
C351 C350 1.502 . S
C352 H338 0.960 . S
C352 H339 0.961 . S
C352 H340 0.959 . S
C352 C350 1.561 . S
C353 C350 1.526 . S
C353 C354 1.396 . S
C353 C358 1.390 . S
C354 C348 1.465 . S
C354 C353 1.396 . S
C354 C355 1.399 . S
C355 H341 0.929 . S
C355 C354 1.399 . S
C355 C356 1.385 . S
C356 H342 0.931 . S
C356 C355 1.385 . S
C356 C357 1.389 . S
C357 C356 1.389 . S
C357 C358 1.387 . S
C358 H343 0.930 . S
C358 C353 1.390 . S
C358 C357 1.387 . S
H359 C371 0.930 . S
H360 C373 0.930 . S
H361 C374 0.930 . S
H362 C378 0.959 . S
H363 C378 0.959 . S
H364 C378 0.961 . S
H365 C379 0.960 . S
H366 C379 0.961 . S
H367 C379 0.959 . S
H368 C382 0.929 . S
H369 C383 0.931 . S
H370 C385 0.930 . S
C371 H359 0.930 . S
C371 C372 1.399 . S
C371 C376 1.399 . S
C372 C371 1.399 . S
C372 C373 1.376 1_545 S
C373 H360 0.930 . S
C373 C372 1.376 1_565 S
C373 C374 1.388 . S
C374 H361 0.930 . S
C374 C373 1.388 . S
C374 C375 1.390 1_565 S
C375 C374 1.390 1_545 S
C375 C376 1.394 . S
C375 C381 1.465 . S
C376 C371 1.399 . S
C376 C375 1.394 . S
C376 C377 1.516 . S
C377 C376 1.516 . S
C377 C378 1.502 . S
C377 C379 1.561 . S
C377 C380 1.526 . S
C378 H362 0.959 . S
C378 H363 0.959 . S
C378 H364 0.961 . S
C378 C377 1.502 . S
C379 H365 0.960 . S
C379 H366 0.961 . S
C379 H367 0.959 . S
C379 C377 1.561 . S
C380 C377 1.526 . S
C380 C381 1.396 . S
C380 C385 1.390 . S
C381 C375 1.465 . S
C381 C380 1.396 . S
C381 C382 1.399 1_545 S
C382 H368 0.929 . S
C382 C381 1.399 1_565 S
C382 C383 1.385 . S
C383 H369 0.931 . S
C383 C382 1.385 . S
C383 C384 1.389 1_565 S
C384 C383 1.389 1_545 S
C384 C385 1.387 . S
C385 H370 0.930 . S
C385 C380 1.390 . S
C385 C384 1.387 . S
H386 C398 0.930 . S
H387 C400 0.930 . S
H388 C401 0.930 . S
H389 C405 0.959 . S
H390 C405 0.959 . S
H391 C405 0.961 . S
H392 C406 0.960 . S
H393 C406 0.961 . S
H394 C406 0.959 . S
H395 C409 0.929 . S
H396 C410 0.931 . S
H397 C412 0.930 . S
C398 H386 0.930 . S
C398 C399 1.399 . S
C398 C403 1.399 . S
C399 C398 1.399 . S
C399 C400 1.376 . S
C400 H387 0.930 . S
C400 C399 1.376 . S
C400 C401 1.388 . S
C401 H388 0.930 . S
C401 C400 1.388 . S
C401 C402 1.390 . S
C402 C401 1.390 . S
C402 C403 1.394 . S
C402 C408 1.465 . S
C403 C398 1.399 . S
C403 C402 1.394 . S
C403 C404 1.516 . S
C404 C403 1.516 . S
C404 C405 1.502 . S
C404 C406 1.561 . S
C404 C407 1.526 . S
C405 H389 0.959 . S
C405 H390 0.959 . S
C405 H391 0.961 . S
C405 C404 1.502 . S
C406 H392 0.960 . S
C406 H393 0.961 . S
C406 H394 0.959 . S
C406 C404 1.561 . S
C407 C404 1.526 . S
C407 C408 1.396 . S
C407 C412 1.390 . S
C408 C402 1.465 . S
C408 C407 1.396 . S
C408 C409 1.399 . S
C409 H395 0.929 . S
C409 C408 1.399 . S
C409 C410 1.385 . S
C410 H396 0.931 . S
C410 C409 1.385 . S
C410 C411 1.389 . S
C411 C410 1.389 . S
C411 C412 1.387 . S
C412 H397 0.930 . S
C412 C407 1.390 . S
C412 C411 1.387 . S
H413 C425 0.930 . S
H414 C427 0.930 . S
H415 C428 0.918 1_655 S
H416 C432 0.959 . S
H417 C432 0.959 . S
H418 C432 0.961 . S
H419 C433 0.960 1_455 S
H420 C433 0.961 1_554 S
H421 C433 0.959 . S
H422 C436 0.929 . S
H423 C437 0.931 . S
H424 C439 0.930 . S
C425 H413 0.930 . S
C425 C426 1.399 . S
C425 C430 1.399 . S
C426 C425 1.399 . S
C426 C427 1.376 1_545 S
C427 H414 0.930 . S
C427 C426 1.376 1_565 S
C427 C428 1.388 . S
C428 H415 0.918 1_455 S
C428 C427 1.388 . S
C428 C429 1.390 1_565 S
C429 C428 1.390 1_545 S
C429 C430 1.394 . S
C429 C435 1.465 1_456 S
C430 C425 1.399 . S
C430 C429 1.394 . S
C430 C431 1.516 1_556 S
C431 C430 1.516 1_554 S
C431 C432 1.502 . S
C431 C433 1.561 1_454 S
C431 C434 1.526 1_455 S
C432 H416 0.959 . S
C432 H417 0.959 . S
C432 H418 0.961 . S
C432 C431 1.502 . S
C433 H419 0.960 1_655 S
C433 H420 0.961 1_556 S
C433 H421 0.959 . S
C433 C431 1.561 1_656 S
C434 C431 1.526 1_655 S
C434 C435 1.396 . S
C434 C439 1.390 . S
C435 C429 1.465 1_654 S
C435 C434 1.396 . S
C435 C436 1.399 1_545 S
C436 H422 0.929 . S
C436 C435 1.399 1_565 S
C436 C437 1.385 . S
C437 H423 0.931 . S
C437 C436 1.385 . S
C437 C438 1.389 1_565 S
C438 C437 1.389 1_545 S
C438 C439 1.387 . S
C439 H424 0.930 . S
C439 C434 1.390 . S
C439 C438 1.387 . S
H440 C452 0.930 . S
H441 C454 0.930 . S
H442 C455 0.930 . S
H443 C459 0.959 . S
H444 C459 0.959 . S
H445 C459 0.961 . S
H446 C460 0.960 . S
H447 C460 0.961 . S
H448 C460 0.959 . S
H449 C463 0.929 . S
H450 C464 0.931 . S
H451 C466 0.930 . S
C452 H440 0.930 . S
C452 C453 1.399 . S
C452 C457 1.399 . S
C453 C452 1.399 . S
C453 C454 1.376 . S
C454 H441 0.930 . S
C454 C453 1.376 . S
C454 C455 1.388 . S
C455 H442 0.930 . S
C455 C454 1.388 . S
C455 C456 1.390 . S
C456 C455 1.390 . S
C456 C457 1.394 . S
C456 C462 1.465 . S
C457 C452 1.399 . S
C457 C456 1.394 . S
C457 C458 1.516 . S
C458 C457 1.516 . S
C458 C459 1.502 . S
C458 C460 1.561 . S
C458 C461 1.526 . S
C459 H443 0.959 . S
C459 H444 0.959 . S
C459 H445 0.961 . S
C459 C458 1.502 . S
C460 H446 0.960 . S
C460 H447 0.961 . S
C460 H448 0.959 . S
C460 C458 1.561 . S
C461 C458 1.526 . S
C461 C462 1.396 . S
C461 C466 1.390 . S
C462 C456 1.465 . S
C462 C461 1.396 . S
C462 C463 1.399 . S
C463 H449 0.929 . S
C463 C462 1.399 . S
C463 C464 1.385 . S
C464 H450 0.931 . S
C464 C463 1.385 . S
C464 C465 1.389 . S
C465 C464 1.389 . S
C465 C466 1.387 . S
C466 H451 0.930 . S
C466 C461 1.390 . S
C466 C465 1.387 . S
H467 C479 0.930 . S
H468 C481 0.930 . S
H469 C482 0.930 . S
H470 C486 0.959 . S
H471 C486 0.959 . S
H472 C486 0.961 . S
H473 C487 0.960 . S
H474 C487 0.961 . S
H475 C487 0.959 . S
H476 C490 0.929 . S
H477 C491 0.931 . S
H478 C493 0.930 . S
C479 H467 0.930 . S
C479 C480 1.399 . S
C479 C484 1.399 . S
C480 C479 1.399 . S
C480 C481 1.376 . S
C481 H468 0.930 . S
C481 C480 1.376 . S
C481 C482 1.388 . S
C482 H469 0.930 . S
C482 C481 1.388 . S
C482 C483 1.390 . S
C483 C482 1.390 . S
C483 C484 1.394 . S
C483 C489 1.465 . S
C484 C479 1.399 . S
C484 C483 1.394 . S
C484 C485 1.516 . S
C485 C484 1.516 . S
C485 C486 1.502 . S
C485 C487 1.561 . S
C485 C488 1.526 . S
C486 H470 0.959 . S
C486 H471 0.959 . S
C486 H472 0.961 . S
C486 C485 1.502 . S
C487 H473 0.960 . S
C487 H474 0.961 . S
C487 H475 0.959 . S
C487 C485 1.561 . S
C488 C485 1.526 . S
C488 C489 1.396 . S
C488 C493 1.390 . S
C489 C483 1.465 . S
C489 C488 1.396 . S
C489 C490 1.399 . S
C490 H476 0.929 . S
C490 C489 1.399 . S
C490 C491 1.385 . S
C491 H477 0.931 . S
C491 C490 1.385 . S
C491 C492 1.389 . S
C492 C491 1.389 . S
C492 C493 1.387 . S
C493 H478 0.930 . S
C493 C488 1.390 . S
C493 C492 1.387 . S
H494 C506 0.930 . S
H495 C508 0.930 . S
H496 C509 0.930 . S
H497 C513 0.959 . S
H498 C513 0.959 . S
H499 C513 0.961 . S
H500 C514 0.960 . S
H501 C514 0.961 . S
H502 C514 0.959 . S
H503 C517 0.929 . S
H504 C518 0.931 . S
H505 C520 0.930 . S
C506 H494 0.930 . S
C506 C507 1.399 . S
C506 C511 1.399 . S
C507 C506 1.399 . S
C507 C508 1.376 . S
C508 H495 0.930 . S
C508 C507 1.376 . S
C508 C509 1.388 . S
C509 H496 0.930 . S
C509 C508 1.388 . S
C509 C510 1.390 . S
C510 C509 1.390 . S
C510 C511 1.394 . S
C510 C516 1.465 . S
C511 C506 1.399 . S
C511 C510 1.394 . S
C511 C512 1.516 . S
C512 C511 1.516 . S
C512 C513 1.502 . S
C512 C514 1.561 . S
C512 C515 1.526 . S
C513 H497 0.959 . S
C513 H498 0.959 . S
C513 H499 0.961 . S
C513 C512 1.502 . S
C514 H500 0.960 . S
C514 H501 0.961 . S
C514 H502 0.959 . S
C514 C512 1.561 . S
C515 C512 1.526 . S
C515 C516 1.396 . S
C515 C520 1.390 . S
C516 C510 1.465 . S
C516 C515 1.396 . S
C516 C517 1.399 . S
C517 H503 0.929 . S
C517 C516 1.399 . S
C517 C518 1.385 . S
C518 H504 0.931 . S
C518 C517 1.385 . S
C518 C519 1.389 . S
C519 C518 1.389 . S
C519 C520 1.387 . S
C520 H505 0.930 . S
C520 C515 1.390 . S
C520 C519 1.387 . S
H521 C533 0.930 . S
H522 C535 0.930 . S
H523 C536 0.930 . S
H524 C540 0.959 . S
H525 C540 0.959 . S
H526 C540 0.961 . S
H527 C541 0.960 . S
H528 C541 0.961 . S
H529 C541 0.959 . S
H530 C544 0.929 . S
H531 C545 0.931 . S
H532 C547 0.930 . S
C533 H521 0.930 . S
C533 C534 1.399 . S
C533 C538 1.399 . S
C534 C533 1.399 . S
C534 C535 1.376 . S
C535 H522 0.930 . S
C535 C534 1.376 . S
C535 C536 1.388 . S
C536 H523 0.930 . S
C536 C535 1.388 . S
C536 C537 1.390 . S
C537 C536 1.390 . S
C537 C538 1.394 . S
C537 C543 1.465 . S
C538 C533 1.399 . S
C538 C537 1.394 . S
C538 C539 1.516 . S
C539 C538 1.516 . S
C539 C540 1.502 . S
C539 C541 1.561 . S
C539 C542 1.526 . S
C540 H524 0.959 . S
C540 H525 0.959 . S
C540 H526 0.961 . S
C540 C539 1.502 . S
C541 H527 0.960 . S
C541 H528 0.961 . S
C541 H529 0.959 . S
C541 C539 1.561 . S
C542 C539 1.526 . S
C542 C543 1.396 . S
C542 C547 1.390 . S
C543 C537 1.465 . S
C543 C542 1.396 . S
C543 C544 1.399 . S
C544 H530 0.929 . S
C544 C543 1.399 . S
C544 C545 1.385 . S
C545 H531 0.931 . S
C545 C544 1.385 . S
C545 C546 1.389 . S
C546 C545 1.389 . S
C546 C547 1.387 . S
C547 H532 0.930 . S
C547 C542 1.390 . S
C547 C546 1.387 . S
H548 C560 0.930 . S
H549 C562 0.930 . S
H550 C563 0.930 . S
H551 C567 0.959 . S
H552 C567 0.959 . S
H553 C567 0.961 . S
H554 C568 0.960 . S
H555 C568 0.961 1_556 S
H556 C568 0.959 . S
H557 C571 0.929 1_554 S
H558 C572 0.931 . S
H559 C574 0.930 . S
C560 H548 0.930 . S
C560 C561 1.399 . S
C560 C565 1.399 . S
C561 C560 1.399 . S
C561 C562 1.376 . S
C562 H549 0.930 . S
C562 C561 1.376 . S
C562 C563 1.388 . S
C563 H550 0.930 . S
C563 C562 1.388 . S
C563 C564 1.390 . S
C564 C563 1.390 . S
C564 C565 1.394 . S
C564 C570 1.465 . S
C565 C560 1.399 . S
C565 C564 1.394 . S
C565 C566 1.516 1_554 S
C566 C565 1.516 1_556 S
C566 C567 1.502 . S
C566 C568 1.561 1_556 S
C566 C569 1.526 . S
C567 H551 0.959 . S
C567 H552 0.959 . S
C567 H553 0.961 . S
C567 C566 1.502 . S
C568 H554 0.960 . S
C568 H555 0.961 1_554 S
C568 H556 0.959 . S
C568 C566 1.561 1_554 S
C569 C566 1.526 . S
C569 C570 1.396 1_556 S
C569 C574 1.390 . S
C570 C564 1.465 . S
C570 C569 1.396 1_554 S
C570 C571 1.399 1_554 S
C571 H557 0.929 1_556 S
C571 C570 1.399 1_556 S
C571 C572 1.385 . S
C572 H558 0.931 . S
C572 C571 1.385 . S
C572 C573 1.389 . S
C573 C572 1.389 . S
C573 C574 1.387 . S
C574 H559 0.930 . S
C574 C569 1.390 . S
C574 C573 1.387 . S
H575 C587 0.930 . S
H576 C589 0.930 . S
H577 C590 0.923 1_655 S
H578 C594 0.959 . S
H579 C594 0.959 . S
H580 C594 0.961 . S
H581 C595 0.960 1_455 S
H582 C595 0.961 . S
H583 C595 0.959 . S
H584 C598 0.929 . S
H585 C599 0.931 . S
H586 C601 0.930 . S
C587 H575 0.930 . S
C587 C588 1.399 . S
C587 C592 1.399 . S
C588 C587 1.399 . S
C588 C589 1.376 . S
C589 H576 0.930 . S
C589 C588 1.376 . S
C589 C590 1.388 . S
C590 H577 0.923 1_455 S
C590 C589 1.388 . S
C590 C591 1.390 . S
C591 C590 1.390 . S
C591 C592 1.394 . S
C591 C597 1.465 1_455 S
C592 C587 1.399 . S
C592 C591 1.394 . S
C592 C593 1.516 . S
C593 C592 1.516 . S
C593 C594 1.502 . S
C593 C595 1.561 1_455 S
C593 C596 1.526 1_455 S
C594 H578 0.959 . S
C594 H579 0.959 . S
C594 H580 0.961 . S
C594 C593 1.502 . S
C595 H581 0.960 1_655 S
C595 H582 0.961 . S
C595 H583 0.959 . S
C595 C593 1.561 1_655 S
C596 C593 1.526 1_655 S
C596 C597 1.396 . S
C596 C601 1.390 . S
C597 C591 1.465 1_655 S
C597 C596 1.396 . S
C597 C598 1.399 . S
C598 H584 0.929 . S
C598 C597 1.399 . S
C598 C599 1.385 . S
C599 H585 0.931 . S
C599 C598 1.385 . S
C599 C600 1.389 . S
C600 C599 1.389 . S
C600 C601 1.387 . S
C601 H586 0.930 . S
C601 C596 1.390 . S
C601 C600 1.387 . S
H602 C614 0.930 . S
H603 C616 0.930 . S
H604 C617 0.955 . S
H605 C621 0.959 . S
H606 C621 0.959 . S
H607 C621 0.961 . S
H608 C622 0.960 1_455 S
H609 C622 0.961 1_556 S
H610 C622 0.959 . S
H611 C625 0.929 1_554 S
H612 C626 0.931 . S
H613 C628 0.930 . S
C614 H602 0.930 . S
C614 C615 1.399 . S
C614 C619 1.399 . S
C615 C614 1.399 . S
C615 C616 1.376 . S
C616 H603 0.930 . S
C616 C615 1.376 . S
C616 C617 1.388 . S
C617 H604 0.955 . S
C617 C616 1.388 . S
C617 C618 1.390 . S
C618 C617 1.390 . S
C618 C619 1.394 . S
C618 C624 1.465 1_455 S
C619 C614 1.399 . S
C619 C618 1.394 . S
C619 C620 1.516 1_554 S
C620 C619 1.516 1_556 S
C620 C621 1.502 . S
C620 C622 1.561 1_456 S
C620 C623 1.526 1_455 S
C621 H605 0.959 . S
C621 H606 0.959 . S
C621 H607 0.961 . S
C621 C620 1.502 . S
C622 H608 0.960 1_655 S
C622 H609 0.961 1_554 S
C622 H610 0.959 . S
C622 C620 1.561 1_654 S
C623 C620 1.526 1_655 S
C623 C624 1.396 1_556 S
C623 C628 1.390 . S
C624 C618 1.465 1_655 S
C624 C623 1.396 1_554 S
C624 C625 1.399 1_554 S
C625 H611 0.929 1_556 S
C625 C624 1.399 1_556 S
C625 C626 1.385 . S
C626 H612 0.931 . S
C626 C625 1.385 . S
C626 C627 1.389 . S
C627 C626 1.389 . S
C627 C628 1.387 . S
C628 H613 0.930 . S
C628 C623 1.390 . S
C628 C627 1.387 . S
H629 C641 0.930 . S
H630 C643 0.930 . S
H631 C644 0.930 . S
H632 C648 0.959 . S
H633 C648 0.959 . S
H634 C648 0.961 . S
H635 C649 0.960 . S
H636 C649 0.961 . S
H637 C649 0.959 . S
H638 C652 0.929 . S
H639 C653 0.931 . S
H640 C655 0.930 . S
C641 H629 0.930 . S
C641 C642 1.399 . S
C641 C646 1.399 . S
C642 C641 1.399 . S
C642 C643 1.376 . S
C643 H630 0.930 . S
C643 C642 1.376 . S
C643 C644 1.388 . S
C644 H631 0.930 . S
C644 C643 1.388 . S
C644 C645 1.390 . S
C645 C644 1.390 . S
C645 C646 1.394 . S
C645 C651 1.465 . S
C646 C641 1.399 . S
C646 C645 1.394 . S
C646 C647 1.516 . S
C647 C646 1.516 . S
C647 C648 1.502 . S
C647 C649 1.561 . S
C647 C650 1.526 . S
C648 H632 0.959 . S
C648 H633 0.959 . S
C648 H634 0.961 . S
C648 C647 1.502 . S
C649 H635 0.960 . S
C649 H636 0.961 . S
C649 H637 0.959 . S
C649 C647 1.561 . S
C650 C647 1.526 . S
C650 C651 1.396 . S
C650 C655 1.390 . S
C651 C645 1.465 . S
C651 C650 1.396 . S
C651 C652 1.399 . S
C652 H638 0.929 . S
C652 C651 1.399 . S
C652 C653 1.385 . S
C653 H639 0.931 . S
C653 C652 1.385 . S
C653 C654 1.389 . S
C654 C653 1.389 . S
C654 C655 1.387 . S
C655 H640 0.930 . S
C655 C650 1.390 . S
C655 C654 1.387 . S
H656 C668 0.930 . S
H657 C670 0.930 . S
H658 C671 0.930 . S
H659 C675 0.959 . S
H660 C675 0.959 1_556 S
H661 C675 0.961 . S
H662 C676 0.960 . S
H663 C676 0.961 . S
H664 C676 0.959 . S
H665 C679 0.929 . S
H666 C680 0.931 . S
H667 C682 0.930 . S
C668 H656 0.930 . S
C668 C669 1.399 . S
C668 C673 1.399 . S
C669 C668 1.399 . S
C669 C670 1.376 . S
C670 H657 0.930 . S
C670 C669 1.376 . S
C670 C671 1.388 . S
C671 H658 0.930 . S
C671 C670 1.388 . S
C671 C672 1.390 . S
C672 C671 1.390 . S
C672 C673 1.394 . S
C672 C678 1.465 . S
C673 C668 1.399 . S
C673 C672 1.394 . S
C673 C674 1.516 . S
C674 C673 1.516 . S
C674 C675 1.502 . S
C674 C676 1.561 . S
C674 C677 1.526 . S
C675 H659 0.959 . S
C675 H660 0.959 1_554 S
C675 H661 0.961 . S
C675 C674 1.502 . S
C676 H662 0.960 . S
C676 H663 0.961 . S
C676 H664 0.959 . S
C676 C674 1.561 . S
C677 C674 1.526 . S
C677 C678 1.396 . S
C677 C682 1.390 . S
C678 C672 1.465 . S
C678 C677 1.396 . S
C678 C679 1.399 . S
C679 H665 0.929 . S
C679 C678 1.399 . S
C679 C680 1.385 . S
C680 H666 0.931 . S
C680 C679 1.385 . S
C680 C681 1.389 . S
C681 C680 1.389 . S
C681 C682 1.387 . S
C682 H667 0.930 . S
C682 C677 1.390 . S
C682 C681 1.387 . S
H683 C695 0.930 . S
H684 C697 0.930 . S
H685 C698 0.930 . S
H686 C702 0.959 . S
H687 C702 0.959 . S
H688 C702 0.961 . S
H689 C703 0.960 . S
H690 C703 0.961 . S
H691 C703 0.959 . S
H692 C706 0.929 . S
H693 C707 0.931 . S
H694 C709 0.930 . S
C695 H683 0.930 . S
C695 C696 1.399 . S
C695 C700 1.399 . S
C696 C695 1.399 . S
C696 C697 1.376 . S
C697 H684 0.930 . S
C697 C696 1.376 . S
C697 C698 1.388 . S
C698 H685 0.930 . S
C698 C697 1.388 . S
C698 C699 1.390 . S
C699 C698 1.390 . S
C699 C700 1.394 . S
C699 C705 1.465 . S
C700 C695 1.399 . S
C700 C699 1.394 . S
C700 C701 1.516 . S
C701 C700 1.516 . S
C701 C702 1.502 . S
C701 C703 1.561 . S
C701 C704 1.526 . S
C702 H686 0.959 . S
C702 H687 0.959 . S
C702 H688 0.961 . S
C702 C701 1.502 . S
C703 H689 0.960 . S
C703 H690 0.961 . S
C703 H691 0.959 . S
C703 C701 1.561 . S
C704 C701 1.526 . S
C704 C705 1.396 . S
C704 C709 1.390 . S
C705 C699 1.465 . S
C705 C704 1.396 . S
C705 C706 1.399 . S
C706 H692 0.929 . S
C706 C705 1.399 . S
C706 C707 1.385 . S
C707 H693 0.931 . S
C707 C706 1.385 . S
C707 C708 1.389 . S
C708 C707 1.389 . S
C708 C709 1.387 . S
C709 H694 0.930 . S
C709 C704 1.390 . S
C709 C708 1.387 . S
H710 C722 0.930 . S
H711 C724 0.930 . S
H712 C725 0.930 . S
H713 C729 0.959 . S
H714 C729 0.959 . S
H715 C729 0.961 . S
H716 C730 0.960 . S
H717 C730 0.961 . S
H718 C730 0.959 . S
H719 C733 0.929 . S
H720 C734 0.931 . S
H721 C736 0.930 . S
C722 H710 0.930 . S
C722 C723 1.399 . S
C722 C727 1.399 . S
C723 C722 1.399 . S
C723 C724 1.376 . S
C724 H711 0.930 . S
C724 C723 1.376 . S
C724 C725 1.388 . S
C725 H712 0.930 . S
C725 C724 1.388 . S
C725 C726 1.390 . S
C726 C725 1.390 . S
C726 C727 1.394 . S
C726 C732 1.465 . S
C727 C722 1.399 . S
C727 C726 1.394 . S
C727 C728 1.516 . S
C728 C727 1.516 . S
C728 C729 1.502 . S
C728 C730 1.561 . S
C728 C731 1.526 . S
C729 H713 0.959 . S
C729 H714 0.959 . S
C729 H715 0.961 . S
C729 C728 1.502 . S
C730 H716 0.960 . S
C730 H717 0.961 . S
C730 H718 0.959 . S
C730 C728 1.561 . S
C731 C728 1.526 . S
C731 C732 1.396 . S
C731 C736 1.390 . S
C732 C726 1.465 . S
C732 C731 1.396 . S
C732 C733 1.399 . S
C733 H719 0.929 . S
C733 C732 1.399 . S
C733 C734 1.385 . S
C734 H720 0.931 . S
C734 C733 1.385 . S
C734 C735 1.389 . S
C735 C734 1.389 . S
C735 C736 1.387 . S
C736 H721 0.930 . S
C736 C731 1.390 . S
C736 C735 1.387 . S
H737 C749 0.930 . S
H738 C751 0.930 . S
H739 C752 0.930 . S
H740 C756 0.959 . S
H741 C756 0.959 . S
H742 C756 0.961 . S
H743 C757 0.960 . S
H744 C757 0.961 . S
H745 C757 0.959 . S
H746 C760 0.929 . S
H747 C761 0.931 . S
H748 C763 0.930 . S
C749 H737 0.930 . S
C749 C750 1.399 . S
C749 C754 1.399 . S
C750 C749 1.399 . S
C750 C751 1.376 . S
C751 H738 0.930 . S
C751 C750 1.376 . S
C751 C752 1.388 . S
C752 H739 0.930 . S
C752 C751 1.388 . S
C752 C753 1.390 . S
C753 C752 1.390 . S
C753 C754 1.394 . S
C753 C759 1.465 . S
C754 C749 1.399 . S
C754 C753 1.394 . S
C754 C755 1.516 . S
C755 C754 1.516 . S
C755 C756 1.502 . S
C755 C757 1.561 . S
C755 C758 1.526 . S
C756 H740 0.959 . S
C756 H741 0.959 . S
C756 H742 0.961 . S
C756 C755 1.502 . S
C757 H743 0.960 . S
C757 H744 0.961 . S
C757 H745 0.959 . S
C757 C755 1.561 . S
C758 C755 1.526 . S
C758 C759 1.396 . S
C758 C763 1.390 . S
C759 C753 1.465 . S
C759 C758 1.396 . S
C759 C760 1.399 . S
C760 H746 0.929 . S
C760 C759 1.399 . S
C760 C761 1.385 . S
C761 H747 0.931 . S
C761 C760 1.385 . S
C761 C762 1.389 . S
C762 C761 1.389 . S
C762 C763 1.387 . S
C763 H748 0.930 . S
C763 C758 1.390 . S
C763 C762 1.387 . S
H764 C776 0.930 . S
H765 C778 0.930 . S
H766 C779 0.930 . S
H767 C783 0.959 . S
H768 C783 0.959 . S
H769 C783 0.961 . S
H770 C784 0.960 . S
H771 C784 0.961 . S
H772 C784 0.959 . S
H773 C787 0.929 . S
H774 C788 0.931 . S
H775 C790 0.930 . S
C776 H764 0.930 . S
C776 C777 1.399 . S
C776 C781 1.399 . S
C777 C776 1.399 . S
C777 C778 1.376 . S
C778 H765 0.930 . S
C778 C777 1.376 . S
C778 C779 1.388 . S
C779 H766 0.930 . S
C779 C778 1.388 . S
C779 C780 1.390 . S
C780 C779 1.390 . S
C780 C781 1.394 . S
C780 C786 1.465 . S
C781 C776 1.399 . S
C781 C780 1.394 . S
C781 C782 1.516 . S
C782 C781 1.516 . S
C782 C783 1.502 . S
C782 C784 1.561 . S
C782 C785 1.526 . S
C783 H767 0.959 . S
C783 H768 0.959 . S
C783 H769 0.961 . S
C783 C782 1.502 . S
C784 H770 0.960 . S
C784 H771 0.961 . S
C784 H772 0.959 . S
C784 C782 1.561 . S
C785 C782 1.526 . S
C785 C786 1.396 . S
C785 C790 1.390 . S
C786 C780 1.465 . S
C786 C785 1.396 . S
C786 C787 1.399 . S
C787 H773 0.929 . S
C787 C786 1.399 . S
C787 C788 1.385 . S
C788 H774 0.931 . S
C788 C787 1.385 . S
C788 C789 1.389 . S
C789 C788 1.389 . S
C789 C790 1.387 . S
C790 H775 0.930 . S
C790 C785 1.390 . S
C790 C789 1.387 . S
H791 C803 0.930 . S
H792 C805 0.930 . S
H793 C806 0.930 . S
H794 C810 0.959 . S
H795 C810 0.959 . S
H796 C810 0.961 . S
H797 C811 0.960 . S
H798 C811 0.961 . S
H799 C811 0.959 . S
H800 C814 0.929 . S
H801 C815 0.931 . S
H802 C817 0.930 . S
C803 H791 0.930 . S
C803 C804 1.399 . S
C803 C808 1.399 . S
C804 C803 1.399 . S
C804 C805 1.376 . S
C805 H792 0.930 . S
C805 C804 1.376 . S
C805 C806 1.388 . S
C806 H793 0.930 . S
C806 C805 1.388 . S
C806 C807 1.390 . S
C807 C806 1.390 . S
C807 C808 1.394 . S
C807 C813 1.465 . S
C808 C803 1.399 . S
C808 C807 1.394 . S
C808 C809 1.516 . S
C809 C808 1.516 . S
C809 C810 1.502 . S
C809 C811 1.561 . S
C809 C812 1.526 . S
C810 H794 0.959 . S
C810 H795 0.959 . S
C810 H796 0.961 . S
C810 C809 1.502 . S
C811 H797 0.960 . S
C811 H798 0.961 . S
C811 H799 0.959 . S
C811 C809 1.561 . S
C812 C809 1.526 . S
C812 C813 1.396 . S
C812 C817 1.390 . S
C813 C807 1.465 . S
C813 C812 1.396 . S
C813 C814 1.399 . S
C814 H800 0.929 . S
C814 C813 1.399 . S
C814 C815 1.385 . S
C815 H801 0.931 . S
C815 C814 1.385 . S
C815 C816 1.389 . S
C816 C815 1.389 . S
C816 C817 1.387 . S
C817 H802 0.930 . S
C817 C812 1.390 . S
C817 C816 1.387 . S
H818 C830 0.930 . S
H819 C832 0.930 . S
H820 C833 0.930 . S
H821 C837 0.959 . S
H822 C837 0.959 . S
H823 C837 0.961 . S
H824 C838 0.960 . S
H825 C838 0.961 . S
H826 C838 0.959 . S
H827 C841 0.929 . S
H828 C842 0.931 . S
H829 C844 0.930 . S
C830 H818 0.930 . S
C830 C831 1.399 . S
C830 C835 1.399 . S
C831 C830 1.399 . S
C831 C832 1.376 . S
C832 H819 0.930 . S
C832 C831 1.376 . S
C832 C833 1.388 . S
C833 H820 0.930 . S
C833 C832 1.388 . S
C833 C834 1.390 . S
C834 C833 1.390 . S
C834 C835 1.394 . S
C834 C840 1.465 . S
C835 C830 1.399 . S
C835 C834 1.394 . S
C835 C836 1.516 . S
C836 C835 1.516 . S
C836 C837 1.502 . S
C836 C838 1.561 . S
C836 C839 1.526 . S
C837 H821 0.959 . S
C837 H822 0.959 . S
C837 H823 0.961 . S
C837 C836 1.502 . S
C838 H824 0.960 . S
C838 H825 0.961 . S
C838 H826 0.959 . S
C838 C836 1.561 . S
C839 C836 1.526 . S
C839 C840 1.396 . S
C839 C844 1.390 . S
C840 C834 1.465 . S
C840 C839 1.396 . S
C840 C841 1.399 . S
C841 H827 0.929 . S
C841 C840 1.399 . S
C841 C842 1.385 . S
C842 H828 0.931 . S
C842 C841 1.385 . S
C842 C843 1.389 . S
C843 C842 1.389 . S
C843 C844 1.387 . S
C844 H829 0.930 . S
C844 C839 1.390 . S
C844 C843 1.387 . S
H845 C857 0.930 . S
H846 C859 0.930 . S
H847 C860 0.930 . S
H848 C864 0.959 . S
H849 C864 0.959 . S
H850 C864 0.961 . S
H851 C865 0.960 . S
H852 C865 0.961 . S
H853 C865 0.959 . S
H854 C868 0.929 . S
H855 C869 0.931 . S
H856 C871 0.930 . S
C857 H845 0.930 . S
C857 C858 1.399 . S
C857 C862 1.399 . S
C858 C857 1.399 . S
C858 C859 1.376 . S
C859 H846 0.930 . S
C859 C858 1.376 . S
C859 C860 1.388 . S
C860 H847 0.930 . S
C860 C859 1.388 . S
C860 C861 1.390 . S
C861 C860 1.390 . S
C861 C862 1.394 . S
C861 C867 1.465 . S
C862 C857 1.399 . S
C862 C861 1.394 . S
C862 C863 1.516 . S
C863 C862 1.516 . S
C863 C864 1.502 . S
C863 C865 1.561 . S
C863 C866 1.526 . S
C864 H848 0.959 . S
C864 H849 0.959 . S
C864 H850 0.961 . S
C864 C863 1.502 . S
C865 H851 0.960 . S
C865 H852 0.961 . S
C865 H853 0.959 . S
C865 C863 1.561 . S
C866 C863 1.526 . S
C866 C867 1.396 . S
C866 C871 1.390 . S
C867 C861 1.465 . S
C867 C866 1.396 . S
C867 C868 1.399 . S
C868 H854 0.929 . S
C868 C867 1.399 . S
C868 C869 1.385 . S
C869 H855 0.931 . S
C869 C868 1.385 . S
C869 C870 1.389 . S
C870 C869 1.389 . S
C870 C871 1.387 . S
C871 H856 0.930 . S
C871 C866 1.390 . S
C871 C870 1.387 . S
H872 C884 0.930 . S
H873 C886 0.930 . S
H874 C887 0.930 . S
H875 C891 0.959 . S
H876 C891 0.959 . S
H877 C891 0.961 . S
H878 C892 0.960 . S
H879 C892 0.961 . S
H880 C892 0.959 . S
H881 C895 0.929 . S
H882 C896 0.931 . S
H883 C898 0.930 . S
C884 H872 0.930 . S
C884 C885 1.399 . S
C884 C889 1.399 . S
C885 C884 1.399 . S
C885 C886 1.376 . S
C886 H873 0.930 . S
C886 C885 1.376 . S
C886 C887 1.388 . S
C887 H874 0.930 . S
C887 C886 1.388 . S
C887 C888 1.390 . S
C888 C887 1.390 . S
C888 C889 1.394 . S
C888 C894 1.465 . S
C889 C884 1.399 . S
C889 C888 1.394 . S
C889 C890 1.516 . S
C890 C889 1.516 . S
C890 C891 1.502 . S
C890 C892 1.561 . S
C890 C893 1.526 . S
C891 H875 0.959 . S
C891 H876 0.959 . S
C891 H877 0.961 . S
C891 C890 1.502 . S
C892 H878 0.960 . S
C892 H879 0.961 . S
C892 H880 0.959 . S
C892 C890 1.561 . S
C893 C890 1.526 . S
C893 C894 1.396 . S
C893 C898 1.390 . S
C894 C888 1.465 . S
C894 C893 1.396 . S
C894 C895 1.399 . S
C895 H881 0.929 . S
C895 C894 1.399 . S
C895 C896 1.385 . S
C896 H882 0.931 . S
C896 C895 1.385 . S
C896 C897 1.389 . S
C897 C896 1.389 . S
C897 C898 1.387 . S
C898 H883 0.930 . S
C898 C893 1.390 . S
C898 C897 1.387 . S
H899 C911 0.930 . S
H900 C913 0.930 . S
H901 C914 0.930 . S
H902 C918 0.959 . S
H903 C918 0.959 . S
H904 C918 0.961 . S
H905 C919 0.960 . S
H906 C919 0.961 . S
H907 C919 0.959 . S
H908 C922 0.929 . S
H909 C923 0.931 . S
H910 C925 0.930 . S
C911 H899 0.930 . S
C911 C912 1.399 . S
C911 C916 1.399 . S
C912 C911 1.399 . S
C912 C913 1.376 . S
C913 H900 0.930 . S
C913 C912 1.376 . S
C913 C914 1.388 . S
C914 H901 0.930 . S
C914 C913 1.388 . S
C914 C915 1.390 . S
C915 C914 1.390 . S
C915 C916 1.394 . S
C915 C921 1.465 . S
C916 C911 1.399 . S
C916 C915 1.394 . S
C916 C917 1.516 . S
C917 C916 1.516 . S
C917 C918 1.502 . S
C917 C919 1.561 . S
C917 C920 1.526 . S
C918 H902 0.959 . S
C918 H903 0.959 . S
C918 H904 0.961 . S
C918 C917 1.502 . S
C919 H905 0.960 . S
C919 H906 0.961 . S
C919 H907 0.959 . S
C919 C917 1.561 . S
C920 C917 1.526 . S
C920 C921 1.396 . S
C920 C925 1.390 . S
C921 C915 1.465 . S
C921 C920 1.396 . S
C921 C922 1.399 . S
C922 H908 0.929 . S
C922 C921 1.399 . S
C922 C923 1.385 . S
C923 H909 0.931 . S
C923 C922 1.385 . S
C923 C924 1.389 . S
C924 C923 1.389 . S
C924 C925 1.387 . S
C925 H910 0.930 . S
C925 C920 1.390 . S
C925 C924 1.387 . S
H926 C938 0.930 . S
H927 C940 0.930 . S
H928 C941 0.930 . S
H929 C945 0.959 . S
H930 C945 0.959 . S
H931 C945 0.961 . S
H932 C946 0.960 . S
H933 C946 0.961 . S
H934 C946 0.959 . S
H935 C949 0.929 . S
H936 C950 0.931 . S
H937 C952 0.930 . S
C938 H926 0.930 . S
C938 C939 1.399 . S
C938 C943 1.399 . S
C939 C938 1.399 . S
C939 C940 1.376 . S
C940 H927 0.930 . S
C940 C939 1.376 . S
C940 C941 1.388 . S
C941 H928 0.930 . S
C941 C940 1.388 . S
C941 C942 1.390 . S
C942 C941 1.390 . S
C942 C943 1.394 . S
C942 C948 1.465 . S
C943 C938 1.399 . S
C943 C942 1.394 . S
C943 C944 1.516 . S
C944 C943 1.516 . S
C944 C945 1.502 . S
C944 C946 1.561 . S
C944 C947 1.526 . S
C945 H929 0.959 . S
C945 H930 0.959 . S
C945 H931 0.961 . S
C945 C944 1.502 . S
C946 H932 0.960 . S
C946 H933 0.961 . S
C946 H934 0.959 . S
C946 C944 1.561 . S
C947 C944 1.526 . S
C947 C948 1.396 . S
C947 C952 1.390 . S
C948 C942 1.465 . S
C948 C947 1.396 . S
C948 C949 1.399 . S
C949 H935 0.929 . S
C949 C948 1.399 . S
C949 C950 1.385 . S
C950 H936 0.931 . S
C950 C949 1.385 . S
C950 C951 1.389 . S
C951 C950 1.389 . S
C951 C952 1.387 . S
C952 H937 0.930 . S
C952 C947 1.390 . S
C952 C951 1.387 . S
H953 C965 0.930 . S
H954 C967 0.930 . S
H955 C968 0.930 . S
H956 C972 0.959 . S
H957 C972 0.959 . S
H958 C972 0.961 . S
H959 C973 0.960 . S
H960 C973 0.961 . S
H961 C973 0.959 . S
H962 C976 0.929 . S
H963 C977 0.931 . S
H964 C979 0.930 . S
C965 H953 0.930 . S
C965 C966 1.399 . S
C965 C970 1.399 . S
C966 C965 1.399 . S
C966 C967 1.376 . S
C967 H954 0.930 . S
C967 C966 1.376 . S
C967 C968 1.388 . S
C968 H955 0.930 . S
C968 C967 1.388 . S
C968 C969 1.390 . S
C969 C968 1.390 . S
C969 C970 1.394 . S
C969 C975 1.465 . S
C970 C965 1.399 . S
C970 C969 1.394 . S
C970 C971 1.516 . S
C971 C970 1.516 . S
C971 C972 1.502 . S
C971 C973 1.561 . S
C971 C974 1.526 . S
C972 H956 0.959 . S
C972 H957 0.959 . S
C972 H958 0.961 . S
C972 C971 1.502 . S
C973 H959 0.960 . S
C973 H960 0.961 . S
C973 H961 0.959 . S
C973 C971 1.561 . S
C974 C971 1.526 . S
C974 C975 1.396 . S
C974 C979 1.390 . S
C975 C969 1.465 . S
C975 C974 1.396 . S
C975 C976 1.399 . S
C976 H962 0.929 . S
C976 C975 1.399 . S
C976 C977 1.385 . S
C977 H963 0.931 . S
C977 C976 1.385 . S
C977 C978 1.389 . S
C978 C977 1.389 . S
C978 C979 1.387 . S
C979 H964 0.930 . S
C979 C974 1.390 . S
C979 C978 1.387 . S
H980 C992 0.930 . S
H981 C994 0.930 . S
H982 C995 0.930 . S
H983 C999 0.959 . S
H984 C999 0.959 . S
H985 C999 0.961 . S
H986 C1000 0.960 . S
H987 C1000 0.961 . S
H988 C1000 0.959 . S
H989 C1003 0.929 . S
H990 C1004 0.931 . S
H991 C1006 0.930 . S
C992 H980 0.930 . S
C992 C993 1.399 . S
C992 C997 1.399 . S
C993 C992 1.399 . S
C993 C994 1.376 . S
C994 H981 0.930 . S
C994 C993 1.376 . S
C994 C995 1.388 . S
C995 H982 0.930 . S
C995 C994 1.388 . S
C995 C996 1.390 . S
C996 C995 1.390 . S
C996 C997 1.394 . S
C996 C1002 1.465 . S
C997 C992 1.399 . S
C997 C996 1.394 . S
C997 C998 1.516 . S
C998 C997 1.516 . S
C998 C999 1.502 . S
C998 C1000 1.561 . S
C998 C1001 1.526 . S
C999 H983 0.959 . S
C999 H984 0.959 . S
C999 H985 0.961 . S
C999 C998 1.502 . S
C1000 H986 0.960 . S
C1000 H987 0.961 . S
C1000 H988 0.959 . S
C1000 C998 1.561 . S
C1001 C998 1.526 . S
C1001 C1002 1.396 . S
C1001 C1006 1.390 . S
C1002 C996 1.465 . S
C1002 C1001 1.396 . S
C1002 C1003 1.399 . S
C1003 H989 0.929 . S
C1003 C1002 1.399 . S
C1003 C1004 1.385 . S
C1004 H990 0.931 . S
C1004 C1003 1.385 . S
C1004 C1005 1.389 . S
C1005 C1004 1.389 . S
C1005 C1006 1.387 . S
C1006 H991 0.930 . S
C1006 C1001 1.390 . S
C1006 C1005 1.387 . S
H1007 C1019 0.930 . S
H1008 C1021 0.930 . S
H1009 C1022 0.930 . S
H1010 C1026 0.959 . S
H1011 C1026 0.959 . S
H1012 C1026 0.961 . S
H1013 C1027 0.960 . S
H1014 C1027 0.961 . S
H1015 C1027 0.959 . S
H1016 C1030 0.929 . S
H1017 C1031 0.931 . S
H1018 C1033 0.930 . S
C1019 H1007 0.930 . S
C1019 C1020 1.399 . S
C1019 C1024 1.399 . S
C1020 C1019 1.399 . S
C1020 C1021 1.376 . S
C1021 H1008 0.930 . S
C1021 C1020 1.376 . S
C1021 C1022 1.388 . S
C1022 H1009 0.930 . S
C1022 C1021 1.388 . S
C1022 C1023 1.390 . S
C1023 C1022 1.390 . S
C1023 C1024 1.394 . S
C1023 C1029 1.465 . S
C1024 C1019 1.399 . S
C1024 C1023 1.394 . S
C1024 C1025 1.516 . S
C1025 C1024 1.516 . S
C1025 C1026 1.502 . S
C1025 C1027 1.561 . S
C1025 C1028 1.526 . S
C1026 H1010 0.959 . S
C1026 H1011 0.959 . S
C1026 H1012 0.961 . S
C1026 C1025 1.502 . S
C1027 H1013 0.960 . S
C1027 H1014 0.961 . S
C1027 H1015 0.959 . S
C1027 C1025 1.561 . S
C1028 C1025 1.526 . S
C1028 C1029 1.396 . S
C1028 C1033 1.390 . S
C1029 C1023 1.465 . S
C1029 C1028 1.396 . S
C1029 C1030 1.399 . S
C1030 H1016 0.929 . S
C1030 C1029 1.399 . S
C1030 C1031 1.385 . S
C1031 H1017 0.931 . S
C1031 C1030 1.385 . S
C1031 C1032 1.389 . S
C1032 C1031 1.389 . S
C1032 C1033 1.387 . S
C1033 H1018 0.930 . S
C1033 C1028 1.390 . S
C1033 C1032 1.387 . S
H1034 C1046 0.930 . S
H1035 C1048 0.930 . S
H1036 C1049 0.930 . S
H1037 C1053 0.959 . S
H1038 C1053 0.959 . S
H1039 C1053 0.961 . S
H1040 C1054 0.960 . S
H1041 C1054 0.961 . S
H1042 C1054 0.959 . S
H1043 C1057 0.929 . S
H1044 C1058 0.931 . S
H1045 C1060 0.930 . S
C1046 H1034 0.930 . S
C1046 C1047 1.399 . S
C1046 C1051 1.399 . S
C1047 C1046 1.399 . S
C1047 C1048 1.376 . S
C1048 H1035 0.930 . S
C1048 C1047 1.376 . S
C1048 C1049 1.388 . S
C1049 H1036 0.930 . S
C1049 C1048 1.388 . S
C1049 C1050 1.390 . S
C1050 C1049 1.390 . S
C1050 C1051 1.394 . S
C1050 C1056 1.465 . S
C1051 C1046 1.399 . S
C1051 C1050 1.394 . S
C1051 C1052 1.516 . S
C1052 C1051 1.516 . S
C1052 C1053 1.502 . S
C1052 C1054 1.561 . S
C1052 C1055 1.526 . S
C1053 H1037 0.959 . S
C1053 H1038 0.959 . S
C1053 H1039 0.961 . S
C1053 C1052 1.502 . S
C1054 H1040 0.960 . S
C1054 H1041 0.961 . S
C1054 H1042 0.959 . S
C1054 C1052 1.561 . S
C1055 C1052 1.526 . S
C1055 C1056 1.396 . S
C1055 C1060 1.390 . S
C1056 C1050 1.465 . S
C1056 C1055 1.396 . S
C1056 C1057 1.399 . S
C1057 H1043 0.929 . S
C1057 C1056 1.399 . S
C1057 C1058 1.385 . S
C1058 H1044 0.931 . S
C1058 C1057 1.385 . S
C1058 C1059 1.389 . S
C1059 C1058 1.389 . S
C1059 C1060 1.387 . S
C1060 H1045 0.930 . S
C1060 C1055 1.390 . S
C1060 C1059 1.387 . S
H1061 C1073 0.930 1_554 S
H1062 C1075 0.930 . S
H1063 C1076 0.930 . S
H1064 C1080 0.959 . S
H1065 C1080 0.959 1_554 S
H1066 C1080 0.961 1_554 S
H1067 C1081 0.960 1_554 S
H1068 C1081 0.961 1_554 S
H1069 C1081 0.959 . S
H1070 C1084 0.929 . S
H1071 C1085 0.931 . S
H1072 C1087 0.930 . S
C1073 H1061 0.930 1_556 S
C1073 C1074 1.399 . S
C1073 C1078 1.399 . S
C1074 C1073 1.399 . S
C1074 C1075 1.376 . S
C1075 H1062 0.930 . S
C1075 C1074 1.376 . S
C1075 C1076 1.388 . S
C1076 H1063 0.930 . S
C1076 C1075 1.388 . S
C1076 C1077 1.390 . S
C1077 C1076 1.390 . S
C1077 C1078 1.394 . S
C1077 C1083 1.465 . S
C1078 C1073 1.399 . S
C1078 C1077 1.394 . S
C1078 C1079 1.516 . S
C1079 C1078 1.516 . S
C1079 C1080 1.502 . S
C1079 C1081 1.561 . S
C1079 C1082 1.526 . S
C1080 H1064 0.959 . S
C1080 H1065 0.959 1_556 S
C1080 H1066 0.961 1_556 S
C1080 C1079 1.502 . S
C1081 H1067 0.960 1_556 S
C1081 H1068 0.961 1_556 S
C1081 H1069 0.959 . S
C1081 C1079 1.561 . S
C1082 C1079 1.526 . S
C1082 C1083 1.396 . S
C1082 C1087 1.390 . S
C1083 C1077 1.465 . S
C1083 C1082 1.396 . S
C1083 C1084 1.399 . S
C1084 H1070 0.929 . S
C1084 C1083 1.399 . S
C1084 C1085 1.385 . S
C1085 H1071 0.931 . S
C1085 C1084 1.385 . S
C1085 C1086 1.389 . S
C1086 C1085 1.389 . S
C1086 C1087 1.387 . S
C1087 H1072 0.930 . S
C1087 C1082 1.390 . S
C1087 C1086 1.387 . S
C237 C0 1.424 . S
C249 C168 1.410 . S
C264 C19 1.398 . S
C276 C75 1.385 . S
C291 C28 1.412 . S
C303 C196 1.416 . S
C318 C103 1.387 . S
C330 C47 1.400 . S
C345 C201 1.385 . S
C357 C33 1.397 . S
C372 C98 1.423 . S
C384 C42 1.412 . S
C399 C173 1.391 . S
C411 C5 1.397 . S
C426 C70 1.412 . S
C438 C14 1.416 . S
C453 C56 1.409 . S
C465 C112 1.425 . S
C480 C84 1.405 . S
C492 C140 1.428 . S
C507 C145 1.399 . S
C519 C89 1.384 . S
C534 C61 1.397 . S
C546 C117 1.391 . S
C561 C187 1.386 . S
C573 C131 1.401 . S
C588 C159 1.399 . S
C600 C215 1.385 . S
C615 C154 1.404 . S
C627 C210 1.426 . S
C642 C126 1.404 . S
C654 C182 1.426 . S
C669 C165 1.470 . S
C681 C11 1.479 . S
C696 C121 1.457 . S
C708 C23 1.465 . S
C723 C39 1.471 . S
C735 C137 1.480 . S
C750 C149 1.457 . S
C762 C51 1.455 . S
C777 C163 1.457 . S
C789 C37 1.455 . S
C804 C53 1.478 . S
C816 C123 1.471 . S
C831 C135 1.455 . S
C843 C9 1.461 . S
C858 C151 1.474 . S
C870 C25 1.478 . S
C885 C67 1.478 . S
C897 C221 1.476 . S
C912 C177 1.482 . S
C924 C79 1.483 . S
C939 C95 1.480 . S
C951 C193 1.473 . S
C966 C107 1.478 . S
C978 C205 1.485 . S
C993 C93 1.455 . S
C1005 C219 1.464 . S
C1020 C179 1.471 . S
C1032 C109 1.479 . S
C1047 C191 1.483 . S
C1059 C65 1.482 . S
C1074 C207 1.478 . S
C1086 C81 1.471 . S
