# Generated by pormake.
# Topology wga, (5)-cn, num edge types: 1
# Building blocks:
#     Node 0, Type 0, BuildingBlock: XOMCOT_clean_sbu_1, # of connection points: 5
#     Node 1, Type 0, BuildingBlock: XOMCOT_clean_sbu_1, # of connection points: 5
#     Node 2, Type 0, BuildingBlock: XOMCOT_clean_sbu_1, # of connection points: 5
#     Node 3, Type 0, BuildingBlock: XOMCOT_clean_sbu_1, # of connection points: 5
#     Node 4, Type 0, BuildingBlock: XOMCOT_clean_sbu_1, # of connection points: 5
#     Node 5, Type 0, BuildingBlock: XOMCOT_clean_sbu_1, # of connection points: 5
#     Node 6, Type 0, BuildingBlock: XOMCOT_clean_sbu_1, # of connection points: 5
#     Node 7, Type 0, BuildingBlock: XOMCOT_clean_sbu_1, # of connection points: 5
#     Node 8, Type 0, BuildingBlock: XOMCOT_clean_sbu_1, # of connection points: 5
#     Node 9, Type 0, BuildingBlock: XOMCOT_clean_sbu_1, # of connection points: 5
#     Node 10, Type 0, BuildingBlock: XOMCOT_clean_sbu_1, # of connection points: 5
#     Node 11, Type 0, BuildingBlock: XOMCOT_clean_sbu_1, # of connection points: 5
#     Node 12, Type 0, BuildingBlock: XOMCOT_clean_sbu_1, # of connection points: 5
#     Node 13, Type 0, BuildingBlock: XOMCOT_clean_sbu_1, # of connection points: 5
#     Node 14, Type 0, BuildingBlock: XOMCOT_clean_sbu_1, # of connection points: 5
#     Node 15, Type 0, BuildingBlock: XOMCOT_clean_sbu_1, # of connection points: 5
#     Node 16, Type 0, BuildingBlock: XOMCOT_clean_sbu_1, # of connection points: 5
#     Node 17, Type 0, BuildingBlock: XOMCOT_clean_sbu_1, # of connection points: 5
#     Node 18, Type 0, BuildingBlock: XOMCOT_clean_sbu_1, # of connection points: 5
#     Node 19, Type 0, BuildingBlock: XOMCOT_clean_sbu_1, # of connection points: 5
#     Node 20, Type 0, BuildingBlock: XOMCOT_clean_sbu_1, # of connection points: 5
#     Node 21, Type 0, BuildingBlock: XOMCOT_clean_sbu_1, # of connection points: 5
#     Node 22, Type 0, BuildingBlock: XOMCOT_clean_sbu_1, # of connection points: 5
#     Node 23, Type 0, BuildingBlock: XOMCOT_clean_sbu_1, # of connection points: 5
#     Node 24, Type 0, BuildingBlock: XOMCOT_clean_sbu_1, # of connection points: 5
#     Node 25, Type 0, BuildingBlock: XOMCOT_clean_sbu_1, # of connection points: 5
#     Node 26, Type 0, BuildingBlock: XOMCOT_clean_sbu_1, # of connection points: 5
#     Node 27, Type 0, BuildingBlock: XOMCOT_clean_sbu_1, # of connection points: 5
#     Node 28, Type 0, BuildingBlock: XOMCOT_clean_sbu_1, # of connection points: 5
#     Node 29, Type 0, BuildingBlock: XOMCOT_clean_sbu_1, # of connection points: 5
#     Node 30, Type 0, BuildingBlock: XOMCOT_clean_sbu_1, # of connection points: 5
#     Node 31, Type 0, BuildingBlock: XOMCOT_clean_sbu_1, # of connection points: 5
#     Edge 32, Type (0, 0), BuildingBlock: XIVTED_clean_linker_0, # of connection points: 2
#     Edge 33, Type (0, 0), BuildingBlock: XIVTED_clean_linker_0, # of connection points: 2
#     Edge 34, Type (0, 0), BuildingBlock: XIVTED_clean_linker_0, # of connection points: 2
#     Edge 35, Type (0, 0), BuildingBlock: XIVTED_clean_linker_0, # of connection points: 2
#     Edge 36, Type (0, 0), BuildingBlock: XIVTED_clean_linker_0, # of connection points: 2
#     Edge 37, Type (0, 0), BuildingBlock: XIVTED_clean_linker_0, # of connection points: 2
#     Edge 38, Type (0, 0), BuildingBlock: XIVTED_clean_linker_0, # of connection points: 2
#     Edge 39, Type (0, 0), BuildingBlock: XIVTED_clean_linker_0, # of connection points: 2
#     Edge 40, Type (0, 0), BuildingBlock: XIVTED_clean_linker_0, # of connection points: 2
#     Edge 41, Type (0, 0), BuildingBlock: XIVTED_clean_linker_0, # of connection points: 2
#     Edge 42, Type (0, 0), BuildingBlock: XIVTED_clean_linker_0, # of connection points: 2
#     Edge 43, Type (0, 0), BuildingBlock: XIVTED_clean_linker_0, # of connection points: 2
#     Edge 44, Type (0, 0), BuildingBlock: XIVTED_clean_linker_0, # of connection points: 2
#     Edge 45, Type (0, 0), BuildingBlock: XIVTED_clean_linker_0, # of connection points: 2
#     Edge 46, Type (0, 0), BuildingBlock: XIVTED_clean_linker_0, # of connection points: 2
#     Edge 47, Type (0, 0), BuildingBlock: XIVTED_clean_linker_0, # of connection points: 2
#     Edge 48, Type (0, 0), BuildingBlock: XIVTED_clean_linker_0, # of connection points: 2
#     Edge 49, Type (0, 0), BuildingBlock: XIVTED_clean_linker_0, # of connection points: 2
#     Edge 50, Type (0, 0), BuildingBlock: XIVTED_clean_linker_0, # of connection points: 2
#     Edge 51, Type (0, 0), BuildingBlock: XIVTED_clean_linker_0, # of connection points: 2
#     Edge 52, Type (0, 0), BuildingBlock: XIVTED_clean_linker_0, # of connection points: 2
#     Edge 53, Type (0, 0), BuildingBlock: XIVTED_clean_linker_0, # of connection points: 2
#     Edge 54, Type (0, 0), BuildingBlock: XIVTED_clean_linker_0, # of connection points: 2
#     Edge 55, Type (0, 0), BuildingBlock: XIVTED_clean_linker_0, # of connection points: 2
#     Edge 56, Type (0, 0), BuildingBlock: XIVTED_clean_linker_0, # of connection points: 2
#     Edge 57, Type (0, 0), BuildingBlock: XIVTED_clean_linker_0, # of connection points: 2
#     Edge 58, Type (0, 0), BuildingBlock: XIVTED_clean_linker_0, # of connection points: 2
#     Edge 59, Type (0, 0), BuildingBlock: XIVTED_clean_linker_0, # of connection points: 2
#     Edge 60, Type (0, 0), BuildingBlock: XIVTED_clean_linker_0, # of connection points: 2
#     Edge 61, Type (0, 0), BuildingBlock: XIVTED_clean_linker_0, # of connection points: 2
#     Edge 62, Type (0, 0), BuildingBlock: XIVTED_clean_linker_0, # of connection points: 2
#     Edge 63, Type (0, 0), BuildingBlock: XIVTED_clean_linker_0, # of connection points: 2
#     Edge 64, Type (0, 0), BuildingBlock: XIVTED_clean_linker_0, # of connection points: 2
#     Edge 65, Type (0, 0), BuildingBlock: XIVTED_clean_linker_0, # of connection points: 2
#     Edge 66, Type (0, 0), BuildingBlock: XIVTED_clean_linker_0, # of connection points: 2
#     Edge 67, Type (0, 0), BuildingBlock: XIVTED_clean_linker_0, # of connection points: 2
#     Edge 68, Type (0, 0), BuildingBlock: XIVTED_clean_linker_0, # of connection points: 2
#     Edge 69, Type (0, 0), BuildingBlock: XIVTED_clean_linker_0, # of connection points: 2
#     Edge 70, Type (0, 0), BuildingBlock: XIVTED_clean_linker_0, # of connection points: 2
#     Edge 71, Type (0, 0), BuildingBlock: XIVTED_clean_linker_0, # of connection points: 2
#     Edge 72, Type (0, 0), BuildingBlock: XIVTED_clean_linker_0, # of connection points: 2
#     Edge 73, Type (0, 0), BuildingBlock: XIVTED_clean_linker_0, # of connection points: 2
#     Edge 74, Type (0, 0), BuildingBlock: XIVTED_clean_linker_0, # of connection points: 2
#     Edge 75, Type (0, 0), BuildingBlock: XIVTED_clean_linker_0, # of connection points: 2
#     Edge 76, Type (0, 0), BuildingBlock: XIVTED_clean_linker_0, # of connection points: 2
#     Edge 77, Type (0, 0), BuildingBlock: XIVTED_clean_linker_0, # of connection points: 2
#     Edge 78, Type (0, 0), BuildingBlock: XIVTED_clean_linker_0, # of connection points: 2
#     Edge 79, Type (0, 0), BuildingBlock: XIVTED_clean_linker_0, # of connection points: 2
#     Edge 80, Type (0, 0), BuildingBlock: XIVTED_clean_linker_0, # of connection points: 2
#     Edge 81, Type (0, 0), BuildingBlock: XIVTED_clean_linker_0, # of connection points: 2
#     Edge 82, Type (0, 0), BuildingBlock: XIVTED_clean_linker_0, # of connection points: 2
#     Edge 83, Type (0, 0), BuildingBlock: XIVTED_clean_linker_0, # of connection points: 2
#     Edge 84, Type (0, 0), BuildingBlock: XIVTED_clean_linker_0, # of connection points: 2
#     Edge 85, Type (0, 0), BuildingBlock: XIVTED_clean_linker_0, # of connection points: 2
#     Edge 86, Type (0, 0), BuildingBlock: XIVTED_clean_linker_0, # of connection points: 2
#     Edge 87, Type (0, 0), BuildingBlock: XIVTED_clean_linker_0, # of connection points: 2
#     Edge 88, Type (0, 0), BuildingBlock: XIVTED_clean_linker_0, # of connection points: 2
#     Edge 89, Type (0, 0), BuildingBlock: XIVTED_clean_linker_0, # of connection points: 2
#     Edge 90, Type (0, 0), BuildingBlock: XIVTED_clean_linker_0, # of connection points: 2
#     Edge 91, Type (0, 0), BuildingBlock: XIVTED_clean_linker_0, # of connection points: 2
#     Edge 92, Type (0, 0), BuildingBlock: XIVTED_clean_linker_0, # of connection points: 2
#     Edge 93, Type (0, 0), BuildingBlock: XIVTED_clean_linker_0, # of connection points: 2
#     Edge 94, Type (0, 0), BuildingBlock: XIVTED_clean_linker_0, # of connection points: 2
#     Edge 95, Type (0, 0), BuildingBlock: XIVTED_clean_linker_0, # of connection points: 2
#     Edge 96, Type (0, 0), BuildingBlock: XIVTED_clean_linker_0, # of connection points: 2
#     Edge 97, Type (0, 0), BuildingBlock: XIVTED_clean_linker_0, # of connection points: 2
#     Edge 98, Type (0, 0), BuildingBlock: XIVTED_clean_linker_0, # of connection points: 2
#     Edge 99, Type (0, 0), BuildingBlock: XIVTED_clean_linker_0, # of connection points: 2
#     Edge 100, Type (0, 0), BuildingBlock: XIVTED_clean_linker_0, # of connection points: 2
#     Edge 101, Type (0, 0), BuildingBlock: XIVTED_clean_linker_0, # of connection points: 2
#     Edge 102, Type (0, 0), BuildingBlock: XIVTED_clean_linker_0, # of connection points: 2
#     Edge 103, Type (0, 0), BuildingBlock: XIVTED_clean_linker_0, # of connection points: 2
#     Edge 104, Type (0, 0), BuildingBlock: XIVTED_clean_linker_0, # of connection points: 2
#     Edge 105, Type (0, 0), BuildingBlock: XIVTED_clean_linker_0, # of connection points: 2
#     Edge 106, Type (0, 0), BuildingBlock: XIVTED_clean_linker_0, # of connection points: 2
#     Edge 107, Type (0, 0), BuildingBlock: XIVTED_clean_linker_0, # of connection points: 2
#     Edge 108, Type (0, 0), BuildingBlock: XIVTED_clean_linker_0, # of connection points: 2
#     Edge 109, Type (0, 0), BuildingBlock: XIVTED_clean_linker_0, # of connection points: 2
#     Edge 110, Type (0, 0), BuildingBlock: XIVTED_clean_linker_0, # of connection points: 2
#     Edge 111, Type (0, 0), BuildingBlock: XIVTED_clean_linker_0, # of connection points: 2
# Relax obj value: 0.098
# Max RMSD: 0.109
# Mean RMSD: 0.109
data_MOF--net-wga--node1-XOMCOT_clean_sbu_1--edge1-XIVTED_clean_linker_0
_symmetry_space_group_name_H-M    P1
_symmetry_Int_Tables_number       1
_symmetry_cell_setting            triclinic
loop_
_symmetry_equiv_pos_as_xyz
'x, y, z'
_cell_length_a     109.23599
_cell_length_b     109.21692
_cell_length_c     17.784152
_cell_angle_alpha  90.027702
_cell_angle_beta   89.975755
_cell_angle_gamma 89.991556
loop_
_atom_site_label
_atom_site_type_symbol
_atom_site_fract_x
_atom_site_fract_y
_atom_site_fract_z
_atom_type_partial_charge
C0 C 0.07578 0.57662 0.0673 0.0
C1 C 0.07491 0.57773 0.9905 0.0
N2 N 0.08176 0.56888 0.95833 0.0
N3 N 0.08304 0.56705 0.08391 0.0
C4 C 0.08663 0.56255 0.01658 0.0
H5 H 0.07135 0.58239 0.10859 0.0
Co6 Co 0.08691 0.56211 0.18089 0.0
C7 C 0.0886 0.53516 0.17525 0.0
O8 O 0.0826 0.53484 0.23932 0.0
N9 N 0.0912 0.55742 0.28052 0.0
C10 C 0.10255 0.55013 0.3747 0.0
C11 C 0.10154 0.55122 0.298 0.0
C12 C 0.08629 0.56028 0.34835 0.0
N13 N 0.09297 0.55588 0.40641 0.0
O14 O 0.10348 0.56727 0.16399 0.0
H15 H 0.10811 0.54789 0.2573 0.0
H16 H 0.07816 0.5657 0.35599 0.0
O17 O 0.09093 0.5455 0.14445 0.0
C18 C 0.10696 0.57679 0.19944 0.0
O19 O 0.09943 0.58191 0.24777 0.0
N20 N 0.07021 0.55811 0.19556 0.0
C21 C 0.04466 0.55639 0.20457 0.0
C22 C 0.0514 0.54823 0.15984 0.0
C23 C 0.0641 0.54944 0.15456 0.0
C24 C 0.06373 0.56645 0.23646 0.0
C25 C 0.05101 0.5656 0.24324 0.0
H26 H 0.06884 0.54379 0.1142 0.0
H27 H 0.06838 0.57425 0.26059 0.0
H28 H 0.09284 0.5549 1.01058 0.0
H29 H 0.0695 0.58449 0.96099 0.0
H30 H 0.11003 0.54587 0.40477 0.0
H31 H 0.04689 0.54116 0.12739 0.0
H32 H 0.04616 0.57249 0.27534 0.0
C33 C 0.66917 0.82431 0.32364 0.0
C34 C 0.66805 0.82343 0.24685 0.0
N35 N 0.67687 0.83033 0.21468 0.0
N36 N 0.6787 0.83162 0.34023 0.0
C37 C 0.68318 0.83523 0.27292 0.0
H38 H 0.66344 0.81984 0.36495 0.0
Co39 Co 0.68361 0.83548 0.43725 0.0
C40 C 0.7105 0.83746 0.43209 0.0
O41 O 0.71085 0.83131 0.4956 0.0
N42 N 0.68826 0.83975 0.53698 0.0
C43 C 0.69546 0.85113 0.63136 0.0
C44 C 0.69438 0.85013 0.55467 0.0
C45 C 0.68543 0.8348 0.60471 0.0
N46 N 0.68979 0.84148 0.66288 0.0
O47 O 0.67834 0.85203 0.42055 0.0
H48 H 0.69764 0.85675 0.51412 0.0
H49 H 0.68007 0.82662 0.61219 0.0
O50 O 0.70015 0.83971 0.40115 0.0
C51 C 0.66913 0.85595 0.45736 0.0
O52 O 0.66408 0.84884 0.50829 0.0
N53 N 0.68782 0.81879 0.45126 0.0
C54 C 0.69001 0.79324 0.45803 0.0
C55 C 0.69796 0.80022 0.41343 0.0
C56 C 0.69651 0.8129 0.40924 0.0
C57 C 0.67967 0.81208 0.49225 0.0
C58 C 0.68076 0.79935 0.49788 0.0
H59 H 0.702 0.8178 0.36882 0.0
H60 H 0.67183 0.81653 0.51721 0.0
H61 H 0.6908 0.84147 0.26692 0.0
H62 H 0.66133 0.81798 0.21734 0.0
H63 H 0.69967 0.85863 0.66157 0.0
H64 H 0.70507 0.79591 0.38018 0.0
H65 H 0.67401 0.79431 0.53001 0.0
C66 C 0.41669 0.41793 0.54831 0.0
C67 C 0.41783 0.41677 0.47163 0.0
N68 N 0.41376 0.42715 0.43906 0.0
N69 N 0.41194 0.42898 0.56443 0.0
C70 C 0.4102 0.4344 0.4969 0.0
H71 H 0.41905 0.4111 0.58992 0.0
Co72 Co 0.40858 0.43416 0.66167 0.0
C73 C 0.4078 0.46106 0.6571 0.0
O74 O 0.41416 0.46103 0.71987 0.0
N75 N 0.40477 0.4391 0.76186 0.0
C76 C 0.39363 0.44667 0.8561 0.0
C77 C 0.39444 0.44529 0.7796 0.0
C78 C 0.40996 0.43665 0.82955 0.0
N79 N 0.40339 0.44122 0.8878 0.0
O80 O 0.39179 0.42952 0.64687 0.0
H81 H 0.38774 0.44841 0.73921 0.0
H82 H 0.41825 0.43146 0.83681 0.0
O83 O 0.40497 0.45087 0.62591 0.0
C84 C 0.38794 0.42034 0.68419 0.0
O85 O 0.39525 0.41516 0.73351 0.0
N86 N 0.42542 0.4376 0.67376 0.0
C87 C 0.45106 0.43818 0.67802 0.0
C88 C 0.44448 0.44659 0.63426 0.0
C89 C 0.43171 0.44596 0.63143 0.0
C90 C 0.4317 0.42903 0.71392 0.0
C91 C 0.44447 0.42932 0.71835 0.0
H92 H 0.42703 0.45175 0.59166 0.0
H93 H 0.4268 0.42155 0.73995 0.0
H94 H 0.40644 0.44349 0.49033 0.0
H95 H 0.42117 0.40875 0.44235 0.0
H96 H 0.38615 0.45097 0.88599 0.0
H97 H 0.44917 0.4532 0.59917 0.0
H98 H 0.44912 0.42245 0.75166 0.0
C99 C 0.82983 0.16634 0.7977 0.0
C100 C 0.83145 0.16607 0.72084 0.0
N101 N 0.82145 0.16096 0.68916 0.0
N102 N 0.81887 0.16145 0.81487 0.0
C103 C 0.81402 0.15817 0.74772 0.0
H104 H 0.83611 0.17015 0.8385 0.0
Co105 Co 0.81226 0.16071 0.91197 0.0
C106 C 0.78849 0.14872 0.88084 0.0
O107 O 0.79062 0.14022 0.93139 0.0
N108 N 0.8057 0.16015 1.01037 0.0
C109 C 0.79334 0.16354 0.10769 0.0
C110 C 0.79446 0.16407 0.03082 0.0
C111 C 0.81131 0.15749 0.0764 0.0
N112 N 0.80396 0.15942 0.13673 0.0
O113 O 0.81614 0.14364 0.91516 0.0
H114 H 0.78765 0.16763 0.99253 0.0
H115 H 0.82071 0.15451 0.08045 0.0
O116 O 0.79631 0.15719 0.86974 0.0
C117 C 0.82679 0.14122 0.94019 0.0
O118 O 0.83366 0.15025 0.96475 0.0
N119 N 0.80933 0.17755 0.90874 0.0
C120 C 0.80819 0.20307 0.90557 0.0
C121 C 0.80091 0.19601 0.85697 0.0
C122 C 0.80168 0.18322 0.85905 0.0
C123 C 0.81642 0.18423 0.9565 0.0
C124 C 0.81593 0.19699 0.95626 0.0
H125 H 0.79641 0.17796 0.81917 0.0
H126 H 0.82263 0.17959 0.99434 0.0
H127 H 0.80517 0.15387 0.74172 0.0
H128 H 0.83922 0.16975 0.69072 0.0
H129 H 0.78548 0.16655 0.13977 0.0
H130 H 0.79499 0.20031 0.81597 0.0
H131 H 0.82163 0.20203 0.99527 0.0
C132 C 0.08074 0.41464 0.97824 0.0
C133 C 0.08101 0.41303 0.05509 0.0
N134 N 0.08614 0.42301 0.0868 0.0
N135 N 0.08566 0.42559 0.9611 0.0
C136 C 0.08895 0.43043 0.02826 0.0
H137 H 0.07691 0.40837 0.93744 0.0
Co138 Co 0.08641 0.4322 0.86403 0.0
C139 C 0.0984 0.45599 0.89525 0.0
O140 O 0.1069 0.45388 0.8446 0.0
N141 N 0.08699 0.43877 0.76566 0.0
C142 C 0.08361 0.45113 0.66842 0.0
C143 C 0.08308 0.45001 0.74529 0.0
C144 C 0.08964 0.43315 0.69958 0.0
N145 N 0.08772 0.4405 0.63931 0.0
O146 O 0.10348 0.42828 0.86064 0.0
H147 H 0.07952 0.45683 0.78363 0.0
H148 H 0.0926 0.42374 0.69547 0.0
O149 O 0.08994 0.44815 0.90635 0.0
C150 C 0.10583 0.41763 0.83536 0.0
O151 O 0.09675 0.41079 0.81119 0.0
N152 N 0.06958 0.43516 0.86733 0.0
C153 C 0.04406 0.4365 0.86948 0.0
C154 C 0.05112 0.44374 0.91829 0.0
C155 C 0.0639 0.44287 0.91674 0.0
C156 C 0.0629 0.42808 0.81951 0.0
C157 C 0.05014 0.42867 0.81925 0.0
H158 H 0.06916 0.44814 0.95667 0.0
H159 H 0.06753 0.42182 0.78189 0.0
H160 H 0.09327 0.43927 0.03427 0.0
H161 H 0.0773 0.40526 0.0852 0.0
H162 H 0.08061 0.459 0.63639 0.0
H163 H 0.04682 0.44974 0.95896 0.0
H164 H 0.0451 0.42299 0.78009 0.0
C165 C 0.83235 0.83155 0.25181 0.0
C166 C 0.83397 0.83184 0.32866 0.0
N167 N 0.82397 0.83694 0.36038 0.0
N168 N 0.82138 0.83641 0.2347 0.0
C169 C 0.81654 0.83971 0.30186 0.0
H170 H 0.83864 0.82775 0.21098 0.0
Co171 Co 0.81478 0.83719 0.13764 0.0
C172 C 0.79087 0.8489 0.16894 0.0
O173 O 0.79283 0.85746 0.11847 0.0
N174 N 0.80823 0.8378 0.03921 0.0
C175 C 0.79591 0.83437 0.94185 0.0
C176 C 0.79702 0.83382 0.0187 0.0
C177 C 0.81384 0.84051 0.9732 0.0
N178 N 0.80651 0.83855 0.91286 0.0
O179 O 0.81847 0.85429 0.13523 0.0
H180 H 0.79023 0.83018 0.05691 0.0
H181 H 0.82323 0.84352 0.96916 0.0
O182 O 0.79882 0.84055 0.17985 0.0
C183 C 0.82899 0.85704 0.1096 0.0
O184 O 0.83608 0.84827 0.08387 0.0
N185 N 0.81193 0.82033 0.14025 0.0
C186 C 0.80984 0.79486 0.13827 0.0
C187 C 0.80301 0.80191 0.1893 0.0
C188 C 0.80423 0.81466 0.1897 0.0
C189 C 0.8188 0.81365 0.09125 0.0
C190 C 0.81784 0.80091 0.08893 0.0
H191 H 0.79912 0.8199 0.23051 0.0
H192 H 0.82513 0.81826 0.05401 0.0
H193 H 0.80769 0.84402 0.30787 0.0
H194 H 0.84176 0.82818 0.35876 0.0
H195 H 0.78807 0.83131 0.90973 0.0
H196 H 0.79672 0.79765 0.22843 0.0
H197 H 0.82352 0.79585 0.04983 0.0
C198 C 0.41094 0.58535 0.48981 0.0
C199 C 0.41064 0.58709 0.5666 0.0
N200 N 0.41042 0.57604 0.60029 0.0
N201 N 0.41083 0.57327 0.47468 0.0
C202 C 0.41055 0.56784 0.54318 0.0
H203 H 0.4113 0.59246 0.44758 0.0
Co204 Co 0.41119 0.56648 0.37764 0.0
C205 C 0.39889 0.54272 0.40543 0.0
O206 O 0.39076 0.54489 0.35267 0.0
N207 N 0.41175 0.55977 0.27932 0.0
C208 C 0.41585 0.54704 0.18482 0.0
C209 C 0.41551 0.54835 0.26157 0.0
C210 C 0.41013 0.5653 0.2117 0.0
N211 N 0.41253 0.55774 0.1529 0.0
O212 O 0.39411 0.5701 0.36773 0.0
H213 H 0.41826 0.54147 0.30182 0.0
H214 H 0.4078 0.57484 0.20555 0.0
O215 O 0.40726 0.55055 0.41913 0.0
C216 C 0.39115 0.58027 0.33792 0.0
O217 O 0.39979 0.58744 0.31149 0.0
N218 N 0.42799 0.56369 0.38756 0.0
C219 C 0.45346 0.56226 0.39707 0.0
C220 C 0.44601 0.55431 0.43895 0.0
C221 C 0.43327 0.55521 0.43374 0.0
C222 C 0.43505 0.57148 0.34648 0.0
C223 C 0.4478 0.5709 0.35011 0.0
H224 H 0.42775 0.54923 0.46797 0.0
H225 H 0.43071 0.57824 0.31089 0.0
H226 H 0.41036 0.55805 0.55132 0.0
H227 H 0.41084 0.59583 0.59528 0.0
H228 H 0.41852 0.53881 0.15523 0.0
H229 H 0.44998 0.54765 0.47689 0.0
H230 H 0.45316 0.57714 0.31615 0.0
C231 C 0.66659 0.16878 0.70831 0.0
C232 C 0.66545 0.16995 0.785 0.0
N233 N 0.67558 0.16529 0.8177 0.0
N234 N 0.67738 0.16345 0.69228 0.0
C235 C 0.68266 0.16138 0.75989 0.0
H236 H 0.65992 0.17152 0.66664 0.0
Co237 Co 0.68244 0.1598 0.5951 0.0
C238 C 0.70938 0.15811 0.6004 0.0
O239 O 0.70967 0.16417 0.53656 0.0
N240 N 0.68722 0.15572 0.49513 0.0
C241 C 0.69437 0.14427 0.40105 0.0
C242 C 0.69307 0.14519 0.47758 0.0
C243 C 0.68488 0.16092 0.42734 0.0
N244 N 0.68919 0.15417 0.36915 0.0
O245 O 0.67733 0.14316 0.61071 0.0
H246 H 0.69602 0.13843 0.51813 0.0
H247 H 0.67993 0.16936 0.42 0.0
O248 O 0.69904 0.15576 0.63127 0.0
C249 C 0.66785 0.13966 0.57492 0.0
O250 O 0.66268 0.14723 0.5271 0.0
N251 N 0.68636 0.17653 0.58196 0.0
C252 C 0.68799 0.20211 0.57483 0.0
C253 C 0.69619 0.1953 0.61877 0.0
C254 C 0.69503 0.18259 0.62313 0.0
C255 C 0.67797 0.18305 0.54174 0.0
C256 C 0.67877 0.19579 0.53594 0.0
H257 H 0.70074 0.1778 0.66281 0.0
H258 H 0.67025 0.17839 0.51679 0.0
H259 H 0.69152 0.15711 0.76654 0.0
H260 H 0.65761 0.17369 0.81419 0.0
H261 H 0.69841 0.13663 0.37131 0.0
H262 H 0.70329 0.19977 0.65123 0.0
H263 H 0.67186 0.20068 0.50422 0.0
C264 C 0.91465 0.41521 0.97621 0.0
C265 C 0.91433 0.4136 0.05305 0.0
N266 N 0.90953 0.42375 0.08483 0.0
N267 N 0.91009 0.42632 0.95916 0.0
C268 C 0.90695 0.43126 0.02635 0.0
H269 H 0.91825 0.40882 0.93533 0.0
Co270 Co 0.90947 0.43292 0.86209 0.0
C271 C 0.89794 0.45689 0.89248 0.0
O272 O 0.88943 0.45484 0.84182 0.0
N273 N 0.90904 0.43946 0.76365 0.0
C274 C 0.91271 0.45173 0.66637 0.0
C275 C 0.91323 0.4506 0.74322 0.0
C276 C 0.90624 0.43391 0.69762 0.0
N277 N 0.90834 0.44121 0.63732 0.0
O278 O 0.89233 0.42944 0.85924 0.0
H279 H 0.91696 0.45733 0.78151 0.0
H280 H 0.90305 0.42458 0.69353 0.0
O281 O 0.90629 0.44895 0.90409 0.0
C282 C 0.88946 0.41894 0.83382 0.0
O283 O 0.89814 0.41174 0.80815 0.0
N284 N 0.92637 0.43549 0.86521 0.0
C285 C 0.95191 0.43633 0.86747 0.0
C286 C 0.94498 0.44372 0.91614 0.0
C287 C 0.93219 0.44311 0.91454 0.0
C288 C 0.93292 0.42827 0.81751 0.0
C289 C 0.94569 0.42859 0.81732 0.0
H290 H 0.92703 0.4485 0.95439 0.0
H291 H 0.92817 0.42209 0.77994 0.0
H292 H 0.90291 0.44024 0.03242 0.0
H293 H 0.91778 0.40571 0.08308 0.0
H294 H 0.91591 0.45952 0.63431 0.0
H295 H 0.94939 0.44965 0.95676 0.0
H296 H 0.95063 0.4228 0.77829 0.0
C297 C 0.32649 0.17284 0.74158 0.0
C298 C 0.3275 0.17388 0.81825 0.0
N299 N 0.31901 0.1666 0.85048 0.0
N300 N 0.31734 0.16504 0.7251 0.0
C301 C 0.31298 0.16132 0.79239 0.0
H302 H 0.33206 0.17751 0.70023 0.0
Co303 Co 0.31295 0.16092 0.62775 0.0
C304 C 0.28635 0.15744 0.62664 0.0
O305 O 0.2864 0.16344 0.5626 0.0
N306 N 0.30897 0.15636 0.52757 0.0
C307 C 0.30297 0.14433 0.43313 0.0
C308 C 0.30401 0.14538 0.50976 0.0
C309 C 0.31117 0.16165 0.45998 0.0
N310 N 0.30751 0.15457 0.40184 0.0
O311 O 0.31956 0.14481 0.64274 0.0
H312 H 0.30143 0.13846 0.55025 0.0
H313 H 0.3155 0.17042 0.4525 0.0
O314 O 0.29645 0.1557 0.66189 0.0
C315 C 0.33038 0.14491 0.61588 0.0
O316 O 0.33448 0.15523 0.58731 0.0
N317 N 0.30775 0.17728 0.61375 0.0
C318 C 0.30489 0.20274 0.60867 0.0
C319 C 0.29697 0.19547 0.65186 0.0
C320 C 0.29871 0.1828 0.65494 0.0
C321 C 0.3158 0.18428 0.57403 0.0
C322 C 0.31437 0.19696 0.56916 0.0
H323 H 0.29322 0.17762 0.69405 0.0
H324 H 0.32384 0.1801 0.54968 0.0
H325 H 0.30567 0.15471 0.79846 0.0
H326 H 0.33394 0.17969 0.84762 0.0
H327 H 0.29954 0.13645 0.40276 0.0
H328 H 0.28972 0.19957 0.68491 0.0
H329 H 0.32108 0.20224 0.53816 0.0
C330 C 0.58533 0.5822 0.50601 0.0
C331 C 0.58577 0.58391 0.5827 0.0
N332 N 0.58879 0.57319 0.61553 0.0
N333 N 0.58807 0.57047 0.48995 0.0
C334 C 0.59017 0.56522 0.55774 0.0
H335 H 0.58289 0.58901 0.4645 0.0
Co336 Co 0.58781 0.56389 0.39272 0.0
C337 C 0.59935 0.53981 0.4118 0.0
O338 O 0.60657 0.54218 0.35448 0.0
N339 N 0.58727 0.5574 0.2938 0.0
C340 C 0.58223 0.5453 0.19793 0.0
C341 C 0.582 0.54666 0.27467 0.0
C342 C 0.59047 0.56249 0.227 0.0
N343 N 0.58755 0.55527 0.16756 0.0
O344 O 0.60492 0.56743 0.3837 0.0
H345 H 0.57786 0.54035 0.31402 0.0
H346 H 0.59464 0.5714 0.2217 0.0
O347 O 0.59146 0.54771 0.43288 0.0
C348 C 0.60731 0.57799 0.35718 0.0
O349 O 0.59823 0.58497 0.3348 0.0
N350 N 0.571 0.56142 0.40157 0.0
C351 C 0.5455 0.56104 0.40911 0.0
C352 C 0.55252 0.55284 0.45209 0.0
C353 C 0.56532 0.55323 0.448 0.0
C354 C 0.56435 0.56941 0.35949 0.0
C355 C 0.55161 0.56935 0.36207 0.0
H356 H 0.57061 0.54714 0.48312 0.0
H357 H 0.56904 0.57595 0.32399 0.0
H358 H 0.5926 0.55571 0.56473 0.0
H359 H 0.58364 0.59234 0.61188 0.0
H360 H 0.5783 0.53773 0.16692 0.0
H361 H 0.54818 0.5464 0.48996 0.0
H362 H 0.54659 0.57575 0.32727 0.0
C363 C 0.16683 0.82751 0.19602 0.0
C364 C 0.16568 0.8264 0.27274 0.0
N365 N 0.17583 0.83101 0.3054 0.0
N366 N 0.17765 0.83275 0.17991 0.0
C367 C 0.18293 0.83484 0.24752 0.0
H368 H 0.16013 0.82481 0.15441 0.0
Co369 Co 0.18275 0.83644 0.08284 0.0
C370 C 0.20972 0.83738 0.088 0.0
O371 O 0.20992 0.83136 0.02399 0.0
N372 N 0.18762 0.84057 0.98299 0.0
C373 C 0.19507 0.85191 0.8893 0.0
C374 C 0.19377 0.85093 0.96584 0.0
C375 C 0.18512 0.83551 0.91497 0.0
N376 N 0.1896 0.84219 0.857 0.0
O377 O 0.17817 0.85319 0.10015 0.0
H378 H 0.19694 0.85756 1.00668 0.0
H379 H 0.17994 0.82722 0.90729 0.0
O380 O 0.19943 0.83992 0.1189 0.0
C381 C 0.16898 0.85724 0.06371 0.0
O382 O 0.16373 0.85016 1.01341 0.0
N383 N 0.18612 0.81965 0.06802 0.0
C384 C 0.18686 0.79409 0.05581 0.0
C385 C 0.1954 0.80038 0.10032 0.0
C386 C 0.19469 0.81312 0.10719 0.0
C387 C 0.17738 0.81362 0.02779 0.0
C388 C 0.17773 0.80091 0.01941 0.0
H389 H 0.20064 0.81754 0.14714 0.0
H390 H 0.1698 0.81868 1.00413 0.0
H391 H 0.19181 0.83908 0.2541 0.0
H392 H 0.1578 0.82274 0.30197 0.0
H393 H 0.19933 0.85945 0.85987 0.0
H394 H 0.20222 0.79547 0.13259 0.0
H395 H 0.17077 0.79647 0.98574 0.0
C396 C 0.92148 0.57767 0.05907 0.0
C397 C 0.92233 0.57879 0.98226 0.0
N398 N 0.91543 0.56998 0.95016 0.0
N399 N 0.91416 0.56814 0.07574 0.0
C400 C 0.91054 0.56367 1.00845 0.0
H401 H 0.92595 0.58341 0.10033 0.0
Co402 Co 0.91028 0.56324 0.17274 0.0
C403 C 0.90854 0.53633 0.1678 0.0
O404 O 0.91458 0.53605 0.23169 0.0
N405 N 0.90596 0.55859 0.27245 0.0
C406 C 0.89457 0.55134 0.36664 0.0
C407 C 0.89561 0.55241 0.28995 0.0
C408 C 0.91086 0.56145 0.34027 0.0
N409 N 0.90416 0.55708 0.39833 0.0
O410 O 0.8937 0.56841 0.15563 0.0
H411 H 0.88904 0.54909 0.24926 0.0
H412 H 0.919 0.56686 0.34791 0.0
O413 O 0.90622 0.54664 0.13666 0.0
C414 C 0.88993 0.57771 0.19223 0.0
O415 O 0.89718 0.58277 0.24233 0.0
N416 N 0.92697 0.55918 0.18739 0.0
C417 C 0.9525 0.55714 0.19656 0.0
C418 C 0.94568 0.54912 0.15147 0.0
C419 C 0.933 0.55049 0.14607 0.0
C420 C 0.93353 0.56742 0.22856 0.0
C421 C 0.94624 0.56641 0.23542 0.0
H422 H 0.92822 0.54494 0.10546 0.0
H423 H 0.92897 0.57525 0.2529 0.0
H424 H 0.90428 0.55606 1.00251 0.0
H425 H 0.92778 0.58552 0.9527 0.0
H426 H 0.88708 0.54709 0.39672 0.0
H427 H 0.95011 0.54201 0.11886 0.0
H428 H 0.95117 0.57321 0.26781 0.0
C429 C 0.16468 0.17079 0.80869 0.0
C430 C 0.16294 0.17057 0.73207 0.0
N431 N 0.17081 0.16247 0.70168 0.0
N432 N 0.17383 0.16307 0.82778 0.0
C433 C 0.17701 0.15779 0.76115 0.0
H434 H 0.15941 0.1763 0.84715 0.0
Co435 Co 0.18029 0.15962 0.92594 0.0
C436 C 0.20233 0.16302 0.83036 0.0
O437 O 0.19712 0.17265 0.79961 0.0
N438 N 0.18632 0.15587 0.02267 0.0
C439 C 0.19684 0.14755 0.11662 0.0
C440 C 0.19579 0.14847 0.03967 0.0
C441 C 0.1817 0.15929 0.09036 0.0
N442 N 0.18796 0.15436 0.14893 0.0
O443 O 0.17647 0.1427 0.90909 0.0
H444 H 0.2014 0.14375 0.99883 0.0
H445 H 0.17382 0.16521 0.09628 0.0
O446 O 0.1968 0.15713 0.8826 0.0
C447 C 0.16749 0.13844 0.94668 0.0
O448 O 0.16218 0.14548 0.99697 0.0
N449 N 0.18321 0.1764 0.94583 0.0
C450 C 0.1845 0.20167 0.9702 0.0
C451 C 0.19521 0.19467 0.96139 0.0
C452 C 0.19437 0.18197 0.95178 0.0
C453 C 0.17291 0.18279 0.9637 0.0
C454 C 0.17329 0.19543 0.97475 0.0
H455 H 0.20273 0.17674 0.94868 0.0
H456 H 0.16428 0.17802 0.96886 0.0
H457 H 0.1839 0.15073 0.75623 0.0
H458 H 0.15654 0.17621 0.70113 0.0
H459 H 0.20343 0.14196 0.14621 0.0
H460 H 0.20415 0.19892 0.96024 0.0
H461 H 0.16484 0.20024 0.98657 0.0
C462 C 0.57984 0.41526 0.55162 0.0
C463 C 0.58019 0.41363 0.47482 0.0
N464 N 0.5853 0.42364 0.44327 0.0
N465 N 0.58469 0.42624 0.56885 0.0
C466 C 0.58801 0.43109 0.50183 0.0
H467 H 0.57605 0.40897 0.59237 0.0
Co468 Co 0.58545 0.4327 0.66608 0.0
C469 C 0.59798 0.45616 0.64262 0.0
O470 O 0.60569 0.45334 0.69662 0.0
N471 N 0.58597 0.4391 0.76494 0.0
C472 C 0.58231 0.45132 0.86257 0.0
C473 C 0.58171 0.4502 0.78577 0.0
C474 C 0.58889 0.43354 0.83073 0.0
N475 N 0.58681 0.44082 0.8912 0.0
O476 O 0.60244 0.42846 0.66976 0.0
H477 H 0.57793 0.45693 0.7477 0.0
H478 H 0.59218 0.42424 0.83456 0.0
O479 O 0.58942 0.44874 0.62508 0.0
C480 C 0.60467 0.41774 0.6944 0.0
O481 O 0.59553 0.41099 0.71855 0.0
N482 N 0.5687 0.4359 0.66256 0.0
C483 C 0.54321 0.43749 0.66316 0.0
C484 C 0.55024 0.44521 0.61693 0.0
C485 C 0.56303 0.4442 0.61698 0.0
C486 C 0.56204 0.42836 0.70771 0.0
C487 C 0.54931 0.42904 0.70924 0.0
H488 H 0.56829 0.44991 0.57937 0.0
H489 H 0.5667 0.42169 0.74242 0.0
H490 H 0.59232 0.43994 0.49597 0.0
H491 H 0.57657 0.40583 0.44465 0.0
H492 H 0.57911 0.45908 0.89493 0.0
H493 H 0.54589 0.45172 0.5796 0.0
H494 H 0.5443 0.42299 0.74638 0.0
C495 C 0.33088 0.83194 0.28134 0.0
C496 C 0.33262 0.8322 0.2046 0.0
N497 N 0.32246 0.83679 0.17193 0.0
N498 N 0.31967 0.83633 0.29759 0.0
C499 C 0.31479 0.83928 0.22989 0.0
H500 H 0.33726 0.8285 0.32273 0.0
Co501 Co 0.31297 0.83691 0.39473 0.0
C502 C 0.28907 0.84862 0.3633 0.0
O503 O 0.29105 0.85714 0.41399 0.0
N504 N 0.30631 0.83731 0.49327 0.0
C505 C 0.29381 0.83368 0.5896 0.0
C506 C 0.29509 0.83322 0.51281 0.0
C507 C 0.31175 0.84 0.5599 0.0
N508 N 0.3043 0.83793 0.61964 0.0
O509 O 0.31662 0.85402 0.39863 0.0
H510 H 0.2884 0.82959 0.47392 0.0
H511 H 0.3211 0.84311 0.56484 0.0
O512 O 0.29702 0.84026 0.35224 0.0
C513 C 0.32711 0.8566 0.42532 0.0
O514 O 0.33407 0.84769 0.45049 0.0
N515 N 0.31024 0.82004 0.39078 0.0
C516 C 0.30903 0.79452 0.38794 0.0
C517 C 0.30185 0.80158 0.33884 0.0
C518 C 0.30265 0.81435 0.34076 0.0
C519 C 0.31728 0.81337 0.4388 0.0
C520 C 0.31677 0.80061 0.43871 0.0
H521 H 0.29742 0.81961 0.30065 0.0
H522 H 0.32344 0.81801 0.47693 0.0
H523 H 0.30575 0.84314 0.22308 0.0
H524 H 0.34064 0.82888 0.17524 0.0
H525 H 0.28591 0.83055 0.62094 0.0
H526 H 0.29594 0.79727 0.29772 0.0
H527 H 0.3224 0.79557 0.47806 0.0
C528 C 0.57828 0.07761 0.57303 0.0
C529 C 0.57712 0.07873 0.49633 0.0
N530 N 0.58184 0.06862 0.46362 0.0
N531 N 0.58365 0.06684 0.58906 0.0
C532 C 0.58577 0.06157 0.52143 0.0
H533 H 0.57551 0.08428 0.61469 0.0
Co534 Co 0.58739 0.0618 0.68616 0.0
C535 C 0.58902 0.03486 0.68052 0.0
O536 O 0.58304 0.03453 0.74467 0.0
N537 N 0.59156 0.05702 0.78601 0.0
C538 C 0.60306 0.04989 0.87983 0.0
C539 C 0.6021 0.05118 0.80329 0.0
C540 C 0.58638 0.05934 0.85394 0.0
N541 N 0.59316 0.05505 0.91198 0.0
O542 O 0.604 0.06692 0.66985 0.0
H543 H 0.60884 0.04824 0.76256 0.0
H544 H 0.57793 0.06426 0.8615 0.0
O545 O 0.59134 0.04521 0.64979 0.0
C546 C 0.60734 0.07648 0.70553 0.0
O547 O 0.59967 0.08152 0.75338 0.0
N548 N 0.5707 0.05796 0.70019 0.0
C549 C 0.54512 0.05689 0.70939 0.0
C550 C 0.55166 0.04838 0.66594 0.0
C551 C 0.5644 0.04927 0.66052 0.0
C552 C 0.56443 0.06659 0.74002 0.0
C553 C 0.55171 0.06607 0.74685 0.0
H554 H 0.56902 0.04338 0.62096 0.0
H555 H 0.56931 0.07425 0.76418 0.0
H556 H 0.5901 0.05274 0.51477 0.0
H557 H 0.57336 0.08656 0.46715 0.0
H558 H 0.61072 0.04585 0.90938 0.0
H559 H 0.54692 0.04151 0.63306 0.0
H560 H 0.54707 0.073 0.77981 0.0
C561 C 0.16738 0.32525 0.81696 0.0
C562 C 0.16612 0.32436 0.74025 0.0
N563 N 0.17513 0.3309 0.7073 0.0
N564 N 0.1772 0.33222 0.83296 0.0
C565 C 0.18171 0.3356 0.76517 0.0
H566 H 0.1615 0.32108 0.8586 0.0
Co567 Co 0.18229 0.33613 0.92999 0.0
C568 C 0.20932 0.33707 0.92315 0.0
O569 O 0.2097 0.3312 0.98764 0.0
N570 N 0.18719 0.34044 0.02955 0.0
C571 C 0.19498 0.35161 0.12305 0.0
C572 C 0.19374 0.35058 0.04643 0.0
C573 C 0.1843 0.33566 0.09775 0.0
N574 N 0.189 0.34223 0.15545 0.0
O575 O 0.17778 0.35286 0.91161 0.0
H576 H 0.19723 0.35699 1.00536 0.0
H577 H 0.17867 0.32767 0.10586 0.0
O578 O 0.19895 0.33945 0.89296 0.0
C579 C 0.16864 0.35698 0.94835 0.0
O580 O 0.16341 0.34996 0.99897 0.0
N581 N 0.18559 0.31935 0.94654 0.0
C582 C 0.1859 0.29384 0.96142 0.0
C583 C 0.1948 0.29986 0.91826 0.0
C584 C 0.19427 0.31258 0.9097 0.0
C585 C 0.17663 0.31356 0.98629 0.0
C586 C 0.17671 0.30087 0.99552 0.0
H587 H 0.20046 0.3168 0.87021 0.0
H588 H 0.16902 0.31879 1.00824 0.0
H589 H 0.18952 0.34158 0.75857 0.0
H590 H 0.15913 0.31917 0.71135 0.0
H591 H 0.19955 0.35897 0.15263 0.0
H592 H 0.20171 0.29471 0.88806 0.0
H593 H 0.16947 0.29658 0.02774 0.0
C594 C 0.91609 0.91622 0.04909 0.0
C595 C 0.91583 0.9146 0.97223 0.0
N596 N 0.91059 0.92454 0.94059 0.0
N597 N 0.91108 0.92713 0.0663 0.0
C598 C 0.90771 0.93193 0.99918 0.0
H599 H 0.92 0.91 0.08985 0.0
Co600 Co 0.91027 0.93375 0.16336 0.0
C601 C 0.89822 0.95749 0.13171 0.0
O602 O 0.88969 0.95542 0.18226 0.0
N603 N 0.90964 0.94033 0.26177 0.0
C604 C 0.91291 0.95272 0.3591 0.0
C605 C 0.91345 0.95161 0.28222 0.0
C606 C 0.90705 0.93469 0.32783 0.0
N607 N 0.90891 0.94205 0.38816 0.0
O608 O 0.89323 0.92987 0.16629 0.0
H609 H 0.91694 0.95846 0.24393 0.0
H610 H 0.90419 0.92525 0.33189 0.0
O611 O 0.9067 0.94966 0.12104 0.0
C612 C 0.89062 0.91932 0.19199 0.0
O613 O 0.89947 0.91232 0.21745 0.0
N614 N 0.92711 0.9368 0.1602 0.0
C615 C 0.95257 0.93885 0.15914 0.0
C616 C 0.94538 0.94562 0.10862 0.0
C617 C 0.93264 0.94442 0.10977 0.0
C618 C 0.93391 0.93005 0.2091 0.0
C619 C 0.94665 0.93099 0.20992 0.0
H620 H 0.9273 0.94944 0.0691 0.0
H621 H 0.92941 0.92377 0.24714 0.0
H622 H 0.90329 0.94072 0.99323 0.0
H623 H 0.91961 0.90687 0.94206 0.0
H624 H 0.91584 0.96061 0.39117 0.0
H625 H 0.94955 0.9518 0.06847 0.0
H626 H 0.95182 0.92537 0.24876 0.0
C627 C 0.3305 0.66562 0.2704 0.0
C628 C 0.33211 0.66534 0.19353 0.0
N629 N 0.3221 0.66026 0.16186 0.0
N630 N 0.31953 0.66076 0.28757 0.0
C631 C 0.31467 0.65749 0.22042 0.0
H632 H 0.3368 0.66939 0.3112 0.0
Co633 Co 0.31292 0.65995 0.38464 0.0
C634 C 0.28894 0.64846 0.35233 0.0
O635 O 0.2909 0.63977 0.40191 0.0
N636 N 0.30634 0.65931 0.48309 0.0
C637 C 0.29401 0.66274 0.58052 0.0
C638 C 0.29513 0.6633 0.50366 0.0
C639 C 0.31195 0.65659 0.54908 0.0
N640 N 0.30461 0.65855 0.60946 0.0
O641 O 0.3165 0.64282 0.38648 0.0
H642 H 0.28835 0.66696 0.46551 0.0
H643 H 0.32134 0.65358 0.55311 0.0
O644 O 0.29691 0.65682 0.3422 0.0
C645 C 0.32706 0.64023 0.41203 0.0
O646 O 0.33403 0.64911 0.43746 0.0
N647 N 0.31029 0.67684 0.38278 0.0
C648 C 0.30941 0.70237 0.38288 0.0
C649 C 0.30205 0.69556 0.33347 0.0
C650 C 0.30269 0.68276 0.3339 0.0
C651 C 0.31748 0.68328 0.43113 0.0
C652 C 0.31713 0.69604 0.43252 0.0
H653 H 0.29733 0.67769 0.29352 0.0
H654 H 0.32366 0.67845 0.4683 0.0
H655 H 0.30581 0.65321 0.21446 0.0
H656 H 0.3399 0.66899 0.1634 0.0
H657 H 0.28618 0.66581 0.61267 0.0
H658 H 0.29614 0.70006 0.29321 0.0
H659 H 0.3229 0.7009 0.47208 0.0
C660 C 0.58068 0.91341 0.49067 0.0
C661 C 0.58095 0.9118 0.56753 0.0
N662 N 0.58609 0.92179 0.5992 0.0
N663 N 0.58559 0.92436 0.4735 0.0
C664 C 0.58889 0.9292 0.54065 0.0
H665 H 0.57685 0.90714 0.44988 0.0
Co666 Co 0.58638 0.93097 0.37644 0.0
C667 C 0.59812 0.95485 0.40841 0.0
O668 O 0.60673 0.95283 0.35827 0.0
N669 N 0.58699 0.93754 0.27807 0.0
C670 C 0.58361 0.94988 0.18076 0.0
C671 C 0.58306 0.94877 0.25762 0.0
C672 C 0.58968 0.93192 0.21204 0.0
N673 N 0.58775 0.93927 0.15171 0.0
O674 O 0.60347 0.92723 0.37382 0.0
H675 H 0.57946 0.95558 0.29588 0.0
H676 H 0.59266 0.92252 0.20799 0.0
O677 O 0.58971 0.94695 0.4189 0.0
C678 C 0.606 0.91661 0.34878 0.0
O679 O 0.59707 0.90966 0.32383 0.0
N680 N 0.56951 0.93377 0.37907 0.0
C681 C 0.54399 0.93484 0.38058 0.0
C682 C 0.55094 0.94215 0.42954 0.0
C683 C 0.56372 0.94142 0.42831 0.0
C684 C 0.56295 0.92662 0.33107 0.0
C685 C 0.55019 0.92706 0.33049 0.0
H686 H 0.5689 0.94674 0.46841 0.0
H687 H 0.56767 0.92041 0.2936 0.0
H688 H 0.59323 0.93804 0.54663 0.0
H689 H 0.57725 0.90403 0.59765 0.0
H690 H 0.58059 0.95774 0.14868 0.0
H691 H 0.54654 0.9481 0.47011 0.0
H692 H 0.54523 0.92133 0.29125 0.0
C693 C 0.33068 0.33113 0.73279 0.0
C694 C 0.33243 0.33136 0.80953 0.0
N695 N 0.32252 0.33648 0.84217 0.0
N696 N 0.3197 0.33607 0.7165 0.0
C697 C 0.31499 0.33933 0.78419 0.0
H698 H 0.33688 0.32735 0.69143 0.0
Co699 Co 0.31302 0.337 0.6194 0.0
C700 C 0.28916 0.34885 0.65325 0.0
O701 O 0.291 0.35754 0.60344 0.0
N702 N 0.30637 0.33775 0.52095 0.0
C703 C 0.29381 0.3346 0.42435 0.0
C704 C 0.29504 0.33403 0.50113 0.0
C705 C 0.31193 0.34032 0.45447 0.0
N706 N 0.30444 0.33854 0.39457 0.0
O707 O 0.31692 0.35407 0.61706 0.0
H708 H 0.28823 0.33055 0.53974 0.0
H709 H 0.32138 0.34311 0.44977 0.0
O710 O 0.29715 0.34048 0.66256 0.0
C711 C 0.32747 0.35656 0.59085 0.0
O712 O 0.33433 0.34759 0.56532 0.0
N713 N 0.30998 0.32016 0.62152 0.0
C714 C 0.3074 0.29474 0.61691 0.0
C715 C 0.30063 0.3018 0.66823 0.0
C716 C 0.30211 0.31451 0.67001 0.0
C717 C 0.31681 0.31347 0.57237 0.0
C718 C 0.31563 0.30076 0.56881 0.0
H719 H 0.29702 0.31974 0.71096 0.0
H720 H 0.32327 0.31806 0.53584 0.0
H721 H 0.30617 0.34368 0.79095 0.0
H722 H 0.34027 0.32765 0.83891 0.0
H723 H 0.28584 0.33173 0.39281 0.0
H724 H 0.29417 0.29757 0.70643 0.0
H725 H 0.32128 0.2957 0.52959 0.0
C726 C 0.9179 0.07991 0.96611 0.0
C727 C 0.91902 0.08104 0.04282 0.0
N728 N 0.91409 0.07105 0.07554 0.0
N729 N 0.91232 0.06924 0.95006 0.0
C730 C 0.91006 0.06405 0.0177 0.0
H731 H 0.92082 0.0865 0.92445 0.0
Co732 Co 0.90852 0.06424 0.85299 0.0
C733 C 0.90684 0.0373 0.85818 0.0
O734 O 0.91279 0.03695 0.79393 0.0
N735 N 0.90429 0.05948 0.75315 0.0
C736 C 0.89275 0.05235 0.65946 0.0
C737 C 0.89376 0.0536 0.73599 0.0
C738 C 0.90939 0.06188 0.68513 0.0
N739 N 0.90259 0.05757 0.62716 0.0
O740 O 0.8919 0.06926 0.87015 0.0
H741 H 0.88706 0.0506 0.77682 0.0
H742 H 0.9178 0.06685 0.67747 0.0
O743 O 0.90458 0.04765 0.88912 0.0
C744 C 0.88793 0.07847 0.83363 0.0
O745 O 0.89502 0.0836 0.78291 0.0
N746 N 0.92524 0.06035 0.83851 0.0
C747 C 0.95076 0.0585 0.82765 0.0
C748 C 0.94406 0.05036 0.87266 0.0
C749 C 0.93137 0.05163 0.87883 0.0
C750 C 0.93168 0.06872 0.79773 0.0
C751 C 0.94439 0.06781 0.79 0.0
H752 H 0.92667 0.04593 0.91901 0.0
H753 H 0.92699 0.07649 0.77353 0.0
H754 H 0.90554 0.05531 0.02432 0.0
H755 H 0.92292 0.08881 0.07199 0.0
H756 H 0.88509 0.04828 0.63003 0.0
H757 H 0.94859 0.04321 0.90435 0.0
H758 H 0.94921 0.07467 0.75758 0.0
C759 C 0.16684 0.67031 0.19051 0.0
C760 C 0.16557 0.67116 0.26723 0.0
N761 N 0.17455 0.66457 0.30009 0.0
N762 N 0.17664 0.6633 0.17447 0.0
C763 C 0.18112 0.65987 0.2422 0.0
H764 H 0.16101 0.67455 0.14887 0.0
Co765 Co 0.18177 0.65952 0.07739 0.0
C766 C 0.20874 0.65866 0.08425 0.0
O767 O 0.20901 0.66471 0.02036 0.0
N768 N 0.1867 0.6553 0.97769 0.0
C769 C 0.19453 0.64411 0.8843 0.0
C770 C 0.19327 0.64517 0.9609 0.0
C771 C 0.18379 0.66004 0.90941 0.0
N772 N 0.18852 0.65346 0.8518 0.0
O773 O 0.17711 0.64281 0.09454 0.0
H774 H 0.19675 0.63876 1.00202 0.0
H775 H 0.17813 0.66799 0.9011 0.0
O776 O 0.19842 0.65604 0.11439 0.0
C777 C 0.16775 0.63901 0.05878 0.0
O778 O 0.16247 0.64633 1.00996 0.0
N779 N 0.18524 0.67631 0.06231 0.0
C780 C 0.18604 0.70189 0.05094 0.0
C781 C 0.19442 0.69556 0.09639 0.0
C782 C 0.19367 0.68283 0.10282 0.0
C783 C 0.17669 0.68238 0.02082 0.0
C784 C 0.17708 0.69509 1.01289 0.0
H785 H 0.19944 0.67838 0.1437 0.0
H786 H 0.16912 0.67737 0.99665 0.0
H787 H 0.18892 0.65388 0.24872 0.0
H788 H 0.1586 0.67639 0.29621 0.0
H789 H 0.19911 0.63674 0.85482 0.0
H790 H 0.2011 0.70046 0.12988 0.0
H791 H 0.17022 0.69956 0.97858 0.0
C792 C 0.41456 0.9144 0.48937 0.0
C793 C 0.41425 0.91279 0.56622 0.0
N794 N 0.40944 0.92293 0.59802 0.0
N795 N 0.40999 0.92551 0.47234 0.0
C796 C 0.40686 0.93045 0.53956 0.0
H797 H 0.41818 0.90803 0.44849 0.0
Co798 Co 0.40943 0.93214 0.37531 0.0
C799 C 0.39787 0.95613 0.40571 0.0
O800 O 0.38943 0.95415 0.35455 0.0
N801 N 0.40906 0.93871 0.27689 0.0
C802 C 0.41278 0.95098 0.17969 0.0
C803 C 0.41326 0.94985 0.25656 0.0
C804 C 0.40629 0.93316 0.21079 0.0
N805 N 0.40842 0.94046 0.15053 0.0
O806 O 0.3923 0.92859 0.37165 0.0
H807 H 0.41696 0.95658 0.29495 0.0
H808 H 0.40309 0.92383 0.20662 0.0
O809 O 0.40617 0.94815 0.41747 0.0
C810 C 0.38965 0.91806 0.34576 0.0
O811 O 0.39851 0.91096 0.32134 0.0
N812 N 0.42632 0.93477 0.379 0.0
C813 C 0.45184 0.93578 0.38133 0.0
C814 C 0.44486 0.9431 0.43017 0.0
C815 C 0.43207 0.9424 0.42852 0.0
C816 C 0.43292 0.9276 0.33127 0.0
C817 C 0.44568 0.92801 0.3311 0.0
H818 H 0.42687 0.94774 0.4684 0.0
H819 H 0.42822 0.92141 0.29355 0.0
H820 H 0.40282 0.93942 0.54567 0.0
H821 H 0.41771 0.90491 0.59624 0.0
H822 H 0.41599 0.95877 0.1477 0.0
H823 H 0.44923 0.94904 0.47086 0.0
H824 H 0.45066 0.92228 0.29195 0.0
C825 C 0.83383 0.66246 0.22701 0.0
C826 C 0.83548 0.66237 0.30391 0.0
N827 N 0.82446 0.66098 0.337 0.0
N828 N 0.82185 0.66107 0.21137 0.0
C829 C 0.81638 0.6602 0.27957 0.0
H830 H 0.84092 0.66356 0.18507 0.0
Co831 Co 0.81511 0.66064 0.11443 0.0
C832 C 0.79192 0.64758 0.14704 0.0
O833 O 0.79466 0.63891 0.09863 0.0
N834 N 0.80842 0.66038 0.01626 0.0
C835 C 0.79561 0.66331 0.92075 0.0
C836 C 0.79679 0.66324 0.99758 0.0
C837 C 0.81418 0.65902 0.94917 0.0
N838 N 0.80658 0.66073 0.88978 0.0
O839 O 0.81934 0.64365 0.10814 0.0
H840 H 0.78966 0.66563 0.03709 0.0
H841 H 0.82389 0.65743 0.94386 0.0
O842 O 0.79925 0.65654 0.15679 0.0
C843 C 0.82972 0.64116 0.07946 0.0
O844 O 0.83645 0.65011 0.05263 0.0
N845 N 0.81184 0.67739 0.12036 0.0
C846 C 0.80958 0.70283 0.12242 0.0
C847 C 0.80234 0.6955 0.16964 0.0
C848 C 0.80362 0.68277 0.16791 0.0
C849 C 0.81905 0.68434 0.07487 0.0
C850 C 0.81803 0.69707 0.07457 0.0
H851 H 0.79814 0.67731 0.2056 0.0
H852 H 0.82573 0.67994 0.03894 0.0
H853 H 0.80666 0.65893 0.28734 0.0
H854 H 0.8441 0.6635 0.33308 0.0
H855 H 0.78727 0.66534 0.89047 0.0
H856 H 0.7957 0.69956 0.20742 0.0
H857 H 0.82399 0.70235 0.03835 0.0
C858 C 0.07449 0.0772 0.95332 0.0
C859 C 0.07356 0.07848 0.02999 0.0
N860 N 0.08016 0.06953 0.06308 0.0
N861 N 0.08156 0.06744 0.93755 0.0
C862 C 0.08495 0.06298 1.00538 0.0
H863 H 0.07023 0.08298 0.91148 0.0
Co864 Co 0.08529 0.06233 0.84045 0.0
C865 C 0.08689 0.03539 0.84735 0.0
O866 O 0.08069 0.03502 0.78402 0.0
N867 N 0.08944 0.05747 0.74064 0.0
C868 C 0.1007 0.04989 0.64678 0.0
C869 C 0.09972 0.05115 0.72338 0.0
C870 C 0.08453 0.06023 0.67261 0.0
N871 N 0.09115 0.05564 0.61473 0.0
O872 O 0.10192 0.06743 0.85615 0.0
H873 H 0.10628 0.04786 0.76417 0.0
H874 H 0.07644 0.06571 0.66471 0.0
O875 O 0.08932 0.04577 0.87748 0.0
C876 C 0.10546 0.07688 0.82023 0.0
O877 O 0.09793 0.08205 0.77221 0.0
N878 N 0.06855 0.05835 0.82696 0.0
C879 C 0.04295 0.05678 0.82076 0.0
C880 C 0.04977 0.04869 0.86548 0.0
C881 C 0.06249 0.04983 0.86934 0.0
C882 C 0.06202 0.06659 0.78565 0.0
C883 C 0.04927 0.06581 0.78034 0.0
H884 H 0.06729 0.04427 0.9098 0.0
H885 H 0.06665 0.07429 0.76021 0.0
H886 H 0.09095 0.05518 1.01213 0.0
H887 H 0.06825 0.08541 0.05876 0.0
H888 H 0.10814 0.0455 0.61694 0.0
H889 H 0.04531 0.04174 0.89911 0.0
H890 H 0.04438 0.07265 0.74806 0.0
C891 C 0.66641 0.32737 0.71087 0.0
C892 C 0.66539 0.32633 0.78769 0.0
N893 N 0.67546 0.33125 0.81953 0.0
N894 N 0.67707 0.33288 0.69405 0.0
C895 C 0.68238 0.33519 0.76119 0.0
H896 H 0.65974 0.32444 0.66969 0.0
Co897 Co 0.68199 0.33661 0.59703 0.0
C898 C 0.70894 0.33835 0.60108 0.0
O899 O 0.70922 0.33231 0.53714 0.0
N900 N 0.68666 0.34077 0.49725 0.0
C901 C 0.69362 0.3522 0.40266 0.0
C902 C 0.69246 0.3513 0.4793 0.0
C903 C 0.68423 0.33554 0.42974 0.0
N904 N 0.68841 0.34227 0.37125 0.0
O905 O 0.67693 0.35324 0.61385 0.0
H906 H 0.69546 0.35808 0.51963 0.0
H907 H 0.6793 0.32708 0.42282 0.0
O908 O 0.69862 0.34062 0.63242 0.0
C909 C 0.66763 0.35706 0.57758 0.0
O910 O 0.66251 0.34985 0.5275 0.0
N911 N 0.68588 0.31989 0.58294 0.0
C912 C 0.68754 0.29433 0.57366 0.0
C913 C 0.69584 0.30106 0.61737 0.0
C914 C 0.69467 0.31377 0.6228 0.0
C915 C 0.67737 0.31342 0.54336 0.0
C916 C 0.67818 0.3007 0.53641 0.0
H917 H 0.70048 0.3185 0.66219 0.0
H918 H 0.66957 0.31812 0.51958 0.0
H919 H 0.69115 0.33967 0.76711 0.0
H920 H 0.65765 0.3225 0.81753 0.0
H921 H 0.69759 0.35984 0.37256 0.0
H922 H 0.70303 0.29654 0.64872 0.0
H923 H 0.6712 0.29586 0.50502 0.0
C924 C 0.4238 0.07618 0.55463 0.0
C925 C 0.42496 0.07678 0.47781 0.0
N926 N 0.41784 0.06804 0.44689 0.0
N927 N 0.41603 0.06707 0.57253 0.0
C928 C 0.41248 0.0623 0.50585 0.0
H929 H 0.42819 0.08214 0.59499 0.0
Co930 Co 0.41121 0.06326 0.67007 0.0
C931 C 0.40743 0.03654 0.67204 0.0
O932 O 0.41263 0.03626 0.73863 0.0
N933 N 0.406 0.05975 0.76949 0.0
C934 C 0.39338 0.05463 0.86289 0.0
C935 C 0.39467 0.0556 0.78631 0.0
C936 C 0.41137 0.06132 0.83751 0.0
N937 N 0.40391 0.05825 0.89531 0.0
O938 O 0.39519 0.06956 0.64858 0.0
H939 H 0.38768 0.05348 0.74525 0.0
H940 H 0.42055 0.06465 0.84529 0.0
O941 O 0.40628 0.04677 0.63764 0.0
C942 C 0.39531 0.08113 0.65753 0.0
O943 O 0.40555 0.08636 0.67929 0.0
N944 N 0.42745 0.05836 0.69 0.0
C945 C 0.45293 0.05649 0.70311 0.0
C946 C 0.44622 0.04767 0.6631 0.0
C947 C 0.43351 0.04891 0.65577 0.0
C948 C 0.4339 0.06714 0.72722 0.0
C949 C 0.44654 0.06625 0.73609 0.0
H950 H 0.42879 0.04272 0.61849 0.0
H951 H 0.42922 0.07522 0.74761 0.0
H952 H 0.40606 0.05482 0.50079 0.0
H953 H 0.43038 0.08342 0.44733 0.0
H954 H 0.38518 0.05179 0.89216 0.0
H955 H 0.4508 0.04027 0.63395 0.0
H956 H 0.45129 0.07337 0.76681 0.0
C957 C 0.67046 0.66964 0.31721 0.0
C958 C 0.66931 0.67047 0.24036 0.0
N959 N 0.67823 0.6637 0.20815 0.0
N960 N 0.68011 0.66247 0.33381 0.0
C961 C 0.68461 0.65891 0.26641 0.0
H962 H 0.66469 0.67406 0.35852 0.0
Co963 Co 0.6853 0.65876 0.43069 0.0
C964 C 0.71229 0.65701 0.42097 0.0
O965 O 0.71308 0.66307 0.4847 0.0
N966 N 0.69029 0.65465 0.53014 0.0
C967 C 0.69785 0.64352 0.62452 0.0
C968 C 0.69674 0.64448 0.54779 0.0
C969 C 0.6873 0.65951 0.59793 0.0
N970 N 0.69186 0.65297 0.65613 0.0
O971 O 0.68022 0.64211 0.41502 0.0
H972 H 0.70017 0.63794 0.50722 0.0
H973 H 0.68164 0.66748 0.60542 0.0
O974 O 0.70175 0.65477 0.39265 0.0
C975 C 0.67111 0.63832 0.45317 0.0
O976 O 0.66615 0.64563 0.50339 0.0
N977 N 0.68923 0.67549 0.44437 0.0
C978 C 0.69092 0.70104 0.45487 0.0
C979 C 0.69906 0.69437 0.40951 0.0
C980 C 0.69787 0.68166 0.40356 0.0
C981 C 0.68088 0.68191 0.48557 0.0
C982 C 0.68171 0.69461 0.49308 0.0
H983 H 0.70353 0.67698 0.36308 0.0
H984 H 0.67311 0.67721 0.50966 0.0
H985 H 0.69232 0.65279 0.26034 0.0
H986 H 0.66251 0.67582 0.21086 0.0
H987 H 0.70227 0.63614 0.65469 0.0
H988 H 0.70612 0.69894 0.37732 0.0
H989 H 0.67483 0.6994 0.5256 0.0
C990 C 0.08059 0.91513 0.04254 0.0
C991 C 0.08082 0.91351 0.96567 0.0
N992 N 0.08631 0.92331 0.93404 0.0
N993 N 0.08588 0.92591 0.05976 0.0
C994 C 0.08936 0.93062 0.99264 0.0
H995 H 0.07654 0.909 0.0833 0.0
Co996 Co 0.08689 0.93251 0.15683 0.0
C997 C 0.09892 0.95627 0.12403 0.0
O998 O 0.10758 0.95424 0.17371 0.0
N999 N 0.08774 0.93907 0.25524 0.0
C1000 C 0.08469 0.95147 0.35278 0.0
C1001 C 0.08409 0.95039 0.27592 0.0
C1002 C 0.0903 0.93337 0.32116 0.0
N1003 N 0.08857 0.94075 0.38162 0.0
O1004 O 0.10392 0.92848 0.15864 0.0
H1005 H 0.08062 0.95728 0.23785 0.0
H1006 H 0.09303 0.92389 0.32505 0.0
O1007 O 0.09044 0.94842 0.11422 0.0
C1008 C 0.10631 0.91782 0.18368 0.0
O1009 O 0.09728 0.91102 0.20888 0.0
N1010 N 0.07007 0.93565 0.15504 0.0
C1011 C 0.04464 0.93801 0.15757 0.0
C1012 C 0.05172 0.94467 0.10587 0.0
C1013 C 0.06445 0.94332 0.10525 0.0
C1014 C 0.06336 0.92897 0.2048 0.0
C1015 C 0.05064 0.93007 0.20744 0.0
H1016 H 0.06971 0.94827 0.06387 0.0
H1017 H 0.06792 0.92265 0.24228 0.0
H1018 H 0.094 0.9393 0.98672 0.0
H1019 H 0.07686 0.90587 0.9355 0.0
H1020 H 0.08186 0.95939 0.38503 0.0
H1021 H 0.04748 0.9509 0.0663 0.0
H1022 H 0.04555 0.92453 0.2471 0.0
C1023 C 0.83085 0.33201 0.78377 0.0
C1024 C 0.83247 0.33229 0.70691 0.0
N1025 N 0.82244 0.33735 0.67525 0.0
N1026 N 0.81986 0.33684 0.80095 0.0
C1027 C 0.815 0.34011 0.73382 0.0
H1028 H 0.83715 0.32824 0.82457 0.0
Co1029 Co 0.81326 0.33765 0.89803 0.0
C1030 C 0.78928 0.34911 0.86608 0.0
O1031 O 0.79125 0.35779 0.91581 0.0
N1032 N 0.8067 0.33829 0.99649 0.0
C1033 C 0.7944 0.33485 0.09396 0.0
C1034 C 0.79551 0.33428 0.0171 0.0
C1035 C 0.81231 0.34103 0.06245 0.0
N1036 N 0.80499 0.33906 0.12286 0.0
O1037 O 0.81676 0.3548 0.89971 0.0
H1038 H 0.78873 0.33061 0.97898 0.0
H1039 H 0.8217 0.34405 0.06642 0.0
O1040 O 0.79725 0.34076 0.8557 0.0
C1041 C 0.82728 0.35763 0.9251 0.0
O1042 O 0.8344 0.34893 0.95127 0.0
N1043 N 0.81065 0.32075 0.89616 0.0
C1044 C 0.8096 0.29522 0.89676 0.0
C1045 C 0.8023 0.30206 0.84712 0.0
C1046 C 0.80303 0.31485 0.84729 0.0
C1047 C 0.81781 0.31429 0.94461 0.0
C1048 C 0.81737 0.30153 0.94624 0.0
H1049 H 0.79771 0.31993 0.80681 0.0
H1050 H 0.824 0.3191 0.98177 0.0
H1051 H 0.80614 0.34438 0.72787 0.0
H1052 H 0.84027 0.32866 0.67678 0.0
H1053 H 0.78657 0.33177 0.12615 0.0
H1054 H 0.79636 0.29757 0.80695 0.0
H1055 H 0.82309 0.29666 0.98594 0.0
H1056 H 0.08982 0.54797 0.88978 0.0
H1057 H 0.08135 0.57496 0.47423 0.0
H1058 H 0.07756 0.5848 0.84308 0.0
H1059 H 0.09974 0.54083 0.5205 0.0
H1060 H 0.0784 0.57797 0.60919 0.0
H1061 H 0.09238 0.54459 0.75494 0.0
C1062 C 0.08772 0.55538 0.85162 0.0
C1063 C 0.08344 0.56671 0.87865 0.0
C1064 C 0.08308 0.56981 0.58986 0.0
C1065 C 0.08619 0.56279 0.72342 0.0
C1066 C 0.08468 0.56804 0.51266 0.0
C1067 C 0.09082 0.55762 0.48583 0.0
C1068 C 0.08756 0.56106 0.64086 0.0
C1069 C 0.09509 0.54906 0.53865 0.0
C1070 C 0.08913 0.55341 0.77438 0.0
C1071 C 0.0807 0.57586 0.82558 0.0
N1072 N 0.09337 0.55096 0.61352 0.0
N1073 N 0.08211 0.57369 0.75081 0.0
H1074 H 0.67078 0.82977 0.73063 0.0
H1075 H 0.69774 0.83842 0.14612 0.0
H1076 H 0.70483 0.8483 0.77691 0.0
H1077 H 0.66095 0.82607 0.09951 0.0
H1078 H 0.70111 0.84095 1.01127 0.0
H1079 H 0.66779 0.82683 0.86561 0.0
C1080 C 0.67769 0.83313 0.76907 0.0
C1081 C 0.68808 0.83931 0.74226 0.0
C1082 C 0.6923 0.83769 0.03073 0.0
C1083 C 0.68465 0.83606 0.89726 0.0
C1084 C 0.69033 0.83629 0.10797 0.0
C1085 C 0.67903 0.832 0.13502 0.0
C1086 C 0.68293 0.83471 0.9798 0.0
C1087 C 0.66988 0.82923 0.08198 0.0
C1088 C 0.67593 0.83153 0.84627 0.0
C1089 C 0.69662 0.84362 0.79506 0.0
N1090 N 0.67204 0.83061 1.00721 0.0
N1091 N 0.69473 0.8419 0.86992 0.0
H1092 H 0.39488 0.45566 1.0011 0.0
H1093 H 0.4265 0.41609 0.32603 0.0
H1094 H 0.41732 0.42388 0.95801 0.0
H1095 H 0.3995 0.44415 0.36818 0.0
H1096 H 0.4246 0.41991 0.19158 0.0
H1097 H 0.39788 0.45269 0.13566 0.0
C1098 C 0.40041 0.44803 0.01967 0.0
C1099 C 0.40575 0.43995 0.96751 0.0
C1100 C 0.4191 0.42524 0.23028 0.0
C1101 C 0.40936 0.43659 0.12248 0.0
C1102 C 0.42013 0.42302 0.30737 0.0
C1103 C 0.41308 0.42972 0.35928 0.0
C1104 C 0.411 0.43427 0.20434 0.0
C1105 C 0.4052 0.43879 0.33094 0.0
C1106 C 0.40217 0.44638 0.09677 0.0
C1107 C 0.41308 0.4304 0.99556 0.0
N1108 N 0.40436 0.44077 0.25556 0.0
N1109 N 0.41462 0.42897 0.07101 0.0
H1110 H 0.82657 0.16021 0.2026 0.0
H1111 H 0.79916 0.15855 0.62113 0.0
H1112 H 0.78814 0.15625 0.25328 0.0
H1113 H 0.83788 0.16039 0.57345 0.0
H1114 H 0.7951 0.15711 0.48665 0.0
H1115 H 0.83104 0.15964 0.33746 0.0
C1116 C 0.81907 0.15911 0.24175 0.0
C1117 C 0.80693 0.15837 0.21595 0.0
C1118 C 0.8045 0.15778 0.50555 0.0
C1119 C 0.812 0.15786 0.37115 0.0
C1120 C 0.80685 0.15853 0.58276 0.0
C1121 C 0.81891 0.15962 0.60949 0.0
C1122 C 0.81426 0.15814 0.454 0.0
C1123 C 0.82842 0.15974 0.55599 0.0
C1124 C 0.82163 0.15886 0.31898 0.0
C1125 C 0.79761 0.15708 0.27007 0.0
N1126 N 0.82589 0.15905 0.48109 0.0
N1127 N 0.80033 0.15692 0.34471 0.0
H1128 H 0.0869 0.41789 0.57333 0.0
H1129 H 0.08862 0.44529 0.15494 0.0
H1130 H 0.09091 0.45632 0.52282 0.0
H1131 H 0.08667 0.40658 0.20242 0.0
H1132 H 0.09007 0.44935 0.28943 0.0
H1133 H 0.08745 0.41341 0.43845 0.0
C1134 C 0.08801 0.42539 0.53422 0.0
C1135 C 0.08876 0.43753 0.56007 0.0
C1136 C 0.08937 0.43995 0.27048 0.0
C1137 C 0.08927 0.43245 0.40484 0.0
C1138 C 0.08861 0.43761 0.19327 0.0
C1139 C 0.08749 0.42554 0.16648 0.0
C1140 C 0.08899 0.4302 0.32198 0.0
C1141 C 0.08734 0.41603 0.21992 0.0
C1142 C 0.08825 0.42282 0.45697 0.0
C1143 C 0.09007 0.44684 0.50599 0.0
N1144 N 0.08804 0.41856 0.29484 0.0
N1145 N 0.09023 0.44412 0.43134 0.0
H1146 H 0.82913 0.83787 0.84692 0.0
H1147 H 0.80169 0.83931 0.42858 0.0
H1148 H 0.79068 0.84167 0.79638 0.0
H1149 H 0.84042 0.83763 0.47591 0.0
H1150 H 0.79764 0.84079 0.56307 0.0
H1151 H 0.8336 0.83843 0.71203 0.0
C1152 C 0.82162 0.83893 0.8078 0.0
C1153 C 0.80947 0.83962 0.83364 0.0
C1154 C 0.80704 0.84014 0.54409 0.0
C1155 C 0.81455 0.84014 0.67842 0.0
C1156 C 0.80938 0.83937 0.46688 0.0
C1157 C 0.82145 0.83831 0.44005 0.0
C1158 C 0.8168 0.83984 0.59556 0.0
C1159 C 0.83096 0.83825 0.49345 0.0
C1160 C 0.82418 0.83918 0.73054 0.0
C1161 C 0.80016 0.84087 0.77956 0.0
N1162 N 0.82844 0.83896 0.56838 0.0
N1163 N 0.80288 0.84104 0.70491 0.0
H1164 H 0.40175 0.59063 0.71275 0.0
H1165 H 0.42355 0.54505 0.03891 0.0
H1166 H 0.41906 0.55575 0.67189 0.0
H1167 H 0.40106 0.57683 0.08191 0.0
H1168 H 0.4227 0.54946 0.90529 0.0
H1169 H 0.4022 0.5864 0.84796 0.0
C1170 C 0.40569 0.5821 0.73204 0.0
C1171 C 0.41039 0.57355 0.68036 0.0
C1172 C 0.41792 0.55547 0.94383 0.0
C1173 C 0.41089 0.56863 0.83575 0.0
C1174 C 0.41834 0.55293 0.02076 0.0
C1175 C 0.41228 0.5605 0.07296 0.0
C1176 C 0.41146 0.56574 0.91784 0.0
C1177 C 0.40595 0.57074 0.04457 0.0
C1178 C 0.40587 0.57967 0.80939 0.0
C1179 C 0.41521 0.56257 0.7091 0.0
N1180 N 0.40571 0.57305 0.96915 0.0
N1181 N 0.41538 0.56047 0.78458 0.0
H1182 H 0.66507 0.17846 0.93099 0.0
H1183 H 0.70317 0.14498 0.25559 0.0
H1184 H 0.69184 0.15017 0.88852 0.0
H1185 H 0.67239 0.16876 0.29897 0.0
H1186 H 0.70028 0.14809 0.12107 0.0
H1187 H 0.66875 0.17628 0.06544 0.0
C1188 C 0.67169 0.17175 0.94956 0.0
C1189 C 0.67806 0.16442 0.89753 0.0
C1190 C 0.69417 0.15265 0.16002 0.0
C1191 C 0.68246 0.16203 0.05252 0.0
C1192 C 0.69577 0.15083 0.23712 0.0
C1193 C 0.68795 0.15652 0.28939 0.0
C1194 C 0.6847 0.16026 0.13439 0.0
C1195 C 0.67871 0.16424 0.26138 0.0
C1196 C 0.67383 0.17056 0.02666 0.0
C1197 C 0.68674 0.1561 0.92582 0.0
N1198 N 0.67733 0.16584 0.18594 0.0
N1199 N 0.68865 0.15512 1.00121 0.0
H1200 H 0.90769 0.44608 0.15311 0.0
H1201 H 0.9086 0.41859 0.57131 0.0
H1202 H 0.90848 0.40731 0.20034 0.0
H1203 H 0.90551 0.45711 0.52092 0.0
H1204 H 0.90794 0.41414 0.43641 0.0
H1205 H 0.90632 0.45015 0.2876 0.0
C1206 C 0.90746 0.43839 0.19138 0.0
C1207 C 0.90824 0.4263 0.16452 0.0
C1208 C 0.90737 0.42356 0.45496 0.0
C1209 C 0.90683 0.43097 0.32003 0.0
C1210 C 0.90767 0.42612 0.53222 0.0
C1211 C 0.90721 0.43827 0.5581 0.0
C1212 C 0.90659 0.43322 0.40288 0.0
C1213 C 0.90613 0.44762 0.50406 0.0
C1214 C 0.90675 0.44074 0.26859 0.0
C1215 C 0.90809 0.41678 0.2179 0.0
N1216 N 0.90591 0.44491 0.42941 0.0
N1217 N 0.90744 0.41932 0.29282 0.0
H1218 H 0.29858 0.15755 0.91947 0.0
H1219 H 0.32524 0.16801 0.33377 0.0
H1220 H 0.33476 0.1717 0.96508 0.0
H1221 H 0.2929 0.14658 0.28875 0.0
H1222 H 0.32779 0.17128 0.19872 0.0
H1223 H 0.29544 0.15491 0.05452 0.0
C1224 C 0.3059 0.16005 0.95745 0.0
C1225 C 0.31697 0.16488 0.93013 0.0
C1226 C 0.32012 0.16587 0.21836 0.0
C1227 C 0.31331 0.16205 0.0853 0.0
C1228 C 0.31861 0.16409 0.29554 0.0
C1229 C 0.30886 0.15699 0.3226 0.0
C1230 C 0.31176 0.1606 0.16775 0.0
C1231 C 0.30063 0.15199 0.27023 0.0
C1232 C 0.30406 0.15859 0.03473 0.0
C1233 C 0.32601 0.16812 0.98285 0.0
N1234 N 0.30226 0.15389 0.19535 0.0
N1235 N 0.32397 0.16667 0.05763 0.0
H1236 H 0.59237 0.58963 0.72917 0.0
H1237 H 0.58857 0.53876 0.05306 0.0
H1238 H 0.5872 0.55105 0.68649 0.0
H1239 H 0.58981 0.57755 0.09867 0.0
H1240 H 0.58953 0.5431 0.91885 0.0
H1241 H 0.59284 0.58537 0.86391 0.0
C1242 C 0.5913 0.58026 0.74776 0.0
C1243 C 0.58966 0.57071 0.69552 0.0
C1244 C 0.58962 0.55068 0.95811 0.0
C1245 C 0.59035 0.56576 0.85088 0.0
C1246 C 0.58901 0.54821 0.03511 0.0
C1247 C 0.58897 0.55779 0.08797 0.0
C1248 C 0.59023 0.56284 0.93295 0.0
C1249 C 0.58987 0.56984 0.06054 0.0
C1250 C 0.59163 0.57784 0.82502 0.0
C1251 C 0.58858 0.55874 0.72385 0.0
N1252 N 0.5904 0.57202 0.98508 0.0
N1253 N 0.58891 0.55663 0.79931 0.0
H1254 H 0.20365 0.85124 0.74328 0.0
H1255 H 0.16516 0.81808 0.41903 0.0
H1256 H 0.17252 0.82793 0.78666 0.0
H1257 H 0.19222 0.84604 0.37597 0.0
H1258 H 0.16884 0.82033 0.55341 0.0
H1259 H 0.2007 0.84817 0.60874 0.0
C1260 C 0.19616 0.8455 0.72485 0.0
C1261 C 0.18828 0.83993 0.77715 0.0
C1262 C 0.17398 0.82597 0.51453 0.0
C1263 C 0.18494 0.83623 0.6221 0.0
C1264 C 0.17184 0.82474 0.43745 0.0
C1265 C 0.1783 0.83194 0.38525 0.0
C1266 C 0.18269 0.83443 0.54024 0.0
C1267 C 0.18705 0.84021 0.41339 0.0
C1268 C 0.19452 0.84371 0.64772 0.0
C1269 C 0.17891 0.83236 0.74911 0.0
N1270 N 0.18896 0.84123 0.48878 0.0
N1271 N 0.17749 0.83077 0.67368 0.0
H1272 H 0.90729 0.54912 0.88162 0.0
H1273 H 0.91578 0.57613 0.46615 0.0
H1274 H 0.91964 0.58591 0.835 0.0
H1275 H 0.89736 0.54203 0.51239 0.0
H1276 H 0.91873 0.57913 0.60111 0.0
H1277 H 0.90469 0.54577 0.74678 0.0
C1278 C 0.9094 0.55653 0.84347 0.0
C1279 C 0.91372 0.56783 0.87051 0.0
C1280 C 0.91404 0.57098 0.58177 0.0
C1281 C 0.91092 0.56395 0.71531 0.0
C1282 C 0.91245 0.56922 0.50458 0.0
C1283 C 0.9063 0.55881 0.47775 0.0
C1284 C 0.90955 0.56224 0.63276 0.0
C1285 C 0.90201 0.55025 0.53055 0.0
C1286 C 0.90797 0.55457 0.76623 0.0
C1287 C 0.91646 0.57699 0.81747 0.0
N1288 N 0.90373 0.55214 0.60542 0.0
N1289 N 0.91504 0.57484 0.74271 0.0
H1290 H 0.15462 0.16574 0.58676 0.0
H1291 H 0.20385 0.15053 0.26488 0.0
H1292 H 0.19171 0.15445 0.63298 0.0
H1293 H 0.16651 0.16091 0.21792 0.0
H1294 H 0.19951 0.15179 0.39915 0.0
H1295 H 0.1587 0.16379 0.45219 0.0
C1296 C 0.16363 0.16284 0.56885 0.0
C1297 C 0.17284 0.16032 0.62201 0.0
C1298 C 0.19225 0.15378 0.35958 0.0
C1299 C 0.17759 0.15804 0.46666 0.0
C1300 C 0.19471 0.15302 0.28244 0.0
C1301 C 0.18554 0.15555 0.22902 0.0
C1302 C 0.1805 0.15712 0.38445 0.0
C1303 C 0.17393 0.15897 0.25632 0.0
C1304 C 0.16595 0.1617 0.49168 0.0
C1305 C 0.18428 0.15641 0.59466 0.0
N1306 N 0.17176 0.15963 0.33183 0.0
N1307 N 0.18633 0.15545 0.51918 0.0
H1308 H 0.58644 0.41822 0.95712 0.0
H1309 H 0.58776 0.44588 0.37494 0.0
H1310 H 0.58998 0.45672 1.00719 0.0
H1311 H 0.58613 0.40712 0.3281 0.0
H1312 H 0.58933 0.44986 0.24046 0.0
H1313 H 0.58712 0.4138 0.09208 0.0
C1314 C 0.58748 0.42574 0.99619 0.0
C1315 C 0.58804 0.43789 0.97028 0.0
C1316 C 0.58867 0.44047 0.25955 0.0
C1317 C 0.5887 0.43289 0.12542 0.0
C1318 C 0.58784 0.43817 0.33675 0.0
C1319 C 0.58676 0.42612 0.36367 0.0
C1320 C 0.5884 0.43068 0.20824 0.0
C1321 C 0.58675 0.41657 0.31044 0.0
C1322 C 0.5878 0.42322 0.07344 0.0
C1323 C 0.58927 0.44724 0.02417 0.0
N1324 N 0.58751 0.41905 0.23553 0.0
N1325 N 0.5895 0.44455 0.09882 0.0
H1326 H 0.33918 0.838 0.05791 0.0
H1327 H 0.28811 0.84089 0.73451 0.0
H1328 H 0.30029 0.83835 0.10122 0.0
H1329 H 0.32674 0.8375 0.6882 0.0
H1330 H 0.29259 0.84129 0.86872 0.0
H1331 H 0.33498 0.83904 0.92317 0.0
C1332 C 0.32975 0.83827 0.03946 0.0
C1333 C 0.3201 0.83802 0.09191 0.0
C1334 C 0.30011 0.84049 0.82932 0.0
C1335 C 0.31522 0.83935 0.93646 0.0
C1336 C 0.29755 0.8402 0.75232 0.0
C1337 C 0.30703 0.83903 0.69923 0.0
C1338 C 0.31227 0.83962 0.85432 0.0
C1339 C 0.31911 0.83847 0.72649 0.0
C1340 C 0.32736 0.83892 0.96218 0.0
C1341 C 0.30808 0.83863 0.06371 0.0
N1342 N 0.32137 0.83871 0.80196 0.0
N1343 N 0.306 0.83923 0.98825 0.0
H1344 H 0.60247 0.04116 0.02553 0.0
H1345 H 0.56869 0.07908 0.3502 0.0
H1346 H 0.57849 0.07179 0.98234 0.0
H1347 H 0.59706 0.05243 0.39284 0.0
H1348 H 0.57095 0.07542 0.21577 0.0
H1349 H 0.59934 0.04404 0.1601 0.0
C1350 C 0.59657 0.04852 0.04404 0.0
C1351 C 0.59083 0.0563 0.9918 0.0
C1352 C 0.57667 0.07036 0.25457 0.0
C1353 C 0.58707 0.05954 0.14685 0.0
C1354 C 0.57544 0.07249 0.33168 0.0
C1355 C 0.58276 0.06615 0.38376 0.0
C1356 C 0.58525 0.06177 0.22874 0.0
C1357 C 0.59114 0.05751 0.3555 0.0
C1358 C 0.59474 0.05012 0.12116 0.0
C1359 C 0.58306 0.06549 0.01988 0.0
N1360 N 0.59216 0.05561 0.2801 0.0
N1361 N 0.58144 0.06688 0.09533 0.0
H1362 H 0.20452 0.34869 0.26801 0.0
H1363 H 0.15886 0.32695 0.5934 0.0
H1364 H 0.16981 0.33117 0.22574 0.0
H1365 H 0.19599 0.33861 0.63635 0.0
H1366 H 0.16248 0.32924 0.45929 0.0
H1367 H 0.20131 0.34592 0.40312 0.0
C1368 C 0.19621 0.34428 0.28709 0.0
C1369 C 0.18741 0.34019 0.23519 0.0
C1370 C 0.16985 0.33128 0.49802 0.0
C1371 C 0.18368 0.33696 0.39021 0.0
C1372 C 0.16781 0.32992 0.57509 0.0
C1373 C 0.17714 0.33251 0.62729 0.0
C1374 C 0.18128 0.33535 0.47214 0.0
C1375 C 0.18846 0.33659 0.59895 0.0
C1376 C 0.19441 0.34265 0.3643 0.0
C1377 C 0.1769 0.33437 0.26336 0.0
N1378 N 0.1902 0.33789 0.52349 0.0
N1379 N 0.1753 0.333 0.33882 0.0
H1380 H 0.90991 0.91944 0.45398 0.0
H1381 H 0.90793 0.9468 0.87264 0.0
H1382 H 0.9056 0.95784 0.50482 0.0
H1383 H 0.9102 0.90811 0.82482 0.0
H1384 H 0.90647 0.95086 0.73817 0.0
H1385 H 0.90938 0.91495 0.58882 0.0
C1386 C 0.90874 0.92693 0.49315 0.0
C1387 C 0.9079 0.93907 0.46739 0.0
C1388 C 0.90724 0.94146 0.75704 0.0
C1389 C 0.90742 0.93398 0.62259 0.0
C1390 C 0.908 0.93912 0.83424 0.0
C1391 C 0.90922 0.92706 0.86093 0.0
C1392 C 0.90771 0.93172 0.70545 0.0
C1393 C 0.90945 0.91756 0.80739 0.0
C1394 C 0.90851 0.92436 0.57038 0.0
C1395 C 0.90652 0.94837 0.52156 0.0
N1396 N 0.90874 0.92009 0.73249 0.0
N1397 N 0.90638 0.94564 0.59619 0.0
H1398 H 0.32723 0.65929 0.67526 0.0
H1399 H 0.29982 0.65786 0.09381 0.0
H1400 H 0.28879 0.65542 0.72605 0.0
H1401 H 0.33854 0.65961 0.04618 0.0
H1402 H 0.29576 0.65636 0.95936 0.0
H1403 H 0.33171 0.65876 0.81013 0.0
C1404 C 0.31973 0.65821 0.71444 0.0
C1405 C 0.30758 0.65749 0.68867 0.0
C1406 C 0.30516 0.65703 0.97827 0.0
C1407 C 0.31266 0.65702 0.84387 0.0
C1408 C 0.3075 0.65782 0.05546 0.0
C1409 C 0.31957 0.65889 0.0822 0.0
C1410 C 0.31492 0.65734 0.92672 0.0
C1411 C 0.32908 0.65897 0.02871 0.0
C1412 C 0.3223 0.65798 0.79168 0.0
C1413 C 0.29827 0.65624 0.74282 0.0
N1414 N 0.32655 0.65825 0.95381 0.0
N1415 N 0.30099 0.65609 0.81745 0.0
H1416 H 0.58695 0.91665 0.08575 0.0
H1417 H 0.58858 0.94406 0.66734 0.0
H1418 H 0.59095 0.95508 0.03523 0.0
H1419 H 0.58665 0.90535 0.7148 0.0
H1420 H 0.59007 0.94812 0.80183 0.0
H1421 H 0.5875 0.91217 0.95085 0.0
C1422 C 0.58806 0.92415 0.04663 0.0
C1423 C 0.58881 0.93629 0.07248 0.0
C1424 C 0.58936 0.93872 0.78287 0.0
C1425 C 0.5893 0.93122 0.91724 0.0
C1426 C 0.58859 0.93638 0.70566 0.0
C1427 C 0.58746 0.92431 0.67887 0.0
C1428 C 0.589 0.92896 0.83437 0.0
C1429 C 0.58733 0.9148 0.73231 0.0
C1430 C 0.58829 0.92159 0.96937 0.0
C1431 C 0.5901 0.94561 0.0184 0.0
N1432 N 0.58805 0.91733 0.80722 0.0
N1433 N 0.59026 0.94288 0.94374 0.0
H1434 H 0.28841 0.3422 0.27979 0.0
H1435 H 0.33929 0.33699 0.95603 0.0
H1436 H 0.32686 0.33727 0.32602 0.0
H1437 H 0.30046 0.33914 0.91303 0.0
H1438 H 0.33515 0.3383 0.09083 0.0
H1439 H 0.29291 0.34242 0.14557 0.0
C1440 C 0.29781 0.34114 0.26194 0.0
C1441 C 0.30723 0.33958 0.31501 0.0
C1442 C 0.32754 0.33853 0.05187 0.0
C1443 C 0.3125 0.33994 0.15988 0.0
C1444 C 0.32989 0.33772 0.97457 0.0
C1445 C 0.32023 0.33788 0.92219 0.0
C1446 C 0.31543 0.33952 0.0777 0.0
C1447 C 0.30825 0.33908 0.95048 0.0
C1448 C 0.30039 0.34132 0.18494 0.0
C1449 C 0.31928 0.33854 0.28772 0.0
N1450 N 0.30622 0.3398 0.02597 0.0
N1451 N 0.32155 0.33868 0.21223 0.0
H1452 H 0.89317 0.04377 0.51344 0.0
H1453 H 0.92731 0.08137 0.18916 0.0
H1454 H 0.91728 0.0743 0.55682 0.0
H1455 H 0.89861 0.05509 0.14617 0.0
H1456 H 0.92495 0.07777 0.32354 0.0
H1457 H 0.89629 0.04666 0.37891 0.0
C1458 C 0.89909 0.05111 0.49501 0.0
C1459 C 0.90488 0.05885 0.54731 0.0
C1460 C 0.91918 0.07279 0.28467 0.0
C1461 C 0.90863 0.0621 0.39226 0.0
C1462 C 0.92047 0.07488 0.20759 0.0
C1463 C 0.91308 0.06862 0.1554 0.0
C1464 C 0.91048 0.06431 0.3104 0.0
C1465 C 0.90458 0.0601 0.18357 0.0
C1466 C 0.90091 0.05272 0.41788 0.0
C1467 C 0.91267 0.06803 0.51926 0.0
N1468 N 0.90351 0.05823 0.25896 0.0
N1469 N 0.91429 0.06941 0.44383 0.0
H1470 H 0.15826 0.66846 0.41401 0.0
H1471 H 0.20405 0.64701 0.73922 0.0
H1472 H 0.19543 0.65692 0.37084 0.0
H1473 H 0.16927 0.66439 0.78154 0.0
H1474 H 0.20081 0.6497 0.60409 0.0
H1475 H 0.1619 0.66621 0.54813 0.0
C1476 C 0.16722 0.66553 0.4323 0.0
C1477 C 0.17656 0.66296 0.38006 0.0
C1478 C 0.1939 0.65296 0.64293 0.0
C1479 C 0.18072 0.66016 0.53515 0.0
C1480 C 0.19572 0.65137 0.72014 0.0
C1481 C 0.18691 0.65546 0.77205 0.0
C1482 C 0.18314 0.65859 0.61705 0.0
C1483 C 0.17637 0.66121 0.7439 0.0
C1484 C 0.16927 0.66419 0.50935 0.0
C1485 C 0.18789 0.65892 0.4083 0.0
N1486 N 0.17475 0.66254 0.66846 0.0
N1487 N 0.18964 0.65764 0.48375 0.0
H1488 H 0.40862 0.91783 0.08456 0.0
H1489 H 0.40769 0.94528 0.66622 0.0
H1490 H 0.4057 0.95636 0.03403 0.0
H1491 H 0.40841 0.90651 0.71362 0.0
H1492 H 0.40639 0.94937 0.80071 0.0
H1493 H 0.40793 0.91337 0.94969 0.0
C1494 C 0.40772 0.92536 0.04545 0.0
C1495 C 0.40731 0.93752 0.0713 0.0
C1496 C 0.40679 0.93996 0.78174 0.0
C1497 C 0.40666 0.93246 0.91608 0.0
C1498 C 0.40746 0.93759 0.70453 0.0
C1499 C 0.40819 0.9255 0.67771 0.0
C1500 C 0.40687 0.93019 0.83323 0.0
C1501 C 0.40804 0.91599 0.73114 0.0
C1502 C 0.4074 0.9228 0.9682 0.0
C1503 C 0.40628 0.94687 0.01722 0.0
N1504 N 0.40744 0.91853 0.80607 0.0
N1505 N 0.40603 0.94415 0.94257 0.0
H1506 H 0.82669 0.65073 0.82109 0.0
H1507 H 0.8033 0.66767 0.40642 0.0
H1508 H 0.79332 0.67054 0.77432 0.0
H1509 H 0.83956 0.6538 0.45076 0.0
H1510 H 0.79906 0.66739 0.54116 0.0
H1511 H 0.83128 0.65067 0.68627 0.0
C1512 C 0.82033 0.65511 0.78303 0.0
C1513 C 0.80955 0.66061 0.81016 0.0
C1514 C 0.80795 0.6644 0.52155 0.0
C1515 C 0.81471 0.66042 0.65491 0.0
C1516 C 0.81036 0.66448 0.44434 0.0
C1517 C 0.82182 0.66074 0.41679 0.0
C1518 C 0.81703 0.66049 0.57218 0.0
C1519 C 0.83065 0.65688 0.46927 0.0
C1520 C 0.82295 0.65502 0.70579 0.0
C1521 C 0.80164 0.66599 0.75706 0.0
N1522 N 0.82807 0.65682 0.54427 0.0
N1523 N 0.80437 0.66573 0.68249 0.0
H1524 H 0.09774 0.04017 0.50226 0.0
H1525 H 0.07598 0.08576 0.17697 0.0
H1526 H 0.07983 0.07469 0.54466 0.0
H1527 H 0.08786 0.04868 0.134 0.0
H1528 H 0.0781 0.0821 0.31115 0.0
H1529 H 0.09499 0.04337 0.36717 0.0
C1530 C 0.09324 0.04843 0.48318 0.0
C1531 C 0.08904 0.05719 0.53508 0.0
C1532 C 0.08022 0.07475 0.27239 0.0
C1533 C 0.08585 0.06092 0.38014 0.0
C1534 C 0.07896 0.07681 0.1953 0.0
C1535 C 0.08167 0.06751 0.1431 0.0
C1536 C 0.08431 0.06333 0.29825 0.0
C1537 C 0.08576 0.05619 0.17142 0.0
C1538 C 0.09162 0.05023 0.406 0.0
C1539 C 0.08311 0.06764 0.50699 0.0
N1540 N 0.08696 0.05444 0.24689 0.0
N1541 N 0.08176 0.06924 0.43154 0.0
H1542 H 0.69152 0.34688 0.88772 0.0
H1543 H 0.6716 0.32742 0.30339 0.0
H1544 H 0.66532 0.31826 0.93465 0.0
H1545 H 0.70193 0.35158 0.25599 0.0
H1546 H 0.66898 0.32413 0.16876 0.0
H1547 H 0.69526 0.34894 0.02222 0.0
C1548 C 0.6866 0.34095 0.92588 0.0
C1549 C 0.67803 0.3324 0.89905 0.0
C1550 C 0.67624 0.33012 0.18789 0.0
C1551 C 0.68219 0.33487 0.0541 0.0
C1552 C 0.67779 0.33197 0.26506 0.0
C1553 C 0.68699 0.33985 0.29175 0.0
C1554 C 0.68388 0.33623 0.13664 0.0
C1555 C 0.69459 0.34559 0.2385 0.0
C1556 C 0.68872 0.34218 1.003 0.0
C1557 C 0.67185 0.32512 0.95216 0.0
N1558 N 0.69283 0.34371 0.1637 0.0
N1559 N 0.67402 0.32655 0.02693 0.0
H1560 H 0.39888 0.05592 0.37965 0.0
H1561 H 0.42162 0.07187 0.96428 0.0
H1562 H 0.43273 0.07479 0.33125 0.0
H1563 H 0.39204 0.04669 1.0101 0.0
H1564 H 0.42541 0.07351 0.09869 0.0
H1565 H 0.39582 0.05285 0.245 0.0
C1566 C 0.40573 0.05936 0.34115 0.0
C1567 C 0.41605 0.06572 0.36754 0.0
C1568 C 0.41811 0.06759 0.07928 0.0
C1569 C 0.41249 0.06235 0.21263 0.0
C1570 C 0.41596 0.06659 1.00215 0.0
C1571 C 0.40646 0.05912 0.97499 0.0
C1572 C 0.41067 0.06116 0.13015 0.0
C1573 C 0.39934 0.0527 0.02788 0.0
C1574 C 0.40394 0.05763 0.26402 0.0
C1575 C 0.42451 0.07005 0.31411 0.0
N1576 N 0.40157 0.0539 0.10277 0.0
N1577 N 0.4225 0.06834 0.23946 0.0
H1578 H 0.69926 0.6559 0.13991 0.0
H1579 H 0.67248 0.66416 0.72358 0.0
H1580 H 0.66235 0.66781 0.0925 0.0
H1581 H 0.70694 0.64647 0.77072 0.0
H1582 H 0.66929 0.66699 0.8585 0.0
H1583 H 0.70276 0.65345 1.00516 0.0
C1584 C 0.69185 0.65794 0.10162 0.0
C1585 C 0.68046 0.66209 0.12845 0.0
C1586 C 0.67756 0.6625 0.83936 0.0
C1587 C 0.68453 0.65947 0.9732 0.0
C1588 C 0.67944 0.66097 0.76217 0.0
C1589 C 0.69 0.65506 0.73556 0.0
C1590 C 0.68635 0.65817 0.89061 0.0
C1591 C 0.6986 0.65094 0.78864 0.0
C1592 C 0.6939 0.6566 0.02439 0.0
C1593 C 0.67133 0.66476 0.07516 0.0
N1594 N 0.69659 0.65259 0.86349 0.0
N1595 N 0.67357 0.66343 1.00039 0.0
H1596 H 0.08711 0.91815 0.44733 0.0
H1597 H 0.08956 0.94549 0.86601 0.0
H1598 H 0.09224 0.95644 0.49824 0.0
H1599 H 0.08633 0.90686 0.81832 0.0
H1600 H 0.0912 0.94949 0.73154 0.0
H1601 H 0.08751 0.91365 0.58222 0.0
C1602 C 0.08844 0.92561 0.48654 0.0
C1603 C 0.08955 0.93773 0.46081 0.0
C1604 C 0.09017 0.94012 0.75044 0.0
C1605 C 0.08987 0.93263 0.61601 0.0
C1606 C 0.08931 0.9378 0.82764 0.0
C1607 C 0.08777 0.92578 0.85437 0.0
C1608 C 0.08948 0.93038 0.69887 0.0
C1609 C 0.08733 0.91628 0.80087 0.0
C1610 C 0.08859 0.92303 0.56378 0.0
C1611 C 0.09111 0.947 0.51498 0.0
N1612 N 0.08814 0.91879 0.72596 0.0
N1613 N 0.09118 0.94426 0.58961 0.0
H1614 H 0.80017 0.33975 0.60714 0.0
H1615 H 0.82761 0.33834 0.18865 0.0
H1616 H 0.83889 0.33803 0.55963 0.0
H1617 H 0.78917 0.34222 0.23943 0.0
H1618 H 0.83208 0.33888 0.32354 0.0
H1619 H 0.79612 0.34126 0.47269 0.0
C1620 C 0.80786 0.3398 0.56882 0.0
C1621 C 0.81992 0.33873 0.59559 0.0
C1622 C 0.82267 0.33965 0.30507 0.0
C1623 C 0.81528 0.34029 0.44012 0.0
C1624 C 0.82011 0.33942 0.22783 0.0
C1625 C 0.80796 0.34014 0.20206 0.0
C1626 C 0.81303 0.34061 0.35726 0.0
C1627 C 0.79865 0.3414 0.2562 0.0
C1628 C 0.80552 0.3406 0.49163 0.0
C1629 C 0.82944 0.33866 0.54214 0.0
N1630 N 0.80137 0.34154 0.33084 0.0
N1631 N 0.82692 0.33939 0.46724 0.0
H1632 H 0.15423 0.62467 0.96527 0.0
H1633 H 0.12076 0.59087 0.29288 0.0
H1634 H 0.16773 0.6266 0.19279 0.0
H1635 H 0.11957 0.57694 0.06608 0.0
H1636 H 0.13823 0.60371 0.25849 0.0
H1637 H 0.1418 0.60692 0.99993 0.0
C1638 C 0.15472 0.62122 0.02229 0.0
C1639 C 0.16195 0.62714 0.07641 0.0
C1640 C 0.13431 0.59768 0.21657 0.0
C1641 C 0.14756 0.60701 0.11681 0.0
C1642 C 0.12432 0.59038 0.23608 0.0
C1643 C 0.11869 0.5829 0.18207 0.0
C1644 C 0.1385 0.59775 0.14196 0.0
C1645 C 0.12367 0.58257 0.1094 0.0
C1646 C 0.14765 0.61107 0.04196 0.0
C1647 C 0.16229 0.62228 0.14939 0.0
N1648 N 0.13315 0.59009 0.09099 0.0
N1649 N 0.15498 0.61263 0.16791 0.0
H1650 H 0.62213 0.91963 0.4649 0.0
H1651 H 0.66749 0.8671 0.31993 0.0
H1652 H 0.61748 0.90098 0.25313 0.0
H1653 H 0.65715 0.87135 0.55254 0.0
H1654 H 0.65448 0.88473 0.28787 0.0
H1655 H 0.64043 0.90709 0.48934 0.0
C1656 C 0.62519 0.91316 0.42263 0.0
C1657 C 0.61831 0.91124 0.35714 0.0
C1658 C 0.65529 0.88193 0.34607 0.0
C1659 C 0.63911 0.89704 0.38432 0.0
C1660 C 0.66274 0.87194 0.36441 0.0
C1661 C 0.66327 0.86774 0.43885 0.0
C1662 C 0.6486 0.88786 0.40286 0.0
C1663 C 0.65687 0.87425 0.49436 0.0
C1664 C 0.63554 0.90598 0.4368 0.0
C1665 C 0.62253 0.90265 0.30452 0.0
N1666 N 0.64975 0.88397 0.47524 0.0
N1667 N 0.63264 0.89582 0.31934 0.0
H1668 H 0.32458 0.37314 0.7049 0.0
H1669 H 0.37643 0.41823 0.54817 0.0
H1670 H 0.34284 0.36776 0.49247 0.0
H1671 H 0.37267 0.40901 0.78276 0.0
H1672 H 0.35876 0.40504 0.51974 0.0
H1673 H 0.33695 0.39169 0.72532 0.0
C1674 C 0.33093 0.37607 0.66167 0.0
C1675 C 0.3328 0.36892 0.59719 0.0
C1676 C 0.36167 0.40615 0.57756 0.0
C1677 C 0.34678 0.39002 0.61973 0.0
C1678 C 0.37167 0.41371 0.59383 0.0
C1679 C 0.37602 0.41458 0.66779 0.0
C1680 C 0.35588 0.3997 0.63594 0.0
C1681 C 0.36963 0.40845 0.7249 0.0
C1682 C 0.33801 0.38657 0.67353 0.0
C1683 C 0.34122 0.37301 0.5432 0.0
N1684 N 0.3599 0.40122 0.70779 0.0
N1685 N 0.34795 0.38327 0.55577 0.0
H1686 H 0.87679 0.08016 0.97111 0.0
H1687 H 0.82387 0.1249 0.8249 0.0
H1688 H 0.87241 0.09017 0.73816 0.0
H1689 H 0.84253 0.13 0.03615 0.0
H1690 H 0.83654 0.10667 0.80115 0.0
H1691 H 0.85905 0.09306 1.00288 0.0
C1692 C 0.87189 0.08481 0.92651 0.0
C1693 C 0.87608 0.08422 0.85205 0.0
C1694 C 0.83762 0.11164 0.85343 0.0
C1695 C 0.85585 0.09877 0.88769 0.0
C1696 C 0.83036 0.12196 0.86722 0.0
C1697 C 0.83225 0.12895 0.93234 0.0
C1698 C 0.84659 0.10821 0.90594 0.0
C1699 C 0.84088 0.12486 0.98503 0.0
C1700 C 0.86185 0.09219 0.94468 0.0
C1701 C 0.8695 0.0905 0.79636 0.0
N1702 N 0.84779 0.11478 0.97059 0.0
N1703 N 0.85973 0.09756 0.81531 0.0
H1704 H 0.15759 0.37278 0.04485 0.0
H1705 H 0.11673 0.40182 0.73842 0.0
H1706 H 0.1665 0.36796 0.81055 0.0
H1707 H 0.12249 0.42053 0.94887 0.0
H1708 H 0.13512 0.38957 0.76165 0.0
H1709 H 0.14498 0.39052 1.01192 0.0
C1710 C 0.15706 0.37563 0.98657 0.0
C1711 C 0.16303 0.36891 0.93023 0.0
C1712 C 0.13253 0.39655 0.80194 0.0
C1713 C 0.1484 0.38895 0.892 0.0
C1714 C 0.12204 0.40351 0.78879 0.0
C1715 C 0.11812 0.41215 0.84193 0.0
C1716 C 0.13891 0.39796 0.86987 0.0
C1717 C 0.12528 0.41399 0.90639 0.0
C1718 C 0.14991 0.38576 0.96786 0.0
C1719 C 0.16207 0.37294 0.8556 0.0
N1720 N 0.13519 0.40674 0.91949 0.0
N1721 N 0.15464 0.38255 0.83836 0.0
H1722 H 0.87548 0.92067 0.07025 0.0
H1723 H 0.82758 0.87203 0.23206 0.0
H1724 H 0.87815 0.90558 0.29355 0.0
H1725 H 0.84248 0.86976 1.00802 0.0
H1726 H 0.84008 0.89044 0.25459 0.0
H1727 H 0.8572 0.90798 0.04801 0.0
C1728 C 0.87196 0.915 0.11533 0.0
C1729 C 0.87828 0.91407 0.18369 0.0
C1730 C 0.84032 0.88607 0.19992 0.0
C1731 C 0.85748 0.89979 0.1591 0.0
C1732 C 0.83317 0.87566 0.1869 0.0
C1733 C 0.83409 0.86942 0.11822 0.0
C1734 C 0.84815 0.89037 0.14314 0.0
C1735 C 0.84159 0.87433 0.0618 0.0
C1736 C 0.86162 0.90774 0.10248 0.0
C1737 C 0.87352 0.90646 0.24001 0.0
N1738 N 0.84838 0.88451 0.07554 0.0
N1739 N 0.86341 0.89956 0.22643 0.0
H1740 H 0.32692 0.62567 0.2874 0.0
H1741 H 0.37538 0.57821 0.4564 0.0
H1742 H 0.33993 0.6274 0.5159 0.0
H1743 H 0.37873 0.59374 0.23452 0.0
H1744 H 0.35652 0.59014 0.47541 0.0
H1745 H 0.34015 0.60773 0.26582 0.0
C1746 C 0.33223 0.62199 0.33364 0.0
C1747 C 0.33241 0.62795 0.40346 0.0
C1748 C 0.36124 0.59065 0.42192 0.0
C1749 C 0.34733 0.60757 0.37953 0.0
C1750 C 0.37192 0.58382 0.41088 0.0
C1751 C 0.37859 0.58508 0.34394 0.0
C1752 C 0.35711 0.59853 0.36492 0.0
C1753 C 0.37384 0.5926 0.28705 0.0
C1754 C 0.33981 0.61186 0.32118 0.0
C1755 C 0.33959 0.62302 0.46129 0.0
N1756 N 0.3634 0.59909 0.29889 0.0
N1757 N 0.34682 0.61313 0.44802 0.0
H1758 H 0.62107 0.09019 0.8012 0.0
H1759 H 0.65403 0.12595 0.47957 0.0
H1760 H 0.61989 0.07732 0.57208 0.0
H1761 H 0.66792 0.12656 0.70646 0.0
H1762 H 0.64165 0.108 0.5112 0.0
H1763 H 0.63841 0.10335 0.76877 0.0
C1764 C 0.62461 0.08999 0.74429 0.0
C1765 C 0.61903 0.08271 0.6891 0.0
C1766 C 0.64757 0.11192 0.55372 0.0
C1767 C 0.63866 0.09795 0.65123 0.0
C1768 C 0.6546 0.12218 0.5358 0.0
C1769 C 0.66194 0.12777 0.59066 0.0
C1770 C 0.64763 0.10741 0.6276 0.0
C1771 C 0.66239 0.1225 0.66253 0.0
C1772 C 0.63452 0.09748 0.72588 0.0
C1773 C 0.62397 0.08278 0.61629 0.0
N1774 N 0.65513 0.11275 0.67942 0.0
N1775 N 0.63336 0.09049 0.59902 0.0
H1776 H 0.8259 0.37225 0.80101 0.0
H1777 H 0.8745 0.42079 0.95628 0.0
H1778 H 0.84081 0.37064 0.02515 0.0
H1779 H 0.87662 0.4052 0.73398 0.0
H1780 H 0.85607 0.40843 0.9806 0.0
H1781 H 0.83854 0.39048 0.77609 0.0
C1782 C 0.83151 0.376 0.84569 0.0
C1783 C 0.8324 0.36999 0.91512 0.0
C1784 C 0.86041 0.408 0.92588 0.0
C1785 C 0.84664 0.39072 0.88743 0.0
C1786 C 0.87084 0.41509 0.91183 0.0
C1787 C 0.87704 0.41393 0.84316 0.0
C1788 C 0.85607 0.39999 0.87014 0.0
C1789 C 0.87208 0.40627 0.78773 0.0
C1790 C 0.83875 0.3863 0.83131 0.0
C1791 C 0.83994 0.37504 0.97085 0.0
N1792 N 0.86189 0.39954 0.80247 0.0
N1793 N 0.84682 0.3851 0.95576 0.0
H1794 H 0.39597 0.10324 0.59166 0.0
H1795 H 0.32749 0.12252 0.68817 0.0
H1796 H 0.37071 0.07698 0.68477 0.0
H1797 H 0.35166 0.14237 0.53982 0.0
H1798 H 0.34241 0.10551 0.69008 0.0
H1799 H 0.37923 0.11757 0.57434 0.0
C1800 C 0.38681 0.10047 0.60793 0.0
C1801 C 0.3847 0.08895 0.63976 0.0
C1802 C 0.34431 0.11357 0.65663 0.0
C1803 C 0.36536 0.10547 0.62138 0.0
C1804 C 0.33584 0.12326 0.65562 0.0
C1805 C 0.33841 0.13397 0.61472 0.0
C1806 C 0.35538 0.1147 0.61663 0.0
C1807 C 0.34933 0.13443 0.57324 0.0
C1808 C 0.37722 0.10865 0.59796 0.0
C1809 C 0.37265 0.08579 0.65957 0.0
N1810 N 0.35738 0.12502 0.57577 0.0
N1811 N 0.3634 0.0941 0.65106 0.0
H1812 H 0.61805 0.59322 0.25623 0.0
H1813 H 0.66006 0.62312 0.55316 0.0
H1814 H 0.62438 0.57525 0.46842 0.0
H1815 H 0.66846 0.62679 0.31738 0.0
H1816 H 0.6472 0.60537 0.52429 0.0
H1817 H 0.63665 0.60535 0.27527 0.0
C1818 C 0.62354 0.59165 0.30606 0.0
C1819 C 0.61972 0.58327 0.36092 0.0
C1820 C 0.65206 0.60988 0.47903 0.0
C1821 C 0.64073 0.59734 0.38414 0.0
C1822 C 0.65936 0.62003 0.49542 0.0
C1823 C 0.66526 0.62642 0.43746 0.0
C1824 C 0.65035 0.60636 0.40388 0.0
C1825 C 0.66408 0.62206 0.36363 0.0
C1826 C 0.63414 0.59855 0.31684 0.0
C1827 C 0.62708 0.58159 0.42464 0.0
N1828 N 0.65651 0.61245 0.34863 0.0
N1829 N 0.63711 0.58879 0.43543 0.0
H1830 H 0.15744 0.87285 0.96823 0.0
H1831 H 0.11747 0.90197 0.27914 0.0
H1832 H 0.1672 0.86831 0.20141 0.0
H1833 H 0.12261 0.92067 0.0681 0.0
H1834 H 0.13578 0.88971 0.25364 0.0
H1835 H 0.14483 0.89054 1.00239 0.0
C1836 C 0.15709 0.87574 0.02648 0.0
C1837 C 0.1633 0.86912 0.08219 0.0
C1838 C 0.13308 0.89669 0.21369 0.0
C1839 C 0.14869 0.88911 0.12183 0.0
C1840 C 0.12263 0.90366 0.22813 0.0
C1841 C 0.11856 0.9123 0.17553 0.0
C1842 C 0.13925 0.8981 0.14502 0.0
C1843 C 0.12551 0.91413 0.1102 0.0
C1844 C 0.14994 0.88585 0.04588 0.0
C1845 C 0.16258 0.87322 0.15682 0.0
N1846 N 0.13538 0.90687 0.09588 0.0
N1847 N 0.15515 0.8828 0.1748 0.0
H1848 H 0.87468 0.58943 0.28909 0.0
H1849 H 0.84529 0.62997 0.98197 0.0
H1850 H 0.8787 0.57982 0.05523 0.0
H1851 H 0.82703 0.62475 0.19449 0.0
H1852 H 0.85748 0.61155 1.00568 0.0
H1853 H 0.85709 0.60228 0.25667 0.0
C1854 C 0.8717 0.58987 0.23105 0.0
C1855 C 0.87814 0.58362 0.17465 0.0
C1856 C 0.85061 0.61427 0.04634 0.0
C1857 C 0.85827 0.59851 0.13697 0.0
C1858 C 0.84368 0.62478 0.03293 0.0
C1859 C 0.83519 0.62886 0.08649 0.0
C1860 C 0.84931 0.60804 0.11488 0.0
C1861 C 0.83345 0.62185 0.15167 0.0
C1862 C 0.86165 0.59716 0.21263 0.0
C1863 C 0.87393 0.58448 0.10033 0.0
N1864 N 0.84067 0.61192 0.16493 0.0
N1865 N 0.86441 0.59203 0.0833 0.0
H1866 H 0.16684 0.12673 0.8103 0.0
H1867 H 0.11879 0.07621 0.95088 0.0
H1868 H 0.15495 0.12333 0.0406 0.0
H1869 H 0.11898 0.09125 0.72667 0.0
H1870 H 0.13666 0.08893 0.9817 0.0
H1871 H 0.15394 0.1091 0.77713 0.0
C1872 C 0.16177 0.12208 0.85415 0.0
C1873 C 0.16186 0.12653 0.92815 0.0
C1874 C 0.1329 0.08926 0.92542 0.0
C1875 C 0.14717 0.10645 0.8908 0.0
C1876 C 0.12276 0.08198 0.90772 0.0
C1877 C 0.11734 0.0828 0.8364 0.0
C1878 C 0.13774 0.09724 0.87097 0.0
C1879 C 0.1228 0.09047 0.78262 0.0
C1880 C 0.15436 0.11209 0.83514 0.0
C1881 C 0.15503 0.12024 0.98274 0.0
N1882 N 0.13266 0.09743 0.80108 0.0
N1883 N 0.14791 0.11056 0.96295 0.0
H1884 H 0.61554 0.40171 0.79003 0.0
H1885 H 0.6559 0.37244 0.48153 0.0
H1886 H 0.62116 0.42052 0.57983 0.0
H1887 H 0.66562 0.3682 0.71498 0.0
H1888 H 0.64314 0.39007 0.51496 0.0
H1889 H 0.63382 0.38934 0.76533 0.0
C1890 C 0.62079 0.40339 0.73939 0.0
C1891 C 0.61688 0.41211 0.68681 0.0
C1892 C 0.64827 0.38545 0.55866 0.0
C1893 C 0.63752 0.39778 0.65719 0.0
C1894 C 0.6555 0.37538 0.53969 0.0
C1895 C 0.66176 0.36887 0.59569 0.0
C1896 C 0.64698 0.38878 0.63447 0.0
C1897 C 0.66096 0.37302 0.67018 0.0
C1898 C 0.63122 0.39636 0.72541 0.0
C1899 C 0.62395 0.41393 0.62193 0.0
N1900 N 0.65345 0.38256 0.68775 0.0
N1901 N 0.63379 0.40661 0.60802 0.0
H1902 H 0.37742 0.9048 0.24102 0.0
H1903 H 0.34027 0.86887 0.53036 0.0
H1904 H 0.37408 0.91918 0.46575 0.0
H1905 H 0.32647 0.87193 0.3042 0.0
H1906 H 0.35268 0.88728 0.50997 0.0
H1907 H 0.35879 0.89271 0.261 0.0
C1908 C 0.37256 0.90561 0.29393 0.0
C1909 C 0.37721 0.91297 0.35182 0.0
C1910 C 0.34669 0.88412 0.46547 0.0
C1911 C 0.35623 0.89892 0.37592 0.0
C1912 C 0.33965 0.87363 0.47703 0.0
C1913 C 0.33236 0.86897 0.41889 0.0
C1914 C 0.34679 0.88967 0.39434 0.0
C1915 C 0.33192 0.87535 0.35055 0.0
C1916 C 0.36195 0.89875 0.30525 0.0
C1917 C 0.37069 0.91367 0.41962 0.0
N1918 N 0.3393 0.88522 0.33939 0.0
N1919 N 0.36068 0.90646 0.4306 0.0
H1920 H 0.11076 0.47737 0.8644 0.0
H1921 H 0.08335 0.51207 0.22312 0.0
H1922 H 0.08537 0.4613 0.02205 0.0
H1923 H 0.10001 0.53155 0.03828 0.0
H1924 H 0.08665 0.4929 0.15671 0.0
H1925 H 0.10936 0.49681 0.93352 0.0
C1926 C 0.10496 0.4779 0.91369 0.0
C1927 C 0.09814 0.46769 0.9373 0.0
C1928 C 0.08961 0.50135 0.13055 0.0
C1929 C 0.09656 0.48982 0.01653 0.0
C1930 C 0.08776 0.51234 0.16859 0.0
C1931 C 0.09134 0.52349 0.13611 0.0
C1932 C 0.09514 0.50141 0.05935 0.0
C1933 C 0.09707 0.52318 0.06534 0.0
C1934 C 0.10413 0.489 0.95284 0.0
C1935 C 0.09074 0.46891 1.00138 0.0
N1936 N 0.09878 0.5123 0.02916 0.0
N1937 N 0.09017 0.47974 0.03868 0.0
H1938 H 0.71401 0.84924 0.29643 0.0
H1939 H 0.78587 0.83594 0.29614 0.0
H1940 H 0.73362 0.83265 0.48098 0.0
H1941 H 0.76912 0.86047 0.13612 0.0
H1942 H 0.76637 0.83414 0.36109 0.0
H1943 H 0.73367 0.85308 0.23333 0.0
C1944 C 0.72242 0.84647 0.32386 0.0
C1945 C 0.72215 0.84056 0.39398 0.0
C1946 C 0.76693 0.83998 0.31201 0.0
C1947 C 0.74457 0.84484 0.3221 0.0
C1948 C 0.77808 0.84098 0.27467 0.0
C1949 C 0.77914 0.84834 0.21041 0.0
C1950 C 0.75664 0.84626 0.28464 0.0
C1951 C 0.76872 0.85472 0.1856 0.0
C1952 C 0.73362 0.84868 0.28787 0.0
C1953 C 0.73333 0.83718 0.42689 0.0
N1954 N 0.75785 0.85345 0.22245 0.0
N1955 N 0.74403 0.8393 0.39053 0.0
H1956 H 0.4119 0.53667 0.53097 0.0
H1957 H 0.39584 0.46541 0.5228 0.0
H1958 H 0.38651 0.52151 0.37 0.0
H1959 H 0.41361 0.48382 0.70794 0.0
H1960 H 0.39263 0.4854 0.46225 0.0
H1961 H 0.41307 0.51691 0.59273 0.0
C1962 C 0.40651 0.5292 0.50864 0.0
C1963 C 0.39909 0.5308 0.44508 0.0
C1964 C 0.39716 0.48501 0.51635 0.0
C1965 C 0.40047 0.50793 0.5157 0.0
C1966 C 0.399 0.47362 0.55087 0.0
C1967 C 0.40507 0.47292 0.62039 0.0
C1968 C 0.40149 0.4957 0.55147 0.0
C1969 C 0.40895 0.48386 0.65423 0.0
C1970 C 0.40717 0.51788 0.54416 0.0
C1971 C 0.39232 0.52071 0.41903 0.0
N1972 N 0.40716 0.49474 0.61931 0.0
N1973 N 0.39324 0.50966 0.45414 0.0
H1974 H 0.76719 0.13619 0.91118 0.0
H1975 H 0.73244 0.1636 0.55297 0.0
H1976 H 0.78313 0.1618 0.7544 0.0
H1977 H 0.71302 0.14654 0.73672 0.0
H1978 H 0.75159 0.1604 0.61946 0.0
H1979 H 0.74777 0.13748 0.84186 0.0
C1980 C 0.76664 0.14202 0.86205 0.0
C1981 C 0.7768 0.14893 0.83874 0.0
C1982 C 0.74316 0.15733 0.64537 0.0
C1983 C 0.7547 0.15038 0.75926 0.0
C1984 C 0.73218 0.15912 0.60727 0.0
C1985 C 0.72105 0.15541 0.63946 0.0
C1986 C 0.74312 0.15172 0.71632 0.0
C1987 C 0.72138 0.14959 0.70993 0.0
C1988 C 0.75555 0.14278 0.82277 0.0
C1989 C 0.77555 0.15636 0.77484 0.0
N1990 N 0.73225 0.14795 0.74618 0.0
N1991 N 0.76473 0.15686 0.73741 0.0
H1992 H 0.88579 0.47834 0.86058 0.0
H1993 H 0.91364 0.51327 0.21682 0.0
H1994 H 0.91105 0.46224 0.01878 0.0
H1995 H 0.89704 0.53263 0.03131 0.0
H1996 H 0.91015 0.49405 0.15157 0.0
H1997 H 0.88739 0.49786 0.92861 0.0
C1998 C 0.89161 0.47888 0.90976 0.0
C1999 C 0.89833 0.46864 0.93386 0.0
C2000 C 0.90724 0.50248 0.12501 0.0
C2001 C 0.90014 0.49086 1.01183 0.0
C2002 C 0.9092 0.5135 0.16238 0.0
C2003 C 0.9057 0.52463 0.12935 0.0
C2004 C 0.90167 0.50249 0.05395 0.0
C2005 C 0.89993 0.52427 0.05876 0.0
C2006 C 0.89255 0.49002 0.9483 0.0
C2007 C 0.90576 0.46988 0.99778 0.0
N2008 N 0.89811 0.51336 0.02323 0.0
N2009 N 0.90643 0.48075 0.03447 0.0
H2010 H 0.22111 0.15216 0.90994 0.0
H2011 H 0.2653 0.15332 0.55136 0.0
H2012 H 0.21136 0.16558 0.68993 0.0
H2013 H 0.27997 0.15459 0.77645 0.0
H2014 H 0.24475 0.15202 0.60309 0.0
H2015 H 0.24201 0.14796 0.86317 0.0
C2016 C 0.22332 0.15405 0.85171 0.0
C2017 C 0.21457 0.15929 0.80368 0.0
C2018 C 0.25244 0.15245 0.6414 0.0
C2019 C 0.23816 0.15438 0.75014 0.0
C2020 C 0.2642 0.15317 0.61192 0.0
C2021 C 0.27434 0.15426 0.65968 0.0
C2022 C 0.25071 0.15291 0.71948 0.0
C2023 C 0.27236 0.1538 0.73772 0.0
C2024 C 0.23521 0.15171 0.82531 0.0
C2025 C 0.21787 0.16164 0.72898 0.0
N2026 N 0.26071 0.15333 0.76544 0.0
N2027 N 0.22936 0.15916 0.70461 0.0
H2028 H 0.59078 0.46255 0.50052 0.0
H2029 H 0.59397 0.53383 0.55757 0.0
H2030 H 0.60624 0.47753 0.70396 0.0
H2031 H 0.60497 0.51795 0.34596 0.0
H2032 H 0.59409 0.51332 0.61406 0.0
H2033 H 0.5916 0.48302 0.44337 0.0
C2034 C 0.59435 0.47013 0.53307 0.0
C2035 C 0.59855 0.46835 0.60683 0.0
C2036 C 0.59651 0.51438 0.55534 0.0
C2037 C 0.59916 0.4917 0.54273 0.0
C2038 C 0.59642 0.52604 0.52307 0.0
C2039 C 0.59957 0.52758 0.44718 0.0
C2040 C 0.59938 0.50418 0.51074 0.0
C2041 C 0.60262 0.51716 0.40489 0.0
C2042 C 0.59484 0.48176 0.50042 0.0
C2043 C 0.60303 0.4785 0.64668 0.0
N2044 N 0.6023 0.50586 0.43701 0.0
N2045 N 0.60309 0.48979 0.61445 0.0
H2046 H 0.26757 0.8608 0.39378 0.0
H2047 H 0.23273 0.83148 0.0413 0.0
H2048 H 0.28386 0.83528 0.23759 0.0
H2049 H 0.21347 0.84951 0.22227 0.0
H2050 H 0.25195 0.8351 0.10628 0.0
H2051 H 0.2481 0.85895 0.32569 0.0
C2052 C 0.26708 0.85488 0.34501 0.0
C2053 C 0.27736 0.84814 0.32157 0.0
C2054 C 0.24354 0.83829 0.13192 0.0
C2055 C 0.25518 0.84604 0.24356 0.0
C2056 C 0.23252 0.83625 0.09469 0.0
C2057 C 0.22142 0.84013 0.12651 0.0
C2058 C 0.24356 0.84432 0.20161 0.0
C2059 C 0.22181 0.84631 0.19581 0.0
C2060 C 0.25596 0.8538 0.30644 0.0
C2061 C 0.27619 0.84058 0.25815 0.0
N2062 N 0.23271 0.8482 0.2312 0.0
N2063 N 0.26533 0.83976 0.22147 0.0
H2064 H 0.58489 0.95997 0.53461 0.0
H2065 H 0.60081 0.03132 0.54485 0.0
H2066 H 0.61032 0.97636 0.37846 0.0
H2067 H 0.58324 0.01177 0.72616 0.0
H2068 H 0.60392 0.01176 0.47923 0.0
H2069 H 0.58356 0.97936 0.60154 0.0
C2070 C 0.59021 0.96765 0.51435 0.0
C2071 C 0.59771 0.96653 0.45063 0.0
C2072 C 0.59946 0.01179 0.53361 0.0
C2073 C 0.59618 0.98889 0.52722 0.0
C2074 C 0.59767 0.02294 0.57104 0.0
C2075 C 0.5917 0.02321 0.64103 0.0
C2076 C 0.59515 0.00088 0.5662 0.0
C2077 C 0.58784 0.01206 0.67229 0.0
C2078 C 0.58948 0.97874 0.55284 0.0
C2079 C 0.60445 0.97682 0.42745 0.0
N2080 N 0.58956 0.0014 0.63452 0.0
N2081 N 0.60346 0.98761 0.46543 0.0
H2082 H 0.21264 0.3492 0.7886 0.0
H2083 H 0.28448 0.33553 0.7796 0.0
H2084 H 0.2325 0.33139 0.96769 0.0
H2085 H 0.2673 0.36044 0.6236 0.0
H2086 H 0.26512 0.33345 0.84585 0.0
H2087 H 0.23214 0.353 0.72387 0.0
C2088 C 0.22107 0.34613 0.81444 0.0
C2089 C 0.22091 0.33992 0.88363 0.0
C2090 C 0.26555 0.33942 0.79736 0.0
C2091 C 0.24319 0.34419 0.80984 0.0
C2092 C 0.27663 0.3406 0.75926 0.0
C2093 C 0.27752 0.34815 0.6957 0.0
C2094 C 0.25518 0.34574 0.77152 0.0
C2095 C 0.26702 0.35454 0.67247 0.0
C2096 C 0.23219 0.34832 0.77753 0.0
C2097 C 0.23213 0.33617 0.91446 0.0
N2098 N 0.25624 0.35313 0.71006 0.0
N2099 N 0.24276 0.33831 0.87725 0.0
H2100 H 0.9112 0.96255 1.00453 0.0
H2101 H 0.8952 0.03383 0.99434 0.0
H2102 H 0.88593 0.97895 0.16182 0.0
H2103 H 0.91241 0.01418 0.81197 0.0
H2104 H 0.89213 0.01429 0.06015 0.0
H2105 H 0.91231 0.98187 0.93702 0.0
C2106 C 0.90586 0.97022 0.0249 0.0
C2107 C 0.89848 0.96912 0.08912 0.0
C2108 C 0.8965 0.0143 1.00549 0.0
C2109 C 0.89977 0.99141 1.01188 0.0
C2110 C 0.89827 0.02543 0.96796 0.0
C2111 C 0.90413 0.02567 0.89765 0.0
C2112 C 0.90073 0.00337 0.97268 0.0
C2113 C 0.9079 0.0145 0.86612 0.0
C2114 C 0.90647 0.98127 0.98607 0.0
C2115 C 0.89172 0.97939 0.11245 0.0
N2116 N 0.9062 0.00386 0.904 0.0
N2117 N 0.89259 0.99016 0.07414 0.0
H2118 H 0.28385 0.66197 0.22726 0.0
H2119 H 0.21235 0.64656 0.21866 0.0
H2120 H 0.26733 0.63646 0.38238 0.0
H2121 H 0.23178 0.66478 0.03924 0.0
H2122 H 0.23195 0.64323 0.28328 0.0
H2123 H 0.2644 0.66368 0.1615 0.0
C2124 C 0.27613 0.6567 0.24754 0.0
C2125 C 0.27723 0.64908 0.31064 0.0
C2126 C 0.23189 0.64789 0.22955 0.0
C2127 C 0.2548 0.65105 0.23541 0.0
C2128 C 0.22071 0.64981 0.1927 0.0
C2129 C 0.2204 0.65599 0.12348 0.0
C2130 C 0.24277 0.65229 0.19716 0.0
C2131 C 0.23153 0.65999 0.09251 0.0
C2132 C 0.265 0.65766 0.20973 0.0
C2133 C 0.26689 0.64242 0.33386 0.0
N2134 N 0.24221 0.65813 0.12968 0.0
N2135 N 0.25606 0.64362 0.29654 0.0
H2136 H 0.39668 0.03293 0.5334 0.0
H2137 H 0.41064 0.96127 0.5337 0.0
H2138 H 0.41166 0.01341 0.72333 0.0
H2139 H 0.38614 0.97776 0.37249 0.0
H2140 H 0.41195 0.98076 0.59966 0.0
H2141 H 0.39339 0.01327 0.46942 0.0
C2142 C 0.3992 0.02454 0.56184 0.0
C2143 C 0.40451 0.02484 0.63377 0.0
C2144 C 0.40623 0.98013 0.55008 0.0
C2145 C 0.40087 0.00239 0.56074 0.0
C2146 C 0.40551 0.96899 0.51217 0.0
C2147 C 0.39828 0.96787 0.44735 0.0
C2148 C 0.39981 0.99034 0.52265 0.0
C2149 C 0.3918 0.97821 0.4224 0.0
C2150 C 0.39731 0.01333 0.52533 0.0
C2151 C 0.40758 0.01367 0.66791 0.0
N2152 N 0.39279 0.98906 0.45977 0.0
N2153 N 0.4058 0.00294 0.63092 0.0
H2154 H 0.71467 0.64531 0.28439 0.0
H2155 H 0.77198 0.63278 0.12129 0.0
H2156 H 0.73583 0.66205 0.46179 0.0
H2157 H 0.78459 0.66224 0.26334 0.0
H2158 H 0.75216 0.63346 0.18527 0.0
H2159 H 0.73361 0.6417 0.21427 0.0
C2160 C 0.7233 0.64809 0.30901 0.0
C2161 C 0.72364 0.654 0.37916 0.0
C2162 C 0.75919 0.63989 0.2018 0.0
C2163 C 0.7454 0.64974 0.29975 0.0
C2164 C 0.77058 0.63941 0.16576 0.0
C2165 C 0.77996 0.64754 0.18645 0.0
C2166 C 0.75721 0.64853 0.25914 0.0
C2167 C 0.77763 0.65588 0.24479 0.0
C2168 C 0.73415 0.64593 0.26914 0.0
C2169 C 0.73508 0.65747 0.40802 0.0
N2170 N 0.76653 0.65613 0.27906 0.0
N2171 N 0.74546 0.65537 0.368 0.0
H2172 H 0.11096 0.97787 0.15434 0.0
H2173 H 0.0817 0.01225 0.8001 0.0
H2174 H 0.08568 0.96133 0.99789 0.0
H2175 H 0.09887 0.03191 0.98252 0.0
H2176 H 0.0856 0.99311 0.86536 0.0
H2177 H 0.109 0.99733 0.08591 0.0
C2178 C 0.10507 0.9783 0.10542 0.0
C2179 C 0.09843 0.96797 0.08202 0.0
C2180 C 0.08854 0.00159 0.89127 0.0
C2181 C 0.0962 0.99011 1.00364 0.0
C2182 C 0.08634 0.01257 0.85388 0.0
C2183 C 0.08989 0.02376 0.88601 0.0
C2184 C 0.09439 0.0017 0.96147 0.0
C2185 C 0.09593 0.0235 0.95578 0.0
C2186 C 0.10392 0.98941 0.06668 0.0
C2187 C 0.0909 0.96906 0.01844 0.0
N2188 N 0.09798 0.01264 0.99135 0.0
N2189 N 0.09002 0.9799 0.98158 0.0
H2190 H 0.71256 0.3504 0.73577 0.0
H2191 H 0.78419 0.33574 0.74045 0.0
H2192 H 0.73201 0.33282 0.55389 0.0
H2193 H 0.76764 0.36099 0.89721 0.0
H2194 H 0.76471 0.334 0.67511 0.0
H2195 H 0.73221 0.35394 0.79945 0.0
C2196 C 0.72094 0.34734 0.70907 0.0
C2197 C 0.72062 0.34125 0.6395 0.0
C2198 C 0.76531 0.33998 0.72359 0.0
C2199 C 0.74304 0.3452 0.71207 0.0
C2200 C 0.77645 0.34094 0.76116 0.0
C2201 C 0.77755 0.3485 0.8246 0.0
C2202 C 0.75509 0.3465 0.74989 0.0
C2203 C 0.7672 0.35508 0.8484 0.0
C2204 C 0.73213 0.34938 0.74538 0.0
C2205 C 0.73176 0.33751 0.6075 0.0
N2206 N 0.75635 0.35386 0.81134 0.0
N2207 N 0.74246 0.33947 0.64418 0.0
H2208 H 0.02926 0.56006 0.32492 0.0
H2209 H 0.96821 0.55232 0.07984 0.0
H2210 H 0.02895 0.55179 0.08756 0.0
H2211 H 0.96788 0.56054 0.3173 0.0
H2212 H 0.99049 0.55152 0.08325 0.0
H2213 H 0.00685 0.55992 0.32462 0.0
C2214 C 0.02449 0.55822 0.27276 0.0
C2215 C 0.03104 0.5559 0.20623 0.0
C2216 C 0.98557 0.55346 0.13475 0.0
C2217 C 0.00536 0.55567 0.20556 0.0
C2218 C 0.97281 0.55383 0.13299 0.0
C2219 C 0.96611 0.55643 0.19853 0.0
C2220 C 0.99176 0.55573 0.2025 0.0
C2221 C 0.97265 0.5586 0.26527 0.0
C2222 C 0.01169 0.55809 0.2727 0.0
C2223 C 0.02434 0.55343 0.1405 0.0
N2224 N 0.9851 0.5582 0.26555 0.0
N2225 N 0.01191 0.55341 0.14184 0.0
H2226 H 0.68731 0.71606 0.577 0.0
H2227 H 0.69482 0.77791 0.33932 0.0
H2228 H 0.69558 0.71711 0.33972 0.0
H2229 H 0.68673 0.77744 0.57693 0.0
H2230 H 0.6957 0.75563 0.33997 0.0
H2231 H 0.68743 0.73847 0.57937 0.0
C2232 C 0.68915 0.72099 0.5254 0.0
C2233 C 0.69146 0.71465 0.45809 0.0
C2234 C 0.69378 0.76037 0.39211 0.0
C2235 C 0.69167 0.74033 0.46051 0.0
C2236 C 0.69336 0.77314 0.39193 0.0
C2237 C 0.69077 0.77962 0.45833 0.0
C2238 C 0.69156 0.75395 0.45912 0.0
C2239 C 0.68866 0.77285 0.52429 0.0
C2240 C 0.68927 0.73379 0.52688 0.0
C2241 C 0.69394 0.72155 0.39319 0.0
N2242 N 0.6891 0.7604 0.52301 0.0
N2243 N 0.69394 0.73399 0.39602 0.0
H2244 H 0.46641 0.4183 0.67405 0.0
H2245 H 0.52824 0.45776 0.65907 0.0
H2246 H 0.46685 0.45782 0.67785 0.0
H2247 H 0.52713 0.41827 0.66564 0.0
H2248 H 0.50581 0.45813 0.6621 0.0
H2249 H 0.48869 0.41827 0.66953 0.0
C2250 C 0.47118 0.42699 0.67477 0.0
C2251 C 0.46469 0.43809 0.67691 0.0
C2252 C 0.51049 0.44939 0.66289 0.0
C2253 C 0.49034 0.43811 0.67022 0.0
C2254 C 0.52329 0.44917 0.6607 0.0
C2255 C 0.5296 0.43797 0.6626 0.0
C2256 C 0.50394 0.43833 0.66666 0.0
C2257 C 0.52269 0.42713 0.66542 0.0
C2258 C 0.48394 0.42696 0.67153 0.0
C2259 C 0.47144 0.44905 0.67571 0.0
N2260 N 0.51027 0.42759 0.66741 0.0
N2261 N 0.48389 0.44879 0.6725 0.0
H2262 H 0.82902 0.27948 0.90887 0.0
H2263 H 0.78845 0.21844 0.88678 0.0
H2264 H 0.78976 0.27987 0.88166 0.0
H2265 H 0.82769 0.21876 0.91525 0.0
H2266 H 0.78863 0.24085 0.88185 0.0
H2267 H 0.82858 0.25717 0.90966 0.0
C2268 C 0.82028 0.27488 0.90353 0.0
C2269 C 0.80939 0.2816 0.89575 0.0
C2270 C 0.79719 0.23601 0.88921 0.0
C2271 C 0.80884 0.25594 0.89567 0.0
C2272 C 0.7971 0.22321 0.89167 0.0
C2273 C 0.80806 0.21668 0.90191 0.0
C2274 C 0.80832 0.24234 0.8968 0.0
C2275 C 0.81899 0.22338 0.90866 0.0
C2276 C 0.82004 0.26211 0.90351 0.0
C2277 C 0.79838 0.27508 0.88728 0.0
N2278 N 0.81883 0.2358 0.90602 0.0
N2279 N 0.79838 0.26262 0.88771 0.0
H2280 H 0.96742 0.41669 0.85786 0.0
H2281 H 0.02891 0.45645 0.88669 0.0
H2282 H 0.96746 0.45598 0.88436 0.0
H2283 H 0.02815 0.4172 0.85908 0.0
H2284 H 0.00649 0.45658 0.88928 0.0
H2285 H 0.98972 0.41683 0.86016 0.0
C2286 C 0.97212 0.42537 0.86369 0.0
C2287 C 0.96552 0.43635 0.87032 0.0
C2288 C 0.01124 0.44794 0.88266 0.0
C2289 C 0.99118 0.43656 0.87396 0.0
C2290 C 0.02404 0.44786 0.88154 0.0
C2291 C 0.03045 0.43681 0.87217 0.0
C2292 C 0.00478 0.43689 0.87456 0.0
C2293 C 0.02363 0.42596 0.86503 0.0
C2294 C 0.98488 0.42543 0.86548 0.0
C2295 C 0.97215 0.44728 0.87953 0.0
N2296 N 0.0112 0.42629 0.86632 0.0
N2297 N 0.98461 0.44711 0.88082 0.0
H2298 H 0.80782 0.77911 0.25824 0.0
H2299 H 0.80993 0.71869 1.00306 0.0
H2300 H 0.8096 0.77959 0.01576 0.0
H2301 H 0.80701 0.71794 0.24504 0.0
H2302 H 0.80931 0.74103 1.00681 0.0
H2303 H 0.80682 0.75676 0.25475 0.0
C2304 C 0.80789 0.77454 0.2042 0.0
C2305 C 0.80884 0.78127 0.13717 0.0
C2306 C 0.80876 0.73599 0.05913 0.0
C2307 C 0.80784 0.75563 0.13286 0.0
C2308 C 0.80918 0.72323 0.05705 0.0
C2309 C 0.80859 0.71641 0.12387 0.0
C2310 C 0.80779 0.74204 0.12858 0.0
C2311 C 0.80739 0.7228 0.19207 0.0
C2312 C 0.80739 0.76176 0.2023 0.0
C2313 C 0.80908 0.77479 0.06892 0.0
N2314 N 0.80709 0.73525 0.1927 0.0
N2315 N 0.80861 0.76236 0.06856 0.0
H2316 H 0.46826 0.54192 0.40586 0.0
H2317 H 0.53034 0.58096 0.41443 0.0
H2318 H 0.46964 0.58142 0.4029 0.0
H2319 H 0.52967 0.54145 0.41464 0.0
H2320 H 0.50803 0.58115 0.415 0.0
H2321 H 0.49062 0.54141 0.41442 0.0
C2322 C 0.47325 0.55049 0.40745 0.0
C2323 C 0.46704 0.56174 0.40323 0.0
C2324 C 0.51273 0.57242 0.41505 0.0
C2325 C 0.49266 0.5612 0.4125 0.0
C2326 C 0.52549 0.5723 0.41435 0.0
C2327 C 0.53191 0.56117 0.4137 0.0
C2328 C 0.50626 0.56132 0.41501 0.0
C2329 C 0.52511 0.55025 0.41543 0.0
C2330 C 0.48602 0.55018 0.41198 0.0
C2331 C 0.47402 0.57253 0.40469 0.0
N2332 N 0.51265 0.55059 0.41558 0.0
N2333 N 0.48642 0.57199 0.40911 0.0
H2334 H 0.69283 0.21766 0.69239 0.0
H2335 H 0.68356 0.2791 0.4529 0.0
H2336 H 0.68411 0.21771 0.45565 0.0
H2337 H 0.69264 0.27846 0.68906 0.0
H2338 H 0.68396 0.25669 0.45161 0.0
H2339 H 0.69327 0.23996 0.69072 0.0
C2340 C 0.69113 0.22234 0.63976 0.0
C2341 C 0.68849 0.21574 0.57391 0.0
C2342 C 0.68591 0.26146 0.50362 0.0
C2343 C 0.68878 0.24142 0.57196 0.0
C2344 C 0.68563 0.27426 0.50449 0.0
C2345 C 0.6881 0.28071 0.57114 0.0
C2346 C 0.68864 0.25503 0.56995 0.0
C2347 C 0.69087 0.27392 0.63605 0.0
C2348 C 0.6913 0.23511 0.639 0.0
C2349 C 0.68608 0.22239 0.50791 0.0
N2350 N 0.69103 0.26149 0.63382 0.0
N2351 N 0.68628 0.23485 0.50861 0.0
H2352 H 0.30738 0.27978 0.49274 0.0
H2353 H 0.30032 0.21776 0.72916 0.0
H2354 H 0.30441 0.27871 0.73475 0.0
H2355 H 0.30754 0.21869 0.49063 0.0
H2356 H 0.3 0.24013 0.73077 0.0
H2357 H 0.30596 0.25747 0.48974 0.0
C2358 C 0.30647 0.27487 0.54533 0.0
C2359 C 0.30608 0.28117 0.61416 0.0
C2360 C 0.3016 0.23545 0.67799 0.0
C2361 C 0.30429 0.25557 0.61096 0.0
C2362 C 0.30168 0.22266 0.67689 0.0
C2363 C 0.30395 0.21632 0.60958 0.0
C2364 C 0.30377 0.24198 0.61127 0.0
C2365 C 0.30588 0.22319 0.54391 0.0
C2366 C 0.30559 0.26212 0.5435 0.0
C2367 C 0.30462 0.27429 0.68029 0.0
N2368 N 0.30576 0.23563 0.54642 0.0
N2369 N 0.30381 0.26187 0.67704 0.0
H2370 H 0.16636 0.7175 0.05161 0.0
H2371 H 0.20676 0.77874 0.04557 0.0
H2372 H 0.20586 0.71739 0.04418 0.0
H2373 H 0.16728 0.77832 0.05703 0.0
H2374 H 0.20671 0.75634 0.04215 0.0
H2375 H 0.16661 0.73981 0.0492 0.0
C2376 C 0.1751 0.72215 0.04864 0.0
C2377 C 0.18611 0.71551 0.04772 0.0
C2378 C 0.19806 0.76116 0.04516 0.0
C2379 C 0.18646 0.74119 0.04621 0.0
C2380 C 0.19808 0.77396 0.04745 0.0
C2381 C 0.18701 0.78047 0.05141 0.0
C2382 C 0.18689 0.7548 0.04702 0.0
C2383 C 0.17604 0.77375 0.05275 0.0
C2384 C 0.17523 0.73493 0.04785 0.0
C2385 C 0.19715 0.72211 0.04564 0.0
N2386 N 0.17627 0.76131 0.05072 0.0
N2387 N 0.19704 0.73457 0.04496 0.0
H2388 H 0.16619 0.27871 0.9437 0.0
H2389 H 0.20235 0.21673 0.03117 0.0
H2390 H 0.20499 0.27807 0.98863 0.0
H2391 H 0.16764 0.21799 0.91493 0.0
H2392 H 0.20288 0.23913 0.03032 0.0
H2393 H 0.16587 0.25636 0.94905 0.0
C2394 C 0.17463 0.27386 0.95535 0.0
C2395 C 0.18563 0.28026 0.96602 0.0
C2396 C 0.19516 0.23446 1.00518 0.0
C2397 C 0.18533 0.25464 0.97186 0.0
C2398 C 0.19485 0.22165 1.00527 0.0
C2399 C 0.18491 0.21534 0.97317 0.0
C2400 C 0.1854 0.24104 0.97349 0.0
C2401 C 0.17538 0.22234 0.9418 0.0
C2402 C 0.17446 0.26109 0.95786 0.0
C2403 C 0.19633 0.27348 0.9797 0.0
N2404 N 0.17586 0.23476 0.94294 0.0
N2405 N 0.19591 0.26103 0.98256 0.0
H2406 H 0.32901 0.71789 0.3943 0.0
H2407 H 0.28915 0.77936 0.36938 0.0
H2408 H 0.28974 0.71793 0.36726 0.0
H2409 H 0.32836 0.77863 0.39899 0.0
H2410 H 0.28908 0.75694 0.3654 0.0
H2411 H 0.32883 0.7402 0.39428 0.0
C2412 C 0.32032 0.72259 0.38883 0.0
C2413 C 0.30936 0.71599 0.38136 0.0
C2414 C 0.29769 0.7617 0.37279 0.0
C2415 C 0.30911 0.74165 0.38033 0.0
C2416 C 0.29775 0.7745 0.3747 0.0
C2417 C 0.30877 0.78091 0.38493 0.0
C2418 C 0.30874 0.75525 0.38093 0.0
C2419 C 0.31961 0.77411 0.39231 0.0
C2420 C 0.32024 0.73535 0.38835 0.0
C2421 C 0.29843 0.72262 0.37268 0.0
N2422 N 0.31932 0.76168 0.39019 0.0
N2423 N 0.29857 0.73508 0.37264 0.0
H2424 H 0.5295 0.07647 0.7022 0.0
H2425 H 0.46805 0.03645 0.71958 0.0
H2426 H 0.52965 0.03704 0.71845 0.0
H2427 H 0.46894 0.07568 0.69061 0.0
H2428 H 0.49049 0.03628 0.72198 0.0
H2429 H 0.50721 0.0762 0.70249 0.0
C2430 C 0.52485 0.06774 0.70663 0.0
C2431 C 0.5315 0.05676 0.71085 0.0
C2432 C 0.48575 0.04492 0.71533 0.0
C2433 C 0.50583 0.05637 0.70994 0.0
C2434 C 0.47294 0.04502 0.71365 0.0
C2435 C 0.46655 0.05611 0.70553 0.0
C2436 C 0.49223 0.05598 0.70867 0.0
C2437 C 0.47341 0.06693 0.69863 0.0
C2438 C 0.51209 0.06758 0.70618 0.0
C2439 C 0.52491 0.04572 0.71462 0.0
N2440 N 0.48583 0.06659 0.70038 0.0
N2441 N 0.51245 0.0458 0.71418 0.0
H2442 H 0.02939 0.93882 0.28009 0.0
H2443 H 0.96776 0.94027 0.03624 0.0
H2444 H 0.02889 0.93961 0.03745 0.0
H2445 H 0.96842 0.93927 0.27885 0.0
H2446 H 0.99012 0.94095 0.03545 0.0
H2447 H 0.00706 0.93968 0.28062 0.0
C2448 C 0.02459 0.93915 0.22687 0.0
C2449 C 0.03106 0.93909 0.15861 0.0
C2450 C 0.98537 0.94062 0.08887 0.0
C2451 C 0.00542 0.94017 0.15881 0.0
C2452 C 0.97259 0.94031 0.0894 0.0
C2453 C 0.96617 0.93969 0.15775 0.0
C2454 C 0.99182 0.94031 0.15717 0.0
C2455 C 0.97296 0.93957 0.22479 0.0
C2456 C 0.01183 0.9397 0.22722 0.0
C2457 C 0.02432 0.93976 0.09144 0.0
N2458 N 0.9854 0.93985 0.22279 0.0
N2459 N 0.01188 0.94022 0.09324 0.0
H2460 H 0.52833 0.91533 0.37033 0.0
H2461 H 0.46716 0.95559 0.39853 0.0
H2462 H 0.52858 0.9546 0.39728 0.0
H2463 H 0.4676 0.91633 0.37065 0.0
H2464 H 0.48958 0.95552 0.40125 0.0
H2465 H 0.50603 0.91564 0.37207 0.0
C2466 C 0.5237 0.92404 0.37614 0.0
C2467 C 0.53037 0.93497 0.38307 0.0
C2468 C 0.48476 0.94693 0.39454 0.0
C2469 C 0.50472 0.93538 0.38608 0.0
C2470 C 0.47195 0.94695 0.39335 0.0
C2471 C 0.46546 0.93596 0.38392 0.0
C2472 C 0.49112 0.93583 0.38645 0.0
C2473 C 0.47219 0.92506 0.37669 0.0
C2474 C 0.51094 0.92421 0.37761 0.0
C2475 C 0.52383 0.94595 0.39223 0.0
N2476 N 0.48462 0.92528 0.37806 0.0
N2477 N 0.51137 0.94588 0.39322 0.0
H2478 H 0.02761 0.05249 0.94013 0.0
H2479 H 0.96575 0.06201 0.70522 0.0
H2480 H 0.02713 0.06045 0.70239 0.0
H2481 H 0.96685 0.05353 0.94217 0.0
H2482 H 0.98815 0.06127 0.70193 0.0
H2483 H 0.00532 0.05237 0.94046 0.0
C2484 C 0.02283 0.05408 0.88769 0.0
C2485 C 0.02932 0.05641 0.82098 0.0
C2486 C 0.98348 0.05953 0.75456 0.0
C2487 C 0.00364 0.05652 0.82133 0.0
C2488 C 0.97069 0.06001 0.75657 0.0
C2489 C 0.96437 0.05779 0.82402 0.0
C2490 C 0.99003 0.05687 0.82055 0.0
C2491 C 0.97127 0.05511 0.88859 0.0
C2492 C 0.01006 0.0541 0.88808 0.0
C2493 C 0.02255 0.05871 0.75527 0.0
N2494 N 0.98369 0.05475 0.88524 0.0
N2495 N 0.01009 0.05871 0.75711 0.0
loop_
_geom_bond_atom_site_label_1
_geom_bond_atom_site_label_2
_geom_bond_distance
_geom_bond_site_symmetry_2
_ccdc_geom_bond_type
C0 C1 1.351 . S
C0 N3 1.368 . S
C0 H5 0.931 . S
C1 C0 1.351 . S
C1 N2 1.373 . S
C1 H29 0.930 . S
N2 C1 1.373 . S
N2 C4 1.340 . S
N3 C0 1.368 . S
N3 C4 1.321 . S
N3 Co6 2.135 1_556 S
C4 N2 1.340 . S
C4 N3 1.321 . S
C4 H28 0.930 . S
H5 C0 0.931 . S
Co6 N3 2.135 1_554 S
Co6 N9 2.121 . S
Co6 O14 2.055 . S
Co6 O17 2.039 . S
Co6 N20 2.140 . S
C7 O8 1.227 . S
C7 O17 1.265 . S
O8 C7 1.227 . S
N9 Co6 2.121 . S
N9 C11 1.375 . S
N9 C12 1.313 . S
C10 C11 1.338 . S
C10 N13 1.377 . S
C10 H30 0.930 . S
C11 N9 1.375 . S
C11 C10 1.338 . S
C11 H15 0.931 . S
C12 N9 1.313 . S
C12 N13 1.344 . S
C12 H16 0.930 . S
N13 C10 1.377 . S
N13 C12 1.344 . S
O14 Co6 2.055 . S
O14 C18 1.253 . S
H15 C11 0.931 . S
H16 C12 0.930 . S
O17 Co6 2.039 . S
O17 C7 1.265 . S
C18 O14 1.253 . S
C18 O19 1.227 . S
O19 C18 1.227 . S
N20 Co6 2.140 . S
N20 C23 1.346 1_554 S
N20 C24 1.345 . S
C21 C22 1.387 1_554 S
C21 C25 1.391 . S
C22 C21 1.387 1_556 S
C22 C23 1.369 . S
C22 H31 0.929 . S
C23 N20 1.346 1_556 S
C23 C22 1.369 . S
C23 H26 0.928 . S
C24 N20 1.345 . S
C24 C25 1.371 . S
C24 H27 0.931 . S
C25 C21 1.391 . S
C25 C24 1.371 . S
C25 H32 0.930 . S
H26 C23 0.928 . S
H27 C24 0.931 . S
H28 C4 0.930 . S
H29 C1 0.930 . S
H30 C10 0.930 . S
H31 C22 0.929 . S
H32 C25 0.930 . S
C33 C34 1.351 . S
C33 N36 1.368 . S
C33 H38 0.931 . S
C34 C33 1.351 . S
C34 N35 1.373 . S
C34 H62 0.930 . S
N35 C34 1.373 . S
N35 C37 1.340 . S
N36 C33 1.368 . S
N36 C37 1.321 . S
N36 Co39 2.135 . S
C37 N35 1.340 . S
C37 N36 1.321 . S
C37 H61 0.930 . S
H38 C33 0.931 . S
Co39 N36 2.135 . S
Co39 N42 2.121 . S
Co39 O47 2.055 . S
Co39 O50 2.039 . S
Co39 N53 2.140 . S
C40 O41 1.227 . S
C40 O50 1.265 . S
O41 C40 1.227 . S
N42 Co39 2.121 . S
N42 C44 1.375 . S
N42 C45 1.313 . S
C43 C44 1.338 . S
C43 N46 1.377 . S
C43 H63 0.930 . S
C44 N42 1.375 . S
C44 C43 1.338 . S
C44 H48 0.931 . S
C45 N42 1.313 . S
C45 N46 1.344 . S
C45 H49 0.930 . S
N46 C43 1.377 . S
N46 C45 1.344 . S
O47 Co39 2.055 . S
O47 C51 1.253 . S
H48 C44 0.931 . S
H49 C45 0.930 . S
O50 Co39 2.039 . S
O50 C40 1.265 . S
C51 O47 1.253 . S
C51 O52 1.227 . S
O52 C51 1.227 . S
N53 Co39 2.140 . S
N53 C56 1.346 . S
N53 C57 1.345 . S
C54 C55 1.387 . S
C54 C58 1.391 . S
C55 C54 1.387 . S
C55 C56 1.369 . S
C55 H64 0.929 . S
C56 N53 1.346 . S
C56 C55 1.369 . S
C56 H59 0.928 . S
C57 N53 1.345 . S
C57 C58 1.371 . S
C57 H60 0.931 . S
C58 C54 1.391 . S
C58 C57 1.371 . S
C58 H65 0.930 . S
H59 C56 0.928 . S
H60 C57 0.931 . S
H61 C37 0.930 . S
H62 C34 0.930 . S
H63 C43 0.930 . S
H64 C55 0.929 . S
H65 C58 0.930 . S
C66 C67 1.351 . S
C66 N69 1.368 . S
C66 H71 0.931 . S
C67 C66 1.351 . S
C67 N68 1.373 . S
C67 H95 0.930 . S
N68 C67 1.373 . S
N68 C70 1.340 . S
N69 C66 1.368 . S
N69 C70 1.321 . S
N69 Co72 2.135 . S
C70 N68 1.340 . S
C70 N69 1.321 . S
C70 H94 0.930 . S
H71 C66 0.931 . S
Co72 N69 2.135 . S
Co72 N75 2.121 . S
Co72 O80 2.055 . S
Co72 O83 2.039 . S
Co72 N86 2.140 . S
C73 O74 1.227 . S
C73 O83 1.265 . S
O74 C73 1.227 . S
N75 Co72 2.121 . S
N75 C77 1.375 . S
N75 C78 1.313 . S
C76 C77 1.338 . S
C76 N79 1.377 . S
C76 H96 0.930 . S
C77 N75 1.375 . S
C77 C76 1.338 . S
C77 H81 0.931 . S
C78 N75 1.313 . S
C78 N79 1.344 . S
C78 H82 0.930 . S
N79 C76 1.377 . S
N79 C78 1.344 . S
O80 Co72 2.055 . S
O80 C84 1.253 . S
H81 C77 0.931 . S
H82 C78 0.930 . S
O83 Co72 2.039 . S
O83 C73 1.265 . S
C84 O80 1.253 . S
C84 O85 1.227 . S
O85 C84 1.227 . S
N86 Co72 2.140 . S
N86 C89 1.346 . S
N86 C90 1.345 . S
C87 C88 1.387 . S
C87 C91 1.391 . S
C88 C87 1.387 . S
C88 C89 1.369 . S
C88 H97 0.929 . S
C89 N86 1.346 . S
C89 C88 1.369 . S
C89 H92 0.928 . S
C90 N86 1.345 . S
C90 C91 1.371 . S
C90 H93 0.931 . S
C91 C87 1.391 . S
C91 C90 1.371 . S
C91 H98 0.930 . S
H92 C89 0.928 . S
H93 C90 0.931 . S
H94 C70 0.930 . S
H95 C67 0.930 . S
H96 C76 0.930 . S
H97 C88 0.929 . S
H98 C91 0.930 . S
C99 C100 1.351 . S
C99 N102 1.368 . S
C99 H104 0.931 . S
C100 C99 1.351 . S
C100 N101 1.373 . S
C100 H128 0.930 . S
N101 C100 1.373 . S
N101 C103 1.340 . S
N102 C99 1.368 . S
N102 C103 1.321 . S
N102 Co105 2.135 . S
C103 N101 1.340 . S
C103 N102 1.321 . S
C103 H127 0.930 . S
H104 C99 0.931 . S
Co105 N102 2.135 . S
Co105 N108 2.121 . S
Co105 O113 2.055 . S
Co105 O116 2.039 . S
Co105 N119 2.140 . S
C106 O107 1.227 . S
C106 O116 1.265 . S
O107 C106 1.227 . S
N108 Co105 2.121 . S
N108 C110 1.375 . S
N108 C111 1.313 . S
C109 C110 1.338 1_554 S
C109 N112 1.377 . S
C109 H129 0.930 . S
C110 N108 1.375 . S
C110 C109 1.338 1_556 S
C110 H114 0.931 . S
C111 N108 1.313 . S
C111 N112 1.344 1_556 S
C111 H115 0.930 . S
N112 C109 1.377 . S
N112 C111 1.344 1_554 S
O113 Co105 2.055 . S
O113 C117 1.253 . S
H114 C110 0.931 . S
H115 C111 0.930 . S
O116 Co105 2.039 . S
O116 C106 1.265 . S
C117 O113 1.253 . S
C117 O118 1.227 . S
O118 C117 1.227 . S
N119 Co105 2.140 . S
N119 C122 1.346 . S
N119 C123 1.345 . S
C120 C121 1.387 . S
C120 C124 1.391 . S
C121 C120 1.387 . S
C121 C122 1.369 . S
C121 H130 0.929 . S
C122 N119 1.346 . S
C122 C121 1.369 . S
C122 H125 0.928 . S
C123 N119 1.345 . S
C123 C124 1.371 . S
C123 H126 0.931 . S
C124 C120 1.391 . S
C124 C123 1.371 . S
C124 H131 0.930 . S
H125 C122 0.928 . S
H126 C123 0.931 . S
H127 C103 0.930 . S
H128 C100 0.930 . S
H129 C109 0.930 . S
H130 C121 0.929 . S
H131 C124 0.930 . S
C132 C133 1.351 . S
C132 N135 1.368 . S
C132 H137 0.931 . S
C133 C132 1.351 . S
C133 N134 1.373 . S
C133 H161 0.930 . S
N134 C133 1.373 . S
N134 C136 1.340 . S
N135 C132 1.368 . S
N135 C136 1.321 . S
N135 Co138 2.135 1_554 S
C136 N134 1.340 . S
C136 N135 1.321 . S
C136 H160 0.930 . S
H137 C132 0.931 . S
Co138 N135 2.135 1_556 S
Co138 N141 2.121 . S
Co138 O146 2.055 . S
Co138 O149 2.039 . S
Co138 N152 2.140 . S
C139 O140 1.227 . S
C139 O149 1.265 . S
O140 C139 1.227 . S
N141 Co138 2.121 . S
N141 C143 1.375 . S
N141 C144 1.313 . S
C142 C143 1.338 . S
C142 N145 1.377 . S
C142 H162 0.930 . S
C143 N141 1.375 . S
C143 C142 1.338 . S
C143 H147 0.931 . S
C144 N141 1.313 . S
C144 N145 1.344 . S
C144 H148 0.930 . S
N145 C142 1.377 . S
N145 C144 1.344 . S
O146 Co138 2.055 . S
O146 C150 1.253 . S
H147 C143 0.931 . S
H148 C144 0.930 . S
O149 Co138 2.039 . S
O149 C139 1.265 . S
C150 O146 1.253 . S
C150 O151 1.227 . S
O151 C150 1.227 . S
N152 Co138 2.140 . S
N152 C155 1.346 1_556 S
N152 C156 1.345 . S
C153 C154 1.387 1_556 S
C153 C157 1.391 . S
C154 C153 1.387 1_554 S
C154 C155 1.369 . S
C154 H163 0.929 . S
C155 N152 1.346 1_554 S
C155 C154 1.369 . S
C155 H158 0.928 . S
C156 N152 1.345 . S
C156 C157 1.371 . S
C156 H159 0.931 . S
C157 C153 1.391 . S
C157 C156 1.371 . S
C157 H164 0.930 . S
H158 C155 0.928 . S
H159 C156 0.931 . S
H160 C136 0.930 . S
H161 C133 0.930 . S
H162 C142 0.930 . S
H163 C154 0.929 . S
H164 C157 0.930 . S
C165 C166 1.351 . S
C165 N168 1.368 . S
C165 H170 0.931 . S
C166 C165 1.351 . S
C166 N167 1.373 . S
C166 H194 0.930 . S
N167 C166 1.373 . S
N167 C169 1.340 . S
N168 C165 1.368 . S
N168 C169 1.321 . S
N168 Co171 2.135 . S
C169 N167 1.340 . S
C169 N168 1.321 . S
C169 H193 0.930 . S
H170 C165 0.931 . S
Co171 N168 2.135 . S
Co171 N174 2.121 . S
Co171 O179 2.055 . S
Co171 O182 2.039 . S
Co171 N185 2.140 . S
C172 O173 1.227 . S
C172 O182 1.265 . S
O173 C172 1.227 . S
N174 Co171 2.121 . S
N174 C176 1.375 . S
N174 C177 1.313 . S
C175 C176 1.338 1_556 S
C175 N178 1.377 . S
C175 H195 0.930 . S
C176 N174 1.375 . S
C176 C175 1.338 1_554 S
C176 H180 0.931 . S
C177 N174 1.313 . S
C177 N178 1.344 1_554 S
C177 H181 0.930 . S
N178 C175 1.377 . S
N178 C177 1.344 1_556 S
O179 Co171 2.055 . S
O179 C183 1.253 . S
H180 C176 0.931 . S
H181 C177 0.930 . S
O182 Co171 2.039 . S
O182 C172 1.265 . S
C183 O179 1.253 . S
C183 O184 1.227 . S
O184 C183 1.227 . S
N185 Co171 2.140 . S
N185 C188 1.346 . S
N185 C189 1.345 . S
C186 C187 1.387 . S
C186 C190 1.391 . S
C187 C186 1.387 . S
C187 C188 1.369 . S
C187 H196 0.929 . S
C188 N185 1.346 . S
C188 C187 1.369 . S
C188 H191 0.928 . S
C189 N185 1.345 . S
C189 C190 1.371 . S
C189 H192 0.931 . S
C190 C186 1.391 . S
C190 C189 1.371 . S
C190 H197 0.930 . S
H191 C188 0.928 . S
H192 C189 0.931 . S
H193 C169 0.930 . S
H194 C166 0.930 . S
H195 C175 0.930 . S
H196 C187 0.929 . S
H197 C190 0.930 . S
C198 C199 1.351 . S
C198 N201 1.368 . S
C198 H203 0.931 . S
C199 C198 1.351 . S
C199 N200 1.373 . S
C199 H227 0.930 . S
N200 C199 1.373 . S
N200 C202 1.340 . S
N201 C198 1.368 . S
N201 C202 1.321 . S
N201 Co204 2.135 . S
C202 N200 1.340 . S
C202 N201 1.321 . S
C202 H226 0.930 . S
H203 C198 0.931 . S
Co204 N201 2.135 . S
Co204 N207 2.121 . S
Co204 O212 2.055 . S
Co204 O215 2.039 . S
Co204 N218 2.140 . S
C205 O206 1.227 . S
C205 O215 1.265 . S
O206 C205 1.227 . S
N207 Co204 2.121 . S
N207 C209 1.375 . S
N207 C210 1.313 . S
C208 C209 1.338 . S
C208 N211 1.377 . S
C208 H228 0.930 . S
C209 N207 1.375 . S
C209 C208 1.338 . S
C209 H213 0.931 . S
C210 N207 1.313 . S
C210 N211 1.344 . S
C210 H214 0.930 . S
N211 C208 1.377 . S
N211 C210 1.344 . S
O212 Co204 2.055 . S
O212 C216 1.253 . S
H213 C209 0.931 . S
H214 C210 0.930 . S
O215 Co204 2.039 . S
O215 C205 1.265 . S
C216 O212 1.253 . S
C216 O217 1.227 . S
O217 C216 1.227 . S
N218 Co204 2.140 . S
N218 C221 1.346 . S
N218 C222 1.345 . S
C219 C220 1.387 . S
C219 C223 1.391 . S
C220 C219 1.387 . S
C220 C221 1.369 . S
C220 H229 0.929 . S
C221 N218 1.346 . S
C221 C220 1.369 . S
C221 H224 0.928 . S
C222 N218 1.345 . S
C222 C223 1.371 . S
C222 H225 0.931 . S
C223 C219 1.391 . S
C223 C222 1.371 . S
C223 H230 0.930 . S
H224 C221 0.928 . S
H225 C222 0.931 . S
H226 C202 0.930 . S
H227 C199 0.930 . S
H228 C208 0.930 . S
H229 C220 0.929 . S
H230 C223 0.930 . S
C231 C232 1.351 . S
C231 N234 1.368 . S
C231 H236 0.931 . S
C232 C231 1.351 . S
C232 N233 1.373 . S
C232 H260 0.930 . S
N233 C232 1.373 . S
N233 C235 1.340 . S
N234 C231 1.368 . S
N234 C235 1.321 . S
N234 Co237 2.135 . S
C235 N233 1.340 . S
C235 N234 1.321 . S
C235 H259 0.930 . S
H236 C231 0.931 . S
Co237 N234 2.135 . S
Co237 N240 2.121 . S
Co237 O245 2.055 . S
Co237 O248 2.039 . S
Co237 N251 2.140 . S
C238 O239 1.227 . S
C238 O248 1.265 . S
O239 C238 1.227 . S
N240 Co237 2.121 . S
N240 C242 1.375 . S
N240 C243 1.313 . S
C241 C242 1.338 . S
C241 N244 1.377 . S
C241 H261 0.930 . S
C242 N240 1.375 . S
C242 C241 1.338 . S
C242 H246 0.931 . S
C243 N240 1.313 . S
C243 N244 1.344 . S
C243 H247 0.930 . S
N244 C241 1.377 . S
N244 C243 1.344 . S
O245 Co237 2.055 . S
O245 C249 1.253 . S
H246 C242 0.931 . S
H247 C243 0.930 . S
O248 Co237 2.039 . S
O248 C238 1.265 . S
C249 O245 1.253 . S
C249 O250 1.227 . S
O250 C249 1.227 . S
N251 Co237 2.140 . S
N251 C254 1.346 . S
N251 C255 1.345 . S
C252 C253 1.387 . S
C252 C256 1.391 . S
C253 C252 1.387 . S
C253 C254 1.369 . S
C253 H262 0.929 . S
C254 N251 1.346 . S
C254 C253 1.369 . S
C254 H257 0.928 . S
C255 N251 1.345 . S
C255 C256 1.371 . S
C255 H258 0.931 . S
C256 C252 1.391 . S
C256 C255 1.371 . S
C256 H263 0.930 . S
H257 C254 0.928 . S
H258 C255 0.931 . S
H259 C235 0.930 . S
H260 C232 0.930 . S
H261 C241 0.930 . S
H262 C253 0.929 . S
H263 C256 0.930 . S
C264 C265 1.351 . S
C264 N267 1.368 . S
C264 H269 0.931 . S
C265 C264 1.351 . S
C265 N266 1.373 . S
C265 H293 0.930 . S
N266 C265 1.373 . S
N266 C268 1.340 . S
N267 C264 1.368 . S
N267 C268 1.321 . S
N267 Co270 2.135 1_554 S
C268 N266 1.340 . S
C268 N267 1.321 . S
C268 H292 0.930 . S
H269 C264 0.931 . S
Co270 N267 2.135 1_556 S
Co270 N273 2.121 . S
Co270 O278 2.055 . S
Co270 O281 2.039 . S
Co270 N284 2.140 . S
C271 O272 1.227 . S
C271 O281 1.265 . S
O272 C271 1.227 . S
N273 Co270 2.121 . S
N273 C275 1.375 . S
N273 C276 1.313 . S
C274 C275 1.338 . S
C274 N277 1.377 . S
C274 H294 0.930 . S
C275 N273 1.375 . S
C275 C274 1.338 . S
C275 H279 0.931 . S
C276 N273 1.313 . S
C276 N277 1.344 . S
C276 H280 0.930 . S
N277 C274 1.377 . S
N277 C276 1.344 . S
O278 Co270 2.055 . S
O278 C282 1.253 . S
H279 C275 0.931 . S
H280 C276 0.930 . S
O281 Co270 2.039 . S
O281 C271 1.265 . S
C282 O278 1.253 . S
C282 O283 1.227 . S
O283 C282 1.227 . S
N284 Co270 2.140 . S
N284 C287 1.346 1_556 S
N284 C288 1.345 . S
C285 C286 1.387 1_556 S
C285 C289 1.391 . S
C286 C285 1.387 1_554 S
C286 C287 1.369 . S
C286 H295 0.929 . S
C287 N284 1.346 1_554 S
C287 C286 1.369 . S
C287 H290 0.928 . S
C288 N284 1.345 . S
C288 C289 1.371 . S
C288 H291 0.931 . S
C289 C285 1.391 . S
C289 C288 1.371 . S
C289 H296 0.930 . S
H290 C287 0.928 . S
H291 C288 0.931 . S
H292 C268 0.930 . S
H293 C265 0.930 . S
H294 C274 0.930 . S
H295 C286 0.929 . S
H296 C289 0.930 . S
C297 C298 1.351 . S
C297 N300 1.368 . S
C297 H302 0.931 . S
C298 C297 1.351 . S
C298 N299 1.373 . S
C298 H326 0.930 . S
N299 C298 1.373 . S
N299 C301 1.340 . S
N300 C297 1.368 . S
N300 C301 1.321 . S
N300 Co303 2.135 . S
C301 N299 1.340 . S
C301 N300 1.321 . S
C301 H325 0.930 . S
H302 C297 0.931 . S
Co303 N300 2.135 . S
Co303 N306 2.121 . S
Co303 O311 2.055 . S
Co303 O314 2.039 . S
Co303 N317 2.140 . S
C304 O305 1.227 . S
C304 O314 1.265 . S
O305 C304 1.227 . S
N306 Co303 2.121 . S
N306 C308 1.375 . S
N306 C309 1.313 . S
C307 C308 1.338 . S
C307 N310 1.377 . S
C307 H327 0.930 . S
C308 N306 1.375 . S
C308 C307 1.338 . S
C308 H312 0.931 . S
C309 N306 1.313 . S
C309 N310 1.344 . S
C309 H313 0.930 . S
N310 C307 1.377 . S
N310 C309 1.344 . S
O311 Co303 2.055 . S
O311 C315 1.253 . S
H312 C308 0.931 . S
H313 C309 0.930 . S
O314 Co303 2.039 . S
O314 C304 1.265 . S
C315 O311 1.253 . S
C315 O316 1.227 . S
O316 C315 1.227 . S
N317 Co303 2.140 . S
N317 C320 1.346 . S
N317 C321 1.345 . S
C318 C319 1.387 . S
C318 C322 1.391 . S
C319 C318 1.387 . S
C319 C320 1.369 . S
C319 H328 0.929 . S
C320 N317 1.346 . S
C320 C319 1.369 . S
C320 H323 0.928 . S
C321 N317 1.345 . S
C321 C322 1.371 . S
C321 H324 0.931 . S
C322 C318 1.391 . S
C322 C321 1.371 . S
C322 H329 0.930 . S
H323 C320 0.928 . S
H324 C321 0.931 . S
H325 C301 0.930 . S
H326 C298 0.930 . S
H327 C307 0.930 . S
H328 C319 0.929 . S
H329 C322 0.930 . S
C330 C331 1.351 . S
C330 N333 1.368 . S
C330 H335 0.931 . S
C331 C330 1.351 . S
C331 N332 1.373 . S
C331 H359 0.930 . S
N332 C331 1.373 . S
N332 C334 1.340 . S
N333 C330 1.368 . S
N333 C334 1.321 . S
N333 Co336 2.135 . S
C334 N332 1.340 . S
C334 N333 1.321 . S
C334 H358 0.930 . S
H335 C330 0.931 . S
Co336 N333 2.135 . S
Co336 N339 2.121 . S
Co336 O344 2.055 . S
Co336 O347 2.039 . S
Co336 N350 2.140 . S
C337 O338 1.227 . S
C337 O347 1.265 . S
O338 C337 1.227 . S
N339 Co336 2.121 . S
N339 C341 1.375 . S
N339 C342 1.313 . S
C340 C341 1.338 . S
C340 N343 1.377 . S
C340 H360 0.930 . S
C341 N339 1.375 . S
C341 C340 1.338 . S
C341 H345 0.931 . S
C342 N339 1.313 . S
C342 N343 1.344 . S
C342 H346 0.930 . S
N343 C340 1.377 . S
N343 C342 1.344 . S
O344 Co336 2.055 . S
O344 C348 1.253 . S
H345 C341 0.931 . S
H346 C342 0.930 . S
O347 Co336 2.039 . S
O347 C337 1.265 . S
C348 O344 1.253 . S
C348 O349 1.227 . S
O349 C348 1.227 . S
N350 Co336 2.140 . S
N350 C353 1.346 . S
N350 C354 1.345 . S
C351 C352 1.387 . S
C351 C355 1.391 . S
C352 C351 1.387 . S
C352 C353 1.369 . S
C352 H361 0.929 . S
C353 N350 1.346 . S
C353 C352 1.369 . S
C353 H356 0.928 . S
C354 N350 1.345 . S
C354 C355 1.371 . S
C354 H357 0.931 . S
C355 C351 1.391 . S
C355 C354 1.371 . S
C355 H362 0.930 . S
H356 C353 0.928 . S
H357 C354 0.931 . S
H358 C334 0.930 . S
H359 C331 0.930 . S
H360 C340 0.930 . S
H361 C352 0.929 . S
H362 C355 0.930 . S
C363 C364 1.351 . S
C363 N366 1.368 . S
C363 H368 0.931 . S
C364 C363 1.351 . S
C364 N365 1.373 . S
C364 H392 0.930 . S
N365 C364 1.373 . S
N365 C367 1.340 . S
N366 C363 1.368 . S
N366 C367 1.321 . S
N366 Co369 2.135 . S
C367 N365 1.340 . S
C367 N366 1.321 . S
C367 H391 0.930 . S
H368 C363 0.931 . S
Co369 N366 2.135 . S
Co369 N372 2.121 . S
Co369 O377 2.055 . S
Co369 O380 2.039 . S
Co369 N383 2.140 . S
C370 O371 1.227 . S
C370 O380 1.265 . S
O371 C370 1.227 . S
N372 Co369 2.121 . S
N372 C374 1.375 . S
N372 C375 1.313 . S
C373 C374 1.338 1_556 S
C373 N376 1.377 . S
C373 H393 0.930 . S
C374 N372 1.375 . S
C374 C373 1.338 1_554 S
C374 H378 0.931 . S
C375 N372 1.313 . S
C375 N376 1.344 1_554 S
C375 H379 0.930 . S
N376 C373 1.377 . S
N376 C375 1.344 1_556 S
O377 Co369 2.055 . S
O377 C381 1.253 . S
H378 C374 0.931 . S
H379 C375 0.930 . S
O380 Co369 2.039 . S
O380 C370 1.265 . S
C381 O377 1.253 . S
C381 O382 1.227 . S
O382 C381 1.227 . S
N383 Co369 2.140 . S
N383 C386 1.346 . S
N383 C387 1.345 . S
C384 C385 1.387 . S
C384 C388 1.391 . S
C385 C384 1.387 . S
C385 C386 1.369 . S
C385 H394 0.929 . S
C386 N383 1.346 . S
C386 C385 1.369 . S
C386 H389 0.928 . S
C387 N383 1.345 . S
C387 C388 1.371 . S
C387 H390 0.931 . S
C388 C384 1.391 . S
C388 C387 1.371 . S
C388 H395 0.930 . S
H389 C386 0.928 . S
H390 C387 0.931 . S
H391 C367 0.930 . S
H392 C364 0.930 . S
H393 C373 0.930 . S
H394 C385 0.929 . S
H395 C388 0.930 . S
C396 C397 1.351 . S
C396 N399 1.368 . S
C396 H401 0.931 . S
C397 C396 1.351 . S
C397 N398 1.373 . S
C397 H425 0.930 . S
N398 C397 1.373 . S
N398 C400 1.340 . S
N399 C396 1.368 . S
N399 C400 1.321 . S
N399 Co402 2.135 1_556 S
C400 N398 1.340 . S
C400 N399 1.321 . S
C400 H424 0.930 . S
H401 C396 0.931 . S
Co402 N399 2.135 1_554 S
Co402 N405 2.121 . S
Co402 O410 2.055 . S
Co402 O413 2.039 . S
Co402 N416 2.140 . S
C403 O404 1.227 . S
C403 O413 1.265 . S
O404 C403 1.227 . S
N405 Co402 2.121 . S
N405 C407 1.375 . S
N405 C408 1.313 . S
C406 C407 1.338 . S
C406 N409 1.377 . S
C406 H426 0.930 . S
C407 N405 1.375 . S
C407 C406 1.338 . S
C407 H411 0.931 . S
C408 N405 1.313 . S
C408 N409 1.344 . S
C408 H412 0.930 . S
N409 C406 1.377 . S
N409 C408 1.344 . S
O410 Co402 2.055 . S
O410 C414 1.253 . S
H411 C407 0.931 . S
H412 C408 0.930 . S
O413 Co402 2.039 . S
O413 C403 1.265 . S
C414 O410 1.253 . S
C414 O415 1.227 . S
O415 C414 1.227 . S
N416 Co402 2.140 . S
N416 C419 1.346 1_554 S
N416 C420 1.345 . S
C417 C418 1.387 1_554 S
C417 C421 1.391 . S
C418 C417 1.387 1_556 S
C418 C419 1.369 . S
C418 H427 0.929 . S
C419 N416 1.346 1_556 S
C419 C418 1.369 . S
C419 H422 0.928 . S
C420 N416 1.345 . S
C420 C421 1.371 . S
C420 H423 0.931 . S
C421 C417 1.391 . S
C421 C420 1.371 . S
C421 H428 0.930 . S
H422 C419 0.928 . S
H423 C420 0.931 . S
H424 C400 0.930 . S
H425 C397 0.930 . S
H426 C406 0.930 . S
H427 C418 0.929 . S
H428 C421 0.930 . S
C429 C430 1.351 . S
C429 N432 1.368 . S
C429 H434 0.931 . S
C430 C429 1.351 . S
C430 N431 1.373 . S
C430 H458 0.930 . S
N431 C430 1.373 . S
N431 C433 1.340 . S
N432 C429 1.368 . S
N432 C433 1.321 . S
N432 Co435 2.135 . S
C433 N431 1.340 . S
C433 N432 1.321 . S
C433 H457 0.930 . S
H434 C429 0.931 . S
Co435 N432 2.135 . S
Co435 N438 2.121 . S
Co435 O443 2.055 . S
Co435 O446 2.039 . S
Co435 N449 2.140 . S
C436 O437 1.227 . S
C436 O446 1.265 . S
O437 C436 1.227 . S
N438 Co435 2.121 . S
N438 C440 1.375 . S
N438 C441 1.313 . S
C439 C440 1.338 1_554 S
C439 N442 1.377 . S
C439 H459 0.930 . S
C440 N438 1.375 . S
C440 C439 1.338 1_556 S
C440 H444 0.931 . S
C441 N438 1.313 . S
C441 N442 1.344 1_556 S
C441 H445 0.930 . S
N442 C439 1.377 . S
N442 C441 1.344 1_554 S
O443 Co435 2.055 . S
O443 C447 1.253 . S
H444 C440 0.931 . S
H445 C441 0.930 . S
O446 Co435 2.039 . S
O446 C436 1.265 . S
C447 O443 1.253 . S
C447 O448 1.227 . S
O448 C447 1.227 . S
N449 Co435 2.140 . S
N449 C452 1.346 . S
N449 C453 1.345 . S
C450 C451 1.387 . S
C450 C454 1.391 . S
C451 C450 1.387 . S
C451 C452 1.369 . S
C451 H460 0.929 . S
C452 N449 1.346 . S
C452 C451 1.369 . S
C452 H455 0.928 . S
C453 N449 1.345 . S
C453 C454 1.371 . S
C453 H456 0.931 . S
C454 C450 1.391 . S
C454 C453 1.371 . S
C454 H461 0.930 . S
H455 C452 0.928 . S
H456 C453 0.931 . S
H457 C433 0.930 . S
H458 C430 0.930 . S
H459 C439 0.930 . S
H460 C451 0.929 . S
H461 C454 0.930 . S
C462 C463 1.351 . S
C462 N465 1.368 . S
C462 H467 0.931 . S
C463 C462 1.351 . S
C463 N464 1.373 . S
C463 H491 0.930 . S
N464 C463 1.373 . S
N464 C466 1.340 . S
N465 C462 1.368 . S
N465 C466 1.321 . S
N465 Co468 2.135 . S
C466 N464 1.340 . S
C466 N465 1.321 . S
C466 H490 0.930 . S
H467 C462 0.931 . S
Co468 N465 2.135 . S
Co468 N471 2.121 . S
Co468 O476 2.055 . S
Co468 O479 2.039 . S
Co468 N482 2.140 . S
C469 O470 1.227 . S
C469 O479 1.265 . S
O470 C469 1.227 . S
N471 Co468 2.121 . S
N471 C473 1.375 . S
N471 C474 1.313 . S
C472 C473 1.338 . S
C472 N475 1.377 . S
C472 H492 0.930 . S
C473 N471 1.375 . S
C473 C472 1.338 . S
C473 H477 0.931 . S
C474 N471 1.313 . S
C474 N475 1.344 . S
C474 H478 0.930 . S
N475 C472 1.377 . S
N475 C474 1.344 . S
O476 Co468 2.055 . S
O476 C480 1.253 . S
H477 C473 0.931 . S
H478 C474 0.930 . S
O479 Co468 2.039 . S
O479 C469 1.265 . S
C480 O476 1.253 . S
C480 O481 1.227 . S
O481 C480 1.227 . S
N482 Co468 2.140 . S
N482 C485 1.346 . S
N482 C486 1.345 . S
C483 C484 1.387 . S
C483 C487 1.391 . S
C484 C483 1.387 . S
C484 C485 1.369 . S
C484 H493 0.929 . S
C485 N482 1.346 . S
C485 C484 1.369 . S
C485 H488 0.928 . S
C486 N482 1.345 . S
C486 C487 1.371 . S
C486 H489 0.931 . S
C487 C483 1.391 . S
C487 C486 1.371 . S
C487 H494 0.930 . S
H488 C485 0.928 . S
H489 C486 0.931 . S
H490 C466 0.930 . S
H491 C463 0.930 . S
H492 C472 0.930 . S
H493 C484 0.929 . S
H494 C487 0.930 . S
C495 C496 1.351 . S
C495 N498 1.368 . S
C495 H500 0.931 . S
C496 C495 1.351 . S
C496 N497 1.373 . S
C496 H524 0.930 . S
N497 C496 1.373 . S
N497 C499 1.340 . S
N498 C495 1.368 . S
N498 C499 1.321 . S
N498 Co501 2.135 . S
C499 N497 1.340 . S
C499 N498 1.321 . S
C499 H523 0.930 . S
H500 C495 0.931 . S
Co501 N498 2.135 . S
Co501 N504 2.121 . S
Co501 O509 2.055 . S
Co501 O512 2.039 . S
Co501 N515 2.140 . S
C502 O503 1.227 . S
C502 O512 1.265 . S
O503 C502 1.227 . S
N504 Co501 2.121 . S
N504 C506 1.375 . S
N504 C507 1.313 . S
C505 C506 1.338 . S
C505 N508 1.377 . S
C505 H525 0.930 . S
C506 N504 1.375 . S
C506 C505 1.338 . S
C506 H510 0.931 . S
C507 N504 1.313 . S
C507 N508 1.344 . S
C507 H511 0.930 . S
N508 C505 1.377 . S
N508 C507 1.344 . S
O509 Co501 2.055 . S
O509 C513 1.253 . S
H510 C506 0.931 . S
H511 C507 0.930 . S
O512 Co501 2.039 . S
O512 C502 1.265 . S
C513 O509 1.253 . S
C513 O514 1.227 . S
O514 C513 1.227 . S
N515 Co501 2.140 . S
N515 C518 1.346 . S
N515 C519 1.345 . S
C516 C517 1.387 . S
C516 C520 1.391 . S
C517 C516 1.387 . S
C517 C518 1.369 . S
C517 H526 0.929 . S
C518 N515 1.346 . S
C518 C517 1.369 . S
C518 H521 0.928 . S
C519 N515 1.345 . S
C519 C520 1.371 . S
C519 H522 0.931 . S
C520 C516 1.391 . S
C520 C519 1.371 . S
C520 H527 0.930 . S
H521 C518 0.928 . S
H522 C519 0.931 . S
H523 C499 0.930 . S
H524 C496 0.930 . S
H525 C505 0.930 . S
H526 C517 0.929 . S
H527 C520 0.930 . S
C528 C529 1.351 . S
C528 N531 1.368 . S
C528 H533 0.931 . S
C529 C528 1.351 . S
C529 N530 1.373 . S
C529 H557 0.930 . S
N530 C529 1.373 . S
N530 C532 1.340 . S
N531 C528 1.368 . S
N531 C532 1.321 . S
N531 Co534 2.135 . S
C532 N530 1.340 . S
C532 N531 1.321 . S
C532 H556 0.930 . S
H533 C528 0.931 . S
Co534 N531 2.135 . S
Co534 N537 2.121 . S
Co534 O542 2.055 . S
Co534 O545 2.039 . S
Co534 N548 2.140 . S
C535 O536 1.227 . S
C535 O545 1.265 . S
O536 C535 1.227 . S
N537 Co534 2.121 . S
N537 C539 1.375 . S
N537 C540 1.313 . S
C538 C539 1.338 . S
C538 N541 1.377 . S
C538 H558 0.930 . S
C539 N537 1.375 . S
C539 C538 1.338 . S
C539 H543 0.931 . S
C540 N537 1.313 . S
C540 N541 1.344 . S
C540 H544 0.930 . S
N541 C538 1.377 . S
N541 C540 1.344 . S
O542 Co534 2.055 . S
O542 C546 1.253 . S
H543 C539 0.931 . S
H544 C540 0.930 . S
O545 Co534 2.039 . S
O545 C535 1.265 . S
C546 O542 1.253 . S
C546 O547 1.227 . S
O547 C546 1.227 . S
N548 Co534 2.140 . S
N548 C551 1.346 . S
N548 C552 1.345 . S
C549 C550 1.387 . S
C549 C553 1.391 . S
C550 C549 1.387 . S
C550 C551 1.369 . S
C550 H559 0.929 . S
C551 N548 1.346 . S
C551 C550 1.369 . S
C551 H554 0.928 . S
C552 N548 1.345 . S
C552 C553 1.371 . S
C552 H555 0.931 . S
C553 C549 1.391 . S
C553 C552 1.371 . S
C553 H560 0.930 . S
H554 C551 0.928 . S
H555 C552 0.931 . S
H556 C532 0.930 . S
H557 C529 0.930 . S
H558 C538 0.930 . S
H559 C550 0.929 . S
H560 C553 0.930 . S
C561 C562 1.351 . S
C561 N564 1.368 . S
C561 H566 0.931 . S
C562 C561 1.351 . S
C562 N563 1.373 . S
C562 H590 0.930 . S
N563 C562 1.373 . S
N563 C565 1.340 . S
N564 C561 1.368 . S
N564 C565 1.321 . S
N564 Co567 2.135 . S
C565 N563 1.340 . S
C565 N564 1.321 . S
C565 H589 0.930 . S
H566 C561 0.931 . S
Co567 N564 2.135 . S
Co567 N570 2.121 . S
Co567 O575 2.055 . S
Co567 O578 2.039 . S
Co567 N581 2.140 . S
C568 O569 1.227 . S
C568 O578 1.265 . S
O569 C568 1.227 . S
N570 Co567 2.121 . S
N570 C572 1.375 . S
N570 C573 1.313 . S
C571 C572 1.338 1_554 S
C571 N574 1.377 . S
C571 H591 0.930 . S
C572 N570 1.375 . S
C572 C571 1.338 1_556 S
C572 H576 0.931 . S
C573 N570 1.313 . S
C573 N574 1.344 1_556 S
C573 H577 0.930 . S
N574 C571 1.377 . S
N574 C573 1.344 1_554 S
O575 Co567 2.055 . S
O575 C579 1.253 . S
H576 C572 0.931 . S
H577 C573 0.930 . S
O578 Co567 2.039 . S
O578 C568 1.265 . S
C579 O575 1.253 . S
C579 O580 1.227 . S
O580 C579 1.227 . S
N581 Co567 2.140 . S
N581 C584 1.346 . S
N581 C585 1.345 . S
C582 C583 1.387 . S
C582 C586 1.391 . S
C583 C582 1.387 . S
C583 C584 1.369 . S
C583 H592 0.929 . S
C584 N581 1.346 . S
C584 C583 1.369 . S
C584 H587 0.928 . S
C585 N581 1.345 . S
C585 C586 1.371 . S
C585 H588 0.931 . S
C586 C582 1.391 . S
C586 C585 1.371 . S
C586 H593 0.930 . S
H587 C584 0.928 . S
H588 C585 0.931 . S
H589 C565 0.930 . S
H590 C562 0.930 . S
H591 C571 0.930 . S
H592 C583 0.929 . S
H593 C586 0.930 . S
C594 C595 1.351 . S
C594 N597 1.368 . S
C594 H599 0.931 . S
C595 C594 1.351 . S
C595 N596 1.373 . S
C595 H623 0.930 . S
N596 C595 1.373 . S
N596 C598 1.340 . S
N597 C594 1.368 . S
N597 C598 1.321 . S
N597 Co600 2.135 1_556 S
C598 N596 1.340 . S
C598 N597 1.321 . S
C598 H622 0.930 . S
H599 C594 0.931 . S
Co600 N597 2.135 1_554 S
Co600 N603 2.121 . S
Co600 O608 2.055 . S
Co600 O611 2.039 . S
Co600 N614 2.140 . S
C601 O602 1.227 . S
C601 O611 1.265 . S
O602 C601 1.227 . S
N603 Co600 2.121 . S
N603 C605 1.375 . S
N603 C606 1.313 . S
C604 C605 1.338 . S
C604 N607 1.377 . S
C604 H624 0.930 . S
C605 N603 1.375 . S
C605 C604 1.338 . S
C605 H609 0.931 . S
C606 N603 1.313 . S
C606 N607 1.344 . S
C606 H610 0.930 . S
N607 C604 1.377 . S
N607 C606 1.344 . S
O608 Co600 2.055 . S
O608 C612 1.253 . S
H609 C605 0.931 . S
H610 C606 0.930 . S
O611 Co600 2.039 . S
O611 C601 1.265 . S
C612 O608 1.253 . S
C612 O613 1.227 . S
O613 C612 1.227 . S
N614 Co600 2.140 . S
N614 C617 1.346 1_554 S
N614 C618 1.345 . S
C615 C616 1.387 1_554 S
C615 C619 1.391 . S
C616 C615 1.387 1_556 S
C616 C617 1.369 . S
C616 H625 0.929 . S
C617 N614 1.346 1_556 S
C617 C616 1.369 . S
C617 H620 0.928 . S
C618 N614 1.345 . S
C618 C619 1.371 . S
C618 H621 0.931 . S
C619 C615 1.391 . S
C619 C618 1.371 . S
C619 H626 0.930 . S
H620 C617 0.928 . S
H621 C618 0.931 . S
H622 C598 0.930 . S
H623 C595 0.930 . S
H624 C604 0.930 . S
H625 C616 0.929 . S
H626 C619 0.930 . S
C627 C628 1.351 . S
C627 N630 1.368 . S
C627 H632 0.931 . S
C628 C627 1.351 . S
C628 N629 1.373 . S
C628 H656 0.930 . S
N629 C628 1.373 . S
N629 C631 1.340 . S
N630 C627 1.368 . S
N630 C631 1.321 . S
N630 Co633 2.135 . S
C631 N629 1.340 . S
C631 N630 1.321 . S
C631 H655 0.930 . S
H632 C627 0.931 . S
Co633 N630 2.135 . S
Co633 N636 2.121 . S
Co633 O641 2.055 . S
Co633 O644 2.039 . S
Co633 N647 2.140 . S
C634 O635 1.227 . S
C634 O644 1.265 . S
O635 C634 1.227 . S
N636 Co633 2.121 . S
N636 C638 1.375 . S
N636 C639 1.313 . S
C637 C638 1.338 . S
C637 N640 1.377 . S
C637 H657 0.930 . S
C638 N636 1.375 . S
C638 C637 1.338 . S
C638 H642 0.931 . S
C639 N636 1.313 . S
C639 N640 1.344 . S
C639 H643 0.930 . S
N640 C637 1.377 . S
N640 C639 1.344 . S
O641 Co633 2.055 . S
O641 C645 1.253 . S
H642 C638 0.931 . S
H643 C639 0.930 . S
O644 Co633 2.039 . S
O644 C634 1.265 . S
C645 O641 1.253 . S
C645 O646 1.227 . S
O646 C645 1.227 . S
N647 Co633 2.140 . S
N647 C650 1.346 . S
N647 C651 1.345 . S
C648 C649 1.387 . S
C648 C652 1.391 . S
C649 C648 1.387 . S
C649 C650 1.369 . S
C649 H658 0.929 . S
C650 N647 1.346 . S
C650 C649 1.369 . S
C650 H653 0.928 . S
C651 N647 1.345 . S
C651 C652 1.371 . S
C651 H654 0.931 . S
C652 C648 1.391 . S
C652 C651 1.371 . S
C652 H659 0.930 . S
H653 C650 0.928 . S
H654 C651 0.931 . S
H655 C631 0.930 . S
H656 C628 0.930 . S
H657 C637 0.930 . S
H658 C649 0.929 . S
H659 C652 0.930 . S
C660 C661 1.351 . S
C660 N663 1.368 . S
C660 H665 0.931 . S
C661 C660 1.351 . S
C661 N662 1.373 . S
C661 H689 0.930 . S
N662 C661 1.373 . S
N662 C664 1.340 . S
N663 C660 1.368 . S
N663 C664 1.321 . S
N663 Co666 2.135 . S
C664 N662 1.340 . S
C664 N663 1.321 . S
C664 H688 0.930 . S
H665 C660 0.931 . S
Co666 N663 2.135 . S
Co666 N669 2.121 . S
Co666 O674 2.055 . S
Co666 O677 2.039 . S
Co666 N680 2.140 . S
C667 O668 1.227 . S
C667 O677 1.265 . S
O668 C667 1.227 . S
N669 Co666 2.121 . S
N669 C671 1.375 . S
N669 C672 1.313 . S
C670 C671 1.338 . S
C670 N673 1.377 . S
C670 H690 0.930 . S
C671 N669 1.375 . S
C671 C670 1.338 . S
C671 H675 0.931 . S
C672 N669 1.313 . S
C672 N673 1.344 . S
C672 H676 0.930 . S
N673 C670 1.377 . S
N673 C672 1.344 . S
O674 Co666 2.055 . S
O674 C678 1.253 . S
H675 C671 0.931 . S
H676 C672 0.930 . S
O677 Co666 2.039 . S
O677 C667 1.265 . S
C678 O674 1.253 . S
C678 O679 1.227 . S
O679 C678 1.227 . S
N680 Co666 2.140 . S
N680 C683 1.346 . S
N680 C684 1.345 . S
C681 C682 1.387 . S
C681 C685 1.391 . S
C682 C681 1.387 . S
C682 C683 1.369 . S
C682 H691 0.929 . S
C683 N680 1.346 . S
C683 C682 1.369 . S
C683 H686 0.928 . S
C684 N680 1.345 . S
C684 C685 1.371 . S
C684 H687 0.931 . S
C685 C681 1.391 . S
C685 C684 1.371 . S
C685 H692 0.930 . S
H686 C683 0.928 . S
H687 C684 0.931 . S
H688 C664 0.930 . S
H689 C661 0.930 . S
H690 C670 0.930 . S
H691 C682 0.929 . S
H692 C685 0.930 . S
C693 C694 1.351 . S
C693 N696 1.368 . S
C693 H698 0.931 . S
C694 C693 1.351 . S
C694 N695 1.373 . S
C694 H722 0.930 . S
N695 C694 1.373 . S
N695 C697 1.340 . S
N696 C693 1.368 . S
N696 C697 1.321 . S
N696 Co699 2.135 . S
C697 N695 1.340 . S
C697 N696 1.321 . S
C697 H721 0.930 . S
H698 C693 0.931 . S
Co699 N696 2.135 . S
Co699 N702 2.121 . S
Co699 O707 2.055 . S
Co699 O710 2.039 . S
Co699 N713 2.140 . S
C700 O701 1.227 . S
C700 O710 1.265 . S
O701 C700 1.227 . S
N702 Co699 2.121 . S
N702 C704 1.375 . S
N702 C705 1.313 . S
C703 C704 1.338 . S
C703 N706 1.377 . S
C703 H723 0.930 . S
C704 N702 1.375 . S
C704 C703 1.338 . S
C704 H708 0.931 . S
C705 N702 1.313 . S
C705 N706 1.344 . S
C705 H709 0.930 . S
N706 C703 1.377 . S
N706 C705 1.344 . S
O707 Co699 2.055 . S
O707 C711 1.253 . S
H708 C704 0.931 . S
H709 C705 0.930 . S
O710 Co699 2.039 . S
O710 C700 1.265 . S
C711 O707 1.253 . S
C711 O712 1.227 . S
O712 C711 1.227 . S
N713 Co699 2.140 . S
N713 C716 1.346 . S
N713 C717 1.345 . S
C714 C715 1.387 . S
C714 C718 1.391 . S
C715 C714 1.387 . S
C715 C716 1.369 . S
C715 H724 0.929 . S
C716 N713 1.346 . S
C716 C715 1.369 . S
C716 H719 0.928 . S
C717 N713 1.345 . S
C717 C718 1.371 . S
C717 H720 0.931 . S
C718 C714 1.391 . S
C718 C717 1.371 . S
C718 H725 0.930 . S
H719 C716 0.928 . S
H720 C717 0.931 . S
H721 C697 0.930 . S
H722 C694 0.930 . S
H723 C703 0.930 . S
H724 C715 0.929 . S
H725 C718 0.930 . S
C726 C727 1.351 . S
C726 N729 1.368 . S
C726 H731 0.931 . S
C727 C726 1.351 . S
C727 N728 1.373 . S
C727 H755 0.930 . S
N728 C727 1.373 . S
N728 C730 1.340 . S
N729 C726 1.368 . S
N729 C730 1.321 . S
N729 Co732 2.135 1_554 S
C730 N728 1.340 . S
C730 N729 1.321 . S
C730 H754 0.930 . S
H731 C726 0.931 . S
Co732 N729 2.135 1_556 S
Co732 N735 2.121 . S
Co732 O740 2.055 . S
Co732 O743 2.039 . S
Co732 N746 2.140 . S
C733 O734 1.227 . S
C733 O743 1.265 . S
O734 C733 1.227 . S
N735 Co732 2.121 . S
N735 C737 1.375 . S
N735 C738 1.313 . S
C736 C737 1.338 . S
C736 N739 1.377 . S
C736 H756 0.930 . S
C737 N735 1.375 . S
C737 C736 1.338 . S
C737 H741 0.931 . S
C738 N735 1.313 . S
C738 N739 1.344 . S
C738 H742 0.930 . S
N739 C736 1.377 . S
N739 C738 1.344 . S
O740 Co732 2.055 . S
O740 C744 1.253 . S
H741 C737 0.931 . S
H742 C738 0.930 . S
O743 Co732 2.039 . S
O743 C733 1.265 . S
C744 O740 1.253 . S
C744 O745 1.227 . S
O745 C744 1.227 . S
N746 Co732 2.140 . S
N746 C749 1.346 1_556 S
N746 C750 1.345 . S
C747 C748 1.387 1_556 S
C747 C751 1.391 . S
C748 C747 1.387 1_554 S
C748 C749 1.369 . S
C748 H757 0.929 . S
C749 N746 1.346 1_554 S
C749 C748 1.369 . S
C749 H752 0.928 . S
C750 N746 1.345 . S
C750 C751 1.371 . S
C750 H753 0.931 . S
C751 C747 1.391 . S
C751 C750 1.371 . S
C751 H758 0.930 . S
H752 C749 0.928 . S
H753 C750 0.931 . S
H754 C730 0.930 . S
H755 C727 0.930 . S
H756 C736 0.930 . S
H757 C748 0.929 . S
H758 C751 0.930 . S
C759 C760 1.351 . S
C759 N762 1.368 . S
C759 H764 0.931 . S
C760 C759 1.351 . S
C760 N761 1.373 . S
C760 H788 0.930 . S
N761 C760 1.373 . S
N761 C763 1.340 . S
N762 C759 1.368 . S
N762 C763 1.321 . S
N762 Co765 2.135 . S
C763 N761 1.340 . S
C763 N762 1.321 . S
C763 H787 0.930 . S
H764 C759 0.931 . S
Co765 N762 2.135 . S
Co765 N768 2.121 . S
Co765 O773 2.055 . S
Co765 O776 2.039 . S
Co765 N779 2.140 . S
C766 O767 1.227 . S
C766 O776 1.265 . S
O767 C766 1.227 . S
N768 Co765 2.121 . S
N768 C770 1.375 . S
N768 C771 1.313 . S
C769 C770 1.338 1_556 S
C769 N772 1.377 . S
C769 H789 0.930 . S
C770 N768 1.375 . S
C770 C769 1.338 1_554 S
C770 H774 0.931 . S
C771 N768 1.313 . S
C771 N772 1.344 1_554 S
C771 H775 0.930 . S
N772 C769 1.377 . S
N772 C771 1.344 1_556 S
O773 Co765 2.055 . S
O773 C777 1.253 . S
H774 C770 0.931 . S
H775 C771 0.930 . S
O776 Co765 2.039 . S
O776 C766 1.265 . S
C777 O773 1.253 . S
C777 O778 1.227 . S
O778 C777 1.227 . S
N779 Co765 2.140 . S
N779 C782 1.346 . S
N779 C783 1.345 . S
C780 C781 1.387 . S
C780 C784 1.391 . S
C781 C780 1.387 . S
C781 C782 1.369 . S
C781 H790 0.929 . S
C782 N779 1.346 . S
C782 C781 1.369 . S
C782 H785 0.928 . S
C783 N779 1.345 . S
C783 C784 1.371 . S
C783 H786 0.931 . S
C784 C780 1.391 . S
C784 C783 1.371 . S
C784 H791 0.930 . S
H785 C782 0.928 . S
H786 C783 0.931 . S
H787 C763 0.930 . S
H788 C760 0.930 . S
H789 C769 0.930 . S
H790 C781 0.929 . S
H791 C784 0.930 . S
C792 C793 1.351 . S
C792 N795 1.368 . S
C792 H797 0.931 . S
C793 C792 1.351 . S
C793 N794 1.373 . S
C793 H821 0.930 . S
N794 C793 1.373 . S
N794 C796 1.340 . S
N795 C792 1.368 . S
N795 C796 1.321 . S
N795 Co798 2.135 . S
C796 N794 1.340 . S
C796 N795 1.321 . S
C796 H820 0.930 . S
H797 C792 0.931 . S
Co798 N795 2.135 . S
Co798 N801 2.121 . S
Co798 O806 2.055 . S
Co798 O809 2.039 . S
Co798 N812 2.140 . S
C799 O800 1.227 . S
C799 O809 1.265 . S
O800 C799 1.227 . S
N801 Co798 2.121 . S
N801 C803 1.375 . S
N801 C804 1.313 . S
C802 C803 1.338 . S
C802 N805 1.377 . S
C802 H822 0.930 . S
C803 N801 1.375 . S
C803 C802 1.338 . S
C803 H807 0.931 . S
C804 N801 1.313 . S
C804 N805 1.344 . S
C804 H808 0.930 . S
N805 C802 1.377 . S
N805 C804 1.344 . S
O806 Co798 2.055 . S
O806 C810 1.253 . S
H807 C803 0.931 . S
H808 C804 0.930 . S
O809 Co798 2.039 . S
O809 C799 1.265 . S
C810 O806 1.253 . S
C810 O811 1.227 . S
O811 C810 1.227 . S
N812 Co798 2.140 . S
N812 C815 1.346 . S
N812 C816 1.345 . S
C813 C814 1.387 . S
C813 C817 1.391 . S
C814 C813 1.387 . S
C814 C815 1.369 . S
C814 H823 0.929 . S
C815 N812 1.346 . S
C815 C814 1.369 . S
C815 H818 0.928 . S
C816 N812 1.345 . S
C816 C817 1.371 . S
C816 H819 0.931 . S
C817 C813 1.391 . S
C817 C816 1.371 . S
C817 H824 0.930 . S
H818 C815 0.928 . S
H819 C816 0.931 . S
H820 C796 0.930 . S
H821 C793 0.930 . S
H822 C802 0.930 . S
H823 C814 0.929 . S
H824 C817 0.930 . S
C825 C826 1.351 . S
C825 N828 1.368 . S
C825 H830 0.931 . S
C826 C825 1.351 . S
C826 N827 1.373 . S
C826 H854 0.930 . S
N827 C826 1.373 . S
N827 C829 1.340 . S
N828 C825 1.368 . S
N828 C829 1.321 . S
N828 Co831 2.135 . S
C829 N827 1.340 . S
C829 N828 1.321 . S
C829 H853 0.930 . S
H830 C825 0.931 . S
Co831 N828 2.135 . S
Co831 N834 2.121 . S
Co831 O839 2.055 . S
Co831 O842 2.039 . S
Co831 N845 2.140 . S
C832 O833 1.227 . S
C832 O842 1.265 . S
O833 C832 1.227 . S
N834 Co831 2.121 . S
N834 C836 1.375 . S
N834 C837 1.313 . S
C835 C836 1.338 1_556 S
C835 N838 1.377 . S
C835 H855 0.930 . S
C836 N834 1.375 . S
C836 C835 1.338 1_554 S
C836 H840 0.931 . S
C837 N834 1.313 . S
C837 N838 1.344 1_554 S
C837 H841 0.930 . S
N838 C835 1.377 . S
N838 C837 1.344 1_556 S
O839 Co831 2.055 . S
O839 C843 1.253 . S
H840 C836 0.931 . S
H841 C837 0.930 . S
O842 Co831 2.039 . S
O842 C832 1.265 . S
C843 O839 1.253 . S
C843 O844 1.227 . S
O844 C843 1.227 . S
N845 Co831 2.140 . S
N845 C848 1.346 . S
N845 C849 1.345 . S
C846 C847 1.387 . S
C846 C850 1.391 . S
C847 C846 1.387 . S
C847 C848 1.369 . S
C847 H856 0.929 . S
C848 N845 1.346 . S
C848 C847 1.369 . S
C848 H851 0.928 . S
C849 N845 1.345 . S
C849 C850 1.371 . S
C849 H852 0.931 . S
C850 C846 1.391 . S
C850 C849 1.371 . S
C850 H857 0.930 . S
H851 C848 0.928 . S
H852 C849 0.931 . S
H853 C829 0.930 . S
H854 C826 0.930 . S
H855 C835 0.930 . S
H856 C847 0.929 . S
H857 C850 0.930 . S
C858 C859 1.351 . S
C858 N861 1.368 . S
C858 H863 0.931 . S
C859 C858 1.351 . S
C859 N860 1.373 . S
C859 H887 0.930 . S
N860 C859 1.373 . S
N860 C862 1.340 . S
N861 C858 1.368 . S
N861 C862 1.321 . S
N861 Co864 2.135 1_554 S
C862 N860 1.340 . S
C862 N861 1.321 . S
C862 H886 0.930 . S
H863 C858 0.931 . S
Co864 N861 2.135 1_556 S
Co864 N867 2.121 . S
Co864 O872 2.055 . S
Co864 O875 2.039 . S
Co864 N878 2.140 . S
C865 O866 1.227 . S
C865 O875 1.265 . S
O866 C865 1.227 . S
N867 Co864 2.121 . S
N867 C869 1.375 . S
N867 C870 1.313 . S
C868 C869 1.338 . S
C868 N871 1.377 . S
C868 H888 0.930 . S
C869 N867 1.375 . S
C869 C868 1.338 . S
C869 H873 0.931 . S
C870 N867 1.313 . S
C870 N871 1.344 . S
C870 H874 0.930 . S
N871 C868 1.377 . S
N871 C870 1.344 . S
O872 Co864 2.055 . S
O872 C876 1.253 . S
H873 C869 0.931 . S
H874 C870 0.930 . S
O875 Co864 2.039 . S
O875 C865 1.265 . S
C876 O872 1.253 . S
C876 O877 1.227 . S
O877 C876 1.227 . S
N878 Co864 2.140 . S
N878 C881 1.346 1_556 S
N878 C882 1.345 . S
C879 C880 1.387 1_556 S
C879 C883 1.391 . S
C880 C879 1.387 1_554 S
C880 C881 1.369 . S
C880 H889 0.929 . S
C881 N878 1.346 1_554 S
C881 C880 1.369 . S
C881 H884 0.928 . S
C882 N878 1.345 . S
C882 C883 1.371 . S
C882 H885 0.931 . S
C883 C879 1.391 . S
C883 C882 1.371 . S
C883 H890 0.930 . S
H884 C881 0.928 . S
H885 C882 0.931 . S
H886 C862 0.930 . S
H887 C859 0.930 . S
H888 C868 0.930 . S
H889 C880 0.929 . S
H890 C883 0.930 . S
C891 C892 1.351 . S
C891 N894 1.368 . S
C891 H896 0.931 . S
C892 C891 1.351 . S
C892 N893 1.373 . S
C892 H920 0.930 . S
N893 C892 1.373 . S
N893 C895 1.340 . S
N894 C891 1.368 . S
N894 C895 1.321 . S
N894 Co897 2.135 . S
C895 N893 1.340 . S
C895 N894 1.321 . S
C895 H919 0.930 . S
H896 C891 0.931 . S
Co897 N894 2.135 . S
Co897 N900 2.121 . S
Co897 O905 2.055 . S
Co897 O908 2.039 . S
Co897 N911 2.140 . S
C898 O899 1.227 . S
C898 O908 1.265 . S
O899 C898 1.227 . S
N900 Co897 2.121 . S
N900 C902 1.375 . S
N900 C903 1.313 . S
C901 C902 1.338 . S
C901 N904 1.377 . S
C901 H921 0.930 . S
C902 N900 1.375 . S
C902 C901 1.338 . S
C902 H906 0.931 . S
C903 N900 1.313 . S
C903 N904 1.344 . S
C903 H907 0.930 . S
N904 C901 1.377 . S
N904 C903 1.344 . S
O905 Co897 2.055 . S
O905 C909 1.253 . S
H906 C902 0.931 . S
H907 C903 0.930 . S
O908 Co897 2.039 . S
O908 C898 1.265 . S
C909 O905 1.253 . S
C909 O910 1.227 . S
O910 C909 1.227 . S
N911 Co897 2.140 . S
N911 C914 1.346 . S
N911 C915 1.345 . S
C912 C913 1.387 . S
C912 C916 1.391 . S
C913 C912 1.387 . S
C913 C914 1.369 . S
C913 H922 0.929 . S
C914 N911 1.346 . S
C914 C913 1.369 . S
C914 H917 0.928 . S
C915 N911 1.345 . S
C915 C916 1.371 . S
C915 H918 0.931 . S
C916 C912 1.391 . S
C916 C915 1.371 . S
C916 H923 0.930 . S
H917 C914 0.928 . S
H918 C915 0.931 . S
H919 C895 0.930 . S
H920 C892 0.930 . S
H921 C901 0.930 . S
H922 C913 0.929 . S
H923 C916 0.930 . S
C924 C925 1.351 . S
C924 N927 1.368 . S
C924 H929 0.931 . S
C925 C924 1.351 . S
C925 N926 1.373 . S
C925 H953 0.930 . S
N926 C925 1.373 . S
N926 C928 1.340 . S
N927 C924 1.368 . S
N927 C928 1.321 . S
N927 Co930 2.135 . S
C928 N926 1.340 . S
C928 N927 1.321 . S
C928 H952 0.930 . S
H929 C924 0.931 . S
Co930 N927 2.135 . S
Co930 N933 2.121 . S
Co930 O938 2.055 . S
Co930 O941 2.039 . S
Co930 N944 2.140 . S
C931 O932 1.227 . S
C931 O941 1.265 . S
O932 C931 1.227 . S
N933 Co930 2.121 . S
N933 C935 1.375 . S
N933 C936 1.313 . S
C934 C935 1.338 . S
C934 N937 1.377 . S
C934 H954 0.930 . S
C935 N933 1.375 . S
C935 C934 1.338 . S
C935 H939 0.931 . S
C936 N933 1.313 . S
C936 N937 1.344 . S
C936 H940 0.930 . S
N937 C934 1.377 . S
N937 C936 1.344 . S
O938 Co930 2.055 . S
O938 C942 1.253 . S
H939 C935 0.931 . S
H940 C936 0.930 . S
O941 Co930 2.039 . S
O941 C931 1.265 . S
C942 O938 1.253 . S
C942 O943 1.227 . S
O943 C942 1.227 . S
N944 Co930 2.140 . S
N944 C947 1.346 . S
N944 C948 1.345 . S
C945 C946 1.387 . S
C945 C949 1.391 . S
C946 C945 1.387 . S
C946 C947 1.369 . S
C946 H955 0.929 . S
C947 N944 1.346 . S
C947 C946 1.369 . S
C947 H950 0.928 . S
C948 N944 1.345 . S
C948 C949 1.371 . S
C948 H951 0.931 . S
C949 C945 1.391 . S
C949 C948 1.371 . S
C949 H956 0.930 . S
H950 C947 0.928 . S
H951 C948 0.931 . S
H952 C928 0.930 . S
H953 C925 0.930 . S
H954 C934 0.930 . S
H955 C946 0.929 . S
H956 C949 0.930 . S
C957 C958 1.351 . S
C957 N960 1.368 . S
C957 H962 0.931 . S
C958 C957 1.351 . S
C958 N959 1.373 . S
C958 H986 0.930 . S
N959 C958 1.373 . S
N959 C961 1.340 . S
N960 C957 1.368 . S
N960 C961 1.321 . S
N960 Co963 2.135 . S
C961 N959 1.340 . S
C961 N960 1.321 . S
C961 H985 0.930 . S
H962 C957 0.931 . S
Co963 N960 2.135 . S
Co963 N966 2.121 . S
Co963 O971 2.055 . S
Co963 O974 2.039 . S
Co963 N977 2.140 . S
C964 O965 1.227 . S
C964 O974 1.265 . S
O965 C964 1.227 . S
N966 Co963 2.121 . S
N966 C968 1.375 . S
N966 C969 1.313 . S
C967 C968 1.338 . S
C967 N970 1.377 . S
C967 H987 0.930 . S
C968 N966 1.375 . S
C968 C967 1.338 . S
C968 H972 0.931 . S
C969 N966 1.313 . S
C969 N970 1.344 . S
C969 H973 0.930 . S
N970 C967 1.377 . S
N970 C969 1.344 . S
O971 Co963 2.055 . S
O971 C975 1.253 . S
H972 C968 0.931 . S
H973 C969 0.930 . S
O974 Co963 2.039 . S
O974 C964 1.265 . S
C975 O971 1.253 . S
C975 O976 1.227 . S
O976 C975 1.227 . S
N977 Co963 2.140 . S
N977 C980 1.346 . S
N977 C981 1.345 . S
C978 C979 1.387 . S
C978 C982 1.391 . S
C979 C978 1.387 . S
C979 C980 1.369 . S
C979 H988 0.929 . S
C980 N977 1.346 . S
C980 C979 1.369 . S
C980 H983 0.928 . S
C981 N977 1.345 . S
C981 C982 1.371 . S
C981 H984 0.931 . S
C982 C978 1.391 . S
C982 C981 1.371 . S
C982 H989 0.930 . S
H983 C980 0.928 . S
H984 C981 0.931 . S
H985 C961 0.930 . S
H986 C958 0.930 . S
H987 C967 0.930 . S
H988 C979 0.929 . S
H989 C982 0.930 . S
C990 C991 1.351 . S
C990 N993 1.368 . S
C990 H995 0.931 . S
C991 C990 1.351 . S
C991 N992 1.373 . S
C991 H1019 0.930 . S
N992 C991 1.373 . S
N992 C994 1.340 . S
N993 C990 1.368 . S
N993 C994 1.321 . S
N993 Co996 2.135 1_556 S
C994 N992 1.340 . S
C994 N993 1.321 . S
C994 H1018 0.930 . S
H995 C990 0.931 . S
Co996 N993 2.135 1_554 S
Co996 N999 2.121 . S
Co996 O1004 2.055 . S
Co996 O1007 2.039 . S
Co996 N1010 2.140 . S
C997 O998 1.227 . S
C997 O1007 1.265 . S
O998 C997 1.227 . S
N999 Co996 2.121 . S
N999 C1001 1.375 . S
N999 C1002 1.313 . S
C1000 C1001 1.338 . S
C1000 N1003 1.377 . S
C1000 H1020 0.930 . S
C1001 N999 1.375 . S
C1001 C1000 1.338 . S
C1001 H1005 0.931 . S
C1002 N999 1.313 . S
C1002 N1003 1.344 . S
C1002 H1006 0.930 . S
N1003 C1000 1.377 . S
N1003 C1002 1.344 . S
O1004 Co996 2.055 . S
O1004 C1008 1.253 . S
H1005 C1001 0.931 . S
H1006 C1002 0.930 . S
O1007 Co996 2.039 . S
O1007 C997 1.265 . S
C1008 O1004 1.253 . S
C1008 O1009 1.227 . S
O1009 C1008 1.227 . S
N1010 Co996 2.140 . S
N1010 C1013 1.346 1_554 S
N1010 C1014 1.345 . S
C1011 C1012 1.387 1_554 S
C1011 C1015 1.391 . S
C1012 C1011 1.387 1_556 S
C1012 C1013 1.369 . S
C1012 H1021 0.929 . S
C1013 N1010 1.346 1_556 S
C1013 C1012 1.369 . S
C1013 H1016 0.928 . S
C1014 N1010 1.345 . S
C1014 C1015 1.371 . S
C1014 H1017 0.931 . S
C1015 C1011 1.391 . S
C1015 C1014 1.371 . S
C1015 H1022 0.930 . S
H1016 C1013 0.928 . S
H1017 C1014 0.931 . S
H1018 C994 0.930 . S
H1019 C991 0.930 . S
H1020 C1000 0.930 . S
H1021 C1012 0.929 . S
H1022 C1015 0.930 . S
C1023 C1024 1.351 . S
C1023 N1026 1.368 . S
C1023 H1028 0.931 . S
C1024 C1023 1.351 . S
C1024 N1025 1.373 . S
C1024 H1052 0.930 . S
N1025 C1024 1.373 . S
N1025 C1027 1.340 . S
N1026 C1023 1.368 . S
N1026 C1027 1.321 . S
N1026 Co1029 2.135 . S
C1027 N1025 1.340 . S
C1027 N1026 1.321 . S
C1027 H1051 0.930 . S
H1028 C1023 0.931 . S
Co1029 N1026 2.135 . S
Co1029 N1032 2.121 . S
Co1029 O1037 2.055 . S
Co1029 O1040 2.039 . S
Co1029 N1043 2.140 . S
C1030 O1031 1.227 . S
C1030 O1040 1.265 . S
O1031 C1030 1.227 . S
N1032 Co1029 2.121 . S
N1032 C1034 1.375 . S
N1032 C1035 1.313 . S
C1033 C1034 1.338 1_554 S
C1033 N1036 1.377 . S
C1033 H1053 0.930 . S
C1034 N1032 1.375 . S
C1034 C1033 1.338 1_556 S
C1034 H1038 0.931 . S
C1035 N1032 1.313 . S
C1035 N1036 1.344 1_556 S
C1035 H1039 0.930 . S
N1036 C1033 1.377 . S
N1036 C1035 1.344 1_554 S
O1037 Co1029 2.055 . S
O1037 C1041 1.253 . S
H1038 C1034 0.931 . S
H1039 C1035 0.930 . S
O1040 Co1029 2.039 . S
O1040 C1030 1.265 . S
C1041 O1037 1.253 . S
C1041 O1042 1.227 . S
O1042 C1041 1.227 . S
N1043 Co1029 2.140 . S
N1043 C1046 1.346 . S
N1043 C1047 1.345 . S
C1044 C1045 1.387 . S
C1044 C1048 1.391 . S
C1045 C1044 1.387 . S
C1045 C1046 1.369 . S
C1045 H1054 0.929 . S
C1046 N1043 1.346 . S
C1046 C1045 1.369 . S
C1046 H1049 0.928 . S
C1047 N1043 1.345 . S
C1047 C1048 1.371 . S
C1047 H1050 0.931 . S
C1048 C1044 1.391 . S
C1048 C1047 1.371 . S
C1048 H1055 0.930 . S
H1049 C1046 0.928 . S
H1050 C1047 0.931 . S
H1051 C1027 0.930 . S
H1052 C1024 0.930 . S
H1053 C1033 0.930 . S
H1054 C1045 0.929 . S
H1055 C1048 0.930 . S
H1056 C1062 0.930 . S
H1057 C1066 0.930 . S
H1058 C1071 0.929 . S
H1059 C1069 0.929 . S
H1060 C1064 0.929 . S
H1061 C1070 0.929 . S
C1062 H1056 0.930 . S
C1062 C1063 1.367 . S
C1062 C1070 1.378 . S
C1063 C1062 1.367 . S
C1063 C1071 1.433 . S
C1064 H1060 0.929 . S
C1064 C1066 1.378 . S
C1064 C1068 1.350 . S
C1065 C1068 1.463 . S
C1065 C1070 1.350 . S
C1065 N1073 1.427 . S
C1066 H1057 0.930 . S
C1066 C1064 1.378 . S
C1066 C1067 1.367 . S
C1067 C1066 1.367 . S
C1067 C1069 1.433 . S
C1068 C1064 1.350 . S
C1068 C1065 1.463 . S
C1068 N1072 1.427 . S
C1069 H1059 0.929 . S
C1069 C1067 1.433 . S
C1069 N1072 1.384 . S
C1070 H1061 0.929 . S
C1070 C1062 1.378 . S
C1070 C1065 1.350 . S
C1071 H1058 0.929 . S
C1071 C1063 1.433 . S
C1071 N1073 1.384 . S
N1072 C1068 1.427 . S
N1072 C1069 1.384 . S
N1073 C1065 1.427 . S
N1073 C1071 1.384 . S
H1074 C1080 0.930 . S
H1075 C1084 0.930 . S
H1076 C1089 0.929 . S
H1077 C1087 0.929 . S
H1078 C1082 0.929 . S
H1079 C1088 0.929 . S
C1080 H1074 0.930 . S
C1080 C1081 1.367 . S
C1080 C1088 1.378 . S
C1081 C1080 1.367 . S
C1081 C1089 1.433 . S
C1082 H1078 0.929 . S
C1082 C1084 1.378 . S
C1082 C1086 1.350 . S
C1083 C1086 1.463 . S
C1083 C1088 1.350 . S
C1083 N1091 1.427 . S
C1084 H1075 0.930 . S
C1084 C1082 1.378 . S
C1084 C1085 1.367 . S
C1085 C1084 1.367 . S
C1085 C1087 1.433 . S
C1086 C1082 1.350 . S
C1086 C1083 1.463 . S
C1086 N1090 1.427 . S
C1087 H1077 0.929 . S
C1087 C1085 1.433 . S
C1087 N1090 1.384 . S
C1088 H1079 0.929 . S
C1088 C1080 1.378 . S
C1088 C1083 1.350 . S
C1089 H1076 0.929 . S
C1089 C1081 1.433 . S
C1089 N1091 1.384 . S
N1090 C1086 1.427 . S
N1090 C1087 1.384 . S
N1091 C1083 1.427 . S
N1091 C1089 1.384 . S
H1092 C1098 0.930 . S
H1093 C1102 0.930 . S
H1094 C1107 0.929 . S
H1095 C1105 0.929 . S
H1096 C1100 0.929 . S
H1097 C1106 0.929 1_554 S
C1098 H1092 0.930 . S
C1098 C1099 1.367 . S
C1098 C1106 1.378 . S
C1099 C1098 1.367 . S
C1099 C1107 1.433 . S
C1100 H1096 0.929 . S
C1100 C1102 1.378 . S
C1100 C1104 1.350 . S
C1101 C1104 1.463 . S
C1101 C1106 1.350 1_554 S
C1101 N1109 1.427 1_554 S
C1102 H1093 0.930 . S
C1102 C1100 1.378 . S
C1102 C1103 1.367 . S
C1103 C1102 1.367 . S
C1103 C1105 1.433 . S
C1104 C1100 1.350 . S
C1104 C1101 1.463 . S
C1104 N1108 1.427 . S
C1105 H1095 0.929 . S
C1105 C1103 1.433 . S
C1105 N1108 1.384 . S
C1106 H1097 0.929 1_556 S
C1106 C1098 1.378 . S
C1106 C1101 1.350 1_556 S
C1107 H1094 0.929 . S
C1107 C1099 1.433 . S
C1107 N1109 1.384 . S
N1108 C1104 1.427 . S
N1108 C1105 1.384 . S
N1109 C1101 1.427 1_556 S
N1109 C1107 1.384 . S
H1110 C1116 0.930 . S
H1111 C1120 0.930 . S
H1112 C1125 0.929 . S
H1113 C1123 0.929 . S
H1114 C1118 0.929 . S
H1115 C1124 0.929 . S
C1116 H1110 0.930 . S
C1116 C1117 1.367 . S
C1116 C1124 1.378 . S
C1117 C1116 1.367 . S
C1117 C1125 1.433 . S
C1118 H1114 0.929 . S
C1118 C1120 1.378 . S
C1118 C1122 1.350 . S
C1119 C1122 1.463 . S
C1119 C1124 1.350 . S
C1119 N1127 1.427 . S
C1120 H1111 0.930 . S
C1120 C1118 1.378 . S
C1120 C1121 1.367 . S
C1121 C1120 1.367 . S
C1121 C1123 1.433 . S
C1122 C1118 1.350 . S
C1122 C1119 1.463 . S
C1122 N1126 1.427 . S
C1123 H1113 0.929 . S
C1123 C1121 1.433 . S
C1123 N1126 1.384 . S
C1124 H1115 0.929 . S
C1124 C1116 1.378 . S
C1124 C1119 1.350 . S
C1125 H1112 0.929 . S
C1125 C1117 1.433 . S
C1125 N1127 1.384 . S
N1126 C1122 1.427 . S
N1126 C1123 1.384 . S
N1127 C1119 1.427 . S
N1127 C1125 1.384 . S
H1128 C1134 0.930 . S
H1129 C1138 0.930 . S
H1130 C1143 0.929 . S
H1131 C1141 0.929 . S
H1132 C1136 0.929 . S
H1133 C1142 0.929 . S
C1134 H1128 0.930 . S
C1134 C1135 1.367 . S
C1134 C1142 1.378 . S
C1135 C1134 1.367 . S
C1135 C1143 1.433 . S
C1136 H1132 0.929 . S
C1136 C1138 1.378 . S
C1136 C1140 1.350 . S
C1137 C1140 1.463 . S
C1137 C1142 1.350 . S
C1137 N1145 1.427 . S
C1138 H1129 0.930 . S
C1138 C1136 1.378 . S
C1138 C1139 1.367 . S
C1139 C1138 1.367 . S
C1139 C1141 1.433 . S
C1140 C1136 1.350 . S
C1140 C1137 1.463 . S
C1140 N1144 1.427 . S
C1141 H1131 0.929 . S
C1141 C1139 1.433 . S
C1141 N1144 1.384 . S
C1142 H1133 0.929 . S
C1142 C1134 1.378 . S
C1142 C1137 1.350 . S
C1143 H1130 0.929 . S
C1143 C1135 1.433 . S
C1143 N1145 1.384 . S
N1144 C1140 1.427 . S
N1144 C1141 1.384 . S
N1145 C1137 1.427 . S
N1145 C1143 1.384 . S
H1146 C1152 0.930 . S
H1147 C1156 0.930 . S
H1148 C1161 0.929 . S
H1149 C1159 0.929 . S
H1150 C1154 0.929 . S
H1151 C1160 0.929 . S
C1152 H1146 0.930 . S
C1152 C1153 1.367 . S
C1152 C1160 1.378 . S
C1153 C1152 1.367 . S
C1153 C1161 1.433 . S
C1154 H1150 0.929 . S
C1154 C1156 1.378 . S
C1154 C1158 1.350 . S
C1155 C1158 1.463 . S
C1155 C1160 1.350 . S
C1155 N1163 1.427 . S
C1156 H1147 0.930 . S
C1156 C1154 1.378 . S
C1156 C1157 1.367 . S
C1157 C1156 1.367 . S
C1157 C1159 1.433 . S
C1158 C1154 1.350 . S
C1158 C1155 1.463 . S
C1158 N1162 1.427 . S
C1159 H1149 0.929 . S
C1159 C1157 1.433 . S
C1159 N1162 1.384 . S
C1160 H1151 0.929 . S
C1160 C1152 1.378 . S
C1160 C1155 1.350 . S
C1161 H1148 0.929 . S
C1161 C1153 1.433 . S
C1161 N1163 1.384 . S
N1162 C1158 1.427 . S
N1162 C1159 1.384 . S
N1163 C1155 1.427 . S
N1163 C1161 1.384 . S
H1164 C1170 0.930 . S
H1165 C1174 0.930 . S
H1166 C1179 0.929 . S
H1167 C1177 0.929 . S
H1168 C1172 0.935 . S
H1169 C1178 0.929 . S
C1170 H1164 0.930 . S
C1170 C1171 1.367 . S
C1170 C1178 1.378 . S
C1171 C1170 1.367 . S
C1171 C1179 1.433 . S
C1172 H1168 0.935 . S
C1172 C1174 1.378 . S
C1172 C1176 1.350 1_554 S
C1173 C1176 1.463 . S
C1173 C1178 1.350 . S
C1173 N1181 1.427 . S
C1174 H1165 0.930 . S
C1174 C1172 1.378 . S
C1174 C1175 1.367 . S
C1175 C1174 1.367 . S
C1175 C1177 1.433 . S
C1176 C1172 1.350 1_556 S
C1176 C1173 1.463 . S
C1176 N1180 1.427 1_556 S
C1177 H1167 0.929 . S
C1177 C1175 1.433 . S
C1177 N1180 1.384 . S
C1178 H1169 0.929 . S
C1178 C1170 1.378 . S
C1178 C1173 1.350 . S
C1179 H1166 0.929 . S
C1179 C1171 1.433 . S
C1179 N1181 1.384 . S
N1180 C1176 1.427 1_554 S
N1180 C1177 1.384 . S
N1181 C1173 1.427 . S
N1181 C1179 1.384 . S
H1182 C1188 0.930 . S
H1183 C1192 0.930 . S
H1184 C1197 0.929 . S
H1185 C1195 0.929 . S
H1186 C1190 0.929 . S
H1187 C1196 0.929 . S
C1188 H1182 0.930 . S
C1188 C1189 1.367 . S
C1188 C1196 1.378 . S
C1189 C1188 1.367 . S
C1189 C1197 1.433 . S
C1190 H1186 0.929 . S
C1190 C1192 1.378 . S
C1190 C1194 1.350 . S
C1191 C1194 1.463 . S
C1191 C1196 1.350 . S
C1191 N1199 1.427 . S
C1192 H1183 0.930 . S
C1192 C1190 1.378 . S
C1192 C1193 1.367 . S
C1193 C1192 1.367 . S
C1193 C1195 1.433 . S
C1194 C1190 1.350 . S
C1194 C1191 1.463 . S
C1194 N1198 1.427 . S
C1195 H1185 0.929 . S
C1195 C1193 1.433 . S
C1195 N1198 1.384 . S
C1196 H1187 0.929 . S
C1196 C1188 1.378 . S
C1196 C1191 1.350 . S
C1197 H1184 0.929 . S
C1197 C1189 1.433 . S
C1197 N1199 1.384 . S
N1198 C1194 1.427 . S
N1198 C1195 1.384 . S
N1199 C1191 1.427 . S
N1199 C1197 1.384 . S
H1200 C1206 0.930 . S
H1201 C1210 0.930 . S
H1202 C1215 0.929 . S
H1203 C1213 0.929 . S
H1204 C1208 0.929 . S
H1205 C1214 0.929 . S
C1206 H1200 0.930 . S
C1206 C1207 1.367 . S
C1206 C1214 1.378 . S
C1207 C1206 1.367 . S
C1207 C1215 1.433 . S
C1208 H1204 0.929 . S
C1208 C1210 1.378 . S
C1208 C1212 1.350 . S
C1209 C1212 1.463 . S
C1209 C1214 1.350 . S
C1209 N1217 1.427 . S
C1210 H1201 0.930 . S
C1210 C1208 1.378 . S
C1210 C1211 1.367 . S
C1211 C1210 1.367 . S
C1211 C1213 1.433 . S
C1212 C1208 1.350 . S
C1212 C1209 1.463 . S
C1212 N1216 1.427 . S
C1213 H1203 0.929 . S
C1213 C1211 1.433 . S
C1213 N1216 1.384 . S
C1214 H1205 0.929 . S
C1214 C1206 1.378 . S
C1214 C1209 1.350 . S
C1215 H1202 0.929 . S
C1215 C1207 1.433 . S
C1215 N1217 1.384 . S
N1216 C1212 1.427 . S
N1216 C1213 1.384 . S
N1217 C1209 1.427 . S
N1217 C1215 1.384 . S
H1218 C1224 0.930 . S
H1219 C1228 0.930 . S
H1220 C1233 0.929 . S
H1221 C1231 0.929 . S
H1222 C1226 0.929 . S
H1223 C1232 0.929 . S
C1224 H1218 0.930 . S
C1224 C1225 1.367 . S
C1224 C1232 1.378 . S
C1225 C1224 1.367 . S
C1225 C1233 1.433 . S
C1226 H1222 0.929 . S
C1226 C1228 1.378 . S
C1226 C1230 1.350 . S
C1227 C1230 1.463 . S
C1227 C1232 1.350 . S
C1227 N1235 1.427 . S
C1228 H1219 0.930 . S
C1228 C1226 1.378 . S
C1228 C1229 1.367 . S
C1229 C1228 1.367 . S
C1229 C1231 1.433 . S
C1230 C1226 1.350 . S
C1230 C1227 1.463 . S
C1230 N1234 1.427 . S
C1231 H1221 0.929 . S
C1231 C1229 1.433 . S
C1231 N1234 1.384 . S
C1232 H1223 0.929 . S
C1232 C1224 1.378 . S
C1232 C1227 1.350 . S
C1233 H1220 0.929 . S
C1233 C1225 1.433 . S
C1233 N1235 1.384 . S
N1234 C1230 1.427 . S
N1234 C1231 1.384 . S
N1235 C1227 1.427 . S
N1235 C1233 1.384 . S
H1236 C1242 0.930 . S
H1237 C1246 0.930 . S
H1238 C1251 0.929 . S
H1239 C1249 0.929 . S
H1240 C1244 0.929 1_556 S
H1241 C1250 0.929 . S
C1242 H1236 0.930 . S
C1242 C1243 1.367 . S
C1242 C1250 1.378 . S
C1243 C1242 1.367 . S
C1243 C1251 1.433 . S
C1244 H1240 0.929 1_554 S
C1244 C1246 1.378 . S
C1244 C1248 1.350 1_554 S
C1245 C1248 1.463 . S
C1245 C1250 1.350 . S
C1245 N1253 1.427 . S
C1246 H1237 0.930 . S
C1246 C1244 1.378 . S
C1246 C1247 1.367 . S
C1247 C1246 1.367 . S
C1247 C1249 1.433 . S
C1248 C1244 1.350 1_556 S
C1248 C1245 1.463 . S
C1248 N1252 1.427 1_556 S
C1249 H1239 0.929 . S
C1249 C1247 1.433 . S
C1249 N1252 1.384 . S
C1250 H1241 0.929 . S
C1250 C1242 1.378 . S
C1250 C1245 1.350 . S
C1251 H1238 0.929 . S
C1251 C1243 1.433 . S
C1251 N1253 1.384 . S
N1252 C1248 1.427 1_554 S
N1252 C1249 1.384 . S
N1253 C1245 1.427 . S
N1253 C1251 1.384 . S
H1254 C1260 0.930 . S
H1255 C1264 0.930 . S
H1256 C1269 0.929 . S
H1257 C1267 0.929 . S
H1258 C1262 0.929 . S
H1259 C1268 0.929 . S
C1260 H1254 0.930 . S
C1260 C1261 1.367 . S
C1260 C1268 1.378 . S
C1261 C1260 1.367 . S
C1261 C1269 1.433 . S
C1262 H1258 0.929 . S
C1262 C1264 1.378 . S
C1262 C1266 1.350 . S
C1263 C1266 1.463 . S
C1263 C1268 1.350 . S
C1263 N1271 1.427 . S
C1264 H1255 0.930 . S
C1264 C1262 1.378 . S
C1264 C1265 1.367 . S
C1265 C1264 1.367 . S
C1265 C1267 1.433 . S
C1266 C1262 1.350 . S
C1266 C1263 1.463 . S
C1266 N1270 1.427 . S
C1267 H1257 0.929 . S
C1267 C1265 1.433 . S
C1267 N1270 1.384 . S
C1268 H1259 0.929 . S
C1268 C1260 1.378 . S
C1268 C1263 1.350 . S
C1269 H1256 0.929 . S
C1269 C1261 1.433 . S
C1269 N1271 1.384 . S
N1270 C1266 1.427 . S
N1270 C1267 1.384 . S
N1271 C1263 1.427 . S
N1271 C1269 1.384 . S
H1272 C1278 0.930 . S
H1273 C1282 0.930 . S
H1274 C1287 0.929 . S
H1275 C1285 0.929 . S
H1276 C1280 0.929 . S
H1277 C1286 0.929 . S
C1278 H1272 0.930 . S
C1278 C1279 1.367 . S
C1278 C1286 1.378 . S
C1279 C1278 1.367 . S
C1279 C1287 1.433 . S
C1280 H1276 0.929 . S
C1280 C1282 1.378 . S
C1280 C1284 1.350 . S
C1281 C1284 1.463 . S
C1281 C1286 1.350 . S
C1281 N1289 1.427 . S
C1282 H1273 0.930 . S
C1282 C1280 1.378 . S
C1282 C1283 1.367 . S
C1283 C1282 1.367 . S
C1283 C1285 1.433 . S
C1284 C1280 1.350 . S
C1284 C1281 1.463 . S
C1284 N1288 1.427 . S
C1285 H1275 0.929 . S
C1285 C1283 1.433 . S
C1285 N1288 1.384 . S
C1286 H1277 0.929 . S
C1286 C1278 1.378 . S
C1286 C1281 1.350 . S
C1287 H1274 0.929 . S
C1287 C1279 1.433 . S
C1287 N1289 1.384 . S
N1288 C1284 1.427 . S
N1288 C1285 1.384 . S
N1289 C1281 1.427 . S
N1289 C1287 1.384 . S
H1290 C1296 0.930 . S
H1291 C1300 0.930 . S
H1292 C1305 0.929 . S
H1293 C1303 0.929 . S
H1294 C1298 0.929 . S
H1295 C1304 0.929 . S
C1296 H1290 0.930 . S
C1296 C1297 1.367 . S
C1296 C1304 1.378 . S
C1297 C1296 1.367 . S
C1297 C1305 1.433 . S
C1298 H1294 0.929 . S
C1298 C1300 1.378 . S
C1298 C1302 1.350 . S
C1299 C1302 1.463 . S
C1299 C1304 1.350 . S
C1299 N1307 1.427 . S
C1300 H1291 0.930 . S
C1300 C1298 1.378 . S
C1300 C1301 1.367 . S
C1301 C1300 1.367 . S
C1301 C1303 1.433 . S
C1302 C1298 1.350 . S
C1302 C1299 1.463 . S
C1302 N1306 1.427 . S
C1303 H1293 0.929 . S
C1303 C1301 1.433 . S
C1303 N1306 1.384 . S
C1304 H1295 0.929 . S
C1304 C1296 1.378 . S
C1304 C1299 1.350 . S
C1305 H1292 0.929 . S
C1305 C1297 1.433 . S
C1305 N1307 1.384 . S
N1306 C1302 1.427 . S
N1306 C1303 1.384 . S
N1307 C1299 1.427 . S
N1307 C1305 1.384 . S
H1308 C1314 0.930 . S
H1309 C1318 0.930 . S
H1310 C1323 0.929 . S
H1311 C1321 0.929 . S
H1312 C1316 0.929 . S
H1313 C1322 0.929 1_554 S
C1314 H1308 0.930 . S
C1314 C1315 1.367 . S
C1314 C1322 1.378 . S
C1315 C1314 1.367 . S
C1315 C1323 1.433 . S
C1316 H1312 0.929 . S
C1316 C1318 1.378 . S
C1316 C1320 1.350 . S
C1317 C1320 1.463 . S
C1317 C1322 1.350 1_554 S
C1317 N1325 1.427 1_554 S
C1318 H1309 0.930 . S
C1318 C1316 1.378 . S
C1318 C1319 1.367 . S
C1319 C1318 1.367 . S
C1319 C1321 1.433 . S
C1320 C1316 1.350 . S
C1320 C1317 1.463 . S
C1320 N1324 1.427 . S
C1321 H1311 0.929 . S
C1321 C1319 1.433 . S
C1321 N1324 1.384 . S
C1322 H1313 0.929 1_556 S
C1322 C1314 1.378 . S
C1322 C1317 1.350 1_556 S
C1323 H1310 0.929 . S
C1323 C1315 1.433 . S
C1323 N1325 1.384 . S
N1324 C1320 1.427 . S
N1324 C1321 1.384 . S
N1325 C1317 1.427 1_556 S
N1325 C1323 1.384 . S
H1326 C1332 0.930 . S
H1327 C1336 0.930 . S
H1328 C1341 0.929 . S
H1329 C1339 0.929 . S
H1330 C1334 0.929 . S
H1331 C1340 0.929 . S
C1332 H1326 0.930 . S
C1332 C1333 1.367 . S
C1332 C1340 1.378 . S
C1333 C1332 1.367 . S
C1333 C1341 1.433 . S
C1334 H1330 0.929 . S
C1334 C1336 1.378 . S
C1334 C1338 1.350 . S
C1335 C1338 1.463 . S
C1335 C1340 1.350 . S
C1335 N1343 1.427 . S
C1336 H1327 0.930 . S
C1336 C1334 1.378 . S
C1336 C1337 1.367 . S
C1337 C1336 1.367 . S
C1337 C1339 1.433 . S
C1338 C1334 1.350 . S
C1338 C1335 1.463 . S
C1338 N1342 1.427 . S
C1339 H1329 0.929 . S
C1339 C1337 1.433 . S
C1339 N1342 1.384 . S
C1340 H1331 0.929 . S
C1340 C1332 1.378 . S
C1340 C1335 1.350 . S
C1341 H1328 0.929 . S
C1341 C1333 1.433 . S
C1341 N1343 1.384 . S
N1342 C1338 1.427 . S
N1342 C1339 1.384 . S
N1343 C1335 1.427 . S
N1343 C1341 1.384 . S
H1344 C1350 0.930 . S
H1345 C1354 0.930 . S
H1346 C1359 0.929 . S
H1347 C1357 0.929 . S
H1348 C1352 0.929 . S
H1349 C1358 0.929 1_554 S
C1350 H1344 0.930 . S
C1350 C1351 1.367 . S
C1350 C1358 1.378 . S
C1351 C1350 1.367 . S
C1351 C1359 1.433 . S
C1352 H1348 0.929 . S
C1352 C1354 1.378 . S
C1352 C1356 1.350 . S
C1353 C1356 1.463 . S
C1353 C1358 1.350 1_554 S
C1353 N1361 1.427 1_554 S
C1354 H1345 0.930 . S
C1354 C1352 1.378 . S
C1354 C1355 1.367 . S
C1355 C1354 1.367 . S
C1355 C1357 1.433 . S
C1356 C1352 1.350 . S
C1356 C1353 1.463 . S
C1356 N1360 1.427 . S
C1357 H1347 0.929 . S
C1357 C1355 1.433 . S
C1357 N1360 1.384 . S
C1358 H1349 0.929 1_556 S
C1358 C1350 1.378 . S
C1358 C1353 1.350 1_556 S
C1359 H1346 0.929 . S
C1359 C1351 1.433 . S
C1359 N1361 1.384 . S
N1360 C1356 1.427 . S
N1360 C1357 1.384 . S
N1361 C1353 1.427 1_556 S
N1361 C1359 1.384 . S
H1362 C1368 0.930 . S
H1363 C1372 0.930 . S
H1364 C1377 0.929 . S
H1365 C1375 0.929 . S
H1366 C1370 0.929 . S
H1367 C1376 0.929 . S
C1368 H1362 0.930 . S
C1368 C1369 1.367 . S
C1368 C1376 1.378 . S
C1369 C1368 1.367 . S
C1369 C1377 1.433 . S
C1370 H1366 0.929 . S
C1370 C1372 1.378 . S
C1370 C1374 1.350 . S
C1371 C1374 1.463 . S
C1371 C1376 1.350 . S
C1371 N1379 1.427 . S
C1372 H1363 0.930 . S
C1372 C1370 1.378 . S
C1372 C1373 1.367 . S
C1373 C1372 1.367 . S
C1373 C1375 1.433 . S
C1374 C1370 1.350 . S
C1374 C1371 1.463 . S
C1374 N1378 1.427 . S
C1375 H1365 0.929 . S
C1375 C1373 1.433 . S
C1375 N1378 1.384 . S
C1376 H1367 0.929 . S
C1376 C1368 1.378 . S
C1376 C1371 1.350 . S
C1377 H1364 0.929 . S
C1377 C1369 1.433 . S
C1377 N1379 1.384 . S
N1378 C1374 1.427 . S
N1378 C1375 1.384 . S
N1379 C1371 1.427 . S
N1379 C1377 1.384 . S
H1380 C1386 0.930 . S
H1381 C1390 0.930 . S
H1382 C1395 0.929 . S
H1383 C1393 0.929 . S
H1384 C1388 0.929 . S
H1385 C1394 0.929 . S
C1386 H1380 0.930 . S
C1386 C1387 1.367 . S
C1386 C1394 1.378 . S
C1387 C1386 1.367 . S
C1387 C1395 1.433 . S
C1388 H1384 0.929 . S
C1388 C1390 1.378 . S
C1388 C1392 1.350 . S
C1389 C1392 1.463 . S
C1389 C1394 1.350 . S
C1389 N1397 1.427 . S
C1390 H1381 0.930 . S
C1390 C1388 1.378 . S
C1390 C1391 1.367 . S
C1391 C1390 1.367 . S
C1391 C1393 1.433 . S
C1392 C1388 1.350 . S
C1392 C1389 1.463 . S
C1392 N1396 1.427 . S
C1393 H1383 0.929 . S
C1393 C1391 1.433 . S
C1393 N1396 1.384 . S
C1394 H1385 0.929 . S
C1394 C1386 1.378 . S
C1394 C1389 1.350 . S
C1395 H1382 0.929 . S
C1395 C1387 1.433 . S
C1395 N1397 1.384 . S
N1396 C1392 1.427 . S
N1396 C1393 1.384 . S
N1397 C1389 1.427 . S
N1397 C1395 1.384 . S
H1398 C1404 0.930 . S
H1399 C1408 0.930 . S
H1400 C1413 0.929 . S
H1401 C1411 0.929 . S
H1402 C1406 0.929 . S
H1403 C1412 0.929 . S
C1404 H1398 0.930 . S
C1404 C1405 1.367 . S
C1404 C1412 1.378 . S
C1405 C1404 1.367 . S
C1405 C1413 1.433 . S
C1406 H1402 0.929 . S
C1406 C1408 1.378 . S
C1406 C1410 1.350 . S
C1407 C1410 1.463 . S
C1407 C1412 1.350 . S
C1407 N1415 1.427 . S
C1408 H1399 0.930 . S
C1408 C1406 1.378 . S
C1408 C1409 1.367 . S
C1409 C1408 1.367 . S
C1409 C1411 1.433 . S
C1410 C1406 1.350 . S
C1410 C1407 1.463 . S
C1410 N1414 1.427 . S
C1411 H1401 0.929 . S
C1411 C1409 1.433 . S
C1411 N1414 1.384 . S
C1412 H1403 0.929 . S
C1412 C1404 1.378 . S
C1412 C1407 1.350 . S
C1413 H1400 0.929 . S
C1413 C1405 1.433 . S
C1413 N1415 1.384 . S
N1414 C1410 1.427 . S
N1414 C1411 1.384 . S
N1415 C1407 1.427 . S
N1415 C1413 1.384 . S
H1416 C1422 0.930 . S
H1417 C1426 0.930 . S
H1418 C1431 0.929 . S
H1419 C1429 0.929 . S
H1420 C1424 0.929 . S
H1421 C1430 0.926 1_556 S
C1422 H1416 0.930 . S
C1422 C1423 1.367 . S
C1422 C1430 1.378 . S
C1423 C1422 1.367 . S
C1423 C1431 1.433 . S
C1424 H1420 0.929 . S
C1424 C1426 1.378 . S
C1424 C1428 1.350 . S
C1425 C1428 1.463 . S
C1425 C1430 1.350 1_556 S
C1425 N1433 1.427 1_556 S
C1426 H1417 0.930 . S
C1426 C1424 1.378 . S
C1426 C1427 1.367 . S
C1427 C1426 1.367 . S
C1427 C1429 1.433 . S
C1428 C1424 1.350 . S
C1428 C1425 1.463 . S
C1428 N1432 1.427 . S
C1429 H1419 0.929 . S
C1429 C1427 1.433 . S
C1429 N1432 1.384 . S
C1430 H1421 0.926 1_554 S
C1430 C1422 1.378 . S
C1430 C1425 1.350 1_554 S
C1431 H1418 0.929 . S
C1431 C1423 1.433 . S
C1431 N1433 1.384 . S
N1432 C1428 1.427 . S
N1432 C1429 1.384 . S
N1433 C1425 1.427 1_554 S
N1433 C1431 1.384 . S
H1434 C1440 0.930 . S
H1435 C1444 0.930 . S
H1436 C1449 0.929 . S
H1437 C1447 0.929 . S
H1438 C1442 0.929 . S
H1439 C1448 0.929 . S
C1440 H1434 0.930 . S
C1440 C1441 1.367 . S
C1440 C1448 1.378 . S
C1441 C1440 1.367 . S
C1441 C1449 1.433 . S
C1442 H1438 0.929 . S
C1442 C1444 1.378 . S
C1442 C1446 1.350 . S
C1443 C1446 1.463 . S
C1443 C1448 1.350 . S
C1443 N1451 1.427 . S
C1444 H1435 0.930 . S
C1444 C1442 1.378 . S
C1444 C1445 1.367 . S
C1445 C1444 1.367 . S
C1445 C1447 1.433 . S
C1446 C1442 1.350 . S
C1446 C1443 1.463 . S
C1446 N1450 1.427 . S
C1447 H1437 0.929 . S
C1447 C1445 1.433 . S
C1447 N1450 1.384 . S
C1448 H1439 0.929 . S
C1448 C1440 1.378 . S
C1448 C1443 1.350 . S
C1449 H1436 0.929 . S
C1449 C1441 1.433 . S
C1449 N1451 1.384 . S
N1450 C1446 1.427 . S
N1450 C1447 1.384 . S
N1451 C1443 1.427 . S
N1451 C1449 1.384 . S
H1452 C1458 0.930 . S
H1453 C1462 0.930 . S
H1454 C1467 0.929 . S
H1455 C1465 0.929 . S
H1456 C1460 0.929 . S
H1457 C1466 0.929 . S
C1458 H1452 0.930 . S
C1458 C1459 1.367 . S
C1458 C1466 1.378 . S
C1459 C1458 1.367 . S
C1459 C1467 1.433 . S
C1460 H1456 0.929 . S
C1460 C1462 1.378 . S
C1460 C1464 1.350 . S
C1461 C1464 1.463 . S
C1461 C1466 1.350 . S
C1461 N1469 1.427 . S
C1462 H1453 0.930 . S
C1462 C1460 1.378 . S
C1462 C1463 1.367 . S
C1463 C1462 1.367 . S
C1463 C1465 1.433 . S
C1464 C1460 1.350 . S
C1464 C1461 1.463 . S
C1464 N1468 1.427 . S
C1465 H1455 0.929 . S
C1465 C1463 1.433 . S
C1465 N1468 1.384 . S
C1466 H1457 0.929 . S
C1466 C1458 1.378 . S
C1466 C1461 1.350 . S
C1467 H1454 0.929 . S
C1467 C1459 1.433 . S
C1467 N1469 1.384 . S
N1468 C1464 1.427 . S
N1468 C1465 1.384 . S
N1469 C1461 1.427 . S
N1469 C1467 1.384 . S
H1470 C1476 0.930 . S
H1471 C1480 0.930 . S
H1472 C1485 0.929 . S
H1473 C1483 0.929 . S
H1474 C1478 0.929 . S
H1475 C1484 0.929 . S
C1476 H1470 0.930 . S
C1476 C1477 1.367 . S
C1476 C1484 1.378 . S
C1477 C1476 1.367 . S
C1477 C1485 1.433 . S
C1478 H1474 0.929 . S
C1478 C1480 1.378 . S
C1478 C1482 1.350 . S
C1479 C1482 1.463 . S
C1479 C1484 1.350 . S
C1479 N1487 1.427 . S
C1480 H1471 0.930 . S
C1480 C1478 1.378 . S
C1480 C1481 1.367 . S
C1481 C1480 1.367 . S
C1481 C1483 1.433 . S
C1482 C1478 1.350 . S
C1482 C1479 1.463 . S
C1482 N1486 1.427 . S
C1483 H1473 0.929 . S
C1483 C1481 1.433 . S
C1483 N1486 1.384 . S
C1484 H1475 0.929 . S
C1484 C1476 1.378 . S
C1484 C1479 1.350 . S
C1485 H1472 0.929 . S
C1485 C1477 1.433 . S
C1485 N1487 1.384 . S
N1486 C1482 1.427 . S
N1486 C1483 1.384 . S
N1487 C1479 1.427 . S
N1487 C1485 1.384 . S
H1488 C1494 0.930 . S
H1489 C1498 0.930 . S
H1490 C1503 0.929 . S
H1491 C1501 0.929 . S
H1492 C1496 0.929 . S
H1493 C1502 0.929 1_556 S
C1494 H1488 0.930 . S
C1494 C1495 1.367 . S
C1494 C1502 1.378 . S
C1495 C1494 1.367 . S
C1495 C1503 1.433 . S
C1496 H1492 0.929 . S
C1496 C1498 1.378 . S
C1496 C1500 1.350 . S
C1497 C1500 1.463 . S
C1497 C1502 1.350 1_556 S
C1497 N1505 1.427 1_556 S
C1498 H1489 0.930 . S
C1498 C1496 1.378 . S
C1498 C1499 1.367 . S
C1499 C1498 1.367 . S
C1499 C1501 1.433 . S
C1500 C1496 1.350 . S
C1500 C1497 1.463 . S
C1500 N1504 1.427 . S
C1501 H1491 0.929 . S
C1501 C1499 1.433 . S
C1501 N1504 1.384 . S
C1502 H1493 0.929 1_554 S
C1502 C1494 1.378 . S
C1502 C1497 1.350 1_554 S
C1503 H1490 0.929 . S
C1503 C1495 1.433 . S
C1503 N1505 1.384 . S
N1504 C1500 1.427 . S
N1504 C1501 1.384 . S
N1505 C1497 1.427 1_554 S
N1505 C1503 1.384 . S
H1506 C1512 0.930 . S
H1507 C1516 0.930 . S
H1508 C1521 0.929 . S
H1509 C1519 0.929 . S
H1510 C1514 0.929 . S
H1511 C1520 0.929 . S
C1512 H1506 0.930 . S
C1512 C1513 1.367 . S
C1512 C1520 1.378 . S
C1513 C1512 1.367 . S
C1513 C1521 1.433 . S
C1514 H1510 0.929 . S
C1514 C1516 1.378 . S
C1514 C1518 1.350 . S
C1515 C1518 1.463 . S
C1515 C1520 1.350 . S
C1515 N1523 1.427 . S
C1516 H1507 0.930 . S
C1516 C1514 1.378 . S
C1516 C1517 1.367 . S
C1517 C1516 1.367 . S
C1517 C1519 1.433 . S
C1518 C1514 1.350 . S
C1518 C1515 1.463 . S
C1518 N1522 1.427 . S
C1519 H1509 0.929 . S
C1519 C1517 1.433 . S
C1519 N1522 1.384 . S
C1520 H1511 0.929 . S
C1520 C1512 1.378 . S
C1520 C1515 1.350 . S
C1521 H1508 0.929 . S
C1521 C1513 1.433 . S
C1521 N1523 1.384 . S
N1522 C1518 1.427 . S
N1522 C1519 1.384 . S
N1523 C1515 1.427 . S
N1523 C1521 1.384 . S
H1524 C1530 0.930 . S
H1525 C1534 0.930 . S
H1526 C1539 0.929 . S
H1527 C1537 0.929 . S
H1528 C1532 0.929 . S
H1529 C1538 0.929 . S
C1530 H1524 0.930 . S
C1530 C1531 1.367 . S
C1530 C1538 1.378 . S
C1531 C1530 1.367 . S
C1531 C1539 1.433 . S
C1532 H1528 0.929 . S
C1532 C1534 1.378 . S
C1532 C1536 1.350 . S
C1533 C1536 1.463 . S
C1533 C1538 1.350 . S
C1533 N1541 1.427 . S
C1534 H1525 0.930 . S
C1534 C1532 1.378 . S
C1534 C1535 1.367 . S
C1535 C1534 1.367 . S
C1535 C1537 1.433 . S
C1536 C1532 1.350 . S
C1536 C1533 1.463 . S
C1536 N1540 1.427 . S
C1537 H1527 0.929 . S
C1537 C1535 1.433 . S
C1537 N1540 1.384 . S
C1538 H1529 0.929 . S
C1538 C1530 1.378 . S
C1538 C1533 1.350 . S
C1539 H1526 0.929 . S
C1539 C1531 1.433 . S
C1539 N1541 1.384 . S
N1540 C1536 1.427 . S
N1540 C1537 1.384 . S
N1541 C1533 1.427 . S
N1541 C1539 1.384 . S
H1542 C1548 0.930 . S
H1543 C1552 0.930 . S
H1544 C1557 0.929 . S
H1545 C1555 0.929 . S
H1546 C1550 0.929 . S
H1547 C1556 0.929 . S
C1548 H1542 0.930 . S
C1548 C1549 1.367 . S
C1548 C1556 1.378 . S
C1549 C1548 1.367 . S
C1549 C1557 1.433 . S
C1550 H1546 0.929 . S
C1550 C1552 1.378 . S
C1550 C1554 1.350 . S
C1551 C1554 1.463 . S
C1551 C1556 1.350 . S
C1551 N1559 1.427 . S
C1552 H1543 0.930 . S
C1552 C1550 1.378 . S
C1552 C1553 1.367 . S
C1553 C1552 1.367 . S
C1553 C1555 1.433 . S
C1554 C1550 1.350 . S
C1554 C1551 1.463 . S
C1554 N1558 1.427 . S
C1555 H1545 0.929 . S
C1555 C1553 1.433 . S
C1555 N1558 1.384 . S
C1556 H1547 0.929 . S
C1556 C1548 1.378 . S
C1556 C1551 1.350 . S
C1557 H1544 0.929 . S
C1557 C1549 1.433 . S
C1557 N1559 1.384 . S
N1558 C1554 1.427 . S
N1558 C1555 1.384 . S
N1559 C1551 1.427 . S
N1559 C1557 1.384 . S
H1560 C1566 0.930 . S
H1561 C1570 0.930 . S
H1562 C1575 0.929 . S
H1563 C1573 0.929 . S
H1564 C1568 0.928 . S
H1565 C1574 0.929 . S
C1566 H1560 0.930 . S
C1566 C1567 1.367 . S
C1566 C1574 1.378 . S
C1567 C1566 1.367 . S
C1567 C1575 1.433 . S
C1568 H1564 0.928 . S
C1568 C1570 1.378 . S
C1568 C1572 1.350 1_556 S
C1569 C1572 1.463 . S
C1569 C1574 1.350 . S
C1569 N1577 1.427 . S
C1570 H1561 0.930 . S
C1570 C1568 1.378 . S
C1570 C1571 1.367 . S
C1571 C1570 1.367 . S
C1571 C1573 1.433 . S
C1572 C1568 1.350 1_554 S
C1572 C1569 1.463 . S
C1572 N1576 1.427 1_554 S
C1573 H1563 0.929 . S
C1573 C1571 1.433 . S
C1573 N1576 1.384 . S
C1574 H1565 0.929 . S
C1574 C1566 1.378 . S
C1574 C1569 1.350 . S
C1575 H1562 0.929 . S
C1575 C1567 1.433 . S
C1575 N1577 1.384 . S
N1576 C1572 1.427 1_556 S
N1576 C1573 1.384 . S
N1577 C1569 1.427 . S
N1577 C1575 1.384 . S
H1578 C1584 0.930 . S
H1579 C1588 0.930 . S
H1580 C1593 0.929 . S
H1581 C1591 0.929 . S
H1582 C1586 0.929 . S
H1583 C1592 0.929 . S
C1584 H1578 0.930 . S
C1584 C1585 1.367 . S
C1584 C1592 1.378 . S
C1585 C1584 1.367 . S
C1585 C1593 1.433 . S
C1586 H1582 0.929 . S
C1586 C1588 1.378 . S
C1586 C1590 1.350 . S
C1587 C1590 1.463 . S
C1587 C1592 1.350 . S
C1587 N1595 1.427 . S
C1588 H1579 0.930 . S
C1588 C1586 1.378 . S
C1588 C1589 1.367 . S
C1589 C1588 1.367 . S
C1589 C1591 1.433 . S
C1590 C1586 1.350 . S
C1590 C1587 1.463 . S
C1590 N1594 1.427 . S
C1591 H1581 0.929 . S
C1591 C1589 1.433 . S
C1591 N1594 1.384 . S
C1592 H1583 0.929 . S
C1592 C1584 1.378 . S
C1592 C1587 1.350 . S
C1593 H1580 0.929 . S
C1593 C1585 1.433 . S
C1593 N1595 1.384 . S
N1594 C1590 1.427 . S
N1594 C1591 1.384 . S
N1595 C1587 1.427 . S
N1595 C1593 1.384 . S
H1596 C1602 0.930 . S
H1597 C1606 0.930 . S
H1598 C1611 0.929 . S
H1599 C1609 0.929 . S
H1600 C1604 0.929 . S
H1601 C1610 0.929 . S
C1602 H1596 0.930 . S
C1602 C1603 1.367 . S
C1602 C1610 1.378 . S
C1603 C1602 1.367 . S
C1603 C1611 1.433 . S
C1604 H1600 0.929 . S
C1604 C1606 1.378 . S
C1604 C1608 1.350 . S
C1605 C1608 1.463 . S
C1605 C1610 1.350 . S
C1605 N1613 1.427 . S
C1606 H1597 0.930 . S
C1606 C1604 1.378 . S
C1606 C1607 1.367 . S
C1607 C1606 1.367 . S
C1607 C1609 1.433 . S
C1608 C1604 1.350 . S
C1608 C1605 1.463 . S
C1608 N1612 1.427 . S
C1609 H1599 0.929 . S
C1609 C1607 1.433 . S
C1609 N1612 1.384 . S
C1610 H1601 0.929 . S
C1610 C1602 1.378 . S
C1610 C1605 1.350 . S
C1611 H1598 0.929 . S
C1611 C1603 1.433 . S
C1611 N1613 1.384 . S
N1612 C1608 1.427 . S
N1612 C1609 1.384 . S
N1613 C1605 1.427 . S
N1613 C1611 1.384 . S
H1614 C1620 0.930 . S
H1615 C1624 0.930 . S
H1616 C1629 0.929 . S
H1617 C1627 0.929 . S
H1618 C1622 0.929 . S
H1619 C1628 0.929 . S
C1620 H1614 0.930 . S
C1620 C1621 1.367 . S
C1620 C1628 1.378 . S
C1621 C1620 1.367 . S
C1621 C1629 1.433 . S
C1622 H1618 0.929 . S
C1622 C1624 1.378 . S
C1622 C1626 1.350 . S
C1623 C1626 1.463 . S
C1623 C1628 1.350 . S
C1623 N1631 1.427 . S
C1624 H1615 0.930 . S
C1624 C1622 1.378 . S
C1624 C1625 1.367 . S
C1625 C1624 1.367 . S
C1625 C1627 1.433 . S
C1626 C1622 1.350 . S
C1626 C1623 1.463 . S
C1626 N1630 1.427 . S
C1627 H1617 0.929 . S
C1627 C1625 1.433 . S
C1627 N1630 1.384 . S
C1628 H1619 0.929 . S
C1628 C1620 1.378 . S
C1628 C1623 1.350 . S
C1629 H1616 0.929 . S
C1629 C1621 1.433 . S
C1629 N1631 1.384 . S
N1630 C1626 1.427 . S
N1630 C1627 1.384 . S
N1631 C1623 1.427 . S
N1631 C1629 1.384 . S
H1632 C1638 0.930 . S
H1633 C1642 0.930 . S
H1634 C1647 0.929 . S
H1635 C1645 0.929 1_556 S
H1636 C1640 0.929 . S
H1637 C1646 0.929 . S
C1638 H1632 0.930 . S
C1638 C1639 1.367 . S
C1638 C1646 1.378 . S
C1639 C1638 1.367 . S
C1639 C1647 1.433 . S
C1640 H1636 0.929 . S
C1640 C1642 1.378 . S
C1640 C1644 1.350 . S
C1641 C1644 1.463 . S
C1641 C1646 1.350 . S
C1641 N1649 1.427 . S
C1642 H1633 0.930 . S
C1642 C1640 1.378 . S
C1642 C1643 1.367 . S
C1643 C1642 1.367 . S
C1643 C1645 1.433 . S
C1644 C1640 1.350 . S
C1644 C1641 1.463 . S
C1644 N1648 1.427 . S
C1645 H1635 0.929 1_554 S
C1645 C1643 1.433 . S
C1645 N1648 1.384 . S
C1646 H1637 0.929 . S
C1646 C1638 1.378 . S
C1646 C1641 1.350 . S
C1647 H1634 0.929 . S
C1647 C1639 1.433 . S
C1647 N1649 1.384 . S
N1648 C1644 1.427 . S
N1648 C1645 1.384 . S
N1649 C1641 1.427 . S
N1649 C1647 1.384 . S
H1650 C1656 0.930 . S
H1651 C1660 0.930 . S
H1652 C1665 0.929 . S
H1653 C1663 0.929 . S
H1654 C1658 0.929 . S
H1655 C1664 0.929 . S
C1656 H1650 0.930 . S
C1656 C1657 1.367 . S
C1656 C1664 1.378 . S
C1657 C1656 1.367 . S
C1657 C1665 1.433 . S
C1658 H1654 0.929 . S
C1658 C1660 1.378 . S
C1658 C1662 1.350 . S
C1659 C1662 1.463 . S
C1659 C1664 1.350 . S
C1659 N1667 1.427 . S
C1660 H1651 0.930 . S
C1660 C1658 1.378 . S
C1660 C1661 1.367 . S
C1661 C1660 1.367 . S
C1661 C1663 1.433 . S
C1662 C1658 1.350 . S
C1662 C1659 1.463 . S
C1662 N1666 1.427 . S
C1663 H1653 0.929 . S
C1663 C1661 1.433 . S
C1663 N1666 1.384 . S
C1664 H1655 0.929 . S
C1664 C1656 1.378 . S
C1664 C1659 1.350 . S
C1665 H1652 0.929 . S
C1665 C1657 1.433 . S
C1665 N1667 1.384 . S
N1666 C1662 1.427 . S
N1666 C1663 1.384 . S
N1667 C1659 1.427 . S
N1667 C1665 1.384 . S
H1668 C1674 0.930 . S
H1669 C1678 0.930 . S
H1670 C1683 0.929 . S
H1671 C1681 0.929 . S
H1672 C1676 0.929 . S
H1673 C1682 0.929 . S
C1674 H1668 0.930 . S
C1674 C1675 1.367 . S
C1674 C1682 1.378 . S
C1675 C1674 1.367 . S
C1675 C1683 1.433 . S
C1676 H1672 0.929 . S
C1676 C1678 1.378 . S
C1676 C1680 1.350 . S
C1677 C1680 1.463 . S
C1677 C1682 1.350 . S
C1677 N1685 1.427 . S
C1678 H1669 0.930 . S
C1678 C1676 1.378 . S
C1678 C1679 1.367 . S
C1679 C1678 1.367 . S
C1679 C1681 1.433 . S
C1680 C1676 1.350 . S
C1680 C1677 1.463 . S
C1680 N1684 1.427 . S
C1681 H1671 0.929 . S
C1681 C1679 1.433 . S
C1681 N1684 1.384 . S
C1682 H1673 0.929 . S
C1682 C1674 1.378 . S
C1682 C1677 1.350 . S
C1683 H1670 0.929 . S
C1683 C1675 1.433 . S
C1683 N1685 1.384 . S
N1684 C1680 1.427 . S
N1684 C1681 1.384 . S
N1685 C1677 1.427 . S
N1685 C1683 1.384 . S
H1686 C1692 0.930 1_554 S
H1687 C1696 0.930 . S
H1688 C1701 0.929 . S
H1689 C1699 0.929 . S
H1690 C1694 0.929 . S
H1691 C1700 0.929 . S
C1692 H1686 0.930 1_556 S
C1692 C1693 1.367 . S
C1692 C1700 1.378 . S
C1693 C1692 1.367 . S
C1693 C1701 1.433 . S
C1694 H1690 0.929 . S
C1694 C1696 1.378 . S
C1694 C1698 1.350 . S
C1695 C1698 1.463 . S
C1695 C1700 1.350 . S
C1695 N1703 1.427 . S
C1696 H1687 0.930 . S
C1696 C1694 1.378 . S
C1696 C1697 1.367 . S
C1697 C1696 1.367 . S
C1697 C1699 1.433 . S
C1698 C1694 1.350 . S
C1698 C1695 1.463 . S
C1698 N1702 1.427 . S
C1699 H1689 0.929 . S
C1699 C1697 1.433 . S
C1699 N1702 1.384 . S
C1700 H1691 0.929 . S
C1700 C1692 1.378 . S
C1700 C1695 1.350 . S
C1701 H1688 0.929 . S
C1701 C1693 1.433 . S
C1701 N1703 1.384 . S
N1702 C1698 1.427 . S
N1702 C1699 1.384 . S
N1703 C1695 1.427 . S
N1703 C1701 1.384 . S
H1704 C1710 0.930 . S
H1705 C1714 0.930 . S
H1706 C1719 0.929 . S
H1707 C1717 0.924 1_554 S
H1708 C1712 0.929 . S
H1709 C1718 0.929 . S
C1710 H1704 0.930 . S
C1710 C1711 1.367 . S
C1710 C1718 1.378 . S
C1711 C1710 1.367 . S
C1711 C1719 1.433 . S
C1712 H1708 0.929 . S
C1712 C1714 1.378 . S
C1712 C1716 1.350 . S
C1713 C1716 1.463 . S
C1713 C1718 1.350 . S
C1713 N1721 1.427 . S
C1714 H1705 0.930 . S
C1714 C1712 1.378 . S
C1714 C1715 1.367 . S
C1715 C1714 1.367 . S
C1715 C1717 1.433 . S
C1716 C1712 1.350 . S
C1716 C1713 1.463 . S
C1716 N1720 1.427 . S
C1717 H1707 0.924 1_556 S
C1717 C1715 1.433 . S
C1717 N1720 1.384 . S
C1718 H1709 0.929 . S
C1718 C1710 1.378 . S
C1718 C1713 1.350 . S
C1719 H1706 0.929 . S
C1719 C1711 1.433 . S
C1719 N1721 1.384 . S
N1720 C1716 1.427 . S
N1720 C1717 1.384 . S
N1721 C1713 1.427 . S
N1721 C1719 1.384 . S
H1722 C1728 0.930 1_556 S
H1723 C1732 0.930 . S
H1724 C1737 0.929 . S
H1725 C1735 0.929 . S
H1726 C1730 0.929 . S
H1727 C1736 0.929 . S
C1728 H1722 0.930 1_554 S
C1728 C1729 1.367 . S
C1728 C1736 1.378 . S
C1729 C1728 1.367 . S
C1729 C1737 1.433 . S
C1730 H1726 0.929 . S
C1730 C1732 1.378 . S
C1730 C1734 1.350 . S
C1731 C1734 1.463 . S
C1731 C1736 1.350 . S
C1731 N1739 1.427 . S
C1732 H1723 0.930 . S
C1732 C1730 1.378 . S
C1732 C1733 1.367 . S
C1733 C1732 1.367 . S
C1733 C1735 1.433 . S
C1734 C1730 1.350 . S
C1734 C1731 1.463 . S
C1734 N1738 1.427 . S
C1735 H1725 0.929 . S
C1735 C1733 1.433 . S
C1735 N1738 1.384 . S
C1736 H1727 0.929 . S
C1736 C1728 1.378 . S
C1736 C1731 1.350 . S
C1737 H1724 0.929 . S
C1737 C1729 1.433 . S
C1737 N1739 1.384 . S
N1738 C1734 1.427 . S
N1738 C1735 1.384 . S
N1739 C1731 1.427 . S
N1739 C1737 1.384 . S
H1740 C1746 0.930 . S
H1741 C1750 0.930 . S
H1742 C1755 0.929 . S
H1743 C1753 0.929 . S
H1744 C1748 0.929 . S
H1745 C1754 0.929 . S
C1746 H1740 0.930 . S
C1746 C1747 1.367 . S
C1746 C1754 1.378 . S
C1747 C1746 1.367 . S
C1747 C1755 1.433 . S
C1748 H1744 0.929 . S
C1748 C1750 1.378 . S
C1748 C1752 1.350 . S
C1749 C1752 1.463 . S
C1749 C1754 1.350 . S
C1749 N1757 1.427 . S
C1750 H1741 0.930 . S
C1750 C1748 1.378 . S
C1750 C1751 1.367 . S
C1751 C1750 1.367 . S
C1751 C1753 1.433 . S
C1752 C1748 1.350 . S
C1752 C1749 1.463 . S
C1752 N1756 1.427 . S
C1753 H1743 0.929 . S
C1753 C1751 1.433 . S
C1753 N1756 1.384 . S
C1754 H1745 0.929 . S
C1754 C1746 1.378 . S
C1754 C1749 1.350 . S
C1755 H1742 0.929 . S
C1755 C1747 1.433 . S
C1755 N1757 1.384 . S
N1756 C1752 1.427 . S
N1756 C1753 1.384 . S
N1757 C1749 1.427 . S
N1757 C1755 1.384 . S
H1758 C1764 0.930 . S
H1759 C1768 0.930 . S
H1760 C1773 0.929 . S
H1761 C1771 0.929 . S
H1762 C1766 0.929 . S
H1763 C1772 0.929 . S
C1764 H1758 0.930 . S
C1764 C1765 1.367 . S
C1764 C1772 1.378 . S
C1765 C1764 1.367 . S
C1765 C1773 1.433 . S
C1766 H1762 0.929 . S
C1766 C1768 1.378 . S
C1766 C1770 1.350 . S
C1767 C1770 1.463 . S
C1767 C1772 1.350 . S
C1767 N1775 1.427 . S
C1768 H1759 0.930 . S
C1768 C1766 1.378 . S
C1768 C1769 1.367 . S
C1769 C1768 1.367 . S
C1769 C1771 1.433 . S
C1770 C1766 1.350 . S
C1770 C1767 1.463 . S
C1770 N1774 1.427 . S
C1771 H1761 0.929 . S
C1771 C1769 1.433 . S
C1771 N1774 1.384 . S
C1772 H1763 0.929 . S
C1772 C1764 1.378 . S
C1772 C1767 1.350 . S
C1773 H1760 0.929 . S
C1773 C1765 1.433 . S
C1773 N1775 1.384 . S
N1774 C1770 1.427 . S
N1774 C1771 1.384 . S
N1775 C1767 1.427 . S
N1775 C1773 1.384 . S
H1776 C1782 0.930 . S
H1777 C1786 0.930 1_554 S
H1778 C1791 0.929 . S
H1779 C1789 0.929 . S
H1780 C1784 0.929 . S
H1781 C1790 0.929 . S
C1782 H1776 0.930 . S
C1782 C1783 1.367 . S
C1782 C1790 1.378 . S
C1783 C1782 1.367 . S
C1783 C1791 1.433 . S
C1784 H1780 0.929 . S
C1784 C1786 1.378 . S
C1784 C1788 1.350 . S
C1785 C1788 1.463 . S
C1785 C1790 1.350 . S
C1785 N1793 1.427 . S
C1786 H1777 0.930 1_556 S
C1786 C1784 1.378 . S
C1786 C1787 1.367 . S
C1787 C1786 1.367 . S
C1787 C1789 1.433 . S
C1788 C1784 1.350 . S
C1788 C1785 1.463 . S
C1788 N1792 1.427 . S
C1789 H1779 0.929 . S
C1789 C1787 1.433 . S
C1789 N1792 1.384 . S
C1790 H1781 0.929 . S
C1790 C1782 1.378 . S
C1790 C1785 1.350 . S
C1791 H1778 0.929 . S
C1791 C1783 1.433 . S
C1791 N1793 1.384 . S
N1792 C1788 1.427 . S
N1792 C1789 1.384 . S
N1793 C1785 1.427 . S
N1793 C1791 1.384 . S
H1794 C1800 0.930 . S
H1795 C1804 0.930 . S
H1796 C1809 0.929 . S
H1797 C1807 0.929 . S
H1798 C1802 0.929 . S
H1799 C1808 0.929 . S
C1800 H1794 0.930 . S
C1800 C1801 1.367 . S
C1800 C1808 1.378 . S
C1801 C1800 1.367 . S
C1801 C1809 1.433 . S
C1802 H1798 0.929 . S
C1802 C1804 1.378 . S
C1802 C1806 1.350 . S
C1803 C1806 1.463 . S
C1803 C1808 1.350 . S
C1803 N1811 1.427 . S
C1804 H1795 0.930 . S
C1804 C1802 1.378 . S
C1804 C1805 1.367 . S
C1805 C1804 1.367 . S
C1805 C1807 1.433 . S
C1806 C1802 1.350 . S
C1806 C1803 1.463 . S
C1806 N1810 1.427 . S
C1807 H1797 0.929 . S
C1807 C1805 1.433 . S
C1807 N1810 1.384 . S
C1808 H1799 0.929 . S
C1808 C1800 1.378 . S
C1808 C1803 1.350 . S
C1809 H1796 0.929 . S
C1809 C1801 1.433 . S
C1809 N1811 1.384 . S
N1810 C1806 1.427 . S
N1810 C1807 1.384 . S
N1811 C1803 1.427 . S
N1811 C1809 1.384 . S
H1812 C1818 0.930 . S
H1813 C1822 0.930 . S
H1814 C1827 0.929 . S
H1815 C1825 0.929 . S
H1816 C1820 0.929 . S
H1817 C1826 0.929 . S
C1818 H1812 0.930 . S
C1818 C1819 1.367 . S
C1818 C1826 1.378 . S
C1819 C1818 1.367 . S
C1819 C1827 1.433 . S
C1820 H1816 0.929 . S
C1820 C1822 1.378 . S
C1820 C1824 1.350 . S
C1821 C1824 1.463 . S
C1821 C1826 1.350 . S
C1821 N1829 1.427 . S
C1822 H1813 0.930 . S
C1822 C1820 1.378 . S
C1822 C1823 1.367 . S
C1823 C1822 1.367 . S
C1823 C1825 1.433 . S
C1824 C1820 1.350 . S
C1824 C1821 1.463 . S
C1824 N1828 1.427 . S
C1825 H1815 0.929 . S
C1825 C1823 1.433 . S
C1825 N1828 1.384 . S
C1826 H1817 0.929 . S
C1826 C1818 1.378 . S
C1826 C1821 1.350 . S
C1827 H1814 0.929 . S
C1827 C1819 1.433 . S
C1827 N1829 1.384 . S
N1828 C1824 1.427 . S
N1828 C1825 1.384 . S
N1829 C1821 1.427 . S
N1829 C1827 1.384 . S
H1830 C1836 0.930 . S
H1831 C1840 0.930 . S
H1832 C1845 0.929 . S
H1833 C1843 0.929 1_556 S
H1834 C1838 0.929 . S
H1835 C1844 0.929 . S
C1836 H1830 0.930 . S
C1836 C1837 1.367 . S
C1836 C1844 1.378 . S
C1837 C1836 1.367 . S
C1837 C1845 1.433 . S
C1838 H1834 0.929 . S
C1838 C1840 1.378 . S
C1838 C1842 1.350 . S
C1839 C1842 1.463 . S
C1839 C1844 1.350 . S
C1839 N1847 1.427 . S
C1840 H1831 0.930 . S
C1840 C1838 1.378 . S
C1840 C1841 1.367 . S
C1841 C1840 1.367 . S
C1841 C1843 1.433 . S
C1842 C1838 1.350 . S
C1842 C1839 1.463 . S
C1842 N1846 1.427 . S
C1843 H1833 0.929 1_554 S
C1843 C1841 1.433 . S
C1843 N1846 1.384 . S
C1844 H1835 0.929 . S
C1844 C1836 1.378 . S
C1844 C1839 1.350 . S
C1845 H1832 0.929 . S
C1845 C1837 1.433 . S
C1845 N1847 1.384 . S
N1846 C1842 1.427 . S
N1846 C1843 1.384 . S
N1847 C1839 1.427 . S
N1847 C1845 1.384 . S
H1848 C1854 0.930 . S
H1849 C1858 0.930 . S
H1850 C1863 0.929 1_556 S
H1851 C1861 0.929 . S
H1852 C1856 0.929 . S
H1853 C1862 0.929 . S
C1854 H1848 0.930 . S
C1854 C1855 1.367 . S
C1854 C1862 1.378 . S
C1855 C1854 1.367 . S
C1855 C1863 1.433 . S
C1856 H1852 0.929 . S
C1856 C1858 1.378 . S
C1856 C1860 1.350 . S
C1857 C1860 1.463 . S
C1857 C1862 1.350 . S
C1857 N1865 1.427 . S
C1858 H1849 0.930 . S
C1858 C1856 1.378 . S
C1858 C1859 1.367 . S
C1859 C1858 1.367 . S
C1859 C1861 1.433 . S
C1860 C1856 1.350 . S
C1860 C1857 1.463 . S
C1860 N1864 1.427 . S
C1861 H1851 0.929 . S
C1861 C1859 1.433 . S
C1861 N1864 1.384 . S
C1862 H1853 0.929 . S
C1862 C1854 1.378 . S
C1862 C1857 1.350 . S
C1863 H1850 0.929 1_554 S
C1863 C1855 1.433 . S
C1863 N1865 1.384 . S
N1864 C1860 1.427 . S
N1864 C1861 1.384 . S
N1865 C1857 1.427 . S
N1865 C1863 1.384 . S
H1866 C1872 0.930 . S
H1867 C1876 0.930 1_554 S
H1868 C1881 0.929 . S
H1869 C1879 0.929 . S
H1870 C1874 0.929 . S
H1871 C1880 0.929 . S
C1872 H1866 0.930 . S
C1872 C1873 1.367 . S
C1872 C1880 1.378 . S
C1873 C1872 1.367 . S
C1873 C1881 1.433 . S
C1874 H1870 0.929 . S
C1874 C1876 1.378 . S
C1874 C1878 1.350 . S
C1875 C1878 1.463 . S
C1875 C1880 1.350 . S
C1875 N1883 1.427 . S
C1876 H1867 0.930 1_556 S
C1876 C1874 1.378 . S
C1876 C1877 1.367 . S
C1877 C1876 1.367 . S
C1877 C1879 1.433 . S
C1878 C1874 1.350 . S
C1878 C1875 1.463 . S
C1878 N1882 1.427 . S
C1879 H1869 0.929 . S
C1879 C1877 1.433 . S
C1879 N1882 1.384 . S
C1880 H1871 0.929 . S
C1880 C1872 1.378 . S
C1880 C1875 1.350 . S
C1881 H1868 0.929 . S
C1881 C1873 1.433 . S
C1881 N1883 1.384 . S
N1882 C1878 1.427 . S
N1882 C1879 1.384 . S
N1883 C1875 1.427 . S
N1883 C1881 1.384 . S
H1884 C1890 0.930 . S
H1885 C1894 0.930 . S
H1886 C1899 0.929 . S
H1887 C1897 0.929 . S
H1888 C1892 0.929 . S
H1889 C1898 0.929 . S
C1890 H1884 0.930 . S
C1890 C1891 1.367 . S
C1890 C1898 1.378 . S
C1891 C1890 1.367 . S
C1891 C1899 1.433 . S
C1892 H1888 0.929 . S
C1892 C1894 1.378 . S
C1892 C1896 1.350 . S
C1893 C1896 1.463 . S
C1893 C1898 1.350 . S
C1893 N1901 1.427 . S
C1894 H1885 0.930 . S
C1894 C1892 1.378 . S
C1894 C1895 1.367 . S
C1895 C1894 1.367 . S
C1895 C1897 1.433 . S
C1896 C1892 1.350 . S
C1896 C1893 1.463 . S
C1896 N1900 1.427 . S
C1897 H1887 0.929 . S
C1897 C1895 1.433 . S
C1897 N1900 1.384 . S
C1898 H1889 0.929 . S
C1898 C1890 1.378 . S
C1898 C1893 1.350 . S
C1899 H1886 0.929 . S
C1899 C1891 1.433 . S
C1899 N1901 1.384 . S
N1900 C1896 1.427 . S
N1900 C1897 1.384 . S
N1901 C1893 1.427 . S
N1901 C1899 1.384 . S
H1902 C1908 0.930 . S
H1903 C1912 0.930 . S
H1904 C1917 0.929 . S
H1905 C1915 0.929 . S
H1906 C1910 0.929 . S
H1907 C1916 0.929 . S
C1908 H1902 0.930 . S
C1908 C1909 1.367 . S
C1908 C1916 1.378 . S
C1909 C1908 1.367 . S
C1909 C1917 1.433 . S
C1910 H1906 0.929 . S
C1910 C1912 1.378 . S
C1910 C1914 1.350 . S
C1911 C1914 1.463 . S
C1911 C1916 1.350 . S
C1911 N1919 1.427 . S
C1912 H1903 0.930 . S
C1912 C1910 1.378 . S
C1912 C1913 1.367 . S
C1913 C1912 1.367 . S
C1913 C1915 1.433 . S
C1914 C1910 1.350 . S
C1914 C1911 1.463 . S
C1914 N1918 1.427 . S
C1915 H1905 0.929 . S
C1915 C1913 1.433 . S
C1915 N1918 1.384 . S
C1916 H1907 0.929 . S
C1916 C1908 1.378 . S
C1916 C1911 1.350 . S
C1917 H1904 0.929 . S
C1917 C1909 1.433 . S
C1917 N1919 1.384 . S
N1918 C1914 1.427 . S
N1918 C1915 1.384 . S
N1919 C1911 1.427 . S
N1919 C1917 1.384 . S
H1920 C1926 0.930 . S
H1921 C1930 0.930 . S
H1922 C1935 0.929 . S
H1923 C1933 0.929 . S
H1924 C1928 0.929 . S
H1925 C1934 0.929 . S
C1926 H1920 0.930 . S
C1926 C1927 1.367 . S
C1926 C1934 1.378 . S
C1927 C1926 1.367 . S
C1927 C1935 1.433 1_556 S
C1928 H1924 0.929 . S
C1928 C1930 1.378 . S
C1928 C1932 1.350 . S
C1929 C1932 1.463 1_556 S
C1929 C1934 1.350 . S
C1929 N1937 1.427 1_556 S
C1930 H1921 0.930 . S
C1930 C1928 1.378 . S
C1930 C1931 1.367 . S
C1931 C1930 1.367 . S
C1931 C1933 1.433 1_554 S
C1932 C1928 1.350 . S
C1932 C1929 1.463 1_554 S
C1932 N1936 1.427 1_554 S
C1933 H1923 0.929 . S
C1933 C1931 1.433 1_556 S
C1933 N1936 1.384 . S
C1934 H1925 0.929 . S
C1934 C1926 1.378 . S
C1934 C1929 1.350 . S
C1935 H1922 0.929 . S
C1935 C1927 1.433 1_554 S
C1935 N1937 1.384 . S
N1936 C1932 1.427 1_556 S
N1936 C1933 1.384 . S
N1937 C1929 1.427 1_554 S
N1937 C1935 1.384 . S
H1938 C1944 0.930 . S
H1939 C1948 0.930 . S
H1940 C1953 0.929 . S
H1941 C1951 0.929 . S
H1942 C1946 0.929 . S
H1943 C1952 0.929 . S
C1944 H1938 0.930 . S
C1944 C1945 1.367 . S
C1944 C1952 1.378 . S
C1945 C1944 1.367 . S
C1945 C1953 1.433 . S
C1946 H1942 0.929 . S
C1946 C1948 1.378 . S
C1946 C1950 1.350 . S
C1947 C1950 1.463 . S
C1947 C1952 1.350 . S
C1947 N1955 1.427 . S
C1948 H1939 0.930 . S
C1948 C1946 1.378 . S
C1948 C1949 1.367 . S
C1949 C1948 1.367 . S
C1949 C1951 1.433 . S
C1950 C1946 1.350 . S
C1950 C1947 1.463 . S
C1950 N1954 1.427 . S
C1951 H1941 0.929 . S
C1951 C1949 1.433 . S
C1951 N1954 1.384 . S
C1952 H1943 0.929 . S
C1952 C1944 1.378 . S
C1952 C1947 1.350 . S
C1953 H1940 0.929 . S
C1953 C1945 1.433 . S
C1953 N1955 1.384 . S
N1954 C1950 1.427 . S
N1954 C1951 1.384 . S
N1955 C1947 1.427 . S
N1955 C1953 1.384 . S
H1956 C1962 0.930 . S
H1957 C1966 0.930 . S
H1958 C1971 0.929 . S
H1959 C1969 0.929 . S
H1960 C1964 0.929 . S
H1961 C1970 0.929 . S
C1962 H1956 0.930 . S
C1962 C1963 1.367 . S
C1962 C1970 1.378 . S
C1963 C1962 1.367 . S
C1963 C1971 1.433 . S
C1964 H1960 0.929 . S
C1964 C1966 1.378 . S
C1964 C1968 1.350 . S
C1965 C1968 1.463 . S
C1965 C1970 1.350 . S
C1965 N1973 1.427 . S
C1966 H1957 0.930 . S
C1966 C1964 1.378 . S
C1966 C1967 1.367 . S
C1967 C1966 1.367 . S
C1967 C1969 1.433 . S
C1968 C1964 1.350 . S
C1968 C1965 1.463 . S
C1968 N1972 1.427 . S
C1969 H1959 0.929 . S
C1969 C1967 1.433 . S
C1969 N1972 1.384 . S
C1970 H1961 0.929 . S
C1970 C1962 1.378 . S
C1970 C1965 1.350 . S
C1971 H1958 0.929 . S
C1971 C1963 1.433 . S
C1971 N1973 1.384 . S
N1972 C1968 1.427 . S
N1972 C1969 1.384 . S
N1973 C1965 1.427 . S
N1973 C1971 1.384 . S
H1974 C1980 0.930 . S
H1975 C1984 0.930 . S
H1976 C1989 0.929 . S
H1977 C1987 0.929 . S
H1978 C1982 0.929 . S
H1979 C1988 0.929 . S
C1980 H1974 0.930 . S
C1980 C1981 1.367 . S
C1980 C1988 1.378 . S
C1981 C1980 1.367 . S
C1981 C1989 1.433 . S
C1982 H1978 0.929 . S
C1982 C1984 1.378 . S
C1982 C1986 1.350 . S
C1983 C1986 1.463 . S
C1983 C1988 1.350 . S
C1983 N1991 1.427 . S
C1984 H1975 0.930 . S
C1984 C1982 1.378 . S
C1984 C1985 1.367 . S
C1985 C1984 1.367 . S
C1985 C1987 1.433 . S
C1986 C1982 1.350 . S
C1986 C1983 1.463 . S
C1986 N1990 1.427 . S
C1987 H1977 0.929 . S
C1987 C1985 1.433 . S
C1987 N1990 1.384 . S
C1988 H1979 0.929 . S
C1988 C1980 1.378 . S
C1988 C1983 1.350 . S
C1989 H1976 0.929 . S
C1989 C1981 1.433 . S
C1989 N1991 1.384 . S
N1990 C1986 1.427 . S
N1990 C1987 1.384 . S
N1991 C1983 1.427 . S
N1991 C1989 1.384 . S
H1992 C1998 0.930 . S
H1993 C2002 0.930 . S
H1994 C2007 0.929 . S
H1995 C2005 0.929 . S
H1996 C2000 0.929 . S
H1997 C2006 0.929 . S
C1998 H1992 0.930 . S
C1998 C1999 1.367 . S
C1998 C2006 1.378 . S
C1999 C1998 1.367 . S
C1999 C2007 1.433 1_556 S
C2000 H1996 0.929 . S
C2000 C2002 1.378 . S
C2000 C2004 1.350 . S
C2001 C2004 1.463 1_556 S
C2001 C2006 1.350 . S
C2001 N2009 1.427 1_556 S
C2002 H1993 0.930 . S
C2002 C2000 1.378 . S
C2002 C2003 1.367 . S
C2003 C2002 1.367 . S
C2003 C2005 1.433 1_554 S
C2004 C2000 1.350 . S
C2004 C2001 1.463 1_554 S
C2004 N2008 1.427 1_554 S
C2005 H1995 0.929 . S
C2005 C2003 1.433 1_556 S
C2005 N2008 1.384 . S
C2006 H1997 0.929 . S
C2006 C1998 1.378 . S
C2006 C2001 1.350 . S
C2007 H1994 0.929 . S
C2007 C1999 1.433 1_554 S
C2007 N2009 1.384 . S
N2008 C2004 1.427 1_556 S
N2008 C2005 1.384 . S
N2009 C2001 1.427 1_554 S
N2009 C2007 1.384 . S
H2010 C2016 0.930 . S
H2011 C2020 0.930 . S
H2012 C2025 0.929 . S
H2013 C2023 0.929 . S
H2014 C2018 0.929 . S
H2015 C2024 0.929 . S
C2016 H2010 0.930 . S
C2016 C2017 1.367 . S
C2016 C2024 1.378 . S
C2017 C2016 1.367 . S
C2017 C2025 1.433 . S
C2018 H2014 0.929 . S
C2018 C2020 1.378 . S
C2018 C2022 1.350 . S
C2019 C2022 1.463 . S
C2019 C2024 1.350 . S
C2019 N2027 1.427 . S
C2020 H2011 0.930 . S
C2020 C2018 1.378 . S
C2020 C2021 1.367 . S
C2021 C2020 1.367 . S
C2021 C2023 1.433 . S
C2022 C2018 1.350 . S
C2022 C2019 1.463 . S
C2022 N2026 1.427 . S
C2023 H2013 0.929 . S
C2023 C2021 1.433 . S
C2023 N2026 1.384 . S
C2024 H2015 0.929 . S
C2024 C2016 1.378 . S
C2024 C2019 1.350 . S
C2025 H2012 0.929 . S
C2025 C2017 1.433 . S
C2025 N2027 1.384 . S
N2026 C2022 1.427 . S
N2026 C2023 1.384 . S
N2027 C2019 1.427 . S
N2027 C2025 1.384 . S
H2028 C2034 0.930 . S
H2029 C2038 0.930 . S
H2030 C2043 0.929 . S
H2031 C2041 0.929 . S
H2032 C2036 0.929 . S
H2033 C2042 0.929 . S
C2034 H2028 0.930 . S
C2034 C2035 1.367 . S
C2034 C2042 1.378 . S
C2035 C2034 1.367 . S
C2035 C2043 1.433 . S
C2036 H2032 0.929 . S
C2036 C2038 1.378 . S
C2036 C2040 1.350 . S
C2037 C2040 1.463 . S
C2037 C2042 1.350 . S
C2037 N2045 1.427 . S
C2038 H2029 0.930 . S
C2038 C2036 1.378 . S
C2038 C2039 1.367 . S
C2039 C2038 1.367 . S
C2039 C2041 1.433 . S
C2040 C2036 1.350 . S
C2040 C2037 1.463 . S
C2040 N2044 1.427 . S
C2041 H2031 0.929 . S
C2041 C2039 1.433 . S
C2041 N2044 1.384 . S
C2042 H2033 0.929 . S
C2042 C2034 1.378 . S
C2042 C2037 1.350 . S
C2043 H2030 0.929 . S
C2043 C2035 1.433 . S
C2043 N2045 1.384 . S
N2044 C2040 1.427 . S
N2044 C2041 1.384 . S
N2045 C2037 1.427 . S
N2045 C2043 1.384 . S
H2046 C2052 0.930 . S
H2047 C2056 0.930 . S
H2048 C2061 0.929 . S
H2049 C2059 0.929 . S
H2050 C2054 0.929 . S
H2051 C2060 0.929 . S
C2052 H2046 0.930 . S
C2052 C2053 1.367 . S
C2052 C2060 1.378 . S
C2053 C2052 1.367 . S
C2053 C2061 1.433 . S
C2054 H2050 0.929 . S
C2054 C2056 1.378 . S
C2054 C2058 1.350 . S
C2055 C2058 1.463 . S
C2055 C2060 1.350 . S
C2055 N2063 1.427 . S
C2056 H2047 0.930 . S
C2056 C2054 1.378 . S
C2056 C2057 1.367 . S
C2057 C2056 1.367 . S
C2057 C2059 1.433 . S
C2058 C2054 1.350 . S
C2058 C2055 1.463 . S
C2058 N2062 1.427 . S
C2059 H2049 0.929 . S
C2059 C2057 1.433 . S
C2059 N2062 1.384 . S
C2060 H2051 0.929 . S
C2060 C2052 1.378 . S
C2060 C2055 1.350 . S
C2061 H2048 0.929 . S
C2061 C2053 1.433 . S
C2061 N2063 1.384 . S
N2062 C2058 1.427 . S
N2062 C2059 1.384 . S
N2063 C2055 1.427 . S
N2063 C2061 1.384 . S
H2064 C2070 0.930 . S
H2065 C2074 0.930 . S
H2066 C2079 0.929 . S
H2067 C2077 0.929 . S
H2068 C2072 0.929 . S
H2069 C2078 0.929 . S
C2070 H2064 0.930 . S
C2070 C2071 1.367 . S
C2070 C2078 1.378 . S
C2071 C2070 1.367 . S
C2071 C2079 1.433 . S
C2072 H2068 0.929 . S
C2072 C2074 1.378 . S
C2072 C2076 1.350 . S
C2073 C2076 1.463 1_565 S
C2073 C2078 1.350 . S
C2073 N2081 1.427 . S
C2074 H2065 0.930 . S
C2074 C2072 1.378 . S
C2074 C2075 1.367 . S
C2075 C2074 1.367 . S
C2075 C2077 1.433 . S
C2076 C2072 1.350 . S
C2076 C2073 1.463 1_545 S
C2076 N2080 1.427 . S
C2077 H2067 0.929 . S
C2077 C2075 1.433 . S
C2077 N2080 1.384 . S
C2078 H2069 0.929 . S
C2078 C2070 1.378 . S
C2078 C2073 1.350 . S
C2079 H2066 0.929 . S
C2079 C2071 1.433 . S
C2079 N2081 1.384 . S
N2080 C2076 1.427 . S
N2080 C2077 1.384 . S
N2081 C2073 1.427 . S
N2081 C2079 1.384 . S
H2082 C2088 0.930 . S
H2083 C2092 0.930 . S
H2084 C2097 0.929 . S
H2085 C2095 0.929 . S
H2086 C2090 0.929 . S
H2087 C2096 0.929 . S
C2088 H2082 0.930 . S
C2088 C2089 1.367 . S
C2088 C2096 1.378 . S
C2089 C2088 1.367 . S
C2089 C2097 1.433 . S
C2090 H2086 0.929 . S
C2090 C2092 1.378 . S
C2090 C2094 1.350 . S
C2091 C2094 1.463 . S
C2091 C2096 1.350 . S
C2091 N2099 1.427 . S
C2092 H2083 0.930 . S
C2092 C2090 1.378 . S
C2092 C2093 1.367 . S
C2093 C2092 1.367 . S
C2093 C2095 1.433 . S
C2094 C2090 1.350 . S
C2094 C2091 1.463 . S
C2094 N2098 1.427 . S
C2095 H2085 0.929 . S
C2095 C2093 1.433 . S
C2095 N2098 1.384 . S
C2096 H2087 0.929 . S
C2096 C2088 1.378 . S
C2096 C2091 1.350 . S
C2097 H2084 0.929 . S
C2097 C2089 1.433 . S
C2097 N2099 1.384 . S
N2098 C2094 1.427 . S
N2098 C2095 1.384 . S
N2099 C2091 1.427 . S
N2099 C2097 1.384 . S
H2100 C2106 0.930 . S
H2101 C2110 0.930 . S
H2102 C2115 0.929 . S
H2103 C2113 0.929 . S
H2104 C2108 0.929 . S
H2105 C2114 0.929 . S
C2106 H2100 0.930 . S
C2106 C2107 1.367 . S
C2106 C2114 1.378 . S
C2107 C2106 1.367 . S
C2107 C2115 1.433 1_554 S
C2108 H2104 0.929 . S
C2108 C2110 1.378 . S
C2108 C2112 1.350 . S
C2109 C2112 1.463 1_564 S
C2109 C2114 1.350 . S
C2109 N2117 1.427 1_554 S
C2110 H2101 0.930 . S
C2110 C2108 1.378 . S
C2110 C2111 1.367 . S
C2111 C2110 1.367 . S
C2111 C2113 1.433 1_556 S
C2112 C2108 1.350 . S
C2112 C2109 1.463 1_546 S
C2112 N2116 1.427 1_556 S
C2113 H2103 0.929 . S
C2113 C2111 1.433 1_554 S
C2113 N2116 1.384 . S
C2114 H2105 0.929 . S
C2114 C2106 1.378 . S
C2114 C2109 1.350 . S
C2115 H2102 0.929 . S
C2115 C2107 1.433 1_556 S
C2115 N2117 1.384 . S
N2116 C2112 1.427 1_554 S
N2116 C2113 1.384 . S
N2117 C2109 1.427 1_556 S
N2117 C2115 1.384 . S
H2118 C2124 0.930 . S
H2119 C2128 0.930 . S
H2120 C2133 0.929 . S
H2121 C2131 0.929 . S
H2122 C2126 0.929 . S
H2123 C2132 0.929 . S
C2124 H2118 0.930 . S
C2124 C2125 1.367 . S
C2124 C2132 1.378 . S
C2125 C2124 1.367 . S
C2125 C2133 1.433 . S
C2126 H2122 0.929 . S
C2126 C2128 1.378 . S
C2126 C2130 1.350 . S
C2127 C2130 1.463 . S
C2127 C2132 1.350 . S
C2127 N2135 1.427 . S
C2128 H2119 0.930 . S
C2128 C2126 1.378 . S
C2128 C2129 1.367 . S
C2129 C2128 1.367 . S
C2129 C2131 1.433 . S
C2130 C2126 1.350 . S
C2130 C2127 1.463 . S
C2130 N2134 1.427 . S
C2131 H2121 0.929 . S
C2131 C2129 1.433 . S
C2131 N2134 1.384 . S
C2132 H2123 0.929 . S
C2132 C2124 1.378 . S
C2132 C2127 1.350 . S
C2133 H2120 0.929 . S
C2133 C2125 1.433 . S
C2133 N2135 1.384 . S
N2134 C2130 1.427 . S
N2134 C2131 1.384 . S
N2135 C2127 1.427 . S
N2135 C2133 1.384 . S
H2136 C2142 0.930 . S
H2137 C2146 0.930 . S
H2138 C2151 0.929 . S
H2139 C2149 0.929 . S
H2140 C2144 0.929 . S
H2141 C2150 0.929 . S
C2142 H2136 0.930 . S
C2142 C2143 1.367 . S
C2142 C2150 1.378 . S
C2143 C2142 1.367 . S
C2143 C2151 1.433 . S
C2144 H2140 0.929 . S
C2144 C2146 1.378 . S
C2144 C2148 1.350 . S
C2145 C2148 1.463 1_545 S
C2145 C2150 1.350 . S
C2145 N2153 1.427 . S
C2146 H2137 0.930 . S
C2146 C2144 1.378 . S
C2146 C2147 1.367 . S
C2147 C2146 1.367 . S
C2147 C2149 1.433 . S
C2148 C2144 1.350 . S
C2148 C2145 1.463 1_565 S
C2148 N2152 1.427 . S
C2149 H2139 0.929 . S
C2149 C2147 1.433 . S
C2149 N2152 1.384 . S
C2150 H2141 0.929 . S
C2150 C2142 1.378 . S
C2150 C2145 1.350 . S
C2151 H2138 0.929 . S
C2151 C2143 1.433 . S
C2151 N2153 1.384 . S
N2152 C2148 1.427 . S
N2152 C2149 1.384 . S
N2153 C2145 1.427 . S
N2153 C2151 1.384 . S
H2154 C2160 0.930 . S
H2155 C2164 0.930 . S
H2156 C2169 0.929 . S
H2157 C2167 0.929 . S
H2158 C2162 0.929 . S
H2159 C2168 0.929 . S
C2160 H2154 0.930 . S
C2160 C2161 1.367 . S
C2160 C2168 1.378 . S
C2161 C2160 1.367 . S
C2161 C2169 1.433 . S
C2162 H2158 0.929 . S
C2162 C2164 1.378 . S
C2162 C2166 1.350 . S
C2163 C2166 1.463 . S
C2163 C2168 1.350 . S
C2163 N2171 1.427 . S
C2164 H2155 0.930 . S
C2164 C2162 1.378 . S
C2164 C2165 1.367 . S
C2165 C2164 1.367 . S
C2165 C2167 1.433 . S
C2166 C2162 1.350 . S
C2166 C2163 1.463 . S
C2166 N2170 1.427 . S
C2167 H2157 0.929 . S
C2167 C2165 1.433 . S
C2167 N2170 1.384 . S
C2168 H2159 0.929 . S
C2168 C2160 1.378 . S
C2168 C2163 1.350 . S
C2169 H2156 0.929 . S
C2169 C2161 1.433 . S
C2169 N2171 1.384 . S
N2170 C2166 1.427 . S
N2170 C2167 1.384 . S
N2171 C2163 1.427 . S
N2171 C2169 1.384 . S
H2172 C2178 0.930 . S
H2173 C2182 0.930 . S
H2174 C2187 0.929 . S
H2175 C2185 0.929 . S
H2176 C2180 0.929 . S
H2177 C2186 0.929 . S
C2178 H2172 0.930 . S
C2178 C2179 1.367 . S
C2178 C2186 1.378 1_554 S
C2179 C2178 1.367 . S
C2179 C2187 1.433 . S
C2180 H2176 0.929 . S
C2180 C2182 1.378 1_554 S
C2180 C2184 1.350 1_554 S
C2181 C2184 1.463 1_564 S
C2181 C2186 1.350 1_554 S
C2181 N2189 1.427 . S
C2182 H2173 0.930 . S
C2182 C2180 1.378 1_556 S
C2182 C2183 1.367 . S
C2183 C2182 1.367 . S
C2183 C2185 1.433 . S
C2184 C2180 1.350 1_556 S
C2184 C2181 1.463 1_546 S
C2184 N2188 1.427 . S
C2185 H2175 0.929 . S
C2185 C2183 1.433 . S
C2185 N2188 1.384 . S
C2186 H2177 0.929 . S
C2186 C2178 1.378 1_556 S
C2186 C2181 1.350 1_556 S
C2187 H2174 0.929 . S
C2187 C2179 1.433 . S
C2187 N2189 1.384 . S
N2188 C2184 1.427 . S
N2188 C2185 1.384 . S
N2189 C2181 1.427 . S
N2189 C2187 1.384 . S
H2190 C2196 0.930 . S
H2191 C2200 0.930 . S
H2192 C2205 0.929 . S
H2193 C2203 0.929 . S
H2194 C2198 0.929 . S
H2195 C2204 0.929 . S
C2196 H2190 0.930 . S
C2196 C2197 1.367 . S
C2196 C2204 1.378 . S
C2197 C2196 1.367 . S
C2197 C2205 1.433 . S
C2198 H2194 0.929 . S
C2198 C2200 1.378 . S
C2198 C2202 1.350 . S
C2199 C2202 1.463 . S
C2199 C2204 1.350 . S
C2199 N2207 1.427 . S
C2200 H2191 0.930 . S
C2200 C2198 1.378 . S
C2200 C2201 1.367 . S
C2201 C2200 1.367 . S
C2201 C2203 1.433 . S
C2202 C2198 1.350 . S
C2202 C2199 1.463 . S
C2202 N2206 1.427 . S
C2203 H2193 0.929 . S
C2203 C2201 1.433 . S
C2203 N2206 1.384 . S
C2204 H2195 0.929 . S
C2204 C2196 1.378 . S
C2204 C2199 1.350 . S
C2205 H2192 0.929 . S
C2205 C2197 1.433 . S
C2205 N2207 1.384 . S
N2206 C2202 1.427 . S
N2206 C2203 1.384 . S
N2207 C2199 1.427 . S
N2207 C2205 1.384 . S
H2208 C2214 0.930 . S
H2209 C2218 0.930 . S
H2210 C2223 0.929 . S
H2211 C2221 0.929 . S
H2212 C2216 0.929 . S
H2213 C2222 0.929 . S
C2214 H2208 0.930 . S
C2214 C2215 1.367 . S
C2214 C2222 1.378 . S
C2215 C2214 1.367 . S
C2215 C2223 1.433 1_554 S
C2216 H2212 0.929 . S
C2216 C2218 1.378 . S
C2216 C2220 1.350 1_556 S
C2217 C2220 1.463 1_455 S
C2217 C2222 1.350 . S
C2217 N2225 1.427 1_554 S
C2218 H2209 0.930 . S
C2218 C2216 1.378 . S
C2218 C2219 1.367 1_556 S
C2219 C2218 1.367 1_554 S
C2219 C2221 1.433 . S
C2220 C2216 1.350 1_554 S
C2220 C2217 1.463 1_655 S
C2220 N2224 1.427 . S
C2221 H2211 0.929 . S
C2221 C2219 1.433 . S
C2221 N2224 1.384 . S
C2222 H2213 0.929 . S
C2222 C2214 1.378 . S
C2222 C2217 1.350 . S
C2223 H2210 0.929 . S
C2223 C2215 1.433 1_556 S
C2223 N2225 1.384 . S
N2224 C2220 1.427 . S
N2224 C2221 1.384 . S
N2225 C2217 1.427 1_556 S
N2225 C2223 1.384 . S
H2226 C2232 0.930 . S
H2227 C2236 0.930 . S
H2228 C2241 0.929 . S
H2229 C2239 0.929 . S
H2230 C2234 0.929 . S
H2231 C2240 0.929 . S
C2232 H2226 0.930 . S
C2232 C2233 1.367 . S
C2232 C2240 1.378 . S
C2233 C2232 1.367 . S
C2233 C2241 1.433 . S
C2234 H2230 0.929 . S
C2234 C2236 1.378 . S
C2234 C2238 1.350 . S
C2235 C2238 1.463 . S
C2235 C2240 1.350 . S
C2235 N2243 1.427 . S
C2236 H2227 0.930 . S
C2236 C2234 1.378 . S
C2236 C2237 1.367 . S
C2237 C2236 1.367 . S
C2237 C2239 1.433 . S
C2238 C2234 1.350 . S
C2238 C2235 1.463 . S
C2238 N2242 1.427 . S
C2239 H2229 0.929 . S
C2239 C2237 1.433 . S
C2239 N2242 1.384 . S
C2240 H2231 0.929 . S
C2240 C2232 1.378 . S
C2240 C2235 1.350 . S
C2241 H2228 0.929 . S
C2241 C2233 1.433 . S
C2241 N2243 1.384 . S
N2242 C2238 1.427 . S
N2242 C2239 1.384 . S
N2243 C2235 1.427 . S
N2243 C2241 1.384 . S
H2244 C2250 0.930 . S
H2245 C2254 0.930 . S
H2246 C2259 0.929 . S
H2247 C2257 0.929 . S
H2248 C2252 0.929 . S
H2249 C2258 0.929 . S
C2250 H2244 0.930 . S
C2250 C2251 1.367 . S
C2250 C2258 1.378 . S
C2251 C2250 1.367 . S
C2251 C2259 1.433 . S
C2252 H2248 0.929 . S
C2252 C2254 1.378 . S
C2252 C2256 1.350 . S
C2253 C2256 1.463 . S
C2253 C2258 1.350 . S
C2253 N2261 1.427 . S
C2254 H2245 0.930 . S
C2254 C2252 1.378 . S
C2254 C2255 1.367 . S
C2255 C2254 1.367 . S
C2255 C2257 1.433 . S
C2256 C2252 1.350 . S
C2256 C2253 1.463 . S
C2256 N2260 1.427 . S
C2257 H2247 0.929 . S
C2257 C2255 1.433 . S
C2257 N2260 1.384 . S
C2258 H2249 0.929 . S
C2258 C2250 1.378 . S
C2258 C2253 1.350 . S
C2259 H2246 0.929 . S
C2259 C2251 1.433 . S
C2259 N2261 1.384 . S
N2260 C2256 1.427 . S
N2260 C2257 1.384 . S
N2261 C2253 1.427 . S
N2261 C2259 1.384 . S
H2262 C2268 0.930 . S
H2263 C2272 0.930 . S
H2264 C2277 0.929 . S
H2265 C2275 0.929 . S
H2266 C2270 0.929 . S
H2267 C2276 0.929 . S
C2268 H2262 0.930 . S
C2268 C2269 1.367 . S
C2268 C2276 1.378 . S
C2269 C2268 1.367 . S
C2269 C2277 1.433 . S
C2270 H2266 0.929 . S
C2270 C2272 1.378 . S
C2270 C2274 1.350 . S
C2271 C2274 1.463 . S
C2271 C2276 1.350 . S
C2271 N2279 1.427 . S
C2272 H2263 0.930 . S
C2272 C2270 1.378 . S
C2272 C2273 1.367 . S
C2273 C2272 1.367 . S
C2273 C2275 1.433 . S
C2274 C2270 1.350 . S
C2274 C2271 1.463 . S
C2274 N2278 1.427 . S
C2275 H2265 0.929 . S
C2275 C2273 1.433 . S
C2275 N2278 1.384 . S
C2276 H2267 0.929 . S
C2276 C2268 1.378 . S
C2276 C2271 1.350 . S
C2277 H2264 0.929 . S
C2277 C2269 1.433 . S
C2277 N2279 1.384 . S
N2278 C2274 1.427 . S
N2278 C2275 1.384 . S
N2279 C2271 1.427 . S
N2279 C2277 1.384 . S
H2280 C2286 0.930 . S
H2281 C2290 0.930 . S
H2282 C2295 0.929 . S
H2283 C2293 0.929 . S
H2284 C2288 0.929 . S
H2285 C2294 0.929 . S
C2286 H2280 0.930 . S
C2286 C2287 1.367 . S
C2286 C2294 1.378 . S
C2287 C2286 1.367 . S
C2287 C2295 1.433 . S
C2288 H2284 0.929 . S
C2288 C2290 1.378 . S
C2288 C2292 1.350 . S
C2289 C2292 1.463 1_655 S
C2289 C2294 1.350 . S
C2289 N2297 1.427 . S
C2290 H2281 0.930 . S
C2290 C2288 1.378 . S
C2290 C2291 1.367 . S
C2291 C2290 1.367 . S
C2291 C2293 1.433 . S
C2292 C2288 1.350 . S
C2292 C2289 1.463 1_455 S
C2292 N2296 1.427 . S
C2293 H2283 0.929 . S
C2293 C2291 1.433 . S
C2293 N2296 1.384 . S
C2294 H2285 0.929 . S
C2294 C2286 1.378 . S
C2294 C2289 1.350 . S
C2295 H2282 0.929 . S
C2295 C2287 1.433 . S
C2295 N2297 1.384 . S
N2296 C2292 1.427 . S
N2296 C2293 1.384 . S
N2297 C2289 1.427 . S
N2297 C2295 1.384 . S
H2298 C2304 0.930 . S
H2299 C2308 0.930 . S
H2300 C2313 0.929 . S
H2301 C2311 0.929 . S
H2302 C2306 0.929 . S
H2303 C2312 0.929 . S
C2304 H2298 0.930 . S
C2304 C2305 1.367 . S
C2304 C2312 1.378 . S
C2305 C2304 1.367 . S
C2305 C2313 1.433 . S
C2306 H2302 0.929 . S
C2306 C2308 1.378 . S
C2306 C2310 1.350 . S
C2307 C2310 1.463 . S
C2307 C2312 1.350 . S
C2307 N2315 1.427 . S
C2308 H2299 0.930 . S
C2308 C2306 1.378 . S
C2308 C2309 1.367 . S
C2309 C2308 1.367 . S
C2309 C2311 1.433 . S
C2310 C2306 1.350 . S
C2310 C2307 1.463 . S
C2310 N2314 1.427 . S
C2311 H2301 0.929 . S
C2311 C2309 1.433 . S
C2311 N2314 1.384 . S
C2312 H2303 0.929 . S
C2312 C2304 1.378 . S
C2312 C2307 1.350 . S
C2313 H2300 0.929 . S
C2313 C2305 1.433 . S
C2313 N2315 1.384 . S
N2314 C2310 1.427 . S
N2314 C2311 1.384 . S
N2315 C2307 1.427 . S
N2315 C2313 1.384 . S
H2316 C2322 0.930 . S
H2317 C2326 0.930 . S
H2318 C2331 0.929 . S
H2319 C2329 0.929 . S
H2320 C2324 0.929 . S
H2321 C2330 0.929 . S
C2322 H2316 0.930 . S
C2322 C2323 1.367 . S
C2322 C2330 1.378 . S
C2323 C2322 1.367 . S
C2323 C2331 1.433 . S
C2324 H2320 0.929 . S
C2324 C2326 1.378 . S
C2324 C2328 1.350 . S
C2325 C2328 1.463 . S
C2325 C2330 1.350 . S
C2325 N2333 1.427 . S
C2326 H2317 0.930 . S
C2326 C2324 1.378 . S
C2326 C2327 1.367 . S
C2327 C2326 1.367 . S
C2327 C2329 1.433 . S
C2328 C2324 1.350 . S
C2328 C2325 1.463 . S
C2328 N2332 1.427 . S
C2329 H2319 0.929 . S
C2329 C2327 1.433 . S
C2329 N2332 1.384 . S
C2330 H2321 0.929 . S
C2330 C2322 1.378 . S
C2330 C2325 1.350 . S
C2331 H2318 0.929 . S
C2331 C2323 1.433 . S
C2331 N2333 1.384 . S
N2332 C2328 1.427 . S
N2332 C2329 1.384 . S
N2333 C2325 1.427 . S
N2333 C2331 1.384 . S
H2334 C2340 0.930 . S
H2335 C2344 0.930 . S
H2336 C2349 0.929 . S
H2337 C2347 0.929 . S
H2338 C2342 0.929 . S
H2339 C2348 0.929 . S
C2340 H2334 0.930 . S
C2340 C2341 1.367 . S
C2340 C2348 1.378 . S
C2341 C2340 1.367 . S
C2341 C2349 1.433 . S
C2342 H2338 0.929 . S
C2342 C2344 1.378 . S
C2342 C2346 1.350 . S
C2343 C2346 1.463 . S
C2343 C2348 1.350 . S
C2343 N2351 1.427 . S
C2344 H2335 0.930 . S
C2344 C2342 1.378 . S
C2344 C2345 1.367 . S
C2345 C2344 1.367 . S
C2345 C2347 1.433 . S
C2346 C2342 1.350 . S
C2346 C2343 1.463 . S
C2346 N2350 1.427 . S
C2347 H2337 0.929 . S
C2347 C2345 1.433 . S
C2347 N2350 1.384 . S
C2348 H2339 0.929 . S
C2348 C2340 1.378 . S
C2348 C2343 1.350 . S
C2349 H2336 0.929 . S
C2349 C2341 1.433 . S
C2349 N2351 1.384 . S
N2350 C2346 1.427 . S
N2350 C2347 1.384 . S
N2351 C2343 1.427 . S
N2351 C2349 1.384 . S
H2352 C2358 0.930 . S
H2353 C2362 0.930 . S
H2354 C2367 0.929 . S
H2355 C2365 0.929 . S
H2356 C2360 0.929 . S
H2357 C2366 0.929 . S
C2358 H2352 0.930 . S
C2358 C2359 1.367 . S
C2358 C2366 1.378 . S
C2359 C2358 1.367 . S
C2359 C2367 1.433 . S
C2360 H2356 0.929 . S
C2360 C2362 1.378 . S
C2360 C2364 1.350 . S
C2361 C2364 1.463 . S
C2361 C2366 1.350 . S
C2361 N2369 1.427 . S
C2362 H2353 0.930 . S
C2362 C2360 1.378 . S
C2362 C2363 1.367 . S
C2363 C2362 1.367 . S
C2363 C2365 1.433 . S
C2364 C2360 1.350 . S
C2364 C2361 1.463 . S
C2364 N2368 1.427 . S
C2365 H2355 0.929 . S
C2365 C2363 1.433 . S
C2365 N2368 1.384 . S
C2366 H2357 0.929 . S
C2366 C2358 1.378 . S
C2366 C2361 1.350 . S
C2367 H2354 0.929 . S
C2367 C2359 1.433 . S
C2367 N2369 1.384 . S
N2368 C2364 1.427 . S
N2368 C2365 1.384 . S
N2369 C2361 1.427 . S
N2369 C2367 1.384 . S
H2370 C2376 0.930 . S
H2371 C2380 0.930 . S
H2372 C2385 0.929 . S
H2373 C2383 0.929 . S
H2374 C2378 0.929 . S
H2375 C2384 0.929 . S
C2376 H2370 0.930 . S
C2376 C2377 1.367 . S
C2376 C2384 1.378 . S
C2377 C2376 1.367 . S
C2377 C2385 1.433 . S
C2378 H2374 0.929 . S
C2378 C2380 1.378 . S
C2378 C2382 1.350 . S
C2379 C2382 1.463 . S
C2379 C2384 1.350 . S
C2379 N2387 1.427 . S
C2380 H2371 0.930 . S
C2380 C2378 1.378 . S
C2380 C2381 1.367 . S
C2381 C2380 1.367 . S
C2381 C2383 1.433 . S
C2382 C2378 1.350 . S
C2382 C2379 1.463 . S
C2382 N2386 1.427 . S
C2383 H2373 0.929 . S
C2383 C2381 1.433 . S
C2383 N2386 1.384 . S
C2384 H2375 0.929 . S
C2384 C2376 1.378 . S
C2384 C2379 1.350 . S
C2385 H2372 0.929 . S
C2385 C2377 1.433 . S
C2385 N2387 1.384 . S
N2386 C2382 1.427 . S
N2386 C2383 1.384 . S
N2387 C2379 1.427 . S
N2387 C2385 1.384 . S
H2388 C2394 0.930 . S
H2389 C2398 0.930 . S
H2390 C2403 0.929 . S
H2391 C2401 0.929 . S
H2392 C2396 0.929 . S
H2393 C2402 0.929 . S
C2394 H2388 0.930 . S
C2394 C2395 1.367 . S
C2394 C2402 1.378 . S
C2395 C2394 1.367 . S
C2395 C2403 1.433 . S
C2396 H2392 0.929 . S
C2396 C2398 1.378 . S
C2396 C2400 1.350 . S
C2397 C2400 1.463 . S
C2397 C2402 1.350 . S
C2397 N2405 1.427 . S
C2398 H2389 0.930 . S
C2398 C2396 1.378 . S
C2398 C2399 1.367 . S
C2399 C2398 1.367 . S
C2399 C2401 1.433 . S
C2400 C2396 1.350 . S
C2400 C2397 1.463 . S
C2400 N2404 1.427 . S
C2401 H2391 0.929 . S
C2401 C2399 1.433 . S
C2401 N2404 1.384 . S
C2402 H2393 0.929 . S
C2402 C2394 1.378 . S
C2402 C2397 1.350 . S
C2403 H2390 0.929 . S
C2403 C2395 1.433 . S
C2403 N2405 1.384 . S
N2404 C2400 1.427 . S
N2404 C2401 1.384 . S
N2405 C2397 1.427 . S
N2405 C2403 1.384 . S
H2406 C2412 0.930 . S
H2407 C2416 0.930 . S
H2408 C2421 0.929 . S
H2409 C2419 0.929 . S
H2410 C2414 0.929 . S
H2411 C2420 0.929 . S
C2412 H2406 0.930 . S
C2412 C2413 1.367 . S
C2412 C2420 1.378 . S
C2413 C2412 1.367 . S
C2413 C2421 1.433 . S
C2414 H2410 0.929 . S
C2414 C2416 1.378 . S
C2414 C2418 1.350 . S
C2415 C2418 1.463 . S
C2415 C2420 1.350 . S
C2415 N2423 1.427 . S
C2416 H2407 0.930 . S
C2416 C2414 1.378 . S
C2416 C2417 1.367 . S
C2417 C2416 1.367 . S
C2417 C2419 1.433 . S
C2418 C2414 1.350 . S
C2418 C2415 1.463 . S
C2418 N2422 1.427 . S
C2419 H2409 0.929 . S
C2419 C2417 1.433 . S
C2419 N2422 1.384 . S
C2420 H2411 0.929 . S
C2420 C2412 1.378 . S
C2420 C2415 1.350 . S
C2421 H2408 0.929 . S
C2421 C2413 1.433 . S
C2421 N2423 1.384 . S
N2422 C2418 1.427 . S
N2422 C2419 1.384 . S
N2423 C2415 1.427 . S
N2423 C2421 1.384 . S
H2424 C2430 0.930 . S
H2425 C2434 0.930 . S
H2426 C2439 0.929 . S
H2427 C2437 0.929 . S
H2428 C2432 0.929 . S
H2429 C2438 0.929 . S
C2430 H2424 0.930 . S
C2430 C2431 1.367 . S
C2430 C2438 1.378 . S
C2431 C2430 1.367 . S
C2431 C2439 1.433 . S
C2432 H2428 0.929 . S
C2432 C2434 1.378 . S
C2432 C2436 1.350 . S
C2433 C2436 1.463 . S
C2433 C2438 1.350 . S
C2433 N2441 1.427 . S
C2434 H2425 0.930 . S
C2434 C2432 1.378 . S
C2434 C2435 1.367 . S
C2435 C2434 1.367 . S
C2435 C2437 1.433 . S
C2436 C2432 1.350 . S
C2436 C2433 1.463 . S
C2436 N2440 1.427 . S
C2437 H2427 0.929 . S
C2437 C2435 1.433 . S
C2437 N2440 1.384 . S
C2438 H2429 0.929 . S
C2438 C2430 1.378 . S
C2438 C2433 1.350 . S
C2439 H2426 0.929 . S
C2439 C2431 1.433 . S
C2439 N2441 1.384 . S
N2440 C2436 1.427 . S
N2440 C2437 1.384 . S
N2441 C2433 1.427 . S
N2441 C2439 1.384 . S
H2442 C2448 0.930 . S
H2443 C2452 0.930 1_556 S
H2444 C2457 0.929 1_556 S
H2445 C2455 0.929 . S
H2446 C2450 0.929 1_556 S
H2447 C2456 0.929 . S
C2448 H2442 0.930 . S
C2448 C2449 1.367 . S
C2448 C2456 1.378 . S
C2449 C2448 1.367 . S
C2449 C2457 1.433 . S
C2450 H2446 0.929 1_554 S
C2450 C2452 1.378 . S
C2450 C2454 1.350 . S
C2451 C2454 1.463 1_455 S
C2451 C2456 1.350 . S
C2451 N2459 1.427 . S
C2452 H2443 0.930 1_554 S
C2452 C2450 1.378 . S
C2452 C2453 1.367 . S
C2453 C2452 1.367 . S
C2453 C2455 1.433 . S
C2454 C2450 1.350 . S
C2454 C2451 1.463 1_655 S
C2454 N2458 1.427 . S
C2455 H2445 0.929 . S
C2455 C2453 1.433 . S
C2455 N2458 1.384 . S
C2456 H2447 0.929 . S
C2456 C2448 1.378 . S
C2456 C2451 1.350 . S
C2457 H2444 0.929 1_554 S
C2457 C2449 1.433 . S
C2457 N2459 1.384 . S
N2458 C2454 1.427 . S
N2458 C2455 1.384 . S
N2459 C2451 1.427 . S
N2459 C2457 1.384 . S
H2460 C2466 0.930 . S
H2461 C2470 0.930 . S
H2462 C2475 0.929 . S
H2463 C2473 0.929 . S
H2464 C2468 0.929 . S
H2465 C2474 0.929 . S
C2466 H2460 0.930 . S
C2466 C2467 1.367 . S
C2466 C2474 1.378 . S
C2467 C2466 1.367 . S
C2467 C2475 1.433 . S
C2468 H2464 0.929 . S
C2468 C2470 1.378 . S
C2468 C2472 1.350 . S
C2469 C2472 1.463 . S
C2469 C2474 1.350 . S
C2469 N2477 1.427 . S
C2470 H2461 0.930 . S
C2470 C2468 1.378 . S
C2470 C2471 1.367 . S
C2471 C2470 1.367 . S
C2471 C2473 1.433 . S
C2472 C2468 1.350 . S
C2472 C2469 1.463 . S
C2472 N2476 1.427 . S
C2473 H2463 0.929 . S
C2473 C2471 1.433 . S
C2473 N2476 1.384 . S
C2474 H2465 0.929 . S
C2474 C2466 1.378 . S
C2474 C2469 1.350 . S
C2475 H2462 0.929 . S
C2475 C2467 1.433 . S
C2475 N2477 1.384 . S
N2476 C2472 1.427 . S
N2476 C2473 1.384 . S
N2477 C2469 1.427 . S
N2477 C2475 1.384 . S
H2478 C2484 0.930 . S
H2479 C2488 0.930 . S
H2480 C2493 0.929 . S
H2481 C2491 0.929 . S
H2482 C2486 0.929 . S
H2483 C2492 0.929 . S
C2484 H2478 0.930 . S
C2484 C2485 1.367 1_554 S
C2484 C2492 1.378 . S
C2485 C2484 1.367 1_556 S
C2485 C2493 1.433 . S
C2486 H2482 0.929 . S
C2486 C2488 1.378 . S
C2486 C2490 1.350 . S
C2487 C2490 1.463 1_455 S
C2487 C2492 1.350 1_556 S
C2487 N2495 1.427 . S
C2488 H2479 0.930 . S
C2488 C2486 1.378 . S
C2488 C2489 1.367 . S
C2489 C2488 1.367 . S
C2489 C2491 1.433 1_556 S
C2490 C2486 1.350 . S
C2490 C2487 1.463 1_655 S
C2490 N2494 1.427 1_556 S
C2491 H2481 0.929 . S
C2491 C2489 1.433 1_554 S
C2491 N2494 1.384 . S
C2492 H2483 0.929 . S
C2492 C2484 1.378 . S
C2492 C2487 1.350 1_554 S
C2493 H2480 0.929 . S
C2493 C2485 1.433 . S
C2493 N2495 1.384 . S
N2494 C2490 1.427 1_554 S
N2494 C2491 1.384 . S
N2495 C2487 1.427 . S
N2495 C2493 1.384 . S
C1063 N2 1.466 . S
C1067 N13 1.468 . S
C1081 N46 1.468 . S
C1085 N35 1.465 1_556 S
C1099 N79 1.459 . S
C1103 N68 1.456 . S
C1117 N112 1.467 . S
C1121 N101 1.465 . S
C1135 N145 1.462 . S
C1139 N134 1.459 . S
C1153 N178 1.464 . S
C1157 N167 1.462 . S
C1171 N200 1.454 . S
C1175 N211 1.457 . S
C1189 N233 1.459 1_554 S
C1193 N244 1.462 . S
C1207 N266 1.462 . S
C1211 N277 1.464 . S
C1225 N299 1.464 1_554 S
C1229 N310 1.467 . S
C1243 N332 1.456 . S
C1247 N343 1.459 . S
C1261 N376 1.460 . S
C1265 N365 1.458 . S
C1279 N398 1.463 . S
C1283 N409 1.465 . S
C1297 N431 1.455 . S
C1301 N442 1.457 . S
C1315 N475 1.468 . S
C1319 N464 1.466 . S
C1333 N497 1.454 1_556 S
C1337 N508 1.457 . S
C1351 N541 1.458 . S
C1355 N530 1.456 . S
C1369 N574 1.457 . S
C1373 N563 1.454 . S
C1387 N607 1.468 . S
C1391 N596 1.466 . S
C1405 N640 1.468 . S
C1409 N629 1.465 1_556 S
C1423 N673 1.466 . S
C1427 N662 1.463 . S
C1441 N706 1.456 . S
C1445 N695 1.453 1_554 S
C1459 N739 1.460 . S
C1463 N728 1.457 . S
C1477 N761 1.453 . S
C1481 N772 1.456 . S
C1495 N805 1.468 . S
C1499 N794 1.466 . S
C1513 N838 1.464 . S
C1517 N827 1.461 . S
C1531 N871 1.458 . S
C1535 N860 1.455 . S
C1549 N893 1.458 1_554 S
C1553 N904 1.460 . S
C1567 N926 1.462 . S
C1571 N937 1.464 . S
C1585 N959 1.465 1_556 S
C1589 N970 1.467 . S
C1603 N1003 1.468 . S
C1607 N992 1.466 . S
C1621 N1025 1.466 . S
C1625 N1036 1.468 . S
C1639 C777 1.075 . S
C1643 C18 1.076 . S
C1657 C678 1.078 . S
C1661 C51 1.077 . S
C1675 C711 1.078 . S
C1679 C84 1.078 . S
C1693 C744 1.078 . S
C1697 C117 1.078 . S
C1711 C579 1.076 . S
C1715 C150 1.075 . S
C1729 C612 1.079 . S
C1733 C183 1.079 . S
C1747 C645 1.078 . S
C1751 C216 1.078 . S
C1765 C546 1.076 . S
C1769 C249 1.075 . S
C1783 C1041 1.079 . S
C1787 C282 1.079 . S
C1801 C942 1.077 . S
C1805 C315 1.077 . S
C1819 C348 1.075 . S
C1823 C975 1.075 . S
C1837 C381 1.075 . S
C1841 C1008 1.075 . S
C1855 C414 1.075 . S
C1859 C843 1.075 . S
C1873 C447 1.079 . S
C1877 C876 1.079 . S
C1891 C480 1.076 . S
C1895 C909 1.076 . S
C1909 C810 1.075 . S
C1913 C513 1.075 . S
C1927 C139 1.416 . S
C1931 C7 1.420 . S
C1945 C40 1.412 . S
C1949 C172 1.420 . S
C1963 C205 1.418 . S
C1967 C73 1.412 . S
C1981 C106 1.418 . S
C1985 C238 1.419 . S
C1999 C271 1.420 . S
C2003 C403 1.416 . S
C2017 C436 1.413 . S
C2021 C304 1.422 . S
C2035 C469 1.413 . S
C2039 C337 1.417 . S
C2053 C502 1.421 . S
C2057 C370 1.412 . S
C2071 C667 1.412 . S
C2075 C535 1.421 . S
C2089 C568 1.412 . S
C2093 C700 1.420 . S
C2107 C601 1.413 . S
C2111 C733 1.421 . S
C2125 C634 1.412 . S
C2129 C766 1.422 . S
C2143 C931 1.412 . S
C2147 C799 1.418 . S
C2161 C964 1.421 . S
C2165 C832 1.415 . S
C2179 C997 1.421 . S
C2183 C865 1.412 . S
C2197 C898 1.422 . S
C2201 C1030 1.413 . S
C2215 C21 1.460 . S
C2219 C417 1.459 . S
C2233 C978 1.457 . S
C2237 C54 1.462 . S
C2251 C87 1.462 . S
C2255 C483 1.458 . S
C2269 C1044 1.462 . S
C2273 C120 1.456 . S
C2287 C285 1.463 . S
C2291 C153 1.457 . S
C2305 C186 1.462 . S
C2309 C846 1.457 . S
C2323 C219 1.457 . S
C2327 C351 1.463 . S
C2341 C252 1.459 . S
C2345 C912 1.460 . S
C2359 C714 1.457 . S
C2363 C318 1.462 . S
C2377 C780 1.462 . S
C2381 C384 1.456 . S
C2395 C582 1.462 . S
C2399 C450 1.457 . S
C2413 C648 1.462 . S
C2417 C516 1.457 . S
C2431 C549 1.461 . S
C2435 C945 1.458 . S
C2449 C1011 1.457 . S
C2453 C615 1.463 . S
C2467 C681 1.461 . S
C2471 C813 1.458 . S
C2485 C879 1.460 . S
C2489 C747 1.460 . S
