# Generated by pormake.
# Topology sml, (6)-cn, num edge types: 1
# Building blocks:
#     Node 0, Type 0, BuildingBlock: CUWYAW_clean_sbu_0, # of connection points: 6
#     Node 1, Type 0, BuildingBlock: CUWYAW_clean_sbu_0, # of connection points: 6
#     Node 2, Type 0, BuildingBlock: CUWYAW_clean_sbu_0, # of connection points: 6
#     Node 3, Type 0, BuildingBlock: CUWYAW_clean_sbu_0, # of connection points: 6
#     Node 4, Type 0, BuildingBlock: CUWYAW_clean_sbu_0, # of connection points: 6
#     Node 5, Type 0, BuildingBlock: CUWYAW_clean_sbu_0, # of connection points: 6
#     Edge 6, Type (0, 0), BuildingBlock: UVAHIK_clean_linker_0, # of connection points: 2
#     Edge 7, Type (0, 0), BuildingBlock: UVAHIK_clean_linker_0, # of connection points: 2
#     Edge 8, Type (0, 0), BuildingBlock: UVAHIK_clean_linker_0, # of connection points: 2
#     Edge 9, Type (0, 0), BuildingBlock: UVAHIK_clean_linker_0, # of connection points: 2
#     Edge 10, Type (0, 0), BuildingBlock: UVAHIK_clean_linker_0, # of connection points: 2
#     Edge 11, Type (0, 0), BuildingBlock: UVAHIK_clean_linker_0, # of connection points: 2
#     Edge 12, Type (0, 0), BuildingBlock: UVAHIK_clean_linker_0, # of connection points: 2
#     Edge 13, Type (0, 0), BuildingBlock: UVAHIK_clean_linker_0, # of connection points: 2
#     Edge 14, Type (0, 0), BuildingBlock: UVAHIK_clean_linker_0, # of connection points: 2
#     Edge 15, Type (0, 0), BuildingBlock: UVAHIK_clean_linker_0, # of connection points: 2
#     Edge 16, Type (0, 0), BuildingBlock: UVAHIK_clean_linker_0, # of connection points: 2
#     Edge 17, Type (0, 0), BuildingBlock: UVAHIK_clean_linker_0, # of connection points: 2
#     Edge 18, Type (0, 0), BuildingBlock: UVAHIK_clean_linker_0, # of connection points: 2
#     Edge 19, Type (0, 0), BuildingBlock: UVAHIK_clean_linker_0, # of connection points: 2
#     Edge 20, Type (0, 0), BuildingBlock: UVAHIK_clean_linker_0, # of connection points: 2
#     Edge 21, Type (0, 0), BuildingBlock: UVAHIK_clean_linker_0, # of connection points: 2
#     Edge 22, Type (0, 0), BuildingBlock: UVAHIK_clean_linker_0, # of connection points: 2
#     Edge 23, Type (0, 0), BuildingBlock: UVAHIK_clean_linker_0, # of connection points: 2
# Relax obj value: 0.203
# Max RMSD: 0.228
# Mean RMSD: 0.228
data_MOF--net-sml--node1-CUWYAW_clean_sbu_0--edge1-UVAHIK_clean_linker_0
_symmetry_space_group_name_H-M    P1
_symmetry_Int_Tables_number       1
_symmetry_cell_setting            triclinic
loop_
_symmetry_equiv_pos_as_xyz
'x, y, z'
_cell_length_a     44.018062
_cell_length_b     44.022826
_cell_length_c     29.770632
_cell_angle_alpha  89.758225
_cell_angle_beta   90.142328
_cell_angle_gamma 120.0456
loop_
_atom_site_label
_atom_site_type_symbol
_atom_site_fract_x
_atom_site_fract_y
_atom_site_fract_z
_atom_type_partial_charge
C0 C 0.23232 0.38915 0.12987 0.0
Eu1 Eu 0.22287 0.41036 0.05182 0.0
C2 C 0.22853 0.39386 0.17843 0.0
C3 C 0.25873 0.41171 0.20518 0.0
C4 C 0.25599 0.41544 0.25136 0.0
C5 C 0.22292 0.40134 0.27197 0.0
C6 C 0.19265 0.38359 0.24518 0.0
C7 C 0.19541 0.3797 0.19897 0.0
C8 C 0.27377 0.45498 0.9953 0.0
C9 C 0.20651 0.47493 0.06276 0.0
C10 C 0.19073 0.45805 0.89138 0.0
Eu11 Eu 0.19812 0.4364 0.97015 0.0
C12 C 0.19406 0.4516 0.84334 0.0
C13 C 0.1641 0.43708 0.8159 0.0
C14 C 0.16656 0.43178 0.77012 0.0
C15 C 0.19916 0.44119 0.75046 0.0
C16 C 0.22916 0.45546 0.77809 0.0
C17 C 0.22666 0.4606 0.82403 0.0
C18 C 0.14693 0.39277 0.02635 0.0
C19 C 0.21365 0.37127 0.95952 0.0
O20 O 0.2037 0.37159 0.10593 0.0
O21 O 0.25695 0.41626 0.10832 0.0
O22 O 0.27444 0.42906 0.01528 0.0
O23 O 0.24759 0.45709 0.00772 0.0
O24 O 0.20807 0.44853 0.08197 0.0
O25 O 0.20684 0.47874 0.01867 0.0
O26 O 0.21955 0.47421 0.91521 0.0
O27 O 0.16483 0.43252 0.91352 0.0
O28 O 0.14585 0.4175 1.00382 0.0
O29 O 0.17294 0.38989 0.01502 0.0
O30 O 0.21171 0.39745 0.94044 0.0
O31 O 0.21418 0.36779 1.00355 0.0
H32 H 0.2846 0.42262 0.19039 0.0
H33 H 0.27983 0.42957 0.27091 0.0
H34 H 0.16679 0.37199 0.26011 0.0
H35 H 0.17157 0.36522 0.17961 0.0
H36 H 0.13867 0.42995 0.82988 0.0
H37 H 0.1428 0.42017 0.75015 0.0
H38 H 0.25476 0.46339 0.76408 0.0
H39 H 0.25032 0.47197 0.84421 0.0
C40 C 0.83853 0.2373 0.47183 0.0
Eu41 Eu 0.81012 0.22479 0.39214 0.0
C42 C 0.82877 0.22736 0.51916 0.0
C43 C 0.85475 0.24225 0.55233 0.0
C44 C 0.84609 0.23447 0.59771 0.0
C45 C 0.81115 0.21169 0.61092 0.0
C46 C 0.78514 0.19654 0.57741 0.0
C47 C 0.79392 0.20419 0.53188 0.0
C48 C 0.81404 0.27328 0.33249 0.0
C49 C 0.72576 0.19628 0.3981 0.0
C50 C 0.72915 0.18692 0.23125 0.0
Eu51 Eu 0.7638 0.19564 0.30576 0.0
C52 C 0.7342 0.18233 0.18323 0.0
C53 C 0.70515 0.16625 0.15444 0.0
C54 C 0.70982 0.16446 0.10817 0.0
C55 C 0.74374 0.1789 0.08966 0.0
C56 C 0.77276 0.19426 0.11898 0.0
C57 C 0.76803 0.19588 0.16522 0.0
C58 C 0.77616 0.14953 0.35196 0.0
C59 C 0.84556 0.21961 0.30145 0.0
O60 O 0.83712 0.21303 0.44507 0.0
O61 O 0.82657 0.25622 0.45304 0.0
O62 O 0.84074 0.27715 0.35564 0.0
O63 O 0.78688 0.24529 0.3434 0.0
O64 O 0.75593 0.2073 0.41944 0.0
O65 O 0.72235 0.19096 0.35419 0.0
O66 O 0.75129 0.21766 0.24811 0.0
O67 O 0.72282 0.16096 0.25858 0.0
O68 O 0.77269 0.14889 0.30854 0.0
O69 O 0.77059 0.17252 0.36829 0.0
O70 O 0.81882 0.21855 0.27976 0.0
O71 O 0.84587 0.21662 0.34568 0.0
H72 H 0.88178 0.2603 0.54315 0.0
H73 H 0.8667 0.24695 0.62256 0.0
H74 H 0.75805 0.17862 0.58637 0.0
H75 H 0.77356 0.19223 0.50666 0.0
H76 H 0.67882 0.1556 0.16764 0.0
H77 H 0.68681 0.15188 0.08688 0.0
H78 H 0.79928 0.20605 0.10612 0.0
H79 H 0.79089 0.20854 0.18678 0.0
C80 C 0.60465 0.83266 0.78474 0.0
Eu81 Eu 0.58754 0.80483 0.70503 0.0
C82 C 0.60426 0.82247 0.83195 0.0
C83 C 0.61678 0.84843 0.86512 0.0
C84 C 0.61527 0.83938 0.91045 0.0
C85 C 0.60101 0.80407 0.92352 0.0
C86 C 0.58877 0.77809 0.89 0.0
C87 C 0.59054 0.78725 0.84454 0.0
C88 C 0.54344 0.81064 0.64651 0.0
C89 C 0.53012 0.7211 0.70973 0.0
C90 C 0.54306 0.72582 0.54368 0.0
Eu91 Eu 0.56981 0.76031 0.61778 0.0
C92 C 0.55256 0.72998 0.4957 0.0
C93 C 0.53777 0.70062 0.46751 0.0
C94 C 0.54396 0.70461 0.42117 0.0
C95 C 0.56494 0.73814 0.40205 0.0
C96 C 0.58051 0.76742 0.43078 0.0
C97 C 0.57445 0.76336 0.47712 0.0
C98 C 0.62807 0.77097 0.66278 0.0
C99 C 0.62869 0.84166 0.61468 0.0
O100 O 0.62671 0.82992 0.75784 0.0
O101 O 0.57396 0.82218 0.76619 0.0
O102 O 0.56674 0.83684 0.66979 0.0
O103 O 0.5437 0.78309 0.65665 0.0
O104 O 0.54979 0.75066 0.73187 0.0
O105 O 0.53215 0.71857 0.66568 0.0
O106 O 0.53587 0.74911 0.55994 0.0
O107 O 0.56192 0.71859 0.57119 0.0
O108 O 0.62532 0.76894 0.61928 0.0
O109 O 0.59959 0.76517 0.67982 0.0
O110 O 0.60274 0.81571 0.59233 0.0
O111 O 0.63179 0.84059 0.6588 0.0
H112 H 0.62735 0.87575 0.85599 0.0
H113 H 0.6245 0.85998 0.93536 0.0
H114 H 0.57798 0.75071 0.8989 0.0
H115 H 0.581 0.76691 0.81927 0.0
H116 H 0.52086 0.67464 0.48123 0.0
H117 H 0.53207 0.6814 0.40029 0.0
H118 H 0.59647 0.79366 0.41738 0.0
H119 H 0.58609 0.78642 0.4983 0.0
C120 C 0.77526 0.61732 0.11351 0.0
Eu121 Eu 0.78054 0.59337 0.03562 0.0
C122 C 0.77843 0.61163 0.1617 0.0
C123 C 0.75839 0.61808 0.1926 0.0
C124 C 0.76076 0.613 0.23856 0.0
C125 C 0.78324 0.60129 0.25465 0.0
C126 C 0.80337 0.59485 0.22346 0.0
C127 C 0.80094 0.59992 0.17735 0.0
C128 C 0.72779 0.54511 0.98462 0.0
C129 C 0.7985 0.52967 0.0472 0.0
C130 C 0.80819 0.54223 0.87557 0.0
Eu131 Eu 0.80291 0.56612 0.95345 0.0
C132 C 0.8067 0.54946 0.82747 0.0
C133 C 0.82618 0.54206 0.79678 0.0
C134 C 0.825 0.54823 0.75088 0.0
C135 C 0.80422 0.56192 0.73468 0.0
C136 C 0.78482 0.56953 0.76567 0.0
C137 C 0.78613 0.56344 0.81169 0.0
C138 C 0.85538 0.6131 0.00576 0.0
C139 C 0.78493 0.6298 0.94172 0.0
O140 O 0.80414 0.63139 0.08969 0.0
O141 O 0.74857 0.59197 0.09239 0.0
O142 O 0.72677 0.57106 1.0037 0.0
O143 O 0.75535 0.54484 0.99517 0.0
O144 O 0.79672 0.556 0.066 0.0
O145 O 0.79661 0.52499 1.00323 0.0
O146 O 0.77881 0.52936 0.89824 0.0
O147 O 0.83521 0.56601 0.898 0.0
O148 O 0.856 0.58706 0.98632 0.0
O149 O 0.82833 0.61418 0.9946 0.0
O150 O 0.78797 0.60421 0.92299 0.0
O151 O 0.78534 0.63385 0.98571 0.0
H152 H 0.74094 0.62721 0.18116 0.0
H153 H 0.7453 0.61876 0.26156 0.0
H154 H 0.82067 0.58548 0.23461 0.0
H155 H 0.81659 0.59468 0.154 0.0
H156 H 0.84219 0.53124 0.80831 0.0
H157 H 0.8399 0.54166 0.72796 0.0
H158 H 0.76889 0.58047 0.7544 0.0
H159 H 0.77104 0.56957 0.83487 0.0
C160 C 0.14374 0.76808 0.46667 0.0
Eu161 Eu 0.17833 0.77646 0.39231 0.0
C162 C 0.15157 0.77233 0.51508 0.0
C163 C 0.12432 0.75432 0.546 0.0
C164 C 0.13128 0.75733 0.59213 0.0
C165 C 0.16572 0.77848 0.60829 0.0
C166 C 0.19301 0.79653 0.57701 0.0
C167 C 0.18601 0.79343 0.53082 0.0
C168 C 0.18126 0.72645 0.34342 0.0
C169 C 0.25907 0.79883 0.39467 0.0
C170 C 0.25333 0.80916 0.22854 0.0
Eu171 Eu 0.21882 0.80122 0.30286 0.0
C172 C 0.24552 0.80495 0.1801 0.0
C173 C 0.27279 0.82291 0.14921 0.0
C174 C 0.26588 0.81982 0.10307 0.0
C175 C 0.23146 0.79862 0.08687 0.0
C176 C 0.20414 0.78062 0.11813 0.0
C177 C 0.2111 0.7838 0.16433 0.0
C178 C 0.21541 0.85119 0.35115 0.0
C179 C 0.13801 0.7791 0.3009 0.0
O180 O 0.15724 0.79684 0.44248 0.0
O181 O 0.14599 0.74277 0.44701 0.0
O182 O 0.18245 0.72723 0.38699 0.0
O183 O 0.17678 0.75058 0.32821 0.0
O184 O 0.2326 0.79594 0.41876 0.0
O185 O 0.25817 0.79817 0.35012 0.0
O186 O 0.23949 0.78041 0.25273 0.0
O187 O 0.25148 0.8347 0.24818 0.0
O188 O 0.21492 0.85045 0.30757 0.0
O189 O 0.22015 0.82729 0.36674 0.0
O190 O 0.16462 0.78254 0.27658 0.0
O191 O 0.13872 0.77914 0.34543 0.0
H192 H 0.09763 0.73767 0.53443 0.0
H193 H 0.10971 0.74258 0.61509 0.0
H194 H 0.21976 0.81333 0.58821 0.0
H195 H 0.20746 0.80746 0.50742 0.0
H196 H 0.29948 0.83956 0.1608 0.0
H197 H 0.28747 0.83452 0.08011 0.0
H198 H 0.1774 0.76379 0.10691 0.0
H199 H 0.18963 0.76981 0.18771 0.0
C200 C 0.37565 0.15544 0.79105 0.0
Eu201 Eu 0.398 0.18558 0.71298 0.0
C202 C 0.37676 0.1647 0.8386 0.0
C203 C 0.36393 0.13798 0.87097 0.0
C204 C 0.36617 0.14608 0.9166 0.0
C205 C 0.38143 0.18117 0.93074 0.0
C206 C 0.39395 0.20794 0.89801 0.0
C207 C 0.39155 0.19975 0.85226 0.0
C208 C 0.44625 0.18111 0.66205 0.0
C209 C 0.45923 0.26765 0.72139 0.0
C210 C 0.44966 0.26049 0.54996 0.0
Eu211 Eu 0.42389 0.23322 0.62835 0.0
C212 C 0.44104 0.25351 0.50194 0.0
C213 C 0.45358 0.28183 0.47195 0.0
C214 C 0.44718 0.27603 0.42592 0.0
C215 C 0.42816 0.24169 0.40889 0.0
C216 C 0.41501 0.21329 0.43927 0.0
C217 C 0.42138 0.21915 0.48542 0.0
C218 C 0.37669 0.23976 0.67819 0.0
C219 C 0.35965 0.15162 0.62046 0.0
O220 O 0.35704 0.16329 0.76411 0.0
O221 O 0.40552 0.16204 0.77334 0.0
O222 O 0.42045 0.15414 0.68149 0.0
O223 O 0.44608 0.20876 0.67177 0.0
O224 O 0.43227 0.24048 0.74102 0.0
O225 O 0.4648 0.26856 0.67769 0.0
O226 O 0.45716 0.23902 0.57133 0.0
O227 O 0.43021 0.26918 0.57368 0.0
O228 O 0.40074 0.26521 0.65446 0.0
O229 O 0.37612 0.2113 0.67077 0.0
O230 O 0.38386 0.18033 0.59996 0.0
O231 O 0.35755 0.14832 0.66462 0.0
H232 H 0.35259 0.11079 0.86096 0.0
H233 H 0.35674 0.12488 0.94086 0.0
H234 H 0.40553 0.23519 0.90777 0.0
H235 H 0.40146 0.22069 0.82762 0.0
H236 H 0.46864 0.30853 0.48413 0.0
H237 H 0.45713 0.29852 0.40366 0.0
H238 H 0.40051 0.18651 0.42733 0.0
H239 H 0.41141 0.19687 0.50806 0.0
C240 C 0.33326 0.25953 0.68384 0.0
C241 C 0.34999 0.24289 0.70355 0.0
C242 C 0.31047 0.26599 0.70906 0.0
C243 C 0.26304 0.2473 0.81822 0.0
H244 H 0.27735 0.34077 0.79924 0.0
C245 C 0.22989 0.32488 0.94712 0.0
C246 C 0.21798 0.34687 0.92997 0.0
C247 C 0.23886 0.30581 0.91793 0.0
C248 C 0.27251 0.31434 0.80449 0.0
H249 H 0.35686 0.22034 0.76459 0.0
H250 H 0.31756 0.23216 0.80939 0.0
H251 H 0.30649 0.31936 0.75066 0.0
H252 H 0.20327 0.36381 0.86916 0.0
H253 H 0.21861 0.3304 0.81858 0.0
H254 H 0.23001 0.24323 0.87355 0.0
C255 C 0.32083 0.23905 0.77407 0.0
C256 C 0.28919 0.30199 0.77653 0.0
C257 C 0.34324 0.23213 0.74851 0.0
C258 C 0.21293 0.34757 0.88344 0.0
C259 C 0.22175 0.32848 0.85441 0.0
C260 C 0.24644 0.25983 0.84652 0.0
C261 C 0.30476 0.25674 0.75483 0.0
C262 C 0.28485 0.26842 0.78313 0.0
C263 C 0.23596 0.3084 0.87122 0.0
C264 C 0.2512 0.29356 0.83998 0.0
H265 H 0.33821 0.268 0.64907 0.0
H266 H 0.298 0.27904 0.69297 0.0
H267 H 0.25893 0.2212 0.82394 0.0
H268 H 0.23396 0.32373 0.98284 0.0
H269 H 0.2499 0.29066 0.9318 0.0
C270 C 0.08411 0.3486 0.03457 0.0
C271 C 0.11764 0.36707 0.05352 0.0
C272 C 0.05532 0.32664 0.06123 0.0
C273 C 0.02823 0.28344 0.17317 0.0
H274 H 0.94619 0.29197 0.14918 0.0
C275 C 0.9101 0.24139 0.29503 0.0
C276 C 0.87679 0.2269 0.27497 0.0
C277 C 0.9401 0.25323 0.26832 0.0
C278 C 0.96868 0.28885 0.15595 0.0
H279 H 0.14797 0.37801 0.11439 0.0
H280 H 0.09751 0.33995 0.16185 0.0
H281 H -0.00254 0.32275 0.10173 0.0
H282 H 0.84843 0.21046 0.21183 0.0
H283 H 0.90049 0.23075 0.1656 0.0
H284 H -0.0008 0.25019 0.2286 0.0
C285 C 0.09344 0.34134 0.12618 0.0
C286 C -0.0019 0.30645 0.12865 0.0
C287 C 0.12232 0.36299 0.0992 0.0
C288 C 0.87379 0.22217 0.22822 0.0
C289 C 0.9036 0.23381 0.2017 0.0
C290 C -0.00134 0.26589 0.20083 0.0
C291 C 0.05949 0.32347 0.1076 0.0
C292 C 0.02818 0.30386 0.13669 0.0
C293 C 0.93711 0.25061 0.22129 0.0
C294 C 0.96855 0.26832 0.19223 0.0
H295 H 0.08012 0.35155 0.99924 0.0
H296 H 0.02966 0.31272 0.04566 0.0
H297 H 0.05097 0.28081 0.18013 0.0
H298 H 0.91316 0.24528 0.33102 0.0
H299 H 0.96566 0.26615 0.28426 0.0
C300 C 0.77805 0.12435 0.42601 0.0
C301 C 0.77443 0.1207 0.37921 0.0
C302 C 0.77134 0.09578 0.45313 0.0
C303 C 0.75103 0.00246 0.45155 0.0
H304 H 0.69749 0.9964 0.55788 0.0
C305 C 0.65463 0.87329 0.54246 0.0
C306 C 0.65385 0.87347 0.58967 0.0
C307 C 0.6762 0.90407 0.51857 0.0
C308 C 0.71291 -0.00208 0.52876 0.0
H309 H 0.76248 0.08482 0.32371 0.0
H310 H 0.74912 0.03426 0.37113 0.0
H311 H 0.72308 0.04933 0.51256 0.0
H312 H 0.67617 0.9058 0.64887 0.0
H313 H 0.71352 0.95968 0.607 0.0
H314 H 0.73888 0.9499 0.46705 0.0
C315 C 0.7581 0.05942 0.387 0.0
C316 C 0.72776 0.02838 0.50273 0.0
C317 C 0.76557 0.08833 0.35975 0.0
C318 C 0.67607 0.9048 0.61253 0.0
C319 C 0.69738 0.93566 0.5886 0.0
C320 C 0.73573 0.97173 0.47742 0.0
C321 C 0.75989 0.06258 0.43415 0.0
C322 C 0.74676 0.031 0.46352 0.0
C323 C 0.69718 0.93571 0.5414 0.0
C324 C 0.71624 0.96909 0.51602 0.0
H325 H 0.78476 0.14899 0.44192 0.0
H326 H 0.77396 0.09952 0.48916 0.0
H327 H 0.76587 0.0037 0.42197 0.0
H328 H 0.63802 0.84953 0.52383 0.0
H329 H 0.67531 0.90341 0.4822 0.0
C330 C 0.65433 0.76878 0.73597 0.0
C331 C 0.6556 0.76912 0.68883 0.0
C332 C 0.67725 0.76225 0.76112 0.0
C333 C 0.72213 0.71263 0.75266 0.0
H334 H 0.76419 0.75673 0.86615 0.0
C335 C 0.78703 0.65546 0.86593 0.0
C336 C 0.7796 0.65373 0.91204 0.0
C337 C 0.77933 0.67579 0.83708 0.0
C338 C 0.75243 0.74399 0.83466 0.0
H339 H 0.68286 0.76472 0.63094 0.0
H340 H 0.72279 0.75273 0.67506 0.0
H341 H 0.73778 0.78237 0.81804 0.0
H342 H 0.75917 0.67273 0.96431 0.0
H343 H 0.74462 0.70724 0.91389 0.0
H344 H 0.73482 0.67321 0.76992 0.0
C345 C 0.70403 0.75754 0.69245 0.0
C346 C 0.73752 0.75882 0.80704 0.0
C347 C 0.68131 0.76449 0.66726 0.0
C348 C 0.76534 0.67364 0.92895 0.0
C349 C 0.7572 0.69363 0.9 0.0
C350 C 0.73668 0.6976 0.78041 0.0
C351 C 0.70165 0.75555 0.73959 0.0
C352 C 0.72169 0.74292 0.76613 0.0
C353 C 0.76355 0.69449 0.85355 0.0
C354 C 0.75146 0.71271 0.82217 0.0
H355 H 0.63466 0.77213 0.75346 0.0
H356 H 0.67454 0.76052 0.79734 0.0
H357 H 0.70961 0.69946 0.72166 0.0
H358 H 0.79843 0.64075 0.85192 0.0
H359 H 0.7853 0.67641 0.80171 0.0
C360 C 0.07344 0.75769 0.30089 0.0
C361 C 0.10538 0.77164 0.27748 0.0
C362 C 0.04199 0.74639 0.27756 0.0
C363 C 0.0044 0.74888 0.16686 0.0
H364 H 0.93601 0.65177 0.19309 0.0
C365 C 0.89969 0.62202 0.06372 0.0
C366 C 0.87945 0.63408 0.04193 0.0
C367 C 0.92236 0.64143 0.09842 0.0
C368 C 0.9547 0.67901 0.18569 0.0
H369 H 0.12971 0.78693 0.21171 0.0
H370 H 0.07502 0.76726 0.17121 0.0
H371 H 0.9857 0.68402 0.24356 0.0
H372 H 0.86672 0.67563 0.03894 0.0
H373 H 0.9072 0.71021 0.09946 0.0
H374 H 0.97422 0.74317 0.10768 0.0
C375 C 0.07418 0.76506 0.2075 0.0
C376 C 0.98295 0.69758 0.21477 0.0
C377 C 0.10551 0.77604 0.2307 0.0
C378 C 0.88213 0.66586 0.05539 0.0
C379 C 0.90521 0.68557 0.08985 0.0
C380 C 0.97596 0.73035 0.13792 0.0
C381 C 0.04201 0.74924 0.23052 0.0
C382 C 0.00875 0.73229 0.20477 0.0
C383 C 0.92551 0.67348 0.11165 0.0
C384 C 0.95161 0.69487 0.14626 0.0
H385 H 0.07249 0.75407 0.33697 0.0
H386 H 0.01755 0.73449 0.29613 0.0
H387 H 0.02376 0.77573 0.15861 0.0
H388 H 0.89793 0.59748 0.05408 0.0
H389 H 0.9381 0.63175 0.11419 0.0
C390 C 0.32977 0.12693 0.54722 0.0
C391 C 0.33466 0.12185 0.59268 0.0
C392 C 0.30832 0.09835 0.52 0.0
C393 C 0.24343 0.00217 0.52257 0.0
H394 H 0.28308 0.0046 0.40554 0.0
C395 C 0.22198 0.88049 0.42482 0.0
C396 C 0.21816 0.88041 0.37799 0.0
C397 C 0.22813 0.90974 0.44986 0.0
C398 C 0.27127 0.00373 0.43776 0.0
H399 H 0.32015 0.08306 0.64567 0.0
H400 H 0.28388 0.03311 0.59795 0.0
H401 H 0.30925 0.05697 0.45166 0.0
H402 H 0.21604 0.90986 0.32072 0.0
H403 H 0.22743 0.96139 0.36455 0.0
H404 H 0.20673 0.94802 0.50923 0.0
C405 C 0.29573 0.05916 0.5834 0.0
C406 C 0.2862 0.03381 0.46424 0.0
C407 C 0.31678 0.0878 0.61077 0.0
C408 C 0.21911 0.9094 0.35679 0.0
C409 C 0.22563 0.93882 0.38179 0.0
C410 C 0.22875 0.97191 0.49622 0.0
C411 C 0.29175 0.06401 0.53748 0.0
C412 C 0.27294 0.03324 0.50737 0.0
C413 C 0.23091 0.93951 0.4284 0.0
C414 C 0.24299 0.9723 0.45395 0.0
H415 H 0.34286 0.15296 0.53247 0.0
H416 H 0.30526 0.10314 0.48502 0.0
H417 H 0.23212 0.00099 0.55524 0.0
H418 H 0.22144 0.85846 0.44194 0.0
H419 H 0.23248 0.90975 0.4857 0.0
C420 C 0.22453 0.42558 0.68448 0.0
C421 C 0.20178 0.43663 0.70125 0.0
C422 C 0.22682 0.42132 0.63826 0.0
C423 C 0.17811 0.40729 0.53194 0.0
H424 H 0.26915 0.44162 0.47636 0.0
C425 C 0.19556 0.413 0.33899 0.0
C426 C 0.22012 0.40474 0.32131 0.0
C427 C 0.19323 0.41649 0.38537 0.0
C428 C 0.24346 0.43145 0.49137 0.0
H429 H 0.16418 0.45256 0.68206 0.0
H430 H 0.1679 0.44472 0.60176 0.0
H431 H 0.26532 0.44807 0.55712 0.0
H432 H 0.26091 0.39284 0.3387 0.0
H433 H 0.25665 0.39858 0.41946 0.0
H434 H 0.15616 0.39044 0.46636 0.0
C435 C 0.18362 0.4389 0.62443 0.0
C436 C 0.24129 0.43519 0.53771 0.0
C437 C 0.18146 0.44334 0.67055 0.0
C438 C 0.24211 0.3998 0.35114 0.0
C439 C 0.23968 0.40314 0.3975 0.0
C440 C 0.18025 0.40339 0.48564 0.0
C441 C 0.20631 0.42783 0.6077 0.0
C442 C 0.2086 0.42327 0.55853 0.0
C443 C 0.21529 0.41164 0.41526 0.0
C444 C 0.21296 0.41552 0.46469 0.0
H445 H 0.2402 0.41968 0.7071 0.0
H446 H 0.24426 0.41235 0.6265 0.0
H447 H 0.15247 0.39735 0.54703 0.0
H448 H 0.17854 0.4174 0.3169 0.0
H449 H 0.1745 0.42359 0.39772 0.0
C450 C 0.72748 0.1847 0.00996 0.0
C451 C 0.74893 0.17902 0.03999 0.0
C452 C 0.7331 0.18609 0.96352 0.0
C453 C 0.80165 0.20326 0.87969 0.0
H454 H 0.72351 0.15949 0.79654 0.0
C455 C 0.82389 0.19911 0.68916 0.0
C456 C 0.80207 0.2045 0.65954 0.0
C457 C 0.81648 0.19418 0.73518 0.0
C458 C 0.74565 0.17223 0.8192 0.0
H459 H 0.79264 0.1694 0.04401 0.0
H460 H 0.80262 0.17222 0.96319 0.0
H461 H 0.71238 0.15439 0.87725 0.0
H462 H 0.75515 0.2087 0.6553 0.0
H463 H 0.74238 0.20047 0.73557 0.0
H464 H 0.83494 0.22159 0.8219 0.0
C465 C 0.78167 0.176 0.9757 0.0
C466 C 0.73924 0.16924 0.86555 0.0
C467 C 0.77595 0.17443 0.02213 0.0
C468 C 0.77228 0.20421 0.67706 0.0
C469 C 0.76496 0.19945 0.72317 0.0
C470 C 0.80805 0.2064 0.83339 0.0
C471 C 0.76043 0.18202 0.94579 0.0
C472 C 0.76717 0.18472 0.89641 0.0
C473 C 0.78713 0.19467 0.75298 0.0
C474 C 0.78016 0.19093 0.80243 0.0
H475 H 0.70682 0.18899 0.02233 0.0
H476 H 0.71654 0.19125 0.94155 0.0
H477 H 0.82376 0.21601 0.90242 0.0
H478 H 0.84673 0.19859 0.67673 0.0
H479 H 0.83377 0.18983 0.7568 0.0
C480 C 0.54127 0.72239 0.32324 0.0
C481 C 0.56948 0.74271 0.35232 0.0
C482 C 0.54503 0.72743 0.27671 0.0
C483 C 0.612 0.76701 0.18613 0.0
H484 H 0.53465 0.76246 0.11796 0.0
C485 C 0.62594 0.81487 1.00177 0.0
C486 C 0.59825 0.79458 0.97203 0.0
C487 C 0.62273 0.80706 0.04771 0.0
C488 C 0.55635 0.76341 0.13639 0.0
H489 H 0.62408 0.78394 0.35471 0.0
H490 H 0.63032 0.79342 0.2738 0.0
H491 H 0.52862 0.75204 0.19872 0.0
H492 H 0.54551 0.74998 0.96738 0.0
H493 H 0.54 0.73617 0.04756 0.0
H494 H 0.63989 0.77897 0.1237 0.0
C495 C 0.60536 0.77318 0.28694 0.0
C496 C 0.5529 0.75738 0.18277 0.0
C497 C 0.60165 0.76804 0.33349 0.0
C498 C 0.56744 0.76596 0.98929 0.0
C499 C 0.56414 0.75828 0.03531 0.0
C500 C 0.61551 0.77322 0.13975 0.0
C501 C 0.57704 0.75306 0.2579 0.0
C502 C 0.58068 0.75912 0.20832 0.0
C503 C 0.59167 0.77887 0.06513 0.0
C504 C 0.58774 0.77153 0.11432 0.0
H505 H 0.51595 0.70296 0.33641 0.0
H506 H 0.52276 0.7111 0.25547 0.0
H507 H 0.63375 0.76802 0.20449 0.0
H508 H 0.65015 0.83691 0.98952 0.0
H509 H 0.64433 0.82362 0.06976 0.0
C510 C 0.83295 0.58168 0.65896 0.0
C511 C 0.80251 0.56769 0.68559 0.0
C512 C 0.83121 0.58585 0.61258 0.0
C513 C 0.77471 0.59072 0.52328 0.0
H514 H 0.83065 0.5681 0.44462 0.0
C515 C 0.75541 0.58151 0.33085 0.0
C516 C 0.78568 0.59616 0.3038 0.0
C517 C 0.75771 0.57795 0.37724 0.0
C518 C 0.81514 0.57489 0.46611 0.0
H519 H 0.7463 0.54709 0.68412 0.0
H520 H 0.74318 0.55418 0.60324 0.0
H521 H 0.83418 0.56264 0.52574 0.0
H522 H 0.84215 0.6184 0.30462 0.0
H523 H 0.84617 0.61209 0.3856 0.0
H524 H 0.75555 0.6028 0.46361 0.0
C525 C 0.76855 0.56246 0.6183 0.0
C526 C 0.81718 0.5718 0.51268 0.0
C527 C 0.77032 0.55838 0.66473 0.0
C528 C 0.81826 0.60661 0.32431 0.0
C529 C 0.82056 0.60303 0.37077 0.0
C530 C 0.77262 0.59374 0.47671 0.0
C531 C 0.79895 0.57605 0.59155 0.0
C532 C 0.79697 0.57964 0.54191 0.0
C533 C 0.79033 0.58889 0.39788 0.0
C534 C 0.79276 0.58582 0.4475 0.0
H535 H 0.85827 0.58967 0.67404 0.0
H536 H 0.85525 0.59703 0.59325 0.0
H537 H 0.7592 0.59754 0.54471 0.0
H538 H 0.7298 0.57255 0.31611 0.0
H539 H 0.73381 0.56632 0.39692 0.0
C540 C 0.20315 0.78189 0.67445 0.0
C541 C 0.17302 0.78136 0.65752 0.0
C542 C 0.20955 0.78383 0.72073 0.0
C543 C 0.16472 0.76746 0.83073 0.0
H544 H 0.25901 0.82607 0.87665 0.0
C545 C 0.19407 0.79505 0.02059 0.0
C546 C 0.2242 0.79564 0.03762 0.0
C547 C 0.1877 0.79301 0.9743 0.0
C548 C 0.23258 0.80925 0.86437 0.0
H549 H 0.12647 0.78338 0.67627 0.0
H550 H 0.13757 0.78667 0.75681 0.0
H551 H 0.24841 0.82344 0.79594 0.0
H552 H 0.27079 0.79363 0.01904 0.0
H553 H 0.25973 0.79018 0.93847 0.0
H554 H 0.14889 0.75327 0.89916 0.0
C555 C 0.15598 0.78499 0.73434 0.0
C556 C 0.2265 0.80775 0.81806 0.0
C557 C 0.14961 0.7831 0.68809 0.0
C558 C 0.24764 0.79387 0.00714 0.0
C559 C 0.2413 0.79188 0.96088 0.0
C560 C 0.1708 0.76896 0.87704 0.0
C561 C 0.18596 0.78526 0.75129 0.0
C562 C 0.19249 0.78685 0.80063 0.0
C563 C 0.21131 0.79155 0.94383 0.0
C564 C 0.20481 0.78988 0.89448 0.0
H565 H 0.22149 0.78006 0.652 0.0
H566 H 0.23266 0.78351 0.73261 0.0
H567 H 0.13829 0.75064 0.81846 0.0
H568 H 0.1757 0.79691 0.04296 0.0
H569 H 0.16458 0.79329 0.96234 0.0
C570 C 0.39056 0.20924 0.34226 0.0
C571 C 0.42274 0.23568 0.35958 0.0
C572 C 0.38564 0.20385 0.29587 0.0
C573 C 0.4349 0.22139 0.18905 0.0
H574 H 0.34654 0.20109 0.13481 0.0
C575 C 0.41637 0.21751 0.99665 0.0
C576 C 0.38506 0.18959 0.9795 0.0
C577 C 0.42057 0.22402 0.04285 0.0
C578 C 0.37127 0.20645 0.14949 0.0
H579 H 0.47521 0.27675 0.3415 0.0
H580 H 0.46638 0.26794 0.26087 0.0
H581 H 0.3546 0.21011 0.21576 0.0
H582 H 0.33315 0.14739 0.9974 0.0
H583 H 0.3406 0.1585 0.07798 0.0
H584 H 0.45159 0.21777 0.12282 0.0
C585 C 0.445 0.2511 0.28308 0.0
C586 C 0.37587 0.21155 0.19593 0.0
C587 C 0.44991 0.25646 0.32938 0.0
C588 C 0.35775 0.16887 0.00955 0.0
C589 C 0.36189 0.17546 0.05571 0.0
C590 C 0.43033 0.21637 0.14265 0.0
C591 C 0.41282 0.22473 0.2657 0.0
C592 C 0.40775 0.21909 0.2163 0.0
C593 C 0.39349 0.20287 0.07298 0.0
C594 C 0.39846 0.20883 0.12229 0.0
H595 H 0.36897 0.19293 0.36451 0.0
H596 H 0.36064 0.18305 0.2837 0.0
H597 H 0.45959 0.22655 0.20366 0.0
H598 H 0.43803 0.2338 0.97449 0.0
H599 H 0.44509 0.24562 0.055 0.0
C600 C 0.20607 0.49883 0.13877 0.0
C601 C 0.20405 0.50078 0.09178 0.0
C602 C 0.20366 0.52316 0.16625 0.0
C603 C 0.17064 0.58499 0.168 0.0
H604 H 0.23495 0.6268 0.26796 0.0
C605 C 0.17926 0.70047 0.26855 0.0
C606 C 0.18358 0.7003 0.31526 0.0
C607 C 0.18178 0.67599 0.24156 0.0
C608 C 0.21651 0.61503 0.24054 0.0
H609 H 0.19788 0.52986 0.03686 0.0
H610 H 0.19373 0.57232 0.08493 0.0
H611 H 0.23931 0.58424 0.22023 0.0
H612 H 0.19349 0.67435 0.37062 0.0
H613 H 0.1972 0.63096 0.32355 0.0
H614 H 0.14763 0.6155 0.18839 0.0
C615 C 0.19694 0.5518 0.10043 0.0
C616 C 0.21905 0.59071 0.21318 0.0
C617 C 0.19952 0.52758 0.07291 0.0
C618 C 0.19018 0.67507 0.33463 0.0
C619 C 0.19254 0.65043 0.30764 0.0
C620 C 0.16799 0.60919 0.19546 0.0
C621 C 0.199 0.54985 0.14737 0.0
C622 C 0.19621 0.57552 0.17656 0.0
C623 C 0.1884 0.65064 0.26078 0.0
C624 C 0.19096 0.62457 0.23197 0.0
H625 H 0.2095 0.4785 0.15446 0.0
H626 H 0.20496 0.52079 0.20234 0.0
H627 H 0.15233 0.57331 0.14042 0.0
H628 H 0.174 0.71958 0.25278 0.0
H629 H 0.17894 0.67721 0.20556 0.0
C630 C 0.66352 0.18335 0.40376 0.0
C631 C 0.69484 0.18989 0.42483 0.0
C632 C 0.63513 0.17936 0.42933 0.0
C633 C 0.61625 0.20345 0.53962 0.0
H634 H 0.51934 0.13684 0.51019 0.0
C635 C 0.47006 0.14805 0.62116 0.0
C636 C 0.47319 0.18014 0.63398 0.0
C637 C 0.4961 0.14751 0.59492 0.0
C638 C 0.54629 0.15537 0.51901 0.0
H639 H 0.72031 0.19589 0.48938 0.0
H640 H 0.67082 0.18836 0.53369 0.0
H641 H 0.56659 0.13762 0.46625 0.0
H642 H 0.50564 0.23673 0.62961 0.0
H643 H 0.55066 0.23585 0.58329 0.0
H644 H 0.59622 0.22089 0.59269 0.0
C645 C 0.66841 0.1871 0.49744 0.0
C646 C 0.5733 0.15606 0.49358 0.0
C647 C 0.69676 0.19126 0.47196 0.0
C648 C 0.50255 0.21161 0.62005 0.0
C649 C 0.52846 0.2111 0.59384 0.0
C650 C 0.58934 0.20275 0.56496 0.0
C651 C 0.6375 0.18171 0.47642 0.0
C652 C 0.60858 0.18018 0.50361 0.0
C653 C 0.52569 0.17907 0.58127 0.0
C654 C 0.55407 0.17888 0.5548 0.0
H655 H 0.66117 0.18215 0.36751 0.0
H656 H 0.61176 0.17552 0.41213 0.0
H657 H 0.64311 0.22268 0.54787 0.0
H658 H 0.44761 0.12343 0.63155 0.0
H659 H 0.4934 0.12244 0.58608 0.0
C660 C 0.32622 0.47227 0.94682 0.0
C661 C 0.29988 0.47869 0.96238 0.0
C662 C 0.35106 0.49501 0.91573 0.0
C663 C 0.41246 0.56207 0.87631 0.0
H664 H 0.38427 0.59787 0.7748 0.0
C665 C 0.5068 0.68952 0.78266 0.0
C666 C 0.50489 0.68976 0.73553 0.0
C667 C 0.4824 0.66052 0.80733 0.0
C668 C 0.39251 0.5878 0.80269 0.0
H669 H 0.27907 0.51401 0.95844 0.0
H670 H 0.32194 0.55329 0.90351 0.0
H671 H 0.33951 0.55246 0.82294 0.0
H672 H 0.47597 0.65947 0.67731 0.0
H673 H 0.433 0.60885 0.72068 0.0
H674 H 0.46546 0.59796 0.85666 0.0
C675 C 0.32321 0.53054 0.91489 0.0
C676 C 0.36693 0.56207 0.83041 0.0
C677 C 0.29869 0.50809 0.94631 0.0
C678 C 0.47821 0.66012 0.71358 0.0
C679 C 0.45352 0.63121 0.73835 0.0
C680 C 0.43803 0.58804 0.84885 0.0
C681 C 0.34973 0.52434 0.89944 0.0
C682 C 0.37668 0.54933 0.86785 0.0
C683 C 0.45533 0.63121 0.78548 0.0
C684 C 0.4283 0.60151 0.81215 0.0
H685 H 0.32767 0.44974 0.9587 0.0
H686 H 0.37119 0.48958 0.90423 0.0
H687 H 0.4207 0.55285 0.90509 0.0
H688 H 0.52703 0.71183 0.80067 0.0
H689 H 0.48419 0.66142 0.84365 0.0
C690 C 0.78241 0.29628 0.28682 0.0
C691 C 0.81424 0.29972 0.30179 0.0
C692 C 0.78222 0.32176 0.25899 0.0
C693 C 0.78959 0.39039 0.22627 0.0
H694 H 0.85281 0.42915 0.12472 0.0
C695 C 0.80223 0.50748 0.12353 0.0
C696 C 0.80244 0.5046 0.07652 0.0
C697 C 0.80534 0.48348 0.15122 0.0
C698 C 0.83493 0.41847 0.15288 0.0
H699 H 0.87085 0.33212 0.29913 0.0
H700 H 0.87059 0.37694 0.25028 0.0
H701 H 0.85468 0.3846 0.17212 0.0
H702 H 0.80668 0.47447 0.02181 0.0
H703 H 0.81195 0.43255 0.07023 0.0
H704 H 0.76945 0.42378 0.2068 0.0
C705 C 0.84579 0.35439 0.25991 0.0
C706 C 0.83622 0.39322 0.18023 0.0
C707 C 0.84596 0.3289 0.28801 0.0
C708 C 0.80634 0.47745 0.05787 0.0
C709 C 0.80961 0.45354 0.0856 0.0
C710 C 0.78844 0.41574 0.19914 0.0
C711 C 0.81388 0.35123 0.24547 0.0
C712 C 0.81337 0.37874 0.21702 0.0
C713 C 0.8089 0.45615 0.13257 0.0
C714 C 0.81095 0.42993 0.162 0.0
H715 H 0.75756 0.2741 0.29712 0.0
H716 H 0.75723 0.31834 0.24794 0.0
H717 H 0.77191 0.38001 0.25468 0.0
H718 H 0.79942 0.52814 0.13909 0.0
H719 H 0.80513 0.48643 0.18731 0.0
C720 C 0.31995 0.80727 0.39478 0.0
C721 C 0.2906 0.80333 0.41853 0.0
C722 C 0.34909 0.81029 0.41784 0.0
C723 C 0.37255 0.78691 0.52567 0.0
H724 H 0.46854 0.85383 0.49232 0.0
C725 C 0.51932 0.84344 0.6047 0.0
C726 C 0.51709 0.81153 0.61678 0.0
C727 C 0.49318 0.84368 0.57804 0.0
C728 C 0.44185 0.83513 0.50207 0.0
H729 H 0.26928 0.80031 0.48522 0.0
H730 H 0.3199 0.80557 0.52507 0.0
H731 H 0.41984 0.85267 0.45071 0.0
H732 H 0.48629 0.75496 0.61015 0.0
H733 H 0.44098 0.75537 0.56353 0.0
H734 H 0.39425 0.76948 0.57713 0.0
C735 C 0.32027 0.80595 0.48868 0.0
C736 C 0.41404 0.83426 0.47806 0.0
C737 C 0.29129 0.80309 0.46575 0.0
C738 C 0.48873 0.77997 0.60122 0.0
C739 C 0.46264 0.78018 0.57481 0.0
C740 C 0.40024 0.78762 0.54939 0.0
C741 C 0.34932 0.80921 0.46503 0.0
C742 C 0.3791 0.81021 0.48978 0.0
C743 C 0.46431 0.81198 0.56339 0.0
C744 C 0.43518 0.81169 0.53788 0.0
H745 H 0.3203 0.80761 0.3584 0.0
H746 H 0.37104 0.81254 0.39873 0.0
H747 H 0.34592 0.76782 0.5352 0.0
H748 H 0.54099 0.86813 0.61627 0.0
H749 H 0.49503 0.86857 0.56997 0.0
C750 C 0.70041 0.48762 0.94515 0.0
C751 C 0.69928 0.51776 0.95753 0.0
C752 C 0.67312 0.46123 0.92027 0.0
C753 C 0.60201 0.40085 0.89311 0.0
H754 H 0.56339 0.4242 0.79014 0.0
C755 C 0.48162 0.29587 0.79638 0.0
C756 C 0.48439 0.29746 0.74929 0.0
C757 C 0.50626 0.32349 0.82268 0.0
C758 C 0.57398 0.4173 0.81877 0.0
H759 H 0.66911 0.54429 0.9535 0.0
H760 H 0.62117 0.498 0.9099 0.0
H761 H 0.61027 0.47114 0.83398 0.0
H762 H 0.51485 0.3297 0.69291 0.0
H763 H 0.55784 0.37773 0.73885 0.0
H764 H 0.56628 0.34705 0.87746 0.0
C765 C 0.64326 0.49489 0.91924 0.0
C766 C 0.60057 0.44415 0.84407 0.0
C767 C 0.67055 0.52125 0.94434 0.0
C768 C 0.51194 0.32757 0.72909 0.0
C769 C 0.53647 0.35523 0.75539 0.0
C770 C 0.57533 0.37403 0.86797 0.0
C771 C 0.64418 0.46451 0.9072 0.0
C772 C 0.61508 0.43618 0.88125 0.0
C773 C 0.53408 0.35335 0.80246 0.0
C774 C 0.56122 0.38196 0.83032 0.0
H775 H 0.72225 0.48425 0.955 0.0
H776 H 0.67479 0.43835 0.91097 0.0
H777 H 0.61242 0.39392 0.9219 0.0
H778 H 0.46072 0.27312 0.81306 0.0
H779 H 0.50353 0.32148 0.85889 0.0
loop_
_geom_bond_atom_site_label_1
_geom_bond_atom_site_label_2
_geom_bond_distance
_geom_bond_site_symmetry_2
_ccdc_geom_bond_type
C0 Eu1 2.835 . S
C0 C2 1.500 . S
C0 O20 1.257 . S
C0 O21 1.260 . S
Eu1 C0 2.835 . S
Eu1 O20 2.473 . S
Eu1 O21 2.480 . S
Eu1 O22 2.430 . S
Eu1 O23 2.670 1_554 S
Eu1 O24 2.394 . S
Eu1 O29 2.355 . S
Eu1 O31 2.374 1_554 S
C2 C0 1.500 . S
C2 C3 1.377 . S
C2 C7 1.377 . S
C3 C2 1.377 . S
C3 C4 1.395 . S
C3 H32 0.931 . S
C4 C3 1.395 . S
C4 C5 1.383 . S
C4 H33 0.931 . S
C5 C4 1.383 . S
C5 C6 1.394 . S
C6 C5 1.394 . S
C6 C7 1.378 . S
C6 H34 0.931 . S
C7 C2 1.377 . S
C7 C6 1.378 . S
C7 H35 0.931 . S
C8 O22 1.259 1_556 S
C8 O23 1.270 . S
C9 O24 1.251 . S
C9 O25 1.251 . S
C10 Eu11 2.835 . S
C10 C12 1.500 . S
C10 O26 1.257 . S
C10 O27 1.260 . S
Eu11 C10 2.835 . S
Eu11 O23 2.355 . S
Eu11 O25 2.374 1_556 S
Eu11 O26 2.473 . S
Eu11 O27 2.480 . S
Eu11 O28 2.430 . S
Eu11 O29 2.670 1_556 S
Eu11 O30 2.394 . S
C12 C10 1.500 . S
C12 C13 1.377 . S
C12 C17 1.377 . S
C13 C12 1.377 . S
C13 C14 1.395 . S
C13 H36 0.931 . S
C14 C13 1.395 . S
C14 C15 1.383 . S
C14 H37 0.931 . S
C15 C14 1.383 . S
C15 C16 1.394 . S
C16 C15 1.394 . S
C16 C17 1.378 . S
C16 H38 0.931 . S
C17 C12 1.377 . S
C17 C16 1.378 . S
C17 H39 0.931 . S
C18 O28 1.259 1_554 S
C18 O29 1.270 . S
C19 O30 1.251 . S
C19 O31 1.251 . S
O20 C0 1.257 . S
O20 Eu1 2.473 . S
O21 C0 1.260 . S
O21 Eu1 2.480 . S
O22 Eu1 2.430 . S
O22 C8 1.259 1_554 S
O23 Eu1 2.670 1_556 S
O23 C8 1.270 . S
O23 Eu11 2.355 . S
O24 Eu1 2.394 . S
O24 C9 1.251 . S
O25 C9 1.251 . S
O25 Eu11 2.374 1_554 S
O26 C10 1.257 . S
O26 Eu11 2.473 . S
O27 C10 1.260 . S
O27 Eu11 2.480 . S
O28 Eu11 2.430 . S
O28 C18 1.259 1_556 S
O29 Eu1 2.355 . S
O29 Eu11 2.670 1_554 S
O29 C18 1.270 . S
O30 Eu11 2.394 . S
O30 C19 1.251 . S
O31 Eu1 2.374 1_556 S
O31 C19 1.251 . S
H32 C3 0.931 . S
H33 C4 0.931 . S
H34 C6 0.931 . S
H35 C7 0.931 . S
H36 C13 0.931 . S
H37 C14 0.931 . S
H38 C16 0.931 . S
H39 C17 0.931 . S
C40 Eu41 2.835 . S
C40 C42 1.500 . S
C40 O60 1.257 . S
C40 O61 1.260 . S
Eu41 C40 2.835 . S
Eu41 O60 2.473 . S
Eu41 O61 2.480 . S
Eu41 O62 2.430 . S
Eu41 O63 2.670 . S
Eu41 O64 2.394 . S
Eu41 O69 2.355 . S
Eu41 O71 2.374 . S
C42 C40 1.500 . S
C42 C43 1.377 . S
C42 C47 1.377 . S
C43 C42 1.377 . S
C43 C44 1.395 . S
C43 H72 0.931 . S
C44 C43 1.395 . S
C44 C45 1.383 . S
C44 H73 0.931 . S
C45 C44 1.383 . S
C45 C46 1.394 . S
C46 C45 1.394 . S
C46 C47 1.378 . S
C46 H74 0.931 . S
C47 C42 1.377 . S
C47 C46 1.378 . S
C47 H75 0.931 . S
C48 O62 1.259 . S
C48 O63 1.270 . S
C49 O64 1.251 . S
C49 O65 1.251 . S
C50 Eu51 2.835 . S
C50 C52 1.500 . S
C50 O66 1.257 . S
C50 O67 1.260 . S
Eu51 C50 2.835 . S
Eu51 O63 2.355 . S
Eu51 O65 2.374 . S
Eu51 O66 2.473 . S
Eu51 O67 2.480 . S
Eu51 O68 2.430 . S
Eu51 O69 2.670 . S
Eu51 O70 2.394 . S
C52 C50 1.500 . S
C52 C53 1.377 . S
C52 C57 1.377 . S
C53 C52 1.377 . S
C53 C54 1.395 . S
C53 H76 0.931 . S
C54 C53 1.395 . S
C54 C55 1.383 . S
C54 H77 0.931 . S
C55 C54 1.383 . S
C55 C56 1.394 . S
C56 C55 1.394 . S
C56 C57 1.378 . S
C56 H78 0.931 . S
C57 C52 1.377 . S
C57 C56 1.378 . S
C57 H79 0.931 . S
C58 O68 1.259 . S
C58 O69 1.270 . S
C59 O70 1.251 . S
C59 O71 1.251 . S
O60 C40 1.257 . S
O60 Eu41 2.473 . S
O61 C40 1.260 . S
O61 Eu41 2.480 . S
O62 Eu41 2.430 . S
O62 C48 1.259 . S
O63 Eu41 2.670 . S
O63 C48 1.270 . S
O63 Eu51 2.355 . S
O64 Eu41 2.394 . S
O64 C49 1.251 . S
O65 C49 1.251 . S
O65 Eu51 2.374 . S
O66 C50 1.257 . S
O66 Eu51 2.473 . S
O67 C50 1.260 . S
O67 Eu51 2.480 . S
O68 Eu51 2.430 . S
O68 C58 1.259 . S
O69 Eu41 2.355 . S
O69 Eu51 2.670 . S
O69 C58 1.270 . S
O70 Eu51 2.394 . S
O70 C59 1.251 . S
O71 Eu41 2.374 . S
O71 C59 1.251 . S
H72 C43 0.931 . S
H73 C44 0.931 . S
H74 C46 0.931 . S
H75 C47 0.931 . S
H76 C53 0.931 . S
H77 C54 0.931 . S
H78 C56 0.931 . S
H79 C57 0.931 . S
C80 Eu81 2.835 . S
C80 C82 1.500 . S
C80 O100 1.257 . S
C80 O101 1.260 . S
Eu81 C80 2.835 . S
Eu81 O100 2.473 . S
Eu81 O101 2.480 . S
Eu81 O102 2.430 . S
Eu81 O103 2.670 . S
Eu81 O104 2.394 . S
Eu81 O109 2.355 . S
Eu81 O111 2.374 . S
C82 C80 1.500 . S
C82 C83 1.377 . S
C82 C87 1.377 . S
C83 C82 1.377 . S
C83 C84 1.395 . S
C83 H112 0.931 . S
C84 C83 1.395 . S
C84 C85 1.383 . S
C84 H113 0.931 . S
C85 C84 1.383 . S
C85 C86 1.394 . S
C86 C85 1.394 . S
C86 C87 1.378 . S
C86 H114 0.931 . S
C87 C82 1.377 . S
C87 C86 1.378 . S
C87 H115 0.931 . S
C88 O102 1.259 . S
C88 O103 1.270 . S
C89 O104 1.251 . S
C89 O105 1.251 . S
C90 Eu91 2.835 . S
C90 C92 1.500 . S
C90 O106 1.257 . S
C90 O107 1.260 . S
Eu91 C90 2.835 . S
Eu91 O103 2.355 . S
Eu91 O105 2.374 . S
Eu91 O106 2.473 . S
Eu91 O107 2.480 . S
Eu91 O108 2.430 . S
Eu91 O109 2.670 . S
Eu91 O110 2.394 . S
C92 C90 1.500 . S
C92 C93 1.377 . S
C92 C97 1.377 . S
C93 C92 1.377 . S
C93 C94 1.395 . S
C93 H116 0.931 . S
C94 C93 1.395 . S
C94 C95 1.383 . S
C94 H117 0.931 . S
C95 C94 1.383 . S
C95 C96 1.394 . S
C96 C95 1.394 . S
C96 C97 1.378 . S
C96 H118 0.931 . S
C97 C92 1.377 . S
C97 C96 1.378 . S
C97 H119 0.931 . S
C98 O108 1.259 . S
C98 O109 1.270 . S
C99 O110 1.251 . S
C99 O111 1.251 . S
O100 C80 1.257 . S
O100 Eu81 2.473 . S
O101 C80 1.260 . S
O101 Eu81 2.480 . S
O102 Eu81 2.430 . S
O102 C88 1.259 . S
O103 Eu81 2.670 . S
O103 C88 1.270 . S
O103 Eu91 2.355 . S
O104 Eu81 2.394 . S
O104 C89 1.251 . S
O105 C89 1.251 . S
O105 Eu91 2.374 . S
O106 C90 1.257 . S
O106 Eu91 2.473 . S
O107 C90 1.260 . S
O107 Eu91 2.480 . S
O108 Eu91 2.430 . S
O108 C98 1.259 . S
O109 Eu81 2.355 . S
O109 Eu91 2.670 . S
O109 C98 1.270 . S
O110 Eu91 2.394 . S
O110 C99 1.251 . S
O111 Eu81 2.374 . S
O111 C99 1.251 . S
H112 C83 0.931 . S
H113 C84 0.931 . S
H114 C86 0.931 . S
H115 C87 0.931 . S
H116 C93 0.931 . S
H117 C94 0.931 . S
H118 C96 0.931 . S
H119 C97 0.931 . S
C120 Eu121 2.835 . S
C120 C122 1.500 . S
C120 O140 1.257 . S
C120 O141 1.260 . S
Eu121 C120 2.835 . S
Eu121 O140 2.473 . S
Eu121 O141 2.480 . S
Eu121 O142 2.430 . S
Eu121 O143 2.670 1_554 S
Eu121 O144 2.394 . S
Eu121 O149 2.355 . S
Eu121 O151 2.374 1_554 S
C122 C120 1.500 . S
C122 C123 1.377 . S
C122 C127 1.377 . S
C123 C122 1.377 . S
C123 C124 1.395 . S
C123 H152 0.931 . S
C124 C123 1.395 . S
C124 C125 1.383 . S
C124 H153 0.931 . S
C125 C124 1.383 . S
C125 C126 1.394 . S
C126 C125 1.394 . S
C126 C127 1.378 . S
C126 H154 0.931 . S
C127 C122 1.377 . S
C127 C126 1.378 . S
C127 H155 0.931 . S
C128 O142 1.259 1_556 S
C128 O143 1.270 . S
C129 O144 1.251 . S
C129 O145 1.251 . S
C130 Eu131 2.835 . S
C130 C132 1.500 . S
C130 O146 1.257 . S
C130 O147 1.260 . S
Eu131 C130 2.835 . S
Eu131 O143 2.355 . S
Eu131 O145 2.374 1_556 S
Eu131 O146 2.473 . S
Eu131 O147 2.480 . S
Eu131 O148 2.430 . S
Eu131 O149 2.670 1_556 S
Eu131 O150 2.394 . S
C132 C130 1.500 . S
C132 C133 1.377 . S
C132 C137 1.377 . S
C133 C132 1.377 . S
C133 C134 1.395 . S
C133 H156 0.931 . S
C134 C133 1.395 . S
C134 C135 1.383 . S
C134 H157 0.931 . S
C135 C134 1.383 . S
C135 C136 1.394 . S
C136 C135 1.394 . S
C136 C137 1.378 . S
C136 H158 0.931 . S
C137 C132 1.377 . S
C137 C136 1.378 . S
C137 H159 0.931 . S
C138 O148 1.259 1_554 S
C138 O149 1.270 . S
C139 O150 1.251 . S
C139 O151 1.251 . S
O140 C120 1.257 . S
O140 Eu121 2.473 . S
O141 C120 1.260 . S
O141 Eu121 2.480 . S
O142 Eu121 2.430 . S
O142 C128 1.259 1_554 S
O143 Eu121 2.670 1_556 S
O143 C128 1.270 . S
O143 Eu131 2.355 . S
O144 Eu121 2.394 . S
O144 C129 1.251 . S
O145 C129 1.251 . S
O145 Eu131 2.374 1_554 S
O146 C130 1.257 . S
O146 Eu131 2.473 . S
O147 C130 1.260 . S
O147 Eu131 2.480 . S
O148 Eu131 2.430 . S
O148 C138 1.259 1_556 S
O149 Eu121 2.355 . S
O149 Eu131 2.670 1_554 S
O149 C138 1.270 . S
O150 Eu131 2.394 . S
O150 C139 1.251 . S
O151 Eu121 2.374 1_556 S
O151 C139 1.251 . S
H152 C123 0.931 . S
H153 C124 0.931 . S
H154 C126 0.931 . S
H155 C127 0.931 . S
H156 C133 0.931 . S
H157 C134 0.931 . S
H158 C136 0.931 . S
H159 C137 0.931 . S
C160 Eu161 2.835 . S
C160 C162 1.500 . S
C160 O180 1.257 . S
C160 O181 1.260 . S
Eu161 C160 2.835 . S
Eu161 O180 2.473 . S
Eu161 O181 2.480 . S
Eu161 O182 2.430 . S
Eu161 O183 2.670 . S
Eu161 O184 2.394 . S
Eu161 O189 2.355 . S
Eu161 O191 2.374 . S
C162 C160 1.500 . S
C162 C163 1.377 . S
C162 C167 1.377 . S
C163 C162 1.377 . S
C163 C164 1.395 . S
C163 H192 0.931 . S
C164 C163 1.395 . S
C164 C165 1.383 . S
C164 H193 0.931 . S
C165 C164 1.383 . S
C165 C166 1.394 . S
C166 C165 1.394 . S
C166 C167 1.378 . S
C166 H194 0.931 . S
C167 C162 1.377 . S
C167 C166 1.378 . S
C167 H195 0.931 . S
C168 O182 1.259 . S
C168 O183 1.270 . S
C169 O184 1.251 . S
C169 O185 1.251 . S
C170 Eu171 2.835 . S
C170 C172 1.500 . S
C170 O186 1.257 . S
C170 O187 1.260 . S
Eu171 C170 2.835 . S
Eu171 O183 2.355 . S
Eu171 O185 2.374 . S
Eu171 O186 2.473 . S
Eu171 O187 2.480 . S
Eu171 O188 2.430 . S
Eu171 O189 2.670 . S
Eu171 O190 2.394 . S
C172 C170 1.500 . S
C172 C173 1.377 . S
C172 C177 1.377 . S
C173 C172 1.377 . S
C173 C174 1.395 . S
C173 H196 0.931 . S
C174 C173 1.395 . S
C174 C175 1.383 . S
C174 H197 0.931 . S
C175 C174 1.383 . S
C175 C176 1.394 . S
C176 C175 1.394 . S
C176 C177 1.378 . S
C176 H198 0.931 . S
C177 C172 1.377 . S
C177 C176 1.378 . S
C177 H199 0.931 . S
C178 O188 1.259 . S
C178 O189 1.270 . S
C179 O190 1.251 . S
C179 O191 1.251 . S
O180 C160 1.257 . S
O180 Eu161 2.473 . S
O181 C160 1.260 . S
O181 Eu161 2.480 . S
O182 Eu161 2.430 . S
O182 C168 1.259 . S
O183 Eu161 2.670 . S
O183 C168 1.270 . S
O183 Eu171 2.355 . S
O184 Eu161 2.394 . S
O184 C169 1.251 . S
O185 C169 1.251 . S
O185 Eu171 2.374 . S
O186 C170 1.257 . S
O186 Eu171 2.473 . S
O187 C170 1.260 . S
O187 Eu171 2.480 . S
O188 Eu171 2.430 . S
O188 C178 1.259 . S
O189 Eu161 2.355 . S
O189 Eu171 2.670 . S
O189 C178 1.270 . S
O190 Eu171 2.394 . S
O190 C179 1.251 . S
O191 Eu161 2.374 . S
O191 C179 1.251 . S
H192 C163 0.931 . S
H193 C164 0.931 . S
H194 C166 0.931 . S
H195 C167 0.931 . S
H196 C173 0.931 . S
H197 C174 0.931 . S
H198 C176 0.931 . S
H199 C177 0.931 . S
C200 Eu201 2.835 . S
C200 C202 1.500 . S
C200 O220 1.257 . S
C200 O221 1.260 . S
Eu201 C200 2.835 . S
Eu201 O220 2.473 . S
Eu201 O221 2.480 . S
Eu201 O222 2.430 . S
Eu201 O223 2.670 . S
Eu201 O224 2.394 . S
Eu201 O229 2.355 . S
Eu201 O231 2.374 . S
C202 C200 1.500 . S
C202 C203 1.377 . S
C202 C207 1.377 . S
C203 C202 1.377 . S
C203 C204 1.395 . S
C203 H232 0.931 . S
C204 C203 1.395 . S
C204 C205 1.383 . S
C204 H233 0.931 . S
C205 C204 1.383 . S
C205 C206 1.394 . S
C206 C205 1.394 . S
C206 C207 1.378 . S
C206 H234 0.931 . S
C207 C202 1.377 . S
C207 C206 1.378 . S
C207 H235 0.931 . S
C208 O222 1.259 . S
C208 O223 1.270 . S
C209 O224 1.251 . S
C209 O225 1.251 . S
C210 Eu211 2.835 . S
C210 C212 1.500 . S
C210 O226 1.257 . S
C210 O227 1.260 . S
Eu211 C210 2.835 . S
Eu211 O223 2.355 . S
Eu211 O225 2.374 . S
Eu211 O226 2.473 . S
Eu211 O227 2.480 . S
Eu211 O228 2.430 . S
Eu211 O229 2.670 . S
Eu211 O230 2.394 . S
C212 C210 1.500 . S
C212 C213 1.377 . S
C212 C217 1.377 . S
C213 C212 1.377 . S
C213 C214 1.395 . S
C213 H236 0.931 . S
C214 C213 1.395 . S
C214 C215 1.383 . S
C214 H237 0.931 . S
C215 C214 1.383 . S
C215 C216 1.394 . S
C216 C215 1.394 . S
C216 C217 1.378 . S
C216 H238 0.931 . S
C217 C212 1.377 . S
C217 C216 1.378 . S
C217 H239 0.931 . S
C218 O228 1.259 . S
C218 O229 1.270 . S
C219 O230 1.251 . S
C219 O231 1.251 . S
O220 C200 1.257 . S
O220 Eu201 2.473 . S
O221 C200 1.260 . S
O221 Eu201 2.480 . S
O222 Eu201 2.430 . S
O222 C208 1.259 . S
O223 Eu201 2.670 . S
O223 C208 1.270 . S
O223 Eu211 2.355 . S
O224 Eu201 2.394 . S
O224 C209 1.251 . S
O225 C209 1.251 . S
O225 Eu211 2.374 . S
O226 C210 1.257 . S
O226 Eu211 2.473 . S
O227 C210 1.260 . S
O227 Eu211 2.480 . S
O228 Eu211 2.430 . S
O228 C218 1.259 . S
O229 Eu201 2.355 . S
O229 Eu211 2.670 . S
O229 C218 1.270 . S
O230 Eu211 2.394 . S
O230 C219 1.251 . S
O231 Eu201 2.374 . S
O231 C219 1.251 . S
H232 C203 0.931 . S
H233 C204 0.931 . S
H234 C206 0.931 . S
H235 C207 0.931 . S
H236 C213 0.931 . S
H237 C214 0.931 . S
H238 C216 0.931 . S
H239 C217 0.931 . S
C240 C241 1.349 . S
C240 C242 1.327 . S
C240 H265 0.950 . S
C241 C240 1.349 . S
C241 C257 1.349 . S
C242 C240 1.327 . S
C242 C261 1.429 . S
C242 H266 0.950 . S
C243 C260 1.574 . S
C243 C262 1.368 . S
C243 H267 0.949 . S
H244 C248 0.949 . S
C245 C246 1.349 . S
C245 C247 1.327 . S
C245 H268 0.950 . S
C246 C245 1.349 . S
C246 C258 1.349 . S
C247 C245 1.327 . S
C247 C263 1.429 . S
C247 H269 0.950 . S
C248 H244 0.949 . S
C248 C256 1.574 . S
C248 C264 1.368 . S
H249 C257 0.950 . S
H250 C255 0.950 . S
H251 C256 0.949 . S
H252 C258 0.950 . S
H253 C259 0.950 . S
H254 C260 0.949 . S
C255 H250 0.950 . S
C255 C257 1.327 . S
C255 C261 1.429 . S
C256 C248 1.574 . S
C256 H251 0.949 . S
C256 C262 1.368 . S
C257 C241 1.349 . S
C257 H249 0.950 . S
C257 C255 1.327 . S
C258 C246 1.349 . S
C258 H252 0.950 . S
C258 C259 1.327 . S
C259 H253 0.950 . S
C259 C258 1.327 . S
C259 C263 1.429 . S
C260 C243 1.574 . S
C260 H254 0.949 . S
C260 C264 1.368 . S
C261 C242 1.429 . S
C261 C255 1.429 . S
C261 C262 1.523 . S
C262 C243 1.368 . S
C262 C256 1.368 . S
C262 C261 1.523 . S
C263 C247 1.429 . S
C263 C259 1.429 . S
C263 C264 1.523 . S
C264 C248 1.368 . S
C264 C260 1.368 . S
C264 C263 1.523 . S
H265 C240 0.950 . S
H266 C242 0.950 . S
H267 C243 0.949 . S
H268 C245 0.950 . S
H269 C247 0.950 . S
C270 C271 1.349 . S
C270 C272 1.327 . S
C270 H295 0.950 1_554 S
C271 C270 1.349 . S
C271 C287 1.349 . S
C272 C270 1.327 . S
C272 C291 1.429 . S
C272 H296 0.950 . S
C273 C290 1.597 . S
C273 C292 1.368 . S
C273 H297 0.949 . S
H274 C278 0.949 . S
C275 C276 1.349 . S
C275 C277 1.327 . S
C275 H298 0.950 . S
C276 C275 1.349 . S
C276 C288 1.349 . S
C277 C275 1.327 . S
C277 C293 1.429 . S
C277 H299 0.950 . S
C278 H274 0.949 . S
C278 C286 1.574 . S
C278 C294 1.368 . S
H279 C287 0.950 . S
H280 C285 0.950 . S
H281 C286 0.949 . S
H282 C288 0.950 . S
H283 C289 0.950 . S
H284 C290 0.954 . S
C285 H280 0.950 . S
C285 C287 1.327 . S
C285 C291 1.429 . S
C286 C278 1.574 . S
C286 H281 0.949 . S
C286 C292 1.368 1_655 S
C287 C271 1.349 . S
C287 H279 0.950 . S
C287 C285 1.327 . S
C288 C276 1.349 . S
C288 H282 0.950 . S
C288 C289 1.327 . S
C289 H283 0.950 . S
C289 C288 1.327 . S
C289 C293 1.429 . S
C290 C273 1.597 . S
C290 H284 0.954 . S
C290 C294 1.340 1_455 S
C291 C272 1.429 . S
C291 C285 1.429 . S
C291 C292 1.523 . S
C292 C273 1.368 . S
C292 C286 1.368 1_455 S
C292 C291 1.523 . S
C293 C277 1.429 . S
C293 C289 1.429 . S
C293 C294 1.523 . S
C294 C278 1.368 . S
C294 C290 1.340 1_655 S
C294 C293 1.523 . S
H295 C270 0.950 1_556 S
H296 C272 0.950 . S
H297 C273 0.949 . S
H298 C275 0.950 . S
H299 C277 0.950 . S
C300 C301 1.349 . S
C300 C302 1.327 . S
C300 H325 0.950 . S
C301 C300 1.349 . S
C301 C317 1.349 . S
C302 C300 1.327 . S
C302 C321 1.429 . S
C302 H326 0.950 . S
C303 C320 1.574 1_545 S
C303 C322 1.368 . S
C303 H327 0.949 . S
H304 C308 0.949 . S
C305 C306 1.349 . S
C305 C307 1.327 . S
C305 H328 0.950 . S
C306 C305 1.349 . S
C306 C318 1.349 . S
C307 C305 1.327 . S
C307 C323 1.429 . S
C307 H329 0.950 . S
C308 H304 0.949 . S
C308 C316 1.574 1_565 S
C308 C324 1.368 . S
H309 C317 0.950 . S
H310 C315 0.950 . S
H311 C316 0.949 . S
H312 C318 0.950 . S
H313 C319 0.950 . S
H314 C320 0.949 . S
C315 H310 0.950 . S
C315 C317 1.327 . S
C315 C321 1.429 . S
C316 C308 1.574 1_545 S
C316 H311 0.949 . S
C316 C322 1.368 . S
C317 C301 1.349 . S
C317 H309 0.950 . S
C317 C315 1.327 . S
C318 C306 1.349 . S
C318 H312 0.950 . S
C318 C319 1.327 . S
C319 H313 0.950 . S
C319 C318 1.327 . S
C319 C323 1.429 . S
C320 C303 1.574 1_565 S
C320 H314 0.949 . S
C320 C324 1.368 . S
C321 C302 1.429 . S
C321 C315 1.429 . S
C321 C322 1.523 . S
C322 C303 1.368 . S
C322 C316 1.368 . S
C322 C321 1.523 . S
C323 C307 1.429 . S
C323 C319 1.429 . S
C323 C324 1.523 . S
C324 C308 1.368 . S
C324 C320 1.368 . S
C324 C323 1.523 . S
H325 C300 0.950 . S
H326 C302 0.950 . S
H327 C303 0.949 . S
H328 C305 0.950 . S
H329 C307 0.950 . S
C330 C331 1.349 . S
C330 C332 1.327 . S
C330 H355 0.950 . S
C331 C330 1.349 . S
C331 C347 1.349 . S
C332 C330 1.327 . S
C332 C351 1.429 . S
C332 H356 0.950 . S
C333 C350 1.574 . S
C333 C352 1.368 . S
C333 H357 0.949 . S
H334 C338 0.949 . S
C335 C336 1.349 . S
C335 C337 1.327 . S
C335 H358 0.950 . S
C336 C335 1.349 . S
C336 C348 1.349 . S
C337 C335 1.327 . S
C337 C353 1.429 . S
C337 H359 0.950 . S
C338 H334 0.949 . S
C338 C346 1.574 . S
C338 C354 1.368 . S
H339 C347 0.950 . S
H340 C345 0.950 . S
H341 C346 0.949 . S
H342 C348 0.950 . S
H343 C349 0.950 . S
H344 C350 0.949 . S
C345 H340 0.950 . S
C345 C347 1.327 . S
C345 C351 1.429 . S
C346 C338 1.574 . S
C346 H341 0.949 . S
C346 C352 1.368 . S
C347 C331 1.349 . S
C347 H339 0.950 . S
C347 C345 1.327 . S
C348 C336 1.349 . S
C348 H342 0.950 . S
C348 C349 1.327 . S
C349 H343 0.950 . S
C349 C348 1.327 . S
C349 C353 1.429 . S
C350 C333 1.574 . S
C350 H344 0.949 . S
C350 C354 1.368 . S
C351 C332 1.429 . S
C351 C345 1.429 . S
C351 C352 1.523 . S
C352 C333 1.368 . S
C352 C346 1.368 . S
C352 C351 1.523 . S
C353 C337 1.429 . S
C353 C349 1.429 . S
C353 C354 1.523 . S
C354 C338 1.368 . S
C354 C350 1.368 . S
C354 C353 1.523 . S
H355 C330 0.950 . S
H356 C332 0.950 . S
H357 C333 0.949 . S
H358 C335 0.950 . S
H359 C337 0.950 . S
C360 C361 1.349 . S
C360 C362 1.327 . S
C360 H385 0.950 . S
C361 C360 1.349 . S
C361 C377 1.349 . S
C362 C360 1.327 . S
C362 C381 1.429 . S
C362 H386 0.950 . S
C363 C380 1.574 . S
C363 C382 1.368 . S
C363 H387 0.949 . S
H364 C368 0.949 . S
C365 C366 1.349 . S
C365 C367 1.327 . S
C365 H388 0.950 1_554 S
C366 C365 1.349 . S
C366 C378 1.349 . S
C367 C365 1.327 . S
C367 C383 1.429 . S
C367 H389 0.950 . S
C368 H364 0.949 . S
C368 C376 1.586 . S
C368 C384 1.368 . S
H369 C377 0.950 . S
H370 C375 0.950 . S
H371 C376 0.951 . S
H372 C378 0.950 . S
H373 C379 0.950 . S
H374 C380 0.949 . S
C375 H370 0.950 . S
C375 C377 1.327 . S
C375 C381 1.429 . S
C376 C368 1.586 . S
C376 H371 0.951 . S
C376 C382 1.359 1_655 S
C377 C361 1.349 . S
C377 H369 0.950 . S
C377 C375 1.327 . S
C378 C366 1.349 . S
C378 H372 0.950 . S
C378 C379 1.327 . S
C379 H373 0.950 . S
C379 C378 1.327 . S
C379 C383 1.429 . S
C380 C363 1.574 . S
C380 H374 0.949 . S
C380 C384 1.368 1_455 S
C381 C362 1.429 . S
C381 C375 1.429 . S
C381 C382 1.523 . S
C382 C363 1.368 . S
C382 C376 1.359 1_455 S
C382 C381 1.523 . S
C383 C367 1.429 . S
C383 C379 1.429 . S
C383 C384 1.523 . S
C384 C368 1.368 . S
C384 C380 1.368 1_655 S
C384 C383 1.523 . S
H385 C360 0.950 . S
H386 C362 0.950 . S
H387 C363 0.949 . S
H388 C365 0.950 1_556 S
H389 C367 0.950 . S
C390 C391 1.349 . S
C390 C392 1.327 . S
C390 H415 0.950 . S
C391 C390 1.349 . S
C391 C407 1.349 . S
C392 C390 1.327 . S
C392 C411 1.429 . S
C392 H416 0.950 . S
C393 C410 1.574 1_545 S
C393 C412 1.368 . S
C393 H417 0.949 . S
H394 C398 0.950 . S
C395 C396 1.349 . S
C395 C397 1.327 . S
C395 H418 0.950 . S
C396 C395 1.349 . S
C396 C408 1.349 . S
C397 C395 1.327 . S
C397 C413 1.429 . S
C397 H419 0.950 . S
C398 H394 0.950 . S
C398 C406 1.571 1_565 S
C398 C414 1.370 . S
H399 C407 0.950 . S
H400 C405 0.950 . S
H401 C406 0.949 . S
H402 C408 0.950 . S
H403 C409 0.950 . S
H404 C410 0.949 . S
C405 H400 0.950 . S
C405 C407 1.327 . S
C405 C411 1.429 . S
C406 C398 1.571 1_545 S
C406 H401 0.949 . S
C406 C412 1.368 . S
C407 C391 1.349 . S
C407 H399 0.950 . S
C407 C405 1.327 . S
C408 C396 1.349 . S
C408 H402 0.950 . S
C408 C409 1.327 . S
C409 H403 0.950 . S
C409 C408 1.327 . S
C409 C413 1.429 . S
C410 C393 1.574 1_565 S
C410 H404 0.949 . S
C410 C414 1.368 . S
C411 C392 1.429 . S
C411 C405 1.429 . S
C411 C412 1.523 . S
C412 C393 1.368 . S
C412 C406 1.368 . S
C412 C411 1.523 . S
C413 C397 1.429 . S
C413 C409 1.429 . S
C413 C414 1.523 . S
C414 C398 1.370 . S
C414 C410 1.368 . S
C414 C413 1.523 . S
H415 C390 0.950 . S
H416 C392 0.950 . S
H417 C393 0.949 . S
H418 C395 0.950 . S
H419 C397 0.950 . S
C420 C421 1.349 . S
C420 C422 1.327 . S
C420 H445 0.950 . S
C421 C420 1.349 . S
C421 C437 1.349 . S
C422 C420 1.327 . S
C422 C441 1.429 . S
C422 H446 0.950 . S
C423 C440 1.574 . S
C423 C442 1.368 . S
C423 H447 0.949 . S
H424 C428 0.949 . S
C425 C426 1.349 . S
C425 C427 1.327 . S
C425 H448 0.950 . S
C426 C425 1.349 . S
C426 C438 1.349 . S
C427 C425 1.327 . S
C427 C443 1.429 . S
C427 H449 0.950 . S
C428 H424 0.949 . S
C428 C436 1.574 . S
C428 C444 1.368 . S
H429 C437 0.950 . S
H430 C435 0.950 . S
H431 C436 0.949 . S
H432 C438 0.950 . S
H433 C439 0.950 . S
H434 C440 0.949 . S
C435 H430 0.950 . S
C435 C437 1.327 . S
C435 C441 1.429 . S
C436 C428 1.574 . S
C436 H431 0.949 . S
C436 C442 1.368 . S
C437 C421 1.349 . S
C437 H429 0.950 . S
C437 C435 1.327 . S
C438 C426 1.349 . S
C438 H432 0.950 . S
C438 C439 1.327 . S
C439 H433 0.950 . S
C439 C438 1.327 . S
C439 C443 1.429 . S
C440 C423 1.574 . S
C440 H434 0.949 . S
C440 C444 1.368 . S
C441 C422 1.429 . S
C441 C435 1.429 . S
C441 C442 1.523 . S
C442 C423 1.368 . S
C442 C436 1.368 . S
C442 C441 1.523 . S
C443 C427 1.429 . S
C443 C439 1.429 . S
C443 C444 1.523 . S
C444 C428 1.368 . S
C444 C440 1.368 . S
C444 C443 1.523 . S
H445 C420 0.950 . S
H446 C422 0.950 . S
H447 C423 0.949 . S
H448 C425 0.950 . S
H449 C427 0.950 . S
C450 C451 1.349 1_556 S
C450 C452 1.327 . S
C450 H475 0.950 . S
C451 C450 1.349 1_554 S
C451 C467 1.349 1_554 S
C452 C450 1.327 . S
C452 C471 1.429 . S
C452 H476 0.950 . S
C453 C470 1.574 . S
C453 C472 1.368 . S
C453 H477 0.949 . S
H454 C458 0.949 . S
C455 C456 1.349 . S
C455 C457 1.327 . S
C455 H478 0.950 . S
C456 C455 1.349 . S
C456 C468 1.349 . S
C457 C455 1.327 . S
C457 C473 1.429 . S
C457 H479 0.950 . S
C458 H454 0.949 . S
C458 C466 1.574 . S
C458 C474 1.368 . S
H459 C467 0.950 1_554 S
H460 C465 0.950 . S
H461 C466 0.949 . S
H462 C468 0.950 . S
H463 C469 0.950 . S
H464 C470 0.949 . S
C465 H460 0.950 . S
C465 C467 1.327 . S
C465 C471 1.429 . S
C466 C458 1.574 . S
C466 H461 0.949 . S
C466 C472 1.368 . S
C467 C451 1.349 1_556 S
C467 H459 0.950 1_556 S
C467 C465 1.327 . S
C468 C456 1.349 . S
C468 H462 0.950 . S
C468 C469 1.327 . S
C469 H463 0.950 . S
C469 C468 1.327 . S
C469 C473 1.429 . S
C470 C453 1.574 . S
C470 H464 0.949 . S
C470 C474 1.368 . S
C471 C452 1.429 . S
C471 C465 1.429 . S
C471 C472 1.523 . S
C472 C453 1.368 . S
C472 C466 1.368 . S
C472 C471 1.523 . S
C473 C457 1.429 . S
C473 C469 1.429 . S
C473 C474 1.523 . S
C474 C458 1.368 . S
C474 C470 1.368 . S
C474 C473 1.523 . S
H475 C450 0.950 . S
H476 C452 0.950 . S
H477 C453 0.949 . S
H478 C455 0.950 . S
H479 C457 0.950 . S
C480 C481 1.349 . S
C480 C482 1.327 . S
C480 H505 0.950 . S
C481 C480 1.349 . S
C481 C497 1.349 . S
C482 C480 1.327 . S
C482 C501 1.429 . S
C482 H506 0.950 . S
C483 C500 1.574 . S
C483 C502 1.368 . S
C483 H507 0.949 . S
H484 C488 0.949 . S
C485 C486 1.349 1_554 S
C485 C487 1.327 . S
C485 H508 0.950 1_554 S
C486 C485 1.349 1_556 S
C486 C498 1.349 1_556 S
C487 C485 1.327 . S
C487 C503 1.429 . S
C487 H509 0.950 . S
C488 H484 0.949 . S
C488 C496 1.574 . S
C488 C504 1.368 . S
H489 C497 0.950 . S
H490 C495 0.950 . S
H491 C496 0.949 . S
H492 C498 0.950 . S
H493 C499 0.950 . S
H494 C500 0.949 . S
C495 H490 0.950 . S
C495 C497 1.327 . S
C495 C501 1.429 . S
C496 C488 1.574 . S
C496 H491 0.949 . S
C496 C502 1.368 . S
C497 C481 1.349 . S
C497 H489 0.950 . S
C497 C495 1.327 . S
C498 C486 1.349 1_554 S
C498 H492 0.950 . S
C498 C499 1.327 . S
C499 H493 0.950 . S
C499 C498 1.327 . S
C499 C503 1.429 . S
C500 C483 1.574 . S
C500 H494 0.949 . S
C500 C504 1.368 . S
C501 C482 1.429 . S
C501 C495 1.429 . S
C501 C502 1.523 . S
C502 C483 1.368 . S
C502 C496 1.368 . S
C502 C501 1.523 . S
C503 C487 1.429 . S
C503 C499 1.429 . S
C503 C504 1.523 . S
C504 C488 1.368 . S
C504 C500 1.368 . S
C504 C503 1.523 . S
H505 C480 0.950 . S
H506 C482 0.950 . S
H507 C483 0.949 . S
H508 C485 0.950 1_556 S
H509 C487 0.950 . S
C510 C511 1.349 . S
C510 C512 1.327 . S
C510 H535 0.950 . S
C511 C510 1.349 . S
C511 C527 1.349 . S
C512 C510 1.327 . S
C512 C531 1.429 . S
C512 H536 0.950 . S
C513 C530 1.574 . S
C513 C532 1.368 . S
C513 H537 0.949 . S
H514 C518 0.949 . S
C515 C516 1.349 . S
C515 C517 1.327 . S
C515 H538 0.950 . S
C516 C515 1.349 . S
C516 C528 1.349 . S
C517 C515 1.327 . S
C517 C533 1.429 . S
C517 H539 0.950 . S
C518 H514 0.949 . S
C518 C526 1.574 . S
C518 C534 1.368 . S
H519 C527 0.950 . S
H520 C525 0.950 . S
H521 C526 0.949 . S
H522 C528 0.950 . S
H523 C529 0.950 . S
H524 C530 0.949 . S
C525 H520 0.950 . S
C525 C527 1.327 . S
C525 C531 1.429 . S
C526 C518 1.574 . S
C526 H521 0.949 . S
C526 C532 1.368 . S
C527 C511 1.349 . S
C527 H519 0.950 . S
C527 C525 1.327 . S
C528 C516 1.349 . S
C528 H522 0.950 . S
C528 C529 1.327 . S
C529 H523 0.950 . S
C529 C528 1.327 . S
C529 C533 1.429 . S
C530 C513 1.574 . S
C530 H524 0.949 . S
C530 C534 1.368 . S
C531 C512 1.429 . S
C531 C525 1.429 . S
C531 C532 1.523 . S
C532 C513 1.368 . S
C532 C526 1.368 . S
C532 C531 1.523 . S
C533 C517 1.429 . S
C533 C529 1.429 . S
C533 C534 1.523 . S
C534 C518 1.368 . S
C534 C530 1.368 . S
C534 C533 1.523 . S
H535 C510 0.950 . S
H536 C512 0.950 . S
H537 C513 0.949 . S
H538 C515 0.950 . S
H539 C517 0.950 . S
C540 C541 1.349 . S
C540 C542 1.327 . S
C540 H565 0.950 . S
C541 C540 1.349 . S
C541 C557 1.349 . S
C542 C540 1.327 . S
C542 C561 1.429 . S
C542 H566 0.950 . S
C543 C560 1.574 . S
C543 C562 1.368 . S
C543 H567 0.949 . S
H544 C548 0.949 . S
C545 C546 1.356 . S
C545 C547 1.302 1_554 S
C545 H568 0.969 . S
C546 C545 1.356 . S
C546 C558 1.349 1_554 S
C547 C545 1.302 1_556 S
C547 C563 1.429 . S
C547 H569 0.950 . S
C548 H544 0.949 . S
C548 C556 1.574 . S
C548 C564 1.368 . S
H549 C557 0.950 . S
H550 C555 0.950 . S
H551 C556 0.949 . S
H552 C558 0.950 . S
H553 C559 0.950 . S
H554 C560 0.949 . S
C555 H550 0.950 . S
C555 C557 1.327 . S
C555 C561 1.429 . S
C556 C548 1.574 . S
C556 H551 0.949 . S
C556 C562 1.368 . S
C557 C541 1.349 . S
C557 H549 0.950 . S
C557 C555 1.327 . S
C558 C546 1.349 1_556 S
C558 H552 0.950 . S
C558 C559 1.327 . S
C559 H553 0.950 . S
C559 C558 1.327 . S
C559 C563 1.429 . S
C560 C543 1.574 . S
C560 H554 0.949 . S
C560 C564 1.368 . S
C561 C542 1.429 . S
C561 C555 1.429 . S
C561 C562 1.523 . S
C562 C543 1.368 . S
C562 C556 1.368 . S
C562 C561 1.523 . S
C563 C547 1.429 . S
C563 C559 1.429 . S
C563 C564 1.523 . S
C564 C548 1.368 . S
C564 C560 1.368 . S
C564 C563 1.523 . S
H565 C540 0.950 . S
H566 C542 0.950 . S
H567 C543 0.949 . S
H568 C545 0.969 . S
H569 C547 0.950 . S
C570 C571 1.349 . S
C570 C572 1.327 . S
C570 H595 0.950 . S
C571 C570 1.349 . S
C571 C587 1.349 . S
C572 C570 1.327 . S
C572 C591 1.429 . S
C572 H596 0.950 . S
C573 C590 1.574 . S
C573 C592 1.368 . S
C573 H597 0.949 . S
H574 C578 0.949 . S
C575 C576 1.349 1_554 S
C575 C577 1.327 . S
C575 H598 0.950 . S
C576 C575 1.349 1_556 S
C576 C588 1.349 1_556 S
C577 C575 1.327 . S
C577 C593 1.429 . S
C577 H599 0.950 . S
C578 H574 0.949 . S
C578 C586 1.574 . S
C578 C594 1.368 . S
H579 C587 0.950 . S
H580 C585 0.950 . S
H581 C586 0.949 . S
H582 C588 0.950 1_556 S
H583 C589 0.950 . S
H584 C590 0.949 . S
C585 H580 0.950 . S
C585 C587 1.327 . S
C585 C591 1.429 . S
C586 C578 1.574 . S
C586 H581 0.949 . S
C586 C592 1.368 . S
C587 C571 1.349 . S
C587 H579 0.950 . S
C587 C585 1.327 . S
C588 C576 1.349 1_554 S
C588 H582 0.950 1_554 S
C588 C589 1.327 . S
C589 H583 0.950 . S
C589 C588 1.327 . S
C589 C593 1.429 . S
C590 C573 1.574 . S
C590 H584 0.949 . S
C590 C594 1.368 . S
C591 C572 1.429 . S
C591 C585 1.429 . S
C591 C592 1.523 . S
C592 C573 1.368 . S
C592 C586 1.368 . S
C592 C591 1.523 . S
C593 C577 1.429 . S
C593 C589 1.429 . S
C593 C594 1.523 . S
C594 C578 1.368 . S
C594 C590 1.368 . S
C594 C593 1.523 . S
H595 C570 0.950 . S
H596 C572 0.950 . S
H597 C573 0.949 . S
H598 C575 0.950 . S
H599 C577 0.950 . S
C600 C601 1.349 . S
C600 C602 1.327 . S
C600 H625 0.950 . S
C601 C600 1.349 . S
C601 C617 1.349 . S
C602 C600 1.327 . S
C602 C621 1.429 . S
C602 H626 0.950 . S
C603 C620 1.574 . S
C603 C622 1.368 . S
C603 H627 0.949 . S
H604 C608 0.949 . S
C605 C606 1.349 . S
C605 C607 1.327 . S
C605 H628 0.950 . S
C606 C605 1.349 . S
C606 C618 1.349 . S
C607 C605 1.327 . S
C607 C623 1.429 . S
C607 H629 0.950 . S
C608 H604 0.949 . S
C608 C616 1.574 . S
C608 C624 1.368 . S
H609 C617 0.950 . S
H610 C615 0.950 . S
H611 C616 0.949 . S
H612 C618 0.950 . S
H613 C619 0.950 . S
H614 C620 0.949 . S
C615 H610 0.950 . S
C615 C617 1.327 . S
C615 C621 1.429 . S
C616 C608 1.574 . S
C616 H611 0.949 . S
C616 C622 1.368 . S
C617 C601 1.349 . S
C617 H609 0.950 . S
C617 C615 1.327 . S
C618 C606 1.349 . S
C618 H612 0.950 . S
C618 C619 1.327 . S
C619 H613 0.950 . S
C619 C618 1.327 . S
C619 C623 1.429 . S
C620 C603 1.574 . S
C620 H614 0.949 . S
C620 C624 1.368 . S
C621 C602 1.429 . S
C621 C615 1.429 . S
C621 C622 1.523 . S
C622 C603 1.368 . S
C622 C616 1.368 . S
C622 C621 1.523 . S
C623 C607 1.429 . S
C623 C619 1.429 . S
C623 C624 1.523 . S
C624 C608 1.368 . S
C624 C620 1.368 . S
C624 C623 1.523 . S
H625 C600 0.950 . S
H626 C602 0.950 . S
H627 C603 0.949 . S
H628 C605 0.950 . S
H629 C607 0.950 . S
C630 C631 1.349 . S
C630 C632 1.327 . S
C630 H655 0.950 . S
C631 C630 1.349 . S
C631 C647 1.349 . S
C632 C630 1.327 . S
C632 C651 1.429 . S
C632 H656 0.950 . S
C633 C650 1.574 . S
C633 C652 1.368 . S
C633 H657 0.949 . S
H634 C638 0.949 . S
C635 C636 1.349 . S
C635 C637 1.327 . S
C635 H658 0.950 . S
C636 C635 1.349 . S
C636 C648 1.349 . S
C637 C635 1.327 . S
C637 C653 1.429 . S
C637 H659 0.950 . S
C638 H634 0.949 . S
C638 C646 1.574 . S
C638 C654 1.368 . S
H639 C647 0.950 . S
H640 C645 0.950 . S
H641 C646 0.949 . S
H642 C648 0.950 . S
H643 C649 0.950 . S
H644 C650 0.949 . S
C645 H640 0.950 . S
C645 C647 1.327 . S
C645 C651 1.429 . S
C646 C638 1.574 . S
C646 H641 0.949 . S
C646 C652 1.368 . S
C647 C631 1.349 . S
C647 H639 0.950 . S
C647 C645 1.327 . S
C648 C636 1.349 . S
C648 H642 0.950 . S
C648 C649 1.327 . S
C649 H643 0.950 . S
C649 C648 1.327 . S
C649 C653 1.429 . S
C650 C633 1.574 . S
C650 H644 0.949 . S
C650 C654 1.368 . S
C651 C632 1.429 . S
C651 C645 1.429 . S
C651 C652 1.523 . S
C652 C633 1.368 . S
C652 C646 1.368 . S
C652 C651 1.523 . S
C653 C637 1.429 . S
C653 C649 1.429 . S
C653 C654 1.523 . S
C654 C638 1.368 . S
C654 C650 1.368 . S
C654 C653 1.523 . S
H655 C630 0.950 . S
H656 C632 0.950 . S
H657 C633 0.949 . S
H658 C635 0.950 . S
H659 C637 0.950 . S
C660 C661 1.349 . S
C660 C662 1.327 . S
C660 H685 0.950 . S
C661 C660 1.349 . S
C661 C677 1.349 . S
C662 C660 1.327 . S
C662 C681 1.429 . S
C662 H686 0.950 . S
C663 C680 1.574 . S
C663 C682 1.368 . S
C663 H687 0.949 . S
H664 C668 0.949 . S
C665 C666 1.349 . S
C665 C667 1.327 . S
C665 H688 0.950 . S
C666 C665 1.349 . S
C666 C678 1.349 . S
C667 C665 1.327 . S
C667 C683 1.429 . S
C667 H689 0.950 . S
C668 H664 0.949 . S
C668 C676 1.574 . S
C668 C684 1.368 . S
H669 C677 0.950 . S
H670 C675 0.950 . S
H671 C676 0.949 . S
H672 C678 0.950 . S
H673 C679 0.950 . S
H674 C680 0.949 . S
C675 H670 0.950 . S
C675 C677 1.327 . S
C675 C681 1.429 . S
C676 C668 1.574 . S
C676 H671 0.949 . S
C676 C682 1.368 . S
C677 C661 1.349 . S
C677 H669 0.950 . S
C677 C675 1.327 . S
C678 C666 1.349 . S
C678 H672 0.950 . S
C678 C679 1.327 . S
C679 H673 0.950 . S
C679 C678 1.327 . S
C679 C683 1.429 . S
C680 C663 1.574 . S
C680 H674 0.949 . S
C680 C684 1.368 . S
C681 C662 1.429 . S
C681 C675 1.429 . S
C681 C682 1.523 . S
C682 C663 1.368 . S
C682 C676 1.368 . S
C682 C681 1.523 . S
C683 C667 1.429 . S
C683 C679 1.429 . S
C683 C684 1.523 . S
C684 C668 1.368 . S
C684 C680 1.368 . S
C684 C683 1.523 . S
H685 C660 0.950 . S
H686 C662 0.950 . S
H687 C663 0.949 . S
H688 C665 0.950 . S
H689 C667 0.950 . S
C690 C691 1.349 . S
C690 C692 1.327 . S
C690 H715 0.950 . S
C691 C690 1.349 . S
C691 C707 1.349 . S
C692 C690 1.327 . S
C692 C711 1.429 . S
C692 H716 0.950 . S
C693 C710 1.574 . S
C693 C712 1.368 . S
C693 H717 0.949 . S
H694 C698 0.949 . S
C695 C696 1.349 . S
C695 C697 1.327 . S
C695 H718 0.950 . S
C696 C695 1.349 . S
C696 C708 1.349 . S
C697 C695 1.327 . S
C697 C713 1.429 . S
C697 H719 0.950 . S
C698 H694 0.949 . S
C698 C706 1.574 . S
C698 C714 1.368 . S
H699 C707 0.950 . S
H700 C705 0.950 . S
H701 C706 0.949 . S
H702 C708 0.950 . S
H703 C709 0.950 . S
H704 C710 0.949 . S
C705 H700 0.950 . S
C705 C707 1.327 . S
C705 C711 1.429 . S
C706 C698 1.574 . S
C706 H701 0.949 . S
C706 C712 1.368 . S
C707 C691 1.349 . S
C707 H699 0.950 . S
C707 C705 1.327 . S
C708 C696 1.349 . S
C708 H702 0.950 . S
C708 C709 1.327 . S
C709 H703 0.950 . S
C709 C708 1.327 . S
C709 C713 1.429 . S
C710 C693 1.574 . S
C710 H704 0.949 . S
C710 C714 1.368 . S
C711 C692 1.429 . S
C711 C705 1.429 . S
C711 C712 1.523 . S
C712 C693 1.368 . S
C712 C706 1.368 . S
C712 C711 1.523 . S
C713 C697 1.429 . S
C713 C709 1.429 . S
C713 C714 1.523 . S
C714 C698 1.368 . S
C714 C710 1.368 . S
C714 C713 1.523 . S
H715 C690 0.950 . S
H716 C692 0.950 . S
H717 C693 0.949 . S
H718 C695 0.950 . S
H719 C697 0.950 . S
C720 C721 1.349 . S
C720 C722 1.327 . S
C720 H745 0.950 . S
C721 C720 1.349 . S
C721 C737 1.349 . S
C722 C720 1.327 . S
C722 C741 1.429 . S
C722 H746 0.950 . S
C723 C740 1.574 . S
C723 C742 1.368 . S
C723 H747 0.949 . S
H724 C728 0.949 . S
C725 C726 1.349 . S
C725 C727 1.327 . S
C725 H748 0.950 . S
C726 C725 1.349 . S
C726 C738 1.349 . S
C727 C725 1.327 . S
C727 C743 1.429 . S
C727 H749 0.950 . S
C728 H724 0.949 . S
C728 C736 1.574 . S
C728 C744 1.368 . S
H729 C737 0.950 . S
H730 C735 0.950 . S
H731 C736 0.949 . S
H732 C738 0.950 . S
H733 C739 0.950 . S
H734 C740 0.949 . S
C735 H730 0.950 . S
C735 C737 1.327 . S
C735 C741 1.429 . S
C736 C728 1.574 . S
C736 H731 0.949 . S
C736 C742 1.368 . S
C737 C721 1.349 . S
C737 H729 0.950 . S
C737 C735 1.327 . S
C738 C726 1.349 . S
C738 H732 0.950 . S
C738 C739 1.327 . S
C739 H733 0.950 . S
C739 C738 1.327 . S
C739 C743 1.429 . S
C740 C723 1.574 . S
C740 H734 0.949 . S
C740 C744 1.368 . S
C741 C722 1.429 . S
C741 C735 1.429 . S
C741 C742 1.523 . S
C742 C723 1.368 . S
C742 C736 1.368 . S
C742 C741 1.523 . S
C743 C727 1.429 . S
C743 C739 1.429 . S
C743 C744 1.523 . S
C744 C728 1.368 . S
C744 C740 1.368 . S
C744 C743 1.523 . S
H745 C720 0.950 . S
H746 C722 0.950 . S
H747 C723 0.949 . S
H748 C725 0.950 . S
H749 C727 0.950 . S
C750 C751 1.349 . S
C750 C752 1.327 . S
C750 H775 0.950 . S
C751 C750 1.349 . S
C751 C767 1.349 . S
C752 C750 1.327 . S
C752 C771 1.429 . S
C752 H776 0.950 . S
C753 C770 1.574 . S
C753 C772 1.368 . S
C753 H777 0.949 . S
H754 C758 0.949 . S
C755 C756 1.349 . S
C755 C757 1.327 . S
C755 H778 0.950 . S
C756 C755 1.349 . S
C756 C768 1.349 . S
C757 C755 1.327 . S
C757 C773 1.429 . S
C757 H779 0.950 . S
C758 H754 0.949 . S
C758 C766 1.574 . S
C758 C774 1.368 . S
H759 C767 0.950 . S
H760 C765 0.950 . S
H761 C766 0.949 . S
H762 C768 0.950 . S
H763 C769 0.950 . S
H764 C770 0.949 . S
C765 H760 0.950 . S
C765 C767 1.327 . S
C765 C771 1.429 . S
C766 C758 1.574 . S
C766 H761 0.949 . S
C766 C772 1.368 . S
C767 C751 1.349 . S
C767 H759 0.950 . S
C767 C765 1.327 . S
C768 C756 1.349 . S
C768 H762 0.950 . S
C768 C769 1.327 . S
C769 H763 0.950 . S
C769 C768 1.327 . S
C769 C773 1.429 . S
C770 C753 1.574 . S
C770 H764 0.949 . S
C770 C774 1.368 . S
C771 C752 1.429 . S
C771 C765 1.429 . S
C771 C772 1.523 . S
C772 C753 1.368 . S
C772 C766 1.368 . S
C772 C771 1.523 . S
C773 C757 1.429 . S
C773 C769 1.429 . S
C773 C774 1.523 . S
C774 C758 1.368 . S
C774 C770 1.368 . S
C774 C773 1.523 . S
H775 C750 0.950 . S
H776 C752 0.950 . S
H777 C753 0.949 . S
H778 C755 0.950 . S
H779 C757 0.950 . S
C241 C218 1.217 . S
C246 C19 1.277 . S
C271 C18 1.217 . S
C276 C59 1.277 . S
C301 C58 1.217 . S
C306 C99 1.278 . S
C331 C98 1.217 . S
C336 C139 1.277 . S
C361 C179 1.277 . S
C366 C138 1.217 . S
C391 C219 1.278 . S
C396 C178 1.217 . S
C421 C15 1.183 . S
C426 C5 1.183 . S
C451 C55 1.183 . S
C456 C45 1.183 . S
C481 C95 1.183 . S
C486 C85 1.183 . S
C511 C135 1.183 . S
C516 C125 1.183 . S
C541 C165 1.183 . S
C546 C175 1.183 . S
C571 C215 1.183 . S
C576 C205 1.183 . S
C601 C9 1.680 . S
C606 C168 1.690 . S
C631 C49 1.680 . S
C636 C208 1.690 . S
C661 C8 1.690 . S
C666 C89 1.680 . S
C691 C48 1.690 . S
C696 C129 1.680 . S
C721 C169 1.680 . S
C726 C88 1.690 . S
C751 C128 1.690 . S
C756 C209 1.680 . S
