# Generated by pormake.
# Topology wjg, (4)-cn, num edge types: 1
# Building blocks:
#     Node 0, Type 0, BuildingBlock: TATPOV_clean_sbu_0, # of connection points: 4
#     Node 1, Type 0, BuildingBlock: TATPOV_clean_sbu_0, # of connection points: 4
#     Node 2, Type 0, BuildingBlock: TATPOV_clean_sbu_0, # of connection points: 4
#     Node 3, Type 0, BuildingBlock: TATPOV_clean_sbu_0, # of connection points: 4
#     Node 4, Type 0, BuildingBlock: TATPOV_clean_sbu_0, # of connection points: 4
#     Node 5, Type 0, BuildingBlock: TATPOV_clean_sbu_0, # of connection points: 4
#     Node 6, Type 0, BuildingBlock: TATPOV_clean_sbu_0, # of connection points: 4
#     Node 7, Type 0, BuildingBlock: TATPOV_clean_sbu_0, # of connection points: 4
#     Node 8, Type 0, BuildingBlock: TATPOV_clean_sbu_0, # of connection points: 4
#     Node 9, Type 0, BuildingBlock: TATPOV_clean_sbu_0, # of connection points: 4
#     Node 10, Type 0, BuildingBlock: TATPOV_clean_sbu_0, # of connection points: 4
#     Node 11, Type 0, BuildingBlock: TATPOV_clean_sbu_0, # of connection points: 4
#     Edge 12, Type (0, 0), BuildingBlock: AJUNOK_clean_linker_0, # of connection points: 2
#     Edge 13, Type (0, 0), BuildingBlock: AJUNOK_clean_linker_0, # of connection points: 2
#     Edge 14, Type (0, 0), BuildingBlock: AJUNOK_clean_linker_0, # of connection points: 2
#     Edge 15, Type (0, 0), BuildingBlock: AJUNOK_clean_linker_0, # of connection points: 2
#     Edge 16, Type (0, 0), BuildingBlock: AJUNOK_clean_linker_0, # of connection points: 2
#     Edge 17, Type (0, 0), BuildingBlock: AJUNOK_clean_linker_0, # of connection points: 2
#     Edge 18, Type (0, 0), BuildingBlock: AJUNOK_clean_linker_0, # of connection points: 2
#     Edge 19, Type (0, 0), BuildingBlock: AJUNOK_clean_linker_0, # of connection points: 2
#     Edge 20, Type (0, 0), BuildingBlock: AJUNOK_clean_linker_0, # of connection points: 2
#     Edge 21, Type (0, 0), BuildingBlock: AJUNOK_clean_linker_0, # of connection points: 2
#     Edge 22, Type (0, 0), BuildingBlock: AJUNOK_clean_linker_0, # of connection points: 2
#     Edge 23, Type (0, 0), BuildingBlock: AJUNOK_clean_linker_0, # of connection points: 2
#     Edge 24, Type (0, 0), BuildingBlock: AJUNOK_clean_linker_0, # of connection points: 2
#     Edge 25, Type (0, 0), BuildingBlock: AJUNOK_clean_linker_0, # of connection points: 2
#     Edge 26, Type (0, 0), BuildingBlock: AJUNOK_clean_linker_0, # of connection points: 2
#     Edge 27, Type (0, 0), BuildingBlock: AJUNOK_clean_linker_0, # of connection points: 2
#     Edge 28, Type (0, 0), BuildingBlock: AJUNOK_clean_linker_0, # of connection points: 2
#     Edge 29, Type (0, 0), BuildingBlock: AJUNOK_clean_linker_0, # of connection points: 2
#     Edge 30, Type (0, 0), BuildingBlock: AJUNOK_clean_linker_0, # of connection points: 2
#     Edge 31, Type (0, 0), BuildingBlock: AJUNOK_clean_linker_0, # of connection points: 2
#     Edge 32, Type (0, 0), BuildingBlock: AJUNOK_clean_linker_0, # of connection points: 2
#     Edge 33, Type (0, 0), BuildingBlock: AJUNOK_clean_linker_0, # of connection points: 2
#     Edge 34, Type (0, 0), BuildingBlock: AJUNOK_clean_linker_0, # of connection points: 2
#     Edge 35, Type (0, 0), BuildingBlock: AJUNOK_clean_linker_0, # of connection points: 2
# Relax obj value: 0.279
# Max RMSD: 0.118
# Mean RMSD: 0.115
data_MOF--net-wjg--node1-TATPOV_clean_sbu_0--edge1-AJUNOK_clean_linker_0
_symmetry_space_group_name_H-M    P1
_symmetry_Int_Tables_number       1
_symmetry_cell_setting            triclinic
loop_
_symmetry_equiv_pos_as_xyz
'x, y, z'
_cell_length_a     26.424195
_cell_length_b     26.381344
_cell_length_c     26.235032
_cell_angle_alpha  90.028801
_cell_angle_beta   89.854369
_cell_angle_gamma 120.00155
loop_
_atom_site_label
_atom_site_type_symbol
_atom_site_fract_x
_atom_site_fract_y
_atom_site_fract_z
_atom_type_partial_charge
Zn0 Zn 0.11514 0.25497 0.42244 0.0
Zn1 Zn 0.06722 0.30519 0.3066 0.0
O2 O 0.15071 0.36983 0.33 0.0
O3 O 0.17904 0.33869 0.39862 0.0
O4 O 0.03972 0.32295 0.23934 0.0
O5 O 0.05759 0.20684 0.36624 0.0
O6 O 0.07308 0.23262 0.28795 0.0
C7 C 0.18818 0.37767 0.36498 0.0
C8 C 0.02452 0.28018 0.40579 0.0
O9 O 0.01267 0.29897 0.36571 0.0
O10 O 0.03254 0.23696 0.3993 0.0
C11 C 0.99263 0.32463 0.23418 0.0
O12 O 0.96294 0.32247 0.27515 0.0
C13 C 0.08478 0.21017 0.32537 0.0
Zn14 Zn 0.84552 0.1812 0.69917 0.0
Zn15 Zn 0.72824 0.11323 0.60369 0.0
O16 O 0.71773 0.1799 0.63627 0.0
O17 O 0.79064 0.21661 0.69398 0.0
O18 O 0.67492 0.06467 0.54403 0.0
O19 O 0.84477 0.13415 0.63634 0.0
O20 O 0.81095 0.15913 0.57265 0.0
C21 C 0.74678 0.21582 0.67251 0.0
C22 C 0.7522 0.06993 0.69469 0.0
O23 O 0.71105 0.05571 0.66324 0.0
O24 O 0.80318 0.09559 0.6757 0.0
C25 C 0.63359 0.01181 0.54929 0.0
O26 O 0.61803 0.99067 0.5956 0.0
C27 C 0.85518 0.16544 0.59682 0.0
Zn28 Zn 0.67362 0.86479 0.07836 0.0
Zn29 Zn 0.62748 0.76218 0.96493 0.0
O30 O 0.55304 0.7645 0.99211 0.0
O31 O 0.58555 0.82666 0.05911 0.0
O32 O 0.62211 0.71291 0.90148 0.0
O33 O 0.72217 0.86143 0.01885 0.0
O34 O 0.68407 0.84751 0.94423 0.0
C35 C 0.54444 0.7916 0.02934 0.0
C36 C 0.6669 0.75727 0.06269 0.0
O37 O 0.64964 0.72537 0.02346 0.0
O38 O 0.70408 0.81075 0.05469 0.0
C39 C 0.61075 0.66004 0.90582 0.0
O40 O 0.59226 0.63397 0.95013 0.0
C41 C 0.71229 0.88306 0.97964 0.0
Zn42 Zn 0.87584 0.65334 0.43519 0.0
Zn43 Zn 0.8776 0.62061 0.33981 0.0
O44 O 0.80235 0.5453 0.34286 0.0
O45 O 0.80421 0.56714 0.42463 0.0
O46 O 0.91886 0.63956 0.27012 0.0
O47 O 0.85304 0.71313 0.42785 0.0
O48 O 0.84452 0.67765 0.3506 0.0
C49 C 0.77957 0.53207 0.38736 0.0
C50 C 0.95422 0.63123 0.42744 0.0
O51 O 0.92145 0.59861 0.39226 0.0
O52 O 0.9631 0.68263 0.42757 0.0
C53 C 0.95727 0.62658 0.25618 0.0
O54 O 0.97001 0.59539 0.28705 0.0
C55 C 0.83588 0.70943 0.38248 0.0
Zn56 Zn 0.29102 0.80604 0.73866 0.0
Zn57 Zn 0.27027 0.89608 0.64823 0.0
O58 O 0.28177 0.83161 0.61716 0.0
O59 O 0.34359 0.83836 0.67448 0.0
O60 O 0.28374 0.95323 0.58983 0.0
O61 O 0.20732 0.79607 0.73626 0.0
O62 O 0.18821 0.84936 0.68111 0.0
C63 C 0.31446 0.81346 0.63478 0.0
C64 C 0.34528 0.92384 0.73456 0.0
O65 O 0.32184 0.94585 0.70722 0.0
O66 O 0.35467 0.88633 0.71313 0.0
C67 C 0.3355 0.97455 0.57209 0.0
O68 O 0.36927 0.95667 0.59238 0.0
C69 C 0.17229 0.81112 0.71707 0.0
Zn70 Zn 0.38438 0.19278 0.9288 0.0
Zn71 Zn 0.36373 0.26444 0.93727 0.0
O72 O 0.45193 0.29358 0.91788 0.0
O73 O 0.45192 0.2198 0.88053 0.0
O74 O 0.33112 0.30494 0.89248 0.0
O75 O 0.30824 0.11852 0.91699 0.0
O76 O 0.29624 0.18104 0.96212 0.0
C77 C 0.48008 0.27228 0.89556 0.0
C78 C 0.40205 0.26387 0.02982 0.0
O79 O 0.38366 0.29424 0.00686 0.0
O80 O 0.40504 0.22302 0.00603 0.0
C81 C 0.36501 0.35496 0.87294 0.0
O82 O 0.42072 0.38136 0.88469 0.0
C83 C 0.27909 0.12806 0.94995 0.0
Zn84 Zn 0.50722 0.63683 0.3045 0.0
Zn85 Zn 0.51528 0.71646 0.35057 0.0
O86 O 0.43128 0.64101 0.36393 0.0
O87 O 0.45209 0.57174 0.34825 0.0
O88 O 0.52101 0.78494 0.39331 0.0
O89 O 0.59219 0.6658 0.30721 0.0
O90 O 0.59 0.71504 0.37358 0.0
C91 C 0.4164 0.58666 0.36428 0.0
C92 C 0.51216 0.70935 0.23491 0.0
O93 O 0.53222 0.74135 0.27461 0.0
O94 O 0.47857 0.65498 0.24072 0.0
C95 C 0.56415 0.83675 0.38759 0.0
O96 O 0.60213 0.84613 0.35122 0.0
C97 C 0.61795 0.69835 0.3448 0.0
Zn98 Zn 0.87814 0.53467 0.74339 0.0
Zn99 Zn 0.81219 0.56361 0.71479 0.0
O100 O 0.7722 0.47115 0.71916 0.0
O101 O 0.82876 0.45216 0.76649 0.0
O102 O 0.75231 0.58832 0.73736 0.0
O103 O 0.9352 0.59814 0.7891 0.0
O104 O 0.89369 0.63284 0.73915 0.0
C105 C 0.78243 0.43388 0.7409 0.0
C106 C 0.87531 0.5631 0.63077 0.0
O107 O 0.83285 0.57176 0.64076 0.0
O108 O 0.89904 0.54888 0.6659 0.0
C109 C 0.71874 0.56129 0.77496 0.0
O110 O 0.72099 0.51661 0.79445 0.0
C111 C 0.93621 0.64168 0.76793 0.0
Zn112 Zn 0.31231 0.89474 0.05673 0.0
Zn113 Zn 0.22527 0.8125 0.03464 0.0
O114 O 0.29524 0.79551 0.04457 0.0
O115 O 0.36165 0.86687 0.09076 0.0
O116 O 0.15318 0.74639 0.07082 0.0
O117 O 0.29337 0.95339 0.08743 0.0
O118 O 0.21927 0.88827 0.04369 0.0
C119 C 0.34413 0.8187 0.06796 0.0
C120 C 0.27523 0.85884 0.94428 0.0
O121 O 0.22676 0.81524 0.95883 0.0
O122 O 0.31286 0.89266 0.97676 0.0
C123 C 0.10933 0.75169 0.08324 0.0
O124 O 0.10674 0.7971 0.06605 0.0
C125 C 0.24582 0.93852 0.06464 0.0
Zn126 Zn 0.44137 0.3506 0.34413 0.0
Zn127 Zn 0.42295 0.2485 0.35275 0.0
O128 O 0.50807 0.30902 0.37711 0.0
O129 O 0.51115 0.39294 0.3886 0.0
O130 O 0.39912 0.17019 0.38823 0.0
O131 O 0.36439 0.34226 0.3605 0.0
O132 O 0.34657 0.25162 0.36278 0.0
C133 C 0.53558 0.36238 0.39148 0.0
C134 C 0.44192 0.29012 0.24817 0.0
O135 O 0.4286 0.245 0.27546 0.0
O136 O 0.45166 0.33741 0.26934 0.0
C137 C 0.4302 0.16453 0.42232 0.0
O138 O 0.48265 0.20868 0.4316 0.0
C139 C 0.32838 0.28814 0.36398 0.0
Zn140 Zn 0.15089 0.50309 0.53405 0.0
Zn141 Zn 0.20029 0.44521 0.63413 0.0
O142 O 0.22413 0.53105 0.64597 0.0
O143 O 0.23534 0.55481 0.56453 0.0
O144 O 0.22859 0.41677 0.69452 0.0
O145 O 0.08114 0.42926 0.56602 0.0
O146 O 0.11193 0.394 0.62844 0.0
C147 C 0.24298 0.5698 0.61119 0.0
C148 C 0.21599 0.4465 0.53068 0.0
O149 O 0.23208 0.4289 0.56889 0.0
O150 O 0.22587 0.49866 0.5334 0.0
C151 C 0.28005 0.44803 0.71215 0.0
O152 O 0.31433 0.49914 0.69092 0.0
C153 C 0.07114 0.39102 0.60017 0.0
Zn154 Zn 0.65472 0.15132 0.97877 0.0
Zn155 Zn 0.75577 0.21564 0.98358 0.0
O156 O 0.70972 0.26018 0.96606 0.0
O157 O 0.62028 0.20164 0.99233 0.0
O158 O 0.82296 0.26703 0.03187 0.0
O159 O 0.63319 0.07997 0.01955 0.0
O160 O 0.72791 0.13016 0.00772 0.0
C161 C 0.65803 0.25052 0.97445 0.0
C162 C 0.73427 0.16831 0.88737 0.0
O163 O 0.77835 0.20387 0.91391 0.0
O164 O 0.6828 0.14632 0.90566 0.0
C165 C 0.86281 0.25529 0.04339 0.0
O166 O 0.86481 0.21294 0.01877 0.0
C167 C 0.68212 0.0823 0.01957 0.0
C168 C 0.29237 0.43505 0.39252 0.0
C169 C 0.24437 0.43398 0.36822 0.0
C170 C 0.34687 0.4863 0.39475 0.0
C171 C 0.35569 0.53912 0.37367 0.0
H172 H 0.2886 0.39537 0.40833 0.0
H173 H 0.3832 0.48395 0.41127 0.0
S174 S 0.24314 0.56181 0.31054 0.0
N175 N 0.2082 0.4917 0.32605 0.0
N176 N 0.31099 0.58837 0.33061 0.0
C177 C 0.30744 0.53975 0.35187 0.0
C178 C 0.2518 0.4871 0.34889 0.0
C179 C 0.7408 0.2756 0.74279 0.0
C180 C 0.73314 0.261 0.6906 0.0
C181 C 0.74945 0.32959 0.76014 0.0
C182 C 0.75056 0.37116 0.72603 0.0
H183 H 0.74538 0.24726 0.76996 0.0
H184 H 0.76049 0.34086 0.79988 0.0
S185 S 0.72281 0.35045 0.58677 0.0
N186 N 0.71937 0.28915 0.60597 0.0
N187 N 0.73513 0.39075 0.63847 0.0
C188 C 0.73605 0.35437 0.67464 0.0
C189 C 0.72746 0.29918 0.6569 0.0
C190 C 0.47452 0.79891 0.08888 0.0
C191 C 0.48579 0.78468 0.03981 0.0
C192 C 0.426 0.8055 0.09869 0.0
C193 C 0.38572 0.79694 0.06022 0.0
H194 H 0.50514 0.80804 0.1197 0.0
H195 H 0.42149 0.8201 0.13617 0.0
S196 S 0.39085 0.75291 0.92665 0.0
N197 N 0.44957 0.7575 0.95333 0.0
N198 N 0.35745 0.76874 0.97198 0.0
C199 C 0.39359 0.77805 0.01202 0.0
C200 C 0.44373 0.77202 0.00179 0.0
C201 C 0.63519 0.39475 0.35838 0.0
C202 C 0.59939 0.39325 0.39879 0.0
C203 C 0.69465 0.43763 0.35634 0.0
C204 C 0.72055 0.47989 0.39509 0.0
H205 H 0.61612 0.36577 0.32604 0.0
H206 H 0.71962 0.43951 0.32287 0.0
S207 S 0.64663 0.48733 0.51349 0.0
N208 N 0.59456 0.43273 0.48081 0.0
N209 N 0.70656 0.51171 0.47877 0.0
C210 C 0.68604 0.47491 0.43813 0.0
C211 C 0.62533 0.43208 0.43946 0.0
C212 C 0.33737 0.7335 0.62276 0.0
C213 C 0.29548 0.7511 0.62831 0.0
C214 C 0.32036 0.67402 0.61913 0.0
C215 C 0.26125 0.6307 0.62291 0.0
H216 H 0.3834 0.76595 0.6204 0.0
H217 H 0.35341 0.66184 0.61272 0.0
S218 S 0.13509 0.65345 0.6411 0.0
N219 N 0.19244 0.72015 0.63924 0.0
N220 N 0.16105 0.60848 0.63381 0.0
C221 C 0.21918 0.64753 0.62987 0.0
C222 C 0.23617 0.70784 0.63234 0.0
C223 C 0.62174 0.2741 0.89707 0.0
C224 C 0.63591 0.28526 0.94905 0.0
C225 C 0.5756 0.27923 0.87627 0.0
C226 C 0.54311 0.29675 0.90667 0.0
H227 H 0.64087 0.25372 0.87416 0.0
H228 H 0.56085 0.26261 0.83816 0.0
S229 S 0.57541 0.34754 0.04096 0.0
N230 N 0.62233 0.32533 0.02753 0.0
N231 N 0.53837 0.33905 0.98798 0.0
C232 C 0.56414 0.318 0.95608 0.0
C233 C 0.60975 0.31082 0.97762 0.0
C234 C 0.19121 0.27169 0.3046 0.0
C235 C 0.14619 0.22415 0.33122 0.0
C236 C 0.24982 0.29331 0.31732 0.0
C237 C 0.26587 0.26694 0.35574 0.0
H238 H 0.18124 0.29445 0.27549 0.0
H239 H 0.28295 0.33064 0.29636 0.0
S240 S 0.16556 0.13717 0.43245 0.0
N241 N 0.12192 0.14898 0.39552 0.0
N242 N 0.23286 0.18805 0.41737 0.0
C243 C 0.2218 0.21733 0.38052 0.0
C244 C 0.16183 0.19617 0.36856 0.0
C245 C 0.95207 0.23724 0.63397 0.0
C246 C 0.90994 0.22324 0.59552 0.0
C247 C 0.00234 0.29241 0.63658 0.0
C248 C 0.01342 0.33615 0.60047 0.0
H249 H 0.94626 0.20536 0.66279 0.0
H250 H 0.03336 0.30024 0.66671 0.0
S251 S 0.91848 0.32123 0.49027 0.0
N252 N 0.88353 0.25733 0.51947 0.0
N253 N 0.97818 0.36108 0.52394 0.0
C254 C 0.97179 0.3228 0.56149 0.0
C255 C 0.92033 0.26638 0.55895 0.0
C256 C 0.73559 0.02744 0.03092 0.0
C257 C 0.68478 0.0278 0.01583 0.0
C258 C 0.74431 0.98073 0.01815 0.0
C259 C 0.70362 0.93369 0.98823 0.0
H260 H 0.76934 0.06408 0.05197 0.0
H261 H 0.78363 0.98171 0.03131 0.0
S262 S 0.56357 0.91417 0.93827 0.0
N263 N 0.59267 0.97656 0.96986 0.0
N264 N 0.61033 0.89033 0.94395 0.0
C265 C 0.65264 0.93359 0.97268 0.0
C266 C 0.64285 0.98015 0.98712 0.0
C267 C 0.71144 0.70847 0.31368 0.0
C268 C 0.67972 0.71535 0.35371 0.0
C269 C 0.76611 0.71392 0.32195 0.0
C270 C 0.79125 0.72613 0.37072 0.0
H271 H 0.69269 0.69582 0.27594 0.0
H272 H 0.78653 0.70394 0.29066 0.0
S273 S 0.73223 0.76185 0.48561 0.0
N274 N 0.68177 0.74526 0.4416 0.0
N275 N 0.785 0.7558 0.45761 0.0
C276 C 0.76319 0.74009 0.40971 0.0
C277 C 0.70717 0.73444 0.40114 0.0
C278 C 0.06436 0.77171 0.70528 0.0
C279 C 0.11107 0.78004 0.73648 0.0
C280 C 0.00624 0.7311 0.71867 0.0
C281 C 0.9929 0.69735 0.76366 0.0
H282 H 0.07284 0.79336 0.66863 0.0
H283 H 0.97222 0.72266 0.69139 0.0
S284 S 0.09807 0.71472 0.86484 0.0
N285 N 0.1389 0.76003 0.81934 0.0
N286 N 0.03021 0.68378 0.84387 0.0
C287 C 0.03862 0.71053 0.79784 0.0
C288 C 0.09756 0.75178 0.78437 0.0
C289 C 0.27494 0.09009 0.03658 0.0
C290 C 0.24823 0.08183 0.98857 0.0
C291 C 0.26769 0.04231 0.06565 0.0
C292 C 0.2324 0.98459 0.04814 0.0
H293 H 0.3073 0.13356 0.04889 0.0
H294 H 0.29472 0.05102 0.09915 0.0
S295 S 0.13394 0.94077 0.93584 0.0
N296 N 0.17337 0.01282 0.93175 0.0
N297 N 0.15612 0.92248 0.9879 0.0
C298 C 0.1969 0.97612 0.00514 0.0
C299 C 0.20593 0.02494 0.97474 0.0
C300 C 0.94887 0.27378 0.09731 0.0
C301 C 0.90107 0.28243 0.08882 0.0
C302 C 0.98064 0.29102 0.14308 0.0
C303 C 0.96554 0.31698 0.1828 0.0
H304 H 0.96082 0.25169 0.069 0.0
H305 H 0.0154 0.28106 0.14828 0.0
S306 S 0.8486 0.35585 0.17801 0.0
N307 N 0.84389 0.32407 0.1226 0.0
N308 N 0.90293 0.35553 0.20866 0.0
C309 C 0.91996 0.32888 0.1738 0.0
C310 C 0.88799 0.31195 0.12688 0.0
C311 C 0.5653 0.91245 0.51215 0.0
C312 C 0.61024 0.97091 0.50468 0.0
C313 C 0.54855 0.87013 0.47341 0.0
C314 C 0.57619 0.8841 0.42538 0.0
H315 H 0.54408 0.89849 0.54894 0.0
H316 H 0.51538 0.8255 0.48207 0.0
S317 S 0.69117 0.03226 0.38354 0.0
N318 N 0.67806 0.04148 0.44338 0.0
N319 N 0.64695 0.9623 0.37097 0.0
C320 C 0.61881 0.9431 0.41636 0.0
C321 C 0.63564 0.98632 0.45576 0.0
C322 C 0.67174 0.66653 0.82875 0.0
C323 C 0.62941 0.63215 0.8657 0.0
C324 C 0.69813 0.64277 0.79725 0.0
C325 C 0.68337 0.58364 0.8014 0.0
H326 H 0.68702 0.71294 0.82595 0.0
H327 H 0.73253 0.67177 0.77141 0.0
S328 S 0.56798 0.47248 0.8857 0.0
N329 N 0.56889 0.53395 0.89966 0.0
N330 N 0.61811 0.48971 0.84106 0.0
C331 C 0.63809 0.54795 0.83554 0.0
C332 C 0.61126 0.57203 0.86744 0.0
C333 C 0.02197 0.72425 0.13918 0.0
C334 C 0.06639 0.71311 0.12285 0.0
C335 C 0.98563 0.69453 0.18084 0.0
C336 C 0.9919 0.65218 0.20838 0.0
H337 H 0.01619 0.7577 0.12068 0.0
H338 H 0.95359 0.70643 0.19248 0.0
S339 S 0.09681 0.60135 0.17792 0.0
N340 N 0.1111 0.65276 0.1352 0.0
N341 N 0.04296 0.59695 0.21326 0.0
C342 C 0.03412 0.63833 0.19091 0.0
C343 C 0.07119 0.66866 0.14831 0.0
C344 C 0.34548 0.08207 0.46898 0.0
C345 C 0.40533 0.11209 0.45607 0.0
C346 C 0.32288 0.03727 0.506 0.0
C347 C 0.3591 0.02016 0.53108 0.0
H348 H 0.31622 0.09474 0.45178 0.0
H349 H 0.27687 0.01653 0.5155 0.0
S350 S 0.51825 0.08164 0.50714 0.0
N351 N 0.49957 0.1192 0.46894 0.0
N352 N 0.45775 0.03505 0.53732 0.0
C353 C 0.41868 0.04846 0.51678 0.0
C354 C 0.44159 0.09435 0.47967 0.0
C355 C 0.28621 0.34793 0.81435 0.0
C356 C 0.3431 0.381 0.83432 0.0
C357 C 0.26602 0.37011 0.77552 0.0
C358 C 0.30173 0.42645 0.7549 0.0
H359 H 0.2572 0.30396 0.82811 0.0
H360 H 0.22221 0.34237 0.76113 0.0
S361 S 0.45331 0.53255 0.79597 0.0
N362 N 0.43403 0.47434 0.83185 0.0
N363 N 0.39639 0.51587 0.75934 0.0
C364 C 0.35829 0.46058 0.77542 0.0
C365 C 0.37884 0.43795 0.81491 0.0
C366 C 0.09304 0.3838 0.4332 0.0
C367 C 0.06253 0.32363 0.44459 0.0
C368 C 0.1424 0.42275 0.46139 0.0
C369 C 0.1625 0.40349 0.50275 0.0
H370 H 0.08196 0.40036 0.39982 0.0
H371 H 0.16635 0.46811 0.44936 0.0
S372 S 0.08901 0.2521 0.55485 0.0
N373 N 0.04873 0.24846 0.50551 0.0
N374 N 0.14256 0.32075 0.5574 0.0
C375 C 0.12915 0.34414 0.51706 0.0
C376 C 0.07825 0.30485 0.48893 0.0
C377 C 0.69518 0.1241 0.80239 0.0
C378 C 0.74122 0.14579 0.83786 0.0
C379 C 0.69738 0.09691 0.75727 0.0
C380 C 0.74565 0.08991 0.74597 0.0
H381 H 0.65717 0.12858 0.80937 0.0
H382 H 0.66169 0.0829 0.73053 0.0
S383 S 0.87434 0.13282 0.82917 0.0
N384 N 0.83442 0.15471 0.86051 0.0
N385 N 0.83821 0.1024 0.77621 0.0
C386 C 0.79081 0.10918 0.78225 0.0
C387 C 0.78894 0.13776 0.82782 0.0
C388 C 0.60541 0.77207 0.18889 0.0
C389 C 0.54613 0.72841 0.18684 0.0
C390 C 0.6439 0.77935 0.14919 0.0
C391 C 0.62475 0.74434 0.10511 0.0
H392 H 0.62333 0.79865 0.22273 0.0
H393 H 0.68942 0.8127 0.15322 0.0
S394 S 0.47237 0.62681 0.07904 0.0
N395 N 0.46909 0.65186 0.1359 0.0
N396 N 0.54137 0.66546 0.06106 0.0
C397 C 0.5651 0.70146 0.10185 0.0
C398 C 0.5258 0.69413 0.1424 0.0
C399 C 0.89347 0.55126 0.4892 0.0
C400 C 0.9457 0.60406 0.47856 0.0
C401 C 0.87085 0.53755 0.53887 0.0
C402 C 0.90127 0.57456 0.57963 0.0
H403 H 0.86706 0.52285 0.45863 0.0
H404 H 0.82864 0.49884 0.54518 0.0
S405 S 0.04656 0.70889 0.57443 0.0
N406 N 0.03145 0.68779 0.51441 0.0
N407 N 0.99068 0.6597 0.60823 0.0
C408 C 0.95687 0.62297 0.57067 0.0
C409 C 0.97901 0.63798 0.52002 0.0
C410 C 0.34156 0.87721 0.8712 0.0
C411 C 0.28967 0.8725 0.89016 0.0
C412 C 0.36033 0.8964 0.82137 0.0
C413 C 0.32886 0.91336 0.78919 0.0
H414 H 0.36769 0.86564 0.89507 0.0
H415 H 0.39949 0.89731 0.80763 0.0
S416 S 0.19255 0.91391 0.82322 0.0
N417 N 0.20828 0.88836 0.87462 0.0
N418 N 0.24468 0.92735 0.78152 0.0
C419 C 0.27795 0.91108 0.80868 0.0
C420 C 0.25798 0.88973 0.859 0.0
C421 C 0.42544 0.23413 0.16672 0.0
C422 C 0.43951 0.28677 0.1916 0.0
C423 C 0.41528 0.22782 0.11406 0.0
C424 C 0.41786 0.27357 0.08439 0.0
H425 H 0.42063 0.19689 0.18818 0.0
H426 H 0.40333 0.18598 0.09686 0.0
S427 S 0.45982 0.42267 0.12936 0.0
N428 N 0.46106 0.38768 0.18103 0.0
N429 N 0.44066 0.37481 0.08255 0.0
C430 C 0.43442 0.32721 0.10817 0.0
C431 C 0.44564 0.33408 0.16159 0.0
loop_
_geom_bond_atom_site_label_1
_geom_bond_atom_site_label_2
_geom_bond_distance
_geom_bond_site_symmetry_2
_ccdc_geom_bond_type
Zn0 O3 2.031 . S
Zn0 O5 2.049 . S
Zn0 O10 2.067 . S
Zn1 O2 1.962 . S
Zn1 O4 1.986 . S
Zn1 O6 1.996 . S
Zn1 O9 1.943 . S
O2 Zn1 1.962 . S
O2 C7 1.254 . S
O3 Zn0 2.031 . S
O3 C7 1.269 . S
O4 Zn1 1.986 . S
O4 C11 1.262 . S
O5 Zn0 2.049 . S
O5 C13 1.260 . S
O6 Zn1 1.996 . S
O6 C13 1.257 . S
C7 O2 1.254 . S
C7 O3 1.269 . S
C8 O9 1.249 . S
C8 O10 1.270 . S
O9 Zn1 1.943 . S
O9 C8 1.249 . S
O10 Zn0 2.067 . S
O10 C8 1.270 . S
C11 O4 1.262 . S
C11 O12 1.232 . S
O12 C11 1.232 . S
C13 O5 1.260 . S
C13 O6 1.257 . S
Zn14 O17 2.031 . S
Zn14 O19 2.049 . S
Zn14 O24 2.067 . S
Zn15 O16 1.962 . S
Zn15 O18 1.986 . S
Zn15 O20 1.996 . S
Zn15 O23 1.943 . S
O16 Zn15 1.962 . S
O16 C21 1.254 . S
O17 Zn14 2.031 . S
O17 C21 1.269 . S
O18 Zn15 1.986 . S
O18 C25 1.262 . S
O19 Zn14 2.049 . S
O19 C27 1.260 . S
O20 Zn15 1.996 . S
O20 C27 1.257 . S
C21 O16 1.254 . S
C21 O17 1.269 . S
C22 O23 1.249 . S
C22 O24 1.270 . S
O23 Zn15 1.943 . S
O23 C22 1.249 . S
O24 Zn14 2.067 . S
O24 C22 1.270 . S
C25 O18 1.262 . S
C25 O26 1.232 . S
O26 C25 1.232 . S
C27 O19 1.260 . S
C27 O20 1.257 . S
Zn28 O31 2.031 . S
Zn28 O33 2.049 . S
Zn28 O38 2.067 . S
Zn29 O30 1.962 . S
Zn29 O32 1.986 . S
Zn29 O34 1.996 . S
Zn29 O37 1.943 1_556 S
O30 Zn29 1.962 . S
O30 C35 1.254 . S
O31 Zn28 2.031 . S
O31 C35 1.269 1_554 S
O32 Zn29 1.986 . S
O32 C39 1.262 . S
O33 Zn28 2.049 . S
O33 C41 1.245 1_554 S
O34 Zn29 1.996 . S
O34 C41 1.264 . S
C35 O30 1.254 . S
C35 O31 1.269 1_556 S
C36 O37 1.249 . S
C36 O38 1.270 . S
O37 Zn29 1.943 1_554 S
O37 C36 1.249 . S
O38 Zn28 2.067 . S
O38 C36 1.270 . S
C39 O32 1.262 . S
C39 O40 1.232 . S
O40 C39 1.232 . S
C41 O33 1.245 1_556 S
C41 O34 1.264 . S
Zn42 O45 2.031 . S
Zn42 O47 2.049 . S
Zn42 O52 2.067 . S
Zn43 O44 1.962 . S
Zn43 O46 1.986 . S
Zn43 O48 1.996 . S
Zn43 O51 1.943 . S
O44 Zn43 1.962 . S
O44 C49 1.254 . S
O45 Zn42 2.031 . S
O45 C49 1.269 . S
O46 Zn43 1.986 . S
O46 C53 1.262 . S
O47 Zn42 2.049 . S
O47 C55 1.260 . S
O48 Zn43 1.996 . S
O48 C55 1.257 . S
C49 O44 1.254 . S
C49 O45 1.269 . S
C50 O51 1.249 . S
C50 O52 1.270 . S
O51 Zn43 1.943 . S
O51 C50 1.249 . S
O52 Zn42 2.067 . S
O52 C50 1.270 . S
C53 O46 1.262 . S
C53 O54 1.232 . S
O54 C53 1.232 . S
C55 O47 1.260 . S
C55 O48 1.257 . S
Zn56 O59 2.031 . S
Zn56 O61 2.049 . S
Zn56 O66 2.067 . S
Zn57 O58 1.962 . S
Zn57 O60 1.986 . S
Zn57 O62 1.996 . S
Zn57 O65 1.943 . S
O58 Zn57 1.962 . S
O58 C63 1.254 . S
O59 Zn56 2.031 . S
O59 C63 1.269 . S
O60 Zn57 1.986 . S
O60 C67 1.262 . S
O61 Zn56 2.049 . S
O61 C69 1.260 . S
O62 Zn57 1.996 . S
O62 C69 1.257 . S
C63 O58 1.254 . S
C63 O59 1.269 . S
C64 O65 1.249 . S
C64 O66 1.270 . S
O65 Zn57 1.943 . S
O65 C64 1.249 . S
O66 Zn56 2.067 . S
O66 C64 1.270 . S
C67 O60 1.262 . S
C67 O68 1.232 . S
O68 C67 1.232 . S
C69 O61 1.260 . S
C69 O62 1.257 . S
Zn70 O73 2.031 . S
Zn70 O75 2.049 . S
Zn70 O80 2.067 . S
Zn71 O72 1.962 . S
Zn71 O74 1.986 . S
Zn71 O76 1.996 . S
Zn71 O79 1.943 1_556 S
O72 Zn71 1.962 . S
O72 C77 1.254 . S
O73 Zn70 2.031 . S
O73 C77 1.269 1_554 S
O74 Zn71 1.986 . S
O74 C81 1.262 . S
O75 Zn70 2.049 . S
O75 C83 1.245 1_554 S
O76 Zn71 1.996 . S
O76 C83 1.264 . S
C77 O72 1.254 . S
C77 O73 1.269 1_556 S
C78 O79 1.249 . S
C78 O80 1.270 . S
O79 Zn71 1.943 1_554 S
O79 C78 1.249 . S
O80 Zn70 2.067 . S
O80 C78 1.270 . S
C81 O74 1.262 . S
C81 O82 1.232 . S
O82 C81 1.232 . S
C83 O75 1.245 1_556 S
C83 O76 1.264 . S
Zn84 O87 2.031 . S
Zn84 O89 2.049 . S
Zn84 O94 2.067 . S
Zn85 O86 1.962 . S
Zn85 O88 1.986 . S
Zn85 O90 1.996 . S
Zn85 O93 1.943 . S
O86 Zn85 1.962 . S
O86 C91 1.254 . S
O87 Zn84 2.031 . S
O87 C91 1.269 . S
O88 Zn85 1.986 . S
O88 C95 1.262 . S
O89 Zn84 2.049 . S
O89 C97 1.260 . S
O90 Zn85 1.996 . S
O90 C97 1.257 . S
C91 O86 1.254 . S
C91 O87 1.269 . S
C92 O93 1.249 . S
C92 O94 1.270 . S
O93 Zn85 1.943 . S
O93 C92 1.249 . S
O94 Zn84 2.067 . S
O94 C92 1.270 . S
C95 O88 1.262 . S
C95 O96 1.232 . S
O96 C95 1.232 . S
C97 O89 1.260 . S
C97 O90 1.257 . S
Zn98 O101 2.031 . S
Zn98 O103 2.049 . S
Zn98 O108 2.067 . S
Zn99 O100 1.962 . S
Zn99 O102 1.986 . S
Zn99 O104 1.996 . S
Zn99 O107 1.943 . S
O100 Zn99 1.962 . S
O100 C105 1.254 . S
O101 Zn98 2.031 . S
O101 C105 1.269 . S
O102 Zn99 1.986 . S
O102 C109 1.262 . S
O103 Zn98 2.049 . S
O103 C111 1.260 . S
O104 Zn99 1.996 . S
O104 C111 1.257 . S
C105 O100 1.254 . S
C105 O101 1.269 . S
C106 O107 1.249 . S
C106 O108 1.270 . S
O107 Zn99 1.943 . S
O107 C106 1.249 . S
O108 Zn98 2.067 . S
O108 C106 1.270 . S
C109 O102 1.262 . S
C109 O110 1.232 . S
O110 C109 1.232 . S
C111 O103 1.260 . S
C111 O104 1.257 . S
Zn112 O115 2.031 . S
Zn112 O117 2.049 . S
Zn112 O122 2.067 . S
Zn113 O114 1.962 . S
Zn113 O116 1.986 . S
Zn113 O118 1.996 . S
Zn113 O121 1.943 1_554 S
O114 Zn113 1.962 . S
O114 C119 1.254 . S
O115 Zn112 2.031 . S
O115 C119 1.269 1_556 S
O116 Zn113 1.986 . S
O116 C123 1.262 . S
O117 Zn112 2.049 . S
O117 C125 1.245 1_556 S
O118 Zn113 1.996 . S
O118 C125 1.264 . S
C119 O114 1.254 . S
C119 O115 1.269 1_554 S
C120 O121 1.249 . S
C120 O122 1.270 . S
O121 Zn113 1.943 1_556 S
O121 C120 1.249 . S
O122 Zn112 2.067 . S
O122 C120 1.270 . S
C123 O116 1.262 . S
C123 O124 1.232 . S
O124 C123 1.232 . S
C125 O117 1.245 1_554 S
C125 O118 1.264 . S
Zn126 O129 2.031 . S
Zn126 O131 2.049 . S
Zn126 O136 2.067 . S
Zn127 O128 1.962 . S
Zn127 O130 1.986 . S
Zn127 O132 1.996 . S
Zn127 O135 1.943 . S
O128 Zn127 1.962 . S
O128 C133 1.254 . S
O129 Zn126 2.031 . S
O129 C133 1.269 . S
O130 Zn127 1.986 . S
O130 C137 1.262 . S
O131 Zn126 2.049 . S
O131 C139 1.260 . S
O132 Zn127 1.996 . S
O132 C139 1.257 . S
C133 O128 1.254 . S
C133 O129 1.269 . S
C134 O135 1.249 . S
C134 O136 1.270 . S
O135 Zn127 1.943 . S
O135 C134 1.249 . S
O136 Zn126 2.067 . S
O136 C134 1.270 . S
C137 O130 1.262 . S
C137 O138 1.232 . S
O138 C137 1.232 . S
C139 O131 1.260 . S
C139 O132 1.257 . S
Zn140 O143 2.031 . S
Zn140 O145 2.049 . S
Zn140 O150 2.067 . S
Zn141 O142 1.962 . S
Zn141 O144 1.986 . S
Zn141 O146 1.996 . S
Zn141 O149 1.943 . S
O142 Zn141 1.962 . S
O142 C147 1.254 . S
O143 Zn140 2.031 . S
O143 C147 1.269 . S
O144 Zn141 1.986 . S
O144 C151 1.262 . S
O145 Zn140 2.049 . S
O145 C153 1.260 . S
O146 Zn141 1.996 . S
O146 C153 1.257 . S
C147 O142 1.254 . S
C147 O143 1.269 . S
C148 O149 1.249 . S
C148 O150 1.270 . S
O149 Zn141 1.943 . S
O149 C148 1.249 . S
O150 Zn140 2.067 . S
O150 C148 1.270 . S
C151 O144 1.262 . S
C151 O152 1.232 . S
O152 C151 1.232 . S
C153 O145 1.260 . S
C153 O146 1.257 . S
Zn154 O157 2.031 . S
Zn154 O159 2.049 . S
Zn154 O164 2.067 . S
Zn155 O156 1.962 . S
Zn155 O158 1.986 . S
Zn155 O160 1.996 . S
Zn155 O163 1.943 1_554 S
O156 Zn155 1.962 . S
O156 C161 1.254 . S
O157 Zn154 2.031 . S
O157 C161 1.269 1_556 S
O158 Zn155 1.986 . S
O158 C165 1.262 . S
O159 Zn154 2.049 . S
O159 C167 1.245 1_556 S
O160 Zn155 1.996 . S
O160 C167 1.264 . S
C161 O156 1.254 . S
C161 O157 1.269 1_554 S
C162 O163 1.249 . S
C162 O164 1.270 . S
O163 Zn155 1.943 1_556 S
O163 C162 1.249 . S
O164 Zn154 2.067 . S
O164 C162 1.270 . S
C165 O158 1.262 . S
C165 O166 1.232 . S
O166 C165 1.232 . S
C167 O159 1.245 1_554 S
C167 O160 1.264 . S
C168 C169 1.369 . S
C168 C170 1.419 . S
C168 H172 0.930 . S
C169 C168 1.369 . S
C169 C178 1.429 . S
C170 C168 1.419 . S
C170 C171 1.363 . S
C170 H173 0.929 . S
C171 C170 1.363 . S
C171 C177 1.428 . S
H172 C168 0.930 . S
H173 C170 0.929 . S
S174 N175 1.613 . S
S174 N176 1.610 . S
N175 S174 1.613 . S
N175 C178 1.350 . S
N176 S174 1.610 . S
N176 C177 1.351 . S
C177 C171 1.428 . S
C177 N176 1.351 . S
C177 C178 1.434 . S
C178 C169 1.429 . S
C178 N175 1.350 . S
C178 C177 1.434 . S
C179 C180 1.369 . S
C179 C181 1.419 . S
C179 H183 0.930 . S
C180 C179 1.369 . S
C180 C189 1.429 . S
C181 C179 1.419 . S
C181 C182 1.363 . S
C181 H184 0.929 . S
C182 C181 1.363 . S
C182 C188 1.428 . S
H183 C179 0.930 . S
H184 C181 0.929 . S
S185 N186 1.613 . S
S185 N187 1.610 . S
N186 S185 1.613 . S
N186 C189 1.350 . S
N187 S185 1.610 . S
N187 C188 1.351 . S
C188 C182 1.428 . S
C188 N187 1.351 . S
C188 C189 1.434 . S
C189 C180 1.429 . S
C189 N186 1.350 . S
C189 C188 1.434 . S
C190 C191 1.369 1_554 S
C190 C192 1.419 . S
C190 H194 0.930 . S
C191 C190 1.369 1_556 S
C191 C200 1.429 . S
C192 C190 1.419 . S
C192 C193 1.363 . S
C192 H195 0.929 . S
C193 C192 1.363 . S
C193 C199 1.428 1_554 S
H194 C190 0.930 . S
H195 C192 0.929 . S
S196 N197 1.613 . S
S196 N198 1.610 . S
N197 S196 1.613 . S
N197 C200 1.350 . S
N198 S196 1.610 . S
N198 C199 1.351 . S
C199 C193 1.428 1_556 S
C199 N198 1.351 . S
C199 C200 1.434 . S
C200 C191 1.429 . S
C200 N197 1.350 . S
C200 C199 1.434 . S
C201 C202 1.369 . S
C201 C203 1.419 . S
C201 H205 0.930 . S
C202 C201 1.369 . S
C202 C211 1.429 . S
C203 C201 1.419 . S
C203 C204 1.363 . S
C203 H206 0.929 . S
C204 C203 1.363 . S
C204 C210 1.428 . S
H205 C201 0.930 . S
H206 C203 0.929 . S
S207 N208 1.613 . S
S207 N209 1.610 . S
N208 S207 1.613 . S
N208 C211 1.350 . S
N209 S207 1.610 . S
N209 C210 1.351 . S
C210 C204 1.428 . S
C210 N209 1.351 . S
C210 C211 1.434 . S
C211 C202 1.429 . S
C211 N208 1.350 . S
C211 C210 1.434 . S
C212 C213 1.369 . S
C212 C214 1.419 . S
C212 H216 0.930 . S
C213 C212 1.369 . S
C213 C222 1.429 . S
C214 C212 1.419 . S
C214 C215 1.363 . S
C214 H217 0.929 . S
C215 C214 1.363 . S
C215 C221 1.428 . S
H216 C212 0.930 . S
H217 C214 0.929 . S
S218 N219 1.613 . S
S218 N220 1.610 . S
N219 S218 1.613 . S
N219 C222 1.350 . S
N220 S218 1.610 . S
N220 C221 1.351 . S
C221 C215 1.428 . S
C221 N220 1.351 . S
C221 C222 1.434 . S
C222 C213 1.429 . S
C222 N219 1.350 . S
C222 C221 1.434 . S
C223 C224 1.369 1_556 S
C223 C225 1.419 . S
C223 H227 0.930 . S
C224 C223 1.369 1_554 S
C224 C233 1.429 . S
C225 C223 1.419 . S
C225 C226 1.363 . S
C225 H228 0.929 . S
C226 C225 1.363 . S
C226 C232 1.428 1_556 S
H227 C223 0.930 . S
H228 C225 0.929 . S
S229 N230 1.613 . S
S229 N231 1.610 . S
N230 S229 1.613 . S
N230 C233 1.350 . S
N231 S229 1.610 . S
N231 C232 1.351 . S
C232 C226 1.428 1_554 S
C232 N231 1.351 . S
C232 C233 1.434 . S
C233 C224 1.429 . S
C233 N230 1.350 . S
C233 C232 1.434 . S
C234 C235 1.369 . S
C234 C236 1.419 . S
C234 H238 0.930 . S
C235 C234 1.369 . S
C235 C244 1.429 . S
C236 C234 1.419 . S
C236 C237 1.363 . S
C236 H239 0.929 . S
C237 C236 1.363 . S
C237 C243 1.428 . S
H238 C234 0.930 . S
H239 C236 0.929 . S
S240 N241 1.613 . S
S240 N242 1.610 . S
N241 S240 1.613 . S
N241 C244 1.350 . S
N242 S240 1.610 . S
N242 C243 1.351 . S
C243 C237 1.428 . S
C243 N242 1.351 . S
C243 C244 1.434 . S
C244 C235 1.429 . S
C244 N241 1.350 . S
C244 C243 1.434 . S
C245 C246 1.369 . S
C245 C247 1.419 1_655 S
C245 H249 0.930 . S
C246 C245 1.369 . S
C246 C255 1.429 . S
C247 C245 1.419 1_455 S
C247 C248 1.363 . S
C247 H250 0.929 . S
C248 C247 1.363 . S
C248 C254 1.428 . S
H249 C245 0.930 . S
H250 C247 0.929 . S
S251 N252 1.613 . S
S251 N253 1.610 1_655 S
N252 S251 1.613 . S
N252 C255 1.350 . S
N253 S251 1.610 1_455 S
N253 C254 1.351 . S
C254 C248 1.428 . S
C254 N253 1.351 . S
C254 C255 1.434 1_455 S
C255 C246 1.429 . S
C255 N252 1.350 . S
C255 C254 1.434 1_655 S
C256 C257 1.369 . S
C256 C258 1.419 1_545 S
C256 H260 0.930 . S
C257 C256 1.369 . S
C257 C266 1.429 1_554 S
C258 C256 1.419 1_565 S
C258 C259 1.363 1_554 S
C258 H261 0.929 . S
C259 C258 1.363 1_556 S
C259 C265 1.428 . S
H260 C256 0.930 . S
H261 C258 0.929 . S
S262 N263 1.613 . S
S262 N264 1.610 1_545 S
N263 S262 1.613 . S
N263 C266 1.350 . S
N264 S262 1.610 1_565 S
N264 C265 1.351 . S
C265 C259 1.428 . S
C265 N264 1.351 . S
C265 C266 1.434 1_565 S
C266 C257 1.429 1_556 S
C266 N263 1.350 . S
C266 C265 1.434 1_545 S
C267 C268 1.369 . S
C267 C269 1.419 . S
C267 H271 0.930 . S
C268 C267 1.369 . S
C268 C277 1.429 . S
C269 C267 1.419 . S
C269 C270 1.363 . S
C269 H272 0.929 . S
C270 C269 1.363 . S
C270 C276 1.428 . S
H271 C267 0.930 . S
H272 C269 0.929 . S
S273 N274 1.613 . S
S273 N275 1.610 . S
N274 S273 1.613 . S
N274 C277 1.350 . S
N275 S273 1.610 . S
N275 C276 1.351 . S
C276 C270 1.428 . S
C276 N275 1.351 . S
C276 C277 1.434 . S
C277 C268 1.429 . S
C277 N274 1.350 . S
C277 C276 1.434 . S
C278 C279 1.369 . S
C278 C280 1.419 1_455 S
C278 H282 0.930 . S
C279 C278 1.369 . S
C279 C288 1.429 . S
C280 C278 1.419 1_655 S
C280 C281 1.363 . S
C280 H283 0.929 . S
C281 C280 1.363 . S
C281 C287 1.428 . S
H282 C278 0.930 . S
H283 C280 0.929 . S
S284 N285 1.613 . S
S284 N286 1.610 1_455 S
N285 S284 1.613 . S
N285 C288 1.350 . S
N286 S284 1.610 1_655 S
N286 C287 1.351 . S
C287 C281 1.428 . S
C287 N286 1.351 . S
C287 C288 1.434 1_655 S
C288 C279 1.429 . S
C288 N285 1.350 . S
C288 C287 1.434 1_455 S
C289 C290 1.369 . S
C289 C291 1.419 1_545 S
C289 H293 0.930 . S
C290 C289 1.369 . S
C290 C299 1.429 1_556 S
C291 C289 1.419 1_565 S
C291 C292 1.363 1_556 S
C291 H294 0.929 . S
C292 C291 1.363 1_554 S
C292 C298 1.428 . S
H293 C289 0.930 . S
H294 C291 0.929 . S
S295 N296 1.613 . S
S295 N297 1.610 1_545 S
N296 S295 1.613 . S
N296 C299 1.350 . S
N297 S295 1.610 1_565 S
N297 C298 1.351 . S
C298 C292 1.428 . S
C298 N297 1.351 . S
C298 C299 1.434 1_565 S
C299 C290 1.429 1_554 S
C299 N296 1.350 . S
C299 C298 1.434 1_545 S
C300 C301 1.369 1_455 S
C300 C302 1.419 . S
C300 H304 0.930 . S
C301 C300 1.369 1_655 S
C301 C310 1.429 . S
C302 C300 1.419 . S
C302 C303 1.363 . S
C302 H305 0.929 . S
C303 C302 1.363 . S
C303 C309 1.428 1_455 S
H304 C300 0.930 . S
H305 C302 0.929 . S
S306 N307 1.613 . S
S306 N308 1.610 . S
N307 S306 1.613 . S
N307 C310 1.350 . S
N308 S306 1.610 . S
N308 C309 1.351 . S
C309 C303 1.428 1_655 S
C309 N308 1.351 . S
C309 C310 1.434 . S
C310 C301 1.429 . S
C310 N307 1.350 . S
C310 C309 1.434 . S
C311 C312 1.369 1_565 S
C311 C313 1.419 . S
C311 H315 0.930 . S
C312 C311 1.369 1_545 S
C312 C321 1.429 . S
C313 C311 1.419 . S
C313 C314 1.363 . S
C313 H316 0.929 . S
C314 C313 1.363 . S
C314 C320 1.428 1_565 S
H315 C311 0.930 . S
H316 C313 0.929 . S
S317 N318 1.613 . S
S317 N319 1.610 . S
N318 S317 1.613 . S
N318 C321 1.350 . S
N319 S317 1.610 . S
N319 C320 1.351 . S
C320 C314 1.428 1_545 S
C320 N319 1.351 . S
C320 C321 1.434 . S
C321 C312 1.429 . S
C321 N318 1.350 . S
C321 C320 1.434 . S
C322 C323 1.369 . S
C322 C324 1.419 . S
C322 H326 0.930 . S
C323 C322 1.369 . S
C323 C332 1.429 . S
C324 C322 1.419 . S
C324 C325 1.363 . S
C324 H327 0.929 . S
C325 C324 1.363 . S
C325 C331 1.428 . S
H326 C322 0.930 . S
H327 C324 0.929 . S
S328 N329 1.613 . S
S328 N330 1.610 . S
N329 S328 1.613 . S
N329 C332 1.350 . S
N330 S328 1.610 . S
N330 C331 1.351 . S
C331 C325 1.428 . S
C331 N330 1.351 . S
C331 C332 1.434 . S
C332 C323 1.429 . S
C332 N329 1.350 . S
C332 C331 1.434 . S
C333 C334 1.369 1_655 S
C333 C335 1.419 . S
C333 H337 0.930 . S
C334 C333 1.369 1_455 S
C334 C343 1.429 . S
C335 C333 1.419 . S
C335 C336 1.363 . S
C335 H338 0.929 . S
C336 C335 1.363 . S
C336 C342 1.428 1_655 S
H337 C333 0.930 . S
H338 C335 0.929 . S
S339 N340 1.613 . S
S339 N341 1.610 . S
N340 S339 1.613 . S
N340 C343 1.350 . S
N341 S339 1.610 . S
N341 C342 1.351 . S
C342 C336 1.428 1_455 S
C342 N341 1.351 . S
C342 C343 1.434 . S
C343 C334 1.429 . S
C343 N340 1.350 . S
C343 C342 1.434 . S
C344 C345 1.369 1_565 S
C344 C346 1.419 . S
C344 H348 0.930 . S
C345 C344 1.369 1_545 S
C345 C354 1.429 . S
C346 C344 1.419 . S
C346 C347 1.363 . S
C346 H349 0.929 . S
C347 C346 1.363 . S
C347 C353 1.428 1_565 S
H348 C344 0.930 . S
H349 C346 0.929 . S
S350 N351 1.613 . S
S350 N352 1.610 . S
N351 S350 1.613 . S
N351 C354 1.350 . S
N352 S350 1.610 . S
N352 C353 1.351 . S
C353 C347 1.428 1_545 S
C353 N352 1.351 . S
C353 C354 1.434 . S
C354 C345 1.429 . S
C354 N351 1.350 . S
C354 C353 1.434 . S
C355 C356 1.369 . S
C355 C357 1.419 . S
C355 H359 0.930 . S
C356 C355 1.369 . S
C356 C365 1.429 . S
C357 C355 1.419 . S
C357 C358 1.363 . S
C357 H360 0.929 . S
C358 C357 1.363 . S
C358 C364 1.428 . S
H359 C355 0.930 . S
H360 C357 0.929 . S
S361 N362 1.613 . S
S361 N363 1.610 . S
N362 S361 1.613 . S
N362 C365 1.350 . S
N363 S361 1.610 . S
N363 C364 1.351 . S
C364 C358 1.428 . S
C364 N363 1.351 . S
C364 C365 1.434 . S
C365 C356 1.429 . S
C365 N362 1.350 . S
C365 C364 1.434 . S
C366 C367 1.369 . S
C366 C368 1.419 . S
C366 H370 0.930 . S
C367 C366 1.369 . S
C367 C376 1.429 . S
C368 C366 1.419 . S
C368 C369 1.363 . S
C368 H371 0.929 . S
C369 C368 1.363 . S
C369 C375 1.428 . S
H370 C366 0.930 . S
H371 C368 0.929 . S
S372 N373 1.613 . S
S372 N374 1.610 . S
N373 S372 1.613 . S
N373 C376 1.350 . S
N374 S372 1.610 . S
N374 C375 1.351 . S
C375 C369 1.428 . S
C375 N374 1.351 . S
C375 C376 1.434 . S
C376 C367 1.429 . S
C376 N373 1.350 . S
C376 C375 1.434 . S
C377 C378 1.369 . S
C377 C379 1.419 . S
C377 H381 0.930 . S
C378 C377 1.369 . S
C378 C387 1.429 . S
C379 C377 1.419 . S
C379 C380 1.363 . S
C379 H382 0.929 . S
C380 C379 1.363 . S
C380 C386 1.428 . S
H381 C377 0.930 . S
H382 C379 0.929 . S
S383 N384 1.613 . S
S383 N385 1.610 . S
N384 S383 1.613 . S
N384 C387 1.350 . S
N385 S383 1.610 . S
N385 C386 1.351 . S
C386 C380 1.428 . S
C386 N385 1.351 . S
C386 C387 1.434 . S
C387 C378 1.429 . S
C387 N384 1.350 . S
C387 C386 1.434 . S
C388 C389 1.369 . S
C388 C390 1.419 . S
C388 H392 0.930 . S
C389 C388 1.369 . S
C389 C398 1.429 . S
C390 C388 1.419 . S
C390 C391 1.363 . S
C390 H393 0.929 . S
C391 C390 1.363 . S
C391 C397 1.428 . S
H392 C388 0.930 . S
H393 C390 0.929 . S
S394 N395 1.613 . S
S394 N396 1.610 . S
N395 S394 1.613 . S
N395 C398 1.350 . S
N396 S394 1.610 . S
N396 C397 1.351 . S
C397 C391 1.428 . S
C397 N396 1.351 . S
C397 C398 1.434 . S
C398 C389 1.429 . S
C398 N395 1.350 . S
C398 C397 1.434 . S
C399 C400 1.369 . S
C399 C401 1.419 . S
C399 H403 0.930 . S
C400 C399 1.369 . S
C400 C409 1.429 . S
C401 C399 1.419 . S
C401 C402 1.363 . S
C401 H404 0.929 . S
C402 C401 1.363 . S
C402 C408 1.428 . S
H403 C399 0.930 . S
H404 C401 0.929 . S
S405 N406 1.613 . S
S405 N407 1.610 . S
N406 S405 1.613 . S
N406 C409 1.350 . S
N407 S405 1.610 . S
N407 C408 1.351 . S
C408 C402 1.428 . S
C408 N407 1.351 . S
C408 C409 1.434 . S
C409 C400 1.429 . S
C409 N406 1.350 . S
C409 C408 1.434 . S
C410 C411 1.369 . S
C410 C412 1.419 . S
C410 H414 0.930 . S
C411 C410 1.369 . S
C411 C420 1.429 . S
C412 C410 1.419 . S
C412 C413 1.363 . S
C412 H415 0.929 . S
C413 C412 1.363 . S
C413 C419 1.428 . S
H414 C410 0.930 . S
H415 C412 0.929 . S
S416 N417 1.613 . S
S416 N418 1.610 . S
N417 S416 1.613 . S
N417 C420 1.350 . S
N418 S416 1.610 . S
N418 C419 1.351 . S
C419 C413 1.428 . S
C419 N418 1.351 . S
C419 C420 1.434 . S
C420 C411 1.429 . S
C420 N417 1.350 . S
C420 C419 1.434 . S
C421 C422 1.369 . S
C421 C423 1.419 . S
C421 H425 0.930 . S
C422 C421 1.369 . S
C422 C431 1.429 . S
C423 C421 1.419 . S
C423 C424 1.363 . S
C423 H426 0.929 . S
C424 C423 1.363 . S
C424 C430 1.428 . S
H425 C421 0.930 . S
H426 C423 0.929 . S
S427 N428 1.613 . S
S427 N429 1.610 . S
N428 S427 1.613 . S
N428 C431 1.350 . S
N429 S427 1.610 . S
N429 C430 1.351 . S
C430 C424 1.428 . S
C430 N429 1.351 . S
C430 C431 1.434 . S
C431 C422 1.429 . S
C431 N428 1.350 . S
C431 C430 1.434 . S
C169 C7 1.407 . S
C171 C91 1.406 . S
C180 C21 1.408 . S
C182 C105 1.402 . S
C191 C35 1.382 . S
C193 C119 1.381 . S
C202 C133 1.405 . S
C204 C49 1.400 . S
C213 C63 1.401 . S
C215 C147 1.401 . S
C224 C161 1.388 . S
C226 C77 1.384 . S
C235 C13 1.016 . S
C237 C139 1.024 . S
C246 C27 1.007 . S
C248 C153 1.009 . S
C257 C167 1.004 . S
C259 C41 1.002 . S
C268 C97 1.013 . S
C270 C55 1.007 . S
C279 C69 1.008 . S
C281 C111 1.019 . S
C290 C83 1.001 . S
C292 C125 1.013 . S
C301 C165 1.691 . S
C303 C11 1.692 . S
C312 C25 1.727 . S
C314 C95 1.732 . S
C323 C39 1.696 . S
C325 C109 1.689 . S
C334 C123 1.691 . S
C336 C53 1.693 . S
C345 C137 1.730 . S
C347 C67 1.730 . S
C356 C81 1.695 . S
C358 C151 1.689 . S
C367 C8 0.900 . S
C369 C148 0.874 . S
C378 C162 0.897 . S
C380 C22 0.924 . S
C389 C92 0.926 . S
C391 C36 0.904 . S
C400 C50 0.899 . S
C402 C106 0.876 . S
C411 C120 0.919 . S
C413 C64 0.907 . S
C422 C134 0.926 . S
C424 C78 0.903 . S
